# Generated by pormake.
# Topology vbp, (6)-cn, num edge types: 1
# Building blocks:
#     Node 0, Type 0, BuildingBlock: OJICUG_clean_sbu_0, # of connection points: 6
#     Node 1, Type 0, BuildingBlock: OJICUG_clean_sbu_0, # of connection points: 6
#     Node 2, Type 0, BuildingBlock: OJICUG_clean_sbu_0, # of connection points: 6
#     Node 3, Type 0, BuildingBlock: OJICUG_clean_sbu_0, # of connection points: 6
#     Node 4, Type 0, BuildingBlock: OJICUG_clean_sbu_0, # of connection points: 6
#     Node 5, Type 0, BuildingBlock: OJICUG_clean_sbu_0, # of connection points: 6
#     Node 6, Type 0, BuildingBlock: OJICUG_clean_sbu_0, # of connection points: 6
#     Node 7, Type 0, BuildingBlock: OJICUG_clean_sbu_0, # of connection points: 6
#     Node 8, Type 0, BuildingBlock: OJICUG_clean_sbu_0, # of connection points: 6
#     Node 9, Type 0, BuildingBlock: OJICUG_clean_sbu_0, # of connection points: 6
#     Node 10, Type 0, BuildingBlock: OJICUG_clean_sbu_0, # of connection points: 6
#     Node 11, Type 0, BuildingBlock: OJICUG_clean_sbu_0, # of connection points: 6
#     Node 12, Type 0, BuildingBlock: OJICUG_clean_sbu_0, # of connection points: 6
#     Node 13, Type 0, BuildingBlock: OJICUG_clean_sbu_0, # of connection points: 6
#     Node 14, Type 0, BuildingBlock: OJICUG_clean_sbu_0, # of connection points: 6
#     Node 15, Type 0, BuildingBlock: OJICUG_clean_sbu_0, # of connection points: 6
#     Edge 16, Type (0, 0), BuildingBlock: CIFDUS_clean_linker_0, # of connection points: 2
#     Edge 17, Type (0, 0), BuildingBlock: CIFDUS_clean_linker_0, # of connection points: 2
#     Edge 18, Type (0, 0), BuildingBlock: CIFDUS_clean_linker_0, # of connection points: 2
#     Edge 19, Type (0, 0), BuildingBlock: CIFDUS_clean_linker_0, # of connection points: 2
#     Edge 20, Type (0, 0), BuildingBlock: CIFDUS_clean_linker_0, # of connection points: 2
#     Edge 21, Type (0, 0), BuildingBlock: CIFDUS_clean_linker_0, # of connection points: 2
#     Edge 22, Type (0, 0), BuildingBlock: CIFDUS_clean_linker_0, # of connection points: 2
#     Edge 23, Type (0, 0), BuildingBlock: CIFDUS_clean_linker_0, # of connection points: 2
#     Edge 24, Type (0, 0), BuildingBlock: CIFDUS_clean_linker_0, # of connection points: 2
#     Edge 25, Type (0, 0), BuildingBlock: CIFDUS_clean_linker_0, # of connection points: 2
#     Edge 26, Type (0, 0), BuildingBlock: CIFDUS_clean_linker_0, # of connection points: 2
#     Edge 27, Type (0, 0), BuildingBlock: CIFDUS_clean_linker_0, # of connection points: 2
#     Edge 28, Type (0, 0), BuildingBlock: CIFDUS_clean_linker_0, # of connection points: 2
#     Edge 29, Type (0, 0), BuildingBlock: CIFDUS_clean_linker_0, # of connection points: 2
#     Edge 30, Type (0, 0), BuildingBlock: CIFDUS_clean_linker_0, # of connection points: 2
#     Edge 31, Type (0, 0), BuildingBlock: CIFDUS_clean_linker_0, # of connection points: 2
#     Edge 32, Type (0, 0), BuildingBlock: CIFDUS_clean_linker_0, # of connection points: 2
#     Edge 33, Type (0, 0), BuildingBlock: CIFDUS_clean_linker_0, # of connection points: 2
#     Edge 34, Type (0, 0), BuildingBlock: CIFDUS_clean_linker_0, # of connection points: 2
#     Edge 35, Type (0, 0), BuildingBlock: CIFDUS_clean_linker_0, # of connection points: 2
#     Edge 36, Type (0, 0), BuildingBlock: CIFDUS_clean_linker_0, # of connection points: 2
#     Edge 37, Type (0, 0), BuildingBlock: CIFDUS_clean_linker_0, # of connection points: 2
#     Edge 38, Type (0, 0), BuildingBlock: CIFDUS_clean_linker_0, # of connection points: 2
#     Edge 39, Type (0, 0), BuildingBlock: CIFDUS_clean_linker_0, # of connection points: 2
#     Edge 40, Type (0, 0), BuildingBlock: CIFDUS_clean_linker_0, # of connection points: 2
#     Edge 41, Type (0, 0), BuildingBlock: CIFDUS_clean_linker_0, # of connection points: 2
#     Edge 42, Type (0, 0), BuildingBlock: CIFDUS_clean_linker_0, # of connection points: 2
#     Edge 43, Type (0, 0), BuildingBlock: CIFDUS_clean_linker_0, # of connection points: 2
#     Edge 44, Type (0, 0), BuildingBlock: CIFDUS_clean_linker_0, # of connection points: 2
#     Edge 45, Type (0, 0), BuildingBlock: CIFDUS_clean_linker_0, # of connection points: 2
#     Edge 46, Type (0, 0), BuildingBlock: CIFDUS_clean_linker_0, # of connection points: 2
#     Edge 47, Type (0, 0), BuildingBlock: CIFDUS_clean_linker_0, # of connection points: 2
#     Edge 48, Type (0, 0), BuildingBlock: CIFDUS_clean_linker_0, # of connection points: 2
#     Edge 49, Type (0, 0), BuildingBlock: CIFDUS_clean_linker_0, # of connection points: 2
#     Edge 50, Type (0, 0), BuildingBlock: CIFDUS_clean_linker_0, # of connection points: 2
#     Edge 51, Type (0, 0), BuildingBlock: CIFDUS_clean_linker_0, # of connection points: 2
#     Edge 52, Type (0, 0), BuildingBlock: CIFDUS_clean_linker_0, # of connection points: 2
#     Edge 53, Type (0, 0), BuildingBlock: CIFDUS_clean_linker_0, # of connection points: 2
#     Edge 54, Type (0, 0), BuildingBlock: CIFDUS_clean_linker_0, # of connection points: 2
#     Edge 55, Type (0, 0), BuildingBlock: CIFDUS_clean_linker_0, # of connection points: 2
#     Edge 56, Type (0, 0), BuildingBlock: CIFDUS_clean_linker_0, # of connection points: 2
#     Edge 57, Type (0, 0), BuildingBlock: CIFDUS_clean_linker_0, # of connection points: 2
#     Edge 58, Type (0, 0), BuildingBlock: CIFDUS_clean_linker_0, # of connection points: 2
#     Edge 59, Type (0, 0), BuildingBlock: CIFDUS_clean_linker_0, # of connection points: 2
#     Edge 60, Type (0, 0), BuildingBlock: CIFDUS_clean_linker_0, # of connection points: 2
#     Edge 61, Type (0, 0), BuildingBlock: CIFDUS_clean_linker_0, # of connection points: 2
#     Edge 62, Type (0, 0), BuildingBlock: CIFDUS_clean_linker_0, # of connection points: 2
#     Edge 63, Type (0, 0), BuildingBlock: CIFDUS_clean_linker_0, # of connection points: 2
# Relax obj value: 0.262
# Max RMSD: 0.268
# Mean RMSD: 0.268
data_MOF--net-vbp--node1-OJICUG_clean_sbu_0--edge1-CIFDUS_clean_linker_0
_symmetry_space_group_name_H-M    P1
_symmetry_Int_Tables_number       1
_symmetry_cell_setting            triclinic
loop_
_symmetry_equiv_pos_as_xyz
'x, y, z'
_cell_length_a     26.430372
_cell_length_b     37.830314
_cell_length_c     48.648426
_cell_angle_alpha  90.100759
_cell_angle_beta   90.334317
_cell_angle_gamma 90.101585
loop_
_atom_site_label
_atom_site_type_symbol
_atom_site_fract_x
_atom_site_fract_y
_atom_site_fract_z
_atom_type_partial_charge
Sc0 Sc 0.31339 0.11478 0.14925 0.0
Sc1 Sc 0.36967 0.03206 0.13495 0.0
Sc2 Sc 0.42569 0.10991 0.11166 0.0
O3 O 0.36947 0.0856 0.13234 0.0
C4 C 0.32442 0.14256 0.08601 0.0
C5 C 0.25104 0.0454 0.13211 0.0
C6 C 0.41233 0.03937 0.07628 0.0
C7 C 0.34097 0.05634 0.19602 0.0
C8 C 0.40591 0.16927 0.15639 0.0
C9 C 0.48766 0.05295 0.1422 0.0
O10 O 0.29814 0.13918 0.10813 0.0
O11 O 0.28913 0.02541 0.12903 0.0
O12 O 0.43232 0.06875 0.08237 0.0
O13 O 0.32455 0.08747 0.18963 0.0
O14 O 0.43145 0.15439 0.13793 0.0
O15 O 0.45103 0.03098 0.141 0.0
O16 O 0.36201 0.15853 0.16307 0.0
O17 O 0.3586 0.03499 0.17828 0.0
O18 O 0.48275 0.08545 0.13631 0.0
O19 O 0.25509 0.07758 0.13902 0.0
O20 O 0.37113 0.13445 0.08512 0.0
O21 O 0.38058 0.02409 0.09171 0.0
Sc22 Sc 0.67334 0.38944 0.15432 0.0
Sc23 Sc 0.61117 0.46872 0.13759 0.0
Sc24 Sc 0.57076 0.38918 0.10768 0.0
O25 O 0.61802 0.41572 0.1335 0.0
C26 C 0.67911 0.35788 0.09227 0.0
C27 C 0.72919 0.46119 0.13659 0.0
C28 C 0.58219 0.46001 0.0746 0.0
C29 C 0.64109 0.4466 0.19935 0.0
C30 C 0.58078 0.33385 0.15634 0.0
C31 C 0.49672 0.44379 0.13699 0.0
O32 O 0.69969 0.3658 0.11543 0.0
O33 O 0.68935 0.47736 0.12925 0.0
O34 O 0.57606 0.42687 0.07553 0.0
O35 O 0.65427 0.41464 0.19403 0.0
O36 O 0.55726 0.34833 0.13667 0.0
O37 O 0.5316 0.46448 0.14543 0.0
O38 O 0.62451 0.34413 0.16434 0.0
O39 O 0.62669 0.46774 0.18071 0.0
O40 O 0.50509 0.41572 0.12334 0.0
O41 O 0.72866 0.43062 0.14748 0.0
O42 O 0.632 0.36183 0.08788 0.0
O43 O 0.59461 0.47839 0.09531 0.0
Sc44 Sc 0.31542 0.88711 0.38178 0.0
Sc45 Sc 0.35754 0.97107 0.40142 0.0
Sc46 Sc 0.40156 0.89688 0.43548 0.0
O47 O 0.35905 0.91821 0.40539 0.0
C48 C 0.30252 0.8536 0.442 0.0
C49 C 0.24262 0.9531 0.39556 0.0
C50 C 0.37162 0.96215 0.46623 0.0
C51 C 0.34327 0.94663 0.33852 0.0
C52 C 0.42241 0.84453 0.38706 0.0
C53 C 0.4715 0.95869 0.41197 0.0
O54 O 0.28285 0.86381 0.41931 0.0
O55 O 0.27681 0.97208 0.40694 0.0
O56 O 0.36488 0.9291 0.46534 0.0
O57 O 0.34012 0.91329 0.34342 0.0
O58 O 0.43869 0.86369 0.40669 0.0
O59 O 0.43847 0.97182 0.39572 0.0
O60 O 0.37691 0.847 0.37765 0.0
O61 O 0.34591 0.96933 0.35773 0.0
O62 O 0.46077 0.93514 0.42963 0.0
O63 O 0.25212 0.92372 0.38366 0.0
O64 O 0.34973 0.85555 0.44609 0.0
O65 O 0.37171 0.98067 0.44447 0.0
Sc66 Sc 0.57216 0.61578 0.42915 0.0
Sc67 Sc 0.61709 0.53742 0.40181 0.0
Sc68 Sc 0.67399 0.61744 0.38457 0.0
O69 O 0.62041 0.59007 0.40448 0.0
C70 C 0.57378 0.66705 0.3801 0.0
C71 C 0.50275 0.55552 0.40322 0.0
C72 C 0.64487 0.55999 0.3399 0.0
C73 C 0.59352 0.55096 0.46526 0.0
C74 C 0.67416 0.65043 0.44448 0.0
C75 C 0.73363 0.54715 0.40254 0.0
O76 O 0.54799 0.6473 0.39566 0.0
O77 O 0.53816 0.53903 0.39113 0.0
O78 O 0.65244 0.59306 0.34482 0.0
O79 O 0.59308 0.58446 0.46384 0.0
O80 O 0.70018 0.63719 0.42495 0.0
O81 O 0.69507 0.53222 0.41279 0.0
O82 O 0.62692 0.65489 0.44159 0.0
O83 O 0.5975 0.53115 0.44427 0.0
O84 O 0.73094 0.57609 0.38917 0.0
O85 O 0.51066 0.58079 0.41988 0.0
O86 O 0.62175 0.66302 0.37705 0.0
O87 O 0.63594 0.53783 0.35893 0.0
Sc88 Sc 0.56255 0.88902 0.92383 0.0
Sc89 Sc 0.61174 0.96799 0.89737 0.0
Sc90 Sc 0.66579 0.88585 0.87901 0.0
O91 O 0.61315 0.91435 0.89969 0.0
C92 C 0.66848 0.85511 0.9414 0.0
C93 C 0.58118 0.95916 0.95882 0.0
C94 C 0.73023 0.95407 0.89559 0.0
C95 C 0.49329 0.94655 0.8967 0.0
C96 C 0.57222 0.83255 0.87563 0.0
C97 C 0.63317 0.94565 0.83496 0.0
O98 O 0.62286 0.86365 0.9464 0.0
O99 O 0.60644 0.97597 0.94101 0.0
O100 O 0.72535 0.92221 0.88803 0.0
O101 O 0.49947 0.9146 0.90417 0.0
O102 O 0.61396 0.84396 0.86627 0.0
O103 O 0.61737 0.96654 0.85352 0.0
O104 O 0.55143 0.84571 0.89657 0.0
O105 O 0.52984 0.96843 0.89439 0.0
O106 O 0.64986 0.91446 0.8403 0.0
O107 O 0.56291 0.92881 0.95432 0.0
O108 O 0.68813 0.85893 0.91749 0.0
O109 O 0.69282 0.97418 0.90034 0.0
Sc110 Sc 0.30675 0.61485 0.88549 0.0
Sc111 Sc 0.36549 0.53375 0.90005 0.0
Sc112 Sc 0.41955 0.61277 0.92359 0.0
O113 O 0.36429 0.58709 0.9028 0.0
C114 C 0.39984 0.66817 0.87647 0.0
C115 C 0.32813 0.55688 0.83979 0.0
C116 C 0.48078 0.55383 0.89097 0.0
C117 C 0.24962 0.5455 0.90668 0.0
C118 C 0.31769 0.64723 0.94645 0.0
C119 C 0.40987 0.54425 0.96008 0.0
O120 O 0.35339 0.65999 0.87337 0.0
O121 O 0.34143 0.53485 0.85811 0.0
O122 O 0.47777 0.58305 0.9038 0.0
O123 O 0.25117 0.57506 0.89441 0.0
O124 O 0.36559 0.64361 0.94633 0.0
O125 O 0.39001 0.52551 0.94132 0.0
O126 O 0.28985 0.63806 0.92596 0.0
O127 O 0.28902 0.52863 0.91368 0.0
O128 O 0.41993 0.57674 0.95713 0.0
O129 O 0.31937 0.58955 0.84524 0.0
O130 O 0.42892 0.65163 0.8926 0.0
O131 O 0.44304 0.53352 0.88683 0.0
Sc132 Sc 0.55889 0.10546 0.60179 0.0
Sc133 Sc 0.6088 0.02975 0.63217 0.0
Sc134 Sc 0.65964 0.11225 0.64802 0.0
O135 O 0.60844 0.0827 0.62773 0.0
C136 C 0.66274 0.1433 0.58654 0.0
C137 C 0.57504 0.03649 0.5696 0.0
C138 C 0.72338 0.04488 0.62941 0.0
C139 C 0.49369 0.04588 0.63345 0.0
C140 C 0.56197 0.16285 0.64866 0.0
C141 C 0.63672 0.05516 0.69316 0.0
O142 O 0.61515 0.13967 0.58331 0.0
O143 O 0.58212 0.01848 0.59121 0.0
O144 O 0.71754 0.0733 0.64299 0.0
O145 O 0.4982 0.07124 0.61626 0.0
O146 O 0.60769 0.15581 0.65506 0.0
O147 O 0.63236 0.03205 0.67436 0.0
O148 O 0.53674 0.14446 0.63152 0.0
O149 O 0.53143 0.03079 0.6448 0.0
O150 O 0.63913 0.08831 0.68775 0.0
O151 O 0.57721 0.06982 0.56946 0.0
O152 O 0.68516 0.13445 0.60888 0.0
O153 O 0.6866 0.02683 0.61977 0.0
Sc154 Sc 0.4195 0.39801 0.60649 0.0
Sc155 Sc 0.37902 0.47432 0.63964 0.0
Sc156 Sc 0.31492 0.39507 0.65071 0.0
O157 O 0.37157 0.42216 0.63252 0.0
C158 C 0.31119 0.36731 0.58806 0.0
C159 C 0.41643 0.47099 0.57783 0.0
C160 C 0.26369 0.46865 0.63384 0.0
C161 C 0.49094 0.44988 0.64248 0.0
C162 C 0.40471 0.33813 0.6512 0.0
C163 C 0.34008 0.44811 0.69839 0.0
O164 O 0.35882 0.37062 0.58477 0.0
O165 O 0.40771 0.48719 0.60002 0.0
O166 O 0.2635 0.43853 0.64546 0.0
O167 O 0.4839 0.42582 0.62436 0.0
O168 O 0.36029 0.34787 0.65789 0.0
O169 O 0.35241 0.47106 0.68076 0.0
O170 O 0.432 0.35522 0.63444 0.0
O171 O 0.45495 0.46675 0.65377 0.0
O172 O 0.33347 0.41557 0.69195 0.0
O173 O 0.41354 0.43772 0.57561 0.0
O174 O 0.28954 0.37542 0.61065 0.0
O175 O 0.30374 0.48382 0.62563 0.0
Sc176 Sc 0.81971 0.61217 0.64876 0.0
Sc177 Sc 0.87184 0.53035 0.63394 0.0
Sc178 Sc 0.92516 0.60584 0.60713 0.0
O179 O 0.87269 0.58285 0.63048 0.0
C180 C 0.82643 0.64399 0.58846 0.0
C181 C 0.75821 0.54338 0.62867 0.0
C182 C 0.90843 0.54027 0.572 0.0
C183 C 0.83979 0.55496 0.69437 0.0
C184 C 0.92189 0.65929 0.65517 0.0
C185 C 0.98573 0.54478 0.63811 0.0
O186 O 0.79836 0.63234 0.6078 0.0
O187 O 0.79646 0.52825 0.61835 0.0
O188 O 0.90666 0.57372 0.57249 0.0
O189 O 0.83731 0.58823 0.68906 0.0
O190 O 0.94759 0.63841 0.64048 0.0
O191 O 0.9475 0.53074 0.64946 0.0
O192 O 0.87357 0.65655 0.65718 0.0
O193 O 0.84483 0.53194 0.67551 0.0
O194 O 0.98206 0.56891 0.62003 0.0
O195 O 0.76157 0.57158 0.64308 0.0
O196 O 0.87421 0.64546 0.59131 0.0
O197 O 0.90061 0.52156 0.59322 0.0
Sc198 Sc 0.159 0.89213 0.64939 0.0
Sc199 Sc 0.09996 0.97139 0.63133 0.0
Sc200 Sc 0.06229 0.89325 0.60017 0.0
O201 O 0.10666 0.91862 0.62754 0.0
C202 C 0.16793 0.8574 0.58877 0.0
C203 C 0.21644 0.96281 0.6291 0.0
C204 C 0.07183 0.96118 0.56808 0.0
C205 C 0.13158 0.95103 0.69313 0.0
C206 C 0.06063 0.84056 0.65023 0.0
C207 C 0.98828 0.94825 0.62978 0.0
O208 O 0.1881 0.86785 0.61136 0.0
O209 O 0.17721 0.97804 0.61948 0.0
O210 O 0.08226 0.92865 0.56808 0.0
O211 O 0.13768 0.91794 0.68837 0.0
O212 O 0.03972 0.85606 0.63012 0.0
O213 O 0.02235 0.96551 0.64275 0.0
O214 O 0.10572 0.84795 0.65845 0.0
O215 O 0.12259 0.97282 0.67392 0.0
O216 O -0.00209 0.9245 0.612 0.0
O217 O 0.21477 0.93385 0.64267 0.0
O218 O 0.12076 0.85983 0.58437 0.0
O219 O 0.07341 0.97952 0.58989 0.0
Sc220 Sc 0.81897 0.38991 0.883 0.0
Sc221 Sc 0.85297 0.4766 0.89922 0.0
Sc222 Sc 0.90847 0.40703 0.9341 0.0
O223 O 0.86096 0.42426 0.90478 0.0
C224 C 0.81232 0.35994 0.94488 0.0
C225 C 0.74163 0.453 0.89626 0.0
C226 C 0.87696 0.4738 0.9632 0.0
C227 C 0.83839 0.44798 0.83775 0.0
C228 C 0.92812 0.35112 0.88764 0.0
C229 C 0.96857 0.47044 0.90472 0.0
O230 O 0.79125 0.36696 0.92176 0.0
O231 O 0.77405 0.47318 0.90779 0.0
O232 O 0.87392 0.44051 0.96371 0.0
O233 O 0.84024 0.41487 0.84358 0.0
O234 O 0.94455 0.37188 0.9062 0.0
O235 O 0.93159 0.48126 0.89016 0.0
O236 O 0.88221 0.35195 0.87897 0.0
O237 O 0.8367 0.4715 0.85631 0.0
O238 O 0.96397 0.44671 0.92315 0.0
O239 O 0.75318 0.42402 0.88441 0.0
O240 O 0.85884 0.36635 0.94924 0.0
O241 O 0.87166 0.49086 0.94098 0.0
Sc242 Sc 0.0561 0.11231 0.92206 0.0
Sc243 Sc 0.11185 0.03546 0.89662 0.0
Sc244 Sc 0.16646 0.11907 0.8829 0.0
O245 O 0.11155 0.08895 0.90014 0.0
C246 C 0.07267 0.17253 0.8778 0.0
C247 C -0.00653 0.05556 0.89082 0.0
C248 C 0.13881 0.06118 0.83563 0.0
C249 C 0.07128 0.041 0.95601 0.0
C250 C 0.15782 0.14562 0.9467 0.0
C251 C 0.23032 0.05001 0.89865 0.0
O252 O 0.04851 0.15715 0.89654 0.0
O253 O 0.03036 0.03384 0.89089 0.0
O254 O 0.15445 0.09248 0.84221 0.0
O255 O 0.0515 0.07063 0.95083 0.0
O256 O 0.18309 0.14287 0.92418 0.0
O257 O 0.19257 0.0297 0.90204 0.0
O258 O 0.11136 0.13695 0.94816 0.0
O259 O 0.10187 0.02601 0.93975 0.0
O260 O 0.22569 0.08222 0.89197 0.0
O261 O -0.00183 0.08773 0.89791 0.0
O262 O 0.11624 0.16238 0.8701 0.0
O263 O 0.1222 0.03935 0.85328 0.0
Sc264 Sc 0.07111 0.39846 0.42472 0.0
Sc265 Sc 0.12374 0.47341 0.3945 0.0
Sc266 Sc 0.17121 0.38987 0.37861 0.0
O267 O 0.12124 0.42046 0.39888 0.0
C268 C 0.17531 0.36077 0.44052 0.0
C269 C 0.09029 0.46807 0.45703 0.0
C270 C 0.23824 0.45664 0.39569 0.0
C271 C 0.00704 0.459 0.39337 0.0
C272 C 0.07265 0.33977 0.37874 0.0
C273 C 0.14843 0.44666 0.3334 0.0
O274 O 0.12787 0.36494 0.44392 0.0
O275 O 0.10149 0.48576 0.43583 0.0
O276 O 0.23084 0.42798 0.38264 0.0
O277 O 0.0108 0.43244 0.4095 0.0
O278 O 0.11831 0.3463 0.37214 0.0
O279 O 0.14381 0.46979 0.35212 0.0
O280 O 0.04831 0.35884 0.39555 0.0
O281 O 0.04525 0.47459 0.38307 0.0
O282 O 0.15086 0.4135 0.33878 0.0
O283 O 0.08785 0.4347 0.45693 0.0
O284 O 0.19709 0.36845 0.41789 0.0
O285 O 0.20245 0.47497 0.40574 0.0
Sc286 Sc 0.80819 0.11563 0.37787 0.0
Sc287 Sc 0.85949 0.034 0.39725 0.0
Sc288 Sc 0.90514 0.11239 0.42702 0.0
O289 O 0.85836 0.08733 0.40038 0.0
C290 C 0.90282 0.16913 0.3797 0.0
C291 C 0.84098 0.05791 0.33442 0.0
C292 C 0.97646 0.05305 0.40019 0.0
C293 C 0.74319 0.04707 0.39232 0.0
C294 C 0.79751 0.14651 0.43943 0.0
C295 C 0.88359 0.04353 0.46094 0.0
O296 O 0.85829 0.16084 0.3719 0.0
O297 O 0.84716 0.03566 0.35369 0.0
O298 O 0.96904 0.0814 0.41379 0.0
O299 O 0.7504 0.07619 0.38012 0.0
O300 O 0.84486 0.14403 0.44402 0.0
O301 O 0.87351 0.0247 0.44003 0.0
O302 O 0.77766 0.13745 0.41634 0.0
O303 O 0.77881 0.02989 0.40387 0.0
O304 O 0.89062 0.07655 0.45975 0.0
O305 O 0.83361 0.09098 0.33911 0.0
O306 O 0.92671 0.15178 0.39781 0.0
O307 O 0.94048 0.03382 0.39088 0.0
Sc308 Sc 0.06378 0.60623 0.10701 0.0
Sc309 Sc 0.1232 0.5301 0.13101 0.0
Sc310 Sc 0.17236 0.61323 0.14654 0.0
O311 O 0.11931 0.58305 0.12855 0.0
C312 C 0.16155 0.64589 0.08685 0.0
C313 C 0.08061 0.54108 0.07005 0.0
C314 C 0.23686 0.54677 0.12652 0.0
C315 C 0.00727 0.54184 0.13687 0.0
C316 C 0.07252 0.6608 0.15413 0.0
C317 C 0.15487 0.55516 0.19161 0.0
O318 O 0.11361 0.64547 0.08933 0.0
O319 O 0.09438 0.5216 0.08999 0.0
O320 O 0.23114 0.57514 0.14014 0.0
O321 O 0.00822 0.56881 0.12124 0.0
O322 O 0.1204 0.65671 0.1554 0.0
O323 O 0.14959 0.53215 0.17272 0.0
O324 O 0.04423 0.63984 0.14068 0.0
O325 O 0.04714 0.52694 0.14584 0.0
O326 O 0.15689 0.58849 0.18653 0.0
O327 O 0.07859 0.57446 0.07182 0.0
O328 O 0.1907 0.63459 0.10596 0.0
O329 O 0.19993 0.52913 0.11675 0.0
Sc330 Sc 0.91696 0.8856 0.10597 0.0
Sc331 Sc 0.86937 0.9651 0.13195 0.0
Sc332 Sc 0.81285 0.88389 0.15031 0.0
O333 O 0.86664 0.91154 0.12988 0.0
C334 C 0.81008 0.85364 0.08763 0.0
C335 C 0.90142 0.95597 0.07109 0.0
C336 C 0.75058 0.95266 0.13358 0.0
C337 C 0.98733 0.94209 0.13318 0.0
C338 C 0.90333 0.82856 0.15347 0.0
C339 C 0.84701 0.94384 0.19435 0.0
O340 O 0.85589 0.86195 0.0827 0.0
O341 O 0.87411 0.97223 0.0883 0.0
O342 O 0.75458 0.92074 0.14094 0.0
O343 O 0.98038 0.90982 0.12663 0.0
O344 O 0.8627 0.84121 0.1632 0.0
O345 O 0.86403 0.96416 0.17576 0.0
O346 O 0.92481 0.84138 0.13261 0.0
O347 O 0.95131 0.96445 0.13465 0.0
O348 O 0.82908 0.91284 0.1891 0.0
O349 O 0.92015 0.92591 0.07594 0.0
O350 O 0.79052 0.85712 0.11162 0.0
O351 O 0.7885 0.97248 0.1292 0.0
H352 H 0.48052 0.06472 0.0402 0.0
H353 H 0.39716 0.97023 0.06144 0.0
H354 H 0.44856 0.93602 0.02949 0.0
H355 H 0.51745 0.93301 0.99691 0.0
H356 H 0.59953 0.02769 0.9747 0.0
H357 H 0.55005 0.06159 1.00778 0.0
C358 C 0.4731 0.03667 0.03775 0.0
C359 C 0.43505 0.02001 0.05324 0.0
C360 C 0.50364 0.01711 0.02015 0.0
C361 C 0.42588 0.98374 0.04961 0.0
C362 C 0.45575 0.96411 0.03171 0.0
C363 C 0.5252 0.96101 0.99941 0.0
C364 C 0.56192 0.97788 0.98313 0.0
C365 C 0.49514 0.98049 0.01728 0.0
C366 C 0.57159 0.01405 0.98698 0.0
C367 C 0.5428 0.03351 1.00555 0.0
H368 H 0.50588 0.43768 0.0427 0.0
H369 H 0.60886 0.52506 0.05514 0.0
H370 H 0.56025 0.56065 0.02236 0.0
H371 H 0.4876 0.56691 0.99159 0.0
H372 H 0.38367 0.47968 0.98032 0.0
H373 H 0.43289 0.44417 1.01263 0.0
C374 C 0.51852 0.46422 0.03774 0.0
C375 C 0.56126 0.47867 0.05085 0.0
C376 C 0.48933 0.48478 0.02005 0.0
C377 C 0.57639 0.51337 0.04489 0.0
C378 C 0.54828 0.53378 0.02653 0.0
C379 C 0.47502 0.54039 0.99662 0.0
C380 C 0.432 0.5259 0.98373 0.0
C381 C 0.50417 0.51991 1.01446 0.0
C382 C 0.41659 0.49137 0.99014 0.0
C383 C 0.44499 0.47097 1.00829 0.0
H384 H 0.44952 0.00727 0.4637 0.0
H385 H 0.36201 0.94491 0.52054 0.0
H386 H 0.42257 0.95901 0.55741 0.0
H387 H 0.50045 0.98873 0.5728 0.0
H388 H 0.58742 0.0504 0.51534 0.0
H389 H 0.5279 0.03505 0.47847 0.0
C390 C 0.44292 0.99736 0.4843 0.0
C391 C 0.40076 0.97581 0.4897 0.0
C392 C 0.47879 0.00415 0.50474 0.0
C393 C 0.39372 0.96218 0.5162 0.0
C394 C 0.42865 0.96976 0.53705 0.0
C395 C 0.50715 0.99786 0.55199 0.0
C396 C 0.54854 0.02005 0.54645 0.0
C397 C 0.47169 0.99025 0.53138 0.0
C398 C 0.55615 0.03277 0.51975 0.0
C399 C 0.52178 0.02451 0.4989 0.0
H400 H 0.52559 0.578 0.50021 0.0
H401 H 0.61716 0.48579 0.48487 0.0
H402 H 0.56715 0.45189 0.51775 0.0
H403 H 0.49334 0.44743 0.54745 0.0
H404 H 0.40079 0.53922 0.56238 0.0
H405 H 0.45444 0.57439 0.53192 0.0
C406 C 0.53558 0.5508 0.50472 0.0
C407 C 0.57494 0.5343 0.49036 0.0
C408 C 0.50528 0.53118 0.5225 0.0
C409 C 0.58707 0.49892 0.49593 0.0
C410 C 0.55809 0.47947 0.51433 0.0
C411 C 0.4843 0.47494 0.54354 0.0
C412 C 0.44255 0.49065 0.55633 0.0
C413 C 0.51604 0.49503 0.52688 0.0
C414 C 0.43224 0.5266 0.5521 0.0
C415 C 0.46319 0.54671 0.53508 0.0
H416 H 0.97437 0.5698 0.5365 0.0
H417 H 0.89965 0.47156 0.55642 0.0
H418 H 0.95471 0.43993 0.52473 0.0
H419 H 0.02478 0.44002 0.49294 0.0
H420 H 0.09882 0.53796 0.47147 0.0
H421 H 0.04422 0.56997 0.50349 0.0
C422 C 0.9693 0.5416 0.5334 0.0
C423 C 0.9328 0.52299 0.54856 0.0
C424 C 0.00196 0.5235 0.5158 0.0
C425 C 0.92729 0.4864 0.54477 0.0
C426 C 0.95911 0.46829 0.52697 0.0
C427 C 0.02989 0.46829 0.49558 0.0
C428 C 0.06624 0.48658 0.4801 0.0
C429 C -0.00285 0.48651 0.51288 0.0
C430 C 0.07147 0.52329 0.48343 0.0
C431 C 0.03986 0.5416 0.50139 0.0
H432 H -0.00093 0.01086 0.56941 0.0
H433 H 0.07743 0.93983 0.51469 0.0
H434 H 0.01845 0.95477 0.4776 0.0
H435 H 0.94623 0.98861 0.46087 0.0
H436 H 0.87061 0.06199 0.51465 0.0
H437 H 0.92563 0.04395 0.55286 0.0
C438 C 0.00395 0.99919 0.54921 0.0
C439 C 0.04304 0.97479 0.54454 0.0
C440 C 0.96932 0.0072 0.52835 0.0
C441 C 0.04801 0.9591 0.51853 0.0
C442 C 0.01397 0.96724 0.49751 0.0
C443 C 0.94067 0.99975 0.48121 0.0
C444 C 0.90397 0.02597 0.4853 0.0
C445 C 0.97427 0.99095 0.50233 0.0
C446 C 0.89812 0.04121 0.51139 0.0
C447 C 0.93009 0.03141 0.53297 0.0
H448 H 0.94789 0.44361 0.99516 0.0
H449 H 0.87405 0.54311 0.97861 0.0
H450 H 0.93601 0.57367 1.00781 0.0
H451 H 0.01123 0.57183 0.03697 0.0
H452 H 0.08533 0.47222 0.05317 0.0
H453 H 0.02398 0.44193 0.02361 0.0
C454 C 0.94448 0.47188 0.99846 0.0
C455 C 0.9059 0.4911 0.98525 0.0
C456 C 0.98122 0.48927 1.01418 0.0
C457 C 0.90296 0.52781 0.98903 0.0
C458 C 0.93874 0.54527 1.00532 0.0
C459 C 0.01482 0.54359 0.03361 0.0
C460 C 0.05293 0.52427 0.04718 0.0
C461 C 0.97845 0.52628 0.01756 0.0
C462 C 0.0565 0.48766 0.04281 0.0
C463 C 0.02107 0.47031 0.02627 0.0
H464 H 0.00021 0.06416 0.99125 0.0
H465 H 0.091 0.97264 0.97152 0.0
H466 H 0.04101 0.93705 1.00329 0.0
H467 H 0.97078 0.93195 0.03505 0.0
H468 H 0.88015 0.02362 0.05464 0.0
H469 H 0.92948 0.05892 0.02247 0.0
C470 C 0.00962 0.03648 0.99396 0.0
C471 C 0.04929 0.02103 0.97894 0.0
C472 C 0.97975 0.01607 1.01128 0.0
C473 C 0.06091 0.98521 0.98294 0.0
C474 C 0.0319 0.96478 1.00076 0.0
C475 C 0.96115 0.95956 0.03213 0.0
C476 C 0.92195 0.97521 0.0474 0.0
C477 C -0.00924 0.97988 1.01457 0.0
C478 C 0.91001 0.01092 0.04312 0.0
C479 C 0.93864 0.0312 0.02506 0.0
H480 H 0.35087 0.98763 0.21201 0.0
H481 H 0.32472 0.09193 0.24524 0.0
H482 H 0.3231 0.06679 0.29177 0.0
H483 H 0.3303 0.01547 0.32281 0.0
H484 H 0.35488 0.9112 0.28913 0.0
H485 H 0.35589 0.93639 0.24272 0.0
C486 C 0.34498 0.00521 0.22932 0.0
C487 C 0.33844 0.04205 0.22483 0.0
C488 C 0.34384 0.9905 0.25592 0.0
C489 C 0.33002 0.06375 0.2478 0.0
C490 C 0.32918 0.04929 0.27445 0.0
C491 C 0.33607 0.99802 0.30541 0.0
C492 C 0.34298 0.96118 0.30977 0.0
C493 C 0.33629 0.01273 0.27874 0.0
C494 C 0.34961 0.9394 0.28667 0.0
C495 C 0.35023 0.9539 0.26009 0.0
H496 H 0.63829 0.5162 0.21388 0.0
H497 H 0.65155 0.41189 0.24916 0.0
H498 H 0.65496 0.43828 0.29527 0.0
H499 H 0.65262 0.4906 0.32531 0.0
H500 H 0.64069 0.59494 0.28996 0.0
H501 H 0.63869 0.5686 0.24383 0.0
C502 C 0.64171 0.49896 0.23158 0.0
C503 C 0.64404 0.46176 0.22783 0.0
C504 C 0.64402 0.51437 0.25795 0.0
C505 C 0.64941 0.44036 0.25122 0.0
C506 C 0.65134 0.45552 0.2776 0.0
C507 C 0.64949 0.50783 0.3076 0.0
C508 C 0.64632 0.54499 0.31135 0.0
C509 C 0.64842 0.49246 0.28119 0.0
C510 C 0.64313 0.56648 0.28791 0.0
C511 C 0.64182 0.55134 0.2615 0.0
H512 H 0.62242 0.01459 0.81942 0.0
H513 H 0.6496 0.91045 0.78607 0.0
H514 H 0.65465 0.93578 0.73985 0.0
H515 H 0.6508 0.98698 0.70915 0.0
H516 H 0.62473 0.09136 0.74224 0.0
H517 H 0.62055 0.06621 0.78866 0.0
C518 C 0.62913 0.99718 0.8021 0.0
C519 C 0.63507 0.96032 0.80641 0.0
C520 C 0.6326 0.01202 0.77563 0.0
C521 C 0.64459 0.93867 0.78355 0.0
C522 C 0.64757 0.95322 0.7571 0.0
C523 C 0.64418 0.0045 0.72642 0.0
C524 C 0.63775 0.04126 0.72196 0.0
C525 C 0.64161 0.98981 0.75293 0.0
C526 C 0.6299 0.06317 0.74487 0.0
C527 C 0.62726 0.0487 0.77142 0.0
H528 H 0.32664 0.48759 0.82461 0.0
H529 H 0.32087 0.59298 0.79061 0.0
H530 H 0.32155 0.5678 0.74414 0.0
H531 H 0.32812 0.51652 0.71368 0.0
H532 H 0.33543 0.41108 0.74743 0.0
H533 H 0.32949 0.43599 0.79396 0.0
C534 C 0.32548 0.5053 0.80712 0.0
C535 C 0.32429 0.54242 0.81127 0.0
C536 C 0.32631 0.49062 0.78056 0.0
C537 C 0.32192 0.56453 0.78818 0.0
C538 C 0.32249 0.55008 0.76161 0.0
C539 C 0.32853 0.49871 0.73112 0.0
C540 C 0.333 0.46175 0.72693 0.0
C541 C 0.32544 0.51324 0.75763 0.0
C542 C 0.33229 0.43944 0.74993 0.0
C543 C 0.32903 0.45376 0.77652 0.0
H544 H 0.83123 0.51663 0.82115 0.0
H545 H 0.84534 0.4107 0.7887 0.0
H546 H 0.84626 0.43487 0.7419 0.0
H547 H 0.844 0.48584 0.71059 0.0
H548 H 0.83046 0.59166 0.74334 0.0
H549 H 0.82835 0.56734 0.78999 0.0
C550 C 0.83454 0.49848 0.80398 0.0
C551 C 0.83835 0.46154 0.80876 0.0
C552 C 0.83515 0.5126 0.77723 0.0
C553 C 0.84239 0.43901 0.7859 0.0
C554 C 0.84293 0.45292 0.75911 0.0
C555 C 0.84051 0.50387 0.72782 0.0
C556 C 0.83743 0.54088 0.72316 0.0
C557 C 0.83948 0.48966 0.75457 0.0
C558 C 0.8329 0.56331 0.74604 0.0
C559 C 0.83173 0.54933 0.77276 0.0
H560 H 0.1377 0.99226 0.81968 0.0
H561 H 0.14557 0.0977 0.78613 0.0
H562 H 0.14452 0.07263 0.73943 0.0
H563 H 0.13892 0.02076 0.70834 0.0
H564 H 0.13243 0.91563 0.74266 0.0
H565 H 0.13528 0.94086 0.78904 0.0
C566 C 0.13905 0.01007 0.80226 0.0
C567 C 0.14109 0.04717 0.8067 0.0
C568 C 0.13856 0.99543 0.7756 0.0
C569 C 0.14386 0.06928 0.78359 0.0
C570 C 0.1431 0.05485 0.75685 0.0
C571 C 0.13806 0.00318 0.72591 0.0
C572 C 0.13499 0.96602 0.72173 0.0
C573 C 0.14001 0.01796 0.75262 0.0
C574 C 0.13464 0.94406 0.74498 0.0
C575 C 0.13622 0.95858 0.77156 0.0
H576 H 0.15137 0.51568 0.31784 0.0
H577 H 0.15291 0.40985 0.28421 0.0
H578 H 0.15701 0.43466 0.23771 0.0
H579 H 0.15841 0.486 0.20706 0.0
H580 H 0.15584 0.59176 0.24084 0.0
H581 H 0.15433 0.5669 0.28733 0.0
C582 C 0.15252 0.49772 0.30047 0.0
C583 C 0.15149 0.46064 0.30473 0.0
C584 C 0.15484 0.51217 0.27393 0.0
C585 C 0.15347 0.43829 0.28171 0.0
C586 C 0.15583 0.45254 0.25512 0.0
C587 C 0.1576 0.5039 0.22448 0.0
C588 C 0.15702 0.541 0.22024 0.0
C589 C 0.15629 0.48941 0.25105 0.0
C590 C 0.15635 0.56331 0.24331 0.0
C591 C 0.15532 0.54904 0.2699 0.0
H592 H 0.83073 0.98883 0.31969 0.0
H593 H 0.8527 0.09253 0.28468 0.0
H594 H 0.85742 0.06588 0.2387 0.0
H595 H 0.85628 0.01328 0.20883 0.0
H596 H 0.83193 0.90986 0.24391 0.0
H597 H 0.8275 0.93655 0.28981 0.0
C598 C 0.83674 0.00586 0.3021 0.0
C599 C 0.84184 0.0429 0.30589 0.0
C600 C 0.83919 0.99034 0.27581 0.0
C601 C 0.8487 0.06416 0.28257 0.0
C602 C 0.85155 0.04883 0.25628 0.0
C603 C 0.85035 0.99631 0.22645 0.0
C604 C 0.84507 0.95925 0.22273 0.0
C605 C 0.84714 0.01194 0.25271 0.0
C606 C 0.83643 0.9382 0.24598 0.0
C607 C 0.83385 0.95354 0.27224 0.0
H608 H 0.22282 0.15411 0.07258 0.0
H609 H 0.37171 0.15096 0.03657 0.0
H610 H 0.33516 0.15426 0.99087 0.0
H611 H 0.26036 0.15184 0.95992 0.0
H612 H 0.11171 0.15883 0.99582 0.0
H613 H 0.14859 0.16072 0.04157 0.0
C614 C 0.24742 0.15491 0.05484 0.0
C615 C 0.30025 0.15176 0.05865 0.0
C616 C 0.2261 0.15717 0.02796 0.0
C617 C 0.33094 0.15295 0.0349 0.0
C618 C 0.31004 0.15478 1.00839 0.0
C619 C 0.23599 0.15464 0.97763 0.0
C620 C 0.18297 0.15467 0.97384 0.0
C621 C 0.25754 0.15599 1.00449 0.0
C622 C 0.15258 0.1583 0.99754 0.0
C623 C 0.17365 0.15931 0.02405 0.0
H624 H 0.84374 0.35008 0.99826 0.0
H625 H 0.70935 0.34811 0.94737 0.0
H626 H 0.65703 0.34304 0.98848 0.0
H627 H 0.6487 0.34601 0.03889 0.0
H628 H 0.78298 0.3512 0.08975 0.0
H629 H 0.83566 0.34777 0.04867 0.0
C630 C 0.80304 0.34783 0.99594 0.0
C631 C 0.78088 0.34956 0.96933 0.0
C632 C 0.77291 0.34585 0.01984 0.0
C633 C 0.72788 0.34674 0.96725 0.0
C634 C 0.69779 0.34408 0.99089 0.0
C635 C 0.68951 0.34573 0.04122 0.0
C636 C 0.71147 0.34899 0.06781 0.0
C637 C 0.71978 0.34462 0.01733 0.0
C638 C 0.7646 0.34866 0.06989 0.0
C639 C 0.79488 0.34691 0.04627 0.0
H640 H 0.33274 0.84399 0.49541 0.0
H641 H 0.19875 0.8455 0.4442 0.0
H642 H 0.14588 0.84223 0.48528 0.0
H643 H 0.13755 0.84549 0.53557 0.0
H644 H 0.2716 0.84865 0.58673 0.0
H645 H 0.32438 0.84316 0.54576 0.0
C646 C 0.29196 0.84287 0.49301 0.0
C647 C 0.27004 0.8449 0.46636 0.0
C648 C 0.26169 0.84216 0.51685 0.0
C649 C 0.21698 0.84379 0.46415 0.0
C650 C 0.18666 0.84214 0.48775 0.0
C651 C 0.17831 0.84429 0.53802 0.0
C652 C 0.20027 0.84747 0.56461 0.0
C653 C 0.20856 0.84225 0.51422 0.0
C654 C 0.25331 0.84614 0.56684 0.0
C655 C 0.2836 0.8432 0.5433 0.0
H656 H 0.77486 0.65264 0.46086 0.0
H657 H 0.6229 0.65931 0.49245 0.0
H658 H 0.65527 0.65944 0.53927 0.0
H659 H 0.72654 0.65325 0.57215 0.0
H660 H 0.87878 0.65034 0.54058 0.0
H661 H 0.84663 0.65349 0.49379 0.0
C662 C 0.74886 0.65472 0.47793 0.0
C663 C 0.69635 0.65588 0.47269 0.0
C664 C 0.76778 0.65526 0.50528 0.0
C665 C 0.66352 0.65857 0.49543 0.0
C666 C 0.68198 0.65844 0.52247 0.0
C667 C 0.75275 0.6539 0.5551 0.0
C668 C 0.80517 0.65146 0.56033 0.0
C669 C 0.73403 0.65618 0.52777 0.0
C670 C 0.83825 0.65237 0.53762 0.0
C671 C 0.81989 0.65397 0.51059 0.0
H672 H 0.64036 0.84472 0.99519 0.0
H673 H 0.7718 0.84531 0.9429 0.0
H674 H 0.82667 0.84103 0.98336 0.0
H675 H 0.83797 0.84368 0.03373 0.0
H676 H 0.70655 0.84479 0.08603 0.0
H677 H 0.6516 0.84142 0.04553 0.0
C678 C 0.68098 0.84326 0.99245 0.0
C679 C 0.7015 0.84549 0.96562 0.0
C680 C 0.71262 0.8414 1.01599 0.0
C681 C 0.75445 0.84354 0.96296 0.0
C682 C 0.78604 0.84133 0.98624 0.0
C683 C 0.79733 0.84254 0.03646 0.0
C684 C 0.77685 0.84464 0.0633 0.0
C685 C 0.76565 0.8412 1.0129 0.0
C686 C 0.72386 0.8431 0.06595 0.0
C687 C 0.69223 0.84141 0.04265 0.0
H688 H 0.21639 0.6517 0.96042 0.0
H689 H 0.36675 0.66415 0.99438 0.0
H690 H 0.33234 0.66723 0.04044 0.0
H691 H 0.26047 0.65965 0.07213 0.0
H692 H 0.1097 0.65047 0.03827 0.0
H693 H 0.14328 0.6533 0.99191 0.0
C694 C 0.24162 0.65592 0.97777 0.0
C695 C 0.29436 0.65713 0.97349 0.0
C696 C 0.22154 0.65789 1.00467 0.0
C697 C 0.32605 0.66275 0.9966 0.0
C698 C 0.30643 0.66439 0.02323 0.0
C699 C 0.23482 0.65899 0.05466 0.0
C700 C 0.18253 0.65459 0.05907 0.0
C701 C 0.25436 0.66092 0.02766 0.0
C702 C 0.15012 0.65394 0.03588 0.0
C703 C 0.16932 0.65533 1.00913 0.0
H704 H 0.82638 0.15979 0.49277 0.0
H705 H 0.69325 0.15021 0.44142 0.0
H706 H 0.63979 0.15237 0.48227 0.0
H707 H 0.63113 0.15043 0.53282 0.0
H708 H 0.76492 0.15696 0.58395 0.0
H709 H 0.81731 0.16277 0.54301 0.0
C710 C 0.78561 0.15886 0.49028 0.0
C711 C 0.76427 0.15481 0.46364 0.0
C712 C 0.75498 0.15921 0.51402 0.0
C713 C 0.71116 0.15348 0.46134 0.0
C714 C 0.68044 0.15448 0.48484 0.0
C715 C 0.67165 0.15387 0.53518 0.0
C716 C 0.69368 0.15324 0.56183 0.0
C717 C 0.70195 0.1564 0.51134 0.0
C718 C 0.7465 0.15739 0.56401 0.0
C719 C 0.77666 0.16057 0.54048 0.0
H720 H 0.34142 0.35521 0.53476 0.0
H721 H 0.2079 0.35906 0.58541 0.0
H722 H 0.15451 0.35313 0.54457 0.0
H723 H 0.14506 0.35313 0.49417 0.0
H724 H 0.27841 0.35113 0.44335 0.0
H725 H 0.33189 0.34949 0.48443 0.0
C726 C 0.30067 0.35414 0.53705 0.0
C727 C 0.27911 0.35781 0.56348 0.0
C728 C 0.26982 0.35123 0.51326 0.0
C729 C 0.226 0.35639 0.5656 0.0
C730 C 0.19524 0.3531 0.54213 0.0
C731 C 0.18578 0.35156 0.49192 0.0
C732 C 0.20727 0.35235 0.46533 0.0
C733 C 0.21663 0.35139 0.51578 0.0
C734 C 0.26036 0.35051 0.46327 0.0
C735 C 0.29116 0.3498 0.48688 0.0
H736 H 0.51841 0.98603 0.13332 0.0
H737 H 0.57347 0.08929 0.15686 0.0
H738 H 0.66068 0.06791 0.15465 0.0
H739 H 0.72122 0.02 0.14471 0.0
H740 H 0.66456 0.91744 0.12043 0.0
H741 H 0.57785 0.93876 0.12363 0.0
C742 C 0.54935 0.00376 0.13851 0.0
C743 C 0.53946 0.03909 0.1455 0.0
C744 C 0.59913 0.99164 0.13641 0.0
C745 C 0.58014 0.06187 0.15159 0.0
C746 C 0.62998 0.04976 0.1501 0.0
C747 C 0.68983 0.00258 0.13974 0.0
C748 C 0.69912 0.96732 0.13221 0.0
C749 C 0.63993 0.01483 0.14209 0.0
C750 C 0.65822 0.94473 0.12626 0.0
C751 C 0.60868 0.95681 0.12824 0.0
H752 H 0.46683 0.51147 0.13827 0.0
H753 H 0.4093 0.40467 0.13636 0.0
H754 H 0.32296 0.42718 0.13063 0.0
H755 H 0.26442 0.47761 0.12553 0.0
H756 H 0.32436 0.58384 0.12611 0.0
H757 H 0.40977 0.56099 0.13221 0.0
C758 C 0.43536 0.49305 0.13719 0.0
C759 C 0.44421 0.45652 0.13822 0.0
C760 C 0.38656 0.50605 0.13291 0.0
C761 C 0.40319 0.43298 0.13596 0.0
C762 C 0.35401 0.44581 0.13241 0.0
C763 C 0.29636 0.49562 0.12646 0.0
C764 C 0.28832 0.53229 0.12529 0.0
C765 C 0.34537 0.48232 0.13048 0.0
C766 C 0.32979 0.55548 0.12695 0.0
C767 C 0.37852 0.54248 0.13065 0.0
H768 H 0.51269 0.00804 0.37793 0.0
H769 H 0.54967 0.93776 0.445 0.0
H770 H 0.63687 0.9581 0.44456 0.0
H771 H 0.70317 0.99614 0.42543 0.0
H772 H 0.66557 0.06709 0.35894 0.0
H773 H 0.57867 0.04607 0.35894 0.0
C774 C 0.53979 0.99712 0.39242 0.0
C775 C 0.52446 0.97133 0.41131 0.0
C776 C 0.59008 0.009 0.39222 0.0
C777 C 0.56024 0.95758 0.43005 0.0
C778 C 0.6103 0.96918 0.42989 0.0
C779 C 0.676 0.00685 0.41089 0.0
C780 C 0.69094 0.03315 0.39233 0.0
C781 C 0.62571 0.99487 0.41106 0.0
C782 C 0.65512 0.04695 0.37367 0.0
C783 C 0.6053 0.03493 0.37356 0.0
H784 H 0.47119 0.48932 0.39114 0.0
H785 H 0.41715 0.59434 0.40924 0.0
H786 H 0.33005 0.57279 0.40958 0.0
H787 H 0.26961 0.52382 0.4058 0.0
H788 H 0.32433 0.4186 0.38862 0.0
H789 H 0.4109 0.4405 0.38723 0.0
C790 C 0.44025 0.50753 0.39473 0.0
C791 C 0.45033 0.54326 0.40004 0.0
C792 C 0.39052 0.49488 0.39551 0.0
C793 C 0.41009 0.5666 0.40511 0.0
C794 C 0.36039 0.55432 0.40543 0.0
C795 C 0.30053 0.50567 0.40203 0.0
C796 C 0.29059 0.46973 0.39735 0.0
C797 C 0.35024 0.51842 0.40103 0.0
C798 C 0.331 0.4465 0.39221 0.0
C799 C 0.38052 0.45896 0.39132 0.0
H800 H 0.2593 0.98085 0.89522 0.0
H801 H 0.31827 0.08668 0.90524 0.0
H802 H 0.40441 0.06412 0.90354 0.0
H803 H 0.46306 0.01484 0.89904 0.0
H804 H 0.40554 0.90859 0.8898 0.0
H805 H 0.31879 0.93097 0.89092 0.0
C806 C 0.29099 0.99891 0.89735 0.0
C807 C 0.28221 0.03541 0.9004 0.0
C808 C 0.3407 0.98581 0.89606 0.0
C809 C 0.32381 0.05848 0.90282 0.0
C810 C 0.37317 0.04564 0.90175 0.0
C811 C 0.43166 0.99653 0.89686 0.0
C812 C 0.44091 0.9601 0.89409 0.0
C813 C 0.38204 0.00945 0.89812 0.0
C814 C 0.39955 0.93679 0.89181 0.0
C815 C 0.34992 0.94955 0.89261 0.0
H816 H 0.71186 0.52069 0.89247 0.0
H817 H 0.65507 0.41371 0.89282 0.0
H818 H 0.56851 0.43566 0.88708 0.0
H819 H 0.5093 0.48547 0.88508 0.0
H820 H 0.56708 0.59235 0.88485 0.0
H821 H 0.65353 0.57005 0.88656 0.0
C822 C 0.68046 0.5022 0.89151 0.0
C823 C 0.6894 0.46576 0.89368 0.0
C824 C 0.63132 0.51492 0.88776 0.0
C825 C 0.64876 0.44195 0.89154 0.0
C826 C 0.59945 0.45446 0.88812 0.0
C827 C 0.54081 0.50388 0.88469 0.0
C828 C 0.53186 0.5405 0.88505 0.0
C829 C 0.59032 0.49092 0.88645 0.0
C830 C 0.57306 0.56403 0.88473 0.0
C831 C 0.62244 0.55133 0.88593 0.0
H832 H 0.29967 0.9563 0.66155 0.0
H833 H 0.24304 0.01058 0.58976 0.0
H834 H 0.32287 0.04275 0.58576 0.0
H835 H 0.4089 0.05492 0.60235 0.0
H836 H 0.46511 1.00101 0.67449 0.0
H837 H 0.38486 0.96967 0.67887 0.0
C838 C 0.30494 0.97496 0.6449 0.0
C839 C 0.26566 0.98085 0.62588 0.0
C840 C 0.35056 0.99378 0.64299 0.0
C841 C 0.27275 0.00555 0.60467 0.0
C842 C 0.31831 0.02402 0.60241 0.0
C843 C 0.40339 0.03675 0.6193 0.0
C844 C 0.44299 0.03044 0.63809 0.0
C845 C 0.35738 0.01845 0.62152 0.0
C846 C 0.43531 0.0064 0.65971 0.0
C847 C 0.3895 0.98832 0.66218 0.0
H848 H 0.56877 0.44647 0.60679 0.0
H849 H 0.52744 0.48698 0.68656 0.0
H850 H 0.60596 0.52111 0.68869 0.0
H851 H 0.68401 0.54188 0.66672 0.0
H852 H 0.72485 0.50138 0.58693 0.0
H853 H 0.64802 0.46536 0.58567 0.0
C854 C 0.57747 0.46205 0.62496 0.0
C855 C 0.5425 0.46402 0.64657 0.0
C856 C 0.62182 0.48237 0.62568 0.0
C857 C 0.55392 0.48491 0.66972 0.0
C858 C 0.59853 0.5047 0.67083 0.0
C859 C 0.67566 0.52552 0.64892 0.0
C860 C 0.70947 0.52463 0.62677 0.0
C861 C 0.63212 0.50428 0.64863 0.0
C862 C 0.69902 0.50266 0.60411 0.0
C863 C 0.65537 0.4819 0.60347 0.0
H864 H 0.1794 0.45533 0.66282 0.0
H865 H 0.24095 0.52537 0.60136 0.0
H866 H 0.16076 0.55732 0.59932 0.0
H867 H 0.0732 0.56342 0.61358 0.0
H868 H 0.01128 0.49261 0.67451 0.0
H869 H 0.09293 0.46309 0.67856 0.0
C870 C 0.17526 0.47743 0.64881 0.0
C871 C 0.21561 0.48773 0.63196 0.0
C872 C 0.12952 0.49563 0.64787 0.0
C873 C 0.21014 0.51687 0.61439 0.0
C874 C 0.16448 0.53514 0.61327 0.0
C875 C 0.07749 0.54174 0.62797 0.0
C876 C 0.0361 0.52995 0.6435 0.0
C877 C 0.12394 0.52453 0.62979 0.0
C878 C 0.04251 0.50203 0.66218 0.0
C879 C 0.08903 0.48505 0.66442 0.0
H880 H 0.75433 0.97664 0.62497 0.0
H881 H 0.80878 0.08423 0.62894 0.0
H882 H 0.89572 0.06341 0.63162 0.0
H883 H 0.95604 0.01498 0.63397 0.0
H884 H 0.90362 0.90724 0.62829 0.0
H885 H 0.81575 0.92769 0.62574 0.0
C886 C 0.78535 0.99543 0.626 0.0
C887 C 0.77536 0.0318 0.6269 0.0
C888 C 0.83532 0.98329 0.62789 0.0
C889 C 0.8157 0.05601 0.62844 0.0
C890 C 0.86535 0.04419 0.6301 0.0
C891 C 0.92524 0.99602 0.63271 0.0
C892 C 0.93569 0.9598 0.6319 0.0
C893 C 0.87547 0.00794 0.63034 0.0
C894 C 0.89592 0.93534 0.62933 0.0
C895 C 0.84593 0.94699 0.62764 0.0
H896 H 0.16263 0.56095 0.88007 0.0
H897 H 0.22542 0.49231 0.94232 0.0
H898 H 0.1436 0.46273 0.94696 0.0
H899 H 0.05522 0.45595 0.93274 0.0
H900 H -0.00643 0.52385 0.86952 0.0
H901 H 0.07469 0.55404 0.86574 0.0
C902 C 0.15837 0.53975 0.89487 0.0
C903 C 0.19986 0.52893 0.91093 0.0
C904 C 0.11177 0.52254 0.89705 0.0
C905 C 0.19395 0.50109 0.92972 0.0
C906 C 0.14729 0.48415 0.93234 0.0
C907 C 0.05946 0.47725 0.91803 0.0
C908 C 0.01833 0.48755 0.90142 0.0
C909 C 0.10612 0.49451 0.91594 0.0
C910 C 0.02459 0.51528 0.88252 0.0
C911 C 0.0709 0.53266 0.8804 0.0
H912 H 0.96296 0.98772 0.89593 0.0
H913 H 0.90741 0.09259 0.87846 0.0
H914 H 0.82034 0.07076 0.87975 0.0
H915 H 0.75999 0.02209 0.88744 0.0
H916 H 0.81676 0.9177 0.90554 0.0
H917 H 0.90346 0.93939 0.90294 0.0
C918 C 0.93192 0.00573 0.89187 0.0
C919 C 0.94169 0.04167 0.88693 0.0
C920 C 0.88214 0.99326 0.89337 0.0
C921 C 0.90089 0.06474 0.8822 0.0
C922 C 0.85111 0.05235 0.88315 0.0
C923 C 0.79139 0.00426 0.89115 0.0
C924 C 0.78205 0.96844 0.89683 0.0
C925 C 0.84127 0.01678 0.8892 0.0
C926 C 0.82304 0.94543 0.90115 0.0
C927 C 0.87261 0.95774 0.89953 0.0
H928 H 0.9228 0.44963 0.42424 0.0
H929 H 0.97893 0.5066 0.35386 0.0
H930 H 0.90002 0.53992 0.35109 0.0
H931 H 0.81602 0.55422 0.36957 0.0
H932 H 0.76062 0.49718 0.44008 0.0
H933 H 0.83862 0.46295 0.44205 0.0
C934 C 0.91754 0.46889 0.40798 0.0
C935 C 0.95674 0.47545 0.38923 0.0
C936 C 0.87251 0.48844 0.40682 0.0
C937 C 0.94939 0.50094 0.36856 0.0
C938 C 0.90437 0.52018 0.36705 0.0
C939 C 0.82123 0.53454 0.38552 0.0
C940 C 0.78264 0.52846 0.40474 0.0
C941 C 0.86598 0.51454 0.38633 0.0
C942 C 0.78971 0.50245 0.42503 0.0
C943 C 0.83424 0.48275 0.42613 0.0
H944 H 0.21012 0.02004 0.40598 0.0
H945 H 0.15626 0.91614 0.38326 0.0
H946 H 0.06969 0.93834 0.38088 0.0
H947 H 0.00892 0.98696 0.38623 0.0
H948 H 0.06328 0.09078 0.40892 0.0
H949 H 0.1499 0.06889 0.40997 0.0
C950 C 0.17948 0.00215 0.40064 0.0
C951 C 0.18982 0.9664 0.39498 0.0
C952 C 0.12979 0.01513 0.39906 0.0
C953 C 0.14953 0.94378 0.38776 0.0
C954 C 0.09994 0.95646 0.38634 0.0
C955 C 0.03973 0.00495 0.39103 0.0
C956 C 0.02937 0.0405 0.39748 0.0
C957 C 0.0896 0.9921 0.39195 0.0
C958 C 0.06994 0.06328 0.40391 0.0
C959 C 0.11958 0.05076 0.40462 0.0
H960 H 0.91715 0.55827 0.11353 0.0
H961 H 0.98662 0.48684 0.17172 0.0
H962 H 0.90665 0.45501 0.17628 0.0
H963 H 0.81791 0.44648 0.1626 0.0
H964 H 0.74952 0.51801 0.10413 0.0
H965 H 0.82879 0.55058 0.10063 0.0
C966 C 0.91486 0.536 0.12748 0.0
C967 C 0.95789 0.52499 0.14225 0.0
C968 C 0.86921 0.51754 0.12968 0.0
C969 C 0.95409 0.49591 0.16009 0.0
C970 C 0.90846 0.47758 0.16262 0.0
C971 C 0.82045 0.46904 0.14895 0.0
C972 C 0.77797 0.47968 0.13356 0.0
C973 C 0.866 0.48789 0.14721 0.0
C974 C 0.78167 0.50925 0.11622 0.0
C975 C 0.82692 0.52796 0.11424 0.0
H976 H 0.22186 0.97616 0.13596 0.0
H977 H 0.16364 0.08158 0.12353 0.0
H978 H 0.07741 0.05902 0.12452 0.0
H979 H 0.01846 0.01004 0.12947 0.0
H980 H 0.07474 0.90404 0.14108 0.0
H981 H 0.16178 0.92629 0.14027 0.0
C982 C 0.1903 0.99409 0.13312 0.0
C983 C 0.19932 0.03053 0.12967 0.0
C984 C 0.14046 0.98099 0.13403 0.0
C985 C 0.15791 0.05345 0.12631 0.0
C986 C 0.10849 0.04061 0.12697 0.0
C987 C 0.04963 0.99174 0.13221 0.0
C988 C 0.03995 0.95544 0.13564 0.0
C989 C 0.09934 0.00455 0.13113 0.0
C990 C 0.08104 0.93215 0.13859 0.0
C991 C 0.13084 0.94483 0.13797 0.0
H992 H 0.50331 0.17962 0.1714 0.0
H993 H 0.35945 0.23268 0.16591 0.0
H994 H 0.40215 0.29002 0.17034 0.0
H995 H 0.48122 0.32445 0.16656 0.0
H996 H 0.62516 0.27129 0.17109 0.0
H997 H 0.58172 0.21449 0.17683 0.0
C998 C 0.4812 0.20374 0.1721 0.0
C999 C 0.42831 0.202 0.16808 0.0
C1000 C 0.50618 0.23651 0.17407 0.0
C1001 C 0.40004 0.23332 0.16913 0.0
C1002 C 0.42459 0.2661 0.17132 0.0
C1003 C 0.50307 0.30051 0.16963 0.0
C1004 C 0.55637 0.30195 0.16806 0.0
C1005 C 0.47776 0.26799 0.17244 0.0
C1006 C 0.58425 0.2709 0.1723 0.0
C1007 C 0.55933 0.23839 0.17529 0.0
H1008 H 0.60225 0.73677 0.37908 0.0
H1009 H 0.48007 0.66635 0.35749 0.0
H1010 H 0.42199 0.71619 0.35363 0.0
H1011 H 0.40239 0.7786 0.36478 0.0
H1012 H 0.52485 0.84862 0.38724 0.0
H1013 H 0.58551 0.80086 0.382 0.0
C1014 C 0.56349 0.73254 0.37239 0.0
C1015 C 0.54567 0.69782 0.36862 0.0
C1016 C 0.52959 0.76141 0.37103 0.0
C1017 C 0.49487 0.69283 0.36049 0.0
C1018 C 0.46137 0.72134 0.35854 0.0
C1019 C 0.44246 0.78364 0.36772 0.0
C1020 C 0.45858 0.81715 0.37691 0.0
C1021 C 0.47765 0.75564 0.36506 0.0
C1022 C 0.51094 0.823 0.38063 0.0
C1023 C 0.54593 0.79561 0.37767 0.0
H1024 H 0.47221 0.82335 0.86712 0.0
H1025 H 0.616 0.77113 0.85825 0.0
H1026 H 0.57266 0.71433 0.85196 0.0
H1027 H 0.49533 0.67896 0.85865 0.0
H1028 H 0.35178 0.73126 0.86873 0.0
H1029 H 0.39329 0.78881 0.8641 0.0
C1030 C 0.49391 0.79964 0.86296 0.0
C1031 C 0.54718 0.80117 0.86355 0.0
C1032 C 0.46874 0.76715 0.85987 0.0
C1033 C 0.57502 0.77052 0.85786 0.0
C1034 C 0.55021 0.73804 0.85454 0.0
C1035 C 0.47294 0.70297 0.85893 0.0
C1036 C 0.4207 0.70097 0.86447 0.0
C1037 C 0.49729 0.73588 0.85692 0.0
C1038 C 0.39195 0.73212 0.86448 0.0
C1039 C 0.41583 0.76503 0.86216 0.0
H1040 H 0.50112 0.32123 0.66465 0.0
H1041 H 0.35161 0.27668 0.65628 0.0
H1042 H 0.38706 0.21697 0.65816 0.0
H1043 H 0.46184 0.1782 0.65463 0.0
H1044 H 0.61115 0.22316 0.664 0.0
H1045 H 0.5745 0.28184 0.66976 0.0
C1046 C 0.47624 0.29839 0.664 0.0
C1047 C 0.42395 0.30325 0.66002 0.0
C1048 C 0.49693 0.26424 0.66491 0.0
C1049 C 0.39196 0.27357 0.65945 0.0
C1050 C 0.4123 0.23944 0.66023 0.0
C1051 C 0.48627 0.20075 0.65852 0.0
C1052 C 0.53921 0.19637 0.6584 0.0
C1053 C 0.46491 0.23452 0.66179 0.0
C1054 C 0.57034 0.22574 0.66391 0.0
C1055 C 0.54941 0.2594 0.66702 0.0
H1056 H 0.08975 0.77433 0.66789 0.0
H1057 H 0.9602 0.8426 0.65955 0.0
H1058 H 0.90329 0.79253 0.66528 0.0
H1059 H 0.89048 0.72788 0.66327 0.0
H1060 H 0.01986 0.65949 0.67197 0.0
H1061 H 0.07571 0.71048 0.67614 0.0
C1062 C 0.04916 0.77839 0.66842 0.0
C1063 C 0.02945 0.81212 0.66284 0.0
C1064 C 0.01615 0.74913 0.67128 0.0
C1065 C 0.97651 0.8168 0.66345 0.0
C1066 C 0.94374 0.7881 0.66658 0.0
C1067 C 0.93056 0.72415 0.66714 0.0
C1068 C 0.95083 0.68982 0.66674 0.0
C1069 C 0.96304 0.75383 0.6691 0.0
C1070 C 0.00314 0.68563 0.67174 0.0
C1071 C 0.03537 0.71485 0.67399 0.0
H1072 H 0.90765 0.2871 0.86274 0.0
H1073 H 0.03086 0.35318 0.89084 0.0
H1074 H 0.09013 0.30483 0.88459 0.0
H1075 H 0.10462 0.24085 0.87916 0.0
H1076 H 0.98151 0.17412 0.85278 0.0
H1077 H 0.92553 0.22529 0.8495 0.0
C1078 C 0.94762 0.29118 0.86681 0.0
C1079 C 0.96427 0.32362 0.87787 0.0
C1080 C 0.98191 0.26287 0.86353 0.0
C1081 C 0.01649 0.32833 0.88288 0.0
C1082 C 0.05068 0.30063 0.87928 0.0
C1083 C 0.06625 0.23787 0.87146 0.0
C1084 C 0.04737 0.20387 0.86595 0.0
C1085 C 0.03358 0.26733 0.87071 0.0
C1086 C -0.00296 0.20018 0.85677 0.0
C1087 C 0.96478 0.22939 0.85527 0.0
H1088 H 0.00218 0.18207 0.37011 0.0
H1089 H 0.85553 0.23177 0.36956 0.0
H1090 H 0.89552 0.28996 0.36578 0.0
H1091 H 0.97251 0.32675 0.36983 0.0
H1092 H 0.11908 0.27682 0.36881 0.0
H1093 H 0.07889 0.21873 0.36551 0.0
C1094 C 0.979 0.20562 0.36846 0.0
C1095 C 0.92602 0.2027 0.37043 0.0
C1096 C 0.00228 0.23895 0.3663 0.0
C1097 C 0.89635 0.23332 0.36801 0.0
C1098 C 0.91925 0.26663 0.36611 0.0
C1099 C -0.00438 0.30317 0.36822 0.0
C1100 C 0.04871 0.30607 0.36994 0.0
C1101 C 0.97221 0.26981 0.3663 0.0
C1102 C 0.0782 0.27536 0.3675 0.0
C1103 C 0.05521 0.24208 0.36585 0.0
H1104 H 0.00182 0.8173 0.16453 0.0
H1105 H 0.85567 0.7668 0.1665 0.0
H1106 H 0.89637 0.70892 0.17139 0.0
H1107 H 0.97344 0.67273 0.1664 0.0
H1108 H 0.11948 0.72392 0.16413 0.0
H1109 H 0.07899 0.78151 0.16872 0.0
C1110 C 0.97895 0.79366 0.16693 0.0
C1111 C 0.92595 0.79609 0.16492 0.0
C1112 C 0.00264 0.76063 0.16929 0.0
C1113 C 0.89652 0.7655 0.16815 0.0
C1114 C 0.91985 0.73241 0.17062 0.0
C1115 C -0.0035 0.69644 0.16758 0.0
C1116 C 0.0494 0.69402 0.16433 0.0
C1117 C 0.97287 0.72959 0.16989 0.0
C1118 C 0.07876 0.72493 0.16641 0.0
C1119 C 0.05558 0.75796 0.16883 0.0
loop_
_geom_bond_atom_site_label_1
_geom_bond_atom_site_label_2
_geom_bond_distance
_geom_bond_site_symmetry_2
_ccdc_geom_bond_type
Sc0 O3 2.025 . S
Sc0 O10 2.105 . S
Sc0 O13 2.105 . S
Sc0 O16 2.105 . S
Sc0 O19 2.105 . S
Sc1 O3 2.025 . S
Sc1 O11 2.105 . S
Sc1 O15 2.105 . S
Sc1 O17 2.105 . S
Sc1 O21 2.104 1_545 S
Sc2 O3 2.025 . S
Sc2 O12 2.105 . S
Sc2 O14 2.105 . S
Sc2 O18 2.105 . S
Sc2 O20 2.105 . S
O3 Sc0 2.025 . S
O3 Sc1 2.025 . S
O3 Sc2 2.025 . S
C4 O10 1.268 . S
C4 O20 1.268 . S
C5 O11 1.268 . S
C5 O19 1.268 . S
C6 O12 1.268 . S
C6 O21 1.267 1_545 S
C7 O13 1.268 . S
C7 O17 1.268 . S
C8 O14 1.268 . S
C8 O16 1.268 . S
C9 O15 1.268 . S
C9 O18 1.268 . S
O10 Sc0 2.105 . S
O10 C4 1.268 . S
O11 Sc1 2.105 . S
O11 C5 1.268 . S
O12 Sc2 2.105 . S
O12 C6 1.268 . S
O13 Sc0 2.105 . S
O13 C7 1.268 . S
O14 Sc2 2.105 . S
O14 C8 1.268 . S
O15 Sc1 2.105 . S
O15 C9 1.268 . S
O16 Sc0 2.105 . S
O16 C8 1.268 . S
O17 Sc1 2.105 . S
O17 C7 1.268 . S
O18 Sc2 2.105 . S
O18 C9 1.268 . S
O19 Sc0 2.105 . S
O19 C5 1.268 . S
O20 Sc2 2.105 . S
O20 C4 1.268 . S
O21 Sc1 2.104 1_565 S
O21 C6 1.267 1_565 S
Sc22 O25 2.025 . S
Sc22 O32 2.105 . S
Sc22 O35 2.105 . S
Sc22 O38 2.105 . S
Sc22 O41 2.105 . S
Sc23 O25 2.025 . S
Sc23 O33 2.105 . S
Sc23 O37 2.105 . S
Sc23 O39 2.105 . S
Sc23 O43 2.105 . S
Sc24 O25 2.025 . S
Sc24 O34 2.105 . S
Sc24 O36 2.105 . S
Sc24 O40 2.105 . S
Sc24 O42 2.105 . S
O25 Sc22 2.025 . S
O25 Sc23 2.025 . S
O25 Sc24 2.025 . S
C26 O32 1.268 . S
C26 O42 1.268 . S
C27 O33 1.268 . S
C27 O41 1.268 . S
C28 O34 1.268 . S
C28 O43 1.268 . S
C29 O35 1.268 . S
C29 O39 1.268 . S
C30 O36 1.268 . S
C30 O38 1.268 . S
C31 O37 1.268 . S
C31 O40 1.268 . S
O32 Sc22 2.105 . S
O32 C26 1.268 . S
O33 Sc23 2.105 . S
O33 C27 1.268 . S
O34 Sc24 2.105 . S
O34 C28 1.268 . S
O35 Sc22 2.105 . S
O35 C29 1.268 . S
O36 Sc24 2.105 . S
O36 C30 1.268 . S
O37 Sc23 2.105 . S
O37 C31 1.268 . S
O38 Sc22 2.105 . S
O38 C30 1.268 . S
O39 Sc23 2.105 . S
O39 C29 1.268 . S
O40 Sc24 2.105 . S
O40 C31 1.268 . S
O41 Sc22 2.105 . S
O41 C27 1.268 . S
O42 Sc24 2.105 . S
O42 C26 1.268 . S
O43 Sc23 2.105 . S
O43 C28 1.268 . S
Sc44 O47 2.025 . S
Sc44 O54 2.105 . S
Sc44 O57 2.105 . S
Sc44 O60 2.105 . S
Sc44 O63 2.105 . S
Sc45 O47 2.025 . S
Sc45 O55 2.105 . S
Sc45 O59 2.105 . S
Sc45 O61 2.105 . S
Sc45 O65 2.104 1_565 S
Sc46 O47 2.025 . S
Sc46 O56 2.105 . S
Sc46 O58 2.105 . S
Sc46 O62 2.105 . S
Sc46 O64 2.105 . S
O47 Sc44 2.025 . S
O47 Sc45 2.025 . S
O47 Sc46 2.025 . S
C48 O54 1.268 . S
C48 O64 1.268 . S
C49 O55 1.268 . S
C49 O63 1.268 . S
C50 O56 1.268 . S
C50 O65 1.267 1_565 S
C51 O57 1.268 . S
C51 O61 1.268 . S
C52 O58 1.268 . S
C52 O60 1.268 . S
C53 O59 1.268 . S
C53 O62 1.268 . S
O54 Sc44 2.105 . S
O54 C48 1.268 . S
O55 Sc45 2.105 . S
O55 C49 1.268 . S
O56 Sc46 2.105 . S
O56 C50 1.268 . S
O57 Sc44 2.105 . S
O57 C51 1.268 . S
O58 Sc46 2.105 . S
O58 C52 1.268 . S
O59 Sc45 2.105 . S
O59 C53 1.268 . S
O60 Sc44 2.105 . S
O60 C52 1.268 . S
O61 Sc45 2.105 . S
O61 C51 1.268 . S
O62 Sc46 2.105 . S
O62 C53 1.268 . S
O63 Sc44 2.105 . S
O63 C49 1.268 . S
O64 Sc46 2.105 . S
O64 C48 1.268 . S
O65 Sc45 2.104 1_545 S
O65 C50 1.267 1_545 S
Sc66 O69 2.025 . S
Sc66 O76 2.105 . S
Sc66 O79 2.105 . S
Sc66 O82 2.105 . S
Sc66 O85 2.105 . S
Sc67 O69 2.025 . S
Sc67 O77 2.105 . S
Sc67 O81 2.105 . S
Sc67 O83 2.105 . S
Sc67 O87 2.105 . S
Sc68 O69 2.025 . S
Sc68 O78 2.105 . S
Sc68 O80 2.105 . S
Sc68 O84 2.105 . S
Sc68 O86 2.105 . S
O69 Sc66 2.025 . S
O69 Sc67 2.025 . S
O69 Sc68 2.025 . S
C70 O76 1.268 . S
C70 O86 1.268 . S
C71 O77 1.268 . S
C71 O85 1.268 . S
C72 O78 1.268 . S
C72 O87 1.268 . S
C73 O79 1.268 . S
C73 O83 1.268 . S
C74 O80 1.268 . S
C74 O82 1.268 . S
C75 O81 1.268 . S
C75 O84 1.268 . S
O76 Sc66 2.105 . S
O76 C70 1.268 . S
O77 Sc67 2.105 . S
O77 C71 1.268 . S
O78 Sc68 2.105 . S
O78 C72 1.268 . S
O79 Sc66 2.105 . S
O79 C73 1.268 . S
O80 Sc68 2.105 . S
O80 C74 1.268 . S
O81 Sc67 2.105 . S
O81 C75 1.268 . S
O82 Sc66 2.105 . S
O82 C74 1.268 . S
O83 Sc67 2.105 . S
O83 C73 1.268 . S
O84 Sc68 2.105 . S
O84 C75 1.268 . S
O85 Sc66 2.105 . S
O85 C71 1.268 . S
O86 Sc68 2.105 . S
O86 C70 1.268 . S
O87 Sc67 2.105 . S
O87 C72 1.268 . S
Sc88 O91 2.025 . S
Sc88 O98 2.105 . S
Sc88 O101 2.105 . S
Sc88 O104 2.105 . S
Sc88 O107 2.105 . S
Sc89 O91 2.025 . S
Sc89 O99 2.104 1_565 S
Sc89 O103 2.105 . S
Sc89 O105 2.105 . S
Sc89 O109 2.105 . S
Sc90 O91 2.025 . S
Sc90 O100 2.105 . S
Sc90 O102 2.105 . S
Sc90 O106 2.105 . S
Sc90 O108 2.105 . S
O91 Sc88 2.025 . S
O91 Sc89 2.025 . S
O91 Sc90 2.025 . S
C92 O98 1.268 . S
C92 O108 1.268 . S
C93 O99 1.267 1_565 S
C93 O107 1.268 . S
C94 O100 1.268 . S
C94 O109 1.268 . S
C95 O101 1.268 . S
C95 O105 1.268 . S
C96 O102 1.268 . S
C96 O104 1.268 . S
C97 O103 1.268 . S
C97 O106 1.268 . S
O98 Sc88 2.105 . S
O98 C92 1.268 . S
O99 Sc89 2.104 1_545 S
O99 C93 1.267 1_545 S
O100 Sc90 2.105 . S
O100 C94 1.268 . S
O101 Sc88 2.105 . S
O101 C95 1.268 . S
O102 Sc90 2.105 . S
O102 C96 1.268 . S
O103 Sc89 2.105 . S
O103 C97 1.268 . S
O104 Sc88 2.105 . S
O104 C96 1.268 . S
O105 Sc89 2.105 . S
O105 C95 1.268 . S
O106 Sc90 2.105 . S
O106 C97 1.268 . S
O107 Sc88 2.105 . S
O107 C93 1.268 . S
O108 Sc90 2.105 . S
O108 C92 1.268 . S
O109 Sc89 2.105 . S
O109 C94 1.268 . S
Sc110 O113 2.025 . S
Sc110 O120 2.105 . S
Sc110 O123 2.105 . S
Sc110 O126 2.105 . S
Sc110 O129 2.105 . S
Sc111 O113 2.025 . S
Sc111 O121 2.105 . S
Sc111 O125 2.105 . S
Sc111 O127 2.105 . S
Sc111 O131 2.105 . S
Sc112 O113 2.025 . S
Sc112 O122 2.105 . S
Sc112 O124 2.105 . S
Sc112 O128 2.105 . S
Sc112 O130 2.105 . S
O113 Sc110 2.025 . S
O113 Sc111 2.025 . S
O113 Sc112 2.025 . S
C114 O120 1.268 . S
C114 O130 1.268 . S
C115 O121 1.268 . S
C115 O129 1.268 . S
C116 O122 1.268 . S
C116 O131 1.268 . S
C117 O123 1.268 . S
C117 O127 1.268 . S
C118 O124 1.268 . S
C118 O126 1.268 . S
C119 O125 1.268 . S
C119 O128 1.268 . S
O120 Sc110 2.105 . S
O120 C114 1.268 . S
O121 Sc111 2.105 . S
O121 C115 1.268 . S
O122 Sc112 2.105 . S
O122 C116 1.268 . S
O123 Sc110 2.105 . S
O123 C117 1.268 . S
O124 Sc112 2.105 . S
O124 C118 1.268 . S
O125 Sc111 2.105 . S
O125 C119 1.268 . S
O126 Sc110 2.105 . S
O126 C118 1.268 . S
O127 Sc111 2.105 . S
O127 C117 1.268 . S
O128 Sc112 2.105 . S
O128 C119 1.268 . S
O129 Sc110 2.105 . S
O129 C115 1.268 . S
O130 Sc112 2.105 . S
O130 C114 1.268 . S
O131 Sc111 2.105 . S
O131 C116 1.268 . S
Sc132 O135 2.025 . S
Sc132 O142 2.105 . S
Sc132 O145 2.105 . S
Sc132 O148 2.105 . S
Sc132 O151 2.105 . S
Sc133 O135 2.025 . S
Sc133 O143 2.104 1_545 S
Sc133 O147 2.105 . S
Sc133 O149 2.105 . S
Sc133 O153 2.105 . S
Sc134 O135 2.025 . S
Sc134 O144 2.105 . S
Sc134 O146 2.105 . S
Sc134 O150 2.105 . S
Sc134 O152 2.105 . S
O135 Sc132 2.025 . S
O135 Sc133 2.025 . S
O135 Sc134 2.025 . S
C136 O142 1.268 . S
C136 O152 1.268 . S
C137 O143 1.267 1_545 S
C137 O151 1.268 . S
C138 O144 1.268 . S
C138 O153 1.268 . S
C139 O145 1.268 . S
C139 O149 1.268 . S
C140 O146 1.268 . S
C140 O148 1.268 . S
C141 O147 1.268 . S
C141 O150 1.268 . S
O142 Sc132 2.105 . S
O142 C136 1.268 . S
O143 Sc133 2.104 1_565 S
O143 C137 1.267 1_565 S
O144 Sc134 2.105 . S
O144 C138 1.268 . S
O145 Sc132 2.105 . S
O145 C139 1.268 . S
O146 Sc134 2.105 . S
O146 C140 1.268 . S
O147 Sc133 2.105 . S
O147 C141 1.268 . S
O148 Sc132 2.105 . S
O148 C140 1.268 . S
O149 Sc133 2.105 . S
O149 C139 1.268 . S
O150 Sc134 2.105 . S
O150 C141 1.268 . S
O151 Sc132 2.105 . S
O151 C137 1.268 . S
O152 Sc134 2.105 . S
O152 C136 1.268 . S
O153 Sc133 2.105 . S
O153 C138 1.268 . S
Sc154 O157 2.025 . S
Sc154 O164 2.105 . S
Sc154 O167 2.105 . S
Sc154 O170 2.105 . S
Sc154 O173 2.105 . S
Sc155 O157 2.025 . S
Sc155 O165 2.105 . S
Sc155 O169 2.105 . S
Sc155 O171 2.105 . S
Sc155 O175 2.105 . S
Sc156 O157 2.025 . S
Sc156 O166 2.105 . S
Sc156 O168 2.105 . S
Sc156 O172 2.105 . S
Sc156 O174 2.105 . S
O157 Sc154 2.025 . S
O157 Sc155 2.025 . S
O157 Sc156 2.025 . S
C158 O164 1.268 . S
C158 O174 1.268 . S
C159 O165 1.268 . S
C159 O173 1.268 . S
C160 O166 1.268 . S
C160 O175 1.268 . S
C161 O167 1.268 . S
C161 O171 1.268 . S
C162 O168 1.268 . S
C162 O170 1.268 . S
C163 O169 1.268 . S
C163 O172 1.268 . S
O164 Sc154 2.105 . S
O164 C158 1.268 . S
O165 Sc155 2.105 . S
O165 C159 1.268 . S
O166 Sc156 2.105 . S
O166 C160 1.268 . S
O167 Sc154 2.105 . S
O167 C161 1.268 . S
O168 Sc156 2.105 . S
O168 C162 1.268 . S
O169 Sc155 2.105 . S
O169 C163 1.268 . S
O170 Sc154 2.105 . S
O170 C162 1.268 . S
O171 Sc155 2.105 . S
O171 C161 1.268 . S
O172 Sc156 2.105 . S
O172 C163 1.268 . S
O173 Sc154 2.105 . S
O173 C159 1.268 . S
O174 Sc156 2.105 . S
O174 C158 1.268 . S
O175 Sc155 2.105 . S
O175 C160 1.268 . S
Sc176 O179 2.025 . S
Sc176 O186 2.105 . S
Sc176 O189 2.105 . S
Sc176 O192 2.105 . S
Sc176 O195 2.105 . S
Sc177 O179 2.025 . S
Sc177 O187 2.105 . S
Sc177 O191 2.105 1_655 S
Sc177 O193 2.105 . S
Sc177 O197 2.105 . S
Sc178 O179 2.025 . S
Sc178 O188 2.105 . S
Sc178 O190 2.105 . S
Sc178 O194 2.105 1_655 S
Sc178 O196 2.105 . S
O179 Sc176 2.025 . S
O179 Sc177 2.025 . S
O179 Sc178 2.025 . S
C180 O186 1.268 . S
C180 O196 1.268 . S
C181 O187 1.268 . S
C181 O195 1.268 . S
C182 O188 1.268 . S
C182 O197 1.268 . S
C183 O189 1.268 . S
C183 O193 1.268 . S
C184 O190 1.268 . S
C184 O192 1.268 . S
C185 O191 1.268 . S
C185 O194 1.268 . S
O186 Sc176 2.105 . S
O186 C180 1.268 . S
O187 Sc177 2.105 . S
O187 C181 1.268 . S
O188 Sc178 2.105 . S
O188 C182 1.268 . S
O189 Sc176 2.105 . S
O189 C183 1.268 . S
O190 Sc178 2.105 . S
O190 C184 1.268 . S
O191 Sc177 2.105 1_455 S
O191 C185 1.268 . S
O192 Sc176 2.105 . S
O192 C184 1.268 . S
O193 Sc177 2.105 . S
O193 C183 1.268 . S
O194 Sc178 2.105 1_455 S
O194 C185 1.268 . S
O195 Sc176 2.105 . S
O195 C181 1.268 . S
O196 Sc178 2.105 . S
O196 C180 1.268 . S
O197 Sc177 2.105 . S
O197 C182 1.268 . S
Sc198 O201 2.025 . S
Sc198 O208 2.105 . S
Sc198 O211 2.105 . S
Sc198 O214 2.105 . S
Sc198 O217 2.105 . S
Sc199 O201 2.025 . S
Sc199 O209 2.105 . S
Sc199 O213 2.105 1_455 S
Sc199 O215 2.105 . S
Sc199 O219 2.104 1_565 S
Sc200 O201 2.025 . S
Sc200 O210 2.105 . S
Sc200 O212 2.105 . S
Sc200 O216 2.105 1_455 S
Sc200 O218 2.105 . S
O201 Sc198 2.025 . S
O201 Sc199 2.025 . S
O201 Sc200 2.025 . S
C202 O208 1.268 . S
C202 O218 1.268 . S
C203 O209 1.268 . S
C203 O217 1.268 . S
C204 O210 1.268 . S
C204 O219 1.267 1_565 S
C205 O211 1.268 . S
C205 O215 1.268 . S
C206 O212 1.268 . S
C206 O214 1.268 . S
C207 O213 1.268 . S
C207 O216 1.268 . S
O208 Sc198 2.105 . S
O208 C202 1.268 . S
O209 Sc199 2.105 . S
O209 C203 1.268 . S
O210 Sc200 2.105 . S
O210 C204 1.268 . S
O211 Sc198 2.105 . S
O211 C205 1.268 . S
O212 Sc200 2.105 . S
O212 C206 1.268 . S
O213 Sc199 2.105 1_655 S
O213 C207 1.268 . S
O214 Sc198 2.105 . S
O214 C206 1.268 . S
O215 Sc199 2.105 . S
O215 C205 1.268 . S
O216 Sc200 2.105 1_655 S
O216 C207 1.268 . S
O217 Sc198 2.105 . S
O217 C203 1.268 . S
O218 Sc200 2.105 . S
O218 C202 1.268 . S
O219 Sc199 2.104 1_545 S
O219 C204 1.267 1_545 S
Sc220 O223 2.025 . S
Sc220 O230 2.105 . S
Sc220 O233 2.105 . S
Sc220 O236 2.105 . S
Sc220 O239 2.105 . S
Sc221 O223 2.025 . S
Sc221 O231 2.105 . S
Sc221 O235 2.105 1_655 S
Sc221 O237 2.105 . S
Sc221 O241 2.105 . S
Sc222 O223 2.025 . S
Sc222 O232 2.105 . S
Sc222 O234 2.105 . S
Sc222 O238 2.105 1_655 S
Sc222 O240 2.105 . S
O223 Sc220 2.025 . S
O223 Sc221 2.025 . S
O223 Sc222 2.025 . S
C224 O230 1.268 . S
C224 O240 1.268 . S
C225 O231 1.268 . S
C225 O239 1.268 . S
C226 O232 1.268 . S
C226 O241 1.268 . S
C227 O233 1.268 . S
C227 O237 1.268 . S
C228 O234 1.268 . S
C228 O236 1.268 . S
C229 O235 1.268 . S
C229 O238 1.268 . S
O230 Sc220 2.105 . S
O230 C224 1.268 . S
O231 Sc221 2.105 . S
O231 C225 1.268 . S
O232 Sc222 2.105 . S
O232 C226 1.268 . S
O233 Sc220 2.105 . S
O233 C227 1.268 . S
O234 Sc222 2.105 . S
O234 C228 1.268 . S
O235 Sc221 2.105 1_455 S
O235 C229 1.268 . S
O236 Sc220 2.105 . S
O236 C228 1.268 . S
O237 Sc221 2.105 . S
O237 C227 1.268 . S
O238 Sc222 2.105 1_455 S
O238 C229 1.268 . S
O239 Sc220 2.105 . S
O239 C225 1.268 . S
O240 Sc222 2.105 . S
O240 C224 1.268 . S
O241 Sc221 2.105 . S
O241 C226 1.268 . S
Sc242 O245 2.025 . S
Sc242 O252 2.105 . S
Sc242 O255 2.105 . S
Sc242 O258 2.105 . S
Sc242 O261 2.105 1_455 S
Sc243 O245 2.025 . S
Sc243 O253 2.105 1_455 S
Sc243 O257 2.105 . S
Sc243 O259 2.104 1_545 S
Sc243 O263 2.105 . S
Sc244 O245 2.025 . S
Sc244 O254 2.105 . S
Sc244 O256 2.105 . S
Sc244 O260 2.105 . S
Sc244 O262 2.105 . S
O245 Sc242 2.025 . S
O245 Sc243 2.025 . S
O245 Sc244 2.025 . S
C246 O252 1.268 . S
C246 O262 1.268 . S
C247 O253 1.268 . S
C247 O261 1.268 . S
C248 O254 1.268 . S
C248 O263 1.268 . S
C249 O255 1.268 . S
C249 O259 1.267 1_545 S
C250 O256 1.268 . S
C250 O258 1.268 . S
C251 O257 1.268 . S
C251 O260 1.268 . S
O252 Sc242 2.105 . S
O252 C246 1.268 . S
O253 Sc243 2.105 1_655 S
O253 C247 1.268 . S
O254 Sc244 2.105 . S
O254 C248 1.268 . S
O255 Sc242 2.105 . S
O255 C249 1.268 . S
O256 Sc244 2.105 . S
O256 C250 1.268 . S
O257 Sc243 2.105 . S
O257 C251 1.268 . S
O258 Sc242 2.105 . S
O258 C250 1.268 . S
O259 Sc243 2.104 1_565 S
O259 C249 1.267 1_565 S
O260 Sc244 2.105 . S
O260 C251 1.268 . S
O261 Sc242 2.105 1_655 S
O261 C247 1.268 . S
O262 Sc244 2.105 . S
O262 C246 1.268 . S
O263 Sc243 2.105 . S
O263 C248 1.268 . S
Sc264 O267 2.025 . S
Sc264 O274 2.105 . S
Sc264 O277 2.105 1_455 S
Sc264 O280 2.105 . S
Sc264 O283 2.105 . S
Sc265 O267 2.025 . S
Sc265 O275 2.105 . S
Sc265 O279 2.105 . S
Sc265 O281 2.105 1_455 S
Sc265 O285 2.105 . S
Sc266 O267 2.025 . S
Sc266 O276 2.105 . S
Sc266 O278 2.105 . S
Sc266 O282 2.105 . S
Sc266 O284 2.105 . S
O267 Sc264 2.025 . S
O267 Sc265 2.025 . S
O267 Sc266 2.025 . S
C268 O274 1.268 . S
C268 O284 1.268 . S
C269 O275 1.268 . S
C269 O283 1.268 . S
C270 O276 1.268 . S
C270 O285 1.268 . S
C271 O277 1.268 . S
C271 O281 1.268 . S
C272 O278 1.268 . S
C272 O280 1.268 . S
C273 O279 1.268 . S
C273 O282 1.268 . S
O274 Sc264 2.105 . S
O274 C268 1.268 . S
O275 Sc265 2.105 . S
O275 C269 1.268 . S
O276 Sc266 2.105 . S
O276 C270 1.268 . S
O277 Sc264 2.105 1_655 S
O277 C271 1.268 . S
O278 Sc266 2.105 . S
O278 C272 1.268 . S
O279 Sc265 2.105 . S
O279 C273 1.268 . S
O280 Sc264 2.105 . S
O280 C272 1.268 . S
O281 Sc265 2.105 1_655 S
O281 C271 1.268 . S
O282 Sc266 2.105 . S
O282 C273 1.268 . S
O283 Sc264 2.105 . S
O283 C269 1.268 . S
O284 Sc266 2.105 . S
O284 C268 1.268 . S
O285 Sc265 2.105 . S
O285 C270 1.268 . S
Sc286 O289 2.025 . S
Sc286 O296 2.105 . S
Sc286 O299 2.105 . S
Sc286 O302 2.105 . S
Sc286 O305 2.105 . S
Sc287 O289 2.025 . S
Sc287 O297 2.105 . S
Sc287 O301 2.104 1_545 S
Sc287 O303 2.105 . S
Sc287 O307 2.105 1_655 S
Sc288 O289 2.025 . S
Sc288 O298 2.105 1_655 S
Sc288 O300 2.105 . S
Sc288 O304 2.105 . S
Sc288 O306 2.105 . S
O289 Sc286 2.025 . S
O289 Sc287 2.025 . S
O289 Sc288 2.025 . S
C290 O296 1.268 . S
C290 O306 1.268 . S
C291 O297 1.268 . S
C291 O305 1.268 . S
C292 O298 1.268 . S
C292 O307 1.268 . S
C293 O299 1.268 . S
C293 O303 1.268 . S
C294 O300 1.268 . S
C294 O302 1.268 . S
C295 O301 1.267 1_545 S
C295 O304 1.268 . S
O296 Sc286 2.105 . S
O296 C290 1.268 . S
O297 Sc287 2.105 . S
O297 C291 1.268 . S
O298 Sc288 2.105 1_455 S
O298 C292 1.268 . S
O299 Sc286 2.105 . S
O299 C293 1.268 . S
O300 Sc288 2.105 . S
O300 C294 1.268 . S
O301 Sc287 2.104 1_565 S
O301 C295 1.267 1_565 S
O302 Sc286 2.105 . S
O302 C294 1.268 . S
O303 Sc287 2.105 . S
O303 C293 1.268 . S
O304 Sc288 2.105 . S
O304 C295 1.268 . S
O305 Sc286 2.105 . S
O305 C291 1.268 . S
O306 Sc288 2.105 . S
O306 C290 1.268 . S
O307 Sc287 2.105 1_455 S
O307 C292 1.268 . S
Sc308 O311 2.025 . S
Sc308 O318 2.105 . S
Sc308 O321 2.105 1_455 S
Sc308 O324 2.105 . S
Sc308 O327 2.105 . S
Sc309 O311 2.025 . S
Sc309 O319 2.105 . S
Sc309 O323 2.105 . S
Sc309 O325 2.105 1_455 S
Sc309 O329 2.105 . S
Sc310 O311 2.025 . S
Sc310 O320 2.105 . S
Sc310 O322 2.105 . S
Sc310 O326 2.105 . S
Sc310 O328 2.105 . S
O311 Sc308 2.025 . S
O311 Sc309 2.025 . S
O311 Sc310 2.025 . S
C312 O318 1.268 . S
C312 O328 1.268 . S
C313 O319 1.268 . S
C313 O327 1.268 . S
C314 O320 1.268 . S
C314 O329 1.268 . S
C315 O321 1.268 . S
C315 O325 1.268 . S
C316 O322 1.268 . S
C316 O324 1.268 . S
C317 O323 1.268 . S
C317 O326 1.268 . S
O318 Sc308 2.105 . S
O318 C312 1.268 . S
O319 Sc309 2.105 . S
O319 C313 1.268 . S
O320 Sc310 2.105 . S
O320 C314 1.268 . S
O321 Sc308 2.105 1_655 S
O321 C315 1.268 . S
O322 Sc310 2.105 . S
O322 C316 1.268 . S
O323 Sc309 2.105 . S
O323 C317 1.268 . S
O324 Sc308 2.105 . S
O324 C316 1.268 . S
O325 Sc309 2.105 1_655 S
O325 C315 1.268 . S
O326 Sc310 2.105 . S
O326 C317 1.268 . S
O327 Sc308 2.105 . S
O327 C313 1.268 . S
O328 Sc310 2.105 . S
O328 C312 1.268 . S
O329 Sc309 2.105 . S
O329 C314 1.268 . S
Sc330 O333 2.025 . S
Sc330 O340 2.105 . S
Sc330 O343 2.105 1_655 S
Sc330 O346 2.105 . S
Sc330 O349 2.105 . S
Sc331 O333 2.025 . S
Sc331 O341 2.104 1_565 S
Sc331 O345 2.105 . S
Sc331 O347 2.105 1_655 S
Sc331 O351 2.105 . S
Sc332 O333 2.025 . S
Sc332 O342 2.105 . S
Sc332 O344 2.105 . S
Sc332 O348 2.105 . S
Sc332 O350 2.105 . S
O333 Sc330 2.025 . S
O333 Sc331 2.025 . S
O333 Sc332 2.025 . S
C334 O340 1.268 . S
C334 O350 1.268 . S
C335 O341 1.267 1_565 S
C335 O349 1.268 . S
C336 O342 1.268 . S
C336 O351 1.268 . S
C337 O343 1.268 . S
C337 O347 1.268 . S
C338 O344 1.268 . S
C338 O346 1.268 . S
C339 O345 1.268 . S
C339 O348 1.268 . S
O340 Sc330 2.105 . S
O340 C334 1.268 . S
O341 Sc331 2.104 1_545 S
O341 C335 1.267 1_545 S
O342 Sc332 2.105 . S
O342 C336 1.268 . S
O343 Sc330 2.105 1_455 S
O343 C337 1.268 . S
O344 Sc332 2.105 . S
O344 C338 1.268 . S
O345 Sc331 2.105 . S
O345 C339 1.268 . S
O346 Sc330 2.105 . S
O346 C338 1.268 . S
O347 Sc331 2.105 1_455 S
O347 C337 1.268 . S
O348 Sc332 2.105 . S
O348 C339 1.268 . S
O349 Sc330 2.105 . S
O349 C335 1.268 . S
O350 Sc332 2.105 . S
O350 C334 1.268 . S
O351 Sc331 2.105 . S
O351 C336 1.268 . S
H352 C358 0.930 . S
H353 C361 0.930 . S
H354 C362 0.930 1_556 S
H355 C363 0.930 . S
H356 C366 0.930 . S
H357 C367 0.930 1_554 S
C358 H352 0.930 . S
C358 C359 1.355 1_565 S
C358 C360 1.415 . S
C359 C358 1.355 1_545 S
C359 C361 1.419 . S
C360 C358 1.415 . S
C360 C365 1.425 1_564 S
C360 C367 1.409 1_554 S
C361 H353 0.930 . S
C361 C359 1.419 . S
C361 C362 1.362 . S
C362 H354 0.930 1_554 S
C362 C361 1.362 . S
C362 C365 1.409 1_554 S
C363 H355 0.930 . S
C363 C364 1.355 1_545 S
C363 C365 1.415 . S
C364 C363 1.355 1_565 S
C364 C366 1.419 . S
C365 C360 1.425 1_546 S
C365 C362 1.409 1_556 S
C365 C363 1.415 . S
C366 H356 0.930 . S
C366 C364 1.419 . S
C366 C367 1.362 . S
C367 H357 0.930 1_556 S
C367 C360 1.409 1_556 S
C367 C366 1.362 . S
H368 C374 0.930 . S
H369 C377 0.930 . S
H370 C378 0.930 1_556 S
H371 C379 0.930 . S
H372 C382 0.930 . S
H373 C383 0.930 1_554 S
C374 H368 0.930 . S
C374 C375 1.355 . S
C374 C376 1.415 . S
C375 C374 1.355 . S
C375 C377 1.419 . S
C376 C374 1.415 . S
C376 C381 1.425 1_554 S
C376 C383 1.409 1_554 S
C377 H369 0.930 . S
C377 C375 1.419 . S
C377 C378 1.362 . S
C378 H370 0.930 1_554 S
C378 C377 1.362 . S
C378 C381 1.409 1_554 S
C379 H371 0.930 . S
C379 C380 1.355 . S
C379 C381 1.415 . S
C380 C379 1.355 . S
C380 C382 1.419 . S
C381 C376 1.425 1_556 S
C381 C378 1.409 1_556 S
C381 C379 1.415 . S
C382 H372 0.930 . S
C382 C380 1.419 . S
C382 C383 1.362 . S
C383 H373 0.930 1_556 S
C383 C376 1.409 1_556 S
C383 C382 1.362 . S
H384 C390 0.930 . S
H385 C393 0.930 . S
H386 C394 0.930 . S
H387 C395 0.930 . S
H388 C398 0.930 . S
H389 C399 0.930 . S
C390 H384 0.930 . S
C390 C391 1.355 1_545 S
C390 C392 1.415 . S
C391 C390 1.355 1_565 S
C391 C393 1.419 . S
C392 C390 1.415 . S
C392 C397 1.425 1_545 S
C392 C399 1.409 . S
C393 H385 0.930 . S
C393 C391 1.419 . S
C393 C394 1.362 . S
C394 H386 0.930 . S
C394 C393 1.362 . S
C394 C397 1.409 . S
C395 H387 0.930 . S
C395 C396 1.355 1_565 S
C395 C397 1.415 . S
C396 C395 1.355 1_545 S
C396 C398 1.419 . S
C397 C392 1.425 1_565 S
C397 C394 1.409 . S
C397 C395 1.415 . S
C398 H388 0.930 . S
C398 C396 1.419 . S
C398 C399 1.362 . S
C399 H389 0.930 . S
C399 C392 1.409 . S
C399 C398 1.362 . S
H400 C406 0.930 . S
H401 C409 0.930 . S
H402 C410 0.930 . S
H403 C411 0.930 . S
H404 C414 0.930 . S
H405 C415 0.930 . S
C406 H400 0.930 . S
C406 C407 1.355 . S
C406 C408 1.415 . S
C407 C406 1.355 . S
C407 C409 1.419 . S
C408 C406 1.415 . S
C408 C413 1.425 . S
C408 C415 1.409 . S
C409 H401 0.930 . S
C409 C407 1.419 . S
C409 C410 1.362 . S
C410 H402 0.930 . S
C410 C409 1.362 . S
C410 C413 1.409 . S
C411 H403 0.930 . S
C411 C412 1.355 . S
C411 C413 1.415 . S
C412 C411 1.355 . S
C412 C414 1.419 . S
C413 C408 1.425 . S
C413 C410 1.409 . S
C413 C411 1.415 . S
C414 H404 0.930 . S
C414 C412 1.419 . S
C414 C415 1.362 . S
C415 H405 0.930 . S
C415 C408 1.409 . S
C415 C414 1.362 . S
H416 C422 0.930 . S
H417 C425 0.930 . S
H418 C426 0.930 . S
H419 C427 0.930 . S
H420 C430 0.930 . S
H421 C431 0.930 . S
C422 H416 0.930 . S
C422 C423 1.355 . S
C422 C424 1.415 . S
C423 C422 1.355 . S
C423 C425 1.419 . S
C424 C422 1.415 . S
C424 C429 1.425 1_655 S
C424 C431 1.409 . S
C425 H417 0.930 . S
C425 C423 1.419 . S
C425 C426 1.362 1_655 S
C426 H418 0.930 . S
C426 C425 1.362 1_455 S
C426 C429 1.409 . S
C427 H419 0.930 . S
C427 C428 1.355 . S
C427 C429 1.415 . S
C428 C427 1.355 . S
C428 C430 1.419 . S
C429 C424 1.425 1_455 S
C429 C426 1.409 . S
C429 C427 1.415 . S
C430 H420 0.930 . S
C430 C428 1.419 . S
C430 C431 1.362 1_455 S
C431 H421 0.930 . S
C431 C424 1.409 . S
C431 C430 1.362 1_655 S
H432 C438 0.930 1_655 S
H433 C441 0.930 . S
H434 C442 0.930 . S
H435 C443 0.930 1_455 S
H436 C446 0.930 . S
H437 C447 0.930 . S
C438 H432 0.930 1_455 S
C438 C439 1.355 1_545 S
C438 C440 1.415 1_455 S
C439 C438 1.355 1_565 S
C439 C441 1.419 . S
C440 C438 1.415 1_655 S
C440 C445 1.425 1_645 S
C440 C447 1.409 . S
C441 H433 0.930 . S
C441 C439 1.419 . S
C441 C442 1.362 . S
C442 H434 0.930 . S
C442 C441 1.362 . S
C442 C445 1.409 . S
C443 H435 0.930 1_655 S
C443 C444 1.355 1_565 S
C443 C445 1.415 1_655 S
C444 C443 1.355 1_545 S
C444 C446 1.419 . S
C445 C440 1.425 1_465 S
C445 C442 1.409 . S
C445 C443 1.415 1_455 S
C446 H436 0.930 . S
C446 C444 1.419 . S
C446 C447 1.362 . S
C447 H437 0.930 . S
C447 C440 1.409 . S
C447 C446 1.362 . S
H448 C454 0.930 . S
H449 C457 0.933 . S
H450 C458 0.930 . S
H451 C459 0.930 . S
H452 C462 0.933 . S
H453 C463 0.930 . S
C454 H448 0.930 . S
C454 C455 1.355 . S
C454 C456 1.384 1_556 S
C455 C454 1.355 . S
C455 C457 1.408 1_655 S
C456 C454 1.384 1_554 S
C456 C461 1.423 1_654 S
C456 C463 1.442 . S
C457 H449 0.933 . S
C457 C455 1.408 1_455 S
C457 C458 1.371 . S
C458 H450 0.930 . S
C458 C457 1.371 . S
C458 C461 1.442 . S
C459 H451 0.930 . S
C459 C460 1.355 . S
C459 C461 1.384 1_554 S
C460 C459 1.355 . S
C460 C462 1.408 1_455 S
C461 C456 1.423 1_456 S
C461 C458 1.442 . S
C461 C459 1.384 1_556 S
C462 H452 0.933 . S
C462 C460 1.408 1_655 S
C462 C463 1.371 . S
C463 H453 0.930 . S
C463 C456 1.442 . S
C463 C462 1.371 . S
H464 C470 0.930 . S
H465 C473 0.930 . S
H466 C474 0.930 . S
H467 C475 0.930 . S
H468 C478 0.930 . S
H469 C479 0.930 . S
C470 H464 0.930 . S
C470 C471 1.354 . S
C470 C472 1.415 1_556 S
C471 C470 1.354 . S
C471 C473 1.420 1_445 S
C472 C470 1.415 1_554 S
C472 C477 1.425 1_444 S
C472 C479 1.409 . S
C473 H465 0.930 . S
C473 C471 1.420 1_665 S
C473 C474 1.362 . S
C474 H466 0.930 . S
C474 C473 1.362 . S
C474 C477 1.409 . S
C475 H467 0.930 . S
C475 C476 1.354 . S
C475 C477 1.415 1_554 S
C476 C475 1.354 . S
C476 C478 1.420 1_665 S
C477 C472 1.425 1_666 S
C477 C474 1.409 . S
C477 C475 1.415 1_556 S
C478 H468 0.930 . S
C478 C476 1.420 1_445 S
C478 C479 1.362 . S
C479 H469 0.930 . S
C479 C472 1.409 . S
C479 C478 1.362 . S
H480 C486 0.930 . S
H481 C489 0.930 . S
H482 C490 0.930 . S
H483 C491 0.930 . S
H484 C494 0.930 . S
H485 C495 0.930 . S
C486 H480 0.930 . S
C486 C487 1.355 . S
C486 C488 1.415 . S
C487 C486 1.355 . S
C487 C489 1.419 . S
C488 C486 1.415 . S
C488 C493 1.425 1_545 S
C488 C495 1.409 . S
C489 H481 0.930 . S
C489 C487 1.419 . S
C489 C490 1.362 1_545 S
C490 H482 0.930 . S
C490 C489 1.362 1_565 S
C490 C493 1.409 . S
C491 H483 0.930 . S
C491 C492 1.355 . S
C491 C493 1.415 . S
C492 C491 1.355 . S
C492 C494 1.419 . S
C493 C488 1.425 1_565 S
C493 C490 1.409 . S
C493 C491 1.415 . S
C494 H484 0.930 . S
C494 C492 1.419 . S
C494 C495 1.362 1_565 S
C495 H485 0.930 . S
C495 C488 1.409 . S
C495 C494 1.362 1_545 S
H496 C502 0.930 . S
H497 C505 0.930 . S
H498 C506 0.930 . S
H499 C507 0.930 . S
H500 C510 0.930 . S
H501 C511 0.930 . S
C502 H496 0.930 . S
C502 C503 1.355 . S
C502 C504 1.415 . S
C503 C502 1.355 . S
C503 C505 1.419 . S
C504 C502 1.415 . S
C504 C509 1.425 . S
C504 C511 1.409 . S
C505 H497 0.930 . S
C505 C503 1.419 . S
C505 C506 1.362 . S
C506 H498 0.930 . S
C506 C505 1.362 . S
C506 C509 1.409 . S
C507 H499 0.930 . S
C507 C508 1.355 . S
C507 C509 1.415 . S
C508 C507 1.355 . S
C508 C510 1.419 . S
C509 C504 1.425 . S
C509 C506 1.409 . S
C509 C507 1.415 . S
C510 H500 0.930 . S
C510 C508 1.419 . S
C510 C511 1.362 . S
C511 H501 0.930 . S
C511 C504 1.409 . S
C511 C510 1.362 . S
H512 C518 0.930 . S
H513 C521 0.930 1_545 S
H514 C522 0.930 . S
H515 C523 0.930 . S
H516 C526 0.930 1_565 S
H517 C527 0.930 . S
C518 H512 0.930 . S
C518 C519 1.355 . S
C518 C520 1.415 . S
C519 C518 1.355 . S
C519 C521 1.419 . S
C520 C518 1.415 . S
C520 C525 1.425 1_565 S
C520 C527 1.409 . S
C521 H513 0.930 1_565 S
C521 C519 1.419 . S
C521 C522 1.362 1_565 S
C522 H514 0.930 . S
C522 C521 1.362 1_545 S
C522 C525 1.409 . S
C523 H515 0.930 . S
C523 C524 1.355 . S
C523 C525 1.415 . S
C524 C523 1.355 . S
C524 C526 1.419 . S
C525 C520 1.425 1_545 S
C525 C522 1.409 . S
C525 C523 1.415 . S
C526 H516 0.930 1_545 S
C526 C524 1.419 . S
C526 C527 1.362 1_545 S
C527 H517 0.930 . S
C527 C520 1.409 . S
C527 C526 1.362 1_565 S
H528 C534 0.930 . S
H529 C537 0.930 . S
H530 C538 0.930 . S
H531 C539 0.930 . S
H532 C542 0.930 . S
H533 C543 0.930 . S
C534 H528 0.930 . S
C534 C535 1.355 . S
C534 C536 1.415 . S
C535 C534 1.355 . S
C535 C537 1.419 . S
C536 C534 1.415 . S
C536 C541 1.425 . S
C536 C543 1.409 . S
C537 H529 0.930 . S
C537 C535 1.419 . S
C537 C538 1.362 . S
C538 H530 0.930 . S
C538 C537 1.362 . S
C538 C541 1.409 . S
C539 H531 0.930 . S
C539 C540 1.355 . S
C539 C541 1.415 . S
C540 C539 1.355 . S
C540 C542 1.419 . S
C541 C536 1.425 . S
C541 C538 1.409 . S
C541 C539 1.415 . S
C542 H532 0.930 . S
C542 C540 1.419 . S
C542 C543 1.362 . S
C543 H533 0.930 . S
C543 C536 1.409 . S
C543 C542 1.362 . S
H544 C550 0.930 . S
H545 C553 0.930 . S
H546 C554 0.930 . S
H547 C555 0.930 . S
H548 C558 0.930 1_455 S
H549 C559 0.930 1_455 S
C550 H544 0.930 . S
C550 C551 1.355 . S
C550 C552 1.415 . S
C551 C550 1.355 . S
C551 C553 1.419 . S
C552 C550 1.415 . S
C552 C557 1.425 . S
C552 C559 1.409 . S
C553 H545 0.930 . S
C553 C551 1.419 . S
C553 C554 1.362 . S
C554 H546 0.930 . S
C554 C553 1.362 . S
C554 C557 1.409 . S
C555 H547 0.930 . S
C555 C556 1.355 . S
C555 C557 1.415 . S
C556 C555 1.355 . S
C556 C558 1.419 . S
C557 C552 1.425 . S
C557 C554 1.409 . S
C557 C555 1.415 . S
C558 H548 0.930 1_655 S
C558 C556 1.419 . S
C558 C559 1.362 . S
C559 H549 0.930 1_655 S
C559 C552 1.409 . S
C559 C558 1.362 . S
H560 C566 0.930 1_565 S
H561 C569 0.930 . S
H562 C570 0.930 . S
H563 C571 0.930 1_545 S
H564 C574 0.930 . S
H565 C575 0.930 . S
C566 H560 0.930 1_545 S
C566 C567 1.355 . S
C566 C568 1.415 1_545 S
C567 C566 1.355 . S
C567 C569 1.419 . S
C568 C566 1.415 1_565 S
C568 C573 1.425 1_565 S
C568 C575 1.409 . S
C569 H561 0.930 . S
C569 C567 1.419 . S
C569 C570 1.362 . S
C570 H562 0.930 . S
C570 C569 1.362 . S
C570 C573 1.409 . S
C571 H563 0.930 1_565 S
C571 C572 1.355 . S
C571 C573 1.415 1_565 S
C572 C571 1.355 . S
C572 C574 1.419 . S
C573 C568 1.425 1_545 S
C573 C570 1.409 . S
C573 C571 1.415 1_545 S
C574 H564 0.930 . S
C574 C572 1.419 . S
C574 C575 1.362 . S
C575 H565 0.930 . S
C575 C568 1.409 . S
C575 C574 1.362 . S
H576 C582 0.930 . S
H577 C585 0.930 . S
H578 C586 0.930 . S
H579 C587 0.930 . S
H580 C590 0.930 . S
H581 C591 0.930 . S
C582 H576 0.930 . S
C582 C583 1.355 . S
C582 C584 1.415 . S
C583 C582 1.355 . S
C583 C585 1.419 . S
C584 C582 1.415 . S
C584 C589 1.425 . S
C584 C591 1.409 . S
C585 H577 0.930 . S
C585 C583 1.419 . S
C585 C586 1.362 . S
C586 H578 0.930 . S
C586 C585 1.362 . S
C586 C589 1.409 . S
C587 H579 0.930 . S
C587 C588 1.355 . S
C587 C589 1.415 . S
C588 C587 1.355 . S
C588 C590 1.419 . S
C589 C584 1.425 . S
C589 C586 1.409 . S
C589 C587 1.415 . S
C590 H580 0.930 . S
C590 C588 1.419 . S
C590 C591 1.362 . S
C591 H581 0.930 . S
C591 C584 1.409 . S
C591 C590 1.362 . S
H592 C598 0.930 . S
H593 C601 0.930 1_565 S
H594 C602 0.930 . S
H595 C603 0.930 . S
H596 C606 0.930 1_545 S
H597 C607 0.930 . S
C598 H592 0.930 . S
C598 C599 1.355 . S
C598 C600 1.415 . S
C599 C598 1.355 . S
C599 C601 1.419 . S
C600 C598 1.415 . S
C600 C605 1.425 1_545 S
C600 C607 1.409 . S
C601 H593 0.930 1_545 S
C601 C599 1.419 . S
C601 C602 1.362 1_545 S
C602 H594 0.930 . S
C602 C601 1.362 1_565 S
C602 C605 1.409 . S
C603 H595 0.930 . S
C603 C604 1.355 . S
C603 C605 1.415 . S
C604 C603 1.355 . S
C604 C606 1.419 . S
C605 C600 1.425 1_565 S
C605 C602 1.409 . S
C605 C603 1.415 . S
C606 H596 0.930 1_565 S
C606 C604 1.419 . S
C606 C607 1.362 1_565 S
C607 H597 0.930 . S
C607 C600 1.409 . S
C607 C606 1.362 1_545 S
H608 C614 0.930 . S
H609 C617 0.930 . S
H610 C618 0.930 . S
H611 C619 0.930 . S
H612 C622 0.930 . S
H613 C623 0.930 . S
C614 H608 0.930 . S
C614 C615 1.355 . S
C614 C616 1.415 . S
C615 C614 1.355 . S
C615 C617 1.419 . S
C616 C614 1.415 . S
C616 C621 1.425 1_554 S
C616 C623 1.409 . S
C617 H609 0.930 . S
C617 C615 1.419 . S
C617 C618 1.362 1_554 S
C618 H610 0.930 . S
C618 C617 1.362 1_556 S
C618 C621 1.409 . S
C619 H611 0.930 . S
C619 C620 1.355 . S
C619 C621 1.415 . S
C620 C619 1.355 . S
C620 C622 1.419 . S
C621 C616 1.425 1_556 S
C621 C618 1.409 . S
C621 C619 1.415 . S
C622 H612 0.930 . S
C622 C620 1.419 . S
C622 C623 1.362 1_556 S
C623 H613 0.930 . S
C623 C616 1.409 . S
C623 C622 1.362 1_554 S
H624 C630 0.930 . S
H625 C633 0.930 . S
H626 C634 0.930 . S
H627 C635 0.930 . S
H628 C638 0.930 . S
H629 C639 0.930 . S
C630 H624 0.930 . S
C630 C631 1.355 . S
C630 C632 1.415 1_556 S
C631 C630 1.355 . S
C631 C633 1.419 . S
C632 C630 1.415 1_554 S
C632 C637 1.425 1_554 S
C632 C639 1.409 . S
C633 H625 0.930 . S
C633 C631 1.419 . S
C633 C634 1.362 . S
C634 H626 0.930 . S
C634 C633 1.362 . S
C634 C637 1.409 . S
C635 H627 0.930 . S
C635 C636 1.355 . S
C635 C637 1.415 1_554 S
C636 C635 1.355 . S
C636 C638 1.419 . S
C637 C632 1.425 1_556 S
C637 C634 1.409 . S
C637 C635 1.415 1_556 S
C638 H628 0.930 . S
C638 C636 1.419 . S
C638 C639 1.362 . S
C639 H629 0.930 . S
C639 C632 1.409 . S
C639 C638 1.362 . S
H640 C646 0.930 . S
H641 C649 0.930 . S
H642 C650 0.930 . S
H643 C651 0.930 . S
H644 C654 0.930 . S
H645 C655 0.930 . S
C646 H640 0.930 . S
C646 C647 1.355 . S
C646 C648 1.415 . S
C647 C646 1.355 . S
C647 C649 1.419 . S
C648 C646 1.415 . S
C648 C653 1.425 . S
C648 C655 1.409 . S
C649 H641 0.930 . S
C649 C647 1.419 . S
C649 C650 1.362 . S
C650 H642 0.930 . S
C650 C649 1.362 . S
C650 C653 1.409 . S
C651 H643 0.930 . S
C651 C652 1.355 . S
C651 C653 1.415 . S
C652 C651 1.355 . S
C652 C654 1.419 . S
C653 C648 1.425 . S
C653 C650 1.409 . S
C653 C651 1.415 . S
C654 H644 0.930 . S
C654 C652 1.419 . S
C654 C655 1.362 . S
C655 H645 0.930 . S
C655 C648 1.409 . S
C655 C654 1.362 . S
H656 C662 0.930 . S
H657 C665 0.930 . S
H658 C666 0.930 . S
H659 C667 0.930 . S
H660 C670 0.930 . S
H661 C671 0.930 . S
C662 H656 0.930 . S
C662 C663 1.355 . S
C662 C664 1.415 . S
C663 C662 1.355 . S
C663 C665 1.419 . S
C664 C662 1.415 . S
C664 C669 1.425 . S
C664 C671 1.409 . S
C665 H657 0.930 . S
C665 C663 1.419 . S
C665 C666 1.362 . S
C666 H658 0.930 . S
C666 C665 1.362 . S
C666 C669 1.409 . S
C667 H659 0.930 . S
C667 C668 1.355 . S
C667 C669 1.415 . S
C668 C667 1.355 . S
C668 C670 1.419 . S
C669 C664 1.425 . S
C669 C666 1.409 . S
C669 C667 1.415 . S
C670 H660 0.930 . S
C670 C668 1.419 . S
C670 C671 1.362 . S
C671 H661 0.930 . S
C671 C664 1.409 . S
C671 C670 1.362 . S
H672 C678 0.930 . S
H673 C681 0.930 . S
H674 C682 0.930 . S
H675 C683 0.930 . S
H676 C686 0.930 . S
H677 C687 0.930 . S
C678 H672 0.930 . S
C678 C679 1.355 . S
C678 C680 1.436 . S
C679 C678 1.355 . S
C679 C681 1.419 . S
C680 C678 1.436 . S
C680 C685 1.424 1_556 S
C680 C687 1.389 1_556 S
C681 H673 0.930 . S
C681 C679 1.419 . S
C681 C682 1.362 . S
C682 H674 0.930 . S
C682 C681 1.362 . S
C682 C685 1.389 1_556 S
C683 H675 0.930 . S
C683 C684 1.355 . S
C683 C685 1.436 . S
C684 C683 1.355 . S
C684 C686 1.419 . S
C685 C680 1.424 1_554 S
C685 C682 1.389 1_554 S
C685 C683 1.436 . S
C686 H676 0.930 . S
C686 C684 1.419 . S
C686 C687 1.362 . S
C687 H677 0.930 . S
C687 C680 1.389 1_554 S
C687 C686 1.362 . S
H688 C694 0.930 . S
H689 C697 0.930 . S
H690 C698 0.930 . S
H691 C699 0.930 . S
H692 C702 0.930 . S
H693 C703 0.930 . S
C694 H688 0.930 . S
C694 C695 1.355 . S
C694 C696 1.415 . S
C695 C694 1.355 . S
C695 C697 1.419 . S
C696 C694 1.415 . S
C696 C701 1.425 1_556 S
C696 C703 1.409 . S
C697 H689 0.930 . S
C697 C695 1.419 . S
C697 C698 1.362 1_556 S
C698 H690 0.930 . S
C698 C697 1.362 1_554 S
C698 C701 1.409 . S
C699 H691 0.930 . S
C699 C700 1.355 . S
C699 C701 1.415 . S
C700 C699 1.355 . S
C700 C702 1.419 . S
C701 C696 1.425 1_554 S
C701 C698 1.409 . S
C701 C699 1.415 . S
C702 H692 0.930 . S
C702 C700 1.419 . S
C702 C703 1.362 1_554 S
C703 H693 0.930 . S
C703 C696 1.409 . S
C703 C702 1.362 1_556 S
H704 C710 0.930 . S
H705 C713 0.930 . S
H706 C714 0.930 . S
H707 C715 0.930 . S
H708 C718 0.930 . S
H709 C719 0.930 . S
C710 H704 0.930 . S
C710 C711 1.355 . S
C710 C712 1.415 . S
C711 C710 1.355 . S
C711 C713 1.419 . S
C712 C710 1.415 . S
C712 C717 1.425 . S
C712 C719 1.409 . S
C713 H705 0.930 . S
C713 C711 1.419 . S
C713 C714 1.362 . S
C714 H706 0.930 . S
C714 C713 1.362 . S
C714 C717 1.409 . S
C715 H707 0.930 . S
C715 C716 1.355 . S
C715 C717 1.415 . S
C716 C715 1.355 . S
C716 C718 1.419 . S
C717 C712 1.425 . S
C717 C714 1.409 . S
C717 C715 1.415 . S
C718 H708 0.930 . S
C718 C716 1.419 . S
C718 C719 1.362 . S
C719 H709 0.930 . S
C719 C712 1.409 . S
C719 C718 1.362 . S
H720 C726 0.930 . S
H721 C729 0.930 . S
H722 C730 0.930 . S
H723 C731 0.930 . S
H724 C734 0.930 . S
H725 C735 0.930 . S
C726 H720 0.930 . S
C726 C727 1.355 . S
C726 C728 1.415 . S
C727 C726 1.355 . S
C727 C729 1.419 . S
C728 C726 1.415 . S
C728 C733 1.425 . S
C728 C735 1.409 . S
C729 H721 0.930 . S
C729 C727 1.419 . S
C729 C730 1.362 . S
C730 H722 0.930 . S
C730 C729 1.362 . S
C730 C733 1.409 . S
C731 H723 0.930 . S
C731 C732 1.355 . S
C731 C733 1.415 . S
C732 C731 1.355 . S
C732 C734 1.419 . S
C733 C728 1.425 . S
C733 C730 1.409 . S
C733 C731 1.415 . S
C734 H724 0.930 . S
C734 C732 1.419 . S
C734 C735 1.362 . S
C735 H725 0.930 . S
C735 C728 1.409 . S
C735 C734 1.362 . S
H736 C742 0.930 . S
H737 C745 0.930 . S
H738 C746 0.930 . S
H739 C747 0.930 . S
H740 C750 0.930 . S
H741 C751 0.930 . S
C742 H736 0.930 . S
C742 C743 1.355 . S
C742 C744 1.415 . S
C743 C742 1.355 . S
C743 C745 1.419 . S
C744 C742 1.415 . S
C744 C749 1.425 . S
C744 C751 1.409 1_545 S
C745 H737 0.930 . S
C745 C743 1.419 . S
C745 C746 1.362 . S
C746 H738 0.930 . S
C746 C745 1.362 . S
C746 C749 1.409 . S
C747 H739 0.930 . S
C747 C748 1.355 1_545 S
C747 C749 1.415 . S
C748 C747 1.355 1_565 S
C748 C750 1.419 . S
C749 C744 1.425 . S
C749 C746 1.409 . S
C749 C747 1.415 . S
C750 H740 0.930 . S
C750 C748 1.419 . S
C750 C751 1.362 . S
C751 H741 0.930 . S
C751 C744 1.409 1_565 S
C751 C750 1.362 . S
H752 C758 0.930 . S
H753 C761 0.930 . S
H754 C762 0.930 . S
H755 C763 0.930 . S
H756 C766 0.930 . S
H757 C767 0.930 . S
C758 H752 0.930 . S
C758 C759 1.355 . S
C758 C760 1.415 . S
C759 C758 1.355 . S
C759 C761 1.419 . S
C760 C758 1.415 . S
C760 C765 1.425 . S
C760 C767 1.409 . S
C761 H753 0.930 . S
C761 C759 1.419 . S
C761 C762 1.362 . S
C762 H754 0.930 . S
C762 C761 1.362 . S
C762 C765 1.409 . S
C763 H755 0.930 . S
C763 C764 1.355 . S
C763 C765 1.415 . S
C764 C763 1.355 . S
C764 C766 1.419 . S
C765 C760 1.425 . S
C765 C762 1.409 . S
C765 C763 1.415 . S
C766 H756 0.930 . S
C766 C764 1.419 . S
C766 C767 1.362 . S
C767 H757 0.930 . S
C767 C760 1.409 . S
C767 C766 1.362 . S
H768 C774 0.930 . S
H769 C777 0.930 1_545 S
H770 C778 0.930 . S
H771 C779 0.930 . S
H772 C782 0.930 . S
H773 C783 0.930 . S
C774 H768 0.930 . S
C774 C775 1.355 . S
C774 C776 1.415 . S
C775 C774 1.355 . S
C775 C777 1.419 . S
C776 C774 1.415 . S
C776 C781 1.425 . S
C776 C783 1.409 . S
C777 H769 0.930 1_565 S
C777 C775 1.419 . S
C777 C778 1.362 1_565 S
C778 H770 0.930 . S
C778 C777 1.362 1_545 S
C778 C781 1.409 1_545 S
C779 H771 0.930 . S
C779 C780 1.362 . S
C779 C781 1.415 1_545 S
C780 C779 1.362 . S
C780 C782 1.403 1_545 S
C781 C776 1.425 . S
C781 C778 1.409 1_565 S
C781 C779 1.415 1_565 S
C782 H772 0.930 . S
C782 C780 1.403 1_565 S
C782 C783 1.362 . S
C783 H773 0.930 . S
C783 C776 1.409 . S
C783 C782 1.362 . S
H784 C790 0.930 . S
H785 C793 0.930 . S
H786 C794 0.930 . S
H787 C795 0.930 . S
H788 C798 0.930 . S
H789 C799 0.930 . S
C790 H784 0.930 . S
C790 C791 1.355 . S
C790 C792 1.415 . S
C791 C790 1.355 . S
C791 C793 1.419 . S
C792 C790 1.415 . S
C792 C797 1.425 . S
C792 C799 1.409 . S
C793 H785 0.930 . S
C793 C791 1.419 . S
C793 C794 1.362 . S
C794 H786 0.930 . S
C794 C793 1.362 . S
C794 C797 1.409 . S
C795 H787 0.930 . S
C795 C796 1.355 . S
C795 C797 1.415 . S
C796 C795 1.355 . S
C796 C798 1.419 . S
C797 C792 1.425 . S
C797 C794 1.409 . S
C797 C795 1.415 . S
C798 H788 0.930 . S
C798 C796 1.419 . S
C798 C799 1.362 . S
C799 H789 0.930 . S
C799 C792 1.409 . S
C799 C798 1.362 . S
H800 C806 0.930 . S
H801 C809 0.930 . S
H802 C810 0.930 . S
H803 C811 0.930 1_545 S
H804 C814 0.930 . S
H805 C815 0.930 . S
C806 H800 0.930 . S
C806 C807 1.355 1_565 S
C806 C808 1.415 . S
C807 C806 1.355 1_545 S
C807 C809 1.419 . S
C808 C806 1.415 . S
C808 C813 1.425 . S
C808 C815 1.409 . S
C809 H801 0.930 . S
C809 C807 1.419 . S
C809 C810 1.362 . S
C810 H802 0.930 . S
C810 C809 1.362 . S
C810 C813 1.409 1_545 S
C811 H803 0.930 1_565 S
C811 C812 1.355 . S
C811 C813 1.415 . S
C812 C811 1.355 . S
C812 C814 1.419 . S
C813 C808 1.425 . S
C813 C810 1.409 1_565 S
C813 C811 1.415 . S
C814 H804 0.930 . S
C814 C812 1.419 . S
C814 C815 1.362 . S
C815 H805 0.930 . S
C815 C808 1.409 . S
C815 C814 1.362 . S
H816 C822 0.930 . S
H817 C825 0.930 . S
H818 C826 0.930 . S
H819 C827 0.930 . S
H820 C830 0.930 . S
H821 C831 0.930 . S
C822 H816 0.930 . S
C822 C823 1.355 . S
C822 C824 1.415 . S
C823 C822 1.355 . S
C823 C825 1.419 . S
C824 C822 1.415 . S
C824 C829 1.425 . S
C824 C831 1.409 . S
C825 H817 0.930 . S
C825 C823 1.419 . S
C825 C826 1.362 . S
C826 H818 0.930 . S
C826 C825 1.362 . S
C826 C829 1.409 . S
C827 H819 0.930 . S
C827 C828 1.355 . S
C827 C829 1.415 . S
C828 C827 1.355 . S
C828 C830 1.419 . S
C829 C824 1.425 . S
C829 C826 1.409 . S
C829 C827 1.415 . S
C830 H820 0.930 . S
C830 C828 1.419 . S
C830 C831 1.362 . S
C831 H821 0.930 . S
C831 C824 1.409 . S
C831 C830 1.362 . S
H832 C838 0.930 . S
H833 C841 0.930 . S
H834 C842 0.930 . S
H835 C843 0.930 . S
H836 C846 0.930 . S
H837 C847 0.930 . S
C838 H832 0.930 . S
C838 C839 1.355 . S
C838 C840 1.415 1_565 S
C839 C838 1.355 . S
C839 C841 1.419 1_565 S
C840 C838 1.415 1_545 S
C840 C845 1.425 . S
C840 C847 1.409 1_545 S
C841 H833 0.930 . S
C841 C839 1.419 1_545 S
C841 C842 1.362 . S
C842 H834 0.930 . S
C842 C841 1.362 . S
C842 C845 1.409 . S
C843 H835 0.930 . S
C843 C844 1.355 . S
C843 C845 1.415 . S
C844 C843 1.355 . S
C844 C846 1.419 . S
C845 C840 1.425 . S
C845 C842 1.409 . S
C845 C843 1.415 . S
C846 H836 0.930 . S
C846 C844 1.419 . S
C846 C847 1.362 1_545 S
C847 H837 0.930 . S
C847 C840 1.409 1_565 S
C847 C846 1.362 1_565 S
H848 C854 0.930 . S
H849 C857 0.930 . S
H850 C858 0.930 . S
H851 C859 0.930 . S
H852 C862 0.930 . S
H853 C863 0.930 . S
C854 H848 0.930 . S
C854 C855 1.355 . S
C854 C856 1.415 . S
C855 C854 1.355 . S
C855 C857 1.419 . S
C856 C854 1.415 . S
C856 C861 1.425 . S
C856 C863 1.409 . S
C857 H849 0.930 . S
C857 C855 1.419 . S
C857 C858 1.362 . S
C858 H850 0.930 . S
C858 C857 1.362 . S
C858 C861 1.409 . S
C859 H851 0.930 . S
C859 C860 1.355 . S
C859 C861 1.415 . S
C860 C859 1.355 . S
C860 C862 1.419 . S
C861 C856 1.425 . S
C861 C858 1.409 . S
C861 C859 1.415 . S
C862 H852 0.930 . S
C862 C860 1.419 . S
C862 C863 1.362 . S
C863 H853 0.930 . S
C863 C856 1.409 . S
C863 C862 1.362 . S
H864 C870 0.930 . S
H865 C873 0.930 . S
H866 C874 0.930 . S
H867 C875 0.930 . S
H868 C878 0.930 . S
H869 C879 0.930 . S
C870 H864 0.930 . S
C870 C871 1.355 . S
C870 C872 1.415 . S
C871 C870 1.355 . S
C871 C873 1.419 . S
C872 C870 1.415 . S
C872 C877 1.425 . S
C872 C879 1.409 . S
C873 H865 0.930 . S
C873 C871 1.419 . S
C873 C874 1.362 . S
C874 H866 0.930 . S
C874 C873 1.362 . S
C874 C877 1.409 . S
C875 H867 0.930 . S
C875 C876 1.355 . S
C875 C877 1.415 . S
C876 C875 1.355 . S
C876 C878 1.419 . S
C877 C872 1.425 . S
C877 C874 1.409 . S
C877 C875 1.415 . S
C878 H868 0.930 . S
C878 C876 1.419 . S
C878 C879 1.362 . S
C879 H869 0.930 . S
C879 C872 1.409 . S
C879 C878 1.362 . S
H880 C886 0.930 . S
H881 C889 0.930 . S
H882 C890 0.930 . S
H883 C891 0.930 . S
H884 C894 0.930 . S
H885 C895 0.930 . S
C886 H880 0.930 . S
C886 C887 1.355 1_565 S
C886 C888 1.415 . S
C887 C886 1.355 1_545 S
C887 C889 1.419 . S
C888 C886 1.415 . S
C888 C893 1.425 . S
C888 C895 1.409 . S
C889 H881 0.930 . S
C889 C887 1.419 . S
C889 C890 1.362 . S
C890 H882 0.930 . S
C890 C889 1.362 . S
C890 C893 1.409 1_545 S
C891 H883 0.930 . S
C891 C892 1.355 . S
C891 C893 1.415 . S
C892 C891 1.355 . S
C892 C894 1.419 . S
C893 C888 1.425 . S
C893 C890 1.409 1_565 S
C893 C891 1.415 . S
C894 H884 0.930 . S
C894 C892 1.419 . S
C894 C895 1.362 . S
C895 H885 0.930 . S
C895 C888 1.409 . S
C895 C894 1.362 . S
H896 C902 0.930 . S
H897 C905 0.930 . S
H898 C906 0.930 . S
H899 C907 0.930 . S
H900 C910 0.930 . S
H901 C911 0.930 . S
C902 H896 0.930 . S
C902 C903 1.355 . S
C902 C904 1.415 . S
C903 C902 1.355 . S
C903 C905 1.419 . S
C904 C902 1.415 . S
C904 C909 1.425 . S
C904 C911 1.409 . S
C905 H897 0.930 . S
C905 C903 1.419 . S
C905 C906 1.362 . S
C906 H898 0.930 . S
C906 C905 1.362 . S
C906 C909 1.409 . S
C907 H899 0.930 . S
C907 C908 1.355 . S
C907 C909 1.415 . S
C908 C907 1.355 . S
C908 C910 1.419 . S
C909 C904 1.425 . S
C909 C906 1.409 . S
C909 C907 1.415 . S
C910 H900 0.930 . S
C910 C908 1.419 . S
C910 C911 1.362 . S
C911 H901 0.930 . S
C911 C904 1.409 . S
C911 C910 1.362 . S
H912 C918 0.930 1_565 S
H913 C921 0.930 . S
H914 C922 0.930 . S
H915 C923 0.930 . S
H916 C926 0.930 . S
H917 C927 0.930 . S
C918 H912 0.930 1_545 S
C918 C919 1.355 . S
C918 C920 1.415 . S
C919 C918 1.355 . S
C919 C921 1.419 . S
C920 C918 1.415 . S
C920 C925 1.425 . S
C920 C927 1.409 1_545 S
C921 H913 0.930 . S
C921 C919 1.419 . S
C921 C922 1.362 . S
C922 H914 0.930 . S
C922 C921 1.362 . S
C922 C925 1.409 . S
C923 H915 0.930 . S
C923 C924 1.355 1_545 S
C923 C925 1.415 . S
C924 C923 1.355 1_565 S
C924 C926 1.419 . S
C925 C920 1.425 . S
C925 C922 1.409 . S
C925 C923 1.415 . S
C926 H916 0.930 . S
C926 C924 1.419 . S
C926 C927 1.362 . S
C927 H917 0.930 . S
C927 C920 1.409 1_565 S
C927 C926 1.362 . S
H928 C934 0.930 . S
H929 C937 0.930 . S
H930 C938 0.930 . S
H931 C939 0.930 . S
H932 C942 0.930 . S
H933 C943 0.930 . S
C934 H928 0.930 . S
C934 C935 1.355 . S
C934 C936 1.415 . S
C935 C934 1.355 . S
C935 C937 1.419 . S
C936 C934 1.415 . S
C936 C941 1.425 . S
C936 C943 1.409 . S
C937 H929 0.930 . S
C937 C935 1.419 . S
C937 C938 1.362 . S
C938 H930 0.930 . S
C938 C937 1.362 . S
C938 C941 1.409 . S
C939 H931 0.930 . S
C939 C940 1.355 . S
C939 C941 1.415 . S
C940 C939 1.355 . S
C940 C942 1.419 . S
C941 C936 1.425 . S
C941 C938 1.409 . S
C941 C939 1.415 . S
C942 H932 0.930 . S
C942 C940 1.419 . S
C942 C943 1.362 . S
C943 H933 0.930 . S
C943 C936 1.409 . S
C943 C942 1.362 . S
H944 C950 0.930 . S
H945 C953 0.930 . S
H946 C954 0.930 . S
H947 C955 0.930 . S
H948 C958 0.930 1_565 S
H949 C959 0.930 . S
C950 H944 0.930 . S
C950 C951 1.361 . S
C950 C952 1.415 1_565 S
C951 C950 1.361 . S
C951 C953 1.406 1_565 S
C952 C950 1.415 1_545 S
C952 C957 1.425 . S
C952 C959 1.409 1_545 S
C953 H945 0.930 . S
C953 C951 1.406 1_545 S
C953 C954 1.362 . S
C954 H946 0.930 . S
C954 C953 1.362 . S
C954 C957 1.409 . S
C955 H947 0.930 . S
C955 C956 1.355 . S
C955 C957 1.415 . S
C956 C955 1.355 . S
C956 C958 1.419 . S
C957 C952 1.425 . S
C957 C954 1.409 . S
C957 C955 1.415 . S
C958 H948 0.930 1_545 S
C958 C956 1.419 . S
C958 C959 1.362 1_545 S
C959 H949 0.930 . S
C959 C952 1.409 1_565 S
C959 C958 1.362 1_565 S
H960 C966 0.930 . S
H961 C969 0.930 . S
H962 C970 0.930 . S
H963 C971 0.930 . S
H964 C974 0.930 . S
H965 C975 0.930 . S
C966 H960 0.930 . S
C966 C967 1.355 . S
C966 C968 1.415 . S
C967 C966 1.355 . S
C967 C969 1.419 . S
C968 C966 1.415 . S
C968 C973 1.425 . S
C968 C975 1.409 . S
C969 H961 0.930 . S
C969 C967 1.419 . S
C969 C970 1.362 . S
C970 H962 0.930 . S
C970 C969 1.362 . S
C970 C973 1.409 . S
C971 H963 0.930 . S
C971 C972 1.355 . S
C971 C973 1.415 . S
C972 C971 1.355 . S
C972 C974 1.419 . S
C973 C968 1.425 . S
C973 C970 1.409 . S
C973 C971 1.415 . S
C974 H964 0.930 . S
C974 C972 1.419 . S
C974 C975 1.362 . S
C975 H965 0.930 . S
C975 C968 1.409 . S
C975 C974 1.362 . S
H976 C982 0.930 . S
H977 C985 0.930 . S
H978 C986 0.930 . S
H979 C987 0.930 . S
H980 C990 0.930 . S
H981 C991 0.930 . S
C982 H976 0.930 . S
C982 C983 1.355 1_565 S
C982 C984 1.415 . S
C983 C982 1.355 1_545 S
C983 C985 1.419 . S
C984 C982 1.415 . S
C984 C989 1.425 . S
C984 C991 1.409 . S
C985 H977 0.930 . S
C985 C983 1.419 . S
C985 C986 1.362 . S
C986 H978 0.930 . S
C986 C985 1.362 . S
C986 C989 1.409 1_545 S
C987 H979 0.930 . S
C987 C988 1.355 . S
C987 C989 1.415 . S
C988 C987 1.355 . S
C988 C990 1.419 . S
C989 C984 1.425 . S
C989 C986 1.409 1_565 S
C989 C987 1.415 . S
C990 H980 0.930 . S
C990 C988 1.419 . S
C990 C991 1.362 . S
C991 H981 0.930 . S
C991 C984 1.409 . S
C991 C990 1.362 . S
H992 C998 0.930 . S
H993 C1001 0.930 . S
H994 C1002 0.930 . S
H995 C1003 0.930 . S
H996 C1006 0.930 . S
H997 C1007 0.930 . S
C998 H992 0.930 . S
C998 C999 1.355 . S
C998 C1000 1.415 . S
C999 C998 1.355 . S
C999 C1001 1.419 . S
C1000 C998 1.415 . S
C1000 C1005 1.425 . S
C1000 C1007 1.409 . S
C1001 H993 0.930 . S
C1001 C999 1.419 . S
C1001 C1002 1.362 . S
C1002 H994 0.930 . S
C1002 C1001 1.362 . S
C1002 C1005 1.409 . S
C1003 H995 0.930 . S
C1003 C1004 1.355 . S
C1003 C1005 1.415 . S
C1004 C1003 1.355 . S
C1004 C1006 1.419 . S
C1005 C1000 1.425 . S
C1005 C1002 1.409 . S
C1005 C1003 1.415 . S
C1006 H996 0.930 . S
C1006 C1004 1.419 . S
C1006 C1007 1.362 . S
C1007 H997 0.930 . S
C1007 C1000 1.409 . S
C1007 C1006 1.362 . S
H1008 C1014 0.930 . S
H1009 C1017 0.930 . S
H1010 C1018 0.930 . S
H1011 C1019 0.930 . S
H1012 C1022 0.930 . S
H1013 C1023 0.930 . S
C1014 H1008 0.930 . S
C1014 C1015 1.355 . S
C1014 C1016 1.415 . S
C1015 C1014 1.355 . S
C1015 C1017 1.419 . S
C1016 C1014 1.415 . S
C1016 C1021 1.425 . S
C1016 C1023 1.409 . S
C1017 H1009 0.930 . S
C1017 C1015 1.419 . S
C1017 C1018 1.362 . S
C1018 H1010 0.930 . S
C1018 C1017 1.362 . S
C1018 C1021 1.409 . S
C1019 H1011 0.930 . S
C1019 C1020 1.355 . S
C1019 C1021 1.415 . S
C1020 C1019 1.355 . S
C1020 C1022 1.419 . S
C1021 C1016 1.425 . S
C1021 C1018 1.409 . S
C1021 C1019 1.415 . S
C1022 H1012 0.930 . S
C1022 C1020 1.419 . S
C1022 C1023 1.362 . S
C1023 H1013 0.930 . S
C1023 C1016 1.409 . S
C1023 C1022 1.362 . S
H1024 C1030 0.930 . S
H1025 C1033 0.930 . S
H1026 C1034 0.930 . S
H1027 C1035 0.930 . S
H1028 C1038 0.930 . S
H1029 C1039 0.930 . S
C1030 H1024 0.930 . S
C1030 C1031 1.355 . S
C1030 C1032 1.415 . S
C1031 C1030 1.355 . S
C1031 C1033 1.419 . S
C1032 C1030 1.415 . S
C1032 C1037 1.425 . S
C1032 C1039 1.409 . S
C1033 H1025 0.930 . S
C1033 C1031 1.419 . S
C1033 C1034 1.362 . S
C1034 H1026 0.930 . S
C1034 C1033 1.362 . S
C1034 C1037 1.409 . S
C1035 H1027 0.930 . S
C1035 C1036 1.355 . S
C1035 C1037 1.415 . S
C1036 C1035 1.355 . S
C1036 C1038 1.419 . S
C1037 C1032 1.425 . S
C1037 C1034 1.409 . S
C1037 C1035 1.415 . S
C1038 H1028 0.930 . S
C1038 C1036 1.419 . S
C1038 C1039 1.362 . S
C1039 H1029 0.930 . S
C1039 C1032 1.409 . S
C1039 C1038 1.362 . S
H1040 C1046 0.930 . S
H1041 C1049 0.930 . S
H1042 C1050 0.930 . S
H1043 C1051 0.930 . S
H1044 C1054 0.930 . S
H1045 C1055 0.930 . S
C1046 H1040 0.930 . S
C1046 C1047 1.355 . S
C1046 C1048 1.415 . S
C1047 C1046 1.355 . S
C1047 C1049 1.419 . S
C1048 C1046 1.415 . S
C1048 C1053 1.425 . S
C1048 C1055 1.409 . S
C1049 H1041 0.930 . S
C1049 C1047 1.419 . S
C1049 C1050 1.362 . S
C1050 H1042 0.930 . S
C1050 C1049 1.362 . S
C1050 C1053 1.409 . S
C1051 H1043 0.930 . S
C1051 C1052 1.355 . S
C1051 C1053 1.415 . S
C1052 C1051 1.355 . S
C1052 C1054 1.419 . S
C1053 C1048 1.425 . S
C1053 C1050 1.409 . S
C1053 C1051 1.415 . S
C1054 H1044 0.930 . S
C1054 C1052 1.419 . S
C1054 C1055 1.362 . S
C1055 H1045 0.930 . S
C1055 C1048 1.409 . S
C1055 C1054 1.362 . S
H1056 C1062 0.930 . S
H1057 C1065 0.930 . S
H1058 C1066 0.930 . S
H1059 C1067 0.930 . S
H1060 C1070 0.930 . S
H1061 C1071 0.930 . S
C1062 H1056 0.930 . S
C1062 C1063 1.355 . S
C1062 C1064 1.415 . S
C1063 C1062 1.355 . S
C1063 C1065 1.419 1_455 S
C1064 C1062 1.415 . S
C1064 C1069 1.425 1_455 S
C1064 C1071 1.409 . S
C1065 H1057 0.930 . S
C1065 C1063 1.419 1_655 S
C1065 C1066 1.362 . S
C1066 H1058 0.930 . S
C1066 C1065 1.362 . S
C1066 C1069 1.409 . S
C1067 H1059 0.930 . S
C1067 C1068 1.355 . S
C1067 C1069 1.415 . S
C1068 C1067 1.355 . S
C1068 C1070 1.419 1_655 S
C1069 C1064 1.425 1_655 S
C1069 C1066 1.409 . S
C1069 C1067 1.415 . S
C1070 H1060 0.930 . S
C1070 C1068 1.419 1_455 S
C1070 C1071 1.362 . S
C1071 H1061 0.930 . S
C1071 C1064 1.409 . S
C1071 C1070 1.362 . S
H1072 C1078 0.930 . S
H1073 C1081 0.930 . S
H1074 C1082 0.930 . S
H1075 C1083 0.930 . S
H1076 C1086 0.930 . S
H1077 C1087 0.930 . S
C1078 H1072 0.930 . S
C1078 C1079 1.355 . S
C1078 C1080 1.415 . S
C1079 C1078 1.355 . S
C1079 C1081 1.419 1_655 S
C1080 C1078 1.415 . S
C1080 C1085 1.425 1_655 S
C1080 C1087 1.409 . S
C1081 H1073 0.930 . S
C1081 C1079 1.419 1_455 S
C1081 C1082 1.362 . S
C1082 H1074 0.930 . S
C1082 C1081 1.362 . S
C1082 C1085 1.409 . S
C1083 H1075 0.930 . S
C1083 C1084 1.355 . S
C1083 C1085 1.415 . S
C1084 C1083 1.355 . S
C1084 C1086 1.419 1_455 S
C1085 C1080 1.425 1_455 S
C1085 C1082 1.409 . S
C1085 C1083 1.415 . S
C1086 H1076 0.930 . S
C1086 C1084 1.419 1_655 S
C1086 C1087 1.362 . S
C1087 H1077 0.930 . S
C1087 C1080 1.409 . S
C1087 C1086 1.362 . S
H1088 C1094 0.929 1_455 S
H1089 C1097 0.930 . S
H1090 C1098 0.930 . S
H1091 C1099 0.929 1_655 S
H1092 C1102 0.930 . S
H1093 C1103 0.930 . S
C1094 H1088 0.929 1_655 S
C1094 C1095 1.355 . S
C1094 C1096 1.414 1_655 S
C1095 C1094 1.355 . S
C1095 C1097 1.419 . S
C1096 C1094 1.414 1_455 S
C1096 C1101 1.425 1_455 S
C1096 C1103 1.409 . S
C1097 H1089 0.930 . S
C1097 C1095 1.419 . S
C1097 C1098 1.362 . S
C1098 H1090 0.930 . S
C1098 C1097 1.362 . S
C1098 C1101 1.409 . S
C1099 H1091 0.929 1_455 S
C1099 C1100 1.355 . S
C1099 C1101 1.414 1_455 S
C1100 C1099 1.355 . S
C1100 C1102 1.419 . S
C1101 C1096 1.425 1_655 S
C1101 C1098 1.409 . S
C1101 C1099 1.414 1_655 S
C1102 H1092 0.930 . S
C1102 C1100 1.419 . S
C1102 C1103 1.362 . S
C1103 H1093 0.930 . S
C1103 C1096 1.409 . S
C1103 C1102 1.362 . S
H1104 C1110 0.930 . S
H1105 C1113 0.930 . S
H1106 C1114 0.930 . S
H1107 C1115 0.930 . S
H1108 C1118 0.930 . S
H1109 C1119 0.930 . S
C1110 H1104 0.930 . S
C1110 C1111 1.355 1_455 S
C1110 C1112 1.415 . S
C1111 C1110 1.355 1_655 S
C1111 C1113 1.419 . S
C1112 C1110 1.415 . S
C1112 C1117 1.425 1_455 S
C1112 C1119 1.409 . S
C1113 H1105 0.930 . S
C1113 C1111 1.419 . S
C1113 C1114 1.362 . S
C1114 H1106 0.930 . S
C1114 C1113 1.362 . S
C1114 C1117 1.409 . S
C1115 H1107 0.930 . S
C1115 C1116 1.355 1_655 S
C1115 C1117 1.415 . S
C1116 C1115 1.355 1_455 S
C1116 C1118 1.419 . S
C1117 C1112 1.425 1_655 S
C1117 C1114 1.409 . S
C1117 C1115 1.415 . S
C1118 H1108 0.930 . S
C1118 C1116 1.419 . S
C1118 C1119 1.362 . S
C1119 H1109 0.930 . S
C1119 C1112 1.409 . S
C1119 C1118 1.362 . S
C359 C6 0.944 . S
C364 C93 0.944 . S
C375 C28 1.069 . S
C380 C119 1.069 . S
C391 C50 0.927 . S
C396 C137 0.927 . S
C407 C73 0.951 . S
C412 C159 0.951 . S
C423 C182 1.043 . S
C428 C269 1.043 . S
C439 C204 0.962 . S
C444 C295 0.962 . S
C455 C226 1.016 . S
C460 C313 1.016 . S
C471 C249 1.005 . S
C476 C335 1.005 . S
C487 C7 1.758 . S
C492 C51 1.773 . S
C503 C29 1.778 . S
C508 C72 1.759 . S
C519 C97 1.758 . S
C524 C141 1.769 . S
C535 C115 1.836 . S
C540 C163 1.836 . S
C551 C227 1.780 . S
C556 C183 1.811 . S
C567 C248 1.812 . S
C572 C205 1.835 . S
C583 C273 1.836 . S
C588 C317 1.836 . S
C599 C291 1.760 . S
C604 C339 1.762 . S
C615 C4 1.899 . S
C620 C250 1.907 . S
C631 C224 1.910 . S
C636 C26 1.902 . S
C647 C48 1.907 . S
C652 C202 1.905 . S
C663 C74 1.906 . S
C668 C180 1.899 . S
C679 C92 1.896 . S
C684 C334 1.912 . S
C695 C118 1.903 . S
C700 C312 1.902 . S
C711 C294 1.896 . S
C716 C136 1.911 . S
C727 C158 1.899 . S
C732 C268 1.912 . S
C743 C9 1.313 . S
C748 C336 1.317 . S
C759 C31 1.230 . S
C764 C314 1.290 . S
C775 C53 1.220 . S
C780 C293 1.323 . S
C791 C71 1.312 . S
C796 C270 1.325 . S
C807 C251 1.306 . S
C812 C95 1.307 . S
C823 C225 1.309 . S
C828 C116 1.309 . S
C839 C203 1.303 . S
C844 C139 1.217 . S
C855 C161 1.236 . S
C860 C181 1.328 . S
C871 C160 1.338 . S
C876 C185 1.279 . S
C887 C138 1.313 . S
C892 C207 1.311 . S
C903 C117 1.335 . S
C908 C229 1.256 . S
C919 C247 1.308 . S
C924 C94 1.308 . S
C935 C271 1.232 . S
C940 C75 1.325 . S
C951 C49 1.322 . S
C956 C292 1.221 . S
C967 C315 1.282 . S
C972 C27 1.338 . S
C983 C5 1.299 . S
C988 C337 1.298 . S
C999 C8 1.472 . S
C1004 C30 1.409 . S
C1015 C70 1.466 . S
C1020 C52 1.452 . S
C1031 C96 1.454 . S
C1036 C114 1.411 . S
C1047 C162 1.422 . S
C1052 C140 1.479 . S
C1063 C206 1.470 . S
C1068 C184 1.446 . S
C1079 C228 1.434 . S
C1084 C246 1.476 . S
C1095 C290 1.410 . S
C1100 C272 1.474 . S
C1111 C338 1.423 . S
C1116 C316 1.435 . S
