# Generated by pormake.
# Topology ict, (4)-cn, num edge types: 1
# Building blocks:
#     Node 0, Type 0, BuildingBlock: QUQFOY_clean_sbu_1, # of connection points: 4
#     Node 1, Type 0, BuildingBlock: QUQFOY_clean_sbu_1, # of connection points: 4
#     Node 2, Type 0, BuildingBlock: QUQFOY_clean_sbu_1, # of connection points: 4
#     Node 3, Type 0, BuildingBlock: QUQFOY_clean_sbu_1, # of connection points: 4
#     Node 4, Type 0, BuildingBlock: QUQFOY_clean_sbu_1, # of connection points: 4
#     Node 5, Type 0, BuildingBlock: QUQFOY_clean_sbu_1, # of connection points: 4
#     Node 6, Type 0, BuildingBlock: QUQFOY_clean_sbu_1, # of connection points: 4
#     Node 7, Type 0, BuildingBlock: QUQFOY_clean_sbu_1, # of connection points: 4
#     Node 8, Type 0, BuildingBlock: QUQFOY_clean_sbu_1, # of connection points: 4
#     Node 9, Type 0, BuildingBlock: QUQFOY_clean_sbu_1, # of connection points: 4
#     Node 10, Type 0, BuildingBlock: QUQFOY_clean_sbu_1, # of connection points: 4
#     Node 11, Type 0, BuildingBlock: QUQFOY_clean_sbu_1, # of connection points: 4
#     Node 12, Type 0, BuildingBlock: QUQFOY_clean_sbu_1, # of connection points: 4
#     Node 13, Type 0, BuildingBlock: QUQFOY_clean_sbu_1, # of connection points: 4
#     Node 14, Type 0, BuildingBlock: QUQFOY_clean_sbu_1, # of connection points: 4
#     Node 15, Type 0, BuildingBlock: QUQFOY_clean_sbu_1, # of connection points: 4
#     Node 16, Type 0, BuildingBlock: QUQFOY_clean_sbu_1, # of connection points: 4
#     Node 17, Type 0, BuildingBlock: QUQFOY_clean_sbu_1, # of connection points: 4
#     Node 18, Type 0, BuildingBlock: QUQFOY_clean_sbu_1, # of connection points: 4
#     Node 19, Type 0, BuildingBlock: QUQFOY_clean_sbu_1, # of connection points: 4
#     Node 20, Type 0, BuildingBlock: QUQFOY_clean_sbu_1, # of connection points: 4
#     Node 21, Type 0, BuildingBlock: QUQFOY_clean_sbu_1, # of connection points: 4
#     Node 22, Type 0, BuildingBlock: QUQFOY_clean_sbu_1, # of connection points: 4
#     Node 23, Type 0, BuildingBlock: QUQFOY_clean_sbu_1, # of connection points: 4
#     Node 24, Type 0, BuildingBlock: QUQFOY_clean_sbu_1, # of connection points: 4
#     Node 25, Type 0, BuildingBlock: QUQFOY_clean_sbu_1, # of connection points: 4
#     Node 26, Type 0, BuildingBlock: QUQFOY_clean_sbu_1, # of connection points: 4
#     Node 27, Type 0, BuildingBlock: QUQFOY_clean_sbu_1, # of connection points: 4
#     Node 28, Type 0, BuildingBlock: QUQFOY_clean_sbu_1, # of connection points: 4
#     Node 29, Type 0, BuildingBlock: QUQFOY_clean_sbu_1, # of connection points: 4
#     Node 30, Type 0, BuildingBlock: QUQFOY_clean_sbu_1, # of connection points: 4
#     Node 31, Type 0, BuildingBlock: QUQFOY_clean_sbu_1, # of connection points: 4
#     Node 32, Type 0, BuildingBlock: QUQFOY_clean_sbu_1, # of connection points: 4
#     Node 33, Type 0, BuildingBlock: QUQFOY_clean_sbu_1, # of connection points: 4
#     Node 34, Type 0, BuildingBlock: QUQFOY_clean_sbu_1, # of connection points: 4
#     Node 35, Type 0, BuildingBlock: QUQFOY_clean_sbu_1, # of connection points: 4
#     Edge 36, Type (0, 0), BuildingBlock: XUDNAN_clean_linker_2, # of connection points: 2
#     Edge 37, Type (0, 0), BuildingBlock: XUDNAN_clean_linker_2, # of connection points: 2
#     Edge 38, Type (0, 0), BuildingBlock: XUDNAN_clean_linker_2, # of connection points: 2
#     Edge 39, Type (0, 0), BuildingBlock: XUDNAN_clean_linker_2, # of connection points: 2
#     Edge 40, Type (0, 0), BuildingBlock: XUDNAN_clean_linker_2, # of connection points: 2
#     Edge 41, Type (0, 0), BuildingBlock: XUDNAN_clean_linker_2, # of connection points: 2
#     Edge 42, Type (0, 0), BuildingBlock: XUDNAN_clean_linker_2, # of connection points: 2
#     Edge 43, Type (0, 0), BuildingBlock: XUDNAN_clean_linker_2, # of connection points: 2
#     Edge 44, Type (0, 0), BuildingBlock: XUDNAN_clean_linker_2, # of connection points: 2
#     Edge 45, Type (0, 0), BuildingBlock: XUDNAN_clean_linker_2, # of connection points: 2
#     Edge 46, Type (0, 0), BuildingBlock: XUDNAN_clean_linker_2, # of connection points: 2
#     Edge 47, Type (0, 0), BuildingBlock: XUDNAN_clean_linker_2, # of connection points: 2
#     Edge 48, Type (0, 0), BuildingBlock: XUDNAN_clean_linker_2, # of connection points: 2
#     Edge 49, Type (0, 0), BuildingBlock: XUDNAN_clean_linker_2, # of connection points: 2
#     Edge 50, Type (0, 0), BuildingBlock: XUDNAN_clean_linker_2, # of connection points: 2
#     Edge 51, Type (0, 0), BuildingBlock: XUDNAN_clean_linker_2, # of connection points: 2
#     Edge 52, Type (0, 0), BuildingBlock: XUDNAN_clean_linker_2, # of connection points: 2
#     Edge 53, Type (0, 0), BuildingBlock: XUDNAN_clean_linker_2, # of connection points: 2
#     Edge 54, Type (0, 0), BuildingBlock: XUDNAN_clean_linker_2, # of connection points: 2
#     Edge 55, Type (0, 0), BuildingBlock: XUDNAN_clean_linker_2, # of connection points: 2
#     Edge 56, Type (0, 0), BuildingBlock: XUDNAN_clean_linker_2, # of connection points: 2
#     Edge 57, Type (0, 0), BuildingBlock: XUDNAN_clean_linker_2, # of connection points: 2
#     Edge 58, Type (0, 0), BuildingBlock: XUDNAN_clean_linker_2, # of connection points: 2
#     Edge 59, Type (0, 0), BuildingBlock: XUDNAN_clean_linker_2, # of connection points: 2
#     Edge 60, Type (0, 0), BuildingBlock: XUDNAN_clean_linker_2, # of connection points: 2
#     Edge 61, Type (0, 0), BuildingBlock: XUDNAN_clean_linker_2, # of connection points: 2
#     Edge 62, Type (0, 0), BuildingBlock: XUDNAN_clean_linker_2, # of connection points: 2
#     Edge 63, Type (0, 0), BuildingBlock: XUDNAN_clean_linker_2, # of connection points: 2
#     Edge 64, Type (0, 0), BuildingBlock: XUDNAN_clean_linker_2, # of connection points: 2
#     Edge 65, Type (0, 0), BuildingBlock: XUDNAN_clean_linker_2, # of connection points: 2
#     Edge 66, Type (0, 0), BuildingBlock: XUDNAN_clean_linker_2, # of connection points: 2
#     Edge 67, Type (0, 0), BuildingBlock: XUDNAN_clean_linker_2, # of connection points: 2
#     Edge 68, Type (0, 0), BuildingBlock: XUDNAN_clean_linker_2, # of connection points: 2
#     Edge 69, Type (0, 0), BuildingBlock: XUDNAN_clean_linker_2, # of connection points: 2
#     Edge 70, Type (0, 0), BuildingBlock: XUDNAN_clean_linker_2, # of connection points: 2
#     Edge 71, Type (0, 0), BuildingBlock: XUDNAN_clean_linker_2, # of connection points: 2
#     Edge 72, Type (0, 0), BuildingBlock: XUDNAN_clean_linker_2, # of connection points: 2
#     Edge 73, Type (0, 0), BuildingBlock: XUDNAN_clean_linker_2, # of connection points: 2
#     Edge 74, Type (0, 0), BuildingBlock: XUDNAN_clean_linker_2, # of connection points: 2
#     Edge 75, Type (0, 0), BuildingBlock: XUDNAN_clean_linker_2, # of connection points: 2
#     Edge 76, Type (0, 0), BuildingBlock: XUDNAN_clean_linker_2, # of connection points: 2
#     Edge 77, Type (0, 0), BuildingBlock: XUDNAN_clean_linker_2, # of connection points: 2
#     Edge 78, Type (0, 0), BuildingBlock: XUDNAN_clean_linker_2, # of connection points: 2
#     Edge 79, Type (0, 0), BuildingBlock: XUDNAN_clean_linker_2, # of connection points: 2
#     Edge 80, Type (0, 0), BuildingBlock: XUDNAN_clean_linker_2, # of connection points: 2
#     Edge 81, Type (0, 0), BuildingBlock: XUDNAN_clean_linker_2, # of connection points: 2
#     Edge 82, Type (0, 0), BuildingBlock: XUDNAN_clean_linker_2, # of connection points: 2
#     Edge 83, Type (0, 0), BuildingBlock: XUDNAN_clean_linker_2, # of connection points: 2
#     Edge 84, Type (0, 0), BuildingBlock: XUDNAN_clean_linker_2, # of connection points: 2
#     Edge 85, Type (0, 0), BuildingBlock: XUDNAN_clean_linker_2, # of connection points: 2
#     Edge 86, Type (0, 0), BuildingBlock: XUDNAN_clean_linker_2, # of connection points: 2
#     Edge 87, Type (0, 0), BuildingBlock: XUDNAN_clean_linker_2, # of connection points: 2
#     Edge 88, Type (0, 0), BuildingBlock: XUDNAN_clean_linker_2, # of connection points: 2
#     Edge 89, Type (0, 0), BuildingBlock: XUDNAN_clean_linker_2, # of connection points: 2
#     Edge 90, Type (0, 0), BuildingBlock: XUDNAN_clean_linker_2, # of connection points: 2
#     Edge 91, Type (0, 0), BuildingBlock: XUDNAN_clean_linker_2, # of connection points: 2
#     Edge 92, Type (0, 0), BuildingBlock: XUDNAN_clean_linker_2, # of connection points: 2
#     Edge 93, Type (0, 0), BuildingBlock: XUDNAN_clean_linker_2, # of connection points: 2
#     Edge 94, Type (0, 0), BuildingBlock: XUDNAN_clean_linker_2, # of connection points: 2
#     Edge 95, Type (0, 0), BuildingBlock: XUDNAN_clean_linker_2, # of connection points: 2
#     Edge 96, Type (0, 0), BuildingBlock: XUDNAN_clean_linker_2, # of connection points: 2
#     Edge 97, Type (0, 0), BuildingBlock: XUDNAN_clean_linker_2, # of connection points: 2
#     Edge 98, Type (0, 0), BuildingBlock: XUDNAN_clean_linker_2, # of connection points: 2
#     Edge 99, Type (0, 0), BuildingBlock: XUDNAN_clean_linker_2, # of connection points: 2
#     Edge 100, Type (0, 0), BuildingBlock: XUDNAN_clean_linker_2, # of connection points: 2
#     Edge 101, Type (0, 0), BuildingBlock: XUDNAN_clean_linker_2, # of connection points: 2
#     Edge 102, Type (0, 0), BuildingBlock: XUDNAN_clean_linker_2, # of connection points: 2
#     Edge 103, Type (0, 0), BuildingBlock: XUDNAN_clean_linker_2, # of connection points: 2
#     Edge 104, Type (0, 0), BuildingBlock: XUDNAN_clean_linker_2, # of connection points: 2
#     Edge 105, Type (0, 0), BuildingBlock: XUDNAN_clean_linker_2, # of connection points: 2
#     Edge 106, Type (0, 0), BuildingBlock: XUDNAN_clean_linker_2, # of connection points: 2
#     Edge 107, Type (0, 0), BuildingBlock: XUDNAN_clean_linker_2, # of connection points: 2
# Relax obj value: 0.126
# Max RMSD: 0.188
# Mean RMSD: 0.188
data_MOF--net-ict--node1-QUQFOY_clean_sbu_1--edge1-XUDNAN_clean_linker_2
_symmetry_space_group_name_H-M    P1
_symmetry_Int_Tables_number       1
_symmetry_cell_setting            triclinic
loop_
_symmetry_equiv_pos_as_xyz
'x, y, z'
_cell_length_a     70.776744
_cell_length_b     70.749746
_cell_length_c     36.21772
_cell_angle_alpha  90.011369
_cell_angle_beta   90.0324
_cell_angle_gamma 120.0199
loop_
_atom_site_label
_atom_site_type_symbol
_atom_site_fract_x
_atom_site_fract_y
_atom_site_fract_z
_atom_type_partial_charge
O0 O 0.24467 0.17132 0.05577 0.0
Cd1 Cd 0.25145 0.20346 0.0559 0.0
Cd2 Cd 0.2071 0.1825 0.05718 0.0
O3 O 0.20951 0.15552 0.04307 0.0
O4 O 0.28359 0.22123 0.04818 0.0
O5 O 0.25962 0.21975 0.00738 0.0
C6 C 0.27971 0.22715 0.01681 0.0
C7 C 0.1861 0.19357 0.0239 0.0
C8 C 0.2267 0.15432 0.04761 0.0
C9 C 0.23008 0.20817 0.12382 0.0
O10 O 0.21236 0.1924 0.11161 0.0
O11 O 0.24718 0.21653 0.10405 0.0
O12 O 0.17717 0.17667 0.04515 0.0
O13 O 0.20708 0.20361 0.02012 0.0
O14 O 0.82802 0.07687 0.0461 0.0
Cd15 Cd 0.79646 0.05071 0.05077 0.0
Cd16 Cd 0.81598 0.0283 0.03244 0.0
O17 O 0.84136 0.05855 0.0176 0.0
O18 O 0.77571 0.06179 0.04408 0.0
O19 O 0.77929 0.0403 0.00354 0.0
C20 C 0.77034 0.05167 0.01283 0.0
C21 C 0.80535 0.99693 0.99707 0.0
C22 C 0.84366 0.07653 0.02937 0.0
C23 C 0.79871 0.02328 0.10986 0.0
O24 O 0.81181 0.02162 0.08796 0.0
O25 O 0.78836 0.0327 0.09931 0.0
O26 O 0.82381 0.00654 0.01412 0.0
O27 O 0.79342 0.006 0.99807 0.0
O28 O 0.92708 0.75955 0.0564 0.0
Cd29 Cd 0.95225 0.75282 0.06194 0.0
Cd30 Cd 0.976 0.79446 0.04171 0.0
O31 O 0.94617 0.79016 0.02521 0.0
O32 O 0.94178 0.7219 0.04671 0.0
O33 O 0.96539 0.75078 0.01453 0.0
C34 C 0.95345 0.72981 0.01726 0.0
C35 C 0.00813 0.81486 0.00788 0.0
C36 C 0.92799 0.77527 0.03786 0.0
C37 C 0.97972 0.78217 0.12043 0.0
O38 O 0.98185 0.7967 0.0975 0.0
O39 O 0.96994 0.76218 0.1109 0.0
O40 O 0.99858 0.82402 0.02409 0.0
O41 O 0.9986 0.79383 0.00873 0.0
O42 O 0.17759 0.24072 0.4666 0.0
Cd43 Cd 0.2106 0.25435 0.45542 0.0
Cd44 Cd 0.20026 0.21068 0.45771 0.0
O45 O 0.17167 0.20753 0.47786 0.0
O46 O 0.22402 0.28632 0.46405 0.0
O47 O 0.23128 0.26496 0.49878 0.0
C48 C 0.23423 0.28415 0.49172 0.0
C49 C 0.21301 0.18902 0.4845 0.0
C50 C 0.165 0.22119 0.47715 0.0
C51 C 0.21569 0.23458 0.38546 0.0
O52 O 0.20648 0.21633 0.40208 0.0
O53 O 0.22025 0.25204 0.40255 0.0
O54 O 0.1959 0.18077 0.46388 0.0
O55 O 0.22289 0.20979 0.49063 0.0
O56 O 0.75186 0.93321 0.44789 0.0
Cd57 Cd 0.74272 0.95578 0.43288 0.0
Cd58 Cd 0.78585 0.98601 0.45154 0.0
O59 O 0.77964 0.95823 0.47983 0.0
O60 O 0.7109 0.9431 0.44177 0.0
O61 O 0.73657 0.96977 0.47572 0.0
C62 C 0.71614 0.95607 0.46979 0.0
C63 C 0.81621 0.01772 0.47511 0.0
C64 C 0.76695 0.93833 0.4715 0.0
C65 C 0.77087 0.97997 0.37089 0.0
O66 O 0.78604 0.98583 0.39456 0.0
O67 O 0.75101 0.96949 0.3808 0.0
O68 O 0.81792 0.00238 0.45945 0.0
O69 O 0.79694 0.01525 0.47795 0.0
O70 O 0.07243 0.83419 0.46139 0.0
Cd71 Cd 0.05042 0.80251 0.44448 0.0
Cd72 Cd 0.01906 0.81506 0.45954 0.0
O73 O 0.04647 0.8388 0.48576 0.0
O74 O 0.06336 0.7835 0.45223 0.0
O75 O 0.03552 0.7806 0.48497 0.0
C76 C 0.04935 0.77413 0.47843 0.0
C77 C 0.98653 0.81233 0.48176 0.0
C78 C 0.06659 0.84539 0.48075 0.0
C79 C 0.02627 0.80524 0.38018 0.0
O80 O 0.01897 0.81373 0.4028 0.0
O81 O 0.03806 0.79752 0.39127 0.0
O82 O 1.00117 0.82935 0.465 0.0
O83 O 0.99026 0.79644 0.48669 0.0
O84 O 0.75318 0.8299 0.94266 0.0
Cd85 Cd 0.74715 0.79806 0.94457 0.0
Cd86 Cd 0.7906 0.8182 0.93968 0.0
O87 O 0.78883 0.84594 0.95038 0.0
O88 O 0.71809 0.77976 0.96807 0.0
O89 O 0.74921 0.78619 0.99357 0.0
C90 C 0.72823 0.77717 0.99548 0.0
C91 C 0.81362 0.80944 0.9723 0.0
C92 C 0.77153 0.84713 0.94758 0.0
C93 C 0.76459 0.79004 0.87597 0.0
O94 O 0.78292 0.80531 0.88725 0.0
O95 O 0.74776 0.78302 0.89618 0.0
O96 O 0.82123 0.8249 0.94811 0.0
O97 O 0.79296 0.79964 0.97925 0.0
O98 O 0.17709 0.92539 0.95979 0.0
Cd99 Cd 0.20934 0.95036 0.9597 0.0
Cd100 Cd 0.19014 0.97515 0.95614 0.0
O101 O 0.16208 0.94597 0.96685 0.0
O102 O 0.22694 0.9374 0.97792 0.0
O103 O 0.22414 0.96307 0.00818 0.0
C104 C 0.23183 0.94993 0.00641 0.0
C105 C 0.19837 0.00697 0.98831 0.0
C106 C 0.16026 0.9272 0.9646 0.0
C107 C 0.21669 0.97594 0.89079 0.0
O108 O 0.20253 0.98028 0.90335 0.0
O109 O 0.2231 0.96526 0.91016 0.0
O110 O 0.18294 0.99873 0.9641 0.0
O111 O 0.20861 0.99655 0.99547 0.0
O112 O 0.07693 0.25093 0.9524 0.0
Cd113 Cd 0.05248 0.25907 0.95099 0.0
Cd114 Cd 0.02725 0.2147 0.94991 0.0
O115 O 0.05596 0.21588 0.96472 0.0
O116 O 0.06724 0.29103 0.96072 0.0
O117 O 0.04348 0.26638 -0.00058 0.0
C118 C 0.05668 0.28661 0.99139 0.0
C119 C 0.99433 0.19213 0.97995 0.0
C120 C 0.07485 0.2325 0.96079 0.0
C121 C 0.02634 0.23862 0.88284 0.0
O122 O 0.02332 0.22062 0.89563 0.0
O123 O 0.03592 0.25588 0.90218 0.0
O124 O 0.00314 0.18428 0.95827 0.0
O125 O 0.00489 0.21291 0.98625 0.0
O126 O 0.82448 0.76029 0.54189 0.0
Cd127 Cd 0.791 0.74552 0.54848 0.0
Cd128 Cd 0.80057 0.79021 0.5494 0.0
O129 O 0.82989 0.79353 0.5329 0.0
O130 O 0.77776 0.71521 0.52938 0.0
O131 O 0.77307 0.74089 0.50303 0.0
C132 C 0.76949 0.72108 0.50305 0.0
C133 C 0.79615 0.82046 0.53661 0.0
C134 C 0.83709 0.78028 0.53392 0.0
C135 C 0.7813 0.76076 0.61777 0.0
O136 O 0.79002 0.77925 0.60203 0.0
O137 O 0.77859 0.74396 0.60057 0.0
O138 O 0.81047 0.82141 0.55944 0.0
O139 O 0.78447 0.80229 0.51934 0.0
O140 O 0.25965 0.07163 0.55904 0.0
Cd141 Cd 0.26343 0.0445 0.56165 0.0
Cd142 Cd 0.21917 0.02309 0.56558 0.0
O143 O 0.22428 0.0531 0.54804 0.0
O144 O 0.29202 0.05281 0.53876 0.0
O145 O 0.26027 0.02854 0.51432 0.0
C146 C 0.28133 0.03967 0.51208 0.0
C147 C 0.18728 0.9915 0.54653 0.0
C148 C 0.24203 0.07122 0.5505 0.0
C149 C 0.24506 0.02291 0.63235 0.0
O150 O 0.22727 0.02033 0.61925 0.0
O151 O 0.26207 0.03084 0.61243 0.0
O152 O 0.18685 0.00549 0.56867 0.0
O153 O 0.20599 0.99583 0.53347 0.0
O154 O 0.93328 0.17675 0.54537 0.0
Cd155 Cd 0.95537 0.20967 0.55331 0.0
Cd156 Cd 0.98671 0.19588 0.55668 0.0
O157 O 0.959 0.16799 0.54025 0.0
O158 O 0.94356 0.22718 0.53043 0.0
O159 O 0.9727 0.22665 0.50932 0.0
C160 C 0.95895 0.23355 0.50622 0.0
C161 C 0.01913 0.19656 0.53978 0.0
C162 C 0.939 0.16265 0.53902 0.0
C163 C 0.97918 0.21713 0.62432 0.0
O164 O 0.9879 0.20712 0.60942 0.0
O165 O 0.96612 0.22102 0.60623 0.0
O166 O 0.00579 0.18298 0.56351 0.0
O167 O 0.0142 0.21013 0.52502 0.0
O168 O 0.92165 0.51093 0.3921 0.0
Cd169 Cd 0.9253 0.54198 0.39243 0.0
Cd170 Cd 0.87961 0.51746 0.39501 0.0
O171 O 0.88607 0.49279 0.38273 0.0
O172 O 0.95642 0.56254 0.37994 0.0
O173 O 0.92906 0.55699 0.34333 0.0
C174 C 0.94981 0.56676 0.34953 0.0
C175 C 0.84877 0.51606 0.3684 0.0
C176 C 0.90412 0.4931 0.3856 0.0
C177 C 0.90321 0.54593 0.46023 0.0
O178 O 0.88575 0.52993 0.44779 0.0
O179 O 0.92057 0.55441 0.44111 0.0
O180 O 0.8472 0.50205 0.39264 0.0
O181 O 0.86807 0.5308 0.35814 0.0
O182 O 0.48594 0.39593 0.36842 0.0
Cd183 Cd 0.45279 0.37706 0.37959 0.0
Cd184 Cd 0.46345 0.34116 0.37934 0.0
O185 O 0.49061 0.36777 0.35793 0.0
O186 O 0.43933 0.39536 0.36918 0.0
O187 O 0.43245 0.3663 0.3359 0.0
C188 C 0.42929 0.38251 0.34187 0.0
C189 C 0.46213 0.30816 0.36416 0.0
C190 C 0.49781 0.38821 0.35758 0.0
C191 C 0.44548 0.35112 0.44912 0.0
O192 O 0.4543 0.34152 0.43313 0.0
O193 O 0.44223 0.36493 0.43211 0.0
O194 O 0.4765 0.32221 0.38619 0.0
O195 O 0.44802 0.31262 0.3503 0.0
O196 O 0.60708 0.0969 0.37178 0.0
Cd197 Cd 0.62774 0.08511 0.3855 0.0
Cd198 Cd 0.65955 0.1262 0.36787 0.0
O199 O 0.63308 0.12597 0.34378 0.0
O200 O 0.61388 0.05386 0.37034 0.0
O201 O 0.64258 0.08078 0.34217 0.0
C202 C 0.62775 0.06035 0.34346 0.0
C203 C 0.69397 0.14832 0.34103 0.0
C204 C 0.61302 0.11362 0.3515 0.0
C205 C 0.65403 0.11107 0.44805 0.0
O206 O 0.66114 0.12643 0.42456 0.0
O207 O 0.64139 0.09145 0.43801 0.0
O208 O 0.68352 0.15646 0.35731 0.0
O209 O 0.68451 0.12733 0.33858 0.0
O210 O 0.83689 0.57546 0.79569 0.0
Cd211 Cd 0.87035 0.59017 0.78656 0.0
Cd212 Cd 0.86126 0.54692 0.78692 0.0
O213 O 0.83167 0.54231 0.80459 0.0
O214 O 0.88385 0.62179 0.7987 0.0
O215 O 0.89017 0.59895 0.83107 0.0
C216 C 0.89362 0.61849 0.82586 0.0
C217 C 0.87361 0.5243 0.81106 0.0
C218 C 0.82439 0.55549 0.80411 0.0
C219 C 0.87801 0.57251 0.71634 0.0
O220 O 0.86894 0.55406 0.73221 0.0
O221 O 0.88153 0.58954 0.73384 0.0
O222 O 0.85693 0.5169 0.78956 0.0
O223 O 0.88305 0.54467 0.82016 0.0
O224 O 0.42896 0.26445 0.78402 0.0
Cd225 Cd 0.41515 0.28429 0.77955 0.0
Cd226 Cd 0.45758 0.31705 0.77789 0.0
O227 O 0.4626 0.29169 0.79142 0.0
O228 O 0.38513 0.26838 0.80057 0.0
O229 O 0.41229 0.29811 0.82592 0.0
C230 C 0.39214 0.28261 0.82688 0.0
C231 C 0.47937 0.35076 0.80681 0.0
C232 C 0.44904 0.27132 0.79045 0.0
C233 C 0.43018 0.31013 0.71009 0.0
O234 O 0.44912 0.31897 0.72426 0.0
O235 O 0.4136 0.29652 0.72842 0.0
O236 O 0.48719 0.3432 0.7826 0.0
O237 O 0.459 0.33891 0.81536 0.0
O238 O 0.73599 0.1648 0.79076 0.0
Cd239 Cd 0.7159 0.13194 0.7781 0.0
Cd240 Cd 0.68372 0.14074 0.7906 0.0
O241 O 0.7091 0.16832 0.81381 0.0
O242 O 0.72965 0.11481 0.79546 0.0
O243 O 0.70008 0.11255 0.82086 0.0
C244 C 0.71489 0.10694 0.82094 0.0
C245 C 0.64867 0.12707 0.81572 0.0
C246 C 0.72935 0.17617 0.80765 0.0
C247 C 0.69136 0.13082 0.71227 0.0
O248 O 0.6834 0.13912 0.73396 0.0
O249 O 0.7038 0.12411 0.72457 0.0
O250 O 0.65868 0.14562 0.79921 0.0
O251 O 0.65886 0.11631 0.81931 0.0
O252 O 0.42154 0.15104 0.28455 0.0
Cd253 Cd 0.40973 0.11853 0.27158 0.0
Cd254 Cd 0.45684 0.13323 0.26734 0.0
O255 O 0.45604 0.15958 0.28977 0.0
O256 O 0.37811 0.10271 0.28374 0.0
O257 O 0.40242 0.09745 0.31368 0.0
C258 C 0.38243 0.09282 0.3094 0.0
C259 C 0.489 0.13254 0.2812 0.0
C260 C 0.44122 0.16462 0.29295 0.0
C261 C 0.42768 0.11411 0.19914 0.0
O262 O 0.44651 0.12374 0.21381 0.0
O263 O 0.41081 0.10967 0.21785 0.0
O264 O 0.48884 0.14682 0.25951 0.0
O265 O 0.47068 0.11835 0.29573 0.0
O266 O 0.85835 0.26795 0.27261 0.0
Cd267 Cd 0.88942 0.29456 0.26789 0.0
Cd268 Cd 0.86955 0.31649 0.28936 0.0
O269 O 0.84443 0.28547 0.3021 0.0
O270 O 0.91073 0.28431 0.27496 0.0
O271 O 0.9061 0.30531 0.31523 0.0
C272 C 0.91549 0.29427 0.30639 0.0
C273 C 0.87857 0.34692 0.3266 0.0
C274 C 0.84258 0.26776 0.28979 0.0
C275 C 0.88724 0.32324 0.21145 0.0
O276 O 0.87462 0.3249 0.23448 0.0
O277 O 0.89698 0.31289 0.22007 0.0
O278 O 0.8604 0.33708 0.30877 0.0
O279 O 0.89111 0.33852 0.32542 0.0
O280 O 0.73622 0.5624 0.29555 0.0
Cd281 Cd 0.71703 0.57633 0.28503 0.0
Cd282 Cd 0.68257 0.53042 0.27971 0.0
O283 O 0.70908 0.52828 0.29773 0.0
O284 O 0.73488 0.60799 0.29633 0.0
O285 O 0.70519 0.58538 0.32786 0.0
C286 C 0.72119 0.60492 0.32227 0.0
C287 C 0.6484 0.50054 0.29567 0.0
C288 C 0.72926 0.54221 0.30099 0.0
C289 C 0.69287 0.56027 0.21309 0.0
O290 O 0.68273 0.54126 0.22693 0.0
O291 O 0.70656 0.57645 0.23204 0.0
O292 O 0.66133 0.49887 0.27275 0.0
O293 O 0.65491 0.51939 0.31051 0.0
O294 O 0.48106 0.07762 0.86618 0.0
Cd295 Cd 0.45005 0.07386 0.86748 0.0
Cd296 Cd 0.47419 0.1195 0.8704 0.0
O297 O 0.49873 0.11318 0.85654 0.0
O298 O 0.4296 0.04257 0.85615 0.0
O299 O 0.43435 0.06945 0.81894 0.0
C300 C 0.42487 0.04879 0.82583 0.0
C301 C 0.47541 0.15058 0.84519 0.0
C302 C 0.49868 0.09524 0.8592 0.0
C303 C 0.44698 0.09551 0.93635 0.0
O304 O 0.46269 0.11312 0.92375 0.0
O305 O 0.43824 0.07829 0.91686 0.0
O306 O 0.48968 0.15195 0.86867 0.0
O307 O 0.46045 0.13136 0.83495 0.0
O308 O 0.92052 0.40551 0.87314 0.0
Cd309 Cd 0.92372 0.37818 0.87961 0.0
Cd310 Cd 0.88022 0.35821 0.8739 0.0
O311 O 0.88704 0.38766 0.85109 0.0
O312 O 0.95327 0.38617 0.8612 0.0
O313 O 0.92264 0.36195 0.83359 0.0
C314 C 0.94374 0.3732 0.8337 0.0
C315 C 0.8487 0.32612 0.85481 0.0
C316 C 0.90428 0.40559 0.85824 0.0
C317 C 0.90103 0.36033 0.94838 0.0
O318 O 0.88496 0.35864 0.93005 0.0
O319 O 0.91887 0.36534 0.93229 0.0
O320 O 0.84776 0.34147 0.87221 0.0
O321 O 0.86778 0.32926 0.84648 0.0
O322 O 0.59532 0.51416 0.88784 0.0
Cd323 Cd 0.62115 0.54598 0.8896 0.0
Cd324 Cd 0.64461 0.5233 0.88468 0.0
O325 O 0.61415 0.499 0.86815 0.0
O326 O 0.60737 0.56443 0.88474 0.0
O327 O 0.62891 0.56292 0.84196 0.0
C328 C 0.61656 0.57043 0.8529 0.0
C329 C 0.67525 0.52349 0.85951 0.0
C330 C 0.59595 0.49772 0.87522 0.0
C331 C 0.64786 0.54798 0.9544 0.0
O332 O 0.64916 0.53246 0.9394 0.0
O333 O 0.63935 0.55751 0.93723 0.0
O334 O 0.66188 0.5082 0.88108 0.0
O335 O 0.67092 0.53862 0.85085 0.0
O336 O 0.57997 0.84334 0.71364 0.0
Cd337 Cd 0.5952 0.87653 0.72272 0.0
Cd338 Cd 0.55141 0.86944 0.73108 0.0
O339 O 0.54699 0.83942 0.71471 0.0
O340 O 0.62372 0.8915 0.69646 0.0
O341 O 0.59528 0.89491 0.68056 0.0
C342 C 0.61517 0.89958 0.67451 0.0
C343 C 0.52002 0.8722 0.72104 0.0
C344 C 0.55943 0.83144 0.7101 0.0
C345 C 0.58476 0.88925 0.79469 0.0
O346 O 0.56618 0.88347 0.78072 0.0
O347 O 0.59913 0.88751 0.77642 0.0
O348 O 0.52082 0.85965 0.7458 0.0
O349 O 0.53725 0.88348 0.70124 0.0
O350 O 0.14789 0.7359 0.70707 0.0
Cd351 Cd 0.11649 0.71001 0.71373 0.0
Cd352 Cd 0.13553 0.68698 0.69575 0.0
O353 O 0.16075 0.71699 0.67901 0.0
O354 O 0.09556 0.71964 0.69825 0.0
O355 O 0.10103 0.69587 0.66689 0.0
C356 C 0.0918 0.70765 0.66919 0.0
C357 C 0.12556 0.6545 0.66391 0.0
C358 C 0.16319 0.73521 0.68981 0.0
C359 C 0.1192 0.6843 0.77422 0.0
O360 O 0.13153 0.68186 0.75162 0.0
O361 O 0.10879 0.69372 0.76395 0.0
O362 O 0.14392 0.66497 0.68108 0.0
O363 O 0.11341 0.66331 0.66252 0.0
O364 O 0.25132 0.41824 0.72855 0.0
Cd365 Cd 0.27868 0.41476 0.72993 0.0
Cd366 Cd 0.30004 0.45728 0.70832 0.0
O367 O 0.26829 0.44996 0.69984 0.0
O368 O 0.27155 0.38518 0.71246 0.0
O369 O 0.29194 0.41566 0.68092 0.0
C370 C 0.28244 0.3946 0.68289 0.0
C371 C 0.32768 0.48472 0.67239 0.0
C372 C 0.25086 0.43404 0.71269 0.0
C373 C 0.30933 0.44523 0.78449 0.0
O374 O 0.31051 0.45943 0.76173 0.0
O375 O 0.29809 0.42504 0.77674 0.0
O376 O 0.3159 0.48872 0.69446 0.0
O377 O 0.32314 0.46473 0.66897 0.0
O378 O 0.50739 0.90618 0.11603 0.0
Cd379 Cd 0.54094 0.92104 0.11198 0.0
Cd380 Cd 0.53444 0.87872 0.1199 0.0
O381 O 0.50263 0.87291 0.11996 0.0
O382 O 0.55479 0.95263 0.12434 0.0
O383 O 0.5588 0.92889 0.15865 0.0
C384 C 0.56329 0.94873 0.15279 0.0
C385 C 0.54157 0.85551 0.15606 0.0
C386 C 0.49479 0.88564 0.11845 0.0
C387 C 0.5582 0.9048 0.05193 0.0
O388 O 0.55247 0.88805 0.07187 0.0
O389 O 0.55412 0.91961 0.0618 0.0
O390 O 0.52977 0.84872 0.12673 0.0
O391 O 0.54894 0.87556 0.1658 0.0
O392 O 0.07783 0.59289 0.10792 0.0
Cd393 Cd 0.07196 0.61848 0.09986 0.0
Cd394 Cd 0.11451 0.64232 0.11428 0.0
O395 O 0.11016 0.61299 0.13352 0.0
O396 O 0.04179 0.60915 0.11712 0.0
O397 O 0.07172 0.63427 0.14534 0.0
C398 C 0.05068 0.62231 0.14468 0.0
C399 C 0.13885 0.67516 0.14375 0.0
C400 C 0.09435 0.59436 0.12458 0.0
C401 C 0.09845 0.64192 0.03627 0.0
O402 O 0.11397 0.64534 0.05793 0.0
O403 O 0.07897 0.63299 0.04819 0.0
O404 O 0.14558 0.66392 0.12587 0.0
O405 O 0.11805 0.66724 0.1465 0.0
O406 O 0.4167 0.49952 0.10773 0.0
Cd407 Cd 0.38916 0.46897 0.10152 0.0
Cd408 Cd 0.36861 0.49137 0.11302 0.0
O409 O 0.39874 0.51414 0.13321 0.0
O410 O 0.39577 0.44636 0.11965 0.0
O411 O 0.37294 0.45458 0.14773 0.0
C412 C 0.38305 0.44359 0.14722 0.0
C413 C 0.33747 0.49038 0.13787 0.0
C414 C 0.4167 0.51542 0.12416 0.0
C415 C 0.36766 0.47332 0.03663 0.0
O416 O 0.36624 0.48727 0.05669 0.0
O417 O 0.37434 0.46116 0.05024 0.0
O418 O 0.35194 0.50689 0.11968 0.0
O419 O 0.341 0.47441 0.1436 0.0
O420 O 0.07833 0.48853 0.60299 0.0
Cd421 Cd 0.07427 0.45751 0.59761 0.0
Cd422 Cd 0.11457 0.47704 0.62362 0.0
O423 O 0.10851 0.50197 0.63607 0.0
O424 O 0.0428 0.43518 0.60306 0.0
O425 O 0.06812 0.44016 0.6442 0.0
C426 C 0.04784 0.43009 0.63434 0.0
C427 C 0.13452 0.46685 0.66196 0.0
C428 C 0.09326 0.50409 0.62169 0.0
C429 C 0.10745 0.46166 0.54454 0.0
O430 O 0.12053 0.47404 0.5692 0.0
O431 O 0.08707 0.45108 0.55092 0.0
O432 O 0.14346 0.48559 0.64587 0.0
O433 O 0.11366 0.45441 0.65872 0.0
O434 O 0.48986 0.59475 0.6287 0.0
Cd435 Cd 0.52318 0.61427 0.62413 0.0
Cd436 Cd 0.51464 0.64875 0.61596 0.0
O437 O 0.48356 0.62213 0.62259 0.0
O438 O 0.53755 0.59918 0.64691 0.0
O439 O 0.54103 0.6301 0.66854 0.0
C440 C 0.54584 0.61474 0.67092 0.0
C441 C 0.5188 0.68185 0.638 0.0
C442 C 0.47658 0.60185 0.62687 0.0
C443 C 0.5379 0.63956 0.55404 0.0
O444 O 0.53105 0.65166 0.56736 0.0
O445 O 0.5359 0.62326 0.57198 0.0
O446 O 0.50681 0.67196 0.60989 0.0
O447 O 0.52876 0.67305 0.65412 0.0
O448 O 0.40066 0.90417 0.62454 0.0
Cd449 Cd 0.3786 0.91275 0.60429 0.0
Cd450 Cd 0.34984 0.87108 0.61815 0.0
O451 O 0.37518 0.87366 0.64982 0.0
O452 O 0.38969 0.94408 0.61581 0.0
O453 O 0.36035 0.91682 0.64193 0.0
C454 C 0.37408 0.93753 0.63967 0.0
C455 C 0.31406 0.85034 0.64011 0.0
C456 C 0.3952 0.88777 0.64537 0.0
C457 C 0.35947 0.88583 0.53875 0.0
O458 O 0.35264 0.87018 0.56164 0.0
O459 O 0.36874 0.90546 0.55 0.0
O460 O 0.32498 0.84134 0.62901 0.0
O461 O 0.32371 0.87139 0.63987 0.0
O462 O 0.17639 0.43801 0.2075 0.0
Cd463 Cd 0.14349 0.42422 0.22047 0.0
Cd464 Cd 0.15117 0.4651 0.21137 0.0
O465 O 0.17978 0.46932 0.18945 0.0
O466 O 0.12706 0.39337 0.20301 0.0
O467 O 0.12335 0.42013 0.17872 0.0
C468 C 0.11825 0.39983 0.1785 0.0
C469 C 0.13565 0.48456 0.18535 0.0
C470 C 0.1878 0.45689 0.19337 0.0
C471 C 0.1408 0.44565 0.28805 0.0
O472 O 0.14855 0.46253 0.26781 0.0
O473 O 0.13536 0.4271 0.27429 0.0
O474 O 0.15374 0.49416 0.20335 0.0
O475 O 0.12645 0.46369 0.18103 0.0
O476 O 0.59144 0.74323 0.23934 0.0
Cd477 Cd 0.59985 0.7193 0.24073 0.0
Cd478 Cd 0.5562 0.69228 0.22865 0.0
O479 O 0.55769 0.72202 0.21972 0.0
O480 O 0.63165 0.73339 0.23107 0.0
O481 O 0.60646 0.70971 0.19271 0.0
C482 C 0.62681 0.7227 0.20039 0.0
C483 C 0.53408 0.66188 0.19206 0.0
C484 C 0.57338 0.74087 0.22808 0.0
C485 C 0.57567 0.68816 0.30049 0.0
O486 O 0.55864 0.6831 0.28174 0.0
O487 O 0.59444 0.70196 0.28866 0.0
O488 O 0.52592 0.66971 0.21512 0.0
O489 O 0.55502 0.6722 0.18796 0.0
O490 O 0.26655 0.83587 0.21443 0.0
Cd491 Cd 0.2942 0.8663 0.21911 0.0
Cd492 Cd 0.31394 0.84276 0.19933 0.0
O493 O 0.28222 0.81993 0.18533 0.0
O494 O 0.28376 0.88772 0.21833 0.0
O495 O 0.3036 0.88504 0.17355 0.0
C496 C 0.29287 0.89395 0.18643 0.0
C497 C 0.3433 0.84585 0.1646 0.0
C498 C 0.26512 0.8195 0.19735 0.0
C499 C 0.32126 0.86146 0.2764 0.0
O500 O 0.32139 0.84745 0.25466 0.0
O501 O 0.31293 0.87289 0.26625 0.0
O502 O 0.33068 0.82849 0.18303 0.0
O503 O 0.33866 0.86133 0.16412 0.0
H504 H 0.3477 0.25661 0.8307 0.0
H505 H 0.404 0.30337 0.89375 0.0
H506 H 0.38035 0.29686 0.94799 0.0
H507 H 0.30819 0.27032 0.87312 0.0
H508 H 0.28642 0.2423 0.8721 0.0
H509 H 0.30741 0.25227 0.83726 0.0
H510 H 0.31567 0.22146 0.85348 0.0
H511 H 0.29481 0.21145 0.88837 0.0
H512 H 0.3223 0.21858 0.90045 0.0
H513 H 0.35175 0.28146 0.99732 0.0
H514 H 0.31962 0.26015 0.03725 0.0
H515 H 0.28127 0.2252 0.94146 0.0
C516 C 0.35499 0.26577 0.85572 0.0
C517 C 0.3777 0.28049 0.85805 0.0
C518 C 0.38664 0.29211 0.8913 0.0
C519 C 0.37333 0.28851 0.92224 0.0
C520 C 0.35108 0.27356 0.91925 0.0
C521 C 0.3419 0.26262 0.88667 0.0
C522 C 0.31771 0.24668 0.89122 0.0
C523 C 0.30413 0.2533 0.86699 0.0
C524 C 0.31232 0.22316 0.8829 0.0
C525 C 0.31487 0.24975 0.93182 0.0
C526 C 0.33432 0.26538 0.94744 0.0
C527 C 0.33632 0.26959 0.98525 0.0
C528 C 0.31803 0.25738 0.00771 0.0
C529 C 0.29797 0.24137 0.99225 0.0
C530 C 0.29628 0.23781 0.95376 0.0
H531 H 0.74125 0.0888 0.82517 0.0
H532 H 0.69192 0.09534 0.88569 0.0
H533 H 0.69782 0.0777 0.93978 0.0
H534 H 0.72855 0.03515 0.86677 0.0
H535 H 0.75692 0.04265 0.8673 0.0
H536 H 0.7468 0.05317 0.83183 0.0
H537 H 0.77613 0.09263 0.84954 0.0
H538 H 0.78625 0.08227 0.88509 0.0
H539 H 0.77773 0.10168 0.89657 0.0
H540 H 0.71338 0.06524 0.99012 0.0
H541 H 0.73542 0.05601 0.03148 0.0
H542 H 0.77286 0.05502 0.93763 0.0
C543 C 0.73129 0.08602 0.84948 0.0
C544 C 0.7161 0.09344 0.85116 0.0
C545 C 0.70355 0.08968 0.88362 0.0
C546 C 0.7068 0.07968 0.91453 0.0
C547 C 0.72236 0.07313 0.91234 0.0
C548 C 0.73413 0.07579 0.88041 0.0
C549 C 0.75076 0.0685 0.88597 0.0
C550 C 0.74543 0.04868 0.86152 0.0
C551 C 0.77409 0.0874 0.87888 0.0
C552 C 0.74717 0.06223 0.92644 0.0
C553 C 0.73065 0.06495 0.9411 0.0
C554 C 0.72592 0.06246 0.97876 0.0
C555 C 0.73855 0.05729 0.00205 0.0
C556 C 0.75548 0.05438 0.98757 0.0
C557 C 0.75953 0.05647 0.94919 0.0
H558 H 0.93026 0.68487 0.01429 0.0
H559 H 0.97147 0.74239 0.94867 0.0
H560 H 0.96353 0.71927 0.89346 0.0
H561 H 0.94421 0.64716 0.96323 0.0
H562 H 0.91677 0.62452 0.96751 0.0
H563 H 0.92797 0.6452 0.00292 0.0
H564 H 0.89526 0.65167 0.99522 0.0
H565 H 0.88407 0.63121 0.95964 0.0
H566 H 0.88936 0.65846 0.95029 0.0
H567 H 0.94632 0.69125 0.84402 0.0
H568 H 0.92373 0.65931 0.80433 0.0
H569 H 0.89561 0.61915 0.9015 0.0
C570 C 0.9381 0.69253 0.98852 0.0
C571 C 0.95152 0.71548 0.98587 0.0
C572 C 0.96124 0.72487 0.95151 0.0
C573 C 0.95682 0.71186 0.91993 0.0
C574 C 0.94296 0.68941 0.92321 0.0
C575 C 0.93407 0.67972 0.95674 0.0
C576 C 0.91869 0.65536 0.95221 0.0
C577 C 0.92744 0.64229 0.97268 0.0
C578 C 0.89548 0.64881 0.96509 0.0
C579 C 0.9196 0.65305 0.91071 0.0
C580 C 0.93376 0.67293 0.89457 0.0
C581 C 0.93567 0.67549 0.85636 0.0
C582 C 0.92273 0.65732 0.83405 0.0
C583 C 0.90833 0.6368 0.84997 0.0
C584 C 0.907 0.63456 0.88877 0.0
H585 H 0.26557 0.35023 0.67949 0.0
H586 H 0.29861 0.40931 0.61373 0.0
H587 H 0.29383 0.38714 0.55824 0.0
H588 H 0.28684 0.31889 0.62698 0.0
H589 H 0.26136 0.29366 0.63188 0.0
H590 H 0.27017 0.31427 0.66733 0.0
H591 H 0.23371 0.3143 0.66128 0.0
H592 H 0.22486 0.29385 0.62576 0.0
H593 H 0.2256 0.31928 0.61679 0.0
H594 H 0.27997 0.35879 0.50883 0.0
H595 H 0.26028 0.32605 0.46943 0.0
H596 H 0.23816 0.28512 0.56692 0.0
C597 C 0.27232 0.35854 0.6536 0.0
C598 C 0.28249 0.38153 0.65098 0.0
C599 C 0.29087 0.39175 0.6165 0.0
C600 C 0.28825 0.37928 0.58479 0.0
C601 C 0.27755 0.35663 0.58811 0.0
C602 C 0.27004 0.34634 0.62174 0.0
C603 C 0.25775 0.32172 0.61732 0.0
C604 C 0.26975 0.31154 0.63704 0.0
C605 C 0.23408 0.31171 0.63109 0.0
C606 C 0.25866 0.31979 0.57576 0.0
C607 C 0.27028 0.34015 0.55948 0.0
C608 C 0.27136 0.34274 0.52126 0.0
C609 C 0.26008 0.3241 0.49912 0.0
C610 C 0.24812 0.30314 0.51522 0.0
C611 C 0.24778 0.30094 0.55398 0.0
H612 H 0.6594 0.92142 0.66451 0.0
H613 H 0.59869 0.9066 0.61095 0.0
H614 H 0.61891 0.92408 0.55367 0.0
H615 H 0.69388 0.97516 0.61706 0.0
H616 H 0.71687 0.97083 0.61454 0.0
H617 H 0.69793 0.95962 0.65246 0.0
H618 H 0.69157 0.92107 0.6372 0.0
H619 H 0.71038 0.93212 0.59931 0.0
H620 H 0.68294 0.91016 0.59137 0.0
H621 H 0.64475 0.937 0.4997 0.0
H622 H 0.67474 0.94734 0.4548 0.0
H623 H 0.71911 0.95689 0.54459 0.0
C624 C 0.65044 0.92231 0.64098 0.0
C625 C 0.62749 0.91265 0.6421 0.0
C626 C 0.61629 0.91404 0.61074 0.0
C627 C 0.62765 0.92393 0.57809 0.0
C628 C 0.65023 0.93282 0.57759 0.0
C629 C 0.66156 0.93251 0.60847 0.0
C630 C 0.68563 0.94212 0.60019 0.0
C631 C 0.69939 0.96319 0.62238 0.0
C632 C 0.69305 0.92536 0.60743 0.0
C633 C 0.68593 0.94693 0.55939 0.0
C634 C 0.66535 0.94151 0.54685 0.0
C635 C 0.66106 0.94197 0.50936 0.0
C636 C 0.67813 0.94781 0.48406 0.0
C637 C 0.69927 0.95344 0.49645 0.0
C638 C 0.70328 0.95346 0.53461 0.0
H639 H 0.04399 0.76902 0.55306 0.0
H640 H 0.05809 0.74265 0.45574 0.0
H641 H 0.06424 0.71763 0.495 0.0
H642 H 0.08628 0.77233 0.6044 0.0
H643 H 0.07246 0.76572 0.64832 0.0
H644 H 0.06442 0.77791 0.61265 0.0
H645 H 0.02466 0.74568 0.61653 0.0
H646 H 0.03262 0.73336 0.65235 0.0
H647 H 0.01934 0.7181 0.61123 0.0
H648 H 0.07296 0.69871 0.54459 0.0
H649 H 0.08705 0.68991 0.60034 0.0
H650 H 0.06974 0.73035 0.66594 0.0
C651 C 0.04758 0.75738 0.54007 0.0
C652 C 0.05013 0.75734 0.50143 0.0
C653 C 0.0558 0.74265 0.48531 0.0
C654 C 0.05921 0.72833 0.50737 0.0
C655 C 0.05712 0.72911 0.54554 0.0
C656 C 0.05157 0.74336 0.56182 0.0
C657 C 0.05359 0.74329 0.60349 0.0
C658 C 0.07018 0.76616 0.61804 0.0
C659 C 0.03122 0.73459 0.62199 0.0
C660 C 0.06192 0.72741 0.608 0.0
C661 C 0.06324 0.71895 0.57433 0.0
C662 C 0.07173 0.705 0.57117 0.0
C663 C 0.07969 0.70007 0.60306 0.0
C664 C 0.07948 0.7094 0.63756 0.0
C665 C 0.06992 0.72277 0.64007 0.0
H666 H 0.62415 0.7201 0.12516 0.0
H667 H 0.66892 0.73477 0.21665 0.0
H668 H 0.69932 0.74554 0.17275 0.0
H669 H 0.65178 0.70142 0.05798 0.0
H670 H 0.64658 0.71459 0.0199 0.0
H671 H 0.62772 0.70404 0.05802 0.0
H672 H 0.63159 0.74214 0.06746 0.0
H673 H 0.6505 0.75281 0.02963 0.0
H674 H 0.65833 0.76555 0.07441 0.0
H675 H 0.72535 0.75853 0.11973 0.0
H676 H 0.74538 0.77466 0.06184 0.0
H677 H 0.68395 0.75332 0.00498 0.0
C678 C 0.64023 0.72488 0.13581 0.0
C679 C 0.64422 0.72633 0.17416 0.0
C680 C 0.66557 0.73341 0.18728 0.0
C681 C 0.6829 0.73945 0.16258 0.0
C682 C 0.67859 0.73845 0.12487 0.0
C683 C 0.65778 0.73137 0.1115 0.0
C684 C 0.65799 0.73443 0.07009 0.0
C685 C 0.64526 0.7123 0.05033 0.0
C686 C 0.64909 0.74964 0.05982 0.0
C687 C 0.68222 0.74506 0.06249 0.0
C688 C 0.69376 0.74676 0.0943 0.0
C689 C 0.71647 0.75705 0.09454 0.0
C690 C 0.72772 0.76618 0.06153 0.0
C691 C 0.71623 0.76526 0.02893 0.0
C692 C 0.69318 0.75419 0.02941 0.0
H693 H 0.2917 0.8962 0.11127 0.0
H694 H 0.28432 0.92525 0.21165 0.0
H695 H 0.27243 0.94686 0.17488 0.0
H696 H 0.30834 0.94434 0.04877 0.0
H697 H 0.29247 0.92702 0.01106 0.0
H698 H 0.3045 0.91725 0.04441 0.0
H699 H 0.26643 0.88368 0.05726 0.0
H700 H 0.25428 0.8934 0.02428 0.0
H701 H 0.24431 0.88785 0.07108 0.0
H702 H 0.25724 0.96193 0.12811 0.0
H703 H 0.23866 0.96807 0.07554 0.0
H704 H 0.25424 0.92771 0.00619 0.0
C705 C 0.28836 0.90772 0.12533 0.0
C706 C 0.28926 0.90936 0.1642 0.0
C707 C 0.28394 0.92396 0.18183 0.0
C708 C 0.27724 0.93633 0.16117 0.0
C709 C 0.27581 0.93383 0.12292 0.0
C710 C 0.28126 0.91989 0.10514 0.0
C711 C 0.27573 0.91808 0.06441 0.0
C712 C 0.2965 0.92722 0.04077 0.0
C713 C 0.25921 0.89435 0.05366 0.0
C714 C 0.26566 0.93255 0.06231 0.0
C715 C 0.26628 0.94187 0.09614 0.0
C716 C 0.25692 0.95495 0.10136 0.0
C717 C 0.24638 0.95834 0.07136 0.0
C718 C 0.245 0.94838 0.03678 0.0
C719 C 0.2551 0.93563 0.03222 0.0
H720 H 0.10016 0.35532 0.17568 0.0
H721 H 0.10473 0.41034 0.11496 0.0
H722 H 0.08522 0.38599 0.06259 0.0
H723 H 0.11044 0.33051 0.10304 0.0
H724 H 0.09139 0.30278 0.11623 0.0
H725 H 0.103 0.32379 0.15084 0.0
H726 H 0.06427 0.31409 0.17234 0.0
H727 H 0.05249 0.2929 0.13784 0.0
H728 H 0.04512 0.31387 0.13925 0.0
H729 H 0.07115 0.35736 0.01354 0.0
H730 H 0.06059 0.32554 0.97284 0.0
H731 H 0.06245 0.28822 0.06619 0.0
C732 C 0.0966 0.36215 0.1517 0.0
C733 C 0.10397 0.38474 0.14939 0.0
C734 C 0.09914 0.39308 0.11745 0.0
C735 C 0.08805 0.37937 0.08755 0.0
C736 C 0.08154 0.35728 0.0903 0.0
C737 C 0.08528 0.34862 0.12181 0.0
C738 C 0.07773 0.32459 0.11685 0.0
C739 C 0.09678 0.32017 0.12203 0.0
C740 C 0.05877 0.31053 0.14313 0.0
C741 C 0.07009 0.32133 0.07706 0.0
C742 C 0.07236 0.3404 0.06233 0.0
C743 C 0.0687 0.34217 0.02501 0.0
C744 C 0.06279 0.32408 0.0021 0.0
C745 C 0.0603 0.30442 0.01667 0.0
C746 C 0.06358 0.30289 0.05473 0.0
H747 H 0.72066 0.60781 0.3974 0.0
H748 H 0.72916 0.64415 0.2966 0.0
H749 H 0.73727 0.6769 0.33318 0.0
H750 H 0.69873 0.6357 0.45661 0.0
H751 H 0.71422 0.63575 0.49617 0.0
H752 H 0.70499 0.61412 0.46254 0.0
H753 H 0.74475 0.62238 0.45369 0.0
H754 H 0.75407 0.64398 0.48718 0.0
H755 H 0.76567 0.64964 0.44146 0.0
H756 H 0.74727 0.7063 0.38018 0.0
H757 H 0.76238 0.73127 0.43356 0.0
H758 H 0.75043 0.67661 0.50353 0.0
C759 C 0.72358 0.62252 0.38325 0.0
C760 C 0.7239 0.62352 0.34439 0.0
C761 C 0.72864 0.64316 0.32647 0.0
C762 C 0.73313 0.66175 0.34698 0.0
C763 C 0.73313 0.66046 0.38537 0.0
C764 C 0.72869 0.64141 0.40337 0.0
C765 C 0.73271 0.64518 0.44449 0.0
C766 C 0.71139 0.6319 0.46623 0.0
C767 C 0.75035 0.64 0.45744 0.0
C768 C 0.74067 0.66941 0.44662 0.0
C769 C 0.74021 0.67778 0.41239 0.0
C770 C 0.74754 0.69991 0.4072 0.0
C771 C 0.75606 0.71396 0.43766 0.0
C772 C 0.75759 0.70585 0.47258 0.0
C773 C 0.74941 0.68324 0.47714 0.0
H774 H 0.32526 0.05683 0.50326 0.0
H775 H 0.26361 0.02217 0.44475 0.0
H776 H 0.28349 0.02736 0.38621 0.0
H777 H 0.352 0.09695 0.44068 0.0
H778 H 0.37832 0.09896 0.445 0.0
H779 H 0.35952 0.08897 0.48301 0.0
H780 H 0.36155 0.05341 0.48444 0.0
H781 H 0.38059 0.0634 0.44651 0.0
H782 H 0.35589 0.03731 0.44303 0.0
H783 H 0.30957 0.04284 0.33361 0.0
H784 H 0.34014 0.06483 0.2911 0.0
H785 H 0.38512 0.08756 0.38346 0.0
C786 C 0.31593 0.04972 0.47831 0.0
C787 C 0.2929 0.03908 0.47852 0.0
C788 C 0.28126 0.03023 0.44527 0.0
C789 C 0.29242 0.0331 0.41188 0.0
C790 C 0.31518 0.04444 0.41239 0.0
C791 C 0.32682 0.05223 0.44487 0.0
C792 C 0.35113 0.06553 0.43758 0.0
C793 C 0.36079 0.08898 0.45243 0.0
C794 C 0.36298 0.05423 0.45385 0.0
C795 C 0.35128 0.06508 0.3958 0.0
C796 C 0.33038 0.05265 0.38181 0.0
C797 C 0.32606 0.05203 0.34415 0.0
C798 C 0.34347 0.06464 0.32026 0.0
C799 C 0.36493 0.07748 0.33408 0.0
C800 C 0.36894 0.07728 0.37217 0.0
H801 H 0.91262 0.29317 0.38143 0.0
H802 H 0.94879 0.28662 0.29063 0.0
H803 H 0.96818 0.2754 0.3344 0.0
H804 H 0.95597 0.31031 0.45446 0.0
H805 H 0.93612 0.294 0.48897 0.0
H806 H 0.92864 0.30598 0.45187 0.0
H807 H 0.89662 0.26773 0.43453 0.0
H808 H 0.90406 0.25564 0.47126 0.0
H809 H 0.90214 0.24598 0.42458 0.0
H810 H 0.98031 0.2607 0.38674 0.0
H811 H 0.98261 0.24178 0.44244 0.0
H812 H 0.93674 0.25575 0.49829 0.0
C813 C 0.92524 0.2902 0.37102 0.0
C814 C 0.92957 0.29115 0.33283 0.0
C815 C 0.94549 0.28624 0.3199 0.0
C816 C 0.95661 0.27992 0.34457 0.0
C817 C 0.95147 0.27842 0.38201 0.0
C818 C 0.93613 0.28341 0.39519 0.0
C819 C 0.93138 0.27762 0.43568 0.0
C820 C 0.93846 0.29821 0.45913 0.0
C821 C 0.90712 0.26074 0.44184 0.0
C822 C 0.94583 0.26789 0.44289 0.0
C823 C 0.9577 0.26899 0.41187 0.0
C824 C 0.97131 0.26001 0.41134 0.0
C825 C 0.97251 0.24928 0.4431 0.0
C826 C 0.95985 0.24728 0.47469 0.0
C827 C 0.94668 0.25709 0.47464 0.0
H828 H 0.00632 0.5971 0.15325 0.0
H829 H 0.06503 0.64572 0.20885 0.0
H830 H 0.04391 0.64013 0.26594 0.0
H831 H 0.96721 0.60963 0.20397 0.0
H832 H 0.94652 0.58118 0.20514 0.0
H833 H 0.96536 0.59172 0.16699 0.0
H834 H 0.9764 0.56244 0.17891 0.0
H835 H 0.95782 0.55195 0.21719 0.0
H836 H 0.98625 0.56061 0.22395 0.0
H837 H 0.01842 0.62461 0.31918 0.0
H838 H 0.98956 0.60199 0.36399 0.0
H839 H 0.94667 0.56449 0.27407 0.0
C840 C 0.0146 0.60709 0.17707 0.0
C841 C 0.03734 0.62191 0.17651 0.0
C842 C 0.04762 0.63438 0.20849 0.0
C843 C 0.03574 0.63132 0.24109 0.0
C844 C 0.01352 0.61598 0.24113 0.0
C845 C 0.00294 0.60432 0.20979 0.0
C846 C 0.97938 0.58748 0.21806 0.0
C847 C 0.96369 0.59283 0.19731 0.0
C848 C 0.97471 0.56426 0.209 0.0
C849 C 0.97868 0.59074 0.25928 0.0
C850 C 0.99851 0.60742 0.27196 0.0
C851 C 0.00264 0.61194 0.30949 0.0
C852 C 0.98621 0.59895 0.33473 0.0
C853 C 0.96584 0.58177 0.32237 0.0
C854 C 0.96189 0.57794 0.28413 0.0
H855 H 0.4262 0.37915 0.26674 0.0
H856 H 0.40217 0.39743 0.36237 0.0
H857 H 0.38224 0.4095 0.32153 0.0
H858 H 0.43855 0.42515 0.21686 0.0
H859 H 0.4314 0.41224 0.17214 0.0
H860 H 0.43973 0.40064 0.20838 0.0
H861 H 0.40372 0.36377 0.20112 0.0
H862 H 0.39527 0.3753 0.16468 0.0
H863 H 0.37795 0.36306 0.20428 0.0
H864 H 0.36849 0.42335 0.27092 0.0
H865 H 0.36471 0.441 0.21486 0.0
H866 H 0.39969 0.41601 0.1519 0.0
C867 C 0.41608 0.38497 0.27894 0.0
C868 C 0.41529 0.387 0.31758 0.0
C869 C 0.40271 0.39555 0.33276 0.0
C870 C 0.39126 0.40232 0.3098 0.0
C871 C 0.39278 0.40065 0.2717 0.0
C872 C 0.40498 0.3923 0.25632 0.0
C873 C 0.40654 0.39524 0.21477 0.0
C874 C 0.43047 0.40915 0.20233 0.0
C875 C 0.39519 0.37302 0.19505 0.0
C876 C 0.39405 0.40726 0.20939 0.0
C877 C 0.38572 0.40967 0.24243 0.0
C878 C 0.37468 0.42132 0.2448 0.0
C879 C 0.3726 0.43129 0.21277 0.0
C880 C 0.38189 0.42988 0.17899 0.0
C881 C 0.39226 0.41724 0.17724 0.0
H882 H 0.56326 0.94991 0.22848 0.0
H883 H 0.59602 0.98843 0.13172 0.0
H884 H 0.61987 0.01981 0.17163 0.0
H885 H 0.56063 0.9922 0.27409 0.0
H886 H 0.56438 0.98469 0.31993 0.0
H887 H 0.55245 0.96421 0.28447 0.0
H888 H 0.5821 0.95356 0.29564 0.0
H889 H 0.59419 0.97412 0.3311 0.0
H890 H 0.61052 0.97422 0.29285 0.0
H891 H 0.63859 0.04754 0.22126 0.0
H892 H 0.64775 0.0712 0.27611 0.0
H893 H 0.60092 0.01577 0.34072 0.0
C894 C 0.57585 0.96482 0.21593 0.0
C895 C 0.57817 0.96677 0.17719 0.0
C896 C 0.5942 0.98668 0.16143 0.0
C897 C 0.60788 0.0045 0.18386 0.0
C898 C 0.60507 0.00224 0.22201 0.0
C899 C 0.58927 0.98301 0.23796 0.0
C900 C 0.58782 0.98579 0.27921 0.0
C901 C 0.56497 0.98147 0.29004 0.0
C902 C 0.59403 0.97105 0.30098 0.0
C903 C 0.60492 0.00969 0.28376 0.0
C904 C 0.61505 0.01868 0.25057 0.0
C905 C 0.63087 0.04066 0.24747 0.0
C906 C 0.63602 0.05397 0.27886 0.0
C907 C 0.62509 0.04536 0.31275 0.0
C908 C 0.60968 0.02281 0.31529 0.0
H909 H 0.40044 0.982 0.64137 0.0
H910 H 0.34696 0.92803 0.69911 0.0
H911 H 0.3505 0.9529 0.74974 0.0
H912 H 0.43296 0.00508 0.71537 0.0
H913 H 0.44354 0.0332 0.70244 0.0
H914 H 0.43408 0.01245 0.66743 0.0
H915 H 0.40727 0.02445 0.64303 0.0
H916 H 0.4168 0.04545 0.6779 0.0
H917 H 0.38813 0.02571 0.6743 0.0
H918 H 0.36478 0.98113 0.79902 0.0
H919 H 0.38708 0.01164 0.84154 0.0
H920 H 0.42994 0.04827 0.75126 0.0
C921 C 0.38898 0.97556 0.66406 0.0
C922 C 0.37339 0.95307 0.66624 0.0
C923 C 0.35893 0.94521 0.69668 0.0
C924 C 0.3608 0.95924 0.72559 0.0
C925 C 0.37694 0.98115 0.72332 0.0
C926 C 0.39052 0.9894 0.693 0.0
C927 C 0.40789 0.01305 0.69896 0.0
C928 C 0.43097 0.0161 0.69588 0.0
C929 C 0.40483 0.02805 0.67194 0.0
C930 C 0.40277 0.01643 0.73819 0.0
C931 C 0.38469 0.99788 0.75158 0.0
C932 C 0.37849 0.99599 0.78853 0.0
C933 C 0.39126 0.01332 0.81249 0.0
C934 C 0.40983 0.03237 0.79933 0.0
C935 C 0.41533 0.03416 0.76157 0.0
H936 H 0.04956 0.42784 0.70946 0.0
H937 H 0.00683 0.39782 0.61551 0.0
H938 H 0.97644 0.37496 0.65775 0.0
H939 H 0.0241 0.37917 0.77278 0.0
H940 H 0.02744 0.39607 0.81228 0.0
H941 H 0.04682 0.40669 0.77489 0.0
H942 H 0.03998 0.43925 0.76808 0.0
H943 H 0.02062 0.42875 0.80527 0.0
H944 H 0.01253 0.43394 0.76095 0.0
H945 H 0.9497 0.35895 0.70982 0.0
H946 H 0.92839 0.35299 0.76691 0.0
H947 H 0.98822 0.39453 0.82694 0.0
C948 C 0.034 0.4159 0.6978 0.0
C949 C 0.03059 0.41435 0.65924 0.0
C950 C 0.00981 0.39912 0.64499 0.0
C951 C 0.99249 0.38599 0.66877 0.0
C952 C 0.9962 0.38834 0.70675 0.0
C953 C 0.01646 0.40294 0.72119 0.0
C954 C 0.01547 0.4045 0.7628 0.0
C955 C 0.02928 0.3961 0.7818 0.0
C956 C 0.02256 0.42799 0.77496 0.0
C957 C 0.99135 0.38921 0.76934 0.0
C958 C 0.9806 0.37962 0.73681 0.0
C959 C 0.95799 0.36609 0.73556 0.0
C960 C 0.94601 0.36278 0.76817 0.0
C961 C 0.95662 0.37323 0.80144 0.0
C962 C 0.97964 0.38611 0.80207 0.0
H963 H 0.61094 0.56734 0.77828 0.0
H964 H 0.60917 0.60306 0.87414 0.0
H965 H 0.59508 0.62211 0.83548 0.0
H966 H 0.62334 0.61057 0.70717 0.0
H967 H 0.60525 0.5907 0.67407 0.0
H968 H 0.61933 0.58332 0.70747 0.0
H969 H 0.58231 0.55104 0.7292 0.0
H970 H 0.56812 0.55841 0.69622 0.0
H971 H 0.56113 0.5563 0.74448 0.0
H972 H 0.57769 0.63439 0.78793 0.0
H973 H 0.55644 0.63734 0.73623 0.0
H974 H 0.5671 0.59148 0.67276 0.0
C975 C 0.60835 0.57978 0.79072 0.0
C976 C 0.61152 0.58413 0.82891 0.0
C977 C 0.60708 0.59978 0.84476 0.0
C978 C 0.59915 0.6107 0.82302 0.0
C979 C 0.59552 0.60557 0.78558 0.0
C980 C 0.59993 0.59044 0.76955 0.0
C981 C 0.59192 0.58573 0.73002 0.0
C982 C 0.61111 0.59302 0.70309 0.0
C983 C 0.57486 0.56144 0.7247 0.0
C984 C 0.58171 0.60003 0.7267 0.0
C985 C 0.58441 0.61175 0.75871 0.0
C986 C 0.57566 0.62546 0.7626 0.0
C987 C 0.5636 0.62701 0.73314 0.0
C988 C 0.56007 0.61458 0.70062 0.0
C989 C 0.5695 0.60116 0.69733 0.0
H990 H 0.17744 0.0306 0.98305 0.0
H991 H 0.23453 0.03224 0.03074 0.0
H992 H 0.24748 0.06982 0.05293 0.0
H993 H 0.20369 0.08456 0.95061 0.0
H994 H 0.18158 0.08938 0.96126 0.0
H995 H 0.176 0.06212 0.95145 0.0
H996 H 0.15605 0.04872 0.01417 0.0
H997 H 0.1614 0.07593 0.02404 0.0
H998 H 0.16997 0.06222 0.05615 0.0
H999 H 0.25568 0.10833 0.06513 0.0
H1000 H 0.25722 0.14386 0.07058 0.0
H1001 H 0.19419 0.11657 0.01639 0.0
C1002 C 0.19251 0.03871 -0.00136 0.0
C1003 C 0.20498 0.02847 0.0052 0.0
C1004 C 0.22465 0.03971 0.02557 0.0
C1005 C 0.23217 0.06108 0.03818 0.0
C1006 C 0.21971 0.07087 0.03052 0.0
C1007 C 0.20016 0.05995 0.01164 0.0
C1008 C 0.1901 0.07428 0.00623 0.0
C1009 C 0.18771 0.07779 0.96494 0.0
C1010 C 0.16808 0.06472 0.02636 0.0
C1011 C 0.20724 0.09513 0.02443 0.0
C1012 C 0.2242 0.09286 0.03822 0.0
C1013 C 0.24236 0.11021 0.05483 0.0
C1014 C 0.24313 0.13037 0.05763 0.0
C1015 C 0.22579 0.133 0.04408 0.0
C1016 C 0.20761 0.11505 0.02736 0.0
H1017 H 0.96843 0.14812 0.9698 0.0
H1018 H 0.96954 0.20388 0.02209 0.0
H1019 H 0.931 0.18041 0.04076 0.0
H1020 H 0.91519 0.12477 0.93304 0.0
H1021 H 0.90849 0.09694 0.94083 0.0
H1022 H 0.93645 0.11779 0.93355 0.0
H1023 H 0.94752 0.10778 0.9956 0.0
H1024 H 0.91963 0.08672 0.00288 0.0
H1025 H 0.93357 0.10754 0.03739 0.0
H1026 H 0.89159 0.1509 0.05093 0.0
H1027 H 0.85534 0.11757 0.05475 0.0
H1028 H 0.88052 0.08151 0.99538 0.0
C1029 C 0.96071 0.1554 0.98561 0.0
C1030 C 0.97205 0.17785 0.99459 0.0
C1031 C 0.96123 0.1867 0.01507 0.0
C1032 C 0.93932 0.17351 0.02568 0.0
C1033 C 0.92851 0.15151 0.01567 0.0
C1034 C 0.93893 0.14251 0.99636 0.0
C1035 C 0.92363 0.11856 0.98829 0.0
C1036 C 0.92078 0.11428 0.94644 0.0
C1037 C 0.93156 0.10431 0.00718 0.0
C1038 C 0.90289 0.11549 0.00583 0.0
C1039 C 0.90599 0.13465 0.02148 0.0
C1040 C 0.88903 0.13579 0.03892 0.0
C1041 C 0.86847 0.11677 0.04082 0.0
C1042 C 0.86502 0.09687 0.02537 0.0
C1043 C 0.88253 0.0964 0.00748 0.0
H1044 H 0.85753 0.82654 0.96172 0.0
H1045 H 0.80199 0.7756 0.02077 0.0
H1046 H 0.82527 0.76143 0.04449 0.0
H1047 H 0.88016 0.79423 0.93374 0.0
H1048 H 0.90814 0.81553 0.93949 0.0
H1049 H 0.88748 0.82246 0.92888 0.0
H1050 H 0.89819 0.84711 0.98697 0.0
H1051 H 0.91904 0.84044 0.99757 0.0
H1052 H 0.89852 0.83585 0.03145 0.0
H1053 H 0.85425 0.75166 0.05897 0.0
H1054 H 0.88712 0.74826 0.06599 0.0
H1055 H 0.92362 0.80578 0.99758 0.0
C1056 C 0.85029 0.81258 0.98004 0.0
C1057 C 0.82793 0.80221 0.98946 0.0
C1058 C 0.8191 0.78388 0.0133 0.0
C1059 C 0.83218 0.77567 0.02683 0.0
C1060 C 0.85406 0.78603 0.01639 0.0
C1061 C 0.86309 0.80421 0.9938 0.0
C1062 C 0.88693 0.81209 0.9861 0.0
C1063 C 0.8909 0.811 0.94459 0.0
C1064 C 0.90153 0.83524 0.00145 0.0
C1065 C 0.88986 0.79539 0.0076 0.0
C1066 C 0.87072 0.78049 0.02485 0.0
C1067 C 0.86936 0.76332 0.04577 0.0
C1068 C 0.88812 0.76149 0.04947 0.0
C1069 C 0.90801 0.77676 0.03239 0.0
C1070 C 0.90873 0.79385 0.01107 0.0
H1071 H 0.14234 0.24351 0.471 0.0
H1072 H 0.13612 0.18235 0.50886 0.0
H1073 H 0.09817 0.16954 0.52714 0.0
H1074 H 0.11001 0.24848 0.54307 0.0
H1075 H 0.09743 0.25942 0.51322 0.0
H1076 H 0.12429 0.26402 0.50277 0.0
H1077 H 0.11101 0.24718 0.43783 0.0
H1078 H 0.08408 0.24245 0.44813 0.0
H1079 H 0.08772 0.22009 0.43371 0.0
H1080 H 0.06156 0.16334 0.54245 0.0
H1081 H 0.02766 0.16395 0.55411 0.0
H1082 H 0.05636 0.2286 0.50541 0.0
C1083 C 0.133 0.22744 0.4832 0.0
C1084 C 0.14227 0.21395 0.48848 0.0
C1085 C 0.12944 0.193 0.50442 0.0
C1086 C 0.10783 0.18554 0.51492 0.0
C1087 C 0.09918 0.19914 0.50918 0.0
C1088 C 0.11126 0.21963 0.4937 0.0
C1089 C 0.09782 0.23087 0.49073 0.0
C1090 C 0.108 0.25194 0.51383 0.0
C1091 C 0.09499 0.23541 0.45019 0.0
C1092 C 0.07638 0.21351 0.5072 0.0
C1093 C 0.07765 0.19538 0.51763 0.0
C1094 C 0.06029 0.17738 0.5343 0.0
C1095 C 0.04111 0.17792 0.54084 0.0
C1096 C 0.03934 0.1963 0.53059 0.0
C1097 C 0.05718 0.21425 0.51321 0.0
H1098 H 0.7706 0.8269 0.48553 0.0
H1099 H 0.81455 0.85717 0.57839 0.0
H1100 H 0.80954 0.88895 0.57377 0.0
H1101 H 0.78929 0.87635 0.4336 0.0
H1102 H 0.76271 0.86933 0.41614 0.0
H1103 H 0.76872 0.84811 0.42747 0.0
H1104 H 0.73543 0.83064 0.47146 0.0
H1105 H 0.7294 0.85191 0.46042 0.0
H1106 H 0.7333 0.84689 0.50783 0.0
H1107 H 0.80098 0.91763 0.55934 0.0
H1108 H 0.79078 0.94328 0.53317 0.0
H1109 H 0.75244 0.89583 0.4486 0.0
C1110 C 0.77907 0.8402 0.50491 0.0
C1111 C 0.79296 0.83948 0.53235 0.0
C1112 C 0.80388 0.85729 0.55706 0.0
C1113 C 0.80106 0.87543 0.55483 0.0
C1114 C 0.78731 0.87565 0.52767 0.0
C1115 C 0.77656 0.85867 0.50294 0.0
C1116 C 0.76347 0.86376 0.47549 0.0
C1117 C 0.77154 0.86443 0.43583 0.0
C1118 C 0.73894 0.84732 0.47903 0.0
C1119 C 0.76881 0.88632 0.48856 0.0
C1120 C 0.78244 0.89264 0.51894 0.0
C1121 C 0.79026 0.9129 0.53562 0.0
C1122 C 0.78437 0.92737 0.52046 0.0
C1123 C 0.77081 0.9216 0.48881 0.0
C1124 C 0.76263 0.90062 0.47302 0.0
H1125 H 0.11119 0.86999 0.46724 0.0
H1126 H 0.0585 0.86984 0.52916 0.0
H1127 H 0.08365 0.90687 0.55122 0.0
H1128 H 0.15392 0.90084 0.53597 0.0
H1129 H 0.17455 0.91598 0.5018 0.0
H1130 H 0.15262 0.88889 0.49141 0.0
H1131 H 0.14278 0.90383 0.43371 0.0
H1132 H 0.16452 0.931 0.44413 0.0
H1133 H 0.13699 0.92577 0.43888 0.0
H1134 H 0.11309 0.94406 0.56439 0.0
H1135 H 0.14675 0.97924 0.57238 0.0
H1136 H 0.18173 0.95654 0.50362 0.0
C1137 C 0.10505 0.87767 0.48581 0.0
C1138 C 0.08278 0.86692 0.49629 0.0
C1139 C 0.07539 0.87764 0.52049 0.0
C1140 C 0.08956 0.89875 0.53323 0.0
C1141 C 0.11118 0.90904 0.52177 0.0
C1142 C 0.11907 0.8989 0.49899 0.0
C1143 C 0.14317 0.91401 0.49098 0.0
C1144 C 0.15687 0.90435 0.50594 0.0
C1145 C 0.14709 0.91894 0.44946 0.0
C1146 C 0.14739 0.93417 0.51263 0.0
C1147 C 0.12859 0.93082 0.52997 0.0
C1148 C 0.12799 0.94689 0.55118 0.0
C1149 C 0.14724 0.96688 0.55543 0.0
C1150 C 0.16695 0.97071 0.53869 0.0
C1151 C 0.16694 0.95414 0.51672 0.0
H1152 H 0.82709 0.97416 0.99204 0.0
H1153 H 0.7652 0.96991 0.96614 0.0
H1154 H 0.75024 0.93141 0.94729 0.0
H1155 H 0.82589 0.93807 0.91713 0.0
H1156 H 0.83821 0.9264 0.9459 0.0
H1157 H 0.84456 0.95415 0.95331 0.0
H1158 H 0.83267 0.945 0.02167 0.0
H1159 H 0.82602 0.91719 0.0144 0.0
H1160 H 0.80566 0.92295 0.03222 0.0
H1161 H 0.741 0.89229 0.93755 0.0
H1162 H 0.73887 0.85641 0.93397 0.0
H1163 H 0.80702 0.88664 0.96602 0.0
C1164 C 0.81054 0.96533 0.9816 0.0
C1165 C 0.79734 0.97509 0.98042 0.0
C1166 C 0.77568 0.96283 0.96702 0.0
C1167 C 0.76702 0.94094 0.95635 0.0
C1168 C 0.7803 0.93162 0.95899 0.0
C1169 C 0.80169 0.94353 0.97085 0.0
C1170 C 0.81223 0.92948 0.973 0.0
C1171 C 0.83135 0.9375 0.9457 0.0
C1172 C 0.81957 0.92861 0.01268 0.0
C1173 C 0.7933 0.90765 0.96129 0.0
C1174 C 0.77504 0.90921 0.95319 0.0
C1175 C 0.75529 0.89095 0.94337 0.0
C1176 C 0.75422 0.87061 0.94159 0.0
C1177 C 0.77279 0.86867 0.94958 0.0
C1178 C 0.79256 0.88754 0.95944 0.0
H1179 H 0.12136 0.92468 0.98237 0.0
H1180 H 0.14957 0.88479 0.95132 0.0
H1181 H 0.11301 0.85187 0.95374 0.0
H1182 H 0.08353 0.88739 0.0472 0.0
H1183 H 0.06237 0.89354 0.03601 0.0
H1184 H 0.09056 0.91396 0.02964 0.0
H1185 H 0.08269 0.91797 0.96103 0.0
H1186 H 0.05448 0.89739 0.96714 0.0
H1187 H 0.07052 0.89421 0.93163 0.0
H1188 H 0.07338 0.82307 0.96143 0.0
H1189 H 0.03443 0.80058 0.97813 0.0
H1190 H 0.03245 0.85943 0.00449 0.0
C1191 C 0.11988 0.90906 0.97584 0.0
C1192 C 0.13837 0.90737 0.96654 0.0
C1193 C 0.13568 0.88654 0.95855 0.0
C1194 C 0.11495 0.86774 0.95965 0.0
C1195 C 0.09707 0.87001 0.96879 0.0
C1196 C 0.09936 0.89014 0.97696 0.0
C1197 C 0.07774 0.88806 0.9878 0.0
C1198 C 0.07861 0.89621 0.02752 0.0
C1199 C 0.07096 0.90012 0.96025 0.0
C1200 C 0.06297 0.86358 0.98497 0.0
C1201 C 0.07435 0.85346 0.97355 0.0
C1202 C 0.06427 0.83083 0.97017 0.0
C1203 C 0.04212 0.81819 0.9796 0.0
C1204 C 0.03035 0.82823 0.99248 0.0
C1205 C 0.04091 0.85125 0.99442 0.0
H1206 H 0.14156 0.17465 0.02451 0.0
H1207 H 0.20041 0.23186 0.98575 0.0
H1208 H 0.17824 0.24768 0.96355 0.0
H1209 H 0.106 0.17256 0.94895 0.0
H1210 H 0.08279 0.16383 0.97899 0.0
H1211 H 0.10322 0.15652 0.9894 0.0
H1212 H 0.10853 0.174 0.05424 0.0
H1213 H 0.0883 0.18154 0.04391 0.0
H1214 H 0.1153 0.20211 0.05807 0.0
H1215 H 0.14982 0.25848 0.95017 0.0
H1216 H 0.1172 0.26235 0.9429 0.0
H1217 H 0.077 0.19767 0.98941 0.0
C1218 C 0.14979 0.19036 0.01084 0.0
C1219 C 0.17274 0.202 0.00681 0.0
C1220 C 0.18285 0.22258 0.98896 0.0
C1221 C 0.1704 0.23172 0.97635 0.0
C1222 C 0.14785 0.22001 0.98153 0.0
C1223 C 0.13762 0.19966 0.99795 0.0
C1224 C 0.11325 0.19066 0.00112 0.0
C1225 C 0.10057 0.16965 0.97824 0.0
C1226 C 0.10593 0.18686 0.04175 0.0
C1227 C 0.11138 0.20928 0.98447 0.0
C1228 C 0.1315 0.22607 0.97334 0.0
C1229 C 0.13395 0.24533 0.95843 0.0
C1230 C 0.11533 0.24741 0.95456 0.0
C1231 C 0.09449 0.23029 0.96543 0.0
C1232 C 0.09262 0.211 0.98053 0.0
H1233 H 0.94719 0.77608 0.50089 0.0
H1234 H 0.9796 0.84653 0.48835 0.0
H1235 H 0.94521 0.84568 0.50209 0.0
H1236 H 0.89764 0.76469 0.45768 0.0
H1237 H 0.88005 0.74278 0.48824 0.0
H1238 H 0.90758 0.74866 0.48028 0.0
H1239 H 0.91527 0.75326 0.55061 0.0
H1240 H 0.88768 0.7472 0.55882 0.0
H1241 H 0.91028 0.77219 0.57621 0.0
H1242 H 0.90764 0.83759 0.51292 0.0
H1243 H 0.86843 0.82271 0.52315 0.0
H1244 H 0.85914 0.7572 0.52917 0.0
C1245 C 0.94707 0.79132 0.50171 0.0
C1246 C 0.96609 0.81138 0.49359 0.0
C1247 C 0.96525 0.83097 0.49438 0.0
C1248 C 0.94579 0.83068 0.50221 0.0
C1249 C 0.92725 0.81069 0.50925 0.0
C1250 C 0.92763 0.79135 0.50936 0.0
C1251 C 0.90499 0.77208 0.51652 0.0
C1252 C 0.89711 0.75612 0.48372 0.0
C1253 C 0.90453 0.7605 0.5527 0.0
C1254 C 0.89191 0.78368 0.51988 0.0
C1255 C 0.90519 0.80595 0.51565 0.0
C1256 C 0.89704 0.8202 0.51659 0.0
C1257 C 0.87468 0.81153 0.52228 0.0
C1258 C 0.86062 0.78876 0.52703 0.0
C1259 C 0.86944 0.77468 0.52578 0.0
H1260 H 0.19219 0.1445 0.48371 0.0
H1261 H 0.2523 0.20168 0.51863 0.0
H1262 H 0.26642 0.1778 0.53991 0.0
H1263 H 0.1888 0.1096 0.55959 0.0
H1264 H 0.17788 0.08551 0.53106 0.0
H1265 H 0.17257 0.10719 0.51958 0.0
H1266 H 0.18858 0.10974 0.45421 0.0
H1267 H 0.19406 0.08816 0.46556 0.0
H1268 H 0.21584 0.11409 0.44956 0.0
H1269 H 0.27446 0.14737 0.55456 0.0
H1270 H 0.27495 0.11305 0.56466 0.0
H1271 H 0.20905 0.07617 0.52124 0.0
C1272 C 0.20829 0.15206 0.49602 0.0
C1273 C 0.22118 0.17497 0.49946 0.0
C1274 C 0.24212 0.18416 0.51583 0.0
C1275 C 0.25029 0.17073 0.52789 0.0
C1276 C 0.23722 0.14818 0.52363 0.0
C1277 C 0.21658 0.13894 0.50839 0.0
C1278 C 0.20576 0.11431 0.50676 0.0
C1279 C 0.18503 0.10353 0.53068 0.0
C1280 C 0.20078 0.1061 0.46664 0.0
C1281 C 0.22359 0.11108 0.52317 0.0
C1282 C 0.24165 0.13078 0.53264 0.0
C1283 C 0.26034 0.13185 0.54748 0.0
C1284 C 0.26049 0.11227 0.553 0.0
C1285 C 0.24201 0.09189 0.54389 0.0
C1286 C 0.22339 0.09144 0.52876 0.0
H1287 H 0.8942 0.14385 0.52898 0.0
H1288 H 0.94683 0.12897 0.53112 0.0
H1289 H 0.92067 0.09054 0.51836 0.0
H1290 H 0.85311 0.09306 0.57189 0.0
H1291 H 0.83111 0.09044 0.54318 0.0
H1292 H 0.85374 0.11711 0.5538 0.0
H1293 H 0.8606 0.12578 0.48399 0.0
H1294 H 0.83795 0.09919 0.47317 0.0
H1295 H 0.86456 0.1076 0.4543 0.0
H1296 H 0.89003 0.05437 0.504 0.0
H1297 H 0.85578 0.02161 0.48658 0.0
H1298 H 0.82171 0.05831 0.49316 0.0
C1299 C 0.90017 0.13247 0.5269 0.0
C1300 C 0.92265 0.13955 0.53112 0.0
C1301 C 0.92978 0.12411 0.52799 0.0
C1302 C 0.91502 0.10214 0.52086 0.0
C1303 C 0.89309 0.09572 0.51688 0.0
C1304 C 0.88557 0.1103 0.51963 0.0
C1305 C 0.86108 0.09884 0.51298 0.0
C1306 C 0.84905 0.09993 0.54753 0.0
C1307 C 0.85574 0.10842 0.47909 0.0
C1308 C 0.85622 0.07567 0.50572 0.0
C1309 C 0.87502 0.07438 0.50838 0.0
C1310 C 0.87514 0.05508 0.50196 0.0
C1311 C 0.85558 0.03656 0.492 0.0
C1312 C 0.83606 0.03737 0.48853 0.0
C1313 C 0.83634 0.05716 0.49596 0.0
H1314 H 0.87042 0.45311 0.36476 0.0
H1315 H 0.93858 0.4861 0.39745 0.0
H1316 H 0.93874 0.45136 0.39106 0.0
H1317 H 0.85407 0.40149 0.41026 0.0
H1318 H 0.83588 0.38558 0.37344 0.0
H1319 H 0.84089 0.41274 0.38258 0.0
H1320 H 0.85305 0.42373 0.31471 0.0
H1321 H 0.84791 0.39659 0.30531 0.0
H1322 H 0.87441 0.41979 0.29591 0.0
H1323 H 0.93153 0.41286 0.37887 0.0
H1324 H 0.91831 0.37493 0.35817 0.0
H1325 H 0.85506 0.3678 0.3334 0.0
C1326 C 0.88538 0.45308 0.37087 0.0
C1327 C 0.90448 0.47238 0.38176 0.0
C1328 C 0.92374 0.47155 0.38909 0.0
C1329 C 0.92395 0.45186 0.3857 0.0
C1330 C 0.9048 0.43314 0.37496 0.0
C1331 C 0.88591 0.43366 0.3675 0.0
C1332 C 0.86778 0.41162 0.35469 0.0
C1333 C 0.84852 0.40231 0.38187 0.0
C1334 C 0.86037 0.41303 0.31532 0.0
C1335 C 0.87946 0.39863 0.35559 0.0
C1336 C 0.90073 0.41121 0.36772 0.0
C1337 C 0.91485 0.40284 0.36957 0.0
C1338 C 0.90718 0.38124 0.35789 0.0
C1339 C 0.88563 0.36833 0.3443 0.0
C1340 C 0.87157 0.37713 0.34392 0.0
H1341 H 0.61314 0.49885 0.33227 0.0
H1342 H 0.63473 0.45863 0.27632 0.0
H1343 H 0.59865 0.42632 0.2857 0.0
H1344 H 0.57925 0.45833 0.40083 0.0
H1345 H 0.55816 0.46553 0.39992 0.0
H1346 H 0.58597 0.48583 0.38969 0.0
H1347 H 0.57359 0.49362 0.327 0.0
H1348 H 0.54576 0.47324 0.33694 0.0
H1349 H 0.55858 0.47147 0.2951 0.0
H1350 H 0.56097 0.39857 0.29985 0.0
H1351 H 0.52294 0.37592 0.31952 0.0
H1352 H 0.52407 0.43309 0.36622 0.0
C1353 C 0.61028 0.4832 0.3223 0.0
C1354 C 0.62681 0.48129 0.30357 0.0
C1355 C 0.62237 0.46056 0.29066 0.0
C1356 C 0.6019 0.44206 0.29584 0.0
C1357 C 0.58592 0.44448 0.3139 0.0
C1358 C 0.58974 0.46442 0.32708 0.0
C1359 C 0.56936 0.46221 0.34524 0.0
C1360 C 0.57344 0.46834 0.38637 0.0
C1361 C 0.56135 0.47595 0.32484 0.0
C1362 C 0.55363 0.43793 0.34013 0.0
C1363 C 0.56368 0.42817 0.32197 0.0
C1364 C 0.55288 0.40597 0.31414 0.0
C1365 C 0.53122 0.39324 0.32551 0.0
C1366 C 0.52044 0.40267 0.34451 0.0
C1367 C 0.5318 0.42542 0.3516 0.0
H1368 H 0.49585 0.10409 0.32416 0.0
H1369 H 0.52906 0.16149 0.25426 0.0
H1370 H 0.56377 0.16235 0.26451 0.0
H1371 H 0.53953 0.12067 0.39067 0.0
H1372 H 0.53538 0.09358 0.39694 0.0
H1373 H 0.51277 0.09719 0.38431 0.0
H1374 H 0.50524 0.07233 0.32723 0.0
H1375 H 0.52786 0.06868 0.33965 0.0
H1376 H 0.52684 0.07884 0.2945 0.0
H1377 H 0.59475 0.15746 0.28156 0.0
H1378 H 0.62088 0.1472 0.30535 0.0
H1379 H 0.56852 0.0928 0.36463 0.0
C1380 C 0.51044 0.11683 0.31109 0.0
C1381 C 0.50968 0.13272 0.28839 0.0
C1382 C 0.52915 0.14913 0.27175 0.0
C1383 C 0.549 0.14978 0.27736 0.0
C1384 C 0.54922 0.13391 0.2997 0.0
C1385 C 0.53054 0.11774 0.3164 0.0
C1386 C 0.53556 0.10275 0.33915 0.0
C1387 C 0.53051 0.10361 0.3802 0.0
C1388 C 0.52314 0.07926 0.32423 0.0
C1389 C 0.55994 0.11311 0.33256 0.0
C1390 C 0.56737 0.13104 0.30967 0.0
C1391 C 0.58918 0.14345 0.29953 0.0
C1392 C 0.60391 0.13745 0.31324 0.0
C1393 C 0.59682 0.11918 0.33691 0.0
C1394 C 0.57447 0.10682 0.34655 0.0
H1395 H 0.80147 0.57781 0.80456 0.0
H1396 H 0.79406 0.51365 0.82197 0.0
H1397 H 0.75498 0.49856 0.83398 0.0
H1398 H 0.76433 0.5736 0.87595 0.0
H1399 H 0.75339 0.58781 0.85035 0.0
H1400 H 0.78089 0.59372 0.84193 0.0
H1401 H 0.77184 0.58507 0.77252 0.0
H1402 H 0.74424 0.57897 0.78078 0.0
H1403 H 0.74924 0.55897 0.75903 0.0
H1404 H 0.71724 0.49023 0.84566 0.0
H1405 H 0.68275 0.48944 0.85895 0.0
H1406 H 0.71345 0.55859 0.83376 0.0
C1407 C 0.79162 0.56059 0.81087 0.0
C1408 C 0.80094 0.54695 0.81224 0.0
C1409 C 0.78743 0.5245 0.82069 0.0
C1410 C 0.76513 0.5157 0.82746 0.0
C1411 C 0.75646 0.5295 0.82566 0.0
C1412 C 0.76919 0.55146 0.81774 0.0
C1413 C 0.75565 0.56266 0.8186 0.0
C1414 C 0.76407 0.5805 0.84849 0.0
C1415 C 0.75522 0.57196 0.78046 0.0
C1416 C 0.73342 0.54356 0.8286 0.0
C1417 C 0.73434 0.5246 0.83231 0.0
C1418 C 0.71624 0.50493 0.84265 0.0
C1419 C 0.69672 0.50465 0.85014 0.0
C1420 C 0.69537 0.52391 0.84719 0.0
C1421 C 0.71391 0.54355 0.83568 0.0
H1422 H 0.44129 0.15518 0.81934 0.0
H1423 H 0.51068 0.19139 0.84324 0.0
H1424 H 0.51156 0.2258 0.82841 0.0
H1425 H 0.44185 0.19064 0.74357 0.0
H1426 H 0.41635 0.18832 0.75769 0.0
H1427 H 0.42149 0.16619 0.76625 0.0
H1428 H 0.41373 0.16747 0.83582 0.0
H1429 H 0.40876 0.18971 0.82755 0.0
H1430 H 0.42903 0.19274 0.86086 0.0
H1431 H 0.50481 0.25624 0.81556 0.0
H1432 H 0.49091 0.28138 0.8047 0.0
H1433 H 0.42545 0.22613 0.79031 0.0
C1434 C 0.45674 0.17033 0.82055 0.0
C1435 C 0.47598 0.17064 0.83211 0.0
C1436 C 0.49578 0.19079 0.83432 0.0
C1437 C 0.49646 0.21042 0.82591 0.0
C1438 C 0.47716 0.20966 0.81548 0.0
C1439 C 0.45765 0.19019 0.81263 0.0
C1440 C 0.43907 0.19423 0.80314 0.0
C1441 C 0.42911 0.18425 0.76541 0.0
C1442 C 0.42162 0.18552 0.83367 0.0
C1443 C 0.45117 0.21899 0.80169 0.0
C1444 C 0.47314 0.22746 0.80861 0.0
C1445 C 0.48766 0.24983 0.80981 0.0
C1446 C 0.47955 0.26399 0.80369 0.0
C1447 C 0.45706 0.2558 0.7966 0.0
C1448 C 0.44273 0.23293 0.79553 0.0
H1449 H 0.77433 0.19974 0.79925 0.0
H1450 H 0.71922 0.20486 0.83956 0.0
H1451 H 0.74372 0.24362 0.8536 0.0
H1452 H 0.81304 0.23587 0.86806 0.0
H1453 H 0.83568 0.24787 0.83637 0.0
H1454 H 0.81386 0.22027 0.82937 0.0
H1455 H 0.80805 0.23037 0.76325 0.0
H1456 H 0.82972 0.25806 0.77017 0.0
H1457 H 0.80295 0.2527 0.75676 0.0
H1458 H 0.77328 0.28167 0.86185 0.0
H1459 H 0.80718 0.31683 0.86861 0.0
H1460 H 0.84417 0.28806 0.82453 0.0
C1461 C 0.76745 0.20899 0.81124 0.0
C1462 C 0.74476 0.19915 0.8182 0.0
C1463 C 0.73647 0.21189 0.83393 0.0
C1464 C 0.75025 0.234 0.84192 0.0
C1465 C 0.77238 0.24324 0.83425 0.0
C1466 C 0.78106 0.23119 0.81965 0.0
C1467 C 0.80559 0.2453 0.81469 0.0
C1468 C 0.81776 0.23682 0.83855 0.0
C1469 C 0.81195 0.24668 0.77378 0.0
C1470 C 0.80923 0.26711 0.82876 0.0
C1471 C 0.78975 0.26545 0.83962 0.0
C1472 C 0.78867 0.2832 0.85357 0.0
C1473 C 0.80807 0.30314 0.85721 0.0
C1474 C 0.82839 0.30527 0.84713 0.0
C1475 C 0.8289 0.287 0.83231 0.0
H1476 H 0.41756 0.18609 0.28954 0.0
H1477 H 0.47906 0.19318 0.32741 0.0
H1478 H 0.4905 0.23023 0.34933 0.0
H1479 H 0.44003 0.24126 0.2568 0.0
H1480 H 0.41718 0.24402 0.2714 0.0
H1481 H 0.41315 0.21754 0.25936 0.0
H1482 H 0.39576 0.2026 0.32337 0.0
H1483 H 0.39967 0.22901 0.33557 0.0
H1484 H 0.4107 0.21617 0.36459 0.0
H1485 H 0.49564 0.26601 0.36718 0.0
H1486 H 0.49455 0.29955 0.37969 0.0
H1487 H 0.43029 0.27082 0.32932 0.0
C1488 C 0.43336 0.19541 0.30265 0.0
C1489 C 0.4474 0.18668 0.30675 0.0
C1490 C 0.46803 0.19948 0.32379 0.0
C1491 C 0.4747 0.22056 0.33642 0.0
C1492 C 0.46062 0.22874 0.33171 0.0
C1493 C 0.44041 0.21669 0.31523 0.0
C1494 C 0.42876 0.22978 0.31311 0.0
C1495 C 0.42454 0.23336 0.27276 0.0
C1496 C 0.40746 0.21873 0.3355 0.0
C1497 C 0.44564 0.25101 0.331 0.0
C1498 C 0.4638 0.24988 0.34159 0.0
C1499 C 0.48154 0.26715 0.35902 0.0
C1500 C 0.48072 0.28614 0.36602 0.0
C1501 C 0.46235 0.28784 0.35546 0.0
C1502 C 0.4446 0.27003 0.33753 0.0
H1503 H 0.80437 0.2618 0.31975 0.0
H1504 H 0.83345 0.22657 0.2698 0.0
H1505 H 0.79834 0.19211 0.27576 0.0
H1506 H 0.77115 0.22069 0.38574 0.0
H1507 H 0.74867 0.22574 0.38163 0.0
H1508 H 0.77612 0.24748 0.37332 0.0
H1509 H 0.76459 0.25366 0.30852 0.0
H1510 H 0.73713 0.23184 0.31653 0.0
H1511 H 0.75192 0.23115 0.27654 0.0
H1512 H 0.7597 0.16123 0.28773 0.0
H1513 H 0.72119 0.13675 0.30589 0.0
H1514 H 0.7179 0.19269 0.34687 0.0
C1515 C 0.80343 0.24686 0.31015 0.0
C1516 C 0.82172 0.24694 0.29435 0.0
C1517 C 0.81969 0.22697 0.28203 0.0
C1518 C 0.79979 0.20729 0.28523 0.0
C1519 C 0.78206 0.20785 0.30071 0.0
C1520 C 0.78373 0.22713 0.313 0.0
C1521 C 0.76232 0.22338 0.32868 0.0
C1522 C 0.76472 0.22969 0.36978 0.0
C1523 C 0.75347 0.23574 0.30621 0.0
C1524 C 0.74834 0.19896 0.32346 0.0
C1525 C 0.75995 0.19024 0.30725 0.0
C1526 C 0.75044 0.16791 0.30034 0.0
C1527 C 0.72856 0.15413 0.31067 0.0
C1528 C 0.7165 0.16279 0.32766 0.0
C1529 C 0.72659 0.18553 0.33374 0.0
H1530 H 0.84465 0.54993 0.33977 0.0
H1531 H 0.80779 0.48104 0.36729 0.0
H1532 H 0.77363 0.48024 0.35076 0.0
H1533 H 0.80702 0.56349 0.37797 0.0
H1534 H 0.81049 0.58312 0.34304 0.0
H1535 H 0.8325 0.57813 0.35338 0.0
H1536 H 0.83429 0.56889 0.28472 0.0
H1537 H 0.8124 0.57407 0.27408 0.0
H1538 H 0.80996 0.5482 0.26216 0.0
H1539 H 0.74353 0.48699 0.33498 0.0
H1540 H 0.71875 0.50076 0.31987 0.0
H1541 H 0.77442 0.56579 0.30382 0.0
C1542 C 0.82942 0.53461 0.34149 0.0
C1543 C 0.82885 0.51548 0.35452 0.0
C1544 C 0.80858 0.49585 0.35729 0.0
C1545 C 0.7891 0.49522 0.34794 0.0
C1546 C 0.79011 0.51441 0.33604 0.0
C1547 C 0.80969 0.53375 0.33266 0.0
C1548 C 0.80592 0.55224 0.32115 0.0
C1549 C 0.81449 0.57031 0.35065 0.0
C1550 C 0.81626 0.56138 0.28327 0.0
C1551 C 0.78119 0.54027 0.31902 0.0
C1552 C 0.7725 0.51844 0.32751 0.0
C1553 C 0.75011 0.50403 0.32806 0.0
C1554 C 0.73616 0.51206 0.31948 0.0
C1555 C 0.74457 0.53439 0.3106 0.0
C1556 C 0.76745 0.54866 0.31049 0.0
H1557 H 0.62539 0.14823 0.81657 0.0
H1558 H 0.62014 0.08581 0.84172 0.0
H1559 H 0.58097 0.07057 0.85651 0.0
H1560 H 0.5886 0.14645 0.88817 0.0
H1561 H 0.57766 0.15949 0.85942 0.0
H1562 H 0.60531 0.16539 0.85281 0.0
H1563 H 0.59682 0.15426 0.78396 0.0
H1564 H 0.56911 0.14813 0.79043 0.0
H1565 H 0.57452 0.12757 0.7723 0.0
H1566 H 0.54156 0.06187 0.86514 0.0
H1567 H 0.50628 0.06107 0.8701 0.0
H1568 H 0.5384 0.12952 0.83936 0.0
C1569 C 0.61612 0.1314 0.82557 0.0
C1570 C 0.62582 0.11819 0.82802 0.0
C1571 C 0.61306 0.09625 0.83983 0.0
C1572 C 0.5908 0.08745 0.84817 0.0
C1573 C 0.58166 0.10087 0.84474 0.0
C1574 C 0.59404 0.12244 0.83404 0.0
C1575 C 0.58045 0.13344 0.8318 0.0
C1576 C 0.58848 0.1523 0.85972 0.0
C1577 C 0.58022 0.1413 0.79227 0.0
C1578 C 0.55837 0.11465 0.84252 0.0
C1579 C 0.5593 0.09597 0.84989 0.0
C1580 C 0.5407 0.07646 0.85965 0.0
C1581 C 0.52072 0.07614 0.86227 0.0
C1582 C 0.51952 0.09523 0.8552 0.0
C1583 C 0.53868 0.11464 0.8451 0.0
H1584 H 0.85448 0.48031 0.80065 0.0
H1585 H 0.91186 0.53569 0.84791 0.0
H1586 H 0.92671 0.51155 0.86358 0.0
H1587 H 0.84982 0.44067 0.86781 0.0
H1588 H 0.84086 0.41901 0.8343 0.0
H1589 H 0.83498 0.44075 0.8274 0.0
H1590 H 0.85377 0.44874 0.76334 0.0
H1591 H 0.85992 0.42718 0.77022 0.0
H1592 H 0.88156 0.45445 0.76006 0.0
H1593 H 0.93552 0.48115 0.87249 0.0
H1594 H 0.93643 0.4468 0.87797 0.0
H1595 H 0.87292 0.41172 0.82508 0.0
C1596 C 0.87013 0.48741 0.81448 0.0
C1597 C 0.88203 0.5099 0.82306 0.0
C1598 C 0.90242 0.51848 0.84121 0.0
C1599 C 0.91102 0.50492 0.85005 0.0
C1600 C 0.89896 0.48286 0.84066 0.0
C1601 C 0.87886 0.47416 0.82357 0.0
C1602 C 0.86899 0.44993 0.81667 0.0
C1603 C 0.84739 0.43682 0.83782 0.0
C1604 C 0.86588 0.44479 0.7751 0.0
C1605 C 0.88667 0.44629 0.83253 0.0
C1606 C 0.9039 0.46546 0.84605 0.0
C1607 C 0.92209 0.46604 0.86206 0.0
C1608 C 0.92248 0.44645 0.86491 0.0
C1609 C 0.90474 0.42652 0.85197 0.0
C1610 C 0.88677 0.42663 0.83521 0.0
H1611 H 0.59105 0.46148 0.83929 0.0
H1612 H 0.55448 0.4865 0.89737 0.0
H1613 H 0.52057 0.45114 0.88817 0.0
H1614 H 0.55044 0.4315 0.77087 0.0
H1615 H 0.55618 0.4094 0.76946 0.0
H1616 H 0.57744 0.43648 0.78155 0.0
H1617 H 0.58401 0.42166 0.84279 0.0
H1618 H 0.56269 0.39454 0.83097 0.0
H1619 H 0.56154 0.40668 0.87405 0.0
H1620 H 0.49055 0.4125 0.87275 0.0
H1621 H 0.46692 0.3749 0.84931 0.0
H1622 H 0.52356 0.37621 0.80053 0.0
C1623 C 0.57595 0.45958 0.8502 0.0
C1624 C 0.57546 0.47677 0.86919 0.0
C1625 C 0.55527 0.47358 0.88271 0.0
C1626 C 0.53594 0.45353 0.87772 0.0
C1627 C 0.53705 0.43689 0.85901 0.0
C1628 C 0.55655 0.4398 0.84527 0.0
C1629 C 0.55339 0.41963 0.82534 0.0
C1630 C 0.55973 0.42455 0.78438 0.0
C1631 C 0.56616 0.41007 0.84444 0.0
C1632 C 0.52905 0.40488 0.82993 0.0
C1633 C 0.51988 0.415 0.84964 0.0
C1634 C 0.49757 0.40444 0.85724 0.0
C1635 C 0.48429 0.38308 0.84393 0.0
C1636 C 0.49338 0.37264 0.82305 0.0
C1637 C 0.51608 0.38373 0.81632 0.0
H1638 H 0.55394 0.71692 0.67138 0.0
H1639 H 0.48792 0.69352 0.63228 0.0
H1640 H 0.49087 0.72863 0.6492 0.0
H1641 H 0.55282 0.75016 0.7485 0.0
H1642 H 0.58043 0.77185 0.74091 0.0
H1643 H 0.57265 0.74417 0.72888 0.0
H1644 H 0.58626 0.75649 0.66205 0.0
H1645 H 0.59397 0.78416 0.67381 0.0
H1646 H 0.57558 0.77074 0.63583 0.0
H1647 H 0.50086 0.76598 0.66821 0.0
H1648 H 0.51786 0.80456 0.68631 0.0
H1649 H 0.57844 0.80543 0.7105 0.0
C1650 C 0.54003 0.71913 0.66707 0.0
C1651 C 0.52061 0.70248 0.65087 0.0
C1652 C 0.5029 0.70607 0.64474 0.0
C1653 C 0.5044 0.72592 0.65433 0.0
C1654 C 0.52381 0.74215 0.66967 0.0
C1655 C 0.54139 0.73911 0.67589 0.0
C1656 C 0.5608 0.75988 0.69056 0.0
C1657 C 0.56704 0.75629 0.72953 0.0
C1658 C 0.5803 0.76831 0.66397 0.0
C1659 C 0.55136 0.775 0.69132 0.0
C1660 C 0.52993 0.76426 0.67951 0.0
C1661 C 0.51762 0.7746 0.67759 0.0
C1662 C 0.52747 0.79655 0.68797 0.0
C1663 C 0.54952 0.8081 0.69982 0.0
C1664 C 0.56159 0.7971 0.70147 0.0
H1665 H 0.20124 0.73921 0.66284 0.0
H1666 H 0.17293 0.77732 0.70346 0.0
H1667 H 0.2085 0.81108 0.69571 0.0
H1668 H 0.2529 0.77028 0.70733 0.0
H1669 H 0.26816 0.76784 0.66964 0.0
H1670 H 0.24033 0.74678 0.67738 0.0
H1671 H 0.23037 0.75117 0.61026 0.0
H1672 H 0.2582 0.77215 0.60224 0.0
H1673 H 0.23631 0.77772 0.59423 0.0
H1674 H 0.24755 0.84083 0.68371 0.0
H1675 H 0.28666 0.86391 0.66794 0.0
H1676 H 0.28903 0.8059 0.63659 0.0
C1677 C 0.20243 0.75464 0.66987 0.0
C1678 C 0.18424 0.75558 0.68366 0.0
C1679 C 0.18661 0.77615 0.69281 0.0
C1680 C 0.20676 0.79543 0.68853 0.0
C1681 C 0.22439 0.79388 0.67519 0.0
C1682 C 0.22239 0.77399 0.66598 0.0
C1683 C 0.24387 0.77667 0.65271 0.0
C1684 C 0.25177 0.76468 0.6783 0.0
C1685 C 0.24207 0.76898 0.61247 0.0
C1686 C 0.25827 0.80117 0.65585 0.0
C1687 C 0.24679 0.81086 0.66881 0.0
C1688 C 0.25671 0.8334 0.67359 0.0
C1689 C 0.27892 0.84638 0.66462 0.0
C1690 C 0.29093 0.83673 0.65118 0.0
C1691 C 0.28038 0.81381 0.64701 0.0
H1692 H 0.24595 0.468 0.68923 0.0
H1693 H 0.20923 0.40175 0.73111 0.0
H1694 H 0.17528 0.4037 0.72762 0.0
H1695 H 0.21571 0.48914 0.7374 0.0
H1696 H 0.21745 0.50645 0.69951 0.0
H1697 H 0.23873 0.49989 0.70646 0.0
H1698 H 0.23339 0.4849 0.6396 0.0
H1699 H 0.2123 0.49163 0.63234 0.0
H1700 H 0.20664 0.4641 0.62475 0.0
H1701 H 0.14497 0.41273 0.71629 0.0
H1702 H 0.12138 0.42753 0.69663 0.0
H1703 H 0.17893 0.48807 0.66459 0.0
C1704 C 0.23081 0.45385 0.69776 0.0
C1705 C 0.23027 0.43468 0.71036 0.0
C1706 C 0.21006 0.41661 0.72134 0.0
C1707 C 0.19071 0.4176 0.71956 0.0
C1708 C 0.19191 0.43683 0.7071 0.0
C1709 C 0.2115 0.45461 0.69644 0.0
C1710 C 0.20854 0.47321 0.68315 0.0
C1711 C 0.22084 0.49336 0.70813 0.0
C1712 C 0.21563 0.47877 0.64256 0.0
C1713 C 0.18413 0.46306 0.68735 0.0
C1714 C 0.17475 0.44211 0.70136 0.0
C1715 C 0.1522 0.4292 0.70569 0.0
C1716 C 0.13893 0.43777 0.69457 0.0
C1717 C 0.1483 0.45902 0.67935 0.0
C1718 C 0.17122 0.47188 0.67659 0.0
H1719 H 0.382 0.88374 0.15164 0.0
H1720 H 0.35028 0.81328 0.14172 0.0
H1721 H 0.38527 0.81635 0.12358 0.0
H1722 H 0.42254 0.89721 0.07525 0.0
H1723 H 0.44381 0.91979 0.10055 0.0
H1724 H 0.4157 0.91242 0.10717 0.0
H1725 H 0.41981 0.90872 0.17745 0.0
H1726 H 0.4478 0.9158 0.17103 0.0
H1727 H 0.42901 0.89059 0.19365 0.0
H1728 H 0.42382 0.82631 0.11404 0.0
H1729 H 0.46371 0.8427 0.1112 0.0
H1730 H 0.47137 0.90699 0.12779 0.0
C1731 C 0.38233 0.86906 0.14438 0.0
C1732 C 0.36339 0.84827 0.14762 0.0
C1733 C 0.36456 0.82936 0.13914 0.0
C1734 C 0.38436 0.83093 0.12879 0.0
C1735 C 0.40289 0.85156 0.12709 0.0
C1736 C 0.40209 0.87034 0.13433 0.0
C1737 C 0.42481 0.89029 0.13358 0.0
C1738 C 0.42683 0.90585 0.10226 0.0
C1739 C 0.4307 0.90203 0.17116 0.0
C1740 C 0.43848 0.87969 0.12579 0.0
C1741 C 0.42543 0.85736 0.12184 0.0
C1742 C 0.43421 0.84382 0.11654 0.0
C1743 C 0.45694 0.8533 0.11518 0.0
C1744 C 0.47075 0.87617 0.11916 0.0
C1745 C 0.46129 0.8895 0.12426 0.0
H1746 H 0.12799 0.59201 0.15735 0.0
H1747 H 0.06414 0.55178 0.10784 0.0
H1748 H 0.06772 0.51908 0.11709 0.0
H1749 H 0.1533 0.56415 0.11783 0.0
H1750 H 0.16938 0.56695 0.15825 0.0
H1751 H 0.16149 0.58701 0.14855 0.0
H1752 H 0.14354 0.58065 0.21315 0.0
H1753 H 0.15153 0.5607 0.22317 0.0
H1754 H 0.12327 0.5534 0.22674 0.0
H1755 H 0.07888 0.49072 0.13093 0.0
H1756 H 0.0961 0.46924 0.1503 0.0
H1757 H 0.15242 0.52859 0.1901 0.0
C1758 C 0.11466 0.57634 0.14863 0.0
C1759 C 0.09577 0.5745 0.13189 0.0
C1760 C 0.07877 0.55363 0.1208 0.0
C1761 C 0.08066 0.53495 0.12586 0.0
C1762 C 0.09965 0.53743 0.14205 0.0
C1763 C 0.11628 0.5576 0.15341 0.0
C1764 C 0.13505 0.556 0.1699 0.0
C1765 C 0.15604 0.56931 0.14727 0.0
C1766 C 0.13854 0.5631 0.21066 0.0
C1767 C 0.12643 0.53176 0.16608 0.0
C1768 C 0.10601 0.52127 0.1499 0.0
C1769 C 0.09486 0.49878 0.14366 0.0
C1770 C 0.10478 0.48673 0.15464 0.0
C1771 C 0.1256 0.49721 0.17168 0.0
C1772 C 0.13651 0.52004 0.17712 0.0
H1773 H 0.48967 0.63748 0.19563 0.0
H1774 H 0.54623 0.63783 0.1486 0.0
H1775 H 0.52239 0.60026 0.12532 0.0
H1776 H 0.46334 0.58339 0.22727 0.0
H1777 H 0.43618 0.57796 0.21678 0.0
H1778 H 0.45739 0.60537 0.22711 0.0
H1779 H 0.45047 0.61893 0.16481 0.0
H1780 H 0.429 0.59162 0.15452 0.0
H1781 H 0.45119 0.6059 0.12248 0.0
H1782 H 0.49219 0.56144 0.11082 0.0
H1783 H 0.45819 0.52599 0.10281 0.0
H1784 H 0.42208 0.55182 0.16008 0.0
C1785 C 0.49707 0.62985 0.17991 0.0
C1786 C 0.51983 0.64064 0.17383 0.0
C1787 C 0.52881 0.62995 0.15337 0.0
C1788 C 0.51541 0.60857 0.14019 0.0
C1789 C 0.49309 0.59821 0.14759 0.0
C1790 C 0.48399 0.60863 0.16665 0.0
C1791 C 0.4597 0.59386 0.17197 0.0
C1792 C 0.45382 0.58992 0.21323 0.0
C1793 C 0.44684 0.60313 0.15226 0.0
C1794 C 0.45651 0.57336 0.15328 0.0
C1795 C 0.4759 0.57611 0.13935 0.0
C1796 C 0.4769 0.55918 0.12143 0.0
C1797 C 0.45752 0.53907 0.11717 0.0
C1798 C 0.43742 0.53607 0.13079 0.0
C1799 C 0.43711 0.5535 0.14928 0.0
H1800 H 0.14547 0.63015 0.67195 0.0
H1801 H 0.0879 0.62799 0.62538 0.0
H1802 H 0.07333 0.5892 0.6087 0.0
H1803 H 0.14987 0.59392 0.60509 0.0
H1804 H 0.15851 0.58148 0.63958 0.0
H1805 H 0.16489 0.60937 0.64501 0.0
H1806 H 0.14619 0.59983 0.70918 0.0
H1807 H 0.13949 0.57186 0.70375 0.0
H1808 H 0.11823 0.57817 0.71299 0.0
H1809 H 0.06436 0.54992 0.59995 0.0
H1810 H 0.06236 0.51402 0.59785 0.0
H1811 H 0.12553 0.54225 0.65183 0.0
C1812 C 0.12997 0.62169 0.65762 0.0
C1813 C 0.11789 0.63217 0.64973 0.0
C1814 C 0.09752 0.62035 0.63147 0.0
C1815 C 0.08909 0.59829 0.622 0.0
C1816 C 0.10121 0.58832 0.63104 0.0
C1817 C 0.12128 0.59971 0.64824 0.0
C1818 C 0.13075 0.58512 0.65626 0.0
C1819 C 0.15228 0.59294 0.63522 0.0
C1820 C 0.13384 0.58366 0.69802 0.0
C1821 C 0.11281 0.56366 0.64115 0.0
C1822 C 0.09593 0.5658 0.62659 0.0
C1823 C 0.07753 0.54809 0.61117 0.0
C1824 C 0.07651 0.52774 0.61021 0.0
C1825 C 0.09374 0.52524 0.62476 0.0
C1826 C 0.11201 0.54351 0.64062 0.0
H1827 H 0.36698 0.48762 0.6575 0.0
H1828 H 0.33229 0.52356 0.65107 0.0
H1829 H 0.36642 0.55683 0.63364 0.0
H1830 H 0.41257 0.52838 0.70107 0.0
H1831 H 0.43242 0.52372 0.67794 0.0
H1832 H 0.40484 0.50165 0.68333 0.0
H1833 H 0.40146 0.49516 0.61265 0.0
H1834 H 0.4292 0.517 0.60706 0.0
H1835 H 0.40747 0.51755 0.582 0.0
H1836 H 0.40443 0.58688 0.62453 0.0
H1837 H 0.44409 0.61193 0.62186 0.0
H1838 H 0.45495 0.55709 0.63595 0.0
C1839 C 0.36648 0.5023 0.65097 0.0
C1840 C 0.34699 0.50301 0.65497 0.0
C1841 C 0.34704 0.52268 0.64771 0.0
C1842 C 0.36633 0.54164 0.63783 0.0
C1843 C 0.38547 0.54067 0.63552 0.0
C1844 C 0.38573 0.52151 0.64158 0.0
C1845 C 0.40888 0.52549 0.64084 0.0
C1846 C 0.41503 0.51945 0.67801 0.0
C1847 C 0.41193 0.51306 0.60872 0.0
C1848 C 0.42156 0.54994 0.63438 0.0
C1849 C 0.40768 0.55828 0.63102 0.0
C1850 C 0.41548 0.58052 0.62661 0.0
C1851 C 0.43808 0.59464 0.62532 0.0
C1852 C 0.45272 0.58653 0.62864 0.0
C1853 C 0.44424 0.56383 0.63315 0.0
H1854 H 0.43889 0.90678 0.6283 0.0
H1855 H 0.38936 0.86105 0.70364 0.0
H1856 H 0.41651 0.85366 0.7325 0.0
H1857 H 0.46463 0.87545 0.61333 0.0
H1858 H 0.49198 0.89847 0.61134 0.0
H1859 H 0.46921 0.90169 0.59819 0.0
H1860 H 0.48105 0.93294 0.64584 0.0
H1861 H 0.50393 0.92988 0.65905 0.0
H1862 H 0.48475 0.92814 0.69349 0.0
H1863 H 0.44797 0.84986 0.75147 0.0
H1864 H 0.48222 0.84945 0.75949 0.0
H1865 H 0.51192 0.89701 0.67128 0.0
C1866 C 0.43387 0.89547 0.65124 0.0
C1867 C 0.41201 0.88455 0.66384 0.0
C1868 C 0.40598 0.86959 0.69351 0.0
C1869 C 0.4213 0.86532 0.71016 0.0
C1870 C 0.44258 0.87608 0.69677 0.0
C1871 C 0.44894 0.89084 0.66803 0.0
C1872 C 0.47265 0.89929 0.6579 0.0
C1873 C 0.47473 0.89336 0.61781 0.0
C1874 C 0.48641 0.92403 0.66447 0.0
C1875 C 0.47848 0.88674 0.68519 0.0
C1876 C 0.46087 0.87361 0.70746 0.0
C1877 C 0.46192 0.86014 0.73434 0.0
C1878 C 0.48149 0.86002 0.73861 0.0
C1879 C 0.49979 0.8732 0.71601 0.0
C1880 C 0.49824 0.8868 0.68901 0.0
H1881 H 0.21125 0.43512 0.19441 0.0
H1882 H 0.21706 0.49802 0.17041 0.0
H1883 H 0.25605 0.51335 0.15728 0.0
H1884 H 0.26385 0.45598 0.23832 0.0
H1885 H 0.26921 0.43576 0.2185 0.0
H1886 H 0.24151 0.42932 0.22671 0.0
H1887 H 0.232 0.41868 0.15796 0.0
H1888 H 0.2596 0.42488 0.14963 0.0
H1889 H 0.24804 0.43797 0.12253 0.0
H1890 H 0.29405 0.52231 0.1472 0.0
H1891 H 0.32895 0.52377 0.13562 0.0
H1892 H 0.29954 0.4552 0.1647 0.0
C1893 C 0.22072 0.45209 0.1863 0.0
C1894 C 0.211 0.46534 0.18355 0.0
C1895 C 0.22401 0.48747 0.17271 0.0
C1896 C 0.24625 0.49641 0.16534 0.0
C1897 C 0.25535 0.48305 0.16872 0.0
C1898 C 0.24306 0.46133 0.17855 0.0
C1899 C 0.257 0.45055 0.17901 0.0
C1900 C 0.25794 0.44243 0.21796 0.0
C1901 C 0.24866 0.43192 0.15059 0.0
C1902 C 0.27896 0.46964 0.16776 0.0
C1903 C 0.27755 0.48822 0.16232 0.0
C1904 C 0.2954 0.50789 0.15134 0.0
C1905 C 0.31519 0.50853 0.14487 0.0
C1906 C 0.31702 0.48961 0.14925 0.0
C1907 C 0.2987 0.46997 0.16143 0.0
H1908 H 0.52392 0.81155 0.14682 0.0
H1909 H 0.57276 0.86659 0.2098 0.0
H1910 H 0.5851 0.84268 0.23776 0.0
H1911 H 0.51099 0.76994 0.2185 0.0
H1912 H 0.5074 0.74947 0.18515 0.0
H1913 H 0.50141 0.77058 0.17263 0.0
H1914 H 0.52804 0.78127 0.11731 0.0
H1915 H 0.53425 0.76036 0.12981 0.0
H1916 H 0.55593 0.78828 0.12544 0.0
H1917 H 0.59441 0.81355 0.25377 0.0
H1918 H 0.59836 0.78093 0.26015 0.0
H1919 H 0.54254 0.74476 0.18807 0.0
C1920 C 0.53699 0.81854 0.16695 0.0
C1921 C 0.5474 0.84094 0.17616 0.0
C1922 C 0.56448 0.84944 0.20251 0.0
C1923 C 0.57162 0.836 0.21845 0.0
C1924 C 0.56131 0.81408 0.20805 0.0
C1925 C 0.54416 0.80534 0.18328 0.0
C1926 C 0.5363 0.78148 0.17575 0.0
C1927 C 0.51262 0.76701 0.1888 0.0
C1928 C 0.53879 0.77764 0.13464 0.0
C1929 C 0.55203 0.77823 0.1995 0.0
C1930 C 0.56633 0.79721 0.21792 0.0
C1931 C 0.58311 0.79852 0.2399 0.0
C1932 C 0.58528 0.77993 0.2432 0.0
C1933 C 0.57068 0.76025 0.22479 0.0
C1934 C 0.55377 0.75945 0.20288 0.0
H1935 H 0.18328 0.69644 0.13758 0.0
H1936 H 0.13023 0.70369 0.18168 0.0
H1937 H 0.15678 0.74145 0.20089 0.0
H1938 H 0.22334 0.72808 0.20804 0.0
H1939 H 0.24561 0.73973 0.17556 0.0
H1940 H 0.22246 0.71304 0.16726 0.0
H1941 H 0.2169 0.72592 0.10324 0.0
H1942 H 0.23989 0.7527 0.11147 0.0
H1943 H 0.21366 0.74957 0.10032 0.0
H1944 H 0.18931 0.77908 0.21298 0.0
H1945 H 0.22502 0.81289 0.21873 0.0
H1946 H 0.25634 0.78064 0.16581 0.0
C1947 C 0.17721 0.70583 0.1517 0.0
C1948 C 0.15466 0.69706 0.15827 0.0
C1949 C 0.14743 0.71002 0.17652 0.0
C1950 C 0.16239 0.73149 0.18745 0.0
C1951 C 0.18448 0.73973 0.17993 0.0
C1952 C 0.19185 0.72723 0.16264 0.0
C1953 C 0.2163 0.74 0.15686 0.0
C1954 C 0.22759 0.72959 0.17821 0.0
C1955 C 0.22201 0.74217 0.11552 0.0
C1956 C 0.22159 0.76174 0.17338 0.0
C1957 C 0.20305 0.76129 0.1866 0.0
C1958 C 0.20393 0.77957 0.20282 0.0
C1959 C 0.2243 0.79874 0.20589 0.0
C1960 C 0.24354 0.79949 0.19271 0.0
C1961 C 0.24199 0.78068 0.17613 0.0
H1962 H 0.20374 0.18643 0.18239 0.0
H1963 H 0.25864 0.24893 0.15015 0.0
H1964 H 0.26038 0.263 0.21333 0.0
H1965 H 0.1781 0.20676 0.24455 0.0
H1966 H 0.17042 0.185 0.27744 0.0
H1967 H 0.17284 0.18031 0.22923 0.0
H1968 H 0.20035 0.16752 0.24549 0.0
H1969 H 0.19804 0.17219 0.29372 0.0
H1970 H 0.22445 0.18525 0.27184 0.0
H1971 H 0.25565 0.27032 0.27995 0.0
H1972 H 0.24658 0.26947 0.34614 0.0
H1973 H 0.19642 0.20142 0.33528 0.0
C1974 C 0.21599 0.20314 0.18855 0.0
C1975 C 0.23094 0.21668 0.16138 0.0
C1976 C 0.24702 0.23831 0.17062 0.0
C1977 C 0.24808 0.24645 0.20635 0.0
C1978 C 0.23315 0.23265 0.23257 0.0
C1979 C 0.21755 0.21138 0.22419 0.0
C1980 C 0.20411 0.19956 0.25778 0.0
C1981 C 0.17994 0.1925 0.25189 0.0
C1982 C 0.20692 0.17998 0.26779 0.0
C1983 C 0.21456 0.2175 0.28636 0.0
C1984 C 0.2311 0.23654 0.27122 0.0
C1985 C 0.2428 0.25547 0.29217 0.0
C1986 C 0.23752 0.25485 0.32966 0.0
C1987 C 0.22093 0.23535 0.34583 0.0
C1988 C 0.20935 0.21649 0.32377 0.0
H1989 H 0.76734 0.01634 0.1623 0.0
H1990 H 0.82547 0.01151 0.14394 0.0
H1991 H 0.82351 0.99885 0.20765 0.0
H1992 H 0.77926 0.03557 0.25528 0.0
H1993 H 0.75153 0.01983 0.27145 0.0
H1994 H 0.75687 0.02808 0.22379 0.0
H1995 H 0.73334 0.98776 0.20325 0.0
H1996 H 0.7279 0.97938 0.25088 0.0
H1997 H 0.73958 0.96766 0.22075 0.0
H1998 H 0.81731 0.98931 0.27341 0.0
H1999 H 0.80559 0.9809 0.33819 0.0
H2000 H 0.75008 0.98938 0.31519 0.0
C2001 C 0.77957 0.01251 0.1717 0.0
C2002 C 0.79658 0.01497 0.14805 0.0
C2003 C 0.81223 0.00971 0.16136 0.0
C2004 C 0.8113 0.00252 0.19758 0.0
C2005 C 0.79448 1.00038 0.22018 0.0
C2006 C 0.77873 0.00497 0.20786 0.0
C2007 C 0.76244 0.00119 0.2383 0.0
C2008 C 0.76254 0.02244 0.24776 0.0
C2009 C 0.73945 0.98291 0.22765 0.0
C2010 C 0.7718 0.99416 0.26967 0.0
C2011 C 0.79035 0.99394 0.25842 0.0
C2012 C 0.80267 0.98915 0.28253 0.0
C2013 C 0.79593 0.98449 0.31928 0.0
C2014 C 0.77688 0.98437 0.33155 0.0
C2015 C 0.76452 0.98905 0.30632 0.0
H2016 H 0.01695 0.77366 0.32701 0.0
H2017 H 0.02485 0.83791 0.34457 0.0
H2018 H 0.01532 0.83914 0.2796 0.0
H2019 H 0.03709 0.78236 0.23136 0.0
H2020 H 0.01701 0.75532 0.21643 0.0
H2021 H 0.02631 0.75998 0.26366 0.0
H2022 H 0.98637 0.74325 0.28612 0.0
H2023 H 0.97697 0.73863 0.23899 0.0
H2024 H 0.96989 0.7543 0.26941 0.0
H2025 H 0.00442 0.83365 0.21468 0.0
H2026 H 0.99084 0.82109 0.15203 0.0
H2027 H 0.98744 0.75914 0.1749 0.0
C2028 C 0.01699 0.78807 0.31683 0.0
C2029 C 0.02179 0.8058 0.34058 0.0
C2030 C 0.02122 0.8242 0.32674 0.0
C2031 C 0.01591 0.82509 0.28989 0.0
C2032 C 0.01093 0.8073 0.26729 0.0
C2033 C 0.01125 0.78906 0.28003 0.0
C2034 C 0.00379 0.77172 0.25005 0.0
C2035 C 0.02215 0.76708 0.23977 0.0
C2036 C 0.98302 0.75074 0.26186 0.0
C2037 C 0.99913 0.78312 0.21875 0.0
C2038 C 0.00367 0.80371 0.22944 0.0
C2039 C 1.00082 0.81757 0.20586 0.0
C2040 C 0.9931 0.81024 0.17025 0.0
C2041 C 0.98805 0.78911 0.15844 0.0
C2042 C 0.99108 0.77534 0.18314 0.0
H2043 H 0.7914 0.81002 0.81777 0.0
H2044 H 0.7342 0.7494 0.85039 0.0
H2045 H 0.73261 0.73418 0.78799 0.0
H2046 H 0.7728 0.81128 0.72675 0.0
H2047 H 0.79965 0.82316 0.70669 0.0
H2048 H 0.79655 0.82851 0.75423 0.0
H2049 H 0.82239 0.81426 0.77421 0.0
H2050 H 0.82551 0.80879 0.72672 0.0
H2051 H 0.81624 0.78726 0.7605 0.0
H2052 H 0.73839 0.7256 0.72146 0.0
H2053 H 0.74882 0.72586 0.65585 0.0
H2054 H 0.8006 0.79309 0.66816 0.0
C2055 C 0.7786 0.79349 0.81191 0.0
C2056 C 0.76304 0.78079 0.83887 0.0
C2057 C 0.7463 0.75937 0.82998 0.0
C2058 C 0.74533 0.75059 0.79475 0.0
C2059 C 0.76105 0.76358 0.76878 0.0
C2060 C 0.77719 0.78468 0.77694 0.0
C2061 C 0.79157 0.79577 0.74403 0.0
C2062 C 0.79003 0.81586 0.73223 0.0
C2063 C 0.81533 0.80187 0.75185 0.0
C2064 C 0.78109 0.77765 0.71596 0.0
C2065 C 0.76369 0.75907 0.73065 0.0
C2066 C 0.7519 0.74012 0.70964 0.0
C2067 C 0.75795 0.74037 0.67256 0.0
C2068 C 0.77532 0.75956 0.65701 0.0
C2069 C 0.78703 0.77828 0.67919 0.0
H2070 H 0.21541 0.01571 0.6863 0.0
H2071 H 0.27595 0.01594 0.66583 0.0
H2072 H 0.27572 0.00418 0.73035 0.0
H2073 H 0.2284 0.03679 0.77909 0.0
H2074 H 0.20073 0.02026 0.79509 0.0
H2075 H 0.20594 0.02874 0.74753 0.0
H2076 H 0.18341 0.98834 0.72658 0.0
H2077 H 0.17817 0.97973 0.77405 0.0
H2078 H 0.19054 0.9688 0.74375 0.0
H2079 H 0.26758 0.99065 0.79676 0.0
H2080 H 0.25349 0.9787 0.8601 0.0
H2081 H 0.19926 0.98908 0.83624 0.0
C2082 C 0.22866 0.01331 0.6953 0.0
C2083 C 0.24565 0.01662 0.67103 0.0
C2084 C 0.26278 0.01351 0.68403 0.0
C2085 C 0.26276 0.0068 0.72055 0.0
C2086 C 0.24562 0.00353 0.74367 0.0
C2087 C 0.22902 0.0069 0.73156 0.0
C2088 C 0.21257 0.0025 0.7617 0.0
C2089 C 0.21188 0.02332 0.77142 0.0
C2090 C 0.18983 0.98373 0.75086 0.0
C2091 C 0.22236 0.99591 0.79269 0.0
C2092 C 0.24135 0.99647 0.78183 0.0
C2093 C 0.25283 0.99033 0.80563 0.0
C2094 C 0.24468 0.98352 0.84148 0.0
C2095 C 0.22537 0.98311 0.85315 0.0
C2096 C 0.21419 0.98945 0.82832 0.0
H2097 H 0.99167 0.19808 0.67648 0.0
H2098 H 0.97805 0.25085 0.6603 0.0
H2099 H 0.98866 0.26246 0.72533 0.0
H2100 H 0.97053 0.18486 0.76944 0.0
H2101 H 0.9909 0.17826 0.78406 0.0
H2102 H 0.98217 0.17442 0.73658 0.0
H2103 H 0.02231 0.19893 0.71567 0.0
H2104 H 0.03115 0.20294 0.76306 0.0
H2105 H 0.03803 0.22619 0.73402 0.0
H2106 H 0.00317 0.26934 0.79152 0.0
H2107 H 0.01685 0.26888 0.85431 0.0
H2108 H 0.01855 0.2101 0.82649 0.0
C2109 C 0.99088 0.21209 0.68657 0.0
C2110 C 0.98424 0.22372 0.66338 0.0
C2111 C 0.98311 0.24174 0.67773 0.0
C2112 C 0.98916 0.24846 0.71451 0.0
C2113 C 0.99591 0.23673 0.73651 0.0
C2114 C 0.99647 0.21872 0.72312 0.0
C2115 C 0.00389 0.20856 0.75224 0.0
C2116 C 0.98579 0.18514 0.7611 0.0
C2117 C 0.0251 0.20921 0.74054 0.0
C2118 C 0.00775 0.22381 0.78416 0.0
C2119 C 0.00326 0.24008 0.7746 0.0
C2120 C 0.0065 0.25653 0.79937 0.0
C2121 C 0.01435 0.25619 0.83487 0.0
C2122 C 0.01859 0.23936 0.84528 0.0
C2123 C 0.0152 0.22302 0.81948 0.0
H2124 H 0.87508 0.52451 0.5167 0.0
H2125 H 0.93124 0.58683 0.48758 0.0
H2126 H 0.93024 0.60126 0.54945 0.0
H2127 H 0.84672 0.54497 0.5709 0.0
H2128 H 0.83747 0.52341 0.60463 0.0
H2129 H 0.84225 0.51846 0.55772 0.0
H2130 H 0.86897 0.50596 0.58072 0.0
H2131 H 0.86421 0.51078 0.62769 0.0
H2132 H 0.89163 0.52388 0.60978 0.0
H2133 H 0.92219 0.60892 0.61468 0.0
H2134 H 0.91007 0.60798 0.67923 0.0
H2135 H 0.86071 0.53989 0.66535 0.0
C2136 C 0.88711 0.54124 0.52322 0.0
C2137 C 0.90313 0.55463 0.4973 0.0
C2138 C 0.91882 0.57631 0.5071 0.0
C2139 C 0.91831 0.58466 0.54207 0.0
C2140 C 0.90219 0.57101 0.56696 0.0
C2141 C 0.88706 0.54968 0.55805 0.0
C2142 C 0.87202 0.53799 0.59008 0.0
C2143 C 0.84821 0.53079 0.58023 0.0
C2144 C 0.87436 0.51851 0.60281 0.0
C2145 C 0.88099 0.55606 0.61848 0.0
C2146 C 0.89821 0.57509 0.60461 0.0
C2147 C 0.9088 0.59406 0.62586 0.0
C2148 C 0.90177 0.59341 0.66239 0.0
C2149 C 0.88457 0.57384 0.67729 0.0
C2150 C 0.87404 0.55504 0.65483 0.0
H2151 H 0.46733 0.34255 0.50189 0.0
H2152 H 0.41001 0.34863 0.4844 0.0
H2153 H 0.39903 0.33801 0.54963 0.0
H2154 H 0.44389 0.29689 0.56218 0.0
H2155 H 0.46768 0.30698 0.59125 0.0
H2156 H 0.47063 0.31473 0.54335 0.0
H2157 H 0.49127 0.35562 0.56194 0.0
H2158 H 0.48853 0.34799 0.6099 0.0
H2159 H 0.47874 0.36566 0.59377 0.0
H2160 H 0.39342 0.32412 0.61618 0.0
H2161 H 0.39611 0.31303 0.68012 0.0
H2162 H 0.45883 0.31949 0.65387 0.0
C2163 C 0.45246 0.34165 0.51182 0.0
C2164 C 0.43935 0.34617 0.48826 0.0
C2165 C 0.42023 0.34521 0.50222 0.0
C2166 C 0.41385 0.33911 0.53907 0.0
C2167 C 0.42707 0.3345 0.56155 0.0
C2168 C 0.4462 0.33614 0.54854 0.0
C2169 C 0.45804 0.33123 0.57839 0.0
C2170 C 0.46017 0.31127 0.56817 0.0
C2171 C 0.48047 0.35132 0.58648 0.0
C2172 C 0.44248 0.32626 0.61022 0.0
C2173 C 0.42454 0.32791 0.59999 0.0
C2174 C 0.40754 0.32307 0.62459 0.0
C2175 C 0.40913 0.31669 0.66069 0.0
C2176 C 0.42777 0.31566 0.67182 0.0
C2177 C 0.44455 0.32047 0.64618 0.0
H2178 H 0.68242 0.09904 0.6593 0.0
H2179 H 0.69129 0.16377 0.67566 0.0
H2180 H 0.68325 0.16543 0.61008 0.0
H2181 H 0.70477 0.1078 0.56561 0.0
H2182 H 0.68475 0.08104 0.54942 0.0
H2183 H 0.69261 0.08517 0.59738 0.0
H2184 H 0.65214 0.06905 0.61625 0.0
H2185 H 0.64417 0.06499 0.56835 0.0
H2186 H 0.63666 0.08078 0.59764 0.0
H2187 H 0.67447 0.16073 0.5444 0.0
H2188 H 0.66371 0.14926 0.48022 0.0
H2189 H 0.65771 0.08633 0.50431 0.0
C2190 C 0.68292 0.1136 0.64875 0.0
C2191 C 0.68761 0.13137 0.67234 0.0
C2192 C 0.68772 0.15001 0.65797 0.0
C2193 C 0.68322 0.15114 0.62078 0.0
C2194 C 0.67834 0.13334 0.59831 0.0
C2195 C 0.67799 0.11484 0.61151 0.0
C2196 C 0.6711 0.09771 0.58124 0.0
C2197 C 0.6894 0.09264 0.57292 0.0
C2198 C 0.64975 0.0769 0.5915 0.0
C2199 C 0.66771 0.1096 0.5492 0.0
C2200 C 0.67224 0.1302 0.5599 0.0
C2201 C 0.67083 0.14463 0.5356 0.0
C2202 C 0.66473 0.13795 0.49916 0.0
C2203 C 0.65983 0.1169 0.48727 0.0
C2204 C 0.66117 0.10243 0.51275 0.0
H2205 H 0.45905 0.13279 0.14615 0.0
H2206 H 0.39167 0.08232 0.16303 0.0
H2207 H 0.38891 0.07204 0.09705 0.0
H2208 H 0.45079 0.14922 0.05595 0.0
H2209 H 0.47691 0.15453 0.03884 0.0
H2210 H 0.47342 0.15766 0.08728 0.0
H2211 H 0.48705 0.13076 0.10319 0.0
H2212 H 0.49056 0.12753 0.05482 0.0
H2213 H 0.4737 0.10391 0.08278 0.0
H2214 H 0.39445 0.06613 0.02975 0.0
H2215 H 0.40693 0.0669 0.96561 0.0
H2216 H 0.46986 0.12278 0.99305 0.0
C2217 C 0.4437 0.11955 0.13601 0.0
C2218 C 0.42561 0.10822 0.15967 0.0
C2219 C 0.40572 0.0912 0.14527 0.0
C2220 C 0.40402 0.08523 0.10792 0.0
C2221 C 0.42226 0.09669 0.08538 0.0
C2222 C 0.44163 0.11366 0.09883 0.0
C2223 C 0.45872 0.12367 0.06889 0.0
C2224 C 0.46534 0.14769 0.06236 0.0
C2225 C 0.47868 0.12131 0.07797 0.0
C2226 C 0.44606 0.10951 0.03651 0.0
C2227 C 0.42511 0.09393 0.04654 0.0
C2228 C 0.41073 0.07842 0.02149 0.0
C2229 C 0.41797 0.07893 0.98522 0.0
C2230 C 0.43927 0.09502 0.97437 0.0
C2231 C 0.45338 0.1105 0.00041 0.0
H2232 H 0.9104 0.321 0.15156 0.0
H2233 H 0.86926 0.34709 0.18695 0.0
H2234 H 0.87056 0.36107 0.1245 0.0
H2235 H 0.94435 0.36609 0.08724 0.0
H2236 H 0.94612 0.34816 0.05381 0.0
H2237 H 0.94346 0.34135 0.1022 0.0
H2238 H 0.90924 0.30399 0.08802 0.0
H2239 H 0.91173 0.31071 0.03967 0.0
H2240 H 0.88663 0.30319 0.06364 0.0
H2241 H 0.87291 0.36907 0.05847 0.0
H2242 H 0.87811 0.37281 0.99122 0.0
H2243 H 0.91916 0.34341 0.99665 0.0
C2244 C 0.90195 0.32993 0.14626 0.0
C2245 C 0.88969 0.33288 0.17426 0.0
C2246 C 0.87873 0.34454 0.1661 0.0
C2247 C 0.87939 0.35262 0.13067 0.0
C2248 C 0.89124 0.34912 0.10364 0.0
C2249 C 0.90252 0.33828 0.11087 0.0
C2250 C 0.91333 0.3362 0.07607 0.0
C2251 C 0.9383 0.3487 0.08008 0.0
C2252 C 0.90471 0.31209 0.06628 0.0
C2253 C 0.90586 0.34711 0.04816 0.0
C2254 C 0.89314 0.3544 0.06493 0.0
C2255 C 0.8831 0.36375 0.04502 0.0
C2256 C 0.88605 0.36567 0.00683 0.0
C2257 C 0.8991 0.35849 0.98889 0.0
C2258 C 0.90937 0.34932 0.00986 0.0
H2259 H 0.67744 0.52991 0.1581 0.0
H2260 H 0.69829 0.59777 0.18108 0.0
H2261 H 0.68917 0.60234 0.11689 0.0
H2262 H 0.69909 0.53891 0.0653 0.0
H2263 H 0.6769 0.51356 0.04816 0.0
H2264 H 0.68505 0.51585 0.09581 0.0
H2265 H 0.64549 0.50367 0.11632 0.0
H2266 H 0.63722 0.50141 0.06876 0.0
H2267 H 0.63254 0.51848 0.09997 0.0
H2268 H 0.67553 0.59857 0.05101 0.0
H2269 H 0.66162 0.58771 0.98722 0.0
H2270 H 0.65213 0.52306 0.00737 0.0
C2271 C 0.6801 0.54575 0.14964 0.0
C2272 C 0.68841 0.56346 0.17451 0.0
C2273 C 0.69195 0.58401 0.16233 0.0
C2274 C 0.68676 0.58673 0.12603 0.0
C2275 C 0.67841 0.56883 0.10226 0.0
C2276 C 0.6754 0.54883 0.11348 0.0
C2277 C 0.66662 0.53228 0.08253 0.0
C2278 C 0.68289 0.52472 0.07235 0.0
C2279 C 0.64413 0.51282 0.0925 0.0
C2280 C 0.66487 0.54599 0.05221 0.0
C2281 C 0.67155 0.56697 0.06412 0.0
C2282 C 0.67049 0.58226 0.04126 0.0
C2283 C 0.66251 0.57594 0.00519 0.0
C2284 C 0.65601 0.55464 0.99237 0.0
C2285 C 0.65728 0.53957 0.01626 0.0
H2286 H 0.54985 0.91728 0.98555 0.0
H2287 H 0.58989 0.89469 0.03832 0.0
H2288 H 0.60556 0.89383 0.97771 0.0
H2289 H 0.53505 0.88163 0.91189 0.0
H2290 H 0.53447 0.89993 0.87789 0.0
H2291 H 0.52976 0.90303 0.9257 0.0
H2292 H 0.56125 0.94324 0.92422 0.0
H2293 H 0.56607 0.94024 0.87626 0.0
H2294 H 0.58801 0.94935 0.90922 0.0
H2295 H 0.61447 0.89239 0.91104 0.0
H2296 H 0.61281 0.88642 0.84354 0.0
H2297 H 0.56473 0.90712 0.83419 0.0
C2298 C 0.56244 0.91285 0.98433 0.0
C2299 C 0.56906 0.90647 0.01644 0.0
C2300 C 0.58486 0.89986 0.01389 0.0
C2301 C 0.59391 0.89945 0.97968 0.0
C2302 C 0.58674 0.90541 0.94827 0.0
C2303 C 0.5712 0.9118 0.95025 0.0
C2304 C 0.56401 0.91439 0.91213 0.0
C2305 C 0.53937 0.89881 0.90659 0.0
C2306 C 0.57021 0.93823 0.90505 0.0
C2307 C 0.57744 0.90786 0.88846 0.0
C2308 C 0.59091 0.90334 0.90974 0.0
C2309 C 0.60414 0.89608 0.89405 0.0
C2310 C 0.60315 0.89279 0.8557 0.0
C2311 C 0.58864 0.89629 0.83371 0.0
C2312 C 0.57603 0.90437 0.85033 0.0
H2313 H 0.07716 0.65342 0.98416 0.0
H2314 H 0.13133 0.64168 -0.00078 0.0
H2315 H 0.14128 0.65026 0.934 0.0
H2316 H 0.06293 0.63193 0.89039 0.0
H2317 H 0.05721 0.65275 0.87471 0.0
H2318 H 0.05327 0.64466 0.92255 0.0
H2319 H 0.0789 0.68482 0.9421 0.0
H2320 H 0.08294 0.69303 0.89434 0.0
H2321 H 0.10612 0.69956 0.92337 0.0
H2322 H 0.14579 0.65977 0.86885 0.0
H2323 H 0.14605 0.67186 0.80548 0.0
H2324 H 0.09021 0.67967 0.83015 0.0
C2325 C 0.09098 0.65252 0.97349 0.0
C2326 C 0.10347 0.64686 0.99671 0.0
C2327 C 0.12162 0.64611 0.98201 0.0
C2328 C 0.12736 0.65085 0.94495 0.0
C2329 C 0.11495 0.65656 0.92288 0.0
C2330 C 0.09725 0.65763 0.93636 0.0
C2331 C 0.08748 0.66523 0.90644 0.0
C2332 C 0.06381 0.64758 0.89803 0.0
C2333 C 0.08896 0.68695 0.91721 0.0
C2334 C 0.10251 0.66819 0.87427 0.0
C2335 C 0.11805 0.66286 0.88461 0.0
C2336 C 0.13374 0.66402 0.86029 0.0
C2337 C 0.13369 0.6709 0.82424 0.0
C2338 C 0.11815 0.67675 0.81269 0.0
C2339 C 0.10232 0.67538 0.83815 0.0
H2340 H 0.34784 0.43752 0.99016 0.0
H2341 H 0.37607 0.50788 0.99425 0.0
H2342 H 0.36621 0.50803 0.92921 0.0
H2343 H 0.3625 0.4342 0.89311 0.0
H2344 H 0.33705 0.40963 0.88365 0.0
H2345 H 0.3483 0.41494 0.92965 0.0
H2346 H 0.31229 0.41091 0.9552 0.0
H2347 H 0.30097 0.40568 0.90931 0.0
H2348 H 0.30196 0.42756 0.93633 0.0
H2349 H 0.35215 0.50109 0.86636 0.0
H2350 H 0.33327 0.48731 0.80743 0.0
H2351 H 0.31212 0.42079 0.84215 0.0
C2352 C 0.35227 0.45292 0.97697 0.0
C2353 C 0.36283 0.47273 0.99699 0.0
C2354 C 0.36796 0.49256 0.97931 0.0
C2355 C 0.36252 0.49283 0.94237 0.0
C2356 C 0.35178 0.47309 0.92351 0.0
C2357 C 0.34659 0.45346 0.93998 0.0
C2358 C 0.33354 0.43454 0.91371 0.0
C2359 C 0.3461 0.42263 0.90448 0.0
C2360 C 0.31084 0.41875 0.9296 0.0
C2361 C 0.332 0.4467 0.88033 0.0
C2362 C 0.34293 0.46893 0.88671 0.0
C2363 C 0.34361 0.48373 0.86083 0.0
C2364 C 0.33274 0.47566 0.82739 0.0
C2365 C 0.32113 0.45291 0.82002 0.0
C2366 C 0.32087 0.43824 0.84688 0.0
H2367 H 0.08629 0.43333 0.48638 0.0
H2368 H 0.14902 0.48753 0.52051 0.0
H2369 H 0.16447 0.48718 0.46011 0.0
H2370 H 0.10893 0.40525 0.43183 0.0
H2371 H 0.0883 0.39664 0.39648 0.0
H2372 H 0.082 0.40014 0.44332 0.0
H2373 H 0.06961 0.427 0.42078 0.0
H2374 H 0.07585 0.42356 0.37393 0.0
H2375 H 0.08811 0.45049 0.39388 0.0
H2376 H 0.17258 0.48371 0.39561 0.0
H2377 H 0.17338 0.4759 0.32948 0.0
H2378 H 0.10657 0.42253 0.33602 0.0
C2379 C 0.1033 0.44498 0.48119 0.0
C2380 C 0.11641 0.46046 0.50827 0.0
C2381 C 0.13862 0.47545 0.50038 0.0
C2382 C 0.14761 0.47541 0.46611 0.0
C2383 C 0.1343 0.4601 0.44003 0.0
C2384 C 0.1127 0.44502 0.44704 0.0
C2385 C 0.10204 0.43072 0.41345 0.0
C2386 C 0.0949 0.40677 0.42178 0.0
C2387 C 0.08276 0.4331 0.39971 0.0
C2388 C 0.12092 0.44058 0.38634 0.0
C2389 C 0.13933 0.4575 0.40249 0.0
C2390 C 0.15843 0.47026 0.38273 0.0
C2391 C 0.15872 0.46576 0.34527 0.0
C2392 C 0.14016 0.44849 0.3281 0.0
C2393 C 0.1211 0.4355 0.34892 0.0
H2394 H 0.57766 0.70651 0.36691 0.0
H2395 H 0.5675 0.64712 0.31457 0.0
H2396 H 0.56079 0.62916 0.37581 0.0
H2397 H 0.60297 0.70173 0.45352 0.0
H2398 H 0.58897 0.71202 0.4813 0.0
H2399 H 0.59611 0.72101 0.4342 0.0
H2400 H 0.55565 0.70869 0.42002 0.0
H2401 H 0.54841 0.69967 0.46694 0.0
H2402 H 0.53488 0.68091 0.42945 0.0
H2403 H 0.55287 0.6172 0.44203 0.0
H2404 H 0.54134 0.61099 0.5074 0.0
H2405 H 0.55472 0.67779 0.51555 0.0
C2406 C 0.57454 0.6899 0.36868 0.0
C2407 C 0.57343 0.67815 0.33666 0.0
C2408 C 0.56866 0.65628 0.33926 0.0
C2409 C 0.56492 0.64606 0.37379 0.0
C2410 C 0.56588 0.65799 0.4051 0.0
C2411 C 0.57046 0.6794 0.40283 0.0
C2412 C 0.56831 0.68788 0.44 0.0
C2413 C 0.59041 0.70678 0.45302 0.0
C2414 C 0.55077 0.69467 0.43902 0.0
C2415 C 0.5612 0.66772 0.46335 0.0
C2416 C 0.56038 0.65081 0.44294 0.0
C2417 C 0.5536 0.63036 0.45837 0.0
C2418 C 0.54713 0.627 0.4955 0.0
C2419 C 0.5471 0.6439 0.51643 0.0
C2420 C 0.55456 0.66457 0.5002 0.0
H2421 H 0.32798 0.89234 0.32929 0.0
H2422 H 0.33427 0.83517 0.30915 0.0
H2423 H 0.34685 0.83686 0.37297 0.0
H2424 H 0.37614 0.92038 0.38994 0.0
H2425 H 0.36334 0.93108 0.41979 0.0
H2426 H 0.35598 0.92632 0.37164 0.0
H2427 H 0.31537 0.90174 0.38966 0.0
H2428 H 0.3226 0.90637 0.4378 0.0
H2429 H 0.30774 0.87889 0.42013 0.0
H2430 H 0.35514 0.84218 0.4396 0.0
H2431 H 0.36109 0.85244 0.50541 0.0
H2432 H 0.35166 0.90741 0.48292 0.0
C2433 C 0.33223 0.88033 0.3382 0.0
C2434 C 0.33009 0.8636 0.31417 0.0
C2435 C 0.3358 0.84818 0.32693 0.0
C2436 C 0.34298 0.84898 0.36317 0.0
C2437 C 0.34464 0.86546 0.38624 0.0
C2438 C 0.33969 0.88102 0.3743 0.0
C2439 C 0.34244 0.89665 0.40526 0.0
C2440 C 0.36055 0.91999 0.3961 0.0
C2441 C 0.32074 0.89585 0.4137 0.0
C2442 C 0.34916 0.88705 0.43659 0.0
C2443 C 0.35029 0.86905 0.42487 0.0
C2444 C 0.35468 0.85645 0.44906 0.0
C2445 C 0.35793 0.86234 0.48635 0.0
C2446 C 0.35702 0.8808 0.499 0.0
C2447 C 0.35285 0.89347 0.47373 0.0
loop_
_geom_bond_atom_site_label_1
_geom_bond_atom_site_label_2
_geom_bond_distance
_geom_bond_site_symmetry_2
_ccdc_geom_bond_type
O0 Cd1 2.223 . S
O0 C8 1.315 . S
Cd1 O0 2.223 . S
Cd1 O4 2.297 . S
Cd1 O5 2.439 1_554 S
Cd1 O11 2.240 . S
Cd2 O3 2.240 . S
Cd2 O10 2.223 . S
Cd2 O12 2.297 . S
Cd2 O13 2.439 . S
O3 Cd2 2.240 . S
O3 C8 1.279 . S
O4 Cd1 2.297 . S
O4 C6 1.247 1_554 S
O5 Cd1 2.439 1_556 S
O5 C6 1.208 . S
C6 O4 1.247 1_556 S
C6 O5 1.208 . S
C7 O12 1.247 . S
C7 O13 1.208 . S
C8 O0 1.315 . S
C8 O3 1.279 . S
C9 O10 1.315 . S
C9 O11 1.279 . S
O10 Cd2 2.223 . S
O10 C9 1.315 . S
O11 Cd1 2.240 . S
O11 C9 1.279 . S
O12 Cd2 2.297 . S
O12 C7 1.247 . S
O13 Cd2 2.439 . S
O13 C7 1.208 . S
O14 Cd15 2.223 . S
O14 C22 1.315 . S
Cd15 O14 2.223 . S
Cd15 O18 2.297 . S
Cd15 O19 2.439 1_554 S
Cd15 O25 2.209 1_545 S
Cd16 O17 2.240 1_565 S
Cd16 O24 2.223 1_565 S
Cd16 O26 2.297 . S
Cd16 O27 2.439 . S
O17 Cd16 2.240 1_545 S
O17 C22 1.279 . S
O18 Cd15 2.297 . S
O18 C20 1.247 1_554 S
O19 Cd15 2.439 1_556 S
O19 C20 1.208 . S
C20 O18 1.247 1_556 S
C20 O19 1.208 . S
C21 O26 1.247 . S
C21 O27 1.208 . S
C22 O14 1.315 . S
C22 O17 1.279 . S
C23 O24 1.315 . S
C23 O25 1.287 1_545 S
O24 Cd16 2.223 1_545 S
O24 C23 1.315 . S
O25 Cd15 2.209 1_565 S
O25 C23 1.287 1_565 S
O26 Cd16 2.297 . S
O26 C21 1.247 . S
O27 Cd16 2.439 . S
O27 C21 1.208 . S
O28 Cd29 2.223 . S
O28 C36 1.315 . S
Cd29 O28 2.223 . S
Cd29 O32 2.297 . S
Cd29 O33 2.439 1_554 S
Cd29 O39 2.231 1_655 S
Cd30 O31 2.240 1_455 S
Cd30 O38 2.223 1_455 S
Cd30 O40 2.297 . S
Cd30 O41 2.439 . S
O31 Cd30 2.240 1_655 S
O31 C36 1.279 . S
O32 Cd29 2.297 . S
O32 C34 1.247 1_554 S
O33 Cd29 2.439 1_556 S
O33 C34 1.208 . S
C34 O32 1.247 1_556 S
C34 O33 1.208 . S
C35 O40 1.247 . S
C35 O41 1.208 . S
C36 O28 1.315 . S
C36 O31 1.279 . S
C37 O38 1.315 . S
C37 O39 1.261 1_655 S
O38 Cd30 2.223 1_655 S
O38 C37 1.315 . S
O39 Cd29 2.231 1_455 S
O39 C37 1.261 1_455 S
O40 Cd30 2.297 . S
O40 C35 1.247 . S
O41 Cd30 2.439 . S
O41 C35 1.208 . S
O42 Cd43 2.223 . S
O42 C50 1.315 . S
Cd43 O42 2.223 . S
Cd43 O46 2.297 . S
Cd43 O47 2.439 . S
Cd43 O53 2.240 . S
Cd44 O45 2.240 . S
Cd44 O52 2.223 . S
Cd44 O54 2.297 . S
Cd44 O55 2.439 . S
O45 Cd44 2.240 . S
O45 C50 1.279 . S
O46 Cd43 2.297 . S
O46 C48 1.247 . S
O47 Cd43 2.439 . S
O47 C48 1.208 . S
C48 O46 1.247 . S
C48 O47 1.208 . S
C49 O54 1.247 . S
C49 O55 1.208 . S
C50 O42 1.315 . S
C50 O45 1.279 . S
C51 O52 1.315 . S
C51 O53 1.279 . S
O52 Cd44 2.223 . S
O52 C51 1.315 . S
O53 Cd43 2.240 . S
O53 C51 1.279 . S
O54 Cd44 2.297 . S
O54 C49 1.247 . S
O55 Cd44 2.439 . S
O55 C49 1.208 . S
O56 Cd57 2.223 . S
O56 C64 1.315 . S
Cd57 O56 2.223 . S
Cd57 O60 2.297 . S
Cd57 O61 2.439 . S
Cd57 O67 2.231 1_565 S
Cd58 O59 2.240 1_545 S
Cd58 O66 2.223 1_545 S
Cd58 O68 2.297 . S
Cd58 O69 2.439 . S
O59 Cd58 2.240 1_565 S
O59 C64 1.279 . S
O60 Cd57 2.297 . S
O60 C62 1.247 . S
O61 Cd57 2.439 . S
O61 C62 1.208 . S
C62 O60 1.247 . S
C62 O61 1.208 . S
C63 O68 1.247 . S
C63 O69 1.208 . S
C64 O56 1.315 . S
C64 O59 1.279 . S
C65 O66 1.315 . S
C65 O67 1.261 1_565 S
O66 Cd58 2.223 1_565 S
O66 C65 1.315 . S
O67 Cd57 2.231 1_545 S
O67 C65 1.261 1_545 S
O68 Cd58 2.297 . S
O68 C63 1.247 . S
O69 Cd58 2.439 . S
O69 C63 1.208 . S
O70 Cd71 2.223 . S
O70 C78 1.315 . S
Cd71 O70 2.223 . S
Cd71 O74 2.297 . S
Cd71 O75 2.439 . S
Cd71 O81 2.209 1_455 S
Cd72 O73 2.240 1_655 S
Cd72 O80 2.223 1_655 S
Cd72 O82 2.297 . S
Cd72 O83 2.439 . S
O73 Cd72 2.240 1_455 S
O73 C78 1.279 . S
O74 Cd71 2.297 . S
O74 C76 1.247 . S
O75 Cd71 2.439 . S
O75 C76 1.208 . S
C76 O74 1.247 . S
C76 O75 1.208 . S
C77 O82 1.247 . S
C77 O83 1.208 . S
C78 O70 1.315 . S
C78 O73 1.279 . S
C79 O80 1.315 . S
C79 O81 1.287 1_455 S
O80 Cd72 2.223 1_455 S
O80 C79 1.315 . S
O81 Cd71 2.209 1_655 S
O81 C79 1.287 1_655 S
O82 Cd72 2.297 . S
O82 C77 1.247 . S
O83 Cd72 2.439 . S
O83 C77 1.208 . S
O84 Cd85 2.223 . S
O84 C92 1.315 . S
Cd85 O84 2.223 . S
Cd85 O88 2.297 . S
Cd85 O89 2.439 1_556 S
Cd85 O95 2.240 . S
Cd86 O87 2.240 . S
Cd86 O94 2.223 . S
Cd86 O96 2.297 . S
Cd86 O97 2.439 . S
O87 Cd86 2.240 . S
O87 C92 1.279 . S
O88 Cd85 2.297 . S
O88 C90 1.247 1_556 S
O89 Cd85 2.439 1_554 S
O89 C90 1.208 . S
C90 O88 1.247 1_554 S
C90 O89 1.208 . S
C91 O96 1.247 . S
C91 O97 1.208 . S
C92 O84 1.315 . S
C92 O87 1.279 . S
C93 O94 1.315 . S
C93 O95 1.279 . S
O94 Cd86 2.223 . S
O94 C93 1.315 . S
O95 Cd85 2.240 . S
O95 C93 1.279 . S
O96 Cd86 2.297 . S
O96 C91 1.247 . S
O97 Cd86 2.439 . S
O97 C91 1.208 . S
O98 Cd99 2.223 . S
O98 C106 1.315 . S
Cd99 O98 2.223 . S
Cd99 O102 2.297 . S
Cd99 O103 2.439 1_556 S
Cd99 O109 2.209 1_565 S
Cd100 O101 2.240 1_545 S
Cd100 O108 2.223 1_545 S
Cd100 O110 2.297 . S
Cd100 O111 2.439 . S
O101 Cd100 2.240 1_565 S
O101 C106 1.279 . S
O102 Cd99 2.297 . S
O102 C104 1.247 1_556 S
O103 Cd99 2.439 1_554 S
O103 C104 1.208 . S
C104 O102 1.247 1_554 S
C104 O103 1.208 . S
C105 O110 1.247 . S
C105 O111 1.208 . S
C106 O98 1.315 . S
C106 O101 1.279 . S
C107 O108 1.315 . S
C107 O109 1.287 1_565 S
O108 Cd100 2.223 1_565 S
O108 C107 1.315 . S
O109 Cd99 2.209 1_545 S
O109 C107 1.287 1_545 S
O110 Cd100 2.297 . S
O110 C105 1.247 . S
O111 Cd100 2.439 . S
O111 C105 1.208 . S
O112 Cd113 2.223 . S
O112 C120 1.315 . S
Cd113 O112 2.223 . S
Cd113 O116 2.297 . S
Cd113 O117 2.439 1_556 S
Cd113 O123 2.231 1_455 S
Cd114 O115 2.240 1_655 S
Cd114 O122 2.223 1_655 S
Cd114 O124 2.297 . S
Cd114 O125 2.439 . S
O115 Cd114 2.240 1_455 S
O115 C120 1.279 . S
O116 Cd113 2.297 . S
O116 C118 1.247 1_556 S
O117 Cd113 2.439 1_554 S
O117 C118 1.208 . S
C118 O116 1.247 1_554 S
C118 O117 1.208 . S
C119 O124 1.247 . S
C119 O125 1.208 . S
C120 O112 1.315 . S
C120 O115 1.279 . S
C121 O122 1.315 . S
C121 O123 1.261 1_455 S
O122 Cd114 2.223 1_455 S
O122 C121 1.315 . S
O123 Cd113 2.231 1_655 S
O123 C121 1.261 1_655 S
O124 Cd114 2.297 . S
O124 C119 1.247 . S
O125 Cd114 2.439 . S
O125 C119 1.208 . S
O126 Cd127 2.223 . S
O126 C134 1.315 . S
Cd127 O126 2.223 . S
Cd127 O130 2.297 . S
Cd127 O131 2.439 . S
Cd127 O137 2.240 . S
Cd128 O129 2.240 . S
Cd128 O136 2.223 . S
Cd128 O138 2.297 . S
Cd128 O139 2.439 . S
O129 Cd128 2.240 . S
O129 C134 1.279 . S
O130 Cd127 2.297 . S
O130 C132 1.247 . S
O131 Cd127 2.439 . S
O131 C132 1.208 . S
C132 O130 1.247 . S
C132 O131 1.208 . S
C133 O138 1.247 . S
C133 O139 1.208 . S
C134 O126 1.315 . S
C134 O129 1.279 . S
C135 O136 1.315 . S
C135 O137 1.279 . S
O136 Cd128 2.223 . S
O136 C135 1.315 . S
O137 Cd127 2.240 . S
O137 C135 1.279 . S
O138 Cd128 2.297 . S
O138 C133 1.247 . S
O139 Cd128 2.439 . S
O139 C133 1.208 . S
O140 Cd141 2.223 . S
O140 C148 1.315 . S
Cd141 O140 2.223 . S
Cd141 O144 2.297 . S
Cd141 O145 2.439 . S
Cd141 O151 2.231 1_545 S
Cd142 O143 2.240 1_565 S
Cd142 O150 2.223 1_565 S
Cd142 O152 2.297 . S
Cd142 O153 2.439 . S
O143 Cd142 2.240 1_545 S
O143 C148 1.279 . S
O144 Cd141 2.297 . S
O144 C146 1.247 . S
O145 Cd141 2.439 . S
O145 C146 1.208 . S
C146 O144 1.247 . S
C146 O145 1.208 . S
C147 O152 1.247 . S
C147 O153 1.208 . S
C148 O140 1.315 . S
C148 O143 1.279 . S
C149 O150 1.315 . S
C149 O151 1.261 1_545 S
O150 Cd142 2.223 1_545 S
O150 C149 1.315 . S
O151 Cd141 2.231 1_565 S
O151 C149 1.261 1_565 S
O152 Cd142 2.297 . S
O152 C147 1.247 . S
O153 Cd142 2.439 . S
O153 C147 1.208 . S
O154 Cd155 2.223 . S
O154 C162 1.315 . S
Cd155 O154 2.223 . S
Cd155 O158 2.297 . S
Cd155 O159 2.439 . S
Cd155 O165 2.209 1_655 S
Cd156 O157 2.240 1_455 S
Cd156 O164 2.223 1_455 S
Cd156 O166 2.297 . S
Cd156 O167 2.439 . S
O157 Cd156 2.240 1_655 S
O157 C162 1.279 . S
O158 Cd155 2.297 . S
O158 C160 1.247 . S
O159 Cd155 2.439 . S
O159 C160 1.208 . S
C160 O158 1.247 . S
C160 O159 1.208 . S
C161 O166 1.247 . S
C161 O167 1.208 . S
C162 O154 1.315 . S
C162 O157 1.279 . S
C163 O164 1.315 . S
C163 O165 1.287 1_655 S
O164 Cd156 2.223 1_655 S
O164 C163 1.315 . S
O165 Cd155 2.209 1_455 S
O165 C163 1.287 1_455 S
O166 Cd156 2.297 . S
O166 C161 1.247 . S
O167 Cd156 2.439 . S
O167 C161 1.208 . S
O168 Cd169 2.223 . S
O168 C176 1.315 . S
Cd169 O168 2.223 . S
Cd169 O172 2.297 . S
Cd169 O173 2.439 . S
Cd169 O179 2.240 . S
Cd170 O171 2.240 . S
Cd170 O178 2.223 . S
Cd170 O180 2.297 . S
Cd170 O181 2.439 . S
O171 Cd170 2.240 . S
O171 C176 1.279 . S
O172 Cd169 2.297 . S
O172 C174 1.247 . S
O173 Cd169 2.439 . S
O173 C174 1.208 . S
C174 O172 1.247 . S
C174 O173 1.208 . S
C175 O180 1.247 . S
C175 O181 1.208 . S
C176 O168 1.315 . S
C176 O171 1.279 . S
C177 O178 1.315 . S
C177 O179 1.279 . S
O178 Cd170 2.223 . S
O178 C177 1.315 . S
O179 Cd169 2.240 . S
O179 C177 1.279 . S
O180 Cd170 2.297 . S
O180 C175 1.247 . S
O181 Cd170 2.439 . S
O181 C175 1.208 . S
O182 Cd183 2.223 . S
O182 C190 1.315 . S
Cd183 O182 2.223 . S
Cd183 O186 2.297 . S
Cd183 O187 2.439 . S
Cd183 O193 2.240 . S
Cd184 O185 2.240 . S
Cd184 O192 2.223 . S
Cd184 O194 2.297 . S
Cd184 O195 2.439 . S
O185 Cd184 2.240 . S
O185 C190 1.279 . S
O186 Cd183 2.297 . S
O186 C188 1.247 . S
O187 Cd183 2.439 . S
O187 C188 1.208 . S
C188 O186 1.247 . S
C188 O187 1.208 . S
C189 O194 1.247 . S
C189 O195 1.208 . S
C190 O182 1.315 . S
C190 O185 1.279 . S
C191 O192 1.315 . S
C191 O193 1.279 . S
O192 Cd184 2.223 . S
O192 C191 1.315 . S
O193 Cd183 2.240 . S
O193 C191 1.279 . S
O194 Cd184 2.297 . S
O194 C189 1.247 . S
O195 Cd184 2.439 . S
O195 C189 1.208 . S
O196 Cd197 2.223 . S
O196 C204 1.315 . S
Cd197 O196 2.223 . S
Cd197 O200 2.297 . S
Cd197 O201 2.439 . S
Cd197 O207 2.240 . S
Cd198 O199 2.240 . S
Cd198 O206 2.223 . S
Cd198 O208 2.297 . S
Cd198 O209 2.439 . S
O199 Cd198 2.240 . S
O199 C204 1.279 . S
O200 Cd197 2.297 . S
O200 C202 1.247 . S
O201 Cd197 2.439 . S
O201 C202 1.208 . S
C202 O200 1.247 . S
C202 O201 1.208 . S
C203 O208 1.247 . S
C203 O209 1.208 . S
C204 O196 1.315 . S
C204 O199 1.279 . S
C205 O206 1.315 . S
C205 O207 1.279 . S
O206 Cd198 2.223 . S
O206 C205 1.315 . S
O207 Cd197 2.240 . S
O207 C205 1.279 . S
O208 Cd198 2.297 . S
O208 C203 1.247 . S
O209 Cd198 2.439 . S
O209 C203 1.208 . S
O210 Cd211 2.223 . S
O210 C218 1.315 . S
Cd211 O210 2.223 . S
Cd211 O214 2.297 . S
Cd211 O215 2.439 . S
Cd211 O221 2.240 . S
Cd212 O213 2.240 . S
Cd212 O220 2.223 . S
Cd212 O222 2.297 . S
Cd212 O223 2.439 . S
O213 Cd212 2.240 . S
O213 C218 1.279 . S
O214 Cd211 2.297 . S
O214 C216 1.247 . S
O215 Cd211 2.439 . S
O215 C216 1.208 . S
C216 O214 1.247 . S
C216 O215 1.208 . S
C217 O222 1.247 . S
C217 O223 1.208 . S
C218 O210 1.315 . S
C218 O213 1.279 . S
C219 O220 1.315 . S
C219 O221 1.279 . S
O220 Cd212 2.223 . S
O220 C219 1.315 . S
O221 Cd211 2.240 . S
O221 C219 1.279 . S
O222 Cd212 2.297 . S
O222 C217 1.247 . S
O223 Cd212 2.439 . S
O223 C217 1.208 . S
O224 Cd225 2.223 . S
O224 C232 1.315 . S
Cd225 O224 2.223 . S
Cd225 O228 2.297 . S
Cd225 O229 2.439 . S
Cd225 O235 2.240 . S
Cd226 O227 2.240 . S
Cd226 O234 2.223 . S
Cd226 O236 2.297 . S
Cd226 O237 2.439 . S
O227 Cd226 2.240 . S
O227 C232 1.279 . S
O228 Cd225 2.297 . S
O228 C230 1.247 . S
O229 Cd225 2.439 . S
O229 C230 1.208 . S
C230 O228 1.247 . S
C230 O229 1.208 . S
C231 O236 1.247 . S
C231 O237 1.208 . S
C232 O224 1.315 . S
C232 O227 1.279 . S
C233 O234 1.315 . S
C233 O235 1.279 . S
O234 Cd226 2.223 . S
O234 C233 1.315 . S
O235 Cd225 2.240 . S
O235 C233 1.279 . S
O236 Cd226 2.297 . S
O236 C231 1.247 . S
O237 Cd226 2.439 . S
O237 C231 1.208 . S
O238 Cd239 2.223 . S
O238 C246 1.315 . S
Cd239 O238 2.223 . S
Cd239 O242 2.297 . S
Cd239 O243 2.439 . S
Cd239 O249 2.240 . S
Cd240 O241 2.240 . S
Cd240 O248 2.223 . S
Cd240 O250 2.297 . S
Cd240 O251 2.439 . S
O241 Cd240 2.240 . S
O241 C246 1.279 . S
O242 Cd239 2.297 . S
O242 C244 1.247 . S
O243 Cd239 2.439 . S
O243 C244 1.208 . S
C244 O242 1.247 . S
C244 O243 1.208 . S
C245 O250 1.247 . S
C245 O251 1.208 . S
C246 O238 1.315 . S
C246 O241 1.279 . S
C247 O248 1.315 . S
C247 O249 1.279 . S
O248 Cd240 2.223 . S
O248 C247 1.315 . S
O249 Cd239 2.240 . S
O249 C247 1.279 . S
O250 Cd240 2.297 . S
O250 C245 1.247 . S
O251 Cd240 2.439 . S
O251 C245 1.208 . S
O252 Cd253 2.223 . S
O252 C260 1.315 . S
Cd253 O252 2.223 . S
Cd253 O256 2.297 . S
Cd253 O257 2.439 . S
Cd253 O263 2.240 . S
Cd254 O255 2.240 . S
Cd254 O262 2.223 . S
Cd254 O264 2.297 . S
Cd254 O265 2.439 . S
O255 Cd254 2.240 . S
O255 C260 1.279 . S
O256 Cd253 2.297 . S
O256 C258 1.247 . S
O257 Cd253 2.439 . S
O257 C258 1.208 . S
C258 O256 1.247 . S
C258 O257 1.208 . S
C259 O264 1.247 . S
C259 O265 1.208 . S
C260 O252 1.315 . S
C260 O255 1.279 . S
C261 O262 1.315 . S
C261 O263 1.279 . S
O262 Cd254 2.223 . S
O262 C261 1.315 . S
O263 Cd253 2.240 . S
O263 C261 1.279 . S
O264 Cd254 2.297 . S
O264 C259 1.247 . S
O265 Cd254 2.439 . S
O265 C259 1.208 . S
O266 Cd267 2.223 . S
O266 C274 1.315 . S
Cd267 O266 2.223 . S
Cd267 O270 2.297 . S
Cd267 O271 2.439 . S
Cd267 O277 2.240 . S
Cd268 O269 2.240 . S
Cd268 O276 2.223 . S
Cd268 O278 2.297 . S
Cd268 O279 2.439 . S
O269 Cd268 2.240 . S
O269 C274 1.279 . S
O270 Cd267 2.297 . S
O270 C272 1.247 . S
O271 Cd267 2.439 . S
O271 C272 1.208 . S
C272 O270 1.247 . S
C272 O271 1.208 . S
C273 O278 1.247 . S
C273 O279 1.208 . S
C274 O266 1.315 . S
C274 O269 1.279 . S
C275 O276 1.315 . S
C275 O277 1.279 . S
O276 Cd268 2.223 . S
O276 C275 1.315 . S
O277 Cd267 2.240 . S
O277 C275 1.279 . S
O278 Cd268 2.297 . S
O278 C273 1.247 . S
O279 Cd268 2.439 . S
O279 C273 1.208 . S
O280 Cd281 2.223 . S
O280 C288 1.315 . S
Cd281 O280 2.223 . S
Cd281 O284 2.297 . S
Cd281 O285 2.439 . S
Cd281 O291 2.240 . S
Cd282 O283 2.240 . S
Cd282 O290 2.223 . S
Cd282 O292 2.297 . S
Cd282 O293 2.439 . S
O283 Cd282 2.240 . S
O283 C288 1.279 . S
O284 Cd281 2.297 . S
O284 C286 1.247 . S
O285 Cd281 2.439 . S
O285 C286 1.208 . S
C286 O284 1.247 . S
C286 O285 1.208 . S
C287 O292 1.247 . S
C287 O293 1.208 . S
C288 O280 1.315 . S
C288 O283 1.279 . S
C289 O290 1.315 . S
C289 O291 1.279 . S
O290 Cd282 2.223 . S
O290 C289 1.315 . S
O291 Cd281 2.240 . S
O291 C289 1.279 . S
O292 Cd282 2.297 . S
O292 C287 1.247 . S
O293 Cd282 2.439 . S
O293 C287 1.208 . S
O294 Cd295 2.223 . S
O294 C302 1.315 . S
Cd295 O294 2.223 . S
Cd295 O298 2.297 . S
Cd295 O299 2.439 . S
Cd295 O305 2.240 . S
Cd296 O297 2.240 . S
Cd296 O304 2.223 . S
Cd296 O306 2.297 . S
Cd296 O307 2.439 . S
O297 Cd296 2.240 . S
O297 C302 1.279 . S
O298 Cd295 2.297 . S
O298 C300 1.247 . S
O299 Cd295 2.439 . S
O299 C300 1.208 . S
C300 O298 1.247 . S
C300 O299 1.208 . S
C301 O306 1.247 . S
C301 O307 1.208 . S
C302 O294 1.315 . S
C302 O297 1.279 . S
C303 O304 1.315 . S
C303 O305 1.279 . S
O304 Cd296 2.223 . S
O304 C303 1.315 . S
O305 Cd295 2.240 . S
O305 C303 1.279 . S
O306 Cd296 2.297 . S
O306 C301 1.247 . S
O307 Cd296 2.439 . S
O307 C301 1.208 . S
O308 Cd309 2.223 . S
O308 C316 1.315 . S
Cd309 O308 2.223 . S
Cd309 O312 2.297 . S
Cd309 O313 2.439 . S
Cd309 O319 2.240 . S
Cd310 O311 2.240 . S
Cd310 O318 2.223 . S
Cd310 O320 2.297 . S
Cd310 O321 2.439 . S
O311 Cd310 2.240 . S
O311 C316 1.279 . S
O312 Cd309 2.297 . S
O312 C314 1.247 . S
O313 Cd309 2.439 . S
O313 C314 1.208 . S
C314 O312 1.247 . S
C314 O313 1.208 . S
C315 O320 1.247 . S
C315 O321 1.208 . S
C316 O308 1.315 . S
C316 O311 1.279 . S
C317 O318 1.315 . S
C317 O319 1.279 . S
O318 Cd310 2.223 . S
O318 C317 1.315 . S
O319 Cd309 2.240 . S
O319 C317 1.279 . S
O320 Cd310 2.297 . S
O320 C315 1.247 . S
O321 Cd310 2.439 . S
O321 C315 1.208 . S
O322 Cd323 2.223 . S
O322 C330 1.315 . S
Cd323 O322 2.223 . S
Cd323 O326 2.297 . S
Cd323 O327 2.439 . S
Cd323 O333 2.240 . S
Cd324 O325 2.240 . S
Cd324 O332 2.223 . S
Cd324 O334 2.297 . S
Cd324 O335 2.439 . S
O325 Cd324 2.240 . S
O325 C330 1.279 . S
O326 Cd323 2.297 . S
O326 C328 1.247 . S
O327 Cd323 2.439 . S
O327 C328 1.208 . S
C328 O326 1.247 . S
C328 O327 1.208 . S
C329 O334 1.247 . S
C329 O335 1.208 . S
C330 O322 1.315 . S
C330 O325 1.279 . S
C331 O332 1.315 . S
C331 O333 1.279 . S
O332 Cd324 2.223 . S
O332 C331 1.315 . S
O333 Cd323 2.240 . S
O333 C331 1.279 . S
O334 Cd324 2.297 . S
O334 C329 1.247 . S
O335 Cd324 2.439 . S
O335 C329 1.208 . S
O336 Cd337 2.223 . S
O336 C344 1.315 . S
Cd337 O336 2.223 . S
Cd337 O340 2.297 . S
Cd337 O341 2.439 . S
Cd337 O347 2.240 . S
Cd338 O339 2.240 . S
Cd338 O346 2.223 . S
Cd338 O348 2.297 . S
Cd338 O349 2.439 . S
O339 Cd338 2.240 . S
O339 C344 1.279 . S
O340 Cd337 2.297 . S
O340 C342 1.247 . S
O341 Cd337 2.439 . S
O341 C342 1.208 . S
C342 O340 1.247 . S
C342 O341 1.208 . S
C343 O348 1.247 . S
C343 O349 1.208 . S
C344 O336 1.315 . S
C344 O339 1.279 . S
C345 O346 1.315 . S
C345 O347 1.279 . S
O346 Cd338 2.223 . S
O346 C345 1.315 . S
O347 Cd337 2.240 . S
O347 C345 1.279 . S
O348 Cd338 2.297 . S
O348 C343 1.247 . S
O349 Cd338 2.439 . S
O349 C343 1.208 . S
O350 Cd351 2.223 . S
O350 C358 1.315 . S
Cd351 O350 2.223 . S
Cd351 O354 2.297 . S
Cd351 O355 2.439 . S
Cd351 O361 2.240 . S
Cd352 O353 2.240 . S
Cd352 O360 2.223 . S
Cd352 O362 2.297 . S
Cd352 O363 2.439 . S
O353 Cd352 2.240 . S
O353 C358 1.279 . S
O354 Cd351 2.297 . S
O354 C356 1.247 . S
O355 Cd351 2.439 . S
O355 C356 1.208 . S
C356 O354 1.247 . S
C356 O355 1.208 . S
C357 O362 1.247 . S
C357 O363 1.208 . S
C358 O350 1.315 . S
C358 O353 1.279 . S
C359 O360 1.315 . S
C359 O361 1.279 . S
O360 Cd352 2.223 . S
O360 C359 1.315 . S
O361 Cd351 2.240 . S
O361 C359 1.279 . S
O362 Cd352 2.297 . S
O362 C357 1.247 . S
O363 Cd352 2.439 . S
O363 C357 1.208 . S
O364 Cd365 2.223 . S
O364 C372 1.315 . S
Cd365 O364 2.223 . S
Cd365 O368 2.297 . S
Cd365 O369 2.439 . S
Cd365 O375 2.240 . S
Cd366 O367 2.240 . S
Cd366 O374 2.223 . S
Cd366 O376 2.297 . S
Cd366 O377 2.439 . S
O367 Cd366 2.240 . S
O367 C372 1.279 . S
O368 Cd365 2.297 . S
O368 C370 1.247 . S
O369 Cd365 2.439 . S
O369 C370 1.208 . S
C370 O368 1.247 . S
C370 O369 1.208 . S
C371 O376 1.247 . S
C371 O377 1.208 . S
C372 O364 1.315 . S
C372 O367 1.279 . S
C373 O374 1.315 . S
C373 O375 1.279 . S
O374 Cd366 2.223 . S
O374 C373 1.315 . S
O375 Cd365 2.240 . S
O375 C373 1.279 . S
O376 Cd366 2.297 . S
O376 C371 1.247 . S
O377 Cd366 2.439 . S
O377 C371 1.208 . S
O378 Cd379 2.223 . S
O378 C386 1.315 . S
Cd379 O378 2.223 . S
Cd379 O382 2.297 . S
Cd379 O383 2.439 . S
Cd379 O389 2.240 . S
Cd380 O381 2.240 . S
Cd380 O388 2.223 . S
Cd380 O390 2.297 . S
Cd380 O391 2.439 . S
O381 Cd380 2.240 . S
O381 C386 1.279 . S
O382 Cd379 2.297 . S
O382 C384 1.247 . S
O383 Cd379 2.439 . S
O383 C384 1.208 . S
C384 O382 1.247 . S
C384 O383 1.208 . S
C385 O390 1.247 . S
C385 O391 1.208 . S
C386 O378 1.315 . S
C386 O381 1.279 . S
C387 O388 1.315 . S
C387 O389 1.279 . S
O388 Cd380 2.223 . S
O388 C387 1.315 . S
O389 Cd379 2.240 . S
O389 C387 1.279 . S
O390 Cd380 2.297 . S
O390 C385 1.247 . S
O391 Cd380 2.439 . S
O391 C385 1.208 . S
O392 Cd393 2.223 . S
O392 C400 1.315 . S
Cd393 O392 2.223 . S
Cd393 O396 2.297 . S
Cd393 O397 2.439 . S
Cd393 O403 2.240 . S
Cd394 O395 2.240 . S
Cd394 O402 2.223 . S
Cd394 O404 2.297 . S
Cd394 O405 2.439 . S
O395 Cd394 2.240 . S
O395 C400 1.279 . S
O396 Cd393 2.297 . S
O396 C398 1.247 . S
O397 Cd393 2.439 . S
O397 C398 1.208 . S
C398 O396 1.247 . S
C398 O397 1.208 . S
C399 O404 1.247 . S
C399 O405 1.208 . S
C400 O392 1.315 . S
C400 O395 1.279 . S
C401 O402 1.315 . S
C401 O403 1.279 . S
O402 Cd394 2.223 . S
O402 C401 1.315 . S
O403 Cd393 2.240 . S
O403 C401 1.279 . S
O404 Cd394 2.297 . S
O404 C399 1.247 . S
O405 Cd394 2.439 . S
O405 C399 1.208 . S
O406 Cd407 2.223 . S
O406 C414 1.315 . S
Cd407 O406 2.223 . S
Cd407 O410 2.297 . S
Cd407 O411 2.439 . S
Cd407 O417 2.240 . S
Cd408 O409 2.240 . S
Cd408 O416 2.223 . S
Cd408 O418 2.297 . S
Cd408 O419 2.439 . S
O409 Cd408 2.240 . S
O409 C414 1.279 . S
O410 Cd407 2.297 . S
O410 C412 1.247 . S
O411 Cd407 2.439 . S
O411 C412 1.208 . S
C412 O410 1.247 . S
C412 O411 1.208 . S
C413 O418 1.247 . S
C413 O419 1.208 . S
C414 O406 1.315 . S
C414 O409 1.279 . S
C415 O416 1.315 . S
C415 O417 1.279 . S
O416 Cd408 2.223 . S
O416 C415 1.315 . S
O417 Cd407 2.240 . S
O417 C415 1.279 . S
O418 Cd408 2.297 . S
O418 C413 1.247 . S
O419 Cd408 2.439 . S
O419 C413 1.208 . S
O420 Cd421 2.223 . S
O420 C428 1.315 . S
Cd421 O420 2.223 . S
Cd421 O424 2.297 . S
Cd421 O425 2.439 . S
Cd421 O431 2.240 . S
Cd422 O423 2.240 . S
Cd422 O430 2.223 . S
Cd422 O432 2.297 . S
Cd422 O433 2.439 . S
O423 Cd422 2.240 . S
O423 C428 1.279 . S
O424 Cd421 2.297 . S
O424 C426 1.247 . S
O425 Cd421 2.439 . S
O425 C426 1.208 . S
C426 O424 1.247 . S
C426 O425 1.208 . S
C427 O432 1.247 . S
C427 O433 1.208 . S
C428 O420 1.315 . S
C428 O423 1.279 . S
C429 O430 1.315 . S
C429 O431 1.279 . S
O430 Cd422 2.223 . S
O430 C429 1.315 . S
O431 Cd421 2.240 . S
O431 C429 1.279 . S
O432 Cd422 2.297 . S
O432 C427 1.247 . S
O433 Cd422 2.439 . S
O433 C427 1.208 . S
O434 Cd435 2.223 . S
O434 C442 1.315 . S
Cd435 O434 2.223 . S
Cd435 O438 2.297 . S
Cd435 O439 2.439 . S
Cd435 O445 2.240 . S
Cd436 O437 2.240 . S
Cd436 O444 2.223 . S
Cd436 O446 2.297 . S
Cd436 O447 2.439 . S
O437 Cd436 2.240 . S
O437 C442 1.279 . S
O438 Cd435 2.297 . S
O438 C440 1.247 . S
O439 Cd435 2.439 . S
O439 C440 1.208 . S
C440 O438 1.247 . S
C440 O439 1.208 . S
C441 O446 1.247 . S
C441 O447 1.208 . S
C442 O434 1.315 . S
C442 O437 1.279 . S
C443 O444 1.315 . S
C443 O445 1.279 . S
O444 Cd436 2.223 . S
O444 C443 1.315 . S
O445 Cd435 2.240 . S
O445 C443 1.279 . S
O446 Cd436 2.297 . S
O446 C441 1.247 . S
O447 Cd436 2.439 . S
O447 C441 1.208 . S
O448 Cd449 2.223 . S
O448 C456 1.315 . S
Cd449 O448 2.223 . S
Cd449 O452 2.297 . S
Cd449 O453 2.439 . S
Cd449 O459 2.240 . S
Cd450 O451 2.240 . S
Cd450 O458 2.223 . S
Cd450 O460 2.297 . S
Cd450 O461 2.439 . S
O451 Cd450 2.240 . S
O451 C456 1.279 . S
O452 Cd449 2.297 . S
O452 C454 1.247 . S
O453 Cd449 2.439 . S
O453 C454 1.208 . S
C454 O452 1.247 . S
C454 O453 1.208 . S
C455 O460 1.247 . S
C455 O461 1.208 . S
C456 O448 1.315 . S
C456 O451 1.279 . S
C457 O458 1.315 . S
C457 O459 1.279 . S
O458 Cd450 2.223 . S
O458 C457 1.315 . S
O459 Cd449 2.240 . S
O459 C457 1.279 . S
O460 Cd450 2.297 . S
O460 C455 1.247 . S
O461 Cd450 2.439 . S
O461 C455 1.208 . S
O462 Cd463 2.223 . S
O462 C470 1.315 . S
Cd463 O462 2.223 . S
Cd463 O466 2.297 . S
Cd463 O467 2.439 . S
Cd463 O473 2.240 . S
Cd464 O465 2.240 . S
Cd464 O472 2.223 . S
Cd464 O474 2.297 . S
Cd464 O475 2.439 . S
O465 Cd464 2.240 . S
O465 C470 1.279 . S
O466 Cd463 2.297 . S
O466 C468 1.247 . S
O467 Cd463 2.439 . S
O467 C468 1.208 . S
C468 O466 1.247 . S
C468 O467 1.208 . S
C469 O474 1.247 . S
C469 O475 1.208 . S
C470 O462 1.315 . S
C470 O465 1.279 . S
C471 O472 1.315 . S
C471 O473 1.279 . S
O472 Cd464 2.223 . S
O472 C471 1.315 . S
O473 Cd463 2.240 . S
O473 C471 1.279 . S
O474 Cd464 2.297 . S
O474 C469 1.247 . S
O475 Cd464 2.439 . S
O475 C469 1.208 . S
O476 Cd477 2.223 . S
O476 C484 1.315 . S
Cd477 O476 2.223 . S
Cd477 O480 2.297 . S
Cd477 O481 2.439 . S
Cd477 O487 2.240 . S
Cd478 O479 2.240 . S
Cd478 O486 2.223 . S
Cd478 O488 2.297 . S
Cd478 O489 2.439 . S
O479 Cd478 2.240 . S
O479 C484 1.279 . S
O480 Cd477 2.297 . S
O480 C482 1.247 . S
O481 Cd477 2.439 . S
O481 C482 1.208 . S
C482 O480 1.247 . S
C482 O481 1.208 . S
C483 O488 1.247 . S
C483 O489 1.208 . S
C484 O476 1.315 . S
C484 O479 1.279 . S
C485 O486 1.315 . S
C485 O487 1.279 . S
O486 Cd478 2.223 . S
O486 C485 1.315 . S
O487 Cd477 2.240 . S
O487 C485 1.279 . S
O488 Cd478 2.297 . S
O488 C483 1.247 . S
O489 Cd478 2.439 . S
O489 C483 1.208 . S
O490 Cd491 2.223 . S
O490 C498 1.315 . S
Cd491 O490 2.223 . S
Cd491 O494 2.297 . S
Cd491 O495 2.439 . S
Cd491 O501 2.240 . S
Cd492 O493 2.240 . S
Cd492 O500 2.223 . S
Cd492 O502 2.297 . S
Cd492 O503 2.439 . S
O493 Cd492 2.240 . S
O493 C498 1.279 . S
O494 Cd491 2.297 . S
O494 C496 1.247 . S
O495 Cd491 2.439 . S
O495 C496 1.208 . S
C496 O494 1.247 . S
C496 O495 1.208 . S
C497 O502 1.247 . S
C497 O503 1.208 . S
C498 O490 1.315 . S
C498 O493 1.279 . S
C499 O500 1.315 . S
C499 O501 1.279 . S
O500 Cd492 2.223 . S
O500 C499 1.315 . S
O501 Cd491 2.240 . S
O501 C499 1.279 . S
O502 Cd492 2.297 . S
O502 C497 1.247 . S
O503 Cd492 2.439 . S
O503 C497 1.208 . S
H504 C516 0.930 . S
H505 C518 0.930 . S
H506 C519 0.930 . S
H507 C523 0.959 . S
H508 C523 0.959 . S
H509 C523 0.961 . S
H510 C524 0.960 . S
H511 C524 0.961 . S
H512 C524 0.959 . S
H513 C527 0.929 . S
H514 C528 0.931 . S
H515 C530 0.930 . S
C516 H504 0.930 . S
C516 C517 1.399 . S
C516 C521 1.399 . S
C517 C516 1.399 . S
C517 C518 1.376 . S
C518 H505 0.930 . S
C518 C517 1.376 . S
C518 C519 1.388 . S
C519 H506 0.930 . S
C519 C518 1.388 . S
C519 C520 1.390 . S
C520 C519 1.390 . S
C520 C521 1.394 . S
C520 C526 1.465 . S
C521 C516 1.399 . S
C521 C520 1.394 . S
C521 C522 1.516 . S
C522 C521 1.516 . S
C522 C523 1.502 . S
C522 C524 1.561 . S
C522 C525 1.526 . S
C523 H507 0.959 . S
C523 H508 0.959 . S
C523 H509 0.961 . S
C523 C522 1.502 . S
C524 H510 0.960 . S
C524 H511 0.961 . S
C524 H512 0.959 . S
C524 C522 1.561 . S
C525 C522 1.526 . S
C525 C526 1.396 . S
C525 C530 1.390 . S
C526 C520 1.465 . S
C526 C525 1.396 . S
C526 C527 1.399 . S
C527 H513 0.929 . S
C527 C526 1.399 . S
C527 C528 1.385 . S
C528 H514 0.931 . S
C528 C527 1.385 . S
C528 C529 1.389 . S
C529 C528 1.389 . S
C529 C530 1.387 . S
C530 H515 0.930 . S
C530 C525 1.390 . S
C530 C529 1.387 . S
H531 C543 0.930 . S
H532 C545 0.930 . S
H533 C546 0.930 . S
H534 C550 0.959 . S
H535 C550 0.959 . S
H536 C550 0.961 . S
H537 C551 0.960 . S
H538 C551 0.961 . S
H539 C551 0.959 . S
H540 C554 0.929 . S
H541 C555 0.931 . S
H542 C557 0.930 . S
C543 H531 0.930 . S
C543 C544 1.399 . S
C543 C548 1.399 . S
C544 C543 1.399 . S
C544 C545 1.376 . S
C545 H532 0.930 . S
C545 C544 1.376 . S
C545 C546 1.388 . S
C546 H533 0.930 . S
C546 C545 1.388 . S
C546 C547 1.390 . S
C547 C546 1.390 . S
C547 C548 1.394 . S
C547 C553 1.465 . S
C548 C543 1.399 . S
C548 C547 1.394 . S
C548 C549 1.516 . S
C549 C548 1.516 . S
C549 C550 1.502 . S
C549 C551 1.561 . S
C549 C552 1.526 . S
C550 H534 0.959 . S
C550 H535 0.959 . S
C550 H536 0.961 . S
C550 C549 1.502 . S
C551 H537 0.960 . S
C551 H538 0.961 . S
C551 H539 0.959 . S
C551 C549 1.561 . S
C552 C549 1.526 . S
C552 C553 1.396 . S
C552 C557 1.390 . S
C553 C547 1.465 . S
C553 C552 1.396 . S
C553 C554 1.399 . S
C554 H540 0.929 . S
C554 C553 1.399 . S
C554 C555 1.385 . S
C555 H541 0.931 . S
C555 C554 1.385 . S
C555 C556 1.389 . S
C556 C555 1.389 . S
C556 C557 1.387 . S
C557 H542 0.930 . S
C557 C552 1.390 . S
C557 C556 1.387 . S
H558 C570 0.930 . S
H559 C572 0.930 . S
H560 C573 0.930 . S
H561 C577 0.959 . S
H562 C577 0.959 . S
H563 C577 0.961 . S
H564 C578 0.960 1_554 S
H565 C578 0.961 . S
H566 C578 0.959 . S
H567 C581 0.929 . S
H568 C582 0.931 . S
H569 C584 0.930 . S
C570 H558 0.930 . S
C570 C571 1.399 . S
C570 C575 1.399 . S
C571 C570 1.399 . S
C571 C572 1.376 . S
C572 H559 0.930 . S
C572 C571 1.376 . S
C572 C573 1.388 . S
C573 H560 0.930 . S
C573 C572 1.388 . S
C573 C574 1.390 . S
C574 C573 1.390 . S
C574 C575 1.394 . S
C574 C580 1.465 . S
C575 C570 1.399 . S
C575 C574 1.394 . S
C575 C576 1.516 . S
C576 C575 1.516 . S
C576 C577 1.502 . S
C576 C578 1.561 . S
C576 C579 1.526 . S
C577 H561 0.959 . S
C577 H562 0.959 . S
C577 H563 0.961 . S
C577 C576 1.502 . S
C578 H564 0.960 1_556 S
C578 H565 0.961 . S
C578 H566 0.959 . S
C578 C576 1.561 . S
C579 C576 1.526 . S
C579 C580 1.396 . S
C579 C584 1.390 . S
C580 C574 1.465 . S
C580 C579 1.396 . S
C580 C581 1.399 . S
C581 H567 0.929 . S
C581 C580 1.399 . S
C581 C582 1.385 . S
C582 H568 0.931 . S
C582 C581 1.385 . S
C582 C583 1.389 . S
C583 C582 1.389 . S
C583 C584 1.387 . S
C584 H569 0.930 . S
C584 C579 1.390 . S
C584 C583 1.387 . S
H585 C597 0.930 . S
H586 C599 0.930 . S
H587 C600 0.930 . S
H588 C604 0.959 . S
H589 C604 0.959 . S
H590 C604 0.961 . S
H591 C605 0.960 . S
H592 C605 0.961 . S
H593 C605 0.959 . S
H594 C608 0.929 . S
H595 C609 0.931 . S
H596 C611 0.930 . S
C597 H585 0.930 . S
C597 C598 1.399 . S
C597 C602 1.399 . S
C598 C597 1.399 . S
C598 C599 1.376 . S
C599 H586 0.930 . S
C599 C598 1.376 . S
C599 C600 1.388 . S
C600 H587 0.930 . S
C600 C599 1.388 . S
C600 C601 1.390 . S
C601 C600 1.390 . S
C601 C602 1.394 . S
C601 C607 1.465 . S
C602 C597 1.399 . S
C602 C601 1.394 . S
C602 C603 1.516 . S
C603 C602 1.516 . S
C603 C604 1.502 . S
C603 C605 1.561 . S
C603 C606 1.526 . S
C604 H588 0.959 . S
C604 H589 0.959 . S
C604 H590 0.961 . S
C604 C603 1.502 . S
C605 H591 0.960 . S
C605 H592 0.961 . S
C605 H593 0.959 . S
C605 C603 1.561 . S
C606 C603 1.526 . S
C606 C607 1.396 . S
C606 C611 1.390 . S
C607 C601 1.465 . S
C607 C606 1.396 . S
C607 C608 1.399 . S
C608 H594 0.929 . S
C608 C607 1.399 . S
C608 C609 1.385 . S
C609 H595 0.931 . S
C609 C608 1.385 . S
C609 C610 1.389 . S
C610 C609 1.389 . S
C610 C611 1.387 . S
C611 H596 0.930 . S
C611 C606 1.390 . S
C611 C610 1.387 . S
H612 C624 0.930 . S
H613 C626 0.930 . S
H614 C627 0.930 . S
H615 C631 0.959 . S
H616 C631 0.959 . S
H617 C631 0.961 . S
H618 C632 0.960 . S
H619 C632 0.961 . S
H620 C632 0.959 . S
H621 C635 0.929 . S
H622 C636 0.931 . S
H623 C638 0.930 . S
C624 H612 0.930 . S
C624 C625 1.399 . S
C624 C629 1.399 . S
C625 C624 1.399 . S
C625 C626 1.376 . S
C626 H613 0.930 . S
C626 C625 1.376 . S
C626 C627 1.388 . S
C627 H614 0.930 . S
C627 C626 1.388 . S
C627 C628 1.390 . S
C628 C627 1.390 . S
C628 C629 1.394 . S
C628 C634 1.465 . S
C629 C624 1.399 . S
C629 C628 1.394 . S
C629 C630 1.516 . S
C630 C629 1.516 . S
C630 C631 1.502 . S
C630 C632 1.561 . S
C630 C633 1.526 . S
C631 H615 0.959 . S
C631 H616 0.959 . S
C631 H617 0.961 . S
C631 C630 1.502 . S
C632 H618 0.960 . S
C632 H619 0.961 . S
C632 H620 0.959 . S
C632 C630 1.561 . S
C633 C630 1.526 . S
C633 C634 1.396 . S
C633 C638 1.390 . S
C634 C628 1.465 . S
C634 C633 1.396 . S
C634 C635 1.399 . S
C635 H621 0.929 . S
C635 C634 1.399 . S
C635 C636 1.385 . S
C636 H622 0.931 . S
C636 C635 1.385 . S
C636 C637 1.389 . S
C637 C636 1.389 . S
C637 C638 1.387 . S
C638 H623 0.930 . S
C638 C633 1.390 . S
C638 C637 1.387 . S
H639 C651 0.930 . S
H640 C653 0.930 . S
H641 C654 0.930 . S
H642 C658 0.959 . S
H643 C658 0.959 . S
H644 C658 0.961 . S
H645 C659 0.960 . S
H646 C659 0.961 . S
H647 C659 0.959 . S
H648 C662 0.929 . S
H649 C663 0.931 . S
H650 C665 0.930 . S
C651 H639 0.930 . S
C651 C652 1.399 . S
C651 C656 1.399 . S
C652 C651 1.399 . S
C652 C653 1.376 . S
C653 H640 0.930 . S
C653 C652 1.376 . S
C653 C654 1.388 . S
C654 H641 0.930 . S
C654 C653 1.388 . S
C654 C655 1.390 . S
C655 C654 1.390 . S
C655 C656 1.394 . S
C655 C661 1.465 . S
C656 C651 1.399 . S
C656 C655 1.394 . S
C656 C657 1.516 . S
C657 C656 1.516 . S
C657 C658 1.502 . S
C657 C659 1.561 . S
C657 C660 1.526 . S
C658 H642 0.959 . S
C658 H643 0.959 . S
C658 H644 0.961 . S
C658 C657 1.502 . S
C659 H645 0.960 . S
C659 H646 0.961 . S
C659 H647 0.959 . S
C659 C657 1.561 . S
C660 C657 1.526 . S
C660 C661 1.396 . S
C660 C665 1.390 . S
C661 C655 1.465 . S
C661 C660 1.396 . S
C661 C662 1.399 . S
C662 H648 0.929 . S
C662 C661 1.399 . S
C662 C663 1.385 . S
C663 H649 0.931 . S
C663 C662 1.385 . S
C663 C664 1.389 . S
C664 C663 1.389 . S
C664 C665 1.387 . S
C665 H650 0.930 . S
C665 C660 1.390 . S
C665 C664 1.387 . S
H666 C678 0.930 . S
H667 C680 0.930 . S
H668 C681 0.930 . S
H669 C685 0.959 . S
H670 C685 0.959 . S
H671 C685 0.961 . S
H672 C686 0.960 . S
H673 C686 0.961 1_556 S
H674 C686 0.959 . S
H675 C689 0.929 . S
H676 C690 0.931 . S
H677 C692 0.930 . S
C678 H666 0.930 . S
C678 C679 1.399 . S
C678 C683 1.399 . S
C679 C678 1.399 . S
C679 C680 1.376 . S
C680 H667 0.930 . S
C680 C679 1.376 . S
C680 C681 1.388 . S
C681 H668 0.930 . S
C681 C680 1.388 . S
C681 C682 1.390 . S
C682 C681 1.390 . S
C682 C683 1.394 . S
C682 C688 1.465 . S
C683 C678 1.399 . S
C683 C682 1.394 . S
C683 C684 1.516 . S
C684 C683 1.516 . S
C684 C685 1.502 . S
C684 C686 1.561 . S
C684 C687 1.526 . S
C685 H669 0.959 . S
C685 H670 0.959 . S
C685 H671 0.961 . S
C685 C684 1.502 . S
C686 H672 0.960 . S
C686 H673 0.961 1_554 S
C686 H674 0.959 . S
C686 C684 1.561 . S
C687 C684 1.526 . S
C687 C688 1.396 . S
C687 C692 1.390 . S
C688 C682 1.465 . S
C688 C687 1.396 . S
C688 C689 1.399 . S
C689 H675 0.929 . S
C689 C688 1.399 . S
C689 C690 1.385 . S
C690 H676 0.931 . S
C690 C689 1.385 . S
C690 C691 1.389 . S
C691 C690 1.389 . S
C691 C692 1.387 . S
C692 H677 0.930 . S
C692 C687 1.390 . S
C692 C691 1.387 . S
H693 C705 0.930 . S
H694 C707 0.930 . S
H695 C708 0.930 . S
H696 C712 0.959 . S
H697 C712 0.959 1_556 S
H698 C712 0.961 . S
H699 C713 0.960 . S
H700 C713 0.961 . S
H701 C713 0.959 . S
H702 C716 0.929 . S
H703 C717 0.931 . S
H704 C719 0.930 . S
C705 H693 0.930 . S
C705 C706 1.399 . S
C705 C710 1.399 . S
C706 C705 1.399 . S
C706 C707 1.376 . S
C707 H694 0.930 . S
C707 C706 1.376 . S
C707 C708 1.388 . S
C708 H695 0.930 . S
C708 C707 1.388 . S
C708 C709 1.390 . S
C709 C708 1.390 . S
C709 C710 1.394 . S
C709 C715 1.465 . S
C710 C705 1.399 . S
C710 C709 1.394 . S
C710 C711 1.516 . S
C711 C710 1.516 . S
C711 C712 1.502 . S
C711 C713 1.561 . S
C711 C714 1.526 . S
C712 H696 0.959 . S
C712 H697 0.959 1_554 S
C712 H698 0.961 . S
C712 C711 1.502 . S
C713 H699 0.960 . S
C713 H700 0.961 . S
C713 H701 0.959 . S
C713 C711 1.561 . S
C714 C711 1.526 . S
C714 C715 1.396 . S
C714 C719 1.390 . S
C715 C709 1.465 . S
C715 C714 1.396 . S
C715 C716 1.399 . S
C716 H702 0.929 . S
C716 C715 1.399 . S
C716 C717 1.385 . S
C717 H703 0.931 . S
C717 C716 1.385 . S
C717 C718 1.389 . S
C718 C717 1.389 . S
C718 C719 1.387 . S
C719 H704 0.930 . S
C719 C714 1.390 . S
C719 C718 1.387 . S
H720 C732 0.930 . S
H721 C734 0.930 . S
H722 C735 0.930 . S
H723 C739 0.959 . S
H724 C739 0.959 . S
H725 C739 0.961 . S
H726 C740 0.960 . S
H727 C740 0.961 . S
H728 C740 0.959 . S
H729 C743 0.929 . S
H730 C744 0.931 1_556 S
H731 C746 0.930 . S
C732 H720 0.930 . S
C732 C733 1.399 . S
C732 C737 1.399 . S
C733 C732 1.399 . S
C733 C734 1.376 . S
C734 H721 0.930 . S
C734 C733 1.376 . S
C734 C735 1.388 . S
C735 H722 0.930 . S
C735 C734 1.388 . S
C735 C736 1.390 . S
C736 C735 1.390 . S
C736 C737 1.394 . S
C736 C742 1.465 . S
C737 C732 1.399 . S
C737 C736 1.394 . S
C737 C738 1.516 . S
C738 C737 1.516 . S
C738 C739 1.502 . S
C738 C740 1.561 . S
C738 C741 1.526 . S
C739 H723 0.959 . S
C739 H724 0.959 . S
C739 H725 0.961 . S
C739 C738 1.502 . S
C740 H726 0.960 . S
C740 H727 0.961 . S
C740 H728 0.959 . S
C740 C738 1.561 . S
C741 C738 1.526 . S
C741 C742 1.396 . S
C741 C746 1.390 . S
C742 C736 1.465 . S
C742 C741 1.396 . S
C742 C743 1.399 . S
C743 H729 0.929 . S
C743 C742 1.399 . S
C743 C744 1.385 . S
C744 H730 0.931 1_554 S
C744 C743 1.385 . S
C744 C745 1.389 . S
C745 C744 1.389 . S
C745 C746 1.387 . S
C746 H731 0.930 . S
C746 C741 1.390 . S
C746 C745 1.387 . S
H747 C759 0.930 . S
H748 C761 0.930 . S
H749 C762 0.930 . S
H750 C766 0.959 . S
H751 C766 0.959 . S
H752 C766 0.961 . S
H753 C767 0.960 . S
H754 C767 0.961 . S
H755 C767 0.959 . S
H756 C770 0.929 . S
H757 C771 0.931 . S
H758 C773 0.930 . S
C759 H747 0.930 . S
C759 C760 1.399 . S
C759 C764 1.399 . S
C760 C759 1.399 . S
C760 C761 1.376 . S
C761 H748 0.930 . S
C761 C760 1.376 . S
C761 C762 1.388 . S
C762 H749 0.930 . S
C762 C761 1.388 . S
C762 C763 1.390 . S
C763 C762 1.390 . S
C763 C764 1.394 . S
C763 C769 1.465 . S
C764 C759 1.399 . S
C764 C763 1.394 . S
C764 C765 1.516 . S
C765 C764 1.516 . S
C765 C766 1.502 . S
C765 C767 1.561 . S
C765 C768 1.526 . S
C766 H750 0.959 . S
C766 H751 0.959 . S
C766 H752 0.961 . S
C766 C765 1.502 . S
C767 H753 0.960 . S
C767 H754 0.961 . S
C767 H755 0.959 . S
C767 C765 1.561 . S
C768 C765 1.526 . S
C768 C769 1.396 . S
C768 C773 1.390 . S
C769 C763 1.465 . S
C769 C768 1.396 . S
C769 C770 1.399 . S
C770 H756 0.929 . S
C770 C769 1.399 . S
C770 C771 1.385 . S
C771 H757 0.931 . S
C771 C770 1.385 . S
C771 C772 1.389 . S
C772 C771 1.389 . S
C772 C773 1.387 . S
C773 H758 0.930 . S
C773 C768 1.390 . S
C773 C772 1.387 . S
H774 C786 0.930 . S
H775 C788 0.930 . S
H776 C789 0.930 . S
H777 C793 0.959 . S
H778 C793 0.959 . S
H779 C793 0.961 . S
H780 C794 0.960 . S
H781 C794 0.961 . S
H782 C794 0.959 . S
H783 C797 0.929 . S
H784 C798 0.931 . S
H785 C800 0.930 . S
C786 H774 0.930 . S
C786 C787 1.399 . S
C786 C791 1.399 . S
C787 C786 1.399 . S
C787 C788 1.376 . S
C788 H775 0.930 . S
C788 C787 1.376 . S
C788 C789 1.388 . S
C789 H776 0.930 . S
C789 C788 1.388 . S
C789 C790 1.390 . S
C790 C789 1.390 . S
C790 C791 1.394 . S
C790 C796 1.465 . S
C791 C786 1.399 . S
C791 C790 1.394 . S
C791 C792 1.516 . S
C792 C791 1.516 . S
C792 C793 1.502 . S
C792 C794 1.561 . S
C792 C795 1.526 . S
C793 H777 0.959 . S
C793 H778 0.959 . S
C793 H779 0.961 . S
C793 C792 1.502 . S
C794 H780 0.960 . S
C794 H781 0.961 . S
C794 H782 0.959 . S
C794 C792 1.561 . S
C795 C792 1.526 . S
C795 C796 1.396 . S
C795 C800 1.390 . S
C796 C790 1.465 . S
C796 C795 1.396 . S
C796 C797 1.399 . S
C797 H783 0.929 . S
C797 C796 1.399 . S
C797 C798 1.385 . S
C798 H784 0.931 . S
C798 C797 1.385 . S
C798 C799 1.389 . S
C799 C798 1.389 . S
C799 C800 1.387 . S
C800 H785 0.930 . S
C800 C795 1.390 . S
C800 C799 1.387 . S
H801 C813 0.930 . S
H802 C815 0.930 . S
H803 C816 0.930 . S
H804 C820 0.959 . S
H805 C820 0.959 . S
H806 C820 0.961 . S
H807 C821 0.960 . S
H808 C821 0.961 . S
H809 C821 0.959 . S
H810 C824 0.929 . S
H811 C825 0.931 . S
H812 C827 0.930 . S
C813 H801 0.930 . S
C813 C814 1.399 . S
C813 C818 1.399 . S
C814 C813 1.399 . S
C814 C815 1.376 . S
C815 H802 0.930 . S
C815 C814 1.376 . S
C815 C816 1.388 . S
C816 H803 0.930 . S
C816 C815 1.388 . S
C816 C817 1.390 . S
C817 C816 1.390 . S
C817 C818 1.394 . S
C817 C823 1.465 . S
C818 C813 1.399 . S
C818 C817 1.394 . S
C818 C819 1.516 . S
C819 C818 1.516 . S
C819 C820 1.502 . S
C819 C821 1.561 . S
C819 C822 1.526 . S
C820 H804 0.959 . S
C820 H805 0.959 . S
C820 H806 0.961 . S
C820 C819 1.502 . S
C821 H807 0.960 . S
C821 H808 0.961 . S
C821 H809 0.959 . S
C821 C819 1.561 . S
C822 C819 1.526 . S
C822 C823 1.396 . S
C822 C827 1.390 . S
C823 C817 1.465 . S
C823 C822 1.396 . S
C823 C824 1.399 . S
C824 H810 0.929 . S
C824 C823 1.399 . S
C824 C825 1.385 . S
C825 H811 0.931 . S
C825 C824 1.385 . S
C825 C826 1.389 . S
C826 C825 1.389 . S
C826 C827 1.387 . S
C827 H812 0.930 . S
C827 C822 1.390 . S
C827 C826 1.387 . S
H828 C840 0.930 . S
H829 C842 0.930 . S
H830 C843 0.930 . S
H831 C847 0.959 1_455 S
H832 C847 0.959 . S
H833 C847 0.961 1_455 S
H834 C848 0.960 . S
H835 C848 0.961 . S
H836 C848 0.959 . S
H837 C851 0.929 . S
H838 C852 0.931 . S
H839 C854 0.930 . S
C840 H828 0.930 . S
C840 C841 1.399 . S
C840 C845 1.399 . S
C841 C840 1.399 . S
C841 C842 1.376 . S
C842 H829 0.930 . S
C842 C841 1.376 . S
C842 C843 1.388 . S
C843 H830 0.930 . S
C843 C842 1.388 . S
C843 C844 1.390 . S
C844 C843 1.390 . S
C844 C845 1.394 . S
C844 C850 1.465 1_455 S
C845 C840 1.399 . S
C845 C844 1.394 . S
C845 C846 1.516 1_455 S
C846 C845 1.516 1_655 S
C846 C847 1.502 . S
C846 C848 1.561 . S
C846 C849 1.526 . S
C847 H831 0.959 1_655 S
C847 H832 0.959 . S
C847 H833 0.961 1_655 S
C847 C846 1.502 . S
C848 H834 0.960 . S
C848 H835 0.961 . S
C848 H836 0.959 . S
C848 C846 1.561 . S
C849 C846 1.526 . S
C849 C850 1.396 . S
C849 C854 1.390 . S
C850 C844 1.465 1_655 S
C850 C849 1.396 . S
C850 C851 1.399 . S
C851 H837 0.929 . S
C851 C850 1.399 . S
C851 C852 1.385 . S
C852 H838 0.931 . S
C852 C851 1.385 . S
C852 C853 1.389 . S
C853 C852 1.389 . S
C853 C854 1.387 . S
C854 H839 0.930 . S
C854 C849 1.390 . S
C854 C853 1.387 . S
H855 C867 0.930 . S
H856 C869 0.930 . S
H857 C870 0.930 . S
H858 C874 0.959 . S
H859 C874 0.959 . S
H860 C874 0.961 . S
H861 C875 0.960 . S
H862 C875 0.961 . S
H863 C875 0.959 . S
H864 C878 0.929 . S
H865 C879 0.931 . S
H866 C881 0.930 . S
C867 H855 0.930 . S
C867 C868 1.399 . S
C867 C872 1.399 . S
C868 C867 1.399 . S
C868 C869 1.376 . S
C869 H856 0.930 . S
C869 C868 1.376 . S
C869 C870 1.388 . S
C870 H857 0.930 . S
C870 C869 1.388 . S
C870 C871 1.390 . S
C871 C870 1.390 . S
C871 C872 1.394 . S
C871 C877 1.465 . S
C872 C867 1.399 . S
C872 C871 1.394 . S
C872 C873 1.516 . S
C873 C872 1.516 . S
C873 C874 1.502 . S
C873 C875 1.561 . S
C873 C876 1.526 . S
C874 H858 0.959 . S
C874 H859 0.959 . S
C874 H860 0.961 . S
C874 C873 1.502 . S
C875 H861 0.960 . S
C875 H862 0.961 . S
C875 H863 0.959 . S
C875 C873 1.561 . S
C876 C873 1.526 . S
C876 C877 1.396 . S
C876 C881 1.390 . S
C877 C871 1.465 . S
C877 C876 1.396 . S
C877 C878 1.399 . S
C878 H864 0.929 . S
C878 C877 1.399 . S
C878 C879 1.385 . S
C879 H865 0.931 . S
C879 C878 1.385 . S
C879 C880 1.389 . S
C880 C879 1.389 . S
C880 C881 1.387 . S
C881 H866 0.930 . S
C881 C876 1.390 . S
C881 C880 1.387 . S
H882 C894 0.930 . S
H883 C896 0.930 . S
H884 C897 0.930 . S
H885 C901 0.959 . S
H886 C901 0.959 . S
H887 C901 0.961 . S
H888 C902 0.960 . S
H889 C902 0.961 . S
H890 C902 0.959 . S
H891 C905 0.929 . S
H892 C906 0.931 . S
H893 C908 0.930 . S
C894 H882 0.930 . S
C894 C895 1.399 . S
C894 C899 1.399 . S
C895 C894 1.399 . S
C895 C896 1.376 . S
C896 H883 0.930 . S
C896 C895 1.376 . S
C896 C897 1.388 . S
C897 H884 0.930 . S
C897 C896 1.388 . S
C897 C898 1.390 . S
C898 C897 1.390 . S
C898 C899 1.394 . S
C898 C904 1.465 1_565 S
C899 C894 1.399 . S
C899 C898 1.394 . S
C899 C900 1.516 . S
C900 C899 1.516 . S
C900 C901 1.502 . S
C900 C902 1.561 . S
C900 C903 1.526 1_565 S
C901 H885 0.959 . S
C901 H886 0.959 . S
C901 H887 0.961 . S
C901 C900 1.502 . S
C902 H888 0.960 . S
C902 H889 0.961 . S
C902 H890 0.959 . S
C902 C900 1.561 . S
C903 C900 1.526 1_545 S
C903 C904 1.396 . S
C903 C908 1.390 . S
C904 C898 1.465 1_545 S
C904 C903 1.396 . S
C904 C905 1.399 . S
C905 H891 0.929 . S
C905 C904 1.399 . S
C905 C906 1.385 . S
C906 H892 0.931 . S
C906 C905 1.385 . S
C906 C907 1.389 . S
C907 C906 1.389 . S
C907 C908 1.387 . S
C908 H893 0.930 . S
C908 C903 1.390 . S
C908 C907 1.387 . S
H909 C921 0.930 . S
H910 C923 0.930 . S
H911 C924 0.930 . S
H912 C928 0.959 . S
H913 C928 0.959 . S
H914 C928 0.961 . S
H915 C929 0.960 . S
H916 C929 0.961 . S
H917 C929 0.959 . S
H918 C932 0.957 . S
H919 C933 0.931 . S
H920 C935 0.930 . S
C921 H909 0.930 . S
C921 C922 1.399 . S
C921 C926 1.399 . S
C922 C921 1.399 . S
C922 C923 1.376 . S
C923 H910 0.930 . S
C923 C922 1.376 . S
C923 C924 1.388 . S
C924 H911 0.930 . S
C924 C923 1.388 . S
C924 C925 1.390 . S
C925 C924 1.390 . S
C925 C926 1.394 . S
C925 C931 1.465 1_565 S
C926 C921 1.399 . S
C926 C925 1.394 . S
C926 C927 1.516 1_565 S
C927 C926 1.516 1_545 S
C927 C928 1.502 . S
C927 C929 1.561 . S
C927 C930 1.526 . S
C928 H912 0.959 . S
C928 H913 0.959 . S
C928 H914 0.961 . S
C928 C927 1.502 . S
C929 H915 0.960 . S
C929 H916 0.961 . S
C929 H917 0.959 . S
C929 C927 1.561 . S
C930 C927 1.526 . S
C930 C931 1.396 . S
C930 C935 1.390 . S
C931 C925 1.465 1_545 S
C931 C930 1.396 . S
C931 C932 1.399 . S
C932 H918 0.957 . S
C932 C931 1.399 . S
C932 C933 1.385 . S
C933 H919 0.931 . S
C933 C932 1.385 . S
C933 C934 1.389 . S
C934 C933 1.389 . S
C934 C935 1.387 . S
C935 H920 0.930 . S
C935 C930 1.390 . S
C935 C934 1.387 . S
H936 C948 0.930 . S
H937 C950 0.930 . S
H938 C951 0.930 . S
H939 C955 0.959 . S
H940 C955 0.959 . S
H941 C955 0.961 . S
H942 C956 0.960 1_455 S
H943 C956 0.961 . S
H944 C956 0.959 . S
H945 C959 0.929 . S
H946 C960 0.931 . S
H947 C962 0.930 . S
C948 H936 0.930 . S
C948 C949 1.399 . S
C948 C953 1.399 . S
C949 C948 1.399 . S
C949 C950 1.376 . S
C950 H937 0.930 . S
C950 C949 1.376 . S
C950 C951 1.388 . S
C951 H938 0.930 . S
C951 C950 1.388 . S
C951 C952 1.390 . S
C952 C951 1.390 . S
C952 C953 1.394 . S
C952 C958 1.465 1_455 S
C953 C948 1.399 . S
C953 C952 1.394 . S
C953 C954 1.516 . S
C954 C953 1.516 . S
C954 C955 1.502 . S
C954 C956 1.561 1_455 S
C954 C957 1.526 1_455 S
C955 H939 0.959 . S
C955 H940 0.959 . S
C955 H941 0.961 . S
C955 C954 1.502 . S
C956 H942 0.960 1_655 S
C956 H943 0.961 . S
C956 H944 0.959 . S
C956 C954 1.561 1_655 S
C957 C954 1.526 1_655 S
C957 C958 1.396 . S
C957 C962 1.390 . S
C958 C952 1.465 1_655 S
C958 C957 1.396 . S
C958 C959 1.399 . S
C959 H945 0.929 . S
C959 C958 1.399 . S
C959 C960 1.385 . S
C960 H946 0.931 . S
C960 C959 1.385 . S
C960 C961 1.389 . S
C961 C960 1.389 . S
C961 C962 1.387 . S
C962 H947 0.930 . S
C962 C957 1.390 . S
C962 C961 1.387 . S
H963 C975 0.930 . S
H964 C977 0.930 . S
H965 C978 0.930 . S
H966 C982 0.959 . S
H967 C982 0.959 . S
H968 C982 0.961 . S
H969 C983 0.960 . S
H970 C983 0.961 . S
H971 C983 0.959 . S
H972 C986 0.929 . S
H973 C987 0.931 . S
H974 C989 0.930 . S
C975 H963 0.930 . S
C975 C976 1.399 . S
C975 C980 1.399 . S
C976 C975 1.399 . S
C976 C977 1.376 . S
C977 H964 0.930 . S
C977 C976 1.376 . S
C977 C978 1.388 . S
C978 H965 0.930 . S
C978 C977 1.388 . S
C978 C979 1.390 . S
C979 C978 1.390 . S
C979 C980 1.394 . S
C979 C985 1.465 . S
C980 C975 1.399 . S
C980 C979 1.394 . S
C980 C981 1.516 . S
C981 C980 1.516 . S
C981 C982 1.502 . S
C981 C983 1.561 . S
C981 C984 1.526 . S
C982 H966 0.959 . S
C982 H967 0.959 . S
C982 H968 0.961 . S
C982 C981 1.502 . S
C983 H969 0.960 . S
C983 H970 0.961 . S
C983 H971 0.959 . S
C983 C981 1.561 . S
C984 C981 1.526 . S
C984 C985 1.396 . S
C984 C989 1.390 . S
C985 C979 1.465 . S
C985 C984 1.396 . S
C985 C986 1.399 . S
C986 H972 0.929 . S
C986 C985 1.399 . S
C986 C987 1.385 . S
C987 H973 0.931 . S
C987 C986 1.385 . S
C987 C988 1.389 . S
C988 C987 1.389 . S
C988 C989 1.387 . S
C989 H974 0.930 . S
C989 C984 1.390 . S
C989 C988 1.387 . S
H990 C1002 0.930 . S
H991 C1004 0.930 . S
H992 C1005 0.930 . S
H993 C1009 0.959 . S
H994 C1009 0.959 . S
H995 C1009 0.961 . S
H996 C1010 0.960 . S
H997 C1010 0.961 . S
H998 C1010 0.959 . S
H999 C1013 0.929 . S
H1000 C1014 0.919 1_556 S
H1001 C1016 0.930 . S
C1002 H990 0.930 . S
C1002 C1003 1.399 1_554 S
C1002 C1007 1.399 . S
C1003 C1002 1.399 1_556 S
C1003 C1004 1.376 . S
C1004 H991 0.930 . S
C1004 C1003 1.376 . S
C1004 C1005 1.388 . S
C1005 H992 0.930 . S
C1005 C1004 1.388 . S
C1005 C1006 1.390 . S
C1006 C1005 1.390 . S
C1006 C1007 1.394 1_556 S
C1006 C1012 1.465 1_556 S
C1007 C1002 1.399 . S
C1007 C1006 1.394 1_554 S
C1007 C1008 1.516 . S
C1008 C1007 1.516 . S
C1008 C1009 1.502 . S
C1008 C1010 1.561 . S
C1008 C1011 1.526 . S
C1009 H993 0.959 . S
C1009 H994 0.959 . S
C1009 H995 0.961 . S
C1009 C1008 1.502 . S
C1010 H996 0.960 . S
C1010 H997 0.961 . S
C1010 H998 0.959 . S
C1010 C1008 1.561 . S
C1011 C1008 1.526 . S
C1011 C1012 1.396 . S
C1011 C1016 1.390 . S
C1012 C1006 1.465 1_554 S
C1012 C1011 1.396 . S
C1012 C1013 1.399 1_554 S
C1013 H999 0.929 . S
C1013 C1012 1.399 1_556 S
C1013 C1014 1.375 1_556 S
C1014 H1000 0.919 1_554 S
C1014 C1013 1.375 1_554 S
C1014 C1015 1.412 . S
C1015 C1014 1.412 . S
C1015 C1016 1.387 . S
C1016 H1001 0.930 . S
C1016 C1011 1.390 . S
C1016 C1015 1.387 . S
H1017 C1029 0.930 . S
H1018 C1031 0.930 . S
H1019 C1032 0.930 . S
H1020 C1036 0.959 . S
H1021 C1036 0.959 . S
H1022 C1036 0.961 . S
H1023 C1037 0.960 . S
H1024 C1037 0.961 . S
H1025 C1037 0.959 . S
H1026 C1040 0.929 . S
H1027 C1041 0.931 . S
H1028 C1043 0.930 . S
C1029 H1017 0.930 . S
C1029 C1030 1.399 . S
C1029 C1034 1.399 1_556 S
C1030 C1029 1.399 . S
C1030 C1031 1.376 . S
C1031 H1018 0.930 . S
C1031 C1030 1.376 . S
C1031 C1032 1.388 1_556 S
C1032 H1019 0.930 . S
C1032 C1031 1.388 1_554 S
C1032 C1033 1.390 . S
C1033 C1032 1.390 . S
C1033 C1034 1.394 . S
C1033 C1039 1.465 . S
C1034 C1029 1.399 1_554 S
C1034 C1033 1.394 . S
C1034 C1035 1.516 . S
C1035 C1034 1.516 . S
C1035 C1036 1.502 1_554 S
C1035 C1037 1.561 . S
C1035 C1038 1.526 . S
C1036 H1020 0.959 . S
C1036 H1021 0.959 . S
C1036 H1022 0.961 . S
C1036 C1035 1.502 1_556 S
C1037 H1023 0.960 . S
C1037 H1024 0.961 . S
C1037 H1025 0.959 . S
C1037 C1035 1.561 . S
C1038 C1035 1.526 . S
C1038 C1039 1.396 . S
C1038 C1043 1.390 . S
C1039 C1033 1.465 . S
C1039 C1038 1.396 . S
C1039 C1040 1.399 . S
C1040 H1026 0.929 . S
C1040 C1039 1.399 . S
C1040 C1041 1.385 . S
C1041 H1027 0.931 . S
C1041 C1040 1.385 . S
C1041 C1042 1.389 . S
C1042 C1041 1.389 . S
C1042 C1043 1.387 . S
C1043 H1028 0.930 . S
C1043 C1038 1.390 . S
C1043 C1042 1.387 . S
H1044 C1056 0.930 . S
H1045 C1058 0.930 . S
H1046 C1059 0.930 . S
H1047 C1063 0.959 . S
H1048 C1063 0.959 . S
H1049 C1063 0.961 . S
H1050 C1064 0.960 . S
H1051 C1064 0.961 . S
H1052 C1064 0.959 . S
H1053 C1067 0.929 . S
H1054 C1068 0.931 . S
H1055 C1070 0.930 . S
C1056 H1044 0.930 . S
C1056 C1057 1.399 . S
C1056 C1061 1.399 . S
C1057 C1056 1.399 . S
C1057 C1058 1.376 1_556 S
C1058 H1045 0.930 . S
C1058 C1057 1.376 1_554 S
C1058 C1059 1.388 . S
C1059 H1046 0.930 . S
C1059 C1058 1.388 . S
C1059 C1060 1.390 . S
C1060 C1059 1.390 . S
C1060 C1061 1.394 1_554 S
C1060 C1066 1.465 . S
C1061 C1056 1.399 . S
C1061 C1060 1.394 1_556 S
C1061 C1062 1.516 . S
C1062 C1061 1.516 . S
C1062 C1063 1.502 . S
C1062 C1064 1.561 1_556 S
C1062 C1065 1.526 1_556 S
C1063 H1047 0.959 . S
C1063 H1048 0.959 . S
C1063 H1049 0.961 . S
C1063 C1062 1.502 . S
C1064 H1050 0.960 . S
C1064 H1051 0.961 . S
C1064 H1052 0.959 . S
C1064 C1062 1.561 1_554 S
C1065 C1062 1.526 1_554 S
C1065 C1066 1.396 . S
C1065 C1070 1.390 . S
C1066 C1060 1.465 . S
C1066 C1065 1.396 . S
C1066 C1067 1.399 . S
C1067 H1053 0.929 . S
C1067 C1066 1.399 . S
C1067 C1068 1.385 . S
C1068 H1054 0.931 . S
C1068 C1067 1.385 . S
C1068 C1069 1.389 . S
C1069 C1068 1.389 . S
C1069 C1070 1.387 . S
C1070 H1055 0.930 . S
C1070 C1065 1.390 . S
C1070 C1069 1.387 . S
H1071 C1083 0.930 . S
H1072 C1085 0.930 . S
H1073 C1086 0.930 . S
H1074 C1090 0.959 . S
H1075 C1090 0.959 . S
H1076 C1090 0.961 . S
H1077 C1091 0.960 . S
H1078 C1091 0.961 . S
H1079 C1091 0.959 . S
H1080 C1094 0.929 . S
H1081 C1095 0.931 . S
H1082 C1097 0.930 . S
C1083 H1071 0.930 . S
C1083 C1084 1.399 . S
C1083 C1088 1.399 . S
C1084 C1083 1.399 . S
C1084 C1085 1.376 . S
C1085 H1072 0.930 . S
C1085 C1084 1.376 . S
C1085 C1086 1.388 . S
C1086 H1073 0.930 . S
C1086 C1085 1.388 . S
C1086 C1087 1.390 . S
C1087 C1086 1.390 . S
C1087 C1088 1.394 . S
C1087 C1093 1.465 . S
C1088 C1083 1.399 . S
C1088 C1087 1.394 . S
C1088 C1089 1.516 . S
C1089 C1088 1.516 . S
C1089 C1090 1.502 . S
C1089 C1091 1.561 . S
C1089 C1092 1.526 . S
C1090 H1074 0.959 . S
C1090 H1075 0.959 . S
C1090 H1076 0.961 . S
C1090 C1089 1.502 . S
C1091 H1077 0.960 . S
C1091 H1078 0.961 . S
C1091 H1079 0.959 . S
C1091 C1089 1.561 . S
C1092 C1089 1.526 . S
C1092 C1093 1.396 . S
C1092 C1097 1.390 . S
C1093 C1087 1.465 . S
C1093 C1092 1.396 . S
C1093 C1094 1.399 . S
C1094 H1080 0.929 . S
C1094 C1093 1.399 . S
C1094 C1095 1.385 . S
C1095 H1081 0.931 . S
C1095 C1094 1.385 . S
C1095 C1096 1.389 . S
C1096 C1095 1.389 . S
C1096 C1097 1.387 . S
C1097 H1082 0.930 . S
C1097 C1092 1.390 . S
C1097 C1096 1.387 . S
H1098 C1110 0.930 . S
H1099 C1112 0.930 . S
H1100 C1113 0.930 . S
H1101 C1117 0.959 . S
H1102 C1117 0.959 . S
H1103 C1117 0.961 . S
H1104 C1118 0.960 . S
H1105 C1118 0.961 . S
H1106 C1118 0.959 . S
H1107 C1121 0.929 . S
H1108 C1122 0.931 . S
H1109 C1124 0.930 . S
C1110 H1098 0.930 . S
C1110 C1111 1.399 . S
C1110 C1115 1.399 . S
C1111 C1110 1.399 . S
C1111 C1112 1.376 . S
C1112 H1099 0.930 . S
C1112 C1111 1.376 . S
C1112 C1113 1.388 . S
C1113 H1100 0.930 . S
C1113 C1112 1.388 . S
C1113 C1114 1.390 . S
C1114 C1113 1.390 . S
C1114 C1115 1.394 . S
C1114 C1120 1.465 . S
C1115 C1110 1.399 . S
C1115 C1114 1.394 . S
C1115 C1116 1.516 . S
C1116 C1115 1.516 . S
C1116 C1117 1.502 . S
C1116 C1118 1.561 . S
C1116 C1119 1.526 . S
C1117 H1101 0.959 . S
C1117 H1102 0.959 . S
C1117 H1103 0.961 . S
C1117 C1116 1.502 . S
C1118 H1104 0.960 . S
C1118 H1105 0.961 . S
C1118 H1106 0.959 . S
C1118 C1116 1.561 . S
C1119 C1116 1.526 . S
C1119 C1120 1.396 . S
C1119 C1124 1.390 . S
C1120 C1114 1.465 . S
C1120 C1119 1.396 . S
C1120 C1121 1.399 . S
C1121 H1107 0.929 . S
C1121 C1120 1.399 . S
C1121 C1122 1.385 . S
C1122 H1108 0.931 . S
C1122 C1121 1.385 . S
C1122 C1123 1.389 . S
C1123 C1122 1.389 . S
C1123 C1124 1.387 . S
C1124 H1109 0.930 . S
C1124 C1119 1.390 . S
C1124 C1123 1.387 . S
H1125 C1137 0.930 . S
H1126 C1139 0.930 . S
H1127 C1140 0.930 . S
H1128 C1144 0.959 . S
H1129 C1144 0.959 . S
H1130 C1144 0.961 . S
H1131 C1145 0.960 . S
H1132 C1145 0.961 . S
H1133 C1145 0.959 . S
H1134 C1148 0.929 . S
H1135 C1149 0.931 . S
H1136 C1151 0.930 . S
C1137 H1125 0.930 . S
C1137 C1138 1.399 . S
C1137 C1142 1.399 . S
C1138 C1137 1.399 . S
C1138 C1139 1.376 . S
C1139 H1126 0.930 . S
C1139 C1138 1.376 . S
C1139 C1140 1.388 . S
C1140 H1127 0.930 . S
C1140 C1139 1.388 . S
C1140 C1141 1.390 . S
C1141 C1140 1.390 . S
C1141 C1142 1.394 . S
C1141 C1147 1.465 . S
C1142 C1137 1.399 . S
C1142 C1141 1.394 . S
C1142 C1143 1.516 . S
C1143 C1142 1.516 . S
C1143 C1144 1.502 . S
C1143 C1145 1.561 . S
C1143 C1146 1.526 . S
C1144 H1128 0.959 . S
C1144 H1129 0.959 . S
C1144 H1130 0.961 . S
C1144 C1143 1.502 . S
C1145 H1131 0.960 . S
C1145 H1132 0.961 . S
C1145 H1133 0.959 . S
C1145 C1143 1.561 . S
C1146 C1143 1.526 . S
C1146 C1147 1.396 . S
C1146 C1151 1.390 . S
C1147 C1141 1.465 . S
C1147 C1146 1.396 . S
C1147 C1148 1.399 . S
C1148 H1134 0.929 . S
C1148 C1147 1.399 . S
C1148 C1149 1.385 . S
C1149 H1135 0.931 . S
C1149 C1148 1.385 . S
C1149 C1150 1.389 . S
C1150 C1149 1.389 . S
C1150 C1151 1.387 . S
C1151 H1136 0.930 . S
C1151 C1146 1.390 . S
C1151 C1150 1.387 . S
H1152 C1164 0.930 . S
H1153 C1166 0.930 . S
H1154 C1167 0.930 . S
H1155 C1171 0.959 . S
H1156 C1171 0.959 . S
H1157 C1171 0.961 . S
H1158 C1172 0.960 . S
H1159 C1172 0.961 . S
H1160 C1172 0.959 . S
H1161 C1175 0.929 . S
H1162 C1176 0.931 . S
H1163 C1178 0.930 1_554 S
C1164 H1152 0.930 . S
C1164 C1165 1.399 . S
C1164 C1169 1.399 . S
C1165 C1164 1.399 . S
C1165 C1166 1.376 1_554 S
C1166 H1153 0.930 . S
C1166 C1165 1.376 1_556 S
C1166 C1167 1.388 . S
C1167 H1154 0.930 . S
C1167 C1166 1.388 . S
C1167 C1168 1.390 . S
C1168 C1167 1.390 . S
C1168 C1169 1.394 1_556 S
C1168 C1174 1.465 . S
C1169 C1164 1.399 . S
C1169 C1168 1.394 1_554 S
C1169 C1170 1.516 . S
C1170 C1169 1.516 . S
C1170 C1171 1.502 . S
C1170 C1172 1.561 . S
C1170 C1173 1.517 1_554 S
C1171 H1155 0.959 . S
C1171 H1156 0.959 . S
C1171 H1157 0.961 . S
C1171 C1170 1.502 . S
C1172 H1158 0.960 . S
C1172 H1159 0.961 . S
C1172 H1160 0.959 . S
C1172 C1170 1.561 . S
C1173 C1170 1.517 1_556 S
C1173 C1174 1.405 . S
C1173 C1178 1.390 . S
C1174 C1168 1.465 . S
C1174 C1173 1.405 . S
C1174 C1175 1.399 . S
C1175 H1161 0.929 . S
C1175 C1174 1.399 . S
C1175 C1176 1.385 . S
C1176 H1162 0.931 . S
C1176 C1175 1.385 . S
C1176 C1177 1.389 . S
C1177 C1176 1.389 . S
C1177 C1178 1.387 . S
C1178 H1163 0.930 1_556 S
C1178 C1173 1.390 . S
C1178 C1177 1.387 . S
H1179 C1191 0.930 . S
H1180 C1193 0.930 . S
H1181 C1194 0.930 . S
H1182 C1198 0.959 . S
H1183 C1198 0.959 . S
H1184 C1198 0.961 . S
H1185 C1199 0.960 . S
H1186 C1199 0.961 . S
H1187 C1199 0.959 . S
H1188 C1202 0.929 . S
H1189 C1203 0.931 . S
H1190 C1205 0.930 . S
C1191 H1179 0.930 . S
C1191 C1192 1.399 . S
C1191 C1196 1.399 . S
C1192 C1191 1.399 . S
C1192 C1193 1.376 1_556 S
C1193 H1180 0.930 . S
C1193 C1192 1.376 1_554 S
C1193 C1194 1.388 . S
C1194 H1181 0.930 . S
C1194 C1193 1.388 . S
C1194 C1195 1.390 . S
C1195 C1194 1.390 . S
C1195 C1196 1.394 1_554 S
C1195 C1201 1.465 . S
C1196 C1191 1.399 . S
C1196 C1195 1.394 1_556 S
C1196 C1197 1.516 . S
C1197 C1196 1.516 . S
C1197 C1198 1.502 . S
C1197 C1199 1.561 . S
C1197 C1200 1.526 . S
C1198 H1182 0.959 . S
C1198 H1183 0.959 . S
C1198 H1184 0.961 . S
C1198 C1197 1.502 . S
C1199 H1185 0.960 . S
C1199 H1186 0.961 . S
C1199 H1187 0.959 . S
C1199 C1197 1.561 . S
C1200 C1197 1.526 . S
C1200 C1201 1.396 1_556 S
C1200 C1205 1.390 . S
C1201 C1195 1.465 . S
C1201 C1200 1.396 1_554 S
C1201 C1202 1.399 . S
C1202 H1188 0.929 . S
C1202 C1201 1.399 . S
C1202 C1203 1.385 . S
C1203 H1189 0.931 . S
C1203 C1202 1.385 . S
C1203 C1204 1.389 . S
C1204 C1203 1.389 . S
C1204 C1205 1.387 1_554 S
C1205 H1190 0.930 . S
C1205 C1200 1.390 . S
C1205 C1204 1.387 1_556 S
H1206 C1218 0.930 1_556 S
H1207 C1220 0.930 . S
H1208 C1221 0.930 . S
H1209 C1225 0.959 . S
H1210 C1225 0.959 . S
H1211 C1225 0.961 . S
H1212 C1226 0.960 . S
H1213 C1226 0.959 1_556 S
H1214 C1226 0.959 . S
H1215 C1229 0.929 1_554 S
H1216 C1230 0.931 . S
H1217 C1232 0.930 . S
C1218 H1206 0.930 1_554 S
C1218 C1219 1.399 . S
C1218 C1223 1.399 1_554 S
C1219 C1218 1.399 . S
C1219 C1220 1.376 . S
C1220 H1207 0.930 . S
C1220 C1219 1.376 . S
C1220 C1221 1.388 . S
C1221 H1208 0.930 . S
C1221 C1220 1.388 . S
C1221 C1222 1.390 . S
C1222 C1221 1.390 . S
C1222 C1223 1.394 1_554 S
C1222 C1228 1.465 1_554 S
C1223 C1218 1.399 1_556 S
C1223 C1222 1.394 1_556 S
C1223 C1224 1.516 . S
C1224 C1223 1.516 . S
C1224 C1225 1.502 . S
C1224 C1226 1.561 1_556 S
C1224 C1227 1.526 . S
C1225 H1209 0.959 . S
C1225 H1210 0.959 . S
C1225 H1211 0.961 . S
C1225 C1224 1.502 . S
C1226 H1212 0.960 . S
C1226 H1213 0.959 1_554 S
C1226 H1214 0.959 . S
C1226 C1224 1.561 1_554 S
C1227 C1224 1.526 . S
C1227 C1228 1.396 . S
C1227 C1232 1.390 . S
C1228 C1222 1.465 1_556 S
C1228 C1227 1.396 . S
C1228 C1229 1.399 . S
C1229 H1215 0.929 1_556 S
C1229 C1228 1.399 . S
C1229 C1230 1.385 . S
C1230 H1216 0.931 . S
C1230 C1229 1.385 . S
C1230 C1231 1.389 . S
C1231 C1230 1.389 . S
C1231 C1232 1.387 . S
C1232 H1217 0.930 . S
C1232 C1227 1.390 . S
C1232 C1231 1.387 . S
H1233 C1245 0.930 . S
H1234 C1247 0.930 . S
H1235 C1248 0.930 . S
H1236 C1252 0.959 . S
H1237 C1252 0.959 . S
H1238 C1252 0.961 . S
H1239 C1253 0.960 . S
H1240 C1253 0.961 . S
H1241 C1253 0.959 . S
H1242 C1256 0.929 . S
H1243 C1257 0.931 . S
H1244 C1259 0.930 . S
C1245 H1233 0.930 . S
C1245 C1246 1.399 . S
C1245 C1250 1.399 . S
C1246 C1245 1.399 . S
C1246 C1247 1.376 . S
C1247 H1234 0.930 . S
C1247 C1246 1.376 . S
C1247 C1248 1.388 . S
C1248 H1235 0.930 . S
C1248 C1247 1.388 . S
C1248 C1249 1.390 . S
C1249 C1248 1.390 . S
C1249 C1250 1.394 . S
C1249 C1255 1.465 . S
C1250 C1245 1.399 . S
C1250 C1249 1.394 . S
C1250 C1251 1.516 . S
C1251 C1250 1.516 . S
C1251 C1252 1.502 . S
C1251 C1253 1.561 . S
C1251 C1254 1.526 . S
C1252 H1236 0.959 . S
C1252 H1237 0.959 . S
C1252 H1238 0.961 . S
C1252 C1251 1.502 . S
C1253 H1239 0.960 . S
C1253 H1240 0.961 . S
C1253 H1241 0.959 . S
C1253 C1251 1.561 . S
C1254 C1251 1.526 . S
C1254 C1255 1.396 . S
C1254 C1259 1.390 . S
C1255 C1249 1.465 . S
C1255 C1254 1.396 . S
C1255 C1256 1.399 . S
C1256 H1242 0.929 . S
C1256 C1255 1.399 . S
C1256 C1257 1.385 . S
C1257 H1243 0.931 . S
C1257 C1256 1.385 . S
C1257 C1258 1.389 . S
C1258 C1257 1.389 . S
C1258 C1259 1.387 . S
C1259 H1244 0.930 . S
C1259 C1254 1.390 . S
C1259 C1258 1.387 . S
H1260 C1272 0.930 . S
H1261 C1274 0.930 . S
H1262 C1275 0.930 . S
H1263 C1279 0.959 . S
H1264 C1279 0.959 . S
H1265 C1279 0.961 . S
H1266 C1280 0.960 . S
H1267 C1280 0.961 . S
H1268 C1280 0.959 . S
H1269 C1283 0.929 . S
H1270 C1284 0.931 . S
H1271 C1286 0.930 . S
C1272 H1260 0.930 . S
C1272 C1273 1.399 . S
C1272 C1277 1.399 . S
C1273 C1272 1.399 . S
C1273 C1274 1.376 . S
C1274 H1261 0.930 . S
C1274 C1273 1.376 . S
C1274 C1275 1.388 . S
C1275 H1262 0.930 . S
C1275 C1274 1.388 . S
C1275 C1276 1.390 . S
C1276 C1275 1.390 . S
C1276 C1277 1.394 . S
C1276 C1282 1.465 . S
C1277 C1272 1.399 . S
C1277 C1276 1.394 . S
C1277 C1278 1.516 . S
C1278 C1277 1.516 . S
C1278 C1279 1.502 . S
C1278 C1280 1.561 . S
C1278 C1281 1.526 . S
C1279 H1263 0.959 . S
C1279 H1264 0.959 . S
C1279 H1265 0.961 . S
C1279 C1278 1.502 . S
C1280 H1266 0.960 . S
C1280 H1267 0.961 . S
C1280 H1268 0.959 . S
C1280 C1278 1.561 . S
C1281 C1278 1.526 . S
C1281 C1282 1.396 . S
C1281 C1286 1.390 . S
C1282 C1276 1.465 . S
C1282 C1281 1.396 . S
C1282 C1283 1.399 . S
C1283 H1269 0.929 . S
C1283 C1282 1.399 . S
C1283 C1284 1.385 . S
C1284 H1270 0.931 . S
C1284 C1283 1.385 . S
C1284 C1285 1.389 . S
C1285 C1284 1.389 . S
C1285 C1286 1.387 . S
C1286 H1271 0.930 . S
C1286 C1281 1.390 . S
C1286 C1285 1.387 . S
H1287 C1299 0.930 . S
H1288 C1301 0.930 . S
H1289 C1302 0.930 . S
H1290 C1306 0.959 . S
H1291 C1306 0.959 . S
H1292 C1306 0.961 . S
H1293 C1307 0.960 . S
H1294 C1307 0.961 . S
H1295 C1307 0.959 . S
H1296 C1310 0.929 . S
H1297 C1311 0.931 . S
H1298 C1313 0.930 . S
C1299 H1287 0.930 . S
C1299 C1300 1.399 . S
C1299 C1304 1.399 . S
C1300 C1299 1.399 . S
C1300 C1301 1.376 . S
C1301 H1288 0.930 . S
C1301 C1300 1.376 . S
C1301 C1302 1.388 . S
C1302 H1289 0.930 . S
C1302 C1301 1.388 . S
C1302 C1303 1.390 . S
C1303 C1302 1.390 . S
C1303 C1304 1.394 . S
C1303 C1309 1.465 . S
C1304 C1299 1.399 . S
C1304 C1303 1.394 . S
C1304 C1305 1.516 . S
C1305 C1304 1.516 . S
C1305 C1306 1.502 . S
C1305 C1307 1.561 . S
C1305 C1308 1.526 . S
C1306 H1290 0.959 . S
C1306 H1291 0.959 . S
C1306 H1292 0.961 . S
C1306 C1305 1.502 . S
C1307 H1293 0.960 . S
C1307 H1294 0.961 . S
C1307 H1295 0.959 . S
C1307 C1305 1.561 . S
C1308 C1305 1.526 . S
C1308 C1309 1.396 . S
C1308 C1313 1.390 . S
C1309 C1303 1.465 . S
C1309 C1308 1.396 . S
C1309 C1310 1.399 . S
C1310 H1296 0.929 . S
C1310 C1309 1.399 . S
C1310 C1311 1.385 . S
C1311 H1297 0.931 . S
C1311 C1310 1.385 . S
C1311 C1312 1.389 . S
C1312 C1311 1.389 . S
C1312 C1313 1.387 . S
C1313 H1298 0.930 . S
C1313 C1308 1.390 . S
C1313 C1312 1.387 . S
H1314 C1326 0.930 . S
H1315 C1328 0.930 . S
H1316 C1329 0.930 . S
H1317 C1333 0.959 . S
H1318 C1333 0.959 . S
H1319 C1333 0.961 . S
H1320 C1334 0.960 . S
H1321 C1334 0.961 . S
H1322 C1334 0.959 . S
H1323 C1337 0.929 . S
H1324 C1338 0.931 . S
H1325 C1340 0.930 . S
C1326 H1314 0.930 . S
C1326 C1327 1.399 . S
C1326 C1331 1.399 . S
C1327 C1326 1.399 . S
C1327 C1328 1.376 . S
C1328 H1315 0.930 . S
C1328 C1327 1.376 . S
C1328 C1329 1.388 . S
C1329 H1316 0.930 . S
C1329 C1328 1.388 . S
C1329 C1330 1.390 . S
C1330 C1329 1.390 . S
C1330 C1331 1.394 . S
C1330 C1336 1.465 . S
C1331 C1326 1.399 . S
C1331 C1330 1.394 . S
C1331 C1332 1.516 . S
C1332 C1331 1.516 . S
C1332 C1333 1.502 . S
C1332 C1334 1.561 . S
C1332 C1335 1.526 . S
C1333 H1317 0.959 . S
C1333 H1318 0.959 . S
C1333 H1319 0.961 . S
C1333 C1332 1.502 . S
C1334 H1320 0.960 . S
C1334 H1321 0.961 . S
C1334 H1322 0.959 . S
C1334 C1332 1.561 . S
C1335 C1332 1.526 . S
C1335 C1336 1.396 . S
C1335 C1340 1.390 . S
C1336 C1330 1.465 . S
C1336 C1335 1.396 . S
C1336 C1337 1.399 . S
C1337 H1323 0.929 . S
C1337 C1336 1.399 . S
C1337 C1338 1.385 . S
C1338 H1324 0.931 . S
C1338 C1337 1.385 . S
C1338 C1339 1.389 . S
C1339 C1338 1.389 . S
C1339 C1340 1.387 . S
C1340 H1325 0.930 . S
C1340 C1335 1.390 . S
C1340 C1339 1.387 . S
H1341 C1353 0.930 . S
H1342 C1355 0.930 . S
H1343 C1356 0.930 . S
H1344 C1360 0.959 . S
H1345 C1360 0.959 . S
H1346 C1360 0.961 . S
H1347 C1361 0.960 . S
H1348 C1361 0.961 . S
H1349 C1361 0.959 . S
H1350 C1364 0.929 . S
H1351 C1365 0.931 . S
H1352 C1367 0.930 . S
C1353 H1341 0.930 . S
C1353 C1354 1.399 . S
C1353 C1358 1.399 . S
C1354 C1353 1.399 . S
C1354 C1355 1.376 . S
C1355 H1342 0.930 . S
C1355 C1354 1.376 . S
C1355 C1356 1.388 . S
C1356 H1343 0.930 . S
C1356 C1355 1.388 . S
C1356 C1357 1.390 . S
C1357 C1356 1.390 . S
C1357 C1358 1.394 . S
C1357 C1363 1.465 . S
C1358 C1353 1.399 . S
C1358 C1357 1.394 . S
C1358 C1359 1.516 . S
C1359 C1358 1.516 . S
C1359 C1360 1.502 . S
C1359 C1361 1.561 . S
C1359 C1362 1.526 . S
C1360 H1344 0.959 . S
C1360 H1345 0.959 . S
C1360 H1346 0.961 . S
C1360 C1359 1.502 . S
C1361 H1347 0.960 . S
C1361 H1348 0.961 . S
C1361 H1349 0.959 . S
C1361 C1359 1.561 . S
C1362 C1359 1.526 . S
C1362 C1363 1.396 . S
C1362 C1367 1.390 . S
C1363 C1357 1.465 . S
C1363 C1362 1.396 . S
C1363 C1364 1.399 . S
C1364 H1350 0.929 . S
C1364 C1363 1.399 . S
C1364 C1365 1.385 . S
C1365 H1351 0.931 . S
C1365 C1364 1.385 . S
C1365 C1366 1.389 . S
C1366 C1365 1.389 . S
C1366 C1367 1.387 . S
C1367 H1352 0.930 . S
C1367 C1362 1.390 . S
C1367 C1366 1.387 . S
H1368 C1380 0.930 . S
H1369 C1382 0.930 . S
H1370 C1383 0.930 . S
H1371 C1387 0.959 . S
H1372 C1387 0.959 . S
H1373 C1387 0.961 . S
H1374 C1388 0.960 . S
H1375 C1388 0.961 . S
H1376 C1388 0.959 . S
H1377 C1391 0.929 . S
H1378 C1392 0.931 . S
H1379 C1394 0.930 . S
C1380 H1368 0.930 . S
C1380 C1381 1.399 . S
C1380 C1385 1.399 . S
C1381 C1380 1.399 . S
C1381 C1382 1.376 . S
C1382 H1369 0.930 . S
C1382 C1381 1.376 . S
C1382 C1383 1.388 . S
C1383 H1370 0.930 . S
C1383 C1382 1.388 . S
C1383 C1384 1.390 . S
C1384 C1383 1.390 . S
C1384 C1385 1.394 . S
C1384 C1390 1.465 . S
C1385 C1380 1.399 . S
C1385 C1384 1.394 . S
C1385 C1386 1.516 . S
C1386 C1385 1.516 . S
C1386 C1387 1.502 . S
C1386 C1388 1.561 . S
C1386 C1389 1.526 . S
C1387 H1371 0.959 . S
C1387 H1372 0.959 . S
C1387 H1373 0.961 . S
C1387 C1386 1.502 . S
C1388 H1374 0.960 . S
C1388 H1375 0.961 . S
C1388 H1376 0.959 . S
C1388 C1386 1.561 . S
C1389 C1386 1.526 . S
C1389 C1390 1.396 . S
C1389 C1394 1.390 . S
C1390 C1384 1.465 . S
C1390 C1389 1.396 . S
C1390 C1391 1.399 . S
C1391 H1377 0.929 . S
C1391 C1390 1.399 . S
C1391 C1392 1.385 . S
C1392 H1378 0.931 . S
C1392 C1391 1.385 . S
C1392 C1393 1.389 . S
C1393 C1392 1.389 . S
C1393 C1394 1.387 . S
C1394 H1379 0.930 . S
C1394 C1389 1.390 . S
C1394 C1393 1.387 . S
H1395 C1407 0.930 . S
H1396 C1409 0.930 . S
H1397 C1410 0.930 . S
H1398 C1414 0.959 . S
H1399 C1414 0.959 . S
H1400 C1414 0.961 . S
H1401 C1415 0.960 . S
H1402 C1415 0.961 . S
H1403 C1415 0.959 . S
H1404 C1418 0.929 . S
H1405 C1419 0.931 . S
H1406 C1421 0.930 . S
C1407 H1395 0.930 . S
C1407 C1408 1.399 . S
C1407 C1412 1.399 . S
C1408 C1407 1.399 . S
C1408 C1409 1.376 . S
C1409 H1396 0.930 . S
C1409 C1408 1.376 . S
C1409 C1410 1.388 . S
C1410 H1397 0.930 . S
C1410 C1409 1.388 . S
C1410 C1411 1.390 . S
C1411 C1410 1.390 . S
C1411 C1412 1.394 . S
C1411 C1417 1.465 . S
C1412 C1407 1.399 . S
C1412 C1411 1.394 . S
C1412 C1413 1.516 . S
C1413 C1412 1.516 . S
C1413 C1414 1.502 . S
C1413 C1415 1.561 . S
C1413 C1416 1.526 . S
C1414 H1398 0.959 . S
C1414 H1399 0.959 . S
C1414 H1400 0.961 . S
C1414 C1413 1.502 . S
C1415 H1401 0.960 . S
C1415 H1402 0.961 . S
C1415 H1403 0.959 . S
C1415 C1413 1.561 . S
C1416 C1413 1.526 . S
C1416 C1417 1.396 . S
C1416 C1421 1.390 . S
C1417 C1411 1.465 . S
C1417 C1416 1.396 . S
C1417 C1418 1.399 . S
C1418 H1404 0.929 . S
C1418 C1417 1.399 . S
C1418 C1419 1.385 . S
C1419 H1405 0.931 . S
C1419 C1418 1.385 . S
C1419 C1420 1.389 . S
C1420 C1419 1.389 . S
C1420 C1421 1.387 . S
C1421 H1406 0.930 . S
C1421 C1416 1.390 . S
C1421 C1420 1.387 . S
H1422 C1434 0.930 . S
H1423 C1436 0.930 . S
H1424 C1437 0.930 . S
H1425 C1441 0.959 . S
H1426 C1441 0.959 . S
H1427 C1441 0.961 . S
H1428 C1442 0.960 . S
H1429 C1442 0.961 . S
H1430 C1442 0.959 . S
H1431 C1445 0.929 . S
H1432 C1446 0.931 . S
H1433 C1448 0.930 . S
C1434 H1422 0.930 . S
C1434 C1435 1.399 . S
C1434 C1439 1.399 . S
C1435 C1434 1.399 . S
C1435 C1436 1.376 . S
C1436 H1423 0.930 . S
C1436 C1435 1.376 . S
C1436 C1437 1.388 . S
C1437 H1424 0.930 . S
C1437 C1436 1.388 . S
C1437 C1438 1.390 . S
C1438 C1437 1.390 . S
C1438 C1439 1.394 . S
C1438 C1444 1.465 . S
C1439 C1434 1.399 . S
C1439 C1438 1.394 . S
C1439 C1440 1.516 . S
C1440 C1439 1.516 . S
C1440 C1441 1.502 . S
C1440 C1442 1.561 . S
C1440 C1443 1.526 . S
C1441 H1425 0.959 . S
C1441 H1426 0.959 . S
C1441 H1427 0.961 . S
C1441 C1440 1.502 . S
C1442 H1428 0.960 . S
C1442 H1429 0.961 . S
C1442 H1430 0.959 . S
C1442 C1440 1.561 . S
C1443 C1440 1.526 . S
C1443 C1444 1.396 . S
C1443 C1448 1.390 . S
C1444 C1438 1.465 . S
C1444 C1443 1.396 . S
C1444 C1445 1.399 . S
C1445 H1431 0.929 . S
C1445 C1444 1.399 . S
C1445 C1446 1.385 . S
C1446 H1432 0.931 . S
C1446 C1445 1.385 . S
C1446 C1447 1.389 . S
C1447 C1446 1.389 . S
C1447 C1448 1.387 . S
C1448 H1433 0.930 . S
C1448 C1443 1.390 . S
C1448 C1447 1.387 . S
H1449 C1461 0.930 . S
H1450 C1463 0.930 . S
H1451 C1464 0.930 . S
H1452 C1468 0.959 . S
H1453 C1468 0.959 . S
H1454 C1468 0.961 . S
H1455 C1469 0.960 . S
H1456 C1469 0.961 . S
H1457 C1469 0.959 . S
H1458 C1472 0.929 . S
H1459 C1473 0.931 . S
H1460 C1475 0.930 . S
C1461 H1449 0.930 . S
C1461 C1462 1.399 . S
C1461 C1466 1.399 . S
C1462 C1461 1.399 . S
C1462 C1463 1.376 . S
C1463 H1450 0.930 . S
C1463 C1462 1.376 . S
C1463 C1464 1.388 . S
C1464 H1451 0.930 . S
C1464 C1463 1.388 . S
C1464 C1465 1.390 . S
C1465 C1464 1.390 . S
C1465 C1466 1.394 . S
C1465 C1471 1.465 . S
C1466 C1461 1.399 . S
C1466 C1465 1.394 . S
C1466 C1467 1.516 . S
C1467 C1466 1.516 . S
C1467 C1468 1.502 . S
C1467 C1469 1.561 . S
C1467 C1470 1.526 . S
C1468 H1452 0.959 . S
C1468 H1453 0.959 . S
C1468 H1454 0.961 . S
C1468 C1467 1.502 . S
C1469 H1455 0.960 . S
C1469 H1456 0.961 . S
C1469 H1457 0.959 . S
C1469 C1467 1.561 . S
C1470 C1467 1.526 . S
C1470 C1471 1.396 . S
C1470 C1475 1.390 . S
C1471 C1465 1.465 . S
C1471 C1470 1.396 . S
C1471 C1472 1.399 . S
C1472 H1458 0.929 . S
C1472 C1471 1.399 . S
C1472 C1473 1.385 . S
C1473 H1459 0.931 . S
C1473 C1472 1.385 . S
C1473 C1474 1.389 . S
C1474 C1473 1.389 . S
C1474 C1475 1.387 . S
C1475 H1460 0.930 . S
C1475 C1470 1.390 . S
C1475 C1474 1.387 . S
H1476 C1488 0.930 . S
H1477 C1490 0.930 . S
H1478 C1491 0.930 . S
H1479 C1495 0.959 . S
H1480 C1495 0.959 . S
H1481 C1495 0.961 . S
H1482 C1496 0.960 . S
H1483 C1496 0.961 . S
H1484 C1496 0.959 . S
H1485 C1499 0.929 . S
H1486 C1500 0.931 . S
H1487 C1502 0.930 . S
C1488 H1476 0.930 . S
C1488 C1489 1.399 . S
C1488 C1493 1.399 . S
C1489 C1488 1.399 . S
C1489 C1490 1.376 . S
C1490 H1477 0.930 . S
C1490 C1489 1.376 . S
C1490 C1491 1.388 . S
C1491 H1478 0.930 . S
C1491 C1490 1.388 . S
C1491 C1492 1.390 . S
C1492 C1491 1.390 . S
C1492 C1493 1.394 . S
C1492 C1498 1.465 . S
C1493 C1488 1.399 . S
C1493 C1492 1.394 . S
C1493 C1494 1.516 . S
C1494 C1493 1.516 . S
C1494 C1495 1.502 . S
C1494 C1496 1.561 . S
C1494 C1497 1.526 . S
C1495 H1479 0.959 . S
C1495 H1480 0.959 . S
C1495 H1481 0.961 . S
C1495 C1494 1.502 . S
C1496 H1482 0.960 . S
C1496 H1483 0.961 . S
C1496 H1484 0.959 . S
C1496 C1494 1.561 . S
C1497 C1494 1.526 . S
C1497 C1498 1.396 . S
C1497 C1502 1.390 . S
C1498 C1492 1.465 . S
C1498 C1497 1.396 . S
C1498 C1499 1.399 . S
C1499 H1485 0.929 . S
C1499 C1498 1.399 . S
C1499 C1500 1.385 . S
C1500 H1486 0.931 . S
C1500 C1499 1.385 . S
C1500 C1501 1.389 . S
C1501 C1500 1.389 . S
C1501 C1502 1.387 . S
C1502 H1487 0.930 . S
C1502 C1497 1.390 . S
C1502 C1501 1.387 . S
H1503 C1515 0.930 . S
H1504 C1517 0.930 . S
H1505 C1518 0.930 . S
H1506 C1522 0.959 . S
H1507 C1522 0.959 . S
H1508 C1522 0.961 . S
H1509 C1523 0.960 . S
H1510 C1523 0.961 . S
H1511 C1523 0.959 . S
H1512 C1526 0.929 . S
H1513 C1527 0.931 . S
H1514 C1529 0.930 . S
C1515 H1503 0.930 . S
C1515 C1516 1.399 . S
C1515 C1520 1.399 . S
C1516 C1515 1.399 . S
C1516 C1517 1.376 . S
C1517 H1504 0.930 . S
C1517 C1516 1.376 . S
C1517 C1518 1.388 . S
C1518 H1505 0.930 . S
C1518 C1517 1.388 . S
C1518 C1519 1.390 . S
C1519 C1518 1.390 . S
C1519 C1520 1.394 . S
C1519 C1525 1.465 . S
C1520 C1515 1.399 . S
C1520 C1519 1.394 . S
C1520 C1521 1.516 . S
C1521 C1520 1.516 . S
C1521 C1522 1.502 . S
C1521 C1523 1.561 . S
C1521 C1524 1.526 . S
C1522 H1506 0.959 . S
C1522 H1507 0.959 . S
C1522 H1508 0.961 . S
C1522 C1521 1.502 . S
C1523 H1509 0.960 . S
C1523 H1510 0.961 . S
C1523 H1511 0.959 . S
C1523 C1521 1.561 . S
C1524 C1521 1.526 . S
C1524 C1525 1.396 . S
C1524 C1529 1.390 . S
C1525 C1519 1.465 . S
C1525 C1524 1.396 . S
C1525 C1526 1.399 . S
C1526 H1512 0.929 . S
C1526 C1525 1.399 . S
C1526 C1527 1.385 . S
C1527 H1513 0.931 . S
C1527 C1526 1.385 . S
C1527 C1528 1.389 . S
C1528 C1527 1.389 . S
C1528 C1529 1.387 . S
C1529 H1514 0.930 . S
C1529 C1524 1.390 . S
C1529 C1528 1.387 . S
H1530 C1542 0.930 . S
H1531 C1544 0.930 . S
H1532 C1545 0.930 . S
H1533 C1549 0.959 . S
H1534 C1549 0.959 . S
H1535 C1549 0.961 . S
H1536 C1550 0.960 . S
H1537 C1550 0.961 . S
H1538 C1550 0.959 . S
H1539 C1553 0.929 . S
H1540 C1554 0.931 . S
H1541 C1556 0.930 . S
C1542 H1530 0.930 . S
C1542 C1543 1.399 . S
C1542 C1547 1.399 . S
C1543 C1542 1.399 . S
C1543 C1544 1.376 . S
C1544 H1531 0.930 . S
C1544 C1543 1.376 . S
C1544 C1545 1.388 . S
C1545 H1532 0.930 . S
C1545 C1544 1.388 . S
C1545 C1546 1.390 . S
C1546 C1545 1.390 . S
C1546 C1547 1.394 . S
C1546 C1552 1.465 . S
C1547 C1542 1.399 . S
C1547 C1546 1.394 . S
C1547 C1548 1.516 . S
C1548 C1547 1.516 . S
C1548 C1549 1.502 . S
C1548 C1550 1.561 . S
C1548 C1551 1.526 . S
C1549 H1533 0.959 . S
C1549 H1534 0.959 . S
C1549 H1535 0.961 . S
C1549 C1548 1.502 . S
C1550 H1536 0.960 . S
C1550 H1537 0.961 . S
C1550 H1538 0.959 . S
C1550 C1548 1.561 . S
C1551 C1548 1.526 . S
C1551 C1552 1.396 . S
C1551 C1556 1.390 . S
C1552 C1546 1.465 . S
C1552 C1551 1.396 . S
C1552 C1553 1.399 . S
C1553 H1539 0.929 . S
C1553 C1552 1.399 . S
C1553 C1554 1.385 . S
C1554 H1540 0.931 . S
C1554 C1553 1.385 . S
C1554 C1555 1.389 . S
C1555 C1554 1.389 . S
C1555 C1556 1.387 . S
C1556 H1541 0.930 . S
C1556 C1551 1.390 . S
C1556 C1555 1.387 . S
H1557 C1569 0.930 . S
H1558 C1571 0.930 . S
H1559 C1572 0.930 . S
H1560 C1576 0.959 . S
H1561 C1576 0.959 . S
H1562 C1576 0.961 . S
H1563 C1577 0.960 . S
H1564 C1577 0.961 . S
H1565 C1577 0.959 . S
H1566 C1580 0.929 . S
H1567 C1581 0.931 . S
H1568 C1583 0.930 . S
C1569 H1557 0.930 . S
C1569 C1570 1.399 . S
C1569 C1574 1.399 . S
C1570 C1569 1.399 . S
C1570 C1571 1.376 . S
C1571 H1558 0.930 . S
C1571 C1570 1.376 . S
C1571 C1572 1.388 . S
C1572 H1559 0.930 . S
C1572 C1571 1.388 . S
C1572 C1573 1.390 . S
C1573 C1572 1.390 . S
C1573 C1574 1.394 . S
C1573 C1579 1.465 . S
C1574 C1569 1.399 . S
C1574 C1573 1.394 . S
C1574 C1575 1.516 . S
C1575 C1574 1.516 . S
C1575 C1576 1.502 . S
C1575 C1577 1.561 . S
C1575 C1578 1.526 . S
C1576 H1560 0.959 . S
C1576 H1561 0.959 . S
C1576 H1562 0.961 . S
C1576 C1575 1.502 . S
C1577 H1563 0.960 . S
C1577 H1564 0.961 . S
C1577 H1565 0.959 . S
C1577 C1575 1.561 . S
C1578 C1575 1.526 . S
C1578 C1579 1.396 . S
C1578 C1583 1.390 . S
C1579 C1573 1.465 . S
C1579 C1578 1.396 . S
C1579 C1580 1.399 . S
C1580 H1566 0.929 . S
C1580 C1579 1.399 . S
C1580 C1581 1.385 . S
C1581 H1567 0.931 . S
C1581 C1580 1.385 . S
C1581 C1582 1.389 . S
C1582 C1581 1.389 . S
C1582 C1583 1.387 . S
C1583 H1568 0.930 . S
C1583 C1578 1.390 . S
C1583 C1582 1.387 . S
H1584 C1596 0.930 . S
H1585 C1598 0.930 . S
H1586 C1599 0.930 . S
H1587 C1603 0.959 . S
H1588 C1603 0.959 . S
H1589 C1603 0.961 . S
H1590 C1604 0.960 . S
H1591 C1604 0.961 . S
H1592 C1604 0.959 . S
H1593 C1607 0.929 . S
H1594 C1608 0.931 . S
H1595 C1610 0.930 . S
C1596 H1584 0.930 . S
C1596 C1597 1.399 . S
C1596 C1601 1.399 . S
C1597 C1596 1.399 . S
C1597 C1598 1.376 . S
C1598 H1585 0.930 . S
C1598 C1597 1.376 . S
C1598 C1599 1.388 . S
C1599 H1586 0.930 . S
C1599 C1598 1.388 . S
C1599 C1600 1.390 . S
C1600 C1599 1.390 . S
C1600 C1601 1.394 . S
C1600 C1606 1.465 . S
C1601 C1596 1.399 . S
C1601 C1600 1.394 . S
C1601 C1602 1.516 . S
C1602 C1601 1.516 . S
C1602 C1603 1.502 . S
C1602 C1604 1.561 . S
C1602 C1605 1.526 . S
C1603 H1587 0.959 . S
C1603 H1588 0.959 . S
C1603 H1589 0.961 . S
C1603 C1602 1.502 . S
C1604 H1590 0.960 . S
C1604 H1591 0.961 . S
C1604 H1592 0.959 . S
C1604 C1602 1.561 . S
C1605 C1602 1.526 . S
C1605 C1606 1.396 . S
C1605 C1610 1.390 . S
C1606 C1600 1.465 . S
C1606 C1605 1.396 . S
C1606 C1607 1.399 . S
C1607 H1593 0.929 . S
C1607 C1606 1.399 . S
C1607 C1608 1.385 . S
C1608 H1594 0.931 . S
C1608 C1607 1.385 . S
C1608 C1609 1.389 . S
C1609 C1608 1.389 . S
C1609 C1610 1.387 . S
C1610 H1595 0.930 . S
C1610 C1605 1.390 . S
C1610 C1609 1.387 . S
H1611 C1623 0.930 . S
H1612 C1625 0.930 . S
H1613 C1626 0.930 . S
H1614 C1630 0.959 . S
H1615 C1630 0.959 . S
H1616 C1630 0.961 . S
H1617 C1631 0.960 . S
H1618 C1631 0.961 . S
H1619 C1631 0.959 . S
H1620 C1634 0.929 . S
H1621 C1635 0.931 . S
H1622 C1637 0.930 . S
C1623 H1611 0.930 . S
C1623 C1624 1.399 . S
C1623 C1628 1.399 . S
C1624 C1623 1.399 . S
C1624 C1625 1.376 . S
C1625 H1612 0.930 . S
C1625 C1624 1.376 . S
C1625 C1626 1.388 . S
C1626 H1613 0.930 . S
C1626 C1625 1.388 . S
C1626 C1627 1.390 . S
C1627 C1626 1.390 . S
C1627 C1628 1.394 . S
C1627 C1633 1.465 . S
C1628 C1623 1.399 . S
C1628 C1627 1.394 . S
C1628 C1629 1.516 . S
C1629 C1628 1.516 . S
C1629 C1630 1.502 . S
C1629 C1631 1.561 . S
C1629 C1632 1.526 . S
C1630 H1614 0.959 . S
C1630 H1615 0.959 . S
C1630 H1616 0.961 . S
C1630 C1629 1.502 . S
C1631 H1617 0.960 . S
C1631 H1618 0.961 . S
C1631 H1619 0.959 . S
C1631 C1629 1.561 . S
C1632 C1629 1.526 . S
C1632 C1633 1.396 . S
C1632 C1637 1.390 . S
C1633 C1627 1.465 . S
C1633 C1632 1.396 . S
C1633 C1634 1.399 . S
C1634 H1620 0.929 . S
C1634 C1633 1.399 . S
C1634 C1635 1.385 . S
C1635 H1621 0.931 . S
C1635 C1634 1.385 . S
C1635 C1636 1.389 . S
C1636 C1635 1.389 . S
C1636 C1637 1.387 . S
C1637 H1622 0.930 . S
C1637 C1632 1.390 . S
C1637 C1636 1.387 . S
H1638 C1650 0.930 . S
H1639 C1652 0.930 . S
H1640 C1653 0.930 . S
H1641 C1657 0.959 . S
H1642 C1657 0.959 . S
H1643 C1657 0.961 . S
H1644 C1658 0.960 . S
H1645 C1658 0.961 . S
H1646 C1658 0.959 . S
H1647 C1661 0.929 . S
H1648 C1662 0.931 . S
H1649 C1664 0.930 . S
C1650 H1638 0.930 . S
C1650 C1651 1.399 . S
C1650 C1655 1.399 . S
C1651 C1650 1.399 . S
C1651 C1652 1.376 . S
C1652 H1639 0.930 . S
C1652 C1651 1.376 . S
C1652 C1653 1.388 . S
C1653 H1640 0.930 . S
C1653 C1652 1.388 . S
C1653 C1654 1.390 . S
C1654 C1653 1.390 . S
C1654 C1655 1.394 . S
C1654 C1660 1.465 . S
C1655 C1650 1.399 . S
C1655 C1654 1.394 . S
C1655 C1656 1.516 . S
C1656 C1655 1.516 . S
C1656 C1657 1.502 . S
C1656 C1658 1.561 . S
C1656 C1659 1.526 . S
C1657 H1641 0.959 . S
C1657 H1642 0.959 . S
C1657 H1643 0.961 . S
C1657 C1656 1.502 . S
C1658 H1644 0.960 . S
C1658 H1645 0.961 . S
C1658 H1646 0.959 . S
C1658 C1656 1.561 . S
C1659 C1656 1.526 . S
C1659 C1660 1.396 . S
C1659 C1664 1.390 . S
C1660 C1654 1.465 . S
C1660 C1659 1.396 . S
C1660 C1661 1.399 . S
C1661 H1647 0.929 . S
C1661 C1660 1.399 . S
C1661 C1662 1.385 . S
C1662 H1648 0.931 . S
C1662 C1661 1.385 . S
C1662 C1663 1.389 . S
C1663 C1662 1.389 . S
C1663 C1664 1.387 . S
C1664 H1649 0.930 . S
C1664 C1659 1.390 . S
C1664 C1663 1.387 . S
H1665 C1677 0.930 . S
H1666 C1679 0.930 . S
H1667 C1680 0.930 . S
H1668 C1684 0.959 . S
H1669 C1684 0.959 . S
H1670 C1684 0.961 . S
H1671 C1685 0.960 . S
H1672 C1685 0.961 . S
H1673 C1685 0.959 . S
H1674 C1688 0.929 . S
H1675 C1689 0.931 . S
H1676 C1691 0.930 . S
C1677 H1665 0.930 . S
C1677 C1678 1.399 . S
C1677 C1682 1.399 . S
C1678 C1677 1.399 . S
C1678 C1679 1.376 . S
C1679 H1666 0.930 . S
C1679 C1678 1.376 . S
C1679 C1680 1.388 . S
C1680 H1667 0.930 . S
C1680 C1679 1.388 . S
C1680 C1681 1.390 . S
C1681 C1680 1.390 . S
C1681 C1682 1.394 . S
C1681 C1687 1.465 . S
C1682 C1677 1.399 . S
C1682 C1681 1.394 . S
C1682 C1683 1.516 . S
C1683 C1682 1.516 . S
C1683 C1684 1.502 . S
C1683 C1685 1.561 . S
C1683 C1686 1.526 . S
C1684 H1668 0.959 . S
C1684 H1669 0.959 . S
C1684 H1670 0.961 . S
C1684 C1683 1.502 . S
C1685 H1671 0.960 . S
C1685 H1672 0.961 . S
C1685 H1673 0.959 . S
C1685 C1683 1.561 . S
C1686 C1683 1.526 . S
C1686 C1687 1.396 . S
C1686 C1691 1.390 . S
C1687 C1681 1.465 . S
C1687 C1686 1.396 . S
C1687 C1688 1.399 . S
C1688 H1674 0.929 . S
C1688 C1687 1.399 . S
C1688 C1689 1.385 . S
C1689 H1675 0.931 . S
C1689 C1688 1.385 . S
C1689 C1690 1.389 . S
C1690 C1689 1.389 . S
C1690 C1691 1.387 . S
C1691 H1676 0.930 . S
C1691 C1686 1.390 . S
C1691 C1690 1.387 . S
H1692 C1704 0.930 . S
H1693 C1706 0.930 . S
H1694 C1707 0.930 . S
H1695 C1711 0.959 . S
H1696 C1711 0.959 . S
H1697 C1711 0.961 . S
H1698 C1712 0.960 . S
H1699 C1712 0.961 . S
H1700 C1712 0.959 . S
H1701 C1715 0.929 . S
H1702 C1716 0.931 . S
H1703 C1718 0.930 . S
C1704 H1692 0.930 . S
C1704 C1705 1.399 . S
C1704 C1709 1.399 . S
C1705 C1704 1.399 . S
C1705 C1706 1.376 . S
C1706 H1693 0.930 . S
C1706 C1705 1.376 . S
C1706 C1707 1.388 . S
C1707 H1694 0.930 . S
C1707 C1706 1.388 . S
C1707 C1708 1.390 . S
C1708 C1707 1.390 . S
C1708 C1709 1.394 . S
C1708 C1714 1.465 . S
C1709 C1704 1.399 . S
C1709 C1708 1.394 . S
C1709 C1710 1.516 . S
C1710 C1709 1.516 . S
C1710 C1711 1.502 . S
C1710 C1712 1.561 . S
C1710 C1713 1.526 . S
C1711 H1695 0.959 . S
C1711 H1696 0.959 . S
C1711 H1697 0.961 . S
C1711 C1710 1.502 . S
C1712 H1698 0.960 . S
C1712 H1699 0.961 . S
C1712 H1700 0.959 . S
C1712 C1710 1.561 . S
C1713 C1710 1.526 . S
C1713 C1714 1.396 . S
C1713 C1718 1.390 . S
C1714 C1708 1.465 . S
C1714 C1713 1.396 . S
C1714 C1715 1.399 . S
C1715 H1701 0.929 . S
C1715 C1714 1.399 . S
C1715 C1716 1.385 . S
C1716 H1702 0.931 . S
C1716 C1715 1.385 . S
C1716 C1717 1.389 . S
C1717 C1716 1.389 . S
C1717 C1718 1.387 . S
C1718 H1703 0.930 . S
C1718 C1713 1.390 . S
C1718 C1717 1.387 . S
H1719 C1731 0.930 . S
H1720 C1733 0.930 . S
H1721 C1734 0.930 . S
H1722 C1738 0.959 . S
H1723 C1738 0.959 . S
H1724 C1738 0.961 . S
H1725 C1739 0.960 . S
H1726 C1739 0.961 . S
H1727 C1739 0.959 . S
H1728 C1742 0.929 . S
H1729 C1743 0.931 . S
H1730 C1745 0.930 . S
C1731 H1719 0.930 . S
C1731 C1732 1.399 . S
C1731 C1736 1.399 . S
C1732 C1731 1.399 . S
C1732 C1733 1.376 . S
C1733 H1720 0.930 . S
C1733 C1732 1.376 . S
C1733 C1734 1.388 . S
C1734 H1721 0.930 . S
C1734 C1733 1.388 . S
C1734 C1735 1.390 . S
C1735 C1734 1.390 . S
C1735 C1736 1.394 . S
C1735 C1741 1.465 . S
C1736 C1731 1.399 . S
C1736 C1735 1.394 . S
C1736 C1737 1.516 . S
C1737 C1736 1.516 . S
C1737 C1738 1.502 . S
C1737 C1739 1.561 . S
C1737 C1740 1.526 . S
C1738 H1722 0.959 . S
C1738 H1723 0.959 . S
C1738 H1724 0.961 . S
C1738 C1737 1.502 . S
C1739 H1725 0.960 . S
C1739 H1726 0.961 . S
C1739 H1727 0.959 . S
C1739 C1737 1.561 . S
C1740 C1737 1.526 . S
C1740 C1741 1.396 . S
C1740 C1745 1.390 . S
C1741 C1735 1.465 . S
C1741 C1740 1.396 . S
C1741 C1742 1.399 . S
C1742 H1728 0.929 . S
C1742 C1741 1.399 . S
C1742 C1743 1.385 . S
C1743 H1729 0.931 . S
C1743 C1742 1.385 . S
C1743 C1744 1.389 . S
C1744 C1743 1.389 . S
C1744 C1745 1.387 . S
C1745 H1730 0.930 . S
C1745 C1740 1.390 . S
C1745 C1744 1.387 . S
H1746 C1758 0.930 . S
H1747 C1760 0.930 . S
H1748 C1761 0.930 . S
H1749 C1765 0.959 . S
H1750 C1765 0.959 . S
H1751 C1765 0.961 . S
H1752 C1766 0.960 . S
H1753 C1766 0.961 . S
H1754 C1766 0.959 . S
H1755 C1769 0.929 . S
H1756 C1770 0.931 . S
H1757 C1772 0.930 . S
C1758 H1746 0.930 . S
C1758 C1759 1.399 . S
C1758 C1763 1.399 . S
C1759 C1758 1.399 . S
C1759 C1760 1.376 . S
C1760 H1747 0.930 . S
C1760 C1759 1.376 . S
C1760 C1761 1.388 . S
C1761 H1748 0.930 . S
C1761 C1760 1.388 . S
C1761 C1762 1.390 . S
C1762 C1761 1.390 . S
C1762 C1763 1.394 . S
C1762 C1768 1.465 . S
C1763 C1758 1.399 . S
C1763 C1762 1.394 . S
C1763 C1764 1.516 . S
C1764 C1763 1.516 . S
C1764 C1765 1.502 . S
C1764 C1766 1.561 . S
C1764 C1767 1.526 . S
C1765 H1749 0.959 . S
C1765 H1750 0.959 . S
C1765 H1751 0.961 . S
C1765 C1764 1.502 . S
C1766 H1752 0.960 . S
C1766 H1753 0.961 . S
C1766 H1754 0.959 . S
C1766 C1764 1.561 . S
C1767 C1764 1.526 . S
C1767 C1768 1.396 . S
C1767 C1772 1.390 . S
C1768 C1762 1.465 . S
C1768 C1767 1.396 . S
C1768 C1769 1.399 . S
C1769 H1755 0.929 . S
C1769 C1768 1.399 . S
C1769 C1770 1.385 . S
C1770 H1756 0.931 . S
C1770 C1769 1.385 . S
C1770 C1771 1.389 . S
C1771 C1770 1.389 . S
C1771 C1772 1.387 . S
C1772 H1757 0.930 . S
C1772 C1767 1.390 . S
C1772 C1771 1.387 . S
H1773 C1785 0.930 . S
H1774 C1787 0.930 . S
H1775 C1788 0.930 . S
H1776 C1792 0.959 . S
H1777 C1792 0.959 . S
H1778 C1792 0.961 . S
H1779 C1793 0.960 . S
H1780 C1793 0.961 . S
H1781 C1793 0.959 . S
H1782 C1796 0.929 . S
H1783 C1797 0.931 . S
H1784 C1799 0.930 . S
C1785 H1773 0.930 . S
C1785 C1786 1.399 . S
C1785 C1790 1.399 . S
C1786 C1785 1.399 . S
C1786 C1787 1.376 . S
C1787 H1774 0.930 . S
C1787 C1786 1.376 . S
C1787 C1788 1.388 . S
C1788 H1775 0.930 . S
C1788 C1787 1.388 . S
C1788 C1789 1.390 . S
C1789 C1788 1.390 . S
C1789 C1790 1.394 . S
C1789 C1795 1.465 . S
C1790 C1785 1.399 . S
C1790 C1789 1.394 . S
C1790 C1791 1.516 . S
C1791 C1790 1.516 . S
C1791 C1792 1.502 . S
C1791 C1793 1.561 . S
C1791 C1794 1.526 . S
C1792 H1776 0.959 . S
C1792 H1777 0.959 . S
C1792 H1778 0.961 . S
C1792 C1791 1.502 . S
C1793 H1779 0.960 . S
C1793 H1780 0.961 . S
C1793 H1781 0.959 . S
C1793 C1791 1.561 . S
C1794 C1791 1.526 . S
C1794 C1795 1.396 . S
C1794 C1799 1.390 . S
C1795 C1789 1.465 . S
C1795 C1794 1.396 . S
C1795 C1796 1.399 . S
C1796 H1782 0.929 . S
C1796 C1795 1.399 . S
C1796 C1797 1.385 . S
C1797 H1783 0.931 . S
C1797 C1796 1.385 . S
C1797 C1798 1.389 . S
C1798 C1797 1.389 . S
C1798 C1799 1.387 . S
C1799 H1784 0.930 . S
C1799 C1794 1.390 . S
C1799 C1798 1.387 . S
H1800 C1812 0.930 . S
H1801 C1814 0.930 . S
H1802 C1815 0.930 . S
H1803 C1819 0.959 . S
H1804 C1819 0.959 . S
H1805 C1819 0.961 . S
H1806 C1820 0.960 . S
H1807 C1820 0.961 . S
H1808 C1820 0.959 . S
H1809 C1823 0.929 . S
H1810 C1824 0.931 . S
H1811 C1826 0.930 . S
C1812 H1800 0.930 . S
C1812 C1813 1.399 . S
C1812 C1817 1.399 . S
C1813 C1812 1.399 . S
C1813 C1814 1.376 . S
C1814 H1801 0.930 . S
C1814 C1813 1.376 . S
C1814 C1815 1.388 . S
C1815 H1802 0.930 . S
C1815 C1814 1.388 . S
C1815 C1816 1.390 . S
C1816 C1815 1.390 . S
C1816 C1817 1.394 . S
C1816 C1822 1.465 . S
C1817 C1812 1.399 . S
C1817 C1816 1.394 . S
C1817 C1818 1.516 . S
C1818 C1817 1.516 . S
C1818 C1819 1.502 . S
C1818 C1820 1.561 . S
C1818 C1821 1.526 . S
C1819 H1803 0.959 . S
C1819 H1804 0.959 . S
C1819 H1805 0.961 . S
C1819 C1818 1.502 . S
C1820 H1806 0.960 . S
C1820 H1807 0.961 . S
C1820 H1808 0.959 . S
C1820 C1818 1.561 . S
C1821 C1818 1.526 . S
C1821 C1822 1.396 . S
C1821 C1826 1.390 . S
C1822 C1816 1.465 . S
C1822 C1821 1.396 . S
C1822 C1823 1.399 . S
C1823 H1809 0.929 . S
C1823 C1822 1.399 . S
C1823 C1824 1.385 . S
C1824 H1810 0.931 . S
C1824 C1823 1.385 . S
C1824 C1825 1.389 . S
C1825 C1824 1.389 . S
C1825 C1826 1.387 . S
C1826 H1811 0.930 . S
C1826 C1821 1.390 . S
C1826 C1825 1.387 . S
H1827 C1839 0.930 . S
H1828 C1841 0.930 . S
H1829 C1842 0.930 . S
H1830 C1846 0.959 . S
H1831 C1846 0.959 . S
H1832 C1846 0.961 . S
H1833 C1847 0.960 . S
H1834 C1847 0.961 . S
H1835 C1847 0.959 . S
H1836 C1850 0.929 . S
H1837 C1851 0.931 . S
H1838 C1853 0.930 . S
C1839 H1827 0.930 . S
C1839 C1840 1.399 . S
C1839 C1844 1.399 . S
C1840 C1839 1.399 . S
C1840 C1841 1.376 . S
C1841 H1828 0.930 . S
C1841 C1840 1.376 . S
C1841 C1842 1.388 . S
C1842 H1829 0.930 . S
C1842 C1841 1.388 . S
C1842 C1843 1.390 . S
C1843 C1842 1.390 . S
C1843 C1844 1.394 . S
C1843 C1849 1.465 . S
C1844 C1839 1.399 . S
C1844 C1843 1.394 . S
C1844 C1845 1.516 . S
C1845 C1844 1.516 . S
C1845 C1846 1.502 . S
C1845 C1847 1.561 . S
C1845 C1848 1.526 . S
C1846 H1830 0.959 . S
C1846 H1831 0.959 . S
C1846 H1832 0.961 . S
C1846 C1845 1.502 . S
C1847 H1833 0.960 . S
C1847 H1834 0.961 . S
C1847 H1835 0.959 . S
C1847 C1845 1.561 . S
C1848 C1845 1.526 . S
C1848 C1849 1.396 . S
C1848 C1853 1.390 . S
C1849 C1843 1.465 . S
C1849 C1848 1.396 . S
C1849 C1850 1.399 . S
C1850 H1836 0.929 . S
C1850 C1849 1.399 . S
C1850 C1851 1.385 . S
C1851 H1837 0.931 . S
C1851 C1850 1.385 . S
C1851 C1852 1.389 . S
C1852 C1851 1.389 . S
C1852 C1853 1.387 . S
C1853 H1838 0.930 . S
C1853 C1848 1.390 . S
C1853 C1852 1.387 . S
H1854 C1866 0.930 . S
H1855 C1868 0.930 . S
H1856 C1869 0.930 . S
H1857 C1873 0.959 . S
H1858 C1873 0.959 . S
H1859 C1873 0.961 . S
H1860 C1874 0.960 . S
H1861 C1874 0.961 . S
H1862 C1874 0.959 . S
H1863 C1877 0.929 . S
H1864 C1878 0.931 . S
H1865 C1880 0.930 . S
C1866 H1854 0.930 . S
C1866 C1867 1.399 . S
C1866 C1871 1.399 . S
C1867 C1866 1.399 . S
C1867 C1868 1.376 . S
C1868 H1855 0.930 . S
C1868 C1867 1.376 . S
C1868 C1869 1.388 . S
C1869 H1856 0.930 . S
C1869 C1868 1.388 . S
C1869 C1870 1.390 . S
C1870 C1869 1.390 . S
C1870 C1871 1.394 . S
C1870 C1876 1.465 . S
C1871 C1866 1.399 . S
C1871 C1870 1.394 . S
C1871 C1872 1.516 . S
C1872 C1871 1.516 . S
C1872 C1873 1.502 . S
C1872 C1874 1.561 . S
C1872 C1875 1.526 . S
C1873 H1857 0.959 . S
C1873 H1858 0.959 . S
C1873 H1859 0.961 . S
C1873 C1872 1.502 . S
C1874 H1860 0.960 . S
C1874 H1861 0.961 . S
C1874 H1862 0.959 . S
C1874 C1872 1.561 . S
C1875 C1872 1.526 . S
C1875 C1876 1.396 . S
C1875 C1880 1.390 . S
C1876 C1870 1.465 . S
C1876 C1875 1.396 . S
C1876 C1877 1.399 . S
C1877 H1863 0.929 . S
C1877 C1876 1.399 . S
C1877 C1878 1.385 . S
C1878 H1864 0.931 . S
C1878 C1877 1.385 . S
C1878 C1879 1.389 . S
C1879 C1878 1.389 . S
C1879 C1880 1.387 . S
C1880 H1865 0.930 . S
C1880 C1875 1.390 . S
C1880 C1879 1.387 . S
H1881 C1893 0.930 . S
H1882 C1895 0.930 . S
H1883 C1896 0.930 . S
H1884 C1900 0.959 . S
H1885 C1900 0.959 . S
H1886 C1900 0.961 . S
H1887 C1901 0.960 . S
H1888 C1901 0.961 . S
H1889 C1901 0.959 . S
H1890 C1904 0.929 . S
H1891 C1905 0.931 . S
H1892 C1907 0.930 . S
C1893 H1881 0.930 . S
C1893 C1894 1.399 . S
C1893 C1898 1.399 . S
C1894 C1893 1.399 . S
C1894 C1895 1.376 . S
C1895 H1882 0.930 . S
C1895 C1894 1.376 . S
C1895 C1896 1.388 . S
C1896 H1883 0.930 . S
C1896 C1895 1.388 . S
C1896 C1897 1.390 . S
C1897 C1896 1.390 . S
C1897 C1898 1.394 . S
C1897 C1903 1.465 . S
C1898 C1893 1.399 . S
C1898 C1897 1.394 . S
C1898 C1899 1.516 . S
C1899 C1898 1.516 . S
C1899 C1900 1.502 . S
C1899 C1901 1.561 . S
C1899 C1902 1.526 . S
C1900 H1884 0.959 . S
C1900 H1885 0.959 . S
C1900 H1886 0.961 . S
C1900 C1899 1.502 . S
C1901 H1887 0.960 . S
C1901 H1888 0.961 . S
C1901 H1889 0.959 . S
C1901 C1899 1.561 . S
C1902 C1899 1.526 . S
C1902 C1903 1.396 . S
C1902 C1907 1.390 . S
C1903 C1897 1.465 . S
C1903 C1902 1.396 . S
C1903 C1904 1.399 . S
C1904 H1890 0.929 . S
C1904 C1903 1.399 . S
C1904 C1905 1.385 . S
C1905 H1891 0.931 . S
C1905 C1904 1.385 . S
C1905 C1906 1.389 . S
C1906 C1905 1.389 . S
C1906 C1907 1.387 . S
C1907 H1892 0.930 . S
C1907 C1902 1.390 . S
C1907 C1906 1.387 . S
H1908 C1920 0.930 . S
H1909 C1922 0.930 . S
H1910 C1923 0.930 . S
H1911 C1927 0.959 . S
H1912 C1927 0.959 . S
H1913 C1927 0.961 . S
H1914 C1928 0.960 . S
H1915 C1928 0.961 . S
H1916 C1928 0.959 . S
H1917 C1931 0.929 . S
H1918 C1932 0.931 . S
H1919 C1934 0.930 . S
C1920 H1908 0.930 . S
C1920 C1921 1.399 . S
C1920 C1925 1.399 . S
C1921 C1920 1.399 . S
C1921 C1922 1.376 . S
C1922 H1909 0.930 . S
C1922 C1921 1.376 . S
C1922 C1923 1.388 . S
C1923 H1910 0.930 . S
C1923 C1922 1.388 . S
C1923 C1924 1.390 . S
C1924 C1923 1.390 . S
C1924 C1925 1.394 . S
C1924 C1930 1.465 . S
C1925 C1920 1.399 . S
C1925 C1924 1.394 . S
C1925 C1926 1.516 . S
C1926 C1925 1.516 . S
C1926 C1927 1.502 . S
C1926 C1928 1.561 . S
C1926 C1929 1.526 . S
C1927 H1911 0.959 . S
C1927 H1912 0.959 . S
C1927 H1913 0.961 . S
C1927 C1926 1.502 . S
C1928 H1914 0.960 . S
C1928 H1915 0.961 . S
C1928 H1916 0.959 . S
C1928 C1926 1.561 . S
C1929 C1926 1.526 . S
C1929 C1930 1.396 . S
C1929 C1934 1.390 . S
C1930 C1924 1.465 . S
C1930 C1929 1.396 . S
C1930 C1931 1.399 . S
C1931 H1917 0.929 . S
C1931 C1930 1.399 . S
C1931 C1932 1.385 . S
C1932 H1918 0.931 . S
C1932 C1931 1.385 . S
C1932 C1933 1.389 . S
C1933 C1932 1.389 . S
C1933 C1934 1.387 . S
C1934 H1919 0.930 . S
C1934 C1929 1.390 . S
C1934 C1933 1.387 . S
H1935 C1947 0.930 . S
H1936 C1949 0.930 . S
H1937 C1950 0.930 . S
H1938 C1954 0.959 . S
H1939 C1954 0.959 . S
H1940 C1954 0.961 . S
H1941 C1955 0.960 . S
H1942 C1955 0.961 . S
H1943 C1955 0.959 . S
H1944 C1958 0.929 . S
H1945 C1959 0.931 . S
H1946 C1961 0.930 . S
C1947 H1935 0.930 . S
C1947 C1948 1.399 . S
C1947 C1952 1.399 . S
C1948 C1947 1.399 . S
C1948 C1949 1.376 . S
C1949 H1936 0.930 . S
C1949 C1948 1.376 . S
C1949 C1950 1.388 . S
C1950 H1937 0.930 . S
C1950 C1949 1.388 . S
C1950 C1951 1.390 . S
C1951 C1950 1.390 . S
C1951 C1952 1.394 . S
C1951 C1957 1.465 . S
C1952 C1947 1.399 . S
C1952 C1951 1.394 . S
C1952 C1953 1.516 . S
C1953 C1952 1.516 . S
C1953 C1954 1.502 . S
C1953 C1955 1.561 . S
C1953 C1956 1.526 . S
C1954 H1938 0.959 . S
C1954 H1939 0.959 . S
C1954 H1940 0.961 . S
C1954 C1953 1.502 . S
C1955 H1941 0.960 . S
C1955 H1942 0.961 . S
C1955 H1943 0.959 . S
C1955 C1953 1.561 . S
C1956 C1953 1.526 . S
C1956 C1957 1.396 . S
C1956 C1961 1.390 . S
C1957 C1951 1.465 . S
C1957 C1956 1.396 . S
C1957 C1958 1.399 . S
C1958 H1944 0.929 . S
C1958 C1957 1.399 . S
C1958 C1959 1.385 . S
C1959 H1945 0.931 . S
C1959 C1958 1.385 . S
C1959 C1960 1.389 . S
C1960 C1959 1.389 . S
C1960 C1961 1.387 . S
C1961 H1946 0.930 . S
C1961 C1956 1.390 . S
C1961 C1960 1.387 . S
H1962 C1974 0.930 . S
H1963 C1976 0.930 . S
H1964 C1977 0.930 . S
H1965 C1981 0.959 . S
H1966 C1981 0.959 . S
H1967 C1981 0.961 . S
H1968 C1982 0.960 . S
H1969 C1982 0.961 . S
H1970 C1982 0.959 . S
H1971 C1985 0.929 . S
H1972 C1986 0.931 . S
H1973 C1988 0.930 . S
C1974 H1962 0.930 . S
C1974 C1975 1.399 . S
C1974 C1979 1.399 . S
C1975 C1974 1.399 . S
C1975 C1976 1.376 . S
C1976 H1963 0.930 . S
C1976 C1975 1.376 . S
C1976 C1977 1.388 . S
C1977 H1964 0.930 . S
C1977 C1976 1.388 . S
C1977 C1978 1.390 . S
C1978 C1977 1.390 . S
C1978 C1979 1.394 . S
C1978 C1984 1.465 . S
C1979 C1974 1.399 . S
C1979 C1978 1.394 . S
C1979 C1980 1.516 . S
C1980 C1979 1.516 . S
C1980 C1981 1.502 . S
C1980 C1982 1.561 . S
C1980 C1983 1.526 . S
C1981 H1965 0.959 . S
C1981 H1966 0.959 . S
C1981 H1967 0.961 . S
C1981 C1980 1.502 . S
C1982 H1968 0.960 . S
C1982 H1969 0.961 . S
C1982 H1970 0.959 . S
C1982 C1980 1.561 . S
C1983 C1980 1.526 . S
C1983 C1984 1.396 . S
C1983 C1988 1.390 . S
C1984 C1978 1.465 . S
C1984 C1983 1.396 . S
C1984 C1985 1.399 . S
C1985 H1971 0.929 . S
C1985 C1984 1.399 . S
C1985 C1986 1.385 . S
C1986 H1972 0.931 . S
C1986 C1985 1.385 . S
C1986 C1987 1.389 . S
C1987 C1986 1.389 . S
C1987 C1988 1.387 . S
C1988 H1973 0.930 . S
C1988 C1983 1.390 . S
C1988 C1987 1.387 . S
H1989 C2001 0.930 . S
H1990 C2003 0.930 . S
H1991 C2004 0.930 . S
H1992 C2008 0.959 . S
H1993 C2008 0.959 . S
H1994 C2008 0.961 . S
H1995 C2009 0.960 . S
H1996 C2009 0.961 . S
H1997 C2009 0.959 . S
H1998 C2012 0.929 . S
H1999 C2013 0.931 . S
H2000 C2015 0.930 . S
C2001 H1989 0.930 . S
C2001 C2002 1.399 1_565 S
C2001 C2006 1.399 . S
C2002 C2001 1.399 1_545 S
C2002 C2003 1.376 . S
C2003 H1990 0.930 . S
C2003 C2002 1.376 . S
C2003 C2004 1.388 . S
C2004 H1991 0.930 . S
C2004 C2003 1.388 . S
C2004 C2005 1.390 . S
C2005 C2004 1.390 . S
C2005 C2006 1.394 1_545 S
C2005 C2011 1.465 . S
C2006 C2001 1.399 . S
C2006 C2005 1.394 1_565 S
C2006 C2007 1.516 . S
C2007 C2006 1.516 . S
C2007 C2008 1.502 . S
C2007 C2009 1.561 . S
C2007 C2010 1.526 . S
C2008 H1992 0.959 . S
C2008 H1993 0.959 . S
C2008 H1994 0.961 . S
C2008 C2007 1.502 . S
C2009 H1995 0.960 . S
C2009 H1996 0.961 . S
C2009 H1997 0.959 . S
C2009 C2007 1.561 . S
C2010 C2007 1.526 . S
C2010 C2011 1.396 1_565 S
C2010 C2015 1.390 . S
C2011 C2005 1.465 . S
C2011 C2010 1.396 1_545 S
C2011 C2012 1.399 . S
C2012 H1998 0.929 . S
C2012 C2011 1.399 . S
C2012 C2013 1.385 . S
C2013 H1999 0.931 . S
C2013 C2012 1.385 . S
C2013 C2014 1.389 1_545 S
C2014 C2013 1.389 1_565 S
C2014 C2015 1.387 . S
C2015 H2000 0.930 . S
C2015 C2010 1.390 . S
C2015 C2014 1.387 . S
H2016 C2028 0.941 1_655 S
H2017 C2030 0.930 . S
H2018 C2031 0.930 . S
H2019 C2035 0.959 . S
H2020 C2035 0.959 . S
H2021 C2035 0.961 . S
H2022 C2036 0.960 . S
H2023 C2036 0.961 . S
H2024 C2036 0.959 . S
H2025 C2039 0.966 1_455 S
H2026 C2040 0.922 . S
H2027 C2042 0.930 . S
C2028 H2016 0.941 1_455 S
C2028 C2029 1.396 . S
C2028 C2033 1.397 1_455 S
C2029 C2028 1.396 . S
C2029 C2030 1.376 . S
C2030 H2017 0.930 . S
C2030 C2029 1.376 . S
C2030 C2031 1.388 . S
C2031 H2018 0.930 . S
C2031 C2030 1.388 . S
C2031 C2032 1.394 1_455 S
C2032 C2031 1.394 1_655 S
C2032 C2033 1.387 . S
C2032 C2038 1.466 . S
C2033 C2028 1.397 1_655 S
C2033 C2032 1.387 . S
C2033 C2034 1.516 . S
C2034 C2033 1.516 . S
C2034 C2035 1.502 1_655 S
C2034 C2036 1.561 . S
C2034 C2037 1.526 . S
C2035 H2019 0.959 . S
C2035 H2020 0.959 . S
C2035 H2021 0.961 . S
C2035 C2034 1.502 1_455 S
C2036 H2022 0.960 . S
C2036 H2023 0.961 . S
C2036 H2024 0.959 . S
C2036 C2034 1.561 . S
C2037 C2034 1.526 . S
C2037 C2038 1.396 . S
C2037 C2042 1.390 . S
C2038 C2032 1.466 . S
C2038 C2037 1.396 . S
C2038 C2039 1.391 . S
C2039 H2025 0.966 1_655 S
C2039 C2038 1.391 . S
C2039 C2040 1.384 . S
C2040 H2026 0.922 . S
C2040 C2039 1.384 . S
C2040 C2041 1.389 . S
C2041 C2040 1.389 . S
C2041 C2042 1.387 . S
C2042 H2027 0.930 . S
C2042 C2037 1.390 . S
C2042 C2041 1.387 . S
H2043 C2055 0.930 . S
H2044 C2057 0.930 . S
H2045 C2058 0.930 . S
H2046 C2062 0.959 . S
H2047 C2062 0.959 . S
H2048 C2062 0.961 . S
H2049 C2063 0.960 . S
H2050 C2063 0.961 . S
H2051 C2063 0.959 . S
H2052 C2066 0.929 . S
H2053 C2067 0.931 . S
H2054 C2069 0.930 . S
C2055 H2043 0.930 . S
C2055 C2056 1.399 . S
C2055 C2060 1.399 . S
C2056 C2055 1.399 . S
C2056 C2057 1.376 . S
C2057 H2044 0.930 . S
C2057 C2056 1.376 . S
C2057 C2058 1.388 . S
C2058 H2045 0.930 . S
C2058 C2057 1.388 . S
C2058 C2059 1.390 . S
C2059 C2058 1.390 . S
C2059 C2060 1.394 . S
C2059 C2065 1.465 . S
C2060 C2055 1.399 . S
C2060 C2059 1.394 . S
C2060 C2061 1.516 . S
C2061 C2060 1.516 . S
C2061 C2062 1.502 . S
C2061 C2063 1.561 . S
C2061 C2064 1.526 . S
C2062 H2046 0.959 . S
C2062 H2047 0.959 . S
C2062 H2048 0.961 . S
C2062 C2061 1.502 . S
C2063 H2049 0.960 . S
C2063 H2050 0.961 . S
C2063 H2051 0.959 . S
C2063 C2061 1.561 . S
C2064 C2061 1.526 . S
C2064 C2065 1.396 . S
C2064 C2069 1.390 . S
C2065 C2059 1.465 . S
C2065 C2064 1.396 . S
C2065 C2066 1.399 . S
C2066 H2052 0.929 . S
C2066 C2065 1.399 . S
C2066 C2067 1.385 . S
C2067 H2053 0.931 . S
C2067 C2066 1.385 . S
C2067 C2068 1.389 . S
C2068 C2067 1.389 . S
C2068 C2069 1.387 . S
C2069 H2054 0.930 . S
C2069 C2064 1.390 . S
C2069 C2068 1.387 . S
H2070 C2082 0.930 . S
H2071 C2084 0.930 . S
H2072 C2085 0.930 . S
H2073 C2089 0.959 . S
H2074 C2089 0.959 . S
H2075 C2089 0.961 . S
H2076 C2090 0.960 . S
H2077 C2090 0.961 . S
H2078 C2090 0.959 . S
H2079 C2093 0.929 . S
H2080 C2094 0.931 . S
H2081 C2096 0.930 . S
C2082 H2070 0.930 . S
C2082 C2083 1.399 1_565 S
C2082 C2087 1.399 . S
C2083 C2082 1.399 1_545 S
C2083 C2084 1.376 . S
C2084 H2071 0.930 . S
C2084 C2083 1.376 . S
C2084 C2085 1.388 . S
C2085 H2072 0.930 . S
C2085 C2084 1.388 . S
C2085 C2086 1.390 . S
C2086 C2085 1.390 . S
C2086 C2087 1.394 1_545 S
C2086 C2092 1.465 . S
C2087 C2082 1.399 . S
C2087 C2086 1.394 1_565 S
C2087 C2088 1.516 . S
C2088 C2087 1.516 . S
C2088 C2089 1.502 . S
C2088 C2090 1.561 . S
C2088 C2091 1.526 . S
C2089 H2073 0.959 . S
C2089 H2074 0.959 . S
C2089 H2075 0.961 . S
C2089 C2088 1.502 . S
C2090 H2076 0.960 . S
C2090 H2077 0.961 . S
C2090 H2078 0.959 . S
C2090 C2088 1.561 . S
C2091 C2088 1.526 . S
C2091 C2092 1.396 1_565 S
C2091 C2096 1.390 . S
C2092 C2086 1.465 . S
C2092 C2091 1.396 1_545 S
C2092 C2093 1.399 . S
C2093 H2079 0.929 . S
C2093 C2092 1.399 . S
C2093 C2094 1.385 . S
C2094 H2080 0.931 . S
C2094 C2093 1.385 . S
C2094 C2095 1.389 1_545 S
C2095 C2094 1.389 1_565 S
C2095 C2096 1.387 . S
C2096 H2081 0.930 . S
C2096 C2091 1.390 . S
C2096 C2095 1.387 . S
H2097 C2109 0.930 . S
H2098 C2111 0.930 . S
H2099 C2112 0.930 . S
H2100 C2116 0.959 . S
H2101 C2116 0.959 . S
H2102 C2116 0.961 . S
H2103 C2117 0.960 . S
H2104 C2117 0.961 . S
H2105 C2117 0.959 . S
H2106 C2120 0.929 . S
H2107 C2121 0.931 . S
H2108 C2123 0.930 . S
C2109 H2097 0.930 . S
C2109 C2110 1.399 . S
C2109 C2114 1.399 . S
C2110 C2109 1.399 . S
C2110 C2111 1.376 1_655 S
C2111 H2098 0.930 . S
C2111 C2110 1.376 1_455 S
C2111 C2112 1.388 . S
C2112 H2099 0.930 . S
C2112 C2111 1.388 . S
C2112 C2113 1.390 . S
C2113 C2112 1.390 . S
C2113 C2114 1.394 1_455 S
C2113 C2119 1.465 . S
C2114 C2109 1.399 . S
C2114 C2113 1.394 1_655 S
C2114 C2115 1.516 . S
C2115 C2114 1.516 . S
C2115 C2116 1.502 . S
C2115 C2117 1.561 . S
C2115 C2118 1.526 . S
C2116 H2100 0.959 . S
C2116 H2101 0.959 . S
C2116 H2102 0.961 . S
C2116 C2115 1.502 . S
C2117 H2103 0.960 . S
C2117 H2104 0.961 . S
C2117 H2105 0.959 . S
C2117 C2115 1.561 . S
C2118 C2115 1.526 . S
C2118 C2119 1.396 1_655 S
C2118 C2123 1.390 . S
C2119 C2113 1.465 . S
C2119 C2118 1.396 1_455 S
C2119 C2120 1.399 . S
C2120 H2106 0.929 . S
C2120 C2119 1.399 . S
C2120 C2121 1.385 . S
C2121 H2107 0.931 . S
C2121 C2120 1.385 . S
C2121 C2122 1.389 . S
C2122 C2121 1.389 . S
C2122 C2123 1.387 1_455 S
C2123 H2108 0.930 . S
C2123 C2118 1.390 . S
C2123 C2122 1.387 1_655 S
H2124 C2136 0.930 . S
H2125 C2138 0.930 . S
H2126 C2139 0.930 . S
H2127 C2143 0.959 . S
H2128 C2143 0.959 . S
H2129 C2143 0.961 . S
H2130 C2144 0.960 . S
H2131 C2144 0.961 . S
H2132 C2144 0.959 . S
H2133 C2147 0.929 . S
H2134 C2148 0.931 . S
H2135 C2150 0.930 . S
C2136 H2124 0.930 . S
C2136 C2137 1.399 . S
C2136 C2141 1.399 . S
C2137 C2136 1.399 . S
C2137 C2138 1.376 . S
C2138 H2125 0.930 . S
C2138 C2137 1.376 . S
C2138 C2139 1.388 . S
C2139 H2126 0.930 . S
C2139 C2138 1.388 . S
C2139 C2140 1.390 . S
C2140 C2139 1.390 . S
C2140 C2141 1.394 . S
C2140 C2146 1.465 . S
C2141 C2136 1.399 . S
C2141 C2140 1.394 . S
C2141 C2142 1.516 . S
C2142 C2141 1.516 . S
C2142 C2143 1.502 . S
C2142 C2144 1.561 . S
C2142 C2145 1.526 . S
C2143 H2127 0.959 . S
C2143 H2128 0.959 . S
C2143 H2129 0.961 . S
C2143 C2142 1.502 . S
C2144 H2130 0.960 . S
C2144 H2131 0.961 . S
C2144 H2132 0.959 . S
C2144 C2142 1.561 . S
C2145 C2142 1.526 . S
C2145 C2146 1.396 . S
C2145 C2150 1.390 . S
C2146 C2140 1.465 . S
C2146 C2145 1.396 . S
C2146 C2147 1.399 . S
C2147 H2133 0.929 . S
C2147 C2146 1.399 . S
C2147 C2148 1.385 . S
C2148 H2134 0.931 . S
C2148 C2147 1.385 . S
C2148 C2149 1.389 . S
C2149 C2148 1.389 . S
C2149 C2150 1.387 . S
C2150 H2135 0.930 . S
C2150 C2145 1.390 . S
C2150 C2149 1.387 . S
H2151 C2163 0.930 . S
H2152 C2165 0.930 . S
H2153 C2166 0.930 . S
H2154 C2170 0.959 . S
H2155 C2170 0.959 . S
H2156 C2170 0.961 . S
H2157 C2171 0.960 . S
H2158 C2171 0.961 . S
H2159 C2171 0.959 . S
H2160 C2174 0.929 . S
H2161 C2175 0.931 . S
H2162 C2177 0.930 . S
C2163 H2151 0.930 . S
C2163 C2164 1.399 . S
C2163 C2168 1.399 . S
C2164 C2163 1.399 . S
C2164 C2165 1.376 . S
C2165 H2152 0.930 . S
C2165 C2164 1.376 . S
C2165 C2166 1.388 . S
C2166 H2153 0.930 . S
C2166 C2165 1.388 . S
C2166 C2167 1.390 . S
C2167 C2166 1.390 . S
C2167 C2168 1.394 . S
C2167 C2173 1.465 . S
C2168 C2163 1.399 . S
C2168 C2167 1.394 . S
C2168 C2169 1.516 . S
C2169 C2168 1.516 . S
C2169 C2170 1.502 . S
C2169 C2171 1.561 . S
C2169 C2172 1.526 . S
C2170 H2154 0.959 . S
C2170 H2155 0.959 . S
C2170 H2156 0.961 . S
C2170 C2169 1.502 . S
C2171 H2157 0.960 . S
C2171 H2158 0.961 . S
C2171 H2159 0.959 . S
C2171 C2169 1.561 . S
C2172 C2169 1.526 . S
C2172 C2173 1.396 . S
C2172 C2177 1.390 . S
C2173 C2167 1.465 . S
C2173 C2172 1.396 . S
C2173 C2174 1.399 . S
C2174 H2160 0.929 . S
C2174 C2173 1.399 . S
C2174 C2175 1.385 . S
C2175 H2161 0.931 . S
C2175 C2174 1.385 . S
C2175 C2176 1.389 . S
C2176 C2175 1.389 . S
C2176 C2177 1.387 . S
C2177 H2162 0.930 . S
C2177 C2172 1.390 . S
C2177 C2176 1.387 . S
H2178 C2190 0.930 . S
H2179 C2192 0.930 . S
H2180 C2193 0.930 . S
H2181 C2197 0.959 . S
H2182 C2197 0.959 . S
H2183 C2197 0.961 . S
H2184 C2198 0.960 . S
H2185 C2198 0.961 . S
H2186 C2198 0.959 . S
H2187 C2201 0.929 . S
H2188 C2202 0.931 . S
H2189 C2204 0.930 . S
C2190 H2178 0.930 . S
C2190 C2191 1.399 . S
C2190 C2195 1.399 . S
C2191 C2190 1.399 . S
C2191 C2192 1.376 . S
C2192 H2179 0.930 . S
C2192 C2191 1.376 . S
C2192 C2193 1.388 . S
C2193 H2180 0.930 . S
C2193 C2192 1.388 . S
C2193 C2194 1.390 . S
C2194 C2193 1.390 . S
C2194 C2195 1.394 . S
C2194 C2200 1.465 . S
C2195 C2190 1.399 . S
C2195 C2194 1.394 . S
C2195 C2196 1.516 . S
C2196 C2195 1.516 . S
C2196 C2197 1.502 . S
C2196 C2198 1.561 . S
C2196 C2199 1.526 . S
C2197 H2181 0.959 . S
C2197 H2182 0.959 . S
C2197 H2183 0.961 . S
C2197 C2196 1.502 . S
C2198 H2184 0.960 . S
C2198 H2185 0.961 . S
C2198 H2186 0.959 . S
C2198 C2196 1.561 . S
C2199 C2196 1.526 . S
C2199 C2200 1.396 . S
C2199 C2204 1.390 . S
C2200 C2194 1.465 . S
C2200 C2199 1.396 . S
C2200 C2201 1.399 . S
C2201 H2187 0.929 . S
C2201 C2200 1.399 . S
C2201 C2202 1.385 . S
C2202 H2188 0.931 . S
C2202 C2201 1.385 . S
C2202 C2203 1.389 . S
C2203 C2202 1.389 . S
C2203 C2204 1.387 . S
C2204 H2189 0.930 . S
C2204 C2199 1.390 . S
C2204 C2203 1.387 . S
H2205 C2217 0.930 . S
H2206 C2219 0.930 . S
H2207 C2220 0.930 . S
H2208 C2224 0.959 . S
H2209 C2224 0.959 . S
H2210 C2224 0.961 . S
H2211 C2225 0.960 . S
H2212 C2225 0.961 . S
H2213 C2225 0.959 . S
H2214 C2228 0.929 . S
H2215 C2229 0.931 1_556 S
H2216 C2231 0.930 . S
C2217 H2205 0.930 . S
C2217 C2218 1.399 . S
C2217 C2222 1.399 . S
C2218 C2217 1.399 . S
C2218 C2219 1.376 . S
C2219 H2206 0.930 . S
C2219 C2218 1.376 . S
C2219 C2220 1.388 . S
C2220 H2207 0.930 . S
C2220 C2219 1.388 . S
C2220 C2221 1.390 . S
C2221 C2220 1.390 . S
C2221 C2222 1.394 . S
C2221 C2227 1.465 . S
C2222 C2217 1.399 . S
C2222 C2221 1.394 . S
C2222 C2223 1.516 . S
C2223 C2222 1.516 . S
C2223 C2224 1.502 . S
C2223 C2225 1.561 . S
C2223 C2226 1.526 . S
C2224 H2208 0.959 . S
C2224 H2209 0.959 . S
C2224 H2210 0.961 . S
C2224 C2223 1.502 . S
C2225 H2211 0.960 . S
C2225 H2212 0.961 . S
C2225 H2213 0.959 . S
C2225 C2223 1.561 . S
C2226 C2223 1.526 . S
C2226 C2227 1.396 . S
C2226 C2231 1.390 . S
C2227 C2221 1.465 . S
C2227 C2226 1.396 . S
C2227 C2228 1.399 . S
C2228 H2214 0.929 . S
C2228 C2227 1.399 . S
C2228 C2229 1.385 . S
C2229 H2215 0.931 1_554 S
C2229 C2228 1.385 . S
C2229 C2230 1.389 1_554 S
C2230 C2229 1.389 1_556 S
C2230 C2231 1.387 1_556 S
C2231 H2216 0.930 . S
C2231 C2226 1.390 . S
C2231 C2230 1.387 1_554 S
H2232 C2244 0.930 . S
H2233 C2246 0.930 . S
H2234 C2247 0.930 . S
H2235 C2251 0.959 . S
H2236 C2251 0.959 . S
H2237 C2251 0.961 . S
H2238 C2252 0.960 . S
H2239 C2252 0.961 . S
H2240 C2252 0.959 . S
H2241 C2255 0.929 . S
H2242 C2256 0.931 1_556 S
H2243 C2258 0.930 . S
C2244 H2232 0.930 . S
C2244 C2245 1.399 . S
C2244 C2249 1.399 . S
C2245 C2244 1.399 . S
C2245 C2246 1.376 . S
C2246 H2233 0.930 . S
C2246 C2245 1.376 . S
C2246 C2247 1.388 . S
C2247 H2234 0.930 . S
C2247 C2246 1.388 . S
C2247 C2248 1.390 . S
C2248 C2247 1.390 . S
C2248 C2249 1.394 . S
C2248 C2254 1.465 . S
C2249 C2244 1.399 . S
C2249 C2248 1.394 . S
C2249 C2250 1.516 . S
C2250 C2249 1.516 . S
C2250 C2251 1.502 . S
C2250 C2252 1.561 . S
C2250 C2253 1.526 . S
C2251 H2235 0.959 . S
C2251 H2236 0.959 . S
C2251 H2237 0.961 . S
C2251 C2250 1.502 . S
C2252 H2238 0.960 . S
C2252 H2239 0.961 . S
C2252 H2240 0.959 . S
C2252 C2250 1.561 . S
C2253 C2250 1.526 . S
C2253 C2254 1.396 . S
C2253 C2258 1.390 . S
C2254 C2248 1.465 . S
C2254 C2253 1.396 . S
C2254 C2255 1.399 . S
C2255 H2241 0.929 . S
C2255 C2254 1.399 . S
C2255 C2256 1.385 . S
C2256 H2242 0.931 1_554 S
C2256 C2255 1.385 . S
C2256 C2257 1.389 1_554 S
C2257 C2256 1.389 1_556 S
C2257 C2258 1.387 1_556 S
C2258 H2243 0.930 . S
C2258 C2253 1.390 . S
C2258 C2257 1.387 1_554 S
H2259 C2271 0.930 . S
H2260 C2273 0.930 . S
H2261 C2274 0.930 . S
H2262 C2278 0.959 . S
H2263 C2278 0.959 . S
H2264 C2278 0.961 . S
H2265 C2279 0.960 . S
H2266 C2279 0.961 . S
H2267 C2279 0.959 . S
H2268 C2282 0.929 . S
H2269 C2283 0.924 1_556 S
H2270 C2285 0.930 . S
C2271 H2259 0.930 . S
C2271 C2272 1.399 . S
C2271 C2276 1.399 . S
C2272 C2271 1.399 . S
C2272 C2273 1.376 . S
C2273 H2260 0.930 . S
C2273 C2272 1.376 . S
C2273 C2274 1.388 . S
C2274 H2261 0.930 . S
C2274 C2273 1.388 . S
C2274 C2275 1.390 . S
C2275 C2274 1.390 . S
C2275 C2276 1.394 . S
C2275 C2281 1.465 . S
C2276 C2271 1.399 . S
C2276 C2275 1.394 . S
C2276 C2277 1.516 . S
C2277 C2276 1.516 . S
C2277 C2278 1.502 . S
C2277 C2279 1.561 . S
C2277 C2280 1.526 . S
C2278 H2262 0.959 . S
C2278 H2263 0.959 . S
C2278 H2264 0.961 . S
C2278 C2277 1.502 . S
C2279 H2265 0.960 . S
C2279 H2266 0.961 . S
C2279 H2267 0.959 . S
C2279 C2277 1.561 . S
C2280 C2277 1.526 . S
C2280 C2281 1.396 . S
C2280 C2285 1.390 . S
C2281 C2275 1.465 . S
C2281 C2280 1.396 . S
C2281 C2282 1.399 . S
C2282 H2268 0.929 . S
C2282 C2281 1.399 . S
C2282 C2283 1.395 . S
C2283 H2269 0.924 1_554 S
C2283 C2282 1.395 . S
C2283 C2284 1.386 1_554 S
C2284 C2283 1.386 1_556 S
C2284 C2285 1.387 1_556 S
C2285 H2270 0.930 . S
C2285 C2280 1.390 . S
C2285 C2284 1.387 1_554 S
H2286 C2298 0.930 . S
H2287 C2300 0.930 . S
H2288 C2301 0.930 . S
H2289 C2305 0.959 . S
H2290 C2305 0.959 . S
H2291 C2305 0.961 . S
H2292 C2306 0.960 . S
H2293 C2306 0.961 . S
H2294 C2306 0.959 . S
H2295 C2309 0.929 . S
H2296 C2310 0.931 . S
H2297 C2312 0.930 . S
C2298 H2286 0.930 . S
C2298 C2299 1.399 1_556 S
C2298 C2303 1.399 . S
C2299 C2298 1.399 1_554 S
C2299 C2300 1.376 . S
C2300 H2287 0.930 . S
C2300 C2299 1.376 . S
C2300 C2301 1.388 1_554 S
C2301 H2288 0.930 . S
C2301 C2300 1.388 1_556 S
C2301 C2302 1.390 . S
C2302 C2301 1.390 . S
C2302 C2303 1.394 . S
C2302 C2308 1.465 . S
C2303 C2298 1.399 . S
C2303 C2302 1.394 . S
C2303 C2304 1.516 . S
C2304 C2303 1.516 . S
C2304 C2305 1.502 . S
C2304 C2306 1.561 . S
C2304 C2307 1.526 . S
C2305 H2289 0.959 . S
C2305 H2290 0.959 . S
C2305 H2291 0.961 . S
C2305 C2304 1.502 . S
C2306 H2292 0.960 . S
C2306 H2293 0.961 . S
C2306 H2294 0.959 . S
C2306 C2304 1.561 . S
C2307 C2304 1.526 . S
C2307 C2308 1.396 . S
C2307 C2312 1.390 . S
C2308 C2302 1.465 . S
C2308 C2307 1.396 . S
C2308 C2309 1.399 . S
C2309 H2295 0.929 . S
C2309 C2308 1.399 . S
C2309 C2310 1.385 . S
C2310 H2296 0.931 . S
C2310 C2309 1.385 . S
C2310 C2311 1.389 . S
C2311 C2310 1.389 . S
C2311 C2312 1.387 . S
C2312 H2297 0.930 . S
C2312 C2307 1.390 . S
C2312 C2311 1.387 . S
H2313 C2325 0.930 . S
H2314 C2327 0.930 1_554 S
H2315 C2328 0.930 . S
H2316 C2332 0.959 . S
H2317 C2332 0.959 . S
H2318 C2332 0.961 . S
H2319 C2333 0.960 . S
H2320 C2333 0.961 . S
H2321 C2333 0.959 . S
H2322 C2336 0.929 . S
H2323 C2337 0.931 . S
H2324 C2339 0.930 . S
C2325 H2313 0.930 . S
C2325 C2326 1.399 1_556 S
C2325 C2330 1.399 . S
C2326 C2325 1.399 1_554 S
C2326 C2327 1.376 1_554 S
C2327 H2314 0.930 1_556 S
C2327 C2326 1.376 1_556 S
C2327 C2328 1.388 . S
C2328 H2315 0.930 . S
C2328 C2327 1.388 . S
C2328 C2329 1.390 . S
C2329 C2328 1.390 . S
C2329 C2330 1.394 . S
C2329 C2335 1.465 . S
C2330 C2325 1.399 . S
C2330 C2329 1.394 . S
C2330 C2331 1.516 . S
C2331 C2330 1.516 . S
C2331 C2332 1.502 . S
C2331 C2333 1.561 . S
C2331 C2334 1.526 . S
C2332 H2316 0.959 . S
C2332 H2317 0.959 . S
C2332 H2318 0.961 . S
C2332 C2331 1.502 . S
C2333 H2319 0.960 . S
C2333 H2320 0.961 . S
C2333 H2321 0.959 . S
C2333 C2331 1.561 . S
C2334 C2331 1.526 . S
C2334 C2335 1.396 . S
C2334 C2339 1.390 . S
C2335 C2329 1.465 . S
C2335 C2334 1.396 . S
C2335 C2336 1.399 . S
C2336 H2322 0.929 . S
C2336 C2335 1.399 . S
C2336 C2337 1.385 . S
C2337 H2323 0.931 . S
C2337 C2336 1.385 . S
C2337 C2338 1.389 . S
C2338 C2337 1.389 . S
C2338 C2339 1.387 . S
C2339 H2324 0.930 . S
C2339 C2334 1.390 . S
C2339 C2338 1.387 . S
H2340 C2352 0.930 . S
H2341 C2354 0.918 1_554 S
H2342 C2355 0.930 . S
H2343 C2359 0.959 . S
H2344 C2359 0.959 . S
H2345 C2359 0.961 . S
H2346 C2360 0.960 . S
H2347 C2360 0.961 . S
H2348 C2360 0.959 . S
H2349 C2363 0.929 . S
H2350 C2364 0.931 . S
H2351 C2366 0.930 . S
C2352 H2340 0.930 . S
C2352 C2353 1.399 1_556 S
C2352 C2357 1.399 . S
C2353 C2352 1.399 1_554 S
C2353 C2354 1.370 1_554 S
C2354 H2341 0.918 1_556 S
C2354 C2353 1.370 1_556 S
C2354 C2355 1.407 . S
C2355 H2342 0.930 . S
C2355 C2354 1.407 . S
C2355 C2356 1.390 . S
C2356 C2355 1.390 . S
C2356 C2357 1.394 . S
C2356 C2362 1.465 . S
C2357 C2352 1.399 . S
C2357 C2356 1.394 . S
C2357 C2358 1.516 . S
C2358 C2357 1.516 . S
C2358 C2359 1.502 . S
C2358 C2360 1.561 . S
C2358 C2361 1.526 . S
C2359 H2343 0.959 . S
C2359 H2344 0.959 . S
C2359 H2345 0.961 . S
C2359 C2358 1.502 . S
C2360 H2346 0.960 . S
C2360 H2347 0.961 . S
C2360 H2348 0.959 . S
C2360 C2358 1.561 . S
C2361 C2358 1.526 . S
C2361 C2362 1.396 . S
C2361 C2366 1.390 . S
C2362 C2356 1.465 . S
C2362 C2361 1.396 . S
C2362 C2363 1.399 . S
C2363 H2349 0.929 . S
C2363 C2362 1.399 . S
C2363 C2364 1.385 . S
C2364 H2350 0.931 . S
C2364 C2363 1.385 . S
C2364 C2365 1.389 . S
C2365 C2364 1.389 . S
C2365 C2366 1.387 . S
C2366 H2351 0.930 . S
C2366 C2361 1.390 . S
C2366 C2365 1.387 . S
H2367 C2379 0.930 . S
H2368 C2381 0.930 . S
H2369 C2382 0.930 . S
H2370 C2386 0.959 . S
H2371 C2386 0.959 . S
H2372 C2386 0.961 . S
H2373 C2387 0.960 . S
H2374 C2387 0.961 . S
H2375 C2387 0.959 . S
H2376 C2390 0.929 . S
H2377 C2391 0.931 . S
H2378 C2393 0.930 . S
C2379 H2367 0.930 . S
C2379 C2380 1.399 . S
C2379 C2384 1.399 . S
C2380 C2379 1.399 . S
C2380 C2381 1.376 . S
C2381 H2368 0.930 . S
C2381 C2380 1.376 . S
C2381 C2382 1.388 . S
C2382 H2369 0.930 . S
C2382 C2381 1.388 . S
C2382 C2383 1.390 . S
C2383 C2382 1.390 . S
C2383 C2384 1.394 . S
C2383 C2389 1.465 . S
C2384 C2379 1.399 . S
C2384 C2383 1.394 . S
C2384 C2385 1.516 . S
C2385 C2384 1.516 . S
C2385 C2386 1.502 . S
C2385 C2387 1.561 . S
C2385 C2388 1.526 . S
C2386 H2370 0.959 . S
C2386 H2371 0.959 . S
C2386 H2372 0.961 . S
C2386 C2385 1.502 . S
C2387 H2373 0.960 . S
C2387 H2374 0.961 . S
C2387 H2375 0.959 . S
C2387 C2385 1.561 . S
C2388 C2385 1.526 . S
C2388 C2389 1.396 . S
C2388 C2393 1.390 . S
C2389 C2383 1.465 . S
C2389 C2388 1.396 . S
C2389 C2390 1.399 . S
C2390 H2376 0.929 . S
C2390 C2389 1.399 . S
C2390 C2391 1.385 . S
C2391 H2377 0.931 . S
C2391 C2390 1.385 . S
C2391 C2392 1.389 . S
C2392 C2391 1.389 . S
C2392 C2393 1.387 . S
C2393 H2378 0.930 . S
C2393 C2388 1.390 . S
C2393 C2392 1.387 . S
H2394 C2406 0.930 . S
H2395 C2408 0.930 . S
H2396 C2409 0.930 . S
H2397 C2413 0.959 . S
H2398 C2413 0.959 . S
H2399 C2413 0.961 . S
H2400 C2414 0.960 . S
H2401 C2414 0.961 . S
H2402 C2414 0.959 . S
H2403 C2417 0.929 . S
H2404 C2418 0.931 . S
H2405 C2420 0.930 . S
C2406 H2394 0.930 . S
C2406 C2407 1.399 . S
C2406 C2411 1.399 . S
C2407 C2406 1.399 . S
C2407 C2408 1.376 . S
C2408 H2395 0.930 . S
C2408 C2407 1.376 . S
C2408 C2409 1.388 . S
C2409 H2396 0.930 . S
C2409 C2408 1.388 . S
C2409 C2410 1.390 . S
C2410 C2409 1.390 . S
C2410 C2411 1.394 . S
C2410 C2416 1.465 . S
C2411 C2406 1.399 . S
C2411 C2410 1.394 . S
C2411 C2412 1.516 . S
C2412 C2411 1.516 . S
C2412 C2413 1.502 . S
C2412 C2414 1.561 . S
C2412 C2415 1.526 . S
C2413 H2397 0.959 . S
C2413 H2398 0.959 . S
C2413 H2399 0.961 . S
C2413 C2412 1.502 . S
C2414 H2400 0.960 . S
C2414 H2401 0.961 . S
C2414 H2402 0.959 . S
C2414 C2412 1.561 . S
C2415 C2412 1.526 . S
C2415 C2416 1.396 . S
C2415 C2420 1.390 . S
C2416 C2410 1.465 . S
C2416 C2415 1.396 . S
C2416 C2417 1.399 . S
C2417 H2403 0.929 . S
C2417 C2416 1.399 . S
C2417 C2418 1.385 . S
C2418 H2404 0.931 . S
C2418 C2417 1.385 . S
C2418 C2419 1.389 . S
C2419 C2418 1.389 . S
C2419 C2420 1.387 . S
C2420 H2405 0.930 . S
C2420 C2415 1.390 . S
C2420 C2419 1.387 . S
H2421 C2433 0.930 . S
H2422 C2435 0.930 . S
H2423 C2436 0.930 . S
H2424 C2440 0.959 . S
H2425 C2440 0.959 . S
H2426 C2440 0.961 . S
H2427 C2441 0.960 . S
H2428 C2441 0.961 . S
H2429 C2441 0.959 . S
H2430 C2444 0.929 . S
H2431 C2445 0.931 . S
H2432 C2447 0.930 . S
C2433 H2421 0.930 . S
C2433 C2434 1.399 . S
C2433 C2438 1.399 . S
C2434 C2433 1.399 . S
C2434 C2435 1.376 . S
C2435 H2422 0.930 . S
C2435 C2434 1.376 . S
C2435 C2436 1.388 . S
C2436 H2423 0.930 . S
C2436 C2435 1.388 . S
C2436 C2437 1.390 . S
C2437 C2436 1.390 . S
C2437 C2438 1.394 . S
C2437 C2443 1.465 . S
C2438 C2433 1.399 . S
C2438 C2437 1.394 . S
C2438 C2439 1.516 . S
C2439 C2438 1.516 . S
C2439 C2440 1.502 . S
C2439 C2441 1.561 . S
C2439 C2442 1.526 . S
C2440 H2424 0.959 . S
C2440 H2425 0.959 . S
C2440 H2426 0.961 . S
C2440 C2439 1.502 . S
C2441 H2427 0.960 . S
C2441 H2428 0.961 . S
C2441 H2429 0.959 . S
C2441 C2439 1.561 . S
C2442 C2439 1.526 . S
C2442 C2443 1.396 . S
C2442 C2447 1.390 . S
C2443 C2437 1.465 . S
C2443 C2442 1.396 . S
C2443 C2444 1.399 . S
C2444 H2430 0.929 . S
C2444 C2443 1.399 . S
C2444 C2445 1.385 . S
C2445 H2431 0.931 . S
C2445 C2444 1.385 . S
C2445 C2446 1.389 . S
C2446 C2445 1.389 . S
C2446 C2447 1.387 . S
C2447 H2432 0.930 . S
C2447 C2442 1.390 . S
C2447 C2446 1.387 . S
C517 C230 1.173 . S
C529 C6 1.127 . S
C544 C244 1.092 . S
C556 C20 1.105 . S
C571 C34 1.138 . S
C583 C216 1.071 . S
C598 C370 1.161 . S
C610 C48 1.067 . S
C625 C342 1.131 . S
C637 C62 1.074 . S
C652 C76 1.141 . S
C664 C356 1.164 . S
C679 C482 1.090 . S
C691 C90 1.141 . S
C706 C496 1.067 . S
C718 C104 1.181 . S
C733 C468 1.175 . S
C745 C118 1.090 . S
C760 C286 1.073 . S
C772 C132 1.162 . S
C787 C146 1.182 . S
C799 C258 1.068 . S
C814 C272 1.095 . S
C826 C160 1.137 . S
C841 C398 1.106 . S
C853 C174 1.091 . S
C868 C188 1.068 . S
C880 C412 1.169 . S
C895 C384 1.109 . S
C907 C202 1.180 . S
C922 C454 1.183 . S
C934 C300 1.072 . S
C949 C426 1.090 . S
C961 C314 1.173 . S
C976 C328 1.076 . S
C988 C440 1.181 . S
C1003 C105 1.644 . S
C1015 C8 1.631 . S
C1030 C119 1.643 . S
C1042 C22 1.640 . S
C1057 C91 1.634 . S
C1069 C36 1.649 . S
C1084 C50 1.684 . S
C1096 C161 1.568 . S
C1111 C133 1.605 . S
C1123 C64 1.653 . S
C1138 C78 1.659 . S
C1150 C147 1.594 . S
C1165 C21 1.631 . S
C1177 C92 1.666 . S
C1192 C106 1.631 . S
C1204 C35 1.625 . S
C1219 C7 1.638 . S
C1231 C120 1.632 . S
C1246 C77 1.578 . S
C1258 C134 1.684 . S
C1273 C49 1.645 . S
C1285 C148 1.653 . S
C1300 C162 1.631 . S
C1312 C63 1.624 . S
C1327 C176 1.670 . S
C1339 C273 1.601 . S
C1354 C287 1.624 . S
C1366 C190 1.641 . S
C1381 C259 1.600 . S
C1393 C204 1.656 . S
C1408 C218 1.680 . S
C1420 C329 1.583 . S
C1435 C301 1.616 . S
C1447 C232 1.646 . S
C1462 C246 1.674 . S
C1474 C315 1.575 . S
C1489 C260 1.653 . S
C1501 C189 1.581 . S
C1516 C274 1.683 . S
C1528 C203 1.594 . S
C1543 C175 1.568 . S
C1555 C288 1.678 . S
C1570 C245 1.642 . S
C1582 C302 1.632 . S
C1597 C217 1.642 . S
C1609 C316 1.657 . S
C1624 C330 1.631 . S
C1636 C231 1.628 . S
C1651 C441 1.579 . S
C1663 C344 1.670 . S
C1678 C358 1.651 . S
C1690 C455 1.629 . S
C1705 C372 1.632 . S
C1717 C427 1.642 . S
C1732 C497 1.575 . S
C1744 C386 1.673 . S
C1759 C400 1.652 . S
C1771 C469 1.629 . S
C1786 C483 1.576 . S
C1798 C414 1.682 . S
C1813 C357 1.638 . S
C1825 C428 1.660 . S
C1840 C371 1.599 . S
C1852 C442 1.682 . S
C1867 C456 1.658 . S
C1879 C343 1.577 . S
C1894 C470 1.668 . S
C1906 C413 1.569 . S
C1921 C385 1.615 . S
C1933 C484 1.676 . S
C1948 C399 1.641 . S
C1960 C498 1.656 . S
C1975 C9 1.801 . S
C1987 C51 1.799 . S
C2002 C23 1.783 . S
C2014 C65 1.769 . S
C2029 C79 1.771 . S
C2041 C37 1.775 . S
C2056 C93 1.777 . S
C2068 C135 1.804 . S
C2083 C149 1.802 . S
C2095 C107 1.788 . S
C2110 C163 1.775 . S
C2122 C121 1.803 . S
C2137 C177 1.802 . S
C2149 C219 1.798 . S
C2164 C191 1.794 . S
C2176 C233 1.804 . S
C2191 C247 1.771 . S
C2203 C205 1.775 . S
C2218 C261 1.774 . S
C2230 C303 1.803 . S
C2245 C275 1.769 . S
C2257 C317 1.793 . S
C2272 C289 1.794 . S
C2284 C331 1.798 . S
C2299 C387 1.771 . S
C2311 C345 1.792 . S
C2326 C401 1.787 . S
C2338 C359 1.770 . S
C2353 C415 1.772 . S
C2365 C373 1.774 . S
C2380 C429 1.797 . S
C2392 C471 1.770 . S
C2407 C485 1.769 . S
C2419 C443 1.793 . S
C2434 C499 1.799 . S
C2446 C457 1.771 . S
