# Generated by pormake.
# Topology wjg, (4)-cn, num edge types: 1
# Building blocks:
#     Node 0, Type 0, BuildingBlock: GALJAG_clean_sbu_0, # of connection points: 4
#     Node 1, Type 0, BuildingBlock: GALJAG_clean_sbu_0, # of connection points: 4
#     Node 2, Type 0, BuildingBlock: GALJAG_clean_sbu_0, # of connection points: 4
#     Node 3, Type 0, BuildingBlock: GALJAG_clean_sbu_0, # of connection points: 4
#     Node 4, Type 0, BuildingBlock: GALJAG_clean_sbu_0, # of connection points: 4
#     Node 5, Type 0, BuildingBlock: GALJAG_clean_sbu_0, # of connection points: 4
#     Node 6, Type 0, BuildingBlock: GALJAG_clean_sbu_0, # of connection points: 4
#     Node 7, Type 0, BuildingBlock: GALJAG_clean_sbu_0, # of connection points: 4
#     Node 8, Type 0, BuildingBlock: GALJAG_clean_sbu_0, # of connection points: 4
#     Node 9, Type 0, BuildingBlock: GALJAG_clean_sbu_0, # of connection points: 4
#     Node 10, Type 0, BuildingBlock: GALJAG_clean_sbu_0, # of connection points: 4
#     Node 11, Type 0, BuildingBlock: GALJAG_clean_sbu_0, # of connection points: 4
#     Edge 12, Type (0, 0), BuildingBlock: EYOCIG_clean_linker_4, # of connection points: 2
#     Edge 13, Type (0, 0), BuildingBlock: EYOCIG_clean_linker_4, # of connection points: 2
#     Edge 14, Type (0, 0), BuildingBlock: EYOCIG_clean_linker_4, # of connection points: 2
#     Edge 15, Type (0, 0), BuildingBlock: EYOCIG_clean_linker_4, # of connection points: 2
#     Edge 16, Type (0, 0), BuildingBlock: EYOCIG_clean_linker_4, # of connection points: 2
#     Edge 17, Type (0, 0), BuildingBlock: EYOCIG_clean_linker_4, # of connection points: 2
#     Edge 18, Type (0, 0), BuildingBlock: EYOCIG_clean_linker_4, # of connection points: 2
#     Edge 19, Type (0, 0), BuildingBlock: EYOCIG_clean_linker_4, # of connection points: 2
#     Edge 20, Type (0, 0), BuildingBlock: EYOCIG_clean_linker_4, # of connection points: 2
#     Edge 21, Type (0, 0), BuildingBlock: EYOCIG_clean_linker_4, # of connection points: 2
#     Edge 22, Type (0, 0), BuildingBlock: EYOCIG_clean_linker_4, # of connection points: 2
#     Edge 23, Type (0, 0), BuildingBlock: EYOCIG_clean_linker_4, # of connection points: 2
#     Edge 24, Type (0, 0), BuildingBlock: EYOCIG_clean_linker_4, # of connection points: 2
#     Edge 25, Type (0, 0), BuildingBlock: EYOCIG_clean_linker_4, # of connection points: 2
#     Edge 26, Type (0, 0), BuildingBlock: EYOCIG_clean_linker_4, # of connection points: 2
#     Edge 27, Type (0, 0), BuildingBlock: EYOCIG_clean_linker_4, # of connection points: 2
#     Edge 28, Type (0, 0), BuildingBlock: EYOCIG_clean_linker_4, # of connection points: 2
#     Edge 29, Type (0, 0), BuildingBlock: EYOCIG_clean_linker_4, # of connection points: 2
#     Edge 30, Type (0, 0), BuildingBlock: EYOCIG_clean_linker_4, # of connection points: 2
#     Edge 31, Type (0, 0), BuildingBlock: EYOCIG_clean_linker_4, # of connection points: 2
#     Edge 32, Type (0, 0), BuildingBlock: EYOCIG_clean_linker_4, # of connection points: 2
#     Edge 33, Type (0, 0), BuildingBlock: EYOCIG_clean_linker_4, # of connection points: 2
#     Edge 34, Type (0, 0), BuildingBlock: EYOCIG_clean_linker_4, # of connection points: 2
#     Edge 35, Type (0, 0), BuildingBlock: EYOCIG_clean_linker_4, # of connection points: 2
# Relax obj value: 0.428
# Max RMSD: 0.174
# Mean RMSD: 0.161
data_MOF--net-wjg--node1-GALJAG_clean_sbu_0--edge1-EYOCIG_clean_linker_4
_symmetry_space_group_name_H-M    P1
_symmetry_Int_Tables_number       1
_symmetry_cell_setting            triclinic
loop_
_symmetry_equiv_pos_as_xyz
'x, y, z'
_cell_length_a     25.337872
_cell_length_b     25.088803
_cell_length_c     32.260846
_cell_angle_alpha  90.012704
_cell_angle_beta   89.993245
_cell_angle_gamma 120.34505
loop_
_atom_site_label
_atom_site_type_symbol
_atom_site_fract_x
_atom_site_fract_y
_atom_site_fract_z
_atom_type_partial_charge
In0 In 0.12233 0.38881 0.31692 0.0
O1 O 0.03164 0.37212 0.28962 0.0
O2 O 0.10374 0.38485 0.24855 0.0
C3 C 0.13141 0.38341 0.39883 0.0
C4 C 0.12766 0.28624 0.31085 0.0
C5 C 0.20106 0.50949 0.31441 0.0
O6 O 0.08159 0.37379 0.38253 0.0
O7 O 0.1749 0.39665 0.37424 0.0
O8 O 0.21401 0.47057 0.29998 0.0
O9 O 0.1474 0.48797 0.32824 0.0
C10 C 0.05004 0.37502 0.25263 0.0
O11 O 0.17128 0.33809 0.29916 0.0
O12 O 0.07976 0.28531 0.3229 0.0
In13 In 0.72762 0.13033 0.65093 0.0
O14 O 0.65567 0.03856 0.62202 0.0
O15 O 0.71471 0.11406 0.58225 0.0
C16 C 0.74137 0.13856 0.73284 0.0
C17 C 0.83625 0.13952 0.6452 0.0
C18 C 0.68208 0.20512 0.64942 0.0
O19 O 0.70204 0.08782 0.71615 0.0
O20 O 0.77115 0.18331 0.70861 0.0
O21 O 0.73471 0.22135 0.6353 0.0
O22 O 0.65116 0.15025 0.66251 0.0
C23 C 0.67157 0.05891 0.58537 0.0
O24 O 0.82761 0.18292 0.63402 0.0
O25 O 0.78942 0.09002 0.65658 0.0
In26 In 0.57361 0.72956 0.98183 0.0
O27 O 0.59131 0.70325 0.04653 0.0
O28 O 0.56671 0.77324 0.04019 0.0
C29 C 0.58608 0.67131 0.91652 0.0
C30 C 0.45389 0.6863 0.98088 0.0
C31 C 0.67438 0.83928 0.9759 0.0
O32 O 0.58964 0.65524 0.95325 0.0
O33 O 0.57643 0.71575 0.91316 0.0
O34 O 0.6226 0.83064 0.96506 0.0
O35 O 0.67612 0.79185 0.98681 0.0
C36 C 0.58158 0.74309 0.06384 0.0
O37 O 0.49179 0.7389 0.96641 0.0
O38 O 0.47593 0.65417 0.99404 0.0
In39 In 0.82854 0.57995 0.31688 0.0
O40 O 0.77935 0.63046 0.29924 0.0
O41 O 0.87093 0.68346 0.32282 0.0
C42 C 0.74966 0.45929 0.31447 0.0
C43 C 0.9007 0.59368 0.2525 0.0
C44 C 0.82002 0.58552 0.39883 0.0
O45 O 0.73674 0.49824 0.30009 0.0
O46 O 0.80337 0.48076 0.32819 0.0
O47 O 0.86974 0.59514 0.38236 0.0
O48 O 0.77636 0.57222 0.37439 0.0
C49 C 0.82293 0.68238 0.31086 0.0
O50 O 0.91918 0.59663 0.28946 0.0
O51 O 0.84699 0.58384 0.24847 0.0
In52 In 0.22351 0.83855 0.651 0.0
O53 O 0.12349 0.78595 0.63419 0.0
O54 O 0.16174 0.87887 0.65673 0.0
C55 C 0.26891 0.76363 0.64945 0.0
C56 C 0.27944 0.90989 0.5854 0.0
C57 C 0.20996 0.83052 0.73293 0.0
O58 O 0.21628 0.74744 0.63538 0.0
O59 O 0.29991 0.81852 0.66251 0.0
O60 O 0.24928 0.88121 0.71619 0.0
O61 O 0.18011 0.78572 0.70874 0.0
C62 C 0.11488 0.82937 0.64539 0.0
O63 O 0.29544 0.93027 0.62203 0.0
O64 O 0.23629 0.85474 0.58231 0.0
In65 In 0.37768 0.23962 0.98197 0.0
O66 O 0.35995 0.26604 0.04664 0.0
O67 O 0.38466 0.19612 0.04038 0.0
C68 C 0.36509 0.29772 0.91663 0.0
C69 C 0.49741 0.28289 0.98098 0.0
C70 C 0.27698 0.12982 0.97611 0.0
O71 O 0.36159 0.31386 0.95334 0.0
O72 O 0.37476 0.25328 0.91329 0.0
O73 O 0.32878 0.13851 0.96526 0.0
O74 O 0.27519 0.17724 0.98699 0.0
C75 C 0.36973 0.22627 0.06399 0.0
O76 O 0.4595 0.23026 0.96654 0.0
O77 O 0.47538 0.31504 0.99413 0.0
In78 In 0.58179 0.83892 0.33984 0.0
O79 O 0.60149 0.93057 0.36888 0.0
O80 O 0.58516 0.85503 0.40855 0.0
C81 C 0.58743 0.83128 0.25788 0.0
C82 C 0.68122 0.82968 0.34546 0.0
C83 C 0.46146 0.76378 0.34135 0.0
O84 O 0.59878 0.88188 0.27475 0.0
O85 O 0.57246 0.78638 0.28196 0.0
O86 O 0.49799 0.74769 0.35537 0.0
O87 O 0.48527 0.81868 0.32835 0.0
C88 C 0.5971 0.91016 0.4055 0.0
O89 O 0.62914 0.78624 0.35658 0.0
O90 O 0.68393 0.87922 0.33419 0.0
In91 In 0.71772 0.57975 0.67402 0.0
O92 O 0.64388 0.59662 0.70139 0.0
O93 O 0.70318 0.58374 0.74241 0.0
C94 C 0.73212 0.58532 0.5921 0.0
C95 C 0.82583 0.68213 0.68009 0.0
C96 C 0.67556 0.45904 0.67645 0.0
O97 O 0.69201 0.59501 0.60848 0.0
O98 O 0.76231 0.57191 0.61662 0.0
O99 O 0.72748 0.4979 0.69086 0.0
O100 O 0.64348 0.48064 0.66268 0.0
C101 C 0.65939 0.59369 0.73836 0.0
O102 O 0.81743 0.63021 0.69173 0.0
O103 O 0.77893 0.68323 0.6681 0.0
In104 In 0.12221 0.72884 0.00893 0.0
O105 O 0.21347 0.7384 0.02435 0.0
O106 O 0.14464 0.65355 -0.00321 0.0
C107 C 0.13129 0.83862 0.01477 0.0
C108 C 0.12752 0.74208 0.92691 0.0
C109 C 0.0515 0.67071 0.07429 0.0
O110 O 0.17441 0.82996 0.02563 0.0
O111 O 0.08207 0.79118 0.0039 0.0
O112 O 0.03187 0.65454 0.03757 0.0
O113 O 0.1056 0.71519 0.07762 0.0
C114 C 0.19883 0.6858 0.00992 0.0
O115 O 0.07799 0.70229 0.94429 0.0
O116 O 0.17262 0.77231 0.95049 0.0
In117 In 0.36877 0.12994 0.33996 0.0
O118 O 0.34918 0.03829 0.36893 0.0
O119 O 0.36535 0.11374 0.40866 0.0
C120 C 0.36338 0.13786 0.25801 0.0
C121 C 0.26917 0.13889 0.34553 0.0
C122 C 0.48908 0.20516 0.34158 0.0
O123 O 0.35206 0.08722 0.2748 0.0
O124 O 0.37818 0.18265 0.28218 0.0
O125 O 0.45249 0.22119 0.35561 0.0
O126 O 0.46533 0.15029 0.32852 0.0
C127 C 0.35351 0.05865 0.40556 0.0
O128 O 0.32118 0.18237 0.35673 0.0
O129 O 0.26662 0.08942 0.33421 0.0
In130 In 0.23348 0.389 0.67399 0.0
O131 O 0.3073 0.37217 0.70145 0.0
O132 O 0.24786 0.38494 0.74241 0.0
C133 C 0.21945 0.38352 0.59204 0.0
C134 C 0.12533 0.28662 0.67991 0.0
C135 C 0.27546 0.50968 0.67649 0.0
O136 O 0.2595 0.37383 0.60851 0.0
O137 O 0.18914 0.39687 0.61649 0.0
O138 O 0.22352 0.47075 0.69083 0.0
O139 O 0.30765 0.48817 0.66276 0.0
C140 C 0.29169 0.37505 0.7384 0.0
O141 O 0.13372 0.33854 0.69157 0.0
O142 O 0.17224 0.28551 0.66797 0.0
In143 In 0.82899 0.24016 0.00886 0.0
O144 O 0.87332 0.26685 0.94426 0.0
O145 O 0.77868 0.19678 0.95038 0.0
C146 C 0.89948 0.29813 0.07434 0.0
C147 C 0.75237 0.2832 0.00987 0.0
C148 C 0.82002 0.13043 0.01458 0.0
O149 O 0.91922 0.31442 0.03766 0.0
O150 O 0.84538 0.25362 0.07758 0.0
O151 O 0.77684 0.139 0.02542 0.0
O152 O 0.86925 0.17793 0.00379 0.0
C153 C 0.82381 0.22707 0.92683 0.0
O154 O 0.73769 0.23055 0.02422 0.0
O155 O 0.8066 0.31549 -0.0032 0.0
C156 C 0.29018 0.62386 0.32456 0.0
C157 C 0.24731 0.57244 0.32078 0.0
C158 C 0.34632 0.67855 0.33081 0.0
C159 C 0.39829 0.71971 0.33483 0.0
C160 C 0.65185 0.29009 0.65995 0.0
C161 C 0.66282 0.24905 0.65593 0.0
C162 C 0.65026 0.34468 0.66621 0.0
C163 C 0.65877 0.39608 0.67002 0.0
C164 C 0.34023 0.65892 0.99205 0.0
C165 C 0.39143 0.66858 0.98775 0.0
C166 C 0.28535 0.65878 -0.00127 0.0
C167 C 0.24367 0.66823 0.00303 0.0
C168 C 0.60422 0.29041 0.33106 0.0
C169 C 0.55224 0.24928 0.33508 0.0
C170 C 0.66041 0.34502 0.32477 0.0
C171 C 0.70336 0.39638 0.32092 0.0
C172 C 0.29903 0.67858 0.65999 0.0
C173 C 0.2881 0.71965 0.65596 0.0
C174 C 0.30063 0.62399 0.66626 0.0
C175 C 0.29217 0.57262 0.67007 0.0
C176 C 0.66592 0.31032 -0.00126 0.0
C177 C 0.70757 0.30083 0.00302 0.0
C178 C 0.61107 0.31025 0.99209 0.0
C179 C 0.55988 0.30063 0.98782 0.0
C180 C 0.15246 0.19807 0.32378 0.0
C181 C 0.13708 0.23568 0.31867 0.0
C182 C 0.18338 0.1661 0.33242 0.0
C183 C 0.21994 0.14971 0.33767 0.0
C184 C 0.94934 0.16685 0.65819 0.0
C185 C 0.89638 0.15047 0.65298 0.0
C186 C 0.01224 0.1987 0.66684 0.0
C187 C 0.06527 0.23618 0.67202 0.0
C188 C 0.79267 0.01649 1e-05 0.0
C189 C 0.8091 0.06987 0.00598 0.0
C190 C 0.76104 0.95328 0.99032 0.0
C191 C 0.72403 0.89988 0.98442 0.0
C192 C 0.76694 0.80233 0.33244 0.0
C193 C 0.7304 0.81875 0.33766 0.0
C194 C 0.79792 0.77041 0.32381 0.0
C195 C 0.8134 0.73287 0.31868 0.0
C196 C 0.00181 0.80203 0.65848 0.0
C197 C 0.05477 0.81843 0.65323 0.0
C198 C 0.93891 0.77012 0.66713 0.0
C199 C 0.88589 0.73259 0.67226 0.0
C200 C 0.19041 0.01582 0.99059 0.0
C201 C 0.22739 0.06921 0.98466 0.0
C202 C 0.15877 0.95261 0.00028 0.0
C203 C 0.14231 0.89921 0.00621 0.0
C204 C 0.9606 0.34364 0.1439 0.0
C205 C 0.93605 0.32574 0.11066 0.0
C206 C -0.01262 0.35746 0.18378 0.0
C207 C 0.01239 0.36497 0.21686 0.0
C208 C 0.62794 -0.00242 0.51553 0.0
C209 C 0.64497 0.02201 0.54894 0.0
C210 C 0.61481 0.97137 0.4754 0.0
C211 C 0.60739 0.94697 0.44198 0.0
C212 C 0.60161 0.62549 0.84709 0.0
C213 C 0.59502 0.64354 0.88028 0.0
C214 C 0.6145 0.61151 0.80723 0.0
C215 C 0.63193 0.60388 0.77415 0.0
C216 C -0.00985 0.62509 0.14374 0.0
C217 C 0.01479 0.64304 0.11054 0.0
C218 C 0.9633 0.61124 0.18361 0.0
C219 C 0.93829 0.60373 0.21669 0.0
C220 C 0.33594 -0.00259 0.47541 0.0
C221 C 0.3433 0.02182 0.44201 0.0
C222 C 0.3229 0.97119 0.51554 0.0
C223 C 0.30595 0.94676 0.54895 0.0
C224 C 0.34945 0.34338 0.84717 0.0
C225 C 0.3561 0.3254 0.88037 0.0
C226 C 0.33654 0.3573 0.80731 0.0
C227 C 0.31913 0.3649 0.77422 0.0
C228 C 0.15837 0.37599 0.47625 0.0
C229 C 0.13975 0.3778 0.4422 0.0
C230 C 0.18535 0.376 0.51455 0.0
C231 C 0.2057 0.37783 0.54863 0.0
C232 C 0.80036 0.19265 0.84913 0.0
C233 C 0.81761 0.21318 0.88342 0.0
C234 C 0.77452 0.16538 0.81053 0.0
C235 C 0.75477 0.14669 0.7763 0.0
C236 C 0.59389 0.80493 0.18011 0.0
C237 C 0.59278 0.82346 0.21439 0.0
C238 C 0.5925 0.77773 0.1415 0.0
C239 C 0.58923 0.75715 0.10722 0.0
C240 C 0.79345 0.59301 0.47633 0.0
C241 C 0.81196 0.59119 0.44224 0.0
C242 C 0.76648 0.59296 0.51466 0.0
C243 C 0.74606 0.59107 0.54872 0.0
C244 C 0.15109 0.77659 0.84923 0.0
C245 C 0.1338 0.75604 0.88351 0.0
C246 C 0.17693 0.80385 0.81064 0.0
C247 C 0.19665 0.82249 0.7764 0.0
C248 C 0.35721 0.16445 0.18026 0.0
C249 C 0.35821 0.14583 0.21452 0.0
C250 C 0.35869 0.19168 0.14166 0.0
C251 C 0.362 0.21225 0.10738 0.0
loop_
_geom_bond_atom_site_label_1
_geom_bond_atom_site_label_2
_geom_bond_distance
_geom_bond_site_symmetry_2
_ccdc_geom_bond_type
In0 O1 2.294 . S
In0 O2 2.326 . S
In0 O6 2.266 . S
In0 O7 2.326 . S
In0 O8 2.266 . S
In0 O9 2.326 . S
In0 O11 2.294 . S
In0 O12 2.326 . S
O1 In0 2.294 . S
O1 C10 1.240 . S
O2 In0 2.326 . S
O2 C10 1.252 . S
C3 O6 1.252 . S
C3 O7 1.260 . S
C4 O11 1.240 . S
C4 O12 1.252 . S
C5 O8 1.252 . S
C5 O9 1.260 . S
O6 In0 2.266 . S
O6 C3 1.252 . S
O7 In0 2.326 . S
O7 C3 1.260 . S
O8 In0 2.266 . S
O8 C5 1.252 . S
O9 In0 2.326 . S
O9 C5 1.260 . S
C10 O1 1.240 . S
C10 O2 1.252 . S
O11 In0 2.294 . S
O11 C4 1.240 . S
O12 In0 2.326 . S
O12 C4 1.252 . S
In13 O14 2.294 . S
In13 O15 2.326 . S
In13 O19 2.266 . S
In13 O20 2.326 . S
In13 O21 2.266 . S
In13 O22 2.326 . S
In13 O24 2.294 . S
In13 O25 2.326 . S
O14 In13 2.294 . S
O14 C23 1.240 . S
O15 In13 2.326 . S
O15 C23 1.252 . S
C16 O19 1.252 . S
C16 O20 1.260 . S
C17 O24 1.240 . S
C17 O25 1.252 . S
C18 O21 1.252 . S
C18 O22 1.260 . S
O19 In13 2.266 . S
O19 C16 1.252 . S
O20 In13 2.326 . S
O20 C16 1.260 . S
O21 In13 2.266 . S
O21 C18 1.252 . S
O22 In13 2.326 . S
O22 C18 1.260 . S
C23 O14 1.240 . S
C23 O15 1.252 . S
O24 In13 2.294 . S
O24 C17 1.240 . S
O25 In13 2.326 . S
O25 C17 1.252 . S
In26 O27 2.291 . S
In26 O28 2.323 . S
In26 O32 2.268 1_554 S
In26 O33 2.329 1_554 S
In26 O34 2.267 1_554 S
In26 O35 2.326 1_554 S
In26 O37 2.294 1_554 S
In26 O38 2.326 . S
O27 In26 2.291 . S
O27 C36 1.240 . S
O28 In26 2.323 . S
O28 C36 1.252 . S
C29 O32 1.252 . S
C29 O33 1.260 . S
C30 O37 1.240 1_554 S
C30 O38 1.252 . S
C31 O34 1.252 . S
C31 O35 1.260 . S
O32 In26 2.268 1_556 S
O32 C29 1.252 . S
O33 In26 2.329 1_556 S
O33 C29 1.260 . S
O34 In26 2.267 1_556 S
O34 C31 1.252 . S
O35 In26 2.326 1_556 S
O35 C31 1.260 . S
C36 O27 1.240 . S
C36 O28 1.252 . S
O37 In26 2.294 1_556 S
O37 C30 1.240 1_556 S
O38 In26 2.326 . S
O38 C30 1.252 . S
In39 O40 2.294 . S
In39 O41 2.326 . S
In39 O45 2.266 . S
In39 O46 2.326 . S
In39 O47 2.266 . S
In39 O48 2.326 . S
In39 O50 2.294 . S
In39 O51 2.326 . S
O40 In39 2.294 . S
O40 C49 1.240 . S
O41 In39 2.326 . S
O41 C49 1.252 . S
C42 O45 1.252 . S
C42 O46 1.260 . S
C43 O50 1.240 . S
C43 O51 1.252 . S
C44 O47 1.252 . S
C44 O48 1.260 . S
O45 In39 2.266 . S
O45 C42 1.252 . S
O46 In39 2.326 . S
O46 C42 1.260 . S
O47 In39 2.266 . S
O47 C44 1.252 . S
O48 In39 2.326 . S
O48 C44 1.260 . S
C49 O40 1.240 . S
C49 O41 1.252 . S
O50 In39 2.294 . S
O50 C43 1.240 . S
O51 In39 2.326 . S
O51 C43 1.252 . S
In52 O53 2.294 . S
In52 O54 2.326 . S
In52 O58 2.266 . S
In52 O59 2.326 . S
In52 O60 2.266 . S
In52 O61 2.326 . S
In52 O63 2.294 . S
In52 O64 2.326 . S
O53 In52 2.294 . S
O53 C62 1.240 . S
O54 In52 2.326 . S
O54 C62 1.252 . S
C55 O58 1.252 . S
C55 O59 1.260 . S
C56 O63 1.240 . S
C56 O64 1.252 . S
C57 O60 1.252 . S
C57 O61 1.260 . S
O58 In52 2.266 . S
O58 C55 1.252 . S
O59 In52 2.326 . S
O59 C55 1.260 . S
O60 In52 2.266 . S
O60 C57 1.252 . S
O61 In52 2.326 . S
O61 C57 1.260 . S
C62 O53 1.240 . S
C62 O54 1.252 . S
O63 In52 2.294 . S
O63 C56 1.240 . S
O64 In52 2.326 . S
O64 C56 1.252 . S
In65 O66 2.291 . S
In65 O67 2.323 . S
In65 O71 2.268 1_554 S
In65 O72 2.329 1_554 S
In65 O73 2.267 1_554 S
In65 O74 2.326 1_554 S
In65 O76 2.294 1_554 S
In65 O77 2.326 . S
O66 In65 2.291 . S
O66 C75 1.240 . S
O67 In65 2.323 . S
O67 C75 1.252 . S
C68 O71 1.252 . S
C68 O72 1.260 . S
C69 O76 1.240 1_554 S
C69 O77 1.252 . S
C70 O73 1.252 . S
C70 O74 1.260 . S
O71 In65 2.268 1_556 S
O71 C68 1.252 . S
O72 In65 2.329 1_556 S
O72 C68 1.260 . S
O73 In65 2.267 1_556 S
O73 C70 1.252 . S
O74 In65 2.326 1_556 S
O74 C70 1.260 . S
C75 O66 1.240 . S
C75 O67 1.252 . S
O76 In65 2.294 1_556 S
O76 C69 1.240 1_556 S
O77 In65 2.326 . S
O77 C69 1.252 . S
In78 O79 2.294 . S
In78 O80 2.326 . S
In78 O84 2.266 . S
In78 O85 2.326 . S
In78 O86 2.266 . S
In78 O87 2.326 . S
In78 O89 2.294 . S
In78 O90 2.326 . S
O79 In78 2.294 . S
O79 C88 1.240 . S
O80 In78 2.326 . S
O80 C88 1.252 . S
C81 O84 1.252 . S
C81 O85 1.260 . S
C82 O89 1.240 . S
C82 O90 1.252 . S
C83 O86 1.252 . S
C83 O87 1.260 . S
O84 In78 2.266 . S
O84 C81 1.252 . S
O85 In78 2.326 . S
O85 C81 1.260 . S
O86 In78 2.266 . S
O86 C83 1.252 . S
O87 In78 2.326 . S
O87 C83 1.260 . S
C88 O79 1.240 . S
C88 O80 1.252 . S
O89 In78 2.294 . S
O89 C82 1.240 . S
O90 In78 2.326 . S
O90 C82 1.252 . S
In91 O92 2.294 . S
In91 O93 2.326 . S
In91 O97 2.266 . S
In91 O98 2.326 . S
In91 O99 2.266 . S
In91 O100 2.326 . S
In91 O102 2.294 . S
In91 O103 2.326 . S
O92 In91 2.294 . S
O92 C101 1.240 . S
O93 In91 2.326 . S
O93 C101 1.252 . S
C94 O97 1.252 . S
C94 O98 1.260 . S
C95 O102 1.240 . S
C95 O103 1.252 . S
C96 O99 1.252 . S
C96 O100 1.260 . S
O97 In91 2.266 . S
O97 C94 1.252 . S
O98 In91 2.326 . S
O98 C94 1.260 . S
O99 In91 2.266 . S
O99 C96 1.252 . S
O100 In91 2.326 . S
O100 C96 1.260 . S
C101 O92 1.240 . S
C101 O93 1.252 . S
O102 In91 2.294 . S
O102 C95 1.240 . S
O103 In91 2.326 . S
O103 C95 1.252 . S
In104 O105 2.294 1_556 S
In104 O106 2.326 . S
In104 O110 2.267 1_556 S
In104 O111 2.326 1_556 S
In104 O112 2.268 1_556 S
In104 O113 2.329 1_556 S
In104 O115 2.291 . S
In104 O116 2.323 . S
O105 In104 2.294 1_554 S
O105 C114 1.240 1_554 S
O106 In104 2.326 . S
O106 C114 1.252 . S
C107 O110 1.252 . S
C107 O111 1.260 . S
C108 O115 1.240 . S
C108 O116 1.252 . S
C109 O112 1.252 . S
C109 O113 1.260 . S
O110 In104 2.267 1_554 S
O110 C107 1.252 . S
O111 In104 2.326 1_554 S
O111 C107 1.260 . S
O112 In104 2.268 1_554 S
O112 C109 1.252 . S
O113 In104 2.329 1_554 S
O113 C109 1.260 . S
C114 O105 1.240 1_556 S
C114 O106 1.252 . S
O115 In104 2.291 . S
O115 C108 1.240 . S
O116 In104 2.323 . S
O116 C108 1.252 . S
In117 O118 2.294 . S
In117 O119 2.326 . S
In117 O123 2.266 . S
In117 O124 2.326 . S
In117 O125 2.266 . S
In117 O126 2.326 . S
In117 O128 2.294 . S
In117 O129 2.326 . S
O118 In117 2.294 . S
O118 C127 1.240 . S
O119 In117 2.326 . S
O119 C127 1.252 . S
C120 O123 1.252 . S
C120 O124 1.260 . S
C121 O128 1.240 . S
C121 O129 1.252 . S
C122 O125 1.252 . S
C122 O126 1.260 . S
O123 In117 2.266 . S
O123 C120 1.252 . S
O124 In117 2.326 . S
O124 C120 1.260 . S
O125 In117 2.266 . S
O125 C122 1.252 . S
O126 In117 2.326 . S
O126 C122 1.260 . S
C127 O118 1.240 . S
C127 O119 1.252 . S
O128 In117 2.294 . S
O128 C121 1.240 . S
O129 In117 2.326 . S
O129 C121 1.252 . S
In130 O131 2.294 . S
In130 O132 2.326 . S
In130 O136 2.266 . S
In130 O137 2.326 . S
In130 O138 2.266 . S
In130 O139 2.326 . S
In130 O141 2.294 . S
In130 O142 2.326 . S
O131 In130 2.294 . S
O131 C140 1.240 . S
O132 In130 2.326 . S
O132 C140 1.252 . S
C133 O136 1.252 . S
C133 O137 1.260 . S
C134 O141 1.240 . S
C134 O142 1.252 . S
C135 O138 1.252 . S
C135 O139 1.260 . S
O136 In130 2.266 . S
O136 C133 1.252 . S
O137 In130 2.326 . S
O137 C133 1.260 . S
O138 In130 2.266 . S
O138 C135 1.252 . S
O139 In130 2.326 . S
O139 C135 1.260 . S
C140 O131 1.240 . S
C140 O132 1.252 . S
O141 In130 2.294 . S
O141 C134 1.240 . S
O142 In130 2.326 . S
O142 C134 1.252 . S
In143 O144 2.291 . S
In143 O145 2.323 . S
In143 O149 2.268 1_556 S
In143 O150 2.329 1_556 S
In143 O151 2.267 1_556 S
In143 O152 2.326 1_556 S
In143 O154 2.294 1_556 S
In143 O155 2.326 . S
O144 In143 2.291 . S
O144 C153 1.240 . S
O145 In143 2.323 . S
O145 C153 1.252 . S
C146 O149 1.252 . S
C146 O150 1.260 . S
C147 O154 1.240 1_556 S
C147 O155 1.252 . S
C148 O151 1.252 . S
C148 O152 1.260 . S
O149 In143 2.268 1_554 S
O149 C146 1.252 . S
O150 In143 2.329 1_554 S
O150 C146 1.260 . S
O151 In143 2.267 1_554 S
O151 C148 1.252 . S
O152 In143 2.326 1_554 S
O152 C148 1.260 . S
C153 O144 1.240 . S
C153 O145 1.252 . S
O154 In143 2.294 1_554 S
O154 C147 1.240 1_554 S
O155 In143 2.326 . S
O155 C147 1.252 . S
C156 C157 1.170 . S
C156 C158 1.380 . S
C157 C156 1.170 . S
C158 C156 1.380 . S
C158 C159 1.170 . S
C159 C158 1.170 . S
C160 C161 1.170 . S
C160 C162 1.380 . S
C161 C160 1.170 . S
C162 C160 1.380 . S
C162 C163 1.170 . S
C163 C162 1.170 . S
C164 C165 1.170 . S
C164 C166 1.380 . S
C165 C164 1.170 . S
C166 C164 1.380 . S
C166 C167 1.170 . S
C167 C166 1.170 . S
C168 C169 1.170 . S
C168 C170 1.380 . S
C169 C168 1.170 . S
C170 C168 1.380 . S
C170 C171 1.170 . S
C171 C170 1.170 . S
C172 C173 1.170 . S
C172 C174 1.380 . S
C173 C172 1.170 . S
C174 C172 1.380 . S
C174 C175 1.170 . S
C175 C174 1.170 . S
C176 C177 1.170 . S
C176 C178 1.380 . S
C177 C176 1.170 . S
C178 C176 1.380 . S
C178 C179 1.170 . S
C179 C178 1.170 . S
C180 C181 1.170 . S
C180 C182 1.380 . S
C181 C180 1.170 . S
C182 C180 1.380 . S
C182 C183 1.170 . S
C183 C182 1.170 . S
C184 C185 1.170 . S
C184 C186 1.380 1_655 S
C185 C184 1.170 . S
C186 C184 1.380 1_455 S
C186 C187 1.170 . S
C187 C186 1.170 . S
C188 C189 1.170 . S
C188 C190 1.380 1_544 S
C189 C188 1.170 . S
C190 C188 1.380 1_566 S
C190 C191 1.170 . S
C191 C190 1.170 . S
C192 C193 1.170 . S
C192 C194 1.380 . S
C193 C192 1.170 . S
C194 C192 1.380 . S
C194 C195 1.170 . S
C195 C194 1.170 . S
C196 C197 1.170 . S
C196 C198 1.380 1_455 S
C197 C196 1.170 . S
C198 C196 1.380 1_655 S
C198 C199 1.170 . S
C199 C198 1.170 . S
C200 C201 1.170 . S
C200 C202 1.380 1_546 S
C201 C200 1.170 . S
C202 C200 1.380 1_564 S
C202 C203 1.170 . S
C203 C202 1.170 . S
C204 C205 1.170 . S
C204 C206 1.380 . S
C205 C204 1.170 . S
C206 C204 1.380 . S
C206 C207 1.170 1_655 S
C207 C206 1.170 1_455 S
C208 C209 1.170 . S
C208 C210 1.380 1_545 S
C209 C208 1.170 . S
C210 C208 1.380 1_565 S
C210 C211 1.170 . S
C211 C210 1.170 . S
C212 C213 1.170 . S
C212 C214 1.380 . S
C213 C212 1.170 . S
C214 C212 1.380 . S
C214 C215 1.170 . S
C215 C214 1.170 . S
C216 C217 1.170 . S
C216 C218 1.380 1_455 S
C217 C216 1.170 . S
C218 C216 1.380 1_655 S
C218 C219 1.170 . S
C219 C218 1.170 . S
C220 C221 1.170 . S
C220 C222 1.380 1_545 S
C221 C220 1.170 . S
C222 C220 1.380 1_565 S
C222 C223 1.170 . S
C223 C222 1.170 . S
C224 C225 1.170 . S
C224 C226 1.380 . S
C225 C224 1.170 . S
C226 C224 1.380 . S
C226 C227 1.170 . S
C227 C226 1.170 . S
C228 C229 1.170 . S
C228 C230 1.380 . S
C229 C228 1.170 . S
C230 C228 1.380 . S
C230 C231 1.170 . S
C231 C230 1.170 . S
C232 C233 1.170 . S
C232 C234 1.380 . S
C233 C232 1.170 . S
C234 C232 1.380 . S
C234 C235 1.170 . S
C235 C234 1.170 . S
C236 C237 1.170 . S
C236 C238 1.380 . S
C237 C236 1.170 . S
C238 C236 1.380 . S
C238 C239 1.170 . S
C239 C238 1.170 . S
C240 C241 1.170 . S
C240 C242 1.380 . S
C241 C240 1.170 . S
C242 C240 1.380 . S
C242 C243 1.170 . S
C243 C242 1.170 . S
C244 C245 1.170 . S
C244 C246 1.380 . S
C245 C244 1.170 . S
C246 C244 1.380 . S
C246 C247 1.170 . S
C247 C246 1.170 . S
C248 C249 1.170 . S
C248 C250 1.380 . S
C249 C248 1.170 . S
C250 C248 1.380 . S
C250 C251 1.170 . S
C251 C250 1.170 . S
C157 C5 1.755 . S
C159 C83 1.765 . S
C161 C18 1.765 . S
C163 C96 1.760 . S
C165 C30 1.653 1_556 S
C167 C114 1.644 . S
C169 C122 1.753 . S
C171 C42 1.742 . S
C173 C55 1.760 . S
C175 C135 1.753 . S
C177 C147 1.669 1_554 S
C179 C69 1.659 . S
C181 C4 1.232 . S
C183 C121 1.232 . S
C185 C17 1.231 . S
C187 C134 1.219 . S
C189 C148 1.243 . S
C191 C31 1.257 . S
C193 C82 1.234 . S
C195 C49 1.227 . S
C197 C62 1.234 . S
C199 C95 1.225 . S
C201 C70 1.209 . S
C203 C107 1.233 . S
C205 C146 1.738 . S
C207 C10 1.759 . S
C209 C23 1.876 . S
C211 C88 1.897 . S
C213 C29 1.762 . S
C215 C101 1.731 . S
C217 C109 1.766 . S
C219 C43 1.729 . S
C221 C127 1.882 . S
C223 C56 1.891 . S
C225 C68 1.759 . S
C227 C140 1.738 . S
C229 C3 1.252 . S
C231 C133 1.268 . S
C233 C153 1.399 . S
C235 C16 1.361 . S
C237 C81 1.400 . S
C239 C36 1.354 . S
C241 C44 1.284 . S
C243 C94 1.240 . S
C245 C108 1.385 . S
C247 C57 1.379 . S
C249 C120 1.401 . S
C251 C75 1.349 . S
