# Generated by pormake.
# Topology bto, (3)-cn, num edge types: 1
# Building blocks:
#     Node 0, Type 0, BuildingBlock: WUSLED_clean_sbu_0, # of connection points: 3
#     Node 1, Type 0, BuildingBlock: WUSLED_clean_sbu_0, # of connection points: 3
#     Node 2, Type 0, BuildingBlock: WUSLED_clean_sbu_0, # of connection points: 3
#     Node 3, Type 0, BuildingBlock: WUSLED_clean_sbu_0, # of connection points: 3
#     Node 4, Type 0, BuildingBlock: WUSLED_clean_sbu_0, # of connection points: 3
#     Node 5, Type 0, BuildingBlock: WUSLED_clean_sbu_0, # of connection points: 3
#     Edge 6, Type (0, 0), BuildingBlock: UVAHIK_clean_linker_0, # of connection points: 2
#     Edge 7, Type (0, 0), BuildingBlock: UVAHIK_clean_linker_0, # of connection points: 2
#     Edge 8, Type (0, 0), BuildingBlock: UVAHIK_clean_linker_0, # of connection points: 2
#     Edge 9, Type (0, 0), BuildingBlock: UVAHIK_clean_linker_0, # of connection points: 2
#     Edge 10, Type (0, 0), BuildingBlock: UVAHIK_clean_linker_0, # of connection points: 2
#     Edge 11, Type (0, 0), BuildingBlock: UVAHIK_clean_linker_0, # of connection points: 2
#     Edge 12, Type (0, 0), BuildingBlock: UVAHIK_clean_linker_0, # of connection points: 2
#     Edge 13, Type (0, 0), BuildingBlock: UVAHIK_clean_linker_0, # of connection points: 2
#     Edge 14, Type (0, 0), BuildingBlock: UVAHIK_clean_linker_0, # of connection points: 2
# Relax obj value: 0.000
# Max RMSD: 0.004
# Mean RMSD: 0.004
data_MOF--net-bto--node1-WUSLED_clean_sbu_0--edge1-UVAHIK_clean_linker_0
_symmetry_space_group_name_H-M    P1
_symmetry_Int_Tables_number       1
_symmetry_cell_setting            triclinic
loop_
_symmetry_equiv_pos_as_xyz
'x, y, z'
_cell_length_a     47.72416
_cell_length_b     47.753541
_cell_length_c     120.58149
_cell_angle_alpha  88.931543
_cell_angle_beta   90.649039
_cell_angle_gamma 119.98798
loop_
_atom_site_label
_atom_site_type_symbol
_atom_site_fract_x
_atom_site_fract_y
_atom_site_fract_z
_atom_type_partial_charge
C0 C 0.99778 0.52632 0.0491 0.0
C1 C 0.97519 0.52618 0.05647 0.0
C2 C 0.94188 0.52593 0.04093 0.0
C3 C 0.94745 0.52595 0.05243 0.0
C4 C 0.9647 0.52604 0.0336 0.0
C5 C 0.99237 0.52623 0.03765 0.0
U6 U 0.05232 0.52856 0.07285 0.0
O7 O 0.07889 0.50222 0.07518 0.0
O8 O 0.10537 0.55524 0.07431 0.0
C9 C 0.10731 0.52874 0.07477 0.0
C10 C 1.02706 0.52662 0.05321 0.0
C11 C 0.13113 0.5281 0.06731 0.0
C12 C 0.14987 0.52612 0.04883 0.0
C13 C 0.12665 0.52639 0.05577 0.0
C14 C 0.18214 0.52924 0.06492 0.0
C15 C 0.17798 0.52766 0.05333 0.0
C16 C 0.15893 0.52947 0.07183 0.0
C17 C 1.0283 0.53205 0.10276 0.0
C18 C 0.05416 0.52377 0.11899 0.0
C19 C 1.01701 0.54398 0.12113 0.0
C20 C 1.01223 0.54277 0.10965 0.0
C21 C 0.03795 0.53439 0.12595 0.0
C22 C 0.04947 0.52273 0.10749 0.0
C23 C 1.02254 0.5307 0.09072 0.0
O24 O 0.04871 0.55362 0.05787 0.0
O25 O 1.02207 0.50062 0.05879 0.0
O26 O 1.01614 0.50359 0.08595 0.0
O27 O 0.04281 0.55661 0.08502 0.0
H28 H 0.97906 0.52635 0.06535 0.0
H29 H 0.93061 0.52625 0.0583 0.0
H30 H 0.96098 0.52557 0.02471 0.0
H31 H 1.00953 0.52624 0.03185 0.0
H32 H 0.14605 0.52521 0.03994 0.0
H33 H 0.1053 0.5254 0.05214 0.0
H34 H 0.20319 0.52995 0.06868 0.0
H35 H 0.16271 0.5307 0.08072 0.0
H36 H 0.0707 0.51655 0.12243 0.0
H37 H 1.00384 0.55187 0.12625 0.0
H38 H 0.99579 0.55005 0.10614 0.0
H39 H 0.06228 0.51459 0.10228 0.0
C40 C 0.60367 0.09233 0.38229 0.0
C41 C 0.62589 0.1154 0.38963 0.0
C42 C 0.65879 0.14826 0.37404 0.0
C43 C 0.65322 0.14312 0.38554 0.0
C44 C 0.63635 0.12494 0.36675 0.0
C45 C 0.60906 0.09726 0.37085 0.0
U46 U 0.55172 0.03854 0.40616 0.0
O47 O 0.49884 1.01115 0.4081 0.0
O48 O 0.52631 0.98556 0.40815 0.0
C49 C 0.4976 0.98302 0.40813 0.0
C50 C 0.57494 0.06299 0.38645 0.0
C51 C 0.47361 0.95874 0.40062 0.0
C52 C 0.45067 0.94151 0.38222 0.0
C53 C 0.47393 0.96495 0.38919 0.0
C54 C 0.42682 0.90541 0.39803 0.0
C55 C 0.42682 0.91143 0.38656 0.0
C56 C 0.44999 0.92886 0.40498 0.0
C57 C 0.57916 0.06489 0.43605 0.0
C58 C 0.54644 0.03739 0.45228 0.0
C59 C 0.60225 0.07968 0.45451 0.0
C60 C 0.60537 0.08387 0.443 0.0
C61 C 0.57278 0.05637 0.4593 0.0
C62 C 0.54965 0.04155 0.44074 0.0
C63 C 0.58322 0.06978 0.42397 0.0
O64 O 0.58076 0.04194 0.39162 0.0
O65 O 0.55354 0.06776 0.39157 0.0
O66 O 0.56194 0.07514 0.41877 0.0
O67 O 0.58942 0.04955 0.41877 0.0
H68 H 0.62205 0.11197 0.39851 0.0
H69 H 0.66977 0.16072 0.39139 0.0
H70 H 0.64008 0.12785 0.35786 0.0
H71 H 0.59221 0.07961 0.36507 0.0
H72 H 0.45159 0.9468 0.37341 0.0
H73 H 0.49213 0.98789 0.38567 0.0
H74 H 0.40858 0.88273 0.40168 0.0
H75 H 0.44937 0.92369 0.41379 0.0
H76 H 0.52353 1.01903 0.4557 0.0
H77 H 0.62286 0.09499 0.45967 0.0
H78 H 0.6283 0.10204 0.43952 0.0
H79 H 0.52917 0.02654 0.43547 0.0
C80 C 0.55231 0.58466 0.71561 0.0
C81 C 0.55607 0.60893 0.72287 0.0
C82 C 0.55296 0.64071 0.70732 0.0
C83 C 0.55641 0.63672 0.71877 0.0
C84 C 0.54906 0.61614 0.70011 0.0
C85 C 0.54875 0.58841 0.70423 0.0
U86 U 0.55116 0.53062 0.73951 0.0
O87 O 0.52467 0.47757 0.7413 0.0
O88 O 0.57774 0.50429 0.74173 0.0
C89 C 0.55128 0.47581 0.74156 0.0
C90 C 0.55208 0.5554 0.71979 0.0
C91 C 0.55185 0.45199 0.73414 0.0
C92 C 0.55918 0.43567 0.71591 0.0
C93 C 0.55839 0.45862 0.72278 0.0
C94 C 0.54662 0.39921 0.73169 0.0
C95 C 0.55342 0.40569 0.7203 0.0
C96 C 0.54588 0.42215 0.73853 0.0
C97 C 0.54966 0.5559 0.76937 0.0
C98 C 0.55759 0.52958 0.78559 0.0
C99 C 0.54218 0.57038 0.78786 0.0
C100 C 0.54194 0.57418 0.77634 0.0
C101 C 0.55026 0.54822 0.79264 0.0
C102 C 0.55726 0.53336 0.77405 0.0
C103 C 0.55006 0.56099 0.75729 0.0
O104 O 0.57836 0.56038 0.7251 0.0
O105 O 0.5253 0.53395 0.72476 0.0
O106 O 0.5238 0.54034 0.75196 0.0
O107 O 0.57687 0.56727 0.75223 0.0
H108 H 0.55886 0.60642 0.73171 0.0
H109 H 0.55984 0.65528 0.72454 0.0
H110 H 0.54583 0.61814 0.69128 0.0
H111 H 0.54568 0.56983 0.69851 0.0
H112 H 0.5648 0.4416 0.70721 0.0
H113 H 0.56305 0.48158 0.71924 0.0
H114 H 0.54152 0.37623 0.73532 0.0
H115 H 0.54062 0.41657 0.74727 0.0
H116 H 0.56422 0.51253 0.78897 0.0
H117 H 0.53585 0.58472 0.79301 0.0
H118 H 0.53583 0.59156 0.77287 0.0
H119 H 0.56324 0.51898 0.76878 0.0
C120 C 0.5545 0.98181 0.65565 0.0
C121 C 0.55069 0.95757 0.64836 0.0
C122 C 0.55408 0.92579 0.66386 0.0
C123 C 0.55046 0.9298 0.65243 0.0
C124 C 0.55802 0.95032 0.6711 0.0
C125 C 0.55822 0.97803 0.66702 0.0
U126 U 0.55521 0.03598 0.63186 0.0
O127 O 0.52933 0.06307 0.62989 0.0
O128 O 0.58241 0.08903 0.63005 0.0
C129 C 0.55608 0.09132 0.62996 0.0
C130 C 0.55481 1.01114 0.65152 0.0
C131 C 0.55633 0.11546 0.63743 0.0
C132 C 0.54995 0.13221 0.6557 0.0
C133 C 0.55006 0.10897 0.6488 0.0
C134 C 0.56272 0.16869 0.63992 0.0
C135 C 0.55613 0.16234 0.65132 0.0
C136 C 0.56278 0.14547 0.63305 0.0
C137 C 0.55561 1.01079 0.6019 0.0
C138 C 0.54693 0.03675 0.58573 0.0
C139 C 0.56642 0.9991 0.58343 0.0
C140 C 0.56565 0.99436 0.59492 0.0
C141 C 0.55709 0.02035 0.57869 0.0
C142 C 0.54633 0.0321 0.59725 0.0
C143 C 0.5552 1.00543 0.61397 0.0
O144 O 0.58146 0.0324 0.64645 0.0
O145 O 0.52841 1.00636 0.64635 0.0
O146 O 0.52865 0.99961 0.61913 0.0
O147 O 0.58174 0.0256 0.61928 0.0
H148 H 0.54779 0.96012 0.63954 0.0
H149 H 0.54701 0.91128 0.64663 0.0
H150 H 0.56138 0.94832 0.67992 0.0
H151 H 0.56137 0.9966 0.67276 0.0
H152 H 0.54448 0.12638 0.66441 0.0
H153 H 0.54505 0.08588 0.65233 0.0
H154 H 0.56813 0.19178 0.63629 0.0
H155 H 0.56786 0.15095 0.62429 0.0
H156 H 0.53993 0.05353 0.58235 0.0
H157 H 0.57398 0.9858 0.57825 0.0
H158 H 0.57287 0.9778 0.59837 0.0
H159 H 0.53869 0.04517 0.60252 0.0
C160 C 0.60043 0.52163 0.9891 0.0
C161 C 0.62315 0.52184 0.98177 0.0
C162 C 0.65605 0.52165 0.99737 0.0
C163 C 0.65074 0.52187 0.98587 0.0
C164 C 0.63309 0.52142 1.00466 0.0
C165 C 0.60556 0.52141 1.00055 0.0
U166 U 0.54754 0.52188 0.9652 0.0
O167 O 0.49458 0.49568 0.96333 0.0
O168 O 0.52144 0.54873 0.96304 0.0
C169 C 0.4929 0.52233 0.96314 0.0
C170 C 0.57142 0.52176 0.98492 0.0
C171 C 0.4688 0.5225 0.97058 0.0
C172 C 0.44972 0.52402 0.98905 0.0
C173 C 0.4731 0.524 0.98213 0.0
C174 C 0.41759 0.521 0.97294 0.0
C175 C 0.42162 0.52244 0.98453 0.0
C176 C 0.44096 0.52103 0.96604 0.0
C177 C 0.57401 0.5216 0.93532 0.0
C178 C 0.55102 0.5334 0.91901 0.0
C179 C 0.58696 0.51174 0.9169 0.0
C180 C 0.59015 0.511 0.92842 0.0
C181 C 0.56759 0.52322 0.91203 0.0
C182 C 0.55416 0.53253 0.93056 0.0
C183 C 0.57857 0.52145 0.94741 0.0
O184 O 0.5768 0.54831 0.97964 0.0
O185 O 0.55006 0.49528 0.97992 0.0
O186 O 0.55766 0.49498 0.95272 0.0
O187 O 0.58479 0.54804 0.95252 0.0
H188 H 0.61951 0.52194 0.97288 0.0
H189 H 0.66769 0.52167 0.98002 0.0
H190 H 0.63661 0.5217 1.01356 0.0
H191 H 0.5883 0.52136 1.00633 0.0
H192 H 0.45344 0.52482 0.99794 0.0
H193 H 0.49446 0.52506 0.98578 0.0
H194 H 0.39653 0.52026 0.96916 0.0
H195 H 0.43731 0.51996 0.95714 0.0
H196 H 0.53617 0.54267 0.91557 0.0
H197 H 0.59958 0.50315 0.91181 0.0
H198 H 0.6054 0.50228 0.93196 0.0
H199 H 0.54141 0.54073 0.93577 0.0
C200 C 0.99848 0.486 0.3223 0.0
C201 C 0.97634 0.4629 0.31495 0.0
C202 C 0.94253 0.43081 0.33049 0.0
C203 C 0.94861 0.43553 0.31901 0.0
C204 C 0.96495 0.4541 0.33779 0.0
C205 C 0.99264 0.48142 0.33372 0.0
U206 U 0.05281 0.53807 0.29855 0.0
O207 O 0.07856 0.59095 0.29614 0.0
O208 O 0.10583 0.56519 0.2972 0.0
C209 C 0.10721 0.59338 0.29668 0.0
C210 C 1.0276 0.515 0.31817 0.0
C211 C 0.13062 0.61815 0.3042 0.0
C212 C 0.15316 0.636 0.32261 0.0
C213 C 0.13017 0.61226 0.31566 0.0
C214 C 0.17694 0.67182 0.30672 0.0
C215 C 0.17689 0.66607 0.31821 0.0
C216 C 0.15403 0.64807 0.29979 0.0
C217 C 1.02917 0.51007 0.26865 0.0
C218 C 0.05756 0.54362 0.25262 0.0
C219 C 1.01528 0.48803 0.25012 0.0
C220 C 1.01055 0.48425 0.26159 0.0
C221 C 0.03876 0.5178 0.24548 0.0
C222 C 0.05285 0.53976 0.26412 0.0
C223 C 1.02337 0.50564 0.28067 0.0
O224 O 0.04947 0.50983 0.31361 0.0
O225 O 1.02231 0.53568 0.31249 0.0
O226 O 1.01653 0.52612 0.28537 0.0
O227 O 0.04398 0.50055 0.28644 0.0
H228 H 0.98046 0.46613 0.30608 0.0
H229 H 0.93171 0.41831 0.31314 0.0
H230 H 0.96131 0.45104 0.34668 0.0
H231 H 1.00955 0.49898 0.33951 0.0
H232 H 0.1522 0.63092 0.33143 0.0
H233 H 0.11212 0.5893 0.31921 0.0
H234 H 0.19508 0.69449 0.30303 0.0
H235 H 0.15476 0.65299 0.29096 0.0
H236 H 0.07606 0.56674 0.24933 0.0
H237 H 1.0001 0.4678 0.24486 0.0
H238 H 0.99213 0.46117 0.26495 0.0
H239 H 0.06759 0.55993 0.26947 0.0
C240 C 0.04273 0.50925 0.14388 0.0
C241 C 0.04234 0.53505 0.13821 0.0
C242 C 0.04521 0.50916 0.15546 0.0
C243 C 0.03126 0.54504 0.18026 0.0
H244 H 0.08033 0.51098 0.19534 0.0
C245 C 0.04714 0.55015 0.22788 0.0
C246 C 0.04303 0.52192 0.23323 0.0
C247 C 0.0495 0.55331 0.21632 0.0
C248 C 0.06633 0.52036 0.19125 0.0
H249 H 0.04556 0.58159 0.14024 0.0
H250 H 0.05015 0.58158 0.16039 0.0
H251 H 0.08019 0.51377 0.1751 0.0
H252 H 0.03928 0.47536 0.23062 0.0
H253 H 0.04297 0.48069 0.21046 0.0
H254 H 1.01726 0.55148 0.19639 0.0
C255 C 0.04781 0.56104 0.15593 0.0
C256 C 0.06621 0.52192 0.17965 0.0
C257 C 0.04522 0.56108 0.14437 0.0
C258 C 0.04205 0.49725 0.22675 0.0
C259 C 0.04452 0.50046 0.2152 0.0
C260 C 0.03144 0.54355 0.19185 0.0
C261 C 0.04747 0.53492 0.16164 0.0
C262 C 0.04853 0.53414 0.174 0.0
C263 C 0.04794 0.52838 0.20983 0.0
C264 C 0.04883 0.53103 0.19749 0.0
H265 H 0.04017 0.48865 0.1394 0.0
H266 H 0.04444 0.48844 0.15957 0.0
H267 H 1.0169 0.55406 0.17621 0.0
H268 H 0.04776 0.56951 0.2326 0.0
H269 H 0.05248 0.57529 0.21245 0.0
C270 C 0.53281 0.02659 0.5608 0.0
C271 C 0.55817 0.0254 0.56644 0.0
C272 C 0.5336 0.03054 0.54925 0.0
C273 C 0.58973 0.05953 0.52541 0.0
H274 H 0.51273 1.00647 0.50802 0.0
C275 C 0.59495 0.05263 0.47792 0.0
C276 C 0.56974 0.05199 0.47158 0.0
C277 C 0.59273 0.04956 0.48947 0.0
C278 C 0.53434 0.02178 0.51275 0.0
H279 H 0.60457 0.02817 0.56437 0.0
H280 H 0.60582 0.03477 0.54426 0.0
H281 H 0.51046 1.00153 0.52822 0.0
H282 H 0.52232 0.04751 0.47245 0.0
H283 H 0.51847 0.04231 0.49264 0.0
H284 H 0.61366 0.07984 0.50999 0.0
C285 C 0.58536 0.03277 0.54876 0.0
C286 C 0.53304 1.01894 0.52434 0.0
C287 C 0.58448 0.02864 0.56028 0.0
C288 C 0.54202 0.04776 0.47707 0.0
C289 C 0.53983 0.04477 0.48865 0.0
C290 C 0.59102 0.06244 0.51384 0.0
C291 C 0.5599 0.03366 0.54309 0.0
C292 C 0.56081 0.03757 0.5308 0.0
C293 C 0.56527 0.04587 0.495 0.0
C294 C 0.56344 0.04339 0.50735 0.0
H295 H 0.51208 0.02392 0.5653 0.0
H296 H 0.51373 0.0314 0.54515 0.0
H297 H 0.61141 0.07467 0.53014 0.0
H298 H 0.61638 0.05524 0.47394 0.0
H299 H 0.61248 0.0498 0.49405 0.0
C300 C 0.59261 0.53474 0.89304 0.0
C301 C 0.5652 0.52506 0.89972 0.0
C302 C 0.59058 0.53666 0.8815 0.0
C303 C 0.53215 0.50844 0.8581 0.0
H304 H 0.60307 0.57946 0.84227 0.0
C305 C 0.54018 0.51459 0.81009 0.0
C306 C 0.5515 0.54502 0.80494 0.0
C307 C 0.54148 0.51177 0.82164 0.0
C308 C 0.58291 0.5596 0.84655 0.0
H309 H 0.51401 0.50948 0.89941 0.0
H310 H 0.51065 0.5136 0.8793 0.0
H311 H 0.60556 0.5757 0.86236 0.0
H312 H 0.57345 0.59642 0.80797 0.0
H313 H 0.57496 0.59143 0.82805 0.0
H314 H 0.50917 0.49282 0.84227 0.0
C315 C 0.53367 0.51931 0.88299 0.0
C316 C 0.58453 0.55721 0.85809 0.0
C317 C 0.53568 0.51734 0.89454 0.0
C318 C 0.56414 0.57254 0.81164 0.0
C319 C 0.5654 0.56972 0.82317 0.0
C320 C 0.53051 0.51087 0.84655 0.0
C321 C 0.56112 0.52907 0.87632 0.0
C322 C 0.55919 0.53159 0.86402 0.0
C323 C 0.55416 0.53932 0.82833 0.0
C324 C 0.55587 0.5365 0.84062 0.0
H325 H 0.61584 0.54127 0.89672 0.0
H326 H 0.61213 0.54387 0.87664 0.0
H327 H 0.51234 0.4882 0.86237 0.0
H328 H 0.53 0.49284 0.80521 0.0
H329 H 0.5329 0.48801 0.82532 0.0
C330 C 0.23606 0.54772 0.0483 0.0
C331 C 0.20294 0.52763 0.04602 0.0
C332 C 0.25956 0.54724 0.04162 0.0
C333 C 0.27134 0.49627 0.02159 0.0
H334 H 0.34951 0.57624 1.01405 0.0
C335 C 0.36348 0.50228 0.98951 0.0
C336 C 0.39659 0.52238 0.99183 0.0
C337 C 0.33992 0.50272 0.99618 0.0
C338 C 0.32801 0.55364 1.01619 0.0
H339 H 0.16865 0.49124 0.03486 0.0
H340 H 0.20966 0.4908 0.02307 0.0
H341 H 0.30824 0.57767 0.02536 0.0
H342 H 0.43077 0.55871 1.00302 0.0
H343 H 0.38967 0.55908 1.01477 0.0
H344 H 0.29112 0.47224 1.01242 0.0
C345 C 0.21745 0.5067 0.03012 0.0
C346 C 0.30431 0.55446 0.02267 0.0
C347 C 0.19392 0.50723 0.03681 0.0
C348 C 0.40552 0.54273 1.00105 0.0
C349 C 0.38194 0.54321 1.00771 0.0
C350 C 0.29505 0.49545 1.01511 0.0
C351 C 0.25057 0.52663 0.03247 0.0
C352 C 0.27567 0.52579 0.02546 0.0
C353 C 0.34884 0.52329 1.00534 0.0
C354 C 0.32369 0.52412 1.01232 0.0
H355 H 0.24389 0.56402 0.05525 0.0
H356 H 0.28481 0.56269 0.04373 0.0
H357 H 0.24984 0.47367 0.02374 0.0
H358 H 0.35571 0.48603 0.98256 0.0
H359 H 0.31469 0.48727 0.99405 0.0
C360 C 0.71815 0.18966 0.37489 0.0
C361 C 0.6879 0.17769 0.36965 0.0
C362 C 0.74553 0.21705 0.37068 0.0
C363 C 0.77794 0.2666 0.34505 0.0
H364 H 0.83985 0.33058 0.36516 0.0
C365 C 0.90194 0.3712 0.33022 0.0
C366 C 0.91299 0.40179 0.33486 0.0
C367 C 0.87442 0.34392 0.33442 0.0
C368 C 0.82269 0.31307 0.35942 0.0
H369 H 0.66273 0.18572 0.35596 0.0
H370 H 0.71043 0.23341 0.34862 0.0
H371 H 0.79181 0.28337 0.37259 0.0
H372 H 0.90316 0.42766 0.34742 0.0
H373 H 0.85525 0.38015 0.35474 0.0
H374 H 0.80854 0.29658 0.33187 0.0
C375 C 0.7131 0.22129 0.35589 0.0
C376 C 0.79532 0.28579 0.36369 0.0
C377 C 0.68573 0.19392 0.36011 0.0
C378 C 0.89569 0.40441 0.34377 0.0
C379 C 0.86819 0.37715 0.34797 0.0
C380 C 0.80535 0.29385 0.34078 0.0
C381 C 0.74337 0.23318 0.36111 0.0
C382 C 0.77257 0.26222 0.35656 0.0
C383 C 0.85723 0.34653 0.34337 0.0
C384 C 0.82807 0.31746 0.34791 0.0
H385 H 0.72083 0.1775 0.38215 0.0
H386 H 0.76854 0.22525 0.37481 0.0
H387 H 0.76111 0.24877 0.33932 0.0
H388 H 0.91492 0.36819 0.32346 0.0
H389 H 0.86695 0.32065 0.33078 0.0
C390 C 0.53803 0.88157 0.67827 0.0
C391 C 0.55377 0.89623 0.66824 0.0
C392 C 0.53802 0.85405 0.68246 0.0
C393 C 0.5498 0.78634 0.67417 0.0
H394 H 0.56167 0.77892 0.70574 0.0
C395 C 0.56928 0.68493 0.69289 0.0
C396 C 0.55341 0.67032 0.7029 0.0
C397 C 0.56946 0.71252 0.68868 0.0
C398 C 0.55796 0.78043 0.69692 0.0
H399 H 0.58213 0.89342 0.65483 0.0
H400 H 0.58205 0.8454 0.66212 0.0
H401 H 0.56165 0.82678 0.69834 0.0
H402 H 0.52499 0.67326 0.71626 0.0
H403 H 0.52538 0.72139 0.70894 0.0
H404 H 0.5461 0.73998 0.67275 0.0
C405 C 0.56933 0.85497 0.66668 0.0
C406 C 0.55795 0.80789 0.69267 0.0
C407 C 0.56936 0.88252 0.66249 0.0
C408 C 0.53786 0.68413 0.70862 0.0
C409 C 0.53807 0.71175 0.70441 0.0
C410 C 0.54981 0.75888 0.67842 0.0
C411 C 0.55372 0.84042 0.67673 0.0
C412 C 0.55384 0.8112 0.68124 0.0
C413 C 0.55382 0.72626 0.69437 0.0
C414 C 0.55388 0.75556 0.68985 0.0
H415 H 0.5253 0.89111 0.68283 0.0
H416 H 0.52529 0.84318 0.69013 0.0
H417 H 0.54607 0.78784 0.66535 0.0
H418 H 0.58198 0.6753 0.68836 0.0
H419 H 0.58229 0.72335 0.68102 0.0
C420 C 0.88219 0.50653 0.04167 0.0
C421 C 0.91244 0.52576 0.03658 0.0
C422 C 0.8545 0.50609 0.03748 0.0
C423 C 0.82812 0.55296 0.01977 0.0
H424 H 0.74735 0.47156 1.01824 0.0
C425 C 0.71575 0.54107 0.99674 0.0
C426 C 0.68543 0.52178 1.00178 0.0
C427 C 0.74338 0.54149 1.00097 0.0
C428 C 0.76961 0.49456 1.01872 0.0
H429 H 0.93726 0.56006 0.02317 0.0
H430 H 0.88896 0.55888 1.01576 0.0
H431 H 0.79553 0.47258 0.02573 0.0
H432 H 0.66043 0.48735 1.01514 0.0
H433 H 0.70865 0.48851 0.02262 0.0
H434 H 0.80221 0.57495 1.01277 0.0
C435 C 0.88666 0.5443 0.02305 0.0
C436 C 0.79726 0.49515 0.02302 0.0
C437 C 0.91431 0.54469 0.02723 0.0
C438 C 0.68343 0.50277 1.01112 0.0
C439 C 0.71105 0.50315 1.01534 0.0
C440 C 0.80048 0.55238 1.01548 0.0
C441 C 0.85637 0.52495 0.02811 0.0
C442 C 0.82687 0.52435 0.0236 0.0
C443 C 0.7414 0.52257 1.01033 0.0
C444 C 0.77086 0.52317 1.01489 0.0
H445 H 0.87979 0.49142 0.04882 0.0
H446 H 0.83165 0.49117 0.04166 0.0
H447 H 0.85038 0.57596 0.02025 0.0
H448 H 0.71825 0.55625 0.9896 0.0
H449 H 0.76629 0.55646 0.99683 0.0
C450 C 0.39229 0.85359 0.38076 0.0
C451 C 0.40186 0.88644 0.37922 0.0
C452 C 0.36821 0.82997 0.37409 0.0
C453 C 0.29917 0.81514 0.35599 0.0
H454 H 0.3076 0.74333 0.34562 0.0
C455 C 0.2113 0.72405 0.3239 0.0
C456 C 0.2018 0.69124 0.32551 0.0
C457 C 0.23542 0.74782 0.33052 0.0
C458 C 0.30467 0.76301 0.34856 0.0
H459 H 0.39351 0.92014 0.36943 0.0
H460 H 0.35187 0.87899 0.35767 0.0
H461 H 0.35059 0.78499 0.35681 0.0
H462 H 0.21029 0.65778 0.33539 0.0
H463 H 0.25199 0.69918 0.34705 0.0
H464 H 0.25325 0.79314 0.34773 0.0
C465 C 0.36279 0.87146 0.36412 0.0
C466 C 0.32935 0.78693 0.35497 0.0
C467 C 0.38694 0.8951 0.37077 0.0
C468 C 0.21681 0.68277 0.33398 0.0
C469 C 0.241 0.70656 0.34058 0.0
C470 C 0.27449 0.79121 0.34958 0.0
C471 C 0.35303 0.83857 0.36572 0.0
C472 C 0.32691 0.81329 0.35878 0.0
C473 C 0.25072 0.73941 0.3389 0.0
C474 C 0.27691 0.76482 0.34578 0.0
H475 H 0.40352 0.84609 0.3871 0.0
H476 H 0.36112 0.80488 0.37563 0.0
H477 H 0.29624 0.83481 0.35893 0.0
H478 H 0.20001 0.7314 0.31753 0.0
H479 H 0.24247 0.77289 0.32893 0.0
C480 C 0.56885 0.19245 0.66932 0.0
C481 C 0.5556 0.18705 0.65856 0.0
C482 C 0.56879 0.21607 0.67601 0.0
C483 C 0.56233 0.29024 0.67453 0.0
H484 H 0.54319 0.27322 0.7059 0.0
C485 C 0.5414 0.37574 0.7023 0.0
C486 C 0.55448 0.38122 0.71308 0.0
C487 C 0.54188 0.3523 0.69563 0.0
C488 C 0.54896 0.27852 0.69718 0.0
H489 H 0.53109 0.20181 0.64656 0.0
H490 H 0.53102 0.24292 0.65819 0.0
H491 H 0.54326 0.23179 0.6944 0.0
H492 H 0.57912 0.36681 0.72515 0.0
H493 H 0.57989 0.32599 0.71355 0.0
H494 H 0.56799 0.33696 0.67731 0.0
C495 C 0.54201 0.22931 0.66139 0.0
C496 C 0.549 0.25475 0.69058 0.0
C497 C 0.54206 0.2057 0.65471 0.0
C498 C 0.56829 0.36285 0.71697 0.0
C499 C 0.56874 0.33941 0.71031 0.0
C500 C 0.56228 0.31402 0.68113 0.0
C501 C 0.55547 0.23489 0.67211 0.0
C502 C 0.55564 0.26028 0.67917 0.0
C503 C 0.55544 0.33374 0.69957 0.0
C504 C 0.55558 0.30846 0.69254 0.0
H505 H 0.57988 0.17886 0.6725 0.0
H506 H 0.57973 0.22 0.68416 0.0
H507 H 0.56807 0.29554 0.66581 0.0
H508 H 0.53018 0.3891 0.69908 0.0
H509 H 0.53104 0.34828 0.68745 0.0
loop_
_geom_bond_atom_site_label_1
_geom_bond_atom_site_label_2
_geom_bond_distance
_geom_bond_site_symmetry_2
_ccdc_geom_bond_type
C0 C1 1.264 . S
C0 C5 1.479 . S
C0 C10 1.465 . S
C1 C0 1.264 . S
C1 C3 1.339 . S
C1 H28 0.931 . S
C2 C3 1.395 . S
C2 C4 1.320 . S
C3 C1 1.339 . S
C3 C2 1.395 . S
C3 H29 0.929 . S
C4 C2 1.320 . S
C4 C5 1.405 . S
C4 H30 0.930 . S
C5 C0 1.479 . S
C5 C4 1.405 . S
C5 H31 0.931 . S
U6 O7 2.454 . S
U6 O8 2.458 . S
U6 C9 2.984 . S
U6 C10 2.847 1_455 S
U6 C23 2.882 . S
U6 O24 2.441 1_455 S
U6 O25 2.420 1_455 S
U6 O26 2.455 . S
U6 O27 2.449 1_455 S
O7 U6 2.454 . S
O7 C9 1.353 . S
O8 U6 2.458 . S
O8 C9 1.286 . S
C9 U6 2.984 . S
C9 O7 1.353 . S
C9 O8 1.286 . S
C9 C11 1.363 . S
C10 C0 1.465 . S
C10 U6 2.847 1_655 S
C10 O24 1.249 . S
C10 O25 1.202 . S
C11 C9 1.363 . S
C11 C13 1.408 . S
C11 C16 1.342 . S
C12 C13 1.310 . S
C12 C15 1.461 . S
C12 H32 0.932 . S
C13 C11 1.408 . S
C13 C12 1.310 . S
C13 H33 0.930 . S
C14 C15 1.474 . S
C14 C16 1.285 . S
C14 H34 0.929 . S
C15 C12 1.461 . S
C15 C14 1.474 . S
C16 C11 1.342 . S
C16 C14 1.285 . S
C16 H35 0.930 . S
C17 C20 1.424 1_455 S
C17 C22 1.245 . S
C17 C23 1.428 . S
C18 C21 1.260 . S
C18 C22 1.477 . S
C18 H36 0.932 . S
C19 C20 1.384 . S
C19 C21 1.479 1_655 S
C19 H37 0.929 . S
C20 C17 1.424 1_655 S
C20 C19 1.384 . S
C20 H38 0.928 . S
C21 C18 1.260 . S
C21 C19 1.479 1_455 S
C22 C17 1.245 . S
C22 C18 1.477 . S
C22 H39 0.932 . S
C23 U6 2.882 . S
C23 C17 1.428 . S
C23 O26 1.301 . S
C23 O27 1.282 1_455 S
O24 U6 2.441 1_655 S
O24 C10 1.249 . S
O25 U6 2.420 1_655 S
O25 C10 1.202 . S
O26 U6 2.455 . S
O26 C23 1.301 . S
O27 U6 2.449 1_655 S
O27 C23 1.282 1_655 S
H28 C1 0.931 . S
H29 C3 0.929 . S
H30 C4 0.930 . S
H31 C5 0.931 . S
H32 C12 0.932 . S
H33 C13 0.930 . S
H34 C14 0.929 . S
H35 C16 0.930 . S
H36 C18 0.932 . S
H37 C19 0.929 . S
H38 C20 0.928 . S
H39 C22 0.932 . S
C40 C41 1.264 . S
C40 C45 1.479 . S
C40 C50 1.465 . S
C41 C40 1.264 . S
C41 C43 1.339 . S
C41 H68 0.931 . S
C42 C43 1.395 . S
C42 C44 1.320 . S
C43 C41 1.339 . S
C43 C42 1.395 . S
C43 H69 0.929 . S
C44 C42 1.320 . S
C44 C45 1.405 . S
C44 H70 0.930 . S
C45 C40 1.479 . S
C45 C44 1.405 . S
C45 H71 0.931 . S
U46 O47 2.454 1_545 S
U46 O48 2.458 1_545 S
U46 C49 2.984 1_545 S
U46 C50 2.847 . S
U46 C63 2.882 . S
U46 O64 2.441 . S
U46 O65 2.420 . S
U46 O66 2.455 . S
U46 O67 2.449 . S
O47 U46 2.454 1_565 S
O47 C49 1.353 . S
O48 U46 2.458 1_565 S
O48 C49 1.286 . S
C49 U46 2.984 1_565 S
C49 O47 1.353 . S
C49 O48 1.286 . S
C49 C51 1.363 . S
C50 C40 1.465 . S
C50 U46 2.847 . S
C50 O64 1.249 . S
C50 O65 1.202 . S
C51 C49 1.363 . S
C51 C53 1.408 . S
C51 C56 1.342 . S
C52 C53 1.310 . S
C52 C55 1.461 . S
C52 H72 0.932 . S
C53 C51 1.408 . S
C53 C52 1.310 . S
C53 H73 0.930 . S
C54 C55 1.474 . S
C54 C56 1.285 . S
C54 H74 0.929 . S
C55 C52 1.461 . S
C55 C54 1.474 . S
C56 C51 1.342 . S
C56 C54 1.285 . S
C56 H75 0.930 . S
C57 C60 1.424 . S
C57 C62 1.263 . S
C57 C63 1.428 . S
C58 C61 1.260 . S
C58 C62 1.477 . S
C58 H76 0.932 1_545 S
C59 C60 1.384 . S
C59 C61 1.479 . S
C59 H77 0.929 . S
C60 C57 1.424 . S
C60 C59 1.384 . S
C60 H78 0.928 . S
C61 C58 1.260 . S
C61 C59 1.479 . S
C62 C57 1.263 . S
C62 C58 1.477 . S
C62 H79 0.916 1_545 S
C63 U46 2.882 . S
C63 C57 1.428 . S
C63 O66 1.301 . S
C63 O67 1.282 . S
O64 U46 2.441 . S
O64 C50 1.249 . S
O65 U46 2.420 . S
O65 C50 1.202 . S
O66 U46 2.455 . S
O66 C63 1.301 . S
O67 U46 2.449 . S
O67 C63 1.282 . S
H68 C41 0.931 . S
H69 C43 0.929 . S
H70 C44 0.930 . S
H71 C45 0.931 . S
H72 C52 0.932 . S
H73 C53 0.930 . S
H74 C54 0.929 . S
H75 C56 0.930 . S
H76 C58 0.932 1_565 S
H77 C59 0.929 . S
H78 C60 0.928 . S
H79 C62 0.916 1_565 S
C80 C81 1.264 . S
C80 C85 1.479 . S
C80 C90 1.465 . S
C81 C80 1.264 . S
C81 C83 1.339 . S
C81 H108 0.931 . S
C82 C83 1.395 . S
C82 C84 1.320 . S
C83 C81 1.339 . S
C83 C82 1.395 . S
C83 H109 0.929 . S
C84 C82 1.320 . S
C84 C85 1.405 . S
C84 H110 0.930 . S
C85 C80 1.479 . S
C85 C84 1.405 . S
C85 H111 0.931 . S
U86 O87 2.454 . S
U86 O88 2.458 . S
U86 C89 2.984 . S
U86 C90 2.847 . S
U86 C103 2.882 . S
U86 O104 2.441 . S
U86 O105 2.420 . S
U86 O106 2.455 . S
U86 O107 2.449 . S
O87 U86 2.454 . S
O87 C89 1.353 . S
O88 U86 2.458 . S
O88 C89 1.286 . S
C89 U86 2.984 . S
C89 O87 1.353 . S
C89 O88 1.286 . S
C89 C91 1.363 . S
C90 C80 1.465 . S
C90 U86 2.847 . S
C90 O104 1.249 . S
C90 O105 1.202 . S
C91 C89 1.363 . S
C91 C93 1.408 . S
C91 C96 1.342 . S
C92 C93 1.310 . S
C92 C95 1.461 . S
C92 H112 0.932 . S
C93 C91 1.408 . S
C93 C92 1.310 . S
C93 H113 0.930 . S
C94 C95 1.474 . S
C94 C96 1.285 . S
C94 H114 0.929 . S
C95 C92 1.461 . S
C95 C94 1.474 . S
C96 C91 1.342 . S
C96 C94 1.285 . S
C96 H115 0.930 . S
C97 C100 1.424 . S
C97 C102 1.245 . S
C97 C103 1.428 . S
C98 C101 1.260 . S
C98 C102 1.477 . S
C98 H116 0.932 . S
C99 C100 1.384 . S
C99 C101 1.479 . S
C99 H117 0.929 . S
C100 C97 1.424 . S
C100 C99 1.384 . S
C100 H118 0.928 . S
C101 C98 1.260 . S
C101 C99 1.479 . S
C102 C97 1.245 . S
C102 C98 1.477 . S
C102 H119 0.932 . S
C103 U86 2.882 . S
C103 C97 1.428 . S
C103 O106 1.301 . S
C103 O107 1.282 . S
O104 U86 2.441 . S
O104 C90 1.249 . S
O105 U86 2.420 . S
O105 C90 1.202 . S
O106 U86 2.455 . S
O106 C103 1.301 . S
O107 U86 2.449 . S
O107 C103 1.282 . S
H108 C81 0.931 . S
H109 C83 0.929 . S
H110 C84 0.930 . S
H111 C85 0.931 . S
H112 C92 0.932 . S
H113 C93 0.930 . S
H114 C94 0.929 . S
H115 C96 0.930 . S
H116 C98 0.932 . S
H117 C99 0.929 . S
H118 C100 0.928 . S
H119 C102 0.932 . S
C120 C121 1.264 . S
C120 C125 1.479 . S
C120 C130 1.465 . S
C121 C120 1.264 . S
C121 C123 1.339 . S
C121 H148 0.931 . S
C122 C123 1.395 . S
C122 C124 1.320 . S
C123 C121 1.339 . S
C123 C122 1.395 . S
C123 H149 0.929 . S
C124 C122 1.320 . S
C124 C125 1.405 . S
C124 H150 0.930 . S
C125 C120 1.479 . S
C125 C124 1.405 . S
C125 H151 0.931 . S
U126 O127 2.454 . S
U126 O128 2.458 . S
U126 C129 2.984 . S
U126 C130 2.847 1_545 S
U126 C143 2.882 . S
U126 O144 2.441 1_545 S
U126 O145 2.420 1_545 S
U126 O146 2.455 . S
U126 O147 2.449 1_545 S
O127 U126 2.454 . S
O127 C129 1.353 . S
O128 U126 2.458 . S
O128 C129 1.286 . S
C129 U126 2.984 . S
C129 O127 1.353 . S
C129 O128 1.286 . S
C129 C131 1.363 . S
C130 C120 1.465 . S
C130 U126 2.847 1_565 S
C130 O144 1.249 . S
C130 O145 1.202 . S
C131 C129 1.363 . S
C131 C133 1.408 . S
C131 C136 1.342 . S
C132 C133 1.310 . S
C132 C135 1.461 . S
C132 H152 0.932 . S
C133 C131 1.408 . S
C133 C132 1.310 . S
C133 H153 0.930 . S
C134 C135 1.474 . S
C134 C136 1.285 . S
C134 H154 0.929 . S
C135 C132 1.461 . S
C135 C134 1.474 . S
C136 C131 1.342 . S
C136 C134 1.285 . S
C136 H155 0.930 . S
C137 C140 1.424 1_545 S
C137 C142 1.245 . S
C137 C143 1.428 . S
C138 C141 1.260 . S
C138 C142 1.477 . S
C138 H156 0.932 . S
C139 C140 1.384 . S
C139 C141 1.479 1_565 S
C139 H157 0.929 . S
C140 C137 1.424 1_565 S
C140 C139 1.384 . S
C140 H158 0.928 . S
C141 C138 1.260 . S
C141 C139 1.479 1_545 S
C142 C137 1.245 . S
C142 C138 1.477 . S
C142 H159 0.932 . S
C143 U126 2.882 . S
C143 C137 1.428 . S
C143 O146 1.301 . S
C143 O147 1.282 1_545 S
O144 U126 2.441 1_565 S
O144 C130 1.249 . S
O145 U126 2.420 1_565 S
O145 C130 1.202 . S
O146 U126 2.455 . S
O146 C143 1.301 . S
O147 U126 2.449 1_565 S
O147 C143 1.282 1_565 S
H148 C121 0.931 . S
H149 C123 0.929 . S
H150 C124 0.930 . S
H151 C125 0.931 . S
H152 C132 0.932 . S
H153 C133 0.930 . S
H154 C134 0.929 . S
H155 C136 0.930 . S
H156 C138 0.932 . S
H157 C139 0.929 . S
H158 C140 0.928 . S
H159 C142 0.932 . S
C160 C161 1.264 . S
C160 C165 1.479 . S
C160 C170 1.465 . S
C161 C160 1.264 . S
C161 C163 1.339 . S
C161 H188 0.931 . S
C162 C163 1.395 . S
C162 C164 1.320 . S
C163 C161 1.339 . S
C163 C162 1.395 . S
C163 H189 0.929 . S
C164 C162 1.320 . S
C164 C165 1.405 . S
C164 H190 0.930 . S
C165 C160 1.479 . S
C165 C164 1.405 . S
C165 H191 0.931 . S
U166 O167 2.454 . S
U166 O168 2.458 . S
U166 C169 2.984 . S
U166 C170 2.847 . S
U166 C183 2.882 . S
U166 O184 2.441 . S
U166 O185 2.420 . S
U166 O186 2.455 . S
U166 O187 2.449 . S
O167 U166 2.454 . S
O167 C169 1.353 . S
O168 U166 2.458 . S
O168 C169 1.286 . S
C169 U166 2.984 . S
C169 O167 1.353 . S
C169 O168 1.286 . S
C169 C171 1.363 . S
C170 C160 1.465 . S
C170 U166 2.847 . S
C170 O184 1.249 . S
C170 O185 1.202 . S
C171 C169 1.363 . S
C171 C173 1.408 . S
C171 C176 1.342 . S
C172 C173 1.310 . S
C172 C175 1.461 . S
C172 H192 0.932 . S
C173 C171 1.408 . S
C173 C172 1.310 . S
C173 H193 0.930 . S
C174 C175 1.474 . S
C174 C176 1.285 . S
C174 H194 0.929 . S
C175 C172 1.461 . S
C175 C174 1.474 . S
C176 C171 1.342 . S
C176 C174 1.285 . S
C176 H195 0.930 . S
C177 C180 1.424 . S
C177 C182 1.245 . S
C177 C183 1.428 . S
C178 C181 1.260 . S
C178 C182 1.477 . S
C178 H196 0.932 . S
C179 C180 1.384 . S
C179 C181 1.479 . S
C179 H197 0.929 . S
C180 C177 1.424 . S
C180 C179 1.384 . S
C180 H198 0.928 . S
C181 C178 1.260 . S
C181 C179 1.479 . S
C182 C177 1.245 . S
C182 C178 1.477 . S
C182 H199 0.932 . S
C183 U166 2.882 . S
C183 C177 1.428 . S
C183 O186 1.301 . S
C183 O187 1.282 . S
O184 U166 2.441 . S
O184 C170 1.249 . S
O185 U166 2.420 . S
O185 C170 1.202 . S
O186 U166 2.455 . S
O186 C183 1.301 . S
O187 U166 2.449 . S
O187 C183 1.282 . S
H188 C161 0.931 . S
H189 C163 0.929 . S
H190 C164 0.930 . S
H191 C165 0.931 . S
H192 C172 0.932 . S
H193 C173 0.930 . S
H194 C174 0.929 . S
H195 C176 0.930 . S
H196 C178 0.932 . S
H197 C179 0.929 . S
H198 C180 0.928 . S
H199 C182 0.932 . S
C200 C201 1.264 . S
C200 C205 1.479 . S
C200 C210 1.465 . S
C201 C200 1.264 . S
C201 C203 1.339 . S
C201 H228 0.931 . S
C202 C203 1.395 . S
C202 C204 1.320 . S
C203 C201 1.339 . S
C203 C202 1.395 . S
C203 H229 0.929 . S
C204 C202 1.320 . S
C204 C205 1.405 . S
C204 H230 0.930 . S
C205 C200 1.479 . S
C205 C204 1.405 . S
C205 H231 0.931 . S
U206 O207 2.454 . S
U206 O208 2.458 . S
U206 C209 2.984 . S
U206 C210 2.847 1_455 S
U206 C223 2.882 . S
U206 O224 2.441 1_455 S
U206 O225 2.420 1_455 S
U206 O226 2.455 . S
U206 O227 2.449 1_455 S
O207 U206 2.454 . S
O207 C209 1.353 . S
O208 U206 2.458 . S
O208 C209 1.286 . S
C209 U206 2.984 . S
C209 O207 1.353 . S
C209 O208 1.286 . S
C209 C211 1.363 . S
C210 C200 1.465 . S
C210 U206 2.847 1_655 S
C210 O224 1.249 . S
C210 O225 1.202 . S
C211 C209 1.363 . S
C211 C213 1.408 . S
C211 C216 1.342 . S
C212 C213 1.310 . S
C212 C215 1.461 . S
C212 H232 0.932 . S
C213 C211 1.408 . S
C213 C212 1.310 . S
C213 H233 0.930 . S
C214 C215 1.474 . S
C214 C216 1.285 . S
C214 H234 0.929 . S
C215 C212 1.461 . S
C215 C214 1.474 . S
C216 C211 1.342 . S
C216 C214 1.285 . S
C216 H235 0.930 . S
C217 C220 1.424 1_455 S
C217 C222 1.245 . S
C217 C223 1.428 . S
C218 C221 1.260 . S
C218 C222 1.477 . S
C218 H236 0.932 . S
C219 C220 1.384 . S
C219 C221 1.479 1_655 S
C219 H237 0.929 . S
C220 C217 1.424 1_655 S
C220 C219 1.384 . S
C220 H238 0.928 . S
C221 C218 1.260 . S
C221 C219 1.479 1_455 S
C222 C217 1.245 . S
C222 C218 1.477 . S
C222 H239 0.932 . S
C223 U206 2.882 . S
C223 C217 1.428 . S
C223 O226 1.301 . S
C223 O227 1.282 1_455 S
O224 U206 2.441 1_655 S
O224 C210 1.249 . S
O225 U206 2.420 1_655 S
O225 C210 1.202 . S
O226 U206 2.455 . S
O226 C223 1.301 . S
O227 U206 2.449 1_655 S
O227 C223 1.282 1_655 S
H228 C201 0.931 . S
H229 C203 0.929 . S
H230 C204 0.930 . S
H231 C205 0.931 . S
H232 C212 0.932 . S
H233 C213 0.930 . S
H234 C214 0.929 . S
H235 C216 0.930 . S
H236 C218 0.932 . S
H237 C219 0.929 . S
H238 C220 0.928 . S
H239 C222 0.932 . S
C240 C241 1.349 . S
C240 C242 1.327 . S
C240 H265 0.950 . S
C241 C240 1.349 . S
C241 C257 1.349 . S
C242 C240 1.327 . S
C242 C261 1.429 . S
C242 H266 0.950 . S
C243 C260 1.574 . S
C243 C262 1.368 . S
C243 H267 0.949 . S
H244 C248 0.949 . S
C245 C246 1.349 . S
C245 C247 1.327 . S
C245 H268 0.950 . S
C246 C245 1.349 . S
C246 C258 1.349 . S
C247 C245 1.327 . S
C247 C263 1.429 . S
C247 H269 0.950 . S
C248 H244 0.949 . S
C248 C256 1.574 . S
C248 C264 1.368 . S
H249 C257 0.950 . S
H250 C255 0.950 . S
H251 C256 0.949 . S
H252 C258 0.950 . S
H253 C259 0.950 . S
H254 C260 0.949 . S
C255 H250 0.950 . S
C255 C257 1.327 . S
C255 C261 1.429 . S
C256 C248 1.574 . S
C256 H251 0.949 . S
C256 C262 1.368 . S
C257 C241 1.349 . S
C257 H249 0.950 . S
C257 C255 1.327 . S
C258 C246 1.349 . S
C258 H252 0.950 . S
C258 C259 1.327 . S
C259 H253 0.950 . S
C259 C258 1.327 . S
C259 C263 1.429 . S
C260 C243 1.574 . S
C260 H254 0.949 . S
C260 C264 1.368 . S
C261 C242 1.429 . S
C261 C255 1.429 . S
C261 C262 1.523 . S
C262 C243 1.368 . S
C262 C256 1.368 . S
C262 C261 1.523 . S
C263 C247 1.429 . S
C263 C259 1.429 . S
C263 C264 1.523 . S
C264 C248 1.368 . S
C264 C260 1.368 . S
C264 C263 1.523 . S
H265 C240 0.950 . S
H266 C242 0.950 . S
H267 C243 0.949 . S
H268 C245 0.950 . S
H269 C247 0.950 . S
C270 C271 1.349 . S
C270 C272 1.327 . S
C270 H295 0.950 . S
C271 C270 1.349 . S
C271 C287 1.349 . S
C272 C270 1.327 . S
C272 C291 1.429 . S
C272 H296 0.950 . S
C273 C290 1.574 . S
C273 C292 1.368 . S
C273 H297 0.949 . S
H274 C278 0.949 . S
C275 C276 1.349 . S
C275 C277 1.327 . S
C275 H298 0.950 . S
C276 C275 1.349 . S
C276 C288 1.349 . S
C277 C275 1.327 . S
C277 C293 1.429 . S
C277 H299 0.950 . S
C278 H274 0.949 . S
C278 C286 1.574 . S
C278 C294 1.368 . S
H279 C287 0.950 . S
H280 C285 0.950 . S
H281 C286 0.949 . S
H282 C288 0.950 . S
H283 C289 0.950 . S
H284 C290 0.949 . S
C285 H280 0.950 . S
C285 C287 1.327 . S
C285 C291 1.429 . S
C286 C278 1.574 . S
C286 H281 0.949 . S
C286 C292 1.368 . S
C287 C271 1.349 . S
C287 H279 0.950 . S
C287 C285 1.327 . S
C288 C276 1.349 . S
C288 H282 0.950 . S
C288 C289 1.327 . S
C289 H283 0.950 . S
C289 C288 1.327 . S
C289 C293 1.429 . S
C290 C273 1.574 . S
C290 H284 0.949 . S
C290 C294 1.368 . S
C291 C272 1.429 . S
C291 C285 1.429 . S
C291 C292 1.523 . S
C292 C273 1.368 . S
C292 C286 1.368 . S
C292 C291 1.523 . S
C293 C277 1.429 . S
C293 C289 1.429 . S
C293 C294 1.523 . S
C294 C278 1.368 . S
C294 C290 1.368 . S
C294 C293 1.523 . S
H295 C270 0.950 . S
H296 C272 0.950 . S
H297 C273 0.949 . S
H298 C275 0.950 . S
H299 C277 0.950 . S
C300 C301 1.349 . S
C300 C302 1.327 . S
C300 H325 0.950 . S
C301 C300 1.349 . S
C301 C317 1.349 . S
C302 C300 1.327 . S
C302 C321 1.429 . S
C302 H326 0.950 . S
C303 C320 1.574 . S
C303 C322 1.368 . S
C303 H327 0.949 . S
H304 C308 0.949 . S
C305 C306 1.349 . S
C305 C307 1.327 . S
C305 H328 0.950 . S
C306 C305 1.349 . S
C306 C318 1.349 . S
C307 C305 1.327 . S
C307 C323 1.429 . S
C307 H329 0.950 . S
C308 H304 0.949 . S
C308 C316 1.574 . S
C308 C324 1.368 . S
H309 C317 0.950 . S
H310 C315 0.950 . S
H311 C316 0.949 . S
H312 C318 0.950 . S
H313 C319 0.950 . S
H314 C320 0.949 . S
C315 H310 0.950 . S
C315 C317 1.327 . S
C315 C321 1.429 . S
C316 C308 1.574 . S
C316 H311 0.949 . S
C316 C322 1.368 . S
C317 C301 1.349 . S
C317 H309 0.950 . S
C317 C315 1.327 . S
C318 C306 1.349 . S
C318 H312 0.950 . S
C318 C319 1.327 . S
C319 H313 0.950 . S
C319 C318 1.327 . S
C319 C323 1.429 . S
C320 C303 1.574 . S
C320 H314 0.949 . S
C320 C324 1.368 . S
C321 C302 1.429 . S
C321 C315 1.429 . S
C321 C322 1.523 . S
C322 C303 1.368 . S
C322 C316 1.368 . S
C322 C321 1.523 . S
C323 C307 1.429 . S
C323 C319 1.429 . S
C323 C324 1.523 . S
C324 C308 1.368 . S
C324 C320 1.368 . S
C324 C323 1.523 . S
H325 C300 0.950 . S
H326 C302 0.950 . S
H327 C303 0.949 . S
H328 C305 0.950 . S
H329 C307 0.950 . S
C330 C331 1.349 . S
C330 C332 1.327 . S
C330 H355 0.950 . S
C331 C330 1.349 . S
C331 C347 1.349 . S
C332 C330 1.327 . S
C332 C351 1.429 . S
C332 H356 0.950 . S
C333 C350 1.574 . S
C333 C352 1.368 1_556 S
C333 H357 0.949 . S
H334 C338 0.949 . S
C335 C336 1.349 . S
C335 C337 1.327 . S
C335 H358 0.950 . S
C336 C335 1.349 . S
C336 C348 1.349 . S
C337 C335 1.327 . S
C337 C353 1.429 . S
C337 H359 0.950 . S
C338 H334 0.949 . S
C338 C346 1.574 . S
C338 C354 1.368 1_554 S
H339 C347 0.950 . S
H340 C345 0.950 . S
H341 C346 0.949 . S
H342 C348 0.950 . S
H343 C349 0.950 . S
H344 C350 0.949 . S
C345 H340 0.950 . S
C345 C347 1.327 . S
C345 C351 1.429 . S
C346 C338 1.574 . S
C346 H341 0.949 . S
C346 C352 1.368 . S
C347 C331 1.349 . S
C347 H339 0.950 . S
C347 C345 1.327 . S
C348 C336 1.349 . S
C348 H342 0.950 . S
C348 C349 1.327 . S
C349 H343 0.950 . S
C349 C348 1.327 . S
C349 C353 1.429 . S
C350 C333 1.574 . S
C350 H344 0.949 . S
C350 C354 1.368 . S
C351 C332 1.429 . S
C351 C345 1.429 . S
C351 C352 1.523 . S
C352 C333 1.368 1_554 S
C352 C346 1.368 . S
C352 C351 1.523 . S
C353 C337 1.429 . S
C353 C349 1.429 . S
C353 C354 1.523 . S
C354 C338 1.368 1_556 S
C354 C350 1.368 . S
C354 C353 1.523 . S
H355 C330 0.950 . S
H356 C332 0.950 . S
H357 C333 0.949 . S
H358 C335 0.950 . S
H359 C337 0.950 . S
C360 C361 1.349 . S
C360 C362 1.327 . S
C360 H385 0.950 . S
C361 C360 1.349 . S
C361 C377 1.349 . S
C362 C360 1.327 . S
C362 C381 1.429 . S
C362 H386 0.950 . S
C363 C380 1.574 . S
C363 C382 1.368 . S
C363 H387 0.949 . S
H364 C368 0.949 . S
C365 C366 1.349 . S
C365 C367 1.327 . S
C365 H388 0.950 . S
C366 C365 1.349 . S
C366 C378 1.349 . S
C367 C365 1.327 . S
C367 C383 1.429 . S
C367 H389 0.950 . S
C368 H364 0.949 . S
C368 C376 1.574 . S
C368 C384 1.368 . S
H369 C377 0.950 . S
H370 C375 0.950 . S
H371 C376 0.949 . S
H372 C378 0.950 . S
H373 C379 0.950 . S
H374 C380 0.949 . S
C375 H370 0.950 . S
C375 C377 1.327 . S
C375 C381 1.429 . S
C376 C368 1.574 . S
C376 H371 0.949 . S
C376 C382 1.368 . S
C377 C361 1.349 . S
C377 H369 0.950 . S
C377 C375 1.327 . S
C378 C366 1.349 . S
C378 H372 0.950 . S
C378 C379 1.327 . S
C379 H373 0.950 . S
C379 C378 1.327 . S
C379 C383 1.429 . S
C380 C363 1.574 . S
C380 H374 0.949 . S
C380 C384 1.368 . S
C381 C362 1.429 . S
C381 C375 1.429 . S
C381 C382 1.523 . S
C382 C363 1.368 . S
C382 C376 1.368 . S
C382 C381 1.523 . S
C383 C367 1.429 . S
C383 C379 1.429 . S
C383 C384 1.523 . S
C384 C368 1.368 . S
C384 C380 1.368 . S
C384 C383 1.523 . S
H385 C360 0.950 . S
H386 C362 0.950 . S
H387 C363 0.949 . S
H388 C365 0.950 . S
H389 C367 0.950 . S
C390 C391 1.349 . S
C390 C392 1.327 . S
C390 H415 0.950 . S
C391 C390 1.349 . S
C391 C407 1.349 . S
C392 C390 1.327 . S
C392 C411 1.429 . S
C392 H416 0.950 . S
C393 C410 1.574 . S
C393 C412 1.368 . S
C393 H417 0.949 . S
H394 C398 0.949 . S
C395 C396 1.349 . S
C395 C397 1.327 . S
C395 H418 0.950 . S
C396 C395 1.349 . S
C396 C408 1.349 . S
C397 C395 1.327 . S
C397 C413 1.429 . S
C397 H419 0.950 . S
C398 H394 0.949 . S
C398 C406 1.574 . S
C398 C414 1.368 . S
H399 C407 0.950 . S
H400 C405 0.950 . S
H401 C406 0.949 . S
H402 C408 0.950 . S
H403 C409 0.950 . S
H404 C410 0.949 . S
C405 H400 0.950 . S
C405 C407 1.327 . S
C405 C411 1.429 . S
C406 C398 1.574 . S
C406 H401 0.949 . S
C406 C412 1.368 . S
C407 C391 1.349 . S
C407 H399 0.950 . S
C407 C405 1.327 . S
C408 C396 1.349 . S
C408 H402 0.950 . S
C408 C409 1.327 . S
C409 H403 0.950 . S
C409 C408 1.327 . S
C409 C413 1.429 . S
C410 C393 1.574 . S
C410 H404 0.949 . S
C410 C414 1.368 . S
C411 C392 1.429 . S
C411 C405 1.429 . S
C411 C412 1.523 . S
C412 C393 1.368 . S
C412 C406 1.368 . S
C412 C411 1.523 . S
C413 C397 1.429 . S
C413 C409 1.429 . S
C413 C414 1.523 . S
C414 C398 1.368 . S
C414 C410 1.368 . S
C414 C413 1.523 . S
H415 C390 0.950 . S
H416 C392 0.950 . S
H417 C393 0.949 . S
H418 C395 0.950 . S
H419 C397 0.950 . S
C420 C421 1.349 . S
C420 C422 1.327 . S
C420 H445 0.950 . S
C421 C420 1.349 . S
C421 C437 1.349 . S
C422 C420 1.327 . S
C422 C441 1.429 . S
C422 H446 0.950 . S
C423 C440 1.574 . S
C423 C442 1.368 1_556 S
C423 H447 0.949 . S
H424 C428 0.949 . S
C425 C426 1.349 . S
C425 C427 1.327 . S
C425 H448 0.950 . S
C426 C425 1.349 . S
C426 C438 1.349 . S
C427 C425 1.327 . S
C427 C443 1.429 . S
C427 H449 0.950 . S
C428 H424 0.949 . S
C428 C436 1.574 . S
C428 C444 1.368 1_554 S
H429 C437 0.950 . S
H430 C435 0.950 . S
H431 C436 0.949 . S
H432 C438 0.950 . S
H433 C439 0.950 . S
H434 C440 0.949 . S
C435 H430 0.950 . S
C435 C437 1.327 . S
C435 C441 1.429 . S
C436 C428 1.574 . S
C436 H431 0.949 . S
C436 C442 1.368 . S
C437 C421 1.349 . S
C437 H429 0.950 . S
C437 C435 1.327 . S
C438 C426 1.349 . S
C438 H432 0.950 . S
C438 C439 1.327 . S
C439 H433 0.950 . S
C439 C438 1.327 . S
C439 C443 1.429 . S
C440 C423 1.574 . S
C440 H434 0.949 . S
C440 C444 1.368 . S
C441 C422 1.429 . S
C441 C435 1.429 . S
C441 C442 1.523 . S
C442 C423 1.368 1_554 S
C442 C436 1.368 . S
C442 C441 1.523 . S
C443 C427 1.429 . S
C443 C439 1.429 . S
C443 C444 1.523 . S
C444 C428 1.368 1_556 S
C444 C440 1.368 . S
C444 C443 1.523 . S
H445 C420 0.950 . S
H446 C422 0.950 . S
H447 C423 0.949 . S
H448 C425 0.950 . S
H449 C427 0.950 . S
C450 C451 1.349 . S
C450 C452 1.327 . S
C450 H475 0.950 . S
C451 C450 1.349 . S
C451 C467 1.349 . S
C452 C450 1.327 . S
C452 C471 1.429 . S
C452 H476 0.950 . S
C453 C470 1.574 . S
C453 C472 1.368 . S
C453 H477 0.949 . S
H454 C458 0.949 . S
C455 C456 1.349 . S
C455 C457 1.327 . S
C455 H478 0.950 . S
C456 C455 1.349 . S
C456 C468 1.349 . S
C457 C455 1.327 . S
C457 C473 1.429 . S
C457 H479 0.950 . S
C458 H454 0.949 . S
C458 C466 1.574 . S
C458 C474 1.368 . S
H459 C467 0.950 . S
H460 C465 0.950 . S
H461 C466 0.949 . S
H462 C468 0.950 . S
H463 C469 0.950 . S
H464 C470 0.949 . S
C465 H460 0.950 . S
C465 C467 1.327 . S
C465 C471 1.429 . S
C466 C458 1.574 . S
C466 H461 0.949 . S
C466 C472 1.368 . S
C467 C451 1.349 . S
C467 H459 0.950 . S
C467 C465 1.327 . S
C468 C456 1.349 . S
C468 H462 0.950 . S
C468 C469 1.327 . S
C469 H463 0.950 . S
C469 C468 1.327 . S
C469 C473 1.429 . S
C470 C453 1.574 . S
C470 H464 0.949 . S
C470 C474 1.368 . S
C471 C452 1.429 . S
C471 C465 1.429 . S
C471 C472 1.523 . S
C472 C453 1.368 . S
C472 C466 1.368 . S
C472 C471 1.523 . S
C473 C457 1.429 . S
C473 C469 1.429 . S
C473 C474 1.523 . S
C474 C458 1.368 . S
C474 C470 1.368 . S
C474 C473 1.523 . S
H475 C450 0.950 . S
H476 C452 0.950 . S
H477 C453 0.949 . S
H478 C455 0.950 . S
H479 C457 0.950 . S
C480 C481 1.349 . S
C480 C482 1.327 . S
C480 H505 0.950 . S
C481 C480 1.349 . S
C481 C497 1.349 . S
C482 C480 1.327 . S
C482 C501 1.429 . S
C482 H506 0.950 . S
C483 C500 1.574 . S
C483 C502 1.368 . S
C483 H507 0.949 . S
H484 C488 0.949 . S
C485 C486 1.349 . S
C485 C487 1.327 . S
C485 H508 0.950 . S
C486 C485 1.349 . S
C486 C498 1.349 . S
C487 C485 1.327 . S
C487 C503 1.429 . S
C487 H509 0.950 . S
C488 H484 0.949 . S
C488 C496 1.574 . S
C488 C504 1.368 . S
H489 C497 0.950 . S
H490 C495 0.950 . S
H491 C496 0.949 . S
H492 C498 0.950 . S
H493 C499 0.950 . S
H494 C500 0.949 . S
C495 H490 0.950 . S
C495 C497 1.327 . S
C495 C501 1.429 . S
C496 C488 1.574 . S
C496 H491 0.949 . S
C496 C502 1.368 . S
C497 C481 1.349 . S
C497 H489 0.950 . S
C497 C495 1.327 . S
C498 C486 1.349 . S
C498 H492 0.950 . S
C498 C499 1.327 . S
C499 H493 0.950 . S
C499 C498 1.327 . S
C499 C503 1.429 . S
C500 C483 1.574 . S
C500 H494 0.949 . S
C500 C504 1.368 . S
C501 C482 1.429 . S
C501 C495 1.429 . S
C501 C502 1.523 . S
C502 C483 1.368 . S
C502 C496 1.368 . S
C502 C501 1.523 . S
C503 C487 1.429 . S
C503 C499 1.429 . S
C503 C504 1.523 . S
C504 C488 1.368 . S
C504 C500 1.368 . S
C504 C503 1.523 . S
H505 C480 0.950 . S
H506 C482 0.950 . S
H507 C483 0.949 . S
H508 C485 0.950 . S
H509 C487 0.950 . S
C241 C21 1.490 . S
C246 C221 1.491 . S
C271 C141 1.487 . S
C276 C61 1.489 . S
C301 C181 1.488 . S
C306 C101 1.489 . S
C331 C15 1.500 . S
C336 C175 1.500 . S
C361 C42 1.487 . S
C366 C202 1.489 . S
C391 C122 1.486 . S
C396 C82 1.489 . S
C421 C2 1.488 . S
C426 C162 1.487 . S
C451 C55 1.500 . S
C456 C215 1.500 . S
C481 C135 1.500 . S
C486 C95 1.500 . S
