# Generated by pormake.
# Topology snk, (6)-cn, num edge types: 1
# Building blocks:
#     Node 0, Type 0, BuildingBlock: KUMJIN_clean_sbu_0, # of connection points: 6
#     Node 1, Type 0, BuildingBlock: KUMJIN_clean_sbu_0, # of connection points: 6
#     Node 2, Type 0, BuildingBlock: KUMJIN_clean_sbu_0, # of connection points: 6
#     Node 3, Type 0, BuildingBlock: KUMJIN_clean_sbu_0, # of connection points: 6
#     Node 4, Type 0, BuildingBlock: KUMJIN_clean_sbu_0, # of connection points: 6
#     Node 5, Type 0, BuildingBlock: KUMJIN_clean_sbu_0, # of connection points: 6
#     Node 6, Type 0, BuildingBlock: KUMJIN_clean_sbu_0, # of connection points: 6
#     Node 7, Type 0, BuildingBlock: KUMJIN_clean_sbu_0, # of connection points: 6
#     Edge 8, Type (0, 0), BuildingBlock: KIFKEQ_clean_linker_1, # of connection points: 2
#     Edge 9, Type (0, 0), BuildingBlock: KIFKEQ_clean_linker_1, # of connection points: 2
#     Edge 10, Type (0, 0), BuildingBlock: KIFKEQ_clean_linker_1, # of connection points: 2
#     Edge 11, Type (0, 0), BuildingBlock: KIFKEQ_clean_linker_1, # of connection points: 2
#     Edge 12, Type (0, 0), BuildingBlock: KIFKEQ_clean_linker_1, # of connection points: 2
#     Edge 13, Type (0, 0), BuildingBlock: KIFKEQ_clean_linker_1, # of connection points: 2
#     Edge 14, Type (0, 0), BuildingBlock: KIFKEQ_clean_linker_1, # of connection points: 2
#     Edge 15, Type (0, 0), BuildingBlock: KIFKEQ_clean_linker_1, # of connection points: 2
#     Edge 16, Type (0, 0), BuildingBlock: KIFKEQ_clean_linker_1, # of connection points: 2
#     Edge 17, Type (0, 0), BuildingBlock: KIFKEQ_clean_linker_1, # of connection points: 2
#     Edge 18, Type (0, 0), BuildingBlock: KIFKEQ_clean_linker_1, # of connection points: 2
#     Edge 19, Type (0, 0), BuildingBlock: KIFKEQ_clean_linker_1, # of connection points: 2
#     Edge 20, Type (0, 0), BuildingBlock: KIFKEQ_clean_linker_1, # of connection points: 2
#     Edge 21, Type (0, 0), BuildingBlock: KIFKEQ_clean_linker_1, # of connection points: 2
#     Edge 22, Type (0, 0), BuildingBlock: KIFKEQ_clean_linker_1, # of connection points: 2
#     Edge 23, Type (0, 0), BuildingBlock: KIFKEQ_clean_linker_1, # of connection points: 2
#     Edge 24, Type (0, 0), BuildingBlock: KIFKEQ_clean_linker_1, # of connection points: 2
#     Edge 25, Type (0, 0), BuildingBlock: KIFKEQ_clean_linker_1, # of connection points: 2
#     Edge 26, Type (0, 0), BuildingBlock: KIFKEQ_clean_linker_1, # of connection points: 2
#     Edge 27, Type (0, 0), BuildingBlock: KIFKEQ_clean_linker_1, # of connection points: 2
#     Edge 28, Type (0, 0), BuildingBlock: KIFKEQ_clean_linker_1, # of connection points: 2
#     Edge 29, Type (0, 0), BuildingBlock: KIFKEQ_clean_linker_1, # of connection points: 2
#     Edge 30, Type (0, 0), BuildingBlock: KIFKEQ_clean_linker_1, # of connection points: 2
#     Edge 31, Type (0, 0), BuildingBlock: KIFKEQ_clean_linker_1, # of connection points: 2
# Relax obj value: 0.006
# Max RMSD: 0.054
# Mean RMSD: 0.050
data_MOF--net-snk--node1-KUMJIN_clean_sbu_0--edge1-KIFKEQ_clean_linker_1
_symmetry_space_group_name_H-M    P1
_symmetry_Int_Tables_number       1
_symmetry_cell_setting            triclinic
loop_
_symmetry_equiv_pos_as_xyz
'x, y, z'
_cell_length_a     38.572477
_cell_length_b     38.624401
_cell_length_c     24.696614
_cell_angle_alpha  87.3021
_cell_angle_beta   87.252551
_cell_angle_gamma 89.694797
loop_
_atom_site_label
_atom_site_type_symbol
_atom_site_fract_x
_atom_site_fract_y
_atom_site_fract_z
_atom_type_partial_charge
Eu0 Eu 1.00077 0.97671 0.47003 0.0
C1 C 0.0074 0.118 0.57878 0.0
C2 C 0.06746 0.13559 0.56575 0.0
C3 C 0.02199 0.17927 0.57098 0.0
C4 C 0.04204 0.10937 0.57152 0.0
C5 C 0.99701 0.15303 0.57996 0.0
C6 C 0.05718 0.17055 0.56386 0.0
C7 C 0.93863 0.13355 0.60416 0.0
N8 N 0.98407 0.09204 0.58821 0.0
C9 C 0.95022 0.09922 0.60268 0.0
C10 C 0.96203 0.1606 0.59199 0.0
Eu11 Eu 0.00518 0.03453 0.58268 0.0
N12 N 0.05108 0.07537 0.57463 0.0
C13 C 0.08515 0.06593 0.57732 0.0
C14 C 0.10247 0.1259 0.56445 0.0
C15 C 0.11133 0.09095 0.57143 0.0
H16 H 0.93196 0.0784 0.61163 0.0
H17 H 0.13832 0.08321 0.57198 0.0
H18 H 0.07631 0.19104 0.55878 0.0
H19 H 0.91165 0.13912 0.61447 0.0
H20 H 0.09244 0.03903 0.58242 0.0
H21 H 0.86832 0.92626 0.48223 0.0
H22 H 0.1228 0.14522 0.55996 0.0
H23 H 0.07524 0.93432 0.4427 0.0
H24 H 0.9135 0.97119 0.47455 0.0
H25 H 0.09644 0.87407 0.43759 0.0
H26 H 0.0145 0.20634 0.57117 0.0
H27 H 0.88483 0.86427 0.48724 0.0
H28 H 0.93196 0.81917 0.4845 0.0
H29 H 0.95301 0.18718 0.59332 0.0
H30 H 0.99404 0.80493 0.47256 0.0
N31 N 0.9555 0.93524 0.47674 0.0
C32 C 0.92122 0.94432 0.47666 0.0
C33 C 0.90486 0.88392 0.48393 0.0
C34 C 0.94002 0.87475 0.48117 0.0
C35 C 0.89544 0.91887 0.48099 0.0
C36 C 0.96506 0.90136 0.4771 0.0
H37 H 0.05547 0.82522 0.4542 0.0
N38 N 0.02302 0.91969 0.4635 0.0
C39 C 0.06925 0.87911 0.44712 0.0
C40 C 0.99993 0.89332 0.4705 0.0
C41 C 0.05715 0.9132 0.44997 0.0
C42 C 0.04606 0.85161 0.45669 0.0
C43 C 0.01083 0.85851 0.46766 0.0
O44 O 0.02566 0.98061 0.38862 0.0
O45 O 0.02262 0.02678 0.4965 0.0
O46 O 0.97656 0.06349 0.51601 0.0
O47 O 0.95672 0.01678 0.47026 0.0
O48 O 0.05618 0.99583 0.45282 0.0
O49 O 0.96979 0.98407 0.39839 0.0
O50 O 0.98126 0.0356 0.66481 0.0
O51 O 0.98293 0.98462 0.55633 0.0
O52 O 0.02848 0.94723 0.5369 0.0
O53 O 0.04882 0.99381 0.58255 0.0
O54 O 0.95004 0.01548 0.60104 0.0
O55 O 0.0357 0.02289 0.65345 0.0
C56 C 0.05324 0.02507 0.47562 0.0
C57 C 0.99345 0.96123 0.31729 0.0
C58 C 0.994 0.95598 0.21875 0.0
C59 C 0.99516 0.97655 0.26444 0.0
C60 C 0.99092 0.91977 0.2274 0.0
C61 C 0.98994 0.92523 0.32467 0.0
C62 C 0.98868 0.90466 0.27993 0.0
C63 C 0.95576 0.05005 0.48142 0.0
C64 C 0.99652 0.98303 0.36411 0.0
C65 C 0.98614 0.83185 0.47412 0.0
C66 C 0.9508 0.83996 0.48089 0.0
C67 C 0.95254 0.98621 0.57825 0.0
C68 C 0.01822 0.05007 0.73391 0.0
C69 C 0.01283 0.03654 0.78747 0.0
C70 C 0.02207 0.05586 0.83153 0.0
C71 C 0.03638 0.08905 0.82122 0.0
C72 C 0.03224 0.08335 0.72451 0.0
C73 C 0.0412 0.10273 0.76803 0.0
C74 C 0.04941 0.96049 0.57145 0.0
C75 C 0.01017 0.02873 0.68839 0.0
H76 H 0.99727 1.00448 0.2592 0.0
H77 H 0.99081 0.90291 0.19362 0.0
H78 H 0.98844 0.91301 0.36488 0.0
H79 H 0.98632 0.87681 0.28596 0.0
H80 H 1.00223 0.0107 0.79478 0.0
H81 H 0.04353 0.10453 0.85437 0.0
H82 H 0.03655 0.09421 0.68367 0.0
H83 H 0.05209 0.12837 0.76049 0.0
Eu84 Eu 0.28457 0.75015 0.71243 0.0
C85 C 0.1422 0.7713 0.84276 0.0
C86 C 0.12821 0.83215 0.82905 0.0
C87 C 0.08184 0.7899 0.84383 0.0
C88 C 0.15288 0.80513 0.83263 0.0
C89 C 0.10658 0.76331 0.84949 0.0
C90 C 0.09265 0.82427 0.83361 0.0
C91 C 0.12259 0.7038 0.87071 0.0
N92 N 0.16674 0.74633 0.84829 0.0
C93 C 0.15759 0.71308 0.86391 0.0
C94 C 0.09694 0.72896 0.86289 0.0
Eu95 Eu 0.22542 0.76334 0.83354 0.0
N96 N 0.18743 0.81181 0.82858 0.0
C97 C 0.19905 0.84523 0.82481 0.0
C98 C 0.14004 0.86632 0.82216 0.0
C99 C 0.17561 0.8729 0.82077 0.0
H100 H 0.17736 0.6935 0.8696 0.0
H101 H 0.18503 0.89927 0.81641 0.0
H102 H 0.07332 0.84463 0.83044 0.0
H103 H 0.11544 0.67728 0.8819 0.0
H104 H 0.22641 0.85085 0.8236 0.0
H105 H 0.32876 0.61558 0.72973 0.0
H106 H 0.12195 0.8878 0.81899 0.0
H107 H 0.33071 0.82187 0.67866 0.0
H108 H 0.28596 0.66291 0.72265 0.0
H109 H 0.39215 0.83986 0.66744 0.0
H110 H 0.05434 0.78425 0.84839 0.0
H111 H 0.39149 0.62889 0.72732 0.0
H112 H 0.43884 0.67348 0.71651 0.0
H113 H 0.06985 0.72175 0.86834 0.0
H114 H 0.45611 0.73444 0.69952 0.0
N115 N 0.32387 0.7029 0.71754 0.0
C116 C 0.3132 0.66918 0.72134 0.0
C117 C 0.37279 0.64983 0.72413 0.0
C118 C 0.38363 0.68436 0.71752 0.0
C119 C 0.33742 0.64221 0.7254 0.0
C120 C 0.3582 0.71065 0.71391 0.0
H121 H 0.4389 0.79657 0.68056 0.0
N122 N 0.3427 0.76921 0.69904 0.0
C123 C 0.3857 0.81308 0.67805 0.0
C124 C 0.36793 0.74487 0.7044 0.0
C125 C 0.35097 0.80281 0.68425 0.0
C126 C 0.41201 0.78858 0.68559 0.0
C127 C 0.40331 0.75389 0.69822 0.0
O128 O 0.28171 0.77251 0.62987 0.0
O129 O 0.23651 0.77567 0.74534 0.0
O130 O 0.19618 0.73473 0.7725 0.0
O131 O 0.24235 0.70908 0.72445 0.0
O132 O 0.26712 0.80537 0.69076 0.0
O133 O 0.27547 0.7172 0.64486 0.0
O134 O 0.22448 0.74197 0.91731 0.0
O135 O 0.27269 0.73692 0.80019 0.0
O136 O 0.31405 0.77686 0.77497 0.0
O137 O 0.2678 0.80435 0.81987 0.0
O138 O 0.24227 0.70799 0.85577 0.0
O139 O 0.24075 0.79496 0.89926 0.0
C140 C 0.23844 0.8047 0.71982 0.0
C141 C 0.29909 0.73695 0.55855 0.0
C142 C 0.30483 0.73778 0.45915 0.0
C143 C 0.2844 0.74141 0.50761 0.0
C144 C 0.34026 0.72937 0.46314 0.0
C145 C 0.33429 0.72833 0.56129 0.0
C146 C 0.3547 0.72451 0.51377 0.0
C147 C 0.20894 0.7115 0.73914 0.0
C148 C 0.2777 0.74273 0.60831 0.0
C149 C 0.42877 0.72799 0.7037 0.0
C150 C 0.41894 0.69328 0.71337 0.0
C151 C 0.27061 0.70797 0.82597 0.0
C152 C 0.21476 0.78178 0.98638 0.0
C153 C 0.22794 0.77384 0.03768 0.0
C154 C 0.21074 0.7855 0.08511 0.0
C155 C 0.17994 0.80484 0.0804 0.0
C156 C 0.18383 0.80081 0.98269 0.0
C157 C 0.16654 0.81222 0.02955 0.0
C158 C 0.3013 0.80073 0.80699 0.0
C159 C 0.23406 0.7709 0.93714 0.0
H160 H 0.25703 0.74762 0.506 0.0
H161 H 0.35712 0.72713 0.42716 0.0
H162 H 0.34605 0.72486 0.60004 0.0
H163 H 0.38197 0.71814 0.51615 0.0
H164 H 0.25196 0.7593 0.04055 0.0
H165 H 0.16604 0.81395 0.11617 0.0
H166 H 0.17323 0.80709 0.94366 0.0
H167 H 0.14273 0.82698 1.02642 0.0
Eu168 Eu 0.5088 0.97303 0.09026 0.0
C169 C 0.49322 0.11596 0.95954 0.0
C170 C 0.43297 0.13254 0.97376 0.0
C171 C 0.47716 0.17696 0.95772 0.0
C172 C 0.45894 0.10678 0.97023 0.0
C173 C 0.50266 0.15113 0.95187 0.0
C174 C 0.44236 0.16767 0.96871 0.0
C175 C 0.56119 0.13251 0.9286 0.0
N176 N 0.5171 0.09037 0.95365 0.0
C177 C 0.55052 0.09801 0.93651 0.0
C178 C 0.53726 0.15922 0.93701 0.0
Eu179 Eu 0.49751 0.03262 0.96929 0.0
N180 N 0.45076 0.07261 0.97437 0.0
C181 C 0.41684 0.06242 0.97816 0.0
C182 C 0.39827 0.12219 0.98081 0.0
C183 C 0.39016 0.08698 0.98225 0.0
H184 H 0.56918 0.07748 0.93025 0.0
H185 H 0.36337 0.0787 0.98671 0.0
H186 H 0.42282 0.18783 0.97185 0.0
H187 H 0.58786 0.13847 0.91616 0.0
H188 H 0.41016 0.03531 0.97948 0.0
H189 H 0.64434 0.9307 0.07724 0.0
H190 H 0.37756 0.14116 0.98395 0.0
H191 H 0.43735 0.92594 0.12047 0.0
H192 H 0.59637 0.97276 0.08328 0.0
H193 H 0.42001 0.8643 0.13002 0.0
H194 H 0.48394 0.20414 0.95252 0.0
H195 H 0.63189 0.86792 0.07816 0.0
H196 H 0.58784 0.82004 0.08664 0.0
H197 H 0.54556 0.18592 0.93073 0.0
H198 H 0.52687 0.80194 0.10112 0.0
N199 N 0.55675 0.93444 0.08617 0.0
C200 C 0.59039 0.94552 0.08385 0.0
C201 C 0.61064 0.8863 0.08086 0.0
C202 C 0.57618 0.87502 0.08607 0.0
C203 C 0.61776 0.92171 0.08042 0.0
C204 C 0.54947 0.90005 0.08911 0.0
H205 H 0.46418 0.81823 0.11795 0.0
N206 N 0.49051 0.91468 0.10217 0.0
C207 C 0.44688 0.87112 0.12065 0.0
C208 C 0.51528 0.88985 0.09734 0.0
C209 C 0.45677 0.90594 0.11541 0.0
C210 C 0.47188 0.8452 0.11369 0.0
C211 C 0.50665 0.85438 0.10258 0.0
O212 O 0.48624 0.97098 0.17342 0.0
O213 O 0.4838 0.02121 0.05722 0.0
O214 O 0.52651 0.06165 0.0301 0.0
O215 O 0.55014 0.0151 0.08002 0.0
O216 O 0.45348 0.99068 0.11103 0.0
O217 O 0.53982 0.98641 0.15774 0.0
O218 O 0.5199 0.02777 0.88702 0.0
O219 O 0.52266 0.98464 1.00278 0.0
O220 O 0.48228 0.94446 1.02635 0.0
O221 O 0.45553 0.99116 0.98172 0.0
O222 O 0.55283 0.01494 0.94857 0.0
O223 O 0.46439 0.02361 0.90184 0.0
C224 C 0.45454 0.0194 0.08226 0.0
C225 C 0.52499 0.95952 0.24361 0.0
C226 C 0.5286 0.95477 0.3423 0.0
C227 C 0.51769 0.97273 0.29507 0.0
C228 C 0.54653 0.9232 0.33724 0.0
C229 C 0.54262 0.92784 0.23954 0.0
C230 C 0.55326 0.90979 0.28621 0.0
C231 C 0.54872 0.04848 0.06488 0.0
C232 C 0.5151 0.97965 0.19461 0.0
C233 C 0.533 0.82933 0.09763 0.0
C234 C 0.56771 0.83963 0.08938 0.0
C235 C 0.55202 0.98649 0.97803 0.0
C236 C 0.48506 0.0459 0.81531 0.0
C237 C 0.48885 0.03081 0.76458 0.0
C238 C 0.48598 0.05114 0.71589 0.0
C239 C 0.47908 0.08686 0.71942 0.0
C240 C 0.47788 0.0814 0.81757 0.0
C241 C 0.47488 0.10171 0.76982 0.0
C242 C 0.45871 0.95761 0.99411 0.0
C243 C 0.49003 0.02461 0.86537 0.0
H244 H 0.50428 0.99735 0.29823 0.0
H245 H 0.55504 0.90873 0.37286 0.0
H246 H 0.54842 0.91723 0.20038 0.0
H247 H 0.56695 0.88539 0.28279 0.0
H248 H 0.49393 1.00324 0.76333 0.0
H249 H 0.47752 0.10363 0.68324 0.0
H250 H 0.47488 0.09344 0.85614 0.0
H251 H 0.46964 0.12919 0.77185 0.0
Eu252 Eu 0.28197 0.25665 0.33243 0.0
C253 C 0.14051 0.25131 0.22406 0.0
C254 C 0.122 0.19156 0.23679 0.0
C255 C 0.07894 0.23763 0.23184 0.0
C256 C 0.14863 0.21654 0.23091 0.0
C257 C 0.10558 0.2622 0.22301 0.0
C258 C 0.08714 0.20236 0.23876 0.0
C259 C 0.12594 0.32027 0.19923 0.0
N260 N 0.16686 0.27426 0.2148 0.0
C261 C 0.16015 0.30819 0.20051 0.0
C262 C 0.09852 0.29727 0.21128 0.0
Eu263 Eu 0.2241 0.25213 0.21986 0.0
N264 N 0.18254 0.20697 0.22786 0.0
C265 C 0.1915 0.1728 0.22568 0.0
C266 C 0.13117 0.15644 0.23832 0.0
C267 C 0.16605 0.14705 0.23166 0.0
H268 H 0.18122 0.32614 0.19147 0.0
H269 H 0.17339 0.11997 0.23145 0.0
H270 H 0.06634 0.18357 0.24387 0.0
H271 H 0.12074 0.3473 0.18908 0.0
H272 H 0.21837 0.16517 0.2209 0.0
H273 H 0.32916 0.39023 0.32111 0.0
H274 H 0.11151 0.13645 0.24291 0.0
H275 H 0.32616 0.18346 0.35895 0.0
H276 H 0.28535 0.34405 0.32863 0.0
H277 H 0.38703 0.16375 0.36412 0.0
H278 H 0.05194 0.24553 0.23175 0.0
H279 H 0.39162 0.37531 0.31575 0.0
H280 H 0.43795 0.3294 0.31831 0.0
H281 H 0.07203 0.30667 0.21006 0.0
H282 H 0.45373 0.26777 0.3301 0.0
N283 N 0.32235 0.30295 0.32577 0.0
C284 C 0.31242 0.33695 0.3263 0.0
C285 C 0.37246 0.35482 0.31893 0.0
C286 C 0.38252 0.31995 0.32148 0.0
C287 C 0.33724 0.36334 0.32207 0.0
C288 C 0.35651 0.29428 0.32538 0.0
H289 H 0.43493 0.2059 0.34809 0.0
N290 N 0.3396 0.23601 0.33901 0.0
C291 C 0.38133 0.1908 0.35491 0.0
C292 C 0.36541 0.25971 0.33218 0.0
C293 C 0.34691 0.20205 0.35208 0.0
C294 C 0.40829 0.21465 0.34567 0.0
C295 C 0.40052 0.24968 0.33496 0.0
O296 O 0.2828 0.23248 0.41438 0.0
O297 O 0.23235 0.23428 0.30564 0.0
O298 O 0.19459 0.27971 0.28709 0.0
O299 O 0.24124 0.30009 0.33243 0.0
O300 O 0.26304 0.20118 0.35014 0.0
O301 O 0.26947 0.28673 0.4034 0.0
O302 O 0.22727 0.27681 0.13836 0.0
O303 O 0.27433 0.27423 0.24597 0.0
O304 O 0.3114 0.22892 0.26541 0.0
O305 O 0.26488 0.20857 0.21953 0.0
O306 O 0.2429 0.30732 0.20249 0.0
O307 O 0.23094 0.22104 0.14828 0.0
C308 C 0.23396 0.20381 0.32676 0.0
C309 C 0.2962 0.26931 0.48426 0.0
C310 C 0.30103 0.27331 0.58205 0.0
C311 C 0.28217 0.26391 0.53756 0.0
C312 C 0.33427 0.28772 0.57245 0.0
C313 C 0.3295 0.2835 0.47561 0.0
C314 C 0.34844 0.29256 0.51955 0.0
C315 C 0.20783 0.30047 0.32188 0.0
C316 C 0.27534 0.26117 0.43819 0.0
C317 C 0.4266 0.27498 0.32855 0.0
C318 C 0.41761 0.31006 0.32183 0.0
C319 C 0.27243 0.30472 0.22461 0.0
C320 C 0.20728 0.24442 0.06775 0.0
C321 C 0.22217 0.24623 1.01463 0.0
C322 C 0.20122 0.24495 0.96942 0.0
C323 C 0.16503 0.24157 0.97883 0.0
C324 C 0.17129 0.24067 0.07596 0.0
C325 C 0.15033 0.23924 0.03166 0.0
C326 C 0.29821 0.208 0.23076 0.0
C327 C 0.22952 0.24766 0.11397 0.0
H328 H 0.25631 0.25321 0.54433 0.0
H329 H 0.3494 0.29498 0.60595 0.0
H330 H 0.34073 0.28787 0.43503 0.0
H331 H 0.3741 0.30357 0.51255 0.0
H332 H 0.2501 0.24851 1.00881 0.0
H333 H 0.14788 0.24133 0.94542 0.0
H334 H 0.15939 0.23911 0.11645 0.0
H335 H 0.12249 0.23667 0.03829 0.0
Eu336 Eu 0.78461 0.25347 0.21683 0.0
C337 C 0.64081 0.26725 0.33881 0.0
C338 C 0.62733 0.32836 0.32479 0.0
C339 C 0.58068 0.28621 0.33386 0.0
C340 C 0.65196 0.30134 0.33018 0.0
C341 C 0.60499 0.25958 0.34236 0.0
C342 C 0.59183 0.32051 0.32504 0.0
C343 C 0.61943 0.20038 0.36837 0.0
N344 N 0.66476 0.24192 0.34738 0.0
C345 C 0.65457 0.20921 0.36472 0.0
C346 C 0.59454 0.22554 0.35626 0.0
Eu347 Eu 0.72363 0.25903 0.33659 0.0
N348 N 0.68654 0.30834 0.33015 0.0
C349 C 0.69761 0.34194 0.33046 0.0
C350 C 0.63896 0.36264 0.32092 0.0
C351 C 0.67415 0.36944 0.32487 0.0
H352 H 0.67369 0.18945 0.37317 0.0
H353 H 0.68331 0.39593 0.32341 0.0
H354 H 0.57269 0.34092 0.32015 0.0
H355 H 0.6116 0.17416 0.38034 0.0
H356 H 0.72452 0.3482 0.3335 0.0
H357 H 0.8271 0.11824 0.2226 0.0
H358 H 0.62089 0.38405 0.31651 0.0
H359 H 0.83216 0.32548 0.19476 0.0
H360 H 0.785 0.16635 0.21653 0.0
H361 H 0.89393 0.34289 0.19165 0.0
H362 H 0.55312 0.2807 0.33571 0.0
H363 H 0.8896 0.13058 0.22889 0.0
H364 H 0.93734 0.17463 0.22877 0.0
H365 H 0.56729 0.21866 0.35934 0.0
H366 H 0.95554 0.23571 0.22055 0.0
N367 N 0.82312 0.20564 0.22065 0.0
C368 C 0.81219 0.17215 0.21904 0.0
C369 C 0.87124 0.15184 0.22617 0.0
C370 C 0.88245 0.18628 0.22497 0.0
C371 C 0.83599 0.14477 0.22251 0.0
C372 C 0.85744 0.21299 0.22175 0.0
H373 H 0.93959 0.29859 0.20598 0.0
N374 N 0.84299 0.27221 0.21216 0.0
C375 C 0.88689 0.31595 0.19924 0.0
C376 C 0.86769 0.24732 0.21756 0.0
C377 C 0.85202 0.30605 0.2009 0.0
C378 C 0.91259 0.29087 0.20748 0.0
C379 C 0.9032 0.25599 0.21591 0.0
O380 O 0.78628 0.28113 0.13763 0.0
O381 O 0.73436 0.27571 0.24921 0.0
O382 O 0.69824 0.22382 0.27981 0.0
O383 O 0.74194 0.21359 0.21289 0.0
O384 O 0.76643 0.30897 0.2021 0.0
O385 O 0.78092 0.2253 0.14239 0.0
O386 O 0.75627 0.25533 0.40722 0.0
O387 O 0.77111 0.23424 0.30197 0.0
O388 O 0.81118 0.27798 0.28464 0.0
O389 O 0.76331 0.30249 0.32917 0.0
O390 O 0.73849 0.20227 0.35038 0.0
O391 O 0.70226 0.26757 0.41861 0.0
C392 C 0.73653 0.30595 0.22752 0.0
C393 C 0.80881 0.25096 0.06283 0.0
C394 C 0.81872 0.2491 0.96416 0.0
C395 C 0.79589 0.24937 1.01065 0.0
C396 C 0.85472 0.25046 0.97132 0.0
C397 C 0.84472 0.25177 0.06869 0.0
C398 C 0.8675 0.25154 1.02315 0.0
C399 C 0.71072 0.20833 0.23637 0.0
C400 C 0.78454 0.25309 0.11048 0.0
C401 C 0.92814 0.22957 0.22119 0.0
C402 C 0.91778 0.19478 0.2258 0.0
C403 C 0.7679 0.2038 0.32275 0.0
C404 C 0.72812 0.23597 0.49014 0.0
C405 C 0.73854 0.24596 0.54103 0.0
C406 C 0.7342 0.22318 0.5872 0.0
C407 C 0.7197 0.1903 0.58158 0.0
C408 C 0.71424 0.20282 0.48553 0.0
C409 C 0.71002 0.18018 0.53101 0.0
C410 C 0.79718 0.30011 0.31858 0.0
C411 C 0.73091 0.2604 0.4424 0.0
H412 H 0.76808 0.24816 1.00656 0.0
H413 H 0.87316 0.2512 0.93685 0.0
H414 H 0.85519 0.25296 0.10828 0.0
H415 H 0.89522 0.25255 0.028 0.0
H416 H 0.74941 0.27151 0.54486 0.0
H417 H 0.7164 0.17218 0.61626 0.0
H418 H 0.7065 0.19446 0.44689 0.0
H419 H 0.69918 0.15469 0.52704 0.0
Eu420 Eu 0.78186 0.75635 0.83229 0.0
C421 C 0.64034 0.74933 0.72433 0.0
C422 C 0.62327 0.68913 0.73608 0.0
C423 C 0.57912 0.7342 0.7324 0.0
C424 C 0.64929 0.71475 0.73062 0.0
C425 C 0.60516 0.75943 0.72384 0.0
C426 C 0.58817 0.6991 0.73853 0.0
C427 C 0.6241 0.81812 0.70132 0.0
N428 N 0.66611 0.77292 0.71533 0.0
C429 C 0.65859 0.8068 0.70204 0.0
C430 C 0.59725 0.79441 0.713 0.0
Eu431 Eu 0.72388 0.75223 0.71976 0.0
N432 N 0.68342 0.70603 0.72709 0.0
C433 C 0.69316 0.67211 0.72379 0.0
C434 C 0.63327 0.65425 0.7366 0.0
C435 C 0.66833 0.64574 0.72929 0.0
H436 H 0.67926 0.82529 0.69347 0.0
H437 H 0.67631 0.61887 0.72821 0.0
H438 H 0.56783 0.6798 0.74335 0.0
H439 H 0.61826 0.84512 0.69196 0.0
H440 H 0.72015 0.66508 0.71845 0.0
H441 H 0.8319 0.88878 0.8211 0.0
H442 H 0.6141 0.63378 0.74082 0.0
H443 H 0.82455 0.68206 0.85887 0.0
H444 H 0.78706 0.84349 0.82856 0.0
H445 H 0.88497 0.66109 0.86374 0.0
H446 H 0.55194 0.74147 0.73271 0.0
H447 H 0.89403 0.87252 0.81571 0.0
H448 H 0.93937 0.82561 0.81793 0.0
H449 H 0.57055 0.80321 0.71224 0.0
H450 H 0.95384 0.76364 0.82937 0.0
N451 N 0.82323 0.80169 0.82584 0.0
C452 C 0.81401 0.83588 0.82627 0.0
C453 C 0.87443 0.85245 0.81892 0.0
C454 C 0.88374 0.81737 0.82135 0.0
C455 C 0.83939 0.86173 0.82207 0.0
C456 C 0.85719 0.79226 0.82529 0.0
H457 H 0.93374 0.70219 0.84734 0.0
N458 N 0.83903 0.73429 0.83845 0.0
C459 C 0.87983 0.68824 0.85442 0.0
C460 C 0.86536 0.75746 0.83157 0.0
C461 C 0.84565 0.70021 0.8517 0.0
C462 C 0.90729 0.7115 0.84496 0.0
C463 C 0.90025 0.74669 0.83425 0.0
O464 O 0.7782 0.73132 0.91355 0.0
O465 O 0.7319 0.73444 0.80557 0.0
O466 O 0.69472 0.77968 0.78753 0.0
O467 O 0.74147 0.80006 0.83263 0.0
O468 O 0.76282 0.70088 0.84906 0.0
O469 O 0.77436 0.7871 0.90415 0.0
O470 O 0.72219 0.77665 0.63809 0.0
O471 O 0.77379 0.77458 0.74619 0.0
O472 O 0.8115 0.72918 0.76499 0.0
O473 O 0.76496 0.70897 0.71897 0.0
O474 O 0.74255 0.80751 0.7023 0.0
O475 O 0.73576 0.72241 0.6483 0.0
C476 C 0.73359 0.70382 0.82615 0.0
C477 C 0.79746 0.76348 0.98501 0.0
C478 C 0.80273 0.76318 0.08351 0.0
C479 C 0.78213 0.76193 0.03787 0.0
C480 C 0.83899 0.76621 0.0748 0.0
C481 C 0.83351 0.76694 0.97755 0.0
C482 C 0.85412 0.7683 1.02224 0.0
C483 C 0.70805 0.80046 0.82222 0.0
C484 C 0.77561 0.76035 0.93825 0.0
C485 C 0.92686 0.77144 0.82792 0.0
C486 C 0.91862 0.80672 0.82145 0.0
C487 C 0.77197 0.80503 0.72478 0.0
C488 C 0.70813 0.74001 0.56835 0.0
C489 C 0.72176 0.74528 0.51481 0.0
C490 C 0.70246 0.73601 0.47075 0.0
C491 C 0.66919 0.72179 0.48103 0.0
C492 C 0.67477 0.72608 0.57773 0.0
C493 C 0.65541 0.71709 0.5342 0.0
C494 C 0.79833 0.7085 0.73002 0.0
C495 C 0.72946 0.74806 0.6139 0.0
H496 H 0.75416 0.75988 0.04316 0.0
H497 H 0.85588 0.76639 0.10854 0.0
H498 H 0.84575 0.76832 0.93733 0.0
H499 H 0.88201 0.77062 1.01615 0.0
H500 H 0.74766 0.75581 0.50752 0.0
H501 H 0.65372 0.71461 0.44786 0.0
H502 H 0.66383 0.72187 0.61856 0.0
H503 H 0.62971 0.70626 0.54172 0.0
Eu504 Eu 0.50013 0.47663 0.96861 0.0
C505 C 0.50955 0.61763 0.07693 0.0
C506 C 0.57004 0.63383 0.06438 0.0
C507 C 0.52555 0.67853 0.06878 0.0
C508 C 0.54402 0.6082 0.07013 0.0
C509 C 0.49996 0.65289 0.07766 0.0
C510 C 0.56055 0.66901 0.06212 0.0
C511 C 0.44103 0.6348 0.1011 0.0
N512 N 0.48559 0.59223 0.08622 0.0
C513 C 0.45185 0.60021 0.10012 0.0
C514 C 0.4651 0.66128 0.08909 0.0
Eu515 Eu 0.50542 0.53426 0.08135 0.0
N516 N 0.55229 0.574 0.07347 0.0
C517 C 0.58615 0.56381 0.07632 0.0
C518 C 0.60483 0.62336 0.06337 0.0
C519 C 0.61289 0.58823 0.07051 0.0
H520 H 0.4331 0.57979 0.10893 0.0
H521 H 0.6397 0.57989 0.07124 0.0
H522 H 0.58015 0.68905 0.05706 0.0
H523 H 0.41413 0.64101 0.11093 0.0
H524 H 0.59287 0.53677 0.08152 0.0
H525 H 0.36683 0.42834 0.98243 0.0
H526 H 0.62559 0.64221 0.05891 0.0
H527 H 0.57364 0.43318 0.93973 0.0
H528 H 0.41271 0.47253 0.97429 0.0
H529 H 0.5938 0.37261 0.93364 0.0
H530 H 0.51867 0.70577 0.06864 0.0
H531 H 0.38233 0.36609 0.98689 0.0
H532 H 0.4287 0.32024 0.98314 0.0
H533 H 0.45668 0.68806 0.09004 0.0
H534 H 0.49048 0.30504 0.97004 0.0
N535 N 0.45416 0.4359 0.97573 0.0
C536 C 0.42002 0.44554 0.97616 0.0
C537 C 0.40268 0.38542 0.98339 0.0
C538 C 0.43768 0.37567 0.98004 0.0
C539 C 0.39382 0.42052 0.98075 0.0
C540 C 0.46315 0.40187 0.97577 0.0
H541 H 0.55213 0.32438 0.95066 0.0
N542 N 0.52135 0.41929 0.96141 0.0
C543 C 0.56677 0.37805 0.94376 0.0
C544 C 0.49785 0.39329 0.9686 0.0
C545 C 0.55527 0.41231 0.94717 0.0
C546 C 0.54319 0.3509 0.95356 0.0
C547 C 0.50814 0.35833 0.96528 0.0
O548 O 0.52477 0.48017 0.887 0.0
O549 O 0.5226 0.52633 0.99519 0.0
O550 O 0.47756 0.5637 1.01437 0.0
O551 O 0.45664 0.51729 0.9692 0.0
O552 O 0.55574 0.49524 0.95112 0.0
O553 O 0.46901 0.48477 0.8973 0.0
O554 O 0.48149 0.53655 0.16334 0.0
O555 O 0.48265 0.48458 0.05509 0.0
O556 O 0.52797 0.44665 0.0349 0.0
O557 O 0.54837 0.49291 0.08133 0.0
O558 O 0.45005 0.51577 0.09972 0.0
O559 O 0.53543 0.52175 0.15234 0.0
C560 C 0.55314 0.52444 0.97413 0.0
C561 C 0.49181 0.46159 0.81596 0.0
C562 C 0.49214 0.45637 0.71744 0.0
C563 C 0.49413 0.47684 0.76309 0.0
C564 C 0.48764 0.42031 0.72613 0.0
C565 C 0.48688 0.42575 0.82339 0.0
C566 C 0.48482 0.40527 0.77867 0.0
C567 C 0.45644 0.55062 0.97994 0.0
C568 C 0.49557 0.48323 0.86278 0.0
C569 C 0.48305 0.33207 0.97195 0.0
C570 C 0.44787 0.34073 0.97937 0.0
C571 C 0.45232 0.4864 0.07713 0.0
C572 C 0.51899 0.54971 0.23252 0.0
C573 C 0.5132 0.5364 0.28613 0.0
C574 C 0.52335 0.55532 0.33008 0.0
C575 C 0.53897 0.5879 0.31963 0.0
C576 C 0.53432 0.5824 0.22298 0.0
C577 C 0.54419 0.60139 0.2664 0.0
C578 C 0.54877 0.45964 0.06992 0.0
C579 C 0.51011 0.52863 0.1871 0.0
H580 H 0.49732 0.50467 0.7578 0.0
H581 H 0.48684 0.40349 0.69236 0.0
H582 H 0.48485 0.41358 0.86361 0.0
H583 H 0.48135 0.37754 0.78475 0.0
H584 H 0.5016 0.511 0.29355 0.0
H585 H 0.54685 0.60307 0.35271 0.0
H586 H 0.53897 0.59308 0.18209 0.0
H587 H 0.55611 0.62656 0.25874 0.0
Eu588 Eu 0.0092 0.47444 0.59014 0.0
C589 C 0.99566 0.61756 0.46125 0.0
C590 C 0.93529 0.63446 0.47259 0.0
C591 C 0.97999 0.67865 0.46047 0.0
C592 C 0.96113 0.60855 0.46968 0.0
C593 C 0.00546 0.65271 0.4555 0.0
C594 C 0.94497 0.66954 0.46902 0.0
C595 C 0.06447 0.63394 0.43633 0.0
N596 N 0.01954 0.59188 0.45626 0.0
C597 C 0.05344 0.59947 0.44208 0.0
C598 C 0.04044 0.6607 0.44365 0.0
Eu599 Eu 0.9992 0.5342 0.46903 0.0
N600 N 0.95268 0.57443 0.47275 0.0
C601 C 0.9187 0.56448 0.47511 0.0
C602 C 0.90047 0.62435 0.47783 0.0
C603 C 0.89214 0.5892 0.4784 0.0
H604 H 0.07216 0.57889 0.43668 0.0
H605 H 0.86527 0.58111 0.48162 0.0
H606 H 0.92551 0.68981 0.47169 0.0
H607 H 0.09148 0.63984 0.4263 0.0
H608 H 0.91188 0.53742 0.47587 0.0
H609 H 0.14439 0.43109 0.57612 0.0
H610 H 0.87984 0.64344 0.48042 0.0
H611 H 0.93783 0.4279 0.62356 0.0
H612 H 0.09672 0.47347 0.58274 0.0
H613 H 0.92009 0.36642 0.63417 0.0
H614 H 0.98703 0.70581 0.45664 0.0
H615 H 0.13149 0.36841 0.5769 0.0
H616 H 0.08709 0.32082 0.586 0.0
H617 H 0.04903 0.68738 0.439 0.0
H618 H 0.02607 0.30318 0.60195 0.0
N619 N 0.05684 0.43544 0.58579 0.0
C620 C 0.09055 0.44628 0.58329 0.0
C621 C 0.11037 0.38693 0.57986 0.0
C622 C 0.07585 0.37589 0.58547 0.0
C623 C 0.11776 0.42228 0.57951 0.0
C624 C 0.04934 0.4011 0.58884 0.0
H625 H 0.96369 0.31998 0.62071 0.0
N626 N 0.99065 0.41621 0.60333 0.0
C627 C 0.9469 0.37301 0.62379 0.0
C628 C 0.01514 0.39118 0.59788 0.0
C629 C 0.95703 0.40775 0.61795 0.0
C630 C 0.97157 0.34688 0.61602 0.0
C631 C 0.00628 0.35578 0.60365 0.0
O632 O 0.98657 0.47351 0.6732 0.0
O633 O 0.98437 0.5224 0.55629 0.0
O634 O 0.02601 0.56302 0.5323 0.0
O635 O 0.05077 0.51632 0.57985 0.0
O636 O 0.95386 0.49231 0.61032 0.0
O637 O 0.04043 0.48779 0.65744 0.0
O638 O 0.02278 0.53058 0.3873 0.0
O639 O 0.02341 0.48565 0.5025 0.0
O640 O 0.98129 0.44609 0.52757 0.0
O641 O 0.95713 0.49278 0.47895 0.0
O642 O 0.05455 0.51616 0.44988 0.0
O643 O 0.96709 0.52617 0.40003 0.0
C644 C 0.95495 0.52074 0.58084 0.0
C645 C 0.02504 0.46148 0.74346 0.0
C646 C 0.02878 0.45692 0.84211 0.0
C647 C 0.01836 0.4751 0.79477 0.0
C648 C 0.04559 0.42474 0.83731 0.0
C649 C 0.04155 0.4292 0.73963 0.0
C650 C 0.05171 0.41094 0.78641 0.0
C651 C 0.04841 0.54989 0.56665 0.0
C652 C 0.01558 0.4817 0.69434 0.0
C653 C 0.03239 0.33052 0.59813 0.0
C654 C 0.06712 0.34056 0.58904 0.0
C655 C 0.05301 0.48738 0.47848 0.0
C656 C 0.98894 0.54927 0.31463 0.0
C657 C 0.99216 0.53427 0.26381 0.0
C658 C 0.99002 0.55486 0.21524 0.0
C659 C 0.98436 0.59078 0.21899 0.0
C660 C 0.983 0.58498 0.31714 0.0
C661 C 0.98068 0.60556 0.26951 0.0
C662 C 0.9587 0.45935 0.49361 0.0
C663 C 0.99325 0.5276 0.36449 0.0
H664 H 0.00579 0.50017 0.79773 0.0
H665 H 0.05369 0.41009 0.87303 0.0
H666 H 0.04684 0.41828 0.70057 0.0
H667 H 0.06453 0.38608 0.78319 0.0
H668 H 0.99626 0.50655 0.26237 0.0
H669 H 0.98337 0.60771 0.18291 0.0
H670 H 0.98048 0.59696 0.3558 0.0
H671 H 0.97641 0.63319 0.27173 0.0
H672 H 0.12316 0.02221 0.46885 0.0
H673 H 0.03883 0.09339 0.44242 0.0
H674 H 0.16447 0.06578 0.43527 0.0
H675 H 0.07999 0.13697 0.40341 0.0
H676 H 0.16573 0.2188 0.3599 0.0
H677 H 0.12166 0.17816 0.39887 0.0
H678 H 0.19218 0.09309 0.3673 0.0
H679 H 0.23626 0.13392 0.33373 0.0
C680 C 0.11345 0.04737 0.45532 0.0
C681 C 0.07766 0.05426 0.45909 0.0
C682 C 0.1373 0.0726 0.43476 0.0
C683 C 0.12639 0.10551 0.41424 0.0
C684 C 0.09022 0.11248 0.4186 0.0
C685 C 0.0663 0.08735 0.44104 0.0
C686 C 0.17153 0.19131 0.36134 0.0
C687 C 0.20458 0.17964 0.34339 0.0
C688 C 0.14611 0.16769 0.38376 0.0
C689 C 0.15274 0.13152 0.38819 0.0
C690 C 0.18562 0.1203 0.36776 0.0
C691 C 0.21113 0.14385 0.34721 0.0
H692 H 0.05671 0.88984 0.56612 0.0
H693 H 0.10085 0.97837 0.63787 0.0
H694 H 0.10103 0.85266 0.60529 0.0
H695 H 0.14409 0.94094 0.67936 0.0
H696 H 0.24157 0.87263 0.68821 0.0
H697 H 0.19508 0.9099 0.65546 0.0
H698 H 0.12225 0.82572 0.68567 0.0
H699 H 0.16937 0.78816 0.71615 0.0
C700 C 0.07583 0.90145 0.59021 0.0
C701 C 0.07548 0.93736 0.59769 0.0
C702 C 0.10107 0.87995 0.61348 0.0
C703 C 0.1265 0.89365 0.64544 0.0
C704 C 0.12549 0.92943 0.65415 0.0
C705 C 0.10043 0.95096 0.63054 0.0
C706 C 0.21551 0.86227 0.68832 0.0
C707 C 0.20899 0.82774 0.70589 0.0
C708 C 0.18873 0.88368 0.66984 0.0
C709 C 0.15463 0.87105 0.66793 0.0
C710 C 0.14814 0.83638 0.68586 0.0
C711 C 0.17505 0.81492 0.70418 0.0
H712 H 0.36108 0.7827 0.85356 0.0
H713 H 0.29537 0.87017 0.81496 0.0
H714 H 0.39845 0.8196 0.90207 0.0
H715 H 0.33445 0.90827 0.85845 0.0
H716 H 0.38951 0.9647 0.98305 0.0
H717 H 0.35149 0.92597 0.93874 0.0
H718 H 0.43986 0.86043 0.89917 0.0
H719 H 0.47659 0.89751 0.94847 0.0
C720 C 0.35524 0.81013 0.85454 0.0
C721 C 0.32551 0.82379 0.83108 0.0
C722 C 0.37677 0.83147 0.88198 0.0
C723 C 0.36966 0.8672 0.8847 0.0
C724 C 0.34037 0.88085 0.859 0.0
C725 C 0.31815 0.8592 0.83338 0.0
C726 C 0.40043 0.94169 0.96529 0.0
C727 C 0.43569 0.93379 0.96905 0.0
C728 C 0.37883 0.91965 0.9392 0.0
C729 C 0.39242 0.88999 0.91449 0.0
C730 C 0.42802 0.88241 0.91849 0.0
C731 C 0.44926 0.90377 0.9464 0.0
H732 H 0.47157 0.08815 0.08766 0.0
H733 H 0.38633 0.01657 0.11249 0.0
H734 H 0.43396 0.13528 0.11815 0.0
H735 H 0.34902 0.06298 0.1453 0.0
H736 H 0.28067 0.15701 0.16339 0.0
H737 H 0.31836 0.11397 0.12186 0.0
H738 H 0.4063 0.15649 0.19774 0.0
H739 H 0.36891 0.20067 0.23679 0.0
C740 C 0.44464 0.08262 0.09899 0.0
C741 C 0.43161 0.04888 0.09636 0.0
C742 C 0.42314 0.10952 0.1173 0.0
C743 C 0.38822 0.10318 0.13432 0.0
C744 C 0.37542 0.06925 0.13159 0.0
C745 C 0.39685 0.04249 0.11309 0.0
C746 C 0.30807 0.15735 0.17109 0.0
C747 C 0.3215 0.18209 0.20444 0.0
C748 C 0.32974 0.13241 0.14747 0.0
C749 C 0.3655 0.13127 0.15671 0.0
C750 C 0.37904 0.15653 0.18913 0.0
C751 C 0.3574 0.18167 0.21236 0.0
H752 H 0.96412 0.9143 0.5899 0.0
H753 H 0.88603 0.9928 0.61339 0.0
H754 H 0.9224 0.86965 0.62324 0.0
H755 H 0.84625 0.95029 0.6526 0.0
H756 H 0.76506 0.87147 0.68994 0.0
H757 H 0.80742 0.91138 0.65065 0.0
H758 H 0.88851 0.83559 0.67915 0.0
H759 H 0.844 0.79374 0.71255 0.0
C760 C 0.93789 0.922 0.60152 0.0
C761 C 0.92809 0.95717 0.59632 0.0
C762 C 0.91384 0.89634 0.62204 0.0
C763 C 0.87956 0.90517 0.64025 0.0
C764 C 0.87097 0.94085 0.63704 0.0
C765 C 0.89435 0.96594 0.6149 0.0
C766 C 0.79198 0.86325 0.68821 0.0
C767 C 0.80092 0.82958 0.70657 0.0
C768 C 0.81699 0.88672 0.66603 0.0
C769 C 0.85275 0.87827 0.66257 0.0
C770 C 0.86175 0.84405 0.68055 0.0
C771 C 0.83617 0.81992 0.70111 0.0
H772 H 0.90603 0.03177 0.41228 0.0
H773 H 0.94659 0.12043 0.48829 0.0
H774 H 0.86304 0.06863 0.36926 0.0
H775 H 0.90217 0.15695 0.44826 0.0
H776 H 0.83557 0.22182 0.33664 0.0
H777 H 0.88214 0.18488 0.36989 0.0
H778 H 0.81118 0.09831 0.38672 0.0
H779 H 0.76543 0.13506 0.35024 0.0
C780 C 0.90562 0.05908 0.4204 0.0
C781 C 0.92957 0.07287 0.45479 0.0
C782 C 0.88064 0.0803 0.39593 0.0
C783 C 0.87857 0.11595 0.40544 0.0
C784 C 0.90291 0.1298 0.43926 0.0
C785 C 0.92819 0.10864 0.46315 0.0
C786 C 0.83025 0.19468 0.34608 0.0
C787 C 0.79712 0.18107 0.33917 0.0
C788 C 0.85683 0.17352 0.36618 0.0
C789 C 0.85074 0.13833 0.38128 0.0
C790 C 0.81736 0.12493 0.37457 0.0
C791 C 0.79095 0.14604 0.35393 0.0
H792 H 0.66764 0.15998 0.28663 0.0
H793 H 0.70313 0.20233 0.1289 0.0
H794 H 0.6283 0.12133 0.24371 0.0
H795 H 0.66373 0.16364 0.08587 0.0
H796 H 0.55428 0.11893 0.04802 0.0
H797 H 0.59484 0.15738 0.08827 0.0
H798 H 0.63808 0.07005 0.17764 0.0
H799 H 0.59858 0.0313 0.13637 0.0
C800 C 0.66673 0.16119 0.2429 0.0
C801 C 0.688 0.18421 0.21099 0.0
C802 C 0.64456 0.13893 0.21838 0.0
C803 C 0.64306 0.13978 0.16166 0.0
C804 C 0.66436 0.1628 0.12973 0.0
C805 C 0.68696 0.18463 0.15424 0.0
C806 C 0.57281 0.10778 0.0754 0.0
C807 C 0.57343 0.07195 0.08833 0.0
C808 C 0.59588 0.12982 0.09857 0.0
C809 C 0.6194 0.1165 0.13589 0.0
C810 C 0.61996 0.08084 0.14912 0.0
C811 C 0.59737 0.05872 0.12531 0.0
H812 H 0.72611 0.85066 0.89051 0.0
H813 H 0.63719 0.80748 0.81831 0.0
H814 H 0.68869 0.89279 0.93466 0.0
H815 H 0.59999 0.85088 0.85997 0.0
H816 H 0.53555 0.91753 0.97291 0.0
H817 H 0.57317 0.87089 0.94102 0.0
H818 H 0.65756 0.94384 0.91387 0.0
H819 H 0.62021 0.98974 0.94816 0.0
C820 C 0.69861 0.85026 0.88359 0.0
C821 C 0.68489 0.82593 0.8498 0.0
C822 C 0.67708 0.87468 0.90875 0.0
C823 C 0.64118 0.87572 0.90064 0.0
C824 C 0.62737 0.85088 0.86774 0.0
C825 C 0.64888 0.82622 0.84299 0.0
C826 C 0.56236 0.9233 0.96142 0.0
C827 C 0.57518 0.9571 0.96434 0.0
C828 C 0.58388 0.89668 0.94227 0.0
C829 C 0.61861 0.90337 0.9246 0.0
C830 C 0.6313 0.9373 0.92798 0.0
C831 C 0.60984 0.96376 0.94738 0.0
H832 H 0.53878 0.59287 0.94177 0.0
H833 H 0.62308 0.52135 0.96624 0.0
H834 H 0.57985 0.63655 0.90295 0.0
H835 H 0.66436 0.56501 0.93286 0.0
H836 H 0.73606 0.63393 0.83253 0.0
H837 H 0.69211 0.5929 0.86572 0.0
H838 H 0.62139 0.67767 0.89818 0.0
H839 H 0.66531 0.71853 0.8595 0.0
C840 C 0.56624 0.58677 0.93998 0.0
C841 C 0.57761 0.55356 0.95747 0.0
C842 C 0.59012 0.61196 0.91765 0.0
C843 C 0.62627 0.60496 0.91284 0.0
C844 C 0.63719 0.5719 0.93271 0.0
C845 C 0.61337 0.54661 0.95316 0.0
C846 C 0.71091 0.64376 0.84611 0.0
C847 C 0.70426 0.67954 0.84258 0.0
C848 C 0.68546 0.62007 0.86645 0.0
C849 C 0.65256 0.63113 0.88702 0.0
C850 C 0.64584 0.6673 0.88293 0.0
C851 C 0.67118 0.69106 0.86069 0.0
H852 H 0.66895 0.2868 0.2145 0.0
H853 H 0.73827 0.37423 0.1987 0.0
H854 H 0.6218 0.32338 0.1809 0.0
H855 H 0.69211 0.41043 0.16274 0.0
H856 H 0.55756 0.38924 0.06142 0.0
H857 H 0.60152 0.35205 0.10166 0.0
H858 H 0.64012 0.43928 0.18386 0.0
H859 H 0.59764 0.47675 0.14106 0.0
C860 C 0.67395 0.31396 0.20432 0.0
C861 C 0.70699 0.32795 0.21056 0.0
C862 C 0.64709 0.33487 0.18428 0.0
C863 C 0.65287 0.37012 0.16912 0.0
C864 C 0.6862 0.38377 0.17506 0.0
C865 C 0.71284 0.36296 0.19534 0.0
C866 C 0.57572 0.40063 0.08742 0.0
C867 C 0.57443 0.43631 0.0967 0.0
C868 C 0.60071 0.3791 0.11132 0.0
C869 C 0.62484 0.39253 0.14584 0.0
C870 C 0.62269 0.428 0.15652 0.0
C871 C 0.59803 0.44956 0.13214 0.0
H872 H 0.96005 0.38857 0.49818 0.0
H873 H 0.90192 0.47677 0.43629 0.0
H874 H 0.92007 0.34968 0.45802 0.0
H875 H 0.86255 0.4378 0.39514 0.0
H876 H 0.77915 0.3559 0.37805 0.0
H877 H 0.81771 0.39391 0.42288 0.0
H878 H 0.9062 0.33477 0.36499 0.0
H879 H 0.86772 0.29622 0.32123 0.0
C880 C 0.93865 0.39967 0.47637 0.0
C881 C 0.93404 0.43575 0.47065 0.0
C882 C 0.91598 0.37739 0.45296 0.0
C883 C 0.8883 0.39078 0.42345 0.0
C884 C 0.88347 0.42681 0.41821 0.0
C885 C 0.90616 0.44909 0.4415 0.0
C886 C 0.8068 0.35099 0.3748 0.0
C887 C 0.8204 0.32331 0.34548 0.0
C888 C 0.82886 0.37284 0.40032 0.0
C889 C 0.86488 0.3673 0.39724 0.0
C890 C 0.87848 0.33944 0.36838 0.0
C891 C 0.85644 0.31763 0.3428 0.0
H892 H 0.78092 0.65833 0.66111 0.0
H893 H 0.86897 0.701 0.73634 0.0
H894 H 0.81865 0.61568 0.61877 0.0
H895 H 0.90638 0.65712 0.6966 0.0
H896 H 0.97209 0.58939 0.58718 0.0
H897 H 0.93438 0.63647 0.61723 0.0
H898 H 0.84897 0.56445 0.64114 0.0
H899 H 0.88642 0.5181 0.60852 0.0
C900 C 0.80828 0.65852 0.66906 0.0
C901 C 0.82165 0.68285 0.70317 0.0
C902 C 0.82999 0.6338 0.64496 0.0
C903 C 0.86569 0.63247 0.65453 0.0
C904 C 0.87917 0.65734 0.6877 0.0
C905 C 0.85751 0.68229 0.71134 0.0
C906 C 0.94504 0.58393 0.59753 0.0
C907 C 0.93192 0.55028 0.59408 0.0
C908 C 0.92346 0.6108 0.61566 0.0
C909 C 0.88841 0.6045 0.63181 0.0
C910 C 0.87549 0.57069 0.62812 0.0
C911 C 0.897 0.54397 0.60971 0.0
H912 H 0.34454 0.2937 0.21249 0.0
H913 H 0.26533 0.37113 0.18963 0.0
H914 H 0.38892 0.33574 0.1791 0.0
H915 H 0.30762 0.41124 0.1505 0.0
H916 H 0.38606 0.49297 0.11405 0.0
H917 H 0.34648 0.45027 0.15357 0.0
H918 H 0.4224 0.36977 0.1221 0.0
H919 H 0.46392 0.41452 0.08839 0.0
C920 C 0.33662 0.31983 0.20097 0.0
C921 C 0.30133 0.32934 0.20631 0.0
C922 C 0.36212 0.34407 0.18045 0.0
C923 C 0.35301 0.37825 0.16246 0.0
C924 C 0.31722 0.38657 0.16585 0.0
C925 C 0.29228 0.36299 0.18794 0.0
C926 C 0.39438 0.46611 0.11519 0.0
C927 C 0.42797 0.45738 0.09585 0.0
C928 C 0.37112 0.44093 0.1375 0.0
C929 C 0.37971 0.40524 0.14016 0.0
C930 C 0.41386 0.39648 0.12131 0.0
C931 C 0.43778 0.4222 0.1006 0.0
H932 H 0.4053 0.53299 0.91293 0.0
H933 H 0.45006 0.62145 0.98401 0.0
H934 H 0.36304 0.57071 0.86972 0.0
H935 H 0.40658 0.65897 0.94323 0.0
H936 H 0.26664 0.64008 0.85709 0.0
H937 H 0.31237 0.60244 0.8913 0.0
H938 H 0.38627 0.68581 0.86238 0.0
H939 H 0.33985 0.72372 0.8305 0.0
C940 C 0.40602 0.56046 0.91981 0.0
C941 C 0.43085 0.57395 0.95299 0.0
C942 C 0.38152 0.58216 0.8952 0.0
C943 C 0.38092 0.61803 0.90322 0.0
C944 C 0.40623 0.63162 0.93555 0.0
C945 C 0.43095 0.60992 0.95978 0.0
C946 C 0.29279 0.65016 0.85748 0.0
C947 C 0.2998 0.6846 0.83994 0.0
C948 C 0.31914 0.62853 0.87684 0.0
C949 C 0.3533 0.64084 0.87964 0.0
C950 C 0.36031 0.67538 0.86156 0.0
C951 C 0.33381 0.69707 0.84241 0.0
H952 H 0.13797 0.71429 0.74245 0.0
H953 H 0.22558 0.65403 0.68339 0.0
H954 H 0.09861 0.67495 0.70142 0.0
H955 H 0.1863 0.61536 0.64181 0.0
H956 H 0.10382 0.53277 0.62714 0.0
H957 H 0.14165 0.57175 0.67113 0.0
H958 H 0.08435 0.65973 0.60736 0.0
H959 H 0.04585 0.62073 0.56402 0.0
C960 C 0.14882 0.69258 0.72109 0.0
C961 C 0.18488 0.68718 0.71638 0.0
C962 C 0.12631 0.6703 0.6972 0.0
C963 C 0.13947 0.64219 0.66846 0.0
C964 C 0.17546 0.63663 0.66424 0.0
C965 C 0.19794 0.65891 0.68787 0.0
C966 C 0.09923 0.5604 0.62236 0.0
C967 C 0.07196 0.57366 0.59176 0.0
C968 C 0.121 0.5827 0.64743 0.0
C969 C 0.1159 0.6187 0.64256 0.0
C970 C 0.08861 0.63203 0.61214 0.0
C971 C 0.06684 0.60971 0.58688 0.0
H972 H 0.13702 0.30803 0.31702 0.0
H973 H 0.22577 0.35025 0.39096 0.0
H974 H 0.09988 0.35155 0.35864 0.0
H975 H 0.18844 0.39243 0.435 0.0
H976 H 0.0355 0.41872 0.47186 0.0
H977 H 0.07269 0.37177 0.43953 0.0
H978 H 0.15802 0.44375 0.41398 0.0
H979 H 0.12119 0.48988 0.44867 0.0
C980 C 0.14868 0.32657 0.34207 0.0
C981 C 0.18465 0.32598 0.34937 0.0
C982 C 0.12721 0.3513 0.36678 0.0
C983 C 0.14101 0.37591 0.4001 0.0
C984 C 0.17683 0.37453 0.40873 0.0
C985 C 0.19832 0.35007 0.38361 0.0
C986 C 0.06244 0.42418 0.4606 0.0
C987 C 0.07571 0.45777 0.4641 0.0
C988 C 0.0837 0.39739 0.44121 0.0
C989 C 0.11857 0.40372 0.42395 0.0
C990 C 0.13164 0.43746 0.4278 0.0
C991 C 0.11048 0.46407 0.44741 0.0
H992 H 0.06962 0.05295 0.90977 0.0
H993 H 0.96392 0.02613 0.88084 0.0
H994 H 0.0623 0.0292 1.0027 0.0
H995 H 0.95573 1.0038 0.97463 0.0
H996 H 0.96178 0.9355 0.12858 0.0
H997 H 0.96905 0.95878 0.03589 0.0
H998 H 0.03706 0.03795 0.0883 0.0
H999 H 0.03221 0.01276 0.18022 0.0
C1000 C 0.04465 0.04227 0.92365 0.0
C1001 C 0.01735 0.04134 0.88814 0.0
C1002 C 0.04031 0.02884 0.97711 0.0
C1003 C 0.00832 0.01462 0.99678 0.0
C1004 C 0.98095 0.0139 0.96101 0.0
C1005 C 0.98552 0.02684 0.90724 0.0
C1006 C 0.97875 0.95755 0.12038 0.0
C1007 C 0.99663 0.97192 0.16231 0.0
C1008 C 0.98246 0.97135 0.06704 0.0
C1009 C 1.00373 1.00034 0.05405 0.0
C1010 C 0.02096 0.01524 0.09622 0.0
C1011 C 0.01766 1.0011 0.14944 0.0
H1012 H 0.3211 0.7042 0.36526 0.0
H1013 H 0.25412 0.78431 0.42866 0.0
H1014 H 0.29959 0.71605 0.27557 0.0
H1015 H 0.23046 0.79413 0.33991 0.0
H1016 H 0.22063 0.83091 0.16425 0.0
H1017 H 0.24302 0.81893 0.25375 0.0
H1018 H 0.2536 0.71052 0.21916 0.0
H1019 H 0.23264 0.72315 0.12862 0.0
C1020 C 0.30168 0.7243 0.36031 0.0
C1021 C 0.28971 0.74346 0.40465 0.0
C1022 C 0.28884 0.73073 0.30871 0.0
C1023 C 0.26322 0.75618 0.29987 0.0
C1024 C 0.25064 0.77477 0.34451 0.0
C1025 C 0.26383 0.76867 0.39597 0.0
C1026 C 0.22777 0.80454 0.1759 0.0
C1027 C 0.22488 0.77798 0.13944 0.0
C1028 C 0.24041 0.79754 0.22746 0.0
C1029 C 0.25003 0.76363 0.24439 0.0
C1030 C 0.24709 0.73706 0.20763 0.0
C1031 C 0.23493 0.74421 0.15568 0.0
H1032 H 0.53025 0.99839 0.68579 0.0
H1033 H 0.45277 0.06841 0.6221 0.0
H1034 H 0.53878 0.97405 0.59727 0.0
H1035 H 0.46344 0.04616 0.53265 0.0
H1036 H 0.46725 0.97908 0.38619 0.0
H1037 H 0.45574 1.00044 0.47676 0.0
H1038 H 0.56387 0.98517 0.51087 0.0
H1039 H 0.57465 0.96237 0.42133 0.0
C1040 C 0.51492 0.00863 0.65308 0.0
C1041 C 0.49084 0.03557 0.6616 0.0
C1042 C 0.5203 0.99502 0.60176 0.0
C1043 C 0.5021 0.00822 0.55711 0.0
C1044 C 0.47776 0.03491 0.5658 0.0
C1045 C 0.47203 0.04816 0.61726 0.0
C1046 C 0.48849 0.98041 0.41317 0.0
C1047 C 0.5218 0.96897 0.39677 0.0
C1048 C 0.48199 0.9928 0.46513 0.0
C1049 C 0.50881 0.9946 0.50174 0.0
C1050 C 0.54228 0.98351 0.4847 0.0
C1051 C 0.5486 0.97062 0.43312 0.0
H1052 H 0.18036 0.21279 0.87938 0.0
H1053 H 0.2575 0.28367 0.93019 0.0
H1054 H 0.2033 0.22018 0.78641 0.0
H1055 H 0.28233 0.28866 0.83807 0.0
H1056 H 0.29711 0.32103 0.65989 0.0
H1057 H 0.27304 0.31377 0.75265 0.0
H1058 H 0.2485 0.20708 0.72484 0.0
H1059 H 0.27118 0.2152 0.63115 0.0
C1060 C 0.20229 0.22989 0.87094 0.0
C1061 C 0.21677 0.24781 0.91273 0.0
C1062 C 0.2159 0.23368 0.81746 0.0
C1063 C 0.24475 0.25511 0.80419 0.0
C1064 C 0.25971 0.27243 0.8462 0.0
C1065 C 0.24578 0.26905 0.89954 0.0
C1066 C 0.28654 0.29606 0.67377 0.0
C1067 C 0.28601 0.26868 0.63839 0.0
C1068 C 0.27292 0.29175 0.72713 0.0
C1069 C 0.25892 0.25972 0.74686 0.0
C1070 C 0.25847 0.23231 0.71117 0.0
C1071 C 0.2716 0.23684 0.65746 0.0
H1072 H 0.75939 0.27893 0.92408 0.0
H1073 H 0.84765 0.21569 0.877 0.0
H1074 H 0.73822 0.27628 0.83269 0.0
H1075 H 0.82715 0.21453 0.7855 0.0
H1076 H 0.79715 0.24809 0.61337 0.0
H1077 H 0.81723 0.25707 0.7044 0.0
H1078 H 0.71604 0.22846 0.774 0.0
H1079 H 0.69614 0.21925 0.6832 0.0
C1080 C 0.77426 0.26436 0.89459 0.0
C1081 C 0.80539 0.2476 0.90837 0.0
C1082 C 0.76221 0.26309 0.84206 0.0
C1083 C 0.78121 0.24549 0.80181 0.0
C1084 C 0.81228 0.22886 0.81536 0.0
C1085 C 0.82406 0.22965 0.86796 0.0
C1086 C 0.77911 0.2443 0.6481 0.0
C1087 C 0.74515 0.23286 0.64131 0.0
C1088 C 0.79064 0.24916 0.70015 0.0
C1089 C 0.76825 0.24326 0.74632 0.0
C1090 C 0.73383 0.23336 0.73923 0.0
C1091 C 0.72249 0.22794 0.68733 0.0
H1092 H 0.73234 0.79396 0.42128 0.0
H1093 H 0.70546 0.68835 0.39272 0.0
H1094 H 0.7548 0.80193 0.32749 0.0
H1095 H 0.72934 0.69545 0.2998 0.0
H1096 H 0.74585 0.72513 0.12223 0.0
H1097 H 0.7206 0.7205 0.21416 0.0
H1098 H 0.79992 0.78849 0.26626 0.0
H1099 H 0.82326 0.79554 0.17353 0.0
C1100 C 0.73165 0.77234 0.39497 0.0
C1101 C 0.71708 0.74059 0.41416 0.0
C1102 C 0.74466 0.77678 0.34119 0.0
C1103 C 0.74396 0.74937 0.30553 0.0
C1104 C 0.72969 0.71747 0.32531 0.0
C1105 C 0.71618 0.71325 0.37876 0.0
C1106 C 0.75753 0.73972 0.15294 0.0
C1107 C 0.78677 0.76068 0.13996 0.0
C1108 C 0.74336 0.73655 0.20617 0.0
C1109 C 0.75828 0.75383 0.24826 0.0
C1110 C 0.78733 0.77503 0.23517 0.0
C1111 C 0.80117 0.77862 0.18181 0.0
H1112 H 0.53262 0.51153 0.67878 0.0
H1113 H 0.45891 0.43731 0.62738 0.0
H1114 H 0.53832 0.53658 0.58682 0.0
H1115 H 0.46692 0.46036 0.53466 0.0
H1116 H 0.46413 0.52805 0.37969 0.0
H1117 H 0.45529 0.50601 0.47353 0.0
H1118 H 0.56296 0.52687 0.5011 0.0
H1119 H 0.57099 0.55037 0.40811 0.0
C1120 C 0.51754 0.50051 0.64804 0.0
C1121 C 0.49533 0.47222 0.66098 0.0
C1122 C 0.5213 0.51455 0.5948 0.0
C1123 C 0.50335 0.50043 0.5527 0.0
C1124 C 0.48093 0.47233 0.56577 0.0
C1125 C 0.47677 0.45864 0.61911 0.0
C1126 C 0.48582 0.52783 0.40599 0.0
C1127 C 0.51819 0.54099 0.38673 0.0
C1128 C 0.48087 0.51505 0.45979 0.0
C1129 C 0.50837 0.51457 0.49542 0.0
C1130 C 0.54089 0.52746 0.4756 0.0
C1131 C 0.54563 0.54075 0.42211 0.0
H1132 H 0.07524 0.46309 0.92093 0.0
H1133 H 0.96842 0.48356 0.88583 0.0
H1134 H 0.06545 0.48647 1.01025 0.0
H1135 H 0.95787 0.50554 0.9762 0.0
H1136 H 0.95754 0.57359 0.12132 0.0
H1137 H 0.96737 0.55107 0.03186 0.0
H1138 H 0.04004 0.47619 0.09664 0.0
H1139 H 0.03245 0.50072 0.18512 0.0
C1140 C 0.04952 0.4723 0.93268 0.0
C1141 C 0.0226 0.47151 0.89642 0.0
C1142 C 0.04377 0.48553 0.98413 0.0
C1143 C 0.01075 0.49784 1.00112 0.0
C1144 C 0.9838 0.49693 0.96459 0.0
C1145 C 0.98974 0.48419 0.91275 0.0
C1146 C 0.97606 0.55267 0.1165 0.0
C1147 C 0.99438 0.53932 0.16088 0.0
C1148 C 0.98128 0.53928 0.06505 0.0
C1149 C 1.00461 0.51171 0.05642 0.0
C1150 C 0.02234 0.49782 0.10109 0.0
C1151 C 0.01749 0.51156 0.15239 0.0
loop_
_geom_bond_atom_site_label_1
_geom_bond_atom_site_label_2
_geom_bond_distance
_geom_bond_site_symmetry_2
_ccdc_geom_bond_type
Eu0 N31 2.647 1_455 S
Eu0 N38 2.609 1_455 S
Eu0 O44 2.563 . S
Eu0 O45 2.616 1_565 S
Eu0 O47 2.331 1_465 S
Eu0 O48 2.571 1_565 S
Eu0 O49 2.417 1_455 S
Eu0 O51 2.376 1_455 S
Eu0 O52 2.440 . S
Eu0 C64 2.849 . S
C1 C4 1.429 . S
C1 C5 1.411 . S
C1 N8 1.377 . S
C2 C4 1.420 . S
C2 C6 1.423 . S
C2 C14 1.392 . S
C3 C5 1.420 . S
C3 C6 1.351 . S
C3 H26 0.931 . S
C4 C1 1.429 . S
C4 C2 1.420 . S
C4 N12 1.362 . S
C5 C1 1.411 . S
C5 C3 1.420 . S
C5 C10 1.395 . S
C6 C2 1.423 . S
C6 C3 1.351 . S
C6 H18 0.930 . S
C7 C9 1.400 . S
C7 C10 1.386 1_655 S
C7 H19 0.930 . S
N8 C1 1.377 . S
N8 C9 1.321 1_455 S
N8 Eu11 2.609 1_455 S
C9 C7 1.400 . S
C9 N8 1.321 1_655 S
C9 H16 0.930 . S
C10 C5 1.395 . S
C10 C7 1.386 1_455 S
C10 H29 0.931 . S
Eu11 N8 2.609 1_655 S
Eu11 N12 2.654 1_655 S
Eu11 O45 2.379 1_655 S
Eu11 O46 2.434 . S
Eu11 O50 2.560 . S
Eu11 O51 2.613 1_545 S
Eu11 O53 2.337 1_645 S
Eu11 O54 2.565 1_545 S
Eu11 O55 2.418 1_655 S
Eu11 C75 2.848 . S
N12 C4 1.362 . S
N12 Eu11 2.654 1_455 S
N12 C13 1.334 . S
C13 N12 1.334 . S
C13 C15 1.413 . S
C13 H20 0.929 . S
C14 C2 1.392 . S
C14 C15 1.367 . S
C14 H22 0.930 . S
C15 C13 1.413 . S
C15 C14 1.367 . S
C15 H17 0.930 . S
H16 C9 0.930 . S
H17 C15 0.930 . S
H18 C6 0.930 . S
H19 C7 0.930 . S
H20 C13 0.929 . S
H21 C35 0.930 . S
H22 C14 0.930 . S
H23 C41 0.930 . S
H24 C32 0.929 . S
H25 C39 0.930 . S
H26 C3 0.931 . S
H27 C33 0.930 . S
H28 C66 0.930 . S
H29 C10 0.931 . S
H30 C65 0.931 . S
N31 Eu0 2.647 1_655 S
N31 C32 1.334 . S
N31 C36 1.362 . S
C32 H24 0.929 . S
C32 N31 1.334 . S
C32 C35 1.413 . S
C33 H27 0.930 . S
C33 C34 1.392 . S
C33 C35 1.367 . S
C34 C33 1.392 . S
C34 C36 1.420 . S
C34 C66 1.423 . S
C35 H21 0.930 . S
C35 C32 1.413 . S
C35 C33 1.367 . S
C36 N31 1.362 . S
C36 C34 1.420 . S
C36 C40 1.429 . S
H37 C42 0.930 . S
N38 Eu0 2.609 1_655 S
N38 C40 1.377 . S
N38 C41 1.321 1_655 S
C39 H25 0.930 . S
C39 C41 1.400 . S
C39 C42 1.386 1_455 S
C40 C36 1.429 . S
C40 N38 1.377 . S
C40 C43 1.411 . S
C41 H23 0.930 . S
C41 N38 1.321 1_455 S
C41 C39 1.400 . S
C42 H37 0.930 . S
C42 C39 1.386 1_655 S
C42 C43 1.395 . S
C43 C40 1.411 . S
C43 C42 1.395 . S
C43 C65 1.420 . S
O44 Eu0 2.563 . S
O44 C64 1.257 . S
O45 Eu0 2.616 1_545 S
O45 Eu11 2.379 1_455 S
O45 C56 1.276 . S
O46 Eu11 2.434 . S
O46 C63 1.264 . S
O47 Eu0 2.331 1_645 S
O47 C63 1.254 . S
O48 Eu0 2.571 1_545 S
O48 C56 1.235 . S
O49 Eu0 2.417 1_655 S
O49 C64 1.249 1_655 S
O50 Eu11 2.560 . S
O50 C75 1.257 . S
O51 Eu0 2.376 1_655 S
O51 Eu11 2.613 1_565 S
O51 C67 1.276 . S
O52 Eu0 2.440 . S
O52 C74 1.264 . S
O53 Eu11 2.337 1_465 S
O53 C74 1.254 . S
O54 Eu11 2.565 1_565 S
O54 C67 1.235 . S
O55 Eu11 2.418 1_455 S
O55 C75 1.249 1_455 S
C56 O45 1.276 . S
C56 O48 1.235 . S
C57 C59 1.393 . S
C57 C61 1.395 . S
C57 C64 1.492 . S
C58 C59 1.392 . S
C58 C60 1.386 . S
C59 C57 1.393 . S
C59 C58 1.392 . S
C59 H76 0.930 1_465 S
C60 C58 1.386 . S
C60 C62 1.395 . S
C60 H77 0.930 . S
C61 C57 1.395 . S
C61 C62 1.379 . S
C61 H78 0.930 . S
C62 C60 1.395 . S
C62 C61 1.379 . S
C62 H79 0.930 . S
C63 O46 1.264 . S
C63 O47 1.254 . S
C64 Eu0 2.849 . S
C64 O44 1.257 . S
C64 O49 1.249 1_455 S
C64 C57 1.492 . S
C65 H30 0.931 . S
C65 C43 1.420 . S
C65 C66 1.351 . S
C66 H28 0.930 . S
C66 C34 1.423 . S
C66 C65 1.351 . S
C67 O51 1.276 . S
C67 O54 1.235 . S
C68 C69 1.393 . S
C68 C72 1.395 . S
C68 C75 1.492 . S
C69 C68 1.393 . S
C69 C70 1.392 . S
C69 H80 0.930 1_645 S
C70 C69 1.392 . S
C70 C71 1.386 . S
C71 C70 1.386 . S
C71 C73 1.395 . S
C71 H81 0.930 . S
C72 C68 1.395 . S
C72 C73 1.379 . S
C72 H82 0.930 . S
C73 C71 1.395 . S
C73 C72 1.379 . S
C73 H83 0.930 . S
C74 O52 1.264 . S
C74 O53 1.254 . S
C75 Eu11 2.848 . S
C75 O50 1.257 . S
C75 O55 1.249 1_655 S
C75 C68 1.492 . S
H76 C59 0.930 1_645 S
H77 C60 0.930 . S
H78 C61 0.930 . S
H79 C62 0.930 . S
H80 C69 0.930 1_465 S
H81 C71 0.930 . S
H82 C72 0.930 . S
H83 C73 0.930 . S
Eu84 N115 2.657 . S
Eu84 N122 2.609 . S
Eu84 O128 2.558 . S
Eu84 O129 2.612 . S
Eu84 O131 2.339 . S
Eu84 O132 2.563 . S
Eu84 O133 2.419 . S
Eu84 O135 2.380 . S
Eu84 O136 2.432 . S
Eu84 C148 2.848 . S
C85 C88 1.429 . S
C85 C89 1.411 . S
C85 N92 1.377 . S
C86 C88 1.420 . S
C86 C90 1.423 . S
C86 C98 1.392 . S
C87 C89 1.420 . S
C87 C90 1.351 . S
C87 H110 0.931 . S
C88 C85 1.429 . S
C88 C86 1.420 . S
C88 N96 1.362 . S
C89 C85 1.411 . S
C89 C87 1.420 . S
C89 C94 1.395 . S
C90 C86 1.423 . S
C90 C87 1.351 . S
C90 H102 0.930 . S
C91 C93 1.400 . S
C91 C94 1.386 . S
C91 H103 0.930 . S
N92 C85 1.377 . S
N92 C93 1.321 . S
N92 Eu95 2.609 . S
C93 C91 1.400 . S
C93 N92 1.321 . S
C93 H100 0.930 . S
C94 C89 1.395 . S
C94 C91 1.386 . S
C94 H113 0.930 . S
Eu95 N92 2.609 . S
Eu95 N96 2.657 . S
Eu95 O129 2.380 . S
Eu95 O130 2.432 . S
Eu95 O134 2.558 . S
Eu95 O135 2.612 . S
Eu95 O137 2.339 . S
Eu95 O138 2.563 . S
Eu95 O139 2.419 . S
Eu95 C159 2.848 . S
N96 C88 1.362 . S
N96 Eu95 2.657 . S
N96 C97 1.334 . S
C97 N96 1.334 . S
C97 C99 1.413 . S
C97 H104 0.929 . S
C98 C86 1.392 . S
C98 C99 1.367 . S
C98 H106 0.930 . S
C99 C97 1.413 . S
C99 C98 1.367 . S
C99 H101 0.930 . S
H100 C93 0.930 . S
H101 C99 0.930 . S
H102 C90 0.930 . S
H103 C91 0.930 . S
H104 C97 0.929 . S
H105 C119 0.930 . S
H106 C98 0.930 . S
H107 C125 0.930 . S
H108 C116 0.929 . S
H109 C123 0.930 . S
H110 C87 0.931 . S
H111 C117 0.930 . S
H112 C150 0.930 . S
H113 C94 0.930 . S
H114 C149 0.931 . S
N115 Eu84 2.657 . S
N115 C116 1.334 . S
N115 C120 1.362 . S
C116 H108 0.929 . S
C116 N115 1.334 . S
C116 C119 1.413 . S
C117 H111 0.930 . S
C117 C118 1.392 . S
C117 C119 1.367 . S
C118 C117 1.392 . S
C118 C120 1.420 . S
C118 C150 1.423 . S
C119 H105 0.930 . S
C119 C116 1.413 . S
C119 C117 1.367 . S
C120 N115 1.362 . S
C120 C118 1.420 . S
C120 C124 1.429 . S
H121 C126 0.930 . S
N122 Eu84 2.609 . S
N122 C124 1.377 . S
N122 C125 1.321 . S
C123 H109 0.930 . S
C123 C125 1.400 . S
C123 C126 1.386 . S
C124 C120 1.429 . S
C124 N122 1.377 . S
C124 C127 1.411 . S
C125 H107 0.930 . S
C125 N122 1.321 . S
C125 C123 1.400 . S
C126 H121 0.930 . S
C126 C123 1.386 . S
C126 C127 1.395 . S
C127 C124 1.411 . S
C127 C126 1.395 . S
C127 C149 1.420 . S
O128 Eu84 2.558 . S
O128 C148 1.257 . S
O129 Eu84 2.612 . S
O129 Eu95 2.380 . S
O129 C140 1.276 . S
O130 Eu95 2.432 . S
O130 C147 1.264 . S
O131 Eu84 2.339 . S
O131 C147 1.254 . S
O132 Eu84 2.563 . S
O132 C140 1.235 . S
O133 Eu84 2.419 . S
O133 C148 1.249 . S
O134 Eu95 2.558 . S
O134 C159 1.257 . S
O135 Eu84 2.380 . S
O135 Eu95 2.612 . S
O135 C151 1.276 . S
O136 Eu84 2.432 . S
O136 C158 1.264 . S
O137 Eu95 2.339 . S
O137 C158 1.254 . S
O138 Eu95 2.563 . S
O138 C151 1.235 . S
O139 Eu95 2.419 . S
O139 C159 1.249 . S
C140 O129 1.276 . S
C140 O132 1.235 . S
C141 C143 1.393 . S
C141 C145 1.395 . S
C141 C148 1.492 . S
C142 C143 1.392 . S
C142 C144 1.386 . S
C143 C141 1.393 . S
C143 C142 1.392 . S
C143 H160 0.930 . S
C144 C142 1.386 . S
C144 C146 1.395 . S
C144 H161 0.930 . S
C145 C141 1.395 . S
C145 C146 1.379 . S
C145 H162 0.930 . S
C146 C144 1.395 . S
C146 C145 1.379 . S
C146 H163 0.930 . S
C147 O130 1.264 . S
C147 O131 1.254 . S
C148 Eu84 2.848 . S
C148 O128 1.257 . S
C148 O133 1.249 . S
C148 C141 1.492 . S
C149 H114 0.931 . S
C149 C127 1.420 . S
C149 C150 1.351 . S
C150 H112 0.930 . S
C150 C118 1.423 . S
C150 C149 1.351 . S
C151 O135 1.276 . S
C151 O138 1.235 . S
C152 C153 1.393 1_556 S
C152 C156 1.395 1_556 S
C152 C159 1.492 . S
C153 C152 1.393 1_554 S
C153 C154 1.392 . S
C153 H164 0.930 1_554 S
C154 C153 1.392 . S
C154 C155 1.386 . S
C155 C154 1.386 . S
C155 C157 1.395 . S
C155 H165 0.930 . S
C156 C152 1.395 1_554 S
C156 C157 1.379 . S
C156 H166 0.930 1_554 S
C157 C155 1.395 . S
C157 C156 1.379 . S
C157 H167 0.930 . S
C158 O136 1.264 . S
C158 O137 1.254 . S
C159 Eu95 2.848 . S
C159 O134 1.257 . S
C159 O139 1.249 . S
C159 C152 1.492 . S
H160 C143 0.930 . S
H161 C144 0.930 . S
H162 C145 0.930 . S
H163 C146 0.930 . S
H164 C153 0.930 1_556 S
H165 C155 0.930 . S
H166 C156 0.930 1_556 S
H167 C157 0.930 . S
Eu168 N199 2.657 . S
Eu168 N206 2.609 . S
Eu168 O212 2.558 . S
Eu168 O213 2.612 1_565 S
Eu168 O215 2.339 1_565 S
Eu168 O216 2.563 1_565 S
Eu168 O217 2.419 . S
Eu168 O219 2.380 1_554 S
Eu168 O220 2.432 . S
Eu168 C232 2.848 . S
C169 C172 1.429 . S
C169 C173 1.411 . S
C169 N176 1.377 . S
C170 C172 1.420 . S
C170 C174 1.423 . S
C170 C182 1.392 . S
C171 C173 1.420 . S
C171 C174 1.351 . S
C171 H194 0.931 . S
C172 C169 1.429 . S
C172 C170 1.420 . S
C172 N180 1.362 . S
C173 C169 1.411 . S
C173 C171 1.420 . S
C173 C178 1.395 . S
C174 C170 1.423 . S
C174 C171 1.351 . S
C174 H186 0.930 . S
C175 C177 1.400 . S
C175 C178 1.386 . S
C175 H187 0.930 . S
N176 C169 1.377 . S
N176 C177 1.321 . S
N176 Eu179 2.609 . S
C177 C175 1.400 . S
C177 N176 1.321 . S
C177 H184 0.930 . S
C178 C173 1.395 . S
C178 C175 1.386 . S
C178 H197 0.930 . S
Eu179 N176 2.609 . S
Eu179 N180 2.657 . S
Eu179 O213 2.380 1_556 S
Eu179 O214 2.432 . S
Eu179 O218 2.558 . S
Eu179 O219 2.612 1_545 S
Eu179 O221 2.339 1_545 S
Eu179 O222 2.563 1_545 S
Eu179 O223 2.419 . S
Eu179 C243 2.848 . S
N180 C172 1.362 . S
N180 Eu179 2.657 . S
N180 C181 1.334 . S
C181 N180 1.334 . S
C181 C183 1.413 . S
C181 H188 0.929 . S
C182 C170 1.392 . S
C182 C183 1.367 . S
C182 H190 0.930 . S
C183 C181 1.413 . S
C183 C182 1.367 . S
C183 H185 0.930 . S
H184 C177 0.930 . S
H185 C183 0.930 . S
H186 C174 0.930 . S
H187 C175 0.930 . S
H188 C181 0.929 . S
H189 C203 0.930 . S
H190 C182 0.930 . S
H191 C209 0.930 . S
H192 C200 0.929 . S
H193 C207 0.930 . S
H194 C171 0.931 . S
H195 C201 0.930 . S
H196 C234 0.930 . S
H197 C178 0.930 . S
H198 C233 0.931 . S
N199 Eu168 2.657 . S
N199 C200 1.334 . S
N199 C204 1.362 . S
C200 H192 0.929 . S
C200 N199 1.334 . S
C200 C203 1.413 . S
C201 H195 0.930 . S
C201 C202 1.392 . S
C201 C203 1.367 . S
C202 C201 1.392 . S
C202 C204 1.420 . S
C202 C234 1.423 . S
C203 H189 0.930 . S
C203 C200 1.413 . S
C203 C201 1.367 . S
C204 N199 1.362 . S
C204 C202 1.420 . S
C204 C208 1.429 . S
H205 C210 0.930 . S
N206 Eu168 2.609 . S
N206 C208 1.377 . S
N206 C209 1.321 . S
C207 H193 0.930 . S
C207 C209 1.400 . S
C207 C210 1.386 . S
C208 C204 1.429 . S
C208 N206 1.377 . S
C208 C211 1.411 . S
C209 H191 0.930 . S
C209 N206 1.321 . S
C209 C207 1.400 . S
C210 H205 0.930 . S
C210 C207 1.386 . S
C210 C211 1.395 . S
C211 C208 1.411 . S
C211 C210 1.395 . S
C211 C233 1.420 . S
O212 Eu168 2.558 . S
O212 C232 1.257 . S
O213 Eu168 2.612 1_545 S
O213 Eu179 2.380 1_554 S
O213 C224 1.276 . S
O214 Eu179 2.432 . S
O214 C231 1.264 1_556 S
O215 Eu168 2.339 1_545 S
O215 C231 1.254 . S
O216 Eu168 2.563 1_545 S
O216 C224 1.235 . S
O217 Eu168 2.419 . S
O217 C232 1.249 . S
O218 Eu179 2.558 . S
O218 C243 1.257 . S
O219 Eu168 2.380 1_556 S
O219 Eu179 2.612 1_565 S
O219 C235 1.276 . S
O220 Eu168 2.432 . S
O220 C242 1.264 1_554 S
O221 Eu179 2.339 1_565 S
O221 C242 1.254 . S
O222 Eu179 2.563 1_565 S
O222 C235 1.235 . S
O223 Eu179 2.419 . S
O223 C243 1.249 . S
C224 O213 1.276 . S
C224 O216 1.235 . S
C225 C227 1.393 . S
C225 C229 1.395 . S
C225 C232 1.492 . S
C226 C227 1.392 . S
C226 C228 1.386 . S
C227 C225 1.393 . S
C227 C226 1.392 . S
C227 H244 0.930 1_565 S
C228 C226 1.386 . S
C228 C230 1.395 . S
C228 H245 0.930 . S
C229 C225 1.395 . S
C229 C230 1.379 . S
C229 H246 0.930 . S
C230 C228 1.395 . S
C230 C229 1.379 . S
C230 H247 0.930 . S
C231 O214 1.264 1_554 S
C231 O215 1.254 . S
C232 Eu168 2.848 . S
C232 O212 1.257 . S
C232 O217 1.249 . S
C232 C225 1.492 . S
C233 H198 0.931 . S
C233 C211 1.420 . S
C233 C234 1.351 . S
C234 H196 0.930 . S
C234 C202 1.423 . S
C234 C233 1.351 . S
C235 O219 1.276 . S
C235 O222 1.235 . S
C236 C237 1.393 . S
C236 C240 1.395 . S
C236 C243 1.492 . S
C237 C236 1.393 . S
C237 C238 1.392 . S
C237 H248 0.930 1_545 S
C238 C237 1.392 . S
C238 C239 1.386 . S
C239 C238 1.386 . S
C239 C241 1.395 . S
C239 H249 0.930 . S
C240 C236 1.395 . S
C240 C241 1.379 . S
C240 H250 0.930 . S
C241 C239 1.395 . S
C241 C240 1.379 . S
C241 H251 0.930 . S
C242 O220 1.264 1_556 S
C242 O221 1.254 . S
C243 Eu179 2.848 . S
C243 O218 1.257 . S
C243 O223 1.249 . S
C243 C236 1.492 . S
H244 C227 0.930 1_545 S
H245 C228 0.930 . S
H246 C229 0.930 . S
H247 C230 0.930 . S
H248 C237 0.930 1_565 S
H249 C239 0.930 . S
H250 C240 0.930 . S
H251 C241 0.930 . S
Eu252 N283 2.657 . S
Eu252 N290 2.609 . S
Eu252 O296 2.558 . S
Eu252 O297 2.612 . S
Eu252 O299 2.339 . S
Eu252 O300 2.563 . S
Eu252 O301 2.419 . S
Eu252 O303 2.380 . S
Eu252 O304 2.432 . S
Eu252 C316 2.848 . S
C253 C256 1.429 . S
C253 C257 1.411 . S
C253 N260 1.377 . S
C254 C256 1.420 . S
C254 C258 1.423 . S
C254 C266 1.392 . S
C255 C257 1.420 . S
C255 C258 1.351 . S
C255 H278 0.931 . S
C256 C253 1.429 . S
C256 C254 1.420 . S
C256 N264 1.362 . S
C257 C253 1.411 . S
C257 C255 1.420 . S
C257 C262 1.395 . S
C258 C254 1.423 . S
C258 C255 1.351 . S
C258 H270 0.930 . S
C259 C261 1.400 . S
C259 C262 1.386 . S
C259 H271 0.930 . S
N260 C253 1.377 . S
N260 C261 1.321 . S
N260 Eu263 2.609 . S
C261 C259 1.400 . S
C261 N260 1.321 . S
C261 H268 0.930 . S
C262 C257 1.395 . S
C262 C259 1.386 . S
C262 H281 0.930 . S
Eu263 N260 2.609 . S
Eu263 N264 2.657 . S
Eu263 O297 2.380 . S
Eu263 O298 2.432 . S
Eu263 O302 2.558 . S
Eu263 O303 2.612 . S
Eu263 O305 2.339 . S
Eu263 O306 2.563 . S
Eu263 O307 2.419 . S
Eu263 C327 2.848 . S
N264 C256 1.362 . S
N264 Eu263 2.657 . S
N264 C265 1.334 . S
C265 N264 1.334 . S
C265 C267 1.413 . S
C265 H272 0.929 . S
C266 C254 1.392 . S
C266 C267 1.367 . S
C266 H274 0.930 . S
C267 C265 1.413 . S
C267 C266 1.367 . S
C267 H269 0.930 . S
H268 C261 0.930 . S
H269 C267 0.930 . S
H270 C258 0.930 . S
H271 C259 0.930 . S
H272 C265 0.929 . S
H273 C287 0.930 . S
H274 C266 0.930 . S
H275 C293 0.930 . S
H276 C284 0.929 . S
H277 C291 0.930 . S
H278 C255 0.931 . S
H279 C285 0.930 . S
H280 C318 0.930 . S
H281 C262 0.930 . S
H282 C317 0.931 . S
N283 Eu252 2.657 . S
N283 C284 1.334 . S
N283 C288 1.362 . S
C284 H276 0.929 . S
C284 N283 1.334 . S
C284 C287 1.413 . S
C285 H279 0.930 . S
C285 C286 1.392 . S
C285 C287 1.367 . S
C286 C285 1.392 . S
C286 C288 1.420 . S
C286 C318 1.423 . S
C287 H273 0.930 . S
C287 C284 1.413 . S
C287 C285 1.367 . S
C288 N283 1.362 . S
C288 C286 1.420 . S
C288 C292 1.429 . S
H289 C294 0.930 . S
N290 Eu252 2.609 . S
N290 C292 1.377 . S
N290 C293 1.321 . S
C291 H277 0.930 . S
C291 C293 1.400 . S
C291 C294 1.386 . S
C292 C288 1.429 . S
C292 N290 1.377 . S
C292 C295 1.411 . S
C293 H275 0.930 . S
C293 N290 1.321 . S
C293 C291 1.400 . S
C294 H289 0.930 . S
C294 C291 1.386 . S
C294 C295 1.395 . S
C295 C292 1.411 . S
C295 C294 1.395 . S
C295 C317 1.420 . S
O296 Eu252 2.558 . S
O296 C316 1.257 . S
O297 Eu252 2.612 . S
O297 Eu263 2.380 . S
O297 C308 1.276 . S
O298 Eu263 2.432 . S
O298 C315 1.264 . S
O299 Eu252 2.339 . S
O299 C315 1.254 . S
O300 Eu252 2.563 . S
O300 C308 1.235 . S
O301 Eu252 2.419 . S
O301 C316 1.249 . S
O302 Eu263 2.558 . S
O302 C327 1.257 . S
O303 Eu252 2.380 . S
O303 Eu263 2.612 . S
O303 C319 1.276 . S
O304 Eu252 2.432 . S
O304 C326 1.264 . S
O305 Eu263 2.339 . S
O305 C326 1.254 . S
O306 Eu263 2.563 . S
O306 C319 1.235 . S
O307 Eu263 2.419 . S
O307 C327 1.249 . S
C308 O297 1.276 . S
C308 O300 1.235 . S
C309 C311 1.393 . S
C309 C313 1.395 . S
C309 C316 1.492 . S
C310 C311 1.392 . S
C310 C312 1.386 . S
C311 C309 1.393 . S
C311 C310 1.392 . S
C311 H328 0.930 . S
C312 C310 1.386 . S
C312 C314 1.395 . S
C312 H329 0.930 . S
C313 C309 1.395 . S
C313 C314 1.379 . S
C313 H330 0.930 . S
C314 C312 1.395 . S
C314 C313 1.379 . S
C314 H331 0.930 . S
C315 O298 1.264 . S
C315 O299 1.254 . S
C316 Eu252 2.848 . S
C316 O296 1.257 . S
C316 O301 1.249 . S
C316 C309 1.492 . S
C317 H282 0.931 . S
C317 C295 1.420 . S
C317 C318 1.351 . S
C318 H280 0.930 . S
C318 C286 1.423 . S
C318 C317 1.351 . S
C319 O303 1.276 . S
C319 O306 1.235 . S
C320 C321 1.393 1_554 S
C320 C324 1.395 1_554 S
C320 C327 1.492 . S
C321 C320 1.393 1_556 S
C321 C322 1.392 . S
C321 H332 0.930 1_556 S
C322 C321 1.392 . S
C322 C323 1.386 . S
C323 C322 1.386 . S
C323 C325 1.395 . S
C323 H333 0.930 . S
C324 C320 1.395 1_556 S
C324 C325 1.379 . S
C324 H334 0.930 1_556 S
C325 C323 1.395 . S
C325 C324 1.379 . S
C325 H335 0.930 . S
C326 O304 1.264 . S
C326 O305 1.254 . S
C327 Eu263 2.848 . S
C327 O302 1.257 . S
C327 O307 1.249 . S
C327 C320 1.492 . S
H328 C311 0.930 . S
H329 C312 0.930 . S
H330 C313 0.930 . S
H331 C314 0.930 . S
H332 C321 0.930 1_554 S
H333 C323 0.930 . S
H334 C324 0.930 1_554 S
H335 C325 0.930 . S
Eu336 N367 2.657 . S
Eu336 N374 2.609 . S
Eu336 O380 2.558 . S
Eu336 O381 2.612 . S
Eu336 O383 2.339 . S
Eu336 O384 2.563 . S
Eu336 O385 2.419 . S
Eu336 O387 2.380 . S
Eu336 O388 2.432 . S
Eu336 C400 2.848 . S
C337 C340 1.429 . S
C337 C341 1.411 . S
C337 N344 1.377 . S
C338 C340 1.420 . S
C338 C342 1.423 . S
C338 C350 1.392 . S
C339 C341 1.420 . S
C339 C342 1.351 . S
C339 H362 0.931 . S
C340 C337 1.429 . S
C340 C338 1.420 . S
C340 N348 1.362 . S
C341 C337 1.411 . S
C341 C339 1.420 . S
C341 C346 1.395 . S
C342 C338 1.423 . S
C342 C339 1.351 . S
C342 H354 0.930 . S
C343 C345 1.400 . S
C343 C346 1.386 . S
C343 H355 0.930 . S
N344 C337 1.377 . S
N344 C345 1.321 . S
N344 Eu347 2.609 . S
C345 C343 1.400 . S
C345 N344 1.321 . S
C345 H352 0.930 . S
C346 C341 1.395 . S
C346 C343 1.386 . S
C346 H365 0.930 . S
Eu347 N344 2.609 . S
Eu347 N348 2.657 . S
Eu347 O381 2.380 . S
Eu347 O382 2.432 . S
Eu347 O386 2.558 . S
Eu347 O387 2.612 . S
Eu347 O389 2.339 . S
Eu347 O390 2.563 . S
Eu347 O391 2.419 . S
Eu347 C411 2.848 . S
N348 C340 1.362 . S
N348 Eu347 2.657 . S
N348 C349 1.334 . S
C349 N348 1.334 . S
C349 C351 1.413 . S
C349 H356 0.929 . S
C350 C338 1.392 . S
C350 C351 1.367 . S
C350 H358 0.930 . S
C351 C349 1.413 . S
C351 C350 1.367 . S
C351 H353 0.930 . S
H352 C345 0.930 . S
H353 C351 0.930 . S
H354 C342 0.930 . S
H355 C343 0.930 . S
H356 C349 0.929 . S
H357 C371 0.930 . S
H358 C350 0.930 . S
H359 C377 0.930 . S
H360 C368 0.929 . S
H361 C375 0.930 . S
H362 C339 0.931 . S
H363 C369 0.930 . S
H364 C402 0.930 . S
H365 C346 0.930 . S
H366 C401 0.931 . S
N367 Eu336 2.657 . S
N367 C368 1.334 . S
N367 C372 1.362 . S
C368 H360 0.929 . S
C368 N367 1.334 . S
C368 C371 1.413 . S
C369 H363 0.930 . S
C369 C370 1.392 . S
C369 C371 1.367 . S
C370 C369 1.392 . S
C370 C372 1.420 . S
C370 C402 1.423 . S
C371 H357 0.930 . S
C371 C368 1.413 . S
C371 C369 1.367 . S
C372 N367 1.362 . S
C372 C370 1.420 . S
C372 C376 1.429 . S
H373 C378 0.930 . S
N374 Eu336 2.609 . S
N374 C376 1.377 . S
N374 C377 1.321 . S
C375 H361 0.930 . S
C375 C377 1.400 . S
C375 C378 1.386 . S
C376 C372 1.429 . S
C376 N374 1.377 . S
C376 C379 1.411 . S
C377 H359 0.930 . S
C377 N374 1.321 . S
C377 C375 1.400 . S
C378 H373 0.930 . S
C378 C375 1.386 . S
C378 C379 1.395 . S
C379 C376 1.411 . S
C379 C378 1.395 . S
C379 C401 1.420 . S
O380 Eu336 2.558 . S
O380 C400 1.257 . S
O381 Eu336 2.612 . S
O381 Eu347 2.380 . S
O381 C392 1.276 . S
O382 Eu347 2.432 . S
O382 C399 1.264 . S
O383 Eu336 2.339 . S
O383 C399 1.254 . S
O384 Eu336 2.563 . S
O384 C392 1.235 . S
O385 Eu336 2.419 . S
O385 C400 1.249 . S
O386 Eu347 2.558 . S
O386 C411 1.257 . S
O387 Eu336 2.380 . S
O387 Eu347 2.612 . S
O387 C403 1.276 . S
O388 Eu336 2.432 . S
O388 C410 1.264 . S
O389 Eu347 2.339 . S
O389 C410 1.254 . S
O390 Eu347 2.563 . S
O390 C403 1.235 . S
O391 Eu347 2.419 . S
O391 C411 1.249 . S
C392 O381 1.276 . S
C392 O384 1.235 . S
C393 C395 1.393 1_554 S
C393 C397 1.395 1_554 S
C393 C400 1.492 . S
C394 C395 1.392 . S
C394 C396 1.386 . S
C395 C393 1.393 1_556 S
C395 C394 1.392 . S
C395 H412 0.930 1_556 S
C396 C394 1.386 . S
C396 C398 1.395 . S
C396 H413 0.930 . S
C397 C393 1.395 1_556 S
C397 C398 1.379 . S
C397 H414 0.930 1_556 S
C398 C396 1.395 . S
C398 C397 1.379 . S
C398 H415 0.930 . S
C399 O382 1.264 . S
C399 O383 1.254 . S
C400 Eu336 2.848 . S
C400 O380 1.257 . S
C400 O385 1.249 . S
C400 C393 1.492 . S
C401 H366 0.931 . S
C401 C379 1.420 . S
C401 C402 1.351 . S
C402 H364 0.930 . S
C402 C370 1.423 . S
C402 C401 1.351 . S
C403 O387 1.276 . S
C403 O390 1.235 . S
C404 C405 1.393 . S
C404 C408 1.395 . S
C404 C411 1.492 . S
C405 C404 1.393 . S
C405 C406 1.392 . S
C405 H416 0.930 . S
C406 C405 1.392 . S
C406 C407 1.386 . S
C407 C406 1.386 . S
C407 C409 1.395 . S
C407 H417 0.930 . S
C408 C404 1.395 . S
C408 C409 1.379 . S
C408 H418 0.930 . S
C409 C407 1.395 . S
C409 C408 1.379 . S
C409 H419 0.930 . S
C410 O388 1.264 . S
C410 O389 1.254 . S
C411 Eu347 2.848 . S
C411 O386 1.257 . S
C411 O391 1.249 . S
C411 C404 1.492 . S
H412 C395 0.930 1_554 S
H413 C396 0.930 . S
H414 C397 0.930 1_554 S
H415 C398 0.930 . S
H416 C405 0.930 . S
H417 C407 0.930 . S
H418 C408 0.930 . S
H419 C409 0.930 . S
Eu420 N451 2.657 . S
Eu420 N458 2.609 . S
Eu420 O464 2.558 . S
Eu420 O465 2.612 . S
Eu420 O467 2.339 . S
Eu420 O468 2.563 . S
Eu420 O469 2.419 . S
Eu420 O471 2.380 . S
Eu420 O472 2.432 . S
Eu420 C484 2.848 . S
C421 C424 1.429 . S
C421 C425 1.411 . S
C421 N428 1.377 . S
C422 C424 1.420 . S
C422 C426 1.423 . S
C422 C434 1.392 . S
C423 C425 1.420 . S
C423 C426 1.351 . S
C423 H446 0.931 . S
C424 C421 1.429 . S
C424 C422 1.420 . S
C424 N432 1.362 . S
C425 C421 1.411 . S
C425 C423 1.420 . S
C425 C430 1.395 . S
C426 C422 1.423 . S
C426 C423 1.351 . S
C426 H438 0.930 . S
C427 C429 1.400 . S
C427 C430 1.386 . S
C427 H439 0.930 . S
N428 C421 1.377 . S
N428 C429 1.321 . S
N428 Eu431 2.609 . S
C429 C427 1.400 . S
C429 N428 1.321 . S
C429 H436 0.930 . S
C430 C425 1.395 . S
C430 C427 1.386 . S
C430 H449 0.930 . S
Eu431 N428 2.609 . S
Eu431 N432 2.657 . S
Eu431 O465 2.380 . S
Eu431 O466 2.432 . S
Eu431 O470 2.558 . S
Eu431 O471 2.612 . S
Eu431 O473 2.339 . S
Eu431 O474 2.563 . S
Eu431 O475 2.419 . S
Eu431 C495 2.848 . S
N432 C424 1.362 . S
N432 Eu431 2.657 . S
N432 C433 1.334 . S
C433 N432 1.334 . S
C433 C435 1.413 . S
C433 H440 0.929 . S
C434 C422 1.392 . S
C434 C435 1.367 . S
C434 H442 0.930 . S
C435 C433 1.413 . S
C435 C434 1.367 . S
C435 H437 0.930 . S
H436 C429 0.930 . S
H437 C435 0.930 . S
H438 C426 0.930 . S
H439 C427 0.930 . S
H440 C433 0.929 . S
H441 C455 0.930 . S
H442 C434 0.930 . S
H443 C461 0.930 . S
H444 C452 0.929 . S
H445 C459 0.930 . S
H446 C423 0.931 . S
H447 C453 0.930 . S
H448 C486 0.930 . S
H449 C430 0.930 . S
H450 C485 0.931 . S
N451 Eu420 2.657 . S
N451 C452 1.334 . S
N451 C456 1.362 . S
C452 H444 0.929 . S
C452 N451 1.334 . S
C452 C455 1.413 . S
C453 H447 0.930 . S
C453 C454 1.392 . S
C453 C455 1.367 . S
C454 C453 1.392 . S
C454 C456 1.420 . S
C454 C486 1.423 . S
C455 H441 0.930 . S
C455 C452 1.413 . S
C455 C453 1.367 . S
C456 N451 1.362 . S
C456 C454 1.420 . S
C456 C460 1.429 . S
H457 C462 0.930 . S
N458 Eu420 2.609 . S
N458 C460 1.377 . S
N458 C461 1.321 . S
C459 H445 0.930 . S
C459 C461 1.400 . S
C459 C462 1.386 . S
C460 C456 1.429 . S
C460 N458 1.377 . S
C460 C463 1.411 . S
C461 H443 0.930 . S
C461 N458 1.321 . S
C461 C459 1.400 . S
C462 H457 0.930 . S
C462 C459 1.386 . S
C462 C463 1.395 . S
C463 C460 1.411 . S
C463 C462 1.395 . S
C463 C485 1.420 . S
O464 Eu420 2.558 . S
O464 C484 1.257 . S
O465 Eu420 2.612 . S
O465 Eu431 2.380 . S
O465 C476 1.276 . S
O466 Eu431 2.432 . S
O466 C483 1.264 . S
O467 Eu420 2.339 . S
O467 C483 1.254 . S
O468 Eu420 2.563 . S
O468 C476 1.235 . S
O469 Eu420 2.419 . S
O469 C484 1.249 . S
O470 Eu431 2.558 . S
O470 C495 1.257 . S
O471 Eu420 2.380 . S
O471 Eu431 2.612 . S
O471 C487 1.276 . S
O472 Eu420 2.432 . S
O472 C494 1.264 . S
O473 Eu431 2.339 . S
O473 C494 1.254 . S
O474 Eu431 2.563 . S
O474 C487 1.235 . S
O475 Eu431 2.419 . S
O475 C495 1.249 . S
C476 O465 1.276 . S
C476 O468 1.235 . S
C477 C479 1.393 1_556 S
C477 C481 1.395 1_556 S
C477 C484 1.492 . S
C478 C479 1.392 . S
C478 C480 1.386 . S
C479 C477 1.393 1_554 S
C479 C478 1.392 . S
C479 H496 0.930 1_554 S
C480 C478 1.386 . S
C480 C482 1.395 . S
C480 H497 0.930 . S
C481 C477 1.395 1_554 S
C481 C482 1.379 . S
C481 H498 0.930 1_554 S
C482 C480 1.395 . S
C482 C481 1.379 . S
C482 H499 0.930 . S
C483 O466 1.264 . S
C483 O467 1.254 . S
C484 Eu420 2.848 . S
C484 O464 1.257 . S
C484 O469 1.249 . S
C484 C477 1.492 . S
C485 H450 0.931 . S
C485 C463 1.420 . S
C485 C486 1.351 . S
C486 H448 0.930 . S
C486 C454 1.423 . S
C486 C485 1.351 . S
C487 O471 1.276 . S
C487 O474 1.235 . S
C488 C489 1.393 . S
C488 C492 1.395 . S
C488 C495 1.492 . S
C489 C488 1.393 . S
C489 C490 1.392 . S
C489 H500 0.930 . S
C490 C489 1.392 . S
C490 C491 1.386 . S
C491 C490 1.386 . S
C491 C493 1.395 . S
C491 H501 0.930 . S
C492 C488 1.395 . S
C492 C493 1.379 . S
C492 H502 0.930 . S
C493 C491 1.395 . S
C493 C492 1.379 . S
C493 H503 0.930 . S
C494 O472 1.264 . S
C494 O473 1.254 . S
C495 Eu431 2.848 . S
C495 O470 1.257 . S
C495 O475 1.249 . S
C495 C488 1.492 . S
H496 C479 0.930 1_556 S
H497 C480 0.930 . S
H498 C481 0.930 1_556 S
H499 C482 0.930 . S
H500 C489 0.930 . S
H501 C491 0.930 . S
H502 C492 0.930 . S
H503 C493 0.930 . S
Eu504 N535 2.657 . S
Eu504 N542 2.609 . S
Eu504 O548 2.558 . S
Eu504 O549 2.612 . S
Eu504 O551 2.339 . S
Eu504 O552 2.563 . S
Eu504 O553 2.419 . S
Eu504 O555 2.380 1_556 S
Eu504 O556 2.432 . S
Eu504 C568 2.848 . S
C505 C508 1.429 . S
C505 C509 1.411 . S
C505 N512 1.377 . S
C506 C508 1.420 . S
C506 C510 1.423 . S
C506 C518 1.392 . S
C507 C509 1.420 . S
C507 C510 1.351 . S
C507 H530 0.931 . S
C508 C505 1.429 . S
C508 C506 1.420 . S
C508 N516 1.362 . S
C509 C505 1.411 . S
C509 C507 1.420 . S
C509 C514 1.395 . S
C510 C506 1.423 . S
C510 C507 1.351 . S
C510 H522 0.930 . S
C511 C513 1.400 . S
C511 C514 1.386 . S
C511 H523 0.930 . S
N512 C505 1.377 . S
N512 C513 1.321 . S
N512 Eu515 2.609 . S
C513 C511 1.400 . S
C513 N512 1.321 . S
C513 H520 0.930 . S
C514 C509 1.395 . S
C514 C511 1.386 . S
C514 H533 0.930 . S
Eu515 N512 2.609 . S
Eu515 N516 2.657 . S
Eu515 O549 2.380 1_554 S
Eu515 O550 2.432 . S
Eu515 O554 2.558 . S
Eu515 O555 2.612 . S
Eu515 O557 2.339 . S
Eu515 O558 2.563 . S
Eu515 O559 2.419 . S
Eu515 C579 2.848 . S
N516 C508 1.362 . S
N516 Eu515 2.657 . S
N516 C517 1.334 . S
C517 N516 1.334 . S
C517 C519 1.413 . S
C517 H524 0.929 . S
C518 C506 1.392 . S
C518 C519 1.367 . S
C518 H526 0.930 . S
C519 C517 1.413 . S
C519 C518 1.367 . S
C519 H521 0.930 . S
H520 C513 0.930 . S
H521 C519 0.930 . S
H522 C510 0.930 . S
H523 C511 0.930 . S
H524 C517 0.929 . S
H525 C539 0.930 . S
H526 C518 0.930 . S
H527 C545 0.930 . S
H528 C536 0.929 . S
H529 C543 0.930 . S
H530 C507 0.931 . S
H531 C537 0.930 . S
H532 C570 0.930 . S
H533 C514 0.930 . S
H534 C569 0.931 . S
N535 Eu504 2.657 . S
N535 C536 1.334 . S
N535 C540 1.362 . S
C536 H528 0.929 . S
C536 N535 1.334 . S
C536 C539 1.413 . S
C537 H531 0.930 . S
C537 C538 1.392 . S
C537 C539 1.367 . S
C538 C537 1.392 . S
C538 C540 1.420 . S
C538 C570 1.423 . S
C539 H525 0.930 . S
C539 C536 1.413 . S
C539 C537 1.367 . S
C540 N535 1.362 . S
C540 C538 1.420 . S
C540 C544 1.429 . S
H541 C546 0.930 . S
N542 Eu504 2.609 . S
N542 C544 1.377 . S
N542 C545 1.321 . S
C543 H529 0.930 . S
C543 C545 1.400 . S
C543 C546 1.386 . S
C544 C540 1.429 . S
C544 N542 1.377 . S
C544 C547 1.411 . S
C545 H527 0.930 . S
C545 N542 1.321 . S
C545 C543 1.400 . S
C546 H541 0.930 . S
C546 C543 1.386 . S
C546 C547 1.395 . S
C547 C544 1.411 . S
C547 C546 1.395 . S
C547 C569 1.420 . S
O548 Eu504 2.558 . S
O548 C568 1.257 . S
O549 Eu504 2.612 . S
O549 Eu515 2.380 1_556 S
O549 C560 1.276 . S
O550 Eu515 2.432 . S
O550 C567 1.264 1_554 S
O551 Eu504 2.339 . S
O551 C567 1.254 . S
O552 Eu504 2.563 . S
O552 C560 1.235 . S
O553 Eu504 2.419 . S
O553 C568 1.249 . S
O554 Eu515 2.558 . S
O554 C579 1.257 . S
O555 Eu504 2.380 1_554 S
O555 Eu515 2.612 . S
O555 C571 1.276 . S
O556 Eu504 2.432 . S
O556 C578 1.264 1_556 S
O557 Eu515 2.339 . S
O557 C578 1.254 . S
O558 Eu515 2.563 . S
O558 C571 1.235 . S
O559 Eu515 2.419 . S
O559 C579 1.249 . S
C560 O549 1.276 . S
C560 O552 1.235 . S
C561 C563 1.393 . S
C561 C565 1.395 . S
C561 C568 1.492 . S
C562 C563 1.392 . S
C562 C564 1.386 . S
C563 C561 1.393 . S
C563 C562 1.392 . S
C563 H580 0.930 . S
C564 C562 1.386 . S
C564 C566 1.395 . S
C564 H581 0.930 . S
C565 C561 1.395 . S
C565 C566 1.379 . S
C565 H582 0.930 . S
C566 C564 1.395 . S
C566 C565 1.379 . S
C566 H583 0.930 . S
C567 O550 1.264 1_556 S
C567 O551 1.254 . S
C568 Eu504 2.848 . S
C568 O548 1.257 . S
C568 O553 1.249 . S
C568 C561 1.492 . S
C569 H534 0.931 . S
C569 C547 1.420 . S
C569 C570 1.351 . S
C570 H532 0.930 . S
C570 C538 1.423 . S
C570 C569 1.351 . S
C571 O555 1.276 . S
C571 O558 1.235 . S
C572 C573 1.393 . S
C572 C576 1.395 . S
C572 C579 1.492 . S
C573 C572 1.393 . S
C573 C574 1.392 . S
C573 H584 0.930 . S
C574 C573 1.392 . S
C574 C575 1.386 . S
C575 C574 1.386 . S
C575 C577 1.395 . S
C575 H585 0.930 . S
C576 C572 1.395 . S
C576 C577 1.379 . S
C576 H586 0.930 . S
C577 C575 1.395 . S
C577 C576 1.379 . S
C577 H587 0.930 . S
C578 O556 1.264 1_554 S
C578 O557 1.254 . S
C579 Eu515 2.848 . S
C579 O554 1.257 . S
C579 O559 1.249 . S
C579 C572 1.492 . S
H580 C563 0.930 . S
H581 C564 0.930 . S
H582 C565 0.930 . S
H583 C566 0.930 . S
H584 C573 0.930 . S
H585 C575 0.930 . S
H586 C576 0.930 . S
H587 C577 0.930 . S
Eu588 N619 2.654 1_655 S
Eu588 N626 2.609 1_655 S
Eu588 O632 2.560 . S
Eu588 O633 2.613 . S
Eu588 O635 2.337 1_655 S
Eu588 O636 2.565 . S
Eu588 O637 2.418 1_655 S
Eu588 O639 2.379 1_655 S
Eu588 O640 2.434 . S
Eu588 C652 2.848 . S
C589 C592 1.429 . S
C589 C593 1.411 . S
C589 N596 1.377 . S
C590 C592 1.420 . S
C590 C594 1.423 . S
C590 C602 1.392 . S
C591 C593 1.420 . S
C591 C594 1.351 . S
C591 H614 0.931 . S
C592 C589 1.429 . S
C592 C590 1.420 . S
C592 N600 1.362 . S
C593 C589 1.411 . S
C593 C591 1.420 . S
C593 C598 1.395 . S
C594 C590 1.423 . S
C594 C591 1.351 . S
C594 H606 0.930 . S
C595 C597 1.400 . S
C595 C598 1.386 1_455 S
C595 H607 0.930 . S
N596 C589 1.377 . S
N596 C597 1.321 1_655 S
N596 Eu599 2.609 1_655 S
C597 C595 1.400 . S
C597 N596 1.321 1_455 S
C597 H604 0.930 . S
C598 C593 1.395 . S
C598 C595 1.386 1_655 S
C598 H617 0.930 . S
Eu599 N596 2.609 1_455 S
Eu599 N600 2.647 1_455 S
Eu599 O633 2.376 1_455 S
Eu599 O634 2.440 . S
Eu599 O638 2.563 . S
Eu599 O639 2.616 . S
Eu599 O641 2.331 1_455 S
Eu599 O642 2.571 . S
Eu599 O643 2.417 1_455 S
Eu599 C663 2.849 . S
N600 C592 1.362 . S
N600 Eu599 2.647 1_655 S
N600 C601 1.334 . S
C601 N600 1.334 . S
C601 C603 1.413 . S
C601 H608 0.929 . S
C602 C590 1.392 . S
C602 C603 1.367 . S
C602 H610 0.930 . S
C603 C601 1.413 . S
C603 C602 1.367 . S
C603 H605 0.930 . S
H604 C597 0.930 . S
H605 C603 0.930 . S
H606 C594 0.930 . S
H607 C595 0.930 . S
H608 C601 0.929 . S
H609 C623 0.930 . S
H610 C602 0.930 . S
H611 C629 0.930 . S
H612 C620 0.929 . S
H613 C627 0.930 . S
H614 C591 0.931 . S
H615 C621 0.930 . S
H616 C654 0.930 . S
H617 C598 0.930 . S
H618 C653 0.931 . S
N619 Eu588 2.654 1_455 S
N619 C620 1.334 . S
N619 C624 1.362 . S
C620 H612 0.929 . S
C620 N619 1.334 . S
C620 C623 1.413 . S
C621 H615 0.930 . S
C621 C622 1.392 . S
C621 C623 1.367 . S
C622 C621 1.392 . S
C622 C624 1.420 . S
C622 C654 1.423 . S
C623 H609 0.930 . S
C623 C620 1.413 . S
C623 C621 1.367 . S
C624 N619 1.362 . S
C624 C622 1.420 . S
C624 C628 1.429 . S
H625 C630 0.931 . S
N626 Eu588 2.609 1_455 S
N626 C628 1.377 . S
N626 C629 1.321 1_455 S
C627 H613 0.930 . S
C627 C629 1.400 . S
C627 C630 1.386 1_655 S
C628 C624 1.429 . S
C628 N626 1.377 . S
C628 C631 1.411 . S
C629 H611 0.930 . S
C629 N626 1.321 1_655 S
C629 C627 1.400 . S
C630 H625 0.931 . S
C630 C627 1.386 1_455 S
C630 C631 1.395 . S
C631 C628 1.411 . S
C631 C630 1.395 . S
C631 C653 1.420 . S
O632 Eu588 2.560 . S
O632 C652 1.257 . S
O633 Eu588 2.613 . S
O633 Eu599 2.376 1_655 S
O633 C644 1.276 . S
O634 Eu599 2.440 . S
O634 C651 1.264 . S
O635 Eu588 2.337 1_455 S
O635 C651 1.254 . S
O636 Eu588 2.565 . S
O636 C644 1.235 . S
O637 Eu588 2.418 1_455 S
O637 C652 1.249 1_455 S
O638 Eu599 2.563 . S
O638 C663 1.257 . S
O639 Eu588 2.379 1_455 S
O639 Eu599 2.616 . S
O639 C655 1.276 . S
O640 Eu588 2.434 . S
O640 C662 1.264 . S
O641 Eu599 2.331 1_655 S
O641 C662 1.254 . S
O642 Eu599 2.571 . S
O642 C655 1.235 . S
O643 Eu599 2.417 1_655 S
O643 C663 1.249 1_655 S
C644 O633 1.276 . S
C644 O636 1.235 . S
C645 C647 1.393 . S
C645 C649 1.395 . S
C645 C652 1.492 . S
C646 C647 1.392 . S
C646 C648 1.386 . S
C647 C645 1.393 . S
C647 C646 1.392 . S
C647 H664 0.930 1_655 S
C648 C646 1.386 . S
C648 C650 1.395 . S
C648 H665 0.930 . S
C649 C645 1.395 . S
C649 C650 1.379 . S
C649 H666 0.930 . S
C650 C648 1.395 . S
C650 C649 1.379 . S
C650 H667 0.930 . S
C651 O634 1.264 . S
C651 O635 1.254 . S
C652 Eu588 2.848 . S
C652 O632 1.257 . S
C652 O637 1.249 1_655 S
C652 C645 1.492 . S
C653 H618 0.931 . S
C653 C631 1.420 . S
C653 C654 1.351 . S
C654 H616 0.930 . S
C654 C622 1.423 . S
C654 C653 1.351 . S
C655 O639 1.276 . S
C655 O642 1.235 . S
C656 C657 1.393 . S
C656 C660 1.395 . S
C656 C663 1.492 . S
C657 C656 1.393 . S
C657 C658 1.392 . S
C657 H668 0.930 1_455 S
C658 C657 1.392 . S
C658 C659 1.386 . S
C659 C658 1.386 . S
C659 C661 1.395 . S
C659 H669 0.930 . S
C660 C656 1.395 . S
C660 C661 1.379 . S
C660 H670 0.930 . S
C661 C659 1.395 . S
C661 C660 1.379 . S
C661 H671 0.930 . S
C662 O640 1.264 . S
C662 O641 1.254 . S
C663 Eu599 2.849 . S
C663 O638 1.257 . S
C663 O643 1.249 1_455 S
C663 C656 1.492 . S
H664 C647 0.930 1_455 S
H665 C648 0.930 . S
H666 C649 0.930 . S
H667 C650 0.930 . S
H668 C657 0.930 1_655 S
H669 C659 0.930 . S
H670 C660 0.930 . S
H671 C661 0.930 . S
H672 C680 0.950 . S
H673 C685 0.950 . S
H674 C682 0.950 . S
H675 C684 0.950 . S
H676 C686 0.950 . S
H677 C688 0.950 . S
H678 C690 0.950 . S
H679 C691 0.950 . S
C680 H672 0.950 . S
C680 C681 1.386 . S
C680 C682 1.391 . S
C681 C680 1.386 . S
C681 C685 1.393 . S
C682 H674 0.950 . S
C682 C680 1.391 . S
C682 C683 1.400 . S
C683 C682 1.400 . S
C683 C684 1.398 . S
C683 C689 1.491 . S
C684 H675 0.950 . S
C684 C683 1.398 . S
C684 C685 1.391 . S
C685 H673 0.950 . S
C685 C681 1.393 . S
C685 C684 1.391 . S
C686 H676 0.950 . S
C686 C687 1.386 . S
C686 C688 1.391 . S
C687 C686 1.386 . S
C687 C691 1.393 . S
C688 H677 0.950 . S
C688 C686 1.391 . S
C688 C689 1.400 . S
C689 C683 1.491 . S
C689 C688 1.400 . S
C689 C690 1.398 . S
C690 H678 0.950 . S
C690 C689 1.398 . S
C690 C691 1.391 . S
C691 H679 0.950 . S
C691 C687 1.393 . S
C691 C690 1.391 . S
H692 C700 0.950 . S
H693 C705 0.950 . S
H694 C702 0.950 . S
H695 C704 0.950 . S
H696 C706 0.950 . S
H697 C708 0.950 . S
H698 C710 0.950 . S
H699 C711 0.950 . S
C700 H692 0.950 . S
C700 C701 1.386 . S
C700 C702 1.391 . S
C701 C700 1.386 . S
C701 C705 1.393 . S
C702 H694 0.950 . S
C702 C700 1.391 . S
C702 C703 1.400 . S
C703 C702 1.400 . S
C703 C704 1.398 . S
C703 C709 1.491 . S
C704 H695 0.950 . S
C704 C703 1.398 . S
C704 C705 1.391 . S
C705 H693 0.950 . S
C705 C701 1.393 . S
C705 C704 1.391 . S
C706 H696 0.950 . S
C706 C707 1.386 . S
C706 C708 1.391 . S
C707 C706 1.386 . S
C707 C711 1.393 . S
C708 H697 0.950 . S
C708 C706 1.391 . S
C708 C709 1.400 . S
C709 C703 1.491 . S
C709 C708 1.400 . S
C709 C710 1.398 . S
C710 H698 0.950 . S
C710 C709 1.398 . S
C710 C711 1.391 . S
C711 H699 0.950 . S
C711 C707 1.393 . S
C711 C710 1.391 . S
H712 C720 0.950 . S
H713 C725 0.950 . S
H714 C722 0.950 . S
H715 C724 0.950 . S
H716 C726 0.950 . S
H717 C728 0.950 . S
H718 C730 0.950 . S
H719 C731 0.950 . S
C720 H712 0.950 . S
C720 C721 1.386 . S
C720 C722 1.391 . S
C721 C720 1.386 . S
C721 C725 1.393 . S
C722 H714 0.950 . S
C722 C720 1.391 . S
C722 C723 1.400 . S
C723 C722 1.400 . S
C723 C724 1.398 . S
C723 C729 1.491 . S
C724 H715 0.950 . S
C724 C723 1.398 . S
C724 C725 1.391 . S
C725 H713 0.950 . S
C725 C721 1.393 . S
C725 C724 1.391 . S
C726 H716 0.950 . S
C726 C727 1.386 . S
C726 C728 1.391 . S
C727 C726 1.386 . S
C727 C731 1.393 . S
C728 H717 0.950 . S
C728 C726 1.391 . S
C728 C729 1.400 . S
C729 C723 1.491 . S
C729 C728 1.400 . S
C729 C730 1.398 . S
C730 H718 0.950 . S
C730 C729 1.398 . S
C730 C731 1.391 . S
C731 H719 0.950 . S
C731 C727 1.393 . S
C731 C730 1.391 . S
H732 C740 0.950 . S
H733 C745 0.950 . S
H734 C742 0.950 . S
H735 C744 0.950 . S
H736 C746 0.950 . S
H737 C748 0.950 . S
H738 C750 0.950 . S
H739 C751 0.950 . S
C740 H732 0.950 . S
C740 C741 1.386 . S
C740 C742 1.391 . S
C741 C740 1.386 . S
C741 C745 1.393 . S
C742 H734 0.950 . S
C742 C740 1.391 . S
C742 C743 1.400 . S
C743 C742 1.400 . S
C743 C744 1.398 . S
C743 C749 1.491 . S
C744 H735 0.950 . S
C744 C743 1.398 . S
C744 C745 1.391 . S
C745 H733 0.950 . S
C745 C741 1.393 . S
C745 C744 1.391 . S
C746 H736 0.950 . S
C746 C747 1.386 . S
C746 C748 1.391 . S
C747 C746 1.386 . S
C747 C751 1.393 . S
C748 H737 0.950 . S
C748 C746 1.391 . S
C748 C749 1.400 . S
C749 C743 1.491 . S
C749 C748 1.400 . S
C749 C750 1.398 . S
C750 H738 0.950 . S
C750 C749 1.398 . S
C750 C751 1.391 . S
C751 H739 0.950 . S
C751 C747 1.393 . S
C751 C750 1.391 . S
H752 C760 0.950 . S
H753 C765 0.950 . S
H754 C762 0.950 . S
H755 C764 0.950 . S
H756 C766 0.950 . S
H757 C768 0.950 . S
H758 C770 0.950 . S
H759 C771 0.950 . S
C760 H752 0.950 . S
C760 C761 1.386 . S
C760 C762 1.391 . S
C761 C760 1.386 . S
C761 C765 1.393 . S
C762 H754 0.950 . S
C762 C760 1.391 . S
C762 C763 1.400 . S
C763 C762 1.400 . S
C763 C764 1.398 . S
C763 C769 1.491 . S
C764 H755 0.950 . S
C764 C763 1.398 . S
C764 C765 1.391 . S
C765 H753 0.950 . S
C765 C761 1.393 . S
C765 C764 1.391 . S
C766 H756 0.950 . S
C766 C767 1.386 . S
C766 C768 1.391 . S
C767 C766 1.386 . S
C767 C771 1.393 . S
C768 H757 0.950 . S
C768 C766 1.391 . S
C768 C769 1.400 . S
C769 C763 1.491 . S
C769 C768 1.400 . S
C769 C770 1.398 . S
C770 H758 0.950 . S
C770 C769 1.398 . S
C770 C771 1.391 . S
C771 H759 0.950 . S
C771 C767 1.393 . S
C771 C770 1.391 . S
H772 C780 0.950 . S
H773 C785 0.950 . S
H774 C782 0.950 . S
H775 C784 0.950 . S
H776 C786 0.950 . S
H777 C788 0.950 . S
H778 C790 0.950 . S
H779 C791 0.950 . S
C780 H772 0.950 . S
C780 C781 1.386 . S
C780 C782 1.391 . S
C781 C780 1.386 . S
C781 C785 1.393 . S
C782 H774 0.950 . S
C782 C780 1.391 . S
C782 C783 1.400 . S
C783 C782 1.400 . S
C783 C784 1.398 . S
C783 C789 1.491 . S
C784 H775 0.950 . S
C784 C783 1.398 . S
C784 C785 1.391 . S
C785 H773 0.950 . S
C785 C781 1.393 . S
C785 C784 1.391 . S
C786 H776 0.950 . S
C786 C787 1.386 . S
C786 C788 1.391 . S
C787 C786 1.386 . S
C787 C791 1.393 . S
C788 H777 0.950 . S
C788 C786 1.391 . S
C788 C789 1.400 . S
C789 C783 1.491 . S
C789 C788 1.400 . S
C789 C790 1.398 . S
C790 H778 0.950 . S
C790 C789 1.398 . S
C790 C791 1.391 . S
C791 H779 0.950 . S
C791 C787 1.393 . S
C791 C790 1.391 . S
H792 C800 0.950 . S
H793 C805 0.950 . S
H794 C802 0.950 . S
H795 C804 0.950 . S
H796 C806 0.950 . S
H797 C808 0.950 . S
H798 C810 0.950 . S
H799 C811 0.950 . S
C800 H792 0.950 . S
C800 C801 1.386 . S
C800 C802 1.391 . S
C801 C800 1.386 . S
C801 C805 1.393 . S
C802 H794 0.950 . S
C802 C800 1.391 . S
C802 C803 1.400 . S
C803 C802 1.400 . S
C803 C804 1.398 . S
C803 C809 1.491 . S
C804 H795 0.950 . S
C804 C803 1.398 . S
C804 C805 1.391 . S
C805 H793 0.950 . S
C805 C801 1.393 . S
C805 C804 1.391 . S
C806 H796 0.950 . S
C806 C807 1.386 . S
C806 C808 1.391 . S
C807 C806 1.386 . S
C807 C811 1.393 . S
C808 H797 0.950 . S
C808 C806 1.391 . S
C808 C809 1.400 . S
C809 C803 1.491 . S
C809 C808 1.400 . S
C809 C810 1.398 . S
C810 H798 0.950 . S
C810 C809 1.398 . S
C810 C811 1.391 . S
C811 H799 0.950 . S
C811 C807 1.393 . S
C811 C810 1.391 . S
H812 C820 0.950 . S
H813 C825 0.950 . S
H814 C822 0.950 . S
H815 C824 0.950 . S
H816 C826 0.950 . S
H817 C828 0.950 . S
H818 C830 0.950 . S
H819 C831 0.950 . S
C820 H812 0.950 . S
C820 C821 1.386 . S
C820 C822 1.391 . S
C821 C820 1.386 . S
C821 C825 1.393 . S
C822 H814 0.950 . S
C822 C820 1.391 . S
C822 C823 1.400 . S
C823 C822 1.400 . S
C823 C824 1.398 . S
C823 C829 1.491 . S
C824 H815 0.950 . S
C824 C823 1.398 . S
C824 C825 1.391 . S
C825 H813 0.950 . S
C825 C821 1.393 . S
C825 C824 1.391 . S
C826 H816 0.950 . S
C826 C827 1.386 . S
C826 C828 1.391 . S
C827 C826 1.386 . S
C827 C831 1.393 . S
C828 H817 0.950 . S
C828 C826 1.391 . S
C828 C829 1.400 . S
C829 C823 1.491 . S
C829 C828 1.400 . S
C829 C830 1.398 . S
C830 H818 0.950 . S
C830 C829 1.398 . S
C830 C831 1.391 . S
C831 H819 0.950 . S
C831 C827 1.393 . S
C831 C830 1.391 . S
H832 C840 0.950 . S
H833 C845 0.950 . S
H834 C842 0.950 . S
H835 C844 0.950 . S
H836 C846 0.950 . S
H837 C848 0.950 . S
H838 C850 0.950 . S
H839 C851 0.950 . S
C840 H832 0.950 . S
C840 C841 1.386 . S
C840 C842 1.391 . S
C841 C840 1.386 . S
C841 C845 1.393 . S
C842 H834 0.950 . S
C842 C840 1.391 . S
C842 C843 1.400 . S
C843 C842 1.400 . S
C843 C844 1.398 . S
C843 C849 1.491 . S
C844 H835 0.950 . S
C844 C843 1.398 . S
C844 C845 1.391 . S
C845 H833 0.950 . S
C845 C841 1.393 . S
C845 C844 1.391 . S
C846 H836 0.950 . S
C846 C847 1.386 . S
C846 C848 1.391 . S
C847 C846 1.386 . S
C847 C851 1.393 . S
C848 H837 0.950 . S
C848 C846 1.391 . S
C848 C849 1.400 . S
C849 C843 1.491 . S
C849 C848 1.400 . S
C849 C850 1.398 . S
C850 H838 0.950 . S
C850 C849 1.398 . S
C850 C851 1.391 . S
C851 H839 0.950 . S
C851 C847 1.393 . S
C851 C850 1.391 . S
H852 C860 0.950 . S
H853 C865 0.950 . S
H854 C862 0.950 . S
H855 C864 0.950 . S
H856 C866 0.950 . S
H857 C868 0.950 . S
H858 C870 0.950 . S
H859 C871 0.950 . S
C860 H852 0.950 . S
C860 C861 1.386 . S
C860 C862 1.391 . S
C861 C860 1.386 . S
C861 C865 1.393 . S
C862 H854 0.950 . S
C862 C860 1.391 . S
C862 C863 1.400 . S
C863 C862 1.400 . S
C863 C864 1.398 . S
C863 C869 1.491 . S
C864 H855 0.950 . S
C864 C863 1.398 . S
C864 C865 1.391 . S
C865 H853 0.950 . S
C865 C861 1.393 . S
C865 C864 1.391 . S
C866 H856 0.950 . S
C866 C867 1.386 . S
C866 C868 1.391 . S
C867 C866 1.386 . S
C867 C871 1.393 . S
C868 H857 0.950 . S
C868 C866 1.391 . S
C868 C869 1.400 . S
C869 C863 1.491 . S
C869 C868 1.400 . S
C869 C870 1.398 . S
C870 H858 0.950 . S
C870 C869 1.398 . S
C870 C871 1.391 . S
C871 H859 0.950 . S
C871 C867 1.393 . S
C871 C870 1.391 . S
H872 C880 0.950 . S
H873 C885 0.950 . S
H874 C882 0.950 . S
H875 C884 0.950 . S
H876 C886 0.950 . S
H877 C888 0.950 . S
H878 C890 0.950 . S
H879 C891 0.950 . S
C880 H872 0.950 . S
C880 C881 1.386 . S
C880 C882 1.391 . S
C881 C880 1.386 . S
C881 C885 1.393 . S
C882 H874 0.950 . S
C882 C880 1.391 . S
C882 C883 1.400 . S
C883 C882 1.400 . S
C883 C884 1.398 . S
C883 C889 1.491 . S
C884 H875 0.950 . S
C884 C883 1.398 . S
C884 C885 1.391 . S
C885 H873 0.950 . S
C885 C881 1.393 . S
C885 C884 1.391 . S
C886 H876 0.950 . S
C886 C887 1.386 . S
C886 C888 1.391 . S
C887 C886 1.386 . S
C887 C891 1.393 . S
C888 H877 0.950 . S
C888 C886 1.391 . S
C888 C889 1.400 . S
C889 C883 1.491 . S
C889 C888 1.400 . S
C889 C890 1.398 . S
C890 H878 0.950 . S
C890 C889 1.398 . S
C890 C891 1.391 . S
C891 H879 0.950 . S
C891 C887 1.393 . S
C891 C890 1.391 . S
H892 C900 0.950 . S
H893 C905 0.950 . S
H894 C902 0.950 . S
H895 C904 0.950 . S
H896 C906 0.950 . S
H897 C908 0.950 . S
H898 C910 0.950 . S
H899 C911 0.950 . S
C900 H892 0.950 . S
C900 C901 1.386 . S
C900 C902 1.391 . S
C901 C900 1.386 . S
C901 C905 1.393 . S
C902 H894 0.950 . S
C902 C900 1.391 . S
C902 C903 1.400 . S
C903 C902 1.400 . S
C903 C904 1.398 . S
C903 C909 1.491 . S
C904 H895 0.950 . S
C904 C903 1.398 . S
C904 C905 1.391 . S
C905 H893 0.950 . S
C905 C901 1.393 . S
C905 C904 1.391 . S
C906 H896 0.950 . S
C906 C907 1.386 . S
C906 C908 1.391 . S
C907 C906 1.386 . S
C907 C911 1.393 . S
C908 H897 0.950 . S
C908 C906 1.391 . S
C908 C909 1.400 . S
C909 C903 1.491 . S
C909 C908 1.400 . S
C909 C910 1.398 . S
C910 H898 0.950 . S
C910 C909 1.398 . S
C910 C911 1.391 . S
C911 H899 0.950 . S
C911 C907 1.393 . S
C911 C910 1.391 . S
H912 C920 0.950 . S
H913 C925 0.950 . S
H914 C922 0.950 . S
H915 C924 0.950 . S
H916 C926 0.950 . S
H917 C928 0.950 . S
H918 C930 0.950 . S
H919 C931 0.950 . S
C920 H912 0.950 . S
C920 C921 1.386 . S
C920 C922 1.391 . S
C921 C920 1.386 . S
C921 C925 1.393 . S
C922 H914 0.950 . S
C922 C920 1.391 . S
C922 C923 1.400 . S
C923 C922 1.400 . S
C923 C924 1.398 . S
C923 C929 1.491 . S
C924 H915 0.950 . S
C924 C923 1.398 . S
C924 C925 1.391 . S
C925 H913 0.950 . S
C925 C921 1.393 . S
C925 C924 1.391 . S
C926 H916 0.950 . S
C926 C927 1.386 . S
C926 C928 1.391 . S
C927 C926 1.386 . S
C927 C931 1.393 . S
C928 H917 0.950 . S
C928 C926 1.391 . S
C928 C929 1.400 . S
C929 C923 1.491 . S
C929 C928 1.400 . S
C929 C930 1.398 . S
C930 H918 0.950 . S
C930 C929 1.398 . S
C930 C931 1.391 . S
C931 H919 0.950 . S
C931 C927 1.393 . S
C931 C930 1.391 . S
H932 C940 0.950 . S
H933 C945 0.950 . S
H934 C942 0.950 . S
H935 C944 0.950 . S
H936 C946 0.950 . S
H937 C948 0.950 . S
H938 C950 0.950 . S
H939 C951 0.950 . S
C940 H932 0.950 . S
C940 C941 1.386 . S
C940 C942 1.391 . S
C941 C940 1.386 . S
C941 C945 1.393 . S
C942 H934 0.950 . S
C942 C940 1.391 . S
C942 C943 1.400 . S
C943 C942 1.400 . S
C943 C944 1.398 . S
C943 C949 1.491 . S
C944 H935 0.950 . S
C944 C943 1.398 . S
C944 C945 1.391 . S
C945 H933 0.950 . S
C945 C941 1.393 . S
C945 C944 1.391 . S
C946 H936 0.950 . S
C946 C947 1.386 . S
C946 C948 1.391 . S
C947 C946 1.386 . S
C947 C951 1.393 . S
C948 H937 0.950 . S
C948 C946 1.391 . S
C948 C949 1.400 . S
C949 C943 1.491 . S
C949 C948 1.400 . S
C949 C950 1.398 . S
C950 H938 0.950 . S
C950 C949 1.398 . S
C950 C951 1.391 . S
C951 H939 0.950 . S
C951 C947 1.393 . S
C951 C950 1.391 . S
H952 C960 0.950 . S
H953 C965 0.950 . S
H954 C962 0.950 . S
H955 C964 0.950 . S
H956 C966 0.950 . S
H957 C968 0.950 . S
H958 C970 0.950 . S
H959 C971 0.950 . S
C960 H952 0.950 . S
C960 C961 1.386 . S
C960 C962 1.391 . S
C961 C960 1.386 . S
C961 C965 1.393 . S
C962 H954 0.950 . S
C962 C960 1.391 . S
C962 C963 1.400 . S
C963 C962 1.400 . S
C963 C964 1.398 . S
C963 C969 1.491 . S
C964 H955 0.950 . S
C964 C963 1.398 . S
C964 C965 1.391 . S
C965 H953 0.950 . S
C965 C961 1.393 . S
C965 C964 1.391 . S
C966 H956 0.950 . S
C966 C967 1.386 . S
C966 C968 1.391 . S
C967 C966 1.386 . S
C967 C971 1.393 . S
C968 H957 0.950 . S
C968 C966 1.391 . S
C968 C969 1.400 . S
C969 C963 1.491 . S
C969 C968 1.400 . S
C969 C970 1.398 . S
C970 H958 0.950 . S
C970 C969 1.398 . S
C970 C971 1.391 . S
C971 H959 0.950 . S
C971 C967 1.393 . S
C971 C970 1.391 . S
H972 C980 0.950 . S
H973 C985 0.950 . S
H974 C982 0.950 . S
H975 C984 0.950 . S
H976 C986 0.950 . S
H977 C988 0.950 . S
H978 C990 0.950 . S
H979 C991 0.950 . S
C980 H972 0.950 . S
C980 C981 1.386 . S
C980 C982 1.391 . S
C981 C980 1.386 . S
C981 C985 1.393 . S
C982 H974 0.950 . S
C982 C980 1.391 . S
C982 C983 1.400 . S
C983 C982 1.400 . S
C983 C984 1.398 . S
C983 C989 1.491 . S
C984 H975 0.950 . S
C984 C983 1.398 . S
C984 C985 1.391 . S
C985 H973 0.950 . S
C985 C981 1.393 . S
C985 C984 1.391 . S
C986 H976 0.950 . S
C986 C987 1.386 . S
C986 C988 1.391 . S
C987 C986 1.386 . S
C987 C991 1.393 . S
C988 H977 0.950 . S
C988 C986 1.391 . S
C988 C989 1.400 . S
C989 C983 1.491 . S
C989 C988 1.400 . S
C989 C990 1.398 . S
C990 H978 0.950 . S
C990 C989 1.398 . S
C990 C991 1.391 . S
C991 H979 0.950 . S
C991 C987 1.393 . S
C991 C990 1.391 . S
H992 C1000 0.950 . S
H993 C1005 0.950 . S
H994 C1002 0.950 . S
H995 C1004 0.950 . S
H996 C1006 0.950 . S
H997 C1008 0.950 . S
H998 C1010 0.950 . S
H999 C1011 0.950 . S
C1000 H992 0.950 . S
C1000 C1001 1.386 1_445 S
C1000 C1002 1.391 . S
C1001 C1000 1.386 1_665 S
C1001 C1005 1.393 . S
C1002 H994 0.950 . S
C1002 C1000 1.391 . S
C1002 C1003 1.398 1_455 S
C1003 C1002 1.398 1_655 S
C1003 C1004 1.400 1_545 S
C1003 C1009 1.491 1_656 S
C1004 H995 0.950 . S
C1004 C1003 1.400 1_565 S
C1004 C1005 1.391 . S
C1005 H993 0.950 . S
C1005 C1001 1.393 . S
C1005 C1004 1.391 . S
C1006 H996 0.950 . S
C1006 C1007 1.386 1_665 S
C1006 C1008 1.391 . S
C1007 C1006 1.386 1_445 S
C1007 C1011 1.393 . S
C1008 H997 0.950 . S
C1008 C1006 1.391 . S
C1008 C1009 1.398 1_665 S
C1009 C1003 1.491 1_454 S
C1009 C1008 1.398 1_445 S
C1009 C1010 1.400 . S
C1010 H998 0.950 . S
C1010 C1009 1.400 . S
C1010 C1011 1.391 . S
C1011 H999 0.950 . S
C1011 C1007 1.393 . S
C1011 C1010 1.391 . S
H1012 C1020 0.950 . S
H1013 C1025 0.950 . S
H1014 C1022 0.950 . S
H1015 C1024 0.950 . S
H1016 C1026 0.950 . S
H1017 C1028 0.950 . S
H1018 C1030 0.950 . S
H1019 C1031 0.950 . S
C1020 H1012 0.950 . S
C1020 C1021 1.386 . S
C1020 C1022 1.391 . S
C1021 C1020 1.386 . S
C1021 C1025 1.393 . S
C1022 H1014 0.950 . S
C1022 C1020 1.391 . S
C1022 C1023 1.400 . S
C1023 C1022 1.400 . S
C1023 C1024 1.398 . S
C1023 C1029 1.491 . S
C1024 H1015 0.950 . S
C1024 C1023 1.398 . S
C1024 C1025 1.391 . S
C1025 H1013 0.950 . S
C1025 C1021 1.393 . S
C1025 C1024 1.391 . S
C1026 H1016 0.950 . S
C1026 C1027 1.386 . S
C1026 C1028 1.391 . S
C1027 C1026 1.386 . S
C1027 C1031 1.393 . S
C1028 H1017 0.950 . S
C1028 C1026 1.391 . S
C1028 C1029 1.400 . S
C1029 C1023 1.491 . S
C1029 C1028 1.400 . S
C1029 C1030 1.398 . S
C1030 H1018 0.950 . S
C1030 C1029 1.398 . S
C1030 C1031 1.391 . S
C1031 H1019 0.950 . S
C1031 C1027 1.393 . S
C1031 C1030 1.391 . S
H1032 C1040 0.950 . S
H1033 C1045 0.950 . S
H1034 C1042 0.950 . S
H1035 C1044 0.950 . S
H1036 C1046 0.950 . S
H1037 C1048 0.950 . S
H1038 C1050 0.950 . S
H1039 C1051 0.950 . S
C1040 H1032 0.950 . S
C1040 C1041 1.386 . S
C1040 C1042 1.391 . S
C1041 C1040 1.386 . S
C1041 C1045 1.393 1_565 S
C1042 H1034 0.950 . S
C1042 C1040 1.391 . S
C1042 C1043 1.400 . S
C1043 C1042 1.400 . S
C1043 C1044 1.398 1_565 S
C1043 C1049 1.491 1_565 S
C1044 H1035 0.950 . S
C1044 C1043 1.398 1_545 S
C1044 C1045 1.391 . S
C1045 H1033 0.950 . S
C1045 C1041 1.393 1_545 S
C1045 C1044 1.391 . S
C1046 H1036 0.950 . S
C1046 C1047 1.386 . S
C1046 C1048 1.391 . S
C1047 C1046 1.386 . S
C1047 C1051 1.393 1_545 S
C1048 H1037 0.950 . S
C1048 C1046 1.391 . S
C1048 C1049 1.400 . S
C1049 C1043 1.491 1_545 S
C1049 C1048 1.400 . S
C1049 C1050 1.398 1_545 S
C1050 H1038 0.950 . S
C1050 C1049 1.398 1_565 S
C1050 C1051 1.391 . S
C1051 H1039 0.950 . S
C1051 C1047 1.393 1_565 S
C1051 C1050 1.391 . S
H1052 C1060 0.950 . S
H1053 C1065 0.950 . S
H1054 C1062 0.950 . S
H1055 C1064 0.950 . S
H1056 C1066 0.950 . S
H1057 C1068 0.950 . S
H1058 C1070 0.950 . S
H1059 C1071 0.950 . S
C1060 H1052 0.950 . S
C1060 C1061 1.386 . S
C1060 C1062 1.391 . S
C1061 C1060 1.386 . S
C1061 C1065 1.393 . S
C1062 H1054 0.950 . S
C1062 C1060 1.391 . S
C1062 C1063 1.400 . S
C1063 C1062 1.400 . S
C1063 C1064 1.398 . S
C1063 C1069 1.491 . S
C1064 H1055 0.950 . S
C1064 C1063 1.398 . S
C1064 C1065 1.391 . S
C1065 H1053 0.950 . S
C1065 C1061 1.393 . S
C1065 C1064 1.391 . S
C1066 H1056 0.950 . S
C1066 C1067 1.386 . S
C1066 C1068 1.391 . S
C1067 C1066 1.386 . S
C1067 C1071 1.393 . S
C1068 H1057 0.950 . S
C1068 C1066 1.391 . S
C1068 C1069 1.400 . S
C1069 C1063 1.491 . S
C1069 C1068 1.400 . S
C1069 C1070 1.398 . S
C1070 H1058 0.950 . S
C1070 C1069 1.398 . S
C1070 C1071 1.391 . S
C1071 H1059 0.950 . S
C1071 C1067 1.393 . S
C1071 C1070 1.391 . S
H1072 C1080 0.950 . S
H1073 C1085 0.950 . S
H1074 C1082 0.950 . S
H1075 C1084 0.950 . S
H1076 C1086 0.950 . S
H1077 C1088 0.950 . S
H1078 C1090 0.950 . S
H1079 C1091 0.950 . S
C1080 H1072 0.950 . S
C1080 C1081 1.386 . S
C1080 C1082 1.391 . S
C1081 C1080 1.386 . S
C1081 C1085 1.393 . S
C1082 H1074 0.950 . S
C1082 C1080 1.391 . S
C1082 C1083 1.400 . S
C1083 C1082 1.400 . S
C1083 C1084 1.398 . S
C1083 C1089 1.491 . S
C1084 H1075 0.950 . S
C1084 C1083 1.398 . S
C1084 C1085 1.391 . S
C1085 H1073 0.950 . S
C1085 C1081 1.393 . S
C1085 C1084 1.391 . S
C1086 H1076 0.950 . S
C1086 C1087 1.386 . S
C1086 C1088 1.391 . S
C1087 C1086 1.386 . S
C1087 C1091 1.393 . S
C1088 H1077 0.950 . S
C1088 C1086 1.391 . S
C1088 C1089 1.400 . S
C1089 C1083 1.491 . S
C1089 C1088 1.400 . S
C1089 C1090 1.398 . S
C1090 H1078 0.950 . S
C1090 C1089 1.398 . S
C1090 C1091 1.391 . S
C1091 H1079 0.950 . S
C1091 C1087 1.393 . S
C1091 C1090 1.391 . S
H1092 C1100 0.950 . S
H1093 C1105 0.950 . S
H1094 C1102 0.950 . S
H1095 C1104 0.950 . S
H1096 C1106 0.950 . S
H1097 C1108 0.950 . S
H1098 C1110 0.950 . S
H1099 C1111 0.950 . S
C1100 H1092 0.950 . S
C1100 C1101 1.386 . S
C1100 C1102 1.391 . S
C1101 C1100 1.386 . S
C1101 C1105 1.393 . S
C1102 H1094 0.950 . S
C1102 C1100 1.391 . S
C1102 C1103 1.400 . S
C1103 C1102 1.400 . S
C1103 C1104 1.398 . S
C1103 C1109 1.491 . S
C1104 H1095 0.950 . S
C1104 C1103 1.398 . S
C1104 C1105 1.391 . S
C1105 H1093 0.950 . S
C1105 C1101 1.393 . S
C1105 C1104 1.391 . S
C1106 H1096 0.950 . S
C1106 C1107 1.386 . S
C1106 C1108 1.391 . S
C1107 C1106 1.386 . S
C1107 C1111 1.393 . S
C1108 H1097 0.950 . S
C1108 C1106 1.391 . S
C1108 C1109 1.400 . S
C1109 C1103 1.491 . S
C1109 C1108 1.400 . S
C1109 C1110 1.398 . S
C1110 H1098 0.950 . S
C1110 C1109 1.398 . S
C1110 C1111 1.391 . S
C1111 H1099 0.950 . S
C1111 C1107 1.393 . S
C1111 C1110 1.391 . S
H1112 C1120 0.950 . S
H1113 C1125 0.950 . S
H1114 C1122 0.950 . S
H1115 C1124 0.950 . S
H1116 C1126 0.950 . S
H1117 C1128 0.950 . S
H1118 C1130 0.950 . S
H1119 C1131 0.950 . S
C1120 H1112 0.950 . S
C1120 C1121 1.386 . S
C1120 C1122 1.391 . S
C1121 C1120 1.386 . S
C1121 C1125 1.393 . S
C1122 H1114 0.950 . S
C1122 C1120 1.391 . S
C1122 C1123 1.400 . S
C1123 C1122 1.400 . S
C1123 C1124 1.398 . S
C1123 C1129 1.491 . S
C1124 H1115 0.950 . S
C1124 C1123 1.398 . S
C1124 C1125 1.391 . S
C1125 H1113 0.950 . S
C1125 C1121 1.393 . S
C1125 C1124 1.391 . S
C1126 H1116 0.950 . S
C1126 C1127 1.386 . S
C1126 C1128 1.391 . S
C1127 C1126 1.386 . S
C1127 C1131 1.393 . S
C1128 H1117 0.950 . S
C1128 C1126 1.391 . S
C1128 C1129 1.400 . S
C1129 C1123 1.491 . S
C1129 C1128 1.400 . S
C1129 C1130 1.398 . S
C1130 H1118 0.950 . S
C1130 C1129 1.398 . S
C1130 C1131 1.391 . S
C1131 H1119 0.950 . S
C1131 C1127 1.393 . S
C1131 C1130 1.391 . S
H1132 C1140 0.950 . S
H1133 C1145 0.950 . S
H1134 C1142 0.950 . S
H1135 C1144 0.950 . S
H1136 C1146 0.950 . S
H1137 C1148 0.950 . S
H1138 C1150 0.950 . S
H1139 C1151 0.950 . S
C1140 H1132 0.950 . S
C1140 C1141 1.386 1_455 S
C1140 C1142 1.391 . S
C1141 C1140 1.386 1_655 S
C1141 C1145 1.393 . S
C1142 H1134 0.950 . S
C1142 C1140 1.391 . S
C1142 C1143 1.397 1_455 S
C1143 C1142 1.397 1_655 S
C1143 C1144 1.401 . S
C1143 C1149 1.491 1_656 S
C1144 H1135 0.950 . S
C1144 C1143 1.401 . S
C1144 C1145 1.391 . S
C1145 H1133 0.950 . S
C1145 C1141 1.393 . S
C1145 C1144 1.391 . S
C1146 H1136 0.950 . S
C1146 C1147 1.386 1_655 S
C1146 C1148 1.391 . S
C1147 C1146 1.386 1_455 S
C1147 C1151 1.393 . S
C1148 H1137 0.950 . S
C1148 C1146 1.391 . S
C1148 C1149 1.393 1_655 S
C1149 C1143 1.491 1_454 S
C1149 C1148 1.393 1_455 S
C1149 C1150 1.406 . S
C1150 H1138 0.950 . S
C1150 C1149 1.406 . S
C1150 C1151 1.391 . S
C1151 H1139 0.950 . S
C1151 C1147 1.393 . S
C1151 C1150 1.391 . S
C681 C56 1.586 . S
C687 C308 1.584 . S
C701 C74 1.459 . S
C707 C140 1.462 . S
C721 C158 1.313 . S
C727 C242 1.322 . S
C741 C224 1.462 . S
C747 C326 1.456 . S
C761 C67 1.586 . S
C767 C487 1.606 . S
C781 C63 1.459 . S
C787 C403 1.464 . S
C801 C399 1.330 . S
C807 C231 1.307 . S
C821 C483 1.465 . S
C827 C235 1.463 . S
C841 C560 1.605 . S
C847 C476 1.607 . S
C861 C392 1.456 . S
C867 C578 1.467 . S
C881 C662 1.312 . S
C887 C410 1.323 . S
C901 C494 1.478 . S
C907 C644 1.444 . S
C921 C319 1.585 . S
C927 C571 1.598 . S
C941 C567 1.463 . S
C947 C151 1.456 . S
C961 C147 1.322 . S
C967 C651 1.332 . S
C981 C315 1.475 . S
C987 C655 1.444 . S
C1001 C70 1.406 1_565 S
C1007 C58 1.406 1_545 S
C1021 C142 1.437 . S
C1027 C154 1.437 . S
C1041 C238 1.434 1_565 S
C1047 C226 1.434 1_545 S
C1061 C322 1.400 . S
C1067 C310 1.400 . S
C1081 C394 1.413 . S
C1087 C406 1.413 . S
C1101 C490 1.432 . S
C1107 C478 1.432 . S
C1121 C562 1.406 . S
C1127 C574 1.406 . S
C1141 C646 1.435 . S
C1147 C658 1.435 . S
