# Generated by pormake.
# Topology uog, (4)-cn, num edge types: 1
# Building blocks:
#     Node 0, Type 0, BuildingBlock: NAWXER_clean_sbu_0, # of connection points: 4
#     Node 1, Type 0, BuildingBlock: NAWXER_clean_sbu_0, # of connection points: 4
#     Node 2, Type 0, BuildingBlock: NAWXER_clean_sbu_0, # of connection points: 4
#     Node 3, Type 0, BuildingBlock: NAWXER_clean_sbu_0, # of connection points: 4
#     Node 4, Type 0, BuildingBlock: NAWXER_clean_sbu_0, # of connection points: 4
#     Node 5, Type 0, BuildingBlock: NAWXER_clean_sbu_0, # of connection points: 4
#     Edge 6, Type (0, 0), BuildingBlock: TEMPAE_clean_linker_10, # of connection points: 2
#     Edge 7, Type (0, 0), BuildingBlock: TEMPAE_clean_linker_10, # of connection points: 2
#     Edge 8, Type (0, 0), BuildingBlock: TEMPAE_clean_linker_10, # of connection points: 2
#     Edge 9, Type (0, 0), BuildingBlock: TEMPAE_clean_linker_10, # of connection points: 2
#     Edge 10, Type (0, 0), BuildingBlock: TEMPAE_clean_linker_10, # of connection points: 2
#     Edge 11, Type (0, 0), BuildingBlock: TEMPAE_clean_linker_10, # of connection points: 2
#     Edge 12, Type (0, 0), BuildingBlock: TEMPAE_clean_linker_10, # of connection points: 2
#     Edge 13, Type (0, 0), BuildingBlock: TEMPAE_clean_linker_10, # of connection points: 2
#     Edge 14, Type (0, 0), BuildingBlock: TEMPAE_clean_linker_10, # of connection points: 2
#     Edge 15, Type (0, 0), BuildingBlock: TEMPAE_clean_linker_10, # of connection points: 2
#     Edge 16, Type (0, 0), BuildingBlock: TEMPAE_clean_linker_10, # of connection points: 2
#     Edge 17, Type (0, 0), BuildingBlock: TEMPAE_clean_linker_10, # of connection points: 2
# Relax obj value: 0.013
# Max RMSD: 0.240
# Mean RMSD: 0.240
data_MOF--net-uog--node1-NAWXER_clean_sbu_0--edge1-TEMPAE_clean_linker_10
_symmetry_space_group_name_H-M    P1
_symmetry_Int_Tables_number       1
_symmetry_cell_setting            triclinic
loop_
_symmetry_equiv_pos_as_xyz
'x, y, z'
_cell_length_a     29.537586
_cell_length_b     29.546409
_cell_length_c     44.14714
_cell_angle_alpha  89.95523
_cell_angle_beta   90.037669
_cell_angle_gamma 120.00349
loop_
_atom_site_label
_atom_site_type_symbol
_atom_site_fract_x
_atom_site_fract_y
_atom_site_fract_z
_atom_type_partial_charge
C0 C 0.53796 0.35148 0.16717 0.0
C1 C 0.53827 0.18814 0.17574 0.0
O2 O 0.49971 0.30524 0.16925 0.0
Zn3 Zn 0.53964 0.27058 0.17148 0.0
O4 O 0.5849 0.35954 0.16738 0.0
Zn5 Zn 0.62109 0.3114 0.17147 0.0
O6 O 0.66088 0.32673 0.13503 0.0
O7 O 0.5758 0.28312 0.12708 0.0
O8 O 0.58515 0.2271 0.17552 0.0
O9 O 0.49992 0.196 0.1737 0.0
O10 O 0.57584 0.29432 0.21586 0.0
O11 O 0.66091 0.33597 0.20791 0.0
C12 C 0.62273 0.3052 0.11675 0.0
C13 C 0.62278 0.31927 0.22619 0.0
C14 C 0.30925 0.62045 0.55941 0.0
C15 C 0.32326 0.62016 0.44998 0.0
O16 O 0.3307 0.65854 0.54109 0.0
Zn17 Zn 0.31547 0.61865 0.50469 0.0
O18 O 0.28729 0.57351 0.54914 0.0
Zn19 Zn 0.27483 0.53722 0.50481 0.0
O20 O 0.30968 0.49751 0.5071 0.0
O21 O 0.36384 0.58272 0.5088 0.0
O22 O 0.29841 0.57327 0.46037 0.0
O23 O 0.33992 0.65835 0.4682 0.0
O24 O 0.23112 0.58246 0.50062 0.0
O25 O 0.20025 0.4973 0.50266 0.0
C26 C 0.35589 0.53583 0.50908 0.0
C27 C 0.19226 0.53553 0.50049 0.0
C28 C 0.69294 0.30583 0.89291 0.0
C29 C 0.70765 0.32023 0.78348 0.0
O30 O 0.67637 0.32735 0.87459 0.0
Zn31 Zn 0.70114 0.31224 0.83819 0.0
O32 O 0.71798 0.28392 0.88264 0.0
Zn33 Zn 0.74198 0.27164 0.83833 0.0
O34 O 0.81655 0.30651 0.84069 0.0
O35 O 0.78545 0.36062 0.84232 0.0
O36 O 0.72968 0.29537 0.79389 0.0
O37 O 0.68598 0.33677 0.80169 0.0
O38 O 0.65302 0.22791 0.83409 0.0
O39 O 0.70737 0.19709 0.83609 0.0
C40 C 0.82442 0.35271 0.84264 0.0
C41 C 0.66112 0.18907 0.83394 0.0
C42 C 0.3921 0.68964 0.22601 0.0
C43 C 0.39198 0.70423 0.11658 0.0
O44 O 0.35392 0.67314 0.20776 0.0
Zn45 Zn 0.39368 0.69776 0.17131 0.0
O46 O 0.43902 0.71453 0.21566 0.0
Zn47 Zn 0.47514 0.73833 0.17127 0.0
O48 O 0.51508 0.8129 0.17353 0.0
O49 O 0.42991 0.78205 0.17546 0.0
O50 O 0.43892 0.72602 0.1269 0.0
O51 O 0.35386 0.68281 0.13487 0.0
O52 O 0.42958 0.64936 0.16718 0.0
O53 O 0.51482 0.70344 0.16899 0.0
C54 C 0.47685 0.82091 0.17565 0.0
C55 C 0.47646 0.65726 0.16695 0.0
C56 C 0.66147 0.47396 0.50897 0.0
C57 C 0.82478 0.47363 0.50029 0.0
O58 O 0.70771 0.51218 0.50682 0.0
Zn59 Zn 0.74232 0.47225 0.5046 0.0
O60 O 0.65338 0.42703 0.50882 0.0
Zn61 Zn 0.7015 0.39082 0.50474 0.0
O62 O 0.68635 0.35115 0.54124 0.0
O63 O 0.73002 0.43623 0.54905 0.0
O64 O 0.78582 0.42675 0.50062 0.0
O65 O 0.81688 0.51195 0.50222 0.0
O66 O 0.71827 0.43593 0.46029 0.0
O67 O 0.6767 0.35091 0.46834 0.0
C68 C 0.70799 0.38935 0.55945 0.0
C69 C 0.69324 0.38899 0.45002 0.0
C70 C 0.35553 0.82166 0.83357 0.0
C71 C 0.19183 0.65838 0.84208 0.0
O72 O 0.30931 0.8138 0.83549 0.0
Zn73 Zn 0.27444 0.73925 0.83777 0.0
O74 O 0.36345 0.7827 0.83387 0.0
Zn75 Zn 0.31502 0.69839 0.83792 0.0
O76 O 0.33028 0.67374 0.80153 0.0
O77 O 0.28694 0.71544 0.79345 0.0
O78 O 0.23069 0.6503 0.84196 0.0
O79 O 0.19984 0.70461 0.83992 0.0
O80 O 0.29806 0.72683 0.88222 0.0
O81 O 0.33937 0.68303 0.87443 0.0
C82 C 0.30889 0.69043 0.78319 0.0
C83 C 0.32282 0.70469 0.89263 0.0
C84 C 0.55978 0.12216 0.19584 0.0
C85 C 0.52889 0.13431 0.17726 0.0
C86 C 0.55094 0.07087 0.19739 0.0
C87 C 0.51173 0.03151 0.17897 0.0
C88 C 0.4809 0.04393 0.15988 0.0
C89 C 0.48921 0.09501 0.15972 0.0
C90 C 0.58337 0.05874 0.21878 0.0
C91 C 0.44001 1.0036 0.1391 0.0
C92 C 0.52585 0.914 0.15952 0.0
C93 C 0.48641 0.87479 0.17723 0.0
C94 C 0.53424 0.96512 0.1597 0.0
C95 C 0.50376 0.97765 0.17898 0.0
C96 C 0.46483 0.93839 0.19758 0.0
C97 C 0.45588 0.88706 0.19601 0.0
C98 C 0.5748 0.00534 0.13873 0.0
C99 C 0.4328 0.95063 0.21917 0.0
H100 H 0.59021 0.1526 0.20957 0.0
H101 H 0.46567 0.10466 0.14515 0.0
H102 H 0.55744 0.0258 0.23387 0.0
H103 H 0.60741 0.04635 0.20576 0.0
H104 H 0.60981 0.09291 0.23299 0.0
H105 H 0.42026 0.01995 0.12515 0.0
H106 H 0.45836 0.98767 0.12373 0.0
H107 H 0.40996 0.97041 0.15252 0.0
H108 H 0.5491 0.90426 0.14479 0.0
H109 H 0.42564 0.85667 0.20986 0.0
H110 H 0.60504 0.03862 0.15199 0.0
H111 H 0.55619 0.02116 0.12344 0.0
H112 H 0.59436 0.98893 0.12468 0.0
H113 H 0.459 0.98369 0.23411 0.0
H114 H 0.40664 0.91656 0.23354 0.0
H115 H 0.4085 0.96292 0.20631 0.0
C116 C 0.44334 0.55718 0.52919 0.0
C117 C 0.40032 0.52642 0.51059 0.0
C118 C 0.48575 0.54826 0.53074 0.0
C119 C 0.48588 0.50911 0.51228 0.0
C120 C 0.44267 0.47842 0.49316 0.0
C121 C 0.39993 0.4868 0.493 0.0
C122 C 0.53026 0.58054 0.55217 0.0
C123 C 0.44211 0.4376 0.47234 0.0
C124 C 0.61748 0.52308 0.49286 0.0
C125 C 0.61715 0.48355 0.51054 0.0
C126 C 0.57481 0.53156 0.49305 0.0
C127 C 0.53173 0.50106 0.51229 0.0
C128 C 0.53195 0.46202 0.53086 0.0
C129 C 0.57429 0.45299 0.52928 0.0
C130 C 0.57526 0.57224 0.47211 0.0
C131 C 0.48759 0.42995 0.55242 0.0
H132 H 0.44332 0.58756 0.54295 0.0
H133 H 0.36677 0.46336 0.4784 0.0
H134 H 0.53718 0.55451 0.56724 0.0
H135 H 0.56676 0.60457 0.53918 0.0
H136 H 0.52256 0.60696 0.5664 0.0
H137 H 0.40604 0.41797 0.45835 0.0
H138 H 0.47645 0.45598 0.457 0.0
H139 H 0.44515 0.40747 0.48573 0.0
H140 H 0.65053 0.54636 0.47815 0.0
H141 H 0.57435 0.42268 0.54311 0.0
H142 H 0.57225 0.60245 0.48541 0.0
H143 H 0.54086 0.55376 0.45681 0.0
H144 H 0.61127 0.59181 0.45809 0.0
H145 H 0.48076 0.45612 0.56738 0.0
H146 H 0.49541 0.40369 0.56675 0.0
H147 H 0.45102 0.40577 0.53952 0.0
C148 C 0.89032 0.4406 0.86226 0.0
C149 C 0.87828 0.39716 0.84411 0.0
C150 C 0.94163 0.48307 0.86373 0.0
C151 C 0.98113 0.4828 0.84566 0.0
C152 C 0.96883 0.43915 0.82701 0.0
C153 C 0.91772 0.39639 0.82692 0.0
C154 C 0.95362 0.5281 0.88466 0.0
C155 C 0.00933 0.43811 0.8066 0.0
C156 C 0.0989 0.61395 0.82562 0.0
C157 C 0.13794 0.61407 0.84368 0.0
C158 C 0.04776 0.57125 0.82587 0.0
C159 C 0.03502 0.52867 0.84557 0.0
C160 C 0.07412 0.52938 0.86452 0.0
C161 C 0.12549 0.57169 0.86287 0.0
C162 C 0.00772 0.57115 0.80453 0.0
C163 C 0.06165 0.48558 0.88656 0.0
H164 H 0.85978 0.4409 0.87572 0.0
H165 H 0.90818 0.36291 0.81267 0.0
H166 H 0.98644 0.53544 0.89995 0.0
H167 H 0.96615 0.56424 0.87129 0.0
H168 H 0.91934 0.52071 0.89865 0.0
H169 H 0.99307 0.4017 0.79297 0.0
H170 H 0.02541 0.47204 0.79094 0.0
H171 H 0.04241 0.44154 0.82028 0.0
H172 H 0.10881 0.64664 0.81058 0.0
H173 H 0.15576 0.57213 0.877 0.0
H174 H 0.97435 0.56845 0.81753 0.0
H175 H 0.99198 0.53637 0.78955 0.0
H176 H 0.0243 0.60679 0.79016 0.0
H177 H 0.02849 0.4791 0.90129 0.0
H178 H 0.0956 0.49378 0.90112 0.0
H179 H 0.0494 0.4487 0.87405 0.0
C180 C 0.12563 0.55518 0.47936 0.0
C181 C 0.13838 0.52597 0.49896 0.0
C182 C 0.07423 0.54607 0.47776 0.0
C183 C 0.03545 0.50843 0.49716 0.0
C184 C 0.04852 0.47935 0.51729 0.0
C185 C 0.09966 0.48777 0.51749 0.0
C186 C 0.06138 0.57651 0.45526 0.0
C187 C 0.00885 0.44027 0.53911 0.0
C188 C 0.91836 0.52396 0.51545 0.0
C189 C 0.87866 0.48307 0.49875 0.0
C190 C 0.96951 0.5324 0.51529 0.0
C191 C 0.98154 0.50037 0.49709 0.0
C192 C 0.94178 0.45989 0.47951 0.0
C193 C 0.89047 0.45105 0.48102 0.0
C194 C 0.01033 0.57475 0.53518 0.0
C195 C 0.95346 0.42608 0.45905 0.0
H196 H 0.15567 0.58445 0.46488 0.0
H197 H 0.10982 0.46556 0.53284 0.0
H198 H 0.02801 0.54926 0.44083 0.0
H199 H 0.04929 0.60159 0.4674 0.0
H200 H 0.0951 0.60172 0.44043 0.0
H201 H 0.02569 0.42182 0.55378 0.0
H202 H 0.99332 0.45988 0.55378 0.0
H203 H 0.9753 0.40908 0.52649 0.0
H204 H 0.90902 0.5484 0.52938 0.0
H205 H 0.85973 0.41968 0.46794 0.0
H206 H 0.04317 0.60384 0.52115 0.0
H207 H 0.02668 0.55754 0.55113 0.0
H208 H 0.99428 0.59544 0.54849 0.0
H209 H 0.98603 0.45097 0.44348 0.0
H210 H 0.91897 0.39864 0.44537 0.0
H211 H 0.96623 0.40301 0.47277 0.0
C212 C 0.39955 0.91472 0.84969 0.0
C213 C 0.39998 0.8755 0.83212 0.0
C214 C 0.4423 0.96582 0.84957 0.0
C215 C 0.48555 0.97835 0.83051 0.0
C216 C 0.48547 0.93907 0.81206 0.0
C217 C 0.44304 0.88774 0.81357 0.0
C218 C 0.44168 0.00607 0.87038 0.0
C219 C 0.53004 0.95131 0.79069 0.0
C220 C 0.57397 0.12286 0.81356 0.0
C221 C 0.61681 0.13517 0.83235 0.0
C222 C 0.53165 0.0715 0.81195 0.0
C223 C 0.5314 0.03225 0.83054 0.0
C224 C 0.57444 0.04483 0.84983 0.0
C225 C 0.61711 0.09598 0.85005 0.0
C226 C 0.48733 0.05921 0.79034 0.0
C227 C 0.57486 0.0046 0.87078 0.0
H228 H 0.36635 0.90499 0.86424 0.0
H229 H 0.44306 0.85735 0.79982 0.0
H230 H 0.47599 0.02203 0.88576 0.0
H231 H 0.44474 0.03925 0.85699 0.0
H232 H 0.40559 0.98963 0.88433 0.0
H233 H 0.52237 0.91718 0.77647 0.0
H234 H 0.53698 0.98424 0.77561 0.0
H235 H 0.5665 0.96377 0.80372 0.0
H236 H 0.57406 0.15324 0.79971 0.0
H237 H 0.65013 0.10575 0.86479 0.0
H238 H 0.45073 0.04681 0.80319 0.0
H239 H 0.48054 0.02622 0.77538 0.0
H240 H 0.49517 0.09329 0.776 0.0
H241 H 0.54042 0.98869 0.88605 0.0
H242 H 0.61084 0.02105 0.88485 0.0
H243 H 0.57189 0.97139 0.8575 0.0
C244 C 0.45502 0.56984 0.14683 0.0
C245 C 0.48583 0.6128 0.16544 0.0
C246 C 0.46386 0.52739 0.14531 0.0
C247 C 0.50299 0.52716 0.1638 0.0
C248 C 0.53372 0.57032 0.18292 0.0
C249 C 0.52542 0.6131 0.18306 0.0
C250 C 0.43154 0.48294 0.12387 0.0
C251 C 0.57451 0.57079 0.20378 0.0
C252 C 0.48887 0.39548 0.18324 0.0
C253 C 0.52841 0.39582 0.1656 0.0
C254 C 0.48043 0.43818 0.18303 0.0
C255 C 0.51098 0.48127 0.1638 0.0
C256 C 0.55002 0.48105 0.14527 0.0
C257 C 0.55901 0.4387 0.14687 0.0
C258 C 0.43975 0.43773 0.20394 0.0
C259 C 0.58213 0.52543 0.12372 0.0
H260 H 0.42465 0.56992 0.13305 0.0
H261 H 0.54889 0.64622 0.19767 0.0
H262 H 0.45755 0.476 0.10882 0.0
H263 H 0.40745 0.44644 0.13685 0.0
H264 H 0.40515 0.49071 0.10962 0.0
H265 H 0.59417 0.60681 0.21777 0.0
H266 H 0.55608 0.53643 0.21912 0.0
H267 H 0.60464 0.56773 0.19042 0.0
H268 H 0.46556 0.36242 0.19793 0.0
H269 H 0.58932 0.43863 0.13306 0.0
H270 H 0.40956 0.44081 0.19062 0.0
H271 H 0.45826 0.47209 0.21925 0.0
H272 H 0.42014 0.4017 0.21795 0.0
H273 H 0.55599 0.53232 0.10874 0.0
H274 H 0.60838 0.5176 0.1094 0.0
H275 H 0.60635 0.56196 0.13662 0.0
C276 C 0.69035 0.2726 0.94547 0.0
C277 C 0.68288 0.3056 0.92579 0.0
C278 C 0.6799 0.27138 0.97658 0.0
C279 C 0.66224 0.30445 0.98831 0.0
C280 C 0.655 0.33809 0.9686 0.0
C281 C 0.66509 0.33802 0.93755 0.0
C282 C 0.68756 0.23459 0.99687 0.0
C283 C 0.63686 0.3744 0.98032 0.0
C284 C 0.59207 0.27217 0.06418 0.0
C285 C 0.63251 0.30518 0.08386 0.0
C286 C 0.60129 0.27113 0.03306 0.0
C287 C 0.65197 0.3044 0.0213 0.0
C288 C 0.69283 0.3381 0.041 0.0
C289 C 0.68268 0.33784 0.07206 0.0
C290 C 0.55687 0.23428 0.01277 0.0
C291 C 0.74723 0.37462 0.02926 0.0
H292 H 0.70379 0.24722 0.93651 0.0
H293 H 0.65942 0.36379 0.92252 0.0
H294 H 0.71714 0.2571 0.01451 0.0
H295 H 0.65048 0.20794 0.00874 0.0
H296 H 0.70051 0.21068 0.98411 0.0
H297 H 0.63346 0.39837 0.96203 0.0
H298 H 0.59825 0.35152 0.99151 0.0
H299 H 0.66467 0.40102 0.99763 0.0
H300 H 0.55328 0.24661 0.07316 0.0
H301 H 0.7141 0.36363 0.08709 0.0
H302 H 0.56739 0.20771 1.00092 0.0
H303 H 0.54974 0.25675 0.99512 0.0
H304 H 0.52001 0.21028 0.02553 0.0
H305 H 0.76313 0.3519 0.01809 0.0
H306 H 0.77455 0.39868 0.04754 0.0
H307 H 0.74589 0.40116 0.01193 0.0
C308 C 0.33218 0.66177 0.27074 0.0
C309 C 0.38241 0.67969 0.25891 0.0
C310 C 0.32215 0.65178 0.3018 0.0
C311 C 0.36317 0.65928 0.32148 0.0
C312 C 0.4139 0.67707 0.30968 0.0
C313 C 0.423 0.68739 0.27855 0.0
C314 C 0.26769 0.63349 0.31359 0.0
C315 C 0.4585 0.685 0.32994 0.0
C316 C 0.3503 0.67993 0.40519 0.0
C317 C 0.33299 0.62984 0.41707 0.0
C318 C 0.3601 0.68998 0.37412 0.0
C319 C 0.35307 0.64912 0.35448 0.0
C320 C 0.33588 0.59853 0.36632 0.0
C321 C 0.3257 0.5894 0.39747 0.0
C322 C 0.37773 0.74427 0.36228 0.0
C323 C 0.32847 0.55412 0.34611 0.0
H324 H 0.30064 0.65592 0.25573 0.0
H325 H 0.46183 0.70093 0.26955 0.0
H326 H 0.25214 0.59495 0.32484 0.0
H327 H 0.2688 0.6613 0.33085 0.0
H328 H 0.2402 0.62989 0.29531 0.0
H329 H 0.49536 0.69805 0.31714 0.0
H330 H 0.4655 0.71462 0.34752 0.0
H331 H 0.44827 0.64803 0.34187 0.0
H332 H 0.35581 0.71134 0.42017 0.0
H333 H 0.31263 0.55068 0.40651 0.0
H334 H 0.34973 0.74275 0.34498 0.0
H335 H 0.41633 0.76026 0.35106 0.0
H336 H 0.38093 0.77161 0.38052 0.0
H337 H 0.29878 0.54679 0.3285 0.0
H338 H 0.3158 0.51735 0.35894 0.0
H339 H 0.36558 0.56476 0.33422 0.0
C340 C 0.67543 0.34782 0.73868 0.0
C341 C 0.70789 0.33012 0.75058 0.0
C342 C 0.67536 0.35774 0.7076 0.0
C343 C 0.70903 0.35041 0.68798 0.0
C344 C 0.74212 0.33284 0.69985 0.0
C345 C 0.74091 0.32257 0.731 0.0
C346 C 0.63903 0.37579 0.69574 0.0
C347 C 0.77894 0.32509 0.67966 0.0
C348 C 0.67553 0.32958 0.60425 0.0
C349 C 0.70814 0.3797 0.59236 0.0
C350 C 0.67535 0.31957 0.63532 0.0
C351 C 0.70907 0.36051 0.65497 0.0
C352 C 0.74232 0.41113 0.64312 0.0
C353 C 0.74121 0.42021 0.61197 0.0
C354 C 0.63885 0.26523 0.64717 0.0
C355 C 0.77919 0.45563 0.66334 0.0
H356 H 0.64965 0.35355 0.75364 0.0
H357 H 0.76632 0.3092 0.74005 0.0
H358 H 0.66191 0.41433 0.68448 0.0
H359 H 0.61241 0.34789 0.67847 0.0
H360 H 0.61504 0.37927 0.71397 0.0
H361 H 0.80286 0.31221 0.69251 0.0
H362 H 0.75642 0.29543 0.66207 0.0
H363 H 0.80559 0.3621 0.66773 0.0
H364 H 0.6497 0.2981 0.58926 0.0
H365 H 0.76673 0.45896 0.60293 0.0
H366 H 0.61227 0.26662 0.66442 0.0
H367 H 0.6616 0.24943 0.65844 0.0
H368 H 0.61482 0.23781 0.62892 0.0
H369 H 0.75673 0.46286 0.68091 0.0
H370 H 0.80322 0.49241 0.6505 0.0
H371 H 0.80575 0.44515 0.67528 0.0
C372 C 0.32689 0.73911 0.94497 0.0
C373 C 0.33255 0.70476 0.92553 0.0
C374 C 0.33718 0.74022 0.97611 0.0
C375 C 0.3527 0.7056 0.98811 0.0
C376 C 0.35802 0.67052 0.96863 0.0
C377 C 0.34824 0.67078 0.93755 0.0
C378 C 0.33169 0.77861 0.99614 0.0
C379 C 0.37377 0.6325 0.98064 0.0
C380 C 0.42311 0.73607 0.06389 0.0
C381 C 0.3822 0.70447 0.08369 0.0
C382 C 0.41398 0.73724 0.03275 0.0
C383 C 0.36287 0.7056 0.02111 0.0
C384 C 0.32151 0.6734 0.04095 0.0
C385 C 0.33161 0.67343 0.072 0.0
C386 C 0.45899 0.77244 0.01231 0.0
C387 C 0.26659 0.63866 0.02934 0.0
H388 H 0.3151 0.7657 0.9358 0.0
H389 H 0.35245 0.64394 0.92268 0.0
H390 H 0.30187 0.75732 0.01388 0.0
H391 H 0.36922 0.80422 0.00789 0.0
H392 H 0.3202 0.80355 0.9832 0.0
H393 H 0.3757 0.60745 0.96252 0.0
H394 H 0.41259 0.65408 0.99175 0.0
H395 H 0.34541 0.60694 0.99807 0.0
H396 H 0.46225 0.76037 0.07275 0.0
H397 H 0.2998 0.64875 0.08712 0.0
H398 H 0.45001 0.79998 1.00024 0.0
H399 H 0.46472 0.74879 0.99485 0.0
H400 H 0.49616 0.79537 0.02499 0.0
H401 H 0.25228 0.66264 0.01798 0.0
H402 H 0.23885 0.61573 0.04773 0.0
H403 H 0.26638 0.61111 0.0122 0.0
C404 C 0.66514 0.32887 0.4054 0.0
C405 C 0.68313 0.37914 0.41715 0.0
C406 C 0.655 0.31869 0.37436 0.0
C407 C 0.66241 0.35961 0.35462 0.0
C408 C 0.68026 0.41038 0.36634 0.0
C409 C 0.69074 0.41962 0.39745 0.0
C410 C 0.63665 0.26419 0.36265 0.0
C411 C 0.6881 0.45487 0.34602 0.0
C412 C 0.68273 0.34643 0.27089 0.0
C413 C 0.63258 0.32909 0.25908 0.0
C414 C 0.6929 0.35633 0.30195 0.0
C415 C 0.65211 0.34936 0.32164 0.0
C416 C 0.60145 0.33213 0.30986 0.0
C417 C 0.5922 0.32185 0.27873 0.0
C418 C 0.74726 0.374 0.31372 0.0
C419 C 0.55711 0.3248 0.33013 0.0
H420 H 0.65935 0.29741 0.42045 0.0
H421 H 0.70434 0.45849 0.40639 0.0
H422 H 0.59805 0.2486 0.35146 0.0
H423 H 0.66439 0.26522 0.34536 0.0
H424 H 0.63313 0.2368 0.38096 0.0
H425 H 0.7012 0.49178 0.35877 0.0
H426 H 0.71765 0.4618 0.32841 0.0
H427 H 0.65107 0.44458 0.33414 0.0
H428 H 0.71409 0.35191 0.25587 0.0
H429 H 0.55343 0.30875 0.26974 0.0
H430 H 0.7458 0.34609 0.33105 0.0
H431 H 0.76331 0.41265 0.32487 0.0
H432 H 0.77453 0.3771 0.29545 0.0
H433 H 0.54987 0.29519 0.34778 0.0
H434 H 0.52027 0.31206 0.31735 0.0
H435 H 0.56779 0.36194 0.34196 0.0
C436 C 0.34146 0.66291 0.73859 0.0
C437 C 0.30887 0.68054 0.75032 0.0
C438 C 0.34171 0.65294 0.70754 0.0
C439 C 0.30808 0.66013 0.68778 0.0
C440 C 0.27487 0.67765 0.69948 0.0
C441 C 0.27591 0.68799 0.73059 0.0
C442 C 0.37817 0.63495 0.69587 0.0
C443 C 0.23808 0.68524 0.67913 0.0
C444 C 0.34168 0.6805 0.60405 0.0
C445 C 0.30913 0.63029 0.59229 0.0
C446 C 0.34182 0.69068 0.6351 0.0
C447 C 0.30813 0.64984 0.65481 0.0
C448 C 0.27496 0.59913 0.64308 0.0
C449 C 0.27611 0.58987 0.61197 0.0
C450 C 0.37824 0.74511 0.64682 0.0
C451 C 0.23811 0.55473 0.66338 0.0
H452 H 0.36721 0.65727 0.75366 0.0
H453 H 0.2504 0.70131 0.73952 0.0
H454 H 0.3554 0.59633 0.68471 0.0
H455 H 0.40477 0.66277 0.67855 0.0
H456 H 0.40218 0.63168 0.71419 0.0
H457 H 0.2141 0.69817 0.69185 0.0
H458 H 0.26061 0.7148 0.66149 0.0
H459 H 0.21147 0.64815 0.66728 0.0
H460 H 0.36747 0.7119 0.58901 0.0
H461 H 0.25064 0.55106 0.60301 0.0
H462 H 0.40479 0.74387 0.66417 0.0
H463 H 0.35542 0.76094 0.65795 0.0
H464 H 0.40229 0.77242 0.62853 0.0
H465 H 0.26059 0.54767 0.68105 0.0
H466 H 0.21417 0.51784 0.65063 0.0
H467 H 0.21147 0.5652 0.67519 0.0
loop_
_geom_bond_atom_site_label_1
_geom_bond_atom_site_label_2
_geom_bond_distance
_geom_bond_site_symmetry_2
_ccdc_geom_bond_type
C0 O2 1.247 . S
C0 O4 1.258 . S
C1 O8 1.247 . S
C1 O9 1.258 . S
O2 C0 1.247 . S
O2 Zn3 2.028 . S
Zn3 O2 2.028 . S
Zn3 O7 2.035 . S
Zn3 O9 2.035 . S
Zn3 O10 2.028 . S
O4 C0 1.258 . S
O4 Zn5 2.035 . S
Zn5 O4 2.035 . S
Zn5 O6 2.028 . S
Zn5 O8 2.028 . S
Zn5 O11 2.035 . S
O6 Zn5 2.028 . S
O6 C12 1.247 . S
O7 Zn3 2.035 . S
O7 C12 1.258 . S
O8 C1 1.247 . S
O8 Zn5 2.028 . S
O9 C1 1.258 . S
O9 Zn3 2.035 . S
O10 Zn3 2.028 . S
O10 C13 1.247 . S
O11 Zn5 2.035 . S
O11 C13 1.258 . S
C12 O6 1.247 . S
C12 O7 1.258 . S
C13 O10 1.247 . S
C13 O11 1.258 . S
C14 O16 1.247 . S
C14 O18 1.258 . S
C15 O22 1.247 . S
C15 O23 1.258 . S
O16 C14 1.247 . S
O16 Zn17 2.028 . S
Zn17 O16 2.028 . S
Zn17 O21 2.035 . S
Zn17 O23 2.035 . S
Zn17 O24 2.028 . S
O18 C14 1.258 . S
O18 Zn19 2.035 . S
Zn19 O18 2.035 . S
Zn19 O20 2.028 . S
Zn19 O22 2.028 . S
Zn19 O25 2.035 . S
O20 Zn19 2.028 . S
O20 C26 1.247 . S
O21 Zn17 2.035 . S
O21 C26 1.258 . S
O22 C15 1.247 . S
O22 Zn19 2.028 . S
O23 C15 1.258 . S
O23 Zn17 2.035 . S
O24 Zn17 2.028 . S
O24 C27 1.247 . S
O25 Zn19 2.035 . S
O25 C27 1.258 . S
C26 O20 1.247 . S
C26 O21 1.258 . S
C27 O24 1.247 . S
C27 O25 1.258 . S
C28 O30 1.247 . S
C28 O32 1.258 . S
C29 O36 1.247 . S
C29 O37 1.258 . S
O30 C28 1.247 . S
O30 Zn31 2.028 . S
Zn31 O30 2.028 . S
Zn31 O35 2.035 . S
Zn31 O37 2.035 . S
Zn31 O38 2.028 . S
O32 C28 1.258 . S
O32 Zn33 2.035 . S
Zn33 O32 2.035 . S
Zn33 O34 2.028 . S
Zn33 O36 2.028 . S
Zn33 O39 2.035 . S
O34 Zn33 2.028 . S
O34 C40 1.247 . S
O35 Zn31 2.035 . S
O35 C40 1.258 . S
O36 C29 1.247 . S
O36 Zn33 2.028 . S
O37 C29 1.258 . S
O37 Zn31 2.035 . S
O38 Zn31 2.028 . S
O38 C41 1.247 . S
O39 Zn33 2.035 . S
O39 C41 1.258 . S
C40 O34 1.247 . S
C40 O35 1.258 . S
C41 O38 1.247 . S
C41 O39 1.258 . S
C42 O44 1.247 . S
C42 O46 1.258 . S
C43 O50 1.247 . S
C43 O51 1.258 . S
O44 C42 1.247 . S
O44 Zn45 2.028 . S
Zn45 O44 2.028 . S
Zn45 O49 2.035 . S
Zn45 O51 2.035 . S
Zn45 O52 2.028 . S
O46 C42 1.258 . S
O46 Zn47 2.035 . S
Zn47 O46 2.035 . S
Zn47 O48 2.028 . S
Zn47 O50 2.028 . S
Zn47 O53 2.035 . S
O48 Zn47 2.028 . S
O48 C54 1.247 . S
O49 Zn45 2.035 . S
O49 C54 1.258 . S
O50 C43 1.247 . S
O50 Zn47 2.028 . S
O51 C43 1.258 . S
O51 Zn45 2.035 . S
O52 Zn45 2.028 . S
O52 C55 1.247 . S
O53 Zn47 2.035 . S
O53 C55 1.258 . S
C54 O48 1.247 . S
C54 O49 1.258 . S
C55 O52 1.247 . S
C55 O53 1.258 . S
C56 O58 1.247 . S
C56 O60 1.258 . S
C57 O64 1.247 . S
C57 O65 1.258 . S
O58 C56 1.247 . S
O58 Zn59 2.028 . S
Zn59 O58 2.028 . S
Zn59 O63 2.035 . S
Zn59 O65 2.035 . S
Zn59 O66 2.028 . S
O60 C56 1.258 . S
O60 Zn61 2.035 . S
Zn61 O60 2.035 . S
Zn61 O62 2.028 . S
Zn61 O64 2.028 . S
Zn61 O67 2.035 . S
O62 Zn61 2.028 . S
O62 C68 1.247 . S
O63 Zn59 2.035 . S
O63 C68 1.258 . S
O64 C57 1.247 . S
O64 Zn61 2.028 . S
O65 C57 1.258 . S
O65 Zn59 2.035 . S
O66 Zn59 2.028 . S
O66 C69 1.247 . S
O67 Zn61 2.035 . S
O67 C69 1.258 . S
C68 O62 1.247 . S
C68 O63 1.258 . S
C69 O66 1.247 . S
C69 O67 1.258 . S
C70 O72 1.247 . S
C70 O74 1.258 . S
C71 O78 1.247 . S
C71 O79 1.258 . S
O72 C70 1.247 . S
O72 Zn73 2.028 . S
Zn73 O72 2.028 . S
Zn73 O77 2.035 . S
Zn73 O79 2.035 . S
Zn73 O80 2.028 . S
O74 C70 1.258 . S
O74 Zn75 2.035 . S
Zn75 O74 2.035 . S
Zn75 O76 2.028 . S
Zn75 O78 2.028 . S
Zn75 O81 2.035 . S
O76 Zn75 2.028 . S
O76 C82 1.247 . S
O77 Zn73 2.035 . S
O77 C82 1.258 . S
O78 C71 1.247 . S
O78 Zn75 2.028 . S
O79 C71 1.258 . S
O79 Zn73 2.035 . S
O80 Zn73 2.028 . S
O80 C83 1.247 . S
O81 Zn75 2.035 . S
O81 C83 1.258 . S
C82 O76 1.247 . S
C82 O77 1.258 . S
C83 O80 1.247 . S
C83 O81 1.258 . S
C84 C85 1.391 . S
C84 C86 1.394 . S
C84 H100 0.931 . S
C85 C84 1.391 . S
C85 C89 1.376 . S
C86 C84 1.394 . S
C86 C87 1.369 . S
C86 C90 1.531 . S
C87 C86 1.369 . S
C87 C88 1.410 . S
C87 C95 1.503 1_545 S
C88 C87 1.410 . S
C88 C89 1.392 . S
C88 C91 1.511 . S
C89 C85 1.376 . S
C89 C88 1.392 . S
C89 H101 0.929 . S
C90 C86 1.531 . S
C90 H102 0.960 . S
C90 H103 0.962 . S
C90 H104 0.960 . S
C91 C88 1.511 . S
C91 H105 0.961 . S
C91 H106 0.961 1_545 S
C91 H107 0.961 . S
C92 C93 1.370 . S
C92 C94 1.363 . S
C92 H108 0.931 . S
C93 C92 1.370 . S
C93 C97 1.408 . S
C94 C92 1.363 . S
C94 C95 1.370 . S
C94 C98 1.524 . S
C95 C87 1.503 1_565 S
C95 C94 1.370 . S
C95 C96 1.403 . S
C96 C95 1.403 . S
C96 C97 1.404 . S
C96 C99 1.539 . S
C97 C93 1.408 . S
C97 C96 1.404 . S
C97 H109 0.930 . S
C98 C94 1.524 . S
C98 H110 0.956 1_565 S
C98 H111 0.961 1_565 S
C98 H112 0.961 . S
C99 C96 1.539 . S
C99 H113 0.958 . S
C99 H114 0.961 . S
C99 H115 0.960 . S
H100 C84 0.931 . S
H101 C89 0.929 . S
H102 C90 0.960 . S
H103 C90 0.962 . S
H104 C90 0.960 . S
H105 C91 0.961 . S
H106 C91 0.961 1_565 S
H107 C91 0.961 . S
H108 C92 0.931 . S
H109 C97 0.930 . S
H110 C98 0.956 1_545 S
H111 C98 0.961 1_545 S
H112 C98 0.961 . S
H113 C99 0.958 . S
H114 C99 0.961 . S
H115 C99 0.960 . S
C116 C117 1.391 . S
C116 C118 1.394 . S
C116 H132 0.931 . S
C117 C116 1.391 . S
C117 C121 1.376 . S
C118 C116 1.394 . S
C118 C119 1.369 . S
C118 C122 1.531 . S
C119 C118 1.369 . S
C119 C120 1.410 . S
C119 C127 1.503 . S
C120 C119 1.410 . S
C120 C121 1.392 . S
C120 C123 1.511 . S
C121 C117 1.376 . S
C121 C120 1.392 . S
C121 H133 0.929 . S
C122 C118 1.531 . S
C122 H134 0.960 . S
C122 H135 0.962 . S
C122 H136 0.960 . S
C123 C120 1.511 . S
C123 H137 0.961 . S
C123 H138 0.961 . S
C123 H139 0.961 . S
C124 C125 1.370 . S
C124 C126 1.363 . S
C124 H140 0.931 . S
C125 C124 1.370 . S
C125 C129 1.408 . S
C126 C124 1.363 . S
C126 C127 1.370 . S
C126 C130 1.524 . S
C127 C119 1.503 . S
C127 C126 1.370 . S
C127 C128 1.403 . S
C128 C127 1.403 . S
C128 C129 1.404 . S
C128 C131 1.539 . S
C129 C125 1.408 . S
C129 C128 1.404 . S
C129 H141 0.930 . S
C130 C126 1.524 . S
C130 H142 0.956 . S
C130 H143 0.961 . S
C130 H144 0.961 . S
C131 C128 1.539 . S
C131 H145 0.958 . S
C131 H146 0.961 . S
C131 H147 0.960 . S
H132 C116 0.931 . S
H133 C121 0.929 . S
H134 C122 0.960 . S
H135 C122 0.962 . S
H136 C122 0.960 . S
H137 C123 0.961 . S
H138 C123 0.961 . S
H139 C123 0.961 . S
H140 C124 0.931 . S
H141 C129 0.930 . S
H142 C130 0.956 . S
H143 C130 0.961 . S
H144 C130 0.961 . S
H145 C131 0.958 . S
H146 C131 0.961 . S
H147 C131 0.960 . S
C148 C149 1.391 . S
C148 C150 1.394 . S
C148 H164 0.931 . S
C149 C148 1.391 . S
C149 C153 1.376 . S
C150 C148 1.394 . S
C150 C151 1.369 . S
C150 C154 1.531 . S
C151 C150 1.369 . S
C151 C152 1.410 . S
C151 C159 1.503 1_655 S
C152 C151 1.410 . S
C152 C153 1.392 . S
C152 C155 1.511 . S
C153 C149 1.376 . S
C153 C152 1.392 . S
C153 H165 0.929 . S
C154 C150 1.531 . S
C154 H166 0.960 . S
C154 H167 0.962 . S
C154 H168 0.960 . S
C155 C152 1.511 . S
C155 H169 0.961 . S
C155 H170 0.961 1_655 S
C155 H171 0.961 . S
C156 C157 1.370 . S
C156 C158 1.363 . S
C156 H172 0.931 . S
C157 C156 1.370 . S
C157 C161 1.408 . S
C158 C156 1.363 . S
C158 C159 1.370 . S
C158 C162 1.524 . S
C159 C151 1.503 1_455 S
C159 C158 1.370 . S
C159 C160 1.403 . S
C160 C159 1.403 . S
C160 C161 1.404 . S
C160 C163 1.539 . S
C161 C157 1.408 . S
C161 C160 1.404 . S
C161 H173 0.930 . S
C162 C158 1.524 . S
C162 H174 0.956 1_455 S
C162 H175 0.960 1_455 S
C162 H176 0.961 . S
C163 C160 1.539 . S
C163 H177 0.958 . S
C163 H178 0.961 . S
C163 H179 0.960 . S
H164 C148 0.931 . S
H165 C153 0.929 . S
H166 C154 0.960 . S
H167 C154 0.962 . S
H168 C154 0.960 . S
H169 C155 0.961 . S
H170 C155 0.961 1_455 S
H171 C155 0.961 . S
H172 C156 0.931 . S
H173 C161 0.930 . S
H174 C162 0.956 1_655 S
H175 C162 0.960 1_655 S
H176 C162 0.961 . S
H177 C163 0.958 . S
H178 C163 0.961 . S
H179 C163 0.960 . S
C180 C181 1.391 . S
C180 C182 1.394 . S
C180 H196 0.931 . S
C181 C180 1.391 . S
C181 C185 1.376 . S
C182 C180 1.394 . S
C182 C183 1.369 . S
C182 C186 1.531 . S
C183 C182 1.369 . S
C183 C184 1.410 . S
C183 C191 1.503 1_455 S
C184 C183 1.410 . S
C184 C185 1.392 . S
C184 C187 1.511 . S
C185 C181 1.376 . S
C185 C184 1.392 . S
C185 H197 0.929 . S
C186 C182 1.531 . S
C186 H198 0.960 1_455 S
C186 H199 0.962 . S
C186 H200 0.960 . S
C187 C184 1.511 . S
C187 H201 0.961 . S
C187 H202 0.961 1_455 S
C187 H203 0.961 . S
C188 C189 1.370 . S
C188 C190 1.363 . S
C188 H204 0.931 . S
C189 C188 1.370 . S
C189 C193 1.408 . S
C190 C188 1.363 . S
C190 C191 1.370 . S
C190 C194 1.524 . S
C191 C183 1.503 1_655 S
C191 C190 1.370 . S
C191 C192 1.403 . S
C192 C191 1.403 . S
C192 C193 1.404 . S
C192 C195 1.539 . S
C193 C189 1.408 . S
C193 C192 1.404 . S
C193 H205 0.930 . S
C194 C190 1.524 . S
C194 H206 0.956 1_655 S
C194 H207 0.961 1_655 S
C194 H208 0.961 . S
C195 C192 1.539 . S
C195 H209 0.958 . S
C195 H210 0.961 . S
C195 H211 0.960 . S
H196 C180 0.931 . S
H197 C185 0.929 . S
H198 C186 0.960 1_655 S
H199 C186 0.962 . S
H200 C186 0.960 . S
H201 C187 0.961 . S
H202 C187 0.961 1_655 S
H203 C187 0.961 . S
H204 C188 0.931 . S
H205 C193 0.930 . S
H206 C194 0.956 1_455 S
H207 C194 0.961 1_455 S
H208 C194 0.961 . S
H209 C195 0.958 . S
H210 C195 0.961 . S
H211 C195 0.960 . S
C212 C213 1.391 . S
C212 C214 1.394 . S
C212 H228 0.931 . S
C213 C212 1.391 . S
C213 C217 1.376 . S
C214 C212 1.394 . S
C214 C215 1.369 . S
C214 C218 1.531 . S
C215 C214 1.369 . S
C215 C216 1.410 . S
C215 C223 1.503 1_565 S
C216 C215 1.410 . S
C216 C217 1.392 . S
C216 C219 1.511 . S
C217 C213 1.376 . S
C217 C216 1.392 . S
C217 H229 0.929 . S
C218 C214 1.531 . S
C218 H230 0.960 1_565 S
C218 H231 0.962 . S
C218 H232 0.960 . S
C219 C216 1.511 . S
C219 H233 0.961 . S
C219 H234 0.961 . S
C219 H235 0.961 . S
C220 C221 1.370 . S
C220 C222 1.363 . S
C220 H236 0.931 . S
C221 C220 1.370 . S
C221 C225 1.408 . S
C222 C220 1.363 . S
C222 C223 1.370 . S
C222 C226 1.524 . S
C223 C215 1.503 1_545 S
C223 C222 1.370 . S
C223 C224 1.403 . S
C224 C223 1.403 . S
C224 C225 1.404 . S
C224 C227 1.539 . S
C225 C221 1.408 . S
C225 C224 1.404 . S
C225 H237 0.930 . S
C226 C222 1.524 . S
C226 H238 0.956 . S
C226 H239 0.961 . S
C226 H240 0.961 . S
C227 C224 1.539 . S
C227 H241 0.958 . S
C227 H242 0.961 . S
C227 H243 0.960 1_545 S
H228 C212 0.931 . S
H229 C217 0.929 . S
H230 C218 0.960 1_545 S
H231 C218 0.962 . S
H232 C218 0.960 . S
H233 C219 0.961 . S
H234 C219 0.961 . S
H235 C219 0.961 . S
H236 C220 0.931 . S
H237 C225 0.930 . S
H238 C226 0.956 . S
H239 C226 0.961 . S
H240 C226 0.961 . S
H241 C227 0.958 . S
H242 C227 0.961 . S
H243 C227 0.960 1_565 S
C244 C245 1.391 . S
C244 C246 1.394 . S
C244 H260 0.931 . S
C245 C244 1.391 . S
C245 C249 1.376 . S
C246 C244 1.394 . S
C246 C247 1.369 . S
C246 C250 1.531 . S
C247 C246 1.369 . S
C247 C248 1.410 . S
C247 C255 1.503 . S
C248 C247 1.410 . S
C248 C249 1.392 . S
C248 C251 1.511 . S
C249 C245 1.376 . S
C249 C248 1.392 . S
C249 H261 0.929 . S
C250 C246 1.531 . S
C250 H262 0.960 . S
C250 H263 0.962 . S
C250 H264 0.960 . S
C251 C248 1.511 . S
C251 H265 0.961 . S
C251 H266 0.961 . S
C251 H267 0.961 . S
C252 C253 1.370 . S
C252 C254 1.363 . S
C252 H268 0.931 . S
C253 C252 1.370 . S
C253 C257 1.408 . S
C254 C252 1.363 . S
C254 C255 1.370 . S
C254 C258 1.524 . S
C255 C247 1.503 . S
C255 C254 1.370 . S
C255 C256 1.403 . S
C256 C255 1.403 . S
C256 C257 1.404 . S
C256 C259 1.539 . S
C257 C253 1.408 . S
C257 C256 1.404 . S
C257 H269 0.930 . S
C258 C254 1.524 . S
C258 H270 0.956 . S
C258 H271 0.961 . S
C258 H272 0.961 . S
C259 C256 1.539 . S
C259 H273 0.958 . S
C259 H274 0.961 . S
C259 H275 0.960 . S
H260 C244 0.931 . S
H261 C249 0.929 . S
H262 C250 0.960 . S
H263 C250 0.962 . S
H264 C250 0.960 . S
H265 C251 0.961 . S
H266 C251 0.961 . S
H267 C251 0.961 . S
H268 C252 0.931 . S
H269 C257 0.930 . S
H270 C258 0.956 . S
H271 C258 0.961 . S
H272 C258 0.961 . S
H273 C259 0.958 . S
H274 C259 0.961 . S
H275 C259 0.960 . S
C276 C277 1.391 . S
C276 C278 1.394 . S
C276 H292 0.931 . S
C277 C276 1.391 . S
C277 C281 1.376 . S
C278 C276 1.394 . S
C278 C279 1.369 . S
C278 C282 1.531 1_556 S
C279 C278 1.369 . S
C279 C280 1.410 . S
C279 C287 1.503 1_556 S
C280 C279 1.410 . S
C280 C281 1.392 . S
C280 C283 1.511 . S
C281 C277 1.376 . S
C281 C280 1.392 . S
C281 H293 0.929 . S
C282 C278 1.531 1_554 S
C282 H294 0.960 . S
C282 H295 0.962 . S
C282 H296 0.961 . S
C283 C280 1.511 . S
C283 H297 0.961 . S
C283 H298 0.961 . S
C283 H299 0.961 . S
C284 C285 1.370 . S
C284 C286 1.363 . S
C284 H300 0.931 . S
C285 C284 1.370 . S
C285 C289 1.408 . S
C286 C284 1.363 . S
C286 C287 1.370 . S
C286 C290 1.524 1_554 S
C287 C279 1.503 1_554 S
C287 C286 1.370 . S
C287 C288 1.403 . S
C288 C287 1.403 . S
C288 C289 1.404 . S
C288 C291 1.539 . S
C289 C285 1.408 . S
C289 C288 1.404 . S
C289 H301 0.930 . S
C290 C286 1.524 1_556 S
C290 H302 0.956 . S
C290 H303 0.961 . S
C290 H304 0.962 . S
C291 C288 1.539 . S
C291 H305 0.958 . S
C291 H306 0.961 . S
C291 H307 0.960 . S
H292 C276 0.931 . S
H293 C281 0.929 . S
H294 C282 0.960 . S
H295 C282 0.962 . S
H296 C282 0.961 . S
H297 C283 0.961 . S
H298 C283 0.961 . S
H299 C283 0.961 . S
H300 C284 0.931 . S
H301 C289 0.930 . S
H302 C290 0.956 . S
H303 C290 0.961 . S
H304 C290 0.962 . S
H305 C291 0.958 . S
H306 C291 0.961 . S
H307 C291 0.960 . S
C308 C309 1.391 . S
C308 C310 1.394 . S
C308 H324 0.931 . S
C309 C308 1.391 . S
C309 C313 1.376 . S
C310 C308 1.394 . S
C310 C311 1.369 . S
C310 C314 1.531 . S
C311 C310 1.369 . S
C311 C312 1.410 . S
C311 C319 1.503 . S
C312 C311 1.410 . S
C312 C313 1.392 . S
C312 C315 1.511 . S
C313 C309 1.376 . S
C313 C312 1.392 . S
C313 H325 0.929 . S
C314 C310 1.531 . S
C314 H326 0.960 . S
C314 H327 0.962 . S
C314 H328 0.960 . S
C315 C312 1.511 . S
C315 H329 0.961 . S
C315 H330 0.961 . S
C315 H331 0.961 . S
C316 C317 1.370 . S
C316 C318 1.363 . S
C316 H332 0.931 . S
C317 C316 1.370 . S
C317 C321 1.408 . S
C318 C316 1.363 . S
C318 C319 1.370 . S
C318 C322 1.524 . S
C319 C311 1.503 . S
C319 C318 1.370 . S
C319 C320 1.403 . S
C320 C319 1.403 . S
C320 C321 1.404 . S
C320 C323 1.539 . S
C321 C317 1.408 . S
C321 C320 1.404 . S
C321 H333 0.930 . S
C322 C318 1.524 . S
C322 H334 0.956 . S
C322 H335 0.961 . S
C322 H336 0.961 . S
C323 C320 1.539 . S
C323 H337 0.958 . S
C323 H338 0.961 . S
C323 H339 0.960 . S
H324 C308 0.931 . S
H325 C313 0.929 . S
H326 C314 0.960 . S
H327 C314 0.962 . S
H328 C314 0.960 . S
H329 C315 0.961 . S
H330 C315 0.961 . S
H331 C315 0.961 . S
H332 C316 0.931 . S
H333 C321 0.930 . S
H334 C322 0.956 . S
H335 C322 0.961 . S
H336 C322 0.961 . S
H337 C323 0.958 . S
H338 C323 0.961 . S
H339 C323 0.960 . S
C340 C341 1.391 . S
C340 C342 1.394 . S
C340 H356 0.931 . S
C341 C340 1.391 . S
C341 C345 1.376 . S
C342 C340 1.394 . S
C342 C343 1.369 . S
C342 C346 1.531 . S
C343 C342 1.369 . S
C343 C344 1.410 . S
C343 C351 1.503 . S
C344 C343 1.410 . S
C344 C345 1.392 . S
C344 C347 1.511 . S
C345 C341 1.376 . S
C345 C344 1.392 . S
C345 H357 0.929 . S
C346 C342 1.531 . S
C346 H358 0.960 . S
C346 H359 0.962 . S
C346 H360 0.960 . S
C347 C344 1.511 . S
C347 H361 0.961 . S
C347 H362 0.961 . S
C347 H363 0.961 . S
C348 C349 1.370 . S
C348 C350 1.363 . S
C348 H364 0.931 . S
C349 C348 1.370 . S
C349 C353 1.408 . S
C350 C348 1.363 . S
C350 C351 1.370 . S
C350 C354 1.524 . S
C351 C343 1.503 . S
C351 C350 1.370 . S
C351 C352 1.403 . S
C352 C351 1.403 . S
C352 C353 1.404 . S
C352 C355 1.539 . S
C353 C349 1.408 . S
C353 C352 1.404 . S
C353 H365 0.930 . S
C354 C350 1.524 . S
C354 H366 0.956 . S
C354 H367 0.961 . S
C354 H368 0.961 . S
C355 C352 1.539 . S
C355 H369 0.958 . S
C355 H370 0.961 . S
C355 H371 0.960 . S
H356 C340 0.931 . S
H357 C345 0.929 . S
H358 C346 0.960 . S
H359 C346 0.962 . S
H360 C346 0.960 . S
H361 C347 0.961 . S
H362 C347 0.961 . S
H363 C347 0.961 . S
H364 C348 0.931 . S
H365 C353 0.930 . S
H366 C354 0.956 . S
H367 C354 0.961 . S
H368 C354 0.961 . S
H369 C355 0.958 . S
H370 C355 0.961 . S
H371 C355 0.960 . S
C372 C373 1.391 . S
C372 C374 1.394 . S
C372 H388 0.931 . S
C373 C372 1.391 . S
C373 C377 1.376 . S
C374 C372 1.394 . S
C374 C375 1.369 . S
C374 C378 1.531 . S
C375 C374 1.369 . S
C375 C376 1.410 . S
C375 C383 1.503 1_556 S
C376 C375 1.410 . S
C376 C377 1.392 . S
C376 C379 1.511 1_556 S
C377 C373 1.376 . S
C377 C376 1.392 . S
C377 H389 0.929 . S
C378 C374 1.531 . S
C378 H390 0.960 . S
C378 H391 0.962 . S
C378 H392 0.960 . S
C379 C376 1.511 1_554 S
C379 H393 0.961 1_554 S
C379 H394 0.961 . S
C379 H395 0.961 . S
C380 C381 1.370 . S
C380 C382 1.363 . S
C380 H396 0.931 . S
C381 C380 1.370 . S
C381 C385 1.408 . S
C382 C380 1.363 . S
C382 C383 1.370 . S
C382 C386 1.524 1_554 S
C383 C375 1.503 1_554 S
C383 C382 1.370 . S
C383 C384 1.403 . S
C384 C383 1.403 . S
C384 C385 1.404 . S
C384 C387 1.539 . S
C385 C381 1.408 . S
C385 C384 1.404 . S
C385 H397 0.930 . S
C386 C382 1.524 1_556 S
C386 H398 0.956 . S
C386 H399 0.961 . S
C386 H400 0.961 1_556 S
C387 C384 1.539 . S
C387 H401 0.958 . S
C387 H402 0.961 . S
C387 H403 0.960 . S
H388 C372 0.931 . S
H389 C377 0.929 . S
H390 C378 0.960 . S
H391 C378 0.962 . S
H392 C378 0.960 . S
H393 C379 0.961 1_556 S
H394 C379 0.961 . S
H395 C379 0.961 . S
H396 C380 0.931 . S
H397 C385 0.930 . S
H398 C386 0.956 . S
H399 C386 0.961 . S
H400 C386 0.961 1_554 S
H401 C387 0.958 . S
H402 C387 0.961 . S
H403 C387 0.960 . S
C404 C405 1.391 . S
C404 C406 1.394 . S
C404 H420 0.931 . S
C405 C404 1.391 . S
C405 C409 1.376 . S
C406 C404 1.394 . S
C406 C407 1.369 . S
C406 C410 1.531 . S
C407 C406 1.369 . S
C407 C408 1.410 . S
C407 C415 1.503 . S
C408 C407 1.410 . S
C408 C409 1.392 . S
C408 C411 1.511 . S
C409 C405 1.376 . S
C409 C408 1.392 . S
C409 H421 0.929 . S
C410 C406 1.531 . S
C410 H422 0.960 . S
C410 H423 0.962 . S
C410 H424 0.960 . S
C411 C408 1.511 . S
C411 H425 0.961 . S
C411 H426 0.961 . S
C411 H427 0.961 . S
C412 C413 1.370 . S
C412 C414 1.363 . S
C412 H428 0.931 . S
C413 C412 1.370 . S
C413 C417 1.408 . S
C414 C412 1.363 . S
C414 C415 1.370 . S
C414 C418 1.524 . S
C415 C407 1.503 . S
C415 C414 1.370 . S
C415 C416 1.403 . S
C416 C415 1.403 . S
C416 C417 1.404 . S
C416 C419 1.539 . S
C417 C413 1.408 . S
C417 C416 1.404 . S
C417 H429 0.930 . S
C418 C414 1.524 . S
C418 H430 0.956 . S
C418 H431 0.961 . S
C418 H432 0.961 . S
C419 C416 1.539 . S
C419 H433 0.958 . S
C419 H434 0.961 . S
C419 H435 0.960 . S
H420 C404 0.931 . S
H421 C409 0.929 . S
H422 C410 0.960 . S
H423 C410 0.962 . S
H424 C410 0.960 . S
H425 C411 0.961 . S
H426 C411 0.961 . S
H427 C411 0.961 . S
H428 C412 0.931 . S
H429 C417 0.930 . S
H430 C418 0.956 . S
H431 C418 0.961 . S
H432 C418 0.961 . S
H433 C419 0.958 . S
H434 C419 0.961 . S
H435 C419 0.960 . S
C436 C437 1.391 . S
C436 C438 1.394 . S
C436 H452 0.931 . S
C437 C436 1.391 . S
C437 C441 1.376 . S
C438 C436 1.394 . S
C438 C439 1.369 . S
C438 C442 1.531 . S
C439 C438 1.369 . S
C439 C440 1.410 . S
C439 C447 1.503 . S
C440 C439 1.410 . S
C440 C441 1.392 . S
C440 C443 1.511 . S
C441 C437 1.376 . S
C441 C440 1.392 . S
C441 H453 0.929 . S
C442 C438 1.531 . S
C442 H454 0.960 . S
C442 H455 0.962 . S
C442 H456 0.960 . S
C443 C440 1.511 . S
C443 H457 0.961 . S
C443 H458 0.961 . S
C443 H459 0.961 . S
C444 C445 1.370 . S
C444 C446 1.363 . S
C444 H460 0.931 . S
C445 C444 1.370 . S
C445 C449 1.408 . S
C446 C444 1.363 . S
C446 C447 1.370 . S
C446 C450 1.524 . S
C447 C439 1.503 . S
C447 C446 1.370 . S
C447 C448 1.403 . S
C448 C447 1.403 . S
C448 C449 1.404 . S
C448 C451 1.539 . S
C449 C445 1.408 . S
C449 C448 1.404 . S
C449 H461 0.930 . S
C450 C446 1.524 . S
C450 H462 0.956 . S
C450 H463 0.961 . S
C450 H464 0.961 . S
C451 C448 1.539 . S
C451 H465 0.958 . S
C451 H466 0.961 . S
C451 H467 0.960 . S
H452 C436 0.931 . S
H453 C441 0.929 . S
H454 C442 0.960 . S
H455 C442 0.962 . S
H456 C442 0.960 . S
H457 C443 0.961 . S
H458 C443 0.961 . S
H459 C443 0.961 . S
H460 C444 0.931 . S
H461 C449 0.930 . S
H462 C450 0.956 . S
H463 C450 0.961 . S
H464 C450 0.961 . S
H465 C451 0.958 . S
H466 C451 0.961 . S
H467 C451 0.960 . S
C85 C1 1.692 . S
C93 C54 1.708 . S
C117 C26 1.684 . S
C125 C56 1.711 . S
C149 C40 1.695 . S
C157 C71 1.708 . S
C181 C27 1.683 . S
C189 C57 1.716 . S
C213 C70 1.718 . S
C221 C41 1.702 . S
C245 C55 1.692 . S
C253 C0 1.708 . S
C277 C28 1.782 . S
C285 C12 1.773 . S
C309 C42 1.795 . S
C317 C15 1.781 . S
C341 C29 1.780 . S
C349 C68 1.787 . S
C373 C83 1.796 . S
C381 C43 1.780 . S
C405 C69 1.796 . S
C413 C13 1.780 . S
C437 C82 1.766 . S
C445 C14 1.789 . S
