# Generated by pormake.
# Topology gis, (4)-cn, num edge types: 1
# Building blocks:
#     Node 0, Type 0, BuildingBlock: AZAVOO_clean_sbu_0, # of connection points: 4
#     Node 1, Type 0, BuildingBlock: AZAVOO_clean_sbu_0, # of connection points: 4
#     Node 2, Type 0, BuildingBlock: AZAVOO_clean_sbu_0, # of connection points: 4
#     Node 3, Type 0, BuildingBlock: AZAVOO_clean_sbu_0, # of connection points: 4
#     Node 4, Type 0, BuildingBlock: AZAVOO_clean_sbu_0, # of connection points: 4
#     Node 5, Type 0, BuildingBlock: AZAVOO_clean_sbu_0, # of connection points: 4
#     Node 6, Type 0, BuildingBlock: AZAVOO_clean_sbu_0, # of connection points: 4
#     Node 7, Type 0, BuildingBlock: AZAVOO_clean_sbu_0, # of connection points: 4
#     Node 8, Type 0, BuildingBlock: AZAVOO_clean_sbu_0, # of connection points: 4
#     Node 9, Type 0, BuildingBlock: AZAVOO_clean_sbu_0, # of connection points: 4
#     Node 10, Type 0, BuildingBlock: AZAVOO_clean_sbu_0, # of connection points: 4
#     Node 11, Type 0, BuildingBlock: AZAVOO_clean_sbu_0, # of connection points: 4
#     Node 12, Type 0, BuildingBlock: AZAVOO_clean_sbu_0, # of connection points: 4
#     Node 13, Type 0, BuildingBlock: AZAVOO_clean_sbu_0, # of connection points: 4
#     Node 14, Type 0, BuildingBlock: AZAVOO_clean_sbu_0, # of connection points: 4
#     Node 15, Type 0, BuildingBlock: AZAVOO_clean_sbu_0, # of connection points: 4
#     Edge 16, Type (0, 0), BuildingBlock: AJUNOK_clean_linker_0, # of connection points: 2
#     Edge 17, Type (0, 0), BuildingBlock: AJUNOK_clean_linker_0, # of connection points: 2
#     Edge 18, Type (0, 0), BuildingBlock: AJUNOK_clean_linker_0, # of connection points: 2
#     Edge 19, Type (0, 0), BuildingBlock: AJUNOK_clean_linker_0, # of connection points: 2
#     Edge 20, Type (0, 0), BuildingBlock: AJUNOK_clean_linker_0, # of connection points: 2
#     Edge 21, Type (0, 0), BuildingBlock: AJUNOK_clean_linker_0, # of connection points: 2
#     Edge 22, Type (0, 0), BuildingBlock: AJUNOK_clean_linker_0, # of connection points: 2
#     Edge 23, Type (0, 0), BuildingBlock: AJUNOK_clean_linker_0, # of connection points: 2
#     Edge 24, Type (0, 0), BuildingBlock: AJUNOK_clean_linker_0, # of connection points: 2
#     Edge 25, Type (0, 0), BuildingBlock: AJUNOK_clean_linker_0, # of connection points: 2
#     Edge 26, Type (0, 0), BuildingBlock: AJUNOK_clean_linker_0, # of connection points: 2
#     Edge 27, Type (0, 0), BuildingBlock: AJUNOK_clean_linker_0, # of connection points: 2
#     Edge 28, Type (0, 0), BuildingBlock: AJUNOK_clean_linker_0, # of connection points: 2
#     Edge 29, Type (0, 0), BuildingBlock: AJUNOK_clean_linker_0, # of connection points: 2
#     Edge 30, Type (0, 0), BuildingBlock: AJUNOK_clean_linker_0, # of connection points: 2
#     Edge 31, Type (0, 0), BuildingBlock: AJUNOK_clean_linker_0, # of connection points: 2
#     Edge 32, Type (0, 0), BuildingBlock: AJUNOK_clean_linker_0, # of connection points: 2
#     Edge 33, Type (0, 0), BuildingBlock: AJUNOK_clean_linker_0, # of connection points: 2
#     Edge 34, Type (0, 0), BuildingBlock: AJUNOK_clean_linker_0, # of connection points: 2
#     Edge 35, Type (0, 0), BuildingBlock: AJUNOK_clean_linker_0, # of connection points: 2
#     Edge 36, Type (0, 0), BuildingBlock: AJUNOK_clean_linker_0, # of connection points: 2
#     Edge 37, Type (0, 0), BuildingBlock: AJUNOK_clean_linker_0, # of connection points: 2
#     Edge 38, Type (0, 0), BuildingBlock: AJUNOK_clean_linker_0, # of connection points: 2
#     Edge 39, Type (0, 0), BuildingBlock: AJUNOK_clean_linker_0, # of connection points: 2
#     Edge 40, Type (0, 0), BuildingBlock: AJUNOK_clean_linker_0, # of connection points: 2
#     Edge 41, Type (0, 0), BuildingBlock: AJUNOK_clean_linker_0, # of connection points: 2
#     Edge 42, Type (0, 0), BuildingBlock: AJUNOK_clean_linker_0, # of connection points: 2
#     Edge 43, Type (0, 0), BuildingBlock: AJUNOK_clean_linker_0, # of connection points: 2
#     Edge 44, Type (0, 0), BuildingBlock: AJUNOK_clean_linker_0, # of connection points: 2
#     Edge 45, Type (0, 0), BuildingBlock: AJUNOK_clean_linker_0, # of connection points: 2
#     Edge 46, Type (0, 0), BuildingBlock: AJUNOK_clean_linker_0, # of connection points: 2
#     Edge 47, Type (0, 0), BuildingBlock: AJUNOK_clean_linker_0, # of connection points: 2
# Relax obj value: 0.172
# Max RMSD: 0.159
# Mean RMSD: 0.157
data_MOF--net-gis--node1-AZAVOO_clean_sbu_0--edge1-AJUNOK_clean_linker_0
_symmetry_space_group_name_H-M    P1
_symmetry_Int_Tables_number       1
_symmetry_cell_setting            triclinic
loop_
_symmetry_equiv_pos_as_xyz
'x, y, z'
_cell_length_a     34.511563
_cell_length_b     32.658729
_cell_length_c     38.671736
_cell_angle_alpha  90.523107
_cell_angle_beta   90.688592
_cell_angle_gamma 90.196468
loop_
_atom_site_label
_atom_site_type_symbol
_atom_site_fract_x
_atom_site_fract_y
_atom_site_fract_z
_atom_type_partial_charge
Mg0 Mg 0.1818 0.63096 0.09753 0.0
O1 O 0.11698 0.62443 0.10855 0.0
O2 O 0.10147 0.66944 0.14984 0.0
Mg3 Mg 0.15612 0.70425 0.16625 0.0
C4 C 0.09216 0.64096 0.1285 0.0
C5 C 0.16378 0.57183 0.03533 0.0
O6 O 0.14759 0.60562 0.02412 0.0
O7 O 0.19613 0.59677 0.14757 0.0
O8 O 0.18118 0.64467 0.18683 0.0
O9 O 0.16837 0.68184 0.06052 0.0
O10 O 0.18161 0.69058 0.11605 0.0
C11 C 0.19383 0.60912 0.17898 0.0
C12 C 0.17131 0.70612 0.08708 0.0
O13 O 0.17978 0.57203 0.06514 0.0
Mg14 Mg 0.67201 0.88409 0.3763 0.0
O15 O 0.60835 0.88711 0.35781 0.0
O16 O 0.59991 0.84326 0.31374 0.0
Mg17 Mg 0.65809 0.81441 0.30183 0.0
C18 C 0.5867 0.86976 0.33489 0.0
C19 C 0.67415 0.93582 0.4431 0.0
O20 O 0.68913 0.90075 0.45273 0.0
O21 O 0.69142 0.92338 0.33074 0.0
O22 O 0.6818 0.87737 0.28821 0.0
O23 O 0.6572 0.83024 0.40921 0.0
O24 O 0.67697 0.82539 0.35531 0.0
C25 C 0.69208 0.91294 0.29883 0.0
C26 C 0.66456 0.80756 0.38247 0.0
O27 O 0.66348 0.93974 0.41169 0.0
Mg28 Mg 0.28933 0.38741 0.60459 0.0
O29 O 0.35429 0.40106 0.61514 0.0
O30 O 0.37448 0.35923 0.65687 0.0
Mg31 Mg 0.32358 0.32023 0.67384 0.0
C32 C 0.38096 0.38764 0.63524 0.0
C33 C 0.2612 0.44486 0.54592 0.0
O34 O 0.23784 0.41347 0.54083 0.0
O35 O 0.27306 0.42273 0.65343 0.0
O36 O 0.29403 0.37866 0.69339 0.0
O37 O 0.30499 0.33778 0.56736 0.0
O38 O 0.29591 0.3279 0.623 0.0
C39 C 0.27804 0.41242 0.68493 0.0
C40 C 0.30574 0.3132 0.59343 0.0
O41 O 0.28501 0.44411 0.57126 0.0
Mg42 Mg 0.83582 0.04411 0.85251 0.0
O43 O 0.84396 0.11363 0.86251 0.0
O44 O 0.89066 0.11968 0.90264 0.0
Mg45 Mg 0.9129 0.05658 0.91761 0.0
C46 C 0.86562 0.13563 0.8823 0.0
C47 C 0.77858 0.03442 0.79354 0.0
O48 O 0.80391 0.00515 0.78832 0.0
O49 O 0.80365 0.03695 0.90387 0.0
O50 O 0.85398 0.04237 0.94074 0.0
O51 O 0.88315 0.04459 0.81278 0.0
O52 O 0.89152 0.03204 0.86833 0.0
C53 C 0.81791 0.03673 0.93459 0.0
C54 C 0.90625 0.03594 0.83825 0.0
O55 O 0.78182 0.0562 0.82085 0.0
Mg56 Mg 0.17073 0.37972 0.87424 0.0
O57 O 0.10763 0.38382 0.85456 0.0
O58 O 0.09956 0.34064 0.80994 0.0
Mg59 Mg 0.15773 0.31163 0.79863 0.0
C60 C 0.08628 0.36708 0.83111 0.0
C61 C 0.1732 0.43132 0.94124 0.0
O62 O 0.18839 0.39634 0.95085 0.0
O63 O 0.19125 0.41972 0.82964 0.0
O64 O 0.18147 0.37495 0.7862 0.0
O65 O 0.15439 0.32572 0.90626 0.0
O66 O 0.17526 0.32123 0.85267 0.0
C67 C 0.19178 0.41022 0.79755 0.0
C68 C 0.16178 0.30328 0.87938 0.0
O69 O 0.16217 0.43508 0.90991 0.0
Mg70 Mg 0.78972 0.88511 0.10581 0.0
O71 O 0.85528 0.89496 0.11779 0.0
O72 O 0.87142 0.8512 0.15944 0.0
Mg73 Mg 0.81806 0.81559 0.1754 0.0
C74 C 0.88042 0.87939 0.13838 0.0
C75 C 0.76375 0.94452 0.04821 0.0
O76 O 0.73821 0.91489 0.04412 0.0
O77 O 0.77378 0.92114 0.15445 0.0
O78 O 0.79174 0.8759 0.19463 0.0
O79 O 0.80391 0.83474 0.06868 0.0
O80 O 0.79247 0.82519 0.12401 0.0
C81 C 0.77785 0.91061 0.18599 0.0
C82 C 0.80229 0.81002 0.09461 0.0
O83 O 0.78865 0.94207 0.07262 0.0
Mg84 Mg 0.33452 0.54963 0.35205 0.0
O85 O 0.34049 0.61923 0.36352 0.0
O86 O 0.38624 0.62529 0.40459 0.0
Mg87 Mg 0.40982 0.56262 0.41882 0.0
C88 C 0.36128 0.64115 0.38414 0.0
C89 C 0.27809 0.53754 0.29273 0.0
O90 O 0.3039 0.50852 0.28844 0.0
O91 O 0.30142 0.53996 0.40266 0.0
O92 O 0.35077 0.54613 0.44047 0.0
O93 O 0.38247 0.55313 0.31312 0.0
O94 O 0.39044 0.53942 0.36848 0.0
C95 C 0.31501 0.53951 0.43361 0.0
C96 C 0.4056 0.54545 0.33881 0.0
O97 O 0.2807 0.56021 0.31958 0.0
Mg98 Mg 0.67878 0.13332 0.6015 0.0
O99 O 0.61445 0.1253 0.61399 0.0
O100 O 0.59947 0.16931 0.65623 0.0
Mg101 Mg 0.65388 0.20505 0.67162 0.0
C102 C 0.59002 0.14094 0.63482 0.0
C103 C 0.66271 0.07527 0.53812 0.0
O104 O 0.64762 0.10949 0.52661 0.0
O105 O 0.69488 0.09865 0.65075 0.0
O106 O 0.68037 0.14555 0.69099 0.0
O107 O 0.66364 0.1842 0.56518 0.0
O108 O 0.67784 0.19275 0.62055 0.0
C109 C 0.69324 0.11033 0.68236 0.0
C110 C 0.66665 0.20833 0.59182 0.0
O111 O 0.6772 0.07481 0.56852 0.0
Mg112 Mg 0.8494 0.40593 0.84653 0.0
O113 O 0.84901 0.33662 0.86035 0.0
O114 O 0.89495 0.32954 0.90099 0.0
Mg115 Mg 0.92347 0.3904 0.91423 0.0
C116 C 0.86869 0.31435 0.88119 0.0
C117 C 0.7922 0.42413 0.78892 0.0
O118 O 0.82173 0.44891 0.78426 0.0
O119 O 0.8177 0.42394 0.89653 0.0
O120 O 0.8662 0.41461 0.93458 0.0
O121 O 0.89672 0.39424 0.80831 0.0
O122 O 0.90682 0.41155 0.86287 0.0
C123 C 0.83139 0.42489 0.92742 0.0
C124 C 0.9209 0.40086 0.83361 0.0
O125 O 0.79347 0.39993 0.81452 0.0
Mg126 Mg 0.3636 0.05282 0.62311 0.0
O127 O 0.34972 0.11944 0.60798 0.0
O128 O 0.38818 0.13635 0.56428 0.0
Mg129 Mg 0.42463 0.08111 0.54998 0.0
C130 C 0.36186 0.14529 0.5859 0.0
C131 C 0.31197 0.02218 0.68095 0.0
O132 O 0.33846 -0.00646 0.67839 0.0
O133 O 0.32902 0.02794 0.57627 0.0
O134 O 0.36914 0.04654 0.53411 0.0
O135 O 0.41061 0.07569 0.65787 0.0
O136 O 0.4193 0.05907 0.60307 0.0
C137 C 0.33781 0.02982 0.5443 0.0
C138 C 0.43318 0.07441 0.63142 0.0
O139 O 0.31209 0.05135 0.6594 0.0
Mg140 Mg 0.64542 0.53993 0.3488 0.0
O141 O 0.64369 0.6091 0.35981 0.0
O142 O 0.59802 0.62239 0.39869 0.0
Mg143 Mg 0.57156 0.5617 0.41445 0.0
C144 C 0.62481 0.63424 0.37862 0.0
C145 C 0.69648 0.53594 0.28483 0.0
O146 O 0.66307 0.52108 0.27388 0.0
O147 O 0.67939 0.53091 0.40006 0.0
O148 O 0.63065 0.54494 0.43602 0.0
O149 O 0.59568 0.54521 0.31023 0.0
O150 O 0.58938 0.53375 0.36588 0.0
C151 C 0.6659 0.53551 0.43055 0.0
C152 C 0.5733 0.53953 0.33634 0.0
O153 O 0.69976 0.54728 0.31631 0.0
Mg154 Mg 0.10987 0.96155 0.13308 0.0
O155 O 0.11967 0.89574 0.11492 0.0
O156 O 0.08044 0.87907 0.07069 0.0
Mg157 Mg 0.04771 0.93741 0.05764 0.0
C158 C 0.10713 0.87001 0.09238 0.0
C159 C 0.16208 0.93175 0.19411 0.0
O160 O 0.13112 0.90882 0.19789 0.0
O161 O 0.14712 0.98262 0.08793 0.0
O162 O 0.10722 0.96439 0.04432 0.0
O163 O 0.06118 0.94097 0.16588 0.0
O164 O 0.05345 0.95898 0.11145 0.0
C165 C 0.1395 0.97867 0.0557 0.0
C166 C 0.03879 0.94364 0.13896 0.0
O167 O 0.16292 0.95683 0.16909 0.0
Mg168 Mg 0.86651 0.54916 0.11722 0.0
O169 O 0.84925 0.61516 0.10409 0.0
O170 O 0.88483 0.63629 0.05986 0.0
Mg171 Mg 0.92302 0.58323 0.04294 0.0
C172 C 0.85918 0.64279 0.08274 0.0
C173 C 0.82263 0.54445 0.18607 0.0
O174 O 0.85903 0.54538 0.19631 0.0
O175 O 0.8317 0.52385 0.07087 0.0
O176 O 0.86893 0.54559 0.02773 0.0
O177 O 0.9138 0.57384 0.15089 0.0
O178 O 0.92135 0.5588 0.09567 0.0
C179 C 0.83908 0.52666 0.03867 0.0
C180 C 0.93551 0.57416 0.1239 0.0
O181 O 0.81506 0.54461 0.15377 0.0
Mg182 Mg 0.14451 0.03574 0.84914 0.0
O183 O 0.1401 0.10503 0.85775 0.0
O184 O 0.09332 0.11861 0.89542 0.0
Mg185 Mg 0.06807 0.05764 0.91227 0.0
C186 C 0.12022 0.13039 0.87544 0.0
C187 C 0.20563 0.01419 0.7964 0.0
O188 O 0.18531 0.98035 0.79948 0.0
O189 O 0.17749 0.03042 0.90142 0.0
O190 O 0.12698 0.04368 0.93568 0.0
O191 O 0.09565 0.0365 0.8095 0.0
O192 O 0.08862 0.02762 0.86552 0.0
C193 C 0.16273 0.03542 0.93143 0.0
C194 C 0.07309 0.03038 0.83542 0.0
O195 O 0.19814 0.04435 0.81621 0.0
Mg196 Mg 0.61058 0.46695 0.63092 0.0
O197 O 0.61807 0.39996 0.61521 0.0
O198 O 0.57944 0.38281 0.57073 0.0
Mg199 Mg 0.54979 0.44193 0.55484 0.0
C200 C 0.60508 0.37366 0.59338 0.0
C201 C 0.66156 0.43435 0.6918 0.0
O202 O 0.63076 0.41085 0.69418 0.0
O203 O 0.64995 0.48419 0.58602 0.0
O204 O 0.61064 0.46551 0.54214 0.0
O205 O 0.55983 0.45029 0.66302 0.0
O206 O 0.55495 0.46638 0.60788 0.0
C207 C 0.64314 0.47889 0.55378 0.0
C208 C 0.53849 0.45345 0.63544 0.0
O209 O 0.66241 0.46113 0.66808 0.0
Mg210 Mg 0.34984 0.91161 0.3506 0.0
O211 O 0.34769 0.84243 0.36405 0.0
O212 O 0.39288 0.83354 0.4051 0.0
Mg213 Mg 0.42293 0.89359 0.41867 0.0
C214 C 0.36642 0.8194 0.38495 0.0
C215 C 0.29431 0.92521 0.28979 0.0
O216 O 0.32602 0.94497 0.28139 0.0
O217 O 0.31818 0.92999 0.40058 0.0
O218 O 0.36613 0.91931 0.4389 0.0
O219 O 0.39721 0.89866 0.31267 0.0
O220 O 0.40735 0.91566 0.3673 0.0
C221 C 0.33164 0.93056 0.43156 0.0
C222 C 0.42136 0.90457 0.33811 0.0
O223 O 0.29381 0.90656 0.31854 0.0
C224 C 0.11209 0.8 0.0655 0.0
C225 C 0.12506 0.8288 0.09052 0.0
C226 C 0.12835 0.76079 0.06335 0.0
C227 C 0.15802 0.74893 0.08624 0.0
H228 H 0.08883 0.8075 0.04763 0.0
H229 H 0.1167 0.73924 0.04444 0.0
S230 S 0.20505 0.81343 0.15435 0.0
N231 N 0.17139 0.84302 0.13728 0.0
N232 N 0.20182 0.76958 0.13298 0.0
C233 C 0.17222 0.7777 0.11054 0.0
C234 C 0.15578 0.81754 0.11278 0.0
C235 C 0.48898 0.91296 0.3603 0.0
C236 C 0.46337 0.89649 0.33519 0.0
C237 C 0.52872 0.90482 0.35953 0.0
C238 C 0.54464 0.87958 0.3337 0.0
H239 H 0.47827 0.93235 0.38094 0.0
H240 H 0.54693 0.91802 0.37975 0.0
S241 S 0.48989 0.82949 0.26132 0.0
N242 N 0.45661 0.85444 0.28332 0.0
N243 N 0.53134 0.83882 0.28168 0.0
C244 C 0.51935 0.86337 0.308 0.0
C245 C 0.47876 0.87193 0.30876 0.0
C246 C 0.31371 0.24291 0.61752 0.0
C247 C 0.31937 0.27034 0.59013 0.0
C248 C 0.32672 0.20238 0.6156 0.0
C249 C 0.34621 0.18761 0.5863 0.0
H250 H 0.29907 0.25274 0.64076 0.0
H251 H 0.32206 0.18275 0.63761 0.0
S252 S 0.36692 0.24655 0.50677 0.0
N253 N 0.3447 0.27948 0.53229 0.0
N254 N 0.36922 0.20341 0.52859 0.0
C255 C 0.35149 0.21455 0.55842 0.0
C256 C 0.33804 0.25581 0.56035 0.0
C257 C 0.00977 0.05209 0.80848 0.0
C258 C 0.0306 0.02798 0.83218 0.0
C259 C 0.96902 0.05365 0.8094 0.0
C260 C 0.94836 0.03121 0.83409 0.0
H261 H 0.02501 0.07115 0.79029 0.0
H262 H 0.9538 0.07375 0.79178 0.0
S263 S 0.98946 0.95812 0.89752 0.0
N264 N 0.02744 0.9774 0.87784 0.0
N265 N 0.95148 0.98039 0.87962 0.0
C266 C 0.96894 0.00511 0.85629 0.0
C267 C 0.00996 0.00347 0.85531 0.0
C268 C 0.12381 0.24329 0.90022 0.0
C269 C 0.15174 0.25926 0.87789 0.0
C270 C 0.11319 0.20187 0.89861 0.0
C271 C 0.13034 0.17464 0.87481 0.0
H272 H 0.10975 0.26297 0.91891 0.0
H273 H 0.09165 0.19113 0.91658 0.0
S274 S 0.20593 0.20137 0.81109 0.0
N275 N 0.19701 0.24475 0.83165 0.0
N276 N 0.17698 0.16707 0.82839 0.0
C277 C 0.1584 0.19037 0.85229 0.0
C278 C 0.16911 0.23259 0.85391 0.0
C279 C 0.93331 0.92354 0.11386 0.0
C280 C 0.9212 0.89483 0.13854 0.0
C281 C 0.97143 0.93886 0.11394 0.0
C282 C -0.00112 0.92649 0.13892 0.0
H283 H 0.91324 0.93437 0.09427 0.0
H284 H 0.97926 0.961 0.09452 0.0
S285 S 0.98293 0.85086 0.20845 0.0
N286 N 0.94074 0.85381 0.18816 0.0
N287 N 0.01181 0.88283 0.18826 0.0
C288 C 0.98739 0.8976 0.16353 0.0
C289 C 0.94876 0.88172 0.16333 0.0
C290 C 0.37307 0.70879 0.41286 0.0
C291 C 0.35752 0.68656 0.38458 0.0
C292 C 0.37401 0.75154 0.41319 0.0
C293 C 0.35951 0.77438 0.38521 0.0
H294 H 0.38548 0.69306 0.43491 0.0
H295 H 0.3872 0.76675 0.4354 0.0
S296 S 0.31283 0.73138 0.30576 0.0
N297 N 0.32491 0.69074 0.32856 0.0
N298 N 0.32681 0.7715 0.32912 0.0
C299 C 0.34208 0.75277 0.35737 0.0
C300 C 0.34107 0.70885 0.35705 0.0
C301 C 0.5367 0.09948 0.60715 0.0
C302 C 0.54962 0.1251 0.63444 0.0
C303 C 0.49898 0.08352 0.60633 0.0
C304 C 0.47267 0.09225 0.63289 0.0
H305 H 0.55582 0.09162 0.5861 0.0
H306 H 0.4906 0.06378 0.58485 0.0
S307 S 0.49165 0.15788 0.71018 0.0
N308 N 0.53269 0.15863 0.68873 0.0
N309 N 0.46193 0.12853 0.68713 0.0
C310 C 0.48505 0.11787 0.66031 0.0
C311 C 0.52342 0.13436 0.66108 0.0
C312 C 0.88077 0.20394 0.90865 0.0
C313 C 0.8624 0.18113 0.88209 0.0
C314 C 0.88111 0.2467 0.90858 0.0
C315 C 0.86318 0.26906 0.88187 0.0
H316 H 0.89568 0.18871 0.92971 0.0
H317 H 0.89637 0.26227 0.92953 0.0
S318 S 0.80861 0.22443 0.80715 0.0
N319 N 0.82378 0.18426 0.82907 0.0
N320 N 0.82459 0.26501 0.82885 0.0
C321 C 0.84329 0.24685 0.85573 0.0
C322 C 0.84287 0.2029 0.85583 0.0
C323 C 0.61791 0.70543 0.40247 0.0
C324 C 0.63531 0.67841 0.37863 0.0
C325 C 0.62798 0.747 0.404 0.0
C326 C 0.65559 0.7633 0.38156 0.0
H327 H 0.59637 0.69448 0.42035 0.0
H328 H 0.61358 0.76656 0.42257 0.0
S329 S 0.71094 0.70596 0.31522 0.0
N330 N 0.68239 0.67129 0.33252 0.0
N331 N 0.70131 0.74929 0.33558 0.0
C332 C 0.6735 0.73678 0.35779 0.0
C333 C 0.66338 0.69441 0.35626 0.0
C334 C 0.85116 0.7142 0.06059 0.0
C335 C 0.84202 0.68442 0.08541 0.0
C336 C 0.83758 0.75444 0.06343 0.0
C337 C 0.81452 0.76674 0.09131 0.0
H338 H 0.86942 0.70663 0.03888 0.0
H339 H 0.84598 0.77627 0.04394 0.0
S340 S 0.77963 0.70038 0.16202 0.0
N341 N 0.80654 0.66991 0.13804 0.0
N342 N 0.78095 0.74547 0.14315 0.0
C343 C 0.80418 0.73718 0.11584 0.0
C344 C 0.81789 0.69608 0.11292 0.0
C345 C 0.609 0.30272 0.56826 0.0
C346 C 0.62157 0.33174 0.59324 0.0
C347 C 0.62458 0.26317 0.56714 0.0
C348 C 0.65313 0.25109 0.59107 0.0
H349 H 0.58679 0.31044 0.54942 0.0
H350 H 0.61348 0.24165 0.54795 0.0
S351 S 0.69818 0.3157 0.66019 0.0
N352 N 0.66587 0.34566 0.64158 0.0
N353 N 0.69509 0.27159 0.6392 0.0
C354 C 0.66664 0.27989 0.61566 0.0
C355 C 0.65088 0.32012 0.61685 0.0
C356 C 0.02797 0.40102 0.85601 0.0
C357 C 0.04437 0.37731 0.82945 0.0
C358 C 0.98821 0.40896 0.85657 0.0
C359 C 0.96305 0.39367 0.83058 0.0
H360 H 0.04577 0.41302 0.87704 0.0
H361 H 0.97714 0.42711 0.87783 0.0
S362 S -0.00873 0.33212 0.75392 0.0
N363 N 0.03229 0.34022 0.77532 0.0
N364 N 0.95743 0.35524 0.77665 0.0
C365 C 0.97902 0.37102 0.80323 0.0
C366 C 0.01965 0.36277 0.80264 0.0
C367 C 0.50967 0.52304 0.36107 0.0
C368 C 0.5306 0.54064 0.334 0.0
C369 C 0.46947 0.52465 0.3618 0.0
C370 C 0.44812 0.54386 0.33545 0.0
H371 H 0.52442 0.50774 0.38217 0.0
H372 H 0.45507 0.5105 0.3834 0.0
S373 S 0.48869 0.59363 0.25793 0.0
N374 N 0.52712 0.57709 0.27948 0.0
N375 N 0.45065 0.58004 0.28078 0.0
C376 C 0.46838 0.5608 0.3076 0.0
C377 C 0.50983 0.55919 0.30687 0.0
C378 C 0.48576 0.41073 0.66023 0.0
C379 C 0.49795 0.43817 0.63476 0.0
C380 C 0.44809 0.39469 0.65994 0.0
C381 C 0.42068 0.40562 0.63434 0.0
H382 H 0.50563 0.40101 0.68041 0.0
H383 H 0.44052 0.37352 0.68019 0.0
S384 S 0.43761 0.47809 0.5625 0.0
N385 N 0.47939 0.47675 0.5837 0.0
N386 N 0.40846 0.4467 0.58312 0.0
C387 C 0.43235 0.43357 0.60888 0.0
C388 C 0.47096 0.44975 0.60909 0.0
C389 C 0.03901 0.59988 0.10006 0.0
C390 C 0.05151 0.62584 0.12729 0.0
C391 C 0.00125 0.58398 0.09884 0.0
C392 C 0.97456 0.59304 0.12499 0.0
H393 H 0.05856 0.59152 0.07947 0.0
H394 H -0.00678 0.56378 0.07756 0.0
S395 S -0.00813 0.66073 0.20131 0.0
N396 N 0.03338 0.66088 0.18058 0.0
N397 N 0.96263 0.63079 0.1783 0.0
C398 C 0.98634 0.61943 0.15209 0.0
C399 C 0.02471 0.63592 0.15323 0.0
C400 C 0.15233 0.53741 0.97791 0.0
C401 C 0.16513 0.53491 0.01255 0.0
C402 C 0.15472 0.50377 0.95525 0.0
C403 C 0.16993 0.46606 0.96623 0.0
H404 H 0.14079 0.56579 0.96791 0.0
H405 H 0.14483 0.5076 0.9288 0.0
S406 S 0.20575 0.44261 0.05492 0.0
N407 N 0.19241 0.49103 0.05709 0.0
N408 N 0.19684 0.42785 0.01467 0.0
C409 C 0.18218 0.46284 0.00102 0.0
C410 C 0.17981 0.49719 0.02411 0.0
C411 C 0.69612 0.9421 0.24059 0.0
C412 C 0.71309 0.93768 0.27361 0.0
C413 C 0.7189 0.94083 0.21083 0.0
C414 C 0.75905 0.9344 0.21354 0.0
H415 H 0.66489 0.94053 0.2375 0.0
H416 H 0.70439 0.93862 0.18587 0.0
S417 S 0.81799 0.93392 0.29411 0.0
N418 N 0.77278 0.93731 0.30741 0.0
N419 N 0.81559 0.93371 0.25142 0.0
C420 C 0.77672 0.93729 0.24635 0.0
C421 C 0.7536 0.93943 0.27658 0.0
C422 C 0.25302 0.46761 0.4846 0.0
C423 C 0.26571 0.47613 0.51871 0.0
C424 C 0.26558 0.49142 0.45682 0.0
C425 C 0.29114 0.5245 0.46236 0.0
H426 H 0.23587 0.4405 0.47888 0.0
H427 H 0.2581 0.48155 0.43076 0.0
S428 S 0.32442 0.56584 0.54735 0.0
N429 N 0.29897 0.52466 0.55692 0.0
N430 N 0.32248 0.56932 0.5048 0.0
C431 C 0.30008 0.53622 0.49663 0.0
C432 C 0.28741 0.51202 0.52482 0.0
C433 C 0.70427 0.09671 0.74501 0.0
C434 C 0.70958 0.08456 0.71033 0.0
C435 C 0.72488 0.0784 0.772 0.0
C436 C 0.75159 0.04699 0.76554 0.0
H437 H 0.68529 0.12195 0.75144 0.0
H438 H 0.72106 0.09036 0.79795 0.0
S439 S 0.77133 -0.00112 0.6801 0.0
N440 N 0.73992 0.03552 0.67149 0.0
N441 N 0.77857 0.00071 0.72236 0.0
C442 C 0.75473 0.03198 0.73138 0.0
C443 C 0.73374 0.05084 0.70374 0.0
C444 C 0.808 0.49024 0.95088 0.0
C445 C 0.81144 0.44768 0.95492 0.0
C446 C 0.8116 0.5167 0.97953 0.0
C447 C 0.81761 0.50127 0.01303 0.0
H448 H 0.80837 0.50339 0.92526 0.0
H449 H 0.81403 0.5493 0.97498 0.0
S450 S 0.81749 0.39197 0.03773 0.0
N451 N 0.81322 0.39118 -0.00487 0.0
N452 N 0.81837 0.44082 0.04919 0.0
C453 C 0.81433 0.45883 0.01782 0.0
C454 C 0.81154 0.43194 -0.01141 0.0
C455 C 0.25014 0.98204 0.75371 0.0
C456 C 0.23395 0.01774 0.76806 0.0
C457 C 0.27518 0.98388 0.72551 0.0
C458 C 0.28438 0.0214 0.71 0.0
H459 H 0.2435 0.95231 0.7644 0.0
H460 H 0.2871 0.95554 0.71557 0.0
S461 S 0.24977 0.12394 0.7377 0.0
N462 N 0.22926 0.09193 0.76483 0.0
N463 N 0.27575 0.0953 0.71135 0.0
C464 C 0.26836 0.05741 0.72399 0.0
C465 C 0.24337 0.05561 0.75318 0.0
C466 C 0.68636 0.54879 0.49035 0.0
C467 C 0.68755 0.52232 0.46139 0.0
C468 C 0.67815 0.5336 0.5233 0.0
C469 C 0.67148 0.49161 0.52788 0.0
H470 H 0.68505 0.58161 0.48658 0.0
H471 H 0.67141 0.55518 0.54379 0.0
S472 S 0.68552 0.40919 0.46298 0.0
N473 N 0.69256 0.45198 0.44143 0.0
N474 N 0.67692 0.42329 0.5033 0.0
C475 C 0.68038 0.46461 0.50068 0.0
C476 C 0.68905 0.48009 0.46732 0.0
C477 C 0.26218 0.94686 0.23453 0.0
C478 C 0.26008 0.92553 0.26597 0.0
C479 C 0.23052 0.94854 0.21155 0.0
C480 C 0.19531 0.92882 0.21886 0.0
H481 H 0.28853 0.96268 0.22748 0.0
H482 H 0.23381 0.96547 0.1878 0.0
S483 S 0.17435 0.86876 0.29772 0.0
N484 N 0.21962 0.88416 0.3032 0.0
N485 N 0.16016 0.88717 0.26004 0.0
C486 C 0.19277 0.90711 0.25012 0.0
C487 C 0.22507 0.90552 0.27364 0.0
C488 C 0.65277 0.0416 0.48018 0.0
C489 C 0.66461 0.03863 0.51505 0.0
C490 C 0.65567 0.00822 0.45729 0.0
C491 C 0.67047 0.97034 0.46825 0.0
H492 H 0.64155 0.07013 0.47019 0.0
H493 H 0.64648 0.01239 0.43068 0.0
S494 S 0.70396 0.94574 0.55741 0.0
N495 N 0.69066 -0.00585 0.55973 0.0
N496 N 0.69606 0.93149 0.51688 0.0
C497 C 0.68183 0.96668 0.50325 0.0
C498 C 0.67891 0.00074 0.52657 0.0
C499 C 0.27567 0.43594 0.74588 0.0
C500 C 0.25831 0.435 0.71275 0.0
C501 C 0.25291 0.43689 0.77563 0.0
C502 C 0.21232 0.43594 0.77281 0.0
H503 H 0.3065 0.43057 0.74882 0.0
H504 H 0.26696 0.43164 0.8004 0.0
S505 S 0.15376 0.44624 0.69264 0.0
N506 N 0.19897 0.44394 0.67922 0.0
N507 N 0.15619 0.44423 0.73528 0.0
C508 C 0.19519 0.44248 0.74025 0.0
C509 C 0.21833 0.4423 0.70999 0.0
C510 C 0.76754 0.99063 0.95895 0.0
C511 C 0.79433 0.02273 0.9639 0.0
C512 C 0.75491 0.96737 -0.01297 0.0
C513 C 0.76877 0.97547 0.02085 0.0
H514 H 0.75905 0.98099 0.93307 0.0
H515 H 0.73671 0.94091 0.98172 0.0
S516 S 0.831 0.06304 0.04816 0.0
N517 N 0.82814 0.0665 0.00564 0.0
N518 N 0.80454 0.02278 0.05831 0.0
C519 C 0.79181 0.0105 0.02646 0.0
C520 C 0.80452 0.03418 -0.00203 0.0
C521 C 0.20337 0.59689 0.24203 0.0
C522 C 0.20955 0.58398 0.20765 0.0
C523 C 0.22385 0.57973 0.26965 0.0
C524 C 0.25125 0.54872 0.26417 0.0
H525 H 0.1839 0.62196 0.24769 0.0
H526 H 0.21941 0.59231 0.29531 0.0
S527 S 0.27317 0.49866 0.17997 0.0
N528 N 0.24131 0.53446 0.17021 0.0
N529 N 0.27966 0.50176 0.22228 0.0
C530 C 0.25516 0.53281 0.23036 0.0
C531 C 0.23432 0.55051 0.20207 0.0
C532 C 0.31453 0.96287 0.522 0.0
C533 C 0.31605 0.00559 0.5182 0.0
C534 C 0.31274 0.93701 0.49283 0.0
C535 C 0.31165 0.95321 0.45921 0.0
H536 H 0.32017 0.94934 0.54704 0.0
H537 H 0.31718 0.90449 0.49642 0.0
S538 S 0.30409 0.06281 0.43657 0.0
N539 N 0.30842 0.0628 0.47917 0.0
N540 N 0.30379 0.01418 0.42441 0.0
C541 C 0.30645 -0.00442 0.45564 0.0
C542 C 0.30911 0.02189 0.48523 0.0
C543 C 0.75291 0.53424 0.20107 0.0
C544 C 0.79109 0.54311 0.21185 0.0
C545 C 0.72271 0.53212 0.22488 0.0
C546 C 0.72929 0.53911 0.26048 0.0
H547 H 0.74622 0.52848 0.17402 0.0
H548 H 0.69389 0.52495 0.21514 0.0
S549 S 0.82389 0.56466 0.30214 0.0
N550 N 0.83377 0.55971 0.26067 0.0
N551 N 0.77694 0.55593 0.30529 0.0
C552 C 0.76726 0.54851 0.27163 0.0
C553 C 0.79814 0.55041 0.24738 0.0
C554 C 0.17156 0.03509 0.02472 0.0
C555 C 0.16704 0.99286 0.02965 0.0
C556 C 0.17998 0.05032 -0.00819 0.0
C557 C 0.1835 0.02361 0.96317 0.0
H558 H 0.16325 0.0565 0.04486 0.0
H559 H 0.17719 0.08296 -0.01232 0.0
S560 S 0.18669 0.91054 0.96592 0.0
N561 N 0.1763 0.92466 0.00587 0.0
N562 N 0.1923 0.95337 0.94409 0.0
C563 C 0.1867 0.98158 0.96958 0.0
C564 C 0.17783 0.96606 0.0029 0.0
C565 C 0.72603 0.45761 0.71521 0.0
C566 C 0.69454 0.43026 0.7167 0.0
C567 C 0.75724 0.45516 0.73859 0.0
C568 C 0.75846 0.42524 0.76461 0.0
H569 H 0.72663 0.48143 0.6959 0.0
H570 H 0.78054 0.47722 0.73623 0.0
S571 S 0.684 0.3451 0.77909 0.0
N572 N 0.66701 0.37138 0.74599 0.0
N573 N 0.72567 0.36691 0.78993 0.0
C574 C 0.72737 0.39736 0.76628 0.0
C575 C 0.69548 0.39982 0.74236 0.0
loop_
_geom_bond_atom_site_label_1
_geom_bond_atom_site_label_2
_geom_bond_distance
_geom_bond_site_symmetry_2
_ccdc_geom_bond_type
Mg0 O1 2.028 . S
Mg0 O7 1.986 . S
Mg0 O9 2.114 . S
Mg0 O10 2.251 . S
Mg0 O13 2.010 . S
O1 Mg0 2.028 . S
O1 C4 1.250 . S
O2 Mg3 2.028 . S
O2 C4 1.248 . S
Mg3 O2 2.028 . S
Mg3 O8 2.032 . S
Mg3 O10 2.079 . S
C4 O1 1.250 . S
C4 O2 1.248 . S
C5 O6 1.264 . S
C5 O13 1.249 . S
O6 C5 1.264 . S
O7 Mg0 1.986 . S
O7 C11 1.246 . S
O8 Mg3 2.032 . S
O8 C11 1.259 . S
O9 Mg0 2.114 . S
O9 C12 1.252 . S
O10 Mg0 2.251 . S
O10 Mg3 2.079 . S
O10 C12 1.273 . S
C11 O7 1.246 . S
C11 O8 1.259 . S
C12 O9 1.252 . S
C12 O10 1.273 . S
O13 Mg0 2.010 . S
O13 C5 1.249 . S
Mg14 O15 2.028 . S
Mg14 O21 1.986 . S
Mg14 O23 2.114 . S
Mg14 O24 2.251 . S
Mg14 O27 2.010 . S
O15 Mg14 2.028 . S
O15 C18 1.250 . S
O16 Mg17 2.028 . S
O16 C18 1.248 . S
Mg17 O16 2.028 . S
Mg17 O22 2.032 . S
Mg17 O24 2.079 . S
C18 O15 1.250 . S
C18 O16 1.248 . S
C19 O20 1.264 . S
C19 O27 1.249 . S
O20 C19 1.264 . S
O21 Mg14 1.986 . S
O21 C25 1.246 . S
O22 Mg17 2.032 . S
O22 C25 1.259 . S
O23 Mg14 2.114 . S
O23 C26 1.252 . S
O24 Mg14 2.251 . S
O24 Mg17 2.079 . S
O24 C26 1.273 . S
C25 O21 1.246 . S
C25 O22 1.259 . S
C26 O23 1.252 . S
C26 O24 1.273 . S
O27 Mg14 2.010 . S
O27 C19 1.249 . S
Mg28 O29 2.028 . S
Mg28 O35 1.986 . S
Mg28 O37 2.114 . S
Mg28 O38 2.251 . S
Mg28 O41 2.010 . S
O29 Mg28 2.028 . S
O29 C32 1.250 . S
O30 Mg31 2.028 . S
O30 C32 1.248 . S
Mg31 O30 2.028 . S
Mg31 O36 2.032 . S
Mg31 O38 2.079 . S
C32 O29 1.250 . S
C32 O30 1.248 . S
C33 O34 1.264 . S
C33 O41 1.249 . S
O34 C33 1.264 . S
O35 Mg28 1.986 . S
O35 C39 1.246 . S
O36 Mg31 2.032 . S
O36 C39 1.259 . S
O37 Mg28 2.114 . S
O37 C40 1.252 . S
O38 Mg28 2.251 . S
O38 Mg31 2.079 . S
O38 C40 1.273 . S
C39 O35 1.246 . S
C39 O36 1.259 . S
C40 O37 1.252 . S
C40 O38 1.273 . S
O41 Mg28 2.010 . S
O41 C33 1.249 . S
Mg42 O43 2.028 . S
Mg42 O49 1.986 . S
Mg42 O51 2.114 . S
Mg42 O52 2.251 . S
Mg42 O55 2.010 . S
O43 Mg42 2.028 . S
O43 C46 1.250 . S
O44 Mg45 2.028 . S
O44 C46 1.248 . S
Mg45 O44 2.028 . S
Mg45 O50 2.032 . S
Mg45 O52 2.079 . S
C46 O43 1.250 . S
C46 O44 1.248 . S
C47 O48 1.264 . S
C47 O55 1.249 . S
O48 C47 1.264 . S
O49 Mg42 1.986 . S
O49 C53 1.246 . S
O50 Mg45 2.032 . S
O50 C53 1.259 . S
O51 Mg42 2.114 . S
O51 C54 1.252 . S
O52 Mg42 2.251 . S
O52 Mg45 2.079 . S
O52 C54 1.273 . S
C53 O49 1.246 . S
C53 O50 1.259 . S
C54 O51 1.252 . S
C54 O52 1.273 . S
O55 Mg42 2.010 . S
O55 C47 1.249 . S
Mg56 O57 2.028 . S
Mg56 O63 1.986 . S
Mg56 O65 2.114 . S
Mg56 O66 2.251 . S
Mg56 O69 2.010 . S
O57 Mg56 2.028 . S
O57 C60 1.250 . S
O58 Mg59 2.028 . S
O58 C60 1.248 . S
Mg59 O58 2.028 . S
Mg59 O64 2.032 . S
Mg59 O66 2.079 . S
C60 O57 1.250 . S
C60 O58 1.248 . S
C61 O62 1.264 . S
C61 O69 1.249 . S
O62 C61 1.264 . S
O63 Mg56 1.986 . S
O63 C67 1.246 . S
O64 Mg59 2.032 . S
O64 C67 1.259 . S
O65 Mg56 2.114 . S
O65 C68 1.252 . S
O66 Mg56 2.251 . S
O66 Mg59 2.079 . S
O66 C68 1.273 . S
C67 O63 1.246 . S
C67 O64 1.259 . S
C68 O65 1.252 . S
C68 O66 1.273 . S
O69 Mg56 2.010 . S
O69 C61 1.249 . S
Mg70 O71 2.028 . S
Mg70 O77 1.986 . S
Mg70 O79 2.114 . S
Mg70 O80 2.251 . S
Mg70 O83 2.010 . S
O71 Mg70 2.028 . S
O71 C74 1.250 . S
O72 Mg73 2.028 . S
O72 C74 1.248 . S
Mg73 O72 2.028 . S
Mg73 O78 2.032 . S
Mg73 O80 2.079 . S
C74 O71 1.250 . S
C74 O72 1.248 . S
C75 O76 1.264 . S
C75 O83 1.249 . S
O76 C75 1.264 . S
O77 Mg70 1.986 . S
O77 C81 1.246 . S
O78 Mg73 2.032 . S
O78 C81 1.259 . S
O79 Mg70 2.114 . S
O79 C82 1.252 . S
O80 Mg70 2.251 . S
O80 Mg73 2.079 . S
O80 C82 1.273 . S
C81 O77 1.246 . S
C81 O78 1.259 . S
C82 O79 1.252 . S
C82 O80 1.273 . S
O83 Mg70 2.010 . S
O83 C75 1.249 . S
Mg84 O85 2.028 . S
Mg84 O91 1.986 . S
Mg84 O93 2.114 . S
Mg84 O94 2.251 . S
Mg84 O97 2.010 . S
O85 Mg84 2.028 . S
O85 C88 1.250 . S
O86 Mg87 2.028 . S
O86 C88 1.248 . S
Mg87 O86 2.028 . S
Mg87 O92 2.032 . S
Mg87 O94 2.079 . S
C88 O85 1.250 . S
C88 O86 1.248 . S
C89 O90 1.264 . S
C89 O97 1.249 . S
O90 C89 1.264 . S
O91 Mg84 1.986 . S
O91 C95 1.246 . S
O92 Mg87 2.032 . S
O92 C95 1.259 . S
O93 Mg84 2.114 . S
O93 C96 1.252 . S
O94 Mg84 2.251 . S
O94 Mg87 2.079 . S
O94 C96 1.273 . S
C95 O91 1.246 . S
C95 O92 1.259 . S
C96 O93 1.252 . S
C96 O94 1.273 . S
O97 Mg84 2.010 . S
O97 C89 1.249 . S
Mg98 O99 2.028 . S
Mg98 O105 1.986 . S
Mg98 O107 2.114 . S
Mg98 O108 2.251 . S
Mg98 O111 2.010 . S
O99 Mg98 2.028 . S
O99 C102 1.250 . S
O100 Mg101 2.028 . S
O100 C102 1.248 . S
Mg101 O100 2.028 . S
Mg101 O106 2.032 . S
Mg101 O108 2.079 . S
C102 O99 1.250 . S
C102 O100 1.248 . S
C103 O104 1.264 . S
C103 O111 1.249 . S
O104 C103 1.264 . S
O105 Mg98 1.986 . S
O105 C109 1.246 . S
O106 Mg101 2.032 . S
O106 C109 1.259 . S
O107 Mg98 2.114 . S
O107 C110 1.252 . S
O108 Mg98 2.251 . S
O108 Mg101 2.079 . S
O108 C110 1.273 . S
C109 O105 1.246 . S
C109 O106 1.259 . S
C110 O107 1.252 . S
C110 O108 1.273 . S
O111 Mg98 2.010 . S
O111 C103 1.249 . S
Mg112 O113 2.028 . S
Mg112 O119 1.986 . S
Mg112 O121 2.114 . S
Mg112 O122 2.251 . S
Mg112 O125 2.010 . S
O113 Mg112 2.028 . S
O113 C116 1.250 . S
O114 Mg115 2.028 . S
O114 C116 1.248 . S
Mg115 O114 2.028 . S
Mg115 O120 2.032 . S
Mg115 O122 2.079 . S
C116 O113 1.250 . S
C116 O114 1.248 . S
C117 O118 1.264 . S
C117 O125 1.249 . S
O118 C117 1.264 . S
O119 Mg112 1.986 . S
O119 C123 1.246 . S
O120 Mg115 2.032 . S
O120 C123 1.259 . S
O121 Mg112 2.114 . S
O121 C124 1.252 . S
O122 Mg112 2.251 . S
O122 Mg115 2.079 . S
O122 C124 1.273 . S
C123 O119 1.246 . S
C123 O120 1.259 . S
C124 O121 1.252 . S
C124 O122 1.273 . S
O125 Mg112 2.010 . S
O125 C117 1.249 . S
Mg126 O127 2.028 . S
Mg126 O133 1.986 . S
Mg126 O135 2.114 . S
Mg126 O136 2.251 . S
Mg126 O139 2.010 . S
O127 Mg126 2.028 . S
O127 C130 1.250 . S
O128 Mg129 2.028 . S
O128 C130 1.248 . S
Mg129 O128 2.028 . S
Mg129 O134 2.032 . S
Mg129 O136 2.079 . S
C130 O127 1.250 . S
C130 O128 1.248 . S
C131 O132 1.265 1_545 S
C131 O139 1.249 . S
O132 C131 1.265 1_565 S
O133 Mg126 1.986 . S
O133 C137 1.246 . S
O134 Mg129 2.032 . S
O134 C137 1.259 . S
O135 Mg126 2.114 . S
O135 C138 1.252 . S
O136 Mg126 2.251 . S
O136 Mg129 2.079 . S
O136 C138 1.273 . S
C137 O133 1.246 . S
C137 O134 1.259 . S
C138 O135 1.252 . S
C138 O136 1.273 . S
O139 Mg126 2.010 . S
O139 C131 1.249 . S
Mg140 O141 2.028 . S
Mg140 O147 1.986 . S
Mg140 O149 2.114 . S
Mg140 O150 2.251 . S
Mg140 O153 2.010 . S
O141 Mg140 2.028 . S
O141 C144 1.250 . S
O142 Mg143 2.028 . S
O142 C144 1.248 . S
Mg143 O142 2.028 . S
Mg143 O148 2.032 . S
Mg143 O150 2.079 . S
C144 O141 1.250 . S
C144 O142 1.248 . S
C145 O146 1.264 . S
C145 O153 1.249 . S
O146 C145 1.264 . S
O147 Mg140 1.986 . S
O147 C151 1.246 . S
O148 Mg143 2.032 . S
O148 C151 1.259 . S
O149 Mg140 2.114 . S
O149 C152 1.252 . S
O150 Mg140 2.251 . S
O150 Mg143 2.079 . S
O150 C152 1.273 . S
C151 O147 1.246 . S
C151 O148 1.259 . S
C152 O149 1.252 . S
C152 O150 1.273 . S
O153 Mg140 2.010 . S
O153 C145 1.249 . S
Mg154 O155 2.028 . S
Mg154 O161 1.986 . S
Mg154 O163 2.114 . S
Mg154 O164 2.251 . S
Mg154 O167 2.010 . S
O155 Mg154 2.028 . S
O155 C158 1.250 . S
O156 Mg157 2.028 . S
O156 C158 1.248 . S
Mg157 O156 2.028 . S
Mg157 O162 2.032 . S
Mg157 O164 2.079 . S
C158 O155 1.250 . S
C158 O156 1.248 . S
C159 O160 1.251 1_565 S
C159 O167 1.249 . S
O160 C159 1.251 1_545 S
O161 Mg154 1.986 . S
O161 C165 1.246 . S
O162 Mg157 2.032 . S
O162 C165 1.259 . S
O163 Mg154 2.114 . S
O163 C166 1.252 . S
O164 Mg154 2.251 . S
O164 Mg157 2.079 . S
O164 C166 1.273 . S
C165 O161 1.246 . S
C165 O162 1.259 . S
C166 O163 1.252 . S
C166 O164 1.273 . S
O167 Mg154 2.010 . S
O167 C159 1.249 . S
Mg168 O169 2.028 . S
Mg168 O175 1.986 . S
Mg168 O177 2.114 . S
Mg168 O178 2.251 . S
Mg168 O181 2.010 . S
O169 Mg168 2.028 . S
O169 C172 1.250 . S
O170 Mg171 2.028 . S
O170 C172 1.248 . S
Mg171 O170 2.028 . S
Mg171 O176 2.032 . S
Mg171 O178 2.079 . S
C172 O169 1.250 . S
C172 O170 1.248 . S
C173 O174 1.264 . S
C173 O181 1.249 . S
O174 C173 1.264 . S
O175 Mg168 1.986 . S
O175 C179 1.246 . S
O176 Mg171 2.032 . S
O176 C179 1.259 . S
O177 Mg168 2.114 . S
O177 C180 1.252 . S
O178 Mg168 2.251 . S
O178 Mg171 2.079 . S
O178 C180 1.273 . S
C179 O175 1.246 . S
C179 O176 1.259 . S
C180 O177 1.252 . S
C180 O178 1.273 . S
O181 Mg168 2.010 . S
O181 C173 1.249 . S
Mg182 O183 2.028 . S
Mg182 O189 1.986 . S
Mg182 O191 2.114 . S
Mg182 O192 2.251 . S
Mg182 O195 2.010 . S
O183 Mg182 2.028 . S
O183 C186 1.250 . S
O184 Mg185 2.028 . S
O184 C186 1.248 . S
Mg185 O184 2.028 . S
Mg185 O190 2.032 . S
Mg185 O192 2.079 . S
C186 O183 1.250 . S
C186 O184 1.248 . S
C187 O188 1.264 . S
C187 O195 1.249 . S
O188 C187 1.264 . S
O189 Mg182 1.986 . S
O189 C193 1.246 . S
O190 Mg185 2.032 . S
O190 C193 1.259 . S
O191 Mg182 2.114 . S
O191 C194 1.252 . S
O192 Mg182 2.251 . S
O192 Mg185 2.079 . S
O192 C194 1.273 . S
C193 O189 1.246 . S
C193 O190 1.259 . S
C194 O191 1.252 . S
C194 O192 1.273 . S
O195 Mg182 2.010 . S
O195 C187 1.249 . S
Mg196 O197 2.028 . S
Mg196 O203 1.986 . S
Mg196 O205 2.114 . S
Mg196 O206 2.251 . S
Mg196 O209 2.010 . S
O197 Mg196 2.028 . S
O197 C200 1.250 . S
O198 Mg199 2.028 . S
O198 C200 1.248 . S
Mg199 O198 2.028 . S
Mg199 O204 2.032 . S
Mg199 O206 2.079 . S
C200 O197 1.250 . S
C200 O198 1.248 . S
C201 O202 1.264 . S
C201 O209 1.249 . S
O202 C201 1.264 . S
O203 Mg196 1.986 . S
O203 C207 1.246 . S
O204 Mg199 2.032 . S
O204 C207 1.259 . S
O205 Mg196 2.114 . S
O205 C208 1.252 . S
O206 Mg196 2.251 . S
O206 Mg199 2.079 . S
O206 C208 1.273 . S
C207 O203 1.246 . S
C207 O204 1.259 . S
C208 O205 1.252 . S
C208 O206 1.273 . S
O209 Mg196 2.010 . S
O209 C201 1.249 . S
Mg210 O211 2.028 . S
Mg210 O217 1.986 . S
Mg210 O219 2.114 . S
Mg210 O220 2.251 . S
Mg210 O223 2.010 . S
O211 Mg210 2.028 . S
O211 C214 1.250 . S
O212 Mg213 2.028 . S
O212 C214 1.248 . S
Mg213 O212 2.028 . S
Mg213 O218 2.032 . S
Mg213 O220 2.079 . S
C214 O211 1.250 . S
C214 O212 1.248 . S
C215 O216 1.264 . S
C215 O223 1.249 . S
O216 C215 1.264 . S
O217 Mg210 1.986 . S
O217 C221 1.246 . S
O218 Mg213 2.032 . S
O218 C221 1.259 . S
O219 Mg210 2.114 . S
O219 C222 1.252 . S
O220 Mg210 2.251 . S
O220 Mg213 2.079 . S
O220 C222 1.273 . S
C221 O217 1.246 . S
C221 O218 1.259 . S
C222 O219 1.252 . S
C222 O220 1.273 . S
O223 Mg210 2.010 . S
O223 C215 1.249 . S
C224 C225 1.369 . S
C224 C226 1.419 . S
C224 H228 0.930 . S
C225 C224 1.369 . S
C225 C234 1.429 . S
C226 C224 1.419 . S
C226 C227 1.363 . S
C226 H229 0.929 . S
C227 C226 1.363 . S
C227 C233 1.428 . S
H228 C224 0.930 . S
H229 C226 0.929 . S
S230 N231 1.613 . S
S230 N232 1.610 . S
N231 S230 1.613 . S
N231 C234 1.350 . S
N232 S230 1.610 . S
N232 C233 1.351 . S
C233 C227 1.428 . S
C233 N232 1.351 . S
C233 C234 1.434 . S
C234 C225 1.429 . S
C234 N231 1.350 . S
C234 C233 1.434 . S
C235 C236 1.369 . S
C235 C237 1.419 . S
C235 H239 0.930 . S
C236 C235 1.369 . S
C236 C245 1.429 . S
C237 C235 1.419 . S
C237 C238 1.363 . S
C237 H240 0.929 . S
C238 C237 1.363 . S
C238 C244 1.428 . S
H239 C235 0.930 . S
H240 C237 0.929 . S
S241 N242 1.613 . S
S241 N243 1.610 . S
N242 S241 1.613 . S
N242 C245 1.350 . S
N243 S241 1.610 . S
N243 C244 1.351 . S
C244 C238 1.428 . S
C244 N243 1.351 . S
C244 C245 1.434 . S
C245 C236 1.429 . S
C245 N242 1.350 . S
C245 C244 1.434 . S
C246 C247 1.369 . S
C246 C248 1.419 . S
C246 H250 0.930 . S
C247 C246 1.369 . S
C247 C256 1.429 . S
C248 C246 1.419 . S
C248 C249 1.363 . S
C248 H251 0.929 . S
C249 C248 1.363 . S
C249 C255 1.428 . S
H250 C246 0.930 . S
H251 C248 0.929 . S
S252 N253 1.613 . S
S252 N254 1.610 . S
N253 S252 1.613 . S
N253 C256 1.350 . S
N254 S252 1.610 . S
N254 C255 1.351 . S
C255 C249 1.428 . S
C255 N254 1.351 . S
C255 C256 1.434 . S
C256 C247 1.429 . S
C256 N253 1.350 . S
C256 C255 1.434 . S
C257 C258 1.369 . S
C257 C259 1.419 1_455 S
C257 H261 0.930 . S
C258 C257 1.369 . S
C258 C267 1.429 . S
C259 C257 1.419 1_655 S
C259 C260 1.363 . S
C259 H262 0.929 . S
C260 C259 1.363 . S
C260 C266 1.428 . S
H261 C257 0.930 . S
H262 C259 0.929 . S
S263 N264 1.613 1_655 S
S263 N265 1.610 . S
N264 S263 1.613 1_455 S
N264 C267 1.350 . S
N265 S263 1.610 . S
N265 C266 1.351 . S
C266 C260 1.428 . S
C266 N265 1.351 . S
C266 C267 1.434 1_655 S
C267 C258 1.429 . S
C267 N264 1.350 . S
C267 C266 1.434 1_455 S
C268 C269 1.369 . S
C268 C270 1.419 . S
C268 H272 0.930 . S
C269 C268 1.369 . S
C269 C278 1.429 . S
C270 C268 1.419 . S
C270 C271 1.363 . S
C270 H273 0.929 . S
C271 C270 1.363 . S
C271 C277 1.428 . S
H272 C268 0.930 . S
H273 C270 0.929 . S
S274 N275 1.613 . S
S274 N276 1.610 . S
N275 S274 1.613 . S
N275 C278 1.350 . S
N276 S274 1.610 . S
N276 C277 1.351 . S
C277 C271 1.428 . S
C277 N276 1.351 . S
C277 C278 1.434 . S
C278 C269 1.429 . S
C278 N275 1.350 . S
C278 C277 1.434 . S
C279 C280 1.369 . S
C279 C281 1.419 . S
C279 H283 0.930 . S
C280 C279 1.369 . S
C280 C289 1.429 . S
C281 C279 1.419 . S
C281 C282 1.363 1_655 S
C281 H284 0.929 1_655 S
C282 C281 1.363 1_455 S
C282 C288 1.428 . S
H283 C279 0.930 . S
H284 C281 0.929 1_455 S
S285 N286 1.613 . S
S285 N287 1.610 1_655 S
N286 S285 1.613 . S
N286 C289 1.350 . S
N287 S285 1.610 1_455 S
N287 C288 1.351 . S
C288 C282 1.428 . S
C288 N287 1.351 . S
C288 C289 1.434 1_455 S
C289 C280 1.429 . S
C289 N286 1.350 . S
C289 C288 1.434 1_655 S
C290 C291 1.369 . S
C290 C292 1.419 . S
C290 H294 0.930 . S
C291 C290 1.369 . S
C291 C300 1.429 . S
C292 C290 1.419 . S
C292 C293 1.363 . S
C292 H295 0.929 . S
C293 C292 1.363 . S
C293 C299 1.428 . S
H294 C290 0.930 . S
H295 C292 0.929 . S
S296 N297 1.613 . S
S296 N298 1.610 . S
N297 S296 1.613 . S
N297 C300 1.350 . S
N298 S296 1.610 . S
N298 C299 1.351 . S
C299 C293 1.428 . S
C299 N298 1.351 . S
C299 C300 1.434 . S
C300 C291 1.429 . S
C300 N297 1.350 . S
C300 C299 1.434 . S
C301 C302 1.369 . S
C301 C303 1.419 . S
C301 H305 0.930 . S
C302 C301 1.369 . S
C302 C311 1.429 . S
C303 C301 1.419 . S
C303 C304 1.363 . S
C303 H306 0.929 . S
C304 C303 1.363 . S
C304 C310 1.428 . S
H305 C301 0.930 . S
H306 C303 0.929 . S
S307 N308 1.613 . S
S307 N309 1.610 . S
N308 S307 1.613 . S
N308 C311 1.350 . S
N309 S307 1.610 . S
N309 C310 1.351 . S
C310 C304 1.428 . S
C310 N309 1.351 . S
C310 C311 1.434 . S
C311 C302 1.429 . S
C311 N308 1.350 . S
C311 C310 1.434 . S
C312 C313 1.369 . S
C312 C314 1.419 . S
C312 H316 0.930 . S
C313 C312 1.369 . S
C313 C322 1.429 . S
C314 C312 1.419 . S
C314 C315 1.363 . S
C314 H317 0.929 . S
C315 C314 1.363 . S
C315 C321 1.428 . S
H316 C312 0.930 . S
H317 C314 0.929 . S
S318 N319 1.613 . S
S318 N320 1.610 . S
N319 S318 1.613 . S
N319 C322 1.350 . S
N320 S318 1.610 . S
N320 C321 1.351 . S
C321 C315 1.428 . S
C321 N320 1.351 . S
C321 C322 1.434 . S
C322 C313 1.429 . S
C322 N319 1.350 . S
C322 C321 1.434 . S
C323 C324 1.369 . S
C323 C325 1.419 . S
C323 H327 0.930 . S
C324 C323 1.369 . S
C324 C333 1.429 . S
C325 C323 1.419 . S
C325 C326 1.363 . S
C325 H328 0.929 . S
C326 C325 1.363 . S
C326 C332 1.428 . S
H327 C323 0.930 . S
H328 C325 0.929 . S
S329 N330 1.613 . S
S329 N331 1.610 . S
N330 S329 1.613 . S
N330 C333 1.350 . S
N331 S329 1.610 . S
N331 C332 1.351 . S
C332 C326 1.428 . S
C332 N331 1.351 . S
C332 C333 1.434 . S
C333 C324 1.429 . S
C333 N330 1.350 . S
C333 C332 1.434 . S
C334 C335 1.369 . S
C334 C336 1.419 . S
C334 H338 0.930 . S
C335 C334 1.369 . S
C335 C344 1.429 . S
C336 C334 1.419 . S
C336 C337 1.363 . S
C336 H339 0.929 . S
C337 C336 1.363 . S
C337 C343 1.428 . S
H338 C334 0.930 . S
H339 C336 0.929 . S
S340 N341 1.613 . S
S340 N342 1.610 . S
N341 S340 1.613 . S
N341 C344 1.350 . S
N342 S340 1.610 . S
N342 C343 1.351 . S
C343 C337 1.428 . S
C343 N342 1.351 . S
C343 C344 1.434 . S
C344 C335 1.429 . S
C344 N341 1.350 . S
C344 C343 1.434 . S
C345 C346 1.369 . S
C345 C347 1.419 . S
C345 H349 0.930 . S
C346 C345 1.369 . S
C346 C355 1.429 . S
C347 C345 1.419 . S
C347 C348 1.363 . S
C347 H350 0.929 . S
C348 C347 1.363 . S
C348 C354 1.428 . S
H349 C345 0.930 . S
H350 C347 0.929 . S
S351 N352 1.613 . S
S351 N353 1.610 . S
N352 S351 1.613 . S
N352 C355 1.350 . S
N353 S351 1.610 . S
N353 C354 1.351 . S
C354 C348 1.428 . S
C354 N353 1.351 . S
C354 C355 1.434 . S
C355 C346 1.429 . S
C355 N352 1.350 . S
C355 C354 1.434 . S
C356 C357 1.369 . S
C356 C358 1.419 1_455 S
C356 H360 0.930 . S
C357 C356 1.369 . S
C357 C366 1.429 . S
C358 C356 1.419 1_655 S
C358 C359 1.363 . S
C358 H361 0.929 . S
C359 C358 1.363 . S
C359 C365 1.428 . S
H360 C356 0.930 . S
H361 C358 0.929 . S
S362 N363 1.613 . S
S362 N364 1.610 1_455 S
N363 S362 1.613 . S
N363 C366 1.350 . S
N364 S362 1.610 1_655 S
N364 C365 1.351 . S
C365 C359 1.428 . S
C365 N364 1.351 . S
C365 C366 1.434 1_655 S
C366 C357 1.429 . S
C366 N363 1.350 . S
C366 C365 1.434 1_455 S
C367 C368 1.369 . S
C367 C369 1.419 . S
C367 H371 0.930 . S
C368 C367 1.369 . S
C368 C377 1.429 . S
C369 C367 1.419 . S
C369 C370 1.363 . S
C369 H372 0.929 . S
C370 C369 1.363 . S
C370 C376 1.428 . S
H371 C367 0.930 . S
H372 C369 0.929 . S
S373 N374 1.613 . S
S373 N375 1.610 . S
N374 S373 1.613 . S
N374 C377 1.350 . S
N375 S373 1.610 . S
N375 C376 1.351 . S
C376 C370 1.428 . S
C376 N375 1.351 . S
C376 C377 1.434 . S
C377 C368 1.429 . S
C377 N374 1.350 . S
C377 C376 1.434 . S
C378 C379 1.369 . S
C378 C380 1.419 . S
C378 H382 0.930 . S
C379 C378 1.369 . S
C379 C388 1.429 . S
C380 C378 1.419 . S
C380 C381 1.363 . S
C380 H383 0.929 . S
C381 C380 1.363 . S
C381 C387 1.428 . S
H382 C378 0.930 . S
H383 C380 0.929 . S
S384 N385 1.613 . S
S384 N386 1.610 . S
N385 S384 1.613 . S
N385 C388 1.350 . S
N386 S384 1.610 . S
N386 C387 1.351 . S
C387 C381 1.428 . S
C387 N386 1.351 . S
C387 C388 1.434 . S
C388 C379 1.429 . S
C388 N385 1.350 . S
C388 C387 1.434 . S
C389 C390 1.369 . S
C389 C391 1.419 1_455 S
C389 H393 0.930 . S
C390 C389 1.369 . S
C390 C399 1.429 . S
C391 C389 1.419 1_655 S
C391 C392 1.363 . S
C391 H394 0.929 . S
C392 C391 1.363 . S
C392 C398 1.428 . S
H393 C389 0.930 . S
H394 C391 0.929 . S
S395 N396 1.613 . S
S395 N397 1.610 1_455 S
N396 S395 1.613 . S
N396 C399 1.350 . S
N397 S395 1.610 1_655 S
N397 C398 1.351 . S
C398 C392 1.428 . S
C398 N397 1.351 . S
C398 C399 1.434 1_655 S
C399 C390 1.429 . S
C399 N396 1.350 . S
C399 C398 1.434 1_455 S
C400 C401 1.369 1_556 S
C400 C402 1.419 . S
C400 H404 0.930 . S
C401 C400 1.369 1_554 S
C401 C410 1.429 . S
C402 C400 1.419 . S
C402 C403 1.363 . S
C402 H405 0.929 . S
C403 C402 1.363 . S
C403 C409 1.428 . S
H404 C400 0.930 . S
H405 C402 0.929 . S
S406 N407 1.613 . S
S406 N408 1.610 . S
N407 S406 1.613 . S
N407 C410 1.350 . S
N408 S406 1.610 . S
N408 C409 1.351 1_554 S
C409 C403 1.428 . S
C409 N408 1.351 1_556 S
C409 C410 1.434 1_556 S
C410 C401 1.429 . S
C410 N407 1.350 . S
C410 C409 1.434 1_554 S
C411 C412 1.369 . S
C411 C413 1.419 . S
C411 H415 0.930 . S
C412 C411 1.369 . S
C412 C421 1.429 . S
C413 C411 1.419 . S
C413 C414 1.363 . S
C413 H416 0.929 . S
C414 C413 1.363 . S
C414 C420 1.428 . S
H415 C411 0.930 . S
H416 C413 0.929 . S
S417 N418 1.613 . S
S417 N419 1.610 . S
N418 S417 1.613 . S
N418 C421 1.350 . S
N419 S417 1.610 . S
N419 C420 1.351 . S
C420 C414 1.428 . S
C420 N419 1.351 . S
C420 C421 1.434 . S
C421 C412 1.429 . S
C421 N418 1.350 . S
C421 C420 1.434 . S
C422 C423 1.369 . S
C422 C424 1.419 . S
C422 H426 0.930 . S
C423 C422 1.369 . S
C423 C432 1.429 . S
C424 C422 1.419 . S
C424 C425 1.363 . S
C424 H427 0.929 . S
C425 C424 1.363 . S
C425 C431 1.428 . S
H426 C422 0.930 . S
H427 C424 0.929 . S
S428 N429 1.613 . S
S428 N430 1.610 . S
N429 S428 1.613 . S
N429 C432 1.350 . S
N430 S428 1.610 . S
N430 C431 1.351 . S
C431 C425 1.428 . S
C431 N430 1.351 . S
C431 C432 1.434 . S
C432 C423 1.429 . S
C432 N429 1.350 . S
C432 C431 1.434 . S
C433 C434 1.369 . S
C433 C435 1.419 . S
C433 H437 0.930 . S
C434 C433 1.369 . S
C434 C443 1.429 . S
C435 C433 1.419 . S
C435 C436 1.363 . S
C435 H438 0.929 . S
C436 C435 1.363 . S
C436 C442 1.428 . S
H437 C433 0.930 . S
H438 C435 0.929 . S
S439 N440 1.613 1_565 S
S439 N441 1.610 1_565 S
N440 S439 1.613 1_545 S
N440 C443 1.350 . S
N441 S439 1.610 1_545 S
N441 C442 1.351 . S
C442 C436 1.428 . S
C442 N441 1.351 . S
C442 C443 1.434 . S
C443 C434 1.429 . S
C443 N440 1.350 . S
C443 C442 1.434 . S
C444 C445 1.369 . S
C444 C446 1.419 1_556 S
C444 H448 0.930 . S
C445 C444 1.369 . S
C445 C454 1.429 1_556 S
C446 C444 1.419 1_554 S
C446 C447 1.363 . S
C446 H449 0.929 . S
C447 C446 1.363 . S
C447 C453 1.428 . S
H448 C444 0.930 . S
H449 C446 0.929 . S
S450 N451 1.613 . S
S450 N452 1.610 . S
N451 S450 1.613 . S
N451 C454 1.350 . S
N452 S450 1.610 . S
N452 C453 1.351 . S
C453 C447 1.428 . S
C453 N452 1.351 . S
C453 C454 1.434 . S
C454 C445 1.429 1_554 S
C454 N451 1.350 . S
C454 C453 1.434 . S
C455 C456 1.369 . S
C455 C457 1.419 . S
C455 H459 0.930 . S
C456 C455 1.369 . S
C456 C465 1.429 . S
C457 C455 1.419 . S
C457 C458 1.363 . S
C457 H460 0.929 . S
C458 C457 1.363 . S
C458 C464 1.428 . S
H459 C455 0.930 . S
H460 C457 0.929 . S
S461 N462 1.613 . S
S461 N463 1.610 . S
N462 S461 1.613 . S
N462 C465 1.350 . S
N463 S461 1.610 . S
N463 C464 1.351 . S
C464 C458 1.428 . S
C464 N463 1.351 . S
C464 C465 1.434 . S
C465 C456 1.429 . S
C465 N462 1.350 . S
C465 C464 1.434 . S
C466 C467 1.369 . S
C466 C468 1.419 . S
C466 H470 0.930 . S
C467 C466 1.369 . S
C467 C476 1.429 . S
C468 C466 1.419 . S
C468 C469 1.363 . S
C468 H471 0.929 . S
C469 C468 1.363 . S
C469 C475 1.428 . S
H470 C466 0.930 . S
H471 C468 0.929 . S
S472 N473 1.613 . S
S472 N474 1.610 . S
N473 S472 1.613 . S
N473 C476 1.350 . S
N474 S472 1.610 . S
N474 C475 1.351 . S
C475 C469 1.428 . S
C475 N474 1.351 . S
C475 C476 1.434 . S
C476 C467 1.429 . S
C476 N473 1.350 . S
C476 C475 1.434 . S
C477 C478 1.369 . S
C477 C479 1.419 . S
C477 H481 0.930 . S
C478 C477 1.369 . S
C478 C487 1.429 . S
C479 C477 1.419 . S
C479 C480 1.363 . S
C479 H482 0.929 . S
C480 C479 1.363 . S
C480 C486 1.428 . S
H481 C477 0.930 . S
H482 C479 0.929 . S
S483 N484 1.613 . S
S483 N485 1.610 . S
N484 S483 1.613 . S
N484 C487 1.350 . S
N485 S483 1.610 . S
N485 C486 1.351 . S
C486 C480 1.428 . S
C486 N485 1.351 . S
C486 C487 1.434 . S
C487 C478 1.429 . S
C487 N484 1.350 . S
C487 C486 1.434 . S
C488 C489 1.369 . S
C488 C490 1.419 . S
C488 H492 0.930 . S
C489 C488 1.369 . S
C489 C498 1.429 1_545 S
C490 C488 1.419 . S
C490 C491 1.363 1_545 S
C490 H493 0.929 . S
C491 C490 1.363 1_565 S
C491 C497 1.428 . S
H492 C488 0.930 . S
H493 C490 0.929 . S
S494 N495 1.613 . S
S494 N496 1.610 . S
N495 S494 1.613 . S
N495 C498 1.350 . S
N496 S494 1.610 . S
N496 C497 1.351 . S
C497 C491 1.428 . S
C497 N496 1.351 . S
C497 C498 1.434 . S
C498 C489 1.429 1_565 S
C498 N495 1.350 . S
C498 C497 1.434 . S
C499 C500 1.369 . S
C499 C501 1.419 . S
C499 H503 0.930 . S
C500 C499 1.369 . S
C500 C509 1.429 . S
C501 C499 1.419 . S
C501 C502 1.363 . S
C501 H504 0.929 . S
C502 C501 1.363 . S
C502 C508 1.428 . S
H503 C499 0.930 . S
H504 C501 0.929 . S
S505 N506 1.613 . S
S505 N507 1.610 . S
N506 S505 1.613 . S
N506 C509 1.350 . S
N507 S505 1.610 . S
N507 C508 1.351 . S
C508 C502 1.428 . S
C508 N507 1.351 . S
C508 C509 1.434 . S
C509 C500 1.429 . S
C509 N506 1.350 . S
C509 C508 1.434 . S
C510 C511 1.369 1_565 S
C510 C512 1.419 . S
C510 H514 0.930 . S
C511 C510 1.369 1_545 S
C511 C520 1.429 . S
C512 C510 1.419 . S
C512 C513 1.363 1_556 S
C512 H515 0.929 . S
C513 C512 1.363 1_554 S
C513 C519 1.428 1_565 S
H514 C510 0.930 . S
H515 C512 0.929 . S
S516 N517 1.613 1_554 S
S516 N518 1.610 . S
N517 S516 1.613 1_556 S
N517 C520 1.350 . S
N518 S516 1.610 . S
N518 C519 1.351 . S
C519 C513 1.428 1_545 S
C519 N518 1.351 . S
C519 C520 1.434 1_554 S
C520 C511 1.429 . S
C520 N517 1.350 . S
C520 C519 1.434 1_556 S
C521 C522 1.369 . S
C521 C523 1.419 . S
C521 H525 0.930 . S
C522 C521 1.369 . S
C522 C531 1.429 . S
C523 C521 1.419 . S
C523 C524 1.363 . S
C523 H526 0.929 . S
C524 C523 1.363 . S
C524 C530 1.428 . S
H525 C521 0.930 . S
H526 C523 0.929 . S
S527 N528 1.613 . S
S527 N529 1.610 . S
N528 S527 1.613 . S
N528 C531 1.350 . S
N529 S527 1.610 . S
N529 C530 1.351 . S
C530 C524 1.428 . S
C530 N529 1.351 . S
C530 C531 1.434 . S
C531 C522 1.429 . S
C531 N528 1.350 . S
C531 C530 1.434 . S
C532 C533 1.369 1_565 S
C532 C534 1.419 . S
C532 H536 0.930 . S
C533 C532 1.369 1_545 S
C533 C542 1.429 . S
C534 C532 1.419 . S
C534 C535 1.363 . S
C534 H537 0.929 . S
C535 C534 1.363 . S
C535 C541 1.428 1_565 S
H536 C532 0.930 . S
H537 C534 0.929 . S
S538 N539 1.613 . S
S538 N540 1.610 . S
N539 S538 1.613 . S
N539 C542 1.350 . S
N540 S538 1.610 . S
N540 C541 1.351 . S
C541 C535 1.428 1_545 S
C541 N540 1.351 . S
C541 C542 1.434 . S
C542 C533 1.429 . S
C542 N539 1.350 . S
C542 C541 1.434 . S
C543 C544 1.369 . S
C543 C545 1.419 . S
C543 H547 0.930 . S
C544 C543 1.369 . S
C544 C553 1.429 . S
C545 C543 1.419 . S
C545 C546 1.363 . S
C545 H548 0.929 . S
C546 C545 1.363 . S
C546 C552 1.428 . S
H547 C543 0.930 . S
H548 C545 0.929 . S
S549 N550 1.613 . S
S549 N551 1.610 . S
N550 S549 1.613 . S
N550 C553 1.350 . S
N551 S549 1.610 . S
N551 C552 1.351 . S
C552 C546 1.428 . S
C552 N551 1.351 . S
C552 C553 1.434 . S
C553 C544 1.429 . S
C553 N550 1.350 . S
C553 C552 1.434 . S
C554 C555 1.369 1_545 S
C554 C556 1.419 1_554 S
C554 H558 0.930 . S
C555 C554 1.369 1_565 S
C555 C564 1.429 . S
C556 C554 1.419 1_556 S
C556 C557 1.363 . S
C556 H559 0.929 . S
C557 C556 1.363 . S
C557 C563 1.428 1_545 S
H558 C554 0.930 . S
H559 C556 0.929 . S
S560 N561 1.613 1_556 S
S560 N562 1.610 . S
N561 S560 1.613 1_554 S
N561 C564 1.350 . S
N562 S560 1.610 . S
N562 C563 1.351 . S
C563 C557 1.428 1_565 S
C563 N562 1.351 . S
C563 C564 1.434 1_556 S
C564 C555 1.429 . S
C564 N561 1.350 . S
C564 C563 1.434 1_554 S
C565 C566 1.369 . S
C565 C567 1.419 . S
C565 H569 0.930 . S
C566 C565 1.369 . S
C566 C575 1.429 . S
C567 C565 1.419 . S
C567 C568 1.363 . S
C567 H570 0.929 . S
C568 C567 1.363 . S
C568 C574 1.428 . S
H569 C565 0.930 . S
H570 C567 0.929 . S
S571 N572 1.613 . S
S571 N573 1.610 . S
N572 S571 1.613 . S
N572 C575 1.350 . S
N573 S571 1.610 . S
N573 C574 1.351 . S
C574 C568 1.428 . S
C574 N573 1.351 . S
C574 C575 1.434 . S
C575 C566 1.429 . S
C575 N572 1.350 . S
C575 C574 1.434 . S
C225 C158 1.363 . S
C227 C12 1.388 . S
C236 C222 1.482 . S
C238 C18 1.449 . S
C247 C40 1.479 . S
C249 C130 1.447 . S
C258 C194 1.358 . S
C260 C54 1.361 . S
C269 C68 1.411 . S
C271 C186 1.376 . S
C280 C74 1.483 . S
C282 C166 1.511 . S
C291 C88 1.493 . S
C293 C214 1.499 . S
C302 C102 1.394 . S
C304 C138 1.416 . S
C313 C46 1.500 . S
C315 C116 1.504 . S
C324 C144 1.376 . S
C326 C26 1.411 . S
C335 C172 1.454 . S
C337 C82 1.478 . S
C346 C200 1.365 . S
C348 C110 1.386 . S
C357 C60 1.447 . S
C359 C124 1.485 . S
C368 C152 1.359 . S
C370 C96 1.362 . S
C379 C208 1.511 . S
C381 C32 1.489 . S
C390 C4 1.392 . S
C392 C180 1.416 . S
C401 C5 1.140 . S
C403 C61 1.130 . S
C412 C25 1.223 . S
C414 C81 1.221 . S
C423 C33 1.163 . S
C425 C95 1.243 . S
C434 C109 1.213 . S
C436 C47 1.115 . S
C445 C123 1.266 . S
C447 C179 1.272 . S
C456 C187 1.125 . S
C458 C131 1.131 . S
C467 C151 1.203 . S
C469 C207 1.222 . S
C478 C215 1.160 . S
C480 C159 1.213 . S
C489 C103 1.139 . S
C491 C19 1.130 . S
C500 C39 1.231 . S
C502 C67 1.230 . S
C511 C53 1.242 . S
C513 C75 1.164 . S
C522 C11 1.209 . S
C524 C89 1.120 . S
C533 C137 1.272 . S
C535 C221 1.272 . S
C544 C173 1.118 . S
C546 C145 1.114 . S
C555 C165 1.228 . S
C557 C193 1.207 . S
C566 C201 1.208 . S
C568 C117 1.154 . S
