# Generated by pormake.
# Topology umg, (4)-cn, num edge types: 1
# Building blocks:
#     Node 0, Type 0, BuildingBlock: MUDLON_clean_sbu_0, # of connection points: 4
#     Node 1, Type 0, BuildingBlock: MUDLON_clean_sbu_0, # of connection points: 4
#     Node 2, Type 0, BuildingBlock: MUDLON_clean_sbu_0, # of connection points: 4
#     Node 3, Type 0, BuildingBlock: MUDLON_clean_sbu_0, # of connection points: 4
#     Node 4, Type 0, BuildingBlock: MUDLON_clean_sbu_0, # of connection points: 4
#     Node 5, Type 0, BuildingBlock: MUDLON_clean_sbu_0, # of connection points: 4
#     Node 6, Type 0, BuildingBlock: MUDLON_clean_sbu_0, # of connection points: 4
#     Node 7, Type 0, BuildingBlock: MUDLON_clean_sbu_0, # of connection points: 4
#     Node 8, Type 0, BuildingBlock: MUDLON_clean_sbu_0, # of connection points: 4
#     Node 9, Type 0, BuildingBlock: MUDLON_clean_sbu_0, # of connection points: 4
#     Node 10, Type 0, BuildingBlock: MUDLON_clean_sbu_0, # of connection points: 4
#     Node 11, Type 0, BuildingBlock: MUDLON_clean_sbu_0, # of connection points: 4
#     Edge 12, Type (0, 0), BuildingBlock: OJICUG_clean_linker_0, # of connection points: 2
#     Edge 13, Type (0, 0), BuildingBlock: OJICUG_clean_linker_0, # of connection points: 2
#     Edge 14, Type (0, 0), BuildingBlock: OJICUG_clean_linker_0, # of connection points: 2
#     Edge 15, Type (0, 0), BuildingBlock: OJICUG_clean_linker_0, # of connection points: 2
#     Edge 16, Type (0, 0), BuildingBlock: OJICUG_clean_linker_0, # of connection points: 2
#     Edge 17, Type (0, 0), BuildingBlock: OJICUG_clean_linker_0, # of connection points: 2
#     Edge 18, Type (0, 0), BuildingBlock: OJICUG_clean_linker_0, # of connection points: 2
#     Edge 19, Type (0, 0), BuildingBlock: OJICUG_clean_linker_0, # of connection points: 2
#     Edge 20, Type (0, 0), BuildingBlock: OJICUG_clean_linker_0, # of connection points: 2
#     Edge 21, Type (0, 0), BuildingBlock: OJICUG_clean_linker_0, # of connection points: 2
#     Edge 22, Type (0, 0), BuildingBlock: OJICUG_clean_linker_0, # of connection points: 2
#     Edge 23, Type (0, 0), BuildingBlock: OJICUG_clean_linker_0, # of connection points: 2
#     Edge 24, Type (0, 0), BuildingBlock: OJICUG_clean_linker_0, # of connection points: 2
#     Edge 25, Type (0, 0), BuildingBlock: OJICUG_clean_linker_0, # of connection points: 2
#     Edge 26, Type (0, 0), BuildingBlock: OJICUG_clean_linker_0, # of connection points: 2
#     Edge 27, Type (0, 0), BuildingBlock: OJICUG_clean_linker_0, # of connection points: 2
#     Edge 28, Type (0, 0), BuildingBlock: OJICUG_clean_linker_0, # of connection points: 2
#     Edge 29, Type (0, 0), BuildingBlock: OJICUG_clean_linker_0, # of connection points: 2
#     Edge 30, Type (0, 0), BuildingBlock: OJICUG_clean_linker_0, # of connection points: 2
#     Edge 31, Type (0, 0), BuildingBlock: OJICUG_clean_linker_0, # of connection points: 2
#     Edge 32, Type (0, 0), BuildingBlock: OJICUG_clean_linker_0, # of connection points: 2
#     Edge 33, Type (0, 0), BuildingBlock: OJICUG_clean_linker_0, # of connection points: 2
#     Edge 34, Type (0, 0), BuildingBlock: OJICUG_clean_linker_0, # of connection points: 2
#     Edge 35, Type (0, 0), BuildingBlock: OJICUG_clean_linker_0, # of connection points: 2
# Relax obj value: 0.016
# Max RMSD: 0.185
# Mean RMSD: 0.185
data_MOF--net-umg--node1-MUDLON_clean_sbu_0--edge1-OJICUG_clean_linker_0
_symmetry_space_group_name_H-M    P1
_symmetry_Int_Tables_number       1
_symmetry_cell_setting            triclinic
loop_
_symmetry_equiv_pos_as_xyz
'x, y, z'
_cell_length_a     21.769357
_cell_length_b     21.944932
_cell_length_c     65.512168
_cell_angle_alpha  89.693045
_cell_angle_beta   90.437372
_cell_angle_gamma 120.14373
loop_
_atom_site_label
_atom_site_type_symbol
_atom_site_fract_x
_atom_site_fract_y
_atom_site_fract_z
_atom_type_partial_charge
Mg0 Mg 0.31966 0.6194 0.10811 0.0
C1 C 0.41082 0.70589 0.07253 0.0
O2 O 0.46009 0.70198 0.0832 0.0
C3 C 0.40039 0.69323 0.14688 0.0
O4 O 0.45142 0.68664 0.13853 0.0
C5 C 0.38805 0.53518 0.09309 0.0
O6 O 0.35475 0.53324 0.07607 0.0
O7 O 0.37903 0.56334 0.10884 0.0
O8 O 0.34943 0.68168 0.08022 0.0
O9 O 0.20353 0.55524 0.10789 0.0
C10 C 0.17028 0.58827 0.10426 0.0
O11 O 0.20732 0.65593 0.10007 0.0
O12 O 0.34392 0.67588 0.13674 0.0
Mg13 Mg 0.72423 0.31747 0.43683 0.0
C14 C 0.72102 0.40278 0.4003 0.0
O15 O 0.77527 0.45408 0.40995 0.0
C16 C 0.73129 0.34131 0.48093 0.0
O17 O 0.77959 0.32335 0.4777 0.0
C18 C 0.87433 0.43508 0.44167 0.0
O19 O 0.83927 0.46393 0.44927 0.0
O20 O 0.83971 0.37172 0.43534 0.0
O21 O 0.68662 0.34284 0.4089 0.0
O22 O 0.67507 0.2032 0.43752 0.0
C23 C 0.60822 0.16827 0.4345 0.0
O24 O 0.5745 0.20282 0.43079 0.0
O25 O 0.69691 0.34561 0.46571 0.0
Mg26 Mg 0.43465 0.71987 0.77565 0.0
C27 C 0.36197 0.65224 0.73517 0.0
O28 O 0.38569 0.60925 0.73955 0.0
C29 C 0.41774 0.72939 0.81989 0.0
O30 O 0.48291 0.78059 0.8165 0.0
C31 C 0.46434 0.86611 0.77546 0.0
O32 O 0.39462 0.82853 0.77579 0.0
O33 O 0.49953 0.83408 0.77538 0.0
O34 O 0.36924 0.69793 0.74829 0.0
O35 O 0.49549 0.66557 0.77435 0.0
C36 C 0.4627 0.59972 0.77816 0.0
O37 O 0.39477 0.56826 0.7826 0.0
O38 O 0.38029 0.69276 0.80483 0.0
Mg39 Mg 0.7122 0.41537 0.10477 0.0
C40 C 0.72108 0.32784 0.06959 0.0
O41 O 0.77693 0.33571 0.07968 0.0
C42 C 0.68374 0.39563 0.14889 0.0
O43 O 0.69339 0.45891 0.14548 0.0
C44 C 0.5927 0.43954 0.09311 0.0
O45 O 0.57555 0.38089 0.08339 0.0
O46 O 0.65067 0.46974 0.10327 0.0
O47 O 0.68277 0.35001 0.07748 0.0
O48 O 0.82851 0.48107 0.1042 0.0
C49 C 0.86349 0.45382 0.11172 0.0
O50 O 0.82829 0.39134 0.12031 0.0
O51 O 0.686 0.36033 0.13384 0.0
Mg52 Mg 0.32967 0.71396 0.43794 0.0
C53 C 0.39801 0.70806 0.39797 0.0
O54 O 0.44404 0.77374 0.40265 0.0
C55 C 0.32204 0.68762 0.48228 0.0
O56 O 0.26866 0.69833 0.47887 0.0
C57 C 0.18077 0.59828 0.43579 0.0
O58 O 0.21685 0.56594 0.43265 0.0
O59 O 0.21468 0.66473 0.43839 0.0
O60 O 0.35025 0.67027 0.41082 0.0
O61 O 0.38373 0.82843 0.43544 0.0
C62 C 0.4489 0.86347 0.44068 0.0
O63 O 0.48015 0.82928 0.44746 0.0
O64 O 0.35934 0.68894 0.46721 0.0
Mg65 Mg 0.6336 0.31712 0.77415 0.0
C66 C 0.70324 0.38426 0.73343 0.0
O67 O 0.67935 0.42699 0.73774 0.0
C68 C 0.65563 0.3076 0.81819 0.0
O69 O 0.591 0.25478 0.81505 0.0
C70 C 0.60398 0.17085 0.77438 0.0
O71 O 0.67371 0.20844 0.77442 0.0
O72 O 0.56878 0.20287 0.77424 0.0
O73 O 0.69696 0.33882 0.74664 0.0
O74 O 0.57269 0.37144 0.7732 0.0
C75 C 0.60597 0.43729 0.77695 0.0
O76 O 0.67437 0.46867 0.78098 0.0
O77 O 0.6908 0.34516 0.80303 0.0
Mg78 Mg 0.43068 0.71717 0.60975 0.0
C79 C 0.36047 0.71373 0.65035 0.0
O80 O 0.38407 0.78026 0.64592 0.0
C81 C 0.41191 0.69093 0.5656 0.0
O82 O 0.47769 0.70617 0.56897 0.0
C83 C 0.46029 0.60051 0.60921 0.0
O84 O 0.39057 0.56871 0.60878 0.0
O85 O 0.49553 0.66757 0.60972 0.0
O86 O 0.36701 0.67487 0.63723 0.0
O87 O 0.49151 0.8321 0.61074 0.0
C88 C 0.45827 0.86488 0.60688 0.0
O89 O 0.38998 0.8282 0.6027 0.0
O90 O 0.37454 0.68924 0.58069 0.0
Mg91 Mg 0.73536 0.41283 0.94536 0.0
C92 C 0.731 0.32597 0.98249 0.0
O93 O 0.78819 0.33178 0.97403 0.0
C94 C 0.74377 0.39584 0.90126 0.0
O95 O 0.79261 0.46179 0.9046 0.0
C96 C 0.88602 0.446 0.9419 0.0
O97 O 0.85178 0.38202 0.93428 0.0
O98 O 0.85063 0.47449 0.94773 0.0
O99 O 0.6959 0.34924 0.97293 0.0
O100 O 0.68548 0.47738 0.94431 0.0
C101 C 0.6189 0.44556 0.94759 0.0
O102 O 0.58596 0.3778 0.95173 0.0
O103 O 0.70906 0.35769 0.91639 0.0
Mg104 Mg 0.32672 0.72466 0.27391 0.0
C105 C 0.33089 0.65184 0.31336 0.0
O106 O 0.26258 0.61291 0.3096 0.0
C107 C 0.40348 0.73639 0.23391 0.0
O108 O 0.45644 0.79181 0.24265 0.0
C109 C 0.4118 0.87235 0.29093 0.0
O110 O 0.3987 0.83569 0.30787 0.0
O111 O 0.3832 0.84008 0.27436 0.0
O112 O 0.37042 0.69668 0.30007 0.0
O113 O 0.21021 0.66981 0.27566 0.0
C114 C 0.17733 0.60394 0.27174 0.0
O115 O 0.21464 0.57386 0.26722 0.0
O116 O 0.3475 0.69739 0.24404 0.0
Mg117 Mg 0.62923 0.31794 0.60825 0.0
C118 C 0.70198 0.32227 0.64879 0.0
O119 O 0.67838 0.2557 0.64453 0.0
C120 C 0.64816 0.34708 0.56402 0.0
O121 O 0.58407 0.33656 0.56725 0.0
C122 C 0.59975 0.43475 0.60847 0.0
O123 O 0.66947 0.46659 0.60848 0.0
O124 O 0.5645 0.36767 0.60832 0.0
O125 O 0.69458 0.36079 0.63557 0.0
O126 O 0.56834 0.20304 0.6097 0.0
C127 C 0.60123 0.17003 0.60596 0.0
O128 O 0.66918 0.20645 0.60155 0.0
O129 O 0.68408 0.34494 0.57916 0.0
Mg130 Mg 0.34166 0.62359 0.9473 0.0
C131 C 0.42429 0.70378 0.98527 0.0
O132 O 0.4733 0.69315 0.97731 0.0
C133 C 0.33183 0.64351 0.90319 0.0
O134 O 0.27935 0.57918 0.9065 0.0
C135 C 0.19231 0.59079 0.94973 0.0
O136 O 0.22788 0.65906 0.95304 0.0
O137 O 0.22668 0.55868 0.94709 0.0
O138 O 0.36767 0.68585 0.97514 0.0
O139 O 0.39469 0.56182 0.94847 0.0
C140 C 0.45796 0.59004 0.9418 0.0
O141 O 0.48753 0.654 0.93413 0.0
O142 O 0.3695 0.67955 0.91831 0.0
Mg143 Mg 0.71944 0.31765 0.27601 0.0
C144 C 0.72478 0.40643 0.31299 0.0
O145 O 0.78322 0.45535 0.30438 0.0
C146 C 0.68958 0.30976 0.23203 0.0
O147 O 0.70185 0.25768 0.23528 0.0
C148 C 0.62714 0.16897 0.29238 0.0
O149 O 0.63628 0.20475 0.30924 0.0
O150 O 0.66016 0.20195 0.27636 0.0
O151 O 0.68655 0.34868 0.30362 0.0
O152 O 0.83602 0.36995 0.27626 0.0
C153 C 0.86946 0.43408 0.27037 0.0
O154 O 0.8327 0.46304 0.2639 0.0
O155 O 0.6911 0.34664 0.24718 0.0
C156 C 0.48589 0.73124 1.0193 0.0
C157 C 0.42759 0.72086 1.00729 0.0
H158 H 0.52685 0.73579 0.04939 0.0
C159 C 0.36857 0.71745 1.01702 0.0
H160 H 0.53251 0.73478 1.01231 0.0
C161 C 0.36526 0.71791 0.03833 0.0
C162 C 0.42099 0.72199 0.05037 0.0
H163 H 0.32296 0.71009 1.00825 0.0
H164 H 0.31724 0.71095 0.04534 0.0
C165 C 0.48267 0.73189 0.04061 0.0
C166 C 0.65927 0.35168 0.36698 0.0
C167 C 0.71083 0.40963 0.37816 0.0
H168 H 0.62232 0.30554 0.33752 0.0
C169 C 0.75901 0.47091 0.36753 0.0
H170 H 0.62086 0.30388 0.37468 0.0
C171 C 0.76001 0.4718 0.34619 0.0
C172 C 0.7127 0.41153 0.33502 0.0
H173 H 0.79899 0.51681 0.37565 0.0
H174 H 0.80069 0.51835 0.33851 0.0
C175 C 0.66011 0.35266 0.34563 0.0
C176 C 0.34008 0.71847 0.70745 0.0
C177 C 0.34357 0.65888 0.71373 0.0
H178 H 0.34199 0.78231 0.68237 0.0
C179 C 0.33976 0.61122 0.69883 0.0
H180 H 0.34232 0.75605 0.71852 0.0
C181 C 0.33916 0.62612 0.67807 0.0
C182 C 0.34289 0.68928 0.67178 0.0
H183 H 0.34153 0.56441 0.70315 0.0
H184 H 0.34067 0.5904 0.66701 0.0
C185 C 0.34001 0.73364 0.68669 0.0
C186 C 0.66057 0.31359 0.03579 0.0
C187 C 0.71274 0.30964 0.04758 0.0
H188 H 0.62472 0.32085 1.00586 0.0
C189 C 0.76308 0.29826 0.03763 0.0
H190 H 0.62046 0.32154 0.04296 0.0
C191 C 0.76546 0.29778 1.0163 0.0
C192 C 0.71761 0.30876 1.00451 0.0
H193 H 0.80356 0.29421 0.04624 0.0
H194 H 0.80772 0.29337 1.00913 0.0
C195 C 0.66301 0.31319 1.01447 0.0
C196 C 0.31298 0.60827 0.34941 0.0
C197 C 0.35733 0.65638 0.33454 0.0
H198 H 0.29178 0.58601 0.38122 0.0
C199 C 0.42202 0.71487 0.34078 0.0
H200 H 0.26319 0.56223 0.34511 0.0
C201 C 0.43826 0.72884 0.36155 0.0
C202 C 0.39042 0.68433 0.37647 0.0
H203 H 0.45774 0.75275 0.32972 0.0
H204 H 0.4861 0.77692 0.36587 0.0
C205 C 0.32948 0.62193 0.37016 0.0
C206 C 0.72491 0.31843 0.70591 0.0
C207 C 0.72088 0.37766 0.71204 0.0
H208 H 0.72281 0.25472 0.68098 0.0
C209 C 0.72354 0.42493 0.69702 0.0
H210 H 0.72358 0.28117 0.71706 0.0
C211 C 0.72356 0.40993 0.6763 0.0
C212 C 0.72035 0.34705 0.67017 0.0
H213 H 0.72134 0.47146 0.70122 0.0
H214 H 0.72115 0.4453 0.66515 0.0
C215 C 0.72437 0.30315 0.68518 0.0
C216 C 0.46807 0.75215 0.2009 0.0
C217 C 0.40402 0.72526 0.21169 0.0
H218 H 0.51731 0.76255 0.1718 0.0
C219 C 0.33946 0.69023 0.20088 0.0
H220 H 0.5186 0.7797 0.20885 0.0
C221 C 0.33877 0.68239 0.17976 0.0
C222 C 0.40259 0.70793 0.16896 0.0
H223 H 0.2892 0.66968 0.20871 0.0
H224 H 0.28795 0.65469 0.17196 0.0
C225 C 0.46734 0.74265 0.17973 0.0
C226 C 0.75537 0.34895 0.51852 0.0
C227 C 0.71411 0.35053 0.5021 0.0
H228 H 0.76745 0.34733 0.55096 0.0
C229 C 0.65435 0.35679 0.50626 0.0
H230 H 0.80209 0.34467 0.51584 0.0
C231 C 0.63445 0.35815 0.52642 0.0
C232 C 0.67408 0.35365 0.54284 0.0
H233 H 0.62162 0.35837 0.49397 0.0
H234 H 0.5869 0.36096 0.52911 0.0
C235 C 0.73568 0.35067 0.53868 0.0
C236 C 0.43394 0.75318 0.85747 0.0
C237 C 0.3918 0.71125 0.84113 0.0
H238 H 0.44795 0.76515 0.8899 0.0
C239 C 0.32717 0.64993 0.84543 0.0
H240 H 0.4839 0.80106 0.85469 0.0
C241 C 0.30667 0.62938 0.86563 0.0
C242 C 0.35023 0.66979 0.88198 0.0
H243 H 0.29338 0.6166 0.83322 0.0
H244 H 0.25742 0.58075 0.86841 0.0
C245 C 0.41333 0.73275 0.87768 0.0
C246 C 0.67657 0.41023 0.18654 0.0
C247 C 0.67773 0.36974 0.17012 0.0
H248 H 0.67896 0.42299 0.21899 0.0
C249 C 0.67755 0.30684 0.17429 0.0
H250 H 0.67634 0.45886 0.18386 0.0
C251 C 0.6791 0.28637 0.19444 0.0
C252 C 0.68072 0.32826 0.21087 0.0
H253 H 0.67827 0.27436 0.16201 0.0
H254 H 0.68074 0.23846 0.19711 0.0
C255 C 0.67797 0.38968 0.20671 0.0
C256 C 0.31992 0.67858 0.54005 0.0
C257 C 0.38507 0.68252 0.54437 0.0
H258 H 0.24882 0.67677 0.51705 0.0
C259 C 0.42684 0.68268 0.52805 0.0
H260 H 0.28643 0.67817 0.55226 0.0
C261 C 0.40529 0.68175 0.50784 0.0
C262 C 0.34161 0.68091 0.50352 0.0
H263 H 0.47719 0.68523 0.53084 0.0
H264 H 0.4396 0.68386 0.49563 0.0
C265 C 0.29849 0.67792 0.51984 0.0
C266 C 0.76618 0.41198 0.86366 0.0
C267 C 0.72565 0.36945 0.88007 0.0
H268 H 0.77636 0.42565 0.83123 0.0
C269 C 0.66541 0.30384 0.87588 0.0
H270 H 0.81323 0.46268 0.86637 0.0
C271 C 0.64425 0.28275 0.85572 0.0
C272 C 0.68305 0.32666 0.83932 0.0
H273 H 0.63322 0.26974 0.88815 0.0
H274 H 0.59633 0.23275 0.85302 0.0
C275 C 0.7452 0.39074 0.8435 0.0
C276 C 0.98195 0.5572 0.10182 0.0
C277 C 0.94203 0.48871 0.10977 0.0
H278 H 0.08496 0.64212 0.09383 0.0
C279 C 0.97779 0.45265 0.11554 0.0
H280 H 0.95622 0.5864 0.09716 0.0
C281 C 0.05156 0.48427 0.11346 0.0
C282 C 0.09158 0.553 0.1057 0.0
H283 H 0.94877 0.39963 0.12163 0.0
H284 H 0.07726 0.45508 0.11816 0.0
C285 C 0.05584 0.58905 0.09988 0.0
C286 C 0.49489 0.05253 0.4312 0.0
C287 C 0.56808 0.09019 0.43569 0.0
H288 H 0.39994 0.95175 0.4292 0.0
C289 C 0.60176 0.05254 0.44166 0.0
H290 H 0.46721 0.07982 0.42653 0.0
C291 C 0.56301 0.97901 0.44328 0.0
C292 C 0.48975 0.94139 0.43887 0.0
H293 H 0.65799 0.07987 0.44526 0.0
H294 H 0.59061 0.9517 0.448 0.0
C295 C 0.45622 0.97901 0.43273 0.0
C296 C 0.60839 0.55277 0.77675 0.0
C297 C 0.56906 0.47863 0.77677 0.0
H298 H 0.60585 0.64917 0.77696 0.0
C299 C 0.49456 0.4448 0.77691 0.0
H300 H 0.6659 0.58052 0.77656 0.0
C301 C 0.4602 0.48424 0.77736 0.0
C302 C 0.49953 0.55838 0.7774 0.0
H303 H 0.46272 0.38783 0.77696 0.0
H304 H 0.40269 0.45649 0.77763 0.0
C305 C 0.57401 0.5922 0.77692 0.0
C306 C 0.60386 0.0571 0.6068 0.0
C307 C 0.56445 0.09198 0.60669 0.0
H308 H 0.60147 0.95824 0.60718 0.0
C309 C 0.48996 0.05151 0.60701 0.0
H310 H 0.66138 0.08672 0.60664 0.0
C311 C 0.45567 0.97783 0.6071 0.0
C312 C 0.49507 0.94296 0.60715 0.0
H313 H 0.45807 0.07671 0.60691 0.0
H314 H 0.39814 0.94821 0.60717 0.0
C315 C 0.56957 0.98343 0.60717 0.0
C316 C 0.46683 0.48295 0.9502 0.0
C317 C 0.49901 0.55295 0.94327 0.0
H318 H 0.47934 0.39431 0.95697 0.0
C319 C 0.57132 0.58769 0.93794 0.0
H320 H 0.41131 0.45468 0.95444 0.0
C321 C 0.61054 0.55323 0.93951 0.0
C322 C 0.57824 0.48309 0.94632 0.0
H323 H 0.59788 0.64174 0.93261 0.0
H324 H 0.66605 0.58144 0.93525 0.0
C325 C 0.50594 0.44836 0.95165 0.0
C326 C 0.05646 0.59262 0.27106 0.0
C327 C 0.09854 0.56085 0.27219 0.0
H328 H 0.95143 0.57749 0.26936 0.0
C329 C 0.06456 0.48678 0.27318 0.0
H330 H 0.08087 0.64942 0.27023 0.0
C331 C 0.99026 0.44543 0.27295 0.0
C332 C 0.94823 0.47716 0.27134 0.0
H333 H 0.09541 0.46057 0.27415 0.0
H334 H 0.96582 0.38862 0.27367 0.0
C335 C 0.98223 0.55125 0.27046 0.0
C336 C 0.54406 0.51181 0.10832 0.0
C337 C 0.54244 0.46661 0.09294 0.0
H338 H 0.49557 0.56777 0.1207 0.0
C339 C 0.48947 0.444 0.07775 0.0
H340 H 0.58385 0.5297 0.12031 0.0
C341 C 0.43942 0.46614 0.07786 0.0
C342 C 0.44021 0.51043 0.09337 0.0
H343 H 0.48672 0.40916 0.06568 0.0
H344 H 0.39967 0.44801 0.06584 0.0
C345 C 0.49307 0.53302 0.10863 0.0
C346 C 0.99156 0.44519 0.43359 0.0
C347 C 0.9527 0.47677 0.44005 0.0
H348 H 0.09391 0.45878 0.4272 0.0
C349 C 0.98942 0.54903 0.44483 0.0
H350 H 0.96492 0.38971 0.42978 0.0
C351 C 0.06338 0.58882 0.44323 0.0
C352 C 0.10228 0.55709 0.43693 0.0
H353 H 0.96106 0.57509 0.44979 0.0
H354 H 0.09007 0.64426 0.4471 0.0
C355 C 0.06554 0.48487 0.43212 0.0
C356 C 0.60819 0.05881 0.77471 0.0
C357 C 0.568 0.09288 0.77464 0.0
H358 H 0.60725 0.96071 0.77503 0.0
C359 C 0.49358 0.05171 0.77487 0.0
H360 H 0.66569 0.08893 0.77455 0.0
C361 C 0.46013 0.97815 0.77515 0.0
C362 C 0.50032 0.94408 0.7752 0.0
H363 H 0.46107 0.07625 0.77484 0.0
H364 H 0.40263 0.94803 0.77531 0.0
C365 C 0.57474 0.98525 0.77499 0.0
C366 C 0.45598 0.48426 0.60861 0.0
C367 C 0.49622 0.55835 0.60901 0.0
H368 H 0.45685 0.38709 0.60812 0.0
C369 C 0.57065 0.59128 0.60921 0.0
H370 H 0.39848 0.45713 0.60844 0.0
C371 C 0.60406 0.55101 0.60901 0.0
C372 C 0.56382 0.47692 0.60863 0.0
H373 H 0.60319 0.64818 0.60951 0.0
H374 H 0.66156 0.57814 0.60918 0.0
C375 C 0.48939 0.44399 0.60842 0.0
C376 C 0.07575 0.48257 0.94178 0.0
C377 C 0.11382 0.5531 0.9482 0.0
H378 H 0.97417 0.39371 0.93463 0.0
C379 C 0.07628 0.58809 0.95267 0.0
H380 H 0.10305 0.45418 0.93816 0.0
C381 C 1.00232 0.55339 0.9507 0.0
C382 C 0.96432 0.48306 0.94409 0.0
H383 H 0.104 0.64246 0.95767 0.0
H384 H 0.97503 0.58185 0.95424 0.0
C385 C 1.00184 0.44801 0.93969 0.0
C386 C 0.49496 0.98557 0.27271 0.0
C387 C 0.46522 0.94881 0.29099 0.0
H388 H 0.5704 0.08354 0.25877 0.0
C389 C 0.49028 0.98482 0.30961 0.0
H390 H 0.47738 0.95924 0.25812 0.0
C391 C 0.54342 0.05578 0.30998 0.0
C392 C 0.57352 0.09259 0.29176 0.0
H393 H 0.46886 0.95815 0.32398 0.0
H394 H 0.56092 0.0818 0.32462 0.0
C395 C 0.5488 0.05662 0.2731 0.0
loop_
_geom_bond_atom_site_label_1
_geom_bond_atom_site_label_2
_geom_bond_distance
_geom_bond_site_symmetry_2
_ccdc_geom_bond_type
Mg0 O7 2.141 . S
Mg0 O8 2.048 . S
Mg0 O9 2.048 . S
Mg0 O12 2.141 . S
C1 O2 1.313 . S
C1 O8 1.195 . S
O2 C1 1.313 . S
C3 O4 1.245 . S
C3 O12 1.289 . S
O4 C3 1.245 . S
C5 O6 1.245 . S
C5 O7 1.289 . S
O6 C5 1.245 . S
O7 Mg0 2.141 . S
O7 C5 1.289 . S
O8 Mg0 2.048 . S
O8 C1 1.195 . S
O9 Mg0 2.048 . S
O9 C10 1.195 . S
C10 O9 1.195 . S
C10 O11 1.313 . S
O11 C10 1.313 . S
O12 Mg0 2.141 . S
O12 C3 1.289 . S
Mg13 O20 2.141 . S
Mg13 O21 2.048 . S
Mg13 O22 2.048 . S
Mg13 O25 2.141 . S
C14 O15 1.313 . S
C14 O21 1.195 . S
O15 C14 1.313 . S
C16 O17 1.245 . S
C16 O25 1.289 . S
O17 C16 1.245 . S
C18 O19 1.245 . S
C18 O20 1.289 . S
O19 C18 1.245 . S
O20 Mg13 2.141 . S
O20 C18 1.289 . S
O21 Mg13 2.048 . S
O21 C14 1.195 . S
O22 Mg13 2.048 . S
O22 C23 1.195 . S
C23 O22 1.195 . S
C23 O24 1.313 . S
O24 C23 1.313 . S
O25 Mg13 2.141 . S
O25 C16 1.289 . S
Mg26 O33 2.141 . S
Mg26 O34 2.048 . S
Mg26 O35 2.048 . S
Mg26 O38 2.141 . S
C27 O28 1.313 . S
C27 O34 1.195 . S
O28 C27 1.313 . S
C29 O30 1.245 . S
C29 O38 1.289 . S
O30 C29 1.245 . S
C31 O32 1.245 . S
C31 O33 1.289 . S
O32 C31 1.245 . S
O33 Mg26 2.141 . S
O33 C31 1.289 . S
O34 Mg26 2.048 . S
O34 C27 1.195 . S
O35 Mg26 2.048 . S
O35 C36 1.195 . S
C36 O35 1.195 . S
C36 O37 1.313 . S
O37 C36 1.313 . S
O38 Mg26 2.141 . S
O38 C29 1.289 . S
Mg39 O46 2.141 . S
Mg39 O47 2.048 . S
Mg39 O48 2.048 . S
Mg39 O51 2.141 . S
C40 O41 1.313 . S
C40 O47 1.195 . S
O41 C40 1.313 . S
C42 O43 1.245 . S
C42 O51 1.289 . S
O43 C42 1.245 . S
C44 O45 1.245 . S
C44 O46 1.289 . S
O45 C44 1.245 . S
O46 Mg39 2.141 . S
O46 C44 1.289 . S
O47 Mg39 2.048 . S
O47 C40 1.195 . S
O48 Mg39 2.048 . S
O48 C49 1.195 . S
C49 O48 1.195 . S
C49 O50 1.313 . S
O50 C49 1.313 . S
O51 Mg39 2.141 . S
O51 C42 1.289 . S
Mg52 O59 2.141 . S
Mg52 O60 2.048 . S
Mg52 O61 2.048 . S
Mg52 O64 2.141 . S
C53 O54 1.313 . S
C53 O60 1.195 . S
O54 C53 1.313 . S
C55 O56 1.245 . S
C55 O64 1.289 . S
O56 C55 1.245 . S
C57 O58 1.245 . S
C57 O59 1.289 . S
O58 C57 1.245 . S
O59 Mg52 2.141 . S
O59 C57 1.289 . S
O60 Mg52 2.048 . S
O60 C53 1.195 . S
O61 Mg52 2.048 . S
O61 C62 1.195 . S
C62 O61 1.195 . S
C62 O63 1.313 . S
O63 C62 1.313 . S
O64 Mg52 2.141 . S
O64 C55 1.289 . S
Mg65 O72 2.141 . S
Mg65 O73 2.048 . S
Mg65 O74 2.048 . S
Mg65 O77 2.141 . S
C66 O67 1.313 . S
C66 O73 1.195 . S
O67 C66 1.313 . S
C68 O69 1.245 . S
C68 O77 1.289 . S
O69 C68 1.245 . S
C70 O71 1.245 . S
C70 O72 1.289 . S
O71 C70 1.245 . S
O72 Mg65 2.141 . S
O72 C70 1.289 . S
O73 Mg65 2.048 . S
O73 C66 1.195 . S
O74 Mg65 2.048 . S
O74 C75 1.195 . S
C75 O74 1.195 . S
C75 O76 1.313 . S
O76 C75 1.313 . S
O77 Mg65 2.141 . S
O77 C68 1.289 . S
Mg78 O85 2.141 . S
Mg78 O86 2.048 . S
Mg78 O87 2.048 . S
Mg78 O90 2.141 . S
C79 O80 1.313 . S
C79 O86 1.195 . S
O80 C79 1.313 . S
C81 O82 1.245 . S
C81 O90 1.289 . S
O82 C81 1.245 . S
C83 O84 1.245 . S
C83 O85 1.289 . S
O84 C83 1.245 . S
O85 Mg78 2.141 . S
O85 C83 1.289 . S
O86 Mg78 2.048 . S
O86 C79 1.195 . S
O87 Mg78 2.048 . S
O87 C88 1.195 . S
C88 O87 1.195 . S
C88 O89 1.313 . S
O89 C88 1.313 . S
O90 Mg78 2.141 . S
O90 C81 1.289 . S
Mg91 O98 2.141 . S
Mg91 O99 2.048 . S
Mg91 O100 2.048 . S
Mg91 O103 2.141 . S
C92 O93 1.313 . S
C92 O99 1.195 . S
O93 C92 1.313 . S
C94 O95 1.245 . S
C94 O103 1.289 . S
O95 C94 1.245 . S
C96 O97 1.245 . S
C96 O98 1.289 . S
O97 C96 1.245 . S
O98 Mg91 2.141 . S
O98 C96 1.289 . S
O99 Mg91 2.048 . S
O99 C92 1.195 . S
O100 Mg91 2.048 . S
O100 C101 1.195 . S
C101 O100 1.195 . S
C101 O102 1.313 . S
O102 C101 1.313 . S
O103 Mg91 2.141 . S
O103 C94 1.289 . S
Mg104 O111 2.141 . S
Mg104 O112 2.048 . S
Mg104 O113 2.048 . S
Mg104 O116 2.141 . S
C105 O106 1.313 . S
C105 O112 1.195 . S
O106 C105 1.313 . S
C107 O108 1.245 . S
C107 O116 1.289 . S
O108 C107 1.245 . S
C109 O110 1.245 . S
C109 O111 1.289 . S
O110 C109 1.245 . S
O111 Mg104 2.141 . S
O111 C109 1.289 . S
O112 Mg104 2.048 . S
O112 C105 1.195 . S
O113 Mg104 2.048 . S
O113 C114 1.195 . S
C114 O113 1.195 . S
C114 O115 1.313 . S
O115 C114 1.313 . S
O116 Mg104 2.141 . S
O116 C107 1.289 . S
Mg117 O124 2.141 . S
Mg117 O125 2.048 . S
Mg117 O126 2.048 . S
Mg117 O129 2.141 . S
C118 O119 1.313 . S
C118 O125 1.195 . S
O119 C118 1.313 . S
C120 O121 1.245 . S
C120 O129 1.289 . S
O121 C120 1.245 . S
C122 O123 1.245 . S
C122 O124 1.289 . S
O123 C122 1.245 . S
O124 Mg117 2.141 . S
O124 C122 1.289 . S
O125 Mg117 2.048 . S
O125 C118 1.195 . S
O126 Mg117 2.048 . S
O126 C127 1.195 . S
C127 O126 1.195 . S
C127 O128 1.313 . S
O128 C127 1.313 . S
O129 Mg117 2.141 . S
O129 C120 1.289 . S
Mg130 O137 2.141 . S
Mg130 O138 2.048 . S
Mg130 O139 2.048 . S
Mg130 O142 2.141 . S
C131 O132 1.313 . S
C131 O138 1.195 . S
O132 C131 1.313 . S
C133 O134 1.245 . S
C133 O142 1.289 . S
O134 C133 1.245 . S
C135 O136 1.245 . S
C135 O137 1.289 . S
O136 C135 1.245 . S
O137 Mg130 2.141 . S
O137 C135 1.289 . S
O138 Mg130 2.048 . S
O138 C131 1.195 . S
O139 Mg130 2.048 . S
O139 C140 1.195 . S
C140 O139 1.195 . S
C140 O141 1.313 . S
O141 C140 1.313 . S
O142 Mg130 2.141 . S
O142 C133 1.289 . S
Mg143 O150 2.141 . S
Mg143 O151 2.048 . S
Mg143 O152 2.048 . S
Mg143 O155 2.141 . S
C144 O145 1.313 . S
C144 O151 1.195 . S
O145 C144 1.313 . S
C146 O147 1.245 . S
C146 O155 1.289 . S
O147 C146 1.245 . S
C148 O149 1.245 . S
C148 O150 1.289 . S
O149 C148 1.245 . S
O150 Mg143 2.141 . S
O150 C148 1.289 . S
O151 Mg143 2.048 . S
O151 C144 1.195 . S
O152 Mg143 2.048 . S
O152 C153 1.195 . S
C153 O152 1.195 . S
C153 O154 1.313 . S
O154 C153 1.313 . S
O155 Mg143 2.141 . S
O155 C146 1.289 . S
C156 C157 1.387 . S
C156 H160 0.950 . S
C156 C165 1.390 1_556 S
C157 C156 1.387 . S
C157 C159 1.387 . S
H158 C165 0.950 . S
C159 C157 1.387 . S
C159 C161 1.390 1_556 S
C159 H163 0.950 . S
H160 C156 0.950 . S
C161 C159 1.390 1_554 S
C161 C162 1.387 . S
C161 H164 0.950 . S
C162 C161 1.387 . S
C162 C165 1.387 . S
H163 C159 0.950 . S
H164 C161 0.950 . S
C165 C156 1.390 1_554 S
C165 H158 0.950 . S
C165 C162 1.387 . S
C166 C167 1.387 . S
C166 H170 0.950 . S
C166 C175 1.390 . S
C167 C166 1.387 . S
C167 C169 1.387 . S
H168 C175 0.950 . S
C169 C167 1.387 . S
C169 C171 1.390 . S
C169 H173 0.950 . S
H170 C166 0.950 . S
C171 C169 1.390 . S
C171 C172 1.387 . S
C171 H174 0.950 . S
C172 C171 1.387 . S
C172 C175 1.387 . S
H173 C169 0.950 . S
H174 C171 0.950 . S
C175 C166 1.390 . S
C175 H168 0.950 . S
C175 C172 1.387 . S
C176 C177 1.387 . S
C176 H180 0.950 . S
C176 C185 1.390 . S
C177 C176 1.387 . S
C177 C179 1.387 . S
H178 C185 0.950 . S
C179 C177 1.387 . S
C179 C181 1.390 . S
C179 H183 0.950 . S
H180 C176 0.950 . S
C181 C179 1.390 . S
C181 C182 1.387 . S
C181 H184 0.950 . S
C182 C181 1.387 . S
C182 C185 1.387 . S
H183 C179 0.950 . S
H184 C181 0.950 . S
C185 C176 1.390 . S
C185 H178 0.950 . S
C185 C182 1.387 . S
C186 C187 1.387 . S
C186 H190 0.950 . S
C186 C195 1.390 1_554 S
C187 C186 1.387 . S
C187 C189 1.387 . S
H188 C195 0.950 . S
C189 C187 1.387 . S
C189 C191 1.390 1_554 S
C189 H193 0.950 . S
H190 C186 0.950 . S
C191 C189 1.390 1_556 S
C191 C192 1.387 . S
C191 H194 0.950 . S
C192 C191 1.387 . S
C192 C195 1.387 . S
H193 C189 0.950 . S
H194 C191 0.950 . S
C195 C186 1.390 1_556 S
C195 H188 0.950 . S
C195 C192 1.387 . S
C196 C197 1.387 . S
C196 H200 0.950 . S
C196 C205 1.390 . S
C197 C196 1.387 . S
C197 C199 1.387 . S
H198 C205 0.950 . S
C199 C197 1.387 . S
C199 C201 1.390 . S
C199 H203 0.950 . S
H200 C196 0.950 . S
C201 C199 1.390 . S
C201 C202 1.387 . S
C201 H204 0.950 . S
C202 C201 1.387 . S
C202 C205 1.387 . S
H203 C199 0.950 . S
H204 C201 0.950 . S
C205 C196 1.390 . S
C205 H198 0.950 . S
C205 C202 1.387 . S
C206 C207 1.387 . S
C206 H210 0.950 . S
C206 C215 1.390 . S
C207 C206 1.387 . S
C207 C209 1.387 . S
H208 C215 0.950 . S
C209 C207 1.387 . S
C209 C211 1.390 . S
C209 H213 0.950 . S
H210 C206 0.950 . S
C211 C209 1.390 . S
C211 C212 1.387 . S
C211 H214 0.950 . S
C212 C211 1.387 . S
C212 C215 1.387 . S
H213 C209 0.950 . S
H214 C211 0.950 . S
C215 C206 1.390 . S
C215 H208 0.950 . S
C215 C212 1.387 . S
C216 C217 1.387 . S
C216 H220 0.950 . S
C216 C225 1.390 . S
C217 C216 1.387 . S
C217 C219 1.387 . S
H218 C225 0.950 . S
C219 C217 1.387 . S
C219 C221 1.390 . S
C219 H223 0.950 . S
H220 C216 0.950 . S
C221 C219 1.390 . S
C221 C222 1.387 . S
C221 H224 0.950 . S
C222 C221 1.387 . S
C222 C225 1.387 . S
H223 C219 0.950 . S
H224 C221 0.950 . S
C225 C216 1.390 . S
C225 H218 0.950 . S
C225 C222 1.387 . S
C226 C227 1.387 . S
C226 H230 0.950 . S
C226 C235 1.390 . S
C227 C226 1.387 . S
C227 C229 1.387 . S
H228 C235 0.950 . S
C229 C227 1.387 . S
C229 C231 1.390 . S
C229 H233 0.950 . S
H230 C226 0.950 . S
C231 C229 1.390 . S
C231 C232 1.387 . S
C231 H234 0.950 . S
C232 C231 1.387 . S
C232 C235 1.387 . S
H233 C229 0.950 . S
H234 C231 0.950 . S
C235 C226 1.390 . S
C235 H228 0.950 . S
C235 C232 1.387 . S
C236 C237 1.387 . S
C236 H240 0.950 . S
C236 C245 1.390 . S
C237 C236 1.387 . S
C237 C239 1.387 . S
H238 C245 0.950 . S
C239 C237 1.387 . S
C239 C241 1.390 . S
C239 H243 0.950 . S
H240 C236 0.950 . S
C241 C239 1.390 . S
C241 C242 1.387 . S
C241 H244 0.950 . S
C242 C241 1.387 . S
C242 C245 1.387 . S
H243 C239 0.950 . S
H244 C241 0.950 . S
C245 C236 1.390 . S
C245 H238 0.950 . S
C245 C242 1.387 . S
C246 C247 1.387 . S
C246 H250 0.950 . S
C246 C255 1.390 . S
C247 C246 1.387 . S
C247 C249 1.387 . S
H248 C255 0.950 . S
C249 C247 1.387 . S
C249 C251 1.390 . S
C249 H253 0.950 . S
H250 C246 0.950 . S
C251 C249 1.390 . S
C251 C252 1.387 . S
C251 H254 0.950 . S
C252 C251 1.387 . S
C252 C255 1.387 . S
H253 C249 0.950 . S
H254 C251 0.950 . S
C255 C246 1.390 . S
C255 H248 0.950 . S
C255 C252 1.387 . S
C256 C257 1.387 . S
C256 H260 0.950 . S
C256 C265 1.390 . S
C257 C256 1.387 . S
C257 C259 1.387 . S
H258 C265 0.950 . S
C259 C257 1.387 . S
C259 C261 1.390 . S
C259 H263 0.950 . S
H260 C256 0.950 . S
C261 C259 1.390 . S
C261 C262 1.387 . S
C261 H264 0.950 . S
C262 C261 1.387 . S
C262 C265 1.387 . S
H263 C259 0.950 . S
H264 C261 0.950 . S
C265 C256 1.390 . S
C265 H258 0.950 . S
C265 C262 1.387 . S
C266 C267 1.387 . S
C266 H270 0.950 . S
C266 C275 1.390 . S
C267 C266 1.387 . S
C267 C269 1.387 . S
H268 C275 0.950 . S
C269 C267 1.387 . S
C269 C271 1.390 . S
C269 H273 0.950 . S
H270 C266 0.950 . S
C271 C269 1.390 . S
C271 C272 1.387 . S
C271 H274 0.950 . S
C272 C271 1.387 . S
C272 C275 1.387 . S
H273 C269 0.950 . S
H274 C271 0.950 . S
C275 C266 1.390 . S
C275 H268 0.950 . S
C275 C272 1.387 . S
C276 C277 1.387 . S
C276 H280 0.950 . S
C276 C285 1.390 1_655 S
C277 C276 1.387 . S
C277 C279 1.387 . S
H278 C285 0.950 . S
C279 C277 1.387 . S
C279 C281 1.390 1_655 S
C279 H283 0.950 . S
H280 C276 0.950 . S
C281 C279 1.390 1_455 S
C281 C282 1.387 . S
C281 H284 0.950 . S
C282 C281 1.387 . S
C282 C285 1.387 . S
H283 C279 0.950 . S
H284 C281 0.950 . S
C285 C276 1.390 1_455 S
C285 H278 0.950 . S
C285 C282 1.387 . S
C286 C287 1.387 . S
C286 H290 0.950 . S
C286 C295 1.390 1_545 S
C287 C286 1.387 . S
C287 C289 1.387 . S
H288 C295 0.950 . S
C289 C287 1.387 . S
C289 C291 1.390 1_545 S
C289 H293 0.950 . S
H290 C286 0.950 . S
C291 C289 1.390 1_565 S
C291 C292 1.387 . S
C291 H294 0.950 . S
C292 C291 1.387 . S
C292 C295 1.387 . S
H293 C289 0.950 . S
H294 C291 0.950 . S
C295 C286 1.390 1_565 S
C295 H288 0.950 . S
C295 C292 1.387 . S
C296 C297 1.387 . S
C296 H300 0.950 . S
C296 C305 1.390 . S
C297 C296 1.387 . S
C297 C299 1.387 . S
H298 C305 0.950 . S
C299 C297 1.387 . S
C299 C301 1.390 . S
C299 H303 0.950 . S
H300 C296 0.950 . S
C301 C299 1.390 . S
C301 C302 1.387 . S
C301 H304 0.950 . S
C302 C301 1.387 . S
C302 C305 1.387 . S
H303 C299 0.950 . S
H304 C301 0.950 . S
C305 C296 1.390 . S
C305 H298 0.950 . S
C305 C302 1.387 . S
C306 C307 1.387 . S
C306 H310 0.950 . S
C306 C315 1.390 1_545 S
C307 C306 1.387 . S
C307 C309 1.387 . S
H308 C315 0.950 . S
C309 C307 1.387 . S
C309 C311 1.390 1_545 S
C309 H313 0.950 . S
H310 C306 0.950 . S
C311 C309 1.390 1_565 S
C311 C312 1.387 . S
C311 H314 0.950 . S
C312 C311 1.387 . S
C312 C315 1.387 . S
H313 C309 0.950 . S
H314 C311 0.950 . S
C315 C306 1.390 1_565 S
C315 H308 0.950 . S
C315 C312 1.387 . S
C316 C317 1.387 . S
C316 H320 0.950 . S
C316 C325 1.390 . S
C317 C316 1.387 . S
C317 C319 1.387 . S
H318 C325 0.950 . S
C319 C317 1.387 . S
C319 C321 1.390 . S
C319 H323 0.950 . S
H320 C316 0.950 . S
C321 C319 1.390 . S
C321 C322 1.387 . S
C321 H324 0.950 . S
C322 C321 1.387 . S
C322 C325 1.387 . S
H323 C319 0.950 . S
H324 C321 0.950 . S
C325 C316 1.390 . S
C325 H318 0.950 . S
C325 C322 1.387 . S
C326 C327 1.387 . S
C326 H330 0.950 . S
C326 C335 1.390 1_455 S
C327 C326 1.387 . S
C327 C329 1.387 . S
H328 C335 0.950 . S
C329 C327 1.387 . S
C329 C331 1.390 1_455 S
C329 H333 0.950 . S
H330 C326 0.950 . S
C331 C329 1.390 1_655 S
C331 C332 1.387 . S
C331 H334 0.950 . S
C332 C331 1.387 . S
C332 C335 1.387 . S
H333 C329 0.950 . S
H334 C331 0.950 . S
C335 C326 1.390 1_655 S
C335 H328 0.950 . S
C335 C332 1.387 . S
C336 C337 1.387 . S
C336 H340 0.950 . S
C336 C345 1.390 . S
C337 C336 1.387 . S
C337 C339 1.387 . S
H338 C345 0.950 . S
C339 C337 1.387 . S
C339 C341 1.390 . S
C339 H343 0.950 . S
H340 C336 0.950 . S
C341 C339 1.390 . S
C341 C342 1.387 . S
C341 H344 0.950 . S
C342 C341 1.387 . S
C342 C345 1.387 . S
H343 C339 0.950 . S
H344 C341 0.950 . S
C345 C336 1.390 . S
C345 H338 0.950 . S
C345 C342 1.387 . S
C346 C347 1.387 . S
C346 H350 0.950 . S
C346 C355 1.390 1_655 S
C347 C346 1.387 . S
C347 C349 1.387 . S
H348 C355 0.950 . S
C349 C347 1.387 . S
C349 C351 1.390 1_655 S
C349 H353 0.950 . S
H350 C346 0.950 . S
C351 C349 1.390 1_455 S
C351 C352 1.387 . S
C351 H354 0.950 . S
C352 C351 1.387 . S
C352 C355 1.387 . S
H353 C349 0.950 . S
H354 C351 0.950 . S
C355 C346 1.390 1_455 S
C355 H348 0.950 . S
C355 C352 1.387 . S
C356 C357 1.387 . S
C356 H360 0.950 . S
C356 C365 1.390 1_545 S
C357 C356 1.387 . S
C357 C359 1.387 . S
H358 C365 0.950 . S
C359 C357 1.387 . S
C359 C361 1.390 1_545 S
C359 H363 0.950 . S
H360 C356 0.950 . S
C361 C359 1.390 1_565 S
C361 C362 1.387 . S
C361 H364 0.950 . S
C362 C361 1.387 . S
C362 C365 1.387 . S
H363 C359 0.950 . S
H364 C361 0.950 . S
C365 C356 1.390 1_565 S
C365 H358 0.950 . S
C365 C362 1.387 . S
C366 C367 1.387 . S
C366 H370 0.950 . S
C366 C375 1.390 . S
C367 C366 1.387 . S
C367 C369 1.387 . S
H368 C375 0.950 . S
C369 C367 1.387 . S
C369 C371 1.390 . S
C369 H373 0.950 . S
H370 C366 0.950 . S
C371 C369 1.390 . S
C371 C372 1.387 . S
C371 H374 0.950 . S
C372 C371 1.387 . S
C372 C375 1.387 . S
H373 C369 0.950 . S
H374 C371 0.950 . S
C375 C366 1.390 . S
C375 H368 0.950 . S
C375 C372 1.387 . S
C376 C377 1.387 . S
C376 H380 0.950 . S
C376 C385 1.390 1_455 S
C377 C376 1.387 . S
C377 C379 1.387 . S
H378 C385 0.950 . S
C379 C377 1.387 . S
C379 C381 1.390 1_455 S
C379 H383 0.950 . S
H380 C376 0.950 . S
C381 C379 1.390 1_655 S
C381 C382 1.387 . S
C381 H384 0.950 . S
C382 C381 1.387 . S
C382 C385 1.387 . S
H383 C379 0.950 . S
H384 C381 0.950 . S
C385 C376 1.390 1_655 S
C385 H378 0.950 . S
C385 C382 1.387 . S
C386 C387 1.387 . S
C386 H390 0.950 . S
C386 C395 1.390 1_565 S
C387 C386 1.387 . S
C387 C389 1.387 . S
H388 C395 0.950 . S
C389 C387 1.387 . S
C389 C391 1.390 1_565 S
C389 H393 0.950 . S
H390 C386 0.950 . S
C391 C389 1.390 1_545 S
C391 C392 1.387 . S
C391 H394 0.950 . S
C392 C391 1.387 . S
C392 C395 1.387 . S
H393 C389 0.950 . S
H394 C391 0.950 . S
C395 C386 1.390 1_545 S
C395 H388 0.950 . S
C395 C392 1.387 . S
C157 C131 1.536 . S
C162 C1 1.536 . S
C167 C14 1.538 . S
C172 C144 1.536 . S
C177 C27 1.536 . S
C182 C79 1.538 . S
C187 C40 1.537 . S
C192 C92 1.537 . S
C197 C105 1.538 . S
C202 C53 1.536 . S
C207 C66 1.536 . S
C212 C118 1.538 . S
C217 C107 1.556 . S
C222 C3 1.556 . S
C227 C16 1.553 . S
C232 C120 1.553 . S
C237 C29 1.553 . S
C242 C133 1.554 . S
C247 C42 1.556 . S
C252 C146 1.556 . S
C257 C81 1.553 . S
C262 C55 1.553 . S
C267 C94 1.553 . S
C272 C68 1.553 . S
C277 C49 1.799 . S
C282 C10 1.799 . S
C287 C23 1.798 . S
C292 C62 1.798 . S
C297 C75 1.796 . S
C302 C36 1.796 . S
C307 C127 1.799 . S
C312 C88 1.799 . S
C317 C140 1.798 . S
C322 C101 1.798 . S
C327 C114 1.798 . S
C332 C153 1.798 . S
C337 C44 1.864 . S
C342 C5 1.864 . S
C347 C18 1.864 . S
C352 C57 1.864 . S
C357 C70 1.862 . S
C362 C31 1.862 . S
C367 C83 1.864 . S
C372 C122 1.864 . S
C377 C135 1.864 . S
C382 C96 1.864 . S
C387 C109 1.864 . S
C392 C148 1.864 . S
