# Generated by pormake.
# Topology unm, (4)-cn, num edge types: 1
# Building blocks:
#     Node 0, Type 0, BuildingBlock: KUFVIS_clean_sbu_0, # of connection points: 4
#     Node 1, Type 0, BuildingBlock: KUFVIS_clean_sbu_0, # of connection points: 4
#     Node 2, Type 0, BuildingBlock: KUFVIS_clean_sbu_0, # of connection points: 4
#     Node 3, Type 0, BuildingBlock: KUFVIS_clean_sbu_0, # of connection points: 4
#     Node 4, Type 0, BuildingBlock: KUFVIS_clean_sbu_0, # of connection points: 4
#     Node 5, Type 0, BuildingBlock: KUFVIS_clean_sbu_0, # of connection points: 4
#     Node 6, Type 0, BuildingBlock: KUFVIS_clean_sbu_0, # of connection points: 4
#     Node 7, Type 0, BuildingBlock: KUFVIS_clean_sbu_0, # of connection points: 4
#     Edge 8, Type (0, 0), BuildingBlock: FUNLAD_clean_linker_0, # of connection points: 2
#     Edge 9, Type (0, 0), BuildingBlock: FUNLAD_clean_linker_0, # of connection points: 2
#     Edge 10, Type (0, 0), BuildingBlock: FUNLAD_clean_linker_0, # of connection points: 2
#     Edge 11, Type (0, 0), BuildingBlock: FUNLAD_clean_linker_0, # of connection points: 2
#     Edge 12, Type (0, 0), BuildingBlock: FUNLAD_clean_linker_0, # of connection points: 2
#     Edge 13, Type (0, 0), BuildingBlock: FUNLAD_clean_linker_0, # of connection points: 2
#     Edge 14, Type (0, 0), BuildingBlock: FUNLAD_clean_linker_0, # of connection points: 2
#     Edge 15, Type (0, 0), BuildingBlock: FUNLAD_clean_linker_0, # of connection points: 2
#     Edge 16, Type (0, 0), BuildingBlock: FUNLAD_clean_linker_0, # of connection points: 2
#     Edge 17, Type (0, 0), BuildingBlock: FUNLAD_clean_linker_0, # of connection points: 2
#     Edge 18, Type (0, 0), BuildingBlock: FUNLAD_clean_linker_0, # of connection points: 2
#     Edge 19, Type (0, 0), BuildingBlock: FUNLAD_clean_linker_0, # of connection points: 2
#     Edge 20, Type (0, 0), BuildingBlock: FUNLAD_clean_linker_0, # of connection points: 2
#     Edge 21, Type (0, 0), BuildingBlock: FUNLAD_clean_linker_0, # of connection points: 2
#     Edge 22, Type (0, 0), BuildingBlock: FUNLAD_clean_linker_0, # of connection points: 2
#     Edge 23, Type (0, 0), BuildingBlock: FUNLAD_clean_linker_0, # of connection points: 2
# Relax obj value: 0.142
# Max RMSD: 0.133
# Mean RMSD: 0.133
data_MOF--net-unm--node1-KUFVIS_clean_sbu_0--edge1-FUNLAD_clean_linker_0
_symmetry_space_group_name_H-M    P1
_symmetry_Int_Tables_number       1
_symmetry_cell_setting            triclinic
loop_
_symmetry_equiv_pos_as_xyz
'x, y, z'
_cell_length_a     29.372419
_cell_length_b     29.364014
_cell_length_c     51.795022
_cell_angle_alpha  89.936981
_cell_angle_beta   90.027269
_cell_angle_gamma 90.131961
loop_
_atom_site_label
_atom_site_type_symbol
_atom_site_fract_x
_atom_site_fract_y
_atom_site_fract_z
_atom_type_partial_charge
Mn0 Mn 0.17819 0.28357 0.16967 0.0
Mn1 Mn 0.24144 0.36959 0.14524 0.0
C2 C 0.14356 0.34631 0.15149 0.0
C3 C 0.13715 0.25203 0.20416 0.0
C4 C 0.22351 0.28166 0.11621 0.0
O5 O 0.24107 0.27129 0.18551 0.0
O6 O 0.27924 0.3305 0.16803 0.0
C7 C 0.25812 0.41898 0.19416 0.0
N8 N 0.24194 0.41858 0.16951 0.0
C9 C 0.21855 0.49687 0.17266 0.0
C10 C 0.23527 0.49821 0.19801 0.0
C11 C 0.25508 0.45906 0.20881 0.0
C12 C 0.22277 0.45604 0.15894 0.0
H13 H 0.27312 0.3889 0.2026 0.0
C14 C 0.27739 0.29483 0.18227 0.0
O15 O 0.1498 0.22713 0.1847 0.0
O16 O 0.15134 0.29376 0.20442 0.0
N17 N 0.20923 0.41049 0.123 0.0
C18 C 0.19359 0.40317 0.09857 0.0
C19 C 0.17207 0.43874 0.08519 0.0
C20 C 0.16719 0.48152 0.09696 0.0
C21 C 0.18428 0.48847 0.12193 0.0
C22 C 0.20579 0.45186 0.13423 0.0
H23 H 0.19713 0.37034 0.08943 0.0
O24 O 0.12174 0.30816 0.15365 0.0
O25 O 0.18491 0.34702 0.16045 0.0
O26 O 0.19977 0.26187 0.1337 0.0
O27 O 0.241 0.32125 0.119 0.0
C28 C 0.18017 0.53005 0.13526 0.0
C29 C 0.19723 0.53423 0.16062 0.0
H30 H 0.23276 0.52898 0.20943 0.0
H31 H 0.26784 0.45976 0.22841 0.0
H32 H 0.15906 0.43314 0.0659 0.0
H33 H 0.15015 0.50874 0.08668 0.0
H34 H 0.16353 0.5589 0.12629 0.0
H35 H 0.19345 0.56624 0.17076 0.0
Mn36 Mn 0.21246 0.67583 0.67208 0.0
Mn37 Mn 0.12082 0.72737 0.6459 0.0
C38 C 0.15719 0.63291 0.65177 0.0
C39 C 0.24552 0.63845 0.70726 0.0
C40 C 0.21366 0.72506 0.6201 0.0
O41 O 0.21493 0.7397 0.68822 0.0
O42 O 0.14994 0.76835 0.67169 0.0
C43 C 0.06199 0.73109 0.69223 0.0
N44 N 0.06871 0.71789 0.66733 0.0
C45 C 0.99422 0.68376 0.66529 0.0
C46 C 0.98635 0.69735 0.69084 0.0
C47 C 0.02042 0.72106 0.70437 0.0
C48 C 0.03612 0.69516 0.6541 0.0
H49 H 0.08821 0.74903 0.70276 0.0
C50 C 0.1853 0.77146 0.68613 0.0
O51 O 0.27053 0.65498 0.68875 0.0
O52 O 0.20242 0.64716 0.70634 0.0
N53 N 0.08922 0.69128 0.62085 0.0
C54 C 0.10344 0.67778 0.59701 0.0
C55 C 0.07407 0.65201 0.58136 0.0
C56 C 0.03034 0.64064 0.59029 0.0
C57 C 0.01631 0.6553 0.61477 0.0
C58 C 0.04692 0.68121 0.62944 0.0
H59 H 0.13708 0.68621 0.59009 0.0
O60 O 0.19771 0.61687 0.65522 0.0
O61 O 0.14967 0.67354 0.66086 0.0
O62 O 0.23431 0.70094 0.637 0.0
O63 O 0.17228 0.73785 0.62223 0.0
C64 C 0.9736 0.6442 0.62547 0.0
C65 C 0.96257 0.65841 0.65071 0.0
H66 H 0.95449 0.68933 0.70036 0.0
H67 H 0.01471 0.7314 0.72416 0.0
H68 H 0.08519 0.64073 0.56251 0.0
H69 H 0.00798 0.62032 0.57827 0.0
H70 H 0.94928 0.62409 0.61461 0.0
H71 H 0.92991 0.64905 0.65886 0.0
Mn72 Mn 0.83384 0.72279 0.17493 0.0
Mn73 Mn 0.77877 0.62935 0.15344 0.0
C74 C 0.87405 0.66185 0.15859 0.0
C75 C 0.87306 0.75981 0.20834 0.0
C76 C 0.78567 0.7172 0.12261 0.0
O77 O 0.77005 0.73027 0.19066 0.0
O78 O 0.73827 0.66478 0.17658 0.0
C79 C 0.77013 0.57974 0.20298 0.0
N80 N 0.78517 0.58136 0.17813 0.0
C81 C 0.818 0.50659 0.18167 0.0
C82 C 0.80259 0.50401 0.20725 0.0
C83 C 0.77859 0.54076 0.21795 0.0
C84 C 0.80819 0.54613 0.16761 0.0
H85 H 0.75195 0.60803 0.21134 0.0
C86 C 0.73665 0.70212 0.18937 0.0
O87 O 0.85735 0.78248 0.18867 0.0
O88 O 0.86211 0.7172 0.20958 0.0
N89 N 0.81474 0.59197 0.13112 0.0
C90 C 0.82936 0.60087 0.10665 0.0
C91 C 0.85508 0.56806 0.09345 0.0
C92 C 0.86537 0.52644 0.10548 0.0
C93 C 0.84959 0.51789 0.13057 0.0
C94 C 0.8237 0.55168 0.14268 0.0
H95 H 0.82181 0.63291 0.09736 0.0
O96 O 0.89228 0.70199 0.15926 0.0
O97 O 0.83287 0.65863 0.16749 0.0
O98 O 0.80978 0.73981 0.13873 0.0
O99 O 0.77168 0.67657 0.12667 0.0
C100 C 0.85932 0.47755 0.14423 0.0
C101 C 0.84354 0.4719 0.16976 0.0
H102 H 0.80936 0.47415 0.21893 0.0
H103 H 0.7668 0.53911 0.23772 0.0
H104 H 0.8672 0.57495 0.07411 0.0
H105 H 0.88566 0.50143 0.09534 0.0
H106 H 0.87941 0.45089 0.1354 0.0
H107 H 0.85172 0.44098 0.18017 0.0
Mn108 Mn 0.7872 0.32908 0.67191 0.0
Mn109 Mn 0.86868 0.26789 0.64185 0.0
C110 C 0.84488 0.36569 0.65011 0.0
C111 C 0.76055 0.36951 0.70774 0.0
C112 C 0.77597 0.28537 0.61847 0.0
O113 O 0.77941 0.26587 0.68815 0.0
O114 O 0.83476 0.22864 0.66674 0.0
C115 C 0.92758 0.25056 0.68722 0.0
N116 N 0.92215 0.26745 0.66291 0.0
C117 C 1.00049 0.2915 0.66125 0.0
C118 C 0.00699 0.27406 0.68619 0.0
C119 C 0.97036 0.25355 0.69923 0.0
C120 C 0.95721 0.28714 0.65016 0.0
H121 H 0.89948 0.23503 0.6974 0.0
C122 C 0.80242 0.22989 0.68335 0.0
O123 O 0.73281 0.35485 0.69001 0.0
O124 O 0.80261 0.35681 0.70583 0.0
N125 N 0.9046 0.30152 0.61756 0.0
C126 C 0.89205 0.31895 0.59421 0.0
C127 C 0.9244 0.34198 0.57908 0.0
C128 C 0.96935 0.34657 0.58799 0.0
C129 C 0.9816 0.32786 0.61191 0.0
C130 C 0.94798 0.30496 0.62607 0.0
H131 H 0.85751 0.31577 0.58731 0.0
O132 O 0.80677 0.38613 0.65478 0.0
O133 O 0.84876 0.32418 0.6588 0.0
O134 O 0.75952 0.30803 0.63733 0.0
O135 O 0.81573 0.26792 0.61849 0.0
C136 C 0.02557 0.33204 0.62254 0.0
C137 C 0.035 0.31387 0.64719 0.0
H138 H 0.03983 0.27661 0.69561 0.0
H139 H 0.97504 0.24023 0.71854 0.0
H140 H 0.91465 0.35638 0.56065 0.0
H141 H 0.99408 0.36479 0.57638 0.0
H142 H 0.05221 0.34972 0.61208 0.0
H143 H 0.06879 0.3178 0.6553 0.0
Mn144 Mn 0.67861 0.21446 0.33614 0.0
Mn145 Mn 0.73976 0.13462 0.36782 0.0
C146 C 0.64193 0.15745 0.35845 0.0
C147 C 0.63954 0.2391 0.29936 0.0
C148 C 0.72102 0.22823 0.38972 0.0
O149 O 0.74229 0.22246 0.32059 0.0
O150 O 0.77905 0.16727 0.34248 0.0
C151 C 0.75764 0.07336 0.32361 0.0
N152 N 0.74055 0.08003 0.34775 0.0
C153 C 0.71686 1.00169 0.35078 0.0
C154 C 0.73452 0.99391 0.32603 0.0
C155 C 0.75494 0.02992 0.31238 0.0
C156 C 0.72091 0.04559 0.36107 0.0
H157 H 0.77312 0.10097 0.31296 0.0
C158 C 0.77808 0.19928 0.32562 0.0
O159 O 0.65243 0.2677 0.31708 0.0
O160 O 0.65289 0.19735 0.30194 0.0
N161 N 0.70608 0.09989 0.39265 0.0
C162 C 0.68862 0.11358 0.41575 0.0
C163 C 0.66573 0.08192 0.43143 0.0
C164 C 0.66137 0.03649 0.42333 0.0
C165 C 0.68018 0.02306 0.39966 0.0
C166 C 0.70292 0.05604 0.38493 0.0
H167 H 0.69165 0.14848 0.42205 0.0
O168 O 0.62117 0.19496 0.35276 0.0
O169 O 0.68369 0.15348 0.35023 0.0
O170 O 0.698 0.24356 0.37065 0.0
O171 O 0.73932 0.18885 0.39019 0.0
C172 C 0.6763 0.9785 0.38984 0.0
C173 C 0.69462 0.96782 0.36541 0.0
H174 H 0.7322 0.96054 0.31722 0.0
H175 H 0.76842 0.02425 0.29321 0.0
H176 H 0.65128 0.09257 0.44966 0.0
H177 H 0.64327 0.01229 0.43535 0.0
H178 H 0.65876 0.95233 0.40075 0.0
H179 H 0.69094 0.93358 0.35793 0.0
Mn180 Mn 0.30027 0.17768 0.83581 0.0
Mn181 Mn 0.38205 0.24218 0.86376 0.0
C182 C 0.35973 0.14376 0.85765 0.0
C183 C 0.27371 0.13422 0.80089 0.0
C184 C 0.28923 0.22661 0.88771 0.0
O185 O 0.29107 0.23994 0.81834 0.0
O186 O 0.34782 0.27859 0.83797 0.0
C187 C 0.44095 0.25615 0.81806 0.0
N188 N 0.43559 0.2415 0.84283 0.0
C189 C 0.51447 0.2201 0.84564 0.0
C190 C 0.52092 0.23526 0.82022 0.0
C191 C 0.48397 0.25329 0.80636 0.0
C192 C 0.47092 0.22418 0.85636 0.0
H193 H 0.4126 0.26986 0.80731 0.0
C194 C 0.3145 0.27626 0.82204 0.0
O195 O 0.24606 0.14903 0.81857 0.0
O196 O 0.31546 0.14824 0.80231 0.0
N197 N 0.41807 0.21112 0.88901 0.0
C198 C 0.40544 0.19533 0.91271 0.0
C199 C 0.43806 0.17466 0.92868 0.0
C200 C 0.48332 0.17078 0.92023 0.0
C201 C 0.49559 0.18775 0.89589 0.0
C202 C 0.46169 0.2083 0.88088 0.0
H203 H 0.37067 0.19809 0.91927 0.0
O204 O 0.32185 0.12209 0.854 0.0
O205 O 0.36209 0.18477 0.84821 0.0
O206 O 0.27277 0.20105 0.87002 0.0
O207 O 0.32903 0.24405 0.88687 0.0
C208 C 0.53988 0.18408 0.88567 0.0
C209 C 0.54931 0.20022 0.86057 0.0
H210 H 0.55397 0.2328 0.81106 0.0
H211 H 0.48862 0.26483 0.78669 0.0
H212 H 0.4283 0.16159 0.94743 0.0
H213 H 0.50827 0.15441 0.93251 0.0
H214 H 0.56678 0.16827 0.89681 0.0
H215 H 0.58333 0.19661 0.85279 0.0
Mn216 Mn 0.3324 0.79328 0.33941 0.0
Mn217 Mn 0.27887 0.8836 0.36563 0.0
C218 C 0.37383 0.84857 0.36048 0.0
C219 C 0.37175 0.76146 0.30453 0.0
C220 C 0.28356 0.79098 0.39166 0.0
O221 O 0.26947 0.79024 0.3225 0.0
O222 O 0.23806 0.85266 0.34034 0.0
C223 C 0.27246 0.94095 0.31873 0.0
N224 N 0.28641 0.93534 0.3436 0.0
C225 C 0.31881 0.01067 0.34458 0.0
C226 C 0.30448 0.01738 0.31903 0.0
C227 C 0.28125 0.98234 0.30605 0.0
C228 C 0.30867 0.96888 0.35631 0.0
H229 H 0.25486 0.91402 0.30861 0.0
C230 C 0.23636 0.81807 0.32526 0.0
O231 O 0.35432 0.73578 0.32249 0.0
O232 O 0.36244 0.80442 0.30571 0.0
N233 N 0.31432 0.91708 0.39019 0.0
C234 C 0.32823 0.90418 0.41422 0.0
C235 C 0.35339 0.93477 0.42943 0.0
C236 C 0.36367 0.97839 0.41989 0.0
C237 C 0.34849 0.99111 0.39525 0.0
C238 C 0.32323 0.9593 0.38104 0.0
H239 H 0.32063 0.87063 0.42162 0.0
O240 O 0.39041 0.80825 0.35708 0.0
O241 O 0.33349 0.85595 0.35089 0.0
O242 O 0.30632 0.77042 0.37413 0.0
O243 O 0.27087 0.83247 0.38981 0.0
C244 C 0.35843 0.03367 0.38398 0.0
C245 C 0.34361 0.04344 0.35866 0.0
H246 H 0.31152 0.04912 0.30911 0.0
H247 H 0.27031 0.98717 0.28628 0.0
H248 H 0.36502 0.92468 0.44841 0.0
H249 H 0.38352 1.00171 0.43156 0.0
H250 H 0.37805 0.05887 0.39446 0.0
H251 H 0.352 0.07605 0.35007 0.0
Mn252 Mn 0.71347 0.83003 0.83962 0.0
Mn253 Mn 0.62841 0.76708 0.86549 0.0
C254 C 0.65176 0.86526 0.85856 0.0
C255 C 0.74384 0.87065 0.8046 0.0
C256 C 0.71832 0.78424 0.89283 0.0
O257 O 0.72502 0.76673 0.82408 0.0
O258 O 0.66521 0.72957 0.84147 0.0
C259 C 0.57469 0.75136 0.81794 0.0
N260 N 0.5773 0.76692 0.84266 0.0
C261 C 0.49823 0.78819 0.84236 0.0
C262 C 0.49461 0.77211 0.81696 0.0
C263 C 0.53304 0.7537 0.80469 0.0
C264 C 0.54054 0.78468 0.85466 0.0
H265 H 0.60418 0.73734 0.80841 0.0
C266 C 0.70061 0.73087 0.82704 0.0
O267 O 0.7694 0.8579 0.82378 0.0
O268 O 0.70204 0.85663 0.80484 0.0
N269 N 0.58967 0.79903 0.88898 0.0
C270 C 0.59951 0.81533 0.91298 0.0
C271 C 0.56509 0.83622 0.92754 0.0
C272 C 0.52087 0.83972 0.91741 0.0
C273 C 0.51141 0.82211 0.89283 0.0
C274 C 0.54701 0.80139 0.87927 0.0
H275 H 0.63344 0.81279 0.92086 0.0
O276 O 0.6899 0.88679 0.85563 0.0
O277 O 0.65028 0.82373 0.84986 0.0
O278 O 0.73684 0.80892 0.87534 0.0
O279 O 0.67879 0.76647 0.89052 0.0
C280 C 0.46832 0.82525 0.881 0.0
C281 C 0.46175 0.80835 0.85578 0.0
H282 H 0.46262 0.7741 0.80661 0.0
H283 H 0.53057 0.74143 0.78504 0.0
H284 H 0.57267 0.84974 0.94649 0.0
H285 H 0.49453 0.85626 0.9286 0.0
H286 H 0.44017 0.84121 0.89098 0.0
H287 H 0.42863 0.81152 0.84676 0.0
C288 C 0.25795 0.2803 0.07215 0.0
C289 C 0.22792 0.26068 0.0902 0.0
C290 C 0.25747 0.26672 0.04639 0.0
C291 C 0.22695 0.23308 0.03782 0.0
C292 C 0.19912 0.21102 0.05604 0.0
C293 C 0.19931 0.22492 0.08202 0.0
C294 C 0.22456 0.22117 0.00991 0.0
C295 C 0.22791 0.25387 0.99165 0.0
C296 C 0.2353 0.24614 0.96351 0.0
C297 C 0.25065 0.2833 0.94876 0.0
C298 C 0.26503 0.27736 0.92334 0.0
C299 C 0.26347 0.23426 0.91177 0.0
H300 H 0.21849 0.17397 0.96186 0.0
C301 C 0.24475 0.19757 0.92564 0.0
C302 C 0.23097 0.20333 0.95141 0.0
H303 H 0.24368 0.16385 0.91719 0.0
H304 H 0.28108 0.30736 0.0777 0.0
H305 H 0.28077 0.2831 0.03308 0.0
H306 H 0.17592 0.18435 0.04999 0.0
H307 H 0.17581 0.20899 0.09538 0.0
H308 H 0.22133 0.18555 1.00472 0.0
H309 H 0.22898 0.28914 0.99803 0.0
H310 H 0.25404 0.31676 0.95736 0.0
H311 H 0.27945 0.30617 0.91308 0.0
C312 C 0.26023 0.70269 0.58158 0.0
C313 C 0.23629 0.7361 0.59542 0.0
C314 C 0.27227 0.71016 0.55567 0.0
C315 C 0.26092 0.75148 0.54339 0.0
C316 C 0.23996 0.78582 0.55798 0.0
C317 C 0.22733 0.77808 0.58355 0.0
C318 C 0.26786 0.76023 0.51533 0.0
C319 C 0.27331 0.72795 0.49705 0.0
C320 C 0.27225 0.73992 0.46911 0.0
C321 C 0.30124 0.71806 0.45149 0.0
C322 C 0.3031 0.7324 0.42561 0.0
C323 C 0.27553 0.76849 0.41696 0.0
H324 H 0.21809 0.78968 0.47269 0.0
C325 C 0.24404 0.78766 0.43425 0.0
C326 C 0.24236 0.77354 0.45992 0.0
H327 H 0.22169 0.81498 0.4282 0.0
H328 H 0.26716 0.66984 0.59026 0.0
H329 H 0.28939 0.68324 0.54531 0.0
H330 H 0.23118 0.81814 0.54919 0.0
H331 H 0.20885 0.80438 0.59377 0.0
H332 H 0.26492 0.79551 0.50914 0.0
H333 H 0.27796 0.6925 0.50232 0.0
H334 H 0.32395 0.69139 0.45799 0.0
H335 H 0.32774 0.71689 0.41282 0.0
C336 C 0.80695 0.76314 0.0833 0.0
C337 C 0.77491 0.73695 0.09703 0.0
C338 C 0.79932 0.77438 0.05726 0.0
C339 C 0.75917 0.76001 0.0447 0.0
C340 C 0.72623 0.7363 0.05908 0.0
C341 C 0.73413 0.72456 0.08477 0.0
C342 C 0.75009 0.76676 0.01664 0.0
C343 C 0.78136 0.77758 0.99851 0.0
C344 C 0.76952 0.77653 0.97052 0.0
C345 C 0.7876 0.80899 0.95336 0.0
C346 C 0.7732 0.81025 0.92747 0.0
C347 C 0.74084 0.77869 0.91834 0.0
H348 H 0.72676 0.71631 0.97317 0.0
C349 C 0.72554 0.74429 0.93516 0.0
C350 C 0.73976 0.74312 0.96082 0.0
H351 H 0.70128 0.71887 0.92873 0.0
H352 H 0.83882 0.77291 0.09227 0.0
H353 H 0.82519 0.7935 0.04707 0.0
H354 H 0.6948 0.72508 0.05012 0.0
H355 H 0.70871 0.70453 0.09487 0.0
H356 H 0.71553 0.75958 0.01027 0.0
H357 H 0.81581 0.78691 1.00391 0.0
H358 H 0.81129 0.83457 0.96024 0.0
H359 H 0.78569 0.83717 0.91503 0.0
C360 C 0.75798 0.25684 0.42998 0.0
C361 C 0.71876 0.2521 0.41471 0.0
C362 C 0.75431 0.26721 0.45629 0.0
C363 C 0.71124 0.27141 0.4679 0.0
C364 C 0.67216 0.26846 0.45241 0.0
C365 C 0.67591 0.25972 0.42593 0.0
C366 C 0.70663 0.27226 0.49641 0.0
C367 C 0.73269 0.29887 0.51148 0.0
C368 C 0.73369 0.29417 0.53998 0.0
C369 C 0.73931 0.25119 0.55157 0.0
C370 C 0.74957 0.24773 0.57791 0.0
C371 C 0.75276 0.28701 0.59324 0.0
H372 H 0.73147 0.36671 0.54694 0.0
C373 C 0.74382 0.32965 0.58202 0.0
C374 C 0.7352 0.33325 0.55551 0.0
H375 H 0.74736 0.36054 0.59328 0.0
H376 H 0.79128 0.25002 0.42189 0.0
H377 H 0.78497 0.2685 0.4679 0.0
H378 H 0.63864 0.27108 0.46099 0.0
H379 H 0.64511 0.25494 0.41472 0.0
H380 H 0.68176 0.24961 0.50523 0.0
H381 H 0.75472 0.3243 0.50267 0.0
H382 H 0.73914 0.22057 0.53993 0.0
H383 H 0.75739 0.21462 0.58601 0.0
C384 C 0.36225 0.29637 0.18623 0.0
C385 C 0.31985 0.28243 0.19619 0.0
C386 C 0.40235 0.28989 0.20029 0.0
C387 C 0.40114 0.26951 0.22485 0.0
C388 C 0.3589 0.25479 0.23466 0.0
C389 C 0.31869 0.26068 0.22036 0.0
C390 C 0.44278 0.26621 0.24125 0.0
C391 C 0.48522 0.26217 0.23151 0.0
C392 C 0.52651 0.25951 0.2481 0.0
C393 C 0.56187 0.22975 0.24132 0.0
C394 C 0.59995 0.22474 0.25734 0.0
C395 C 0.60422 0.25062 0.28003 0.0
H396 H 0.50523 0.31064 0.27573 0.0
C397 C 0.57016 0.28248 0.286 0.0
C398 C 0.53143 0.28658 0.27034 0.0
H399 H 0.57223 0.30252 0.30351 0.0
H400 H 0.3644 0.31331 0.16767 0.0
H401 H 0.43394 0.3026 0.19227 0.0
H402 H 0.35691 0.23924 0.2536 0.0
H403 H 0.28658 0.24998 0.22869 0.0
H404 H 0.43817 0.26581 0.26207 0.0
H405 H 0.48983 0.2578 0.21086 0.0
H406 H 0.55917 0.20896 0.22411 0.0
H407 H 0.62552 0.19972 0.25235 0.0
C408 C 0.23346 0.82769 0.71137 0.0
C409 C 0.19118 0.81471 0.70086 0.0
C410 C 0.23846 0.86973 0.72405 0.0
C411 C 0.20114 0.89957 0.72665 0.0
C412 C 0.15882 0.88589 0.71676 0.0
C413 C 0.15394 0.84436 0.7039 0.0
C414 C 0.20424 0.94445 0.74016 0.0
C415 C 0.24285 0.96932 0.74189 0.0
C416 C 0.24645 0.01455 0.75514 0.0
C417 C 0.2855 0.04119 0.75079 0.0
C418 C 0.29277 0.08169 0.76442 0.0
C419 C 0.26118 0.09676 0.78291 0.0
H420 H 0.1835 0.01117 0.77731 0.0
C421 C 0.22105 0.07135 0.78652 0.0
C422 C 0.21379 0.03063 0.77291 0.0
H423 H 0.19628 0.08162 0.80086 0.0
H424 H 0.26281 0.80568 0.7095 0.0
H425 H 0.27139 0.87839 0.73205 0.0
H426 H 0.12934 0.90774 0.71869 0.0
H427 H 0.12069 0.83553 0.69633 0.0
H428 H 0.1727 0.95834 0.74761 0.0
H429 H 0.27337 0.95665 0.73253 0.0
H430 H 0.31127 0.03001 0.73726 0.0
H431 H 0.32417 0.10024 0.76118 0.0
C432 C 0.42755 0.77596 0.269 0.0
C433 C 0.40764 0.74522 0.28658 0.0
C434 C 0.46738 0.76467 0.25571 0.0
C435 C 0.48842 0.72226 0.25967 0.0
C436 C 0.46684 0.69036 0.27589 0.0
C437 C 0.42702 0.70178 0.28935 0.0
C438 C 0.53252 0.71026 0.24711 0.0
C439 C 0.56434 0.74153 0.24038 0.0
C440 C 0.60878 0.73018 0.2279 0.0
C441 C 0.64459 0.76214 0.22861 0.0
C442 C 0.68634 0.75324 0.21643 0.0
C443 C 0.69313 0.71219 0.20305 0.0
H444 H 0.58883 0.66411 0.21267 0.0
C445 C 0.65717 0.68031 0.20235 0.0
C446 C 0.61564 0.68919 0.21447 0.0
H447 H 0.66075 0.64832 0.19217 0.0
H448 H 0.41336 0.80962 0.26621 0.0
H449 H 0.48179 0.7895 0.24258 0.0
H450 H 0.48182 0.65711 0.27895 0.0
H451 H 0.41267 0.67734 0.30275 0.0
H452 H 0.5398 0.67429 0.24483 0.0
H453 H 0.55849 0.77711 0.245 0.0
H454 H 0.64027 0.79422 0.23861 0.0
H455 H 0.71307 0.77866 0.21735 0.0
C456 C 0.80981 0.14528 0.6894 0.0
C457 C 0.79339 0.18745 0.69835 0.0
C458 C 0.80475 0.10561 0.70416 0.0
C459 C 0.78334 0.10703 0.72843 0.0
C460 C 0.76667 0.14905 0.73734 0.0
C461 C 0.77118 0.18872 0.72239 0.0
C462 C 0.77998 0.0659 0.74535 0.0
C463 C 0.77736 0.02291 0.73618 0.0
C464 C 0.7724 0.98225 0.75323 0.0
C465 C 0.74433 0.9461 0.7453 0.0
C466 C 0.73677 0.90864 0.76151 0.0
C467 C 0.75839 0.90571 0.78567 0.0
H468 H 0.81799 0.00552 0.78343 0.0
C469 C 0.78865 0.94057 0.79299 0.0
C470 C 0.79527 0.97871 0.77704 0.0
H471 H 0.80541 0.93953 0.81161 0.0
H472 H 0.82725 0.14292 0.67102 0.0
H473 H 0.81898 0.07422 0.69682 0.0
H474 H 0.75027 0.15127 0.75603 0.0
H475 H 0.75849 0.22058 0.73002 0.0
H476 H 0.7774 0.07142 0.76604 0.0
H477 H 0.77522 0.01738 0.71548 0.0
H478 H 0.72672 0.94769 0.72693 0.0
H479 H 0.71308 0.88244 0.75542 0.0
C480 C 0.86236 0.1899 0.31937 0.0
C481 C 0.82055 0.20752 0.31056 0.0
C482 C 0.90194 0.19399 0.30451 0.0
C483 C 0.90084 0.21569 0.28029 0.0
C484 C 0.8592 0.23359 0.27153 0.0
C485 C 0.8196 0.22996 0.28657 0.0
C486 C 0.94188 0.21822 0.2633 0.0
C487 C 0.98498 0.2191 0.2724 0.0
C488 C 0.02562 0.22353 0.25536 0.0
C489 C 0.06271 0.24996 0.26368 0.0
C490 C 0.10019 0.25728 0.2475 0.0
C491 C 0.10214 0.23705 0.22295 0.0
H492 H 1.00063 0.18042 0.22443 0.0
C493 C 0.06634 0.20827 0.21521 0.0
C494 C 0.0282 0.2019 0.23115 0.0
H495 H 0.06666 0.19265 0.19627 0.0
H496 H 0.86448 0.17222 0.3377 0.0
H497 H 0.93297 0.1788 0.31173 0.0
H498 H 0.85722 0.25024 0.25289 0.0
H499 H 0.78801 0.24355 0.27904 0.0
H500 H 0.93625 0.22171 0.24265 0.0
H501 H 0.99076 0.22033 0.2931 0.0
H502 H 0.06186 0.26656 0.28234 0.0
H503 H 0.12714 0.27984 0.25392 0.0
C504 C 0.29325 0.57029 0.71745 0.0
C505 C 0.2624 0.60382 0.72567 0.0
C506 C 0.30076 0.53124 0.73248 0.0
C507 C 0.27823 0.52553 0.75624 0.0
C508 C 0.24981 0.56051 0.76517 0.0
C509 C 0.24132 0.59885 0.74985 0.0
C510 C 0.28392 0.48382 0.77226 0.0
C511 C 0.28681 0.44154 0.76214 0.0
C512 C 0.29157 0.39965 0.77829 0.0
C513 C 0.27536 0.35756 0.76902 0.0
C514 C 0.28113 0.31743 0.78348 0.0
C515 C 0.30413 0.31851 0.80728 0.0
H516 H 0.32789 0.43207 0.80985 0.0
C517 C 0.32005 0.36076 0.81652 0.0
C518 C 0.31386 0.40069 0.80229 0.0
H519 H 0.33797 0.36305 0.83476 0.0
H520 H 0.30944 0.5729 0.69871 0.0
H521 H 0.32374 0.50534 0.72538 0.0
H522 H 0.2325 0.55723 0.78355 0.0
H523 H 0.21707 0.62395 0.75654 0.0
H524 H 0.28219 0.48796 0.79307 0.0
H525 H 0.28373 0.43723 0.74137 0.0
H526 H 0.25832 0.35567 0.7505 0.0
H527 H 0.26878 0.28549 0.77569 0.0
C528 C 0.15852 0.84347 0.31094 0.0
C529 C 0.19318 0.81032 0.31073 0.0
C530 C 0.11704 0.8359 0.29828 0.0
C531 C 0.10903 0.79491 0.28498 0.0
C532 C 0.14372 0.76194 0.28462 0.0
C533 C 0.18535 0.76959 0.29717 0.0
C534 C 0.06436 0.78419 0.27252 0.0
C535 C 0.03347 0.81572 0.26507 0.0
C536 C 0.98927 0.80336 0.25261 0.0
C537 C 0.9695 0.83298 0.23443 0.0
C538 C 0.92985 0.8204 0.22101 0.0
C539 C 0.90881 0.77817 0.22582 0.0
H540 H 0.97964 0.73958 0.27314 0.0
C541 C 0.92689 0.7501 0.24533 0.0
C542 C 0.96656 0.76247 0.25853 0.0
H543 H 0.91144 0.71748 0.24974 0.0
H544 H 0.16313 0.8753 0.32116 0.0
H545 H 0.09104 0.86182 0.29963 0.0
H546 H 0.13852 0.72989 0.27469 0.0
H547 H 0.21104 0.74322 0.29661 0.0
H548 H 0.05745 0.74853 0.26851 0.0
H549 H 0.04167 0.85166 0.26664 0.0
H550 H 0.98582 0.86508 0.2298 0.0
H551 H 0.91692 0.8428 0.2061 0.0
C552 C 0.78081 0.4274 0.74138 0.0
C553 C 0.74732 0.40573 0.72627 0.0
C554 C 0.77064 0.46681 0.75541 0.0
C555 C 0.7266 0.4855 0.75473 0.0
C556 C 0.69253 0.46236 0.74083 0.0
C557 C 0.7028 0.42313 0.72659 0.0
C558 C 0.71482 0.5285 0.76852 0.0
C559 C 0.74519 0.56202 0.77368 0.0
C560 C 0.73311 0.60527 0.78724 0.0
C561 C 0.76092 0.64404 0.78417 0.0
C562 C 0.75071 0.685 0.7969 0.0
C563 C 0.71258 0.68796 0.81322 0.0
H564 H 0.67385 0.57898 0.80753 0.0
C565 C 0.68519 0.64888 0.81648 0.0
C566 C 0.69535 0.6082 0.80381 0.0
H567 H 0.65569 0.6494 0.82901 0.0
H568 H 0.81548 0.41489 0.74166 0.0
H569 H 0.79746 0.4826 0.76662 0.0
H570 H 0.65811 0.47552 0.74029 0.0
H571 H 0.67621 0.40738 0.71516 0.0
H572 H 0.67916 0.53357 0.77314 0.0
H573 H 0.77994 0.55872 0.7668 0.0
H574 H 0.79054 0.64275 0.77174 0.0
H575 H 0.77268 0.71421 0.79397 0.0
C576 C 0.93396 0.61853 0.13521 0.0
C577 C 0.90374 0.62218 0.15603 0.0
C578 C 0.96561 0.58306 0.13445 0.0
C579 C 0.96787 0.55134 0.15482 0.0
C580 C 0.93779 0.55561 0.1757 0.0
C581 C 0.90617 0.59082 0.17636 0.0
C582 C 1.00299 0.51536 0.15611 0.0
C583 C 0.02504 0.49856 0.13547 0.0
C584 C 0.05902 0.46181 0.13839 0.0
C585 C 0.06099 0.4269 0.11996 0.0
C586 C 0.08967 0.38959 0.1238 0.0
C587 C 0.11789 0.38769 0.14562 0.0
H588 H 0.08816 0.48716 0.17419 0.0
C589 C 0.11689 0.42311 0.16367 0.0
C590 C 0.08809 0.46017 0.15996 0.0
H591 H 0.13758 0.42159 0.18097 0.0
H592 H 0.93337 0.64338 0.11974 0.0
H593 H 0.98914 0.58171 0.11841 0.0
H594 H 0.93915 0.53199 0.19177 0.0
H595 H 0.88428 0.59419 0.19308 0.0
H596 H 0.0097 0.50074 0.17503 0.0
H597 H 0.01571 0.50916 0.1161 0.0
H598 H 0.03899 0.42758 0.10317 0.0
H599 H 0.08951 0.36201 0.10993 0.0
C600 C 0.92422 0.39351 0.65531 0.0
C601 C 0.88346 0.39336 0.64126 0.0
C602 C 0.95806 0.4255 0.64982 0.0
C603 C 0.95068 0.4591 0.63093 0.0
C604 C 0.90992 0.45898 0.61689 0.0
C605 C 0.87665 0.4261 0.62188 0.0
C606 C 0.98221 0.49799 0.62852 0.0
C607 C 0.02749 0.49272 0.62917 0.0
C608 C 0.05812 0.53193 0.63296 0.0
C609 C 0.09773 0.53617 0.61811 0.0
C610 C 0.1289 0.57099 0.62333 0.0
C611 C 0.12105 0.6015 0.64369 0.0
H612 H 0.0205 0.559 0.6655 0.0
C613 C 0.08198 0.59646 0.65893 0.0
C614 C 0.05018 0.5626 0.65325 0.0
H615 H 0.07675 0.61779 0.6757 0.0
H616 H 0.92904 0.37031 0.67134 0.0
H617 H 0.98865 0.42579 0.66151 0.0
H618 H 0.90329 0.48512 0.6026 0.0
H619 H 0.84478 0.42736 0.61135 0.0
H620 H 0.96775 0.53202 0.62747 0.0
H621 H 0.04233 0.45888 0.62808 0.0
H622 H 0.1048 0.51224 0.60272 0.0
H623 H 0.15972 0.57341 0.61192 0.0
C624 C 0.61408 0.07779 0.35549 0.0
C625 C 0.61467 0.11956 0.36851 0.0
C626 C 0.582 0.04459 0.36197 0.0
C627 C 0.54881 0.05359 0.38083 0.0
C628 C 0.54952 0.09529 0.39391 0.0
C629 C 0.58245 0.12796 0.38793 0.0
C630 C 0.5095 0.02283 0.384 0.0
C631 C 0.514 0.97745 0.38388 0.0
C632 C 0.47436 0.94739 0.38015 0.0
C633 C 0.44373 0.95578 0.35986 0.0
C634 C 0.40982 0.92416 0.35398 0.0
C635 C 0.40473 0.8848 0.369 0.0
H636 H 0.49378 0.9002 0.41025 0.0
C637 C 0.43503 0.87662 0.38945 0.0
C638 C 0.46989 0.90761 0.39488 0.0
H639 H 0.43255 0.84559 0.4007 0.0
H640 H 0.63693 0.07168 0.33947 0.0
H641 H 0.58125 0.01322 0.351 0.0
H642 H 0.5237 0.10314 0.40815 0.0
H643 H 0.58157 0.1606 0.39766 0.0
H644 H 0.47574 0.0379 0.3849 0.0
H645 H 0.54758 0.96208 0.3851 0.0
H646 H 0.4475 0.98558 0.3477 0.0
H647 H 0.38865 0.92967 0.33715 0.0
C648 C 0.3963 0.08708 0.88661 0.0
C649 C 0.39982 0.1181 0.86609 0.0
C650 C 0.43254 0.0581 0.89243 0.0
C651 C 0.47269 0.06003 0.87778 0.0
C652 C 0.47649 0.09161 0.85761 0.0
C653 C 0.43982 0.1196 0.85136 0.0
C654 C 0.50945 0.02672 0.88161 0.0
C655 C 0.50074 0.98185 0.88062 0.0
C656 C 0.53786 0.94884 0.87703 0.0
C657 C 0.57717 0.95025 0.89243 0.0
C658 C 0.61371 0.92145 0.88703 0.0
C659 C 0.61129 0.89097 0.86624 0.0
H660 H 0.5054 0.91685 0.84419 0.0
C661 C 0.57218 0.88995 0.85074 0.0
C662 C 0.53522 0.91789 0.8565 0.0
H663 H 0.57063 0.86832 0.83384 0.0
H664 H 0.36518 0.08464 0.89776 0.0
H665 H 0.42898 0.03368 0.90799 0.0
H666 H 0.50697 0.093 0.84585 0.0
H667 H 0.44226 0.14154 0.83459 0.0
H668 H 0.54443 0.03888 0.88076 0.0
H669 H 0.46591 0.96999 0.87814 0.0
H670 H 0.57986 0.97406 0.90832 0.0
H671 H 0.64415 0.92348 0.8988 0.0
loop_
_geom_bond_atom_site_label_1
_geom_bond_atom_site_label_2
_geom_bond_distance
_geom_bond_site_symmetry_2
_ccdc_geom_bond_type
Mn0 O5 2.095 . S
Mn0 O15 2.162 . S
Mn0 O16 2.297 . S
Mn0 O24 2.385 . S
Mn0 O25 2.209 . S
Mn0 O26 2.094 . S
Mn1 O6 2.121 . S
Mn1 N8 2.257 . S
Mn1 N17 2.282 . S
Mn1 O25 2.215 . S
Mn1 O27 2.117 . S
C2 O24 1.234 . S
C2 O25 1.283 . S
C3 O15 1.281 . S
C3 O16 1.236 . S
C4 O26 1.240 . S
C4 O27 1.264 . S
O5 Mn0 2.095 . S
O5 C14 1.250 . S
O6 Mn1 2.121 . S
O6 C14 1.258 . S
C7 N8 1.326 . S
C7 C11 1.460 . S
C7 H13 0.929 . S
N8 Mn1 2.257 . S
N8 C7 1.326 . S
N8 C12 1.362 . S
C9 C10 1.258 . S
C9 C12 1.431 . S
C9 C29 1.449 . S
C10 C9 1.258 . S
C10 C11 1.477 . S
C10 H30 0.931 . S
C11 C7 1.460 . S
C11 C10 1.477 . S
C11 H31 0.930 . S
C12 N8 1.362 . S
C12 C9 1.431 . S
C12 C22 1.476 . S
H13 C7 0.929 . S
C14 O5 1.250 . S
C14 O6 1.258 . S
O15 Mn0 2.162 . S
O15 C3 1.281 . S
O16 Mn0 2.297 . S
O16 C3 1.236 . S
N17 Mn1 2.282 . S
N17 C18 1.328 . S
N17 C22 1.318 . S
C18 N17 1.328 . S
C18 C19 1.457 . S
C18 H23 0.929 . S
C19 C18 1.457 . S
C19 C20 1.291 . S
C19 H32 0.931 . S
C20 C19 1.291 . S
C20 C21 1.373 . S
C20 H33 0.929 . S
C21 C20 1.373 . S
C21 C22 1.396 . S
C21 C28 1.403 . S
C22 C12 1.476 . S
C22 N17 1.318 . S
C22 C21 1.396 . S
H23 C18 0.929 . S
O24 Mn0 2.385 . S
O24 C2 1.234 . S
O25 Mn0 2.209 . S
O25 Mn1 2.215 . S
O25 C2 1.283 . S
O26 Mn0 2.094 . S
O26 C4 1.240 . S
O27 Mn1 2.117 . S
O27 C4 1.264 . S
C28 C21 1.403 . S
C28 C29 1.399 . S
C28 H34 0.929 . S
C29 C9 1.449 . S
C29 C28 1.399 . S
C29 H35 0.930 . S
H30 C10 0.931 . S
H31 C11 0.930 . S
H32 C19 0.931 . S
H33 C20 0.929 . S
H34 C28 0.929 . S
H35 C29 0.930 . S
Mn36 O41 2.095 . S
Mn36 O51 2.162 . S
Mn36 O52 2.297 . S
Mn36 O60 2.385 . S
Mn36 O61 2.209 . S
Mn36 O62 2.094 . S
Mn37 O42 2.121 . S
Mn37 N44 2.257 . S
Mn37 N53 2.282 . S
Mn37 O61 2.215 . S
Mn37 O63 2.117 . S
C38 O60 1.234 . S
C38 O61 1.283 . S
C39 O51 1.281 . S
C39 O52 1.236 . S
C40 O62 1.240 . S
C40 O63 1.264 . S
O41 Mn36 2.095 . S
O41 C50 1.250 . S
O42 Mn37 2.121 . S
O42 C50 1.258 . S
C43 N44 1.326 . S
C43 C47 1.460 . S
C43 H49 0.929 . S
N44 Mn37 2.257 . S
N44 C43 1.326 . S
N44 C48 1.362 . S
C45 C46 1.258 . S
C45 C48 1.431 . S
C45 C65 1.449 1_455 S
C46 C45 1.258 . S
C46 C47 1.477 . S
C46 H66 0.931 1_455 S
C47 C43 1.460 . S
C47 C46 1.477 . S
C47 H67 0.930 . S
C48 N44 1.362 . S
C48 C45 1.431 . S
C48 C58 1.476 . S
H49 C43 0.929 . S
C50 O41 1.250 . S
C50 O42 1.258 . S
O51 Mn36 2.162 . S
O51 C39 1.281 . S
O52 Mn36 2.297 . S
O52 C39 1.236 . S
N53 Mn37 2.282 . S
N53 C54 1.328 . S
N53 C58 1.318 . S
C54 N53 1.328 . S
C54 C55 1.457 . S
C54 H59 0.929 . S
C55 C54 1.457 . S
C55 C56 1.291 . S
C55 H68 0.931 . S
C56 C55 1.291 . S
C56 C57 1.373 . S
C56 H69 0.929 . S
C57 C56 1.373 . S
C57 C58 1.396 . S
C57 C64 1.403 1_455 S
C58 C48 1.476 . S
C58 N53 1.318 . S
C58 C57 1.396 . S
H59 C54 0.929 . S
O60 Mn36 2.385 . S
O60 C38 1.234 . S
O61 Mn36 2.209 . S
O61 Mn37 2.215 . S
O61 C38 1.283 . S
O62 Mn36 2.094 . S
O62 C40 1.240 . S
O63 Mn37 2.117 . S
O63 C40 1.264 . S
C64 C57 1.403 1_655 S
C64 C65 1.399 . S
C64 H70 0.929 . S
C65 C45 1.449 1_655 S
C65 C64 1.399 . S
C65 H71 0.930 . S
H66 C46 0.931 1_655 S
H67 C47 0.930 . S
H68 C55 0.931 . S
H69 C56 0.929 . S
H70 C64 0.929 . S
H71 C65 0.930 . S
Mn72 O77 2.095 . S
Mn72 O87 2.162 . S
Mn72 O88 2.297 . S
Mn72 O96 2.385 . S
Mn72 O97 2.209 . S
Mn72 O98 2.094 . S
Mn73 O78 2.121 . S
Mn73 N80 2.257 . S
Mn73 N89 2.282 . S
Mn73 O97 2.215 . S
Mn73 O99 2.117 . S
C74 O96 1.234 . S
C74 O97 1.283 . S
C75 O87 1.281 . S
C75 O88 1.236 . S
C76 O98 1.240 . S
C76 O99 1.264 . S
O77 Mn72 2.095 . S
O77 C86 1.250 . S
O78 Mn73 2.121 . S
O78 C86 1.258 . S
C79 N80 1.326 . S
C79 C83 1.460 . S
C79 H85 0.929 . S
N80 Mn73 2.257 . S
N80 C79 1.326 . S
N80 C84 1.362 . S
C81 C82 1.258 . S
C81 C84 1.431 . S
C81 C101 1.449 . S
C82 C81 1.258 . S
C82 C83 1.477 . S
C82 H102 0.931 . S
C83 C79 1.460 . S
C83 C82 1.477 . S
C83 H103 0.930 . S
C84 N80 1.362 . S
C84 C81 1.431 . S
C84 C94 1.476 . S
H85 C79 0.929 . S
C86 O77 1.250 . S
C86 O78 1.258 . S
O87 Mn72 2.162 . S
O87 C75 1.281 . S
O88 Mn72 2.297 . S
O88 C75 1.236 . S
N89 Mn73 2.282 . S
N89 C90 1.328 . S
N89 C94 1.318 . S
C90 N89 1.328 . S
C90 C91 1.457 . S
C90 H95 0.929 . S
C91 C90 1.457 . S
C91 C92 1.291 . S
C91 H104 0.931 . S
C92 C91 1.291 . S
C92 C93 1.373 . S
C92 H105 0.929 . S
C93 C92 1.373 . S
C93 C94 1.396 . S
C93 C100 1.403 . S
C94 C84 1.476 . S
C94 N89 1.318 . S
C94 C93 1.396 . S
H95 C90 0.929 . S
O96 Mn72 2.385 . S
O96 C74 1.234 . S
O97 Mn72 2.209 . S
O97 Mn73 2.215 . S
O97 C74 1.283 . S
O98 Mn72 2.094 . S
O98 C76 1.240 . S
O99 Mn73 2.117 . S
O99 C76 1.264 . S
C100 C93 1.403 . S
C100 C101 1.399 . S
C100 H106 0.929 . S
C101 C81 1.449 . S
C101 C100 1.399 . S
C101 H107 0.930 . S
H102 C82 0.931 . S
H103 C83 0.930 . S
H104 C91 0.931 . S
H105 C92 0.929 . S
H106 C100 0.929 . S
H107 C101 0.930 . S
Mn108 O113 2.095 . S
Mn108 O123 2.162 . S
Mn108 O124 2.297 . S
Mn108 O132 2.385 . S
Mn108 O133 2.209 . S
Mn108 O134 2.094 . S
Mn109 O114 2.121 . S
Mn109 N116 2.257 . S
Mn109 N125 2.282 . S
Mn109 O133 2.215 . S
Mn109 O135 2.117 . S
C110 O132 1.234 . S
C110 O133 1.283 . S
C111 O123 1.281 . S
C111 O124 1.236 . S
C112 O134 1.240 . S
C112 O135 1.264 . S
O113 Mn108 2.095 . S
O113 C122 1.250 . S
O114 Mn109 2.121 . S
O114 C122 1.258 . S
C115 N116 1.326 . S
C115 C119 1.460 . S
C115 H121 0.929 . S
N116 Mn109 2.257 . S
N116 C115 1.326 . S
N116 C120 1.362 . S
C117 C118 1.258 . S
C117 C120 1.431 . S
C117 C137 1.449 1_655 S
C118 C117 1.258 . S
C118 C119 1.477 . S
C118 H138 0.931 1_655 S
C119 C115 1.460 . S
C119 C118 1.477 . S
C119 H139 0.930 . S
C120 N116 1.362 . S
C120 C117 1.431 . S
C120 C130 1.476 . S
H121 C115 0.929 . S
C122 O113 1.250 . S
C122 O114 1.258 . S
O123 Mn108 2.162 . S
O123 C111 1.281 . S
O124 Mn108 2.297 . S
O124 C111 1.236 . S
N125 Mn109 2.282 . S
N125 C126 1.328 . S
N125 C130 1.318 . S
C126 N125 1.328 . S
C126 C127 1.457 . S
C126 H131 0.929 . S
C127 C126 1.457 . S
C127 C128 1.291 . S
C127 H140 0.931 . S
C128 C127 1.291 . S
C128 C129 1.373 . S
C128 H141 0.929 . S
C129 C128 1.373 . S
C129 C130 1.396 . S
C129 C136 1.403 1_655 S
C130 C120 1.476 . S
C130 N125 1.318 . S
C130 C129 1.396 . S
H131 C126 0.929 . S
O132 Mn108 2.385 . S
O132 C110 1.234 . S
O133 Mn108 2.209 . S
O133 Mn109 2.215 . S
O133 C110 1.283 . S
O134 Mn108 2.094 . S
O134 C112 1.240 . S
O135 Mn109 2.117 . S
O135 C112 1.264 . S
C136 C129 1.403 1_455 S
C136 C137 1.399 . S
C136 H142 0.929 . S
C137 C117 1.449 1_455 S
C137 C136 1.399 . S
C137 H143 0.930 . S
H138 C118 0.931 1_455 S
H139 C119 0.930 . S
H140 C127 0.931 . S
H141 C128 0.929 . S
H142 C136 0.929 . S
H143 C137 0.930 . S
Mn144 O149 2.095 . S
Mn144 O159 2.162 . S
Mn144 O160 2.297 . S
Mn144 O168 2.385 . S
Mn144 O169 2.209 . S
Mn144 O170 2.094 . S
Mn145 O150 2.121 . S
Mn145 N152 2.257 . S
Mn145 N161 2.282 . S
Mn145 O169 2.215 . S
Mn145 O171 2.117 . S
C146 O168 1.234 . S
C146 O169 1.283 . S
C147 O159 1.281 . S
C147 O160 1.236 . S
C148 O170 1.240 . S
C148 O171 1.264 . S
O149 Mn144 2.095 . S
O149 C158 1.250 . S
O150 Mn145 2.121 . S
O150 C158 1.258 . S
C151 N152 1.326 . S
C151 C155 1.460 . S
C151 H157 0.929 . S
N152 Mn145 2.257 . S
N152 C151 1.326 . S
N152 C156 1.362 . S
C153 C154 1.258 . S
C153 C156 1.431 . S
C153 C173 1.449 1_545 S
C154 C153 1.258 . S
C154 C155 1.477 . S
C154 H174 0.931 1_545 S
C155 C151 1.460 . S
C155 C154 1.477 . S
C155 H175 0.930 . S
C156 N152 1.362 . S
C156 C153 1.431 . S
C156 C166 1.476 . S
H157 C151 0.929 . S
C158 O149 1.250 . S
C158 O150 1.258 . S
O159 Mn144 2.162 . S
O159 C147 1.281 . S
O160 Mn144 2.297 . S
O160 C147 1.236 . S
N161 Mn145 2.282 . S
N161 C162 1.328 . S
N161 C166 1.318 . S
C162 N161 1.328 . S
C162 C163 1.457 . S
C162 H167 0.929 . S
C163 C162 1.457 . S
C163 C164 1.291 . S
C163 H176 0.931 . S
C164 C163 1.291 . S
C164 C165 1.373 . S
C164 H177 0.929 . S
C165 C164 1.373 . S
C165 C166 1.396 . S
C165 C172 1.403 1_545 S
C166 C156 1.476 . S
C166 N161 1.318 . S
C166 C165 1.396 . S
H167 C162 0.929 . S
O168 Mn144 2.385 . S
O168 C146 1.234 . S
O169 Mn144 2.209 . S
O169 Mn145 2.215 . S
O169 C146 1.283 . S
O170 Mn144 2.094 . S
O170 C148 1.240 . S
O171 Mn145 2.117 . S
O171 C148 1.264 . S
C172 C165 1.403 1_565 S
C172 C173 1.399 . S
C172 H178 0.929 . S
C173 C153 1.449 1_565 S
C173 C172 1.399 . S
C173 H179 0.930 . S
H174 C154 0.931 1_565 S
H175 C155 0.930 . S
H176 C163 0.931 . S
H177 C164 0.929 . S
H178 C172 0.929 . S
H179 C173 0.930 . S
Mn180 O185 2.095 . S
Mn180 O195 2.162 . S
Mn180 O196 2.297 . S
Mn180 O204 2.385 . S
Mn180 O205 2.209 . S
Mn180 O206 2.094 . S
Mn181 O186 2.121 . S
Mn181 N188 2.257 . S
Mn181 N197 2.282 . S
Mn181 O205 2.215 . S
Mn181 O207 2.117 . S
C182 O204 1.234 . S
C182 O205 1.283 . S
C183 O195 1.281 . S
C183 O196 1.236 . S
C184 O206 1.240 . S
C184 O207 1.264 . S
O185 Mn180 2.095 . S
O185 C194 1.250 . S
O186 Mn181 2.121 . S
O186 C194 1.258 . S
C187 N188 1.326 . S
C187 C191 1.460 . S
C187 H193 0.929 . S
N188 Mn181 2.257 . S
N188 C187 1.326 . S
N188 C192 1.362 . S
C189 C190 1.258 . S
C189 C192 1.431 . S
C189 C209 1.449 . S
C190 C189 1.258 . S
C190 C191 1.477 . S
C190 H210 0.931 . S
C191 C187 1.460 . S
C191 C190 1.477 . S
C191 H211 0.930 . S
C192 N188 1.362 . S
C192 C189 1.431 . S
C192 C202 1.476 . S
H193 C187 0.929 . S
C194 O185 1.250 . S
C194 O186 1.258 . S
O195 Mn180 2.162 . S
O195 C183 1.281 . S
O196 Mn180 2.297 . S
O196 C183 1.236 . S
N197 Mn181 2.282 . S
N197 C198 1.328 . S
N197 C202 1.318 . S
C198 N197 1.328 . S
C198 C199 1.457 . S
C198 H203 0.929 . S
C199 C198 1.457 . S
C199 C200 1.291 . S
C199 H212 0.931 . S
C200 C199 1.291 . S
C200 C201 1.373 . S
C200 H213 0.929 . S
C201 C200 1.373 . S
C201 C202 1.396 . S
C201 C208 1.403 . S
C202 C192 1.476 . S
C202 N197 1.318 . S
C202 C201 1.396 . S
H203 C198 0.929 . S
O204 Mn180 2.385 . S
O204 C182 1.234 . S
O205 Mn180 2.209 . S
O205 Mn181 2.215 . S
O205 C182 1.283 . S
O206 Mn180 2.094 . S
O206 C184 1.240 . S
O207 Mn181 2.117 . S
O207 C184 1.264 . S
C208 C201 1.403 . S
C208 C209 1.399 . S
C208 H214 0.929 . S
C209 C189 1.449 . S
C209 C208 1.399 . S
C209 H215 0.930 . S
H210 C190 0.931 . S
H211 C191 0.930 . S
H212 C199 0.931 . S
H213 C200 0.929 . S
H214 C208 0.929 . S
H215 C209 0.930 . S
Mn216 O221 2.095 . S
Mn216 O231 2.162 . S
Mn216 O232 2.297 . S
Mn216 O240 2.385 . S
Mn216 O241 2.209 . S
Mn216 O242 2.094 . S
Mn217 O222 2.121 . S
Mn217 N224 2.257 . S
Mn217 N233 2.282 . S
Mn217 O241 2.215 . S
Mn217 O243 2.117 . S
C218 O240 1.234 . S
C218 O241 1.283 . S
C219 O231 1.281 . S
C219 O232 1.236 . S
C220 O242 1.240 . S
C220 O243 1.264 . S
O221 Mn216 2.095 . S
O221 C230 1.250 . S
O222 Mn217 2.121 . S
O222 C230 1.258 . S
C223 N224 1.326 . S
C223 C227 1.460 . S
C223 H229 0.929 . S
N224 Mn217 2.257 . S
N224 C223 1.326 . S
N224 C228 1.362 . S
C225 C226 1.258 . S
C225 C228 1.431 . S
C225 C245 1.449 1_565 S
C226 C225 1.258 . S
C226 C227 1.477 . S
C226 H246 0.931 1_565 S
C227 C223 1.460 . S
C227 C226 1.477 . S
C227 H247 0.930 . S
C228 N224 1.362 . S
C228 C225 1.431 . S
C228 C238 1.476 . S
H229 C223 0.929 . S
C230 O221 1.250 . S
C230 O222 1.258 . S
O231 Mn216 2.162 . S
O231 C219 1.281 . S
O232 Mn216 2.297 . S
O232 C219 1.236 . S
N233 Mn217 2.282 . S
N233 C234 1.328 . S
N233 C238 1.318 . S
C234 N233 1.328 . S
C234 C235 1.457 . S
C234 H239 0.929 . S
C235 C234 1.457 . S
C235 C236 1.291 . S
C235 H248 0.931 . S
C236 C235 1.291 . S
C236 C237 1.373 . S
C236 H249 0.929 . S
C237 C236 1.373 . S
C237 C238 1.396 . S
C237 C244 1.403 1_565 S
C238 C228 1.476 . S
C238 N233 1.318 . S
C238 C237 1.396 . S
H239 C234 0.929 . S
O240 Mn216 2.385 . S
O240 C218 1.234 . S
O241 Mn216 2.209 . S
O241 Mn217 2.215 . S
O241 C218 1.283 . S
O242 Mn216 2.094 . S
O242 C220 1.240 . S
O243 Mn217 2.117 . S
O243 C220 1.264 . S
C244 C237 1.403 1_545 S
C244 C245 1.399 . S
C244 H250 0.929 . S
C245 C225 1.449 1_545 S
C245 C244 1.399 . S
C245 H251 0.930 . S
H246 C226 0.931 1_545 S
H247 C227 0.930 . S
H248 C235 0.931 . S
H249 C236 0.929 . S
H250 C244 0.929 . S
H251 C245 0.930 . S
Mn252 O257 2.095 . S
Mn252 O267 2.162 . S
Mn252 O268 2.297 . S
Mn252 O276 2.385 . S
Mn252 O277 2.209 . S
Mn252 O278 2.094 . S
Mn253 O258 2.121 . S
Mn253 N260 2.257 . S
Mn253 N269 2.282 . S
Mn253 O277 2.215 . S
Mn253 O279 2.117 . S
C254 O276 1.234 . S
C254 O277 1.283 . S
C255 O267 1.281 . S
C255 O268 1.236 . S
C256 O278 1.240 . S
C256 O279 1.264 . S
O257 Mn252 2.095 . S
O257 C266 1.250 . S
O258 Mn253 2.121 . S
O258 C266 1.258 . S
C259 N260 1.326 . S
C259 C263 1.460 . S
C259 H265 0.929 . S
N260 Mn253 2.257 . S
N260 C259 1.326 . S
N260 C264 1.362 . S
C261 C262 1.258 . S
C261 C264 1.431 . S
C261 C281 1.449 . S
C262 C261 1.258 . S
C262 C263 1.477 . S
C262 H282 0.931 . S
C263 C259 1.460 . S
C263 C262 1.477 . S
C263 H283 0.930 . S
C264 N260 1.362 . S
C264 C261 1.431 . S
C264 C274 1.476 . S
H265 C259 0.929 . S
C266 O257 1.250 . S
C266 O258 1.258 . S
O267 Mn252 2.162 . S
O267 C255 1.281 . S
O268 Mn252 2.297 . S
O268 C255 1.236 . S
N269 Mn253 2.282 . S
N269 C270 1.328 . S
N269 C274 1.318 . S
C270 N269 1.328 . S
C270 C271 1.457 . S
C270 H275 0.929 . S
C271 C270 1.457 . S
C271 C272 1.291 . S
C271 H284 0.931 . S
C272 C271 1.291 . S
C272 C273 1.373 . S
C272 H285 0.929 . S
C273 C272 1.373 . S
C273 C274 1.396 . S
C273 C280 1.403 . S
C274 C264 1.476 . S
C274 N269 1.318 . S
C274 C273 1.396 . S
H275 C270 0.929 . S
O276 Mn252 2.385 . S
O276 C254 1.234 . S
O277 Mn252 2.209 . S
O277 Mn253 2.215 . S
O277 C254 1.283 . S
O278 Mn252 2.094 . S
O278 C256 1.240 . S
O279 Mn253 2.117 . S
O279 C256 1.264 . S
C280 C273 1.403 . S
C280 C281 1.399 . S
C280 H286 0.929 . S
C281 C261 1.449 . S
C281 C280 1.399 . S
C281 H287 0.930 . S
H282 C262 0.931 . S
H283 C263 0.930 . S
H284 C271 0.931 . S
H285 C272 0.929 . S
H286 C280 0.929 . S
H287 C281 0.930 . S
C288 C289 1.386 . S
C288 C290 1.383 . S
C288 H304 0.951 . S
C289 C288 1.386 . S
C289 C293 1.383 . S
C290 C288 1.383 . S
C290 C291 1.402 . S
C290 H305 0.951 . S
C291 C290 1.402 . S
C291 C292 1.375 . S
C291 C294 1.481 . S
C292 C291 1.375 . S
C292 C293 1.367 . S
C292 H306 0.951 . S
C293 C289 1.383 . S
C293 C292 1.367 . S
C293 H307 0.950 . S
C294 C291 1.481 . S
C294 C295 1.297 1_554 S
C294 H308 0.950 . S
C295 C294 1.297 1_556 S
C295 C296 1.479 . S
C295 H309 0.961 . S
C296 C295 1.479 . S
C296 C297 1.375 . S
C296 C302 1.404 . S
C297 C296 1.375 . S
C297 C298 1.369 . S
C297 H310 0.950 . S
C298 C297 1.369 . S
C298 C299 1.392 . S
C298 H311 0.951 . S
C299 C298 1.392 . S
C299 C301 1.384 . S
H300 C302 0.949 . S
C301 C299 1.384 . S
C301 C302 1.385 . S
C301 H303 0.950 . S
C302 C296 1.404 . S
C302 H300 0.949 . S
C302 C301 1.385 . S
H303 C301 0.950 . S
H304 C288 0.951 . S
H305 C290 0.951 . S
H306 C292 0.951 . S
H307 C293 0.950 . S
H308 C294 0.950 . S
H309 C295 0.961 . S
H310 C297 0.950 . S
H311 C298 0.951 . S
C312 C313 1.386 . S
C312 C314 1.383 . S
C312 H328 0.951 . S
C313 C312 1.386 . S
C313 C317 1.383 . S
C314 C312 1.383 . S
C314 C315 1.402 . S
C314 H329 0.951 . S
C315 C314 1.402 . S
C315 C316 1.375 . S
C315 C318 1.481 . S
C316 C315 1.375 . S
C316 C317 1.367 . S
C316 H330 0.951 . S
C317 C313 1.383 . S
C317 C316 1.367 . S
C317 H331 0.950 . S
C318 C315 1.481 . S
C318 C319 1.297 . S
C318 H332 0.950 . S
C319 C318 1.297 . S
C319 C320 1.479 . S
C319 H333 0.950 . S
C320 C319 1.479 . S
C320 C321 1.375 . S
C320 C326 1.404 . S
C321 C320 1.375 . S
C321 C322 1.369 . S
C321 H334 0.950 . S
C322 C321 1.369 . S
C322 C323 1.392 . S
C322 H335 0.951 . S
C323 C322 1.392 . S
C323 C325 1.384 . S
H324 C326 0.949 . S
C325 C323 1.384 . S
C325 C326 1.385 . S
C325 H327 0.950 . S
C326 C320 1.404 . S
C326 H324 0.949 . S
C326 C325 1.385 . S
H327 C325 0.950 . S
H328 C312 0.951 . S
H329 C314 0.951 . S
H330 C316 0.951 . S
H331 C317 0.950 . S
H332 C318 0.950 . S
H333 C319 0.950 . S
H334 C321 0.950 . S
H335 C322 0.951 . S
C336 C337 1.386 . S
C336 C338 1.383 . S
C336 H352 0.951 . S
C337 C336 1.386 . S
C337 C341 1.383 . S
C338 C336 1.383 . S
C338 C339 1.402 . S
C338 H353 0.951 . S
C339 C338 1.402 . S
C339 C340 1.375 . S
C339 C342 1.481 . S
C340 C339 1.375 . S
C340 C341 1.367 . S
C340 H354 0.951 . S
C341 C337 1.383 . S
C341 C340 1.367 . S
C341 H355 0.950 . S
C342 C339 1.481 . S
C342 C343 1.297 1_554 S
C342 H356 0.950 1_554 S
C343 C342 1.297 1_556 S
C343 C344 1.479 . S
C343 H357 0.950 . S
C344 C343 1.479 . S
C344 C345 1.375 . S
C344 C350 1.404 . S
C345 C344 1.375 . S
C345 C346 1.369 . S
C345 H358 0.950 . S
C346 C345 1.369 . S
C346 C347 1.392 . S
C346 H359 0.951 . S
C347 C346 1.392 . S
C347 C349 1.384 . S
H348 C350 0.949 . S
C349 C347 1.384 . S
C349 C350 1.385 . S
C349 H351 0.950 . S
C350 C344 1.404 . S
C350 H348 0.949 . S
C350 C349 1.385 . S
H351 C349 0.950 . S
H352 C336 0.951 . S
H353 C338 0.951 . S
H354 C340 0.951 . S
H355 C341 0.950 . S
H356 C342 0.950 1_556 S
H357 C343 0.950 . S
H358 C345 0.950 . S
H359 C346 0.951 . S
C360 C361 1.386 . S
C360 C362 1.383 . S
C360 H376 0.951 . S
C361 C360 1.386 . S
C361 C365 1.383 . S
C362 C360 1.383 . S
C362 C363 1.402 . S
C362 H377 0.951 . S
C363 C362 1.402 . S
C363 C364 1.375 . S
C363 C366 1.481 . S
C364 C363 1.375 . S
C364 C365 1.367 . S
C364 H378 0.951 . S
C365 C361 1.383 . S
C365 C364 1.367 . S
C365 H379 0.950 . S
C366 C363 1.481 . S
C366 C367 1.297 . S
C366 H380 0.950 . S
C367 C366 1.297 . S
C367 C368 1.479 . S
C367 H381 0.950 . S
C368 C367 1.479 . S
C368 C369 1.375 . S
C368 C374 1.404 . S
C369 C368 1.375 . S
C369 C370 1.369 . S
C369 H382 0.950 . S
C370 C369 1.369 . S
C370 C371 1.392 . S
C370 H383 0.951 . S
C371 C370 1.392 . S
C371 C373 1.384 . S
H372 C374 0.949 . S
C373 C371 1.384 . S
C373 C374 1.385 . S
C373 H375 0.950 . S
C374 C368 1.404 . S
C374 H372 0.949 . S
C374 C373 1.385 . S
H375 C373 0.950 . S
H376 C360 0.951 . S
H377 C362 0.951 . S
H378 C364 0.951 . S
H379 C365 0.950 . S
H380 C366 0.950 . S
H381 C367 0.950 . S
H382 C369 0.950 . S
H383 C370 0.951 . S
C384 C385 1.386 . S
C384 C386 1.383 . S
C384 H400 0.951 . S
C385 C384 1.386 . S
C385 C389 1.383 . S
C386 C384 1.383 . S
C386 C387 1.402 . S
C386 H401 0.951 . S
C387 C386 1.402 . S
C387 C388 1.375 . S
C387 C390 1.481 . S
C388 C387 1.375 . S
C388 C389 1.367 . S
C388 H402 0.951 . S
C389 C385 1.383 . S
C389 C388 1.367 . S
C389 H403 0.950 . S
C390 C387 1.481 . S
C390 C391 1.297 . S
C390 H404 0.950 . S
C391 C390 1.297 . S
C391 C392 1.479 . S
C391 H405 0.950 . S
C392 C391 1.479 . S
C392 C393 1.375 . S
C392 C398 1.404 . S
C393 C392 1.375 . S
C393 C394 1.369 . S
C393 H406 0.950 . S
C394 C393 1.369 . S
C394 C395 1.392 . S
C394 H407 0.951 . S
C395 C394 1.392 . S
C395 C397 1.384 . S
H396 C398 0.949 . S
C397 C395 1.384 . S
C397 C398 1.385 . S
C397 H399 0.950 . S
C398 C392 1.404 . S
C398 H396 0.949 . S
C398 C397 1.385 . S
H399 C397 0.950 . S
H400 C384 0.951 . S
H401 C386 0.951 . S
H402 C388 0.951 . S
H403 C389 0.950 . S
H404 C390 0.950 . S
H405 C391 0.950 . S
H406 C393 0.950 . S
H407 C394 0.951 . S
C408 C409 1.386 . S
C408 C410 1.383 . S
C408 H424 0.951 . S
C409 C408 1.386 . S
C409 C413 1.383 . S
C410 C408 1.383 . S
C410 C411 1.402 . S
C410 H425 0.951 . S
C411 C410 1.402 . S
C411 C412 1.375 . S
C411 C414 1.481 . S
C412 C411 1.375 . S
C412 C413 1.367 . S
C412 H426 0.951 . S
C413 C409 1.383 . S
C413 C412 1.367 . S
C413 H427 0.950 . S
C414 C411 1.481 . S
C414 C415 1.297 . S
C414 H428 0.950 . S
C415 C414 1.297 . S
C415 C416 1.479 . S
C415 H429 0.950 . S
C416 C415 1.479 . S
C416 C417 1.375 . S
C416 C422 1.404 . S
C417 C416 1.375 . S
C417 C418 1.369 . S
C417 H430 0.950 . S
C418 C417 1.369 . S
C418 C419 1.392 . S
C418 H431 0.951 . S
C419 C418 1.392 . S
C419 C421 1.384 . S
H420 C422 0.949 . S
C421 C419 1.384 . S
C421 C422 1.385 . S
C421 H423 0.950 1_565 S
C422 C416 1.404 . S
C422 H420 0.949 . S
C422 C421 1.385 . S
H423 C421 0.950 1_545 S
H424 C408 0.951 . S
H425 C410 0.951 . S
H426 C412 0.951 . S
H427 C413 0.950 . S
H428 C414 0.950 . S
H429 C415 0.950 . S
H430 C417 0.950 . S
H431 C418 0.951 . S
C432 C433 1.386 . S
C432 C434 1.383 . S
C432 H448 0.951 . S
C433 C432 1.386 . S
C433 C437 1.383 . S
C434 C432 1.383 . S
C434 C435 1.402 . S
C434 H449 0.951 . S
C435 C434 1.402 . S
C435 C436 1.375 . S
C435 C438 1.481 . S
C436 C435 1.375 . S
C436 C437 1.367 . S
C436 H450 0.951 . S
C437 C433 1.383 . S
C437 C436 1.367 . S
C437 H451 0.950 . S
C438 C435 1.481 . S
C438 C439 1.297 . S
C438 H452 0.950 . S
C439 C438 1.297 . S
C439 C440 1.479 . S
C439 H453 0.950 . S
C440 C439 1.479 . S
C440 C441 1.375 . S
C440 C446 1.404 . S
C441 C440 1.375 . S
C441 C442 1.369 . S
C441 H454 0.950 . S
C442 C441 1.369 . S
C442 C443 1.392 . S
C442 H455 0.951 . S
C443 C442 1.392 . S
C443 C445 1.384 . S
H444 C446 0.949 . S
C445 C443 1.384 . S
C445 C446 1.385 . S
C445 H447 0.950 . S
C446 C440 1.404 . S
C446 H444 0.949 . S
C446 C445 1.385 . S
H447 C445 0.950 . S
H448 C432 0.951 . S
H449 C434 0.951 . S
H450 C436 0.951 . S
H451 C437 0.950 . S
H452 C438 0.950 . S
H453 C439 0.950 . S
H454 C441 0.950 . S
H455 C442 0.951 . S
C456 C457 1.386 . S
C456 C458 1.383 . S
C456 H472 0.951 . S
C457 C456 1.386 . S
C457 C461 1.383 . S
C458 C456 1.383 . S
C458 C459 1.402 . S
C458 H473 0.951 . S
C459 C458 1.402 . S
C459 C460 1.375 . S
C459 C462 1.481 . S
C460 C459 1.375 . S
C460 C461 1.367 . S
C460 H474 0.951 . S
C461 C457 1.383 . S
C461 C460 1.367 . S
C461 H475 0.950 . S
C462 C459 1.481 . S
C462 C463 1.297 . S
C462 H476 0.950 . S
C463 C462 1.297 . S
C463 C464 1.479 . S
C463 H477 0.950 . S
C464 C463 1.479 . S
C464 C465 1.375 . S
C464 C470 1.404 . S
C465 C464 1.375 . S
C465 C466 1.369 . S
C465 H478 0.950 . S
C466 C465 1.369 . S
C466 C467 1.392 . S
C466 H479 0.951 . S
C467 C466 1.392 . S
C467 C469 1.384 . S
H468 C470 0.949 . S
C469 C467 1.384 . S
C469 C470 1.385 . S
C469 H471 0.950 . S
C470 C464 1.404 . S
C470 H468 0.949 . S
C470 C469 1.385 . S
H471 C469 0.950 . S
H472 C456 0.951 . S
H473 C458 0.951 . S
H474 C460 0.951 . S
H475 C461 0.950 . S
H476 C462 0.950 . S
H477 C463 0.950 . S
H478 C465 0.950 . S
H479 C466 0.951 . S
C480 C481 1.386 . S
C480 C482 1.383 . S
C480 H496 0.951 . S
C481 C480 1.386 . S
C481 C485 1.383 . S
C482 C480 1.383 . S
C482 C483 1.402 . S
C482 H497 0.951 . S
C483 C482 1.402 . S
C483 C484 1.375 . S
C483 C486 1.481 . S
C484 C483 1.375 . S
C484 C485 1.367 . S
C484 H498 0.951 . S
C485 C481 1.383 . S
C485 C484 1.367 . S
C485 H499 0.950 . S
C486 C483 1.481 . S
C486 C487 1.297 . S
C486 H500 0.950 . S
C487 C486 1.297 . S
C487 C488 1.479 . S
C487 H501 0.950 . S
C488 C487 1.479 . S
C488 C489 1.375 . S
C488 C494 1.404 . S
C489 C488 1.375 . S
C489 C490 1.369 . S
C489 H502 0.950 . S
C490 C489 1.369 . S
C490 C491 1.392 . S
C490 H503 0.951 . S
C491 C490 1.392 . S
C491 C493 1.384 . S
H492 C494 0.949 . S
C493 C491 1.384 . S
C493 C494 1.385 . S
C493 H495 0.950 . S
C494 C488 1.404 . S
C494 H492 0.949 . S
C494 C493 1.385 . S
H495 C493 0.950 . S
H496 C480 0.951 . S
H497 C482 0.951 . S
H498 C484 0.951 . S
H499 C485 0.950 . S
H500 C486 0.950 . S
H501 C487 0.950 . S
H502 C489 0.950 . S
H503 C490 0.951 . S
C504 C505 1.386 . S
C504 C506 1.383 . S
C504 H520 0.951 . S
C505 C504 1.386 . S
C505 C509 1.383 . S
C506 C504 1.383 . S
C506 C507 1.402 . S
C506 H521 0.951 . S
C507 C506 1.402 . S
C507 C508 1.375 . S
C507 C510 1.481 . S
C508 C507 1.375 . S
C508 C509 1.367 . S
C508 H522 0.951 . S
C509 C505 1.383 . S
C509 C508 1.367 . S
C509 H523 0.950 . S
C510 C507 1.481 . S
C510 C511 1.297 . S
C510 H524 0.950 . S
C511 C510 1.297 . S
C511 C512 1.479 . S
C511 H525 0.950 . S
C512 C511 1.479 . S
C512 C513 1.375 . S
C512 C518 1.404 . S
C513 C512 1.375 . S
C513 C514 1.369 . S
C513 H526 0.950 . S
C514 C513 1.369 . S
C514 C515 1.392 . S
C514 H527 0.951 . S
C515 C514 1.392 . S
C515 C517 1.384 . S
H516 C518 0.949 . S
C517 C515 1.384 . S
C517 C518 1.385 . S
C517 H519 0.950 . S
C518 C512 1.404 . S
C518 H516 0.949 . S
C518 C517 1.385 . S
H519 C517 0.950 . S
H520 C504 0.951 . S
H521 C506 0.951 . S
H522 C508 0.951 . S
H523 C509 0.950 . S
H524 C510 0.950 . S
H525 C511 0.950 . S
H526 C513 0.950 . S
H527 C514 0.951 . S
C528 C529 1.386 . S
C528 C530 1.383 . S
C528 H544 0.951 . S
C529 C528 1.386 . S
C529 C533 1.383 . S
C530 C528 1.383 . S
C530 C531 1.402 . S
C530 H545 0.951 . S
C531 C530 1.402 . S
C531 C532 1.375 . S
C531 C534 1.481 . S
C532 C531 1.375 . S
C532 C533 1.367 . S
C532 H546 0.951 . S
C533 C529 1.383 . S
C533 C532 1.367 . S
C533 H547 0.950 . S
C534 C531 1.481 . S
C534 C535 1.297 . S
C534 H548 0.950 . S
C535 C534 1.297 . S
C535 C536 1.479 . S
C535 H549 0.950 . S
C536 C535 1.479 . S
C536 C537 1.375 . S
C536 C542 1.404 . S
C537 C536 1.375 . S
C537 C538 1.369 . S
C537 H550 0.950 . S
C538 C537 1.369 . S
C538 C539 1.392 . S
C538 H551 0.943 1_455 S
C539 C538 1.392 . S
C539 C541 1.384 . S
H540 C542 0.949 . S
C541 C539 1.384 . S
C541 C542 1.385 . S
C541 H543 0.950 . S
C542 C536 1.404 . S
C542 H540 0.949 . S
C542 C541 1.385 . S
H543 C541 0.950 . S
H544 C528 0.951 . S
H545 C530 0.951 . S
H546 C532 0.951 . S
H547 C533 0.950 . S
H548 C534 0.950 . S
H549 C535 0.950 . S
H550 C537 0.950 . S
H551 C538 0.943 1_655 S
C552 C553 1.386 . S
C552 C554 1.383 . S
C552 H568 0.951 . S
C553 C552 1.386 . S
C553 C557 1.383 . S
C554 C552 1.383 . S
C554 C555 1.402 . S
C554 H569 0.951 . S
C555 C554 1.402 . S
C555 C556 1.375 . S
C555 C558 1.481 . S
C556 C555 1.375 . S
C556 C557 1.367 . S
C556 H570 0.951 . S
C557 C553 1.383 . S
C557 C556 1.367 . S
C557 H571 0.950 . S
C558 C555 1.481 . S
C558 C559 1.297 . S
C558 H572 0.950 . S
C559 C558 1.297 . S
C559 C560 1.479 . S
C559 H573 0.950 . S
C560 C559 1.479 . S
C560 C561 1.375 . S
C560 C566 1.404 . S
C561 C560 1.375 . S
C561 C562 1.369 . S
C561 H574 0.950 . S
C562 C561 1.369 . S
C562 C563 1.392 . S
C562 H575 0.951 . S
C563 C562 1.392 . S
C563 C565 1.384 . S
H564 C566 0.949 . S
C565 C563 1.384 . S
C565 C566 1.385 . S
C565 H567 0.950 . S
C566 C560 1.404 . S
C566 H564 0.949 . S
C566 C565 1.385 . S
H567 C565 0.950 . S
H568 C552 0.951 . S
H569 C554 0.951 . S
H570 C556 0.951 . S
H571 C557 0.950 . S
H572 C558 0.950 . S
H573 C559 0.950 . S
H574 C561 0.950 . S
H575 C562 0.951 . S
C576 C577 1.386 . S
C576 C578 1.383 . S
C576 H592 0.951 . S
C577 C576 1.386 . S
C577 C581 1.383 . S
C578 C576 1.383 . S
C578 C579 1.402 . S
C578 H593 0.951 1_655 S
C579 C578 1.402 . S
C579 C580 1.375 . S
C579 C582 1.481 . S
C580 C579 1.375 . S
C580 C581 1.367 . S
C580 H594 0.951 . S
C581 C577 1.383 . S
C581 C580 1.367 . S
C581 H595 0.950 . S
C582 C579 1.481 . S
C582 C583 1.297 1_655 S
C582 H596 0.950 . S
C583 C582 1.297 1_455 S
C583 C584 1.479 . S
C583 H597 0.950 . S
C584 C583 1.479 . S
C584 C585 1.375 . S
C584 C590 1.404 . S
C585 C584 1.375 . S
C585 C586 1.369 . S
C585 H598 0.950 . S
C586 C585 1.369 . S
C586 C587 1.392 . S
C586 H599 0.951 . S
C587 C586 1.392 . S
C587 C589 1.384 . S
H588 C590 0.949 . S
C589 C587 1.384 . S
C589 C590 1.385 . S
C589 H591 0.950 . S
C590 C584 1.404 . S
C590 H588 0.949 . S
C590 C589 1.385 . S
H591 C589 0.950 . S
H592 C576 0.951 . S
H593 C578 0.951 1_455 S
H594 C580 0.951 . S
H595 C581 0.950 . S
H596 C582 0.950 . S
H597 C583 0.950 . S
H598 C585 0.950 . S
H599 C586 0.951 . S
C600 C601 1.386 . S
C600 C602 1.383 . S
C600 H616 0.951 . S
C601 C600 1.386 . S
C601 C605 1.383 . S
C602 C600 1.383 . S
C602 C603 1.402 . S
C602 H617 0.951 . S
C603 C602 1.402 . S
C603 C604 1.375 . S
C603 C606 1.481 . S
C604 C603 1.375 . S
C604 C605 1.367 . S
C604 H618 0.951 . S
C605 C601 1.383 . S
C605 C604 1.367 . S
C605 H619 0.950 . S
C606 C603 1.481 . S
C606 C607 1.297 1_655 S
C606 H620 0.950 . S
C607 C606 1.297 1_455 S
C607 C608 1.479 . S
C607 H621 0.950 . S
C608 C607 1.479 . S
C608 C609 1.375 . S
C608 C614 1.404 . S
C609 C608 1.375 . S
C609 C610 1.369 . S
C609 H622 0.950 . S
C610 C609 1.369 . S
C610 C611 1.392 . S
C610 H623 0.951 . S
C611 C610 1.392 . S
C611 C613 1.384 . S
H612 C614 0.949 . S
C613 C611 1.384 . S
C613 C614 1.385 . S
C613 H615 0.950 . S
C614 C608 1.404 . S
C614 H612 0.949 . S
C614 C613 1.385 . S
H615 C613 0.950 . S
H616 C600 0.951 . S
H617 C602 0.951 . S
H618 C604 0.951 . S
H619 C605 0.950 . S
H620 C606 0.950 . S
H621 C607 0.950 . S
H622 C609 0.950 . S
H623 C610 0.951 . S
C624 C625 1.386 . S
C624 C626 1.383 . S
C624 H640 0.951 . S
C625 C624 1.386 . S
C625 C629 1.383 . S
C626 C624 1.383 . S
C626 C627 1.402 . S
C626 H641 0.951 . S
C627 C626 1.402 . S
C627 C628 1.375 . S
C627 C630 1.481 . S
C628 C627 1.375 . S
C628 C629 1.367 . S
C628 H642 0.951 . S
C629 C625 1.383 . S
C629 C628 1.367 . S
C629 H643 0.950 . S
C630 C627 1.481 . S
C630 C631 1.297 1_545 S
C630 H644 0.950 . S
C631 C630 1.297 1_565 S
C631 C632 1.479 . S
C631 H645 0.950 . S
C632 C631 1.479 . S
C632 C633 1.375 . S
C632 C638 1.404 . S
C633 C632 1.375 . S
C633 C634 1.369 . S
C633 H646 0.950 . S
C634 C633 1.369 . S
C634 C635 1.392 . S
C634 H647 0.951 . S
C635 C634 1.392 . S
C635 C637 1.384 . S
H636 C638 0.949 . S
C637 C635 1.384 . S
C637 C638 1.385 . S
C637 H639 0.950 . S
C638 C632 1.404 . S
C638 H636 0.949 . S
C638 C637 1.385 . S
H639 C637 0.950 . S
H640 C624 0.951 . S
H641 C626 0.951 . S
H642 C628 0.951 . S
H643 C629 0.950 . S
H644 C630 0.950 . S
H645 C631 0.950 . S
H646 C633 0.950 . S
H647 C634 0.951 . S
C648 C649 1.386 . S
C648 C650 1.383 . S
C648 H664 0.951 . S
C649 C648 1.386 . S
C649 C653 1.383 . S
C650 C648 1.383 . S
C650 C651 1.402 . S
C650 H665 0.951 1_545 S
C651 C650 1.402 . S
C651 C652 1.375 . S
C651 C654 1.481 . S
C652 C651 1.375 . S
C652 C653 1.367 . S
C652 H666 0.951 . S
C653 C649 1.383 . S
C653 C652 1.367 . S
C653 H667 0.950 . S
C654 C651 1.481 . S
C654 C655 1.297 1_545 S
C654 H668 0.950 . S
C655 C654 1.297 1_565 S
C655 C656 1.479 . S
C655 H669 0.950 . S
C656 C655 1.479 . S
C656 C657 1.375 . S
C656 C662 1.404 . S
C657 C656 1.375 . S
C657 C658 1.369 . S
C657 H670 0.950 . S
C658 C657 1.369 . S
C658 C659 1.392 . S
C658 H671 0.951 . S
C659 C658 1.392 . S
C659 C661 1.384 . S
H660 C662 0.949 . S
C661 C659 1.384 . S
C661 C662 1.385 . S
C661 H663 0.950 . S
C662 C656 1.404 . S
C662 H660 0.949 . S
C662 C661 1.385 . S
H663 C661 0.950 . S
H664 C648 0.951 . S
H665 C650 0.951 1_565 S
H666 C652 0.951 . S
H667 C653 0.950 . S
H668 C654 0.950 . S
H669 C655 0.950 . S
H670 C657 0.950 . S
H671 C658 0.951 . S
C289 C4 1.341 . S
C299 C184 1.304 . S
C313 C40 1.322 . S
C323 C220 1.345 . S
C337 C76 1.318 . S
C347 C256 1.337 . S
C361 C148 1.344 . S
C371 C112 1.323 . S
C385 C14 1.553 . S
C395 C147 1.643 . S
C409 C50 1.556 . S
C419 C183 1.626 1_565 S
C433 C219 1.651 . S
C443 C86 1.619 . S
C457 C122 1.552 . S
C467 C255 1.640 1_545 S
C481 C158 1.553 . S
C491 C3 1.645 1_655 S
C505 C39 1.640 . S
C515 C194 1.525 . S
C529 C230 1.612 . S
C539 C75 1.641 1_455 S
C553 C111 1.658 . S
C563 C266 1.566 . S
C577 C74 0.389 . S
C587 C2 0.481 . S
C601 C110 0.364 . S
C611 C38 0.336 . S
C625 C146 0.413 . S
C635 C218 0.261 . S
C649 C182 0.378 . S
C659 C254 0.492 . S
