# Generated by pormake.
# Topology snk, (6)-cn, num edge types: 1
# Building blocks:
#     Node 0, Type 0, BuildingBlock: CUWYAW_clean_sbu_0, # of connection points: 6
#     Node 1, Type 0, BuildingBlock: CUWYAW_clean_sbu_0, # of connection points: 6
#     Node 2, Type 0, BuildingBlock: CUWYAW_clean_sbu_0, # of connection points: 6
#     Node 3, Type 0, BuildingBlock: CUWYAW_clean_sbu_0, # of connection points: 6
#     Node 4, Type 0, BuildingBlock: CUWYAW_clean_sbu_0, # of connection points: 6
#     Node 5, Type 0, BuildingBlock: CUWYAW_clean_sbu_0, # of connection points: 6
#     Node 6, Type 0, BuildingBlock: CUWYAW_clean_sbu_0, # of connection points: 6
#     Node 7, Type 0, BuildingBlock: CUWYAW_clean_sbu_0, # of connection points: 6
#     Edge 8, Type (0, 0), BuildingBlock: TEMPAE_clean_linker_10, # of connection points: 2
#     Edge 9, Type (0, 0), BuildingBlock: TEMPAE_clean_linker_10, # of connection points: 2
#     Edge 10, Type (0, 0), BuildingBlock: TEMPAE_clean_linker_10, # of connection points: 2
#     Edge 11, Type (0, 0), BuildingBlock: TEMPAE_clean_linker_10, # of connection points: 2
#     Edge 12, Type (0, 0), BuildingBlock: TEMPAE_clean_linker_10, # of connection points: 2
#     Edge 13, Type (0, 0), BuildingBlock: TEMPAE_clean_linker_10, # of connection points: 2
#     Edge 14, Type (0, 0), BuildingBlock: TEMPAE_clean_linker_10, # of connection points: 2
#     Edge 15, Type (0, 0), BuildingBlock: TEMPAE_clean_linker_10, # of connection points: 2
#     Edge 16, Type (0, 0), BuildingBlock: TEMPAE_clean_linker_10, # of connection points: 2
#     Edge 17, Type (0, 0), BuildingBlock: TEMPAE_clean_linker_10, # of connection points: 2
#     Edge 18, Type (0, 0), BuildingBlock: TEMPAE_clean_linker_10, # of connection points: 2
#     Edge 19, Type (0, 0), BuildingBlock: TEMPAE_clean_linker_10, # of connection points: 2
#     Edge 20, Type (0, 0), BuildingBlock: TEMPAE_clean_linker_10, # of connection points: 2
#     Edge 21, Type (0, 0), BuildingBlock: TEMPAE_clean_linker_10, # of connection points: 2
#     Edge 22, Type (0, 0), BuildingBlock: TEMPAE_clean_linker_10, # of connection points: 2
#     Edge 23, Type (0, 0), BuildingBlock: TEMPAE_clean_linker_10, # of connection points: 2
#     Edge 24, Type (0, 0), BuildingBlock: TEMPAE_clean_linker_10, # of connection points: 2
#     Edge 25, Type (0, 0), BuildingBlock: TEMPAE_clean_linker_10, # of connection points: 2
#     Edge 26, Type (0, 0), BuildingBlock: TEMPAE_clean_linker_10, # of connection points: 2
#     Edge 27, Type (0, 0), BuildingBlock: TEMPAE_clean_linker_10, # of connection points: 2
#     Edge 28, Type (0, 0), BuildingBlock: TEMPAE_clean_linker_10, # of connection points: 2
#     Edge 29, Type (0, 0), BuildingBlock: TEMPAE_clean_linker_10, # of connection points: 2
#     Edge 30, Type (0, 0), BuildingBlock: TEMPAE_clean_linker_10, # of connection points: 2
#     Edge 31, Type (0, 0), BuildingBlock: TEMPAE_clean_linker_10, # of connection points: 2
# Relax obj value: 0.081
# Max RMSD: 0.154
# Mean RMSD: 0.125
data_MOF--net-snk--node1-CUWYAW_clean_sbu_0--edge1-TEMPAE_clean_linker_10
_symmetry_space_group_name_H-M    P1
_symmetry_Int_Tables_number       1
_symmetry_cell_setting            triclinic
loop_
_symmetry_equiv_pos_as_xyz
'x, y, z'
_cell_length_a     38.186477
_cell_length_b     38.190385
_cell_length_c     25.714905
_cell_angle_alpha  96.113644
_cell_angle_beta   96.108597
_cell_angle_gamma 90.643882
loop_
_atom_site_label
_atom_site_type_symbol
_atom_site_fract_x
_atom_site_fract_y
_atom_site_fract_z
_atom_type_partial_charge
C0 C 0.04667 0.02848 0.66789 0.0
Eu1 Eu 0.02068 0.01869 0.56927 0.0
C2 C 0.03855 0.01962 0.72013 0.0
C3 C 0.00869 0.03283 0.74257 0.0
C4 C 1.00295 0.02648 0.79362 0.0
C5 C 0.02687 0.00676 0.82349 0.0
C6 C 0.05628 0.99286 0.80044 0.0
C7 C 0.06207 0.9993 0.74941 0.0
C8 C 0.97211 0.05803 0.51923 0.0
C9 C 0.95368 0.96279 0.55487 0.0
C10 C 0.96257 0.97823 0.36075 0.0
Eu11 Eu 0.98972 0.98719 0.45883 0.0
C12 C 0.97233 0.98204 0.3074 0.0
C13 C 1.0006 0.96381 0.28725 0.0
C14 C 0.00807 0.96658 0.23566 0.0
C15 C 0.98755 0.98773 0.20322 0.0
C16 C 0.95965 0.00635 0.22384 0.0
C17 C 0.95209 1.00345 0.27527 0.0
C18 C 0.03771 0.94739 0.50874 0.0
C19 C 0.05762 0.04316 0.47373 0.0
O20 O 0.05597 1.00266 0.63481 0.0
O21 O 0.02624 0.05084 0.64485 0.0
O22 O 0.99942 0.07142 0.54946 0.0
O23 O 0.97065 0.02509 0.5193 0.0
O24 O 0.98202 0.97617 0.58485 0.0
O25 O 0.94749 0.96843 0.50492 0.0
O26 O 0.95975 0.00736 0.39169 0.0
O27 O 0.97713 0.95301 0.38568 0.0
O28 O 0.01041 0.93426 0.47813 0.0
O29 O 0.03959 0.98037 0.50879 0.0
O30 O 0.03191 0.02605 0.44196 0.0
O31 O 0.06131 0.0417 0.52509 0.0
H32 H 0.99005 0.04867 0.72119 0.0
H33 H 0.98027 0.03797 0.81023 0.0
H34 H 0.07495 0.9771 0.82194 0.0
H35 H 0.08529 0.98881 0.7331 0.0
H36 H 0.01682 0.94721 0.31112 0.0
H37 H 0.03 0.95224 0.2212 0.0
H38 H 0.94309 0.02257 0.19978 0.0
H39 H 0.93006 0.01764 0.28979 0.0
C40 C 0.24485 0.7995 0.90611 0.0
Eu41 Eu 0.24766 0.76926 0.81091 0.0
C42 C 0.24681 0.7907 0.96058 0.0
C43 C 0.23494 0.75788 0.97252 0.0
C44 C 0.23655 0.75056 0.0249 0.0
C45 C 0.2502 0.77588 0.06613 0.0
C46 C 0.26261 0.80846 0.05365 0.0
C47 C 0.26088 0.81577 1.00138 0.0
C48 C 0.21229 0.71071 0.76367 0.0
C49 C 0.31002 0.71068 0.8081 0.0
C50 C 0.27374 0.70729 0.6085 0.0
Eu51 Eu 0.27198 0.73831 0.7034 0.0
C52 C 0.26985 0.71581 0.55375 0.0
C53 C 0.28314 0.74762 0.54011 0.0
C54 C 0.27998 0.75456 0.48752 0.0
C55 C 0.26325 0.72993 0.44776 0.0
C56 C 0.24938 0.69843 0.46183 0.0
C57 C 0.25272 0.69145 0.51436 0.0
C58 C 0.30752 0.79695 0.74996 0.0
C59 C 0.21007 0.79762 0.70682 0.0
O60 O 0.274 0.79645 0.88369 0.0
O61 O 0.21696 0.78809 0.87444 0.0
O62 O 0.19795 0.73485 0.79335 0.0
O63 O 0.24462 0.71715 0.76463 0.0
O64 O 0.29509 0.73687 0.83511 0.0
O65 O 0.30157 0.70275 0.75685 0.0
O66 O 0.24521 0.70905 0.63257 0.0
O67 O 0.30181 0.71998 0.63867 0.0
O68 O 0.32162 0.77292 0.71971 0.0
O69 O 0.27523 0.7904 0.74968 0.0
O70 O 0.22477 0.77142 0.67936 0.0
O71 O 0.21889 0.80543 0.75798 0.0
H72 H 0.22421 0.73805 0.94146 0.0
H73 H 0.22653 0.72532 0.03315 0.0
H74 H 0.27391 0.82828 0.08428 0.0
H75 H 0.27048 0.84111 0.99279 0.0
H76 H 0.2961 0.767 0.57001 0.0
H77 H 0.29047 0.77927 0.47796 0.0
H78 H 0.2366 0.67885 0.4321 0.0
H79 H 0.24217 0.66682 0.52421 0.0
C80 C 0.45583 0.02117 0.85446 0.0
Eu81 Eu 0.48552 0.01911 0.95023 0.0
C82 C 0.46541 0.01947 0.80023 0.0
C83 C 0.49545 0.0372 0.78817 0.0
C84 C 0.50327 0.03592 0.73605 0.0
C85 C 0.48137 0.01668 0.69513 0.0
C86 C 0.45165 0.99851 0.70761 0.0
C87 C 0.44375 0.99997 0.75963 0.0
C88 C 0.5418 0.05779 0.99762 0.0
C89 C 0.547 0.9593 0.95328 0.0
C90 C 0.54997 0.99631 0.1523 0.0
Eu91 Eu 0.51861 0.9964 0.05726 0.0
C92 C 0.54127 1.00172 0.20705 0.0
C93 C 0.50946 0.98881 0.22129 0.0
C94 C 0.5027 0.99245 0.274 0.0
C95 C 0.52748 0.00932 0.31349 0.0
C96 C 0.55886 0.02309 0.29866 0.0
C97 C 0.56569 0.0192 0.24602 0.0
C98 C 0.46167 0.95776 1.01121 0.0
C99 C 0.456 0.0549 0.05422 0.0
O100 O 0.45916 0.99215 0.87714 0.0
O101 O 0.46607 0.0493 0.8864 0.0
O102 O 0.51591 0.071 0.96985 0.0
O103 O 0.53794 0.02502 0.99573 0.0
O104 O 0.52028 0.97338 0.92613 0.0
O105 O 0.55489 0.96803 1.00439 0.0
O106 O 0.54921 0.02409 0.12643 0.0
O107 O 0.53668 0.96794 0.12352 0.0
O108 O 0.48693 0.94487 0.04079 0.0
O109 O 0.46626 0.99037 1.01161 0.0
O110 O 0.48344 0.04182 0.08121 0.0
O111 O 0.44791 0.04549 1.00324 0.0
H112 H 0.51278 0.05215 0.81893 0.0
H113 H 0.5266 0.0498 0.72779 0.0
H114 H 0.43409 0.98373 0.67699 0.0
H115 H 0.42049 0.98607 0.76815 0.0
H116 H 0.49009 0.97536 0.19185 0.0
H117 H 0.47843 0.98122 0.28392 0.0
H118 H 0.57823 0.03683 0.32777 0.0
H119 H 0.5903 0.02951 0.23579 0.0
C120 C 0.22219 0.22074 0.11765 0.0
Eu121 Eu 0.23829 0.24273 0.21702 0.0
C122 C 0.23162 0.22722 0.06499 0.0
C123 C 0.20641 0.24151 0.02988 0.0
C124 C 0.21382 0.24676 0.97921 0.0
C125 C 0.2466 0.23761 0.96213 0.0
C126 C 0.27194 0.22326 0.99724 0.0
C127 C 0.26457 0.21816 0.04823 0.0
C128 C 0.20207 0.28917 0.27622 0.0
C129 C 0.29679 0.3073 0.2308 0.0
C130 C 0.29019 0.29274 0.42554 0.0
Eu131 Eu 0.27516 0.26924 0.32647 0.0
C132 C 0.28517 0.28323 0.4788 0.0
C133 C 0.31379 0.27126 0.51063 0.0
C134 C 0.31023 0.26437 0.56219 0.0
C135 C 0.27797 0.26953 0.58342 0.0
C136 C 0.24919 0.28115 0.55133 0.0
C137 C 0.25274 0.28799 0.49968 0.0
C138 C 0.31167 0.22316 0.26739 0.0
C139 C 0.21687 0.20341 0.31211 0.0
O140 O 0.2452 0.20534 0.14872 0.0
O141 O 0.20565 0.24589 0.14295 0.0
O142 O 0.18731 0.26281 0.24534 0.0
O143 O 0.23463 0.29091 0.27236 0.0
O144 O 0.28171 0.27995 0.20032 0.0
O145 O 0.2933 0.31239 0.28162 0.0
O146 O 0.26244 0.30211 0.3962 0.0
O147 O 0.31148 0.27341 0.39848 0.0
O148 O 0.32632 0.24951 0.29852 0.0
O149 O 0.27909 0.2212 0.27115 0.0
O150 O 0.23578 0.22778 0.34405 0.0
O151 O 0.21599 0.2013 0.2604 0.0
H152 H 0.18067 0.2483 0.04148 0.0
H153 H 0.19351 0.25732 0.95295 0.0
H154 H 0.29753 0.21614 0.9854 0.0
H155 H 0.28457 0.20696 0.07425 0.0
H156 H 0.33919 0.26762 0.49587 0.0
H157 H 0.33282 0.25503 0.58548 0.0
H158 H 0.22409 0.28589 0.56656 0.0
H159 H 0.2302 0.29757 0.47653 0.0
C160 C 0.71036 0.28542 0.41886 0.0
Eu161 Eu 0.7333 0.26248 0.3294 0.0
C162 C 0.71629 0.27868 0.47463 0.0
C163 C 0.68992 0.28671 0.50771 0.0
C164 C 0.69507 0.281 0.56086 0.0
C165 C 0.72681 0.26718 0.58218 0.0
C166 C 0.75319 0.25901 0.54872 0.0
C167 C 0.74794 0.26461 0.49544 0.0
C168 C 0.70632 0.20802 0.26055 0.0
C169 C 0.79617 0.20761 0.32739 0.0
C170 C 0.79063 0.22447 0.13624 0.0
Eu171 Eu 0.76861 0.24906 0.22554 0.0
C172 C 0.7813 0.22697 0.07958 0.0
C173 C 0.80467 0.21444 0.0438 0.0
C174 C 0.7972 0.2178 0.9901 0.0
C175 C 0.76612 0.23385 0.97093 0.0
C176 C 0.74257 0.2462 1.00706 0.0
C177 C 0.75008 0.24278 0.06089 0.0
C178 C 0.79428 0.30496 0.29214 0.0
C179 C 0.70646 0.30436 0.22784 0.0
O180 O 0.73645 0.30021 0.39959 0.0
O181 O 0.69458 0.26024 0.38593 0.0
O182 O 0.7085 0.20769 0.31122 0.0
O183 O 0.71649 0.23735 0.24914 0.0
O184 O 0.77762 0.22872 0.35749 0.0
O185 O 0.79461 0.20877 0.27579 0.0
O186 O 0.76841 0.20739 0.16032 0.0
O187 O 0.80327 0.2533 0.16427 0.0
O188 O 0.7938 0.30348 0.24145 0.0
O189 O 0.78507 0.27569 0.30528 0.0
O190 O 0.72333 0.28158 0.19769 0.0
O191 O 0.70907 0.30431 0.27981 0.0
H192 H 0.66534 0.29763 0.49246 0.0
H193 H 0.67437 0.28799 0.58549 0.0
H194 H 0.77776 0.24793 0.5636 0.0
H195 H 0.76861 0.25801 0.47053 0.0
H196 H 0.82901 0.20239 0.05751 0.0
H197 H 0.81622 0.20848 0.96374 0.0
H198 H 0.71823 0.25835 0.99373 0.0
H199 H 0.73168 0.25266 0.08793 0.0
C200 C 0.7252 0.71057 0.60705 0.0
Eu201 Eu 0.73518 0.738 0.70526 0.0
C202 C 0.73005 0.71952 0.55346 0.0
C203 C 0.70186 0.71385 0.51357 0.0
C204 C 0.7057 0.72106 0.46219 0.0
C205 C 0.73794 0.73404 0.44925 0.0
C206 C 0.76621 0.73984 0.48936 0.0
C207 C 0.7623 0.73275 0.54094 0.0
C208 C 0.69504 0.78705 0.7525 0.0
C209 C 0.79036 0.80599 0.71706 0.0
C210 C 0.7764 0.79984 0.91297 0.0
Eu211 Eu 0.76612 0.77221 0.81488 0.0
C212 C 0.77156 0.79131 0.9667 0.0
C213 C 0.79815 0.80113 1.00779 0.0
C214 C 0.79418 0.79441 0.05933 0.0
C215 C 0.76339 0.77775 0.07124 0.0
C216 C 0.73685 0.76752 0.02974 0.0
C217 C 0.74089 0.77423 0.97802 0.0
C218 C 0.80612 0.72313 0.76706 0.0
C219 C 0.71105 0.70434 0.80353 0.0
O220 O 0.75343 0.70556 0.63878 0.0
O221 O 0.70105 0.72764 0.63121 0.0
O222 O 0.68216 0.75887 0.72391 0.0
O223 O 0.72798 0.78902 0.75254 0.0
O224 O 0.77694 0.77713 0.68831 0.0
O225 O 0.78489 0.81329 0.76696 0.0
O226 O 0.74812 0.80487 0.88133 0.0
O227 O 0.80032 0.78237 0.88888 0.0
O228 O 0.81912 0.75126 0.7957 0.0
O229 O 0.77325 0.72128 0.76756 0.0
O230 O 0.72443 0.73327 0.83205 0.0
O231 O 0.71639 0.69695 0.75355 0.0
H232 H 0.67681 0.70349 0.52209 0.0
H233 H 0.68351 0.71582 0.43231 0.0
H234 H 0.79129 0.75017 0.481 0.0
H235 H 0.78451 0.73753 0.57088 0.0
H236 H 0.82209 0.8142 1.00002 0.0
H237 H 0.81547 0.8021 0.08986 0.0
H238 H 0.71265 0.75491 0.03733 0.0
H239 H 0.71993 0.76633 0.94706 0.0
C240 C 0.54688 0.53863 0.17652 0.0
Eu241 Eu 0.52137 0.52507 0.07785 0.0
C242 C 0.5386 0.53278 0.23007 0.0
C243 C 0.53795 0.56187 0.26818 0.0
C244 C 0.5316 0.55737 0.31968 0.0
C245 C 0.52594 0.52353 0.33466 0.0
C246 C 0.52618 0.49434 0.29618 0.0
C247 C 0.53243 0.4989 0.24446 0.0
C248 C 0.47414 0.56391 0.02444 0.0
C249 C 0.45412 0.46902 0.06665 0.0
C250 C 0.46418 0.47745 0.86993 0.0
Eu251 Eu 0.48942 0.49081 0.96875 0.0
C252 C 0.47261 0.48395 0.81663 0.0
C253 C 0.47795 0.45511 0.77988 0.0
C254 C 0.48467 0.46012 0.7287 0.0
C255 C 0.48602 0.49417 0.71271 0.0
C256 C 0.48072 0.52314 0.74958 0.0
C257 C 0.47415 0.51811 0.801 0.0
C258 C 0.53722 0.45238 0.0223 0.0
C259 C 0.55636 0.54695 0.97953 0.0
O260 O 0.55586 0.51145 0.14566 0.0
O261 O 0.52665 0.5601 0.1513 0.0
O262 O 0.50192 0.57727 0.05358 0.0
O263 O 0.47154 0.53122 0.02702 0.0
O264 O 0.48237 0.48351 0.09576 0.0
O265 O 0.44767 0.47276 1.01601 0.0
O266 O 0.45459 0.50419 0.9011 0.0
O267 O 0.48467 0.45611 0.89502 0.0
O268 O 0.50948 0.4387 0.99335 0.0
O269 O 0.53935 0.48501 0.01934 0.0
O270 O 0.528 0.53253 0.95072 0.0
O271 O 0.56308 0.54307 0.03014 0.0
H272 H 0.54258 0.58826 0.25814 0.0
H273 H 0.53098 0.58053 0.34776 0.0
H274 H 0.52225 0.46787 0.30624 0.0
H275 H 0.53278 0.47589 0.21599 0.0
H276 H 0.47656 0.42849 0.79063 0.0
H277 H 0.48809 0.43718 0.70126 0.0
H278 H 0.48189 0.54974 0.73881 0.0
H279 H 0.47012 0.54096 0.8283 0.0
C280 C 0.96066 0.52774 0.37745 0.0
Eu281 Eu 0.99373 0.51814 0.46865 0.0
C282 C 0.96818 0.52535 0.32218 0.0
C283 C 1.00237 0.53106 0.30892 0.0
C284 C 0.00902 0.52759 0.25611 0.0
C285 C 0.98169 0.51803 0.2157 0.0
C286 C 0.94753 0.51228 0.22934 0.0
C287 C 0.94088 0.51593 0.28207 0.0
C288 C 0.05464 0.54839 0.51548 0.0
C289 C 0.05468 0.46135 0.47665 0.0
C290 C 0.05242 0.4854 0.67277 0.0
Eu291 Eu 0.01987 0.4955 0.58137 0.0
C292 C 0.04425 0.48592 0.72748 0.0
C293 C 0.00944 0.48264 0.73945 0.0
C294 C 1.00215 0.48496 0.79195 0.0
C295 C 0.02954 0.49083 0.83339 0.0
C296 C 0.06436 0.49407 0.82091 0.0
C297 C 0.0716 0.49165 0.76849 0.0
C298 C 0.95901 0.46527 0.53413 0.0
C299 C 0.95917 0.55263 0.5734 0.0
O300 O 0.96005 0.49782 0.39789 0.0
O301 O 0.97653 0.55326 0.40992 0.0
O302 O 0.04715 0.54403 0.46474 0.0
O303 O 0.02831 0.54101 0.53813 0.0
O304 O 0.02905 0.47403 0.44582 0.0
O305 O 0.05844 0.46895 0.5286 0.0
O306 O 0.05142 0.51593 0.654 0.0
O307 O 0.03816 0.45981 0.63882 0.0
O308 O 0.96642 0.46959 0.58487 0.0
O309 O 0.98547 0.47259 0.51183 0.0
O310 O 0.98456 0.53963 0.60425 0.0
O311 O 0.95555 0.54525 0.52144 0.0
H312 H 0.02393 0.5379 0.33937 0.0
H313 H 0.03569 0.53177 0.24695 0.0
H314 H 0.92585 0.50522 0.19919 0.0
H315 H 0.91438 0.51121 0.29158 0.0
H316 H 0.98791 0.47855 0.70825 0.0
H317 H 0.97509 0.482 0.80005 0.0
H318 H 0.08603 0.49924 0.85167 0.0
H319 H 0.09858 0.49474 0.75995 0.0
C320 C 0.09753 0.05263 0.40537 0.0
C321 C 0.08261 0.0653 0.45095 0.0
C322 C 0.12101 0.07381 0.3831 0.0
C323 C 0.1284 0.10898 0.40567 0.0
C324 C 0.11289 0.12195 0.45139 0.0
C325 C 0.09077 0.09968 0.47411 0.0
C326 C 0.13797 0.05854 0.33557 0.0
C327 C 0.11887 0.15965 0.47546 0.0
C328 C 0.20892 0.16038 0.37676 0.0
C329 C 0.19481 0.1785 0.33512 0.0
C330 C 0.18788 0.13677 0.39903 0.0
C331 C 0.15156 0.13252 0.38074 0.0
C332 C 0.13716 0.15136 0.33919 0.0
C333 C 0.15917 0.17357 0.31614 0.0
C334 C 0.20453 0.11625 0.44188 0.0
C335 C 0.09836 0.14876 0.31993 0.0
H336 H 0.09127 0.02594 0.38768 0.0
H337 H 0.07881 0.10954 0.50904 0.0
H338 H 0.12905 0.07264 0.3012 0.0
H339 H 0.16703 0.06213 0.34298 0.0
H340 H 0.13154 0.03003 0.32525 0.0
H341 H 0.10408 0.16589 0.51011 0.0
H342 H 0.1473 0.16494 0.48793 0.0
H343 H 0.11058 0.17782 0.44574 0.0
H344 H 0.23657 0.1642 0.3912 0.0
H345 H 0.14826 0.18801 0.28432 0.0
H346 H 0.19896 0.08765 0.43116 0.0
H347 H 0.19299 0.1239 0.4791 0.0
H348 H 0.23352 0.12073 0.44906 0.0
H349 H 0.0908 0.12123 0.30426 0.0
H350 H 0.09114 0.16611 0.2886 0.0
H351 H 0.08265 0.15613 0.35318 0.0
C352 C 0.0958 0.94069 0.56104 0.0
C353 C 0.06283 0.9264 0.53944 0.0
C354 C 0.12014 0.9205 0.58919 0.0
C355 C 0.11096 0.88545 0.59662 0.0
C356 C 0.07734 0.87124 0.5758 0.0
C357 C 0.0538 0.8918 0.54703 0.0
C358 C 0.15587 0.93644 0.61022 0.0
C359 C 0.06626 0.83428 0.58376 0.0
C360 C 0.18293 0.8198 0.62394 0.0
C361 C 0.18476 0.82016 0.67878 0.0
C362 C 0.15944 0.84133 0.59687 0.0
C363 C 0.13674 0.86332 0.62516 0.0
C364 C 0.13829 0.86367 0.68048 0.0
C365 C 0.16248 0.84229 0.70668 0.0
C366 C 0.15896 0.84059 0.53796 0.0
C367 C 0.1141 0.8863 0.71191 0.0
H368 H 0.10278 0.96747 0.55514 0.0
H369 H 0.02816 0.88085 0.53074 0.0
H370 H 0.16021 0.93601 0.65349 0.0
H371 H 0.17679 0.92055 0.593 0.0
H372 H 0.15886 0.96405 0.60119 0.0
H373 H 0.03865 0.82772 0.567 0.0
H374 H 0.08385 0.81502 0.56495 0.0
H375 H 0.06881 0.83103 0.62636 0.0
H376 H 0.20022 0.80298 0.6021 0.0
H377 H 0.1636 0.84258 0.74902 0.0
H378 H 0.1638 0.86754 0.52746 0.0
H379 H 0.13264 0.83157 0.51837 0.0
H380 H 0.17909 0.8229 0.52204 0.0
H381 H 0.11792 0.9144 0.70612 0.0
H382 H 0.11862 0.88359 0.75467 0.0
H383 H 0.08624 0.87896 0.69782 0.0
C384 C 0.36314 0.83078 0.78166 0.0
C385 C 0.32714 0.82533 0.78447 0.0
C386 C 0.38277 0.8553 0.81808 0.0
C387 C 0.36626 0.87318 0.85969 0.0
C388 C 0.32966 0.86845 0.86169 0.0
C389 C 0.31027 0.84564 0.82254 0.0
C390 C 0.42134 0.86136 0.81282 0.0
C391 C 0.31138 0.88564 0.90677 0.0
C392 C 0.43057 0.90057 0.9798 0.0
C393 C 0.4341 0.9368 0.97697 0.0
C394 C 0.40679 0.87985 0.94361 0.0
C395 C 0.3877 0.89557 0.90219 0.0
C396 C 0.3905 0.93234 0.90018 0.0
C397 C 0.41261 0.95272 0.9391 0.0
C398 C 0.40282 0.84102 0.94885 0.0
C399 C 0.37193 0.94987 0.85531 0.0
H400 H 0.37603 0.81566 0.75136 0.0
H401 H 0.28211 0.8425 0.82319 0.0
H402 H 0.42772 0.89001 0.81656 0.0
H403 H 0.43768 0.84999 0.84485 0.0
H404 H 0.42886 0.84912 0.77456 0.0
H405 H 0.28251 0.88019 0.90129 0.0
H406 H 0.32243 0.87562 0.94391 0.0
H407 H 0.31609 0.91454 0.91161 0.0
H408 H 0.44662 0.88838 1.00994 0.0
H409 H 0.41427 0.98098 0.93841 0.0
H410 H 0.4149 0.82545 0.91676 0.0
H411 H 0.37452 0.83313 0.94518 0.0
H412 H 0.41566 0.83402 0.98707 0.0
H413 H 0.38157 0.93897 0.81781 0.0
H414 H 0.37647 0.97887 0.86024 0.0
H415 H 0.34318 0.94427 0.85162 0.0
C416 C 0.43416 0.08071 0.13781 0.0
C417 C 0.43288 0.07915 0.08289 0.0
C418 C 0.41285 0.10376 0.16593 0.0
C419 C 0.3901 0.1263 0.13861 0.0
C420 C 0.38855 0.12482 0.08314 0.0
C421 C 0.40978 0.10102 0.05586 0.0
C422 C 0.41488 0.10415 0.22498 0.0
C423 C 0.36502 0.14885 0.05278 0.0
C424 C 0.3156 0.16652 0.21026 0.0
C425 C 0.33074 0.19904 0.23226 0.0
C426 C 0.33436 0.14274 0.17883 0.0
C427 C 0.36878 0.15207 0.16856 0.0
C428 C 0.38362 0.18546 0.18925 0.0
C429 C 0.36452 0.20842 0.22128 0.0
C430 C 0.31781 0.10724 0.15797 0.0
C431 C 0.41994 0.19669 0.17836 0.0
H432 H 0.45172 0.06369 0.15897 0.0
H433 H 0.4088 0.10006 1.01345 0.0
H434 H 0.42451 0.13037 0.24425 0.0
H435 H 0.38826 0.09958 0.23691 0.0
H436 H 0.43271 0.08383 0.23997 0.0
H437 H 0.36627 0.14389 1.00966 0.0
H438 H 0.3373 0.1454 0.06083 0.0
H439 H 0.37287 0.17673 0.06585 0.0
H440 H 0.28942 0.1593 0.21874 0.0
H441 H 0.37607 0.23378 0.2378 0.0
H442 H 0.33361 0.08613 0.1748 0.0
H443 H 0.31774 0.10288 0.11462 0.0
H444 H 0.29032 0.1046 0.16775 0.0
H445 H 0.43992 0.17945 0.19638 0.0
H446 H 0.42661 0.22445 0.1942 0.0
H447 H 0.42188 0.19375 0.13537 0.0
C448 C 0.94033 0.92322 0.62187 0.0
C449 C 0.92862 0.94084 0.57832 0.0
C450 C 0.91731 0.90168 0.6442 0.0
C451 C 0.88145 0.8983 0.6233 0.0
C452 C 0.86932 0.9165 0.57985 0.0
C453 C 0.89317 0.93721 0.55743 0.0
C454 C 0.93154 0.88209 0.68966 0.0
C455 C 0.83114 0.91418 0.55715 0.0
C456 C 0.82949 0.81738 0.6485 0.0
C457 C 0.81267 0.83011 0.69243 0.0
C458 C 0.85181 0.8393 0.62557 0.0
C459 C 0.8569 0.87507 0.64631 0.0
C460 C 0.83938 0.88828 0.68997 0.0
C461 C 0.8178 0.86552 0.71292 0.0
C462 C 0.87057 0.82392 0.57985 0.0
C463 C 0.84353 0.92642 0.71254 0.0
H464 H 0.96779 0.92568 0.63791 0.0
H465 H 0.88393 0.95098 0.52402 0.0
H466 H 0.91741 0.88987 0.72446 0.0
H467 H 0.92697 0.85334 0.67916 0.0
H468 H 0.96019 0.88722 0.70087 0.0
H469 H 0.82561 0.9311 0.52481 0.0
H470 H 0.82375 0.88655 0.54173 0.0
H471 H 0.81403 0.9222 0.58843 0.0
H472 H 0.8259 0.78995 0.63273 0.0
H473 H 0.80468 0.87556 0.74663 0.0
H474 H 0.89949 0.82647 0.59048 0.0
H475 H 0.86403 0.83871 0.54538 0.0
H476 H 0.86351 0.79567 0.56809 0.0
H477 H 0.87138 0.9324 0.72832 0.0
H478 H 0.82662 0.93302 0.74462 0.0
H479 H 0.83676 0.94378 0.68114 0.0
C480 C 0.95294 0.11434 0.48529 0.0
C481 C 0.9463 0.07858 0.48885 0.0
C482 C 0.9286 0.13434 0.45688 0.0
C483 C 0.89672 0.11823 0.43183 0.0
C484 C 0.89005 0.08199 0.43496 0.0
C485 C 0.91499 0.06256 0.46335 0.0
C486 C 0.93685 0.17282 0.45411 0.0
C487 C 0.85633 0.06389 0.40903 0.0
C488 C 0.82028 0.17918 0.40658 0.0
C489 C 0.82083 0.18325 0.35304 0.0
C490 C 0.84437 0.15758 0.43233 0.0
C491 C 0.86987 0.13969 0.40406 0.0
C492 C 0.87028 0.14318 0.34983 0.0
C493 C 0.84568 0.16483 0.32491 0.0
C494 C 0.84284 0.15434 0.49009 0.0
C495 C 0.89719 0.12464 0.31843 0.0
H496 H 0.97724 0.12672 0.5047 0.0
H497 H 0.9098 0.03489 0.46608 0.0
H498 H 0.93546 0.17834 0.41245 0.0
H499 H 0.91694 0.18929 0.47289 0.0
H500 H 0.96338 0.18101 0.47397 0.0
H501 H 0.85557 0.03536 0.41403 0.0
H502 H 0.83345 0.07645 0.42604 0.0
H503 H 0.85322 0.06689 0.36636 0.0
H504 H 0.8011 0.19308 0.42869 0.0
H505 H 0.8464 0.16781 0.2836 0.0
H506 H 0.86779 0.16463 0.51293 0.0
H507 H 0.84 0.12622 0.49652 0.0
H508 H 0.82062 0.16898 0.50595 0.0
H509 H 0.92407 0.13417 0.33486 0.0
H510 H 0.89324 0.12907 0.27622 0.0
H511 H 0.89593 0.09589 0.32136 0.0
C512 C 0.66545 0.1559 0.23897 0.0
C513 C 0.6861 0.18214 0.22218 0.0
C514 C 0.64304 0.13378 0.20252 0.0
C515 C 0.64225 0.13753 0.1482 0.0
C516 C 0.66442 0.16286 0.13102 0.0
C517 C 0.68554 0.18536 0.16835 0.0
C518 C 0.61906 0.10761 0.22224 0.0
C519 C 0.66501 0.16703 0.07334 0.0
C520 C 0.60033 0.06398 0.05004 0.0
C521 C 0.56786 0.07847 0.03467 0.0
C522 C 0.62511 0.08306 0.0867 0.0
C523 C 0.61649 0.11679 0.10953 0.0
C524 C 0.58338 0.13122 0.09465 0.0
C525 C 0.55962 0.11204 0.05661 0.0
C526 C 0.66056 0.06737 0.10054 0.0
C527 C 0.5729 0.16671 0.11929 0.0
H528 H 0.66568 0.15362 0.28067 0.0
H529 H 0.70102 0.20602 0.15534 0.0
H530 H 0.5912 0.11484 0.21291 0.0
H531 H 0.62217 0.08087 0.20209 0.0
H532 H 0.62428 0.10661 0.26539 0.0
H533 H 0.68682 0.18488 0.06639 0.0
H534 H 0.66787 0.14104 0.0506 0.0
H535 H 0.63974 0.17799 0.05772 0.0
H536 H 0.60647 0.03788 0.03289 0.0
H537 H 0.53418 0.12288 0.04512 0.0
H538 H 0.66458 0.06458 0.14323 0.0
H539 H 0.68183 0.08524 0.09195 0.0
H540 H 0.66332 0.04111 0.07838 0.0
H541 H 0.57532 0.16718 0.16275 0.0
H542 H 0.54544 0.17324 0.10536 0.0
H543 H 0.59088 0.1876 0.10991 0.0
C544 C 0.6885 0.84532 0.80405 0.0
C545 C 0.67416 0.81224 0.78317 0.0
C546 C 0.66861 0.86968 0.83264 0.0
C547 C 0.63382 0.8604 0.8412 0.0
C548 C 0.61952 0.8267 0.82099 0.0
C549 C 0.63979 0.80312 0.79179 0.0
C550 C 0.68461 0.90549 0.85302 0.0
C551 C 0.58279 0.81558 0.83011 0.0
C552 C 0.59206 0.91213 0.95239 0.0
C553 C 0.56957 0.93428 0.92488 0.0
C554 C 0.61311 0.88789 0.92568 0.0
C555 C 0.61203 0.88618 0.87025 0.0
C556 C 0.58971 0.90879 0.84236 0.0
C557 C 0.56854 0.93234 0.86995 0.0
C558 C 0.63615 0.86379 0.95667 0.0
C559 C 0.58819 0.90811 0.78333 0.0
H560 H 0.71512 0.85236 0.79736 0.0
H561 H 0.62882 0.77739 0.77605 0.0
H562 H 0.66843 0.92631 0.83605 0.0
H563 H 0.68471 0.90997 0.89636 0.0
H564 H 0.71204 0.90852 0.84317 0.0
H565 H 0.57612 0.78795 0.81355 0.0
H566 H 0.58013 0.81816 0.87289 0.0
H567 H 0.56324 0.83312 0.81183 0.0
H568 H 0.59283 0.91332 0.9948 0.0
H569 H 0.55141 0.94952 0.84841 0.0
H570 H 0.6641 0.86756 0.94997 0.0
H571 H 0.62868 0.83591 0.94296 0.0
H572 H 0.63402 0.86846 0.99959 0.0
H573 H 0.61492 0.9129 0.77196 0.0
H574 H 0.57028 0.92817 0.76773 0.0
H575 H 0.57899 0.88173 0.76415 0.0
C576 C 0.61592 0.57372 0.97306 0.0
C577 C 0.58025 0.56887 0.95393 0.0
C578 C 0.63851 0.59438 0.94826 0.0
C579 C 0.62484 0.61129 0.90419 0.0
C580 C 0.58873 0.60667 0.8851 0.0
C581 C 0.56702 0.58523 0.9098 0.0
C582 C 0.67698 0.5981 0.96915 0.0
C583 C 0.57283 0.62491 0.83916 0.0
C584 C 0.67298 0.69298 0.87332 0.0
C585 C 0.6894 0.68012 0.82905 0.0
C586 C 0.65204 0.67086 0.89816 0.0
C587 C 0.64789 0.63475 0.87896 0.0
C588 C 0.66483 0.62145 0.83473 0.0
C589 C 0.68507 0.6444 0.8099 0.0
C590 C 0.63384 0.68635 0.94439 0.0
C591 C 0.6616 0.58299 0.8137 0.0
H592 H 0.62629 0.56096 1.00695 0.0
H593 H 0.53936 0.58188 0.89512 0.0
H594 H 0.69356 0.59014 0.93717 0.0
H595 H 0.68373 0.62606 0.98334 0.0
H596 H 0.68384 0.58188 1.002 0.0
H597 H 0.54426 0.61862 0.82922 0.0
H598 H 0.57639 0.65386 0.84839 0.0
H599 H 0.58654 0.6171 0.80394 0.0
H600 H 0.67592 0.72064 0.88805 0.0
H601 H 0.6979 0.63427 0.77595 0.0
H602 H 0.64186 0.67251 0.9794 0.0
H603 H 0.60489 0.68259 0.93529 0.0
H604 H 0.63993 0.71493 0.95463 0.0
H605 H 0.66994 0.56643 0.84556 0.0
H606 H 0.67777 0.57646 0.78069 0.0
H607 H 0.63369 0.57587 0.7997 0.0
C608 C 0.65898 0.3496 0.2294 0.0
C609 C 0.68256 0.32909 0.20158 0.0
C610 C 0.63508 0.37151 0.2035 0.0
C611 C 0.63494 0.373 0.14864 0.0
C612 C 0.65923 0.35298 0.12071 0.0
C613 C 0.68263 0.33131 0.14743 0.0
C614 C 0.60949 0.39245 0.23453 0.0
C615 C 0.66011 0.35394 0.06226 0.0
C616 C 0.55313 0.39814 0.06462 0.0
C617 C 0.5616 0.43276 0.05641 0.0
C618 C 0.57624 0.37881 0.09613 0.0
C619 C 0.60872 0.39445 0.11966 0.0
C620 C 0.61705 0.4297 0.11231 0.0
C621 C 0.59334 0.44846 0.08074 0.0
C622 C 0.56628 0.34137 0.10322 0.0
C623 C 0.65142 0.44727 0.13659 0.0
H624 H 0.6587 0.34807 0.27119 0.0
H625 H 0.70087 0.31582 0.1255 0.0
H626 H 0.61162 0.42076 0.22887 0.0
H627 H 0.58212 0.38346 0.21997 0.0
H628 H 0.61405 0.38971 0.27729 0.0
H629 H 0.6814 0.33768 0.04668 0.0
H630 H 0.63453 0.34412 0.04087 0.0
H631 H 0.66403 0.38145 0.0535 0.0
H632 H 0.52844 0.38605 0.04618 0.0
H633 H 0.59993 0.47525 0.0744 0.0
H634 H 0.56816 0.33782 0.14567 0.0
H635 H 0.58495 0.32301 0.08505 0.0
H636 H 0.53914 0.33389 0.08512 0.0
H637 H 0.65496 0.44529 0.17955 0.0
H638 H 0.65289 0.4755 0.12998 0.0
H639 H 0.67369 0.43356 0.11948 0.0
C640 C 0.90905 0.45941 0.46437 0.0
C641 C 0.92827 0.44568 0.50651 0.0
C642 C 0.88379 0.43858 0.43106 0.0
C643 C 0.87769 0.40338 0.44084 0.0
C644 C 0.89534 0.3903 0.48585 0.0
C645 C 0.92053 0.4118 0.51842 0.0
C646 C 0.86525 0.45359 0.38381 0.0
C647 C 0.88933 0.35294 0.49763 0.0
C648 C 0.79913 0.35104 0.36822 0.0
C649 C 0.81487 0.33145 0.32835 0.0
C650 C 0.81916 0.37493 0.40515 0.0
C651 C 0.85562 0.37924 0.40139 0.0
C652 C 0.87136 0.36007 0.36005 0.0
C653 C 0.85065 0.3364 0.32378 0.0
C654 C 0.80145 0.39527 0.44829 0.0
C655 C 0.91018 0.36409 0.35471 0.0
H656 H 0.91433 0.48622 0.45693 0.0
H657 H 0.93555 0.40146 0.55138 0.0
H658 H 0.87471 0.44055 0.34741 0.0
H659 H 0.83645 0.44837 0.38105 0.0
H660 H 0.87012 0.48243 0.38514 0.0
H661 H 0.90242 0.34805 0.5368 0.0
H662 H 0.86074 0.34693 0.49626 0.0
H663 H 0.89985 0.33439 0.46718 0.0
H664 H 0.77112 0.34803 0.37007 0.0
H665 H 0.86256 0.32114 0.29251 0.0
H666 H 0.80519 0.42398 0.44675 0.0
H667 H 0.81374 0.3892 0.48727 0.0
H668 H 0.77277 0.38904 0.44529 0.0
H669 H 0.91693 0.39202 0.35126 0.0
H670 H 0.91814 0.34759 0.31987 0.0
H671 H 0.92591 0.35656 0.39046 0.0
C672 C 0.86136 0.70697 0.72777 0.0
C673 C 0.82669 0.69823 0.73533 0.0
C674 C 0.8815 0.68351 0.69815 0.0
C675 C 0.86669 0.65035 0.67617 0.0
C676 C 0.83145 0.64163 0.68308 0.0
C677 C 0.81179 0.66579 0.71244 0.0
C678 C 0.91883 0.69397 0.69117 0.0
C679 C 0.81483 0.60646 0.6606 0.0
C680 C 0.91282 0.59874 0.56924 0.0
C681 C 0.93409 0.57656 0.59859 0.0
C682 C 0.89035 0.62267 0.59378 0.0
C683 C 0.88887 0.62407 0.64878 0.0
C684 C 0.90959 0.60108 0.67829 0.0
C685 C 0.93203 0.57778 0.65293 0.0
C686 C 0.86884 0.64701 0.56113 0.0
C687 C 0.90847 0.60144 0.7369 0.0
H688 H 0.8728 0.73222 0.74504 0.0
H689 H 0.78492 0.65905 0.71822 0.0
H690 H 0.93751 0.67616 0.7107 0.0
H691 H 0.92269 0.69118 0.64878 0.0
H692 H 0.92563 0.72152 0.70794 0.0
H693 H 0.78666 0.60442 0.66736 0.0
H694 H 0.81679 0.60205 0.61768 0.0
H695 H 0.82924 0.58502 0.67888 0.0
H696 H 0.9143 0.59801 0.52728 0.0
H697 H 0.94807 0.56049 0.6759 0.0
H698 H 0.87704 0.67476 0.57452 0.0
H699 H 0.84054 0.64431 0.56651 0.0
H700 H 0.8719 0.64168 0.51855 0.0
H701 H 0.91787 0.62748 0.75714 0.0
H702 H 0.92501 0.58076 0.75369 0.0
H703 H 0.88097 0.59741 0.74565 0.0
C704 C 0.32318 0.36742 0.22814 0.0
C705 C 0.31896 0.33203 0.20717 0.0
C706 C 0.34402 0.391 0.20543 0.0
C707 C 0.36185 0.37861 0.16169 0.0
C708 C 0.35797 0.34276 0.14083 0.0
C709 C 0.3362 0.32005 0.16336 0.0
C710 C 0.34682 0.42918 0.22806 0.0
C711 C 0.37724 0.32822 0.09519 0.0
C712 C 0.39458 0.4418 0.07132 0.0
C713 C 0.43003 0.44688 0.09159 0.0
C714 C 0.37183 0.4204 0.0946 0.0
C715 C 0.38512 0.4029 0.13825 0.0
C716 C 0.42098 0.40787 0.15867 0.0
C717 C 0.44285 0.43013 0.13552 0.0
C718 C 0.33359 0.41645 0.07245 0.0
C719 C 0.43647 0.38906 0.20425 0.0
H720 H 0.3097 0.37682 0.26179 0.0
H721 H 0.33331 0.29261 0.14733 0.0
H722 H 0.37455 0.4363 0.24318 0.0
H723 H 0.33883 0.44632 0.19681 0.0
H724 H 0.33011 0.43494 0.26062 0.0
H725 H 0.37191 0.29957 0.08428 0.0
H726 H 0.36937 0.34224 0.06032 0.0
H727 H 0.40604 0.33264 0.10532 0.0
H728 H 0.3845 0.45487 0.03758 0.0
H729 H 0.47034 0.43368 0.15107 0.0
H730 H 0.31644 0.42343 0.10406 0.0
H731 H 0.32738 0.38863 0.05684 0.0
H732 H 0.32695 0.43333 0.04033 0.0
H733 H 0.4221 0.39597 0.23906 0.0
H734 H 0.46487 0.39573 0.21538 0.0
H735 H 0.43345 0.36015 0.19386 0.0
C736 C 0.46171 0.61697 0.97768 0.0
C737 C 0.45082 0.58382 0.98937 0.0
C738 C 0.43976 0.63665 0.9451 0.0
C739 C 0.40587 0.62307 0.92448 0.0
C740 C 0.39499 0.58929 0.93553 0.0
C741 C 0.41775 0.56993 0.9676 0.0
C742 C 0.4526 0.67226 0.93352 0.0
C743 C 0.35895 0.57404 0.91469 0.0
C744 C 0.33653 0.69019 0.89236 0.0
C745 C 0.33475 0.68818 0.83732 0.0
C746 C 0.35921 0.66882 0.92097 0.0
C747 C 0.38111 0.64513 0.89406 0.0
C748 C 0.37964 0.64302 0.83853 0.0
C749 C 0.35627 0.66442 0.81075 0.0
C750 C 0.35968 0.67159 0.98009 0.0
C751 C 0.40297 0.61842 0.80858 0.0
H752 H 0.4875 0.62754 0.99398 0.0
H753 H 0.40937 0.54423 0.97657 0.0
H754 H 0.44998 0.67378 0.89044 0.0
H755 H 0.43614 0.69317 0.95104 0.0
H756 H 0.48054 0.67788 0.94941 0.0
H757 H 0.35508 0.54686 0.92505 0.0
H758 H 0.33841 0.59094 0.931 0.0
H759 H 0.35488 0.5736 0.87127 0.0
H760 H 0.31983 0.70825 0.91328 0.0
H761 H 0.35514 0.66279 0.76826 0.0
H762 H 0.3863 0.68011 0.99908 0.0
H763 H 0.35381 0.64542 0.99257 0.0
H764 H 0.34025 0.69059 0.99488 0.0
H765 H 0.43106 0.62505 0.82213 0.0
H766 H 0.39854 0.61976 0.76545 0.0
H767 H 0.39815 0.59088 0.81651 0.0
C768 C 0.21107 0.65952 0.69506 0.0
C769 C 0.19289 0.6829 0.72774 0.0
C770 C 0.19281 0.63551 0.65631 0.0
C771 C 0.1556 0.63396 0.65195 0.0
C772 C 0.1372 0.65632 0.68674 0.0
C773 C 0.15612 0.68084 0.72396 0.0
C774 C 0.21323 0.61265 0.61913 0.0
C775 C 0.09749 0.65472 0.68413 0.0
C776 C 0.09682 0.59931 0.52924 0.0
C777 C 0.08606 0.56684 0.54329 0.0
C778 C 0.12177 0.62061 0.56272 0.0
C779 C 0.13551 0.60904 0.61123 0.0
C780 C 0.12676 0.57491 0.62309 0.0
C781 C 0.10253 0.55396 0.58822 0.0
C782 C 0.13148 0.65641 0.548 0.0
C783 C 0.14075 0.56155 0.67433 0.0
H784 H 0.23961 0.66072 0.6987 0.0
H785 H 0.14209 0.69873 0.74959 0.0
H786 H 0.20679 0.58444 0.62084 0.0
H787 H 0.20557 0.61844 0.57813 0.0
H788 H 0.24216 0.61691 0.62823 0.0
H789 H 0.08739 0.6728 0.71561 0.0
H790 H 0.08572 0.66186 0.64546 0.0
H791 H 0.08834 0.62749 0.68772 0.0
H792 H 0.08422 0.60895 0.49388 0.0
H793 H 0.09557 0.52784 0.59677 0.0
H794 H 0.16039 0.6612 0.55518 0.0
H795 H 0.11892 0.6771 0.57294 0.0
H796 H 0.12269 0.65926 0.5061 0.0
H797 H 0.16973 0.56548 0.68168 0.0
H798 H 0.13422 0.53318 0.67498 0.0
H799 H 0.12912 0.57675 0.70725 0.0
C800 C 0.1993 0.3456 0.3344 0.0
C801 C 0.18308 0.31397 0.31058 0.0
C802 C 0.18079 0.37005 0.36518 0.0
C803 C 0.14538 0.36243 0.37257 0.0
C804 C 0.12934 0.32994 0.34997 0.0
C805 C 0.14834 0.30619 0.31897 0.0
C806 C 0.19872 0.40449 0.38828 0.0
C807 C 0.09178 0.32063 0.3574 0.0
C808 C 0.10056 0.41474 0.48039 0.0
C809 C 0.07975 0.43746 0.45137 0.0
C810 C 0.12261 0.39051 0.45551 0.0
C811 C 0.12415 0.38936 0.40055 0.0
C812 C 0.10407 0.41304 0.37147 0.0
C813 C 0.08202 0.43662 0.39714 0.0
C814 C 0.14344 0.36545 0.48771 0.0
C815 C 0.10529 0.41302 0.31293 0.0
H816 H 0.22621 0.35163 0.32796 0.0
H817 H 0.13588 0.28156 0.30098 0.0
H818 H 0.18536 0.42656 0.37012 0.0
H819 H 0.19661 0.4089 0.43116 0.0
H820 H 0.227 0.4054 0.38181 0.0
H821 H 0.0841 0.29327 0.34058 0.0
H822 H 0.08813 0.32355 0.39986 0.0
H823 H 0.07362 0.339 0.33811 0.0
H824 H 0.0989 0.41518 0.52227 0.0
H825 H 0.06637 0.45436 0.37446 0.0
H826 H 0.17172 0.36699 0.48163 0.0
H827 H 0.13409 0.338 0.47452 0.0
H828 H 0.14094 0.37103 0.53042 0.0
H829 H 0.13292 0.41611 0.30417 0.0
H830 H 0.08957 0.43442 0.29663 0.0
H831 H 0.09494 0.38742 0.29223 0.0
C832 C 0.05053 1.0045 0.91816 0.0
C833 C 0.02174 1.00183 0.87901 0.0
C834 C 0.04594 1.00142 0.97101 0.0
C835 C 0.01171 0.99566 0.98528 0.0
C836 C 0.98259 0.99249 0.94594 0.0
C837 C 0.98795 0.99554 0.89336 0.0
C838 C 0.07769 1.00493 1.01173 0.0
C839 C 0.94567 0.98624 0.95948 0.0
C840 C 1.00178 0.95937 0.11544 0.0
C841 C 0.99469 0.98987 0.14777 0.0
C842 C 0.00751 0.96086 0.0626 0.0
C843 C 0.00624 0.99366 0.04152 0.0
C844 C 0.99945 0.0246 0.0741 0.0
C845 C 0.99372 0.02232 0.12673 0.0
C846 C 0.01453 0.92726 0.02915 0.0
C847 C 0.99811 0.06012 0.05328 0.0
H848 H 0.07667 0.00986 0.90772 0.0
H849 H 0.96561 0.99292 0.86337 0.0
H850 H 0.07483 0.028 0.04095 0.0
H851 H 0.07957 0.9813 0.03342 0.0
H852 H 0.10265 0.00823 0.99402 0.0
H853 H 0.92594 0.98372 0.92419 0.0
H854 H 0.94449 0.96189 0.97927 0.0
H855 H 0.93822 0.00836 0.98743 0.0
H856 H 1.00214 0.93414 0.13118 0.0
H857 H 0.98869 0.04606 0.15162 0.0
H858 H 0.04007 0.92964 1.01276 0.0
H859 H 0.99379 0.92263 0.99537 0.0
H860 H 0.0152 0.90396 0.05165 0.0
H861 H 0.02342 0.06602 0.03814 0.0
H862 H 0.99291 0.0817 0.08382 0.0
H863 H 0.97713 0.05979 0.01988 0.0
C864 C 0.29012 0.75003 0.37096 0.0
C865 C 0.26078 0.73677 0.39169 0.0
C866 C 0.28841 0.75606 0.31786 0.0
C867 C 0.25656 0.74877 0.28471 0.0
C868 C 0.22682 0.73547 0.30541 0.0
C869 C 0.22931 0.72957 0.35864 0.0
C870 C 0.32074 0.77013 0.29719 0.0
C871 C 0.19234 0.72759 0.27138 0.0
C872 C 0.24265 0.79492 0.16063 0.0
C873 C 0.25129 0.7686 0.122 0.0
C874 C 0.24412 0.78877 0.21364 0.0
C875 C 0.25431 0.75541 0.22847 0.0
C876 C 0.26273 0.72859 0.18968 0.0
C877 C 0.26118 0.73552 0.13694 0.0
C878 C 0.2349 0.81803 0.25382 0.0
C879 C 0.27369 0.69267 0.20399 0.0
H880 H 0.31465 0.75519 0.39614 0.0
H881 H 0.20645 0.71967 0.3746 0.0
H882 H 0.32841 0.75151 0.26442 0.0
H883 H 0.31487 0.79553 0.28119 0.0
H884 H 0.34351 0.77431 0.32805 0.0
H885 H 0.17175 0.71717 0.29343 0.0
H886 H 0.18258 0.75186 0.25509 0.0
H887 H 0.19629 0.70802 0.23754 0.0
H888 H 0.23441 0.82036 0.14933 0.0
H889 H 0.2683 0.71517 0.10748 0.0
H890 H 0.25773 0.82441 0.28396 0.0
H891 H 0.2128 0.80938 0.2745 0.0
H892 H 0.22726 0.84239 0.23581 0.0
H893 H 0.29798 0.6952 0.23206 0.0
H894 H 0.27872 0.67448 0.16904 0.0
H895 H 0.25289 0.68073 0.22394 0.0
C896 C 0.48607 0.98428 0.60604 0.0
C897 C 0.4891 0.01592 0.63952 0.0
C898 C 0.49253 0.98332 0.55315 0.0
C899 C 0.50216 0.01479 0.53313 0.0
C900 C 0.50542 0.04678 0.56677 0.0
C901 C 0.49892 0.04695 0.61956 0.0
C902 C 0.48898 0.94863 0.51866 0.0
C903 C 0.51553 0.08089 0.54689 0.0
C904 C 0.54871 0.00664 0.40891 0.0
C905 C 0.52108 0.01167 0.36997 0.0
C906 C 0.543 0.00796 0.46214 0.0
C907 C 0.50877 0.01418 0.47694 0.0
C908 C 0.48078 0.01942 0.43798 0.0
C909 C 0.48729 0.01823 0.38506 0.0
C910 C 0.57356 1.00233 0.50251 0.0
C911 C 0.44389 0.02608 0.45217 0.0
H912 H 0.47892 0.96014 0.62138 0.0
H913 H 0.50088 0.07156 0.64503 0.0
H914 H 0.4688 0.95051 0.48474 0.0
H915 H 0.51426 0.94239 0.5025 0.0
H916 H 0.48142 0.92653 0.54029 0.0
H917 H 0.51725 0.10345 0.57818 0.0
H918 H 0.54136 0.07835 0.53093 0.0
H919 H 0.49587 0.08687 0.51424 0.0
H920 H 0.57478 1.00098 0.3977 0.0
H921 H 0.46587 0.02265 0.35547 0.0
H922 H 0.56821 0.97876 0.52244 0.0
H923 H 0.57678 0.0252 0.5332 0.0
H924 H 0.59873 0.99867 0.48477 0.0
H925 H 0.43434 1.0036 0.47123 0.0
H926 H 0.42507 0.02982 0.41728 0.0
H927 H 0.44387 0.04988 0.48095 0.0
C928 C 0.26976 0.21597 0.87675 0.0
C929 C 0.25376 0.24249 0.90746 0.0
C930 C 0.27479 0.21952 0.82414 0.0
C931 C 0.26369 0.25041 0.80171 0.0
C932 C 0.24815 0.27755 0.83284 0.0
C933 C 0.24336 0.27325 0.88521 0.0
C934 C 0.29142 0.18996 0.79227 0.0
C935 C 0.2362 0.31101 0.81063 0.0
C936 C 0.30184 0.27464 0.67902 0.0
C937 C 0.27466 0.26371 0.63919 0.0
C938 C 0.29883 0.27005 0.73189 0.0
C939 C 0.26785 0.25424 0.7455 0.0
C940 C 0.24042 0.24288 0.70551 0.0
C941 C 0.24416 0.24773 0.65293 0.0
C942 C 0.32864 0.2826 0.7733 0.0
C943 C 0.20698 0.22585 0.71835 0.0
H944 H 0.27754 0.19197 0.89344 0.0
H945 H 0.23143 0.29408 0.90889 0.0
H946 H 0.27256 0.17933 0.75829 0.0
H947 H 0.31495 0.20002 0.77619 0.0
H948 H 0.29946 0.16808 0.81586 0.0
H949 H 0.22525 0.32989 0.84029 0.0
H950 H 0.25861 0.32408 0.79566 0.0
H951 H 0.21572 0.3047 0.77685 0.0
H952 H 0.32528 0.28748 0.66902 0.0
H953 H 0.22322 0.23877 0.62244 0.0
H954 H 0.33776 0.26058 0.79581 0.0
H955 H 0.31927 0.3034 0.8017 0.0
H956 H 0.35143 0.29336 0.7561 0.0
H957 H 0.21331 0.20223 0.7389 0.0
H958 H 0.18844 0.21785 0.68265 0.0
H959 H 0.1935 0.24442 0.7454 0.0
C960 C 0.74506 0.26957 0.89711 0.0
C961 C 0.75884 0.23815 0.91365 0.0
C962 C 0.73938 0.2744 0.84336 0.0
C963 C 0.7476 0.24718 0.80497 0.0
C964 C 0.76112 0.21526 0.82134 0.0
C965 C 0.76654 0.21114 0.87531 0.0
C966 C 0.72498 0.30886 0.82768 0.0
C967 C 0.77004 0.18547 0.78181 0.0
C968 C 0.70512 0.2475 0.6638 0.0
C969 C 0.73233 0.26159 0.63912 0.0
C970 C 0.70972 0.24262 0.71756 0.0
C971 C 0.74232 0.25215 0.74771 0.0
C972 C 0.76993 0.26631 0.72304 0.0
C973 C 0.76465 0.27078 0.66916 0.0
C974 C 0.67968 0.2272 0.7421 0.0
C975 C 0.80504 0.27697 0.7537 0.0
H976 H 0.73942 0.29078 0.92629 0.0
H977 H 0.77669 0.18656 0.8875 0.0
H978 H 0.74417 0.32192 0.80609 0.0
H979 H 0.70036 0.304 0.80068 0.0
H980 H 0.71934 0.32718 0.86217 0.0
H981 H 0.77996 0.16219 0.80083 0.0
H982 H 0.74641 0.17725 0.75407 0.0
H983 H 0.79042 0.19447 0.75821 0.0
H984 H 0.68022 0.23988 0.64086 0.0
H985 H 0.78569 0.2821 0.6507 0.0
H986 H 0.6723 0.24589 0.775 0.0
H987 H 0.68801 0.20263 0.75884 0.0
H988 H 0.656 0.22113 0.71334 0.0
H989 H 0.80127 0.29734 0.78663 0.0
H990 H 0.82383 0.28756 0.72881 0.0
H991 H 0.81698 0.25398 0.77121 0.0
C992 C 0.71495 0.75712 0.36414 0.0
C993 C 0.74196 0.74108 0.39399 0.0
C994 C 0.71793 0.76317 0.31173 0.0
C995 C 0.74864 0.75288 0.28817 0.0
C996 C 0.77607 0.73679 0.3181 0.0
C997 C 0.77244 0.73118 0.37055 0.0
C998 C 0.68817 0.78066 0.28154 0.0
C999 C 0.8092 0.72528 0.29457 0.0
C1000 C 0.74368 0.73989 0.13806 0.0
C1001 C 0.75908 0.77141 0.12676 0.0
C1002 C 0.7401 0.73352 0.19024 0.0
C1003 C 0.75219 0.75924 0.23242 0.0
C1004 C 0.76758 0.79115 0.22129 0.0
C1005 C 0.77077 0.79685 0.16881 0.0
C1006 C 0.72354 0.69914 0.20025 0.0
C1007 C 0.78067 0.81937 0.2649 0.0
H1008 H 0.69149 0.76532 0.38201 0.0
H1009 H 0.79328 0.71838 0.39294 0.0
H1010 H 0.69794 0.80535 0.26833 0.0
H1011 H 0.67799 0.76317 0.24576 0.0
H1012 H 0.66603 0.78704 0.3054 0.0
H1013 H 0.82808 0.71313 0.32293 0.0
H1014 H 0.80246 0.70594 0.25947 0.0
H1015 H 0.82244 0.74821 0.28125 0.0
H1016 H 0.73492 0.71986 0.10611 0.0
H1017 H 0.78214 0.82155 0.1607 0.0
H1018 H 0.70016 0.70429 0.22185 0.0
H1019 H 0.74249 0.68471 0.22541 0.0
H1020 H 0.71526 0.68194 0.16326 0.0
H1021 H 0.75871 0.82815 0.28776 0.0
H1022 H 0.79212 0.84266 0.2498 0.0
H1023 H 0.80104 0.80858 0.29252 0.0
C1024 C 0.5177 0.47922 0.63242 0.0
C1025 C 0.49244 0.49917 0.65756 0.0
C1026 C 0.52338 0.48285 0.58006 0.0
C1027 C 0.50328 0.50699 0.55178 0.0
C1028 C 0.47787 0.52736 0.57697 0.0
C1029 C 0.47282 0.52327 0.62947 0.0
C1030 C 0.55092 0.4608 0.55498 0.0
C1031 C 0.45581 0.55332 0.54831 0.0
C1032 C 0.53946 0.53965 0.43247 0.0
C1033 C 0.52024 0.51892 0.3903 0.0
C1034 C 0.53413 0.53613 0.48498 0.0
C1035 C 0.50906 0.5111 0.49602 0.0
C1036 C 0.48971 0.4899 0.45377 0.0
C1037 C 0.49549 0.49408 0.40156 0.0
C1038 C 0.55543 0.55919 0.52871 0.0
C1039 C 0.46275 0.46288 0.46373 0.0
H1040 H 0.53334 0.46087 0.65393 0.0
H1041 H 0.45295 0.5385 0.64823 0.0
H1042 H 0.5386 0.44438 0.51941 0.0
H1043 H 0.57108 0.47815 0.54209 0.0
H1044 H 0.56432 0.44322 0.5822 0.0
H1045 H 0.43724 0.56724 0.5734 0.0
H1046 H 0.47312 0.57319 0.53465 0.0
H1047 H 0.44045 0.53946 0.51288 0.0
H1048 H 0.5591 0.55849 0.42449 0.0
H1049 H 0.48016 0.4782 0.36946 0.0
H1050 H 0.57108 0.54259 0.55502 0.0
H1051 H 0.53757 0.57484 0.55295 0.0
H1052 H 0.57368 0.57759 0.51361 0.0
H1053 H 0.47542 0.44361 0.48871 0.0
H1054 H 0.45001 0.44834 0.4267 0.0
H1055 H 0.44205 0.47595 0.48548 0.0
C1056 C 0.04427 0.47909 0.92755 0.0
C1057 C 0.02191 0.4941 0.8894 0.0
C1058 C 0.03797 0.48272 0.98068 0.0
C1059 C 0.00847 0.50167 0.9962 0.0
C1060 C 0.98561 0.51663 0.95791 0.0
C1061 C 0.99263 0.51272 0.90506 0.0
C1062 C 0.06294 0.4663 0.02024 0.0
C1063 C 0.95387 0.53703 0.97285 0.0
C1064 C 0.9741 0.48504 0.12523 0.0
C1065 C 0.98872 0.5138 0.15952 0.0
C1066 C 0.98033 0.48076 0.07207 0.0
C1067 C 1.00159 0.5059 0.05255 0.0
C1068 C 0.01642 0.535 0.08693 0.0
C1069 C 0.00989 0.53854 0.13999 0.0
C1070 C 0.96423 0.44925 0.03682 0.0
C1071 C 0.0391 0.56247 0.06761 0.0
H1072 H 0.06666 0.46421 0.9158 0.0
H1073 H 0.97547 0.52485 0.87611 0.0
H1074 H 0.07458 0.48693 0.05108 0.0
H1075 H 0.04838 0.44725 0.04014 0.0
H1076 H 0.08466 0.45239 1.00183 0.0
H1077 H 0.93842 0.54663 0.9383 0.0
H1078 H 0.93637 0.5202 0.99203 0.0
H1079 H 0.96238 0.56 1.00174 0.0
H1080 H 0.9581 0.46557 0.14018 0.0
H1081 H 0.02094 0.56103 0.16609 0.0
H1082 H 0.98529 0.43329 0.02013 0.0
H1083 H 0.94715 0.45811 1.00329 0.0
H1084 H 0.94826 0.43214 0.05803 0.0
H1085 H 0.06224 0.54993 0.05136 0.0
H1086 H 0.04861 0.58355 0.0993 0.0
H1087 H 0.02397 0.57474 0.03529 0.0
loop_
_geom_bond_atom_site_label_1
_geom_bond_atom_site_label_2
_geom_bond_distance
_geom_bond_site_symmetry_2
_ccdc_geom_bond_type
C0 Eu1 2.835 1_655 S
C0 C2 1.500 . S
C0 O20 1.257 1_655 S
C0 O21 1.260 . S
Eu1 C0 2.835 1_455 S
Eu1 O20 2.473 . S
Eu1 O21 2.480 1_455 S
Eu1 O22 2.430 1_455 S
Eu1 O23 2.670 1_455 S
Eu1 O24 2.394 1_445 S
Eu1 O29 2.355 1_545 S
Eu1 O31 2.374 . S
C2 C0 1.500 . S
C2 C3 1.377 . S
C2 C7 1.372 1_645 S
C3 C2 1.377 . S
C3 C4 1.395 . S
C3 H32 0.931 . S
C4 C3 1.395 . S
C4 C5 1.383 . S
C4 H33 0.931 . S
C5 C4 1.383 . S
C5 C6 1.394 1_545 S
C6 C5 1.394 1_565 S
C6 C7 1.374 1_655 S
C6 H34 0.931 1_655 S
C7 C2 1.372 1_465 S
C7 C6 1.374 1_455 S
C7 H35 0.940 . S
C8 O22 1.259 . S
C8 O23 1.270 . S
C9 O24 1.251 . S
C9 O25 1.251 . S
C10 Eu11 2.835 1_455 S
C10 C12 1.500 . S
C10 O26 1.257 1_455 S
C10 O27 1.260 . S
Eu11 C10 2.835 1_655 S
Eu11 O23 2.355 1_565 S
Eu11 O25 2.374 . S
Eu11 O26 2.473 . S
Eu11 O27 2.480 1_655 S
Eu11 O28 2.430 1_655 S
Eu11 O29 2.670 1_655 S
Eu11 O30 2.394 1_665 S
C12 C10 1.500 . S
C12 C13 1.377 . S
C12 C17 1.375 1_465 S
C13 C12 1.377 . S
C13 C14 1.395 . S
C13 H36 0.931 . S
C14 C13 1.395 . S
C14 C15 1.383 . S
C14 H37 0.931 . S
C15 C14 1.383 . S
C15 C16 1.394 1_565 S
C16 C15 1.394 1_545 S
C16 C17 1.376 1_455 S
C16 H38 0.931 1_455 S
C17 C12 1.375 1_645 S
C17 C16 1.376 1_655 S
C17 H39 0.935 . S
C18 O28 1.259 . S
C18 O29 1.270 . S
C19 O30 1.251 . S
C19 O31 1.251 . S
O20 C0 1.257 1_455 S
O20 Eu1 2.473 . S
O21 C0 1.260 . S
O21 Eu1 2.480 1_655 S
O22 Eu1 2.430 1_655 S
O22 C8 1.259 . S
O23 Eu1 2.670 1_655 S
O23 C8 1.270 . S
O23 Eu11 2.355 1_545 S
O24 Eu1 2.394 1_665 S
O24 C9 1.251 . S
O25 C9 1.251 . S
O25 Eu11 2.374 . S
O26 C10 1.257 1_655 S
O26 Eu11 2.473 . S
O27 C10 1.260 . S
O27 Eu11 2.480 1_455 S
O28 Eu11 2.430 1_455 S
O28 C18 1.259 . S
O29 Eu1 2.355 1_565 S
O29 Eu11 2.670 1_455 S
O29 C18 1.270 . S
O30 Eu11 2.394 1_445 S
O30 C19 1.251 . S
O31 Eu1 2.374 . S
O31 C19 1.251 . S
H32 C3 0.931 . S
H33 C4 0.931 . S
H34 C6 0.931 1_455 S
H35 C7 0.940 . S
H36 C13 0.931 . S
H37 C14 0.931 . S
H38 C16 0.931 1_655 S
H39 C17 0.935 . S
C40 Eu41 2.835 . S
C40 C42 1.500 . S
C40 O60 1.257 . S
C40 O61 1.260 . S
Eu41 C40 2.835 . S
Eu41 O60 2.473 . S
Eu41 O61 2.480 . S
Eu41 O62 2.430 . S
Eu41 O63 2.670 . S
Eu41 O64 2.394 . S
Eu41 O69 2.355 . S
Eu41 O71 2.374 . S
C42 C40 1.500 . S
C42 C43 1.377 . S
C42 C47 1.377 . S
C43 C42 1.377 . S
C43 C44 1.395 1_556 S
C43 H72 0.931 . S
C44 C43 1.395 1_554 S
C44 C45 1.383 . S
C44 H73 0.931 . S
C45 C44 1.383 . S
C45 C46 1.394 . S
C46 C45 1.394 . S
C46 C47 1.378 1_554 S
C46 H74 0.931 . S
C47 C42 1.377 . S
C47 C46 1.378 1_556 S
C47 H75 0.931 . S
C48 O62 1.259 . S
C48 O63 1.270 . S
C49 O64 1.251 . S
C49 O65 1.251 . S
C50 Eu51 2.835 . S
C50 C52 1.500 . S
C50 O66 1.257 . S
C50 O67 1.260 . S
Eu51 C50 2.835 . S
Eu51 O63 2.355 . S
Eu51 O65 2.374 . S
Eu51 O66 2.473 . S
Eu51 O67 2.480 . S
Eu51 O68 2.430 . S
Eu51 O69 2.670 . S
Eu51 O70 2.394 . S
C52 C50 1.500 . S
C52 C53 1.377 . S
C52 C57 1.377 . S
C53 C52 1.377 . S
C53 C54 1.395 . S
C53 H76 0.931 . S
C54 C53 1.395 . S
C54 C55 1.383 . S
C54 H77 0.931 . S
C55 C54 1.383 . S
C55 C56 1.394 . S
C56 C55 1.394 . S
C56 C57 1.378 . S
C56 H78 0.931 . S
C57 C52 1.377 . S
C57 C56 1.378 . S
C57 H79 0.931 . S
C58 O68 1.259 . S
C58 O69 1.270 . S
C59 O70 1.251 . S
C59 O71 1.251 . S
O60 C40 1.257 . S
O60 Eu41 2.473 . S
O61 C40 1.260 . S
O61 Eu41 2.480 . S
O62 Eu41 2.430 . S
O62 C48 1.259 . S
O63 Eu41 2.670 . S
O63 C48 1.270 . S
O63 Eu51 2.355 . S
O64 Eu41 2.394 . S
O64 C49 1.251 . S
O65 C49 1.251 . S
O65 Eu51 2.374 . S
O66 C50 1.257 . S
O66 Eu51 2.473 . S
O67 C50 1.260 . S
O67 Eu51 2.480 . S
O68 Eu51 2.430 . S
O68 C58 1.259 . S
O69 Eu41 2.355 . S
O69 Eu51 2.670 . S
O69 C58 1.270 . S
O70 Eu51 2.394 . S
O70 C59 1.251 . S
O71 Eu41 2.374 . S
O71 C59 1.251 . S
H72 C43 0.931 . S
H73 C44 0.931 . S
H74 C46 0.931 . S
H75 C47 0.931 . S
H76 C53 0.931 . S
H77 C54 0.931 . S
H78 C56 0.931 . S
H79 C57 0.931 . S
C80 Eu81 2.835 . S
C80 C82 1.500 . S
C80 O100 1.257 1_545 S
C80 O101 1.260 . S
Eu81 C80 2.835 . S
Eu81 O100 2.473 1_545 S
Eu81 O101 2.480 . S
Eu81 O102 2.430 . S
Eu81 O103 2.670 1_556 S
Eu81 O104 2.394 1_545 S
Eu81 O109 2.355 1_545 S
Eu81 O111 2.374 1_556 S
C82 C80 1.500 . S
C82 C83 1.377 . S
C82 C87 1.377 1_545 S
C83 C82 1.377 . S
C83 C84 1.395 . S
C83 H112 0.931 . S
C84 C83 1.395 . S
C84 C85 1.383 1_545 S
C84 H113 0.931 . S
C85 C84 1.383 1_565 S
C85 C86 1.394 . S
C86 C85 1.394 . S
C86 C87 1.378 . S
C86 H114 0.931 . S
C87 C82 1.377 1_565 S
C87 C86 1.378 . S
C87 H115 0.931 . S
C88 O102 1.259 1_554 S
C88 O103 1.270 . S
C89 O104 1.251 . S
C89 O105 1.251 . S
C90 Eu91 2.835 . S
C90 C92 1.500 . S
C90 O106 1.257 1_565 S
C90 O107 1.260 . S
Eu91 C90 2.835 . S
Eu91 O103 2.355 1_565 S
Eu91 O105 2.374 1_554 S
Eu91 O106 2.473 1_565 S
Eu91 O107 2.480 . S
Eu91 O108 2.430 . S
Eu91 O109 2.670 1_554 S
Eu91 O110 2.394 1_565 S
C92 C90 1.500 . S
C92 C93 1.377 . S
C92 C97 1.377 1_565 S
C93 C92 1.377 . S
C93 C94 1.395 . S
C93 H116 0.931 . S
C94 C93 1.395 . S
C94 C95 1.383 1_565 S
C94 H117 0.931 . S
C95 C94 1.383 1_545 S
C95 C96 1.394 . S
C96 C95 1.394 . S
C96 C97 1.378 . S
C96 H118 0.931 . S
C97 C92 1.377 1_545 S
C97 C96 1.378 . S
C97 H119 0.931 . S
C98 O108 1.259 1_556 S
C98 O109 1.270 . S
C99 O110 1.251 . S
C99 O111 1.251 . S
O100 C80 1.257 1_565 S
O100 Eu81 2.473 1_565 S
O101 C80 1.260 . S
O101 Eu81 2.480 . S
O102 Eu81 2.430 . S
O102 C88 1.259 1_556 S
O103 Eu81 2.670 1_554 S
O103 C88 1.270 . S
O103 Eu91 2.355 1_545 S
O104 Eu81 2.394 1_565 S
O104 C89 1.251 . S
O105 C89 1.251 . S
O105 Eu91 2.374 1_556 S
O106 C90 1.257 1_545 S
O106 Eu91 2.473 1_545 S
O107 C90 1.260 . S
O107 Eu91 2.480 . S
O108 Eu91 2.430 . S
O108 C98 1.259 1_554 S
O109 Eu81 2.355 1_565 S
O109 Eu91 2.670 1_556 S
O109 C98 1.270 . S
O110 Eu91 2.394 1_545 S
O110 C99 1.251 . S
O111 Eu81 2.374 1_554 S
O111 C99 1.251 . S
H112 C83 0.931 . S
H113 C84 0.931 . S
H114 C86 0.931 . S
H115 C87 0.931 . S
H116 C93 0.931 . S
H117 C94 0.931 . S
H118 C96 0.931 . S
H119 C97 0.931 . S
C120 Eu121 2.835 . S
C120 C122 1.500 . S
C120 O140 1.257 . S
C120 O141 1.260 . S
Eu121 C120 2.835 . S
Eu121 O140 2.473 . S
Eu121 O141 2.480 . S
Eu121 O142 2.430 . S
Eu121 O143 2.670 . S
Eu121 O144 2.394 . S
Eu121 O149 2.355 . S
Eu121 O151 2.374 . S
C122 C120 1.500 . S
C122 C123 1.377 . S
C122 C127 1.377 . S
C123 C122 1.377 . S
C123 C124 1.395 1_554 S
C123 H152 0.931 . S
C124 C123 1.395 1_556 S
C124 C125 1.383 . S
C124 H153 0.931 . S
C125 C124 1.383 . S
C125 C126 1.394 . S
C126 C125 1.394 . S
C126 C127 1.378 1_556 S
C126 H154 0.931 . S
C127 C122 1.377 . S
C127 C126 1.378 1_554 S
C127 H155 0.931 . S
C128 O142 1.259 . S
C128 O143 1.270 . S
C129 O144 1.251 . S
C129 O145 1.251 . S
C130 Eu131 2.835 . S
C130 C132 1.500 . S
C130 O146 1.257 . S
C130 O147 1.260 . S
Eu131 C130 2.835 . S
Eu131 O143 2.355 . S
Eu131 O145 2.374 . S
Eu131 O146 2.473 . S
Eu131 O147 2.480 . S
Eu131 O148 2.430 . S
Eu131 O149 2.670 . S
Eu131 O150 2.394 . S
C132 C130 1.500 . S
C132 C133 1.377 . S
C132 C137 1.377 . S
C133 C132 1.377 . S
C133 C134 1.395 . S
C133 H156 0.931 . S
C134 C133 1.395 . S
C134 C135 1.383 . S
C134 H157 0.931 . S
C135 C134 1.383 . S
C135 C136 1.394 . S
C136 C135 1.394 . S
C136 C137 1.378 . S
C136 H158 0.931 . S
C137 C132 1.377 . S
C137 C136 1.378 . S
C137 H159 0.931 . S
C138 O148 1.259 . S
C138 O149 1.270 . S
C139 O150 1.251 . S
C139 O151 1.251 . S
O140 C120 1.257 . S
O140 Eu121 2.473 . S
O141 C120 1.260 . S
O141 Eu121 2.480 . S
O142 Eu121 2.430 . S
O142 C128 1.259 . S
O143 Eu121 2.670 . S
O143 C128 1.270 . S
O143 Eu131 2.355 . S
O144 Eu121 2.394 . S
O144 C129 1.251 . S
O145 C129 1.251 . S
O145 Eu131 2.374 . S
O146 C130 1.257 . S
O146 Eu131 2.473 . S
O147 C130 1.260 . S
O147 Eu131 2.480 . S
O148 Eu131 2.430 . S
O148 C138 1.259 . S
O149 Eu121 2.355 . S
O149 Eu131 2.670 . S
O149 C138 1.270 . S
O150 Eu131 2.394 . S
O150 C139 1.251 . S
O151 Eu121 2.374 . S
O151 C139 1.251 . S
H152 C123 0.931 . S
H153 C124 0.931 . S
H154 C126 0.931 . S
H155 C127 0.931 . S
H156 C133 0.931 . S
H157 C134 0.931 . S
H158 C136 0.931 . S
H159 C137 0.931 . S
C160 Eu161 2.835 . S
C160 C162 1.500 . S
C160 O180 1.257 . S
C160 O181 1.260 . S
Eu161 C160 2.835 . S
Eu161 O180 2.473 . S
Eu161 O181 2.480 . S
Eu161 O182 2.430 . S
Eu161 O183 2.670 . S
Eu161 O184 2.394 . S
Eu161 O189 2.355 . S
Eu161 O191 2.374 . S
C162 C160 1.500 . S
C162 C163 1.377 . S
C162 C167 1.377 . S
C163 C162 1.377 . S
C163 C164 1.395 . S
C163 H192 0.931 . S
C164 C163 1.395 . S
C164 C165 1.383 . S
C164 H193 0.931 . S
C165 C164 1.383 . S
C165 C166 1.394 . S
C166 C165 1.394 . S
C166 C167 1.378 . S
C166 H194 0.931 . S
C167 C162 1.377 . S
C167 C166 1.378 . S
C167 H195 0.931 . S
C168 O182 1.259 . S
C168 O183 1.270 . S
C169 O184 1.251 . S
C169 O185 1.251 . S
C170 Eu171 2.835 . S
C170 C172 1.500 . S
C170 O186 1.257 . S
C170 O187 1.260 . S
Eu171 C170 2.835 . S
Eu171 O183 2.355 . S
Eu171 O185 2.374 . S
Eu171 O186 2.473 . S
Eu171 O187 2.480 . S
Eu171 O188 2.430 . S
Eu171 O189 2.670 . S
Eu171 O190 2.394 . S
C172 C170 1.500 . S
C172 C173 1.377 . S
C172 C177 1.377 . S
C173 C172 1.377 . S
C173 C174 1.395 1_554 S
C173 H196 0.931 . S
C174 C173 1.395 1_556 S
C174 C175 1.383 . S
C174 H197 0.931 . S
C175 C174 1.383 . S
C175 C176 1.394 . S
C176 C175 1.394 . S
C176 C177 1.378 1_556 S
C176 H198 0.931 . S
C177 C172 1.377 . S
C177 C176 1.378 1_554 S
C177 H199 0.931 . S
C178 O188 1.259 . S
C178 O189 1.270 . S
C179 O190 1.251 . S
C179 O191 1.251 . S
O180 C160 1.257 . S
O180 Eu161 2.473 . S
O181 C160 1.260 . S
O181 Eu161 2.480 . S
O182 Eu161 2.430 . S
O182 C168 1.259 . S
O183 Eu161 2.670 . S
O183 C168 1.270 . S
O183 Eu171 2.355 . S
O184 Eu161 2.394 . S
O184 C169 1.251 . S
O185 C169 1.251 . S
O185 Eu171 2.374 . S
O186 C170 1.257 . S
O186 Eu171 2.473 . S
O187 C170 1.260 . S
O187 Eu171 2.480 . S
O188 Eu171 2.430 . S
O188 C178 1.259 . S
O189 Eu161 2.355 . S
O189 Eu171 2.670 . S
O189 C178 1.270 . S
O190 Eu171 2.394 . S
O190 C179 1.251 . S
O191 Eu161 2.374 . S
O191 C179 1.251 . S
H192 C163 0.931 . S
H193 C164 0.931 . S
H194 C166 0.931 . S
H195 C167 0.931 . S
H196 C173 0.931 . S
H197 C174 0.931 . S
H198 C176 0.931 . S
H199 C177 0.931 . S
C200 Eu201 2.835 . S
C200 C202 1.500 . S
C200 O220 1.257 . S
C200 O221 1.260 . S
Eu201 C200 2.835 . S
Eu201 O220 2.473 . S
Eu201 O221 2.480 . S
Eu201 O222 2.430 . S
Eu201 O223 2.670 . S
Eu201 O224 2.394 . S
Eu201 O229 2.355 . S
Eu201 O231 2.374 . S
C202 C200 1.500 . S
C202 C203 1.377 . S
C202 C207 1.377 . S
C203 C202 1.377 . S
C203 C204 1.395 . S
C203 H232 0.931 . S
C204 C203 1.395 . S
C204 C205 1.383 . S
C204 H233 0.931 . S
C205 C204 1.383 . S
C205 C206 1.394 . S
C206 C205 1.394 . S
C206 C207 1.378 . S
C206 H234 0.931 . S
C207 C202 1.377 . S
C207 C206 1.378 . S
C207 H235 0.931 . S
C208 O222 1.259 . S
C208 O223 1.270 . S
C209 O224 1.251 . S
C209 O225 1.251 . S
C210 Eu211 2.835 . S
C210 C212 1.500 . S
C210 O226 1.257 . S
C210 O227 1.260 . S
Eu211 C210 2.835 . S
Eu211 O223 2.355 . S
Eu211 O225 2.374 . S
Eu211 O226 2.473 . S
Eu211 O227 2.480 . S
Eu211 O228 2.430 . S
Eu211 O229 2.670 . S
Eu211 O230 2.394 . S
C212 C210 1.500 . S
C212 C213 1.377 . S
C212 C217 1.377 . S
C213 C212 1.377 . S
C213 C214 1.395 1_556 S
C213 H236 0.931 . S
C214 C213 1.395 1_554 S
C214 C215 1.383 . S
C214 H237 0.931 . S
C215 C214 1.383 . S
C215 C216 1.394 . S
C216 C215 1.394 . S
C216 C217 1.378 1_554 S
C216 H238 0.931 . S
C217 C212 1.377 . S
C217 C216 1.378 1_556 S
C217 H239 0.931 . S
C218 O228 1.259 . S
C218 O229 1.270 . S
C219 O230 1.251 . S
C219 O231 1.251 . S
O220 C200 1.257 . S
O220 Eu201 2.473 . S
O221 C200 1.260 . S
O221 Eu201 2.480 . S
O222 Eu201 2.430 . S
O222 C208 1.259 . S
O223 Eu201 2.670 . S
O223 C208 1.270 . S
O223 Eu211 2.355 . S
O224 Eu201 2.394 . S
O224 C209 1.251 . S
O225 C209 1.251 . S
O225 Eu211 2.374 . S
O226 C210 1.257 . S
O226 Eu211 2.473 . S
O227 C210 1.260 . S
O227 Eu211 2.480 . S
O228 Eu211 2.430 . S
O228 C218 1.259 . S
O229 Eu201 2.355 . S
O229 Eu211 2.670 . S
O229 C218 1.270 . S
O230 Eu211 2.394 . S
O230 C219 1.251 . S
O231 Eu201 2.374 . S
O231 C219 1.251 . S
H232 C203 0.931 . S
H233 C204 0.931 . S
H234 C206 0.931 . S
H235 C207 0.931 . S
H236 C213 0.931 . S
H237 C214 0.931 . S
H238 C216 0.931 . S
H239 C217 0.931 . S
C240 Eu241 2.835 . S
C240 C242 1.500 . S
C240 O260 1.257 . S
C240 O261 1.260 . S
Eu241 C240 2.835 . S
Eu241 O260 2.473 . S
Eu241 O261 2.480 . S
Eu241 O262 2.430 . S
Eu241 O263 2.670 1_554 S
Eu241 O264 2.394 . S
Eu241 O269 2.355 . S
Eu241 O271 2.374 . S
C242 C240 1.500 . S
C242 C243 1.377 . S
C242 C247 1.377 . S
C243 C242 1.377 . S
C243 C244 1.395 . S
C243 H272 0.931 . S
C244 C243 1.395 . S
C244 C245 1.383 . S
C244 H273 0.931 . S
C245 C244 1.383 . S
C245 C246 1.394 . S
C246 C245 1.394 . S
C246 C247 1.378 . S
C246 H274 0.931 . S
C247 C242 1.377 . S
C247 C246 1.378 . S
C247 H275 0.931 . S
C248 O262 1.259 1_556 S
C248 O263 1.270 . S
C249 O264 1.251 . S
C249 O265 1.251 1_554 S
C250 Eu251 2.835 . S
C250 C252 1.500 . S
C250 O266 1.257 . S
C250 O267 1.260 . S
Eu251 C250 2.835 . S
Eu251 O263 2.355 . S
Eu251 O265 2.374 . S
Eu251 O266 2.473 . S
Eu251 O267 2.480 . S
Eu251 O268 2.430 . S
Eu251 O269 2.670 1_556 S
Eu251 O270 2.394 . S
C252 C250 1.500 . S
C252 C253 1.377 . S
C252 C257 1.377 . S
C253 C252 1.377 . S
C253 C254 1.395 . S
C253 H276 0.931 . S
C254 C253 1.395 . S
C254 C255 1.383 . S
C254 H277 0.931 . S
C255 C254 1.383 . S
C255 C256 1.394 . S
C256 C255 1.394 . S
C256 C257 1.378 . S
C256 H278 0.931 . S
C257 C252 1.377 . S
C257 C256 1.378 . S
C257 H279 0.931 . S
C258 O268 1.259 1_554 S
C258 O269 1.270 . S
C259 O270 1.251 . S
C259 O271 1.251 1_556 S
O260 C240 1.257 . S
O260 Eu241 2.473 . S
O261 C240 1.260 . S
O261 Eu241 2.480 . S
O262 Eu241 2.430 . S
O262 C248 1.259 1_554 S
O263 Eu241 2.670 1_556 S
O263 C248 1.270 . S
O263 Eu251 2.355 . S
O264 Eu241 2.394 . S
O264 C249 1.251 . S
O265 C249 1.251 1_556 S
O265 Eu251 2.374 . S
O266 C250 1.257 . S
O266 Eu251 2.473 . S
O267 C250 1.260 . S
O267 Eu251 2.480 . S
O268 Eu251 2.430 . S
O268 C258 1.259 1_556 S
O269 Eu241 2.355 . S
O269 Eu251 2.670 1_554 S
O269 C258 1.270 . S
O270 Eu251 2.394 . S
O270 C259 1.251 . S
O271 Eu241 2.374 . S
O271 C259 1.251 1_554 S
H272 C243 0.931 . S
H273 C244 0.931 . S
H274 C246 0.931 . S
H275 C247 0.931 . S
H276 C253 0.931 . S
H277 C254 0.931 . S
H278 C256 0.931 . S
H279 C257 0.931 . S
C280 Eu281 2.835 1_455 S
C280 C282 1.500 . S
C280 O300 1.257 1_455 S
C280 O301 1.260 . S
Eu281 C280 2.835 1_655 S
Eu281 O300 2.473 . S
Eu281 O301 2.480 1_655 S
Eu281 O302 2.430 1_655 S
Eu281 O303 2.670 1_655 S
Eu281 O304 2.394 1_655 S
Eu281 O309 2.355 . S
Eu281 O311 2.374 . S
C282 C280 1.500 . S
C282 C283 1.377 . S
C282 C287 1.371 1_455 S
C283 C282 1.377 . S
C283 C284 1.395 . S
C283 H312 0.931 . S
C284 C283 1.395 . S
C284 C285 1.383 . S
C284 H313 0.931 . S
C285 C284 1.383 . S
C285 C286 1.394 . S
C286 C285 1.394 . S
C286 C287 1.373 1_455 S
C286 H314 0.931 1_455 S
C287 C282 1.371 1_655 S
C287 C286 1.373 1_655 S
C287 H315 0.942 . S
C288 O302 1.259 . S
C288 O303 1.270 . S
C289 O304 1.251 . S
C289 O305 1.251 . S
C290 Eu291 2.835 1_655 S
C290 C292 1.500 . S
C290 O306 1.257 1_655 S
C290 O307 1.260 . S
Eu291 C290 2.835 1_455 S
Eu291 O303 2.355 . S
Eu291 O305 2.374 . S
Eu291 O306 2.473 . S
Eu291 O307 2.480 1_455 S
Eu291 O308 2.430 1_455 S
Eu291 O309 2.670 1_455 S
Eu291 O310 2.394 1_455 S
C292 C290 1.500 . S
C292 C293 1.377 . S
C292 C297 1.369 1_655 S
C293 C292 1.377 . S
C293 C294 1.395 . S
C293 H316 0.931 . S
C294 C293 1.395 . S
C294 C295 1.383 . S
C294 H317 0.931 . S
C295 C294 1.383 . S
C295 C296 1.394 . S
C296 C295 1.394 . S
C296 C297 1.371 1_655 S
C296 H318 0.931 1_655 S
C297 C292 1.369 1_455 S
C297 C296 1.371 1_455 S
C297 H319 0.947 . S
C298 O308 1.259 . S
C298 O309 1.270 . S
C299 O310 1.251 . S
C299 O311 1.251 . S
O300 C280 1.257 1_655 S
O300 Eu281 2.473 . S
O301 C280 1.260 . S
O301 Eu281 2.480 1_455 S
O302 Eu281 2.430 1_455 S
O302 C288 1.259 . S
O303 Eu281 2.670 1_455 S
O303 C288 1.270 . S
O303 Eu291 2.355 . S
O304 Eu281 2.394 1_455 S
O304 C289 1.251 . S
O305 C289 1.251 . S
O305 Eu291 2.374 . S
O306 C290 1.257 1_455 S
O306 Eu291 2.473 . S
O307 C290 1.260 . S
O307 Eu291 2.480 1_655 S
O308 Eu291 2.430 1_655 S
O308 C298 1.259 . S
O309 Eu281 2.355 . S
O309 Eu291 2.670 1_655 S
O309 C298 1.270 . S
O310 Eu291 2.394 1_655 S
O310 C299 1.251 . S
O311 Eu281 2.374 . S
O311 C299 1.251 . S
H312 C283 0.931 . S
H313 C284 0.931 . S
H314 C286 0.931 1_655 S
H315 C287 0.942 . S
H316 C293 0.931 . S
H317 C294 0.931 . S
H318 C296 0.931 1_455 S
H319 C297 0.947 . S
C320 C321 1.391 . S
C320 C322 1.394 . S
C320 H336 0.931 . S
C321 C320 1.391 . S
C321 C325 1.376 . S
C322 C320 1.394 . S
C322 C323 1.369 . S
C322 C326 1.531 . S
C323 C322 1.369 . S
C323 C324 1.410 . S
C323 C331 1.503 . S
C324 C323 1.410 . S
C324 C325 1.392 . S
C324 C327 1.511 . S
C325 C321 1.376 . S
C325 C324 1.392 . S
C325 H337 0.929 . S
C326 C322 1.531 . S
C326 H338 0.960 . S
C326 H339 0.962 . S
C326 H340 0.960 . S
C327 C324 1.511 . S
C327 H341 0.961 . S
C327 H342 0.961 . S
C327 H343 0.961 . S
C328 C329 1.370 . S
C328 C330 1.363 . S
C328 H344 0.931 . S
C329 C328 1.370 . S
C329 C333 1.408 . S
C330 C328 1.363 . S
C330 C331 1.370 . S
C330 C334 1.524 . S
C331 C323 1.503 . S
C331 C330 1.370 . S
C331 C332 1.403 . S
C332 C331 1.403 . S
C332 C333 1.404 . S
C332 C335 1.539 . S
C333 C329 1.408 . S
C333 C332 1.404 . S
C333 H345 0.930 . S
C334 C330 1.524 . S
C334 H346 0.956 . S
C334 H347 0.961 . S
C334 H348 0.961 . S
C335 C332 1.539 . S
C335 H349 0.958 . S
C335 H350 0.961 . S
C335 H351 0.960 . S
H336 C320 0.931 . S
H337 C325 0.929 . S
H338 C326 0.960 . S
H339 C326 0.962 . S
H340 C326 0.960 . S
H341 C327 0.961 . S
H342 C327 0.961 . S
H343 C327 0.961 . S
H344 C328 0.931 . S
H345 C333 0.930 . S
H346 C334 0.956 . S
H347 C334 0.961 . S
H348 C334 0.961 . S
H349 C335 0.958 . S
H350 C335 0.961 . S
H351 C335 0.960 . S
C352 C353 1.391 . S
C352 C354 1.394 . S
C352 H368 0.931 . S
C353 C352 1.391 . S
C353 C357 1.376 . S
C354 C352 1.394 . S
C354 C355 1.369 . S
C354 C358 1.531 . S
C355 C354 1.369 . S
C355 C356 1.410 . S
C355 C363 1.503 . S
C356 C355 1.410 . S
C356 C357 1.392 . S
C356 C359 1.511 . S
C357 C353 1.376 . S
C357 C356 1.392 . S
C357 H369 0.929 . S
C358 C354 1.531 . S
C358 H370 0.960 . S
C358 H371 0.962 . S
C358 H372 0.960 . S
C359 C356 1.511 . S
C359 H373 0.961 . S
C359 H374 0.961 . S
C359 H375 0.961 . S
C360 C361 1.370 . S
C360 C362 1.363 . S
C360 H376 0.931 . S
C361 C360 1.370 . S
C361 C365 1.408 . S
C362 C360 1.363 . S
C362 C363 1.370 . S
C362 C366 1.524 . S
C363 C355 1.503 . S
C363 C362 1.370 . S
C363 C364 1.403 . S
C364 C363 1.403 . S
C364 C365 1.404 . S
C364 C367 1.539 . S
C365 C361 1.408 . S
C365 C364 1.404 . S
C365 H377 0.930 . S
C366 C362 1.524 . S
C366 H378 0.956 . S
C366 H379 0.961 . S
C366 H380 0.961 . S
C367 C364 1.539 . S
C367 H381 0.958 . S
C367 H382 0.961 . S
C367 H383 0.960 . S
H368 C352 0.931 . S
H369 C357 0.929 . S
H370 C358 0.960 . S
H371 C358 0.962 . S
H372 C358 0.960 . S
H373 C359 0.961 . S
H374 C359 0.961 . S
H375 C359 0.961 . S
H376 C360 0.931 . S
H377 C365 0.930 . S
H378 C366 0.956 . S
H379 C366 0.961 . S
H380 C366 0.961 . S
H381 C367 0.958 . S
H382 C367 0.961 . S
H383 C367 0.960 . S
C384 C385 1.391 . S
C384 C386 1.394 . S
C384 H400 0.931 . S
C385 C384 1.391 . S
C385 C389 1.376 . S
C386 C384 1.394 . S
C386 C387 1.369 . S
C386 C390 1.531 . S
C387 C386 1.369 . S
C387 C388 1.410 . S
C387 C395 1.503 . S
C388 C387 1.410 . S
C388 C389 1.392 . S
C388 C391 1.511 . S
C389 C385 1.376 . S
C389 C388 1.392 . S
C389 H401 0.929 . S
C390 C386 1.531 . S
C390 H402 0.960 . S
C390 H403 0.962 . S
C390 H404 0.960 . S
C391 C388 1.511 . S
C391 H405 0.961 . S
C391 H406 0.961 . S
C391 H407 0.961 . S
C392 C393 1.370 . S
C392 C394 1.363 . S
C392 H408 0.931 . S
C393 C392 1.370 . S
C393 C397 1.408 . S
C394 C392 1.363 . S
C394 C395 1.370 . S
C394 C398 1.524 . S
C395 C387 1.503 . S
C395 C394 1.370 . S
C395 C396 1.403 . S
C396 C395 1.403 . S
C396 C397 1.404 . S
C396 C399 1.539 . S
C397 C393 1.408 . S
C397 C396 1.404 . S
C397 H409 0.930 . S
C398 C394 1.524 . S
C398 H410 0.956 . S
C398 H411 0.961 . S
C398 H412 0.961 . S
C399 C396 1.539 . S
C399 H413 0.958 . S
C399 H414 0.961 . S
C399 H415 0.960 . S
H400 C384 0.931 . S
H401 C389 0.929 . S
H402 C390 0.960 . S
H403 C390 0.962 . S
H404 C390 0.960 . S
H405 C391 0.961 . S
H406 C391 0.961 . S
H407 C391 0.961 . S
H408 C392 0.931 . S
H409 C397 0.930 . S
H410 C398 0.956 . S
H411 C398 0.961 . S
H412 C398 0.961 . S
H413 C399 0.958 . S
H414 C399 0.961 . S
H415 C399 0.960 . S
C416 C417 1.391 . S
C416 C418 1.394 . S
C416 H432 0.931 . S
C417 C416 1.391 . S
C417 C421 1.376 . S
C418 C416 1.394 . S
C418 C419 1.369 . S
C418 C422 1.531 . S
C419 C418 1.369 . S
C419 C420 1.410 . S
C419 C427 1.503 . S
C420 C419 1.410 . S
C420 C421 1.392 . S
C420 C423 1.511 . S
C421 C417 1.376 . S
C421 C420 1.392 . S
C421 H433 0.929 . S
C422 C418 1.531 . S
C422 H434 0.960 . S
C422 H435 0.962 . S
C422 H436 0.960 . S
C423 C420 1.511 . S
C423 H437 0.961 . S
C423 H438 0.961 . S
C423 H439 0.961 . S
C424 C425 1.370 . S
C424 C426 1.363 . S
C424 H440 0.931 . S
C425 C424 1.370 . S
C425 C429 1.408 . S
C426 C424 1.363 . S
C426 C427 1.370 . S
C426 C430 1.524 . S
C427 C419 1.503 . S
C427 C426 1.370 . S
C427 C428 1.403 . S
C428 C427 1.403 . S
C428 C429 1.404 . S
C428 C431 1.539 . S
C429 C425 1.408 . S
C429 C428 1.404 . S
C429 H441 0.930 . S
C430 C426 1.524 . S
C430 H442 0.956 . S
C430 H443 0.961 . S
C430 H444 0.961 . S
C431 C428 1.539 . S
C431 H445 0.958 . S
C431 H446 0.961 . S
C431 H447 0.960 . S
H432 C416 0.931 . S
H433 C421 0.929 . S
H434 C422 0.960 . S
H435 C422 0.962 . S
H436 C422 0.960 . S
H437 C423 0.961 . S
H438 C423 0.961 . S
H439 C423 0.961 . S
H440 C424 0.931 . S
H441 C429 0.930 . S
H442 C430 0.956 . S
H443 C430 0.961 . S
H444 C430 0.961 . S
H445 C431 0.958 . S
H446 C431 0.961 . S
H447 C431 0.960 . S
C448 C449 1.391 . S
C448 C450 1.394 . S
C448 H464 0.931 . S
C449 C448 1.391 . S
C449 C453 1.376 . S
C450 C448 1.394 . S
C450 C451 1.369 . S
C450 C454 1.531 . S
C451 C450 1.369 . S
C451 C452 1.410 . S
C451 C459 1.503 . S
C452 C451 1.410 . S
C452 C453 1.392 . S
C452 C455 1.511 . S
C453 C449 1.376 . S
C453 C452 1.392 . S
C453 H465 0.929 . S
C454 C450 1.531 . S
C454 H466 0.960 . S
C454 H467 0.962 . S
C454 H468 0.960 . S
C455 C452 1.511 . S
C455 H469 0.961 . S
C455 H470 0.961 . S
C455 H471 0.961 . S
C456 C457 1.370 . S
C456 C458 1.363 . S
C456 H472 0.931 . S
C457 C456 1.370 . S
C457 C461 1.408 . S
C458 C456 1.363 . S
C458 C459 1.370 . S
C458 C462 1.524 . S
C459 C451 1.503 . S
C459 C458 1.370 . S
C459 C460 1.403 . S
C460 C459 1.403 . S
C460 C461 1.404 . S
C460 C463 1.539 . S
C461 C457 1.408 . S
C461 C460 1.404 . S
C461 H473 0.930 . S
C462 C458 1.524 . S
C462 H474 0.956 . S
C462 H475 0.961 . S
C462 H476 0.961 . S
C463 C460 1.539 . S
C463 H477 0.958 . S
C463 H478 0.961 . S
C463 H479 0.960 . S
H464 C448 0.931 . S
H465 C453 0.929 . S
H466 C454 0.960 . S
H467 C454 0.962 . S
H468 C454 0.960 . S
H469 C455 0.961 . S
H470 C455 0.961 . S
H471 C455 0.961 . S
H472 C456 0.931 . S
H473 C461 0.930 . S
H474 C462 0.956 . S
H475 C462 0.961 . S
H476 C462 0.961 . S
H477 C463 0.958 . S
H478 C463 0.961 . S
H479 C463 0.960 . S
C480 C481 1.391 . S
C480 C482 1.394 . S
C480 H496 0.931 . S
C481 C480 1.391 . S
C481 C485 1.376 . S
C482 C480 1.394 . S
C482 C483 1.369 . S
C482 C486 1.531 . S
C483 C482 1.369 . S
C483 C484 1.410 . S
C483 C491 1.503 . S
C484 C483 1.410 . S
C484 C485 1.392 . S
C484 C487 1.511 . S
C485 C481 1.376 . S
C485 C484 1.392 . S
C485 H497 0.929 . S
C486 C482 1.531 . S
C486 H498 0.960 . S
C486 H499 0.962 . S
C486 H500 0.960 . S
C487 C484 1.511 . S
C487 H501 0.961 . S
C487 H502 0.961 . S
C487 H503 0.961 . S
C488 C489 1.370 . S
C488 C490 1.363 . S
C488 H504 0.931 . S
C489 C488 1.370 . S
C489 C493 1.408 . S
C490 C488 1.363 . S
C490 C491 1.370 . S
C490 C494 1.524 . S
C491 C483 1.503 . S
C491 C490 1.370 . S
C491 C492 1.403 . S
C492 C491 1.403 . S
C492 C493 1.404 . S
C492 C495 1.539 . S
C493 C489 1.408 . S
C493 C492 1.404 . S
C493 H505 0.930 . S
C494 C490 1.524 . S
C494 H506 0.956 . S
C494 H507 0.961 . S
C494 H508 0.961 . S
C495 C492 1.539 . S
C495 H509 0.958 . S
C495 H510 0.961 . S
C495 H511 0.960 . S
H496 C480 0.931 . S
H497 C485 0.929 . S
H498 C486 0.960 . S
H499 C486 0.962 . S
H500 C486 0.960 . S
H501 C487 0.961 . S
H502 C487 0.961 . S
H503 C487 0.961 . S
H504 C488 0.931 . S
H505 C493 0.930 . S
H506 C494 0.956 . S
H507 C494 0.961 . S
H508 C494 0.961 . S
H509 C495 0.958 . S
H510 C495 0.961 . S
H511 C495 0.960 . S
C512 C513 1.391 . S
C512 C514 1.394 . S
C512 H528 0.931 . S
C513 C512 1.391 . S
C513 C517 1.376 . S
C514 C512 1.394 . S
C514 C515 1.369 . S
C514 C518 1.531 . S
C515 C514 1.369 . S
C515 C516 1.410 . S
C515 C523 1.503 . S
C516 C515 1.410 . S
C516 C517 1.392 . S
C516 C519 1.511 . S
C517 C513 1.376 . S
C517 C516 1.392 . S
C517 H529 0.929 . S
C518 C514 1.531 . S
C518 H530 0.960 . S
C518 H531 0.962 . S
C518 H532 0.960 . S
C519 C516 1.511 . S
C519 H533 0.961 . S
C519 H534 0.961 . S
C519 H535 0.961 . S
C520 C521 1.370 . S
C520 C522 1.363 . S
C520 H536 0.946 . S
C521 C520 1.370 . S
C521 C525 1.408 . S
C522 C520 1.363 . S
C522 C523 1.370 . S
C522 C526 1.524 . S
C523 C515 1.503 . S
C523 C522 1.370 . S
C523 C524 1.403 . S
C524 C523 1.403 . S
C524 C525 1.404 . S
C524 C527 1.539 . S
C525 C521 1.408 . S
C525 C524 1.404 . S
C525 H537 0.930 . S
C526 C522 1.524 . S
C526 H538 0.956 . S
C526 H539 0.961 . S
C526 H540 0.961 . S
C527 C524 1.539 . S
C527 H541 0.958 . S
C527 H542 0.961 . S
C527 H543 0.960 . S
H528 C512 0.931 . S
H529 C517 0.929 . S
H530 C518 0.960 . S
H531 C518 0.962 . S
H532 C518 0.960 . S
H533 C519 0.961 . S
H534 C519 0.961 . S
H535 C519 0.961 . S
H536 C520 0.946 . S
H537 C525 0.930 . S
H538 C526 0.956 . S
H539 C526 0.961 . S
H540 C526 0.961 . S
H541 C527 0.958 . S
H542 C527 0.961 . S
H543 C527 0.960 . S
C544 C545 1.391 . S
C544 C546 1.394 . S
C544 H560 0.931 . S
C545 C544 1.391 . S
C545 C549 1.376 . S
C546 C544 1.394 . S
C546 C547 1.369 . S
C546 C550 1.531 . S
C547 C546 1.369 . S
C547 C548 1.410 . S
C547 C555 1.503 . S
C548 C547 1.410 . S
C548 C549 1.392 . S
C548 C551 1.511 . S
C549 C545 1.376 . S
C549 C548 1.392 . S
C549 H561 0.929 . S
C550 C546 1.531 . S
C550 H562 0.960 . S
C550 H563 0.962 . S
C550 H564 0.960 . S
C551 C548 1.511 . S
C551 H565 0.961 . S
C551 H566 0.961 . S
C551 H567 0.961 . S
C552 C553 1.370 . S
C552 C554 1.363 . S
C552 H568 0.931 . S
C553 C552 1.370 . S
C553 C557 1.408 . S
C554 C552 1.363 . S
C554 C555 1.370 . S
C554 C558 1.524 . S
C555 C547 1.503 . S
C555 C554 1.370 . S
C555 C556 1.403 . S
C556 C555 1.403 . S
C556 C557 1.404 . S
C556 C559 1.539 . S
C557 C553 1.408 . S
C557 C556 1.404 . S
C557 H569 0.930 . S
C558 C554 1.524 . S
C558 H570 0.956 . S
C558 H571 0.961 . S
C558 H572 0.961 . S
C559 C556 1.539 . S
C559 H573 0.958 . S
C559 H574 0.961 . S
C559 H575 0.960 . S
H560 C544 0.931 . S
H561 C549 0.929 . S
H562 C550 0.960 . S
H563 C550 0.962 . S
H564 C550 0.960 . S
H565 C551 0.961 . S
H566 C551 0.961 . S
H567 C551 0.961 . S
H568 C552 0.931 . S
H569 C557 0.930 . S
H570 C558 0.956 . S
H571 C558 0.961 . S
H572 C558 0.961 . S
H573 C559 0.958 . S
H574 C559 0.961 . S
H575 C559 0.960 . S
C576 C577 1.391 . S
C576 C578 1.394 . S
C576 H592 0.931 . S
C577 C576 1.391 . S
C577 C581 1.376 . S
C578 C576 1.394 . S
C578 C579 1.369 . S
C578 C582 1.531 . S
C579 C578 1.369 . S
C579 C580 1.410 . S
C579 C587 1.503 . S
C580 C579 1.410 . S
C580 C581 1.392 . S
C580 C583 1.511 . S
C581 C577 1.376 . S
C581 C580 1.392 . S
C581 H593 0.929 . S
C582 C578 1.531 . S
C582 H594 0.960 . S
C582 H595 0.962 . S
C582 H596 0.976 . S
C583 C580 1.511 . S
C583 H597 0.961 . S
C583 H598 0.961 . S
C583 H599 0.961 . S
C584 C585 1.370 . S
C584 C586 1.363 . S
C584 H600 0.931 . S
C585 C584 1.370 . S
C585 C589 1.408 . S
C586 C584 1.363 . S
C586 C587 1.370 . S
C586 C590 1.524 . S
C587 C579 1.503 . S
C587 C586 1.370 . S
C587 C588 1.403 . S
C588 C587 1.403 . S
C588 C589 1.404 . S
C588 C591 1.539 . S
C589 C585 1.408 . S
C589 C588 1.404 . S
C589 H601 0.930 . S
C590 C586 1.524 . S
C590 H602 0.956 . S
C590 H603 0.961 . S
C590 H604 0.961 . S
C591 C588 1.539 . S
C591 H605 0.958 . S
C591 H606 0.961 . S
C591 H607 0.960 . S
H592 C576 0.931 . S
H593 C581 0.929 . S
H594 C582 0.960 . S
H595 C582 0.962 . S
H596 C582 0.976 . S
H597 C583 0.961 . S
H598 C583 0.961 . S
H599 C583 0.961 . S
H600 C584 0.931 . S
H601 C589 0.930 . S
H602 C590 0.956 . S
H603 C590 0.961 . S
H604 C590 0.961 . S
H605 C591 0.958 . S
H606 C591 0.961 . S
H607 C591 0.960 . S
C608 C609 1.391 . S
C608 C610 1.394 . S
C608 H624 0.931 . S
C609 C608 1.391 . S
C609 C613 1.376 . S
C610 C608 1.394 . S
C610 C611 1.369 . S
C610 C614 1.531 . S
C611 C610 1.369 . S
C611 C612 1.410 . S
C611 C619 1.503 . S
C612 C611 1.410 . S
C612 C613 1.392 . S
C612 C615 1.511 . S
C613 C609 1.376 . S
C613 C612 1.392 . S
C613 H625 0.929 . S
C614 C610 1.531 . S
C614 H626 0.960 . S
C614 H627 0.962 . S
C614 H628 0.960 . S
C615 C612 1.511 . S
C615 H629 0.961 . S
C615 H630 0.961 . S
C615 H631 0.961 . S
C616 C617 1.370 . S
C616 C618 1.363 . S
C616 H632 0.931 1_554 S
C617 C616 1.370 . S
C617 C621 1.408 . S
C618 C616 1.363 . S
C618 C619 1.370 . S
C618 C622 1.524 . S
C619 C611 1.503 . S
C619 C618 1.370 . S
C619 C620 1.403 . S
C620 C619 1.403 . S
C620 C621 1.404 . S
C620 C623 1.539 . S
C621 C617 1.408 . S
C621 C620 1.404 . S
C621 H633 0.930 . S
C622 C618 1.524 . S
C622 H634 0.956 . S
C622 H635 0.961 . S
C622 H636 0.961 1_554 S
C623 C620 1.539 . S
C623 H637 0.958 . S
C623 H638 0.961 . S
C623 H639 0.960 . S
H624 C608 0.931 . S
H625 C613 0.929 . S
H626 C614 0.960 . S
H627 C614 0.962 . S
H628 C614 0.960 . S
H629 C615 0.961 . S
H630 C615 0.961 . S
H631 C615 0.961 . S
H632 C616 0.931 1_556 S
H633 C621 0.930 . S
H634 C622 0.956 . S
H635 C622 0.961 . S
H636 C622 0.961 1_556 S
H637 C623 0.958 . S
H638 C623 0.961 . S
H639 C623 0.960 . S
C640 C641 1.391 . S
C640 C642 1.394 . S
C640 H656 0.931 . S
C641 C640 1.391 . S
C641 C645 1.376 . S
C642 C640 1.394 . S
C642 C643 1.369 . S
C642 C646 1.531 . S
C643 C642 1.369 . S
C643 C644 1.410 . S
C643 C651 1.503 . S
C644 C643 1.410 . S
C644 C645 1.392 . S
C644 C647 1.511 . S
C645 C641 1.376 . S
C645 C644 1.392 . S
C645 H657 0.929 . S
C646 C642 1.531 . S
C646 H658 0.960 . S
C646 H659 0.962 . S
C646 H660 0.960 . S
C647 C644 1.511 . S
C647 H661 0.961 . S
C647 H662 0.961 . S
C647 H663 0.961 . S
C648 C649 1.370 . S
C648 C650 1.363 . S
C648 H664 0.931 . S
C649 C648 1.370 . S
C649 C653 1.408 . S
C650 C648 1.363 . S
C650 C651 1.370 . S
C650 C654 1.524 . S
C651 C643 1.503 . S
C651 C650 1.370 . S
C651 C652 1.403 . S
C652 C651 1.403 . S
C652 C653 1.404 . S
C652 C655 1.539 . S
C653 C649 1.408 . S
C653 C652 1.404 . S
C653 H665 0.930 . S
C654 C650 1.524 . S
C654 H666 0.956 . S
C654 H667 0.961 . S
C654 H668 0.961 . S
C655 C652 1.539 . S
C655 H669 0.958 . S
C655 H670 0.961 . S
C655 H671 0.960 . S
H656 C640 0.931 . S
H657 C645 0.929 . S
H658 C646 0.960 . S
H659 C646 0.962 . S
H660 C646 0.960 . S
H661 C647 0.961 . S
H662 C647 0.961 . S
H663 C647 0.961 . S
H664 C648 0.931 . S
H665 C653 0.930 . S
H666 C654 0.956 . S
H667 C654 0.961 . S
H668 C654 0.961 . S
H669 C655 0.958 . S
H670 C655 0.961 . S
H671 C655 0.960 . S
C672 C673 1.391 . S
C672 C674 1.394 . S
C672 H688 0.931 . S
C673 C672 1.391 . S
C673 C677 1.376 . S
C674 C672 1.394 . S
C674 C675 1.369 . S
C674 C678 1.531 . S
C675 C674 1.369 . S
C675 C676 1.410 . S
C675 C683 1.503 . S
C676 C675 1.410 . S
C676 C677 1.392 . S
C676 C679 1.511 . S
C677 C673 1.376 . S
C677 C676 1.392 . S
C677 H689 0.929 . S
C678 C674 1.531 . S
C678 H690 0.960 . S
C678 H691 0.962 . S
C678 H692 0.960 . S
C679 C676 1.511 . S
C679 H693 0.961 . S
C679 H694 0.961 . S
C679 H695 0.961 . S
C680 C681 1.370 . S
C680 C682 1.363 . S
C680 H696 0.931 . S
C681 C680 1.370 . S
C681 C685 1.408 . S
C682 C680 1.363 . S
C682 C683 1.370 . S
C682 C686 1.524 . S
C683 C675 1.503 . S
C683 C682 1.370 . S
C683 C684 1.403 . S
C684 C683 1.403 . S
C684 C685 1.404 . S
C684 C687 1.539 . S
C685 C681 1.408 . S
C685 C684 1.404 . S
C685 H697 0.930 . S
C686 C682 1.524 . S
C686 H698 0.956 . S
C686 H699 0.961 . S
C686 H700 0.961 . S
C687 C684 1.539 . S
C687 H701 0.958 . S
C687 H702 0.961 . S
C687 H703 0.960 . S
H688 C672 0.931 . S
H689 C677 0.929 . S
H690 C678 0.960 . S
H691 C678 0.962 . S
H692 C678 0.960 . S
H693 C679 0.961 . S
H694 C679 0.961 . S
H695 C679 0.961 . S
H696 C680 0.931 . S
H697 C685 0.930 . S
H698 C686 0.956 . S
H699 C686 0.961 . S
H700 C686 0.961 . S
H701 C687 0.958 . S
H702 C687 0.961 . S
H703 C687 0.960 . S
C704 C705 1.391 . S
C704 C706 1.394 . S
C704 H720 0.931 . S
C705 C704 1.391 . S
C705 C709 1.376 . S
C706 C704 1.394 . S
C706 C707 1.369 . S
C706 C710 1.531 . S
C707 C706 1.369 . S
C707 C708 1.410 . S
C707 C715 1.503 . S
C708 C707 1.410 . S
C708 C709 1.392 . S
C708 C711 1.511 . S
C709 C705 1.376 . S
C709 C708 1.392 . S
C709 H721 0.929 . S
C710 C706 1.531 . S
C710 H722 0.960 . S
C710 H723 0.962 . S
C710 H724 0.960 . S
C711 C708 1.511 . S
C711 H725 0.961 . S
C711 H726 0.961 . S
C711 H727 0.961 . S
C712 C713 1.370 . S
C712 C714 1.363 . S
C712 H728 0.931 . S
C713 C712 1.370 . S
C713 C717 1.408 . S
C714 C712 1.363 . S
C714 C715 1.370 . S
C714 C718 1.524 . S
C715 C707 1.503 . S
C715 C714 1.370 . S
C715 C716 1.403 . S
C716 C715 1.403 . S
C716 C717 1.404 . S
C716 C719 1.539 . S
C717 C713 1.408 . S
C717 C716 1.404 . S
C717 H729 0.930 . S
C718 C714 1.524 . S
C718 H730 0.956 . S
C718 H731 0.961 . S
C718 H732 0.961 . S
C719 C716 1.539 . S
C719 H733 0.958 . S
C719 H734 0.961 . S
C719 H735 0.960 . S
H720 C704 0.931 . S
H721 C709 0.929 . S
H722 C710 0.960 . S
H723 C710 0.962 . S
H724 C710 0.960 . S
H725 C711 0.961 . S
H726 C711 0.961 . S
H727 C711 0.961 . S
H728 C712 0.931 . S
H729 C717 0.930 . S
H730 C718 0.956 . S
H731 C718 0.961 . S
H732 C718 0.961 . S
H733 C719 0.958 . S
H734 C719 0.961 . S
H735 C719 0.960 . S
C736 C737 1.391 . S
C736 C738 1.394 . S
C736 H752 0.931 . S
C737 C736 1.391 . S
C737 C741 1.376 . S
C738 C736 1.394 . S
C738 C739 1.369 . S
C738 C742 1.531 . S
C739 C738 1.369 . S
C739 C740 1.410 . S
C739 C747 1.503 . S
C740 C739 1.410 . S
C740 C741 1.392 . S
C740 C743 1.511 . S
C741 C737 1.376 . S
C741 C740 1.392 . S
C741 H753 0.929 . S
C742 C738 1.531 . S
C742 H754 0.960 . S
C742 H755 0.962 . S
C742 H756 0.960 . S
C743 C740 1.511 . S
C743 H757 0.961 . S
C743 H758 0.961 . S
C743 H759 0.961 . S
C744 C745 1.370 . S
C744 C746 1.363 . S
C744 H760 0.931 . S
C745 C744 1.370 . S
C745 C749 1.408 . S
C746 C744 1.363 . S
C746 C747 1.370 . S
C746 C750 1.524 . S
C747 C739 1.503 . S
C747 C746 1.370 . S
C747 C748 1.403 . S
C748 C747 1.403 . S
C748 C749 1.404 . S
C748 C751 1.539 . S
C749 C745 1.408 . S
C749 C748 1.404 . S
C749 H761 0.930 . S
C750 C746 1.524 . S
C750 H762 0.956 . S
C750 H763 0.961 . S
C750 H764 0.961 . S
C751 C748 1.539 . S
C751 H765 0.958 . S
C751 H766 0.961 . S
C751 H767 0.960 . S
H752 C736 0.931 . S
H753 C741 0.929 . S
H754 C742 0.960 . S
H755 C742 0.962 . S
H756 C742 0.960 . S
H757 C743 0.961 . S
H758 C743 0.961 . S
H759 C743 0.961 . S
H760 C744 0.931 . S
H761 C749 0.930 . S
H762 C750 0.956 . S
H763 C750 0.961 . S
H764 C750 0.961 . S
H765 C751 0.958 . S
H766 C751 0.961 . S
H767 C751 0.960 . S
C768 C769 1.391 . S
C768 C770 1.394 . S
C768 H784 0.931 . S
C769 C768 1.391 . S
C769 C773 1.376 . S
C770 C768 1.394 . S
C770 C771 1.369 . S
C770 C774 1.531 . S
C771 C770 1.369 . S
C771 C772 1.410 . S
C771 C779 1.503 . S
C772 C771 1.410 . S
C772 C773 1.392 . S
C772 C775 1.511 . S
C773 C769 1.376 . S
C773 C772 1.392 . S
C773 H785 0.929 . S
C774 C770 1.531 . S
C774 H786 0.960 . S
C774 H787 0.962 . S
C774 H788 0.960 . S
C775 C772 1.511 . S
C775 H789 0.961 . S
C775 H790 0.961 . S
C775 H791 0.961 . S
C776 C777 1.370 . S
C776 C778 1.363 . S
C776 H792 0.931 . S
C777 C776 1.370 . S
C777 C781 1.408 . S
C778 C776 1.363 . S
C778 C779 1.370 . S
C778 C782 1.524 . S
C779 C771 1.503 . S
C779 C778 1.370 . S
C779 C780 1.403 . S
C780 C779 1.403 . S
C780 C781 1.404 . S
C780 C783 1.539 . S
C781 C777 1.408 . S
C781 C780 1.404 . S
C781 H793 0.930 . S
C782 C778 1.524 . S
C782 H794 0.956 . S
C782 H795 0.961 . S
C782 H796 0.961 . S
C783 C780 1.539 . S
C783 H797 0.958 . S
C783 H798 0.961 . S
C783 H799 0.960 . S
H784 C768 0.931 . S
H785 C773 0.929 . S
H786 C774 0.960 . S
H787 C774 0.962 . S
H788 C774 0.960 . S
H789 C775 0.961 . S
H790 C775 0.961 . S
H791 C775 0.961 . S
H792 C776 0.931 . S
H793 C781 0.930 . S
H794 C782 0.956 . S
H795 C782 0.961 . S
H796 C782 0.961 . S
H797 C783 0.958 . S
H798 C783 0.961 . S
H799 C783 0.960 . S
C800 C801 1.391 . S
C800 C802 1.394 . S
C800 H816 0.931 . S
C801 C800 1.391 . S
C801 C805 1.376 . S
C802 C800 1.394 . S
C802 C803 1.369 . S
C802 C806 1.531 . S
C803 C802 1.369 . S
C803 C804 1.410 . S
C803 C811 1.503 . S
C804 C803 1.410 . S
C804 C805 1.392 . S
C804 C807 1.511 . S
C805 C801 1.376 . S
C805 C804 1.392 . S
C805 H817 0.929 . S
C806 C802 1.531 . S
C806 H818 0.960 . S
C806 H819 0.962 . S
C806 H820 0.960 . S
C807 C804 1.511 . S
C807 H821 0.961 . S
C807 H822 0.961 . S
C807 H823 0.961 . S
C808 C809 1.370 . S
C808 C810 1.363 . S
C808 H824 0.931 . S
C809 C808 1.370 . S
C809 C813 1.408 . S
C810 C808 1.363 . S
C810 C811 1.370 . S
C810 C814 1.524 . S
C811 C803 1.503 . S
C811 C810 1.370 . S
C811 C812 1.403 . S
C812 C811 1.403 . S
C812 C813 1.404 . S
C812 C815 1.539 . S
C813 C809 1.408 . S
C813 C812 1.404 . S
C813 H825 0.930 . S
C814 C810 1.524 . S
C814 H826 0.956 . S
C814 H827 0.961 . S
C814 H828 0.961 . S
C815 C812 1.539 . S
C815 H829 0.958 . S
C815 H830 0.961 . S
C815 H831 0.960 . S
H816 C800 0.931 . S
H817 C805 0.929 . S
H818 C806 0.960 . S
H819 C806 0.962 . S
H820 C806 0.960 . S
H821 C807 0.961 . S
H822 C807 0.961 . S
H823 C807 0.961 . S
H824 C808 0.931 . S
H825 C813 0.930 . S
H826 C814 0.956 . S
H827 C814 0.961 . S
H828 C814 0.961 . S
H829 C815 0.958 . S
H830 C815 0.961 . S
H831 C815 0.960 . S
C832 C833 1.391 1_455 S
C832 C834 1.394 . S
C832 H848 0.931 . S
C833 C832 1.391 1_655 S
C833 C837 1.376 . S
C834 C832 1.394 . S
C834 C835 1.369 1_455 S
C834 C838 1.531 . S
C835 C834 1.369 1_655 S
C835 C836 1.410 . S
C835 C843 1.503 1_656 S
C836 C835 1.410 . S
C836 C837 1.392 . S
C836 C839 1.511 . S
C837 C833 1.376 . S
C837 C836 1.392 . S
C837 H849 0.929 . S
C838 C834 1.531 . S
C838 H850 0.960 1_556 S
C838 H851 0.962 1_545 S
C838 H852 0.960 . S
C839 C836 1.511 . S
C839 H853 0.961 . S
C839 H854 0.961 1_556 S
C839 H855 0.961 1_556 S
C840 C841 1.370 . S
C840 C842 1.363 . S
C840 H856 0.931 . S
C841 C840 1.370 . S
C841 C845 1.408 1_565 S
C842 C840 1.363 . S
C842 C843 1.370 1_565 S
C842 C846 1.524 1_454 S
C843 C835 1.503 1_454 S
C843 C842 1.370 1_545 S
C843 C844 1.403 . S
C844 C843 1.403 . S
C844 C845 1.404 . S
C844 C847 1.539 . S
C845 C841 1.408 1_545 S
C845 C844 1.404 . S
C845 H857 0.930 . S
C846 C842 1.524 1_656 S
C846 H858 0.956 1_655 S
C846 H859 0.961 . S
C846 H860 0.961 1_556 S
C847 C844 1.539 . S
C847 H861 0.958 . S
C847 H862 0.961 . S
C847 H863 0.960 . S
H848 C832 0.931 . S
H849 C837 0.929 . S
H850 C838 0.960 1_554 S
H851 C838 0.962 1_565 S
H852 C838 0.960 . S
H853 C839 0.961 . S
H854 C839 0.961 1_554 S
H855 C839 0.961 1_554 S
H856 C840 0.931 . S
H857 C845 0.930 . S
H858 C846 0.956 1_455 S
H859 C846 0.961 . S
H860 C846 0.961 1_554 S
H861 C847 0.958 . S
H862 C847 0.961 . S
H863 C847 0.960 . S
C864 C865 1.391 . S
C864 C866 1.394 . S
C864 H880 0.931 . S
C865 C864 1.391 . S
C865 C869 1.376 . S
C866 C864 1.394 . S
C866 C867 1.369 . S
C866 C870 1.531 . S
C867 C866 1.369 . S
C867 C868 1.410 . S
C867 C875 1.503 . S
C868 C867 1.410 . S
C868 C869 1.392 . S
C868 C871 1.511 . S
C869 C865 1.376 . S
C869 C868 1.392 . S
C869 H881 0.929 . S
C870 C866 1.531 . S
C870 H882 0.960 . S
C870 H883 0.962 . S
C870 H884 0.960 . S
C871 C868 1.511 . S
C871 H885 0.961 . S
C871 H886 0.961 . S
C871 H887 0.961 . S
C872 C873 1.370 . S
C872 C874 1.363 . S
C872 H888 0.931 . S
C873 C872 1.370 . S
C873 C877 1.408 . S
C874 C872 1.363 . S
C874 C875 1.370 . S
C874 C878 1.524 . S
C875 C867 1.503 . S
C875 C874 1.370 . S
C875 C876 1.403 . S
C876 C875 1.403 . S
C876 C877 1.404 . S
C876 C879 1.539 . S
C877 C873 1.408 . S
C877 C876 1.404 . S
C877 H889 0.930 . S
C878 C874 1.524 . S
C878 H890 0.956 . S
C878 H891 0.961 . S
C878 H892 0.961 . S
C879 C876 1.539 . S
C879 H893 0.958 . S
C879 H894 0.961 . S
C879 H895 0.960 . S
H880 C864 0.931 . S
H881 C869 0.929 . S
H882 C870 0.960 . S
H883 C870 0.962 . S
H884 C870 0.960 . S
H885 C871 0.961 . S
H886 C871 0.961 . S
H887 C871 0.961 . S
H888 C872 0.931 . S
H889 C877 0.930 . S
H890 C878 0.956 . S
H891 C878 0.961 . S
H892 C878 0.961 . S
H893 C879 0.958 . S
H894 C879 0.961 . S
H895 C879 0.960 . S
C896 C897 1.391 . S
C896 C898 1.394 . S
C896 H912 0.931 . S
C897 C896 1.391 . S
C897 C901 1.376 1_565 S
C898 C896 1.394 . S
C898 C899 1.369 . S
C898 C902 1.531 . S
C899 C898 1.369 . S
C899 C900 1.410 1_565 S
C899 C907 1.503 . S
C900 C899 1.410 1_545 S
C900 C901 1.392 . S
C900 C903 1.511 . S
C901 C897 1.376 1_545 S
C901 C900 1.392 . S
C901 H913 0.929 . S
C902 C898 1.531 . S
C902 H914 0.960 . S
C902 H915 0.962 . S
C902 H916 0.960 . S
C903 C900 1.511 . S
C903 H917 0.961 . S
C903 H918 0.961 . S
C903 H919 0.961 . S
C904 C905 1.370 . S
C904 C906 1.363 . S
C904 H920 0.931 . S
C905 C904 1.370 . S
C905 C909 1.408 1_545 S
C906 C904 1.363 . S
C906 C907 1.370 1_545 S
C906 C910 1.524 . S
C907 C899 1.503 . S
C907 C906 1.370 1_565 S
C907 C908 1.403 . S
C908 C907 1.403 . S
C908 C909 1.404 . S
C908 C911 1.539 . S
C909 C905 1.408 1_565 S
C909 C908 1.404 . S
C909 H921 0.930 . S
C910 C906 1.524 . S
C910 H922 0.956 . S
C910 H923 0.961 . S
C910 H924 0.961 . S
C911 C908 1.539 . S
C911 H925 0.958 . S
C911 H926 0.961 . S
C911 H927 0.960 . S
H912 C896 0.931 . S
H913 C901 0.929 . S
H914 C902 0.960 . S
H915 C902 0.962 . S
H916 C902 0.960 . S
H917 C903 0.961 . S
H918 C903 0.961 . S
H919 C903 0.961 . S
H920 C904 0.931 . S
H921 C909 0.930 . S
H922 C910 0.956 . S
H923 C910 0.961 . S
H924 C910 0.961 . S
H925 C911 0.958 . S
H926 C911 0.961 . S
H927 C911 0.960 . S
C928 C929 1.391 . S
C928 C930 1.394 . S
C928 H944 0.931 . S
C929 C928 1.391 . S
C929 C933 1.376 . S
C930 C928 1.394 . S
C930 C931 1.369 . S
C930 C934 1.531 . S
C931 C930 1.369 . S
C931 C932 1.410 . S
C931 C939 1.503 . S
C932 C931 1.410 . S
C932 C933 1.392 . S
C932 C935 1.511 . S
C933 C929 1.376 . S
C933 C932 1.392 . S
C933 H945 0.929 . S
C934 C930 1.531 . S
C934 H946 0.960 . S
C934 H947 0.962 . S
C934 H948 0.960 . S
C935 C932 1.511 . S
C935 H949 0.961 . S
C935 H950 0.961 . S
C935 H951 0.961 . S
C936 C937 1.370 . S
C936 C938 1.363 . S
C936 H952 0.931 . S
C937 C936 1.370 . S
C937 C941 1.408 . S
C938 C936 1.363 . S
C938 C939 1.370 . S
C938 C942 1.524 . S
C939 C931 1.503 . S
C939 C938 1.370 . S
C939 C940 1.403 . S
C940 C939 1.403 . S
C940 C941 1.404 . S
C940 C943 1.539 . S
C941 C937 1.408 . S
C941 C940 1.404 . S
C941 H953 0.930 . S
C942 C938 1.524 . S
C942 H954 0.956 . S
C942 H955 0.961 . S
C942 H956 0.961 . S
C943 C940 1.539 . S
C943 H957 0.958 . S
C943 H958 0.961 . S
C943 H959 0.960 . S
H944 C928 0.931 . S
H945 C933 0.929 . S
H946 C934 0.960 . S
H947 C934 0.962 . S
H948 C934 0.960 . S
H949 C935 0.961 . S
H950 C935 0.961 . S
H951 C935 0.961 . S
H952 C936 0.931 . S
H953 C941 0.930 . S
H954 C942 0.956 . S
H955 C942 0.961 . S
H956 C942 0.961 . S
H957 C943 0.958 . S
H958 C943 0.961 . S
H959 C943 0.960 . S
C960 C961 1.391 . S
C960 C962 1.394 . S
C960 H976 0.931 . S
C961 C960 1.391 . S
C961 C965 1.376 . S
C962 C960 1.394 . S
C962 C963 1.369 . S
C962 C966 1.531 . S
C963 C962 1.369 . S
C963 C964 1.410 . S
C963 C971 1.503 . S
C964 C963 1.410 . S
C964 C965 1.392 . S
C964 C967 1.511 . S
C965 C961 1.376 . S
C965 C964 1.392 . S
C965 H977 0.929 . S
C966 C962 1.531 . S
C966 H978 0.960 . S
C966 H979 0.962 . S
C966 H980 0.960 . S
C967 C964 1.511 . S
C967 H981 0.961 . S
C967 H982 0.961 . S
C967 H983 0.961 . S
C968 C969 1.370 . S
C968 C970 1.363 . S
C968 H984 0.931 . S
C969 C968 1.370 . S
C969 C973 1.408 . S
C970 C968 1.363 . S
C970 C971 1.370 . S
C970 C974 1.524 . S
C971 C963 1.503 . S
C971 C970 1.370 . S
C971 C972 1.403 . S
C972 C971 1.403 . S
C972 C973 1.404 . S
C972 C975 1.539 . S
C973 C969 1.408 . S
C973 C972 1.404 . S
C973 H985 0.930 . S
C974 C970 1.524 . S
C974 H986 0.956 . S
C974 H987 0.961 . S
C974 H988 0.961 . S
C975 C972 1.539 . S
C975 H989 0.958 . S
C975 H990 0.961 . S
C975 H991 0.960 . S
H976 C960 0.931 . S
H977 C965 0.929 . S
H978 C966 0.960 . S
H979 C966 0.962 . S
H980 C966 0.960 . S
H981 C967 0.961 . S
H982 C967 0.961 . S
H983 C967 0.961 . S
H984 C968 0.931 . S
H985 C973 0.930 . S
H986 C974 0.956 . S
H987 C974 0.961 . S
H988 C974 0.961 . S
H989 C975 0.958 . S
H990 C975 0.961 . S
H991 C975 0.960 . S
C992 C993 1.391 . S
C992 C994 1.394 . S
C992 H1008 0.931 . S
C993 C992 1.391 . S
C993 C997 1.376 . S
C994 C992 1.394 . S
C994 C995 1.369 . S
C994 C998 1.531 . S
C995 C994 1.369 . S
C995 C996 1.410 . S
C995 C1003 1.503 . S
C996 C995 1.410 . S
C996 C997 1.392 . S
C996 C999 1.511 . S
C997 C993 1.376 . S
C997 C996 1.392 . S
C997 H1009 0.929 . S
C998 C994 1.531 . S
C998 H1010 0.960 . S
C998 H1011 0.962 . S
C998 H1012 0.960 . S
C999 C996 1.511 . S
C999 H1013 0.961 . S
C999 H1014 0.961 . S
C999 H1015 0.961 . S
C1000 C1001 1.370 . S
C1000 C1002 1.363 . S
C1000 H1016 0.931 . S
C1001 C1000 1.370 . S
C1001 C1005 1.408 . S
C1002 C1000 1.363 . S
C1002 C1003 1.370 . S
C1002 C1006 1.524 . S
C1003 C995 1.503 . S
C1003 C1002 1.370 . S
C1003 C1004 1.403 . S
C1004 C1003 1.403 . S
C1004 C1005 1.404 . S
C1004 C1007 1.539 . S
C1005 C1001 1.408 . S
C1005 C1004 1.404 . S
C1005 H1017 0.930 . S
C1006 C1002 1.524 . S
C1006 H1018 0.956 . S
C1006 H1019 0.961 . S
C1006 H1020 0.961 . S
C1007 C1004 1.539 . S
C1007 H1021 0.958 . S
C1007 H1022 0.961 . S
C1007 H1023 0.960 . S
H1008 C992 0.931 . S
H1009 C997 0.929 . S
H1010 C998 0.960 . S
H1011 C998 0.962 . S
H1012 C998 0.960 . S
H1013 C999 0.961 . S
H1014 C999 0.961 . S
H1015 C999 0.961 . S
H1016 C1000 0.931 . S
H1017 C1005 0.930 . S
H1018 C1006 0.956 . S
H1019 C1006 0.961 . S
H1020 C1006 0.961 . S
H1021 C1007 0.958 . S
H1022 C1007 0.961 . S
H1023 C1007 0.960 . S
C1024 C1025 1.391 . S
C1024 C1026 1.394 . S
C1024 H1040 0.931 . S
C1025 C1024 1.391 . S
C1025 C1029 1.376 . S
C1026 C1024 1.394 . S
C1026 C1027 1.369 . S
C1026 C1030 1.531 . S
C1027 C1026 1.369 . S
C1027 C1028 1.410 . S
C1027 C1035 1.503 . S
C1028 C1027 1.410 . S
C1028 C1029 1.392 . S
C1028 C1031 1.511 . S
C1029 C1025 1.376 . S
C1029 C1028 1.392 . S
C1029 H1041 0.929 . S
C1030 C1026 1.531 . S
C1030 H1042 0.960 . S
C1030 H1043 0.962 . S
C1030 H1044 0.960 . S
C1031 C1028 1.511 . S
C1031 H1045 0.961 . S
C1031 H1046 0.961 . S
C1031 H1047 0.961 . S
C1032 C1033 1.370 . S
C1032 C1034 1.363 . S
C1032 H1048 0.931 . S
C1033 C1032 1.370 . S
C1033 C1037 1.408 . S
C1034 C1032 1.363 . S
C1034 C1035 1.370 . S
C1034 C1038 1.524 . S
C1035 C1027 1.503 . S
C1035 C1034 1.370 . S
C1035 C1036 1.403 . S
C1036 C1035 1.403 . S
C1036 C1037 1.404 . S
C1036 C1039 1.539 . S
C1037 C1033 1.408 . S
C1037 C1036 1.404 . S
C1037 H1049 0.930 . S
C1038 C1034 1.524 . S
C1038 H1050 0.956 . S
C1038 H1051 0.961 . S
C1038 H1052 0.961 . S
C1039 C1036 1.539 . S
C1039 H1053 0.958 . S
C1039 H1054 0.961 . S
C1039 H1055 0.960 . S
H1040 C1024 0.931 . S
H1041 C1029 0.929 . S
H1042 C1030 0.960 . S
H1043 C1030 0.962 . S
H1044 C1030 0.960 . S
H1045 C1031 0.961 . S
H1046 C1031 0.961 . S
H1047 C1031 0.961 . S
H1048 C1032 0.931 . S
H1049 C1037 0.930 . S
H1050 C1038 0.956 . S
H1051 C1038 0.961 . S
H1052 C1038 0.961 . S
H1053 C1039 0.958 . S
H1054 C1039 0.961 . S
H1055 C1039 0.960 . S
C1056 C1057 1.391 1_455 S
C1056 C1058 1.394 . S
C1056 H1072 0.931 . S
C1057 C1056 1.391 1_655 S
C1057 C1061 1.376 . S
C1058 C1056 1.394 . S
C1058 C1059 1.369 1_455 S
C1058 C1062 1.531 . S
C1059 C1058 1.369 1_655 S
C1059 C1060 1.410 . S
C1059 C1067 1.503 1_656 S
C1060 C1059 1.410 . S
C1060 C1061 1.392 . S
C1060 C1063 1.511 . S
C1061 C1057 1.376 . S
C1061 C1060 1.392 . S
C1061 H1073 0.929 . S
C1062 C1058 1.531 . S
C1062 H1074 0.960 1_556 S
C1062 H1075 0.962 . S
C1062 H1076 0.960 . S
C1063 C1060 1.511 . S
C1063 H1077 0.961 . S
C1063 H1078 0.961 1_556 S
C1063 H1079 0.961 . S
C1064 C1065 1.370 . S
C1064 C1066 1.363 . S
C1064 H1080 0.931 . S
C1065 C1064 1.370 . S
C1065 C1069 1.408 . S
C1066 C1064 1.363 . S
C1066 C1067 1.370 . S
C1066 C1070 1.524 . S
C1067 C1059 1.503 1_454 S
C1067 C1066 1.370 . S
C1067 C1068 1.403 1_455 S
C1068 C1067 1.403 1_655 S
C1068 C1069 1.404 1_655 S
C1068 C1071 1.539 . S
C1069 C1065 1.408 . S
C1069 C1068 1.404 1_455 S
C1069 H1081 0.930 . S
C1070 C1066 1.524 . S
C1070 H1082 0.956 1_554 S
C1070 H1083 0.961 1_454 S
C1070 H1084 0.961 . S
C1071 C1068 1.539 . S
C1071 H1085 0.946 1_655 S
C1071 H1086 0.961 . S
C1071 H1087 0.960 . S
H1072 C1056 0.931 . S
H1073 C1061 0.929 . S
H1074 C1062 0.960 1_554 S
H1075 C1062 0.962 . S
H1076 C1062 0.960 . S
H1077 C1063 0.961 . S
H1078 C1063 0.961 1_554 S
H1079 C1063 0.961 . S
H1080 C1064 0.931 . S
H1081 C1069 0.930 . S
H1082 C1070 0.956 1_556 S
H1083 C1070 0.961 1_656 S
H1084 C1070 0.961 . S
H1085 C1071 0.946 1_455 S
H1086 C1071 0.961 . S
H1087 C1071 0.960 . S
C321 C19 1.972 . S
C329 C139 1.968 . S
C353 C18 1.512 . S
C361 C59 1.534 . S
C385 C58 1.032 . S
C393 C98 1.021 . S
C417 C99 1.544 . S
C425 C138 1.492 . S
C449 C9 1.962 . S
C457 C209 1.973 . S
C481 C8 1.486 . S
C489 C169 1.537 . S
C513 C168 0.978 . S
C521 C88 1.007 . S
C545 C208 1.477 . S
C553 C89 1.545 . S
C577 C259 1.961 . S
C585 C219 1.969 . S
C609 C179 1.523 . S
C617 C258 1.513 . S
C641 C298 0.985 . S
C649 C178 0.992 . S
C673 C218 1.510 . S
C681 C299 1.539 . S
C705 C129 1.965 . S
C713 C249 1.973 . S
C737 C248 1.526 . S
C745 C49 1.533 . S
C769 C48 1.024 . S
C777 C288 1.019 . S
C801 C128 1.479 . S
C809 C289 1.539 . S
C833 C5 1.488 . S
C841 C15 1.474 . S
C865 C55 1.347 . S
C873 C45 1.368 . S
C897 C85 1.349 . S
C905 C95 1.369 . S
C929 C125 1.486 . S
C937 C135 1.474 . S
C961 C175 1.371 . S
C969 C165 1.360 . S
C993 C205 1.481 . S
C1001 C215 1.479 . S
C1025 C255 1.484 . S
C1033 C245 1.478 . S
C1057 C295 1.370 . S
C1065 C285 1.358 . S
