# Generated by pormake.
# Topology uot, (4)-cn, num edge types: 1
# Building blocks:
#     Node 0, Type 0, BuildingBlock: UXUYUI_clean_sbu_0, # of connection points: 4
#     Node 1, Type 0, BuildingBlock: UXUYUI_clean_sbu_0, # of connection points: 4
#     Node 2, Type 0, BuildingBlock: UXUYUI_clean_sbu_0, # of connection points: 4
#     Node 3, Type 0, BuildingBlock: UXUYUI_clean_sbu_0, # of connection points: 4
#     Node 4, Type 0, BuildingBlock: UXUYUI_clean_sbu_0, # of connection points: 4
#     Node 5, Type 0, BuildingBlock: UXUYUI_clean_sbu_0, # of connection points: 4
#     Node 6, Type 0, BuildingBlock: UXUYUI_clean_sbu_0, # of connection points: 4
#     Node 7, Type 0, BuildingBlock: UXUYUI_clean_sbu_0, # of connection points: 4
#     Node 8, Type 0, BuildingBlock: UXUYUI_clean_sbu_0, # of connection points: 4
#     Node 9, Type 0, BuildingBlock: UXUYUI_clean_sbu_0, # of connection points: 4
#     Node 10, Type 0, BuildingBlock: UXUYUI_clean_sbu_0, # of connection points: 4
#     Node 11, Type 0, BuildingBlock: UXUYUI_clean_sbu_0, # of connection points: 4
#     Node 12, Type 0, BuildingBlock: UXUYUI_clean_sbu_0, # of connection points: 4
#     Node 13, Type 0, BuildingBlock: UXUYUI_clean_sbu_0, # of connection points: 4
#     Node 14, Type 0, BuildingBlock: UXUYUI_clean_sbu_0, # of connection points: 4
#     Node 15, Type 0, BuildingBlock: UXUYUI_clean_sbu_0, # of connection points: 4
#     Edge 16, Type (0, 0), BuildingBlock: OJICUG_clean_linker_0, # of connection points: 2
#     Edge 17, Type (0, 0), BuildingBlock: OJICUG_clean_linker_0, # of connection points: 2
#     Edge 18, Type (0, 0), BuildingBlock: OJICUG_clean_linker_0, # of connection points: 2
#     Edge 19, Type (0, 0), BuildingBlock: OJICUG_clean_linker_0, # of connection points: 2
#     Edge 20, Type (0, 0), BuildingBlock: OJICUG_clean_linker_0, # of connection points: 2
#     Edge 21, Type (0, 0), BuildingBlock: OJICUG_clean_linker_0, # of connection points: 2
#     Edge 22, Type (0, 0), BuildingBlock: OJICUG_clean_linker_0, # of connection points: 2
#     Edge 23, Type (0, 0), BuildingBlock: OJICUG_clean_linker_0, # of connection points: 2
#     Edge 24, Type (0, 0), BuildingBlock: OJICUG_clean_linker_0, # of connection points: 2
#     Edge 25, Type (0, 0), BuildingBlock: OJICUG_clean_linker_0, # of connection points: 2
#     Edge 26, Type (0, 0), BuildingBlock: OJICUG_clean_linker_0, # of connection points: 2
#     Edge 27, Type (0, 0), BuildingBlock: OJICUG_clean_linker_0, # of connection points: 2
#     Edge 28, Type (0, 0), BuildingBlock: OJICUG_clean_linker_0, # of connection points: 2
#     Edge 29, Type (0, 0), BuildingBlock: OJICUG_clean_linker_0, # of connection points: 2
#     Edge 30, Type (0, 0), BuildingBlock: OJICUG_clean_linker_0, # of connection points: 2
#     Edge 31, Type (0, 0), BuildingBlock: OJICUG_clean_linker_0, # of connection points: 2
#     Edge 32, Type (0, 0), BuildingBlock: OJICUG_clean_linker_0, # of connection points: 2
#     Edge 33, Type (0, 0), BuildingBlock: OJICUG_clean_linker_0, # of connection points: 2
#     Edge 34, Type (0, 0), BuildingBlock: OJICUG_clean_linker_0, # of connection points: 2
#     Edge 35, Type (0, 0), BuildingBlock: OJICUG_clean_linker_0, # of connection points: 2
#     Edge 36, Type (0, 0), BuildingBlock: OJICUG_clean_linker_0, # of connection points: 2
#     Edge 37, Type (0, 0), BuildingBlock: OJICUG_clean_linker_0, # of connection points: 2
#     Edge 38, Type (0, 0), BuildingBlock: OJICUG_clean_linker_0, # of connection points: 2
#     Edge 39, Type (0, 0), BuildingBlock: OJICUG_clean_linker_0, # of connection points: 2
#     Edge 40, Type (0, 0), BuildingBlock: OJICUG_clean_linker_0, # of connection points: 2
#     Edge 41, Type (0, 0), BuildingBlock: OJICUG_clean_linker_0, # of connection points: 2
#     Edge 42, Type (0, 0), BuildingBlock: OJICUG_clean_linker_0, # of connection points: 2
#     Edge 43, Type (0, 0), BuildingBlock: OJICUG_clean_linker_0, # of connection points: 2
#     Edge 44, Type (0, 0), BuildingBlock: OJICUG_clean_linker_0, # of connection points: 2
#     Edge 45, Type (0, 0), BuildingBlock: OJICUG_clean_linker_0, # of connection points: 2
#     Edge 46, Type (0, 0), BuildingBlock: OJICUG_clean_linker_0, # of connection points: 2
#     Edge 47, Type (0, 0), BuildingBlock: OJICUG_clean_linker_0, # of connection points: 2
# Relax obj value: 0.272
# Max RMSD: 0.247
# Mean RMSD: 0.247
data_MOF--net-uot--node1-UXUYUI_clean_sbu_0--edge1-OJICUG_clean_linker_0
_symmetry_space_group_name_H-M    P1
_symmetry_Int_Tables_number       1
_symmetry_cell_setting            triclinic
loop_
_symmetry_equiv_pos_as_xyz
'x, y, z'
_cell_length_a     52.027884
_cell_length_b     51.855992
_cell_length_c     48.468051
_cell_angle_alpha  90.000794
_cell_angle_beta   90.000751
_cell_angle_gamma 89.998865
loop_
_atom_site_label
_atom_site_type_symbol
_atom_site_fract_x
_atom_site_fract_y
_atom_site_fract_z
_atom_type_partial_charge
Li0 Li 0.2185 0.47763 0.29822 0.0
Li1 Li 0.22121 0.46042 0.34789 0.0
Li2 Li 0.2482 0.44398 0.31114 0.0
Li3 Li 0.20396 0.43408 0.31033 0.0
C4 C 0.27267 0.48563 0.32864 0.0
N5 N 0.32459 0.49556 0.33445 0.0
C6 C 0.2842 0.48445 0.35465 0.0
C7 C 0.28747 0.49228 0.30566 0.0
C8 C 0.31049 0.48943 0.35715 0.0
C9 C 0.3137 0.4971 0.30899 0.0
C10 C 0.16511 0.46198 0.32662 0.0
C11 C 0.12955 0.44328 0.35145 0.0
N12 N 0.11388 0.44834 0.32964 0.0
C13 C 0.14867 0.46713 0.30451 0.0
C14 C 0.15552 0.45005 0.35033 0.0
C15 C 0.12282 0.46003 0.30642 0.0
C16 C 0.19565 0.5045 0.25421 0.0
N17 N 0.20988 0.50727 0.27753 0.0
C18 C 0.20556 0.55306 0.27562 0.0
C19 C 0.21539 0.53088 0.2881 0.0
C20 C 0.18986 0.55079 0.25212 0.0
C21 C 0.1855 0.52614 0.241 0.0
H22 H 0.19126 0.48539 0.24659 0.0
H23 H 0.22654 0.5324 0.30687 0.0
C24 C 0.23382 0.45694 0.40412 0.0
N25 N 0.2186 0.46931 0.38559 0.0
C26 C 0.23322 0.46393 0.43192 0.0
C27 C 0.20062 0.49563 0.42113 0.0
C28 C 0.20207 0.48822 0.39347 0.0
C29 C 0.21655 0.48361 0.44068 0.0
H30 H 0.24677 0.44197 0.39717 0.0
H31 H 0.19022 0.4977 0.37819 0.0
C32 C 0.23542 0.44291 0.25315 0.0
N33 N 0.2568 0.43849 0.20117 0.0
C34 C 0.23297 0.41991 0.23831 0.0
C35 C 0.24836 0.46378 0.24135 0.0
C36 C 0.24403 0.41802 0.21212 0.0
C37 C 0.25913 0.46113 0.2151 0.0
C38 C 0.23427 0.39848 0.33869 0.0
C39 C 0.23684 0.38578 0.31342 0.0
C40 C 0.23802 0.38486 0.36323 0.0
C41 C 0.24318 0.35961 0.3131 0.0
C42 C 0.24432 0.35869 0.36207 0.0
N43 N 0.24675 0.34671 0.33724 0.0
C44 C 0.29304 0.42307 0.3315 0.0
C45 C 0.29225 0.42117 0.2827 0.0
C46 C 0.31525 0.4081 0.3323 0.0
N47 N 0.28167 0.42884 0.30702 0.0
C48 C 0.31439 0.40587 0.28255 0.0
C49 C 0.32574 0.39848 0.30766 0.0
H50 H 0.2841 0.4291 0.35058 0.0
H51 H 0.28304 0.42575 0.26343 0.0
C52 C 0.16887 0.41056 0.27501 0.0
N53 N 0.17835 0.40946 0.30108 0.0
C54 C 0.14933 0.39387 0.26682 0.0
C55 C 0.1497 0.37506 0.31247 0.0
C56 C 0.16931 0.39216 0.31979 0.0
C57 C 0.13941 0.37583 0.28566 0.0
H58 H 0.17621 0.4248 0.26073 0.0
H59 H 0.17711 0.39188 0.34048 0.0
O60 O 0.24702 0.48039 0.32576 0.0
O61 O 0.19065 0.46791 0.32478 0.0
O62 O 0.2245 0.44512 0.27872 0.0
O63 O 0.22858 0.42423 0.33955 0.0
H64 H 0.27304 0.47958 0.37271 0.0
H65 H 0.27886 0.49362 0.28546 0.0
H66 H 0.31969 0.4884 0.37714 0.0
H67 H 0.32541 0.50209 0.29133 0.0
H68 H 0.12188 0.43388 0.36959 0.0
H69 H 0.15585 0.47621 0.28595 0.0
H70 H 0.16809 0.44573 0.36752 0.0
H71 H 0.10989 0.46374 0.2894 0.0
H72 H 0.20957 0.57171 0.2847 0.0
H73 H 0.17323 0.52349 0.22318 0.0
H74 H 0.24563 0.45404 0.44642 0.0
H75 H 0.18766 0.51101 0.42705 0.0
H76 H 0.22263 0.40368 0.24689 0.0
H77 H 0.24993 0.48189 0.2522 0.0
H78 H 0.2424 0.4003 0.20048 0.0
H79 H 0.26928 0.47712 0.20577 0.0
H80 H 0.23415 0.39605 0.29428 0.0
H81 H 0.23616 0.39444 0.38298 0.0
H82 H 0.24529 0.34957 0.29367 0.0
H83 H 0.24731 0.34791 0.3809 0.0
H84 H 0.32357 0.40334 0.35214 0.0
H85 H 0.32165 0.39876 0.26304 0.0
H86 H 0.14163 0.39553 0.24613 0.0
H87 H 0.1427 0.36139 0.32759 0.0
Li88 Li 0.43448 0.80686 0.6881 0.0
Li89 Li 0.4764 0.79319 0.70123 0.0
Li90 Li 0.46261 0.79213 0.6509 0.0
Li91 Li 0.44553 0.76164 0.68671 0.0
C92 C 0.46422 0.84813 0.67455 0.0
N93 N 0.45717 0.90091 0.67203 0.0
C94 C 0.45962 0.86222 0.69864 0.0
C95 C 0.46524 0.86091 0.64917 0.0
C96 C 0.45608 0.88888 0.69694 0.0
C97 C 0.46165 0.8876 0.64833 0.0
C98 C 0.45056 0.78409 0.74646 0.0
C99 C 0.47191 0.76373 0.78489 0.0
N100 N 0.46619 0.78445 0.80096 0.0
C101 C 0.4448 0.80514 0.76339 0.0
C102 C 0.46413 0.76317 0.75732 0.0
C103 C 0.4529 0.80497 0.79088 0.0
C104 C 0.39195 0.82446 0.71834 0.0
N105 N 0.40648 0.82986 0.69578 0.0
C106 C 0.38235 0.8683 0.68739 0.0
C107 C 0.40128 0.85065 0.67962 0.0
C108 C 0.36813 0.86412 0.71165 0.0
C109 C 0.37259 0.84136 0.72667 0.0
H110 H 0.39568 0.80718 0.73015 0.0
H111 H 0.41226 0.85397 0.66105 0.0
C112 C 0.52805 0.78762 0.7192 0.0
N113 N 0.50575 0.80068 0.72359 0.0
C114 C 0.55065 0.79526 0.73251 0.0
C115 C 0.52671 0.82901 0.75531 0.0
C116 C 0.50469 0.82081 0.7415 0.0
C117 C 0.55025 0.81658 0.75044 0.0
H118 H 0.52852 0.77191 0.70454 0.0
H119 H 0.48698 0.83121 0.74436 0.0
C120 C 0.40202 0.78671 0.65248 0.0
N121 N 0.35106 0.79823 0.64246 0.0
C122 C 0.38271 0.77523 0.66832 0.0
C123 C 0.39546 0.80396 0.63149 0.0
C124 C 0.35704 0.78133 0.66294 0.0
C125 C 0.36957 0.80956 0.62676 0.0
C126 C 0.48861 0.74057 0.66836 0.0
C127 C 0.48764 0.73057 0.64161 0.0
C128 C 0.49641 0.72478 0.69017 0.0
C129 C 0.4941 0.70474 0.63719 0.0
C130 C 0.50271 0.69906 0.68491 0.0
N131 N 0.50141 0.68965 0.65875 0.0
C132 C 0.49503 0.80671 0.6066 0.0
C133 C 0.45702 0.78432 0.59413 0.0
C134 C 0.50277 0.80778 0.57901 0.0
N135 N 0.47251 0.7951 0.61351 0.0
C136 C 0.46407 0.7848 0.56637 0.0
C137 C 0.48729 0.79651 0.55852 0.0
H138 H 0.50706 0.81488 0.62257 0.0
H139 H 0.43935 0.77497 0.60032 0.0
C140 C 0.42284 0.71818 0.71379 0.0
N141 N 0.43138 0.72804 0.68946 0.0
C142 C 0.40825 0.69553 0.71407 0.0
C143 C 0.4123 0.69334 0.66443 0.0
C144 C 0.4267 0.71597 0.6651 0.0
C145 C 0.40221 0.68325 0.68904 0.0
H146 H 0.42609 0.72861 0.73277 0.0
H147 H 0.43309 0.72467 0.64602 0.0
O148 O 0.46784 0.82202 0.6757 0.0
O149 O 0.44298 0.78396 0.71942 0.0
O150 O 0.42726 0.78148 0.65789 0.0
O151 O 0.48196 0.7657 0.67317 0.0
H152 H 0.45802 0.85262 0.71833 0.0
H153 H 0.46864 0.85033 0.63029 0.0
H154 H 0.45227 0.89997 0.71539 0.0
H155 H 0.46236 0.89772 0.62883 0.0
H156 H 0.48251 0.74769 0.79352 0.0
H157 H 0.43459 0.82167 0.75533 0.0
H158 H 0.46865 0.74669 0.74458 0.0
H159 H 0.44871 0.82121 0.80415 0.0
H160 H 0.37966 0.88548 0.67505 0.0
H161 H 0.36155 0.83681 0.74497 0.0
H162 H 0.56837 0.78503 0.72827 0.0
H163 H 0.52552 0.84581 0.76852 0.0
H164 H 0.38752 0.76197 0.68478 0.0
H165 H 0.41023 0.81317 0.61923 0.0
H166 H 0.34189 0.77269 0.6751 0.0
H167 H 0.36419 0.82298 0.61068 0.0
H168 H 0.48173 0.74251 0.62447 0.0
H169 H 0.49762 0.7323 0.71093 0.0
H170 H 0.49327 0.6967 0.61661 0.0
H171 H 0.50867 0.68659 0.70162 0.0
H172 H 0.52095 0.81674 0.57385 0.0
H173 H 0.45147 0.7761 0.55121 0.0
H174 H 0.40051 0.68862 0.73345 0.0
H175 H 0.40824 0.68439 0.64471 0.0
Li176 Li 0.75366 0.55535 0.3158 0.0
Li177 Li 0.79825 0.56462 0.31456 0.0
Li178 Li 0.78277 0.52107 0.30329 0.0
Li179 Li 0.78051 0.53902 0.35262 0.0
C180 C 0.76766 0.55624 0.25749 0.0
N181 N 0.74902 0.56194 0.20445 0.0
C182 C 0.77197 0.57913 0.24297 0.0
C183 C 0.75427 0.53609 0.24484 0.0
C184 C 0.76228 0.58169 0.21623 0.0
C185 C 0.7449 0.53939 0.21807 0.0
C186 C 0.76794 0.60098 0.34283 0.0
C187 C 0.75726 0.64064 0.36612 0.0
N188 N 0.75501 0.65263 0.34127 0.0
C189 C 0.76552 0.61367 0.31755 0.0
C190 C 0.76375 0.61452 0.36734 0.0
C191 C 0.75898 0.63979 0.31718 0.0
C192 C 0.70874 0.5765 0.33557 0.0
N193 N 0.7205 0.57085 0.31128 0.0
C194 C 0.6885 0.59435 0.28632 0.0
C195 C 0.71053 0.57891 0.28681 0.0
C196 C 0.67669 0.60152 0.31126 0.0
C197 C 0.68662 0.59161 0.33603 0.0
H198 H 0.71729 0.57024 0.35477 0.0
H199 H 0.72019 0.57451 0.26773 0.0
C200 C 0.83607 0.58247 0.27951 0.0
N201 N 0.82442 0.58814 0.30382 0.0
C202 C 0.85568 0.59813 0.26943 0.0
C203 C 0.85084 0.62547 0.3095 0.0
C204 C 0.83146 0.60901 0.31901 0.0
C205 C 0.86322 0.62016 0.2843 0.0
H206 H 0.83022 0.56554 0.26807 0.0
H207 H 0.82205 0.61293 0.33845 0.0
C208 C 0.72864 0.51394 0.33318 0.0
N209 N 0.67659 0.50418 0.3377 0.0
C210 C 0.71657 0.51511 0.35891 0.0
C211 C 0.71431 0.50739 0.30983 0.0
C212 C 0.69022 0.51022 0.36076 0.0
C213 C 0.688 0.50265 0.31251 0.0
C214 C 0.83634 0.53648 0.33321 0.0
C215 C 0.85456 0.52833 0.31391 0.0
C216 C 0.84407 0.55113 0.35594 0.0
C217 C 0.88031 0.53514 0.31762 0.0
C218 C 0.87 0.55754 0.35891 0.0
N219 N 0.88743 0.54949 0.33985 0.0
C220 C 0.80708 0.49453 0.26073 0.0
C221 C 0.7823 0.46789 0.29031 0.0
C222 C 0.81658 0.47299 0.24683 0.0
N223 N 0.79068 0.49154 0.28228 0.0
C224 C 0.79132 0.44578 0.27698 0.0
C225 C 0.80918 0.44816 0.25534 0.0
H226 H 0.8136 0.51363 0.25511 0.0
H227 H 0.76936 0.46619 0.30768 0.0
C228 C 0.7671 0.54253 0.40861 0.0
N229 N 0.78292 0.53048 0.39042 0.0
C230 C 0.76739 0.53561 0.43644 0.0
C231 C 0.80091 0.50467 0.42637 0.0
C232 C 0.79976 0.512 0.39866 0.0
C233 C 0.78435 0.51633 0.44557 0.0
H234 H 0.75391 0.55717 0.40136 0.0
H235 H 0.81204 0.50272 0.38364 0.0
O236 O 0.77721 0.55337 0.2836 0.0
O237 O 0.77373 0.57525 0.34372 0.0
O238 O 0.75435 0.51909 0.33091 0.0
O239 O 0.81094 0.53074 0.32953 0.0
H240 H 0.78274 0.59476 0.25221 0.0
H241 H 0.75129 0.51804 0.25547 0.0
H242 H 0.76535 0.59935 0.20482 0.0
H243 H 0.73442 0.52398 0.20808 0.0
H244 H 0.75395 0.65137 0.38493 0.0
H245 H 0.76848 0.60343 0.29843 0.0
H246 H 0.76543 0.60492 0.38709 0.0
H247 H 0.75699 0.64983 0.29773 0.0
H248 H 0.6817 0.60174 0.26675 0.0
H249 H 0.67794 0.59623 0.35573 0.0
H250 H 0.86503 0.59277 0.25032 0.0
H251 H 0.85583 0.64228 0.3216 0.0
H252 H 0.72738 0.51991 0.37724 0.0
H253 H 0.72336 0.50606 0.28984 0.0
H254 H 0.68061 0.51124 0.38052 0.0
H255 H 0.67665 0.49773 0.29456 0.0
H256 H 0.84884 0.51707 0.29615 0.0
H257 H 0.83012 0.55777 0.37092 0.0
H258 H 0.89463 0.52908 0.3028 0.0
H259 H 0.87625 0.56899 0.37632 0.0
H260 H 0.83058 0.47575 0.23057 0.0
H261 H 0.78494 0.42702 0.28401 0.0
H262 H 0.7545 0.54522 0.45067 0.0
H263 H 0.81409 0.48958 0.43257 0.0
Li264 Li 0.56306 0.19048 0.68713 0.0
Li265 Li 0.52147 0.2053 0.69929 0.0
Li266 Li 0.53353 0.20696 0.65 0.0
Li267 Li 0.55191 0.23641 0.68563 0.0
C268 C 0.51133 0.15867 0.67874 0.0
N269 N 0.47176 0.1249 0.69061 0.0
C270 C 0.51615 0.13629 0.69396 0.0
C271 C 0.48642 0.1638 0.66941 0.0
C272 C 0.49588 0.11946 0.69975 0.0
C273 C 0.46666 0.14653 0.6757 0.0
C274 C 0.55025 0.20984 0.74539 0.0
C275 C 0.53419 0.22469 0.7893 0.0
N276 N 0.54161 0.20207 0.80105 0.0
C277 C 0.55794 0.18683 0.75798 0.0
C278 C 0.5385 0.22903 0.76123 0.0
C279 C 0.55332 0.18323 0.78611 0.0
C280 C 0.60973 0.17424 0.71068 0.0
N281 N 0.59013 0.16686 0.69392 0.0
C282 C 0.6076 0.12445 0.69003 0.0
C283 C 0.58904 0.14275 0.68302 0.0
C284 C 0.62747 0.13112 0.70836 0.0
C285 C 0.62871 0.15658 0.71822 0.0
H286 H 0.61015 0.19365 0.71883 0.0
H287 H 0.57333 0.13756 0.66951 0.0
C288 C 0.46987 0.20966 0.71818 0.0
N289 N 0.49264 0.19748 0.72266 0.0
C290 C 0.44753 0.20111 0.73134 0.0
C291 C 0.47264 0.16828 0.75422 0.0
C292 C 0.49441 0.17743 0.74064 0.0
C293 C 0.44865 0.17973 0.74914 0.0
H294 H 0.46878 0.22517 0.70334 0.0
H295 H 0.51238 0.16732 0.74306 0.0
C296 C 0.59369 0.20978 0.64847 0.0
N297 N 0.6426 0.19536 0.63271 0.0
C298 C 0.61509 0.22151 0.66053 0.0
C299 C 0.59708 0.19081 0.62834 0.0
C300 C 0.63968 0.21393 0.65228 0.0
C301 C 0.622 0.18375 0.62067 0.0
C302 C 0.50844 0.25885 0.67363 0.0
C303 C 0.5069 0.27337 0.6494 0.0
C304 C 0.50341 0.27059 0.699 0.0
C305 C 0.50079 0.29957 0.65102 0.0
C306 C 0.49737 0.29683 0.69978 0.0
N307 N 0.49623 0.31067 0.67597 0.0
C308 C 0.5122 0.18322 0.60206 0.0
C309 C 0.53147 0.22418 0.5955 0.0
C310 C 0.50537 0.18207 0.5742 0.0
N311 N 0.52463 0.20426 0.61216 0.0
C312 C 0.5249 0.22392 0.56759 0.0
C313 C 0.51146 0.20276 0.55665 0.0
H314 H 0.50751 0.16736 0.6156 0.0
H315 H 0.54199 0.24033 0.60398 0.0
C316 C 0.57506 0.27922 0.71313 0.0
N317 N 0.56666 0.26968 0.68862 0.0
C318 C 0.58978 0.30177 0.71381 0.0
C319 C 0.58607 0.30454 0.66416 0.0
C320 C 0.57145 0.28203 0.66445 0.0
C321 C 0.59606 0.31429 0.68899 0.0
H322 H 0.57145 0.26866 0.73196 0.0
H323 H 0.56484 0.27371 0.64525 0.0
O324 O 0.53078 0.17571 0.67344 0.0
O325 O 0.55481 0.2138 0.7179 0.0
O326 O 0.5695 0.21642 0.65678 0.0
O327 O 0.51501 0.23332 0.67259 0.0
H328 H 0.53525 0.13215 0.7016 0.0
H329 H 0.48231 0.1812 0.65789 0.0
H330 H 0.4993 0.10215 0.71165 0.0
H331 H 0.44725 0.15038 0.66886 0.0
H332 H 0.52501 0.23934 0.80176 0.0
H333 H 0.56692 0.17167 0.74609 0.0
H334 H 0.53283 0.24712 0.75202 0.0
H335 H 0.55896 0.16543 0.79604 0.0
H336 H 0.60576 0.10501 0.68211 0.0
H337 H 0.6439 0.16266 0.73203 0.0
H338 H 0.42946 0.21061 0.72693 0.0
H339 H 0.47437 0.15139 0.76722 0.0
H340 H 0.61271 0.23614 0.67626 0.0
H341 H 0.58065 0.18149 0.61894 0.0
H342 H 0.65645 0.22275 0.66151 0.0
H343 H 0.62496 0.16902 0.6052 0.0
H344 H 0.51044 0.26457 0.62956 0.0
H345 H 0.50415 0.25955 0.71788 0.0
H346 H 0.49968 0.31107 0.63244 0.0
H347 H 0.49357 0.30618 0.71931 0.0
H348 H 0.495 0.16541 0.56661 0.0
H349 H 0.53044 0.24003 0.55466 0.0
H350 H 0.59739 0.30847 0.73334 0.0
H351 H 0.59027 0.31373 0.64461 0.0
Li352 Li 0.20203 0.56784 0.68428 0.0
Li353 Li 0.24639 0.55835 0.68372 0.0
Li354 Li 0.21968 0.54123 0.64717 0.0
Li355 Li 0.21697 0.5246 0.69698 0.0
C356 C 0.23176 0.6035 0.65557 0.0
N357 N 0.24286 0.65559 0.65638 0.0
C358 C 0.23477 0.61636 0.68068 0.0
C359 C 0.23438 0.61711 0.63085 0.0
C360 C 0.24039 0.6427 0.68068 0.0
C361 C 0.23999 0.64345 0.63169 0.0
C362 C 0.23332 0.56 0.74166 0.0
C363 C 0.25665 0.5424 0.78033 0.0
N364 N 0.25417 0.56527 0.79382 0.0
C365 C 0.23072 0.58323 0.75605 0.0
C366 C 0.24616 0.53933 0.75401 0.0
C367 C 0.24151 0.58555 0.78233 0.0
C368 C 0.16695 0.59124 0.71956 0.0
N369 N 0.1762 0.5923 0.69339 0.0
C370 C 0.14711 0.62638 0.68211 0.0
C371 C 0.16683 0.60942 0.67468 0.0
C372 C 0.13712 0.62567 0.70905 0.0
C373 C 0.14737 0.60782 0.72788 0.0
H374 H 0.17453 0.57713 0.73384 0.0
H375 H 0.17445 0.60968 0.65391 0.0
C376 C 0.29092 0.58009 0.66357 0.0
N377 N 0.27976 0.57362 0.68795 0.0
C378 C 0.31319 0.59498 0.66306 0.0
C379 C 0.31282 0.59565 0.71288 0.0
C380 C 0.29061 0.58047 0.71242 0.0
C381 C 0.32396 0.60375 0.68792 0.0
H382 H 0.28183 0.5746 0.64438 0.0
H383 H 0.28161 0.57525 0.73161 0.0
C384 C 0.1636 0.5398 0.66731 0.0
N385 N 0.1126 0.55376 0.66215 0.0
C386 C 0.14637 0.53497 0.68882 0.0
C387 C 0.15491 0.55159 0.64313 0.0
C388 C 0.12066 0.54223 0.68583 0.0
C389 C 0.12904 0.55852 0.64092 0.0
C390 C 0.27128 0.51658 0.6675 0.0
C391 C 0.2837 0.51893 0.64206 0.0
C392 C 0.28526 0.50882 0.69067 0.0
C393 C 0.31005 0.51399 0.64034 0.0
C394 C 0.31158 0.50406 0.68813 0.0
N395 N 0.32334 0.50676 0.66323 0.0
C396 C 0.23267 0.54425 0.59105 0.0
C397 C 0.20131 0.51259 0.60178 0.0
C398 C 0.23238 0.537 0.56332 0.0
N399 N 0.21749 0.53183 0.60958 0.0
C400 C 0.20017 0.50491 0.57418 0.0
C401 C 0.21606 0.517 0.55463 0.0
H402 H 0.24531 0.55951 0.59795 0.0
H403 H 0.18949 0.50308 0.61706 0.0
C404 C 0.1927 0.49865 0.74017 0.0
N405 N 0.20882 0.49537 0.71842 0.0
C406 C 0.18306 0.47728 0.75425 0.0
C407 C 0.2077 0.44965 0.72396 0.0
C408 C 0.21682 0.47159 0.71041 0.0
C409 C 0.19007 0.45232 0.74579 0.0
H410 H 0.18653 0.51786 0.74584 0.0
H411 H 0.22956 0.46966 0.69289 0.0
O412 O 0.22664 0.57762 0.655 0.0
O413 O 0.22264 0.55736 0.71602 0.0
O414 O 0.18902 0.53371 0.67021 0.0
O415 O 0.24557 0.52178 0.66966 0.0
H416 H 0.23295 0.6061 0.69994 0.0
H417 H 0.23216 0.6074 0.61122 0.0
H418 H 0.24283 0.65287 0.69998 0.0
H419 H 0.24209 0.65423 0.61272 0.0
H420 H 0.26672 0.52658 0.79007 0.0
H421 H 0.22047 0.59932 0.74706 0.0
H422 H 0.24792 0.52108 0.74349 0.0
H423 H 0.23976 0.60346 0.79363 0.0
H424 H 0.13981 0.63989 0.66699 0.0
H425 H 0.1399 0.60622 0.74867 0.0
H426 H 0.32137 0.60028 0.64331 0.0
H427 H 0.32033 0.60208 0.73255 0.0
H428 H 0.15284 0.526 0.70773 0.0
H429 H 0.16808 0.55569 0.62641 0.0
H430 H 0.10713 0.53876 0.70236 0.0
H431 H 0.12206 0.56781 0.6224 0.0
H432 H 0.27318 0.52473 0.62387 0.0
H433 H 0.27593 0.50649 0.71041 0.0
H434 H 0.31993 0.51594 0.62082 0.0
H435 H 0.32266 0.49819 0.70594 0.0
H436 H 0.24472 0.54696 0.54882 0.0
H437 H 0.18748 0.48929 0.56831 0.0
H438 H 0.16926 0.4803 0.77066 0.0
H439 H 0.21384 0.4308 0.71697 0.0
Li440 Li 0.53968 0.79092 0.35032 0.0
Li441 Li 0.55721 0.76094 0.31462 0.0
Li442 Li 0.56921 0.80667 0.31291 0.0
Li443 Li 0.52727 0.79264 0.30117 0.0
C444 C 0.59997 0.78659 0.35092 0.0
N445 N 0.64963 0.79958 0.36535 0.0
C446 C 0.62074 0.77437 0.33814 0.0
C447 C 0.60439 0.80532 0.37109 0.0
C448 C 0.64573 0.78123 0.34572 0.0
C449 C 0.62967 0.81164 0.37807 0.0
C450 C 0.51287 0.73965 0.32723 0.0
C451 C 0.4995 0.70216 0.30153 0.0
N452 N 0.49819 0.68847 0.32543 0.0
C453 C 0.51111 0.72531 0.35157 0.0
C454 C 0.50679 0.72808 0.30204 0.0
C455 C 0.50375 0.69943 0.35021 0.0
C456 C 0.51896 0.81501 0.39831 0.0
N457 N 0.53117 0.79386 0.38818 0.0
C458 C 0.53178 0.77437 0.43282 0.0
C459 C 0.53806 0.77396 0.40484 0.0
C460 C 0.51855 0.79563 0.4438 0.0
C461 C 0.5124 0.8163 0.42624 0.0
H462 H 0.51421 0.83083 0.38475 0.0
H463 H 0.54837 0.7577 0.39629 0.0
C464 C 0.58015 0.71816 0.28711 0.0
N465 N 0.57115 0.72737 0.31152 0.0
C466 C 0.59441 0.69532 0.28642 0.0
C467 C 0.58896 0.69157 0.33581 0.0
C468 C 0.57489 0.71443 0.33554 0.0
C469 C 0.59959 0.68214 0.31115 0.0
H470 H 0.57742 0.7292 0.26843 0.0
H471 H 0.56792 0.72254 0.3547 0.0
C472 C 0.51875 0.83987 0.32059 0.0
N473 N 0.48093 0.87504 0.30696 0.0
C474 C 0.52465 0.86119 0.30412 0.0
C475 C 0.49366 0.83651 0.33026 0.0
C476 C 0.50525 0.87876 0.29747 0.0
C477 C 0.47479 0.85446 0.32307 0.0
C478 C 0.55574 0.78673 0.25473 0.0
C479 C 0.56398 0.80915 0.24136 0.0
C480 C 0.54345 0.7674 0.23958 0.0
C481 C 0.55936 0.81204 0.21314 0.0
C482 C 0.53916 0.77102 0.2114 0.0
N483 N 0.54712 0.79309 0.19887 0.0
C484 C 0.61576 0.82265 0.28865 0.0
C485 C 0.59584 0.8538 0.31738 0.0
C486 C 0.6347 0.84031 0.28102 0.0
N487 N 0.59653 0.8299 0.30595 0.0
C488 C 0.61437 0.87209 0.3103 0.0
C489 C 0.6338 0.86562 0.29136 0.0
H490 H 0.61587 0.80337 0.28011 0.0
H491 H 0.58041 0.85888 0.33132 0.0
C492 C 0.47523 0.78988 0.28398 0.0
N493 N 0.49835 0.80083 0.27814 0.0
C494 C 0.4529 0.79881 0.27111 0.0
C495 C 0.47871 0.82936 0.24564 0.0
C496 C 0.50045 0.81995 0.25907 0.0
C497 C 0.45444 0.81922 0.25211 0.0
H498 H 0.4739 0.77516 0.29969 0.0
H499 H 0.51872 0.8292 0.25563 0.0
O500 O 0.57542 0.78066 0.34327 0.0
O501 O 0.52055 0.76488 0.32802 0.0
O502 O 0.53734 0.82213 0.32681 0.0
O503 O 0.56032 0.78345 0.28232 0.0
H504 H 0.61758 0.75993 0.32238 0.0
H505 H 0.58845 0.815 0.38103 0.0
H506 H 0.66201 0.77203 0.33595 0.0
H507 H 0.63341 0.82618 0.39356 0.0
H508 H 0.49486 0.69293 0.28214 0.0
H509 H 0.51546 0.734 0.37127 0.0
H510 H 0.50762 0.73903 0.2831 0.0
H511 H 0.50247 0.68805 0.36887 0.0
H512 H 0.53734 0.75827 0.44574 0.0
H513 H 0.50217 0.83303 0.43387 0.0
H514 H 0.60254 0.6889 0.26703 0.0
H515 H 0.5923 0.68189 0.35529 0.0
H516 H 0.54389 0.86394 0.29619 0.0
H517 H 0.4887 0.81991 0.34271 0.0
H518 H 0.5095 0.89527 0.28461 0.0
H519 H 0.45523 0.85196 0.33016 0.0
H520 H 0.5734 0.8244 0.25271 0.0
H521 H 0.53739 0.74972 0.24942 0.0
H522 H 0.56543 0.82939 0.20259 0.0
H523 H 0.52957 0.75625 0.19946 0.0
H524 H 0.64956 0.83438 0.26671 0.0
H525 H 0.61277 0.89141 0.3186 0.0
H526 H 0.43455 0.79041 0.27663 0.0
H527 H 0.48073 0.84551 0.23164 0.0
Li528 Li 0.78061 0.4739 0.70162 0.0
Li529 Li 0.77872 0.45758 0.65161 0.0
Li530 Li 0.75174 0.43988 0.68762 0.0
Li531 Li 0.79611 0.43091 0.68881 0.0
C532 C 0.72661 0.4814 0.67113 0.0
N533 N 0.67451 0.49051 0.6657 0.0
C534 C 0.7147 0.4788 0.64543 0.0
C535 C 0.71209 0.48904 0.69397 0.0
C536 C 0.68832 0.48338 0.64313 0.0
C537 C 0.68576 0.49344 0.69083 0.0
C538 C 0.83454 0.45962 0.67294 0.0
C539 C 0.87029 0.44287 0.64684 0.0
N540 N 0.8859 0.44664 0.66899 0.0
C541 C 0.85094 0.46345 0.69541 0.0
C542 C 0.84426 0.44931 0.64843 0.0
C543 C 0.87685 0.45671 0.69302 0.0
C544 C 0.80412 0.5006 0.74513 0.0
N545 N 0.78841 0.50336 0.72294 0.0
C546 C 0.79011 0.54922 0.72675 0.0
C547 C 0.78084 0.52697 0.71393 0.0
C548 C 0.80749 0.54706 0.74886 0.0
C549 C 0.81391 0.52231 0.75851 0.0
H550 H 0.80998 0.48152 0.75159 0.0
H551 H 0.76845 0.52849 0.69607 0.0
C552 C 0.76687 0.45455 0.59518 0.0
N553 N 0.78132 0.46728 0.61415 0.0
C554 C 0.7675 0.462 0.56752 0.0
C555 C 0.79853 0.49494 0.57934 0.0
C556 C 0.79706 0.48705 0.60685 0.0
C557 C 0.7834 0.48251 0.55935 0.0
H558 H 0.75456 0.43888 0.60168 0.0
H559 H 0.8083 0.49681 0.62246 0.0
C560 C 0.76335 0.43839 0.74562 0.0
N561 N 0.74052 0.4333 0.79683 0.0
C562 C 0.76505 0.41507 0.76002 0.0
C563 C 0.75039 0.45922 0.7575 0.0
C564 C 0.75327 0.41286 0.78581 0.0
C565 C 0.73889 0.45624 0.78335 0.0
C566 C 0.76756 0.39508 0.65936 0.0
C567 C 0.76403 0.38207 0.68431 0.0
C568 C 0.76616 0.38147 0.63453 0.0
C569 C 0.7591 0.3556 0.68403 0.0
C570 C 0.76121 0.35499 0.63509 0.0
N571 N 0.7578 0.34271 0.65962 0.0
C572 C 0.70794 0.41752 0.66634 0.0
C573 C 0.70694 0.41742 0.71518 0.0
C574 C 0.68578 0.40249 0.66524 0.0
N575 N 0.71841 0.4242 0.69101 0.0
C576 C 0.68483 0.40207 0.71505 0.0
C577 C 0.67439 0.39377 0.68981 0.0
H578 H 0.71747 0.42301 0.64741 0.0
H579 H 0.71532 0.42289 0.73461 0.0
C580 C 0.82972 0.40588 0.72463 0.0
N581 N 0.82204 0.40655 0.69786 0.0
C582 C 0.8494 0.38936 0.73281 0.0
C583 C 0.85307 0.37455 0.68566 0.0
C584 C 0.83306 0.39123 0.67842 0.0
C585 C 0.86147 0.37354 0.71319 0.0
H586 H 0.82087 0.41861 0.73952 0.0
H587 H 0.82661 0.3923 0.65723 0.0
O588 O 0.75234 0.47654 0.67386 0.0
O589 O 0.80896 0.46523 0.67518 0.0
O590 O 0.775 0.44094 0.72046 0.0
O591 O 0.77211 0.42106 0.65906 0.0
H592 H 0.72563 0.47308 0.6275 0.0
H593 H 0.72101 0.49155 0.71389 0.0
H594 H 0.67883 0.48124 0.6234 0.0
H595 H 0.67427 0.49921 0.70838 0.0
H596 H 0.87806 0.43474 0.62806 0.0
H597 H 0.84368 0.47124 0.71458 0.0
H598 H 0.83175 0.44598 0.63095 0.0
H599 H 0.88973 0.45941 0.71029 0.0
H600 H 0.78439 0.5679 0.71886 0.0
H601 H 0.82748 0.51968 0.77521 0.0
H602 H 0.75575 0.45178 0.55267 0.0
H603 H 0.81088 0.51096 0.57387 0.0
H604 H 0.77535 0.39884 0.7514 0.0
H605 H 0.7493 0.47753 0.74699 0.0
H606 H 0.75432 0.39489 0.7971 0.0
H607 H 0.72872 0.47219 0.79271 0.0
H608 H 0.76494 0.39232 0.70366 0.0
H609 H 0.76883 0.39128 0.61503 0.0
H610 H 0.75627 0.34531 0.7032 0.0
H611 H 0.76006 0.34421 0.61603 0.0
H612 H 0.67814 0.39708 0.64528 0.0
H613 H 0.67685 0.39573 0.73453 0.0
H614 H 0.85562 0.38952 0.75414 0.0
H615 H 0.86189 0.36262 0.66995 0.0
Li616 Li 0.44506 0.23882 0.31177 0.0
Li617 Li 0.45945 0.20759 0.34834 0.0
Li618 Li 0.47603 0.20629 0.29917 0.0
Li619 Li 0.43323 0.19387 0.30915 0.0
C620 C 0.48835 0.25826 0.33349 0.0
N621 N 0.50373 0.30803 0.34549 0.0
C622 C 0.48627 0.26776 0.36038 0.0
C623 C 0.4986 0.27395 0.31279 0.0
C624 C 0.49405 0.29301 0.36601 0.0
C625 C 0.50617 0.29908 0.31924 0.0
C626 C 0.39898 0.21517 0.34242 0.0
C627 C 0.36355 0.19547 0.36655 0.0
N628 N 0.34692 0.20647 0.34836 0.0
C629 C 0.38157 0.22633 0.324 0.0
C630 C 0.38996 0.19965 0.36391 0.0
C631 C 0.35531 0.22168 0.32735 0.0
C632 C 0.42273 0.28212 0.28409 0.0
N633 N 0.43161 0.27278 0.30851 0.0
C634 C 0.41336 0.30837 0.33287 0.0
C635 C 0.42742 0.28549 0.3326 0.0
C636 C 0.40307 0.31802 0.30815 0.0
C637 C 0.4085 0.30499 0.2834 0.0
H638 H 0.42532 0.2711 0.26538 0.0
H639 H 0.4338 0.27712 0.35183 0.0
C640 C 0.48998 0.19252 0.3937 0.0
N641 N 0.46771 0.2043 0.38622 0.0
C642 C 0.497 0.19117 0.42148 0.0
C643 C 0.45809 0.21423 0.43321 0.0
C644 C 0.45175 0.21497 0.40524 0.0
C645 C 0.48107 0.20234 0.44162 0.0
H646 H 0.50239 0.18445 0.37801 0.0
H647 H 0.43433 0.22451 0.39861 0.0
C648 C 0.45444 0.21884 0.25272 0.0
N649 N 0.47573 0.22282 0.20063 0.0
C650 C 0.45187 0.19862 0.23383 0.0
C651 C 0.46772 0.24113 0.24502 0.0
C652 C 0.4628 0.20099 0.20762 0.0
C653 C 0.47838 0.24276 0.21863 0.0
C654 C 0.45881 0.15202 0.32663 0.0
C655 C 0.4558 0.13638 0.30335 0.0
C656 C 0.45536 0.14144 0.35291 0.0
C657 C 0.44929 0.11044 0.30675 0.0
C658 C 0.44891 0.11539 0.35544 0.0
N659 N 0.44602 0.10056 0.3325 0.0
C660 C 0.52855 0.21097 0.2828 0.0
C661 C 0.50529 0.17717 0.26146 0.0
C662 C 0.55124 0.20288 0.26994 0.0
N663 N 0.50622 0.19793 0.27852 0.0
C664 C 0.52737 0.16853 0.24809 0.0
C665 C 0.55087 0.18114 0.25259 0.0
H666 H 0.52894 0.22713 0.29687 0.0
H667 H 0.48752 0.16681 0.25875 0.0
C668 C 0.39545 0.17473 0.27324 0.0
N669 N 0.40543 0.17143 0.2989 0.0
C670 C 0.37738 0.15739 0.2629 0.0
C671 C 0.3784 0.13479 0.30648 0.0
C672 C 0.39651 0.15261 0.31596 0.0
C673 C 0.36922 0.13662 0.27929 0.0
H674 H 0.40191 0.19056 0.26054 0.0
H675 H 0.40406 0.15084 0.33663 0.0
O676 O 0.48058 0.23366 0.32752 0.0
O677 O 0.42477 0.21908 0.33914 0.0
O678 O 0.44419 0.21677 0.27866 0.0
O679 O 0.46528 0.17747 0.32381 0.0
H680 H 0.47851 0.2559 0.3767 0.0
H681 H 0.50082 0.26679 0.29199 0.0
H682 H 0.49237 0.30066 0.38669 0.0
H683 H 0.51404 0.31146 0.30338 0.0
H684 H 0.35628 0.1834 0.38299 0.0
H685 H 0.38829 0.23823 0.30714 0.0
H686 H 0.40324 0.19068 0.37817 0.0
H687 H 0.3416 0.2301 0.31319 0.0
H688 H 0.4097 0.31784 0.35239 0.0
H689 H 0.4005 0.31149 0.26398 0.0
H690 H 0.51502 0.18211 0.42706 0.0
H691 H 0.44518 0.22289 0.44808 0.0
H692 H 0.44204 0.18102 0.23948 0.0
H693 H 0.46979 0.257 0.25927 0.0
H694 H 0.46113 0.18541 0.19289 0.0
H695 H 0.48876 0.25989 0.21246 0.0
H696 H 0.4578 0.14429 0.28286 0.0
H697 H 0.45744 0.15321 0.37117 0.0
H698 H 0.44668 0.0982 0.28889 0.0
H699 H 0.44613 0.10698 0.37564 0.0
H700 H 0.56895 0.21319 0.27395 0.0
H701 H 0.52623 0.15141 0.23535 0.0
H702 H 0.37024 0.15992 0.24208 0.0
H703 H 0.37256 0.11912 0.31985 0.0
Li704 Li 0.71693 0.97542 0.80047 0.0
Li705 Li 0.72004 0.95896 0.85036 0.0
Li706 Li 0.74695 0.9422 0.81374 0.0
Li707 Li 0.70278 0.93196 0.81333 0.0
C708 C 0.77122 0.98429 0.82996 0.0
N709 N 0.82314 0.99478 0.83438 0.0
C710 C 0.78355 0.98238 0.8555 0.0
C711 C 0.78522 0.99195 0.80676 0.0
C712 C 0.80983 0.98766 0.85729 0.0
C713 C 0.81147 0.99705 0.80938 0.0
C714 C 0.66389 0.95936 0.83016 0.0
C715 C 0.62954 0.94018 0.8565 0.0
N716 N 0.61313 0.94449 0.83514 0.0
C717 C 0.64668 0.96371 0.80852 0.0
C718 C 0.65529 0.94757 0.85439 0.0
C719 C 0.62109 0.95601 0.81142 0.0
C720 C 0.69229 0.0012 0.75718 0.0
N721 N 0.70826 0.00456 0.77905 0.0
C722 C 0.70637 0.0503 0.77397 0.0
C723 C 0.71584 0.0284 0.78732 0.0
C724 C 0.68886 0.04754 0.75206 0.0
C725 C 0.68233 0.02254 0.74327 0.0
H726 H 0.68646 0.98195 0.75129 0.0
H727 H 0.72848 0.0304 0.80492 0.0
C728 C 0.73307 0.9563 0.90656 0.0
N729 N 0.71771 0.96842 0.88796 0.0
C730 C 0.73264 0.96364 0.93426 0.0
C731 C 0.69997 0.9952 0.92326 0.0
C732 C 0.70125 0.98744 0.89569 0.0
C733 C 0.71602 0.98342 0.94287 0.0
H734 H 0.74595 0.94122 0.89974 0.0
H735 H 0.68929 0.99672 0.88036 0.0
C736 C 0.73373 0.94031 0.7558 0.0
N737 N 0.75451 0.93547 0.70357 0.0
C738 C 0.73146 0.91707 0.74137 0.0
C739 C 0.74623 0.9612 0.74347 0.0
C740 C 0.7422 0.91497 0.71505 0.0
C741 C 0.75669 0.95834 0.7171 0.0
C742 C 0.73328 0.89691 0.84205 0.0
C743 C 0.73619 0.884 0.81694 0.0
C744 C 0.73662 0.88348 0.86678 0.0
C745 C 0.74245 0.85781 0.81698 0.0
C746 C 0.74286 0.85729 0.86596 0.0
N747 N 0.74563 0.8451 0.84129 0.0
C748 C 0.79191 0.92112 0.83374 0.0
C749 C 0.79108 0.92012 0.78491 0.0
C750 C 0.8141 0.90612 0.8342 0.0
N751 N 0.7805 0.9273 0.80941 0.0
C752 C 0.8132 0.90481 0.78441 0.0
C753 C 0.82453 0.89692 0.80935 0.0
H754 H 0.783 0.92683 0.85296 0.0
H755 H 0.78189 0.92511 0.76576 0.0
C756 C 0.66829 0.9076 0.77813 0.0
N757 N 0.67744 0.90694 0.80435 0.0
C758 C 0.64912 0.89052 0.76986 0.0
C759 C 0.64904 0.87233 0.8158 0.0
C760 C 0.66836 0.88976 0.82318 0.0
C761 C 0.63916 0.87261 0.7888 0.0
H762 H 0.67562 0.92176 0.76376 0.0
H763 H 0.67591 0.88982 0.84397 0.0
O764 O 0.74558 0.97877 0.82774 0.0
O765 O 0.68921 0.96589 0.82735 0.0
O766 O 0.72311 0.94273 0.7815 0.0
O767 O 0.72761 0.92267 0.84258 0.0
H768 H 0.773 0.97668 0.8737 0.0
H769 H 0.77596 0.99392 0.78694 0.0
H770 H 0.81964 0.98606 0.87689 0.0
H771 H 0.82256 0.00284 0.79155 0.0
H772 H 0.62264 0.9309 0.87506 0.0
H773 H 0.65308 0.97267 0.78957 0.0
H774 H 0.66845 0.94383 0.87121 0.0
H775 H 0.60759 0.95911 0.79478 0.0
H776 H 0.71215 0.06919 0.7812 0.0
H777 H 0.66865 0.01946 0.72676 0.0
H778 H 0.74513 0.95392 0.94881 0.0
H779 H 0.68705 0.01065 0.92905 0.0
H780 H 0.7215 0.9008 0.75037 0.0
H781 H 0.74774 0.97946 0.75403 0.0
H782 H 0.74069 0.89706 0.70372 0.0
H783 H 0.76649 0.97433 0.70737 0.0
H784 H 0.73382 0.89412 0.79766 0.0
H785 H 0.73449 0.89323 0.88639 0.0
H786 H 0.74483 0.84761 0.79768 0.0
H787 H 0.74553 0.84665 0.88495 0.0
H788 H 0.82244 0.90099 0.85392 0.0
H789 H 0.82042 0.89806 0.76474 0.0
H790 H 0.6417 0.8918 0.74903 0.0
H791 H 0.64192 0.85881 0.83101 0.0
Li792 Li 0.93473 0.30535 0.19029 0.0
Li793 Li 0.97687 0.29142 0.20165 0.0
Li794 Li 0.96384 0.2895 0.15276 0.0
Li795 Li 0.94655 0.25972 0.18858 0.0
C796 C 0.98608 0.33788 0.18015 0.0
N797 N 0.02603 0.37184 0.18956 0.0
C798 C 0.98205 0.36003 0.196 0.0
C799 C 0.01035 0.33309 0.16889 0.0
C800 C 0.00251 0.37696 0.20054 0.0
C801 C 0.03033 0.35046 0.17397 0.0
C802 C 0.94785 0.28714 0.24842 0.0
C803 C 0.96151 0.27328 0.29362 0.0
N804 N 0.95469 0.29664 0.30407 0.0
C805 C 0.94073 0.31092 0.25968 0.0
C806 C 0.95808 0.26807 0.26558 0.0
C807 C 0.94443 0.31539 0.28783 0.0
C808 C 0.88789 0.32115 0.21412 0.0
N809 N 0.9075 0.32866 0.19745 0.0
C810 C 0.88994 0.37103 0.19373 0.0
C811 C 0.90859 0.35283 0.18673 0.0
C812 C 0.86997 0.36421 0.21188 0.0
C813 C 0.8688 0.3387 0.22164 0.0
H814 H 0.8875 0.30169 0.22218 0.0
H815 H 0.92434 0.35814 0.17334 0.0
C816 C 0.02907 0.28821 0.21844 0.0
N817 N 0.00619 0.29975 0.22406 0.0
C818 C 0.05162 0.29699 0.23095 0.0
C819 C 0.02661 0.3289 0.25537 0.0
C820 C 0.00459 0.31951 0.24243 0.0
C821 C 0.05064 0.318 0.24923 0.0
H822 H 0.03005 0.27303 0.20322 0.0
H823 H 0.98654 0.32923 0.24566 0.0
C824 C 0.90369 0.28561 0.15239 0.0
N825 N 0.85419 0.29923 0.13798 0.0
C826 C 0.88277 0.27323 0.16469 0.0
C827 C 0.8995 0.30482 0.13269 0.0
C828 C 0.85787 0.28041 0.15713 0.0
C829 C 0.8743 0.31146 0.12571 0.0
C830 C 0.99136 0.23854 0.17835 0.0
C831 C 0.99543 0.22264 0.15548 0.0
C832 C 0.99555 0.22885 0.20487 0.0
C833 C 0.00325 0.19714 0.15957 0.0
C834 C 0.00336 0.20326 0.20812 0.0
N835 N 0.00698 0.18805 0.18559 0.0
C836 C 0.98012 0.31522 0.10394 0.0
C837 C 0.96982 0.27089 0.09922 0.0
C838 C 0.9866 0.31675 0.07601 0.0
N839 N 0.97229 0.29242 0.11495 0.0
C840 C 0.97637 0.27146 0.07132 0.0
C841 C 0.98505 0.29457 0.05946 0.0
H842 H 0.98141 0.33218 0.11684 0.0
H843 H 0.96272 0.25328 0.10839 0.0
C844 C 0.92311 0.21704 0.21581 0.0
N845 N 0.93273 0.22617 0.19165 0.0
C846 C 0.90892 0.19415 0.21613 0.0
C847 C 0.91572 0.19026 0.16693 0.0
C848 C 0.92977 0.21312 0.16758 0.0
C849 C 0.90443 0.18092 0.19128 0.0
H850 H 0.9253 0.22817 0.23452 0.0
H851 H 0.93731 0.22116 0.14864 0.0
O852 O 0.96649 0.32071 0.17608 0.0
O853 O 0.94404 0.28227 0.22097 0.0
O854 O 0.92816 0.27936 0.16004 0.0
O855 O 0.98309 0.26338 0.1749 0.0
H856 H 0.96343 0.36389 0.20506 0.0
H857 H 0.01381 0.31591 0.15676 0.0
H858 H -0.00027 0.39409 0.21292 0.0
H859 H 0.04927 0.34688 0.16562 0.0
H860 H 0.9695 0.25872 0.3071 0.0
H861 H 0.93293 0.32601 0.24678 0.0
H862 H 0.96318 0.24936 0.25743 0.0
H863 H 0.93924 0.33379 0.29673 0.0
H864 H 0.89178 0.39051 0.18593 0.0
H865 H 0.85356 0.33252 0.23535 0.0
H866 H 0.06973 0.28794 0.2257 0.0
H867 H 0.02496 0.34554 0.26875 0.0
H868 H 0.88576 0.2584 0.18009 0.0
H869 H 0.91556 0.31464 0.12311 0.0
H870 H 0.84147 0.27108 0.16655 0.0
H871 H 0.87073 0.32638 0.11059 0.0
H872 H 0.99259 0.22985 0.1348 0.0
H873 H 0.99282 0.241 0.22272 0.0
H874 H 0.00635 0.18459 0.14206 0.0
H875 H 0.00656 0.1955 0.22855 0.0
H876 H 0.99322 0.33492 0.06757 0.0
H877 H 0.97444 0.25408 0.0591 0.0
H878 H 0.90025 0.18776 0.23526 0.0
H879 H 0.91287 0.18052 0.1474 0.0
Li880 Li 0.25023 0.05635 0.81211 0.0
Li881 Li 0.29471 0.06476 0.81153 0.0
Li882 Li 0.27884 0.02189 0.79886 0.0
Li883 Li 0.27651 0.03859 0.84866 0.0
C884 C 0.26257 0.05705 0.75429 0.0
N885 N 0.24038 0.06162 0.70271 0.0
C886 C 0.26541 0.07983 0.73915 0.0
C887 C 0.24876 0.03648 0.74301 0.0
C888 C 0.25395 0.0818 0.71317 0.0
C889 C 0.23761 0.03919 0.71696 0.0
C890 C 0.26599 0.10123 0.83977 0.0
C891 C 0.25899 0.14185 0.8628 0.0
N892 N 0.25635 0.1536 0.83787 0.0
C893 C 0.26325 0.11371 0.81439 0.0
C894 C 0.26387 0.11539 0.86419 0.0
C895 C 0.25837 0.14019 0.81385 0.0
C896 C 0.20643 0.07895 0.83263 0.0
N897 N 0.2172 0.07241 0.80807 0.0
C898 C 0.18454 0.09559 0.78372 0.0
C899 C 0.20633 0.0798 0.78378 0.0
C900 C 0.17388 0.10377 0.80888 0.0
C901 C 0.1846 0.09444 0.83353 0.0
H902 H 0.21556 0.07309 0.85166 0.0
H903 H 0.21503 0.07456 0.76444 0.0
C904 C 0.32993 0.08809 0.77616 0.0
N905 N 0.32105 0.08875 0.80249 0.0
C906 C 0.34957 0.10465 0.76788 0.0
C907 C 0.35062 0.12234 0.81403 0.0
C908 C 0.33087 0.10539 0.82143 0.0
C909 C 0.36021 0.12209 0.78691 0.0
H910 H 0.32196 0.07439 0.76167 0.0
H911 H 0.32351 0.10536 0.8423 0.0
C912 C 0.22446 0.01541 0.82963 0.0
N913 N 0.17238 0.0071 0.83656 0.0
C914 C 0.21327 0.01799 0.8557 0.0
C915 C 0.20922 0.00821 0.80717 0.0
C916 C 0.1869 0.01381 0.85876 0.0
C917 C 0.18292 0.00421 0.81106 0.0
C918 C 0.33259 0.03541 0.82732 0.0
C919 C 0.34861 0.03053 0.80478 0.0
C920 C 0.34282 0.04615 0.85137 0.0
C921 C 0.37469 0.03671 0.80662 0.0
C922 C 0.36901 0.05203 0.8524 0.0
N923 N 0.38426 0.04726 0.83018 0.0
C924 C 0.29978 0.99419 0.75413 0.0
C925 C 0.28168 0.96873 0.78986 0.0
C926 C 0.30949 0.97219 0.74119 0.0
N927 N 0.28658 0.99204 0.77821 0.0
C928 C 0.29118 0.94626 0.77773 0.0
C929 C 0.30584 0.94792 0.75345 0.0
H930 H 0.30382 0.01308 0.74571 0.0
H931 H 0.27141 0.96774 0.80924 0.0
C932 C 0.2664 0.04292 0.90562 0.0
N933 N 0.27855 0.02861 0.8861 0.0
C934 C 0.26659 0.03503 0.93317 0.0
C935 C 0.29218 0.99809 0.91998 0.0
C936 C 0.29141 0.00666 0.89267 0.0
C937 C 0.27948 0.01224 0.94063 0.0
H938 H 0.2562 0.06022 0.89968 0.0
H939 H 0.30077 0.99564 0.8766 0.0
O940 O 0.27389 0.05476 0.77964 0.0
O941 O 0.2704 0.07522 0.84088 0.0
O942 O 0.25019 0.01984 0.82618 0.0
O943 O 0.30687 0.03037 0.8256 0.0
H944 H 0.27635 0.09583 0.74736 0.0
H945 H 0.24677 0.01857 0.75416 0.0
H946 H 0.25588 0.09936 0.70129 0.0
H947 H 0.2268 0.02345 0.70803 0.0
H948 H 0.25727 0.15305 0.88154 0.0
H949 H 0.26473 0.10307 0.79533 0.0
H950 H 0.26593 0.10602 0.88402 0.0
H951 H 0.25614 0.15006 0.79433 0.0
H952 H 0.17703 0.10243 0.76421 0.0
H953 H 0.17676 0.09982 0.85341 0.0
H954 H 0.35672 0.10338 0.74694 0.0
H955 H 0.35819 0.13554 0.82932 0.0
H956 H 0.22476 0.02341 0.87335 0.0
H957 H 0.21756 0.00576 0.78695 0.0
H958 H 0.17796 0.01594 0.87879 0.0
H959 H 0.17088 0.99878 0.79382 0.0
H960 H 0.34091 0.02236 0.78597 0.0
H961 H 0.33058 0.05019 0.86892 0.0
H962 H 0.38731 0.03321 0.78928 0.0
H963 H 0.37718 0.0605 0.87081 0.0
H964 H 0.321 0.97432 0.72271 0.0
H965 H 0.28786 0.92788 0.78772 0.0
H966 H 0.25681 0.04668 0.94845 0.0
H967 H 0.3021 0.98028 0.92475 0.0
Li968 Li 0.02282 0.70766 0.19568 0.0
Li969 Li 0.06565 0.69508 0.18427 0.0
Li970 Li 0.05573 0.73991 0.18536 0.0
Li971 Li 0.03899 0.71147 0.1474 0.0
C972 C 0.04859 0.72751 0.24085 0.0
N973 N 0.03585 0.7521 0.28954 0.0
C974 C 0.05858 0.71872 0.2659 0.0
C975 C 0.03215 0.74881 0.24055 0.0
C976 C 0.0519 0.7314 0.2903 0.0
C977 C 0.02594 0.76099 0.26537 0.0
C978 C 0.02727 0.65637 0.18038 0.0
C979 C 0.00617 0.61513 0.17649 0.0
N980 N 0.0139 0.60915 0.20252 0.0
C981 C 0.03502 0.64981 0.20709 0.0
C982 C 0.01275 0.63892 0.16493 0.0
C983 C 0.02806 0.62585 0.21792 0.0
C984 C 0.96965 0.70278 0.20358 0.0
N985 N 0.99277 0.69912 0.21598 0.0
C986 C 0.9728 0.67712 0.2536 0.0
C987 C 0.99467 0.68715 0.24084 0.0
C988 C 0.94865 0.6797 0.24082 0.0
C989 C 0.94722 0.69347 0.21584 0.0
H990 H 0.96876 0.71216 0.18367 0.0
H991 H 0.01333 0.68425 0.25014 0.0
C992 C 0.10843 0.67683 0.21358 0.0
N993 N 0.09212 0.67092 0.19263 0.0
C994 C 0.1269 0.65904 0.22213 0.0
C995 C 0.11181 0.62966 0.18694 0.0
C996 C 0.09373 0.64811 0.17895 0.0
C997 C 0.12844 0.63483 0.20915 0.0
H998 H 0.10676 0.69523 0.22394 0.0
H999 H 0.0805 0.64397 0.16231 0.0
C1000 C 0.00653 0.75824 0.16185 0.0
N1001 N 0.97879 0.80062 0.1443 0.0
C1002 C 0.01162 0.76934 0.13615 0.0
C1003 C 0.98716 0.76856 0.17852 0.0
C1004 C 0.99743 0.7908 0.12767 0.0
C1005 C 0.97341 0.79003 0.16932 0.0
C1006 C 0.09834 0.71251 0.14865 0.0
C1007 C 0.12035 0.7217 0.16193 0.0
C1008 C 0.10056 0.69334 0.12853 0.0
C1009 C 0.14429 0.71139 0.15495 0.0
C1010 C 0.12485 0.68354 0.12213 0.0
N1011 N 0.14602 0.69268 0.13538 0.0
C1012 C 0.09 0.77279 0.21175 0.0
C1013 C 0.06303 0.7948 0.1802 0.0
C1014 C 0.10427 0.79515 0.21635 0.0
N1015 N 0.07012 0.77288 0.19357 0.0
C1016 C 0.07675 0.81766 0.18422 0.0
C1017 C 0.09807 0.81788 0.20201 0.0
H1018 H 0.0955 0.75499 0.22179 0.0
H1019 H 0.04739 0.79447 0.16567 0.0
C1020 C 0.00775 0.69705 0.10261 0.0
N1021 N 0.02975 0.70949 0.10973 0.0
C1022 C 0.00026 0.69567 0.07497 0.0
C1023 C 0.03824 0.71999 0.06264 0.0
C1024 C 0.04506 0.72074 0.09047 0.0
C1025 C 0.01554 0.70738 0.0546 0.0
H1026 H 0.99594 0.68837 0.11847 0.0
H1027 H 0.06245 0.73052 0.09681 0.0
O1028 O 0.05487 0.71507 0.2169 0.0
O1029 O 0.03363 0.67981 0.16935 0.0
O1030 O 0.01984 0.73689 0.17031 0.0
O1031 O 0.07466 0.72183 0.15573 0.0
H1032 H 0.0713 0.7022 0.26646 0.0
H1033 H 0.02438 0.75596 0.22139 0.0
H1034 H 0.05946 0.72478 0.30985 0.0
H1035 H 0.01326 0.77752 0.26542 0.0
H1036 H 0.99491 0.60144 0.16477 0.0
H1037 H 0.04619 0.6631 0.21941 0.0
H1038 H 0.00658 0.64373 0.14422 0.0
H1039 H 0.03389 0.62055 0.23858 0.0
H1040 H 0.97507 0.66637 0.27259 0.0
H1041 H 0.92906 0.69647 0.20543 0.0
H1042 H 0.1396 0.66407 0.23899 0.0
H1043 H 0.11205 0.61119 0.17652 0.0
H1044 H 0.02663 0.76175 0.12307 0.0
H1045 H 0.98273 0.76004 0.19834 0.0
H1046 H 0.00129 0.79967 0.1079 0.0
H1047 H 0.95841 0.79825 0.18203 0.0
H1048 H 0.11893 0.73647 0.17762 0.0
H1049 H 0.08366 0.68585 0.11827 0.0
H1050 H 0.16148 0.71823 0.16515 0.0
H1051 H 0.12685 0.66858 0.10672 0.0
H1052 H 0.12079 0.79423 0.22989 0.0
H1053 H 0.07114 0.83478 0.17294 0.0
H1054 H 0.98249 0.686 0.06966 0.0
H1055 H 0.05069 0.72902 0.04756 0.0
Li1056 Li 0.70377 0.06726 0.18721 0.0
Li1057 Li 0.748 0.05726 0.18589 0.0
Li1058 Li 0.72059 0.04091 0.14943 0.0
Li1059 Li 0.71838 0.02371 0.19908 0.0
C1060 C 0.73376 0.10287 0.15856 0.0
N1061 N 0.74587 0.15472 0.15997 0.0
C1062 C 0.73701 0.11543 0.18382 0.0
C1063 C 0.73665 0.11667 0.134 0.0
C1064 C 0.74314 0.14164 0.18411 0.0
C1065 C 0.74277 0.14289 0.13514 0.0
C1066 C 0.73548 0.05836 0.24412 0.0
C1067 C 0.75901 0.04012 0.28231 0.0
N1068 N 0.75672 0.0628 0.29618 0.0
C1069 C 0.7331 0.08141 0.25889 0.0
C1070 C 0.74832 0.03747 0.25602 0.0
C1071 C 0.74408 0.0833 0.28512 0.0
C1072 C 0.6696 0.09112 0.22332 0.0
N1073 N 0.67841 0.09203 0.19697 0.0
C1074 C 0.64956 0.12645 0.1862 0.0
C1075 C 0.66896 0.10927 0.17843 0.0
C1076 C 0.63998 0.12587 0.21332 0.0
C1077 C 0.65036 0.10796 0.232 0.0
H1078 H 0.67721 0.07691 0.23746 0.0
H1079 H 0.67624 0.10942 0.15752 0.0
C1080 C 0.79295 0.07804 0.16552 0.0
N1081 N 0.78157 0.07205 0.18992 0.0
C1082 C 0.81547 0.09254 0.16493 0.0
C1083 C 0.81476 0.09397 0.21473 0.0
C1084 C 0.79237 0.07909 0.21435 0.0
C1085 C 0.82621 0.10153 0.18973 0.0
H1086 H 0.78385 0.07247 0.14636 0.0
H1087 H 0.78317 0.07431 0.23356 0.0
C1088 C 0.66474 0.03981 0.17081 0.0
N1089 N 0.61379 0.05438 0.16734 0.0
C1090 C 0.64808 0.03514 0.19286 0.0
C1091 C 0.65551 0.05174 0.14694 0.0
C1092 C 0.62238 0.0427 0.19072 0.0
C1093 C 0.62967 0.05898 0.14559 0.0
C1094 C 0.77214 0.01534 0.16849 0.0
C1095 C 0.78397 0.0171 0.14267 0.0
C1096 C 0.78657 0.00773 0.1914 0.0
C1097 C 0.81019 0.01173 0.14031 0.0
C1098 C 0.81275 0.00253 0.18821 0.0
N1099 N 0.82393 0.00465 0.16295 0.0
C1100 C 0.73302 0.04434 0.09314 0.0
C1101 C 0.70146 0.0129 0.10391 0.0
C1102 C 0.73249 0.03723 0.06537 0.0
N1103 N 0.71786 0.03195 0.11172 0.0
C1104 C 0.70009 0.00536 0.07627 0.0
C1105 C 0.71598 0.01739 0.05668 0.0
H1106 H 0.74587 0.05942 0.10003 0.0
H1107 H 0.68968 0.00338 0.11923 0.0
C1108 C 0.69506 0.99689 0.24251 0.0
N1109 N 0.71055 0.99416 0.22015 0.0
C1110 C 0.68597 0.97516 0.2564 0.0
C1111 C 0.70982 0.94834 0.2246 0.0
C1112 C 0.71844 0.97061 0.2113 0.0
C1113 C 0.69285 0.95044 0.24707 0.0
H1114 H 0.68899 0.01594 0.24887 0.0
H1115 H 0.7307 0.96912 0.19334 0.0
O1116 O 0.72816 0.0771 0.15771 0.0
O1117 O 0.72464 0.05614 0.2185 0.0
O1118 O 0.69016 0.03342 0.17287 0.0
O1119 O 0.74656 0.02095 0.17126 0.0
H1120 H 0.73499 0.10502 0.20297 0.0
H1121 H 0.73425 0.1072 0.11427 0.0
H1122 H 0.74577 0.15158 0.20353 0.0
H1123 H 0.74509 0.15381 0.11629 0.0
H1124 H 0.76907 0.02412 0.29171 0.0
H1125 H 0.7229 0.09768 0.25023 0.0
H1126 H 0.74993 0.01936 0.2452 0.0
H1127 H 0.7425 0.10106 0.29671 0.0
H1128 H 0.64212 0.14 0.17119 0.0
H1129 H 0.64319 0.10647 0.25292 0.0
H1130 H 0.82386 0.0974 0.14516 0.0
H1131 H 0.82216 0.1006 0.23436 0.0
H1132 H 0.65498 0.02606 0.21153 0.0
H1133 H 0.66825 0.05571 0.1298 0.0
H1134 H 0.60928 0.03937 0.20768 0.0
H1135 H 0.62228 0.06838 0.12732 0.0
H1136 H 0.77309 0.02275 0.12467 0.0
H1137 H 0.7777 0.00589 0.21143 0.0
H1138 H 0.81962 0.01321 0.12048 0.0
H1139 H 0.82417 0.99678 0.20582 0.0
H1140 H 0.74485 0.04713 0.05084 0.0
H1141 H 0.68726 0.98985 0.07042 0.0
H1142 H 0.67266 0.97772 0.27337 0.0
H1143 H 0.71583 0.92967 0.21693 0.0
Li1144 Li 0.03826 0.29307 0.85151 0.0
Li1145 Li 0.05483 0.26358 0.81656 0.0
Li1146 Li 0.06619 0.30935 0.81588 0.0
Li1147 Li 0.02314 0.29478 0.80367 0.0
C1148 C 0.09945 0.28862 0.84902 0.0
N1149 N 0.15083 0.30055 0.85574 0.0
C1150 C 0.11829 0.27401 0.83567 0.0
C1151 C 0.10674 0.30926 0.86585 0.0
C1152 C 0.14417 0.28034 0.83934 0.0
C1153 C 0.13281 0.31501 0.86895 0.0
C1154 C 0.01279 0.24144 0.83471 0.0
C1155 C 0.00158 0.19946 0.81701 0.0
N1156 N 0.00231 0.18981 0.8431 0.0
C1157 C 0.01328 0.23116 0.86136 0.0
C1158 C 0.00675 0.22554 0.81235 0.0
C1159 C 0.00797 0.20499 0.86516 0.0
C1160 C 0.00353 0.29917 0.89611 0.0
N1161 N 0.02857 0.29531 0.88925 0.0
C1162 C 0.04035 0.2923 0.93676 0.0
C1163 C 0.04691 0.29181 0.90886 0.0
C1164 C 0.01469 0.29651 0.94449 0.0
C1165 C 0.99616 0.30015 0.92379 0.0
H1166 H 0.98924 0.30121 0.88006 0.0
H1167 H 0.06658 0.28826 0.90282 0.0
C1168 C 0.07626 0.22053 0.78757 0.0
N1169 N 0.06878 0.23005 0.81244 0.0
C1170 C 0.0906 0.19774 0.78624 0.0
C1171 C 0.08823 0.19469 0.83597 0.0
C1172 C 0.07408 0.21747 0.83633 0.0
C1173 C 0.09739 0.18497 0.81077 0.0
H1174 H 0.07225 0.23127 0.76895 0.0
H1175 H 0.06837 0.22584 0.85583 0.0
C1176 C 0.02038 0.34008 0.84527 0.0
N1177 N 0.99403 0.37125 0.88186 0.0
C1178 C 0.99396 0.34399 0.84212 0.0
C1179 C 0.03341 0.3521 0.86698 0.0
C1180 C 0.98099 0.35983 0.86083 0.0
C1181 C 0.01973 0.36774 0.88529 0.0
C1182 C 0.04955 0.2901 0.75773 0.0
C1183 C 0.056 0.31293 0.74405 0.0
C1184 C 0.03558 0.27106 0.74389 0.0
C1185 C 0.04814 0.31643 0.71674 0.0
C1186 C 0.02804 0.27531 0.7166 0.0
N1187 N 0.03442 0.29771 0.70371 0.0
C1188 C 0.11227 0.32557 0.79064 0.0
C1189 C 0.09042 0.35817 0.81565 0.0
C1190 C 0.131 0.34319 0.78223 0.0
N1191 N 0.09244 0.33338 0.80687 0.0
C1192 C 0.10874 0.37641 0.80784 0.0
C1193 C 0.1292 0.36907 0.79061 0.0
H1194 H 0.11323 0.30574 0.78378 0.0
H1195 H 0.07425 0.36396 0.82814 0.0
C1196 C 0.97312 0.28787 0.78076 0.0
N1197 N 0.99446 0.30299 0.78114 0.0
C1198 C 0.95111 0.29603 0.7667 0.0
C1199 C 0.97385 0.33465 0.75305 0.0
C1200 C 0.99527 0.32587 0.76752 0.0
C1201 C 0.95121 0.3199 0.75296 0.0
H1202 H 0.97289 0.26995 0.79215 0.0
H1203 H 0.01228 0.33779 0.76884 0.0
O1204 O 0.07399 0.28312 0.8452 0.0
O1205 O 0.01835 0.26691 0.83049 0.0
O1206 O 0.03339 0.3244 0.82736 0.0
O1207 O 0.05671 0.28648 0.78459 0.0
H1208 H 0.11303 0.25813 0.82235 0.0
H1209 H 0.0924 0.3209 0.87615 0.0
H1210 H 0.15895 0.26926 0.82906 0.0
H1211 H 0.13872 0.33101 0.88178 0.0
H1212 H 0.99703 0.18689 0.79988 0.0
H1213 H 0.01795 0.24319 0.87889 0.0
H1214 H 0.00627 0.2332 0.79161 0.0
H1215 H 0.00841 0.19674 0.88566 0.0
H1216 H 0.05519 0.28945 0.95214 0.0
H1217 H 0.97611 0.30305 0.92895 0.0
H1218 H 0.09755 0.19105 0.76643 0.0
H1219 H 0.0928 0.18531 0.85532 0.0
H1220 H 0.98349 0.33474 0.8256 0.0
H1221 H 0.05379 0.34904 0.86995 0.0
H1222 H 0.96053 0.36296 0.85869 0.0
H1223 H 0.02954 0.377 0.90229 0.0
H1224 H 0.06668 0.32793 0.7545 0.0
H1225 H 0.03044 0.2533 0.75419 0.0
H1226 H 0.05286 0.33405 0.70595 0.0
H1227 H 0.0171 0.2608 0.70568 0.0
H1228 H 0.14653 0.33671 0.76907 0.0
H1229 H 0.10635 0.39624 0.81435 0.0
H1230 H 0.93403 0.28409 0.76709 0.0
H1231 H 0.9746 0.35339 0.74322 0.0
Li1232 Li 0.27791 0.95456 0.14768 0.0
Li1233 Li 0.28208 0.97494 0.19443 0.0
Li1234 Li 0.29902 0.93108 0.18699 0.0
Li1235 Li 0.25425 0.93896 0.18831 0.0
C1236 C 0.33538 0.96201 0.169 0.0
N1237 N 0.38798 0.9553 0.17159 0.0
C1238 C 0.34937 0.97252 0.19089 0.0
C1239 C 0.34811 0.94812 0.14841 0.0
C1240 C 0.37597 0.96892 0.19181 0.0
C1241 C 0.37472 0.94493 0.1501 0.0
C1242 C 0.24063 0.99654 0.16942 0.0
C1243 C 0.21363 0.02908 0.19 0.0
N1244 N 0.21966 0.04549 0.16908 0.0
C1245 C 0.24632 0.01361 0.14795 0.0
C1246 C 0.22395 0.00421 0.19047 0.0
C1247 C 0.23562 0.03831 0.14822 0.0
C1248 C 0.25795 0.95652 0.09315 0.0
N1249 N 0.27846 0.96229 0.10939 0.0
C1250 C 0.29983 0.98271 0.0716 0.0
C1251 C 0.29913 0.9752 0.09924 0.0
C1252 C 0.27894 0.97705 0.05426 0.0
C1253 C 0.25782 0.96367 0.06535 0.0
H1254 H 0.24151 0.94678 0.1019 0.0
H1255 H 0.31486 0.9802 0.11278 0.0
C1256 C 0.29369 0.0085 0.23913 0.0
N1257 N 0.28999 0.00695 0.21142 0.0
C1258 C 0.30372 0.03099 0.25084 0.0
C1259 C 0.3051 0.05006 0.20536 0.0
C1260 C 0.29534 0.02715 0.19454 0.0
C1261 C 0.31011 0.05198 0.23379 0.0
H1262 H 0.29014 0.99186 0.25199 0.0
H1263 H 0.29313 0.02508 0.17249 0.0
C1264 C 0.25977 0.89595 0.15913 0.0
N1265 N 0.22996 0.85184 0.15875 0.0
C1266 C 0.26644 0.87491 0.17568 0.0
C1267 C 0.23802 0.89449 0.14227 0.0
C1268 C 0.25114 0.85277 0.17517 0.0
C1269 C 0.22314 0.87206 0.14246 0.0
C1270 C 0.26749 0.93876 0.24264 0.0
C1271 C 0.27419 0.91646 0.25718 0.0
C1272 C 0.24854 0.95512 0.25313 0.0
C1273 C 0.26147 0.91071 0.28181 0.0
C1274 C 0.23626 0.9487 0.27782 0.0
N1275 N 0.24291 0.9268 0.29152 0.0
C1276 C 0.33762 0.91275 0.22178 0.0
C1277 C 0.33511 0.89024 0.17927 0.0
C1278 C 0.35779 0.89706 0.2305 0.0
N1279 N 0.32661 0.90892 0.19671 0.0
C1280 C 0.35537 0.87413 0.18712 0.0
C1281 C 0.36683 0.87733 0.21316 0.0
H1282 H 0.33071 0.92807 0.23498 0.0
H1283 H 0.32607 0.88783 0.15934 0.0
C1284 C 0.20025 0.93242 0.18594 0.0
N1285 N 0.22205 0.92363 0.19822 0.0
C1286 C 0.17716 0.91891 0.18892 0.0
C1287 C 0.19917 0.88831 0.21818 0.0
C1288 C 0.22179 0.90224 0.21444 0.0
C1289 C 0.1766 0.89623 0.20479 0.0
H1290 H 0.20106 0.94921 0.17273 0.0
H1291 H 0.23946 0.89497 0.22307 0.0
O1292 O 0.30924 0.96457 0.1682 0.0
O1293 O 0.25099 0.97231 0.1696 0.0
O1294 O 0.2742 0.91801 0.15981 0.0
O1295 O 0.27977 0.94472 0.21852 0.0
H1296 H 0.33977 0.98312 0.20712 0.0
H1297 H 0.33748 0.93957 0.13152 0.0
H1298 H 0.38706 0.97687 0.20868 0.0
H1299 H 0.38481 0.9341 0.13439 0.0
H1300 H 0.20077 0.03531 0.20622 0.0
H1301 H 0.25909 0.00795 0.13141 0.0
H1302 H 0.21889 0.99105 0.20689 0.0
H1303 H 0.24003 0.0518 0.13186 0.0
H1304 H 0.31626 0.99345 0.06411 0.0
H1305 H 0.24137 0.95879 0.05271 0.0
H1306 H 0.30769 0.03136 0.27276 0.0
H1307 H 0.30945 0.06578 0.19143 0.0
H1308 H 0.28296 0.8758 0.18917 0.0
H1309 H 0.2324 0.91066 0.12958 0.0
H1310 H 0.25598 0.83641 0.18801 0.0
H1311 H 0.20611 0.87078 0.12973 0.0
H1312 H 0.28879 0.90354 0.24934 0.0
H1313 H 0.24343 0.97263 0.24235 0.0
H1314 H 0.26631 0.89343 0.29317 0.0
H1315 H 0.22148 0.96116 0.28612 0.0
H1316 H 0.36644 0.90056 0.25048 0.0
H1317 H 0.36173 0.85912 0.17318 0.0
H1318 H 0.16015 0.92566 0.17826 0.0
H1319 H 0.19978 0.87062 0.23003 0.0
Li1320 Li 0.94462 0.73764 0.81059 0.0
Li1321 Li 0.96319 0.70836 0.84627 0.0
Li1322 Li 0.97504 0.70661 0.79696 0.0
Li1323 Li 0.93362 0.69162 0.80929 0.0
C1324 C 0.98816 0.76018 0.82295 0.0
N1325 N 0.00064 0.81196 0.82158 0.0
C1326 C 0.99038 0.77415 0.84749 0.0
C1327 C 0.99267 0.77245 0.79775 0.0
C1328 C 0.9966 0.80034 0.84636 0.0
C1329 C 0.99885 0.79866 0.79747 0.0
C1330 C 0.90294 0.71115 0.84781 0.0
C1331 C 0.87448 0.68547 0.8758 0.0
N1332 N 0.85395 0.69695 0.8635 0.0
C1333 C 0.88161 0.72276 0.83548 0.0
C1334 C 0.89944 0.69241 0.86817 0.0
C1335 C 0.85697 0.71529 0.84369 0.0
C1336 C 0.92113 0.78052 0.78346 0.0
N1337 N 0.92998 0.77093 0.80776 0.0
C1338 C 0.91176 0.80617 0.83263 0.0
C1339 C 0.92596 0.78341 0.83202 0.0
C1340 C 0.90133 0.81602 0.80807 0.0
C1341 C 0.90676 0.80332 0.78312 0.0
H1342 H 0.92416 0.76988 0.76457 0.0
H1343 H 0.93291 0.77504 0.85105 0.0
C1344 C 0.98528 0.68566 0.89445 0.0
N1345 N 0.97206 0.7061 0.8841 0.0
C1346 C 0.99202 0.68503 0.92235 0.0
C1347 C 0.97081 0.72612 0.92845 0.0
C1348 C 0.96438 0.72588 0.90051 0.0
C1349 C 0.98502 0.70561 0.93966 0.0
H1350 H 0.99068 0.6699 0.88108 0.0
H1351 H 0.95333 0.74157 0.89179 0.0
C1352 C 0.94623 0.71097 0.75094 0.0
N1353 N 0.95503 0.70319 0.69532 0.0
C1354 C 0.93875 0.68788 0.73839 0.0
C1355 C 0.95784 0.73024 0.7351 0.0
C1356 C 0.94345 0.68428 0.71027 0.0
C1357 C 0.96224 0.72589 0.70705 0.0
C1358 C 0.9854 0.66001 0.81739 0.0
C1359 C 0.98042 0.63768 0.80215 0.0
C1360 C 0.0104 0.6651 0.82646 0.0
C1361 C 0.00063 0.62085 0.7961 0.0
C1362 C 0.03009 0.64784 0.8199 0.0
N1363 N 0.02483 0.62626 0.80499 0.0
C1364 C 0.02644 0.71162 0.77796 0.0
C1365 C 0.00237 0.67903 0.7555 0.0
C1366 C 0.04889 0.70346 0.76474 0.0
N1367 N 0.00387 0.69907 0.77352 0.0
C1368 C 0.02427 0.67028 0.74183 0.0
C1369 C 0.04807 0.68211 0.74689 0.0
H1370 H 0.02732 0.72714 0.79281 0.0
H1371 H 0.98456 0.66865 0.75308 0.0
C1372 C 0.88702 0.67473 0.78594 0.0
N1373 N 0.90664 0.66779 0.80288 0.0
C1374 C 0.86802 0.65688 0.77896 0.0
C1375 C 0.8892 0.62548 0.80801 0.0
C1376 C 0.90778 0.64396 0.81443 0.0
C1377 C 0.86926 0.63169 0.78958 0.0
H1378 H 0.88654 0.69395 0.77727 0.0
H1379 H 0.92351 0.63911 0.82807 0.0
O1380 O 0.98151 0.73465 0.82354 0.0
O1381 O 0.92717 0.71766 0.83953 0.0
O1382 O 0.9416 0.71493 0.77841 0.0
O1383 O 0.966 0.67703 0.82297 0.0
H1384 H 0.98726 0.76493 0.86719 0.0
H1385 H 0.99142 0.76182 0.77863 0.0
H1386 H 0.99823 0.81142 0.86519 0.0
H1387 H 0.00225 0.80842 0.77809 0.0
H1388 H 0.87144 0.67091 0.89145 0.0
H1389 H 0.88407 0.7372 0.81957 0.0
H1390 H 0.91582 0.68319 0.87778 0.0
H1391 H 0.84025 0.72402 0.83427 0.0
H1392 H 0.90824 0.8155 0.85227 0.0
H1393 H 0.89879 0.81009 0.76379 0.0
H1394 H 0.00301 0.66886 0.93017 0.0
H1395 H 0.9646 0.74212 0.94118 0.0
H1396 H 0.92987 0.67267 0.75028 0.0
H1397 H 0.96333 0.74839 0.7443 0.0
H1398 H 0.93798 0.66642 0.70036 0.0
H1399 H 0.97132 0.74061 0.69458 0.0
H1400 H 0.96124 0.63357 0.79474 0.0
H1401 H 0.01463 0.68248 0.83798 0.0
H1402 H 0.99709 0.60357 0.78419 0.0
H1403 H 0.04957 0.65167 0.82655 0.0
H1404 H 0.06682 0.71323 0.76913 0.0
H1405 H 0.02279 0.6534 0.72877 0.0
H1406 H 0.85279 0.66261 0.76502 0.0
H1407 H 0.89105 0.60625 0.8165 0.0
C1408 C 0.36619 0.37858 0.28823 0.0
C1409 C 0.34675 0.37903 0.30842 0.0
H1410 H 0.39952 0.35912 0.27245 0.0
C1411 C 0.34664 0.35976 0.32884 0.0
H1412 H 0.36696 0.39323 0.27234 0.0
C1413 C 0.36529 0.34047 0.329 0.0
C1414 C 0.38451 0.33978 0.30867 0.0
H1415 H 0.33161 0.35901 0.34427 0.0
H1416 H 0.36407 0.32554 0.34457 0.0
C1417 C 0.38486 0.3591 0.28832 0.0
C1418 C 0.3837 0.64189 0.70784 0.0
C1419 C 0.38331 0.66182 0.68818 0.0
H1420 H 0.36563 0.60747 0.72286 0.0
C1421 C 0.36379 0.66201 0.66816 0.0
H1422 H 0.39859 0.64121 0.72344 0.0
C1423 C 0.34494 0.64294 0.66793 0.0
C1424 C 0.34512 0.62304 0.68761 0.0
H1425 H 0.36255 0.67743 0.65315 0.0
H1426 H 0.32971 0.64434 0.65276 0.0
C1427 C 0.36482 0.62263 0.70752 0.0
C1428 C 0.63705 0.6595 0.33237 0.0
C1429 C 0.61811 0.66037 0.31175 0.0
H1430 H 0.67046 0.64077 0.34804 0.0
C1431 C 0.61801 0.64121 0.29122 0.0
H1432 H 0.63807 0.67431 0.34809 0.0
C1433 C 0.63664 0.62169 0.29127 0.0
C1434 C 0.65577 0.62106 0.31178 0.0
H1435 H 0.60357 0.64133 0.27512 0.0
H1436 H 0.63607 0.60716 0.27524 0.0
C1437 C 0.65564 0.64017 0.33235 0.0
C1438 C 0.63482 0.3356 0.66893 0.0
C1439 C 0.61499 0.3357 0.68858 0.0
H1440 H 0.66919 0.35329 0.6543 0.0
C1441 C 0.6143 0.35553 0.70834 0.0
H1442 H 0.63626 0.32026 0.65383 0.0
C1443 C 0.63319 0.37478 0.70848 0.0
C1444 C 0.65323 0.37446 0.68898 0.0
H1445 H 0.59916 0.35614 0.72367 0.0
H1446 H 0.6321 0.38988 0.72387 0.0
C1447 C 0.65372 0.35464 0.66918 0.0
C1448 C 0.86479 0.8771 0.7894 0.0
C1449 C 0.84541 0.87733 0.80965 0.0
H1450 H 0.89794 0.85768 0.77313 0.0
C1451 C 0.84518 0.85768 0.82965 0.0
H1452 H 0.86564 0.89204 0.77382 0.0
C1453 C 0.86367 0.83826 0.82936 0.0
C1454 C 0.88285 0.83781 0.80897 0.0
H1455 H 0.83017 0.85676 0.8451 0.0
H1456 H 0.8624 0.82306 0.84463 0.0
C1457 C 0.8833 0.85748 0.78902 0.0
C1458 C 0.84808 0.13994 0.16905 0.0
C1459 C 0.84761 0.12056 0.18933 0.0
H1460 H 0.86623 0.17403 0.15391 0.0
C1461 C 0.86677 0.12058 0.20984 0.0
H1462 H 0.8333 0.14105 0.15337 0.0
C1463 C 0.88563 0.13985 0.2103 0.0
C1464 C 0.88581 0.15931 0.19012 0.0
H1465 H 0.86713 0.10581 0.22562 0.0
H1466 H 0.9 0.1396 0.22647 0.0
C1467 C 0.86697 0.15897 0.16938 0.0
C1468 C 0.11479 0.14364 0.79065 0.0
C1469 C 0.11606 0.16334 0.81055 0.0
H1470 H 0.13173 0.10894 0.77481 0.0
C1471 C 0.13613 0.16297 0.82992 0.0
H1472 H 0.09948 0.14341 0.7755 0.0
C1473 C 0.15453 0.14348 0.82946 0.0
C1474 C 0.15336 0.12371 0.80967 0.0
H1475 H 0.13808 0.17821 0.84506 0.0
H1476 H 0.17013 0.14438 0.84422 0.0
C1477 C 0.13324 0.12396 0.79025 0.0
C1478 C 0.1461 0.86661 0.22942 0.0
C1479 C 0.15363 0.87927 0.20509 0.0
H1480 H 0.12212 0.83774 0.24772 0.0
C1481 C 0.14081 0.87347 0.18034 0.0
H1482 H 0.15543 0.87093 0.24886 0.0
C1483 C 0.12187 0.8544 0.17964 0.0
C1484 C 0.11527 0.84073 0.20369 0.0
H1485 H 0.14644 0.88261 0.16117 0.0
H1486 H 0.11345 0.8494 0.15992 0.0
C1487 C 0.12708 0.84758 0.22874 0.0
C1488 C 0.16438 0.59126 0.25876 0.0
C1489 C 0.17621 0.57361 0.2408 0.0
H1490 H 0.13978 0.62396 0.26296 0.0
C1491 C 0.17336 0.57703 0.21219 0.0
H1492 H 0.16578 0.58889 0.28092 0.0
C1493 C 0.1585 0.59732 0.20182 0.0
C1494 C 0.14604 0.61454 0.21984 0.0
H1495 H 0.18246 0.56389 0.19783 0.0
H1496 H 0.15661 0.5994 0.17968 0.0
C1497 C 0.14945 0.61142 0.24843 0.0
C1498 C 0.57505 0.83788 0.78871 0.0
C1499 C 0.57439 0.82755 0.76188 0.0
H1500 H 0.596 0.86026 0.81825 0.0
C1501 C 0.59623 0.83008 0.74502 0.0
H1502 H 0.55863 0.836 0.80231 0.0
C1503 C 0.61768 0.84378 0.75423 0.0
C1504 C 0.61781 0.85527 0.7805 0.0
H1505 H 0.59631 0.82257 0.72417 0.0
H1506 H 0.63394 0.84597 0.74047 0.0
C1507 C 0.59654 0.85157 0.79794 0.0
C1508 C 0.84504 0.3848 0.25024 0.0
C1509 C 0.85177 0.38409 0.22216 0.0
H1510 H 0.82651 0.40559 0.28269 0.0
C1511 C 0.84248 0.40354 0.20459 0.0
H1512 H 0.85218 0.37036 0.26446 0.0
C1513 C 0.82771 0.42382 0.21509 0.0
C1514 C 0.8219 0.42507 0.24339 0.0
H1515 H 0.84699 0.40333 0.18277 0.0
H1516 H 0.82123 0.43878 0.20113 0.0
C1517 C 0.83027 0.40503 0.26072 0.0
C1518 C 0.40315 0.16479 0.74317 0.0
C1519 C 0.42483 0.16772 0.7602 0.0
H1520 H 0.36565 0.1485 0.73841 0.0
C1521 C 0.42427 0.15714 0.78692 0.0
H1522 H 0.40301 0.17241 0.72237 0.0
C1523 C 0.40295 0.14306 0.79597 0.0
C1524 C 0.38173 0.13923 0.77849 0.0
H1525 H 0.44057 0.15927 0.80064 0.0
H1526 H 0.40354 0.13435 0.81627 0.0
C1527 C 0.38186 0.15075 0.75223 0.0
C1528 C 0.16902 0.40902 0.74111 0.0
C1529 C 0.17728 0.4294 0.75808 0.0
H1530 H 0.14725 0.37416 0.73803 0.0
C1531 C 0.17136 0.42861 0.78638 0.0
H1532 H 0.17286 0.40919 0.71915 0.0
C1533 C 0.15653 0.40853 0.79719 0.0
C1534 C 0.14738 0.38876 0.77996 0.0
H1535 H 0.17779 0.44378 0.80011 0.0
H1536 H 0.15187 0.4087 0.81897 0.0
C1537 C 0.15427 0.38893 0.75193 0.0
C1538 C 0.38914 0.85131 0.24956 0.0
C1539 C 0.38827 0.86049 0.22229 0.0
H1540 H 0.41067 0.83112 0.2803 0.0
C1541 C 0.40851 0.85434 0.20425 0.0
H1542 H 0.37367 0.85545 0.26385 0.0
C1543 C 0.42964 0.84014 0.21362 0.0
C1544 C 0.43087 0.83169 0.24116 0.0
H1545 H 0.40845 0.86124 0.18316 0.0
H1546 H 0.44523 0.83615 0.19944 0.0
C1547 C 0.41018 0.83707 0.25888 0.0
C1548 C 0.82961 0.58952 0.74202 0.0
C1549 C 0.82078 0.57021 0.76004 0.0
H1550 H 0.85194 0.62378 0.73713 0.0
C1551 C 0.82654 0.57227 0.78831 0.0
H1552 H 0.82597 0.58832 0.72006 0.0
C1553 C 0.84157 0.59268 0.79813 0.0
C1554 C 0.85112 0.61148 0.77991 0.0
H1555 H 0.81975 0.55791 0.80279 0.0
H1556 H 0.84597 0.59357 0.81995 0.0
C1557 C 0.84457 0.60989 0.75183 0.0
C1558 C 0.597 0.14633 0.20479 0.0
C1559 C 0.61847 0.14287 0.22198 0.0
H1560 H 0.55891 0.16154 0.20081 0.0
C1561 C 0.61845 0.1543 0.24828 0.0
H1562 H 0.59636 0.13766 0.18447 0.0
C1563 C 0.59695 0.16783 0.25771 0.0
C1564 C 0.57496 0.17017 0.24106 0.0
H1565 H 0.63486 0.15227 0.26187 0.0
H1566 H 0.59714 0.1754 0.27854 0.0
C1567 C 0.57546 0.15981 0.21424 0.0
C1568 C 0.66686 0.09023 0.75744 0.0
C1569 C 0.67565 0.07037 0.7401 0.0
H1570 H 0.64463 0.12469 0.76111 0.0
C1571 C 0.66997 0.07162 0.71176 0.0
H1572 H 0.67046 0.08966 0.77944 0.0
C1573 C 0.65506 0.09179 0.7012 0.0
C1574 C 0.64553 0.11114 0.71876 0.0
H1575 H 0.67674 0.05681 0.69778 0.0
H1576 H 0.65072 0.09205 0.67935 0.0
C1577 C 0.652 0.11036 0.74691 0.0
C1578 C 0.11711 0.34779 0.25091 0.0
C1579 C 0.11784 0.35869 0.27745 0.0
H1580 H 0.09537 0.32658 0.22117 0.0
C1581 C 0.09713 0.35427 0.29548 0.0
H1582 H 0.13291 0.35052 0.23666 0.0
C1583 C 0.07572 0.34017 0.28673 0.0
C1584 C 0.07455 0.33018 0.25978 0.0
H1585 H 0.09701 0.36253 0.316 0.0
H1586 H 0.05984 0.33755 0.3009 0.0
C1587 C 0.09572 0.33374 0.24216 0.0
C1588 C 0.32063 0.91991 0.71418 0.0
C1589 C 0.31954 0.92498 0.74263 0.0
H1590 H 0.33609 0.8962 0.68205 0.0
C1591 C 0.33327 0.90901 0.7608 0.0
H1592 H 0.31008 0.93181 0.69973 0.0
C1593 C 0.34844 0.88893 0.75074 0.0
C1594 C 0.3501 0.88412 0.72223 0.0
H1595 H 0.33319 0.91273 0.7828 0.0
H1596 H 0.35967 0.87787 0.76535 0.0
C1597 C 0.33563 0.89959 0.70409 0.0
C1598 C 0.88671 0.64116 0.24497 0.0
C1599 C 0.88403 0.63714 0.27352 0.0
H1600 H 0.90919 0.65695 0.21234 0.0
C1601 C 0.90191 0.64872 0.29143 0.0
H1602 H 0.87304 0.63305 0.23053 0.0
C1603 C 0.92235 0.66328 0.28096 0.0
C1604 C 0.92559 0.66641 0.25231 0.0
H1605 H 0.9006 0.64596 0.31352 0.0
H1606 H 0.93579 0.67181 0.29537 0.0
C1607 C 0.90728 0.65537 0.23451 0.0
C1608 C 0.67153 0.90743 0.24174 0.0
C1609 C 0.6805 0.92718 0.2591 0.0
H1610 H 0.64961 0.87276 0.23824 0.0
C1611 C 0.67574 0.92543 0.2876 0.0
H1612 H 0.67446 0.90837 0.21964 0.0
C1613 C 0.66142 0.90492 0.29832 0.0
C1614 C 0.65157 0.88573 0.28076 0.0
H1615 H 0.68271 0.94016 0.30157 0.0
H1616 H 0.65771 0.90432 0.32029 0.0
C1617 C 0.65724 0.88696 0.25243 0.0
C1618 C 0.88248 0.34284 0.74612 0.0
C1619 C 0.88345 0.35707 0.72147 0.0
H1620 H 0.9031 0.31982 0.77529 0.0
C1621 C 0.90622 0.35696 0.70589 0.0
H1622 H 0.86509 0.34239 0.7584 0.0
C1623 C 0.92799 0.34397 0.71551 0.0
C1624 C 0.92734 0.33066 0.74078 0.0
H1625 H 0.90756 0.36787 0.68688 0.0
H1626 H 0.94555 0.34486 0.70353 0.0
C1627 C 0.90417 0.32971 0.75564 0.0
C1628 C 0.33264 0.10494 0.28254 0.0
C1629 C 0.35283 0.11603 0.26735 0.0
H1630 H 0.30281 0.07644 0.28363 0.0
C1631 C 0.35821 0.10649 0.24086 0.0
H1632 H 0.32794 0.11202 0.30294 0.0
C1633 C 0.34405 0.08609 0.22992 0.0
C1634 C 0.32398 0.07475 0.2451 0.0
H1635 H 0.374 0.11423 0.22886 0.0
H1636 H 0.34945 0.07869 0.20985 0.0
C1637 C 0.3183 0.08455 0.27149 0.0
C1638 C 0.09435 0.64646 0.69987 0.0
C1639 C 0.11551 0.64266 0.71744 0.0
H1640 H 0.05656 0.66228 0.69521 0.0
C1641 C 0.11516 0.65392 0.74382 0.0
H1642 H 0.09396 0.63791 0.67948 0.0
C1643 C 0.09369 0.66767 0.7529 0.0
C1644 C 0.07205 0.67052 0.7358 0.0
H1645 H 0.1313 0.65164 0.75772 0.0
H1646 H 0.09364 0.67509 0.77379 0.0
C1647 C 0.07283 0.66021 0.70897 0.0
C1648 C 0.19282 0.50404 0.51141 0.0
C1649 C 0.21605 0.50845 0.52544 0.0
H1650 H 0.17478 0.49279 0.4735 0.0
C1651 C 0.23938 0.5045 0.51146 0.0
H1652 H 0.17457 0.50708 0.52165 0.0
C1653 C 0.2395 0.49623 0.48404 0.0
C1654 C 0.21629 0.49199 0.46993 0.0
H1655 H 0.25757 0.50752 0.52185 0.0
H1656 H 0.25778 0.49349 0.47375 0.0
C1657 C 0.19294 0.49605 0.48385 0.0
C1658 C 0.51355 0.81841 0.48928 0.0
C1659 C 0.5108 0.79596 0.47327 0.0
H1660 H 0.50827 0.8362 0.5288 0.0
C1661 C 0.50039 0.77375 0.48556 0.0
H1662 H 0.5217 0.83576 0.48044 0.0
C1663 C 0.49278 0.77399 0.51318 0.0
C1664 C 0.49551 0.7964 0.5292 0.0
H1665 H 0.49779 0.75624 0.4737 0.0
H1666 H 0.48496 0.7565 0.52206 0.0
C1667 C 0.50608 0.81859 0.517 0.0
C1668 C 0.76086 0.50307 0.48836 0.0
C1669 C 0.78423 0.50792 0.4748 0.0
H1670 H 0.74233 0.49117 0.52569 0.0
C1671 C 0.80739 0.50437 0.48923 0.0
H1672 H 0.74273 0.50542 0.47766 0.0
C1673 C 0.80716 0.49626 0.51675 0.0
C1674 C 0.78377 0.49123 0.53022 0.0
H1675 H 0.82567 0.5081 0.47931 0.0
H1676 H 0.82528 0.49362 0.52739 0.0
C1677 C 0.76064 0.49469 0.51574 0.0
C1678 C 0.49908 0.17998 0.48337 0.0
C1679 C 0.48868 0.20224 0.47114 0.0
H1680 H 0.51447 0.16268 0.51997 0.0
C1681 C 0.48582 0.2246 0.48725 0.0
H1682 H 0.50136 0.16242 0.47153 0.0
C1683 C 0.49326 0.22473 0.51494 0.0
C1684 C 0.50362 0.20248 0.5272 0.0
H1685 H 0.47812 0.24213 0.47835 0.0
H1686 H 0.49066 0.24222 0.52683 0.0
C1687 C 0.50637 0.18007 0.51115 0.0
C1688 C 0.69257 0.00444 0.01353 0.0
C1689 C 0.71585 0.00884 0.02748 0.0
H1690 H 0.67437 0.99303 0.97576 0.0
C1691 C 0.73912 0.00477 0.01342 0.0
H1692 H 0.67435 0.00756 0.02382 0.0
C1693 C 0.73913 0.99637 0.98604 0.0
C1694 C 0.71588 0.9921 0.97204 0.0
H1695 H 0.75735 0.00777 0.02372 0.0
H1696 H 0.75738 0.99351 0.97571 0.0
C1697 C 0.69258 0.99631 0.98601 0.0
C1698 C 0.99112 0.31556 0.98478 0.0
C1699 C 0.0072 0.29628 0.97396 0.0
H1700 H 0.97163 0.33023 0.02047 0.0
C1701 C 0.01601 0.27657 0.99145 0.0
H1702 H 0.98419 0.33104 0.97175 0.0
C1703 C 0.00873 0.27602 0.01916 0.0
C1704 C 0.99273 0.29533 0.03004 0.0
H1705 H 0.02825 0.26135 0.98359 0.0
H1706 H 0.01582 0.2606 0.03218 0.0
C1707 C 0.9841 0.3152 0.01263 0.0
C1708 C 0.30166 0.9927 0.98168 0.0
C1709 C 0.27933 0.00308 0.96969 0.0
H1710 H 0.31899 0.97611 0.01758 0.0
C1711 C 0.2568 0.00452 0.98563 0.0
H1712 H 0.31939 0.9915 0.97003 0.0
C1713 C 0.25662 0.99589 0.01294 0.0
C1714 C 0.27898 0.98564 0.02499 0.0
H1715 H 0.23919 0.01213 0.97692 0.0
H1716 H 0.23903 0.99762 0.02475 0.0
C1717 C 0.30149 0.98412 0.00901 0.0
C1718 C 0.99085 0.68359 0.98542 0.0
C1719 C 0.99277 0.70594 0.96913 0.0
H1720 H 0.99656 0.66652 0.02521 0.0
C1721 C 0.00224 0.7287 0.98116 0.0
H1722 H 0.98344 0.66582 0.97678 0.0
C1723 C 0.00967 0.72911 0.00884 0.0
C1724 C 0.00768 0.70681 0.02517 0.0
H1725 H 0.00418 0.74616 0.96907 0.0
H1726 H 0.01672 0.747 0.01754 0.0
C1727 C 0.99813 0.68406 0.01319 0.0
loop_
_geom_bond_atom_site_label_1
_geom_bond_atom_site_label_2
_geom_bond_distance
_geom_bond_site_symmetry_2
_ccdc_geom_bond_type
Li0 N17 1.990 . S
Li0 O60 1.956 . S
Li0 O61 1.970 . S
Li0 O62 1.961 . S
Li1 N25 1.990 . S
Li1 O60 1.970 . S
Li1 O61 1.956 . S
Li1 O63 1.961 . S
Li2 N47 1.990 . S
Li2 O60 1.961 . S
Li2 O62 1.956 . S
Li2 O63 1.970 . S
Li3 N53 1.990 . S
Li3 O61 1.961 . S
Li3 O62 1.970 . S
Li3 O63 1.956 . S
C4 C6 1.348 . S
C4 C7 1.356 . S
C4 O60 1.325 . S
N5 C8 1.314 . S
N5 C9 1.279 . S
C6 C4 1.348 . S
C6 C8 1.353 . S
C6 H64 0.929 . S
C7 C4 1.356 . S
C7 C9 1.358 . S
C7 H65 0.930 . S
C8 N5 1.314 . S
C8 C6 1.353 . S
C8 H66 0.930 . S
C9 N5 1.279 . S
C9 C7 1.358 . S
C9 H67 0.930 . S
C10 C13 1.348 . S
C10 C14 1.356 . S
C10 O61 1.325 . S
C11 N12 1.279 . S
C11 C14 1.358 . S
C11 H68 0.930 . S
N12 C11 1.279 . S
N12 C15 1.314 . S
C13 C10 1.348 . S
C13 C15 1.353 . S
C13 H69 0.929 . S
C14 C10 1.356 . S
C14 C11 1.358 . S
C14 H70 0.930 . S
C15 N12 1.314 . S
C15 C13 1.353 . S
C15 H71 0.930 . S
C16 N17 1.314 . S
C16 C21 1.353 . S
C16 H22 0.930 . S
N17 Li0 1.990 . S
N17 C16 1.314 . S
N17 C19 1.279 . S
C18 C19 1.358 . S
C18 C20 1.356 . S
C18 H72 0.930 . S
C19 N17 1.279 . S
C19 C18 1.358 . S
C19 H23 0.930 . S
C20 C18 1.356 . S
C20 C21 1.348 . S
C21 C16 1.353 . S
C21 C20 1.348 . S
C21 H73 0.929 . S
H22 C16 0.930 . S
H23 C19 0.930 . S
C24 N25 1.314 . S
C24 C26 1.353 . S
C24 H30 0.930 . S
N25 Li1 1.990 . S
N25 C24 1.314 . S
N25 C28 1.279 . S
C26 C24 1.353 . S
C26 C29 1.348 . S
C26 H74 0.929 . S
C27 C28 1.358 . S
C27 C29 1.356 . S
C27 H75 0.930 . S
C28 N25 1.279 . S
C28 C27 1.358 . S
C28 H31 0.930 . S
C29 C26 1.348 . S
C29 C27 1.356 . S
H30 C24 0.930 . S
H31 C28 0.930 . S
C32 C34 1.348 . S
C32 C35 1.356 . S
C32 O62 1.325 . S
N33 C36 1.314 . S
N33 C37 1.279 . S
C34 C32 1.348 . S
C34 C36 1.353 . S
C34 H76 0.929 . S
C35 C32 1.356 . S
C35 C37 1.358 . S
C35 H77 0.930 . S
C36 N33 1.314 . S
C36 C34 1.353 . S
C36 H78 0.930 . S
C37 N33 1.279 . S
C37 C35 1.358 . S
C37 H79 0.930 . S
C38 C39 1.348 . S
C38 C40 1.356 . S
C38 O63 1.325 . S
C39 C38 1.348 . S
C39 C41 1.353 . S
C39 H80 0.929 . S
C40 C38 1.356 . S
C40 C42 1.358 . S
C40 H81 0.930 . S
C41 C39 1.353 . S
C41 N43 1.314 . S
C41 H82 0.930 . S
C42 C40 1.358 . S
C42 N43 1.279 . S
C42 H83 0.930 . S
N43 C41 1.314 . S
N43 C42 1.279 . S
C44 C46 1.353 . S
C44 N47 1.314 . S
C44 H50 0.930 . S
C45 N47 1.279 . S
C45 C48 1.358 . S
C45 H51 0.930 . S
C46 C44 1.353 . S
C46 C49 1.348 . S
C46 H84 0.929 . S
N47 Li2 1.990 . S
N47 C44 1.314 . S
N47 C45 1.279 . S
C48 C45 1.358 . S
C48 C49 1.356 . S
C48 H85 0.930 . S
C49 C46 1.348 . S
C49 C48 1.356 . S
H50 C44 0.930 . S
H51 C45 0.930 . S
C52 N53 1.314 . S
C52 C54 1.353 . S
C52 H58 0.930 . S
N53 Li3 1.990 . S
N53 C52 1.314 . S
N53 C56 1.279 . S
C54 C52 1.353 . S
C54 C57 1.348 . S
C54 H86 0.929 . S
C55 C56 1.358 . S
C55 C57 1.356 . S
C55 H87 0.930 . S
C56 N53 1.279 . S
C56 C55 1.358 . S
C56 H59 0.930 . S
C57 C54 1.348 . S
C57 C55 1.356 . S
H58 C52 0.930 . S
H59 C56 0.930 . S
O60 Li0 1.956 . S
O60 Li1 1.970 . S
O60 Li2 1.961 . S
O60 C4 1.325 . S
O61 Li0 1.970 . S
O61 Li1 1.956 . S
O61 Li3 1.961 . S
O61 C10 1.325 . S
O62 Li0 1.961 . S
O62 Li2 1.956 . S
O62 Li3 1.970 . S
O62 C32 1.325 . S
O63 Li1 1.961 . S
O63 Li2 1.970 . S
O63 Li3 1.956 . S
O63 C38 1.325 . S
H64 C6 0.929 . S
H65 C7 0.930 . S
H66 C8 0.930 . S
H67 C9 0.930 . S
H68 C11 0.930 . S
H69 C13 0.929 . S
H70 C14 0.930 . S
H71 C15 0.930 . S
H72 C18 0.930 . S
H73 C21 0.929 . S
H74 C26 0.929 . S
H75 C27 0.930 . S
H76 C34 0.929 . S
H77 C35 0.930 . S
H78 C36 0.930 . S
H79 C37 0.930 . S
H80 C39 0.929 . S
H81 C40 0.930 . S
H82 C41 0.930 . S
H83 C42 0.930 . S
H84 C46 0.929 . S
H85 C48 0.930 . S
H86 C54 0.929 . S
H87 C55 0.930 . S
Li88 N105 1.990 . S
Li88 O148 1.956 . S
Li88 O149 1.970 . S
Li88 O150 1.961 . S
Li89 N113 1.990 . S
Li89 O148 1.970 . S
Li89 O149 1.956 . S
Li89 O151 1.961 . S
Li90 N135 1.990 . S
Li90 O148 1.961 . S
Li90 O150 1.956 . S
Li90 O151 1.970 . S
Li91 N141 1.990 . S
Li91 O149 1.961 . S
Li91 O150 1.970 . S
Li91 O151 1.956 . S
C92 C94 1.348 . S
C92 C95 1.356 . S
C92 O148 1.325 . S
N93 C96 1.314 . S
N93 C97 1.279 . S
C94 C92 1.348 . S
C94 C96 1.353 . S
C94 H152 0.929 . S
C95 C92 1.356 . S
C95 C97 1.358 . S
C95 H153 0.930 . S
C96 N93 1.314 . S
C96 C94 1.353 . S
C96 H154 0.930 . S
C97 N93 1.279 . S
C97 C95 1.358 . S
C97 H155 0.930 . S
C98 C101 1.348 . S
C98 C102 1.356 . S
C98 O149 1.325 . S
C99 N100 1.279 . S
C99 C102 1.358 . S
C99 H156 0.930 . S
N100 C99 1.279 . S
N100 C103 1.314 . S
C101 C98 1.348 . S
C101 C103 1.353 . S
C101 H157 0.929 . S
C102 C98 1.356 . S
C102 C99 1.358 . S
C102 H158 0.930 . S
C103 N100 1.314 . S
C103 C101 1.353 . S
C103 H159 0.930 . S
C104 N105 1.314 . S
C104 C109 1.353 . S
C104 H110 0.930 . S
N105 Li88 1.990 . S
N105 C104 1.314 . S
N105 C107 1.279 . S
C106 C107 1.358 . S
C106 C108 1.356 . S
C106 H160 0.930 . S
C107 N105 1.279 . S
C107 C106 1.358 . S
C107 H111 0.930 . S
C108 C106 1.356 . S
C108 C109 1.348 . S
C109 C104 1.353 . S
C109 C108 1.348 . S
C109 H161 0.929 . S
H110 C104 0.930 . S
H111 C107 0.930 . S
C112 N113 1.314 . S
C112 C114 1.353 . S
C112 H118 0.930 . S
N113 Li89 1.990 . S
N113 C112 1.314 . S
N113 C116 1.279 . S
C114 C112 1.353 . S
C114 C117 1.348 . S
C114 H162 0.929 . S
C115 C116 1.358 . S
C115 C117 1.356 . S
C115 H163 0.930 . S
C116 N113 1.279 . S
C116 C115 1.358 . S
C116 H119 0.930 . S
C117 C114 1.348 . S
C117 C115 1.356 . S
H118 C112 0.930 . S
H119 C116 0.930 . S
C120 C122 1.348 . S
C120 C123 1.356 . S
C120 O150 1.325 . S
N121 C124 1.314 . S
N121 C125 1.279 . S
C122 C120 1.348 . S
C122 C124 1.353 . S
C122 H164 0.929 . S
C123 C120 1.356 . S
C123 C125 1.358 . S
C123 H165 0.930 . S
C124 N121 1.314 . S
C124 C122 1.353 . S
C124 H166 0.930 . S
C125 N121 1.279 . S
C125 C123 1.358 . S
C125 H167 0.930 . S
C126 C127 1.348 . S
C126 C128 1.356 . S
C126 O151 1.325 . S
C127 C126 1.348 . S
C127 C129 1.353 . S
C127 H168 0.929 . S
C128 C126 1.356 . S
C128 C130 1.358 . S
C128 H169 0.930 . S
C129 C127 1.353 . S
C129 N131 1.314 . S
C129 H170 0.930 . S
C130 C128 1.358 . S
C130 N131 1.279 . S
C130 H171 0.930 . S
N131 C129 1.314 . S
N131 C130 1.279 . S
C132 C134 1.353 . S
C132 N135 1.314 . S
C132 H138 0.930 . S
C133 N135 1.279 . S
C133 C136 1.358 . S
C133 H139 0.930 . S
C134 C132 1.353 . S
C134 C137 1.348 . S
C134 H172 0.929 . S
N135 Li90 1.990 . S
N135 C132 1.314 . S
N135 C133 1.279 . S
C136 C133 1.358 . S
C136 C137 1.356 . S
C136 H173 0.930 . S
C137 C134 1.348 . S
C137 C136 1.356 . S
H138 C132 0.930 . S
H139 C133 0.930 . S
C140 N141 1.314 . S
C140 C142 1.353 . S
C140 H146 0.930 . S
N141 Li91 1.990 . S
N141 C140 1.314 . S
N141 C144 1.279 . S
C142 C140 1.353 . S
C142 C145 1.348 . S
C142 H174 0.929 . S
C143 C144 1.358 . S
C143 C145 1.356 . S
C143 H175 0.930 . S
C144 N141 1.279 . S
C144 C143 1.358 . S
C144 H147 0.930 . S
C145 C142 1.348 . S
C145 C143 1.356 . S
H146 C140 0.930 . S
H147 C144 0.930 . S
O148 Li88 1.956 . S
O148 Li89 1.970 . S
O148 Li90 1.961 . S
O148 C92 1.325 . S
O149 Li88 1.970 . S
O149 Li89 1.956 . S
O149 Li91 1.961 . S
O149 C98 1.325 . S
O150 Li88 1.961 . S
O150 Li90 1.956 . S
O150 Li91 1.970 . S
O150 C120 1.325 . S
O151 Li89 1.961 . S
O151 Li90 1.970 . S
O151 Li91 1.956 . S
O151 C126 1.325 . S
H152 C94 0.929 . S
H153 C95 0.930 . S
H154 C96 0.930 . S
H155 C97 0.930 . S
H156 C99 0.930 . S
H157 C101 0.929 . S
H158 C102 0.930 . S
H159 C103 0.930 . S
H160 C106 0.930 . S
H161 C109 0.929 . S
H162 C114 0.929 . S
H163 C115 0.930 . S
H164 C122 0.929 . S
H165 C123 0.930 . S
H166 C124 0.930 . S
H167 C125 0.930 . S
H168 C127 0.929 . S
H169 C128 0.930 . S
H170 C129 0.930 . S
H171 C130 0.930 . S
H172 C134 0.929 . S
H173 C136 0.930 . S
H174 C142 0.929 . S
H175 C143 0.930 . S
Li176 N193 1.990 . S
Li176 O236 1.956 . S
Li176 O237 1.970 . S
Li176 O238 1.961 . S
Li177 N201 1.990 . S
Li177 O236 1.970 . S
Li177 O237 1.956 . S
Li177 O239 1.961 . S
Li178 N223 1.990 . S
Li178 O236 1.961 . S
Li178 O238 1.956 . S
Li178 O239 1.970 . S
Li179 N229 1.990 . S
Li179 O237 1.961 . S
Li179 O238 1.970 . S
Li179 O239 1.956 . S
C180 C182 1.348 . S
C180 C183 1.356 . S
C180 O236 1.325 . S
N181 C184 1.314 . S
N181 C185 1.279 . S
C182 C180 1.348 . S
C182 C184 1.353 . S
C182 H240 0.929 . S
C183 C180 1.356 . S
C183 C185 1.358 . S
C183 H241 0.930 . S
C184 N181 1.314 . S
C184 C182 1.353 . S
C184 H242 0.930 . S
C185 N181 1.279 . S
C185 C183 1.358 . S
C185 H243 0.930 . S
C186 C189 1.348 . S
C186 C190 1.356 . S
C186 O237 1.325 . S
C187 N188 1.279 . S
C187 C190 1.358 . S
C187 H244 0.930 . S
N188 C187 1.279 . S
N188 C191 1.314 . S
C189 C186 1.348 . S
C189 C191 1.353 . S
C189 H245 0.929 . S
C190 C186 1.356 . S
C190 C187 1.358 . S
C190 H246 0.930 . S
C191 N188 1.314 . S
C191 C189 1.353 . S
C191 H247 0.930 . S
C192 N193 1.314 . S
C192 C197 1.353 . S
C192 H198 0.930 . S
N193 Li176 1.990 . S
N193 C192 1.314 . S
N193 C195 1.279 . S
C194 C195 1.358 . S
C194 C196 1.356 . S
C194 H248 0.930 . S
C195 N193 1.279 . S
C195 C194 1.358 . S
C195 H199 0.930 . S
C196 C194 1.356 . S
C196 C197 1.348 . S
C197 C192 1.353 . S
C197 C196 1.348 . S
C197 H249 0.929 . S
H198 C192 0.930 . S
H199 C195 0.930 . S
C200 N201 1.314 . S
C200 C202 1.353 . S
C200 H206 0.930 . S
N201 Li177 1.990 . S
N201 C200 1.314 . S
N201 C204 1.279 . S
C202 C200 1.353 . S
C202 C205 1.348 . S
C202 H250 0.929 . S
C203 C204 1.358 . S
C203 C205 1.356 . S
C203 H251 0.930 . S
C204 N201 1.279 . S
C204 C203 1.358 . S
C204 H207 0.930 . S
C205 C202 1.348 . S
C205 C203 1.356 . S
H206 C200 0.930 . S
H207 C204 0.930 . S
C208 C210 1.348 . S
C208 C211 1.356 . S
C208 O238 1.325 . S
N209 C212 1.314 . S
N209 C213 1.279 . S
C210 C208 1.348 . S
C210 C212 1.353 . S
C210 H252 0.929 . S
C211 C208 1.356 . S
C211 C213 1.358 . S
C211 H253 0.930 . S
C212 N209 1.314 . S
C212 C210 1.353 . S
C212 H254 0.930 . S
C213 N209 1.279 . S
C213 C211 1.358 . S
C213 H255 0.930 . S
C214 C215 1.348 . S
C214 C216 1.356 . S
C214 O239 1.325 . S
C215 C214 1.348 . S
C215 C217 1.353 . S
C215 H256 0.929 . S
C216 C214 1.356 . S
C216 C218 1.358 . S
C216 H257 0.930 . S
C217 C215 1.353 . S
C217 N219 1.314 . S
C217 H258 0.930 . S
C218 C216 1.358 . S
C218 N219 1.279 . S
C218 H259 0.930 . S
N219 C217 1.314 . S
N219 C218 1.279 . S
C220 C222 1.353 . S
C220 N223 1.314 . S
C220 H226 0.930 . S
C221 N223 1.279 . S
C221 C224 1.358 . S
C221 H227 0.930 . S
C222 C220 1.353 . S
C222 C225 1.348 . S
C222 H260 0.929 . S
N223 Li178 1.990 . S
N223 C220 1.314 . S
N223 C221 1.279 . S
C224 C221 1.358 . S
C224 C225 1.356 . S
C224 H261 0.930 . S
C225 C222 1.348 . S
C225 C224 1.356 . S
H226 C220 0.930 . S
H227 C221 0.930 . S
C228 N229 1.314 . S
C228 C230 1.353 . S
C228 H234 0.930 . S
N229 Li179 1.990 . S
N229 C228 1.314 . S
N229 C232 1.279 . S
C230 C228 1.353 . S
C230 C233 1.348 . S
C230 H262 0.929 . S
C231 C232 1.358 . S
C231 C233 1.356 . S
C231 H263 0.930 . S
C232 N229 1.279 . S
C232 C231 1.358 . S
C232 H235 0.930 . S
C233 C230 1.348 . S
C233 C231 1.356 . S
H234 C228 0.930 . S
H235 C232 0.930 . S
O236 Li176 1.956 . S
O236 Li177 1.970 . S
O236 Li178 1.961 . S
O236 C180 1.325 . S
O237 Li176 1.970 . S
O237 Li177 1.956 . S
O237 Li179 1.961 . S
O237 C186 1.325 . S
O238 Li176 1.961 . S
O238 Li178 1.956 . S
O238 Li179 1.970 . S
O238 C208 1.325 . S
O239 Li177 1.961 . S
O239 Li178 1.970 . S
O239 Li179 1.956 . S
O239 C214 1.325 . S
H240 C182 0.929 . S
H241 C183 0.930 . S
H242 C184 0.930 . S
H243 C185 0.930 . S
H244 C187 0.930 . S
H245 C189 0.929 . S
H246 C190 0.930 . S
H247 C191 0.930 . S
H248 C194 0.930 . S
H249 C197 0.929 . S
H250 C202 0.929 . S
H251 C203 0.930 . S
H252 C210 0.929 . S
H253 C211 0.930 . S
H254 C212 0.930 . S
H255 C213 0.930 . S
H256 C215 0.929 . S
H257 C216 0.930 . S
H258 C217 0.930 . S
H259 C218 0.930 . S
H260 C222 0.929 . S
H261 C224 0.930 . S
H262 C230 0.929 . S
H263 C231 0.930 . S
Li264 N281 1.990 . S
Li264 O324 1.956 . S
Li264 O325 1.970 . S
Li264 O326 1.961 . S
Li265 N289 1.990 . S
Li265 O324 1.970 . S
Li265 O325 1.956 . S
Li265 O327 1.961 . S
Li266 N311 1.990 . S
Li266 O324 1.961 . S
Li266 O326 1.956 . S
Li266 O327 1.970 . S
Li267 N317 1.990 . S
Li267 O325 1.961 . S
Li267 O326 1.970 . S
Li267 O327 1.956 . S
C268 C270 1.348 . S
C268 C271 1.356 . S
C268 O324 1.325 . S
N269 C272 1.314 . S
N269 C273 1.279 . S
C270 C268 1.348 . S
C270 C272 1.353 . S
C270 H328 0.929 . S
C271 C268 1.356 . S
C271 C273 1.358 . S
C271 H329 0.930 . S
C272 N269 1.314 . S
C272 C270 1.353 . S
C272 H330 0.930 . S
C273 N269 1.279 . S
C273 C271 1.358 . S
C273 H331 0.930 . S
C274 C277 1.348 . S
C274 C278 1.356 . S
C274 O325 1.325 . S
C275 N276 1.279 . S
C275 C278 1.358 . S
C275 H332 0.930 . S
N276 C275 1.279 . S
N276 C279 1.314 . S
C277 C274 1.348 . S
C277 C279 1.353 . S
C277 H333 0.929 . S
C278 C274 1.356 . S
C278 C275 1.358 . S
C278 H334 0.930 . S
C279 N276 1.314 . S
C279 C277 1.353 . S
C279 H335 0.930 . S
C280 N281 1.314 . S
C280 C285 1.353 . S
C280 H286 0.930 . S
N281 Li264 1.990 . S
N281 C280 1.314 . S
N281 C283 1.279 . S
C282 C283 1.358 . S
C282 C284 1.356 . S
C282 H336 0.930 . S
C283 N281 1.279 . S
C283 C282 1.358 . S
C283 H287 0.930 . S
C284 C282 1.356 . S
C284 C285 1.348 . S
C285 C280 1.353 . S
C285 C284 1.348 . S
C285 H337 0.929 . S
H286 C280 0.930 . S
H287 C283 0.930 . S
C288 N289 1.314 . S
C288 C290 1.353 . S
C288 H294 0.930 . S
N289 Li265 1.990 . S
N289 C288 1.314 . S
N289 C292 1.279 . S
C290 C288 1.353 . S
C290 C293 1.348 . S
C290 H338 0.929 . S
C291 C292 1.358 . S
C291 C293 1.356 . S
C291 H339 0.930 . S
C292 N289 1.279 . S
C292 C291 1.358 . S
C292 H295 0.930 . S
C293 C290 1.348 . S
C293 C291 1.356 . S
H294 C288 0.930 . S
H295 C292 0.930 . S
C296 C298 1.348 . S
C296 C299 1.356 . S
C296 O326 1.325 . S
N297 C300 1.314 . S
N297 C301 1.279 . S
C298 C296 1.348 . S
C298 C300 1.353 . S
C298 H340 0.929 . S
C299 C296 1.356 . S
C299 C301 1.358 . S
C299 H341 0.930 . S
C300 N297 1.314 . S
C300 C298 1.353 . S
C300 H342 0.930 . S
C301 N297 1.279 . S
C301 C299 1.358 . S
C301 H343 0.930 . S
C302 C303 1.348 . S
C302 C304 1.356 . S
C302 O327 1.325 . S
C303 C302 1.348 . S
C303 C305 1.353 . S
C303 H344 0.929 . S
C304 C302 1.356 . S
C304 C306 1.358 . S
C304 H345 0.930 . S
C305 C303 1.353 . S
C305 N307 1.314 . S
C305 H346 0.930 . S
C306 C304 1.358 . S
C306 N307 1.279 . S
C306 H347 0.930 . S
N307 C305 1.314 . S
N307 C306 1.279 . S
C308 C310 1.353 . S
C308 N311 1.314 . S
C308 H314 0.930 . S
C309 N311 1.279 . S
C309 C312 1.358 . S
C309 H315 0.930 . S
C310 C308 1.353 . S
C310 C313 1.348 . S
C310 H348 0.929 . S
N311 Li266 1.990 . S
N311 C308 1.314 . S
N311 C309 1.279 . S
C312 C309 1.358 . S
C312 C313 1.356 . S
C312 H349 0.930 . S
C313 C310 1.348 . S
C313 C312 1.356 . S
H314 C308 0.930 . S
H315 C309 0.930 . S
C316 N317 1.314 . S
C316 C318 1.353 . S
C316 H322 0.930 . S
N317 Li267 1.990 . S
N317 C316 1.314 . S
N317 C320 1.279 . S
C318 C316 1.353 . S
C318 C321 1.348 . S
C318 H350 0.929 . S
C319 C320 1.358 . S
C319 C321 1.356 . S
C319 H351 0.930 . S
C320 N317 1.279 . S
C320 C319 1.358 . S
C320 H323 0.930 . S
C321 C318 1.348 . S
C321 C319 1.356 . S
H322 C316 0.930 . S
H323 C320 0.930 . S
O324 Li264 1.956 . S
O324 Li265 1.970 . S
O324 Li266 1.961 . S
O324 C268 1.325 . S
O325 Li264 1.970 . S
O325 Li265 1.956 . S
O325 Li267 1.961 . S
O325 C274 1.325 . S
O326 Li264 1.961 . S
O326 Li266 1.956 . S
O326 Li267 1.970 . S
O326 C296 1.325 . S
O327 Li265 1.961 . S
O327 Li266 1.970 . S
O327 Li267 1.956 . S
O327 C302 1.325 . S
H328 C270 0.929 . S
H329 C271 0.930 . S
H330 C272 0.930 . S
H331 C273 0.930 . S
H332 C275 0.930 . S
H333 C277 0.929 . S
H334 C278 0.930 . S
H335 C279 0.930 . S
H336 C282 0.930 . S
H337 C285 0.929 . S
H338 C290 0.929 . S
H339 C291 0.930 . S
H340 C298 0.929 . S
H341 C299 0.930 . S
H342 C300 0.930 . S
H343 C301 0.930 . S
H344 C303 0.929 . S
H345 C304 0.930 . S
H346 C305 0.930 . S
H347 C306 0.930 . S
H348 C310 0.929 . S
H349 C312 0.930 . S
H350 C318 0.929 . S
H351 C319 0.930 . S
Li352 N369 1.990 . S
Li352 O412 1.956 . S
Li352 O413 1.970 . S
Li352 O414 1.961 . S
Li353 N377 1.990 . S
Li353 O412 1.970 . S
Li353 O413 1.956 . S
Li353 O415 1.961 . S
Li354 N399 1.990 . S
Li354 O412 1.961 . S
Li354 O414 1.956 . S
Li354 O415 1.970 . S
Li355 N405 1.990 . S
Li355 O413 1.961 . S
Li355 O414 1.970 . S
Li355 O415 1.956 . S
C356 C358 1.348 . S
C356 C359 1.356 . S
C356 O412 1.325 . S
N357 C360 1.314 . S
N357 C361 1.279 . S
C358 C356 1.348 . S
C358 C360 1.353 . S
C358 H416 0.929 . S
C359 C356 1.356 . S
C359 C361 1.358 . S
C359 H417 0.930 . S
C360 N357 1.314 . S
C360 C358 1.353 . S
C360 H418 0.930 . S
C361 N357 1.279 . S
C361 C359 1.358 . S
C361 H419 0.930 . S
C362 C365 1.348 . S
C362 C366 1.356 . S
C362 O413 1.325 . S
C363 N364 1.279 . S
C363 C366 1.358 . S
C363 H420 0.930 . S
N364 C363 1.279 . S
N364 C367 1.314 . S
C365 C362 1.348 . S
C365 C367 1.353 . S
C365 H421 0.929 . S
C366 C362 1.356 . S
C366 C363 1.358 . S
C366 H422 0.930 . S
C367 N364 1.314 . S
C367 C365 1.353 . S
C367 H423 0.930 . S
C368 N369 1.314 . S
C368 C373 1.353 . S
C368 H374 0.930 . S
N369 Li352 1.990 . S
N369 C368 1.314 . S
N369 C371 1.279 . S
C370 C371 1.358 . S
C370 C372 1.356 . S
C370 H424 0.930 . S
C371 N369 1.279 . S
C371 C370 1.358 . S
C371 H375 0.930 . S
C372 C370 1.356 . S
C372 C373 1.348 . S
C373 C368 1.353 . S
C373 C372 1.348 . S
C373 H425 0.929 . S
H374 C368 0.930 . S
H375 C371 0.930 . S
C376 N377 1.314 . S
C376 C378 1.353 . S
C376 H382 0.930 . S
N377 Li353 1.990 . S
N377 C376 1.314 . S
N377 C380 1.279 . S
C378 C376 1.353 . S
C378 C381 1.348 . S
C378 H426 0.929 . S
C379 C380 1.358 . S
C379 C381 1.356 . S
C379 H427 0.930 . S
C380 N377 1.279 . S
C380 C379 1.358 . S
C380 H383 0.930 . S
C381 C378 1.348 . S
C381 C379 1.356 . S
H382 C376 0.930 . S
H383 C380 0.930 . S
C384 C386 1.348 . S
C384 C387 1.356 . S
C384 O414 1.325 . S
N385 C388 1.314 . S
N385 C389 1.279 . S
C386 C384 1.348 . S
C386 C388 1.353 . S
C386 H428 0.929 . S
C387 C384 1.356 . S
C387 C389 1.358 . S
C387 H429 0.930 . S
C388 N385 1.314 . S
C388 C386 1.353 . S
C388 H430 0.930 . S
C389 N385 1.279 . S
C389 C387 1.358 . S
C389 H431 0.930 . S
C390 C391 1.348 . S
C390 C392 1.356 . S
C390 O415 1.325 . S
C391 C390 1.348 . S
C391 C393 1.353 . S
C391 H432 0.929 . S
C392 C390 1.356 . S
C392 C394 1.358 . S
C392 H433 0.930 . S
C393 C391 1.353 . S
C393 N395 1.314 . S
C393 H434 0.930 . S
C394 C392 1.358 . S
C394 N395 1.279 . S
C394 H435 0.930 . S
N395 C393 1.314 . S
N395 C394 1.279 . S
C396 C398 1.353 . S
C396 N399 1.314 . S
C396 H402 0.930 . S
C397 N399 1.279 . S
C397 C400 1.358 . S
C397 H403 0.930 . S
C398 C396 1.353 . S
C398 C401 1.348 . S
C398 H436 0.929 . S
N399 Li354 1.990 . S
N399 C396 1.314 . S
N399 C397 1.279 . S
C400 C397 1.358 . S
C400 C401 1.356 . S
C400 H437 0.930 . S
C401 C398 1.348 . S
C401 C400 1.356 . S
H402 C396 0.930 . S
H403 C397 0.930 . S
C404 N405 1.314 . S
C404 C406 1.353 . S
C404 H410 0.930 . S
N405 Li355 1.990 . S
N405 C404 1.314 . S
N405 C408 1.279 . S
C406 C404 1.353 . S
C406 C409 1.348 . S
C406 H438 0.929 . S
C407 C408 1.358 . S
C407 C409 1.356 . S
C407 H439 0.930 . S
C408 N405 1.279 . S
C408 C407 1.358 . S
C408 H411 0.930 . S
C409 C406 1.348 . S
C409 C407 1.356 . S
H410 C404 0.930 . S
H411 C408 0.930 . S
O412 Li352 1.956 . S
O412 Li353 1.970 . S
O412 Li354 1.961 . S
O412 C356 1.325 . S
O413 Li352 1.970 . S
O413 Li353 1.956 . S
O413 Li355 1.961 . S
O413 C362 1.325 . S
O414 Li352 1.961 . S
O414 Li354 1.956 . S
O414 Li355 1.970 . S
O414 C384 1.325 . S
O415 Li353 1.961 . S
O415 Li354 1.970 . S
O415 Li355 1.956 . S
O415 C390 1.325 . S
H416 C358 0.929 . S
H417 C359 0.930 . S
H418 C360 0.930 . S
H419 C361 0.930 . S
H420 C363 0.930 . S
H421 C365 0.929 . S
H422 C366 0.930 . S
H423 C367 0.930 . S
H424 C370 0.930 . S
H425 C373 0.929 . S
H426 C378 0.929 . S
H427 C379 0.930 . S
H428 C386 0.929 . S
H429 C387 0.930 . S
H430 C388 0.930 . S
H431 C389 0.930 . S
H432 C391 0.929 . S
H433 C392 0.930 . S
H434 C393 0.930 . S
H435 C394 0.930 . S
H436 C398 0.929 . S
H437 C400 0.930 . S
H438 C406 0.929 . S
H439 C407 0.930 . S
Li440 N457 1.990 . S
Li440 O500 1.956 . S
Li440 O501 1.970 . S
Li440 O502 1.961 . S
Li441 N465 1.990 . S
Li441 O500 1.970 . S
Li441 O501 1.956 . S
Li441 O503 1.961 . S
Li442 N487 1.990 . S
Li442 O500 1.961 . S
Li442 O502 1.956 . S
Li442 O503 1.970 . S
Li443 N493 1.990 . S
Li443 O501 1.961 . S
Li443 O502 1.970 . S
Li443 O503 1.956 . S
C444 C446 1.348 . S
C444 C447 1.356 . S
C444 O500 1.325 . S
N445 C448 1.314 . S
N445 C449 1.279 . S
C446 C444 1.348 . S
C446 C448 1.353 . S
C446 H504 0.929 . S
C447 C444 1.356 . S
C447 C449 1.358 . S
C447 H505 0.930 . S
C448 N445 1.314 . S
C448 C446 1.353 . S
C448 H506 0.930 . S
C449 N445 1.279 . S
C449 C447 1.358 . S
C449 H507 0.930 . S
C450 C453 1.348 . S
C450 C454 1.356 . S
C450 O501 1.325 . S
C451 N452 1.279 . S
C451 C454 1.358 . S
C451 H508 0.930 . S
N452 C451 1.279 . S
N452 C455 1.314 . S
C453 C450 1.348 . S
C453 C455 1.353 . S
C453 H509 0.929 . S
C454 C450 1.356 . S
C454 C451 1.358 . S
C454 H510 0.930 . S
C455 N452 1.314 . S
C455 C453 1.353 . S
C455 H511 0.930 . S
C456 N457 1.314 . S
C456 C461 1.353 . S
C456 H462 0.930 . S
N457 Li440 1.990 . S
N457 C456 1.314 . S
N457 C459 1.279 . S
C458 C459 1.358 . S
C458 C460 1.356 . S
C458 H512 0.930 . S
C459 N457 1.279 . S
C459 C458 1.358 . S
C459 H463 0.930 . S
C460 C458 1.356 . S
C460 C461 1.348 . S
C461 C456 1.353 . S
C461 C460 1.348 . S
C461 H513 0.929 . S
H462 C456 0.930 . S
H463 C459 0.930 . S
C464 N465 1.314 . S
C464 C466 1.353 . S
C464 H470 0.930 . S
N465 Li441 1.990 . S
N465 C464 1.314 . S
N465 C468 1.279 . S
C466 C464 1.353 . S
C466 C469 1.348 . S
C466 H514 0.929 . S
C467 C468 1.358 . S
C467 C469 1.356 . S
C467 H515 0.930 . S
C468 N465 1.279 . S
C468 C467 1.358 . S
C468 H471 0.930 . S
C469 C466 1.348 . S
C469 C467 1.356 . S
H470 C464 0.930 . S
H471 C468 0.930 . S
C472 C474 1.348 . S
C472 C475 1.356 . S
C472 O502 1.325 . S
N473 C476 1.314 . S
N473 C477 1.279 . S
C474 C472 1.348 . S
C474 C476 1.353 . S
C474 H516 0.929 . S
C475 C472 1.356 . S
C475 C477 1.358 . S
C475 H517 0.930 . S
C476 N473 1.314 . S
C476 C474 1.353 . S
C476 H518 0.930 . S
C477 N473 1.279 . S
C477 C475 1.358 . S
C477 H519 0.930 . S
C478 C479 1.348 . S
C478 C480 1.356 . S
C478 O503 1.325 . S
C479 C478 1.348 . S
C479 C481 1.353 . S
C479 H520 0.929 . S
C480 C478 1.356 . S
C480 C482 1.358 . S
C480 H521 0.930 . S
C481 C479 1.353 . S
C481 N483 1.314 . S
C481 H522 0.930 . S
C482 C480 1.358 . S
C482 N483 1.279 . S
C482 H523 0.930 . S
N483 C481 1.314 . S
N483 C482 1.279 . S
C484 C486 1.353 . S
C484 N487 1.314 . S
C484 H490 0.930 . S
C485 N487 1.279 . S
C485 C488 1.358 . S
C485 H491 0.930 . S
C486 C484 1.353 . S
C486 C489 1.348 . S
C486 H524 0.929 . S
N487 Li442 1.990 . S
N487 C484 1.314 . S
N487 C485 1.279 . S
C488 C485 1.358 . S
C488 C489 1.356 . S
C488 H525 0.930 . S
C489 C486 1.348 . S
C489 C488 1.356 . S
H490 C484 0.930 . S
H491 C485 0.930 . S
C492 N493 1.314 . S
C492 C494 1.353 . S
C492 H498 0.930 . S
N493 Li443 1.990 . S
N493 C492 1.314 . S
N493 C496 1.279 . S
C494 C492 1.353 . S
C494 C497 1.348 . S
C494 H526 0.929 . S
C495 C496 1.358 . S
C495 C497 1.356 . S
C495 H527 0.930 . S
C496 N493 1.279 . S
C496 C495 1.358 . S
C496 H499 0.930 . S
C497 C494 1.348 . S
C497 C495 1.356 . S
H498 C492 0.930 . S
H499 C496 0.930 . S
O500 Li440 1.956 . S
O500 Li441 1.970 . S
O500 Li442 1.961 . S
O500 C444 1.325 . S
O501 Li440 1.970 . S
O501 Li441 1.956 . S
O501 Li443 1.961 . S
O501 C450 1.325 . S
O502 Li440 1.961 . S
O502 Li442 1.956 . S
O502 Li443 1.970 . S
O502 C472 1.325 . S
O503 Li441 1.961 . S
O503 Li442 1.970 . S
O503 Li443 1.956 . S
O503 C478 1.325 . S
H504 C446 0.929 . S
H505 C447 0.930 . S
H506 C448 0.930 . S
H507 C449 0.930 . S
H508 C451 0.930 . S
H509 C453 0.929 . S
H510 C454 0.930 . S
H511 C455 0.930 . S
H512 C458 0.930 . S
H513 C461 0.929 . S
H514 C466 0.929 . S
H515 C467 0.930 . S
H516 C474 0.929 . S
H517 C475 0.930 . S
H518 C476 0.930 . S
H519 C477 0.930 . S
H520 C479 0.929 . S
H521 C480 0.930 . S
H522 C481 0.930 . S
H523 C482 0.930 . S
H524 C486 0.929 . S
H525 C488 0.930 . S
H526 C494 0.929 . S
H527 C495 0.930 . S
Li528 N545 1.990 . S
Li528 O588 1.956 . S
Li528 O589 1.970 . S
Li528 O590 1.961 . S
Li529 N553 1.990 . S
Li529 O588 1.970 . S
Li529 O589 1.956 . S
Li529 O591 1.961 . S
Li530 N575 1.990 . S
Li530 O588 1.961 . S
Li530 O590 1.956 . S
Li530 O591 1.970 . S
Li531 N581 1.990 . S
Li531 O589 1.961 . S
Li531 O590 1.970 . S
Li531 O591 1.956 . S
C532 C534 1.348 . S
C532 C535 1.356 . S
C532 O588 1.325 . S
N533 C536 1.314 . S
N533 C537 1.279 . S
C534 C532 1.348 . S
C534 C536 1.353 . S
C534 H592 0.929 . S
C535 C532 1.356 . S
C535 C537 1.358 . S
C535 H593 0.930 . S
C536 N533 1.314 . S
C536 C534 1.353 . S
C536 H594 0.930 . S
C537 N533 1.279 . S
C537 C535 1.358 . S
C537 H595 0.930 . S
C538 C541 1.348 . S
C538 C542 1.356 . S
C538 O589 1.325 . S
C539 N540 1.279 . S
C539 C542 1.358 . S
C539 H596 0.930 . S
N540 C539 1.279 . S
N540 C543 1.314 . S
C541 C538 1.348 . S
C541 C543 1.353 . S
C541 H597 0.929 . S
C542 C538 1.356 . S
C542 C539 1.358 . S
C542 H598 0.930 . S
C543 N540 1.314 . S
C543 C541 1.353 . S
C543 H599 0.930 . S
C544 N545 1.314 . S
C544 C549 1.353 . S
C544 H550 0.930 . S
N545 Li528 1.990 . S
N545 C544 1.314 . S
N545 C547 1.279 . S
C546 C547 1.358 . S
C546 C548 1.356 . S
C546 H600 0.930 . S
C547 N545 1.279 . S
C547 C546 1.358 . S
C547 H551 0.930 . S
C548 C546 1.356 . S
C548 C549 1.348 . S
C549 C544 1.353 . S
C549 C548 1.348 . S
C549 H601 0.929 . S
H550 C544 0.930 . S
H551 C547 0.930 . S
C552 N553 1.314 . S
C552 C554 1.353 . S
C552 H558 0.930 . S
N553 Li529 1.990 . S
N553 C552 1.314 . S
N553 C556 1.279 . S
C554 C552 1.353 . S
C554 C557 1.348 . S
C554 H602 0.929 . S
C555 C556 1.358 . S
C555 C557 1.356 . S
C555 H603 0.930 . S
C556 N553 1.279 . S
C556 C555 1.358 . S
C556 H559 0.930 . S
C557 C554 1.348 . S
C557 C555 1.356 . S
H558 C552 0.930 . S
H559 C556 0.930 . S
C560 C562 1.348 . S
C560 C563 1.356 . S
C560 O590 1.325 . S
N561 C564 1.314 . S
N561 C565 1.279 . S
C562 C560 1.348 . S
C562 C564 1.353 . S
C562 H604 0.929 . S
C563 C560 1.356 . S
C563 C565 1.358 . S
C563 H605 0.930 . S
C564 N561 1.314 . S
C564 C562 1.353 . S
C564 H606 0.930 . S
C565 N561 1.279 . S
C565 C563 1.358 . S
C565 H607 0.930 . S
C566 C567 1.348 . S
C566 C568 1.356 . S
C566 O591 1.325 . S
C567 C566 1.348 . S
C567 C569 1.353 . S
C567 H608 0.929 . S
C568 C566 1.356 . S
C568 C570 1.358 . S
C568 H609 0.930 . S
C569 C567 1.353 . S
C569 N571 1.314 . S
C569 H610 0.930 . S
C570 C568 1.358 . S
C570 N571 1.279 . S
C570 H611 0.930 . S
N571 C569 1.314 . S
N571 C570 1.279 . S
C572 C574 1.353 . S
C572 N575 1.314 . S
C572 H578 0.930 . S
C573 N575 1.279 . S
C573 C576 1.358 . S
C573 H579 0.930 . S
C574 C572 1.353 . S
C574 C577 1.348 . S
C574 H612 0.929 . S
N575 Li530 1.990 . S
N575 C572 1.314 . S
N575 C573 1.279 . S
C576 C573 1.358 . S
C576 C577 1.356 . S
C576 H613 0.930 . S
C577 C574 1.348 . S
C577 C576 1.356 . S
H578 C572 0.930 . S
H579 C573 0.930 . S
C580 N581 1.314 . S
C580 C582 1.353 . S
C580 H586 0.930 . S
N581 Li531 1.990 . S
N581 C580 1.314 . S
N581 C584 1.279 . S
C582 C580 1.353 . S
C582 C585 1.348 . S
C582 H614 0.929 . S
C583 C584 1.358 . S
C583 C585 1.356 . S
C583 H615 0.930 . S
C584 N581 1.279 . S
C584 C583 1.358 . S
C584 H587 0.930 . S
C585 C582 1.348 . S
C585 C583 1.356 . S
H586 C580 0.930 . S
H587 C584 0.930 . S
O588 Li528 1.956 . S
O588 Li529 1.970 . S
O588 Li530 1.961 . S
O588 C532 1.325 . S
O589 Li528 1.970 . S
O589 Li529 1.956 . S
O589 Li531 1.961 . S
O589 C538 1.325 . S
O590 Li528 1.961 . S
O590 Li530 1.956 . S
O590 Li531 1.970 . S
O590 C560 1.325 . S
O591 Li529 1.961 . S
O591 Li530 1.970 . S
O591 Li531 1.956 . S
O591 C566 1.325 . S
H592 C534 0.929 . S
H593 C535 0.930 . S
H594 C536 0.930 . S
H595 C537 0.930 . S
H596 C539 0.930 . S
H597 C541 0.929 . S
H598 C542 0.930 . S
H599 C543 0.930 . S
H600 C546 0.930 . S
H601 C549 0.929 . S
H602 C554 0.929 . S
H603 C555 0.930 . S
H604 C562 0.929 . S
H605 C563 0.930 . S
H606 C564 0.930 . S
H607 C565 0.930 . S
H608 C567 0.929 . S
H609 C568 0.930 . S
H610 C569 0.930 . S
H611 C570 0.930 . S
H612 C574 0.929 . S
H613 C576 0.930 . S
H614 C582 0.929 . S
H615 C583 0.930 . S
Li616 N633 1.990 . S
Li616 O676 1.956 . S
Li616 O677 1.970 . S
Li616 O678 1.961 . S
Li617 N641 1.990 . S
Li617 O676 1.970 . S
Li617 O677 1.956 . S
Li617 O679 1.961 . S
Li618 N663 1.990 . S
Li618 O676 1.961 . S
Li618 O678 1.956 . S
Li618 O679 1.970 . S
Li619 N669 1.990 . S
Li619 O677 1.961 . S
Li619 O678 1.970 . S
Li619 O679 1.956 . S
C620 C622 1.348 . S
C620 C623 1.356 . S
C620 O676 1.325 . S
N621 C624 1.314 . S
N621 C625 1.279 . S
C622 C620 1.348 . S
C622 C624 1.353 . S
C622 H680 0.929 . S
C623 C620 1.356 . S
C623 C625 1.358 . S
C623 H681 0.930 . S
C624 N621 1.314 . S
C624 C622 1.353 . S
C624 H682 0.930 . S
C625 N621 1.279 . S
C625 C623 1.358 . S
C625 H683 0.930 . S
C626 C629 1.348 . S
C626 C630 1.356 . S
C626 O677 1.325 . S
C627 N628 1.279 . S
C627 C630 1.358 . S
C627 H684 0.930 . S
N628 C627 1.279 . S
N628 C631 1.314 . S
C629 C626 1.348 . S
C629 C631 1.353 . S
C629 H685 0.929 . S
C630 C626 1.356 . S
C630 C627 1.358 . S
C630 H686 0.930 . S
C631 N628 1.314 . S
C631 C629 1.353 . S
C631 H687 0.930 . S
C632 N633 1.314 . S
C632 C637 1.353 . S
C632 H638 0.930 . S
N633 Li616 1.990 . S
N633 C632 1.314 . S
N633 C635 1.279 . S
C634 C635 1.358 . S
C634 C636 1.356 . S
C634 H688 0.930 . S
C635 N633 1.279 . S
C635 C634 1.358 . S
C635 H639 0.930 . S
C636 C634 1.356 . S
C636 C637 1.348 . S
C637 C632 1.353 . S
C637 C636 1.348 . S
C637 H689 0.929 . S
H638 C632 0.930 . S
H639 C635 0.930 . S
C640 N641 1.314 . S
C640 C642 1.353 . S
C640 H646 0.930 . S
N641 Li617 1.990 . S
N641 C640 1.314 . S
N641 C644 1.279 . S
C642 C640 1.353 . S
C642 C645 1.348 . S
C642 H690 0.929 . S
C643 C644 1.358 . S
C643 C645 1.356 . S
C643 H691 0.930 . S
C644 N641 1.279 . S
C644 C643 1.358 . S
C644 H647 0.930 . S
C645 C642 1.348 . S
C645 C643 1.356 . S
H646 C640 0.930 . S
H647 C644 0.930 . S
C648 C650 1.348 . S
C648 C651 1.356 . S
C648 O678 1.325 . S
N649 C652 1.314 . S
N649 C653 1.279 . S
C650 C648 1.348 . S
C650 C652 1.353 . S
C650 H692 0.929 . S
C651 C648 1.356 . S
C651 C653 1.358 . S
C651 H693 0.930 . S
C652 N649 1.314 . S
C652 C650 1.353 . S
C652 H694 0.930 . S
C653 N649 1.279 . S
C653 C651 1.358 . S
C653 H695 0.930 . S
C654 C655 1.348 . S
C654 C656 1.356 . S
C654 O679 1.325 . S
C655 C654 1.348 . S
C655 C657 1.353 . S
C655 H696 0.929 . S
C656 C654 1.356 . S
C656 C658 1.358 . S
C656 H697 0.930 . S
C657 C655 1.353 . S
C657 N659 1.314 . S
C657 H698 0.930 . S
C658 C656 1.358 . S
C658 N659 1.279 . S
C658 H699 0.930 . S
N659 C657 1.314 . S
N659 C658 1.279 . S
C660 C662 1.353 . S
C660 N663 1.314 . S
C660 H666 0.930 . S
C661 N663 1.279 . S
C661 C664 1.358 . S
C661 H667 0.930 . S
C662 C660 1.353 . S
C662 C665 1.348 . S
C662 H700 0.929 . S
N663 Li618 1.990 . S
N663 C660 1.314 . S
N663 C661 1.279 . S
C664 C661 1.358 . S
C664 C665 1.356 . S
C664 H701 0.930 . S
C665 C662 1.348 . S
C665 C664 1.356 . S
H666 C660 0.930 . S
H667 C661 0.930 . S
C668 N669 1.314 . S
C668 C670 1.353 . S
C668 H674 0.930 . S
N669 Li619 1.990 . S
N669 C668 1.314 . S
N669 C672 1.279 . S
C670 C668 1.353 . S
C670 C673 1.348 . S
C670 H702 0.929 . S
C671 C672 1.358 . S
C671 C673 1.356 . S
C671 H703 0.930 . S
C672 N669 1.279 . S
C672 C671 1.358 . S
C672 H675 0.930 . S
C673 C670 1.348 . S
C673 C671 1.356 . S
H674 C668 0.930 . S
H675 C672 0.930 . S
O676 Li616 1.956 . S
O676 Li617 1.970 . S
O676 Li618 1.961 . S
O676 C620 1.325 . S
O677 Li616 1.970 . S
O677 Li617 1.956 . S
O677 Li619 1.961 . S
O677 C626 1.325 . S
O678 Li616 1.961 . S
O678 Li618 1.956 . S
O678 Li619 1.970 . S
O678 C648 1.325 . S
O679 Li617 1.961 . S
O679 Li618 1.970 . S
O679 Li619 1.956 . S
O679 C654 1.325 . S
H680 C622 0.929 . S
H681 C623 0.930 . S
H682 C624 0.930 . S
H683 C625 0.930 . S
H684 C627 0.930 . S
H685 C629 0.929 . S
H686 C630 0.930 . S
H687 C631 0.930 . S
H688 C634 0.930 . S
H689 C637 0.929 . S
H690 C642 0.929 . S
H691 C643 0.930 . S
H692 C650 0.929 . S
H693 C651 0.930 . S
H694 C652 0.930 . S
H695 C653 0.930 . S
H696 C655 0.929 . S
H697 C656 0.930 . S
H698 C657 0.930 . S
H699 C658 0.930 . S
H700 C662 0.929 . S
H701 C664 0.930 . S
H702 C670 0.929 . S
H703 C671 0.930 . S
Li704 N721 1.990 1_565 S
Li704 O764 1.956 . S
Li704 O765 1.970 . S
Li704 O766 1.961 . S
Li705 N729 1.990 . S
Li705 O764 1.970 . S
Li705 O765 1.956 . S
Li705 O767 1.961 . S
Li706 N751 1.990 . S
Li706 O764 1.961 . S
Li706 O766 1.956 . S
Li706 O767 1.970 . S
Li707 N757 1.990 . S
Li707 O765 1.961 . S
Li707 O766 1.970 . S
Li707 O767 1.956 . S
C708 C710 1.348 . S
C708 C711 1.356 . S
C708 O764 1.325 . S
N709 C712 1.314 . S
N709 C713 1.280 1_545 S
C710 C708 1.348 . S
C710 C712 1.353 1_565 S
C710 H768 0.929 . S
C711 C708 1.356 . S
C711 C713 1.358 . S
C711 H769 0.930 . S
C712 N709 1.314 . S
C712 C710 1.353 1_545 S
C712 H770 0.930 . S
C713 N709 1.280 1_565 S
C713 C711 1.358 . S
C713 H771 0.930 1_565 S
C714 C717 1.348 . S
C714 C718 1.356 . S
C714 O765 1.325 . S
C715 N716 1.279 . S
C715 C718 1.358 . S
C715 H772 0.930 . S
N716 C715 1.279 . S
N716 C719 1.314 1_565 S
C717 C714 1.348 . S
C717 C719 1.353 1_565 S
C717 H773 0.929 1_565 S
C718 C714 1.356 . S
C718 C715 1.358 . S
C718 H774 0.930 . S
C719 N716 1.314 1_545 S
C719 C717 1.353 1_545 S
C719 H775 0.930 . S
C720 N721 1.314 . S
C720 C725 1.353 . S
C720 H726 0.930 1_545 S
N721 Li704 1.990 1_545 S
N721 C720 1.314 . S
N721 C723 1.279 . S
C722 C723 1.358 . S
C722 C724 1.356 . S
C722 H776 0.930 . S
C723 N721 1.279 . S
C723 C722 1.358 . S
C723 H727 0.930 . S
C724 C722 1.356 . S
C724 C725 1.348 . S
C725 C720 1.353 . S
C725 C724 1.348 . S
C725 H777 0.929 . S
H726 C720 0.930 1_565 S
H727 C723 0.930 . S
C728 N729 1.314 . S
C728 C730 1.353 . S
C728 H734 0.930 . S
N729 Li705 1.990 . S
N729 C728 1.314 . S
N729 C732 1.279 . S
C730 C728 1.353 . S
C730 C733 1.348 . S
C730 H778 0.929 . S
C731 C732 1.358 . S
C731 C733 1.356 . S
C731 H779 0.930 . S
C732 N729 1.279 . S
C732 C731 1.358 . S
C732 H735 0.930 . S
C733 C730 1.348 . S
C733 C731 1.356 . S
H734 C728 0.930 . S
H735 C732 0.930 . S
C736 C738 1.348 . S
C736 C739 1.356 . S
C736 O766 1.325 . S
N737 C740 1.314 . S
N737 C741 1.279 . S
C738 C736 1.348 . S
C738 C740 1.353 . S
C738 H780 0.929 . S
C739 C736 1.356 . S
C739 C741 1.358 . S
C739 H781 0.930 . S
C740 N737 1.314 . S
C740 C738 1.353 . S
C740 H782 0.930 . S
C741 N737 1.279 . S
C741 C739 1.358 . S
C741 H783 0.930 . S
C742 C743 1.348 . S
C742 C744 1.356 . S
C742 O767 1.325 . S
C743 C742 1.348 . S
C743 C745 1.353 . S
C743 H784 0.929 . S
C744 C742 1.356 . S
C744 C746 1.358 . S
C744 H785 0.930 . S
C745 C743 1.353 . S
C745 N747 1.314 . S
C745 H786 0.930 . S
C746 C744 1.358 . S
C746 N747 1.279 . S
C746 H787 0.930 . S
N747 C745 1.314 . S
N747 C746 1.279 . S
C748 C750 1.353 . S
C748 N751 1.314 . S
C748 H754 0.930 . S
C749 N751 1.279 . S
C749 C752 1.358 . S
C749 H755 0.930 . S
C750 C748 1.353 . S
C750 C753 1.348 . S
C750 H788 0.929 . S
N751 Li706 1.990 . S
N751 C748 1.314 . S
N751 C749 1.279 . S
C752 C749 1.358 . S
C752 C753 1.356 . S
C752 H789 0.930 . S
C753 C750 1.348 . S
C753 C752 1.356 . S
H754 C748 0.930 . S
H755 C749 0.930 . S
C756 N757 1.314 . S
C756 C758 1.353 . S
C756 H762 0.930 . S
N757 Li707 1.990 . S
N757 C756 1.314 . S
N757 C760 1.279 . S
C758 C756 1.353 . S
C758 C761 1.348 . S
C758 H790 0.929 . S
C759 C760 1.358 . S
C759 C761 1.356 . S
C759 H791 0.930 . S
C760 N757 1.279 . S
C760 C759 1.358 . S
C760 H763 0.930 . S
C761 C758 1.348 . S
C761 C759 1.356 . S
H762 C756 0.930 . S
H763 C760 0.930 . S
O764 Li704 1.956 . S
O764 Li705 1.970 . S
O764 Li706 1.961 . S
O764 C708 1.325 . S
O765 Li704 1.970 . S
O765 Li705 1.956 . S
O765 Li707 1.961 . S
O765 C714 1.325 . S
O766 Li704 1.961 . S
O766 Li706 1.956 . S
O766 Li707 1.970 . S
O766 C736 1.325 . S
O767 Li705 1.961 . S
O767 Li706 1.970 . S
O767 Li707 1.956 . S
O767 C742 1.325 . S
H768 C710 0.929 . S
H769 C711 0.930 . S
H770 C712 0.930 . S
H771 C713 0.930 1_545 S
H772 C715 0.930 . S
H773 C717 0.929 1_545 S
H774 C718 0.930 . S
H775 C719 0.930 . S
H776 C722 0.930 . S
H777 C725 0.929 . S
H778 C730 0.929 . S
H779 C731 0.930 . S
H780 C738 0.929 . S
H781 C739 0.930 . S
H782 C740 0.930 . S
H783 C741 0.930 . S
H784 C743 0.929 . S
H785 C744 0.930 . S
H786 C745 0.930 . S
H787 C746 0.930 . S
H788 C750 0.929 . S
H789 C752 0.930 . S
H790 C758 0.929 . S
H791 C759 0.930 . S
Li792 N809 1.990 . S
Li792 O852 1.956 . S
Li792 O853 1.970 . S
Li792 O854 1.961 . S
Li793 N817 1.990 1_655 S
Li793 O852 1.970 . S
Li793 O853 1.956 . S
Li793 O855 1.961 . S
Li794 N839 1.990 . S
Li794 O852 1.961 . S
Li794 O854 1.956 . S
Li794 O855 1.970 . S
Li795 N845 1.990 . S
Li795 O853 1.961 . S
Li795 O854 1.970 . S
Li795 O855 1.956 . S
C796 C798 1.348 . S
C796 C799 1.356 . S
C796 O852 1.325 . S
N797 C800 1.314 1_655 S
N797 C801 1.279 . S
C798 C796 1.348 . S
C798 C800 1.353 1_655 S
C798 H856 0.929 . S
C799 C796 1.356 . S
C799 C801 1.358 . S
C799 H857 0.930 . S
C800 N797 1.314 1_455 S
C800 C798 1.353 1_455 S
C800 H858 0.930 . S
C801 N797 1.279 . S
C801 C799 1.358 . S
C801 H859 0.930 . S
C802 C805 1.348 . S
C802 C806 1.356 . S
C802 O853 1.325 . S
C803 N804 1.279 . S
C803 C806 1.358 . S
C803 H860 0.930 . S
N804 C803 1.279 . S
N804 C807 1.314 . S
C805 C802 1.348 . S
C805 C807 1.353 . S
C805 H861 0.929 . S
C806 C802 1.356 . S
C806 C803 1.358 . S
C806 H862 0.930 . S
C807 N804 1.314 . S
C807 C805 1.353 . S
C807 H863 0.930 . S
C808 N809 1.314 . S
C808 C813 1.353 . S
C808 H814 0.930 . S
N809 Li792 1.990 . S
N809 C808 1.314 . S
N809 C811 1.279 . S
C810 C811 1.358 . S
C810 C812 1.356 . S
C810 H864 0.930 . S
C811 N809 1.279 . S
C811 C810 1.358 . S
C811 H815 0.930 . S
C812 C810 1.356 . S
C812 C813 1.348 . S
C813 C808 1.353 . S
C813 C812 1.348 . S
C813 H865 0.929 . S
H814 C808 0.930 . S
H815 C811 0.930 . S
C816 N817 1.314 . S
C816 C818 1.353 . S
C816 H822 0.930 . S
N817 Li793 1.990 1_455 S
N817 C816 1.314 . S
N817 C820 1.279 . S
C818 C816 1.353 . S
C818 C821 1.348 . S
C818 H866 0.929 . S
C819 C820 1.358 . S
C819 C821 1.356 . S
C819 H867 0.930 . S
C820 N817 1.279 . S
C820 C819 1.358 . S
C820 H823 0.930 1_455 S
C821 C818 1.348 . S
C821 C819 1.356 . S
H822 C816 0.930 . S
H823 C820 0.930 1_655 S
C824 C826 1.348 . S
C824 C827 1.356 . S
C824 O854 1.325 . S
N825 C828 1.314 . S
N825 C829 1.279 . S
C826 C824 1.348 . S
C826 C828 1.353 . S
C826 H868 0.929 . S
C827 C824 1.356 . S
C827 C829 1.358 . S
C827 H869 0.930 . S
C828 N825 1.314 . S
C828 C826 1.353 . S
C828 H870 0.930 . S
C829 N825 1.279 . S
C829 C827 1.358 . S
C829 H871 0.930 . S
C830 C831 1.348 . S
C830 C832 1.356 . S
C830 O855 1.325 . S
C831 C830 1.348 . S
C831 C833 1.353 . S
C831 H872 0.929 . S
C832 C830 1.356 . S
C832 C834 1.358 1_655 S
C832 H873 0.930 . S
C833 C831 1.353 . S
C833 N835 1.314 1_655 S
C833 H874 0.929 1_655 S
C834 C832 1.358 1_455 S
C834 N835 1.279 . S
C834 H875 0.930 . S
N835 C833 1.314 1_455 S
N835 C834 1.279 . S
C836 C838 1.353 . S
C836 N839 1.314 . S
C836 H842 0.930 . S
C837 N839 1.279 . S
C837 C840 1.358 . S
C837 H843 0.930 . S
C838 C836 1.353 . S
C838 C841 1.348 . S
C838 H876 0.929 1_655 S
N839 Li794 1.990 . S
N839 C836 1.314 . S
N839 C837 1.279 . S
C840 C837 1.358 . S
C840 C841 1.356 . S
C840 H877 0.930 . S
C841 C838 1.348 . S
C841 C840 1.356 . S
H842 C836 0.930 . S
H843 C837 0.930 . S
C844 N845 1.314 . S
C844 C846 1.353 . S
C844 H850 0.930 . S
N845 Li795 1.990 . S
N845 C844 1.314 . S
N845 C848 1.279 . S
C846 C844 1.353 . S
C846 C849 1.348 . S
C846 H878 0.929 . S
C847 C848 1.358 . S
C847 C849 1.356 . S
C847 H879 0.930 . S
C848 N845 1.279 . S
C848 C847 1.358 . S
C848 H851 0.930 . S
C849 C846 1.348 . S
C849 C847 1.356 . S
H850 C844 0.930 . S
H851 C848 0.930 . S
O852 Li792 1.956 . S
O852 Li793 1.970 . S
O852 Li794 1.961 . S
O852 C796 1.325 . S
O853 Li792 1.970 . S
O853 Li793 1.956 . S
O853 Li795 1.961 . S
O853 C802 1.325 . S
O854 Li792 1.961 . S
O854 Li794 1.956 . S
O854 Li795 1.970 . S
O854 C824 1.325 . S
O855 Li793 1.961 . S
O855 Li794 1.970 . S
O855 Li795 1.956 . S
O855 C830 1.325 . S
H856 C798 0.929 . S
H857 C799 0.930 . S
H858 C800 0.930 . S
H859 C801 0.930 . S
H860 C803 0.930 . S
H861 C805 0.929 . S
H862 C806 0.930 . S
H863 C807 0.930 . S
H864 C810 0.930 . S
H865 C813 0.929 . S
H866 C818 0.929 . S
H867 C819 0.930 . S
H868 C826 0.929 . S
H869 C827 0.930 . S
H870 C828 0.930 . S
H871 C829 0.930 . S
H872 C831 0.929 . S
H873 C832 0.930 . S
H874 C833 0.929 1_455 S
H875 C834 0.930 . S
H876 C838 0.929 1_455 S
H877 C840 0.930 . S
H878 C846 0.929 . S
H879 C847 0.930 . S
Li880 N897 1.990 . S
Li880 O940 1.956 . S
Li880 O941 1.970 . S
Li880 O942 1.961 . S
Li881 N905 1.990 . S
Li881 O940 1.970 . S
Li881 O941 1.956 . S
Li881 O943 1.961 . S
Li882 N927 1.990 1_545 S
Li882 O940 1.961 . S
Li882 O942 1.956 . S
Li882 O943 1.970 . S
Li883 N933 1.990 . S
Li883 O941 1.961 . S
Li883 O942 1.970 . S
Li883 O943 1.956 . S
C884 C886 1.348 . S
C884 C887 1.356 . S
C884 O940 1.325 . S
N885 C888 1.314 . S
N885 C889 1.279 . S
C886 C884 1.348 . S
C886 C888 1.353 . S
C886 H944 0.929 . S
C887 C884 1.356 . S
C887 C889 1.358 . S
C887 H945 0.930 . S
C888 N885 1.314 . S
C888 C886 1.353 . S
C888 H946 0.930 . S
C889 N885 1.279 . S
C889 C887 1.358 . S
C889 H947 0.930 . S
C890 C893 1.348 . S
C890 C894 1.356 . S
C890 O941 1.325 . S
C891 N892 1.279 . S
C891 C894 1.358 . S
C891 H948 0.930 . S
N892 C891 1.279 . S
N892 C895 1.314 . S
C893 C890 1.348 . S
C893 C895 1.353 . S
C893 H949 0.929 . S
C894 C890 1.356 . S
C894 C891 1.358 . S
C894 H950 0.930 . S
C895 N892 1.314 . S
C895 C893 1.353 . S
C895 H951 0.930 . S
C896 N897 1.314 . S
C896 C901 1.353 . S
C896 H902 0.930 . S
N897 Li880 1.990 . S
N897 C896 1.314 . S
N897 C899 1.279 . S
C898 C899 1.358 . S
C898 C900 1.356 . S
C898 H952 0.930 . S
C899 N897 1.279 . S
C899 C898 1.358 . S
C899 H903 0.930 . S
C900 C898 1.356 . S
C900 C901 1.348 . S
C901 C896 1.353 . S
C901 C900 1.348 . S
C901 H953 0.929 . S
H902 C896 0.930 . S
H903 C899 0.930 . S
C904 N905 1.314 . S
C904 C906 1.353 . S
C904 H910 0.930 . S
N905 Li881 1.990 . S
N905 C904 1.314 . S
N905 C908 1.279 . S
C906 C904 1.353 . S
C906 C909 1.348 . S
C906 H954 0.929 . S
C907 C908 1.358 . S
C907 C909 1.356 . S
C907 H955 0.930 . S
C908 N905 1.279 . S
C908 C907 1.358 . S
C908 H911 0.930 . S
C909 C906 1.348 . S
C909 C907 1.356 . S
H910 C904 0.930 . S
H911 C908 0.930 . S
C912 C914 1.348 . S
C912 C915 1.356 . S
C912 O942 1.325 . S
N913 C916 1.314 . S
N913 C917 1.280 1_565 S
C914 C912 1.348 . S
C914 C916 1.353 1_545 S
C914 H956 0.929 . S
C915 C912 1.356 . S
C915 C917 1.358 . S
C915 H957 0.930 . S
C916 N913 1.314 . S
C916 C914 1.353 1_565 S
C916 H958 0.930 . S
C917 N913 1.280 1_545 S
C917 C915 1.358 . S
C917 H959 0.930 1_545 S
C918 C919 1.348 . S
C918 C920 1.356 . S
C918 O943 1.325 . S
C919 C918 1.348 . S
C919 C921 1.353 1_545 S
C919 H960 0.929 1_545 S
C920 C918 1.356 . S
C920 C922 1.358 . S
C920 H961 0.930 . S
C921 C919 1.353 1_565 S
C921 N923 1.314 1_565 S
C921 H962 0.930 . S
C922 C920 1.358 . S
C922 N923 1.279 . S
C922 H963 0.930 . S
N923 C921 1.314 1_545 S
N923 C922 1.279 . S
C924 C926 1.353 . S
C924 N927 1.314 . S
C924 H930 0.930 1_565 S
C925 N927 1.279 . S
C925 C928 1.358 . S
C925 H931 0.930 . S
C926 C924 1.353 . S
C926 C929 1.348 . S
C926 H964 0.929 . S
N927 Li882 1.990 1_565 S
N927 C924 1.314 . S
N927 C925 1.279 . S
C928 C925 1.358 . S
C928 C929 1.356 . S
C928 H965 0.930 . S
C929 C926 1.348 . S
C929 C928 1.356 . S
H930 C924 0.930 1_545 S
H931 C925 0.930 . S
C932 N933 1.314 . S
C932 C934 1.353 . S
C932 H938 0.930 . S
N933 Li883 1.990 . S
N933 C932 1.314 . S
N933 C936 1.279 . S
C934 C932 1.353 . S
C934 C937 1.348 . S
C934 H966 0.929 . S
C935 C936 1.358 . S
C935 C937 1.356 . S
C935 H967 0.930 . S
C936 N933 1.279 . S
C936 C935 1.358 . S
C936 H939 0.930 . S
C937 C934 1.348 . S
C937 C935 1.356 . S
H938 C932 0.930 . S
H939 C936 0.930 . S
O940 Li880 1.956 . S
O940 Li881 1.970 . S
O940 Li882 1.961 . S
O940 C884 1.325 . S
O941 Li880 1.970 . S
O941 Li881 1.956 . S
O941 Li883 1.961 . S
O941 C890 1.325 . S
O942 Li880 1.961 . S
O942 Li882 1.956 . S
O942 Li883 1.970 . S
O942 C912 1.325 . S
O943 Li881 1.961 . S
O943 Li882 1.970 . S
O943 Li883 1.956 . S
O943 C918 1.325 . S
H944 C886 0.929 . S
H945 C887 0.930 . S
H946 C888 0.930 . S
H947 C889 0.930 . S
H948 C891 0.930 . S
H949 C893 0.929 . S
H950 C894 0.930 . S
H951 C895 0.930 . S
H952 C898 0.930 . S
H953 C901 0.929 . S
H954 C906 0.929 . S
H955 C907 0.930 . S
H956 C914 0.929 . S
H957 C915 0.930 . S
H958 C916 0.930 . S
H959 C917 0.930 1_565 S
H960 C919 0.929 1_565 S
H961 C920 0.930 . S
H962 C921 0.930 . S
H963 C922 0.930 . S
H964 C926 0.929 . S
H965 C928 0.930 . S
H966 C934 0.929 . S
H967 C935 0.930 . S
Li968 N985 1.990 1_455 S
Li968 O1028 1.956 . S
Li968 O1029 1.970 . S
Li968 O1030 1.961 . S
Li969 N993 1.990 . S
Li969 O1028 1.970 . S
Li969 O1029 1.956 . S
Li969 O1031 1.961 . S
Li970 N1015 1.990 . S
Li970 O1028 1.961 . S
Li970 O1030 1.956 . S
Li970 O1031 1.970 . S
Li971 N1021 1.990 . S
Li971 O1029 1.961 . S
Li971 O1030 1.970 . S
Li971 O1031 1.956 . S
C972 C974 1.348 . S
C972 C975 1.356 . S
C972 O1028 1.325 . S
N973 C976 1.314 . S
N973 C977 1.279 . S
C974 C972 1.348 . S
C974 C976 1.353 . S
C974 H1032 0.929 . S
C975 C972 1.356 . S
C975 C977 1.358 . S
C975 H1033 0.930 . S
C976 N973 1.314 . S
C976 C974 1.353 . S
C976 H1034 0.930 . S
C977 N973 1.279 . S
C977 C975 1.358 . S
C977 H1035 0.930 . S
C978 C981 1.348 . S
C978 C982 1.356 . S
C978 O1029 1.325 . S
C979 N980 1.279 . S
C979 C982 1.358 . S
C979 H1036 0.930 . S
N980 C979 1.279 . S
N980 C983 1.314 1_455 S
C981 C978 1.348 . S
C981 C983 1.353 1_455 S
C981 H1037 0.929 . S
C982 C978 1.356 . S
C982 C979 1.358 . S
C982 H1038 0.930 . S
C983 N980 1.314 1_655 S
C983 C981 1.353 1_655 S
C983 H1039 0.930 . S
C984 N985 1.314 . S
C984 C989 1.353 . S
C984 H990 0.930 . S
N985 Li968 1.990 1_655 S
N985 C984 1.314 . S
N985 C987 1.279 . S
C986 C987 1.358 . S
C986 C988 1.356 . S
C986 H1040 0.930 . S
C987 N985 1.279 . S
C987 C986 1.358 . S
C987 H991 0.930 1_655 S
C988 C986 1.356 . S
C988 C989 1.348 . S
C989 C984 1.353 . S
C989 C988 1.348 . S
C989 H1041 0.929 . S
H990 C984 0.930 . S
H991 C987 0.930 1_455 S
C992 N993 1.314 . S
C992 C994 1.353 . S
C992 H998 0.930 . S
N993 Li969 1.990 . S
N993 C992 1.314 . S
N993 C996 1.279 . S
C994 C992 1.353 . S
C994 C997 1.348 . S
C994 H1042 0.929 . S
C995 C996 1.358 . S
C995 C997 1.356 . S
C995 H1043 0.930 . S
C996 N993 1.279 . S
C996 C995 1.358 . S
C996 H999 0.930 . S
C997 C994 1.348 . S
C997 C995 1.356 . S
H998 C992 0.930 . S
H999 C996 0.930 . S
C1000 C1002 1.348 . S
C1000 C1003 1.356 . S
C1000 O1030 1.325 . S
N1001 C1004 1.314 1_655 S
N1001 C1005 1.279 . S
C1002 C1000 1.348 . S
C1002 C1004 1.353 . S
C1002 H1044 0.929 . S
C1003 C1000 1.356 . S
C1003 C1005 1.358 1_455 S
C1003 H1045 0.930 . S
C1004 N1001 1.314 1_455 S
C1004 C1002 1.353 . S
C1004 H1046 0.929 1_455 S
C1005 N1001 1.279 . S
C1005 C1003 1.358 1_655 S
C1005 H1047 0.930 . S
C1006 C1007 1.348 . S
C1006 C1008 1.356 . S
C1006 O1031 1.325 . S
C1007 C1006 1.348 . S
C1007 C1009 1.353 . S
C1007 H1048 0.929 . S
C1008 C1006 1.356 . S
C1008 C1010 1.358 . S
C1008 H1049 0.930 . S
C1009 C1007 1.353 . S
C1009 N1011 1.314 . S
C1009 H1050 0.930 . S
C1010 C1008 1.358 . S
C1010 N1011 1.279 . S
C1010 H1051 0.930 . S
N1011 C1009 1.314 . S
N1011 C1010 1.279 . S
C1012 C1014 1.353 . S
C1012 N1015 1.314 . S
C1012 H1018 0.930 . S
C1013 N1015 1.279 . S
C1013 C1016 1.358 . S
C1013 H1019 0.930 . S
C1014 C1012 1.353 . S
C1014 C1017 1.348 . S
C1014 H1052 0.929 . S
N1015 Li970 1.990 . S
N1015 C1012 1.314 . S
N1015 C1013 1.279 . S
C1016 C1013 1.358 . S
C1016 C1017 1.356 . S
C1016 H1053 0.930 . S
C1017 C1014 1.348 . S
C1017 C1016 1.356 . S
H1018 C1012 0.930 . S
H1019 C1013 0.930 . S
C1020 N1021 1.314 . S
C1020 C1022 1.353 . S
C1020 H1026 0.930 . S
N1021 Li971 1.990 . S
N1021 C1020 1.314 . S
N1021 C1024 1.279 . S
C1022 C1020 1.353 . S
C1022 C1025 1.348 . S
C1022 H1054 0.929 1_455 S
C1023 C1024 1.358 . S
C1023 C1025 1.356 . S
C1023 H1055 0.930 . S
C1024 N1021 1.279 . S
C1024 C1023 1.358 . S
C1024 H1027 0.930 . S
C1025 C1022 1.348 . S
C1025 C1023 1.356 . S
H1026 C1020 0.930 . S
H1027 C1024 0.930 . S
O1028 Li968 1.956 . S
O1028 Li969 1.970 . S
O1028 Li970 1.961 . S
O1028 C972 1.325 . S
O1029 Li968 1.970 . S
O1029 Li969 1.956 . S
O1029 Li971 1.961 . S
O1029 C978 1.325 . S
O1030 Li968 1.961 . S
O1030 Li970 1.956 . S
O1030 Li971 1.970 . S
O1030 C1000 1.325 . S
O1031 Li969 1.961 . S
O1031 Li970 1.970 . S
O1031 Li971 1.956 . S
O1031 C1006 1.325 . S
H1032 C974 0.929 . S
H1033 C975 0.930 . S
H1034 C976 0.930 . S
H1035 C977 0.930 . S
H1036 C979 0.930 . S
H1037 C981 0.929 . S
H1038 C982 0.930 . S
H1039 C983 0.930 . S
H1040 C986 0.930 . S
H1041 C989 0.929 . S
H1042 C994 0.929 . S
H1043 C995 0.930 . S
H1044 C1002 0.929 . S
H1045 C1003 0.930 . S
H1046 C1004 0.929 1_655 S
H1047 C1005 0.930 . S
H1048 C1007 0.929 . S
H1049 C1008 0.930 . S
H1050 C1009 0.930 . S
H1051 C1010 0.930 . S
H1052 C1014 0.929 . S
H1053 C1016 0.930 . S
H1054 C1022 0.929 1_655 S
H1055 C1023 0.930 . S
Li1056 N1073 1.990 . S
Li1056 O1116 1.956 . S
Li1056 O1117 1.970 . S
Li1056 O1118 1.961 . S
Li1057 N1081 1.990 . S
Li1057 O1116 1.970 . S
Li1057 O1117 1.956 . S
Li1057 O1119 1.961 . S
Li1058 N1103 1.990 . S
Li1058 O1116 1.961 . S
Li1058 O1118 1.956 . S
Li1058 O1119 1.970 . S
Li1059 N1109 1.990 1_545 S
Li1059 O1117 1.961 . S
Li1059 O1118 1.970 . S
Li1059 O1119 1.956 . S
C1060 C1062 1.348 . S
C1060 C1063 1.356 . S
C1060 O1116 1.325 . S
N1061 C1064 1.314 . S
N1061 C1065 1.279 . S
C1062 C1060 1.348 . S
C1062 C1064 1.353 . S
C1062 H1120 0.929 . S
C1063 C1060 1.356 . S
C1063 C1065 1.358 . S
C1063 H1121 0.930 . S
C1064 N1061 1.314 . S
C1064 C1062 1.353 . S
C1064 H1122 0.930 . S
C1065 N1061 1.279 . S
C1065 C1063 1.358 . S
C1065 H1123 0.930 . S
C1066 C1069 1.348 . S
C1066 C1070 1.356 . S
C1066 O1117 1.325 . S
C1067 N1068 1.279 . S
C1067 C1070 1.358 . S
C1067 H1124 0.930 . S
N1068 C1067 1.279 . S
N1068 C1071 1.314 . S
C1069 C1066 1.348 . S
C1069 C1071 1.353 . S
C1069 H1125 0.929 . S
C1070 C1066 1.356 . S
C1070 C1067 1.358 . S
C1070 H1126 0.930 . S
C1071 N1068 1.314 . S
C1071 C1069 1.353 . S
C1071 H1127 0.930 . S
C1072 N1073 1.314 . S
C1072 C1077 1.353 . S
C1072 H1078 0.930 . S
N1073 Li1056 1.990 . S
N1073 C1072 1.314 . S
N1073 C1075 1.279 . S
C1074 C1075 1.358 . S
C1074 C1076 1.356 . S
C1074 H1128 0.930 . S
C1075 N1073 1.279 . S
C1075 C1074 1.358 . S
C1075 H1079 0.930 . S
C1076 C1074 1.356 . S
C1076 C1077 1.348 . S
C1077 C1072 1.353 . S
C1077 C1076 1.348 . S
C1077 H1129 0.929 . S
H1078 C1072 0.930 . S
H1079 C1075 0.930 . S
C1080 N1081 1.314 . S
C1080 C1082 1.353 . S
C1080 H1086 0.930 . S
N1081 Li1057 1.990 . S
N1081 C1080 1.314 . S
N1081 C1084 1.279 . S
C1082 C1080 1.353 . S
C1082 C1085 1.348 . S
C1082 H1130 0.929 . S
C1083 C1084 1.358 . S
C1083 C1085 1.356 . S
C1083 H1131 0.930 . S
C1084 N1081 1.279 . S
C1084 C1083 1.358 . S
C1084 H1087 0.930 . S
C1085 C1082 1.348 . S
C1085 C1083 1.356 . S
H1086 C1080 0.930 . S
H1087 C1084 0.930 . S
C1088 C1090 1.348 . S
C1088 C1091 1.356 . S
C1088 O1118 1.325 . S
N1089 C1092 1.314 1_545 S
N1089 C1093 1.279 . S
C1090 C1088 1.348 . S
C1090 C1092 1.353 1_545 S
C1090 H1132 0.929 1_545 S
C1091 C1088 1.356 . S
C1091 C1093 1.358 . S
C1091 H1133 0.930 . S
C1092 N1089 1.314 1_565 S
C1092 C1090 1.353 1_565 S
C1092 H1134 0.930 . S
C1093 N1089 1.279 . S
C1093 C1091 1.358 . S
C1093 H1135 0.930 . S
C1094 C1095 1.348 . S
C1094 C1096 1.356 . S
C1094 O1119 1.325 . S
C1095 C1094 1.348 . S
C1095 C1097 1.353 1_545 S
C1095 H1136 0.929 . S
C1096 C1094 1.356 . S
C1096 C1098 1.358 . S
C1096 H1137 0.930 . S
C1097 C1095 1.353 1_565 S
C1097 N1099 1.314 . S
C1097 H1138 0.930 . S
C1098 C1096 1.358 . S
C1098 N1099 1.280 1_545 S
C1098 H1139 0.930 1_545 S
N1099 C1097 1.314 . S
N1099 C1098 1.280 1_565 S
C1100 C1102 1.353 . S
C1100 N1103 1.314 . S
C1100 H1106 0.930 . S
C1101 N1103 1.279 . S
C1101 C1104 1.358 . S
C1101 H1107 0.930 . S
C1102 C1100 1.353 . S
C1102 C1105 1.348 . S
C1102 H1140 0.929 . S
N1103 Li1058 1.990 . S
N1103 C1100 1.314 . S
N1103 C1101 1.279 . S
C1104 C1101 1.358 . S
C1104 C1105 1.356 . S
C1104 H1141 0.930 . S
C1105 C1102 1.348 . S
C1105 C1104 1.356 . S
H1106 C1100 0.930 . S
H1107 C1101 0.930 . S
C1108 N1109 1.314 . S
C1108 C1110 1.353 . S
C1108 H1114 0.930 1_565 S
N1109 Li1059 1.990 1_565 S
N1109 C1108 1.314 . S
N1109 C1112 1.279 . S
C1110 C1108 1.353 . S
C1110 C1113 1.348 . S
C1110 H1142 0.929 . S
C1111 C1112 1.358 . S
C1111 C1113 1.356 . S
C1111 H1143 0.930 . S
C1112 N1109 1.279 . S
C1112 C1111 1.358 . S
C1112 H1115 0.930 . S
C1113 C1110 1.348 . S
C1113 C1111 1.356 . S
H1114 C1108 0.930 1_545 S
H1115 C1112 0.930 . S
O1116 Li1056 1.956 . S
O1116 Li1057 1.970 . S
O1116 Li1058 1.961 . S
O1116 C1060 1.325 . S
O1117 Li1056 1.970 . S
O1117 Li1057 1.956 . S
O1117 Li1059 1.961 . S
O1117 C1066 1.325 . S
O1118 Li1056 1.961 . S
O1118 Li1058 1.956 . S
O1118 Li1059 1.970 . S
O1118 C1088 1.325 . S
O1119 Li1057 1.961 . S
O1119 Li1058 1.970 . S
O1119 Li1059 1.956 . S
O1119 C1094 1.325 . S
H1120 C1062 0.929 . S
H1121 C1063 0.930 . S
H1122 C1064 0.930 . S
H1123 C1065 0.930 . S
H1124 C1067 0.930 . S
H1125 C1069 0.929 . S
H1126 C1070 0.930 . S
H1127 C1071 0.930 . S
H1128 C1074 0.930 . S
H1129 C1077 0.929 . S
H1130 C1082 0.929 . S
H1131 C1083 0.930 . S
H1132 C1090 0.929 1_565 S
H1133 C1091 0.930 . S
H1134 C1092 0.930 . S
H1135 C1093 0.930 . S
H1136 C1095 0.929 . S
H1137 C1096 0.930 . S
H1138 C1097 0.930 . S
H1139 C1098 0.930 1_565 S
H1140 C1102 0.929 . S
H1141 C1104 0.930 . S
H1142 C1110 0.929 . S
H1143 C1111 0.930 . S
Li1144 N1161 1.990 . S
Li1144 O1204 1.956 . S
Li1144 O1205 1.970 . S
Li1144 O1206 1.961 . S
Li1145 N1169 1.990 . S
Li1145 O1204 1.970 . S
Li1145 O1205 1.956 . S
Li1145 O1207 1.961 . S
Li1146 N1191 1.990 . S
Li1146 O1204 1.961 . S
Li1146 O1206 1.956 . S
Li1146 O1207 1.970 . S
Li1147 N1197 1.990 1_455 S
Li1147 O1205 1.961 . S
Li1147 O1206 1.970 . S
Li1147 O1207 1.956 . S
C1148 C1150 1.348 . S
C1148 C1151 1.356 . S
C1148 O1204 1.325 . S
N1149 C1152 1.314 . S
N1149 C1153 1.279 . S
C1150 C1148 1.348 . S
C1150 C1152 1.353 . S
C1150 H1208 0.929 . S
C1151 C1148 1.356 . S
C1151 C1153 1.358 . S
C1151 H1209 0.930 . S
C1152 N1149 1.314 . S
C1152 C1150 1.353 . S
C1152 H1210 0.930 . S
C1153 N1149 1.279 . S
C1153 C1151 1.358 . S
C1153 H1211 0.930 . S
C1154 C1157 1.348 . S
C1154 C1158 1.356 . S
C1154 O1205 1.325 . S
C1155 N1156 1.279 . S
C1155 C1158 1.358 1_655 S
C1155 H1212 0.930 . S
N1156 C1155 1.279 . S
N1156 C1159 1.314 1_655 S
C1157 C1154 1.348 . S
C1157 C1159 1.353 . S
C1157 H1213 0.929 . S
C1158 C1154 1.356 . S
C1158 C1155 1.358 1_455 S
C1158 H1214 0.930 . S
C1159 N1156 1.314 1_455 S
C1159 C1157 1.353 . S
C1159 H1215 0.929 1_455 S
C1160 N1161 1.314 . S
C1160 C1165 1.353 . S
C1160 H1166 0.930 . S
N1161 Li1144 1.990 . S
N1161 C1160 1.314 . S
N1161 C1163 1.279 . S
C1162 C1163 1.358 . S
C1162 C1164 1.356 . S
C1162 H1216 0.930 . S
C1163 N1161 1.279 . S
C1163 C1162 1.358 . S
C1163 H1167 0.930 . S
C1164 C1162 1.356 . S
C1164 C1165 1.348 . S
C1165 C1160 1.353 . S
C1165 C1164 1.348 . S
C1165 H1217 0.929 1_455 S
H1166 C1160 0.930 . S
H1167 C1163 0.930 . S
C1168 N1169 1.314 . S
C1168 C1170 1.353 . S
C1168 H1174 0.930 . S
N1169 Li1145 1.990 . S
N1169 C1168 1.314 . S
N1169 C1172 1.279 . S
C1170 C1168 1.353 . S
C1170 C1173 1.348 . S
C1170 H1218 0.929 . S
C1171 C1172 1.358 . S
C1171 C1173 1.356 . S
C1171 H1219 0.930 . S
C1172 N1169 1.279 . S
C1172 C1171 1.358 . S
C1172 H1175 0.930 . S
C1173 C1170 1.348 . S
C1173 C1171 1.356 . S
H1174 C1168 0.930 . S
H1175 C1172 0.930 . S
C1176 C1178 1.348 . S
C1176 C1179 1.356 . S
C1176 O1206 1.325 . S
N1177 C1180 1.314 1_455 S
N1177 C1181 1.279 . S
C1178 C1176 1.348 . S
C1178 C1180 1.353 1_455 S
C1178 H1220 0.929 . S
C1179 C1176 1.356 . S
C1179 C1181 1.358 . S
C1179 H1221 0.930 . S
C1180 N1177 1.314 1_655 S
C1180 C1178 1.353 1_655 S
C1180 H1222 0.930 . S
C1181 N1177 1.279 . S
C1181 C1179 1.358 . S
C1181 H1223 0.930 . S
C1182 C1183 1.348 . S
C1182 C1184 1.356 . S
C1182 O1207 1.325 . S
C1183 C1182 1.348 . S
C1183 C1185 1.353 . S
C1183 H1224 0.929 . S
C1184 C1182 1.356 . S
C1184 C1186 1.358 . S
C1184 H1225 0.930 . S
C1185 C1183 1.353 . S
C1185 N1187 1.314 . S
C1185 H1226 0.930 . S
C1186 C1184 1.358 . S
C1186 N1187 1.279 . S
C1186 H1227 0.930 . S
N1187 C1185 1.314 . S
N1187 C1186 1.279 . S
C1188 C1190 1.353 . S
C1188 N1191 1.314 . S
C1188 H1194 0.930 . S
C1189 N1191 1.279 . S
C1189 C1192 1.358 . S
C1189 H1195 0.930 . S
C1190 C1188 1.353 . S
C1190 C1193 1.348 . S
C1190 H1228 0.929 . S
N1191 Li1146 1.990 . S
N1191 C1188 1.314 . S
N1191 C1189 1.279 . S
C1192 C1189 1.358 . S
C1192 C1193 1.356 . S
C1192 H1229 0.930 . S
C1193 C1190 1.348 . S
C1193 C1192 1.356 . S
H1194 C1188 0.930 . S
H1195 C1189 0.930 . S
C1196 N1197 1.314 . S
C1196 C1198 1.353 . S
C1196 H1202 0.930 . S
N1197 Li1147 1.990 1_655 S
N1197 C1196 1.314 . S
N1197 C1200 1.279 . S
C1198 C1196 1.353 . S
C1198 C1201 1.348 . S
C1198 H1230 0.929 . S
C1199 C1200 1.358 . S
C1199 C1201 1.356 . S
C1199 H1231 0.930 . S
C1200 N1197 1.279 . S
C1200 C1199 1.358 . S
C1200 H1203 0.930 1_655 S
C1201 C1198 1.348 . S
C1201 C1199 1.356 . S
H1202 C1196 0.930 . S
H1203 C1200 0.930 1_455 S
O1204 Li1144 1.956 . S
O1204 Li1145 1.970 . S
O1204 Li1146 1.961 . S
O1204 C1148 1.325 . S
O1205 Li1144 1.970 . S
O1205 Li1145 1.956 . S
O1205 Li1147 1.961 . S
O1205 C1154 1.325 . S
O1206 Li1144 1.961 . S
O1206 Li1146 1.956 . S
O1206 Li1147 1.970 . S
O1206 C1176 1.325 . S
O1207 Li1145 1.961 . S
O1207 Li1146 1.970 . S
O1207 Li1147 1.956 . S
O1207 C1182 1.325 . S
H1208 C1150 0.929 . S
H1209 C1151 0.930 . S
H1210 C1152 0.930 . S
H1211 C1153 0.930 . S
H1212 C1155 0.930 . S
H1213 C1157 0.929 . S
H1214 C1158 0.930 . S
H1215 C1159 0.929 1_655 S
H1216 C1162 0.930 . S
H1217 C1165 0.929 1_655 S
H1218 C1170 0.929 . S
H1219 C1171 0.930 . S
H1220 C1178 0.929 . S
H1221 C1179 0.930 . S
H1222 C1180 0.930 . S
H1223 C1181 0.930 . S
H1224 C1183 0.929 . S
H1225 C1184 0.930 . S
H1226 C1185 0.930 . S
H1227 C1186 0.930 . S
H1228 C1190 0.929 . S
H1229 C1192 0.930 . S
H1230 C1198 0.929 . S
H1231 C1199 0.930 . S
Li1232 N1249 1.990 . S
Li1232 O1292 1.956 . S
Li1232 O1293 1.970 . S
Li1232 O1294 1.961 . S
Li1233 N1257 1.990 1_565 S
Li1233 O1292 1.970 . S
Li1233 O1293 1.956 . S
Li1233 O1295 1.961 . S
Li1234 N1279 1.990 . S
Li1234 O1292 1.961 . S
Li1234 O1294 1.956 . S
Li1234 O1295 1.970 . S
Li1235 N1285 1.990 . S
Li1235 O1293 1.961 . S
Li1235 O1294 1.970 . S
Li1235 O1295 1.956 . S
C1236 C1238 1.348 . S
C1236 C1239 1.356 . S
C1236 O1292 1.325 . S
N1237 C1240 1.314 1_565 S
N1237 C1241 1.279 . S
C1238 C1236 1.348 . S
C1238 C1240 1.353 1_565 S
C1238 H1296 0.929 1_565 S
C1239 C1236 1.356 . S
C1239 C1241 1.358 . S
C1239 H1297 0.930 . S
C1240 N1237 1.314 1_545 S
C1240 C1238 1.353 1_545 S
C1240 H1298 0.930 . S
C1241 N1237 1.279 . S
C1241 C1239 1.358 . S
C1241 H1299 0.930 . S
C1242 C1245 1.348 . S
C1242 C1246 1.356 . S
C1242 O1293 1.325 . S
C1243 N1244 1.280 1_565 S
C1243 C1246 1.358 . S
C1243 H1300 0.930 1_565 S
N1244 C1243 1.280 1_545 S
N1244 C1247 1.314 . S
C1245 C1242 1.348 . S
C1245 C1247 1.353 1_565 S
C1245 H1301 0.929 . S
C1246 C1242 1.356 . S
C1246 C1243 1.358 . S
C1246 H1302 0.930 . S
C1247 N1244 1.314 . S
C1247 C1245 1.353 1_545 S
C1247 H1303 0.930 . S
C1248 N1249 1.314 . S
C1248 C1253 1.353 . S
C1248 H1254 0.930 . S
N1249 Li1232 1.990 . S
N1249 C1248 1.314 . S
N1249 C1251 1.279 . S
C1250 C1251 1.358 . S
C1250 C1252 1.356 . S
C1250 H1304 0.930 . S
C1251 N1249 1.279 . S
C1251 C1250 1.358 . S
C1251 H1255 0.930 . S
C1252 C1250 1.356 . S
C1252 C1253 1.348 . S
C1253 C1248 1.353 . S
C1253 C1252 1.348 . S
C1253 H1305 0.929 . S
H1254 C1248 0.930 . S
H1255 C1251 0.930 . S
C1256 N1257 1.314 . S
C1256 C1258 1.353 . S
C1256 H1262 0.930 1_545 S
N1257 Li1233 1.990 1_545 S
N1257 C1256 1.314 . S
N1257 C1260 1.279 . S
C1258 C1256 1.353 . S
C1258 C1261 1.348 . S
C1258 H1306 0.929 . S
C1259 C1260 1.358 . S
C1259 C1261 1.356 . S
C1259 H1307 0.930 . S
C1260 N1257 1.279 . S
C1260 C1259 1.358 . S
C1260 H1263 0.930 . S
C1261 C1258 1.348 . S
C1261 C1259 1.356 . S
H1262 C1256 0.930 1_565 S
H1263 C1260 0.930 . S
C1264 C1266 1.348 . S
C1264 C1267 1.356 . S
C1264 O1294 1.325 . S
N1265 C1268 1.314 . S
N1265 C1269 1.279 . S
C1266 C1264 1.348 . S
C1266 C1268 1.353 . S
C1266 H1308 0.929 . S
C1267 C1264 1.356 . S
C1267 C1269 1.358 . S
C1267 H1309 0.930 . S
C1268 N1265 1.314 . S
C1268 C1266 1.353 . S
C1268 H1310 0.930 . S
C1269 N1265 1.279 . S
C1269 C1267 1.358 . S
C1269 H1311 0.930 . S
C1270 C1271 1.348 . S
C1270 C1272 1.356 . S
C1270 O1295 1.325 . S
C1271 C1270 1.348 . S
C1271 C1273 1.353 . S
C1271 H1312 0.929 . S
C1272 C1270 1.356 . S
C1272 C1274 1.358 . S
C1272 H1313 0.930 . S
C1273 C1271 1.353 . S
C1273 N1275 1.314 . S
C1273 H1314 0.930 . S
C1274 C1272 1.358 . S
C1274 N1275 1.279 . S
C1274 H1315 0.930 . S
N1275 C1273 1.314 . S
N1275 C1274 1.279 . S
C1276 C1278 1.353 . S
C1276 N1279 1.314 . S
C1276 H1282 0.930 . S
C1277 N1279 1.279 . S
C1277 C1280 1.358 . S
C1277 H1283 0.930 . S
C1278 C1276 1.353 . S
C1278 C1281 1.348 . S
C1278 H1316 0.929 . S
N1279 Li1234 1.990 . S
N1279 C1276 1.314 . S
N1279 C1277 1.279 . S
C1280 C1277 1.358 . S
C1280 C1281 1.356 . S
C1280 H1317 0.930 . S
C1281 C1278 1.348 . S
C1281 C1280 1.356 . S
H1282 C1276 0.930 . S
H1283 C1277 0.930 . S
C1284 N1285 1.314 . S
C1284 C1286 1.353 . S
C1284 H1290 0.930 . S
N1285 Li1235 1.990 . S
N1285 C1284 1.314 . S
N1285 C1288 1.279 . S
C1286 C1284 1.353 . S
C1286 C1289 1.348 . S
C1286 H1318 0.929 . S
C1287 C1288 1.358 . S
C1287 C1289 1.356 . S
C1287 H1319 0.930 . S
C1288 N1285 1.279 . S
C1288 C1287 1.358 . S
C1288 H1291 0.930 . S
C1289 C1286 1.348 . S
C1289 C1287 1.356 . S
H1290 C1284 0.930 . S
H1291 C1288 0.930 . S
O1292 Li1232 1.956 . S
O1292 Li1233 1.970 . S
O1292 Li1234 1.961 . S
O1292 C1236 1.325 . S
O1293 Li1232 1.970 . S
O1293 Li1233 1.956 . S
O1293 Li1235 1.961 . S
O1293 C1242 1.325 . S
O1294 Li1232 1.961 . S
O1294 Li1234 1.956 . S
O1294 Li1235 1.970 . S
O1294 C1264 1.325 . S
O1295 Li1233 1.961 . S
O1295 Li1234 1.970 . S
O1295 Li1235 1.956 . S
O1295 C1270 1.325 . S
H1296 C1238 0.929 1_545 S
H1297 C1239 0.930 . S
H1298 C1240 0.930 . S
H1299 C1241 0.930 . S
H1300 C1243 0.930 1_545 S
H1301 C1245 0.929 . S
H1302 C1246 0.930 . S
H1303 C1247 0.930 . S
H1304 C1250 0.930 . S
H1305 C1253 0.929 . S
H1306 C1258 0.929 . S
H1307 C1259 0.930 . S
H1308 C1266 0.929 . S
H1309 C1267 0.930 . S
H1310 C1268 0.930 . S
H1311 C1269 0.930 . S
H1312 C1271 0.929 . S
H1313 C1272 0.930 . S
H1314 C1273 0.930 . S
H1315 C1274 0.930 . S
H1316 C1278 0.929 . S
H1317 C1280 0.930 . S
H1318 C1286 0.929 . S
H1319 C1287 0.930 . S
Li1320 N1337 1.990 . S
Li1320 O1380 1.956 . S
Li1320 O1381 1.970 . S
Li1320 O1382 1.961 . S
Li1321 N1345 1.990 . S
Li1321 O1380 1.970 . S
Li1321 O1381 1.956 . S
Li1321 O1383 1.961 . S
Li1322 N1367 1.990 1_655 S
Li1322 O1380 1.961 . S
Li1322 O1382 1.956 . S
Li1322 O1383 1.970 . S
Li1323 N1373 1.990 . S
Li1323 O1381 1.961 . S
Li1323 O1382 1.970 . S
Li1323 O1383 1.956 . S
C1324 C1326 1.348 . S
C1324 C1327 1.356 . S
C1324 O1380 1.325 . S
N1325 C1328 1.314 1_455 S
N1325 C1329 1.279 . S
C1326 C1324 1.348 . S
C1326 C1328 1.353 . S
C1326 H1384 0.929 . S
C1327 C1324 1.356 . S
C1327 C1329 1.358 1_655 S
C1327 H1385 0.930 . S
C1328 N1325 1.314 1_655 S
C1328 C1326 1.353 . S
C1328 H1386 0.929 1_655 S
C1329 N1325 1.279 . S
C1329 C1327 1.358 1_455 S
C1329 H1387 0.930 . S
C1330 C1333 1.348 . S
C1330 C1334 1.356 . S
C1330 O1381 1.325 . S
C1331 N1332 1.279 . S
C1331 C1334 1.358 . S
C1331 H1388 0.930 . S
N1332 C1331 1.279 . S
N1332 C1335 1.314 . S
C1333 C1330 1.348 . S
C1333 C1335 1.353 . S
C1333 H1389 0.929 . S
C1334 C1330 1.356 . S
C1334 C1331 1.358 . S
C1334 H1390 0.930 . S
C1335 N1332 1.314 . S
C1335 C1333 1.353 . S
C1335 H1391 0.930 . S
C1336 N1337 1.314 . S
C1336 C1341 1.353 . S
C1336 H1342 0.930 . S
N1337 Li1320 1.990 . S
N1337 C1336 1.314 . S
N1337 C1339 1.279 . S
C1338 C1339 1.358 . S
C1338 C1340 1.356 . S
C1338 H1392 0.930 . S
C1339 N1337 1.279 . S
C1339 C1338 1.358 . S
C1339 H1343 0.930 . S
C1340 C1338 1.356 . S
C1340 C1341 1.348 . S
C1341 C1336 1.353 . S
C1341 C1340 1.348 . S
C1341 H1393 0.929 . S
H1342 C1336 0.930 . S
H1343 C1339 0.930 . S
C1344 N1345 1.314 . S
C1344 C1346 1.353 . S
C1344 H1350 0.930 . S
N1345 Li1321 1.990 . S
N1345 C1344 1.314 . S
N1345 C1348 1.279 . S
C1346 C1344 1.353 . S
C1346 C1349 1.348 . S
C1346 H1394 0.929 1_655 S
C1347 C1348 1.358 . S
C1347 C1349 1.356 . S
C1347 H1395 0.930 . S
C1348 N1345 1.279 . S
C1348 C1347 1.358 . S
C1348 H1351 0.930 . S
C1349 C1346 1.348 . S
C1349 C1347 1.356 . S
H1350 C1344 0.930 . S
H1351 C1348 0.930 . S
C1352 C1354 1.348 . S
C1352 C1355 1.356 . S
C1352 O1382 1.325 . S
N1353 C1356 1.314 . S
N1353 C1357 1.279 . S
C1354 C1352 1.348 . S
C1354 C1356 1.353 . S
C1354 H1396 0.929 . S
C1355 C1352 1.356 . S
C1355 C1357 1.358 . S
C1355 H1397 0.930 . S
C1356 N1353 1.314 . S
C1356 C1354 1.353 . S
C1356 H1398 0.930 . S
C1357 N1353 1.279 . S
C1357 C1355 1.358 . S
C1357 H1399 0.930 . S
C1358 C1359 1.348 . S
C1358 C1360 1.356 . S
C1358 O1383 1.325 . S
C1359 C1358 1.348 . S
C1359 C1361 1.353 1_655 S
C1359 H1400 0.929 . S
C1360 C1358 1.356 . S
C1360 C1362 1.358 . S
C1360 H1401 0.930 . S
C1361 C1359 1.353 1_455 S
C1361 N1363 1.314 1_455 S
C1361 H1402 0.930 . S
C1362 C1360 1.358 . S
C1362 N1363 1.279 . S
C1362 H1403 0.930 . S
N1363 C1361 1.314 1_655 S
N1363 C1362 1.279 . S
C1364 C1366 1.353 . S
C1364 N1367 1.314 . S
C1364 H1370 0.930 . S
C1365 N1367 1.279 . S
C1365 C1368 1.358 . S
C1365 H1371 0.930 1_455 S
C1366 C1364 1.353 . S
C1366 C1369 1.348 . S
C1366 H1404 0.929 . S
N1367 Li1322 1.990 1_455 S
N1367 C1364 1.314 . S
N1367 C1365 1.279 . S
C1368 C1365 1.358 . S
C1368 C1369 1.356 . S
C1368 H1405 0.930 . S
C1369 C1366 1.348 . S
C1369 C1368 1.356 . S
H1370 C1364 0.930 . S
H1371 C1365 0.930 1_655 S
C1372 N1373 1.314 . S
C1372 C1374 1.353 . S
C1372 H1378 0.930 . S
N1373 Li1323 1.990 . S
N1373 C1372 1.314 . S
N1373 C1376 1.279 . S
C1374 C1372 1.353 . S
C1374 C1377 1.348 . S
C1374 H1406 0.929 . S
C1375 C1376 1.358 . S
C1375 C1377 1.356 . S
C1375 H1407 0.930 . S
C1376 N1373 1.279 . S
C1376 C1375 1.358 . S
C1376 H1379 0.930 . S
C1377 C1374 1.348 . S
C1377 C1375 1.356 . S
H1378 C1372 0.930 . S
H1379 C1376 0.930 . S
O1380 Li1320 1.956 . S
O1380 Li1321 1.970 . S
O1380 Li1322 1.961 . S
O1380 C1324 1.325 . S
O1381 Li1320 1.970 . S
O1381 Li1321 1.956 . S
O1381 Li1323 1.961 . S
O1381 C1330 1.325 . S
O1382 Li1320 1.961 . S
O1382 Li1322 1.956 . S
O1382 Li1323 1.970 . S
O1382 C1352 1.325 . S
O1383 Li1321 1.961 . S
O1383 Li1322 1.970 . S
O1383 Li1323 1.956 . S
O1383 C1358 1.325 . S
H1384 C1326 0.929 . S
H1385 C1327 0.930 . S
H1386 C1328 0.929 1_455 S
H1387 C1329 0.930 . S
H1388 C1331 0.930 . S
H1389 C1333 0.929 . S
H1390 C1334 0.930 . S
H1391 C1335 0.930 . S
H1392 C1338 0.930 . S
H1393 C1341 0.929 . S
H1394 C1346 0.929 1_455 S
H1395 C1347 0.930 . S
H1396 C1354 0.929 . S
H1397 C1355 0.930 . S
H1398 C1356 0.930 . S
H1399 C1357 0.930 . S
H1400 C1359 0.929 . S
H1401 C1360 0.930 . S
H1402 C1361 0.930 . S
H1403 C1362 0.930 . S
H1404 C1366 0.929 . S
H1405 C1368 0.930 . S
H1406 C1374 0.929 . S
H1407 C1375 0.930 . S
C1408 C1409 1.387 . S
C1408 H1412 0.950 . S
C1408 C1417 1.390 . S
C1409 C1408 1.387 . S
C1409 C1411 1.387 . S
H1410 C1417 0.950 . S
C1411 C1409 1.387 . S
C1411 C1413 1.390 . S
C1411 H1415 0.950 . S
H1412 C1408 0.950 . S
C1413 C1411 1.390 . S
C1413 C1414 1.387 . S
C1413 H1416 0.950 . S
C1414 C1413 1.387 . S
C1414 C1417 1.387 . S
H1415 C1411 0.950 . S
H1416 C1413 0.950 . S
C1417 C1408 1.390 . S
C1417 H1410 0.950 . S
C1417 C1414 1.387 . S
C1418 C1419 1.387 . S
C1418 H1422 0.950 . S
C1418 C1427 1.390 . S
C1419 C1418 1.387 . S
C1419 C1421 1.387 . S
H1420 C1427 0.950 . S
C1421 C1419 1.387 . S
C1421 C1423 1.390 . S
C1421 H1425 0.950 . S
H1422 C1418 0.950 . S
C1423 C1421 1.390 . S
C1423 C1424 1.387 . S
C1423 H1426 0.950 . S
C1424 C1423 1.387 . S
C1424 C1427 1.387 . S
H1425 C1421 0.950 . S
H1426 C1423 0.950 . S
C1427 C1418 1.390 . S
C1427 H1420 0.950 . S
C1427 C1424 1.387 . S
C1428 C1429 1.387 . S
C1428 H1432 0.950 . S
C1428 C1437 1.390 . S
C1429 C1428 1.387 . S
C1429 C1431 1.387 . S
H1430 C1437 0.950 . S
C1431 C1429 1.387 . S
C1431 C1433 1.390 . S
C1431 H1435 0.950 . S
H1432 C1428 0.950 . S
C1433 C1431 1.390 . S
C1433 C1434 1.387 . S
C1433 H1436 0.950 . S
C1434 C1433 1.387 . S
C1434 C1437 1.387 . S
H1435 C1431 0.950 . S
H1436 C1433 0.950 . S
C1437 C1428 1.390 . S
C1437 H1430 0.950 . S
C1437 C1434 1.387 . S
C1438 C1439 1.387 . S
C1438 H1442 0.950 . S
C1438 C1447 1.390 . S
C1439 C1438 1.387 . S
C1439 C1441 1.387 . S
H1440 C1447 0.950 . S
C1441 C1439 1.387 . S
C1441 C1443 1.390 . S
C1441 H1445 0.950 . S
H1442 C1438 0.950 . S
C1443 C1441 1.390 . S
C1443 C1444 1.387 . S
C1443 H1446 0.950 . S
C1444 C1443 1.387 . S
C1444 C1447 1.387 . S
H1445 C1441 0.950 . S
H1446 C1443 0.950 . S
C1447 C1438 1.390 . S
C1447 H1440 0.950 . S
C1447 C1444 1.387 . S
C1448 C1449 1.387 . S
C1448 H1452 0.950 . S
C1448 C1457 1.390 . S
C1449 C1448 1.387 . S
C1449 C1451 1.387 . S
H1450 C1457 0.950 . S
C1451 C1449 1.387 . S
C1451 C1453 1.390 . S
C1451 H1455 0.950 . S
H1452 C1448 0.950 . S
C1453 C1451 1.390 . S
C1453 C1454 1.387 . S
C1453 H1456 0.950 . S
C1454 C1453 1.387 . S
C1454 C1457 1.387 . S
H1455 C1451 0.950 . S
H1456 C1453 0.950 . S
C1457 C1448 1.390 . S
C1457 H1450 0.950 . S
C1457 C1454 1.387 . S
C1458 C1459 1.387 . S
C1458 H1462 0.950 . S
C1458 C1467 1.390 . S
C1459 C1458 1.387 . S
C1459 C1461 1.387 . S
H1460 C1467 0.950 . S
C1461 C1459 1.387 . S
C1461 C1463 1.390 . S
C1461 H1465 0.950 . S
H1462 C1458 0.950 . S
C1463 C1461 1.390 . S
C1463 C1464 1.387 . S
C1463 H1466 0.950 . S
C1464 C1463 1.387 . S
C1464 C1467 1.387 . S
H1465 C1461 0.950 . S
H1466 C1463 0.950 . S
C1467 C1458 1.390 . S
C1467 H1460 0.950 . S
C1467 C1464 1.387 . S
C1468 C1469 1.387 . S
C1468 H1472 0.950 . S
C1468 C1477 1.390 . S
C1469 C1468 1.387 . S
C1469 C1471 1.387 . S
H1470 C1477 0.950 . S
C1471 C1469 1.387 . S
C1471 C1473 1.390 . S
C1471 H1475 0.950 . S
H1472 C1468 0.950 . S
C1473 C1471 1.390 . S
C1473 C1474 1.387 . S
C1473 H1476 0.950 . S
C1474 C1473 1.387 . S
C1474 C1477 1.387 . S
H1475 C1471 0.950 . S
H1476 C1473 0.950 . S
C1477 C1468 1.390 . S
C1477 H1470 0.950 . S
C1477 C1474 1.387 . S
C1478 C1479 1.387 . S
C1478 H1482 0.950 . S
C1478 C1487 1.390 . S
C1479 C1478 1.387 . S
C1479 C1481 1.387 . S
H1480 C1487 0.950 . S
C1481 C1479 1.387 . S
C1481 C1483 1.390 . S
C1481 H1485 0.950 . S
H1482 C1478 0.950 . S
C1483 C1481 1.390 . S
C1483 C1484 1.387 . S
C1483 H1486 0.950 . S
C1484 C1483 1.387 . S
C1484 C1487 1.387 . S
H1485 C1481 0.950 . S
H1486 C1483 0.950 . S
C1487 C1478 1.390 . S
C1487 H1480 0.950 . S
C1487 C1484 1.387 . S
C1488 C1489 1.387 . S
C1488 H1492 0.950 . S
C1488 C1497 1.390 . S
C1489 C1488 1.387 . S
C1489 C1491 1.387 . S
H1490 C1497 0.950 . S
C1491 C1489 1.387 . S
C1491 C1493 1.390 . S
C1491 H1495 0.950 . S
H1492 C1488 0.950 . S
C1493 C1491 1.390 . S
C1493 C1494 1.387 . S
C1493 H1496 0.950 . S
C1494 C1493 1.387 . S
C1494 C1497 1.387 . S
H1495 C1491 0.950 . S
H1496 C1493 0.950 . S
C1497 C1488 1.390 . S
C1497 H1490 0.950 . S
C1497 C1494 1.387 . S
C1498 C1499 1.387 . S
C1498 H1502 0.950 . S
C1498 C1507 1.390 . S
C1499 C1498 1.387 . S
C1499 C1501 1.387 . S
H1500 C1507 0.950 . S
C1501 C1499 1.387 . S
C1501 C1503 1.390 . S
C1501 H1505 0.950 . S
H1502 C1498 0.950 . S
C1503 C1501 1.390 . S
C1503 C1504 1.387 . S
C1503 H1506 0.950 . S
C1504 C1503 1.387 . S
C1504 C1507 1.387 . S
H1505 C1501 0.950 . S
H1506 C1503 0.950 . S
C1507 C1498 1.390 . S
C1507 H1500 0.950 . S
C1507 C1504 1.387 . S
C1508 C1509 1.387 . S
C1508 H1512 0.950 . S
C1508 C1517 1.390 . S
C1509 C1508 1.387 . S
C1509 C1511 1.387 . S
H1510 C1517 0.950 . S
C1511 C1509 1.387 . S
C1511 C1513 1.390 . S
C1511 H1515 0.950 . S
H1512 C1508 0.950 . S
C1513 C1511 1.390 . S
C1513 C1514 1.387 . S
C1513 H1516 0.950 . S
C1514 C1513 1.387 . S
C1514 C1517 1.387 . S
H1515 C1511 0.950 . S
H1516 C1513 0.950 . S
C1517 C1508 1.390 . S
C1517 H1510 0.950 . S
C1517 C1514 1.387 . S
C1518 C1519 1.387 . S
C1518 H1522 0.950 . S
C1518 C1527 1.390 . S
C1519 C1518 1.387 . S
C1519 C1521 1.387 . S
H1520 C1527 0.950 . S
C1521 C1519 1.387 . S
C1521 C1523 1.390 . S
C1521 H1525 0.950 . S
H1522 C1518 0.950 . S
C1523 C1521 1.390 . S
C1523 C1524 1.387 . S
C1523 H1526 0.950 . S
C1524 C1523 1.387 . S
C1524 C1527 1.387 . S
H1525 C1521 0.950 . S
H1526 C1523 0.950 . S
C1527 C1518 1.390 . S
C1527 H1520 0.950 . S
C1527 C1524 1.387 . S
C1528 C1529 1.387 . S
C1528 H1532 0.950 . S
C1528 C1537 1.390 . S
C1529 C1528 1.387 . S
C1529 C1531 1.387 . S
H1530 C1537 0.950 . S
C1531 C1529 1.387 . S
C1531 C1533 1.390 . S
C1531 H1535 0.950 . S
H1532 C1528 0.950 . S
C1533 C1531 1.390 . S
C1533 C1534 1.387 . S
C1533 H1536 0.950 . S
C1534 C1533 1.387 . S
C1534 C1537 1.387 . S
H1535 C1531 0.950 . S
H1536 C1533 0.950 . S
C1537 C1528 1.390 . S
C1537 H1530 0.950 . S
C1537 C1534 1.387 . S
C1538 C1539 1.387 . S
C1538 H1542 0.950 . S
C1538 C1547 1.390 . S
C1539 C1538 1.387 . S
C1539 C1541 1.387 . S
H1540 C1547 0.950 . S
C1541 C1539 1.387 . S
C1541 C1543 1.390 . S
C1541 H1545 0.950 . S
H1542 C1538 0.950 . S
C1543 C1541 1.390 . S
C1543 C1544 1.387 . S
C1543 H1546 0.950 . S
C1544 C1543 1.387 . S
C1544 C1547 1.387 . S
H1545 C1541 0.950 . S
H1546 C1543 0.950 . S
C1547 C1538 1.390 . S
C1547 H1540 0.950 . S
C1547 C1544 1.387 . S
C1548 C1549 1.387 . S
C1548 H1552 0.950 . S
C1548 C1557 1.390 . S
C1549 C1548 1.387 . S
C1549 C1551 1.387 . S
H1550 C1557 0.950 . S
C1551 C1549 1.387 . S
C1551 C1553 1.390 . S
C1551 H1555 0.950 . S
H1552 C1548 0.950 . S
C1553 C1551 1.390 . S
C1553 C1554 1.387 . S
C1553 H1556 0.950 . S
C1554 C1553 1.387 . S
C1554 C1557 1.387 . S
H1555 C1551 0.950 . S
H1556 C1553 0.950 . S
C1557 C1548 1.390 . S
C1557 H1550 0.950 . S
C1557 C1554 1.387 . S
C1558 C1559 1.387 . S
C1558 H1562 0.950 . S
C1558 C1567 1.390 . S
C1559 C1558 1.387 . S
C1559 C1561 1.387 . S
H1560 C1567 0.950 . S
C1561 C1559 1.387 . S
C1561 C1563 1.390 . S
C1561 H1565 0.950 . S
H1562 C1558 0.950 . S
C1563 C1561 1.390 . S
C1563 C1564 1.387 . S
C1563 H1566 0.950 . S
C1564 C1563 1.387 . S
C1564 C1567 1.387 . S
H1565 C1561 0.950 . S
H1566 C1563 0.950 . S
C1567 C1558 1.390 . S
C1567 H1560 0.950 . S
C1567 C1564 1.387 . S
C1568 C1569 1.387 . S
C1568 H1572 0.950 . S
C1568 C1577 1.390 . S
C1569 C1568 1.387 . S
C1569 C1571 1.387 . S
H1570 C1577 0.950 . S
C1571 C1569 1.387 . S
C1571 C1573 1.390 . S
C1571 H1575 0.950 . S
H1572 C1568 0.950 . S
C1573 C1571 1.390 . S
C1573 C1574 1.387 . S
C1573 H1576 0.950 . S
C1574 C1573 1.387 . S
C1574 C1577 1.387 . S
H1575 C1571 0.950 . S
H1576 C1573 0.950 . S
C1577 C1568 1.390 . S
C1577 H1570 0.950 . S
C1577 C1574 1.387 . S
C1578 C1579 1.387 . S
C1578 H1582 0.950 . S
C1578 C1587 1.390 . S
C1579 C1578 1.387 . S
C1579 C1581 1.387 . S
H1580 C1587 0.950 . S
C1581 C1579 1.387 . S
C1581 C1583 1.390 . S
C1581 H1585 0.950 . S
H1582 C1578 0.950 . S
C1583 C1581 1.390 . S
C1583 C1584 1.387 . S
C1583 H1586 0.950 . S
C1584 C1583 1.387 . S
C1584 C1587 1.387 . S
H1585 C1581 0.950 . S
H1586 C1583 0.950 . S
C1587 C1578 1.390 . S
C1587 H1580 0.950 . S
C1587 C1584 1.387 . S
C1588 C1589 1.387 . S
C1588 H1592 0.950 . S
C1588 C1597 1.390 . S
C1589 C1588 1.387 . S
C1589 C1591 1.387 . S
H1590 C1597 0.950 . S
C1591 C1589 1.387 . S
C1591 C1593 1.390 . S
C1591 H1595 0.950 . S
H1592 C1588 0.950 . S
C1593 C1591 1.390 . S
C1593 C1594 1.387 . S
C1593 H1596 0.950 . S
C1594 C1593 1.387 . S
C1594 C1597 1.387 . S
H1595 C1591 0.950 . S
H1596 C1593 0.950 . S
C1597 C1588 1.390 . S
C1597 H1590 0.950 . S
C1597 C1594 1.387 . S
C1598 C1599 1.387 . S
C1598 H1602 0.950 . S
C1598 C1607 1.390 . S
C1599 C1598 1.387 . S
C1599 C1601 1.387 . S
H1600 C1607 0.950 . S
C1601 C1599 1.387 . S
C1601 C1603 1.390 . S
C1601 H1605 0.950 . S
H1602 C1598 0.950 . S
C1603 C1601 1.390 . S
C1603 C1604 1.387 . S
C1603 H1606 0.950 . S
C1604 C1603 1.387 . S
C1604 C1607 1.387 . S
H1605 C1601 0.950 . S
H1606 C1603 0.950 . S
C1607 C1598 1.390 . S
C1607 H1600 0.950 . S
C1607 C1604 1.387 . S
C1608 C1609 1.387 . S
C1608 H1612 0.950 . S
C1608 C1617 1.390 . S
C1609 C1608 1.387 . S
C1609 C1611 1.387 . S
H1610 C1617 0.950 . S
C1611 C1609 1.387 . S
C1611 C1613 1.390 . S
C1611 H1615 0.950 . S
H1612 C1608 0.950 . S
C1613 C1611 1.390 . S
C1613 C1614 1.387 . S
C1613 H1616 0.950 . S
C1614 C1613 1.387 . S
C1614 C1617 1.387 . S
H1615 C1611 0.950 . S
H1616 C1613 0.950 . S
C1617 C1608 1.390 . S
C1617 H1610 0.950 . S
C1617 C1614 1.387 . S
C1618 C1619 1.387 . S
C1618 H1622 0.950 . S
C1618 C1627 1.390 . S
C1619 C1618 1.387 . S
C1619 C1621 1.387 . S
H1620 C1627 0.950 . S
C1621 C1619 1.387 . S
C1621 C1623 1.390 . S
C1621 H1625 0.950 . S
H1622 C1618 0.950 . S
C1623 C1621 1.390 . S
C1623 C1624 1.387 . S
C1623 H1626 0.950 . S
C1624 C1623 1.387 . S
C1624 C1627 1.387 . S
H1625 C1621 0.950 . S
H1626 C1623 0.950 . S
C1627 C1618 1.390 . S
C1627 H1620 0.950 . S
C1627 C1624 1.387 . S
C1628 C1629 1.387 . S
C1628 H1632 0.950 . S
C1628 C1637 1.390 . S
C1629 C1628 1.387 . S
C1629 C1631 1.387 . S
H1630 C1637 0.950 . S
C1631 C1629 1.387 . S
C1631 C1633 1.390 . S
C1631 H1635 0.950 . S
H1632 C1628 0.950 . S
C1633 C1631 1.390 . S
C1633 C1634 1.387 . S
C1633 H1636 0.950 . S
C1634 C1633 1.387 . S
C1634 C1637 1.387 . S
H1635 C1631 0.950 . S
H1636 C1633 0.950 . S
C1637 C1628 1.390 . S
C1637 H1630 0.950 . S
C1637 C1634 1.387 . S
C1638 C1639 1.387 . S
C1638 H1642 0.950 . S
C1638 C1647 1.390 . S
C1639 C1638 1.387 . S
C1639 C1641 1.387 . S
H1640 C1647 0.950 . S
C1641 C1639 1.387 . S
C1641 C1643 1.390 . S
C1641 H1645 0.950 . S
H1642 C1638 0.950 . S
C1643 C1641 1.390 . S
C1643 C1644 1.387 . S
C1643 H1646 0.950 . S
C1644 C1643 1.387 . S
C1644 C1647 1.387 . S
H1645 C1641 0.950 . S
H1646 C1643 0.950 . S
C1647 C1638 1.390 . S
C1647 H1640 0.950 . S
C1647 C1644 1.387 . S
C1648 C1649 1.387 . S
C1648 H1652 0.950 . S
C1648 C1657 1.390 . S
C1649 C1648 1.387 . S
C1649 C1651 1.387 . S
H1650 C1657 0.950 . S
C1651 C1649 1.387 . S
C1651 C1653 1.390 . S
C1651 H1655 0.950 . S
H1652 C1648 0.950 . S
C1653 C1651 1.390 . S
C1653 C1654 1.387 . S
C1653 H1656 0.950 . S
C1654 C1653 1.387 . S
C1654 C1657 1.387 . S
H1655 C1651 0.950 . S
H1656 C1653 0.950 . S
C1657 C1648 1.390 . S
C1657 H1650 0.950 . S
C1657 C1654 1.387 . S
C1658 C1659 1.387 . S
C1658 H1662 0.950 . S
C1658 C1667 1.390 . S
C1659 C1658 1.387 . S
C1659 C1661 1.387 . S
H1660 C1667 0.950 . S
C1661 C1659 1.387 . S
C1661 C1663 1.390 . S
C1661 H1665 0.950 . S
H1662 C1658 0.950 . S
C1663 C1661 1.390 . S
C1663 C1664 1.387 . S
C1663 H1666 0.950 . S
C1664 C1663 1.387 . S
C1664 C1667 1.387 . S
H1665 C1661 0.950 . S
H1666 C1663 0.950 . S
C1667 C1658 1.390 . S
C1667 H1660 0.950 . S
C1667 C1664 1.387 . S
C1668 C1669 1.387 . S
C1668 H1672 0.950 . S
C1668 C1677 1.390 . S
C1669 C1668 1.387 . S
C1669 C1671 1.387 . S
H1670 C1677 0.950 . S
C1671 C1669 1.387 . S
C1671 C1673 1.390 . S
C1671 H1675 0.950 . S
H1672 C1668 0.950 . S
C1673 C1671 1.390 . S
C1673 C1674 1.387 . S
C1673 H1676 0.950 . S
C1674 C1673 1.387 . S
C1674 C1677 1.387 . S
H1675 C1671 0.950 . S
H1676 C1673 0.950 . S
C1677 C1668 1.390 . S
C1677 H1670 0.950 . S
C1677 C1674 1.387 . S
C1678 C1679 1.387 . S
C1678 H1682 0.950 . S
C1678 C1687 1.390 . S
C1679 C1678 1.387 . S
C1679 C1681 1.387 . S
H1680 C1687 0.950 . S
C1681 C1679 1.387 . S
C1681 C1683 1.390 . S
C1681 H1685 0.950 . S
H1682 C1678 0.950 . S
C1683 C1681 1.390 . S
C1683 C1684 1.387 . S
C1683 H1686 0.950 . S
C1684 C1683 1.387 . S
C1684 C1687 1.387 . S
H1685 C1681 0.950 . S
H1686 C1683 0.950 . S
C1687 C1678 1.390 . S
C1687 H1680 0.950 . S
C1687 C1684 1.387 . S
C1688 C1689 1.387 . S
C1688 H1692 0.950 . S
C1688 C1697 1.390 1_544 S
C1689 C1688 1.387 . S
C1689 C1691 1.387 . S
H1690 C1697 0.950 . S
C1691 C1689 1.387 . S
C1691 C1693 1.390 1_544 S
C1691 H1695 0.950 . S
H1692 C1688 0.950 . S
C1693 C1691 1.390 1_566 S
C1693 C1694 1.387 . S
C1693 H1696 0.950 . S
C1694 C1693 1.387 . S
C1694 C1697 1.387 . S
H1695 C1691 0.950 . S
H1696 C1693 0.950 . S
C1697 C1688 1.390 1_566 S
C1697 H1690 0.950 . S
C1697 C1694 1.387 . S
C1698 C1699 1.387 . S
C1698 H1702 0.950 . S
C1698 C1707 1.390 1_456 S
C1699 C1698 1.387 . S
C1699 C1701 1.387 . S
H1700 C1707 0.950 . S
C1701 C1699 1.387 . S
C1701 C1703 1.390 1_456 S
C1701 H1705 0.950 . S
H1702 C1698 0.950 . S
C1703 C1701 1.390 1_654 S
C1703 C1704 1.387 . S
C1703 H1706 0.950 . S
C1704 C1703 1.387 . S
C1704 C1707 1.387 . S
H1705 C1701 0.950 . S
H1706 C1703 0.950 . S
C1707 C1698 1.390 1_654 S
C1707 H1700 0.950 . S
C1707 C1704 1.387 . S
C1708 C1709 1.387 . S
C1708 H1712 0.950 . S
C1708 C1717 1.390 1_546 S
C1709 C1708 1.387 . S
C1709 C1711 1.387 . S
H1710 C1717 0.950 . S
C1711 C1709 1.387 . S
C1711 C1713 1.390 1_546 S
C1711 H1715 0.950 . S
H1712 C1708 0.950 . S
C1713 C1711 1.390 1_564 S
C1713 C1714 1.387 . S
C1713 H1716 0.950 . S
C1714 C1713 1.387 . S
C1714 C1717 1.387 . S
H1715 C1711 0.950 . S
H1716 C1713 0.950 . S
C1717 C1708 1.390 1_564 S
C1717 H1710 0.950 . S
C1717 C1714 1.387 . S
C1718 C1719 1.387 . S
C1718 H1722 0.950 . S
C1718 C1727 1.390 1_656 S
C1719 C1718 1.387 . S
C1719 C1721 1.387 . S
H1720 C1727 0.950 . S
C1721 C1719 1.387 . S
C1721 C1723 1.390 1_656 S
C1721 H1725 0.950 . S
H1722 C1718 0.950 . S
C1723 C1721 1.390 1_454 S
C1723 C1724 1.387 . S
C1723 H1726 0.950 . S
C1724 C1723 1.387 . S
C1724 C1727 1.387 . S
H1725 C1721 0.950 . S
H1726 C1723 0.950 . S
C1727 C1718 1.390 1_454 S
C1727 H1720 0.950 . S
C1727 C1724 1.387 . S
C1409 C49 1.120 . S
C1414 C636 1.122 . S
C1419 C145 1.122 . S
C1424 C381 1.120 . S
C1429 C469 1.120 . S
C1434 C196 1.122 . S
C1439 C321 1.120 . S
C1444 C577 1.122 . S
C1449 C753 1.120 . S
C1454 C1340 1.122 . S
C1459 C1085 1.122 . S
C1464 C849 1.120 . S
C1469 C1173 1.122 . S
C1474 C900 1.120 . S
C1479 C1289 1.120 . S
C1484 C1017 1.122 . S
C1489 C20 1.344 . S
C1494 C997 1.474 . S
C1499 C117 1.348 . S
C1504 C761 1.479 . S
C1509 C812 1.474 . S
C1514 C225 1.344 . S
C1519 C293 1.353 . S
C1524 C909 1.481 . S
C1529 C409 1.344 . S
C1534 C1193 1.474 . S
C1539 C1281 1.481 . S
C1544 C497 1.353 . S
C1549 C548 1.344 . S
C1554 C1377 1.474 . S
C1559 C1076 1.479 . S
C1564 C665 1.349 . S
C1569 C724 1.344 . S
C1574 C284 1.474 . S
C1579 C57 1.481 . S
C1584 C821 1.353 . S
C1589 C929 1.349 . S
C1594 C108 1.476 . S
C1599 C205 1.481 . S
C1604 C988 1.353 . S
C1609 C1113 1.344 . S
C1614 C489 1.474 . S
C1619 C585 1.481 . S
C1624 C1201 1.353 . S
C1629 C673 1.476 . S
C1634 C1261 1.348 . S
C1639 C372 1.479 . S
C1644 C1369 1.349 . S
C1649 C401 1.686 . S
C1654 C29 1.686 . S
C1659 C460 1.684 . S
C1664 C137 1.684 . S
C1669 C233 1.688 . S
C1674 C557 1.688 . S
C1679 C645 1.684 . S
C1684 C313 1.684 . S
C1689 C1105 1.686 . S
C1694 C733 1.686 . S
C1699 C1164 1.684 . S
C1704 C841 1.684 . S
C1709 C937 1.686 . S
C1714 C1252 1.686 . S
C1719 C1349 1.684 . S
C1724 C1025 1.684 . S
