# Generated by pormake.
# Topology zfs, (5)-cn, num edge types: 1
# Building blocks:
#     Node 0, Type 0, BuildingBlock: XOMCOT_clean_sbu_1, # of connection points: 5
#     Node 1, Type 0, BuildingBlock: XOMCOT_clean_sbu_1, # of connection points: 5
#     Node 2, Type 0, BuildingBlock: XOMCOT_clean_sbu_1, # of connection points: 5
#     Node 3, Type 0, BuildingBlock: XOMCOT_clean_sbu_1, # of connection points: 5
#     Node 4, Type 0, BuildingBlock: XOMCOT_clean_sbu_1, # of connection points: 5
#     Node 5, Type 0, BuildingBlock: XOMCOT_clean_sbu_1, # of connection points: 5
#     Node 6, Type 0, BuildingBlock: XOMCOT_clean_sbu_1, # of connection points: 5
#     Node 7, Type 0, BuildingBlock: XOMCOT_clean_sbu_1, # of connection points: 5
#     Edge 8, Type (0, 0), BuildingBlock: AJUNOK_clean_linker_0, # of connection points: 2
#     Edge 9, Type (0, 0), BuildingBlock: AJUNOK_clean_linker_0, # of connection points: 2
#     Edge 10, Type (0, 0), BuildingBlock: AJUNOK_clean_linker_0, # of connection points: 2
#     Edge 11, Type (0, 0), BuildingBlock: AJUNOK_clean_linker_0, # of connection points: 2
#     Edge 12, Type (0, 0), BuildingBlock: AJUNOK_clean_linker_0, # of connection points: 2
#     Edge 13, Type (0, 0), BuildingBlock: AJUNOK_clean_linker_0, # of connection points: 2
#     Edge 14, Type (0, 0), BuildingBlock: AJUNOK_clean_linker_0, # of connection points: 2
#     Edge 15, Type (0, 0), BuildingBlock: AJUNOK_clean_linker_0, # of connection points: 2
#     Edge 16, Type (0, 0), BuildingBlock: AJUNOK_clean_linker_0, # of connection points: 2
#     Edge 17, Type (0, 0), BuildingBlock: AJUNOK_clean_linker_0, # of connection points: 2
#     Edge 18, Type (0, 0), BuildingBlock: AJUNOK_clean_linker_0, # of connection points: 2
#     Edge 19, Type (0, 0), BuildingBlock: AJUNOK_clean_linker_0, # of connection points: 2
#     Edge 20, Type (0, 0), BuildingBlock: AJUNOK_clean_linker_0, # of connection points: 2
#     Edge 21, Type (0, 0), BuildingBlock: AJUNOK_clean_linker_0, # of connection points: 2
#     Edge 22, Type (0, 0), BuildingBlock: AJUNOK_clean_linker_0, # of connection points: 2
#     Edge 23, Type (0, 0), BuildingBlock: AJUNOK_clean_linker_0, # of connection points: 2
#     Edge 24, Type (0, 0), BuildingBlock: AJUNOK_clean_linker_0, # of connection points: 2
#     Edge 25, Type (0, 0), BuildingBlock: AJUNOK_clean_linker_0, # of connection points: 2
#     Edge 26, Type (0, 0), BuildingBlock: AJUNOK_clean_linker_0, # of connection points: 2
#     Edge 27, Type (0, 0), BuildingBlock: AJUNOK_clean_linker_0, # of connection points: 2
# Relax obj value: 0.169
# Max RMSD: 0.162
# Mean RMSD: 0.162
data_MOF--net-zfs--node1-XOMCOT_clean_sbu_1--edge1-AJUNOK_clean_linker_0
_symmetry_space_group_name_H-M    P1
_symmetry_Int_Tables_number       1
_symmetry_cell_setting            triclinic
loop_
_symmetry_equiv_pos_as_xyz
'x, y, z'
_cell_length_a     25.422934
_cell_length_b     25.452131
_cell_length_c     31.629602
_cell_angle_alpha  90.076052
_cell_angle_beta   90.113051
_cell_angle_gamma 90.395954
loop_
_atom_site_label
_atom_site_type_symbol
_atom_site_fract_x
_atom_site_fract_y
_atom_site_fract_z
_atom_type_partial_charge
C0 C 0.1956 0.22311 0.22605 0.0
C1 C 0.22312 0.22351 0.26344 0.0
N2 N 0.19042 0.23922 0.29431 0.0
N3 N 0.14551 0.23768 0.23349 0.0
C4 C 0.14386 0.24777 0.27531 0.0
H5 H 0.21133 0.21171 0.19578 0.0
Co6 Co 0.0898 0.24304 0.19551 0.0
C7 C 0.04389 0.17218 0.26084 0.0
O8 O 0.08086 0.13757 0.25351 0.0
N9 N 0.03558 0.24823 0.15738 0.0
C10 C 0.97855 0.21892 0.10986 0.0
C11 C 0.99473 0.21505 0.15132 0.0
C12 C 0.04227 0.27302 0.1203 0.0
N13 N 1.00917 0.25491 0.09035 0.0
O14 O 0.10615 0.17462 0.17151 0.0
H15 H 0.98263 0.18489 0.17337 0.0
H16 H 0.07637 0.29732 0.1136 0.0
O17 O 0.04215 0.21415 0.23862 0.0
C18 C 0.13605 0.18364 0.1398 0.0
O19 O 0.15121 0.23234 0.13287 0.0
N20 N 0.07688 0.31176 0.21407 0.0
C21 C 0.06395 0.41961 0.22719 0.0
C22 C 1.02219 0.38418 0.23438 0.0
C23 C 1.02943 0.33018 0.2275 0.0
C24 C 0.11789 0.34548 0.20753 0.0
C25 C 0.11266 0.39917 0.21481 0.0
H26 H 0.99646 0.30354 0.2312 0.0
H27 H 0.15484 0.33067 0.19572 0.0
H28 H 0.1088 0.26039 0.2917 0.0
H29 H 0.26325 0.21064 0.2678 0.0
H30 H 0.95115 0.19267 0.09406 0.0
H31 H 0.98387 0.39821 0.24389 0.0
H32 H 0.14657 0.42448 0.21024 0.0
C33 C 0.79641 0.20231 0.48086 0.0
C34 C 0.80648 0.2348 0.51471 0.0
N35 N 0.84251 0.21132 0.53942 0.0
N36 N 0.82549 0.15849 0.48476 0.0
C37 C 0.85345 0.16525 0.52045 0.0
H38 H 0.76838 0.20918 0.45573 0.0
Co39 Co 0.82228 0.10181 0.44881 0.0
C40 C 0.83176 1.01393 0.51222 0.0
O41 O 0.78546 0.9954 0.50098 0.0
N42 N 0.81956 0.04728 0.41029 0.0
C43 C 0.81877 0.97871 0.36695 0.0
C44 C 0.82066 0.99434 0.40864 0.0
C45 C 0.8186 0.06244 0.36972 0.0
N46 N 0.81795 1.02204 0.34235 0.0
O47 O 0.89308 0.11664 0.42843 0.0
H48 H 0.8238 0.96813 0.43516 0.0
H49 H 0.81867 0.1033 0.36083 0.0
O50 O 0.85083 0.05465 0.49378 0.0
C51 C 0.89764 0.15548 0.40302 0.0
O52 O 0.85789 0.18788 0.3994 0.0
N53 N 0.75092 0.09004 0.46507 0.0
C54 C 0.64319 0.07981 0.48236 0.0
C55 C 0.67996 0.08506 0.51534 0.0
C56 C 0.73359 0.09097 0.50601 0.0
C57 C 0.71517 0.08773 0.43281 0.0
C58 C 0.66149 0.08184 0.4407 0.0
H59 H 0.76125 0.09612 0.53172 0.0
H60 H 0.72776 0.09154 0.40045 0.0
H61 H 0.87916 0.13577 0.53346 0.0
H62 H 0.78765 0.27191 0.52139 0.0
H63 H 0.81742 0.93837 0.35642 0.0
H64 H 0.66733 0.08573 0.54801 0.0
H65 H 0.63447 0.07909 0.41426 0.0
C66 C 0.89283 0.77542 0.7254 0.0
C67 C 0.86446 0.77862 0.76229 0.0
N68 N 0.88416 0.8188 0.78524 0.0
N69 N 0.93007 0.81336 0.72553 0.0
C70 C 0.92285 0.84004 0.76173 0.0
H71 H 0.88875 0.74556 0.70123 0.0
Co72 Co 0.98454 0.81967 0.68778 0.0
C73 C 0.07551 0.84233 0.7433 0.0
O74 O 0.10153 0.8075 0.72099 0.0
N75 N 0.03764 0.82706 0.64785 0.0
C76 C 0.08918 0.86971 0.60227 0.0
C77 C 0.07465 0.86526 0.64406 0.0
C78 C 1.02978 0.81013 0.60802 0.0
N79 N 0.06068 0.83476 0.57987 0.0
O80 O 0.95721 0.88645 0.66779 0.0
H81 H 0.08517 0.8931 0.66852 0.0
H82 H 0.99589 0.78708 0.59863 0.0
O83 O 1.02854 0.854 0.73226 0.0
C84 C 0.92424 0.87588 0.63834 0.0
O85 O 0.91058 0.8264 0.63301 0.0
N86 N 1.00756 0.75088 0.70428 0.0
C87 C 1.01947 0.64446 0.7254 0.0
C88 C 1.02259 0.68347 0.75662 0.0
C89 C 1.01544 0.73635 0.74556 0.0
C90 C 1.0046 0.71287 0.67383 0.0
C91 C 1.01126 0.65987 0.68352 0.0
H92 H 1.01326 0.76509 0.77064 0.0
H93 H 0.99323 0.72248 0.64214 0.0
H94 H 0.94653 0.87344 0.7713 0.0
H95 H 0.83388 0.75173 0.77253 0.0
H96 H 0.11435 0.89981 0.58887 0.0
H97 H 1.02732 0.67295 0.78957 0.0
H98 H 1.00753 0.63083 0.65859 0.0
C99 C 0.2897 0.88633 0.97499 0.0
C100 C 0.28864 0.85503 0.01039 0.0
N101 N 0.24922 0.87166 0.03528 0.0
N102 N 0.25132 0.92249 0.97794 0.0
C103 C 0.22673 0.91193 0.01464 0.0
H104 H 0.31806 0.88451 0.94959 0.0
Co105 Co 0.24198 0.97815 0.94124 0.0
C106 C 0.21706 0.06512 -0.00098 0.0
O107 O 0.25264 0.09274 0.9785 0.0
N108 N 0.23142 1.03169 0.90239 0.0
C109 C 0.18666 0.08216 0.85755 0.0
C110 C 0.19279 0.0679 0.89936 0.0
C111 C 0.24672 1.02392 0.86225 0.0
N112 N 0.22126 0.05448 0.83463 0.0
O113 O 0.17674 0.94781 0.9208 0.0
H114 H 0.16596 0.07818 0.92446 0.0
H115 H 0.27022 0.99078 0.8525 0.0
O116 O 0.20593 1.0185 0.98647 0.0
C117 C 0.18869 0.9138 0.89271 0.0
O118 O 0.23851 0.90139 0.88856 0.0
N119 N 0.30987 1.00476 0.95787 0.0
C120 C 0.41686 1.018 0.97812 0.0
C121 C 0.37889 1.01294 0.01009 0.0
C122 C 0.32565 1.00657 -0.00068 0.0
C123 C 0.34659 1.01074 0.92675 0.0
C124 C 0.39959 1.01861 0.93612 0.0
H125 H 0.29767 0.99949 0.02438 0.0
H126 H 0.33648 1.0059 0.89415 0.0
H127 H 0.19488 0.93509 0.02731 0.0
H128 H 0.31546 0.82347 0.01773 0.0
H129 H 0.1562 0.10699 0.84465 0.0
H130 H 0.3903 1.01067 0.04302 0.0
H131 H 0.42728 1.02241 0.9103 0.0
C132 C 0.18562 0.7828 0.26733 0.0
C133 C 0.2165 0.78536 0.23172 0.0
N134 N 0.19571 0.82148 0.20564 0.0
N135 N 0.14562 0.81697 0.2634 0.0
C136 C 0.15318 0.84036 0.22573 0.0
H137 H 0.19019 0.75564 0.29333 0.0
Co138 Co 0.08888 0.82117 0.29948 0.0
C139 C 0.99949 0.84323 0.24254 0.0
O140 O 0.97297 0.80807 0.26443 0.0
N141 N 0.03332 0.82629 0.33757 0.0
C142 C 0.98237 0.87037 0.38235 0.0
C143 C 0.99842 0.86603 0.341 0.0
C144 C 0.03789 0.80773 0.37722 0.0
N145 N 1.00773 0.83372 0.40497 0.0
O146 O 0.1145 0.88794 0.32235 0.0
H147 H 0.99113 0.89521 0.31694 0.0
H148 H 0.06983 0.78298 0.38727 0.0
O149 O 0.04638 0.85546 0.25411 0.0
C150 C 0.14441 0.87501 0.35322 0.0
O151 O 0.15713 0.8252 0.35638 0.0
N152 N 0.06804 0.75241 0.28123 0.0
C153 C 0.05583 0.64587 0.25916 0.0
C154 C 0.04983 0.68572 0.22884 0.0
C155 C 0.05809 0.73841 0.24015 0.0
C156 C 0.07476 0.71399 0.31075 0.0
C157 C 0.06828 0.66094 0.30063 0.0
H158 H 0.05842 0.76746 0.21533 0.0
H159 H 0.08901 0.72373 0.34178 0.0
H160 H 0.12695 0.86922 0.21234 0.0
H161 H 0.24952 0.76031 0.22448 0.0
H162 H 0.95911 0.90188 0.39551 0.0
H163 H 0.04021 0.67646 0.19633 0.0
H164 H 0.07565 0.63181 0.32482 0.0
C165 C 0.2744 0.18998 0.52881 0.0
C166 C 0.26901 0.22455 0.49574 0.0
N167 N 0.23451 0.20354 0.468 0.0
N168 N 0.24345 0.14765 0.52175 0.0
C169 C 0.21903 0.15744 0.48491 0.0
H170 H 0.3004 0.19453 0.5557 0.0
Co171 Co 0.24115 0.08886 0.55543 0.0
C172 C 0.2226 1.00073 0.49551 0.0
O173 O 0.26109 0.9767 0.51527 0.0
N174 N 0.23782 1.03189 0.59207 0.0
C175 C 0.19699 0.97615 0.63555 0.0
C176 C 0.20194 0.99238 0.59418 0.0
C177 C 0.25299 0.0392 0.63242 0.0
N178 N 0.22933 1.00594 0.65932 0.0
O179 O 0.17318 0.10881 0.57724 0.0
H180 H 0.17507 0.98146 0.56913 0.0
H181 H 0.27315 0.07432 0.6431 0.0
O182 O 0.20865 0.04645 0.50827 0.0
C183 C 0.17826 0.14129 0.60791 0.0
O184 O 0.22494 0.16205 0.61487 0.0
N185 N 0.31091 0.07252 0.5376 0.0
C186 C 0.41786 0.06551 0.5166 0.0
C187 C 0.37905 0.06534 0.48495 0.0
C188 C 0.3258 0.06942 0.49607 0.0
C189 C 0.34864 0.07463 0.56833 0.0
C190 C 0.40189 0.07033 0.55868 0.0
H191 H 0.29681 0.0721 0.47116 0.0
H192 H 0.33839 0.08295 0.60049 0.0
H193 H 0.19219 0.13033 0.46971 0.0
H194 H 0.28959 0.26161 0.4921 0.0
H195 H 0.16778 0.94907 0.64776 0.0
H196 H 0.38981 0.0632 0.45188 0.0
H197 H 0.43055 0.07353 0.58396 0.0
C198 C 0.88453 0.23061 0.78136 0.0
C199 C 0.85819 0.22987 0.74339 0.0
N200 N 0.89236 0.24358 0.71283 0.0
N201 N 0.93518 0.24439 0.77459 0.0
C202 C 0.93825 0.25331 0.73269 0.0
H203 H 0.86768 0.22043 0.81156 0.0
Co204 Co 0.99099 0.24846 0.81256 0.0
C205 C 1.03281 0.1741 0.74857 0.0
O206 O 0.99313 0.14223 0.75627 0.0
N207 N 0.0456 0.25251 0.85048 0.0
C208 C 0.1013 0.22049 0.89753 0.0
C209 C 0.08508 0.2181 0.85601 0.0
C210 C 0.03994 0.27663 0.88798 0.0
N211 N 0.07219 0.25686 0.91762 0.0
O212 O 0.97147 0.18093 0.83688 0.0
H213 H 0.09586 0.188 0.83356 0.0
H214 H 1.00681 0.30159 0.89516 0.0
O215 O 0.0373 0.21675 0.76986 0.0
C216 C 0.94137 0.19101 0.86816 0.0
O217 O 0.92892 0.24028 0.87521 0.0
N218 N 1.00637 0.31648 0.79352 0.0
C219 C 1.01523 0.4223 0.77124 0.0
C220 C 0.05525 0.38666 0.7609 0.0
C221 C 0.05011 0.33354 0.77249 0.0
C222 C 0.96846 0.35104 0.80532 0.0
C223 C 0.97196 0.40394 0.7944 0.0
H224 H 0.08114 0.30645 0.76481 0.0
H225 H 0.93492 0.33715 0.8232 0.0
H226 H 0.97389 0.2661 0.71704 0.0
H227 H 0.81769 0.21796 0.7384 0.0
H228 H 0.12733 0.19293 0.91293 0.0
H229 H 0.08964 0.39957 0.74353 0.0
H230 H 0.94096 0.43034 0.80404 0.0
C231 C 0.78383 0.87734 0.01389 0.0
C232 C 0.79043 0.8478 0.978 0.0
N233 N 0.82812 0.8709 0.95458 0.0
N234 N 0.81695 0.91895 0.01276 0.0
C235 C 0.84369 0.91385 0.9763 0.0
H236 H 0.75521 0.87022 0.03851 0.0
Co237 Co 0.81587 0.97272 0.05178 0.0
C238 C 0.84323 0.0678 0.00014 0.0
O239 O 0.80648 0.09445 0.01943 0.0
N240 N 0.81278 1.02646 0.09359 0.0
C241 C 0.77448 0.07698 0.14216 0.0
C242 C 0.77519 0.0631 0.10026 0.0
C243 C 0.83584 1.02157 0.13182 0.0
N244 N 0.81179 0.04938 0.16221 0.0
O245 O 0.8842 0.95045 0.07357 0.0
H246 H 0.74538 0.07458 0.07777 0.0
H247 H 0.86747 0.99537 0.1383 0.0
O248 O 0.85123 1.02 0.01052 0.0
C249 C 0.87992 0.90908 0.09627 0.0
O250 O 0.83331 0.88669 0.09884 0.0
N251 N 0.74761 0.98913 0.03287 0.0
C252 C 0.64155 1.00376 0.01391 0.0
C253 C 0.68035 1.01303 0.98321 0.0
C254 C 0.73343 1.00502 0.99324 0.0
C255 C 0.70998 0.97632 0.06186 0.0
C256 C 0.65685 0.98457 0.05344 0.0
H257 H 0.76276 1.01046 0.96896 0.0
H258 H 0.7216 0.9604 0.09215 0.0
H259 H 0.87185 0.9424 0.96469 0.0
H260 H 0.76833 0.81296 0.96916 0.0
H261 H 0.74497 0.10098 0.15729 0.0
H262 H 0.66968 1.02611 0.95179 0.0
H263 H 0.62788 0.97497 0.07733 0.0
C264 C 1.0297 0.55238 0.27563 0.0
C265 C 0.05337 0.58877 0.24779 0.0
C266 C 1.03171 0.49799 0.26813 0.0
C267 C 0.05735 0.47758 0.23238 0.0
H268 H 1.01021 0.56597 0.30399 0.0
H269 H 1.01458 0.47171 0.29131 0.0
S270 S 0.12165 0.55564 0.14754 0.0
N271 N 0.10176 0.59991 0.18203 0.0
N272 N 0.10262 0.49835 0.16672 0.0
C273 C 0.07888 0.51355 0.20318 0.0
C274 C 0.07753 0.56886 0.21111 0.0
C275 C 0.54938 0.1054 0.46869 0.0
C276 C 0.58576 0.07423 0.49087 0.0
C277 C 0.49509 0.10117 0.47618 0.0
C278 C 0.47499 0.0656 0.50618 0.0
H279 H 0.56304 0.13415 0.44592 0.0
H280 H 0.46882 0.12707 0.45924 0.0
S281 S 0.55292 0.97131 0.56963 0.0
N282 N 0.59735 1.00401 0.54196 0.0
N283 N 0.49544 0.99613 0.55613 0.0
C284 C 0.51078 0.03323 0.52777 0.0
C285 C 0.56606 0.03756 0.52015 0.0
C286 C 0.06135 0.56449 0.75793 0.0
C287 C 1.01876 0.5877 0.73662 0.0
C288 C 0.06088 0.51056 0.768 0.0
C289 C 1.01739 0.47833 0.75776 0.0
H290 H 0.09531 0.58811 0.76659 0.0
H291 H 0.09419 0.49422 0.78471 0.0
S292 S 0.89605 0.52035 0.70225 0.0
N293 N 0.93206 0.57441 0.70587 0.0
N294 N 0.93114 0.47363 0.72464 0.0
C295 C 0.97474 0.50124 0.7364 0.0
C296 C 0.97543 0.55574 0.7259 0.0
C297 C 0.50789 0.98591 0.96232 0.0
C298 C 0.47445 1.01702 0.98749 0.0
C299 C 0.56203 0.9831 0.97033 0.0
C300 C 0.58491 1.01064 0.00421 0.0
H301 H 0.49201 0.96251 0.93662 0.0
H302 H 0.58592 0.95798 0.95058 0.0
S303 S 0.51638 0.10003 0.07821 0.0
N304 N 0.46938 0.07825 0.04644 0.0
N305 N 0.57104 0.07151 0.06225 0.0
C306 C 0.55241 0.04223 0.02946 0.0
C307 C 0.49725 0.04569 0.02099 0.0
C308 C 0.17188 0.21073 0.40924 0.0
C309 C 0.22212 0.221 0.42603 0.0
C310 C 0.16107 0.21906 0.36648 0.0
C311 C 0.20023 0.23791 0.33898 0.0
H312 H 0.14121 0.19436 0.42906 0.0
H313 H 0.12258 0.20814 0.35452 0.0
S314 S 0.33671 0.27555 0.36785 0.0
N315 N 0.31061 0.2538 0.41232 0.0
N316 N 0.28957 0.27112 0.33201 0.0
C317 C 0.24975 0.25108 0.35575 0.0
C318 C 0.26087 0.2424 0.39933 0.0
C319 C 0.82131 0.24807 0.6092 0.0
C320 C 0.85827 0.22653 0.58124 0.0
C321 C 0.83345 0.25531 0.65195 0.0
C322 C 0.88297 0.24149 0.66809 0.0
H323 H 0.78191 0.25695 0.59844 0.0
H324 H 0.80348 0.27062 0.67279 0.0
S325 S 0.99477 0.18761 0.60672 0.0
N326 N 0.94752 0.19559 0.57155 0.0
N327 N 0.96998 0.20721 0.65223 0.0
C328 C 0.92106 0.22203 0.63999 0.0
C329 C 0.90873 0.215 0.59646 0.0
C330 C 0.80476 0.84116 0.88303 0.0
C331 C 0.84319 0.85691 0.9125 0.0
C332 C 0.81846 0.82892 0.84142 0.0
C333 C 0.871 0.83196 0.82801 0.0
H334 H 0.76373 0.83931 0.89205 0.0
H335 H 0.78773 0.81768 0.81938 0.0
S336 S 0.98685 0.86601 0.89461 0.0
N337 N 0.93594 0.87201 0.92654 0.0
N338 N 0.96221 0.84793 0.84845 0.0
C339 C 0.91 0.84653 0.85755 0.0
C340 C 0.89592 0.85932 0.8998 0.0
C341 C 0.1842 0.85138 0.0901 0.0
C342 C 0.23697 0.85521 0.07746 0.0
C343 C 0.17107 0.8398 0.13194 0.0
C344 C 0.21032 0.83199 0.16266 0.0
H345 H 0.15292 0.85765 0.06741 0.0
H346 H 0.12988 0.83682 0.14029 0.0
S347 S 0.35433 0.84078 0.14611 0.0
N348 N 0.32873 0.85205 0.09898 0.0
N349 N 0.30395 0.83032 0.17796 0.0
C350 C 0.26326 0.83546 0.15041 0.0
C351 C 0.27664 0.84711 0.1077 0.0
C352 C 1.02856 0.20921 0.02374 0.0
C353 C 1.02126 0.25639 0.0461 0.0
C354 C 0.04762 0.20952 0.98232 0.0
C355 C 0.05962 0.25704 0.96176 0.0
H356 H 1.0207 0.17181 0.03874 0.0
H357 H 0.05185 0.17243 0.9659 0.0
S358 S 0.04649 0.39086 0.0062 0.0
N359 N 1.02737 0.35155 0.04486 0.0
N360 N 0.06207 0.35215 0.9662 0.0
C361 C 0.05197 0.30437 0.98353 0.0
C362 C 1.03316 0.30403 0.02592 0.0
C363 C 0.80172 0.08221 0.23461 0.0
C364 C 0.81578 0.04148 0.2072 0.0
C365 C 0.80142 0.07496 0.27825 0.0
C366 C 0.81691 1.02704 0.29683 0.0
H367 H 0.79018 0.12003 0.22218 0.0
H368 H 0.78812 0.10757 0.2972 0.0
S369 S 0.85533 0.90645 0.23878 0.0
N370 N 0.84158 0.94947 0.20156 0.0
N371 N 0.84693 0.93793 0.28376 0.0
C372 C 0.83161 0.98585 0.26974 0.0
C373 C 0.8299 0.99262 0.22498 0.0
C374 C 0.04493 0.88174 0.51301 0.0
C375 C 0.05104 0.83435 0.53523 0.0
C376 C 1.02841 0.88161 0.47074 0.0
C377 C 1.01753 0.8341 0.44957 0.0
H378 H 0.05175 0.91903 0.52867 0.0
H379 H 1.02533 0.91871 0.45425 0.0
S380 S 1.02856 0.69994 0.49363 0.0
N381 N 0.04608 0.73911 0.53295 0.0
N382 N 1.01433 0.73896 0.45359 0.0
C383 C 1.02373 0.7867 0.47145 0.0
C384 C 0.0407 0.78681 0.51424 0.0
C385 C 0.17868 1.0195 0.72481 0.0
C386 C 0.22728 1.01453 0.70403 0.0
C387 C 0.17644 0.03563 0.76716 0.0
C388 C 0.22279 0.04651 0.78989 0.0
H389 H 0.14235 1.01197 0.708 0.0
H390 H 0.13857 0.03831 0.78251 0.0
S391 S 0.3593 0.03881 0.7499 0.0
N392 N 0.32228 1.02146 0.70918 0.0
N393 N 0.31811 0.05137 0.78888 0.0
C394 C 0.27136 0.04153 0.76943 0.0
C395 C 0.27361 1.02549 0.72651 0.0
C396 C 0.20931 0.14764 0.09815 0.0
C397 C 0.15667 0.14265 0.11109 0.0
C398 C 0.22843 0.12047 0.06305 0.0
C399 C 0.19584 0.08689 0.03911 0.0
H400 H 0.23549 0.17503 0.11411 0.0
H401 H 0.26894 0.12724 0.0538 0.0
S402 S 0.05556 0.05703 0.06121 0.0
N403 N 0.07258 0.09934 0.09864 0.0
N404 N 0.10889 0.04727 0.03247 0.0
C405 C 0.14383 0.07875 0.0531 0.0
C406 C 0.12413 0.10689 0.08914 0.0
C407 C 0.98236 0.21047 0.3145 0.0
C408 C 1.00866 0.16627 0.29841 0.0
C409 C 0.94907 0.20677 0.34973 0.0
C410 C 0.94037 0.15875 0.37078 0.0
H411 H 0.98727 0.24853 0.29972 0.0
H412 H 0.929 0.24194 0.36003 0.0
S413 S 0.9993 1.03068 0.34155 0.0
N414 N 1.02387 0.07248 0.30674 0.0
N415 N 0.96104 0.06565 0.37279 0.0
C416 C 0.96721 0.11426 0.35572 0.0
C417 C 1.00128 0.11799 0.31964 0.0
C418 C 0.86709 0.9286 0.53612 0.0
C419 C 0.86291 0.98286 0.54289 0.0
C420 C 0.88859 0.89552 0.56679 0.0
C421 C 0.90634 0.91484 0.60618 0.0
H422 H 0.85244 0.91125 0.50704 0.0
H423 H 0.89029 0.85393 0.5596 0.0
S424 S 0.90474 0.05472 0.63946 0.0
N425 N 0.8794 0.05531 0.5913 0.0
N426 N 0.91943 0.99278 0.64965 0.0
C427 C 0.90408 0.96952 0.61296 0.0
C428 C 0.88237 1.00357 0.5812 0.0
C429 C 0.13862 0.83043 0.80264 0.0
C430 C 0.09857 0.86064 0.78418 0.0
C431 C 0.1642 0.84645 0.83963 0.0
C432 C 0.15137 0.89368 0.86013 0.0
H433 H 0.15121 0.79409 0.78807 0.0
H434 H 0.19594 0.82228 0.85141 0.0
S435 S 0.04624 0.98555 0.82727 0.0
N436 N 0.04433 0.93859 0.79111 0.0
N437 N 0.09344 0.96933 0.86075 0.0
C438 C 0.10956 0.92331 0.84349 0.0
C439 C 0.08299 0.90667 0.80551 0.0
C440 C 0.1778 0.88732 0.42663 0.0
C441 C 0.15935 0.91073 0.38906 0.0
C442 C 0.19563 0.91719 0.46092 0.0
C443 C 0.19591 0.97235 0.45996 0.0
H444 H 0.17927 0.84499 0.42978 0.0
H445 H 0.21026 0.89649 0.48841 0.0
S446 S 0.14779 0.05425 0.37095 0.0
N447 N 0.13919 0.99323 0.3541 0.0
N448 N 0.17308 0.04979 0.419 0.0
C449 C 0.17524 0.99686 0.42356 0.0
C450 C 0.15692 0.96603 0.38809 0.0
C451 C 0.13899 0.19554 0.66528 0.0
C452 C 0.13666 0.14984 0.64022 0.0
C453 C 0.10574 0.20256 0.70012 0.0
C454 C 0.06857 0.16406 0.7119 0.0
H455 H 0.16748 0.22616 0.65829 0.0
H456 H 0.1096 0.23862 0.718 0.0
S457 S 0.04707 0.03624 0.657 0.0
N458 N 0.09429 0.06507 0.62959 0.0
N459 N 1.0318 0.07771 0.69523 0.0
C460 C 0.06558 0.11798 0.68694 0.0
C461 C 0.09942 0.11108 0.65107 0.0
C462 C 0.86392 0.15923 0.90751 0.0
C463 C 0.91617 0.15053 0.89512 0.0
C464 C 0.84074 0.13067 0.94028 0.0
C465 C 0.86865 0.09189 0.96242 0.0
H466 H 0.84118 0.19016 0.89285 0.0
H467 H 0.80074 0.14025 0.94902 0.0
S468 S 1.00576 0.05091 0.94036 0.0
N469 N 0.99468 0.09826 0.90576 0.0
N470 N 0.95073 0.04361 0.96763 0.0
C471 C 0.92011 0.08033 0.94882 0.0
C472 C 0.94398 0.10989 0.91511 0.0
C473 C 0.94333 0.82524 0.17977 0.0
C474 C 0.9776 0.85995 0.20104 0.0
C475 C 0.91592 0.84053 0.14354 0.0
C476 C 0.92111 0.89143 0.12669 0.0
H477 H 0.93606 0.78613 0.19204 0.0
H478 H 0.88814 0.8128 0.1299 0.0
S479 S 1.01195 0.99512 0.16677 0.0
N480 N 1.02003 0.94574 0.2 0.0
N481 N 0.9685 0.97476 0.13129 0.0
C482 C 0.95874 0.9253 0.1454 0.0
C483 C 0.9869 0.90952 0.18275 0.0
loop_
_geom_bond_atom_site_label_1
_geom_bond_atom_site_label_2
_geom_bond_distance
_geom_bond_site_symmetry_2
_ccdc_geom_bond_type
C0 C1 1.351 . S
C0 N3 1.368 . S
C0 H5 0.931 . S
C1 C0 1.351 . S
C1 N2 1.373 . S
C1 H29 0.930 . S
N2 C1 1.373 . S
N2 C4 1.340 . S
N3 C0 1.368 . S
N3 C4 1.321 . S
N3 Co6 2.135 . S
C4 N2 1.340 . S
C4 N3 1.321 . S
C4 H28 0.930 . S
H5 C0 0.931 . S
Co6 N3 2.135 . S
Co6 N9 2.121 . S
Co6 O14 2.055 . S
Co6 O17 2.039 . S
Co6 N20 2.140 . S
C7 O8 1.227 1_655 S
C7 O17 1.265 1_655 S
O8 C7 1.227 1_455 S
N9 Co6 2.121 . S
N9 C11 1.375 1_455 S
N9 C12 1.313 . S
C10 C11 1.338 . S
C10 N13 1.377 . S
C10 H30 0.930 . S
C11 N9 1.375 1_655 S
C11 C10 1.338 . S
C11 H15 0.931 . S
C12 N9 1.313 . S
C12 N13 1.344 1_455 S
C12 H16 0.930 . S
N13 C10 1.377 . S
N13 C12 1.344 1_655 S
O14 Co6 2.055 . S
O14 C18 1.253 . S
H15 C11 0.931 . S
H16 C12 0.930 . S
O17 Co6 2.039 . S
O17 C7 1.265 1_455 S
C18 O14 1.253 . S
C18 O19 1.227 . S
O19 C18 1.227 . S
N20 Co6 2.140 . S
N20 C23 1.346 . S
N20 C24 1.345 . S
C21 C22 1.387 . S
C21 C25 1.391 . S
C22 C21 1.387 . S
C22 C23 1.369 . S
C22 H31 0.929 . S
C23 N20 1.346 . S
C23 C22 1.369 . S
C23 H26 0.928 . S
C24 N20 1.345 . S
C24 C25 1.371 . S
C24 H27 0.931 . S
C25 C21 1.391 . S
C25 C24 1.371 . S
C25 H32 0.930 . S
H26 C23 0.928 . S
H27 C24 0.931 . S
H28 C4 0.930 . S
H29 C1 0.930 . S
H30 C10 0.930 . S
H31 C22 0.929 . S
H32 C25 0.930 . S
C33 C34 1.351 . S
C33 N36 1.368 . S
C33 H38 0.931 . S
C34 C33 1.351 . S
C34 N35 1.373 . S
C34 H62 0.930 . S
N35 C34 1.373 . S
N35 C37 1.340 . S
N36 C33 1.368 . S
N36 C37 1.321 . S
N36 Co39 2.135 . S
C37 N35 1.340 . S
C37 N36 1.321 . S
C37 H61 0.930 . S
H38 C33 0.931 . S
Co39 N36 2.135 . S
Co39 N42 2.121 . S
Co39 O47 2.055 . S
Co39 O50 2.039 . S
Co39 N53 2.140 . S
C40 O41 1.227 1_565 S
C40 O50 1.265 1_565 S
O41 C40 1.227 1_545 S
N42 Co39 2.121 . S
N42 C44 1.375 1_545 S
N42 C45 1.313 . S
C43 C44 1.338 . S
C43 N46 1.377 . S
C43 H63 0.930 . S
C44 N42 1.375 1_565 S
C44 C43 1.338 . S
C44 H48 0.931 . S
C45 N42 1.313 . S
C45 N46 1.344 1_545 S
C45 H49 0.930 . S
N46 C43 1.377 . S
N46 C45 1.344 1_565 S
O47 Co39 2.055 . S
O47 C51 1.253 . S
H48 C44 0.931 . S
H49 C45 0.930 . S
O50 Co39 2.039 . S
O50 C40 1.265 1_545 S
C51 O47 1.253 . S
C51 O52 1.227 . S
O52 C51 1.227 . S
N53 Co39 2.140 . S
N53 C56 1.346 . S
N53 C57 1.345 . S
C54 C55 1.387 . S
C54 C58 1.391 . S
C55 C54 1.387 . S
C55 C56 1.369 . S
C55 H64 0.929 . S
C56 N53 1.346 . S
C56 C55 1.369 . S
C56 H59 0.928 . S
C57 N53 1.345 . S
C57 C58 1.371 . S
C57 H60 0.931 . S
C58 C54 1.391 . S
C58 C57 1.371 . S
C58 H65 0.930 . S
H59 C56 0.928 . S
H60 C57 0.931 . S
H61 C37 0.930 . S
H62 C34 0.930 . S
H63 C43 0.930 . S
H64 C55 0.929 . S
H65 C58 0.930 . S
C66 C67 1.351 . S
C66 N69 1.368 . S
C66 H71 0.931 . S
C67 C66 1.351 . S
C67 N68 1.373 . S
C67 H95 0.930 . S
N68 C67 1.373 . S
N68 C70 1.340 . S
N69 C66 1.368 . S
N69 C70 1.321 . S
N69 Co72 2.135 . S
C70 N68 1.340 . S
C70 N69 1.321 . S
C70 H94 0.930 . S
H71 C66 0.931 . S
Co72 N69 2.135 . S
Co72 N75 2.121 . S
Co72 O80 2.055 . S
Co72 O83 2.039 . S
Co72 N86 2.140 . S
C73 O74 1.227 1_455 S
C73 O83 1.265 1_455 S
O74 C73 1.227 1_655 S
N75 Co72 2.121 . S
N75 C77 1.375 1_655 S
N75 C78 1.313 . S
C76 C77 1.338 . S
C76 N79 1.377 . S
C76 H96 0.930 . S
C77 N75 1.375 1_455 S
C77 C76 1.338 . S
C77 H81 0.931 . S
C78 N75 1.313 . S
C78 N79 1.344 1_655 S
C78 H82 0.930 . S
N79 C76 1.377 . S
N79 C78 1.344 1_455 S
O80 Co72 2.055 . S
O80 C84 1.253 . S
H81 C77 0.931 . S
H82 C78 0.930 . S
O83 Co72 2.039 . S
O83 C73 1.265 1_655 S
C84 O80 1.253 . S
C84 O85 1.227 . S
O85 C84 1.227 . S
N86 Co72 2.140 . S
N86 C89 1.346 . S
N86 C90 1.345 . S
C87 C88 1.387 . S
C87 C91 1.391 . S
C88 C87 1.387 . S
C88 C89 1.369 . S
C88 H97 0.929 . S
C89 N86 1.346 . S
C89 C88 1.369 . S
C89 H92 0.928 . S
C90 N86 1.345 . S
C90 C91 1.371 . S
C90 H93 0.931 . S
C91 C87 1.391 . S
C91 C90 1.371 . S
C91 H98 0.930 . S
H92 C89 0.928 . S
H93 C90 0.931 . S
H94 C70 0.930 . S
H95 C67 0.930 . S
H96 C76 0.930 . S
H97 C88 0.929 . S
H98 C91 0.930 . S
C99 C100 1.351 1_556 S
C99 N102 1.368 . S
C99 H104 0.931 . S
C100 C99 1.351 1_554 S
C100 N101 1.373 . S
C100 H128 0.930 . S
N101 C100 1.373 . S
N101 C103 1.340 . S
N102 C99 1.368 . S
N102 C103 1.321 1_556 S
N102 Co105 2.135 . S
C103 N101 1.340 . S
C103 N102 1.321 1_554 S
C103 H127 0.930 . S
H104 C99 0.931 . S
Co105 N102 2.135 . S
Co105 N108 2.121 . S
Co105 O113 2.055 . S
Co105 O116 2.039 . S
Co105 N119 2.140 . S
C106 O107 1.227 1_545 S
C106 O116 1.265 1_544 S
O107 C106 1.227 1_565 S
N108 Co105 2.121 . S
N108 C110 1.375 1_565 S
N108 C111 1.313 . S
C109 C110 1.338 . S
C109 N112 1.377 . S
C109 H129 0.930 . S
C110 N108 1.375 1_545 S
C110 C109 1.338 . S
C110 H114 0.931 . S
C111 N108 1.313 . S
C111 N112 1.344 1_565 S
C111 H115 0.930 . S
N112 C109 1.377 . S
N112 C111 1.344 1_545 S
O113 Co105 2.055 . S
O113 C117 1.253 . S
H114 C110 0.931 . S
H115 C111 0.930 . S
O116 Co105 2.039 . S
O116 C106 1.265 1_566 S
C117 O113 1.253 . S
C117 O118 1.227 . S
O118 C117 1.227 . S
N119 Co105 2.140 . S
N119 C122 1.346 . S
N119 C123 1.345 . S
C120 C121 1.387 1_556 S
C120 C124 1.391 . S
C121 C120 1.387 1_554 S
C121 C122 1.369 1_554 S
C121 H130 0.929 . S
C122 N119 1.346 . S
C122 C121 1.369 1_556 S
C122 H125 0.928 1_556 S
C123 N119 1.345 . S
C123 C124 1.371 . S
C123 H126 0.931 . S
C124 C120 1.391 . S
C124 C123 1.371 . S
C124 H131 0.930 . S
H125 C122 0.928 1_554 S
H126 C123 0.931 . S
H127 C103 0.930 . S
H128 C100 0.930 . S
H129 C109 0.930 . S
H130 C121 0.929 . S
H131 C124 0.930 . S
C132 C133 1.351 . S
C132 N135 1.368 . S
C132 H137 0.931 . S
C133 C132 1.351 . S
C133 N134 1.373 . S
C133 H161 0.930 . S
N134 C133 1.373 . S
N134 C136 1.340 . S
N135 C132 1.368 . S
N135 C136 1.321 . S
N135 Co138 2.135 . S
C136 N134 1.340 . S
C136 N135 1.321 . S
C136 H160 0.930 . S
H137 C132 0.931 . S
Co138 N135 2.135 . S
Co138 N141 2.121 . S
Co138 O146 2.055 . S
Co138 O149 2.039 . S
Co138 N152 2.140 . S
C139 O140 1.227 1_655 S
C139 O149 1.265 1_655 S
O140 C139 1.227 1_455 S
N141 Co138 2.121 . S
N141 C143 1.375 1_455 S
N141 C144 1.313 . S
C142 C143 1.338 . S
C142 N145 1.377 . S
C142 H162 0.930 . S
C143 N141 1.375 1_655 S
C143 C142 1.338 . S
C143 H147 0.931 . S
C144 N141 1.313 . S
C144 N145 1.344 1_455 S
C144 H148 0.930 . S
N145 C142 1.377 . S
N145 C144 1.344 1_655 S
O146 Co138 2.055 . S
O146 C150 1.253 . S
H147 C143 0.931 . S
H148 C144 0.930 . S
O149 Co138 2.039 . S
O149 C139 1.265 1_455 S
C150 O146 1.253 . S
C150 O151 1.227 . S
O151 C150 1.227 . S
N152 Co138 2.140 . S
N152 C155 1.346 . S
N152 C156 1.345 . S
C153 C154 1.387 . S
C153 C157 1.391 . S
C154 C153 1.387 . S
C154 C155 1.369 . S
C154 H163 0.929 . S
C155 N152 1.346 . S
C155 C154 1.369 . S
C155 H158 0.928 . S
C156 N152 1.345 . S
C156 C157 1.371 . S
C156 H159 0.931 . S
C157 C153 1.391 . S
C157 C156 1.371 . S
C157 H164 0.930 . S
H158 C155 0.928 . S
H159 C156 0.931 . S
H160 C136 0.930 . S
H161 C133 0.930 . S
H162 C142 0.930 . S
H163 C154 0.929 . S
H164 C157 0.930 . S
C165 C166 1.351 . S
C165 N168 1.368 . S
C165 H170 0.931 . S
C166 C165 1.351 . S
C166 N167 1.373 . S
C166 H194 0.930 . S
N167 C166 1.373 . S
N167 C169 1.340 . S
N168 C165 1.368 . S
N168 C169 1.321 . S
N168 Co171 2.135 . S
C169 N167 1.340 . S
C169 N168 1.321 . S
C169 H193 0.930 . S
H170 C165 0.931 . S
Co171 N168 2.135 . S
Co171 N174 2.121 . S
Co171 O179 2.055 . S
Co171 O182 2.039 . S
Co171 N185 2.140 . S
C172 O173 1.227 1_565 S
C172 O182 1.265 1_565 S
O173 C172 1.227 1_545 S
N174 Co171 2.121 . S
N174 C176 1.375 1_545 S
N174 C177 1.313 . S
C175 C176 1.338 . S
C175 N178 1.377 . S
C175 H195 0.930 . S
C176 N174 1.375 1_565 S
C176 C175 1.338 . S
C176 H180 0.931 . S
C177 N174 1.313 . S
C177 N178 1.344 1_545 S
C177 H181 0.930 . S
N178 C175 1.377 . S
N178 C177 1.344 1_565 S
O179 Co171 2.055 . S
O179 C183 1.253 . S
H180 C176 0.931 . S
H181 C177 0.930 . S
O182 Co171 2.039 . S
O182 C172 1.265 1_545 S
C183 O179 1.253 . S
C183 O184 1.227 . S
O184 C183 1.227 . S
N185 Co171 2.140 . S
N185 C188 1.346 . S
N185 C189 1.345 . S
C186 C187 1.387 . S
C186 C190 1.391 . S
C187 C186 1.387 . S
C187 C188 1.369 . S
C187 H196 0.929 . S
C188 N185 1.346 . S
C188 C187 1.369 . S
C188 H191 0.928 . S
C189 N185 1.345 . S
C189 C190 1.371 . S
C189 H192 0.931 . S
C190 C186 1.391 . S
C190 C189 1.371 . S
C190 H197 0.930 . S
H191 C188 0.928 . S
H192 C189 0.931 . S
H193 C169 0.930 . S
H194 C166 0.930 . S
H195 C175 0.930 . S
H196 C187 0.929 . S
H197 C190 0.930 . S
C198 C199 1.351 . S
C198 N201 1.368 . S
C198 H203 0.931 . S
C199 C198 1.351 . S
C199 N200 1.373 . S
C199 H227 0.930 . S
N200 C199 1.373 . S
N200 C202 1.340 . S
N201 C198 1.368 . S
N201 C202 1.321 . S
N201 Co204 2.135 . S
C202 N200 1.340 . S
C202 N201 1.321 . S
C202 H226 0.930 . S
H203 C198 0.931 . S
Co204 N201 2.135 . S
Co204 N207 2.121 . S
Co204 O212 2.055 . S
Co204 O215 2.039 . S
Co204 N218 2.140 . S
C205 O206 1.227 1_455 S
C205 O215 1.265 1_455 S
O206 C205 1.227 1_655 S
N207 Co204 2.121 . S
N207 C209 1.375 1_655 S
N207 C210 1.313 . S
C208 C209 1.338 . S
C208 N211 1.377 . S
C208 H228 0.930 . S
C209 N207 1.375 1_455 S
C209 C208 1.338 . S
C209 H213 0.931 . S
C210 N207 1.313 . S
C210 N211 1.344 1_655 S
C210 H214 0.930 . S
N211 C208 1.377 . S
N211 C210 1.344 1_455 S
O212 Co204 2.055 . S
O212 C216 1.253 . S
H213 C209 0.931 . S
H214 C210 0.930 . S
O215 Co204 2.039 . S
O215 C205 1.265 1_655 S
C216 O212 1.253 . S
C216 O217 1.227 . S
O217 C216 1.227 . S
N218 Co204 2.140 . S
N218 C221 1.346 . S
N218 C222 1.345 . S
C219 C220 1.387 . S
C219 C223 1.391 . S
C220 C219 1.387 . S
C220 C221 1.369 . S
C220 H229 0.929 . S
C221 N218 1.346 . S
C221 C220 1.369 . S
C221 H224 0.928 . S
C222 N218 1.345 . S
C222 C223 1.371 . S
C222 H225 0.931 . S
C223 C219 1.391 . S
C223 C222 1.371 . S
C223 H230 0.930 . S
H224 C221 0.928 . S
H225 C222 0.931 . S
H226 C202 0.930 . S
H227 C199 0.930 . S
H228 C208 0.930 . S
H229 C220 0.929 . S
H230 C223 0.930 . S
C231 C232 1.351 1_554 S
C231 N234 1.368 . S
C231 H236 0.931 . S
C232 C231 1.351 1_556 S
C232 N233 1.373 . S
C232 H260 0.930 . S
N233 C232 1.373 . S
N233 C235 1.340 . S
N234 C231 1.368 . S
N234 C235 1.321 1_554 S
N234 Co237 2.135 . S
C235 N233 1.340 . S
C235 N234 1.321 1_556 S
C235 H259 0.930 . S
H236 C231 0.931 . S
Co237 N234 2.135 . S
Co237 N240 2.121 . S
Co237 O245 2.055 . S
Co237 O248 2.039 . S
Co237 N251 2.140 . S
C238 O239 1.227 1_545 S
C238 O248 1.265 1_546 S
O239 C238 1.227 1_565 S
N240 Co237 2.121 . S
N240 C242 1.375 1_565 S
N240 C243 1.313 . S
C241 C242 1.338 . S
C241 N244 1.377 . S
C241 H261 0.930 . S
C242 N240 1.375 1_545 S
C242 C241 1.338 . S
C242 H246 0.931 . S
C243 N240 1.313 . S
C243 N244 1.344 1_565 S
C243 H247 0.930 . S
N244 C241 1.377 . S
N244 C243 1.344 1_545 S
O245 Co237 2.055 . S
O245 C249 1.253 . S
H246 C242 0.931 . S
H247 C243 0.930 . S
O248 Co237 2.039 . S
O248 C238 1.265 1_564 S
C249 O245 1.253 . S
C249 O250 1.227 . S
O250 C249 1.227 . S
N251 Co237 2.140 . S
N251 C254 1.346 . S
N251 C255 1.345 . S
C252 C253 1.387 1_554 S
C252 C256 1.391 . S
C253 C252 1.387 1_556 S
C253 C254 1.369 1_556 S
C253 H262 0.929 . S
C254 N251 1.346 . S
C254 C253 1.369 1_554 S
C254 H257 0.928 1_554 S
C255 N251 1.345 . S
C255 C256 1.371 . S
C255 H258 0.931 . S
C256 C252 1.391 . S
C256 C255 1.371 . S
C256 H263 0.930 . S
H257 C254 0.928 1_556 S
H258 C255 0.931 . S
H259 C235 0.930 . S
H260 C232 0.930 . S
H261 C241 0.930 . S
H262 C253 0.929 . S
H263 C256 0.930 . S
C264 C265 1.369 . S
C264 C266 1.419 . S
C264 H268 0.930 . S
C265 C264 1.369 . S
C265 C274 1.429 . S
C266 C264 1.419 . S
C266 C267 1.363 . S
C266 H269 0.929 . S
C267 C266 1.363 . S
C267 C273 1.428 . S
H268 C264 0.930 . S
H269 C266 0.929 . S
S270 N271 1.613 . S
S270 N272 1.610 . S
N271 S270 1.613 . S
N271 C274 1.350 . S
N272 S270 1.610 . S
N272 C273 1.351 . S
C273 C267 1.428 . S
C273 N272 1.351 . S
C273 C274 1.434 . S
C274 C265 1.429 . S
C274 N271 1.350 . S
C274 C273 1.434 . S
C275 C276 1.369 . S
C275 C277 1.419 . S
C275 H279 0.930 . S
C276 C275 1.369 . S
C276 C285 1.429 . S
C277 C275 1.419 . S
C277 C278 1.363 . S
C277 H280 0.929 . S
C278 C277 1.363 . S
C278 C284 1.428 . S
H279 C275 0.930 . S
H280 C277 0.929 . S
S281 N282 1.613 . S
S281 N283 1.610 . S
N282 S281 1.613 . S
N282 C285 1.350 . S
N283 S281 1.610 . S
N283 C284 1.351 . S
C284 C278 1.428 . S
C284 N283 1.351 . S
C284 C285 1.434 . S
C285 C276 1.429 . S
C285 N282 1.350 . S
C285 C284 1.434 . S
C286 C287 1.369 . S
C286 C288 1.419 . S
C286 H290 0.930 . S
C287 C286 1.369 . S
C287 C296 1.429 . S
C288 C286 1.419 . S
C288 C289 1.363 . S
C288 H291 0.929 . S
C289 C288 1.363 . S
C289 C295 1.428 . S
H290 C286 0.930 . S
H291 C288 0.929 . S
S292 N293 1.613 . S
S292 N294 1.610 . S
N293 S292 1.613 . S
N293 C296 1.350 . S
N294 S292 1.610 . S
N294 C295 1.351 . S
C295 C289 1.428 . S
C295 N294 1.351 . S
C295 C296 1.434 . S
C296 C287 1.429 . S
C296 N293 1.350 . S
C296 C295 1.434 . S
C297 C298 1.369 . S
C297 C299 1.419 . S
C297 H301 0.930 . S
C298 C297 1.369 . S
C298 C307 1.429 1_556 S
C299 C297 1.419 . S
C299 C300 1.363 1_556 S
C299 H302 0.929 . S
C300 C299 1.363 1_554 S
C300 C306 1.428 . S
H301 C297 0.930 . S
H302 C299 0.929 . S
S303 N304 1.613 1_545 S
S303 N305 1.610 1_545 S
N304 S303 1.613 1_565 S
N304 C307 1.350 . S
N305 S303 1.610 1_565 S
N305 C306 1.351 . S
C306 C300 1.428 . S
C306 N305 1.351 . S
C306 C307 1.434 . S
C307 C298 1.429 1_554 S
C307 N304 1.350 . S
C307 C306 1.434 . S
C308 C309 1.369 . S
C308 C310 1.419 . S
C308 H312 0.930 . S
C309 C308 1.369 . S
C309 C318 1.429 . S
C310 C308 1.419 . S
C310 C311 1.363 . S
C310 H313 0.929 . S
C311 C310 1.363 . S
C311 C317 1.428 . S
H312 C308 0.930 . S
H313 C310 0.929 . S
S314 N315 1.613 . S
S314 N316 1.610 . S
N315 S314 1.613 . S
N315 C318 1.350 . S
N316 S314 1.610 . S
N316 C317 1.351 . S
C317 C311 1.428 . S
C317 N316 1.351 . S
C317 C318 1.434 . S
C318 C309 1.429 . S
C318 N315 1.350 . S
C318 C317 1.434 . S
C319 C320 1.369 . S
C319 C321 1.419 . S
C319 H323 0.930 . S
C320 C319 1.369 . S
C320 C329 1.429 . S
C321 C319 1.419 . S
C321 C322 1.363 . S
C321 H324 0.929 . S
C322 C321 1.363 . S
C322 C328 1.428 . S
H323 C319 0.930 . S
H324 C321 0.929 . S
S325 N326 1.613 . S
S325 N327 1.610 . S
N326 S325 1.613 . S
N326 C329 1.350 . S
N327 S325 1.610 . S
N327 C328 1.351 . S
C328 C322 1.428 . S
C328 N327 1.351 . S
C328 C329 1.434 . S
C329 C320 1.429 . S
C329 N326 1.350 . S
C329 C328 1.434 . S
C330 C331 1.369 . S
C330 C332 1.419 . S
C330 H334 0.930 . S
C331 C330 1.369 . S
C331 C340 1.429 . S
C332 C330 1.419 . S
C332 C333 1.363 . S
C332 H335 0.929 . S
C333 C332 1.363 . S
C333 C339 1.428 . S
H334 C330 0.930 . S
H335 C332 0.929 . S
S336 N337 1.613 . S
S336 N338 1.610 . S
N337 S336 1.613 . S
N337 C340 1.350 . S
N338 S336 1.610 . S
N338 C339 1.351 . S
C339 C333 1.428 . S
C339 N338 1.351 . S
C339 C340 1.434 . S
C340 C331 1.429 . S
C340 N337 1.350 . S
C340 C339 1.434 . S
C341 C342 1.369 . S
C341 C343 1.419 . S
C341 H345 0.930 . S
C342 C341 1.369 . S
C342 C351 1.429 . S
C343 C341 1.419 . S
C343 C344 1.363 . S
C343 H346 0.929 . S
C344 C343 1.363 . S
C344 C350 1.428 . S
H345 C341 0.930 . S
H346 C343 0.929 . S
S347 N348 1.613 . S
S347 N349 1.610 . S
N348 S347 1.613 . S
N348 C351 1.350 . S
N349 S347 1.610 . S
N349 C350 1.351 . S
C350 C344 1.428 . S
C350 N349 1.351 . S
C350 C351 1.434 . S
C351 C342 1.429 . S
C351 N348 1.350 . S
C351 C350 1.434 . S
C352 C353 1.369 . S
C352 C354 1.419 1_554 S
C352 H356 0.930 . S
C353 C352 1.369 . S
C353 C362 1.429 1_655 S
C354 C352 1.419 1_556 S
C354 C355 1.363 1_655 S
C354 H357 0.929 . S
C355 C354 1.363 1_455 S
C355 C361 1.428 . S
H356 C352 0.930 . S
H357 C354 0.929 . S
S358 N359 1.613 . S
S358 N360 1.610 1_554 S
N359 S358 1.613 . S
N359 C362 1.350 . S
N360 S358 1.610 1_556 S
N360 C361 1.351 . S
C361 C355 1.428 . S
C361 N360 1.351 . S
C361 C362 1.434 1_556 S
C362 C353 1.429 1_455 S
C362 N359 1.350 . S
C362 C361 1.434 1_554 S
C363 C364 1.369 . S
C363 C365 1.419 . S
C363 H367 0.930 . S
C364 C363 1.369 . S
C364 C373 1.429 1_545 S
C365 C363 1.419 . S
C365 C366 1.363 1_545 S
C365 H368 0.929 . S
C366 C365 1.363 1_565 S
C366 C372 1.428 . S
H367 C363 0.930 . S
H368 C365 0.929 . S
S369 N370 1.613 . S
S369 N371 1.610 . S
N370 S369 1.613 . S
N370 C373 1.350 . S
N371 S369 1.610 . S
N371 C372 1.351 . S
C372 C366 1.428 . S
C372 N371 1.351 . S
C372 C373 1.434 . S
C373 C364 1.429 1_565 S
C373 N370 1.350 . S
C373 C372 1.434 . S
C374 C375 1.369 1_655 S
C374 C376 1.419 . S
C374 H378 0.930 . S
C375 C374 1.369 1_455 S
C375 C384 1.429 . S
C376 C374 1.419 . S
C376 C377 1.363 . S
C376 H379 0.929 . S
C377 C376 1.363 . S
C377 C383 1.428 1_655 S
H378 C374 0.930 . S
H379 C376 0.929 . S
S380 N381 1.613 . S
S380 N382 1.610 . S
N381 S380 1.613 . S
N381 C384 1.350 . S
N382 S380 1.610 . S
N382 C383 1.351 . S
C383 C377 1.428 1_455 S
C383 N382 1.351 . S
C383 C384 1.434 . S
C384 C375 1.429 . S
C384 N381 1.350 . S
C384 C383 1.434 . S
C385 C386 1.369 . S
C385 C387 1.419 . S
C385 H389 0.930 . S
C386 C385 1.369 . S
C386 C395 1.429 1_565 S
C387 C385 1.419 . S
C387 C388 1.363 1_565 S
C387 H390 0.929 . S
C388 C387 1.363 1_545 S
C388 C394 1.428 . S
H389 C385 0.930 . S
H390 C387 0.929 . S
S391 N392 1.613 . S
S391 N393 1.610 . S
N392 S391 1.613 . S
N392 C395 1.350 . S
N393 S391 1.610 . S
N393 C394 1.351 . S
C394 C388 1.428 . S
C394 N393 1.351 . S
C394 C395 1.434 . S
C395 C386 1.429 1_545 S
C395 N392 1.350 . S
C395 C394 1.434 . S
C396 C397 1.369 . S
C396 C398 1.419 . S
C396 H400 0.930 . S
C397 C396 1.369 . S
C397 C406 1.429 . S
C398 C396 1.419 . S
C398 C399 1.363 . S
C398 H401 0.929 . S
C399 C398 1.363 . S
C399 C405 1.428 . S
H400 C396 0.930 . S
H401 C398 0.929 . S
S402 N403 1.613 . S
S402 N404 1.610 . S
N403 S402 1.613 . S
N403 C406 1.350 . S
N404 S402 1.610 . S
N404 C405 1.351 . S
C405 C399 1.428 . S
C405 N404 1.351 . S
C405 C406 1.434 . S
C406 C397 1.429 . S
C406 N403 1.350 . S
C406 C405 1.434 . S
C407 C408 1.369 . S
C407 C409 1.419 . S
C407 H411 0.930 . S
C408 C407 1.369 . S
C408 C417 1.429 . S
C409 C407 1.419 . S
C409 C410 1.363 . S
C409 H412 0.929 . S
C410 C409 1.363 . S
C410 C416 1.428 . S
H411 C407 0.930 . S
H412 C409 0.929 . S
S413 N414 1.613 . S
S413 N415 1.610 . S
N414 S413 1.613 . S
N414 C417 1.350 . S
N415 S413 1.610 . S
N415 C416 1.351 . S
C416 C410 1.428 . S
C416 N415 1.351 . S
C416 C417 1.434 . S
C417 C408 1.429 . S
C417 N414 1.350 . S
C417 C416 1.434 . S
C418 C419 1.369 . S
C418 C420 1.419 . S
C418 H422 0.930 . S
C419 C418 1.369 . S
C419 C428 1.429 . S
C420 C418 1.419 . S
C420 C421 1.363 . S
C420 H423 0.929 . S
C421 C420 1.363 . S
C421 C427 1.428 . S
H422 C418 0.930 . S
H423 C420 0.929 . S
S424 N425 1.613 . S
S424 N426 1.610 . S
N425 S424 1.613 . S
N425 C428 1.350 . S
N426 S424 1.610 . S
N426 C427 1.351 . S
C427 C421 1.428 . S
C427 N426 1.351 . S
C427 C428 1.434 . S
C428 C419 1.429 . S
C428 N425 1.350 . S
C428 C427 1.434 . S
C429 C430 1.369 . S
C429 C431 1.419 . S
C429 H433 0.930 . S
C430 C429 1.369 . S
C430 C439 1.429 . S
C431 C429 1.419 . S
C431 C432 1.363 . S
C431 H434 0.929 . S
C432 C431 1.363 . S
C432 C438 1.428 . S
H433 C429 0.930 . S
H434 C431 0.929 . S
S435 N436 1.613 . S
S435 N437 1.610 . S
N436 S435 1.613 . S
N436 C439 1.350 . S
N437 S435 1.610 . S
N437 C438 1.351 . S
C438 C432 1.428 . S
C438 N437 1.351 . S
C438 C439 1.434 . S
C439 C430 1.429 . S
C439 N436 1.350 . S
C439 C438 1.434 . S
C440 C441 1.369 . S
C440 C442 1.419 . S
C440 H444 0.930 . S
C441 C440 1.369 . S
C441 C450 1.429 . S
C442 C440 1.419 . S
C442 C443 1.363 . S
C442 H445 0.929 . S
C443 C442 1.363 . S
C443 C449 1.428 . S
H444 C440 0.930 . S
H445 C442 0.929 . S
S446 N447 1.613 . S
S446 N448 1.610 . S
N447 S446 1.613 . S
N447 C450 1.350 . S
N448 S446 1.610 . S
N448 C449 1.351 . S
C449 C443 1.428 . S
C449 N448 1.351 . S
C449 C450 1.434 . S
C450 C441 1.429 . S
C450 N447 1.350 . S
C450 C449 1.434 . S
C451 C452 1.369 . S
C451 C453 1.419 . S
C451 H455 0.930 . S
C452 C451 1.369 . S
C452 C461 1.429 . S
C453 C451 1.419 . S
C453 C454 1.363 . S
C453 H456 0.929 . S
C454 C453 1.363 . S
C454 C460 1.428 . S
H455 C451 0.930 . S
H456 C453 0.929 . S
S457 N458 1.613 . S
S457 N459 1.610 . S
N458 S457 1.613 . S
N458 C461 1.350 . S
N459 S457 1.610 . S
N459 C460 1.351 . S
C460 C454 1.428 . S
C460 N459 1.351 . S
C460 C461 1.434 . S
C461 C452 1.429 . S
C461 N458 1.350 . S
C461 C460 1.434 . S
C462 C463 1.369 . S
C462 C464 1.419 . S
C462 H466 0.930 . S
C463 C462 1.369 . S
C463 C472 1.429 . S
C464 C462 1.419 . S
C464 C465 1.363 . S
C464 H467 0.929 . S
C465 C464 1.363 . S
C465 C471 1.428 . S
H466 C462 0.930 . S
H467 C464 0.929 . S
S468 N469 1.613 . S
S468 N470 1.610 . S
N469 S468 1.613 . S
N469 C472 1.350 . S
N470 S468 1.610 . S
N470 C471 1.351 . S
C471 C465 1.428 . S
C471 N470 1.351 . S
C471 C472 1.434 . S
C472 C463 1.429 . S
C472 N469 1.350 . S
C472 C471 1.434 . S
C473 C474 1.369 . S
C473 C475 1.419 . S
C473 H477 0.930 . S
C474 C473 1.369 . S
C474 C483 1.429 . S
C475 C473 1.419 . S
C475 C476 1.363 . S
C475 H478 0.929 . S
C476 C475 1.363 . S
C476 C482 1.428 . S
H477 C473 0.930 . S
H478 C475 0.929 . S
S479 N480 1.613 . S
S479 N481 1.610 . S
N480 S479 1.613 . S
N480 C483 1.350 . S
N481 S479 1.610 . S
N481 C482 1.351 . S
C482 C476 1.428 . S
C482 N481 1.351 . S
C482 C483 1.434 . S
C483 C474 1.429 . S
C483 N480 1.350 . S
C483 C482 1.434 . S
C265 C153 1.383 . S
C267 C21 1.388 . S
C276 C54 1.384 . S
C278 C186 1.386 . S
C287 C87 1.386 . S
C289 C219 1.389 . S
C298 C120 1.384 . S
C300 C252 1.386 . S
C309 N167 0.783 . S
C311 N2 0.782 . S
C320 N35 0.786 . S
C322 N200 0.779 . S
C331 N233 0.778 . S
C333 N68 0.786 . S
C342 N101 0.786 . S
C344 N134 0.780 . S
C353 N13 1.208 . S
C355 N211 1.212 . S
C364 N244 1.207 . S
C366 N46 1.212 . S
C375 N79 1.212 . S
C377 N145 1.208 . S
C386 N178 1.207 . S
C388 N112 1.212 . S
C397 C18 1.996 . S
C399 C106 1.993 . S
C408 C7 1.995 . S
C410 C51 1.996 . S
C419 C40 1.991 . S
C421 C84 1.997 . S
C430 C73 1.995 . S
C432 C117 1.996 . S
C441 C150 1.999 . S
C443 C172 1.990 . S
C452 C183 1.995 . S
C454 C205 1.994 . S
C463 C216 1.996 . S
C465 C238 1.992 . S
C474 C139 1.993 . S
C476 C249 1.996 . S
