# Generated by pormake.
# Topology fcu, (12)-cn, num edge types: 1
# Building blocks:
#     Node 0, Type 0, BuildingBlock: FANWIC_clean_sbu_0, # of connection points: 12
#     Node 1, Type 0, BuildingBlock: FANWIC_clean_sbu_0, # of connection points: 12
#     Node 2, Type 0, BuildingBlock: FANWIC_clean_sbu_0, # of connection points: 12
#     Node 3, Type 0, BuildingBlock: FANWIC_clean_sbu_0, # of connection points: 12
#     Edge 4, Type (0, 0), BuildingBlock: OJICUG_clean_linker_0, # of connection points: 2
#     Edge 5, Type (0, 0), BuildingBlock: OJICUG_clean_linker_0, # of connection points: 2
#     Edge 6, Type (0, 0), BuildingBlock: OJICUG_clean_linker_0, # of connection points: 2
#     Edge 7, Type (0, 0), BuildingBlock: OJICUG_clean_linker_0, # of connection points: 2
#     Edge 8, Type (0, 0), BuildingBlock: OJICUG_clean_linker_0, # of connection points: 2
#     Edge 9, Type (0, 0), BuildingBlock: OJICUG_clean_linker_0, # of connection points: 2
#     Edge 10, Type (0, 0), BuildingBlock: OJICUG_clean_linker_0, # of connection points: 2
#     Edge 11, Type (0, 0), BuildingBlock: OJICUG_clean_linker_0, # of connection points: 2
#     Edge 12, Type (0, 0), BuildingBlock: OJICUG_clean_linker_0, # of connection points: 2
#     Edge 13, Type (0, 0), BuildingBlock: OJICUG_clean_linker_0, # of connection points: 2
#     Edge 14, Type (0, 0), BuildingBlock: OJICUG_clean_linker_0, # of connection points: 2
#     Edge 15, Type (0, 0), BuildingBlock: OJICUG_clean_linker_0, # of connection points: 2
#     Edge 16, Type (0, 0), BuildingBlock: OJICUG_clean_linker_0, # of connection points: 2
#     Edge 17, Type (0, 0), BuildingBlock: OJICUG_clean_linker_0, # of connection points: 2
#     Edge 18, Type (0, 0), BuildingBlock: OJICUG_clean_linker_0, # of connection points: 2
#     Edge 19, Type (0, 0), BuildingBlock: OJICUG_clean_linker_0, # of connection points: 2
#     Edge 20, Type (0, 0), BuildingBlock: OJICUG_clean_linker_0, # of connection points: 2
#     Edge 21, Type (0, 0), BuildingBlock: OJICUG_clean_linker_0, # of connection points: 2
#     Edge 22, Type (0, 0), BuildingBlock: OJICUG_clean_linker_0, # of connection points: 2
#     Edge 23, Type (0, 0), BuildingBlock: OJICUG_clean_linker_0, # of connection points: 2
#     Edge 24, Type (0, 0), BuildingBlock: OJICUG_clean_linker_0, # of connection points: 2
#     Edge 25, Type (0, 0), BuildingBlock: OJICUG_clean_linker_0, # of connection points: 2
#     Edge 26, Type (0, 0), BuildingBlock: OJICUG_clean_linker_0, # of connection points: 2
#     Edge 27, Type (0, 0), BuildingBlock: OJICUG_clean_linker_0, # of connection points: 2
# Relax obj value: 0.219
# Max RMSD: 0.293
# Mean RMSD: 0.293
data_MOF--net-fcu--node1-FANWIC_clean_sbu_0--edge1-OJICUG_clean_linker_0
_symmetry_space_group_name_H-M    P1
_symmetry_Int_Tables_number       1
_symmetry_cell_setting            triclinic
loop_
_symmetry_equiv_pos_as_xyz
'x, y, z'
_cell_length_a     18.427726
_cell_length_b     19.94787
_cell_length_c     19.406314
_cell_angle_alpha  93.309108
_cell_angle_beta   89.015107
_cell_angle_gamma 88.131944
loop_
_atom_site_label
_atom_site_type_symbol
_atom_site_fract_x
_atom_site_fract_y
_atom_site_fract_z
_atom_type_partial_charge
Zn0 Zn 0.94656 -0.00891 0.90346 0.0
Zn1 Zn 0.90439 0.94062 0.06133 0.0
Zn2 Zn 0.97871 0.1061 0.01847 0.0
Zn3 Zn 0.82328 0.04514 0.00133 0.0
O4 O 0.92753 0.01786 0.00393 0.0
C5 C 0.01039 0.11011 0.17628 0.0
O6 O 0.97368 0.05794 0.19312 0.0
N7 N 0.0237 0.92017 0.8903 0.0
N8 N 0.07897 0.90778 0.9314 0.0
N9 N 0.08398 0.82939 0.84462 0.0
C10 C 0.0271 0.87258 0.83817 0.0
C11 C 0.11609 0.85321 0.90262 0.0
N12 N 0.98418 0.89435 0.10185 0.0
C13 C 0.07455 0.87286 0.16601 0.0
N14 N 0.03403 0.81766 0.1658 0.0
C15 C 0.97683 0.83374 0.12733 0.0
N16 N 0.04394 0.92021 0.12754 0.0
H17 H 0.90966 0.75262 0.09509 0.0
C18 C 0.90601 0.79859 0.12984 0.0
H19 H 0.86008 0.83158 0.11525 0.0
H20 H 0.89484 0.78261 0.18272 0.0
N21 N 0.06966 0.09937 0.96719 0.0
C22 C 0.12054 0.14589 0.96713 0.0
C23 C 0.15999 0.06233 0.90257 0.0
N24 N 0.09383 0.04742 0.92684 0.0
N25 N 0.17826 0.12416 0.92732 0.0
C26 C 0.11215 0.21372 0.00427 0.0
H27 H 0.10654 0.25261 0.96592 0.0
H28 H 0.0632 0.21709 0.03841 0.0
H29 H 0.1614 0.22438 0.03462 0.0
O30 O 0.76648 -0.00622 0.92898 0.0
O31 O 0.85608 0.95911 0.85677 0.0
C32 C 0.7888 0.96433 0.87225 0.0
O33 O 0.85056 0.87656 -0.00044 0.0
O34 O 0.81038 0.13811 0.97763 0.0
O35 O 0.91614 0.18734 -0.01238 0.0
O36 O 0.97409 0.07579 0.85775 0.0
O37 O 0.77505 0.04653 0.09489 0.0
O38 O 0.84033 0.96849 0.14335 0.0
O39 O 0.01065 0.12838 0.11475 0.0
C40 C 0.88011 0.82544 0.96706 0.0
O41 O 0.95045 0.81412 0.97097 0.0
C42 C 0.84844 0.1894 0.97453 0.0
C43 C 0.97326 0.08263 0.79321 0.0
O44 O 0.94904 0.03418 0.75211 0.0
C45 C 0.78981 0.01316 0.14689 0.0
H46 H 0.94836 0.91385 0.77036 0.0
H47 H 0.92667 0.83458 0.80385 0.0
H48 H 0.99446 0.83777 0.73637 0.0
C49 C 0.97103 0.86462 0.78371 0.0
Zn50 Zn 0.94515 0.49104 0.40713 0.0
Zn51 Zn 0.9146 0.4431 0.56909 0.0
Zn52 Zn 0.97515 0.60502 0.52437 0.0
Zn53 Zn 0.82096 0.53708 0.51284 0.0
O54 O 0.92808 0.51673 0.50767 0.0
C55 C 0.05905 0.61381 0.65115 0.0
O56 O 0.11078 0.58231 0.6134 0.0
N57 N 0.02329 0.42195 0.39239 0.0
N58 N 0.07734 0.40797 0.43432 0.0
N59 N 0.08231 0.33086 0.34634 0.0
C60 C 0.02677 0.37529 0.33943 0.0
C61 C 0.11346 0.353 0.40533 0.0
N62 N 0.99642 0.39187 0.59904 0.0
C63 C 0.08498 0.3717 0.66567 0.0
N64 N 0.04785 0.31439 0.66148 0.0
C65 C 0.99152 0.32937 0.62114 0.0
N66 N 0.0535 0.41922 0.62831 0.0
H67 H 0.92289 0.25663 0.57245 0.0
C68 C 0.92256 0.29096 0.61942 0.0
H69 H 0.87456 0.32576 0.62008 0.0
H70 H 0.91697 0.25981 0.66458 0.0
N71 N 0.06674 0.60024 0.47305 0.0
C72 C 0.11821 0.64624 0.47338 0.0
C73 C 0.15569 0.56383 0.40612 0.0
N74 N 0.08965 0.54912 0.43077 0.0
N75 N 0.17509 0.62465 0.43236 0.0
C76 C 0.11148 0.7131 0.51262 0.0
H77 H 0.10554 0.75321 0.47564 0.0
H78 H 0.06331 0.71581 0.54785 0.0
H79 H 0.16155 0.72227 0.54221 0.0
O80 O 0.76597 0.49178 0.43449 0.0
O81 O 0.85499 0.45712 0.36155 0.0
C82 C 0.78788 0.46272 0.3774 0.0
O83 O 0.84608 0.38613 0.51813 0.0
O84 O 0.80229 0.63296 0.50121 0.0
O85 O 0.90795 0.68279 0.49292 0.0
O86 O 0.96999 0.5764 0.36196 0.0
O87 O 0.77276 0.52089 0.60587 0.0
O88 O 0.86711 0.47613 0.65635 0.0
O89 O 0.99686 0.624 0.62531 0.0
C90 C 0.86636 0.34023 0.47354 0.0
O91 O 0.93583 0.32755 0.46142 0.0
C92 C 0.83852 0.68457 0.49163 0.0
C93 C 0.96225 0.58541 0.29837 0.0
O94 O 0.93264 0.53883 0.25861 0.0
C95 C 0.80327 0.5012 0.65982 0.0
H96 H 0.94821 0.41735 0.27212 0.0
H97 H 0.9254 0.33837 0.30597 0.0
H98 H 0.99263 0.34057 0.23799 0.0
C99 C 0.97009 0.36779 0.28546 0.0
Zn100 Zn 0.44194 -0.01562 0.39816 0.0
Zn101 Zn 0.4151 0.92012 0.55438 0.0
Zn102 Zn 0.46507 0.09036 0.53026 0.0
Zn103 Zn 0.31585 0.02087 0.50439 0.0
O104 O 0.42303 0.0022 0.50096 0.0
C105 C 0.55495 0.09889 0.6524 0.0
O106 O 0.60601 0.07331 0.60973 0.0
N107 N 0.51976 0.91568 0.38143 0.0
N108 N 0.57766 0.90642 0.41991 0.0
N109 N 0.57957 0.82409 0.33676 0.0
C110 C 0.52122 0.86601 0.3314 0.0
C111 C 0.6144 0.85132 0.3919 0.0
N112 N 0.49978 0.88201 0.59553 0.0
C113 C 0.58533 0.8729 0.66827 0.0
N114 N 0.55421 0.81239 0.66504 0.0
C115 C 0.49904 0.82092 0.62144 0.0
N116 N 0.55199 0.91571 0.62644 0.0
H117 H 0.44494 0.73238 0.58583 0.0
C118 C 0.43343 0.77793 0.62009 0.0
H119 H 0.38478 0.80559 0.60283 0.0
H120 H 0.42091 0.76094 0.67228 0.0
N121 N 0.55305 0.10109 0.47772 0.0
C122 C 0.58791 0.15892 0.48037 0.0
C123 C 0.64269 0.09273 0.40546 0.0
N124 N 0.58694 0.05905 0.43139 0.0
N125 N 0.64489 0.15531 0.43576 0.0
C126 C 0.56442 0.21873 0.52683 0.0
H127 H 0.53664 0.2565 0.49581 0.0
H128 H 0.52521 0.20485 0.56692 0.0
H129 H 0.61195 0.24197 0.55168 0.0
O130 O 0.26336 0.97211 0.42842 0.0
O131 O 0.35155 0.95323 0.35012 0.0
C132 C 0.28505 0.95116 0.36821 0.0
O133 O 0.36722 0.85335 0.49049 0.0
O134 O 0.29252 0.11625 0.49203 0.0
O135 O 0.39526 0.16934 0.50827 0.0
O136 O 0.46706 0.07122 0.35463 0.0
O137 O 0.26861 0.0053 0.59605 0.0
O138 O 0.35312 0.93968 0.63813 0.0
O139 O 0.48949 0.10152 0.63222 0.0
C140 C 0.39901 0.80301 0.45864 0.0
O141 O 0.46884 0.79183 0.4667 0.0
C142 C 0.32762 0.16978 0.49525 0.0
C143 C 0.502 0.07006 0.29747 0.0
O144 O 0.52058 0.01183 0.26607 0.0
C145 C 0.29398 -0.02666 0.6454 0.0
H146 H 0.44329 0.90531 0.26167 0.0
H147 H 0.41668 0.83156 0.30369 0.0
H148 H 0.48284 0.8241 0.23393 0.0
C149 C 0.46285 0.85625 0.27933 0.0
Zn150 Zn 0.44581 0.48822 0.90242 0.0
Zn151 Zn 0.41498 0.42109 0.05847 0.0
Zn152 Zn 0.46913 0.59251 0.03073 0.0
Zn153 Zn 0.31911 0.52352 0.00785 0.0
O154 O 0.4258 0.50351 0.00529 0.0
C155 C 0.55334 0.59771 0.15649 0.0
O156 O 0.60469 0.56762 0.11716 0.0
N157 N 0.52294 0.41812 0.88185 0.0
N158 N 0.583 0.40856 0.91727 0.0
N159 N 0.58225 0.32798 0.83256 0.0
C160 C 0.52287 0.36929 0.83085 0.0
C161 C 0.61945 0.35465 0.88652 0.0
N162 N 0.49936 0.38191 0.09958 0.0
C163 C 0.58454 0.37114 0.17268 0.0
N164 N 0.55433 0.3102 0.1665 0.0
C165 C 0.49937 0.31975 0.12294 0.0
N166 N 0.5509 0.41507 0.13218 0.0
H167 H 0.44669 0.23198 0.08351 0.0
C168 C 0.4344 0.27607 0.11952 0.0
H169 H 0.38542 0.30403 0.10342 0.0
H170 H 0.42205 0.25675 0.17074 0.0
N171 N 0.56135 0.59536 0.98226 0.0
C172 C 0.60723 0.64607 0.98601 0.0
C173 C 0.65536 0.56907 0.91771 0.0
N174 N 0.59071 0.54751 0.93945 0.0
N175 N 0.66725 0.63101 0.9467 0.0
C176 C 0.59133 0.71135 0.02644 0.0
H177 H 0.57442 0.74994 -0.00951 0.0
H178 H 0.54644 0.70657 0.0644 0.0
H179 H 0.64079 0.72866 0.05297 0.0
O180 O 0.26688 0.47469 0.9315 0.0
O181 O 0.35558 0.45995 0.85316 0.0
C182 C 0.28921 0.45598 0.87082 0.0
O183 O 0.36704 0.3547 -0.00682 0.0
O184 O 0.29772 0.61903 -0.005 0.0
O185 O 0.40143 0.6721 0.00364 0.0
O186 O 0.47342 0.57749 0.86467 0.0
O187 O 0.27045 0.50935 0.09924 0.0
O188 O 0.35169 0.44106 0.14231 0.0
O189 O 0.4899 0.60597 0.13254 0.0
C190 C 0.39926 0.30574 0.95923 0.0
O191 O 0.46951 0.2957 0.96558 0.0
C192 C 0.33295 0.67239 -0.00606 0.0
C193 C 0.47665 0.58447 0.80012 0.0
O194 O 0.45731 0.53471 0.75789 0.0
C195 C 0.29357 0.47655 0.14894 0.0
H196 H 0.44526 0.40901 0.76195 0.0
H197 H 0.41587 0.33849 0.80786 0.0
H198 H 0.47934 0.32565 0.73613 0.0
C199 C 0.46254 0.35997 0.781 0.0
C200 C 0.099 0.19773 0.20713 0.0
C201 C 0.04552 0.15415 0.22863 0.0
H202 H 0.15365 0.28953 0.22978 0.0
C203 C 0.01891 0.1612 0.2969 0.0
H204 H 0.12183 0.19242 0.15527 0.0
C205 C 0.03886 0.21607 0.33986 0.0
C206 C 0.08526 0.26408 0.31485 0.0
H207 H 0.97799 0.12825 0.31497 0.0
H208 H 0.01265 0.22479 0.39004 0.0
C209 C 0.1183 0.25262 0.24981 0.0
C210 C 0.73087 0.09866 0.22881 0.0
C211 C 0.75264 0.0315 0.21352 0.0
H212 H 0.67951 0.17017 0.30035 0.0
C213 C 0.74067 -0.01606 0.26297 0.0
H214 H 0.74002 0.13656 0.19207 0.0
C215 C 0.70533 0.00343 0.32599 0.0
C216 C 0.6833 0.07081 0.3409 0.0
H217 H 0.75769 0.9318 0.25252 0.0
H218 H 0.69612 0.96627 0.36327 0.0
C219 C 0.69721 0.11809 0.29175 0.0
C220 C 0.0396 0.69617 0.16685 0.0
C221 C 0.03994 0.75847 0.20406 0.0
H222 H 0.01265 0.59282 0.16714 0.0
C223 C 0.02398 0.76192 0.27518 0.0
H224 H 0.05086 0.69304 0.11175 0.0
C225 C 0.0022 0.70454 0.30723 0.0
C226 C 0.9943 0.64386 0.2679 0.0
H227 H 0.02207 0.80979 0.30443 0.0
H228 H 0.98683 0.70878 0.36148 0.0
C229 C 0.01619 0.63947 0.19818 0.0
C230 C 0.15704 0.94299 0.32909 0.0
C231 C 0.23132 0.9276 0.3172 0.0
H232 H 0.04956 0.93832 0.28906 0.0
C233 C 0.25353 0.89208 0.25512 0.0
H234 H 0.13807 0.97075 0.37593 0.0
C235 C 0.20242 0.87248 0.20606 0.0
C236 C 0.12882 0.88923 0.21803 0.0
H237 H 0.31024 0.87959 0.24428 0.0
H238 H 0.22038 0.84543 0.15848 0.0
C239 C 0.10641 0.92462 0.27954 0.0
C240 C 0.03565 0.71837 0.81718 0.0
C241 C 0.09162 0.76382 0.81016 0.0
H242 H 0.98065 0.63459 0.7708 0.0
C243 C 0.14468 0.75093 0.75815 0.0
H244 H 0.99391 0.72803 0.85678 0.0
C245 C 0.1386 0.69622 0.71042 0.0
C246 C 0.07786 0.65546 0.71284 0.0
H247 H 0.18697 0.78634 0.75075 0.0
H248 H 0.17731 0.69007 0.6677 0.0
C249 C 0.02801 0.66522 0.76813 0.0
C250 C 0.15172 0.00773 0.78495 0.0
C251 C 0.19466 0.02551 0.8417 0.0
H252 H 0.14945 -0.0206 0.67681 0.0
C253 C 0.27002 0.01379 0.83618 0.0
H254 H 0.09354 0.01241 0.78881 0.0
C255 C 0.3022 -0.00811 0.77279 0.0
C256 C 0.25933 -0.01756 0.71407 0.0
H257 H 0.30433 0.02261 0.87998 0.0
H258 H 0.36086 -0.01356 0.76882 0.0
C259 C 0.18368 -0.01184 0.72106 0.0
C260 C 0.03258 0.25995 0.77099 0.0
C261 C 0.05348 0.25587 0.70091 0.0
H262 H 0.99076 0.20746 0.85575 0.0
C263 C 0.05765 0.19293 0.66478 0.0
H264 H 0.0269 0.30817 0.7993 0.0
C265 C 0.03385 0.13607 0.69574 0.0
C266 C 0.00681 0.14105 0.76395 0.0
H267 H 0.07261 0.18923 0.61043 0.0
H268 H 0.03373 0.08883 0.66527 0.0
C269 C 0.01025 0.20259 0.80266 0.0
C270 C 0.7043 0.86107 0.72631 0.0
C271 C 0.63719 0.89504 0.72082 0.0
H272 H 0.80588 0.85758 0.77783 0.0
C273 C 0.61937 0.95099 0.76578 0.0
H274 H 0.71883 0.81783 0.6919 0.0
C275 C 0.66784 0.97229 0.81645 0.0
C276 C 0.73588 0.93929 0.82132 0.0
H277 H 0.56756 -0.02225 0.76221 0.0
H278 H 0.65282 0.01557 0.85062 0.0
C279 C 0.75396 0.88397 0.77521 0.0
C280 C 0.36334 0.18702 0.95476 0.0
C281 C 0.3544 0.25174 0.93095 0.0
H282 H 0.31033 0.09627 0.97583 0.0
C283 C 0.29267 0.2678 0.8933 0.0
H284 H 0.41053 0.17335 0.98393 0.0
C285 C 0.23758 0.22197 0.88467 0.0
C286 C 0.24267 0.16046 0.91582 0.0
H287 H 0.28491 0.3173 0.87481 0.0
H288 H 0.18818 0.23681 0.85928 0.0
C289 C 0.30666 0.14244 0.9492 0.0
C290 C 0.22675 0.7493 0.02119 0.0
C291 C 0.29014 0.73407 0.98096 0.0
H292 H 0.12208 0.80008 0.02798 0.0
C293 C 0.3003 0.76661 0.91952 0.0
H294 H 0.21719 0.72401 0.0683 0.0
C295 C 0.24516 0.80934 0.89605 0.0
C296 C 0.17954 0.82018 0.93382 0.0
H297 H 0.34791 0.7548 0.88701 0.0
H298 H 0.2524 0.83148 0.84686 0.0
C299 C 0.17219 0.7925 -0.00188 0.0
C300 C 0.69298 0.31242 0.98267 0.0
C301 C 0.68801 0.32605 0.91286 0.0
H302 H 0.75153 0.25916 0.05795 0.0
C303 C 0.74742 0.30886 0.86814 0.0
H304 H 0.64841 0.32612 0.01842 0.0
C305 C 0.807 0.27119 0.89085 0.0
C306 C 0.80835 0.25144 0.95899 0.0
H307 H 0.74669 0.32231 0.81503 0.0
H308 H 0.84864 0.25271 0.85378 0.0
C309 C 0.7525 0.27503 0.00545 0.0
C310 C 0.76488 0.78626 0.91744 0.0
C311 C 0.83296 0.771 0.94471 0.0
H312 H 0.65998 0.75063 0.89107 0.0
C313 C 0.84883 0.70564 0.96419 0.0
H314 H 0.75011 0.8369 0.90575 0.0
C315 C 0.7945 0.65867 0.96329 0.0
C316 C 0.72638 0.67415 0.93621 0.0
H317 H 0.90043 0.69292 0.98683 0.0
H318 H 0.8041 0.61195 -0.01216 0.0
C319 C 0.7129 0.73742 0.91068 0.0
C320 C 0.65512 0.52025 0.7967 0.0
C321 C 0.69457 0.53855 0.85561 0.0
H322 H 0.65793 0.49713 0.68738 0.0
C323 C 0.77058 0.53322 0.85149 0.0
H324 H 0.59708 0.51797 0.79948 0.0
C325 C 0.80604 0.51887 0.78794 0.0
C326 C 0.76585 0.50937 0.7275 0.0
H327 H 0.80297 0.54006 0.89678 0.0
H328 H 0.86487 0.51766 0.78582 0.0
C329 C 0.69008 0.50765 0.7327 0.0
C330 C 0.21165 0.37743 0.70653 0.0
C331 C 0.1373 0.38858 0.71915 0.0
H332 H 0.31836 0.39124 0.74424 0.0
C333 C 0.11257 0.42101 0.78151 0.0
H334 H 0.23136 0.35333 0.65801 0.0
C335 C 0.16186 0.44141 0.83158 0.0
C336 C 0.23685 0.43136 0.81909 0.0
H337 H 0.05502 0.43105 0.79119 0.0
H338 H 0.14124 0.46653 0.87925 0.0
C339 C 0.26119 0.39924 0.75592 0.0
C340 C 0.14835 0.51759 0.28499 0.0
C341 C 0.18987 0.52823 0.34424 0.0
H342 H 0.14868 0.49449 0.1758 0.0
C343 C 0.2643 0.51098 0.3408 0.0
H344 H 0.09076 0.52792 0.28675 0.0
C345 C 0.29753 0.48941 0.27762 0.0
C346 C 0.25679 0.48592 0.21697 0.0
H347 H 0.29714 0.51542 0.38626 0.0
H348 H 0.35569 0.47941 0.27557 0.0
C349 C 0.18153 0.49808 0.22156 0.0
C350 C 0.62173 0.45252 0.26639 0.0
C351 C 0.63598 0.3924 0.22646 0.0
H352 H 0.65791 0.52085 0.34696 0.0
C353 C 0.69935 0.35413 0.23785 0.0
H354 H 0.57283 0.48261 0.25873 0.0
C355 C 0.74893 0.37692 0.28708 0.0
C356 C 0.73457 0.43705 0.32723 0.0
H357 H 0.71136 0.30762 0.20758 0.0
H358 H 0.79801 0.34716 0.29432 0.0
C359 C 0.67002 0.47413 0.31709 0.0
C360 C 0.29109 0.76603 0.39479 0.0
C361 C 0.35332 0.74932 0.43142 0.0
H362 H 0.1849 0.73688 0.36405 0.0
C363 C 0.36172 0.68479 0.45581 0.0
H364 H 0.28389 0.81534 0.37576 0.0
C365 C 0.3042 0.64106 0.45162 0.0
C366 C 0.2396 0.66023 0.41994 0.0
H367 H 0.40922 0.6708 0.48445 0.0
H368 H 0.30774 0.59485 0.47817 0.0
C369 C 0.23474 0.72142 0.38833 0.0
C370 C 0.23897 0.30233 0.39372 0.0
C371 C 0.17702 0.31918 0.43523 0.0
H372 H 0.33837 0.24304 0.38216 0.0
C373 C 0.17278 0.29613 0.50188 0.0
H374 H 0.24316 0.31973 0.34197 0.0
C375 C 0.22679 0.25215 0.52462 0.0
C376 C 0.28663 0.23193 0.48153 0.0
H377 H 0.12496 0.30757 0.53393 0.0
H378 H 0.21925 0.23021 0.57395 0.0
C379 C 0.29376 0.25931 0.41692 0.0
C380 C 0.8012 0.76914 0.40833 0.0
C381 C 0.79555 0.74469 0.47449 0.0
H382 H 0.74777 0.82377 0.33048 0.0
C383 C 0.73448 0.76406 0.51642 0.0
H384 H 0.84702 0.75399 0.37461 0.0
C385 C 0.67743 0.80258 0.49079 0.0
C386 C 0.67996 0.8214 0.42244 0.0
H387 H 0.72834 0.7449 0.56727 0.0
H388 H 0.62918 0.81334 0.52261 0.0
C389 C 0.74362 0.80736 0.3825 0.0
C390 C 0.77487 0.17889 0.43255 0.0
C391 C 0.70203 0.20186 0.43156 0.0
H392 H 0.88562 0.20599 0.44356 0.0
C393 C 0.6856 0.27074 0.43208 0.0
H394 H 0.78867 0.12568 0.43177 0.0
C395 C 0.73989 0.3161 0.44389 0.0
C396 C 0.81235 0.29344 0.44849 0.0
H397 H 0.63032 0.28951 0.42749 0.0
H398 H 0.72443 0.36863 0.45246 0.0
C399 C 0.83011 0.22466 0.43939 0.0
C400 C 0.53785 0.21368 0.81298 0.0
C401 C 0.58935 0.26179 0.79876 0.0
H402 H 0.48588 0.12375 0.77715 0.0
C403 C 0.63683 0.24942 0.74196 0.0
H404 H 0.49971 0.22276 0.85559 0.0
C405 C 0.63101 0.19134 0.69867 0.0
C406 C 0.57497 0.14657 0.70937 0.0
H407 H 0.67441 0.287 0.72777 0.0
H408 H 0.66581 0.18505 0.65304 0.0
C409 C 0.52988 0.1571 0.76813 0.0
C410 C 0.57059 0.69237 0.67525 0.0
C411 C 0.56138 0.75652 0.70818 0.0
H412 H 0.54847 0.58814 0.67752 0.0
C413 C 0.53507 0.76264 0.77675 0.0
H414 H 0.58996 0.68693 0.62213 0.0
C415 C 0.51116 0.70587 0.80899 0.0
C416 C 0.51196 0.64296 0.77222 0.0
H417 H 0.52635 0.81188 0.8026 0.0
H418 H 0.48717 0.71207 0.86042 0.0
C419 C 0.54517 0.63628 0.70642 0.0
C420 C 0.63317 0.68403 0.20889 0.0
C421 C 0.57344 0.64252 0.21545 0.0
H422 H 0.68013 0.7773 0.2415 0.0
C423 C 0.5247 0.65503 0.27114 0.0
H424 H 0.67106 0.67584 0.16569 0.0
C425 C 0.53208 0.71137 0.31611 0.0
C426 C 0.58692 0.75713 0.30511 0.0
H427 H 0.47802 0.62401 0.27695 0.0
H428 H 0.49081 0.72252 0.35548 0.0
C429 C 0.63897 0.74184 0.25261 0.0
C430 C 0.51643 0.1955 0.30535 0.0
C431 C 0.5246 0.13303 0.26781 0.0
H432 H 0.52322 0.30279 0.30243 0.0
C433 C 0.55553 0.13082 0.20102 0.0
H434 H 0.49341 0.19879 0.35721 0.0
C435 C 0.57464 0.18979 0.1712 0.0
C436 C 0.56217 0.25236 0.20674 0.0
H437 H 0.56335 0.08364 0.17089 0.0
H438 H 0.59375 0.18726 0.11798 0.0
C439 C 0.5352 0.2548 0.27495 0.0
loop_
_geom_bond_atom_site_label_1
_geom_bond_atom_site_label_2
_geom_bond_distance
_geom_bond_site_symmetry_2
_ccdc_geom_bond_type
Zn0 O4 1.978 . S
Zn0 N7 2.004 1_545 S
Zn0 O31 2.064 1_545 S
Zn0 O36 1.963 . S
Zn1 O4 1.978 1_564 S
Zn1 N12 2.004 . S
Zn1 O33 1.963 1_554 S
Zn1 O38 2.064 . S
Zn2 O4 1.978 1_554 S
Zn2 N21 2.003 1_655 S
Zn2 O35 2.064 . S
Zn2 O39 1.963 . S
Zn3 O4 1.913 . S
Zn3 O30 1.941 . S
Zn3 O34 1.941 1_556 S
Zn3 O37 1.941 1_556 S
O4 Zn0 1.978 . S
O4 Zn1 1.978 1_546 S
O4 Zn2 1.978 1_556 S
O4 Zn3 1.913 . S
C5 O6 1.237 1_655 S
C5 O39 1.268 . S
O6 C5 1.237 1_455 S
N7 Zn0 2.004 1_565 S
N7 N8 1.383 1_655 S
N7 C10 1.306 1_655 S
N8 N7 1.383 1_455 S
N8 C11 1.302 . S
N9 C10 1.368 . S
N9 C11 1.379 . S
C10 N7 1.306 1_455 S
C10 N9 1.368 . S
C10 C49 1.481 1_455 S
C11 N8 1.302 . S
C11 N9 1.379 . S
N12 Zn1 2.004 . S
N12 C15 1.306 1_655 S
N12 N16 1.383 1_655 S
C13 N14 1.379 . S
C13 N16 1.302 . S
N14 C13 1.379 . S
N14 C15 1.368 . S
C15 N12 1.306 1_455 S
C15 N14 1.368 . S
C15 C18 1.481 1_455 S
N16 N12 1.383 1_455 S
N16 C13 1.302 . S
H17 C18 0.969 . S
C18 C15 1.481 1_655 S
C18 H17 0.969 . S
C18 H19 0.970 . S
C18 H20 0.971 . S
H19 C18 0.970 . S
H20 C18 0.971 . S
N21 Zn2 2.003 1_455 S
N21 C22 1.306 . S
N21 N24 1.384 1_554 S
C22 N21 1.306 . S
C22 N25 1.368 1_554 S
C22 C26 1.481 . S
C23 N24 1.302 . S
C23 N25 1.379 . S
N24 N21 1.384 1_556 S
N24 C23 1.302 . S
N25 C22 1.368 1_556 S
N25 C23 1.379 . S
C26 C22 1.481 . S
C26 H27 0.971 . S
C26 H28 0.970 . S
C26 H29 0.969 . S
H27 C26 0.971 . S
H28 C26 0.970 . S
H29 C26 0.969 . S
O30 Zn3 1.941 . S
O30 C32 1.277 1_545 S
O31 Zn0 2.064 1_565 S
O31 C32 1.233 . S
C32 O30 1.277 1_565 S
C32 O31 1.233 . S
O33 Zn1 1.963 1_556 S
O33 C40 1.268 . S
O34 Zn3 1.941 1_554 S
O34 C42 1.277 1_554 S
O35 Zn2 2.064 . S
O35 C42 1.230 1_554 S
O36 Zn0 1.963 . S
O36 C43 1.268 . S
O37 Zn3 1.941 1_554 S
O37 C45 1.277 1_545 S
O38 Zn1 2.064 . S
O38 C45 1.233 . S
O39 Zn2 1.963 . S
O39 C5 1.268 . S
C40 O33 1.268 . S
C40 O41 1.237 1_556 S
O41 C40 1.237 1_554 S
C42 O34 1.277 1_556 S
C42 O35 1.230 1_556 S
C43 O36 1.268 . S
C43 O44 1.237 . S
O44 C43 1.237 . S
C45 O37 1.277 1_565 S
C45 O38 1.233 . S
H46 C49 0.970 . S
H47 C49 0.971 . S
H48 C49 0.969 1_455 S
C49 C10 1.481 1_655 S
C49 H46 0.970 . S
C49 H47 0.971 . S
C49 H48 0.969 1_655 S
Zn50 O54 1.978 . S
Zn50 N57 2.004 . S
Zn50 O81 2.064 . S
Zn50 O86 1.963 . S
Zn51 O54 1.978 . S
Zn51 N62 2.004 . S
Zn51 O83 1.963 . S
Zn51 O88 2.064 . S
Zn52 O54 1.978 . S
Zn52 N71 2.004 1_655 S
Zn52 O85 2.064 . S
Zn52 O89 1.963 . S
Zn53 O54 1.913 . S
Zn53 O80 1.941 . S
Zn53 O84 1.941 . S
Zn53 O87 1.941 . S
O54 Zn50 1.978 . S
O54 Zn51 1.978 . S
O54 Zn52 1.978 . S
O54 Zn53 1.913 . S
C55 O56 1.237 1_655 S
C55 O89 1.268 . S
O56 C55 1.237 1_455 S
N57 Zn50 2.004 . S
N57 N58 1.383 1_655 S
N57 C60 1.306 1_655 S
N58 N57 1.383 1_455 S
N58 C61 1.302 . S
N59 C60 1.368 . S
N59 C61 1.379 . S
C60 N57 1.306 1_455 S
C60 N59 1.368 . S
C60 C99 1.481 1_455 S
C61 N58 1.302 . S
C61 N59 1.379 . S
N62 Zn51 2.004 . S
N62 C65 1.306 1_655 S
N62 N66 1.383 1_655 S
C63 N64 1.379 . S
C63 N66 1.302 . S
N64 C63 1.379 . S
N64 C65 1.368 . S
C65 N62 1.306 1_455 S
C65 N64 1.368 . S
C65 C68 1.481 1_455 S
N66 N62 1.383 1_455 S
N66 C63 1.302 . S
H67 C68 0.969 . S
C68 C65 1.481 1_655 S
C68 H67 0.969 . S
C68 H69 0.970 . S
C68 H70 0.971 . S
H69 C68 0.970 . S
H70 C68 0.971 . S
N71 Zn52 2.004 1_455 S
N71 C72 1.306 . S
N71 N74 1.383 . S
C72 N71 1.306 . S
C72 N75 1.368 . S
C72 C76 1.481 . S
C73 N74 1.302 . S
C73 N75 1.379 . S
N74 N71 1.383 . S
N74 C73 1.302 . S
N75 C72 1.368 . S
N75 C73 1.379 . S
C76 C72 1.481 . S
C76 H77 0.971 . S
C76 H78 0.970 . S
C76 H79 0.969 . S
H77 C76 0.971 . S
H78 C76 0.970 . S
H79 C76 0.969 . S
O80 Zn53 1.941 . S
O80 C82 1.277 . S
O81 Zn50 2.064 . S
O81 C82 1.233 . S
C82 O80 1.277 . S
C82 O81 1.233 . S
O83 Zn51 1.963 . S
O83 C90 1.268 . S
O84 Zn53 1.941 . S
O84 C92 1.277 . S
O85 Zn52 2.064 . S
O85 C92 1.233 . S
O86 Zn50 1.963 . S
O86 C93 1.268 . S
O87 Zn53 1.941 . S
O87 C95 1.277 . S
O88 Zn51 2.064 . S
O88 C95 1.233 . S
O89 Zn52 1.963 . S
O89 C55 1.268 . S
C90 O83 1.268 . S
C90 O91 1.237 . S
O91 C90 1.237 . S
C92 O84 1.277 . S
C92 O85 1.233 . S
C93 O86 1.268 . S
C93 O94 1.237 . S
O94 C93 1.237 . S
C95 O87 1.277 . S
C95 O88 1.233 . S
H96 C99 0.970 . S
H97 C99 0.971 . S
H98 C99 0.969 1_455 S
C99 C60 1.481 1_655 S
C99 H96 0.970 . S
C99 H97 0.971 . S
C99 H98 0.969 1_655 S
Zn100 O104 1.978 . S
Zn100 N107 2.004 1_545 S
Zn100 O131 2.064 1_545 S
Zn100 O136 1.963 . S
Zn101 O104 1.978 1_565 S
Zn101 N112 2.004 . S
Zn101 O133 1.963 . S
Zn101 O138 2.064 . S
Zn102 O104 1.978 . S
Zn102 N121 2.004 . S
Zn102 O135 2.064 . S
Zn102 O139 1.963 . S
Zn103 O104 1.913 . S
Zn103 O130 1.941 . S
Zn103 O134 1.941 . S
Zn103 O137 1.941 . S
O104 Zn100 1.978 . S
O104 Zn101 1.978 1_545 S
O104 Zn102 1.978 . S
O104 Zn103 1.913 . S
C105 O106 1.237 . S
C105 O139 1.268 . S
O106 C105 1.237 . S
N107 Zn100 2.004 1_565 S
N107 N108 1.383 . S
N107 C110 1.306 . S
N108 N107 1.383 . S
N108 C111 1.302 . S
N109 C110 1.368 . S
N109 C111 1.379 . S
C110 N107 1.306 . S
C110 N109 1.368 . S
C110 C149 1.481 . S
C111 N108 1.302 . S
C111 N109 1.379 . S
N112 Zn101 2.004 . S
N112 C115 1.306 . S
N112 N116 1.383 . S
C113 N114 1.379 . S
C113 N116 1.302 . S
N114 C113 1.379 . S
N114 C115 1.368 . S
C115 N112 1.306 . S
C115 N114 1.368 . S
C115 C118 1.481 . S
N116 N112 1.383 . S
N116 C113 1.302 . S
H117 C118 0.969 . S
C118 C115 1.481 . S
C118 H117 0.969 . S
C118 H119 0.970 . S
C118 H120 0.971 . S
H119 C118 0.970 . S
H120 C118 0.971 . S
N121 Zn102 2.004 . S
N121 C122 1.306 . S
N121 N124 1.383 . S
C122 N121 1.306 . S
C122 N125 1.368 . S
C122 C126 1.481 . S
C123 N124 1.302 . S
C123 N125 1.379 . S
N124 N121 1.383 . S
N124 C123 1.302 . S
N125 C122 1.368 . S
N125 C123 1.379 . S
C126 C122 1.481 . S
C126 H127 0.971 . S
C126 H128 0.970 . S
C126 H129 0.969 . S
H127 C126 0.971 . S
H128 C126 0.970 . S
H129 C126 0.969 . S
O130 Zn103 1.941 . S
O130 C132 1.277 1_545 S
O131 Zn100 2.064 1_565 S
O131 C132 1.233 . S
C132 O130 1.277 1_565 S
C132 O131 1.233 . S
O133 Zn101 1.963 . S
O133 C140 1.268 . S
O134 Zn103 1.941 . S
O134 C142 1.277 . S
O135 Zn102 2.064 . S
O135 C142 1.233 . S
O136 Zn100 1.963 . S
O136 C143 1.268 . S
O137 Zn103 1.941 . S
O137 C145 1.277 1_545 S
O138 Zn101 2.064 . S
O138 C145 1.233 . S
O139 Zn102 1.963 . S
O139 C105 1.268 . S
C140 O133 1.268 . S
C140 O141 1.237 . S
O141 C140 1.237 . S
C142 O134 1.277 . S
C142 O135 1.233 . S
C143 O136 1.268 . S
C143 O144 1.237 . S
O144 C143 1.237 . S
C145 O137 1.277 1_565 S
C145 O138 1.233 . S
H146 C149 0.970 . S
H147 C149 0.971 . S
H148 C149 0.969 . S
C149 C110 1.481 . S
C149 H146 0.970 . S
C149 H147 0.971 . S
C149 H148 0.969 . S
Zn150 O154 1.978 . S
Zn150 N157 2.004 . S
Zn150 O181 2.064 . S
Zn150 O186 1.963 . S
Zn151 O154 1.978 1_554 S
Zn151 N162 2.004 . S
Zn151 O183 1.963 1_554 S
Zn151 O188 2.064 . S
Zn152 O154 1.978 1_554 S
Zn152 N171 2.003 . S
Zn152 O185 2.064 . S
Zn152 O189 1.963 . S
Zn153 O154 1.913 . S
Zn153 O180 1.941 . S
Zn153 O184 1.941 1_556 S
Zn153 O187 1.941 1_556 S
O154 Zn150 1.978 . S
O154 Zn151 1.978 1_556 S
O154 Zn152 1.978 1_556 S
O154 Zn153 1.913 . S
C155 O156 1.237 . S
C155 O189 1.268 . S
O156 C155 1.237 . S
N157 Zn150 2.004 . S
N157 N158 1.383 . S
N157 C160 1.306 . S
N158 N157 1.383 . S
N158 C161 1.302 . S
N159 C160 1.368 . S
N159 C161 1.379 . S
C160 N157 1.306 . S
C160 N159 1.368 . S
C160 C199 1.481 . S
C161 N158 1.302 . S
C161 N159 1.379 . S
N162 Zn151 2.004 . S
N162 C165 1.306 . S
N162 N166 1.383 . S
C163 N164 1.379 . S
C163 N166 1.302 . S
N164 C163 1.379 . S
N164 C165 1.368 . S
C165 N162 1.306 . S
C165 N164 1.368 . S
C165 C168 1.481 . S
N166 N162 1.383 . S
N166 C163 1.302 . S
H167 C168 0.969 . S
C168 C165 1.481 . S
C168 H167 0.969 . S
C168 H169 0.970 . S
C168 H170 0.971 . S
H169 C168 0.970 . S
H170 C168 0.971 . S
N171 Zn152 2.003 . S
N171 C172 1.306 . S
N171 N174 1.384 1_554 S
C172 N171 1.306 . S
C172 N175 1.368 1_554 S
C172 C176 1.481 . S
C173 N174 1.302 . S
C173 N175 1.379 . S
N174 N171 1.384 1_556 S
N174 C173 1.302 . S
N175 C172 1.368 1_556 S
N175 C173 1.379 . S
C176 C172 1.481 . S
C176 H177 0.971 . S
C176 H178 0.970 . S
C176 H179 0.969 . S
H177 C176 0.971 . S
H178 C176 0.970 . S
H179 C176 0.969 . S
O180 Zn153 1.941 . S
O180 C182 1.277 . S
O181 Zn150 2.064 . S
O181 C182 1.233 . S
C182 O180 1.277 . S
C182 O181 1.233 . S
O183 Zn151 1.963 1_556 S
O183 C190 1.268 . S
O184 Zn153 1.941 1_554 S
O184 C192 1.277 1_554 S
O185 Zn152 2.064 . S
O185 C192 1.230 1_554 S
O186 Zn150 1.963 . S
O186 C193 1.268 . S
O187 Zn153 1.941 1_554 S
O187 C195 1.277 . S
O188 Zn151 2.064 . S
O188 C195 1.233 . S
O189 Zn152 1.963 . S
O189 C155 1.268 . S
C190 O183 1.268 . S
C190 O191 1.237 1_556 S
O191 C190 1.237 1_554 S
C192 O184 1.277 1_556 S
C192 O185 1.230 1_556 S
C193 O186 1.268 . S
C193 O194 1.237 . S
O194 C193 1.237 . S
C195 O187 1.277 . S
C195 O188 1.233 . S
H196 C199 0.970 . S
H197 C199 0.971 . S
H198 C199 0.969 . S
C199 C160 1.481 . S
C199 H196 0.970 . S
C199 H197 0.971 . S
C199 H198 0.969 . S
C200 C201 1.387 . S
C200 H204 0.950 . S
C200 C209 1.390 . S
C201 C200 1.387 . S
C201 C203 1.387 . S
H202 C209 0.950 . S
C203 C201 1.387 . S
C203 C205 1.390 . S
C203 H207 0.950 1_455 S
H204 C200 0.950 . S
C205 C203 1.390 . S
C205 C206 1.387 . S
C205 H208 0.950 . S
C206 C205 1.387 . S
C206 C209 1.387 . S
H207 C203 0.950 1_655 S
H208 C205 0.950 . S
C209 C200 1.390 . S
C209 H202 0.950 . S
C209 C206 1.387 . S
C210 C211 1.387 . S
C210 H214 0.950 . S
C210 C219 1.390 . S
C211 C210 1.387 . S
C211 C213 1.387 1_545 S
H212 C219 0.950 . S
C213 C211 1.387 1_565 S
C213 C215 1.390 . S
C213 H217 0.950 . S
H214 C210 0.950 . S
C215 C213 1.390 . S
C215 C216 1.387 1_565 S
C215 H218 0.950 . S
C216 C215 1.387 1_545 S
C216 C219 1.387 . S
H217 C213 0.950 . S
H218 C215 0.950 . S
C219 C210 1.390 . S
C219 H212 0.950 . S
C219 C216 1.387 . S
C220 C221 1.387 . S
C220 H224 0.950 . S
C220 C229 1.390 . S
C221 C220 1.387 . S
C221 C223 1.387 . S
H222 C229 0.950 . S
C223 C221 1.387 . S
C223 C225 1.390 . S
C223 H227 0.950 . S
H224 C220 0.950 . S
C225 C223 1.390 . S
C225 C226 1.387 . S
C225 H228 0.950 . S
C226 C225 1.387 . S
C226 C229 1.387 . S
H227 C223 0.950 . S
H228 C225 0.950 . S
C229 C220 1.390 . S
C229 H222 0.950 . S
C229 C226 1.387 . S
C230 C231 1.387 1_545 S
C230 H234 0.950 . S
C230 C239 1.390 . S
C231 C230 1.387 1_565 S
C231 C233 1.387 . S
H232 C239 0.950 . S
C233 C231 1.387 . S
C233 C235 1.390 . S
C233 H237 0.950 . S
H234 C230 0.950 . S
C235 C233 1.390 . S
C235 C236 1.387 . S
C235 H238 0.950 . S
C236 C235 1.387 . S
C236 C239 1.387 1_565 S
H237 C233 0.950 . S
H238 C235 0.950 . S
C239 C230 1.390 . S
C239 H232 0.950 . S
C239 C236 1.387 1_545 S
C240 C241 1.391 . S
C240 H244 0.947 1_455 S
C240 C249 1.389 1_455 S
C241 C240 1.391 . S
C241 C243 1.387 . S
H242 C249 0.950 . S
C243 C241 1.387 . S
C243 C245 1.390 . S
C243 H247 0.950 . S
H244 C240 0.947 1_655 S
C245 C243 1.390 . S
C245 C246 1.387 . S
C245 H248 0.950 . S
C246 C245 1.387 . S
C246 C249 1.387 1_455 S
H247 C243 0.950 . S
H248 C245 0.950 . S
C249 C240 1.389 1_655 S
C249 H242 0.950 . S
C249 C246 1.387 1_655 S
C250 C251 1.387 1_565 S
C250 H254 0.950 . S
C250 C259 1.390 . S
C251 C250 1.387 1_545 S
C251 C253 1.387 . S
H252 C259 0.950 . S
C253 C251 1.387 . S
C253 C255 1.390 . S
C253 H257 0.950 . S
H254 C250 0.950 . S
C255 C253 1.390 . S
C255 C256 1.387 . S
C255 H258 0.950 . S
C256 C255 1.387 . S
C256 C259 1.387 1_545 S
H257 C253 0.950 . S
H258 C255 0.950 . S
C259 C250 1.390 . S
C259 H252 0.950 . S
C259 C256 1.387 1_565 S
C260 C261 1.387 . S
C260 H264 0.950 . S
C260 C269 1.390 . S
C261 C260 1.387 . S
C261 C263 1.387 . S
H262 C269 0.950 1_655 S
C263 C261 1.387 . S
C263 C265 1.390 . S
C263 H267 0.950 . S
H264 C260 0.950 . S
C265 C263 1.390 . S
C265 C266 1.387 . S
C265 H268 0.950 . S
C266 C265 1.387 . S
C266 C269 1.387 . S
H267 C263 0.950 . S
H268 C265 0.950 . S
C269 C260 1.390 . S
C269 H262 0.950 1_455 S
C269 C266 1.387 . S
C270 C271 1.387 . S
C270 H274 0.950 . S
C270 C279 1.390 . S
C271 C270 1.387 . S
C271 C273 1.387 1_565 S
H272 C279 0.950 . S
C273 C271 1.387 1_545 S
C273 C275 1.390 . S
C273 H277 0.950 . S
H274 C270 0.950 . S
C275 C273 1.390 . S
C275 C276 1.387 1_545 S
C275 H278 0.950 . S
C276 C275 1.387 1_565 S
C276 C279 1.387 . S
H277 C273 0.950 . S
H278 C275 0.950 . S
C279 C270 1.390 . S
C279 H272 0.950 . S
C279 C276 1.387 . S
C280 C281 1.387 1_554 S
C280 H284 0.950 . S
C280 C289 1.390 . S
C281 C280 1.387 1_556 S
C281 C283 1.387 . S
H282 C289 0.950 . S
C283 C281 1.387 . S
C283 C285 1.390 . S
C283 H287 0.950 . S
H284 C280 0.950 . S
C285 C283 1.390 . S
C285 C286 1.387 . S
C285 H288 0.950 . S
C286 C285 1.387 . S
C286 C289 1.387 1_556 S
H287 C283 0.950 . S
H288 C285 0.950 . S
C289 C280 1.390 . S
C289 H282 0.950 . S
C289 C286 1.387 1_554 S
C290 C291 1.387 1_554 S
C290 H294 0.950 . S
C290 C299 1.390 . S
C291 C290 1.387 1_556 S
C291 C293 1.387 . S
H292 C299 0.950 . S
C293 C291 1.387 . S
C293 C295 1.390 . S
C293 H297 0.950 . S
H294 C290 0.950 . S
C295 C293 1.390 . S
C295 C296 1.387 . S
C295 H298 0.950 . S
C296 C295 1.387 . S
C296 C299 1.387 1_556 S
H297 C293 0.950 . S
H298 C295 0.950 . S
C299 C290 1.390 . S
C299 H292 0.950 . S
C299 C296 1.387 1_554 S
C300 C301 1.387 1_554 S
C300 H304 0.950 . S
C300 C309 1.390 . S
C301 C300 1.387 1_556 S
C301 C303 1.387 . S
H302 C309 0.950 . S
C303 C301 1.387 . S
C303 C305 1.390 . S
C303 H307 0.950 . S
H304 C300 0.950 . S
C305 C303 1.390 . S
C305 C306 1.387 . S
C305 H308 0.950 . S
C306 C305 1.387 . S
C306 C309 1.387 1_556 S
H307 C303 0.950 . S
H308 C305 0.950 . S
C309 C300 1.390 . S
C309 H302 0.950 . S
C309 C306 1.387 1_554 S
C310 C311 1.387 . S
C310 H314 0.950 . S
C310 C319 1.390 . S
C311 C310 1.387 . S
C311 C313 1.387 1_556 S
H312 C319 0.950 . S
C313 C311 1.387 1_554 S
C313 C315 1.390 . S
C313 H317 0.950 . S
H314 C310 0.950 . S
C315 C313 1.390 . S
C315 C316 1.387 1_554 S
C315 H318 0.950 . S
C316 C315 1.387 1_556 S
C316 C319 1.387 . S
H317 C313 0.950 . S
H318 C315 0.950 . S
C319 C310 1.390 . S
C319 H312 0.950 . S
C319 C316 1.387 . S
C320 C321 1.387 . S
C320 H324 0.950 . S
C320 C329 1.390 . S
C321 C320 1.387 . S
C321 C323 1.387 . S
H322 C329 0.950 . S
C323 C321 1.387 . S
C323 C325 1.390 . S
C323 H327 0.950 . S
H324 C320 0.950 . S
C325 C323 1.390 . S
C325 C326 1.387 . S
C325 H328 0.950 . S
C326 C325 1.387 . S
C326 C329 1.387 . S
H327 C323 0.950 . S
H328 C325 0.950 . S
C329 C320 1.390 . S
C329 H322 0.950 . S
C329 C326 1.387 . S
C330 C331 1.387 . S
C330 H334 0.950 . S
C330 C339 1.390 . S
C331 C330 1.387 . S
C331 C333 1.387 . S
H332 C339 0.950 . S
C333 C331 1.387 . S
C333 C335 1.390 . S
C333 H337 0.950 . S
H334 C330 0.950 . S
C335 C333 1.390 . S
C335 C336 1.387 . S
C335 H338 0.950 . S
C336 C335 1.387 . S
C336 C339 1.387 . S
H337 C333 0.950 . S
H338 C335 0.950 . S
C339 C330 1.390 . S
C339 H332 0.950 . S
C339 C336 1.387 . S
C340 C341 1.387 . S
C340 H344 0.950 . S
C340 C349 1.390 . S
C341 C340 1.387 . S
C341 C343 1.387 . S
H342 C349 0.950 . S
C343 C341 1.387 . S
C343 C345 1.390 . S
C343 H347 0.950 . S
H344 C340 0.950 . S
C345 C343 1.390 . S
C345 C346 1.387 . S
C345 H348 0.950 . S
C346 C345 1.387 . S
C346 C349 1.387 . S
H347 C343 0.950 . S
H348 C345 0.950 . S
C349 C340 1.390 . S
C349 H342 0.950 . S
C349 C346 1.387 . S
C350 C351 1.387 . S
C350 H354 0.950 . S
C350 C359 1.390 . S
C351 C350 1.387 . S
C351 C353 1.387 . S
H352 C359 0.950 . S
C353 C351 1.387 . S
C353 C355 1.390 . S
C353 H357 0.950 . S
H354 C350 0.950 . S
C355 C353 1.390 . S
C355 C356 1.387 . S
C355 H358 0.950 . S
C356 C355 1.387 . S
C356 C359 1.387 . S
H357 C353 0.950 . S
H358 C355 0.950 . S
C359 C350 1.390 . S
C359 H352 0.950 . S
C359 C356 1.387 . S
C360 C361 1.387 . S
C360 H364 0.950 . S
C360 C369 1.390 . S
C361 C360 1.387 . S
C361 C363 1.387 . S
H362 C369 0.950 . S
C363 C361 1.387 . S
C363 C365 1.390 . S
C363 H367 0.950 . S
H364 C360 0.950 . S
C365 C363 1.390 . S
C365 C366 1.387 . S
C365 H368 0.950 . S
C366 C365 1.387 . S
C366 C369 1.387 . S
H367 C363 0.950 . S
H368 C365 0.950 . S
C369 C360 1.390 . S
C369 H362 0.950 . S
C369 C366 1.387 . S
C370 C371 1.387 . S
C370 H374 0.950 . S
C370 C379 1.390 . S
C371 C370 1.387 . S
C371 C373 1.387 . S
H372 C379 0.950 . S
C373 C371 1.387 . S
C373 C375 1.390 . S
C373 H377 0.950 . S
H374 C370 0.950 . S
C375 C373 1.390 . S
C375 C376 1.387 . S
C375 H378 0.950 . S
C376 C375 1.387 . S
C376 C379 1.387 . S
H377 C373 0.950 . S
H378 C375 0.950 . S
C379 C370 1.390 . S
C379 H372 0.950 . S
C379 C376 1.387 . S
C380 C381 1.387 . S
C380 H384 0.950 . S
C380 C389 1.390 . S
C381 C380 1.387 . S
C381 C383 1.387 . S
H382 C389 0.950 . S
C383 C381 1.387 . S
C383 C385 1.390 . S
C383 H387 0.950 . S
H384 C380 0.950 . S
C385 C383 1.390 . S
C385 C386 1.387 . S
C385 H388 0.950 . S
C386 C385 1.387 . S
C386 C389 1.387 . S
H387 C383 0.950 . S
H388 C385 0.950 . S
C389 C380 1.390 . S
C389 H382 0.950 . S
C389 C386 1.387 . S
C390 C391 1.387 . S
C390 H394 0.950 . S
C390 C399 1.390 . S
C391 C390 1.387 . S
C391 C393 1.387 . S
H392 C399 0.950 . S
C393 C391 1.387 . S
C393 C395 1.390 . S
C393 H397 0.950 . S
H394 C390 0.950 . S
C395 C393 1.390 . S
C395 C396 1.387 . S
C395 H398 0.950 . S
C396 C395 1.387 . S
C396 C399 1.387 . S
H397 C393 0.950 . S
H398 C395 0.950 . S
C399 C390 1.390 . S
C399 H392 0.950 . S
C399 C396 1.387 . S
C400 C401 1.387 . S
C400 H404 0.950 . S
C400 C409 1.390 . S
C401 C400 1.387 . S
C401 C403 1.387 . S
H402 C409 0.950 . S
C403 C401 1.387 . S
C403 C405 1.390 . S
C403 H407 0.950 . S
H404 C400 0.950 . S
C405 C403 1.390 . S
C405 C406 1.387 . S
C405 H408 0.950 . S
C406 C405 1.387 . S
C406 C409 1.387 . S
H407 C403 0.950 . S
H408 C405 0.950 . S
C409 C400 1.390 . S
C409 H402 0.950 . S
C409 C406 1.387 . S
C410 C411 1.387 . S
C410 H414 0.950 . S
C410 C419 1.390 . S
C411 C410 1.387 . S
C411 C413 1.387 . S
H412 C419 0.950 . S
C413 C411 1.387 . S
C413 C415 1.390 . S
C413 H417 0.950 . S
H414 C410 0.950 . S
C415 C413 1.390 . S
C415 C416 1.387 . S
C415 H418 0.950 . S
C416 C415 1.387 . S
C416 C419 1.387 . S
H417 C413 0.950 . S
H418 C415 0.950 . S
C419 C410 1.390 . S
C419 H412 0.950 . S
C419 C416 1.387 . S
C420 C421 1.387 . S
C420 H424 0.950 . S
C420 C429 1.390 . S
C421 C420 1.387 . S
C421 C423 1.387 . S
H422 C429 0.950 . S
C423 C421 1.387 . S
C423 C425 1.390 . S
C423 H427 0.950 . S
H424 C420 0.950 . S
C425 C423 1.390 . S
C425 C426 1.387 . S
C425 H428 0.950 . S
C426 C425 1.387 . S
C426 C429 1.387 . S
H427 C423 0.950 . S
H428 C425 0.950 . S
C429 C420 1.390 . S
C429 H422 0.950 . S
C429 C426 1.387 . S
C430 C431 1.387 . S
C430 H434 0.950 . S
C430 C439 1.390 . S
C431 C430 1.387 . S
C431 C433 1.387 . S
H432 C439 0.950 . S
C433 C431 1.387 . S
C433 C435 1.390 . S
C433 H437 0.950 . S
H434 C430 0.950 . S
C435 C433 1.390 . S
C435 C436 1.387 . S
C435 H438 0.950 . S
C436 C435 1.387 . S
C436 C439 1.387 . S
H437 C433 0.950 . S
H438 C435 0.950 . S
C439 C430 1.390 . S
C439 H432 0.950 . S
C439 C436 1.387 . S
C201 C5 1.189 1_455 S
C206 N59 1.410 . S
C211 C45 1.825 1_545 S
C216 C123 1.784 . S
C221 N14 1.656 . S
C226 C93 1.934 1_455 S
C231 C132 1.394 . S
C236 C13 1.269 . S
C241 N9 1.413 . S
C246 C55 1.189 1_455 S
C251 C23 1.786 . S
C256 C145 1.827 1_545 S
C261 N64 1.660 . S
C266 C43 1.931 1_455 S
C271 C113 1.266 . S
C276 C32 1.393 . S
C281 C190 1.000 . S
C286 N25 1.039 . S
C291 C192 1.946 . S
C296 C11 2.032 . S
C301 C161 2.032 . S
C306 C42 1.946 . S
C311 C40 0.998 . S
C316 N175 1.046 . S
C321 C173 1.785 . S
C326 C95 1.828 . S
C331 C63 1.266 . S
C336 C182 1.391 . S
C341 C73 1.786 . S
C346 C195 1.823 . S
C351 C163 1.272 . S
C356 C82 1.393 . S
C361 C140 0.998 . S
C366 N75 1.043 . S
C371 C61 2.035 . S
C376 C142 1.945 . S
C381 C92 1.944 . S
C386 C111 2.035 . S
C391 N125 1.041 . S
C396 C90 1.000 . S
C401 N159 1.416 . S
C406 C105 1.189 . S
C411 N114 1.656 . S
C416 C193 1.935 . S
C421 C155 1.193 . S
C426 N109 1.416 . S
C431 C143 1.932 . S
C436 N164 1.656 . S
