# Generated by pormake.
# Topology ukn, (4)-cn, num edge types: 1
# Building blocks:
#     Node 0, Type 0, BuildingBlock: CEKHIL_clean_sbu_0, # of connection points: 4
#     Node 1, Type 0, BuildingBlock: CEKHIL_clean_sbu_0, # of connection points: 4
#     Node 2, Type 0, BuildingBlock: CEKHIL_clean_sbu_0, # of connection points: 4
#     Node 3, Type 0, BuildingBlock: CEKHIL_clean_sbu_0, # of connection points: 4
#     Node 4, Type 0, BuildingBlock: CEKHIL_clean_sbu_0, # of connection points: 4
#     Node 5, Type 0, BuildingBlock: CEKHIL_clean_sbu_0, # of connection points: 4
#     Node 6, Type 0, BuildingBlock: CEKHIL_clean_sbu_0, # of connection points: 4
#     Node 7, Type 0, BuildingBlock: CEKHIL_clean_sbu_0, # of connection points: 4
#     Node 8, Type 0, BuildingBlock: CEKHIL_clean_sbu_0, # of connection points: 4
#     Node 9, Type 0, BuildingBlock: CEKHIL_clean_sbu_0, # of connection points: 4
#     Node 10, Type 0, BuildingBlock: CEKHIL_clean_sbu_0, # of connection points: 4
#     Node 11, Type 0, BuildingBlock: CEKHIL_clean_sbu_0, # of connection points: 4
#     Node 12, Type 0, BuildingBlock: CEKHIL_clean_sbu_0, # of connection points: 4
#     Node 13, Type 0, BuildingBlock: CEKHIL_clean_sbu_0, # of connection points: 4
#     Node 14, Type 0, BuildingBlock: CEKHIL_clean_sbu_0, # of connection points: 4
#     Node 15, Type 0, BuildingBlock: CEKHIL_clean_sbu_0, # of connection points: 4
#     Node 16, Type 0, BuildingBlock: CEKHIL_clean_sbu_0, # of connection points: 4
#     Node 17, Type 0, BuildingBlock: CEKHIL_clean_sbu_0, # of connection points: 4
#     Node 18, Type 0, BuildingBlock: CEKHIL_clean_sbu_0, # of connection points: 4
#     Node 19, Type 0, BuildingBlock: CEKHIL_clean_sbu_0, # of connection points: 4
#     Node 20, Type 0, BuildingBlock: CEKHIL_clean_sbu_0, # of connection points: 4
#     Node 21, Type 0, BuildingBlock: CEKHIL_clean_sbu_0, # of connection points: 4
#     Node 22, Type 0, BuildingBlock: CEKHIL_clean_sbu_0, # of connection points: 4
#     Node 23, Type 0, BuildingBlock: CEKHIL_clean_sbu_0, # of connection points: 4
#     Node 24, Type 0, BuildingBlock: CEKHIL_clean_sbu_0, # of connection points: 4
#     Node 25, Type 0, BuildingBlock: CEKHIL_clean_sbu_0, # of connection points: 4
#     Node 26, Type 0, BuildingBlock: CEKHIL_clean_sbu_0, # of connection points: 4
#     Node 27, Type 0, BuildingBlock: CEKHIL_clean_sbu_0, # of connection points: 4
#     Node 28, Type 0, BuildingBlock: CEKHIL_clean_sbu_0, # of connection points: 4
#     Node 29, Type 0, BuildingBlock: CEKHIL_clean_sbu_0, # of connection points: 4
#     Node 30, Type 0, BuildingBlock: CEKHIL_clean_sbu_0, # of connection points: 4
#     Node 31, Type 0, BuildingBlock: CEKHIL_clean_sbu_0, # of connection points: 4
#     Node 32, Type 0, BuildingBlock: CEKHIL_clean_sbu_0, # of connection points: 4
#     Node 33, Type 0, BuildingBlock: CEKHIL_clean_sbu_0, # of connection points: 4
#     Node 34, Type 0, BuildingBlock: CEKHIL_clean_sbu_0, # of connection points: 4
#     Node 35, Type 0, BuildingBlock: CEKHIL_clean_sbu_0, # of connection points: 4
#     Edge 36, Type (0, 0), BuildingBlock: XUDNAN_clean_linker_2, # of connection points: 2
#     Edge 37, Type (0, 0), BuildingBlock: XUDNAN_clean_linker_2, # of connection points: 2
#     Edge 38, Type (0, 0), BuildingBlock: XUDNAN_clean_linker_2, # of connection points: 2
#     Edge 39, Type (0, 0), BuildingBlock: XUDNAN_clean_linker_2, # of connection points: 2
#     Edge 40, Type (0, 0), BuildingBlock: XUDNAN_clean_linker_2, # of connection points: 2
#     Edge 41, Type (0, 0), BuildingBlock: XUDNAN_clean_linker_2, # of connection points: 2
#     Edge 42, Type (0, 0), BuildingBlock: XUDNAN_clean_linker_2, # of connection points: 2
#     Edge 43, Type (0, 0), BuildingBlock: XUDNAN_clean_linker_2, # of connection points: 2
#     Edge 44, Type (0, 0), BuildingBlock: XUDNAN_clean_linker_2, # of connection points: 2
#     Edge 45, Type (0, 0), BuildingBlock: XUDNAN_clean_linker_2, # of connection points: 2
#     Edge 46, Type (0, 0), BuildingBlock: XUDNAN_clean_linker_2, # of connection points: 2
#     Edge 47, Type (0, 0), BuildingBlock: XUDNAN_clean_linker_2, # of connection points: 2
#     Edge 48, Type (0, 0), BuildingBlock: XUDNAN_clean_linker_2, # of connection points: 2
#     Edge 49, Type (0, 0), BuildingBlock: XUDNAN_clean_linker_2, # of connection points: 2
#     Edge 50, Type (0, 0), BuildingBlock: XUDNAN_clean_linker_2, # of connection points: 2
#     Edge 51, Type (0, 0), BuildingBlock: XUDNAN_clean_linker_2, # of connection points: 2
#     Edge 52, Type (0, 0), BuildingBlock: XUDNAN_clean_linker_2, # of connection points: 2
#     Edge 53, Type (0, 0), BuildingBlock: XUDNAN_clean_linker_2, # of connection points: 2
#     Edge 54, Type (0, 0), BuildingBlock: XUDNAN_clean_linker_2, # of connection points: 2
#     Edge 55, Type (0, 0), BuildingBlock: XUDNAN_clean_linker_2, # of connection points: 2
#     Edge 56, Type (0, 0), BuildingBlock: XUDNAN_clean_linker_2, # of connection points: 2
#     Edge 57, Type (0, 0), BuildingBlock: XUDNAN_clean_linker_2, # of connection points: 2
#     Edge 58, Type (0, 0), BuildingBlock: XUDNAN_clean_linker_2, # of connection points: 2
#     Edge 59, Type (0, 0), BuildingBlock: XUDNAN_clean_linker_2, # of connection points: 2
#     Edge 60, Type (0, 0), BuildingBlock: XUDNAN_clean_linker_2, # of connection points: 2
#     Edge 61, Type (0, 0), BuildingBlock: XUDNAN_clean_linker_2, # of connection points: 2
#     Edge 62, Type (0, 0), BuildingBlock: XUDNAN_clean_linker_2, # of connection points: 2
#     Edge 63, Type (0, 0), BuildingBlock: XUDNAN_clean_linker_2, # of connection points: 2
#     Edge 64, Type (0, 0), BuildingBlock: XUDNAN_clean_linker_2, # of connection points: 2
#     Edge 65, Type (0, 0), BuildingBlock: XUDNAN_clean_linker_2, # of connection points: 2
#     Edge 66, Type (0, 0), BuildingBlock: XUDNAN_clean_linker_2, # of connection points: 2
#     Edge 67, Type (0, 0), BuildingBlock: XUDNAN_clean_linker_2, # of connection points: 2
#     Edge 68, Type (0, 0), BuildingBlock: XUDNAN_clean_linker_2, # of connection points: 2
#     Edge 69, Type (0, 0), BuildingBlock: XUDNAN_clean_linker_2, # of connection points: 2
#     Edge 70, Type (0, 0), BuildingBlock: XUDNAN_clean_linker_2, # of connection points: 2
#     Edge 71, Type (0, 0), BuildingBlock: XUDNAN_clean_linker_2, # of connection points: 2
#     Edge 72, Type (0, 0), BuildingBlock: XUDNAN_clean_linker_2, # of connection points: 2
#     Edge 73, Type (0, 0), BuildingBlock: XUDNAN_clean_linker_2, # of connection points: 2
#     Edge 74, Type (0, 0), BuildingBlock: XUDNAN_clean_linker_2, # of connection points: 2
#     Edge 75, Type (0, 0), BuildingBlock: XUDNAN_clean_linker_2, # of connection points: 2
#     Edge 76, Type (0, 0), BuildingBlock: XUDNAN_clean_linker_2, # of connection points: 2
#     Edge 77, Type (0, 0), BuildingBlock: XUDNAN_clean_linker_2, # of connection points: 2
#     Edge 78, Type (0, 0), BuildingBlock: XUDNAN_clean_linker_2, # of connection points: 2
#     Edge 79, Type (0, 0), BuildingBlock: XUDNAN_clean_linker_2, # of connection points: 2
#     Edge 80, Type (0, 0), BuildingBlock: XUDNAN_clean_linker_2, # of connection points: 2
#     Edge 81, Type (0, 0), BuildingBlock: XUDNAN_clean_linker_2, # of connection points: 2
#     Edge 82, Type (0, 0), BuildingBlock: XUDNAN_clean_linker_2, # of connection points: 2
#     Edge 83, Type (0, 0), BuildingBlock: XUDNAN_clean_linker_2, # of connection points: 2
#     Edge 84, Type (0, 0), BuildingBlock: XUDNAN_clean_linker_2, # of connection points: 2
#     Edge 85, Type (0, 0), BuildingBlock: XUDNAN_clean_linker_2, # of connection points: 2
#     Edge 86, Type (0, 0), BuildingBlock: XUDNAN_clean_linker_2, # of connection points: 2
#     Edge 87, Type (0, 0), BuildingBlock: XUDNAN_clean_linker_2, # of connection points: 2
#     Edge 88, Type (0, 0), BuildingBlock: XUDNAN_clean_linker_2, # of connection points: 2
#     Edge 89, Type (0, 0), BuildingBlock: XUDNAN_clean_linker_2, # of connection points: 2
#     Edge 90, Type (0, 0), BuildingBlock: XUDNAN_clean_linker_2, # of connection points: 2
#     Edge 91, Type (0, 0), BuildingBlock: XUDNAN_clean_linker_2, # of connection points: 2
#     Edge 92, Type (0, 0), BuildingBlock: XUDNAN_clean_linker_2, # of connection points: 2
#     Edge 93, Type (0, 0), BuildingBlock: XUDNAN_clean_linker_2, # of connection points: 2
#     Edge 94, Type (0, 0), BuildingBlock: XUDNAN_clean_linker_2, # of connection points: 2
#     Edge 95, Type (0, 0), BuildingBlock: XUDNAN_clean_linker_2, # of connection points: 2
#     Edge 96, Type (0, 0), BuildingBlock: XUDNAN_clean_linker_2, # of connection points: 2
#     Edge 97, Type (0, 0), BuildingBlock: XUDNAN_clean_linker_2, # of connection points: 2
#     Edge 98, Type (0, 0), BuildingBlock: XUDNAN_clean_linker_2, # of connection points: 2
#     Edge 99, Type (0, 0), BuildingBlock: XUDNAN_clean_linker_2, # of connection points: 2
#     Edge 100, Type (0, 0), BuildingBlock: XUDNAN_clean_linker_2, # of connection points: 2
#     Edge 101, Type (0, 0), BuildingBlock: XUDNAN_clean_linker_2, # of connection points: 2
#     Edge 102, Type (0, 0), BuildingBlock: XUDNAN_clean_linker_2, # of connection points: 2
#     Edge 103, Type (0, 0), BuildingBlock: XUDNAN_clean_linker_2, # of connection points: 2
#     Edge 104, Type (0, 0), BuildingBlock: XUDNAN_clean_linker_2, # of connection points: 2
#     Edge 105, Type (0, 0), BuildingBlock: XUDNAN_clean_linker_2, # of connection points: 2
#     Edge 106, Type (0, 0), BuildingBlock: XUDNAN_clean_linker_2, # of connection points: 2
#     Edge 107, Type (0, 0), BuildingBlock: XUDNAN_clean_linker_2, # of connection points: 2
# Relax obj value: 0.077
# Max RMSD: 0.097
# Mean RMSD: 0.097
data_MOF--net-ukn--node1-CEKHIL_clean_sbu_0--edge1-XUDNAN_clean_linker_2
_symmetry_space_group_name_H-M    P1
_symmetry_Int_Tables_number       1
_symmetry_cell_setting            triclinic
loop_
_symmetry_equiv_pos_as_xyz
'x, y, z'
_cell_length_a     104.83632
_cell_length_b     104.94811
_cell_length_c     26.350093
_cell_angle_alpha  90.011229
_cell_angle_beta   89.967536
_cell_angle_gamma 119.97507
loop_
_atom_site_label
_atom_site_type_symbol
_atom_site_fract_x
_atom_site_fract_y
_atom_site_fract_z
_atom_type_partial_charge
Co0 Co 0.08951 0.30862 0.08286 0.0
O1 O 0.0694 0.30441 0.07844 0.0
O2 O 0.07663 0.28824 0.06368 0.0
C3 C 0.0952 0.32147 0.15654 0.0
O4 O 0.10919 0.30877 0.08492 0.0
Co5 Co 0.11555 0.34111 0.08162 0.0
O6 O 0.12747 0.33192 0.09949 0.0
C7 C 0.09671 0.328 0.99217 0.0
C8 C 0.06596 0.29119 0.06471 0.0
C9 C 0.12278 0.31819 0.09488 0.0
O10 O 0.09235 0.31496 0.0093 0.0
O11 O 0.10458 0.33969 0.01794 0.0
O12 O 0.08833 0.30714 0.15791 0.0
O13 O 0.09709 0.32707 0.11202 0.0
Co14 Co 0.7128 0.7841 0.07023 0.0
O15 O 0.71662 0.76801 0.06234 0.0
O16 O 0.7334 0.79148 0.05381 0.0
C17 C 0.699 0.77554 0.14153 0.0
O18 O 0.71316 0.80383 0.07663 0.0
Co19 Co 0.68063 0.77869 0.06755 0.0
O20 O 0.69011 0.79936 0.09084 0.0
C21 C 0.69482 0.77616 0.97423 0.0
C22 C 0.73015 0.77778 0.05196 0.0
C23 C 0.70394 0.80819 0.08751 0.0
O24 O 0.70753 0.78249 -0.00402 0.0
O25 O 0.6828 0.77251 -0.00215 0.0
O26 O 0.71331 0.78277 0.14495 0.0
O27 O 0.69388 0.77294 0.09617 0.0
Co28 Co 0.23582 0.93303 0.07902 0.0
O29 O 0.25402 0.95142 0.07997 0.0
O30 O 0.23235 0.94934 0.06444 0.0
C31 C 0.24054 0.92402 0.15029 0.0
O32 O 0.21456 0.91562 0.07711 0.0
Co33 Co 0.2369 0.90384 0.0688 0.0
O34 O 0.21536 0.8945 0.07832 0.0
C35 C 0.24435 0.92393 0.98183 0.0
C36 C 0.24654 0.95784 0.06907 0.0
C37 C 0.20825 0.90143 0.0784 0.0
O38 O 0.23871 0.93085 0.00441 0.0
O39 O 0.24608 0.91398 0.00348 0.0
O40 O 0.2352 0.93284 0.15393 0.0
O41 O 0.24374 0.92203 0.10505 0.0
Co42 Co 0.31003 0.08079 0.89781 0.0
O43 O 0.30907 0.06247 0.91382 0.0
O44 O 0.2915 0.06754 0.93217 0.0
C45 C 0.31873 0.08201 0.81819 0.0
O46 O 0.30729 0.0987 0.88663 0.0
Co47 Co 0.3402 0.10825 0.869 0.0
O48 O 0.32792 0.11702 0.85151 0.0
C49 C 0.33426 0.0964 0.9736 0.0
C50 C 0.29641 0.05834 0.93464 0.0
C51 C 0.31464 0.11163 0.86647 0.0
O52 O 0.3203 0.08893 0.96484 0.0
O53 O 0.34384 0.10345 0.93908 0.0
O54 O 0.30459 0.07455 0.8262 0.0
O55 O 0.32669 0.08771 0.85771 0.0
Co56 Co 0.94093 0.23301 0.91408 0.0
O57 O 0.96093 0.24913 0.9178 0.0
O58 O 0.95413 0.22589 0.93348 0.0
C59 C 0.93486 0.2397 0.84014 0.0
O60 O 0.92143 0.21333 0.91286 0.0
Co61 Co 0.91459 0.23906 0.91547 0.0
O62 O 0.90295 0.21793 0.89796 0.0
C63 C 0.93357 0.24516 0.00471 0.0
C64 C 0.96463 0.23956 0.93193 0.0
C65 C 0.90781 0.20901 0.90287 0.0
O66 O 0.93813 0.23664 0.98758 0.0
O67 O 0.92554 0.24879 0.97898 0.0
O68 O 0.94195 0.23245 0.83902 0.0
O69 O 0.93302 0.24354 0.88453 0.0
Co70 Co 0.7895 0.71018 0.91855 0.0
O71 O 0.77333 0.71393 0.92422 0.0
O72 O 0.7967 0.73075 0.93521 0.0
C73 C 0.7816 0.69655 0.84673 0.0
O74 O 0.80925 0.71038 0.91454 0.0
Co75 Co 0.78324 0.67773 0.923 0.0
O76 O 0.80422 0.68704 0.9036 0.0
C77 C 0.78023 0.69211 0.01453 0.0
C78 C 0.78294 0.72741 0.93559 0.0
C79 C 0.81335 0.70081 0.90621 0.0
O80 O 0.78717 0.7048 0.99288 0.0
O81 O 0.77635 0.68003 0.99117 0.0
O82 O 0.78887 0.71085 0.8436 0.0
O83 O 0.77848 0.69139 0.89197 0.0
Co84 Co 0.94008 0.70977 0.89532 0.0
O85 O 0.95934 0.71209 0.90352 0.0
O86 O 0.95239 0.72689 0.93774 0.0
C87 C 0.93817 0.70507 0.81108 0.0
O88 O 0.9208 0.71053 0.89405 0.0
Co89 Co 0.91466 0.67903 0.85857 0.0
O90 O 0.90347 0.68962 0.85694 0.0
C91 C 0.9268 0.68247 0.96125 0.0
C92 C 0.96253 0.72327 0.93245 0.0
C93 C 0.90762 0.70219 0.87685 0.0
O94 O 0.93327 0.69659 0.957 0.0
O95 O 0.92024 0.67367 0.92434 0.0
O96 O 0.94514 0.71866 0.8268 0.0
O97 O 0.93403 0.69534 0.84615 0.0
Co98 Co 0.30868 0.2291 0.90849 0.0
O99 O 0.30597 0.24593 0.91532 0.0
O100 O 0.28853 0.22287 0.92787 0.0
C101 C 0.32168 0.23631 0.83501 0.0
O102 O 0.30709 0.20879 0.90371 0.0
Co103 Co 0.34013 0.23266 0.90739 0.0
O104 O 0.32943 0.21191 0.88467 0.0
C105 C 0.32826 0.23914 -0.0009 0.0
C106 C 0.29246 0.23675 0.92827 0.0
C107 C 0.31556 0.20372 0.89038 0.0
O108 O 0.31502 0.23159 0.98203 0.0
O109 O 0.33968 0.24206 0.97287 0.0
O110 O 0.30735 0.22968 0.83353 0.0
O111 O 0.32728 0.2391 0.87969 0.0
Co112 Co 0.79093 0.0828 0.89933 0.0
O113 O 0.77481 0.06276 0.90019 0.0
O114 O 0.79784 0.06955 0.92017 0.0
C115 C 0.78559 0.08943 0.82391 0.0
O116 O 0.81059 0.10232 0.90172 0.0
Co117 Co 0.78466 0.10894 0.89969 0.0
O118 O 0.80609 0.12086 0.887 0.0
C119 C 0.77719 0.08936 0.98757 0.0
C120 C 0.78423 0.05903 0.9159 0.0
C121 C 0.81499 0.11603 0.89311 0.0
O122 O 0.78606 0.08504 0.97204 0.0
O123 O 0.77387 0.0975 0.9611 0.0
O124 O 0.79276 0.08226 0.82465 0.0
O125 O 0.78089 0.09093 0.86725 0.0
Co126 Co 0.71726 0.93605 0.08631 0.0
O127 O 0.72211 0.95624 0.07774 0.0
O128 O 0.73528 0.94685 0.0471 0.0
C129 C 0.71184 0.93435 0.16976 0.0
O130 O 0.71596 0.91587 0.0887 0.0
Co131 Co 0.68555 0.91224 0.12001 0.0
O132 O 0.69465 0.89968 0.1264 0.0
C133 C 0.69079 0.9249 0.0173 0.0
C134 C 0.7335 0.95821 0.05193 0.0
C135 C 0.70714 0.90302 0.10742 0.0
O136 O 0.70481 0.93055 0.02293 0.0
O137 O 0.68152 0.91861 0.0533 0.0
O138 O 0.72551 0.94015 0.1554 0.0
O139 O 0.70245 0.93118 0.13385 0.0
Co140 Co 0.08639 0.78268 0.09558 0.0
O141 O 0.06817 0.7643 0.0985 0.0
O142 O 0.06985 0.78536 0.07631 0.0
C143 C 0.09554 0.7797 0.17007 0.0
O144 O 0.10352 0.804 0.09003 0.0
Co145 Co 0.116 0.78214 0.09109 0.0
O146 O 0.12495 0.80378 0.0935 0.0
C147 C 0.09526 0.7713 0.00596 0.0
C148 C 0.06156 0.77124 0.08316 0.0
C149 C 0.11774 0.81058 0.0908 0.0
O150 O 0.08897 0.77836 0.02251 0.0
O151 O 0.1049 0.76991 0.03127 0.0
O152 O 0.08635 0.78465 0.17055 0.0
O153 O 0.0977 0.7758 0.12626 0.0
Co154 Co 0.23947 0.30887 0.07723 0.0
O155 O 0.25531 0.30467 0.0689 0.0
O156 O 0.23168 0.28828 0.06043 0.0
C157 C 0.24818 0.32254 0.14859 0.0
O158 O 0.21994 0.30887 0.08384 0.0
Co159 Co 0.24542 0.34119 0.07503 0.0
O160 O 0.22475 0.33198 0.09853 0.0
C161 C 0.24761 0.32692 0.98145 0.0
C162 C 0.2453 0.29126 0.05815 0.0
C163 C 0.21576 0.3182 0.09499 0.0
O164 O 0.24114 0.31422 0.0031 0.0
O165 O 0.25144 0.33895 0.00516 0.0
O166 O 0.24077 0.30824 0.15191 0.0
O167 O 0.2509 0.32769 0.10328 0.0
Co168 Co 0.75212 0.63824 0.43885 0.0
O169 O 0.73207 0.63398 0.42969 0.0
O170 O 0.74101 0.62041 0.39921 0.0
C171 C 0.75367 0.64357 0.5224 0.0
O172 O 0.77194 0.63872 0.44154 0.0
Co173 Co 0.77687 0.66931 0.47408 0.0
O174 O 0.78869 0.65942 0.48076 0.0
C175 C 0.76437 0.665 0.37116 0.0
C176 C 0.72984 0.62251 0.40386 0.0
C177 C 0.78484 0.64692 0.46093 0.0
O178 O 0.75816 0.6509 0.3759 0.0
O179 O 0.77095 0.67397 0.40763 0.0
O180 O 0.74755 0.6299 0.50785 0.0
O181 O 0.75739 0.65306 0.48658 0.0
Co182 Co 0.38342 0.11921 0.42117 0.0
O183 O 0.38696 0.10311 0.40949 0.0
O184 O 0.40309 0.12642 0.39373 0.0
C185 C 0.37351 0.11198 0.49907 0.0
O186 O 0.38385 0.13887 0.42952 0.0
Co187 Co 0.35146 0.11325 0.43394 0.0
O188 O 0.36142 0.13416 0.45496 0.0
C189 C 0.36202 0.11091 0.33293 0.0
C190 C 0.39991 0.11274 0.39292 0.0
C191 C 0.37495 0.14314 0.44553 0.0
O192 O 0.37516 0.11664 0.3508 0.0
O193 O 0.35075 0.10761 0.36062 0.0
O194 O 0.38773 0.11927 0.49315 0.0
O195 O 0.36587 0.10824 0.45781 0.0
Co196 Co 0.90237 0.26715 0.43304 0.0
O197 O 0.91786 0.28747 0.42888 0.0
O198 O 0.89531 0.27888 0.39906 0.0
C199 C 0.90593 0.26358 0.51503 0.0
O200 O 0.88332 0.24705 0.43136 0.0
Co201 Co 0.90982 0.24243 0.45524 0.0
O202 O 0.88822 0.23002 0.46277 0.0
C203 C 0.91658 0.25675 0.35521 0.0
C204 C 0.90851 0.29004 0.40532 0.0
C205 C 0.87915 0.23383 0.44657 0.0
O206 O 0.9093 0.26324 0.36668 0.0
O207 O 0.91888 0.24874 0.38627 0.0
O208 O 0.8982 0.26976 0.50345 0.0
O209 O 0.91221 0.26106 0.47741 0.0
Co210 Co 0.97378 0.4126 0.22861 0.0
O211 O 0.96975 0.39267 0.23871 0.0
O212 O 0.95591 0.40144 0.26816 0.0
C213 C 0.97911 0.41385 0.14512 0.0
O214 O 0.97407 0.43231 0.22491 0.0
Co215 Co 1.00476 0.43741 0.19248 0.0
O216 O 0.99458 0.4489 0.18417 0.0
C217 C 1.0006 0.42533 0.29614 0.0
C218 C 0.95816 0.39037 0.26403 0.0
C219 C 0.98212 0.44507 0.20436 0.0
O220 O 0.98647 0.41894 0.29152 0.0
O221 O 1.00952 0.43187 0.25946 0.0
O222 O 0.96543 0.40771 0.1597 0.0
O223 O 0.98864 0.41782 0.18094 0.0
Co224 Co 0.60505 0.56529 0.2482 0.0
O225 O 0.62467 0.58179 0.25769 0.0
O226 O 0.61872 0.55847 0.26443 0.0
C227 C 0.59978 0.57391 0.17728 0.0
O228 O 0.58613 0.54526 0.24018 0.0
Co229 Co 0.57751 0.56945 0.2501 0.0
O230 O 0.56719 0.54903 0.22406 0.0
C231 C 0.59401 0.57209 0.34416 0.0
C232 C 0.62881 0.57229 0.26746 0.0
C233 C 0.57259 0.54055 0.22768 0.0
O234 O 0.60092 0.56631 0.32236 0.0
O235 O 0.58538 0.57536 0.32048 0.0
O236 O 0.60729 0.56712 0.17372 0.0
O237 O 0.59685 0.57609 0.22268 0.0
Co238 Co 0.45601 0.04291 0.25134 0.0
O239 O 0.43993 0.04665 0.2608 0.0
O240 O 0.46347 0.06354 0.26699 0.0
C241 C 0.44693 0.02896 0.18086 0.0
O242 O 0.47567 0.04331 0.24274 0.0
Co243 Co 0.45068 0.01083 0.25422 0.0
O244 O 0.47102 0.02028 0.22718 0.0
C245 C 0.449 0.02533 0.34808 0.0
C246 C 0.44976 0.06023 0.27002 0.0
C247 C 0.47989 0.0341 0.23007 0.0
O248 O 0.45505 0.03794 0.3257 0.0
O249 O 0.4452 0.01324 0.32481 0.0
O250 O 0.45414 0.04324 0.17693 0.0
O251 O 0.44464 0.02393 0.22638 0.0
Co252 Co 0.60568 0.04376 0.22685 0.0
O253 O 0.62555 0.04763 0.23696 0.0
O254 O 0.61774 0.06303 0.25721 0.0
C255 C 0.60304 0.03508 0.147 0.0
O256 O 0.5862 0.04386 0.22112 0.0
Co257 Co 0.58002 0.01186 0.209 0.0
O258 O 0.56869 0.02179 0.19255 0.0
C259 C 0.59275 0.02094 0.31106 0.0
C260 C 0.6285 0.06022 0.25602 0.0
C261 C 0.57304 0.03509 0.20484 0.0
O262 O 0.60016 0.03435 0.29575 0.0
O263 O 0.58482 0.01014 0.28156 0.0
O264 O 0.60975 0.04917 0.15547 0.0
O265 O 0.59938 0.02685 0.18685 0.0
Co266 Co 0.97343 0.56238 0.23024 0.0
O267 O 0.96939 0.57827 0.24006 0.0
O268 O 0.95562 0.55577 0.27021 0.0
C269 C 0.97867 0.56633 0.14668 0.0
O270 O 0.97378 0.54297 0.22668 0.0
Co271 Co 1.00445 0.56861 0.194 0.0
O272 O 0.99429 0.54698 0.18559 0.0
C273 C 1.00031 0.57663 0.29748 0.0
C274 C 0.95787 0.5691 0.26584 0.0
C275 C 0.98186 0.53831 0.20587 0.0
O276 O 0.98619 0.56883 0.29296 0.0
O277 O 1.00923 0.57901 0.26079 0.0
O278 O 0.96501 0.55882 0.1614 0.0
O279 O 0.98823 0.57194 0.1824 0.0
Co280 Co 0.45696 0.41417 0.22854 0.0
O281 O 0.44108 0.3941 0.2352 0.0
O282 O 0.46377 0.40231 0.26292 0.0
C283 C 0.45293 0.41724 0.14662 0.0
O284 O 0.47638 0.43392 0.22733 0.0
Co285 Co 0.45052 0.4395 0.20492 0.0
O286 O 0.47202 0.45094 0.19262 0.0
C287 C 0.4443 0.42617 0.30665 0.0
C288 C 0.45039 0.39136 0.25827 0.0
C289 C 0.48088 0.44691 0.20915 0.0
O290 O 0.45091 0.41901 0.29503 0.0
O291 O 0.4422 0.43424 0.27525 0.0
O292 O 0.46035 0.41073 0.15816 0.0
O293 O 0.44717 0.42037 0.1844 0.0
Co294 Co 0.38289 0.26832 0.42953 0.0
O295 O 0.38711 0.28838 0.42162 0.0
O296 O 0.40171 0.28007 0.39594 0.0
C297 C 0.37545 0.26544 0.5111 0.0
O298 O 0.38266 0.24865 0.43227 0.0
Co299 Co 0.35112 0.24291 0.45253 0.0
O300 O 0.36123 0.23161 0.46674 0.0
C301 C 0.35857 0.25579 0.35011 0.0
C302 C 0.39928 0.29105 0.39958 0.0
C303 C 0.37421 0.23571 0.45086 0.0
O304 O 0.37227 0.26321 0.36246 0.0
O305 O 0.3483 0.24774 0.3813 0.0
O306 O 0.38942 0.27198 0.50016 0.0
O307 O 0.36669 0.26218 0.47286 0.0
Co308 Co 0.7524 0.11684 0.41903 0.0
O309 O 0.73209 0.1014 0.41478 0.0
O310 O 0.74064 0.12402 0.38592 0.0
C311 C 0.75617 0.11313 0.50053 0.0
O312 O 0.77253 0.13586 0.41813 0.0
Co313 Co 0.77704 0.10912 0.43936 0.0
O314 O 0.78933 0.13063 0.44964 0.0
C315 C 0.76282 0.10306 0.3393 0.0
C316 C 0.72949 0.1108 0.39179 0.0
C317 C 0.78563 0.13986 0.4343 0.0
O318 O 0.7563 0.11023 0.35192 0.0
O319 O 0.77081 0.10055 0.36976 0.0
O320 O 0.7499 0.12081 0.48977 0.0
O321 O 0.75851 0.10685 0.46249 0.0
Co322 Co 0.90212 0.63857 0.41551 0.0
O323 O 0.91834 0.63494 0.40754 0.0
O324 O 0.89488 0.61793 0.40034 0.0
C325 C 0.91074 0.65264 0.48601 0.0
O326 O 0.88232 0.6381 0.42221 0.0
Co327 Co 0.90736 0.67062 0.41084 0.0
O328 O 0.88685 0.66116 0.43619 0.0
C329 C 0.90981 0.65601 0.31852 0.0
C330 C 0.90863 0.62134 0.39804 0.0
C331 C 0.87801 0.64733 0.43352 0.0
O332 O 0.90348 0.64343 0.34102 0.0
O333 O 0.91347 0.66814 0.34133 0.0
O334 O 0.90363 0.63835 0.49008 0.0
O335 O 0.91326 0.6576 0.44041 0.0
Co336 Co 0.41946 0.97081 0.77297 0.0
O337 O 0.40167 0.97163 0.76803 0.0
O338 O 0.40453 0.95403 0.73388 0.0
C339 C 0.42263 0.97616 0.85668 0.0
O340 O 0.43659 0.96647 0.77259 0.0
Co341 Co 0.44839 0.99918 0.80639 0.0
O342 O 0.45543 0.98496 0.81499 0.0
C343 C 0.4357 0.99733 0.70488 0.0
C344 C 0.39602 0.95959 0.74185 0.0
C345 C 0.4494 0.97233 0.79394 0.0
O346 O 0.42713 0.98332 0.70988 0.0
O347 O 0.44385 1.00564 0.74073 0.0
O348 O 0.41403 0.96265 0.84209 0.0
O349 O 0.42801 0.98569 0.82084 0.0
Co350 Co 0.04571 0.44934 0.74901 0.0
O351 O 0.05014 0.43367 0.74112 0.0
O352 O 0.0664 0.45731 0.73255 0.0
C353 C 0.03202 0.44058 0.82034 0.0
O354 O 0.04536 0.4687 0.75528 0.0
Co355 Co 0.01312 0.44271 0.74591 0.0
O356 O 0.02199 0.46342 0.76832 0.0
C357 C 0.0277 0.44063 0.65308 0.0
C358 C 0.06354 0.44374 0.73055 0.0
C359 C 0.03575 0.47262 0.76546 0.0
O360 O 0.0404 0.4475 0.67477 0.0
O361 O 0.01558 0.43651 0.67665 0.0
O362 O 0.04632 0.44814 0.82371 0.0
O363 O 0.02689 0.43773 0.77501 0.0
Co364 Co 0.57017 0.60273 0.76946 0.0
O365 O 0.58586 0.62273 0.7591 0.0
O366 O 0.56315 0.61365 0.73024 0.0
C367 C 0.57437 0.60152 0.85284 0.0
O368 O 0.55091 0.5829 0.77335 0.0
Co369 Co 0.57684 0.57822 0.80492 0.0
O370 O 0.55515 0.56628 0.81213 0.0
C371 C 0.5843 0.59021 0.70109 0.0
C372 C 0.57642 0.62484 0.73404 0.0
C373 C 0.54638 0.57003 0.79266 0.0
O374 O 0.57647 0.59648 0.70624 0.0
O375 O 0.58696 0.58382 0.73755 0.0
O376 O 0.56669 0.60753 0.83849 0.0
O377 O 0.58002 0.5977 0.81685 0.0
Co378 Co 0.64025 0.7465 0.5494 0.0
O379 O 0.63674 0.72677 0.56011 0.0
O380 O 0.62239 0.73507 0.58853 0.0
C381 C 0.6458 0.74781 0.46604 0.0
O382 O 0.63981 0.76583 0.5452 0.0
Co383 Co 0.67081 0.77204 0.51341 0.0
O384 O 0.65998 0.78287 0.50422 0.0
C385 C 0.66695 0.76013 0.61738 0.0
C386 C 0.62499 0.72421 0.58493 0.0
C387 C 0.64743 0.77861 0.52443 0.0
O388 O 0.65281 0.75325 0.61259 0.0
O389 O 0.67581 0.7669 0.58075 0.0
O390 O 0.63208 0.74135 0.48031 0.0
O391 O 0.65529 0.75211 0.50209 0.0
Co392 Co 0.27337 0.89871 0.55776 0.0
O393 O 0.29219 0.91635 0.56128 0.0
O394 O 0.28722 0.89529 0.59697 0.0
C395 C 0.26964 0.90041 0.47415 0.0
O396 O 0.25495 0.87814 0.5609 0.0
Co397 Co 0.246 0.90159 0.52718 0.0
O398 O 0.23558 0.87986 0.532 0.0
C399 C 0.26023 0.9123 0.62625 0.0
C400 C 0.29662 0.90915 0.58921 0.0
C401 C 0.2412 0.87238 0.54911 0.0
O402 O 0.26716 0.90511 0.62102 0.0
O403 O 0.25265 0.91361 0.59069 0.0
O404 O 0.2775 0.89458 0.48838 0.0
O405 O 0.26558 0.90587 0.51001 0.0
Co406 Co 0.12476 0.38133 0.56362 0.0
O407 O 0.10894 0.38564 0.56868 0.0
O408 O 0.13139 0.39991 0.59865 0.0
C409 C 0.12129 0.37442 0.48144 0.0
O410 O 0.14407 0.38072 0.56426 0.0
Co411 Co 0.11767 0.34929 0.54025 0.0
O412 O 0.13933 0.35865 0.53463 0.0
C413 C 0.11114 0.35653 0.64109 0.0
C414 C 0.11803 0.39751 0.59296 0.0
C415 C 0.1483 0.37163 0.55013 0.0
O416 O 0.11816 0.3703 0.62975 0.0
O417 O 0.10886 0.34631 0.60968 0.0
O418 O 0.12871 0.38831 0.49333 0.0
O419 O 0.11517 0.36552 0.51888 0.0
Co420 Co 0.27493 0.38085 0.55669 0.0
O421 O 0.29497 0.3851 0.56544 0.0
O422 O 0.28607 0.39867 0.59633 0.0
C423 C 0.27328 0.37552 0.47306 0.0
O424 O 0.25507 0.38031 0.55474 0.0
Co425 Co 0.25031 0.34961 0.52194 0.0
O426 O 0.23781 0.35883 0.52094 0.0
C427 C 0.26305 0.35412 0.62436 0.0
C428 C 0.29722 0.39654 0.59149 0.0
C429 C 0.24182 0.37153 0.53922 0.0
O430 O 0.269 0.36819 0.61965 0.0
O431 O 0.25663 0.34512 0.58783 0.0
O432 O 0.27939 0.38919 0.48763 0.0
O433 O 0.26963 0.36604 0.50888 0.0
Co434 Co 0.64519 0.89842 0.56528 0.0
O435 O 0.64487 0.91651 0.56843 0.0
O436 O 0.62536 0.89468 0.58172 0.0
C437 C 0.65876 0.9042 0.49332 0.0
O438 O 0.64161 0.87724 0.56278 0.0
Co439 Co 0.67552 0.89938 0.57051 0.0
O440 O 0.6635 0.879 0.54528 0.0
C441 C 0.66304 0.90546 0.6616 0.0
C442 C 0.63099 0.9089 0.57933 0.0
C443 C 0.64954 0.87147 0.54992 0.0
O444 O 0.65046 0.90042 0.63955 0.0
O445 O 0.67457 0.9071 0.63891 0.0
O446 O 0.64458 0.8988 0.49041 0.0
O447 O 0.66405 0.90679 0.53848 0.0
Co448 Co 0.12466 0.74675 0.57326 0.0
O449 O 0.10846 0.72677 0.57709 0.0
O450 O 0.13098 0.73414 0.605 0.0
C451 C 0.12111 0.75127 0.49221 0.0
O452 O 0.14437 0.76618 0.57468 0.0
Co453 Co 0.11879 0.77273 0.55604 0.0
O454 O 0.14053 0.78473 0.55249 0.0
C455 C 0.112 0.75783 0.65492 0.0
C456 C 0.11748 0.72348 0.59946 0.0
C457 C 0.14908 0.77985 0.56442 0.0
O458 O 0.11866 0.75087 0.64133 0.0
O459 O 0.10991 0.76625 0.62517 0.0
O460 O 0.12818 0.74428 0.50193 0.0
O461 O 0.11529 0.75392 0.53095 0.0
Co462 Co 0.04522 0.59883 0.75057 0.0
O463 O 0.04953 0.61889 0.74301 0.0
O464 O 0.06588 0.61161 0.73415 0.0
C465 C 0.03151 0.59375 0.8219 0.0
O466 O 0.04499 0.57917 0.75648 0.0
Co467 Co 0.01268 0.57279 0.74727 0.0
O468 O 0.02167 0.56103 0.76943 0.0
C469 C 0.02725 0.5895 0.65452 0.0
C470 C 0.06295 0.62228 0.73237 0.0
C471 C 0.03544 0.56563 0.76652 0.0
O472 O 0.03993 0.59541 0.67632 0.0
O473 O 0.01513 0.58144 0.67801 0.0
O474 O 0.04582 0.60055 0.82528 0.0
O475 O 0.02638 0.59152 0.77658 0.0
Co476 Co 0.42152 0.45205 0.74878 0.0
O477 O 0.40156 0.43588 0.74335 0.0
O478 O 0.40829 0.45922 0.73039 0.0
C479 C 0.42719 0.44468 0.82201 0.0
O480 O 0.44094 0.4718 0.75214 0.0
Co481 Co 0.44814 0.44642 0.74759 0.0
O482 O 0.45948 0.46735 0.76794 0.0
C483 C 0.42948 0.44075 0.65745 0.0
C484 C 0.39783 0.44553 0.73073 0.0
C485 C 0.45452 0.47618 0.76334 0.0
O486 O 0.42467 0.44903 0.67499 0.0
O487 O 0.43754 0.43714 0.68306 0.0
O488 O 0.42008 0.45191 0.82377 0.0
O489 O 0.42938 0.44134 0.77727 0.0
Co490 Co 0.5674 0.96929 0.74824 0.0
O491 O 0.58569 0.96992 0.73421 0.0
O492 O 0.56381 0.95052 0.71998 0.0
C493 C 0.57487 0.9805 0.82485 0.0
O494 O 0.54604 0.96477 0.75856 0.0
Co495 Co 0.56695 0.99859 0.7662 0.0
O496 O 0.54649 0.98515 0.78822 0.0
C497 C 0.57455 0.99127 0.66632 0.0
C498 C 0.57808 0.95666 0.71667 0.0
C499 C 0.53959 0.97151 0.77703 0.0
O500 O 0.56836 0.97753 0.67816 0.0
O501 O 0.57631 1.00131 0.69785 0.0
O502 O 0.56935 0.96631 0.82183 0.0
O503 O 0.5759 0.98697 0.78263 0.0
H504 H 0.15017 0.33362 0.13595 0.0
H505 H 0.12073 0.292 0.06318 0.0
H506 H 0.14072 0.28582 0.06322 0.0
H507 H 0.18109 0.3417 0.06585 0.0
H508 H 0.19386 0.35023 0.11746 0.0
H509 H 0.17672 0.35023 0.11723 0.0
H510 H 0.17027 0.33769 0.2057 0.0
H511 H 0.18745 0.33768 0.20625 0.0
H512 H 0.17035 0.3207 0.21483 0.0
H513 H 0.16549 0.28577 0.06382 0.0
H514 H 0.19164 0.29192 0.06429 0.0
H515 H 0.20378 0.33354 0.13699 0.0
C516 C 0.14776 0.32308 0.12064 0.0
C517 C 0.13385 0.31332 0.09943 0.0
C518 C 0.13127 0.29964 0.0799 0.0
C519 C 0.14257 0.29605 0.07976 0.0
C520 C 0.15631 0.30618 0.09986 0.0
C521 C 0.15881 0.31936 0.12032 0.0
C522 C 0.17464 0.32892 0.13654 0.0
C523 C 0.182 0.34363 0.10753 0.0
C524 C 0.17574 0.33138 0.19426 0.0
C525 C 0.18089 0.31931 0.12081 0.0
C526 C 0.17022 0.30614 0.10021 0.0
C527 C 0.17384 0.29598 0.08051 0.0
C528 C 0.18873 0.29955 0.08103 0.0
C529 C 0.19982 0.31323 0.10063 0.0
C530 C 0.19565 0.32298 0.12173 0.0
H531 H 0.68895 0.82035 0.13094 0.0
H532 H 0.73033 0.83219 0.05653 0.0
H533 H 0.73689 0.85845 0.05793 0.0
H534 H 0.68133 0.84416 0.06322 0.0
H535 H 0.67308 0.84831 0.116 0.0
H536 H 0.67261 0.83096 0.1136 0.0
H537 H 0.68525 0.83607 0.20177 0.0
H538 H 0.68564 0.85342 0.20465 0.0
H539 H 0.70245 0.85285 0.21181 0.0
H540 H 0.73744 0.88356 0.061 0.0
H541 H 0.73232 0.90418 0.06814 0.0
H542 H 0.6906 0.87474 0.1409 0.0
C543 C 0.69952 0.82843 0.11553 0.0
C544 C 0.70911 0.82415 0.09355 0.0
C545 C 0.72283 0.83518 0.0739 0.0
C546 C 0.72662 0.85012 0.0744 0.0
C547 C 0.71664 0.85386 0.09515 0.0
C548 C 0.70344 0.84324 0.11583 0.0
C549 C 0.69418 0.8497 0.1337 0.0
C550 C 0.67944 0.84288 0.1049 0.0
C551 C 0.69174 0.84791 0.19141 0.0
C552 C 0.70405 0.86562 0.11928 0.0
C553 C 0.717 0.86795 0.09719 0.0
C554 C 0.72739 0.88182 0.07881 0.0
C555 C 0.72438 0.89348 0.08298 0.0
C556 C 0.71106 0.89118 0.10525 0.0
C557 C 0.70094 0.87703 0.12395 0.0
H558 H 0.13924 0.82517 0.02284 0.0
H559 H 0.11714 0.83212 0.14939 0.0
H560 H 0.13652 0.85856 0.15141 0.0
H561 H 0.17353 0.8448 0.06738 0.0
H562 H 0.18248 0.85222 0.00744 0.0
H563 H 0.16535 0.83517 0.00906 0.0
H564 H 0.15375 0.84576 0.94722 0.0
H565 H 0.17096 0.86291 0.94504 0.0
H566 H 0.15426 0.86275 0.96259 0.0
H567 H 0.16122 0.88333 0.14819 0.0
H568 H 0.18757 0.90273 0.14014 0.0
H569 H 0.19263 0.87867 0.01586 0.0
C570 C 0.13818 0.83242 0.04965 0.0
C571 C 0.12667 0.82674 0.08548 0.0
C572 C 0.12574 0.83638 0.1209 0.0
C573 C 0.13674 0.85139 0.12235 0.0
C574 C 0.14838 0.85654 0.08755 0.0
C575 C 0.14893 0.84728 0.05128 0.0
C576 C 0.16319 0.85471 0.02177 0.0
C577 C 0.17162 0.84623 0.02677 0.0
C578 C 0.16037 0.85665 0.96584 0.0
C579 C 0.17105 0.86934 0.04875 0.0
C580 C 0.16232 0.87046 0.08591 0.0
C581 C 0.16796 0.88265 0.1184 0.0
C582 C 0.18291 0.89365 0.11352 0.0
C583 C 0.19202 0.8922 0.07705 0.0
C584 C 0.18583 0.88011 0.0436 0.0
H585 H 0.32454 0.13654 0.81025 0.0
H586 H 0.29132 0.10996 0.92157 0.0
H587 H 0.28498 0.12966 0.93096 0.0
H588 H 0.33838 0.16863 0.87434 0.0
H589 H 0.34233 0.18027 0.81945 0.0
H590 H 0.34186 0.163 0.8137 0.0
H591 H 0.32221 0.15493 0.74266 0.0
H592 H 0.3227 0.17229 0.74791 0.0
H593 H 0.30547 0.15532 0.75431 0.0
H594 H 0.28512 0.15435 0.93691 0.0
H595 H 0.29205 0.1807 0.93964 0.0
H596 H 0.32577 0.19057 0.82662 0.0
C597 C 0.31561 0.13461 0.83558 0.0
C598 C 0.30841 0.12164 0.86505 0.0
C599 C 0.29689 0.11969 0.89806 0.0
C600 C 0.29324 0.13088 0.90372 0.0
C601 C 0.30111 0.14385 0.87569 0.0
C602 C 0.31196 0.14561 0.84183 0.0
C603 C 0.32006 0.16102 0.82034 0.0
C604 C 0.33663 0.16867 0.83274 0.0
C605 C 0.31744 0.16088 0.76289 0.0
C606 C 0.31255 0.16794 0.84885 0.0
C607 C 0.30142 0.15788 0.87986 0.0
C608 C 0.29367 0.16221 0.91211 0.0
C609 C 0.29764 0.17719 0.91337 0.0
C610 C 0.30946 0.18767 0.88336 0.0
C611 C 0.31668 0.18282 0.84995 0.0
H612 H 0.82764 0.14327 0.85113 0.0
H613 H 0.83851 0.11401 0.93237 0.0
H614 H 0.86462 0.13405 0.93708 0.0
H615 H 0.86214 0.16337 0.7793 0.0
H616 H 0.86202 0.18043 0.78482 0.0
H617 H 0.84489 0.16322 0.7831 0.0
H618 H 0.8371 0.16979 0.86824 0.0
H619 H 0.85418 0.18694 0.87032 0.0
H620 H 0.84899 0.17427 0.92272 0.0
H621 H 0.88949 0.15894 0.93952 0.0
H622 H 0.90948 0.1851 0.93961 0.0
H623 H 0.88112 0.19686 0.85676 0.0
C624 C 0.83549 0.14092 0.86936 0.0
C625 C 0.83098 0.12706 0.89153 0.0
C626 C 0.8417 0.12452 0.91483 0.0
C627 C 0.85656 0.13586 0.91771 0.0
C628 C 0.86051 0.14957 0.89654 0.0
C629 C 0.8502 0.15199 0.8724 0.0
C630 C 0.8567 0.16775 0.85537 0.0
C631 C 0.85642 0.16875 0.79719 0.0
C632 C 0.84877 0.17511 0.88069 0.0
C633 C 0.87223 0.17408 0.87486 0.0
C634 C 0.87441 0.1635 0.89803 0.0
C635 C 0.88787 0.16721 0.92091 0.0
C636 C 0.89918 0.1821 0.92072 0.0
C637 C 0.89687 0.19307 0.89836 0.0
C638 C 0.88329 0.18881 0.87436 0.0
H639 H 0.8247 0.68297 0.88791 0.0
H640 H 0.83826 0.72882 0.91442 0.0
H641 H 0.86449 0.73505 0.90997 0.0
H642 H 0.85216 0.6822 0.96394 0.0
H643 H 0.85387 0.66948 0.92247 0.0
H644 H 0.83663 0.66925 0.92674 0.0
H645 H 0.83678 0.67288 0.82922 0.0
H646 H 0.85399 0.67306 0.8246 0.0
H647 H 0.85246 0.68826 0.79991 0.0
H648 H 0.89006 0.73536 0.90432 0.0
H649 H 0.91047 0.72978 0.89549 0.0
H650 H 0.87817 0.68373 0.87328 0.0
C651 C 0.83306 0.6944 0.89261 0.0
C652 C 0.82928 0.70539 0.90147 0.0
C653 C 0.8408 0.72016 0.90745 0.0
C654 C 0.85574 0.72379 0.9051 0.0
C655 C 0.85897 0.71251 0.89683 0.0
C656 C 0.84779 0.69813 0.89063 0.0
C657 C 0.85362 0.68774 0.88299 0.0
C658 C 0.84878 0.67651 0.92662 0.0
C659 C 0.84894 0.68004 0.83109 0.0
C660 C 0.86993 0.69843 0.88489 0.0
C661 C 0.87303 0.7127 0.89332 0.0
C662 C 0.88763 0.7242 0.89743 0.0
C663 C 0.89917 0.72095 0.89246 0.0
C664 C 0.89601 0.70634 0.88297 0.0
C665 C 0.88113 0.69509 0.87954 0.0
H666 H 0.86627 0.66134 0.48576 0.0
H667 H 0.85381 0.62211 0.39668 0.0
H668 H 0.82771 0.61615 0.39943 0.0
H669 H 0.8329 0.64611 0.56536 0.0
H670 H 0.83301 0.66335 0.56523 0.0
H671 H 0.85009 0.66321 0.56086 0.0
H672 H 0.85649 0.67855 0.478 0.0
H673 H 0.83941 0.67863 0.48182 0.0
H674 H 0.84375 0.67177 0.42556 0.0
H675 H 0.80306 0.61643 0.40454 0.0
H676 H 0.78305 0.62238 0.41407 0.0
H677 H 0.81263 0.66131 0.50047 0.0
C678 C 0.85805 0.65132 0.46755 0.0
C679 C 0.86211 0.64221 0.44095 0.0
C680 C 0.85096 0.62921 0.41768 0.0
C681 C 0.83611 0.62577 0.41892 0.0
C682 C 0.83259 0.63534 0.44421 0.0
C683 C 0.84331 0.64774 0.46867 0.0
C684 C 0.83711 0.65679 0.49083 0.0
C685 C 0.83835 0.65739 0.54903 0.0
C686 C 0.84464 0.67235 0.46765 0.0
C687 C 0.82127 0.64783 0.474 0.0
C688 C 0.81872 0.63543 0.44742 0.0
C689 C 0.80495 0.62602 0.42595 0.0
C690 C 0.79364 0.62949 0.43152 0.0
C691 C 0.79617 0.64231 0.45813 0.0
C692 C 0.81017 0.65138 0.48009 0.0
H693 H 0.3613 0.15563 0.49613 0.0
H694 H 0.39958 0.16674 0.40294 0.0
H695 H 0.40534 0.19272 0.40043 0.0
H696 H 0.34987 0.17658 0.4313 0.0
H697 H 0.34348 0.1819 0.48651 0.0
H698 H 0.34378 0.16492 0.48666 0.0
H699 H 0.35999 0.17311 0.56766 0.0
H700 H 0.35966 0.19011 0.56803 0.0
H701 H 0.37702 0.19045 0.56797 0.0
H702 H 0.40493 0.2172 0.40068 0.0
H703 H 0.39867 0.23706 0.40496 0.0
H704 H 0.36064 0.20898 0.49793 0.0
C705 C 0.37109 0.16353 0.47595 0.0
C706 C 0.37998 0.1591 0.44972 0.0
C707 C 0.39266 0.16986 0.42371 0.0
C708 C 0.39599 0.18465 0.42199 0.0
C709 C 0.38664 0.18851 0.44698 0.0
C710 C 0.37454 0.17821 0.47395 0.0
C711 C 0.36555 0.18466 0.49471 0.0
C712 C 0.34975 0.17653 0.47351 0.0
C713 C 0.36556 0.18458 0.55306 0.0
C714 C 0.37418 0.20013 0.47412 0.0
C715 C 0.3864 0.2023 0.44707 0.0
C716 C 0.39549 0.21562 0.42239 0.0
C717 C 0.39184 0.22686 0.42502 0.0
C718 C 0.37914 0.22464 0.45176 0.0
C719 C 0.37044 0.21114 0.47719 0.0
H720 H 0.86727 0.20511 0.47459 0.0
H721 H 0.85517 0.23571 0.41064 0.0
H722 H 0.82932 0.2153 0.40238 0.0
H723 H 0.8452 0.17537 0.39364 0.0
H724 H 0.8409 0.16169 0.44209 0.0
H725 H 0.85796 0.1789 0.44479 0.0
H726 H 0.85148 0.18354 0.53548 0.0
H727 H 0.83441 0.16632 0.5331 0.0
H728 H 0.83429 0.18312 0.54622 0.0
H729 H 0.80437 0.19022 0.39896 0.0
H730 H 0.78405 0.16421 0.40092 0.0
H731 H 0.81395 0.15146 0.46695 0.0
C732 C 0.85926 0.2077 0.45915 0.0
C733 C 0.86335 0.22212 0.44338 0.0
C734 C 0.85235 0.22479 0.42319 0.0
C735 C 0.83763 0.21325 0.41833 0.0
C736 C 0.83409 0.1991 0.43385 0.0
C737 C 0.8447 0.19642 0.45393 0.0
C738 C 0.83853 0.18037 0.46655 0.0
C739 C 0.8461 0.1737 0.43488 0.0
C740 C 0.83975 0.17822 0.52373 0.0
C741 C 0.82272 0.17429 0.45062 0.0
C742 C 0.82021 0.18513 0.43179 0.0
C743 C 0.80629 0.18172 0.41388 0.0
C744 C 0.7948 0.16691 0.41514 0.0
C745 C 0.79731 0.15569 0.4341 0.0
C746 C 0.8115 0.15964 0.45224 0.0
H747 H 0.99397 0.52459 0.15317 0.0
H748 H 0.95957 0.51591 0.26239 0.0
H749 H 0.95411 0.49007 0.26959 0.0
H750 H 0.97573 0.48868 0.09083 0.0
H751 H 0.99283 0.48871 0.08306 0.0
H752 H 0.99274 0.50583 0.08347 0.0
H753 H 1.01183 0.51534 0.15669 0.0
H754 H 1.01195 0.49827 0.15662 0.0
H755 H 1.00778 0.50471 0.21424 0.0
H756 H 0.95417 0.46527 0.2691 0.0
H757 H 0.95975 0.44498 0.26113 0.0
H758 H 0.99413 0.47099 0.15229 0.0
C759 C 0.98512 0.51728 0.17821 0.0
C760 C 0.97722 0.52236 0.20724 0.0
C761 C 0.96575 0.5123 0.23949 0.0
C762 C 0.96259 0.49759 0.24385 0.0
C763 C 0.9709 0.49309 0.21537 0.0
C764 C 0.98186 0.5027 0.18292 0.0
C765 C 0.98986 0.49568 0.15836 0.0
C766 C 0.98765 0.49466 0.1005 0.0
C767 C 1.00632 0.50399 0.17234 0.0
C768 C 0.98195 0.48064 0.18266 0.0
C769 C 0.97095 0.47919 0.21518 0.0
C770 C 0.96268 0.46631 0.2433 0.0
C771 C 0.96591 0.45482 0.23847 0.0
C772 C 0.9774 0.45633 0.20611 0.0
C773 C 0.98527 0.46937 0.17741 0.0
H774 H 0.54711 0.52797 0.17371 0.0
H775 H 0.57425 0.51699 0.26725 0.0
H776 H 0.55456 0.49074 0.2661 0.0
H777 H 0.51441 0.50579 0.2341 0.0
H778 H 0.50317 0.50069 0.17779 0.0
H779 H 0.52018 0.5179 0.17994 0.0
H780 H 0.52929 0.51079 0.09899 0.0
H781 H 0.5122 0.49355 0.09627 0.0
H782 H 0.52946 0.4937 0.09745 0.0
H783 H 0.52991 0.46591 0.26302 0.0
H784 H 0.50396 0.44572 0.25618 0.0
H785 H 0.49399 0.47391 0.16411 0.0
C786 C 0.5491 0.52003 0.19309 0.0
C787 C 0.56223 0.52456 0.22058 0.0
C788 C 0.56434 0.51378 0.24551 0.0
C789 C 0.55318 0.49885 0.24517 0.0
C790 C 0.5401 0.49487 0.21909 0.0
C791 C 0.53819 0.50521 0.19291 0.0
C792 C 0.5229 0.4986 0.17069 0.0
C793 C 0.51469 0.50619 0.19192 0.0
C794 C 0.5235 0.49919 0.11239 0.0
C795 C 0.51624 0.48299 0.18971 0.0
C796 C 0.52626 0.48088 0.21717 0.0
C797 C 0.52209 0.46744 0.24089 0.0
C798 C 0.50731 0.45602 0.23682 0.0
C799 C 0.49685 0.45816 0.20961 0.0
C800 C 0.50161 0.47179 0.18514 0.0
H801 H 0.54544 0.02036 0.16423 0.0
H802 H 0.57513 0.06055 0.24445 0.0
H803 H 0.55508 0.0665 0.25143 0.0
H804 H 0.52425 0.03437 0.09596 0.0
H805 H 0.50732 0.01715 0.10338 0.0
H806 H 0.52459 0.01738 0.09872 0.0
H807 H 0.51913 1.00324 0.184 0.0
H808 H 0.50191 1.003 0.189 0.0
H809 H 0.51519 0.01069 0.23964 0.0
H810 H 0.53036 0.06638 0.25722 0.0
H811 H 0.50416 0.05995 0.26244 0.0
H812 H 0.49153 0.01971 0.17924 0.0
C813 C 0.54791 0.03059 0.18244 0.0
C814 C 0.56193 0.03998 0.20372 0.0
C815 C 0.56453 0.0532 0.22748 0.0
C816 C 0.55319 0.05667 0.23164 0.0
C817 C 0.53935 0.04687 0.21145 0.0
C818 C 0.53679 0.03416 0.18699 0.0
C819 C 0.52082 0.02474 0.17211 0.0
C820 C 0.51915 0.02333 0.11409 0.0
C821 C 0.51386 0.00953 0.19773 0.0
C822 C 0.51459 0.03388 0.19321 0.0
C823 C 0.52539 0.04673 0.2152 0.0
C824 C 0.52189 0.05642 0.23952 0.0
C825 C 0.50698 0.05271 0.24222 0.0
C826 C 0.49576 0.03931 0.22134 0.0
C827 C 0.49979 0.03003 0.19563 0.0
H828 H 0.47067 0.97587 0.86013 0.0
H829 H 0.44927 0.95318 0.72125 0.0
H830 H 0.46833 0.94595 0.70987 0.0
H831 H 0.50523 0.99215 0.81551 0.0
H832 H 0.51382 0.99104 0.8733 0.0
H833 H 0.49681 0.99122 0.87614 0.0
H834 H 0.48476 0.96669 0.92637 0.0
H835 H 0.50183 0.96646 0.92376 0.0
H836 H 0.48509 0.95094 0.90057 0.0
H837 H 0.49257 0.94527 0.7066 0.0
H838 H 0.51882 0.95185 0.71046 0.0
H839 H 0.5239 0.97536 0.85079 0.0
C840 C 0.46969 0.96896 0.82811 0.0
C841 C 0.45845 0.96505 0.79167 0.0
C842 C 0.45765 0.95613 0.75006 0.0
C843 C 0.46847 0.95201 0.74331 0.0
C844 C 0.47984 0.9567 0.77893 0.0
C845 C 0.48033 0.96484 0.82091 0.0
C846 C 0.49446 0.97022 0.85048 0.0
C847 C 0.50308 0.98715 0.854 0.0
C848 C 0.49135 0.96315 0.90344 0.0
C849 C 0.50231 0.96454 0.81734 0.0
C850 C 0.49365 0.95644 0.77684 0.0
C851 C 0.49927 0.95131 0.73881 0.0
C852 C 0.51418 0.95501 0.74141 0.0
C853 C 0.52332 0.96399 0.78122 0.0
C854 C 0.51709 0.9683 0.82036 0.0
H855 H 0.01869 0.53739 0.79935 0.0
H856 H 0.06259 0.56821 0.7448 0.0
H857 H 0.06872 0.5482 0.74555 0.0
H858 H 0.02842 0.51546 0.88083 0.0
H859 H 1.01192 0.49864 0.86418 0.0
H860 H 1.01191 0.5158 0.86433 0.0
H861 H 1.00291 0.51137 0.77088 0.0
H862 H 1.00293 0.49425 0.77037 0.0
H863 H 0.01337 0.50812 0.72351 0.0
H864 H 0.06881 0.52335 0.74527 0.0
H865 H 0.06282 0.49727 0.74397 0.0
H866 H 0.01887 0.48395 0.79871 0.0
C867 C 0.02972 0.54011 0.78824 0.0
C868 C 0.04015 0.55444 0.77202 0.0
C869 C 0.05441 0.55736 0.7577 0.0
C870 C 0.05797 0.54603 0.75794 0.0
C871 C 0.0472 0.53191 0.77297 0.0
C872 C 0.0334 0.52905 0.78816 0.0
C873 C 0.02331 0.51294 0.79946 0.0
C874 C 0.01862 0.51058 0.85554 0.0
C875 C 1.00985 0.50628 0.76394 0.0
C876 C 0.03346 0.507 0.78775 0.0
C877 C 0.04725 0.518 0.77274 0.0
C878 C 0.05808 0.51473 0.75754 0.0
C879 C 0.05459 0.49987 0.757 0.0
C880 C 0.04036 0.48848 0.77123 0.0
C881 C 0.02987 0.49229 0.78764 0.0
H882 H 0.48026 0.48826 0.81567 0.0
H883 H 0.45337 0.50012 0.72438 0.0
H884 H 0.47321 0.52632 0.72741 0.0
H885 H 0.49734 0.52146 0.89537 0.0
H886 H 0.51467 0.52173 0.8968 0.0
H887 H 0.49769 0.50448 0.89141 0.0
H888 H 0.5074 0.49847 0.80954 0.0
H889 H 0.52434 0.5157 0.81445 0.0
H890 H 0.51351 0.51127 0.75729 0.0
H891 H 0.49782 0.55117 0.73379 0.0
H892 H 0.52356 0.57146 0.74465 0.0
H893 H 0.53319 0.54234 0.83279 0.0
C894 C 0.47839 0.49635 0.79685 0.0
C895 C 0.46526 0.49211 0.76963 0.0
C896 C 0.4633 0.50311 0.74575 0.0
C897 C 0.47453 0.51801 0.7472 0.0
C898 C 0.48754 0.52172 0.77334 0.0
C899 C 0.48935 0.51114 0.79824 0.0
C900 C 0.50448 0.51756 0.82158 0.0
C901 C 0.50348 0.51623 0.87974 0.0
C902 C 0.51292 0.51032 0.79937 0.0
C903 C 0.51118 0.53338 0.80488 0.0
C904 C 0.50131 0.53572 0.77739 0.0
C905 C 0.50553 0.54944 0.75589 0.0
C906 C 0.52019 0.56092 0.76226 0.0
C907 C 0.53049 0.55858 0.78969 0.0
C908 C 0.52569 0.54464 0.8118 0.0
H909 H 0.65859 0.85793 0.48397 0.0
H910 H 0.62613 0.84879 0.60113 0.0
H911 H 0.61933 0.82245 0.60005 0.0
H912 H 0.63821 0.8219 0.41554 0.0
H913 H 0.65513 0.82194 0.40307 0.0
H914 H 0.65512 0.83908 0.40692 0.0
H915 H 0.67535 0.84813 0.47616 0.0
H916 H 0.67532 0.83102 0.47308 0.0
H917 H 0.67209 0.83729 0.53283 0.0
H918 H 0.61924 0.79773 0.59464 0.0
H919 H 0.62531 0.77787 0.58417 0.0
H920 H 0.65797 0.80413 0.47075 0.0
C921 C 0.64971 0.85031 0.50833 0.0
C922 C 0.64284 0.85537 0.54249 0.0
C923 C 0.63138 0.8451 0.57412 0.0
C924 C 0.62752 0.83013 0.57387 0.0
C925 C 0.63506 0.82564 0.54117 0.0
C926 C 0.64576 0.83548 0.50839 0.0
C927 C 0.65333 0.82854 0.48034 0.0
C928 C 0.65026 0.82782 0.42307 0.0
C929 C 0.67 0.83673 0.4913 0.0
C930 C 0.64572 0.81339 0.50377 0.0
C931 C 0.63505 0.81173 0.53827 0.0
C932 C 0.62739 0.79888 0.56701 0.0
C933 C 0.63091 0.78764 0.56081 0.0
C934 C 0.64214 0.78939 0.52661 0.0
C935 C 0.64931 0.80235 0.49713 0.0
H936 H 0.16088 0.80766 0.59902 0.0
H937 H 0.1731 0.77691 0.53818 0.0
H938 H 0.19936 0.79685 0.53619 0.0
H939 H 0.18344 0.83731 0.52591 0.0
H940 H 0.18787 0.85087 0.57496 0.0
H941 H 0.17079 0.83375 0.57753 0.0
H942 H 0.17733 0.82873 0.66752 0.0
H943 H 0.19449 0.84591 0.66528 0.0
H944 H 0.19448 0.82901 0.67748 0.0
H945 H 0.22431 0.82182 0.5324 0.0
H946 H 0.24414 0.84809 0.52716 0.0
H947 H 0.21443 0.8612 0.59143 0.0
C948 C 0.16911 0.80503 0.58602 0.0
C949 C 0.16499 0.7908 0.56855 0.0
C950 C 0.17606 0.78776 0.55207 0.0
C951 C 0.19098 0.79902 0.5508 0.0
C952 C 0.19461 0.81313 0.56722 0.0
C953 C 0.1839 0.81599 0.58521 0.0
C954 C 0.19016 0.83203 0.59817 0.0
C955 C 0.18262 0.83888 0.56727 0.0
C956 C 0.18905 0.83404 0.65552 0.0
C957 C 0.20595 0.83803 0.58213 0.0
C958 C 0.20855 0.82705 0.56528 0.0
C959 C 0.22237 0.83041 0.54624 0.0
C960 C 0.23359 0.84533 0.5435 0.0
C961 C 0.23076 0.85661 0.55887 0.0
C962 C 0.21688 0.85278 0.5794 0.0
H963 H 0.2125 0.35283 0.5483 0.0
H964 H 0.24476 0.39936 0.54429 0.0
H965 H 0.22452 0.40519 0.55067 0.0
H966 H 0.18553 0.35365 0.47337 0.0
H967 H 0.17035 0.33989 0.50997 0.0
H968 H 0.18749 0.33989 0.50787 0.0
H969 H 0.18896 0.34115 0.60624 0.0
H970 H 0.17178 0.34114 0.60865 0.0
H971 H 0.18791 0.35571 0.63881 0.0
H972 H 0.19941 0.40523 0.55347 0.0
H973 H 0.1733 0.39947 0.55262 0.0
H974 H 0.15901 0.35292 0.55559 0.0
C975 C 0.2154 0.36429 0.54873 0.0
C976 C 0.23022 0.37564 0.54519 0.0
C977 C 0.23347 0.39047 0.54688 0.0
C978 C 0.22204 0.39386 0.55049 0.0
C979 C 0.20747 0.38229 0.55322 0.0
C980 C 0.20427 0.36781 0.55287 0.0
C981 C 0.18793 0.35721 0.55572 0.0
C982 C 0.18251 0.34707 0.50894 0.0
C983 C 0.18391 0.34828 0.6053 0.0
C984 C 0.18224 0.36786 0.55582 0.0
C985 C 0.19353 0.38232 0.55504 0.0
C986 C 0.19055 0.39392 0.55431 0.0
C987 C 0.1757 0.39056 0.55389 0.0
C988 C 0.16407 0.37574 0.55356 0.0
C989 C 0.16756 0.36438 0.55519 0.0
H990 H 0.04412 0.29697 0.03901 0.0
H991 H 0.05378 0.2614 0.0491 0.0
H992 H 0.02887 0.24406 0.01582 0.0
H993 H 1.00581 0.27625 0.07425 0.0
H994 H 1.00035 0.28573 0.02996 0.0
H995 H 0.01863 0.29498 0.05643 0.0
H996 H 0.02971 0.30053 0.96573 0.0
H997 H 1.01147 0.29123 0.93897 0.0
H998 H 0.02455 0.28558 0.92172 0.0
H999 H 1.00238 0.23056 0.98184 0.0
H1000 H 0.97735 0.22246 0.94844 0.0
H1001 H 0.9861 0.2674 0.95675 0.0
C1002 C 0.04097 0.28551 0.03478 0.0
C1003 C 0.05085 0.28051 0.04716 0.0
C1004 C 0.04636 0.26546 0.04013 0.0
C1005 C 0.03224 0.25554 0.02121 0.0
C1006 C 0.02281 0.26088 0.00896 0.0
C1007 C 0.02705 0.27555 0.01532 0.0
C1008 C 0.01514 0.2787 -0.00207 0.0
C1009 C 1.00966 0.28424 0.04229 0.0
C1010 C 0.02054 0.28966 0.95345 0.0
C1011 C 1.00345 0.26351 0.98092 0.0
C1012 C 1.00799 0.25332 0.98782 0.0
C1013 C 0.99879 0.23849 0.97602 0.0
C1014 C 0.9846 0.23398 0.95703 0.0
C1015 C 0.97981 0.2443 0.94946 0.0
C1016 C 0.98947 0.25925 0.96137 0.0
H1017 H 0.75496 0.72128 0.95701 0.0
H1018 H 0.80003 0.75735 0.95119 0.0
H1019 H 0.79167 0.77446 0.9804 0.0
H1020 H 0.73737 0.74128 0.9144 0.0
H1021 H 0.72188 0.73174 0.95655 0.0
H1022 H 0.73152 0.72268 0.93384 0.0
H1023 H 0.73595 0.71761 0.0266 0.0
H1024 H 0.72637 0.72669 0.0496 0.0
H1025 H 0.7449 0.73275 0.07044 0.0
H1026 H 0.7778 0.78765 0.01011 0.0
H1027 H 0.76013 0.79533 0.03897 0.0
H1028 H 0.7246 0.75012 0.02801 0.0
C1029 C 0.7631 0.7328 0.96143 0.0
C1030 C 0.77816 0.73799 0.95138 0.0
C1031 C 0.78843 0.75312 0.95842 0.0
C1032 C 0.78377 0.76291 0.97503 0.0
C1033 C 0.76881 0.75738 0.98486 0.0
C1034 C 0.75867 0.74263 0.97843 0.0
C1035 C 0.74329 0.73925 0.99264 0.0
C1036 C 0.73291 0.73339 0.94661 0.0
C1037 C 0.73728 0.72844 0.03749 0.0
C1038 C 0.74628 0.7544 0.00798 0.0
C1039 C 0.76103 0.76476 0.00307 0.0
C1040 C 0.76625 0.77957 0.01425 0.0
C1041 C 0.75614 0.78384 0.03065 0.0
C1042 C 0.74099 0.77333 0.03614 0.0
C1043 C 0.73611 0.75843 0.02474 0.0
H1044 H 0.23826 0.97473 0.01091 0.0
H1045 H 0.27277 0.97748 0.10918 0.0
H1046 H 0.2878 1.0039 0.09116 0.0
H1047 H 0.26178 0.99831 0.91625 0.0
H1048 H 0.25136 1.00729 0.90211 0.0
H1049 H 0.24218 0.98887 0.92715 0.0
H1050 H 0.23178 0.99715 0.0012 0.0
H1051 H 0.2409 0.01563 0.97626 0.0
H1052 H 0.24422 0.01233 0.04075 0.0
H1053 H 0.30037 0.02879 0.05649 0.0
H1054 H 0.30986 0.05174 0.00754 0.0
H1055 H 0.26777 0.03446 0.93133 0.0
C1056 C 0.24881 0.98102 0.02957 0.0
C1057 C 0.2543 0.97403 0.06178 0.0
C1058 C 0.26832 0.98256 0.08449 0.0
C1059 C 0.27694 0.99761 0.07462 0.0
C1060 C 0.27145 1.00412 0.0419 0.0
C1061 C 0.25771 0.99622 0.0198 0.0
C1062 C 0.25509 1.00595 0.98325 0.0
C1063 C 0.25245 0.99973 0.92898 0.0
C1064 C 0.24223 0.00788 0.00146 0.0
C1065 C 0.26969 0.02033 0.98731 0.0
C1066 C 0.27884 0.01893 0.02183 0.0
C1067 C 0.29324 0.03014 0.03006 0.0
C1068 C 0.29855 0.04312 0.00199 0.0
C1069 C 0.2895 0.04492 0.96633 0.0
C1070 C 0.27478 0.03346 0.95932 0.0
H1071 H 0.98545 0.75227 0.94356 0.0
H1072 H 0.96968 0.70741 0.99292 0.0
H1073 H 0.99232 0.71555 0.04266 0.0
H1074 H 0.02248 0.76121 0.92543 0.0
H1075 H 0.0308 0.77989 0.948 0.0
H1076 H 0.01261 0.77115 0.92092 0.0
H1077 H 1.00251 0.77666 0.00262 0.0
H1078 H 0.02071 0.78546 0.02994 0.0
H1079 H 1.00554 0.77058 0.06309 0.0
H1080 H 0.01667 0.72756 0.08195 0.0
H1081 H 0.04251 0.74284 0.1071 0.0
H1082 H 0.04428 0.78052 0.03178 0.0
C1083 C 0.98671 0.7443 0.96587 0.0
C1084 C 0.97577 0.72922 0.96503 0.0
C1085 C 0.97791 0.719 0.9934 0.0
C1086 C 0.9907 0.72353 0.02189 0.0
C1087 C 1.00141 0.73835 0.02147 0.0
C1088 C 0.99968 0.74865 0.99425 0.0
C1089 C 0.01359 0.76369 -0.00225 0.0
C1090 C 0.02026 0.76931 0.94487 0.0
C1091 C 1.0104 0.77475 0.02497 0.0
C1092 C 0.02344 0.76006 0.02994 0.0
C1093 C 0.01598 0.74539 0.04367 0.0
C1094 C 0.02262 0.7391 0.07183 0.0
C1095 C 0.03737 0.74791 0.08589 0.0
C1096 C 0.04551 0.76292 0.07164 0.0
C1097 C 0.03834 0.76913 0.04378 0.0
H1098 H 0.29971 0.26499 0.95156 0.0
H1099 H 0.26264 0.22046 0.94601 0.0
H1100 H 0.24633 0.22937 0.97887 0.0
H1101 H 0.28962 0.27508 0.06796 0.0
H1102 H 0.29595 0.29377 0.0486 0.0
H1103 H 0.30444 0.28392 0.02278 0.0
H1104 H 0.2988 0.28897 0.93157 0.0
H1105 H 0.29035 0.29889 0.95711 0.0
H1106 H 0.28014 0.28366 0.91456 0.0
H1107 H 0.23405 0.24355 0.01242 0.0
H1108 H 0.22716 0.26148 0.04468 0.0
H1109 H 0.27265 0.29632 0.03118 0.0
C1110 C 0.28813 0.25711 0.95677 0.0
C1111 C 0.28243 0.24203 0.94582 0.0
C1112 C 0.26725 0.23207 0.95393 0.0
C1113 C 0.25791 0.23703 0.97262 0.0
C1114 C 0.26393 0.25198 0.98343 0.0
C1115 C 0.27872 0.26184 0.97587 0.0
C1116 C 0.28261 0.27725 0.99158 0.0
C1117 C 0.29382 0.28283 0.03533 0.0
C1118 C 0.28831 0.28781 0.94599 0.0
C1119 C 0.26772 0.27458 0.00909 0.0
C1120 C 0.25703 0.25996 0.00391 0.0
C1121 C 0.24237 0.255 0.0168 0.0
C1122 C 0.23855 0.26526 0.03514 0.0
C1123 C 0.24937 0.28028 0.04088 0.0
C1124 C 0.26413 0.2849 0.02782 0.0
H1125 H 0.75678 0.03822 0.94691 0.0
H1126 H 0.80081 0.04545 0.92252 0.0
H1127 H 0.79258 0.02004 0.952 0.0
H1128 H 0.75043 0.01818 0.06232 0.0
H1129 H 0.73112 1.00601 0.05008 0.0
H1130 H 0.74031 0.02429 0.02375 0.0
H1131 H 0.73198 0.01345 0.93349 0.0
H1132 H 0.72275 0.99514 0.95955 0.0
H1133 H 0.73637 0.99993 0.91043 0.0
H1134 H 0.77902 0.99334 0.98372 0.0
H1135 H 0.7621 0.96882 0.02075 0.0
H1136 H 0.72772 0.98023 0.02979 0.0
C1137 C 0.76465 0.0344 0.94711 0.0
C1138 C 0.77939 0.04372 0.93173 0.0
C1139 C 0.78944 0.03844 0.93382 0.0
C1140 C 0.78485 0.02403 0.95043 0.0
C1141 C 0.77023 0.01513 0.96559 0.0
C1142 C 0.76034 0.02021 0.96454 0.0
C1143 C 0.74549 0.00887 0.9855 0.0
C1144 C 0.74162 0.01469 0.03324 0.0
C1145 C 0.73344 1.00406 0.94481 0.0
C1146 C 0.74849 0.99655 -0.00161 0.0
C1147 C 0.76275 1.00025 0.98611 0.0
C1148 C 0.76787 0.99039 0.99371 0.0
C1149 C 0.75819 0.97649 0.01465 0.0
C1150 C 0.74365 0.97267 0.02852 0.0
C1151 C 0.73882 0.98288 0.0201 0.0
H1152 H 0.64905 0.59917 0.30511 0.0
H1153 H 0.64303 0.55623 0.26824 0.0
H1154 H 0.66847 0.56442 0.29736 0.0
H1155 H 0.68722 0.62086 0.26926 0.0
H1156 H 0.69179 0.63356 0.32133 0.0
H1157 H 0.67343 0.62442 0.29558 0.0
H1158 H 0.66278 0.61438 0.38492 0.0
H1159 H 0.68111 0.62348 0.41095 0.0
H1160 H 0.66931 0.60396 0.41964 0.0
H1161 H 0.69508 0.57783 0.32979 0.0
H1162 H 0.71956 0.59451 0.36735 0.0
H1163 H 0.70724 0.62798 0.3872 0.0
C1164 C 0.65311 0.59151 0.30269 0.0
C1165 C 0.64411 0.5771 0.28386 0.0
C1166 C 0.64976 0.56734 0.2823 0.0
C1167 C 0.6642 0.57191 0.2987 0.0
C1168 C 0.67278 0.58622 0.31718 0.0
C1169 C 0.66737 0.59581 0.31964 0.0
C1170 C 0.67851 0.61038 0.34297 0.0
C1171 C 0.683 0.62305 0.30501 0.0
C1172 C 0.67257 0.61321 0.39256 0.0
C1173 C 0.69111 0.60756 0.35311 0.0
C1174 C 0.68769 0.59363 0.33759 0.0
C1175 C 0.6978 0.58873 0.34229 0.0
C1176 C 0.7117 0.59828 0.36358 0.0
C1177 C 0.71529 0.61251 0.38053 0.0
C1178 C 0.7048 0.61713 0.37507 0.0
H1179 H 0.42231 0.05455 0.29757 0.0
H1180 H 0.46716 0.09034 0.27874 0.0
H1181 H 0.45944 0.10804 0.30682 0.0
H1182 H 0.40387 0.07379 0.25551 0.0
H1183 H 0.38932 0.06514 0.30173 0.0
H1184 H 0.39843 0.0556 0.2785 0.0
H1185 H 0.40487 0.05229 0.37077 0.0
H1186 H 0.39579 0.06183 0.39428 0.0
H1187 H 0.41473 0.06822 0.41076 0.0
H1188 H 0.44628 0.12184 0.33713 0.0
H1189 H 0.42936 0.13008 0.36957 0.0
H1190 H 0.39368 0.0848 0.37104 0.0
C1191 C 0.43052 0.06612 0.29892 0.0
C1192 C 0.44533 0.07107 0.28557 0.0
C1193 C 0.45574 0.0863 0.28862 0.0
C1194 C 0.45145 0.09643 0.30449 0.0
C1195 C 0.43673 0.09113 0.31758 0.0
C1196 C 0.42647 0.0763 0.31514 0.0
C1197 C 0.41145 0.07325 0.33264 0.0
C1198 C 0.4001 0.06655 0.28952 0.0
C1199 C 0.40642 0.06331 0.37992 0.0
C1200 C 0.41478 0.08866 0.34531 0.0
C1201 C 0.42937 0.09889 0.33612 0.0
C1202 C 0.43485 0.11388 0.34457 0.0
C1203 C 0.42516 0.11848 0.36294 0.0
C1204 C 0.41022 0.10809 0.37312 0.0
C1205 C 0.40506 0.09302 0.36405 0.0
H1206 H 0.93606 0.31126 0.37648 0.0
H1207 H 0.89103 0.30219 0.38759 0.0
H1208 H 0.8988 0.32719 0.35476 0.0
H1209 H 0.95434 0.34946 0.41104 0.0
H1210 H 0.96901 0.35479 0.36564 0.0
H1211 H 0.95993 0.33649 0.39183 0.0
H1212 H 0.95371 0.32546 0.30116 0.0
H1213 H 0.96283 0.34373 0.27469 0.0
H1214 H 0.94395 0.33097 0.25831 0.0
H1215 H 0.91207 0.35388 0.32352 0.0
H1216 H 0.92896 0.37866 0.2884 0.0
H1217 H 0.96473 0.36917 0.29148 0.0
C1218 C 0.92785 0.31458 0.37233 0.0
C1219 C 0.91297 0.30488 0.38516 0.0
C1220 C 0.90249 0.30949 0.37815 0.0
C1221 C 0.90683 0.32367 0.35969 0.0
C1222 C 0.92163 0.333 0.34753 0.0
C1223 C 0.93192 0.32853 0.3529 0.0
C1224 C 0.94698 0.3403 0.33482 0.0
C1225 C 0.95823 0.34557 0.37844 0.0
C1226 C 0.95217 0.33478 0.28956 0.0
C1227 C 0.94364 0.35218 0.3188 0.0
C1228 C 0.92901 0.34788 0.327 0.0
C1229 C 0.92351 0.35728 0.31656 0.0
C1230 C 0.93318 0.37135 0.29679 0.0
C1231 C 0.94811 0.37578 0.28683 0.0
C1232 C 0.95333 0.36603 0.29813 0.0
H1233 H 0.70769 0.08301 0.36866 0.0
H1234 H 0.71782 0.12844 0.36825 0.0
H1235 H 0.69285 0.12058 0.33476 0.0
H1236 H 0.68765 0.07314 0.25124 0.0
H1237 H 0.67461 0.05476 0.27186 0.0
H1238 H 0.69298 0.06403 0.29754 0.0
H1239 H 0.68227 0.05995 0.38864 0.0
H1240 H 0.66386 0.05069 0.36322 0.0
H1241 H 0.66966 0.06631 0.40461 0.0
H1242 H 0.66605 0.10721 0.30367 0.0
H1243 H 0.64098 0.09 0.2713 0.0
H1244 H 0.6495 0.0538 0.28699 0.0
C1245 C 0.70464 0.09131 0.36187 0.0
C1246 C 0.71463 0.10633 0.37159 0.0
C1247 C 0.71031 0.11687 0.36123 0.0
C1248 C 0.69614 0.11249 0.34233 0.0
C1249 C 0.68653 0.09756 0.33325 0.0
C1250 C 0.6907 0.08717 0.34216 0.0
C1251 C 0.67863 0.0719 0.32741 0.0
C1252 C 0.68378 0.06559 0.28446 0.0
C1253 C 0.67329 0.06161 0.37373 0.0
C1254 C 0.66693 0.07524 0.30909 0.0
C1255 C 0.67158 0.09007 0.31321 0.0
C1256 C 0.66238 0.09561 0.29993 0.0
C1257 C 0.64816 0.08576 0.28171 0.0
C1258 C 0.64335 0.0706 0.2762 0.0
C1259 C 0.65292 0.06536 0.29016 0.0
H1260 H 0.93551 0.62741 0.36205 0.0
H1261 H 0.89206 0.59108 0.39749 0.0
H1262 H 0.89995 0.57348 0.36973 0.0
H1263 H 0.94039 0.61165 0.24859 0.0
H1264 H 0.95986 0.61908 0.25824 0.0
H1265 H 0.95091 0.62856 0.28335 0.0
H1266 H 0.9605 0.62782 0.37334 0.0
H1267 H 0.96947 0.61832 0.34851 0.0
H1268 H 0.95653 0.6104 0.40007 0.0
H1269 H 0.91315 0.55985 0.33855 0.0
H1270 H 0.92968 0.55167 0.30188 0.0
H1271 H 0.96376 0.59723 0.28276 0.0
C1272 C 0.92767 0.61574 0.36448 0.0
C1273 C 0.91321 0.61061 0.38251 0.0
C1274 C 0.90322 0.59526 0.38405 0.0
C1275 C 0.90762 0.58519 0.36843 0.0
C1276 C 0.92199 0.59065 0.35072 0.0
C1277 C 0.9318 0.6056 0.34829 0.0
C1278 C 0.94639 0.60877 0.32576 0.0
C1279 C 0.94957 0.61753 0.27604 0.0
C1280 C 0.95896 0.6168 0.36422 0.0
C1281 C 0.94335 0.59328 0.31601 0.0
C1282 C 0.92928 0.58294 0.33106 0.0
C1283 C 0.92416 0.56788 0.32645 0.0
C1284 C 0.93362 0.56333 0.30568 0.0
C1285 C 0.94798 0.5738 0.28915 0.0
C1286 C 0.95282 0.58894 0.29461 0.0
H1287 H 0.42258 0.37023 0.28533 0.0
H1288 H 0.46765 0.3792 0.27984 0.0
H1289 H 0.45958 0.35432 0.31437 0.0
H1290 H 0.41355 0.35072 0.40421 0.0
H1291 H 0.39484 0.33791 0.38599 0.0
H1292 H 0.4042 0.35614 0.35923 0.0
H1293 H 0.39888 0.345 0.26869 0.0
H1294 H 0.38956 0.32673 0.29517 0.0
H1295 H 0.40467 0.33201 0.25173 0.0
H1296 H 0.44607 0.32777 0.34654 0.0
H1297 H 0.42882 0.30295 0.38054 0.0
H1298 H 0.39307 0.31239 0.37066 0.0
C1299 C 0.43074 0.36693 0.29112 0.0
C1300 C 0.44573 0.37658 0.27941 0.0
C1301 C 0.45612 0.37196 0.28843 0.0
C1302 C 0.45162 0.35784 0.3079 0.0
C1303 C 0.43673 0.34858 0.31895 0.0
C1304 C 0.42649 0.35304 0.31145 0.0
C1305 C 0.41127 0.34128 0.32819 0.0
C1306 C 0.40564 0.34685 0.37201 0.0
C1307 C 0.40046 0.33594 0.28326 0.0
C1308 C 0.41446 0.32943 0.34594 0.0
C1309 C 0.42917 0.33375 0.3398 0.0
C1310 C 0.43456 0.32436 0.35194 0.0
C1311 C 0.42469 0.31028 0.37109 0.0
C1312 C 0.40965 0.30581 0.37872 0.0
C1313 C 0.40455 0.31557 0.36594 0.0
H1314 H 0.31908 0.90241 0.60386 0.0
H1315 H 0.30582 0.93463 0.63735 0.0
H1316 H 0.32926 0.95005 0.68137 0.0
H1317 H 0.33976 0.90702 0.72218 0.0
H1318 H 0.35436 0.90556 0.69158 0.0
H1319 H 0.33605 0.8962 0.66523 0.0
H1320 H 0.34634 0.9093 0.57933 0.0
H1321 H 0.36467 0.91875 0.60548 0.0
H1322 H 0.357 0.92911 0.57736 0.0
H1323 H 0.35357 0.96234 0.71906 0.0
H1324 H 0.37875 0.9718 0.74906 0.0
H1325 H 0.37843 0.93288 0.69066 0.0
C1326 C 0.32112 0.91262 0.62116 0.0
C1327 C 0.31063 0.91735 0.61745 0.0
C1328 C 0.31373 0.93087 0.63963 0.0
C1329 C 0.327 0.93968 0.66486 0.0
C1330 C 0.33723 0.93495 0.66724 0.0
C1331 C 0.33461 0.92182 0.64602 0.0
C1332 C 0.34809 0.92 0.65245 0.0
C1333 C 0.34434 0.90638 0.68479 0.0
C1334 C 0.35439 0.91925 0.60056 0.0
C1335 C 0.35855 0.93416 0.68046 0.0
C1336 C 0.35185 0.94246 0.68858 0.0
C1337 C 0.35896 0.95597 0.7131 0.0
C1338 C 0.37334 0.96124 0.73003 0.0
C1339 C 0.38069 0.95314 0.7224 0.0
C1340 C 0.37315 0.93935 0.6971 0.0
H1341 H 0.05832 0.41705 0.6959 0.0
H1342 H 0.09369 0.46142 0.72575 0.0
H1343 H 0.11183 0.45454 0.69511 0.0
H1344 H 0.07749 0.39787 0.7311 0.0
H1345 H 0.06935 0.38451 0.68092 0.0
H1346 H 0.05946 0.39288 0.7074 0.0
H1347 H 0.05689 0.40147 0.61765 0.0
H1348 H 0.06679 0.39315 0.59091 0.0
H1349 H 0.07318 0.41237 0.5801 0.0
H1350 H 0.12613 0.44222 0.66178 0.0
H1351 H 0.13492 0.42625 0.6246 0.0
H1352 H 0.08975 0.39068 0.61232 0.0
C1353 C 0.06989 0.42531 0.69654 0.0
C1354 C 0.07461 0.43974 0.71378 0.0
C1355 C 0.08984 0.45028 0.71297 0.0
C1356 C 0.10021 0.44645 0.69567 0.0
C1357 C 0.09515 0.4321 0.67869 0.0
C1358 C 0.08031 0.42175 0.67868 0.0
C1359 C 0.07756 0.40727 0.65665 0.0
C1360 C 0.07055 0.3949 0.69639 0.0
C1361 C 0.06804 0.40334 0.60847 0.0
C1362 C 0.09315 0.41101 0.64429 0.0
C1363 C 0.1032 0.42532 0.65768 0.0
C1364 C 0.11832 0.43104 0.65089 0.0
C1365 C 0.12322 0.42189 0.6298 0.0
C1366 C 0.11303 0.40728 0.61508 0.0
C1367 C 0.09782 0.40186 0.62251 0.0
H1368 H 0.60395 0.64612 0.70457 0.0
H1369 H 0.55858 0.63621 0.71108 0.0
H1370 H 0.56602 0.66079 0.67512 0.0
H1371 H 0.62127 0.68442 0.73576 0.0
H1372 H 0.63627 0.68983 0.69175 0.0
H1373 H 0.62739 0.67168 0.71914 0.0
H1374 H 0.62194 0.66015 0.62918 0.0
H1375 H 0.63087 0.67826 0.60151 0.0
H1376 H 0.61219 0.66509 0.58422 0.0
H1377 H 0.57893 0.6872 0.64215 0.0
H1378 H 0.5956 0.71194 0.60653 0.0
H1379 H 0.63206 0.70356 0.61528 0.0
C1380 C 0.59559 0.64914 0.69854 0.0
C1381 C 0.5807 0.63933 0.71101 0.0
C1382 C 0.57004 0.64358 0.7018 0.0
C1383 C 0.57418 0.65753 0.68158 0.0
C1384 C 0.58899 0.66699 0.66993 0.0
C1385 C 0.59948 0.66287 0.67738 0.0
C1386 C 0.61454 0.67478 0.65982 0.0
C1387 C 0.62551 0.68051 0.70427 0.0
C1388 C 0.62022 0.66924 0.61608 0.0
C1389 C 0.61096 0.68633 0.64171 0.0
C1390 C 0.5962 0.68174 0.64845 0.0
C1391 C 0.59046 0.69082 0.63625 0.0
C1392 C 0.60001 0.70487 0.61621 0.0
C1393 C 0.61507 0.70961 0.60773 0.0
C1394 C 0.62055 0.70017 0.62074 0.0
H1395 H 0.37707 0.41848 0.69608 0.0
H1396 H 0.38431 0.46221 0.72657 0.0
H1397 H 0.35904 0.4544 0.69644 0.0
H1398 H 0.35734 0.4133 0.58042 0.0
H1399 H 0.34506 0.39392 0.59065 0.0
H1400 H 0.36329 0.40278 0.6175 0.0
H1401 H 0.35219 0.39365 0.70702 0.0
H1402 H 0.33392 0.38475 0.68042 0.0
H1403 H 0.33864 0.3979 0.73107 0.0
H1404 H 0.33249 0.44132 0.66345 0.0
H1405 H 0.30802 0.42487 0.62536 0.0
H1406 H 0.31919 0.39042 0.61158 0.0
C1407 C 0.37329 0.42638 0.69701 0.0
C1408 C 0.38259 0.44091 0.71428 0.0
C1409 C 0.37734 0.451 0.71376 0.0
C1410 C 0.363 0.44665 0.69678 0.0
C1411 C 0.35413 0.43222 0.67976 0.0
C1412 C 0.35916 0.4223 0.67935 0.0
C1413 C 0.34782 0.40769 0.65689 0.0
C1414 C 0.35373 0.40423 0.60849 0.0
C1415 C 0.34285 0.39526 0.6962 0.0
C1416 C 0.33556 0.41086 0.6448 0.0
C1417 C 0.3393 0.42501 0.65875 0.0
C1418 C 0.32952 0.43026 0.65217 0.0
C1419 C 0.31563 0.42084 0.63059 0.0
C1420 C 0.31174 0.40641 0.61514 0.0
C1421 C 0.32189 0.40144 0.62249 0.0
H1422 H 0.60517 0.89973 0.63561 0.0
H1423 H 0.63807 0.9358 0.54509 0.0
H1424 H 0.62666 0.95062 0.56591 0.0
H1425 H 0.57408 0.90648 0.60511 0.0
H1426 H 0.56656 0.90206 0.66838 0.0
H1427 H 0.57623 0.89333 0.64271 0.0
H1428 H 0.59384 0.90231 0.71985 0.0
H1429 H 0.58429 0.91111 0.74562 0.0
H1430 H 0.60387 0.92166 0.73483 0.0
H1431 H 0.6141 0.96266 0.60202 0.0
H1432 H 0.59978 0.97132 0.64987 0.0
H1433 H 0.57368 0.92804 0.71712 0.0
C1434 C 0.6097 0.91061 0.61932 0.0
C1435 C 0.62253 0.91658 0.58852 0.0
C1436 C 0.62831 0.93098 0.56878 0.0
C1437 C 0.62188 0.9395 0.58026 0.0
C1438 C 0.60956 0.93354 0.61155 0.0
C1439 C 0.60337 0.91942 0.63065 0.0
C1440 C 0.59051 0.91624 0.66571 0.0
C1441 C 0.57598 0.90379 0.64418 0.0
C1442 C 0.5933 0.91262 0.7197 0.0
C1443 C 0.59082 0.93092 0.66416 0.0
C1444 C 0.60192 0.94062 0.63232 0.0
C1445 C 0.60523 0.95513 0.62648 0.0
C1446 C 0.59707 0.95996 0.65406 0.0
C1447 C 0.58559 0.95035 0.68691 0.0
C1448 C 0.58225 0.93553 0.69158 0.0
H1449 H 0.05772 0.64406 0.70094 0.0
H1450 H 0.09302 0.63453 0.72498 0.0
H1451 H 0.11109 0.65953 0.69451 0.0
H1452 H 0.07184 0.66396 0.58539 0.0
H1453 H 0.06577 0.67694 0.59866 0.0
H1454 H 0.05589 0.65865 0.62475 0.0
H1455 H 0.05928 0.66952 0.71535 0.0
H1456 H 0.06914 0.68785 0.68953 0.0
H1457 H 0.07755 0.6823 0.73782 0.0
H1458 H 0.12534 0.68611 0.66196 0.0
H1459 H 0.13416 0.71104 0.62663 0.0
H1460 H 0.08913 0.70219 0.61966 0.0
C1461 C 0.06927 0.64726 0.70032 0.0
C1462 C 0.07398 0.63738 0.71585 0.0
C1463 C 0.08917 0.64193 0.71351 0.0
C1464 C 0.0995 0.65612 0.69628 0.0
C1465 C 0.09445 0.66556 0.68097 0.0
C1466 C 0.07965 0.66125 0.68257 0.0
C1467 C 0.07691 0.67317 0.66232 0.0
C1468 C 0.06702 0.66786 0.61497 0.0
C1469 C 0.07033 0.67853 0.70373 0.0
C1470 C 0.09246 0.68492 0.649 0.0
C1471 C 0.10247 0.68043 0.66046 0.0
C1472 C 0.11755 0.68967 0.65259 0.0
C1473 C 0.12247 0.70381 0.63254 0.0
C1474 C 0.11233 0.70851 0.61989 0.0
C1475 C 0.09715 0.69886 0.62824 0.0
H1476 H 0.1083 0.33318 0.69607 0.0
H1477 H 0.10129 0.37054 0.70303 0.0
H1478 H 0.09212 0.36383 0.79083 0.0
H1479 H 0.07696 0.30782 0.77963 0.0
H1480 H 0.08763 0.30076 0.8095 0.0
H1481 H 0.09118 0.30682 0.74437 0.0
H1482 H 0.11859 0.32474 0.76599 0.0
H1483 H 0.11514 0.31861 0.83081 0.0
H1484 H 0.12308 0.3379 0.81648 0.0
H1485 H 0.0864 0.35504 0.87862 0.0
H1486 H 0.08724 0.34655 0.96496 0.0
H1487 H 0.09854 0.31511 0.90382 0.0
C1488 C 0.10449 0.33972 0.71582 0.0
C1489 C 0.10533 0.35227 0.69289 0.0
C1490 C 0.1007 0.36087 0.7201 0.0
C1491 C 0.09533 0.35705 0.76968 0.0
C1492 C 0.09475 0.34466 0.79143 0.0
C1493 C 0.09934 0.33619 0.76567 0.0
C1494 C 0.09945 0.32467 0.80008 0.0
C1495 C 0.08812 0.30909 0.78233 0.0
C1496 C 0.11499 0.32661 0.80355 0.0
C1497 C 0.0948 0.3284 0.84979 0.0
C1498 C 0.09175 0.3397 0.84337 0.0
C1499 C 0.08852 0.34604 0.88407 0.0
C1500 C 0.08904 0.34117 0.93289 0.0
C1501 C 0.09284 0.33014 0.9406 0.0
C1502 C 0.09523 0.32328 0.89856 0.0
H1503 H 0.66973 0.76239 0.91749 0.0
H1504 H 0.71734 0.78291 0.90626 0.0
H1505 H 0.71503 0.77855 0.8136 0.0
H1506 H 0.66069 0.73446 0.81833 0.0
H1507 H 0.64519 0.73595 0.79646 0.0
H1508 H 0.65055 0.73923 0.86227 0.0
H1509 H 0.65278 0.76493 0.85669 0.0
H1510 H 0.64745 0.76175 0.79102 0.0
H1511 H 0.66452 0.77777 0.80902 0.0
H1512 H 0.70761 0.77391 0.72212 0.0
H1513 H 0.69594 0.76995 0.63828 0.0
H1514 H 0.65312 0.75254 0.71023 0.0
C1515 C 0.67972 0.76583 0.8959 0.0
C1516 C 0.69374 0.77303 0.91923 0.0
C1517 C 0.70648 0.77738 0.88927 0.0
C1518 C 0.70527 0.77489 0.83669 0.0
C1519 C 0.69126 0.76794 0.81501 0.0
C1520 C 0.67872 0.76343 0.84374 0.0
C1521 C 0.66503 0.75712 0.81112 0.0
C1522 C 0.65476 0.74071 0.82274 0.0
C1523 C 0.65698 0.76593 0.81733 0.0
C1524 C 0.67186 0.75927 0.75912 0.0
C1525 C 0.68697 0.76531 0.76225 0.0
C1526 C 0.69579 0.76904 0.71921 0.0
C1527 C 0.68902 0.7668 0.67174 0.0
C1528 C 0.67358 0.76097 0.66763 0.0
C1529 C 0.6649 0.75689 0.71202 0.0
H1530 H 0.25925 0.91368 0.92586 0.0
H1531 H 0.23865 0.94065 0.91499 0.0
H1532 H 0.24353 0.94325 0.82267 0.0
H1533 H 0.28759 0.93294 0.82586 0.0
H1534 H 0.28603 0.91594 0.80406 0.0
H1535 H 0.28293 0.91813 0.87 0.0
H1536 H 0.2572 0.89464 0.86522 0.0
H1537 H 0.26018 0.89242 0.79944 0.0
H1538 H 0.2442 0.8935 0.81811 0.0
H1539 H 0.24779 0.94023 0.73107 0.0
H1540 H 0.25095 0.9319 0.64713 0.0
H1541 H 0.26877 0.90682 0.71844 0.0
C1542 C 0.25598 0.92038 0.90441 0.0
C1543 C 0.24852 0.92694 0.9277 0.0
C1544 C 0.24442 0.93556 0.89804 0.0
C1545 C 0.24719 0.93713 0.84563 0.0
C1546 C 0.25423 0.93017 0.8238 0.0
C1547 C 0.25868 0.92207 0.85237 0.0
C1548 C 0.26489 0.91464 0.81946 0.0
C1549 C 0.28134 0.92078 0.83051 0.0
C1550 C 0.25608 0.89781 0.82595 0.0
C1551 C 0.26261 0.91926 0.76752 0.0
C1552 C 0.25669 0.92842 0.77089 0.0
C1553 C 0.25263 0.93325 0.72797 0.0
C1554 C 0.25441 0.92838 0.68044 0.0
C1555 C 0.2601 0.91868 0.67617 0.0
C1556 C 0.26457 0.91437 0.72034 0.0
H1557 H 0.32009 0.09274 0.06572 0.0
H1558 H 0.36154 0.1016 -0.00197 0.0
H1559 H 0.37244 0.1048 0.0827 0.0
H1560 H 0.33566 0.1194 0.1621 0.0
H1561 H 0.32258 0.10862 0.21071 0.0
H1562 H 0.31724 0.10546 0.14496 0.0
H1563 H 0.30952 0.07796 0.1546 0.0
H1564 H 0.31474 0.08101 0.22058 0.0
H1565 H 0.32258 0.07309 0.17899 0.0
H1566 H 0.37964 0.10895 0.17237 0.0
H1567 H 0.38265 0.1133 0.26432 0.0
H1568 H 0.3368 0.10199 0.27636 0.0
C1569 C 0.33136 0.09509 0.06892 0.0
C1570 C 0.33997 0.09698 0.02527 0.0
C1571 C 0.35475 0.10023 0.03088 0.0
C1572 C 0.36105 0.10201 0.07884 0.0
C1573 C 0.35245 0.10046 0.121 0.0
C1574 C 0.33791 0.097 0.11683 0.0
C1575 C 0.33148 0.09679 0.16862 0.0
C1576 C 0.32645 0.10825 0.17176 0.0
C1577 C 0.31883 0.08129 0.18145 0.0
C1578 C 0.34479 0.10101 0.20203 0.0
C1579 C 0.3567 0.10294 0.17363 0.0
C1580 C 0.37038 0.10734 0.19527 0.0
C1581 C 0.37199 0.10986 0.24757 0.0
C1582 C 0.35997 0.108 0.27774 0.0
C1583 C 0.34618 0.10343 0.25449 0.0
H1584 H 0.92079 0.23713 0.29979 0.0
H1585 H 0.92595 0.28078 0.29449 0.0
H1586 H 0.93576 0.28403 0.20738 0.0
H1587 H 0.95314 0.24487 0.21805 0.0
H1588 H 0.94326 0.22722 0.18719 0.0
H1589 H 0.93917 0.22922 0.25222 0.0
H1590 H 0.91168 0.21873 0.22907 0.0
H1591 H 0.91567 0.21657 0.16436 0.0
H1592 H 0.90689 0.22718 0.1786 0.0
H1593 H 0.9422 0.28169 0.11982 0.0
H1594 H 0.94205 0.27289 0.03313 0.0
H1595 H 0.93218 0.2304 0.09241 0.0
C1596 C 0.92432 0.24749 0.28059 0.0
C1597 C 0.92276 0.25877 0.30377 0.0
C1598 C 0.92707 0.27202 0.27722 0.0
C1599 C 0.93281 0.27402 0.22805 0.0
C1600 C 0.9341 0.26265 0.20603 0.0
C1601 C 0.92985 0.24957 0.23113 0.0
C1602 C 0.93049 0.23838 0.19639 0.0
C1603 C 0.94222 0.23471 0.21456 0.0
C1604 C 0.91528 0.2244 0.19183 0.0
C1605 C 0.93509 0.24698 0.14715 0.0
C1606 C 0.93753 0.26111 0.15418 0.0
C1607 C 0.94056 0.27076 0.11391 0.0
C1608 C 0.94043 0.26567 0.06488 0.0
C1609 C 0.93721 0.25104 0.05652 0.0
C1610 C 0.93506 0.24174 0.09817 0.0
H1611 H 0.75659 0.65097 0.27887 0.0
H1612 H 0.77339 0.69379 0.34977 0.0
H1613 H 0.77694 0.70522 0.26565 0.0
H1614 H 0.78161 0.66239 0.1814 0.0
H1615 H 0.76901 0.65049 0.13352 0.0
H1616 H 0.76562 0.64524 0.19921 0.0
H1617 H 0.73975 0.64266 0.19298 0.0
H1618 H 0.743 0.64779 0.12695 0.0
H1619 H 0.73801 0.65791 0.17008 0.0
H1620 H 0.78166 0.71249 0.174 0.0
H1621 H 0.78641 0.71469 0.08152 0.0
H1622 H 0.76631 0.66715 0.07166 0.0
C1623 C 0.76067 0.66269 0.27681 0.0
C1624 C 0.76476 0.67145 0.32095 0.0
C1625 C 0.77024 0.68681 0.3165 0.0
C1626 C 0.77224 0.69344 0.26886 0.0
C1627 C 0.76857 0.68456 0.22604 0.0
C1628 C 0.76274 0.66949 0.22956 0.0
C1629 C 0.7608 0.66261 0.17775 0.0
C1630 C 0.7698 0.65473 0.1727 0.0
C1631 C 0.74441 0.65212 0.16627 0.0
C1632 C 0.76701 0.67622 0.14488 0.0
C1633 C 0.77125 0.68876 0.17321 0.0
C1634 C 0.77816 0.70272 0.15121 0.0
C1635 C 0.78088 0.70387 0.09875 0.0
C1636 C 0.77677 0.69112 0.06925 0.0
C1637 C 0.76956 0.67715 0.09285 0.0
H1638 H 0.93492 0.69651 0.05328 0.0
H1639 H 0.91642 0.65341 0.9831 0.0
H1640 H 0.91221 0.64198 0.06755 0.0
H1641 H 0.95239 0.68865 0.16299 0.0
H1642 H 0.94796 0.69936 0.20542 0.0
H1643 H 0.95151 0.70431 0.13931 0.0
H1644 H 0.92619 0.70296 0.13216 0.0
H1645 H 0.9225 0.69787 0.19791 0.0
H1646 H 0.90972 0.68624 0.14993 0.0
H1647 H 0.90727 0.63495 0.15949 0.0
H1648 H 0.90261 0.63311 0.25198 0.0
H1649 H 0.9243 0.68079 0.26072 0.0
C1650 C 0.93031 0.68471 0.05555 0.0
C1651 C 0.92596 0.67588 0.01154 0.0
C1652 C 0.9198 0.66044 0.01628 0.0
C1653 C 0.91741 0.65382 0.0641 0.0
C1654 C 0.92136 0.66279 0.10677 0.0
C1655 C 0.92782 0.67792 0.10294 0.0
C1656 C 0.92997 0.68497 0.15453 0.0
C1657 C 0.94644 0.69491 0.16625 0.0
C1658 C 0.92159 0.6935 0.15885 0.0
C1659 C 0.92317 0.67141 0.18769 0.0
C1660 C 0.91846 0.65872 0.15968 0.0
C1661 C 0.9111 0.64482 0.18201 0.0
C1662 C 0.90845 0.64388 0.23448 0.0
C1663 C 0.91303 0.65679 0.26366 0.0
C1664 C 0.92064 0.67068 0.23971 0.0
H1665 H 0.31593 0.22508 0.08915 0.0
H1666 H 0.34763 0.26707 0.02386 0.0
H1667 H 0.35695 0.27687 0.10912 0.0
H1668 H 0.30995 0.24064 0.21251 0.0
H1669 H 0.30872 0.2255 0.2487 0.0
H1670 H 0.30237 0.2227 0.1839 0.0
H1671 H 0.31955 0.21231 0.16277 0.0
H1672 H 0.32619 0.21534 0.22702 0.0
H1673 H 0.33901 0.22338 0.17519 0.0
H1674 H 0.36612 0.28057 0.19666 0.0
H1675 H 0.37286 0.27888 0.28509 0.0
H1676 H 0.33508 0.23483 0.29628 0.0
C1677 C 0.32436 0.23651 0.09333 0.0
C1678 C 0.33102 0.24541 0.05039 0.0
C1679 C 0.34239 0.26016 0.05664 0.0
C1680 C 0.34774 0.26583 0.10483 0.0
C1681 C 0.34153 0.25661 0.14642 0.0
C1682 C 0.32991 0.24235 0.14152 0.0
C1683 C 0.32635 0.23437 0.19204 0.0
C1684 C 0.31093 0.23058 0.21037 0.0
C1685 C 0.32787 0.22054 0.18904 0.0
C1686 C 0.33825 0.24612 0.22511 0.0
C1687 C 0.34678 0.25889 0.19805 0.0
C1688 C 0.3593 0.27079 0.21877 0.0
C1689 C 0.36313 0.26968 0.26878 0.0
C1690 C 0.35442 0.25679 0.29748 0.0
C1691 C 0.34176 0.24493 0.27542 0.0
H1692 H 0.79051 0.08885 0.07671 0.0
H1693 H 0.74949 0.08218 0.01304 0.0
H1694 H 0.73996 0.08153 0.09888 0.0
H1695 H 0.77357 0.06656 0.1986 0.0
H1696 H 0.78926 0.07943 0.23534 0.0
H1697 H 0.7916 0.07591 0.16999 0.0
H1698 H 0.80403 0.10381 0.15118 0.0
H1699 H 0.80148 0.10742 0.21594 0.0
H1700 H 0.79425 0.11346 0.16516 0.0
H1701 H 0.73695 0.087 0.18722 0.0
H1702 H 0.73961 0.09562 0.27578 0.0
H1703 H 0.78219 0.09822 0.2846 0.0
C1704 C 0.77929 0.08657 0.08122 0.0
C1705 C 0.77068 0.08549 0.0386 0.0
C1706 C 0.75622 0.083 0.04547 0.0
C1707 C 0.75069 0.08257 0.09403 0.0
C1708 C 0.75972 0.08452 0.13537 0.0
C1709 C 0.7736 0.08617 0.12976 0.0
C1710 C 0.78161 0.08973 0.18018 0.0
C1711 C 0.78416 0.07716 0.19702 0.0
C1712 C 0.7962 0.10448 0.17794 0.0
C1713 C 0.77044 0.09072 0.21399 0.0
C1714 C 0.75781 0.08748 0.18747 0.0
C1715 C 0.74658 0.08915 0.20892 0.0
C1716 C 0.74825 0.0942 0.259 0.0
C1717 C 0.76104 0.09745 0.28701 0.0
C1718 C 0.77216 0.09551 0.26432 0.0
H1719 H 0.68803 0.91706 0.71899 0.0
H1720 H 0.64148 0.90325 0.727 0.0
H1721 H 0.64431 0.90961 0.81824 0.0
H1722 H 0.69017 0.90226 0.83399 0.0
H1723 H 0.70835 0.91699 0.84966 0.0
H1724 H 0.70291 0.91288 0.78431 0.0
H1725 H 0.7093 0.93988 0.76981 0.0
H1726 H 0.71471 0.94407 0.83535 0.0
H1727 H 0.70093 0.9477 0.80944 0.0
H1728 H 0.65181 0.91539 0.90947 0.0
H1729 H 0.66303 0.91928 0.99424 0.0
H1730 H 0.70472 0.92942 0.92542 0.0
C1731 C 0.67841 0.9155 0.73955 0.0
C1732 C 0.66451 0.90962 0.71577 0.0
C1733 C 0.65224 0.90773 0.74438 0.0
C1734 C 0.65376 0.91139 0.79611 0.0
C1735 C 0.66762 0.91703 0.8183 0.0
C1736 C 0.67973 0.91911 0.79084 0.0
C1737 C 0.69319 0.92437 0.82407 0.0
C1738 C 0.69899 0.91347 0.82294 0.0
C1739 C 0.70525 0.93993 0.80875 0.0
C1740 C 0.68666 0.92444 0.87508 0.0
C1741 C 0.67196 0.92039 0.87084 0.0
C1742 C 0.66334 0.91873 0.91319 0.0
C1743 C 0.66983 0.92092 0.96118 0.0
C1744 C 0.68476 0.92463 0.96644 0.0
C1745 C 0.69334 0.92677 0.92265 0.0
H1746 H 0.10699 0.77708 0.70975 0.0
H1747 H 0.10483 0.73474 0.719 0.0
H1748 H 0.09603 0.73199 0.8074 0.0
H1749 H 0.12165 0.78892 0.83055 0.0
H1750 H 0.11183 0.7986 0.84349 0.0
H1751 H 0.11592 0.79623 0.77908 0.0
H1752 H 0.08818 0.78397 0.75681 0.0
H1753 H 0.084 0.78615 0.82152 0.0
H1754 H 0.07498 0.76819 0.79249 0.0
H1755 H 0.08992 0.73478 0.89571 0.0
H1756 H 0.08922 0.74395 0.98123 0.0
H1757 H 0.09539 0.78458 0.91632 0.0
C1758 C 0.10438 0.7671 0.73009 0.0
C1759 C 0.10647 0.75606 0.70747 0.0
C1760 C 0.10331 0.74333 0.73565 0.0
C1761 C 0.09817 0.74161 0.78566 0.0
C1762 C 0.09627 0.75272 0.80691 0.0
C1763 C 0.0994 0.76528 0.78024 0.0
C1764 C 0.098 0.77628 0.81371 0.0
C1765 C 0.11272 0.79086 0.8169 0.0
C1766 C 0.08554 0.77879 0.79501 0.0
C1767 C 0.09406 0.76813 0.86387 0.0
C1768 C 0.09283 0.75443 0.85867 0.0
C1769 C 0.09058 0.74535 0.90017 0.0
C1770 C 0.09018 0.75063 0.9485 0.0
C1771 C 0.09201 0.76483 0.95491 0.0
C1772 C 0.09349 0.7735 0.91204 0.0
H1773 H 0.26079 0.3519 0.92413 0.0
H1774 H 0.24146 0.30445 0.91413 0.0
H1775 H 0.24598 0.3067 0.82156 0.0
H1776 H 0.24514 0.3563 0.81487 0.0
H1777 H 0.2609 0.37358 0.79684 0.0
H1778 H 0.25771 0.36834 0.86258 0.0
H1779 H 0.2838 0.37142 0.86903 0.0
H1780 H 0.28706 0.37666 0.80311 0.0
H1781 H 0.28906 0.36154 0.82573 0.0
H1782 H 0.25071 0.31399 0.72999 0.0
H1783 H 0.25435 0.32542 0.64584 0.0
H1784 H 0.27045 0.36815 0.71673 0.0
C1785 C 0.25764 0.34194 0.90284 0.0
C1786 C 0.25074 0.32798 0.92647 0.0
C1787 C 0.24675 0.31526 0.89688 0.0
C1788 C 0.24935 0.31644 0.84438 0.0
C1789 C 0.25604 0.3304 0.8224 0.0
C1790 C 0.26015 0.34291 0.85076 0.0
C1791 C 0.26617 0.35651 0.81782 0.0
C1792 C 0.25692 0.36412 0.82335 0.0
C1793 C 0.28249 0.36716 0.82963 0.0
C1794 C 0.2643 0.34963 0.76606 0.0
C1795 C 0.25868 0.33461 0.76958 0.0
C1796 C 0.25525 0.32575 0.72678 0.0
C1797 C 0.25732 0.33238 0.67912 0.0
C1798 C 0.26265 0.34771 0.67464 0.0
C1799 C 0.26649 0.35645 0.7188 0.0
H1800 H 1.00274 0.4264 0.59599 0.0
H1801 H 0.05042 0.44773 0.58565 0.0
H1802 H 0.04832 0.4434 0.49298 0.0
H1803 H 0.99431 0.3987 0.49578 0.0
H1804 H 0.97868 0.39995 0.47394 0.0
H1805 H 0.9839 0.40306 0.53991 0.0
H1806 H 0.98565 0.42857 0.53538 0.0
H1807 H 0.98047 0.42556 0.46958 0.0
H1808 H 0.99736 0.44169 0.48831 0.0
H1809 H 0.0411 0.43888 0.40142 0.0
H1810 H 0.0296 0.43525 0.31744 0.0
H1811 H 0.98657 0.41705 0.38852 0.0
C1812 C 0.01279 0.43001 0.5746 0.0
C1813 C 0.02676 0.43745 0.59815 0.0
C1814 C 0.03959 0.44202 0.56847 0.0
C1815 C 0.0385 0.43954 0.5159 0.0
C1816 C 0.02453 0.43238 0.49396 0.0
C1817 C 1.0119 0.42763 0.52246 0.0
C1818 C 0.99827 0.42124 0.48954 0.0
C1819 C 0.9882 0.40476 0.50045 0.0
C1820 C 0.98996 0.42978 0.4961 0.0
C1821 C 1.00523 0.42368 0.43767 0.0
C1822 C 0.02035 0.42986 0.44111 0.0
C1823 C 0.02927 0.4339 0.39827 0.0
C1824 C 0.0226 0.43184 0.35071 0.0
C1825 C 1.00715 0.42592 0.34634 0.0
C1826 C 0.99837 0.4215 0.39049 0.0
H1827 H 0.58085 0.58387 0.40182 0.0
H1828 H 0.61162 0.56758 0.41101 0.0
H1829 H 0.61434 0.57284 0.50314 0.0
H1830 H 0.59891 0.61331 0.49509 0.0
H1831 H 0.58165 0.61051 0.5197 0.0
H1832 H 0.58308 0.60656 0.45407 0.0
H1833 H 0.56134 0.57995 0.46588 0.0
H1834 H 0.5598 0.58384 0.53133 0.0
H1835 H 0.56231 0.56855 0.51516 0.0
H1836 H 0.61233 0.57834 0.59456 0.0
H1837 H 0.60519 0.58271 0.67894 0.0
H1838 H 0.57578 0.59549 0.60865 0.0
C1839 C 0.58829 0.58149 0.42285 0.0
C1840 C 0.59602 0.57528 0.39911 0.0
C1841 C 0.60557 0.57232 0.42837 0.0
C1842 C 0.60724 0.57534 0.4806 0.0
C1843 C 0.59938 0.58141 0.50265 0.0
C1844 C 0.59011 0.58445 0.47464 0.0
C1845 C 0.58225 0.59018 0.50756 0.0
C1846 C 0.58675 0.60609 0.49325 0.0
C1847 C 0.56544 0.58002 0.50482 0.0
C1848 C 0.58822 0.58949 0.55897 0.0
C1849 C 0.59822 0.58458 0.55525 0.0
C1850 C 0.60462 0.5823 0.5979 0.0
C1851 C 0.60043 0.58478 0.64567 0.0
C1852 C 0.58988 0.58942 0.6504 0.0
C1853 C 0.58397 0.59211 0.60632 0.0
H1854 H 0.42564 0.98386 0.61245 0.0
H1855 H 0.44836 0.02675 0.68495 0.0
H1856 H 0.45214 0.03871 0.60166 0.0
H1857 H 0.44905 0.99294 0.50947 0.0
H1858 H 0.43498 0.98217 0.46359 0.0
H1859 H 0.43224 0.97687 0.52932 0.0
H1860 H 0.4079 0.97763 0.53012 0.0
H1861 H 0.41053 0.98288 0.46415 0.0
H1862 H 0.40802 0.99413 0.51025 0.0
H1863 H 0.45567 0.04611 0.50998 0.0
H1864 H 0.45865 0.04815 0.41667 0.0
H1865 H 0.43372 1.00048 0.40503 0.0
C1866 C 0.43113 0.99575 0.61095 0.0
C1867 C 0.43672 1.00433 0.65524 0.0
C1868 C 0.44403 0.0199 0.65152 0.0
C1869 C 0.44618 0.02683 0.60439 0.0
C1870 C 0.44087 0.01806 0.56133 0.0
C1871 C 0.43342 1.00286 0.56418 0.0
C1872 C 0.42982 0.996 0.51196 0.0
C1873 C 0.43695 0.98644 0.50309 0.0
C1874 C 0.41307 0.98714 0.50364 0.0
C1875 C 0.43688 0.00971 0.47947 0.0
C1876 C 0.443 0.02234 0.5085 0.0
C1877 C 0.45076 0.0363 0.48672 0.0
C1878 C 0.45243 0.03735 0.43375 0.0
C1879 C 0.44649 0.02449 0.40348 0.0
C1880 C 0.43843 0.01056 0.42691 0.0
H1881 H 0.5636 0.97781 0.57369 0.0
H1882 H 0.5996 0.01633 0.64463 0.0
H1883 H 0.60933 0.02694 0.56072 0.0
H1884 H 0.58496 0.9772 0.46017 0.0
H1885 H 0.56955 0.97178 0.41805 0.0
H1886 H 0.56643 0.96605 0.48356 0.0
H1887 H 0.54977 0.9776 0.49405 0.0
H1888 H 0.55294 0.98348 0.42885 0.0
H1889 H 0.55701 0.99674 0.47867 0.0
H1890 H 0.61364 0.03483 0.47188 0.0
H1891 H 0.61283 0.03928 0.38059 0.0
H1892 H 0.57413 0.99592 0.36472 0.0
C1893 C 0.57373 0.98828 0.57126 0.0
C1894 C 0.58086 0.99628 0.61542 0.0
C1895 C 0.59393 0.01009 0.6111 0.0
C1896 C 0.5996 0.01618 0.56366 0.0
C1897 C 0.5921 0.00832 0.52079 0.0
C1898 C 0.57952 0.99463 0.52382 0.0
C1899 C 0.57303 0.98918 0.47154 0.0
C1900 C 0.57353 0.97523 0.45751 0.0
C1901 C 0.55726 0.98661 0.4681 0.0
C1902 C 0.58364 1.00217 0.43928 0.0
C1903 C 0.59463 0.01298 0.46856 0.0
C1904 C 0.60524 0.02638 0.44824 0.0
C1905 C 0.60461 0.02883 0.3964 0.0
C1906 C 0.59344 0.01794 0.36545 0.0
C1907 C 0.58291 1.00439 0.38726 0.0
H1908 H 0.98625 0.57114 0.38969 0.0
H1909 H 0.0293 0.59575 0.3187 0.0
H1910 H 0.04075 0.60391 0.40263 0.0
H1911 H 0.99384 0.59755 0.49586 0.0
H1912 H 0.98337 0.58287 0.54013 0.0
H1913 H 0.97829 0.58063 0.47402 0.0
H1914 H 0.9801 0.55689 0.47073 0.0
H1915 H 0.98526 0.55909 0.53655 0.0
H1916 H 0.997 0.55765 0.48962 0.0
H1917 H 0.04793 0.60698 0.49429 0.0
H1918 H 0.04998 0.60501 0.58712 0.0
H1919 H 1.0023 0.57864 0.59725 0.0
C1920 C 0.99804 0.5785 0.39166 0.0
C1921 C 1.00685 0.58272 0.34757 0.0
C1922 C 0.02228 0.59227 0.35193 0.0
C1923 C 0.02892 0.59706 0.39945 0.0
C1924 C 0.01998 0.59234 0.44225 0.0
C1925 C 1.00486 0.5834 0.43881 0.0
C1926 C 0.99789 0.579 0.49073 0.0
C1927 C 0.98775 0.5854 0.50077 0.0
C1928 C 0.98958 0.56216 0.49726 0.0
C1929 C 1.01151 0.58632 0.52362 0.0
C1930 C 0.02414 0.59415 0.49514 0.0
C1931 C 0.0381 0.60107 0.51718 0.0
C1932 C 0.03917 0.59984 0.56985 0.0
C1933 C 0.02633 0.59165 0.59953 0.0
C1934 C 0.01236 0.58503 0.57587 0.0
H1935 H 0.44165 0.4469 0.36134 0.0
H1936 H 0.43445 0.40248 0.36928 0.0
H1937 H 0.42527 0.4002 0.45695 0.0
H1938 H 0.45629 0.4571 0.4822 0.0
H1939 H 0.44832 0.46848 0.49587 0.0
H1940 H 0.45189 0.46572 0.43126 0.0
H1941 H 0.42452 0.45626 0.4089 0.0
H1942 H 0.42084 0.45884 0.47383 0.0
H1943 H 0.41024 0.4411 0.44407 0.0
H1944 H 0.41938 0.40338 0.54442 0.0
H1945 H 0.41999 0.41275 0.63053 0.0
H1946 H 0.43157 0.45547 0.56876 0.0
C1947 C 0.43783 0.4366 0.3813 0.0
C1948 C 0.43861 0.42481 0.35863 0.0
C1949 C 0.43393 0.41163 0.38612 0.0
C1950 C 0.42855 0.41018 0.43564 0.0
C1951 C 0.42799 0.42203 0.45708 0.0
C1952 C 0.43264 0.43506 0.43111 0.0
C1953 C 0.43269 0.44673 0.46521 0.0
C1954 C 0.44822 0.4603 0.46886 0.0
C1955 C 0.4214 0.45098 0.4469 0.0
C1956 C 0.42794 0.43841 0.515 0.0
C1957 C 0.42488 0.42405 0.50885 0.0
C1958 C 0.42151 0.4145 0.54967 0.0
C1959 C 0.4219 0.41992 0.59835 0.0
C1960 C 0.4257 0.43476 0.60584 0.0
C1961 C 0.42825 0.44399 0.56365 0.0
H1962 H 0.09141 0.31425 0.25924 0.0
H1963 H 0.11307 0.35104 0.15474 0.0
H1964 H 0.12315 0.36811 0.22611 0.0
H1965 H 0.08079 0.33274 0.34808 0.0
H1966 H 0.08394 0.32471 0.40375 0.0
H1967 H 0.07924 0.31486 0.3445 0.0
H1968 H 0.10282 0.31279 0.3497 0.0
H1969 H 0.10758 0.32263 0.40908 0.0
H1970 H 0.12047 0.32923 0.35705 0.0
H1971 H 0.13003 0.38165 0.30733 0.0
H1972 H 0.13293 0.39075 0.39542 0.0
H1973 H 0.10671 0.34578 0.44899 0.0
C1974 C 0.09843 0.32587 0.25156 0.0
C1975 C 0.10152 0.33122 0.20121 0.0
C1976 C 0.11059 0.34656 0.19275 0.0
C1977 C 0.11642 0.35643 0.23314 0.0
C1978 C 0.11309 0.35089 0.28214 0.0
C1979 C 0.10432 0.336 0.29178 0.0
C1980 C 0.10194 0.3332 0.34842 0.0
C1981 C 0.0855 0.32595 0.36196 0.0
C1982 C 0.1086 0.32391 0.36716 0.0
C1983 C 0.1105 0.34884 0.36854 0.0
C1984 C 0.11695 0.35883 0.32959 0.0
C1985 C 0.12512 0.37394 0.33834 0.0
C1986 C 0.1267 0.37901 0.38843 0.0
C1987 C 0.12007 0.36899 0.42896 0.0
C1988 C 0.11196 0.35371 0.41876 0.0
H1989 H 0.67408 0.7622 0.4321 0.0
H1990 H 0.62879 0.74092 0.37971 0.0
H1991 H 0.63771 0.74644 0.29082 0.0
H1992 H 0.68906 0.7915 0.33912 0.0
H1993 H 0.70612 0.79135 0.33313 0.0
H1994 H 0.69611 0.78605 0.39217 0.0
H1995 H 0.69558 0.7611 0.38921 0.0
H1996 H 0.70555 0.7663 0.33015 0.0
H1997 H 0.6881 0.74946 0.3342 0.0
H1998 H 0.6516 0.75362 0.20849 0.0
H1999 H 0.66917 0.76188 0.13767 0.0
H2000 H 0.70563 0.77882 0.24415 0.0
C2001 C 0.66599 0.75875 0.40205 0.0
C2002 C 0.65071 0.75114 0.41272 0.0
C2003 C 0.64052 0.74677 0.37229 0.0
C2004 C 0.6455 0.74988 0.32183 0.0
C2005 C 0.66066 0.75738 0.31277 0.0
C2006 C 0.67074 0.76179 0.35179 0.0
C2007 C 0.68643 0.76948 0.33204 0.0
C2008 C 0.69493 0.78555 0.35019 0.0
C2009 C 0.69438 0.76108 0.3473 0.0
C2010 C 0.68364 0.76857 0.27548 0.0
C2011 C 0.66869 0.76159 0.26533 0.0
C2012 C 0.66331 0.75916 0.21602 0.0
C2013 C 0.67344 0.76392 0.17602 0.0
C2014 C 0.68882 0.77107 0.18533 0.0
C2015 C 0.69397 0.77347 0.23584 0.0
H2016 H 0.23853 0.92869 0.25225 0.0
H2017 H 0.25017 0.9043 0.147 0.0
H2018 H 0.25794 0.89463 0.21831 0.0
H2019 H 0.26857 0.93937 0.33477 0.0
H2020 H 0.25841 0.93746 0.39218 0.0
H2021 H 0.2526 0.94159 0.33322 0.0
H2022 H 0.22665 0.91872 0.34431 0.0
H2023 H 0.23237 0.91457 0.40354 0.0
H2024 H 0.2249 0.90091 0.35404 0.0
H2025 H 0.26636 0.88909 0.30084 0.0
H2026 H 0.27357 0.88736 0.38922 0.0
H2027 H 0.25609 0.91498 0.43969 0.0
C2028 C 0.24246 0.92111 0.24436 0.0
C2029 C 0.2437 0.91724 0.1941 0.0
C2030 C 0.24908 0.90742 0.18523 0.0
C2031 C 0.25354 0.90185 0.2255 0.0
C2032 C 0.25249 0.90611 0.27455 0.0
C2033 C 0.24696 0.91541 0.28421 0.0
C2034 C 0.24751 0.9187 0.3403 0.0
C2035 C 0.25736 0.93526 0.3507 0.0
C2036 C 0.23193 0.91288 0.3618 0.0
C2037 C 0.25441 0.91001 0.36034 0.0
C2038 C 0.25719 0.90279 0.32197 0.0
C2039 C 0.26408 0.89456 0.33137 0.0
C2040 C 0.26818 0.89366 0.3815 0.0
C2041 C 0.26532 0.90094 0.42123 0.0
C2042 C 0.2583 0.90915 0.41023 0.0
H2043 H 0.3466 0.10716 0.533 0.0
H2044 H 0.385 0.10443 0.57747 0.0
H2045 H 0.37328 0.09368 0.65959 0.0
H2046 H 0.34121 0.11861 0.6565 0.0
H2047 H 0.3214 0.10873 0.65259 0.0
H2048 H 0.33227 0.11516 0.59556 0.0
H2049 H 0.31872 0.08861 0.5599 0.0
H2050 H 0.30797 0.08207 0.61723 0.0
H2051 H 0.31867 0.07397 0.59587 0.0
H2052 H 0.35803 0.08344 0.73516 0.0
H2053 H 0.34163 0.07778 0.80849 0.0
H2054 H 0.31308 0.08826 0.72057 0.0
C2055 C 0.35245 0.10421 0.56012 0.0
C2056 C 0.36664 0.10647 0.549 0.0
C2057 C 0.37415 0.10279 0.58545 0.0
C2058 C 0.36752 0.09656 0.63192 0.0
C2059 C 0.35348 0.09431 0.64165 0.0
C2060 C 0.34612 0.0983 0.6075 0.0
C2061 C 0.33167 0.09584 0.62991 0.0
C2062 C 0.33164 0.11045 0.63388 0.0
C2063 C 0.31848 0.08444 0.59887 0.0
C2064 C 0.33214 0.08988 0.68204 0.0
C2065 C 0.34475 0.08888 0.68715 0.0
C2066 C 0.34813 0.08416 0.73173 0.0
C2067 C 0.33871 0.08094 0.77309 0.0
C2068 C 0.32608 0.0825 0.76998 0.0
C2069 C 0.3225 0.08668 0.72349 0.0
H2070 H 0.93833 0.23585 0.73744 0.0
H2071 H 0.91636 0.2507 0.84185 0.0
H2072 H 0.90544 0.25673 0.77051 0.0
H2073 H 0.94763 0.26425 0.6467 0.0
H2074 H 0.94455 0.25285 0.59172 0.0
H2075 H 0.94982 0.2483 0.65106 0.0
H2076 H 0.92673 0.2223 0.64795 0.0
H2077 H 0.92139 0.22677 0.58853 0.0
H2078 H 0.90877 0.22046 0.64133 0.0
H2079 H 0.89772 0.26245 0.68936 0.0
H2080 H 0.89418 0.26803 0.6012 0.0
H2081 H 0.92128 0.25025 0.54736 0.0
C2082 C 0.93107 0.24018 0.74513 0.0
C2083 C 0.92812 0.24263 0.79546 0.0
C2084 C 0.91873 0.24855 0.80389 0.0
C2085 C 0.91242 0.25204 0.76351 0.0
C2086 C 0.9156 0.24964 0.71452 0.0
C2087 C 0.9247 0.24389 0.70488 0.0
C2088 C 0.92685 0.24323 0.64817 0.0
C2089 C 0.94318 0.25273 0.63357 0.0
C2090 C 0.92056 0.22723 0.63046 0.0
C2091 C 0.91778 0.24975 0.628 0.0
C2092 C 0.91127 0.25322 0.66703 0.0
C2093 C 0.90267 0.25971 0.65829 0.0
C2094 C 0.90073 0.26286 0.60815 0.0
C2095 C 0.90744 0.25958 0.56751 0.0
C2096 C 0.91597 0.25283 0.57768 0.0
H2097 H 0.78456 0.70324 0.74426 0.0
H2098 H 0.76909 0.66682 0.85038 0.0
H2099 H 0.76119 0.64936 0.77947 0.0
H2100 H 0.75498 0.68514 0.65694 0.0
H2101 H 0.76615 0.69291 0.60105 0.0
H2102 H 0.77158 0.70282 0.66015 0.0
H2103 H 0.79694 0.70423 0.65447 0.0
H2104 H 0.79158 0.69433 0.59525 0.0
H2105 H 0.79768 0.68753 0.64718 0.0
H2106 H 0.75395 0.6355 0.69713 0.0
H2107 H 0.74793 0.62659 0.60836 0.0
H2108 H 0.76762 0.6718 0.55646 0.0
C2109 C 0.77966 0.69161 0.75245 0.0
C2110 C 0.77755 0.68645 0.8029 0.0
C2111 C 0.77093 0.67111 0.81209 0.0
C2112 C 0.76638 0.66104 0.77202 0.0
C2113 C 0.76847 0.66642 0.72277 0.0
C2114 C 0.77496 0.68134 0.71273 0.0
C2115 C 0.77538 0.68411 0.65625 0.0
C2116 C 0.76649 0.69169 0.64283 0.0
C2117 C 0.79135 0.69308 0.63718 0.0
C2118 C 0.76796 0.66847 0.63649 0.0
C2119 C 0.76414 0.65841 0.67535 0.0
C2120 C 0.75694 0.64327 0.66623 0.0
C2121 C 0.75355 0.6383 0.61585 0.0
C2122 C 0.75731 0.64847 0.5756 0.0
C2123 C 0.76464 0.66371 0.58635 0.0
H2124 H 0.90658 0.64605 0.58822 0.0
H2125 H 0.92504 0.68251 0.4818 0.0
H2126 H 0.93312 0.70006 0.55277 0.0
H2127 H 0.89376 0.66312 0.68064 0.0
H2128 H 0.89843 0.65564 0.7344 0.0
H2129 H 0.89339 0.64582 0.67501 0.0
H2130 H 0.91797 0.64551 0.67443 0.0
H2131 H 0.92305 0.65528 0.73381 0.0
H2132 H 0.93513 0.66261 0.67976 0.0
H2133 H 0.9402 0.7139 0.63595 0.0
H2134 H 0.94567 0.72251 0.7253 0.0
H2135 H 0.92271 0.67707 0.77599 0.0
C2136 C 0.91223 0.65771 0.57993 0.0
C2137 C 0.91513 0.66288 0.5295 0.0
C2138 C 0.92262 0.67825 0.52017 0.0
C2139 C 0.92727 0.68836 0.56022 0.0
C2140 C 0.92433 0.68295 0.60954 0.0
C2141 C 0.91696 0.66799 0.61956 0.0
C2142 C 0.91557 0.6651 0.67604 0.0
C2143 C 0.89932 0.65694 0.69247 0.0
C2144 C 0.9234 0.65663 0.69192 0.0
C2145 C 0.92353 0.68072 0.69596 0.0
C2146 C 0.92842 0.6909 0.65719 0.0
C2147 C 0.93635 0.70602 0.66674 0.0
C2148 C 0.93942 0.71083 0.71745 0.0
C2149 C 0.93461 0.7005 0.75754 0.0
C2150 C 0.9265 0.6853 0.74631 0.0
H2151 H 0.31465 0.23451 0.73221 0.0
H2152 H 0.3511 0.247 0.83656 0.0
H2153 H 0.36831 0.25468 0.76531 0.0
H2154 H 0.32916 0.22107 0.63066 0.0
H2155 H 0.32299 0.22833 0.58035 0.0
H2156 H 0.313 0.22275 0.63944 0.0
H2157 H 0.31589 0.24863 0.6492 0.0
H2158 H 0.32591 0.25429 0.59028 0.0
H2159 H 0.33403 0.26464 0.64742 0.0
H2160 H 0.38205 0.26232 0.68473 0.0
H2161 H 0.39142 0.26917 0.59721 0.0
H2162 H 0.34669 0.25213 0.54297 0.0
C2163 C 0.32621 0.23869 0.73985 0.0
C2164 C 0.33144 0.24004 0.79014 0.0
C2165 C 0.34672 0.24573 0.79856 0.0
C2166 C 0.35666 0.25017 0.75825 0.0
C2167 C 0.35126 0.24889 0.70936 0.0
C2168 C 0.33643 0.24327 0.69968 0.0
C2169 C 0.3338 0.24365 0.64319 0.0
C2170 C 0.32416 0.22802 0.62218 0.0
C2171 C 0.32701 0.25339 0.63188 0.0
C2172 C 0.34947 0.25057 0.62325 0.0
C2173 C 0.35933 0.25341 0.66217 0.0
C2174 C 0.37445 0.26007 0.65372 0.0
C2175 C 0.37968 0.26395 0.60395 0.0
C2176 C 0.36981 0.26118 0.56336 0.0
C2177 C 0.3545 0.25435 0.57325 0.0
H2178 H 0.78465 0.08155 0.72293 0.0
H2179 H 0.7812 0.11278 0.82183 0.0
H2180 H 0.77485 0.12305 0.74933 0.0
H2181 H 0.79938 0.10631 0.61059 0.0
H2182 H 0.78873 0.0917 0.56634 0.0
H2183 H 0.79474 0.0877 0.62528 0.0
H2184 H 0.76773 0.0684 0.64682 0.0
H2185 H 0.76162 0.07243 0.58828 0.0
H2186 H 0.75394 0.07388 0.64775 0.0
H2187 H 0.76653 0.12857 0.669 0.0
H2188 H 0.75774 0.12962 0.583 0.0
H2189 H 0.76633 0.09511 0.53408 0.0
C2190 C 0.7829 0.09077 0.72893 0.0
C2191 C 0.78351 0.09638 0.7782 0.0
C2192 C 0.78082 0.10825 0.78473 0.0
C2193 C 0.77722 0.11423 0.74362 0.0
C2194 C 0.77627 0.10823 0.69589 0.0
C2195 C 0.77912 0.09685 0.688 0.0
C2196 C 0.77637 0.09191 0.633 0.0
C2197 C 0.79066 0.09457 0.60729 0.0
C2198 C 0.76419 0.0757 0.62874 0.0
C2199 C 0.7713 0.10211 0.6119 0.0
C2200 C 0.7714 0.11147 0.64888 0.0
C2201 C 0.76656 0.12143 0.63941 0.0
C2202 C 0.76151 0.1219 0.59059 0.0
C2203 C 0.7614 0.1125 0.55196 0.0
C2204 C 0.76641 0.10253 0.56283 0.0
H2205 H 0.68385 0.92293 0.20473 0.0
H2206 H 0.72829 0.93622 0.25384 0.0
H2207 H 0.71909 0.92852 0.34162 0.0
H2208 H 0.67326 0.93531 0.31366 0.0
H2209 H 0.65457 0.92019 0.31364 0.0
H2210 H 0.66466 0.92627 0.25497 0.0
H2211 H 0.65972 0.89985 0.23804 0.0
H2212 H 0.64966 0.89369 0.29683 0.0
H2213 H 0.665 0.89086 0.28498 0.0
H2214 H 0.70507 0.91995 0.42359 0.0
H2215 H 0.68771 0.91211 0.49509 0.0
H2216 H 0.65224 0.90426 0.39188 0.0
C2217 C 0.69168 0.92418 0.23383 0.0
C2218 C 0.7068 0.93014 0.22258 0.0
C2219 C 0.71668 0.93169 0.26176 0.0
C2220 C 0.71154 0.9273 0.31155 0.0
C2221 C 0.69652 0.92139 0.32117 0.0
C2222 C 0.68675 0.91987 0.2834 0.0
C2223 C 0.67124 0.91361 0.30374 0.0
C2224 C 0.66561 0.9245 0.29605 0.0
C2225 C 0.66079 0.89861 0.27945 0.0
C2226 C 0.67378 0.91199 0.35926 0.0
C2227 C 0.68843 0.91644 0.36835 0.0
C2228 C 0.69359 0.91638 0.41685 0.0
C2229 C 0.68359 0.91188 0.45724 0.0
C2230 C 0.66858 0.90752 0.44904 0.0
C2231 C 0.6636 0.90739 0.39923 0.0
H2232 H 0.10354 0.76218 0.46034 0.0
H2233 H 0.13667 0.75194 0.40805 0.0
H2234 H 0.13511 0.76038 0.32198 0.0
H2235 H 0.08113 0.74946 0.35036 0.0
H2236 H 0.07612 0.76358 0.35105 0.0
H2237 H 0.08069 0.7579 0.40945 0.0
H2238 H 0.10072 0.78486 0.42762 0.0
H2239 H 0.09625 0.79063 0.36906 0.0
H2240 H 0.11489 0.79485 0.38111 0.0
H2241 H 0.12939 0.76882 0.24201 0.0
H2242 H 0.11877 0.77515 0.17024 0.0
H2243 H 0.08867 0.77963 0.27208 0.0
C2244 C 0.11057 0.76186 0.43085 0.0
C2245 C 0.1203 0.75647 0.44084 0.0
C2246 C 0.12917 0.75603 0.40121 0.0
C2247 C 0.12841 0.76088 0.35232 0.0
C2248 C 0.11869 0.76609 0.3437 0.0
C2249 C 0.10985 0.76654 0.38166 0.0
C2250 C 0.09971 0.77181 0.36131 0.0
C2251 C 0.08345 0.75998 0.36846 0.0
C2252 C 0.1031 0.78641 0.38626 0.0
C2253 C 0.10403 0.77396 0.30566 0.0
C2254 C 0.11516 0.77078 0.29679 0.0
C2255 C 0.12074 0.77141 0.24849 0.0
C2256 C 0.11459 0.77503 0.20787 0.0
C2257 C 0.10288 0.77794 0.2154 0.0
C2258 C 0.09772 0.77766 0.26521 0.0
H2259 H 0.2438 0.31586 0.25111 0.0
H2260 H 0.26239 0.35235 0.14473 0.0
H2261 H 0.26989 0.36986 0.21543 0.0
H2262 H 0.23018 0.33248 0.34185 0.0
H2263 H 0.23486 0.32531 0.39646 0.0
H2264 H 0.2303 0.3154 0.33727 0.0
H2265 H 0.2552 0.31575 0.33875 0.0
H2266 H 0.25981 0.32561 0.39798 0.0
H2267 H 0.2721 0.33309 0.34453 0.0
H2268 H 0.27601 0.3837 0.29769 0.0
H2269 H 0.28074 0.39257 0.38672 0.0
H2270 H 0.25862 0.34728 0.43906 0.0
C2271 C 0.24938 0.32752 0.2428 0.0
C2272 C 0.25242 0.33269 0.19235 0.0
C2273 C 0.25983 0.34807 0.18303 0.0
C2274 C 0.26415 0.35816 0.22295 0.0
C2275 C 0.26103 0.35276 0.27221 0.0
C2276 C 0.25384 0.33782 0.2824 0.0
C2277 C 0.25225 0.33501 0.33899 0.0
C2278 C 0.23593 0.32655 0.35454 0.0
C2279 C 0.26032 0.32689 0.35605 0.0
C2280 C 0.25981 0.35067 0.35869 0.0
C2281 C 0.2647 0.36077 0.31965 0.0
C2282 C 0.27219 0.37591 0.32872 0.0
C2283 C 0.27483 0.38085 0.37926 0.0
C2284 C 0.27005 0.37065 0.41972 0.0
C2285 C 0.26238 0.3554 0.40901 0.0
H2286 H 0.03871 0.4443 0.92278 0.0
H2287 H 1.00216 0.4267 0.81658 0.0
H2288 H 0.98465 0.41878 0.88749 0.0
H2289 H 0.02139 0.41535 0.01357 0.0
H2290 H 0.02893 0.42716 0.0681 0.0
H2291 H 0.03879 0.43222 0.00883 0.0
H2292 H 0.03928 0.45717 0.01051 0.0
H2293 H 0.0294 0.45216 0.06982 0.0
H2294 H 0.02223 0.45733 0.01641 0.0
H2295 H 0.97082 0.41207 0.96997 0.0
H2296 H 0.962 0.40682 0.05901 0.0
H2297 H 1.00735 0.42829 0.11087 0.0
C2298 C 0.02704 0.43888 0.91455 0.0
C2299 C 0.02185 0.43622 0.86411 0.0
C2300 C 1.00646 0.42897 0.85488 0.0
C2301 C 0.99637 0.4244 0.89493 0.0
C2302 C 1.00179 0.42711 0.94419 0.0
C2303 C 0.01675 0.43416 0.95425 0.0
C2304 C 0.01958 0.43528 0.01081 0.0
C2305 C 0.02765 0.42701 0.02621 0.0
C2306 C 0.02813 0.45145 0.02788 0.0
C2307 C 1.00392 0.42763 0.03062 0.0
C2308 C 0.9938 0.42308 0.9917 0.0
C2309 C 0.97864 0.41561 0.0009 0.0
C2310 C 0.97372 0.41267 0.05145 0.0
C2311 C 0.98396 0.41714 0.09177 0.0
C2312 C 0.99922 0.42475 0.08093 0.0
H2313 H 0.6039 0.57137 0.07484 0.0
H2314 H 0.58273 0.58663 0.18105 0.0
H2315 H 0.5733 0.59471 0.11012 0.0
H2316 H 0.61532 0.601 0.98693 0.0
H2317 H 0.61191 0.58976 0.93129 0.0
H2318 H 0.61653 0.58448 0.99047 0.0
H2319 H 0.59267 0.55908 0.98547 0.0
H2320 H 0.58798 0.56428 0.92623 0.0
H2321 H 0.57516 0.55823 0.97844 0.0
H2322 H 0.56658 0.60184 0.02774 0.0
H2323 H 0.56334 0.60748 0.93888 0.0
H2324 H 0.58903 0.58794 0.88693 0.0
C2325 C 0.5972 0.57632 0.08305 0.0
C2326 C 0.59403 0.5783 0.1335 0.0
C2327 C 0.58529 0.58492 0.14272 0.0
C2328 C 0.57985 0.58957 0.10267 0.0
C2329 C 0.58323 0.58755 0.05342 0.0
C2330 C 0.59168 0.58108 0.04336 0.0
C2331 C 0.59396 0.58057 0.98686 0.0
C2332 C 0.61041 0.58949 0.9731 0.0
C2333 C 0.58702 0.56459 0.96816 0.0
C2334 C 0.58562 0.58788 0.96709 0.0
C2335 C 0.57943 0.59176 0.00597 0.0
C2336 C 0.57134 0.59881 -0.00317 0.0
C2337 C 0.56956 0.60199 0.94639 0.0
C2338 C 0.5759 0.59815 0.9061 0.0
C2339 C 0.58399 0.59099 0.91686 0.0
H2340 H 0.45323 0.03546 0.07906 0.0
H2341 H 0.43031 0.99921 0.18469 0.0
H2342 H 0.42255 0.98158 0.11408 0.0
H2343 H 0.4266 0.02029 0.97946 0.0
H2344 H 0.44003 0.02688 0.92908 0.0
H2345 H 0.44419 0.03672 0.98828 0.0
H2346 H 0.46767 0.03457 -0.00255 0.0
H2347 H 0.46352 0.02463 0.93838 0.0
H2348 H 0.46611 0.01667 0.9953 0.0
H2349 H 0.41648 0.96774 0.03172 0.0
H2350 H 0.41244 0.959 0.94257 0.0
H2351 H 0.43959 1.00408 0.89136 0.0
C2352 C 0.4466 0.02382 0.08722 0.0
C2353 C 0.44239 0.01873 0.13735 0.0
C2354 C 0.43372 1.0034 0.14657 0.0
C2355 C 0.42925 0.99325 0.10673 0.0
C2356 C 0.43359 0.99858 0.05777 0.0
C2357 C 0.44207 0.01349 0.04779 0.0
C2358 C 0.445 0.01626 0.99152 0.0
C2359 C 0.43857 0.02559 0.97089 0.0
C2360 C 0.46156 0.02346 0.98 0.0
C2361 C 0.43666 1.00064 0.97163 0.0
C2362 C 0.4302 0.99057 0.01038 0.0
C2363 C 0.42156 0.97551 0.00096 0.0
C2364 C 0.41934 0.97063 0.95036 0.0
C2365 C 0.42573 0.98083 0.91018 0.0
C2366 C 0.43462 0.99598 0.92126 0.0
H2367 H 0.5675 0.97363 0.92756 0.0
H2368 H 0.59711 0.00827 0.82494 0.0
H2369 H 0.60738 0.02544 0.89599 0.0
H2370 H 0.55991 0.99678 0.00656 0.0
H2371 H 0.55969 0.98804 0.06568 0.0
H2372 H 0.55485 0.97764 0.00748 0.0
H2373 H 0.5749 0.9706 0.02391 0.0
H2374 H 0.57969 0.98084 0.08246 0.0
H2375 H 0.59363 0.98491 0.03511 0.0
H2376 H 0.61339 0.03959 0.97428 0.0
H2377 H 0.61645 0.0497 0.0606 0.0
H2378 H 0.58396 1.00657 0.11667 0.0
C2379 C 0.57631 0.98475 0.92049 0.0
C2380 C 0.58144 0.98961 0.87061 0.0
C2381 C 0.59287 1.00431 0.86267 0.0
C2382 C 0.59884 0.01419 0.90281 0.0
C2383 C 0.59334 0.0093 0.95111 0.0
C2384 C 0.58247 0.99494 0.96064 0.0
C2385 C 0.57849 0.99295 0.01673 0.0
C2386 C 0.56227 0.98859 0.02455 0.0
C2387 C 0.58189 0.98165 0.04098 0.0
C2388 C 0.58879 0.0084 0.03648 0.0
C2389 C 0.59714 0.01761 -0.00237 0.0
C2390 C 0.60705 0.03249 0.00533 0.0
C2391 C 0.60865 0.03816 0.05441 0.0
C2392 C 0.60052 0.02893 0.09524 0.0
C2393 C 0.59042 0.01385 0.08612 0.0
H2394 H 0.03821 0.59614 0.92427 0.0
H2395 H 1.00165 0.57797 0.81809 0.0
H2396 H 0.98414 0.56802 0.88894 0.0
H2397 H 0.02164 0.56608 0.01585 0.0
H2398 H 0.02885 0.57808 0.07007 0.0
H2399 H 0.03873 0.58325 0.01076 0.0
H2400 H 0.03837 0.60777 0.0114 0.0
H2401 H 0.02852 0.60268 0.07071 0.0
H2402 H 0.02101 0.60734 0.01699 0.0
H2403 H 0.97032 0.56051 0.97143 0.0
H2404 H 0.96152 0.55662 0.06056 0.0
H2405 H 1.00689 0.57995 0.11234 0.0
C2406 C 0.02654 0.58999 0.91603 0.0
C2407 C 0.02135 0.58779 0.86561 0.0
C2408 C 1.00595 0.57976 0.85637 0.0
C2409 C 0.99586 0.57403 0.89638 0.0
C2410 C 1.00129 0.57641 0.94561 0.0
C2411 C 0.01625 0.58421 0.95568 0.0
C2412 C 0.01909 0.58558 0.01223 0.0
C2413 C 0.02758 0.57778 0.02815 0.0
C2414 C 0.02723 0.60181 0.02879 0.0
C2415 C 1.00343 0.57753 0.03206 0.0
C2416 C 0.9933 0.57221 0.99313 0.0
C2417 C 0.97815 0.56458 0.00237 0.0
C2418 C 0.97324 0.56242 0.05296 0.0
C2419 C 0.98349 0.56795 0.09328 0.0
C2420 C 0.99875 0.57552 0.0824 0.0
H2421 H 0.43809 0.43108 0.11431 0.0
H2422 H 0.46457 0.41259 0.0605 0.0
H2423 H 0.46168 0.41883 0.9725 0.0
H2424 H 0.4123 0.41816 0.01317 0.0
H2425 H 0.41055 0.43438 0.00997 0.0
H2426 H 0.41532 0.42922 0.06909 0.0
H2427 H 0.43877 0.4549 0.0752 0.0
H2428 H 0.43406 0.46015 0.01608 0.0
H2429 H 0.45175 0.46142 0.02342 0.0
H2430 H 0.45502 0.42577 0.89135 0.0
H2431 H 0.44515 0.43305 0.82001 0.0
H2432 H 0.42301 0.44763 0.92472 0.0
C2433 C 0.44338 0.42845 0.08403 0.0
C2434 C 0.45158 0.42135 0.09415 0.0
C2435 C 0.45826 0.41802 0.05357 0.0
C2436 C 0.4567 0.42155 0.00354 0.0
C2437 C 0.44847 0.42845 0.99485 0.0
C2438 C 0.44194 0.43191 0.03384 0.0
C2439 C 0.43332 0.43894 0.01373 0.0
C2440 C 0.4169 0.42962 0.02729 0.0
C2441 C 0.43987 0.4548 0.03327 0.0
C2442 C 0.43582 0.43865 0.95714 0.0
C2443 C 0.44467 0.43261 0.94745 0.0
C2444 C 0.44821 0.43064 0.89843 0.0
C2445 C 0.44251 0.43485 0.85807 0.0
C2446 C 0.43336 0.44105 0.86662 0.0
C2447 C 0.43007 0.44307 0.91698 0.0
loop_
_geom_bond_atom_site_label_1
_geom_bond_atom_site_label_2
_geom_bond_distance
_geom_bond_site_symmetry_2
_ccdc_geom_bond_type
Co0 O1 2.216 . S
Co0 O2 2.091 . S
Co0 O4 2.004 . S
Co0 O10 2.021 . S
Co0 O12 2.137 . S
Co0 O13 2.244 . S
O1 Co0 2.216 . S
O1 C8 1.247 . S
O2 Co0 2.091 . S
O2 C8 1.261 . S
C3 O12 1.247 . S
C3 O13 1.272 . S
O4 Co0 2.004 . S
O4 C9 1.259 . S
Co5 O6 2.061 . S
Co5 O11 2.052 . S
Co5 O13 2.135 . S
O6 Co5 2.061 . S
O6 C9 1.235 . S
C7 O10 1.238 1_556 S
C7 O11 1.241 1_556 S
C8 O1 1.247 . S
C8 O2 1.261 . S
C9 O4 1.259 . S
C9 O6 1.235 . S
O10 Co0 2.021 . S
O10 C7 1.238 1_554 S
O11 Co5 2.052 . S
O11 C7 1.241 1_554 S
O12 Co0 2.137 . S
O12 C3 1.247 . S
O13 Co0 2.244 . S
O13 C3 1.272 . S
O13 Co5 2.135 . S
Co14 O15 2.216 . S
Co14 O16 2.091 . S
Co14 O18 2.004 . S
Co14 O24 2.021 . S
Co14 O26 2.137 . S
Co14 O27 2.244 . S
O15 Co14 2.216 . S
O15 C22 1.247 . S
O16 Co14 2.091 . S
O16 C22 1.261 . S
C17 O26 1.247 . S
C17 O27 1.272 . S
O18 Co14 2.004 . S
O18 C23 1.259 . S
Co19 O20 2.061 . S
Co19 O25 2.052 . S
Co19 O27 2.135 . S
O20 Co19 2.061 . S
O20 C23 1.235 . S
C21 O24 1.238 1_556 S
C21 O25 1.241 1_556 S
C22 O15 1.247 . S
C22 O16 1.261 . S
C23 O18 1.259 . S
C23 O20 1.235 . S
O24 Co14 2.021 . S
O24 C21 1.238 1_554 S
O25 Co19 2.052 . S
O25 C21 1.241 1_554 S
O26 Co14 2.137 . S
O26 C17 1.247 . S
O27 Co14 2.244 . S
O27 C17 1.272 . S
O27 Co19 2.135 . S
Co28 O29 2.216 . S
Co28 O30 2.091 . S
Co28 O32 2.004 . S
Co28 O38 2.021 . S
Co28 O40 2.137 . S
Co28 O41 2.244 . S
O29 Co28 2.216 . S
O29 C36 1.247 . S
O30 Co28 2.091 . S
O30 C36 1.261 . S
C31 O40 1.247 . S
C31 O41 1.272 . S
O32 Co28 2.004 . S
O32 C37 1.259 . S
Co33 O34 2.061 . S
Co33 O39 2.052 . S
Co33 O41 2.135 . S
O34 Co33 2.061 . S
O34 C37 1.235 . S
C35 O38 1.238 1_556 S
C35 O39 1.241 1_556 S
C36 O29 1.247 . S
C36 O30 1.261 . S
C37 O32 1.259 . S
C37 O34 1.235 . S
O38 Co28 2.021 . S
O38 C35 1.238 1_554 S
O39 Co33 2.052 . S
O39 C35 1.241 1_554 S
O40 Co28 2.137 . S
O40 C31 1.247 . S
O41 Co28 2.244 . S
O41 C31 1.272 . S
O41 Co33 2.135 . S
Co42 O43 2.216 . S
Co42 O44 2.091 . S
Co42 O46 2.004 . S
Co42 O52 2.021 . S
Co42 O54 2.137 . S
Co42 O55 2.244 . S
O43 Co42 2.216 . S
O43 C50 1.247 . S
O44 Co42 2.091 . S
O44 C50 1.261 . S
C45 O54 1.247 . S
C45 O55 1.272 . S
O46 Co42 2.004 . S
O46 C51 1.259 . S
Co47 O48 2.061 . S
Co47 O53 2.052 . S
Co47 O55 2.135 . S
O48 Co47 2.061 . S
O48 C51 1.235 . S
C49 O52 1.238 1_554 S
C49 O53 1.241 1_554 S
C50 O43 1.247 . S
C50 O44 1.261 . S
C51 O46 1.259 . S
C51 O48 1.235 . S
O52 Co42 2.021 . S
O52 C49 1.238 1_556 S
O53 Co47 2.052 . S
O53 C49 1.241 1_556 S
O54 Co42 2.137 . S
O54 C45 1.247 . S
O55 Co42 2.244 . S
O55 C45 1.272 . S
O55 Co47 2.135 . S
Co56 O57 2.216 . S
Co56 O58 2.091 . S
Co56 O60 2.004 . S
Co56 O66 2.021 . S
Co56 O68 2.137 . S
Co56 O69 2.244 . S
O57 Co56 2.216 . S
O57 C64 1.247 . S
O58 Co56 2.091 . S
O58 C64 1.261 . S
C59 O68 1.247 . S
C59 O69 1.272 . S
O60 Co56 2.004 . S
O60 C65 1.259 . S
Co61 O62 2.061 . S
Co61 O67 2.052 . S
Co61 O69 2.135 . S
O62 Co61 2.061 . S
O62 C65 1.235 . S
C63 O66 1.238 1_554 S
C63 O67 1.241 1_554 S
C64 O57 1.247 . S
C64 O58 1.261 . S
C65 O60 1.259 . S
C65 O62 1.235 . S
O66 Co56 2.021 . S
O66 C63 1.238 1_556 S
O67 Co61 2.052 . S
O67 C63 1.241 1_556 S
O68 Co56 2.137 . S
O68 C59 1.247 . S
O69 Co56 2.244 . S
O69 C59 1.272 . S
O69 Co61 2.135 . S
Co70 O71 2.216 . S
Co70 O72 2.091 . S
Co70 O74 2.004 . S
Co70 O80 2.021 . S
Co70 O82 2.137 . S
Co70 O83 2.244 . S
O71 Co70 2.216 . S
O71 C78 1.247 . S
O72 Co70 2.091 . S
O72 C78 1.261 . S
C73 O82 1.247 . S
C73 O83 1.272 . S
O74 Co70 2.004 . S
O74 C79 1.259 . S
Co75 O76 2.061 . S
Co75 O81 2.052 . S
Co75 O83 2.135 . S
O76 Co75 2.061 . S
O76 C79 1.235 . S
C77 O80 1.238 1_554 S
C77 O81 1.241 1_554 S
C78 O71 1.247 . S
C78 O72 1.261 . S
C79 O74 1.259 . S
C79 O76 1.235 . S
O80 Co70 2.021 . S
O80 C77 1.238 1_556 S
O81 Co75 2.052 . S
O81 C77 1.241 1_556 S
O82 Co70 2.137 . S
O82 C73 1.247 . S
O83 Co70 2.244 . S
O83 C73 1.272 . S
O83 Co75 2.135 . S
Co84 O85 2.216 . S
Co84 O86 2.091 . S
Co84 O88 2.004 . S
Co84 O94 2.021 . S
Co84 O96 2.137 . S
Co84 O97 2.244 . S
O85 Co84 2.216 . S
O85 C92 1.247 . S
O86 Co84 2.091 . S
O86 C92 1.261 . S
C87 O96 1.247 . S
C87 O97 1.272 . S
O88 Co84 2.004 . S
O88 C93 1.259 . S
Co89 O90 2.061 . S
Co89 O95 2.052 . S
Co89 O97 2.135 . S
O90 Co89 2.061 . S
O90 C93 1.235 . S
C91 O94 1.238 1_554 S
C91 O95 1.241 1_554 S
C92 O85 1.247 . S
C92 O86 1.261 . S
C93 O88 1.259 . S
C93 O90 1.235 . S
O94 Co84 2.021 . S
O94 C91 1.238 1_556 S
O95 Co89 2.052 . S
O95 C91 1.241 1_556 S
O96 Co84 2.137 . S
O96 C87 1.247 . S
O97 Co84 2.244 . S
O97 C87 1.272 . S
O97 Co89 2.135 . S
Co98 O99 2.216 . S
Co98 O100 2.091 . S
Co98 O102 2.004 . S
Co98 O108 2.021 . S
Co98 O110 2.137 . S
Co98 O111 2.244 . S
O99 Co98 2.216 . S
O99 C106 1.247 . S
O100 Co98 2.091 . S
O100 C106 1.261 . S
C101 O110 1.247 . S
C101 O111 1.272 . S
O102 Co98 2.004 . S
O102 C107 1.259 . S
Co103 O104 2.061 . S
Co103 O109 2.052 . S
Co103 O111 2.135 . S
O104 Co103 2.061 . S
O104 C107 1.235 . S
C105 O108 1.238 1_554 S
C105 O109 1.241 1_554 S
C106 O99 1.247 . S
C106 O100 1.261 . S
C107 O102 1.259 . S
C107 O104 1.235 . S
O108 Co98 2.021 . S
O108 C105 1.238 1_556 S
O109 Co103 2.052 . S
O109 C105 1.241 1_556 S
O110 Co98 2.137 . S
O110 C101 1.247 . S
O111 Co98 2.244 . S
O111 C101 1.272 . S
O111 Co103 2.135 . S
Co112 O113 2.216 . S
Co112 O114 2.091 . S
Co112 O116 2.004 . S
Co112 O122 2.021 . S
Co112 O124 2.137 . S
Co112 O125 2.244 . S
O113 Co112 2.216 . S
O113 C120 1.247 . S
O114 Co112 2.091 . S
O114 C120 1.261 . S
C115 O124 1.247 . S
C115 O125 1.272 . S
O116 Co112 2.004 . S
O116 C121 1.259 . S
Co117 O118 2.061 . S
Co117 O123 2.052 . S
Co117 O125 2.135 . S
O118 Co117 2.061 . S
O118 C121 1.235 . S
C119 O122 1.238 1_554 S
C119 O123 1.241 1_554 S
C120 O113 1.247 . S
C120 O114 1.261 . S
C121 O116 1.259 . S
C121 O118 1.235 . S
O122 Co112 2.021 . S
O122 C119 1.238 1_556 S
O123 Co117 2.052 . S
O123 C119 1.241 1_556 S
O124 Co112 2.137 . S
O124 C115 1.247 . S
O125 Co112 2.244 . S
O125 C115 1.272 . S
O125 Co117 2.135 . S
Co126 O127 2.216 . S
Co126 O128 2.091 . S
Co126 O130 2.004 . S
Co126 O136 2.021 . S
Co126 O138 2.137 . S
Co126 O139 2.244 . S
O127 Co126 2.216 . S
O127 C134 1.247 . S
O128 Co126 2.091 . S
O128 C134 1.261 . S
C129 O138 1.247 . S
C129 O139 1.272 . S
O130 Co126 2.004 . S
O130 C135 1.259 . S
Co131 O132 2.061 . S
Co131 O137 2.052 . S
Co131 O139 2.135 . S
O132 Co131 2.061 . S
O132 C135 1.235 . S
C133 O136 1.238 1_556 S
C133 O137 1.241 1_556 S
C134 O127 1.247 . S
C134 O128 1.261 . S
C135 O130 1.259 . S
C135 O132 1.235 . S
O136 Co126 2.021 . S
O136 C133 1.238 1_554 S
O137 Co131 2.052 . S
O137 C133 1.241 1_554 S
O138 Co126 2.137 . S
O138 C129 1.247 . S
O139 Co126 2.244 . S
O139 C129 1.272 . S
O139 Co131 2.135 . S
Co140 O141 2.216 . S
Co140 O142 2.091 . S
Co140 O144 2.004 . S
Co140 O150 2.021 . S
Co140 O152 2.137 . S
Co140 O153 2.244 . S
O141 Co140 2.216 . S
O141 C148 1.247 . S
O142 Co140 2.091 . S
O142 C148 1.261 . S
C143 O152 1.247 . S
C143 O153 1.272 . S
O144 Co140 2.004 . S
O144 C149 1.259 . S
Co145 O146 2.061 . S
Co145 O151 2.052 . S
Co145 O153 2.135 . S
O146 Co145 2.061 . S
O146 C149 1.235 . S
C147 O150 1.238 1_556 S
C147 O151 1.241 1_556 S
C148 O141 1.247 . S
C148 O142 1.261 . S
C149 O144 1.259 . S
C149 O146 1.235 . S
O150 Co140 2.021 . S
O150 C147 1.238 1_554 S
O151 Co145 2.052 . S
O151 C147 1.241 1_554 S
O152 Co140 2.137 . S
O152 C143 1.247 . S
O153 Co140 2.244 . S
O153 C143 1.272 . S
O153 Co145 2.135 . S
Co154 O155 2.216 . S
Co154 O156 2.091 . S
Co154 O158 2.004 . S
Co154 O164 2.021 . S
Co154 O166 2.137 . S
Co154 O167 2.244 . S
O155 Co154 2.216 . S
O155 C162 1.247 . S
O156 Co154 2.091 . S
O156 C162 1.261 . S
C157 O166 1.247 . S
C157 O167 1.272 . S
O158 Co154 2.004 . S
O158 C163 1.259 . S
Co159 O160 2.061 . S
Co159 O165 2.052 . S
Co159 O167 2.135 . S
O160 Co159 2.061 . S
O160 C163 1.235 . S
C161 O164 1.238 1_556 S
C161 O165 1.241 1_556 S
C162 O155 1.247 . S
C162 O156 1.261 . S
C163 O158 1.259 . S
C163 O160 1.235 . S
O164 Co154 2.021 . S
O164 C161 1.238 1_554 S
O165 Co159 2.052 . S
O165 C161 1.241 1_554 S
O166 Co154 2.137 . S
O166 C157 1.247 . S
O167 Co154 2.244 . S
O167 C157 1.272 . S
O167 Co159 2.135 . S
Co168 O169 2.216 . S
Co168 O170 2.091 . S
Co168 O172 2.004 . S
Co168 O178 2.021 . S
Co168 O180 2.137 . S
Co168 O181 2.244 . S
O169 Co168 2.216 . S
O169 C176 1.247 . S
O170 Co168 2.091 . S
O170 C176 1.261 . S
C171 O180 1.247 . S
C171 O181 1.272 . S
O172 Co168 2.004 . S
O172 C177 1.259 . S
Co173 O174 2.061 . S
Co173 O179 2.052 . S
Co173 O181 2.135 . S
O174 Co173 2.061 . S
O174 C177 1.235 . S
C175 O178 1.238 . S
C175 O179 1.241 . S
C176 O169 1.247 . S
C176 O170 1.261 . S
C177 O172 1.259 . S
C177 O174 1.235 . S
O178 Co168 2.021 . S
O178 C175 1.238 . S
O179 Co173 2.052 . S
O179 C175 1.241 . S
O180 Co168 2.137 . S
O180 C171 1.247 . S
O181 Co168 2.244 . S
O181 C171 1.272 . S
O181 Co173 2.135 . S
Co182 O183 2.216 . S
Co182 O184 2.091 . S
Co182 O186 2.004 . S
Co182 O192 2.021 . S
Co182 O194 2.137 . S
Co182 O195 2.244 . S
O183 Co182 2.216 . S
O183 C190 1.247 . S
O184 Co182 2.091 . S
O184 C190 1.261 . S
C185 O194 1.247 . S
C185 O195 1.272 . S
O186 Co182 2.004 . S
O186 C191 1.259 . S
Co187 O188 2.061 . S
Co187 O193 2.052 . S
Co187 O195 2.135 . S
O188 Co187 2.061 . S
O188 C191 1.235 . S
C189 O192 1.238 . S
C189 O193 1.241 . S
C190 O183 1.247 . S
C190 O184 1.261 . S
C191 O186 1.259 . S
C191 O188 1.235 . S
O192 Co182 2.021 . S
O192 C189 1.238 . S
O193 Co187 2.052 . S
O193 C189 1.241 . S
O194 Co182 2.137 . S
O194 C185 1.247 . S
O195 Co182 2.244 . S
O195 C185 1.272 . S
O195 Co187 2.135 . S
Co196 O197 2.216 . S
Co196 O198 2.091 . S
Co196 O200 2.004 . S
Co196 O206 2.021 . S
Co196 O208 2.137 . S
Co196 O209 2.244 . S
O197 Co196 2.216 . S
O197 C204 1.247 . S
O198 Co196 2.091 . S
O198 C204 1.261 . S
C199 O208 1.247 . S
C199 O209 1.272 . S
O200 Co196 2.004 . S
O200 C205 1.259 . S
Co201 O202 2.061 . S
Co201 O207 2.052 . S
Co201 O209 2.135 . S
O202 Co201 2.061 . S
O202 C205 1.235 . S
C203 O206 1.238 . S
C203 O207 1.241 . S
C204 O197 1.247 . S
C204 O198 1.261 . S
C205 O200 1.259 . S
C205 O202 1.235 . S
O206 Co196 2.021 . S
O206 C203 1.238 . S
O207 Co201 2.052 . S
O207 C203 1.241 . S
O208 Co196 2.137 . S
O208 C199 1.247 . S
O209 Co196 2.244 . S
O209 C199 1.272 . S
O209 Co201 2.135 . S
Co210 O211 2.216 . S
Co210 O212 2.091 . S
Co210 O214 2.004 . S
Co210 O220 2.021 . S
Co210 O222 2.137 . S
Co210 O223 2.244 . S
O211 Co210 2.216 . S
O211 C218 1.247 . S
O212 Co210 2.091 . S
O212 C218 1.261 . S
C213 O222 1.247 . S
C213 O223 1.272 . S
O214 Co210 2.004 . S
O214 C219 1.259 . S
Co215 O216 2.061 . S
Co215 O221 2.052 . S
Co215 O223 2.135 . S
O216 Co215 2.061 . S
O216 C219 1.235 . S
C217 O220 1.238 . S
C217 O221 1.241 . S
C218 O211 1.247 . S
C218 O212 1.261 . S
C219 O214 1.259 . S
C219 O216 1.235 . S
O220 Co210 2.021 . S
O220 C217 1.238 . S
O221 Co215 2.052 . S
O221 C217 1.241 . S
O222 Co210 2.137 . S
O222 C213 1.247 . S
O223 Co210 2.244 . S
O223 C213 1.272 . S
O223 Co215 2.135 . S
Co224 O225 2.216 . S
Co224 O226 2.091 . S
Co224 O228 2.004 . S
Co224 O234 2.021 . S
Co224 O236 2.137 . S
Co224 O237 2.244 . S
O225 Co224 2.216 . S
O225 C232 1.247 . S
O226 Co224 2.091 . S
O226 C232 1.261 . S
C227 O236 1.247 . S
C227 O237 1.272 . S
O228 Co224 2.004 . S
O228 C233 1.259 . S
Co229 O230 2.061 . S
Co229 O235 2.052 . S
Co229 O237 2.135 . S
O230 Co229 2.061 . S
O230 C233 1.235 . S
C231 O234 1.238 . S
C231 O235 1.241 . S
C232 O225 1.247 . S
C232 O226 1.261 . S
C233 O228 1.259 . S
C233 O230 1.235 . S
O234 Co224 2.021 . S
O234 C231 1.238 . S
O235 Co229 2.052 . S
O235 C231 1.241 . S
O236 Co224 2.137 . S
O236 C227 1.247 . S
O237 Co224 2.244 . S
O237 C227 1.272 . S
O237 Co229 2.135 . S
Co238 O239 2.216 . S
Co238 O240 2.091 . S
Co238 O242 2.004 . S
Co238 O248 2.021 . S
Co238 O250 2.137 . S
Co238 O251 2.244 . S
O239 Co238 2.216 . S
O239 C246 1.247 . S
O240 Co238 2.091 . S
O240 C246 1.261 . S
C241 O250 1.247 . S
C241 O251 1.272 . S
O242 Co238 2.004 . S
O242 C247 1.259 . S
Co243 O244 2.061 . S
Co243 O249 2.052 . S
Co243 O251 2.135 . S
O244 Co243 2.061 . S
O244 C247 1.235 . S
C245 O248 1.238 . S
C245 O249 1.241 . S
C246 O239 1.247 . S
C246 O240 1.261 . S
C247 O242 1.259 . S
C247 O244 1.235 . S
O248 Co238 2.021 . S
O248 C245 1.238 . S
O249 Co243 2.052 . S
O249 C245 1.241 . S
O250 Co238 2.137 . S
O250 C241 1.247 . S
O251 Co238 2.244 . S
O251 C241 1.272 . S
O251 Co243 2.135 . S
Co252 O253 2.216 . S
Co252 O254 2.091 . S
Co252 O256 2.004 . S
Co252 O262 2.021 . S
Co252 O264 2.137 . S
Co252 O265 2.244 . S
O253 Co252 2.216 . S
O253 C260 1.247 . S
O254 Co252 2.091 . S
O254 C260 1.261 . S
C255 O264 1.247 . S
C255 O265 1.272 . S
O256 Co252 2.004 . S
O256 C261 1.259 . S
Co257 O258 2.061 . S
Co257 O263 2.052 . S
Co257 O265 2.135 . S
O258 Co257 2.061 . S
O258 C261 1.235 . S
C259 O262 1.238 . S
C259 O263 1.241 . S
C260 O253 1.247 . S
C260 O254 1.261 . S
C261 O256 1.259 . S
C261 O258 1.235 . S
O262 Co252 2.021 . S
O262 C259 1.238 . S
O263 Co257 2.052 . S
O263 C259 1.241 . S
O264 Co252 2.137 . S
O264 C255 1.247 . S
O265 Co252 2.244 . S
O265 C255 1.272 . S
O265 Co257 2.135 . S
Co266 O267 2.216 . S
Co266 O268 2.091 . S
Co266 O270 2.004 . S
Co266 O276 2.021 . S
Co266 O278 2.137 . S
Co266 O279 2.244 . S
O267 Co266 2.216 . S
O267 C274 1.247 . S
O268 Co266 2.091 . S
O268 C274 1.261 . S
C269 O278 1.247 . S
C269 O279 1.272 . S
O270 Co266 2.004 . S
O270 C275 1.259 . S
Co271 O272 2.061 . S
Co271 O277 2.052 . S
Co271 O279 2.135 . S
O272 Co271 2.061 . S
O272 C275 1.235 . S
C273 O276 1.238 . S
C273 O277 1.241 . S
C274 O267 1.247 . S
C274 O268 1.261 . S
C275 O270 1.259 . S
C275 O272 1.235 . S
O276 Co266 2.021 . S
O276 C273 1.238 . S
O277 Co271 2.052 . S
O277 C273 1.241 . S
O278 Co266 2.137 . S
O278 C269 1.247 . S
O279 Co266 2.244 . S
O279 C269 1.272 . S
O279 Co271 2.135 . S
Co280 O281 2.216 . S
Co280 O282 2.091 . S
Co280 O284 2.004 . S
Co280 O290 2.021 . S
Co280 O292 2.137 . S
Co280 O293 2.244 . S
O281 Co280 2.216 . S
O281 C288 1.247 . S
O282 Co280 2.091 . S
O282 C288 1.261 . S
C283 O292 1.247 . S
C283 O293 1.272 . S
O284 Co280 2.004 . S
O284 C289 1.259 . S
Co285 O286 2.061 . S
Co285 O291 2.052 . S
Co285 O293 2.135 . S
O286 Co285 2.061 . S
O286 C289 1.235 . S
C287 O290 1.238 . S
C287 O291 1.241 . S
C288 O281 1.247 . S
C288 O282 1.261 . S
C289 O284 1.259 . S
C289 O286 1.235 . S
O290 Co280 2.021 . S
O290 C287 1.238 . S
O291 Co285 2.052 . S
O291 C287 1.241 . S
O292 Co280 2.137 . S
O292 C283 1.247 . S
O293 Co280 2.244 . S
O293 C283 1.272 . S
O293 Co285 2.135 . S
Co294 O295 2.216 . S
Co294 O296 2.091 . S
Co294 O298 2.004 . S
Co294 O304 2.021 . S
Co294 O306 2.137 . S
Co294 O307 2.244 . S
O295 Co294 2.216 . S
O295 C302 1.247 . S
O296 Co294 2.091 . S
O296 C302 1.261 . S
C297 O306 1.247 . S
C297 O307 1.272 . S
O298 Co294 2.004 . S
O298 C303 1.259 . S
Co299 O300 2.061 . S
Co299 O305 2.052 . S
Co299 O307 2.135 . S
O300 Co299 2.061 . S
O300 C303 1.235 . S
C301 O304 1.238 . S
C301 O305 1.241 . S
C302 O295 1.247 . S
C302 O296 1.261 . S
C303 O298 1.259 . S
C303 O300 1.235 . S
O304 Co294 2.021 . S
O304 C301 1.238 . S
O305 Co299 2.052 . S
O305 C301 1.241 . S
O306 Co294 2.137 . S
O306 C297 1.247 . S
O307 Co294 2.244 . S
O307 C297 1.272 . S
O307 Co299 2.135 . S
Co308 O309 2.216 . S
Co308 O310 2.091 . S
Co308 O312 2.004 . S
Co308 O318 2.021 . S
Co308 O320 2.137 . S
Co308 O321 2.244 . S
O309 Co308 2.216 . S
O309 C316 1.247 . S
O310 Co308 2.091 . S
O310 C316 1.261 . S
C311 O320 1.247 . S
C311 O321 1.272 . S
O312 Co308 2.004 . S
O312 C317 1.259 . S
Co313 O314 2.061 . S
Co313 O319 2.052 . S
Co313 O321 2.135 . S
O314 Co313 2.061 . S
O314 C317 1.235 . S
C315 O318 1.238 . S
C315 O319 1.241 . S
C316 O309 1.247 . S
C316 O310 1.261 . S
C317 O312 1.259 . S
C317 O314 1.235 . S
O318 Co308 2.021 . S
O318 C315 1.238 . S
O319 Co313 2.052 . S
O319 C315 1.241 . S
O320 Co308 2.137 . S
O320 C311 1.247 . S
O321 Co308 2.244 . S
O321 C311 1.272 . S
O321 Co313 2.135 . S
Co322 O323 2.216 . S
Co322 O324 2.091 . S
Co322 O326 2.004 . S
Co322 O332 2.021 . S
Co322 O334 2.137 . S
Co322 O335 2.244 . S
O323 Co322 2.216 . S
O323 C330 1.247 . S
O324 Co322 2.091 . S
O324 C330 1.261 . S
C325 O334 1.247 . S
C325 O335 1.272 . S
O326 Co322 2.004 . S
O326 C331 1.259 . S
Co327 O328 2.061 . S
Co327 O333 2.052 . S
Co327 O335 2.135 . S
O328 Co327 2.061 . S
O328 C331 1.235 . S
C329 O332 1.238 . S
C329 O333 1.241 . S
C330 O323 1.247 . S
C330 O324 1.261 . S
C331 O326 1.259 . S
C331 O328 1.235 . S
O332 Co322 2.021 . S
O332 C329 1.238 . S
O333 Co327 2.052 . S
O333 C329 1.241 . S
O334 Co322 2.137 . S
O334 C325 1.247 . S
O335 Co322 2.244 . S
O335 C325 1.272 . S
O335 Co327 2.135 . S
Co336 O337 2.216 . S
Co336 O338 2.091 . S
Co336 O340 2.004 . S
Co336 O346 2.021 . S
Co336 O348 2.137 . S
Co336 O349 2.244 . S
O337 Co336 2.216 . S
O337 C344 1.247 . S
O338 Co336 2.091 . S
O338 C344 1.261 . S
C339 O348 1.247 . S
C339 O349 1.272 . S
O340 Co336 2.004 . S
O340 C345 1.259 . S
Co341 O342 2.061 . S
Co341 O347 2.052 . S
Co341 O349 2.135 . S
O342 Co341 2.061 . S
O342 C345 1.235 . S
C343 O346 1.238 . S
C343 O347 1.241 . S
C344 O337 1.247 . S
C344 O338 1.261 . S
C345 O340 1.259 . S
C345 O342 1.235 . S
O346 Co336 2.021 . S
O346 C343 1.238 . S
O347 Co341 2.052 . S
O347 C343 1.241 . S
O348 Co336 2.137 . S
O348 C339 1.247 . S
O349 Co336 2.244 . S
O349 C339 1.272 . S
O349 Co341 2.135 . S
Co350 O351 2.216 . S
Co350 O352 2.091 . S
Co350 O354 2.004 . S
Co350 O360 2.021 . S
Co350 O362 2.137 . S
Co350 O363 2.244 . S
O351 Co350 2.216 . S
O351 C358 1.247 . S
O352 Co350 2.091 . S
O352 C358 1.261 . S
C353 O362 1.247 . S
C353 O363 1.272 . S
O354 Co350 2.004 . S
O354 C359 1.259 . S
Co355 O356 2.061 . S
Co355 O361 2.052 . S
Co355 O363 2.135 . S
O356 Co355 2.061 . S
O356 C359 1.235 . S
C357 O360 1.238 . S
C357 O361 1.241 . S
C358 O351 1.247 . S
C358 O352 1.261 . S
C359 O354 1.259 . S
C359 O356 1.235 . S
O360 Co350 2.021 . S
O360 C357 1.238 . S
O361 Co355 2.052 . S
O361 C357 1.241 . S
O362 Co350 2.137 . S
O362 C353 1.247 . S
O363 Co350 2.244 . S
O363 C353 1.272 . S
O363 Co355 2.135 . S
Co364 O365 2.216 . S
Co364 O366 2.091 . S
Co364 O368 2.004 . S
Co364 O374 2.021 . S
Co364 O376 2.137 . S
Co364 O377 2.244 . S
O365 Co364 2.216 . S
O365 C372 1.247 . S
O366 Co364 2.091 . S
O366 C372 1.261 . S
C367 O376 1.247 . S
C367 O377 1.272 . S
O368 Co364 2.004 . S
O368 C373 1.259 . S
Co369 O370 2.061 . S
Co369 O375 2.052 . S
Co369 O377 2.135 . S
O370 Co369 2.061 . S
O370 C373 1.235 . S
C371 O374 1.238 . S
C371 O375 1.241 . S
C372 O365 1.247 . S
C372 O366 1.261 . S
C373 O368 1.259 . S
C373 O370 1.235 . S
O374 Co364 2.021 . S
O374 C371 1.238 . S
O375 Co369 2.052 . S
O375 C371 1.241 . S
O376 Co364 2.137 . S
O376 C367 1.247 . S
O377 Co364 2.244 . S
O377 C367 1.272 . S
O377 Co369 2.135 . S
Co378 O379 2.216 . S
Co378 O380 2.091 . S
Co378 O382 2.004 . S
Co378 O388 2.021 . S
Co378 O390 2.137 . S
Co378 O391 2.244 . S
O379 Co378 2.216 . S
O379 C386 1.247 . S
O380 Co378 2.091 . S
O380 C386 1.261 . S
C381 O390 1.247 . S
C381 O391 1.272 . S
O382 Co378 2.004 . S
O382 C387 1.259 . S
Co383 O384 2.061 . S
Co383 O389 2.052 . S
Co383 O391 2.135 . S
O384 Co383 2.061 . S
O384 C387 1.235 . S
C385 O388 1.238 . S
C385 O389 1.241 . S
C386 O379 1.247 . S
C386 O380 1.261 . S
C387 O382 1.259 . S
C387 O384 1.235 . S
O388 Co378 2.021 . S
O388 C385 1.238 . S
O389 Co383 2.052 . S
O389 C385 1.241 . S
O390 Co378 2.137 . S
O390 C381 1.247 . S
O391 Co378 2.244 . S
O391 C381 1.272 . S
O391 Co383 2.135 . S
Co392 O393 2.216 . S
Co392 O394 2.091 . S
Co392 O396 2.004 . S
Co392 O402 2.021 . S
Co392 O404 2.137 . S
Co392 O405 2.244 . S
O393 Co392 2.216 . S
O393 C400 1.247 . S
O394 Co392 2.091 . S
O394 C400 1.261 . S
C395 O404 1.247 . S
C395 O405 1.272 . S
O396 Co392 2.004 . S
O396 C401 1.259 . S
Co397 O398 2.061 . S
Co397 O403 2.052 . S
Co397 O405 2.135 . S
O398 Co397 2.061 . S
O398 C401 1.235 . S
C399 O402 1.238 . S
C399 O403 1.241 . S
C400 O393 1.247 . S
C400 O394 1.261 . S
C401 O396 1.259 . S
C401 O398 1.235 . S
O402 Co392 2.021 . S
O402 C399 1.238 . S
O403 Co397 2.052 . S
O403 C399 1.241 . S
O404 Co392 2.137 . S
O404 C395 1.247 . S
O405 Co392 2.244 . S
O405 C395 1.272 . S
O405 Co397 2.135 . S
Co406 O407 2.216 . S
Co406 O408 2.091 . S
Co406 O410 2.004 . S
Co406 O416 2.021 . S
Co406 O418 2.137 . S
Co406 O419 2.244 . S
O407 Co406 2.216 . S
O407 C414 1.247 . S
O408 Co406 2.091 . S
O408 C414 1.261 . S
C409 O418 1.247 . S
C409 O419 1.272 . S
O410 Co406 2.004 . S
O410 C415 1.259 . S
Co411 O412 2.061 . S
Co411 O417 2.052 . S
Co411 O419 2.135 . S
O412 Co411 2.061 . S
O412 C415 1.235 . S
C413 O416 1.238 . S
C413 O417 1.241 . S
C414 O407 1.247 . S
C414 O408 1.261 . S
C415 O410 1.259 . S
C415 O412 1.235 . S
O416 Co406 2.021 . S
O416 C413 1.238 . S
O417 Co411 2.052 . S
O417 C413 1.241 . S
O418 Co406 2.137 . S
O418 C409 1.247 . S
O419 Co406 2.244 . S
O419 C409 1.272 . S
O419 Co411 2.135 . S
Co420 O421 2.216 . S
Co420 O422 2.091 . S
Co420 O424 2.004 . S
Co420 O430 2.021 . S
Co420 O432 2.137 . S
Co420 O433 2.244 . S
O421 Co420 2.216 . S
O421 C428 1.247 . S
O422 Co420 2.091 . S
O422 C428 1.261 . S
C423 O432 1.247 . S
C423 O433 1.272 . S
O424 Co420 2.004 . S
O424 C429 1.259 . S
Co425 O426 2.061 . S
Co425 O431 2.052 . S
Co425 O433 2.135 . S
O426 Co425 2.061 . S
O426 C429 1.235 . S
C427 O430 1.238 . S
C427 O431 1.241 . S
C428 O421 1.247 . S
C428 O422 1.261 . S
C429 O424 1.259 . S
C429 O426 1.235 . S
O430 Co420 2.021 . S
O430 C427 1.238 . S
O431 Co425 2.052 . S
O431 C427 1.241 . S
O432 Co420 2.137 . S
O432 C423 1.247 . S
O433 Co420 2.244 . S
O433 C423 1.272 . S
O433 Co425 2.135 . S
Co434 O435 2.216 . S
Co434 O436 2.091 . S
Co434 O438 2.004 . S
Co434 O444 2.021 . S
Co434 O446 2.137 . S
Co434 O447 2.244 . S
O435 Co434 2.216 . S
O435 C442 1.247 . S
O436 Co434 2.091 . S
O436 C442 1.261 . S
C437 O446 1.247 . S
C437 O447 1.272 . S
O438 Co434 2.004 . S
O438 C443 1.259 . S
Co439 O440 2.061 . S
Co439 O445 2.052 . S
Co439 O447 2.135 . S
O440 Co439 2.061 . S
O440 C443 1.235 . S
C441 O444 1.238 . S
C441 O445 1.241 . S
C442 O435 1.247 . S
C442 O436 1.261 . S
C443 O438 1.259 . S
C443 O440 1.235 . S
O444 Co434 2.021 . S
O444 C441 1.238 . S
O445 Co439 2.052 . S
O445 C441 1.241 . S
O446 Co434 2.137 . S
O446 C437 1.247 . S
O447 Co434 2.244 . S
O447 C437 1.272 . S
O447 Co439 2.135 . S
Co448 O449 2.216 . S
Co448 O450 2.091 . S
Co448 O452 2.004 . S
Co448 O458 2.021 . S
Co448 O460 2.137 . S
Co448 O461 2.244 . S
O449 Co448 2.216 . S
O449 C456 1.247 . S
O450 Co448 2.091 . S
O450 C456 1.261 . S
C451 O460 1.247 . S
C451 O461 1.272 . S
O452 Co448 2.004 . S
O452 C457 1.259 . S
Co453 O454 2.061 . S
Co453 O459 2.052 . S
Co453 O461 2.135 . S
O454 Co453 2.061 . S
O454 C457 1.235 . S
C455 O458 1.238 . S
C455 O459 1.241 . S
C456 O449 1.247 . S
C456 O450 1.261 . S
C457 O452 1.259 . S
C457 O454 1.235 . S
O458 Co448 2.021 . S
O458 C455 1.238 . S
O459 Co453 2.052 . S
O459 C455 1.241 . S
O460 Co448 2.137 . S
O460 C451 1.247 . S
O461 Co448 2.244 . S
O461 C451 1.272 . S
O461 Co453 2.135 . S
Co462 O463 2.216 . S
Co462 O464 2.091 . S
Co462 O466 2.004 . S
Co462 O472 2.021 . S
Co462 O474 2.137 . S
Co462 O475 2.244 . S
O463 Co462 2.216 . S
O463 C470 1.247 . S
O464 Co462 2.091 . S
O464 C470 1.261 . S
C465 O474 1.247 . S
C465 O475 1.272 . S
O466 Co462 2.004 . S
O466 C471 1.259 . S
Co467 O468 2.061 . S
Co467 O473 2.052 . S
Co467 O475 2.135 . S
O468 Co467 2.061 . S
O468 C471 1.235 . S
C469 O472 1.238 . S
C469 O473 1.241 . S
C470 O463 1.247 . S
C470 O464 1.261 . S
C471 O466 1.259 . S
C471 O468 1.235 . S
O472 Co462 2.021 . S
O472 C469 1.238 . S
O473 Co467 2.052 . S
O473 C469 1.241 . S
O474 Co462 2.137 . S
O474 C465 1.247 . S
O475 Co462 2.244 . S
O475 C465 1.272 . S
O475 Co467 2.135 . S
Co476 O477 2.216 . S
Co476 O478 2.091 . S
Co476 O480 2.004 . S
Co476 O486 2.021 . S
Co476 O488 2.137 . S
Co476 O489 2.244 . S
O477 Co476 2.216 . S
O477 C484 1.247 . S
O478 Co476 2.091 . S
O478 C484 1.261 . S
C479 O488 1.247 . S
C479 O489 1.272 . S
O480 Co476 2.004 . S
O480 C485 1.259 . S
Co481 O482 2.061 . S
Co481 O487 2.052 . S
Co481 O489 2.135 . S
O482 Co481 2.061 . S
O482 C485 1.235 . S
C483 O486 1.238 . S
C483 O487 1.241 . S
C484 O477 1.247 . S
C484 O478 1.261 . S
C485 O480 1.259 . S
C485 O482 1.235 . S
O486 Co476 2.021 . S
O486 C483 1.238 . S
O487 Co481 2.052 . S
O487 C483 1.241 . S
O488 Co476 2.137 . S
O488 C479 1.247 . S
O489 Co476 2.244 . S
O489 C479 1.272 . S
O489 Co481 2.135 . S
Co490 O491 2.216 . S
Co490 O492 2.091 . S
Co490 O494 2.004 . S
Co490 O500 2.021 . S
Co490 O502 2.137 . S
Co490 O503 2.244 . S
O491 Co490 2.216 . S
O491 C498 1.247 . S
O492 Co490 2.091 . S
O492 C498 1.261 . S
C493 O502 1.247 . S
C493 O503 1.272 . S
O494 Co490 2.004 . S
O494 C499 1.259 . S
Co495 O496 2.061 . S
Co495 O501 2.052 . S
Co495 O503 2.135 . S
O496 Co495 2.061 . S
O496 C499 1.235 . S
C497 O500 1.238 . S
C497 O501 1.241 . S
C498 O491 1.247 . S
C498 O492 1.261 . S
C499 O494 1.259 . S
C499 O496 1.235 . S
O500 Co490 2.021 . S
O500 C497 1.238 . S
O501 Co495 2.052 . S
O501 C497 1.241 . S
O502 Co490 2.137 . S
O502 C493 1.247 . S
O503 Co490 2.244 . S
O503 C493 1.272 . S
O503 Co495 2.135 . S
H504 C516 0.930 . S
H505 C518 0.930 . S
H506 C519 0.930 . S
H507 C523 0.959 1_556 S
H508 C523 0.959 . S
H509 C523 0.961 . S
H510 C524 0.960 . S
H511 C524 0.961 . S
H512 C524 0.959 . S
H513 C527 0.929 . S
H514 C528 0.931 . S
H515 C530 0.930 . S
C516 H504 0.930 . S
C516 C517 1.399 . S
C516 C521 1.399 . S
C517 C516 1.399 . S
C517 C518 1.376 . S
C518 H505 0.930 . S
C518 C517 1.376 . S
C518 C519 1.388 . S
C519 H506 0.930 . S
C519 C518 1.388 . S
C519 C520 1.390 . S
C520 C519 1.390 . S
C520 C521 1.394 . S
C520 C526 1.465 . S
C521 C516 1.399 . S
C521 C520 1.394 . S
C521 C522 1.516 . S
C522 C521 1.516 . S
C522 C523 1.502 . S
C522 C524 1.561 . S
C522 C525 1.526 . S
C523 H507 0.959 1_554 S
C523 H508 0.959 . S
C523 H509 0.961 . S
C523 C522 1.502 . S
C524 H510 0.960 . S
C524 H511 0.961 . S
C524 H512 0.959 . S
C524 C522 1.561 . S
C525 C522 1.526 . S
C525 C526 1.396 . S
C525 C530 1.390 . S
C526 C520 1.465 . S
C526 C525 1.396 . S
C526 C527 1.399 . S
C527 H513 0.929 . S
C527 C526 1.399 . S
C527 C528 1.385 . S
C528 H514 0.931 . S
C528 C527 1.385 . S
C528 C529 1.389 . S
C529 C528 1.389 . S
C529 C530 1.387 . S
C530 H515 0.930 . S
C530 C525 1.390 . S
C530 C529 1.387 . S
H531 C543 0.930 . S
H532 C545 0.930 . S
H533 C546 0.930 . S
H534 C550 0.959 . S
H535 C550 0.959 . S
H536 C550 0.961 . S
H537 C551 0.960 . S
H538 C551 0.961 . S
H539 C551 0.959 1_554 S
H540 C554 0.929 . S
H541 C555 0.931 . S
H542 C557 0.930 . S
C543 H531 0.930 . S
C543 C544 1.399 . S
C543 C548 1.399 . S
C544 C543 1.399 . S
C544 C545 1.376 . S
C545 H532 0.930 . S
C545 C544 1.376 . S
C545 C546 1.388 . S
C546 H533 0.930 . S
C546 C545 1.388 . S
C546 C547 1.390 . S
C547 C546 1.390 . S
C547 C548 1.394 . S
C547 C553 1.465 . S
C548 C543 1.399 . S
C548 C547 1.394 . S
C548 C549 1.516 . S
C549 C548 1.516 . S
C549 C550 1.502 1_554 S
C549 C551 1.561 1_554 S
C549 C552 1.526 . S
C550 H534 0.959 . S
C550 H535 0.959 . S
C550 H536 0.961 . S
C550 C549 1.502 1_556 S
C551 H537 0.960 . S
C551 H538 0.961 . S
C551 H539 0.959 1_556 S
C551 C549 1.561 1_556 S
C552 C549 1.526 . S
C552 C553 1.396 . S
C552 C557 1.390 . S
C553 C547 1.465 . S
C553 C552 1.396 . S
C553 C554 1.399 . S
C554 H540 0.929 . S
C554 C553 1.399 . S
C554 C555 1.385 . S
C555 H541 0.931 . S
C555 C554 1.385 . S
C555 C556 1.389 . S
C556 C555 1.389 . S
C556 C557 1.387 . S
C557 H542 0.930 . S
C557 C552 1.390 . S
C557 C556 1.387 . S
H558 C570 0.930 . S
H559 C572 0.930 . S
H560 C573 0.930 . S
H561 C577 0.959 1_554 S
H562 C577 0.959 . S
H563 C577 0.961 . S
H564 C578 0.960 . S
H565 C578 0.961 . S
H566 C578 0.959 . S
H567 C581 0.929 . S
H568 C582 0.931 . S
H569 C584 0.930 . S
C570 H558 0.930 . S
C570 C571 1.399 . S
C570 C575 1.399 . S
C571 C570 1.399 . S
C571 C572 1.376 . S
C572 H559 0.930 . S
C572 C571 1.376 . S
C572 C573 1.388 . S
C573 H560 0.930 . S
C573 C572 1.388 . S
C573 C574 1.390 . S
C574 C573 1.390 . S
C574 C575 1.394 . S
C574 C580 1.465 . S
C575 C570 1.399 . S
C575 C574 1.394 . S
C575 C576 1.516 . S
C576 C575 1.516 . S
C576 C577 1.502 1_554 S
C576 C578 1.561 1_554 S
C576 C579 1.526 . S
C577 H561 0.959 1_556 S
C577 H562 0.959 . S
C577 H563 0.961 . S
C577 C576 1.502 1_556 S
C578 H564 0.960 . S
C578 H565 0.961 . S
C578 H566 0.959 . S
C578 C576 1.561 1_556 S
C579 C576 1.526 . S
C579 C580 1.396 . S
C579 C584 1.390 . S
C580 C574 1.465 . S
C580 C579 1.396 . S
C580 C581 1.399 . S
C581 H567 0.929 . S
C581 C580 1.399 . S
C581 C582 1.385 . S
C582 H568 0.931 . S
C582 C581 1.385 . S
C582 C583 1.389 . S
C583 C582 1.389 . S
C583 C584 1.387 . S
C584 H569 0.930 . S
C584 C579 1.390 . S
C584 C583 1.387 . S
H585 C597 0.930 . S
H586 C599 0.930 . S
H587 C600 0.930 1_554 S
H588 C604 0.959 . S
H589 C604 0.959 . S
H590 C604 0.961 . S
H591 C605 0.960 . S
H592 C605 0.961 . S
H593 C605 0.959 . S
H594 C608 0.929 1_554 S
H595 C609 0.936 . S
H596 C611 0.930 . S
C597 H585 0.930 . S
C597 C598 1.399 . S
C597 C602 1.399 . S
C598 C597 1.399 . S
C598 C599 1.376 . S
C599 H586 0.930 . S
C599 C598 1.376 . S
C599 C600 1.388 . S
C600 H587 0.930 1_556 S
C600 C599 1.388 . S
C600 C601 1.390 . S
C601 C600 1.390 . S
C601 C602 1.394 . S
C601 C607 1.465 . S
C602 C597 1.399 . S
C602 C601 1.394 . S
C602 C603 1.516 . S
C603 C602 1.516 . S
C603 C604 1.502 . S
C603 C605 1.561 . S
C603 C606 1.526 . S
C604 H588 0.959 . S
C604 H589 0.959 . S
C604 H590 0.961 . S
C604 C603 1.502 . S
C605 H591 0.960 . S
C605 H592 0.961 . S
C605 H593 0.959 . S
C605 C603 1.561 . S
C606 C603 1.526 . S
C606 C607 1.396 . S
C606 C611 1.390 . S
C607 C601 1.465 . S
C607 C606 1.396 . S
C607 C608 1.399 . S
C608 H594 0.929 1_556 S
C608 C607 1.399 . S
C608 C609 1.385 . S
C609 H595 0.936 . S
C609 C608 1.385 . S
C609 C610 1.389 . S
C610 C609 1.389 . S
C610 C611 1.387 . S
C611 H596 0.930 . S
C611 C606 1.390 . S
C611 C610 1.387 . S
H612 C624 0.930 . S
H613 C626 0.930 . S
H614 C627 0.930 1_554 S
H615 C631 0.959 . S
H616 C631 0.959 . S
H617 C631 0.961 . S
H618 C632 0.960 . S
H619 C632 0.961 . S
H620 C632 0.959 . S
H621 C635 0.929 1_554 S
H622 C636 0.931 . S
H623 C638 0.930 . S
C624 H612 0.930 . S
C624 C625 1.399 . S
C624 C629 1.399 . S
C625 C624 1.399 . S
C625 C626 1.376 . S
C626 H613 0.930 . S
C626 C625 1.376 . S
C626 C627 1.388 . S
C627 H614 0.930 1_556 S
C627 C626 1.388 . S
C627 C628 1.390 . S
C628 C627 1.390 . S
C628 C629 1.394 . S
C628 C634 1.465 . S
C629 C624 1.399 . S
C629 C628 1.394 . S
C629 C630 1.516 . S
C630 C629 1.516 . S
C630 C631 1.502 . S
C630 C632 1.561 . S
C630 C633 1.526 . S
C631 H615 0.959 . S
C631 H616 0.959 . S
C631 H617 0.961 . S
C631 C630 1.502 . S
C632 H618 0.960 . S
C632 H619 0.961 . S
C632 H620 0.959 . S
C632 C630 1.561 . S
C633 C630 1.526 . S
C633 C634 1.396 . S
C633 C638 1.390 . S
C634 C628 1.465 . S
C634 C633 1.396 . S
C634 C635 1.399 . S
C635 H621 0.929 1_556 S
C635 C634 1.399 . S
C635 C636 1.385 . S
C636 H622 0.931 . S
C636 C635 1.385 . S
C636 C637 1.389 . S
C637 C636 1.389 . S
C637 C638 1.387 . S
C638 H623 0.930 . S
C638 C633 1.390 . S
C638 C637 1.387 . S
H639 C651 0.930 . S
H640 C653 0.930 . S
H641 C654 0.930 . S
H642 C658 0.959 1_554 S
H643 C658 0.959 . S
H644 C658 0.961 . S
H645 C659 0.960 . S
H646 C659 0.961 . S
H647 C659 0.959 . S
H648 C662 0.929 . S
H649 C663 0.931 . S
H650 C665 0.930 . S
C651 H639 0.930 . S
C651 C652 1.399 . S
C651 C656 1.399 . S
C652 C651 1.399 . S
C652 C653 1.376 . S
C653 H640 0.930 . S
C653 C652 1.376 . S
C653 C654 1.388 . S
C654 H641 0.930 . S
C654 C653 1.388 . S
C654 C655 1.390 . S
C655 C654 1.390 . S
C655 C656 1.394 . S
C655 C661 1.465 . S
C656 C651 1.399 . S
C656 C655 1.394 . S
C656 C657 1.516 . S
C657 C656 1.516 . S
C657 C658 1.502 . S
C657 C659 1.561 . S
C657 C660 1.526 . S
C658 H642 0.959 1_556 S
C658 H643 0.959 . S
C658 H644 0.961 . S
C658 C657 1.502 . S
C659 H645 0.960 . S
C659 H646 0.961 . S
C659 H647 0.959 . S
C659 C657 1.561 . S
C660 C657 1.526 . S
C660 C661 1.396 . S
C660 C665 1.390 . S
C661 C655 1.465 . S
C661 C660 1.396 . S
C661 C662 1.399 . S
C662 H648 0.929 . S
C662 C661 1.399 . S
C662 C663 1.385 . S
C663 H649 0.931 . S
C663 C662 1.385 . S
C663 C664 1.389 . S
C664 C663 1.389 . S
C664 C665 1.387 . S
C665 H650 0.930 . S
C665 C660 1.390 . S
C665 C664 1.387 . S
H666 C678 0.930 . S
H667 C680 0.930 . S
H668 C681 0.930 . S
H669 C685 0.959 . S
H670 C685 0.959 . S
H671 C685 0.961 . S
H672 C686 0.960 . S
H673 C686 0.961 . S
H674 C686 0.959 . S
H675 C689 0.929 . S
H676 C690 0.931 . S
H677 C692 0.930 . S
C678 H666 0.930 . S
C678 C679 1.399 . S
C678 C683 1.399 . S
C679 C678 1.399 . S
C679 C680 1.376 . S
C680 H667 0.930 . S
C680 C679 1.376 . S
C680 C681 1.388 . S
C681 H668 0.930 . S
C681 C680 1.388 . S
C681 C682 1.390 . S
C682 C681 1.390 . S
C682 C683 1.394 . S
C682 C688 1.465 . S
C683 C678 1.399 . S
C683 C682 1.394 . S
C683 C684 1.516 . S
C684 C683 1.516 . S
C684 C685 1.502 . S
C684 C686 1.561 . S
C684 C687 1.526 . S
C685 H669 0.959 . S
C685 H670 0.959 . S
C685 H671 0.961 . S
C685 C684 1.502 . S
C686 H672 0.960 . S
C686 H673 0.961 . S
C686 H674 0.959 . S
C686 C684 1.561 . S
C687 C684 1.526 . S
C687 C688 1.396 . S
C687 C692 1.390 . S
C688 C682 1.465 . S
C688 C687 1.396 . S
C688 C689 1.399 . S
C689 H675 0.929 . S
C689 C688 1.399 . S
C689 C690 1.385 . S
C690 H676 0.931 . S
C690 C689 1.385 . S
C690 C691 1.389 . S
C691 C690 1.389 . S
C691 C692 1.387 . S
C692 H677 0.930 . S
C692 C687 1.390 . S
C692 C691 1.387 . S
H693 C705 0.930 . S
H694 C707 0.930 . S
H695 C708 0.930 . S
H696 C712 0.959 . S
H697 C712 0.959 . S
H698 C712 0.961 . S
H699 C713 0.960 . S
H700 C713 0.961 . S
H701 C713 0.959 . S
H702 C716 0.929 . S
H703 C717 0.931 . S
H704 C719 0.930 . S
C705 H693 0.930 . S
C705 C706 1.399 . S
C705 C710 1.399 . S
C706 C705 1.399 . S
C706 C707 1.376 . S
C707 H694 0.930 . S
C707 C706 1.376 . S
C707 C708 1.388 . S
C708 H695 0.930 . S
C708 C707 1.388 . S
C708 C709 1.390 . S
C709 C708 1.390 . S
C709 C710 1.394 . S
C709 C715 1.465 . S
C710 C705 1.399 . S
C710 C709 1.394 . S
C710 C711 1.516 . S
C711 C710 1.516 . S
C711 C712 1.502 . S
C711 C713 1.561 . S
C711 C714 1.526 . S
C712 H696 0.959 . S
C712 H697 0.959 . S
C712 H698 0.961 . S
C712 C711 1.502 . S
C713 H699 0.960 . S
C713 H700 0.961 . S
C713 H701 0.959 . S
C713 C711 1.561 . S
C714 C711 1.526 . S
C714 C715 1.396 . S
C714 C719 1.390 . S
C715 C709 1.465 . S
C715 C714 1.396 . S
C715 C716 1.399 . S
C716 H702 0.929 . S
C716 C715 1.399 . S
C716 C717 1.385 . S
C717 H703 0.931 . S
C717 C716 1.385 . S
C717 C718 1.389 . S
C718 C717 1.389 . S
C718 C719 1.387 . S
C719 H704 0.930 . S
C719 C714 1.390 . S
C719 C718 1.387 . S
H720 C732 0.930 . S
H721 C734 0.930 . S
H722 C735 0.930 . S
H723 C739 0.959 . S
H724 C739 0.959 . S
H725 C739 0.961 . S
H726 C740 0.960 . S
H727 C740 0.961 . S
H728 C740 0.959 . S
H729 C743 0.929 . S
H730 C744 0.931 . S
H731 C746 0.930 . S
C732 H720 0.930 . S
C732 C733 1.399 . S
C732 C737 1.399 . S
C733 C732 1.399 . S
C733 C734 1.376 . S
C734 H721 0.930 . S
C734 C733 1.376 . S
C734 C735 1.388 . S
C735 H722 0.930 . S
C735 C734 1.388 . S
C735 C736 1.390 . S
C736 C735 1.390 . S
C736 C737 1.394 . S
C736 C742 1.465 . S
C737 C732 1.399 . S
C737 C736 1.394 . S
C737 C738 1.516 . S
C738 C737 1.516 . S
C738 C739 1.502 . S
C738 C740 1.561 . S
C738 C741 1.526 . S
C739 H723 0.959 . S
C739 H724 0.959 . S
C739 H725 0.961 . S
C739 C738 1.502 . S
C740 H726 0.960 . S
C740 H727 0.961 . S
C740 H728 0.959 . S
C740 C738 1.561 . S
C741 C738 1.526 . S
C741 C742 1.396 . S
C741 C746 1.390 . S
C742 C736 1.465 . S
C742 C741 1.396 . S
C742 C743 1.399 . S
C743 H729 0.929 . S
C743 C742 1.399 . S
C743 C744 1.385 . S
C744 H730 0.931 . S
C744 C743 1.385 . S
C744 C745 1.389 . S
C745 C744 1.389 . S
C745 C746 1.387 . S
C746 H731 0.930 . S
C746 C741 1.390 . S
C746 C745 1.387 . S
H747 C759 0.930 . S
H748 C761 0.930 . S
H749 C762 0.930 . S
H750 C766 0.959 . S
H751 C766 0.959 . S
H752 C766 0.961 . S
H753 C767 0.960 . S
H754 C767 0.961 . S
H755 C767 0.959 . S
H756 C770 0.929 . S
H757 C771 0.931 . S
H758 C773 0.930 . S
C759 H747 0.930 . S
C759 C760 1.399 . S
C759 C764 1.399 . S
C760 C759 1.399 . S
C760 C761 1.376 . S
C761 H748 0.930 . S
C761 C760 1.376 . S
C761 C762 1.388 . S
C762 H749 0.930 . S
C762 C761 1.388 . S
C762 C763 1.390 . S
C763 C762 1.390 . S
C763 C764 1.394 . S
C763 C769 1.465 . S
C764 C759 1.399 . S
C764 C763 1.394 . S
C764 C765 1.516 . S
C765 C764 1.516 . S
C765 C766 1.502 . S
C765 C767 1.561 . S
C765 C768 1.526 . S
C766 H750 0.959 . S
C766 H751 0.959 . S
C766 H752 0.961 . S
C766 C765 1.502 . S
C767 H753 0.960 . S
C767 H754 0.961 . S
C767 H755 0.959 . S
C767 C765 1.561 . S
C768 C765 1.526 . S
C768 C769 1.396 . S
C768 C773 1.390 . S
C769 C763 1.465 . S
C769 C768 1.396 . S
C769 C770 1.399 . S
C770 H756 0.929 . S
C770 C769 1.399 . S
C770 C771 1.385 . S
C771 H757 0.931 . S
C771 C770 1.385 . S
C771 C772 1.389 . S
C772 C771 1.389 . S
C772 C773 1.387 . S
C773 H758 0.930 . S
C773 C768 1.390 . S
C773 C772 1.387 . S
H774 C786 0.930 . S
H775 C788 0.930 . S
H776 C789 0.930 . S
H777 C793 0.959 . S
H778 C793 0.959 . S
H779 C793 0.961 . S
H780 C794 0.960 . S
H781 C794 0.961 . S
H782 C794 0.959 . S
H783 C797 0.929 . S
H784 C798 0.931 . S
H785 C800 0.930 . S
C786 H774 0.930 . S
C786 C787 1.399 . S
C786 C791 1.399 . S
C787 C786 1.399 . S
C787 C788 1.376 . S
C788 H775 0.930 . S
C788 C787 1.376 . S
C788 C789 1.388 . S
C789 H776 0.930 . S
C789 C788 1.388 . S
C789 C790 1.390 . S
C790 C789 1.390 . S
C790 C791 1.394 . S
C790 C796 1.465 . S
C791 C786 1.399 . S
C791 C790 1.394 . S
C791 C792 1.516 . S
C792 C791 1.516 . S
C792 C793 1.502 . S
C792 C794 1.561 . S
C792 C795 1.526 . S
C793 H777 0.959 . S
C793 H778 0.959 . S
C793 H779 0.961 . S
C793 C792 1.502 . S
C794 H780 0.960 . S
C794 H781 0.961 . S
C794 H782 0.959 . S
C794 C792 1.561 . S
C795 C792 1.526 . S
C795 C796 1.396 . S
C795 C800 1.390 . S
C796 C790 1.465 . S
C796 C795 1.396 . S
C796 C797 1.399 . S
C797 H783 0.929 . S
C797 C796 1.399 . S
C797 C798 1.385 . S
C798 H784 0.931 . S
C798 C797 1.385 . S
C798 C799 1.389 . S
C799 C798 1.389 . S
C799 C800 1.387 . S
C800 H785 0.930 . S
C800 C795 1.390 . S
C800 C799 1.387 . S
H801 C813 0.930 . S
H802 C815 0.930 . S
H803 C816 0.930 . S
H804 C820 0.959 . S
H805 C820 0.959 . S
H806 C820 0.961 . S
H807 C821 0.960 . S
H808 C821 0.961 . S
H809 C821 0.959 . S
H810 C824 0.929 . S
H811 C825 0.931 . S
H812 C827 0.930 . S
C813 H801 0.930 . S
C813 C814 1.399 . S
C813 C818 1.399 . S
C814 C813 1.399 . S
C814 C815 1.376 . S
C815 H802 0.930 . S
C815 C814 1.376 . S
C815 C816 1.388 . S
C816 H803 0.930 . S
C816 C815 1.388 . S
C816 C817 1.390 . S
C817 C816 1.390 . S
C817 C818 1.394 . S
C817 C823 1.465 . S
C818 C813 1.399 . S
C818 C817 1.394 . S
C818 C819 1.516 . S
C819 C818 1.516 . S
C819 C820 1.502 . S
C819 C821 1.561 . S
C819 C822 1.526 . S
C820 H804 0.959 . S
C820 H805 0.959 . S
C820 H806 0.961 . S
C820 C819 1.502 . S
C821 H807 0.960 . S
C821 H808 0.961 . S
C821 H809 0.959 . S
C821 C819 1.561 . S
C822 C819 1.526 . S
C822 C823 1.396 . S
C822 C827 1.390 . S
C823 C817 1.465 . S
C823 C822 1.396 . S
C823 C824 1.399 . S
C824 H810 0.929 . S
C824 C823 1.399 . S
C824 C825 1.385 . S
C825 H811 0.931 . S
C825 C824 1.385 . S
C825 C826 1.389 . S
C826 C825 1.389 . S
C826 C827 1.387 . S
C827 H812 0.930 . S
C827 C822 1.390 . S
C827 C826 1.387 . S
H828 C840 0.930 . S
H829 C842 0.930 . S
H830 C843 0.930 . S
H831 C847 0.959 . S
H832 C847 0.959 . S
H833 C847 0.961 . S
H834 C848 0.960 . S
H835 C848 0.961 . S
H836 C848 0.959 . S
H837 C851 0.929 . S
H838 C852 0.931 . S
H839 C854 0.930 . S
C840 H828 0.930 . S
C840 C841 1.399 . S
C840 C845 1.399 . S
C841 C840 1.399 . S
C841 C842 1.376 . S
C842 H829 0.930 . S
C842 C841 1.376 . S
C842 C843 1.388 . S
C843 H830 0.930 . S
C843 C842 1.388 . S
C843 C844 1.390 . S
C844 C843 1.390 . S
C844 C845 1.394 . S
C844 C850 1.465 . S
C845 C840 1.399 . S
C845 C844 1.394 . S
C845 C846 1.516 . S
C846 C845 1.516 . S
C846 C847 1.502 . S
C846 C848 1.561 . S
C846 C849 1.526 . S
C847 H831 0.959 . S
C847 H832 0.959 . S
C847 H833 0.961 . S
C847 C846 1.502 . S
C848 H834 0.960 . S
C848 H835 0.961 . S
C848 H836 0.959 . S
C848 C846 1.561 . S
C849 C846 1.526 . S
C849 C850 1.396 . S
C849 C854 1.390 . S
C850 C844 1.465 . S
C850 C849 1.396 . S
C850 C851 1.399 . S
C851 H837 0.929 . S
C851 C850 1.399 . S
C851 C852 1.385 . S
C852 H838 0.931 . S
C852 C851 1.385 . S
C852 C853 1.389 . S
C853 C852 1.389 . S
C853 C854 1.387 . S
C854 H839 0.930 . S
C854 C849 1.390 . S
C854 C853 1.387 . S
H855 C867 0.930 . S
H856 C869 0.930 . S
H857 C870 0.930 . S
H858 C874 0.959 . S
H859 C874 0.959 . S
H860 C874 0.961 . S
H861 C875 0.960 . S
H862 C875 0.961 . S
H863 C875 0.959 . S
H864 C878 0.929 . S
H865 C879 0.931 . S
H866 C881 0.930 . S
C867 H855 0.930 . S
C867 C868 1.399 . S
C867 C872 1.399 . S
C868 C867 1.399 . S
C868 C869 1.376 . S
C869 H856 0.930 . S
C869 C868 1.376 . S
C869 C870 1.388 . S
C870 H857 0.930 . S
C870 C869 1.388 . S
C870 C871 1.390 . S
C871 C870 1.390 . S
C871 C872 1.394 . S
C871 C877 1.465 . S
C872 C867 1.399 . S
C872 C871 1.394 . S
C872 C873 1.516 . S
C873 C872 1.516 . S
C873 C874 1.502 . S
C873 C875 1.561 . S
C873 C876 1.526 . S
C874 H858 0.959 . S
C874 H859 0.959 . S
C874 H860 0.961 . S
C874 C873 1.502 . S
C875 H861 0.960 . S
C875 H862 0.961 . S
C875 H863 0.959 . S
C875 C873 1.561 . S
C876 C873 1.526 . S
C876 C877 1.396 . S
C876 C881 1.390 . S
C877 C871 1.465 . S
C877 C876 1.396 . S
C877 C878 1.399 . S
C878 H864 0.929 . S
C878 C877 1.399 . S
C878 C879 1.385 . S
C879 H865 0.931 . S
C879 C878 1.385 . S
C879 C880 1.389 . S
C880 C879 1.389 . S
C880 C881 1.387 . S
C881 H866 0.930 . S
C881 C876 1.390 . S
C881 C880 1.387 . S
H882 C894 0.930 . S
H883 C896 0.930 . S
H884 C897 0.930 . S
H885 C901 0.959 . S
H886 C901 0.959 . S
H887 C901 0.961 . S
H888 C902 0.960 . S
H889 C902 0.961 . S
H890 C902 0.959 . S
H891 C905 0.929 . S
H892 C906 0.931 . S
H893 C908 0.930 . S
C894 H882 0.930 . S
C894 C895 1.399 . S
C894 C899 1.399 . S
C895 C894 1.399 . S
C895 C896 1.376 . S
C896 H883 0.930 . S
C896 C895 1.376 . S
C896 C897 1.388 . S
C897 H884 0.930 . S
C897 C896 1.388 . S
C897 C898 1.390 . S
C898 C897 1.390 . S
C898 C899 1.394 . S
C898 C904 1.465 . S
C899 C894 1.399 . S
C899 C898 1.394 . S
C899 C900 1.516 . S
C900 C899 1.516 . S
C900 C901 1.502 . S
C900 C902 1.561 . S
C900 C903 1.526 . S
C901 H885 0.959 . S
C901 H886 0.959 . S
C901 H887 0.961 . S
C901 C900 1.502 . S
C902 H888 0.960 . S
C902 H889 0.961 . S
C902 H890 0.959 . S
C902 C900 1.561 . S
C903 C900 1.526 . S
C903 C904 1.396 . S
C903 C908 1.390 . S
C904 C898 1.465 . S
C904 C903 1.396 . S
C904 C905 1.399 . S
C905 H891 0.929 . S
C905 C904 1.399 . S
C905 C906 1.385 . S
C906 H892 0.931 . S
C906 C905 1.385 . S
C906 C907 1.389 . S
C907 C906 1.389 . S
C907 C908 1.387 . S
C908 H893 0.930 . S
C908 C903 1.390 . S
C908 C907 1.387 . S
H909 C921 0.930 . S
H910 C923 0.930 . S
H911 C924 0.930 . S
H912 C928 0.959 . S
H913 C928 0.959 . S
H914 C928 0.961 . S
H915 C929 0.960 . S
H916 C929 0.961 . S
H917 C929 0.959 . S
H918 C932 0.929 . S
H919 C933 0.931 . S
H920 C935 0.930 . S
C921 H909 0.930 . S
C921 C922 1.399 . S
C921 C926 1.399 . S
C922 C921 1.399 . S
C922 C923 1.376 . S
C923 H910 0.930 . S
C923 C922 1.376 . S
C923 C924 1.388 . S
C924 H911 0.930 . S
C924 C923 1.388 . S
C924 C925 1.390 . S
C925 C924 1.390 . S
C925 C926 1.394 . S
C925 C931 1.465 . S
C926 C921 1.399 . S
C926 C925 1.394 . S
C926 C927 1.516 . S
C927 C926 1.516 . S
C927 C928 1.502 . S
C927 C929 1.561 . S
C927 C930 1.526 . S
C928 H912 0.959 . S
C928 H913 0.959 . S
C928 H914 0.961 . S
C928 C927 1.502 . S
C929 H915 0.960 . S
C929 H916 0.961 . S
C929 H917 0.959 . S
C929 C927 1.561 . S
C930 C927 1.526 . S
C930 C931 1.396 . S
C930 C935 1.390 . S
C931 C925 1.465 . S
C931 C930 1.396 . S
C931 C932 1.399 . S
C932 H918 0.929 . S
C932 C931 1.399 . S
C932 C933 1.385 . S
C933 H919 0.931 . S
C933 C932 1.385 . S
C933 C934 1.389 . S
C934 C933 1.389 . S
C934 C935 1.387 . S
C935 H920 0.930 . S
C935 C930 1.390 . S
C935 C934 1.387 . S
H936 C948 0.930 . S
H937 C950 0.930 . S
H938 C951 0.930 . S
H939 C955 0.959 . S
H940 C955 0.959 . S
H941 C955 0.961 . S
H942 C956 0.960 . S
H943 C956 0.961 . S
H944 C956 0.959 . S
H945 C959 0.929 . S
H946 C960 0.931 . S
H947 C962 0.930 . S
C948 H936 0.930 . S
C948 C949 1.399 . S
C948 C953 1.399 . S
C949 C948 1.399 . S
C949 C950 1.376 . S
C950 H937 0.930 . S
C950 C949 1.376 . S
C950 C951 1.388 . S
C951 H938 0.930 . S
C951 C950 1.388 . S
C951 C952 1.390 . S
C952 C951 1.390 . S
C952 C953 1.394 . S
C952 C958 1.465 . S
C953 C948 1.399 . S
C953 C952 1.394 . S
C953 C954 1.516 . S
C954 C953 1.516 . S
C954 C955 1.502 . S
C954 C956 1.561 . S
C954 C957 1.526 . S
C955 H939 0.959 . S
C955 H940 0.959 . S
C955 H941 0.961 . S
C955 C954 1.502 . S
C956 H942 0.960 . S
C956 H943 0.961 . S
C956 H944 0.959 . S
C956 C954 1.561 . S
C957 C954 1.526 . S
C957 C958 1.396 . S
C957 C962 1.390 . S
C958 C952 1.465 . S
C958 C957 1.396 . S
C958 C959 1.399 . S
C959 H945 0.929 . S
C959 C958 1.399 . S
C959 C960 1.385 . S
C960 H946 0.931 . S
C960 C959 1.385 . S
C960 C961 1.389 . S
C961 C960 1.389 . S
C961 C962 1.387 . S
C962 H947 0.930 . S
C962 C957 1.390 . S
C962 C961 1.387 . S
H963 C975 0.930 . S
H964 C977 0.930 . S
H965 C978 0.930 . S
H966 C982 0.959 . S
H967 C982 0.959 . S
H968 C982 0.961 . S
H969 C983 0.960 . S
H970 C983 0.961 . S
H971 C983 0.959 . S
H972 C986 0.929 . S
H973 C987 0.931 . S
H974 C989 0.930 . S
C975 H963 0.930 . S
C975 C976 1.399 . S
C975 C980 1.399 . S
C976 C975 1.399 . S
C976 C977 1.376 . S
C977 H964 0.930 . S
C977 C976 1.376 . S
C977 C978 1.388 . S
C978 H965 0.930 . S
C978 C977 1.388 . S
C978 C979 1.390 . S
C979 C978 1.390 . S
C979 C980 1.394 . S
C979 C985 1.465 . S
C980 C975 1.399 . S
C980 C979 1.394 . S
C980 C981 1.516 . S
C981 C980 1.516 . S
C981 C982 1.502 . S
C981 C983 1.561 . S
C981 C984 1.526 . S
C982 H966 0.959 . S
C982 H967 0.959 . S
C982 H968 0.961 . S
C982 C981 1.502 . S
C983 H969 0.960 . S
C983 H970 0.961 . S
C983 H971 0.959 . S
C983 C981 1.561 . S
C984 C981 1.526 . S
C984 C985 1.396 . S
C984 C989 1.390 . S
C985 C979 1.465 . S
C985 C984 1.396 . S
C985 C986 1.399 . S
C986 H972 0.929 . S
C986 C985 1.399 . S
C986 C987 1.385 . S
C987 H973 0.931 . S
C987 C986 1.385 . S
C987 C988 1.389 . S
C988 C987 1.389 . S
C988 C989 1.387 . S
C989 H974 0.930 . S
C989 C984 1.390 . S
C989 C988 1.387 . S
H990 C1002 0.930 . S
H991 C1004 0.930 . S
H992 C1005 0.930 . S
H993 C1009 0.959 . S
H994 C1009 0.959 . S
H995 C1009 0.961 . S
H996 C1010 0.960 1_455 S
H997 C1010 0.961 . S
H998 C1010 0.959 . S
H999 C1013 0.929 . S
H1000 C1014 0.931 . S
H1001 C1016 0.930 1_554 S
C1002 H990 0.930 . S
C1002 C1003 1.399 . S
C1002 C1007 1.399 . S
C1003 C1002 1.399 . S
C1003 C1004 1.376 1_554 S
C1004 H991 0.930 . S
C1004 C1003 1.376 1_556 S
C1004 C1005 1.388 . S
C1005 H992 0.930 . S
C1005 C1004 1.388 . S
C1005 C1006 1.390 . S
C1006 C1005 1.390 . S
C1006 C1007 1.394 1_556 S
C1006 C1012 1.465 1_455 S
C1007 C1002 1.399 . S
C1007 C1006 1.394 1_554 S
C1007 C1008 1.516 1_455 S
C1008 C1007 1.516 1_655 S
C1008 C1009 1.502 . S
C1008 C1010 1.561 . S
C1008 C1011 1.526 . S
C1009 H993 0.959 . S
C1009 H994 0.959 . S
C1009 H995 0.961 . S
C1009 C1008 1.502 . S
C1010 H996 0.960 1_655 S
C1010 H997 0.961 . S
C1010 H998 0.959 . S
C1010 C1008 1.561 . S
C1011 C1008 1.526 . S
C1011 C1012 1.396 1_554 S
C1011 C1016 1.390 1_554 S
C1012 C1006 1.465 1_655 S
C1012 C1011 1.396 1_556 S
C1012 C1013 1.399 . S
C1013 H999 0.929 . S
C1013 C1012 1.399 . S
C1013 C1014 1.385 . S
C1014 H1000 0.931 . S
C1014 C1013 1.385 . S
C1014 C1015 1.389 . S
C1015 C1014 1.389 . S
C1015 C1016 1.387 . S
C1016 H1001 0.930 1_556 S
C1016 C1011 1.390 1_556 S
C1016 C1015 1.387 . S
H1017 C1029 0.930 . S
H1018 C1031 0.930 . S
H1019 C1032 0.930 . S
H1020 C1036 0.959 1_556 S
H1021 C1036 0.959 . S
H1022 C1036 0.961 . S
H1023 C1037 0.960 . S
H1024 C1037 0.961 . S
H1025 C1037 0.959 . S
H1026 C1040 0.929 . S
H1027 C1041 0.931 . S
H1028 C1043 0.930 . S
C1029 H1017 0.930 . S
C1029 C1030 1.399 . S
C1029 C1034 1.396 1_556 S
C1030 C1029 1.399 . S
C1030 C1031 1.376 . S
C1031 H1018 0.930 . S
C1031 C1030 1.376 . S
C1031 C1032 1.388 . S
C1032 H1019 0.930 . S
C1032 C1031 1.388 . S
C1032 C1033 1.390 . S
C1033 C1032 1.390 . S
C1033 C1034 1.390 1_556 S
C1033 C1039 1.468 . S
C1034 C1029 1.396 1_554 S
C1034 C1033 1.390 1_554 S
C1034 C1035 1.522 . S
C1035 C1034 1.522 . S
C1035 C1036 1.502 . S
C1035 C1037 1.561 . S
C1035 C1038 1.526 . S
C1036 H1020 0.959 1_554 S
C1036 H1021 0.959 . S
C1036 H1022 0.961 . S
C1036 C1035 1.502 . S
C1037 H1023 0.960 . S
C1037 H1024 0.961 . S
C1037 H1025 0.959 . S
C1037 C1035 1.561 . S
C1038 C1035 1.526 . S
C1038 C1039 1.391 1_554 S
C1038 C1043 1.390 . S
C1039 C1033 1.468 . S
C1039 C1038 1.391 1_556 S
C1039 C1040 1.400 . S
C1040 H1026 0.929 . S
C1040 C1039 1.400 . S
C1040 C1041 1.385 1_556 S
C1041 H1027 0.931 . S
C1041 C1040 1.385 1_554 S
C1041 C1042 1.389 . S
C1042 C1041 1.389 . S
C1042 C1043 1.387 . S
C1043 H1028 0.930 . S
C1043 C1038 1.390 . S
C1043 C1042 1.387 . S
H1044 C1056 0.930 1_556 S
H1045 C1058 0.930 . S
H1046 C1059 0.930 . S
H1047 C1063 0.959 . S
H1048 C1063 0.959 . S
H1049 C1063 0.961 . S
H1050 C1064 0.960 . S
H1051 C1064 0.958 1_545 S
H1052 C1064 1.012 . S
H1053 C1067 0.929 . S
H1054 C1068 0.931 . S
H1055 C1070 0.930 . S
C1056 H1044 0.930 1_554 S
C1056 C1057 1.399 . S
C1056 C1061 1.399 1_554 S
C1057 C1056 1.399 . S
C1057 C1058 1.376 . S
C1058 H1045 0.930 . S
C1058 C1057 1.376 . S
C1058 C1059 1.388 . S
C1059 H1046 0.930 . S
C1059 C1058 1.388 . S
C1059 C1060 1.390 . S
C1060 C1059 1.390 . S
C1060 C1061 1.394 1_554 S
C1060 C1066 1.465 1_565 S
C1061 C1056 1.399 1_556 S
C1061 C1060 1.394 1_556 S
C1061 C1062 1.516 . S
C1062 C1061 1.516 . S
C1062 C1063 1.502 . S
C1062 C1064 1.561 . S
C1062 C1065 1.526 1_565 S
C1063 H1047 0.959 . S
C1063 H1048 0.959 . S
C1063 H1049 0.961 . S
C1063 C1062 1.502 . S
C1064 H1050 0.960 . S
C1064 H1051 0.958 1_565 S
C1064 H1052 1.012 . S
C1064 C1062 1.561 . S
C1065 C1062 1.526 1_545 S
C1065 C1066 1.396 1_556 S
C1065 C1070 1.390 . S
C1066 C1060 1.465 1_545 S
C1066 C1065 1.396 1_554 S
C1066 C1067 1.399 . S
C1067 H1053 0.929 . S
C1067 C1066 1.399 . S
C1067 C1068 1.385 . S
C1068 H1054 0.931 . S
C1068 C1067 1.385 . S
C1068 C1069 1.389 1_554 S
C1069 C1068 1.389 1_556 S
C1069 C1070 1.387 . S
C1070 H1055 0.930 . S
C1070 C1065 1.390 . S
C1070 C1069 1.387 . S
H1071 C1083 0.930 . S
H1072 C1085 0.930 . S
H1073 C1086 0.930 . S
H1074 C1090 0.959 . S
H1075 C1090 0.959 1_554 S
H1076 C1090 0.961 1_655 S
H1077 C1091 0.960 . S
H1078 C1091 0.981 . S
H1079 C1091 0.959 . S
H1080 C1094 0.929 . S
H1081 C1095 0.931 . S
H1082 C1097 0.930 . S
C1083 H1071 0.930 . S
C1083 C1084 1.399 . S
C1083 C1088 1.399 . S
C1084 C1083 1.399 . S
C1084 C1085 1.376 . S
C1085 H1072 0.930 . S
C1085 C1084 1.376 . S
C1085 C1086 1.388 . S
C1086 H1073 0.930 . S
C1086 C1085 1.388 . S
C1086 C1087 1.390 . S
C1087 C1086 1.390 . S
C1087 C1088 1.394 . S
C1087 C1093 1.465 1_656 S
C1088 C1083 1.399 . S
C1088 C1087 1.394 . S
C1088 C1089 1.516 1_556 S
C1089 C1088 1.516 1_554 S
C1089 C1090 1.502 1_654 S
C1089 C1091 1.561 . S
C1089 C1092 1.526 1_655 S
C1090 H1074 0.959 . S
C1090 H1075 0.959 1_556 S
C1090 H1076 0.961 1_455 S
C1090 C1089 1.502 1_456 S
C1091 H1077 0.960 . S
C1091 H1078 0.981 . S
C1091 H1079 0.959 . S
C1091 C1089 1.561 . S
C1092 C1089 1.526 1_455 S
C1092 C1093 1.396 . S
C1092 C1097 1.390 . S
C1093 C1087 1.465 1_454 S
C1093 C1092 1.396 . S
C1093 C1094 1.399 . S
C1094 H1080 0.929 . S
C1094 C1093 1.399 . S
C1094 C1095 1.385 . S
C1095 H1081 0.931 . S
C1095 C1094 1.385 . S
C1095 C1096 1.389 . S
C1096 C1095 1.389 . S
C1096 C1097 1.387 . S
C1097 H1082 0.930 . S
C1097 C1092 1.390 . S
C1097 C1096 1.387 . S
H1098 C1110 0.930 . S
H1099 C1112 0.930 . S
H1100 C1113 0.930 . S
H1101 C1117 0.959 1_554 S
H1102 C1117 0.959 . S
H1103 C1117 0.961 . S
H1104 C1118 0.960 . S
H1105 C1118 0.961 . S
H1106 C1118 0.959 . S
H1107 C1121 0.929 . S
H1108 C1122 0.931 . S
H1109 C1124 0.930 . S
C1110 H1098 0.930 . S
C1110 C1111 1.399 . S
C1110 C1115 1.399 . S
C1111 C1110 1.399 . S
C1111 C1112 1.376 . S
C1112 H1099 0.930 . S
C1112 C1111 1.376 . S
C1112 C1113 1.388 1_556 S
C1113 H1100 0.930 . S
C1113 C1112 1.388 1_554 S
C1113 C1114 1.390 1_554 S
C1114 C1113 1.390 1_556 S
C1114 C1115 1.394 . S
C1114 C1120 1.465 1_556 S
C1115 C1110 1.399 . S
C1115 C1114 1.394 . S
C1115 C1116 1.516 . S
C1116 C1115 1.516 . S
C1116 C1117 1.502 . S
C1116 C1118 1.561 . S
C1116 C1119 1.526 1_556 S
C1117 H1101 0.959 1_556 S
C1117 H1102 0.959 . S
C1117 H1103 0.961 . S
C1117 C1116 1.502 . S
C1118 H1104 0.960 . S
C1118 H1105 0.961 . S
C1118 H1106 0.959 . S
C1118 C1116 1.561 . S
C1119 C1116 1.526 1_554 S
C1119 C1120 1.396 . S
C1119 C1124 1.390 . S
C1120 C1114 1.465 1_554 S
C1120 C1119 1.396 . S
C1120 C1121 1.399 . S
C1121 H1107 0.929 . S
C1121 C1120 1.399 . S
C1121 C1122 1.385 . S
C1122 H1108 0.931 . S
C1122 C1121 1.385 . S
C1122 C1123 1.389 . S
C1123 C1122 1.389 . S
C1123 C1124 1.387 . S
C1124 H1109 0.930 . S
C1124 C1119 1.390 . S
C1124 C1123 1.387 . S
H1125 C1137 0.930 . S
H1126 C1139 0.930 . S
H1127 C1140 0.930 . S
H1128 C1144 0.959 . S
H1129 C1144 0.959 . S
H1130 C1144 0.961 . S
H1131 C1145 0.960 . S
H1132 C1145 0.961 . S
H1133 C1145 0.959 . S
H1134 C1148 0.929 . S
H1135 C1149 0.931 . S
H1136 C1151 0.930 1_556 S
C1137 H1125 0.930 . S
C1137 C1138 1.399 . S
C1137 C1142 1.399 . S
C1138 C1137 1.399 . S
C1138 C1139 1.376 1_556 S
C1139 H1126 0.930 . S
C1139 C1138 1.376 1_554 S
C1139 C1140 1.388 . S
C1140 H1127 0.930 . S
C1140 C1139 1.388 . S
C1140 C1141 1.390 . S
C1141 C1140 1.390 . S
C1141 C1142 1.394 1_554 S
C1141 C1147 1.465 1_545 S
C1142 C1137 1.399 . S
C1142 C1141 1.394 1_556 S
C1142 C1143 1.516 1_545 S
C1143 C1142 1.516 1_565 S
C1143 C1144 1.502 . S
C1143 C1145 1.561 . S
C1143 C1146 1.526 . S
C1144 H1128 0.959 . S
C1144 H1129 0.959 . S
C1144 H1130 0.961 . S
C1144 C1143 1.502 . S
C1145 H1131 0.960 . S
C1145 H1132 0.961 . S
C1145 H1133 0.959 . S
C1145 C1143 1.561 . S
C1146 C1143 1.526 . S
C1146 C1147 1.396 1_556 S
C1146 C1151 1.390 1_556 S
C1147 C1141 1.465 1_565 S
C1147 C1146 1.396 1_554 S
C1147 C1148 1.399 . S
C1148 H1134 0.929 . S
C1148 C1147 1.399 . S
C1148 C1149 1.385 . S
C1149 H1135 0.931 . S
C1149 C1148 1.385 . S
C1149 C1150 1.389 . S
C1150 C1149 1.389 . S
C1150 C1151 1.387 . S
C1151 H1136 0.930 1_554 S
C1151 C1146 1.390 1_554 S
C1151 C1150 1.387 . S
H1152 C1164 0.930 . S
H1153 C1166 0.930 . S
H1154 C1167 0.930 . S
H1155 C1171 0.959 . S
H1156 C1171 0.959 . S
H1157 C1171 0.961 . S
H1158 C1172 0.960 . S
H1159 C1172 0.961 . S
H1160 C1172 0.959 . S
H1161 C1175 0.929 . S
H1162 C1176 0.931 . S
H1163 C1178 0.930 . S
C1164 H1152 0.930 . S
C1164 C1165 1.399 . S
C1164 C1169 1.399 . S
C1165 C1164 1.399 . S
C1165 C1166 1.376 . S
C1166 H1153 0.930 . S
C1166 C1165 1.376 . S
C1166 C1167 1.388 . S
C1167 H1154 0.930 . S
C1167 C1166 1.388 . S
C1167 C1168 1.390 . S
C1168 C1167 1.390 . S
C1168 C1169 1.394 . S
C1168 C1174 1.465 . S
C1169 C1164 1.399 . S
C1169 C1168 1.394 . S
C1169 C1170 1.516 . S
C1170 C1169 1.516 . S
C1170 C1171 1.502 . S
C1170 C1172 1.561 . S
C1170 C1173 1.526 . S
C1171 H1155 0.959 . S
C1171 H1156 0.959 . S
C1171 H1157 0.961 . S
C1171 C1170 1.502 . S
C1172 H1158 0.960 . S
C1172 H1159 0.961 . S
C1172 H1160 0.959 . S
C1172 C1170 1.561 . S
C1173 C1170 1.526 . S
C1173 C1174 1.396 . S
C1173 C1178 1.390 . S
C1174 C1168 1.465 . S
C1174 C1173 1.396 . S
C1174 C1175 1.399 . S
C1175 H1161 0.929 . S
C1175 C1174 1.399 . S
C1175 C1176 1.385 . S
C1176 H1162 0.931 . S
C1176 C1175 1.385 . S
C1176 C1177 1.389 . S
C1177 C1176 1.389 . S
C1177 C1178 1.387 . S
C1178 H1163 0.930 . S
C1178 C1173 1.390 . S
C1178 C1177 1.387 . S
H1179 C1191 0.930 . S
H1180 C1193 0.930 . S
H1181 C1194 0.930 . S
H1182 C1198 0.959 . S
H1183 C1198 0.959 . S
H1184 C1198 0.961 . S
H1185 C1199 0.960 . S
H1186 C1199 0.961 . S
H1187 C1199 0.959 . S
H1188 C1202 0.929 . S
H1189 C1203 0.931 . S
H1190 C1205 0.930 . S
C1191 H1179 0.930 . S
C1191 C1192 1.399 . S
C1191 C1196 1.399 . S
C1192 C1191 1.399 . S
C1192 C1193 1.376 . S
C1193 H1180 0.930 . S
C1193 C1192 1.376 . S
C1193 C1194 1.388 . S
C1194 H1181 0.930 . S
C1194 C1193 1.388 . S
C1194 C1195 1.390 . S
C1195 C1194 1.390 . S
C1195 C1196 1.394 . S
C1195 C1201 1.465 . S
C1196 C1191 1.399 . S
C1196 C1195 1.394 . S
C1196 C1197 1.516 . S
C1197 C1196 1.516 . S
C1197 C1198 1.502 . S
C1197 C1199 1.561 . S
C1197 C1200 1.526 . S
C1198 H1182 0.959 . S
C1198 H1183 0.959 . S
C1198 H1184 0.961 . S
C1198 C1197 1.502 . S
C1199 H1185 0.960 . S
C1199 H1186 0.961 . S
C1199 H1187 0.959 . S
C1199 C1197 1.561 . S
C1200 C1197 1.526 . S
C1200 C1201 1.396 . S
C1200 C1205 1.390 . S
C1201 C1195 1.465 . S
C1201 C1200 1.396 . S
C1201 C1202 1.399 . S
C1202 H1188 0.929 . S
C1202 C1201 1.399 . S
C1202 C1203 1.385 . S
C1203 H1189 0.931 . S
C1203 C1202 1.385 . S
C1203 C1204 1.389 . S
C1204 C1203 1.389 . S
C1204 C1205 1.387 . S
C1205 H1190 0.930 . S
C1205 C1200 1.390 . S
C1205 C1204 1.387 . S
H1206 C1218 0.930 . S
H1207 C1220 0.930 . S
H1208 C1221 0.930 . S
H1209 C1225 0.959 . S
H1210 C1225 0.959 . S
H1211 C1225 0.961 . S
H1212 C1226 0.960 . S
H1213 C1226 0.961 . S
H1214 C1226 0.959 . S
H1215 C1229 0.929 . S
H1216 C1230 0.931 . S
H1217 C1232 0.930 . S
C1218 H1206 0.930 . S
C1218 C1219 1.399 . S
C1218 C1223 1.399 . S
C1219 C1218 1.399 . S
C1219 C1220 1.376 . S
C1220 H1207 0.930 . S
C1220 C1219 1.376 . S
C1220 C1221 1.388 . S
C1221 H1208 0.930 . S
C1221 C1220 1.388 . S
C1221 C1222 1.390 . S
C1222 C1221 1.390 . S
C1222 C1223 1.394 . S
C1222 C1228 1.465 . S
C1223 C1218 1.399 . S
C1223 C1222 1.394 . S
C1223 C1224 1.516 . S
C1224 C1223 1.516 . S
C1224 C1225 1.502 . S
C1224 C1226 1.561 . S
C1224 C1227 1.526 . S
C1225 H1209 0.959 . S
C1225 H1210 0.959 . S
C1225 H1211 0.961 . S
C1225 C1224 1.502 . S
C1226 H1212 0.960 . S
C1226 H1213 0.961 . S
C1226 H1214 0.959 . S
C1226 C1224 1.561 . S
C1227 C1224 1.526 . S
C1227 C1228 1.396 . S
C1227 C1232 1.390 . S
C1228 C1222 1.465 . S
C1228 C1227 1.396 . S
C1228 C1229 1.399 . S
C1229 H1215 0.929 . S
C1229 C1228 1.399 . S
C1229 C1230 1.385 . S
C1230 H1216 0.931 . S
C1230 C1229 1.385 . S
C1230 C1231 1.389 . S
C1231 C1230 1.389 . S
C1231 C1232 1.387 . S
C1232 H1217 0.930 . S
C1232 C1227 1.390 . S
C1232 C1231 1.387 . S
H1233 C1245 0.930 . S
H1234 C1247 0.930 . S
H1235 C1248 0.930 . S
H1236 C1252 0.959 . S
H1237 C1252 0.959 . S
H1238 C1252 0.961 . S
H1239 C1253 0.960 . S
H1240 C1253 0.961 . S
H1241 C1253 0.959 . S
H1242 C1256 0.929 . S
H1243 C1257 0.931 . S
H1244 C1259 0.930 . S
C1245 H1233 0.930 . S
C1245 C1246 1.399 . S
C1245 C1250 1.399 . S
C1246 C1245 1.399 . S
C1246 C1247 1.376 . S
C1247 H1234 0.930 . S
C1247 C1246 1.376 . S
C1247 C1248 1.388 . S
C1248 H1235 0.930 . S
C1248 C1247 1.388 . S
C1248 C1249 1.390 . S
C1249 C1248 1.390 . S
C1249 C1250 1.394 . S
C1249 C1255 1.465 . S
C1250 C1245 1.399 . S
C1250 C1249 1.394 . S
C1250 C1251 1.516 . S
C1251 C1250 1.516 . S
C1251 C1252 1.502 . S
C1251 C1253 1.561 . S
C1251 C1254 1.526 . S
C1252 H1236 0.959 . S
C1252 H1237 0.959 . S
C1252 H1238 0.961 . S
C1252 C1251 1.502 . S
C1253 H1239 0.960 . S
C1253 H1240 0.961 . S
C1253 H1241 0.959 . S
C1253 C1251 1.561 . S
C1254 C1251 1.526 . S
C1254 C1255 1.396 . S
C1254 C1259 1.390 . S
C1255 C1249 1.465 . S
C1255 C1254 1.396 . S
C1255 C1256 1.399 . S
C1256 H1242 0.929 . S
C1256 C1255 1.399 . S
C1256 C1257 1.385 . S
C1257 H1243 0.931 . S
C1257 C1256 1.385 . S
C1257 C1258 1.389 . S
C1258 C1257 1.389 . S
C1258 C1259 1.387 . S
C1259 H1244 0.930 . S
C1259 C1254 1.390 . S
C1259 C1258 1.387 . S
H1260 C1272 0.930 . S
H1261 C1274 0.930 . S
H1262 C1275 0.930 . S
H1263 C1279 0.959 . S
H1264 C1279 0.959 . S
H1265 C1279 0.961 . S
H1266 C1280 0.960 . S
H1267 C1280 0.961 . S
H1268 C1280 0.959 . S
H1269 C1283 0.929 . S
H1270 C1284 0.931 . S
H1271 C1286 0.930 . S
C1272 H1260 0.930 . S
C1272 C1273 1.399 . S
C1272 C1277 1.399 . S
C1273 C1272 1.399 . S
C1273 C1274 1.376 . S
C1274 H1261 0.930 . S
C1274 C1273 1.376 . S
C1274 C1275 1.388 . S
C1275 H1262 0.930 . S
C1275 C1274 1.388 . S
C1275 C1276 1.390 . S
C1276 C1275 1.390 . S
C1276 C1277 1.394 . S
C1276 C1282 1.465 . S
C1277 C1272 1.399 . S
C1277 C1276 1.394 . S
C1277 C1278 1.516 . S
C1278 C1277 1.516 . S
C1278 C1279 1.502 . S
C1278 C1280 1.561 . S
C1278 C1281 1.526 . S
C1279 H1263 0.959 . S
C1279 H1264 0.959 . S
C1279 H1265 0.961 . S
C1279 C1278 1.502 . S
C1280 H1266 0.960 . S
C1280 H1267 0.961 . S
C1280 H1268 0.959 . S
C1280 C1278 1.561 . S
C1281 C1278 1.526 . S
C1281 C1282 1.396 . S
C1281 C1286 1.390 . S
C1282 C1276 1.465 . S
C1282 C1281 1.396 . S
C1282 C1283 1.399 . S
C1283 H1269 0.929 . S
C1283 C1282 1.399 . S
C1283 C1284 1.385 . S
C1284 H1270 0.931 . S
C1284 C1283 1.385 . S
C1284 C1285 1.389 . S
C1285 C1284 1.389 . S
C1285 C1286 1.387 . S
C1286 H1271 0.930 . S
C1286 C1281 1.390 . S
C1286 C1285 1.387 . S
H1287 C1299 0.930 . S
H1288 C1301 0.930 . S
H1289 C1302 0.930 . S
H1290 C1306 0.959 . S
H1291 C1306 0.959 . S
H1292 C1306 0.961 . S
H1293 C1307 0.960 . S
H1294 C1307 0.961 . S
H1295 C1307 0.959 . S
H1296 C1310 0.929 . S
H1297 C1311 0.931 . S
H1298 C1313 0.930 . S
C1299 H1287 0.930 . S
C1299 C1300 1.399 . S
C1299 C1304 1.399 . S
C1300 C1299 1.399 . S
C1300 C1301 1.376 . S
C1301 H1288 0.930 . S
C1301 C1300 1.376 . S
C1301 C1302 1.388 . S
C1302 H1289 0.930 . S
C1302 C1301 1.388 . S
C1302 C1303 1.390 . S
C1303 C1302 1.390 . S
C1303 C1304 1.394 . S
C1303 C1309 1.465 . S
C1304 C1299 1.399 . S
C1304 C1303 1.394 . S
C1304 C1305 1.516 . S
C1305 C1304 1.516 . S
C1305 C1306 1.502 . S
C1305 C1307 1.561 . S
C1305 C1308 1.526 . S
C1306 H1290 0.959 . S
C1306 H1291 0.959 . S
C1306 H1292 0.961 . S
C1306 C1305 1.502 . S
C1307 H1293 0.960 . S
C1307 H1294 0.961 . S
C1307 H1295 0.959 . S
C1307 C1305 1.561 . S
C1308 C1305 1.526 . S
C1308 C1309 1.396 . S
C1308 C1313 1.390 . S
C1309 C1303 1.465 . S
C1309 C1308 1.396 . S
C1309 C1310 1.399 . S
C1310 H1296 0.929 . S
C1310 C1309 1.399 . S
C1310 C1311 1.385 . S
C1311 H1297 0.931 . S
C1311 C1310 1.385 . S
C1311 C1312 1.389 . S
C1312 C1311 1.389 . S
C1312 C1313 1.387 . S
C1313 H1298 0.930 . S
C1313 C1308 1.390 . S
C1313 C1312 1.387 . S
H1314 C1326 0.930 . S
H1315 C1328 0.930 . S
H1316 C1329 0.930 . S
H1317 C1333 0.959 . S
H1318 C1333 0.959 . S
H1319 C1333 0.961 . S
H1320 C1334 0.960 . S
H1321 C1334 0.961 . S
H1322 C1334 0.959 . S
H1323 C1337 0.929 . S
H1324 C1338 0.931 . S
H1325 C1340 0.930 . S
C1326 H1314 0.930 . S
C1326 C1327 1.399 . S
C1326 C1331 1.399 . S
C1327 C1326 1.399 . S
C1327 C1328 1.376 . S
C1328 H1315 0.930 . S
C1328 C1327 1.376 . S
C1328 C1329 1.388 . S
C1329 H1316 0.930 . S
C1329 C1328 1.388 . S
C1329 C1330 1.390 . S
C1330 C1329 1.390 . S
C1330 C1331 1.394 . S
C1330 C1336 1.465 . S
C1331 C1326 1.399 . S
C1331 C1330 1.394 . S
C1331 C1332 1.516 . S
C1332 C1331 1.516 . S
C1332 C1333 1.502 . S
C1332 C1334 1.561 . S
C1332 C1335 1.526 . S
C1333 H1317 0.959 . S
C1333 H1318 0.959 . S
C1333 H1319 0.961 . S
C1333 C1332 1.502 . S
C1334 H1320 0.960 . S
C1334 H1321 0.961 . S
C1334 H1322 0.959 . S
C1334 C1332 1.561 . S
C1335 C1332 1.526 . S
C1335 C1336 1.396 . S
C1335 C1340 1.390 . S
C1336 C1330 1.465 . S
C1336 C1335 1.396 . S
C1336 C1337 1.399 . S
C1337 H1323 0.929 . S
C1337 C1336 1.399 . S
C1337 C1338 1.385 . S
C1338 H1324 0.931 . S
C1338 C1337 1.385 . S
C1338 C1339 1.389 . S
C1339 C1338 1.389 . S
C1339 C1340 1.387 . S
C1340 H1325 0.930 . S
C1340 C1335 1.390 . S
C1340 C1339 1.387 . S
H1341 C1353 0.930 . S
H1342 C1355 0.930 . S
H1343 C1356 0.930 . S
H1344 C1360 0.959 . S
H1345 C1360 0.959 . S
H1346 C1360 0.961 . S
H1347 C1361 0.960 . S
H1348 C1361 0.961 . S
H1349 C1361 0.959 . S
H1350 C1364 0.929 . S
H1351 C1365 0.931 . S
H1352 C1367 0.930 . S
C1353 H1341 0.930 . S
C1353 C1354 1.399 . S
C1353 C1358 1.399 . S
C1354 C1353 1.399 . S
C1354 C1355 1.376 . S
C1355 H1342 0.930 . S
C1355 C1354 1.376 . S
C1355 C1356 1.388 . S
C1356 H1343 0.930 . S
C1356 C1355 1.388 . S
C1356 C1357 1.390 . S
C1357 C1356 1.390 . S
C1357 C1358 1.394 . S
C1357 C1363 1.465 . S
C1358 C1353 1.399 . S
C1358 C1357 1.394 . S
C1358 C1359 1.516 . S
C1359 C1358 1.516 . S
C1359 C1360 1.502 . S
C1359 C1361 1.561 . S
C1359 C1362 1.526 . S
C1360 H1344 0.959 . S
C1360 H1345 0.959 . S
C1360 H1346 0.961 . S
C1360 C1359 1.502 . S
C1361 H1347 0.960 . S
C1361 H1348 0.961 . S
C1361 H1349 0.959 . S
C1361 C1359 1.561 . S
C1362 C1359 1.526 . S
C1362 C1363 1.396 . S
C1362 C1367 1.390 . S
C1363 C1357 1.465 . S
C1363 C1362 1.396 . S
C1363 C1364 1.399 . S
C1364 H1350 0.929 . S
C1364 C1363 1.399 . S
C1364 C1365 1.385 . S
C1365 H1351 0.931 . S
C1365 C1364 1.385 . S
C1365 C1366 1.389 . S
C1366 C1365 1.389 . S
C1366 C1367 1.387 . S
C1367 H1352 0.930 . S
C1367 C1362 1.390 . S
C1367 C1366 1.387 . S
H1368 C1380 0.930 . S
H1369 C1382 0.930 . S
H1370 C1383 0.930 . S
H1371 C1387 0.959 . S
H1372 C1387 0.959 . S
H1373 C1387 0.961 . S
H1374 C1388 0.960 . S
H1375 C1388 0.961 . S
H1376 C1388 0.959 . S
H1377 C1391 0.929 . S
H1378 C1392 0.931 . S
H1379 C1394 0.930 . S
C1380 H1368 0.930 . S
C1380 C1381 1.399 . S
C1380 C1385 1.399 . S
C1381 C1380 1.399 . S
C1381 C1382 1.376 . S
C1382 H1369 0.930 . S
C1382 C1381 1.376 . S
C1382 C1383 1.388 . S
C1383 H1370 0.930 . S
C1383 C1382 1.388 . S
C1383 C1384 1.390 . S
C1384 C1383 1.390 . S
C1384 C1385 1.394 . S
C1384 C1390 1.465 . S
C1385 C1380 1.399 . S
C1385 C1384 1.394 . S
C1385 C1386 1.516 . S
C1386 C1385 1.516 . S
C1386 C1387 1.502 . S
C1386 C1388 1.561 . S
C1386 C1389 1.526 . S
C1387 H1371 0.959 . S
C1387 H1372 0.959 . S
C1387 H1373 0.961 . S
C1387 C1386 1.502 . S
C1388 H1374 0.960 . S
C1388 H1375 0.961 . S
C1388 H1376 0.959 . S
C1388 C1386 1.561 . S
C1389 C1386 1.526 . S
C1389 C1390 1.396 . S
C1389 C1394 1.390 . S
C1390 C1384 1.465 . S
C1390 C1389 1.396 . S
C1390 C1391 1.399 . S
C1391 H1377 0.929 . S
C1391 C1390 1.399 . S
C1391 C1392 1.385 . S
C1392 H1378 0.931 . S
C1392 C1391 1.385 . S
C1392 C1393 1.389 . S
C1393 C1392 1.389 . S
C1393 C1394 1.387 . S
C1394 H1379 0.930 . S
C1394 C1389 1.390 . S
C1394 C1393 1.387 . S
H1395 C1407 0.930 . S
H1396 C1409 0.930 . S
H1397 C1410 0.930 . S
H1398 C1414 0.959 . S
H1399 C1414 0.959 . S
H1400 C1414 0.961 . S
H1401 C1415 0.960 . S
H1402 C1415 0.961 . S
H1403 C1415 0.959 . S
H1404 C1418 0.929 . S
H1405 C1419 0.931 . S
H1406 C1421 0.930 . S
C1407 H1395 0.930 . S
C1407 C1408 1.399 . S
C1407 C1412 1.399 . S
C1408 C1407 1.399 . S
C1408 C1409 1.376 . S
C1409 H1396 0.930 . S
C1409 C1408 1.376 . S
C1409 C1410 1.388 . S
C1410 H1397 0.930 . S
C1410 C1409 1.388 . S
C1410 C1411 1.390 . S
C1411 C1410 1.390 . S
C1411 C1412 1.394 . S
C1411 C1417 1.465 . S
C1412 C1407 1.399 . S
C1412 C1411 1.394 . S
C1412 C1413 1.516 . S
C1413 C1412 1.516 . S
C1413 C1414 1.502 . S
C1413 C1415 1.561 . S
C1413 C1416 1.526 . S
C1414 H1398 0.959 . S
C1414 H1399 0.959 . S
C1414 H1400 0.961 . S
C1414 C1413 1.502 . S
C1415 H1401 0.960 . S
C1415 H1402 0.961 . S
C1415 H1403 0.959 . S
C1415 C1413 1.561 . S
C1416 C1413 1.526 . S
C1416 C1417 1.396 . S
C1416 C1421 1.390 . S
C1417 C1411 1.465 . S
C1417 C1416 1.396 . S
C1417 C1418 1.399 . S
C1418 H1404 0.929 . S
C1418 C1417 1.399 . S
C1418 C1419 1.385 . S
C1419 H1405 0.931 . S
C1419 C1418 1.385 . S
C1419 C1420 1.389 . S
C1420 C1419 1.389 . S
C1420 C1421 1.387 . S
C1421 H1406 0.930 . S
C1421 C1416 1.390 . S
C1421 C1420 1.387 . S
H1422 C1434 0.930 . S
H1423 C1436 0.930 . S
H1424 C1437 0.930 . S
H1425 C1441 0.959 . S
H1426 C1441 0.959 . S
H1427 C1441 0.961 . S
H1428 C1442 0.960 . S
H1429 C1442 0.961 . S
H1430 C1442 0.959 . S
H1431 C1445 0.929 . S
H1432 C1446 0.931 . S
H1433 C1448 0.930 . S
C1434 H1422 0.930 . S
C1434 C1435 1.399 . S
C1434 C1439 1.399 . S
C1435 C1434 1.399 . S
C1435 C1436 1.376 . S
C1436 H1423 0.930 . S
C1436 C1435 1.376 . S
C1436 C1437 1.388 . S
C1437 H1424 0.930 . S
C1437 C1436 1.388 . S
C1437 C1438 1.390 . S
C1438 C1437 1.390 . S
C1438 C1439 1.394 . S
C1438 C1444 1.465 . S
C1439 C1434 1.399 . S
C1439 C1438 1.394 . S
C1439 C1440 1.516 . S
C1440 C1439 1.516 . S
C1440 C1441 1.502 . S
C1440 C1442 1.561 . S
C1440 C1443 1.526 . S
C1441 H1425 0.959 . S
C1441 H1426 0.959 . S
C1441 H1427 0.961 . S
C1441 C1440 1.502 . S
C1442 H1428 0.960 . S
C1442 H1429 0.961 . S
C1442 H1430 0.959 . S
C1442 C1440 1.561 . S
C1443 C1440 1.526 . S
C1443 C1444 1.396 . S
C1443 C1448 1.390 . S
C1444 C1438 1.465 . S
C1444 C1443 1.396 . S
C1444 C1445 1.399 . S
C1445 H1431 0.929 . S
C1445 C1444 1.399 . S
C1445 C1446 1.385 . S
C1446 H1432 0.931 . S
C1446 C1445 1.385 . S
C1446 C1447 1.389 . S
C1447 C1446 1.389 . S
C1447 C1448 1.387 . S
C1448 H1433 0.930 . S
C1448 C1443 1.390 . S
C1448 C1447 1.387 . S
H1449 C1461 0.930 . S
H1450 C1463 0.930 . S
H1451 C1464 0.930 . S
H1452 C1468 0.959 . S
H1453 C1468 0.959 . S
H1454 C1468 0.961 . S
H1455 C1469 0.960 . S
H1456 C1469 0.961 . S
H1457 C1469 0.959 . S
H1458 C1472 0.929 . S
H1459 C1473 0.931 . S
H1460 C1475 0.930 . S
C1461 H1449 0.930 . S
C1461 C1462 1.399 . S
C1461 C1466 1.399 . S
C1462 C1461 1.399 . S
C1462 C1463 1.376 . S
C1463 H1450 0.930 . S
C1463 C1462 1.376 . S
C1463 C1464 1.388 . S
C1464 H1451 0.930 . S
C1464 C1463 1.388 . S
C1464 C1465 1.390 . S
C1465 C1464 1.390 . S
C1465 C1466 1.394 . S
C1465 C1471 1.465 . S
C1466 C1461 1.399 . S
C1466 C1465 1.394 . S
C1466 C1467 1.516 . S
C1467 C1466 1.516 . S
C1467 C1468 1.502 . S
C1467 C1469 1.561 . S
C1467 C1470 1.526 . S
C1468 H1452 0.959 . S
C1468 H1453 0.959 . S
C1468 H1454 0.961 . S
C1468 C1467 1.502 . S
C1469 H1455 0.960 . S
C1469 H1456 0.961 . S
C1469 H1457 0.959 . S
C1469 C1467 1.561 . S
C1470 C1467 1.526 . S
C1470 C1471 1.396 . S
C1470 C1475 1.390 . S
C1471 C1465 1.465 . S
C1471 C1470 1.396 . S
C1471 C1472 1.399 . S
C1472 H1458 0.929 . S
C1472 C1471 1.399 . S
C1472 C1473 1.385 . S
C1473 H1459 0.931 . S
C1473 C1472 1.385 . S
C1473 C1474 1.389 . S
C1474 C1473 1.389 . S
C1474 C1475 1.387 . S
C1475 H1460 0.930 . S
C1475 C1470 1.390 . S
C1475 C1474 1.387 . S
H1476 C1488 0.930 . S
H1477 C1490 0.930 . S
H1478 C1491 0.930 . S
H1479 C1495 0.959 . S
H1480 C1495 0.959 . S
H1481 C1495 0.961 . S
H1482 C1496 0.960 . S
H1483 C1496 0.961 . S
H1484 C1496 0.959 . S
H1485 C1499 0.929 . S
H1486 C1500 0.931 . S
H1487 C1502 0.930 . S
C1488 H1476 0.930 . S
C1488 C1489 1.399 . S
C1488 C1493 1.399 . S
C1489 C1488 1.399 . S
C1489 C1490 1.376 . S
C1490 H1477 0.930 . S
C1490 C1489 1.376 . S
C1490 C1491 1.388 . S
C1491 H1478 0.930 . S
C1491 C1490 1.388 . S
C1491 C1492 1.390 . S
C1492 C1491 1.390 . S
C1492 C1493 1.394 . S
C1492 C1498 1.465 . S
C1493 C1488 1.399 . S
C1493 C1492 1.394 . S
C1493 C1494 1.516 . S
C1494 C1493 1.516 . S
C1494 C1495 1.502 . S
C1494 C1496 1.561 . S
C1494 C1497 1.526 . S
C1495 H1479 0.959 . S
C1495 H1480 0.959 . S
C1495 H1481 0.961 . S
C1495 C1494 1.502 . S
C1496 H1482 0.960 . S
C1496 H1483 0.961 . S
C1496 H1484 0.959 . S
C1496 C1494 1.561 . S
C1497 C1494 1.526 . S
C1497 C1498 1.396 . S
C1497 C1502 1.390 . S
C1498 C1492 1.465 . S
C1498 C1497 1.396 . S
C1498 C1499 1.399 . S
C1499 H1485 0.929 . S
C1499 C1498 1.399 . S
C1499 C1500 1.385 . S
C1500 H1486 0.931 . S
C1500 C1499 1.385 . S
C1500 C1501 1.389 . S
C1501 C1500 1.389 . S
C1501 C1502 1.387 . S
C1502 H1487 0.930 . S
C1502 C1497 1.390 . S
C1502 C1501 1.387 . S
H1503 C1515 0.930 . S
H1504 C1517 0.930 . S
H1505 C1518 0.930 . S
H1506 C1522 0.959 . S
H1507 C1522 0.959 . S
H1508 C1522 0.961 . S
H1509 C1523 0.960 . S
H1510 C1523 0.961 . S
H1511 C1523 0.959 . S
H1512 C1526 0.929 . S
H1513 C1527 0.931 . S
H1514 C1529 0.930 . S
C1515 H1503 0.930 . S
C1515 C1516 1.399 . S
C1515 C1520 1.399 . S
C1516 C1515 1.399 . S
C1516 C1517 1.376 . S
C1517 H1504 0.930 . S
C1517 C1516 1.376 . S
C1517 C1518 1.388 . S
C1518 H1505 0.930 . S
C1518 C1517 1.388 . S
C1518 C1519 1.390 . S
C1519 C1518 1.390 . S
C1519 C1520 1.394 . S
C1519 C1525 1.465 . S
C1520 C1515 1.399 . S
C1520 C1519 1.394 . S
C1520 C1521 1.516 . S
C1521 C1520 1.516 . S
C1521 C1522 1.502 . S
C1521 C1523 1.561 . S
C1521 C1524 1.526 . S
C1522 H1506 0.959 . S
C1522 H1507 0.959 . S
C1522 H1508 0.961 . S
C1522 C1521 1.502 . S
C1523 H1509 0.960 . S
C1523 H1510 0.961 . S
C1523 H1511 0.959 . S
C1523 C1521 1.561 . S
C1524 C1521 1.526 . S
C1524 C1525 1.396 . S
C1524 C1529 1.390 . S
C1525 C1519 1.465 . S
C1525 C1524 1.396 . S
C1525 C1526 1.399 . S
C1526 H1512 0.929 . S
C1526 C1525 1.399 . S
C1526 C1527 1.385 . S
C1527 H1513 0.931 . S
C1527 C1526 1.385 . S
C1527 C1528 1.389 . S
C1528 C1527 1.389 . S
C1528 C1529 1.387 . S
C1529 H1514 0.930 . S
C1529 C1524 1.390 . S
C1529 C1528 1.387 . S
H1530 C1542 0.930 . S
H1531 C1544 0.930 . S
H1532 C1545 0.930 . S
H1533 C1549 0.959 . S
H1534 C1549 0.959 . S
H1535 C1549 0.961 . S
H1536 C1550 0.960 . S
H1537 C1550 0.961 . S
H1538 C1550 0.959 . S
H1539 C1553 0.929 . S
H1540 C1554 0.931 . S
H1541 C1556 0.930 . S
C1542 H1530 0.930 . S
C1542 C1543 1.399 . S
C1542 C1547 1.399 . S
C1543 C1542 1.399 . S
C1543 C1544 1.376 . S
C1544 H1531 0.930 . S
C1544 C1543 1.376 . S
C1544 C1545 1.388 . S
C1545 H1532 0.930 . S
C1545 C1544 1.388 . S
C1545 C1546 1.390 . S
C1546 C1545 1.390 . S
C1546 C1547 1.394 . S
C1546 C1552 1.465 . S
C1547 C1542 1.399 . S
C1547 C1546 1.394 . S
C1547 C1548 1.516 . S
C1548 C1547 1.516 . S
C1548 C1549 1.502 . S
C1548 C1550 1.561 . S
C1548 C1551 1.526 . S
C1549 H1533 0.959 . S
C1549 H1534 0.959 . S
C1549 H1535 0.961 . S
C1549 C1548 1.502 . S
C1550 H1536 0.960 . S
C1550 H1537 0.961 . S
C1550 H1538 0.959 . S
C1550 C1548 1.561 . S
C1551 C1548 1.526 . S
C1551 C1552 1.396 . S
C1551 C1556 1.390 . S
C1552 C1546 1.465 . S
C1552 C1551 1.396 . S
C1552 C1553 1.399 . S
C1553 H1539 0.929 . S
C1553 C1552 1.399 . S
C1553 C1554 1.385 . S
C1554 H1540 0.931 . S
C1554 C1553 1.385 . S
C1554 C1555 1.389 . S
C1555 C1554 1.389 . S
C1555 C1556 1.387 . S
C1556 H1541 0.930 . S
C1556 C1551 1.390 . S
C1556 C1555 1.387 . S
H1557 C1569 0.930 . S
H1558 C1571 0.930 . S
H1559 C1572 0.930 . S
H1560 C1576 0.959 . S
H1561 C1576 0.959 . S
H1562 C1576 0.961 . S
H1563 C1577 0.960 . S
H1564 C1577 0.961 . S
H1565 C1577 0.959 . S
H1566 C1580 0.929 . S
H1567 C1581 0.931 . S
H1568 C1583 0.930 . S
C1569 H1557 0.930 . S
C1569 C1570 1.399 . S
C1569 C1574 1.399 . S
C1570 C1569 1.399 . S
C1570 C1571 1.376 . S
C1571 H1558 0.930 . S
C1571 C1570 1.376 . S
C1571 C1572 1.388 . S
C1572 H1559 0.930 . S
C1572 C1571 1.388 . S
C1572 C1573 1.390 . S
C1573 C1572 1.390 . S
C1573 C1574 1.394 . S
C1573 C1579 1.465 . S
C1574 C1569 1.399 . S
C1574 C1573 1.394 . S
C1574 C1575 1.516 . S
C1575 C1574 1.516 . S
C1575 C1576 1.502 . S
C1575 C1577 1.561 . S
C1575 C1578 1.526 . S
C1576 H1560 0.959 . S
C1576 H1561 0.959 . S
C1576 H1562 0.961 . S
C1576 C1575 1.502 . S
C1577 H1563 0.960 . S
C1577 H1564 0.961 . S
C1577 H1565 0.959 . S
C1577 C1575 1.561 . S
C1578 C1575 1.526 . S
C1578 C1579 1.396 . S
C1578 C1583 1.390 . S
C1579 C1573 1.465 . S
C1579 C1578 1.396 . S
C1579 C1580 1.399 . S
C1580 H1566 0.929 . S
C1580 C1579 1.399 . S
C1580 C1581 1.385 . S
C1581 H1567 0.931 . S
C1581 C1580 1.385 . S
C1581 C1582 1.389 . S
C1582 C1581 1.389 . S
C1582 C1583 1.387 . S
C1583 H1568 0.930 . S
C1583 C1578 1.390 . S
C1583 C1582 1.387 . S
H1584 C1596 0.930 . S
H1585 C1598 0.930 . S
H1586 C1599 0.930 . S
H1587 C1603 0.959 . S
H1588 C1603 0.959 . S
H1589 C1603 0.961 . S
H1590 C1604 0.960 . S
H1591 C1604 0.961 . S
H1592 C1604 0.959 . S
H1593 C1607 0.929 . S
H1594 C1608 0.931 . S
H1595 C1610 0.930 . S
C1596 H1584 0.930 . S
C1596 C1597 1.399 . S
C1596 C1601 1.399 . S
C1597 C1596 1.399 . S
C1597 C1598 1.376 . S
C1598 H1585 0.930 . S
C1598 C1597 1.376 . S
C1598 C1599 1.388 . S
C1599 H1586 0.930 . S
C1599 C1598 1.388 . S
C1599 C1600 1.390 . S
C1600 C1599 1.390 . S
C1600 C1601 1.394 . S
C1600 C1606 1.465 . S
C1601 C1596 1.399 . S
C1601 C1600 1.394 . S
C1601 C1602 1.516 . S
C1602 C1601 1.516 . S
C1602 C1603 1.502 . S
C1602 C1604 1.561 . S
C1602 C1605 1.526 . S
C1603 H1587 0.959 . S
C1603 H1588 0.959 . S
C1603 H1589 0.961 . S
C1603 C1602 1.502 . S
C1604 H1590 0.960 . S
C1604 H1591 0.961 . S
C1604 H1592 0.959 . S
C1604 C1602 1.561 . S
C1605 C1602 1.526 . S
C1605 C1606 1.396 . S
C1605 C1610 1.390 . S
C1606 C1600 1.465 . S
C1606 C1605 1.396 . S
C1606 C1607 1.399 . S
C1607 H1593 0.929 . S
C1607 C1606 1.399 . S
C1607 C1608 1.385 . S
C1608 H1594 0.931 . S
C1608 C1607 1.385 . S
C1608 C1609 1.389 . S
C1609 C1608 1.389 . S
C1609 C1610 1.387 . S
C1610 H1595 0.930 . S
C1610 C1605 1.390 . S
C1610 C1609 1.387 . S
H1611 C1623 0.930 . S
H1612 C1625 0.930 . S
H1613 C1626 0.930 . S
H1614 C1630 0.959 . S
H1615 C1630 0.959 . S
H1616 C1630 0.961 . S
H1617 C1631 0.960 . S
H1618 C1631 0.961 . S
H1619 C1631 0.959 . S
H1620 C1634 0.929 . S
H1621 C1635 0.931 . S
H1622 C1637 0.930 . S
C1623 H1611 0.930 . S
C1623 C1624 1.399 . S
C1623 C1628 1.399 . S
C1624 C1623 1.399 . S
C1624 C1625 1.376 . S
C1625 H1612 0.930 . S
C1625 C1624 1.376 . S
C1625 C1626 1.388 . S
C1626 H1613 0.930 . S
C1626 C1625 1.388 . S
C1626 C1627 1.390 . S
C1627 C1626 1.390 . S
C1627 C1628 1.394 . S
C1627 C1633 1.465 . S
C1628 C1623 1.399 . S
C1628 C1627 1.394 . S
C1628 C1629 1.516 . S
C1629 C1628 1.516 . S
C1629 C1630 1.502 . S
C1629 C1631 1.561 . S
C1629 C1632 1.526 . S
C1630 H1614 0.959 . S
C1630 H1615 0.959 . S
C1630 H1616 0.961 . S
C1630 C1629 1.502 . S
C1631 H1617 0.960 . S
C1631 H1618 0.961 . S
C1631 H1619 0.959 . S
C1631 C1629 1.561 . S
C1632 C1629 1.526 . S
C1632 C1633 1.396 . S
C1632 C1637 1.390 . S
C1633 C1627 1.465 . S
C1633 C1632 1.396 . S
C1633 C1634 1.399 . S
C1634 H1620 0.929 . S
C1634 C1633 1.399 . S
C1634 C1635 1.385 . S
C1635 H1621 0.931 . S
C1635 C1634 1.385 . S
C1635 C1636 1.389 . S
C1636 C1635 1.389 . S
C1636 C1637 1.387 . S
C1637 H1622 0.930 . S
C1637 C1632 1.390 . S
C1637 C1636 1.387 . S
H1638 C1650 0.930 . S
H1639 C1652 0.930 . S
H1640 C1653 0.930 . S
H1641 C1657 0.959 . S
H1642 C1657 0.959 . S
H1643 C1657 0.961 . S
H1644 C1658 0.960 . S
H1645 C1658 0.961 . S
H1646 C1658 0.959 . S
H1647 C1661 0.929 . S
H1648 C1662 0.931 . S
H1649 C1664 0.930 . S
C1650 H1638 0.930 . S
C1650 C1651 1.399 . S
C1650 C1655 1.399 . S
C1651 C1650 1.399 . S
C1651 C1652 1.376 . S
C1652 H1639 0.930 . S
C1652 C1651 1.376 . S
C1652 C1653 1.388 . S
C1653 H1640 0.930 . S
C1653 C1652 1.388 . S
C1653 C1654 1.390 . S
C1654 C1653 1.390 . S
C1654 C1655 1.394 . S
C1654 C1660 1.465 . S
C1655 C1650 1.399 . S
C1655 C1654 1.394 . S
C1655 C1656 1.516 . S
C1656 C1655 1.516 . S
C1656 C1657 1.502 . S
C1656 C1658 1.561 . S
C1656 C1659 1.526 . S
C1657 H1641 0.959 . S
C1657 H1642 0.959 . S
C1657 H1643 0.961 . S
C1657 C1656 1.502 . S
C1658 H1644 0.960 . S
C1658 H1645 0.961 . S
C1658 H1646 0.959 . S
C1658 C1656 1.561 . S
C1659 C1656 1.526 . S
C1659 C1660 1.396 . S
C1659 C1664 1.390 . S
C1660 C1654 1.465 . S
C1660 C1659 1.396 . S
C1660 C1661 1.399 . S
C1661 H1647 0.929 . S
C1661 C1660 1.399 . S
C1661 C1662 1.385 . S
C1662 H1648 0.931 . S
C1662 C1661 1.385 . S
C1662 C1663 1.389 . S
C1663 C1662 1.389 . S
C1663 C1664 1.387 . S
C1664 H1649 0.930 . S
C1664 C1659 1.390 . S
C1664 C1663 1.387 . S
H1665 C1677 0.930 . S
H1666 C1679 0.930 . S
H1667 C1680 0.930 . S
H1668 C1684 0.959 . S
H1669 C1684 0.959 . S
H1670 C1684 0.961 . S
H1671 C1685 0.960 . S
H1672 C1685 0.961 . S
H1673 C1685 0.959 . S
H1674 C1688 0.929 . S
H1675 C1689 0.931 . S
H1676 C1691 0.930 . S
C1677 H1665 0.930 . S
C1677 C1678 1.399 . S
C1677 C1682 1.399 . S
C1678 C1677 1.399 . S
C1678 C1679 1.376 . S
C1679 H1666 0.930 . S
C1679 C1678 1.376 . S
C1679 C1680 1.388 . S
C1680 H1667 0.930 . S
C1680 C1679 1.388 . S
C1680 C1681 1.390 . S
C1681 C1680 1.390 . S
C1681 C1682 1.394 . S
C1681 C1687 1.465 . S
C1682 C1677 1.399 . S
C1682 C1681 1.394 . S
C1682 C1683 1.516 . S
C1683 C1682 1.516 . S
C1683 C1684 1.502 . S
C1683 C1685 1.561 . S
C1683 C1686 1.526 . S
C1684 H1668 0.959 . S
C1684 H1669 0.959 . S
C1684 H1670 0.961 . S
C1684 C1683 1.502 . S
C1685 H1671 0.960 . S
C1685 H1672 0.961 . S
C1685 H1673 0.959 . S
C1685 C1683 1.561 . S
C1686 C1683 1.526 . S
C1686 C1687 1.396 . S
C1686 C1691 1.390 . S
C1687 C1681 1.465 . S
C1687 C1686 1.396 . S
C1687 C1688 1.399 . S
C1688 H1674 0.929 . S
C1688 C1687 1.399 . S
C1688 C1689 1.385 . S
C1689 H1675 0.931 . S
C1689 C1688 1.385 . S
C1689 C1690 1.389 . S
C1690 C1689 1.389 . S
C1690 C1691 1.387 . S
C1691 H1676 0.930 . S
C1691 C1686 1.390 . S
C1691 C1690 1.387 . S
H1692 C1704 0.930 . S
H1693 C1706 0.930 . S
H1694 C1707 0.930 . S
H1695 C1711 0.959 . S
H1696 C1711 0.959 . S
H1697 C1711 0.961 . S
H1698 C1712 0.960 . S
H1699 C1712 0.961 . S
H1700 C1712 0.959 . S
H1701 C1715 0.929 . S
H1702 C1716 0.931 . S
H1703 C1718 0.930 . S
C1704 H1692 0.930 . S
C1704 C1705 1.399 . S
C1704 C1709 1.399 . S
C1705 C1704 1.399 . S
C1705 C1706 1.376 . S
C1706 H1693 0.930 . S
C1706 C1705 1.376 . S
C1706 C1707 1.388 . S
C1707 H1694 0.930 . S
C1707 C1706 1.388 . S
C1707 C1708 1.390 . S
C1708 C1707 1.390 . S
C1708 C1709 1.394 . S
C1708 C1714 1.465 . S
C1709 C1704 1.399 . S
C1709 C1708 1.394 . S
C1709 C1710 1.516 . S
C1710 C1709 1.516 . S
C1710 C1711 1.502 . S
C1710 C1712 1.561 . S
C1710 C1713 1.526 . S
C1711 H1695 0.959 . S
C1711 H1696 0.959 . S
C1711 H1697 0.961 . S
C1711 C1710 1.502 . S
C1712 H1698 0.960 . S
C1712 H1699 0.961 . S
C1712 H1700 0.959 . S
C1712 C1710 1.561 . S
C1713 C1710 1.526 . S
C1713 C1714 1.396 . S
C1713 C1718 1.390 . S
C1714 C1708 1.465 . S
C1714 C1713 1.396 . S
C1714 C1715 1.399 . S
C1715 H1701 0.929 . S
C1715 C1714 1.399 . S
C1715 C1716 1.385 . S
C1716 H1702 0.931 . S
C1716 C1715 1.385 . S
C1716 C1717 1.389 . S
C1717 C1716 1.389 . S
C1717 C1718 1.387 . S
C1718 H1703 0.930 . S
C1718 C1713 1.390 . S
C1718 C1717 1.387 . S
H1719 C1731 0.930 . S
H1720 C1733 0.930 . S
H1721 C1734 0.930 . S
H1722 C1738 0.959 . S
H1723 C1738 0.959 . S
H1724 C1738 0.961 . S
H1725 C1739 0.960 . S
H1726 C1739 0.961 . S
H1727 C1739 0.959 . S
H1728 C1742 0.929 . S
H1729 C1743 0.931 . S
H1730 C1745 0.930 . S
C1731 H1719 0.930 . S
C1731 C1732 1.399 . S
C1731 C1736 1.399 . S
C1732 C1731 1.399 . S
C1732 C1733 1.376 . S
C1733 H1720 0.930 . S
C1733 C1732 1.376 . S
C1733 C1734 1.388 . S
C1734 H1721 0.930 . S
C1734 C1733 1.388 . S
C1734 C1735 1.390 . S
C1735 C1734 1.390 . S
C1735 C1736 1.394 . S
C1735 C1741 1.465 . S
C1736 C1731 1.399 . S
C1736 C1735 1.394 . S
C1736 C1737 1.516 . S
C1737 C1736 1.516 . S
C1737 C1738 1.502 . S
C1737 C1739 1.561 . S
C1737 C1740 1.526 . S
C1738 H1722 0.959 . S
C1738 H1723 0.959 . S
C1738 H1724 0.961 . S
C1738 C1737 1.502 . S
C1739 H1725 0.960 . S
C1739 H1726 0.961 . S
C1739 H1727 0.959 . S
C1739 C1737 1.561 . S
C1740 C1737 1.526 . S
C1740 C1741 1.396 . S
C1740 C1745 1.390 . S
C1741 C1735 1.465 . S
C1741 C1740 1.396 . S
C1741 C1742 1.399 . S
C1742 H1728 0.929 . S
C1742 C1741 1.399 . S
C1742 C1743 1.385 . S
C1743 H1729 0.931 . S
C1743 C1742 1.385 . S
C1743 C1744 1.389 . S
C1744 C1743 1.389 . S
C1744 C1745 1.387 . S
C1745 H1730 0.930 . S
C1745 C1740 1.390 . S
C1745 C1744 1.387 . S
H1746 C1758 0.930 . S
H1747 C1760 0.930 . S
H1748 C1761 0.930 . S
H1749 C1765 0.959 . S
H1750 C1765 0.959 . S
H1751 C1765 0.961 . S
H1752 C1766 0.960 . S
H1753 C1766 0.961 . S
H1754 C1766 0.959 . S
H1755 C1769 0.929 . S
H1756 C1770 0.931 . S
H1757 C1772 0.930 . S
C1758 H1746 0.930 . S
C1758 C1759 1.399 . S
C1758 C1763 1.399 . S
C1759 C1758 1.399 . S
C1759 C1760 1.376 . S
C1760 H1747 0.930 . S
C1760 C1759 1.376 . S
C1760 C1761 1.388 . S
C1761 H1748 0.930 . S
C1761 C1760 1.388 . S
C1761 C1762 1.390 . S
C1762 C1761 1.390 . S
C1762 C1763 1.394 . S
C1762 C1768 1.465 . S
C1763 C1758 1.399 . S
C1763 C1762 1.394 . S
C1763 C1764 1.516 . S
C1764 C1763 1.516 . S
C1764 C1765 1.502 . S
C1764 C1766 1.561 . S
C1764 C1767 1.526 . S
C1765 H1749 0.959 . S
C1765 H1750 0.959 . S
C1765 H1751 0.961 . S
C1765 C1764 1.502 . S
C1766 H1752 0.960 . S
C1766 H1753 0.961 . S
C1766 H1754 0.959 . S
C1766 C1764 1.561 . S
C1767 C1764 1.526 . S
C1767 C1768 1.396 . S
C1767 C1772 1.390 . S
C1768 C1762 1.465 . S
C1768 C1767 1.396 . S
C1768 C1769 1.399 . S
C1769 H1755 0.929 . S
C1769 C1768 1.399 . S
C1769 C1770 1.385 . S
C1770 H1756 0.931 . S
C1770 C1769 1.385 . S
C1770 C1771 1.389 . S
C1771 C1770 1.389 . S
C1771 C1772 1.387 . S
C1772 H1757 0.930 . S
C1772 C1767 1.390 . S
C1772 C1771 1.387 . S
H1773 C1785 0.930 . S
H1774 C1787 0.930 . S
H1775 C1788 0.930 . S
H1776 C1792 0.959 . S
H1777 C1792 0.959 . S
H1778 C1792 0.961 . S
H1779 C1793 0.960 . S
H1780 C1793 0.961 . S
H1781 C1793 0.959 . S
H1782 C1796 0.929 . S
H1783 C1797 0.931 . S
H1784 C1799 0.930 . S
C1785 H1773 0.930 . S
C1785 C1786 1.399 . S
C1785 C1790 1.399 . S
C1786 C1785 1.399 . S
C1786 C1787 1.376 . S
C1787 H1774 0.930 . S
C1787 C1786 1.376 . S
C1787 C1788 1.388 . S
C1788 H1775 0.930 . S
C1788 C1787 1.388 . S
C1788 C1789 1.390 . S
C1789 C1788 1.390 . S
C1789 C1790 1.394 . S
C1789 C1795 1.465 . S
C1790 C1785 1.399 . S
C1790 C1789 1.394 . S
C1790 C1791 1.516 . S
C1791 C1790 1.516 . S
C1791 C1792 1.502 . S
C1791 C1793 1.561 . S
C1791 C1794 1.526 . S
C1792 H1776 0.959 . S
C1792 H1777 0.959 . S
C1792 H1778 0.961 . S
C1792 C1791 1.502 . S
C1793 H1779 0.960 . S
C1793 H1780 0.961 . S
C1793 H1781 0.959 . S
C1793 C1791 1.561 . S
C1794 C1791 1.526 . S
C1794 C1795 1.396 . S
C1794 C1799 1.390 . S
C1795 C1789 1.465 . S
C1795 C1794 1.396 . S
C1795 C1796 1.399 . S
C1796 H1782 0.929 . S
C1796 C1795 1.399 . S
C1796 C1797 1.385 . S
C1797 H1783 0.931 . S
C1797 C1796 1.385 . S
C1797 C1798 1.389 . S
C1798 C1797 1.389 . S
C1798 C1799 1.387 . S
C1799 H1784 0.930 . S
C1799 C1794 1.390 . S
C1799 C1798 1.387 . S
H1800 C1812 0.930 . S
H1801 C1814 0.930 . S
H1802 C1815 0.930 . S
H1803 C1819 0.959 . S
H1804 C1819 0.959 . S
H1805 C1819 0.961 . S
H1806 C1820 0.960 . S
H1807 C1820 0.961 . S
H1808 C1820 0.959 . S
H1809 C1823 0.929 . S
H1810 C1824 0.931 . S
H1811 C1826 0.930 . S
C1812 H1800 0.930 . S
C1812 C1813 1.399 . S
C1812 C1817 1.399 . S
C1813 C1812 1.399 . S
C1813 C1814 1.376 . S
C1814 H1801 0.930 . S
C1814 C1813 1.376 . S
C1814 C1815 1.388 . S
C1815 H1802 0.930 . S
C1815 C1814 1.388 . S
C1815 C1816 1.390 . S
C1816 C1815 1.390 . S
C1816 C1817 1.394 . S
C1816 C1822 1.465 1_455 S
C1817 C1812 1.399 . S
C1817 C1816 1.394 . S
C1817 C1818 1.518 1_455 S
C1818 C1817 1.518 1_655 S
C1818 C1819 1.466 1_655 S
C1818 C1820 1.577 . S
C1818 C1821 1.551 . S
C1819 H1803 0.959 . S
C1819 H1804 0.959 . S
C1819 H1805 0.961 . S
C1819 C1818 1.466 1_455 S
C1820 H1806 0.960 . S
C1820 H1807 0.961 . S
C1820 H1808 0.959 . S
C1820 C1818 1.577 . S
C1821 C1818 1.551 . S
C1821 C1822 1.396 . S
C1821 C1826 1.390 . S
C1822 C1816 1.465 1_655 S
C1822 C1821 1.396 . S
C1822 C1823 1.399 . S
C1823 H1809 0.929 . S
C1823 C1822 1.399 . S
C1823 C1824 1.385 . S
C1824 H1810 0.931 . S
C1824 C1823 1.385 . S
C1824 C1825 1.389 . S
C1825 C1824 1.389 . S
C1825 C1826 1.387 . S
C1826 H1811 0.930 . S
C1826 C1821 1.390 . S
C1826 C1825 1.387 . S
H1827 C1839 0.930 . S
H1828 C1841 0.930 . S
H1829 C1842 0.930 . S
H1830 C1846 0.959 . S
H1831 C1846 0.959 . S
H1832 C1846 0.961 . S
H1833 C1847 0.960 . S
H1834 C1847 0.961 . S
H1835 C1847 0.959 . S
H1836 C1850 0.929 . S
H1837 C1851 0.931 . S
H1838 C1853 0.930 . S
C1839 H1827 0.930 . S
C1839 C1840 1.399 . S
C1839 C1844 1.399 . S
C1840 C1839 1.399 . S
C1840 C1841 1.376 . S
C1841 H1828 0.930 . S
C1841 C1840 1.376 . S
C1841 C1842 1.388 . S
C1842 H1829 0.930 . S
C1842 C1841 1.388 . S
C1842 C1843 1.390 . S
C1843 C1842 1.390 . S
C1843 C1844 1.394 . S
C1843 C1849 1.465 . S
C1844 C1839 1.399 . S
C1844 C1843 1.394 . S
C1844 C1845 1.516 . S
C1845 C1844 1.516 . S
C1845 C1846 1.502 . S
C1845 C1847 1.561 . S
C1845 C1848 1.526 . S
C1846 H1830 0.959 . S
C1846 H1831 0.959 . S
C1846 H1832 0.961 . S
C1846 C1845 1.502 . S
C1847 H1833 0.960 . S
C1847 H1834 0.961 . S
C1847 H1835 0.959 . S
C1847 C1845 1.561 . S
C1848 C1845 1.526 . S
C1848 C1849 1.396 . S
C1848 C1853 1.390 . S
C1849 C1843 1.465 . S
C1849 C1848 1.396 . S
C1849 C1850 1.399 . S
C1850 H1836 0.929 . S
C1850 C1849 1.399 . S
C1850 C1851 1.385 . S
C1851 H1837 0.931 . S
C1851 C1850 1.385 . S
C1851 C1852 1.389 . S
C1852 C1851 1.389 . S
C1852 C1853 1.387 . S
C1853 H1838 0.930 . S
C1853 C1848 1.390 . S
C1853 C1852 1.387 . S
H1854 C1866 0.930 . S
H1855 C1868 0.930 . S
H1856 C1869 0.930 . S
H1857 C1873 0.959 1_565 S
H1858 C1873 0.959 . S
H1859 C1873 0.958 . S
H1860 C1874 0.960 . S
H1861 C1874 0.961 . S
H1862 C1874 0.959 . S
H1863 C1877 0.929 1_565 S
H1864 C1878 0.931 . S
H1865 C1880 0.930 . S
C1866 H1854 0.930 . S
C1866 C1867 1.399 . S
C1866 C1871 1.399 . S
C1867 C1866 1.399 . S
C1867 C1868 1.376 . S
C1868 H1855 0.930 . S
C1868 C1867 1.376 . S
C1868 C1869 1.388 . S
C1869 H1856 0.930 . S
C1869 C1868 1.388 . S
C1869 C1870 1.390 . S
C1870 C1869 1.390 . S
C1870 C1871 1.394 . S
C1870 C1876 1.465 1_565 S
C1871 C1866 1.399 . S
C1871 C1870 1.394 . S
C1871 C1872 1.516 1_565 S
C1872 C1871 1.516 1_545 S
C1872 C1873 1.502 . S
C1872 C1874 1.561 . S
C1872 C1875 1.526 . S
C1873 H1857 0.959 1_545 S
C1873 H1858 0.959 . S
C1873 H1859 0.958 . S
C1873 C1872 1.502 . S
C1874 H1860 0.960 . S
C1874 H1861 0.961 . S
C1874 H1862 0.959 . S
C1874 C1872 1.561 . S
C1875 C1872 1.526 . S
C1875 C1876 1.396 . S
C1875 C1880 1.390 . S
C1876 C1870 1.465 1_545 S
C1876 C1875 1.396 . S
C1876 C1877 1.399 . S
C1877 H1863 0.929 1_545 S
C1877 C1876 1.399 . S
C1877 C1878 1.385 . S
C1878 H1864 0.931 . S
C1878 C1877 1.385 . S
C1878 C1879 1.389 . S
C1879 C1878 1.389 . S
C1879 C1880 1.387 . S
C1880 H1865 0.930 . S
C1880 C1875 1.390 . S
C1880 C1879 1.387 . S
H1881 C1893 0.930 . S
H1882 C1895 0.897 1_545 S
H1883 C1896 0.930 . S
H1884 C1900 0.959 . S
H1885 C1900 0.959 . S
H1886 C1900 0.961 . S
H1887 C1901 0.960 . S
H1888 C1901 0.961 . S
H1889 C1901 0.959 . S
H1890 C1904 0.929 . S
H1891 C1905 0.931 . S
H1892 C1907 0.930 1_565 S
C1893 H1881 0.930 . S
C1893 C1894 1.399 . S
C1893 C1898 1.399 . S
C1894 C1893 1.399 . S
C1894 C1895 1.376 . S
C1895 H1882 0.897 1_565 S
C1895 C1894 1.376 . S
C1895 C1896 1.388 1_565 S
C1896 H1883 0.930 . S
C1896 C1895 1.388 1_545 S
C1896 C1897 1.390 . S
C1897 C1896 1.390 . S
C1897 C1898 1.394 1_545 S
C1897 C1903 1.465 . S
C1898 C1893 1.399 . S
C1898 C1897 1.394 1_565 S
C1898 C1899 1.516 . S
C1899 C1898 1.516 . S
C1899 C1900 1.502 . S
C1899 C1901 1.561 . S
C1899 C1902 1.554 . S
C1900 H1884 0.959 . S
C1900 H1885 0.959 . S
C1900 H1886 0.961 . S
C1900 C1899 1.502 . S
C1901 H1887 0.960 . S
C1901 H1888 0.961 . S
C1901 H1889 0.959 . S
C1901 C1899 1.561 . S
C1902 C1899 1.554 . S
C1902 C1903 1.372 1_565 S
C1902 C1907 1.384 1_565 S
C1903 C1897 1.465 . S
C1903 C1902 1.372 1_545 S
C1903 C1904 1.399 . S
C1904 H1890 0.929 . S
C1904 C1903 1.399 . S
C1904 C1905 1.385 . S
C1905 H1891 0.931 . S
C1905 C1904 1.385 . S
C1905 C1906 1.389 . S
C1906 C1905 1.389 . S
C1906 C1907 1.387 . S
C1907 H1892 0.930 1_545 S
C1907 C1902 1.384 1_545 S
C1907 C1906 1.387 . S
H1908 C1920 0.930 . S
H1909 C1922 0.930 . S
H1910 C1923 0.930 . S
H1911 C1927 0.959 . S
H1912 C1927 0.959 . S
H1913 C1927 0.961 . S
H1914 C1928 0.960 . S
H1915 C1928 0.961 . S
H1916 C1928 0.959 1_455 S
H1917 C1931 0.929 . S
H1918 C1932 0.931 . S
H1919 C1934 0.930 . S
C1920 H1908 0.930 . S
C1920 C1921 1.399 . S
C1920 C1925 1.399 . S
C1921 C1920 1.399 . S
C1921 C1922 1.376 . S
C1922 H1909 0.930 . S
C1922 C1921 1.376 . S
C1922 C1923 1.388 1_655 S
C1923 H1910 0.930 . S
C1923 C1922 1.388 1_455 S
C1923 C1924 1.390 . S
C1924 C1923 1.390 . S
C1924 C1925 1.394 1_455 S
C1924 C1930 1.465 . S
C1925 C1920 1.399 . S
C1925 C1924 1.394 1_655 S
C1925 C1926 1.516 . S
C1926 C1925 1.516 . S
C1926 C1927 1.502 . S
C1926 C1928 1.561 . S
C1926 C1929 1.526 1_655 S
C1927 H1911 0.959 . S
C1927 H1912 0.959 . S
C1927 H1913 0.961 . S
C1927 C1926 1.502 . S
C1928 H1914 0.960 . S
C1928 H1915 0.961 . S
C1928 H1916 0.959 1_655 S
C1928 C1926 1.561 . S
C1929 C1926 1.526 1_455 S
C1929 C1930 1.396 . S
C1929 C1934 1.390 . S
C1930 C1924 1.465 . S
C1930 C1929 1.396 . S
C1930 C1931 1.399 . S
C1931 H1917 0.929 . S
C1931 C1930 1.399 . S
C1931 C1932 1.385 . S
C1932 H1918 0.931 . S
C1932 C1931 1.385 . S
C1932 C1933 1.389 . S
C1933 C1932 1.389 . S
C1933 C1934 1.387 . S
C1934 H1919 0.930 . S
C1934 C1929 1.390 . S
C1934 C1933 1.387 . S
H1935 C1947 0.930 . S
H1936 C1949 0.930 . S
H1937 C1950 0.930 . S
H1938 C1954 0.959 . S
H1939 C1954 0.959 . S
H1940 C1954 0.961 . S
H1941 C1955 0.960 . S
H1942 C1955 0.961 . S
H1943 C1955 0.959 . S
H1944 C1958 0.929 . S
H1945 C1959 0.931 . S
H1946 C1961 0.930 . S
C1947 H1935 0.930 . S
C1947 C1948 1.399 . S
C1947 C1952 1.399 . S
C1948 C1947 1.399 . S
C1948 C1949 1.376 . S
C1949 H1936 0.930 . S
C1949 C1948 1.376 . S
C1949 C1950 1.388 . S
C1950 H1937 0.930 . S
C1950 C1949 1.388 . S
C1950 C1951 1.390 . S
C1951 C1950 1.390 . S
C1951 C1952 1.394 . S
C1951 C1957 1.465 . S
C1952 C1947 1.399 . S
C1952 C1951 1.394 . S
C1952 C1953 1.516 . S
C1953 C1952 1.516 . S
C1953 C1954 1.502 . S
C1953 C1955 1.561 . S
C1953 C1956 1.526 . S
C1954 H1938 0.959 . S
C1954 H1939 0.959 . S
C1954 H1940 0.961 . S
C1954 C1953 1.502 . S
C1955 H1941 0.960 . S
C1955 H1942 0.961 . S
C1955 H1943 0.959 . S
C1955 C1953 1.561 . S
C1956 C1953 1.526 . S
C1956 C1957 1.396 . S
C1956 C1961 1.390 . S
C1957 C1951 1.465 . S
C1957 C1956 1.396 . S
C1957 C1958 1.399 . S
C1958 H1944 0.929 . S
C1958 C1957 1.399 . S
C1958 C1959 1.385 . S
C1959 H1945 0.931 . S
C1959 C1958 1.385 . S
C1959 C1960 1.389 . S
C1960 C1959 1.389 . S
C1960 C1961 1.387 . S
C1961 H1946 0.930 . S
C1961 C1956 1.390 . S
C1961 C1960 1.387 . S
H1962 C1974 0.930 . S
H1963 C1976 0.930 . S
H1964 C1977 0.930 . S
H1965 C1981 0.959 . S
H1966 C1981 0.959 . S
H1967 C1981 0.961 . S
H1968 C1982 0.960 . S
H1969 C1982 0.961 . S
H1970 C1982 0.959 . S
H1971 C1985 0.929 . S
H1972 C1986 0.931 . S
H1973 C1988 0.930 . S
C1974 H1962 0.930 . S
C1974 C1975 1.399 . S
C1974 C1979 1.399 . S
C1975 C1974 1.399 . S
C1975 C1976 1.376 . S
C1976 H1963 0.930 . S
C1976 C1975 1.376 . S
C1976 C1977 1.388 . S
C1977 H1964 0.930 . S
C1977 C1976 1.388 . S
C1977 C1978 1.390 . S
C1978 C1977 1.390 . S
C1978 C1979 1.394 . S
C1978 C1984 1.465 . S
C1979 C1974 1.399 . S
C1979 C1978 1.394 . S
C1979 C1980 1.516 . S
C1980 C1979 1.516 . S
C1980 C1981 1.502 . S
C1980 C1982 1.561 . S
C1980 C1983 1.526 . S
C1981 H1965 0.959 . S
C1981 H1966 0.959 . S
C1981 H1967 0.961 . S
C1981 C1980 1.502 . S
C1982 H1968 0.960 . S
C1982 H1969 0.961 . S
C1982 H1970 0.959 . S
C1982 C1980 1.561 . S
C1983 C1980 1.526 . S
C1983 C1984 1.396 . S
C1983 C1988 1.390 . S
C1984 C1978 1.465 . S
C1984 C1983 1.396 . S
C1984 C1985 1.399 . S
C1985 H1971 0.929 . S
C1985 C1984 1.399 . S
C1985 C1986 1.385 . S
C1986 H1972 0.931 . S
C1986 C1985 1.385 . S
C1986 C1987 1.389 . S
C1987 C1986 1.389 . S
C1987 C1988 1.387 . S
C1988 H1973 0.930 . S
C1988 C1983 1.390 . S
C1988 C1987 1.387 . S
H1989 C2001 0.930 . S
H1990 C2003 0.930 . S
H1991 C2004 0.930 . S
H1992 C2008 0.959 . S
H1993 C2008 0.959 . S
H1994 C2008 0.961 . S
H1995 C2009 0.960 . S
H1996 C2009 0.961 . S
H1997 C2009 0.959 . S
H1998 C2012 0.929 . S
H1999 C2013 0.931 . S
H2000 C2015 0.930 . S
C2001 H1989 0.930 . S
C2001 C2002 1.399 . S
C2001 C2006 1.399 . S
C2002 C2001 1.399 . S
C2002 C2003 1.376 . S
C2003 H1990 0.930 . S
C2003 C2002 1.376 . S
C2003 C2004 1.388 . S
C2004 H1991 0.930 . S
C2004 C2003 1.388 . S
C2004 C2005 1.390 . S
C2005 C2004 1.390 . S
C2005 C2006 1.394 . S
C2005 C2011 1.465 . S
C2006 C2001 1.399 . S
C2006 C2005 1.394 . S
C2006 C2007 1.516 . S
C2007 C2006 1.516 . S
C2007 C2008 1.502 . S
C2007 C2009 1.561 . S
C2007 C2010 1.526 . S
C2008 H1992 0.959 . S
C2008 H1993 0.959 . S
C2008 H1994 0.961 . S
C2008 C2007 1.502 . S
C2009 H1995 0.960 . S
C2009 H1996 0.961 . S
C2009 H1997 0.959 . S
C2009 C2007 1.561 . S
C2010 C2007 1.526 . S
C2010 C2011 1.396 . S
C2010 C2015 1.390 . S
C2011 C2005 1.465 . S
C2011 C2010 1.396 . S
C2011 C2012 1.399 . S
C2012 H1998 0.929 . S
C2012 C2011 1.399 . S
C2012 C2013 1.385 . S
C2013 H1999 0.931 . S
C2013 C2012 1.385 . S
C2013 C2014 1.389 . S
C2014 C2013 1.389 . S
C2014 C2015 1.387 . S
C2015 H2000 0.930 . S
C2015 C2010 1.390 . S
C2015 C2014 1.387 . S
H2016 C2028 0.930 . S
H2017 C2030 0.930 . S
H2018 C2031 0.930 . S
H2019 C2035 0.959 . S
H2020 C2035 0.959 . S
H2021 C2035 0.961 . S
H2022 C2036 0.960 . S
H2023 C2036 0.961 . S
H2024 C2036 0.959 . S
H2025 C2039 0.929 . S
H2026 C2040 0.931 . S
H2027 C2042 0.930 . S
C2028 H2016 0.930 . S
C2028 C2029 1.399 . S
C2028 C2033 1.399 . S
C2029 C2028 1.399 . S
C2029 C2030 1.376 . S
C2030 H2017 0.930 . S
C2030 C2029 1.376 . S
C2030 C2031 1.388 . S
C2031 H2018 0.930 . S
C2031 C2030 1.388 . S
C2031 C2032 1.390 . S
C2032 C2031 1.390 . S
C2032 C2033 1.394 . S
C2032 C2038 1.465 . S
C2033 C2028 1.399 . S
C2033 C2032 1.394 . S
C2033 C2034 1.516 . S
C2034 C2033 1.516 . S
C2034 C2035 1.502 . S
C2034 C2036 1.561 . S
C2034 C2037 1.526 . S
C2035 H2019 0.959 . S
C2035 H2020 0.959 . S
C2035 H2021 0.961 . S
C2035 C2034 1.502 . S
C2036 H2022 0.960 . S
C2036 H2023 0.961 . S
C2036 H2024 0.959 . S
C2036 C2034 1.561 . S
C2037 C2034 1.526 . S
C2037 C2038 1.396 . S
C2037 C2042 1.390 . S
C2038 C2032 1.465 . S
C2038 C2037 1.396 . S
C2038 C2039 1.399 . S
C2039 H2025 0.929 . S
C2039 C2038 1.399 . S
C2039 C2040 1.385 . S
C2040 H2026 0.931 . S
C2040 C2039 1.385 . S
C2040 C2041 1.389 . S
C2041 C2040 1.389 . S
C2041 C2042 1.387 . S
C2042 H2027 0.930 . S
C2042 C2037 1.390 . S
C2042 C2041 1.387 . S
H2043 C2055 0.930 . S
H2044 C2057 0.930 . S
H2045 C2058 0.930 . S
H2046 C2062 0.959 . S
H2047 C2062 0.959 . S
H2048 C2062 0.961 . S
H2049 C2063 0.960 . S
H2050 C2063 0.961 . S
H2051 C2063 0.959 . S
H2052 C2066 0.929 . S
H2053 C2067 0.931 . S
H2054 C2069 0.930 . S
C2055 H2043 0.930 . S
C2055 C2056 1.399 . S
C2055 C2060 1.399 . S
C2056 C2055 1.399 . S
C2056 C2057 1.376 . S
C2057 H2044 0.930 . S
C2057 C2056 1.376 . S
C2057 C2058 1.388 . S
C2058 H2045 0.930 . S
C2058 C2057 1.388 . S
C2058 C2059 1.390 . S
C2059 C2058 1.390 . S
C2059 C2060 1.394 . S
C2059 C2065 1.465 . S
C2060 C2055 1.399 . S
C2060 C2059 1.394 . S
C2060 C2061 1.516 . S
C2061 C2060 1.516 . S
C2061 C2062 1.502 . S
C2061 C2063 1.561 . S
C2061 C2064 1.526 . S
C2062 H2046 0.959 . S
C2062 H2047 0.959 . S
C2062 H2048 0.961 . S
C2062 C2061 1.502 . S
C2063 H2049 0.960 . S
C2063 H2050 0.961 . S
C2063 H2051 0.959 . S
C2063 C2061 1.561 . S
C2064 C2061 1.526 . S
C2064 C2065 1.396 . S
C2064 C2069 1.390 . S
C2065 C2059 1.465 . S
C2065 C2064 1.396 . S
C2065 C2066 1.399 . S
C2066 H2052 0.929 . S
C2066 C2065 1.399 . S
C2066 C2067 1.385 . S
C2067 H2053 0.931 . S
C2067 C2066 1.385 . S
C2067 C2068 1.389 . S
C2068 C2067 1.389 . S
C2068 C2069 1.387 . S
C2069 H2054 0.930 . S
C2069 C2064 1.390 . S
C2069 C2068 1.387 . S
H2070 C2082 0.930 . S
H2071 C2084 0.930 . S
H2072 C2085 0.930 . S
H2073 C2089 0.959 . S
H2074 C2089 0.959 . S
H2075 C2089 0.961 . S
H2076 C2090 0.960 . S
H2077 C2090 0.961 . S
H2078 C2090 0.959 . S
H2079 C2093 0.929 . S
H2080 C2094 0.931 . S
H2081 C2096 0.930 . S
C2082 H2070 0.930 . S
C2082 C2083 1.399 . S
C2082 C2087 1.399 . S
C2083 C2082 1.399 . S
C2083 C2084 1.376 . S
C2084 H2071 0.930 . S
C2084 C2083 1.376 . S
C2084 C2085 1.388 . S
C2085 H2072 0.930 . S
C2085 C2084 1.388 . S
C2085 C2086 1.390 . S
C2086 C2085 1.390 . S
C2086 C2087 1.394 . S
C2086 C2092 1.465 . S
C2087 C2082 1.399 . S
C2087 C2086 1.394 . S
C2087 C2088 1.516 . S
C2088 C2087 1.516 . S
C2088 C2089 1.502 . S
C2088 C2090 1.561 . S
C2088 C2091 1.526 . S
C2089 H2073 0.959 . S
C2089 H2074 0.959 . S
C2089 H2075 0.961 . S
C2089 C2088 1.502 . S
C2090 H2076 0.960 . S
C2090 H2077 0.961 . S
C2090 H2078 0.959 . S
C2090 C2088 1.561 . S
C2091 C2088 1.526 . S
C2091 C2092 1.396 . S
C2091 C2096 1.390 . S
C2092 C2086 1.465 . S
C2092 C2091 1.396 . S
C2092 C2093 1.399 . S
C2093 H2079 0.929 . S
C2093 C2092 1.399 . S
C2093 C2094 1.385 . S
C2094 H2080 0.931 . S
C2094 C2093 1.385 . S
C2094 C2095 1.389 . S
C2095 C2094 1.389 . S
C2095 C2096 1.387 . S
C2096 H2081 0.930 . S
C2096 C2091 1.390 . S
C2096 C2095 1.387 . S
H2097 C2109 0.930 . S
H2098 C2111 0.930 . S
H2099 C2112 0.930 . S
H2100 C2116 0.959 . S
H2101 C2116 0.959 . S
H2102 C2116 0.961 . S
H2103 C2117 0.960 . S
H2104 C2117 0.961 . S
H2105 C2117 0.959 . S
H2106 C2120 0.929 . S
H2107 C2121 0.931 . S
H2108 C2123 0.930 . S
C2109 H2097 0.930 . S
C2109 C2110 1.399 . S
C2109 C2114 1.399 . S
C2110 C2109 1.399 . S
C2110 C2111 1.376 . S
C2111 H2098 0.930 . S
C2111 C2110 1.376 . S
C2111 C2112 1.388 . S
C2112 H2099 0.930 . S
C2112 C2111 1.388 . S
C2112 C2113 1.390 . S
C2113 C2112 1.390 . S
C2113 C2114 1.394 . S
C2113 C2119 1.465 . S
C2114 C2109 1.399 . S
C2114 C2113 1.394 . S
C2114 C2115 1.516 . S
C2115 C2114 1.516 . S
C2115 C2116 1.502 . S
C2115 C2117 1.561 . S
C2115 C2118 1.526 . S
C2116 H2100 0.959 . S
C2116 H2101 0.959 . S
C2116 H2102 0.961 . S
C2116 C2115 1.502 . S
C2117 H2103 0.960 . S
C2117 H2104 0.961 . S
C2117 H2105 0.959 . S
C2117 C2115 1.561 . S
C2118 C2115 1.526 . S
C2118 C2119 1.396 . S
C2118 C2123 1.390 . S
C2119 C2113 1.465 . S
C2119 C2118 1.396 . S
C2119 C2120 1.399 . S
C2120 H2106 0.929 . S
C2120 C2119 1.399 . S
C2120 C2121 1.385 . S
C2121 H2107 0.931 . S
C2121 C2120 1.385 . S
C2121 C2122 1.389 . S
C2122 C2121 1.389 . S
C2122 C2123 1.387 . S
C2123 H2108 0.930 . S
C2123 C2118 1.390 . S
C2123 C2122 1.387 . S
H2124 C2136 0.930 . S
H2125 C2138 0.930 . S
H2126 C2139 0.930 . S
H2127 C2143 0.959 . S
H2128 C2143 0.959 . S
H2129 C2143 0.961 . S
H2130 C2144 0.960 . S
H2131 C2144 0.961 . S
H2132 C2144 0.959 . S
H2133 C2147 0.929 . S
H2134 C2148 0.931 . S
H2135 C2150 0.930 . S
C2136 H2124 0.930 . S
C2136 C2137 1.399 . S
C2136 C2141 1.399 . S
C2137 C2136 1.399 . S
C2137 C2138 1.376 . S
C2138 H2125 0.930 . S
C2138 C2137 1.376 . S
C2138 C2139 1.388 . S
C2139 H2126 0.930 . S
C2139 C2138 1.388 . S
C2139 C2140 1.390 . S
C2140 C2139 1.390 . S
C2140 C2141 1.394 . S
C2140 C2146 1.465 . S
C2141 C2136 1.399 . S
C2141 C2140 1.394 . S
C2141 C2142 1.516 . S
C2142 C2141 1.516 . S
C2142 C2143 1.502 . S
C2142 C2144 1.561 . S
C2142 C2145 1.526 . S
C2143 H2127 0.959 . S
C2143 H2128 0.959 . S
C2143 H2129 0.961 . S
C2143 C2142 1.502 . S
C2144 H2130 0.960 . S
C2144 H2131 0.961 . S
C2144 H2132 0.959 . S
C2144 C2142 1.561 . S
C2145 C2142 1.526 . S
C2145 C2146 1.396 . S
C2145 C2150 1.390 . S
C2146 C2140 1.465 . S
C2146 C2145 1.396 . S
C2146 C2147 1.399 . S
C2147 H2133 0.929 . S
C2147 C2146 1.399 . S
C2147 C2148 1.385 . S
C2148 H2134 0.931 . S
C2148 C2147 1.385 . S
C2148 C2149 1.389 . S
C2149 C2148 1.389 . S
C2149 C2150 1.387 . S
C2150 H2135 0.930 . S
C2150 C2145 1.390 . S
C2150 C2149 1.387 . S
H2151 C2163 0.930 . S
H2152 C2165 0.930 . S
H2153 C2166 0.930 . S
H2154 C2170 0.959 . S
H2155 C2170 0.959 . S
H2156 C2170 0.961 . S
H2157 C2171 0.960 . S
H2158 C2171 0.961 . S
H2159 C2171 0.959 . S
H2160 C2174 0.929 . S
H2161 C2175 0.931 . S
H2162 C2177 0.930 . S
C2163 H2151 0.930 . S
C2163 C2164 1.399 . S
C2163 C2168 1.399 . S
C2164 C2163 1.399 . S
C2164 C2165 1.376 . S
C2165 H2152 0.930 . S
C2165 C2164 1.376 . S
C2165 C2166 1.388 . S
C2166 H2153 0.930 . S
C2166 C2165 1.388 . S
C2166 C2167 1.390 . S
C2167 C2166 1.390 . S
C2167 C2168 1.394 . S
C2167 C2173 1.465 . S
C2168 C2163 1.399 . S
C2168 C2167 1.394 . S
C2168 C2169 1.516 . S
C2169 C2168 1.516 . S
C2169 C2170 1.502 . S
C2169 C2171 1.561 . S
C2169 C2172 1.526 . S
C2170 H2154 0.959 . S
C2170 H2155 0.959 . S
C2170 H2156 0.961 . S
C2170 C2169 1.502 . S
C2171 H2157 0.960 . S
C2171 H2158 0.961 . S
C2171 H2159 0.959 . S
C2171 C2169 1.561 . S
C2172 C2169 1.526 . S
C2172 C2173 1.396 . S
C2172 C2177 1.390 . S
C2173 C2167 1.465 . S
C2173 C2172 1.396 . S
C2173 C2174 1.399 . S
C2174 H2160 0.929 . S
C2174 C2173 1.399 . S
C2174 C2175 1.385 . S
C2175 H2161 0.931 . S
C2175 C2174 1.385 . S
C2175 C2176 1.389 . S
C2176 C2175 1.389 . S
C2176 C2177 1.387 . S
C2177 H2162 0.930 . S
C2177 C2172 1.390 . S
C2177 C2176 1.387 . S
H2178 C2190 0.930 . S
H2179 C2192 0.930 . S
H2180 C2193 0.930 . S
H2181 C2197 0.959 . S
H2182 C2197 0.959 . S
H2183 C2197 0.961 . S
H2184 C2198 0.960 . S
H2185 C2198 0.961 . S
H2186 C2198 0.959 . S
H2187 C2201 0.929 . S
H2188 C2202 0.931 . S
H2189 C2204 0.930 . S
C2190 H2178 0.930 . S
C2190 C2191 1.399 . S
C2190 C2195 1.399 . S
C2191 C2190 1.399 . S
C2191 C2192 1.376 . S
C2192 H2179 0.930 . S
C2192 C2191 1.376 . S
C2192 C2193 1.388 . S
C2193 H2180 0.930 . S
C2193 C2192 1.388 . S
C2193 C2194 1.390 . S
C2194 C2193 1.390 . S
C2194 C2195 1.394 . S
C2194 C2200 1.465 . S
C2195 C2190 1.399 . S
C2195 C2194 1.394 . S
C2195 C2196 1.516 . S
C2196 C2195 1.516 . S
C2196 C2197 1.502 . S
C2196 C2198 1.561 . S
C2196 C2199 1.526 . S
C2197 H2181 0.959 . S
C2197 H2182 0.959 . S
C2197 H2183 0.961 . S
C2197 C2196 1.502 . S
C2198 H2184 0.960 . S
C2198 H2185 0.961 . S
C2198 H2186 0.959 . S
C2198 C2196 1.561 . S
C2199 C2196 1.526 . S
C2199 C2200 1.396 . S
C2199 C2204 1.390 . S
C2200 C2194 1.465 . S
C2200 C2199 1.396 . S
C2200 C2201 1.399 . S
C2201 H2187 0.929 . S
C2201 C2200 1.399 . S
C2201 C2202 1.385 . S
C2202 H2188 0.931 . S
C2202 C2201 1.385 . S
C2202 C2203 1.389 . S
C2203 C2202 1.389 . S
C2203 C2204 1.387 . S
C2204 H2189 0.930 . S
C2204 C2199 1.390 . S
C2204 C2203 1.387 . S
H2205 C2217 0.930 . S
H2206 C2219 0.930 . S
H2207 C2220 0.930 . S
H2208 C2224 0.959 . S
H2209 C2224 0.959 . S
H2210 C2224 0.961 . S
H2211 C2225 0.960 . S
H2212 C2225 0.961 . S
H2213 C2225 0.959 . S
H2214 C2228 0.929 . S
H2215 C2229 0.931 . S
H2216 C2231 0.930 . S
C2217 H2205 0.930 . S
C2217 C2218 1.399 . S
C2217 C2222 1.399 . S
C2218 C2217 1.399 . S
C2218 C2219 1.376 . S
C2219 H2206 0.930 . S
C2219 C2218 1.376 . S
C2219 C2220 1.388 . S
C2220 H2207 0.930 . S
C2220 C2219 1.388 . S
C2220 C2221 1.390 . S
C2221 C2220 1.390 . S
C2221 C2222 1.394 . S
C2221 C2227 1.465 . S
C2222 C2217 1.399 . S
C2222 C2221 1.394 . S
C2222 C2223 1.516 . S
C2223 C2222 1.516 . S
C2223 C2224 1.502 . S
C2223 C2225 1.561 . S
C2223 C2226 1.526 . S
C2224 H2208 0.959 . S
C2224 H2209 0.959 . S
C2224 H2210 0.961 . S
C2224 C2223 1.502 . S
C2225 H2211 0.960 . S
C2225 H2212 0.961 . S
C2225 H2213 0.959 . S
C2225 C2223 1.561 . S
C2226 C2223 1.526 . S
C2226 C2227 1.396 . S
C2226 C2231 1.390 . S
C2227 C2221 1.465 . S
C2227 C2226 1.396 . S
C2227 C2228 1.399 . S
C2228 H2214 0.929 . S
C2228 C2227 1.399 . S
C2228 C2229 1.385 . S
C2229 H2215 0.931 . S
C2229 C2228 1.385 . S
C2229 C2230 1.389 . S
C2230 C2229 1.389 . S
C2230 C2231 1.387 . S
C2231 H2216 0.930 . S
C2231 C2226 1.390 . S
C2231 C2230 1.387 . S
H2232 C2244 0.930 . S
H2233 C2246 0.930 . S
H2234 C2247 0.930 . S
H2235 C2251 0.959 . S
H2236 C2251 0.959 . S
H2237 C2251 0.961 . S
H2238 C2252 0.960 . S
H2239 C2252 0.961 . S
H2240 C2252 0.959 . S
H2241 C2255 0.929 . S
H2242 C2256 0.931 . S
H2243 C2258 0.930 . S
C2244 H2232 0.930 . S
C2244 C2245 1.399 . S
C2244 C2249 1.399 . S
C2245 C2244 1.399 . S
C2245 C2246 1.376 . S
C2246 H2233 0.930 . S
C2246 C2245 1.376 . S
C2246 C2247 1.388 . S
C2247 H2234 0.930 . S
C2247 C2246 1.388 . S
C2247 C2248 1.390 . S
C2248 C2247 1.390 . S
C2248 C2249 1.394 . S
C2248 C2254 1.465 . S
C2249 C2244 1.399 . S
C2249 C2248 1.394 . S
C2249 C2250 1.516 . S
C2250 C2249 1.516 . S
C2250 C2251 1.502 . S
C2250 C2252 1.561 . S
C2250 C2253 1.526 . S
C2251 H2235 0.959 . S
C2251 H2236 0.959 . S
C2251 H2237 0.961 . S
C2251 C2250 1.502 . S
C2252 H2238 0.960 . S
C2252 H2239 0.961 . S
C2252 H2240 0.959 . S
C2252 C2250 1.561 . S
C2253 C2250 1.526 . S
C2253 C2254 1.396 . S
C2253 C2258 1.390 . S
C2254 C2248 1.465 . S
C2254 C2253 1.396 . S
C2254 C2255 1.399 . S
C2255 H2241 0.929 . S
C2255 C2254 1.399 . S
C2255 C2256 1.385 . S
C2256 H2242 0.931 . S
C2256 C2255 1.385 . S
C2256 C2257 1.389 . S
C2257 C2256 1.389 . S
C2257 C2258 1.387 . S
C2258 H2243 0.930 . S
C2258 C2253 1.390 . S
C2258 C2257 1.387 . S
H2259 C2271 0.930 . S
H2260 C2273 0.930 . S
H2261 C2274 0.930 . S
H2262 C2278 0.959 . S
H2263 C2278 0.959 . S
H2264 C2278 0.961 . S
H2265 C2279 0.960 . S
H2266 C2279 0.961 . S
H2267 C2279 0.959 . S
H2268 C2282 0.929 . S
H2269 C2283 0.931 . S
H2270 C2285 0.930 . S
C2271 H2259 0.930 . S
C2271 C2272 1.399 . S
C2271 C2276 1.399 . S
C2272 C2271 1.399 . S
C2272 C2273 1.376 . S
C2273 H2260 0.930 . S
C2273 C2272 1.376 . S
C2273 C2274 1.388 . S
C2274 H2261 0.930 . S
C2274 C2273 1.388 . S
C2274 C2275 1.390 . S
C2275 C2274 1.390 . S
C2275 C2276 1.394 . S
C2275 C2281 1.465 . S
C2276 C2271 1.399 . S
C2276 C2275 1.394 . S
C2276 C2277 1.516 . S
C2277 C2276 1.516 . S
C2277 C2278 1.502 . S
C2277 C2279 1.561 . S
C2277 C2280 1.526 . S
C2278 H2262 0.959 . S
C2278 H2263 0.959 . S
C2278 H2264 0.961 . S
C2278 C2277 1.502 . S
C2279 H2265 0.960 . S
C2279 H2266 0.961 . S
C2279 H2267 0.959 . S
C2279 C2277 1.561 . S
C2280 C2277 1.526 . S
C2280 C2281 1.396 . S
C2280 C2285 1.390 . S
C2281 C2275 1.465 . S
C2281 C2280 1.396 . S
C2281 C2282 1.399 . S
C2282 H2268 0.929 . S
C2282 C2281 1.399 . S
C2282 C2283 1.385 . S
C2283 H2269 0.931 . S
C2283 C2282 1.385 . S
C2283 C2284 1.389 . S
C2284 C2283 1.389 . S
C2284 C2285 1.387 . S
C2285 H2270 0.930 . S
C2285 C2280 1.390 . S
C2285 C2284 1.387 . S
H2286 C2298 0.930 . S
H2287 C2300 0.930 1_655 S
H2288 C2301 0.930 . S
H2289 C2305 0.959 . S
H2290 C2305 0.959 . S
H2291 C2305 0.961 . S
H2292 C2306 0.960 . S
H2293 C2306 0.961 . S
H2294 C2306 0.959 . S
H2295 C2309 0.926 1_556 S
H2296 C2310 0.931 . S
H2297 C2312 0.930 1_455 S
C2298 H2286 0.930 . S
C2298 C2299 1.399 . S
C2298 C2303 1.399 . S
C2299 C2298 1.399 . S
C2299 C2300 1.376 . S
C2300 H2287 0.930 1_455 S
C2300 C2299 1.376 . S
C2300 C2301 1.388 1_455 S
C2301 H2288 0.930 . S
C2301 C2300 1.388 1_655 S
C2301 C2302 1.390 . S
C2302 C2301 1.390 . S
C2302 C2303 1.394 1_655 S
C2302 C2308 1.465 1_556 S
C2303 C2298 1.399 . S
C2303 C2302 1.394 1_455 S
C2303 C2304 1.516 1_556 S
C2304 C2303 1.516 1_554 S
C2304 C2305 1.502 . S
C2304 C2306 1.561 . S
C2304 C2307 1.538 . S
C2305 H2289 0.959 . S
C2305 H2290 0.959 . S
C2305 H2291 0.961 . S
C2305 C2304 1.502 . S
C2306 H2292 0.960 . S
C2306 H2293 0.961 . S
C2306 H2294 0.959 . S
C2306 C2304 1.561 . S
C2307 C2304 1.538 . S
C2307 C2308 1.386 1_455 S
C2307 C2312 1.386 1_455 S
C2308 C2302 1.465 1_554 S
C2308 C2307 1.386 1_655 S
C2308 C2309 1.399 . S
C2309 H2295 0.926 1_554 S
C2309 C2308 1.399 . S
C2309 C2310 1.385 . S
C2310 H2296 0.931 . S
C2310 C2309 1.385 . S
C2310 C2311 1.389 . S
C2311 C2310 1.389 . S
C2311 C2312 1.387 . S
C2312 H2297 0.930 1_655 S
C2312 C2307 1.386 1_655 S
C2312 C2311 1.387 . S
H2313 C2325 0.930 . S
H2314 C2327 0.930 . S
H2315 C2328 0.930 . S
H2316 C2332 0.959 . S
H2317 C2332 0.959 . S
H2318 C2332 0.961 . S
H2319 C2333 0.960 1_554 S
H2320 C2333 0.961 . S
H2321 C2333 0.959 1_554 S
H2322 C2336 0.929 . S
H2323 C2337 0.931 . S
H2324 C2339 0.930 . S
C2325 H2313 0.930 . S
C2325 C2326 1.399 . S
C2325 C2330 1.399 . S
C2326 C2325 1.399 . S
C2326 C2327 1.376 . S
C2327 H2314 0.930 . S
C2327 C2326 1.376 . S
C2327 C2328 1.388 . S
C2328 H2315 0.930 . S
C2328 C2327 1.388 . S
C2328 C2329 1.390 . S
C2329 C2328 1.390 . S
C2329 C2330 1.394 . S
C2329 C2335 1.465 1_554 S
C2330 C2325 1.399 . S
C2330 C2329 1.394 . S
C2330 C2331 1.516 1_554 S
C2331 C2330 1.516 1_556 S
C2331 C2332 1.502 . S
C2331 C2333 1.561 . S
C2331 C2334 1.526 . S
C2332 H2316 0.959 . S
C2332 H2317 0.959 . S
C2332 H2318 0.961 . S
C2332 C2331 1.502 . S
C2333 H2319 0.960 1_556 S
C2333 H2320 0.961 . S
C2333 H2321 0.959 1_556 S
C2333 C2331 1.561 . S
C2334 C2331 1.526 . S
C2334 C2335 1.396 . S
C2334 C2339 1.390 . S
C2335 C2329 1.465 1_556 S
C2335 C2334 1.396 . S
C2335 C2336 1.399 . S
C2336 H2322 0.929 . S
C2336 C2335 1.399 . S
C2336 C2337 1.385 . S
C2337 H2323 0.931 . S
C2337 C2336 1.385 . S
C2337 C2338 1.389 . S
C2338 C2337 1.389 . S
C2338 C2339 1.387 . S
C2339 H2324 0.930 . S
C2339 C2334 1.390 . S
C2339 C2338 1.387 . S
H2340 C2352 0.930 . S
H2341 C2354 0.930 1_565 S
H2342 C2355 0.930 . S
H2343 C2359 0.959 . S
H2344 C2359 0.959 . S
H2345 C2359 0.961 . S
H2346 C2360 0.960 . S
H2347 C2360 0.961 . S
H2348 C2360 0.959 . S
H2349 C2363 0.929 . S
H2350 C2364 0.931 . S
H2351 C2366 0.930 1_545 S
C2352 H2340 0.930 . S
C2352 C2353 1.399 . S
C2352 C2357 1.399 . S
C2353 C2352 1.399 . S
C2353 C2354 1.376 . S
C2354 H2341 0.930 1_545 S
C2354 C2353 1.376 . S
C2354 C2355 1.388 1_545 S
C2355 H2342 0.930 . S
C2355 C2354 1.388 1_565 S
C2355 C2356 1.390 . S
C2356 C2355 1.390 . S
C2356 C2357 1.394 1_565 S
C2356 C2362 1.465 1_554 S
C2357 C2352 1.399 . S
C2357 C2356 1.394 1_545 S
C2357 C2358 1.516 1_554 S
C2358 C2357 1.516 1_556 S
C2358 C2359 1.502 . S
C2358 C2360 1.561 . S
C2358 C2361 1.543 . S
C2359 H2343 0.959 . S
C2359 H2344 0.959 . S
C2359 H2345 0.961 . S
C2359 C2358 1.502 . S
C2360 H2346 0.960 . S
C2360 H2347 0.961 . S
C2360 H2348 0.959 . S
C2360 C2358 1.561 . S
C2361 C2358 1.543 . S
C2361 C2362 1.382 1_545 S
C2361 C2366 1.385 1_545 S
C2362 C2356 1.465 1_556 S
C2362 C2361 1.382 1_565 S
C2362 C2363 1.399 . S
C2363 H2349 0.929 . S
C2363 C2362 1.399 . S
C2363 C2364 1.385 . S
C2364 H2350 0.931 . S
C2364 C2363 1.385 . S
C2364 C2365 1.389 . S
C2365 C2364 1.389 . S
C2365 C2366 1.387 . S
C2366 H2351 0.930 1_565 S
C2366 C2361 1.385 1_565 S
C2366 C2365 1.387 . S
H2367 C2379 0.930 . S
H2368 C2381 0.931 1_545 S
H2369 C2382 0.930 . S
H2370 C2386 0.959 . S
H2371 C2386 0.959 . S
H2372 C2386 0.961 . S
H2373 C2387 0.960 . S
H2374 C2387 0.961 . S
H2375 C2387 0.959 . S
H2376 C2390 0.929 . S
H2377 C2391 0.931 . S
H2378 C2393 0.930 1_565 S
C2379 H2367 0.930 . S
C2379 C2380 1.399 . S
C2379 C2384 1.399 . S
C2380 C2379 1.399 . S
C2380 C2381 1.376 . S
C2381 H2368 0.931 1_565 S
C2381 C2380 1.376 . S
C2381 C2382 1.388 1_565 S
C2382 H2369 0.930 . S
C2382 C2381 1.388 1_545 S
C2382 C2383 1.390 . S
C2383 C2382 1.390 . S
C2383 C2384 1.394 1_545 S
C2383 C2389 1.465 1_556 S
C2384 C2379 1.399 . S
C2384 C2383 1.394 1_565 S
C2384 C2385 1.516 1_556 S
C2385 C2384 1.516 1_554 S
C2385 C2386 1.502 . S
C2385 C2387 1.561 . S
C2385 C2388 1.528 . S
C2386 H2370 0.959 . S
C2386 H2371 0.959 . S
C2386 H2372 0.961 . S
C2386 C2385 1.502 . S
C2387 H2373 0.960 . S
C2387 H2374 0.961 . S
C2387 H2375 0.959 . S
C2387 C2385 1.561 . S
C2388 C2385 1.528 . S
C2388 C2389 1.395 1_565 S
C2388 C2393 1.389 1_565 S
C2389 C2383 1.465 1_554 S
C2389 C2388 1.395 1_545 S
C2389 C2390 1.399 . S
C2390 H2376 0.929 . S
C2390 C2389 1.399 . S
C2390 C2391 1.385 . S
C2391 H2377 0.931 . S
C2391 C2390 1.385 . S
C2391 C2392 1.389 . S
C2392 C2391 1.389 . S
C2392 C2393 1.387 . S
C2393 H2378 0.930 1_545 S
C2393 C2388 1.389 1_545 S
C2393 C2392 1.387 . S
H2394 C2406 0.930 . S
H2395 C2408 0.930 . S
H2396 C2409 0.930 . S
H2397 C2413 0.959 . S
H2398 C2413 0.959 . S
H2399 C2413 0.961 . S
H2400 C2414 0.960 1_556 S
H2401 C2414 0.993 . S
H2402 C2414 0.959 1_656 S
H2403 C2417 0.929 . S
H2404 C2418 0.931 . S
H2405 C2420 0.930 . S
C2406 H2394 0.930 . S
C2406 C2407 1.399 . S
C2406 C2411 1.399 . S
C2407 C2406 1.399 . S
C2407 C2408 1.376 . S
C2408 H2395 0.930 . S
C2408 C2407 1.376 . S
C2408 C2409 1.388 1_455 S
C2409 H2396 0.930 . S
C2409 C2408 1.388 1_655 S
C2409 C2410 1.390 . S
C2410 C2409 1.390 . S
C2410 C2411 1.394 1_655 S
C2410 C2416 1.465 1_556 S
C2411 C2406 1.399 . S
C2411 C2410 1.394 1_455 S
C2411 C2412 1.516 1_556 S
C2412 C2411 1.516 1_554 S
C2412 C2413 1.502 . S
C2412 C2414 1.561 . S
C2412 C2415 1.526 1_455 S
C2413 H2397 0.959 . S
C2413 H2398 0.959 . S
C2413 H2399 0.961 . S
C2413 C2412 1.502 . S
C2414 H2400 0.960 1_554 S
C2414 H2401 0.993 . S
C2414 H2402 0.959 1_454 S
C2414 C2412 1.561 . S
C2415 C2412 1.526 1_655 S
C2415 C2416 1.396 . S
C2415 C2420 1.390 . S
C2416 C2410 1.465 1_554 S
C2416 C2415 1.396 . S
C2416 C2417 1.399 . S
C2417 H2403 0.929 . S
C2417 C2416 1.399 . S
C2417 C2418 1.385 . S
C2418 H2404 0.931 . S
C2418 C2417 1.385 . S
C2418 C2419 1.389 . S
C2419 C2418 1.389 . S
C2419 C2420 1.387 . S
C2420 H2405 0.930 . S
C2420 C2415 1.390 . S
C2420 C2419 1.387 . S
H2421 C2433 0.930 . S
H2422 C2435 0.930 . S
H2423 C2436 0.930 . S
H2424 C2440 0.959 . S
H2425 C2440 0.959 . S
H2426 C2440 0.961 . S
H2427 C2441 0.960 . S
H2428 C2441 0.961 1_556 S
H2429 C2441 0.959 1_556 S
H2430 C2444 0.929 . S
H2431 C2445 0.931 . S
H2432 C2447 0.930 . S
C2433 H2421 0.930 . S
C2433 C2434 1.399 . S
C2433 C2438 1.399 . S
C2434 C2433 1.399 . S
C2434 C2435 1.376 . S
C2435 H2422 0.930 . S
C2435 C2434 1.376 . S
C2435 C2436 1.388 . S
C2436 H2423 0.930 . S
C2436 C2435 1.388 . S
C2436 C2437 1.390 . S
C2437 C2436 1.390 . S
C2437 C2438 1.394 . S
C2437 C2443 1.465 1_554 S
C2438 C2433 1.399 . S
C2438 C2437 1.394 . S
C2438 C2439 1.516 . S
C2439 C2438 1.516 . S
C2439 C2440 1.502 . S
C2439 C2441 1.561 . S
C2439 C2442 1.526 1_554 S
C2440 H2424 0.959 . S
C2440 H2425 0.959 . S
C2440 H2426 0.961 . S
C2440 C2439 1.502 . S
C2441 H2427 0.960 . S
C2441 H2428 0.961 1_554 S
C2441 H2429 0.959 1_554 S
C2441 C2439 1.561 . S
C2442 C2439 1.526 1_556 S
C2442 C2443 1.396 . S
C2442 C2447 1.390 . S
C2443 C2437 1.465 1_556 S
C2443 C2442 1.396 . S
C2443 C2444 1.399 . S
C2444 H2430 0.929 . S
C2444 C2443 1.399 . S
C2444 C2445 1.385 . S
C2445 H2431 0.931 . S
C2445 C2444 1.385 . S
C2445 C2446 1.389 . S
C2446 C2445 1.389 . S
C2446 C2447 1.387 . S
C2447 H2432 0.930 . S
C2447 C2442 1.390 . S
C2447 C2446 1.387 . S
C517 C9 1.358 . S
C529 C163 1.363 . S
C544 C23 1.313 . S
C556 C135 1.324 . S
C571 C149 1.349 . S
C583 C37 1.339 . S
C598 C51 1.359 . S
C610 C107 1.350 . S
C625 C121 1.303 . S
C637 C65 1.313 . S
C652 C79 1.354 . S
C664 C93 1.361 . S
C679 C331 1.358 . S
C691 C177 1.363 . S
C706 C191 1.357 . S
C718 C303 1.348 . S
C733 C205 1.305 . S
C745 C317 1.315 . S
C760 C275 1.299 . S
C772 C219 1.307 . S
C787 C233 1.359 . S
C799 C289 1.351 . S
C814 C261 1.340 . S
C826 C247 1.350 . S
C841 C345 1.307 . S
C853 C499 1.301 . S
C868 C471 1.356 . S
C880 C359 1.347 . S
C895 C485 1.337 . S
C907 C373 1.348 . S
C922 C443 1.316 . S
C934 C387 1.327 . S
C949 C457 1.301 . S
C961 C401 1.296 . S
C976 C429 1.304 . S
C988 C415 1.298 . S
C1003 C8 1.348 . S
C1015 C64 1.382 . S
C1030 C78 1.372 . S
C1042 C22 1.361 . S
C1057 C36 1.382 . S
C1069 C50 1.347 . S
C1084 C92 1.356 . S
C1096 C148 1.359 . S
C1111 C106 1.368 . S
C1123 C162 1.375 . S
C1138 C120 1.356 . S
C1150 C134 1.382 . S
C1165 C232 1.382 . S
C1177 C176 1.347 . S
C1192 C246 1.364 . S
C1204 C190 1.370 . S
C1219 C204 1.378 . S
C1231 C218 1.355 . S
C1246 C316 1.362 . S
C1258 C260 1.379 . S
C1273 C330 1.350 . S
C1285 C274 1.382 . S
C1300 C288 1.355 . S
C1312 C302 1.382 . S
C1327 C400 1.352 . S
C1339 C344 1.374 . S
C1354 C358 1.382 . S
C1366 C414 1.347 . S
C1381 C372 1.347 . S
C1393 C386 1.382 . S
C1408 C484 1.378 . S
C1420 C428 1.365 . S
C1435 C442 1.366 . S
C1447 C498 1.350 . S
C1462 C470 1.352 . S
C1474 C456 1.382 . S
C1489 C413 1.027 . S
C1501 C7 0.987 . S
C1516 C21 0.980 . S
C1528 C385 0.993 . S
C1543 C35 0.979 . S
C1555 C399 0.995 . S
C1570 C49 0.983 . S
C1582 C189 1.020 . S
C1597 C203 1.057 . S
C1609 C63 1.023 . S
C1624 C175 1.008 . S
C1636 C77 1.049 . S
C1651 C91 1.027 . S
C1663 C329 1.057 . S
C1678 C105 0.994 . S
C1690 C301 1.054 . S
C1705 C119 0.988 . S
C1717 C315 1.000 . S
C1732 C441 1.042 . S
C1744 C133 0.983 . S
C1759 C455 1.046 . S
C1771 C147 0.985 . S
C1786 C161 1.002 . S
C1798 C427 0.986 . S
C1813 C357 0.979 . S
C1825 C217 0.996 . S
C1840 C231 0.986 . S
C1852 C371 0.984 . S
C1867 C343 0.988 . S
C1879 C245 0.983 . S
C1894 C497 0.978 . S
C1906 C259 1.027 . S
C1921 C273 1.008 . S
C1933 C469 1.059 . S
C1948 C287 1.047 . S
C1960 C483 1.044 . S
C1975 C3 1.681 . S
C1987 C409 1.682 . S
C2002 C381 1.692 . S
C2014 C17 1.692 . S
C2029 C31 1.678 . S
C2041 C395 1.679 . S
C2056 C185 1.691 . S
C2068 C45 1.691 . S
C2083 C59 1.684 . S
C2095 C199 1.684 . S
C2110 C73 1.685 . S
C2122 C171 1.686 . S
C2137 C325 1.690 . S
C2149 C87 1.687 . S
C2164 C101 1.689 . S
C2176 C297 1.686 . S
C2191 C115 1.684 . S
C2203 C311 1.681 . S
C2218 C129 1.678 . S
C2230 C437 1.678 . S
C2245 C451 1.684 . S
C2257 C143 1.688 . S
C2272 C157 1.690 . S
C2284 C423 1.687 . S
C2299 C353 1.683 . S
C2311 C213 1.683 . S
C2326 C227 1.689 . S
C2338 C367 1.689 . S
C2353 C241 1.682 . S
C2365 C339 1.682 . S
C2380 C493 1.691 . S
C2392 C255 1.688 . S
C2407 C465 1.683 . S
C2419 C269 1.680 . S
C2434 C283 1.686 . S
C2446 C479 1.690 . S
