# Generated by pormake.
# Topology ecf, (8)-cn, num edge types: 1
# Building blocks:
#     Node 0, Type 0, BuildingBlock: TAGTUT_clean_sbu_1, # of connection points: 8
#     Node 1, Type 0, BuildingBlock: TAGTUT_clean_sbu_1, # of connection points: 8
#     Node 2, Type 0, BuildingBlock: TAGTUT_clean_sbu_1, # of connection points: 8
#     Node 3, Type 0, BuildingBlock: TAGTUT_clean_sbu_1, # of connection points: 8
#     Node 4, Type 0, BuildingBlock: TAGTUT_clean_sbu_1, # of connection points: 8
#     Node 5, Type 0, BuildingBlock: TAGTUT_clean_sbu_1, # of connection points: 8
#     Edge 6, Type (0, 0), BuildingBlock: XIVTED_clean_linker_0, # of connection points: 2
#     Edge 7, Type (0, 0), BuildingBlock: XIVTED_clean_linker_0, # of connection points: 2
#     Edge 8, Type (0, 0), BuildingBlock: XIVTED_clean_linker_0, # of connection points: 2
#     Edge 9, Type (0, 0), BuildingBlock: XIVTED_clean_linker_0, # of connection points: 2
#     Edge 10, Type (0, 0), BuildingBlock: XIVTED_clean_linker_0, # of connection points: 2
#     Edge 11, Type (0, 0), BuildingBlock: XIVTED_clean_linker_0, # of connection points: 2
#     Edge 12, Type (0, 0), BuildingBlock: XIVTED_clean_linker_0, # of connection points: 2
#     Edge 13, Type (0, 0), BuildingBlock: XIVTED_clean_linker_0, # of connection points: 2
#     Edge 14, Type (0, 0), BuildingBlock: XIVTED_clean_linker_0, # of connection points: 2
#     Edge 15, Type (0, 0), BuildingBlock: XIVTED_clean_linker_0, # of connection points: 2
#     Edge 16, Type (0, 0), BuildingBlock: XIVTED_clean_linker_0, # of connection points: 2
#     Edge 17, Type (0, 0), BuildingBlock: XIVTED_clean_linker_0, # of connection points: 2
#     Edge 18, Type (0, 0), BuildingBlock: XIVTED_clean_linker_0, # of connection points: 2
#     Edge 19, Type (0, 0), BuildingBlock: XIVTED_clean_linker_0, # of connection points: 2
#     Edge 20, Type (0, 0), BuildingBlock: XIVTED_clean_linker_0, # of connection points: 2
#     Edge 21, Type (0, 0), BuildingBlock: XIVTED_clean_linker_0, # of connection points: 2
#     Edge 22, Type (0, 0), BuildingBlock: XIVTED_clean_linker_0, # of connection points: 2
#     Edge 23, Type (0, 0), BuildingBlock: XIVTED_clean_linker_0, # of connection points: 2
#     Edge 24, Type (0, 0), BuildingBlock: XIVTED_clean_linker_0, # of connection points: 2
#     Edge 25, Type (0, 0), BuildingBlock: XIVTED_clean_linker_0, # of connection points: 2
#     Edge 26, Type (0, 0), BuildingBlock: XIVTED_clean_linker_0, # of connection points: 2
#     Edge 27, Type (0, 0), BuildingBlock: XIVTED_clean_linker_0, # of connection points: 2
#     Edge 28, Type (0, 0), BuildingBlock: XIVTED_clean_linker_0, # of connection points: 2
#     Edge 29, Type (0, 0), BuildingBlock: XIVTED_clean_linker_0, # of connection points: 2
# Relax obj value: 0.208
# Max RMSD: 0.207
# Mean RMSD: 0.189
data_MOF--net-ecf--node1-TAGTUT_clean_sbu_1--edge1-XIVTED_clean_linker_0
_symmetry_space_group_name_H-M    P1
_symmetry_Int_Tables_number       1
_symmetry_cell_setting            triclinic
loop_
_symmetry_equiv_pos_as_xyz
'x, y, z'
_cell_length_a     33.829923
_cell_length_b     34.074092
_cell_length_c     27.625522
_cell_angle_alpha  96.549599
_cell_angle_beta   91.375087
_cell_angle_gamma 119.80218
loop_
_atom_site_label
_atom_site_type_symbol
_atom_site_fract_x
_atom_site_fract_y
_atom_site_fract_z
_atom_type_partial_charge
C0 C 0.04241 0.18187 0.15951 0.0
C1 C 0.10762 0.32163 0.14132 0.0
C2 C 0.26629 0.3238 0.15668 0.0
Mg3 Mg 0.09231 0.2732 0.22965 0.0
O4 O 0.14138 0.26256 0.22126 0.0
Mg5 Mg 0.15478 0.25511 0.15129 0.0
Mg6 Mg 0.20101 0.31688 0.24768 0.0
O7 O 0.25975 0.37193 0.27372 0.0
Mg8 Mg 0.31503 0.37254 0.26505 0.0
Mg9 Mg 0.24606 0.38369 0.34275 0.0
C10 C 0.13624 0.30482 0.3401 0.0
C11 C 0.18071 0.40032 0.27128 0.0
O12 O 0.07961 0.19101 0.13967 0.0
O13 O 0.04033 0.20844 0.19465 0.0
O14 O 0.12687 0.29919 0.1255 0.0
O15 O 0.09387 0.32007 0.18389 0.0
O16 O 0.10171 0.29017 0.30851 0.0
O17 O 0.17621 0.31383 0.32723 0.0
C18 C 0.21585 0.23173 0.22133 0.0
O19 O 0.22588 0.26654 0.25328 0.0
O20 O 0.18799 0.21955 0.18288 0.0
O21 O 0.3146 0.45358 0.34679 0.0
O22 O 0.35814 0.44398 0.29133 0.0
O23 O 0.28531 0.35135 0.37369 0.0
C24 C 0.35108 0.4691 0.32408 0.0
O25 O 0.32345 0.33473 0.31791 0.0
O26 O 0.30245 0.34436 0.18707 0.0
C27 C 0.31061 0.33461 0.36096 0.0
O28 O 0.2273 0.31781 0.16981 0.0
O29 O 0.1749 0.36679 0.23986 0.0
O30 O 0.20628 0.41274 0.31125 0.0
C31 C 0.88353 0.34822 0.6724 0.0
C32 C 0.95863 0.2771 0.63013 0.0
C33 C 0.80156 0.12949 0.6795 0.0
Mg34 Mg 0.94326 0.31893 0.72823 0.0
O35 O 0.88593 0.26661 0.72818 0.0
Mg36 Mg 0.84854 0.23553 0.66404 0.0
Mg37 Mg 0.87883 0.21222 0.75613 0.0
O38 O 0.87088 0.1577 0.78479 0.0
Mg39 Mg 0.81074 0.11328 0.78958 0.0
Mg40 Mg 0.90964 0.18766 0.84842 0.0
C41 C 0.95218 0.29763 0.83706 0.0
C42 C 0.97188 0.20861 0.75553 0.0
O43 O 0.85712 0.30629 0.65327 0.0
O44 O 0.91803 0.36057 0.70319 0.0
O45 O 0.91481 0.25163 0.62199 0.0
O46 O 0.9772 0.30394 0.67037 0.0
O47 O 0.96644 0.32532 0.8051 0.0
O48 O 0.91824 0.25651 0.82723 0.0
C49 C 0.7806 0.20708 0.75224 0.0
O50 O 0.81011 0.20243 0.77715 0.0
O51 O 0.78718 0.21975 0.70967 0.0
O52 O 0.89494 0.11384 0.8587 0.0
O53 O 0.82601 0.06593 0.81668 0.0
O54 O 0.84905 0.17254 0.89635 0.0
C55 C 0.86085 0.07337 0.84397 0.0
O56 O 0.78333 0.13432 0.84904 0.0
O57 O 0.78555 0.10525 0.71418 0.0
C58 C 0.80527 0.15229 0.8911 0.0
O59 O 0.83949 0.16775 0.68557 0.0
O60 O 0.94583 0.21895 0.73246 0.0
O61 O 0.9653 0.19746 0.79861 0.0
C62 C 0.51482 0.88698 0.19121 0.0
C63 C 0.65518 0.95737 0.14757 0.0
C64 C 0.64953 0.79994 0.1889 0.0
Mg65 Mg 0.61201 0.94654 0.24549 0.0
O66 O 0.60732 0.88945 0.24219 0.0
Mg67 Mg 0.58999 0.84958 0.1776 0.0
Mg68 Mg 0.65676 0.88012 0.26858 0.0
O69 O 0.70453 0.86891 0.29646 0.0
Mg70 Mg 0.68484 0.80763 0.30017 0.0
Mg71 Mg 0.7232 0.91033 0.36044 0.0
C72 C 0.66061 0.95907 0.35081 0.0
C73 C 0.75712 0.96918 0.26926 0.0
O74 O 0.52779 0.86053 0.16932 0.0
O75 O 0.54124 0.92148 0.22325 0.0
O76 O 0.63448 0.91352 0.13718 0.0
O77 O 0.65314 0.97716 0.18868 0.0
O78 O 0.64246 0.97309 0.32076 0.0
O79 O 0.66339 0.92294 0.33995 0.0
C80 C 0.56029 0.78504 0.26411 0.0
O81 O 0.59823 0.81409 0.28912 0.0
O82 O 0.54925 0.79061 0.22173 0.0
O83 O 0.78014 0.89105 0.36982 0.0
O84 O 0.75042 0.82038 0.32674 0.0
O85 O 0.68093 0.8533 0.40683 0.0
C86 C 0.78259 0.85527 0.35421 0.0
O87 O 0.64489 0.78499 0.36096 0.0
O88 O 0.6593 0.78246 0.22301 0.0
C89 C 0.65484 0.80991 0.40246 0.0
O90 O 0.65073 0.83836 0.19711 0.0
O91 O 0.71751 0.94437 0.24541 0.0
O92 O 0.76529 0.96319 0.31248 0.0
C93 C 0.92434 0.75122 0.66075 0.0
C94 C 0.81921 0.61761 0.61158 0.0
C95 C 0.69983 0.66029 0.66997 0.0
Mg96 Mg 0.86783 0.66652 0.71155 0.0
O97 O 0.83598 0.69837 0.7212 0.0
Mg98 Mg 0.81178 0.70921 0.66028 0.0
Mg99 Mg 0.77757 0.66071 0.74808 0.0
O100 O 0.71921 0.61991 0.77262 0.0
Mg101 Mg 0.66944 0.62964 0.77303 0.0
Mg102 Mg 0.74313 0.6092 0.83353 0.0
C103 C 0.85317 0.65926 0.82416 0.0
C104 C 0.76793 0.56002 0.74219 0.0
O105 O 0.88851 0.75348 0.64925 0.0
O106 O 0.92345 0.72039 0.6839 0.0
O107 O 0.81042 0.64992 0.61059 0.0
O108 O 0.83678 0.61323 0.65048 0.0
O109 O 0.87499 0.65716 0.78737 0.0
O110 O 0.81707 0.66277 0.81893 0.0
C111 C 0.80154 0.7659 0.75761 0.0
O112 O 0.783 0.72964 0.77825 0.0
O113 O 0.81413 0.76573 0.71424 0.0
O114 O 0.66816 0.55305 0.83756 0.0
O115 O 0.62051 0.56419 0.79035 0.0
O116 O 0.73104 0.66278 0.8782 0.0
C117 C 0.62808 0.54027 0.81769 0.0
O118 O 0.68697 0.68056 0.83473 0.0
O119 O 0.66879 0.64743 0.69993 0.0
C120 C 0.71105 0.6859 0.87377 0.0
O121 O 0.73848 0.6627 0.6798 0.0
O122 O 0.77573 0.5932 0.71874 0.0
O123 O 0.75553 0.55895 0.7856 0.0
C124 C 0.18615 0.94177 0.20932 0.0
C125 C 0.19719 0.83797 0.12924 0.0
C126 C 0.025 0.722 0.15023 0.0
Mg127 Mg 0.19753 0.86395 0.23881 0.0
O128 O 0.13387 0.84004 0.23687 0.0
Mg129 Mg 0.10242 0.83354 0.17184 0.0
Mg130 Mg 0.10408 0.77571 0.24609 0.0
O131 O 0.07841 0.71145 0.25362 0.0
Mg132 Mg 0.01851 0.66436 0.23557 0.0
Mg133 Mg 0.11138 0.71765 0.31728 0.0
C134 C 0.18215 0.82758 0.34115 0.0
C135 C 0.18711 0.75437 0.23906 0.0
O136 O 0.1476 0.91317 0.18434 0.0
O137 O 0.21001 0.92985 0.23366 0.0
O138 O 0.15728 0.83309 0.12562 0.0
O139 O 0.21911 0.84626 0.17088 0.0
O140 O 0.21018 0.85179 0.31175 0.0
O141 O 0.14 0.79733 0.32642 0.0
C142 C 0.03291 0.81193 0.25776 0.0
O143 O 0.04514 0.78489 0.27279 0.0
O144 O 0.04964 0.83322 0.22132 0.0
O145 O 0.08467 0.64014 0.29839 0.0
O146 O 0.0305 0.60807 0.23444 0.0
O147 O 0.04491 0.69912 0.35529 0.0
C148 C 0.0573 0.60602 0.26627 0.0
O149 O 0.98458 0.66631 0.29873 0.0
O150 O 0.00275 0.6856 0.16996 0.0
C151 C 0.00174 0.67996 0.34317 0.0
O152 O 0.06486 0.75471 0.16885 0.0
O153 O 0.16451 0.77009 0.21906 0.0
O154 O 0.17466 0.73448 0.27699 0.0
C155 C 0.21215 0.15391 0.66144 0.0
C156 C 0.34708 0.19779 0.63374 0.0
C157 C 0.32081 0.03577 0.66108 0.0
Mg158 Mg 0.3013 0.18897 0.72903 0.0
O159 O 0.27638 0.12538 0.72386 0.0
Mg160 Mg 0.26588 0.0932 0.65483 0.0
Mg161 Mg 0.32092 0.11028 0.7519 0.0
O162 O 0.36752 0.09775 0.77857 0.0
Mg163 Mg 0.36483 0.04116 0.76767 0.0
Mg164 Mg 0.38164 0.13129 0.84669 0.0
C165 C 0.32016 0.18223 0.84216 0.0
C166 C 0.41624 0.20691 0.7739 0.0
O167 O 0.21367 0.11817 0.64332 0.0
O168 O 0.24183 0.18455 0.69481 0.0
O169 O 0.3183 0.15531 0.62168 0.0
O170 O 0.35093 0.21798 0.67687 0.0
O171 O 0.31632 0.20433 0.80918 0.0
O172 O 0.31953 0.14386 0.83089 0.0
C173 C 0.22301 0.02018 0.73091 0.0
O174 O 0.25942 0.04158 0.76051 0.0
O175 O 0.2179 0.03394 0.69124 0.0
O176 O 0.44596 0.12263 0.85 0.0
O177 O 0.43545 0.06645 0.79043 0.0
O178 O 0.33917 0.06292 0.87809 0.0
C179 C 0.46058 0.09906 0.82485 0.0
O180 O 0.32424 0.00318 0.8221 0.0
O181 O 0.33762 0.02001 0.69054 0.0
C182 C 0.32125 0.01973 0.86478 0.0
O183 O 0.31912 0.07254 0.6747 0.0
O184 O 0.38145 0.18081 0.74308 0.0
O185 O 0.42256 0.19518 0.81424 0.0
H186 H 0.15252 0.41966 0.18699 0.0
H187 H 0.06638 0.56807 0.34324 0.0
H188 H 0.14465 0.42848 0.34316 0.0
H189 H 0.05526 0.55035 0.1855 0.0
H190 H 0.08521 0.5078 0.34144 0.0
H191 H 0.10852 0.45922 0.18242 0.0
C192 C 0.14108 0.42947 0.22006 0.0
C193 C 0.15282 0.42174 0.26557 0.0
C194 C 0.0781 0.51644 0.30701 0.0
C195 C 0.10301 0.46646 0.26088 0.0
C196 C 0.06729 0.55082 0.30817 0.0
C197 C 0.05984 0.56423 0.26453 0.0
C198 C 0.08276 0.49621 0.26187 0.0
C199 C 0.06094 0.54075 0.21992 0.0
C200 C 0.11607 0.45195 0.21752 0.0
C201 C 0.13736 0.43495 0.30747 0.0
N202 N 0.07326 0.50833 0.21967 0.0
N203 N 0.11359 0.45688 0.30412 0.0
H204 H 0.53127 0.18615 0.85288 0.0
H205 H 0.72449 0.1261 0.78224 0.0
H206 H 0.50232 0.04867 0.80479 0.0
H207 H 0.73471 0.25443 0.76308 0.0
H208 H 0.64897 0.10041 0.81174 0.0
H209 H 0.61231 0.21441 0.84232 0.0
C210 C 0.54213 0.16176 0.84147 0.0
C211 C 0.51003 0.11496 0.82952 0.0
C212 C 0.66795 0.13438 0.80164 0.0
C213 C 0.60234 0.14714 0.81714 0.0
C214 C 0.71112 0.14919 0.78535 0.0
C215 C 0.73587 0.19262 0.77112 0.0
C216 C 0.64958 0.1634 0.80398 0.0
C217 C 0.7165 0.22072 0.7739 0.0
C218 C 0.58824 0.17801 0.83492 0.0
C219 C 0.52593 0.08501 0.81419 0.0
N220 N 0.67439 0.20566 0.79022 0.0
N221 N 0.57099 0.10163 0.80825 0.0
H222 H 0.33367 0.53924 0.34522 0.0
H223 H 0.58547 0.72767 0.29507 0.0
H224 H 0.44279 0.51138 0.31643 0.0
H225 H 0.46796 0.74324 0.27207 0.0
H226 H 0.53681 0.6544 0.32316 0.0
H227 H 0.38609 0.62015 0.33902 0.0
C228 C 0.36895 0.55038 0.33891 0.0
C229 C 0.38397 0.51867 0.33103 0.0
C230 C 0.52167 0.67406 0.31266 0.0
C231 C 0.44362 0.61056 0.32365 0.0
C232 C 0.54956 0.71613 0.29736 0.0
C233 C 0.53077 0.7418 0.28255 0.0
C234 C 0.4745 0.65735 0.31284 0.0
C235 C 0.48359 0.72433 0.28353 0.0
C236 C 0.39862 0.59635 0.33488 0.0
C237 C 0.42981 0.53472 0.32237 0.0
N238 N 0.45691 0.68301 0.29848 0.0
N239 N 0.45794 0.57949 0.31868 0.0
H240 H 0.93364 0.44079 0.69948 0.0
H241 H 0.79855 0.51719 0.79534 0.0
H242 H 0.80225 0.33393 0.62917 0.0
H243 H 0.76714 0.52572 0.64579 0.0
H244 H 0.82871 0.46812 0.76577 0.0
H245 H 0.90411 0.49344 0.70654 0.0
C246 C 0.899 0.4286 0.68436 0.0
C247 C 0.87005 0.3825 0.66477 0.0
C248 C 0.81502 0.48069 0.73953 0.0
C249 C 0.83657 0.4428 0.67253 0.0
C250 C 0.79742 0.5083 0.7562 0.0
C251 C 0.78077 0.52603 0.72292 0.0
C252 C 0.81559 0.47012 0.68923 0.0
C253 C 0.78051 0.51342 0.67256 0.0
C254 C 0.88234 0.45874 0.68833 0.0
C255 C 0.8256 0.36901 0.64514 0.0
N256 N 0.79775 0.48596 0.65699 0.0
N257 N 0.80976 0.39887 0.65048 0.0
H258 H 0.21455 0.7592 0.14601 0.0
H259 H 0.44828 0.82316 0.12028 0.0
H260 H 0.26356 0.78101 0.29778 0.0
H261 H 0.46885 0.91577 0.25149 0.0
H262 H 0.36521 0.78792 0.12395 0.0
H263 H 0.29423 0.79386 0.12459 0.0
C264 C 0.24201 0.7705 0.17456 0.0
C265 C 0.23273 0.7671 0.22364 0.0
C266 C 0.38812 0.81666 0.15111 0.0
C267 C 0.32285 0.80713 0.19979 0.0
C268 C 0.43542 0.83678 0.14913 0.0
C269 C 0.46563 0.87229 0.18585 0.0
C270 C 0.37133 0.83171 0.19058 0.0
C271 C 0.44705 0.88851 0.22243 0.0
C272 C 0.2872 0.79017 0.16235 0.0
C273 C 0.26927 0.78245 0.25945 0.0
N274 N 0.40113 0.86737 0.22448 0.0
N275 N 0.3128 0.80251 0.24689 0.0
H276 H 0.50843 0.25161 0.78489 0.0
H277 H 0.53869 0.49788 0.77872 0.0
H278 H 0.39354 0.27009 0.75529 0.0
H279 H 0.63533 0.47325 0.85547 0.0
H280 H 0.48603 0.41536 0.76186 0.0
H281 H 0.55875 0.33454 0.79789 0.0
C282 C 0.49419 0.27327 0.77938 0.0
C283 C 0.44721 0.25431 0.76753 0.0
C284 C 0.51859 0.42824 0.78284 0.0
C285 C 0.50375 0.34866 0.78429 0.0
C286 C 0.54852 0.47528 0.79286 0.0
C287 C 0.59179 0.49254 0.81802 0.0
C288 C 0.53237 0.39852 0.79768 0.0
C289 C 0.60256 0.46162 0.83561 0.0
C290 C 0.52264 0.32044 0.78754 0.0
C291 C 0.4299 0.28348 0.76209 0.0
N292 N 0.5733 0.41607 0.82446 0.0
N293 N 0.45823 0.32948 0.77084 0.0
H294 H 0.23014 0.20095 0.30343 0.0
H295 H 0.1788 0.98642 0.1372 0.0
H296 H 0.25194 0.20275 0.15033 0.0
H297 H 0.23637 0.00766 0.28552 0.0
H298 H 0.2103 0.06881 0.14222 0.0
H299 H 0.24252 0.13573 0.30175 0.0
C300 C 0.23918 0.18856 0.27007 0.0
C301 C 0.23806 0.20516 0.22642 0.0
C302 C 0.21672 0.05547 0.17339 0.0
C303 C 0.25142 0.13163 0.22394 0.0
C304 C 0.19807 0.00857 0.17071 0.0
C305 C 0.20449 0.9907 0.21121 0.0
C306 C 0.24068 0.08411 0.21731 0.0
C307 C 0.23049 0.02053 0.25365 0.0
C308 C 0.24624 0.15154 0.26902 0.0
C309 C 0.25071 0.18909 0.18416 0.0
N310 N 0.24698 0.06597 0.25604 0.0
N311 N 0.25564 0.15213 0.18351 0.0
H312 H 0.98548 0.138 0.7605 0.0
H313 H 0.21233 0.23225 0.65082 0.0
H314 H 0.02858 0.25638 0.68745 0.0
H315 H 0.12258 0.08688 0.64374 0.0
H316 H 0.14629 0.24313 0.65652 0.0
H317 H 0.03614 0.11948 0.71531 0.0
C318 C 0.00604 0.16035 0.73509 0.0
C319 C 0.00391 0.19944 0.72851 0.0
C320 C 0.14084 0.20874 0.65195 0.0
C321 C 0.06166 0.1781 0.67622 0.0
C322 C 0.17843 0.2025 0.6488 0.0
C323 C 0.1727 0.1587 0.64796 0.0
C324 C 0.09778 0.17102 0.65569 0.0
C325 C 0.12832 0.12121 0.64489 0.0
C326 C 0.03427 0.14926 0.70862 0.0
C327 C 0.03004 0.22639 0.69401 0.0
N328 N 0.09252 0.12835 0.65043 0.0
N329 N 0.05889 0.21582 0.6698 0.0
H330 H 0.96343 0.1671 0.11398 0.0
H331 H 0.84673 0.01316 0.30432 0.0
H332 H 0.02482 0.09952 0.18052 0.0
H333 H 0.75926 -0.00735 0.17606 0.0
H334 H 0.91303 0.05277 0.25995 0.0
H335 H 0.88774 0.10692 0.13058 0.0
C336 C 0.96062 0.13813 0.12956 0.0
C337 C 0.00017 0.13794 0.14582 0.0
C338 C 0.87932 0.03952 0.24141 0.0
C339 C 0.9147 0.07105 0.16722 0.0
C340 C 0.84126 0.01746 0.26695 0.0
C341 C 0.79699 -0.00042 0.24404 0.0
C342 C 0.87366 0.04501 0.19278 0.0
C343 C 0.79267 0.0063 0.1953 0.0
C344 C 0.91756 0.10419 0.13953 0.0
C345 C -0.00494 0.10054 0.16706 0.0
N346 N 0.8307 0.02905 0.17128 0.0
N347 N 0.95316 0.06928 0.17864 0.0
H348 H 0.9308 0.05497 0.83904 0.0
H349 H 0.75749 0.78676 0.83049 0.0
H350 H 0.79083 -0.0015 0.87311 0.0
H351 H 0.87612 0.8468 0.7494 0.0
H352 H 0.77922 0.86405 0.87094 0.0
H353 H 0.92169 0.97842 0.83362 0.0
C354 C 0.89877 0.02676 0.84717 0.0
C355 C 0.8613 0.03259 0.85579 0.0
C356 C 0.80066 0.85997 0.84471 0.0
C357 C 0.85033 0.94544 0.84892 0.0
C358 C 0.7882 0.81607 0.82161 0.0
C359 C 0.81434 0.8107 0.78563 0.0
C360 C 0.83998 0.8982 0.83235 0.0
C361 C 0.85425 0.84959 0.77591 0.0
C362 C 0.89337 0.98308 0.84361 0.0
C363 C 0.82029 -0.00502 0.86566 0.0
N364 N 0.86569 0.89162 0.79889 0.0
N365 N 0.81561 0.95276 0.86121 0.0
H366 H 0.79099 0.7828 0.37116 0.0
H367 H 0.02634 0.8883 0.26114 0.0
H368 H 0.8704 0.92573 0.35659 0.0
H369 H 0.96918 0.75978 0.31768 0.0
H370 H 0.97297 0.90484 0.30335 0.0
H371 H 0.8591 0.7761 0.36246 0.0
C372 C 0.82321 0.81307 0.36745 0.0
C373 C 0.82517 0.8547 0.36371 0.0
C374 C 0.9723 0.87322 0.30708 0.0
C375 C 0.90267 0.84704 0.35241 0.0
C376 C 0.00241 0.86346 0.28246 0.0
C377 C 0.0014 0.82209 0.28501 0.0
C378 C 0.94021 0.84102 0.33377 0.0
C379 C 0.97057 0.79178 0.31422 0.0
C380 C 0.86203 0.80923 0.36243 0.0
C381 C 0.86757 0.893 0.35939 0.0
N382 N 0.94053 0.8015 0.33684 0.0
N383 N 0.90455 0.88799 0.3526 0.0
H384 H 0.14753 0.00934 0.77076 0.0
H385 H 0.0029 0.75003 0.64689 0.0
H386 H 0.21121 0.93625 0.70601 0.0
H387 H 0.94835 0.84054 0.67208 0.0
H388 H 0.07953 0.81441 0.67386 0.0
H389 H 0.07259 0.94088 0.74874 0.0
C390 C 0.14558 0.97797 0.75409 0.0
C391 C 0.1849 0.97763 0.74049 0.0
C392 C 0.05087 0.82025 0.67263 0.0
C393 C 0.10028 0.90088 0.71263 0.0
C394 C 0.00741 0.78383 0.65656 0.0
C395 C 0.96955 0.79023 0.65775 0.0
C396 C 0.05598 0.86286 0.69036 0.0
C397 C 0.97679 0.83436 0.67056 0.0
C398 C 0.10299 0.93943 0.74037 0.0
C399 C 0.18122 0.93704 0.71765 0.0
N400 N 0.01927 0.86905 0.68737 0.0
N401 N 0.13927 0.90013 0.70354 0.0
H402 H 0.34085 0.35937 0.10543 0.0
H403 H 0.26407 0.13527 0.91085 0.0
H404 H 0.20507 0.24225 0.09591 0.0
H405 H 0.36824 0.26997 0.88843 0.0
H406 H 0.24827 0.16925 0.98643 0.0
H407 H 0.35621 0.32359 0.03234 0.0
C408 C 0.31393 0.32621 0.08776 0.0
C409 C 0.27145 0.30405 0.10738 0.0
C410 C 0.27502 0.19122 0.96529 0.0
C411 C 0.28963 0.26181 0.02349 0.0
C412 C 0.28465 0.17176 0.92264 0.0
C413 C 0.31814 0.19971 0.89361 0.0
C414 C 0.29952 0.23894 0.97946 0.0
C415 C 0.3426 0.24702 0.90993 0.0
C416 C 0.32291 0.30568 0.04598 0.0
C417 C 0.2382 0.26095 0.08247 0.0
N418 N 0.33295 0.26499 0.95155 0.0
N419 N 0.24815 0.24103 0.04228 0.0
H420 H 0.93926 0.21496 0.54682 0.0
H421 H 0.16165 0.37338 0.41892 0.0
H422 H 0.04773 0.34292 0.62392 0.0
H423 H 0.07956 0.22783 0.37558 0.0
H424 H 0.12152 0.36529 0.49397 0.0
H425 H 0.98939 0.22094 0.48185 0.0
C426 C 0.97359 0.24419 0.55027 0.0
C427 C 0.98905 0.27841 0.5911 0.0
C428 C 0.11312 0.33501 0.46854 0.0
C429 C 0.04672 0.2859 0.51624 0.0
C430 C 0.13651 0.33963 0.42611 0.0
C431 C 0.12455 0.30111 0.39148 0.0
C432 C 0.07687 0.29178 0.47557 0.0
C433 C 0.09032 0.25832 0.40172 0.0
C434 C 0.00234 0.24757 0.51319 0.0
C435 C 0.03416 0.31554 0.59332 0.0
N436 N 0.06737 0.25489 0.44222 0.0
N437 N 0.0611 0.31855 0.55632 0.0
H438 H 0.63975 0.93643 0.04737 0.0
H439 H 0.83841 0.17374 0.98839 0.0
H440 H 0.72446 0.04633 0.16312 0.0
H441 H 0.71416 0.09019 0.8923 0.0
H442 H 0.8017 0.12708 0.0526 0.0
H443 H 0.67348 0.9897 0.98765 0.0
C444 C 0.66589 0.97151 0.06014 0.0
C445 C 0.6793 0.98691 0.11027 0.0
C446 C 0.78233 0.11957 0.01766 0.0
C447 C 0.7177 0.048 0.04237 0.0
C448 C 0.80308 0.14651 0.9811 0.0
C449 C 0.77972 0.1357 0.9344 0.0
C450 C 0.73827 0.08114 0.0072 0.0
C451 C 0.7339 0.09976 0.92738 0.0
C452 C 0.68468 0.00202 0.02617 0.0
C453 C 0.713 0.033 0.12481 0.0
N454 N 0.7151 0.07319 0.96291 0.0
N455 N 0.73121 0.06183 0.09105 0.0
H456 H 0.62076 0.62365 0.61077 0.0
H457 H 0.69721 0.85005 0.49454 0.0
H458 H 0.75879 0.73783 0.63246 0.0
H459 H 0.60143 0.71866 0.41169 0.0
H460 H 0.70703 0.81126 0.55872 0.0
H461 H 0.60293 0.65924 0.54758 0.0
C462 C 0.64749 0.65589 0.60166 0.0
C463 C 0.69151 0.67765 0.62647 0.0
C464 C 0.68337 0.79103 0.52677 0.0
C465 C 0.67073 0.71923 0.55615 0.0
C466 C 0.6771 0.81309 0.49032 0.0
C467 C 0.64882 0.78764 0.44707 0.0
C468 C 0.66048 0.74318 0.52066 0.0
C469 C 0.62384 0.73972 0.44413 0.0
C470 C 0.63719 0.67618 0.56592 0.0
C471 C 0.72473 0.71957 0.61378 0.0
N472 N 0.63048 0.71897 0.48029 0.0
N473 N 0.71348 0.73935 0.57997 0.0
H474 H 0.93483 0.66424 0.84671 0.0
H475 H 0.93687 0.70125 0.13521 0.0
H476 H 0.8254 0.67278 0.9153 0.0
H477 H 0.06014 0.74507 0.06241 0.0
H478 H 0.8938 0.68749 0.05656 0.0
H479 H 0.97815 0.68704 0.92627 0.0
C480 C 0.91947 0.67037 0.87851 0.0
C481 C 0.87606 0.66649 0.87387 0.0
C482 C 0.93036 0.70086 0.05781 0.0
C483 C 0.92641 0.69315 0.96587 0.0
C484 C 0.95503 0.70896 0.10267 0.0
C485 C 0.00218 0.72453 0.10527 0.0
C486 C 0.95272 0.70718 0.01486 0.0
C487 C 0.02397 0.73355 0.06206 0.0
C488 C 0.94468 0.68393 0.92401 0.0
C489 C 0.85852 0.67511 0.91688 0.0
N490 N -0.0011 0.72399 0.01846 0.0
N491 N 0.88369 0.68789 0.96108 0.0
H492 H 0.24416 0.02018 0.60318 0.0
H493 H 0.26313 0.85123 0.39093 0.0
H494 H 0.34929 0.98389 0.60798 0.0
H495 H 0.13709 0.85124 0.40931 0.0
H496 H 0.2963 0.90209 0.46884 0.0
H497 H 0.2067 0.96367 0.52903 0.0
C498 C 0.25987 0.00108 0.5884 0.0
C499 C 0.30023 0.00722 0.61208 0.0
C500 C 0.26108 0.89036 0.45647 0.0
C501 C 0.25712 0.94188 0.52727 0.0
C502 C 0.24192 0.86077 0.41223 0.0
C503 C 0.1969 0.84603 0.39398 0.0
C504 C 0.23561 0.90668 0.4824 0.0
C505 C 0.17152 0.86075 0.42254 0.0
C506 C 0.23808 0.9683 0.54632 0.0
C507 C 0.3183 0.98054 0.5912 0.0
N508 N 0.19139 0.89076 0.46487 0.0
N509 N 0.29686 0.94942 0.55024 0.0
H510 H 0.74802 0.69616 0.96622 0.0
H511 H 0.64457 0.83367 0.10453 0.0
H512 H 0.66935 0.73766 0.8819 0.0
H513 H 0.64929 0.72122 0.15728 0.0
H514 H 0.66245 0.81119 0.02417 0.0
H515 H 0.72781 0.72419 0.04091 0.0
C516 C 0.72718 0.71189 0.96331 0.0
C517 C 0.70924 0.7134 0.91776 0.0
C518 C 0.65882 0.79129 0.05339 0.0
C519 C 0.68579 0.74496 0.003 0.0
C520 C 0.64827 0.80372 0.09902 0.0
C521 C 0.64653 0.77989 0.13799 0.0
C522 C 0.66819 0.75545 0.0475 0.0
C523 C 0.65126 0.7412 0.12868 0.0
C524 C 0.71529 0.72739 0.00595 0.0
C525 C 0.68309 0.735 0.91638 0.0
N526 N 0.66285 0.73076 0.08461 0.0
N527 N 0.67161 0.74962 0.95864 0.0
H528 H 0.02016 0.67301 0.43754 0.0
H529 H 0.86359 0.56909 0.59427 0.0
H530 H 0.91023 0.6513 0.33515 0.0
H531 H 0.78648 0.61799 0.51996 0.0
H532 H 0.90484 0.57371 0.52209 0.0
H533 H 0.96484 0.63705 0.49588 0.0
C534 C 0.98441 0.66096 0.42744 0.0
C535 C 0.96982 0.66526 0.38143 0.0
C536 C 0.87851 0.58295 0.52145 0.0
C537 C 0.90588 0.62189 0.44718 0.0
C538 C 0.85413 0.57933 0.56225 0.0
C539 C 0.82363 0.59603 0.56419 0.0
C540 C 0.87184 0.60309 0.48279 0.0
C541 C 0.81145 0.60694 0.52082 0.0
C542 C 0.95262 0.63925 0.46029 0.0
C543 C 0.92294 0.64864 0.37026 0.0
N544 N 0.8368 0.61188 0.48226 0.0
N545 N 0.89263 0.62799 0.40311 0.0
H546 H 0.34035 0.0412 0.96387 0.0
H547 H 0.16234 0.80487 0.03369 0.0
H548 H 0.26134 0.92704 0.85002 0.0
H549 H 0.28796 0.89677 0.12433 0.0
H550 H 0.19582 0.84574 0.96471 0.0
H551 H 0.31679 0.9884 0.02407 0.0
C552 C 0.31754 0.00508 0.95158 0.0
C553 C 0.30251 0.98855 0.90185 0.0
C554 C 0.21648 0.85608 0.99933 0.0
C555 C 0.27595 0.92785 0.97062 0.0
C556 C 0.1976 0.8325 0.03856 0.0
C557 C 0.22216 0.8479 0.08502 0.0
C558 C 0.25972 0.89577 0.00708 0.0
C559 C 0.26766 0.88389 0.0893 0.0
C560 C 0.30473 0.97489 0.98588 0.0
C561 C 0.27357 0.94123 0.88803 0.0
N562 N 0.28452 0.90754 0.05122 0.0
N563 N 0.26082 0.9125 0.92233 0.0
H564 H 0.38721 0.29069 0.63771 0.0
H565 H 0.33661 0.26948 0.34898 0.0
H566 H 0.34973 0.16779 0.53806 0.0
H567 H 0.32541 0.36342 0.45871 0.0
H568 H 0.3638 0.24259 0.41422 0.0
H569 H 0.39143 0.3299 0.56777 0.0
C570 C 0.38135 0.27228 0.60118 0.0
C571 C 0.36665 0.22542 0.59382 0.0
C572 C 0.35583 0.26945 0.42372 0.0
C573 C 0.37072 0.26998 0.51375 0.0
C574 C 0.34022 0.28464 0.38666 0.0
C575 C 0.32804 0.31813 0.39865 0.0
C576 C 0.36013 0.28868 0.47273 0.0
C577 C 0.33356 0.33688 0.44794 0.0
C578 C 0.38329 0.29461 0.56124 0.0
C579 C 0.36008 0.20365 0.54547 0.0
N580 N 0.34911 0.32187 0.48309 0.0
N581 N 0.36114 0.22582 0.50719 0.0
H582 H 0.15059 0.35787 0.06208 0.0
H583 H 0.91844 0.2677 0.92237 0.0
H584 H 0.03278 0.33184 0.13983 0.0
H585 H 0.04058 0.36501 0.86354 0.0
H586 H 0.96026 0.29334 0.00358 0.0
H587 H 0.11411 0.36771 0.99076 0.0
C588 C 0.11765 0.35567 0.06456 0.0
C589 C 0.094 0.34285 0.10615 0.0
C590 C 0.97765 0.30963 0.97301 0.0
C591 C 0.05181 0.35262 0.02483 0.0
C592 C 0.95403 0.29453 0.92666 0.0
C593 C 0.97642 0.31376 0.88629 0.0
C594 C 0.02417 0.34333 0.97864 0.0
C595 C 0.02227 0.34906 0.89381 0.0
C596 C 0.09686 0.36127 0.02394 0.0
C597 C 0.05175 0.341 0.10802 0.0
N598 N 0.04501 0.36215 0.93907 0.0
N599 N 0.03117 0.34426 0.06715 0.0
H600 H 0.82435 0.16543 0.59335 0.0
H601 H 0.6669 0.92847 0.43536 0.0
H602 H 0.72055 0.05049 0.65505 0.0
H603 H 0.69783 0.05106 0.37503 0.0
H604 H 0.69748 0.97409 0.51614 0.0
H605 H 0.7866 0.12597 0.51147 0.0
C606 C 0.79336 0.1324 0.58983 0.0
C607 C 0.77602 0.11084 0.63096 0.0
C608 C 0.69732 0.99086 0.48515 0.0
C609 C 0.73388 0.06583 0.53833 0.0
C610 C 0.68036 0.96502 0.43921 0.0
C611 C 0.67993 0.98624 0.39894 0.0
C612 C 0.71473 0.03818 0.49035 0.0
C613 C 0.69741 0.03362 0.40558 0.0
C614 C 0.77199 0.11003 0.54326 0.0
C615 C 0.73565 0.0681 0.62437 0.0
N616 N 0.71465 0.05834 0.45067 0.0
N617 N 0.71639 0.0466 0.57878 0.0
loop_
_geom_bond_atom_site_label_1
_geom_bond_atom_site_label_2
_geom_bond_distance
_geom_bond_site_symmetry_2
_ccdc_geom_bond_type
C0 O12 1.241 1_655 S
C0 O13 1.280 . S
C1 O14 1.277 . S
C1 O15 1.245 . S
C2 O26 1.247 . S
C2 O28 1.289 . S
Mg3 O4 1.926 . S
Mg3 O13 1.984 1_455 S
Mg3 O15 1.988 . S
Mg3 O16 2.061 . S
O4 Mg3 1.926 . S
O4 Mg5 1.986 . S
O4 Mg6 1.917 . S
Mg5 O4 1.986 . S
Mg5 O12 2.042 . S
Mg5 O14 2.041 . S
Mg5 O20 2.038 . S
Mg5 O28 2.238 . S
Mg6 O4 1.917 . S
Mg6 O7 1.917 . S
Mg6 O17 2.106 . S
Mg6 O19 2.079 . S
Mg6 O28 2.106 . S
Mg6 O29 2.079 . S
O7 Mg6 1.917 . S
O7 Mg8 1.926 . S
O7 Mg9 1.986 . S
Mg8 O7 1.926 . S
Mg8 O22 1.984 . S
Mg8 O25 1.988 . S
Mg8 O26 2.061 . S
Mg9 O7 1.986 . S
Mg9 O17 2.238 . S
Mg9 O21 2.042 . S
Mg9 O23 2.041 . S
Mg9 O30 2.038 . S
C10 O16 1.247 . S
C10 O17 1.289 . S
C11 O29 1.245 . S
C11 O30 1.274 . S
O12 C0 1.241 1_455 S
O12 Mg5 2.042 . S
O13 C0 1.280 . S
O13 Mg3 1.984 1_655 S
O14 C1 1.277 . S
O14 Mg5 2.041 . S
O15 C1 1.245 . S
O15 Mg3 1.988 . S
O16 Mg3 2.061 . S
O16 C10 1.247 . S
O17 Mg6 2.106 . S
O17 Mg9 2.238 . S
O17 C10 1.289 . S
C18 O19 1.245 . S
C18 O20 1.274 . S
O19 Mg6 2.079 . S
O19 C18 1.245 . S
O20 Mg5 2.038 . S
O20 C18 1.274 . S
O21 Mg9 2.042 . S
O21 C24 1.241 . S
O22 Mg8 1.984 . S
O22 C24 1.280 . S
O23 Mg9 2.041 . S
O23 C27 1.277 . S
C24 O21 1.241 . S
C24 O22 1.280 . S
O25 Mg8 1.988 . S
O25 C27 1.245 . S
O26 C2 1.247 . S
O26 Mg8 2.061 . S
C27 O23 1.277 . S
C27 O25 1.245 . S
O28 C2 1.289 . S
O28 Mg5 2.238 . S
O28 Mg6 2.106 . S
O29 Mg6 2.079 . S
O29 C11 1.245 . S
O30 Mg9 2.038 . S
O30 C11 1.274 . S
C31 O43 1.241 . S
C31 O44 1.280 . S
C32 O45 1.277 . S
C32 O46 1.245 . S
C33 O57 1.247 . S
C33 O59 1.289 . S
Mg34 O35 1.926 . S
Mg34 O44 1.984 . S
Mg34 O46 1.988 . S
Mg34 O47 2.061 . S
O35 Mg34 1.926 . S
O35 Mg36 1.986 . S
O35 Mg37 1.917 . S
Mg36 O35 1.986 . S
Mg36 O43 2.042 . S
Mg36 O45 2.041 . S
Mg36 O51 2.038 . S
Mg36 O59 2.238 . S
Mg37 O35 1.917 . S
Mg37 O38 1.917 . S
Mg37 O48 2.106 . S
Mg37 O50 2.079 . S
Mg37 O59 2.106 . S
Mg37 O60 2.079 . S
O38 Mg37 1.917 . S
O38 Mg39 1.926 . S
O38 Mg40 1.986 . S
Mg39 O38 1.926 . S
Mg39 O53 1.984 1_545 S
Mg39 O56 1.988 . S
Mg39 O57 2.061 . S
Mg40 O38 1.986 . S
Mg40 O48 2.238 . S
Mg40 O52 2.042 . S
Mg40 O54 2.041 . S
Mg40 O61 2.038 . S
C41 O47 1.247 . S
C41 O48 1.289 . S
C42 O60 1.245 . S
C42 O61 1.274 . S
O43 C31 1.241 . S
O43 Mg36 2.042 . S
O44 C31 1.280 . S
O44 Mg34 1.984 . S
O45 C32 1.277 . S
O45 Mg36 2.041 . S
O46 C32 1.245 . S
O46 Mg34 1.988 . S
O47 Mg34 2.061 . S
O47 C41 1.247 . S
O48 Mg37 2.106 . S
O48 Mg40 2.238 . S
O48 C41 1.289 . S
C49 O50 1.245 . S
C49 O51 1.274 . S
O50 Mg37 2.079 . S
O50 C49 1.245 . S
O51 Mg36 2.038 . S
O51 C49 1.274 . S
O52 Mg40 2.042 . S
O52 C55 1.241 . S
O53 Mg39 1.984 1_565 S
O53 C55 1.280 1_565 S
O54 Mg40 2.041 . S
O54 C58 1.277 . S
C55 O52 1.241 . S
C55 O53 1.280 1_545 S
O56 Mg39 1.988 . S
O56 C58 1.245 . S
O57 C33 1.247 . S
O57 Mg39 2.061 . S
C58 O54 1.277 . S
C58 O56 1.245 . S
O59 C33 1.289 . S
O59 Mg36 2.238 . S
O59 Mg37 2.106 . S
O60 Mg37 2.079 . S
O60 C42 1.245 . S
O61 Mg40 2.038 . S
O61 C42 1.274 . S
C62 O74 1.241 . S
C62 O75 1.280 . S
C63 O76 1.277 . S
C63 O77 1.245 . S
C64 O88 1.247 . S
C64 O90 1.289 . S
Mg65 O66 1.926 . S
Mg65 O75 1.984 . S
Mg65 O77 1.988 . S
Mg65 O78 2.061 . S
O66 Mg65 1.926 . S
O66 Mg67 1.986 . S
O66 Mg68 1.917 . S
Mg67 O66 1.986 . S
Mg67 O74 2.042 . S
Mg67 O76 2.041 . S
Mg67 O82 2.038 . S
Mg67 O90 2.238 . S
Mg68 O66 1.917 . S
Mg68 O69 1.917 . S
Mg68 O79 2.106 . S
Mg68 O81 2.079 . S
Mg68 O90 2.106 . S
Mg68 O91 2.079 . S
O69 Mg68 1.917 . S
O69 Mg70 1.926 . S
O69 Mg71 1.986 . S
Mg70 O69 1.926 . S
Mg70 O84 1.984 . S
Mg70 O87 1.988 . S
Mg70 O88 2.061 . S
Mg71 O69 1.986 . S
Mg71 O79 2.238 . S
Mg71 O83 2.042 . S
Mg71 O85 2.041 . S
Mg71 O92 2.038 . S
C72 O78 1.247 . S
C72 O79 1.289 . S
C73 O91 1.245 . S
C73 O92 1.274 . S
O74 C62 1.241 . S
O74 Mg67 2.042 . S
O75 C62 1.280 . S
O75 Mg65 1.984 . S
O76 C63 1.277 . S
O76 Mg67 2.041 . S
O77 C63 1.245 . S
O77 Mg65 1.988 . S
O78 Mg65 2.061 . S
O78 C72 1.247 . S
O79 Mg68 2.106 . S
O79 Mg71 2.238 . S
O79 C72 1.289 . S
C80 O81 1.245 . S
C80 O82 1.274 . S
O81 Mg68 2.079 . S
O81 C80 1.245 . S
O82 Mg67 2.038 . S
O82 C80 1.274 . S
O83 Mg71 2.042 . S
O83 C86 1.241 . S
O84 Mg70 1.984 . S
O84 C86 1.280 . S
O85 Mg71 2.041 . S
O85 C89 1.277 . S
C86 O83 1.241 . S
C86 O84 1.280 . S
O87 Mg70 1.988 . S
O87 C89 1.245 . S
O88 C64 1.247 . S
O88 Mg70 2.061 . S
C89 O85 1.277 . S
C89 O87 1.245 . S
O90 C64 1.289 . S
O90 Mg67 2.238 . S
O90 Mg68 2.106 . S
O91 Mg68 2.079 . S
O91 C73 1.245 . S
O92 Mg71 2.038 . S
O92 C73 1.274 . S
C93 O105 1.241 . S
C93 O106 1.280 1_655 S
C94 O107 1.277 . S
C94 O108 1.245 . S
C95 O119 1.247 . S
C95 O121 1.289 . S
Mg96 O97 1.926 . S
Mg96 O106 1.984 1_655 S
Mg96 O108 1.988 . S
Mg96 O109 2.061 . S
O97 Mg96 1.926 . S
O97 Mg98 1.986 . S
O97 Mg99 1.917 . S
Mg98 O97 1.986 . S
Mg98 O105 2.042 . S
Mg98 O107 2.041 . S
Mg98 O113 2.038 . S
Mg98 O121 2.238 . S
Mg99 O97 1.917 . S
Mg99 O100 1.917 . S
Mg99 O110 2.106 . S
Mg99 O112 2.079 . S
Mg99 O121 2.106 . S
Mg99 O122 2.079 . S
O100 Mg99 1.917 . S
O100 Mg101 1.926 . S
O100 Mg102 1.986 . S
Mg101 O100 1.926 . S
Mg101 O115 1.984 . S
Mg101 O118 1.988 . S
Mg101 O119 2.061 . S
Mg102 O100 1.986 . S
Mg102 O110 2.238 . S
Mg102 O114 2.042 . S
Mg102 O116 2.041 . S
Mg102 O123 2.038 . S
C103 O109 1.247 . S
C103 O110 1.289 . S
C104 O122 1.245 . S
C104 O123 1.274 . S
O105 C93 1.241 . S
O105 Mg98 2.042 . S
O106 C93 1.280 1_455 S
O106 Mg96 1.984 1_455 S
O107 C94 1.277 . S
O107 Mg98 2.041 . S
O108 C94 1.245 . S
O108 Mg96 1.988 . S
O109 Mg96 2.061 . S
O109 C103 1.247 . S
O110 Mg99 2.106 . S
O110 Mg102 2.238 . S
O110 C103 1.289 . S
C111 O112 1.245 . S
C111 O113 1.274 . S
O112 Mg99 2.079 . S
O112 C111 1.245 . S
O113 Mg98 2.038 . S
O113 C111 1.274 . S
O114 Mg102 2.042 . S
O114 C117 1.241 . S
O115 Mg101 1.984 . S
O115 C117 1.280 . S
O116 Mg102 2.041 . S
O116 C120 1.277 . S
C117 O114 1.241 . S
C117 O115 1.280 . S
O118 Mg101 1.988 . S
O118 C120 1.245 . S
O119 C95 1.247 . S
O119 Mg101 2.061 . S
C120 O116 1.277 . S
C120 O118 1.245 . S
O121 C95 1.289 . S
O121 Mg98 2.238 . S
O121 Mg99 2.106 . S
O122 Mg99 2.079 . S
O122 C104 1.245 . S
O123 Mg102 2.038 . S
O123 C104 1.274 . S
C124 O136 1.241 . S
C124 O137 1.280 1_565 S
C125 O138 1.277 . S
C125 O139 1.245 . S
C126 O150 1.247 . S
C126 O152 1.289 . S
Mg127 O128 1.926 . S
Mg127 O137 1.984 1_565 S
Mg127 O139 1.988 . S
Mg127 O140 2.061 . S
O128 Mg127 1.926 . S
O128 Mg129 1.986 . S
O128 Mg130 1.917 . S
Mg129 O128 1.986 . S
Mg129 O136 2.042 . S
Mg129 O138 2.041 . S
Mg129 O144 2.038 . S
Mg129 O152 2.238 . S
Mg130 O128 1.917 . S
Mg130 O131 1.917 . S
Mg130 O141 2.106 . S
Mg130 O143 2.079 . S
Mg130 O152 2.106 . S
Mg130 O153 2.079 . S
O131 Mg130 1.917 . S
O131 Mg132 1.926 . S
O131 Mg133 1.986 . S
Mg132 O131 1.926 . S
Mg132 O146 1.984 . S
Mg132 O149 1.988 . S
Mg132 O150 2.061 . S
Mg133 O131 1.986 . S
Mg133 O141 2.238 . S
Mg133 O145 2.042 . S
Mg133 O147 2.041 . S
Mg133 O154 2.038 . S
C134 O140 1.247 . S
C134 O141 1.289 . S
C135 O153 1.245 . S
C135 O154 1.274 . S
O136 C124 1.241 . S
O136 Mg129 2.042 . S
O137 C124 1.280 1_545 S
O137 Mg127 1.984 1_545 S
O138 C125 1.277 . S
O138 Mg129 2.041 . S
O139 C125 1.245 . S
O139 Mg127 1.988 . S
O140 Mg127 2.061 . S
O140 C134 1.247 . S
O141 Mg130 2.106 . S
O141 Mg133 2.238 . S
O141 C134 1.289 . S
C142 O143 1.245 . S
C142 O144 1.274 . S
O143 Mg130 2.079 . S
O143 C142 1.245 . S
O144 Mg129 2.038 . S
O144 C142 1.274 . S
O145 Mg133 2.042 . S
O145 C148 1.241 . S
O146 Mg132 1.984 . S
O146 C148 1.280 . S
O147 Mg133 2.041 . S
O147 C151 1.277 . S
C148 O145 1.241 . S
C148 O146 1.280 . S
O149 Mg132 1.988 . S
O149 C151 1.245 . S
O150 C126 1.247 . S
O150 Mg132 2.061 . S
C151 O147 1.277 . S
C151 O149 1.245 . S
O152 C126 1.289 . S
O152 Mg129 2.238 . S
O152 Mg130 2.106 . S
O153 Mg130 2.079 . S
O153 C135 1.245 . S
O154 Mg133 2.038 . S
O154 C135 1.274 . S
C155 O167 1.241 . S
C155 O168 1.280 . S
C156 O169 1.277 . S
C156 O170 1.245 . S
C157 O181 1.247 . S
C157 O183 1.289 . S
Mg158 O159 1.926 . S
Mg158 O168 1.984 . S
Mg158 O170 1.988 . S
Mg158 O171 2.061 . S
O159 Mg158 1.926 . S
O159 Mg160 1.986 . S
O159 Mg161 1.917 . S
Mg160 O159 1.986 . S
Mg160 O167 2.042 . S
Mg160 O169 2.041 . S
Mg160 O175 2.038 . S
Mg160 O183 2.238 . S
Mg161 O159 1.917 . S
Mg161 O162 1.917 . S
Mg161 O172 2.106 . S
Mg161 O174 2.079 . S
Mg161 O183 2.106 . S
Mg161 O184 2.079 . S
O162 Mg161 1.917 . S
O162 Mg163 1.926 . S
O162 Mg164 1.986 . S
Mg163 O162 1.926 . S
Mg163 O177 1.984 . S
Mg163 O180 1.988 . S
Mg163 O181 2.061 . S
Mg164 O162 1.986 . S
Mg164 O172 2.238 . S
Mg164 O176 2.042 . S
Mg164 O178 2.041 . S
Mg164 O185 2.038 . S
C165 O171 1.247 . S
C165 O172 1.289 . S
C166 O184 1.245 . S
C166 O185 1.274 . S
O167 C155 1.241 . S
O167 Mg160 2.042 . S
O168 C155 1.280 . S
O168 Mg158 1.984 . S
O169 C156 1.277 . S
O169 Mg160 2.041 . S
O170 C156 1.245 . S
O170 Mg158 1.988 . S
O171 Mg158 2.061 . S
O171 C165 1.247 . S
O172 Mg161 2.106 . S
O172 Mg164 2.238 . S
O172 C165 1.289 . S
C173 O174 1.245 . S
C173 O175 1.274 . S
O174 Mg161 2.079 . S
O174 C173 1.245 . S
O175 Mg160 2.038 . S
O175 C173 1.274 . S
O176 Mg164 2.042 . S
O176 C179 1.241 . S
O177 Mg163 1.984 . S
O177 C179 1.280 . S
O178 Mg164 2.041 . S
O178 C182 1.277 . S
C179 O176 1.241 . S
C179 O177 1.280 . S
O180 Mg163 1.988 . S
O180 C182 1.245 . S
O181 C157 1.247 . S
O181 Mg163 2.061 . S
C182 O178 1.277 . S
C182 O180 1.245 . S
O183 C157 1.289 . S
O183 Mg160 2.238 . S
O183 Mg161 2.106 . S
O184 Mg161 2.079 . S
O184 C166 1.245 . S
O185 Mg164 2.038 . S
O185 C166 1.274 . S
H186 C192 0.930 . S
H187 C196 0.930 . S
H188 C201 0.929 . S
H189 C199 0.929 . S
H190 C194 0.929 . S
H191 C200 0.929 . S
C192 H186 0.930 . S
C192 C193 1.367 . S
C192 C200 1.378 . S
C193 C192 1.367 . S
C193 C201 1.433 . S
C194 H190 0.929 . S
C194 C196 1.378 . S
C194 C198 1.350 . S
C195 C198 1.463 . S
C195 C200 1.350 . S
C195 N203 1.427 . S
C196 H187 0.930 . S
C196 C194 1.378 . S
C196 C197 1.367 . S
C197 C196 1.367 . S
C197 C199 1.433 . S
C198 C194 1.350 . S
C198 C195 1.463 . S
C198 N202 1.427 . S
C199 H189 0.929 . S
C199 C197 1.433 . S
C199 N202 1.384 . S
C200 H191 0.929 . S
C200 C192 1.378 . S
C200 C195 1.350 . S
C201 H188 0.929 . S
C201 C193 1.433 . S
C201 N203 1.384 . S
N202 C198 1.427 . S
N202 C199 1.384 . S
N203 C195 1.427 . S
N203 C201 1.384 . S
H204 C210 0.930 . S
H205 C214 0.930 . S
H206 C219 0.929 . S
H207 C217 0.929 . S
H208 C212 0.929 . S
H209 C218 0.929 . S
C210 H204 0.930 . S
C210 C211 1.367 . S
C210 C218 1.378 . S
C211 C210 1.367 . S
C211 C219 1.433 . S
C212 H208 0.929 . S
C212 C214 1.378 . S
C212 C216 1.350 . S
C213 C216 1.463 . S
C213 C218 1.350 . S
C213 N221 1.427 . S
C214 H205 0.930 . S
C214 C212 1.378 . S
C214 C215 1.367 . S
C215 C214 1.367 . S
C215 C217 1.433 . S
C216 C212 1.350 . S
C216 C213 1.463 . S
C216 N220 1.427 . S
C217 H207 0.929 . S
C217 C215 1.433 . S
C217 N220 1.384 . S
C218 H209 0.929 . S
C218 C210 1.378 . S
C218 C213 1.350 . S
C219 H206 0.929 . S
C219 C211 1.433 . S
C219 N221 1.384 . S
N220 C216 1.427 . S
N220 C217 1.384 . S
N221 C213 1.427 . S
N221 C219 1.384 . S
H222 C228 0.930 . S
H223 C232 0.930 . S
H224 C237 0.929 . S
H225 C235 0.929 . S
H226 C230 0.929 . S
H227 C236 0.929 . S
C228 H222 0.930 . S
C228 C229 1.367 . S
C228 C236 1.378 . S
C229 C228 1.367 . S
C229 C237 1.433 . S
C230 H226 0.929 . S
C230 C232 1.378 . S
C230 C234 1.350 . S
C231 C234 1.463 . S
C231 C236 1.350 . S
C231 N239 1.427 . S
C232 H223 0.930 . S
C232 C230 1.378 . S
C232 C233 1.367 . S
C233 C232 1.367 . S
C233 C235 1.433 . S
C234 C230 1.350 . S
C234 C231 1.463 . S
C234 N238 1.427 . S
C235 H225 0.929 . S
C235 C233 1.433 . S
C235 N238 1.384 . S
C236 H227 0.929 . S
C236 C228 1.378 . S
C236 C231 1.350 . S
C237 H224 0.929 . S
C237 C229 1.433 . S
C237 N239 1.384 . S
N238 C234 1.427 . S
N238 C235 1.384 . S
N239 C231 1.427 . S
N239 C237 1.384 . S
H240 C246 0.930 . S
H241 C250 0.930 . S
H242 C255 0.929 . S
H243 C253 0.929 . S
H244 C248 0.929 . S
H245 C254 0.929 . S
C246 H240 0.930 . S
C246 C247 1.367 . S
C246 C254 1.378 . S
C247 C246 1.367 . S
C247 C255 1.433 . S
C248 H244 0.929 . S
C248 C250 1.378 . S
C248 C252 1.350 . S
C249 C252 1.463 . S
C249 C254 1.350 . S
C249 N257 1.427 . S
C250 H241 0.930 . S
C250 C248 1.378 . S
C250 C251 1.367 . S
C251 C250 1.367 . S
C251 C253 1.433 . S
C252 C248 1.350 . S
C252 C249 1.463 . S
C252 N256 1.427 . S
C253 H243 0.929 . S
C253 C251 1.433 . S
C253 N256 1.384 . S
C254 H245 0.929 . S
C254 C246 1.378 . S
C254 C249 1.350 . S
C255 H242 0.929 . S
C255 C247 1.433 . S
C255 N257 1.384 . S
N256 C252 1.427 . S
N256 C253 1.384 . S
N257 C249 1.427 . S
N257 C255 1.384 . S
H258 C264 0.930 . S
H259 C268 0.930 . S
H260 C273 0.929 . S
H261 C271 0.929 . S
H262 C266 0.929 . S
H263 C272 0.929 . S
C264 H258 0.930 . S
C264 C265 1.367 . S
C264 C272 1.378 . S
C265 C264 1.367 . S
C265 C273 1.433 . S
C266 H262 0.929 . S
C266 C268 1.378 . S
C266 C270 1.350 . S
C267 C270 1.463 . S
C267 C272 1.350 . S
C267 N275 1.427 . S
C268 H259 0.930 . S
C268 C266 1.378 . S
C268 C269 1.367 . S
C269 C268 1.367 . S
C269 C271 1.433 . S
C270 C266 1.350 . S
C270 C267 1.463 . S
C270 N274 1.427 . S
C271 H261 0.929 . S
C271 C269 1.433 . S
C271 N274 1.384 . S
C272 H263 0.929 . S
C272 C264 1.378 . S
C272 C267 1.350 . S
C273 H260 0.929 . S
C273 C265 1.433 . S
C273 N275 1.384 . S
N274 C270 1.427 . S
N274 C271 1.384 . S
N275 C267 1.427 . S
N275 C273 1.384 . S
H276 C282 0.930 . S
H277 C286 0.930 . S
H278 C291 0.929 . S
H279 C289 0.929 . S
H280 C284 0.929 . S
H281 C290 0.929 . S
C282 H276 0.930 . S
C282 C283 1.367 . S
C282 C290 1.378 . S
C283 C282 1.367 . S
C283 C291 1.433 . S
C284 H280 0.929 . S
C284 C286 1.378 . S
C284 C288 1.350 . S
C285 C288 1.463 . S
C285 C290 1.350 . S
C285 N293 1.427 . S
C286 H277 0.930 . S
C286 C284 1.378 . S
C286 C287 1.367 . S
C287 C286 1.367 . S
C287 C289 1.433 . S
C288 C284 1.350 . S
C288 C285 1.463 . S
C288 N292 1.427 . S
C289 H279 0.929 . S
C289 C287 1.433 . S
C289 N292 1.384 . S
C290 H281 0.929 . S
C290 C282 1.378 . S
C290 C285 1.350 . S
C291 H278 0.929 . S
C291 C283 1.433 . S
C291 N293 1.384 . S
N292 C288 1.427 . S
N292 C289 1.384 . S
N293 C285 1.427 . S
N293 C291 1.384 . S
H294 C300 0.930 . S
H295 C304 0.930 . S
H296 C309 0.929 . S
H297 C307 0.929 . S
H298 C302 0.929 . S
H299 C308 0.929 . S
C300 H294 0.930 . S
C300 C301 1.367 . S
C300 C308 1.378 . S
C301 C300 1.367 . S
C301 C309 1.433 . S
C302 H298 0.929 . S
C302 C304 1.378 . S
C302 C306 1.350 . S
C303 C306 1.463 . S
C303 C308 1.350 . S
C303 N311 1.427 . S
C304 H295 0.930 . S
C304 C302 1.378 . S
C304 C305 1.367 . S
C305 C304 1.367 . S
C305 C307 1.433 . S
C306 C302 1.350 . S
C306 C303 1.463 . S
C306 N310 1.427 . S
C307 H297 0.929 . S
C307 C305 1.433 . S
C307 N310 1.384 . S
C308 H299 0.929 . S
C308 C300 1.378 . S
C308 C303 1.350 . S
C309 H296 0.929 . S
C309 C301 1.433 . S
C309 N311 1.384 . S
N310 C306 1.427 . S
N310 C307 1.384 . S
N311 C303 1.427 . S
N311 C309 1.384 . S
H312 C318 0.930 . S
H313 C322 0.930 . S
H314 C327 0.929 . S
H315 C325 0.929 . S
H316 C320 0.929 . S
H317 C326 0.929 1_455 S
C318 H312 0.930 . S
C318 C319 1.367 . S
C318 C326 1.378 . S
C319 C318 1.367 . S
C319 C327 1.433 . S
C320 H316 0.929 . S
C320 C322 1.378 . S
C320 C324 1.350 . S
C321 C324 1.463 . S
C321 C326 1.350 1_455 S
C321 N329 1.427 . S
C322 H313 0.930 . S
C322 C320 1.378 . S
C322 C323 1.367 . S
C323 C322 1.367 . S
C323 C325 1.433 . S
C324 C320 1.350 . S
C324 C321 1.463 . S
C324 N328 1.427 . S
C325 H315 0.929 . S
C325 C323 1.433 . S
C325 N328 1.384 . S
C326 H317 0.929 1_655 S
C326 C318 1.378 . S
C326 C321 1.350 1_655 S
C327 H314 0.929 . S
C327 C319 1.433 . S
C327 N329 1.384 1_655 S
N328 C324 1.427 . S
N328 C325 1.384 . S
N329 C321 1.427 . S
N329 C327 1.384 1_455 S
H330 C336 0.930 . S
H331 C340 0.930 . S
H332 C345 0.929 1_455 S
H333 C343 0.929 . S
H334 C338 0.929 1_545 S
H335 C344 0.929 . S
C336 H330 0.930 . S
C336 C337 1.367 . S
C336 C344 1.378 . S
C337 C336 1.367 . S
C337 C345 1.433 . S
C338 H334 0.929 1_565 S
C338 C340 1.378 . S
C338 C342 1.350 1_565 S
C339 C342 1.463 . S
C339 C344 1.350 . S
C339 N347 1.427 . S
C340 H331 0.930 . S
C340 C338 1.378 . S
C340 C341 1.367 . S
C341 C340 1.367 . S
C341 C343 1.433 . S
C342 C338 1.350 1_545 S
C342 C339 1.463 . S
C342 N346 1.427 . S
C343 H333 0.929 . S
C343 C341 1.433 . S
C343 N346 1.384 1_565 S
C344 H335 0.929 . S
C344 C336 1.378 . S
C344 C339 1.350 . S
C345 H332 0.929 1_655 S
C345 C337 1.433 . S
C345 N347 1.384 . S
N346 C342 1.427 . S
N346 C343 1.384 1_545 S
N347 C339 1.427 . S
N347 C345 1.384 . S
H348 C354 0.930 1_545 S
H349 C358 0.930 . S
H350 C363 0.929 . S
H351 C361 0.929 . S
H352 C356 0.929 . S
H353 C362 0.929 . S
C354 H348 0.930 1_565 S
C354 C355 1.367 . S
C354 C362 1.378 . S
C355 C354 1.367 . S
C355 C363 1.433 . S
C356 H352 0.929 . S
C356 C358 1.378 . S
C356 C360 1.350 . S
C357 C360 1.463 . S
C357 C362 1.350 . S
C357 N365 1.427 . S
C358 H349 0.930 . S
C358 C356 1.378 . S
C358 C359 1.367 . S
C359 C358 1.367 . S
C359 C361 1.433 . S
C360 C356 1.350 . S
C360 C357 1.463 . S
C360 N364 1.427 . S
C361 H351 0.929 . S
C361 C359 1.433 . S
C361 N364 1.384 . S
C362 H353 0.929 . S
C362 C354 1.378 . S
C362 C357 1.350 . S
C363 H350 0.929 . S
C363 C355 1.433 . S
C363 N365 1.384 . S
N364 C360 1.427 . S
N364 C361 1.384 . S
N365 C357 1.427 . S
N365 C363 1.384 . S
H366 C372 0.930 . S
H367 C376 0.930 . S
H368 C381 0.929 . S
H369 C379 0.929 . S
H370 C374 0.929 . S
H371 C380 0.929 . S
C372 H366 0.930 . S
C372 C373 1.367 . S
C372 C380 1.378 . S
C373 C372 1.367 . S
C373 C381 1.433 . S
C374 H370 0.929 . S
C374 C376 1.378 . S
C374 C378 1.350 1_455 S
C375 C378 1.463 . S
C375 C380 1.350 . S
C375 N383 1.427 . S
C376 H367 0.930 . S
C376 C374 1.378 . S
C376 C377 1.367 . S
C377 C376 1.367 . S
C377 C379 1.433 . S
C378 C374 1.350 1_655 S
C378 C375 1.463 . S
C378 N382 1.427 . S
C379 H369 0.929 . S
C379 C377 1.433 . S
C379 N382 1.384 1_455 S
C380 H371 0.929 . S
C380 C372 1.378 . S
C380 C375 1.350 . S
C381 H368 0.929 . S
C381 C373 1.433 . S
C381 N383 1.384 . S
N382 C378 1.427 . S
N382 C379 1.384 1_655 S
N383 C375 1.427 . S
N383 C381 1.384 . S
H384 C390 0.930 . S
H385 C394 0.930 . S
H386 C399 0.929 . S
H387 C397 0.938 . S
H388 C392 0.929 . S
H389 C398 0.929 . S
C390 H384 0.930 . S
C390 C391 1.367 . S
C390 C398 1.378 . S
C391 C390 1.367 . S
C391 C399 1.433 . S
C392 H388 0.929 . S
C392 C394 1.378 . S
C392 C396 1.350 . S
C393 C396 1.463 . S
C393 C398 1.350 1_565 S
C393 N401 1.427 . S
C394 H385 0.930 . S
C394 C392 1.378 . S
C394 C395 1.367 . S
C395 C394 1.367 . S
C395 C397 1.433 . S
C396 C392 1.350 . S
C396 C393 1.463 . S
C396 N400 1.427 . S
C397 H387 0.938 . S
C397 C395 1.433 . S
C397 N400 1.384 . S
C398 H389 0.929 . S
C398 C390 1.378 . S
C398 C393 1.350 1_545 S
C399 H386 0.929 . S
C399 C391 1.433 . S
C399 N401 1.384 1_545 S
N400 C396 1.427 . S
N400 C397 1.384 . S
N401 C393 1.427 . S
N401 C399 1.384 1_565 S
H402 C408 0.930 . S
H403 C412 0.930 . S
H404 C417 0.929 . S
H405 C415 0.929 . S
H406 C410 0.929 . S
H407 C416 0.929 . S
C408 H402 0.930 . S
C408 C409 1.367 . S
C408 C416 1.378 . S
C409 C408 1.367 . S
C409 C417 1.433 . S
C410 H406 0.929 . S
C410 C412 1.378 . S
C410 C414 1.350 . S
C411 C414 1.463 1_554 S
C411 C416 1.350 . S
C411 N419 1.427 . S
C412 H403 0.930 . S
C412 C410 1.378 . S
C412 C413 1.367 . S
C413 C412 1.367 . S
C413 C415 1.433 . S
C414 C410 1.350 . S
C414 C411 1.463 1_556 S
C414 N418 1.427 . S
C415 H405 0.929 . S
C415 C413 1.433 . S
C415 N418 1.384 . S
C416 H407 0.929 . S
C416 C408 1.378 . S
C416 C411 1.350 . S
C417 H404 0.929 . S
C417 C409 1.433 . S
C417 N419 1.384 . S
N418 C414 1.427 . S
N418 C415 1.384 . S
N419 C411 1.427 . S
N419 C417 1.384 . S
H420 C426 0.930 . S
H421 C430 0.930 . S
H422 C435 0.929 . S
H423 C433 0.929 . S
H424 C428 0.929 . S
H425 C434 0.929 . S
C426 H420 0.930 . S
C426 C427 1.367 . S
C426 C434 1.378 . S
C427 C426 1.367 . S
C427 C435 1.433 . S
C428 H424 0.929 . S
C428 C430 1.378 . S
C428 C432 1.350 . S
C429 C432 1.463 1_655 S
C429 C434 1.350 . S
C429 N437 1.427 . S
C430 H421 0.930 . S
C430 C428 1.378 . S
C430 C431 1.367 . S
C431 C430 1.367 . S
C431 C433 1.433 . S
C432 C428 1.350 . S
C432 C429 1.463 1_455 S
C432 N436 1.427 . S
C433 H423 0.929 . S
C433 C431 1.433 . S
C433 N436 1.384 . S
C434 H425 0.929 . S
C434 C426 1.378 . S
C434 C429 1.350 . S
C435 H422 0.929 . S
C435 C427 1.433 . S
C435 N437 1.384 . S
N436 C432 1.427 . S
N436 C433 1.384 . S
N437 C429 1.427 . S
N437 C435 1.384 . S
H438 C444 0.930 . S
H439 C448 0.930 . S
H440 C453 0.929 . S
H441 C451 0.929 . S
H442 C446 0.929 . S
H443 C452 0.929 1_556 S
C444 H438 0.930 . S
C444 C445 1.367 . S
C444 C452 1.378 . S
C445 C444 1.367 . S
C445 C453 1.433 . S
C446 H442 0.929 . S
C446 C448 1.378 . S
C446 C450 1.350 1_545 S
C447 C450 1.463 1_554 S
C447 C452 1.350 . S
C447 N455 1.427 . S
C448 H439 0.930 . S
C448 C446 1.378 . S
C448 C449 1.367 . S
C449 C448 1.367 . S
C449 C451 1.433 . S
C450 C446 1.350 1_565 S
C450 C447 1.463 1_556 S
C450 N454 1.427 . S
C451 H441 0.929 . S
C451 C449 1.433 . S
C451 N454 1.384 1_545 S
C452 H443 0.929 1_554 S
C452 C444 1.378 . S
C452 C447 1.350 . S
C453 H440 0.929 . S
C453 C445 1.433 . S
C453 N455 1.384 . S
N454 C450 1.427 . S
N454 C451 1.384 1_565 S
N455 C447 1.427 . S
N455 C453 1.384 . S
H456 C462 0.930 . S
H457 C466 0.930 . S
H458 C471 0.929 . S
H459 C469 0.929 . S
H460 C464 0.929 . S
H461 C470 0.929 . S
C462 H456 0.930 . S
C462 C463 1.367 . S
C462 C470 1.378 . S
C463 C462 1.367 . S
C463 C471 1.433 . S
C464 H460 0.929 . S
C464 C466 1.378 . S
C464 C468 1.350 . S
C465 C468 1.463 . S
C465 C470 1.350 . S
C465 N473 1.427 . S
C466 H457 0.930 . S
C466 C464 1.378 . S
C466 C467 1.367 . S
C467 C466 1.367 . S
C467 C469 1.433 . S
C468 C464 1.350 . S
C468 C465 1.463 . S
C468 N472 1.427 . S
C469 H459 0.929 . S
C469 C467 1.433 . S
C469 N472 1.384 . S
C470 H461 0.929 . S
C470 C462 1.378 . S
C470 C465 1.350 . S
C471 H458 0.929 . S
C471 C463 1.433 . S
C471 N473 1.384 . S
N472 C468 1.427 . S
N472 C469 1.384 . S
N473 C465 1.427 . S
N473 C471 1.384 . S
H474 C480 0.930 . S
H475 C484 0.930 . S
H476 C489 0.929 . S
H477 C487 0.929 . S
H478 C482 0.929 . S
H479 C488 0.929 1_455 S
C480 H474 0.930 . S
C480 C481 1.367 . S
C480 C488 1.378 . S
C481 C480 1.367 . S
C481 C489 1.433 . S
C482 H478 0.929 . S
C482 C484 1.378 . S
C482 C486 1.350 . S
C483 C486 1.463 1_556 S
C483 C488 1.350 1_455 S
C483 N491 1.427 1_455 S
C484 H475 0.930 . S
C484 C482 1.378 . S
C484 C485 1.367 . S
C485 C484 1.367 . S
C485 C487 1.433 . S
C486 C482 1.350 . S
C486 C483 1.463 1_554 S
C486 N490 1.427 . S
C487 H477 0.929 . S
C487 C485 1.433 . S
C487 N490 1.384 . S
C488 H479 0.929 1_655 S
C488 C480 1.378 . S
C488 C483 1.350 1_655 S
C489 H476 0.929 . S
C489 C481 1.433 . S
C489 N491 1.384 . S
N490 C486 1.427 . S
N490 C487 1.384 . S
N491 C483 1.427 1_655 S
N491 C489 1.384 . S
H492 C498 0.930 . S
H493 C502 0.930 . S
H494 C507 0.929 . S
H495 C505 0.929 . S
H496 C500 0.929 . S
H497 C506 0.929 . S
C498 H492 0.930 . S
C498 C499 1.367 . S
C498 C506 1.378 . S
C499 C498 1.367 . S
C499 C507 1.433 . S
C500 H496 0.929 . S
C500 C502 1.378 . S
C500 C504 1.350 1_565 S
C501 C504 1.463 . S
C501 C506 1.350 . S
C501 N509 1.427 . S
C502 H493 0.930 . S
C502 C500 1.378 . S
C502 C503 1.367 . S
C503 C502 1.367 . S
C503 C505 1.433 . S
C504 C500 1.350 1_545 S
C504 C501 1.463 . S
C504 N508 1.427 . S
C505 H495 0.929 . S
C505 C503 1.433 . S
C505 N508 1.384 1_565 S
C506 H497 0.929 . S
C506 C498 1.378 . S
C506 C501 1.350 . S
C507 H494 0.929 . S
C507 C499 1.433 . S
C507 N509 1.384 . S
N508 C504 1.427 . S
N508 C505 1.384 1_545 S
N509 C501 1.427 . S
N509 C507 1.384 . S
H510 C516 0.930 . S
H511 C520 0.930 . S
H512 C525 0.929 . S
H513 C523 0.929 . S
H514 C518 0.929 1_556 S
H515 C524 0.929 1_554 S
C516 H510 0.930 . S
C516 C517 1.367 . S
C516 C524 1.378 . S
C517 C516 1.367 . S
C517 C525 1.433 . S
C518 H514 0.929 1_554 S
C518 C520 1.378 . S
C518 C522 1.350 . S
C519 C522 1.463 1_556 S
C519 C524 1.350 . S
C519 N527 1.427 . S
C520 H511 0.930 . S
C520 C518 1.378 . S
C520 C521 1.367 . S
C521 C520 1.367 . S
C521 C523 1.433 . S
C522 C518 1.350 . S
C522 C519 1.463 1_554 S
C522 N526 1.427 . S
C523 H513 0.929 . S
C523 C521 1.433 . S
C523 N526 1.384 . S
C524 H515 0.929 1_556 S
C524 C516 1.378 . S
C524 C519 1.350 . S
C525 H512 0.929 . S
C525 C517 1.433 . S
C525 N527 1.384 . S
N526 C522 1.427 . S
N526 C523 1.384 . S
N527 C519 1.427 . S
N527 C525 1.384 . S
H528 C534 0.930 . S
H529 C538 0.930 . S
H530 C543 0.929 . S
H531 C541 0.929 . S
H532 C536 0.929 1_455 S
H533 C542 0.929 . S
C534 H528 0.930 . S
C534 C535 1.367 . S
C534 C542 1.378 . S
C535 C534 1.367 . S
C535 C543 1.433 . S
C536 H532 0.929 1_655 S
C536 C538 1.378 . S
C536 C540 1.350 1_655 S
C537 C540 1.463 . S
C537 C542 1.350 . S
C537 N545 1.427 . S
C538 H529 0.930 . S
C538 C536 1.378 . S
C538 C539 1.367 . S
C539 C538 1.367 . S
C539 C541 1.433 . S
C540 C536 1.350 1_455 S
C540 C537 1.463 . S
C540 N544 1.427 1_455 S
C541 H531 0.929 . S
C541 C539 1.433 . S
C541 N544 1.384 . S
C542 H533 0.929 . S
C542 C534 1.378 . S
C542 C537 1.350 . S
C543 H530 0.929 . S
C543 C535 1.433 . S
C543 N545 1.384 . S
N544 C540 1.427 1_655 S
N544 C541 1.384 . S
N545 C537 1.427 . S
N545 C543 1.384 . S
H546 C552 0.930 . S
H547 C556 0.930 . S
H548 C561 0.929 . S
H549 C559 0.929 . S
H550 C554 0.929 1_556 S
H551 C560 0.929 1_554 S
C552 H546 0.930 . S
C552 C553 1.367 . S
C552 C560 1.378 . S
C553 C552 1.367 . S
C553 C561 1.433 . S
C554 H550 0.929 1_554 S
C554 C556 1.378 . S
C554 C558 1.350 1_565 S
C555 C558 1.463 1_556 S
C555 C560 1.350 . S
C555 N563 1.427 . S
C556 H547 0.930 . S
C556 C554 1.378 . S
C556 C557 1.367 . S
C557 C556 1.367 . S
C557 C559 1.433 1_565 S
C558 C554 1.350 1_545 S
C558 C555 1.463 1_554 S
C558 N562 1.427 . S
C559 H549 0.929 . S
C559 C557 1.433 1_545 S
C559 N562 1.384 . S
C560 H551 0.929 1_556 S
C560 C552 1.378 . S
C560 C555 1.350 . S
C561 H548 0.929 . S
C561 C553 1.433 . S
C561 N563 1.384 . S
N562 C558 1.427 . S
N562 C559 1.384 . S
N563 C555 1.427 . S
N563 C561 1.384 . S
H564 C570 0.930 . S
H565 C574 0.930 . S
H566 C579 0.929 . S
H567 C577 0.929 . S
H568 C572 0.929 . S
H569 C578 0.929 . S
C570 H564 0.930 . S
C570 C571 1.367 . S
C570 C578 1.378 . S
C571 C570 1.367 . S
C571 C579 1.433 . S
C572 H568 0.929 . S
C572 C574 1.378 . S
C572 C576 1.350 . S
C573 C576 1.463 . S
C573 C578 1.350 . S
C573 N581 1.427 . S
C574 H565 0.930 . S
C574 C572 1.378 . S
C574 C575 1.367 . S
C575 C574 1.367 . S
C575 C577 1.433 . S
C576 C572 1.350 . S
C576 C573 1.463 . S
C576 N580 1.427 . S
C577 H567 0.929 . S
C577 C575 1.433 . S
C577 N580 1.384 . S
C578 H569 0.929 . S
C578 C570 1.378 . S
C578 C573 1.350 . S
C579 H566 0.929 . S
C579 C571 1.433 . S
C579 N581 1.384 . S
N580 C576 1.427 . S
N580 C577 1.384 . S
N581 C573 1.427 . S
N581 C579 1.384 . S
H582 C588 0.930 . S
H583 C592 0.930 . S
H584 C597 0.929 . S
H585 C595 0.929 . S
H586 C590 0.929 . S
H587 C596 0.929 1_556 S
C588 H582 0.930 . S
C588 C589 1.367 . S
C588 C596 1.378 . S
C589 C588 1.367 . S
C589 C597 1.433 1_455 S
C590 H586 0.929 . S
C590 C592 1.378 . S
C590 C594 1.350 . S
C591 C594 1.463 1_554 S
C591 C596 1.350 1_655 S
C591 N599 1.427 . S
C592 H583 0.930 . S
C592 C590 1.378 . S
C592 C593 1.367 . S
C593 C592 1.367 . S
C593 C595 1.433 . S
C594 C590 1.350 . S
C594 C591 1.463 1_556 S
C594 N598 1.427 . S
C595 H585 0.929 . S
C595 C593 1.433 . S
C595 N598 1.384 . S
C596 H587 0.929 1_554 S
C596 C588 1.378 . S
C596 C591 1.350 1_455 S
C597 H584 0.929 . S
C597 C589 1.433 1_655 S
C597 N599 1.384 . S
N598 C594 1.427 . S
N598 C595 1.384 . S
N599 C591 1.427 . S
N599 C597 1.384 . S
H600 C606 0.930 . S
H601 C610 0.930 . S
H602 C615 0.929 . S
H603 C613 0.929 . S
H604 C608 0.929 . S
H605 C614 0.929 . S
C606 H600 0.930 . S
C606 C607 1.367 . S
C606 C614 1.378 . S
C607 C606 1.367 . S
C607 C615 1.433 . S
C608 H604 0.929 . S
C608 C610 1.378 . S
C608 C612 1.350 . S
C609 C612 1.463 . S
C609 C614 1.350 1_565 S
C609 N617 1.427 . S
C610 H601 0.930 . S
C610 C608 1.378 . S
C610 C611 1.367 . S
C611 C610 1.367 . S
C611 C613 1.433 . S
C612 C608 1.350 . S
C612 C609 1.463 . S
C612 N616 1.427 . S
C613 H603 0.929 . S
C613 C611 1.433 . S
C613 N616 1.384 . S
C614 H605 0.929 . S
C614 C606 1.378 . S
C614 C609 1.350 1_545 S
C615 H602 0.929 . S
C615 C607 1.433 . S
C615 N617 1.384 1_545 S
N616 C612 1.427 . S
N616 C613 1.384 . S
N617 C609 1.427 . S
N617 C615 1.384 1_565 S
C193 C11 1.291 . S
C197 C148 1.345 . S
C211 C179 1.374 . S
C215 C49 1.361 . S
C229 C24 1.390 . S
C233 C80 1.381 . S
C247 C31 1.349 . S
C251 C104 1.313 . S
C265 C135 1.333 . S
C269 C62 1.347 . S
C283 C166 1.303 . S
C287 C117 1.322 . S
C301 C18 0.996 . S
C305 C124 1.016 1_545 S
C319 C42 0.962 . S
C323 C155 0.989 . S
C337 C0 1.061 . S
C341 C73 1.045 . S
C355 C55 1.015 1_565 S
C359 C111 0.980 . S
C373 C86 1.003 . S
C377 C142 0.990 . S
C391 C173 0.986 . S
C395 C93 1.004 1_455 S
C409 C2 1.845 . S
C413 C165 1.897 . S
C427 C32 1.898 . S
C431 C10 1.839 . S
C445 C63 1.726 . S
C449 C58 1.631 . S
C463 C95 1.703 . S
C467 C89 1.706 . S
C481 C103 1.773 . S
C485 C126 1.710 . S
C499 C157 1.636 . S
C503 C134 1.686 . S
C517 C120 1.403 . S
C521 C64 1.373 . S
C535 C151 1.434 . S
C539 C94 1.332 . S
C553 C182 1.512 . S
C557 C125 1.433 . S
C571 C156 1.283 . S
C575 C27 1.348 . S
C589 C1 1.256 . S
C593 C41 1.250 . S
C607 C33 1.480 . S
C611 C72 1.435 . S
