# Generated by pormake.
# Topology wke, (5)-cn, num edge types: 1
# Building blocks:
#     Node 0, Type 0, BuildingBlock: BEQFEK_clean_sbu_0, # of connection points: 5
#     Node 1, Type 0, BuildingBlock: BEQFEK_clean_sbu_0, # of connection points: 5
#     Node 2, Type 0, BuildingBlock: BEQFEK_clean_sbu_0, # of connection points: 5
#     Node 3, Type 0, BuildingBlock: BEQFEK_clean_sbu_0, # of connection points: 5
#     Node 4, Type 0, BuildingBlock: BEQFEK_clean_sbu_0, # of connection points: 5
#     Node 5, Type 0, BuildingBlock: BEQFEK_clean_sbu_0, # of connection points: 5
#     Node 6, Type 0, BuildingBlock: BEQFEK_clean_sbu_0, # of connection points: 5
#     Node 7, Type 0, BuildingBlock: BEQFEK_clean_sbu_0, # of connection points: 5
#     Node 8, Type 0, BuildingBlock: BEQFEK_clean_sbu_0, # of connection points: 5
#     Node 9, Type 0, BuildingBlock: BEQFEK_clean_sbu_0, # of connection points: 5
#     Node 10, Type 0, BuildingBlock: BEQFEK_clean_sbu_0, # of connection points: 5
#     Node 11, Type 0, BuildingBlock: BEQFEK_clean_sbu_0, # of connection points: 5
#     Edge 12, Type (0, 0), BuildingBlock: XUDNAN_clean_linker_2, # of connection points: 2
#     Edge 13, Type (0, 0), BuildingBlock: XUDNAN_clean_linker_2, # of connection points: 2
#     Edge 14, Type (0, 0), BuildingBlock: XUDNAN_clean_linker_2, # of connection points: 2
#     Edge 15, Type (0, 0), BuildingBlock: XUDNAN_clean_linker_2, # of connection points: 2
#     Edge 16, Type (0, 0), BuildingBlock: XUDNAN_clean_linker_2, # of connection points: 2
#     Edge 17, Type (0, 0), BuildingBlock: XUDNAN_clean_linker_2, # of connection points: 2
#     Edge 18, Type (0, 0), BuildingBlock: XUDNAN_clean_linker_2, # of connection points: 2
#     Edge 19, Type (0, 0), BuildingBlock: XUDNAN_clean_linker_2, # of connection points: 2
#     Edge 20, Type (0, 0), BuildingBlock: XUDNAN_clean_linker_2, # of connection points: 2
#     Edge 21, Type (0, 0), BuildingBlock: XUDNAN_clean_linker_2, # of connection points: 2
#     Edge 22, Type (0, 0), BuildingBlock: XUDNAN_clean_linker_2, # of connection points: 2
#     Edge 23, Type (0, 0), BuildingBlock: XUDNAN_clean_linker_2, # of connection points: 2
#     Edge 24, Type (0, 0), BuildingBlock: XUDNAN_clean_linker_2, # of connection points: 2
#     Edge 25, Type (0, 0), BuildingBlock: XUDNAN_clean_linker_2, # of connection points: 2
#     Edge 26, Type (0, 0), BuildingBlock: XUDNAN_clean_linker_2, # of connection points: 2
#     Edge 27, Type (0, 0), BuildingBlock: XUDNAN_clean_linker_2, # of connection points: 2
#     Edge 28, Type (0, 0), BuildingBlock: XUDNAN_clean_linker_2, # of connection points: 2
#     Edge 29, Type (0, 0), BuildingBlock: XUDNAN_clean_linker_2, # of connection points: 2
#     Edge 30, Type (0, 0), BuildingBlock: XUDNAN_clean_linker_2, # of connection points: 2
#     Edge 31, Type (0, 0), BuildingBlock: XUDNAN_clean_linker_2, # of connection points: 2
#     Edge 32, Type (0, 0), BuildingBlock: XUDNAN_clean_linker_2, # of connection points: 2
#     Edge 33, Type (0, 0), BuildingBlock: XUDNAN_clean_linker_2, # of connection points: 2
#     Edge 34, Type (0, 0), BuildingBlock: XUDNAN_clean_linker_2, # of connection points: 2
#     Edge 35, Type (0, 0), BuildingBlock: XUDNAN_clean_linker_2, # of connection points: 2
#     Edge 36, Type (0, 0), BuildingBlock: XUDNAN_clean_linker_2, # of connection points: 2
#     Edge 37, Type (0, 0), BuildingBlock: XUDNAN_clean_linker_2, # of connection points: 2
#     Edge 38, Type (0, 0), BuildingBlock: XUDNAN_clean_linker_2, # of connection points: 2
#     Edge 39, Type (0, 0), BuildingBlock: XUDNAN_clean_linker_2, # of connection points: 2
#     Edge 40, Type (0, 0), BuildingBlock: XUDNAN_clean_linker_2, # of connection points: 2
#     Edge 41, Type (0, 0), BuildingBlock: XUDNAN_clean_linker_2, # of connection points: 2
# Relax obj value: 0.219
# Max RMSD: 0.178
# Mean RMSD: 0.178
data_MOF--net-wke--node1-BEQFEK_clean_sbu_0--edge1-XUDNAN_clean_linker_2
_symmetry_space_group_name_H-M    P1
_symmetry_Int_Tables_number       1
_symmetry_cell_setting            triclinic
loop_
_symmetry_equiv_pos_as_xyz
'x, y, z'
_cell_length_a     71.773868
_cell_length_b     71.935978
_cell_length_c     18.712553
_cell_angle_alpha  90.099283
_cell_angle_beta   89.864193
_cell_angle_gamma 119.96953
loop_
_atom_site_label
_atom_site_type_symbol
_atom_site_fract_x
_atom_site_fract_y
_atom_site_fract_z
_atom_type_partial_charge
Co0 Co 0.10733 0.45257 0.27087 0.0
Co1 Co 0.12802 0.46696 0.42239 0.0
C2 C 0.08021 0.43548 0.39821 0.0
O3 O 0.0808 0.43406 0.33035 0.0
O4 O 0.09714 0.44776 0.4329 0.0
C5 C 0.09215 0.42908 0.13398 0.0
O6 O 0.08243 0.41104 0.17019 0.0
C7 C 0.13185 0.45368 0.5644 0.0
C8 C 0.1504 0.48434 0.62172 0.0
C9 C 0.13848 0.46226 0.6329 0.0
N10 N 0.13896 0.46987 0.51708 0.0
N11 N 0.15043 0.48816 0.55136 0.0
C12 C 0.1182 0.4307 0.54252 0.0
H13 H 0.11607 0.42926 0.48375 0.0
H14 H 0.12625 0.42158 0.55814 0.0
H15 H 0.10223 0.42356 0.56885 0.0
C16 C 0.14492 0.44542 0.25577 0.0
N17 N 0.13161 0.44941 0.29572 0.0
N18 N 0.14 0.45533 0.35989 0.0
C19 C 0.15861 0.45509 0.36311 0.0
C20 C 0.16234 0.44871 0.29728 0.0
C21 C 0.14252 0.4411 0.1771 0.0
H22 H 0.12762 0.42563 0.16724 0.0
H23 H 0.1563 0.4401 0.15451 0.0
H24 H 0.1412 0.45402 0.14942 0.0
O25 O 0.1155 0.48345 0.28127 0.0
O26 O 0.1325 0.49457 0.38521 0.0
H27 H 0.17711 0.4803 0.4374 0.0
H28 H 0.18936 0.46443 0.41259 0.0
C29 C 0.17395 0.46391 0.42448 0.0
H30 H 0.16646 0.4537 0.47217 0.0
H31 H 0.15705 0.50326 0.52752 0.0
O32 O 0.10192 0.44681 0.16733 0.0
C33 C 0.12569 0.49828 0.32709 0.0
Co34 Co 0.66045 0.10441 0.77085 0.0
Co35 Co 0.66402 0.12433 0.92323 0.0
C36 C 0.64746 0.07652 0.89648 0.0
O37 O 0.65112 0.07751 0.82944 0.0
O38 O 0.65154 0.09329 0.93133 0.0
C39 C 0.67229 0.09224 0.63398 0.0
O40 O 0.68331 0.08543 0.67061 0.0
C41 C 0.68002 0.12883 0.06884 0.0
C42 C 0.66815 0.14852 0.12057 0.0
C43 C 0.67847 0.13696 0.13475 0.0
N44 N 0.67087 0.13511 0.01885 0.0
N45 N 0.66415 0.14721 0.04988 0.0
C46 C 0.68831 0.11379 0.05399 0.0
H47 H 0.68552 0.10835 -0.00228 0.0
H48 H 0.70592 0.12221 0.06286 0.0
H49 H 0.68061 0.09979 0.09056 0.0
C50 C 0.70505 0.14257 0.76308 0.0
N51 N 0.6874 0.12856 0.80034 0.0
N52 N 0.68869 0.13642 0.86491 0.0
C53 C 0.70712 0.15528 0.87109 0.0
C54 C 0.7182 0.15977 0.80697 0.0
C55 C 0.70779 0.14145 0.68415 0.0
H56 H 0.69302 0.13863 0.65609 0.0
H57 H 0.71064 0.12797 0.6725 0.0
H58 H 0.7217 0.1564 0.66333 0.0
O59 O 0.63799 0.11293 0.77748 0.0
O60 O 0.64192 0.12975 0.88132 0.0
H61 H 0.6986 0.17317 0.94219 0.0
H62 H 0.72717 0.18583 0.92368 0.0
C63 C 0.71222 0.17029 0.9329 0.0
H64 H 0.71423 0.16274 0.98169 0.0
H65 H 0.65587 0.15366 0.02352 0.0
O66 O 0.66168 0.09939 0.66699 0.0
C67 C 0.63264 0.12304 0.82121 0.0
Co68 Co 0.55386 0.65495 0.25843 0.0
Co69 Co 0.5447 0.65877 0.41845 0.0
C70 C 0.57557 0.64428 0.37511 0.0
O71 O 0.57237 0.64597 0.30912 0.0
O72 O 0.56617 0.64902 0.42338 0.0
C73 C 0.57919 0.66705 0.12905 0.0
O74 O 0.59598 0.67738 0.17092 0.0
C75 C 0.55576 0.67419 0.5638 0.0
C76 C 0.52392 0.66181 0.61459 0.0
C77 C 0.5458 0.67243 0.62894 0.0
N78 N 0.54049 0.66499 0.51354 0.0
N79 N 0.5215 0.65796 0.54384 0.0
C80 C 0.57908 0.68189 0.55041 0.0
H81 H 0.58268 0.68412 0.49238 0.0
H82 H 0.58936 0.69737 0.57767 0.0
H83 H 0.58314 0.66996 0.57177 0.0
C84 C 0.56198 0.70012 0.25794 0.0
N85 N 0.55733 0.68164 0.2913 0.0
N86 N 0.55367 0.68323 0.35933 0.0
C87 C 0.55604 0.70278 0.37159 0.0
C88 C 0.56145 0.71418 0.30785 0.0
C89 C 0.56728 0.70438 0.18013 0.0
H90 H 0.58358 0.70678 0.17074 0.0
H91 H 0.56725 0.71898 0.16165 0.0
H92 H 0.55559 0.69042 0.14814 0.0
O93 O 0.52355 0.63174 0.26916 0.0
O94 O 0.51706 0.63431 0.38369 0.0
H95 H 0.55132 0.725 0.43707 0.0
H96 H 0.56436 0.71213 0.4805 0.0
C97 C 0.55167 0.70981 0.44191 0.0
H98 H 0.53597 0.69718 0.46311 0.0
H99 H 0.50687 0.64957 0.51692 0.0
O100 O 0.56048 0.65673 0.15609 0.0
C101 C 0.51098 0.62519 0.32293 0.0
Co102 Co 0.90407 0.55965 0.7604 0.0
Co103 Co 0.88985 0.5402 0.91346 0.0
C104 C 0.93483 0.57702 0.87863 0.0
O105 O 0.93052 0.57933 0.81441 0.0
O106 O 0.92094 0.56231 0.9186 0.0
C107 C 0.91239 0.58441 0.62514 0.0
O108 O 0.91702 0.60176 0.66189 0.0
C109 C 0.88482 0.54909 0.06069 0.0
C110 C 0.87053 0.51742 0.11313 0.0
C111 C 0.87853 0.53907 0.12664 0.0
N112 N 0.88069 0.53411 0.01063 0.0
N113 N 0.87189 0.51515 0.04206 0.0
C114 C 0.89705 0.5727 0.04604 0.0
H115 H 0.89829 0.57585 0.98773 0.0
H116 H 0.88903 0.58079 0.07126 0.0
H117 H 0.91343 0.57968 0.06907 0.0
C118 C 0.86363 0.56145 0.77142 0.0
N119 N 0.87923 0.55857 0.80016 0.0
N120 N 0.87316 0.55022 0.8644 0.0
C121 C 0.85353 0.54761 0.87842 0.0
C122 C 0.84697 0.55488 0.82032 0.0
C123 C 0.86328 0.56758 0.69523 0.0
H124 H 0.87594 0.58452 0.68732 0.0
H125 H 0.84758 0.56597 0.6805 0.0
H126 H 0.86667 0.55732 0.65939 0.0
O127 O 0.89941 0.53013 0.75964 0.0
O128 O 0.88717 0.51433 0.86464 0.0
H129 H 0.84041 0.52068 0.94946 0.0
H130 H 0.82335 0.53234 0.93646 0.0
C131 C 0.8402 0.53587 0.94207 0.0
H132 H 0.84729 0.54587 0.99044 0.0
H133 H 0.86763 0.5008 0.0155 0.0
O134 O 0.90721 0.56697 0.65742 0.0
C135 C 0.89248 0.51375 0.79996 0.0
Co136 Co 0.35396 0.90136 0.27068 0.0
Co137 Co 0.3497 0.88188 0.4227 0.0
C138 C 0.36591 0.92962 0.39552 0.0
O139 O 0.36343 0.92863 0.32785 0.0
O140 O 0.36119 0.91281 0.43106 0.0
C141 C 0.35656 0.92218 0.13045 0.0
O142 O 0.36602 0.94115 0.16112 0.0
C143 C 0.33515 0.87973 0.56667 0.0
C144 C 0.35014 0.8639 0.62445 0.0
C145 C 0.33936 0.87521 0.63463 0.0
N146 N 0.34345 0.87196 0.51865 0.0
N147 N 0.35198 0.86205 0.55339 0.0
C148 C 0.32379 0.8917 0.54738 0.0
H149 H 0.31721 0.88747 0.4924 0.0
H150 H 0.31063 0.88796 0.5861 0.0
H151 H 0.3351 0.90918 0.54938 0.0
C152 C 0.30889 0.86443 0.26379 0.0
N153 N 0.32673 0.87769 0.30119 0.0
N154 N 0.32525 0.86926 0.36468 0.0
C155 C 0.30671 0.85041 0.36957 0.0
C156 C 0.29566 0.84662 0.30548 0.0
C157 C 0.30553 0.86749 0.18684 0.0
H158 H 0.31014 0.88445 0.17705 0.0
H159 H 0.2885 0.85694 0.17099 0.0
H160 H 0.31584 0.86347 0.1536 0.0
O161 O 0.37672 0.89281 0.27576 0.0
O162 O 0.37219 0.87711 0.3816 0.0
H163 H 0.2877 0.81892 0.41756 0.0
H164 H 0.29791 0.84144 0.47836 0.0
C165 C 0.30161 0.83496 0.42991 0.0
H166 H 0.3159 0.83341 0.442 0.0
H167 H 0.36058 0.8556 0.52897 0.0
O168 O 0.35116 0.9055 0.16767 0.0
C169 C 0.38185 0.883 0.3216 0.0
Co170 Co 0.45564 0.3503 0.75618 0.0
Co171 Co 0.46726 0.34535 0.91534 0.0
C172 C 0.43349 0.35737 0.88013 0.0
O173 O 0.43569 0.35694 0.81262 0.0
O174 O 0.44477 0.35339 0.92294 0.0
C175 C 0.43095 0.33369 0.62535 0.0
O176 O 0.41597 0.31956 0.66776 0.0
C177 C 0.46082 0.33578 0.06946 0.0
C178 C 0.4886 0.33221 0.09896 0.0
C179 C 0.47044 0.33172 0.12639 0.0
N180 N 0.47268 0.3387 0.0103 0.0
N181 N 0.48933 0.33657 0.02846 0.0
C182 C 0.4401 0.33593 0.07117 0.0
H183 H 0.44333 0.35247 0.06107 0.0
H184 H 0.4295 0.32521 0.0284 0.0
H185 H 0.43182 0.33043 0.12349 0.0
C186 C 0.4522 0.30737 0.7471 0.0
N187 N 0.45476 0.32434 0.7855 0.0
N188 N 0.4574 0.32118 0.85312 0.0
C189 C 0.4547 0.30127 0.86044 0.0
C190 C 0.45112 0.29174 0.79315 0.0
C191 C 0.45542 0.30784 0.66787 0.0
H192 H 0.46506 0.32458 0.64849 0.0
H193 H 0.43961 0.29982 0.64107 0.0
H194 H 0.46389 0.29901 0.65322 0.0
O195 O 0.48549 0.37339 0.76528 0.0
O196 O 0.49484 0.3701 0.87605 0.0
H197 H 0.47197 0.29632 0.94388 0.0
H198 H 0.44547 0.27375 0.92821 0.0
C199 C 0.4551 0.29152 0.93054 0.0
H200 H 0.44863 0.29739 0.97334 0.0
H201 H 0.50118 0.33805 0.99272 0.0
O202 O 0.44834 0.34842 0.65251 0.0
C203 C 0.49932 0.37934 0.81509 0.0
Co204 Co 0.55776 0.90114 0.23312 0.0
Co205 Co 0.54638 0.8852 0.07751 0.0
C206 C 0.57621 0.93182 0.11139 0.0
O207 O 0.57463 0.92756 0.17783 0.0
O208 O 0.56613 0.91706 0.06544 0.0
C209 C 0.57804 0.91473 0.37901 0.0
O210 O 0.59755 0.91988 0.35847 0.0
C211 C 0.55147 0.88001 0.92559 0.0
C212 C 0.52107 0.85032 0.90092 0.0
C213 C 0.53951 0.86673 0.86988 0.0
N214 N 0.54055 0.87187 0.98659 0.0
N215 N 0.52266 0.85383 0.97184 0.0
C216 C 0.57135 0.90159 0.9204 0.0
H217 H 0.58172 0.90429 0.96761 0.0
H218 H 0.58072 0.90322 0.87146 0.0
H219 H 0.56665 0.91412 0.9194 0.0
C220 C 0.56699 0.86542 0.24197 0.0
N221 N 0.56219 0.87851 0.205 0.0
N222 N 0.55845 0.87228 0.13794 0.0
C223 C 0.5618 0.8555 0.12934 0.0
C224 C 0.56726 0.8505 0.1952 0.0
C225 C 0.568 0.86521 0.32191 0.0
H226 H 0.55654 0.86961 0.34533 0.0
H227 H 0.58449 0.87705 0.33961 0.0
H228 H 0.5639 0.84914 0.34236 0.0
O229 O 0.52734 0.89155 0.22599 0.0
O230 O 0.5176 0.8797 0.11548 0.0
H231 H 0.54289 0.83342 0.04743 0.0
H232 H 0.56893 0.83574 0.06008 0.0
C233 C 0.56008 0.84473 0.05923 0.0
H234 H 0.56677 0.85686 0.01602 0.0
H235 H 0.51095 0.84461 0.00969 0.0
O236 O 0.56274 0.90753 0.33445 0.0
C237 C 0.51307 0.88334 0.17796 0.0
Co238 Co 0.65821 0.55492 0.72205 0.0
Co239 Co 0.66284 0.54054 0.56834 0.0
C240 C 0.64454 0.57001 0.59854 0.0
O241 O 0.64871 0.5728 0.66519 0.0
O242 O 0.64911 0.55791 0.56237 0.0
C243 C 0.67155 0.57891 0.85659 0.0
O244 O 0.68356 0.59613 0.8182 0.0
C245 C 0.67606 0.55228 0.42027 0.0
C246 C 0.67471 0.52326 0.37499 0.0
C247 C 0.67923 0.54384 0.35755 0.0
N248 N 0.67023 0.53748 0.47223 0.0
N249 N 0.66957 0.5202 0.44498 0.0
C250 C 0.6759 0.5729 0.42985 0.0
H251 H 0.659 0.56936 0.4288 0.0
H252 H 0.68292 0.58006 0.48251 0.0
H253 H 0.68462 0.58476 0.38745 0.0
C254 C 0.70224 0.55955 0.7316 0.0
N255 N 0.68533 0.55769 0.69364 0.0
N256 N 0.68749 0.5533 0.62689 0.0
C257 C 0.70613 0.55327 0.61944 0.0
C258 C 0.716 0.55683 0.68568 0.0
C259 C 0.70307 0.55953 0.81159 0.0
H260 H 0.68682 0.54872 0.83364 0.0
H261 H 0.70883 0.57604 0.83145 0.0
H262 H 0.71415 0.55415 0.83142 0.0
O263 O 0.63563 0.52409 0.71363 0.0
O264 O 0.64115 0.51252 0.60963 0.0
H265 H 0.70349 0.53078 0.5396 0.0
H266 H 0.73064 0.5525 0.55396 0.0
C267 C 0.7135 0.54818 0.55104 0.0
H268 H 0.7116 0.55724 0.50656 0.0
H269 H 0.66522 0.5062 0.47379 0.0
O270 O 0.65944 0.56122 0.82529 0.0
C271 C 0.63102 0.50902 0.66881 0.0
Co272 Co 0.10676 0.65823 0.22886 0.0
Co273 Co 0.12166 0.65717 0.07436 0.0
C274 C 0.07653 0.64676 0.10645 0.0
O275 O 0.08039 0.65119 0.17251 0.0
O276 O 0.09082 0.64779 0.064 0.0
C277 C 0.09807 0.67228 0.37127 0.0
O278 O 0.10068 0.69059 0.3474 0.0
C279 C 0.12574 0.66677 0.92296 0.0
C280 C 0.14743 0.65522 0.88655 0.0
C281 C 0.13466 0.66332 0.86247 0.0
N282 N 0.13291 0.66105 0.98032 0.0
N283 N 0.14632 0.65466 0.95843 0.0
C284 C 0.10852 0.67271 0.92556 0.0
H285 H 0.109 0.68047 0.97738 0.0
H286 H 0.11044 0.68375 0.8812 0.0
H287 H 0.09259 0.65797 0.91983 0.0
C288 C 0.14819 0.70027 0.22854 0.0
N289 N 0.13194 0.68307 0.19581 0.0
N290 N 0.1368 0.68326 0.12792 0.0
C291 C 0.15547 0.70134 0.11403 0.0
C292 C 0.16374 0.71263 0.17767 0.0
C293 C 0.15056 0.70259 0.30806 0.0
H294 H 0.1415 0.68671 0.33423 0.0
H295 H 0.14421 0.71296 0.32708 0.0
H296 H 0.16771 0.71009 0.32395 0.0
O297 O 0.11288 0.63456 0.22831 0.0
O298 O 0.12499 0.63372 0.11994 0.0
H299 H 0.17282 0.69842 0.02563 0.0
H300 H 0.17662 0.72513 0.03739 0.0
C301 C 0.16485 0.7077 0.04057 0.0
H302 H 0.15185 0.70397 0.00162 0.0
H303 H 0.15355 0.64857 0.99213 0.0
O304 O 0.1004 0.65961 0.32984 0.0
C305 C 0.12041 0.62668 0.18371 0.0
Co306 Co 0.45601 0.10689 0.72387 0.0
Co307 Co 0.46968 0.11978 0.5687 0.0
C308 C 0.43634 0.07423 0.61066 0.0
O309 O 0.43725 0.07923 0.67647 0.0
O310 O 0.44799 0.08821 0.5642 0.0
C311 C 0.43908 0.09422 0.87527 0.0
O312 O 0.42649 0.07359 0.86387 0.0
C313 C 0.46078 0.12483 0.42371 0.0
C314 C 0.49289 0.14777 0.3803 0.0
C315 C 0.47127 0.13594 0.36283 0.0
N316 N 0.47548 0.12984 0.47495 0.0
N317 N 0.49468 0.14353 0.4491 0.0
C318 C 0.43708 0.11089 0.43535 0.0
H319 H 0.43295 0.11178 0.49198 0.0
H320 H 0.42791 0.11576 0.39976 0.0
H321 H 0.43237 0.094 0.42335 0.0
C322 C 0.44664 0.14296 0.71339 0.0
N323 N 0.45284 0.12961 0.68509 0.0
N324 N 0.45967 0.13582 0.61958 0.0
C325 C 0.45865 0.15367 0.60485 0.0
C326 C 0.45046 0.1588 0.66415 0.0
C327 C 0.43628 0.14039 0.78487 0.0
H328 H 0.42799 0.12343 0.80226 0.0
H329 H 0.42439 0.14596 0.78283 0.0
H330 H 0.44876 0.15063 0.82407 0.0
O331 O 0.48643 0.11328 0.72039 0.0
O332 O 0.49696 0.12464 0.60972 0.0
H333 H 0.46836 0.18257 0.54325 0.0
H334 H 0.45586 0.15782 0.49318 0.0
C335 C 0.46698 0.16657 0.5378 0.0
H336 H 0.483 0.16873 0.52463 0.0
H337 H 0.5089 0.15006 0.47853 0.0
O338 O 0.45014 0.10659 0.82494 0.0
C339 C 0.50089 0.12066 0.67221 0.0
Co340 Co 0.34704 0.44421 0.22501 0.0
Co341 Co 0.35318 0.46445 0.07187 0.0
C342 C 0.36092 0.42769 0.10028 0.0
O343 O 0.35539 0.4265 0.1656 0.0
O344 O 0.36101 0.44176 0.05899 0.0
C345 C 0.33275 0.42146 0.38081 0.0
O346 O 0.3245 0.40057 0.38512 0.0
C347 C 0.34939 0.46595 0.91545 0.0
C348 C 0.34902 0.4962 0.89994 0.0
C349 C 0.34709 0.47851 0.86369 0.0
N350 N 0.35186 0.47545 0.97948 0.0
N351 N 0.35187 0.49366 0.96966 0.0
C352 C 0.35158 0.44651 0.90421 0.0
H353 H 0.36672 0.44937 0.92927 0.0
H354 H 0.33797 0.43245 0.93053 0.0
H355 H 0.35246 0.44298 0.84714 0.0
C356 C 0.3059 0.44392 0.21449 0.0
N357 N 0.32407 0.44627 0.18471 0.0
N358 N 0.32588 0.45344 0.11898 0.0
C359 C 0.30825 0.45485 0.1037 0.0
C360 C 0.29515 0.44926 0.16406 0.0
C361 C 0.30101 0.4401 0.29271 0.0
H362 H 0.31594 0.44985 0.3237 0.0
H363 H 0.29501 0.42293 0.30473 0.0
H364 H 0.2889 0.44441 0.31026 0.0
O365 O 0.3715 0.47348 0.23751 0.0
O366 O 0.37613 0.48849 0.13012 0.0
H367 H 0.31272 0.47912 0.02876 0.0
H368 H 0.28647 0.45548 0.02566 0.0
C369 C 0.3039 0.46138 0.03261 0.0
H370 H 0.30937 0.45475 0.98914 0.0
H371 H 0.35348 0.50418 0.01076 0.0
O372 O 0.33837 0.43046 0.32009 0.0
C373 C 0.38133 0.48953 0.19587 0.0
Co374 Co 0.90297 0.3505 0.72852 0.0
Co375 Co 0.89111 0.34756 0.56824 0.0
C376 C 0.93582 0.36058 0.61298 0.0
O377 O 0.93043 0.35856 0.67862 0.0
O378 O 0.9221 0.35663 0.56403 0.0
C379 C 0.91248 0.3348 0.85633 0.0
O380 O 0.91558 0.32209 0.81357 0.0
C381 C 0.88636 0.3324 0.42243 0.0
C382 C 0.86574 0.34376 0.37451 0.0
C383 C 0.8771 0.33334 0.3588 0.0
N384 N 0.88065 0.34172 0.47347 0.0
N385 N 0.86806 0.34821 0.4449 0.0
C386 C 0.90225 0.32496 0.43363 0.0
H387 H 0.90328 0.32186 0.49111 0.0
H388 H 0.89768 0.31009 0.40316 0.0
H389 H 0.91828 0.33755 0.4145 0.0
C390 C 0.86363 0.30705 0.72854 0.0
N391 N 0.87937 0.32442 0.69477 0.0
N392 N 0.87485 0.32301 0.62622 0.0
C393 C 0.85632 0.30459 0.61399 0.0
C394 C 0.84859 0.29387 0.67834 0.0
C395 C 0.86118 0.30473 0.80806 0.0
H396 H 0.86689 0.32061 0.83334 0.0
H397 H 0.87095 0.29784 0.82834 0.0
H398 H 0.8442 0.29384 0.82374 0.0
O399 O 0.89648 0.3741 0.71902 0.0
O400 O 0.88823 0.37205 0.60393 0.0
H401 H 0.84066 0.30978 0.5255 0.0
H402 H 0.83107 0.28176 0.54443 0.0
C403 C 0.84546 0.29803 0.54279 0.0
H404 H 0.85687 0.29799 0.50289 0.0
H405 H 0.86176 0.3564 0.47285 0.0
O406 O 0.90741 0.34795 0.83025 0.0
C407 C 0.89086 0.38088 0.66505 0.0
H408 H 0.03829 0.40729 0.35125 0.0
H409 H 0.07638 0.43644 0.54224 0.0
H410 H 0.04418 0.41801 0.61602 0.0
H411 H 0.99313 0.41151 0.4041 0.0
H412 H 0.9731 0.38588 0.36891 0.0
H413 H 0.99949 0.3998 0.32931 0.0
H414 H 1.0037 0.36648 0.34961 0.0
H415 H 0.9773 0.35249 0.38951 0.0
H416 H 1.00025 0.35541 0.4382 0.0
H417 H 0.00859 0.3983 0.67074 0.0
H418 H 0.97025 0.3794 0.70273 0.0
H419 H 0.95352 0.36305 0.47935 0.0
C420 C 0.03983 0.40957 0.40858 0.0
C421 C 0.06007 0.42325 0.44041 0.0
C422 C 0.06127 0.42594 0.51586 0.0
C423 C 0.04301 0.4155 0.55878 0.0
C424 C 0.02342 0.40226 0.52611 0.0
C425 C 0.02154 0.39919 0.45292 0.0
C426 C 0.99811 0.38474 0.43234 0.0
C427 C 0.99051 0.39618 0.38063 0.0
C428 C 0.99464 0.36352 0.40051 0.0
C429 C 0.98729 0.38108 0.50503 0.0
C430 C 1.00235 0.39098 0.55829 0.0
C431 C 0.99657 0.39031 0.6297 0.0
C432 C 0.9747 0.37947 0.64735 0.0
C433 C 0.9588 0.36968 0.59372 0.0
C434 C 0.96527 0.3703 0.52165 0.0
H435 H 0.63575 0.03485 0.85019 0.0
H436 H 0.63748 0.07176 0.0373 0.0
H437 H 0.62107 0.03926 0.10908 0.0
H438 H 0.58497 0.98823 0.88715 0.0
H439 H 0.59266 0.96893 0.85995 0.0
H440 H 0.60571 0.99533 0.82079 0.0
H441 H 0.64279 1.0009 0.8591 0.0
H442 H 0.62981 0.97448 0.89834 0.0
H443 H 0.64742 0.99754 0.95159 0.0
H444 H 0.60422 0.00409 0.16239 0.0
H445 H 0.58608 0.96612 0.19534 0.0
H446 H 0.5935 0.94941 0.97783 0.0
C447 C 0.63276 0.03604 0.90628 0.0
C448 C 0.63802 0.05607 0.93749 0.0
C449 C 0.63377 0.05683 0.01133 0.0
C450 C 0.62441 0.03838 0.05315 0.0
C451 C 0.61938 0.01904 0.02117 0.0
C452 C 0.62335 0.01752 0.94973 0.0
C453 C 0.61587 0.99424 0.93024 0.0
C454 C 0.59878 0.98622 0.87103 0.0
C455 C 0.63512 0.99164 0.90852 0.0
C456 C 0.60637 0.98312 0.00125 0.0
C457 C 0.60907 0.998 0.05282 0.0
C458 C 0.60203 0.9922 0.12274 0.0
C459 C 0.59178 0.97052 0.14095 0.0
C460 C 0.58833 0.95468 0.08937 0.0
C461 C 0.5958 0.96111 0.01838 0.0
H462 H 0.64181 0.60697 0.62852 0.0
H463 H 0.62035 0.55337 0.48094 0.0
H464 H 0.60299 0.56817 0.40685 0.0
H465 H 0.59337 0.61097 0.61813 0.0
H466 H 0.60725 0.63989 0.62008 0.0
H467 H 0.61896 0.62571 0.66272 0.0
H468 H 0.65358 0.6473 0.58749 0.0
H469 H 0.64186 0.66139 0.54413 0.0
H470 H 0.65172 0.64711 0.49143 0.0
H471 H 0.58952 0.58852 0.34413 0.0
H472 H 0.57507 0.61136 0.30446 0.0
H473 H 0.60158 0.65118 0.49327 0.0
C474 C 0.63332 0.59836 0.58093 0.0
C475 C 0.63287 0.57918 0.56011 0.0
C476 C 0.62146 0.56834 0.49749 0.0
C477 C 0.61147 0.57658 0.45471 0.0
C478 C 0.61271 0.5957 0.47505 0.0
C479 C 0.62295 0.60639 0.53701 0.0
C480 C 0.62109 0.62646 0.54592 0.0
C481 C 0.60946 0.6257 0.61587 0.0
C482 C 0.64339 0.64677 0.54203 0.0
C483 C 0.60764 0.62474 0.48066 0.0
C484 C 0.60367 0.60716 0.43977 0.0
C485 C 0.59238 0.60231 0.37571 0.0
C486 C 0.58438 0.61548 0.35331 0.0
C487 C 0.58723 0.63302 0.39563 0.0
C488 C 0.59917 0.63783 0.46 0.0
H489 H 0.04328 0.60627 0.08501 0.0
H490 H 0.06263 0.67331 0.05866 0.0
H491 H 0.02824 0.66292 -0.00336 0.0
H492 H 0.01761 0.58862 0.91566 0.0
H493 H 0.99621 0.56333 0.94821 0.0
H494 H 0.02195 0.57606 0.99215 0.0
H495 H 1.00357 0.57509 0.11257 0.0
H496 H 0.97775 0.5622 0.06908 0.0
H497 H 0.98647 0.58676 0.1182 0.0
H498 H 0.99288 0.64497 0.9293 0.0
H499 H 0.95753 0.6208 0.87316 0.0
H500 H 0.9604 0.56557 0.95075 0.0
C501 C 0.04 0.61867 0.06723 0.0
C502 C 0.05524 0.64054 0.07717 0.0
C503 C 0.05084 0.65647 0.05217 0.0
C504 C 0.03147 0.65071 0.01666 0.0
C505 C 0.01676 0.62895 0.00691 0.0
C506 C 0.02068 0.61317 0.03226 0.0
C507 C 1.00234 0.59098 0.01438 0.0
C508 C 0.00999 0.57905 0.96466 0.0
C509 C 0.99191 0.578 0.08263 0.0
C510 C 0.98738 0.5967 0.97566 0.0
C511 C 0.99614 0.61868 0.97067 0.0
C512 C 0.98577 0.62774 0.93361 0.0
C513 C 0.96581 0.61396 0.9016 0.0
C514 C 0.95634 0.59146 0.90824 0.0
C515 C 0.96727 0.58277 0.94576 0.0
H516 H 0.42351 0.05699 0.47444 0.0
H517 H 0.41902 0.0396 0.69877 0.0
H518 H 0.39955 1.00149 0.66603 0.0
H519 H 0.36927 0.01171 0.42666 0.0
H520 H 0.37782 0.00789 0.33993 0.0
H521 H 0.39059 0.03422 0.37995 0.0
H522 H 0.42766 0.0368 0.36625 0.0
H523 H 0.41505 0.01046 0.32667 0.0
H524 H 0.43187 0.01618 0.40437 0.0
H525 H 0.3848 0.96627 0.61176 0.0
H526 H 0.37138 0.93412 0.53887 0.0
H527 H 0.38136 0.9718 0.34639 0.0
C528 C 0.41816 0.04513 0.51661 0.0
C529 C 0.42286 0.05138 0.58938 0.0
C530 C 0.41558 0.03535 0.64288 0.0
C531 C 0.40452 0.01359 0.62481 0.0
C532 C 0.40047 0.00799 0.55301 0.0
C533 C 0.40665 0.02314 0.49955 0.0
C534 C 0.40011 0.01231 0.42656 0.0
C535 C 0.38345 0.0168 0.39119 0.0
C536 C 0.41986 0.01936 0.37813 0.0
C537 C 0.39008 0.98879 0.44766 0.0
C538 C 0.39056 0.98695 0.52107 0.0
C539 C 0.38373 0.96739 0.55439 0.0
C540 C 0.37594 0.94909 0.512 0.0
C541 C 0.37447 0.95006 0.43654 0.0
C542 C 0.38176 0.97035 0.40386 0.0
H543 H 0.4251 0.38966 0.8436 0.0
H544 H 0.40601 0.33622 0.98856 0.0
H545 H 0.38372 0.34722 0.05661 0.0
H546 H 0.43036 0.42726 0.97098 0.0
H547 H 0.41937 0.44032 0.9176 0.0
H548 H 0.43199 0.42702 0.87483 0.0
H549 H 0.39738 0.40373 0.80145 0.0
H550 H 0.38467 0.41707 0.84384 0.0
H551 H 0.37207 0.38825 0.84725 0.0
H552 H 0.36678 0.36596 0.11665 0.0
H553 H 0.35439 0.39029 0.16101 0.0
H554 H 0.38363 0.43151 0.97692 0.0
C555 C 0.41572 0.37999 0.88842 0.0
C556 C 0.41744 0.36221 0.91147 0.0
C557 C 0.40527 0.35014 0.97108 0.0
C558 C 0.3924 0.35615 0.00969 0.0
C559 C 0.39163 0.3742 0.98754 0.0
C560 C 0.40269 0.38581 0.92776 0.0
C561 C 0.39989 0.40523 0.91817 0.0
C562 C 0.4217 0.42619 0.92058 0.0
C563 C 0.38778 0.40346 0.84854 0.0
C564 C 0.38622 0.40305 0.98314 0.0
C565 C 0.38149 0.38492 0.02199 0.0
C566 C 0.37006 0.38004 0.08608 0.0
C567 C 0.36318 0.39402 0.11106 0.0
C568 C 0.36775 0.4127 0.07211 0.0
C569 C 0.37939 0.41714 0.00716 0.0
H570 H 0.1132 0.58899 0.11912 0.0
H571 H 0.13876 0.62782 0.31009 0.0
H572 H 0.14543 0.60035 0.36289 0.0
H573 H 0.08472 0.53959 0.21107 0.0
H574 H 0.08952 0.52394 0.14601 0.0
H575 H 0.08907 0.54768 0.11858 0.0
H576 H 0.12715 0.5631 0.06396 0.0
H577 H 0.12768 0.53933 0.09107 0.0
H578 H 0.14882 0.56541 0.11886 0.0
H579 H 0.14754 0.56843 0.39852 0.0
H580 H 0.14363 0.5328 0.41738 0.0
H581 H 0.1152 0.51314 0.20636 0.0
C582 C 0.12062 0.5918 0.17132 0.0
C583 C 0.12567 0.61056 0.21043 0.0
C584 C 0.13483 0.61354 0.27936 0.0
C585 C 0.13876 0.59809 0.30969 0.0
C586 C 0.13325 0.57958 0.27071 0.0
C587 C 0.1243 0.57624 0.2032 0.0
C588 C 0.11829 0.55405 0.17584 0.0
C589 C 0.09396 0.54052 0.16209 0.0
C590 C 0.13127 0.55557 0.10843 0.0
C591 C 0.12501 0.54548 0.23893 0.0
C592 C 0.13385 0.56063 0.29253 0.0
C593 C 0.14077 0.55643 0.35681 0.0
C594 C 0.13846 0.5361 0.36703 0.0
C595 C 0.1291 0.52009 0.31351 0.0
C596 C 0.12246 0.525 0.24835 0.0
H597 H 0.51225 0.09707 0.75745 0.0
H598 H 0.53867 0.15398 0.62445 0.0
H599 H 0.5755 0.16186 0.65388 0.0
H600 H 0.55232 0.11685 0.89537 0.0
H601 H 0.55297 0.09221 0.9035 0.0
H602 H 0.52871 0.09155 0.87477 0.0
H603 H 0.52812 0.07103 0.76008 0.0
H604 H 0.5523 0.07152 0.78864 0.0
H605 H 0.55139 0.08221 0.70253 0.0
H606 H 0.60932 0.16359 0.69789 0.0
H607 H 0.63794 0.15736 0.74572 0.0
H608 H 0.5896 0.09845 0.84505 0.0
C609 C 0.52584 0.11127 0.73514 0.0
C610 C 0.52275 0.12509 0.68943 0.0
C611 C 0.5408 0.14325 0.6597 0.0
C612 C 0.56173 0.14789 0.67633 0.0
C613 C 0.56426 0.13397 0.72167 0.0
C614 C 0.54683 0.11585 0.74979 0.0
C615 C 0.55398 0.10276 0.79321 0.0
C616 C 0.54655 0.10074 0.87136 0.0
C617 C 0.54597 0.08057 0.75907 0.0
C618 C 0.57816 0.11665 0.78667 0.0
C619 C 0.58376 0.13461 0.74528 0.0
C620 C 0.60515 0.14964 0.73051 0.0
C621 C 0.62125 0.14606 0.75798 0.0
C622 C 0.61578 0.12766 0.79953 0.0
C623 C 0.59405 0.11283 0.8143 0.0
H624 H 0.49175 0.60188 0.20099 0.0
H625 H 0.48146 0.60428 0.42898 0.0
H626 H 0.44685 0.57054 0.41957 0.0
H627 H 0.4356 0.57991 0.14797 0.0
H628 H 0.43705 0.56315 0.07901 0.0
H629 H 0.46071 0.58803 0.10268 0.0
H630 H 0.48122 0.5676 0.12705 0.0
H631 H 0.45763 0.54265 0.10376 0.0
H632 H 0.47022 0.54557 0.18945 0.0
H633 H 0.41485 0.53552 0.38804 0.0
H634 H 0.38604 0.50219 0.33483 0.0
H635 H 0.41589 0.52267 0.126 0.0
C636 C 0.48212 0.59547 0.24886 0.0
C637 C 0.48939 0.60582 0.31582 0.0
C638 C 0.47628 0.59676 0.37708 0.0
C639 C 0.45658 0.57756 0.37232 0.0
C640 C 0.45008 0.56765 0.30587 0.0
C641 C 0.46231 0.57635 0.24503 0.0
C642 C 0.45169 0.56218 0.18042 0.0
C643 C 0.44592 0.57403 0.12421 0.0
C644 C 0.46605 0.55402 0.14831 0.0
C645 C 0.43168 0.54406 0.21471 0.0
C646 C 0.43119 0.54756 0.28719 0.0
C647 C 0.41492 0.5327 0.33123 0.0
C648 C 0.39868 0.51377 0.30049 0.0
C649 C 0.39865 0.50987 0.2262 0.0
C650 C 0.41534 0.52534 0.18276 0.0
H651 H 0.88933 0.47822 0.86917 0.0
H652 H 0.89035 0.50416 0.65873 0.0
H653 H 0.88768 0.47201 0.60298 0.0
H654 H 0.92222 0.45604 0.82388 0.0
H655 H 0.90783 0.43227 0.87793 0.0
H656 H 0.90798 0.45654 0.90271 0.0
H657 H 0.86632 0.43609 0.90247 0.0
H658 H 0.86606 0.41174 0.87767 0.0
H659 H 0.85206 0.42156 0.82362 0.0
H660 H 0.88608 0.43808 0.56866 0.0
H661 H 0.88759 0.40475 0.55772 0.0
H662 H 0.88887 0.4006 0.78915 0.0
C663 C 0.88872 0.47697 0.81144 0.0
C664 C 0.89002 0.49373 0.76843 0.0
C665 C 0.88946 0.49161 0.69297 0.0
C666 C 0.88783 0.47334 0.66061 0.0
C667 C 0.88681 0.45724 0.70423 0.0
C668 C 0.8873 0.45881 0.77793 0.0
C669 C 0.88716 0.43957 0.81174 0.0
C670 C 0.90751 0.44653 0.8567 0.0
C671 C 0.86668 0.42647 0.85652 0.0
C672 C 0.88702 0.42732 0.74539 0.0
C673 C 0.88645 0.43768 0.68411 0.0
C674 C 0.88644 0.42973 0.61621 0.0
C675 C 0.88727 0.41075 0.61058 0.0
C676 C 0.88838 0.40004 0.67248 0.0
C677 C 0.88807 0.40841 0.74078 0.0
H678 H 0.48345 0.89137 0.11034 0.0
H679 H 0.49349 0.86196 0.2974 0.0
H680 H 0.45946 0.85618 0.349 0.0
H681 H 0.464 0.92028 0.20168 0.0
H682 H 0.44379 0.91684 0.13766 0.0
H683 H 0.46719 0.91583 0.10869 0.0
H684 H 0.44294 0.87825 0.05354 0.0
H685 H 0.41941 0.87924 0.08169 0.0
H686 H 0.42287 0.85708 0.10826 0.0
H687 H 0.42725 0.857 0.38704 0.0
H688 H 0.39718 0.8634 0.40896 0.0
H689 H 0.40703 0.89293 0.1994 0.0
C690 C 0.47798 0.88303 0.16085 0.0
C691 C 0.49085 0.87678 0.19956 0.0
C692 C 0.48369 0.86663 0.26674 0.0
C693 C 0.4644 0.86328 0.29649 0.0
C694 C 0.45237 0.87018 0.25848 0.0
C695 C 0.45866 0.87969 0.19193 0.0
C696 C 0.44336 0.88709 0.16579 0.0
C697 C 0.4553 0.91146 0.15273 0.0
C698 C 0.43144 0.87467 0.09831 0.0
C699 C 0.42812 0.88094 0.22923 0.0
C700 C 0.43354 0.87094 0.28141 0.0
C701 C 0.42259 0.86452 0.34621 0.0
C702 C 0.40553 0.8683 0.35821 0.0
C703 C 0.39958 0.8786 0.30592 0.0
C704 C 0.41104 0.88489 0.24033 0.0
H705 H 0.52355 0.42079 0.8646 0.0
H706 H 0.52422 0.37417 0.71935 0.0
H707 H 0.55927 0.40187 0.67109 0.0
H708 H 0.54407 0.46319 0.74112 0.0
H709 H 0.56015 0.4841 0.80407 0.0
H710 H 0.53649 0.46019 0.83412 0.0
H711 H 0.5592 0.45349 0.92694 0.0
H712 H 0.58293 0.47752 0.89761 0.0
H713 H 0.58252 0.45227 0.89769 0.0
H714 H 0.59208 0.43492 0.63033 0.0
H715 H 0.62174 0.47134 0.60269 0.0
H716 H 0.60017 0.49709 0.77355 0.0
C717 C 0.53152 0.41639 0.82435 0.0
C718 C 0.52159 0.39535 0.79652 0.0
C719 C 0.5319 0.39019 0.74191 0.0
C720 C 0.55173 0.40579 0.71414 0.0
C721 C 0.56098 0.42655 0.74128 0.0
C722 C 0.55134 0.43192 0.79544 0.0
C723 C 0.56402 0.45581 0.811 0.0
C724 C 0.55036 0.46644 0.7967 0.0
C725 C 0.57269 0.46001 0.88788 0.0
C726 C 0.58209 0.46294 0.75679 0.0
C727 C 0.58001 0.44579 0.71722 0.0
C728 C 0.59408 0.44847 0.66155 0.0
C729 C 0.61082 0.46924 0.64602 0.0
C730 C 0.61341 0.48708 0.68613 0.0
C731 C 0.59883 0.48377 0.74243 0.0
H732 H 0.14383 0.48268 0.76075 0.0
H733 H 0.11701 0.41838 0.67256 0.0
H734 H 0.1011 0.4032 0.78827 0.0
H735 H 0.15723 0.46862 0.93347 0.0
H736 H 0.15147 0.48696 0.98119 0.0
H737 H 0.16109 0.49269 0.89041 0.0
H738 H 0.12782 0.49583 0.85553 0.0
H739 H 0.11791 0.48975 0.94584 0.0
H740 H 0.10122 0.47366 0.87299 0.0
H741 H 0.08628 0.39475 0.9152 0.0
H742 H 0.0774 0.3943 0.04343 0.0
H743 H 0.11505 0.46389 0.04781 0.0
C744 C 0.13478 0.46537 0.76511 0.0
C745 C 0.13113 0.45202 0.70489 0.0
C746 C 0.11943 0.42941 0.71499 0.0
C747 C 0.1104 0.42044 0.78165 0.0
C748 C 0.11359 0.43418 0.83855 0.0
C749 C 0.1259 0.45616 0.83123 0.0
C750 C 0.12733 0.46751 0.90083 0.0
C751 C 0.15066 0.47966 0.92808 0.0
C752 C 0.11801 0.48257 0.8933 0.0
C753 C 0.11334 0.44849 0.94795 0.0
C754 C 0.10561 0.42935 0.9114 0.0
C755 C 0.09236 0.40965 0.94444 0.0
C756 C 0.0873 0.40955 0.01715 0.0
C757 C 0.09544 0.42903 0.05578 0.0
C758 C 0.10842 0.44869 0.02001 0.0
H759 H 0.64969 0.10321 0.54259 0.0
H760 H 0.70288 0.09068 0.54939 0.0
H761 H 0.71105 0.10162 0.42267 0.0
H762 H 0.6326 0.0843 0.36163 0.0
H763 H 0.6258 0.10476 0.34276 0.0
H764 H 0.62394 0.09518 0.4328 0.0
H765 H 0.64919 0.13422 0.4755 0.0
H766 H 0.65142 0.14388 0.3854 0.0
H767 H 0.67531 0.14982 0.43471 0.0
H768 H 0.71476 0.11646 0.29688 0.0
H769 H 0.71137 0.1301 0.17973 0.0
H770 H 0.65478 0.1313 0.25511 0.0
C771 C 0.6629 0.10247 0.51732 0.0
C772 C 0.67561 0.09601 0.55595 0.0
C773 C 0.69279 0.09538 0.52078 0.0
C774 C 0.69765 0.10172 0.44896 0.0
C775 C 0.68508 0.10851 0.41306 0.0
C776 C 0.66789 0.10864 0.44589 0.0
C777 C 0.65689 0.11665 0.3959 0.0
C778 C 0.63342 0.09917 0.38248 0.0
C779 C 0.65829 0.13737 0.42461 0.0
C780 C 0.67053 0.12099 0.32959 0.0
C781 C 0.68683 0.11639 0.34059 0.0
C782 C 0.70175 0.11964 0.28726 0.0
C783 C 0.69953 0.12717 0.22039 0.0
C784 C 0.68232 0.13103 0.20701 0.0
C785 C 0.66801 0.12834 0.26321 0.0
H786 H 0.53133 0.64426 0.7388 0.0
H787 H 0.58137 0.70839 0.68127 0.0
H788 H 0.59824 0.71249 0.79984 0.0
H789 H 0.52503 0.6567 0.91705 0.0
H790 H 0.51985 0.63123 0.95225 0.0
H791 H 0.51311 0.63313 0.86107 0.0
H792 H 0.53641 0.61689 0.81871 0.0
H793 H 0.54351 0.61528 0.90989 0.0
H794 H 0.5643 0.6296 0.84443 0.0
H795 H 0.60884 0.70967 0.92693 0.0
H796 H 0.60995 0.70179 0.0552 0.0
H797 H 0.55205 0.64006 0.02842 0.0
C798 C 0.54586 0.65916 0.75117 0.0
C799 C 0.55545 0.67579 0.70051 0.0
C800 C 0.57431 0.69513 0.71853 0.0
C801 C 0.5839 0.69764 0.78581 0.0
C802 C 0.57429 0.68067 0.83414 0.0
C803 C 0.55555 0.6619 0.81779 0.0
C804 C 0.54763 0.64655 0.88014 0.0
C805 C 0.52508 0.64163 0.90403 0.0
C806 C 0.54799 0.62586 0.8622 0.0
C807 C 0.56452 0.6598 0.93495 0.0
C808 C 0.58002 0.67927 0.90726 0.0
C809 C 0.59687 0.69442 0.94905 0.0
C810 C 0.59746 0.68977 0.0216 0.0
C811 C 0.5811 0.67032 0.05125 0.0
C812 C 0.56479 0.65502 0.00688 0.0
H813 H 0.91833 0.55904 0.53068 0.0
H814 H 0.89921 0.60738 0.5442 0.0
H815 H 0.88901 0.60165 0.41626 0.0
H816 H 0.94025 0.57295 0.34605 0.0
H817 H 0.93133 0.54533 0.32449 0.0
H818 H 0.93873 0.55476 0.41496 0.0
H819 H 0.90142 0.52479 0.45867 0.0
H820 H 0.89373 0.51552 0.36838 0.0
H821 H 0.87741 0.52291 0.42124 0.0
H822 H 0.87734 0.58766 0.29037 0.0
H823 H 0.86861 0.56928 0.17315 0.0
H824 H 0.89683 0.53124 0.24139 0.0
C825 C 0.91239 0.56872 0.50624 0.0
C826 C 0.9096 0.5837 0.54693 0.0
C827 C 0.90173 0.59604 0.51351 0.0
C828 C 0.89578 0.59279 0.44111 0.0
C829 C 0.89819 0.57744 0.40291 0.0
C830 C 0.90674 0.56594 0.43401 0.0
C831 C 0.90745 0.55019 0.38182 0.0
C832 C 0.93083 0.55617 0.36589 0.0
C833 C 0.89421 0.52699 0.40919 0.0
C834 C 0.8971 0.55394 0.31731 0.0
C835 C 0.89201 0.56982 0.33025 0.0
C836 C 0.88173 0.57559 0.27912 0.0
C837 C 0.87697 0.56519 0.21256 0.0
C838 C 0.8826 0.54931 0.19777 0.0
C839 C 0.89249 0.54344 0.25127 0.0
H840 H 0.32491 0.85695 0.76574 0.0
H841 H 0.35574 0.91806 0.65554 0.0
H842 H 0.36023 0.9369 0.76974 0.0
H843 H 0.29737 0.87293 0.90428 0.0
H844 H 0.30126 0.85763 0.97283 0.0
H845 H 0.29774 0.84878 0.88112 0.0
H846 H 0.33367 0.84845 0.88637 0.0
H847 H 0.33729 0.8573 0.97775 0.0
H848 H 0.35791 0.87248 0.91261 0.0
H849 H 0.36525 0.94934 0.89783 0.0
H850 H 0.36959 0.95403 0.029 0.0
H851 H 0.33543 0.88483 0.0547 0.0
C852 C 0.33204 0.87424 0.76576 0.0
C853 C 0.33941 0.88602 0.70178 0.0
C854 C 0.34921 0.90867 0.7036 0.0
C855 C 0.35199 0.91955 0.76838 0.0
C856 C 0.3447 0.90751 0.83083 0.0
C857 C 0.33468 0.88532 0.82997 0.0
C858 C 0.32948 0.87626 0.9049 0.0
C859 C 0.30501 0.86312 0.91645 0.0
C860 C 0.34025 0.86285 0.92133 0.0
C861 C 0.33932 0.89683 0.94795 0.0
C862 C 0.34765 0.91469 0.90447 0.0
C863 C 0.35847 0.93545 0.93251 0.0
C864 C 0.36091 0.93797 0.00702 0.0
C865 C 0.35279 0.91982 0.05233 0.0
C866 C 0.34166 0.89906 0.02194 0.0
H867 H 0.45066 0.3627 0.51714 0.0
H868 H 0.41079 0.29458 0.55923 0.0
H869 H 0.41677 0.28656 0.43575 0.0
H870 H 0.4306 0.3582 0.3283 0.0
H871 H 0.45633 0.37951 0.29823 0.0
H872 H 0.44751 0.37966 0.38841 0.0
H873 H 0.4826 0.38224 0.43595 0.0
H874 H 0.4913 0.38153 0.34623 0.0
H875 H 0.48922 0.36201 0.41081 0.0
H876 H 0.43137 0.28597 0.3132 0.0
H877 H 0.44776 0.29306 0.19217 0.0
H878 H 0.47516 0.36135 0.22596 0.0
C879 C 0.44277 0.34613 0.49971 0.0
C880 C 0.43051 0.32926 0.54794 0.0
C881 C 0.42029 0.30777 0.52322 0.0
C882 C 0.42368 0.30304 0.45326 0.0
C883 C 0.43665 0.32002 0.40792 0.0
C884 C 0.44535 0.34115 0.42928 0.0
C885 C 0.45826 0.35641 0.36955 0.0
C886 C 0.44754 0.3692 0.34465 0.0
C887 C 0.48173 0.37142 0.39202 0.0
C888 C 0.45657 0.34059 0.31286 0.0
C889 C 0.44402 0.31966 0.336 0.0
C890 C 0.4409 0.30227 0.29404 0.0
C891 C 0.4504 0.3064 0.22592 0.0
C892 C 0.46274 0.32768 0.20078 0.0
C893 C 0.46588 0.34495 0.24469 0.0
H894 H 0.59897 0.91032 0.49567 0.0
H895 H 0.5429 0.91439 0.43249 0.0
H896 H 0.52729 0.90251 0.55186 0.0
H897 H 0.5731 0.86427 0.59406 0.0
H898 H 0.5921 0.87215 0.66647 0.0
H899 H 0.60097 0.884 0.57949 0.0
H900 H 0.61622 0.92212 0.63281 0.0
H901 H 0.60799 0.91046 0.7205 0.0
H902 H 0.59909 0.92817 0.68683 0.0
H903 H 0.51519 0.88535 0.66869 0.0
H904 H 0.51012 0.87001 0.78975 0.0
H905 H 0.57386 0.87734 0.78092 0.0
C906 C 0.58381 0.90948 0.50799 0.0
C907 C 0.57206 0.9131 0.45487 0.0
C908 C 0.5521 0.91153 0.47241 0.0
C909 C 0.54305 0.90476 0.53997 0.0
C910 C 0.55436 0.90004 0.58983 0.0
C911 C 0.57456 0.90291 0.57588 0.0
C912 C 0.5828 0.89599 0.63916 0.0
C913 C 0.5875 0.87803 0.61851 0.0
C914 C 0.6027 0.91534 0.67175 0.0
C915 C 0.5636 0.88786 0.68885 0.0
C916 C 0.54745 0.89045 0.65916 0.0
C917 C 0.52785 0.88359 0.69336 0.0
C918 C 0.52501 0.87467 0.76148 0.0
C919 C 0.54172 0.87283 0.79433 0.0
C920 C 0.56103 0.87898 0.75698 0.0
H921 H 0.6592 0.5234 0.23478 0.0
H922 H 0.7094 0.58465 0.31481 0.0
H923 H 0.71217 0.60098 0.19619 0.0
H924 H 0.68503 0.5302 0.05731 0.0
H925 H 0.65945 0.5158 0.01265 0.0
H926 H 0.66211 0.50922 0.10352 0.0
H927 H 0.63083 0.51542 0.14107 0.0
H928 H 0.62835 0.52241 0.05072 0.0
H929 H 0.6327 0.54089 0.12251 0.0
H930 H 0.7074 0.61097 0.06978 0.0
H931 H 0.69879 0.61272 0.94276 0.0
H932 H 0.65316 0.54429 0.94594 0.0
C933 C 0.67092 0.5402 0.22711 0.0
C934 C 0.68327 0.55308 0.28476 0.0
C935 C 0.69884 0.57484 0.27233 0.0
C936 C 0.70074 0.58417 0.20492 0.0
C937 C 0.68748 0.57128 0.15001 0.0
C938 C 0.67331 0.54962 0.15994 0.0
C939 C 0.6613 0.53912 0.09193 0.0
C940 C 0.66734 0.52261 0.06476 0.0
C941 C 0.63685 0.52887 0.10222 0.0
C942 C 0.67011 0.55843 0.04317 0.0
C943 C 0.68534 0.57682 0.0772 0.0
C944 C 0.69562 0.59662 0.04243 0.0
C945 C 0.69052 0.59749 0.97046 0.0
C946 C 0.67524 0.57869 0.93435 0.0
C947 C 0.6648 0.55902 0.97188 0.0
H948 H 0.11285 0.70014 0.48548 0.0
H949 H 0.07902 0.6326 0.42877 0.0
H950 H 0.08266 0.62313 0.55197 0.0
H951 H 0.151 0.69958 0.58918 0.0
H952 H 0.1521 0.71752 0.65855 0.0
H953 H 0.14338 0.71945 0.57022 0.0
H954 H 0.10752 0.71441 0.62062 0.0
H955 H 0.11634 0.71306 0.70964 0.0
H956 H 0.09107 0.69166 0.67687 0.0
H957 H 0.09574 0.62113 0.67065 0.0
H958 H 0.11283 0.62638 0.789 0.0
H959 H 0.13722 0.69485 0.774 0.0
C960 C 0.10541 0.68336 0.50003 0.0
C961 C 0.09567 0.66708 0.44791 0.0
C962 C 0.08659 0.64529 0.4681 0.0
C963 C 0.08855 0.63974 0.5379 0.0
C964 C 0.09936 0.65615 0.58713 0.0
C965 C 0.10716 0.67749 0.57006 0.0
C966 C 0.11951 0.69194 0.63229 0.0
C967 C 0.14288 0.70806 0.61126 0.0
C968 C 0.10792 0.70345 0.6616 0.0
C969 C 0.11842 0.67543 0.68495 0.0
C970 C 0.10658 0.65489 0.6577 0.0
C971 C 0.1046 0.63704 0.69352 0.0
C972 C 0.11454 0.64018 0.76003 0.0
C973 C 0.12617 0.66095 0.78982 0.0
C974 C 0.1282 0.67881 0.752 0.0
H975 H 0.42186 0.07441 0.00471 0.0
H976 H 0.46144 0.13668 0.9058 0.0
H977 H 0.46569 0.15432 0.02023 0.0
H978 H 0.39886 0.09323 0.15525 0.0
H979 H 0.40156 0.07598 0.21902 0.0
H980 H 0.39576 0.06789 0.12669 0.0
H981 H 0.42915 0.06297 0.12066 0.0
H982 H 0.43481 0.0708 0.21271 0.0
H983 H 0.4551 0.08502 0.14559 0.0
H984 H 0.47206 0.16534 0.14272 0.0
H985 H 0.48235 0.16851 0.26957 0.0
H986 H 0.44129 0.09977 0.2948 0.0
C987 C 0.43077 0.09177 0.00711 0.0
C988 C 0.4405 0.10414 0.94549 0.0
C989 C 0.45291 0.1268 0.95121 0.0
C990 C 0.45549 0.13709 0.01635 0.0
C991 C 0.44597 0.12455 0.0762 0.0
C992 C 0.43402 0.10237 0.07277 0.0
C993 C 0.42909 0.0927 0.14699 0.0
C994 C 0.40487 0.08181 0.16291 0.0
C995 C 0.43756 0.07697 0.15704 0.0
C996 C 0.44154 0.11283 0.19157 0.0
C997 C 0.45042 0.13105 0.14964 0.0
C998 C 0.46473 0.15132 0.17676 0.0
C999 C 0.47061 0.15297 0.24849 0.0
C1000 C 0.46222 0.13446 0.29169 0.0
C1001 C 0.44716 0.11426 0.26345 0.0
H1002 H 0.32205 0.44014 0.79467 0.0
H1003 H 0.36404 0.50818 0.75681 0.0
H1004 H 0.36189 0.50135 0.62659 0.0
H1005 H 0.34752 0.42366 0.67206 0.0
H1006 H 0.32344 0.39983 0.64359 0.0
H1007 H 0.32491 0.41037 0.73195 0.0
H1008 H 0.29055 0.41262 0.70791 0.0
H1009 H 0.28882 0.40186 0.61958 0.0
H1010 H 0.28947 0.42707 0.63086 0.0
H1011 H 0.3585 0.48659 0.50212 0.0
H1012 H 0.35395 0.46527 0.39329 0.0
H1013 H 0.31659 0.4066 0.5146 0.0
C1014 C 0.33093 0.4536 0.75906 0.0
C1015 C 0.34383 0.47461 0.7858 0.0
C1016 C 0.35429 0.49191 0.73733 0.0
C1017 C 0.35316 0.48818 0.66338 0.0
C1018 C 0.34138 0.46707 0.63902 0.0
C1019 C 0.33036 0.45008 0.68546 0.0
C1020 C 0.32057 0.42877 0.64669 0.0
C1021 C 0.32966 0.41485 0.67526 0.0
C1022 C 0.29588 0.41689 0.65155 0.0
C1023 C 0.32822 0.4364 0.57133 0.0
C1024 C 0.33989 0.45855 0.56776 0.0
C1025 C 0.34921 0.46925 0.50416 0.0
C1026 C 0.34659 0.457 0.44268 0.0
C1027 C 0.33493 0.43427 0.44544 0.0
C1028 C 0.32557 0.42394 0.51068 0.0
H1029 H 0.89084 0.36078 0.24739 0.0
H1030 H 0.87428 0.29619 0.30783 0.0
H1031 H 0.88529 0.29051 0.18783 0.0
H1032 H 0.87087 0.34817 0.06988 0.0
H1033 H 0.89185 0.37308 0.03332 0.0
H1034 H 0.88367 0.37191 0.12491 0.0
H1035 H 0.92318 0.38665 0.16522 0.0
H1036 H 0.9314 0.38749 0.07368 0.0
H1037 H 0.93715 0.37271 0.13918 0.0
H1038 H 0.89733 0.29195 0.0592 0.0
H1039 H 0.90617 0.29919 0.93053 0.0
H1040 H 0.9143 0.36275 0.95715 0.0
C1041 C 0.88952 0.34544 0.23521 0.0
C1042 C 0.88222 0.32907 0.28676 0.0
C1043 C 0.88053 0.30914 0.26934 0.0
C1044 C 0.88664 0.30577 0.20141 0.0
C1045 C 0.89431 0.3225 0.15206 0.0
C1046 C 0.89556 0.34186 0.1681 0.0
C1047 C 0.90341 0.35698 0.10521 0.0
C1048 C 0.88644 0.36286 0.08196 0.0
C1049 C 0.92507 0.37715 0.12184 0.0
C1050 C 0.90599 0.34297 0.05059 0.0
C1051 C 0.90096 0.32324 0.07857 0.0
C1052 C 0.90145 0.3074 0.03682 0.0
C1053 C 0.9066 0.31169 0.96403 0.0
C1054 C 0.91092 0.33152 0.93418 0.0
C1055 C 0.91112 0.34746 0.9786 0.0
H1056 H 0.17987 0.42287 0.31605 0.0
H1057 H 0.19146 0.48242 0.2196 0.0
H1058 H 0.22684 0.48912 0.1754 0.0
H1059 H 0.23475 0.4414 0.37103 0.0
H1060 H 0.23379 0.41644 0.35072 0.0
H1061 H 0.20959 0.41649 0.37615 0.0
H1062 H 0.19107 0.39633 0.25946 0.0
H1063 H 0.21518 0.39614 0.23381 0.0
H1064 H 0.20363 0.40741 0.17458 0.0
H1065 H 0.26112 0.48993 0.14562 0.0
H1066 H 0.29169 0.48398 0.12563 0.0
H1067 H 0.257 0.4224 0.23268 0.0
C1068 C 0.18995 0.43726 0.28554 0.0
C1069 C 0.18319 0.45219 0.2708 0.0
C1070 C 0.19656 0.47088 0.23093 0.0
C1071 C 0.21661 0.47479 0.20588 0.0
C1072 C 0.2229 0.45977 0.22097 0.0
C1073 C 0.20996 0.4413 0.25946 0.0
C1074 C 0.22049 0.42763 0.26693 0.0
C1075 C 0.22492 0.42536 0.3459 0.0
C1076 C 0.20677 0.40557 0.23156 0.0
C1077 C 0.24124 0.44121 0.22615 0.0
C1078 C 0.24238 0.4598 0.20094 0.0
C1079 C 0.26028 0.47528 0.16404 0.0
C1080 C 0.27748 0.47165 0.15227 0.0
C1081 C 0.27653 0.45252 0.17614 0.0
C1082 C 0.25812 0.43713 0.21353 0.0
H1083 H 0.83831 0.25589 0.74353 0.0
H1084 H 0.81032 0.29094 0.6465 0.0
H1085 H 0.77385 0.26042 0.66973 0.0
H1086 H 0.79948 0.20392 0.67425 0.0
H1087 H 0.79902 0.18956 0.75367 0.0
H1088 H 0.82294 0.21427 0.73049 0.0
H1089 H 0.82248 0.2301 0.85457 0.0
H1090 H 0.7986 0.20542 0.87823 0.0
H1091 H 0.79868 0.23049 0.88326 0.0
H1092 H 0.74066 0.22623 0.70221 0.0
H1093 H 0.71254 0.19017 0.74253 0.0
H1094 H 0.76173 0.17701 0.81856 0.0
C1095 C 0.82442 0.25702 0.72736 0.0
C1096 C 0.82693 0.27552 0.69261 0.0
C1097 C 0.80857 0.27668 0.67225 0.0
C1098 C 0.78787 0.2595 0.68548 0.0
C1099 C 0.78586 0.24133 0.71916 0.0
C1100 C 0.8036 0.23993 0.73985 0.0
C1101 C 0.79691 0.21843 0.7743 0.0
C1102 C 0.80507 0.2058 0.73055 0.0
C1103 C 0.80463 0.22129 0.85222 0.0
C1104 C 0.77265 0.20803 0.77011 0.0
C1105 C 0.76665 0.22155 0.73798 0.0
C1106 C 0.74514 0.21551 0.72745 0.0
C1107 C 0.72933 0.1951 0.75032 0.0
C1108 C 0.73517 0.18109 0.78319 0.0
C1109 C 0.75703 0.18759 0.79342 0.0
H1110 H 0.54499 0.80828 0.14979 0.0
H1111 H 0.5982 0.85228 0.2837 0.0
H1112 H 0.60262 0.82226 0.32618 0.0
H1113 H 0.52213 0.76374 0.26281 0.0
H1114 H 0.51621 0.74395 0.19414 0.0
H1115 H 0.51754 0.76893 0.17217 0.0
H1116 H 0.54626 0.77635 0.07527 0.0
H1117 H 0.5449 0.75126 0.09656 0.0
H1118 H 0.57034 0.77591 0.09931 0.0
H1119 H 0.59971 0.78728 0.36044 0.0
H1120 H 0.59155 0.74979 0.37667 0.0
H1121 H 0.54175 0.72866 0.21556 0.0
C1122 C 0.55791 0.8117 0.18667 0.0
C1123 C 0.57115 0.83263 0.21393 0.0
C1124 C 0.58763 0.83632 0.26309 0.0
C1125 C 0.59035 0.8194 0.28723 0.0
C1126 C 0.5768 0.79891 0.26038 0.0
C1127 C 0.56117 0.79502 0.21016 0.0
C1128 C 0.54892 0.77148 0.18952 0.0
C1129 C 0.52477 0.76144 0.20568 0.0
C1130 C 0.55284 0.76858 0.11048 0.0
C1131 C 0.55949 0.76263 0.23829 0.0
C1132 C 0.57563 0.77877 0.27836 0.0
C1133 C 0.58732 0.77453 0.32867 0.0
C1134 C 0.58254 0.75325 0.33777 0.0
C1135 C 0.56626 0.73652 0.29677 0.0
C1136 C 0.55455 0.74128 0.24661 0.0
H1137 H 0.82874 0.57966 0.84923 0.0
H1138 H 0.81637 0.51997 0.75135 0.0
H1139 H 0.78058 0.51311 0.71182 0.0
H1140 H 0.77251 0.56034 0.90836 0.0
H1141 H 0.77406 0.58565 0.88976 0.0
H1142 H 0.79787 0.58496 0.91586 0.0
H1143 H 0.8173 0.60587 0.80119 0.0
H1144 H 0.79356 0.60656 0.77462 0.0
H1145 H 0.80529 0.59543 0.7152 0.0
H1146 H 0.74727 0.51352 0.67846 0.0
H1147 H 0.71823 0.52124 0.65113 0.0
H1148 H 0.75218 0.5814 0.76677 0.0
C1149 C 0.81821 0.56498 0.82074 0.0
C1150 C 0.82494 0.55012 0.80385 0.0
C1151 C 0.81116 0.53128 0.76534 0.0
C1152 C 0.79091 0.52731 0.74273 0.0
C1153 C 0.78472 0.54235 0.7594 0.0
C1154 C 0.79786 0.56076 0.79779 0.0
C1155 C 0.7876 0.5747 0.80567 0.0
C1156 C 0.78272 0.57652 0.88461 0.0
C1157 C 0.80178 0.59695 0.77214 0.0
C1158 C 0.76702 0.5616 0.7636 0.0
C1159 C 0.76559 0.54286 0.7384 0.0
C1160 C 0.74822 0.52816 0.69774 0.0
C1161 C 0.73191 0.53279 0.68192 0.0
C1162 C 0.73323 0.55212 0.70555 0.0
C1163 C 0.75089 0.56657 0.74774 0.0
H1164 H 0.25382 0.82367 0.3529 0.0
H1165 H 0.29855 0.82255 0.19932 0.0
H1166 H 0.27 0.78761 0.15351 0.0
H1167 H 0.22442 0.76558 0.38767 0.0
H1168 H 0.19869 0.76412 0.39534 0.0
H1169 H 0.22291 0.78846 0.41947 0.0
H1170 H 0.21321 0.80997 0.33092 0.0
H1171 H 0.18897 0.78573 0.30679 0.0
H1172 H 0.20805 0.80175 0.23859 0.0
H1173 H 0.23741 0.75236 0.12821 0.0
H1174 H 0.20155 0.72068 0.11431 0.0
H1175 H 0.17611 0.74636 0.27269 0.0
C1176 C 0.25749 0.81594 0.30979 0.0
C1177 C 0.27826 0.8257 0.27919 0.0
C1178 C 0.28264 0.8153 0.22287 0.0
C1179 C 0.26659 0.79544 0.19691 0.0
C1180 C 0.24623 0.78622 0.22778 0.0
C1181 C 0.24151 0.79614 0.28256 0.0
C1182 C 0.218 0.783 0.30407 0.0
C1183 C 0.21588 0.77481 0.38122 0.0
C1184 C 0.20638 0.79589 0.29446 0.0
C1185 C 0.21014 0.76462 0.251 0.0
C1186 C 0.22688 0.76652 0.2092 0.0
C1187 C 0.22404 0.75096 0.15933 0.0
C1188 C 0.20345 0.73314 0.15101 0.0
C1189 C 0.18567 0.73133 0.19007 0.0
C1190 C 0.18923 0.74727 0.24138 0.0
H1191 H 0.46934 0.26801 0.84398 0.0
H1192 H 0.42198 0.26567 0.69489 0.0
H1193 H 0.41716 0.23193 0.64503 0.0
H1194 H 0.49349 0.24631 0.73569 0.0
H1195 H 0.49546 0.22952 0.80316 0.0
H1196 H 0.49528 0.25356 0.82876 0.0
H1197 H 0.46273 0.23147 0.9122 0.0
H1198 H 0.46295 0.20735 0.88742 0.0
H1199 H 0.4388 0.20886 0.87662 0.0
H1200 H 0.4199 0.20052 0.60309 0.0
H1201 H 0.42607 0.16993 0.58379 0.0
H1202 H 0.46815 0.18963 0.76809 0.0
C1203 C 0.45762 0.26016 0.80202 0.0
C1204 C 0.44649 0.26987 0.77197 0.0
C1205 C 0.43133 0.25903 0.71689 0.0
C1206 C 0.4283 0.23972 0.68858 0.0
C1207 C 0.43997 0.23092 0.71756 0.0
C1208 C 0.45386 0.24038 0.77441 0.0
C1209 C 0.46382 0.22698 0.79674 0.0
C1210 C 0.48848 0.23987 0.79068 0.0
C1211 C 0.45664 0.21814 0.87276 0.0
C1212 C 0.45404 0.20912 0.74157 0.0
C1213 C 0.44038 0.21178 0.69632 0.0
C1214 C 0.43025 0.198 0.63889 0.0
C1215 C 0.43391 0.1808 0.62801 0.0
C1216 C 0.44739 0.17746 0.67472 0.0
C1217 C 0.45756 0.19178 0.7322 0.0
loop_
_geom_bond_atom_site_label_1
_geom_bond_atom_site_label_2
_geom_bond_distance
_geom_bond_site_symmetry_2
_ccdc_geom_bond_type
Co0 O3 1.970 . S
Co0 N17 1.989 . S
Co0 O25 1.967 . S
Co0 O32 1.920 . S
Co1 O4 1.966 . S
Co1 N10 2.022 . S
Co1 N18 1.993 . S
Co1 O26 1.941 . S
C2 O3 1.258 . S
C2 O4 1.263 . S
O3 Co0 1.970 . S
O3 C2 1.258 . S
O4 Co1 1.966 . S
O4 C2 1.263 . S
C5 O6 1.235 . S
C5 O32 1.289 . S
O6 C5 1.235 . S
C7 C9 1.400 . S
C7 N10 1.351 . S
C7 C12 1.501 . S
C8 C9 1.387 . S
C8 N11 1.341 . S
C9 C7 1.400 . S
C9 C8 1.387 . S
N10 Co1 2.022 . S
N10 C7 1.351 . S
N10 N11 1.365 . S
N11 C8 1.341 . S
N11 N10 1.365 . S
N11 H31 0.862 . S
C12 C7 1.501 . S
C12 H13 0.961 . S
C12 H14 0.961 . S
C12 H15 0.960 . S
H13 C12 0.961 . S
H14 C12 0.961 . S
H15 C12 0.960 . S
C16 N17 1.342 . S
C16 C20 1.401 . S
C16 C21 1.499 . S
N17 Co0 1.989 . S
N17 C16 1.342 . S
N17 N18 1.388 . S
N18 Co1 1.993 . S
N18 N17 1.388 . S
N18 C19 1.346 . S
C19 N18 1.346 . S
C19 C20 1.396 . S
C19 C29 1.510 . S
C20 C16 1.401 . S
C20 C19 1.396 . S
C21 C16 1.499 . S
C21 H22 0.959 . S
C21 H23 0.960 . S
C21 H24 0.961 . S
H22 C21 0.959 . S
H23 C21 0.960 . S
H24 C21 0.961 . S
O25 Co0 1.967 . S
O25 C33 1.258 . S
O26 Co1 1.941 . S
O26 C33 1.266 . S
H27 C29 0.959 . S
H28 C29 0.961 . S
C29 C19 1.510 . S
C29 H27 0.959 . S
C29 H28 0.961 . S
C29 H30 0.960 . S
H30 C29 0.960 . S
H31 N11 0.862 . S
O32 Co0 1.920 . S
O32 C5 1.289 . S
C33 O25 1.258 . S
C33 O26 1.266 . S
Co34 O37 1.970 . S
Co34 N51 1.989 . S
Co34 O59 1.967 . S
Co34 O66 1.920 . S
Co35 O38 1.966 . S
Co35 N44 2.022 1_556 S
Co35 N52 1.993 . S
Co35 O60 1.941 . S
C36 O37 1.258 . S
C36 O38 1.263 . S
O37 Co34 1.970 . S
O37 C36 1.258 . S
O38 Co35 1.966 . S
O38 C36 1.263 . S
C39 O40 1.235 . S
C39 O66 1.289 . S
O40 C39 1.235 . S
C41 C43 1.400 . S
C41 N44 1.351 . S
C41 C46 1.501 . S
C42 C43 1.387 . S
C42 N45 1.341 . S
C43 C41 1.400 . S
C43 C42 1.387 . S
N44 Co35 2.022 1_554 S
N44 C41 1.351 . S
N44 N45 1.365 . S
N45 C42 1.341 . S
N45 N44 1.365 . S
N45 H65 0.862 . S
C46 C41 1.501 . S
C46 H47 0.961 . S
C46 H48 0.961 . S
C46 H49 0.960 . S
H47 C46 0.961 . S
H48 C46 0.961 . S
H49 C46 0.960 . S
C50 N51 1.342 . S
C50 C54 1.401 . S
C50 C55 1.499 . S
N51 Co34 1.989 . S
N51 C50 1.342 . S
N51 N52 1.388 . S
N52 Co35 1.993 . S
N52 N51 1.388 . S
N52 C53 1.346 . S
C53 N52 1.346 . S
C53 C54 1.396 . S
C53 C63 1.510 . S
C54 C50 1.401 . S
C54 C53 1.396 . S
C55 C50 1.499 . S
C55 H56 0.959 . S
C55 H57 0.960 . S
C55 H58 0.961 . S
H56 C55 0.959 . S
H57 C55 0.960 . S
H58 C55 0.961 . S
O59 Co34 1.967 . S
O59 C67 1.258 . S
O60 Co35 1.941 . S
O60 C67 1.266 . S
H61 C63 0.959 . S
H62 C63 0.961 . S
C63 C53 1.510 . S
C63 H61 0.959 . S
C63 H62 0.961 . S
C63 H64 0.960 1_556 S
H64 C63 0.960 1_554 S
H65 N45 0.862 . S
O66 Co34 1.920 . S
O66 C39 1.289 . S
C67 O59 1.258 . S
C67 O60 1.266 . S
Co68 O71 1.970 . S
Co68 N85 1.989 . S
Co68 O93 1.967 . S
Co68 O100 1.920 . S
Co69 O72 1.966 . S
Co69 N78 2.022 . S
Co69 N86 1.993 . S
Co69 O94 1.941 . S
C70 O71 1.258 . S
C70 O72 1.263 . S
O71 Co68 1.970 . S
O71 C70 1.258 . S
O72 Co69 1.966 . S
O72 C70 1.263 . S
C73 O74 1.235 . S
C73 O100 1.289 . S
O74 C73 1.235 . S
C75 C77 1.400 . S
C75 N78 1.351 . S
C75 C80 1.501 . S
C76 C77 1.387 . S
C76 N79 1.341 . S
C77 C75 1.400 . S
C77 C76 1.387 . S
N78 Co69 2.022 . S
N78 C75 1.351 . S
N78 N79 1.365 . S
N79 C76 1.341 . S
N79 N78 1.365 . S
N79 H99 0.862 . S
C80 C75 1.501 . S
C80 H81 0.961 . S
C80 H82 0.961 . S
C80 H83 0.960 . S
H81 C80 0.961 . S
H82 C80 0.961 . S
H83 C80 0.960 . S
C84 N85 1.342 . S
C84 C88 1.401 . S
C84 C89 1.499 . S
N85 Co68 1.989 . S
N85 C84 1.342 . S
N85 N86 1.388 . S
N86 Co69 1.993 . S
N86 N85 1.388 . S
N86 C87 1.346 . S
C87 N86 1.346 . S
C87 C88 1.396 . S
C87 C97 1.510 . S
C88 C84 1.401 . S
C88 C87 1.396 . S
C89 C84 1.499 . S
C89 H90 0.959 . S
C89 H91 0.960 . S
C89 H92 0.961 . S
H90 C89 0.959 . S
H91 C89 0.960 . S
H92 C89 0.961 . S
O93 Co68 1.967 . S
O93 C101 1.258 . S
O94 Co69 1.941 . S
O94 C101 1.266 . S
H95 C97 0.959 . S
H96 C97 0.961 . S
C97 C87 1.510 . S
C97 H95 0.959 . S
C97 H96 0.961 . S
C97 H98 0.960 . S
H98 C97 0.960 . S
H99 N79 0.862 . S
O100 Co68 1.920 . S
O100 C73 1.289 . S
C101 O93 1.258 . S
C101 O94 1.266 . S
Co102 O105 1.970 . S
Co102 N119 1.989 . S
Co102 O127 1.967 . S
Co102 O134 1.920 . S
Co103 O106 1.966 . S
Co103 N112 2.022 1_556 S
Co103 N120 1.993 . S
Co103 O128 1.941 . S
C104 O105 1.258 . S
C104 O106 1.263 . S
O105 Co102 1.970 . S
O105 C104 1.258 . S
O106 Co103 1.966 . S
O106 C104 1.263 . S
C107 O108 1.235 . S
C107 O134 1.289 . S
O108 C107 1.235 . S
C109 C111 1.400 . S
C109 N112 1.351 . S
C109 C114 1.501 . S
C110 C111 1.387 . S
C110 N113 1.341 . S
C111 C109 1.400 . S
C111 C110 1.387 . S
N112 Co103 2.022 1_554 S
N112 C109 1.351 . S
N112 N113 1.365 . S
N113 C110 1.341 . S
N113 N112 1.365 . S
N113 H133 0.862 . S
C114 C109 1.501 . S
C114 H115 0.961 . S
C114 H116 0.961 . S
C114 H117 0.960 . S
H115 C114 0.961 . S
H116 C114 0.961 . S
H117 C114 0.960 . S
C118 N119 1.342 . S
C118 C122 1.401 . S
C118 C123 1.499 . S
N119 Co102 1.989 . S
N119 C118 1.342 . S
N119 N120 1.388 . S
N120 Co103 1.993 . S
N120 N119 1.388 . S
N120 C121 1.346 . S
C121 N120 1.346 . S
C121 C122 1.396 . S
C121 C131 1.510 . S
C122 C118 1.401 . S
C122 C121 1.396 . S
C123 C118 1.499 . S
C123 H124 0.959 . S
C123 H125 0.960 . S
C123 H126 0.961 . S
H124 C123 0.959 . S
H125 C123 0.960 . S
H126 C123 0.961 . S
O127 Co102 1.967 . S
O127 C135 1.258 . S
O128 Co103 1.941 . S
O128 C135 1.266 . S
H129 C131 0.959 . S
H130 C131 0.961 . S
C131 C121 1.510 . S
C131 H129 0.959 . S
C131 H130 0.961 . S
C131 H132 0.960 1_556 S
H132 C131 0.960 1_554 S
H133 N113 0.862 . S
O134 Co102 1.920 . S
O134 C107 1.289 . S
C135 O127 1.258 . S
C135 O128 1.266 . S
Co136 O139 1.970 . S
Co136 N153 1.989 . S
Co136 O161 1.967 . S
Co136 O168 1.920 . S
Co137 O140 1.966 . S
Co137 N146 2.022 . S
Co137 N154 1.993 . S
Co137 O162 1.941 . S
C138 O139 1.258 . S
C138 O140 1.263 . S
O139 Co136 1.970 . S
O139 C138 1.258 . S
O140 Co137 1.966 . S
O140 C138 1.263 . S
C141 O142 1.235 . S
C141 O168 1.289 . S
O142 C141 1.235 . S
C143 C145 1.400 . S
C143 N146 1.351 . S
C143 C148 1.501 . S
C144 C145 1.387 . S
C144 N147 1.341 . S
C145 C143 1.400 . S
C145 C144 1.387 . S
N146 Co137 2.022 . S
N146 C143 1.351 . S
N146 N147 1.365 . S
N147 C144 1.341 . S
N147 N146 1.365 . S
N147 H167 0.862 . S
C148 C143 1.501 . S
C148 H149 0.961 . S
C148 H150 0.961 . S
C148 H151 0.960 . S
H149 C148 0.961 . S
H150 C148 0.961 . S
H151 C148 0.960 . S
C152 N153 1.342 . S
C152 C156 1.401 . S
C152 C157 1.499 . S
N153 Co136 1.989 . S
N153 C152 1.342 . S
N153 N154 1.388 . S
N154 Co137 1.993 . S
N154 N153 1.388 . S
N154 C155 1.346 . S
C155 N154 1.346 . S
C155 C156 1.396 . S
C155 C165 1.510 . S
C156 C152 1.401 . S
C156 C155 1.396 . S
C157 C152 1.499 . S
C157 H158 0.959 . S
C157 H159 0.960 . S
C157 H160 0.961 . S
H158 C157 0.959 . S
H159 C157 0.960 . S
H160 C157 0.961 . S
O161 Co136 1.967 . S
O161 C169 1.258 . S
O162 Co137 1.941 . S
O162 C169 1.266 . S
H163 C165 0.959 . S
H164 C165 0.961 . S
C165 C155 1.510 . S
C165 H163 0.959 . S
C165 H164 0.961 . S
C165 H166 0.960 . S
H166 C165 0.960 . S
H167 N147 0.862 . S
O168 Co136 1.920 . S
O168 C141 1.289 . S
C169 O161 1.258 . S
C169 O162 1.266 . S
Co170 O173 1.970 . S
Co170 N187 1.989 . S
Co170 O195 1.967 . S
Co170 O202 1.920 . S
Co171 O174 1.966 . S
Co171 N180 2.022 1_556 S
Co171 N188 1.993 . S
Co171 O196 1.941 . S
C172 O173 1.258 . S
C172 O174 1.263 . S
O173 Co170 1.970 . S
O173 C172 1.258 . S
O174 Co171 1.966 . S
O174 C172 1.263 . S
C175 O176 1.235 . S
C175 O202 1.289 . S
O176 C175 1.235 . S
C177 C179 1.400 . S
C177 N180 1.351 . S
C177 C182 1.501 . S
C178 C179 1.387 . S
C178 N181 1.341 . S
C179 C177 1.400 . S
C179 C178 1.387 . S
N180 Co171 2.022 1_554 S
N180 C177 1.351 . S
N180 N181 1.365 . S
N181 C178 1.341 . S
N181 N180 1.365 . S
N181 H201 0.862 . S
C182 C177 1.501 . S
C182 H183 0.961 . S
C182 H184 0.961 . S
C182 H185 0.960 . S
H183 C182 0.961 . S
H184 C182 0.961 . S
H185 C182 0.960 . S
C186 N187 1.342 . S
C186 C190 1.401 . S
C186 C191 1.499 . S
N187 Co170 1.989 . S
N187 C186 1.342 . S
N187 N188 1.388 . S
N188 Co171 1.993 . S
N188 N187 1.388 . S
N188 C189 1.346 . S
C189 N188 1.346 . S
C189 C190 1.396 . S
C189 C199 1.510 . S
C190 C186 1.401 . S
C190 C189 1.396 . S
C191 C186 1.499 . S
C191 H192 0.959 . S
C191 H193 0.960 . S
C191 H194 0.961 . S
H192 C191 0.959 . S
H193 C191 0.960 . S
H194 C191 0.961 . S
O195 Co170 1.967 . S
O195 C203 1.258 . S
O196 Co171 1.941 . S
O196 C203 1.266 . S
H197 C199 0.959 . S
H198 C199 0.961 . S
C199 C189 1.510 . S
C199 H197 0.959 . S
C199 H198 0.961 . S
C199 H200 0.960 1_556 S
H200 C199 0.960 1_554 S
H201 N181 0.862 . S
O202 Co170 1.920 . S
O202 C175 1.289 . S
C203 O195 1.258 . S
C203 O196 1.266 . S
Co204 O207 1.970 . S
Co204 N221 1.989 . S
Co204 O229 1.967 . S
Co204 O236 1.920 . S
Co205 O208 1.966 . S
Co205 N214 2.022 1_554 S
Co205 N222 1.993 . S
Co205 O230 1.941 . S
C206 O207 1.258 . S
C206 O208 1.263 . S
O207 Co204 1.970 . S
O207 C206 1.258 . S
O208 Co205 1.966 . S
O208 C206 1.263 . S
C209 O210 1.235 . S
C209 O236 1.289 . S
O210 C209 1.235 . S
C211 C213 1.400 . S
C211 N214 1.351 . S
C211 C216 1.501 . S
C212 C213 1.387 . S
C212 N215 1.341 . S
C213 C211 1.400 . S
C213 C212 1.387 . S
N214 Co205 2.022 1_556 S
N214 C211 1.351 . S
N214 N215 1.365 . S
N215 C212 1.341 . S
N215 N214 1.365 . S
N215 H235 0.862 . S
C216 C211 1.501 . S
C216 H217 0.961 . S
C216 H218 0.961 . S
C216 H219 0.960 . S
H217 C216 0.961 . S
H218 C216 0.961 . S
H219 C216 0.960 . S
C220 N221 1.342 . S
C220 C224 1.401 . S
C220 C225 1.499 . S
N221 Co204 1.989 . S
N221 C220 1.342 . S
N221 N222 1.388 . S
N222 Co205 1.993 . S
N222 N221 1.388 . S
N222 C223 1.346 . S
C223 N222 1.346 . S
C223 C224 1.396 . S
C223 C233 1.510 . S
C224 C220 1.401 . S
C224 C223 1.396 . S
C225 C220 1.499 . S
C225 H226 0.959 . S
C225 H227 0.960 . S
C225 H228 0.961 . S
H226 C225 0.959 . S
H227 C225 0.960 . S
H228 C225 0.961 . S
O229 Co204 1.967 . S
O229 C237 1.258 . S
O230 Co205 1.941 . S
O230 C237 1.266 . S
H231 C233 0.959 . S
H232 C233 0.961 . S
C233 C223 1.510 . S
C233 H231 0.959 . S
C233 H232 0.961 . S
C233 H234 0.960 1_554 S
H234 C233 0.960 1_556 S
H235 N215 0.862 . S
O236 Co204 1.920 . S
O236 C209 1.289 . S
C237 O229 1.258 . S
C237 O230 1.266 . S
Co238 O241 1.970 . S
Co238 N255 1.989 . S
Co238 O263 1.967 . S
Co238 O270 1.920 . S
Co239 O242 1.966 . S
Co239 N248 2.022 . S
Co239 N256 1.993 . S
Co239 O264 1.941 . S
C240 O241 1.258 . S
C240 O242 1.263 . S
O241 Co238 1.970 . S
O241 C240 1.258 . S
O242 Co239 1.966 . S
O242 C240 1.263 . S
C243 O244 1.235 . S
C243 O270 1.289 . S
O244 C243 1.235 . S
C245 C247 1.400 . S
C245 N248 1.351 . S
C245 C250 1.501 . S
C246 C247 1.387 . S
C246 N249 1.341 . S
C247 C245 1.400 . S
C247 C246 1.387 . S
N248 Co239 2.022 . S
N248 C245 1.351 . S
N248 N249 1.365 . S
N249 C246 1.341 . S
N249 N248 1.365 . S
N249 H269 0.862 . S
C250 C245 1.501 . S
C250 H251 0.961 . S
C250 H252 0.961 . S
C250 H253 0.960 . S
H251 C250 0.961 . S
H252 C250 0.961 . S
H253 C250 0.960 . S
C254 N255 1.342 . S
C254 C258 1.401 . S
C254 C259 1.499 . S
N255 Co238 1.989 . S
N255 C254 1.342 . S
N255 N256 1.388 . S
N256 Co239 1.993 . S
N256 N255 1.388 . S
N256 C257 1.346 . S
C257 N256 1.346 . S
C257 C258 1.396 . S
C257 C267 1.510 . S
C258 C254 1.401 . S
C258 C257 1.396 . S
C259 C254 1.499 . S
C259 H260 0.959 . S
C259 H261 0.960 . S
C259 H262 0.961 . S
H260 C259 0.959 . S
H261 C259 0.960 . S
H262 C259 0.961 . S
O263 Co238 1.967 . S
O263 C271 1.258 . S
O264 Co239 1.941 . S
O264 C271 1.266 . S
H265 C267 0.959 . S
H266 C267 0.961 . S
C267 C257 1.510 . S
C267 H265 0.959 . S
C267 H266 0.961 . S
C267 H268 0.960 . S
H268 C267 0.960 . S
H269 N249 0.862 . S
O270 Co238 1.920 . S
O270 C243 1.289 . S
C271 O263 1.258 . S
C271 O264 1.266 . S
Co272 O275 1.970 . S
Co272 N289 1.989 . S
Co272 O297 1.967 . S
Co272 O304 1.920 . S
Co273 O276 1.966 . S
Co273 N282 2.022 1_554 S
Co273 N290 1.993 . S
Co273 O298 1.941 . S
C274 O275 1.258 . S
C274 O276 1.263 . S
O275 Co272 1.970 . S
O275 C274 1.258 . S
O276 Co273 1.966 . S
O276 C274 1.263 . S
C277 O278 1.235 . S
C277 O304 1.289 . S
O278 C277 1.235 . S
C279 C281 1.400 . S
C279 N282 1.351 . S
C279 C284 1.501 . S
C280 C281 1.387 . S
C280 N283 1.341 . S
C281 C279 1.400 . S
C281 C280 1.387 . S
N282 Co273 2.022 1_556 S
N282 C279 1.351 . S
N282 N283 1.365 . S
N283 C280 1.341 . S
N283 N282 1.365 . S
N283 H303 0.862 . S
C284 C279 1.501 . S
C284 H285 0.961 . S
C284 H286 0.961 . S
C284 H287 0.960 . S
H285 C284 0.961 . S
H286 C284 0.961 . S
H287 C284 0.960 . S
C288 N289 1.342 . S
C288 C292 1.401 . S
C288 C293 1.499 . S
N289 Co272 1.989 . S
N289 C288 1.342 . S
N289 N290 1.388 . S
N290 Co273 1.993 . S
N290 N289 1.388 . S
N290 C291 1.346 . S
C291 N290 1.346 . S
C291 C292 1.396 . S
C291 C301 1.510 . S
C292 C288 1.401 . S
C292 C291 1.396 . S
C293 C288 1.499 . S
C293 H294 0.959 . S
C293 H295 0.960 . S
C293 H296 0.961 . S
H294 C293 0.959 . S
H295 C293 0.960 . S
H296 C293 0.961 . S
O297 Co272 1.967 . S
O297 C305 1.258 . S
O298 Co273 1.941 . S
O298 C305 1.266 . S
H299 C301 0.959 . S
H300 C301 0.961 . S
C301 C291 1.510 . S
C301 H299 0.959 . S
C301 H300 0.961 . S
C301 H302 0.960 1_554 S
H302 C301 0.960 1_556 S
H303 N283 0.862 . S
O304 Co272 1.920 . S
O304 C277 1.289 . S
C305 O297 1.258 . S
C305 O298 1.266 . S
Co306 O309 1.970 . S
Co306 N323 1.989 . S
Co306 O331 1.967 . S
Co306 O338 1.920 . S
Co307 O310 1.966 . S
Co307 N316 2.022 . S
Co307 N324 1.993 . S
Co307 O332 1.941 . S
C308 O309 1.258 . S
C308 O310 1.263 . S
O309 Co306 1.970 . S
O309 C308 1.258 . S
O310 Co307 1.966 . S
O310 C308 1.263 . S
C311 O312 1.235 . S
C311 O338 1.289 . S
O312 C311 1.235 . S
C313 C315 1.400 . S
C313 N316 1.351 . S
C313 C318 1.501 . S
C314 C315 1.387 . S
C314 N317 1.341 . S
C315 C313 1.400 . S
C315 C314 1.387 . S
N316 Co307 2.022 . S
N316 C313 1.351 . S
N316 N317 1.365 . S
N317 C314 1.341 . S
N317 N316 1.365 . S
N317 H337 0.862 . S
C318 C313 1.501 . S
C318 H319 0.961 . S
C318 H320 0.961 . S
C318 H321 0.960 . S
H319 C318 0.961 . S
H320 C318 0.961 . S
H321 C318 0.960 . S
C322 N323 1.342 . S
C322 C326 1.401 . S
C322 C327 1.499 . S
N323 Co306 1.989 . S
N323 C322 1.342 . S
N323 N324 1.388 . S
N324 Co307 1.993 . S
N324 N323 1.388 . S
N324 C325 1.346 . S
C325 N324 1.346 . S
C325 C326 1.396 . S
C325 C335 1.510 . S
C326 C322 1.401 . S
C326 C325 1.396 . S
C327 C322 1.499 . S
C327 H328 0.959 . S
C327 H329 0.960 . S
C327 H330 0.961 . S
H328 C327 0.959 . S
H329 C327 0.960 . S
H330 C327 0.961 . S
O331 Co306 1.967 . S
O331 C339 1.258 . S
O332 Co307 1.941 . S
O332 C339 1.266 . S
H333 C335 0.959 . S
H334 C335 0.961 . S
C335 C325 1.510 . S
C335 H333 0.959 . S
C335 H334 0.961 . S
C335 H336 0.960 . S
H336 C335 0.960 . S
H337 N317 0.862 . S
O338 Co306 1.920 . S
O338 C311 1.289 . S
C339 O331 1.258 . S
C339 O332 1.266 . S
Co340 O343 1.970 . S
Co340 N357 1.989 . S
Co340 O365 1.967 . S
Co340 O372 1.920 . S
Co341 O344 1.966 . S
Co341 N350 2.022 1_554 S
Co341 N358 1.993 . S
Co341 O366 1.941 . S
C342 O343 1.258 . S
C342 O344 1.263 . S
O343 Co340 1.970 . S
O343 C342 1.258 . S
O344 Co341 1.966 . S
O344 C342 1.263 . S
C345 O346 1.235 . S
C345 O372 1.289 . S
O346 C345 1.235 . S
C347 C349 1.400 . S
C347 N350 1.351 . S
C347 C352 1.501 . S
C348 C349 1.387 . S
C348 N351 1.341 . S
C349 C347 1.400 . S
C349 C348 1.387 . S
N350 Co341 2.022 1_556 S
N350 C347 1.351 . S
N350 N351 1.365 . S
N351 C348 1.341 . S
N351 N350 1.365 . S
N351 H371 0.862 . S
C352 C347 1.501 . S
C352 H353 0.961 . S
C352 H354 0.961 . S
C352 H355 0.960 . S
H353 C352 0.961 . S
H354 C352 0.961 . S
H355 C352 0.960 . S
C356 N357 1.342 . S
C356 C360 1.401 . S
C356 C361 1.499 . S
N357 Co340 1.989 . S
N357 C356 1.342 . S
N357 N358 1.388 . S
N358 Co341 1.993 . S
N358 N357 1.388 . S
N358 C359 1.346 . S
C359 N358 1.346 . S
C359 C360 1.396 . S
C359 C369 1.510 . S
C360 C356 1.401 . S
C360 C359 1.396 . S
C361 C356 1.499 . S
C361 H362 0.959 . S
C361 H363 0.960 . S
C361 H364 0.961 . S
H362 C361 0.959 . S
H363 C361 0.960 . S
H364 C361 0.961 . S
O365 Co340 1.967 . S
O365 C373 1.258 . S
O366 Co341 1.941 . S
O366 C373 1.266 . S
H367 C369 0.959 . S
H368 C369 0.961 . S
C369 C359 1.510 . S
C369 H367 0.959 . S
C369 H368 0.961 . S
C369 H370 0.960 1_554 S
H370 C369 0.960 1_556 S
H371 N351 0.862 . S
O372 Co340 1.920 . S
O372 C345 1.289 . S
C373 O365 1.258 . S
C373 O366 1.266 . S
Co374 O377 1.970 . S
Co374 N391 1.989 . S
Co374 O399 1.967 . S
Co374 O406 1.920 . S
Co375 O378 1.966 . S
Co375 N384 2.022 . S
Co375 N392 1.993 . S
Co375 O400 1.941 . S
C376 O377 1.258 . S
C376 O378 1.263 . S
O377 Co374 1.970 . S
O377 C376 1.258 . S
O378 Co375 1.966 . S
O378 C376 1.263 . S
C379 O380 1.235 . S
C379 O406 1.289 . S
O380 C379 1.235 . S
C381 C383 1.400 . S
C381 N384 1.351 . S
C381 C386 1.501 . S
C382 C383 1.387 . S
C382 N385 1.341 . S
C383 C381 1.400 . S
C383 C382 1.387 . S
N384 Co375 2.022 . S
N384 C381 1.351 . S
N384 N385 1.365 . S
N385 C382 1.341 . S
N385 N384 1.365 . S
N385 H405 0.862 . S
C386 C381 1.501 . S
C386 H387 0.961 . S
C386 H388 0.961 . S
C386 H389 0.960 . S
H387 C386 0.961 . S
H388 C386 0.961 . S
H389 C386 0.960 . S
C390 N391 1.342 . S
C390 C394 1.401 . S
C390 C395 1.499 . S
N391 Co374 1.989 . S
N391 C390 1.342 . S
N391 N392 1.388 . S
N392 Co375 1.993 . S
N392 N391 1.388 . S
N392 C393 1.346 . S
C393 N392 1.346 . S
C393 C394 1.396 . S
C393 C403 1.510 . S
C394 C390 1.401 . S
C394 C393 1.396 . S
C395 C390 1.499 . S
C395 H396 0.959 . S
C395 H397 0.960 . S
C395 H398 0.961 . S
H396 C395 0.959 . S
H397 C395 0.960 . S
H398 C395 0.961 . S
O399 Co374 1.967 . S
O399 C407 1.258 . S
O400 Co375 1.941 . S
O400 C407 1.266 . S
H401 C403 0.959 . S
H402 C403 0.961 . S
C403 C393 1.510 . S
C403 H401 0.959 . S
C403 H402 0.961 . S
C403 H404 0.960 . S
H404 C403 0.960 . S
H405 N385 0.862 . S
O406 Co374 1.920 . S
O406 C379 1.289 . S
C407 O399 1.258 . S
C407 O400 1.266 . S
H408 C420 0.930 . S
H409 C422 0.930 . S
H410 C423 0.930 . S
H411 C427 0.959 . S
H412 C427 0.959 . S
H413 C427 0.961 . S
H414 C428 0.960 . S
H415 C428 0.961 . S
H416 C428 0.959 . S
H417 C431 0.929 1_455 S
H418 C432 0.931 . S
H419 C434 0.930 . S
C420 H408 0.930 . S
C420 C421 1.399 . S
C420 C425 1.399 . S
C421 C420 1.399 . S
C421 C422 1.376 . S
C422 H409 0.930 . S
C422 C421 1.376 . S
C422 C423 1.388 . S
C423 H410 0.930 . S
C423 C422 1.388 . S
C423 C424 1.390 . S
C424 C423 1.390 . S
C424 C425 1.394 . S
C424 C430 1.465 1_455 S
C425 C420 1.399 . S
C425 C424 1.394 . S
C425 C426 1.516 1_455 S
C426 C425 1.516 1_655 S
C426 C427 1.502 . S
C426 C428 1.561 . S
C426 C429 1.526 . S
C427 H411 0.959 . S
C427 H412 0.959 . S
C427 H413 0.961 . S
C427 C426 1.502 . S
C428 H414 0.960 . S
C428 H415 0.961 . S
C428 H416 0.959 . S
C428 C426 1.561 . S
C429 C426 1.526 . S
C429 C430 1.396 . S
C429 C434 1.390 . S
C430 C424 1.465 1_655 S
C430 C429 1.396 . S
C430 C431 1.399 . S
C431 H417 0.929 1_655 S
C431 C430 1.399 . S
C431 C432 1.385 . S
C432 H418 0.931 . S
C432 C431 1.385 . S
C432 C433 1.389 . S
C433 C432 1.389 . S
C433 C434 1.387 . S
C434 H419 0.930 . S
C434 C429 1.390 . S
C434 C433 1.387 . S
H435 C447 0.930 . S
H436 C449 0.930 . S
H437 C450 0.930 . S
H438 C454 0.959 . S
H439 C454 0.959 . S
H440 C454 0.961 . S
H441 C455 0.960 . S
H442 C455 0.961 . S
H443 C455 0.959 . S
H444 C458 0.929 1_545 S
H445 C459 0.931 . S
H446 C461 0.930 . S
C447 H435 0.930 . S
C447 C448 1.399 . S
C447 C452 1.399 . S
C448 C447 1.399 . S
C448 C449 1.376 . S
C449 H436 0.930 . S
C449 C448 1.376 . S
C449 C450 1.388 1_556 S
C450 H437 0.930 . S
C450 C449 1.388 1_554 S
C450 C451 1.390 . S
C451 C450 1.390 . S
C451 C452 1.394 1_554 S
C451 C457 1.465 1_545 S
C452 C447 1.399 . S
C452 C451 1.394 1_556 S
C452 C453 1.516 1_545 S
C453 C452 1.516 1_565 S
C453 C454 1.502 . S
C453 C455 1.561 . S
C453 C456 1.526 1_556 S
C454 H438 0.959 . S
C454 H439 0.959 . S
C454 H440 0.961 . S
C454 C453 1.502 . S
C455 H441 0.960 . S
C455 H442 0.961 . S
C455 H443 0.959 . S
C455 C453 1.561 . S
C456 C453 1.526 1_554 S
C456 C457 1.396 . S
C456 C461 1.390 . S
C457 C451 1.465 1_565 S
C457 C456 1.396 . S
C457 C458 1.399 . S
C458 H444 0.929 1_565 S
C458 C457 1.399 . S
C458 C459 1.385 . S
C459 H445 0.931 . S
C459 C458 1.385 . S
C459 C460 1.389 . S
C460 C459 1.389 . S
C460 C461 1.387 . S
C461 H446 0.930 . S
C461 C456 1.390 . S
C461 C460 1.387 . S
H462 C474 0.930 . S
H463 C476 0.930 . S
H464 C477 0.930 . S
H465 C481 0.959 . S
H466 C481 0.959 . S
H467 C481 0.961 . S
H468 C482 0.960 . S
H469 C482 0.961 . S
H470 C482 0.959 . S
H471 C485 0.929 . S
H472 C486 0.931 . S
H473 C488 0.930 . S
C474 H462 0.930 . S
C474 C475 1.399 . S
C474 C479 1.399 . S
C475 C474 1.399 . S
C475 C476 1.376 . S
C476 H463 0.930 . S
C476 C475 1.376 . S
C476 C477 1.388 . S
C477 H464 0.930 . S
C477 C476 1.388 . S
C477 C478 1.390 . S
C478 C477 1.390 . S
C478 C479 1.394 . S
C478 C484 1.465 . S
C479 C474 1.399 . S
C479 C478 1.394 . S
C479 C480 1.516 . S
C480 C479 1.516 . S
C480 C481 1.502 . S
C480 C482 1.561 . S
C480 C483 1.526 . S
C481 H465 0.959 . S
C481 H466 0.959 . S
C481 H467 0.961 . S
C481 C480 1.502 . S
C482 H468 0.960 . S
C482 H469 0.961 . S
C482 H470 0.959 . S
C482 C480 1.561 . S
C483 C480 1.526 . S
C483 C484 1.396 . S
C483 C488 1.390 . S
C484 C478 1.465 . S
C484 C483 1.396 . S
C484 C485 1.399 . S
C485 H471 0.929 . S
C485 C484 1.399 . S
C485 C486 1.385 . S
C486 H472 0.931 . S
C486 C485 1.385 . S
C486 C487 1.389 . S
C487 C486 1.389 . S
C487 C488 1.387 . S
C488 H473 0.930 . S
C488 C483 1.390 . S
C488 C487 1.387 . S
H489 C501 0.930 . S
H490 C503 0.930 . S
H491 C504 0.930 . S
H492 C508 0.959 . S
H493 C508 0.959 1_655 S
H494 C508 0.961 . S
H495 C509 0.960 . S
H496 C509 0.961 . S
H497 C509 0.959 . S
H498 C512 0.929 . S
H499 C513 0.931 . S
H500 C515 0.930 . S
C501 H489 0.930 . S
C501 C502 1.399 . S
C501 C506 1.399 . S
C502 C501 1.399 . S
C502 C503 1.376 . S
C503 H490 0.930 . S
C503 C502 1.376 . S
C503 C504 1.388 . S
C504 H491 0.930 . S
C504 C503 1.388 . S
C504 C505 1.390 . S
C505 C504 1.390 . S
C505 C506 1.394 . S
C505 C511 1.465 1_454 S
C506 C501 1.399 . S
C506 C505 1.394 . S
C506 C507 1.516 1_455 S
C507 C506 1.516 1_655 S
C507 C508 1.502 1_654 S
C507 C509 1.561 . S
C507 C510 1.526 1_554 S
C508 H492 0.959 . S
C508 H493 0.959 1_455 S
C508 H494 0.961 . S
C508 C507 1.502 1_456 S
C509 H495 0.960 . S
C509 H496 0.961 . S
C509 H497 0.959 . S
C509 C507 1.561 . S
C510 C507 1.526 1_556 S
C510 C511 1.396 . S
C510 C515 1.390 . S
C511 C505 1.465 1_656 S
C511 C510 1.396 . S
C511 C512 1.399 . S
C512 H498 0.929 . S
C512 C511 1.399 . S
C512 C513 1.385 . S
C513 H499 0.931 . S
C513 C512 1.385 . S
C513 C514 1.389 . S
C514 C513 1.389 . S
C514 C515 1.387 . S
C515 H500 0.930 . S
C515 C510 1.390 . S
C515 C514 1.387 . S
H516 C528 0.930 . S
H517 C530 0.930 . S
H518 C531 0.930 1_565 S
H519 C535 0.959 . S
H520 C535 0.959 . S
H521 C535 0.961 . S
H522 C536 0.960 . S
H523 C536 0.961 . S
H524 C536 0.959 . S
H525 C539 0.929 . S
H526 C540 0.931 . S
H527 C542 0.930 . S
C528 H516 0.930 . S
C528 C529 1.399 . S
C528 C533 1.399 . S
C529 C528 1.399 . S
C529 C530 1.376 . S
C530 H517 0.930 . S
C530 C529 1.376 . S
C530 C531 1.388 . S
C531 H518 0.930 1_545 S
C531 C530 1.388 . S
C531 C532 1.390 . S
C532 C531 1.390 . S
C532 C533 1.394 . S
C532 C538 1.465 1_545 S
C533 C528 1.399 . S
C533 C532 1.394 . S
C533 C534 1.516 . S
C534 C533 1.516 . S
C534 C535 1.502 . S
C534 C536 1.561 . S
C534 C537 1.526 1_545 S
C535 H519 0.959 . S
C535 H520 0.959 . S
C535 H521 0.961 . S
C535 C534 1.502 . S
C536 H522 0.960 . S
C536 H523 0.961 . S
C536 H524 0.959 . S
C536 C534 1.561 . S
C537 C534 1.526 1_565 S
C537 C538 1.396 . S
C537 C542 1.390 . S
C538 C532 1.465 1_565 S
C538 C537 1.396 . S
C538 C539 1.399 . S
C539 H525 0.929 . S
C539 C538 1.399 . S
C539 C540 1.385 . S
C540 H526 0.931 . S
C540 C539 1.385 . S
C540 C541 1.389 . S
C541 C540 1.389 . S
C541 C542 1.387 . S
C542 H527 0.930 . S
C542 C537 1.390 . S
C542 C541 1.387 . S
H543 C555 0.930 . S
H544 C557 0.930 . S
H545 C558 0.930 . S
H546 C562 0.959 . S
H547 C562 0.959 . S
H548 C562 0.961 . S
H549 C563 0.960 . S
H550 C563 0.961 . S
H551 C563 0.959 . S
H552 C566 0.929 . S
H553 C567 0.931 . S
H554 C569 0.930 . S
C555 H543 0.930 . S
C555 C556 1.399 . S
C555 C560 1.399 . S
C556 C555 1.399 . S
C556 C557 1.376 . S
C557 H544 0.930 . S
C557 C556 1.376 . S
C557 C558 1.388 1_556 S
C558 H545 0.930 . S
C558 C557 1.388 1_554 S
C558 C559 1.390 . S
C559 C558 1.390 . S
C559 C560 1.394 1_554 S
C559 C565 1.465 . S
C560 C555 1.399 . S
C560 C559 1.394 1_556 S
C560 C561 1.516 . S
C561 C560 1.516 . S
C561 C562 1.502 . S
C561 C563 1.561 . S
C561 C564 1.526 1_556 S
C562 H546 0.959 . S
C562 H547 0.959 . S
C562 H548 0.961 . S
C562 C561 1.502 . S
C563 H549 0.960 . S
C563 H550 0.961 . S
C563 H551 0.959 . S
C563 C561 1.561 . S
C564 C561 1.526 1_554 S
C564 C565 1.396 . S
C564 C569 1.390 . S
C565 C559 1.465 . S
C565 C564 1.396 . S
C565 C566 1.399 . S
C566 H552 0.929 . S
C566 C565 1.399 . S
C566 C567 1.385 . S
C567 H553 0.931 . S
C567 C566 1.385 . S
C567 C568 1.389 . S
C568 C567 1.389 . S
C568 C569 1.387 . S
C569 H554 0.930 . S
C569 C564 1.390 . S
C569 C568 1.387 . S
H570 C582 0.930 . S
H571 C584 0.930 . S
H572 C585 0.930 . S
H573 C589 0.959 . S
H574 C589 0.959 . S
H575 C589 0.961 . S
H576 C590 0.960 . S
H577 C590 0.961 . S
H578 C590 0.959 . S
H579 C593 0.929 . S
H580 C594 0.931 . S
H581 C596 0.930 . S
C582 H570 0.930 . S
C582 C583 1.399 . S
C582 C587 1.399 . S
C583 C582 1.399 . S
C583 C584 1.376 . S
C584 H571 0.930 . S
C584 C583 1.376 . S
C584 C585 1.388 . S
C585 H572 0.930 . S
C585 C584 1.388 . S
C585 C586 1.390 . S
C586 C585 1.390 . S
C586 C587 1.394 . S
C586 C592 1.465 . S
C587 C582 1.399 . S
C587 C586 1.394 . S
C587 C588 1.516 . S
C588 C587 1.516 . S
C588 C589 1.502 . S
C588 C590 1.561 . S
C588 C591 1.526 . S
C589 H573 0.959 . S
C589 H574 0.959 . S
C589 H575 0.961 . S
C589 C588 1.502 . S
C590 H576 0.960 . S
C590 H577 0.961 . S
C590 H578 0.959 . S
C590 C588 1.561 . S
C591 C588 1.526 . S
C591 C592 1.396 . S
C591 C596 1.390 . S
C592 C586 1.465 . S
C592 C591 1.396 . S
C592 C593 1.399 . S
C593 H579 0.929 . S
C593 C592 1.399 . S
C593 C594 1.385 . S
C594 H580 0.931 . S
C594 C593 1.385 . S
C594 C595 1.389 . S
C595 C594 1.389 . S
C595 C596 1.387 . S
C596 H581 0.930 . S
C596 C591 1.390 . S
C596 C595 1.387 . S
H597 C609 0.930 . S
H598 C611 0.930 . S
H599 C612 0.930 . S
H600 C616 0.959 . S
H601 C616 0.959 . S
H602 C616 0.961 . S
H603 C617 0.960 . S
H604 C617 0.961 . S
H605 C617 0.959 . S
H606 C620 0.929 . S
H607 C621 0.931 . S
H608 C623 0.930 . S
C609 H597 0.930 . S
C609 C610 1.399 . S
C609 C614 1.399 . S
C610 C609 1.399 . S
C610 C611 1.376 . S
C611 H598 0.930 . S
C611 C610 1.376 . S
C611 C612 1.388 . S
C612 H599 0.930 . S
C612 C611 1.388 . S
C612 C613 1.390 . S
C613 C612 1.390 . S
C613 C614 1.394 . S
C613 C619 1.465 . S
C614 C609 1.399 . S
C614 C613 1.394 . S
C614 C615 1.516 . S
C615 C614 1.516 . S
C615 C616 1.502 . S
C615 C617 1.561 . S
C615 C618 1.526 . S
C616 H600 0.959 . S
C616 H601 0.959 . S
C616 H602 0.961 . S
C616 C615 1.502 . S
C617 H603 0.960 . S
C617 H604 0.961 . S
C617 H605 0.959 . S
C617 C615 1.561 . S
C618 C615 1.526 . S
C618 C619 1.396 . S
C618 C623 1.390 . S
C619 C613 1.465 . S
C619 C618 1.396 . S
C619 C620 1.399 . S
C620 H606 0.929 . S
C620 C619 1.399 . S
C620 C621 1.385 . S
C621 H607 0.931 . S
C621 C620 1.385 . S
C621 C622 1.389 . S
C622 C621 1.389 . S
C622 C623 1.387 . S
C623 H608 0.930 . S
C623 C618 1.390 . S
C623 C622 1.387 . S
H624 C636 0.930 . S
H625 C638 0.930 . S
H626 C639 0.930 . S
H627 C643 0.959 . S
H628 C643 0.959 . S
H629 C643 0.961 . S
H630 C644 0.960 . S
H631 C644 0.961 . S
H632 C644 0.959 . S
H633 C647 0.929 . S
H634 C648 0.931 . S
H635 C650 0.930 . S
C636 H624 0.930 . S
C636 C637 1.399 . S
C636 C641 1.399 . S
C637 C636 1.399 . S
C637 C638 1.376 . S
C638 H625 0.930 . S
C638 C637 1.376 . S
C638 C639 1.388 . S
C639 H626 0.930 . S
C639 C638 1.388 . S
C639 C640 1.390 . S
C640 C639 1.390 . S
C640 C641 1.394 . S
C640 C646 1.465 . S
C641 C636 1.399 . S
C641 C640 1.394 . S
C641 C642 1.516 . S
C642 C641 1.516 . S
C642 C643 1.502 . S
C642 C644 1.561 . S
C642 C645 1.526 . S
C643 H627 0.959 . S
C643 H628 0.959 . S
C643 H629 0.961 . S
C643 C642 1.502 . S
C644 H630 0.960 . S
C644 H631 0.961 . S
C644 H632 0.959 . S
C644 C642 1.561 . S
C645 C642 1.526 . S
C645 C646 1.396 . S
C645 C650 1.390 . S
C646 C640 1.465 . S
C646 C645 1.396 . S
C646 C647 1.399 . S
C647 H633 0.929 . S
C647 C646 1.399 . S
C647 C648 1.385 . S
C648 H634 0.931 . S
C648 C647 1.385 . S
C648 C649 1.389 . S
C649 C648 1.389 . S
C649 C650 1.387 . S
C650 H635 0.930 . S
C650 C645 1.390 . S
C650 C649 1.387 . S
H651 C663 0.930 . S
H652 C665 0.930 . S
H653 C666 0.930 . S
H654 C670 0.959 . S
H655 C670 0.959 . S
H656 C670 0.961 . S
H657 C671 0.960 . S
H658 C671 0.961 . S
H659 C671 0.959 . S
H660 C674 0.929 . S
H661 C675 0.931 . S
H662 C677 0.930 . S
C663 H651 0.930 . S
C663 C664 1.399 . S
C663 C668 1.399 . S
C664 C663 1.399 . S
C664 C665 1.376 . S
C665 H652 0.930 . S
C665 C664 1.376 . S
C665 C666 1.388 . S
C666 H653 0.930 . S
C666 C665 1.388 . S
C666 C667 1.390 . S
C667 C666 1.390 . S
C667 C668 1.394 . S
C667 C673 1.465 . S
C668 C663 1.399 . S
C668 C667 1.394 . S
C668 C669 1.516 . S
C669 C668 1.516 . S
C669 C670 1.502 . S
C669 C671 1.561 . S
C669 C672 1.526 . S
C670 H654 0.959 . S
C670 H655 0.959 . S
C670 H656 0.961 . S
C670 C669 1.502 . S
C671 H657 0.960 . S
C671 H658 0.961 . S
C671 H659 0.959 . S
C671 C669 1.561 . S
C672 C669 1.526 . S
C672 C673 1.396 . S
C672 C677 1.390 . S
C673 C667 1.465 . S
C673 C672 1.396 . S
C673 C674 1.399 . S
C674 H660 0.929 . S
C674 C673 1.399 . S
C674 C675 1.385 . S
C675 H661 0.931 . S
C675 C674 1.385 . S
C675 C676 1.389 . S
C676 C675 1.389 . S
C676 C677 1.387 . S
C677 H662 0.930 . S
C677 C672 1.390 . S
C677 C676 1.387 . S
H678 C690 0.930 . S
H679 C692 0.930 . S
H680 C693 0.930 . S
H681 C697 0.959 . S
H682 C697 0.959 . S
H683 C697 0.961 . S
H684 C698 0.960 . S
H685 C698 0.961 . S
H686 C698 0.959 . S
H687 C701 0.929 . S
H688 C702 0.931 . S
H689 C704 0.930 . S
C690 H678 0.930 . S
C690 C691 1.399 . S
C690 C695 1.399 . S
C691 C690 1.399 . S
C691 C692 1.376 . S
C692 H679 0.930 . S
C692 C691 1.376 . S
C692 C693 1.388 . S
C693 H680 0.930 . S
C693 C692 1.388 . S
C693 C694 1.390 . S
C694 C693 1.390 . S
C694 C695 1.394 . S
C694 C700 1.465 . S
C695 C690 1.399 . S
C695 C694 1.394 . S
C695 C696 1.516 . S
C696 C695 1.516 . S
C696 C697 1.502 . S
C696 C698 1.561 . S
C696 C699 1.526 . S
C697 H681 0.959 . S
C697 H682 0.959 . S
C697 H683 0.961 . S
C697 C696 1.502 . S
C698 H684 0.960 . S
C698 H685 0.961 . S
C698 H686 0.959 . S
C698 C696 1.561 . S
C699 C696 1.526 . S
C699 C700 1.396 . S
C699 C704 1.390 . S
C700 C694 1.465 . S
C700 C699 1.396 . S
C700 C701 1.399 . S
C701 H687 0.929 . S
C701 C700 1.399 . S
C701 C702 1.385 . S
C702 H688 0.931 . S
C702 C701 1.385 . S
C702 C703 1.389 . S
C703 C702 1.389 . S
C703 C704 1.387 . S
C704 H689 0.930 . S
C704 C699 1.390 . S
C704 C703 1.387 . S
H705 C717 0.930 . S
H706 C719 0.930 . S
H707 C720 0.930 . S
H708 C724 0.959 . S
H709 C724 0.959 . S
H710 C724 0.961 . S
H711 C725 0.960 . S
H712 C725 0.961 . S
H713 C725 0.959 . S
H714 C728 0.929 . S
H715 C729 0.931 . S
H716 C731 0.930 . S
C717 H705 0.930 . S
C717 C718 1.399 . S
C717 C722 1.399 . S
C718 C717 1.399 . S
C718 C719 1.376 . S
C719 H706 0.930 . S
C719 C718 1.376 . S
C719 C720 1.388 . S
C720 H707 0.930 . S
C720 C719 1.388 . S
C720 C721 1.390 . S
C721 C720 1.390 . S
C721 C722 1.394 . S
C721 C727 1.465 . S
C722 C717 1.399 . S
C722 C721 1.394 . S
C722 C723 1.516 . S
C723 C722 1.516 . S
C723 C724 1.502 . S
C723 C725 1.561 . S
C723 C726 1.526 . S
C724 H708 0.959 . S
C724 H709 0.959 . S
C724 H710 0.961 . S
C724 C723 1.502 . S
C725 H711 0.960 . S
C725 H712 0.961 . S
C725 H713 0.959 . S
C725 C723 1.561 . S
C726 C723 1.526 . S
C726 C727 1.396 . S
C726 C731 1.390 . S
C727 C721 1.465 . S
C727 C726 1.396 . S
C727 C728 1.399 . S
C728 H714 0.929 . S
C728 C727 1.399 . S
C728 C729 1.385 . S
C729 H715 0.931 . S
C729 C728 1.385 . S
C729 C730 1.389 . S
C730 C729 1.389 . S
C730 C731 1.387 . S
C731 H716 0.930 . S
C731 C726 1.390 . S
C731 C730 1.387 . S
H732 C744 0.930 . S
H733 C746 0.930 . S
H734 C747 0.930 . S
H735 C751 0.959 . S
H736 C751 0.959 . S
H737 C751 0.961 . S
H738 C752 0.960 . S
H739 C752 0.961 . S
H740 C752 0.959 . S
H741 C755 0.929 . S
H742 C756 0.931 . S
H743 C758 0.930 . S
C744 H732 0.930 . S
C744 C745 1.399 . S
C744 C749 1.399 . S
C745 C744 1.399 . S
C745 C746 1.376 . S
C746 H733 0.930 . S
C746 C745 1.376 . S
C746 C747 1.388 . S
C747 H734 0.930 . S
C747 C746 1.388 . S
C747 C748 1.390 . S
C748 C747 1.390 . S
C748 C749 1.394 . S
C748 C754 1.465 . S
C749 C744 1.399 . S
C749 C748 1.394 . S
C749 C750 1.516 . S
C750 C749 1.516 . S
C750 C751 1.502 . S
C750 C752 1.561 . S
C750 C753 1.526 . S
C751 H735 0.959 . S
C751 H736 0.959 . S
C751 H737 0.961 . S
C751 C750 1.502 . S
C752 H738 0.960 . S
C752 H739 0.961 . S
C752 H740 0.959 . S
C752 C750 1.561 . S
C753 C750 1.526 . S
C753 C754 1.396 . S
C753 C758 1.390 1_556 S
C754 C748 1.465 . S
C754 C753 1.396 . S
C754 C755 1.399 . S
C755 H741 0.929 . S
C755 C754 1.399 . S
C755 C756 1.385 1_556 S
C756 H742 0.931 . S
C756 C755 1.385 1_554 S
C756 C757 1.389 . S
C757 C756 1.389 . S
C757 C758 1.387 . S
C758 H743 0.930 . S
C758 C753 1.390 1_554 S
C758 C757 1.387 . S
H759 C771 0.930 . S
H760 C773 0.930 . S
H761 C774 0.930 . S
H762 C778 0.959 . S
H763 C778 0.959 . S
H764 C778 0.961 . S
H765 C779 0.960 . S
H766 C779 0.961 . S
H767 C779 0.959 . S
H768 C782 0.929 . S
H769 C783 0.931 . S
H770 C785 0.930 . S
C771 H759 0.930 . S
C771 C772 1.399 . S
C771 C776 1.399 . S
C772 C771 1.399 . S
C772 C773 1.376 . S
C773 H760 0.930 . S
C773 C772 1.376 . S
C773 C774 1.388 . S
C774 H761 0.930 . S
C774 C773 1.388 . S
C774 C775 1.390 . S
C775 C774 1.390 . S
C775 C776 1.394 . S
C775 C781 1.465 . S
C776 C771 1.399 . S
C776 C775 1.394 . S
C776 C777 1.516 . S
C777 C776 1.516 . S
C777 C778 1.502 . S
C777 C779 1.561 . S
C777 C780 1.526 . S
C778 H762 0.959 . S
C778 H763 0.959 . S
C778 H764 0.961 . S
C778 C777 1.502 . S
C779 H765 0.960 . S
C779 H766 0.961 . S
C779 H767 0.959 . S
C779 C777 1.561 . S
C780 C777 1.526 . S
C780 C781 1.396 . S
C780 C785 1.390 . S
C781 C775 1.465 . S
C781 C780 1.396 . S
C781 C782 1.399 . S
C782 H768 0.929 . S
C782 C781 1.399 . S
C782 C783 1.385 . S
C783 H769 0.931 . S
C783 C782 1.385 . S
C783 C784 1.389 . S
C784 C783 1.389 . S
C784 C785 1.387 . S
C785 H770 0.930 . S
C785 C780 1.390 . S
C785 C784 1.387 . S
H786 C798 0.930 . S
H787 C800 0.930 . S
H788 C801 0.930 . S
H789 C805 0.959 . S
H790 C805 0.959 . S
H791 C805 0.961 . S
H792 C806 0.960 . S
H793 C806 0.961 . S
H794 C806 0.959 . S
H795 C809 0.929 . S
H796 C810 0.931 . S
H797 C812 0.930 . S
C798 H786 0.930 . S
C798 C799 1.399 . S
C798 C803 1.399 . S
C799 C798 1.399 . S
C799 C800 1.376 . S
C800 H787 0.930 . S
C800 C799 1.376 . S
C800 C801 1.388 . S
C801 H788 0.930 . S
C801 C800 1.388 . S
C801 C802 1.390 . S
C802 C801 1.390 . S
C802 C803 1.394 . S
C802 C808 1.465 . S
C803 C798 1.399 . S
C803 C802 1.394 . S
C803 C804 1.516 . S
C804 C803 1.516 . S
C804 C805 1.502 . S
C804 C806 1.561 . S
C804 C807 1.526 . S
C805 H789 0.959 . S
C805 H790 0.959 . S
C805 H791 0.961 . S
C805 C804 1.502 . S
C806 H792 0.960 . S
C806 H793 0.961 . S
C806 H794 0.959 . S
C806 C804 1.561 . S
C807 C804 1.526 . S
C807 C808 1.396 . S
C807 C812 1.390 1_556 S
C808 C802 1.465 . S
C808 C807 1.396 . S
C808 C809 1.399 . S
C809 H795 0.929 . S
C809 C808 1.399 . S
C809 C810 1.385 1_556 S
C810 H796 0.931 . S
C810 C809 1.385 1_554 S
C810 C811 1.389 . S
C811 C810 1.389 . S
C811 C812 1.387 . S
C812 H797 0.930 . S
C812 C807 1.390 1_554 S
C812 C811 1.387 . S
H813 C825 0.930 . S
H814 C827 0.930 . S
H815 C828 0.930 . S
H816 C832 0.959 . S
H817 C832 0.959 . S
H818 C832 0.961 . S
H819 C833 0.960 . S
H820 C833 0.961 . S
H821 C833 0.959 . S
H822 C836 0.929 . S
H823 C837 0.931 . S
H824 C839 0.930 . S
C825 H813 0.930 . S
C825 C826 1.399 . S
C825 C830 1.399 . S
C826 C825 1.399 . S
C826 C827 1.376 . S
C827 H814 0.930 . S
C827 C826 1.376 . S
C827 C828 1.388 . S
C828 H815 0.930 . S
C828 C827 1.388 . S
C828 C829 1.390 . S
C829 C828 1.390 . S
C829 C830 1.394 . S
C829 C835 1.465 . S
C830 C825 1.399 . S
C830 C829 1.394 . S
C830 C831 1.516 . S
C831 C830 1.516 . S
C831 C832 1.502 . S
C831 C833 1.561 . S
C831 C834 1.526 . S
C832 H816 0.959 . S
C832 H817 0.959 . S
C832 H818 0.961 . S
C832 C831 1.502 . S
C833 H819 0.960 . S
C833 H820 0.961 . S
C833 H821 0.959 . S
C833 C831 1.561 . S
C834 C831 1.526 . S
C834 C835 1.396 . S
C834 C839 1.390 . S
C835 C829 1.465 . S
C835 C834 1.396 . S
C835 C836 1.399 . S
C836 H822 0.929 . S
C836 C835 1.399 . S
C836 C837 1.385 . S
C837 H823 0.931 . S
C837 C836 1.385 . S
C837 C838 1.389 . S
C838 C837 1.389 . S
C838 C839 1.387 . S
C839 H824 0.930 . S
C839 C834 1.390 . S
C839 C838 1.387 . S
H840 C852 0.930 . S
H841 C854 0.930 . S
H842 C855 0.930 . S
H843 C859 0.959 . S
H844 C859 0.959 . S
H845 C859 0.961 . S
H846 C860 0.960 . S
H847 C860 0.961 . S
H848 C860 0.959 . S
H849 C863 0.929 . S
H850 C864 0.931 . S
H851 C866 0.930 . S
C852 H840 0.930 . S
C852 C853 1.399 . S
C852 C857 1.399 . S
C853 C852 1.399 . S
C853 C854 1.376 . S
C854 H841 0.930 . S
C854 C853 1.376 . S
C854 C855 1.388 . S
C855 H842 0.930 . S
C855 C854 1.388 . S
C855 C856 1.390 . S
C856 C855 1.390 . S
C856 C857 1.394 . S
C856 C862 1.465 . S
C857 C852 1.399 . S
C857 C856 1.394 . S
C857 C858 1.516 . S
C858 C857 1.516 . S
C858 C859 1.502 . S
C858 C860 1.561 . S
C858 C861 1.526 . S
C859 H843 0.959 . S
C859 H844 0.959 . S
C859 H845 0.961 . S
C859 C858 1.502 . S
C860 H846 0.960 . S
C860 H847 0.961 . S
C860 H848 0.959 . S
C860 C858 1.561 . S
C861 C858 1.526 . S
C861 C862 1.396 . S
C861 C866 1.390 1_556 S
C862 C856 1.465 . S
C862 C861 1.396 . S
C862 C863 1.399 . S
C863 H849 0.929 . S
C863 C862 1.399 . S
C863 C864 1.385 1_556 S
C864 H850 0.931 . S
C864 C863 1.385 1_554 S
C864 C865 1.389 . S
C865 C864 1.389 . S
C865 C866 1.387 . S
C866 H851 0.930 . S
C866 C861 1.390 1_554 S
C866 C865 1.387 . S
H867 C879 0.930 . S
H868 C881 0.930 . S
H869 C882 0.930 . S
H870 C886 0.959 . S
H871 C886 0.959 . S
H872 C886 0.961 . S
H873 C887 0.960 . S
H874 C887 0.961 . S
H875 C887 0.959 . S
H876 C890 0.929 . S
H877 C891 0.931 . S
H878 C893 0.930 . S
C879 H867 0.930 . S
C879 C880 1.399 . S
C879 C884 1.399 . S
C880 C879 1.399 . S
C880 C881 1.376 . S
C881 H868 0.930 . S
C881 C880 1.376 . S
C881 C882 1.388 . S
C882 H869 0.930 . S
C882 C881 1.388 . S
C882 C883 1.390 . S
C883 C882 1.390 . S
C883 C884 1.394 . S
C883 C889 1.465 . S
C884 C879 1.399 . S
C884 C883 1.394 . S
C884 C885 1.516 . S
C885 C884 1.516 . S
C885 C886 1.502 . S
C885 C887 1.561 . S
C885 C888 1.526 . S
C886 H870 0.959 . S
C886 H871 0.959 . S
C886 H872 0.961 . S
C886 C885 1.502 . S
C887 H873 0.960 . S
C887 H874 0.961 . S
C887 H875 0.959 . S
C887 C885 1.561 . S
C888 C885 1.526 . S
C888 C889 1.396 . S
C888 C893 1.390 . S
C889 C883 1.465 . S
C889 C888 1.396 . S
C889 C890 1.399 . S
C890 H876 0.929 . S
C890 C889 1.399 . S
C890 C891 1.385 . S
C891 H877 0.931 . S
C891 C890 1.385 . S
C891 C892 1.389 . S
C892 C891 1.389 . S
C892 C893 1.387 . S
C893 H878 0.930 . S
C893 C888 1.390 . S
C893 C892 1.387 . S
H894 C906 0.930 . S
H895 C908 0.930 . S
H896 C909 0.930 . S
H897 C913 0.959 . S
H898 C913 0.959 . S
H899 C913 0.961 . S
H900 C914 0.960 . S
H901 C914 0.961 . S
H902 C914 0.959 . S
H903 C917 0.929 . S
H904 C918 0.931 . S
H905 C920 0.930 . S
C906 H894 0.930 . S
C906 C907 1.399 . S
C906 C911 1.399 . S
C907 C906 1.399 . S
C907 C908 1.376 . S
C908 H895 0.930 . S
C908 C907 1.376 . S
C908 C909 1.388 . S
C909 H896 0.930 . S
C909 C908 1.388 . S
C909 C910 1.390 . S
C910 C909 1.390 . S
C910 C911 1.394 . S
C910 C916 1.465 . S
C911 C906 1.399 . S
C911 C910 1.394 . S
C911 C912 1.516 . S
C912 C911 1.516 . S
C912 C913 1.502 . S
C912 C914 1.561 . S
C912 C915 1.526 . S
C913 H897 0.959 . S
C913 H898 0.959 . S
C913 H899 0.961 . S
C913 C912 1.502 . S
C914 H900 0.960 . S
C914 H901 0.961 . S
C914 H902 0.959 . S
C914 C912 1.561 . S
C915 C912 1.526 . S
C915 C916 1.396 . S
C915 C920 1.390 . S
C916 C910 1.465 . S
C916 C915 1.396 . S
C916 C917 1.399 . S
C917 H903 0.929 . S
C917 C916 1.399 . S
C917 C918 1.385 . S
C918 H904 0.931 . S
C918 C917 1.385 . S
C918 C919 1.389 . S
C919 C918 1.389 . S
C919 C920 1.387 . S
C920 H905 0.930 . S
C920 C915 1.390 . S
C920 C919 1.387 . S
H921 C933 0.930 . S
H922 C935 0.930 . S
H923 C936 0.930 . S
H924 C940 0.959 . S
H925 C940 0.959 . S
H926 C940 0.961 . S
H927 C941 0.960 . S
H928 C941 0.961 . S
H929 C941 0.959 . S
H930 C944 0.929 . S
H931 C945 0.931 . S
H932 C947 0.930 . S
C933 H921 0.930 . S
C933 C934 1.399 . S
C933 C938 1.399 . S
C934 C933 1.399 . S
C934 C935 1.376 . S
C935 H922 0.930 . S
C935 C934 1.376 . S
C935 C936 1.388 . S
C936 H923 0.930 . S
C936 C935 1.388 . S
C936 C937 1.390 . S
C937 C936 1.390 . S
C937 C938 1.394 . S
C937 C943 1.465 . S
C938 C933 1.399 . S
C938 C937 1.394 . S
C938 C939 1.516 . S
C939 C938 1.516 . S
C939 C940 1.502 . S
C939 C941 1.561 . S
C939 C942 1.526 . S
C940 H924 0.959 . S
C940 H925 0.959 . S
C940 H926 0.961 . S
C940 C939 1.502 . S
C941 H927 0.960 . S
C941 H928 0.961 . S
C941 H929 0.959 . S
C941 C939 1.561 . S
C942 C939 1.526 . S
C942 C943 1.396 . S
C942 C947 1.390 1_554 S
C943 C937 1.465 . S
C943 C942 1.396 . S
C943 C944 1.399 . S
C944 H930 0.929 . S
C944 C943 1.399 . S
C944 C945 1.385 1_554 S
C945 H931 0.931 . S
C945 C944 1.385 1_556 S
C945 C946 1.389 . S
C946 C945 1.389 . S
C946 C947 1.387 . S
C947 H932 0.930 . S
C947 C942 1.390 1_556 S
C947 C946 1.387 . S
H948 C960 0.930 . S
H949 C962 0.930 . S
H950 C963 0.930 . S
H951 C967 0.959 . S
H952 C967 0.959 . S
H953 C967 0.961 . S
H954 C968 0.960 . S
H955 C968 0.961 . S
H956 C968 0.959 . S
H957 C971 0.929 . S
H958 C972 0.931 . S
H959 C974 0.930 . S
C960 H948 0.930 . S
C960 C961 1.399 . S
C960 C965 1.399 . S
C961 C960 1.399 . S
C961 C962 1.376 . S
C962 H949 0.930 . S
C962 C961 1.376 . S
C962 C963 1.388 . S
C963 H950 0.930 . S
C963 C962 1.388 . S
C963 C964 1.390 . S
C964 C963 1.390 . S
C964 C965 1.394 . S
C964 C970 1.465 . S
C965 C960 1.399 . S
C965 C964 1.394 . S
C965 C966 1.516 . S
C966 C965 1.516 . S
C966 C967 1.502 . S
C966 C968 1.561 . S
C966 C969 1.526 . S
C967 H951 0.959 . S
C967 H952 0.959 . S
C967 H953 0.961 . S
C967 C966 1.502 . S
C968 H954 0.960 . S
C968 H955 0.961 . S
C968 H956 0.959 . S
C968 C966 1.561 . S
C969 C966 1.526 . S
C969 C970 1.396 . S
C969 C974 1.390 . S
C970 C964 1.465 . S
C970 C969 1.396 . S
C970 C971 1.399 . S
C971 H957 0.929 . S
C971 C970 1.399 . S
C971 C972 1.385 . S
C972 H958 0.931 . S
C972 C971 1.385 . S
C972 C973 1.389 . S
C973 C972 1.389 . S
C973 C974 1.387 . S
C974 H959 0.930 . S
C974 C969 1.390 . S
C974 C973 1.387 . S
H975 C987 0.930 . S
H976 C989 0.930 . S
H977 C990 0.930 . S
H978 C994 0.959 . S
H979 C994 0.959 . S
H980 C994 0.961 . S
H981 C995 0.960 . S
H982 C995 0.961 . S
H983 C995 0.959 . S
H984 C998 0.929 . S
H985 C999 0.931 . S
H986 C1001 0.930 . S
C987 H975 0.930 . S
C987 C988 1.399 . S
C987 C992 1.399 1_556 S
C988 C987 1.399 . S
C988 C989 1.376 . S
C989 H976 0.930 . S
C989 C988 1.376 . S
C989 C990 1.388 1_556 S
C990 H977 0.930 . S
C990 C989 1.388 1_554 S
C990 C991 1.390 . S
C991 C990 1.390 . S
C991 C992 1.394 . S
C991 C997 1.465 . S
C992 C987 1.399 1_554 S
C992 C991 1.394 . S
C992 C993 1.516 . S
C993 C992 1.516 . S
C993 C994 1.502 . S
C993 C995 1.561 . S
C993 C996 1.526 . S
C994 H978 0.959 . S
C994 H979 0.959 . S
C994 H980 0.961 . S
C994 C993 1.502 . S
C995 H981 0.960 . S
C995 H982 0.961 . S
C995 H983 0.959 . S
C995 C993 1.561 . S
C996 C993 1.526 . S
C996 C997 1.396 . S
C996 C1001 1.390 . S
C997 C991 1.465 . S
C997 C996 1.396 . S
C997 C998 1.399 . S
C998 H984 0.929 . S
C998 C997 1.399 . S
C998 C999 1.385 . S
C999 H985 0.931 . S
C999 C998 1.385 . S
C999 C1000 1.389 . S
C1000 C999 1.389 . S
C1000 C1001 1.387 . S
C1001 H986 0.930 . S
C1001 C996 1.390 . S
C1001 C1000 1.387 . S
H1002 C1014 0.930 . S
H1003 C1016 0.930 . S
H1004 C1017 0.930 . S
H1005 C1021 0.959 . S
H1006 C1021 0.959 . S
H1007 C1021 0.961 . S
H1008 C1022 0.960 . S
H1009 C1022 0.961 . S
H1010 C1022 0.959 . S
H1011 C1025 0.929 . S
H1012 C1026 0.931 . S
H1013 C1028 0.930 . S
C1014 H1002 0.930 . S
C1014 C1015 1.399 . S
C1014 C1019 1.399 . S
C1015 C1014 1.399 . S
C1015 C1016 1.376 . S
C1016 H1003 0.930 . S
C1016 C1015 1.376 . S
C1016 C1017 1.388 . S
C1017 H1004 0.930 . S
C1017 C1016 1.388 . S
C1017 C1018 1.390 . S
C1018 C1017 1.390 . S
C1018 C1019 1.394 . S
C1018 C1024 1.465 . S
C1019 C1014 1.399 . S
C1019 C1018 1.394 . S
C1019 C1020 1.516 . S
C1020 C1019 1.516 . S
C1020 C1021 1.502 . S
C1020 C1022 1.561 . S
C1020 C1023 1.526 . S
C1021 H1005 0.959 . S
C1021 H1006 0.959 . S
C1021 H1007 0.961 . S
C1021 C1020 1.502 . S
C1022 H1008 0.960 . S
C1022 H1009 0.961 . S
C1022 H1010 0.959 . S
C1022 C1020 1.561 . S
C1023 C1020 1.526 . S
C1023 C1024 1.396 . S
C1023 C1028 1.390 . S
C1024 C1018 1.465 . S
C1024 C1023 1.396 . S
C1024 C1025 1.399 . S
C1025 H1011 0.929 . S
C1025 C1024 1.399 . S
C1025 C1026 1.385 . S
C1026 H1012 0.931 . S
C1026 C1025 1.385 . S
C1026 C1027 1.389 . S
C1027 C1026 1.389 . S
C1027 C1028 1.387 . S
C1028 H1013 0.930 . S
C1028 C1023 1.390 . S
C1028 C1027 1.387 . S
H1029 C1041 0.930 . S
H1030 C1043 0.930 . S
H1031 C1044 0.930 . S
H1032 C1048 0.959 . S
H1033 C1048 0.959 . S
H1034 C1048 0.961 . S
H1035 C1049 0.960 . S
H1036 C1049 0.961 . S
H1037 C1049 0.959 . S
H1038 C1052 0.929 . S
H1039 C1053 0.931 . S
H1040 C1055 0.930 . S
C1041 H1029 0.930 . S
C1041 C1042 1.399 . S
C1041 C1046 1.399 . S
C1042 C1041 1.399 . S
C1042 C1043 1.376 . S
C1043 H1030 0.930 . S
C1043 C1042 1.376 . S
C1043 C1044 1.388 . S
C1044 H1031 0.930 . S
C1044 C1043 1.388 . S
C1044 C1045 1.390 . S
C1045 C1044 1.390 . S
C1045 C1046 1.394 . S
C1045 C1051 1.465 . S
C1046 C1041 1.399 . S
C1046 C1045 1.394 . S
C1046 C1047 1.516 . S
C1047 C1046 1.516 . S
C1047 C1048 1.502 . S
C1047 C1049 1.561 . S
C1047 C1050 1.526 . S
C1048 H1032 0.959 . S
C1048 H1033 0.959 . S
C1048 H1034 0.961 . S
C1048 C1047 1.502 . S
C1049 H1035 0.960 . S
C1049 H1036 0.961 . S
C1049 H1037 0.959 . S
C1049 C1047 1.561 . S
C1050 C1047 1.526 . S
C1050 C1051 1.396 . S
C1050 C1055 1.390 1_554 S
C1051 C1045 1.465 . S
C1051 C1050 1.396 . S
C1051 C1052 1.399 . S
C1052 H1038 0.929 . S
C1052 C1051 1.399 . S
C1052 C1053 1.385 1_554 S
C1053 H1039 0.931 . S
C1053 C1052 1.385 1_556 S
C1053 C1054 1.389 . S
C1054 C1053 1.389 . S
C1054 C1055 1.387 . S
C1055 H1040 0.930 . S
C1055 C1050 1.390 1_556 S
C1055 C1054 1.387 . S
H1056 C1068 0.930 . S
H1057 C1070 0.930 . S
H1058 C1071 0.930 . S
H1059 C1075 0.959 . S
H1060 C1075 0.959 . S
H1061 C1075 0.961 . S
H1062 C1076 0.960 . S
H1063 C1076 0.961 . S
H1064 C1076 0.959 . S
H1065 C1079 0.929 . S
H1066 C1080 0.931 . S
H1067 C1082 0.930 . S
C1068 H1056 0.930 . S
C1068 C1069 1.399 . S
C1068 C1073 1.399 . S
C1069 C1068 1.399 . S
C1069 C1070 1.376 . S
C1070 H1057 0.930 . S
C1070 C1069 1.376 . S
C1070 C1071 1.388 . S
C1071 H1058 0.930 . S
C1071 C1070 1.388 . S
C1071 C1072 1.390 . S
C1072 C1071 1.390 . S
C1072 C1073 1.394 . S
C1072 C1078 1.465 . S
C1073 C1068 1.399 . S
C1073 C1072 1.394 . S
C1073 C1074 1.516 . S
C1074 C1073 1.516 . S
C1074 C1075 1.502 . S
C1074 C1076 1.561 . S
C1074 C1077 1.526 . S
C1075 H1059 0.959 . S
C1075 H1060 0.959 . S
C1075 H1061 0.961 . S
C1075 C1074 1.502 . S
C1076 H1062 0.960 . S
C1076 H1063 0.961 . S
C1076 H1064 0.959 . S
C1076 C1074 1.561 . S
C1077 C1074 1.526 . S
C1077 C1078 1.396 . S
C1077 C1082 1.390 . S
C1078 C1072 1.465 . S
C1078 C1077 1.396 . S
C1078 C1079 1.399 . S
C1079 H1065 0.929 . S
C1079 C1078 1.399 . S
C1079 C1080 1.385 . S
C1080 H1066 0.931 . S
C1080 C1079 1.385 . S
C1080 C1081 1.389 . S
C1081 C1080 1.389 . S
C1081 C1082 1.387 . S
C1082 H1067 0.930 . S
C1082 C1077 1.390 . S
C1082 C1081 1.387 . S
H1083 C1095 0.930 . S
H1084 C1097 0.930 . S
H1085 C1098 0.930 . S
H1086 C1102 0.959 . S
H1087 C1102 0.959 . S
H1088 C1102 0.961 . S
H1089 C1103 0.960 . S
H1090 C1103 0.961 . S
H1091 C1103 0.959 . S
H1092 C1106 0.929 . S
H1093 C1107 0.931 . S
H1094 C1109 0.930 . S
C1095 H1083 0.930 . S
C1095 C1096 1.399 . S
C1095 C1100 1.399 . S
C1096 C1095 1.399 . S
C1096 C1097 1.376 . S
C1097 H1084 0.930 . S
C1097 C1096 1.376 . S
C1097 C1098 1.388 . S
C1098 H1085 0.930 . S
C1098 C1097 1.388 . S
C1098 C1099 1.390 . S
C1099 C1098 1.390 . S
C1099 C1100 1.394 . S
C1099 C1105 1.465 . S
C1100 C1095 1.399 . S
C1100 C1099 1.394 . S
C1100 C1101 1.516 . S
C1101 C1100 1.516 . S
C1101 C1102 1.502 . S
C1101 C1103 1.561 . S
C1101 C1104 1.526 . S
C1102 H1086 0.959 . S
C1102 H1087 0.959 . S
C1102 H1088 0.961 . S
C1102 C1101 1.502 . S
C1103 H1089 0.960 . S
C1103 H1090 0.961 . S
C1103 H1091 0.959 . S
C1103 C1101 1.561 . S
C1104 C1101 1.526 . S
C1104 C1105 1.396 . S
C1104 C1109 1.390 . S
C1105 C1099 1.465 . S
C1105 C1104 1.396 . S
C1105 C1106 1.399 . S
C1106 H1092 0.929 . S
C1106 C1105 1.399 . S
C1106 C1107 1.385 . S
C1107 H1093 0.931 . S
C1107 C1106 1.385 . S
C1107 C1108 1.389 . S
C1108 C1107 1.389 . S
C1108 C1109 1.387 . S
C1109 H1094 0.930 . S
C1109 C1104 1.390 . S
C1109 C1108 1.387 . S
H1110 C1122 0.930 . S
H1111 C1124 0.930 . S
H1112 C1125 0.930 . S
H1113 C1129 0.959 . S
H1114 C1129 0.959 . S
H1115 C1129 0.961 . S
H1116 C1130 0.960 . S
H1117 C1130 0.961 . S
H1118 C1130 0.959 . S
H1119 C1133 0.929 . S
H1120 C1134 0.931 . S
H1121 C1136 0.930 . S
C1122 H1110 0.930 . S
C1122 C1123 1.399 . S
C1122 C1127 1.399 . S
C1123 C1122 1.399 . S
C1123 C1124 1.376 . S
C1124 H1111 0.930 . S
C1124 C1123 1.376 . S
C1124 C1125 1.388 . S
C1125 H1112 0.930 . S
C1125 C1124 1.388 . S
C1125 C1126 1.390 . S
C1126 C1125 1.390 . S
C1126 C1127 1.394 . S
C1126 C1132 1.465 . S
C1127 C1122 1.399 . S
C1127 C1126 1.394 . S
C1127 C1128 1.516 . S
C1128 C1127 1.516 . S
C1128 C1129 1.502 . S
C1128 C1130 1.561 . S
C1128 C1131 1.526 . S
C1129 H1113 0.959 . S
C1129 H1114 0.959 . S
C1129 H1115 0.961 . S
C1129 C1128 1.502 . S
C1130 H1116 0.960 . S
C1130 H1117 0.961 . S
C1130 H1118 0.959 . S
C1130 C1128 1.561 . S
C1131 C1128 1.526 . S
C1131 C1132 1.396 . S
C1131 C1136 1.390 . S
C1132 C1126 1.465 . S
C1132 C1131 1.396 . S
C1132 C1133 1.399 . S
C1133 H1119 0.929 . S
C1133 C1132 1.399 . S
C1133 C1134 1.385 . S
C1134 H1120 0.931 . S
C1134 C1133 1.385 . S
C1134 C1135 1.389 . S
C1135 C1134 1.389 . S
C1135 C1136 1.387 . S
C1136 H1121 0.930 . S
C1136 C1131 1.390 . S
C1136 C1135 1.387 . S
H1137 C1149 0.930 . S
H1138 C1151 0.930 . S
H1139 C1152 0.930 . S
H1140 C1156 0.959 . S
H1141 C1156 0.959 . S
H1142 C1156 0.961 . S
H1143 C1157 0.960 . S
H1144 C1157 0.961 . S
H1145 C1157 0.959 . S
H1146 C1160 0.929 . S
H1147 C1161 0.931 . S
H1148 C1163 0.930 . S
C1149 H1137 0.930 . S
C1149 C1150 1.399 . S
C1149 C1154 1.399 . S
C1150 C1149 1.399 . S
C1150 C1151 1.376 . S
C1151 H1138 0.930 . S
C1151 C1150 1.376 . S
C1151 C1152 1.388 . S
C1152 H1139 0.930 . S
C1152 C1151 1.388 . S
C1152 C1153 1.390 . S
C1153 C1152 1.390 . S
C1153 C1154 1.394 . S
C1153 C1159 1.465 . S
C1154 C1149 1.399 . S
C1154 C1153 1.394 . S
C1154 C1155 1.516 . S
C1155 C1154 1.516 . S
C1155 C1156 1.502 . S
C1155 C1157 1.561 . S
C1155 C1158 1.526 . S
C1156 H1140 0.959 . S
C1156 H1141 0.959 . S
C1156 H1142 0.961 . S
C1156 C1155 1.502 . S
C1157 H1143 0.960 . S
C1157 H1144 0.961 . S
C1157 H1145 0.959 . S
C1157 C1155 1.561 . S
C1158 C1155 1.526 . S
C1158 C1159 1.396 . S
C1158 C1163 1.390 . S
C1159 C1153 1.465 . S
C1159 C1158 1.396 . S
C1159 C1160 1.399 . S
C1160 H1146 0.929 . S
C1160 C1159 1.399 . S
C1160 C1161 1.385 . S
C1161 H1147 0.931 . S
C1161 C1160 1.385 . S
C1161 C1162 1.389 . S
C1162 C1161 1.389 . S
C1162 C1163 1.387 . S
C1163 H1148 0.930 . S
C1163 C1158 1.390 . S
C1163 C1162 1.387 . S
H1164 C1176 0.930 . S
H1165 C1178 0.930 . S
H1166 C1179 0.930 . S
H1167 C1183 0.959 . S
H1168 C1183 0.959 . S
H1169 C1183 0.961 . S
H1170 C1184 0.960 . S
H1171 C1184 0.961 . S
H1172 C1184 0.959 . S
H1173 C1187 0.929 . S
H1174 C1188 0.931 . S
H1175 C1190 0.930 . S
C1176 H1164 0.930 . S
C1176 C1177 1.399 . S
C1176 C1181 1.399 . S
C1177 C1176 1.399 . S
C1177 C1178 1.376 . S
C1178 H1165 0.930 . S
C1178 C1177 1.376 . S
C1178 C1179 1.388 . S
C1179 H1166 0.930 . S
C1179 C1178 1.388 . S
C1179 C1180 1.390 . S
C1180 C1179 1.390 . S
C1180 C1181 1.394 . S
C1180 C1186 1.465 . S
C1181 C1176 1.399 . S
C1181 C1180 1.394 . S
C1181 C1182 1.516 . S
C1182 C1181 1.516 . S
C1182 C1183 1.502 . S
C1182 C1184 1.561 . S
C1182 C1185 1.526 . S
C1183 H1167 0.959 . S
C1183 H1168 0.959 . S
C1183 H1169 0.961 . S
C1183 C1182 1.502 . S
C1184 H1170 0.960 . S
C1184 H1171 0.961 . S
C1184 H1172 0.959 . S
C1184 C1182 1.561 . S
C1185 C1182 1.526 . S
C1185 C1186 1.396 . S
C1185 C1190 1.390 . S
C1186 C1180 1.465 . S
C1186 C1185 1.396 . S
C1186 C1187 1.399 . S
C1187 H1173 0.929 . S
C1187 C1186 1.399 . S
C1187 C1188 1.385 . S
C1188 H1174 0.931 . S
C1188 C1187 1.385 . S
C1188 C1189 1.389 . S
C1189 C1188 1.389 . S
C1189 C1190 1.387 . S
C1190 H1175 0.930 . S
C1190 C1185 1.390 . S
C1190 C1189 1.387 . S
H1191 C1203 0.930 . S
H1192 C1205 0.930 . S
H1193 C1206 0.930 . S
H1194 C1210 0.959 . S
H1195 C1210 0.959 . S
H1196 C1210 0.961 . S
H1197 C1211 0.960 . S
H1198 C1211 0.961 . S
H1199 C1211 0.959 . S
H1200 C1214 0.929 . S
H1201 C1215 0.931 . S
H1202 C1217 0.930 . S
C1203 H1191 0.930 . S
C1203 C1204 1.399 . S
C1203 C1208 1.399 . S
C1204 C1203 1.399 . S
C1204 C1205 1.376 . S
C1205 H1192 0.930 . S
C1205 C1204 1.376 . S
C1205 C1206 1.388 . S
C1206 H1193 0.930 . S
C1206 C1205 1.388 . S
C1206 C1207 1.390 . S
C1207 C1206 1.390 . S
C1207 C1208 1.394 . S
C1207 C1213 1.465 . S
C1208 C1203 1.399 . S
C1208 C1207 1.394 . S
C1208 C1209 1.516 . S
C1209 C1208 1.516 . S
C1209 C1210 1.502 . S
C1209 C1211 1.561 . S
C1209 C1212 1.526 . S
C1210 H1194 0.959 . S
C1210 H1195 0.959 . S
C1210 H1196 0.961 . S
C1210 C1209 1.502 . S
C1211 H1197 0.960 . S
C1211 H1198 0.961 . S
C1211 H1199 0.959 . S
C1211 C1209 1.561 . S
C1212 C1209 1.526 . S
C1212 C1213 1.396 . S
C1212 C1217 1.390 . S
C1213 C1207 1.465 . S
C1213 C1212 1.396 . S
C1213 C1214 1.399 . S
C1214 H1200 0.929 . S
C1214 C1213 1.399 . S
C1214 C1215 1.385 . S
C1215 H1201 0.931 . S
C1215 C1214 1.385 . S
C1215 C1216 1.389 . S
C1216 C1215 1.389 . S
C1216 C1217 1.387 . S
C1217 H1202 0.930 . S
C1217 C1212 1.390 . S
C1217 C1216 1.387 . S
C421 C2 1.571 . S
C433 C376 1.611 . S
C448 C36 1.570 . S
C460 C206 1.610 . S
C475 C240 1.570 . S
C487 C70 1.602 . S
C502 C274 1.605 . S
C514 C104 1.596 . S
C529 C308 1.604 . S
C541 C138 1.571 . S
C556 C172 1.582 . S
C568 C342 1.612 . S
C583 C305 1.594 . S
C595 C33 1.607 . S
C610 C339 1.607 . S
C622 C67 1.596 . S
C637 C101 1.605 . S
C649 C373 1.589 . S
C664 C135 1.591 . S
C676 C407 1.607 . S
C691 C237 1.593 . S
C703 C169 1.607 . S
C718 C203 1.598 . S
C730 C271 1.606 . S
C745 C9 1.159 . S
C757 C5 1.193 . S
C772 C39 1.161 . S
C784 C43 1.195 . S
C799 C77 1.193 . S
C811 C73 1.168 . S
C826 C107 1.143 . S
C838 C111 1.185 . S
C853 C145 1.115 . S
C865 C141 1.202 . S
C880 C175 1.142 . S
C892 C179 1.176 . S
C907 C209 1.180 . S
C919 C213 1.104 . S
C934 C247 1.166 . S
C946 C243 1.190 . S
C961 C277 1.195 . S
C973 C281 1.103 . S
C988 C311 1.155 . S
C1000 C315 1.133 . S
C1015 C349 1.132 . S
C1027 C345 1.156 . S
C1042 C383 1.193 . S
C1054 C379 1.167 . S
C1069 C20 1.541 . S
C1081 C360 1.571 . S
C1096 C394 1.556 . S
C1108 C54 1.558 . S
C1123 C224 1.537 . S
C1135 C88 1.573 . S
C1150 C122 1.537 . S
C1162 C258 1.574 . S
C1177 C156 1.536 . S
C1189 C292 1.576 . S
C1204 C190 1.538 . S
C1216 C326 1.573 . S
