# Generated by pormake.
# Topology snz, (6)-cn, num edge types: 1
# Building blocks:
#     Node 0, Type 0, BuildingBlock: GEDQOX_clean_sbu_0, # of connection points: 6
#     Node 1, Type 0, BuildingBlock: GEDQOX_clean_sbu_0, # of connection points: 6
#     Node 2, Type 0, BuildingBlock: GEDQOX_clean_sbu_0, # of connection points: 6
#     Node 3, Type 0, BuildingBlock: GEDQOX_clean_sbu_0, # of connection points: 6
#     Node 4, Type 0, BuildingBlock: GEDQOX_clean_sbu_0, # of connection points: 6
#     Node 5, Type 0, BuildingBlock: GEDQOX_clean_sbu_0, # of connection points: 6
#     Node 6, Type 0, BuildingBlock: GEDQOX_clean_sbu_0, # of connection points: 6
#     Node 7, Type 0, BuildingBlock: GEDQOX_clean_sbu_0, # of connection points: 6
#     Node 8, Type 0, BuildingBlock: GEDQOX_clean_sbu_0, # of connection points: 6
#     Edge 9, Type (0, 0), BuildingBlock: KIFKEQ_clean_linker_1, # of connection points: 2
#     Edge 10, Type (0, 0), BuildingBlock: KIFKEQ_clean_linker_1, # of connection points: 2
#     Edge 11, Type (0, 0), BuildingBlock: KIFKEQ_clean_linker_1, # of connection points: 2
#     Edge 12, Type (0, 0), BuildingBlock: KIFKEQ_clean_linker_1, # of connection points: 2
#     Edge 13, Type (0, 0), BuildingBlock: KIFKEQ_clean_linker_1, # of connection points: 2
#     Edge 14, Type (0, 0), BuildingBlock: KIFKEQ_clean_linker_1, # of connection points: 2
#     Edge 15, Type (0, 0), BuildingBlock: KIFKEQ_clean_linker_1, # of connection points: 2
#     Edge 16, Type (0, 0), BuildingBlock: KIFKEQ_clean_linker_1, # of connection points: 2
#     Edge 17, Type (0, 0), BuildingBlock: KIFKEQ_clean_linker_1, # of connection points: 2
#     Edge 18, Type (0, 0), BuildingBlock: KIFKEQ_clean_linker_1, # of connection points: 2
#     Edge 19, Type (0, 0), BuildingBlock: KIFKEQ_clean_linker_1, # of connection points: 2
#     Edge 20, Type (0, 0), BuildingBlock: KIFKEQ_clean_linker_1, # of connection points: 2
#     Edge 21, Type (0, 0), BuildingBlock: KIFKEQ_clean_linker_1, # of connection points: 2
#     Edge 22, Type (0, 0), BuildingBlock: KIFKEQ_clean_linker_1, # of connection points: 2
#     Edge 23, Type (0, 0), BuildingBlock: KIFKEQ_clean_linker_1, # of connection points: 2
#     Edge 24, Type (0, 0), BuildingBlock: KIFKEQ_clean_linker_1, # of connection points: 2
#     Edge 25, Type (0, 0), BuildingBlock: KIFKEQ_clean_linker_1, # of connection points: 2
#     Edge 26, Type (0, 0), BuildingBlock: KIFKEQ_clean_linker_1, # of connection points: 2
#     Edge 27, Type (0, 0), BuildingBlock: KIFKEQ_clean_linker_1, # of connection points: 2
#     Edge 28, Type (0, 0), BuildingBlock: KIFKEQ_clean_linker_1, # of connection points: 2
#     Edge 29, Type (0, 0), BuildingBlock: KIFKEQ_clean_linker_1, # of connection points: 2
#     Edge 30, Type (0, 0), BuildingBlock: KIFKEQ_clean_linker_1, # of connection points: 2
#     Edge 31, Type (0, 0), BuildingBlock: KIFKEQ_clean_linker_1, # of connection points: 2
#     Edge 32, Type (0, 0), BuildingBlock: KIFKEQ_clean_linker_1, # of connection points: 2
#     Edge 33, Type (0, 0), BuildingBlock: KIFKEQ_clean_linker_1, # of connection points: 2
#     Edge 34, Type (0, 0), BuildingBlock: KIFKEQ_clean_linker_1, # of connection points: 2
#     Edge 35, Type (0, 0), BuildingBlock: KIFKEQ_clean_linker_1, # of connection points: 2
# Relax obj value: 0.222
# Max RMSD: 0.259
# Mean RMSD: 0.211
data_MOF--net-snz--node1-GEDQOX_clean_sbu_0--edge1-KIFKEQ_clean_linker_1
_symmetry_space_group_name_H-M    P1
_symmetry_Int_Tables_number       1
_symmetry_cell_setting            triclinic
loop_
_symmetry_equiv_pos_as_xyz
'x, y, z'
_cell_length_a     59.063815
_cell_length_b     76.043879
_cell_length_c     15.025415
_cell_angle_alpha  88.017298
_cell_angle_beta   86.759666
_cell_angle_gamma 120.81473
loop_
_atom_site_label
_atom_site_type_symbol
_atom_site_fract_x
_atom_site_fract_y
_atom_site_fract_z
_atom_type_partial_charge
Nd0 Nd 0.12306 0.62373 0.90726 0.0
Nd1 Nd 0.17499 0.65997 0.87179 0.0
C2 C 0.08279 0.58628 0.96092 0.0
C3 C 0.07679 0.56523 0.9436 0.0
C4 C 0.05725 0.54815 -0.00213 0.0
C5 C 0.05115 0.52819 0.98054 0.0
C6 C 0.06443 0.52479 0.90823 0.0
C7 C 0.08422 0.54209 0.85455 0.0
C8 C 0.09035 0.56201 0.87215 0.0
C9 C 0.13602 0.63389 0.72693 0.0
C10 C 0.17599 0.61883 0.89502 0.0
C11 C 0.21755 0.69704 0.82986 0.0
C12 C 0.23515 0.71555 0.87676 0.0
C13 C 0.23879 0.73464 0.84756 0.0
C14 C 0.2552 0.75235 0.8905 0.0
C15 C 0.2686 0.75151 0.96369 0.0
C16 C 0.26485 0.73231 -0.00701 0.0
C17 C 0.2483 0.71455 0.95023 0.0
C18 C 0.16104 0.64904 0.05193 0.0
C19 C 0.12266 0.66487 0.86439 0.0
O20 O 0.10259 0.59696 0.00874 0.0
O21 O 0.08275 0.59733 0.89263 0.0
O22 O 0.11283 0.62707 0.76708 0.0
O23 O 0.15222 0.63465 0.78091 0.0
O24 O 0.15153 0.61167 0.92949 0.0
O25 O 0.18905 0.63708 0.85111 0.0
O26 O 0.19338 0.69288 0.82408 0.0
O27 O 0.21862 0.68052 0.84569 0.0
O28 O 0.18416 0.6554 0.01297 0.0
O29 O 0.14571 0.64922 -0.00292 0.0
O30 O 0.14653 0.67056 0.82783 0.0
O31 O 0.10945 0.64752 0.91616 0.0
H32 H 0.04663 0.55022 0.05371 0.0
H33 H 1.03615 0.51544 0.02455 0.0
H34 H 0.09472 0.54026 0.79762 0.0
H35 H 0.10556 0.57494 0.82929 0.0
H36 H 0.22881 0.73585 0.79141 0.0
H37 H 0.2571 0.76669 0.86674 0.0
H38 H 0.27502 0.731 0.04824 0.0
H39 H 0.24588 0.70007 0.97466 0.0
Nd40 Nd 0.62283 0.59206 0.97115 0.0
Nd41 Nd 0.62344 0.55414 0.99039 0.0
C42 C 0.63297 0.63014 0.94114 0.0
C43 C 0.65143 0.65014 0.97738 0.0
C44 C 0.67868 0.66116 0.94978 0.0
C45 C 0.696 0.67933 0.98859 0.0
C46 C 0.68654 0.68699 0.05589 0.0
C47 C 0.65919 0.67621 0.08171 0.0
C48 C 0.6419 0.6581 0.04286 0.0
C49 C 0.61877 0.57866 0.14737 0.0
C50 C 0.68085 0.59569 0.96335 0.0
C51 C 0.6157 0.51667 0.02757 0.0
C52 C 0.6098 0.49761 0.98376 0.0
C53 C 0.625 0.48856 -0.00079 0.0
C54 C 0.61894 0.46997 0.96312 0.0
C55 C 0.59735 0.4598 0.91088 0.0
C56 C 0.58244 0.46912 0.8942 0.0
C57 C 0.58858 0.48775 0.93 0.0
C58 C 0.62751 0.56683 0.81353 0.0
C59 C 0.566 0.55283 -0.00011 0.0
O60 O 0.64319 0.62199 0.88968 0.0
O61 O 0.61363 0.61642 -0.00319 0.0
O62 O 0.60522 0.58603 0.11594 0.0
O63 O 0.63457 0.57872 0.08706 0.0
O64 O 0.66698 0.6037 0.93689 0.0
O65 O 0.66844 0.57674 0.00142 0.0
O66 O 0.5971 0.52109 0.03607 0.0
O67 O 0.63896 0.53301 0.00818 0.0
O68 O 0.63972 0.55839 0.84572 0.0
O69 O 0.6121 0.56749 0.87338 0.0
O70 O 0.57946 0.54486 0.03344 0.0
O71 O 0.57901 0.57059 0.95202 0.0
H72 H 0.68674 0.65564 0.89901 0.0
H73 H 0.71692 0.68711 0.96723 0.0
H74 H 0.65106 0.68181 0.13195 0.0
H75 H 0.62101 0.65016 0.06498 0.0
H76 H 0.64139 0.49572 0.04069 0.0
H77 H 0.63076 0.46328 0.97834 0.0
H78 H 0.56594 0.46201 0.8532 0.0
H79 H 0.57652 0.49431 0.91626 0.0
Nd80 Nd 0.76535 0.1355 0.15887 0.0
Nd81 Nd 0.77163 0.09803 0.14198 0.0
C82 C 0.75925 0.1653 0.21815 0.0
C83 C 0.7463 0.17613 0.18576 0.0
C84 C 0.7517 0.1946 0.2207 0.0
C85 C 0.7409 0.20571 0.18553 0.0
C86 C 0.72458 0.19855 0.11448 0.0
C87 C 0.71895 0.17981 0.0807 0.0
C88 C 0.7297 0.16872 0.11603 0.0
C89 C 0.75901 0.12552 0.98188 0.0
C90 C 0.71153 0.08932 0.17416 0.0
C91 C 0.7899 0.07266 0.1201 0.0
C92 C 0.79508 0.05741 0.16603 0.0
C93 C 0.79272 0.04075 0.12071 0.0
C94 C 0.8016 0.02818 0.15624 0.0
C95 C 0.81335 0.03198 0.23808 0.0
C96 C 0.81481 0.04827 0.28484 0.0
C97 C 0.80581 0.06076 0.24947 0.0
C98 C 0.76674 0.10732 0.31586 0.0
C99 C 0.82096 0.14528 0.0726 0.0
O100 O 0.74364 0.14594 0.24614 0.0
O101 O 0.78009 0.16859 0.16814 0.0
O102 O 0.75705 0.1403 0.01405 0.0
O103 O 0.76339 0.11627 0.04359 0.0
O104 O 0.72336 0.10832 0.19912 0.0
O105 O 0.7256 0.08171 0.1381 0.0
O106 O 0.76567 0.06755 0.10491 0.0
O107 O 0.80414 0.09169 0.14057 0.0
O108 O 0.75607 0.08902 0.28912 0.0
O109 O 0.78057 0.12043 0.25153 0.0
O110 O 0.80812 0.12551 0.05677 0.0
O111 O 0.81017 0.15216 0.12974 0.0
H112 H 0.76454 0.20056 0.27439 0.0
H113 H 0.74536 0.21993 0.21393 0.0
H114 H 0.70679 0.17396 0.02528 0.0
H115 H 0.72545 0.15452 0.0878 0.0
H116 H 0.7849 0.03791 0.05582 0.0
H117 H 0.80026 1.01599 0.11749 0.0
H118 H 0.82323 0.05156 0.34864 0.0
H119 H 0.80802 0.07347 0.2863 0.0
Nd120 Nd 0.89946 0.90859 0.44426 0.0
Nd121 Nd 0.95179 0.94494 0.41169 0.0
C122 C 0.85606 0.87216 0.48902 0.0
C123 C 0.8404 0.85295 0.44472 0.0
C124 C 0.81983 0.83549 0.49395 0.0
C125 C 0.80404 0.81745 0.45195 0.0
C126 C 0.80845 0.81648 0.35952 0.0
C127 C 0.82944 0.83401 0.31072 0.0
C128 C 0.84524 0.85204 0.35288 0.0
C129 C 0.91333 0.91979 0.26445 0.0
C130 C 0.95191 0.90305 0.44152 0.0
C131 C 0.99264 0.98263 0.36598 0.0
C132 C 0.99894 1.00404 0.3792 0.0
C133 C 0.98547 1.01252 0.33809 0.0
C134 C 0.99139 0.03253 0.35345 0.0
C135 C 1.01098 0.04469 0.41024 0.0
C136 C 1.02449 0.03614 0.45073 0.0
C137 C 1.01862 1.0162 0.43521 0.0
C138 C 0.93758 0.93273 0.59006 0.0
C139 C 0.89924 0.95017 0.42462 0.0
O140 O 0.87964 0.87674 0.50839 0.0
O141 O 0.85579 0.88814 0.45624 0.0
O142 O 0.8901 0.91286 0.30379 0.0
O143 O 0.92902 0.92 0.31895 0.0
O144 O 0.92712 0.89606 0.47248 0.0
O145 O 0.96609 0.92167 0.40006 0.0
O146 O 0.97468 0.97182 0.31189 0.0
O147 O 0.99087 0.9716 0.43738 0.0
O148 O 0.96066 0.93878 0.55069 0.0
O149 O 0.92229 0.93346 0.53622 0.0
O150 O 0.92368 0.95738 0.38977 0.0
O151 O 0.88621 0.93185 0.46789 0.0
H152 H 0.81582 0.83585 0.56491 0.0
H153 H 0.7884 0.80423 0.49212 0.0
H154 H 0.83331 0.83397 0.23944 0.0
H155 H 0.861 0.86538 0.31354 0.0
H156 H 0.97029 1.0037 0.29409 0.0
H157 H 0.98075 0.03853 0.31981 0.0
H158 H 1.03939 0.04472 0.49596 0.0
H159 H 1.02939 1.01018 0.46792 0.0
Nd160 Nd 0.45283 1.015 0.32874 0.0
Nd161 Nd 0.4528 0.97689 0.34982 0.0
C162 C 0.46165 0.0527 0.28894 0.0
C163 C 0.46743 0.07191 0.33102 0.0
C164 C 0.48667 0.09101 0.28842 0.0
C165 C 0.49183 0.10942 0.32396 0.0
C166 C 0.47783 0.10934 0.40336 0.0
C167 C 0.45871 0.0901 0.44654 0.0
C168 C 0.45358 0.07165 0.41089 0.0
C169 C 0.44897 1.00283 0.50635 0.0
C170 C 0.50978 1.0157 0.31783 0.0
C171 C 0.44176 0.9386 0.38144 0.0
C172 C 0.42419 0.91924 0.34019 0.0
C173 C 0.41111 0.90043 0.3919 0.0
C174 C 0.39419 0.88211 0.3532 0.0
C175 C 0.39011 0.88222 0.26172 0.0
C176 C 0.40316 0.90116 0.21037 0.0
C177 C 0.41986 0.91944 0.2492 0.0
C178 C 0.45646 0.98976 0.17301 0.0
C179 C 0.39524 0.97397 0.36044 0.0
O180 O 0.48016 0.04816 0.28447 0.0
O181 O 0.43817 0.03643 0.3063 0.0
O182 O 0.43702 1.01145 0.47366 0.0
O183 O 0.46405 1.00171 0.44665 0.0
O184 O 0.4963 1.02351 0.28318 0.0
O185 O 0.4968 0.99822 0.36774 0.0
O186 O 0.43012 0.94645 0.42752 0.0
O187 O 0.46245 0.95257 0.33112 0.0
O188 O 0.46967 0.98211 0.20443 0.0
O189 O 0.44098 0.99006 0.23352 0.0
O190 O 0.40911 0.96612 0.38877 0.0
O191 O 0.4077 0.99259 0.31892 0.0
H192 H 0.49768 0.0917 0.22688 0.0
H193 H 0.50703 0.12377 0.2893 0.0
H194 H 0.44728 0.08925 0.50717 0.0
H195 H 0.43859 0.05719 0.44543 0.0
H196 H 0.414 0.89989 0.46229 0.0
H197 H 0.38462 0.86782 0.39464 0.0
H198 H 0.40017 0.90191 0.14021 0.0
H199 H 0.42937 0.93378 0.20799 0.0
Nd200 Nd 0.30498 0.47322 0.17955 0.0
Nd201 Nd 0.30819 0.43662 0.1597 0.0
C202 C 0.29014 0.50046 0.21213 0.0
C203 C 0.28322 0.51493 0.16954 0.0
C204 C 0.2788 0.52781 0.22329 0.0
C205 C 0.26896 0.53973 0.18842 0.0
C206 C 0.26321 0.53918 0.09837 0.0
C207 C 0.26851 0.52674 0.04368 0.0
C208 C 0.27824 0.51467 0.07895 0.0
C209 C 0.30705 0.46468 0.00284 0.0
C210 C 0.25261 0.42721 0.23216 0.0
C211 C 0.31631 0.40708 0.10837 0.0
C212 C 0.32918 0.39642 0.14318 0.0
C213 C 0.3296 0.38109 0.09539 0.0
C214 C 0.34018 0.36986 0.13083 0.0
C215 C 0.35048 0.37375 0.21493 0.0
C216 C 0.35043 0.38945 0.2618 0.0
C217 C 0.33986 0.40068 0.22622 0.0
C218 C 0.30879 0.445 0.33753 0.0
C219 C 0.36431 0.48121 0.14234 0.0
O220 O 0.27385 0.48096 0.20474 0.0
O221 O 0.31481 0.50514 0.20708 0.0
O222 O 0.31942 0.48277 0.03156 0.0
O223 O 0.29306 0.45141 0.06623 0.0
O224 O 0.26688 0.44602 0.25844 0.0
O225 O 0.26322 0.42143 0.16926 0.0
O226 O 0.33172 0.42637 0.08033 0.0
O227 O 0.29513 0.40371 0.15585 0.0
O228 O 0.29901 0.42688 0.30914 0.0
O229 O 0.32056 0.45865 0.27336 0.0
O230 O 0.35137 0.46211 0.1193 0.0
O231 O 0.35103 0.48927 0.17952 0.0
H232 H 0.28229 0.52824 0.29343 0.0
H233 H 0.26565 0.54929 0.2326 0.0
H234 H 0.26422 0.52572 0.9743 0.0
H235 H 0.28118 0.50472 0.03606 0.0
H236 H 0.32141 0.37761 0.03117 0.0
H237 H 0.34027 0.35811 0.09234 0.0
H238 H 0.35791 0.39271 0.32709 0.0
H239 H 0.33954 0.41242 0.26423 0.0
Nd240 Nd 0.50675 0.2775 0.64724 0.0
Nd241 Nd 0.56517 0.29016 0.64853 0.0
C242 C 0.4562 0.25968 0.62052 0.0
C243 C 0.44211 0.26791 0.57202 0.0
C244 C 0.45227 0.27822 0.48671 0.0
C245 C 0.44099 0.2883 0.44568 0.0
C246 C 0.41941 0.28849 0.4891 0.0
C247 C 0.40868 0.27759 0.57317 0.0
C248 C 0.41996 0.26741 0.61423 0.0
C249 C 0.53423 0.31866 0.68227 0.0
C250 C 0.54499 0.29861 0.4649 0.0
C251 C 0.61617 0.30398 0.65289 0.0
C252 C 0.63067 0.2969 0.70614 0.0
C253 C 0.62418 0.29189 0.7986 0.0
C254 C 0.63584 0.28302 0.84681 0.0
C255 C 0.65412 0.27881 0.80363 0.0
C256 C 0.66116 0.2844 0.71149 0.0
C257 C 0.64953 0.29335 0.6633 0.0
C258 C 0.53056 0.24828 0.64077 0.0
C259 C 0.52903 0.27331 0.83089 0.0
O260 O 0.47296 0.25677 0.57199 0.0
O261 O 0.46549 0.26809 0.69476 0.0
O262 O 0.50915 0.30791 0.67365 0.0
O263 O 0.54451 0.30776 0.66953 0.0
O264 O 0.52073 0.28944 0.50306 0.0
O265 O 0.56558 0.30219 0.50781 0.0
O266 O 0.60408 0.31192 0.69637 0.0
O267 O 0.60185 0.29157 0.5941 0.0
O268 O 0.55027 0.25623 0.69013 0.0
O269 O 0.52953 0.2625 0.59861 0.0
O270 O 0.55244 0.28732 0.79381 0.0
O271 O 0.50805 0.26434 0.78514 0.0
H272 H 0.46944 0.27902 0.45237 0.0
H273 H 0.44946 0.2962 0.38026 0.0
H274 H 0.39221 0.27756 0.60882 0.0
H275 H 0.41193 0.25974 0.68029 0.0
H276 H 0.60964 0.29439 0.83351 0.0
H277 H 0.63028 0.27925 0.91788 0.0
H278 H 0.67494 0.28119 0.67583 0.0
H279 H 0.65467 0.29693 0.59194 0.0
Nd280 Nd 0.04864 0.27049 0.64141 0.0
Nd281 Nd 1.02448 0.30028 0.6554 0.0
C282 C 0.07447 0.25134 0.60083 0.0
C283 C 0.06755 0.23003 0.58253 0.0
C284 C 0.07582 0.2263 0.49942 0.0
C285 C 0.06947 0.20641 0.48021 0.0
C286 C 0.05475 0.18958 0.54382 0.0
C287 C 0.04649 0.19338 0.62723 0.0
C288 C 0.05276 0.21329 0.64626 0.0
C289 C 0.99553 0.24712 0.70885 0.0
C290 C 1.02165 0.27877 0.47309 0.0
C291 C 0.99773 0.31875 0.69658 0.0
C292 C 1.00466 0.33979 0.71831 0.0
C293 C 0.98497 0.34337 0.75343 0.0
C294 C 0.99129 0.36316 0.77479 0.0
C295 C 1.01754 0.37992 0.76167 0.0
C296 C 1.03723 0.37618 0.72655 0.0
C297 C 1.03087 0.3564 0.7053 0.0
C298 C 0.07747 0.32362 0.58747 0.0
C299 C 0.05543 0.29516 0.8186 0.0
O300 O 0.06889 0.26117 0.54097 0.0
O301 O 0.06993 0.25486 0.68285 0.0
O302 O 1.01106 0.24014 0.69255 0.0
O303 O 1.00829 0.26625 0.68622 0.0
O304 O 1.03878 0.27408 0.50088 0.0
O305 O 1.00977 0.2859 0.52453 0.0
O306 O 1.00262 0.3083 0.7555 0.0
O307 O 1.00397 0.31655 0.61434 0.0
O308 O 0.06195 0.33062 0.60374 0.0
O309 O 0.06474 0.30448 0.61018 0.0
O310 O 1.03754 0.29916 0.79241 0.0
O311 O 0.06558 0.28647 0.76862 0.0
H312 H 0.08716 0.23883 0.44878 0.0
H313 H 0.07588 0.20424 0.41471 0.0
H314 H 1.03547 0.18101 0.67868 0.0
H315 H 0.04601 0.21552 0.71106 0.0
H316 H 0.96463 0.33082 0.76471 0.0
H317 H 0.97559 0.36522 0.80286 0.0
H318 H 0.05759 0.38862 0.71422 0.0
H319 H 0.04648 0.3541 0.67855 0.0
Nd320 Nd 0.06878 0.80624 0.65048 0.0
Nd321 Nd 1.00837 0.76447 0.67374 0.0
C322 C 0.11077 0.84395 0.61239 0.0
C323 C 0.13939 0.85623 0.57789 0.0
C324 C 0.149 0.87504 0.52786 0.0
C325 C 0.17608 0.88773 0.49964 0.0
C326 C 0.19456 0.88202 0.52036 0.0
C327 C 0.18476 0.86295 0.56947 0.0
C328 C 0.15762 0.85028 0.59798 0.0
C329 C 0.07121 0.77117 0.69765 0.0
C330 C 0.04543 0.77677 0.48623 0.0
C331 C 0.96547 0.72722 0.71206 0.0
C332 C 0.93624 0.7152 0.74041 0.0
C333 C 0.92692 0.70841 0.83076 0.0
C334 C 0.8997 0.69541 0.85672 0.0
C335 C 0.88075 0.68861 0.79323 0.0
C336 C 0.89014 0.69557 0.70286 0.0
C337 C 0.91735 0.70855 0.67694 0.0
C338 C 1.00626 0.79996 0.63089 0.0
C339 C 1.03501 0.79169 0.84181 0.0
O340 O 0.09309 0.83405 0.55578 0.0
O341 O 0.1046 0.83389 0.69111 0.0
O342 O 0.09139 0.78974 0.68344 0.0
O343 O 0.05058 0.77188 0.68475 0.0
O344 O 0.06139 0.79529 0.51189 0.0
O345 O 1.02586 0.76166 0.53879 0.0
O346 O 0.98192 0.73784 0.77091 0.0
O347 O 0.97359 0.73618 0.63088 0.0
O348 O 0.98591 0.78154 0.64599 0.0
O349 O 1.02668 0.79883 0.64064 0.0
O350 O 1.01877 0.77343 0.81436 0.0
O351 O 0.05228 0.80779 0.7884 0.0
H352 H 0.13552 0.88011 0.51142 0.0
H353 H 0.18249 0.90202 0.46099 0.0
H354 H 0.19816 0.85796 0.58792 0.0
H355 H 0.15096 0.83595 0.6368 0.0
H356 H 0.94075 0.71288 0.88172 0.0
H357 H 0.89355 0.69075 0.92701 0.0
H358 H 0.8765 0.69056 0.65125 0.0
H359 H 0.92361 0.71303 0.60656 0.0
H360 H 0.18299 0.65149 0.62081 0.0
H361 H 0.09834 0.62102 0.61053 0.0
H362 H 0.18872 0.65557 0.45713 0.0
H363 H 0.10376 0.62409 0.44878 0.0
H364 H 0.12206 0.64965 0.15864 0.0
H365 H 0.11689 0.64689 0.32221 0.0
H366 H 0.18316 0.63756 0.32864 0.0
H367 H 0.1889 0.6413 0.16643 0.0
C368 C 0.16566 0.64549 0.58353 0.0
C369 C 0.14029 0.63596 0.62834 0.0
C370 C 0.16884 0.64771 0.48976 0.0
C371 C 0.14667 0.6402 0.43912 0.0
C372 C 0.12134 0.63049 0.48482 0.0
C373 C 0.11823 0.62855 0.57796 0.0
C374 C 0.13536 0.64693 0.19544 0.0
C375 C 0.15591 0.64577 0.15013 0.0
C376 C 0.13244 0.64529 0.28918 0.0
C377 C 0.14975 0.64212 0.33928 0.0
C378 C 0.16987 0.6405 0.29302 0.0
C379 C 0.17299 0.64243 0.1998 0.0
H380 H 0.60491 0.5852 0.72343 0.0
H381 H 0.64713 0.55318 0.68447 0.0
H382 H 0.60344 0.58843 0.56135 0.0
H383 H 0.64452 0.55534 0.52475 0.0
H384 H 0.6585 0.57909 0.23441 0.0
H385 H 0.66124 0.57746 0.39575 0.0
H386 H 0.58339 0.56954 0.43895 0.0
H387 H 0.58146 0.57224 0.27804 0.0
C388 C 0.61367 0.57874 0.68024 0.0
C389 C 0.62611 0.56897 0.71639 0.0
C390 C 0.61272 0.58045 0.58749 0.0
C391 C 0.6239 0.57215 0.52948 0.0
C392 C 0.63621 0.56232 0.56656 0.0
C393 C 0.63749 0.56091 0.65858 0.0
C394 C 0.64199 0.57689 0.27872 0.0
C395 C 0.61982 0.57582 0.24414 0.0
C396 C 0.64346 0.5759 0.37122 0.0
C397 C 0.62254 0.57344 0.4309 0.0
C398 C 0.60013 0.57191 0.3955 0.0
C399 C 0.59888 0.57323 0.30324 0.0
H400 H 0.76672 0.09718 0.89774 0.0
H401 H 0.75432 0.14765 0.84583 0.0
H402 H 0.77012 0.09378 0.73659 0.0
H403 H 0.75751 0.14423 0.68547 0.0
H404 H 0.78948 0.14421 0.39642 0.0
H405 H 0.78852 0.14887 0.55759 0.0
H406 H 0.74198 0.08308 0.61353 0.0
H407 H 0.7431 0.07852 0.45464 0.0
C408 C 0.76454 0.10744 0.85198 0.0
C409 C 0.76006 0.12257 0.88467 0.0
C410 C 0.76648 0.10552 0.75955 0.0
C411 C 0.76414 0.11877 0.69753 0.0
C412 C 0.75978 0.13394 0.73072 0.0
C413 C 0.75769 0.13577 0.82291 0.0
C414 C 0.77912 0.13081 0.4434 0.0
C415 C 0.76647 0.11102 0.41252 0.0
C416 C 0.77846 0.13343 0.53573 0.0
C417 C 0.76532 0.11632 0.59904 0.0
C418 C 0.7527 0.09661 0.56742 0.0
C419 C 0.7532 0.09402 0.47582 0.0
H420 H 0.89947 0.93436 0.6965 0.0
H421 H 0.96519 0.92463 0.70467 0.0
H422 H 0.89471 0.93219 0.85988 0.0
H423 H 0.95985 0.92152 0.86713 0.0
H424 H 0.96034 0.93681 0.15864 0.0
H425 H 0.96606 0.94027 -0.00524 0.0
H426 H 0.88113 0.90927 0.98646 0.0
H427 H 0.87572 0.90676 0.148 0.0
C428 C 0.91259 0.93144 0.73339 0.0
C429 C 0.93269 0.9297 0.68824 0.0
C430 C 0.90991 0.93015 0.82701 0.0
C431 C 0.92701 0.92677 0.87721 0.0
C432 C 0.94672 0.9246 0.83123 0.0
C433 C 0.9496 0.92617 0.73798 0.0
C434 C 0.94303 0.9308 0.12129 0.0
C435 C 0.91766 0.92157 0.16598 0.0
C436 C 0.9462 0.93267 0.0275 0.0
C437 C 0.92402 0.92512 0.97692 0.0
C438 C 0.89871 0.9157 0.02251 0.0
C439 C 0.89561 0.91409 0.11555 0.0
H440 H 0.47032 0.98354 0.59677 0.0
H441 H 0.43021 1.01717 0.63525 0.0
H442 H 0.47138 0.97998 0.75887 0.0
H443 H 0.4324 1.01464 0.79523 0.0
H444 H 0.41738 0.99042 0.0857 0.0
H445 H 0.41492 0.99243 0.92421 0.0
H446 H 0.49174 0.99847 0.88162 0.0
H447 H 0.49337 0.99541 0.04247 0.0
C448 C 0.46195 0.99029 0.63988 0.0
C449 C 0.45021 1.0006 0.60357 0.0
C450 C 0.46266 0.98839 0.73267 0.0
C451 C 0.45195 0.99703 0.79065 0.0
C452 C 0.44035 1.00741 0.75343 0.0
C453 C 0.4393 1.00902 0.66129 0.0
C454 C 0.43372 0.99228 0.04147 0.0
C455 C 0.45551 0.99272 0.07621 0.0
C456 C 0.43241 0.99349 0.94889 0.0
C457 C 0.45311 0.99553 0.88932 0.0
C458 C 0.47515 0.99642 0.92492 0.0
C459 C 0.47623 0.99489 0.0172 0.0
H460 H 0.32323 0.48088 0.41793 0.0
H461 H 0.29534 0.41669 0.47604 0.0
H462 H 0.32177 0.48535 0.57838 0.0
H463 H 0.29502 0.42117 0.6351 0.0
H464 H 0.27339 0.4302 0.91851 0.0
H465 H 0.27334 0.42591 0.75779 0.0
H466 H 0.34197 0.48706 0.70944 0.0
H467 H 0.34108 0.4915 0.86864 0.0
C468 C 0.31713 0.46781 0.465 0.0
C469 C 0.30951 0.44849 0.43425 0.0
C470 C 0.31636 0.47033 0.55719 0.0
C471 C 0.30821 0.4536 0.62082 0.0
C472 C 0.30086 0.43435 0.58914 0.0
C473 C 0.30133 0.43182 0.49744 0.0
C474 C 0.2884 0.44266 0.87323 0.0
C475 C 0.30714 0.46119 0.90622 0.0
C476 C 0.28853 0.44023 0.78091 0.0
C477 C 0.30765 0.45618 0.71948 0.0
C478 C 0.32656 0.47457 0.7535 0.0
C479 C 0.3262 0.47706 0.84528 0.0
H480 H 0.5203 0.30917 0.34538 0.0
H481 H 0.57265 0.2857 0.37128 0.0
H482 H 0.51392 0.29868 0.19276 0.0
H483 H 0.56417 0.27317 0.22477 0.0
H484 H 0.56643 0.2738 0.92425 0.0
H485 H 0.57201 0.28122 0.07795 0.0
H486 H 0.49213 0.26995 0.11221 0.0
H487 H 0.48788 0.26464 0.95295 0.0
C488 C 0.53089 0.30221 0.31719 0.0
C489 C 0.54741 0.29864 0.36832 0.0
C490 C 0.52663 0.29561 0.23119 0.0
C491 C 0.53807 0.28465 0.19689 0.0
C492 C 0.55538 0.28185 0.24771 0.0
C493 C 0.56049 0.28922 0.33171 0.0
C494 C 0.54988 0.27254 0.96519 0.0
C495 C 0.52709 0.26934 0.92713 0.0
C496 C 0.55296 0.27665 0.05393 0.0
C497 C 0.5328 0.27681 0.10729 0.0
C498 C 0.50848 0.27081 0.07175 0.0
C499 C 0.50571 0.26725 0.98143 0.0
H500 H 1.0368 0.3138 0.37724 0.0
H501 H 1.01068 0.24993 0.35496 0.0
H502 H 0.05298 0.32133 0.22056 0.0
H503 H 1.02449 0.25682 0.1953 0.0
H504 H 0.06887 0.27364 0.93221 0.0
H505 H 0.06179 0.27108 0.095 0.0
H506 H 1.04298 0.31911 0.0774 0.0
H507 H 0.05236 0.32278 0.91783 0.0
C508 C 1.03323 0.3012 0.33704 0.0
C509 C 1.02198 0.28125 0.37663 0.0
C510 C 1.04276 0.30549 0.24734 0.0
C511 C 1.04044 0.28975 0.19492 0.0
C512 C 1.02746 0.26948 0.23398 0.0
C513 C 1.01878 0.26535 0.32458 0.0
C514 C 0.06445 0.28424 0.964 0.0
C515 C 0.06058 0.29807 0.91282 0.0
C516 C 0.05974 0.28247 0.05701 0.0
C517 C 0.05071 0.2943 0.09939 0.0
C518 C 0.04976 0.30964 0.04803 0.0
C519 C 0.05507 0.31171 0.95596 0.0
H520 H 1.00917 0.74686 0.38863 0.0
H521 H 0.0873 0.80134 0.3679 0.0
H522 H 1.00862 0.74952 0.22675 0.0
H523 H 0.08587 0.80502 0.20931 0.0
H524 H 0.0806 0.80425 0.91437 0.0
H525 H 0.08536 0.79585 0.06668 0.0
H526 H 1.00168 0.77131 0.13379 0.0
H527 H 0.99683 0.77815 0.97841 0.0
C528 C 1.0264 0.75911 0.34943 0.0
C529 C 0.04787 0.77429 0.39071 0.0
C530 C 1.02592 0.76087 0.25703 0.0
C531 C 0.04672 0.77796 0.20561 0.0
C532 C 0.06941 0.79171 0.24639 0.0
C533 C 0.07013 0.78969 0.33791 0.0
C534 C 0.06345 0.79758 0.96271 0.0
C535 C 1.03848 0.79221 0.93646 0.0
C536 C 0.06607 0.79255 0.04967 0.0
C537 C 1.04385 0.78267 0.11238 0.0
C538 C 1.01905 0.77832 0.08656 0.0
C539 C 1.01632 0.78273 -0.00137 0.0
H540 H 0.22478 0.54436 0.1834 0.0
H541 H 0.27322 0.56066 0.93377 0.0
H542 H 0.20477 0.56336 0.12949 0.0
H543 H 0.25263 0.57944 0.87871 0.0
H544 H 0.22803 0.62932 0.8536 0.0
H545 H 0.24928 0.61023 0.89823 0.0
H546 H 0.17448 0.56155 0.02434 0.0
H547 H 0.15347 0.5805 0.98068 0.0
C548 C 0.23132 0.55207 0.11698 0.0
C549 C 0.25084 0.55092 0.06347 0.0
C550 C 0.21953 0.56284 0.08544 0.0
C551 C 0.22685 0.57299 -0.00081 0.0
C552 C 0.24651 0.57199 0.94563 0.0
C553 C 0.25818 0.56101 0.97701 0.0
C554 C 0.21607 0.61445 0.89003 0.0
C555 C 0.18897 0.60662 0.91363 0.0
C556 C 0.22827 0.60344 0.91563 0.0
C557 C 0.21378 0.58434 0.96615 0.0
C558 C 0.18655 0.57634 0.9873 0.0
C559 C 0.17439 0.58723 0.96148 0.0
H560 H 0.68556 0.69416 0.23336 0.0
H561 H 0.72962 0.72281 0.97874 0.0
H562 H 0.71511 0.72505 0.30546 0.0
H563 H 0.75921 0.75382 0.05093 0.0
H564 H 0.82232 0.79892 0.22614 0.0
H565 H 0.79355 0.76787 0.15281 0.0
H566 H 0.72595 0.75986 0.3164 0.0
H567 H 0.75464 0.79081 0.38953 0.0
C568 C 0.7014 0.70712 0.19246 0.0
C569 C 0.70502 0.70594 0.09992 0.0
C570 C 0.7184 0.7249 0.23394 0.0
C571 C 0.73957 0.74208 0.18421 0.0
C572 C 0.74337 0.74085 0.09176 0.0
C573 C 0.72636 0.72303 0.05023 0.0
C574 C 0.80129 0.79063 0.24606 0.0
C575 C 0.79091 0.79743 0.31425 0.0
C576 C 0.78475 0.77278 0.20388 0.0
C577 C 0.75734 0.76121 0.22864 0.0
C578 C 0.74698 0.76808 0.29655 0.0
C579 C 0.7635 0.7859 0.33867 0.0
H580 H 0.67896 0.10423 0.20868 0.0
H581 H 0.6757 0.04688 0.17448 0.0
H582 H 0.63153 0.08618 0.24114 0.0
H583 H 0.6272 0.02847 0.2064 0.0
H584 H 0.54354 1.00238 0.36436 0.0
H585 H 0.59123 1.01872 0.32493 0.0
H586 H 0.59062 0.06809 0.17672 0.0
H587 H 0.54324 0.05195 0.21704 0.0
C588 C 0.66816 0.08767 0.20753 0.0
C589 C 0.68165 0.07715 0.18882 0.0
C590 C 0.64058 0.07724 0.22566 0.0
C591 C 0.62501 0.05572 0.2263 0.0
C592 C 0.63834 0.04503 0.2073 0.0
C593 C 0.66623 0.0556 0.18823 0.0
C594 C 0.55356 1.01677 0.32358 0.0
C595 C 0.53925 0.02585 0.29489 0.0
C596 C 0.58103 0.02609 0.30014 0.0
C597 C 0.59524 0.04491 0.24762 0.0
C598 C 0.58078 0.05383 0.21839 0.0
C599 C 0.55338 0.04448 0.24144 0.0
H600 H 0.74995 0.2403 0.07968 0.0
H601 H 0.67531 0.18448 0.05699 0.0
H602 H 0.73302 0.26019 0.00999 0.0
H603 H 0.65884 0.20425 0.98361 0.0
H604 H 0.62783 0.24683 0.93165 0.0
H605 H 0.64492 0.22833 0.01166 0.0
H606 H 0.72146 0.26656 0.86576 0.0
H607 H 0.70467 0.28573 0.78862 0.0
C608 C 0.72988 0.23227 0.06031 0.0
C609 C 0.71401 0.21076 0.07405 0.0
C610 C 0.72029 0.24366 0.01923 0.0
C611 C 0.69459 0.23384 0.99082 0.0
C612 C 0.67863 0.21236 0.00544 0.0
C613 C 0.6882 0.20098 0.0466 0.0
C614 C 0.64844 0.25154 0.9176 0.0
C615 C 0.66488 0.26784 0.85371 0.0
C616 C 0.65815 0.24073 0.9627 0.0
C617 C 0.68455 0.24586 0.94497 0.0
C618 C 0.70109 0.2623 0.88179 0.0
C619 C 0.69138 0.27315 0.83672 0.0
H620 H 0.98864 0.39878 0.74008 0.0
H621 H 0.06199 0.40948 0.83513 0.0
H622 H 0.99978 0.43317 0.77594 0.0
H623 H 0.07311 0.44384 0.87125 0.0
H624 H 0.09768 0.51161 0.84502 0.0
H625 H 0.08637 0.47723 0.80894 0.0
H626 H 1.00438 0.45448 0.89414 0.0
H627 H 1.01547 0.48906 0.92595 0.0
C628 C 1.00705 0.40834 0.76948 0.0
C629 C 1.02436 0.40114 0.78439 0.0
C630 C 1.01347 0.42818 0.79021 0.0
C631 C 1.03743 0.44152 0.8267 0.0
C632 C 0.0547 0.43429 0.84185 0.0
C633 C 0.04829 0.41446 0.82104 0.0
C634 C 0.07716 0.49938 0.85522 0.0
C635 C 0.05756 0.50338 0.8884 0.0
C636 C 0.07069 0.47948 0.83555 0.0
C637 C 0.04439 0.46283 0.84845 0.0
C638 C 1.02481 0.46681 0.88204 0.0
C639 C 1.03127 0.48672 0.9016 0.0
H640 H 0.85642 0.65677 0.92669 0.0
H641 H 0.83802 0.68772 0.72249 0.0
H642 H 0.80924 0.63428 0.97185 0.0
H643 H 0.79109 0.66478 0.76482 0.0
H644 H 0.71057 0.63667 0.91403 0.0
H645 H 0.7578 0.65811 0.87706 0.0
H646 H 0.76692 0.60618 0.9351 0.0
H647 H 0.71895 0.58452 0.97448 0.0
C648 C 0.84244 0.65889 0.89127 0.0
C649 C 0.8515 0.67436 0.82075 0.0
C650 C 0.81517 0.64571 0.91664 0.0
C651 C 0.79592 0.64756 0.87277 0.0
C652 C 0.80502 0.6629 0.80178 0.0
C653 C 0.83219 0.67602 0.77642 0.0
C654 C 0.72246 0.62966 0.91932 0.0
C655 C 0.71055 0.60865 0.94695 0.0
C656 C 0.74982 0.64206 0.8972 0.0
C657 C 0.7666 0.63404 0.90117 0.0
C658 C 0.75488 0.6131 0.93121 0.0
C659 C 0.72726 0.60059 0.95377 0.0
H660 H 1.03441 0.72828 0.71881 0.0
H661 H 0.11572 0.77397 0.749 0.0
H662 H 1.04386 0.70103 0.76187 0.0
H663 H 0.12481 0.74751 0.79226 0.0
H664 H 0.14567 0.69969 0.75266 0.0
H665 H 0.1301 0.72261 0.71551 0.0
H666 H 0.05833 0.68465 0.8861 0.0
H667 H 0.07404 0.66096 0.92321 0.0
C668 C 0.05414 0.73257 0.73508 0.0
C669 C 0.07433 0.75348 0.72893 0.0
C670 C 0.05959 0.71694 0.76013 0.0
C671 C 0.08535 0.72187 0.77924 0.0
C672 C 0.10494 0.74282 0.77603 0.0
C673 C 0.09959 0.75816 0.75131 0.0
C674 C 0.1265 0.69597 0.7829 0.0
C675 C 0.11141 0.67833 0.84221 0.0
C676 C 0.11752 0.70934 0.7615 0.0
C677 C 0.093 0.7059 0.79845 0.0
C678 C 0.07731 0.68793 0.85596 0.0
C679 C 0.08642 0.67437 0.87776 0.0
H680 H 0.54762 0.42636 0.90243 0.0
H681 H 0.63 0.44643 0.84202 0.0
H682 H 0.53494 0.39332 0.84572 0.0
H683 H 0.61725 0.41319 0.7837 0.0
H684 H 0.58141 0.34207 0.76082 0.0
H685 H 0.59808 0.37639 0.81612 0.0
H686 H 0.53293 0.37843 0.71008 0.0
H687 H 0.51619 0.34444 0.65856 0.0
C688 C 0.5631 0.42386 0.87594 0.0
C689 C 0.58987 0.43933 0.87612 0.0
C690 C 0.55581 0.40479 0.84311 0.0
C691 C 0.57499 0.40046 0.80846 0.0
C692 C 0.60184 0.41578 0.81012 0.0
C693 C 0.60917 0.43492 0.84353 0.0
C694 C 0.57095 0.35006 0.74865 0.0
C695 C 0.54736 0.34044 0.70587 0.0
C696 C 0.58045 0.36973 0.78036 0.0
C697 C 0.5666 0.3802 0.76954 0.0
C698 C 0.54378 0.37079 0.72265 0.0
C699 C 0.53427 0.35126 0.69208 0.0
H700 H 0.95961 0.25693 0.79023 0.0
H701 H 0.9697 0.20601 0.73375 0.0
H702 H 0.91683 0.23282 0.87506 0.0
H703 H 0.92854 0.18254 0.81926 0.0
H704 H 0.8437 0.13957 0.91978 0.0
H705 H 0.88316 0.16473 0.82676 0.0
H706 H 0.89572 0.21103 0.00891 0.0
H707 H 0.8555 0.18592 0.10001 0.0
C708 C 0.95267 0.24067 0.79502 0.0
C709 C 0.96821 0.23352 0.7544 0.0
C710 C 0.92823 0.22679 0.84458 0.0
C711 C 0.91873 0.20543 0.85458 0.0
C712 C 0.93437 0.19857 0.81244 0.0
C713 C 0.9584 0.21225 0.76338 0.0
C714 C 0.85493 0.15505 0.94057 0.0
C715 C 0.84635 0.16047 0.0185 0.0
C716 C 0.87779 0.16964 0.88698 0.0
C717 C 0.89322 0.19019 0.90975 0.0
C718 C 0.8845 0.1956 0.98772 0.0
C719 C 0.86145 0.18102 0.04088 0.0
H720 H 0.85916 0.0455 0.32231 0.0
H721 H 0.79435 0.99038 0.2316 0.0
H722 H 0.87878 0.02599 0.37443 0.0
H723 H 0.81442 0.97093 0.28167 0.0
H724 H 0.84626 0.93781 0.45103 0.0
H725 H 0.82504 0.95716 0.41126 0.0
H726 H 0.90135 1.00939 0.31739 0.0
H727 H 0.92242 0.99022 0.35783 0.0
C728 C 0.8489 0.02918 0.31395 0.0
C729 C 0.825 1.01965 0.27248 0.0
C730 C 0.8604 1.01797 0.34309 0.0
C731 C 0.84838 0.99676 0.33234 0.0
C732 C 0.82426 0.98715 0.29211 0.0
C733 C 0.81284 0.9984 0.26236 0.0
C734 C 0.85855 0.9535 0.4229 0.0
C735 C 0.88615 0.96236 0.40803 0.0
C736 C 0.84632 0.96459 0.39916 0.0
C737 C 0.86133 0.98495 0.36058 0.0
C738 C 0.889 0.99389 0.34769 0.0
C739 C 0.90115 0.98279 0.37068 0.0
H740 H 0.39862 0.87028 0.09934 0.0
H741 H 0.34149 0.84998 0.32868 0.0
H742 H 0.36977 0.83884 0.02939 0.0
H743 H 0.31226 0.81862 0.25808 0.0
H744 H 0.27627 0.75581 0.14291 0.0
H745 H 0.30583 0.78673 0.21495 0.0
H746 H 0.33002 0.82175 0.95927 0.0
H747 H 0.30171 0.79068 0.88674 0.0
C748 C 0.37976 0.85918 0.13456 0.0
C749 C 0.37241 0.86274 0.21967 0.0
C750 C 0.3631 0.8411 0.09426 0.0
C751 C 0.33846 0.82606 0.13752 0.0
C752 C 0.33119 0.82961 0.22299 0.0
C753 C 0.34796 0.84765 0.26358 0.0
C754 C 0.28814 0.77003 0.10172 0.0
C755 C 0.28648 0.77058 0.00861 0.0
C756 C 0.30489 0.78791 0.1434 0.0
C757 C 0.32046 0.80691 0.09333 0.0
C758 C 0.31871 0.80744 0.00028 0.0
C759 C 0.30208 0.78958 0.95861 0.0
H760 H 0.53297 0.56718 0.95944 0.0
H761 H 0.53168 0.51543 0.09221 0.0
H762 H 0.48533 0.55106 -0.00225 0.0
H763 H 0.48417 0.4994 0.13119 0.0
H764 H 0.39551 0.46552 0.09721 0.0
H765 H 0.44302 0.48287 0.06515 0.0
H766 H 0.44976 0.54071 0.11774 0.0
H767 H 0.40137 0.52309 0.14961 0.0
C768 C 0.5226 0.55233 -0.00329 0.0
C769 C 0.53647 0.54262 0.02181 0.0
C770 C 0.49514 0.54313 0.01953 0.0
C771 C 0.48046 0.52378 0.06773 0.0
C772 C 0.49443 0.51414 0.09304 0.0
C773 C 0.52188 0.5234 0.07077 0.0
C774 C 0.4069 0.48196 0.10237 0.0
C775 C 0.39415 0.49278 0.1262 0.0
C776 C 0.43448 0.49197 0.08441 0.0
C777 C 0.45072 0.51332 0.0889 0.0
C778 C 0.4381 0.52428 0.11275 0.0
C779 C 0.41026 0.51415 0.13169 0.0
H780 H 0.96542 0.80433 0.68543 0.0
H781 H 1.03988 0.83663 0.5243 0.0
H782 H 0.95518 0.83001 0.63838 0.0
H783 H 1.02909 0.86253 0.47289 0.0
H784 H 1.00456 0.9134 0.45097 0.0
H785 H 1.02068 0.8906 0.49756 0.0
H786 H 0.94057 0.83893 0.51548 0.0
H787 H 0.92477 0.86148 0.47292 0.0
C788 C 0.97979 0.81707 0.63984 0.0
C789 C 1.00348 0.81822 0.6089 0.0
C790 C 0.97371 0.83183 0.61153 0.0
C791 C 0.99077 0.84833 0.54902 0.0
C792 C 1.01524 0.85012 0.52069 0.0
C793 C 1.02154 0.83528 0.55039 0.0
C794 C 0.99048 0.89713 0.46425 0.0
C795 C 0.96322 0.88946 0.45884 0.0
C796 C 0.99974 0.88397 0.49113 0.0
C797 C 0.98203 0.86273 0.51305 0.0
C798 C 0.955 0.85515 0.50296 0.0
C799 C 0.94583 0.86819 0.47735 0.0
H800 H 0.49893 0.23064 0.50345 0.0
H801 H 0.53699 0.21774 0.71118 0.0
H802 H 0.48412 0.19675 0.44867 0.0
H803 H 0.52292 0.18425 0.65572 0.0
H804 H 0.47801 0.11841 0.57992 0.0
H805 H 0.48739 0.15065 0.63951 0.0
H806 H 0.5005 0.1781 0.37098 0.0
H807 H 0.48988 0.14559 0.31154 0.0
C808 C 0.50396 0.22051 0.53789 0.0
C809 C 0.51917 0.22697 0.61178 0.0
C810 C 0.49569 0.20111 0.50596 0.0
C811 C 0.50236 0.18757 0.54712 0.0
C812 C 0.517 0.19395 0.62254 0.0
C813 C 0.52524 0.21329 0.65429 0.0
C814 C 0.48251 0.13119 0.53334 0.0
C815 C 0.48323 0.12918 0.44049 0.0
C816 C 0.48824 0.14987 0.56769 0.0
C817 C 0.49491 0.16725 0.51047 0.0
C818 C 0.49523 0.16515 0.41766 0.0
C819 C 0.48949 0.14646 0.38332 0.0
H820 H 0.11244 0.31385 0.49833 0.0
H821 H 0.10429 0.36479 0.57173 0.0
H822 H 0.15522 0.33823 0.41384 0.0
H823 H 0.14547 0.38856 0.4869 0.0
H824 H 0.23058 0.43105 0.39055 0.0
H825 H 0.19095 0.40527 0.48045 0.0
H826 H 0.17633 0.36167 0.28217 0.0
H827 H 0.21685 0.38748 0.19352 0.0
C828 C 0.11984 0.33016 0.49748 0.0
C829 C 0.10486 0.33726 0.5427 0.0
C830 C 0.14425 0.3442 0.4481 0.0
C831 C 0.15427 0.36565 0.44311 0.0
C832 C 0.13919 0.37244 0.48979 0.0
C833 C 0.11518 0.3586 0.5385 0.0
C834 C 0.21886 0.41606 0.3654 0.0
C835 C 0.22694 0.41161 0.28365 0.0
C836 C 0.19591 0.40111 0.41726 0.0
C837 C 0.17986 0.38114 0.38908 0.0
C838 C 0.18805 0.37666 0.3073 0.0
C839 C 0.21123 0.39162 0.25564 0.0
H840 H 0.4477 0.32668 0.40132 0.0
H841 H 0.36764 0.27829 0.48516 0.0
H842 H 0.43105 0.34687 0.33352 0.0
H843 H 0.35099 0.29893 0.42043 0.0
H844 H 0.3296 0.33226 0.21206 0.0
H845 H 0.34625 0.31167 0.27661 0.0
H846 H 0.41036 0.36604 0.37559 0.0
H847 H 0.39435 0.38676 0.30779 0.0
C848 C 0.42651 0.32029 0.40502 0.0
C849 C 0.409 0.30077 0.44828 0.0
C850 C 0.41698 0.33201 0.36713 0.0
C851 C 0.38967 0.32457 0.37165 0.0
C852 C 0.37213 0.30505 0.4149 0.0
C853 C 0.38168 0.2933 0.45288 0.0
C854 C 0.34744 0.33987 0.24664 0.0
C855 C 0.36068 0.3612 0.25442 0.0
C856 C 0.35679 0.32801 0.28469 0.0
C857 C 0.37962 0.33717 0.33147 0.0
C858 C 0.39287 0.3585 0.33921 0.0
C859 C 0.38352 0.37036 0.30117 0.0
H860 H 0.05944 0.07874 0.43433 0.0
H861 H 0.97701 0.05954 0.42587 0.0
H862 H 0.06951 0.11293 0.46789 0.0
H863 H 0.98736 0.09412 0.45451 0.0
H864 H 1.00934 0.15243 0.59652 0.0
H865 H 0.99909 0.11802 0.56522 0.0
H866 H 0.07419 0.14376 0.40861 0.0
H867 H 0.08507 0.17804 0.44407 0.0
C868 C 1.04338 0.08173 0.43956 0.0
C869 C 1.01731 0.06609 0.42761 0.0
C870 C 0.04926 0.10157 0.45766 0.0
C871 C 1.02934 0.10656 0.46405 0.0
C872 C 1.00329 0.09097 0.45142 0.0
C873 C 0.99737 0.07109 0.4336 0.0
C874 C 1.02388 0.15081 0.55635 0.0
C875 C 0.04814 0.16827 0.52326 0.0
C876 C 1.0178 0.13096 0.53717 0.0
C877 C 1.03572 0.12785 0.48404 0.0
C878 C 0.05992 0.14532 0.4507 0.0
C879 C 0.06604 0.16515 0.47012 0.0
H880 H 0.22506 0.92455 0.51136 0.0
H881 H 0.23096 0.87137 0.46308 0.0
H882 H 0.27234 0.94683 0.46825 0.0
H883 H 0.27803 0.89356 0.4194 0.0
H884 H 0.36591 0.93537 0.44297 0.0
H885 H 0.3186 0.91427 0.47778 0.0
H886 H 0.30847 0.96154 0.35337 0.0
H887 H 0.35668 0.98322 0.32008 0.0
C888 C 0.23628 0.91752 0.49064 0.0
C889 C 0.2238 0.89593 0.49166 0.0
C890 C 0.2636 0.93042 0.4656 0.0
C891 C 0.27953 0.92223 0.44055 0.0
C892 C 0.2669 0.90065 0.44005 0.0
C893 C 0.23965 0.88779 0.4653 0.0
C894 C 0.3538 0.94144 0.42246 0.0
C895 C 0.36553 0.96121 0.37825 0.0
C896 C 0.32632 0.9291 0.44206 0.0
C897 C 0.30917 0.93587 0.41812 0.0
C898 C 0.32081 0.95569 0.37383 0.0
C899 C 0.34856 0.96816 0.35408 0.0
loop_
_geom_bond_atom_site_label_1
_geom_bond_atom_site_label_2
_geom_bond_distance
_geom_bond_site_symmetry_2
_ccdc_geom_bond_type
Nd0 C2 2.836 . S
Nd0 O20 2.500 . S
Nd0 O21 2.492 . S
Nd0 O22 2.487 1_554 S
Nd0 O23 2.682 . S
Nd0 O24 2.410 . S
Nd0 O29 2.414 . S
Nd0 O31 2.424 . S
Nd1 C11 2.836 . S
Nd1 O23 2.414 . S
Nd1 O25 2.424 . S
Nd1 O26 2.500 . S
Nd1 O27 2.492 . S
Nd1 O28 2.487 . S
Nd1 O29 2.682 . S
Nd1 O30 2.410 . S
C2 Nd0 2.836 . S
C2 C3 1.498 . S
C2 O20 1.258 . S
C2 O21 1.239 . S
C3 C2 1.498 . S
C3 C4 1.366 . S
C3 C8 1.407 . S
C4 C3 1.366 . S
C4 C5 1.392 . S
C4 H32 0.930 . S
C5 C4 1.392 . S
C5 C6 1.398 . S
C5 H33 0.929 . S
C6 C5 1.398 . S
C6 C7 1.352 . S
C7 C6 1.352 . S
C7 C8 1.384 . S
C7 H34 0.930 1_455 S
C8 C3 1.407 . S
C8 C7 1.384 . S
C8 H35 0.929 . S
C9 O22 1.241 . S
C9 O23 1.273 1_556 S
C10 O24 1.251 . S
C10 O25 1.268 . S
C11 Nd1 2.836 . S
C11 C12 1.498 . S
C11 O26 1.258 . S
C11 O27 1.239 . S
C12 C11 1.498 . S
C12 C13 1.366 . S
C12 C17 1.407 . S
C13 C12 1.366 . S
C13 C14 1.392 . S
C13 H36 0.930 . S
C14 C13 1.392 . S
C14 C15 1.398 . S
C14 H37 0.929 1_554 S
C15 C14 1.398 . S
C15 C16 1.352 . S
C16 C15 1.352 . S
C16 C17 1.384 . S
C16 H38 0.930 . S
C17 C12 1.407 . S
C17 C16 1.384 . S
C17 H39 0.929 . S
C18 O28 1.241 . S
C18 O29 1.273 . S
C19 O30 1.251 . S
C19 O31 1.268 . S
O20 Nd0 2.500 . S
O20 C2 1.258 . S
O21 Nd0 2.492 . S
O21 C2 1.239 . S
O22 Nd0 2.487 1_556 S
O22 C9 1.241 . S
O23 Nd0 2.682 . S
O23 Nd1 2.414 . S
O23 C9 1.273 1_554 S
O24 Nd0 2.410 . S
O24 C10 1.251 . S
O25 Nd1 2.424 . S
O25 C10 1.268 . S
O26 Nd1 2.500 . S
O26 C11 1.258 . S
O27 Nd1 2.492 . S
O27 C11 1.239 . S
O28 Nd1 2.487 . S
O28 C18 1.241 . S
O29 Nd0 2.414 . S
O29 Nd1 2.682 . S
O29 C18 1.273 . S
O30 Nd1 2.410 . S
O30 C19 1.251 . S
O31 Nd0 2.424 . S
O31 C19 1.268 . S
H32 C4 0.930 . S
H33 C5 0.929 . S
H34 C7 0.930 1_655 S
H35 C8 0.929 . S
H36 C13 0.930 . S
H37 C14 0.929 1_556 S
H38 C16 0.930 . S
H39 C17 0.929 . S
Nd40 C42 2.836 . S
Nd40 O60 2.500 . S
Nd40 O61 2.492 . S
Nd40 O62 2.487 . S
Nd40 O63 2.682 . S
Nd40 O64 2.410 . S
Nd40 O69 2.414 . S
Nd40 O71 2.424 . S
Nd41 C51 2.836 . S
Nd41 O63 2.414 . S
Nd41 O65 2.424 . S
Nd41 O66 2.500 . S
Nd41 O67 2.492 . S
Nd41 O68 2.487 1_554 S
Nd41 O69 2.682 . S
Nd41 O70 2.410 . S
C42 Nd40 2.836 . S
C42 C43 1.498 . S
C42 O60 1.258 . S
C42 O61 1.239 . S
C43 C42 1.498 . S
C43 C44 1.366 . S
C43 C48 1.407 . S
C44 C43 1.366 . S
C44 C45 1.392 . S
C44 H72 0.930 . S
C45 C44 1.392 . S
C45 C46 1.398 . S
C45 H73 0.929 . S
C46 C45 1.398 . S
C46 C47 1.352 . S
C47 C46 1.352 . S
C47 C48 1.384 . S
C47 H74 0.930 . S
C48 C43 1.407 . S
C48 C47 1.384 . S
C48 H75 0.929 . S
C49 O62 1.241 . S
C49 O63 1.273 . S
C50 O64 1.251 . S
C50 O65 1.268 . S
C51 Nd41 2.836 . S
C51 C52 1.498 . S
C51 O66 1.258 . S
C51 O67 1.239 . S
C52 C51 1.498 . S
C52 C53 1.366 . S
C52 C57 1.407 . S
C53 C52 1.366 . S
C53 C54 1.392 . S
C53 H76 0.930 . S
C54 C53 1.392 . S
C54 C55 1.398 . S
C54 H77 0.929 . S
C55 C54 1.398 . S
C55 C56 1.352 . S
C56 C55 1.352 . S
C56 C57 1.384 . S
C56 H78 0.930 . S
C57 C52 1.407 . S
C57 C56 1.384 . S
C57 H79 0.929 . S
C58 O68 1.241 . S
C58 O69 1.273 1_556 S
C59 O70 1.251 . S
C59 O71 1.268 . S
O60 Nd40 2.500 . S
O60 C42 1.258 . S
O61 Nd40 2.492 . S
O61 C42 1.239 . S
O62 Nd40 2.487 . S
O62 C49 1.241 . S
O63 Nd40 2.682 . S
O63 Nd41 2.414 . S
O63 C49 1.273 . S
O64 Nd40 2.410 . S
O64 C50 1.251 . S
O65 Nd41 2.424 . S
O65 C50 1.268 . S
O66 Nd41 2.500 . S
O66 C51 1.258 . S
O67 Nd41 2.492 . S
O67 C51 1.239 . S
O68 Nd41 2.487 1_556 S
O68 C58 1.241 . S
O69 Nd40 2.414 . S
O69 Nd41 2.682 . S
O69 C58 1.273 1_554 S
O70 Nd41 2.410 . S
O70 C59 1.251 . S
O71 Nd40 2.424 . S
O71 C59 1.268 . S
H72 C44 0.930 . S
H73 C45 0.929 . S
H74 C47 0.930 . S
H75 C48 0.929 . S
H76 C53 0.930 . S
H77 C54 0.929 . S
H78 C56 0.930 . S
H79 C57 0.929 . S
Nd80 C82 2.836 . S
Nd80 O100 2.500 . S
Nd80 O101 2.492 . S
Nd80 O102 2.487 . S
Nd80 O103 2.682 . S
Nd80 O104 2.410 . S
Nd80 O109 2.414 . S
Nd80 O111 2.424 . S
Nd81 C91 2.836 . S
Nd81 O103 2.414 . S
Nd81 O105 2.424 . S
Nd81 O106 2.500 . S
Nd81 O107 2.492 . S
Nd81 O108 2.487 . S
Nd81 O109 2.682 . S
Nd81 O110 2.410 . S
C82 Nd80 2.836 . S
C82 C83 1.498 . S
C82 O100 1.258 . S
C82 O101 1.239 . S
C83 C82 1.498 . S
C83 C84 1.366 . S
C83 C88 1.407 . S
C84 C83 1.366 . S
C84 C85 1.392 . S
C84 H112 0.930 . S
C85 C84 1.392 . S
C85 C86 1.398 . S
C85 H113 0.929 . S
C86 C85 1.398 . S
C86 C87 1.352 . S
C87 C86 1.352 . S
C87 C88 1.384 . S
C87 H114 0.930 . S
C88 C83 1.407 . S
C88 C87 1.384 . S
C88 H115 0.929 . S
C89 O102 1.241 . S
C89 O103 1.273 . S
C90 O104 1.251 . S
C90 O105 1.268 . S
C91 Nd81 2.836 . S
C91 C92 1.498 . S
C91 O106 1.258 . S
C91 O107 1.239 . S
C92 C91 1.498 . S
C92 C93 1.366 . S
C92 C97 1.407 . S
C93 C92 1.366 . S
C93 C94 1.392 . S
C93 H116 0.930 . S
C94 C93 1.392 . S
C94 C95 1.398 . S
C94 H117 0.929 . S
C95 C94 1.398 . S
C95 C96 1.352 . S
C96 C95 1.352 . S
C96 C97 1.384 . S
C96 H118 0.930 . S
C97 C92 1.407 . S
C97 C96 1.384 . S
C97 H119 0.929 . S
C98 O108 1.241 . S
C98 O109 1.273 . S
C99 O110 1.251 . S
C99 O111 1.268 . S
O100 Nd80 2.500 . S
O100 C82 1.258 . S
O101 Nd80 2.492 . S
O101 C82 1.239 . S
O102 Nd80 2.487 . S
O102 C89 1.241 . S
O103 Nd80 2.682 . S
O103 Nd81 2.414 . S
O103 C89 1.273 . S
O104 Nd80 2.410 . S
O104 C90 1.251 . S
O105 Nd81 2.424 . S
O105 C90 1.268 . S
O106 Nd81 2.500 . S
O106 C91 1.258 . S
O107 Nd81 2.492 . S
O107 C91 1.239 . S
O108 Nd81 2.487 . S
O108 C98 1.241 . S
O109 Nd80 2.414 . S
O109 Nd81 2.682 . S
O109 C98 1.273 . S
O110 Nd81 2.410 . S
O110 C99 1.251 . S
O111 Nd80 2.424 . S
O111 C99 1.268 . S
H112 C84 0.930 . S
H113 C85 0.929 . S
H114 C87 0.930 . S
H115 C88 0.929 . S
H116 C93 0.930 . S
H117 C94 0.929 . S
H118 C96 0.930 . S
H119 C97 0.929 . S
Nd120 C122 2.836 . S
Nd120 O140 2.500 . S
Nd120 O141 2.492 . S
Nd120 O142 2.487 . S
Nd120 O143 2.682 . S
Nd120 O144 2.410 . S
Nd120 O149 2.414 . S
Nd120 O151 2.424 . S
Nd121 C131 2.836 . S
Nd121 O143 2.414 . S
Nd121 O145 2.424 . S
Nd121 O146 2.500 . S
Nd121 O147 2.492 . S
Nd121 O148 2.487 . S
Nd121 O149 2.682 . S
Nd121 O150 2.410 . S
C122 Nd120 2.836 . S
C122 C123 1.498 . S
C122 O140 1.258 . S
C122 O141 1.239 . S
C123 C122 1.498 . S
C123 C124 1.366 . S
C123 C128 1.407 . S
C124 C123 1.366 . S
C124 C125 1.392 . S
C124 H152 0.930 . S
C125 C124 1.392 . S
C125 C126 1.398 . S
C125 H153 0.929 . S
C126 C125 1.398 . S
C126 C127 1.352 . S
C127 C126 1.352 . S
C127 C128 1.384 . S
C127 H154 0.930 . S
C128 C123 1.407 . S
C128 C127 1.384 . S
C128 H155 0.929 . S
C129 O142 1.241 . S
C129 O143 1.273 . S
C130 O144 1.251 . S
C130 O145 1.268 . S
C131 Nd121 2.836 . S
C131 C132 1.498 1_565 S
C131 O146 1.258 . S
C131 O147 1.239 . S
C132 C131 1.498 1_545 S
C132 C133 1.366 . S
C132 C137 1.407 . S
C133 C132 1.366 . S
C133 C134 1.392 . S
C133 H156 0.930 . S
C134 C133 1.392 . S
C134 C135 1.398 . S
C134 H157 0.929 . S
C135 C134 1.398 . S
C135 C136 1.352 . S
C136 C135 1.352 . S
C136 C137 1.384 . S
C136 H158 0.930 . S
C137 C132 1.407 . S
C137 C136 1.384 . S
C137 H159 0.929 . S
C138 O148 1.241 . S
C138 O149 1.273 . S
C139 O150 1.251 . S
C139 O151 1.268 . S
O140 Nd120 2.500 . S
O140 C122 1.258 . S
O141 Nd120 2.492 . S
O141 C122 1.239 . S
O142 Nd120 2.487 . S
O142 C129 1.241 . S
O143 Nd120 2.682 . S
O143 Nd121 2.414 . S
O143 C129 1.273 . S
O144 Nd120 2.410 . S
O144 C130 1.251 . S
O145 Nd121 2.424 . S
O145 C130 1.268 . S
O146 Nd121 2.500 . S
O146 C131 1.258 . S
O147 Nd121 2.492 . S
O147 C131 1.239 . S
O148 Nd121 2.487 . S
O148 C138 1.241 . S
O149 Nd120 2.414 . S
O149 Nd121 2.682 . S
O149 C138 1.273 . S
O150 Nd121 2.410 . S
O150 C139 1.251 . S
O151 Nd120 2.424 . S
O151 C139 1.268 . S
H152 C124 0.930 . S
H153 C125 0.929 . S
H154 C127 0.930 . S
H155 C128 0.929 . S
H156 C133 0.930 . S
H157 C134 0.929 . S
H158 C136 0.930 . S
H159 C137 0.929 . S
Nd160 C162 2.836 . S
Nd160 O180 2.500 . S
Nd160 O181 2.492 . S
Nd160 O182 2.487 . S
Nd160 O183 2.682 1_545 S
Nd160 O184 2.410 . S
Nd160 O189 2.414 . S
Nd160 O191 2.424 1_545 S
Nd161 C171 2.836 . S
Nd161 O183 2.414 . S
Nd161 O185 2.424 1_565 S
Nd161 O186 2.500 . S
Nd161 O187 2.492 . S
Nd161 O188 2.493 . S
Nd161 O189 2.682 1_565 S
Nd161 O190 2.410 . S
C162 Nd160 2.836 . S
C162 C163 1.498 . S
C162 O180 1.258 . S
C162 O181 1.239 . S
C163 C162 1.498 . S
C163 C164 1.366 . S
C163 C168 1.407 . S
C164 C163 1.366 . S
C164 C165 1.392 . S
C164 H192 0.930 . S
C165 C164 1.392 . S
C165 C166 1.398 . S
C165 H193 0.929 . S
C166 C165 1.398 . S
C166 C167 1.352 . S
C167 C166 1.352 . S
C167 C168 1.384 . S
C167 H194 0.930 . S
C168 C163 1.407 . S
C168 C167 1.384 . S
C168 H195 0.929 . S
C169 O182 1.241 1_565 S
C169 O183 1.273 . S
C170 O184 1.251 . S
C170 O185 1.268 . S
C171 Nd161 2.836 . S
C171 C172 1.498 . S
C171 O186 1.258 . S
C171 O187 1.239 . S
C172 C171 1.498 . S
C172 C173 1.366 . S
C172 C177 1.407 . S
C173 C172 1.366 . S
C173 C174 1.392 . S
C173 H196 0.930 . S
C174 C173 1.392 . S
C174 C175 1.398 . S
C174 H197 0.929 . S
C175 C174 1.398 . S
C175 C176 1.352 . S
C176 C175 1.352 . S
C176 C177 1.384 . S
C176 H198 0.930 . S
C177 C172 1.407 . S
C177 C176 1.384 . S
C177 H199 0.929 . S
C178 O188 1.301 . S
C178 O189 1.249 1_565 S
C179 O190 1.251 . S
C179 O191 1.268 . S
O180 Nd160 2.500 . S
O180 C162 1.258 . S
O181 Nd160 2.492 . S
O181 C162 1.239 . S
O182 Nd160 2.487 . S
O182 C169 1.241 1_545 S
O183 Nd160 2.682 1_565 S
O183 Nd161 2.414 . S
O183 C169 1.273 . S
O184 Nd160 2.410 . S
O184 C170 1.251 . S
O185 Nd161 2.424 1_545 S
O185 C170 1.268 . S
O186 Nd161 2.500 . S
O186 C171 1.258 . S
O187 Nd161 2.492 . S
O187 C171 1.239 . S
O188 Nd161 2.493 . S
O188 C178 1.301 . S
O189 Nd160 2.414 . S
O189 Nd161 2.682 1_545 S
O189 C178 1.249 1_545 S
O190 Nd161 2.410 . S
O190 C179 1.251 . S
O191 Nd160 2.424 1_565 S
O191 C179 1.268 . S
H192 C164 0.930 . S
H193 C165 0.929 . S
H194 C167 0.930 . S
H195 C168 0.929 . S
H196 C173 0.930 . S
H197 C174 0.929 . S
H198 C176 0.930 . S
H199 C177 0.929 . S
Nd200 C202 2.836 . S
Nd200 O220 2.500 . S
Nd200 O221 2.492 . S
Nd200 O222 2.487 1_554 S
Nd200 O223 2.682 . S
Nd200 O224 2.410 . S
Nd200 O229 2.414 . S
Nd200 O231 2.424 . S
Nd201 C211 2.836 . S
Nd201 O223 2.414 . S
Nd201 O225 2.424 . S
Nd201 O226 2.500 . S
Nd201 O227 2.492 . S
Nd201 O228 2.487 . S
Nd201 O229 2.682 . S
Nd201 O230 2.410 . S
C202 Nd200 2.836 . S
C202 C203 1.498 . S
C202 O220 1.258 . S
C202 O221 1.239 . S
C203 C202 1.498 . S
C203 C204 1.366 . S
C203 C208 1.407 . S
C204 C203 1.366 . S
C204 C205 1.392 . S
C204 H232 0.930 . S
C205 C204 1.392 . S
C205 C206 1.398 . S
C205 H233 0.929 . S
C206 C205 1.398 . S
C206 C207 1.352 . S
C207 C206 1.352 . S
C207 C208 1.384 . S
C207 H234 0.930 . S
C208 C203 1.407 . S
C208 C207 1.384 . S
C208 H235 0.929 1_554 S
C209 O222 1.241 . S
C209 O223 1.273 1_556 S
C210 O224 1.251 . S
C210 O225 1.268 . S
C211 Nd201 2.836 . S
C211 C212 1.498 . S
C211 O226 1.258 . S
C211 O227 1.239 . S
C212 C211 1.498 . S
C212 C213 1.366 . S
C212 C217 1.407 . S
C213 C212 1.366 . S
C213 C214 1.392 . S
C213 H236 0.930 . S
C214 C213 1.392 . S
C214 C215 1.398 . S
C214 H237 0.929 . S
C215 C214 1.398 . S
C215 C216 1.352 . S
C216 C215 1.352 . S
C216 C217 1.384 . S
C216 H238 0.930 . S
C217 C212 1.407 . S
C217 C216 1.384 . S
C217 H239 0.929 . S
C218 O228 1.241 . S
C218 O229 1.273 . S
C219 O230 1.251 . S
C219 O231 1.268 . S
O220 Nd200 2.500 . S
O220 C202 1.258 . S
O221 Nd200 2.492 . S
O221 C202 1.239 . S
O222 Nd200 2.487 1_556 S
O222 C209 1.241 . S
O223 Nd200 2.682 . S
O223 Nd201 2.414 . S
O223 C209 1.273 1_554 S
O224 Nd200 2.410 . S
O224 C210 1.251 . S
O225 Nd201 2.424 . S
O225 C210 1.268 . S
O226 Nd201 2.500 . S
O226 C211 1.258 . S
O227 Nd201 2.492 . S
O227 C211 1.239 . S
O228 Nd201 2.487 . S
O228 C218 1.241 . S
O229 Nd200 2.414 . S
O229 Nd201 2.682 . S
O229 C218 1.273 . S
O230 Nd201 2.410 . S
O230 C219 1.251 . S
O231 Nd200 2.424 . S
O231 C219 1.268 . S
H232 C204 0.930 . S
H233 C205 0.929 . S
H234 C207 0.930 . S
H235 C208 0.929 1_556 S
H236 C213 0.930 . S
H237 C214 0.929 . S
H238 C216 0.930 . S
H239 C217 0.929 . S
Nd240 C242 2.836 . S
Nd240 O260 2.500 . S
Nd240 O261 2.492 . S
Nd240 O262 2.487 . S
Nd240 O263 2.682 . S
Nd240 O264 2.410 . S
Nd240 O269 2.414 . S
Nd240 O271 2.424 . S
Nd241 C251 2.836 . S
Nd241 O263 2.414 . S
Nd241 O265 2.424 . S
Nd241 O266 2.500 . S
Nd241 O267 2.492 . S
Nd241 O268 2.487 . S
Nd241 O269 2.682 . S
Nd241 O270 2.410 . S
C242 Nd240 2.836 . S
C242 C243 1.498 . S
C242 O260 1.258 . S
C242 O261 1.239 . S
C243 C242 1.498 . S
C243 C244 1.366 . S
C243 C248 1.407 . S
C244 C243 1.366 . S
C244 C245 1.392 . S
C244 H272 0.930 . S
C245 C244 1.392 . S
C245 C246 1.398 . S
C245 H273 0.929 . S
C246 C245 1.398 . S
C246 C247 1.352 . S
C247 C246 1.352 . S
C247 C248 1.384 . S
C247 H274 0.930 . S
C248 C243 1.407 . S
C248 C247 1.384 . S
C248 H275 0.929 . S
C249 O262 1.241 . S
C249 O263 1.273 . S
C250 O264 1.251 . S
C250 O265 1.268 . S
C251 Nd241 2.836 . S
C251 C252 1.498 . S
C251 O266 1.258 . S
C251 O267 1.239 . S
C252 C251 1.498 . S
C252 C253 1.366 . S
C252 C257 1.407 . S
C253 C252 1.366 . S
C253 C254 1.392 . S
C253 H276 0.930 . S
C254 C253 1.392 . S
C254 C255 1.398 . S
C254 H277 0.922 1_556 S
C255 C254 1.398 . S
C255 C256 1.352 . S
C256 C255 1.352 . S
C256 C257 1.384 . S
C256 H278 0.930 . S
C257 C252 1.407 . S
C257 C256 1.384 . S
C257 H279 0.929 . S
C258 O268 1.241 . S
C258 O269 1.273 . S
C259 O270 1.251 . S
C259 O271 1.268 . S
O260 Nd240 2.500 . S
O260 C242 1.258 . S
O261 Nd240 2.492 . S
O261 C242 1.239 . S
O262 Nd240 2.487 . S
O262 C249 1.241 . S
O263 Nd240 2.682 . S
O263 Nd241 2.414 . S
O263 C249 1.273 . S
O264 Nd240 2.410 . S
O264 C250 1.251 . S
O265 Nd241 2.424 . S
O265 C250 1.268 . S
O266 Nd241 2.500 . S
O266 C251 1.258 . S
O267 Nd241 2.492 . S
O267 C251 1.239 . S
O268 Nd241 2.487 . S
O268 C258 1.241 . S
O269 Nd240 2.414 . S
O269 Nd241 2.682 . S
O269 C258 1.273 . S
O270 Nd241 2.410 . S
O270 C259 1.251 . S
O271 Nd240 2.424 . S
O271 C259 1.268 . S
H272 C244 0.930 . S
H273 C245 0.929 . S
H274 C247 0.930 . S
H275 C248 0.929 . S
H276 C253 0.930 . S
H277 C254 0.922 1_554 S
H278 C256 0.930 . S
H279 C257 0.929 . S
Nd280 C282 2.836 . S
Nd280 O300 2.500 1_655 S
Nd280 O301 2.492 . S
Nd280 O302 2.487 . S
Nd280 O303 2.682 . S
Nd280 O304 2.410 . S
Nd280 O309 2.414 1_655 S
Nd280 O311 2.424 1_655 S
Nd281 C291 2.836 . S
Nd281 O303 2.414 . S
Nd281 O305 2.424 . S
Nd281 O306 2.500 . S
Nd281 O307 2.492 1_655 S
Nd281 O308 2.487 1_655 S
Nd281 O309 2.682 1_655 S
Nd281 O310 2.410 1_655 S
C282 Nd280 2.836 . S
C282 C283 1.498 . S
C282 O300 1.258 1_655 S
C282 O301 1.239 . S
C283 C282 1.498 . S
C283 C284 1.366 1_655 S
C283 C288 1.407 . S
C284 C283 1.366 1_455 S
C284 C285 1.392 . S
C284 H312 0.930 . S
C285 C284 1.392 . S
C285 C286 1.398 1_455 S
C285 H313 0.929 . S
C286 C285 1.398 1_655 S
C286 C287 1.352 . S
C287 C286 1.352 . S
C287 C288 1.384 . S
C287 H314 0.930 . S
C288 C283 1.407 . S
C288 C287 1.384 . S
C288 H315 0.929 . S
C289 O302 1.241 . S
C289 O303 1.273 . S
C290 O304 1.251 . S
C290 O305 1.268 . S
C291 Nd281 2.836 . S
C291 C292 1.498 . S
C291 O306 1.258 . S
C291 O307 1.239 1_655 S
C292 C291 1.498 . S
C292 C293 1.366 . S
C292 C297 1.407 1_655 S
C293 C292 1.366 . S
C293 C294 1.392 . S
C293 H316 0.930 . S
C294 C293 1.392 . S
C294 C295 1.398 . S
C294 H317 0.929 1_556 S
C295 C294 1.398 . S
C295 C296 1.352 1_655 S
C296 C295 1.352 1_455 S
C296 C297 1.384 . S
C296 H318 0.930 . S
C297 C292 1.407 1_455 S
C297 C296 1.384 . S
C297 H319 0.929 . S
C298 O308 1.241 . S
C298 O309 1.273 . S
C299 O310 1.251 . S
C299 O311 1.268 . S
O300 Nd280 2.500 1_455 S
O300 C282 1.258 1_455 S
O301 Nd280 2.492 . S
O301 C282 1.239 . S
O302 Nd280 2.487 . S
O302 C289 1.241 . S
O303 Nd280 2.682 . S
O303 Nd281 2.414 . S
O303 C289 1.273 . S
O304 Nd280 2.410 . S
O304 C290 1.251 . S
O305 Nd281 2.424 . S
O305 C290 1.268 . S
O306 Nd281 2.500 . S
O306 C291 1.258 . S
O307 Nd281 2.492 1_455 S
O307 C291 1.239 1_455 S
O308 Nd281 2.487 1_455 S
O308 C298 1.241 . S
O309 Nd280 2.414 1_455 S
O309 Nd281 2.682 1_455 S
O309 C298 1.273 . S
O310 Nd281 2.410 1_455 S
O310 C299 1.251 . S
O311 Nd280 2.424 1_455 S
O311 C299 1.268 . S
H312 C284 0.930 . S
H313 C285 0.929 . S
H314 C287 0.930 . S
H315 C288 0.929 . S
H316 C293 0.930 . S
H317 C294 0.929 1_554 S
H318 C296 0.930 . S
H319 C297 0.929 . S
Nd320 C322 2.836 . S
Nd320 O340 2.500 . S
Nd320 O341 2.492 . S
Nd320 O342 2.487 . S
Nd320 O343 2.682 1_455 S
Nd320 O344 2.410 . S
Nd320 O349 2.414 1_455 S
Nd320 O351 2.424 . S
Nd321 C331 2.836 . S
Nd321 O343 2.414 . S
Nd321 O345 2.424 . S
Nd321 O346 2.500 . S
Nd321 O347 2.492 . S
Nd321 O348 2.487 . S
Nd321 O349 2.682 . S
Nd321 O350 2.410 . S
C322 Nd320 2.836 . S
C322 C323 1.498 . S
C322 O340 1.258 . S
C322 O341 1.239 . S
C323 C322 1.498 . S
C323 C324 1.366 . S
C323 C328 1.407 . S
C324 C323 1.366 . S
C324 C325 1.392 . S
C324 H352 0.930 . S
C325 C324 1.392 . S
C325 C326 1.398 . S
C325 H353 0.929 . S
C326 C325 1.398 . S
C326 C327 1.352 . S
C327 C326 1.352 . S
C327 C328 1.384 . S
C327 H354 0.930 . S
C328 C323 1.407 . S
C328 C327 1.384 . S
C328 H355 0.929 . S
C329 O342 1.241 . S
C329 O343 1.273 1_455 S
C330 O344 1.251 . S
C330 O345 1.268 1_455 S
C331 Nd321 2.836 . S
C331 C332 1.498 . S
C331 O346 1.258 . S
C331 O347 1.239 . S
C332 C331 1.498 . S
C332 C333 1.366 . S
C332 C337 1.407 . S
C333 C332 1.366 . S
C333 C334 1.392 . S
C333 H356 0.930 . S
C334 C333 1.392 . S
C334 C335 1.398 . S
C334 H357 0.929 1_556 S
C335 C334 1.398 . S
C335 C336 1.352 . S
C336 C335 1.352 . S
C336 C337 1.384 . S
C336 H358 0.930 . S
C337 C332 1.407 . S
C337 C336 1.384 . S
C337 H359 0.929 . S
C338 O348 1.241 . S
C338 O349 1.273 . S
C339 O350 1.251 . S
C339 O351 1.268 1_655 S
O340 Nd320 2.500 . S
O340 C322 1.258 . S
O341 Nd320 2.492 . S
O341 C322 1.239 . S
O342 Nd320 2.487 . S
O342 C329 1.241 . S
O343 Nd320 2.682 1_655 S
O343 Nd321 2.414 . S
O343 C329 1.273 1_655 S
O344 Nd320 2.410 . S
O344 C330 1.251 . S
O345 Nd321 2.424 . S
O345 C330 1.268 1_655 S
O346 Nd321 2.500 . S
O346 C331 1.258 . S
O347 Nd321 2.492 . S
O347 C331 1.239 . S
O348 Nd321 2.487 . S
O348 C338 1.241 . S
O349 Nd320 2.414 1_655 S
O349 Nd321 2.682 . S
O349 C338 1.273 . S
O350 Nd321 2.410 . S
O350 C339 1.251 . S
O351 Nd320 2.424 . S
O351 C339 1.268 1_455 S
H352 C324 0.930 . S
H353 C325 0.929 . S
H354 C327 0.930 . S
H355 C328 0.929 . S
H356 C333 0.930 . S
H357 C334 0.929 1_554 S
H358 C336 0.930 . S
H359 C337 0.929 . S
H360 C368 0.950 . S
H361 C373 0.950 . S
H362 C370 0.950 . S
H363 C372 0.950 . S
H364 C374 0.950 . S
H365 C376 0.950 . S
H366 C378 0.950 . S
H367 C379 0.950 . S
C368 H360 0.950 . S
C368 C369 1.386 . S
C368 C370 1.391 . S
C369 C368 1.386 . S
C369 C373 1.393 . S
C370 H362 0.950 . S
C370 C368 1.391 . S
C370 C371 1.400 . S
C371 C370 1.400 . S
C371 C372 1.398 . S
C371 C377 1.491 . S
C372 H363 0.950 . S
C372 C371 1.398 . S
C372 C373 1.391 . S
C373 H361 0.950 . S
C373 C369 1.393 . S
C373 C372 1.391 . S
C374 H364 0.950 . S
C374 C375 1.386 . S
C374 C376 1.391 . S
C375 C374 1.386 . S
C375 C379 1.393 . S
C376 H365 0.950 . S
C376 C374 1.391 . S
C376 C377 1.400 . S
C377 C371 1.491 . S
C377 C376 1.400 . S
C377 C378 1.398 . S
C378 H366 0.950 . S
C378 C377 1.398 . S
C378 C379 1.391 . S
C379 H367 0.950 . S
C379 C375 1.393 . S
C379 C378 1.391 . S
H380 C388 0.950 . S
H381 C393 0.950 . S
H382 C390 0.950 . S
H383 C392 0.950 . S
H384 C394 0.950 . S
H385 C396 0.950 . S
H386 C398 0.950 . S
H387 C399 0.950 . S
C388 H380 0.950 . S
C388 C389 1.386 . S
C388 C390 1.391 . S
C389 C388 1.386 . S
C389 C393 1.393 . S
C390 H382 0.950 . S
C390 C388 1.391 . S
C390 C391 1.400 . S
C391 C390 1.400 . S
C391 C392 1.398 . S
C391 C397 1.491 . S
C392 H383 0.950 . S
C392 C391 1.398 . S
C392 C393 1.391 . S
C393 H381 0.950 . S
C393 C389 1.393 . S
C393 C392 1.391 . S
C394 H384 0.950 . S
C394 C395 1.386 . S
C394 C396 1.391 . S
C395 C394 1.386 . S
C395 C399 1.393 . S
C396 H385 0.950 . S
C396 C394 1.391 . S
C396 C397 1.400 . S
C397 C391 1.491 . S
C397 C396 1.400 . S
C397 C398 1.398 . S
C398 H386 0.950 . S
C398 C397 1.398 . S
C398 C399 1.391 . S
C399 H387 0.950 . S
C399 C395 1.393 . S
C399 C398 1.391 . S
H400 C408 0.950 . S
H401 C413 0.950 . S
H402 C410 0.950 . S
H403 C412 0.950 . S
H404 C414 0.950 . S
H405 C416 0.950 . S
H406 C418 0.950 . S
H407 C419 0.950 . S
C408 H400 0.950 . S
C408 C409 1.386 . S
C408 C410 1.391 . S
C409 C408 1.386 . S
C409 C413 1.393 . S
C410 H402 0.950 . S
C410 C408 1.391 . S
C410 C411 1.400 . S
C411 C410 1.400 . S
C411 C412 1.398 . S
C411 C417 1.491 . S
C412 H403 0.950 . S
C412 C411 1.398 . S
C412 C413 1.391 . S
C413 H401 0.950 . S
C413 C409 1.393 . S
C413 C412 1.391 . S
C414 H404 0.950 . S
C414 C415 1.386 . S
C414 C416 1.391 . S
C415 C414 1.386 . S
C415 C419 1.393 . S
C416 H405 0.950 . S
C416 C414 1.391 . S
C416 C417 1.400 . S
C417 C411 1.491 . S
C417 C416 1.400 . S
C417 C418 1.398 . S
C418 H406 0.950 . S
C418 C417 1.398 . S
C418 C419 1.391 . S
C419 H407 0.950 . S
C419 C415 1.393 . S
C419 C418 1.391 . S
H420 C428 0.950 . S
H421 C433 0.950 . S
H422 C430 0.950 . S
H423 C432 0.950 . S
H424 C434 0.950 . S
H425 C436 0.950 . S
H426 C438 0.950 . S
H427 C439 0.950 . S
C428 H420 0.950 . S
C428 C429 1.386 . S
C428 C430 1.391 . S
C429 C428 1.386 . S
C429 C433 1.393 . S
C430 H422 0.950 . S
C430 C428 1.391 . S
C430 C431 1.400 . S
C431 C430 1.400 . S
C431 C432 1.398 . S
C431 C437 1.491 . S
C432 H423 0.950 . S
C432 C431 1.398 . S
C432 C433 1.391 . S
C433 H421 0.950 . S
C433 C429 1.393 . S
C433 C432 1.391 . S
C434 H424 0.950 . S
C434 C435 1.386 . S
C434 C436 1.391 . S
C435 C434 1.386 . S
C435 C439 1.393 . S
C436 H425 0.950 . S
C436 C434 1.391 . S
C436 C437 1.400 . S
C437 C431 1.491 . S
C437 C436 1.400 . S
C437 C438 1.398 . S
C438 H426 0.950 . S
C438 C437 1.398 . S
C438 C439 1.391 . S
C439 H427 0.950 . S
C439 C435 1.393 . S
C439 C438 1.391 . S
H440 C448 0.950 1_545 S
H441 C453 0.950 . S
H442 C450 0.942 . S
H443 C452 0.950 . S
H444 C454 0.950 . S
H445 C456 0.950 . S
H446 C458 0.950 . S
H447 C459 0.950 . S
C448 H440 0.950 1_565 S
C448 C449 1.386 . S
C448 C450 1.386 1_565 S
C449 C448 1.386 . S
C449 C453 1.393 . S
C450 H442 0.942 . S
C450 C448 1.386 1_545 S
C450 C451 1.415 1_545 S
C451 C450 1.415 1_565 S
C451 C452 1.398 . S
C451 C457 1.498 . S
C452 H443 0.950 . S
C452 C451 1.398 . S
C452 C453 1.391 . S
C453 H441 0.950 . S
C453 C449 1.393 . S
C453 C452 1.391 . S
C454 H444 0.950 . S
C454 C455 1.386 1_565 S
C454 C456 1.391 . S
C455 C454 1.386 1_545 S
C455 C459 1.393 . S
C456 H445 0.950 . S
C456 C454 1.391 . S
C456 C457 1.382 . S
C457 C451 1.498 . S
C457 C456 1.382 . S
C457 C458 1.413 1_565 S
C458 H446 0.950 . S
C458 C457 1.413 1_545 S
C458 C459 1.391 . S
C459 H447 0.950 . S
C459 C455 1.393 . S
C459 C458 1.391 . S
H460 C468 0.950 . S
H461 C473 0.950 . S
H462 C470 0.950 . S
H463 C472 0.950 . S
H464 C474 0.950 . S
H465 C476 0.950 . S
H466 C478 0.950 . S
H467 C479 0.950 . S
C468 H460 0.950 . S
C468 C469 1.386 . S
C468 C470 1.391 . S
C469 C468 1.386 . S
C469 C473 1.393 . S
C470 H462 0.950 . S
C470 C468 1.391 . S
C470 C471 1.400 . S
C471 C470 1.400 . S
C471 C472 1.398 . S
C471 C477 1.491 . S
C472 H463 0.950 . S
C472 C471 1.398 . S
C472 C473 1.391 . S
C473 H461 0.950 . S
C473 C469 1.393 . S
C473 C472 1.391 . S
C474 H464 0.950 . S
C474 C475 1.386 . S
C474 C476 1.391 . S
C475 C474 1.386 . S
C475 C479 1.393 . S
C476 H465 0.950 . S
C476 C474 1.391 . S
C476 C477 1.400 . S
C477 C471 1.491 . S
C477 C476 1.400 . S
C477 C478 1.398 . S
C478 H466 0.950 . S
C478 C477 1.398 . S
C478 C479 1.391 . S
C479 H467 0.950 . S
C479 C475 1.393 . S
C479 C478 1.391 . S
H480 C488 0.950 . S
H481 C493 0.950 . S
H482 C490 0.950 . S
H483 C492 0.950 . S
H484 C494 0.950 . S
H485 C496 0.950 . S
H486 C498 0.950 . S
H487 C499 0.950 . S
C488 H480 0.950 . S
C488 C489 1.386 . S
C488 C490 1.391 . S
C489 C488 1.386 . S
C489 C493 1.393 . S
C490 H482 0.950 . S
C490 C488 1.391 . S
C490 C491 1.400 . S
C491 C490 1.400 . S
C491 C492 1.398 . S
C491 C497 1.491 . S
C492 H483 0.950 . S
C492 C491 1.398 . S
C492 C493 1.391 . S
C493 H481 0.950 . S
C493 C489 1.393 . S
C493 C492 1.391 . S
C494 H484 0.950 . S
C494 C495 1.386 . S
C494 C496 1.391 1_556 S
C495 C494 1.386 . S
C495 C499 1.393 . S
C496 H485 0.950 . S
C496 C494 1.391 1_554 S
C496 C497 1.400 . S
C497 C491 1.491 . S
C497 C496 1.400 . S
C497 C498 1.398 . S
C498 H486 0.950 . S
C498 C497 1.398 . S
C498 C499 1.391 1_554 S
C499 H487 0.950 . S
C499 C495 1.393 . S
C499 C498 1.391 1_556 S
H500 C508 0.950 1_455 S
H501 C513 0.950 . S
H502 C510 0.950 . S
H503 C512 0.950 . S
H504 C514 0.950 . S
H505 C516 0.950 . S
H506 C518 0.950 . S
H507 C519 0.950 . S
C508 H500 0.950 1_655 S
C508 C509 1.386 . S
C508 C510 1.391 1_655 S
C509 C508 1.386 . S
C509 C513 1.393 . S
C510 H502 0.950 . S
C510 C508 1.391 1_455 S
C510 C511 1.400 1_455 S
C511 C510 1.400 1_655 S
C511 C512 1.398 . S
C511 C517 1.491 . S
C512 H503 0.950 . S
C512 C511 1.398 . S
C512 C513 1.391 . S
C513 H501 0.950 . S
C513 C509 1.393 . S
C513 C512 1.391 . S
C514 H504 0.950 . S
C514 C515 1.386 1_655 S
C514 C516 1.391 1_556 S
C515 C514 1.386 1_455 S
C515 C519 1.393 . S
C516 H505 0.950 . S
C516 C514 1.391 1_554 S
C516 C517 1.400 . S
C517 C511 1.491 . S
C517 C516 1.400 . S
C517 C518 1.398 1_655 S
C518 H506 0.950 . S
C518 C517 1.398 1_455 S
C518 C519 1.391 1_554 S
C519 H507 0.950 . S
C519 C515 1.393 . S
C519 C518 1.391 1_556 S
H520 C528 0.950 . S
H521 C533 0.950 . S
H522 C530 0.950 . S
H523 C532 0.950 . S
H524 C534 0.950 . S
H525 C536 0.950 . S
H526 C538 0.950 . S
H527 C539 0.950 1_556 S
C528 H520 0.950 . S
C528 C529 1.386 1_655 S
C528 C530 1.391 . S
C529 C528 1.386 1_455 S
C529 C533 1.393 . S
C530 H522 0.950 . S
C530 C528 1.391 . S
C530 C531 1.400 . S
C531 C530 1.400 . S
C531 C532 1.398 1_655 S
C531 C537 1.491 . S
C532 H523 0.950 . S
C532 C531 1.398 1_455 S
C532 C533 1.391 . S
C533 H521 0.950 . S
C533 C529 1.393 . S
C533 C532 1.391 . S
C534 H524 0.950 . S
C534 C535 1.386 1_455 S
C534 C536 1.391 1_556 S
C535 C534 1.386 1_655 S
C535 C539 1.393 1_556 S
C536 H525 0.950 . S
C536 C534 1.391 1_554 S
C536 C537 1.400 1_455 S
C537 C531 1.491 . S
C537 C536 1.400 1_655 S
C537 C538 1.398 . S
C538 H526 0.950 . S
C538 C537 1.398 . S
C538 C539 1.391 . S
C539 H527 0.950 1_554 S
C539 C535 1.393 1_554 S
C539 C538 1.391 . S
H540 C548 0.950 . S
H541 C553 0.950 . S
H542 C550 0.950 . S
H543 C552 0.950 . S
H544 C554 0.950 . S
H545 C556 0.950 . S
H546 C558 0.950 . S
H547 C559 0.950 . S
C548 H540 0.950 . S
C548 C549 1.386 . S
C548 C550 1.391 . S
C549 C548 1.386 . S
C549 C553 1.393 . S
C550 H542 0.950 . S
C550 C548 1.391 . S
C550 C551 1.400 . S
C551 C550 1.400 . S
C551 C552 1.398 . S
C551 C557 1.491 . S
C552 H543 0.950 . S
C552 C551 1.398 . S
C552 C553 1.391 . S
C553 H541 0.950 . S
C553 C549 1.393 . S
C553 C552 1.391 . S
C554 H544 0.950 . S
C554 C555 1.386 . S
C554 C556 1.391 . S
C555 C554 1.386 . S
C555 C559 1.393 . S
C556 H545 0.950 . S
C556 C554 1.391 . S
C556 C557 1.400 . S
C557 C551 1.491 . S
C557 C556 1.400 . S
C557 C558 1.398 . S
C558 H546 0.950 . S
C558 C557 1.398 . S
C558 C559 1.391 . S
C559 H547 0.950 . S
C559 C555 1.393 . S
C559 C558 1.391 . S
H560 C568 0.950 . S
H561 C573 0.950 . S
H562 C570 0.950 . S
H563 C572 0.950 . S
H564 C574 0.950 . S
H565 C576 0.950 . S
H566 C578 0.950 . S
H567 C579 0.950 . S
C568 H560 0.950 . S
C568 C569 1.386 . S
C568 C570 1.391 . S
C569 C568 1.386 . S
C569 C573 1.393 . S
C570 H562 0.950 . S
C570 C568 1.391 . S
C570 C571 1.400 . S
C571 C570 1.400 . S
C571 C572 1.398 . S
C571 C577 1.491 . S
C572 H563 0.950 . S
C572 C571 1.398 . S
C572 C573 1.391 . S
C573 H561 0.950 . S
C573 C569 1.393 . S
C573 C572 1.391 . S
C574 H564 0.950 . S
C574 C575 1.386 . S
C574 C576 1.391 . S
C575 C574 1.386 . S
C575 C579 1.393 . S
C576 H565 0.950 . S
C576 C574 1.391 . S
C576 C577 1.400 . S
C577 C571 1.491 . S
C577 C576 1.400 . S
C577 C578 1.398 . S
C578 H566 0.950 . S
C578 C577 1.398 . S
C578 C579 1.391 . S
C579 H567 0.950 . S
C579 C575 1.393 . S
C579 C578 1.391 . S
H580 C588 0.950 . S
H581 C593 0.950 . S
H582 C590 0.950 . S
H583 C592 0.950 . S
H584 C594 0.950 . S
H585 C596 0.950 . S
H586 C598 0.950 . S
H587 C599 0.950 . S
C588 H580 0.950 . S
C588 C589 1.386 . S
C588 C590 1.391 . S
C589 C588 1.386 . S
C589 C593 1.393 . S
C590 H582 0.950 . S
C590 C588 1.391 . S
C590 C591 1.400 . S
C591 C590 1.400 . S
C591 C592 1.398 . S
C591 C597 1.491 . S
C592 H583 0.950 . S
C592 C591 1.398 . S
C592 C593 1.391 . S
C593 H581 0.950 . S
C593 C589 1.393 . S
C593 C592 1.391 . S
C594 H584 0.950 . S
C594 C595 1.386 . S
C594 C596 1.391 . S
C595 C594 1.386 . S
C595 C599 1.393 . S
C596 H585 0.950 . S
C596 C594 1.391 . S
C596 C597 1.400 . S
C597 C591 1.491 . S
C597 C596 1.400 . S
C597 C598 1.398 . S
C598 H586 0.950 . S
C598 C597 1.398 . S
C598 C599 1.391 . S
C599 H587 0.950 . S
C599 C595 1.393 . S
C599 C598 1.391 . S
H600 C608 0.950 . S
H601 C613 0.950 . S
H602 C610 0.950 . S
H603 C612 0.950 . S
H604 C614 0.950 . S
H605 C616 0.950 . S
H606 C618 0.950 . S
H607 C619 0.950 . S
C608 H600 0.950 . S
C608 C609 1.386 . S
C608 C610 1.391 . S
C609 C608 1.386 . S
C609 C613 1.393 . S
C610 H602 0.950 . S
C610 C608 1.391 . S
C610 C611 1.400 . S
C611 C610 1.400 . S
C611 C612 1.398 . S
C611 C617 1.491 . S
C612 H603 0.950 . S
C612 C611 1.398 . S
C612 C613 1.391 . S
C613 H601 0.950 . S
C613 C609 1.393 . S
C613 C612 1.391 . S
C614 H604 0.950 . S
C614 C615 1.386 1_554 S
C614 C616 1.391 . S
C615 C614 1.386 1_556 S
C615 C619 1.393 . S
C616 H605 0.950 . S
C616 C614 1.391 . S
C616 C617 1.400 . S
C617 C611 1.491 . S
C617 C616 1.400 . S
C617 C618 1.398 . S
C618 H606 0.950 . S
C618 C617 1.398 . S
C618 C619 1.391 1_554 S
C619 H607 0.950 . S
C619 C615 1.393 . S
C619 C618 1.391 1_556 S
H620 C628 0.950 . S
H621 C633 0.950 . S
H622 C630 0.950 . S
H623 C632 0.950 . S
H624 C634 0.950 . S
H625 C636 0.950 1_556 S
H626 C638 0.950 . S
H627 C639 0.950 . S
C628 H620 0.950 . S
C628 C629 1.386 1_554 S
C628 C630 1.391 . S
C629 C628 1.386 1_556 S
C629 C633 1.393 1_655 S
C630 H622 0.950 . S
C630 C628 1.391 . S
C630 C631 1.405 . S
C631 C630 1.405 . S
C631 C632 1.384 1_654 S
C631 C637 1.498 . S
C632 H623 0.950 . S
C632 C631 1.384 1_456 S
C632 C633 1.391 . S
C633 H621 0.950 . S
C633 C629 1.393 1_455 S
C633 C632 1.391 . S
C634 H624 0.950 . S
C634 C635 1.386 . S
C634 C636 1.391 . S
C635 C634 1.386 . S
C635 C639 1.393 1_455 S
C636 H625 0.950 1_554 S
C636 C634 1.391 . S
C636 C637 1.399 1_455 S
C637 C631 1.498 . S
C637 C636 1.399 1_655 S
C637 C638 1.401 . S
C638 H626 0.950 . S
C638 C637 1.401 . S
C638 C639 1.391 . S
C639 H627 0.950 . S
C639 C635 1.393 1_655 S
C639 C638 1.391 . S
H640 C648 0.950 . S
H641 C653 0.950 . S
H642 C650 0.950 1_556 S
H643 C652 0.950 . S
H644 C654 0.950 . S
H645 C656 0.950 . S
H646 C658 0.950 . S
H647 C659 0.950 . S
C648 H640 0.950 . S
C648 C649 1.386 1_556 S
C648 C650 1.391 1_556 S
C649 C648 1.386 1_554 S
C649 C653 1.393 . S
C650 H642 0.950 1_554 S
C650 C648 1.391 1_554 S
C650 C651 1.400 . S
C651 C650 1.400 . S
C651 C652 1.398 . S
C651 C657 1.491 . S
C652 H643 0.950 . S
C652 C651 1.398 . S
C652 C653 1.391 . S
C653 H641 0.950 . S
C653 C649 1.393 . S
C653 C652 1.391 . S
C654 H644 0.950 . S
C654 C655 1.386 . S
C654 C656 1.391 . S
C655 C654 1.386 . S
C655 C659 1.393 . S
C656 H645 0.950 . S
C656 C654 1.391 . S
C656 C657 1.400 . S
C657 C651 1.491 . S
C657 C656 1.400 . S
C657 C658 1.398 . S
C658 H646 0.950 . S
C658 C657 1.398 . S
C658 C659 1.391 . S
C659 H647 0.950 . S
C659 C655 1.393 . S
C659 C658 1.391 . S
H660 C668 0.950 1_655 S
H661 C673 0.950 . S
H662 C670 0.955 . S
H663 C672 0.950 . S
H664 C674 0.950 . S
H665 C676 0.950 . S
H666 C678 0.950 . S
H667 C679 0.950 . S
C668 H660 0.950 1_455 S
C668 C669 1.386 . S
C668 C670 1.391 . S
C669 C668 1.386 . S
C669 C673 1.393 . S
C670 H662 0.955 . S
C670 C668 1.391 . S
C670 C671 1.400 . S
C671 C670 1.400 . S
C671 C672 1.398 . S
C671 C677 1.491 . S
C672 H663 0.950 . S
C672 C671 1.398 . S
C672 C673 1.391 . S
C673 H661 0.950 . S
C673 C669 1.393 . S
C673 C672 1.391 . S
C674 H664 0.950 . S
C674 C675 1.386 . S
C674 C676 1.391 . S
C675 C674 1.386 . S
C675 C679 1.393 1_554 S
C676 H665 0.950 . S
C676 C674 1.391 . S
C676 C677 1.400 1_554 S
C677 C671 1.491 . S
C677 C676 1.400 1_556 S
C677 C678 1.398 . S
C678 H666 0.950 . S
C678 C677 1.398 . S
C678 C679 1.391 . S
C679 H667 0.950 . S
C679 C675 1.393 1_556 S
C679 C678 1.391 . S
H680 C688 0.950 . S
H681 C693 0.950 . S
H682 C690 0.950 . S
H683 C692 0.950 . S
H684 C694 0.950 . S
H685 C696 0.950 . S
H686 C698 0.950 . S
H687 C699 0.950 . S
C688 H680 0.950 . S
C688 C689 1.386 . S
C688 C690 1.391 1_554 S
C689 C688 1.386 . S
C689 C693 1.393 . S
C690 H682 0.950 . S
C690 C688 1.391 1_556 S
C690 C691 1.400 . S
C691 C690 1.400 . S
C691 C692 1.398 1_556 S
C691 C697 1.491 . S
C692 H683 0.950 . S
C692 C691 1.398 1_554 S
C692 C693 1.391 . S
C693 H681 0.950 . S
C693 C689 1.393 . S
C693 C692 1.391 . S
C694 H684 0.950 . S
C694 C695 1.386 . S
C694 C696 1.391 . S
C695 C694 1.386 . S
C695 C699 1.393 . S
C696 H685 0.950 . S
C696 C694 1.391 . S
C696 C697 1.400 . S
C697 C691 1.491 . S
C697 C696 1.400 . S
C697 C698 1.398 . S
C698 H686 0.950 . S
C698 C697 1.398 . S
C698 C699 1.391 . S
C699 H687 0.950 . S
C699 C695 1.393 . S
C699 C698 1.391 . S
H700 C708 0.950 . S
H701 C713 0.950 . S
H702 C710 0.950 . S
H703 C712 0.950 1_554 S
H704 C714 0.950 . S
H705 C716 0.950 . S
H706 C718 0.950 . S
H707 C719 0.950 . S
C708 H700 0.950 . S
C708 C709 1.386 . S
C708 C710 1.391 . S
C709 C708 1.386 . S
C709 C713 1.393 . S
C710 H702 0.950 . S
C710 C708 1.391 . S
C710 C711 1.400 . S
C711 C710 1.400 . S
C711 C712 1.398 . S
C711 C717 1.491 . S
C712 H703 0.950 1_556 S
C712 C711 1.398 . S
C712 C713 1.391 . S
C713 H701 0.950 . S
C713 C709 1.393 . S
C713 C712 1.391 . S
C714 H704 0.950 . S
C714 C715 1.386 . S
C714 C716 1.391 . S
C715 C714 1.386 . S
C715 C719 1.393 . S
C716 H705 0.950 . S
C716 C714 1.391 . S
C716 C717 1.400 1_554 S
C717 C711 1.491 . S
C717 C716 1.400 1_556 S
C717 C718 1.398 . S
C718 H706 0.950 . S
C718 C717 1.398 . S
C718 C719 1.391 1_556 S
C719 H707 0.950 . S
C719 C715 1.393 . S
C719 C718 1.391 1_554 S
H720 C728 0.950 . S
H721 C733 0.950 . S
H722 C730 0.950 . S
H723 C732 0.950 . S
H724 C734 0.950 . S
H725 C736 0.950 . S
H726 C738 0.982 . S
H727 C739 0.950 . S
C728 H720 0.950 . S
C728 C729 1.386 . S
C728 C730 1.391 . S
C729 C728 1.386 . S
C729 C733 1.393 . S
C730 H722 0.950 . S
C730 C728 1.391 . S
C730 C731 1.400 . S
C731 C730 1.400 . S
C731 C732 1.398 . S
C731 C737 1.491 1_545 S
C732 H723 0.950 . S
C732 C731 1.398 . S
C732 C733 1.391 . S
C733 H721 0.950 . S
C733 C729 1.393 . S
C733 C732 1.391 . S
C734 H724 0.950 . S
C734 C735 1.386 . S
C734 C736 1.391 . S
C735 C734 1.386 . S
C735 C739 1.393 . S
C736 H725 0.950 . S
C736 C734 1.391 . S
C736 C737 1.400 . S
C737 C731 1.491 1_565 S
C737 C736 1.400 . S
C737 C738 1.398 . S
C738 H726 0.982 . S
C738 C737 1.398 . S
C738 C739 1.391 . S
C739 H727 0.950 . S
C739 C735 1.393 . S
C739 C738 1.391 . S
H740 C748 0.950 . S
H741 C753 0.950 . S
H742 C750 0.950 . S
H743 C752 0.950 . S
H744 C754 0.950 . S
H745 C756 0.950 . S
H746 C758 0.950 . S
H747 C759 0.950 . S
C748 H740 0.950 . S
C748 C749 1.386 . S
C748 C750 1.391 . S
C749 C748 1.386 . S
C749 C753 1.393 . S
C750 H742 0.950 . S
C750 C748 1.391 . S
C750 C751 1.400 . S
C751 C750 1.400 . S
C751 C752 1.398 . S
C751 C757 1.491 . S
C752 H743 0.950 . S
C752 C751 1.398 . S
C752 C753 1.391 . S
C753 H741 0.950 . S
C753 C749 1.393 . S
C753 C752 1.391 . S
C754 H744 0.950 . S
C754 C755 1.386 . S
C754 C756 1.391 . S
C755 C754 1.386 . S
C755 C759 1.393 . S
C756 H745 0.950 . S
C756 C754 1.391 . S
C756 C757 1.400 . S
C757 C751 1.491 . S
C757 C756 1.400 . S
C757 C758 1.398 . S
C758 H746 0.950 . S
C758 C757 1.398 . S
C758 C759 1.391 . S
C759 H747 0.950 . S
C759 C755 1.393 . S
C759 C758 1.391 . S
H760 C768 0.950 . S
H761 C773 0.950 . S
H762 C770 0.950 . S
H763 C772 0.950 . S
H764 C774 0.950 . S
H765 C776 0.950 . S
H766 C778 0.950 1_556 S
H767 C779 0.950 1_556 S
C768 H760 0.950 . S
C768 C769 1.386 . S
C768 C770 1.391 . S
C769 C768 1.386 . S
C769 C773 1.393 . S
C770 H762 0.950 . S
C770 C768 1.391 . S
C770 C771 1.400 . S
C771 C770 1.400 . S
C771 C772 1.398 . S
C771 C777 1.491 . S
C772 H763 0.950 . S
C772 C771 1.398 . S
C772 C773 1.391 . S
C773 H761 0.950 . S
C773 C769 1.393 . S
C773 C772 1.391 . S
C774 H764 0.950 . S
C774 C775 1.386 . S
C774 C776 1.391 . S
C775 C774 1.386 . S
C775 C779 1.393 . S
C776 H765 0.950 . S
C776 C774 1.391 . S
C776 C777 1.400 . S
C777 C771 1.491 . S
C777 C776 1.400 . S
C777 C778 1.398 . S
C778 H766 0.950 1_554 S
C778 C777 1.398 . S
C778 C779 1.391 . S
C779 H767 0.950 1_554 S
C779 C775 1.393 . S
C779 C778 1.391 . S
H780 C788 0.950 . S
H781 C793 0.950 . S
H782 C790 0.950 . S
H783 C792 0.950 . S
H784 C794 0.950 . S
H785 C796 0.950 . S
H786 C798 0.950 . S
H787 C799 0.950 . S
C788 H780 0.950 . S
C788 C789 1.386 . S
C788 C790 1.391 . S
C789 C788 1.386 . S
C789 C793 1.393 . S
C790 H782 0.950 . S
C790 C788 1.391 . S
C790 C791 1.400 . S
C791 C790 1.400 . S
C791 C792 1.398 . S
C791 C797 1.491 . S
C792 H783 0.950 . S
C792 C791 1.398 . S
C792 C793 1.391 . S
C793 H781 0.950 . S
C793 C789 1.393 . S
C793 C792 1.391 . S
C794 H784 0.950 . S
C794 C795 1.386 . S
C794 C796 1.391 . S
C795 C794 1.386 . S
C795 C799 1.393 . S
C796 H785 0.950 . S
C796 C794 1.391 . S
C796 C797 1.400 . S
C797 C791 1.491 . S
C797 C796 1.400 . S
C797 C798 1.398 . S
C798 H786 0.950 . S
C798 C797 1.398 . S
C798 C799 1.391 . S
C799 H787 0.950 . S
C799 C795 1.393 . S
C799 C798 1.391 . S
H800 C808 0.950 . S
H801 C813 0.950 . S
H802 C810 0.950 . S
H803 C812 0.950 . S
H804 C814 0.950 . S
H805 C816 0.950 . S
H806 C818 0.950 . S
H807 C819 0.950 . S
C808 H800 0.950 . S
C808 C809 1.386 . S
C808 C810 1.391 . S
C809 C808 1.386 . S
C809 C813 1.393 . S
C810 H802 0.950 . S
C810 C808 1.391 . S
C810 C811 1.400 . S
C811 C810 1.400 . S
C811 C812 1.398 . S
C811 C817 1.491 . S
C812 H803 0.950 . S
C812 C811 1.398 . S
C812 C813 1.391 . S
C813 H801 0.950 . S
C813 C809 1.393 . S
C813 C812 1.391 . S
C814 H804 0.950 . S
C814 C815 1.386 . S
C814 C816 1.391 . S
C815 C814 1.386 . S
C815 C819 1.393 . S
C816 H805 0.950 . S
C816 C814 1.391 . S
C816 C817 1.400 . S
C817 C811 1.491 . S
C817 C816 1.400 . S
C817 C818 1.398 . S
C818 H806 0.950 . S
C818 C817 1.398 . S
C818 C819 1.391 . S
C819 H807 0.950 . S
C819 C815 1.393 . S
C819 C818 1.391 . S
H820 C828 0.950 . S
H821 C833 0.950 . S
H822 C830 0.950 . S
H823 C832 0.950 . S
H824 C834 0.950 . S
H825 C836 0.950 . S
H826 C838 0.950 . S
H827 C839 0.950 . S
C828 H820 0.950 . S
C828 C829 1.386 . S
C828 C830 1.391 . S
C829 C828 1.386 . S
C829 C833 1.393 . S
C830 H822 0.950 . S
C830 C828 1.391 . S
C830 C831 1.400 . S
C831 C830 1.400 . S
C831 C832 1.398 . S
C831 C837 1.491 . S
C832 H823 0.950 . S
C832 C831 1.398 . S
C832 C833 1.391 . S
C833 H821 0.950 . S
C833 C829 1.393 . S
C833 C832 1.391 . S
C834 H824 0.950 . S
C834 C835 1.386 . S
C834 C836 1.391 . S
C835 C834 1.386 . S
C835 C839 1.393 . S
C836 H825 0.950 . S
C836 C834 1.391 . S
C836 C837 1.400 . S
C837 C831 1.491 . S
C837 C836 1.400 . S
C837 C838 1.398 . S
C838 H826 0.950 . S
C838 C837 1.398 . S
C838 C839 1.391 . S
C839 H827 0.950 . S
C839 C835 1.393 . S
C839 C838 1.391 . S
H840 C848 0.950 . S
H841 C853 0.950 . S
H842 C850 0.950 . S
H843 C852 0.950 . S
H844 C854 0.950 . S
H845 C856 0.950 . S
H846 C858 0.950 . S
H847 C859 0.950 . S
C848 H840 0.950 . S
C848 C849 1.386 . S
C848 C850 1.391 . S
C849 C848 1.386 . S
C849 C853 1.393 . S
C850 H842 0.950 . S
C850 C848 1.391 . S
C850 C851 1.400 . S
C851 C850 1.400 . S
C851 C852 1.398 . S
C851 C857 1.491 . S
C852 H843 0.950 . S
C852 C851 1.398 . S
C852 C853 1.391 . S
C853 H841 0.950 . S
C853 C849 1.393 . S
C853 C852 1.391 . S
C854 H844 0.950 . S
C854 C855 1.386 . S
C854 C856 1.391 . S
C855 C854 1.386 . S
C855 C859 1.393 . S
C856 H845 0.950 . S
C856 C854 1.391 . S
C856 C857 1.400 . S
C857 C851 1.491 . S
C857 C856 1.400 . S
C857 C858 1.398 . S
C858 H846 0.950 . S
C858 C857 1.398 . S
C858 C859 1.391 . S
C859 H847 0.950 . S
C859 C855 1.393 . S
C859 C858 1.391 . S
H860 C868 0.950 . S
H861 C873 0.950 . S
H862 C870 0.950 . S
H863 C872 0.950 . S
H864 C874 0.950 . S
H865 C876 0.950 . S
H866 C878 0.950 . S
H867 C879 0.950 . S
C868 H860 0.950 . S
C868 C869 1.386 1_455 S
C868 C870 1.391 . S
C869 C868 1.386 1_655 S
C869 C873 1.393 . S
C870 H862 0.950 . S
C870 C868 1.391 . S
C870 C871 1.400 1_455 S
C871 C870 1.400 1_655 S
C871 C872 1.398 . S
C871 C877 1.491 . S
C872 H863 0.950 . S
C872 C871 1.398 . S
C872 C873 1.391 . S
C873 H861 0.950 . S
C873 C869 1.393 . S
C873 C872 1.391 . S
C874 H864 0.950 . S
C874 C875 1.386 . S
C874 C876 1.391 . S
C875 C874 1.386 . S
C875 C879 1.393 1_655 S
C876 H865 0.950 . S
C876 C874 1.391 . S
C876 C877 1.400 . S
C877 C871 1.491 . S
C877 C876 1.400 . S
C877 C878 1.398 1_655 S
C878 H866 0.950 . S
C878 C877 1.398 1_455 S
C878 C879 1.391 . S
C879 H867 0.950 . S
C879 C875 1.393 1_455 S
C879 C878 1.391 . S
H880 C888 0.950 . S
H881 C893 0.950 . S
H882 C890 0.950 . S
H883 C892 0.950 . S
H884 C894 0.950 . S
H885 C896 0.950 . S
H886 C898 0.950 . S
H887 C899 0.950 . S
C888 H880 0.950 . S
C888 C889 1.386 . S
C888 C890 1.391 . S
C889 C888 1.386 . S
C889 C893 1.393 . S
C890 H882 0.950 . S
C890 C888 1.391 . S
C890 C891 1.400 . S
C891 C890 1.400 . S
C891 C892 1.398 . S
C891 C897 1.491 . S
C892 H883 0.950 . S
C892 C891 1.398 . S
C892 C893 1.391 . S
C893 H881 0.950 . S
C893 C889 1.393 . S
C893 C892 1.391 . S
C894 H884 0.950 . S
C894 C895 1.386 . S
C894 C896 1.391 . S
C895 C894 1.386 . S
C895 C899 1.393 . S
C896 H885 0.950 . S
C896 C894 1.391 . S
C896 C897 1.400 . S
C897 C891 1.491 . S
C897 C896 1.400 . S
C897 C898 1.398 . S
C898 H886 0.950 . S
C898 C897 1.398 . S
C898 C899 1.391 . S
C899 H887 0.950 . S
C899 C895 1.393 . S
C899 C898 1.391 . S
C369 C9 1.242 . S
C375 C18 1.242 . S
C389 C58 1.266 . S
C395 C49 1.266 . S
C409 C89 1.236 1_556 S
C415 C98 1.236 . S
C429 C138 1.263 . S
C435 C129 1.263 1_556 S
C449 C169 1.227 . S
C455 C178 1.214 1_546 S
C469 C218 1.261 . S
C475 C209 1.261 . S
C489 C250 1.223 . S
C495 C259 1.223 . S
C509 C290 1.237 . S
C515 C299 1.237 . S
C529 C330 1.218 . S
C535 C339 1.218 . S
C549 C206 2.496 . S
C555 C10 2.528 . S
C569 C46 1.514 . S
C575 C126 1.484 . S
C589 C90 3.780 . S
C595 C170 3.726 . S
C609 C86 0.672 . S
C615 C255 0.698 . S
C629 C295 1.427 . S
C635 C6 1.384 . S
C649 C335 1.748 1_554 S
C655 C50 1.772 . S
C669 C329 2.682 . S
C675 C19 2.737 . S
C689 C55 1.461 . S
C695 C249 1.426 . S
C709 C289 1.744 . S
C715 C99 1.819 . S
C729 C95 2.495 . S
C735 C139 2.532 . S
C749 C175 1.526 . S
C755 C15 1.502 . S
C769 C59 3.730 . S
C775 C219 3.783 . S
C789 C338 2.689 . S
C795 C130 2.734 . S
C809 C258 1.438 . S
C815 C166 1.459 . S
C829 C298 1.768 . S
C835 C210 1.832 . S
C849 C246 0.702 . S
C855 C215 0.678 . S
C869 C135 1.392 . S
C875 C286 1.416 . S
C889 C326 1.731 . S
C895 C179 1.766 . S
