# Generated by pormake.
# Topology umd, (4)-cn, num edge types: 1
# Building blocks:
#     Node 0, Type 0, BuildingBlock: ESEHIV_clean_sbu_0, # of connection points: 4
#     Node 1, Type 0, BuildingBlock: ESEHIV_clean_sbu_0, # of connection points: 4
#     Node 2, Type 0, BuildingBlock: ESEHIV_clean_sbu_0, # of connection points: 4
#     Node 3, Type 0, BuildingBlock: ESEHIV_clean_sbu_0, # of connection points: 4
#     Node 4, Type 0, BuildingBlock: ESEHIV_clean_sbu_0, # of connection points: 4
#     Node 5, Type 0, BuildingBlock: ESEHIV_clean_sbu_0, # of connection points: 4
#     Node 6, Type 0, BuildingBlock: ESEHIV_clean_sbu_0, # of connection points: 4
#     Node 7, Type 0, BuildingBlock: ESEHIV_clean_sbu_0, # of connection points: 4
#     Node 8, Type 0, BuildingBlock: ESEHIV_clean_sbu_0, # of connection points: 4
#     Node 9, Type 0, BuildingBlock: ESEHIV_clean_sbu_0, # of connection points: 4
#     Node 10, Type 0, BuildingBlock: ESEHIV_clean_sbu_0, # of connection points: 4
#     Node 11, Type 0, BuildingBlock: ESEHIV_clean_sbu_0, # of connection points: 4
#     Node 12, Type 0, BuildingBlock: ESEHIV_clean_sbu_0, # of connection points: 4
#     Node 13, Type 0, BuildingBlock: ESEHIV_clean_sbu_0, # of connection points: 4
#     Node 14, Type 0, BuildingBlock: ESEHIV_clean_sbu_0, # of connection points: 4
#     Node 15, Type 0, BuildingBlock: ESEHIV_clean_sbu_0, # of connection points: 4
#     Edge 16, Type (0, 0), None
#     Edge 17, Type (0, 0), None
#     Edge 18, Type (0, 0), None
#     Edge 19, Type (0, 0), None
#     Edge 20, Type (0, 0), None
#     Edge 21, Type (0, 0), None
#     Edge 22, Type (0, 0), None
#     Edge 23, Type (0, 0), None
#     Edge 24, Type (0, 0), None
#     Edge 25, Type (0, 0), None
#     Edge 26, Type (0, 0), None
#     Edge 27, Type (0, 0), None
#     Edge 28, Type (0, 0), None
#     Edge 29, Type (0, 0), None
#     Edge 30, Type (0, 0), None
#     Edge 31, Type (0, 0), None
#     Edge 32, Type (0, 0), None
#     Edge 33, Type (0, 0), None
#     Edge 34, Type (0, 0), None
#     Edge 35, Type (0, 0), None
#     Edge 36, Type (0, 0), None
#     Edge 37, Type (0, 0), None
#     Edge 38, Type (0, 0), None
#     Edge 39, Type (0, 0), None
#     Edge 40, Type (0, 0), None
#     Edge 41, Type (0, 0), None
#     Edge 42, Type (0, 0), None
#     Edge 43, Type (0, 0), None
#     Edge 44, Type (0, 0), None
#     Edge 45, Type (0, 0), None
#     Edge 46, Type (0, 0), None
#     Edge 47, Type (0, 0), None
# Relax obj value: 0.040
# Max RMSD: 0.145
# Mean RMSD: 0.145
data_MOF--net-umd--node1-ESEHIV_clean_sbu_0--edge1-none
_symmetry_space_group_name_H-M    P1
_symmetry_Int_Tables_number       1
_symmetry_cell_setting            triclinic
loop_
_symmetry_equiv_pos_as_xyz
'x, y, z'
_cell_length_a     24.638389
_cell_length_b     24.638369
_cell_length_c     23.024351
_cell_angle_alpha  90.026569
_cell_angle_beta   89.967724
_cell_angle_gamma 89.999201
loop_
_atom_site_label
_atom_site_type_symbol
_atom_site_fract_x
_atom_site_fract_y
_atom_site_fract_z
_atom_type_partial_charge
Cu0 Cu 0.20555 0.4587 0.19281 0.0
N1 N 0.13169 0.46949 0.2064 0.0
N2 N 0.05268 0.51239 0.21664 0.0
C3 C 0.10664 0.51802 0.2091 0.0
C4 C 0.04313 0.45855 0.21898 0.0
C5 C 0.09223 0.43209 0.21271 0.0
O6 O 0.24243 0.51391 0.23836 0.0
C7 C 0.263 0.46989 0.08439 0.0
O8 O 0.3078 0.46231 0.11415 0.0
H9 H 0.12742 0.55639 0.20386 0.0
H10 H 0.09858 0.38867 0.21166 0.0
N11 N 0.22476 0.38767 0.21402 0.0
N12 N 0.26258 0.3057 0.21377 0.0
C13 C 0.25656 0.35263 0.18453 0.0
C14 C 0.20973 0.36099 0.26268 0.0
C15 C 0.23405 0.31054 0.26319 0.0
C16 C 0.25194 0.50874 0.2924 0.0
O17 O 0.24598 0.46123 0.3172 0.0
H18 H 0.27581 0.36152 0.14341 0.0
H19 H 0.18334 0.37738 0.2959 0.0
O20 O 0.21735 0.47005 0.11026 0.0
H21 H 1.00373 0.43975 0.22394 0.0
H22 H 0.2312 0.27999 0.29681 0.0
Cu23 Cu 0.60763 0.20502 0.69265 0.0
N24 N 0.59685 0.1312 0.70639 0.0
N25 N 0.55389 0.05224 0.71671 0.0
C26 C 0.54831 0.10616 0.7088 0.0
C27 C 0.60771 0.04272 0.7196 0.0
C28 C 0.63421 0.09179 0.71328 0.0
O29 O 0.5523 0.24196 0.73803 0.0
C30 C 0.59657 0.26232 0.58426 0.0
O31 O 0.60398 0.30712 0.61413 0.0
H32 H 0.50998 0.1269 0.70314 0.0
H33 H 0.67764 0.09815 0.71264 0.0
N34 N 0.6786 0.22437 0.71393 0.0
N35 N 0.76049 0.26236 0.71362 0.0
C36 C 0.71365 0.25602 0.6843 0.0
C37 C 0.70518 0.20976 0.76278 0.0
C38 C 0.75558 0.2342 0.76325 0.0
C39 C 0.55743 0.25203 0.79197 0.0
O40 O 0.60499 0.2467 0.81679 0.0
H41 H 0.70481 0.27497 0.64303 0.0
H42 H 0.68873 0.18362 0.79617 0.0
O43 O 0.59643 0.21666 0.61006 0.0
H44 H 0.62648 1.00335 0.72499 0.0
H45 H 0.78603 0.2317 0.797 0.0
Cu46 Cu 0.86076 0.60802 0.19289 0.0
N47 N 0.9346 0.59723 0.20648 0.0
N48 N 1.01359 0.55429 0.21663 0.0
C49 C 0.95966 0.54869 0.20884 0.0
C50 C 1.02309 0.60811 0.21955 0.0
C51 C 0.97401 0.6346 0.21331 0.0
O52 O 0.82391 0.55252 0.23808 0.0
C53 C 0.80339 0.59716 0.08447 0.0
O54 O 0.7586 0.60459 0.11434 0.0
H55 H 0.93891 0.51035 0.20324 0.0
H56 H 0.96764 0.67802 0.21271 0.0
N57 N 0.84142 0.67891 0.21457 0.0
N58 N 0.80349 0.76083 0.21487 0.0
C59 C 0.80965 0.71408 0.18529 0.0
C60 C 0.85626 0.70532 0.26348 0.0
C61 C 0.83188 0.75574 0.26432 0.0
C62 C 0.81384 0.55751 0.29204 0.0
O63 O 0.8191 0.60503 0.31704 0.0
H64 H 0.79052 0.70541 0.14406 0.0
H65 H 0.88254 0.68874 0.29664 0.0
O66 O 0.84906 0.59699 0.11026 0.0
H67 H 0.06246 0.62689 0.22493 0.0
H68 H 0.83458 0.78609 0.29819 0.0
Cu69 Cu 0.45827 0.86028 0.69296 0.0
N70 N 0.46908 0.93414 0.70649 0.0
N71 N 0.51199 1.01316 0.71662 0.0
C72 C 0.51761 0.95918 0.70917 0.0
C73 C 0.45815 1.02271 0.71899 0.0
C74 C 0.43168 0.97362 0.71276 0.0
O75 O 0.5136 0.82345 0.73835 0.0
C76 C 0.46929 0.80288 0.58444 0.0
O77 O 0.46173 0.75805 0.61417 0.0
H78 H 0.55599 0.93839 0.70398 0.0
H79 H 0.38826 0.96728 0.71173 0.0
N80 N 0.3873 0.8411 0.71453 0.0
N81 N 0.3053 0.80335 0.71484 0.0
C82 C 0.35216 0.80917 0.68537 0.0
C83 C 0.36075 0.85639 0.76321 0.0
C84 C 0.31028 0.83212 0.76407 0.0
C85 C 0.50855 0.81398 0.79242 0.0
O86 O 0.4611 0.81997 0.81739 0.0
H87 H 0.36092 0.78971 0.64432 0.0
H88 H 0.37726 0.88292 0.79621 0.0
O89 O 0.46946 0.84851 0.61036 0.0
H90 H 0.43934 0.06212 0.72394 0.0
H91 H 0.27982 0.83518 0.79779 0.0
Cu92 Cu 0.20493 0.60777 0.42811 0.0
N93 N 0.1311 0.59699 0.41442 0.0
N94 N 0.05214 0.55403 0.40414 0.0
C95 C 0.10606 0.54845 0.41204 0.0
C96 C 0.04262 0.60785 0.40122 0.0
C97 C 0.09169 0.63435 0.40752 0.0
O98 O 0.24184 0.55239 0.38277 0.0
C99 C 0.26229 0.59677 0.53646 0.0
O100 O 0.30707 0.6042 0.50656 0.0
H101 H 0.1268 0.51012 0.41771 0.0
H102 H 0.09806 0.67778 0.40813 0.0
N103 N 0.22429 0.67872 0.40675 0.0
N104 N 0.26228 0.76061 0.40697 0.0
C105 C 0.25592 0.7138 0.43635 0.0
C106 C 0.20971 0.70525 0.35786 0.0
C107 C 0.23415 0.75565 0.35733 0.0
C108 C 0.25202 0.55751 0.32885 0.0
O109 O 0.24684 0.60507 0.30399 0.0
H110 H 0.27485 0.70501 0.47765 0.0
H111 H 0.18359 0.68876 0.32448 0.0
O112 O 0.21661 0.59661 0.51069 0.0
H113 H 1.00326 0.62662 0.39582 0.0
H114 H 0.23166 0.78606 0.32354 0.0
Cu115 Cu 0.45863 0.20554 0.92801 0.0
N116 N 0.4694 0.1317 0.91436 0.0
N117 N 0.51231 0.05269 0.90406 0.0
C118 C 0.51793 0.10664 0.91167 0.0
C119 C 0.45847 0.04315 0.90165 0.0
C120 C 0.43201 0.09224 0.90795 0.0
O121 O 0.51385 0.24243 0.88246 0.0
C122 C 0.46983 0.26293 1.03645 0.0
O123 O 0.46228 0.30774 1.0067 0.0
H124 H 0.5563 0.12741 0.91698 0.0
H125 H 0.38858 0.0986 0.90896 0.0
N126 N 0.38761 0.22479 0.90683 0.0
N127 N 0.30566 0.26264 0.90716 0.0
C128 C 0.35258 0.25654 0.93638 0.0
C129 C 0.36093 0.20986 0.85813 0.0
C130 C 0.31049 0.23421 0.85767 0.0
C131 C 0.50867 0.25204 0.82844 0.0
O132 O 0.46115 0.24621 0.80364 0.0
H133 H 0.36147 0.27571 0.97755 0.0
H134 H 0.37732 0.18354 0.82485 0.0
O135 O 0.46998 0.21728 1.01057 0.0
H136 H 0.43966 1.00375 0.89662 0.0
H137 H 0.27994 0.23144 0.82404 0.0
Cu138 Cu 0.86016 0.45841 0.4278 0.0
N139 N 0.93403 0.46922 0.41432 0.0
N140 N 1.01306 0.51213 0.40423 0.0
C141 C 0.95907 0.51776 0.41165 0.0
C142 C 1.02261 0.45829 0.40188 0.0
C143 C 0.97351 0.43183 0.40808 0.0
O144 O 0.82334 0.51373 0.38239 0.0
C145 C 0.80269 0.46943 0.53629 0.0
O146 O 0.75788 0.46182 0.50655 0.0
H147 H 0.93828 0.55613 0.41682 0.0
H148 H 0.96717 0.3884 0.40912 0.0
N149 N 0.841 0.38743 0.40626 0.0
N150 N 0.80326 0.30542 0.40599 0.0
C151 C 0.80909 0.35228 0.43544 0.0
C152 C 0.85627 0.36089 0.35757 0.0
C153 C 0.83202 0.31041 0.35674 0.0
C154 C 0.81387 0.50866 0.32833 0.0
O155 O 0.81983 0.46121 0.30336 0.0
H156 H 0.78964 0.36104 0.47651 0.0
H157 H 0.88279 0.3774 0.32456 0.0
O158 O 0.84833 0.46962 0.51039 0.0
H159 H 0.06202 0.43948 0.39695 0.0
H160 H 0.83507 0.27994 0.32302 0.0
Cu161 Cu 0.60791 0.86077 0.92785 0.0
N162 N 0.59713 0.9346 0.91424 0.0
N163 N 0.5542 1.0136 0.90407 0.0
C164 C 0.5486 0.95966 0.91184 0.0
C165 C 0.60802 1.0231 0.90121 0.0
C166 C 0.63451 0.97402 0.90746 0.0
O167 O 0.55241 0.82393 0.88267 0.0
C168 C 0.59705 0.80346 1.03633 0.0
O169 O 0.60447 0.75865 1.00649 0.0
H170 H 0.51025 0.93892 0.91741 0.0
H171 H 0.67793 0.96765 0.90811 0.0
N172 N 0.6788 0.84143 0.90616 0.0
N173 N 0.76073 0.80351 0.90583 0.0
C174 C 0.71397 0.80964 0.93542 0.0
C175 C 0.70521 0.85631 0.85726 0.0
C176 C 0.75563 0.83193 0.8564 0.0
C177 C 0.55741 0.81389 0.8287 0.0
O178 O 0.60491 0.81917 0.80367 0.0
H179 H 0.7053 0.79048 0.97663 0.0
H180 H 0.68863 0.88261 0.82412 0.0
O181 O 0.59689 0.84911 1.0105 0.0
H182 H 0.62681 0.06248 0.89587 0.0
H183 H 0.78598 0.83466 0.82253 0.0
Cu184 Cu 0.86525 0.61906 0.91908 0.0
N185 N 0.93865 0.60339 0.90811 0.0
N186 N 1.01415 0.55402 0.90089 0.0
C187 C 0.96047 0.55338 0.91196 0.0
C188 C 1.02695 0.60618 0.88956 0.0
C189 C 0.97995 0.63666 0.89385 0.0
O190 O 0.82824 0.59213 0.85061 0.0
C191 C 0.80266 0.59993 1.02073 0.0
O192 O 0.76398 0.62707 0.99439 0.0
H193 H 0.93751 0.5175 0.92327 0.0
H194 H 0.9761 0.67991 0.88694 0.0
N195 N 0.85218 0.69323 0.92641 0.0
N196 N 0.80424 0.7695 0.92088 0.0
C197 C 0.81716 0.72258 0.89429 0.0
C198 C 0.86127 0.72281 0.97474 0.0
C199 C 0.83104 0.76987 0.97172 0.0
C200 C 0.82254 0.54177 0.84082 0.0
O201 O 0.83247 0.50695 0.88267 0.0
H202 H 0.79718 0.70744 0.8557 0.0
H203 H 0.88391 0.70861 1.012 0.0
O204 O 0.84551 0.58727 0.99307 0.0
H205 H 0.067 0.62107 0.87867 0.0
H206 H 0.82615 0.80001 1.00553 0.0
Cu207 Cu 0.4465 0.8658 0.42 0.0
N208 N 0.46123 0.93956 0.41054 0.0
N209 N 0.50951 1.01566 0.40221 0.0
C210 C 0.51134 0.96117 0.40638 0.0
C211 C 0.45648 1.0292 0.40364 0.0
C212 C 0.42665 0.98187 0.40866 0.0
O213 O 0.47288 0.83022 0.35038 0.0
C214 C 0.46647 0.80228 0.5207 0.0
O215 O 0.43889 0.76392 0.49432 0.0
H216 H 0.54828 0.93752 0.40801 0.0
H217 H 0.38295 0.97856 0.41161 0.0
N218 N 0.37251 0.85206 0.42798 0.0
N219 N 0.29631 0.804 0.42239 0.0
C220 C 0.34301 0.81736 0.39559 0.0
C221 C 0.34326 0.86051 0.47668 0.0
C222 C 0.29625 0.8302 0.47362 0.0
C223 C 0.52291 0.8221 0.34054 0.0
O224 O 0.55808 0.82876 0.38279 0.0
H225 H 0.35788 0.79793 0.35653 0.0
H226 H 0.35764 0.88283 0.51411 0.0
O227 O 0.47921 0.84519 0.49322 0.0
H228 H 0.4405 0.07006 0.4017 0.0
H229 H 0.26634 0.82488 0.50759 0.0
Cu230 Cu 0.19999 0.44662 0.92014 0.0
N231 N 0.12615 0.46113 0.91102 0.0
N232 N 0.04994 0.50927 0.90288 0.0
C233 C 0.10449 0.51115 0.90606 0.0
C234 C 0.03643 0.45628 0.90574 0.0
C235 C 0.08381 0.42654 0.91066 0.0
O236 O 0.23526 0.47293 0.85035 0.0
C237 C 0.26363 0.46697 1.02066 0.0
O238 O 0.30198 0.4393 0.99432 0.0
H239 H 0.12816 0.54811 0.90651 0.0
H240 H 0.08715 0.38293 0.91468 0.0
N241 N 0.21397 0.3727 0.92817 0.0
N242 N 0.26222 0.29662 0.92258 0.0
C243 C 0.2488 0.34328 0.89582 0.0
C244 C 0.2055 0.34343 0.97682 0.0
C245 C 0.23592 0.29648 0.97376 0.0
C246 C 0.24361 0.52292 0.84055 0.0
O247 O 0.23728 0.55812 0.88286 0.0
H248 H 0.26824 0.35819 0.85679 0.0
H249 H 0.18306 0.35774 1.01421 0.0
O250 O 0.22071 0.47962 0.99319 0.0
H251 H 0.99554 0.44029 0.90491 0.0
H252 H 0.2412 0.26655 1.00766 0.0
Cu253 Cu 0.61903 0.20045 0.41899 0.0
N254 N 0.60353 0.12701 0.40805 0.0
N255 N 0.55428 0.05144 0.40064 0.0
C256 C 0.55345 0.10522 0.41111 0.0
C257 C 0.60663 0.03854 0.39047 0.0
C258 C 0.63705 0.08557 0.3949 0.0
O259 O 0.59221 0.23738 0.35047 0.0
C260 C 0.59945 0.26305 0.52053 0.0
O261 O 0.62656 0.30178 0.4942 0.0
H262 H 0.51738 0.12826 0.42154 0.0
H263 H 0.68044 0.08935 0.38892 0.0
N264 N 0.69314 0.21371 0.42642 0.0
N265 N 0.7693 0.26185 0.42099 0.0
C266 C 0.72242 0.24888 0.39439 0.0
C267 C 0.72271 0.20458 0.47472 0.0
C268 C 0.76971 0.23492 0.47176 0.0
C269 C 0.54188 0.24339 0.34076 0.0
O270 O 0.50703 0.23381 0.38271 0.0
H271 H 0.70728 0.26889 0.35583 0.0
H272 H 0.70855 0.1818 0.51192 0.0
O273 O 0.58699 0.22014 0.49289 0.0
H274 H 0.62172 0.99839 0.38036 0.0
H275 H 0.79985 0.23977 0.50554 0.0
Cu276 Cu 0.86576 0.44655 0.70058 0.0
N277 N 0.93957 0.46117 0.70973 0.0
N278 N 1.01574 0.50936 0.71797 0.0
C279 C 0.96119 0.51122 0.71461 0.0
C280 C 1.02928 0.45637 0.71526 0.0
C281 C 0.98192 0.4266 0.71029 0.0
O282 O 0.83044 0.47287 0.77038 0.0
C283 C 0.80208 0.4666 0.60003 0.0
O284 O 0.76379 0.4389 0.62639 0.0
H285 H 0.93751 0.54816 0.71401 0.0
H286 H 0.97861 0.38297 0.70638 0.0
N287 N 0.85193 0.37258 0.69255 0.0
N288 N 0.80386 0.29639 0.69816 0.0
C289 C 0.81726 0.34307 0.72497 0.0
C290 C 0.86033 0.34335 0.64382 0.0
C291 C 0.83001 0.29635 0.64689 0.0
C292 C 0.8221 0.52287 0.78023 0.0
O293 O 0.82843 0.55809 0.73796 0.0
H294 H 0.79789 0.35793 0.76406 0.0
H295 H 0.88262 0.35774 0.60637 0.0
O296 O 0.84498 0.47939 0.62749 0.0
H297 H 0.07017 0.4404 0.71622 0.0
H298 H 0.82465 0.26646 0.61293 0.0
Cu299 Cu 0.61904 0.86538 0.20167 0.0
N300 N 0.60343 0.93879 0.21266 0.0
N301 N 0.55414 1.01433 0.22015 0.0
C302 C 0.55336 0.96058 0.20949 0.0
C303 C 0.60645 1.02721 0.23054 0.0
C304 C 0.63689 0.98019 0.22608 0.0
O305 O 0.59217 0.82839 0.27018 0.0
C306 C 0.59983 0.80277 0.10007 0.0
O307 O 0.62694 0.76408 0.12643 0.0
H308 H 0.51734 0.93756 0.19885 0.0
H309 H 0.68025 0.97641 0.23222 0.0
N310 N 0.6932 0.85228 0.19428 0.0
N311 N 0.76948 0.80434 0.1998 0.0
C312 C 0.72258 0.8173 0.22642 0.0
C313 C 0.72274 0.86131 0.14591 0.0
C314 C 0.76981 0.83108 0.14891 0.0
C315 C 0.54182 0.82245 0.27995 0.0
O316 O 0.50696 0.8321 0.23807 0.0
H317 H 0.70747 0.79736 0.26506 0.0
H318 H 0.70852 0.88391 0.10863 0.0
O319 O 0.58721 0.84565 0.12771 0.0
H320 H 0.62149 0.06733 0.24083 0.0
H321 H 0.79992 0.82615 0.11508 0.0
Cu322 Cu 0.20046 0.61905 0.70178 0.0
N323 N 0.12704 0.60347 0.71271 0.0
N324 N 0.05151 0.55413 0.71987 0.0
C325 C 0.10521 0.55345 0.70896 0.0
C326 C 0.03869 0.60633 0.73102 0.0
C327 C 0.0857 0.6368 0.72675 0.0
O328 O 0.23741 0.59218 0.77026 0.0
C329 C 0.26304 0.59962 0.60019 0.0
O330 O 0.30175 0.62676 0.6265 0.0
H331 H 0.1282 0.51753 0.69782 0.0
H332 H 0.08954 0.68007 0.73352 0.0
N333 N 0.21365 0.69318 0.69441 0.0
N334 N 0.26174 0.76937 0.69986 0.0
C335 C 0.24882 0.72246 0.72643 0.0
C336 C 0.20446 0.72278 0.64614 0.0
C337 C 0.23477 0.7698 0.64911 0.0
C338 C 0.2432 0.54182 0.77998 0.0
O339 O 0.23336 0.50698 0.7381 0.0
H340 H 0.26889 0.70729 0.76495 0.0
H341 H 0.18166 0.70863 0.60896 0.0
O342 O 0.22017 0.58709 0.62785 0.0
H343 H 0.99862 0.62126 0.74175 0.0
H344 H 0.23957 0.79996 0.61535 0.0
Cu345 Cu 0.44658 0.20007 0.20084 0.0
N346 N 0.46117 0.12628 0.21026 0.0
N347 N 0.50939 0.05012 0.21848 0.0
C348 C 0.51125 0.10463 0.21452 0.0
C349 C 0.45635 0.03662 0.21684 0.0
C350 C 0.42656 0.08397 0.21187 0.0
O351 O 0.47294 0.23558 0.27046 0.0
C352 C 0.4669 0.26355 0.10019 0.0
O353 O 0.43933 0.30196 0.12653 0.0
H354 H 0.54821 0.12826 0.2131 0.0
H355 H 0.38289 0.08731 0.20875 0.0
N356 N 0.37264 0.21399 0.19287 0.0
N357 N 0.29656 0.26224 0.19842 0.0
C358 C 0.34325 0.24889 0.22516 0.0
C359 C 0.34332 0.20541 0.14427 0.0
C360 C 0.29638 0.23583 0.14731 0.0
C361 C 0.52296 0.24375 0.28021 0.0
O362 O 0.55815 0.23713 0.23792 0.0
H363 H 0.3582 0.26842 0.26411 0.0
H364 H 0.3576 0.18289 0.10692 0.0
O365 O 0.47948 0.22061 0.12767 0.0
H366 H 0.44036 0.99576 0.21858 0.0
H367 H 0.26641 0.24103 0.11343 0.0
loop_
_geom_bond_atom_site_label_1
_geom_bond_atom_site_label_2
_geom_bond_distance
_geom_bond_site_symmetry_2
_ccdc_geom_bond_type
Cu0 N1 1.999 . S
Cu0 O6 1.974 . S
Cu0 N11 1.985 . S
Cu0 O20 1.959 . S
N1 Cu0 1.999 . S
N1 C3 1.263 . S
N1 C5 1.389 . S
N2 C3 1.358 . S
N2 C4 1.400 . S
C3 N1 1.263 . S
C3 N2 1.358 . S
C3 H9 0.930 . S
C4 N2 1.400 . S
C4 C5 1.351 . S
C4 H21 0.930 1_455 S
C5 N1 1.389 . S
C5 C4 1.351 . S
C5 H10 0.930 . S
O6 Cu0 1.974 . S
O6 C16 1.282 . S
C7 O8 1.261 . S
C7 O20 1.251 . S
O8 C7 1.261 . S
H9 C3 0.930 . S
H10 C5 0.930 . S
N11 Cu0 1.985 . S
N11 C13 1.335 . S
N11 C14 1.390 . S
N12 C13 1.345 . S
N12 C15 1.336 . S
C13 N11 1.335 . S
C13 N12 1.345 . S
C13 H18 0.930 . S
C14 N11 1.390 . S
C14 C15 1.346 . S
C14 H19 0.930 . S
C15 N12 1.336 . S
C15 C14 1.346 . S
C15 H22 0.929 . S
C16 O6 1.282 . S
C16 O17 1.216 . S
O17 C16 1.216 . S
H18 C13 0.930 . S
H19 C14 0.930 . S
O20 Cu0 1.959 . S
O20 C7 1.251 . S
H21 C4 0.930 1_655 S
H22 C15 0.929 . S
Cu23 N24 1.999 . S
Cu23 O29 1.974 . S
Cu23 N34 1.985 . S
Cu23 O43 1.959 . S
N24 Cu23 1.999 . S
N24 C26 1.263 . S
N24 C28 1.389 . S
N25 C26 1.358 . S
N25 C27 1.400 . S
C26 N24 1.263 . S
C26 N25 1.358 . S
C26 H32 0.930 . S
C27 N25 1.400 . S
C27 C28 1.351 . S
C27 H44 0.930 1_545 S
C28 N24 1.389 . S
C28 C27 1.351 . S
C28 H33 0.930 . S
O29 Cu23 1.974 . S
O29 C39 1.282 . S
C30 O31 1.261 . S
C30 O43 1.251 . S
O31 C30 1.261 . S
H32 C26 0.930 . S
H33 C28 0.930 . S
N34 Cu23 1.985 . S
N34 C36 1.335 . S
N34 C37 1.390 . S
N35 C36 1.345 . S
N35 C38 1.336 . S
C36 N34 1.335 . S
C36 N35 1.345 . S
C36 H41 0.930 . S
C37 N34 1.390 . S
C37 C38 1.346 . S
C37 H42 0.930 . S
C38 N35 1.336 . S
C38 C37 1.346 . S
C38 H45 0.929 . S
C39 O29 1.282 . S
C39 O40 1.216 . S
O40 C39 1.216 . S
H41 C36 0.930 . S
H42 C37 0.930 . S
O43 Cu23 1.959 . S
O43 C30 1.251 . S
H44 C27 0.930 1_565 S
H45 C38 0.929 . S
Cu46 N47 1.999 . S
Cu46 O52 1.974 . S
Cu46 N57 1.985 . S
Cu46 O66 1.959 . S
N47 Cu46 1.999 . S
N47 C49 1.263 . S
N47 C51 1.389 . S
N48 C49 1.358 . S
N48 C50 1.400 . S
C49 N47 1.263 . S
C49 N48 1.358 . S
C49 H55 0.930 . S
C50 N48 1.400 . S
C50 C51 1.351 . S
C50 H67 0.930 1_655 S
C51 N47 1.389 . S
C51 C50 1.351 . S
C51 H56 0.930 . S
O52 Cu46 1.974 . S
O52 C62 1.282 . S
C53 O54 1.261 . S
C53 O66 1.251 . S
O54 C53 1.261 . S
H55 C49 0.930 . S
H56 C51 0.930 . S
N57 Cu46 1.985 . S
N57 C59 1.335 . S
N57 C60 1.390 . S
N58 C59 1.345 . S
N58 C61 1.336 . S
C59 N57 1.335 . S
C59 N58 1.345 . S
C59 H64 0.930 . S
C60 N57 1.390 . S
C60 C61 1.346 . S
C60 H65 0.930 . S
C61 N58 1.336 . S
C61 C60 1.346 . S
C61 H68 0.929 . S
C62 O52 1.282 . S
C62 O63 1.216 . S
O63 C62 1.216 . S
H64 C59 0.930 . S
H65 C60 0.930 . S
O66 Cu46 1.959 . S
O66 C53 1.251 . S
H67 C50 0.930 1_455 S
H68 C61 0.929 . S
Cu69 N70 1.999 . S
Cu69 O75 1.974 . S
Cu69 N80 1.985 . S
Cu69 O89 1.959 . S
N70 Cu69 1.999 . S
N70 C72 1.263 . S
N70 C74 1.389 . S
N71 C72 1.358 . S
N71 C73 1.400 . S
C72 N70 1.263 . S
C72 N71 1.358 . S
C72 H78 0.930 . S
C73 N71 1.400 . S
C73 C74 1.351 . S
C73 H90 0.930 1_565 S
C74 N70 1.389 . S
C74 C73 1.351 . S
C74 H79 0.930 . S
O75 Cu69 1.974 . S
O75 C85 1.282 . S
C76 O77 1.261 . S
C76 O89 1.251 . S
O77 C76 1.261 . S
H78 C72 0.930 . S
H79 C74 0.930 . S
N80 Cu69 1.985 . S
N80 C82 1.335 . S
N80 C83 1.390 . S
N81 C82 1.345 . S
N81 C84 1.336 . S
C82 N80 1.335 . S
C82 N81 1.345 . S
C82 H87 0.930 . S
C83 N80 1.390 . S
C83 C84 1.346 . S
C83 H88 0.930 . S
C84 N81 1.336 . S
C84 C83 1.346 . S
C84 H91 0.929 . S
C85 O75 1.282 . S
C85 O86 1.216 . S
O86 C85 1.216 . S
H87 C82 0.930 . S
H88 C83 0.930 . S
O89 Cu69 1.959 . S
O89 C76 1.251 . S
H90 C73 0.930 1_545 S
H91 C84 0.929 . S
Cu92 N93 1.999 . S
Cu92 O98 1.974 . S
Cu92 N103 1.985 . S
Cu92 O112 1.959 . S
N93 Cu92 1.999 . S
N93 C95 1.263 . S
N93 C97 1.389 . S
N94 C95 1.358 . S
N94 C96 1.400 . S
C95 N93 1.263 . S
C95 N94 1.358 . S
C95 H101 0.930 . S
C96 N94 1.400 . S
C96 C97 1.351 . S
C96 H113 0.930 1_455 S
C97 N93 1.389 . S
C97 C96 1.351 . S
C97 H102 0.930 . S
O98 Cu92 1.974 . S
O98 C108 1.282 . S
C99 O100 1.261 . S
C99 O112 1.251 . S
O100 C99 1.261 . S
H101 C95 0.930 . S
H102 C97 0.930 . S
N103 Cu92 1.985 . S
N103 C105 1.335 . S
N103 C106 1.390 . S
N104 C105 1.345 . S
N104 C107 1.336 . S
C105 N103 1.335 . S
C105 N104 1.345 . S
C105 H110 0.930 . S
C106 N103 1.390 . S
C106 C107 1.346 . S
C106 H111 0.930 . S
C107 N104 1.336 . S
C107 C106 1.346 . S
C107 H114 0.929 . S
C108 O98 1.282 . S
C108 O109 1.216 . S
O109 C108 1.216 . S
H110 C105 0.930 . S
H111 C106 0.930 . S
O112 Cu92 1.959 . S
O112 C99 1.251 . S
H113 C96 0.930 1_655 S
H114 C107 0.929 . S
Cu115 N116 1.999 . S
Cu115 O121 1.974 . S
Cu115 N126 1.985 . S
Cu115 O135 1.959 . S
N116 Cu115 1.999 . S
N116 C118 1.263 . S
N116 C120 1.389 . S
N117 C118 1.358 . S
N117 C119 1.400 . S
C118 N116 1.263 . S
C118 N117 1.358 . S
C118 H124 0.930 . S
C119 N117 1.400 . S
C119 C120 1.351 . S
C119 H136 0.930 1_545 S
C120 N116 1.389 . S
C120 C119 1.351 . S
C120 H125 0.930 . S
O121 Cu115 1.974 . S
O121 C131 1.282 . S
C122 O123 1.261 . S
C122 O135 1.251 . S
O123 C122 1.261 . S
H124 C118 0.930 . S
H125 C120 0.930 . S
N126 Cu115 1.985 . S
N126 C128 1.335 . S
N126 C129 1.390 . S
N127 C128 1.345 . S
N127 C130 1.336 . S
C128 N126 1.335 . S
C128 N127 1.345 . S
C128 H133 0.930 . S
C129 N126 1.390 . S
C129 C130 1.346 . S
C129 H134 0.930 . S
C130 N127 1.336 . S
C130 C129 1.346 . S
C130 H137 0.929 . S
C131 O121 1.282 . S
C131 O132 1.216 . S
O132 C131 1.216 . S
H133 C128 0.930 . S
H134 C129 0.930 . S
O135 Cu115 1.959 . S
O135 C122 1.251 . S
H136 C119 0.930 1_565 S
H137 C130 0.929 . S
Cu138 N139 1.999 . S
Cu138 O144 1.974 . S
Cu138 N149 1.985 . S
Cu138 O158 1.959 . S
N139 Cu138 1.999 . S
N139 C141 1.263 . S
N139 C143 1.389 . S
N140 C141 1.358 . S
N140 C142 1.400 . S
C141 N139 1.263 . S
C141 N140 1.358 . S
C141 H147 0.930 . S
C142 N140 1.400 . S
C142 C143 1.351 . S
C142 H159 0.930 1_655 S
C143 N139 1.389 . S
C143 C142 1.351 . S
C143 H148 0.930 . S
O144 Cu138 1.974 . S
O144 C154 1.282 . S
C145 O146 1.261 . S
C145 O158 1.251 . S
O146 C145 1.261 . S
H147 C141 0.930 . S
H148 C143 0.930 . S
N149 Cu138 1.985 . S
N149 C151 1.335 . S
N149 C152 1.390 . S
N150 C151 1.345 . S
N150 C153 1.336 . S
C151 N149 1.335 . S
C151 N150 1.345 . S
C151 H156 0.930 . S
C152 N149 1.390 . S
C152 C153 1.346 . S
C152 H157 0.930 . S
C153 N150 1.336 . S
C153 C152 1.346 . S
C153 H160 0.929 . S
C154 O144 1.282 . S
C154 O155 1.216 . S
O155 C154 1.216 . S
H156 C151 0.930 . S
H157 C152 0.930 . S
O158 Cu138 1.959 . S
O158 C145 1.251 . S
H159 C142 0.930 1_455 S
H160 C153 0.929 . S
Cu161 N162 1.999 . S
Cu161 O167 1.974 . S
Cu161 N172 1.985 . S
Cu161 O181 1.959 . S
N162 Cu161 1.999 . S
N162 C164 1.263 . S
N162 C166 1.389 . S
N163 C164 1.358 . S
N163 C165 1.400 . S
C164 N162 1.263 . S
C164 N163 1.358 . S
C164 H170 0.930 . S
C165 N163 1.400 . S
C165 C166 1.351 . S
C165 H182 0.930 1_565 S
C166 N162 1.389 . S
C166 C165 1.351 . S
C166 H171 0.930 . S
O167 Cu161 1.974 . S
O167 C177 1.282 . S
C168 O169 1.261 . S
C168 O181 1.251 . S
O169 C168 1.261 . S
H170 C164 0.930 . S
H171 C166 0.930 . S
N172 Cu161 1.985 . S
N172 C174 1.335 . S
N172 C175 1.390 . S
N173 C174 1.345 . S
N173 C176 1.336 . S
C174 N172 1.335 . S
C174 N173 1.345 . S
C174 H179 0.930 . S
C175 N172 1.390 . S
C175 C176 1.346 . S
C175 H180 0.930 . S
C176 N173 1.336 . S
C176 C175 1.346 . S
C176 H183 0.929 . S
C177 O167 1.282 . S
C177 O178 1.216 . S
O178 C177 1.216 . S
H179 C174 0.930 . S
H180 C175 0.930 . S
O181 Cu161 1.959 . S
O181 C168 1.251 . S
H182 C165 0.930 1_545 S
H183 C176 0.929 . S
Cu184 N185 1.999 . S
Cu184 O190 1.974 . S
Cu184 N195 1.985 . S
Cu184 O204 1.959 . S
N185 Cu184 1.999 . S
N185 C187 1.263 . S
N185 C189 1.389 . S
N186 C187 1.358 . S
N186 C188 1.400 . S
C187 N185 1.263 . S
C187 N186 1.358 . S
C187 H193 0.930 . S
C188 N186 1.400 . S
C188 C189 1.351 . S
C188 H205 0.930 1_655 S
C189 N185 1.389 . S
C189 C188 1.351 . S
C189 H194 0.930 . S
O190 Cu184 1.974 . S
O190 C200 1.282 . S
C191 O192 1.261 . S
C191 O204 1.251 . S
O192 C191 1.261 . S
H193 C187 0.930 . S
H194 C189 0.930 . S
N195 Cu184 1.985 . S
N195 C197 1.335 . S
N195 C198 1.390 . S
N196 C197 1.345 . S
N196 C199 1.336 . S
C197 N195 1.335 . S
C197 N196 1.345 . S
C197 H202 0.930 . S
C198 N195 1.390 . S
C198 C199 1.346 . S
C198 H203 0.930 . S
C199 N196 1.336 . S
C199 C198 1.346 . S
C199 H206 0.929 . S
C200 O190 1.282 . S
C200 O201 1.216 . S
O201 C200 1.216 . S
H202 C197 0.930 . S
H203 C198 0.930 . S
O204 Cu184 1.959 . S
O204 C191 1.251 . S
H205 C188 0.930 1_455 S
H206 C199 0.929 . S
Cu207 N208 1.999 . S
Cu207 O213 1.974 . S
Cu207 N218 1.985 . S
Cu207 O227 1.959 . S
N208 Cu207 1.999 . S
N208 C210 1.263 . S
N208 C212 1.389 . S
N209 C210 1.358 . S
N209 C211 1.400 . S
C210 N208 1.263 . S
C210 N209 1.358 . S
C210 H216 0.930 . S
C211 N209 1.400 . S
C211 C212 1.351 . S
C211 H228 0.930 1_565 S
C212 N208 1.389 . S
C212 C211 1.351 . S
C212 H217 0.930 . S
O213 Cu207 1.974 . S
O213 C223 1.282 . S
C214 O215 1.261 . S
C214 O227 1.251 . S
O215 C214 1.261 . S
H216 C210 0.930 . S
H217 C212 0.930 . S
N218 Cu207 1.985 . S
N218 C220 1.335 . S
N218 C221 1.390 . S
N219 C220 1.345 . S
N219 C222 1.336 . S
C220 N218 1.335 . S
C220 N219 1.345 . S
C220 H225 0.930 . S
C221 N218 1.390 . S
C221 C222 1.346 . S
C221 H226 0.930 . S
C222 N219 1.336 . S
C222 C221 1.346 . S
C222 H229 0.929 . S
C223 O213 1.282 . S
C223 O224 1.216 . S
O224 C223 1.216 . S
H225 C220 0.930 . S
H226 C221 0.930 . S
O227 Cu207 1.959 . S
O227 C214 1.251 . S
H228 C211 0.930 1_545 S
H229 C222 0.929 . S
Cu230 N231 1.999 . S
Cu230 O236 1.974 . S
Cu230 N241 1.985 . S
Cu230 O250 1.959 . S
N231 Cu230 1.999 . S
N231 C233 1.263 . S
N231 C235 1.389 . S
N232 C233 1.358 . S
N232 C234 1.400 . S
C233 N231 1.263 . S
C233 N232 1.358 . S
C233 H239 0.930 . S
C234 N232 1.400 . S
C234 C235 1.351 . S
C234 H251 0.930 1_455 S
C235 N231 1.389 . S
C235 C234 1.351 . S
C235 H240 0.930 . S
O236 Cu230 1.974 . S
O236 C246 1.282 . S
C237 O238 1.261 . S
C237 O250 1.251 . S
O238 C237 1.261 . S
H239 C233 0.930 . S
H240 C235 0.930 . S
N241 Cu230 1.985 . S
N241 C243 1.335 . S
N241 C244 1.390 . S
N242 C243 1.345 . S
N242 C245 1.336 . S
C243 N241 1.335 . S
C243 N242 1.345 . S
C243 H248 0.930 . S
C244 N241 1.390 . S
C244 C245 1.346 . S
C244 H249 0.930 . S
C245 N242 1.336 . S
C245 C244 1.346 . S
C245 H252 0.929 . S
C246 O236 1.282 . S
C246 O247 1.216 . S
O247 C246 1.216 . S
H248 C243 0.930 . S
H249 C244 0.930 . S
O250 Cu230 1.959 . S
O250 C237 1.251 . S
H251 C234 0.930 1_655 S
H252 C245 0.929 . S
Cu253 N254 1.999 . S
Cu253 O259 1.974 . S
Cu253 N264 1.985 . S
Cu253 O273 1.959 . S
N254 Cu253 1.999 . S
N254 C256 1.263 . S
N254 C258 1.389 . S
N255 C256 1.358 . S
N255 C257 1.400 . S
C256 N254 1.263 . S
C256 N255 1.358 . S
C256 H262 0.930 . S
C257 N255 1.400 . S
C257 C258 1.351 . S
C257 H274 0.930 1_545 S
C258 N254 1.389 . S
C258 C257 1.351 . S
C258 H263 0.930 . S
O259 Cu253 1.974 . S
O259 C269 1.282 . S
C260 O261 1.261 . S
C260 O273 1.251 . S
O261 C260 1.261 . S
H262 C256 0.930 . S
H263 C258 0.930 . S
N264 Cu253 1.985 . S
N264 C266 1.335 . S
N264 C267 1.390 . S
N265 C266 1.345 . S
N265 C268 1.336 . S
C266 N264 1.335 . S
C266 N265 1.345 . S
C266 H271 0.930 . S
C267 N264 1.390 . S
C267 C268 1.346 . S
C267 H272 0.930 . S
C268 N265 1.336 . S
C268 C267 1.346 . S
C268 H275 0.929 . S
C269 O259 1.282 . S
C269 O270 1.216 . S
O270 C269 1.216 . S
H271 C266 0.930 . S
H272 C267 0.930 . S
O273 Cu253 1.959 . S
O273 C260 1.251 . S
H274 C257 0.930 1_565 S
H275 C268 0.929 . S
Cu276 N277 1.999 . S
Cu276 O282 1.974 . S
Cu276 N287 1.985 . S
Cu276 O296 1.959 . S
N277 Cu276 1.999 . S
N277 C279 1.263 . S
N277 C281 1.389 . S
N278 C279 1.358 . S
N278 C280 1.400 . S
C279 N277 1.263 . S
C279 N278 1.358 . S
C279 H285 0.930 . S
C280 N278 1.400 . S
C280 C281 1.351 . S
C280 H297 0.930 1_655 S
C281 N277 1.389 . S
C281 C280 1.351 . S
C281 H286 0.930 . S
O282 Cu276 1.974 . S
O282 C292 1.282 . S
C283 O284 1.261 . S
C283 O296 1.251 . S
O284 C283 1.261 . S
H285 C279 0.930 . S
H286 C281 0.930 . S
N287 Cu276 1.985 . S
N287 C289 1.335 . S
N287 C290 1.390 . S
N288 C289 1.345 . S
N288 C291 1.336 . S
C289 N287 1.335 . S
C289 N288 1.345 . S
C289 H294 0.930 . S
C290 N287 1.390 . S
C290 C291 1.346 . S
C290 H295 0.930 . S
C291 N288 1.336 . S
C291 C290 1.346 . S
C291 H298 0.929 . S
C292 O282 1.282 . S
C292 O293 1.216 . S
O293 C292 1.216 . S
H294 C289 0.930 . S
H295 C290 0.930 . S
O296 Cu276 1.959 . S
O296 C283 1.251 . S
H297 C280 0.930 1_455 S
H298 C291 0.929 . S
Cu299 N300 1.999 . S
Cu299 O305 1.974 . S
Cu299 N310 1.985 . S
Cu299 O319 1.959 . S
N300 Cu299 1.999 . S
N300 C302 1.263 . S
N300 C304 1.389 . S
N301 C302 1.358 . S
N301 C303 1.400 . S
C302 N300 1.263 . S
C302 N301 1.358 . S
C302 H308 0.930 . S
C303 N301 1.400 . S
C303 C304 1.351 . S
C303 H320 0.930 1_565 S
C304 N300 1.389 . S
C304 C303 1.351 . S
C304 H309 0.930 . S
O305 Cu299 1.974 . S
O305 C315 1.282 . S
C306 O307 1.261 . S
C306 O319 1.251 . S
O307 C306 1.261 . S
H308 C302 0.930 . S
H309 C304 0.930 . S
N310 Cu299 1.985 . S
N310 C312 1.335 . S
N310 C313 1.390 . S
N311 C312 1.345 . S
N311 C314 1.336 . S
C312 N310 1.335 . S
C312 N311 1.345 . S
C312 H317 0.930 . S
C313 N310 1.390 . S
C313 C314 1.346 . S
C313 H318 0.930 . S
C314 N311 1.336 . S
C314 C313 1.346 . S
C314 H321 0.929 . S
C315 O305 1.282 . S
C315 O316 1.216 . S
O316 C315 1.216 . S
H317 C312 0.930 . S
H318 C313 0.930 . S
O319 Cu299 1.959 . S
O319 C306 1.251 . S
H320 C303 0.930 1_545 S
H321 C314 0.929 . S
Cu322 N323 1.999 . S
Cu322 O328 1.974 . S
Cu322 N333 1.985 . S
Cu322 O342 1.959 . S
N323 Cu322 1.999 . S
N323 C325 1.263 . S
N323 C327 1.389 . S
N324 C325 1.358 . S
N324 C326 1.400 . S
C325 N323 1.263 . S
C325 N324 1.358 . S
C325 H331 0.930 . S
C326 N324 1.400 . S
C326 C327 1.351 . S
C326 H343 0.930 1_455 S
C327 N323 1.389 . S
C327 C326 1.351 . S
C327 H332 0.930 . S
O328 Cu322 1.974 . S
O328 C338 1.282 . S
C329 O330 1.261 . S
C329 O342 1.251 . S
O330 C329 1.261 . S
H331 C325 0.930 . S
H332 C327 0.930 . S
N333 Cu322 1.985 . S
N333 C335 1.335 . S
N333 C336 1.390 . S
N334 C335 1.345 . S
N334 C337 1.336 . S
C335 N333 1.335 . S
C335 N334 1.345 . S
C335 H340 0.930 . S
C336 N333 1.390 . S
C336 C337 1.346 . S
C336 H341 0.930 . S
C337 N334 1.336 . S
C337 C336 1.346 . S
C337 H344 0.929 . S
C338 O328 1.282 . S
C338 O339 1.216 . S
O339 C338 1.216 . S
H340 C335 0.930 . S
H341 C336 0.930 . S
O342 Cu322 1.959 . S
O342 C329 1.251 . S
H343 C326 0.930 1_655 S
H344 C337 0.929 . S
Cu345 N346 1.999 . S
Cu345 O351 1.974 . S
Cu345 N356 1.985 . S
Cu345 O365 1.959 . S
N346 Cu345 1.999 . S
N346 C348 1.263 . S
N346 C350 1.389 . S
N347 C348 1.358 . S
N347 C349 1.400 . S
C348 N346 1.263 . S
C348 N347 1.358 . S
C348 H354 0.930 . S
C349 N347 1.400 . S
C349 C350 1.351 . S
C349 H366 0.930 1_545 S
C350 N346 1.389 . S
C350 C349 1.351 . S
C350 H355 0.930 . S
O351 Cu345 1.974 . S
O351 C361 1.282 . S
C352 O353 1.261 . S
C352 O365 1.251 . S
O353 C352 1.261 . S
H354 C348 0.930 . S
H355 C350 0.930 . S
N356 Cu345 1.985 . S
N356 C358 1.335 . S
N356 C359 1.390 . S
N357 C358 1.345 . S
N357 C360 1.336 . S
C358 N356 1.335 . S
C358 N357 1.345 . S
C358 H363 0.930 . S
C359 N356 1.390 . S
C359 C360 1.346 . S
C359 H364 0.930 . S
C360 N357 1.336 . S
C360 C359 1.346 . S
C360 H367 0.929 . S
C361 O351 1.282 . S
C361 O362 1.216 . S
O362 C361 1.216 . S
H363 C358 0.930 . S
H364 C359 0.930 . S
O365 Cu345 1.959 . S
O365 C352 1.251 . S
H366 C349 0.930 1_565 S
H367 C360 0.929 . S
N2 N48 1.460 1_455 S
N71 N25 1.460 1_565 S
N94 N140 1.460 1_455 S
N163 N117 1.460 1_565 S
N186 N232 1.460 1_655 S
N255 N209 1.460 1_545 S
N278 N324 1.460 1_655 S
N347 N301 1.460 1_545 S
C108 C16 1.635 . S
C39 C131 1.635 . S
C62 C154 1.635 . S
C177 C85 1.635 . S
C200 C292 1.635 . S
C223 C315 1.635 . S
C246 C338 1.635 . S
C269 C361 1.635 . S
C237 C7 1.677 1_556 S
C260 C30 1.677 . S
C53 C191 1.677 1_554 S
C76 C214 1.677 . S
C99 C329 1.677 . S
C122 C352 1.677 1_556 S
C145 C283 1.677 . S
C306 C168 1.677 1_554 S
N12 N357 1.550 . S
N288 N35 1.550 . S
N58 N311 1.550 . S
N334 N81 1.550 . S
N219 N104 1.550 . S
N127 N242 1.550 . S
N265 N150 1.550 . S
N196 N173 1.550 . S
