# Generated by pormake.
# Topology wib, (6)-cn, num edge types: 1
# Building blocks:
#     Node 0, Type 0, BuildingBlock: IZENUY_clean_sbu_0, # of connection points: 6
#     Node 1, Type 0, BuildingBlock: IZENUY_clean_sbu_0, # of connection points: 6
#     Node 2, Type 0, BuildingBlock: IZENUY_clean_sbu_0, # of connection points: 6
#     Node 3, Type 0, BuildingBlock: IZENUY_clean_sbu_0, # of connection points: 6
#     Node 4, Type 0, BuildingBlock: IZENUY_clean_sbu_0, # of connection points: 6
#     Node 5, Type 0, BuildingBlock: IZENUY_clean_sbu_0, # of connection points: 6
#     Node 6, Type 0, BuildingBlock: IZENUY_clean_sbu_0, # of connection points: 6
#     Node 7, Type 0, BuildingBlock: IZENUY_clean_sbu_0, # of connection points: 6
#     Node 8, Type 0, BuildingBlock: IZENUY_clean_sbu_0, # of connection points: 6
#     Node 9, Type 0, BuildingBlock: IZENUY_clean_sbu_0, # of connection points: 6
#     Node 10, Type 0, BuildingBlock: IZENUY_clean_sbu_0, # of connection points: 6
#     Node 11, Type 0, BuildingBlock: IZENUY_clean_sbu_0, # of connection points: 6
#     Node 12, Type 0, BuildingBlock: IZENUY_clean_sbu_0, # of connection points: 6
#     Node 13, Type 0, BuildingBlock: IZENUY_clean_sbu_0, # of connection points: 6
#     Node 14, Type 0, BuildingBlock: IZENUY_clean_sbu_0, # of connection points: 6
#     Node 15, Type 0, BuildingBlock: IZENUY_clean_sbu_0, # of connection points: 6
#     Edge 16, Type (0, 0), BuildingBlock: UVAHIK_clean_linker_0, # of connection points: 2
#     Edge 17, Type (0, 0), BuildingBlock: UVAHIK_clean_linker_0, # of connection points: 2
#     Edge 18, Type (0, 0), BuildingBlock: UVAHIK_clean_linker_0, # of connection points: 2
#     Edge 19, Type (0, 0), BuildingBlock: UVAHIK_clean_linker_0, # of connection points: 2
#     Edge 20, Type (0, 0), BuildingBlock: UVAHIK_clean_linker_0, # of connection points: 2
#     Edge 21, Type (0, 0), BuildingBlock: UVAHIK_clean_linker_0, # of connection points: 2
#     Edge 22, Type (0, 0), BuildingBlock: UVAHIK_clean_linker_0, # of connection points: 2
#     Edge 23, Type (0, 0), BuildingBlock: UVAHIK_clean_linker_0, # of connection points: 2
#     Edge 24, Type (0, 0), BuildingBlock: UVAHIK_clean_linker_0, # of connection points: 2
#     Edge 25, Type (0, 0), BuildingBlock: UVAHIK_clean_linker_0, # of connection points: 2
#     Edge 26, Type (0, 0), BuildingBlock: UVAHIK_clean_linker_0, # of connection points: 2
#     Edge 27, Type (0, 0), BuildingBlock: UVAHIK_clean_linker_0, # of connection points: 2
#     Edge 28, Type (0, 0), BuildingBlock: UVAHIK_clean_linker_0, # of connection points: 2
#     Edge 29, Type (0, 0), BuildingBlock: UVAHIK_clean_linker_0, # of connection points: 2
#     Edge 30, Type (0, 0), BuildingBlock: UVAHIK_clean_linker_0, # of connection points: 2
#     Edge 31, Type (0, 0), BuildingBlock: UVAHIK_clean_linker_0, # of connection points: 2
#     Edge 32, Type (0, 0), BuildingBlock: UVAHIK_clean_linker_0, # of connection points: 2
#     Edge 33, Type (0, 0), BuildingBlock: UVAHIK_clean_linker_0, # of connection points: 2
#     Edge 34, Type (0, 0), BuildingBlock: UVAHIK_clean_linker_0, # of connection points: 2
#     Edge 35, Type (0, 0), BuildingBlock: UVAHIK_clean_linker_0, # of connection points: 2
#     Edge 36, Type (0, 0), BuildingBlock: UVAHIK_clean_linker_0, # of connection points: 2
#     Edge 37, Type (0, 0), BuildingBlock: UVAHIK_clean_linker_0, # of connection points: 2
#     Edge 38, Type (0, 0), BuildingBlock: UVAHIK_clean_linker_0, # of connection points: 2
#     Edge 39, Type (0, 0), BuildingBlock: UVAHIK_clean_linker_0, # of connection points: 2
#     Edge 40, Type (0, 0), BuildingBlock: UVAHIK_clean_linker_0, # of connection points: 2
#     Edge 41, Type (0, 0), BuildingBlock: UVAHIK_clean_linker_0, # of connection points: 2
#     Edge 42, Type (0, 0), BuildingBlock: UVAHIK_clean_linker_0, # of connection points: 2
#     Edge 43, Type (0, 0), BuildingBlock: UVAHIK_clean_linker_0, # of connection points: 2
#     Edge 44, Type (0, 0), BuildingBlock: UVAHIK_clean_linker_0, # of connection points: 2
#     Edge 45, Type (0, 0), BuildingBlock: UVAHIK_clean_linker_0, # of connection points: 2
#     Edge 46, Type (0, 0), BuildingBlock: UVAHIK_clean_linker_0, # of connection points: 2
#     Edge 47, Type (0, 0), BuildingBlock: UVAHIK_clean_linker_0, # of connection points: 2
#     Edge 48, Type (0, 0), BuildingBlock: UVAHIK_clean_linker_0, # of connection points: 2
#     Edge 49, Type (0, 0), BuildingBlock: UVAHIK_clean_linker_0, # of connection points: 2
#     Edge 50, Type (0, 0), BuildingBlock: UVAHIK_clean_linker_0, # of connection points: 2
#     Edge 51, Type (0, 0), BuildingBlock: UVAHIK_clean_linker_0, # of connection points: 2
#     Edge 52, Type (0, 0), BuildingBlock: UVAHIK_clean_linker_0, # of connection points: 2
#     Edge 53, Type (0, 0), BuildingBlock: UVAHIK_clean_linker_0, # of connection points: 2
#     Edge 54, Type (0, 0), BuildingBlock: UVAHIK_clean_linker_0, # of connection points: 2
#     Edge 55, Type (0, 0), BuildingBlock: UVAHIK_clean_linker_0, # of connection points: 2
#     Edge 56, Type (0, 0), BuildingBlock: UVAHIK_clean_linker_0, # of connection points: 2
#     Edge 57, Type (0, 0), BuildingBlock: UVAHIK_clean_linker_0, # of connection points: 2
#     Edge 58, Type (0, 0), BuildingBlock: UVAHIK_clean_linker_0, # of connection points: 2
#     Edge 59, Type (0, 0), BuildingBlock: UVAHIK_clean_linker_0, # of connection points: 2
#     Edge 60, Type (0, 0), BuildingBlock: UVAHIK_clean_linker_0, # of connection points: 2
#     Edge 61, Type (0, 0), BuildingBlock: UVAHIK_clean_linker_0, # of connection points: 2
#     Edge 62, Type (0, 0), BuildingBlock: UVAHIK_clean_linker_0, # of connection points: 2
#     Edge 63, Type (0, 0), BuildingBlock: UVAHIK_clean_linker_0, # of connection points: 2
# Relax obj value: 0.444
# Max RMSD: 0.268
# Mean RMSD: 0.268
data_MOF--net-wib--node1-IZENUY_clean_sbu_0--edge1-UVAHIK_clean_linker_0
_symmetry_space_group_name_H-M    P1
_symmetry_Int_Tables_number       1
_symmetry_cell_setting            triclinic
loop_
_symmetry_equiv_pos_as_xyz
'x, y, z'
_cell_length_a     38.663119
_cell_length_b     38.69681
_cell_length_c     73.448695
_cell_angle_alpha  90.052427
_cell_angle_beta   89.926745
_cell_angle_gamma 89.999734
loop_
_atom_site_label
_atom_site_type_symbol
_atom_site_fract_x
_atom_site_fract_y
_atom_site_fract_z
_atom_type_partial_charge
Fe0 Fe 0.08913 0.54794 0.27063 0.0
Fe1 Fe 0.12162 0.47689 0.27706 0.0
O2 O 0.11507 0.52034 0.28392 0.0
Fe3 Fe 0.13429 0.53633 0.30395 0.0
O4 O 0.1576 0.56915 0.29155 0.0
O5 O 0.1125 0.58758 0.27641 0.0
O6 O 0.11824 0.54358 0.25169 0.0
C7 C 0.12565 0.51542 0.24406 0.0
C8 C 0.06751 0.5686 0.30388 0.0
O9 O 0.11967 0.48673 0.25206 0.0
C10 C 0.11809 0.47263 0.3162 0.0
O11 O 0.061 0.51347 0.26219 0.0
O12 O 0.07517 0.46805 0.27846 0.0
O13 O 0.0986 0.56658 0.30942 0.0
O14 O 0.05883 0.55416 0.28917 0.0
C15 C 0.18688 0.49516 0.28787 0.0
O16 O 0.12617 0.45979 0.30077 0.0
O17 O 0.11226 0.50451 0.31758 0.0
C18 C 0.05308 0.48489 0.26939 0.0
O19 O 0.16794 0.48353 0.27528 0.0
O20 O 0.17362 0.50956 0.30177 0.0
C21 C 0.14299 0.59195 0.28212 0.0
Fe22 Fe 0.24913 0.37129 0.52878 0.0
Fe23 Fe 0.17683 0.38657 0.54443 0.0
O24 O 0.20435 0.36158 0.53046 0.0
Fe25 Fe 0.18689 0.32741 0.51725 0.0
O26 O 0.21819 0.33125 0.49856 0.0
O27 O 0.24428 0.37988 0.50436 0.0
O28 O 0.2443 0.41797 0.53208 0.0
C29 C 0.21831 0.43732 0.5299 0.0
C30 C 0.24612 0.29795 0.52929 0.0
O31 O 0.18813 0.42595 0.53239 0.0
C32 C 0.14771 0.32338 0.55003 0.0
O33 O 0.25604 0.36507 0.55329 0.0
O34 O 0.2097 0.39421 0.56191 0.0
O35 O 0.21356 0.29665 0.52917 0.0
O36 O 0.26199 0.32563 0.52514 0.0
C37 C 0.13828 0.37712 0.51231 0.0
O38 O 0.16244 0.34899 0.5574 0.0
O39 O 0.15222 0.31706 0.53329 0.0
C40 C 0.23902 0.38113 0.56548 0.0
O41 O 0.13973 0.38341 0.52919 0.0
O42 O 0.15919 0.3568 0.50467 0.0
C43 C 0.23169 0.35895 0.49297 0.0
Fe44 Fe 0.37372 0.51294 0.77551 0.0
Fe45 Fe 0.35552 0.4546 0.80194 0.0
O46 O 0.37788 0.4694 0.78249 0.0
Fe47 Fe 0.40442 0.44063 0.77012 0.0
O48 O 0.37946 0.44653 0.74976 0.0
O49 O 0.37825 0.50336 0.75067 0.0
O50 O 0.32781 0.5077 0.77215 0.0
C51 C 0.30712 0.49815 0.7844 0.0
C52 C 0.4429 0.50251 0.77066 0.0
O53 O 0.3181 0.48388 0.79884 0.0
C54 C 0.41991 0.41825 0.80399 0.0
O55 O 0.3671 0.53012 0.79908 0.0
O56 O 0.378 0.48508 0.81628 0.0
O57 O 0.4357 0.47379 0.76333 0.0
O58 O 0.41987 0.52024 0.77851 0.0
C59 C 0.34578 0.40056 0.779 0.0
O60 O 0.38833 0.42186 0.8084 0.0
O61 O 0.43126 0.43258 0.78981 0.0
C62 C 0.37393 0.51722 0.81465 0.0
O63 O 0.33188 0.42368 0.78859 0.0
O64 O 0.37739 0.40246 0.77456 0.0
C65 C 0.37399 0.475 0.74208 0.0
Fe66 Fe 0.23191 0.62573 0.02654 0.0
Fe67 Fe 0.28877 0.60629 0.05369 0.0
O68 O 0.27524 0.62889 0.03415 0.0
Fe69 Fe 0.30507 0.65454 0.02206 0.0
O70 O 0.2997 0.62832 1.00206 0.0
O71 O 0.24292 0.63045 1.00181 0.0
O72 O 0.23642 0.57968 0.02308 0.0
C73 C 0.24562 0.5586 0.03523 0.0
C74 C 0.2442 0.69437 0.0217 0.0
O75 O 0.25941 0.56914 0.04992 0.0
C76 C 0.32547 0.67053 0.05626 0.0
O77 O 0.21335 0.61895 0.04981 0.0
O78 O 0.25772 0.62896 0.0676 0.0
O79 O 0.27271 0.68594 1.01448 0.0
O80 O 0.22559 0.67212 0.02963 0.0
C81 C 0.34444 0.59621 0.03186 0.0
O82 O 0.3211 0.63906 0.06069 0.0
O83 O 0.31266 0.68192 0.04166 0.0
C84 C 0.22565 0.62523 0.06557 0.0
O85 O 0.32053 0.58234 0.04088 0.0
O86 O 0.34271 0.62766 0.02731 0.0
C87 C 0.27152 0.62346 0.99395 0.0
Fe88 Fe 0.85043 0.43314 0.74737 0.0
Fe89 Fe 0.91335 0.43913 0.77264 0.0
O90 O 0.87954 0.45879 0.76002 0.0
Fe91 Fe 0.87446 0.50437 0.76102 0.0
O92 O 0.82739 0.50455 0.75828 0.0
O93 O 0.81338 0.44985 0.75976 0.0
O94 O 0.8504 0.39752 0.76372 0.0
C95 C 0.85888 0.39694 0.78036 0.0
C96 C 0.86241 0.49229 0.72469 0.0
O97 O 0.88307 0.4152 0.78654 0.0
C98 C 0.94717 0.49464 0.75928 0.0
O99 O 0.88486 0.41339 0.73402 0.0
O100 O 0.91921 0.40257 0.75714 0.0
O101 O 0.88022 0.50878 0.73637 0.0
O102 O 0.8458 0.46517 0.72908 0.0
C103 C 0.88729 0.4875 0.79674 0.0
O104 O 0.9452 0.46215 0.75937 0.0
O105 O 0.92127 0.51295 0.76385 0.0
C106 C 0.91038 0.3977 0.74079 0.0
O107 O 0.91363 0.47192 0.79074 0.0
O108 O 0.86671 0.50151 0.78561 0.0
C109 C 0.80533 0.48121 0.76129 0.0
Fe110 Fe 0.82044 0.653 0.51942 0.0
Fe111 Fe 0.75297 0.61533 0.50974 0.0
O112 O 0.79796 0.62212 0.50605 0.0
Fe113 Fe 0.82071 0.59757 0.48963 0.0
O114 O 0.86069 0.59587 0.50264 0.0
O115 O 0.84872 0.62029 0.52903 0.0
O116 O 0.79308 0.64791 0.53965 0.0
C117 C 0.77757 0.62096 0.54486 0.0
C118 C 0.85222 0.66006 0.48476 0.0
O119 O 0.76117 0.60289 0.53343 0.0
C120 C 0.75626 0.61157 0.47232 0.0
O121 O 0.79373 0.68717 0.5105 0.0
O122 O 0.74419 0.66104 0.51588 0.0
O123 O 0.83523 0.63592 0.47741 0.0
O124 O 0.85208 0.66405 0.50184 0.0
C125 C 0.77833 0.54758 0.50412 0.0
O126 O 0.74222 0.62591 0.48604 0.0
O127 O 0.78441 0.59507 0.47382 0.0
C128 C 0.76134 0.68819 0.51221 0.0
O129 O 0.75363 0.56902 0.50433 0.0
O130 O 0.80874 0.55729 0.50062 0.0
C131 C 0.86641 0.59989 0.51943 0.0
Fe132 Fe 0.62338 0.50325 0.2595 0.0
Fe133 Fe 0.64392 0.55517 0.22993 0.0
O134 O 0.62154 0.54538 0.25016 0.0
Fe135 Fe 0.59723 0.57793 0.26104 0.0
O136 O 0.62373 0.57489 0.28103 0.0
O137 O 0.62061 0.51836 0.28374 0.0
O138 O 0.66983 0.50587 0.26206 0.0
C139 C 0.69069 0.51188 0.24923 0.0
C140 C 0.5553 0.51867 0.26504 0.0
O141 O 0.6801 0.525 0.23439 0.0
C142 C 0.58089 0.59368 0.22638 0.0
O143 O 0.62809 0.48107 0.23692 0.0
O144 O 0.61955 0.52326 0.21752 0.0
O145 O 0.56499 0.54817 0.27045 0.0
O146 O 0.57651 0.49824 0.25753 0.0
C147 C 0.65636 0.61405 0.24841 0.0
O148 O 0.61217 0.58782 0.22197 0.0
O149 O 0.56941 0.58284 0.24139 0.0
C150 C 0.62218 0.49144 0.22072 0.0
O151 O 0.66948 0.58755 0.2413 0.0
O152 O 0.62516 0.61391 0.25368 0.0
C153 C 0.62754 0.54803 0.29048 0.0
Fe154 Fe 0.69364 0.34676 1.01751 0.0
Fe155 Fe 0.76819 0.37085 1.01162 0.0
O156 O 0.72423 0.37057 1.00491 0.0
Fe157 Fe 0.71061 0.3942 0.98574 0.0
O158 O 0.68181 0.42008 0.99939 0.0
O159 O 0.65738 0.37594 1.0129 0.0
O160 O 0.70178 0.37257 0.03736 0.0
C161 C 0.73069 0.37597 0.04495 0.0
C162 C 0.67072 0.33213 0.98362 0.0
O163 O 0.75844 0.36739 0.03663 0.0
C164 C 0.77128 0.37099 0.97238 0.0
O165 O 0.7244 0.31357 0.02468 0.0
O166 O 0.77125 0.32417 1.00866 0.0
O167 O 0.67564 0.36366 0.97949 0.0
O168 O 0.68349 0.31987 0.99802 0.0
C169 C 0.75847 0.43873 1.00303 0.0
O170 O 0.78535 0.37587 0.98789 0.0
O171 O 0.73884 0.36971 0.97111 0.0
C172 C 0.75189 0.30333 1.01708 0.0
O173 O 0.76723 0.41707 1.01496 0.0
O174 O 0.74263 0.4292 0.98875 0.0
C175 C 0.65789 0.40775 1.00899 0.0
Fe176 Fe 0.62089 0.99696 0.77889 0.0
Fe177 Fe 0.6419 0.0526 0.80651 0.0
O178 O 0.62008 0.04039 0.7865 0.0
Fe179 Fe 0.59736 0.0718 0.774 0.0
O180 O 0.62492 0.065 0.7546 0.0
O181 O 0.61904 0.00848 0.75408 0.0
O182 O 0.66742 -0.00203 0.77659 0.0
C183 C 0.68815 0.00578 0.78919 0.0
C184 C 0.55371 0.01347 0.77218 0.0
O185 O 0.67751 0.02111 0.80346 0.0
C186 C 0.57953 0.09282 0.80775 0.0
O187 O 0.62421 0.978 0.8023 0.0
O188 O 0.61644 0.0231 0.81991 0.0
O189 O 0.56466 0.04152 0.76544 0.0
O190 O 0.57396 0.9937 0.78075 0.0
C191 C 0.65669 0.10829 0.7859 0.0
O192 O 0.61041 0.08696 0.81291 0.0
O193 O 0.56879 0.0803 0.79295 0.0
C194 C 0.61814 0.99084 0.81799 0.0
O195 O 0.66873 0.08268 0.79424 0.0
O196 O 0.62578 0.10809 0.78026 0.0
C197 C 0.62784 0.03668 0.7463 0.0
Fe198 Fe 0.67927 0.82991 0.01891 0.0
Fe199 Fe 0.74428 0.87134 0.02868 0.0
O200 O 0.69958 0.86281 0.03187 0.0
Fe201 Fe 0.67485 0.88783 0.04725 0.0
O202 O 0.63535 0.88603 0.03377 0.0
O203 O 0.65037 0.86069 1.00809 0.0
O204 O 0.70755 0.83429 0.99893 0.0
C205 C 0.72194 0.8616 0.99337 0.0
C206 C 0.64564 0.8248 0.05331 0.0
O207 O 0.73673 0.88133 1.00464 0.0
C208 C 0.73967 0.88017 0.06561 0.0
O209 O 0.70688 0.79766 0.02904 0.0
O210 O 0.75545 0.82574 0.02388 0.0
O211 O 0.66175 0.84995 0.06035 0.0
O212 O 0.64716 0.81928 0.03634 0.0
C213 C 0.71547 0.93808 0.0318 0.0
O214 O 0.75418 0.8635 0.0528 0.0
O215 O 0.71046 0.89436 0.0633 0.0
C216 C 0.7394 0.79826 0.02808 0.0
O217 O 0.7411 0.91789 0.0328 0.0
O218 O 0.68529 0.92742 0.03515 0.0
C219 C 0.63102 0.88075 1.01696 0.0
Fe220 Fe 0.87051 0.00251 0.27609 0.0
Fe221 Fe 0.8552 0.92844 0.28919 0.0
O222 O 0.87973 0.95753 0.27596 0.0
Fe223 Fe 0.91282 0.94162 0.2615 0.0
O224 O 0.90814 0.97572 0.24434 0.0
O225 O 0.85989 0.00061 0.25182 0.0
O226 O 0.82394 -0.00203 0.28022 0.0
C227 C 0.80415 0.97256 0.27737 0.0
C228 C 0.944 -0.00153 0.27516 0.0
O229 O 0.81528 0.94207 0.27852 0.0
C230 C 0.91807 0.89745 0.29234 0.0
O231 O 0.87864 0.00612 0.30056 0.0
O232 O 0.84979 0.95888 0.30821 0.0
O233 O 0.94464 0.96596 0.27404 0.0
O234 O 0.91625 0.01516 0.272 0.0
C235 C 0.86141 0.89544 0.25515 0.0
O236 O 0.89335 0.91168 0.30074 0.0
O237 O 0.92349 0.90431 0.27574 0.0
C238 C 0.86372 0.98754 0.31248 0.0
O239 O 0.8563 0.89368 0.27217 0.0
O240 O 0.8822 0.91678 0.24834 0.0
C241 C 0.87963 0.98876 0.23963 0.0
Fe242 Fe 0.73744 0.11392 0.5254 0.0
Fe243 Fe 0.79162 0.10253 0.55528 0.0
O244 O 0.77931 0.12104 0.53435 0.0
Fe245 Fe 0.80885 0.14699 0.52226 0.0
O246 O 0.80831 0.11739 0.50335 0.0
O247 O 0.75169 0.11547 0.501 0.0
O248 O 0.74504 0.06798 0.5242 0.0
C249 C 0.75373 0.04935 0.53751 0.0
C250 C 0.7461 0.18226 0.51799 0.0
O251 O 0.76555 0.06275 0.55205 0.0
C252 C 0.82318 0.16968 0.55621 0.0
O253 O 0.7161 0.10949 0.54812 0.0
O254 O 0.75717 0.12463 0.56708 0.0
O255 O 0.77567 0.17442 0.51194 0.0
O256 O 0.72791 0.16016 0.52627 0.0
C257 C 0.85147 0.09443 0.53678 0.0
O258 O 0.82039 0.13878 0.56194 0.0
O259 O 0.81124 0.17776 0.5408 0.0
C260 C 0.72574 0.11882 0.56395 0.0
O261 O 0.82701 0.07939 0.54482 0.0
O262 O 0.84751 0.12437 0.53025 0.0
C263 C 0.7817 0.10946 0.49441 0.0
Fe264 Fe 0.34384 0.95277 0.23107 0.0
Fe265 Fe 0.3909 0.93623 0.26307 0.0
O266 O 0.36827 0.96681 0.24994 0.0
Fe267 Fe 0.36975 0.01113 0.25582 0.0
O268 O 0.3234 0.01212 0.25925 0.0
O269 O 0.31037 0.98661 0.23339 0.0
O270 O 0.31674 0.92642 0.2454 0.0
C271 C 0.32799 0.90304 0.25568 0.0
C272 C 0.36986 0.01126 0.21656 0.0
O273 O 0.35989 0.9011 0.25935 0.0
C274 C 0.43678 0.99282 0.26155 0.0
O275 O 0.37266 0.91586 0.22552 0.0
O276 O 0.41702 0.92343 0.24372 0.0
O277 O 0.36543 0.02661 0.23179 0.0
O278 O 0.36948 0.97873 0.21583 0.0
C279 C 0.36387 0.97653 0.28988 0.0
O280 O 0.42566 0.96596 0.26943 0.0
O281 O 0.41653 0.01231 0.25282 0.0
C282 C 0.40404 0.90998 0.22966 0.0
O283 O 0.36586 0.94697 0.28289 0.0
O284 O 0.37316 0.00323 0.28093 0.0
C285 C 0.30142 0.00357 0.24742 0.0
Fe286 Fe 0.31794 0.16383 1.01449 0.0
Fe287 Fe 0.25149 0.12539 1.00391 0.0
O288 O 0.29693 0.13099 1.00176 0.0
Fe289 Fe 0.32137 0.10317 0.98767 0.0
O290 O 0.35941 0.10335 1.00224 0.0
O291 O 0.34432 0.13271 0.0267 0.0
O292 O 0.28772 0.16226 0.03378 0.0
C293 C 0.2716 0.13601 0.03946 0.0
C294 C 0.35481 0.16402 0.98098 0.0
O295 O 0.25647 0.11644 0.02824 0.0
C296 C 0.25959 0.11471 0.96719 0.0
O297 O 0.29303 0.19667 1.00301 0.0
O298 O 0.24267 0.17192 1.00783 0.0
O299 O 0.33841 0.13886 0.97421 0.0
O300 O 0.35205 0.17143 0.99769 0.0
C301 C 0.27592 0.05669 1.00267 0.0
O302 O 0.24438 0.13232 0.97945 0.0
O303 O 0.28717 0.09829 0.9707 0.0
C304 C 0.26054 0.19841 1.00379 0.0
O305 O 0.25189 0.07844 1.00052 0.0
O306 O 0.30703 0.06525 1.0002 0.0
C307 C 0.3629 0.11043 0.01891 0.0
Fe308 Fe 0.11964 0.97942 0.75894 0.0
Fe309 Fe 0.13735 0.03733 0.73213 0.0
O310 O 0.11597 0.02312 0.75198 0.0
Fe311 Fe 0.09111 0.05276 0.76477 0.0
O312 O 0.11718 0.04615 0.78468 0.0
O313 O 0.11727 0.98924 0.7838 0.0
O314 O 0.1662 0.98341 0.76125 0.0
C315 C 0.18615 0.99318 0.74867 0.0
C316 C 0.05109 0.99153 0.76569 0.0
O317 O 0.17403 0.00726 0.73446 0.0
C318 C 0.07411 0.07558 0.7312 0.0
O319 O 0.12401 0.96209 0.73525 0.0
O320 O 0.11302 0.00743 0.71831 0.0
O321 O 0.05946 0.02063 0.7722 0.0
O322 O 0.07287 0.97312 0.75721 0.0
C323 C 0.15035 0.09098 0.75486 0.0
O324 O 0.10525 0.07092 0.72632 0.0
O325 O 0.06307 0.06172 0.74558 0.0
C326 C 0.11693 0.97522 0.71976 0.0
O327 O 0.16283 0.06756 0.74497 0.0
O328 O 0.11897 0.0901 0.75983 0.0
C329 C 0.12245 0.01755 0.79226 0.0
Fe330 Fe 0.18872 0.84864 0.51528 0.0
Fe331 Fe 0.26349 0.87095 0.50829 0.0
O332 O 0.21909 0.87256 0.50259 0.0
Fe333 Fe 0.20464 0.89848 0.4844 0.0
O334 O 0.1785 0.92411 0.49959 0.0
O335 O 0.1533 0.87961 0.51233 0.0
O336 O 0.19931 0.87212 0.53559 0.0
C337 C 0.22893 0.87414 0.5425 0.0
C338 C 0.16258 0.83807 0.48166 0.0
O339 O 0.25573 0.86568 0.53336 0.0
C340 C 0.26318 0.87413 0.46906 0.0
O341 O 0.21877 0.81378 0.52086 0.0
O342 O 0.26495 0.82442 0.50429 0.0
O343 O 0.16784 0.8699 0.47836 0.0
O344 O 0.17618 0.82405 0.49537 0.0
C345 C 0.25534 0.93983 0.50149 0.0
O346 O 0.27867 0.87739 0.48432 0.0
O347 O 0.23061 0.87438 0.46842 0.0
C348 C 0.24562 0.80345 0.51267 0.0
O349 O 0.26425 0.91692 0.51272 0.0
O350 O 0.23828 0.93194 0.48733 0.0
C351 C 0.15568 0.91187 0.50994 0.0
C352 C 0.24046 0.47406 0.27177 0.0
C353 C 0.22507 0.49153 0.28654 0.0
C354 C 0.27652 0.47293 0.26989 0.0
C355 C 0.35385 0.52222 0.28272 0.0
H356 H 0.40513 0.44028 0.26862 0.0
C357 C 0.50134 0.5237 0.28335 0.0
C358 C 0.51912 0.50822 0.26878 0.0
C359 C 0.46607 0.518 0.28588 0.0
C360 C 0.39115 0.46347 0.27237 0.0
H361 H 0.23579 0.52073 0.31113 0.0
H362 H 0.29844 0.51875 0.30781 0.0
H363 H 0.34219 0.43719 0.27233 0.0
H364 H 0.51412 0.4734 0.24585 0.0
H365 H 0.45181 0.4639 0.25002 0.0
H366 H 0.40216 0.54881 0.28245 0.0
C367 C 0.28261 0.50615 0.29762 0.0
C368 C 0.35511 0.46167 0.27453 0.0
C369 C 0.24665 0.5071 0.29957 0.0
C370 C 0.50108 0.48557 0.25723 0.0
C371 C 0.46541 0.48015 0.25964 0.0
C372 C 0.38963 0.52407 0.28045 0.0
C373 C 0.29798 0.4895 0.28262 0.0
C374 C 0.33613 0.49098 0.27994 0.0
C375 C 0.44732 0.49708 0.27375 0.0
C376 C 0.40891 0.49467 0.27549 0.0
H377 H 0.22466 0.46179 0.26146 0.0
H378 H 0.28754 0.46009 0.25813 0.0
H379 H 0.33994 0.54548 0.28645 0.0
H380 H 0.51461 0.54087 0.29268 0.0
H381 H 0.45336 0.5306 0.29724 0.0
C382 C 0.2466 0.74906 0.5303 0.0
C383 C 0.25426 0.7665 0.51405 0.0
C384 C 0.24713 0.71313 0.53096 0.0
C385 C 0.27286 0.63303 0.50709 0.0
H386 H 0.19252 0.59675 0.53237 0.0
C387 C 0.25702 0.48877 0.52615 0.0
C388 C 0.22363 0.47435 0.5257 0.0
C389 C 0.26201 0.52398 0.52287 0.0
C390 C 0.21487 0.60635 0.52505 0.0
H391 H 0.27054 0.76042 0.48603 0.0
H392 H 0.27101 0.69695 0.48705 0.0
H393 H 0.20103 0.65871 0.53047 0.0
H394 H 0.16948 0.48535 0.5206 0.0
H395 H 0.17823 0.5467 0.51468 0.0
H396 H 0.28629 0.58032 0.50146 0.0
C397 C 0.26494 0.71121 0.49934 0.0
C398 C 0.22006 0.64194 0.52421 0.0
C399 C 0.26479 0.74746 0.49875 0.0
C400 C 0.19547 0.49573 0.52133 0.0
C401 C 0.20049 0.53091 0.51797 0.0
C402 C 0.26764 0.59724 0.50793 0.0
C403 C 0.25478 0.69373 0.51529 0.0
C404 C 0.24934 0.65573 0.51546 0.0
C405 C 0.23375 0.54557 0.51898 0.0
C406 C 0.23868 0.5835 0.51706 0.0
H407 H 0.23875 0.76324 0.54235 0.0
H408 H 0.24021 0.70049 0.5436 0.0
H409 H 0.29562 0.64288 0.50023 0.0
H410 H 0.27932 0.47303 0.52942 0.0
H411 H 0.2879 0.53445 0.52397 0.0
C412 C 0.25564 0.50669 0.76465 0.0
C413 C 0.27003 0.50582 0.78216 0.0
C414 C 0.22048 0.5133 0.76224 0.0
C415 C 0.13703 0.51375 0.78762 0.0
H416 H 0.10379 0.5533 0.74237 0.0
C417 C 0.99203 0.53383 0.77219 0.0
C418 C 0.98205 0.5098 0.75885 0.0
C419 C 0.027 0.54182 0.77464 0.0
C420 C 0.11284 0.54262 0.75514 0.0
H421 H 0.25936 0.51222 0.81091 0.0
H422 H 0.19818 0.52553 0.80676 0.0
H423 H 0.16584 0.55155 0.74845 0.0
H424 H 1e-05 0.47723 0.73679 0.0
H425 H 0.06106 0.49251 0.74053 0.0
H426 H 0.08368 0.50546 0.79427 0.0
C427 C 0.21365 0.51984 0.79484 0.0
C428 C 0.14836 0.54115 0.75858 0.0
C429 C 0.24876 0.51236 0.79726 0.0
C430 C 0.00714 0.496 0.74709 0.0
C431 C 0.04194 0.50471 0.74921 0.0
C432 C 0.10153 0.51604 0.78435 0.0
C433 C 0.1989 0.52007 0.77729 0.0
C434 C 0.16103 0.52569 0.77463 0.0
C435 C 0.05221 0.52665 0.76343 0.0
C436 C 0.08925 0.5297 0.76791 0.0
H437 H 0.27145 0.5014 0.75277 0.0
H438 H 0.21021 0.51225 0.74856 0.0
H439 H 0.14549 0.50116 0.79998 0.0
H440 H 0.97317 0.54441 0.78159 0.0
H441 H 0.03452 0.55867 0.78574 0.0
C442 C 0.22255 0.2423 0.01871 0.0
C443 C 0.24517 0.23324 1.0045 0.0
C444 C 0.21445 0.27705 0.02194 0.0
C445 C 0.21042 0.36357 1.00303 0.0
H446 H 0.25023 0.3961 0.04833 0.0
C447 C 0.23874 0.50782 1.01464 0.0
C448 C 0.23907 0.52135 0.03238 0.0
C449 C 0.23404 0.47247 1.0117 0.0
C450 C 0.23812 0.38764 0.03583 0.0
H451 H 0.27531 0.25279 0.98188 0.0
H452 H 0.25973 0.31338 0.98699 0.0
H453 H 0.24851 0.33443 0.04187 0.0
H454 H 0.23366 0.50874 0.06095 0.0
H455 H 0.22362 0.44723 0.05586 0.0
H456 H 0.19928 0.41636 0.99697 0.0
C457 C 0.24872 0.29372 0.99574 0.0
C458 C 0.23732 0.3522 0.03212 0.0
C459 C 0.25758 0.25915 0.99282 0.0
C460 C 0.23383 0.49892 0.04713 0.0
C461 C 0.22829 0.46358 0.04417 0.0
C462 C 0.21042 0.39898 1.0069 0.0
C463 C 0.22808 0.30305 1.01069 0.0
C464 C 0.22418 0.33996 1.01554 0.0
C465 C 0.22872 0.44972 0.0264 0.0
C466 C 0.22515 0.41168 0.02315 0.0
H467 H 0.21311 0.22283 0.02808 0.0
H468 H 0.19855 0.28375 0.03358 0.0
H469 H 0.20006 0.35462 0.99016 0.0
H470 H 0.24314 0.52446 1.00301 0.0
H471 H 0.23552 0.46303 0.99785 0.0
C472 C 0.49956 0.50556 0.75476 0.0
C473 C 0.47898 0.51463 0.76978 0.0
C474 C 0.53512 0.51144 0.755 0.0
C475 C 0.60593 0.51147 0.78657 0.0
H476 H 0.65946 0.54233 0.74494 0.0
C477 C 0.7575 0.52487 0.76171 0.0
C478 C 0.76894 0.49091 0.76492 0.0
C479 C 0.72275 0.53366 0.76415 0.0
C480 C 0.64491 0.53406 0.75677 0.0
H481 H 0.479 0.53813 0.79655 0.0
H482 H 0.54182 0.54776 0.79717 0.0
H483 H 0.59672 0.55022 0.74517 0.0
H484 H 0.75312 0.4399 0.77389 0.0
H485 H 0.69245 0.45538 0.77828 0.0
H486 H 0.65396 0.49389 0.79781 0.0
C487 C 0.53018 0.53645 0.78515 0.0
C488 C 0.60906 0.53847 0.75687 0.0
C489 C 0.49434 0.53119 0.78475 0.0
C490 C 0.74509 0.46623 0.7712 0.0
C491 C 0.71042 0.47515 0.77385 0.0
C492 C 0.64176 0.50665 0.78637 0.0
C493 C 0.55093 0.52594 0.77041 0.0
C494 C 0.58916 0.52658 0.7716 0.0
C495 C 0.69882 0.50882 0.77009 0.0
C496 C 0.6615 0.51728 0.7713 0.0
H497 H 0.48831 0.49275 0.74305 0.0
H498 H 0.55051 0.50281 0.74353 0.0
H499 H 0.59115 0.50175 0.79801 0.0
H500 H 0.77522 0.54454 0.7569 0.0
H501 H 0.71452 0.55984 0.76126 0.0
C502 C 0.74071 0.23413 0.49851 0.0
C503 C 0.73422 0.21801 0.51526 0.0
C504 C 0.73893 0.26999 0.49693 0.0
C505 C 0.76514 0.34222 0.50157 0.0
H506 H 0.70443 0.40458 0.52775 0.0
C507 C 0.7981 0.48639 0.50846 0.0
C508 C 0.77096 0.51025 0.50653 0.0
C509 C 0.79118 0.45108 0.51013 0.0
C510 C 0.72145 0.38752 0.52023 0.0
H511 H 0.71888 0.22625 0.54326 0.0
H512 H 0.71648 0.28932 0.5407 0.0
H513 H 0.69303 0.34243 0.52832 0.0
H514 H 0.71514 0.51566 0.50523 0.0
H515 H 0.70314 0.45403 0.50775 0.0
H516 H 0.79317 0.38696 0.49315 0.0
C517 C 0.72226 0.27426 0.52864 0.0
C518 C 0.71508 0.35186 0.5207 0.0
C519 C 0.72348 0.23814 0.53013 0.0
C520 C 0.73669 0.498 0.50668 0.0
C521 C 0.72977 0.46264 0.50825 0.0
C522 C 0.77141 0.37769 0.50105 0.0
C523 C 0.73147 0.29065 0.5122 0.0
C524 C 0.73687 0.32876 0.51134 0.0
C525 C 0.75694 0.43868 0.5098 0.0
C526 C 0.74981 0.40085 0.51044 0.0
H527 H 0.74901 0.21907 0.48685 0.0
H528 H 0.74511 0.28161 0.48392 0.0
H529 H 0.78298 0.32527 0.49451 0.0
H530 H 0.82478 0.49495 0.50864 0.0
H531 H 0.81274 0.43347 0.5117 0.0
C532 C 0.75128 0.50642 0.23702 0.0
C533 C 0.72739 0.50113 0.25119 0.0
C534 C 0.78598 0.49686 0.2391 0.0
C535 C 0.85168 0.48007 0.27453 0.0
H536 H 0.90444 0.44363 0.23391 0.0
C537 C -0.00124 0.45607 0.28047 0.0
C538 C 0.0176 0.4719 0.26641 0.0
C539 C 0.96291 0.45128 0.27874 0.0
C540 C 0.89005 0.45372 0.24541 0.0
H541 H 0.72138 0.48117 0.27864 0.0
H542 H 0.78166 0.46431 0.28217 0.0
H543 H 0.8423 0.45279 0.23067 0.0
H544 H 0.01443 0.49273 0.23908 0.0
H545 H 0.95255 0.48403 0.23596 0.0
H546 H 0.89958 0.48189 0.2891 0.0
C547 C 0.77368 0.47621 0.26951 0.0
C548 C 0.85446 0.45914 0.24352 0.0
C549 C 0.73902 0.48575 0.26743 0.0
C550 C 0.00053 0.48048 0.25015 0.0
C551 C 0.96502 0.47533 0.24834 0.0
C552 C 0.88728 0.47463 0.27642 0.0
C553 C 0.79767 0.4818 0.25542 0.0
C554 C 0.83494 0.47311 0.25792 0.0
C555 C 0.94552 0.46177 0.26281 0.0
C556 C 0.90705 0.46214 0.26175 0.0
H557 H 0.74329 0.51826 0.22435 0.0
H558 H 0.80381 0.50204 0.22806 0.0
H559 H 0.83758 0.49118 0.28586 0.0
H560 H 0.01127 0.4495 0.29319 0.0
H561 H 0.94862 0.44046 0.29007 0.0
C562 C 0.76531 0.49938 0.9914 0.0
C563 C 0.767 0.47561 1.00584 0.0
C564 C 0.77093 0.53461 0.99456 0.0
C565 C 0.75817 0.59835 0.02965 0.0
H566 H 0.81759 0.658 1.00101 0.0
C567 C 0.75667 0.74354 0.04298 0.0
C568 C 0.75711 0.76482 0.02759 0.0
C569 C 0.76631 0.70886 0.04157 0.0
C570 C 0.80062 0.64181 1.00905 0.0
H571 H 0.7766 0.47004 0.03481 0.0
H572 H 0.78561 0.53154 0.0403 0.0
H573 H 0.81748 0.59569 0.99534 0.0
H574 H 0.76863 0.76755 0.99882 0.0
H575 H 0.78388 0.70667 0.996 0.0
H576 H 0.73946 0.64386 0.04261 0.0
C577 C 0.78028 0.52284 0.02656 0.0
C578 C 0.80073 0.60613 1.00583 0.0
C579 C 0.77522 0.48765 0.02338 0.0
C580 C 0.76876 0.75155 1.01092 0.0
C581 C 0.77754 0.71661 1.00937 0.0
C582 C 0.75753 0.63392 0.03264 0.0
C583 C 0.77773 0.54667 1.01224 0.0
C584 C 0.77935 0.58418 1.01606 0.0
C585 C 0.77528 0.69448 0.02456 0.0
C586 C 0.77857 0.65628 0.02232 0.0
H587 H 0.75913 0.49086 0.97774 0.0
H588 H 0.76857 0.55258 0.98333 0.0
H589 H 0.74107 0.58199 0.03755 0.0
H590 H 0.74756 0.75341 0.05594 0.0
H591 H 0.76528 0.69302 0.0537 0.0
C592 C 0.74922 0.00443 0.80094 0.0
C593 C 0.725 0.99542 0.78749 0.0
C594 C 0.78421 0.99603 0.7988 0.0
C595 C 0.84878 0.97616 0.7632 0.0
H596 H 0.90584 0.95117 0.8045 0.0
C597 C 0.99714 0.95971 0.75632 0.0
C598 C 0.01551 0.9792 0.76922 0.0
C599 C 0.9616 0.95362 0.75868 0.0
C600 C 0.89023 0.95804 0.79281 0.0
H601 H 0.71866 0.96977 0.76139 0.0
H602 H 0.77945 0.95491 0.7578 0.0
H603 H 0.84341 0.95689 0.80841 0.0
H604 H 0.01183 0.00555 0.79523 0.0
H605 H 0.95055 0.99475 0.79939 0.0
H606 H 0.89574 0.97823 0.74773 0.0
C607 C 0.7715 0.96886 0.76989 0.0
C608 C 0.85448 0.96148 0.79507 0.0
C609 C 0.73656 0.97726 0.77202 0.0
C610 C -0.00169 0.99058 0.78499 0.0
C611 C 0.96316 0.98416 0.78745 0.0
C612 C 0.88456 0.97267 0.76094 0.0
C613 C 0.79584 0.97841 0.78317 0.0
C614 C 0.83339 0.97139 0.7804 0.0
C615 C 0.94411 0.96644 0.77413 0.0
C616 C 0.9058 0.96442 0.77582 0.0
H617 H 0.74129 0.01852 0.81299 0.0
H618 H 0.8023 0.00424 0.80918 0.0
H619 H 0.83342 0.98414 0.75163 0.0
H620 H 0.00976 0.95079 0.744 0.0
H621 H 0.94763 0.93966 0.74823 0.0
C622 C 0.7555 0.98841 0.02825 0.0
C623 C 0.72161 0.97519 0.02825 0.0
C624 C 0.7615 0.0236 0.0256 0.0
C625 C 0.71778 0.10754 0.03011 0.0
H626 H 0.79807 0.14207 1.00411 0.0
C627 C 0.77049 0.24716 1.00343 0.0
C628 C 0.76069 0.26653 0.01875 0.0
C629 C 0.76996 0.21096 1.00412 0.0
C630 C 0.77546 0.13281 1.01133 0.0
H631 H 0.66751 0.9884 0.02471 0.0
H632 H 0.67802 0.04985 0.01982 0.0
H633 H 0.78636 0.07997 1.00473 0.0
H634 H 0.74589 0.26394 0.04715 0.0
H635 H 0.74645 0.20114 0.04863 0.0
H636 H 0.70627 0.16012 0.03636 0.0
C637 C 0.69992 0.03306 0.02228 0.0
C638 C 0.76888 0.09725 1.01182 0.0
C639 C 0.69389 0.99783 0.02504 0.0
C640 C 0.75327 0.24945 0.03512 0.0
C641 C 0.75323 0.21352 0.03589 0.0
C642 C 0.72427 0.14294 0.02958 0.0
C643 C 0.73378 0.04643 0.02278 0.0
C644 C 0.74006 0.08421 0.02133 0.0
C645 C 0.75992 0.19384 0.0202 0.0
C646 C 0.75339 0.15601 0.02038 0.0
H647 H 0.77747 0.97168 0.03068 0.0
H648 H 0.78783 0.03305 0.02631 0.0
H649 H 0.69559 0.09845 0.03775 0.0
H650 H 0.77595 0.25987 0.99061 0.0
H651 H 0.77526 0.19652 0.99179 0.0
C652 C 0.49118 0.99057 0.27931 0.0
C653 C 0.47374 0.00129 0.26356 0.0
C654 C 0.52706 0.99244 0.28031 0.0
C655 C 0.59964 0.97049 0.2725 0.0
H656 H 0.65872 0.04387 0.25453 0.0
C657 C 0.74609 0.95128 0.26745 0.0
C658 C 0.767 0.97846 0.27375 0.0
C659 C 0.71078 0.95634 0.26462 0.0
C660 C 0.64251 0.02324 0.25967 0.0
H661 H 0.4798 0.02435 0.23689 0.0
H662 H 0.54319 0.02708 0.23847 0.0
H663 H 0.59574 0.0509 0.25367 0.0
H664 H 0.76744 0.03263 0.2814 0.0
H665 H 0.70552 0.04123 0.27686 0.0
H666 H 0.64588 0.9431 0.27894 0.0
C667 C 0.52892 0.01755 0.25013 0.0
C668 C 0.60649 0.02717 0.25904 0.0
C669 C 0.49271 0.01603 0.24921 0.0
C670 C 0.75199 0.01112 0.27662 0.0
C671 C 0.71655 0.01613 0.27389 0.0
C672 C 0.63541 0.9666 0.27314 0.0
C673 C 0.54647 0.00459 0.26546 0.0
C674 C 0.5847 0.00092 0.26563 0.0
C675 C 0.69545 0.98864 0.26813 0.0
C676 C 0.65734 0.9929 0.2668 0.0
H677 H 0.47711 0.97959 0.29069 0.0
H678 H 0.53972 0.98322 0.29253 0.0
H679 H 0.58362 0.94947 0.27737 0.0
H680 H 0.75697 0.92597 0.26478 0.0
H681 H 0.6954 0.93481 0.2598 0.0
C682 C 0.75417 0.74818 0.50101 0.0
C683 C 0.74551 0.72263 0.51376 0.0
C684 C 0.74569 0.78272 0.50422 0.0
C685 C 0.74173 0.84266 0.54086 0.0
H686 H 0.70017 0.9052 0.506 0.0
C687 C 0.74318 0.99124 0.55187 0.0
C688 C 0.74776 0.01165 0.53625 0.0
C689 C 0.73676 0.9557 0.55028 0.0
C690 C 0.71222 0.88822 0.51583 0.0
H691 H 0.72061 0.71268 0.53965 0.0
H692 H 0.70665 0.77368 0.5456 0.0
H693 H 0.69833 0.84306 0.50053 0.0
H694 H 0.7501 0.01075 0.50676 0.0
H695 H 0.74062 0.94909 0.50398 0.0
H696 H 0.75789 0.88752 0.55556 0.0
C697 C 0.71929 0.76672 0.53294 0.0
C698 C 0.71076 0.8526 0.51275 0.0
C699 C 0.72698 0.73193 0.52948 0.0
C700 C 0.74624 0.99579 0.51906 0.0
C701 C 0.74044 0.96035 0.51748 0.0
C702 C 0.74383 0.87834 0.54378 0.0
C703 C 0.72924 0.79244 0.52049 0.0
C704 C 0.72602 0.82956 0.52507 0.0
C705 C 0.73534 0.93973 0.53303 0.0
C706 C 0.7298 0.90169 0.53107 0.0
H707 H 0.76884 0.74159 0.48891 0.0
H708 H 0.75391 0.8021 0.4945 0.0
H709 H 0.75407 0.82536 0.55045 0.0
H710 H 0.74397 0.00282 0.5653 0.0
H711 H 0.7326 0.94086 0.56257 0.0
C712 C 0.98674 0.03835 0.26094 0.0
C713 C 0.97772 0.01607 0.27525 0.0
C714 C 0.0214 0.04742 0.25811 0.0
C715 C 0.10793 0.05251 0.27749 0.0
H716 H 0.14035 0.00882 0.23313 0.0
C717 C 0.2512 0.01698 0.26754 0.0
C718 C 0.26495 0.01391 0.24992 0.0
C719 C 0.21617 0.02434 0.27012 0.0
C720 C 0.13198 0.02208 0.24534 0.0
H721 H 0.99692 0.98772 0.29852 0.0
H722 H 0.05728 0.005 0.29412 0.0
H723 H 0.07866 0.01266 0.23913 0.0
H724 H 0.25332 0.01762 0.22117 0.0
H725 H 0.19259 0.03245 0.22558 0.0
H726 H 0.16094 0.06249 0.28373 0.0
C727 C 0.03774 0.0151 0.285 0.0
C728 C 0.09649 0.0241 0.24878 0.0
C729 C 0.00331 0.00527 0.28753 0.0
C730 C 0.24327 0.01951 0.23491 0.0
C731 C 0.20835 0.02777 0.23749 0.0
C732 C 0.14345 0.05129 0.27386 0.0
C733 C 0.04724 0.03507 0.26986 0.0
C734 C 0.08423 0.03854 0.26507 0.0
C735 C 0.19407 0.02966 0.25514 0.0
C736 C 0.15611 0.03509 0.25797 0.0
H737 H 0.9675 0.04645 0.25111 0.0
H738 H 0.02824 0.06272 0.2463 0.0
H739 H 0.09897 0.06379 0.29015 0.0
H740 H 0.26729 0.0124 0.27937 0.0
H741 H 0.20635 0.02467 0.28392 0.0
C742 C 0.23268 0.00861 1.00472 0.0
C743 C 0.267 0.02019 1.00659 0.0
C744 C 0.2242 0.97403 1.00787 0.0
C745 C 0.25357 0.89458 0.03063 0.0
H746 H 0.20076 0.84737 0.99324 0.0
C747 C 0.24034 0.74875 1.00397 0.0
C748 C 0.23318 0.73068 0.02011 0.0
C749 C 0.23681 0.78457 1.00326 0.0
C750 C 0.2152 0.86031 1.00388 0.0
H751 H 0.31912 0.00464 1.01377 0.0
H752 H 0.30418 0.94416 0.01938 0.0
H753 H 0.21128 0.90946 0.99067 0.0
H754 H 0.21558 0.7355 0.04797 0.0
H755 H 0.20998 0.79879 0.04687 0.0
H756 H 0.25825 0.84516 0.04357 0.0
C757 C 0.2839 0.96196 1.01545 0.0
C758 C 0.22113 0.89583 1.00245 0.0
C759 C 0.2925 0.99651 1.0121 0.0
C760 C 0.22082 0.74889 0.03532 0.0
C761 C 0.21796 0.785 0.03473 0.0
C762 C 0.24725 0.8591 0.03217 0.0
C763 C 0.24972 0.9503 1.01318 0.0
C764 C 0.241 0.91321 1.0156 0.0
C765 C 0.22669 0.8032 0.01879 0.0
C766 C 0.22864 0.84149 0.01861 0.0
H767 H 0.21236 0.02615 1.00054 0.0
H768 H 0.19761 0.96584 1.00615 0.0
H769 H 0.26869 0.90737 0.04105 0.0
H770 H 0.25007 0.73525 0.99208 0.0
H771 H 0.24399 0.79789 0.99085 0.0
C772 C 0.49974 0.01795 0.75391 0.0
C773 C 0.51731 0.00359 0.76882 0.0
C774 C 0.46444 0.01238 0.75155 0.0
C775 C 0.38922 0.95958 0.76631 0.0
H776 H 0.33866 0.0406 0.75029 0.0
C777 C 0.23848 0.97242 0.76587 0.0
C778 C 0.22406 0.98821 0.75037 0.0
C779 C 0.27443 0.97076 0.7681 0.0
C780 C 0.35242 0.01764 0.7546 0.0
H781 H 0.51192 0.97092 0.79258 0.0
H782 H 0.44957 0.96174 0.78871 0.0
H783 H 0.40083 0.044 0.75442 0.0
H784 H 0.23628 0.01358 0.72481 0.0
H785 H 0.29867 0.01072 0.72875 0.0
H786 H 0.34011 0.93358 0.76678 0.0
C787 C 0.46335 0.97697 0.7787 0.0
C788 C 0.38814 0.01952 0.75693 0.0
C789 C 0.49902 0.98224 0.78094 0.0
C790 C 0.2464 0.00132 0.73694 0.0
C791 C 0.2822 -0.00014 0.73923 0.0
C792 C 0.35323 0.95778 0.7641 0.0
C793 C 0.4455 0.99273 0.7642 0.0
C794 C 0.40716 0.99041 0.76253 0.0
C795 C 0.29662 0.98515 0.75497 0.0
C796 C 0.33457 0.98671 0.75797 0.0
H797 H 0.51321 0.03408 0.74415 0.0
H798 H 0.45185 0.02404 0.73991 0.0
H799 H 0.40305 0.93665 0.77058 0.0
H800 H 0.22202 0.9621 0.7765 0.0
H801 H 0.28482 0.95941 0.78041 0.0
C802 C 0.27708 0.25139 0.51285 0.0
C803 C 0.26428 0.2647 0.52928 0.0
C804 C 0.28515 0.21628 0.51133 0.0
C805 C 0.26065 0.13379 0.53369 0.0
H806 H 0.32094 0.09438 0.49691 0.0
C807 C 0.2729 0.98701 0.52278 0.0
C808 C 0.26501 0.97621 0.50498 0.0
C809 C 0.27909 0.02184 0.52655 0.0
C810 C 0.30409 0.10513 0.50726 0.0
H811 H 0.25211 0.25303 0.55732 0.0
H812 H 0.2687 0.19231 0.55522 0.0
H813 H 0.32338 0.15639 0.50322 0.0
H814 H 0.25879 0.99324 0.47705 0.0
H815 H 0.27036 0.05424 0.48366 0.0
H816 H 0.24178 0.08239 0.53782 0.0
C817 C 0.27115 0.2083 0.5432 0.0
C818 C 0.30531 0.14067 0.51085 0.0
C819 C 0.26221 0.2432 0.54456 0.0
C820 C 0.26472 0.00081 0.4909 0.0
C821 C 0.27154 0.03562 0.49465 0.0
C822 C 0.25998 0.0983 0.53036 0.0
C823 C 0.28102 0.19393 0.52633 0.0
C824 C 0.28311 0.15563 0.5239 0.0
C825 C 0.27811 0.0465 0.51257 0.0
C826 C 0.28123 0.08373 0.51691 0.0
H827 H 0.27815 0.26751 0.5008 0.0
H828 H 0.29226 0.20641 0.49806 0.0
H829 H 0.24243 0.1441 0.54348 0.0
H830 H 0.27313 0.96873 0.53394 0.0
H831 H 0.28415 0.02961 0.54047 0.0
C832 C 0.14041 0.65377 0.27285 0.0
C833 C 0.15917 0.62612 0.28033 0.0
C834 C 0.15484 0.68667 0.27213 0.0
C835 C 0.22307 0.74035 0.29235 0.0
H836 H 0.2169 0.79136 0.24704 0.0
C837 C 0.31724 0.84731 0.27165 0.0
C838 C 0.30444 0.87562 0.2618 0.0
C839 C 0.29536 0.82024 0.27641 0.0
C840 C 0.21822 0.77777 0.25991 0.0
H841 H 0.20793 0.61101 0.29262 0.0
H842 H 0.23339 0.6685 0.29102 0.0
H843 H 0.18674 0.7365 0.25004 0.0
H844 H 0.25834 0.89894 0.25021 0.0
H845 H 0.22013 0.85142 0.25855 0.0
H846 H 0.2555 0.78124 0.30198 0.0
C847 C 0.20725 0.66478 0.28609 0.0
C848 C 0.20105 0.74636 0.2616 0.0
C849 C 0.1928 0.63186 0.28685 0.0
C850 C 0.26905 0.87716 0.25754 0.0
C851 C 0.24718 0.85006 0.26232 0.0
C852 C 0.24029 0.77179 0.29064 0.0
C853 C 0.1883 0.69246 0.27882 0.0
C854 C 0.20392 0.72707 0.27769 0.0
C855 C 0.26033 0.82108 0.27144 0.0
C856 C 0.23855 0.79037 0.27427 0.0
H857 H 0.11434 0.65018 0.2678 0.0
H858 H 0.13966 0.70766 0.26656 0.0
H859 H 0.22513 0.72618 0.30501 0.0
H860 H 0.34434 0.84555 0.27525 0.0
H861 H 0.30621 0.79799 0.28328 0.0
C862 C 0.07628 0.38157 0.50642 0.0
C863 C 0.10985 0.39266 0.50233 0.0
C864 C 0.04868 0.40452 0.505 0.0
C865 C 0.03907 0.49558 0.51356 0.0
H866 H 0.94171 0.47752 0.50554 0.0
C867 C 0.92933 0.59526 0.52143 0.0
C868 C 0.89683 0.58274 0.52669 0.0
C869 C 0.95736 0.57276 0.52015 0.0
C870 C 0.96881 0.48264 0.50812 0.0
H871 H 0.14106 0.43437 0.49167 0.0
H872 H 0.09258 0.47457 0.48876 0.0
H873 H 0.98467 0.43663 0.49422 0.0
H874 H 0.86822 0.53838 0.53633 0.0
H875 H 0.91758 0.499 0.53469 0.0
H876 H 0.02319 0.54139 0.52763 0.0
C877 C 0.08752 0.44837 0.49323 0.0
C878 C 0.99334 0.45949 0.50141 0.0
C879 C 0.11511 0.42529 0.49459 0.0
C880 C 0.89338 0.54855 0.53261 0.0
C881 C 0.92139 0.52598 0.53132 0.0
C882 C 0.01453 0.51874 0.52026 0.0
C883 C 0.05459 0.43887 0.49964 0.0
C884 C 0.0287 0.46559 0.5042 0.0
C885 C 0.95296 0.53747 0.52398 0.0
C886 C 0.97916 0.51228 0.51778 0.0
H887 H 0.07201 0.35663 0.51275 0.0
H888 H 0.02363 0.39645 0.51007 0.0
H889 H 0.06613 0.50054 0.51633 0.0
H890 H 0.9321 0.62144 0.51639 0.0
H891 H 0.98135 0.58231 0.51442 0.0
C892 C 0.29066 0.36748 0.77948 0.0
C893 C 0.32603 0.36897 0.77515 0.0
C894 C 0.27228 0.33695 0.77711 0.0
C895 C 0.27267 0.25427 0.75314 0.0
H896 H 0.21314 0.22533 0.7929 0.0
C897 C 0.20686 0.12169 0.75418 0.0
C898 C 0.17153 0.12161 0.7587 0.0
C899 C 0.22667 0.15125 0.75682 0.0
C900 C 0.22946 0.23327 0.78166 0.0
H901 H 0.36966 0.34013 0.76436 0.0
H902 H 0.33735 0.28651 0.7603 0.0
H903 H 0.24595 0.27892 0.79553 0.0
H904 H 0.12944 0.15196 0.77001 0.0
H905 H 0.16415 0.20385 0.77446 0.0
H906 H 0.256 0.20873 0.73921 0.0
C907 C 0.32397 0.30908 0.76547 0.0
C908 C 0.24816 0.26385 0.78314 0.0
C909 C 0.34243 0.33969 0.76784 0.0
C910 C 0.1566 0.1513 0.76639 0.0
C911 C 0.17646 0.18092 0.76901 0.0
C912 C 0.25393 0.22368 0.75164 0.0
C913 C 0.28891 0.30738 0.77036 0.0
C914 C 0.26973 0.27468 0.76885 0.0
C915 C 0.21154 0.18122 0.76403 0.0
C916 C 0.23207 0.21304 0.76586 0.0
H917 H 0.27719 0.38976 0.78493 0.0
H918 H 0.24507 0.33642 0.78064 0.0
H919 H 0.28888 0.26231 0.74187 0.0
H920 H 0.21919 0.09902 0.74843 0.0
H921 H 0.25383 0.15071 0.75317 0.0
C922 C 0.62765 0.46459 1.00865 0.0
C923 C 0.62808 0.42954 1.01361 0.0
C924 C 0.59839 0.4846 1.01188 0.0
C925 C 0.52491 0.50945 1.00721 0.0
H926 H 0.47162 0.50441 0.05191 0.0
C927 C 0.38002 0.54282 0.03484 0.0
C928 C 0.37682 0.57718 0.02894 0.0
C929 C 0.41149 0.52565 0.03319 0.0
C930 C 0.48616 0.50577 0.03931 0.0
H931 H 0.59898 0.38834 0.02661 0.0
H932 H 0.54772 0.42331 0.03205 0.0
H933 H 0.52673 0.47388 0.04972 0.0
H934 H 0.40365 0.62021 1.01622 0.0
H935 H 0.45865 0.59016 1.01346 0.0
H936 H 0.4842 0.54096 0.9967 0.0
C937 C 0.57007 0.43527 0.02577 0.0
C938 C 0.51762 0.48846 0.03809 0.0
C939 C 0.59931 0.41523 0.02253 0.0
C940 C 0.40535 0.59374 0.02091 0.0
C941 C 0.43679 0.57655 0.01927 0.0
C942 C 0.49346 0.52674 1.00842 0.0
C943 C 0.56918 0.46991 0.02017 0.0
C944 C 0.53709 0.48998 0.02198 0.0
C945 C 0.44019 0.54253 0.02559 0.0
C946 C 0.47373 0.5248 0.02443 0.0
H947 H 0.64964 0.47643 1.00196 0.0
H948 H 0.59841 0.51144 1.0077 0.0
H949 H 0.53923 0.51052 0.99453 0.0
H950 H 0.35839 0.52931 0.04095 0.0
H951 H 0.41339 0.49917 0.03787 0.0
C952 C 0.80708 0.38201 0.798 0.0
C953 C 0.84051 0.37328 0.79228 0.0
C954 C 0.78496 0.35646 0.80454 0.0
C955 C 0.74145 0.29498 0.79456 0.0
H956 H 0.76326 0.21076 0.82064 0.0
C957 C 0.71151 0.14085 0.78996 0.0
C958 C 0.67558 0.14108 0.78731 0.0
C959 C 0.72892 0.17131 0.79417 0.0
C960 C 0.75689 0.23412 0.81326 0.0
H961 H 0.87862 0.33265 0.79013 0.0
H962 H 0.83994 0.2876 0.80148 0.0
H963 H 0.79955 0.26187 0.8248 0.0
H964 H 0.62962 0.17323 0.78677 0.0
H965 H 0.66002 0.2265 0.79431 0.0
H966 H 0.7003 0.26696 0.78209 0.0
C967 C 0.8308 0.31405 0.80126 0.0
C968 C 0.77743 0.26337 0.8158 0.0
C969 C 0.85291 0.33967 0.79472 0.0
C970 C 0.65745 0.17245 0.78845 0.0
C971 C 0.67482 0.20289 0.79287 0.0
C972 C 0.72114 0.26573 0.79191 0.0
C973 C 0.79606 0.32193 0.8052 0.0
C974 C 0.77047 0.29372 0.80604 0.0
C975 C 0.71067 0.20253 0.79604 0.0
C976 C 0.72932 0.23468 0.80076 0.0
H977 H 0.79728 0.40801 0.79611 0.0
H978 H 0.7584 0.36318 0.80767 0.0
H979 H 0.73582 0.31785 0.7866 0.0
H980 H 0.72605 0.11696 0.78913 0.0
H981 H 0.75669 0.17035 0.79601 0.0
C982 C 0.81318 0.88257 0.23436 0.0
C983 C 0.8431 0.87148 0.24338 0.0
C984 C 0.79064 0.85832 0.22684 0.0
C985 C 0.77846 0.76593 0.21624 0.0
H986 H 0.69607 0.77387 0.24616 0.0
C987 C 0.71058 0.64725 0.24391 0.0
C988 C 0.6745 0.64699 0.24583 0.0
C989 C 0.72761 0.67733 0.23871 0.0
C990 C 0.71835 0.77146 0.2373 0.0
H991 H 0.87491 0.82771 0.25061 0.0
H992 H 0.83597 0.78512 0.23711 0.0
H993 H 0.73376 0.82357 0.2424 0.0
H994 H 0.62781 0.67791 0.244 0.0
H995 H 0.65764 0.7306 0.23473 0.0
H996 H 0.76379 0.7134 0.21171 0.0
C997 C 0.82983 0.81231 0.23572 0.0
C998 C 0.73988 0.80002 0.23508 0.0
C999 C 0.85198 0.83649 0.24352 0.0
C1000 C 0.65576 0.67758 0.2429 0.0
C1001 C 0.6728 0.70766 0.23746 0.0
C1002 C 0.7567 0.73748 0.21825 0.0
C1003 C 0.79821 0.82292 0.22812 0.0
C1004 C 0.77098 0.7969 0.22532 0.0
C1005 C 0.70887 0.70768 0.23507 0.0
C1006 C 0.72746 0.73947 0.22963 0.0
H1007 H 0.80599 0.90965 0.23436 0.0
H1008 H 0.76632 0.86697 0.22112 0.0
H1009 H 0.80224 0.76311 0.20855 0.0
H1010 H 0.72558 0.62398 0.24613 0.0
H1011 H 0.75554 0.67676 0.23758 0.0
C1012 C 0.56827 0.88662 1.01429 0.0
C1013 C 0.6012 0.89718 1.00861 0.0
C1014 C 0.54079 0.90989 1.01401 0.0
C1015 C 0.53169 0.00166 0.02151 0.0
H1016 H 0.43391 0.98444 1.01441 0.0
C1017 C 0.42524 0.10478 0.02334 0.0
C1018 C 0.39183 0.09428 0.02822 0.0
C1019 C 0.45257 0.08138 0.02418 0.0
C1020 C 0.46111 0.98932 1.01682 0.0
H1021 H 0.63117 0.93854 0.99667 0.0
H1022 H 0.58283 0.9793 0.99578 0.0
H1023 H 0.47597 0.94156 1.00433 0.0
H1024 H 0.36081 0.05304 0.0395 0.0
H1025 H 0.4089 0.01219 0.04157 0.0
H1026 H 0.51685 0.0494 0.03403 0.0
C1027 C 0.57823 0.95323 1.00056 0.0
C1028 C 0.48514 0.96498 1.01081 0.0
C1029 C 0.60567 0.92982 1.00076 0.0
C1030 C 0.38665 0.06169 0.03601 0.0
C1031 C 0.41399 0.03822 0.03686 0.0
C1032 C 0.50765 0.02598 0.02755 0.0
C1033 C 0.54619 0.94408 1.00825 0.0
C1034 C 0.52065 0.97098 1.01304 0.0
C1035 C 0.44659 0.04718 0.02979 0.0
C1036 C 0.47213 0.02006 0.02526 0.0
H1037 H 0.56469 0.86171 0.02077 0.0
H1038 H 0.51643 0.90215 0.02006 0.0
H1039 H 0.55891 0.00655 0.02386 0.0
H1040 H 0.42941 0.12964 1.01691 0.0
H1041 H 0.47735 0.08904 0.0186 0.0
C1042 C 0.13591 0.97105 0.51817 0.0
C1043 C 0.13036 0.93518 0.51836 0.0
C1044 C 0.11121 0.99333 0.52541 0.0
C1045 C 0.04252 0.02952 0.52493 0.0
H1046 H 0.98243 0.00864 0.56579 0.0
C1047 C 0.89175 0.04558 0.54311 0.0
C1048 C 0.88654 0.08014 0.53807 0.0
C1049 C 0.92519 0.03255 0.54475 0.0
C1050 C -0.00088 0.01481 0.55439 0.0
H1051 H 0.09584 0.8943 0.52724 0.0
H1052 H 0.05216 0.93328 0.53935 0.0
H1053 H 0.03691 0.97725 0.56222 0.0
H1054 H 0.91205 0.12863 0.53152 0.0
H1055 H 0.97033 0.10586 0.5345 0.0
H1056 H 0.00424 0.06571 0.51652 0.0
C1057 C 0.0758 0.94418 0.53389 0.0
C1058 C 0.03021 0.99698 0.55238 0.0
C1059 C 0.10058 0.92188 0.52674 0.0
C1060 C 0.91526 0.10166 0.53509 0.0
C1061 C 0.94863 0.08873 0.53688 0.0
C1062 C 0.01153 0.04728 0.52693 0.0
C1063 C 0.08052 0.98011 0.53287 0.0
C1064 C 0.05156 0.00339 0.53728 0.0
C1065 C 0.95389 0.05397 0.54151 0.0
C1066 C 0.98902 0.03926 0.54132 0.0
H1067 H 0.15908 0.98197 0.51217 0.0
H1068 H 0.11563 0.02095 0.52469 0.0
H1069 H 0.05821 0.03467 0.51301 0.0
H1070 H 0.87003 0.0285 0.54554 0.0
H1071 H 0.92854 0.00547 0.54803 0.0
C1072 C 0.11762 0.46986 0.3503 0.0
C1073 C 0.1246 0.45344 0.33354 0.0
C1074 C 0.13032 0.45651 0.36665 0.0
C1075 C 0.15975 0.38162 0.39153 0.0
H1076 H 0.21866 0.446 0.41752 0.0
C1077 C 0.22351 0.34286 0.46008 0.0
C1078 C 0.22763 0.36853 0.47346 0.0
C1079 C 0.21408 0.35155 0.44222 0.0
C1080 C 0.20188 0.42773 0.41072 0.0
H1081 H 0.14852 0.40839 0.32126 0.0
H1082 H 0.16959 0.38423 0.35019 0.0
H1083 H 0.1935 0.46261 0.38846 0.0
H1084 H 0.2251 0.4236 0.47849 0.0
H1085 H 0.20748 0.43879 0.44776 0.0
H1086 H 0.16633 0.34735 0.41409 0.0
C1087 C 0.15474 0.40796 0.35039 0.0
C1088 C 0.1877 0.43725 0.3939 0.0
C1089 C 0.14248 0.42171 0.33384 0.0
C1090 C 0.22288 0.40322 0.46843 0.0
C1091 C 0.21271 0.41189 0.45067 0.0
C1092 C 0.17334 0.3723 0.40857 0.0
C1093 C 0.14978 0.42594 0.36687 0.0
C1094 C 0.16628 0.41445 0.38418 0.0
C1095 C 0.20764 0.38617 0.43727 0.0
C1096 C 0.19447 0.39532 0.41857 0.0
H1097 H 0.10375 0.49417 0.35076 0.0
H1098 H 0.12564 0.47064 0.37916 0.0
H1099 H 0.14314 0.36362 0.38438 0.0
H1100 H 0.22692 0.31585 0.46352 0.0
H1101 H 0.21144 0.3309 0.43237 0.0
C1102 C 0.38291 0.45016 0.71112 0.0
C1103 C 0.3654 0.47383 0.72239 0.0
C1104 C 0.37131 0.44321 0.69346 0.0
C1105 C 0.29127 0.44102 0.66698 0.0
H1106 H 0.35188 0.42708 0.62551 0.0
C1107 C 0.23609 0.41072 0.59583 0.0
C1108 C 0.25457 0.38949 0.58362 0.0
C1109 C 0.25052 0.42133 0.61234 0.0
C1110 C 0.33457 0.43029 0.63698 0.0
H1111 H 0.32232 0.50938 0.7238 0.0
H1112 H 0.30157 0.49699 0.6928 0.0
H1113 H 0.3757 0.44785 0.65432 0.0
H1114 H 0.30301 0.36236 0.57968 0.0
H1115 H 0.32801 0.38001 0.60893 0.0
H1116 H 0.25034 0.42243 0.65009 0.0
C1117 C 0.32457 0.48399 0.69767 0.0
C1118 C 0.34825 0.44252 0.6535 0.0
C1119 C 0.33663 0.49144 0.71533 0.0
C1120 C 0.28794 0.37864 0.58869 0.0
C1121 C 0.30239 0.3891 0.60543 0.0
C1122 C 0.27767 0.42841 0.65059 0.0
C1123 C 0.34141 0.45924 0.68665 0.0
C1124 C 0.32674 0.44816 0.66871 0.0
C1125 C 0.2839 0.41081 0.61749 0.0
C1126 C 0.29902 0.42299 0.63524 0.0
H1127 H 0.40501 0.43598 0.71625 0.0
H1128 H 0.38478 0.42386 0.68548 0.0
H1129 H 0.27405 0.44427 0.67851 0.0
H1130 H 0.21042 0.41998 0.59252 0.0
H1131 H 0.23555 0.43859 0.62087 0.0
C1132 C 0.34159 0.56288 0.83239 0.0
C1133 C 0.36703 0.53686 0.83172 0.0
C1134 C 0.32886 0.57485 0.84922 0.0
C1135 C 0.31956 0.54346 0.89663 0.0
H1136 H 0.29519 0.63786 0.90881 0.0
C1137 C 0.29957 0.58705 0.97039 0.0
C1138 C 0.27369 0.61114 0.97482 0.0
C1139 C 0.30641 0.57824 0.95232 0.0
C1140 C 0.30132 0.61128 0.90551 0.0
H1141 H 0.40084 0.50509 0.8482 0.0
H1142 H 0.37957 0.52648 0.87729 0.0
H1143 H 0.31845 0.62443 0.8785 0.0
H1144 H 0.23418 0.64457 0.96367 0.0
H1145 H 0.24628 0.62917 0.93166 0.0
H1146 H 0.30295 0.53019 0.92352 0.0
C1147 C 0.36859 0.53699 0.86492 0.0
C1148 C 0.31481 0.6036 0.88815 0.0
C1149 C 0.38115 0.52501 0.8482 0.0
C1150 C 0.25399 0.62561 0.96067 0.0
C1151 C 0.26122 0.61708 0.94237 0.0
C1152 C 0.30615 0.55109 0.91386 0.0
C1153 C 0.34132 0.56105 0.86571 0.0
C1154 C 0.3249 0.56966 0.88365 0.0
C1155 C 0.28781 0.59348 0.93799 0.0
C1156 C 0.29757 0.58519 0.91873 0.0
H1157 H 0.32982 0.57226 0.81997 0.0
H1158 H 0.30792 0.59343 0.84928 0.0
H1159 H 0.32596 0.51685 0.89352 0.0
H1160 H 0.3153 0.57555 0.98098 0.0
H1161 H 0.32732 0.56035 0.94956 0.0
C1162 C 0.21615 0.63264 0.09895 0.0
C1163 C 0.20552 0.61779 0.0824 0.0
C1164 C 0.20485 0.61926 0.1156 0.0
C1165 C 0.14225 0.56096 0.13872 0.0
H1166 H 0.2172 0.55236 0.17347 0.0
C1167 C 0.12455 0.49784 0.21081 0.0
C1168 C 0.13856 0.51768 0.22506 0.0
C1169 C 0.13257 0.50576 0.19254 0.0
C1170 C 0.19587 0.55465 0.164 0.0
H1171 H 0.17283 0.57837 0.07045 0.0
H1172 H 0.15272 0.55506 0.09967 0.0
H1173 H 0.2284 0.57699 0.14362 0.0
H1174 H 0.17282 0.56027 0.23141 0.0
H1175 H 0.18719 0.57351 0.20002 0.0
H1176 H 0.10965 0.53894 0.15943 0.0
C1177 C 0.16983 0.57722 0.0997 0.0
C1178 C 0.20227 0.56896 0.14685 0.0
C1179 C 0.18114 0.59077 0.08293 0.0
C1180 C 0.16183 0.54434 0.22073 0.0
C1181 C 0.17011 0.5519 0.20268 0.0
C1182 C 0.13578 0.54664 0.15601 0.0
C1183 C 0.18271 0.59042 0.11625 0.0
C1184 C 0.17546 0.57311 0.1341 0.0
C1185 C 0.15516 0.53325 0.18826 0.0
C1186 C 0.16241 0.54401 0.16903 0.0
H1187 H 0.23487 0.65349 0.09903 0.0
H1188 H 0.21457 0.63075 0.12803 0.0
H1189 H 0.12101 0.56363 0.12923 0.0
H1190 H 0.10611 0.47751 0.21374 0.0
H1191 H 0.12074 0.49073 0.18178 0.0
C1192 C 0.77178 0.57645 0.56986 0.0
C1193 C 0.78103 0.60996 0.56425 0.0
C1194 C 0.77964 0.56485 0.5875 0.0
C1195 C 0.83943 0.58305 0.62616 0.0
H1196 H 0.77827 0.52213 0.65289 0.0
C1197 C 0.86568 0.54049 0.7013 0.0
C1198 C 0.85685 0.50635 0.70598 0.0
C1199 C 0.85692 0.55398 0.68412 0.0
C1200 C 0.7959 0.53883 0.64555 0.0
H1201 H 0.80466 0.65791 0.57321 0.0
H1202 H 0.81761 0.63802 0.60385 0.0
H1203 H 0.76073 0.54386 0.62318 0.0
H1204 H 0.83319 0.45928 0.69576 0.0
H1205 H 0.8186 0.48242 0.66608 0.0
H1206 H 0.87466 0.57789 0.64854 0.0
C1207 C 0.80499 0.62035 0.59455 0.0
C1208 C 0.78577 0.55133 0.62846 0.0
C1209 C 0.7972 0.63189 0.57696 0.0
C1210 C 0.84012 0.48582 0.69281 0.0
C1211 C 0.83145 0.49921 0.67575 0.0
C1212 C 0.84956 0.57054 0.64327 0.0
C1213 C 0.79695 0.58645 0.60001 0.0
C1214 C 0.80742 0.57353 0.61845 0.0
C1215 C 0.83912 0.53365 0.67121 0.0
C1216 C 0.82805 0.54804 0.65318 0.0
H1217 H 0.75965 0.5587 0.56041 0.0
H1218 H 0.77324 0.53848 0.59111 0.0
H1219 H 0.85712 0.59964 0.61879 0.0
H1220 H 0.87844 0.55711 0.71108 0.0
H1221 H 0.86318 0.58066 0.68117 0.0
C1222 C 0.6429 0.58676 0.31654 0.0
C1223 C 0.63759 0.55293 0.30998 0.0
C1224 C 0.65304 0.59284 0.33446 0.0
C1225 C 0.65773 0.55615 0.38083 0.0
H1226 H 0.72849 0.62629 0.38681 0.0
C1227 C 0.70313 0.60806 0.45214 0.0
C1228 C 0.73922 0.6105 0.45418 0.0
C1229 C 0.68854 0.60152 0.43489 0.0
C1230 C 0.70876 0.60659 0.38545 0.0
H1231 H 0.63834 0.49887 0.31763 0.0
H1232 H 0.65653 0.5096 0.34929 0.0
H1233 H 0.70855 0.61134 0.35648 0.0
H1234 H 0.78805 0.60919 0.43964 0.0
H1235 H 0.76295 0.59842 0.40995 0.0
H1236 H 0.65866 0.55119 0.41001 0.0
C1237 C 0.65249 0.5314 0.34031 0.0
C1238 C 0.6971 0.59814 0.36801 0.0
C1239 C 0.64225 0.52522 0.32215 0.0
C1240 C 0.76015 0.60756 0.43858 0.0
C1241 C 0.7457 0.60144 0.42148 0.0
C1242 C 0.66939 0.56476 0.39842 0.0
C1243 C 0.65847 0.56537 0.34659 0.0
C1244 C 0.67139 0.57287 0.36539 0.0
C1245 C 0.70977 0.59785 0.41936 0.0
C1246 C 0.69524 0.58999 0.40093 0.0
H1247 H 0.6394 0.60899 0.30778 0.0
H1248 H 0.65665 0.61934 0.33883 0.0
H1249 H 0.63773 0.53676 0.37934 0.0
H1250 H 0.68635 0.60979 0.46392 0.0
H1251 H 0.66073 0.59918 0.43371 0.0
C1252 C 0.70758 0.4163 0.06813 0.0
C1253 C 0.73011 0.38891 0.064 0.0
C1254 C 0.70031 0.42533 0.08613 0.0
C1255 C 0.69761 0.38959 0.13283 0.0
H1256 H 0.67791 0.48515 0.14487 0.0
C1257 C 0.65459 0.44306 0.20506 0.0
C1258 C 0.62902 0.469 0.2046 0.0
C1259 C 0.66829 0.42943 0.18876 0.0
C1260 C 0.68306 0.45827 0.14174 0.0
H1261 H 0.76332 0.34978 0.07564 0.0
H1262 H 0.7509 0.36586 0.10752 0.0
H1263 H 0.70338 0.47109 0.11553 0.0
H1264 H 0.59589 0.49865 0.1867 0.0
H1265 H 0.6192 0.47475 0.15859 0.0
H1266 H 0.6772 0.37715 0.15935 0.0
C1267 C 0.73877 0.38032 0.09665 0.0
C1268 C 0.69775 0.45016 0.12485 0.0
C1269 C 0.74634 0.37141 0.07842 0.0
C1270 C 0.6156 0.47881 0.18758 0.0
C1271 C 0.62926 0.46538 0.17143 0.0
C1272 C 0.68311 0.39782 0.14991 0.0
C1273 C 0.71519 0.40714 0.10073 0.0
C1274 C 0.70437 0.41565 0.11987 0.0
C1275 C 0.65678 0.44162 0.17174 0.0
C1276 C 0.67476 0.43223 0.15435 0.0
H1277 H 0.69436 0.43003 0.05732 0.0
H1278 H 0.68164 0.44568 0.08854 0.0
H1279 H 0.70215 0.36271 0.1295 0.0
H1280 H 0.6659 0.43526 0.2179 0.0
H1281 H 0.68938 0.41108 0.18949 0.0
C1282 C 0.84308 0.47951 0.82142 0.0
C1283 C 0.87788 0.48317 0.81625 0.0
C1284 C 0.8343 0.46866 0.83906 0.0
C1285 C 0.87294 0.42511 0.88015 0.0
H1286 H 0.78397 0.44803 0.90127 0.0
C1287 C 0.82354 0.39242 0.95473 0.0
C1288 C 0.79077 0.37647 0.95503 0.0
C1289 C 0.83766 0.40462 0.93824 0.0
C1290 C 0.80895 0.44142 0.89554 0.0
H1291 H 0.9307 0.47973 0.82581 0.0
H1292 H 0.91554 0.46309 0.85681 0.0
H1293 H 0.80114 0.4742 0.87253 0.0
H1294 H 0.74861 0.35867 0.93788 0.0
H1295 H 0.77287 0.38038 0.90957 0.0
H1296 H 0.88073 0.39304 0.90375 0.0
C1297 C 0.89485 0.46716 0.84715 0.0
C1298 C 0.81877 0.4562 0.87892 0.0
C1299 C 0.90362 0.47727 0.82939 0.0
C1300 C 0.77372 0.37107 0.93831 0.0
C1301 C 0.78749 0.38367 0.92203 0.0
C1302 C 0.86334 0.41087 0.89702 0.0
C1303 C 0.86005 0.46179 0.85219 0.0
C1304 C 0.85068 0.44786 0.87071 0.0
C1305 C 0.81908 0.40147 0.92185 0.0
C1306 C 0.83096 0.4184 0.90472 0.0
H1307 H 0.82263 0.48302 0.81152 0.0
H1308 H 0.80725 0.4643 0.84205 0.0
H1309 H 0.89746 0.41736 0.87433 0.0
H1310 H 0.83734 0.39724 0.9673 0.0
H1311 H 0.86218 0.41815 0.93846 0.0
C1312 C 0.63766 0.93696 0.83485 0.0
C1313 C 0.62252 0.9701 0.835 0.0
C1314 C 0.64855 0.92135 0.85121 0.0
C1315 C 0.6843 0.94539 0.89479 0.0
H1316 H 0.65351 0.85807 0.91475 0.0
C1317 C 0.71658 0.90687 0.96903 0.0
C1318 C 0.7178 0.87182 0.97395 0.0
C1319 C 0.70702 0.91678 0.95136 0.0
C1320 C 0.66313 0.88219 0.90929 0.0
H1321 H 0.60489 0.01144 0.85279 0.0
H1322 H 0.62444 0.98463 0.88087 0.0
H1323 H 0.63185 0.87721 0.88518 0.0
H1324 H 0.71135 0.81962 0.96385 0.0
H1325 H 0.69679 0.83661 0.93286 0.0
H1326 H 0.71631 0.9504 0.91831 0.0
C1327 C 0.62803 0.97084 0.86816 0.0
C1328 C 0.65043 0.89318 0.89232 0.0
C1329 C 0.61668 0.98609 0.852 0.0
C1330 C 0.71065 0.84688 0.96053 0.0
C1331 C 0.7018 0.85674 0.94275 0.0
C1332 C 0.69756 0.93415 0.91151 0.0
C1333 C 0.64491 0.93879 0.86794 0.0
C1334 C 0.66041 0.9252 0.88507 0.0
C1335 C 0.69902 0.8919 0.93792 0.0
C1336 C 0.68674 0.90265 0.91929 0.0
H1337 H 0.64278 0.92393 0.82208 0.0
H1338 H 0.66142 0.89651 0.85068 0.0
H1339 H 0.69273 0.97007 0.88942 0.0
H1340 H 0.72126 0.92679 0.97911 0.0
H1341 H 0.70465 0.94411 0.94855 0.0
C1342 C 0.77854 0.86689 0.09263 0.0
C1343 C 0.75911 0.89036 0.08224 0.0
C1344 C 0.79317 0.87728 0.10936 0.0
C1345 C 0.78398 0.94743 0.14452 0.0
H1346 H 0.87 0.91089 0.16331 0.0
C1347 C 0.83093 0.98089 0.21736 0.0
C1348 C 0.86665 0.98269 0.22079 0.0
C1349 C 0.8185 0.96949 0.20045 0.0
C1350 C 0.84612 0.92179 0.15821 0.0
H1351 H 0.7419 0.94356 0.08056 0.0
H1352 H 0.76829 0.96185 0.10881 0.0
H1353 H 0.84864 0.89116 0.13386 0.0
H1354 H 0.91729 0.97474 0.20886 0.0
H1355 H 0.89579 0.95667 0.17913 0.0
H1356 H 0.78198 0.97909 0.16832 0.0
C1357 C 0.77109 0.93507 0.10481 0.0
C1358 C 0.83355 0.90997 0.14136 0.0
C1359 C 0.75613 0.92462 0.08843 0.0
C1360 C 0.88961 0.97385 0.20666 0.0
C1361 C 0.87719 0.96295 0.18965 0.0
C1362 C 0.79669 0.95949 0.16119 0.0
C1363 C 0.78903 0.91146 0.11587 0.0
C1364 C 0.80236 0.92281 0.13416 0.0
C1365 C 0.84141 0.96001 0.18633 0.0
C1366 C 0.82801 0.94697 0.16836 0.0
H1367 H 0.78122 0.84032 0.08821 0.0
H1368 H 0.80674 0.85824 0.11744 0.0
H1369 H 0.75947 0.95752 0.1398 0.0
H1370 H 0.81244 0.98669 0.22803 0.0
H1371 H 0.79081 0.96705 0.19873 0.0
C1372 C 0.76132 0.09705 0.46208 0.0
C1373 C 0.78701 0.09564 0.47562 0.0
C1374 C 0.76845 0.08555 0.44423 0.0
C1375 C 0.829 0.02907 0.41832 0.0
H1376 H 0.80247 0.08305 0.37616 0.0
C1377 C 0.84682 0.97772 0.34505 0.0
C1378 C 0.8581 0.00064 0.33139 0.0
C1379 C 0.83803 0.98968 0.36242 0.0
C1380 C 0.81028 0.0678 0.3878 0.0
H1381 H 0.84002 0.08013 0.48097 0.0
H1382 H 0.85209 0.06027 0.45036 0.0
H1383 H 0.78552 0.10234 0.40672 0.0
H1384 H 0.86926 0.0544 0.32559 0.0
H1385 H 0.85405 0.07538 0.35613 0.0
H1386 H 0.85411 0.99481 0.39964 0.0
C1387 C 0.82648 0.07014 0.45334 0.0
C1388 C 0.80015 0.07862 0.40531 0.0
C1389 C 0.81955 0.08183 0.47096 0.0
C1390 C 0.86092 0.03596 0.33577 0.0
C1391 C 0.85181 0.04803 0.35322 0.0
C1392 C 0.83889 0.01818 0.4009 0.0
C1393 C 0.8012 0.07191 0.43966 0.0
C1394 C 0.80964 0.05953 0.42083 0.0
C1395 C 0.84004 0.02502 0.36676 0.0
C1396 C 0.82982 0.03739 0.38536 0.0
H1397 H 0.73604 0.10759 0.46517 0.0
H1398 H 0.74828 0.08708 0.43405 0.0
H1399 H 0.83655 0.0135 0.4299 0.0
H1400 H 0.84423 0.95035 0.34224 0.0
H1401 H 0.82877 0.97118 0.37235 0.0
C1402 C 0.68131 0.08474 0.58143 0.0
C1403 C 0.70327 0.11365 0.58015 0.0
C1404 C 0.66727 0.07484 0.59832 0.0
C1405 C 0.65204 0.10586 0.6458 0.0
H1406 H 0.6632 0.00973 0.65955 0.0
C1407 C 0.6565 0.06738 0.72062 0.0
C1408 C 0.63735 0.03866 0.72666 0.0
C1409 C 0.6614 0.07369 0.70211 0.0
C1410 C 0.65944 0.03655 0.65586 0.0
H1411 H 0.72627 0.15568 0.59536 0.0
H1412 H 0.70131 0.13915 0.62451 0.0
H1413 H 0.67451 0.02765 0.62808 0.0
H1414 H 0.60983 0.99293 0.71776 0.0
H1415 H 0.61866 0.00393 0.68501 0.0
H1416 H 0.63777 0.11507 0.67352 0.0
C1417 C 0.6948 0.12396 0.6126 0.0
C1418 C 0.66584 0.04685 0.63779 0.0
C1419 C 0.70911 0.13354 0.59585 0.0
C1420 C 0.6248 0.01521 0.71358 0.0
C1421 C 0.62975 0.02161 0.69484 0.0
C1422 C 0.6457 0.09562 0.66376 0.0
C1423 C 0.6745 0.09392 0.61422 0.0
C1424 C 0.66308 0.08185 0.63265 0.0
C1425 C 0.64725 0.05158 0.6889 0.0
C1426 C 0.65024 0.06103 0.66919 0.0
H1427 H 0.67685 0.06848 0.56965 0.0
H1428 H 0.65152 0.05174 0.59902 0.0
H1429 H 0.64889 0.13286 0.6423 0.0
H1430 H 0.66703 0.08574 0.73029 0.0
H1431 H 0.67591 0.09642 0.69813 0.0
C1432 C 0.27405 0.09145 0.06424 0.0
C1433 C 0.27463 0.12635 0.059 0.0
C1434 C 0.28307 0.08173 0.08201 0.0
C1435 C 0.32947 0.11541 0.12337 0.0
H1436 H 0.29475 0.03058 0.1446 0.0
C1437 C 0.35485 0.06473 0.1982 0.0
C1438 C 0.36601 0.03009 0.19893 0.0
C1439 C 0.3446 0.07958 0.18156 0.0
C1440 C 0.30468 0.05437 0.13883 0.0
H1441 H 0.28357 0.17853 0.06857 0.0
H1442 H 0.29727 0.16194 0.09973 0.0
H1443 H 0.27186 0.05032 0.11556 0.0
H1444 H 0.37724 0.98491 0.18233 0.0
H1445 H 0.35887 0.01054 0.15375 0.0
H1446 H 0.36161 0.11953 0.14719 0.0
C1447 C 0.29123 0.14176 0.09004 0.0
C1448 C 0.29176 0.06563 0.12205 0.0
C1449 C 0.28288 0.1514 0.07218 0.0
C1450 C 0.36853 0.01151 0.18246 0.0
C1451 C 0.35782 0.0261 0.16602 0.0
C1452 C 0.34189 0.10442 0.14038 0.0
C1453 C 0.29235 0.10668 0.09517 0.0
C1454 C 0.30436 0.09603 0.11382 0.0
C1455 C 0.34488 0.05993 0.16542 0.0
C1456 C 0.33007 0.07345 0.14811 0.0
H1457 H 0.26848 0.07143 0.05435 0.0
H1458 H 0.28412 0.05442 0.08511 0.0
H1459 H 0.34044 0.13861 0.11753 0.0
H1460 H 0.35242 0.0798 0.21057 0.0
H1461 H 0.33484 0.10582 0.18146 0.0
C1462 C 0.26315 0.09104 0.93558 0.0
C1463 C 0.24365 0.10844 0.94896 0.0
C1464 C 0.24837 0.08088 0.91911 0.0
C1465 C 0.16359 0.06356 0.89686 0.0
H1466 H 0.22077 0.05972 0.85347 0.0
C1467 C 0.11168 0.03941 0.8236 0.0
C1468 C 0.13141 0.01854 0.81184 0.0
C1469 C 0.12347 0.04736 0.84111 0.0
C1470 C 0.20458 0.06015 0.86551 0.0
H1471 H 0.19313 0.12977 0.955 0.0
H1472 H 0.16728 0.11288 0.92577 0.0
H1473 H 0.24435 0.08357 0.88146 0.0
H1474 H 0.1786 0.98895 0.8093 0.0
H1475 H 0.19963 0.0031 0.84002 0.0
H1476 H 0.12342 0.0411 0.88048 0.0
C1477 C 0.19408 0.10641 0.92834 0.0
C1478 C 0.21808 0.07391 0.88165 0.0
C1479 C 0.20897 0.1165 0.94503 0.0
C1480 C 0.16262 0.00457 0.81821 0.0
C1481 C 0.17479 0.01306 0.83569 0.0
C1482 C 0.14992 0.05019 0.8806 0.0
C1483 C 0.21354 0.08807 0.9152 0.0
C1484 C 0.19798 0.07552 0.89767 0.0
C1485 C 0.1557 0.03524 0.84718 0.0
C1486 C 0.17036 0.04805 0.86476 0.0
H1487 H 0.28996 0.0843 0.93797 0.0
H1488 H 0.26424 0.06633 0.90968 0.0
H1489 H 0.14736 0.06384 0.90888 0.0
H1490 H 0.08771 0.05087 0.81891 0.0
H1491 H 0.10823 0.06467 0.8495 0.0
C1492 C 0.11443 0.97048 0.6858 0.0
C1493 C 0.1243 0.95595 0.70257 0.0
C1494 C 0.12859 0.95855 0.66944 0.0
C1495 C 0.17559 0.88842 0.64612 0.0
H1496 H 0.20993 0.96351 0.6162 0.0
C1497 C 0.24191 0.86367 0.5757 0.0
C1498 C 0.23033 0.88555 0.56173 0.0
C1499 C 0.23415 0.87131 0.59403 0.0
C1500 C 0.20033 0.94214 0.62426 0.0
H1501 H 0.15503 0.91545 0.71498 0.0
H1502 H 0.17922 0.89402 0.68618 0.0
H1503 H 0.18287 0.97611 0.64536 0.0
H1504 H 0.20266 0.93283 0.55589 0.0
H1505 H 0.18961 0.94636 0.58739 0.0
H1506 H 0.19208 0.85448 0.62463 0.0
C1507 C 0.16068 0.91498 0.68585 0.0
C1508 C 0.18476 0.94941 0.64103 0.0
C1509 C 0.1466 0.92714 0.70235 0.0
C1510 C 0.2125 0.91587 0.56643 0.0
C1511 C 0.20497 0.92358 0.58458 0.0
C1512 C 0.19091 0.8811 0.62915 0.0
C1513 C 0.15289 0.93154 0.66928 0.0
C1514 C 0.1715 0.92278 0.65202 0.0
C1515 C 0.21485 0.90105 0.59868 0.0
C1516 C 0.20282 0.90797 0.61778 0.0
H1517 H 0.09716 0.99252 0.68538 0.0
H1518 H 0.1214 0.97136 0.65689 0.0
H1519 H 0.16574 0.8673 0.65429 0.0
H1520 H 0.25498 0.83971 0.57241 0.0
H1521 H 0.24245 0.85348 0.60451 0.0
C1522 C 0.37387 0.99069 0.323 0.0
C1523 C 0.35241 0.97797 0.3091 0.0
C1524 C 0.36619 0.98364 0.34139 0.0
C1525 C 0.29547 0.95147 0.37191 0.0
H1526 H 0.36993 0.91723 0.40228 0.0
C1527 C 0.26526 0.87095 0.4351 0.0
C1528 C 0.28161 0.8801 0.45151 0.0
C1529 C 0.27701 0.8839 0.41844 0.0
C1530 C 0.34891 0.92703 0.39404 0.0
H1531 H 0.30575 0.94905 0.30346 0.0
H1532 H 0.29201 0.93742 0.33513 0.0
H1533 H 0.38305 0.94194 0.37231 0.0
H1534 H 0.32475 0.90841 0.46302 0.0
H1535 H 0.34569 0.93071 0.43373 0.0
H1536 H 0.26126 0.93596 0.3933 0.0
C1537 C 0.31459 0.95298 0.33214 0.0
C1538 C 0.35642 0.94138 0.37688 0.0
C1539 C 0.32242 0.95968 0.31393 0.0
C1540 C 0.31173 0.90052 0.45065 0.0
C1541 C 0.32359 0.91352 0.43386 0.0
C1542 C 0.288 0.93703 0.38891 0.0
C1543 C 0.33674 0.96405 0.34617 0.0
C1544 C 0.32967 0.9531 0.3654 0.0
C1545 C 0.3055 0.90644 0.41764 0.0
C1546 C 0.31447 0.92387 0.40006 0.0
H1547 H 0.39756 0.0042 0.31962 0.0
H1548 H 0.38371 0.99279 0.35182 0.0
H1549 H 0.27423 0.96092 0.3637 0.0
H1550 H 0.24213 0.85513 0.43521 0.0
H1551 H 0.26298 0.87713 0.40619 0.0
C1552 C 0.01141 0.60107 0.30386 0.0
C1553 C 0.0448 0.59648 0.31106 0.0
C1554 C 0.99362 0.63212 0.30649 0.0
C1555 C 0.99247 0.71655 0.33082 0.0
H1556 H 0.96488 0.75147 0.28353 0.0
C1557 C 0.96437 0.85265 0.29088 0.0
C1558 C 0.93592 0.8669 0.30019 0.0
C1559 C 0.97699 0.82005 0.29546 0.0
C1560 C 0.97239 0.74209 0.29685 0.0
H1561 H 0.08393 0.61969 0.32836 0.0
H1562 H 0.05281 0.67383 0.33291 0.0
H1563 H 0.98447 0.69205 0.28638 0.0
H1564 H 0.90031 0.85909 0.32266 0.0
H1565 H 0.92296 0.80187 0.33085 0.0
H1566 H 0.98064 0.76735 0.34108 0.0
C1567 C 0.04048 0.65343 0.32517 0.0
C1568 C 0.98324 0.70788 0.29854 0.0
C1569 C 0.05835 0.62232 0.32253 0.0
C1570 C 0.92224 0.84888 0.31521 0.0
C1571 C 0.93512 0.81611 0.31988 0.0
C1572 C 0.98107 0.75088 0.32915 0.0
C1573 C 0.0087 0.65929 0.31643 0.0
C1574 C 0.99385 0.69475 0.31547 0.0
C1575 C 0.96171 0.80089 0.30955 0.0
C1576 C 0.9716 0.76411 0.31205 0.0
H1577 H -5e-05 0.58159 0.29515 0.0
H1578 H 0.96882 0.63559 0.29989 0.0
H1579 H 0.00046 0.70714 0.34404 0.0
H1580 H 0.97588 0.86594 0.2794 0.0
H1581 H 0.99794 0.80919 0.28748 0.0
C1582 C 0.10682 0.27389 0.5519 0.0
C1583 C 0.1185 0.30546 0.55914 0.0
C1584 C 0.07435 0.2609 0.55652 0.0
C1585 C 0.00085 0.2598 0.58692 0.0
H1586 H 0.94743 0.25324 0.54235 0.0
C1587 C 0.87453 0.17968 0.57654 0.0
C1588 C 0.84978 0.19283 0.5643 0.0
C1589 C 0.90504 0.19804 0.58011 0.0
C1590 C 0.96173 0.25534 0.55498 0.0
H1591 H 0.10642 0.34648 0.57825 0.0
H1592 H 0.04939 0.32312 0.58661 0.0
H1593 H 0.0069 0.27368 0.5412 0.0
H1594 H 0.83603 0.2374 0.54793 0.0
H1595 H 0.88901 0.26931 0.55425 0.0
H1596 H 0.95567 0.24013 0.60058 0.0
C1597 C 0.06559 0.30878 0.57723 0.0
C1598 C 0.99591 0.26675 0.55428 0.0
C1599 C 0.09826 0.32203 0.5725 0.0
C1600 C 0.85468 0.22625 0.55723 0.0
C1601 C 0.88514 0.24451 0.56078 0.0
C1602 C 0.96656 0.24775 0.5876 0.0
C1603 C 0.05283 0.27892 0.56863 0.0
C1604 C 0.01595 0.26874 0.57016 0.0
C1605 C 0.91139 0.22989 0.57153 0.0
C1606 C 0.9467 0.24526 0.57158 0.0
H1607 H 0.12189 0.26029 0.54171 0.0
H1608 H 0.06524 0.23761 0.54986 0.0
H1609 H 0.01585 0.26113 0.59934 0.0
H1610 H 0.87168 0.15405 0.58225 0.0
H1611 H 0.92476 0.18607 0.58845 0.0
C1612 C 0.426 0.36634 0.82451 0.0
C1613 C 0.44076 0.38974 0.81204 0.0
C1614 C 0.44276 0.33514 0.82868 0.0
C1615 C 0.49543 0.27295 0.80527 0.0
H1616 H 0.51294 0.2288 0.85177 0.0
C1617 C 0.52614 0.12927 0.80913 0.0
C1618 C 0.55967 0.12224 0.81559 0.0
C1619 C 0.51056 0.16124 0.8124 0.0
C1620 C 0.5081 0.24093 0.83873 0.0
H1621 H 0.48631 0.39992 0.79555 0.0
H1622 H 0.51494 0.34554 0.80261 0.0
H1623 H 0.48978 0.28824 0.85088 0.0
H1624 H 0.60164 0.14239 0.83208 0.0
H1625 H 0.5738 0.19819 0.83811 0.0
H1626 H 0.51273 0.2258 0.79305 0.0
C1627 C 0.49035 0.35124 0.80904 0.0
C1628 C 0.49485 0.27476 0.83822 0.0
C1629 C 0.4739 0.38246 0.80505 0.0
C1630 C 0.5758 0.14683 0.82692 0.0
C1631 C 0.55993 0.17884 0.83035 0.0
C1632 C 0.50786 0.23913 0.80578 0.0
C1633 C 0.47439 0.32672 0.82035 0.0
C1634 C 0.48865 0.29113 0.82144 0.0
C1635 C 0.52783 0.18681 0.82244 0.0
C1636 C 0.51435 0.22273 0.82247 0.0
H1637 H 0.40057 0.37107 0.83019 0.0
H1638 H 0.42989 0.31665 0.83744 0.0
H1639 H 0.49057 0.28478 0.79215 0.0
H1640 H 0.51276 0.1109 0.8005 0.0
H1641 H 0.48563 0.16664 0.8063 0.0
C1642 C 0.60809 0.77329 0.05762 0.0
C1643 C 0.61838 0.80623 0.06358 0.0
C1644 C 0.57719 0.75863 0.0637 0.0
C1645 C 0.51343 0.72776 0.08094 0.0
H1646 H 0.43631 0.79159 0.07878 0.0
C1647 C 0.37402 0.67623 0.07888 0.0
C1648 C 0.35328 0.69102 0.06521 0.0
C1649 C 0.40476 0.69231 0.0844 0.0
C1650 C 0.45751 0.77336 0.07946 0.0
H1651 H 0.60537 0.84869 0.08156 0.0
H1652 H 0.55127 0.82282 0.09244 0.0
H1653 H 0.49526 0.81377 0.07821 0.0
H1654 H 0.34734 0.7359 0.0478 0.0
H1655 H 0.40081 0.76343 0.05711 0.0
H1656 H 0.47591 0.68724 0.08089 0.0
C1657 C 0.56706 0.8085 0.08287 0.0
C1658 C 0.49143 0.78614 0.0794 0.0
C1659 C 0.59828 0.82314 0.07683 0.0
C1660 C 0.36267 0.72359 0.05828 0.0
C1661 C 0.39343 0.73955 0.06373 0.0
C1662 C 0.47958 0.71498 0.0809 0.0
C1663 C 0.55557 0.77655 0.07589 0.0
C1664 C 0.51987 0.76344 0.07952 0.0
C1665 C 0.41557 0.72355 0.07638 0.0
C1666 C 0.45112 0.73754 0.07958 0.0
H1667 H 0.62301 0.75965 0.04739 0.0
H1668 H 0.56922 0.73421 0.05784 0.0
H1669 H 0.53465 0.7095 0.08135 0.0
H1670 H 0.36752 0.65131 0.08464 0.0
H1671 H 0.42069 0.67958 0.09448 0.0
C1672 C 0.01907 0.10948 0.72763 0.0
C1673 C 0.05442 0.10519 0.7236 0.0
C1674 C 0.00242 0.14092 0.72404 0.0
C1675 C 0.02244 0.23112 0.72533 0.0
H1676 H 0.93389 0.24731 0.70221 0.0
C1677 C 0.9618 0.36607 0.72907 0.0
C1678 C 0.92584 0.36804 0.7312 0.0
C1679 C 0.97745 0.33511 0.72367 0.0
C1680 C 0.95844 0.2433 0.70894 0.0
H1681 H 0.09935 0.13001 0.71161 0.0
H1682 H 0.07043 0.18493 0.70577 0.0
H1683 H 0.95999 0.18978 0.70101 0.0
H1684 H 0.87782 0.33972 0.72917 0.0
H1685 H 0.9049 0.28517 0.72071 0.0
H1686 H 0.02038 0.28324 0.73449 0.0
C1687 C 0.05563 0.16385 0.71157 0.0
C1688 C 0.97346 0.21032 0.70808 0.0
C1689 C 0.07209 0.13228 0.71482 0.0
C1690 C 0.9056 0.33894 0.72723 0.0
C1691 C 0.92129 0.30762 0.72235 0.0
C1692 C 0.00715 0.26374 0.72656 0.0
C1693 C 0.02096 0.16881 0.71664 0.0
C1694 C 0.00558 0.20396 0.71632 0.0
C1695 C 0.95761 0.30491 0.72101 0.0
C1696 C 0.9748 0.27046 0.71846 0.0
H1697 H 0.00473 0.08915 0.7344 0.0
H1698 H 0.97569 0.14414 0.72814 0.0
H1699 H 0.04696 0.22675 0.73207 0.0
H1700 H 0.9779 0.38822 0.73218 0.0
H1701 H 0.00529 0.33472 0.72221 0.0
C1702 C 0.90399 0.66089 0.46444 0.0
C1703 C 0.87883 0.67904 0.47441 0.0
C1704 C 0.93462 0.67739 0.45907 0.0
C1705 C 0.97869 0.76048 0.45215 0.0
H1706 H 0.05644 0.71837 0.47687 0.0
C1707 C 0.10251 0.83743 0.46916 0.0
C1708 C 0.1334 0.81977 0.4729 0.0
C1709 C 0.07244 0.81918 0.46464 0.0
C1710 C 0.03554 0.73025 0.46937 0.0
H1711 H 0.86471 0.72888 0.48554 0.0
H1712 H 0.91744 0.75812 0.47538 0.0
H1713 H 0.00127 0.68866 0.4761 0.0
H1714 H 0.15787 0.76953 0.47348 0.0
H1715 H 0.10635 0.73779 0.46427 0.0
H1716 H 0.01276 0.80194 0.44519 0.0
C1717 C 0.91371 0.73118 0.47187 0.0
C1718 C 0.00371 0.71311 0.46904 0.0
C1719 C 0.88355 0.7145 0.47765 0.0
C1720 C 0.13431 0.78375 0.47074 0.0
C1721 C 0.10451 0.76556 0.46572 0.0
C1722 C 0.0108 0.77732 0.45208 0.0
C1723 C 0.94014 0.71246 0.46319 0.0
C1724 C 0.97478 0.7284 0.46083 0.0
C1725 C 0.07268 0.7828 0.46333 0.0
C1726 C 0.03957 0.76294 0.46114 0.0
H1727 H 0.90125 0.63338 0.46211 0.0
H1728 H 0.95468 0.6624 0.45243 0.0
H1729 H 0.95674 0.77277 0.44569 0.0
H1730 H 0.10092 0.86518 0.47098 0.0
H1731 H 0.04867 0.83367 0.46322 0.0
C1732 C 0.58046 0.65038 0.21003 0.0
C1733 C 0.56195 0.62258 0.21764 0.0
C1734 C 0.56383 0.68167 0.20622 0.0
C1735 C 0.48068 0.7256 0.19926 0.0
H1736 H 0.52089 0.79975 0.22771 0.0
C1737 C 0.4045 0.85027 0.21659 0.0
C1738 C 0.42258 0.88043 0.22134 0.0
C1739 C 0.42238 0.81982 0.21231 0.0
C1740 C 0.50958 0.77989 0.21922 0.0
H1741 H 0.51106 0.60499 0.22582 0.0
H1742 H 0.48178 0.65932 0.21846 0.0
H1743 H 0.55011 0.74441 0.22596 0.0
H1744 H 0.47343 0.90315 0.22406 0.0
H1745 H 0.50469 0.85103 0.21534 0.0
H1746 H 0.4404 0.76102 0.19221 0.0
C1747 C 0.50921 0.65696 0.2157 0.0
C1748 C 0.52638 0.74794 0.21835 0.0
C1749 C 0.52596 0.62586 0.2199 0.0
C1750 C 0.45884 0.88019 0.22053 0.0
C1751 C 0.47673 0.85004 0.21578 0.0
C1752 C 0.46418 0.75789 0.19978 0.0
C1753 C 0.52824 0.68559 0.20952 0.0
C1754 C 0.51185 0.7203 0.20863 0.0
C1755 C 0.45886 0.81894 0.21229 0.0
C1756 C 0.47801 0.78542 0.21007 0.0
H1757 H 0.60825 0.64892 0.20832 0.0
H1758 H 0.57907 0.70332 0.20141 0.0
H1759 H 0.46899 0.70472 0.1916 0.0
H1760 H 0.37653 0.84952 0.21736 0.0
H1761 H 0.40739 0.79663 0.21 0.0
C1762 C 0.38941 0.21573 0.97249 0.0
C1763 C 0.38378 0.18 0.97097 0.0
C1764 C 0.42115 0.23015 0.96738 0.0
C1765 C 0.5103 0.20897 0.97031 0.0
H1766 H 0.52737 0.29148 0.94183 0.0
C1767 C 0.6426 0.27625 0.97477 0.0
C1768 C 0.64251 0.31252 0.97472 0.0
C1769 C 0.61324 0.25773 0.96934 0.0
C1770 C 0.52313 0.26866 0.95003 0.0
H1771 H 0.40632 0.1314 0.96243 0.0
H1772 H 0.4624 0.15653 0.95399 0.0
H1773 H 0.4704 0.26425 0.94107 0.0
H1774 H 0.61197 0.35787 0.96841 0.0
H1775 H 0.56045 0.32606 0.9599 0.0
H1776 H 0.5615 0.21445 0.98058 0.0
C1777 C 0.44191 0.17342 0.95871 0.0
C1778 C 0.49052 0.25288 0.94939 0.0
C1779 C 0.40979 0.15912 0.96337 0.0
C1780 C 0.61301 0.32989 0.96837 0.0
C1781 C 0.58334 0.31145 0.96341 0.0
C1782 C 0.54259 0.22514 0.97131 0.0
C1783 C 0.44816 0.20892 0.96116 0.0
C1784 C 0.4837 0.22315 0.95971 0.0
C1785 C 0.58262 0.27504 0.96426 0.0
C1786 C 0.54943 0.25564 0.96144 0.0
H1787 H 0.36991 0.23223 0.97857 0.0
H1788 H 0.42541 0.25751 0.96957 0.0
H1789 H 0.50554 0.18635 0.97863 0.0
H1790 H 0.66509 0.26219 0.97951 0.0
H1791 H 0.61437 0.2298 0.96966 0.0
loop_
_geom_bond_atom_site_label_1
_geom_bond_atom_site_label_2
_geom_bond_distance
_geom_bond_site_symmetry_2
_ccdc_geom_bond_type
Fe0 O2 1.918 . S
Fe0 O5 1.997 . S
Fe0 O6 2.002 . S
Fe0 O11 1.976 . S
Fe0 O14 1.996 . S
Fe1 O2 1.918 . S
Fe1 O9 1.997 . S
Fe1 O12 1.996 . S
Fe1 O16 1.976 . S
Fe1 O19 2.002 . S
O2 Fe0 1.918 . S
O2 Fe1 1.918 . S
O2 Fe3 1.918 . S
Fe3 O2 1.918 . S
Fe3 O4 2.002 . S
Fe3 O13 1.976 . S
Fe3 O17 1.996 . S
Fe3 O20 1.997 . S
O4 Fe3 2.002 . S
O4 C21 1.295 . S
O5 Fe0 1.997 . S
O5 C21 1.235 . S
O6 Fe0 2.002 . S
O6 C7 1.295 . S
C7 O6 1.295 . S
C7 O9 1.235 . S
C8 O13 1.287 . S
C8 O14 1.255 . S
O9 Fe1 1.997 . S
O9 C7 1.235 . S
C10 O16 1.287 . S
C10 O17 1.255 . S
O11 Fe0 1.976 . S
O11 C18 1.287 . S
O12 Fe1 1.996 . S
O12 C18 1.255 . S
O13 Fe3 1.976 . S
O13 C8 1.287 . S
O14 Fe0 1.996 . S
O14 C8 1.255 . S
C15 O19 1.295 . S
C15 O20 1.235 . S
O16 Fe1 1.976 . S
O16 C10 1.287 . S
O17 Fe3 1.996 . S
O17 C10 1.255 . S
C18 O11 1.287 . S
C18 O12 1.255 . S
O19 Fe1 2.002 . S
O19 C15 1.295 . S
O20 Fe3 1.997 . S
O20 C15 1.235 . S
C21 O4 1.295 . S
C21 O5 1.235 . S
Fe22 O24 1.918 . S
Fe22 O27 1.997 . S
Fe22 O28 2.002 . S
Fe22 O33 1.976 . S
Fe22 O36 1.996 . S
Fe23 O24 1.918 . S
Fe23 O31 1.997 . S
Fe23 O34 1.996 . S
Fe23 O38 1.976 . S
Fe23 O41 2.002 . S
O24 Fe22 1.918 . S
O24 Fe23 1.918 . S
O24 Fe25 1.918 . S
Fe25 O24 1.918 . S
Fe25 O26 2.002 . S
Fe25 O35 1.976 . S
Fe25 O39 1.996 . S
Fe25 O42 1.997 . S
O26 Fe25 2.002 . S
O26 C43 1.295 . S
O27 Fe22 1.997 . S
O27 C43 1.235 . S
O28 Fe22 2.002 . S
O28 C29 1.295 . S
C29 O28 1.295 . S
C29 O31 1.235 . S
C30 O35 1.287 . S
C30 O36 1.255 . S
O31 Fe23 1.997 . S
O31 C29 1.235 . S
C32 O38 1.287 . S
C32 O39 1.255 . S
O33 Fe22 1.976 . S
O33 C40 1.287 . S
O34 Fe23 1.996 . S
O34 C40 1.255 . S
O35 Fe25 1.976 . S
O35 C30 1.287 . S
O36 Fe22 1.996 . S
O36 C30 1.255 . S
C37 O41 1.295 . S
C37 O42 1.235 . S
O38 Fe23 1.976 . S
O38 C32 1.287 . S
O39 Fe25 1.996 . S
O39 C32 1.255 . S
C40 O33 1.287 . S
C40 O34 1.255 . S
O41 Fe23 2.002 . S
O41 C37 1.295 . S
O42 Fe25 1.997 . S
O42 C37 1.235 . S
C43 O26 1.295 . S
C43 O27 1.235 . S
Fe44 O46 1.918 . S
Fe44 O49 1.997 . S
Fe44 O50 2.002 . S
Fe44 O55 1.976 . S
Fe44 O58 1.996 . S
Fe45 O46 1.918 . S
Fe45 O53 1.997 . S
Fe45 O56 1.996 . S
Fe45 O60 1.976 . S
Fe45 O63 2.002 . S
O46 Fe44 1.918 . S
O46 Fe45 1.918 . S
O46 Fe47 1.918 . S
Fe47 O46 1.918 . S
Fe47 O48 2.002 . S
Fe47 O57 1.976 . S
Fe47 O61 1.996 . S
Fe47 O64 1.997 . S
O48 Fe47 2.002 . S
O48 C65 1.295 . S
O49 Fe44 1.997 . S
O49 C65 1.235 . S
O50 Fe44 2.002 . S
O50 C51 1.295 . S
C51 O50 1.295 . S
C51 O53 1.235 . S
C52 O57 1.287 . S
C52 O58 1.255 . S
O53 Fe45 1.997 . S
O53 C51 1.235 . S
C54 O60 1.287 . S
C54 O61 1.255 . S
O55 Fe44 1.976 . S
O55 C62 1.287 . S
O56 Fe45 1.996 . S
O56 C62 1.255 . S
O57 Fe47 1.976 . S
O57 C52 1.287 . S
O58 Fe44 1.996 . S
O58 C52 1.255 . S
C59 O63 1.295 . S
C59 O64 1.235 . S
O60 Fe45 1.976 . S
O60 C54 1.287 . S
O61 Fe47 1.996 . S
O61 C54 1.255 . S
C62 O55 1.287 . S
C62 O56 1.255 . S
O63 Fe45 2.002 . S
O63 C59 1.295 . S
O64 Fe47 1.997 . S
O64 C59 1.235 . S
C65 O48 1.295 . S
C65 O49 1.235 . S
Fe66 O68 1.918 . S
Fe66 O71 1.997 1_554 S
Fe66 O72 2.002 . S
Fe66 O77 1.976 . S
Fe66 O80 1.996 . S
Fe67 O68 1.918 . S
Fe67 O75 1.997 . S
Fe67 O78 1.996 . S
Fe67 O82 1.976 . S
Fe67 O85 2.002 . S
O68 Fe66 1.918 . S
O68 Fe67 1.918 . S
O68 Fe69 1.918 1_554 S
Fe69 O68 1.918 1_556 S
Fe69 O70 2.002 . S
Fe69 O79 1.976 . S
Fe69 O83 1.996 1_556 S
Fe69 O86 1.997 . S
O70 Fe69 2.002 . S
O70 C87 1.295 . S
O71 Fe66 1.997 1_556 S
O71 C87 1.235 . S
O72 Fe66 2.002 . S
O72 C73 1.295 . S
C73 O72 1.295 . S
C73 O75 1.235 . S
C74 O79 1.286 1_554 S
C74 O80 1.256 . S
O75 Fe67 1.997 . S
O75 C73 1.235 . S
C76 O82 1.287 . S
C76 O83 1.255 . S
O77 Fe66 1.976 . S
O77 C84 1.287 . S
O78 Fe67 1.996 . S
O78 C84 1.255 . S
O79 Fe69 1.976 . S
O79 C74 1.286 1_556 S
O80 Fe66 1.996 . S
O80 C74 1.256 . S
C81 O85 1.295 . S
C81 O86 1.235 1_554 S
O82 Fe67 1.976 . S
O82 C76 1.287 . S
O83 Fe69 1.996 1_554 S
O83 C76 1.255 . S
C84 O77 1.287 . S
C84 O78 1.255 . S
O85 Fe67 2.002 . S
O85 C81 1.295 . S
O86 Fe69 1.997 . S
O86 C81 1.235 1_556 S
C87 O70 1.295 . S
C87 O71 1.235 . S
Fe88 O90 1.918 . S
Fe88 O93 1.997 . S
Fe88 O94 2.002 . S
Fe88 O99 1.976 . S
Fe88 O102 1.996 . S
Fe89 O90 1.918 . S
Fe89 O97 1.997 . S
Fe89 O100 1.996 . S
Fe89 O104 1.976 . S
Fe89 O107 2.002 . S
O90 Fe88 1.918 . S
O90 Fe89 1.918 . S
O90 Fe91 1.918 . S
Fe91 O90 1.918 . S
Fe91 O92 2.002 . S
Fe91 O101 1.976 . S
Fe91 O105 1.996 . S
Fe91 O108 1.997 . S
O92 Fe91 2.002 . S
O92 C109 1.295 . S
O93 Fe88 1.997 . S
O93 C109 1.235 . S
O94 Fe88 2.002 . S
O94 C95 1.295 . S
C95 O94 1.295 . S
C95 O97 1.235 . S
C96 O101 1.287 . S
C96 O102 1.255 . S
O97 Fe89 1.997 . S
O97 C95 1.235 . S
C98 O104 1.287 . S
C98 O105 1.255 . S
O99 Fe88 1.976 . S
O99 C106 1.287 . S
O100 Fe89 1.996 . S
O100 C106 1.255 . S
O101 Fe91 1.976 . S
O101 C96 1.287 . S
O102 Fe88 1.996 . S
O102 C96 1.255 . S
C103 O107 1.295 . S
C103 O108 1.235 . S
O104 Fe89 1.976 . S
O104 C98 1.287 . S
O105 Fe91 1.996 . S
O105 C98 1.255 . S
C106 O99 1.287 . S
C106 O100 1.255 . S
O107 Fe89 2.002 . S
O107 C103 1.295 . S
O108 Fe91 1.997 . S
O108 C103 1.235 . S
C109 O92 1.295 . S
C109 O93 1.235 . S
Fe110 O112 1.918 . S
Fe110 O115 1.997 . S
Fe110 O116 2.002 . S
Fe110 O121 1.976 . S
Fe110 O124 1.996 . S
Fe111 O112 1.918 . S
Fe111 O119 1.997 . S
Fe111 O122 1.996 . S
Fe111 O126 1.976 . S
Fe111 O129 2.002 . S
O112 Fe110 1.918 . S
O112 Fe111 1.918 . S
O112 Fe113 1.918 . S
Fe113 O112 1.918 . S
Fe113 O114 2.002 . S
Fe113 O123 1.976 . S
Fe113 O127 1.996 . S
Fe113 O130 1.997 . S
O114 Fe113 2.002 . S
O114 C131 1.295 . S
O115 Fe110 1.997 . S
O115 C131 1.235 . S
O116 Fe110 2.002 . S
O116 C117 1.295 . S
C117 O116 1.295 . S
C117 O119 1.235 . S
C118 O123 1.287 . S
C118 O124 1.255 . S
O119 Fe111 1.997 . S
O119 C117 1.235 . S
C120 O126 1.287 . S
C120 O127 1.255 . S
O121 Fe110 1.976 . S
O121 C128 1.287 . S
O122 Fe111 1.996 . S
O122 C128 1.255 . S
O123 Fe113 1.976 . S
O123 C118 1.287 . S
O124 Fe110 1.996 . S
O124 C118 1.255 . S
C125 O129 1.295 . S
C125 O130 1.235 . S
O126 Fe111 1.976 . S
O126 C120 1.287 . S
O127 Fe113 1.996 . S
O127 C120 1.255 . S
C128 O121 1.287 . S
C128 O122 1.255 . S
O129 Fe111 2.002 . S
O129 C125 1.295 . S
O130 Fe113 1.997 . S
O130 C125 1.235 . S
C131 O114 1.295 . S
C131 O115 1.235 . S
Fe132 O134 1.918 . S
Fe132 O137 1.997 . S
Fe132 O138 2.002 . S
Fe132 O143 1.976 . S
Fe132 O146 1.996 . S
Fe133 O134 1.918 . S
Fe133 O141 1.997 . S
Fe133 O144 1.996 . S
Fe133 O148 1.976 . S
Fe133 O151 2.002 . S
O134 Fe132 1.918 . S
O134 Fe133 1.918 . S
O134 Fe135 1.918 . S
Fe135 O134 1.918 . S
Fe135 O136 2.002 . S
Fe135 O145 1.976 . S
Fe135 O149 1.996 . S
Fe135 O152 1.997 . S
O136 Fe135 2.002 . S
O136 C153 1.295 . S
O137 Fe132 1.997 . S
O137 C153 1.235 . S
O138 Fe132 2.002 . S
O138 C139 1.295 . S
C139 O138 1.295 . S
C139 O141 1.235 . S
C140 O145 1.287 . S
C140 O146 1.255 . S
O141 Fe133 1.997 . S
O141 C139 1.235 . S
C142 O148 1.287 . S
C142 O149 1.255 . S
O143 Fe132 1.976 . S
O143 C150 1.287 . S
O144 Fe133 1.996 . S
O144 C150 1.255 . S
O145 Fe135 1.976 . S
O145 C140 1.287 . S
O146 Fe132 1.996 . S
O146 C140 1.255 . S
C147 O151 1.295 . S
C147 O152 1.235 . S
O148 Fe133 1.976 . S
O148 C142 1.287 . S
O149 Fe135 1.996 . S
O149 C142 1.255 . S
C150 O143 1.287 . S
C150 O144 1.255 . S
O151 Fe133 2.002 . S
O151 C147 1.295 . S
O152 Fe135 1.997 . S
O152 C147 1.235 . S
C153 O136 1.295 . S
C153 O137 1.235 . S
Fe154 O156 1.918 1_554 S
Fe154 O159 1.997 . S
Fe154 O160 2.002 . S
Fe154 O165 1.976 . S
Fe154 O168 1.996 1_554 S
Fe155 O156 1.918 . S
Fe155 O163 1.997 1_556 S
Fe155 O166 1.996 . S
Fe155 O170 1.976 . S
Fe155 O173 2.002 . S
O156 Fe154 1.918 1_556 S
O156 Fe155 1.918 . S
O156 Fe157 1.918 . S
Fe157 O156 1.918 . S
Fe157 O158 2.002 . S
Fe157 O167 1.976 . S
Fe157 O171 1.996 . S
Fe157 O174 1.997 . S
O158 Fe157 2.002 . S
O158 C175 1.295 . S
O159 Fe154 1.997 . S
O159 C175 1.235 1_554 S
O160 Fe154 2.002 . S
O160 C161 1.295 . S
C161 O160 1.295 . S
C161 O163 1.235 . S
C162 O167 1.287 . S
C162 O168 1.255 . S
O163 Fe155 1.997 1_554 S
O163 C161 1.235 . S
C164 O170 1.287 . S
C164 O171 1.255 . S
O165 Fe154 1.976 . S
O165 C172 1.286 1_554 S
O166 Fe155 1.996 . S
O166 C172 1.256 . S
O167 Fe157 1.976 . S
O167 C162 1.287 . S
O168 Fe154 1.996 1_556 S
O168 C162 1.255 . S
C169 O173 1.295 . S
C169 O174 1.235 . S
O170 Fe155 1.976 . S
O170 C164 1.287 . S
O171 Fe157 1.996 . S
O171 C164 1.255 . S
C172 O165 1.286 1_556 S
C172 O166 1.256 . S
O173 Fe155 2.002 . S
O173 C169 1.295 . S
O174 Fe157 1.997 . S
O174 C169 1.235 . S
C175 O158 1.295 . S
C175 O159 1.235 1_556 S
Fe176 O178 1.918 1_565 S
Fe176 O181 1.996 1_565 S
Fe176 O182 2.002 . S
Fe176 O187 1.976 . S
Fe176 O190 1.996 . S
Fe177 O178 1.918 . S
Fe177 O185 1.997 . S
Fe177 O188 1.996 . S
Fe177 O192 1.976 . S
Fe177 O195 2.002 . S
O178 Fe176 1.918 1_545 S
O178 Fe177 1.918 . S
O178 Fe179 1.918 . S
Fe179 O178 1.918 . S
Fe179 O180 2.002 . S
Fe179 O189 1.976 . S
Fe179 O193 1.996 . S
Fe179 O196 1.997 . S
O180 Fe179 2.002 . S
O180 C197 1.295 . S
O181 Fe176 1.996 1_545 S
O181 C197 1.243 . S
O182 Fe176 2.002 . S
O182 C183 1.295 1_565 S
C183 O182 1.295 1_545 S
C183 O185 1.235 . S
C184 O189 1.287 . S
C184 O190 1.255 1_545 S
O185 Fe177 1.997 . S
O185 C183 1.235 . S
C186 O192 1.287 . S
C186 O193 1.255 . S
O187 Fe176 1.976 . S
O187 C194 1.287 1_565 S
O188 Fe177 1.996 . S
O188 C194 1.255 . S
O189 Fe179 1.976 . S
O189 C184 1.287 . S
O190 Fe176 1.996 . S
O190 C184 1.255 1_565 S
C191 O195 1.295 . S
C191 O196 1.235 . S
O192 Fe177 1.976 . S
O192 C186 1.287 . S
O193 Fe179 1.996 . S
O193 C186 1.255 . S
C194 O187 1.287 1_545 S
C194 O188 1.255 . S
O195 Fe177 2.002 . S
O195 C191 1.295 . S
O196 Fe179 1.997 . S
O196 C191 1.235 . S
C197 O180 1.295 . S
C197 O181 1.243 . S
Fe198 O200 1.918 1_556 S
Fe198 O203 1.997 . S
Fe198 O204 2.002 . S
Fe198 O209 1.976 . S
Fe198 O212 1.996 1_556 S
Fe199 O200 1.918 . S
Fe199 O207 1.997 1_554 S
Fe199 O210 1.996 . S
Fe199 O214 1.976 . S
Fe199 O217 2.002 . S
O200 Fe198 1.918 1_554 S
O200 Fe199 1.918 . S
O200 Fe201 1.918 . S
Fe201 O200 1.918 . S
Fe201 O202 2.002 . S
Fe201 O211 1.976 . S
Fe201 O215 1.996 . S
Fe201 O218 1.997 . S
O202 Fe201 2.002 . S
O202 C219 1.295 . S
O203 Fe198 1.997 . S
O203 C219 1.235 1_556 S
O204 Fe198 2.002 . S
O204 C205 1.295 . S
C205 O204 1.295 . S
C205 O207 1.235 . S
C206 O211 1.287 . S
C206 O212 1.255 . S
O207 Fe199 1.997 1_556 S
O207 C205 1.235 . S
C208 O214 1.287 . S
C208 O215 1.255 . S
O209 Fe198 1.976 . S
O209 C216 1.286 1_556 S
O210 Fe199 1.996 . S
O210 C216 1.256 . S
O211 Fe201 1.976 . S
O211 C206 1.287 . S
O212 Fe198 1.996 1_554 S
O212 C206 1.255 . S
C213 O217 1.295 . S
C213 O218 1.235 . S
O214 Fe199 1.976 . S
O214 C208 1.287 . S
O215 Fe201 1.996 . S
O215 C208 1.255 . S
C216 O209 1.286 1_554 S
C216 O210 1.256 . S
O217 Fe199 2.002 . S
O217 C213 1.295 . S
O218 Fe201 1.997 . S
O218 C213 1.235 . S
C219 O202 1.295 . S
C219 O203 1.235 1_554 S
Fe220 O222 1.918 1_545 S
Fe220 O225 1.996 1_545 S
Fe220 O226 2.002 . S
Fe220 O231 1.976 . S
Fe220 O234 1.996 . S
Fe221 O222 1.918 . S
Fe221 O229 1.997 . S
Fe221 O232 1.996 . S
Fe221 O236 1.976 . S
Fe221 O239 2.002 . S
O222 Fe220 1.918 1_565 S
O222 Fe221 1.918 . S
O222 Fe223 1.918 . S
Fe223 O222 1.918 . S
Fe223 O224 2.002 . S
Fe223 O233 1.976 . S
Fe223 O237 1.996 . S
Fe223 O240 1.997 . S
O224 Fe223 2.002 . S
O224 C241 1.295 . S
O225 Fe220 1.996 1_565 S
O225 C241 1.243 . S
O226 Fe220 2.002 . S
O226 C227 1.295 1_545 S
C227 O226 1.295 1_565 S
C227 O229 1.235 . S
C228 O233 1.287 . S
C228 O234 1.255 1_565 S
O229 Fe221 1.997 . S
O229 C227 1.235 . S
C230 O236 1.287 . S
C230 O237 1.255 . S
O231 Fe220 1.976 . S
O231 C238 1.287 1_545 S
O232 Fe221 1.996 . S
O232 C238 1.255 . S
O233 Fe223 1.976 . S
O233 C228 1.287 . S
O234 Fe220 1.996 . S
O234 C228 1.255 1_545 S
C235 O239 1.295 . S
C235 O240 1.235 . S
O236 Fe221 1.976 . S
O236 C230 1.287 . S
O237 Fe223 1.996 . S
O237 C230 1.255 . S
C238 O231 1.287 1_565 S
C238 O232 1.255 . S
O239 Fe221 2.002 . S
O239 C235 1.295 . S
O240 Fe223 1.997 . S
O240 C235 1.235 . S
C241 O224 1.295 . S
C241 O225 1.243 . S
Fe242 O244 1.918 . S
Fe242 O247 1.997 . S
Fe242 O248 2.002 . S
Fe242 O253 1.976 . S
Fe242 O256 1.996 . S
Fe243 O244 1.918 . S
Fe243 O251 1.997 . S
Fe243 O254 1.996 . S
Fe243 O258 1.976 . S
Fe243 O261 2.002 . S
O244 Fe242 1.918 . S
O244 Fe243 1.918 . S
O244 Fe245 1.918 . S
Fe245 O244 1.918 . S
Fe245 O246 2.002 . S
Fe245 O255 1.976 . S
Fe245 O259 1.996 . S
Fe245 O262 1.997 . S
O246 Fe245 2.002 . S
O246 C263 1.295 . S
O247 Fe242 1.997 . S
O247 C263 1.235 . S
O248 Fe242 2.002 . S
O248 C249 1.295 . S
C249 O248 1.295 . S
C249 O251 1.235 . S
C250 O255 1.287 . S
C250 O256 1.255 . S
O251 Fe243 1.997 . S
O251 C249 1.235 . S
C252 O258 1.287 . S
C252 O259 1.255 . S
O253 Fe242 1.976 . S
O253 C260 1.287 . S
O254 Fe243 1.996 . S
O254 C260 1.255 . S
O255 Fe245 1.976 . S
O255 C250 1.287 . S
O256 Fe242 1.996 . S
O256 C250 1.255 . S
C257 O261 1.295 . S
C257 O262 1.235 . S
O258 Fe243 1.976 . S
O258 C252 1.287 . S
O259 Fe245 1.996 . S
O259 C252 1.255 . S
C260 O253 1.287 . S
C260 O254 1.255 . S
O261 Fe243 2.002 . S
O261 C257 1.295 . S
O262 Fe245 1.997 . S
O262 C257 1.235 . S
C263 O246 1.295 . S
C263 O247 1.235 . S
Fe264 O266 1.918 . S
Fe264 O269 1.997 . S
Fe264 O270 2.002 . S
Fe264 O275 1.976 . S
Fe264 O278 1.996 . S
Fe265 O266 1.918 . S
Fe265 O273 1.997 . S
Fe265 O276 1.996 . S
Fe265 O280 1.976 . S
Fe265 O283 2.002 . S
O266 Fe264 1.918 . S
O266 Fe265 1.918 . S
O266 Fe267 1.918 1_565 S
Fe267 O266 1.918 1_545 S
Fe267 O268 2.002 . S
Fe267 O277 1.976 . S
Fe267 O281 1.996 . S
Fe267 O284 1.996 1_545 S
O268 Fe267 2.002 . S
O268 C285 1.295 1_545 S
O269 Fe264 1.997 . S
O269 C285 1.235 . S
O270 Fe264 2.002 . S
O270 C271 1.295 . S
C271 O270 1.295 . S
C271 O273 1.235 . S
C272 O277 1.287 1_565 S
C272 O278 1.255 . S
O273 Fe265 1.997 . S
O273 C271 1.235 . S
C274 O280 1.287 . S
C274 O281 1.255 1_565 S
O275 Fe264 1.976 . S
O275 C282 1.287 . S
O276 Fe265 1.996 . S
O276 C282 1.255 . S
O277 Fe267 1.976 . S
O277 C272 1.287 1_545 S
O278 Fe264 1.996 . S
O278 C272 1.255 . S
C279 O283 1.295 . S
C279 O284 1.243 . S
O280 Fe265 1.976 . S
O280 C274 1.287 . S
O281 Fe267 1.996 . S
O281 C274 1.255 1_545 S
C282 O275 1.287 . S
C282 O276 1.255 . S
O283 Fe265 2.002 . S
O283 C279 1.295 . S
O284 Fe267 1.996 1_565 S
O284 C279 1.243 . S
C285 O268 1.295 1_565 S
C285 O269 1.235 . S
Fe286 O288 1.918 1_554 S
Fe286 O291 1.997 . S
Fe286 O292 2.002 . S
Fe286 O297 1.976 . S
Fe286 O300 1.996 1_554 S
Fe287 O288 1.918 . S
Fe287 O295 1.997 1_556 S
Fe287 O298 1.996 . S
Fe287 O302 1.976 . S
Fe287 O305 2.002 . S
O288 Fe286 1.918 1_556 S
O288 Fe287 1.918 . S
O288 Fe289 1.918 . S
Fe289 O288 1.918 . S
Fe289 O290 2.002 . S
Fe289 O299 1.976 . S
Fe289 O303 1.996 . S
Fe289 O306 1.997 . S
O290 Fe289 2.002 . S
O290 C307 1.295 . S
O291 Fe286 1.997 . S
O291 C307 1.235 1_554 S
O292 Fe286 2.002 . S
O292 C293 1.295 . S
C293 O292 1.295 . S
C293 O295 1.235 . S
C294 O299 1.287 . S
C294 O300 1.255 . S
O295 Fe287 1.997 1_554 S
O295 C293 1.235 . S
C296 O302 1.287 . S
C296 O303 1.255 . S
O297 Fe286 1.976 . S
O297 C304 1.286 1_554 S
O298 Fe287 1.996 . S
O298 C304 1.256 . S
O299 Fe289 1.976 . S
O299 C294 1.287 . S
O300 Fe286 1.996 1_556 S
O300 C294 1.255 . S
C301 O305 1.295 . S
C301 O306 1.235 . S
O302 Fe287 1.976 . S
O302 C296 1.287 . S
O303 Fe289 1.996 . S
O303 C296 1.255 . S
C304 O297 1.286 1_556 S
C304 O298 1.256 . S
O305 Fe287 2.002 . S
O305 C301 1.295 . S
O306 Fe289 1.997 . S
O306 C301 1.235 . S
C307 O290 1.295 . S
C307 O291 1.235 1_556 S
Fe308 O310 1.918 1_565 S
Fe308 O313 1.996 1_565 S
Fe308 O314 2.002 . S
Fe308 O319 1.976 . S
Fe308 O322 1.996 . S
Fe309 O310 1.918 . S
Fe309 O317 1.997 . S
Fe309 O320 1.996 . S
Fe309 O324 1.976 . S
Fe309 O327 2.002 . S
O310 Fe308 1.918 1_545 S
O310 Fe309 1.918 . S
O310 Fe311 1.918 . S
Fe311 O310 1.918 . S
Fe311 O312 2.002 . S
Fe311 O321 1.976 . S
Fe311 O325 1.996 . S
Fe311 O328 1.997 . S
O312 Fe311 2.002 . S
O312 C329 1.295 . S
O313 Fe308 1.996 1_545 S
O313 C329 1.243 . S
O314 Fe308 2.002 . S
O314 C315 1.295 1_565 S
C315 O314 1.295 1_545 S
C315 O317 1.235 . S
C316 O321 1.287 . S
C316 O322 1.255 1_545 S
O317 Fe309 1.997 . S
O317 C315 1.235 . S
C318 O324 1.287 . S
C318 O325 1.255 . S
O319 Fe308 1.976 . S
O319 C326 1.287 1_565 S
O320 Fe309 1.996 . S
O320 C326 1.255 . S
O321 Fe311 1.976 . S
O321 C316 1.287 . S
O322 Fe308 1.996 . S
O322 C316 1.255 1_565 S
C323 O327 1.295 . S
C323 O328 1.235 . S
O324 Fe309 1.976 . S
O324 C318 1.287 . S
O325 Fe311 1.996 . S
O325 C318 1.255 . S
C326 O319 1.287 1_545 S
C326 O320 1.255 . S
O327 Fe309 2.002 . S
O327 C323 1.295 . S
O328 Fe311 1.997 . S
O328 C323 1.235 . S
C329 O312 1.295 . S
C329 O313 1.243 . S
Fe330 O332 1.918 . S
Fe330 O335 1.997 . S
Fe330 O336 2.002 . S
Fe330 O341 1.976 . S
Fe330 O344 1.996 . S
Fe331 O332 1.918 . S
Fe331 O339 1.997 . S
Fe331 O342 1.996 . S
Fe331 O346 1.976 . S
Fe331 O349 2.002 . S
O332 Fe330 1.918 . S
O332 Fe331 1.918 . S
O332 Fe333 1.918 . S
Fe333 O332 1.918 . S
Fe333 O334 2.002 . S
Fe333 O343 1.976 . S
Fe333 O347 1.996 . S
Fe333 O350 1.997 . S
O334 Fe333 2.002 . S
O334 C351 1.295 . S
O335 Fe330 1.997 . S
O335 C351 1.235 . S
O336 Fe330 2.002 . S
O336 C337 1.295 . S
C337 O336 1.295 . S
C337 O339 1.235 . S
C338 O343 1.287 . S
C338 O344 1.255 . S
O339 Fe331 1.997 . S
O339 C337 1.235 . S
C340 O346 1.287 . S
C340 O347 1.255 . S
O341 Fe330 1.976 . S
O341 C348 1.287 . S
O342 Fe331 1.996 . S
O342 C348 1.255 . S
O343 Fe333 1.976 . S
O343 C338 1.287 . S
O344 Fe330 1.996 . S
O344 C338 1.255 . S
C345 O349 1.295 . S
C345 O350 1.235 . S
O346 Fe331 1.976 . S
O346 C340 1.287 . S
O347 Fe333 1.996 . S
O347 C340 1.255 . S
C348 O341 1.287 . S
C348 O342 1.255 . S
O349 Fe331 2.002 . S
O349 C345 1.295 . S
O350 Fe333 1.997 . S
O350 C345 1.235 . S
C351 O334 1.295 . S
C351 O335 1.235 . S
C352 C353 1.349 . S
C352 C354 1.327 . S
C352 H377 0.950 . S
C353 C352 1.349 . S
C353 C369 1.349 . S
C354 C352 1.327 . S
C354 C373 1.429 . S
C354 H378 0.950 . S
C355 C372 1.574 . S
C355 C374 1.368 . S
C355 H379 0.949 . S
H356 C360 0.949 . S
C357 C358 1.349 . S
C357 C359 1.327 . S
C357 H380 0.950 . S
C358 C357 1.349 . S
C358 C370 1.349 . S
C359 C357 1.327 . S
C359 C375 1.429 . S
C359 H381 0.950 . S
C360 H356 0.949 . S
C360 C368 1.574 . S
C360 C376 1.368 . S
H361 C369 0.950 . S
H362 C367 0.950 . S
H363 C368 0.949 . S
H364 C370 0.950 . S
H365 C371 0.950 . S
H366 C372 0.949 . S
C367 H362 0.950 . S
C367 C369 1.327 . S
C367 C373 1.429 . S
C368 C360 1.574 . S
C368 H363 0.949 . S
C368 C374 1.368 . S
C369 C353 1.349 . S
C369 H361 0.950 . S
C369 C367 1.327 . S
C370 C358 1.349 . S
C370 H364 0.950 . S
C370 C371 1.327 . S
C371 H365 0.950 . S
C371 C370 1.327 . S
C371 C375 1.429 . S
C372 C355 1.574 . S
C372 H366 0.949 . S
C372 C376 1.368 . S
C373 C354 1.429 . S
C373 C367 1.429 . S
C373 C374 1.523 . S
C374 C355 1.368 . S
C374 C368 1.368 . S
C374 C373 1.523 . S
C375 C359 1.429 . S
C375 C371 1.429 . S
C375 C376 1.523 . S
C376 C360 1.368 . S
C376 C372 1.368 . S
C376 C375 1.523 . S
H377 C352 0.950 . S
H378 C354 0.950 . S
H379 C355 0.949 . S
H380 C357 0.950 . S
H381 C359 0.950 . S
C382 C383 1.349 . S
C382 C384 1.327 . S
C382 H407 0.950 . S
C383 C382 1.349 . S
C383 C399 1.349 . S
C384 C382 1.327 . S
C384 C403 1.429 . S
C384 H408 0.950 . S
C385 C402 1.574 . S
C385 C404 1.368 . S
C385 H409 0.949 . S
H386 C390 0.949 . S
C387 C388 1.349 . S
C387 C389 1.327 . S
C387 H410 0.950 . S
C388 C387 1.349 . S
C388 C400 1.349 . S
C389 C387 1.327 . S
C389 C405 1.429 . S
C389 H411 0.950 . S
C390 H386 0.949 . S
C390 C398 1.574 . S
C390 C406 1.368 . S
H391 C399 0.950 . S
H392 C397 0.950 . S
H393 C398 0.949 . S
H394 C400 0.950 . S
H395 C401 0.950 . S
H396 C402 0.949 . S
C397 H392 0.950 . S
C397 C399 1.327 . S
C397 C403 1.429 . S
C398 C390 1.574 . S
C398 H393 0.949 . S
C398 C404 1.368 . S
C399 C383 1.349 . S
C399 H391 0.950 . S
C399 C397 1.327 . S
C400 C388 1.349 . S
C400 H394 0.950 . S
C400 C401 1.327 . S
C401 H395 0.950 . S
C401 C400 1.327 . S
C401 C405 1.429 . S
C402 C385 1.574 . S
C402 H396 0.949 . S
C402 C406 1.368 . S
C403 C384 1.429 . S
C403 C397 1.429 . S
C403 C404 1.523 . S
C404 C385 1.368 . S
C404 C398 1.368 . S
C404 C403 1.523 . S
C405 C389 1.429 . S
C405 C401 1.429 . S
C405 C406 1.523 . S
C406 C390 1.368 . S
C406 C402 1.368 . S
C406 C405 1.523 . S
H407 C382 0.950 . S
H408 C384 0.950 . S
H409 C385 0.949 . S
H410 C387 0.950 . S
H411 C389 0.950 . S
C412 C413 1.349 . S
C412 C414 1.327 . S
C412 H437 0.950 . S
C413 C412 1.349 . S
C413 C429 1.349 . S
C414 C412 1.327 . S
C414 C433 1.429 . S
C414 H438 0.950 . S
C415 C432 1.574 . S
C415 C434 1.368 . S
C415 H439 0.949 . S
H416 C420 0.949 . S
C417 C418 1.349 . S
C417 C419 1.327 . S
C417 H440 0.950 . S
C418 C417 1.349 . S
C418 C430 1.349 . S
C419 C417 1.327 . S
C419 C435 1.429 1_655 S
C419 H441 0.950 . S
C420 H416 0.949 . S
C420 C428 1.574 . S
C420 C436 1.368 . S
H421 C429 0.950 . S
H422 C427 0.950 . S
H423 C428 0.949 . S
H424 C430 0.950 . S
H425 C431 0.950 1_455 S
H426 C432 0.949 . S
C427 H422 0.950 . S
C427 C429 1.327 . S
C427 C433 1.429 . S
C428 C420 1.574 . S
C428 H423 0.949 . S
C428 C434 1.368 . S
C429 C413 1.349 . S
C429 H421 0.950 . S
C429 C427 1.327 . S
C430 C418 1.349 . S
C430 H424 0.950 . S
C430 C431 1.327 . S
C431 H425 0.950 1_655 S
C431 C430 1.327 . S
C431 C435 1.429 1_655 S
C432 C415 1.574 . S
C432 H426 0.949 . S
C432 C436 1.368 . S
C433 C414 1.429 . S
C433 C427 1.429 . S
C433 C434 1.523 . S
C434 C415 1.368 . S
C434 C428 1.368 . S
C434 C433 1.523 . S
C435 C419 1.429 1_455 S
C435 C431 1.429 1_455 S
C435 C436 1.523 . S
C436 C420 1.368 . S
C436 C432 1.368 . S
C436 C435 1.523 . S
H437 C412 0.950 . S
H438 C414 0.950 . S
H439 C415 0.949 . S
H440 C417 0.950 . S
H441 C419 0.950 . S
C442 C443 1.349 . S
C442 C444 1.327 . S
C442 H467 0.950 . S
C443 C442 1.349 . S
C443 C459 1.349 1_554 S
C444 C442 1.327 . S
C444 C463 1.429 . S
C444 H468 0.950 . S
C445 C462 1.578 . S
C445 C464 1.368 1_556 S
C445 H469 0.949 . S
H446 C450 0.949 . S
C447 C448 1.349 . S
C447 C449 1.327 . S
C447 H470 0.917 1_554 S
C448 C447 1.349 . S
C448 C460 1.349 . S
C449 C447 1.327 . S
C449 C465 1.429 . S
C449 H471 0.950 1_554 S
C450 H446 0.949 . S
C450 C458 1.574 . S
C450 C466 1.368 . S
H451 C459 0.950 . S
H452 C457 0.950 . S
H453 C458 0.949 . S
H454 C460 0.950 . S
H455 C461 0.950 . S
H456 C462 0.971 . S
C457 H452 0.950 . S
C457 C459 1.327 . S
C457 C463 1.429 1_556 S
C458 C450 1.574 . S
C458 H453 0.949 . S
C458 C464 1.368 . S
C459 C443 1.349 1_556 S
C459 H451 0.950 . S
C459 C457 1.327 . S
C460 C448 1.349 . S
C460 H454 0.950 . S
C460 C461 1.327 . S
C461 H455 0.950 . S
C461 C460 1.327 . S
C461 C465 1.429 . S
C462 C445 1.578 . S
C462 H456 0.971 . S
C462 C466 1.340 1_556 S
C463 C444 1.429 . S
C463 C457 1.429 1_554 S
C463 C464 1.523 . S
C464 C445 1.368 1_554 S
C464 C458 1.368 . S
C464 C463 1.523 . S
C465 C449 1.429 . S
C465 C461 1.429 . S
C465 C466 1.523 . S
C466 C450 1.368 . S
C466 C462 1.340 1_554 S
C466 C465 1.523 . S
H467 C442 0.950 . S
H468 C444 0.950 . S
H469 C445 0.949 . S
H470 C447 0.917 1_556 S
H471 C449 0.950 1_556 S
C472 C473 1.349 . S
C472 C474 1.327 . S
C472 H497 0.950 . S
C473 C472 1.349 . S
C473 C489 1.349 . S
C474 C472 1.327 . S
C474 C493 1.429 . S
C474 H498 0.950 . S
C475 C492 1.574 . S
C475 C494 1.368 . S
C475 H499 0.949 . S
H476 C480 0.949 . S
C477 C478 1.349 . S
C477 C479 1.327 . S
C477 H500 0.950 . S
C478 C477 1.349 . S
C478 C490 1.349 . S
C479 C477 1.327 . S
C479 C495 1.429 . S
C479 H501 0.950 . S
C480 H476 0.949 . S
C480 C488 1.574 . S
C480 C496 1.368 . S
H481 C489 0.950 . S
H482 C487 0.950 . S
H483 C488 0.949 . S
H484 C490 0.950 . S
H485 C491 0.950 . S
H486 C492 0.949 . S
C487 H482 0.950 . S
C487 C489 1.327 . S
C487 C493 1.429 . S
C488 C480 1.574 . S
C488 H483 0.949 . S
C488 C494 1.368 . S
C489 C473 1.349 . S
C489 H481 0.950 . S
C489 C487 1.327 . S
C490 C478 1.349 . S
C490 H484 0.950 . S
C490 C491 1.327 . S
C491 H485 0.950 . S
C491 C490 1.327 . S
C491 C495 1.429 . S
C492 C475 1.574 . S
C492 H486 0.949 . S
C492 C496 1.368 . S
C493 C474 1.429 . S
C493 C487 1.429 . S
C493 C494 1.523 . S
C494 C475 1.368 . S
C494 C488 1.368 . S
C494 C493 1.523 . S
C495 C479 1.429 . S
C495 C491 1.429 . S
C495 C496 1.523 . S
C496 C480 1.368 . S
C496 C492 1.368 . S
C496 C495 1.523 . S
H497 C472 0.950 . S
H498 C474 0.950 . S
H499 C475 0.949 . S
H500 C477 0.950 . S
H501 C479 0.950 . S
C502 C503 1.349 . S
C502 C504 1.327 . S
C502 H527 0.950 . S
C503 C502 1.349 . S
C503 C519 1.349 . S
C504 C502 1.327 . S
C504 C523 1.429 . S
C504 H528 0.950 . S
C505 C522 1.574 . S
C505 C524 1.368 . S
C505 H529 0.949 . S
H506 C510 0.949 . S
C507 C508 1.349 . S
C507 C509 1.327 . S
C507 H530 0.950 . S
C508 C507 1.349 . S
C508 C520 1.349 . S
C509 C507 1.327 . S
C509 C525 1.429 . S
C509 H531 0.950 . S
C510 H506 0.949 . S
C510 C518 1.574 . S
C510 C526 1.368 . S
H511 C519 0.950 . S
H512 C517 0.950 . S
H513 C518 0.949 . S
H514 C520 0.950 . S
H515 C521 0.950 . S
H516 C522 0.949 . S
C517 H512 0.950 . S
C517 C519 1.327 . S
C517 C523 1.429 . S
C518 C510 1.574 . S
C518 H513 0.949 . S
C518 C524 1.368 . S
C519 C503 1.349 . S
C519 H511 0.950 . S
C519 C517 1.327 . S
C520 C508 1.349 . S
C520 H514 0.950 . S
C520 C521 1.327 . S
C521 H515 0.950 . S
C521 C520 1.327 . S
C521 C525 1.429 . S
C522 C505 1.574 . S
C522 H516 0.949 . S
C522 C526 1.368 . S
C523 C504 1.429 . S
C523 C517 1.429 . S
C523 C524 1.523 . S
C524 C505 1.368 . S
C524 C518 1.368 . S
C524 C523 1.523 . S
C525 C509 1.429 . S
C525 C521 1.429 . S
C525 C526 1.523 . S
C526 C510 1.368 . S
C526 C522 1.368 . S
C526 C525 1.523 . S
H527 C502 0.950 . S
H528 C504 0.950 . S
H529 C505 0.949 . S
H530 C507 0.950 . S
H531 C509 0.950 . S
C532 C533 1.349 . S
C532 C534 1.327 . S
C532 H557 0.950 . S
C533 C532 1.349 . S
C533 C549 1.349 . S
C534 C532 1.327 . S
C534 C553 1.429 . S
C534 H558 0.950 . S
C535 C552 1.574 . S
C535 C554 1.368 . S
C535 H559 0.949 . S
H536 C540 0.949 . S
C537 C538 1.349 . S
C537 C539 1.327 . S
C537 H560 0.950 . S
C538 C537 1.349 . S
C538 C550 1.349 . S
C539 C537 1.327 . S
C539 C555 1.429 1_455 S
C539 H561 0.950 1_455 S
C540 H536 0.949 . S
C540 C548 1.574 . S
C540 C556 1.368 . S
H541 C549 0.950 . S
H542 C547 0.950 . S
H543 C548 0.949 . S
H544 C550 0.950 . S
H545 C551 0.950 1_655 S
H546 C552 0.949 . S
C547 H542 0.950 . S
C547 C549 1.327 . S
C547 C553 1.429 . S
C548 C540 1.574 . S
C548 H543 0.949 . S
C548 C554 1.368 . S
C549 C533 1.349 . S
C549 H541 0.950 . S
C549 C547 1.327 . S
C550 C538 1.349 . S
C550 H544 0.950 . S
C550 C551 1.327 . S
C551 H545 0.950 1_455 S
C551 C550 1.327 . S
C551 C555 1.429 1_455 S
C552 C535 1.574 . S
C552 H546 0.949 . S
C552 C556 1.368 . S
C553 C534 1.429 . S
C553 C547 1.429 . S
C553 C554 1.523 . S
C554 C535 1.368 . S
C554 C548 1.368 . S
C554 C553 1.523 . S
C555 C539 1.429 1_655 S
C555 C551 1.429 1_655 S
C555 C556 1.523 . S
C556 C540 1.368 . S
C556 C552 1.368 . S
C556 C555 1.523 . S
H557 C532 0.950 . S
H558 C534 0.950 . S
H559 C535 0.949 . S
H560 C537 0.950 . S
H561 C539 0.950 1_655 S
C562 C563 1.349 . S
C562 C564 1.327 . S
C562 H587 0.950 . S
C563 C562 1.349 . S
C563 C579 1.349 . S
C564 C562 1.327 . S
C564 C583 1.429 . S
C564 H588 0.950 . S
C565 C582 1.574 . S
C565 C584 1.368 1_554 S
C565 H589 0.949 . S
H566 C570 0.949 . S
C567 C568 1.349 1_554 S
C567 C569 1.327 . S
C567 H590 0.950 . S
C568 C567 1.349 1_556 S
C568 C580 1.349 . S
C569 C567 1.327 . S
C569 C585 1.429 1_554 S
C569 H591 0.950 . S
C570 H566 0.949 . S
C570 C578 1.574 . S
C570 C586 1.368 . S
H571 C579 0.950 1_554 S
H572 C577 0.950 1_554 S
H573 C578 0.949 . S
H574 C580 0.950 . S
H575 C581 0.950 . S
H576 C582 0.949 . S
C577 H572 0.950 1_556 S
C577 C579 1.327 . S
C577 C583 1.429 . S
C578 C570 1.574 . S
C578 H573 0.949 . S
C578 C584 1.368 . S
C579 C563 1.349 . S
C579 H571 0.950 1_556 S
C579 C577 1.327 . S
C580 C568 1.349 . S
C580 H574 0.950 . S
C580 C581 1.327 . S
C581 H575 0.950 . S
C581 C580 1.327 . S
C581 C585 1.429 . S
C582 C565 1.574 . S
C582 H576 0.949 . S
C582 C586 1.368 1_554 S
C583 C564 1.429 . S
C583 C577 1.429 . S
C583 C584 1.523 . S
C584 C565 1.368 1_556 S
C584 C578 1.368 . S
C584 C583 1.523 . S
C585 C569 1.429 1_556 S
C585 C581 1.429 . S
C585 C586 1.523 . S
C586 C570 1.368 . S
C586 C582 1.368 1_556 S
C586 C585 1.523 . S
H587 C562 0.950 . S
H588 C564 0.950 . S
H589 C565 0.949 . S
H590 C567 0.950 . S
H591 C569 0.950 . S
C592 C593 1.349 . S
C592 C594 1.327 . S
C592 H617 0.950 . S
C593 C592 1.349 . S
C593 C609 1.349 1_545 S
C594 C592 1.327 . S
C594 C613 1.429 . S
C594 H618 0.950 . S
C595 C612 1.574 . S
C595 C614 1.368 1_565 S
C595 H619 0.949 . S
H596 C600 0.949 . S
C597 C598 1.349 . S
C597 C599 1.327 . S
C597 H620 0.950 . S
C598 C597 1.349 . S
C598 C610 1.349 1_565 S
C599 C597 1.327 . S
C599 C615 1.429 1_465 S
C599 H621 0.950 1_455 S
C600 H596 0.949 . S
C600 C608 1.574 . S
C600 C616 1.368 . S
H601 C609 0.950 . S
H602 C607 0.950 . S
H603 C608 0.949 . S
H604 C610 0.950 . S
H605 C611 0.950 1_655 S
H606 C612 0.949 . S
C607 H602 0.950 . S
C607 C609 1.327 . S
C607 C613 1.429 1_565 S
C608 C600 1.574 . S
C608 H603 0.949 . S
C608 C614 1.368 . S
C609 C593 1.349 1_565 S
C609 H601 0.950 . S
C609 C607 1.327 . S
C610 C598 1.349 1_545 S
C610 H604 0.950 . S
C610 C611 1.327 . S
C611 H605 0.950 1_455 S
C611 C610 1.327 . S
C611 C615 1.429 1_455 S
C612 C595 1.574 . S
C612 H606 0.949 . S
C612 C616 1.368 1_565 S
C613 C594 1.429 . S
C613 C607 1.429 1_545 S
C613 C614 1.523 . S
C614 C595 1.368 1_545 S
C614 C608 1.368 . S
C614 C613 1.523 . S
C615 C599 1.429 1_645 S
C615 C611 1.429 1_655 S
C615 C616 1.523 . S
C616 C600 1.368 . S
C616 C612 1.368 1_545 S
C616 C615 1.523 . S
H617 C592 0.950 . S
H618 C594 0.950 . S
H619 C595 0.949 . S
H620 C597 0.950 . S
H621 C599 0.950 1_655 S
C622 C623 1.349 . S
C622 C624 1.327 . S
C622 H647 0.950 . S
C623 C622 1.349 . S
C623 C639 1.349 . S
C624 C622 1.327 . S
C624 C643 1.429 . S
C624 H648 0.950 . S
C625 C642 1.576 . S
C625 C644 1.356 1_556 S
C625 H649 0.958 . S
H626 C630 0.949 . S
C627 C628 1.349 1_556 S
C627 C629 1.327 . S
C627 H650 0.950 . S
C628 C627 1.349 1_554 S
C628 C640 1.349 . S
C629 C627 1.327 . S
C629 C645 1.429 1_556 S
C629 H651 0.950 . S
C630 H626 0.949 . S
C630 C638 1.574 . S
C630 C646 1.368 . S
H631 C639 0.936 1_556 S
H632 C637 0.950 1_556 S
H633 C638 0.949 . S
H634 C640 0.950 . S
H635 C641 0.950 . S
H636 C642 0.949 . S
C637 H632 0.950 1_554 S
C637 C639 1.327 . S
C637 C643 1.429 . S
C638 C630 1.574 . S
C638 H633 0.949 . S
C638 C644 1.368 . S
C639 C623 1.349 . S
C639 H631 0.936 1_554 S
C639 C637 1.327 . S
C640 C628 1.349 . S
C640 H634 0.950 . S
C640 C641 1.327 . S
C641 H635 0.950 . S
C641 C640 1.327 . S
C641 C645 1.429 . S
C642 C625 1.576 . S
C642 H636 0.949 . S
C642 C646 1.368 1_556 S
C643 C624 1.429 . S
C643 C637 1.429 . S
C643 C644 1.523 . S
C644 C625 1.356 1_554 S
C644 C638 1.368 . S
C644 C643 1.523 . S
C645 C629 1.429 1_554 S
C645 C641 1.429 . S
C645 C646 1.523 . S
C646 C630 1.368 . S
C646 C642 1.368 1_554 S
C646 C645 1.523 . S
H647 C622 0.950 . S
H648 C624 0.950 . S
H649 C625 0.958 . S
H650 C627 0.950 . S
H651 C629 0.950 . S
C652 C653 1.349 . S
C652 C654 1.327 . S
C652 H677 0.950 . S
C653 C652 1.349 . S
C653 C669 1.349 1_545 S
C654 C652 1.327 . S
C654 C673 1.429 1_545 S
C654 H678 0.950 . S
C655 C672 1.574 . S
C655 C674 1.368 . S
C655 H679 0.949 . S
H656 C660 0.949 . S
C657 C658 1.349 . S
C657 C659 1.327 . S
C657 H680 0.950 . S
C658 C657 1.349 . S
C658 C670 1.349 1_565 S
C659 C657 1.327 . S
C659 C675 1.429 . S
C659 H681 0.950 . S
C660 H656 0.949 . S
C660 C668 1.574 . S
C660 C676 1.368 1_545 S
H661 C669 0.950 . S
H662 C667 0.950 . S
H663 C668 0.949 . S
H664 C670 0.950 . S
H665 C671 0.950 . S
H666 C672 0.949 . S
C667 H662 0.950 . S
C667 C669 1.327 . S
C667 C673 1.429 . S
C668 C660 1.574 . S
C668 H663 0.949 . S
C668 C674 1.368 1_545 S
C669 C653 1.349 1_565 S
C669 H661 0.950 . S
C669 C667 1.327 . S
C670 C658 1.349 1_545 S
C670 H664 0.950 . S
C670 C671 1.327 . S
C671 H665 0.950 . S
C671 C670 1.327 . S
C671 C675 1.429 1_545 S
C672 C655 1.574 . S
C672 H666 0.949 . S
C672 C676 1.368 . S
C673 C654 1.429 1_565 S
C673 C667 1.429 . S
C673 C674 1.523 . S
C674 C655 1.368 . S
C674 C668 1.368 1_565 S
C674 C673 1.523 . S
C675 C659 1.429 . S
C675 C671 1.429 1_565 S
C675 C676 1.523 . S
C676 C660 1.368 1_565 S
C676 C672 1.368 . S
C676 C675 1.523 . S
H677 C652 0.950 . S
H678 C654 0.950 . S
H679 C655 0.949 . S
H680 C657 0.950 . S
H681 C659 0.950 . S
C682 C683 1.349 . S
C682 C684 1.327 . S
C682 H707 0.950 . S
C683 C682 1.349 . S
C683 C699 1.349 . S
C684 C682 1.327 . S
C684 C703 1.429 . S
C684 H708 0.950 . S
C685 C702 1.574 . S
C685 C704 1.368 . S
C685 H709 0.949 . S
H686 C690 0.949 . S
C687 C688 1.349 . S
C687 C689 1.327 . S
C687 H710 0.950 . S
C688 C687 1.349 . S
C688 C700 1.349 . S
C689 C687 1.327 . S
C689 C705 1.429 . S
C689 H711 0.950 . S
C690 H686 0.949 . S
C690 C698 1.574 . S
C690 C706 1.368 . S
H691 C699 0.950 . S
H692 C697 0.950 . S
H693 C698 0.949 . S
H694 C700 0.950 . S
H695 C701 0.950 . S
H696 C702 0.949 . S
C697 H692 0.950 . S
C697 C699 1.327 . S
C697 C703 1.429 . S
C698 C690 1.574 . S
C698 H693 0.949 . S
C698 C704 1.368 . S
C699 C683 1.349 . S
C699 H691 0.950 . S
C699 C697 1.327 . S
C700 C688 1.349 . S
C700 H694 0.950 . S
C700 C701 1.327 . S
C701 H695 0.950 . S
C701 C700 1.327 . S
C701 C705 1.429 . S
C702 C685 1.574 . S
C702 H696 0.949 . S
C702 C706 1.368 . S
C703 C684 1.429 . S
C703 C697 1.429 . S
C703 C704 1.523 . S
C704 C685 1.368 . S
C704 C698 1.368 . S
C704 C703 1.523 . S
C705 C689 1.429 . S
C705 C701 1.429 . S
C705 C706 1.523 . S
C706 C690 1.368 . S
C706 C702 1.368 . S
C706 C705 1.523 . S
H707 C682 0.950 . S
H708 C684 0.950 . S
H709 C685 0.949 . S
H710 C687 0.950 . S
H711 C689 0.950 . S
C712 C713 1.349 1_565 S
C712 C714 1.327 . S
C712 H737 0.950 . S
C713 C712 1.349 1_545 S
C713 C729 1.349 . S
C714 C712 1.327 . S
C714 C733 1.429 1_655 S
C714 H738 0.950 . S
C715 C732 1.574 . S
C715 C734 1.368 1_545 S
C715 H739 0.949 . S
H716 C720 0.949 . S
C717 C718 1.349 1_545 S
C717 C719 1.327 . S
C717 H740 0.950 . S
C718 C717 1.349 1_565 S
C718 C730 1.349 . S
C719 C717 1.327 . S
C719 C735 1.429 1_545 S
C719 H741 0.950 . S
C720 H716 0.949 . S
C720 C728 1.574 . S
C720 C736 1.368 . S
H721 C729 0.950 . S
H722 C727 0.950 1_455 S
H723 C728 0.949 . S
H724 C730 0.950 . S
H725 C731 0.950 . S
H726 C732 0.949 . S
C727 H722 0.950 1_655 S
C727 C729 1.327 . S
C727 C733 1.429 1_645 S
C728 C720 1.574 . S
C728 H723 0.949 . S
C728 C734 1.368 . S
C729 C713 1.349 . S
C729 H721 0.950 . S
C729 C727 1.327 . S
C730 C718 1.349 . S
C730 H724 0.950 . S
C730 C731 1.327 . S
C731 H725 0.950 . S
C731 C730 1.327 . S
C731 C735 1.429 . S
C732 C715 1.574 . S
C732 H726 0.949 . S
C732 C736 1.368 1_545 S
C733 C714 1.429 1_455 S
C733 C727 1.429 1_465 S
C733 C734 1.523 . S
C734 C715 1.368 1_565 S
C734 C728 1.368 . S
C734 C733 1.523 . S
C735 C719 1.429 1_565 S
C735 C731 1.429 . S
C735 C736 1.523 . S
C736 C720 1.368 . S
C736 C732 1.368 1_565 S
C736 C735 1.523 . S
H737 C712 0.950 . S
H738 C714 0.950 . S
H739 C715 0.949 . S
H740 C717 0.950 . S
H741 C719 0.950 . S
C742 C743 1.349 . S
C742 C744 1.327 . S
C742 H767 0.950 1_556 S
C743 C742 1.349 . S
C743 C759 1.349 . S
C744 C742 1.327 . S
C744 C763 1.429 . S
C744 H768 0.950 1_556 S
C745 C762 1.574 . S
C745 C764 1.368 . S
C745 H769 0.949 . S
H746 C750 0.949 . S
C747 C748 1.349 . S
C747 C749 1.327 . S
C747 H770 0.950 . S
C748 C747 1.349 . S
C748 C760 1.349 1_556 S
C749 C747 1.327 . S
C749 C765 1.429 . S
C749 H771 0.950 . S
C750 H746 0.949 . S
C750 C758 1.583 . S
C750 C766 1.368 1_554 S
H751 C759 0.950 . S
H752 C757 0.950 . S
H753 C758 0.990 . S
H754 C760 0.950 . S
H755 C761 0.950 . S
H756 C762 0.949 . S
C757 H752 0.950 . S
C757 C759 1.327 . S
C757 C763 1.429 . S
C758 C750 1.583 . S
C758 H753 0.990 . S
C758 C764 1.317 1_554 S
C759 C743 1.349 . S
C759 H751 0.950 . S
C759 C757 1.327 . S
C760 C748 1.349 1_554 S
C760 H754 0.950 . S
C760 C761 1.327 . S
C761 H755 0.950 . S
C761 C760 1.327 . S
C761 C765 1.429 1_554 S
C762 C745 1.574 . S
C762 H756 0.949 . S
C762 C766 1.368 . S
C763 C744 1.429 . S
C763 C757 1.429 . S
C763 C764 1.523 . S
C764 C745 1.368 . S
C764 C758 1.317 1_556 S
C764 C763 1.523 . S
C765 C749 1.429 . S
C765 C761 1.429 1_556 S
C765 C766 1.523 . S
C766 C750 1.368 1_556 S
C766 C762 1.368 . S
C766 C765 1.523 . S
H767 C742 0.950 1_554 S
H768 C744 0.950 1_554 S
H769 C745 0.949 . S
H770 C747 0.950 . S
H771 C749 0.950 . S
C772 C773 1.349 1_545 S
C772 C774 1.327 . S
C772 H797 0.950 . S
C773 C772 1.349 1_565 S
C773 C789 1.349 . S
C774 C772 1.327 . S
C774 C793 1.429 . S
C774 H798 0.950 . S
C775 C792 1.574 . S
C775 C794 1.368 1_565 S
C775 H799 0.949 . S
H776 C780 0.949 . S
C777 C778 1.349 1_565 S
C777 C779 1.327 . S
C777 H800 0.950 . S
C778 C777 1.349 1_545 S
C778 C790 1.349 . S
C779 C777 1.327 . S
C779 C795 1.429 1_565 S
C779 H801 0.950 . S
C780 H776 0.949 . S
C780 C788 1.574 . S
C780 C796 1.368 . S
H781 C789 0.950 . S
H782 C787 0.950 . S
H783 C788 0.949 . S
H784 C790 0.950 . S
H785 C791 0.950 . S
H786 C792 0.949 . S
C787 H782 0.950 . S
C787 C789 1.327 . S
C787 C793 1.429 1_565 S
C788 C780 1.574 . S
C788 H783 0.949 . S
C788 C794 1.368 . S
C789 C773 1.349 . S
C789 H781 0.950 . S
C789 C787 1.327 . S
C790 C778 1.349 . S
C790 H784 0.950 . S
C790 C791 1.327 . S
C791 H785 0.950 . S
C791 C790 1.327 . S
C791 C795 1.429 . S
C792 C775 1.574 . S
C792 H786 0.949 . S
C792 C796 1.368 1_565 S
C793 C774 1.429 . S
C793 C787 1.429 1_545 S
C793 C794 1.523 . S
C794 C775 1.368 1_545 S
C794 C788 1.368 . S
C794 C793 1.523 . S
C795 C779 1.429 1_545 S
C795 C791 1.429 . S
C795 C796 1.523 . S
C796 C780 1.368 . S
C796 C792 1.368 1_545 S
C796 C795 1.523 . S
H797 C772 0.950 . S
H798 C774 0.950 . S
H799 C775 0.949 . S
H800 C777 0.950 . S
H801 C779 0.950 . S
C802 C803 1.349 . S
C802 C804 1.327 . S
C802 H827 0.950 . S
C803 C802 1.349 . S
C803 C819 1.349 . S
C804 C802 1.327 . S
C804 C823 1.429 . S
C804 H828 0.950 . S
C805 C822 1.574 . S
C805 C824 1.368 . S
C805 H829 0.949 . S
H806 C810 0.949 . S
C807 C808 1.349 . S
C807 C809 1.327 . S
C807 H830 0.950 . S
C808 C807 1.349 . S
C808 C820 1.349 . S
C809 C807 1.327 . S
C809 C825 1.429 . S
C809 H831 0.950 . S
C810 H806 0.949 . S
C810 C818 1.574 . S
C810 C826 1.368 . S
H811 C819 0.950 . S
H812 C817 0.950 . S
H813 C818 0.949 . S
H814 C820 0.950 . S
H815 C821 0.950 . S
H816 C822 0.949 . S
C817 H812 0.950 . S
C817 C819 1.327 . S
C817 C823 1.429 . S
C818 C810 1.574 . S
C818 H813 0.949 . S
C818 C824 1.368 . S
C819 C803 1.349 . S
C819 H811 0.950 . S
C819 C817 1.327 . S
C820 C808 1.349 . S
C820 H814 0.950 . S
C820 C821 1.327 . S
C821 H815 0.950 . S
C821 C820 1.327 . S
C821 C825 1.429 . S
C822 C805 1.574 . S
C822 H816 0.949 . S
C822 C826 1.368 . S
C823 C804 1.429 . S
C823 C817 1.429 . S
C823 C824 1.523 . S
C824 C805 1.368 . S
C824 C818 1.368 . S
C824 C823 1.523 . S
C825 C809 1.429 . S
C825 C821 1.429 . S
C825 C826 1.523 . S
C826 C810 1.368 . S
C826 C822 1.368 . S
C826 C825 1.523 . S
H827 C802 0.950 . S
H828 C804 0.950 . S
H829 C805 0.949 . S
H830 C807 0.950 . S
H831 C809 0.950 . S
C832 C833 1.349 . S
C832 C834 1.327 . S
C832 H857 0.950 . S
C833 C832 1.349 . S
C833 C849 1.349 . S
C834 C832 1.327 . S
C834 C853 1.429 . S
C834 H858 0.950 . S
C835 C852 1.574 . S
C835 C854 1.368 . S
C835 H859 0.949 . S
H836 C840 0.949 . S
C837 C838 1.349 . S
C837 C839 1.327 . S
C837 H860 0.950 . S
C838 C837 1.349 . S
C838 C850 1.349 . S
C839 C837 1.327 . S
C839 C855 1.429 . S
C839 H861 0.950 . S
C840 H836 0.949 . S
C840 C848 1.574 . S
C840 C856 1.368 . S
H841 C849 0.950 . S
H842 C847 0.950 . S
H843 C848 0.949 . S
H844 C850 0.950 . S
H845 C851 0.950 . S
H846 C852 0.949 . S
C847 H842 0.950 . S
C847 C849 1.327 . S
C847 C853 1.429 . S
C848 C840 1.574 . S
C848 H843 0.949 . S
C848 C854 1.368 . S
C849 C833 1.349 . S
C849 H841 0.950 . S
C849 C847 1.327 . S
C850 C838 1.349 . S
C850 H844 0.950 . S
C850 C851 1.327 . S
C851 H845 0.950 . S
C851 C850 1.327 . S
C851 C855 1.429 . S
C852 C835 1.574 . S
C852 H846 0.949 . S
C852 C856 1.368 . S
C853 C834 1.429 . S
C853 C847 1.429 . S
C853 C854 1.523 . S
C854 C835 1.368 . S
C854 C848 1.368 . S
C854 C853 1.523 . S
C855 C839 1.429 . S
C855 C851 1.429 . S
C855 C856 1.523 . S
C856 C840 1.368 . S
C856 C852 1.368 . S
C856 C855 1.523 . S
H857 C832 0.950 . S
H858 C834 0.950 . S
H859 C835 0.949 . S
H860 C837 0.950 . S
H861 C839 0.950 . S
C862 C863 1.349 . S
C862 C864 1.327 . S
C862 H887 0.950 . S
C863 C862 1.349 . S
C863 C879 1.349 . S
C864 C862 1.327 . S
C864 C883 1.429 . S
C864 H888 0.950 . S
C865 C882 1.574 1_455 S
C865 C884 1.368 . S
C865 H889 0.949 . S
H866 C870 0.949 . S
C867 C868 1.349 . S
C867 C869 1.327 . S
C867 H890 0.950 . S
C868 C867 1.349 . S
C868 C880 1.349 . S
C869 C867 1.327 . S
C869 C885 1.429 . S
C869 H891 0.950 . S
C870 H866 0.949 . S
C870 C878 1.574 1_655 S
C870 C886 1.368 . S
H871 C879 0.950 . S
H872 C877 0.950 . S
H873 C878 0.949 . S
H874 C880 0.950 . S
H875 C881 0.950 . S
H876 C882 0.949 . S
C877 H872 0.950 . S
C877 C879 1.327 . S
C877 C883 1.429 . S
C878 C870 1.574 1_455 S
C878 H873 0.949 . S
C878 C884 1.368 . S
C879 C863 1.349 . S
C879 H871 0.950 . S
C879 C877 1.327 . S
C880 C868 1.349 . S
C880 H874 0.950 . S
C880 C881 1.327 . S
C881 H875 0.950 . S
C881 C880 1.327 . S
C881 C885 1.429 . S
C882 C865 1.574 1_655 S
C882 H876 0.949 . S
C882 C886 1.368 . S
C883 C864 1.429 . S
C883 C877 1.429 . S
C883 C884 1.523 . S
C884 C865 1.368 . S
C884 C878 1.368 . S
C884 C883 1.523 . S
C885 C869 1.429 . S
C885 C881 1.429 . S
C885 C886 1.523 . S
C886 C870 1.368 . S
C886 C882 1.368 . S
C886 C885 1.523 . S
H887 C862 0.950 . S
H888 C864 0.950 . S
H889 C865 0.949 . S
H890 C867 0.950 . S
H891 C869 0.950 . S
C892 C893 1.349 . S
C892 C894 1.327 . S
C892 H917 0.950 . S
C893 C892 1.349 . S
C893 C909 1.349 . S
C894 C892 1.327 . S
C894 C913 1.429 . S
C894 H918 0.950 . S
C895 C912 1.574 . S
C895 C914 1.368 . S
C895 H919 0.949 . S
H896 C900 0.949 . S
C897 C898 1.349 . S
C897 C899 1.327 . S
C897 H920 0.950 . S
C898 C897 1.349 . S
C898 C910 1.349 . S
C899 C897 1.327 . S
C899 C915 1.429 . S
C899 H921 0.950 . S
C900 H896 0.949 . S
C900 C908 1.574 . S
C900 C916 1.368 . S
H901 C909 0.950 . S
H902 C907 0.950 . S
H903 C908 0.949 . S
H904 C910 0.950 . S
H905 C911 0.950 . S
H906 C912 0.949 . S
C907 H902 0.950 . S
C907 C909 1.327 . S
C907 C913 1.429 . S
C908 C900 1.574 . S
C908 H903 0.949 . S
C908 C914 1.368 . S
C909 C893 1.349 . S
C909 H901 0.950 . S
C909 C907 1.327 . S
C910 C898 1.349 . S
C910 H904 0.950 . S
C910 C911 1.327 . S
C911 H905 0.950 . S
C911 C910 1.327 . S
C911 C915 1.429 . S
C912 C895 1.574 . S
C912 H906 0.949 . S
C912 C916 1.368 . S
C913 C894 1.429 . S
C913 C907 1.429 . S
C913 C914 1.523 . S
C914 C895 1.368 . S
C914 C908 1.368 . S
C914 C913 1.523 . S
C915 C899 1.429 . S
C915 C911 1.429 . S
C915 C916 1.523 . S
C916 C900 1.368 . S
C916 C912 1.368 . S
C916 C915 1.523 . S
H917 C892 0.950 . S
H918 C894 0.950 . S
H919 C895 0.949 . S
H920 C897 0.950 . S
H921 C899 0.950 . S
C922 C923 1.349 . S
C922 C924 1.327 . S
C922 H947 0.950 . S
C923 C922 1.349 . S
C923 C939 1.349 1_554 S
C924 C922 1.327 . S
C924 C943 1.429 . S
C924 H948 0.950 . S
C925 C942 1.574 . S
C925 C944 1.346 1_556 S
C925 H949 0.949 . S
H926 C930 0.949 . S
C927 C928 1.349 . S
C927 C929 1.327 . S
C927 H950 0.950 . S
C928 C927 1.349 . S
C928 C940 1.349 1_556 S
C929 C927 1.327 . S
C929 C945 1.429 . S
C929 H951 0.950 . S
C930 H926 0.949 . S
C930 C938 1.574 . S
C930 C946 1.346 1_554 S
H931 C939 0.950 . S
H932 C937 0.950 . S
H933 C938 0.949 . S
H934 C940 0.950 . S
H935 C941 0.950 . S
H936 C942 0.949 . S
C937 H932 0.950 . S
C937 C939 1.327 . S
C937 C943 1.429 1_556 S
C938 C930 1.574 . S
C938 H933 0.949 . S
C938 C944 1.390 . S
C939 C923 1.349 1_556 S
C939 H931 0.950 . S
C939 C937 1.327 . S
C940 C928 1.349 1_554 S
C940 H934 0.950 . S
C940 C941 1.327 . S
C941 H935 0.950 . S
C941 C940 1.327 . S
C941 C945 1.429 1_554 S
C942 C925 1.574 . S
C942 H936 0.949 . S
C942 C946 1.390 . S
C943 C924 1.429 . S
C943 C937 1.429 1_554 S
C943 C944 1.524 . S
C944 C925 1.346 1_554 S
C944 C938 1.390 . S
C944 C943 1.524 . S
C945 C929 1.429 . S
C945 C941 1.429 1_556 S
C945 C946 1.524 . S
C946 C930 1.346 1_556 S
C946 C942 1.390 . S
C946 C945 1.524 . S
H947 C922 0.950 . S
H948 C924 0.950 . S
H949 C925 0.949 . S
H950 C927 0.950 . S
H951 C929 0.950 . S
C952 C953 1.349 . S
C952 C954 1.327 . S
C952 H977 0.950 . S
C953 C952 1.349 . S
C953 C969 1.349 . S
C954 C952 1.327 . S
C954 C973 1.429 . S
C954 H978 0.950 . S
C955 C972 1.574 . S
C955 C974 1.368 . S
C955 H979 0.949 . S
H956 C960 0.949 . S
C957 C958 1.349 . S
C957 C959 1.327 . S
C957 H980 0.950 . S
C958 C957 1.349 . S
C958 C970 1.349 . S
C959 C957 1.327 . S
C959 C975 1.429 . S
C959 H981 0.950 . S
C960 H956 0.949 . S
C960 C968 1.574 . S
C960 C976 1.368 . S
H961 C969 0.950 . S
H962 C967 0.950 . S
H963 C968 0.949 . S
H964 C970 0.950 . S
H965 C971 0.950 . S
H966 C972 0.949 . S
C967 H962 0.950 . S
C967 C969 1.327 . S
C967 C973 1.429 . S
C968 C960 1.574 . S
C968 H963 0.949 . S
C968 C974 1.368 . S
C969 C953 1.349 . S
C969 H961 0.950 . S
C969 C967 1.327 . S
C970 C958 1.349 . S
C970 H964 0.950 . S
C970 C971 1.327 . S
C971 H965 0.950 . S
C971 C970 1.327 . S
C971 C975 1.429 . S
C972 C955 1.574 . S
C972 H966 0.949 . S
C972 C976 1.368 . S
C973 C954 1.429 . S
C973 C967 1.429 . S
C973 C974 1.523 . S
C974 C955 1.368 . S
C974 C968 1.368 . S
C974 C973 1.523 . S
C975 C959 1.429 . S
C975 C971 1.429 . S
C975 C976 1.523 . S
C976 C960 1.368 . S
C976 C972 1.368 . S
C976 C975 1.523 . S
H977 C952 0.950 . S
H978 C954 0.950 . S
H979 C955 0.949 . S
H980 C957 0.950 . S
H981 C959 0.950 . S
C982 C983 1.349 . S
C982 C984 1.327 . S
C982 H1007 0.950 . S
C983 C982 1.349 . S
C983 C999 1.349 . S
C984 C982 1.327 . S
C984 C1003 1.429 . S
C984 H1008 0.950 . S
C985 C1002 1.574 . S
C985 C1004 1.368 . S
C985 H1009 0.949 . S
H986 C990 0.949 . S
C987 C988 1.349 . S
C987 C989 1.327 . S
C987 H1010 0.950 . S
C988 C987 1.349 . S
C988 C1000 1.349 . S
C989 C987 1.327 . S
C989 C1005 1.429 . S
C989 H1011 0.950 . S
C990 H986 0.949 . S
C990 C998 1.574 . S
C990 C1006 1.368 . S
H991 C999 0.950 . S
H992 C997 0.950 . S
H993 C998 0.949 . S
H994 C1000 0.950 . S
H995 C1001 0.950 . S
H996 C1002 0.949 . S
C997 H992 0.950 . S
C997 C999 1.327 . S
C997 C1003 1.429 . S
C998 C990 1.574 . S
C998 H993 0.949 . S
C998 C1004 1.368 . S
C999 C983 1.349 . S
C999 H991 0.950 . S
C999 C997 1.327 . S
C1000 C988 1.349 . S
C1000 H994 0.950 . S
C1000 C1001 1.327 . S
C1001 H995 0.950 . S
C1001 C1000 1.327 . S
C1001 C1005 1.429 . S
C1002 C985 1.574 . S
C1002 H996 0.949 . S
C1002 C1006 1.368 . S
C1003 C984 1.429 . S
C1003 C997 1.429 . S
C1003 C1004 1.523 . S
C1004 C985 1.368 . S
C1004 C998 1.368 . S
C1004 C1003 1.523 . S
C1005 C989 1.429 . S
C1005 C1001 1.429 . S
C1005 C1006 1.523 . S
C1006 C990 1.368 . S
C1006 C1002 1.368 . S
C1006 C1005 1.523 . S
H1007 C982 0.950 . S
H1008 C984 0.950 . S
H1009 C985 0.949 . S
H1010 C987 0.950 . S
H1011 C989 0.950 . S
C1012 C1013 1.349 . S
C1012 C1014 1.327 . S
C1012 H1037 0.950 . S
C1013 C1012 1.349 . S
C1013 C1029 1.349 1_556 S
C1014 C1012 1.327 . S
C1014 C1033 1.429 . S
C1014 H1038 0.950 . S
C1015 C1032 1.574 . S
C1015 C1034 1.346 1_544 S
C1015 H1039 0.949 . S
H1016 C1020 0.949 . S
C1017 C1018 1.349 . S
C1017 C1019 1.327 . S
C1017 H1040 0.950 . S
C1018 C1017 1.349 . S
C1018 C1030 1.349 1_554 S
C1019 C1017 1.327 . S
C1019 C1035 1.429 . S
C1019 H1041 0.950 . S
C1020 H1016 0.949 . S
C1020 C1028 1.574 . S
C1020 C1036 1.346 1_566 S
H1021 C1029 0.950 . S
H1022 C1027 0.950 . S
H1023 C1028 0.949 . S
H1024 C1030 0.950 . S
H1025 C1031 0.950 . S
H1026 C1032 0.949 . S
C1027 H1022 0.950 . S
C1027 C1029 1.327 . S
C1027 C1033 1.429 1_554 S
C1028 C1020 1.574 . S
C1028 H1023 0.949 . S
C1028 C1034 1.390 . S
C1029 C1013 1.349 1_554 S
C1029 H1021 0.950 . S
C1029 C1027 1.327 . S
C1030 C1018 1.349 1_556 S
C1030 H1024 0.950 . S
C1030 C1031 1.327 . S
C1031 H1025 0.950 . S
C1031 C1030 1.327 . S
C1031 C1035 1.429 1_556 S
C1032 C1015 1.574 . S
C1032 H1026 0.949 . S
C1032 C1036 1.390 . S
C1033 C1014 1.429 . S
C1033 C1027 1.429 1_556 S
C1033 C1034 1.524 . S
C1034 C1015 1.346 1_566 S
C1034 C1028 1.390 . S
C1034 C1033 1.524 . S
C1035 C1019 1.429 . S
C1035 C1031 1.429 1_554 S
C1035 C1036 1.524 . S
C1036 C1020 1.346 1_544 S
C1036 C1032 1.390 . S
C1036 C1035 1.524 . S
H1037 C1012 0.950 . S
H1038 C1014 0.950 . S
H1039 C1015 0.949 . S
H1040 C1017 0.950 . S
H1041 C1019 0.950 . S
C1042 C1043 1.349 . S
C1042 C1044 1.327 . S
C1042 H1067 0.950 . S
C1043 C1042 1.349 . S
C1043 C1059 1.349 . S
C1044 C1042 1.327 . S
C1044 C1063 1.429 . S
C1044 H1068 0.950 1_565 S
C1045 C1062 1.574 1_455 S
C1045 C1064 1.368 . S
C1045 H1069 0.949 . S
H1046 C1050 0.949 . S
C1047 C1048 1.349 . S
C1047 C1049 1.327 . S
C1047 H1070 0.950 . S
C1048 C1047 1.349 . S
C1048 C1060 1.349 . S
C1049 C1047 1.327 . S
C1049 C1065 1.429 . S
C1049 H1071 0.950 1_545 S
C1050 H1046 0.949 . S
C1050 C1058 1.574 1_655 S
C1050 C1066 1.368 . S
H1051 C1059 0.950 . S
H1052 C1057 0.950 . S
H1053 C1058 0.949 . S
H1054 C1060 0.950 . S
H1055 C1061 0.950 . S
H1056 C1062 0.949 . S
C1057 H1052 0.950 . S
C1057 C1059 1.327 . S
C1057 C1063 1.429 . S
C1058 C1050 1.574 1_455 S
C1058 H1053 0.949 . S
C1058 C1064 1.368 1_545 S
C1059 C1043 1.349 . S
C1059 H1051 0.950 . S
C1059 C1057 1.327 . S
C1060 C1048 1.349 . S
C1060 H1054 0.950 . S
C1060 C1061 1.327 . S
C1061 H1055 0.950 . S
C1061 C1060 1.327 . S
C1061 C1065 1.429 . S
C1062 C1045 1.574 1_655 S
C1062 H1056 0.949 . S
C1062 C1066 1.368 1_565 S
C1063 C1044 1.429 . S
C1063 C1057 1.429 . S
C1063 C1064 1.523 . S
C1064 C1045 1.368 . S
C1064 C1058 1.368 1_565 S
C1064 C1063 1.523 . S
C1065 C1049 1.429 . S
C1065 C1061 1.429 . S
C1065 C1066 1.523 . S
C1066 C1050 1.368 . S
C1066 C1062 1.368 1_545 S
C1066 C1065 1.523 . S
H1067 C1042 0.950 . S
H1068 C1044 0.950 1_545 S
H1069 C1045 0.949 . S
H1070 C1047 0.950 . S
H1071 C1049 0.950 1_565 S
C1072 C1073 1.349 . S
C1072 C1074 1.327 . S
C1072 H1097 0.950 . S
C1073 C1072 1.349 . S
C1073 C1089 1.349 . S
C1074 C1072 1.327 . S
C1074 C1093 1.429 . S
C1074 H1098 0.950 . S
C1075 C1092 1.574 . S
C1075 C1094 1.368 . S
C1075 H1099 0.949 . S
H1076 C1080 0.949 . S
C1077 C1078 1.349 . S
C1077 C1079 1.327 . S
C1077 H1100 0.950 . S
C1078 C1077 1.349 . S
C1078 C1090 1.349 . S
C1079 C1077 1.327 . S
C1079 C1095 1.429 . S
C1079 H1101 0.950 . S
C1080 H1076 0.949 . S
C1080 C1088 1.574 . S
C1080 C1096 1.368 . S
H1081 C1089 0.950 . S
H1082 C1087 0.950 . S
H1083 C1088 0.949 . S
H1084 C1090 0.950 . S
H1085 C1091 0.950 . S
H1086 C1092 0.949 . S
C1087 H1082 0.950 . S
C1087 C1089 1.327 . S
C1087 C1093 1.429 . S
C1088 C1080 1.574 . S
C1088 H1083 0.949 . S
C1088 C1094 1.368 . S
C1089 C1073 1.349 . S
C1089 H1081 0.950 . S
C1089 C1087 1.327 . S
C1090 C1078 1.349 . S
C1090 H1084 0.950 . S
C1090 C1091 1.327 . S
C1091 H1085 0.950 . S
C1091 C1090 1.327 . S
C1091 C1095 1.429 . S
C1092 C1075 1.574 . S
C1092 H1086 0.949 . S
C1092 C1096 1.368 . S
C1093 C1074 1.429 . S
C1093 C1087 1.429 . S
C1093 C1094 1.523 . S
C1094 C1075 1.368 . S
C1094 C1088 1.368 . S
C1094 C1093 1.523 . S
C1095 C1079 1.429 . S
C1095 C1091 1.429 . S
C1095 C1096 1.523 . S
C1096 C1080 1.368 . S
C1096 C1092 1.368 . S
C1096 C1095 1.523 . S
H1097 C1072 0.950 . S
H1098 C1074 0.950 . S
H1099 C1075 0.949 . S
H1100 C1077 0.950 . S
H1101 C1079 0.950 . S
C1102 C1103 1.349 . S
C1102 C1104 1.327 . S
C1102 H1127 0.950 . S
C1103 C1102 1.349 . S
C1103 C1119 1.349 . S
C1104 C1102 1.327 . S
C1104 C1123 1.429 . S
C1104 H1128 0.950 . S
C1105 C1122 1.574 . S
C1105 C1124 1.368 . S
C1105 H1129 0.949 . S
H1106 C1110 0.949 . S
C1107 C1108 1.349 . S
C1107 C1109 1.327 . S
C1107 H1130 0.950 . S
C1108 C1107 1.349 . S
C1108 C1120 1.349 . S
C1109 C1107 1.327 . S
C1109 C1125 1.429 . S
C1109 H1131 0.950 . S
C1110 H1106 0.949 . S
C1110 C1118 1.574 . S
C1110 C1126 1.368 . S
H1111 C1119 0.950 . S
H1112 C1117 0.950 . S
H1113 C1118 0.949 . S
H1114 C1120 0.950 . S
H1115 C1121 0.950 . S
H1116 C1122 0.949 . S
C1117 H1112 0.950 . S
C1117 C1119 1.327 . S
C1117 C1123 1.429 . S
C1118 C1110 1.574 . S
C1118 H1113 0.949 . S
C1118 C1124 1.368 . S
C1119 C1103 1.349 . S
C1119 H1111 0.950 . S
C1119 C1117 1.327 . S
C1120 C1108 1.349 . S
C1120 H1114 0.950 . S
C1120 C1121 1.327 . S
C1121 H1115 0.950 . S
C1121 C1120 1.327 . S
C1121 C1125 1.429 . S
C1122 C1105 1.574 . S
C1122 H1116 0.949 . S
C1122 C1126 1.368 . S
C1123 C1104 1.429 . S
C1123 C1117 1.429 . S
C1123 C1124 1.523 . S
C1124 C1105 1.368 . S
C1124 C1118 1.368 . S
C1124 C1123 1.523 . S
C1125 C1109 1.429 . S
C1125 C1121 1.429 . S
C1125 C1126 1.523 . S
C1126 C1110 1.368 . S
C1126 C1122 1.368 . S
C1126 C1125 1.523 . S
H1127 C1102 0.950 . S
H1128 C1104 0.950 . S
H1129 C1105 0.949 . S
H1130 C1107 0.950 . S
H1131 C1109 0.950 . S
C1132 C1133 1.349 . S
C1132 C1134 1.327 . S
C1132 H1157 0.950 . S
C1133 C1132 1.349 . S
C1133 C1149 1.349 . S
C1134 C1132 1.327 . S
C1134 C1153 1.429 . S
C1134 H1158 0.950 . S
C1135 C1152 1.574 . S
C1135 C1154 1.368 . S
C1135 H1159 0.949 . S
H1136 C1140 0.949 . S
C1137 C1138 1.349 . S
C1137 C1139 1.327 . S
C1137 H1160 0.950 . S
C1138 C1137 1.349 . S
C1138 C1150 1.349 . S
C1139 C1137 1.327 . S
C1139 C1155 1.429 . S
C1139 H1161 0.950 . S
C1140 H1136 0.949 . S
C1140 C1148 1.574 . S
C1140 C1156 1.368 . S
H1141 C1149 0.950 . S
H1142 C1147 0.950 . S
H1143 C1148 0.949 . S
H1144 C1150 0.950 . S
H1145 C1151 0.950 . S
H1146 C1152 0.949 . S
C1147 H1142 0.950 . S
C1147 C1149 1.327 . S
C1147 C1153 1.429 . S
C1148 C1140 1.574 . S
C1148 H1143 0.949 . S
C1148 C1154 1.368 . S
C1149 C1133 1.349 . S
C1149 H1141 0.950 . S
C1149 C1147 1.327 . S
C1150 C1138 1.349 . S
C1150 H1144 0.950 . S
C1150 C1151 1.327 . S
C1151 H1145 0.950 . S
C1151 C1150 1.327 . S
C1151 C1155 1.429 . S
C1152 C1135 1.574 . S
C1152 H1146 0.949 . S
C1152 C1156 1.368 . S
C1153 C1134 1.429 . S
C1153 C1147 1.429 . S
C1153 C1154 1.523 . S
C1154 C1135 1.368 . S
C1154 C1148 1.368 . S
C1154 C1153 1.523 . S
C1155 C1139 1.429 . S
C1155 C1151 1.429 . S
C1155 C1156 1.523 . S
C1156 C1140 1.368 . S
C1156 C1152 1.368 . S
C1156 C1155 1.523 . S
H1157 C1132 0.950 . S
H1158 C1134 0.950 . S
H1159 C1135 0.949 . S
H1160 C1137 0.950 . S
H1161 C1139 0.950 . S
C1162 C1163 1.349 . S
C1162 C1164 1.327 . S
C1162 H1187 0.950 . S
C1163 C1162 1.349 . S
C1163 C1179 1.349 . S
C1164 C1162 1.327 . S
C1164 C1183 1.429 . S
C1164 H1188 0.950 . S
C1165 C1182 1.574 . S
C1165 C1184 1.368 . S
C1165 H1189 0.949 . S
H1166 C1170 0.949 . S
C1167 C1168 1.349 . S
C1167 C1169 1.327 . S
C1167 H1190 0.950 . S
C1168 C1167 1.349 . S
C1168 C1180 1.349 . S
C1169 C1167 1.327 . S
C1169 C1185 1.429 . S
C1169 H1191 0.950 . S
C1170 H1166 0.949 . S
C1170 C1178 1.574 . S
C1170 C1186 1.368 . S
H1171 C1179 0.950 . S
H1172 C1177 0.950 . S
H1173 C1178 0.949 . S
H1174 C1180 0.950 . S
H1175 C1181 0.950 . S
H1176 C1182 0.949 . S
C1177 H1172 0.950 . S
C1177 C1179 1.327 . S
C1177 C1183 1.429 . S
C1178 C1170 1.574 . S
C1178 H1173 0.949 . S
C1178 C1184 1.368 . S
C1179 C1163 1.349 . S
C1179 H1171 0.950 . S
C1179 C1177 1.327 . S
C1180 C1168 1.349 . S
C1180 H1174 0.950 . S
C1180 C1181 1.327 . S
C1181 H1175 0.950 . S
C1181 C1180 1.327 . S
C1181 C1185 1.429 . S
C1182 C1165 1.574 . S
C1182 H1176 0.949 . S
C1182 C1186 1.368 . S
C1183 C1164 1.429 . S
C1183 C1177 1.429 . S
C1183 C1184 1.523 . S
C1184 C1165 1.368 . S
C1184 C1178 1.368 . S
C1184 C1183 1.523 . S
C1185 C1169 1.429 . S
C1185 C1181 1.429 . S
C1185 C1186 1.523 . S
C1186 C1170 1.368 . S
C1186 C1182 1.368 . S
C1186 C1185 1.523 . S
H1187 C1162 0.950 . S
H1188 C1164 0.950 . S
H1189 C1165 0.949 . S
H1190 C1167 0.950 . S
H1191 C1169 0.950 . S
C1192 C1193 1.349 . S
C1192 C1194 1.327 . S
C1192 H1217 0.950 . S
C1193 C1192 1.349 . S
C1193 C1209 1.349 . S
C1194 C1192 1.327 . S
C1194 C1213 1.429 . S
C1194 H1218 0.950 . S
C1195 C1212 1.574 . S
C1195 C1214 1.368 . S
C1195 H1219 0.949 . S
H1196 C1200 0.949 . S
C1197 C1198 1.349 . S
C1197 C1199 1.327 . S
C1197 H1220 0.950 . S
C1198 C1197 1.349 . S
C1198 C1210 1.349 . S
C1199 C1197 1.327 . S
C1199 C1215 1.429 . S
C1199 H1221 0.950 . S
C1200 H1196 0.949 . S
C1200 C1208 1.574 . S
C1200 C1216 1.368 . S
H1201 C1209 0.950 . S
H1202 C1207 0.950 . S
H1203 C1208 0.949 . S
H1204 C1210 0.950 . S
H1205 C1211 0.950 . S
H1206 C1212 0.949 . S
C1207 H1202 0.950 . S
C1207 C1209 1.327 . S
C1207 C1213 1.429 . S
C1208 C1200 1.574 . S
C1208 H1203 0.949 . S
C1208 C1214 1.368 . S
C1209 C1193 1.349 . S
C1209 H1201 0.950 . S
C1209 C1207 1.327 . S
C1210 C1198 1.349 . S
C1210 H1204 0.950 . S
C1210 C1211 1.327 . S
C1211 H1205 0.950 . S
C1211 C1210 1.327 . S
C1211 C1215 1.429 . S
C1212 C1195 1.574 . S
C1212 H1206 0.949 . S
C1212 C1216 1.368 . S
C1213 C1194 1.429 . S
C1213 C1207 1.429 . S
C1213 C1214 1.523 . S
C1214 C1195 1.368 . S
C1214 C1208 1.368 . S
C1214 C1213 1.523 . S
C1215 C1199 1.429 . S
C1215 C1211 1.429 . S
C1215 C1216 1.523 . S
C1216 C1200 1.368 . S
C1216 C1212 1.368 . S
C1216 C1215 1.523 . S
H1217 C1192 0.950 . S
H1218 C1194 0.950 . S
H1219 C1195 0.949 . S
H1220 C1197 0.950 . S
H1221 C1199 0.950 . S
C1222 C1223 1.349 . S
C1222 C1224 1.327 . S
C1222 H1247 0.950 . S
C1223 C1222 1.349 . S
C1223 C1239 1.349 . S
C1224 C1222 1.327 . S
C1224 C1243 1.429 . S
C1224 H1248 0.950 . S
C1225 C1242 1.574 . S
C1225 C1244 1.368 . S
C1225 H1249 0.949 . S
H1226 C1230 0.949 . S
C1227 C1228 1.349 . S
C1227 C1229 1.327 . S
C1227 H1250 0.950 . S
C1228 C1227 1.349 . S
C1228 C1240 1.349 . S
C1229 C1227 1.327 . S
C1229 C1245 1.429 . S
C1229 H1251 0.950 . S
C1230 H1226 0.949 . S
C1230 C1238 1.574 . S
C1230 C1246 1.368 . S
H1231 C1239 0.950 . S
H1232 C1237 0.950 . S
H1233 C1238 0.949 . S
H1234 C1240 0.950 . S
H1235 C1241 0.950 . S
H1236 C1242 0.949 . S
C1237 H1232 0.950 . S
C1237 C1239 1.327 . S
C1237 C1243 1.429 . S
C1238 C1230 1.574 . S
C1238 H1233 0.949 . S
C1238 C1244 1.368 . S
C1239 C1223 1.349 . S
C1239 H1231 0.950 . S
C1239 C1237 1.327 . S
C1240 C1228 1.349 . S
C1240 H1234 0.950 . S
C1240 C1241 1.327 . S
C1241 H1235 0.950 . S
C1241 C1240 1.327 . S
C1241 C1245 1.429 . S
C1242 C1225 1.574 . S
C1242 H1236 0.949 . S
C1242 C1246 1.368 . S
C1243 C1224 1.429 . S
C1243 C1237 1.429 . S
C1243 C1244 1.523 . S
C1244 C1225 1.368 . S
C1244 C1238 1.368 . S
C1244 C1243 1.523 . S
C1245 C1229 1.429 . S
C1245 C1241 1.429 . S
C1245 C1246 1.523 . S
C1246 C1230 1.368 . S
C1246 C1242 1.368 . S
C1246 C1245 1.523 . S
H1247 C1222 0.950 . S
H1248 C1224 0.950 . S
H1249 C1225 0.949 . S
H1250 C1227 0.950 . S
H1251 C1229 0.950 . S
C1252 C1253 1.349 . S
C1252 C1254 1.327 . S
C1252 H1277 0.950 . S
C1253 C1252 1.349 . S
C1253 C1269 1.349 . S
C1254 C1252 1.327 . S
C1254 C1273 1.429 . S
C1254 H1278 0.950 . S
C1255 C1272 1.574 . S
C1255 C1274 1.368 . S
C1255 H1279 0.949 . S
H1256 C1260 0.949 . S
C1257 C1258 1.349 . S
C1257 C1259 1.327 . S
C1257 H1280 0.950 . S
C1258 C1257 1.349 . S
C1258 C1270 1.349 . S
C1259 C1257 1.327 . S
C1259 C1275 1.429 . S
C1259 H1281 0.950 . S
C1260 H1256 0.949 . S
C1260 C1268 1.574 . S
C1260 C1276 1.368 . S
H1261 C1269 0.950 . S
H1262 C1267 0.950 . S
H1263 C1268 0.949 . S
H1264 C1270 0.950 . S
H1265 C1271 0.950 . S
H1266 C1272 0.949 . S
C1267 H1262 0.950 . S
C1267 C1269 1.327 . S
C1267 C1273 1.429 . S
C1268 C1260 1.574 . S
C1268 H1263 0.949 . S
C1268 C1274 1.368 . S
C1269 C1253 1.349 . S
C1269 H1261 0.950 . S
C1269 C1267 1.327 . S
C1270 C1258 1.349 . S
C1270 H1264 0.950 . S
C1270 C1271 1.327 . S
C1271 H1265 0.950 . S
C1271 C1270 1.327 . S
C1271 C1275 1.429 . S
C1272 C1255 1.574 . S
C1272 H1266 0.949 . S
C1272 C1276 1.368 . S
C1273 C1254 1.429 . S
C1273 C1267 1.429 . S
C1273 C1274 1.523 . S
C1274 C1255 1.368 . S
C1274 C1268 1.368 . S
C1274 C1273 1.523 . S
C1275 C1259 1.429 . S
C1275 C1271 1.429 . S
C1275 C1276 1.523 . S
C1276 C1260 1.368 . S
C1276 C1272 1.368 . S
C1276 C1275 1.523 . S
H1277 C1252 0.950 . S
H1278 C1254 0.950 . S
H1279 C1255 0.949 . S
H1280 C1257 0.950 . S
H1281 C1259 0.950 . S
C1282 C1283 1.349 . S
C1282 C1284 1.327 . S
C1282 H1307 0.950 . S
C1283 C1282 1.349 . S
C1283 C1299 1.349 . S
C1284 C1282 1.327 . S
C1284 C1303 1.429 . S
C1284 H1308 0.950 . S
C1285 C1302 1.574 . S
C1285 C1304 1.368 . S
C1285 H1309 0.949 . S
H1286 C1290 0.949 . S
C1287 C1288 1.349 . S
C1287 C1289 1.327 . S
C1287 H1310 0.950 . S
C1288 C1287 1.349 . S
C1288 C1300 1.349 . S
C1289 C1287 1.327 . S
C1289 C1305 1.429 . S
C1289 H1311 0.950 . S
C1290 H1286 0.949 . S
C1290 C1298 1.574 . S
C1290 C1306 1.368 . S
H1291 C1299 0.950 . S
H1292 C1297 0.950 . S
H1293 C1298 0.949 . S
H1294 C1300 0.950 . S
H1295 C1301 0.950 . S
H1296 C1302 0.949 . S
C1297 H1292 0.950 . S
C1297 C1299 1.327 . S
C1297 C1303 1.429 . S
C1298 C1290 1.574 . S
C1298 H1293 0.949 . S
C1298 C1304 1.368 . S
C1299 C1283 1.349 . S
C1299 H1291 0.950 . S
C1299 C1297 1.327 . S
C1300 C1288 1.349 . S
C1300 H1294 0.950 . S
C1300 C1301 1.327 . S
C1301 H1295 0.950 . S
C1301 C1300 1.327 . S
C1301 C1305 1.429 . S
C1302 C1285 1.574 . S
C1302 H1296 0.949 . S
C1302 C1306 1.368 . S
C1303 C1284 1.429 . S
C1303 C1297 1.429 . S
C1303 C1304 1.523 . S
C1304 C1285 1.368 . S
C1304 C1298 1.368 . S
C1304 C1303 1.523 . S
C1305 C1289 1.429 . S
C1305 C1301 1.429 . S
C1305 C1306 1.523 . S
C1306 C1290 1.368 . S
C1306 C1302 1.368 . S
C1306 C1305 1.523 . S
H1307 C1282 0.950 . S
H1308 C1284 0.950 . S
H1309 C1285 0.949 . S
H1310 C1287 0.950 . S
H1311 C1289 0.950 . S
C1312 C1313 1.349 . S
C1312 C1314 1.327 . S
C1312 H1337 0.950 . S
C1313 C1312 1.349 . S
C1313 C1329 1.349 1_565 S
C1314 C1312 1.327 . S
C1314 C1333 1.429 . S
C1314 H1338 0.950 . S
C1315 C1332 1.574 . S
C1315 C1334 1.368 . S
C1315 H1339 0.949 1_565 S
H1316 C1320 0.949 . S
C1317 C1318 1.349 . S
C1317 C1319 1.327 . S
C1317 H1340 0.950 . S
C1318 C1317 1.349 . S
C1318 C1330 1.349 . S
C1319 C1317 1.327 . S
C1319 C1335 1.429 . S
C1319 H1341 0.950 . S
C1320 H1316 0.949 . S
C1320 C1328 1.574 . S
C1320 C1336 1.368 . S
H1321 C1329 0.950 . S
H1322 C1327 0.950 . S
H1323 C1328 0.949 . S
H1324 C1330 0.950 . S
H1325 C1331 0.950 . S
H1326 C1332 0.949 1_545 S
C1327 H1322 0.950 . S
C1327 C1329 1.327 . S
C1327 C1333 1.429 1_545 S
C1328 C1320 1.574 . S
C1328 H1323 0.949 . S
C1328 C1334 1.368 . S
C1329 C1313 1.349 1_545 S
C1329 H1321 0.950 . S
C1329 C1327 1.327 . S
C1330 C1318 1.349 . S
C1330 H1324 0.950 . S
C1330 C1331 1.327 . S
C1331 H1325 0.950 . S
C1331 C1330 1.327 . S
C1331 C1335 1.429 . S
C1332 C1315 1.574 . S
C1332 H1326 0.949 1_565 S
C1332 C1336 1.368 . S
C1333 C1314 1.429 . S
C1333 C1327 1.429 1_565 S
C1333 C1334 1.523 . S
C1334 C1315 1.368 . S
C1334 C1328 1.368 . S
C1334 C1333 1.523 . S
C1335 C1319 1.429 . S
C1335 C1331 1.429 . S
C1335 C1336 1.523 . S
C1336 C1320 1.368 . S
C1336 C1332 1.368 . S
C1336 C1335 1.523 . S
H1337 C1312 0.950 . S
H1338 C1314 0.950 . S
H1339 C1315 0.949 1_545 S
H1340 C1317 0.950 . S
H1341 C1319 0.950 . S
C1342 C1343 1.349 . S
C1342 C1344 1.327 . S
C1342 H1367 0.950 . S
C1343 C1342 1.349 . S
C1343 C1359 1.349 . S
C1344 C1342 1.327 . S
C1344 C1363 1.429 . S
C1344 H1368 0.950 . S
C1345 C1362 1.574 . S
C1345 C1364 1.368 . S
C1345 H1369 0.949 . S
H1346 C1350 0.949 . S
C1347 C1348 1.349 1_545 S
C1347 C1349 1.327 1_545 S
C1347 H1370 0.950 . S
C1348 C1347 1.349 1_565 S
C1348 C1360 1.349 . S
C1349 C1347 1.327 1_565 S
C1349 C1365 1.429 . S
C1349 H1371 0.950 1_565 S
C1350 H1346 0.949 . S
C1350 C1358 1.574 . S
C1350 C1366 1.368 . S
H1351 C1359 0.950 . S
H1352 C1357 0.950 . S
H1353 C1358 0.949 . S
H1354 C1360 0.950 . S
H1355 C1361 0.950 . S
H1356 C1362 0.949 1_545 S
C1357 H1352 0.950 . S
C1357 C1359 1.327 . S
C1357 C1363 1.429 . S
C1358 C1350 1.574 . S
C1358 H1353 0.949 . S
C1358 C1364 1.368 . S
C1359 C1343 1.349 . S
C1359 H1351 0.950 . S
C1359 C1357 1.327 . S
C1360 C1348 1.349 . S
C1360 H1354 0.950 . S
C1360 C1361 1.327 . S
C1361 H1355 0.950 . S
C1361 C1360 1.327 . S
C1361 C1365 1.429 . S
C1362 C1345 1.574 . S
C1362 H1356 0.949 1_565 S
C1362 C1366 1.368 . S
C1363 C1344 1.429 . S
C1363 C1357 1.429 . S
C1363 C1364 1.523 . S
C1364 C1345 1.368 . S
C1364 C1358 1.368 . S
C1364 C1363 1.523 . S
C1365 C1349 1.429 . S
C1365 C1361 1.429 . S
C1365 C1366 1.523 . S
C1366 C1350 1.368 . S
C1366 C1362 1.368 . S
C1366 C1365 1.523 . S
H1367 C1342 0.950 . S
H1368 C1344 0.950 . S
H1369 C1345 0.949 . S
H1370 C1347 0.950 . S
H1371 C1349 0.950 1_545 S
C1372 C1373 1.349 . S
C1372 C1374 1.327 . S
C1372 H1397 0.950 . S
C1373 C1372 1.349 . S
C1373 C1389 1.349 . S
C1374 C1372 1.327 . S
C1374 C1393 1.429 . S
C1374 H1398 0.950 . S
C1375 C1392 1.574 . S
C1375 C1394 1.368 . S
C1375 H1399 0.949 . S
H1376 C1380 0.949 . S
C1377 C1378 1.349 1_565 S
C1377 C1379 1.327 . S
C1377 H1400 0.950 . S
C1378 C1377 1.349 1_545 S
C1378 C1390 1.349 . S
C1379 C1377 1.327 . S
C1379 C1395 1.429 1_565 S
C1379 H1401 0.950 . S
C1380 H1376 0.949 . S
C1380 C1388 1.574 . S
C1380 C1396 1.368 . S
H1381 C1389 0.950 . S
H1382 C1387 0.950 . S
H1383 C1388 0.949 . S
H1384 C1390 0.950 . S
H1385 C1391 0.950 . S
H1386 C1392 0.949 1_565 S
C1387 H1382 0.950 . S
C1387 C1389 1.327 . S
C1387 C1393 1.429 . S
C1388 C1380 1.574 . S
C1388 H1383 0.949 . S
C1388 C1394 1.368 . S
C1389 C1373 1.349 . S
C1389 H1381 0.950 . S
C1389 C1387 1.327 . S
C1390 C1378 1.349 . S
C1390 H1384 0.950 . S
C1390 C1391 1.327 . S
C1391 H1385 0.950 . S
C1391 C1390 1.327 . S
C1391 C1395 1.429 . S
C1392 C1375 1.574 . S
C1392 H1386 0.949 1_545 S
C1392 C1396 1.368 . S
C1393 C1374 1.429 . S
C1393 C1387 1.429 . S
C1393 C1394 1.523 . S
C1394 C1375 1.368 . S
C1394 C1388 1.368 . S
C1394 C1393 1.523 . S
C1395 C1379 1.429 1_545 S
C1395 C1391 1.429 . S
C1395 C1396 1.523 . S
C1396 C1380 1.368 . S
C1396 C1392 1.368 . S
C1396 C1395 1.523 . S
H1397 C1372 0.950 . S
H1398 C1374 0.950 . S
H1399 C1375 0.949 . S
H1400 C1377 0.950 . S
H1401 C1379 0.950 . S
C1402 C1403 1.349 . S
C1402 C1404 1.327 . S
C1402 H1427 0.950 . S
C1403 C1402 1.349 . S
C1403 C1419 1.349 . S
C1404 C1402 1.327 . S
C1404 C1423 1.429 . S
C1404 H1428 0.950 . S
C1405 C1422 1.574 . S
C1405 C1424 1.368 . S
C1405 H1429 0.949 . S
H1406 C1410 0.967 . S
C1407 C1408 1.349 . S
C1407 C1409 1.327 . S
C1407 H1430 0.950 . S
C1408 C1407 1.349 . S
C1408 C1420 1.330 1_545 S
C1409 C1407 1.327 . S
C1409 C1425 1.429 . S
C1409 H1431 0.950 . S
C1410 H1406 0.967 . S
C1410 C1418 1.574 . S
C1410 C1426 1.368 . S
H1411 C1419 0.950 . S
H1412 C1417 0.950 . S
H1413 C1418 0.949 . S
H1414 C1420 0.975 . S
H1415 C1421 0.950 1_565 S
H1416 C1422 0.949 . S
C1417 H1412 0.950 . S
C1417 C1419 1.327 . S
C1417 C1423 1.429 . S
C1418 C1410 1.574 . S
C1418 H1413 0.949 . S
C1418 C1424 1.368 . S
C1419 C1403 1.349 . S
C1419 H1411 0.950 . S
C1419 C1417 1.327 . S
C1420 C1408 1.330 1_565 S
C1420 H1414 0.975 . S
C1420 C1421 1.321 1_565 S
C1421 H1415 0.950 1_545 S
C1421 C1420 1.321 1_545 S
C1421 C1425 1.429 . S
C1422 C1405 1.574 . S
C1422 H1416 0.949 . S
C1422 C1426 1.368 . S
C1423 C1404 1.429 . S
C1423 C1417 1.429 . S
C1423 C1424 1.523 . S
C1424 C1405 1.368 . S
C1424 C1418 1.368 . S
C1424 C1423 1.523 . S
C1425 C1409 1.429 . S
C1425 C1421 1.429 . S
C1425 C1426 1.523 . S
C1426 C1410 1.368 . S
C1426 C1422 1.368 . S
C1426 C1425 1.523 . S
H1427 C1402 0.950 . S
H1428 C1404 0.950 . S
H1429 C1405 0.949 . S
H1430 C1407 0.950 . S
H1431 C1409 0.950 . S
C1432 C1433 1.349 . S
C1432 C1434 1.327 . S
C1432 H1457 0.950 . S
C1433 C1432 1.349 . S
C1433 C1449 1.349 . S
C1434 C1432 1.327 . S
C1434 C1453 1.429 . S
C1434 H1458 0.950 . S
C1435 C1452 1.574 . S
C1435 C1454 1.368 . S
C1435 H1459 0.949 . S
H1436 C1440 0.949 1_565 S
C1437 C1438 1.349 . S
C1437 C1439 1.327 . S
C1437 H1460 0.950 . S
C1438 C1437 1.349 . S
C1438 C1450 1.349 1_545 S
C1439 C1437 1.327 . S
C1439 C1455 1.429 . S
C1439 H1461 0.950 . S
C1440 H1436 0.949 1_545 S
C1440 C1448 1.574 . S
C1440 C1456 1.368 . S
H1441 C1449 0.950 . S
H1442 C1447 0.950 . S
H1443 C1448 0.949 1_565 S
H1444 C1450 0.950 . S
H1445 C1451 0.950 . S
H1446 C1452 0.949 . S
C1447 H1442 0.950 . S
C1447 C1449 1.327 . S
C1447 C1453 1.429 . S
C1448 C1440 1.574 . S
C1448 H1443 0.949 1_545 S
C1448 C1454 1.368 . S
C1449 C1433 1.349 . S
C1449 H1441 0.950 . S
C1449 C1447 1.327 . S
C1450 C1438 1.349 1_565 S
C1450 H1444 0.950 . S
C1450 C1451 1.327 . S
C1451 H1445 0.950 . S
C1451 C1450 1.327 . S
C1451 C1455 1.429 1_565 S
C1452 C1435 1.574 . S
C1452 H1446 0.949 . S
C1452 C1456 1.368 . S
C1453 C1434 1.429 . S
C1453 C1447 1.429 . S
C1453 C1454 1.523 . S
C1454 C1435 1.368 . S
C1454 C1448 1.368 . S
C1454 C1453 1.523 . S
C1455 C1439 1.429 . S
C1455 C1451 1.429 1_545 S
C1455 C1456 1.523 . S
C1456 C1440 1.368 . S
C1456 C1452 1.368 . S
C1456 C1455 1.523 . S
H1457 C1432 0.950 . S
H1458 C1434 0.950 . S
H1459 C1435 0.949 . S
H1460 C1437 0.950 . S
H1461 C1439 0.950 . S
C1462 C1463 1.349 . S
C1462 C1464 1.327 . S
C1462 H1487 0.950 . S
C1463 C1462 1.349 . S
C1463 C1479 1.349 . S
C1464 C1462 1.327 . S
C1464 C1483 1.429 . S
C1464 H1488 0.950 . S
C1465 C1482 1.574 . S
C1465 C1484 1.368 . S
C1465 H1489 0.949 . S
H1466 C1470 0.949 . S
C1467 C1468 1.328 1_565 S
C1467 C1469 1.321 1_565 S
C1467 H1490 0.978 . S
C1468 C1467 1.328 1_545 S
C1468 C1480 1.349 . S
C1469 C1467 1.321 1_545 S
C1469 C1485 1.429 . S
C1469 H1491 0.950 1_545 S
C1470 H1466 0.949 . S
C1470 C1478 1.574 . S
C1470 C1486 1.368 . S
H1471 C1479 0.950 . S
H1472 C1477 0.950 . S
H1473 C1478 0.949 . S
H1474 C1480 0.950 . S
H1475 C1481 0.950 . S
H1476 C1482 0.962 . S
C1477 H1472 0.950 . S
C1477 C1479 1.327 . S
C1477 C1483 1.429 . S
C1478 C1470 1.574 . S
C1478 H1473 0.949 . S
C1478 C1484 1.368 . S
C1479 C1463 1.349 . S
C1479 H1471 0.950 . S
C1479 C1477 1.327 . S
C1480 C1468 1.349 . S
C1480 H1474 0.950 . S
C1480 C1481 1.327 . S
C1481 H1475 0.950 . S
C1481 C1480 1.327 . S
C1481 C1485 1.429 . S
C1482 C1465 1.574 . S
C1482 H1476 0.962 . S
C1482 C1486 1.368 . S
C1483 C1464 1.429 . S
C1483 C1477 1.429 . S
C1483 C1484 1.523 . S
C1484 C1465 1.368 . S
C1484 C1478 1.368 . S
C1484 C1483 1.523 . S
C1485 C1469 1.429 . S
C1485 C1481 1.429 . S
C1485 C1486 1.523 . S
C1486 C1470 1.368 . S
C1486 C1482 1.368 . S
C1486 C1485 1.523 . S
H1487 C1462 0.950 . S
H1488 C1464 0.950 . S
H1489 C1465 0.949 . S
H1490 C1467 0.978 . S
H1491 C1469 0.950 1_565 S
C1492 C1493 1.349 1_545 S
C1492 C1494 1.327 . S
C1492 H1517 0.950 . S
C1493 C1492 1.349 1_565 S
C1493 C1509 1.349 . S
C1494 C1492 1.327 . S
C1494 C1513 1.429 1_545 S
C1494 H1518 0.950 . S
C1495 C1512 1.574 . S
C1495 C1514 1.368 . S
C1495 H1519 0.949 . S
H1496 C1500 0.949 . S
C1497 C1498 1.349 . S
C1497 C1499 1.327 . S
C1497 H1520 0.950 . S
C1498 C1497 1.349 . S
C1498 C1510 1.349 . S
C1499 C1497 1.327 . S
C1499 C1515 1.429 . S
C1499 H1521 0.950 . S
C1500 H1496 0.949 . S
C1500 C1508 1.574 . S
C1500 C1516 1.368 . S
H1501 C1509 0.950 . S
H1502 C1507 0.950 . S
H1503 C1508 0.949 1_545 S
H1504 C1510 0.950 . S
H1505 C1511 0.950 . S
H1506 C1512 0.949 . S
C1507 H1502 0.950 . S
C1507 C1509 1.327 . S
C1507 C1513 1.429 . S
C1508 C1500 1.574 . S
C1508 H1503 0.949 1_565 S
C1508 C1514 1.368 . S
C1509 C1493 1.349 . S
C1509 H1501 0.950 . S
C1509 C1507 1.327 . S
C1510 C1498 1.349 . S
C1510 H1504 0.950 . S
C1510 C1511 1.327 . S
C1511 H1505 0.950 . S
C1511 C1510 1.327 . S
C1511 C1515 1.429 . S
C1512 C1495 1.574 . S
C1512 H1506 0.949 . S
C1512 C1516 1.368 . S
C1513 C1494 1.429 1_565 S
C1513 C1507 1.429 . S
C1513 C1514 1.523 . S
C1514 C1495 1.368 . S
C1514 C1508 1.368 . S
C1514 C1513 1.523 . S
C1515 C1499 1.429 . S
C1515 C1511 1.429 . S
C1515 C1516 1.523 . S
C1516 C1500 1.368 . S
C1516 C1512 1.368 . S
C1516 C1515 1.523 . S
H1517 C1492 0.950 . S
H1518 C1494 0.950 . S
H1519 C1495 0.949 . S
H1520 C1497 0.950 . S
H1521 C1499 0.950 . S
C1522 C1523 1.349 . S
C1522 C1524 1.327 . S
C1522 H1547 0.950 . S
C1523 C1522 1.349 . S
C1523 C1539 1.349 . S
C1524 C1522 1.327 . S
C1524 C1543 1.429 . S
C1524 H1548 0.950 . S
C1525 C1542 1.574 . S
C1525 C1544 1.368 . S
C1525 H1549 0.949 . S
H1526 C1530 0.949 . S
C1527 C1528 1.349 . S
C1527 C1529 1.327 . S
C1527 H1550 0.950 . S
C1528 C1527 1.349 . S
C1528 C1540 1.349 . S
C1529 C1527 1.327 . S
C1529 C1545 1.429 . S
C1529 H1551 0.950 . S
C1530 H1526 0.949 . S
C1530 C1538 1.574 . S
C1530 C1546 1.368 . S
H1531 C1539 0.950 1_545 S
H1532 C1537 0.950 . S
H1533 C1538 0.949 . S
H1534 C1540 0.950 . S
H1535 C1541 0.950 . S
H1536 C1542 0.949 . S
C1537 H1532 0.950 . S
C1537 C1539 1.327 . S
C1537 C1543 1.429 . S
C1538 C1530 1.574 . S
C1538 H1533 0.949 . S
C1538 C1544 1.368 . S
C1539 C1523 1.349 . S
C1539 H1531 0.950 1_565 S
C1539 C1537 1.327 . S
C1540 C1528 1.349 . S
C1540 H1534 0.950 . S
C1540 C1541 1.327 . S
C1541 H1535 0.950 . S
C1541 C1540 1.327 . S
C1541 C1545 1.429 . S
C1542 C1525 1.574 . S
C1542 H1536 0.949 . S
C1542 C1546 1.368 . S
C1543 C1524 1.429 . S
C1543 C1537 1.429 . S
C1543 C1544 1.523 . S
C1544 C1525 1.368 . S
C1544 C1538 1.368 . S
C1544 C1543 1.523 . S
C1545 C1529 1.429 . S
C1545 C1541 1.429 . S
C1545 C1546 1.523 . S
C1546 C1530 1.368 . S
C1546 C1542 1.368 . S
C1546 C1545 1.523 . S
H1547 C1522 0.950 . S
H1548 C1524 0.950 . S
H1549 C1525 0.949 . S
H1550 C1527 0.950 . S
H1551 C1529 0.950 . S
C1552 C1553 1.349 . S
C1552 C1554 1.327 . S
C1552 H1577 0.950 . S
C1553 C1552 1.349 . S
C1553 C1569 1.349 . S
C1554 C1552 1.327 . S
C1554 C1573 1.429 . S
C1554 H1578 0.950 . S
C1555 C1572 1.574 . S
C1555 C1574 1.368 . S
C1555 H1579 0.949 . S
H1556 C1560 0.949 . S
C1557 C1558 1.349 . S
C1557 C1559 1.327 . S
C1557 H1580 0.950 . S
C1558 C1557 1.349 . S
C1558 C1570 1.349 . S
C1559 C1557 1.327 . S
C1559 C1575 1.429 . S
C1559 H1581 0.950 . S
C1560 H1556 0.949 . S
C1560 C1568 1.574 . S
C1560 C1576 1.368 . S
H1561 C1569 0.950 . S
H1562 C1567 0.950 . S
H1563 C1568 0.949 . S
H1564 C1570 0.950 . S
H1565 C1571 0.950 . S
H1566 C1572 0.949 . S
C1567 H1562 0.950 . S
C1567 C1569 1.327 . S
C1567 C1573 1.429 . S
C1568 C1560 1.574 . S
C1568 H1563 0.949 . S
C1568 C1574 1.368 1_655 S
C1569 C1553 1.349 . S
C1569 H1561 0.950 . S
C1569 C1567 1.327 . S
C1570 C1558 1.349 . S
C1570 H1564 0.950 . S
C1570 C1571 1.327 . S
C1571 H1565 0.950 . S
C1571 C1570 1.327 . S
C1571 C1575 1.429 . S
C1572 C1555 1.574 . S
C1572 H1566 0.949 . S
C1572 C1576 1.368 1_455 S
C1573 C1554 1.429 . S
C1573 C1567 1.429 . S
C1573 C1574 1.523 . S
C1574 C1555 1.368 . S
C1574 C1568 1.368 1_455 S
C1574 C1573 1.523 . S
C1575 C1559 1.429 . S
C1575 C1571 1.429 . S
C1575 C1576 1.523 . S
C1576 C1560 1.368 . S
C1576 C1572 1.368 1_655 S
C1576 C1575 1.523 . S
H1577 C1552 0.950 . S
H1578 C1554 0.950 . S
H1579 C1555 0.949 . S
H1580 C1557 0.950 . S
H1581 C1559 0.950 . S
C1582 C1583 1.349 . S
C1582 C1584 1.327 . S
C1582 H1607 0.950 . S
C1583 C1582 1.349 . S
C1583 C1599 1.349 . S
C1584 C1582 1.327 . S
C1584 C1603 1.429 . S
C1584 H1608 0.950 . S
C1585 C1602 1.574 1_455 S
C1585 C1604 1.368 . S
C1585 H1609 0.949 . S
H1586 C1590 0.949 . S
C1587 C1588 1.349 . S
C1587 C1589 1.327 . S
C1587 H1610 0.950 . S
C1588 C1587 1.349 . S
C1588 C1600 1.349 . S
C1589 C1587 1.327 . S
C1589 C1605 1.429 . S
C1589 H1611 0.950 . S
C1590 H1586 0.949 . S
C1590 C1598 1.574 1_655 S
C1590 C1606 1.368 . S
H1591 C1599 0.950 . S
H1592 C1597 0.950 . S
H1593 C1598 0.949 . S
H1594 C1600 0.950 . S
H1595 C1601 0.950 . S
H1596 C1602 0.949 . S
C1597 H1592 0.950 . S
C1597 C1599 1.327 . S
C1597 C1603 1.429 . S
C1598 C1590 1.574 1_455 S
C1598 H1593 0.949 . S
C1598 C1604 1.368 . S
C1599 C1583 1.349 . S
C1599 H1591 0.950 . S
C1599 C1597 1.327 . S
C1600 C1588 1.349 . S
C1600 H1594 0.950 . S
C1600 C1601 1.327 . S
C1601 H1595 0.950 . S
C1601 C1600 1.327 . S
C1601 C1605 1.429 . S
C1602 C1585 1.574 1_655 S
C1602 H1596 0.949 . S
C1602 C1606 1.368 . S
C1603 C1584 1.429 . S
C1603 C1597 1.429 . S
C1603 C1604 1.523 . S
C1604 C1585 1.368 . S
C1604 C1598 1.368 . S
C1604 C1603 1.523 . S
C1605 C1589 1.429 . S
C1605 C1601 1.429 . S
C1605 C1606 1.523 . S
C1606 C1590 1.368 . S
C1606 C1602 1.368 . S
C1606 C1605 1.523 . S
H1607 C1582 0.950 . S
H1608 C1584 0.950 . S
H1609 C1585 0.949 . S
H1610 C1587 0.950 . S
H1611 C1589 0.950 . S
C1612 C1613 1.349 . S
C1612 C1614 1.327 . S
C1612 H1637 0.950 . S
C1613 C1612 1.349 . S
C1613 C1629 1.349 . S
C1614 C1612 1.327 . S
C1614 C1633 1.429 . S
C1614 H1638 0.950 . S
C1615 C1632 1.574 . S
C1615 C1634 1.368 . S
C1615 H1639 0.949 . S
H1616 C1620 0.949 . S
C1617 C1618 1.349 . S
C1617 C1619 1.327 . S
C1617 H1640 0.950 . S
C1618 C1617 1.349 . S
C1618 C1630 1.349 . S
C1619 C1617 1.327 . S
C1619 C1635 1.429 . S
C1619 H1641 0.950 . S
C1620 H1616 0.949 . S
C1620 C1628 1.574 . S
C1620 C1636 1.368 . S
H1621 C1629 0.950 . S
H1622 C1627 0.950 . S
H1623 C1628 0.949 . S
H1624 C1630 0.950 . S
H1625 C1631 0.950 . S
H1626 C1632 0.949 . S
C1627 H1622 0.950 . S
C1627 C1629 1.327 . S
C1627 C1633 1.429 . S
C1628 C1620 1.574 . S
C1628 H1623 0.949 . S
C1628 C1634 1.368 . S
C1629 C1613 1.349 . S
C1629 H1621 0.950 . S
C1629 C1627 1.327 . S
C1630 C1618 1.349 . S
C1630 H1624 0.950 . S
C1630 C1631 1.327 . S
C1631 H1625 0.950 . S
C1631 C1630 1.327 . S
C1631 C1635 1.429 . S
C1632 C1615 1.574 . S
C1632 H1626 0.949 . S
C1632 C1636 1.368 . S
C1633 C1614 1.429 . S
C1633 C1627 1.429 . S
C1633 C1634 1.523 . S
C1634 C1615 1.368 . S
C1634 C1628 1.368 . S
C1634 C1633 1.523 . S
C1635 C1619 1.429 . S
C1635 C1631 1.429 . S
C1635 C1636 1.523 . S
C1636 C1620 1.368 . S
C1636 C1632 1.368 . S
C1636 C1635 1.523 . S
H1637 C1612 0.950 . S
H1638 C1614 0.950 . S
H1639 C1615 0.949 . S
H1640 C1617 0.950 . S
H1641 C1619 0.950 . S
C1642 C1643 1.349 . S
C1642 C1644 1.327 . S
C1642 H1667 0.950 . S
C1643 C1642 1.349 . S
C1643 C1659 1.349 . S
C1644 C1642 1.327 . S
C1644 C1663 1.429 . S
C1644 H1668 0.950 . S
C1645 C1662 1.574 . S
C1645 C1664 1.368 . S
C1645 H1669 0.949 . S
H1646 C1650 0.949 . S
C1647 C1648 1.349 . S
C1647 C1649 1.327 . S
C1647 H1670 0.950 . S
C1648 C1647 1.349 . S
C1648 C1660 1.349 . S
C1649 C1647 1.327 . S
C1649 C1665 1.429 . S
C1649 H1671 0.950 . S
C1650 H1646 0.949 . S
C1650 C1658 1.574 . S
C1650 C1666 1.368 . S
H1651 C1659 0.950 . S
H1652 C1657 0.950 . S
H1653 C1658 0.949 . S
H1654 C1660 0.950 . S
H1655 C1661 0.950 . S
H1656 C1662 0.949 . S
C1657 H1652 0.950 . S
C1657 C1659 1.327 . S
C1657 C1663 1.429 . S
C1658 C1650 1.574 . S
C1658 H1653 0.949 . S
C1658 C1664 1.368 . S
C1659 C1643 1.349 . S
C1659 H1651 0.950 . S
C1659 C1657 1.327 . S
C1660 C1648 1.349 . S
C1660 H1654 0.950 . S
C1660 C1661 1.327 . S
C1661 H1655 0.950 . S
C1661 C1660 1.327 . S
C1661 C1665 1.429 . S
C1662 C1645 1.574 . S
C1662 H1656 0.949 . S
C1662 C1666 1.368 . S
C1663 C1644 1.429 . S
C1663 C1657 1.429 . S
C1663 C1664 1.523 . S
C1664 C1645 1.368 . S
C1664 C1658 1.368 . S
C1664 C1663 1.523 . S
C1665 C1649 1.429 . S
C1665 C1661 1.429 . S
C1665 C1666 1.523 . S
C1666 C1650 1.368 . S
C1666 C1662 1.368 . S
C1666 C1665 1.523 . S
H1667 C1642 0.950 . S
H1668 C1644 0.950 . S
H1669 C1645 0.949 . S
H1670 C1647 0.950 . S
H1671 C1649 0.950 . S
C1672 C1673 1.349 . S
C1672 C1674 1.327 . S
C1672 H1697 0.950 . S
C1673 C1672 1.349 . S
C1673 C1689 1.349 . S
C1674 C1672 1.327 . S
C1674 C1693 1.429 . S
C1674 H1698 0.950 . S
C1675 C1692 1.574 . S
C1675 C1694 1.368 . S
C1675 H1699 0.949 . S
H1676 C1680 0.949 . S
C1677 C1678 1.349 . S
C1677 C1679 1.327 . S
C1677 H1700 0.950 . S
C1678 C1677 1.349 . S
C1678 C1690 1.349 . S
C1679 C1677 1.327 . S
C1679 C1695 1.429 . S
C1679 H1701 0.950 . S
C1680 H1676 0.949 . S
C1680 C1688 1.574 . S
C1680 C1696 1.368 . S
H1681 C1689 0.950 . S
H1682 C1687 0.950 . S
H1683 C1688 0.949 . S
H1684 C1690 0.950 . S
H1685 C1691 0.950 . S
H1686 C1692 0.949 . S
C1687 H1682 0.950 . S
C1687 C1689 1.327 . S
C1687 C1693 1.429 . S
C1688 C1680 1.574 . S
C1688 H1683 0.949 . S
C1688 C1694 1.368 1_655 S
C1689 C1673 1.349 . S
C1689 H1681 0.950 . S
C1689 C1687 1.327 . S
C1690 C1678 1.349 . S
C1690 H1684 0.950 . S
C1690 C1691 1.327 . S
C1691 H1685 0.950 . S
C1691 C1690 1.327 . S
C1691 C1695 1.429 . S
C1692 C1675 1.574 . S
C1692 H1686 0.949 . S
C1692 C1696 1.368 1_455 S
C1693 C1674 1.429 . S
C1693 C1687 1.429 . S
C1693 C1694 1.523 . S
C1694 C1675 1.368 . S
C1694 C1688 1.368 1_455 S
C1694 C1693 1.523 . S
C1695 C1679 1.429 . S
C1695 C1691 1.429 . S
C1695 C1696 1.523 . S
C1696 C1680 1.368 . S
C1696 C1692 1.368 1_655 S
C1696 C1695 1.523 . S
H1697 C1672 0.950 . S
H1698 C1674 0.950 . S
H1699 C1675 0.949 . S
H1700 C1677 0.950 . S
H1701 C1679 0.950 . S
C1702 C1703 1.349 . S
C1702 C1704 1.327 . S
C1702 H1727 0.950 . S
C1703 C1702 1.349 . S
C1703 C1719 1.349 . S
C1704 C1702 1.327 . S
C1704 C1723 1.429 . S
C1704 H1728 0.950 . S
C1705 C1722 1.574 1_655 S
C1705 C1724 1.368 . S
C1705 H1729 0.949 . S
H1706 C1710 0.949 . S
C1707 C1708 1.349 . S
C1707 C1709 1.327 . S
C1707 H1730 0.950 . S
C1708 C1707 1.349 . S
C1708 C1720 1.349 . S
C1709 C1707 1.327 . S
C1709 C1725 1.429 . S
C1709 H1731 0.950 . S
C1710 H1706 0.949 . S
C1710 C1718 1.574 1_455 S
C1710 C1726 1.368 . S
H1711 C1719 0.950 . S
H1712 C1717 0.950 . S
H1713 C1718 0.949 . S
H1714 C1720 0.950 . S
H1715 C1721 0.950 . S
H1716 C1722 0.949 . S
C1717 H1712 0.950 . S
C1717 C1719 1.327 . S
C1717 C1723 1.429 . S
C1718 C1710 1.574 1_655 S
C1718 H1713 0.949 . S
C1718 C1724 1.368 . S
C1719 C1703 1.349 . S
C1719 H1711 0.950 . S
C1719 C1717 1.327 . S
C1720 C1708 1.349 . S
C1720 H1714 0.950 . S
C1720 C1721 1.327 . S
C1721 H1715 0.950 . S
C1721 C1720 1.327 . S
C1721 C1725 1.429 . S
C1722 C1705 1.574 1_455 S
C1722 H1716 0.949 . S
C1722 C1726 1.368 . S
C1723 C1704 1.429 . S
C1723 C1717 1.429 . S
C1723 C1724 1.523 . S
C1724 C1705 1.368 . S
C1724 C1718 1.368 . S
C1724 C1723 1.523 . S
C1725 C1709 1.429 . S
C1725 C1721 1.429 . S
C1725 C1726 1.523 . S
C1726 C1710 1.368 . S
C1726 C1722 1.368 . S
C1726 C1725 1.523 . S
H1727 C1702 0.950 . S
H1728 C1704 0.950 . S
H1729 C1705 0.949 . S
H1730 C1707 0.950 . S
H1731 C1709 0.950 . S
C1732 C1733 1.349 . S
C1732 C1734 1.327 . S
C1732 H1757 0.950 . S
C1733 C1732 1.349 . S
C1733 C1749 1.349 . S
C1734 C1732 1.327 . S
C1734 C1753 1.429 . S
C1734 H1758 0.950 . S
C1735 C1752 1.574 . S
C1735 C1754 1.368 . S
C1735 H1759 0.949 . S
H1736 C1740 0.949 . S
C1737 C1738 1.349 . S
C1737 C1739 1.327 . S
C1737 H1760 0.950 . S
C1738 C1737 1.349 . S
C1738 C1750 1.349 . S
C1739 C1737 1.327 . S
C1739 C1755 1.429 . S
C1739 H1761 0.950 . S
C1740 H1736 0.949 . S
C1740 C1748 1.574 . S
C1740 C1756 1.368 . S
H1741 C1749 0.950 . S
H1742 C1747 0.950 . S
H1743 C1748 0.949 . S
H1744 C1750 0.950 . S
H1745 C1751 0.950 . S
H1746 C1752 0.949 . S
C1747 H1742 0.950 . S
C1747 C1749 1.327 . S
C1747 C1753 1.429 . S
C1748 C1740 1.574 . S
C1748 H1743 0.949 . S
C1748 C1754 1.368 . S
C1749 C1733 1.349 . S
C1749 H1741 0.950 . S
C1749 C1747 1.327 . S
C1750 C1738 1.349 . S
C1750 H1744 0.950 . S
C1750 C1751 1.327 . S
C1751 H1745 0.950 . S
C1751 C1750 1.327 . S
C1751 C1755 1.429 . S
C1752 C1735 1.574 . S
C1752 H1746 0.949 . S
C1752 C1756 1.368 . S
C1753 C1734 1.429 . S
C1753 C1747 1.429 . S
C1753 C1754 1.523 . S
C1754 C1735 1.368 . S
C1754 C1748 1.368 . S
C1754 C1753 1.523 . S
C1755 C1739 1.429 . S
C1755 C1751 1.429 . S
C1755 C1756 1.523 . S
C1756 C1740 1.368 . S
C1756 C1752 1.368 . S
C1756 C1755 1.523 . S
H1757 C1732 0.950 . S
H1758 C1734 0.950 . S
H1759 C1735 0.949 . S
H1760 C1737 0.950 . S
H1761 C1739 0.950 . S
C1762 C1763 1.349 . S
C1762 C1764 1.327 . S
C1762 H1787 0.950 . S
C1763 C1762 1.349 . S
C1763 C1779 1.349 . S
C1764 C1762 1.327 . S
C1764 C1783 1.429 . S
C1764 H1788 0.950 . S
C1765 C1782 1.574 . S
C1765 C1784 1.368 . S
C1765 H1789 0.949 . S
H1766 C1770 0.949 . S
C1767 C1768 1.349 . S
C1767 C1769 1.327 . S
C1767 H1790 0.950 . S
C1768 C1767 1.349 . S
C1768 C1780 1.349 . S
C1769 C1767 1.327 . S
C1769 C1785 1.429 . S
C1769 H1791 0.950 . S
C1770 H1766 0.949 . S
C1770 C1778 1.574 . S
C1770 C1786 1.368 . S
H1771 C1779 0.950 . S
H1772 C1777 0.950 . S
H1773 C1778 0.949 . S
H1774 C1780 0.950 . S
H1775 C1781 0.950 . S
H1776 C1782 0.949 . S
C1777 H1772 0.950 . S
C1777 C1779 1.327 . S
C1777 C1783 1.429 . S
C1778 C1770 1.574 . S
C1778 H1773 0.949 . S
C1778 C1784 1.368 . S
C1779 C1763 1.349 . S
C1779 H1771 0.950 . S
C1779 C1777 1.327 . S
C1780 C1768 1.349 . S
C1780 H1774 0.950 . S
C1780 C1781 1.327 . S
C1781 H1775 0.950 . S
C1781 C1780 1.327 . S
C1781 C1785 1.429 . S
C1782 C1765 1.574 . S
C1782 H1776 0.949 . S
C1782 C1786 1.368 . S
C1783 C1764 1.429 . S
C1783 C1777 1.429 . S
C1783 C1784 1.523 . S
C1784 C1765 1.368 . S
C1784 C1778 1.368 . S
C1784 C1783 1.523 . S
C1785 C1769 1.429 . S
C1785 C1781 1.429 . S
C1785 C1786 1.523 . S
C1786 C1770 1.368 . S
C1786 C1782 1.368 . S
C1786 C1785 1.523 . S
H1787 C1762 0.950 . S
H1788 C1764 0.950 . S
H1789 C1765 0.949 . S
H1790 C1767 0.950 . S
H1791 C1769 0.950 . S
C353 C15 1.298 . S
C358 C140 1.264 . S
C383 C348 1.265 . S
C388 C29 1.298 . S
C413 C51 1.298 . S
C418 C98 1.264 . S
C443 C304 1.264 1_554 S
C448 C73 1.298 . S
C473 C52 1.264 . S
C478 C109 1.298 . S
C503 C250 1.265 . S
C508 C125 1.298 . S
C533 C139 1.298 . S
C538 C18 1.264 . S
C563 C169 1.298 . S
C568 C216 1.264 1_556 S
C593 C183 1.298 . S
C598 C316 1.264 1_565 S
C623 C213 1.298 1_545 S
C628 C172 1.264 1_554 S
C653 C274 1.264 1_545 S
C658 C227 1.298 . S
C683 C128 1.265 . S
C688 C249 1.298 1_565 S
C713 C228 1.264 1_545 S
C718 C285 1.298 . S
C743 C301 1.298 1_565 S
C748 C74 1.264 1_556 S
C773 C184 1.264 1_565 S
C778 C315 1.298 . S
C803 C30 1.265 . S
C808 C345 1.298 1_545 S
C833 C21 0.411 . S
C838 C271 0.411 . S
C863 C37 0.411 . S
C868 C131 0.411 . S
C893 C59 0.411 . S
C898 C323 0.411 . S
C923 C175 0.411 1_554 S
C928 C81 0.411 1_556 S
C953 C95 0.411 . S
C958 C191 0.411 . S
C983 C235 0.411 . S
C988 C147 0.411 . S
C1013 C219 0.411 1_556 S
C1018 C307 0.411 1_554 S
C1043 C351 0.411 . S
C1048 C257 0.411 . S
C1073 C10 1.334 . S
C1078 C43 1.338 . S
C1103 C65 1.338 . S
C1108 C40 1.333 . S
C1133 C62 1.333 . S
C1138 C87 1.338 . S
C1163 C84 1.334 . S
C1168 C7 1.338 . S
C1193 C117 1.338 . S
C1198 C96 1.334 . S
C1223 C153 1.338 . S
C1228 C120 1.333 . S
C1253 C161 1.338 . S
C1258 C150 1.333 . S
C1283 C103 1.338 . S
C1288 C164 1.334 . S
C1313 C194 1.334 1_565 S
C1318 C205 1.338 . S
C1343 C208 1.333 . S
C1348 C241 1.338 . S
C1373 C263 1.338 . S
C1378 C238 1.333 1_545 S
C1403 C260 1.334 . S
C1408 C197 1.338 . S
C1433 C293 1.338 . S
C1438 C272 1.334 1_545 S
C1463 C296 1.333 . S
C1468 C329 1.338 . S
C1493 C326 1.333 1_565 S
C1498 C337 1.338 . S
C1523 C279 1.338 . S
C1528 C340 1.334 . S
C1553 C8 1.463 . S
C1558 C230 1.463 . S
C1583 C32 1.463 . S
C1588 C252 1.463 . S
C1613 C54 1.463 . S
C1618 C186 1.463 . S
C1643 C206 1.463 . S
C1648 C76 1.463 . S
C1673 C318 1.463 . S
C1678 C106 1.463 . S
C1703 C118 1.463 . S
C1708 C338 1.463 . S
C1733 C142 1.463 . S
C1738 C282 1.463 . S
C1763 C294 1.463 . S
C1768 C162 1.463 . S
