# Generated by pormake.
# Topology qtz-x, (6)-cn, num edge types: 1
# Building blocks:
#     Node 0, Type 0, BuildingBlock: PAMTUU_clean_sbu_0, # of connection points: 6
#     Node 1, Type 0, BuildingBlock: PAMTUU_clean_sbu_0, # of connection points: 6
#     Node 2, Type 0, BuildingBlock: PAMTUU_clean_sbu_0, # of connection points: 6
#     Edge 3, Type (0, 0), BuildingBlock: XIVTED_clean_linker_0, # of connection points: 2
#     Edge 4, Type (0, 0), BuildingBlock: XIVTED_clean_linker_0, # of connection points: 2
#     Edge 5, Type (0, 0), BuildingBlock: XIVTED_clean_linker_0, # of connection points: 2
#     Edge 6, Type (0, 0), BuildingBlock: XIVTED_clean_linker_0, # of connection points: 2
#     Edge 7, Type (0, 0), BuildingBlock: XIVTED_clean_linker_0, # of connection points: 2
#     Edge 8, Type (0, 0), BuildingBlock: XIVTED_clean_linker_0, # of connection points: 2
#     Edge 9, Type (0, 0), BuildingBlock: XIVTED_clean_linker_0, # of connection points: 2
#     Edge 10, Type (0, 0), BuildingBlock: XIVTED_clean_linker_0, # of connection points: 2
#     Edge 11, Type (0, 0), BuildingBlock: XIVTED_clean_linker_0, # of connection points: 2
# Relax obj value: 0.126
# Max RMSD: 0.230
# Mean RMSD: 0.230
data_MOF--net-qtz-x--node1-PAMTUU_clean_sbu_0--edge1-XIVTED_clean_linker_0
_symmetry_space_group_name_H-M    P1
_symmetry_Int_Tables_number       1
_symmetry_cell_setting            triclinic
loop_
_symmetry_equiv_pos_as_xyz
'x, y, z'
_cell_length_a     15.287179
_cell_length_b     15.206537
_cell_length_c     54.494811
_cell_angle_alpha  89.950502
_cell_angle_beta   89.857692
_cell_angle_gamma 120.16279
loop_
_atom_site_label
_atom_site_type_symbol
_atom_site_fract_x
_atom_site_fract_y
_atom_site_fract_z
_atom_type_partial_charge
Tb0 Tb 0.11522 0.68514 0.16665 0.0
Tb1 Tb 0.88955 0.57061 0.19213 0.0
C2 C 0.00302 0.45739 0.17981 0.0
C3 C 0.30003 0.75868 0.11652 0.0
C4 C 0.33681 0.73526 0.06672 0.0
C5 C 0.40834 0.75045 0.08493 0.0
C6 C 0.39009 0.76217 0.10959 0.0
C7 C 0.22879 0.74408 0.09837 0.0
C8 C 0.24712 0.73291 0.07375 0.0
C9 C 0.27888 0.76651 0.14265 0.0
O10 O 0.00783 0.66079 0.13773 0.0
O11 O 0.86034 0.52862 0.15352 0.0
O12 O 0.91648 0.71326 0.17617 0.0
O13 O 0.0871 0.80001 0.18245 0.0
O14 O 0.75402 0.43722 0.20126 0.0
O15 O 0.78159 0.58442 0.21304 0.0
O16 O -0.00366 0.65294 0.22113 0.0
O17 O 0.14591 0.67464 0.2054 0.0
O18 O 0.04576 0.52164 0.16165 0.0
O19 O 0.95933 0.47817 0.19776 0.0
C20 C 0.91496 0.5848 0.13492 0.0
O21 O 0.22637 0.81081 0.14709 0.0
O22 O 0.24707 0.68405 0.15573 0.0
C23 C 0.00163 0.79912 0.17925 0.0
C24 C 0.70069 0.44976 0.24165 0.0
C25 C 0.66373 0.38765 0.29143 0.0
C26 C 0.66805 0.47816 0.28388 0.0
C27 C 0.68574 0.50853 0.25927 0.0
C28 C 0.69531 0.35862 0.24916 0.0
C29 C 0.67694 0.32794 0.27375 0.0
C30 C 0.72558 0.48624 0.2159 0.0
C31 C 0.08957 0.67203 0.22405 0.0
H32 H 0.47857 0.75347 0.08011 0.0
H33 H 0.44592 0.77306 0.12329 0.0
H34 H 0.15829 0.74021 0.10324 0.0
H35 H 0.18976 0.71981 0.0603 0.0
H36 H 0.65667 0.52507 0.29698 0.0
H37 H 0.68872 0.57875 0.25405 0.0
H38 H 0.70648 0.31138 0.23613 0.0
H39 H 0.67485 0.25818 0.27899 0.0
Tb40 Tb 0.42367 0.96234 0.50095 0.0
Tb41 Tb 0.54049 0.19342 0.52481 0.0
C42 C 0.30996 0.07678 0.51385 0.0
C43 C 0.32901 0.77015 0.45223 0.0
C44 C 0.2947 0.73731 0.40133 0.0
C45 C 0.23046 0.66286 0.41837 0.0
C46 C 0.24736 0.67934 0.44358 0.0
C47 C 0.39633 0.84258 0.43534 0.0
C48 C 0.37951 0.8262 0.41009 0.0
C49 C 0.33577 0.7944 0.47854 0.0
O50 O 0.44848 0.06887 0.47149 0.0
O51 O 0.58259 0.2177 0.4861 0.0
O52 O 0.6394 0.13041 0.52881 0.0
O53 O 0.58498 0.02471 0.4956 0.0
O54 O 0.53112 0.31895 0.53733 0.0
O55 O 0.67018 0.317 0.54041 0.0
O56 O 0.46027 0.08822 0.55462 0.0
O57 O 0.43975 0.9372 0.53967 0.0
O58 O 0.30922 0.99072 0.51647 0.0
O59 O 0.39506 0.16269 0.51077 0.0
C60 C 0.52581 0.1609 0.46789 0.0
O61 O 0.42448 0.83143 0.48869 0.0
O62 O 0.29197 0.84552 0.48482 0.0
C63 C 0.65404 0.07717 0.51209 0.0
C64 C 0.62309 0.38238 0.57387 0.0
C65 C 0.62981 0.41792 0.62487 0.0
C66 C 0.7067 0.48872 0.6093 0.0
C67 C 0.70369 0.47064 0.58399 0.0
C68 C 0.54579 0.31247 0.58939 0.0
C69 C 0.54948 0.32959 0.61462 0.0
C70 C 0.62024 0.36122 0.54738 0.0
C71 C 0.44356 -0.00465 0.55802 0.0
H72 H 0.16527 0.59298 0.41221 0.0
H73 H 0.19434 0.62286 0.45634 0.0
H74 H 0.45942 0.9137 0.4417 0.0
H75 H 0.42983 0.88543 0.3975 0.0
H76 H 0.76956 0.55745 0.61673 0.0
H77 H 0.76419 0.52541 0.57235 0.0
H78 H 0.48208 0.24451 0.58198 0.0
H79 H 0.48826 0.27455 0.62605 0.0
Tb80 Tb 0.4081 0.59883 0.83376 0.0
Tb81 Tb 0.51803 0.48256 0.85914 0.0
C82 C 0.63573 0.7115 0.84612 0.0
C83 C 0.33057 0.70869 0.78434 0.0
C84 C 0.34959 0.76818 0.73452 0.0
C85 C 0.33082 0.8221 0.75285 0.0
C86 C 0.32161 0.79267 0.77753 0.0
C87 C 0.34829 0.65418 0.7661 0.0
C88 C 0.35791 0.68364 0.7415 0.0
C89 C 0.32395 0.67938 0.8104 0.0
O90 O 0.44323 0.52737 0.80381 0.0
O91 O 0.56073 0.49173 0.82068 0.0
O92 O 0.37801 0.36872 0.84222 0.0
O93 O 0.29373 0.45424 0.8493 0.0
O94 O 0.64782 0.47581 0.86851 0.0
O95 O 0.49986 0.36062 0.88098 0.0
O96 O 0.43662 0.51013 0.88799 0.0
O97 O 0.42303 0.64318 0.8723 0.0
O98 O 0.57043 0.69339 0.82859 0.0
O99 O 0.61496 0.64587 0.86393 0.0
C100 C 0.51459 0.50357 0.80168 0.0
O101 O 0.28179 0.58202 0.81466 0.0
O102 O 0.40599 0.73132 0.82333 0.0
C103 C 0.29317 0.36887 0.84549 0.0
C104 C 0.63165 0.41913 0.90935 0.0
C105 C 0.68637 0.45186 0.95933 0.0
C106 C 0.67528 0.36526 0.94712 0.0
C107 C 0.64812 0.34908 0.92228 0.0
C108 C 0.64197 0.50512 0.92152 0.0
C109 C 0.66915 0.5214 0.94622 0.0
C110 C 0.59718 0.40034 0.88372 0.0
C111 C 0.423 0.58814 0.89097 0.0
H112 H 0.32266 0.88678 0.74812 0.0
H113 H 0.30782 0.83569 0.79129 0.0
H114 H 0.35531 0.58891 0.77086 0.0
H115 H 0.37386 0.6412 0.72803 0.0
H116 H 0.6887 0.31069 0.95668 0.0
H117 H 0.63939 0.28173 0.91323 0.0
H118 H 0.62784 0.55925 0.91195 0.0
H119 H 0.67523 0.58785 0.95516 0.0
H120 H 0.88347 0.84801 0.15168 0.0
H121 H 0.01642 0.35549 0.21947 0.0
H122 H 0.11863 0.96914 0.20636 0.0
H123 H -0.00987 0.34007 0.1406 0.0
H124 H 0.01802 0.19454 0.2193 0.0
H125 H 0.88508 0.01059 0.15144 0.0
C126 C 0.93497 0.90871 0.1637 0.0
C127 C 0.00124 0.89579 0.17902 0.0
C128 C 0.01192 0.22676 0.20209 0.0
C129 C 0.00168 0.07946 0.1792 0.0
C130 C 0.01053 0.31787 0.20217 0.0
C131 C 0.00348 0.36076 0.18 0.0
C132 C 0.00287 0.177 0.17979 0.0
C133 C -0.00361 0.30952 0.15804 0.0
C134 C 0.93614 0.00112 0.16345 0.0
C135 C 0.06691 0.97667 0.19418 0.0
N136 N -0.005 0.2194 0.15849 0.0
N137 N 0.06468 0.06496 0.19413 0.0
H138 H 0.28161 0.23796 0.52207 0.0
H139 H 0.69445 0.94006 0.48975 0.0
H140 H 0.11893 0.91691 0.50572 0.0
H141 H 0.83233 0.21125 0.53424 0.0
H142 H 0.85409 0.93877 0.49036 0.0
H143 H 0.12156 0.23795 0.52163 0.0
C144 C 0.21223 0.16749 0.51835 0.0
C145 C 0.2135 0.07723 0.51395 0.0
C146 C 0.84913 -0.00164 0.5 0.0
C147 C 0.03051 0.07705 0.5132 0.0
C148 C 0.75834 -0.00051 0.49957 0.0
C149 C 0.75009 0.07584 0.51199 0.0
C150 C 0.93268 0.07509 0.51258 0.0
C151 C 0.83518 0.15069 0.52451 0.0
C152 C 0.12098 0.16752 0.5182 0.0
C153 C 0.12127 0.98805 0.50934 0.0
N154 N 0.92312 0.1488 0.52436 0.0
N155 N 0.03347 0.99032 0.50891 0.0
H156 H 0.74971 0.81356 0.80626 0.0
H157 H 0.12713 0.31888 0.8737 0.0
H158 H 0.74327 0.82657 0.88526 0.0
H159 H 0.23997 0.19909 0.81814 0.0
H160 H 0.96682 0.15589 0.87431 0.0
H161 H 0.913 0.97365 0.80615 0.0
C162 C 0.7826 0.85046 0.82354 0.0
C163 C 0.73359 0.80725 0.84582 0.0
C164 C 0.02695 0.16572 0.86203 0.0
C165 C 0.91762 0.99001 0.84572 0.0
C166 C 0.11781 0.25839 0.86156 0.0
C167 C 0.19647 0.27185 0.84587 0.0
C168 C 0.01389 0.0876 0.84614 0.0
C169 C 0.18109 0.19117 0.83058 0.0
C170 C 0.87553 0.94105 0.82345 0.0
C171 C 0.77927 0.85746 0.86774 0.0
N172 N 0.09085 0.10258 0.83085 0.0
N173 N 0.86836 0.94719 0.86715 0.0
H174 H 0.37507 0.73172 0.90684 0.0
H175 H 0.41324 0.61891 0.04908 0.0
H176 H 0.43967 0.50275 0.93345 0.0
H177 H 0.29791 0.81157 0.02491 0.0
H178 H 0.43557 0.58676 1.00634 0.0
H179 H 0.35613 0.77162 0.94955 0.0
C180 C 0.38509 0.68977 0.92157 0.0
C181 C 0.40869 0.61352 0.91644 0.0
C182 C 0.40546 0.63623 1.01032 0.0
C183 C 0.38807 0.65933 0.96525 0.0
C184 C 0.39346 0.65528 0.03478 0.0
C185 C 0.35375 0.71816 0.04066 0.0
C186 C 0.37803 0.68062 0.99144 0.0
C187 C 0.32786 0.76176 0.02124 0.0
C188 C 0.37427 0.71257 0.94593 0.0
C189 C 0.42106 0.56187 0.93634 0.0
N190 N 0.34056 0.74231 0.99751 0.0
N191 N 0.41088 0.58588 0.95974 0.0
H192 H 0.67296 0.34964 0.45101 0.0
H193 H 0.53847 0.1966 0.30967 0.0
H194 H 0.4296 0.0599 0.42611 0.0
H195 H 0.74495 0.50417 0.33279 0.0
H196 H 0.50704 0.14374 0.35259 0.0
H197 H 0.70852 0.40713 0.40813 0.0
C198 C 0.62695 0.29819 0.43662 0.0
C199 C 0.54823 0.19966 0.44228 0.0
C200 C 0.55917 0.22291 0.34833 0.0
C201 C 0.58896 0.26466 0.39324 0.0
C202 C 0.57765 0.25299 0.32379 0.0
C203 C 0.64442 0.35498 0.31759 0.0
C204 C 0.60817 0.29507 0.36697 0.0
C205 C 0.692 0.42494 0.33674 0.0
C206 C 0.64728 0.33107 0.41215 0.0
C207 C 0.49122 0.13639 0.42279 0.0
N208 N 0.67319 0.39367 0.36057 0.0
N209 N 0.51292 0.16982 0.39926 0.0
H210 H 0.44675 0.96261 0.71614 0.0
H211 H 0.3605 0.79719 0.57448 0.0
H212 H 0.28322 0.6488 0.69304 0.0
H213 H 0.49565 0.10664 0.60005 0.0
H214 H 0.33685 0.73941 0.6174 0.0
H215 H 0.46906 0.01532 0.67328 0.0
C216 C 0.4147 0.90463 0.70208 0.0
C217 C 0.36257 0.80101 0.70833 0.0
C218 C 0.37136 0.81995 0.61353 0.0
C219 C 0.38943 0.86108 0.65891 0.0
C220 C 0.38508 0.85294 0.58906 0.0
C221 C 0.42892 0.95695 0.58361 0.0
C222 C 0.40257 0.89167 0.63262 0.0
C223 C 0.45964 0.02575 0.60326 0.0
C224 C 0.42811 0.93483 0.67753 0.0
C225 C 0.32486 0.72954 0.68915 0.0
N226 N 0.44593 0.99198 0.62677 0.0
N227 N 0.33899 0.76087 0.66532 0.0
H228 H 0.82276 0.63204 0.98052 0.0
H229 H 0.75019 0.41049 0.11727 0.0
H230 H 0.62008 0.3158 0.99785 0.0
H231 H 0.98335 0.71108 0.09524 0.0
H232 H 0.68999 0.37632 0.07466 0.0
H233 H 0.87144 0.66421 0.02353 0.0
C234 C 0.78804 0.56934 0.99342 0.0
C235 C 0.71711 0.47107 0.98554 0.0
C236 C 0.75422 0.44971 0.07924 0.0
C237 C 0.77328 0.50728 0.03501 0.0
C238 C 0.78825 0.46943 0.10355 0.0
C239 C 0.87241 0.56352 0.10981 0.0
C240 C 0.80426 0.52501 0.06119 0.0
C241 C 0.91903 0.63699 0.09127 0.0
C242 C 0.81629 0.58765 0.018 0.0
C243 C 0.67584 0.39253 1.00308 0.0
N244 N 0.88442 0.61614 0.06789 0.0
N245 N 0.70436 0.41234 0.02703 0.0
H246 H 0.27802 0.71377 0.24074 0.0
H247 H 0.10836 0.66967 0.38147 0.0
H248 H -0.01108 0.66585 0.26587 0.0
H249 H 0.41959 0.7819 0.36084 0.0
H250 H 0.06347 0.65599 0.33837 0.0
H251 H 0.33277 0.73078 0.28382 0.0
C252 C 0.22637 0.70736 0.25519 0.0
C253 C 0.12864 0.6882 0.24956 0.0
C254 C 0.14173 0.68351 0.34314 0.0
C255 C 0.19026 0.70652 0.29867 0.0
C256 C 0.16726 0.69038 0.36784 0.0
C257 C 0.26778 0.72613 0.37484 0.0
C258 C 0.21698 0.71231 0.32506 0.0
C259 C 0.34117 0.75423 0.35625 0.0
C260 C 0.25763 0.717 0.27974 0.0
C261 C 0.06492 0.68044 0.2691 0.0
N262 N 0.3143 0.74642 0.33216 0.0
N263 N 0.09668 0.68917 0.29261 0.0
H264 H 0.57402 0.37133 0.78442 0.0
H265 H 0.66522 0.59319 0.64748 0.0
H266 H 0.52665 0.61615 0.76194 0.0
H267 H 0.59415 0.28598 0.66302 0.0
H268 H 0.6502 0.61873 0.6913 0.0
H269 H 0.61535 0.35416 0.74156 0.0
C270 C 0.57297 0.42169 0.77051 0.0
C271 C 0.54535 0.4941 0.77656 0.0
C272 C 0.63863 0.54596 0.68513 0.0
C273 C 0.59376 0.47625 0.72796 0.0
C274 C 0.6479 0.53163 0.66016 0.0
C275 C 0.63032 0.4372 0.6516 0.0
C276 C 0.61274 0.46571 0.70172 0.0
C277 C 0.60714 0.35963 0.66886 0.0
C278 C 0.59611 0.4117 0.74613 0.0
C279 C 0.54531 0.5578 0.75792 0.0
N280 N 0.59888 0.37551 0.69312 0.0
N281 N 0.56923 0.54754 0.73451 0.0
loop_
_geom_bond_atom_site_label_1
_geom_bond_atom_site_label_2
_geom_bond_distance
_geom_bond_site_symmetry_2
_ccdc_geom_bond_type
Tb0 C9 2.764 . S
Tb0 O10 2.325 . S
Tb0 O13 2.303 . S
Tb0 O17 2.322 . S
Tb0 O18 2.349 . S
Tb0 O21 2.415 . S
Tb0 O22 2.399 . S
Tb1 O11 2.322 . S
Tb1 O12 2.349 . S
Tb1 O14 2.415 . S
Tb1 O15 2.399 . S
Tb1 O16 2.325 1_655 S
Tb1 O19 2.303 1_655 S
Tb1 C30 2.764 . S
C2 O18 1.261 . S
C2 O19 1.257 . S
C3 C6 1.358 . S
C3 C7 1.332 . S
C3 C9 1.504 . S
C4 C5 1.373 . S
C4 C8 1.308 . S
C5 C4 1.373 . S
C5 C6 1.429 . S
C5 H32 0.932 . S
C6 C3 1.358 . S
C6 C5 1.429 . S
C6 H33 0.930 . S
C7 C3 1.332 . S
C7 C8 1.394 . S
C7 H34 0.932 . S
C8 C4 1.308 . S
C8 C7 1.394 . S
C8 H35 0.929 . S
C9 Tb0 2.764 . S
C9 C3 1.504 . S
C9 O21 1.239 . S
C9 O22 1.263 . S
O10 Tb0 2.325 . S
O10 C20 1.236 1_455 S
O11 Tb1 2.322 . S
O11 C20 1.257 . S
O12 Tb1 2.349 . S
O12 C23 1.261 1_655 S
O13 Tb0 2.303 . S
O13 C23 1.257 . S
O14 Tb1 2.415 . S
O14 C30 1.239 . S
O15 Tb1 2.399 . S
O15 C30 1.263 . S
O16 Tb1 2.325 1_455 S
O16 C31 1.236 . S
O17 Tb0 2.322 . S
O17 C31 1.257 . S
O18 Tb0 2.349 . S
O18 C2 1.261 . S
O19 Tb1 2.303 1_455 S
O19 C2 1.257 . S
C20 O10 1.236 1_655 S
C20 O11 1.257 . S
O21 Tb0 2.415 . S
O21 C9 1.239 . S
O22 Tb0 2.399 . S
O22 C9 1.263 . S
C23 O12 1.261 1_455 S
C23 O13 1.257 . S
C24 C27 1.358 . S
C24 C28 1.332 . S
C24 C30 1.504 . S
C25 C26 1.373 . S
C25 C29 1.308 . S
C26 C25 1.373 . S
C26 C27 1.429 . S
C26 H36 0.932 . S
C27 C24 1.358 . S
C27 C26 1.429 . S
C27 H37 0.930 . S
C28 C24 1.332 . S
C28 C29 1.394 . S
C28 H38 0.932 . S
C29 C25 1.308 . S
C29 C28 1.394 . S
C29 H39 0.929 . S
C30 Tb1 2.764 . S
C30 O14 1.239 . S
C30 O15 1.263 . S
C30 C24 1.504 . S
C31 O16 1.236 . S
C31 O17 1.257 . S
H32 C5 0.932 . S
H33 C6 0.930 . S
H34 C7 0.932 . S
H35 C8 0.929 . S
H36 C26 0.932 . S
H37 C27 0.930 . S
H38 C28 0.932 . S
H39 C29 0.929 . S
Tb40 C49 2.764 . S
Tb40 O50 2.325 1_565 S
Tb40 O53 2.303 . S
Tb40 O57 2.322 . S
Tb40 O58 2.349 . S
Tb40 O61 2.415 . S
Tb40 O62 2.399 . S
Tb41 O51 2.322 . S
Tb41 O52 2.349 . S
Tb41 O54 2.415 . S
Tb41 O55 2.399 . S
Tb41 O56 2.325 1_545 S
Tb41 O59 2.303 . S
Tb41 C70 2.764 . S
C42 O58 1.261 . S
C42 O59 1.257 1_565 S
C43 C46 1.358 . S
C43 C47 1.332 . S
C43 C49 1.504 . S
C44 C45 1.373 . S
C44 C48 1.308 . S
C45 C44 1.373 . S
C45 C46 1.429 . S
C45 H72 0.932 . S
C46 C43 1.358 . S
C46 C45 1.429 . S
C46 H73 0.930 . S
C47 C43 1.332 . S
C47 C48 1.394 . S
C47 H74 0.932 . S
C48 C44 1.308 . S
C48 C47 1.394 . S
C48 H75 0.929 . S
C49 Tb40 2.764 . S
C49 C43 1.504 . S
C49 O61 1.239 . S
C49 O62 1.263 . S
O50 Tb40 2.325 1_545 S
O50 C60 1.236 . S
O51 Tb41 2.322 . S
O51 C60 1.257 . S
O52 Tb41 2.349 . S
O52 C63 1.261 . S
O53 Tb40 2.303 . S
O53 C63 1.257 1_565 S
O54 Tb41 2.415 . S
O54 C70 1.239 . S
O55 Tb41 2.399 . S
O55 C70 1.263 . S
O56 Tb41 2.325 1_565 S
O56 C71 1.236 . S
O57 Tb40 2.322 . S
O57 C71 1.257 . S
O58 Tb40 2.349 . S
O58 C42 1.261 . S
O59 Tb41 2.303 . S
O59 C42 1.257 1_545 S
C60 O50 1.236 . S
C60 O51 1.257 . S
O61 Tb40 2.415 . S
O61 C49 1.239 . S
O62 Tb40 2.399 . S
O62 C49 1.263 . S
C63 O52 1.261 . S
C63 O53 1.257 1_545 S
C64 C67 1.358 . S
C64 C68 1.332 . S
C64 C70 1.504 . S
C65 C66 1.373 . S
C65 C69 1.308 . S
C66 C65 1.373 . S
C66 C67 1.429 . S
C66 H76 0.932 . S
C67 C64 1.358 . S
C67 C66 1.429 . S
C67 H77 0.930 . S
C68 C64 1.332 . S
C68 C69 1.394 . S
C68 H78 0.932 . S
C69 C65 1.308 . S
C69 C68 1.394 . S
C69 H79 0.929 . S
C70 Tb41 2.764 . S
C70 O54 1.239 . S
C70 O55 1.263 . S
C70 C64 1.504 . S
C71 O56 1.236 . S
C71 O57 1.257 . S
H72 C45 0.932 . S
H73 C46 0.930 . S
H74 C47 0.932 . S
H75 C48 0.929 . S
H76 C66 0.932 . S
H77 C67 0.930 . S
H78 C68 0.932 . S
H79 C69 0.929 . S
Tb80 C89 2.764 . S
Tb80 O90 2.325 . S
Tb80 O93 2.303 . S
Tb80 O97 2.322 . S
Tb80 O98 2.349 . S
Tb80 O101 2.415 . S
Tb80 O102 2.399 . S
Tb81 O91 2.322 . S
Tb81 O92 2.349 . S
Tb81 O94 2.415 . S
Tb81 O95 2.399 . S
Tb81 O96 2.325 . S
Tb81 O99 2.303 . S
Tb81 C110 2.764 . S
C82 O98 1.261 . S
C82 O99 1.257 . S
C83 C86 1.358 . S
C83 C87 1.332 . S
C83 C89 1.504 . S
C84 C85 1.373 . S
C84 C88 1.308 . S
C85 C84 1.373 . S
C85 C86 1.429 . S
C85 H112 0.932 . S
C86 C83 1.358 . S
C86 C85 1.429 . S
C86 H113 0.930 . S
C87 C83 1.332 . S
C87 C88 1.394 . S
C87 H114 0.932 . S
C88 C84 1.308 . S
C88 C87 1.394 . S
C88 H115 0.929 . S
C89 Tb80 2.764 . S
C89 C83 1.504 . S
C89 O101 1.239 . S
C89 O102 1.263 . S
O90 Tb80 2.325 . S
O90 C100 1.236 . S
O91 Tb81 2.322 . S
O91 C100 1.257 . S
O92 Tb81 2.349 . S
O92 C103 1.261 . S
O93 Tb80 2.303 . S
O93 C103 1.257 . S
O94 Tb81 2.415 . S
O94 C110 1.239 . S
O95 Tb81 2.399 . S
O95 C110 1.263 . S
O96 Tb81 2.325 . S
O96 C111 1.236 . S
O97 Tb80 2.322 . S
O97 C111 1.257 . S
O98 Tb80 2.349 . S
O98 C82 1.261 . S
O99 Tb81 2.303 . S
O99 C82 1.257 . S
C100 O90 1.236 . S
C100 O91 1.257 . S
O101 Tb80 2.415 . S
O101 C89 1.239 . S
O102 Tb80 2.399 . S
O102 C89 1.263 . S
C103 O92 1.261 . S
C103 O93 1.257 . S
C104 C107 1.358 . S
C104 C108 1.332 . S
C104 C110 1.504 . S
C105 C106 1.373 . S
C105 C109 1.308 . S
C106 C105 1.373 . S
C106 C107 1.429 . S
C106 H116 0.932 . S
C107 C104 1.358 . S
C107 C106 1.429 . S
C107 H117 0.930 . S
C108 C104 1.332 . S
C108 C109 1.394 . S
C108 H118 0.932 . S
C109 C105 1.308 . S
C109 C108 1.394 . S
C109 H119 0.929 . S
C110 Tb81 2.764 . S
C110 O94 1.239 . S
C110 O95 1.263 . S
C110 C104 1.504 . S
C111 O96 1.236 . S
C111 O97 1.257 . S
H112 C85 0.932 . S
H113 C86 0.930 . S
H114 C87 0.932 . S
H115 C88 0.929 . S
H116 C106 0.932 . S
H117 C107 0.930 . S
H118 C108 0.932 . S
H119 C109 0.929 . S
H120 C126 0.930 1_655 S
H121 C130 0.930 . S
H122 C135 0.929 . S
H123 C133 0.929 1_655 S
H124 C128 0.929 . S
H125 C134 0.929 1_655 S
C126 H120 0.930 1_455 S
C126 C127 1.367 . S
C126 C134 1.378 1_565 S
C127 C126 1.367 . S
C127 C135 1.433 . S
C128 H124 0.929 . S
C128 C130 1.378 . S
C128 C132 1.350 . S
C129 C132 1.463 . S
C129 C134 1.350 . S
C129 N137 1.427 . S
C130 H121 0.930 . S
C130 C128 1.378 . S
C130 C131 1.367 . S
C131 C130 1.367 . S
C131 C133 1.433 . S
C132 C128 1.350 . S
C132 C129 1.463 . S
C132 N136 1.427 . S
C133 H123 0.929 1_455 S
C133 C131 1.433 . S
C133 N136 1.384 . S
C134 H125 0.929 1_455 S
C134 C126 1.378 1_545 S
C134 C129 1.350 . S
C135 H122 0.929 . S
C135 C127 1.433 . S
C135 N137 1.384 1_565 S
N136 C132 1.427 . S
N136 C133 1.384 . S
N137 C129 1.427 . S
N137 C135 1.384 1_545 S
H138 C144 0.930 . S
H139 C148 0.930 . S
H140 C153 0.929 . S
H141 C151 0.929 . S
H142 C146 0.929 . S
H143 C152 0.929 . S
C144 H138 0.930 . S
C144 C145 1.367 . S
C144 C152 1.378 . S
C145 C144 1.367 . S
C145 C153 1.433 1_545 S
C146 H142 0.929 . S
C146 C148 1.378 . S
C146 C150 1.350 . S
C147 C150 1.463 1_445 S
C147 C152 1.350 . S
C147 N155 1.427 1_545 S
C148 H139 0.930 . S
C148 C146 1.378 . S
C148 C149 1.367 . S
C149 C148 1.367 . S
C149 C151 1.433 1_565 S
C150 C146 1.350 . S
C150 C147 1.463 1_665 S
C150 N154 1.427 1_565 S
C151 H141 0.929 . S
C151 C149 1.433 1_545 S
C151 N154 1.384 . S
C152 H143 0.929 . S
C152 C144 1.378 . S
C152 C147 1.350 . S
C153 H140 0.929 . S
C153 C145 1.433 1_565 S
C153 N155 1.384 . S
N154 C150 1.427 1_545 S
N154 C151 1.384 . S
N155 C147 1.427 1_565 S
N155 C153 1.384 . S
H156 C162 0.930 . S
H157 C166 0.930 . S
H158 C171 0.929 . S
H159 C169 0.929 . S
H160 C164 0.929 1_655 S
H161 C170 0.929 . S
C162 H156 0.930 . S
C162 C163 1.367 . S
C162 C170 1.378 1_565 S
C163 C162 1.367 . S
C163 C171 1.433 . S
C164 H160 0.929 1_455 S
C164 C166 1.378 . S
C164 C168 1.350 . S
C165 C168 1.463 1_655 S
C165 C170 1.350 . S
C165 N173 1.427 . S
C166 H157 0.930 . S
C166 C164 1.378 . S
C166 C167 1.367 . S
C167 C166 1.367 . S
C167 C169 1.433 . S
C168 C164 1.350 . S
C168 C165 1.463 1_455 S
C168 N172 1.427 . S
C169 H159 0.929 . S
C169 C167 1.433 . S
C169 N172 1.384 . S
C170 H161 0.929 . S
C170 C162 1.378 1_545 S
C170 C165 1.350 . S
C171 H158 0.929 . S
C171 C163 1.433 . S
C171 N173 1.384 1_565 S
N172 C168 1.427 . S
N172 C169 1.384 . S
N173 C165 1.427 . S
N173 C171 1.384 1_545 S
H174 C180 0.930 . S
H175 C184 0.930 . S
H176 C189 0.929 . S
H177 C187 0.930 1_544 S
H178 C182 0.929 . S
H179 C188 0.929 . S
C180 H174 0.930 . S
C180 C181 1.367 . S
C180 C188 1.378 . S
C181 C180 1.367 . S
C181 C189 1.433 . S
C182 H178 0.929 . S
C182 C184 1.378 1_556 S
C182 C186 1.350 . S
C183 C186 1.463 . S
C183 C188 1.350 . S
C183 N191 1.427 . S
C184 H175 0.930 . S
C184 C182 1.378 1_554 S
C184 C185 1.367 . S
C185 C184 1.367 . S
C185 C187 1.433 1_554 S
C186 C182 1.350 . S
C186 C183 1.463 . S
C186 N190 1.427 . S
C187 H177 0.930 1_566 S
C187 C185 1.433 1_556 S
C187 N190 1.384 . S
C188 H179 0.929 . S
C188 C180 1.378 . S
C188 C183 1.350 . S
C189 H176 0.929 . S
C189 C181 1.433 . S
C189 N191 1.384 . S
N190 C186 1.427 . S
N190 C187 1.384 . S
N191 C183 1.427 . S
N191 C189 1.384 . S
H192 C198 0.930 . S
H193 C202 0.930 . S
H194 C207 0.929 . S
H195 C205 0.929 . S
H196 C200 0.929 . S
H197 C206 0.929 . S
C198 H192 0.930 . S
C198 C199 1.367 . S
C198 C206 1.378 . S
C199 C198 1.367 . S
C199 C207 1.433 . S
C200 H196 0.929 . S
C200 C202 1.378 . S
C200 C204 1.350 . S
C201 C204 1.463 . S
C201 C206 1.350 . S
C201 N209 1.427 . S
C202 H193 0.930 . S
C202 C200 1.378 . S
C202 C203 1.367 . S
C203 C202 1.367 . S
C203 C205 1.433 . S
C204 C200 1.350 . S
C204 C201 1.463 . S
C204 N208 1.427 . S
C205 H195 0.929 . S
C205 C203 1.433 . S
C205 N208 1.384 . S
C206 H197 0.929 . S
C206 C198 1.378 . S
C206 C201 1.350 . S
C207 H194 0.929 . S
C207 C199 1.433 . S
C207 N209 1.384 . S
N208 C204 1.427 . S
N208 C205 1.384 . S
N209 C201 1.427 . S
N209 C207 1.384 . S
H210 C216 0.930 . S
H211 C220 0.930 . S
H212 C225 0.929 . S
H213 C223 0.929 . S
H214 C218 0.929 . S
H215 C224 0.929 . S
C216 H210 0.930 . S
C216 C217 1.367 . S
C216 C224 1.378 . S
C217 C216 1.367 . S
C217 C225 1.433 . S
C218 H214 0.929 . S
C218 C220 1.378 . S
C218 C222 1.350 . S
C219 C222 1.463 . S
C219 C224 1.350 . S
C219 N227 1.427 . S
C220 H211 0.930 . S
C220 C218 1.378 . S
C220 C221 1.367 . S
C221 C220 1.367 . S
C221 C223 1.433 . S
C222 C218 1.350 . S
C222 C219 1.463 . S
C222 N226 1.427 . S
C223 H213 0.929 . S
C223 C221 1.433 . S
C223 N226 1.384 . S
C224 H215 0.929 . S
C224 C216 1.378 . S
C224 C219 1.350 . S
C225 H212 0.929 . S
C225 C217 1.433 . S
C225 N227 1.384 . S
N226 C222 1.427 . S
N226 C223 1.384 . S
N227 C219 1.427 . S
N227 C225 1.384 . S
H228 C234 0.930 . S
H229 C238 0.930 . S
H230 C243 0.929 . S
H231 C241 0.929 1_455 S
H232 C236 0.929 . S
H233 C242 0.929 . S
C234 H228 0.930 . S
C234 C235 1.367 . S
C234 C242 1.378 1_556 S
C235 C234 1.367 . S
C235 C243 1.433 1_556 S
C236 H232 0.929 . S
C236 C238 1.378 . S
C236 C240 1.350 . S
C237 C240 1.463 . S
C237 C242 1.350 . S
C237 N245 1.427 . S
C238 H229 0.930 . S
C238 C236 1.378 . S
C238 C239 1.367 . S
C239 C238 1.367 . S
C239 C241 1.433 . S
C240 C236 1.350 . S
C240 C237 1.463 . S
C240 N244 1.427 . S
C241 H231 0.929 1_655 S
C241 C239 1.433 . S
C241 N244 1.384 . S
C242 H233 0.929 . S
C242 C234 1.378 1_554 S
C242 C237 1.350 . S
C243 H230 0.929 . S
C243 C235 1.433 1_554 S
C243 N245 1.384 . S
N244 C240 1.427 . S
N244 C241 1.384 . S
N245 C237 1.427 . S
N245 C243 1.384 . S
H246 C252 0.930 . S
H247 C256 0.930 . S
H248 C261 0.929 . S
H249 C259 0.929 . S
H250 C254 0.929 . S
H251 C260 0.929 . S
C252 H246 0.930 . S
C252 C253 1.367 . S
C252 C260 1.378 . S
C253 C252 1.367 . S
C253 C261 1.433 . S
C254 H250 0.929 . S
C254 C256 1.378 . S
C254 C258 1.350 . S
C255 C258 1.463 . S
C255 C260 1.350 . S
C255 N263 1.427 . S
C256 H247 0.930 . S
C256 C254 1.378 . S
C256 C257 1.367 . S
C257 C256 1.367 . S
C257 C259 1.433 . S
C258 C254 1.350 . S
C258 C255 1.463 . S
C258 N262 1.427 . S
C259 H249 0.929 . S
C259 C257 1.433 . S
C259 N262 1.384 . S
C260 H251 0.929 . S
C260 C252 1.378 . S
C260 C255 1.350 . S
C261 H248 0.929 . S
C261 C253 1.433 . S
C261 N263 1.384 . S
N262 C258 1.427 . S
N262 C259 1.384 . S
N263 C255 1.427 . S
N263 C261 1.384 . S
H264 C270 0.930 . S
H265 C274 0.930 . S
H266 C279 0.929 . S
H267 C277 0.929 . S
H268 C272 0.929 . S
H269 C278 0.929 . S
C270 H264 0.930 . S
C270 C271 1.367 . S
C270 C278 1.378 . S
C271 C270 1.367 . S
C271 C279 1.433 . S
C272 H268 0.929 . S
C272 C274 1.378 . S
C272 C276 1.350 . S
C273 C276 1.463 . S
C273 C278 1.350 . S
C273 N281 1.427 . S
C274 H265 0.930 . S
C274 C272 1.378 . S
C274 C275 1.367 . S
C275 C274 1.367 . S
C275 C277 1.433 . S
C276 C272 1.350 . S
C276 C273 1.463 . S
C276 N280 1.427 . S
C277 H267 0.929 . S
C277 C275 1.433 . S
C277 N280 1.384 . S
C278 H269 0.929 . S
C278 C270 1.378 . S
C278 C273 1.350 . S
C279 H266 0.929 . S
C279 C271 1.433 . S
C279 N281 1.384 . S
N280 C276 1.427 . S
N280 C277 1.384 . S
N281 C273 1.427 . S
N281 C279 1.384 . S
C127 C23 1.518 . S
C131 C2 1.518 . S
C145 C42 1.520 1_545 S
C149 C63 1.520 1_565 S
C163 C82 1.515 . S
C167 C103 1.515 . S
C181 C111 1.227 . S
C185 C4 1.153 . S
C199 C60 1.469 . S
C203 C25 1.447 . S
C217 C84 1.156 . S
C221 C71 1.228 . S
C235 C105 1.444 . S
C239 C20 1.468 . S
C253 C31 1.227 . S
C257 C44 1.153 . S
C271 C100 1.469 . S
C275 C65 1.451 . S
