# Generated by pormake.
# Topology uof, (4)-cn, num edge types: 1
# Building blocks:
#     Node 0, Type 0, BuildingBlock: AZAVOO_clean_sbu_0, # of connection points: 4
#     Node 1, Type 0, BuildingBlock: AZAVOO_clean_sbu_0, # of connection points: 4
#     Node 2, Type 0, BuildingBlock: AZAVOO_clean_sbu_0, # of connection points: 4
#     Node 3, Type 0, BuildingBlock: AZAVOO_clean_sbu_0, # of connection points: 4
#     Node 4, Type 0, BuildingBlock: AZAVOO_clean_sbu_0, # of connection points: 4
#     Node 5, Type 0, BuildingBlock: AZAVOO_clean_sbu_0, # of connection points: 4
#     Node 6, Type 0, BuildingBlock: AZAVOO_clean_sbu_0, # of connection points: 4
#     Node 7, Type 0, BuildingBlock: AZAVOO_clean_sbu_0, # of connection points: 4
#     Node 8, Type 0, BuildingBlock: AZAVOO_clean_sbu_0, # of connection points: 4
#     Node 9, Type 0, BuildingBlock: AZAVOO_clean_sbu_0, # of connection points: 4
#     Node 10, Type 0, BuildingBlock: AZAVOO_clean_sbu_0, # of connection points: 4
#     Node 11, Type 0, BuildingBlock: AZAVOO_clean_sbu_0, # of connection points: 4
#     Edge 12, Type (0, 0), BuildingBlock: OJICUG_clean_linker_0, # of connection points: 2
#     Edge 13, Type (0, 0), BuildingBlock: OJICUG_clean_linker_0, # of connection points: 2
#     Edge 14, Type (0, 0), BuildingBlock: OJICUG_clean_linker_0, # of connection points: 2
#     Edge 15, Type (0, 0), BuildingBlock: OJICUG_clean_linker_0, # of connection points: 2
#     Edge 16, Type (0, 0), BuildingBlock: OJICUG_clean_linker_0, # of connection points: 2
#     Edge 17, Type (0, 0), BuildingBlock: OJICUG_clean_linker_0, # of connection points: 2
#     Edge 18, Type (0, 0), BuildingBlock: OJICUG_clean_linker_0, # of connection points: 2
#     Edge 19, Type (0, 0), BuildingBlock: OJICUG_clean_linker_0, # of connection points: 2
#     Edge 20, Type (0, 0), BuildingBlock: OJICUG_clean_linker_0, # of connection points: 2
#     Edge 21, Type (0, 0), BuildingBlock: OJICUG_clean_linker_0, # of connection points: 2
#     Edge 22, Type (0, 0), BuildingBlock: OJICUG_clean_linker_0, # of connection points: 2
#     Edge 23, Type (0, 0), BuildingBlock: OJICUG_clean_linker_0, # of connection points: 2
#     Edge 24, Type (0, 0), BuildingBlock: OJICUG_clean_linker_0, # of connection points: 2
#     Edge 25, Type (0, 0), BuildingBlock: OJICUG_clean_linker_0, # of connection points: 2
#     Edge 26, Type (0, 0), BuildingBlock: OJICUG_clean_linker_0, # of connection points: 2
#     Edge 27, Type (0, 0), BuildingBlock: OJICUG_clean_linker_0, # of connection points: 2
#     Edge 28, Type (0, 0), BuildingBlock: OJICUG_clean_linker_0, # of connection points: 2
#     Edge 29, Type (0, 0), BuildingBlock: OJICUG_clean_linker_0, # of connection points: 2
#     Edge 30, Type (0, 0), BuildingBlock: OJICUG_clean_linker_0, # of connection points: 2
#     Edge 31, Type (0, 0), BuildingBlock: OJICUG_clean_linker_0, # of connection points: 2
#     Edge 32, Type (0, 0), BuildingBlock: OJICUG_clean_linker_0, # of connection points: 2
#     Edge 33, Type (0, 0), BuildingBlock: OJICUG_clean_linker_0, # of connection points: 2
#     Edge 34, Type (0, 0), BuildingBlock: OJICUG_clean_linker_0, # of connection points: 2
#     Edge 35, Type (0, 0), BuildingBlock: OJICUG_clean_linker_0, # of connection points: 2
# Relax obj value: 0.237
# Max RMSD: 0.198
# Mean RMSD: 0.198
data_MOF--net-uof--node1-AZAVOO_clean_sbu_0--edge1-OJICUG_clean_linker_0
_symmetry_space_group_name_H-M    P1
_symmetry_Int_Tables_number       1
_symmetry_cell_setting            triclinic
loop_
_symmetry_equiv_pos_as_xyz
'x, y, z'
_cell_length_a     24.217364
_cell_length_b     23.944481
_cell_length_c     49.133942
_cell_angle_alpha  90.379175
_cell_angle_beta   89.805168
_cell_angle_gamma 119.96499
loop_
_atom_site_label
_atom_site_type_symbol
_atom_site_fract_x
_atom_site_fract_y
_atom_site_fract_z
_atom_type_partial_charge
Mg0 Mg 0.20961 0.30988 0.19239 0.0
O1 O 0.24378 0.24826 0.1713 0.0
O2 O 0.33682 0.26617 0.1882 0.0
Mg3 Mg 0.35559 0.33106 0.22522 0.0
C4 C 0.29107 0.23881 0.17124 0.0
C5 C 0.07445 0.27193 0.16605 0.0
O6 O 0.08486 0.32551 0.17807 0.0
O7 O 0.17076 0.23766 0.22793 0.0
O8 O 0.26345 0.25351 0.24463 0.0
O9 O 0.27928 0.39411 0.16605 0.0
O10 O 0.30153 0.37185 0.20662 0.0
C11 C 0.20259 0.22405 0.24473 0.0
C12 C 0.32053 0.4066 0.1852 0.0
O13 O 0.11572 0.25411 0.16835 0.0
Mg14 Mg 0.90096 0.22496 0.52378 0.0
O15 O -0.00415 0.2517 0.50396 0.0
O16 O 0.07351 0.34268 0.52255 0.0
Mg17 Mg 0.03037 0.36705 0.55862 0.0
C18 C 0.05373 0.29695 0.50516 0.0
C19 C 0.79554 0.09936 0.49397 0.0
O20 O 0.76101 0.12499 0.50168 0.0
O21 O 0.92558 0.1808 0.56028 0.0
O22 O 0.00512 0.27137 0.57828 0.0
O23 O 0.89604 0.3005 0.49704 0.0
O24 O 0.9381 0.31915 0.538 0.0
C25 C 0.96958 0.21014 0.57805 0.0
C26 C 0.92659 0.3412 0.51642 0.0
O27 O 0.85462 0.12863 0.4999 0.0
Mg28 Mg 0.65701 0.91223 0.8645 0.0
O29 O 0.71732 0.00289 0.83993 0.0
O30 O 0.69961 0.08143 0.85438 0.0
Mg31 Mg 0.63712 0.04499 0.89204 0.0
C32 C 0.72574 0.05972 0.83815 0.0
C33 C 0.71141 0.85359 0.81957 0.0
O34 O 0.68063 0.8708 0.80272 0.0
O35 O 0.72942 0.95311 0.89981 0.0
O36 O 0.71373 0.03324 0.91377 0.0
O37 O 0.57168 0.89252 0.83766 0.0
O38 O 0.59694 0.94688 0.87624 0.0
C39 C 0.74282 0.00124 0.91546 0.0
C40 C 0.56088 0.92634 0.8553 0.0
O41 O 0.71016 0.86413 0.84495 0.0
Mg42 Mg 0.71317 0.6494 0.18987 0.0
O43 O 0.69737 0.72418 0.16843 0.0
O44 O 0.62252 0.73523 0.19075 0.0
Mg45 Mg 0.58789 0.66564 0.22612 0.0
C46 C 0.6629 0.75016 0.17154 0.0
C47 C 0.84636 0.74109 0.16095 0.0
O48 O 0.83617 0.78573 0.17148 0.0
O49 O 0.76748 0.72101 0.22504 0.0
O50 O 0.68608 0.72483 0.24482 0.0
O51 O 0.63141 0.57124 0.16498 0.0
O52 O 0.62036 0.60627 0.20499 0.0
C53 C 0.74518 0.7425 0.24344 0.0
C54 C 0.5941 0.57014 0.18416 0.0
O55 O 0.80552 0.68199 0.16499 0.0
Mg56 Mg 0.0633 0.73541 0.52123 0.0
O57 O 0.96848 0.70709 0.50114 0.0
O58 O 0.89055 0.61758 0.52026 0.0
Mg59 Mg 0.93362 0.59641 0.55697 0.0
C60 C 0.91054 0.66203 0.50248 0.0
C61 C 0.16979 0.86146 0.49264 0.0
O62 O 0.20506 0.83871 0.50239 0.0
O63 O 0.03818 0.78274 0.55662 0.0
O64 O 0.95803 0.69387 0.5751 0.0
O65 O 0.06839 0.65783 0.49555 0.0
O66 O 0.02592 0.64241 0.53638 0.0
C67 C -0.00649 0.75505 0.57418 0.0
C68 C 0.03752 0.61865 0.51519 0.0
O69 O 0.10988 0.82998 0.4967 0.0
Mg70 Mg 0.3117 0.07067 0.85704 0.0
O71 O 0.2387 0.97827 0.83565 0.0
O72 O 0.23873 0.89421 0.85536 0.0
Mg73 Mg 0.30237 0.93058 0.89254 0.0
C74 C 0.21943 0.91814 0.83714 0.0
C75 C 0.21881 0.11361 0.82953 0.0
O76 O 0.17501 0.06159 0.8418 0.0
O77 O 0.24034 0.0519 0.89204 0.0
O78 O 0.23863 0.96595 0.91059 0.0
O79 O 0.3909 0.06814 0.83231 0.0
O80 O 0.35771 0.02342 0.87238 0.0
C81 C 0.21928 0.00666 0.90967 0.0
C82 C 0.39374 0.03335 0.85171 0.0
O83 O 0.27715 0.12912 0.83197 0.0
Mg84 Mg 0.65863 0.73341 0.40236 0.0
O85 O 0.72397 0.70496 0.42349 0.0
O86 O 0.71139 0.61298 0.40575 0.0
Mg87 Mg 0.64636 0.58887 0.36907 0.0
C88 C 0.73632 0.65911 0.42297 0.0
C89 C 0.6758 0.85623 0.43424 0.0
O90 O 0.61437 0.82711 0.42913 0.0
O91 O 0.73014 0.77529 0.36665 0.0
O92 O 0.71884 0.68342 0.34941 0.0
O93 O 0.57596 0.65961 0.42851 0.0
O94 O 0.60206 0.63934 0.38824 0.0
C95 C 0.74533 0.74481 0.34942 0.0
C96 C 0.56671 0.61838 0.40939 0.0
O97 O 0.70755 0.83015 0.42594 0.0
Mg98 Mg 0.89948 0.66697 0.73287 0.0
O99 O -0.00866 0.73591 0.75517 0.0
O100 O 0.07058 0.72341 0.73829 0.0
Mg101 Mg 0.03321 0.65665 0.70171 0.0
C102 C 0.04919 0.74875 0.75514 0.0
C103 C 0.84928 0.72903 0.77852 0.0
O104 O 0.88291 0.71492 0.79513 0.0
O105 O 0.92962 0.73736 0.69669 0.0
O106 O 0.01116 0.72778 0.68075 0.0
O107 O 0.89017 0.58438 0.75987 0.0
O108 O 0.93892 0.61105 0.72036 0.0
C109 C -0.02426 0.75319 0.67999 0.0
C110 C 0.92359 0.57557 0.74151 0.0
O111 O 0.84736 0.71519 0.75333 0.0
Mg112 Mg 0.2088 0.91185 0.06885 0.0
O113 O 0.24365 0.00807 0.08987 0.0
O114 O 0.33818 0.08307 0.07377 0.0
Mg115 Mg 0.35794 0.03635 0.03729 0.0
C116 C 0.29159 0.06488 0.09024 0.0
C117 C 0.07575 0.81548 0.09745 0.0
O118 O 0.08977 0.77183 0.08905 0.0
O119 O 0.17348 0.94657 0.03256 0.0
O120 O 0.26785 0.02278 0.01656 0.0
O121 O 0.27583 0.89589 0.09608 0.0
O122 O 0.30106 0.94089 0.05559 0.0
C123 C 0.20699 -0.00812 0.01579 0.0
C124 C 0.31825 0.92441 0.07728 0.0
O125 O 0.11394 0.87455 0.09208 0.0
Mg126 Mg 0.30507 0.22623 0.40249 0.0
O127 O 0.23879 0.25327 0.42428 0.0
O128 O 0.24908 0.34404 0.40677 0.0
Mg129 Mg 0.31283 0.3681 0.36959 0.0
C130 C 0.22543 0.29843 0.42405 0.0
C131 C 0.29006 0.10471 0.43429 0.0
O132 O 0.35173 0.13464 0.42967 0.0
O133 O 0.23309 0.18186 0.36709 0.0
O134 O 0.24116 0.27225 0.35022 0.0
O135 O 0.38763 0.30187 0.42836 0.0
O136 O 0.35968 0.32019 0.38835 0.0
C137 C 0.21616 0.21101 0.3502 0.0
C138 C 0.39548 0.34235 0.40934 0.0
O139 O 0.25794 0.12999 0.42583 0.0
Mg140 Mg 0.04696 0.30774 0.73853 0.0
O141 O 0.95068 0.24132 0.75715 0.0
O142 O 0.87384 0.25362 0.73802 0.0
Mg143 Mg 0.92066 0.32054 0.70206 0.0
C144 C 0.89293 0.22805 0.75558 0.0
C145 C 0.1447 0.26835 0.76479 0.0
O146 O 0.1873 0.31715 0.75048 0.0
O147 O 0.02249 0.23681 0.7024 0.0
O148 O 0.94441 0.2476 0.68346 0.0
O149 O 0.05223 0.39036 0.76453 0.0
O150 O 0.01272 0.3659 0.72315 0.0
C151 C -0.02099 0.22126 0.68438 0.0
C152 C 0.02385 0.40069 0.74454 0.0
O153 O 0.08668 0.25463 0.76395 0.0
Mg154 Mg 0.71049 0.07538 0.07473 0.0
O155 O 0.69525 0.98472 0.09603 0.0
O156 O 0.62117 0.89776 0.07363 0.0
Mg157 Mg 0.58661 0.93228 0.03819 0.0
C158 C 0.66134 0.92388 0.09289 0.0
C159 C 0.84427 0.11867 0.10252 0.0
O160 O 0.83478 0.06524 0.09066 0.0
O161 O 0.7657 0.05972 0.03969 0.0
O162 O 0.68524 0.97303 0.01982 0.0
O163 O 0.62802 0.07006 0.0994 0.0
O164 O 0.61793 0.02427 0.05937 0.0
C165 C 0.74414 0.01559 0.02137 0.0
C166 C 0.59114 0.03352 0.08011 0.0
O167 O 0.80251 0.13578 0.09978 0.0
C168 C 0.91404 0.21528 0.13187 0.0
C169 C 0.903 0.15812 0.11885 0.0
H170 H -0.02352 0.29589 0.15693 0.0
C171 C 0.94882 0.13875 0.12157 0.0
H172 H 0.87981 0.23165 0.13024 0.0
C173 C 0.00425 0.17556 0.13686 0.0
C174 C 0.01538 0.23276 0.14987 0.0
H175 H 0.942 0.09501 0.11185 0.0
H176 H 0.03843 0.15908 0.13845 0.0
C177 C 0.96955 0.25214 0.1472 0.0
C178 C 0.80161 0.00898 0.46994 0.0
C179 C 0.7656 0.03721 0.47864 0.0
H180 H 0.80182 0.92995 0.44914 0.0
C181 C 0.70012 0.00532 0.47255 0.0
H182 H 0.85216 0.03216 0.47426 0.0
C183 C 0.67132 0.94686 0.45819 0.0
C184 C 0.70716 0.91852 0.44948 0.0
H185 H 0.67079 0.02548 0.47888 0.0
H186 H 0.62076 0.92389 0.45394 0.0
C187 C 0.77273 0.95033 0.45552 0.0
C188 C 0.74633 0.80806 0.78118 0.0
C189 C 0.74689 0.8219 0.80909 0.0
H190 H 0.77776 0.76806 0.74967 0.0
C191 C 0.7816 0.80497 0.82684 0.0
H192 H 0.72019 0.82035 0.76688 0.0
C193 C 0.81477 0.77498 0.81693 0.0
C194 C 0.81405 0.76098 0.78903 0.0
H195 H 0.78323 0.8149 0.84845 0.0
H196 H 0.84095 0.7627 0.83122 0.0
C197 C 0.77939 0.77796 0.77128 0.0
C198 C 0.94814 0.8251 0.13922 0.0
C199 C 0.90476 0.75977 0.14454 0.0
H200 H 0.03559 0.89387 0.12025 0.0
C201 C 0.91793 0.71287 0.13403 0.0
H202 H 0.9396 0.86259 0.14693 0.0
C203 C 0.97323 0.73089 0.1187 0.0
C204 C 0.01664 0.79625 0.11344 0.0
H205 H 0.88564 0.66213 0.1377 0.0
H206 H -0.0181 0.69347 0.11101 0.0
C207 C 0.00328 0.84309 0.12385 0.0
C208 C 0.1925 0.00886 0.45385 0.0
C209 C 0.25868 0.04231 0.44911 0.0
H210 H 0.11244 0.92566 0.47117 0.0
C211 C 0.29496 0.01546 0.4587 0.0
H212 H 0.16305 0.02805 0.44675 0.0
C213 C 0.26601 0.95689 0.47269 0.0
C214 C 0.19991 0.9234 0.47748 0.0
H215 H 0.34599 0.03974 0.45544 0.0
H216 H 0.29566 0.93792 0.47978 0.0
C217 C 0.16345 0.95007 0.46784 0.0
C218 C 0.13588 0.13754 0.8113 0.0
C219 C 0.20016 0.15357 0.81304 0.0
H220 H 0.06803 0.16088 0.79494 0.0
C221 C 0.24608 0.20796 0.79884 0.0
H222 H 0.09915 0.09606 0.82195 0.0
C223 C 0.22815 0.24519 0.78325 0.0
C224 C 0.16385 0.22911 0.78151 0.0
H225 H 0.296 0.22179 0.79967 0.0
H226 H 0.26482 0.28662 0.77255 0.0
C227 C 0.11799 0.17483 0.79579 0.0
C228 C 0.49047 0.50247 0.15838 0.0
C229 C 0.52354 0.53124 0.18268 0.0
H230 H 0.39886 0.44097 0.13973 0.0
C231 C 0.48839 0.52231 0.20665 0.0
H232 H 0.5163 0.50867 0.13957 0.0
C233 C 0.42238 0.48439 0.20669 0.0
C234 C 0.38912 0.45433 0.18276 0.0
H235 H 0.51194 0.54309 0.2258 0.0
H236 H 0.39728 0.47721 0.2258 0.0
C237 C 0.42343 0.46448 0.15839 0.0
C238 C -0.00412 0.51403 0.5384 0.0
C239 C 0.01104 0.54789 0.51377 0.0
H240 H 0.95648 0.42358 0.55825 0.0
C241 C -0.00307 0.51292 0.48915 0.0
H242 H 0.00618 0.53918 0.55776 0.0
C243 C 0.96756 0.445 0.48944 0.0
C244 C 0.95284 0.41179 0.51435 0.0
H245 H 0.00762 0.53777 0.46985 0.0
H246 H 0.95741 0.4188 0.47036 0.0
C247 C 0.96728 0.44736 0.53868 0.0
C248 C 0.44438 0.979 0.87512 0.0
C249 C 0.43407 0.00272 0.85074 0.0
H250 H 0.49094 0.93534 0.89518 0.0
C251 C 0.4623 -0.00363 0.82665 0.0
H252 H 0.42415 0.98343 0.89415 0.0
C253 C 0.501 0.9677 0.82728 0.0
C254 C 0.51227 0.94594 0.85206 0.0
H255 H 0.45505 0.01403 0.80753 0.0
H256 H 0.52413 0.96513 0.8088 0.0
C257 C 0.48281 0.95124 0.87576 0.0
C258 C 0.50175 0.51445 0.43593 0.0
C259 C 0.52076 0.54833 0.41119 0.0
H260 H 0.44771 0.42132 0.45505 0.0
C261 C 0.49882 0.51376 0.3867 0.0
H262 H 0.51849 0.53992 0.45512 0.0
C263 C 0.45941 0.44733 0.38665 0.0
C264 C 0.44043 0.41274 0.4111 0.0
H265 H 0.51233 0.53817 0.36726 0.0
H266 H 0.44393 0.42292 0.36717 0.0
C267 C 0.46206 0.44675 0.43588 0.0
C268 C 0.96395 0.50933 0.72001 0.0
C269 C 0.94747 0.52951 0.74405 0.0
H270 H 0.00141 0.45472 0.70159 0.0
C271 C 0.95747 0.50786 0.76917 0.0
H272 H 0.95678 0.52467 0.70028 0.0
C273 C -0.01584 0.46716 0.76994 0.0
C274 C 0.0001 0.44709 0.74559 0.0
H275 H 0.94565 0.52304 0.78805 0.0
H276 H -0.00878 0.45063 0.78938 0.0
C277 C -0.01036 0.46892 0.72076 0.0
C278 C 0.42001 0.96942 0.10481 0.0
C279 C 0.38628 0.94422 0.08036 0.0
H280 H 0.5124 0.01889 0.12404 0.0
C281 C 0.41994 0.94584 0.05684 0.0
H282 H 0.39514 0.96958 0.12314 0.0
C283 C 0.48585 0.97372 0.05728 0.0
C284 C 0.52053 0.00126 0.08127 0.0
H285 H 0.39526 0.92708 0.03768 0.0
H286 H 0.50972 0.97549 0.03836 0.0
C287 C 0.48697 -0.00179 0.10522 0.0
C288 C 0.23469 0.10297 0.12045 0.0
C289 C 0.29248 0.11049 0.11062 0.0
H290 H 0.18921 0.13818 0.14721 0.0
C291 C 0.35028 0.1605 0.12092 0.0
H292 H 0.18945 0.06487 0.11278 0.0
C293 C 0.35012 0.20185 0.14109 0.0
C294 C 0.29218 0.19453 0.15069 0.0
H295 H 0.39544 0.16692 0.11375 0.0
H296 H 0.39518 0.24002 0.14886 0.0
C297 C 0.23456 0.14498 0.1401 0.0
C298 C 0.14839 0.3561 0.47519 0.0
C299 C 0.09869 0.29742 0.48497 0.0
H300 H 0.22696 0.40228 0.44757 0.0
C301 C 0.09094 0.23915 0.47466 0.0
H302 H 0.15489 0.40162 0.48272 0.0
C303 C 0.13271 0.23953 0.45499 0.0
C304 C 0.18172 0.29818 0.44484 0.0
H305 H 0.05291 0.19332 0.48195 0.0
H306 H 0.12607 0.19398 0.4474 0.0
C307 C 0.18915 0.35647 0.45499 0.0
C308 C 0.79702 0.19025 0.78508 0.0
C309 C 0.84765 0.1829 0.77548 0.0
H310 H 0.7191 0.15736 0.81308 0.0
C311 C 0.85697 0.13395 0.7861 0.0
H312 H 0.78924 0.22798 0.77727 0.0
C313 C 0.81652 0.09314 0.80618 0.0
C314 C 0.76704 0.10164 0.8164 0.0
H315 H 0.89565 0.12728 0.77891 0.0
H316 H 0.82487 0.0559 0.81412 0.0
C317 C 0.75739 0.15033 0.80566 0.0
C318 C 0.66837 0.89604 0.14076 0.0
C319 C 0.66675 0.88205 0.11292 0.0
H320 H 0.66695 0.86357 0.18143 0.0
C321 C 0.66734 0.82633 0.10443 0.0
H322 H 0.66768 0.93879 0.14762 0.0
C323 C 0.66893 0.7846 0.12365 0.0
C324 C 0.6677 0.79716 0.15149 0.0
H325 H 0.66632 0.81503 0.08298 0.0
H326 H 0.66862 0.74134 0.11679 0.0
C327 C 0.66772 0.85318 0.15998 0.0
C328 C 0.831 0.71838 0.45283 0.0
C329 C 0.78085 0.65955 0.44321 0.0
H330 H 0.91224 0.76506 0.47901 0.0
C331 C 0.77315 0.60143 0.45335 0.0
H332 H 0.83788 0.7638 0.44522 0.0
C333 C 0.81472 0.60219 0.47311 0.0
C334 C 0.86542 0.66104 0.48242 0.0
H335 H 0.73448 0.55552 0.44631 0.0
H336 H 0.80791 0.55682 0.48075 0.0
C337 C 0.87351 0.7191 0.47204 0.0
C338 C 0.12841 0.88629 0.80532 0.0
C339 C 0.17522 0.87487 0.81637 0.0
H340 H 0.05032 0.85383 0.7774 0.0
C341 C 0.18036 0.8221 0.80715 0.0
H342 H 0.12366 0.92675 0.81224 0.0
C343 C 0.13985 0.78173 0.78686 0.0
C344 C 0.09251 0.79253 0.77603 0.0
H345 H 0.21645 0.8127 0.81528 0.0
H346 H 0.14492 0.74144 0.77995 0.0
C347 C 0.08658 0.8447 0.78554 0.0
C348 C 0.20171 0.14614 0.30892 0.0
C349 C 0.17892 0.1778 0.3257 0.0
H350 H 0.22574 0.13507 0.26807 0.0
C351 C 0.14037 0.20003 0.31415 0.0
H352 H 0.23124 0.12825 0.31728 0.0
C353 C 0.13657 0.20332 0.28585 0.0
C354 C 0.17203 0.18513 0.26913 0.0
H355 H 0.12168 0.22409 0.32676 0.0
H356 H 0.11524 0.22995 0.27754 0.0
C357 C 0.19867 0.15023 0.28063 0.0
C358 C 0.03009 0.20115 0.61659 0.0
C359 C 0.9713 0.17737 0.60308 0.0
H360 H 0.07875 0.23181 0.65477 0.0
C361 C 0.91492 0.14392 0.61821 0.0
H362 H 0.07431 0.22653 0.60529 0.0
C363 C 0.91751 0.14752 0.64664 0.0
C364 C -0.02354 0.18381 0.65998 0.0
H365 H 0.86895 0.12473 0.60836 0.0
H366 H 0.87338 0.13062 0.65782 0.0
C367 C 0.03267 0.2041 0.64503 0.0
C368 C 0.80864 0.07652 -0.01805 0.0
C369 C 0.78265 0.01991 -0.00264 0.0
H370 H 0.81772 0.115 0.94198 0.0
C371 C 0.7699 0.96205 -0.01558 0.0
H372 H 0.81947 0.12188 -0.00859 0.0
C373 C 0.76895 0.95799 0.956 0.0
C374 C 0.78035 0.01178 0.94055 0.0
H375 H 0.75062 0.91783 -0.00401 0.0
H376 H 0.74907 0.91079 0.94659 0.0
C377 C 0.80723 0.0724 0.95353 0.0
C378 C 0.81282 0.74807 0.28197 0.0
C379 C 0.78296 0.7763 0.26777 0.0
H380 H 0.82589 0.71746 0.32102 0.0
C381 C 0.76688 0.81744 0.28202 0.0
H382 H 0.82641 0.71677 0.27152 0.0
C383 C 0.76649 0.81786 0.31048 0.0
C384 C 0.78202 0.77694 0.32467 0.0
H385 H 0.74476 0.84074 0.2714 0.0
H386 H 0.744 0.84134 0.32089 0.0
C387 C 0.81219 0.74826 0.31044 0.0
C388 C 0.93051 0.76834 0.6107 0.0
C389 C -0.00975 0.79037 0.59824 0.0
H390 H 0.87882 0.74149 0.64822 0.0
C391 C 0.04548 0.82496 0.61399 0.0
H392 H 0.88717 0.74222 0.59886 0.0
C393 C 0.04066 0.82402 0.64237 0.0
C394 C -0.01937 0.78909 0.65497 0.0
H395 H 0.09213 0.84292 0.60491 0.0
H396 H 0.08384 0.84163 0.65429 0.0
C397 C 0.92569 0.76803 0.63907 0.0
C398 C 0.20892 0.06094 -0.02194 0.0
C399 C 0.17839 0.00028 -0.00923 0.0
H400 H 0.24366 0.11114 0.94044 0.0
C401 C 0.1391 0.94554 -0.02496 0.0
H402 H 0.23881 0.10409 -0.01015 0.0
C403 C 0.14223 0.94961 0.94663 0.0
C404 C 0.1842 0.00844 0.93395 0.0
H405 H 0.1146 0.89825 -0.01573 0.0
H406 H 0.11996 0.90526 0.93486 0.0
C407 C 0.21147 0.06508 0.94965 0.0
loop_
_geom_bond_atom_site_label_1
_geom_bond_atom_site_label_2
_geom_bond_distance
_geom_bond_site_symmetry_2
_ccdc_geom_bond_type
Mg0 O1 2.028 . S
Mg0 O7 1.986 . S
Mg0 O9 2.114 . S
Mg0 O10 2.251 . S
Mg0 O13 2.010 . S
O1 Mg0 2.028 . S
O1 C4 1.250 . S
O2 Mg3 2.028 . S
O2 C4 1.248 . S
Mg3 O2 2.028 . S
Mg3 O8 2.032 . S
Mg3 O10 2.079 . S
C4 O1 1.250 . S
C4 O2 1.248 . S
C5 O6 1.264 . S
C5 O13 1.249 . S
O6 C5 1.264 . S
O7 Mg0 1.986 . S
O7 C11 1.246 . S
O8 Mg3 2.032 . S
O8 C11 1.259 . S
O9 Mg0 2.114 . S
O9 C12 1.252 . S
O10 Mg0 2.251 . S
O10 Mg3 2.079 . S
O10 C12 1.273 . S
C11 O7 1.246 . S
C11 O8 1.259 . S
C12 O9 1.252 . S
C12 O10 1.273 . S
O13 Mg0 2.010 . S
O13 C5 1.249 . S
Mg14 O15 2.028 . S
Mg14 O21 1.986 . S
Mg14 O23 2.114 . S
Mg14 O24 2.251 . S
Mg14 O27 2.010 . S
O15 Mg14 2.028 . S
O15 C18 1.250 1_655 S
O16 Mg17 2.028 . S
O16 C18 1.248 . S
Mg17 O16 2.028 . S
Mg17 O22 2.032 . S
Mg17 O24 2.079 1_455 S
C18 O15 1.250 1_455 S
C18 O16 1.248 . S
C19 O20 1.264 . S
C19 O27 1.249 . S
O20 C19 1.264 . S
O21 Mg14 1.986 . S
O21 C25 1.246 . S
O22 Mg17 2.032 . S
O22 C25 1.259 1_455 S
O23 Mg14 2.114 . S
O23 C26 1.252 . S
O24 Mg14 2.251 . S
O24 Mg17 2.079 1_655 S
O24 C26 1.273 . S
C25 O21 1.246 . S
C25 O22 1.259 1_655 S
C26 O23 1.252 . S
C26 O24 1.273 . S
O27 Mg14 2.010 . S
O27 C19 1.249 . S
Mg28 O29 2.028 . S
Mg28 O35 1.986 . S
Mg28 O37 2.114 . S
Mg28 O38 2.251 . S
Mg28 O41 2.010 . S
O29 Mg28 2.028 . S
O29 C32 1.250 1_565 S
O30 Mg31 2.028 . S
O30 C32 1.248 . S
Mg31 O30 2.028 . S
Mg31 O36 2.032 . S
Mg31 O38 2.079 1_545 S
C32 O29 1.250 1_545 S
C32 O30 1.248 . S
C33 O34 1.264 . S
C33 O41 1.249 . S
O34 C33 1.264 . S
O35 Mg28 1.986 . S
O35 C39 1.246 . S
O36 Mg31 2.032 . S
O36 C39 1.259 1_545 S
O37 Mg28 2.114 . S
O37 C40 1.252 . S
O38 Mg28 2.251 . S
O38 Mg31 2.079 1_565 S
O38 C40 1.273 . S
C39 O35 1.246 . S
C39 O36 1.259 1_565 S
C40 O37 1.252 . S
C40 O38 1.273 . S
O41 Mg28 2.010 . S
O41 C33 1.249 . S
Mg42 O43 2.028 . S
Mg42 O49 1.986 . S
Mg42 O51 2.114 . S
Mg42 O52 2.251 . S
Mg42 O55 2.010 . S
O43 Mg42 2.028 . S
O43 C46 1.250 . S
O44 Mg45 2.028 . S
O44 C46 1.248 . S
Mg45 O44 2.028 . S
Mg45 O50 2.032 . S
Mg45 O52 2.079 . S
C46 O43 1.250 . S
C46 O44 1.248 . S
C47 O48 1.264 . S
C47 O55 1.249 . S
O48 C47 1.264 . S
O49 Mg42 1.986 . S
O49 C53 1.246 . S
O50 Mg45 2.032 . S
O50 C53 1.259 . S
O51 Mg42 2.114 . S
O51 C54 1.252 . S
O52 Mg42 2.251 . S
O52 Mg45 2.079 . S
O52 C54 1.273 . S
C53 O49 1.246 . S
C53 O50 1.259 . S
C54 O51 1.252 . S
C54 O52 1.273 . S
O55 Mg42 2.010 . S
O55 C47 1.249 . S
Mg56 O57 2.028 . S
Mg56 O63 1.986 . S
Mg56 O65 2.114 . S
Mg56 O66 2.251 . S
Mg56 O69 2.010 . S
O57 Mg56 2.028 . S
O57 C60 1.250 1_455 S
O58 Mg59 2.028 . S
O58 C60 1.248 . S
Mg59 O58 2.028 . S
Mg59 O64 2.032 . S
Mg59 O66 2.079 1_655 S
C60 O57 1.250 1_655 S
C60 O58 1.248 . S
C61 O62 1.264 . S
C61 O69 1.249 . S
O62 C61 1.264 . S
O63 Mg56 1.986 . S
O63 C67 1.246 . S
O64 Mg59 2.032 . S
O64 C67 1.259 1_655 S
O65 Mg56 2.114 . S
O65 C68 1.252 . S
O66 Mg56 2.251 . S
O66 Mg59 2.079 1_455 S
O66 C68 1.273 . S
C67 O63 1.246 . S
C67 O64 1.259 1_455 S
C68 O65 1.252 . S
C68 O66 1.273 . S
O69 Mg56 2.010 . S
O69 C61 1.249 . S
Mg70 O71 2.028 . S
Mg70 O77 1.986 . S
Mg70 O79 2.114 . S
Mg70 O80 2.251 . S
Mg70 O83 2.010 . S
O71 Mg70 2.028 . S
O71 C74 1.250 1_545 S
O72 Mg73 2.028 . S
O72 C74 1.248 . S
Mg73 O72 2.028 . S
Mg73 O78 2.032 . S
Mg73 O80 2.079 1_565 S
C74 O71 1.250 1_565 S
C74 O72 1.248 . S
C75 O76 1.264 . S
C75 O83 1.249 . S
O76 C75 1.264 . S
O77 Mg70 1.986 . S
O77 C81 1.246 . S
O78 Mg73 2.032 . S
O78 C81 1.259 1_565 S
O79 Mg70 2.114 . S
O79 C82 1.252 . S
O80 Mg70 2.251 . S
O80 Mg73 2.079 1_545 S
O80 C82 1.273 . S
C81 O77 1.246 . S
C81 O78 1.259 1_545 S
C82 O79 1.252 . S
C82 O80 1.273 . S
O83 Mg70 2.010 . S
O83 C75 1.249 . S
Mg84 O85 2.028 . S
Mg84 O91 1.986 . S
Mg84 O93 2.114 . S
Mg84 O94 2.251 . S
Mg84 O97 2.010 . S
O85 Mg84 2.028 . S
O85 C88 1.250 . S
O86 Mg87 2.028 . S
O86 C88 1.248 . S
Mg87 O86 2.028 . S
Mg87 O92 2.032 . S
Mg87 O94 2.079 . S
C88 O85 1.250 . S
C88 O86 1.248 . S
C89 O90 1.264 . S
C89 O97 1.249 . S
O90 C89 1.264 . S
O91 Mg84 1.986 . S
O91 C95 1.246 . S
O92 Mg87 2.032 . S
O92 C95 1.259 . S
O93 Mg84 2.114 . S
O93 C96 1.252 . S
O94 Mg84 2.251 . S
O94 Mg87 2.079 . S
O94 C96 1.273 . S
C95 O91 1.246 . S
C95 O92 1.259 . S
C96 O93 1.252 . S
C96 O94 1.273 . S
O97 Mg84 2.010 . S
O97 C89 1.249 . S
Mg98 O99 2.028 . S
Mg98 O105 1.986 . S
Mg98 O107 2.114 . S
Mg98 O108 2.251 . S
Mg98 O111 2.010 . S
O99 Mg98 2.028 . S
O99 C102 1.250 1_655 S
O100 Mg101 2.028 . S
O100 C102 1.248 . S
Mg101 O100 2.028 . S
Mg101 O106 2.032 . S
Mg101 O108 2.079 1_455 S
C102 O99 1.250 1_455 S
C102 O100 1.248 . S
C103 O104 1.264 . S
C103 O111 1.249 . S
O104 C103 1.264 . S
O105 Mg98 1.986 . S
O105 C109 1.246 . S
O106 Mg101 2.032 . S
O106 C109 1.259 1_455 S
O107 Mg98 2.114 . S
O107 C110 1.252 . S
O108 Mg98 2.251 . S
O108 Mg101 2.079 1_655 S
O108 C110 1.273 . S
C109 O105 1.246 . S
C109 O106 1.259 1_655 S
C110 O107 1.252 . S
C110 O108 1.273 . S
O111 Mg98 2.010 . S
O111 C103 1.249 . S
Mg112 O113 2.028 . S
Mg112 O119 1.986 . S
Mg112 O121 2.114 . S
Mg112 O122 2.251 . S
Mg112 O125 2.010 . S
O113 Mg112 2.028 . S
O113 C116 1.250 1_565 S
O114 Mg115 2.028 . S
O114 C116 1.248 . S
Mg115 O114 2.028 . S
Mg115 O120 2.032 . S
Mg115 O122 2.079 1_545 S
C116 O113 1.250 1_545 S
C116 O114 1.248 . S
C117 O118 1.264 . S
C117 O125 1.249 . S
O118 C117 1.264 . S
O119 Mg112 1.986 . S
O119 C123 1.246 . S
O120 Mg115 2.032 . S
O120 C123 1.259 1_545 S
O121 Mg112 2.114 . S
O121 C124 1.252 . S
O122 Mg112 2.251 . S
O122 Mg115 2.079 1_565 S
O122 C124 1.273 . S
C123 O119 1.246 . S
C123 O120 1.259 1_565 S
C124 O121 1.252 . S
C124 O122 1.273 . S
O125 Mg112 2.010 . S
O125 C117 1.249 . S
Mg126 O127 2.028 . S
Mg126 O133 1.986 . S
Mg126 O135 2.114 . S
Mg126 O136 2.251 . S
Mg126 O139 2.010 . S
O127 Mg126 2.028 . S
O127 C130 1.250 . S
O128 Mg129 2.028 . S
O128 C130 1.248 . S
Mg129 O128 2.028 . S
Mg129 O134 2.032 . S
Mg129 O136 2.079 . S
C130 O127 1.250 . S
C130 O128 1.248 . S
C131 O132 1.264 . S
C131 O139 1.249 . S
O132 C131 1.264 . S
O133 Mg126 1.986 . S
O133 C137 1.246 . S
O134 Mg129 2.032 . S
O134 C137 1.259 . S
O135 Mg126 2.114 . S
O135 C138 1.252 . S
O136 Mg126 2.251 . S
O136 Mg129 2.079 . S
O136 C138 1.273 . S
C137 O133 1.246 . S
C137 O134 1.259 . S
C138 O135 1.252 . S
C138 O136 1.273 . S
O139 Mg126 2.010 . S
O139 C131 1.249 . S
Mg140 O141 2.028 . S
Mg140 O147 1.986 . S
Mg140 O149 2.114 . S
Mg140 O150 2.251 . S
Mg140 O153 2.010 . S
O141 Mg140 2.028 . S
O141 C144 1.250 1_455 S
O142 Mg143 2.028 . S
O142 C144 1.248 . S
Mg143 O142 2.028 . S
Mg143 O148 2.032 . S
Mg143 O150 2.079 1_655 S
C144 O141 1.250 1_655 S
C144 O142 1.248 . S
C145 O146 1.264 . S
C145 O153 1.249 . S
O146 C145 1.264 . S
O147 Mg140 1.986 . S
O147 C151 1.246 . S
O148 Mg143 2.032 . S
O148 C151 1.259 1_655 S
O149 Mg140 2.114 . S
O149 C152 1.252 . S
O150 Mg140 2.251 . S
O150 Mg143 2.079 1_455 S
O150 C152 1.273 . S
C151 O147 1.246 . S
C151 O148 1.259 1_455 S
C152 O149 1.252 . S
C152 O150 1.273 . S
O153 Mg140 2.010 . S
O153 C145 1.249 . S
Mg154 O155 2.028 . S
Mg154 O161 1.986 . S
Mg154 O163 2.114 . S
Mg154 O164 2.251 . S
Mg154 O167 2.010 . S
O155 Mg154 2.028 . S
O155 C158 1.250 1_545 S
O156 Mg157 2.028 . S
O156 C158 1.248 . S
Mg157 O156 2.028 . S
Mg157 O162 2.032 . S
Mg157 O164 2.079 1_565 S
C158 O155 1.250 1_565 S
C158 O156 1.248 . S
C159 O160 1.264 . S
C159 O167 1.249 . S
O160 C159 1.264 . S
O161 Mg154 1.986 . S
O161 C165 1.246 . S
O162 Mg157 2.032 . S
O162 C165 1.259 1_565 S
O163 Mg154 2.114 . S
O163 C166 1.252 . S
O164 Mg154 2.251 . S
O164 Mg157 2.079 1_545 S
O164 C166 1.273 . S
C165 O161 1.246 . S
C165 O162 1.259 1_545 S
C166 O163 1.252 . S
C166 O164 1.273 . S
O167 Mg154 2.010 . S
O167 C159 1.249 . S
C168 C169 1.387 . S
C168 H172 0.950 . S
C168 C177 1.390 1_655 S
C169 C168 1.387 . S
C169 C171 1.387 . S
H170 C177 0.950 . S
C171 C169 1.387 . S
C171 C173 1.390 1_655 S
C171 H175 0.950 . S
H172 C168 0.950 . S
C173 C171 1.390 1_455 S
C173 C174 1.387 . S
C173 H176 0.950 . S
C174 C173 1.387 . S
C174 C177 1.387 . S
H175 C171 0.950 . S
H176 C173 0.950 . S
C177 C168 1.390 1_455 S
C177 H170 0.950 . S
C177 C174 1.387 . S
C178 C179 1.387 . S
C178 H182 0.950 . S
C178 C187 1.390 1_545 S
C179 C178 1.387 . S
C179 C181 1.387 . S
H180 C187 0.950 . S
C181 C179 1.387 . S
C181 C183 1.390 1_545 S
C181 H185 0.950 . S
H182 C178 0.950 . S
C183 C181 1.390 1_565 S
C183 C184 1.387 . S
C183 H186 0.950 . S
C184 C183 1.387 . S
C184 C187 1.387 . S
H185 C181 0.950 . S
H186 C183 0.950 . S
C187 C178 1.390 1_565 S
C187 H180 0.950 . S
C187 C184 1.387 . S
C188 C189 1.387 . S
C188 H192 0.950 . S
C188 C197 1.390 . S
C189 C188 1.387 . S
C189 C191 1.387 . S
H190 C197 0.950 . S
C191 C189 1.387 . S
C191 C193 1.390 . S
C191 H195 0.950 . S
H192 C188 0.950 . S
C193 C191 1.390 . S
C193 C194 1.387 . S
C193 H196 0.950 . S
C194 C193 1.387 . S
C194 C197 1.387 . S
H195 C191 0.950 . S
H196 C193 0.950 . S
C197 C188 1.390 . S
C197 H190 0.950 . S
C197 C194 1.387 . S
C198 C199 1.387 . S
C198 H202 0.950 . S
C198 C207 1.390 1_655 S
C199 C198 1.387 . S
C199 C201 1.387 . S
H200 C207 0.950 . S
C201 C199 1.387 . S
C201 C203 1.390 1_655 S
C201 H205 0.950 . S
H202 C198 0.950 . S
C203 C201 1.390 1_455 S
C203 C204 1.387 . S
C203 H206 0.950 . S
C204 C203 1.387 . S
C204 C207 1.387 . S
H205 C201 0.950 . S
H206 C203 0.950 . S
C207 C198 1.390 1_455 S
C207 H200 0.950 . S
C207 C204 1.387 . S
C208 C209 1.387 . S
C208 H212 0.950 . S
C208 C217 1.390 1_545 S
C209 C208 1.387 . S
C209 C211 1.387 . S
H210 C217 0.950 . S
C211 C209 1.387 . S
C211 C213 1.390 1_545 S
C211 H215 0.950 . S
H212 C208 0.950 . S
C213 C211 1.390 1_565 S
C213 C214 1.387 . S
C213 H216 0.950 . S
C214 C213 1.387 . S
C214 C217 1.387 . S
H215 C211 0.950 . S
H216 C213 0.950 . S
C217 C208 1.390 1_565 S
C217 H210 0.950 . S
C217 C214 1.387 . S
C218 C219 1.387 . S
C218 H222 0.950 . S
C218 C227 1.390 . S
C219 C218 1.387 . S
C219 C221 1.387 . S
H220 C227 0.950 . S
C221 C219 1.387 . S
C221 C223 1.390 . S
C221 H225 0.950 . S
H222 C218 0.950 . S
C223 C221 1.390 . S
C223 C224 1.387 . S
C223 H226 0.950 . S
C224 C223 1.387 . S
C224 C227 1.387 . S
H225 C221 0.950 . S
H226 C223 0.950 . S
C227 C218 1.390 . S
C227 H220 0.950 . S
C227 C224 1.387 . S
C228 C229 1.387 . S
C228 H232 0.950 . S
C228 C237 1.390 . S
C229 C228 1.387 . S
C229 C231 1.387 . S
H230 C237 0.950 . S
C231 C229 1.387 . S
C231 C233 1.390 . S
C231 H235 0.950 . S
H232 C228 0.950 . S
C233 C231 1.390 . S
C233 C234 1.387 . S
C233 H236 0.950 . S
C234 C233 1.387 . S
C234 C237 1.387 . S
H235 C231 0.950 . S
H236 C233 0.950 . S
C237 C228 1.390 . S
C237 H230 0.950 . S
C237 C234 1.387 . S
C238 C239 1.387 . S
C238 H242 0.950 . S
C238 C247 1.390 1_455 S
C239 C238 1.387 . S
C239 C241 1.387 . S
H240 C247 0.950 . S
C241 C239 1.387 . S
C241 C243 1.390 1_455 S
C241 H245 0.950 . S
H242 C238 0.950 . S
C243 C241 1.390 1_655 S
C243 C244 1.387 . S
C243 H246 0.950 . S
C244 C243 1.387 . S
C244 C247 1.387 . S
H245 C241 0.950 . S
H246 C243 0.950 . S
C247 C238 1.390 1_655 S
C247 H240 0.950 . S
C247 C244 1.387 . S
C248 C249 1.387 . S
C248 H252 0.950 . S
C248 C257 1.390 1_545 S
C249 C248 1.387 . S
C249 C251 1.387 . S
H250 C257 0.950 . S
C251 C249 1.387 . S
C251 C253 1.390 1_545 S
C251 H255 0.950 . S
H252 C248 0.950 . S
C253 C251 1.390 1_565 S
C253 C254 1.387 . S
C253 H256 0.950 . S
C254 C253 1.387 . S
C254 C257 1.387 . S
H255 C251 0.950 . S
H256 C253 0.950 . S
C257 C248 1.390 1_565 S
C257 H250 0.950 . S
C257 C254 1.387 . S
C258 C259 1.387 . S
C258 H262 0.950 . S
C258 C267 1.390 . S
C259 C258 1.387 . S
C259 C261 1.387 . S
H260 C267 0.950 . S
C261 C259 1.387 . S
C261 C263 1.390 . S
C261 H265 0.950 . S
H262 C258 0.950 . S
C263 C261 1.390 . S
C263 C264 1.387 . S
C263 H266 0.950 . S
C264 C263 1.387 . S
C264 C267 1.387 . S
H265 C261 0.950 . S
H266 C263 0.950 . S
C267 C258 1.390 . S
C267 H260 0.950 . S
C267 C264 1.387 . S
C268 C269 1.387 . S
C268 H272 0.950 . S
C268 C277 1.390 1_655 S
C269 C268 1.387 . S
C269 C271 1.387 . S
H270 C277 0.950 . S
C271 C269 1.387 . S
C271 C273 1.390 1_655 S
C271 H275 0.950 . S
H272 C268 0.950 . S
C273 C271 1.390 1_455 S
C273 C274 1.387 . S
C273 H276 0.950 . S
C274 C273 1.387 . S
C274 C277 1.387 . S
H275 C271 0.950 . S
H276 C273 0.950 . S
C277 C268 1.390 1_455 S
C277 H270 0.950 . S
C277 C274 1.387 . S
C278 C279 1.387 . S
C278 H282 0.950 . S
C278 C287 1.390 1_565 S
C279 C278 1.387 . S
C279 C281 1.387 . S
H280 C287 0.950 . S
C281 C279 1.387 . S
C281 C283 1.390 1_565 S
C281 H285 0.950 . S
H282 C278 0.950 . S
C283 C281 1.390 1_545 S
C283 C284 1.387 . S
C283 H286 0.950 . S
C284 C283 1.387 . S
C284 C287 1.387 . S
H285 C281 0.950 . S
H286 C283 0.950 . S
C287 C278 1.390 1_545 S
C287 H280 0.950 . S
C287 C284 1.387 . S
C288 C289 1.387 . S
C288 H292 0.950 . S
C288 C297 1.390 . S
C289 C288 1.387 . S
C289 C291 1.387 . S
H290 C297 0.950 . S
C291 C289 1.387 . S
C291 C293 1.390 . S
C291 H295 0.950 . S
H292 C288 0.950 . S
C293 C291 1.390 . S
C293 C294 1.387 . S
C293 H296 0.950 . S
C294 C293 1.387 . S
C294 C297 1.387 . S
H295 C291 0.950 . S
H296 C293 0.950 . S
C297 C288 1.390 . S
C297 H290 0.950 . S
C297 C294 1.387 . S
C298 C299 1.387 . S
C298 H302 0.950 . S
C298 C307 1.390 . S
C299 C298 1.387 . S
C299 C301 1.387 . S
H300 C307 0.950 . S
C301 C299 1.387 . S
C301 C303 1.390 . S
C301 H305 0.950 . S
H302 C298 0.950 . S
C303 C301 1.390 . S
C303 C304 1.387 . S
C303 H306 0.950 . S
C304 C303 1.387 . S
C304 C307 1.387 . S
H305 C301 0.950 . S
H306 C303 0.950 . S
C307 C298 1.390 . S
C307 H300 0.950 . S
C307 C304 1.387 . S
C308 C309 1.387 . S
C308 H312 0.950 . S
C308 C317 1.390 . S
C309 C308 1.387 . S
C309 C311 1.387 . S
H310 C317 0.950 . S
C311 C309 1.387 . S
C311 C313 1.390 . S
C311 H315 0.950 . S
H312 C308 0.950 . S
C313 C311 1.390 . S
C313 C314 1.387 . S
C313 H316 0.950 . S
C314 C313 1.387 . S
C314 C317 1.387 . S
H315 C311 0.950 . S
H316 C313 0.950 . S
C317 C308 1.390 . S
C317 H310 0.950 . S
C317 C314 1.387 . S
C318 C319 1.387 . S
C318 H322 0.950 . S
C318 C327 1.390 . S
C319 C318 1.387 . S
C319 C321 1.387 . S
H320 C327 0.950 . S
C321 C319 1.387 . S
C321 C323 1.390 . S
C321 H325 0.950 . S
H322 C318 0.950 . S
C323 C321 1.390 . S
C323 C324 1.387 . S
C323 H326 0.950 . S
C324 C323 1.387 . S
C324 C327 1.387 . S
H325 C321 0.950 . S
H326 C323 0.950 . S
C327 C318 1.390 . S
C327 H320 0.950 . S
C327 C324 1.387 . S
C328 C329 1.387 . S
C328 H332 0.950 . S
C328 C337 1.390 . S
C329 C328 1.387 . S
C329 C331 1.387 . S
H330 C337 0.950 . S
C331 C329 1.387 . S
C331 C333 1.390 . S
C331 H335 0.950 . S
H332 C328 0.950 . S
C333 C331 1.390 . S
C333 C334 1.387 . S
C333 H336 0.950 . S
C334 C333 1.387 . S
C334 C337 1.387 . S
H335 C331 0.950 . S
H336 C333 0.950 . S
C337 C328 1.390 . S
C337 H330 0.950 . S
C337 C334 1.387 . S
C338 C339 1.387 . S
C338 H342 0.950 . S
C338 C347 1.390 . S
C339 C338 1.387 . S
C339 C341 1.387 . S
H340 C347 0.950 . S
C341 C339 1.387 . S
C341 C343 1.390 . S
C341 H345 0.950 . S
H342 C338 0.950 . S
C343 C341 1.390 . S
C343 C344 1.387 . S
C343 H346 0.950 . S
C344 C343 1.387 . S
C344 C347 1.387 . S
H345 C341 0.950 . S
H346 C343 0.950 . S
C347 C338 1.390 . S
C347 H340 0.950 . S
C347 C344 1.387 . S
C348 C349 1.387 . S
C348 H352 0.950 . S
C348 C357 1.390 . S
C349 C348 1.387 . S
C349 C351 1.387 . S
H350 C357 0.950 . S
C351 C349 1.387 . S
C351 C353 1.390 . S
C351 H355 0.950 . S
H352 C348 0.950 . S
C353 C351 1.390 . S
C353 C354 1.387 . S
C353 H356 0.950 . S
C354 C353 1.387 . S
C354 C357 1.387 . S
H355 C351 0.950 . S
H356 C353 0.950 . S
C357 C348 1.390 . S
C357 H350 0.950 . S
C357 C354 1.387 . S
C358 C359 1.387 1_455 S
C358 H362 0.950 . S
C358 C367 1.390 . S
C359 C358 1.387 1_655 S
C359 C361 1.387 . S
H360 C367 0.950 . S
C361 C359 1.387 . S
C361 C363 1.390 . S
C361 H365 0.950 . S
H362 C358 0.950 . S
C363 C361 1.390 . S
C363 C364 1.387 1_655 S
C363 H366 0.950 . S
C364 C363 1.387 1_455 S
C364 C367 1.387 . S
H365 C361 0.950 . S
H366 C363 0.950 . S
C367 C358 1.390 . S
C367 H360 0.950 . S
C367 C364 1.387 . S
C368 C369 1.387 . S
C368 H372 0.950 . S
C368 C377 1.390 1_544 S
C369 C368 1.387 . S
C369 C371 1.387 . S
H370 C377 0.950 . S
C371 C369 1.387 . S
C371 C373 1.390 1_544 S
C371 H375 0.950 . S
H372 C368 0.950 . S
C373 C371 1.390 1_566 S
C373 C374 1.387 . S
C373 H376 0.950 . S
C374 C373 1.387 . S
C374 C377 1.387 . S
H375 C371 0.950 . S
H376 C373 0.950 . S
C377 C368 1.390 1_566 S
C377 H370 0.950 . S
C377 C374 1.387 . S
C378 C379 1.387 . S
C378 H382 0.950 . S
C378 C387 1.390 . S
C379 C378 1.387 . S
C379 C381 1.387 . S
H380 C387 0.950 . S
C381 C379 1.387 . S
C381 C383 1.390 . S
C381 H385 0.950 . S
H382 C378 0.950 . S
C383 C381 1.390 . S
C383 C384 1.387 . S
C383 H386 0.950 . S
C384 C383 1.387 . S
C384 C387 1.387 . S
H385 C381 0.950 . S
H386 C383 0.950 . S
C387 C378 1.390 . S
C387 H380 0.950 . S
C387 C384 1.387 . S
C388 C389 1.387 1_655 S
C388 H392 0.950 . S
C388 C397 1.390 . S
C389 C388 1.387 1_455 S
C389 C391 1.387 . S
H390 C397 0.950 . S
C391 C389 1.387 . S
C391 C393 1.390 . S
C391 H395 0.950 . S
H392 C388 0.950 . S
C393 C391 1.390 . S
C393 C394 1.387 1_455 S
C393 H396 0.950 . S
C394 C393 1.387 1_655 S
C394 C397 1.387 . S
H395 C391 0.950 . S
H396 C393 0.950 . S
C397 C388 1.390 . S
C397 H390 0.950 . S
C397 C394 1.387 . S
C398 C399 1.387 . S
C398 H402 0.950 . S
C398 C407 1.390 1_564 S
C399 C398 1.387 . S
C399 C401 1.387 . S
H400 C407 0.950 . S
C401 C399 1.387 . S
C401 C403 1.390 1_564 S
C401 H405 0.950 . S
H402 C398 0.950 . S
C403 C401 1.390 1_546 S
C403 C404 1.387 . S
C403 H406 0.950 . S
C404 C403 1.387 . S
C404 C407 1.387 . S
H405 C401 0.950 . S
H406 C403 0.950 . S
C407 C398 1.390 1_546 S
C407 H400 0.950 . S
C407 C404 1.387 . S
C169 C159 1.336 . S
C174 C5 1.331 . S
C179 C19 1.336 . S
C184 C89 1.335 . S
C189 C33 1.333 . S
C194 C103 1.337 . S
C199 C47 1.331 . S
C204 C117 1.335 . S
C209 C131 1.335 . S
C214 C61 1.336 . S
C219 C75 1.332 . S
C224 C145 1.336 . S
C229 C54 1.298 . S
C234 C12 1.298 . S
C239 C68 1.302 . S
C244 C26 1.302 . S
C249 C82 1.302 . S
C254 C40 1.302 . S
C259 C96 1.298 . S
C264 C138 1.298 . S
C269 C110 1.302 . S
C274 C152 1.302 . S
C279 C124 1.298 . S
C284 C166 1.298 . S
C289 C116 1.007 . S
C294 C4 1.007 . S
C299 C18 1.010 . S
C304 C130 1.010 . S
C309 C144 1.010 . S
C314 C32 1.009 . S
C319 C158 1.009 . S
C324 C46 1.007 . S
C329 C88 1.007 . S
C334 C60 1.007 . S
C339 C74 1.007 . S
C344 C102 1.008 . S
C349 C137 1.505 . S
C354 C11 1.506 . S
C359 C25 1.504 . S
C364 C151 1.503 . S
C369 C165 1.505 . S
C374 C39 1.505 . S
C379 C53 1.503 . S
C384 C95 1.504 . S
C389 C67 1.504 . S
C394 C109 1.503 . S
C399 C123 1.505 . S
C404 C81 1.505 . S
