# Generated by pormake.
# Topology yft, (5)-cn, num edge types: 1
# Building blocks:
#     Node 0, Type 0, BuildingBlock: BEQFEK_clean_sbu_0, # of connection points: 5
#     Node 1, Type 0, BuildingBlock: BEQFEK_clean_sbu_0, # of connection points: 5
#     Node 2, Type 0, BuildingBlock: BEQFEK_clean_sbu_0, # of connection points: 5
#     Node 3, Type 0, BuildingBlock: BEQFEK_clean_sbu_0, # of connection points: 5
#     Node 4, Type 0, BuildingBlock: BEQFEK_clean_sbu_0, # of connection points: 5
#     Node 5, Type 0, BuildingBlock: BEQFEK_clean_sbu_0, # of connection points: 5
#     Node 6, Type 0, BuildingBlock: BEQFEK_clean_sbu_0, # of connection points: 5
#     Node 7, Type 0, BuildingBlock: BEQFEK_clean_sbu_0, # of connection points: 5
#     Node 8, Type 0, BuildingBlock: BEQFEK_clean_sbu_0, # of connection points: 5
#     Node 9, Type 0, BuildingBlock: BEQFEK_clean_sbu_0, # of connection points: 5
#     Node 10, Type 0, BuildingBlock: BEQFEK_clean_sbu_0, # of connection points: 5
#     Node 11, Type 0, BuildingBlock: BEQFEK_clean_sbu_0, # of connection points: 5
#     Node 12, Type 0, BuildingBlock: BEQFEK_clean_sbu_0, # of connection points: 5
#     Node 13, Type 0, BuildingBlock: BEQFEK_clean_sbu_0, # of connection points: 5
#     Node 14, Type 0, BuildingBlock: BEQFEK_clean_sbu_0, # of connection points: 5
#     Node 15, Type 0, BuildingBlock: BEQFEK_clean_sbu_0, # of connection points: 5
#     Node 16, Type 0, BuildingBlock: BEQFEK_clean_sbu_0, # of connection points: 5
#     Node 17, Type 0, BuildingBlock: BEQFEK_clean_sbu_0, # of connection points: 5
#     Node 18, Type 0, BuildingBlock: BEQFEK_clean_sbu_0, # of connection points: 5
#     Node 19, Type 0, BuildingBlock: BEQFEK_clean_sbu_0, # of connection points: 5
#     Node 20, Type 0, BuildingBlock: BEQFEK_clean_sbu_0, # of connection points: 5
#     Node 21, Type 0, BuildingBlock: BEQFEK_clean_sbu_0, # of connection points: 5
#     Node 22, Type 0, BuildingBlock: BEQFEK_clean_sbu_0, # of connection points: 5
#     Node 23, Type 0, BuildingBlock: BEQFEK_clean_sbu_0, # of connection points: 5
#     Node 24, Type 0, BuildingBlock: BEQFEK_clean_sbu_0, # of connection points: 5
#     Node 25, Type 0, BuildingBlock: BEQFEK_clean_sbu_0, # of connection points: 5
#     Node 26, Type 0, BuildingBlock: BEQFEK_clean_sbu_0, # of connection points: 5
#     Node 27, Type 0, BuildingBlock: BEQFEK_clean_sbu_0, # of connection points: 5
#     Node 28, Type 0, BuildingBlock: BEQFEK_clean_sbu_0, # of connection points: 5
#     Node 29, Type 0, BuildingBlock: BEQFEK_clean_sbu_0, # of connection points: 5
#     Node 30, Type 0, BuildingBlock: BEQFEK_clean_sbu_0, # of connection points: 5
#     Node 31, Type 0, BuildingBlock: BEQFEK_clean_sbu_0, # of connection points: 5
#     Edge 32, Type (0, 0), BuildingBlock: KIFKEQ_clean_linker_1, # of connection points: 2
#     Edge 33, Type (0, 0), BuildingBlock: KIFKEQ_clean_linker_1, # of connection points: 2
#     Edge 34, Type (0, 0), BuildingBlock: KIFKEQ_clean_linker_1, # of connection points: 2
#     Edge 35, Type (0, 0), BuildingBlock: KIFKEQ_clean_linker_1, # of connection points: 2
#     Edge 36, Type (0, 0), BuildingBlock: KIFKEQ_clean_linker_1, # of connection points: 2
#     Edge 37, Type (0, 0), BuildingBlock: KIFKEQ_clean_linker_1, # of connection points: 2
#     Edge 38, Type (0, 0), BuildingBlock: KIFKEQ_clean_linker_1, # of connection points: 2
#     Edge 39, Type (0, 0), BuildingBlock: KIFKEQ_clean_linker_1, # of connection points: 2
#     Edge 40, Type (0, 0), BuildingBlock: KIFKEQ_clean_linker_1, # of connection points: 2
#     Edge 41, Type (0, 0), BuildingBlock: KIFKEQ_clean_linker_1, # of connection points: 2
#     Edge 42, Type (0, 0), BuildingBlock: KIFKEQ_clean_linker_1, # of connection points: 2
#     Edge 43, Type (0, 0), BuildingBlock: KIFKEQ_clean_linker_1, # of connection points: 2
#     Edge 44, Type (0, 0), BuildingBlock: KIFKEQ_clean_linker_1, # of connection points: 2
#     Edge 45, Type (0, 0), BuildingBlock: KIFKEQ_clean_linker_1, # of connection points: 2
#     Edge 46, Type (0, 0), BuildingBlock: KIFKEQ_clean_linker_1, # of connection points: 2
#     Edge 47, Type (0, 0), BuildingBlock: KIFKEQ_clean_linker_1, # of connection points: 2
#     Edge 48, Type (0, 0), BuildingBlock: KIFKEQ_clean_linker_1, # of connection points: 2
#     Edge 49, Type (0, 0), BuildingBlock: KIFKEQ_clean_linker_1, # of connection points: 2
#     Edge 50, Type (0, 0), BuildingBlock: KIFKEQ_clean_linker_1, # of connection points: 2
#     Edge 51, Type (0, 0), BuildingBlock: KIFKEQ_clean_linker_1, # of connection points: 2
#     Edge 52, Type (0, 0), BuildingBlock: KIFKEQ_clean_linker_1, # of connection points: 2
#     Edge 53, Type (0, 0), BuildingBlock: KIFKEQ_clean_linker_1, # of connection points: 2
#     Edge 54, Type (0, 0), BuildingBlock: KIFKEQ_clean_linker_1, # of connection points: 2
#     Edge 55, Type (0, 0), BuildingBlock: KIFKEQ_clean_linker_1, # of connection points: 2
#     Edge 56, Type (0, 0), BuildingBlock: KIFKEQ_clean_linker_1, # of connection points: 2
#     Edge 57, Type (0, 0), BuildingBlock: KIFKEQ_clean_linker_1, # of connection points: 2
#     Edge 58, Type (0, 0), BuildingBlock: KIFKEQ_clean_linker_1, # of connection points: 2
#     Edge 59, Type (0, 0), BuildingBlock: KIFKEQ_clean_linker_1, # of connection points: 2
#     Edge 60, Type (0, 0), BuildingBlock: KIFKEQ_clean_linker_1, # of connection points: 2
#     Edge 61, Type (0, 0), BuildingBlock: KIFKEQ_clean_linker_1, # of connection points: 2
#     Edge 62, Type (0, 0), BuildingBlock: KIFKEQ_clean_linker_1, # of connection points: 2
#     Edge 63, Type (0, 0), BuildingBlock: KIFKEQ_clean_linker_1, # of connection points: 2
#     Edge 64, Type (0, 0), BuildingBlock: KIFKEQ_clean_linker_1, # of connection points: 2
#     Edge 65, Type (0, 0), BuildingBlock: KIFKEQ_clean_linker_1, # of connection points: 2
#     Edge 66, Type (0, 0), BuildingBlock: KIFKEQ_clean_linker_1, # of connection points: 2
#     Edge 67, Type (0, 0), BuildingBlock: KIFKEQ_clean_linker_1, # of connection points: 2
#     Edge 68, Type (0, 0), BuildingBlock: KIFKEQ_clean_linker_1, # of connection points: 2
#     Edge 69, Type (0, 0), BuildingBlock: KIFKEQ_clean_linker_1, # of connection points: 2
#     Edge 70, Type (0, 0), BuildingBlock: KIFKEQ_clean_linker_1, # of connection points: 2
#     Edge 71, Type (0, 0), BuildingBlock: KIFKEQ_clean_linker_1, # of connection points: 2
#     Edge 72, Type (0, 0), BuildingBlock: KIFKEQ_clean_linker_1, # of connection points: 2
#     Edge 73, Type (0, 0), BuildingBlock: KIFKEQ_clean_linker_1, # of connection points: 2
#     Edge 74, Type (0, 0), BuildingBlock: KIFKEQ_clean_linker_1, # of connection points: 2
#     Edge 75, Type (0, 0), BuildingBlock: KIFKEQ_clean_linker_1, # of connection points: 2
#     Edge 76, Type (0, 0), BuildingBlock: KIFKEQ_clean_linker_1, # of connection points: 2
#     Edge 77, Type (0, 0), BuildingBlock: KIFKEQ_clean_linker_1, # of connection points: 2
#     Edge 78, Type (0, 0), BuildingBlock: KIFKEQ_clean_linker_1, # of connection points: 2
#     Edge 79, Type (0, 0), BuildingBlock: KIFKEQ_clean_linker_1, # of connection points: 2
#     Edge 80, Type (0, 0), BuildingBlock: KIFKEQ_clean_linker_1, # of connection points: 2
#     Edge 81, Type (0, 0), BuildingBlock: KIFKEQ_clean_linker_1, # of connection points: 2
#     Edge 82, Type (0, 0), BuildingBlock: KIFKEQ_clean_linker_1, # of connection points: 2
#     Edge 83, Type (0, 0), BuildingBlock: KIFKEQ_clean_linker_1, # of connection points: 2
#     Edge 84, Type (0, 0), BuildingBlock: KIFKEQ_clean_linker_1, # of connection points: 2
#     Edge 85, Type (0, 0), BuildingBlock: KIFKEQ_clean_linker_1, # of connection points: 2
#     Edge 86, Type (0, 0), BuildingBlock: KIFKEQ_clean_linker_1, # of connection points: 2
#     Edge 87, Type (0, 0), BuildingBlock: KIFKEQ_clean_linker_1, # of connection points: 2
#     Edge 88, Type (0, 0), BuildingBlock: KIFKEQ_clean_linker_1, # of connection points: 2
#     Edge 89, Type (0, 0), BuildingBlock: KIFKEQ_clean_linker_1, # of connection points: 2
#     Edge 90, Type (0, 0), BuildingBlock: KIFKEQ_clean_linker_1, # of connection points: 2
#     Edge 91, Type (0, 0), BuildingBlock: KIFKEQ_clean_linker_1, # of connection points: 2
#     Edge 92, Type (0, 0), BuildingBlock: KIFKEQ_clean_linker_1, # of connection points: 2
#     Edge 93, Type (0, 0), BuildingBlock: KIFKEQ_clean_linker_1, # of connection points: 2
#     Edge 94, Type (0, 0), BuildingBlock: KIFKEQ_clean_linker_1, # of connection points: 2
#     Edge 95, Type (0, 0), BuildingBlock: KIFKEQ_clean_linker_1, # of connection points: 2
#     Edge 96, Type (0, 0), BuildingBlock: KIFKEQ_clean_linker_1, # of connection points: 2
#     Edge 97, Type (0, 0), BuildingBlock: KIFKEQ_clean_linker_1, # of connection points: 2
#     Edge 98, Type (0, 0), BuildingBlock: KIFKEQ_clean_linker_1, # of connection points: 2
#     Edge 99, Type (0, 0), BuildingBlock: KIFKEQ_clean_linker_1, # of connection points: 2
#     Edge 100, Type (0, 0), BuildingBlock: KIFKEQ_clean_linker_1, # of connection points: 2
#     Edge 101, Type (0, 0), BuildingBlock: KIFKEQ_clean_linker_1, # of connection points: 2
#     Edge 102, Type (0, 0), BuildingBlock: KIFKEQ_clean_linker_1, # of connection points: 2
#     Edge 103, Type (0, 0), BuildingBlock: KIFKEQ_clean_linker_1, # of connection points: 2
#     Edge 104, Type (0, 0), BuildingBlock: KIFKEQ_clean_linker_1, # of connection points: 2
#     Edge 105, Type (0, 0), BuildingBlock: KIFKEQ_clean_linker_1, # of connection points: 2
#     Edge 106, Type (0, 0), BuildingBlock: KIFKEQ_clean_linker_1, # of connection points: 2
#     Edge 107, Type (0, 0), BuildingBlock: KIFKEQ_clean_linker_1, # of connection points: 2
#     Edge 108, Type (0, 0), BuildingBlock: KIFKEQ_clean_linker_1, # of connection points: 2
#     Edge 109, Type (0, 0), BuildingBlock: KIFKEQ_clean_linker_1, # of connection points: 2
#     Edge 110, Type (0, 0), BuildingBlock: KIFKEQ_clean_linker_1, # of connection points: 2
#     Edge 111, Type (0, 0), BuildingBlock: KIFKEQ_clean_linker_1, # of connection points: 2
# Relax obj value: 0.343
# Max RMSD: 0.209
# Mean RMSD: 0.209
data_MOF--net-yft--node1-BEQFEK_clean_sbu_0--edge1-KIFKEQ_clean_linker_1
_symmetry_space_group_name_H-M    P1
_symmetry_Int_Tables_number       1
_symmetry_cell_setting            triclinic
loop_
_symmetry_equiv_pos_as_xyz
'x, y, z'
_cell_length_a     49.483586
_cell_length_b     49.471873
_cell_length_c     81.856921
_cell_angle_alpha  90.018874
_cell_angle_beta   89.993381
_cell_angle_gamma 90.010266
loop_
_atom_site_label
_atom_site_type_symbol
_atom_site_fract_x
_atom_site_fract_y
_atom_site_fract_z
_atom_type_partial_charge
Co0 Co 0.36759 0.19205 0.18143 0.0
Co1 Co 0.31758 0.16913 0.16239 0.0
C2 C 0.3719 0.14217 0.16117 0.0
O3 O 0.38211 0.15962 0.17078 0.0
O4 O 0.34718 0.14338 0.15685 0.0
C5 C 0.41489 0.19637 0.20258 0.0
O6 O 0.41528 0.16982 0.20261 0.0
C7 C 0.2755 0.1304 0.15235 0.0
C8 C 0.24479 0.15788 0.14195 0.0
C9 C 0.25025 0.13085 0.14491 0.0
N10 N 0.28444 0.15597 0.15365 0.0
N11 N 0.26604 0.17226 0.14734 0.0
C12 C 0.29035 0.10652 0.15903 0.0
H13 H 0.30307 0.09766 0.14923 0.0
H14 H 0.3038 0.11287 0.16918 0.0
H15 H 0.27599 0.09086 0.16339 0.0
C16 C 0.32867 0.19341 0.20799 0.0
N17 N 0.33608 0.1843 0.19322 0.0
N18 N 0.31464 0.17547 0.18533 0.0
C19 C 0.29277 0.17894 0.19494 0.0
C20 C 0.30092 0.19071 0.20954 0.0
C21 C 0.34693 0.20916 0.21904 0.0
H22 H 0.35299 0.22821 0.21289 0.0
H23 H 0.36545 0.19722 0.22149 0.0
H24 H 0.33691 0.21401 0.23082 0.0
O25 O 0.35929 0.21991 0.16498 0.0
O26 O 0.32431 0.20387 0.1511 0.0
H27 H 0.2605 0.19157 0.17939 0.0
H28 H 0.24958 0.17937 0.19912 0.0
C29 C 0.26427 0.17631 0.18905 0.0
H30 H 0.26122 0.15594 0.18371 0.0
H31 H 0.26796 0.19325 0.14678 0.0
O32 O 0.39611 0.20867 0.19507 0.0
C33 C 0.3417 0.22229 0.15374 0.0
Co34 Co 0.04797 0.11421 0.42793 0.0
Co35 Co 0.07686 0.06584 0.41026 0.0
C36 C 0.09833 0.12189 0.40794 0.0
O37 O 0.07923 0.13075 0.41686 0.0
O38 O 0.10024 0.09691 0.40436 0.0
C39 C 0.04203 0.1603 0.44963 0.0
O40 O 0.06844 0.15922 0.45115 0.0
C41 C 0.11825 0.02693 0.39918 0.0
C42 C 0.09235 0.99372 0.3901 0.0
C43 C 0.119 0.00187 0.39152 0.0
N44 N 0.09224 0.0332 0.40211 0.0
N45 N 0.07693 0.01319 0.39675 0.0
C46 C 0.14119 0.04602 0.40214 0.0
H47 H 0.14018 0.06258 0.39302 0.0
H48 H 0.1391 0.05524 0.41444 0.0
H49 H 0.1611 0.03596 0.401 0.0
C50 C 0.04998 0.0769 0.45539 0.0
N51 N 0.05832 0.08427 0.44044 0.0
N52 N 0.0704 0.06376 0.43326 0.0
C53 C 0.0705 0.04263 0.44364 0.0
C54 C 0.05735 0.05015 0.45797 0.0
C55 C 0.03044 0.09339 0.46524 0.0
H56 H 0.01404 0.10085 0.45719 0.0
H57 H 0.04116 0.1112 0.47032 0.0
H58 H 0.02122 0.08186 0.4754 0.0
O59 O 0.02089 0.10232 0.41191 0.0
O60 O 0.04201 0.06949 0.39846 0.0
H61 H 0.06587 0.00569 0.43042 0.0
H62 H 0.08169 0.00182 0.45019 0.0
C63 C 0.08018 0.01493 0.43923 0.0
H64 H 0.10028 0.01632 0.43329 0.0
H65 H 0.05586 0.01314 0.39727 0.0
O66 O 0.03003 0.14267 0.44098 0.0
C67 C 0.02144 0.08437 0.40081 0.0
Co68 Co 0.1315 0.79938 0.67969 0.0
Co69 Co 0.18165 0.82398 0.66149 0.0
C70 C 0.12705 0.84946 0.6593 0.0
O71 O 0.11702 0.83157 0.66868 0.0
O72 O 0.15195 0.84911 0.65533 0.0
C73 C 0.08455 0.79567 0.70112 0.0
O74 O 0.08554 0.82218 0.70189 0.0
C75 C 0.22353 0.86253 0.65045 0.0
C76 C 0.25594 0.83435 0.64303 0.0
C77 C 0.24947 0.86156 0.64393 0.0
N78 N 0.21519 0.83705 0.6532 0.0
N79 N 0.23462 0.82035 0.64867 0.0
C80 C 0.2074 0.88701 0.6549 0.0
H81 H 0.19358 0.88232 0.6652 0.0
H82 H 0.22087 0.90405 0.65829 0.0
H83 H 0.19496 0.89314 0.64425 0.0
C84 C 0.16937 0.79917 0.70691 0.0
N85 N 0.16233 0.80777 0.69195 0.0
N86 N 0.18352 0.81822 0.68456 0.0
C87 C 0.20479 0.81693 0.6948 0.0
C88 C 0.19666 0.80451 0.70923 0.0
C89 C 0.15166 0.7812 0.71705 0.0
H90 H 0.14412 0.76428 0.7094 0.0
H91 H 0.13392 0.79294 0.72131 0.0
H92 H 0.16226 0.7727 0.72779 0.0
O93 O 0.14101 0.77152 0.66357 0.0
O94 O 0.17603 0.7888 0.6503 0.0
H95 H 0.24115 0.80908 0.68156 0.0
H96 H 0.24638 0.82524 0.70109 0.0
C97 C 0.23308 0.82437 0.69018 0.0
H98 H 0.23317 0.84432 0.68403 0.0
H99 H 0.23333 0.79934 0.64946 0.0
O100 O 0.10242 0.78302 0.69302 0.0
C101 C 0.15919 0.76977 0.65265 0.0
Co102 Co 0.44342 0.88022 0.93033 0.0
Co103 Co 0.42078 0.93018 0.91115 0.0
C104 C 0.3955 0.87526 0.90844 0.0
O105 O 0.41238 0.86529 0.91849 0.0
O106 O 0.39632 0.90012 0.90438 0.0
C107 C 0.44693 0.8325 0.95118 0.0
O108 O 0.4204 0.8319 0.95068 0.0
C109 C 0.38242 0.97211 0.90011 0.0
C110 C 0.41065 0.00355 0.89135 0.0
C111 C 0.38342 0.9977 0.8931 0.0
N112 N 0.4079 0.96339 0.90234 0.0
N113 N 0.42463 0.98223 0.897 0.0
C114 C 0.358 0.95671 0.90549 0.0
H115 H 0.3633 0.94283 0.91566 0.0
H116 H 0.34171 0.97071 0.90941 0.0
H117 H 0.35046 0.94438 0.89512 0.0
C118 C 0.44162 0.91833 0.9573 0.0
N119 N 0.43375 0.9111 0.94223 0.0
N120 N 0.42501 0.93254 0.93431 0.0
C121 C 0.42736 0.95422 0.94419 0.0
C122 C 0.43824 0.94598 0.95902 0.0
C123 C 0.4575 0.9003 0.96841 0.0
H124 H 0.47692 0.8949 0.96246 0.0
H125 H 0.44602 0.8814 0.97059 0.0
H126 H 0.46168 0.91022 0.98032 0.0
O127 O 0.47251 0.88975 0.91493 0.0
O128 O 0.45666 0.92473 0.90101 0.0
H129 H 0.44093 0.98721 0.9295 0.0
H130 H 0.42644 0.99725 0.94884 0.0
C131 C 0.42475 0.98282 0.9385 0.0
H132 H 0.40492 0.98564 0.93243 0.0
H133 H 0.44565 0.98057 0.89728 0.0
O134 O 0.45948 0.85158 0.94409 0.0
C135 C 0.47535 0.90781 0.90401 0.0
Co136 Co 0.365 0.80005 0.31202 0.0
Co137 Co 0.31638 0.82425 0.3318 0.0
C138 C 0.37232 0.84762 0.33386 0.0
O139 O 0.38153 0.83067 0.3236 0.0
O140 O 0.34759 0.84732 0.33817 0.0
C141 C 0.41152 0.79583 0.29047 0.0
O142 O 0.41188 0.82238 0.29072 0.0
C143 C 0.27581 0.86459 0.34225 0.0
C144 C 0.24863 0.839 0.35707 0.0
C145 C 0.25308 0.86544 0.35222 0.0
N146 N 0.28435 0.83881 0.34134 0.0
N147 N 0.26784 0.82363 0.35011 0.0
C148 C 0.2902 0.88793 0.33455 0.0
H149 H 0.31095 0.88217 0.33087 0.0
H150 H 0.27906 0.89423 0.32343 0.0
H151 H 0.29083 0.90537 0.34309 0.0
C152 C 0.3258 0.80284 0.28556 0.0
N153 N 0.33383 0.81045 0.30054 0.0
N154 N 0.31306 0.82007 0.30873 0.0
C155 C 0.29097 0.81871 0.29916 0.0
C156 C 0.29822 0.80753 0.28418 0.0
C157 C 0.34297 0.7859 0.27448 0.0
H158 H 0.34894 0.76712 0.28096 0.0
H159 H 0.36167 0.79718 0.27143 0.0
H160 H 0.33249 0.78039 0.263 0.0
O161 O 0.35534 0.7714 0.32769 0.0
O162 O 0.32108 0.7882 0.34189 0.0
H163 H 0.25789 0.80948 0.31501 0.0
H164 H 0.24784 0.8221 0.29513 0.0
C165 C 0.26288 0.82399 0.30513 0.0
H166 H 0.26177 0.84468 0.31029 0.0
H167 H 0.27013 0.80284 0.35173 0.0
O168 O 0.3928 0.78331 0.29792 0.0
C169 C 0.33752 0.76911 0.33881 0.0
Co170 Co 0.43724 0.11755 0.56254 0.0
Co171 Co 0.41702 0.06617 0.58155 0.0
C172 C 0.38852 0.11937 0.58414 0.0
O173 O 0.40509 0.13031 0.57427 0.0
O174 O 0.39063 0.09458 0.58815 0.0
C175 C 0.43903 0.16911 0.54597 0.0
O176 O 0.41439 0.17208 0.55167 0.0
C177 C 0.3805 0.02282 0.59258 0.0
C178 C 0.40973 0.99247 0.60151 0.0
C179 C 0.38232 0.99744 0.59979 0.0
N180 N 0.40567 0.03231 0.59025 0.0
N181 N 0.42302 0.01411 0.59566 0.0
C182 C 0.35559 0.0374 0.58718 0.0
H183 H 0.36032 0.05093 0.57675 0.0
H184 H 0.33954 0.02286 0.58361 0.0
H185 H 0.34801 0.05002 0.59741 0.0
C186 C 0.43855 0.07938 0.53565 0.0
N187 N 0.42982 0.08608 0.55063 0.0
N188 N 0.42206 0.06414 0.55843 0.0
C189 C 0.42588 0.04267 0.54854 0.0
C190 C 0.4368 0.05159 0.53386 0.0
C191 C 0.45331 0.09847 0.52462 0.0
H192 H 0.44104 0.117 0.52284 0.0
H193 H 0.4575 0.08914 0.51254 0.0
H194 H 0.4727 0.10441 0.53042 0.0
O195 O 0.46649 0.10982 0.57825 0.0
O196 O 0.45217 0.07401 0.59207 0.0
H197 H 0.4408 0.0103 0.56324 0.0
H198 H 0.42708 -0.00035 0.54383 0.0
C199 C 0.42455 0.01394 0.55417 0.0
H200 H 0.40481 0.01014 0.56014 0.0
H201 H 0.44397 0.01649 0.59538 0.0
O202 O 0.45152 0.14708 0.54855 0.0
C203 C 0.46993 0.09202 0.58928 0.0
Co204 Co 0.13098 0.19463 0.81456 0.0
Co205 Co 0.18095 0.17052 0.83312 0.0
C206 C 0.1264 0.14465 0.83494 0.0
O207 O 0.1164 0.16238 0.82544 0.0
O208 O 0.15123 0.14525 0.83907 0.0
C209 C 0.08411 0.19866 0.79304 0.0
O210 O 0.08461 0.17213 0.79241 0.0
C211 C 0.22284 0.13198 0.84405 0.0
C212 C 0.25489 0.16016 0.85204 0.0
C213 C 0.24866 0.13294 0.85074 0.0
N214 N 0.21435 0.15748 0.84159 0.0
N215 N 0.23356 0.17418 0.84647 0.0
C216 C 0.20702 0.10754 0.83915 0.0
H217 H 0.19326 0.11252 0.82888 0.0
H218 H 0.22071 0.09079 0.83555 0.0
H219 H 0.19455 0.1008 0.84966 0.0
C220 C 0.16926 0.195 0.78755 0.0
N221 N 0.16207 0.18646 0.8025 0.0
N222 N 0.18327 0.1764 0.81007 0.0
C223 C 0.20472 0.178 0.79998 0.0
C224 C 0.19666 0.19012 0.78545 0.0
C225 C 0.15146 0.21252 0.77719 0.0
H226 H 0.14407 0.22981 0.78458 0.0
H227 H 0.13363 0.20062 0.77323 0.0
H228 H 0.16195 0.22046 0.76625 0.0
O229 O 0.14 0.22245 0.8308 0.0
O230 O 0.17491 0.20558 0.84436 0.0
H231 H 0.24048 0.18658 0.81365 0.0
H232 H 0.2467 0.17085 0.79409 0.0
C233 C 0.23306 0.17123 0.80485 0.0
H234 H 0.23347 0.15119 0.8109 0.0
H235 H 0.23212 0.19521 0.84592 0.0
O236 O 0.1022 0.2111 0.80109 0.0
C237 C 0.15789 0.2244 0.84188 0.0
Co238 Co 0.05103 0.88205 0.0644 0.0
Co239 Co 0.0761 0.93135 0.08321 0.0
C240 C 0.09962 0.87571 0.08569 0.0
O241 O 0.08212 0.86623 0.07585 0.0
O242 O 0.0997 0.9006 0.0897 0.0
C243 C 0.04626 0.83542 0.04277 0.0
O244 O 0.0728 0.83543 0.04226 0.0
C245 C 0.1156 0.97081 0.0961 0.0
C246 C 0.08827 0.00387 0.1037 0.0
C247 C 0.11512 0.99604 0.1036 0.0
N248 N 0.09012 0.96421 0.09197 0.0
N249 N 0.07395 0.98411 0.09649 0.0
C250 C 0.13899 0.95182 0.09449 0.0
H251 H 0.13612 0.93475 0.10311 0.0
H252 H 0.13939 0.94329 0.08195 0.0
H253 H 0.15853 0.96166 0.09731 0.0
C254 C 0.05308 0.92012 0.03734 0.0
N255 N 0.06091 0.91274 0.0524 0.0
N256 N 0.07133 0.93368 0.06007 0.0
C257 C 0.07066 0.95515 0.04996 0.0
C258 C 0.05878 0.94739 0.03527 0.0
C259 C 0.03526 0.90281 0.02685 0.0
H260 H 0.01753 0.89606 0.03408 0.0
H261 H 0.04666 0.88457 0.02305 0.0
H262 H 0.02795 0.91343 0.0158 0.0
O263 O 0.0229 0.89222 0.0802 0.0
O264 O 0.04038 0.92676 0.09384 0.0
H265 H 0.06217 0.9912 0.06337 0.0
H266 H 0.07929 0.99688 0.04418 0.0
C267 C 0.07788 0.98333 0.05495 0.0
H268 H 0.0975 0.98325 0.06149 0.0
H269 H 0.05301 0.9839 0.09499 0.0
O270 O 0.03409 0.85372 0.05079 0.0
C271 C 0.0211 0.91033 0.09116 0.0
Co272 Co 0.62792 0.80678 0.81247 0.0
Co273 Co 0.67945 0.82722 0.83119 0.0
C274 C 0.62596 0.85517 0.83424 0.0
O275 O 0.61497 0.83866 0.82437 0.0
O276 O 0.65082 0.85317 0.8381 0.0
C277 C 0.5764 0.80489 0.79586 0.0
O278 O 0.57355 0.82971 0.8013 0.0
C279 C 0.72235 0.86474 0.84136 0.0
C280 C 0.75335 0.83655 0.85068 0.0
C281 C 0.74787 0.86377 0.84844 0.0
N282 N 0.71325 0.8393 0.83961 0.0
N283 N 0.73183 0.82257 0.84526 0.0
C284 C 0.70732 0.88908 0.83546 0.0
H285 H 0.69485 0.8972 0.8456 0.0
H286 H 0.69361 0.88344 0.82528 0.0
H287 H 0.72155 0.90504 0.83136 0.0
C288 C 0.66546 0.80628 0.78527 0.0
N289 N 0.659 0.81477 0.80034 0.0
N290 N 0.68104 0.82252 0.80804 0.0
C291 C 0.70235 0.81887 0.79801 0.0
C292 C 0.6932 0.80811 0.78333 0.0
C293 C 0.64624 0.79156 0.7743 0.0
H294 H 0.64057 0.77202 0.78002 0.0
H295 H 0.62759 0.80373 0.77274 0.0
H296 H 0.65534 0.78765 0.76213 0.0
O297 O 0.6364 0.77742 0.82799 0.0
O298 O 0.67245 0.79177 0.84158 0.0
H299 H 0.73472 0.8041 0.81277 0.0
H300 H 0.74532 0.81712 0.79316 0.0
C301 C 0.73115 0.82008 0.80352 0.0
H302 H 0.73517 0.83997 0.80926 0.0
H303 H 0.72983 0.80157 0.8454 0.0
O304 O 0.59831 0.79232 0.79863 0.0
C305 C 0.65453 0.7739 0.83881 0.0
Co306 Co 0.94376 0.88247 0.56435 0.0
Co307 Co 0.92158 0.932 0.58416 0.0
C308 C 0.89533 0.87727 0.58568 0.0
O309 O 0.91222 0.86736 0.57561 0.0
O310 O 0.8966 0.90194 0.59011 0.0
C311 C 0.94751 0.83527 0.54311 0.0
O312 O 0.92098 0.83461 0.54363 0.0
C313 C 0.88241 0.97339 0.59443 0.0
C314 C 0.90933 0.00429 0.60517 0.0
C315 C 0.88242 -0.00147 0.60203 0.0
N316 N 0.9081 0.9648 0.59322 0.0
N317 N 0.92407 0.9833 0.59973 0.0
C318 C 0.85884 0.95839 0.58746 0.0
H319 H 0.84979 0.94555 0.59713 0.0
H320 H 0.86557 0.94504 0.57735 0.0
H321 H 0.84322 0.97267 0.58297 0.0
C322 C 0.94273 0.92161 0.53787 0.0
N323 N 0.93481 0.91397 0.55286 0.0
N324 N 0.92662 0.93528 0.56113 0.0
C325 C 0.92958 0.95732 0.55162 0.0
C326 C 0.94001 0.9494 0.53661 0.0
C327 C 0.95813 0.90366 0.52647 0.0
H328 H 0.97759 0.89785 0.53223 0.0
H329 H 0.94635 0.88496 0.5242 0.0
H330 H 0.96225 0.91378 0.51463 0.0
O331 O 0.97241 0.89106 0.58028 0.0
O332 O 0.95699 0.92571 0.59471 0.0
H333 H 0.94292 0.98903 0.5674 0.0
H334 H 0.93062 0.00059 0.5478 0.0
C335 C 0.9275 0.98571 0.55777 0.0
H336 H 0.90726 0.98894 0.56324 0.0
H337 H 0.94506 0.98166 0.60037 0.0
O338 O 0.96002 0.85426 0.55032 0.0
C339 C 0.97537 0.90851 0.59155 0.0
Co340 Co 0.86774 0.18594 0.31217 0.0
Co341 Co 0.8159 0.1676 0.33136 0.0
C342 C 0.86845 0.13778 0.33397 0.0
O343 O 0.87987 0.15336 0.32374 0.0
O344 O 0.84397 0.1412 0.3383 0.0
C345 C 0.91981 0.18767 0.29618 0.0
O346 O 0.92321 0.16361 0.30264 0.0
C347 C 0.77234 0.13125 0.34175 0.0
C348 C 0.74225 0.16009 0.35145 0.0
C349 C 0.74703 0.13278 0.34905 0.0
N350 N 0.782 0.15647 0.34003 0.0
N351 N 0.76397 0.17361 0.3459 0.0
C352 C 0.78663 0.10664 0.33559 0.0
H353 H 0.80023 0.11208 0.32531 0.0
H354 H 0.77191 0.09108 0.33154 0.0
H355 H 0.79915 0.09808 0.34557 0.0
C356 C 0.82954 0.18752 0.28527 0.0
N357 N 0.83611 0.17906 0.30033 0.0
N358 N 0.81405 0.17193 0.30822 0.0
C359 C 0.79264 0.17591 0.29833 0.0
C360 C 0.80173 0.18624 0.28354 0.0
C361 C 0.84884 0.20175 0.27412 0.0
H362 H 0.85504 0.22119 0.27975 0.0
H363 H 0.86719 0.18917 0.27245 0.0
H364 H 0.83956 0.20577 0.26201 0.0
O365 O 0.86063 0.21555 0.32789 0.0
O366 O 0.82395 0.2029 0.34147 0.0
H367 H 0.76095 0.1915 0.31334 0.0
H368 H 0.74962 0.17875 0.29381 0.0
C369 C 0.76393 0.17544 0.30406 0.0
H370 H 0.75951 0.15565 0.30982 0.0
H371 H 0.76649 0.19455 0.34609 0.0
O372 O 0.89736 0.19974 0.2981 0.0
C373 C 0.84263 0.21994 0.33869 0.0
Co374 Co 0.55185 0.1158 0.06423 0.0
Co375 Co 0.57632 0.06629 0.08302 0.0
C376 C 0.60126 0.12128 0.08502 0.0
O377 O 0.58356 0.13096 0.07538 0.0
O378 O 0.601 0.09644 0.08914 0.0
C379 C 0.5482 0.1625 0.04273 0.0
O380 O 0.57473 0.16188 0.04242 0.0
C381 C 0.6156 0.02501 0.09358 0.0
C382 C 0.58827 0.99287 0.10245 0.0
C383 C 0.61532 -0.00066 0.10049 0.0
N384 N 0.5899 0.03321 0.09162 0.0
N385 N 0.5737 0.01397 0.09703 0.0
C386 C 0.63954 0.04091 0.08792 0.0
H387 H 0.64709 0.05347 0.09818 0.0
H388 H 0.63366 0.0546 0.07778 0.0
H389 H 0.65601 0.02725 0.08385 0.0
C390 C 0.55252 0.07738 0.03729 0.0
N391 N 0.56082 0.08482 0.05225 0.0
N392 N 0.57093 0.06377 0.05996 0.0
C393 C 0.5695 0.04215 0.04998 0.0
C394 C 0.55751 0.04995 0.03536 0.0
C395 C 0.53498 0.0949 0.02678 0.0
H396 H 0.51726 0.10181 0.03397 0.0
H397 H 0.54659 0.11305 0.02305 0.0
H398 H 0.52771 0.08435 0.01569 0.0
O399 O 0.52375 0.10633 0.08023 0.0
O400 O 0.54096 0.07174 0.09395 0.0
H401 H 0.56082 0.00695 0.06415 0.0
H402 H 0.57592 -0.00012 0.0445 0.0
C403 C 0.576 0.01387 0.0551 0.0
H404 H 0.5962 0.01337 0.06095 0.0
H405 H 0.55264 0.01518 0.09691 0.0
O406 O 0.53543 0.1444 0.05059 0.0
C407 C 0.52188 0.0884 0.09131 0.0
Co408 Co 0.62925 0.19438 0.68056 0.0
Co409 Co 0.67835 0.17011 0.66115 0.0
C410 C 0.62273 0.14639 0.65879 0.0
O411 O 0.61332 0.16357 0.66886 0.0
O412 O 0.64756 0.14655 0.65465 0.0
C413 C 0.58234 0.19859 0.70195 0.0
O414 O 0.58199 0.17204 0.70185 0.0
C415 C 0.71844 0.13106 0.64825 0.0
C416 C 0.75051 0.15904 0.63999 0.0
C417 C 0.74352 0.13196 0.64057 0.0
N418 N 0.71116 0.15652 0.65203 0.0
N419 N 0.73045 0.17307 0.64709 0.0
C420 C 0.70034 0.10712 0.65055 0.0
H421 H 0.69449 0.1056 0.6636 0.0
H422 H 0.7099 0.08803 0.64647 0.0
H423 H 0.68157 0.11018 0.64338 0.0
C424 C 0.66787 0.19189 0.7073 0.0
N425 N 0.66019 0.18424 0.69227 0.0
N426 N 0.68107 0.17432 0.68431 0.0
C427 C 0.70283 0.17526 0.69418 0.0
C428 C 0.69531 0.18676 0.70901 0.0
C429 C 0.65061 0.20916 0.71814 0.0
H430 H 0.64453 0.22765 0.7114 0.0
H431 H 0.63198 0.19789 0.72134 0.0
H432 H 0.66105 0.21517 0.72954 0.0
O433 O 0.6391 0.22304 0.66501 0.0
O434 O 0.67347 0.20613 0.65097 0.0
H435 H 0.73792 0.18498 0.68016 0.0
H436 H 0.7451 0.16826 0.6993 0.0
C437 C 0.73102 0.16907 0.68875 0.0
H438 H 0.73138 0.14939 0.68228 0.0
H439 H 0.72969 0.19405 0.64831 0.0
O440 O 0.60108 0.211 0.69444 0.0
C441 C 0.65705 0.22527 0.65397 0.0
Co442 Co 0.55567 0.88077 0.43131 0.0
Co443 Co 0.57697 0.93049 0.41112 0.0
C444 C 0.60422 0.87656 0.40966 0.0
O445 O 0.58747 0.86652 0.41976 0.0
O446 O 0.60263 0.90117 0.4052 0.0
C447 C 0.55412 0.83105 0.4497 0.0
O448 O 0.57932 0.82849 0.44491 0.0
C449 C 0.61389 0.97203 0.398 0.0
C450 C 0.58467 0.00244 0.38903 0.0
C451 C 0.61203 0.9968 0.39004 0.0
N452 N 0.58871 0.96364 0.40158 0.0
N453 N 0.5714 0.98193 0.39621 0.0
C454 C 0.63853 0.95506 0.40069 0.0
H455 H 0.6394 0.94868 0.41368 0.0
H456 H 0.6574 0.96565 0.39727 0.0
H457 H 0.63693 0.9365 0.39315 0.0
C458 C 0.55579 0.92068 0.45743 0.0
N459 N 0.56378 0.91286 0.44248 0.0
N460 N 0.57227 0.93399 0.43417 0.0
C461 C 0.56988 0.95608 0.44369 0.0
C462 C 0.55904 0.94847 0.45867 0.0
C463 C 0.54002 0.90278 0.4687 0.0
H464 H 0.52102 0.89648 0.46258 0.0
H465 H 0.55193 0.88429 0.47131 0.0
H466 H 0.53499 0.91293 0.48037 0.0
O467 O 0.52652 0.88795 0.41546 0.0
O468 O 0.54165 0.92253 0.40084 0.0
H469 H 0.55773 0.98964 0.42902 0.0
H470 H 0.5736 -0.00099 0.44808 0.0
C471 C 0.574 0.9844 0.43778 0.0
H472 H 0.59369 0.98594 0.43139 0.0
H473 H 0.55045 0.98016 0.39721 0.0
O474 O 0.54112 0.85232 0.44597 0.0
C475 C 0.52352 0.90507 0.40401 0.0
Co476 Co 0.86751 0.8076 0.18287 0.0
Co477 Co 0.81757 0.8301 0.16341 0.0
C478 C 0.87176 0.85664 0.16158 0.0
O479 O 0.88187 0.83945 0.17138 0.0
O480 O 0.847 0.85552 0.15739 0.0
C481 C 0.9177 0.80516 0.20078 0.0
O482 O 0.92045 0.8304 0.1961 0.0
C483 C 0.77662 0.8679 0.15061 0.0
C484 C 0.74564 0.83933 0.14158 0.0
C485 C 0.75193 0.86656 0.14255 0.0
N486 N 0.7844 0.84255 0.15424 0.0
N487 N 0.76574 0.82562 0.14887 0.0
C488 C 0.79419 0.89215 0.15321 0.0
H489 H 0.81124 0.89137 0.14442 0.0
H490 H 0.80287 0.89157 0.16571 0.0
H491 H 0.78318 0.91135 0.15129 0.0
C492 C 0.82833 0.80769 0.20938 0.0
N493 N 0.83589 0.816 0.19445 0.0
N494 N 0.81468 0.8251 0.18645 0.0
C495 C 0.79283 0.82285 0.19617 0.0
C496 C 0.80065 0.8114 0.21094 0.0
C497 C 0.84625 0.7912 0.22026 0.0
H498 H 0.85219 0.7724 0.21378 0.0
H499 H 0.86493 0.80277 0.22293 0.0
H500 H 0.83629 0.78575 0.23192 0.0
O501 O 0.85932 0.77873 0.16699 0.0
O502 O 0.82454 0.79471 0.15289 0.0
H503 H 0.75858 0.81173 0.18178 0.0
H504 H 0.75015 0.82748 0.20104 0.0
C505 C 0.76446 0.82772 0.19059 0.0
H506 H 0.76319 0.84755 0.18433 0.0
H507 H 0.76707 0.80463 0.14985 0.0
O508 O 0.89619 0.79246 0.19716 0.0
C509 C 0.84172 0.77617 0.15577 0.0
Co510 Co 0.94256 0.11455 0.93013 0.0
Co511 Co 0.92014 0.06502 0.9103 0.0
C512 C 0.89427 0.11994 0.90869 0.0
O513 O 0.91118 0.12978 0.91877 0.0
O514 O 0.89539 0.09524 0.90431 0.0
C515 C 0.94586 0.16155 0.9515 0.0
O516 O 0.91932 0.1619 0.95096 0.0
C517 C 0.8817 0.02442 0.89749 0.0
C518 C 0.90998 0.99338 0.88822 0.0
C519 C 0.8828 -0.00028 0.88939 0.0
N520 N 0.90715 0.03212 0.90097 0.0
N521 N 0.92389 0.01344 0.89543 0.0
C522 C 0.85756 0.04203 0.90034 0.0
H523 H 0.8593 0.06033 0.89258 0.0
H524 H 0.85732 0.04882 0.91326 0.0
H525 H 0.83835 0.03174 0.89729 0.0
C526 C 0.94147 0.07536 0.95654 0.0
N527 N 0.93342 0.08303 0.94159 0.0
N528 N 0.92499 0.06175 0.93337 0.0
C529 C 0.92784 0.03972 0.94291 0.0
C530 C 0.93859 0.0476 0.95785 0.0
C531 C 0.9571 0.09323 0.96788 0.0
H532 H 0.97646 0.09907 0.96201 0.0
H533 H 0.94538 0.1119 0.97028 0.0
H534 H 0.96141 0.08299 0.97966 0.0
O535 O 0.97137 0.10595 0.91431 0.0
O536 O 0.95568 0.07136 0.89993 0.0
H537 H 0.94196 0.00741 0.92788 0.0
H538 H 0.92725 0.99656 0.94699 0.0
C539 C 0.92558 0.01131 0.93682 0.0
H540 H 0.90589 0.00853 0.93057 0.0
H541 H 0.9449 0.01468 0.89627 0.0
O542 O 0.9586 0.14278 0.94424 0.0
C543 C 0.97419 0.08842 0.90306 0.0
Co544 Co 0.86621 0.69377 0.68171 0.0
Co545 Co 0.81801 0.67034 0.66109 0.0
C546 C 0.87348 0.64595 0.65992 0.0
O547 O 0.8825 0.6629 0.67025 0.0
O548 O 0.84894 0.64653 0.65522 0.0
C549 C 0.91258 0.69689 0.70338 0.0
O550 O 0.91286 0.67037 0.70256 0.0
C551 C 0.77632 0.63187 0.64903 0.0
C552 C 0.74895 0.66021 0.63633 0.0
C553 C 0.75289 0.63304 0.63964 0.0
N554 N 0.78565 0.65723 0.65109 0.0
N555 N 0.76907 0.674 0.64353 0.0
C556 C 0.79038 0.60718 0.65527 0.0
H557 H 0.81171 0.61167 0.65834 0.0
H558 H 0.78015 0.60023 0.66657 0.0
H559 H 0.78942 0.59068 0.6461 0.0
C560 C 0.8258 0.69142 0.70752 0.0
N561 N 0.83438 0.68382 0.69265 0.0
N562 N 0.81384 0.67452 0.68411 0.0
C563 C 0.79138 0.67607 0.69335 0.0
C564 C 0.79812 0.68709 0.70845 0.0
C565 C 0.84267 0.70799 0.71896 0.0
H566 H 0.84868 0.72704 0.71279 0.0
H567 H 0.86136 0.69669 0.72198 0.0
H568 H 0.83185 0.71295 0.73042 0.0
O569 O 0.85777 0.72274 0.66602 0.0
O570 O 0.82413 0.70631 0.65116 0.0
H571 H 0.75879 0.68643 0.67741 0.0
H572 H 0.74815 0.67267 0.69686 0.0
C573 C 0.76345 0.67127 0.68698 0.0
H574 H 0.76238 0.65091 0.68136 0.0
H575 H 0.77174 0.69491 0.64305 0.0
O576 O 0.89381 0.70985 0.69627 0.0
C577 C 0.8406 0.72522 0.65456 0.0
Co578 Co 0.55432 0.61564 0.93027 0.0
Co579 Co 0.57687 0.5657 0.91101 0.0
C580 C 0.60191 0.62085 0.90822 0.0
O581 O 0.58519 0.63079 0.91838 0.0
O582 O 0.60103 0.59598 0.90416 0.0
C583 C 0.55049 0.66331 0.95116 0.0
O584 O 0.57702 0.66397 0.95076 0.0
C585 C 0.61601 0.52424 0.90055 0.0
C586 C 0.5887 0.49258 0.89104 0.0
C587 C 0.61574 0.49873 0.89343 0.0
N588 N 0.59032 0.53267 0.90223 0.0
N589 N 0.57414 0.51371 0.89644 0.0
C590 C 0.63988 0.53981 0.90662 0.0
H591 H 0.63372 0.55364 0.91664 0.0
H592 H 0.65595 0.52592 0.91098 0.0
H593 H 0.64812 0.55221 0.89648 0.0
C594 C 0.55626 0.57757 0.95721 0.0
N595 N 0.56417 0.58481 0.94216 0.0
N596 N 0.57268 0.56333 0.93418 0.0
C597 C 0.57004 0.5416 0.94398 0.0
C598 C 0.55928 0.54987 0.95885 0.0
C599 C 0.54051 0.59567 0.96836 0.0
H600 H 0.55204 0.61457 0.97047 0.0
H601 H 0.53644 0.58581 0.98029 0.0
H602 H 0.52103 0.60105 0.96248 0.0
O603 O 0.52526 0.60585 0.91489 0.0
O604 O 0.54092 0.57082 0.90091 0.0
H605 H 0.55629 0.50919 0.92888 0.0
H606 H 0.56973 0.49848 0.94837 0.0
C607 C 0.57218 0.51303 0.93815 0.0
H608 H 0.59217 0.50983 0.93235 0.0
H609 H 0.5531 0.51513 0.89627 0.0
O610 O 0.53806 0.64421 0.94401 0.0
C611 C 0.52228 0.58777 0.904 0.0
Co612 Co 0.63072 0.30414 0.18145 0.0
Co613 Co 0.67985 0.32739 0.16174 0.0
C614 C 0.62525 0.35338 0.16058 0.0
O615 O 0.61553 0.33601 0.17043 0.0
O616 O 0.6499 0.35251 0.15611 0.0
C617 C 0.58385 0.30019 0.20293 0.0
O618 O 0.58328 0.32673 0.20262 0.0
C619 C 0.72123 0.36588 0.15021 0.0
C620 C 0.7525 0.3378 0.14105 0.0
C621 C 0.74658 0.365 0.14289 0.0
N622 N 0.71271 0.34036 0.15253 0.0
N623 N 0.73143 0.32371 0.14695 0.0
C624 C 0.70596 0.39023 0.15585 0.0
H625 H 0.69269 0.3849 0.1663 0.0
H626 H 0.72003 0.40666 0.15945 0.0
H627 H 0.69301 0.3976 0.14572 0.0
C628 C 0.6703 0.3047 0.2078 0.0
N629 N 0.66237 0.31282 0.19289 0.0
N630 N 0.6833 0.32219 0.18475 0.0
C631 C 0.70535 0.32031 0.19433 0.0
C632 C 0.69793 0.30887 0.20918 0.0
C633 C 0.65285 0.28801 0.21884 0.0
H634 H 0.64654 0.26938 0.21233 0.0
H635 H 0.63436 0.2996 0.22193 0.0
H636 H 0.66334 0.28232 0.23029 0.0
O637 O 0.63903 0.27577 0.16535 0.0
O638 O 0.67333 0.29207 0.151 0.0
H639 H 0.73929 0.30982 0.17951 0.0
H640 H 0.74815 0.3249 0.19889 0.0
C641 C 0.73358 0.32546 0.18858 0.0
H642 H 0.73466 0.34552 0.1826 0.0
H643 H 0.72987 0.30268 0.14725 0.0
O644 O 0.60266 0.28776 0.19551 0.0
C645 C 0.65639 0.27339 0.15399 0.0
Co646 Co 0.94271 0.38051 0.42987 0.0
Co647 Co 0.91955 0.42996 0.41042 0.0
C648 C 0.89544 0.37483 0.40731 0.0
O649 O 0.91228 0.36527 0.41752 0.0
O650 O 0.89574 0.39972 0.40329 0.0
C651 C 0.94441 0.33304 0.45064 0.0
O652 O 0.91791 0.33344 0.44965 0.0
C653 C 0.88136 0.47164 0.39884 0.0
C654 C 0.90974 0.5034 0.3907 0.0
C655 C 0.88249 0.49734 0.392 0.0
N656 N 0.90679 0.46307 0.40143 0.0
N657 N 0.92362 0.48208 0.39644 0.0
C658 C 0.85682 0.45607 0.40384 0.0
H659 H 0.86184 0.44202 0.41397 0.0
H660 H 0.84037 0.46996 0.40767 0.0
H661 H 0.84964 0.44392 0.39331 0.0
C662 C 0.93961 0.41879 0.45678 0.0
N663 N 0.93231 0.41129 0.44164 0.0
N664 N 0.92288 0.43235 0.43364 0.0
C665 C 0.92389 0.45404 0.44358 0.0
C666 C 0.93488 0.44629 0.45849 0.0
C667 C 0.95635 0.40131 0.46777 0.0
H668 H 0.97529 0.3956 0.46138 0.0
H669 H 0.94506 0.38248 0.47051 0.0
H670 H 0.96149 0.41151 0.47942 0.0
O671 O 0.97224 0.39031 0.41486 0.0
O672 O 0.95584 0.42481 0.40072 0.0
H673 H 0.93472 0.48865 0.42941 0.0
H674 H 0.91855 0.49661 0.44862 0.0
C675 C 0.9187 0.48242 0.43811 0.0
H676 H 0.89894 0.48347 0.43177 0.0
H677 H 0.94463 0.48058 0.39708 0.0
O678 O 0.95797 0.35174 0.44386 0.0
C679 C 0.97485 0.40834 0.4039 0.0
Co680 Co 0.86637 0.30333 0.81248 0.0
Co681 Co 0.81685 0.32615 0.83209 0.0
C682 C 0.87184 0.3518 0.83378 0.0
O683 O 0.88167 0.33478 0.82376 0.0
O684 O 0.84711 0.35079 0.83809 0.0
C685 C 0.91358 0.2998 0.7914 0.0
O686 O 0.91391 0.32634 0.79192 0.0
C687 C 0.7767 0.36507 0.84474 0.0
C688 C 0.74537 0.33723 0.85415 0.0
C689 C 0.75206 0.36434 0.85292 0.0
N690 N 0.78404 0.3395 0.84131 0.0
N691 N 0.76518 0.32302 0.84691 0.0
C692 C 0.79464 0.38896 0.84187 0.0
H693 H 0.8122 0.3877 0.85026 0.0
H694 H 0.80256 0.38832 0.82919 0.0
H695 H 0.78418 0.40838 0.84411 0.0
C696 C 0.82729 0.304 0.78603 0.0
N697 N 0.83495 0.31238 0.80092 0.0
N698 N 0.81369 0.32111 0.80902 0.0
C699 C 0.7917 0.31824 0.79946 0.0
C700 C 0.79955 0.30702 0.78464 0.0
C701 C 0.84513 0.2881 0.77481 0.0
H702 H 0.85081 0.26879 0.7808 0.0
H703 H 0.8639 0.29968 0.7724 0.0
H704 H 0.83494 0.28369 0.76303 0.0
O705 O 0.8576 0.27474 0.8284 0.0
O706 O 0.82293 0.29064 0.8426 0.0
H707 H 0.75922 0.30452 0.8145 0.0
H708 H 0.74856 0.31911 0.79532 0.0
C709 C 0.76329 0.32078 0.8055 0.0
H710 H 0.76064 0.34056 0.81167 0.0
H711 H 0.76616 0.30199 0.84613 0.0
O712 O 0.89466 0.28706 0.79853 0.0
C713 C 0.83998 0.27206 0.8396 0.0
Co714 Co 0.94029 0.61862 0.06285 0.0
Co715 Co 0.91684 0.56905 0.08204 0.0
C716 C 0.89235 0.62411 0.08489 0.0
O717 O 0.90941 0.63382 0.07484 0.0
O718 O 0.89271 0.59921 0.08887 0.0
C719 C 0.94354 0.666 0.04178 0.0
O720 O 0.917 0.66629 0.04223 0.0
C721 C 0.87865 0.52717 0.09349 0.0
C722 C 0.90715 0.49542 0.10149 0.0
C723 C 0.87988 0.50141 0.10024 0.0
N724 N 0.90406 0.53585 0.0909 0.0
N725 N 0.92095 0.51683 0.09581 0.0
C726 C 0.85405 0.54274 0.08861 0.0
H727 H 0.85895 0.55681 0.07847 0.0
H728 H 0.83757 0.52885 0.08484 0.0
H729 H 0.84699 0.55486 0.09919 0.0
C730 C 0.93824 0.58029 0.03591 0.0
N731 N 0.93046 0.58775 0.05097 0.0
N732 N 0.92085 0.56666 0.05886 0.0
C733 C 0.92217 0.54499 0.04892 0.0
C734 C 0.9336 0.55278 0.03414 0.0
C735 C 0.95526 0.59783 0.02511 0.0
H736 H 0.97391 0.60374 0.03174 0.0
H737 H 0.94393 0.61655 0.02217 0.0
H738 H 0.96094 0.58762 0.01356 0.0
O739 O 0.96934 0.60899 0.07819 0.0
O740 O 0.95282 0.57436 0.09214 0.0
H741 H 0.93255 0.51016 0.06301 0.0
H742 H 0.91653 0.50252 0.04372 0.0
C743 C 0.91667 0.51661 0.05428 0.0
H744 H 0.89683 0.51565 0.06053 0.0
H745 H 0.94195 0.5184 0.09516 0.0
O746 O 0.95626 0.64718 0.049 0.0
C747 C 0.97179 0.59098 0.08916 0.0
Co748 Co 0.62954 0.69275 0.31382 0.0
Co749 Co 0.67975 0.67038 0.33284 0.0
C750 C 0.62512 0.64452 0.33552 0.0
O751 O 0.61495 0.66138 0.32553 0.0
O752 O 0.64999 0.64555 0.33952 0.0
C753 C 0.58223 0.69547 0.29267 0.0
O754 O 0.58247 0.66892 0.29293 0.0
C755 C 0.72185 0.63212 0.3436 0.0
C756 C 0.75315 0.66029 0.35262 0.0
C757 C 0.74741 0.63307 0.35063 0.0
N758 N 0.71304 0.65761 0.34158 0.0
N759 N 0.73178 0.67431 0.34707 0.0
C760 C 0.70656 0.60775 0.338 0.0
H761 H 0.69276 0.6132 0.32783 0.0
H762 H 0.72064 0.59157 0.33401 0.0
H763 H 0.69417 0.59999 0.34828 0.0
C764 C 0.66778 0.69228 0.28691 0.0
N765 N 0.66058 0.68377 0.30186 0.0
N766 N 0.6821 0.67508 0.30971 0.0
C767 C 0.7038 0.67804 0.29991 0.0
C768 C 0.69549 0.68938 0.28522 0.0
C769 C 0.64954 0.70812 0.27591 0.0
H770 H 0.64363 0.72722 0.28207 0.0
H771 H 0.63095 0.69628 0.2735 0.0
H772 H 0.6595 0.7129 0.2641 0.0
O773 O 0.63869 0.72173 0.32942 0.0
O774 O 0.67385 0.70599 0.34324 0.0
H775 H 0.73652 0.69169 0.31478 0.0
H776 H 0.74687 0.67777 0.29536 0.0
C777 C 0.7324 0.67565 0.30565 0.0
H778 H 0.73543 0.65573 0.31155 0.0
H779 H 0.73002 0.69533 0.34697 0.0
O780 O 0.60069 0.70845 0.30007 0.0
C781 C 0.6567 0.72453 0.34038 0.0
Co782 Co 0.55654 0.38077 0.56276 0.0
Co783 Co 0.57772 0.4307 0.58274 0.0
C784 C 0.60477 0.37673 0.58468 0.0
O785 O 0.5881 0.3666 0.57456 0.0
O786 O 0.6032 0.40141 0.58903 0.0
C787 C 0.55437 0.33032 0.54504 0.0
O788 O 0.57935 0.32733 0.55015 0.0
C789 C 0.61546 0.47278 0.59386 0.0
C790 C 0.58737 0.50334 0.60383 0.0
C791 C 0.61456 0.49795 0.6014 0.0
N792 N 0.59 0.46381 0.59201 0.0
N793 N 0.57333 0.4821 0.59807 0.0
C794 C 0.63971 0.45814 0.58749 0.0
H795 H 0.63387 0.44473 0.5772 0.0
H796 H 0.65543 0.47264 0.58339 0.0
H797 H 0.64825 0.4454 0.59737 0.0
C798 C 0.55717 0.42015 0.53639 0.0
N799 N 0.56509 0.41252 0.55139 0.0
N800 N 0.57347 0.43378 0.55963 0.0
C801 C 0.571 0.45576 0.55004 0.0
C802 C 0.56027 0.44794 0.53507 0.0
C803 C 0.54142 0.4021 0.52519 0.0
H804 H 0.55312 0.38336 0.52289 0.0
H805 H 0.53685 0.41196 0.51336 0.0
H806 H 0.52218 0.39629 0.53121 0.0
O807 O 0.52713 0.3887 0.5783 0.0
O808 O 0.542 0.42354 0.5928 0.0
H809 H 0.55897 0.48888 0.56514 0.0
H810 H 0.57326 0.49884 0.54571 0.0
C811 C 0.57471 0.48415 0.55592 0.0
H812 H 0.59478 0.48619 0.5618 0.0
H813 H 0.55233 0.48015 0.59818 0.0
O814 O 0.54183 0.35208 0.54829 0.0
C815 C 0.52382 0.40617 0.58953 0.0
Co816 Co 0.12995 0.30795 0.31322 0.0
Co817 Co 0.1803 0.32909 0.33282 0.0
C818 C 0.12665 0.35665 0.33487 0.0
O819 O 0.11624 0.33988 0.3249 0.0
O820 O 0.15137 0.35499 0.3391 0.0
C821 C 0.07907 0.30527 0.29591 0.0
O822 O 0.07557 0.33002 0.30132 0.0
C823 C 0.22299 0.36624 0.34384 0.0
C824 C 0.2536 0.33758 0.35312 0.0
C825 C 0.24837 0.36488 0.35106 0.0
N826 N 0.21374 0.34091 0.34181 0.0
N827 N 0.23207 0.3239 0.34746 0.0
C828 C 0.20835 0.39081 0.33793 0.0
H829 H 0.19576 0.39895 0.34802 0.0
H830 H 0.19479 0.38546 0.32762 0.0
H831 H 0.22284 0.40666 0.33402 0.0
C832 C 0.16887 0.30812 0.28659 0.0
N833 N 0.16159 0.31603 0.30165 0.0
N834 N 0.18301 0.32442 0.30972 0.0
C835 C 0.20476 0.32202 0.29993 0.0
C836 C 0.1966 0.31131 0.28502 0.0
C837 C 0.15055 0.29247 0.2755 0.0
H838 H 0.14462 0.27332 0.28158 0.0
H839 H 0.13191 0.30434 0.27326 0.0
H840 H 0.16022 0.28771 0.26363 0.0
O841 O 0.13773 0.27879 0.32894 0.0
O842 O 0.17274 0.29377 0.34323 0.0
H843 H 0.23848 0.31017 0.31456 0.0
H844 H 0.24765 0.32487 0.29511 0.0
C845 C 0.23328 0.326 0.3055 0.0
H846 H 0.23526 0.34602 0.31147 0.0
H847 H 0.22994 0.30291 0.34735 0.0
O848 O 0.10114 0.29314 0.29891 0.0
C849 C 0.15519 0.27567 0.34018 0.0
Co850 Co 0.44503 0.38055 0.06339 0.0
Co851 Co 0.42034 0.42951 0.08269 0.0
C852 C 0.39585 0.37417 0.08417 0.0
O853 O 0.4135 0.36476 0.07441 0.0
O854 O 0.39605 0.39892 0.08848 0.0
C855 C 0.44906 0.33409 0.04179 0.0
O856 O 0.42251 0.33436 0.04167 0.0
C857 C 0.38059 0.46965 0.09429 0.0
C858 C 0.40764 0.50079 0.10473 0.0
C859 C 0.38069 0.49425 0.10252 0.0
N860 N 0.40638 0.46216 0.09176 0.0
N861 N 0.4224 0.4809 0.09797 0.0
C862 C 0.35688 0.45208 0.09028 0.0
H863 H 0.35772 0.43362 0.09795 0.0
H864 H 0.35818 0.44557 0.07733 0.0
H865 H 0.33734 0.46232 0.09257 0.0
C866 C 0.444 0.41964 0.03684 0.0
N867 N 0.43579 0.41182 0.05174 0.0
N868 N 0.42574 0.43266 0.05967 0.0
C869 C 0.42717 0.45456 0.04993 0.0
C870 C 0.43903 0.44713 0.03519 0.0
C871 C 0.46146 0.40236 0.02612 0.0
H872 H 0.47938 0.39555 0.03315 0.0
H873 H 0.44992 0.38413 0.02242 0.0
H874 H 0.46842 0.41305 0.01501 0.0
O875 O 0.47303 0.3898 0.07952 0.0
O876 O 0.45571 0.42401 0.09355 0.0
H877 H 0.43595 0.48916 0.06462 0.0
H878 H 0.42101 0.49707 0.04503 0.0
C879 C 0.4208 0.48269 0.05543 0.0
H880 H 0.40058 0.48306 0.06127 0.0
H881 H 0.44347 0.47986 0.09786 0.0
O882 O 0.46173 0.35239 0.04953 0.0
C883 C 0.47483 0.40746 0.09076 0.0
Co884 Co 0.36512 0.68797 0.81379 0.0
Co885 Co 0.31524 0.66763 0.83406 0.0
C886 C 0.36912 0.64026 0.83602 0.0
O887 O 0.37928 0.65664 0.82574 0.0
O888 O 0.34451 0.64211 0.84045 0.0
C889 C 0.41534 0.6897 0.79584 0.0
O890 O 0.41835 0.6648 0.80109 0.0
C891 C 0.27305 0.63012 0.84515 0.0
C892 C 0.24279 0.65827 0.8554 0.0
C893 C 0.24798 0.63108 0.85278 0.0
N894 N 0.28217 0.65555 0.84343 0.0
N895 N 0.26407 0.67225 0.84965 0.0
C896 C 0.28747 0.60587 0.8386 0.0
H897 H 0.3003 0.59715 0.84839 0.0
H898 H 0.30078 0.61175 0.82828 0.0
H899 H 0.27284 0.59026 0.83452 0.0
C900 C 0.32569 0.68673 0.78751 0.0
N901 N 0.33333 0.67914 0.80256 0.0
N902 N 0.31196 0.67153 0.81096 0.0
C903 C 0.28992 0.67447 0.80146 0.0
C904 C 0.29786 0.68441 0.78634 0.0
C905 C 0.34378 0.70158 0.77592 0.0
H906 H 0.34937 0.72139 0.78132 0.0
H907 H 0.3626 0.68981 0.77402 0.0
H908 H 0.33378 0.70496 0.76395 0.0
O909 O 0.35739 0.71778 0.82917 0.0
O910 O 0.32257 0.70342 0.84386 0.0
H911 H 0.25857 0.68919 0.81705 0.0
H912 H 0.24665 0.67605 0.79773 0.0
C913 C 0.26154 0.6732 0.80773 0.0
H914 H 0.258 0.65331 0.81358 0.0
H915 H 0.26617 0.69324 0.84988 0.0
O916 O 0.39366 0.70235 0.79913 0.0
C917 C 0.34002 0.72143 0.84043 0.0
Co918 Co 0.05548 0.61789 0.56216 0.0
Co919 Co 0.07795 0.56716 0.58072 0.0
C920 C 0.10585 0.621 0.58206 0.0
O921 O 0.0884 0.63163 0.57263 0.0
O922 O 0.10432 0.59623 0.58627 0.0
C923 C 0.05125 0.66596 0.5416 0.0
O924 O 0.0778 0.66639 0.54157 0.0
C925 C 0.11575 0.52443 0.59133 0.0
C926 C 0.08717 0.49346 0.60028 0.0
C927 C 0.11445 0.49889 0.59838 0.0
N928 N 0.09039 0.53355 0.58923 0.0
N929 N 0.07344 0.51498 0.59467 0.0
C930 C 0.14037 0.53949 0.58591 0.0
H931 H 0.13532 0.55299 0.57552 0.0
H932 H 0.15665 0.52528 0.58228 0.0
H933 H 0.14776 0.55219 0.59615 0.0
C934 C 0.05273 0.57942 0.5354 0.0
N935 N 0.06231 0.58641 0.55014 0.0
N936 N 0.07108 0.56471 0.55778 0.0
C937 C 0.0672 0.5431 0.54801 0.0
C938 C 0.05513 0.55169 0.5336 0.0
C939 C 0.03699 0.59811 0.52463 0.0
H940 H 0.01815 0.60427 0.53098 0.0
H941 H 0.04909 0.61654 0.52223 0.0
H942 H 0.03175 0.5884 0.51281 0.0
O943 O 0.02788 0.60985 0.57877 0.0
O944 O 0.04356 0.57438 0.59232 0.0
H945 H 0.05412 0.51008 0.56282 0.0
H946 H 0.06751 0.5001 0.54321 0.0
C947 C 0.06988 0.51442 0.55355 0.0
H948 H 0.08998 0.51137 0.55924 0.0
H949 H 0.05245 0.51701 0.59455 0.0
O950 O 0.03897 0.64689 0.54886 0.0
C951 C 0.02542 0.59215 0.58993 0.0
Co952 Co 0.12869 0.68871 0.18108 0.0
Co953 Co 0.17837 0.66799 0.16067 0.0
C954 C 0.124 0.64128 0.15876 0.0
O955 O 0.11405 0.65756 0.16916 0.0
O956 O 0.1486 0.64302 0.15431 0.0
C957 C 0.07886 0.69032 0.19937 0.0
O958 O 0.076 0.66533 0.19424 0.0
C959 C 0.2214 0.63034 0.15042 0.0
C960 C 0.24646 0.65702 0.13496 0.0
C961 C 0.244 0.63057 0.14032 0.0
N962 N 0.21108 0.65548 0.15093 0.0
N963 N 0.2263 0.67134 0.14177 0.0
C964 C 0.20874 0.60649 0.15865 0.0
H965 H 0.1876 0.61096 0.16221 0.0
H966 H 0.22025 0.60175 0.16991 0.0
H967 H 0.20937 0.58854 0.15051 0.0
C968 C 0.16851 0.68787 0.20709 0.0
N969 N 0.16064 0.67974 0.19219 0.0
N970 N 0.18193 0.67213 0.18371 0.0
C971 C 0.20416 0.67576 0.19296 0.0
C972 C 0.19641 0.68605 0.20805 0.0
C973 C 0.15046 0.70271 0.21871 0.0
H974 H 0.1447 0.72244 0.21329 0.0
H975 H 0.13175 0.69083 0.22074 0.0
H976 H 0.1606 0.70625 0.23062 0.0
O977 O 0.13643 0.71844 0.1656 0.0
O978 O 0.17113 0.70376 0.1509 0.0
H979 H 0.23402 0.68957 0.17601 0.0
H980 H 0.24747 0.68021 0.1958 0.0
C981 C 0.23232 0.67507 0.1863 0.0
H982 H 0.23666 0.65456 0.18151 0.0
H983 H 0.22252 0.69184 0.13981 0.0
O984 O 0.10034 0.70316 0.19587 0.0
C985 C 0.15377 0.72187 0.15429 0.0
Co986 Co 0.05239 0.37883 0.93221 0.0
Co987 Co 0.07585 0.42858 0.91307 0.0
C988 C 0.10221 0.37392 0.91197 0.0
O989 O 0.08467 0.3639 0.92158 0.0
O990 O 0.10122 0.39864 0.90763 0.0
C991 C 0.04798 0.33159 0.95331 0.0
O992 O 0.07453 0.33122 0.95328 0.0
C993 C 0.11436 0.46948 0.90069 0.0
C994 C 0.08605 0.5006 0.89156 0.0
C995 C 0.11324 0.49432 0.89275 0.0
N996 N 0.08891 0.46165 0.90405 0.0
N997 N 0.07215 0.48038 0.8986 0.0
C998 C 0.13852 0.45186 0.90343 0.0
H999 H 0.13677 0.43364 0.8956 0.0
H1000 H 0.13882 0.44496 0.91633 0.0
H1001 H 0.15772 0.46218 0.90039 0.0
C1002 C 0.05125 0.41804 0.95865 0.0
N1003 N 0.0604 0.41042 0.94392 0.0
N1004 N 0.0696 0.43171 0.93603 0.0
C1005 C 0.06641 0.45365 0.94561 0.0
C1006 C 0.05435 0.44575 0.96017 0.0
C1007 C 0.03499 0.40009 0.96961 0.0
H1008 H 0.01602 0.39422 0.96331 0.0
H1009 H 0.04661 0.38142 0.97222 0.0
H1010 H 0.02999 0.41028 0.98131 0.0
O1011 O 0.02457 0.3872 0.91576 0.0
O1012 O 0.041 0.42198 0.90189 0.0
H1013 H 0.05355 0.48666 0.93073 0.0
H1014 H 0.0681 0.49671 0.95002 0.0
C1015 C 0.06962 0.48211 0.93976 0.0
H1016 H 0.08953 0.48449 0.93371 0.0
H1017 H 0.05114 0.47906 0.89936 0.0
O1018 O 0.03564 0.35045 0.9459 0.0
C1019 C 0.0224 0.40479 0.90452 0.0
Co1020 Co 0.36496 0.30332 0.67966 0.0
Co1021 Co 0.31524 0.32596 0.66026 0.0
C1022 C 0.37021 0.35115 0.65769 0.0
O1023 O 0.38004 0.33425 0.66778 0.0
O1024 O 0.34538 0.35038 0.65356 0.0
C1025 C 0.4123 0.30034 0.70079 0.0
O1026 O 0.41254 0.32688 0.70025 0.0
C1027 C 0.27362 0.3643 0.64875 0.0
C1028 C 0.24205 0.33604 0.6402 0.0
C1029 C 0.24809 0.36327 0.64168 0.0
N1030 N 0.28214 0.33882 0.65128 0.0
N1031 N 0.26322 0.32207 0.64606 0.0
C1032 C 0.28917 0.38877 0.6539 0.0
H1033 H 0.30285 0.38371 0.66421 0.0
H1034 H 0.27528 0.40533 0.65752 0.0
H1035 H 0.30173 0.39581 0.6435 0.0
C1036 C 0.32663 0.30552 0.70652 0.0
N1037 N 0.334 0.31317 0.69143 0.0
N1038 N 0.31266 0.32191 0.68342 0.0
C1039 C 0.2909 0.31974 0.69324 0.0
C1040 C 0.29899 0.30903 0.70814 0.0
C1041 C 0.3445 0.28964 0.71773 0.0
H1042 H 0.35 0.27022 0.7118 0.0
H1043 H 0.36335 0.30114 0.72001 0.0
H1044 H 0.33443 0.28546 0.72958 0.0
O1045 O 0.35552 0.27406 0.66432 0.0
O1046 O 0.32074 0.28999 0.65025 0.0
H1047 H 0.25791 0.30609 0.67858 0.0
H1048 H 0.24787 0.32103 0.69779 0.0
C1049 C 0.26235 0.32243 0.68747 0.0
H1050 H 0.25969 0.34215 0.68125 0.0
H1051 H 0.26473 0.30104 0.64655 0.0
O1052 O 0.39352 0.2875 0.6936 0.0
C1053 C 0.33754 0.27124 0.65334 0.0
Co1054 Co 0.43998 0.6178 0.43175 0.0
Co1055 Co 0.41936 0.56673 0.4126 0.0
C1056 C 0.39185 0.62049 0.4098 0.0
O1057 O 0.40835 0.63127 0.41977 0.0
O1058 O 0.39373 0.59566 0.40587 0.0
C1059 C 0.44119 0.66855 0.44917 0.0
O1060 O 0.41614 0.67097 0.44407 0.0
C1061 C 0.38217 0.52491 0.40033 0.0
C1062 C 0.411 0.49409 0.39141 0.0
C1063 C 0.38371 0.5 0.3925 0.0
N1064 N 0.40746 0.53315 0.40372 0.0
N1065 N 0.42455 0.5146 0.39842 0.0
C1066 C 0.35776 0.54229 0.40285 0.0
H1067 H 0.3583 0.55916 0.39393 0.0
H1068 H 0.35834 0.55125 0.41528 0.0
H1069 H 0.33864 0.53108 0.40106 0.0
C1070 C 0.44005 0.57958 0.45863 0.0
N1071 N 0.43168 0.58644 0.4436 0.0
N1072 N 0.42375 0.56463 0.43573 0.0
C1073 C 0.42708 0.54308 0.44561 0.0
C1074 C 0.43791 0.5518 0.46036 0.0
C1075 C 0.45495 0.59841 0.46976 0.0
H1076 H 0.44289 0.61707 0.47154 0.0
H1077 H 0.45891 0.58894 0.48182 0.0
H1078 H 0.47446 0.60414 0.46403 0.0
O1079 O 0.46952 0.60956 0.41629 0.0
O1080 O 0.45492 0.57387 0.40244 0.0
H1081 H 0.44209 0.51054 0.43106 0.0
H1082 H 0.42742 0.50003 0.45025 0.0
C1083 C 0.42553 0.51439 0.43989 0.0
H1084 H 0.40598 0.51093 0.43362 0.0
H1085 H 0.44553 0.51626 0.39924 0.0
O1086 O 0.45423 0.64709 0.44591 0.0
C1087 C 0.47293 0.59159 0.40534 0.0
H1088 H 0.53814 0.3194 0.21797 0.0
H1089 H 0.57677 0.24555 0.20219 0.0
H1090 H 0.49682 0.29423 0.22378 0.0
H1091 H 0.53547 0.22076 0.20725 0.0
H1092 H 0.46025 0.17742 0.21812 0.0
H1093 H 0.50144 0.20266 0.22415 0.0
H1094 H 0.46344 0.27577 0.20656 0.0
H1095 H 0.42225 0.25094 0.20126 0.0
C1096 C 0.53796 0.29776 0.21596 0.0
C1097 C 0.56058 0.2846 0.20932 0.0
C1098 C 0.51422 0.28334 0.2192 0.0
C1099 C 0.51255 0.2555 0.21571 0.0
C1100 C 0.53591 0.24208 0.21024 0.0
C1101 C 0.55964 0.25642 0.20716 0.0
C1102 C 0.46055 0.199 0.2159 0.0
C1103 C 0.43814 0.21205 0.20892 0.0
C1104 C 0.48422 0.21347 0.21927 0.0
C1105 C 0.48603 0.24122 0.21559 0.0
C1106 C 0.46288 0.25453 0.20972 0.0
C1107 C 0.43921 0.24016 0.20651 0.0
H1108 H 0.06101 0.20387 0.46693 0.0
H1109 H 0.98812 0.17011 0.4462 0.0
H1110 H 0.03682 0.24568 0.47299 0.0
H1111 H 0.96437 0.21193 0.45163 0.0
H1112 H 0.92242 0.2872 0.464 0.0
H1113 H 0.94557 0.2446 0.46946 0.0
H1114 H 0.02164 0.28154 0.45615 0.0
H1115 H -0.00122 0.32408 0.45137 0.0
C1116 C 0.03976 0.20521 0.46387 0.0
C1117 C 0.02664 0.18384 0.45582 0.0
C1118 C 0.02591 0.22923 0.46727 0.0
C1119 C -0.00129 0.23241 0.46259 0.0
C1120 C 0.98519 0.21026 0.45558 0.0
C1121 C -0.00105 0.18626 0.4523 0.0
C1122 C 0.94417 0.28635 0.46263 0.0
C1123 C 0.95866 0.30888 0.45694 0.0
C1124 C 0.95744 0.26189 0.46566 0.0
C1125 C 0.98543 0.25942 0.46296 0.0
C1126 C 0.00013 0.2826 0.4585 0.0
C1127 C 0.98693 0.30705 0.4556 0.0
H1128 H 0.07505 0.7415 0.69922 0.0
H1129 H 0.04043 0.81582 0.71742 0.0
H1130 H 0.03328 0.71795 0.70502 0.0
H1131 H -0.00136 0.79186 0.7239 0.0
H1132 H 0.92089 0.75141 0.70299 0.0
H1133 H 0.9631 0.77502 0.7075 0.0
H1134 H 0.00044 0.70031 0.72302 0.0
H1135 H 0.95821 0.67636 0.7178 0.0
C1136 C 0.05871 0.75271 0.70484 0.0
C1137 C 0.0609 0.78069 0.70754 0.0
C1138 C 0.03472 0.73908 0.70834 0.0
C1139 C 0.01235 0.75301 0.71477 0.0
C1140 C 0.01526 0.7806 0.71863 0.0
C1141 C 0.03927 0.79433 0.715 0.0
C1142 C 0.93793 0.74004 0.70766 0.0
C1143 C 0.93634 0.71186 0.70967 0.0
C1144 C 0.96219 0.75368 0.71039 0.0
C1145 C 0.98542 0.73954 0.71537 0.0
C1146 C 0.98314 0.71174 0.71879 0.0
C1147 C 0.95887 0.69801 0.7159 0.0
H1148 H 0.56954 0.70886 0.96646 0.0
H1149 H 0.49592 0.67056 0.95001 0.0
H1150 H 0.54433 0.75011 0.97239 0.0
H1151 H 0.47112 0.71181 0.95516 0.0
H1152 H 0.42759 0.78678 0.96617 0.0
H1153 H 0.45268 0.74546 0.97208 0.0
H1154 H 0.52621 0.78394 0.9555 0.0
H1155 H 0.50151 0.82525 0.95036 0.0
C1156 C 0.54794 0.70912 0.96431 0.0
C1157 C 0.53486 0.6866 0.95747 0.0
C1158 C 0.53349 0.73282 0.96761 0.0
C1159 C 0.50572 0.73457 0.96399 0.0
C1160 C 0.49237 0.71131 0.95827 0.0
C1161 C 0.50673 0.68761 0.95515 0.0
C1162 C 0.44922 0.78655 0.96416 0.0
C1163 C 0.46244 0.80914 0.9575 0.0
C1164 C 0.46361 0.76281 0.96745 0.0
C1165 C 0.49145 0.7611 0.964 0.0
C1166 C 0.5049 0.78441 0.95847 0.0
C1167 C 0.49061 0.80815 0.95536 0.0
H1168 H 0.41945 0.74133 0.29177 0.0
H1169 H 0.45686 0.81532 0.27517 0.0
H1170 H 0.46121 0.71714 0.28709 0.0
H1171 H 0.49864 0.79072 0.26974 0.0
H1172 H 0.57371 0.74988 0.29325 0.0
H1173 H 0.53211 0.77364 0.2874 0.0
H1174 H 0.49585 0.69909 0.27062 0.0
H1175 H 0.53747 0.67496 0.27721 0.0
C1176 C 0.4364 0.75233 0.28668 0.0
C1177 C 0.43499 0.78041 0.28421 0.0
C1178 C 0.46041 0.73833 0.28384 0.0
C1179 C 0.48357 0.752 0.27827 0.0
C1180 C 0.48141 0.77967 0.27442 0.0
C1181 C 0.4574 0.79376 0.27743 0.0
C1182 C 0.55704 0.73856 0.28806 0.0
C1183 C 0.55873 0.71039 0.28604 0.0
C1184 C 0.53314 0.7523 0.28453 0.0
C1185 C 0.51036 0.73828 0.27872 0.0
C1186 C 0.51279 0.71044 0.27544 0.0
C1187 C 0.53669 0.69661 0.27913 0.0
H1188 H 0.56939 0.27729 0.54555 0.0
H1189 H 0.50471 0.33024 0.53035 0.0
H1190 H 0.54071 0.23834 0.54078 0.0
H1191 H 0.4762 0.29108 0.52485 0.0
H1192 H 0.42434 0.22219 0.54734 0.0
H1193 H 0.45273 0.26115 0.54205 0.0
H1194 H 0.51595 0.20853 0.52416 0.0
H1195 H 0.48776 0.16934 0.53018 0.0
C1196 C 0.54929 0.28058 0.5407 0.0
C1197 C 0.53915 0.30686 0.53863 0.0
C1198 C 0.5328 0.25815 0.53785 0.0
C1199 C 0.50588 0.26148 0.53266 0.0
C1200 C 0.49657 0.28775 0.52924 0.0
C1201 C 0.51297 0.31021 0.53229 0.0
C1202 C 0.44407 0.21893 0.54197 0.0
C1203 C 0.45399 0.19266 0.53947 0.0
C1204 C 0.46039 0.24136 0.53881 0.0
C1205 C 0.4869 0.23807 0.53289 0.0
C1206 C 0.49592 0.21182 0.52911 0.0
C1207 C 0.4797 0.18935 0.53246 0.0
H1208 H 0.07563 0.25302 0.79475 0.0
H1209 H 0.03953 0.17914 0.77692 0.0
H1210 H 0.03419 0.2772 0.78912 0.0
H1211 H 0.99807 0.20373 0.7706 0.0
H1212 H 0.95937 0.31978 0.77686 0.0
H1213 H 0.00121 0.29528 0.77141 0.0
H1214 H 0.96316 0.22109 0.78725 0.0
H1215 H 0.92134 0.24523 0.79197 0.0
C1216 C 0.05904 0.24203 0.78924 0.0
C1217 C 0.06071 0.21399 0.78662 0.0
C1218 C 0.03523 0.25602 0.78583 0.0
C1219 C 0.01253 0.24241 0.77958 0.0
C1220 C 0.01495 0.21475 0.77575 0.0
C1221 C 0.03877 0.20067 0.77929 0.0
C1222 C 0.9598 0.29813 0.77879 0.0
C1223 C 0.93719 0.28457 0.78516 0.0
C1224 C 0.98384 0.28409 0.77577 0.0
C1225 C 0.98581 0.25625 0.77918 0.0
C1226 C 0.96249 0.24243 0.78434 0.0
C1227 C 0.93846 0.25639 0.78721 0.0
H1228 H 0.06509 0.7907 0.0265 0.0
H1229 H 0.99182 0.82767 0.04455 0.0
H1230 H 0.03995 0.74952 0.02024 0.0
H1231 H 0.9671 0.7865 0.03901 0.0
H1232 H 0.92366 0.71189 0.02728 0.0
H1233 H 0.94843 0.75349 0.02155 0.0
H1234 H 0.02254 0.71493 0.03704 0.0
H1235 H -0.00186 0.67337 0.04203 0.0
C1236 C 0.04358 0.79019 0.02893 0.0
C1237 C 0.03058 0.81228 0.03632 0.0
C1238 C 0.02917 0.76653 0.02542 0.0
C1239 C 0.00154 0.76442 0.02936 0.0
C1240 C 0.98825 0.7873 0.03564 0.0
C1241 C 0.00255 0.81095 0.039 0.0
C1242 C 0.94535 0.71216 0.02907 0.0
C1243 C 0.95882 0.68949 0.03542 0.0
C1244 C 0.95954 0.73605 0.02589 0.0
C1245 C 0.98745 0.73781 0.02912 0.0
C1246 C 0.00115 0.71442 0.03426 0.0
C1247 C 0.98704 0.69054 0.0373 0.0
H1248 H 0.52335 0.81968 0.79717 0.0
H1249 H 0.57611 0.75602 0.78023 0.0
H1250 H 0.48437 0.79124 0.79202 0.0
H1251 H 0.53691 0.72778 0.77435 0.0
H1252 H 0.46835 0.67465 0.79623 0.0
H1253 H 0.50724 0.70324 0.79117 0.0
H1254 H 0.45437 0.76749 0.77499 0.0
H1255 H 0.41527 0.73907 0.78079 0.0
C1256 C 0.52659 0.79988 0.79187 0.0
C1257 C 0.55283 0.78991 0.78941 0.0
C1258 C 0.50414 0.78353 0.7888 0.0
C1259 C 0.50741 0.75694 0.78298 0.0
C1260 C 0.53364 0.74787 0.77922 0.0
C1261 C 0.55612 0.76411 0.78249 0.0
C1262 C 0.46501 0.69466 0.79126 0.0
C1263 C 0.43872 0.70478 0.78923 0.0
C1264 C 0.4874 0.7111 0.78824 0.0
C1265 C 0.48403 0.73794 0.78291 0.0
C1266 C 0.45773 0.74719 0.7795 0.0
C1267 C 0.43531 0.73084 0.78272 0.0
H1268 H 0.07012 0.71188 0.52661 0.0
H1269 H 0.99672 0.6733 0.5432 0.0
H1270 H 0.04486 0.75328 0.52118 0.0
H1271 H 0.97188 0.71468 0.53851 0.0
H1272 H 0.00212 0.82806 0.54383 0.0
H1273 H 0.02685 0.78683 0.53843 0.0
H1274 H 0.95329 0.74854 0.52174 0.0
H1275 H 0.92819 0.78976 0.52789 0.0
C1276 C 0.04856 0.7121 0.5289 0.0
C1277 C 0.03555 0.68945 0.53562 0.0
C1278 C 0.03408 0.73589 0.52587 0.0
C1279 C 0.00636 0.73758 0.52965 0.0
C1280 C 0.99309 0.71423 0.53528 0.0
C1281 C 0.00747 0.69045 0.53814 0.0
C1282 C 0.99122 0.81103 0.53875 0.0
C1283 C 0.96304 0.81203 0.53664 0.0
C1284 C 0.00552 0.78733 0.53549 0.0
C1285 C 0.99207 0.76409 0.52985 0.0
C1286 C 0.96422 0.76583 0.52645 0.0
C1287 C 0.94983 0.78952 0.52988 0.0
H1288 H 0.91955 0.23602 0.27995 0.0
H1289 H 0.97309 0.17378 0.29789 0.0
H1290 H 0.95838 0.26478 0.27407 0.0
H1291 H 0.01167 0.20273 0.29266 0.0
H1292 H 0.07999 0.25575 0.28105 0.0
H1293 H 0.04141 0.2266 0.27531 0.0
H1294 H 0.98738 0.2901 0.29116 0.0
H1295 H 0.02577 0.31941 0.29624 0.0
C1296 C 0.93964 0.22832 0.28242 0.0
C1297 C 0.94323 0.2028 0.28965 0.0
C1298 C 0.96189 0.24487 0.27913 0.0
C1299 C 0.98819 0.23635 0.28316 0.0
C1300 C 0.99182 0.20999 0.28925 0.0
C1301 C 0.9696 0.19336 0.29237 0.0
C1302 C 0.05982 0.26366 0.28293 0.0
C1303 C 0.05594 0.28972 0.28936 0.0
C1304 C 0.03769 0.2469 0.27973 0.0
C1305 C 0.01123 0.25574 0.28306 0.0
C1306 C 0.00737 0.28257 0.28831 0.0
C1307 C 0.02947 0.29941 0.29133 0.0
H1308 H 0.56854 0.20716 0.02711 0.0
H1309 H 0.49386 0.17137 0.04388 0.0
H1310 H 0.54455 0.24905 0.02095 0.0
H1311 H 0.47025 0.21323 0.0384 0.0
H1312 H 0.42896 0.28903 0.02647 0.0
H1313 H 0.45307 0.24703 0.02081 0.0
H1314 H 0.5272 0.28355 0.038 0.0
H1315 H 0.50346 0.32553 0.04298 0.0
C1316 C 0.54696 0.20808 0.02927 0.0
C1317 C 0.53323 0.18611 0.03628 0.0
C1318 C 0.53322 0.23214 0.02582 0.0
C1319 C 0.50552 0.23475 0.02942 0.0
C1320 C 0.49149 0.21203 0.03531 0.0
C1321 C 0.50515 0.18799 0.03862 0.0
C1322 C 0.45053 0.28824 0.02866 0.0
C1323 C 0.46417 0.31045 0.03548 0.0
C1324 C 0.46434 0.26411 0.02551 0.0
C1325 C 0.49202 0.26166 0.02922 0.0
C1326 C 0.50597 0.28461 0.03485 0.0
C1327 C 0.49224 0.30873 0.03787 0.0
H1328 H 0.53704 0.17939 0.71743 0.0
H1329 H 0.57462 0.2531 0.70051 0.0
H1330 H 0.49551 0.20428 0.72311 0.0
H1331 H 0.5331 0.27757 0.70544 0.0
H1332 H 0.42018 0.24581 0.70034 0.0
H1333 H 0.46168 0.22167 0.70585 0.0
H1334 H 0.49907 0.29593 0.72218 0.0
H1335 H 0.45755 0.32044 0.71591 0.0
C1336 C 0.53658 0.20095 0.71514 0.0
C1337 C 0.55897 0.21413 0.70822 0.0
C1338 C 0.51272 0.21521 0.7183 0.0
C1339 C 0.51068 0.24289 0.71446 0.0
C1340 C 0.53382 0.25638 0.7087 0.0
C1341 C 0.55768 0.24221 0.70571 0.0
C1342 C 0.43707 0.25699 0.70536 0.0
C1343 C 0.43573 0.28519 0.70733 0.0
C1344 C 0.46093 0.24303 0.70869 0.0
C1345 C 0.48399 0.25685 0.71426 0.0
C1346 C 0.48191 0.28472 0.71753 0.0
C1347 C 0.45806 0.29878 0.71403 0.0
H1348 H 0.48998 0.66934 0.46483 0.0
H1349 H 0.42557 0.72136 0.44815 0.0
H1350 H 0.51761 0.70889 0.47093 0.0
H1351 H 0.45342 0.7607 0.45345 0.0
H1352 H 0.5046 0.83051 0.46453 0.0
H1353 H 0.47669 0.79103 0.47032 0.0
H1354 H 0.54185 0.739 0.45444 0.0
H1355 H 0.56993 0.77827 0.44945 0.0
C1356 C 0.4816 0.68925 0.46267 0.0
C1357 C 0.45578 0.69224 0.45577 0.0
C1358 C 0.49749 0.71194 0.46607 0.0
C1359 C 0.48805 0.73808 0.4624 0.0
C1360 C 0.46142 0.74101 0.45661 0.0
C1361 C 0.44541 0.71836 0.45344 0.0
C1362 C 0.51312 0.81057 0.46268 0.0
C1363 C 0.5393 0.8075 0.45629 0.0
C1364 C 0.49707 0.78792 0.46589 0.0
C1365 C 0.50672 0.76174 0.46254 0.0
C1366 C 0.53367 0.75873 0.45732 0.0
C1367 C 0.54982 0.78134 0.45435 0.0
H1368 H 0.0259 0.6752 0.19882 0.0
H1369 H 0.0789 0.73923 0.21496 0.0
H1370 H 0.98698 0.7035 0.20429 0.0
H1371 H 0.03976 0.76732 0.22124 0.0
H1372 H 0.97065 0.8203 0.20015 0.0
H1373 H 0.00966 0.79178 0.20493 0.0
H1374 H 0.95714 0.72724 0.22116 0.0
H1375 H 0.9179 0.75558 0.21556 0.0
C1376 C 0.02921 0.69505 0.20404 0.0
C1377 C 0.05548 0.70517 0.20616 0.0
C1378 C 0.00679 0.71133 0.2073 0.0
C1379 C 0.01011 0.73799 0.21298 0.0
C1380 C 0.03641 0.74719 0.21646 0.0
C1381 C 0.05886 0.73103 0.21296 0.0
C1382 C 0.96742 0.80023 0.20506 0.0
C1383 C 0.94119 0.79002 0.20717 0.0
C1384 C 0.98989 0.78382 0.20792 0.0
C1385 C 0.98666 0.75692 0.2132 0.0
C1386 C 0.96041 0.74757 0.21668 0.0
C1387 C 0.93791 0.76387 0.21358 0.0
H1388 H 0.06708 0.28602 0.96855 0.0
H1389 H 0.99349 0.3239 0.95174 0.0
H1390 H 0.04213 0.24443 0.97399 0.0
H1391 H 0.96895 0.28233 0.95644 0.0
H1392 H 0.92593 0.20674 0.96678 0.0
H1393 H 0.95055 0.24819 0.97312 0.0
H1394 H 0.02465 0.21078 0.95659 0.0
H1395 H 0.0004 0.16933 0.951 0.0
C1396 C 0.04554 0.28561 0.96623 0.0
C1397 C 0.0324 0.30811 0.95942 0.0
C1398 C 0.03124 0.26171 0.96925 0.0
C1399 C 0.00357 0.25976 0.96539 0.0
C1400 C 0.99013 0.28298 0.95972 0.0
C1401 C 0.00433 0.30688 0.95686 0.0
C1402 C 0.94758 0.20722 0.96487 0.0
C1403 C 0.96109 0.1849 0.95809 0.0
C1404 C 0.96169 0.23104 0.96841 0.0
C1405 C 0.98955 0.2331 0.96511 0.0
C1406 C 0.0033 0.21003 0.95946 0.0
C1407 C 0.98928 0.18622 0.95608 0.0
H1408 H 0.47333 0.11175 0.08472 0.0
H1409 H 0.51462 0.06314 0.1208 0.0
H1410 H 0.43426 0.11493 0.10255 0.0
H1411 H 0.47515 0.06634 0.13875 0.0
H1412 H 0.3627 0.11243 0.13351 0.0
H1413 H 0.39698 0.09034 0.11671 0.0
H1414 H 0.45706 0.10659 0.15369 0.0
H1415 H 0.42296 0.1284 0.17051 0.0
C1416 C 0.47392 0.10141 0.09638 0.0
C1417 C 0.49722 0.08756 0.10147 0.0
C1418 C 0.45136 0.10295 0.10652 0.0
C1419 C 0.45164 0.09085 0.12204 0.0
C1420 C 0.47445 0.07591 0.12685 0.0
C1421 C 0.497 0.07411 0.1166 0.0
C1422 C 0.38302 0.11052 0.13828 0.0
C1423 C 0.39028 0.12272 0.15316 0.0
C1424 C 0.40265 0.09798 0.12863 0.0
C1425 C 0.42975 0.0972 0.13377 0.0
C1426 C 0.43635 0.10683 0.1494 0.0
C1427 C 0.41681 0.11952 0.159 0.0
H1428 H 0.13084 0.22799 0.33253 0.0
H1429 H 0.17772 0.26713 0.3703 0.0
H1430 H 0.12546 0.18845 0.34989 0.0
H1431 H 0.17213 0.22734 0.38777 0.0
H1432 H 0.10793 0.17387 0.41732 0.0
H1433 H 0.12928 0.20921 0.40114 0.0
H1434 H 0.15051 0.15043 0.36431 0.0
H1435 H 0.12915 0.11487 0.38052 0.0
C1436 C 0.14028 0.22802 0.34447 0.0
C1437 C 0.15442 0.25079 0.35013 0.0
C1438 C 0.13744 0.20524 0.35434 0.0
C1439 C 0.14842 0.20485 0.37016 0.0
C1440 C 0.16344 0.22719 0.37563 0.0
C1441 C 0.16663 0.2499 0.36563 0.0
C1442 C 0.11775 0.16833 0.40597 0.0
C1443 C 0.11647 0.14169 0.40005 0.0
C1444 C 0.13014 0.18856 0.39676 0.0
C1445 C 0.14124 0.18257 0.3814 0.0
C1446 C 0.14183 0.15558 0.37606 0.0
C1447 C 0.12972 0.13524 0.38537 0.0
H1448 H 0.07615 0.86298 0.66898 0.0
H1449 H 0.13558 0.87902 0.63151 0.0
H1450 H 0.04183 0.88551 0.65267 0.0
H1451 H 0.10105 0.90177 0.61518 0.0
H1452 H 0.02281 0.88371 0.58396 0.0
H1453 H 0.06242 0.87852 0.6012 0.0
H1454 H 0.02458 0.92715 0.63859 0.0
H1455 H 0.98462 0.93239 0.62126 0.0
C1456 C 0.08205 0.87196 0.65745 0.0
C1457 C 0.10842 0.86874 0.65137 0.0
C1458 C 0.0624 0.88507 0.64816 0.0
C1459 C 0.0687 0.89504 0.63256 0.0
C1460 C 0.09562 0.89394 0.6271 0.0
C1461 C 0.11538 0.88102 0.63647 0.0
C1462 C 0.02302 0.89362 0.59576 0.0
C1463 C 0.00042 0.90811 0.60136 0.0
C1464 C 0.04588 0.89092 0.60557 0.0
C1465 C 0.04659 0.90245 0.62124 0.0
C1466 C 0.0245 0.91799 0.62657 0.0
C1467 C 0.00167 0.92097 0.61666 0.0
H1468 H 0.31395 0.73284 0.86915 0.0
H1469 H 0.36765 0.76757 0.83315 0.0
H1470 H 0.31885 0.77337 0.88599 0.0
H1471 H 0.37253 0.80779 0.84997 0.0
H1472 H 0.37003 0.88282 0.87911 0.0
H1473 H 0.34897 0.84782 0.86229 0.0
H1474 H 0.35911 0.79024 0.90146 0.0
H1475 H 0.37996 0.82503 0.91823 0.0
C1476 C 0.32648 0.74923 0.86472 0.0
C1477 C 0.34073 0.74684 0.84993 0.0
C1478 C 0.32926 0.7724 0.87437 0.0
C1479 C 0.34605 0.79371 0.86929 0.0
C1480 C 0.35916 0.79186 0.85411 0.0
C1481 C 0.35661 0.76865 0.84456 0.0
C1482 C 0.36702 0.86291 0.88429 0.0
C1483 C 0.37707 0.85652 0.89987 0.0
C1484 C 0.35511 0.84286 0.87463 0.0
C1485 C 0.35277 0.81625 0.88049 0.0
C1486 C 0.36054 0.81057 0.89663 0.0
C1487 C 0.37266 0.83048 0.9062 0.0
H1488 H 0.47643 0.87894 0.41096 0.0
H1489 H 0.5148 0.92848 0.37415 0.0
H1490 H 0.43744 0.87302 0.39322 0.0
H1491 H 0.47555 0.92245 0.35634 0.0
H1492 H 0.36429 0.87584 0.36221 0.0
H1493 H 0.39901 0.89699 0.37913 0.0
H1494 H 0.45867 0.88054 0.34193 0.0
H1495 H 0.42414 0.8595 0.325 0.0
C1496 C 0.4764 0.88885 0.39916 0.0
C1497 C 0.49883 0.9039 0.39388 0.0
C1498 C 0.45393 0.88569 0.38907 0.0
C1499 C 0.45348 0.8973 0.37341 0.0
C1500 C 0.47545 0.91322 0.36834 0.0
C1501 C 0.49786 0.91667 0.37854 0.0
C1502 C 0.38466 0.87737 0.35745 0.0
C1503 C 0.39158 0.86557 0.34239 0.0
C1504 C 0.40453 0.88937 0.36717 0.0
C1505 C 0.43155 0.89007 0.36192 0.0
C1506 C 0.43799 0.88039 0.34627 0.0
C1507 C 0.41821 0.86817 0.33662 0.0
H1508 H 0.37036 0.16876 0.57447 0.0
H1509 H 0.36377 0.11042 0.61354 0.0
H1510 H 0.34963 0.2029 0.59173 0.0
H1511 H 0.34267 0.14472 0.63084 0.0
H1512 H 0.36423 0.22426 0.65981 0.0
H1513 H 0.36682 0.18412 0.64281 0.0
H1514 H 0.31139 0.22015 0.60836 0.0
H1515 H 0.30887 0.26069 0.62539 0.0
C1516 C 0.36373 0.16301 0.58659 0.0
C1517 C 0.36925 0.13711 0.59278 0.0
C1518 C 0.35165 0.18255 0.59645 0.0
C1519 C 0.34498 0.17659 0.61273 0.0
C1520 C 0.34802 0.14993 0.6184 0.0
C1521 C 0.35994 0.13027 0.60846 0.0
C1522 C 0.3523 0.22356 0.64872 0.0
C1523 C 0.33671 0.24586 0.64382 0.0
C1524 C 0.35352 0.20037 0.63908 0.0
C1525 C 0.33928 0.19898 0.62425 0.0
C1526 C 0.32266 0.22074 0.6197 0.0
C1527 C 0.32126 0.24393 0.62944 0.0
H1528 H 0.98343 0.06357 0.87365 0.0
H1529 H 0.02168 0.11346 0.91034 0.0
H1530 H 0.02348 0.06798 0.85632 0.0
H1531 H 0.0614 0.11783 0.89309 0.0
H1532 H 0.07564 0.13075 0.82518 0.0
H1533 H 0.0411 0.10892 0.84167 0.0
H1534 H 0.09995 0.09375 0.87953 0.0
H1535 H 0.1347 0.11578 0.86302 0.0
C1536 C 0.0005 0.07511 0.87812 0.0
C1537 C -0.00074 0.08851 0.89325 0.0
C1538 C 0.02339 0.0776 0.86821 0.0
C1539 C 0.04553 0.09321 0.87336 0.0
C1540 C 0.04481 0.10535 0.88887 0.0
C1541 C 0.02189 0.10312 0.89867 0.0
C1542 C 0.08142 0.12212 0.83683 0.0
C1543 C 0.10775 0.12549 0.84295 0.0
C1544 C 0.06164 0.10943 0.84623 0.0
C1545 C 0.06777 0.10002 0.86198 0.0
C1546 C 0.09465 0.10117 0.8675 0.0
C1547 C 0.11455 0.11366 0.85801 0.0
H1548 H 0.1269 0.76852 0.16147 0.0
H1549 H 0.17912 0.73224 0.12523 0.0
H1550 H 0.12213 0.80844 0.14435 0.0
H1551 H 0.17425 0.7724 0.10807 0.0
H1552 H 0.113 0.82468 0.07615 0.0
H1553 H 0.13336 0.78962 0.09296 0.0
H1554 H 0.14672 0.84777 0.13149 0.0
H1555 H 0.12626 0.88303 0.11464 0.0
C1556 C 0.13763 0.7692 0.14994 0.0
C1557 C 0.1531 0.74707 0.14461 0.0
C1558 C 0.13513 0.79221 0.14022 0.0
C1559 C 0.14785 0.79351 0.12489 0.0
C1560 C 0.16418 0.77185 0.11982 0.0
C1561 C 0.16694 0.74891 0.12964 0.0
C1562 C 0.12091 0.83018 0.08804 0.0
C1563 C 0.11763 0.8565 0.09418 0.0
C1564 C 0.13273 0.81011 0.09763 0.0
C1565 C 0.14128 0.81593 0.1136 0.0
C1566 C 0.13998 0.84272 0.11927 0.0
C1567 C 0.12842 0.86291 0.10959 0.0
H1568 H 0.52236 0.88125 0.91049 0.0
H1569 H 0.48562 0.93605 0.87587 0.0
H1570 H 0.56223 0.87818 0.8933 0.0
H1571 H 0.52589 0.93304 0.85864 0.0
H1572 H 0.57629 0.87301 0.82489 0.0
H1573 H 0.54257 0.89421 0.84223 0.0
H1574 H 0.60154 0.90187 0.88086 0.0
H1575 H 0.63543 0.88029 0.86349 0.0
C1576 C 0.52295 0.89296 0.89931 0.0
C1577 C 0.50063 0.90852 0.8944 0.0
C1578 C 0.54598 0.89147 0.88956 0.0
C1579 C 0.54719 0.90538 0.87462 0.0
C1580 C 0.52543 0.92202 0.87007 0.0
C1581 C 0.50241 0.9237 0.87992 0.0
C1582 C 0.5823 0.87986 0.83692 0.0
C1583 C 0.60832 0.87443 0.84297 0.0
C1584 C 0.563 0.89223 0.84683 0.0
C1585 C 0.56931 0.89928 0.863 0.0
C1586 C 0.59606 0.89625 0.86851 0.0
C1587 C 0.61548 0.88404 0.85853 0.0
H1588 H 0.86749 0.88562 0.61415 0.0
H1589 H 0.88101 0.82646 0.57613 0.0
H1590 H 0.84588 0.85097 0.63092 0.0
H1591 H 0.85968 0.792 0.59291 0.0
H1592 H 0.81532 0.73437 0.62528 0.0
H1593 H 0.81943 0.77437 0.6079 0.0
H1594 H 0.86972 0.81249 0.64437 0.0
H1595 H 0.8656 0.77285 0.6617 0.0
C1596 C 0.86517 0.86546 0.60917 0.0
C1597 C 0.87646 0.85862 0.59397 0.0
C1598 C 0.85292 0.84561 0.61881 0.0
C1599 C 0.85151 0.81872 0.61332 0.0
C1600 C 0.86039 0.81255 0.59746 0.0
C1601 C 0.87281 0.83229 0.58789 0.0
C1602 C 0.82689 0.75148 0.62968 0.0
C1603 C 0.84048 0.7503 0.64475 0.0
C1604 C 0.82922 0.77434 0.61973 0.0
C1605 C 0.84489 0.79652 0.62477 0.0
C1606 C 0.85721 0.79587 0.64023 0.0
C1607 C 0.85511 0.77299 0.65008 0.0
H1608 H 0.90858 0.10639 0.32147 0.0
H1609 H 0.86729 0.12631 0.36627 0.0
H1610 H 0.94349 0.08293 0.33692 0.0
H1611 H 0.90305 0.10529 0.38189 0.0
H1612 H 0.97033 0.07118 0.40947 0.0
H1613 H 0.93011 0.07287 0.39227 0.0
H1614 H 0.98009 0.09669 0.35123 0.0
H1615 H 0.02006 0.09234 0.36821 0.0
C1616 C 0.90683 0.1053 0.33465 0.0
C1617 C 0.88548 0.11827 0.34274 0.0
C1618 C 0.92702 0.09222 0.34356 0.0
C1619 C 0.92682 0.09284 0.36077 0.0
C1620 C 0.90412 0.10401 0.36872 0.0
C1621 C 0.8835 0.11626 0.35976 0.0
C1622 C 0.97249 0.07604 0.39662 0.0
C1623 C 0.99798 0.08177 0.39006 0.0
C1624 C 0.94949 0.07732 0.38677 0.0
C1625 C 0.95147 0.08549 0.37032 0.0
C1626 C 0.97743 0.08989 0.36368 0.0
C1627 C 0.00047 0.08769 0.37343 0.0
H1628 H 0.68058 0.26511 0.12426 0.0
H1629 H 0.63198 0.2255 0.16105 0.0
H1630 H 0.67621 0.22535 0.10664 0.0
H1631 H 0.62766 0.1861 0.14353 0.0
H1632 H 0.61398 0.17253 0.07554 0.0
H1633 H 0.63535 0.20724 0.09214 0.0
H1634 H 0.652 0.14813 0.12962 0.0
H1635 H 0.63042 0.11321 0.11301 0.0
C1636 C 0.66933 0.2478 0.12868 0.0
C1637 C 0.65629 0.24857 0.14394 0.0
C1638 C 0.66685 0.22509 0.11861 0.0
C1639 C 0.65164 0.20264 0.12373 0.0
C1640 C 0.63984 0.20292 0.13933 0.0
C1641 C 0.64204 0.22566 0.14929 0.0
C1642 C 0.62282 0.16674 0.08714 0.0
C1643 C 0.62001 0.14026 0.09313 0.0
C1644 C 0.63525 0.18663 0.0966 0.0
C1645 C 0.64496 0.18045 0.11227 0.0
C1646 C 0.64433 0.15347 0.11765 0.0
C1647 C 0.63209 0.13348 0.10811 0.0
H1648 H 0.57151 0.13326 0.66813 0.0
H1649 H 0.63025 0.11954 0.62992 0.0
H1650 H 0.53659 0.11286 0.6512 0.0
H1651 H 0.59513 0.09904 0.61298 0.0
H1652 H 0.47959 0.06681 0.6185 0.0
H1653 H 0.51938 0.07181 0.63599 0.0
H1654 H 0.55612 0.1239 0.59995 0.0
H1655 H 0.51659 0.11903 0.58254 0.0
C1656 C 0.57712 0.12525 0.65628 0.0
C1657 C 0.60352 0.12843 0.65024 0.0
C1658 C 0.55712 0.11341 0.64663 0.0
C1659 C 0.56311 0.10471 0.63071 0.0
C1660 C 0.58996 0.10589 0.62516 0.0
C1661 C 0.61006 0.11749 0.63489 0.0
C1662 C 0.49633 0.07902 0.61423 0.0
C1663 C 0.49482 0.09281 0.59924 0.0
C1664 C 0.51906 0.08186 0.62424 0.0
C1665 C 0.54082 0.09818 0.61931 0.0
C1666 C 0.53981 0.11089 0.60398 0.0
C1667 C 0.51702 0.10834 0.59409 0.0
H1668 H 0.63092 0.77189 0.33374 0.0
H1669 H 0.68346 0.73394 0.36914 0.0
H1670 H 0.62757 0.81161 0.35107 0.0
H1671 H 0.68009 0.77401 0.38655 0.0
H1672 H 0.63108 0.88494 0.38088 0.0
H1673 H 0.65224 0.85029 0.36391 0.0
H1674 H 0.64041 0.7916 0.40229 0.0
H1675 H 0.61954 0.82608 0.41927 0.0
C1676 C 0.64205 0.77217 0.34513 0.0
C1677 C 0.65712 0.74961 0.35018 0.0
C1678 C 0.6404 0.79509 0.35498 0.0
C1679 C 0.6536 0.79591 0.37016 0.0
C1680 C 0.66964 0.77384 0.37492 0.0
C1681 C 0.67154 0.75095 0.36496 0.0
C1682 C 0.63378 0.86486 0.38589 0.0
C1683 C 0.62312 0.85808 0.40127 0.0
C1684 C 0.64576 0.84501 0.37614 0.0
C1685 C 0.64753 0.81818 0.38168 0.0
C1686 C 0.63939 0.8121 0.39769 0.0
C1687 C 0.62724 0.83185 0.40738 0.0
H1688 H 0.9231 0.87021 0.17051 0.0
H1689 H 0.86229 0.88598 0.13381 0.0
H1690 H 0.95691 0.89206 0.15352 0.0
H1691 H 0.89626 0.90819 0.11686 0.0
H1692 H 0.01397 0.93572 0.12063 0.0
H1693 H 0.97463 0.93243 0.13866 0.0
H1694 H 0.93342 0.88415 0.10241 0.0
H1695 H 0.97236 0.88746 0.08449 0.0
C1696 C 0.91677 0.87902 0.15902 0.0
C1697 C 0.89016 0.8758 0.15333 0.0
C1698 C 0.93614 0.89176 0.14933 0.0
C1699 C 0.92929 0.90144 0.13375 0.0
C1700 C 0.90213 0.90054 0.12873 0.0
C1701 C 0.88268 0.88792 0.13848 0.0
C1702 C 0.9963 0.92484 0.11642 0.0
C1703 C 0.9964 0.91147 0.10126 0.0
C1704 C 0.97382 0.92297 0.12673 0.0
C1705 C 0.95099 0.90803 0.12195 0.0
C1706 C 0.95055 0.89611 0.10637 0.0
C1707 C 0.97303 0.89773 0.09618 0.0
H1708 H 0.88005 0.17077 0.91824 0.0
H1709 H 0.8667 0.11177 0.88012 0.0
H1710 H 0.85893 0.20534 0.90144 0.0
H1711 H 0.84531 0.14652 0.86333 0.0
H1712 H 0.86534 0.2246 0.83266 0.0
H1713 H 0.86945 0.18503 0.85004 0.0
H1714 H 0.8187 0.22304 0.88631 0.0
H1715 H 0.81457 0.26297 0.86886 0.0
C1716 C 0.87193 0.16501 0.90645 0.0
C1717 C 0.87555 0.13868 0.90036 0.0
C1718 C 0.85964 0.1848 0.89687 0.0
C1719 C 0.85086 0.1787 0.88098 0.0
C1720 C 0.85226 0.15182 0.87546 0.0
C1721 C 0.86438 0.13192 0.88511 0.0
C1722 C 0.85476 0.22445 0.84425 0.0
C1723 C 0.83996 0.24708 0.84949 0.0
C1724 C 0.85685 0.20161 0.85413 0.0
C1725 C 0.84436 0.20094 0.86953 0.0
C1726 C 0.8286 0.22308 0.87451 0.0
C1727 C 0.82625 0.2459 0.86452 0.0
H1728 H 0.9777 0.61715 0.58346 0.0
H1729 H 0.01795 0.56821 0.61981 0.0
H1730 H 0.93873 0.62152 0.60132 0.0
H1731 H 0.97862 0.57271 0.6378 0.0
H1732 H 0.86599 0.61686 0.63183 0.0
H1733 H 0.90119 0.59604 0.61515 0.0
H1734 H 0.9602 0.61375 0.65251 0.0
H1735 H 0.92517 0.63439 0.66923 0.0
C1736 C 0.97811 0.60707 0.59521 0.0
C1737 C 0.00102 0.59262 0.60032 0.0
C1738 C 0.95563 0.60931 0.60536 0.0
C1739 C 0.95562 0.59737 0.62092 0.0
C1740 C 0.97815 0.58213 0.62586 0.0
C1741 C 0.0006 0.57957 0.61558 0.0
C1742 C 0.88631 0.61563 0.6367 0.0
C1743 C 0.89292 0.62779 0.6517 0.0
C1744 C 0.90646 0.60381 0.62711 0.0
C1745 C 0.93345 0.60369 0.63244 0.0
C1746 C 0.93956 0.61349 0.64811 0.0
C1747 C 0.91949 0.6255 0.65763 0.0
H1748 H 0.62703 0.61307 0.8788 0.0
H1749 H 0.61719 0.67137 0.91769 0.0
H1750 H 0.6474 0.64802 0.86166 0.0
H1751 H 0.63739 0.70612 0.90058 0.0
H1752 H 0.68143 0.76336 0.86738 0.0
H1753 H 0.67725 0.72317 0.8846 0.0
H1754 H 0.62287 0.68758 0.84938 0.0
H1755 H 0.62698 0.72747 0.83222 0.0
C1756 C 0.62994 0.6331 0.88386 0.0
C1757 C 0.62008 0.63962 0.89947 0.0
C1758 C 0.64145 0.65312 0.87402 0.0
C1759 C 0.64361 0.67984 0.87971 0.0
C1760 C 0.63609 0.68569 0.89587 0.0
C1761 C 0.62435 0.6658 0.90564 0.0
C1762 C 0.66889 0.74678 0.86322 0.0
C1763 C 0.65423 0.74874 0.84855 0.0
C1764 C 0.66653 0.72381 0.87307 0.0
C1765 C 0.64978 0.70226 0.86832 0.0
C1766 C 0.63622 0.7037 0.85327 0.0
C1767 C 0.63833 0.72672 0.84353 0.0
H1768 H 0.634 0.3836 0.13307 0.0
H1769 H 0.57373 0.36578 0.16977 0.0
H1770 H 0.5995 0.4055 0.11637 0.0
H1771 H 0.53941 0.38744 0.15305 0.0
H1772 H 0.52349 0.38447 0.084 0.0
H1773 H 0.56246 0.38087 0.10189 0.0
H1774 H 0.52115 0.4282 0.13855 0.0
H1775 H 0.48181 0.43183 0.12055 0.0
C1776 C 0.6136 0.38502 0.1378 0.0
C1777 C 0.60645 0.37241 0.15256 0.0
C1778 C 0.59385 0.39747 0.1282 0.0
C1779 C 0.56672 0.39775 0.1333 0.0
C1780 C 0.56015 0.3876 0.14881 0.0
C1781 C 0.57981 0.375 0.15834 0.0
C1782 C 0.52279 0.39444 0.09578 0.0
C1783 C 0.49942 0.40808 0.10097 0.0
C1784 C 0.54528 0.39266 0.10596 0.0
C1785 C 0.54485 0.40429 0.12161 0.0
C1786 C 0.52196 0.41899 0.12655 0.0
C1787 C 0.49949 0.42105 0.11625 0.0
H1788 H 0.81566 0.23189 0.367 0.0
H1789 H 0.87219 0.26518 0.3321 0.0
H1790 H 0.82053 0.27238 0.38389 0.0
H1791 H 0.87693 0.30544 0.34895 0.0
H1792 H 0.87158 0.38154 0.37744 0.0
H1793 H 0.85198 0.34597 0.3604 0.0
H1794 H 0.86069 0.28914 0.40008 0.0
H1795 H 0.88023 0.32448 0.41707 0.0
C1796 C 0.82884 0.24795 0.36283 0.0
C1797 C 0.8438 0.2452 0.34831 0.0
C1798 C 0.83159 0.27109 0.3725 0.0
C1799 C 0.84904 0.29204 0.3677 0.0
C1800 C 0.86305 0.28978 0.35284 0.0
C1801 C 0.86056 0.26656 0.34329 0.0
C1802 C 0.86857 0.36166 0.38267 0.0
C1803 C 0.87781 0.35567 0.39849 0.0
C1804 C 0.85751 0.3413 0.37289 0.0
C1805 C 0.85517 0.31477 0.37887 0.0
C1806 C 0.86216 0.30942 0.39517 0.0
C1807 C 0.87349 0.32964 0.40486 0.0
H1808 H 0.92307 0.36533 0.82463 0.0
H1809 H 0.86329 0.37984 0.86214 0.0
H1810 H 0.9575 0.38608 0.84173 0.0
H1811 H 0.89788 0.40084 0.87921 0.0
H1812 H 0.97461 0.37958 0.91073 0.0
H1813 H 0.93563 0.37583 0.89285 0.0
H1814 H 0.97535 0.42624 0.85708 0.0
H1815 H 0.01469 0.43004 0.87506 0.0
C1816 C 0.91711 0.37364 0.83634 0.0
C1817 C 0.89059 0.37042 0.84219 0.0
C1818 C 0.93683 0.38571 0.84609 0.0
C1819 C 0.93043 0.39466 0.8619 0.0
C1820 C 0.9034 0.39373 0.86715 0.0
C1821 C 0.88359 0.38183 0.85733 0.0
C1822 C 0.97497 0.39014 0.89914 0.0
C1823 C 0.99789 0.40479 0.89421 0.0
C1824 C 0.95247 0.38826 0.88898 0.0
C1825 C 0.95243 0.4008 0.87358 0.0
C1826 C 0.97491 0.41633 0.86888 0.0
C1827 C 0.99738 0.41847 0.87916 0.0
H1828 H 0.87884 0.67539 0.07589 0.0
H1829 H 0.86606 0.61612 0.11391 0.0
H1830 H 0.85917 0.71014 0.09323 0.0
H1831 H 0.84622 0.65107 0.13127 0.0
H1832 H 0.86783 0.72879 0.16202 0.0
H1833 H 0.87148 0.68945 0.14435 0.0
H1834 H 0.81934 0.72779 0.10897 0.0
H1835 H 0.81564 0.76743 0.1267 0.0
C1836 C 0.87116 0.66962 0.08779 0.0
C1837 C 0.87446 0.64313 0.09365 0.0
C1838 C 0.85972 0.68953 0.09768 0.0
C1839 C 0.85154 0.68336 0.11368 0.0
C1840 C 0.85272 0.6564 0.11904 0.0
C1841 C 0.86393 0.63639 0.10907 0.0
C1842 C 0.85687 0.72877 0.15057 0.0
C1843 C 0.84175 0.75139 0.14567 0.0
C1844 C 0.85871 0.70607 0.14053 0.0
C1845 C 0.84565 0.70555 0.1253 0.0
C1846 C 0.82967 0.72772 0.12064 0.0
C1847 C 0.82758 0.75038 0.13078 0.0
H1848 H 0.48331 0.5646 0.37679 0.0
H1849 H 0.51941 0.61919 0.4118 0.0
H1850 H 0.52335 0.56873 0.35945 0.0
H1851 H 0.55917 0.62326 0.39451 0.0
H1852 H 0.63335 0.61918 0.36481 0.0
H1853 H 0.59865 0.59869 0.38207 0.0
H1854 H 0.54014 0.60861 0.3434 0.0
H1855 H 0.57464 0.62894 0.32617 0.0
C1856 C 0.49991 0.57716 0.3809 0.0
C1857 C 0.49805 0.59187 0.39556 0.0
C1858 C 0.5228 0.57949 0.37097 0.0
C1859 C 0.54436 0.59627 0.37564 0.0
C1860 C 0.54303 0.60988 0.39069 0.0
C1861 C 0.52009 0.60779 0.40051 0.0
C1862 C 0.6133 0.61621 0.35982 0.0
C1863 C 0.60658 0.62611 0.34424 0.0
C1864 C 0.59342 0.60464 0.36973 0.0
C1865 C 0.56664 0.60245 0.36415 0.0
C1866 C 0.56061 0.60995 0.34802 0.0
C1867 C 0.58036 0.62176 0.33818 0.0
H1868 H 0.63287 0.27334 0.66089 0.0
H1869 H 0.68357 0.23401 0.62503 0.0
H1870 H 0.62985 0.31297 0.64352 0.0
H1871 H 0.68061 0.27406 0.60759 0.0
H1872 H 0.63225 0.38553 0.61323 0.0
H1873 H 0.6539 0.35114 0.63017 0.0
H1874 H 0.64109 0.29188 0.59219 0.0
H1875 H 0.61981 0.32608 0.57525 0.0
C1876 C 0.64372 0.27331 0.64939 0.0
C1877 C 0.65808 0.25036 0.64421 0.0
C1878 C 0.64227 0.29619 0.63952 0.0
C1879 C 0.655 0.29662 0.62419 0.0
C1880 C 0.67051 0.27421 0.61933 0.0
C1881 C 0.67218 0.25132 0.62931 0.0
C1882 C 0.63481 0.36536 0.6083 0.0
C1883 C 0.62376 0.35834 0.59306 0.0
C1884 C 0.6471 0.34567 0.61803 0.0
C1885 C 0.64875 0.31875 0.6126 0.0
C1886 C 0.64019 0.31244 0.5967 0.0
C1887 C 0.62777 0.33203 0.58704 0.0
H1888 H 0.0225 0.38323 0.41078 0.0
H1889 H 0.98453 0.43592 0.37546 0.0
H1890 H 0.06243 0.38043 0.39361 0.0
H1891 H 0.02482 0.43316 0.35824 0.0
H1892 H 0.07642 0.37274 0.32533 0.0
H1893 H 0.04225 0.39385 0.34239 0.0
H1894 H 0.10115 0.4047 0.38077 0.0
H1895 H 0.1355 0.38326 0.3637 0.0
C1896 C 0.02283 0.39455 0.39946 0.0
C1897 C 0.00017 0.40942 0.39435 0.0
C1898 C 0.04588 0.39322 0.38971 0.0
C1899 C 0.04674 0.40658 0.37457 0.0
C1900 C 0.02463 0.42257 0.36982 0.0
C1901 C 0.00159 0.42412 0.37967 0.0
C1902 C 0.08231 0.38027 0.33723 0.0
C1903 C 0.10848 0.37577 0.34332 0.0
C1904 C 0.06274 0.39258 0.34697 0.0
C1905 C 0.06895 0.40051 0.36301 0.0
C1906 C 0.09577 0.39839 0.36852 0.0
C1907 C 0.11545 0.38625 0.35871 0.0
H1908 H 0.3665 0.38202 0.11211 0.0
H1909 H 0.38382 0.32266 0.07478 0.0
H1910 H 0.34537 0.34696 0.12877 0.0
H1911 H 0.36285 0.28778 0.09145 0.0
H1912 H 0.31758 0.22998 0.12395 0.0
H1913 H 0.32187 0.26947 0.10609 0.0
H1914 H 0.37054 0.30932 0.14268 0.0
H1915 H 0.36635 0.27018 0.16042 0.0
C1916 C 0.36511 0.3617 0.10725 0.0
C1917 C 0.37732 0.35498 0.09228 0.0
C1918 C 0.35312 0.34163 0.11682 0.0
C1919 C 0.35287 0.31461 0.1115 0.0
C1920 C 0.36269 0.30843 0.09585 0.0
C1921 C 0.37487 0.32841 0.08635 0.0
C1922 C 0.32886 0.24735 0.12824 0.0
C1923 C 0.34194 0.24685 0.14349 0.0
C1924 C 0.33129 0.2699 0.11804 0.0
C1925 C 0.34647 0.29246 0.12303 0.0
C1926 C 0.35839 0.29241 0.13859 0.0
C1927 C 0.35626 0.26982 0.14868 0.0
H1928 H 0.41903 0.62384 0.8261 0.0
H1929 H 0.36099 0.61427 0.86513 0.0
H1930 H 0.45354 0.60271 0.84288 0.0
H1931 H 0.39567 0.59276 0.88192 0.0
H1932 H 0.47512 0.61351 0.91114 0.0
H1933 H 0.43488 0.61668 0.89429 0.0
H1934 H 0.47119 0.5635 0.85864 0.0
H1935 H 0.51184 0.56038 0.87555 0.0
C1936 C 0.41344 0.61653 0.8381 0.0
C1937 C 0.38747 0.62129 0.84444 0.0
C1938 C 0.4332 0.6042 0.84768 0.0
C1939 C 0.4274 0.59649 0.86381 0.0
C1940 C 0.40075 0.5989 0.8696 0.0
C1941 C 0.38088 0.61108 0.85995 0.0
C1942 C 0.47446 0.60219 0.89982 0.0
C1943 C 0.49685 0.58706 0.89455 0.0
C1944 C 0.45122 0.60373 0.89025 0.0
C1945 C 0.44989 0.59033 0.87515 0.0
C1946 C 0.47175 0.57413 0.87021 0.0
C1947 C 0.49499 0.57237 0.87988 0.0
H1948 H 0.18509 0.76284 0.62331 0.0
H1949 H 0.13563 0.72117 0.65881 0.0
H1950 H 0.18229 0.72355 0.60518 0.0
H1951 H 0.13285 0.68228 0.64081 0.0
H1952 H 0.13543 0.61116 0.60969 0.0
H1953 H 0.15763 0.64511 0.62669 0.0
H1954 H 0.14239 0.70565 0.58983 0.0
H1955 H 0.12048 0.67188 0.57282 0.0
C1956 C 0.17402 0.74518 0.62735 0.0
C1957 C 0.16021 0.74524 0.64237 0.0
C1958 C 0.17245 0.72273 0.61699 0.0
C1959 C 0.1574 0.69986 0.62159 0.0
C1960 C 0.14493 0.69942 0.637 0.0
C1961 C 0.14623 0.72188 0.64724 0.0
C1962 C 0.13762 0.63151 0.60498 0.0
C1963 C 0.12563 0.63901 0.5901 0.0
C1964 C 0.15022 0.65095 0.61475 0.0
C1965 C 0.15125 0.6781 0.60972 0.0
C1966 C 0.14194 0.6849 0.59405 0.0
C1967 C 0.12919 0.66555 0.58434 0.0
H1968 H 0.13235 0.61513 0.12971 0.0
H1969 H 0.07345 0.6259 0.16817 0.0
H1970 H 0.09772 0.59431 0.11257 0.0
H1971 H 0.03899 0.60542 0.15103 0.0
H1972 H 0.01948 0.61614 0.0825 0.0
H1973 H 0.05925 0.6189 0.0998 0.0
H1974 H 0.02118 0.56635 0.1351 0.0
H1975 H 0.98103 0.56362 0.11775 0.0
C1976 C 0.11226 0.61236 0.13469 0.0
C1977 C 0.10546 0.6227 0.15015 0.0
C1978 C 0.09242 0.60056 0.12485 0.0
C1979 C 0.06558 0.59868 0.13037 0.0
C1980 C 0.05949 0.60652 0.14644 0.0
C1981 C 0.07923 0.61847 0.15622 0.0
C1982 C 0.01966 0.60486 0.09385 0.0
C1983 C 0.99694 0.59002 0.09888 0.0
C1984 C 0.04262 0.60618 0.10367 0.0
C1985 C 0.04332 0.59283 0.11881 0.0
C1986 C 0.02111 0.57693 0.12352 0.0
C1987 C -0.00184 0.57539 0.11359 0.0
H1988 H 0.13251 0.38305 0.88453 0.0
H1989 H 0.11521 0.32255 0.92117 0.0
H1990 H 0.15487 0.34882 0.86785 0.0
H1991 H 0.13729 0.28847 0.90444 0.0
H1992 H 0.13452 0.27291 0.83532 0.0
H1993 H 0.13058 0.3117 0.85332 0.0
H1994 H 0.17813 0.27047 0.88988 0.0
H1995 H 0.18213 0.23127 0.87174 0.0
C1996 C 0.13416 0.36268 0.88926 0.0
C1997 C 0.12157 0.35537 0.904 0.0
C1998 C 0.14687 0.34307 0.87967 0.0
C1999 C 0.14739 0.31592 0.88473 0.0
C2000 C 0.13726 0.30922 0.90023 0.0
C2001 C 0.12442 0.32875 0.90976 0.0
C2002 C 0.14447 0.27219 0.8471 0.0
C2003 C 0.15829 0.24888 0.85221 0.0
C2004 C 0.14249 0.29458 0.85735 0.0
C2005 C 0.15409 0.29413 0.873 0.0
C2006 C 0.16895 0.2713 0.87787 0.0
C2007 C 0.17122 0.24892 0.8675 0.0
H2008 H 0.47721 0.37943 0.58228 0.0
H2009 H 0.51319 0.43188 0.6185 0.0
H2010 H 0.43716 0.3748 0.59922 0.0
H2011 H 0.47279 0.42723 0.63551 0.0
H2012 H 0.42066 0.36604 0.66746 0.0
H2013 H 0.45548 0.38697 0.65075 0.0
H2014 H 0.39765 0.39852 0.61186 0.0
H2015 H 0.36262 0.37736 0.6286 0.0
C2016 C 0.47644 0.39025 0.59377 0.0
C2017 C 0.49855 0.4057 0.59916 0.0
C2018 C 0.45332 0.38785 0.6034 0.0
C2019 C 0.45184 0.40068 0.61868 0.0
C2020 C 0.47346 0.41705 0.62379 0.0
C2021 C 0.49655 0.41969 0.61407 0.0
C2022 C 0.41516 0.37366 0.6555 0.0
C2023 C 0.38904 0.36959 0.64921 0.0
C2024 C 0.43509 0.38583 0.64597 0.0
C2025 C 0.42935 0.39402 0.62992 0.0
C2026 C 0.40267 0.39205 0.62413 0.0
C2027 C 0.38261 0.38008 0.63374 0.0
H2028 H 0.3107 0.76033 0.36763 0.0
H2029 H 0.36269 0.72134 0.33231 0.0
H2030 H 0.3143 0.72076 0.3854 0.0
H2031 H 0.36636 0.68217 0.35003 0.0
H2032 H 0.37571 0.67111 0.41856 0.0
H2033 H 0.35403 0.70437 0.40112 0.0
H2034 H 0.34313 0.64377 0.3637 0.0
H2035 H 0.36518 0.61034 0.38115 0.0
C2036 C 0.32251 0.74318 0.36354 0.0
C2037 C 0.33678 0.74413 0.34869 0.0
C2038 C 0.32455 0.72057 0.37371 0.0
C2039 C 0.34064 0.69841 0.36912 0.0
C2040 C 0.35352 0.69876 0.35383 0.0
C2041 C 0.35168 0.72138 0.34376 0.0
C2042 C 0.36807 0.66466 0.40679 0.0
C2043 C 0.3727 0.63826 0.40108 0.0
C2044 C 0.35543 0.68371 0.39683 0.0
C2045 C 0.34727 0.67676 0.38095 0.0
C2046 C 0.3496 0.64973 0.37582 0.0
C2047 C 0.3621 0.63058 0.38584 0.0
H2048 H 0.16479 0.00781 0.09058 0.0
H2049 H 0.11477 0.02067 0.13306 0.0
H2050 H 0.19921 0.03781 0.10209 0.0
H2051 H 0.14901 0.05058 0.14458 0.0
H2052 H 0.19566 0.13093 0.14622 0.0
H2053 H 0.16465 0.09577 0.13727 0.0
H2054 H 0.23229 0.04465 0.12466 0.0
H2055 H 0.26345 0.08032 0.13325 0.0
C2056 C 0.16155 0.01641 0.10259 0.0
C2057 C 0.13735 0.01165 0.11106 0.0
C2058 C 0.18118 0.03366 0.10915 0.0
C2059 C 0.17679 0.04663 0.12422 0.0
C2060 C 0.15285 0.04117 0.13286 0.0
C2061 C 0.1333 0.024 0.1263 0.0
C2062 C 0.20393 0.11209 0.14168 0.0
C2063 C 0.23197 0.10824 0.14068 0.0
C2064 C 0.18616 0.09185 0.13665 0.0
C2065 C 0.19601 0.06732 0.13037 0.0
C2066 C 0.22411 0.06335 0.12945 0.0
C2067 C 0.24195 0.08362 0.13459 0.0
H2068 H 0.2325 0.87343 0.38246 0.0
H2069 H 0.23719 0.91009 0.33469 0.0
H2070 H 0.20331 0.91002 0.39173 0.0
H2071 H 0.20836 0.9471 0.34406 0.0
H2072 H 0.12391 0.97933 0.36159 0.0
H2073 H 0.15972 0.94948 0.35181 0.0
H2074 H 0.202 0.95933 0.3976 0.0
H2075 H 0.16577 0.98887 0.40746 0.0
C2076 C 0.22759 0.88955 0.37401 0.0
C2077 C 0.23733 0.88903 0.3579 0.0
C2078 C 0.21109 0.91063 0.37936 0.0
C2079 C 0.20366 0.93151 0.36865 0.0
C2080 C 0.21377 0.93126 0.35259 0.0
C2081 C 0.23052 0.91023 0.34727 0.0
C2082 C 0.14111 0.97542 0.36943 0.0
C2083 C 0.14235 0.98664 0.38516 0.0
C2084 C 0.16168 0.95851 0.36381 0.0
C2085 C 0.18371 0.95213 0.37392 0.0
C2086 C 0.18523 0.96387 0.38955 0.0
C2087 C 0.16471 0.981 0.39513 0.0
H2088 H 0.23587 0.90897 0.62832 0.0
H2089 H 0.30384 0.86363 0.64682 0.0
H2090 H 0.26678 0.94299 0.61734 0.0
H2091 H 0.33462 0.89752 0.636 0.0
H2092 H 0.38301 0.94284 0.59847 0.0
H2093 H 0.34977 0.91131 0.60926 0.0
H2094 H 0.29996 0.97827 0.62482 0.0
H2095 H 0.33331 0.00989 0.61388 0.0
C2096 C 0.25733 0.90661 0.63041 0.0
C2097 C 0.26743 0.88377 0.63858 0.0
C2098 C 0.27505 0.92601 0.62403 0.0
C2099 C 0.30317 0.92282 0.62564 0.0
C2100 C 0.31311 0.90032 0.63423 0.0
C2101 C 0.29547 0.88098 0.64053 0.0
C2102 C 0.36486 0.95083 0.60407 0.0
C2103 C 0.36065 0.97883 0.60514 0.0
C2104 C 0.34588 0.93278 0.61036 0.0
C2105 C 0.32232 0.94228 0.61806 0.0
C2106 C 0.31776 0.97031 0.61881 0.0
C2107 C 0.3368 0.98843 0.61245 0.0
H2108 H 0.23541 0.0848 0.86565 0.0
H2109 H 0.30302 0.13146 0.84784 0.0
H2110 H 0.26662 0.05071 0.87626 0.0
H2111 H 0.33407 0.09752 0.85827 0.0
H2112 H 0.38282 0.05216 0.89536 0.0
H2113 H 0.34896 0.08336 0.885 0.0
H2114 H 0.3005 0.01601 0.86853 0.0
H2115 H 0.3345 0.98465 0.87907 0.0
C2116 C 0.25686 0.08744 0.86364 0.0
C2117 C 0.26678 0.11069 0.85579 0.0
C2118 C 0.27474 0.068 0.8698 0.0
C2119 C 0.30284 0.07157 0.86829 0.0
C2120 C 0.31258 0.09444 0.85998 0.0
C2121 C 0.29479 0.11381 0.85391 0.0
C2122 C 0.36483 0.04399 0.88965 0.0
C2123 C 0.36123 0.01596 0.88815 0.0
C2124 C 0.34549 0.06187 0.88362 0.0
C2125 C 0.32218 0.05218 0.87574 0.0
C2126 C 0.31814 0.02409 0.87465 0.0
C2127 C 0.33754 0.00612 0.88077 0.0
H2128 H 0.83465 0.9854 0.90357 0.0
H2129 H 0.88209 0.97571 0.85972 0.0
H2130 H 0.80041 0.95476 0.8925 0.0
H2131 H 0.84809 0.94503 0.84868 0.0
H2132 H 0.80245 0.86409 0.84642 0.0
H2133 H 0.8336 0.89905 0.8556 0.0
H2134 H 0.76611 0.94871 0.87043 0.0
H2135 H 0.73489 0.91329 0.8616 0.0
C2136 C 0.83735 0.97733 0.89138 0.0
C2137 C 0.86074 0.98328 0.88236 0.0
C2138 C 0.81784 0.95969 0.88507 0.0
C2139 C 0.82158 0.94745 0.86972 0.0
C2140 C 0.84477 0.95389 0.86061 0.0
C2141 C 0.86418 0.9715 0.8669 0.0
C2142 C 0.79425 0.88257 0.85152 0.0
C2143 C 0.76622 0.88613 0.85302 0.0
C2144 C 0.81208 0.90268 0.85668 0.0
C2145 C 0.80231 0.92675 0.86363 0.0
C2146 C 0.77423 0.93037 0.86513 0.0
C2147 C 0.75634 0.91025 0.85985 0.0
H2148 H 0.83179 0.98466 0.6132 0.0
H2149 H 0.88185 0.05314 0.60079 0.0
H2150 H 0.79536 0.01535 0.62125 0.0
H2151 H 0.84589 0.08369 0.60916 0.0
H2152 H 0.76941 0.13201 0.61151 0.0
H2153 H 0.8006 0.09817 0.60084 0.0
H2154 H 0.7871 0.04884 0.64361 0.0
H2155 H 0.75587 0.0829 0.6543 0.0
C2156 C 0.83483 0.00621 0.61188 0.0
C2157 C 0.8595 0.01651 0.60608 0.0
C2158 C 0.81411 0.02377 0.61671 0.0
C2159 C 0.81768 0.05193 0.61574 0.0
C2160 C 0.8423 0.06211 0.6098 0.0
C2161 C 0.86299 0.04462 0.60511 0.0
C2162 C 0.77286 0.11376 0.61852 0.0
C2163 C 0.75994 0.10986 0.6336 0.0
C2164 C 0.79077 0.09444 0.61245 0.0
C2165 C 0.79638 0.07088 0.6214 0.0
C2166 C 0.78287 0.0666 0.63631 0.0
C2167 C 0.7649 0.08601 0.6424 0.0
H2168 H 0.65992 0.01166 0.40426 0.0
H2169 H 0.61193 0.02188 0.36068 0.0
H2170 H 0.69389 0.04261 0.39326 0.0
H2171 H 0.64566 0.05299 0.34972 0.0
H2172 H 0.69239 0.13348 0.34747 0.0
H2173 H 0.66084 0.09891 0.35676 0.0
H2174 H 0.72782 0.04808 0.37093 0.0
H2175 H 0.75942 0.08306 0.362 0.0
C2176 C 0.65703 0.01995 0.39215 0.0
C2177 C 0.63363 0.01395 0.38315 0.0
C2178 C 0.67637 0.03778 0.38588 0.0
C2179 C 0.67246 0.0502 0.37061 0.0
C2180 C 0.64913 0.04394 0.36159 0.0
C2181 C 0.62989 0.02609 0.36782 0.0
C2182 C 0.70037 0.11483 0.35246 0.0
C2183 C 0.72836 0.11078 0.35373 0.0
C2184 C 0.68231 0.09497 0.35768 0.0
C2185 C 0.69186 0.07069 0.36447 0.0
C2186 C 0.71989 0.0666 0.36576 0.0
C2187 C 0.73798 0.08646 0.36042 0.0
H2188 H 0.73656 0.9145 0.15652 0.0
H2189 H 0.72937 0.86707 0.11248 0.0
H2190 H 0.70608 0.94845 0.14499 0.0
H2191 H 0.69889 0.90082 0.10096 0.0
H2192 H 0.61714 0.94488 0.09793 0.0
H2193 H 0.65253 0.91442 0.10724 0.0
H2194 H 0.7002 0.9828 0.12298 0.0
H2195 H 0.66429 0.01336 0.11401 0.0
C2196 C 0.72909 0.91176 0.14419 0.0
C2197 C 0.73565 0.88845 0.13526 0.0
C2198 C 0.71155 0.93111 0.13762 0.0
C2199 C 0.70006 0.92729 0.12207 0.0
C2200 C 0.70717 0.9042 0.11303 0.0
C2201 C 0.72466 0.88494 0.1196 0.0
C2202 C 0.63528 0.95343 0.10325 0.0
C2203 C 0.63811 0.98151 0.105 0.0
C2204 C 0.65564 0.936 0.10848 0.0
C2205 C 0.67926 0.94621 0.11575 0.0
C2206 C 0.68221 0.97435 0.11743 0.0
C2207 C 0.66182 0.99186 0.11208 0.0
H2208 H 0.66459 0.48492 0.61381 0.0
H2209 H 0.61448 0.55257 0.59993 0.0
H2210 H 0.70032 0.51616 0.62221 0.0
H2211 H 0.64976 0.58369 0.60866 0.0
H2212 H 0.7268 0.63182 0.6106 0.0
H2213 H 0.6954 0.59785 0.60048 0.0
H2214 H 0.70764 0.55069 0.64424 0.0
H2215 H 0.73894 0.58487 0.65447 0.0
C2216 C 0.66139 0.5064 0.61228 0.0
C2217 C 0.63694 0.51631 0.60591 0.0
C2218 C 0.68169 0.52429 0.61731 0.0
C2219 C 0.67792 0.55237 0.61599 0.0
C2220 C 0.65347 0.56217 0.60958 0.0
C2221 C 0.63319 0.54435 0.60468 0.0
C2222 C 0.72295 0.61411 0.61804 0.0
C2223 C 0.73562 0.61095 0.63328 0.0
C2224 C 0.70492 0.59469 0.61224 0.0
C2225 C 0.69898 0.57165 0.62158 0.0
C2226 C 0.71213 0.56806 0.63666 0.0
C2227 C 0.7302 0.5876 0.64249 0.0
H2228 H 0.73771 0.41242 0.83868 0.0
H2229 H 0.72907 0.36562 0.88285 0.0
H2230 H 0.70737 0.44686 0.84985 0.0
H2231 H 0.69869 0.39981 0.89399 0.0
H2232 H 0.61698 0.44425 0.89585 0.0
H2233 H 0.65245 0.41352 0.88695 0.0
H2234 H 0.70124 0.48153 0.87193 0.0
H2235 H 0.66529 0.51238 0.88056 0.0
C2236 C 0.72998 0.40993 0.85096 0.0
C2237 C 0.73607 0.38663 0.86003 0.0
C2238 C 0.71251 0.42954 0.85733 0.0
C2239 C 0.7006 0.426 0.87279 0.0
C2240 C 0.7073 0.40297 0.88198 0.0
C2241 C 0.72473 0.38346 0.87563 0.0
C2242 C 0.63538 0.45266 0.89078 0.0
C2243 C 0.63852 0.48072 0.88913 0.0
C2244 C 0.65578 0.43507 0.88578 0.0
C2245 C 0.67974 0.44511 0.87884 0.0
C2246 C 0.68299 0.47322 0.87724 0.0
C2247 C 0.66257 0.49089 0.88238 0.0
H2248 H 0.83169 0.51406 0.11526 0.0
H2249 H 0.87893 0.44709 0.09713 0.0
H2250 H 0.79804 0.48237 0.12591 0.0
H2251 H 0.84541 0.41557 0.10755 0.0
H2252 H 0.80106 0.36603 0.14471 0.0
H2253 H 0.83175 0.40028 0.13424 0.0
H2254 H 0.76367 0.44818 0.11831 0.0
H2255 H 0.73283 0.4138 0.12898 0.0
C2256 C 0.83455 0.49265 0.11319 0.0
C2257 C 0.85784 0.48303 0.10527 0.0
C2258 C 0.81536 0.47449 0.11937 0.0
C2259 C 0.81923 0.44644 0.11777 0.0
C2260 C 0.84211 0.43701 0.10934 0.0
C2261 C 0.86124 0.45507 0.10327 0.0
C2262 C 0.79263 0.38398 0.13909 0.0
C2263 C 0.76456 0.38733 0.1378 0.0
C2264 C 0.81021 0.40353 0.13299 0.0
C2265 C 0.80016 0.42681 0.12525 0.0
C2266 C 0.77203 0.43057 0.12433 0.0
C2267 C 0.75436 0.41095 0.13053 0.0
H2268 H 0.80183 0.63245 0.34817 0.0
H2269 H 0.73443 0.58401 0.36445 0.0
H2270 H 0.83308 0.59835 0.35819 0.0
H2271 H 0.76581 0.54979 0.37469 0.0
H2272 H 0.83415 0.48444 0.37723 0.0
H2273 H 0.80017 0.51592 0.36678 0.0
H2274 H 0.84763 0.58302 0.38466 0.0
H2275 H 0.88148 0.5517 0.39489 0.0
C2276 C 0.7937 0.61438 0.35381 0.0
C2277 C 0.7657 0.61081 0.3554 0.0
C2278 C 0.81159 0.59491 0.35965 0.0
C2279 C 0.80195 0.57149 0.36744 0.0
C2280 C 0.77387 0.5675 0.36863 0.0
C2281 C 0.75588 0.58703 0.36268 0.0
C2282 C 0.83697 0.50587 0.37923 0.0
C2283 C 0.86037 0.51563 0.38698 0.0
C2284 C 0.81759 0.52391 0.37317 0.0
C2285 C 0.82135 0.55199 0.37471 0.0
C2286 C 0.84439 0.56156 0.38292 0.0
C2287 C 0.86372 0.54361 0.38888 0.0
H2288 H 0.30295 0.36468 0.34904 0.0
H2289 H 0.23582 0.41429 0.36445 0.0
H2290 H 0.33441 0.39925 0.3584 0.0
H2291 H 0.26736 0.4493 0.37347 0.0
H2292 H 0.33599 0.48488 0.40683 0.0
H2293 H 0.30174 0.45438 0.39565 0.0
H2294 H 0.34919 0.44538 0.35168 0.0
H2295 H 0.38318 0.47603 0.36282 0.0
C2296 C 0.29492 0.38316 0.35424 0.0
C2297 C 0.26693 0.38697 0.35576 0.0
C2298 C 0.31293 0.40303 0.3595 0.0
C2299 C 0.30336 0.42708 0.36657 0.0
C2300 C 0.27532 0.43095 0.36808 0.0
C2301 C 0.25725 0.41108 0.3627 0.0
C2302 C 0.33863 0.47701 0.39459 0.0
C2303 C 0.3619 0.48323 0.38552 0.0
C2304 C 0.31913 0.45944 0.38822 0.0
C2305 C 0.32277 0.44751 0.37278 0.0
C2306 C 0.34593 0.45405 0.36367 0.0
C2307 C 0.36534 0.47163 0.37001 0.0
H2308 H 0.37557 0.51741 0.1323 0.0
H2309 H 0.33512 0.50913 0.08587 0.0
H2310 H 0.34019 0.54811 0.14166 0.0
H2311 H 0.2992 0.53928 0.09535 0.0
H2312 H 0.26597 0.6234 0.11032 0.0
H2313 H 0.29667 0.58788 0.10137 0.0
H2314 H 0.29206 0.55097 0.14911 0.0
H2315 H 0.26197 0.58705 0.15822 0.0
C2316 C 0.35879 0.52181 0.12422 0.0
C2317 C 0.35777 0.51057 0.10849 0.0
C2318 C 0.33845 0.53922 0.12961 0.0
C2319 C 0.31683 0.54603 0.11927 0.0
C2320 C 0.31564 0.53445 0.10358 0.0
C2321 C 0.33597 0.51692 0.09823 0.0
C2322 C 0.27138 0.6076 0.11888 0.0
C2323 C 0.26126 0.60784 0.13491 0.0
C2324 C 0.28876 0.58711 0.1137 0.0
C2325 C 0.29666 0.56651 0.12449 0.0
C2326 C 0.28635 0.5666 0.14051 0.0
C2327 C 0.26882 0.58707 0.14567 0.0
H2328 H 0.19336 0.6312 0.85136 0.0
H2329 H 0.26104 0.5811 0.86516 0.0
H2330 H 0.16226 0.59602 0.86029 0.0
H2331 H 0.22984 0.5455 0.87381 0.0
H2332 H 0.16141 0.50829 0.90704 0.0
H2333 H 0.19566 0.53916 0.8962 0.0
H2334 H 0.14784 0.55006 0.85256 0.0
H2335 H 0.11387 0.51907 0.86332 0.0
C2336 C 0.20158 0.6125 0.85612 0.0
C2337 C 0.22962 0.60872 0.85731 0.0
C2338 C 0.18378 0.59228 0.86114 0.0
C2339 C 0.19362 0.5679 0.86764 0.0
C2340 C 0.2217 0.56408 0.86885 0.0
C2341 C 0.23955 0.5843 0.86369 0.0
C2342 C 0.15869 0.51664 0.89493 0.0
C2343 C 0.13528 0.51092 0.88587 0.0
C2344 C 0.17819 0.53442 0.88876 0.0
C2345 C 0.1744 0.54705 0.87354 0.0
C2346 C 0.15119 0.54086 0.86439 0.0
C2347 C 0.1318 0.52308 0.87053 0.0
H2348 H 0.19365 0.36455 0.64391 0.0
H2349 H 0.26167 0.41152 0.62701 0.0
H2350 H 0.16283 0.39848 0.63322 0.0
H2351 H 0.23071 0.44556 0.6161 0.0
H2352 H 0.1632 0.51165 0.61266 0.0
H2353 H 0.19686 0.48013 0.6234 0.0
H2354 H 0.14833 0.41302 0.60662 0.0
H2355 H 0.11476 0.44442 0.59611 0.0
C2356 C 0.20201 0.38225 0.63798 0.0
C2357 C 0.23006 0.38548 0.63644 0.0
C2358 C 0.18435 0.40162 0.63175 0.0
C2359 C 0.19429 0.42458 0.62361 0.0
C2360 C 0.22243 0.42821 0.62242 0.0
C2361 C 0.24017 0.40879 0.62876 0.0
C2362 C 0.16008 0.49019 0.61094 0.0
C2363 C 0.13646 0.48047 0.60342 0.0
C2364 C 0.17929 0.47212 0.61717 0.0
C2365 C 0.17513 0.44405 0.61605 0.0
C2366 C 0.15188 0.43449 0.60804 0.0
C2367 C 0.13272 0.45247 0.60191 0.0
H2368 H 0.29626 0.24475 0.20734 0.0
H2369 H 0.26821 0.1758 0.23472 0.0
H2370 H 0.27127 0.275 0.22544 0.0
H2371 H 0.24258 0.20598 0.25282 0.0
H2372 H 0.22913 0.26931 0.2926 0.0
H2373 H 0.25364 0.23991 0.2738 0.0
H2374 H 0.22501 0.2876 0.23307 0.0
H2375 H 0.20101 0.31743 0.2521 0.0
C2376 C 0.28444 0.23619 0.21721 0.0
C2377 C 0.28409 0.20819 0.21985 0.0
C2378 C 0.27007 0.2534 0.22749 0.0
C2379 C 0.25511 0.24286 0.24058 0.0
C2380 C 0.25429 0.21467 0.24295 0.0
C2381 C 0.2687 0.19742 0.23261 0.0
C2382 C 0.2286 0.27375 0.27964 0.0
C2383 C 0.21361 0.2957 0.2737 0.0
C2384 C 0.24222 0.25672 0.26888 0.0
C2385 C 0.24101 0.26131 0.25197 0.0
C2386 C 0.22643 0.28369 0.24606 0.0
C2387 C 0.21277 0.30074 0.25687 0.0
H2388 H 0.98987 0.96799 0.54328 0.0
H2389 H 0.92858 0.96672 0.5059 0.0
H2390 H 0.02118 0.99013 0.52452 0.0
H2391 H 0.9593 0.99004 0.48716 0.0
H2392 H 0.02633 0.00599 0.45207 0.0
H2393 H -0.00111 0.98119 0.47167 0.0
H2394 H 0.03044 0.0311 0.51066 0.0
H2395 H 0.0591 0.05474 0.49102 0.0
C2396 C 0.98303 0.97315 0.5311 0.0
C2397 C 0.95696 0.96612 0.52593 0.0
C2398 C 0.00087 0.98577 0.52036 0.0
C2399 C 0.99285 0.99171 0.50429 0.0
C2400 C 0.96633 0.98524 0.49934 0.0
C2401 C 0.94859 0.97232 0.51007 0.0
C2402 C 0.02808 0.01095 0.46491 0.0
C2403 C 0.04488 0.03208 0.47013 0.0
C2404 C 0.01194 0.99716 0.47611 0.0
C2405 C 0.01202 0.00452 0.4927 0.0
C2406 C 0.02995 0.0248 0.498 0.0
C2407 C 0.04636 0.03834 0.4868 0.0
H2408 H 0.27573 0.67176 0.75692 0.0
H2409 H 0.2841 0.73606 0.79208 0.0
H2410 H 0.2517 0.70248 0.73846 0.0
H2411 H 0.26112 0.76719 0.77358 0.0
H2412 H 0.19472 0.80701 0.74239 0.0
H2413 H 0.21826 0.77746 0.76165 0.0
H2414 H 0.26145 0.74061 0.72146 0.0
H2415 H 0.23686 0.76915 0.70233 0.0
C2416 C 0.27216 0.69246 0.76066 0.0
C2417 C 0.28131 0.70172 0.7758 0.0
C2418 C 0.25877 0.71013 0.7501 0.0
C2419 C 0.25469 0.73737 0.75451 0.0
C2420 C 0.26361 0.74633 0.76989 0.0
C2421 C 0.27676 0.72861 0.78045 0.0
C2422 C 0.20958 0.79282 0.73781 0.0
C2423 C 0.21417 0.79036 0.72099 0.0
C2424 C 0.22305 0.77592 0.74877 0.0
C2425 C 0.2415 0.75644 0.74305 0.0
C2426 C 0.24694 0.75497 0.72623 0.0
C2427 C 0.23328 0.77167 0.7153 0.0
H2428 H 0.49101 0.95631 0.9546 0.0
H2429 H 0.42415 0.9724 0.98692 0.0
H2430 H 0.52155 0.98034 0.973 0.0
H2431 H 0.45445 0.9973 0.00529 0.0
H2432 H 0.51992 0.01219 0.0428 0.0
H2433 H 0.49121 0.98718 0.02389 0.0
H2434 H 0.53208 0.02494 0.98316 0.0
H2435 H 0.56152 0.04915 0.00224 0.0
C2436 C 0.48292 0.96546 0.9656 0.0
C2437 C 0.45547 0.96276 0.9695 0.0
C2438 C 0.50029 0.97923 0.97608 0.0
C2439 C 0.49044 0.99059 0.99063 0.0
C2440 C 0.4627 0.98835 0.99429 0.0
C2441 C 0.44532 0.97443 0.98379 0.0
C2442 C 0.52319 0.01452 0.02979 0.0
C2443 C 0.54302 0.03224 0.02387 0.0
C2444 C 0.50645 0.00062 0.01898 0.0
C2445 C 0.50914 0.00436 0.00205 0.0
C2446 C 0.52963 0.0215 0.99614 0.0
C2447 C 0.54647 0.03531 0.00699 0.0
H2448 H 0.2949 0.81333 0.25123 0.0
H2449 H 0.26258 0.76799 0.29176 0.0
H2450 H 0.27113 0.78357 0.23213 0.0
H2451 H 0.238 0.73885 0.27286 0.0
H2452 H 0.22524 0.67251 0.23515 0.0
H2453 H 0.24924 0.70352 0.2535 0.0
H2454 H 0.2268 0.77072 0.22254 0.0
H2455 H 0.20364 0.7395 0.20414 0.0
C2456 C 0.2821 0.7974 0.25599 0.0
C2457 C 0.28027 0.79298 0.27285 0.0
C2458 C 0.26856 0.78035 0.24512 0.0
C2459 C 0.25293 0.75866 0.251 0.0
C2460 C 0.2503 0.75504 0.26795 0.0
C2461 C 0.26393 0.77199 0.27877 0.0
C2462 C 0.2259 0.69387 0.23228 0.0
C2463 C 0.21292 0.70384 0.21836 0.0
C2464 C 0.23929 0.71165 0.24279 0.0
C2465 C 0.23971 0.73962 0.23953 0.0
C2466 C 0.22709 0.74932 0.22532 0.0
C2467 C 0.21383 0.73155 0.21483 0.0
H2468 H 0.42272 0.01894 0.50844 0.0
H2469 H 0.491 0.04881 0.53574 0.0
H2470 H 0.4535 0.99422 0.49024 0.0
H2471 H 0.52182 0.02469 0.51755 0.0
H2472 H 0.5171 0.98083 0.45068 0.0
H2473 H 0.48745 0.00564 0.46922 0.0
H2474 H 0.53512 0.97832 0.51027 0.0
H2475 H 0.56514 0.95397 0.49152 0.0
C2476 C 0.44432 0.02007 0.51049 0.0
C2477 C 0.45472 0.03567 0.52328 0.0
C2478 C 0.46191 0.00618 0.50009 0.0
C2479 C 0.49007 0.00768 0.50245 0.0
C2480 C 0.50026 0.02296 0.51552 0.0
C2481 C 0.48271 0.03684 0.52584 0.0
C2482 C 0.5215 0.98068 0.46365 0.0
C2483 C 0.54346 0.96591 0.46977 0.0
C2484 C 0.50434 0.99448 0.47426 0.0
C2485 C 0.50883 0.99369 0.49119 0.0
C2486 C 0.53128 0.97942 0.49726 0.0
C2487 C 0.54845 0.96557 0.48661 0.0
H2488 H 0.28656 0.25684 0.70317 0.0
H2489 H 0.27468 0.32288 0.73676 0.0
H2490 H 0.26303 0.22628 0.72176 0.0
H2491 H 0.25017 0.29263 0.75532 0.0
H2492 H 0.2356 0.22681 0.79242 0.0
H2493 H 0.26016 0.25536 0.77324 0.0
H2494 H 0.21946 0.21599 0.73298 0.0
H2495 H 0.19585 0.18658 0.75232 0.0
C2496 C 0.27836 0.26478 0.71448 0.0
C2497 C 0.28212 0.29199 0.71867 0.0
C2498 C 0.26488 0.24739 0.72508 0.0
C2499 C 0.25485 0.25698 0.74005 0.0
C2500 C 0.25809 0.28453 0.744 0.0
C2501 C 0.27176 0.30191 0.73338 0.0
C2502 C 0.23255 0.2238 0.77944 0.0
C2503 C 0.21414 0.20442 0.77374 0.0
C2504 C 0.24618 0.24047 0.76848 0.0
C2505 C 0.24146 0.23822 0.75161 0.0
C2506 C 0.22367 0.21812 0.7459 0.0
C2507 C 0.21018 0.2013 0.7569 0.0
H2508 H 0.06276 0.94652 0.00215 0.0
H2509 H 0.02276 0.98705 0.04206 0.0
H2510 H 0.03323 0.96971 0.98273 0.0
H2511 H 0.99418 0.01128 0.02278 0.0
H2512 H 0.92578 0.02415 0.98688 0.0
H2513 H 0.95674 0.00059 0.00541 0.0
H2514 H 0.02186 0.01227 0.97084 0.0
H2515 H 0.99052 0.03477 0.95225 0.0
C2516 C 0.04814 0.96102 0.00667 0.0
C2517 C 0.04503 0.96519 0.02349 0.0
C2518 C 0.03122 0.97426 0.99561 0.0
C2519 C 0.01108 0.99206 0.00123 0.0
C2520 C 0.00905 0.99723 0.01807 0.0
C2521 C 0.02577 0.9838 0.0291 0.0
C2522 C 0.94662 0.02111 0.98325 0.0
C2523 C 0.95594 0.03082 0.96825 0.0
C2524 C 0.96443 0.00802 0.99387 0.0
C2525 C 0.99186 0.0048 0.98966 0.0
C2526 C 0.00086 0.01413 0.97439 0.0
C2527 C 0.98301 0.02699 0.96377 0.0
H2528 H 0.79162 0.68052 0.74117 0.0
H2529 H 0.76495 0.72823 0.70015 0.0
H2530 H 0.76639 0.7101 0.75974 0.0
H2531 H 0.73926 0.75746 0.71851 0.0
H2532 H 0.72561 0.82227 0.75782 0.0
H2533 H 0.75027 0.79153 0.73956 0.0
H2534 H 0.71991 0.72311 0.76682 0.0
H2535 H 0.69585 0.75389 0.78507 0.0
C2536 C 0.77983 0.697 0.73617 0.0
C2537 C 0.77984 0.70207 0.71934 0.0
C2538 C 0.76547 0.71392 0.74672 0.0
C2539 C 0.75106 0.73621 0.74055 0.0
C2540 C 0.75052 0.7407 0.72362 0.0
C2541 C 0.76483 0.72378 0.71311 0.0
C2542 C 0.72447 0.80066 0.75983 0.0
C2543 C 0.70895 0.79022 0.77264 0.0
C2544 C 0.73832 0.78309 0.7494 0.0
C2545 C 0.73685 0.75492 0.75174 0.0
C2546 C 0.72159 0.74468 0.76479 0.0
C2547 C 0.70776 0.7622 0.77516 0.0
H2548 H 0.73128 0.26797 0.20078 0.0
H2549 H 0.70327 0.31434 0.24208 0.0
H2550 H 0.75661 0.23833 0.21905 0.0
H2551 H 0.7282 0.28433 0.26054 0.0
H2552 H 0.79905 0.2404 0.28571 0.0
H2553 H 0.77497 0.27153 0.26768 0.0
H2554 H 0.74508 0.20363 0.23973 0.0
H2555 H 0.76969 0.17256 0.25779 0.0
C2556 C 0.73102 0.27203 0.21379 0.0
C2557 C 0.71575 0.29349 0.22013 0.0
C2558 C 0.74512 0.25487 0.22424 0.0
C2559 C 0.74415 0.25888 0.2412 0.0
C2560 C 0.72943 0.28088 0.2475 0.0
C2561 C 0.71525 0.29804 0.23701 0.0
C2562 C 0.78723 0.23229 0.27569 0.0
C2563 C 0.78613 0.20434 0.27293 0.0
C2564 C 0.7734 0.24999 0.26546 0.0
C2565 C 0.75827 0.23999 0.25228 0.0
C2566 C 0.75692 0.21188 0.24968 0.0
C2567 C 0.77076 0.19413 0.25999 0.0
H2568 H 0.73205 0.22522 0.70139 0.0
H2569 H 0.69755 0.1819 0.74208 0.0
H2570 H 0.75703 0.25414 0.72019 0.0
H2571 H 0.72177 0.2115 0.76109 0.0
H2572 H 0.79063 0.25392 0.78893 0.0
H2573 H 0.76655 0.22308 0.77073 0.0
H2574 H 0.74642 0.29029 0.73921 0.0
H2575 H 0.77132 0.32092 0.75737 0.0
C2576 C 0.73029 0.22161 0.7144 0.0
C2577 C 0.71324 0.20124 0.72039 0.0
C2578 C 0.74416 0.23845 0.72516 0.0
C2579 C 0.74107 0.23535 0.74212 0.0
C2580 C 0.72468 0.2143 0.74808 0.0
C2581 C 0.71088 0.19735 0.73728 0.0
C2582 C 0.78077 0.26197 0.77815 0.0
C2583 C 0.7826 0.28955 0.7744 0.0
C2584 C 0.76697 0.24442 0.76779 0.0
C2585 C 0.75473 0.25422 0.75349 0.0
C2586 C 0.75605 0.28209 0.75 0.0
C2587 C 0.76998 0.29965 0.7604 0.0
H2588 H 0.76663 0.77084 0.20276 0.0
H2589 H 0.79675 0.81606 0.24397 0.0
H2590 H 0.74159 0.7412 0.22115 0.0
H2591 H 0.77232 0.7859 0.26257 0.0
H2592 H 0.70157 0.74311 0.28847 0.0
H2593 H 0.72639 0.77384 0.27059 0.0
H2594 H 0.75193 0.70586 0.24116 0.0
H2595 H 0.7264 0.67524 0.25903 0.0
C2596 C 0.76747 0.77463 0.21578 0.0
C2597 C 0.78321 0.79582 0.22205 0.0
C2598 C 0.75355 0.75743 0.22631 0.0
C2599 C 0.75522 0.76106 0.24329 0.0
C2600 C 0.7705 0.78273 0.24952 0.0
C2601 C 0.78443 0.79997 0.23895 0.0
C2602 C 0.71267 0.73487 0.27819 0.0
C2603 C 0.71218 0.70705 0.27493 0.0
C2604 C 0.72693 0.75236 0.26803 0.0
C2605 C 0.74099 0.74228 0.25444 0.0
C2606 C 0.74092 0.71423 0.25142 0.0
C2607 C 0.72659 0.69671 0.26163 0.0
H2608 H 0.43467 0.44841 0.00211 0.0
H2609 H 0.47659 0.48495 0.04269 0.0
H2610 H 0.46424 0.47241 0.98304 0.0
H2611 H 0.50542 0.50984 0.02379 0.0
H2612 H 0.5065 0.53979 0.95423 0.0
H2613 H 0.47553 0.51645 0.97267 0.0
H2614 H 0.54211 0.49947 0.00534 0.0
H2615 H 0.57284 0.52373 0.98694 0.0
C2616 C 0.44979 0.46216 0.00687 0.0
C2617 C 0.45334 0.46508 0.02375 0.0
C2618 C 0.46671 0.47586 0.99602 0.0
C2619 C 0.48738 0.49279 0.00193 0.0
C2620 C 0.49007 0.49653 0.01887 0.0
C2621 C 0.47326 0.4827 0.02968 0.0
C2622 C 0.51439 0.53077 0.96531 0.0
C2623 C 0.54182 0.53328 0.9693 0.0
C2624 C 0.49676 0.5174 0.97583 0.0
C2625 C 0.50632 0.50624 0.9905 0.0
C2626 C 0.53405 0.50827 0.99425 0.0
C2627 C 0.55169 0.52181 0.98372 0.0
H2628 H 0.00102 0.54754 0.5358 0.0
H2629 H 0.06966 0.51912 0.50828 0.0
H2630 H 0.97054 0.52264 0.51776 0.0
H2631 H 0.03926 0.49368 0.49021 0.0
H2632 H 0.97587 0.47989 0.45068 0.0
H2633 H 0.00497 0.50507 0.46933 0.0
H2634 H 0.95818 0.47584 0.51028 0.0
H2635 H 0.92868 0.45104 0.49141 0.0
C2636 C 0.00946 0.5357 0.5259 0.0
C2637 C 0.03745 0.53518 0.52321 0.0
C2638 C 0.99212 0.5214 0.51566 0.0
C2639 C 0.00252 0.50637 0.50254 0.0
C2640 C 0.03069 0.50545 0.5001 0.0
C2641 C 0.04806 0.51975 0.51042 0.0
C2642 C 0.97151 0.4794 0.46365 0.0
C2643 C 0.94995 0.46397 0.46971 0.0
C2644 C 0.98838 0.49341 0.47433 0.0
C2645 C 0.984 0.49217 0.49125 0.0
C2646 C 0.96192 0.47726 0.49727 0.0
C2647 C 0.94504 0.46317 0.48655 0.0
H2648 H 0.0688 0.47737 0.98595 0.0
H2649 H 0.00065 0.45211 0.9569 0.0
H2650 H 0.03841 0.50348 0.00367 0.0
H2651 H 0.97015 0.47758 0.97462 0.0
H2652 H 0.92866 0.54883 0.00111 0.0
H2653 H 0.95848 0.524 0.98246 0.0
H2654 H 0.0031 0.49305 0.02382 0.0
H2655 H 0.97378 0.51838 0.04225 0.0
C2656 C 0.04732 0.47761 0.98339 0.0
C2657 C 0.03682 0.46288 0.97027 0.0
C2658 C 0.02993 0.49228 0.99351 0.0
C2659 C 0.00188 0.49238 0.99057 0.0
C2660 C 0.99164 0.47808 0.97711 0.0
C2661 C 0.00899 0.46344 0.96705 0.0
C2662 C 0.94463 0.53635 0.0061 0.0
C2663 C 0.94886 0.53512 0.023 0.0
C2664 C 0.96169 0.52223 0.9955 0.0
C2665 C 0.98325 0.50679 0.00171 0.0
C2666 C 0.98695 0.50512 0.01868 0.0
C2667 C 0.96993 0.51921 0.02923 0.0
H2668 H 0.49208 0.54873 0.45847 0.0
H2669 H 0.42362 0.51882 0.48558 0.0
H2670 H 0.52275 0.52416 0.47649 0.0
H2671 H 0.45426 0.4936 0.50361 0.0
H2672 H 0.51791 0.47969 0.54314 0.0
H2673 H 0.48812 0.50447 0.52469 0.0
H2674 H 0.536 0.47784 0.48354 0.0
H2675 H 0.5662 0.45355 0.50221 0.0
C2676 C 0.48372 0.53665 0.46829 0.0
C2677 C 0.45572 0.53562 0.47085 0.0
C2678 C 0.50118 0.52251 0.47852 0.0
C2679 C 0.49091 0.50707 0.49148 0.0
C2680 C 0.46273 0.50568 0.49383 0.0
C2681 C 0.44522 0.51986 0.48354 0.0
C2682 C 0.52231 0.47967 0.53017 0.0
C2683 C 0.54441 0.46516 0.524 0.0
C2684 C 0.50506 0.49345 0.51961 0.0
C2685 C 0.5096 0.49288 0.50268 0.0
C2686 C 0.53213 0.47878 0.49656 0.0
C2687 C 0.54939 0.46496 0.50716 0.0
loop_
_geom_bond_atom_site_label_1
_geom_bond_atom_site_label_2
_geom_bond_distance
_geom_bond_site_symmetry_2
_ccdc_geom_bond_type
Co0 O3 1.970 . S
Co0 N17 1.989 . S
Co0 O25 1.967 . S
Co0 O32 1.920 . S
Co1 O4 1.966 . S
Co1 N10 2.022 . S
Co1 N18 1.993 . S
Co1 O26 1.941 . S
C2 O3 1.258 . S
C2 O4 1.263 . S
O3 Co0 1.970 . S
O3 C2 1.258 . S
O4 Co1 1.966 . S
O4 C2 1.263 . S
C5 O6 1.235 . S
C5 O32 1.289 . S
O6 C5 1.235 . S
C7 C9 1.400 . S
C7 N10 1.351 . S
C7 C12 1.501 . S
C8 C9 1.387 . S
C8 N11 1.341 . S
C9 C7 1.400 . S
C9 C8 1.387 . S
N10 Co1 2.022 . S
N10 C7 1.351 . S
N10 N11 1.365 . S
N11 C8 1.341 . S
N11 N10 1.365 . S
N11 H31 0.862 . S
C12 C7 1.501 . S
C12 H13 0.961 . S
C12 H14 0.961 . S
C12 H15 0.960 . S
H13 C12 0.961 . S
H14 C12 0.961 . S
H15 C12 0.960 . S
C16 N17 1.342 . S
C16 C20 1.401 . S
C16 C21 1.499 . S
N17 Co0 1.989 . S
N17 C16 1.342 . S
N17 N18 1.388 . S
N18 Co1 1.993 . S
N18 N17 1.388 . S
N18 C19 1.346 . S
C19 N18 1.346 . S
C19 C20 1.396 . S
C19 C29 1.510 . S
C20 C16 1.401 . S
C20 C19 1.396 . S
C21 C16 1.499 . S
C21 H22 0.959 . S
C21 H23 0.960 . S
C21 H24 0.961 . S
H22 C21 0.959 . S
H23 C21 0.960 . S
H24 C21 0.961 . S
O25 Co0 1.967 . S
O25 C33 1.258 . S
O26 Co1 1.941 . S
O26 C33 1.266 . S
H27 C29 0.959 . S
H28 C29 0.961 . S
C29 C19 1.510 . S
C29 H27 0.959 . S
C29 H28 0.961 . S
C29 H30 0.960 . S
H30 C29 0.960 . S
H31 N11 0.862 . S
O32 Co0 1.920 . S
O32 C5 1.289 . S
C33 O25 1.258 . S
C33 O26 1.266 . S
Co34 O37 1.970 . S
Co34 N51 1.989 . S
Co34 O59 1.967 . S
Co34 O66 1.920 . S
Co35 O38 1.966 . S
Co35 N44 2.022 . S
Co35 N52 1.993 . S
Co35 O60 1.941 . S
C36 O37 1.258 . S
C36 O38 1.263 . S
O37 Co34 1.970 . S
O37 C36 1.258 . S
O38 Co35 1.966 . S
O38 C36 1.263 . S
C39 O40 1.235 . S
C39 O66 1.289 . S
O40 C39 1.235 . S
C41 C43 1.400 . S
C41 N44 1.351 . S
C41 C46 1.501 . S
C42 C43 1.387 . S
C42 N45 1.341 . S
C43 C41 1.400 . S
C43 C42 1.387 . S
N44 Co35 2.022 . S
N44 C41 1.351 . S
N44 N45 1.365 . S
N45 C42 1.341 . S
N45 N44 1.365 . S
N45 H65 0.862 . S
C46 C41 1.501 . S
C46 H47 0.961 . S
C46 H48 0.961 . S
C46 H49 0.960 . S
H47 C46 0.961 . S
H48 C46 0.961 . S
H49 C46 0.960 . S
C50 N51 1.342 . S
C50 C54 1.401 . S
C50 C55 1.499 . S
N51 Co34 1.989 . S
N51 C50 1.342 . S
N51 N52 1.388 . S
N52 Co35 1.993 . S
N52 N51 1.388 . S
N52 C53 1.346 . S
C53 N52 1.346 . S
C53 C54 1.396 . S
C53 C63 1.510 . S
C54 C50 1.401 . S
C54 C53 1.396 . S
C55 C50 1.499 . S
C55 H56 0.959 . S
C55 H57 0.960 . S
C55 H58 0.961 . S
H56 C55 0.959 . S
H57 C55 0.960 . S
H58 C55 0.961 . S
O59 Co34 1.967 . S
O59 C67 1.258 . S
O60 Co35 1.941 . S
O60 C67 1.266 . S
H61 C63 0.959 . S
H62 C63 0.961 . S
C63 C53 1.510 . S
C63 H61 0.959 . S
C63 H62 0.961 . S
C63 H64 0.960 . S
H64 C63 0.960 . S
H65 N45 0.862 . S
O66 Co34 1.920 . S
O66 C39 1.289 . S
C67 O59 1.258 . S
C67 O60 1.266 . S
Co68 O71 1.970 . S
Co68 N85 1.989 . S
Co68 O93 1.967 . S
Co68 O100 1.920 . S
Co69 O72 1.966 . S
Co69 N78 2.022 . S
Co69 N86 1.993 . S
Co69 O94 1.941 . S
C70 O71 1.258 . S
C70 O72 1.263 . S
O71 Co68 1.970 . S
O71 C70 1.258 . S
O72 Co69 1.966 . S
O72 C70 1.263 . S
C73 O74 1.235 . S
C73 O100 1.289 . S
O74 C73 1.235 . S
C75 C77 1.400 . S
C75 N78 1.351 . S
C75 C80 1.501 . S
C76 C77 1.387 . S
C76 N79 1.341 . S
C77 C75 1.400 . S
C77 C76 1.387 . S
N78 Co69 2.022 . S
N78 C75 1.351 . S
N78 N79 1.365 . S
N79 C76 1.341 . S
N79 N78 1.365 . S
N79 H99 0.862 . S
C80 C75 1.501 . S
C80 H81 0.961 . S
C80 H82 0.961 . S
C80 H83 0.960 . S
H81 C80 0.961 . S
H82 C80 0.961 . S
H83 C80 0.960 . S
C84 N85 1.342 . S
C84 C88 1.401 . S
C84 C89 1.499 . S
N85 Co68 1.989 . S
N85 C84 1.342 . S
N85 N86 1.388 . S
N86 Co69 1.993 . S
N86 N85 1.388 . S
N86 C87 1.346 . S
C87 N86 1.346 . S
C87 C88 1.396 . S
C87 C97 1.510 . S
C88 C84 1.401 . S
C88 C87 1.396 . S
C89 C84 1.499 . S
C89 H90 0.959 . S
C89 H91 0.960 . S
C89 H92 0.961 . S
H90 C89 0.959 . S
H91 C89 0.960 . S
H92 C89 0.961 . S
O93 Co68 1.967 . S
O93 C101 1.258 . S
O94 Co69 1.941 . S
O94 C101 1.266 . S
H95 C97 0.959 . S
H96 C97 0.961 . S
C97 C87 1.510 . S
C97 H95 0.959 . S
C97 H96 0.961 . S
C97 H98 0.960 . S
H98 C97 0.960 . S
H99 N79 0.862 . S
O100 Co68 1.920 . S
O100 C73 1.289 . S
C101 O93 1.258 . S
C101 O94 1.266 . S
Co102 O105 1.970 . S
Co102 N119 1.989 . S
Co102 O127 1.967 . S
Co102 O134 1.920 . S
Co103 O106 1.966 . S
Co103 N112 2.022 . S
Co103 N120 1.993 . S
Co103 O128 1.941 . S
C104 O105 1.258 . S
C104 O106 1.263 . S
O105 Co102 1.970 . S
O105 C104 1.258 . S
O106 Co103 1.966 . S
O106 C104 1.263 . S
C107 O108 1.235 . S
C107 O134 1.289 . S
O108 C107 1.235 . S
C109 C111 1.400 . S
C109 N112 1.351 . S
C109 C114 1.501 . S
C110 C111 1.387 . S
C110 N113 1.341 . S
C111 C109 1.400 . S
C111 C110 1.387 . S
N112 Co103 2.022 . S
N112 C109 1.351 . S
N112 N113 1.365 . S
N113 C110 1.341 . S
N113 N112 1.365 . S
N113 H133 0.862 . S
C114 C109 1.501 . S
C114 H115 0.961 . S
C114 H116 0.961 . S
C114 H117 0.960 . S
H115 C114 0.961 . S
H116 C114 0.961 . S
H117 C114 0.960 . S
C118 N119 1.342 . S
C118 C122 1.401 . S
C118 C123 1.499 . S
N119 Co102 1.989 . S
N119 C118 1.342 . S
N119 N120 1.388 . S
N120 Co103 1.993 . S
N120 N119 1.388 . S
N120 C121 1.346 . S
C121 N120 1.346 . S
C121 C122 1.396 . S
C121 C131 1.510 . S
C122 C118 1.401 . S
C122 C121 1.396 . S
C123 C118 1.499 . S
C123 H124 0.959 . S
C123 H125 0.960 . S
C123 H126 0.961 . S
H124 C123 0.959 . S
H125 C123 0.960 . S
H126 C123 0.961 . S
O127 Co102 1.967 . S
O127 C135 1.258 . S
O128 Co103 1.941 . S
O128 C135 1.266 . S
H129 C131 0.959 . S
H130 C131 0.961 . S
C131 C121 1.510 . S
C131 H129 0.959 . S
C131 H130 0.961 . S
C131 H132 0.960 . S
H132 C131 0.960 . S
H133 N113 0.862 . S
O134 Co102 1.920 . S
O134 C107 1.289 . S
C135 O127 1.258 . S
C135 O128 1.266 . S
Co136 O139 1.970 . S
Co136 N153 1.989 . S
Co136 O161 1.967 . S
Co136 O168 1.920 . S
Co137 O140 1.966 . S
Co137 N146 2.022 . S
Co137 N154 1.993 . S
Co137 O162 1.941 . S
C138 O139 1.258 . S
C138 O140 1.263 . S
O139 Co136 1.970 . S
O139 C138 1.258 . S
O140 Co137 1.966 . S
O140 C138 1.263 . S
C141 O142 1.235 . S
C141 O168 1.289 . S
O142 C141 1.235 . S
C143 C145 1.400 . S
C143 N146 1.351 . S
C143 C148 1.501 . S
C144 C145 1.387 . S
C144 N147 1.341 . S
C145 C143 1.400 . S
C145 C144 1.387 . S
N146 Co137 2.022 . S
N146 C143 1.351 . S
N146 N147 1.365 . S
N147 C144 1.341 . S
N147 N146 1.365 . S
N147 H167 0.862 . S
C148 C143 1.501 . S
C148 H149 0.961 . S
C148 H150 0.961 . S
C148 H151 0.960 . S
H149 C148 0.961 . S
H150 C148 0.961 . S
H151 C148 0.960 . S
C152 N153 1.342 . S
C152 C156 1.401 . S
C152 C157 1.499 . S
N153 Co136 1.989 . S
N153 C152 1.342 . S
N153 N154 1.388 . S
N154 Co137 1.993 . S
N154 N153 1.388 . S
N154 C155 1.346 . S
C155 N154 1.346 . S
C155 C156 1.396 . S
C155 C165 1.510 . S
C156 C152 1.401 . S
C156 C155 1.396 . S
C157 C152 1.499 . S
C157 H158 0.959 . S
C157 H159 0.960 . S
C157 H160 0.961 . S
H158 C157 0.959 . S
H159 C157 0.960 . S
H160 C157 0.961 . S
O161 Co136 1.967 . S
O161 C169 1.258 . S
O162 Co137 1.941 . S
O162 C169 1.266 . S
H163 C165 0.959 . S
H164 C165 0.961 . S
C165 C155 1.510 . S
C165 H163 0.959 . S
C165 H164 0.961 . S
C165 H166 0.960 . S
H166 C165 0.960 . S
H167 N147 0.862 . S
O168 Co136 1.920 . S
O168 C141 1.289 . S
C169 O161 1.258 . S
C169 O162 1.266 . S
Co170 O173 1.970 . S
Co170 N187 1.989 . S
Co170 O195 1.967 . S
Co170 O202 1.920 . S
Co171 O174 1.966 . S
Co171 N180 2.022 . S
Co171 N188 1.993 . S
Co171 O196 1.941 . S
C172 O173 1.258 . S
C172 O174 1.263 . S
O173 Co170 1.970 . S
O173 C172 1.258 . S
O174 Co171 1.966 . S
O174 C172 1.263 . S
C175 O176 1.235 . S
C175 O202 1.289 . S
O176 C175 1.235 . S
C177 C179 1.400 . S
C177 N180 1.351 . S
C177 C182 1.501 . S
C178 C179 1.387 . S
C178 N181 1.341 . S
C179 C177 1.400 . S
C179 C178 1.387 . S
N180 Co171 2.022 . S
N180 C177 1.351 . S
N180 N181 1.365 . S
N181 C178 1.341 . S
N181 N180 1.365 . S
N181 H201 0.862 . S
C182 C177 1.501 . S
C182 H183 0.961 . S
C182 H184 0.961 . S
C182 H185 0.960 . S
H183 C182 0.961 . S
H184 C182 0.961 . S
H185 C182 0.960 . S
C186 N187 1.342 . S
C186 C190 1.401 . S
C186 C191 1.499 . S
N187 Co170 1.989 . S
N187 C186 1.342 . S
N187 N188 1.388 . S
N188 Co171 1.993 . S
N188 N187 1.388 . S
N188 C189 1.346 . S
C189 N188 1.346 . S
C189 C190 1.396 . S
C189 C199 1.510 . S
C190 C186 1.401 . S
C190 C189 1.396 . S
C191 C186 1.499 . S
C191 H192 0.959 . S
C191 H193 0.960 . S
C191 H194 0.961 . S
H192 C191 0.959 . S
H193 C191 0.960 . S
H194 C191 0.961 . S
O195 Co170 1.967 . S
O195 C203 1.258 . S
O196 Co171 1.941 . S
O196 C203 1.266 . S
H197 C199 0.959 . S
H198 C199 0.961 . S
C199 C189 1.510 . S
C199 H197 0.959 . S
C199 H198 0.961 . S
C199 H200 0.960 . S
H200 C199 0.960 . S
H201 N181 0.862 . S
O202 Co170 1.920 . S
O202 C175 1.289 . S
C203 O195 1.258 . S
C203 O196 1.266 . S
Co204 O207 1.970 . S
Co204 N221 1.989 . S
Co204 O229 1.967 . S
Co204 O236 1.920 . S
Co205 O208 1.966 . S
Co205 N214 2.022 . S
Co205 N222 1.993 . S
Co205 O230 1.941 . S
C206 O207 1.258 . S
C206 O208 1.263 . S
O207 Co204 1.970 . S
O207 C206 1.258 . S
O208 Co205 1.966 . S
O208 C206 1.263 . S
C209 O210 1.235 . S
C209 O236 1.289 . S
O210 C209 1.235 . S
C211 C213 1.400 . S
C211 N214 1.351 . S
C211 C216 1.501 . S
C212 C213 1.387 . S
C212 N215 1.341 . S
C213 C211 1.400 . S
C213 C212 1.387 . S
N214 Co205 2.022 . S
N214 C211 1.351 . S
N214 N215 1.365 . S
N215 C212 1.341 . S
N215 N214 1.365 . S
N215 H235 0.862 . S
C216 C211 1.501 . S
C216 H217 0.961 . S
C216 H218 0.961 . S
C216 H219 0.960 . S
H217 C216 0.961 . S
H218 C216 0.961 . S
H219 C216 0.960 . S
C220 N221 1.342 . S
C220 C224 1.401 . S
C220 C225 1.499 . S
N221 Co204 1.989 . S
N221 C220 1.342 . S
N221 N222 1.388 . S
N222 Co205 1.993 . S
N222 N221 1.388 . S
N222 C223 1.346 . S
C223 N222 1.346 . S
C223 C224 1.396 . S
C223 C233 1.510 . S
C224 C220 1.401 . S
C224 C223 1.396 . S
C225 C220 1.499 . S
C225 H226 0.959 . S
C225 H227 0.960 . S
C225 H228 0.961 . S
H226 C225 0.959 . S
H227 C225 0.960 . S
H228 C225 0.961 . S
O229 Co204 1.967 . S
O229 C237 1.258 . S
O230 Co205 1.941 . S
O230 C237 1.266 . S
H231 C233 0.959 . S
H232 C233 0.961 . S
C233 C223 1.510 . S
C233 H231 0.959 . S
C233 H232 0.961 . S
C233 H234 0.960 . S
H234 C233 0.960 . S
H235 N215 0.862 . S
O236 Co204 1.920 . S
O236 C209 1.289 . S
C237 O229 1.258 . S
C237 O230 1.266 . S
Co238 O241 1.970 . S
Co238 N255 1.989 . S
Co238 O263 1.967 . S
Co238 O270 1.920 . S
Co239 O242 1.966 . S
Co239 N248 2.022 . S
Co239 N256 1.993 . S
Co239 O264 1.941 . S
C240 O241 1.258 . S
C240 O242 1.263 . S
O241 Co238 1.970 . S
O241 C240 1.258 . S
O242 Co239 1.966 . S
O242 C240 1.263 . S
C243 O244 1.235 . S
C243 O270 1.289 . S
O244 C243 1.235 . S
C245 C247 1.400 . S
C245 N248 1.351 . S
C245 C250 1.501 . S
C246 C247 1.387 . S
C246 N249 1.341 . S
C247 C245 1.400 . S
C247 C246 1.387 . S
N248 Co239 2.022 . S
N248 C245 1.351 . S
N248 N249 1.365 . S
N249 C246 1.341 . S
N249 N248 1.365 . S
N249 H269 0.862 . S
C250 C245 1.501 . S
C250 H251 0.961 . S
C250 H252 0.961 . S
C250 H253 0.960 . S
H251 C250 0.961 . S
H252 C250 0.961 . S
H253 C250 0.960 . S
C254 N255 1.342 . S
C254 C258 1.401 . S
C254 C259 1.499 . S
N255 Co238 1.989 . S
N255 C254 1.342 . S
N255 N256 1.388 . S
N256 Co239 1.993 . S
N256 N255 1.388 . S
N256 C257 1.346 . S
C257 N256 1.346 . S
C257 C258 1.396 . S
C257 C267 1.510 . S
C258 C254 1.401 . S
C258 C257 1.396 . S
C259 C254 1.499 . S
C259 H260 0.959 . S
C259 H261 0.960 . S
C259 H262 0.961 . S
H260 C259 0.959 . S
H261 C259 0.960 . S
H262 C259 0.961 . S
O263 Co238 1.967 . S
O263 C271 1.258 . S
O264 Co239 1.941 . S
O264 C271 1.266 . S
H265 C267 0.959 . S
H266 C267 0.961 . S
C267 C257 1.510 . S
C267 H265 0.959 . S
C267 H266 0.961 . S
C267 H268 0.960 . S
H268 C267 0.960 . S
H269 N249 0.862 . S
O270 Co238 1.920 . S
O270 C243 1.289 . S
C271 O263 1.258 . S
C271 O264 1.266 . S
Co272 O275 1.970 . S
Co272 N289 1.989 . S
Co272 O297 1.967 . S
Co272 O304 1.920 . S
Co273 O276 1.966 . S
Co273 N282 2.022 . S
Co273 N290 1.993 . S
Co273 O298 1.941 . S
C274 O275 1.258 . S
C274 O276 1.263 . S
O275 Co272 1.970 . S
O275 C274 1.258 . S
O276 Co273 1.966 . S
O276 C274 1.263 . S
C277 O278 1.235 . S
C277 O304 1.289 . S
O278 C277 1.235 . S
C279 C281 1.400 . S
C279 N282 1.351 . S
C279 C284 1.501 . S
C280 C281 1.387 . S
C280 N283 1.341 . S
C281 C279 1.400 . S
C281 C280 1.387 . S
N282 Co273 2.022 . S
N282 C279 1.351 . S
N282 N283 1.365 . S
N283 C280 1.341 . S
N283 N282 1.365 . S
N283 H303 0.862 . S
C284 C279 1.501 . S
C284 H285 0.961 . S
C284 H286 0.961 . S
C284 H287 0.960 . S
H285 C284 0.961 . S
H286 C284 0.961 . S
H287 C284 0.960 . S
C288 N289 1.342 . S
C288 C292 1.401 . S
C288 C293 1.499 . S
N289 Co272 1.989 . S
N289 C288 1.342 . S
N289 N290 1.388 . S
N290 Co273 1.993 . S
N290 N289 1.388 . S
N290 C291 1.346 . S
C291 N290 1.346 . S
C291 C292 1.396 . S
C291 C301 1.510 . S
C292 C288 1.401 . S
C292 C291 1.396 . S
C293 C288 1.499 . S
C293 H294 0.959 . S
C293 H295 0.960 . S
C293 H296 0.961 . S
H294 C293 0.959 . S
H295 C293 0.960 . S
H296 C293 0.961 . S
O297 Co272 1.967 . S
O297 C305 1.258 . S
O298 Co273 1.941 . S
O298 C305 1.266 . S
H299 C301 0.959 . S
H300 C301 0.961 . S
C301 C291 1.510 . S
C301 H299 0.959 . S
C301 H300 0.961 . S
C301 H302 0.960 . S
H302 C301 0.960 . S
H303 N283 0.862 . S
O304 Co272 1.920 . S
O304 C277 1.289 . S
C305 O297 1.258 . S
C305 O298 1.266 . S
Co306 O309 1.970 . S
Co306 N323 1.989 . S
Co306 O331 1.967 . S
Co306 O338 1.920 . S
Co307 O310 1.966 . S
Co307 N316 2.022 . S
Co307 N324 1.993 . S
Co307 O332 1.941 . S
C308 O309 1.258 . S
C308 O310 1.263 . S
O309 Co306 1.970 . S
O309 C308 1.258 . S
O310 Co307 1.966 . S
O310 C308 1.263 . S
C311 O312 1.235 . S
C311 O338 1.289 . S
O312 C311 1.235 . S
C313 C315 1.400 . S
C313 N316 1.351 . S
C313 C318 1.501 . S
C314 C315 1.387 . S
C314 N317 1.341 . S
C315 C313 1.400 . S
C315 C314 1.387 . S
N316 Co307 2.022 . S
N316 C313 1.351 . S
N316 N317 1.365 . S
N317 C314 1.341 . S
N317 N316 1.365 . S
N317 H337 0.862 . S
C318 C313 1.501 . S
C318 H319 0.961 . S
C318 H320 0.961 . S
C318 H321 0.960 . S
H319 C318 0.961 . S
H320 C318 0.961 . S
H321 C318 0.960 . S
C322 N323 1.342 . S
C322 C326 1.401 . S
C322 C327 1.499 . S
N323 Co306 1.989 . S
N323 C322 1.342 . S
N323 N324 1.388 . S
N324 Co307 1.993 . S
N324 N323 1.388 . S
N324 C325 1.346 . S
C325 N324 1.346 . S
C325 C326 1.396 . S
C325 C335 1.510 . S
C326 C322 1.401 . S
C326 C325 1.396 . S
C327 C322 1.499 . S
C327 H328 0.959 . S
C327 H329 0.960 . S
C327 H330 0.961 . S
H328 C327 0.959 . S
H329 C327 0.960 . S
H330 C327 0.961 . S
O331 Co306 1.967 . S
O331 C339 1.258 . S
O332 Co307 1.941 . S
O332 C339 1.266 . S
H333 C335 0.959 . S
H334 C335 0.961 . S
C335 C325 1.510 . S
C335 H333 0.959 . S
C335 H334 0.961 . S
C335 H336 0.960 . S
H336 C335 0.960 . S
H337 N317 0.862 . S
O338 Co306 1.920 . S
O338 C311 1.289 . S
C339 O331 1.258 . S
C339 O332 1.266 . S
Co340 O343 1.970 . S
Co340 N357 1.989 . S
Co340 O365 1.967 . S
Co340 O372 1.920 . S
Co341 O344 1.966 . S
Co341 N350 2.022 . S
Co341 N358 1.993 . S
Co341 O366 1.941 . S
C342 O343 1.258 . S
C342 O344 1.263 . S
O343 Co340 1.970 . S
O343 C342 1.258 . S
O344 Co341 1.966 . S
O344 C342 1.263 . S
C345 O346 1.235 . S
C345 O372 1.289 . S
O346 C345 1.235 . S
C347 C349 1.400 . S
C347 N350 1.351 . S
C347 C352 1.501 . S
C348 C349 1.387 . S
C348 N351 1.341 . S
C349 C347 1.400 . S
C349 C348 1.387 . S
N350 Co341 2.022 . S
N350 C347 1.351 . S
N350 N351 1.365 . S
N351 C348 1.341 . S
N351 N350 1.365 . S
N351 H371 0.862 . S
C352 C347 1.501 . S
C352 H353 0.961 . S
C352 H354 0.961 . S
C352 H355 0.960 . S
H353 C352 0.961 . S
H354 C352 0.961 . S
H355 C352 0.960 . S
C356 N357 1.342 . S
C356 C360 1.401 . S
C356 C361 1.499 . S
N357 Co340 1.989 . S
N357 C356 1.342 . S
N357 N358 1.388 . S
N358 Co341 1.993 . S
N358 N357 1.388 . S
N358 C359 1.346 . S
C359 N358 1.346 . S
C359 C360 1.396 . S
C359 C369 1.510 . S
C360 C356 1.401 . S
C360 C359 1.396 . S
C361 C356 1.499 . S
C361 H362 0.959 . S
C361 H363 0.960 . S
C361 H364 0.961 . S
H362 C361 0.959 . S
H363 C361 0.960 . S
H364 C361 0.961 . S
O365 Co340 1.967 . S
O365 C373 1.258 . S
O366 Co341 1.941 . S
O366 C373 1.266 . S
H367 C369 0.959 . S
H368 C369 0.961 . S
C369 C359 1.510 . S
C369 H367 0.959 . S
C369 H368 0.961 . S
C369 H370 0.960 . S
H370 C369 0.960 . S
H371 N351 0.862 . S
O372 Co340 1.920 . S
O372 C345 1.289 . S
C373 O365 1.258 . S
C373 O366 1.266 . S
Co374 O377 1.970 . S
Co374 N391 1.989 . S
Co374 O399 1.967 . S
Co374 O406 1.920 . S
Co375 O378 1.966 . S
Co375 N384 2.022 . S
Co375 N392 1.993 . S
Co375 O400 1.941 . S
C376 O377 1.258 . S
C376 O378 1.263 . S
O377 Co374 1.970 . S
O377 C376 1.258 . S
O378 Co375 1.966 . S
O378 C376 1.263 . S
C379 O380 1.235 . S
C379 O406 1.289 . S
O380 C379 1.235 . S
C381 C383 1.400 . S
C381 N384 1.351 . S
C381 C386 1.501 . S
C382 C383 1.387 . S
C382 N385 1.341 . S
C383 C381 1.400 . S
C383 C382 1.387 . S
N384 Co375 2.022 . S
N384 C381 1.351 . S
N384 N385 1.365 . S
N385 C382 1.341 . S
N385 N384 1.365 . S
N385 H405 0.862 . S
C386 C381 1.501 . S
C386 H387 0.961 . S
C386 H388 0.961 . S
C386 H389 0.960 . S
H387 C386 0.961 . S
H388 C386 0.961 . S
H389 C386 0.960 . S
C390 N391 1.342 . S
C390 C394 1.401 . S
C390 C395 1.499 . S
N391 Co374 1.989 . S
N391 C390 1.342 . S
N391 N392 1.388 . S
N392 Co375 1.993 . S
N392 N391 1.388 . S
N392 C393 1.346 . S
C393 N392 1.346 . S
C393 C394 1.396 . S
C393 C403 1.510 . S
C394 C390 1.401 . S
C394 C393 1.396 . S
C395 C390 1.499 . S
C395 H396 0.959 . S
C395 H397 0.960 . S
C395 H398 0.961 . S
H396 C395 0.959 . S
H397 C395 0.960 . S
H398 C395 0.961 . S
O399 Co374 1.967 . S
O399 C407 1.258 . S
O400 Co375 1.941 . S
O400 C407 1.266 . S
H401 C403 0.959 . S
H402 C403 0.961 . S
C403 C393 1.510 . S
C403 H401 0.959 . S
C403 H402 0.961 . S
C403 H404 0.960 . S
H404 C403 0.960 . S
H405 N385 0.862 . S
O406 Co374 1.920 . S
O406 C379 1.289 . S
C407 O399 1.258 . S
C407 O400 1.266 . S
Co408 O411 1.970 . S
Co408 N425 1.989 . S
Co408 O433 1.967 . S
Co408 O440 1.920 . S
Co409 O412 1.966 . S
Co409 N418 2.022 . S
Co409 N426 1.993 . S
Co409 O434 1.941 . S
C410 O411 1.258 . S
C410 O412 1.263 . S
O411 Co408 1.970 . S
O411 C410 1.258 . S
O412 Co409 1.966 . S
O412 C410 1.263 . S
C413 O414 1.235 . S
C413 O440 1.289 . S
O414 C413 1.235 . S
C415 C417 1.400 . S
C415 N418 1.351 . S
C415 C420 1.501 . S
C416 C417 1.387 . S
C416 N419 1.341 . S
C417 C415 1.400 . S
C417 C416 1.387 . S
N418 Co409 2.022 . S
N418 C415 1.351 . S
N418 N419 1.365 . S
N419 C416 1.341 . S
N419 N418 1.365 . S
N419 H439 0.862 . S
C420 C415 1.501 . S
C420 H421 0.961 . S
C420 H422 0.961 . S
C420 H423 0.960 . S
H421 C420 0.961 . S
H422 C420 0.961 . S
H423 C420 0.960 . S
C424 N425 1.342 . S
C424 C428 1.401 . S
C424 C429 1.499 . S
N425 Co408 1.989 . S
N425 C424 1.342 . S
N425 N426 1.388 . S
N426 Co409 1.993 . S
N426 N425 1.388 . S
N426 C427 1.346 . S
C427 N426 1.346 . S
C427 C428 1.396 . S
C427 C437 1.510 . S
C428 C424 1.401 . S
C428 C427 1.396 . S
C429 C424 1.499 . S
C429 H430 0.959 . S
C429 H431 0.960 . S
C429 H432 0.961 . S
H430 C429 0.959 . S
H431 C429 0.960 . S
H432 C429 0.961 . S
O433 Co408 1.967 . S
O433 C441 1.258 . S
O434 Co409 1.941 . S
O434 C441 1.266 . S
H435 C437 0.959 . S
H436 C437 0.961 . S
C437 C427 1.510 . S
C437 H435 0.959 . S
C437 H436 0.961 . S
C437 H438 0.960 . S
H438 C437 0.960 . S
H439 N419 0.862 . S
O440 Co408 1.920 . S
O440 C413 1.289 . S
C441 O433 1.258 . S
C441 O434 1.266 . S
Co442 O445 1.970 . S
Co442 N459 1.989 . S
Co442 O467 1.967 . S
Co442 O474 1.920 . S
Co443 O446 1.966 . S
Co443 N452 2.022 . S
Co443 N460 1.993 . S
Co443 O468 1.941 . S
C444 O445 1.258 . S
C444 O446 1.263 . S
O445 Co442 1.970 . S
O445 C444 1.258 . S
O446 Co443 1.966 . S
O446 C444 1.263 . S
C447 O448 1.235 . S
C447 O474 1.289 . S
O448 C447 1.235 . S
C449 C451 1.400 . S
C449 N452 1.351 . S
C449 C454 1.501 . S
C450 C451 1.387 . S
C450 N453 1.341 . S
C451 C449 1.400 . S
C451 C450 1.387 . S
N452 Co443 2.022 . S
N452 C449 1.351 . S
N452 N453 1.365 . S
N453 C450 1.341 . S
N453 N452 1.365 . S
N453 H473 0.862 . S
C454 C449 1.501 . S
C454 H455 0.961 . S
C454 H456 0.961 . S
C454 H457 0.960 . S
H455 C454 0.961 . S
H456 C454 0.961 . S
H457 C454 0.960 . S
C458 N459 1.342 . S
C458 C462 1.401 . S
C458 C463 1.499 . S
N459 Co442 1.989 . S
N459 C458 1.342 . S
N459 N460 1.388 . S
N460 Co443 1.993 . S
N460 N459 1.388 . S
N460 C461 1.346 . S
C461 N460 1.346 . S
C461 C462 1.396 . S
C461 C471 1.510 . S
C462 C458 1.401 . S
C462 C461 1.396 . S
C463 C458 1.499 . S
C463 H464 0.959 . S
C463 H465 0.960 . S
C463 H466 0.961 . S
H464 C463 0.959 . S
H465 C463 0.960 . S
H466 C463 0.961 . S
O467 Co442 1.967 . S
O467 C475 1.258 . S
O468 Co443 1.941 . S
O468 C475 1.266 . S
H469 C471 0.959 . S
H470 C471 0.961 . S
C471 C461 1.510 . S
C471 H469 0.959 . S
C471 H470 0.961 . S
C471 H472 0.960 . S
H472 C471 0.960 . S
H473 N453 0.862 . S
O474 Co442 1.920 . S
O474 C447 1.289 . S
C475 O467 1.258 . S
C475 O468 1.266 . S
Co476 O479 1.970 . S
Co476 N493 1.989 . S
Co476 O501 1.967 . S
Co476 O508 1.920 . S
Co477 O480 1.966 . S
Co477 N486 2.022 . S
Co477 N494 1.993 . S
Co477 O502 1.941 . S
C478 O479 1.258 . S
C478 O480 1.263 . S
O479 Co476 1.970 . S
O479 C478 1.258 . S
O480 Co477 1.966 . S
O480 C478 1.263 . S
C481 O482 1.235 . S
C481 O508 1.289 . S
O482 C481 1.235 . S
C483 C485 1.400 . S
C483 N486 1.351 . S
C483 C488 1.501 . S
C484 C485 1.387 . S
C484 N487 1.341 . S
C485 C483 1.400 . S
C485 C484 1.387 . S
N486 Co477 2.022 . S
N486 C483 1.351 . S
N486 N487 1.365 . S
N487 C484 1.341 . S
N487 N486 1.365 . S
N487 H507 0.862 . S
C488 C483 1.501 . S
C488 H489 0.961 . S
C488 H490 0.961 . S
C488 H491 0.960 . S
H489 C488 0.961 . S
H490 C488 0.961 . S
H491 C488 0.960 . S
C492 N493 1.342 . S
C492 C496 1.401 . S
C492 C497 1.499 . S
N493 Co476 1.989 . S
N493 C492 1.342 . S
N493 N494 1.388 . S
N494 Co477 1.993 . S
N494 N493 1.388 . S
N494 C495 1.346 . S
C495 N494 1.346 . S
C495 C496 1.396 . S
C495 C505 1.510 . S
C496 C492 1.401 . S
C496 C495 1.396 . S
C497 C492 1.499 . S
C497 H498 0.959 . S
C497 H499 0.960 . S
C497 H500 0.961 . S
H498 C497 0.959 . S
H499 C497 0.960 . S
H500 C497 0.961 . S
O501 Co476 1.967 . S
O501 C509 1.258 . S
O502 Co477 1.941 . S
O502 C509 1.266 . S
H503 C505 0.959 . S
H504 C505 0.961 . S
C505 C495 1.510 . S
C505 H503 0.959 . S
C505 H504 0.961 . S
C505 H506 0.960 . S
H506 C505 0.960 . S
H507 N487 0.862 . S
O508 Co476 1.920 . S
O508 C481 1.289 . S
C509 O501 1.258 . S
C509 O502 1.266 . S
Co510 O513 1.970 . S
Co510 N527 1.989 . S
Co510 O535 1.967 . S
Co510 O542 1.920 . S
Co511 O514 1.966 . S
Co511 N520 2.022 . S
Co511 N528 1.993 . S
Co511 O536 1.941 . S
C512 O513 1.258 . S
C512 O514 1.263 . S
O513 Co510 1.970 . S
O513 C512 1.258 . S
O514 Co511 1.966 . S
O514 C512 1.263 . S
C515 O516 1.235 . S
C515 O542 1.289 . S
O516 C515 1.235 . S
C517 C519 1.400 . S
C517 N520 1.351 . S
C517 C522 1.501 . S
C518 C519 1.387 . S
C518 N521 1.341 . S
C519 C517 1.400 . S
C519 C518 1.387 . S
N520 Co511 2.022 . S
N520 C517 1.351 . S
N520 N521 1.365 . S
N521 C518 1.341 . S
N521 N520 1.365 . S
N521 H541 0.862 . S
C522 C517 1.501 . S
C522 H523 0.961 . S
C522 H524 0.961 . S
C522 H525 0.960 . S
H523 C522 0.961 . S
H524 C522 0.961 . S
H525 C522 0.960 . S
C526 N527 1.342 . S
C526 C530 1.401 . S
C526 C531 1.499 . S
N527 Co510 1.989 . S
N527 C526 1.342 . S
N527 N528 1.388 . S
N528 Co511 1.993 . S
N528 N527 1.388 . S
N528 C529 1.346 . S
C529 N528 1.346 . S
C529 C530 1.396 . S
C529 C539 1.510 . S
C530 C526 1.401 . S
C530 C529 1.396 . S
C531 C526 1.499 . S
C531 H532 0.959 . S
C531 H533 0.960 . S
C531 H534 0.961 . S
H532 C531 0.959 . S
H533 C531 0.960 . S
H534 C531 0.961 . S
O535 Co510 1.967 . S
O535 C543 1.258 . S
O536 Co511 1.941 . S
O536 C543 1.266 . S
H537 C539 0.959 . S
H538 C539 0.961 . S
C539 C529 1.510 . S
C539 H537 0.959 . S
C539 H538 0.961 . S
C539 H540 0.960 . S
H540 C539 0.960 . S
H541 N521 0.862 . S
O542 Co510 1.920 . S
O542 C515 1.289 . S
C543 O535 1.258 . S
C543 O536 1.266 . S
Co544 O547 1.970 . S
Co544 N561 1.989 . S
Co544 O569 1.967 . S
Co544 O576 1.920 . S
Co545 O548 1.966 . S
Co545 N554 2.022 . S
Co545 N562 1.993 . S
Co545 O570 1.941 . S
C546 O547 1.258 . S
C546 O548 1.263 . S
O547 Co544 1.970 . S
O547 C546 1.258 . S
O548 Co545 1.966 . S
O548 C546 1.263 . S
C549 O550 1.235 . S
C549 O576 1.289 . S
O550 C549 1.235 . S
C551 C553 1.400 . S
C551 N554 1.351 . S
C551 C556 1.501 . S
C552 C553 1.387 . S
C552 N555 1.341 . S
C553 C551 1.400 . S
C553 C552 1.387 . S
N554 Co545 2.022 . S
N554 C551 1.351 . S
N554 N555 1.365 . S
N555 C552 1.341 . S
N555 N554 1.365 . S
N555 H575 0.862 . S
C556 C551 1.501 . S
C556 H557 0.961 . S
C556 H558 0.961 . S
C556 H559 0.960 . S
H557 C556 0.961 . S
H558 C556 0.961 . S
H559 C556 0.960 . S
C560 N561 1.342 . S
C560 C564 1.401 . S
C560 C565 1.499 . S
N561 Co544 1.989 . S
N561 C560 1.342 . S
N561 N562 1.388 . S
N562 Co545 1.993 . S
N562 N561 1.388 . S
N562 C563 1.346 . S
C563 N562 1.346 . S
C563 C564 1.396 . S
C563 C573 1.510 . S
C564 C560 1.401 . S
C564 C563 1.396 . S
C565 C560 1.499 . S
C565 H566 0.959 . S
C565 H567 0.960 . S
C565 H568 0.961 . S
H566 C565 0.959 . S
H567 C565 0.960 . S
H568 C565 0.961 . S
O569 Co544 1.967 . S
O569 C577 1.258 . S
O570 Co545 1.941 . S
O570 C577 1.266 . S
H571 C573 0.959 . S
H572 C573 0.961 . S
C573 C563 1.510 . S
C573 H571 0.959 . S
C573 H572 0.961 . S
C573 H574 0.960 . S
H574 C573 0.960 . S
H575 N555 0.862 . S
O576 Co544 1.920 . S
O576 C549 1.289 . S
C577 O569 1.258 . S
C577 O570 1.266 . S
Co578 O581 1.970 . S
Co578 N595 1.989 . S
Co578 O603 1.967 . S
Co578 O610 1.920 . S
Co579 O582 1.966 . S
Co579 N588 2.022 . S
Co579 N596 1.993 . S
Co579 O604 1.941 . S
C580 O581 1.258 . S
C580 O582 1.263 . S
O581 Co578 1.970 . S
O581 C580 1.258 . S
O582 Co579 1.966 . S
O582 C580 1.263 . S
C583 O584 1.235 . S
C583 O610 1.289 . S
O584 C583 1.235 . S
C585 C587 1.400 . S
C585 N588 1.351 . S
C585 C590 1.501 . S
C586 C587 1.387 . S
C586 N589 1.341 . S
C587 C585 1.400 . S
C587 C586 1.387 . S
N588 Co579 2.022 . S
N588 C585 1.351 . S
N588 N589 1.365 . S
N589 C586 1.341 . S
N589 N588 1.365 . S
N589 H609 0.862 . S
C590 C585 1.501 . S
C590 H591 0.961 . S
C590 H592 0.961 . S
C590 H593 0.960 . S
H591 C590 0.961 . S
H592 C590 0.961 . S
H593 C590 0.960 . S
C594 N595 1.342 . S
C594 C598 1.401 . S
C594 C599 1.499 . S
N595 Co578 1.989 . S
N595 C594 1.342 . S
N595 N596 1.388 . S
N596 Co579 1.993 . S
N596 N595 1.388 . S
N596 C597 1.346 . S
C597 N596 1.346 . S
C597 C598 1.396 . S
C597 C607 1.510 . S
C598 C594 1.401 . S
C598 C597 1.396 . S
C599 C594 1.499 . S
C599 H600 0.959 . S
C599 H601 0.960 . S
C599 H602 0.961 . S
H600 C599 0.959 . S
H601 C599 0.960 . S
H602 C599 0.961 . S
O603 Co578 1.967 . S
O603 C611 1.258 . S
O604 Co579 1.941 . S
O604 C611 1.266 . S
H605 C607 0.959 . S
H606 C607 0.961 . S
C607 C597 1.510 . S
C607 H605 0.959 . S
C607 H606 0.961 . S
C607 H608 0.960 . S
H608 C607 0.960 . S
H609 N589 0.862 . S
O610 Co578 1.920 . S
O610 C583 1.289 . S
C611 O603 1.258 . S
C611 O604 1.266 . S
Co612 O615 1.970 . S
Co612 N629 1.989 . S
Co612 O637 1.967 . S
Co612 O644 1.920 . S
Co613 O616 1.966 . S
Co613 N622 2.022 . S
Co613 N630 1.993 . S
Co613 O638 1.941 . S
C614 O615 1.258 . S
C614 O616 1.263 . S
O615 Co612 1.970 . S
O615 C614 1.258 . S
O616 Co613 1.966 . S
O616 C614 1.263 . S
C617 O618 1.235 . S
C617 O644 1.289 . S
O618 C617 1.235 . S
C619 C621 1.400 . S
C619 N622 1.351 . S
C619 C624 1.501 . S
C620 C621 1.387 . S
C620 N623 1.341 . S
C621 C619 1.400 . S
C621 C620 1.387 . S
N622 Co613 2.022 . S
N622 C619 1.351 . S
N622 N623 1.365 . S
N623 C620 1.341 . S
N623 N622 1.365 . S
N623 H643 0.862 . S
C624 C619 1.501 . S
C624 H625 0.961 . S
C624 H626 0.961 . S
C624 H627 0.960 . S
H625 C624 0.961 . S
H626 C624 0.961 . S
H627 C624 0.960 . S
C628 N629 1.342 . S
C628 C632 1.401 . S
C628 C633 1.499 . S
N629 Co612 1.989 . S
N629 C628 1.342 . S
N629 N630 1.388 . S
N630 Co613 1.993 . S
N630 N629 1.388 . S
N630 C631 1.346 . S
C631 N630 1.346 . S
C631 C632 1.396 . S
C631 C641 1.510 . S
C632 C628 1.401 . S
C632 C631 1.396 . S
C633 C628 1.499 . S
C633 H634 0.959 . S
C633 H635 0.960 . S
C633 H636 0.961 . S
H634 C633 0.959 . S
H635 C633 0.960 . S
H636 C633 0.961 . S
O637 Co612 1.967 . S
O637 C645 1.258 . S
O638 Co613 1.941 . S
O638 C645 1.266 . S
H639 C641 0.959 . S
H640 C641 0.961 . S
C641 C631 1.510 . S
C641 H639 0.959 . S
C641 H640 0.961 . S
C641 H642 0.960 . S
H642 C641 0.960 . S
H643 N623 0.862 . S
O644 Co612 1.920 . S
O644 C617 1.289 . S
C645 O637 1.258 . S
C645 O638 1.266 . S
Co646 O649 1.970 . S
Co646 N663 1.989 . S
Co646 O671 1.967 . S
Co646 O678 1.920 . S
Co647 O650 1.966 . S
Co647 N656 2.022 . S
Co647 N664 1.993 . S
Co647 O672 1.941 . S
C648 O649 1.258 . S
C648 O650 1.263 . S
O649 Co646 1.970 . S
O649 C648 1.258 . S
O650 Co647 1.966 . S
O650 C648 1.263 . S
C651 O652 1.235 . S
C651 O678 1.289 . S
O652 C651 1.235 . S
C653 C655 1.400 . S
C653 N656 1.351 . S
C653 C658 1.501 . S
C654 C655 1.387 . S
C654 N657 1.341 . S
C655 C653 1.400 . S
C655 C654 1.387 . S
N656 Co647 2.022 . S
N656 C653 1.351 . S
N656 N657 1.365 . S
N657 C654 1.341 . S
N657 N656 1.365 . S
N657 H677 0.862 . S
C658 C653 1.501 . S
C658 H659 0.961 . S
C658 H660 0.961 . S
C658 H661 0.960 . S
H659 C658 0.961 . S
H660 C658 0.961 . S
H661 C658 0.960 . S
C662 N663 1.342 . S
C662 C666 1.401 . S
C662 C667 1.499 . S
N663 Co646 1.989 . S
N663 C662 1.342 . S
N663 N664 1.388 . S
N664 Co647 1.993 . S
N664 N663 1.388 . S
N664 C665 1.346 . S
C665 N664 1.346 . S
C665 C666 1.396 . S
C665 C675 1.510 . S
C666 C662 1.401 . S
C666 C665 1.396 . S
C667 C662 1.499 . S
C667 H668 0.959 . S
C667 H669 0.960 . S
C667 H670 0.961 . S
H668 C667 0.959 . S
H669 C667 0.960 . S
H670 C667 0.961 . S
O671 Co646 1.967 . S
O671 C679 1.258 . S
O672 Co647 1.941 . S
O672 C679 1.266 . S
H673 C675 0.959 . S
H674 C675 0.961 . S
C675 C665 1.510 . S
C675 H673 0.959 . S
C675 H674 0.961 . S
C675 H676 0.960 . S
H676 C675 0.960 . S
H677 N657 0.862 . S
O678 Co646 1.920 . S
O678 C651 1.289 . S
C679 O671 1.258 . S
C679 O672 1.266 . S
Co680 O683 1.970 . S
Co680 N697 1.989 . S
Co680 O705 1.967 . S
Co680 O712 1.920 . S
Co681 O684 1.966 . S
Co681 N690 2.022 . S
Co681 N698 1.993 . S
Co681 O706 1.941 . S
C682 O683 1.258 . S
C682 O684 1.263 . S
O683 Co680 1.970 . S
O683 C682 1.258 . S
O684 Co681 1.966 . S
O684 C682 1.263 . S
C685 O686 1.235 . S
C685 O712 1.289 . S
O686 C685 1.235 . S
C687 C689 1.400 . S
C687 N690 1.351 . S
C687 C692 1.501 . S
C688 C689 1.387 . S
C688 N691 1.341 . S
C689 C687 1.400 . S
C689 C688 1.387 . S
N690 Co681 2.022 . S
N690 C687 1.351 . S
N690 N691 1.365 . S
N691 C688 1.341 . S
N691 N690 1.365 . S
N691 H711 0.862 . S
C692 C687 1.501 . S
C692 H693 0.961 . S
C692 H694 0.961 . S
C692 H695 0.960 . S
H693 C692 0.961 . S
H694 C692 0.961 . S
H695 C692 0.960 . S
C696 N697 1.342 . S
C696 C700 1.401 . S
C696 C701 1.499 . S
N697 Co680 1.989 . S
N697 C696 1.342 . S
N697 N698 1.388 . S
N698 Co681 1.993 . S
N698 N697 1.388 . S
N698 C699 1.346 . S
C699 N698 1.346 . S
C699 C700 1.396 . S
C699 C709 1.510 . S
C700 C696 1.401 . S
C700 C699 1.396 . S
C701 C696 1.499 . S
C701 H702 0.959 . S
C701 H703 0.960 . S
C701 H704 0.961 . S
H702 C701 0.959 . S
H703 C701 0.960 . S
H704 C701 0.961 . S
O705 Co680 1.967 . S
O705 C713 1.258 . S
O706 Co681 1.941 . S
O706 C713 1.266 . S
H707 C709 0.959 . S
H708 C709 0.961 . S
C709 C699 1.510 . S
C709 H707 0.959 . S
C709 H708 0.961 . S
C709 H710 0.960 . S
H710 C709 0.960 . S
H711 N691 0.862 . S
O712 Co680 1.920 . S
O712 C685 1.289 . S
C713 O705 1.258 . S
C713 O706 1.266 . S
Co714 O717 1.970 . S
Co714 N731 1.989 . S
Co714 O739 1.967 . S
Co714 O746 1.920 . S
Co715 O718 1.966 . S
Co715 N724 2.022 . S
Co715 N732 1.993 . S
Co715 O740 1.941 . S
C716 O717 1.258 . S
C716 O718 1.263 . S
O717 Co714 1.970 . S
O717 C716 1.258 . S
O718 Co715 1.966 . S
O718 C716 1.263 . S
C719 O720 1.235 . S
C719 O746 1.289 . S
O720 C719 1.235 . S
C721 C723 1.400 . S
C721 N724 1.351 . S
C721 C726 1.501 . S
C722 C723 1.387 . S
C722 N725 1.341 . S
C723 C721 1.400 . S
C723 C722 1.387 . S
N724 Co715 2.022 . S
N724 C721 1.351 . S
N724 N725 1.365 . S
N725 C722 1.341 . S
N725 N724 1.365 . S
N725 H745 0.862 . S
C726 C721 1.501 . S
C726 H727 0.961 . S
C726 H728 0.961 . S
C726 H729 0.960 . S
H727 C726 0.961 . S
H728 C726 0.961 . S
H729 C726 0.960 . S
C730 N731 1.342 . S
C730 C734 1.401 . S
C730 C735 1.499 . S
N731 Co714 1.989 . S
N731 C730 1.342 . S
N731 N732 1.388 . S
N732 Co715 1.993 . S
N732 N731 1.388 . S
N732 C733 1.346 . S
C733 N732 1.346 . S
C733 C734 1.396 . S
C733 C743 1.510 . S
C734 C730 1.401 . S
C734 C733 1.396 . S
C735 C730 1.499 . S
C735 H736 0.959 . S
C735 H737 0.960 . S
C735 H738 0.961 . S
H736 C735 0.959 . S
H737 C735 0.960 . S
H738 C735 0.961 . S
O739 Co714 1.967 . S
O739 C747 1.258 . S
O740 Co715 1.941 . S
O740 C747 1.266 . S
H741 C743 0.959 . S
H742 C743 0.961 . S
C743 C733 1.510 . S
C743 H741 0.959 . S
C743 H742 0.961 . S
C743 H744 0.960 . S
H744 C743 0.960 . S
H745 N725 0.862 . S
O746 Co714 1.920 . S
O746 C719 1.289 . S
C747 O739 1.258 . S
C747 O740 1.266 . S
Co748 O751 1.970 . S
Co748 N765 1.989 . S
Co748 O773 1.967 . S
Co748 O780 1.920 . S
Co749 O752 1.966 . S
Co749 N758 2.022 . S
Co749 N766 1.993 . S
Co749 O774 1.941 . S
C750 O751 1.258 . S
C750 O752 1.263 . S
O751 Co748 1.970 . S
O751 C750 1.258 . S
O752 Co749 1.966 . S
O752 C750 1.263 . S
C753 O754 1.235 . S
C753 O780 1.289 . S
O754 C753 1.235 . S
C755 C757 1.400 . S
C755 N758 1.351 . S
C755 C760 1.501 . S
C756 C757 1.387 . S
C756 N759 1.341 . S
C757 C755 1.400 . S
C757 C756 1.387 . S
N758 Co749 2.022 . S
N758 C755 1.351 . S
N758 N759 1.365 . S
N759 C756 1.341 . S
N759 N758 1.365 . S
N759 H779 0.862 . S
C760 C755 1.501 . S
C760 H761 0.961 . S
C760 H762 0.961 . S
C760 H763 0.960 . S
H761 C760 0.961 . S
H762 C760 0.961 . S
H763 C760 0.960 . S
C764 N765 1.342 . S
C764 C768 1.401 . S
C764 C769 1.499 . S
N765 Co748 1.989 . S
N765 C764 1.342 . S
N765 N766 1.388 . S
N766 Co749 1.993 . S
N766 N765 1.388 . S
N766 C767 1.346 . S
C767 N766 1.346 . S
C767 C768 1.396 . S
C767 C777 1.510 . S
C768 C764 1.401 . S
C768 C767 1.396 . S
C769 C764 1.499 . S
C769 H770 0.959 . S
C769 H771 0.960 . S
C769 H772 0.961 . S
H770 C769 0.959 . S
H771 C769 0.960 . S
H772 C769 0.961 . S
O773 Co748 1.967 . S
O773 C781 1.258 . S
O774 Co749 1.941 . S
O774 C781 1.266 . S
H775 C777 0.959 . S
H776 C777 0.961 . S
C777 C767 1.510 . S
C777 H775 0.959 . S
C777 H776 0.961 . S
C777 H778 0.960 . S
H778 C777 0.960 . S
H779 N759 0.862 . S
O780 Co748 1.920 . S
O780 C753 1.289 . S
C781 O773 1.258 . S
C781 O774 1.266 . S
Co782 O785 1.970 . S
Co782 N799 1.989 . S
Co782 O807 1.967 . S
Co782 O814 1.920 . S
Co783 O786 1.966 . S
Co783 N792 2.022 . S
Co783 N800 1.993 . S
Co783 O808 1.941 . S
C784 O785 1.258 . S
C784 O786 1.263 . S
O785 Co782 1.970 . S
O785 C784 1.258 . S
O786 Co783 1.966 . S
O786 C784 1.263 . S
C787 O788 1.235 . S
C787 O814 1.289 . S
O788 C787 1.235 . S
C789 C791 1.400 . S
C789 N792 1.351 . S
C789 C794 1.501 . S
C790 C791 1.387 . S
C790 N793 1.341 . S
C791 C789 1.400 . S
C791 C790 1.387 . S
N792 Co783 2.022 . S
N792 C789 1.351 . S
N792 N793 1.365 . S
N793 C790 1.341 . S
N793 N792 1.365 . S
N793 H813 0.862 . S
C794 C789 1.501 . S
C794 H795 0.961 . S
C794 H796 0.961 . S
C794 H797 0.960 . S
H795 C794 0.961 . S
H796 C794 0.961 . S
H797 C794 0.960 . S
C798 N799 1.342 . S
C798 C802 1.401 . S
C798 C803 1.499 . S
N799 Co782 1.989 . S
N799 C798 1.342 . S
N799 N800 1.388 . S
N800 Co783 1.993 . S
N800 N799 1.388 . S
N800 C801 1.346 . S
C801 N800 1.346 . S
C801 C802 1.396 . S
C801 C811 1.510 . S
C802 C798 1.401 . S
C802 C801 1.396 . S
C803 C798 1.499 . S
C803 H804 0.959 . S
C803 H805 0.960 . S
C803 H806 0.961 . S
H804 C803 0.959 . S
H805 C803 0.960 . S
H806 C803 0.961 . S
O807 Co782 1.967 . S
O807 C815 1.258 . S
O808 Co783 1.941 . S
O808 C815 1.266 . S
H809 C811 0.959 . S
H810 C811 0.961 . S
C811 C801 1.510 . S
C811 H809 0.959 . S
C811 H810 0.961 . S
C811 H812 0.960 . S
H812 C811 0.960 . S
H813 N793 0.862 . S
O814 Co782 1.920 . S
O814 C787 1.289 . S
C815 O807 1.258 . S
C815 O808 1.266 . S
Co816 O819 1.970 . S
Co816 N833 1.989 . S
Co816 O841 1.967 . S
Co816 O848 1.920 . S
Co817 O820 1.966 . S
Co817 N826 2.022 . S
Co817 N834 1.993 . S
Co817 O842 1.941 . S
C818 O819 1.258 . S
C818 O820 1.263 . S
O819 Co816 1.970 . S
O819 C818 1.258 . S
O820 Co817 1.966 . S
O820 C818 1.263 . S
C821 O822 1.235 . S
C821 O848 1.289 . S
O822 C821 1.235 . S
C823 C825 1.400 . S
C823 N826 1.351 . S
C823 C828 1.501 . S
C824 C825 1.387 . S
C824 N827 1.341 . S
C825 C823 1.400 . S
C825 C824 1.387 . S
N826 Co817 2.022 . S
N826 C823 1.351 . S
N826 N827 1.365 . S
N827 C824 1.341 . S
N827 N826 1.365 . S
N827 H847 0.862 . S
C828 C823 1.501 . S
C828 H829 0.961 . S
C828 H830 0.961 . S
C828 H831 0.960 . S
H829 C828 0.961 . S
H830 C828 0.961 . S
H831 C828 0.960 . S
C832 N833 1.342 . S
C832 C836 1.401 . S
C832 C837 1.499 . S
N833 Co816 1.989 . S
N833 C832 1.342 . S
N833 N834 1.388 . S
N834 Co817 1.993 . S
N834 N833 1.388 . S
N834 C835 1.346 . S
C835 N834 1.346 . S
C835 C836 1.396 . S
C835 C845 1.510 . S
C836 C832 1.401 . S
C836 C835 1.396 . S
C837 C832 1.499 . S
C837 H838 0.959 . S
C837 H839 0.960 . S
C837 H840 0.961 . S
H838 C837 0.959 . S
H839 C837 0.960 . S
H840 C837 0.961 . S
O841 Co816 1.967 . S
O841 C849 1.258 . S
O842 Co817 1.941 . S
O842 C849 1.266 . S
H843 C845 0.959 . S
H844 C845 0.961 . S
C845 C835 1.510 . S
C845 H843 0.959 . S
C845 H844 0.961 . S
C845 H846 0.960 . S
H846 C845 0.960 . S
H847 N827 0.862 . S
O848 Co816 1.920 . S
O848 C821 1.289 . S
C849 O841 1.258 . S
C849 O842 1.266 . S
Co850 O853 1.970 . S
Co850 N867 1.989 . S
Co850 O875 1.967 . S
Co850 O882 1.920 . S
Co851 O854 1.966 . S
Co851 N860 2.022 . S
Co851 N868 1.993 . S
Co851 O876 1.941 . S
C852 O853 1.258 . S
C852 O854 1.263 . S
O853 Co850 1.970 . S
O853 C852 1.258 . S
O854 Co851 1.966 . S
O854 C852 1.263 . S
C855 O856 1.235 . S
C855 O882 1.289 . S
O856 C855 1.235 . S
C857 C859 1.400 . S
C857 N860 1.351 . S
C857 C862 1.501 . S
C858 C859 1.387 . S
C858 N861 1.341 . S
C859 C857 1.400 . S
C859 C858 1.387 . S
N860 Co851 2.022 . S
N860 C857 1.351 . S
N860 N861 1.365 . S
N861 C858 1.341 . S
N861 N860 1.365 . S
N861 H881 0.862 . S
C862 C857 1.501 . S
C862 H863 0.961 . S
C862 H864 0.961 . S
C862 H865 0.960 . S
H863 C862 0.961 . S
H864 C862 0.961 . S
H865 C862 0.960 . S
C866 N867 1.342 . S
C866 C870 1.401 . S
C866 C871 1.499 . S
N867 Co850 1.989 . S
N867 C866 1.342 . S
N867 N868 1.388 . S
N868 Co851 1.993 . S
N868 N867 1.388 . S
N868 C869 1.346 . S
C869 N868 1.346 . S
C869 C870 1.396 . S
C869 C879 1.510 . S
C870 C866 1.401 . S
C870 C869 1.396 . S
C871 C866 1.499 . S
C871 H872 0.959 . S
C871 H873 0.960 . S
C871 H874 0.961 . S
H872 C871 0.959 . S
H873 C871 0.960 . S
H874 C871 0.961 . S
O875 Co850 1.967 . S
O875 C883 1.258 . S
O876 Co851 1.941 . S
O876 C883 1.266 . S
H877 C879 0.959 . S
H878 C879 0.961 . S
C879 C869 1.510 . S
C879 H877 0.959 . S
C879 H878 0.961 . S
C879 H880 0.960 . S
H880 C879 0.960 . S
H881 N861 0.862 . S
O882 Co850 1.920 . S
O882 C855 1.289 . S
C883 O875 1.258 . S
C883 O876 1.266 . S
Co884 O887 1.970 . S
Co884 N901 1.989 . S
Co884 O909 1.967 . S
Co884 O916 1.920 . S
Co885 O888 1.966 . S
Co885 N894 2.022 . S
Co885 N902 1.993 . S
Co885 O910 1.941 . S
C886 O887 1.258 . S
C886 O888 1.263 . S
O887 Co884 1.970 . S
O887 C886 1.258 . S
O888 Co885 1.966 . S
O888 C886 1.263 . S
C889 O890 1.235 . S
C889 O916 1.289 . S
O890 C889 1.235 . S
C891 C893 1.400 . S
C891 N894 1.351 . S
C891 C896 1.501 . S
C892 C893 1.387 . S
C892 N895 1.341 . S
C893 C891 1.400 . S
C893 C892 1.387 . S
N894 Co885 2.022 . S
N894 C891 1.351 . S
N894 N895 1.365 . S
N895 C892 1.341 . S
N895 N894 1.365 . S
N895 H915 0.862 . S
C896 C891 1.501 . S
C896 H897 0.961 . S
C896 H898 0.961 . S
C896 H899 0.960 . S
H897 C896 0.961 . S
H898 C896 0.961 . S
H899 C896 0.960 . S
C900 N901 1.342 . S
C900 C904 1.401 . S
C900 C905 1.499 . S
N901 Co884 1.989 . S
N901 C900 1.342 . S
N901 N902 1.388 . S
N902 Co885 1.993 . S
N902 N901 1.388 . S
N902 C903 1.346 . S
C903 N902 1.346 . S
C903 C904 1.396 . S
C903 C913 1.510 . S
C904 C900 1.401 . S
C904 C903 1.396 . S
C905 C900 1.499 . S
C905 H906 0.959 . S
C905 H907 0.960 . S
C905 H908 0.961 . S
H906 C905 0.959 . S
H907 C905 0.960 . S
H908 C905 0.961 . S
O909 Co884 1.967 . S
O909 C917 1.258 . S
O910 Co885 1.941 . S
O910 C917 1.266 . S
H911 C913 0.959 . S
H912 C913 0.961 . S
C913 C903 1.510 . S
C913 H911 0.959 . S
C913 H912 0.961 . S
C913 H914 0.960 . S
H914 C913 0.960 . S
H915 N895 0.862 . S
O916 Co884 1.920 . S
O916 C889 1.289 . S
C917 O909 1.258 . S
C917 O910 1.266 . S
Co918 O921 1.970 . S
Co918 N935 1.989 . S
Co918 O943 1.967 . S
Co918 O950 1.920 . S
Co919 O922 1.966 . S
Co919 N928 2.022 . S
Co919 N936 1.993 . S
Co919 O944 1.941 . S
C920 O921 1.258 . S
C920 O922 1.263 . S
O921 Co918 1.970 . S
O921 C920 1.258 . S
O922 Co919 1.966 . S
O922 C920 1.263 . S
C923 O924 1.235 . S
C923 O950 1.289 . S
O924 C923 1.235 . S
C925 C927 1.400 . S
C925 N928 1.351 . S
C925 C930 1.501 . S
C926 C927 1.387 . S
C926 N929 1.341 . S
C927 C925 1.400 . S
C927 C926 1.387 . S
N928 Co919 2.022 . S
N928 C925 1.351 . S
N928 N929 1.365 . S
N929 C926 1.341 . S
N929 N928 1.365 . S
N929 H949 0.862 . S
C930 C925 1.501 . S
C930 H931 0.961 . S
C930 H932 0.961 . S
C930 H933 0.960 . S
H931 C930 0.961 . S
H932 C930 0.961 . S
H933 C930 0.960 . S
C934 N935 1.342 . S
C934 C938 1.401 . S
C934 C939 1.499 . S
N935 Co918 1.989 . S
N935 C934 1.342 . S
N935 N936 1.388 . S
N936 Co919 1.993 . S
N936 N935 1.388 . S
N936 C937 1.346 . S
C937 N936 1.346 . S
C937 C938 1.396 . S
C937 C947 1.510 . S
C938 C934 1.401 . S
C938 C937 1.396 . S
C939 C934 1.499 . S
C939 H940 0.959 . S
C939 H941 0.960 . S
C939 H942 0.961 . S
H940 C939 0.959 . S
H941 C939 0.960 . S
H942 C939 0.961 . S
O943 Co918 1.967 . S
O943 C951 1.258 . S
O944 Co919 1.941 . S
O944 C951 1.266 . S
H945 C947 0.959 . S
H946 C947 0.961 . S
C947 C937 1.510 . S
C947 H945 0.959 . S
C947 H946 0.961 . S
C947 H948 0.960 . S
H948 C947 0.960 . S
H949 N929 0.862 . S
O950 Co918 1.920 . S
O950 C923 1.289 . S
C951 O943 1.258 . S
C951 O944 1.266 . S
Co952 O955 1.970 . S
Co952 N969 1.989 . S
Co952 O977 1.967 . S
Co952 O984 1.920 . S
Co953 O956 1.966 . S
Co953 N962 2.022 . S
Co953 N970 1.993 . S
Co953 O978 1.941 . S
C954 O955 1.258 . S
C954 O956 1.263 . S
O955 Co952 1.970 . S
O955 C954 1.258 . S
O956 Co953 1.966 . S
O956 C954 1.263 . S
C957 O958 1.235 . S
C957 O984 1.289 . S
O958 C957 1.235 . S
C959 C961 1.400 . S
C959 N962 1.351 . S
C959 C964 1.501 . S
C960 C961 1.387 . S
C960 N963 1.341 . S
C961 C959 1.400 . S
C961 C960 1.387 . S
N962 Co953 2.022 . S
N962 C959 1.351 . S
N962 N963 1.365 . S
N963 C960 1.341 . S
N963 N962 1.365 . S
N963 H983 0.862 . S
C964 C959 1.501 . S
C964 H965 0.961 . S
C964 H966 0.961 . S
C964 H967 0.960 . S
H965 C964 0.961 . S
H966 C964 0.961 . S
H967 C964 0.960 . S
C968 N969 1.342 . S
C968 C972 1.401 . S
C968 C973 1.499 . S
N969 Co952 1.989 . S
N969 C968 1.342 . S
N969 N970 1.388 . S
N970 Co953 1.993 . S
N970 N969 1.388 . S
N970 C971 1.346 . S
C971 N970 1.346 . S
C971 C972 1.396 . S
C971 C981 1.510 . S
C972 C968 1.401 . S
C972 C971 1.396 . S
C973 C968 1.499 . S
C973 H974 0.959 . S
C973 H975 0.960 . S
C973 H976 0.961 . S
H974 C973 0.959 . S
H975 C973 0.960 . S
H976 C973 0.961 . S
O977 Co952 1.967 . S
O977 C985 1.258 . S
O978 Co953 1.941 . S
O978 C985 1.266 . S
H979 C981 0.959 . S
H980 C981 0.961 . S
C981 C971 1.510 . S
C981 H979 0.959 . S
C981 H980 0.961 . S
C981 H982 0.960 . S
H982 C981 0.960 . S
H983 N963 0.862 . S
O984 Co952 1.920 . S
O984 C957 1.289 . S
C985 O977 1.258 . S
C985 O978 1.266 . S
Co986 O989 1.970 . S
Co986 N1003 1.989 . S
Co986 O1011 1.967 . S
Co986 O1018 1.920 . S
Co987 O990 1.966 . S
Co987 N996 2.022 . S
Co987 N1004 1.993 . S
Co987 O1012 1.941 . S
C988 O989 1.258 . S
C988 O990 1.263 . S
O989 Co986 1.970 . S
O989 C988 1.258 . S
O990 Co987 1.966 . S
O990 C988 1.263 . S
C991 O992 1.235 . S
C991 O1018 1.289 . S
O992 C991 1.235 . S
C993 C995 1.400 . S
C993 N996 1.351 . S
C993 C998 1.501 . S
C994 C995 1.387 . S
C994 N997 1.341 . S
C995 C993 1.400 . S
C995 C994 1.387 . S
N996 Co987 2.022 . S
N996 C993 1.351 . S
N996 N997 1.365 . S
N997 C994 1.341 . S
N997 N996 1.365 . S
N997 H1017 0.862 . S
C998 C993 1.501 . S
C998 H999 0.961 . S
C998 H1000 0.961 . S
C998 H1001 0.960 . S
H999 C998 0.961 . S
H1000 C998 0.961 . S
H1001 C998 0.960 . S
C1002 N1003 1.342 . S
C1002 C1006 1.401 . S
C1002 C1007 1.499 . S
N1003 Co986 1.989 . S
N1003 C1002 1.342 . S
N1003 N1004 1.388 . S
N1004 Co987 1.993 . S
N1004 N1003 1.388 . S
N1004 C1005 1.346 . S
C1005 N1004 1.346 . S
C1005 C1006 1.396 . S
C1005 C1015 1.510 . S
C1006 C1002 1.401 . S
C1006 C1005 1.396 . S
C1007 C1002 1.499 . S
C1007 H1008 0.959 . S
C1007 H1009 0.960 . S
C1007 H1010 0.961 . S
H1008 C1007 0.959 . S
H1009 C1007 0.960 . S
H1010 C1007 0.961 . S
O1011 Co986 1.967 . S
O1011 C1019 1.258 . S
O1012 Co987 1.941 . S
O1012 C1019 1.266 . S
H1013 C1015 0.959 . S
H1014 C1015 0.961 . S
C1015 C1005 1.510 . S
C1015 H1013 0.959 . S
C1015 H1014 0.961 . S
C1015 H1016 0.960 . S
H1016 C1015 0.960 . S
H1017 N997 0.862 . S
O1018 Co986 1.920 . S
O1018 C991 1.289 . S
C1019 O1011 1.258 . S
C1019 O1012 1.266 . S
Co1020 O1023 1.970 . S
Co1020 N1037 1.989 . S
Co1020 O1045 1.967 . S
Co1020 O1052 1.920 . S
Co1021 O1024 1.966 . S
Co1021 N1030 2.022 . S
Co1021 N1038 1.993 . S
Co1021 O1046 1.941 . S
C1022 O1023 1.258 . S
C1022 O1024 1.263 . S
O1023 Co1020 1.970 . S
O1023 C1022 1.258 . S
O1024 Co1021 1.966 . S
O1024 C1022 1.263 . S
C1025 O1026 1.235 . S
C1025 O1052 1.289 . S
O1026 C1025 1.235 . S
C1027 C1029 1.400 . S
C1027 N1030 1.351 . S
C1027 C1032 1.501 . S
C1028 C1029 1.387 . S
C1028 N1031 1.341 . S
C1029 C1027 1.400 . S
C1029 C1028 1.387 . S
N1030 Co1021 2.022 . S
N1030 C1027 1.351 . S
N1030 N1031 1.365 . S
N1031 C1028 1.341 . S
N1031 N1030 1.365 . S
N1031 H1051 0.862 . S
C1032 C1027 1.501 . S
C1032 H1033 0.961 . S
C1032 H1034 0.961 . S
C1032 H1035 0.960 . S
H1033 C1032 0.961 . S
H1034 C1032 0.961 . S
H1035 C1032 0.960 . S
C1036 N1037 1.342 . S
C1036 C1040 1.401 . S
C1036 C1041 1.499 . S
N1037 Co1020 1.989 . S
N1037 C1036 1.342 . S
N1037 N1038 1.388 . S
N1038 Co1021 1.993 . S
N1038 N1037 1.388 . S
N1038 C1039 1.346 . S
C1039 N1038 1.346 . S
C1039 C1040 1.396 . S
C1039 C1049 1.510 . S
C1040 C1036 1.401 . S
C1040 C1039 1.396 . S
C1041 C1036 1.499 . S
C1041 H1042 0.959 . S
C1041 H1043 0.960 . S
C1041 H1044 0.961 . S
H1042 C1041 0.959 . S
H1043 C1041 0.960 . S
H1044 C1041 0.961 . S
O1045 Co1020 1.967 . S
O1045 C1053 1.258 . S
O1046 Co1021 1.941 . S
O1046 C1053 1.266 . S
H1047 C1049 0.959 . S
H1048 C1049 0.961 . S
C1049 C1039 1.510 . S
C1049 H1047 0.959 . S
C1049 H1048 0.961 . S
C1049 H1050 0.960 . S
H1050 C1049 0.960 . S
H1051 N1031 0.862 . S
O1052 Co1020 1.920 . S
O1052 C1025 1.289 . S
C1053 O1045 1.258 . S
C1053 O1046 1.266 . S
Co1054 O1057 1.970 . S
Co1054 N1071 1.989 . S
Co1054 O1079 1.967 . S
Co1054 O1086 1.920 . S
Co1055 O1058 1.966 . S
Co1055 N1064 2.022 . S
Co1055 N1072 1.993 . S
Co1055 O1080 1.941 . S
C1056 O1057 1.258 . S
C1056 O1058 1.263 . S
O1057 Co1054 1.970 . S
O1057 C1056 1.258 . S
O1058 Co1055 1.966 . S
O1058 C1056 1.263 . S
C1059 O1060 1.235 . S
C1059 O1086 1.289 . S
O1060 C1059 1.235 . S
C1061 C1063 1.400 . S
C1061 N1064 1.351 . S
C1061 C1066 1.501 . S
C1062 C1063 1.387 . S
C1062 N1065 1.341 . S
C1063 C1061 1.400 . S
C1063 C1062 1.387 . S
N1064 Co1055 2.022 . S
N1064 C1061 1.351 . S
N1064 N1065 1.365 . S
N1065 C1062 1.341 . S
N1065 N1064 1.365 . S
N1065 H1085 0.862 . S
C1066 C1061 1.501 . S
C1066 H1067 0.961 . S
C1066 H1068 0.961 . S
C1066 H1069 0.960 . S
H1067 C1066 0.961 . S
H1068 C1066 0.961 . S
H1069 C1066 0.960 . S
C1070 N1071 1.342 . S
C1070 C1074 1.401 . S
C1070 C1075 1.499 . S
N1071 Co1054 1.989 . S
N1071 C1070 1.342 . S
N1071 N1072 1.388 . S
N1072 Co1055 1.993 . S
N1072 N1071 1.388 . S
N1072 C1073 1.346 . S
C1073 N1072 1.346 . S
C1073 C1074 1.396 . S
C1073 C1083 1.510 . S
C1074 C1070 1.401 . S
C1074 C1073 1.396 . S
C1075 C1070 1.499 . S
C1075 H1076 0.959 . S
C1075 H1077 0.960 . S
C1075 H1078 0.961 . S
H1076 C1075 0.959 . S
H1077 C1075 0.960 . S
H1078 C1075 0.961 . S
O1079 Co1054 1.967 . S
O1079 C1087 1.258 . S
O1080 Co1055 1.941 . S
O1080 C1087 1.266 . S
H1081 C1083 0.959 . S
H1082 C1083 0.961 . S
C1083 C1073 1.510 . S
C1083 H1081 0.959 . S
C1083 H1082 0.961 . S
C1083 H1084 0.960 . S
H1084 C1083 0.960 . S
H1085 N1065 0.862 . S
O1086 Co1054 1.920 . S
O1086 C1059 1.289 . S
C1087 O1079 1.258 . S
C1087 O1080 1.266 . S
H1088 C1096 0.950 . S
H1089 C1101 0.950 . S
H1090 C1098 0.950 . S
H1091 C1100 0.950 . S
H1092 C1102 0.950 . S
H1093 C1104 0.950 . S
H1094 C1106 0.950 . S
H1095 C1107 0.950 . S
C1096 H1088 0.950 . S
C1096 C1097 1.386 . S
C1096 C1098 1.391 . S
C1097 C1096 1.386 . S
C1097 C1101 1.393 . S
C1098 H1090 0.950 . S
C1098 C1096 1.391 . S
C1098 C1099 1.400 . S
C1099 C1098 1.400 . S
C1099 C1100 1.398 . S
C1099 C1105 1.491 . S
C1100 H1091 0.950 . S
C1100 C1099 1.398 . S
C1100 C1101 1.391 . S
C1101 H1089 0.950 . S
C1101 C1097 1.393 . S
C1101 C1100 1.391 . S
C1102 H1092 0.950 . S
C1102 C1103 1.386 . S
C1102 C1104 1.391 . S
C1103 C1102 1.386 . S
C1103 C1107 1.393 . S
C1104 H1093 0.950 . S
C1104 C1102 1.391 . S
C1104 C1105 1.400 . S
C1105 C1099 1.491 . S
C1105 C1104 1.400 . S
C1105 C1106 1.398 . S
C1106 H1094 0.950 . S
C1106 C1105 1.398 . S
C1106 C1107 1.391 . S
C1107 H1095 0.950 . S
C1107 C1103 1.393 . S
C1107 C1106 1.391 . S
H1108 C1116 0.950 . S
H1109 C1121 0.950 1_655 S
H1110 C1118 0.950 . S
H1111 C1120 0.950 . S
H1112 C1122 0.950 . S
H1113 C1124 0.950 . S
H1114 C1126 0.950 . S
H1115 C1127 0.950 1_455 S
C1116 H1108 0.950 . S
C1116 C1117 1.386 . S
C1116 C1118 1.391 . S
C1117 C1116 1.386 . S
C1117 C1121 1.393 . S
C1118 H1110 0.950 . S
C1118 C1116 1.391 . S
C1118 C1119 1.400 . S
C1119 C1118 1.400 . S
C1119 C1120 1.398 1_455 S
C1119 C1125 1.491 1_455 S
C1120 H1111 0.950 . S
C1120 C1119 1.398 1_655 S
C1120 C1121 1.391 1_655 S
C1121 H1109 0.950 1_455 S
C1121 C1117 1.393 . S
C1121 C1120 1.391 1_455 S
C1122 H1112 0.950 . S
C1122 C1123 1.386 . S
C1122 C1124 1.391 . S
C1123 C1122 1.386 . S
C1123 C1127 1.393 . S
C1124 H1113 0.950 . S
C1124 C1122 1.391 . S
C1124 C1125 1.400 . S
C1125 C1119 1.491 1_655 S
C1125 C1124 1.400 . S
C1125 C1126 1.398 1_655 S
C1126 H1114 0.950 . S
C1126 C1125 1.398 1_455 S
C1126 C1127 1.391 1_455 S
C1127 H1115 0.950 1_655 S
C1127 C1123 1.393 . S
C1127 C1126 1.391 1_655 S
H1128 C1136 0.950 . S
H1129 C1141 0.950 . S
H1130 C1138 0.950 . S
H1131 C1140 0.984 . S
H1132 C1142 0.950 . S
H1133 C1144 0.950 . S
H1134 C1146 0.984 . S
H1135 C1147 0.950 . S
C1136 H1128 0.950 . S
C1136 C1137 1.386 . S
C1136 C1138 1.391 . S
C1137 C1136 1.386 . S
C1137 C1141 1.393 . S
C1138 H1130 0.950 . S
C1138 C1136 1.391 . S
C1138 C1139 1.400 . S
C1139 C1138 1.400 . S
C1139 C1140 1.398 . S
C1139 C1145 1.491 1_455 S
C1140 H1131 0.984 . S
C1140 C1139 1.398 . S
C1140 C1141 1.391 . S
C1141 H1129 0.950 . S
C1141 C1137 1.393 . S
C1141 C1140 1.391 . S
C1142 H1132 0.950 . S
C1142 C1143 1.386 . S
C1142 C1144 1.391 . S
C1143 C1142 1.386 . S
C1143 C1147 1.393 . S
C1144 H1133 0.950 . S
C1144 C1142 1.391 . S
C1144 C1145 1.400 . S
C1145 C1139 1.491 1_655 S
C1145 C1144 1.400 . S
C1145 C1146 1.398 . S
C1146 H1134 0.984 . S
C1146 C1145 1.398 . S
C1146 C1147 1.391 . S
C1147 H1135 0.950 . S
C1147 C1143 1.393 . S
C1147 C1146 1.391 . S
H1148 C1156 0.950 . S
H1149 C1161 0.950 . S
H1150 C1158 0.950 . S
H1151 C1160 0.950 . S
H1152 C1162 0.950 . S
H1153 C1164 0.950 . S
H1154 C1166 0.950 . S
H1155 C1167 0.950 . S
C1156 H1148 0.950 . S
C1156 C1157 1.386 . S
C1156 C1158 1.391 . S
C1157 C1156 1.386 . S
C1157 C1161 1.393 . S
C1158 H1150 0.950 . S
C1158 C1156 1.391 . S
C1158 C1159 1.400 . S
C1159 C1158 1.400 . S
C1159 C1160 1.398 . S
C1159 C1165 1.491 . S
C1160 H1151 0.950 . S
C1160 C1159 1.398 . S
C1160 C1161 1.391 . S
C1161 H1149 0.950 . S
C1161 C1157 1.393 . S
C1161 C1160 1.391 . S
C1162 H1152 0.950 . S
C1162 C1163 1.386 . S
C1162 C1164 1.391 . S
C1163 C1162 1.386 . S
C1163 C1167 1.393 . S
C1164 H1153 0.950 . S
C1164 C1162 1.391 . S
C1164 C1165 1.400 . S
C1165 C1159 1.491 . S
C1165 C1164 1.400 . S
C1165 C1166 1.398 . S
C1166 H1154 0.950 . S
C1166 C1165 1.398 . S
C1166 C1167 1.391 . S
C1167 H1155 0.950 . S
C1167 C1163 1.393 . S
C1167 C1166 1.391 . S
H1168 C1176 0.950 . S
H1169 C1181 0.950 . S
H1170 C1178 0.950 . S
H1171 C1180 0.950 . S
H1172 C1182 0.950 . S
H1173 C1184 0.950 . S
H1174 C1186 0.950 . S
H1175 C1187 0.950 . S
C1176 H1168 0.950 . S
C1176 C1177 1.386 . S
C1176 C1178 1.391 . S
C1177 C1176 1.386 . S
C1177 C1181 1.393 . S
C1178 H1170 0.950 . S
C1178 C1176 1.391 . S
C1178 C1179 1.400 . S
C1179 C1178 1.400 . S
C1179 C1180 1.398 . S
C1179 C1185 1.491 . S
C1180 H1171 0.950 . S
C1180 C1179 1.398 . S
C1180 C1181 1.391 . S
C1181 H1169 0.950 . S
C1181 C1177 1.393 . S
C1181 C1180 1.391 . S
C1182 H1172 0.950 . S
C1182 C1183 1.386 . S
C1182 C1184 1.391 . S
C1183 C1182 1.386 . S
C1183 C1187 1.393 . S
C1184 H1173 0.950 . S
C1184 C1182 1.391 . S
C1184 C1185 1.400 . S
C1185 C1179 1.491 . S
C1185 C1184 1.400 . S
C1185 C1186 1.398 . S
C1186 H1174 0.950 . S
C1186 C1185 1.398 . S
C1186 C1187 1.391 . S
C1187 H1175 0.950 . S
C1187 C1183 1.393 . S
C1187 C1186 1.391 . S
H1188 C1196 0.950 . S
H1189 C1201 0.950 . S
H1190 C1198 0.950 . S
H1191 C1200 0.950 . S
H1192 C1202 0.950 . S
H1193 C1204 0.950 . S
H1194 C1206 0.950 . S
H1195 C1207 0.950 . S
C1196 H1188 0.950 . S
C1196 C1197 1.386 . S
C1196 C1198 1.391 . S
C1197 C1196 1.386 . S
C1197 C1201 1.393 . S
C1198 H1190 0.950 . S
C1198 C1196 1.391 . S
C1198 C1199 1.400 . S
C1199 C1198 1.400 . S
C1199 C1200 1.398 . S
C1199 C1205 1.491 . S
C1200 H1191 0.950 . S
C1200 C1199 1.398 . S
C1200 C1201 1.391 . S
C1201 H1189 0.950 . S
C1201 C1197 1.393 . S
C1201 C1200 1.391 . S
C1202 H1192 0.950 . S
C1202 C1203 1.386 . S
C1202 C1204 1.391 . S
C1203 C1202 1.386 . S
C1203 C1207 1.393 . S
C1204 H1193 0.950 . S
C1204 C1202 1.391 . S
C1204 C1205 1.400 . S
C1205 C1199 1.491 . S
C1205 C1204 1.400 . S
C1205 C1206 1.398 . S
C1206 H1194 0.950 . S
C1206 C1205 1.398 . S
C1206 C1207 1.391 . S
C1207 H1195 0.950 . S
C1207 C1203 1.393 . S
C1207 C1206 1.391 . S
H1208 C1216 0.950 . S
H1209 C1221 0.950 . S
H1210 C1218 0.950 . S
H1211 C1220 0.950 . S
H1212 C1222 0.950 . S
H1213 C1224 0.950 . S
H1214 C1226 0.950 . S
H1215 C1227 0.950 . S
C1216 H1208 0.950 . S
C1216 C1217 1.386 . S
C1216 C1218 1.391 . S
C1217 C1216 1.386 . S
C1217 C1221 1.393 . S
C1218 H1210 0.950 . S
C1218 C1216 1.391 . S
C1218 C1219 1.400 . S
C1219 C1218 1.400 . S
C1219 C1220 1.398 . S
C1219 C1225 1.491 1_455 S
C1220 H1211 0.950 . S
C1220 C1219 1.398 . S
C1220 C1221 1.391 . S
C1221 H1209 0.950 . S
C1221 C1217 1.393 . S
C1221 C1220 1.391 . S
C1222 H1212 0.950 . S
C1222 C1223 1.386 . S
C1222 C1224 1.391 . S
C1223 C1222 1.386 . S
C1223 C1227 1.393 . S
C1224 H1213 0.950 . S
C1224 C1222 1.391 . S
C1224 C1225 1.400 . S
C1225 C1219 1.491 1_655 S
C1225 C1224 1.400 . S
C1225 C1226 1.398 . S
C1226 H1214 0.950 . S
C1226 C1225 1.398 . S
C1226 C1227 1.391 . S
C1227 H1215 0.950 . S
C1227 C1223 1.393 . S
C1227 C1226 1.391 . S
H1228 C1236 0.950 . S
H1229 C1241 0.950 . S
H1230 C1238 0.950 . S
H1231 C1240 0.950 . S
H1232 C1242 0.950 . S
H1233 C1244 0.950 . S
H1234 C1246 0.950 . S
H1235 C1247 0.950 . S
C1236 H1228 0.950 . S
C1236 C1237 1.386 . S
C1236 C1238 1.391 . S
C1237 C1236 1.386 . S
C1237 C1241 1.393 . S
C1238 H1230 0.950 . S
C1238 C1236 1.391 . S
C1238 C1239 1.400 . S
C1239 C1238 1.400 . S
C1239 C1240 1.398 . S
C1239 C1245 1.491 1_455 S
C1240 H1231 0.950 . S
C1240 C1239 1.398 . S
C1240 C1241 1.391 . S
C1241 H1229 0.950 . S
C1241 C1237 1.393 . S
C1241 C1240 1.391 . S
C1242 H1232 0.950 . S
C1242 C1243 1.386 . S
C1242 C1244 1.391 . S
C1243 C1242 1.386 . S
C1243 C1247 1.393 . S
C1244 H1233 0.950 . S
C1244 C1242 1.391 . S
C1244 C1245 1.400 . S
C1245 C1239 1.491 1_655 S
C1245 C1244 1.400 . S
C1245 C1246 1.398 . S
C1246 H1234 0.950 . S
C1246 C1245 1.398 . S
C1246 C1247 1.391 . S
C1247 H1235 0.950 . S
C1247 C1243 1.393 . S
C1247 C1246 1.391 . S
H1248 C1256 0.950 . S
H1249 C1261 0.950 . S
H1250 C1258 0.950 . S
H1251 C1260 0.950 . S
H1252 C1262 0.950 . S
H1253 C1264 0.950 . S
H1254 C1266 0.950 . S
H1255 C1267 0.950 . S
C1256 H1248 0.950 . S
C1256 C1257 1.386 . S
C1256 C1258 1.391 . S
C1257 C1256 1.386 . S
C1257 C1261 1.393 . S
C1258 H1250 0.950 . S
C1258 C1256 1.391 . S
C1258 C1259 1.400 . S
C1259 C1258 1.400 . S
C1259 C1260 1.398 . S
C1259 C1265 1.491 . S
C1260 H1251 0.950 . S
C1260 C1259 1.398 . S
C1260 C1261 1.391 . S
C1261 H1249 0.950 . S
C1261 C1257 1.393 . S
C1261 C1260 1.391 . S
C1262 H1252 0.950 . S
C1262 C1263 1.386 . S
C1262 C1264 1.391 . S
C1263 C1262 1.386 . S
C1263 C1267 1.393 . S
C1264 H1253 0.950 . S
C1264 C1262 1.391 . S
C1264 C1265 1.400 . S
C1265 C1259 1.491 . S
C1265 C1264 1.400 . S
C1265 C1266 1.398 . S
C1266 H1254 0.950 . S
C1266 C1265 1.398 . S
C1266 C1267 1.391 . S
C1267 H1255 0.950 . S
C1267 C1263 1.393 . S
C1267 C1266 1.391 . S
H1268 C1276 0.950 . S
H1269 C1281 0.950 . S
H1270 C1278 0.950 . S
H1271 C1280 0.950 . S
H1272 C1282 0.950 . S
H1273 C1284 0.950 . S
H1274 C1286 0.950 . S
H1275 C1287 0.950 . S
C1276 H1268 0.950 . S
C1276 C1277 1.386 . S
C1276 C1278 1.391 . S
C1277 C1276 1.386 . S
C1277 C1281 1.393 . S
C1278 H1270 0.950 . S
C1278 C1276 1.391 . S
C1278 C1279 1.400 . S
C1279 C1278 1.400 . S
C1279 C1280 1.398 . S
C1279 C1285 1.491 1_455 S
C1280 H1271 0.950 . S
C1280 C1279 1.398 . S
C1280 C1281 1.391 . S
C1281 H1269 0.950 . S
C1281 C1277 1.393 . S
C1281 C1280 1.391 . S
C1282 H1272 0.950 . S
C1282 C1283 1.386 . S
C1282 C1284 1.391 . S
C1283 C1282 1.386 . S
C1283 C1287 1.393 . S
C1284 H1273 0.950 . S
C1284 C1282 1.391 . S
C1284 C1285 1.400 . S
C1285 C1279 1.491 1_655 S
C1285 C1284 1.400 . S
C1285 C1286 1.398 . S
C1286 H1274 0.950 . S
C1286 C1285 1.398 . S
C1286 C1287 1.391 . S
C1287 H1275 0.950 . S
C1287 C1283 1.393 . S
C1287 C1286 1.391 . S
H1288 C1296 0.950 . S
H1289 C1301 0.950 . S
H1290 C1298 0.950 . S
H1291 C1300 0.950 . S
H1292 C1302 0.950 . S
H1293 C1304 0.950 . S
H1294 C1306 0.950 . S
H1295 C1307 0.950 . S
C1296 H1288 0.950 . S
C1296 C1297 1.386 . S
C1296 C1298 1.391 . S
C1297 C1296 1.386 . S
C1297 C1301 1.393 . S
C1298 H1290 0.950 . S
C1298 C1296 1.391 . S
C1298 C1299 1.400 . S
C1299 C1298 1.400 . S
C1299 C1300 1.398 . S
C1299 C1305 1.491 1_655 S
C1300 H1291 0.950 . S
C1300 C1299 1.398 . S
C1300 C1301 1.391 . S
C1301 H1289 0.950 . S
C1301 C1297 1.393 . S
C1301 C1300 1.391 . S
C1302 H1292 0.950 . S
C1302 C1303 1.386 . S
C1302 C1304 1.391 . S
C1303 C1302 1.386 . S
C1303 C1307 1.393 . S
C1304 H1293 0.950 . S
C1304 C1302 1.391 . S
C1304 C1305 1.400 . S
C1305 C1299 1.491 1_455 S
C1305 C1304 1.400 . S
C1305 C1306 1.398 . S
C1306 H1294 0.950 . S
C1306 C1305 1.398 . S
C1306 C1307 1.391 . S
C1307 H1295 0.950 . S
C1307 C1303 1.393 . S
C1307 C1306 1.391 . S
H1308 C1316 0.950 . S
H1309 C1321 0.950 . S
H1310 C1318 0.950 . S
H1311 C1320 0.950 . S
H1312 C1322 0.950 . S
H1313 C1324 0.950 . S
H1314 C1326 0.950 . S
H1315 C1327 0.950 . S
C1316 H1308 0.950 . S
C1316 C1317 1.386 . S
C1316 C1318 1.391 . S
C1317 C1316 1.386 . S
C1317 C1321 1.393 . S
C1318 H1310 0.950 . S
C1318 C1316 1.391 . S
C1318 C1319 1.400 . S
C1319 C1318 1.400 . S
C1319 C1320 1.398 . S
C1319 C1325 1.491 . S
C1320 H1311 0.950 . S
C1320 C1319 1.398 . S
C1320 C1321 1.391 . S
C1321 H1309 0.950 . S
C1321 C1317 1.393 . S
C1321 C1320 1.391 . S
C1322 H1312 0.950 . S
C1322 C1323 1.386 . S
C1322 C1324 1.391 . S
C1323 C1322 1.386 . S
C1323 C1327 1.393 . S
C1324 H1313 0.950 . S
C1324 C1322 1.391 . S
C1324 C1325 1.400 . S
C1325 C1319 1.491 . S
C1325 C1324 1.400 . S
C1325 C1326 1.398 . S
C1326 H1314 0.950 . S
C1326 C1325 1.398 . S
C1326 C1327 1.391 . S
C1327 H1315 0.950 . S
C1327 C1323 1.393 . S
C1327 C1326 1.391 . S
H1328 C1336 0.950 . S
H1329 C1341 0.950 . S
H1330 C1338 0.950 . S
H1331 C1340 0.950 . S
H1332 C1342 0.950 . S
H1333 C1344 0.950 . S
H1334 C1346 0.950 . S
H1335 C1347 0.950 . S
C1336 H1328 0.950 . S
C1336 C1337 1.386 . S
C1336 C1338 1.391 . S
C1337 C1336 1.386 . S
C1337 C1341 1.393 . S
C1338 H1330 0.950 . S
C1338 C1336 1.391 . S
C1338 C1339 1.400 . S
C1339 C1338 1.400 . S
C1339 C1340 1.398 . S
C1339 C1345 1.491 . S
C1340 H1331 0.950 . S
C1340 C1339 1.398 . S
C1340 C1341 1.391 . S
C1341 H1329 0.950 . S
C1341 C1337 1.393 . S
C1341 C1340 1.391 . S
C1342 H1332 0.950 . S
C1342 C1343 1.386 . S
C1342 C1344 1.391 . S
C1343 C1342 1.386 . S
C1343 C1347 1.393 . S
C1344 H1333 0.950 . S
C1344 C1342 1.391 . S
C1344 C1345 1.400 . S
C1345 C1339 1.491 . S
C1345 C1344 1.400 . S
C1345 C1346 1.398 . S
C1346 H1334 0.950 . S
C1346 C1345 1.398 . S
C1346 C1347 1.391 . S
C1347 H1335 0.950 . S
C1347 C1343 1.393 . S
C1347 C1346 1.391 . S
H1348 C1356 0.950 . S
H1349 C1361 0.950 . S
H1350 C1358 0.950 . S
H1351 C1360 0.950 . S
H1352 C1362 0.950 . S
H1353 C1364 0.950 . S
H1354 C1366 0.950 . S
H1355 C1367 0.950 . S
C1356 H1348 0.950 . S
C1356 C1357 1.386 . S
C1356 C1358 1.391 . S
C1357 C1356 1.386 . S
C1357 C1361 1.393 . S
C1358 H1350 0.950 . S
C1358 C1356 1.391 . S
C1358 C1359 1.400 . S
C1359 C1358 1.400 . S
C1359 C1360 1.398 . S
C1359 C1365 1.491 . S
C1360 H1351 0.950 . S
C1360 C1359 1.398 . S
C1360 C1361 1.391 . S
C1361 H1349 0.950 . S
C1361 C1357 1.393 . S
C1361 C1360 1.391 . S
C1362 H1352 0.950 . S
C1362 C1363 1.386 . S
C1362 C1364 1.391 . S
C1363 C1362 1.386 . S
C1363 C1367 1.393 . S
C1364 H1353 0.950 . S
C1364 C1362 1.391 . S
C1364 C1365 1.400 . S
C1365 C1359 1.491 . S
C1365 C1364 1.400 . S
C1365 C1366 1.398 . S
C1366 H1354 0.950 . S
C1366 C1365 1.398 . S
C1366 C1367 1.391 . S
C1367 H1355 0.950 . S
C1367 C1363 1.393 . S
C1367 C1366 1.391 . S
H1368 C1376 0.950 . S
H1369 C1381 0.950 . S
H1370 C1378 0.950 . S
H1371 C1380 0.950 . S
H1372 C1382 0.950 . S
H1373 C1384 0.950 . S
H1374 C1386 0.950 . S
H1375 C1387 0.950 . S
C1376 H1368 0.950 . S
C1376 C1377 1.386 . S
C1376 C1378 1.391 . S
C1377 C1376 1.386 . S
C1377 C1381 1.393 . S
C1378 H1370 0.950 . S
C1378 C1376 1.391 . S
C1378 C1379 1.400 . S
C1379 C1378 1.400 . S
C1379 C1380 1.398 . S
C1379 C1385 1.491 1_455 S
C1380 H1371 0.950 . S
C1380 C1379 1.398 . S
C1380 C1381 1.391 . S
C1381 H1369 0.950 . S
C1381 C1377 1.393 . S
C1381 C1380 1.391 . S
C1382 H1372 0.950 . S
C1382 C1383 1.386 . S
C1382 C1384 1.391 . S
C1383 C1382 1.386 . S
C1383 C1387 1.393 . S
C1384 H1373 0.950 . S
C1384 C1382 1.391 . S
C1384 C1385 1.400 . S
C1385 C1379 1.491 1_655 S
C1385 C1384 1.400 . S
C1385 C1386 1.398 . S
C1386 H1374 0.950 . S
C1386 C1385 1.398 . S
C1386 C1387 1.391 . S
C1387 H1375 0.950 . S
C1387 C1383 1.393 . S
C1387 C1386 1.391 . S
H1388 C1396 0.950 . S
H1389 C1401 0.950 1_655 S
H1390 C1398 0.950 . S
H1391 C1400 0.950 . S
H1392 C1402 0.950 . S
H1393 C1404 0.950 . S
H1394 C1406 0.950 . S
H1395 C1407 0.950 1_455 S
C1396 H1388 0.950 . S
C1396 C1397 1.386 . S
C1396 C1398 1.391 . S
C1397 C1396 1.386 . S
C1397 C1401 1.393 . S
C1398 H1390 0.950 . S
C1398 C1396 1.391 . S
C1398 C1399 1.400 . S
C1399 C1398 1.400 . S
C1399 C1400 1.398 1_455 S
C1399 C1405 1.491 1_455 S
C1400 H1391 0.950 . S
C1400 C1399 1.398 1_655 S
C1400 C1401 1.391 1_655 S
C1401 H1389 0.950 1_455 S
C1401 C1397 1.393 . S
C1401 C1400 1.391 1_455 S
C1402 H1392 0.950 . S
C1402 C1403 1.386 . S
C1402 C1404 1.391 . S
C1403 C1402 1.386 . S
C1403 C1407 1.393 . S
C1404 H1393 0.950 . S
C1404 C1402 1.391 . S
C1404 C1405 1.400 . S
C1405 C1399 1.491 1_655 S
C1405 C1404 1.400 . S
C1405 C1406 1.398 1_655 S
C1406 H1394 0.950 . S
C1406 C1405 1.398 1_455 S
C1406 C1407 1.391 1_455 S
C1407 H1395 0.950 1_655 S
C1407 C1403 1.393 . S
C1407 C1406 1.391 1_655 S
H1408 C1416 0.950 . S
H1409 C1421 0.950 . S
H1410 C1418 0.950 . S
H1411 C1420 0.950 . S
H1412 C1422 0.950 . S
H1413 C1424 0.950 . S
H1414 C1426 0.950 . S
H1415 C1427 0.950 . S
C1416 H1408 0.950 . S
C1416 C1417 1.386 . S
C1416 C1418 1.391 . S
C1417 C1416 1.386 . S
C1417 C1421 1.393 . S
C1418 H1410 0.950 . S
C1418 C1416 1.391 . S
C1418 C1419 1.400 . S
C1419 C1418 1.400 . S
C1419 C1420 1.398 . S
C1419 C1425 1.491 . S
C1420 H1411 0.950 . S
C1420 C1419 1.398 . S
C1420 C1421 1.391 . S
C1421 H1409 0.950 . S
C1421 C1417 1.393 . S
C1421 C1420 1.391 . S
C1422 H1412 0.950 . S
C1422 C1423 1.386 . S
C1422 C1424 1.391 . S
C1423 C1422 1.386 . S
C1423 C1427 1.393 . S
C1424 H1413 0.950 . S
C1424 C1422 1.391 . S
C1424 C1425 1.400 . S
C1425 C1419 1.491 . S
C1425 C1424 1.400 . S
C1425 C1426 1.398 . S
C1426 H1414 0.950 . S
C1426 C1425 1.398 . S
C1426 C1427 1.391 . S
C1427 H1415 0.950 . S
C1427 C1423 1.393 . S
C1427 C1426 1.391 . S
H1428 C1436 0.950 . S
H1429 C1441 0.950 . S
H1430 C1438 0.950 . S
H1431 C1440 0.950 . S
H1432 C1442 0.950 . S
H1433 C1444 0.950 . S
H1434 C1446 0.950 . S
H1435 C1447 0.950 . S
C1436 H1428 0.950 . S
C1436 C1437 1.386 . S
C1436 C1438 1.391 . S
C1437 C1436 1.386 . S
C1437 C1441 1.393 . S
C1438 H1430 0.950 . S
C1438 C1436 1.391 . S
C1438 C1439 1.400 . S
C1439 C1438 1.400 . S
C1439 C1440 1.398 . S
C1439 C1445 1.491 . S
C1440 H1431 0.950 . S
C1440 C1439 1.398 . S
C1440 C1441 1.391 . S
C1441 H1429 0.950 . S
C1441 C1437 1.393 . S
C1441 C1440 1.391 . S
C1442 H1432 0.950 . S
C1442 C1443 1.386 . S
C1442 C1444 1.391 . S
C1443 C1442 1.386 . S
C1443 C1447 1.393 . S
C1444 H1433 0.950 . S
C1444 C1442 1.391 . S
C1444 C1445 1.400 . S
C1445 C1439 1.491 . S
C1445 C1444 1.400 . S
C1445 C1446 1.398 . S
C1446 H1434 0.950 . S
C1446 C1445 1.398 . S
C1446 C1447 1.391 . S
C1447 H1435 0.950 . S
C1447 C1443 1.393 . S
C1447 C1446 1.391 . S
H1448 C1456 0.950 . S
H1449 C1461 0.950 . S
H1450 C1458 0.950 . S
H1451 C1460 0.950 . S
H1452 C1462 0.950 . S
H1453 C1464 0.950 . S
H1454 C1466 0.950 . S
H1455 C1467 0.950 . S
C1456 H1448 0.950 . S
C1456 C1457 1.386 . S
C1456 C1458 1.391 . S
C1457 C1456 1.386 . S
C1457 C1461 1.393 . S
C1458 H1450 0.950 . S
C1458 C1456 1.391 . S
C1458 C1459 1.400 . S
C1459 C1458 1.400 . S
C1459 C1460 1.398 . S
C1459 C1465 1.491 . S
C1460 H1451 0.950 . S
C1460 C1459 1.398 . S
C1460 C1461 1.391 . S
C1461 H1449 0.950 . S
C1461 C1457 1.393 . S
C1461 C1460 1.391 . S
C1462 H1452 0.950 . S
C1462 C1463 1.386 1_455 S
C1462 C1464 1.391 . S
C1463 C1462 1.386 1_655 S
C1463 C1467 1.393 . S
C1464 H1453 0.950 . S
C1464 C1462 1.391 . S
C1464 C1465 1.400 . S
C1465 C1459 1.491 . S
C1465 C1464 1.400 . S
C1465 C1466 1.398 . S
C1466 H1454 0.950 . S
C1466 C1465 1.398 . S
C1466 C1467 1.391 1_455 S
C1467 H1455 0.950 . S
C1467 C1463 1.393 . S
C1467 C1466 1.391 1_655 S
H1468 C1476 0.950 . S
H1469 C1481 0.950 . S
H1470 C1478 0.950 . S
H1471 C1480 0.950 . S
H1472 C1482 0.950 . S
H1473 C1484 0.950 . S
H1474 C1486 0.950 . S
H1475 C1487 0.950 . S
C1476 H1468 0.950 . S
C1476 C1477 1.386 . S
C1476 C1478 1.391 . S
C1477 C1476 1.386 . S
C1477 C1481 1.393 . S
C1478 H1470 0.950 . S
C1478 C1476 1.391 . S
C1478 C1479 1.400 . S
C1479 C1478 1.400 . S
C1479 C1480 1.398 . S
C1479 C1485 1.491 . S
C1480 H1471 0.950 . S
C1480 C1479 1.398 . S
C1480 C1481 1.391 . S
C1481 H1469 0.950 . S
C1481 C1477 1.393 . S
C1481 C1480 1.391 . S
C1482 H1472 0.950 . S
C1482 C1483 1.386 . S
C1482 C1484 1.391 . S
C1483 C1482 1.386 . S
C1483 C1487 1.393 . S
C1484 H1473 0.950 . S
C1484 C1482 1.391 . S
C1484 C1485 1.400 . S
C1485 C1479 1.491 . S
C1485 C1484 1.400 . S
C1485 C1486 1.398 . S
C1486 H1474 0.950 . S
C1486 C1485 1.398 . S
C1486 C1487 1.391 . S
C1487 H1475 0.950 . S
C1487 C1483 1.393 . S
C1487 C1486 1.391 . S
H1488 C1496 0.950 . S
H1489 C1501 0.950 . S
H1490 C1498 0.950 . S
H1491 C1500 0.950 . S
H1492 C1502 0.950 . S
H1493 C1504 0.950 . S
H1494 C1506 0.950 . S
H1495 C1507 0.950 . S
C1496 H1488 0.950 . S
C1496 C1497 1.386 . S
C1496 C1498 1.391 . S
C1497 C1496 1.386 . S
C1497 C1501 1.393 . S
C1498 H1490 0.950 . S
C1498 C1496 1.391 . S
C1498 C1499 1.400 . S
C1499 C1498 1.400 . S
C1499 C1500 1.398 . S
C1499 C1505 1.491 . S
C1500 H1491 0.950 . S
C1500 C1499 1.398 . S
C1500 C1501 1.391 . S
C1501 H1489 0.950 . S
C1501 C1497 1.393 . S
C1501 C1500 1.391 . S
C1502 H1492 0.950 . S
C1502 C1503 1.386 . S
C1502 C1504 1.391 . S
C1503 C1502 1.386 . S
C1503 C1507 1.393 . S
C1504 H1493 0.950 . S
C1504 C1502 1.391 . S
C1504 C1505 1.400 . S
C1505 C1499 1.491 . S
C1505 C1504 1.400 . S
C1505 C1506 1.398 . S
C1506 H1494 0.950 . S
C1506 C1505 1.398 . S
C1506 C1507 1.391 . S
C1507 H1495 0.950 . S
C1507 C1503 1.393 . S
C1507 C1506 1.391 . S
H1508 C1516 0.950 . S
H1509 C1521 0.950 . S
H1510 C1518 0.950 . S
H1511 C1520 0.950 . S
H1512 C1522 0.950 . S
H1513 C1524 0.950 . S
H1514 C1526 0.950 . S
H1515 C1527 0.950 . S
C1516 H1508 0.950 . S
C1516 C1517 1.386 . S
C1516 C1518 1.391 . S
C1517 C1516 1.386 . S
C1517 C1521 1.393 . S
C1518 H1510 0.950 . S
C1518 C1516 1.391 . S
C1518 C1519 1.400 . S
C1519 C1518 1.400 . S
C1519 C1520 1.398 . S
C1519 C1525 1.491 . S
C1520 H1511 0.950 . S
C1520 C1519 1.398 . S
C1520 C1521 1.391 . S
C1521 H1509 0.950 . S
C1521 C1517 1.393 . S
C1521 C1520 1.391 . S
C1522 H1512 0.950 . S
C1522 C1523 1.386 . S
C1522 C1524 1.391 . S
C1523 C1522 1.386 . S
C1523 C1527 1.393 . S
C1524 H1513 0.950 . S
C1524 C1522 1.391 . S
C1524 C1525 1.400 . S
C1525 C1519 1.491 . S
C1525 C1524 1.400 . S
C1525 C1526 1.398 . S
C1526 H1514 0.950 . S
C1526 C1525 1.398 . S
C1526 C1527 1.391 . S
C1527 H1515 0.950 . S
C1527 C1523 1.393 . S
C1527 C1526 1.391 . S
H1528 C1536 0.950 . S
H1529 C1541 0.950 . S
H1530 C1538 0.950 . S
H1531 C1540 0.950 . S
H1532 C1542 0.950 . S
H1533 C1544 0.950 . S
H1534 C1546 0.950 . S
H1535 C1547 0.950 . S
C1536 H1528 0.950 . S
C1536 C1537 1.386 1_455 S
C1536 C1538 1.391 . S
C1537 C1536 1.386 1_655 S
C1537 C1541 1.393 . S
C1538 H1530 0.950 . S
C1538 C1536 1.391 . S
C1538 C1539 1.400 . S
C1539 C1538 1.400 . S
C1539 C1540 1.398 . S
C1539 C1545 1.491 . S
C1540 H1531 0.950 . S
C1540 C1539 1.398 . S
C1540 C1541 1.391 1_455 S
C1541 H1529 0.950 . S
C1541 C1537 1.393 . S
C1541 C1540 1.391 1_655 S
C1542 H1532 0.950 . S
C1542 C1543 1.386 . S
C1542 C1544 1.391 . S
C1543 C1542 1.386 . S
C1543 C1547 1.393 . S
C1544 H1533 0.950 . S
C1544 C1542 1.391 . S
C1544 C1545 1.400 . S
C1545 C1539 1.491 . S
C1545 C1544 1.400 . S
C1545 C1546 1.398 . S
C1546 H1534 0.950 . S
C1546 C1545 1.398 . S
C1546 C1547 1.391 . S
C1547 H1535 0.950 . S
C1547 C1543 1.393 . S
C1547 C1546 1.391 . S
H1548 C1556 0.950 . S
H1549 C1561 0.950 . S
H1550 C1558 0.950 . S
H1551 C1560 0.950 . S
H1552 C1562 0.950 . S
H1553 C1564 0.950 . S
H1554 C1566 0.950 . S
H1555 C1567 0.950 . S
C1556 H1548 0.950 . S
C1556 C1557 1.386 . S
C1556 C1558 1.391 . S
C1557 C1556 1.386 . S
C1557 C1561 1.393 . S
C1558 H1550 0.950 . S
C1558 C1556 1.391 . S
C1558 C1559 1.400 . S
C1559 C1558 1.400 . S
C1559 C1560 1.398 . S
C1559 C1565 1.491 . S
C1560 H1551 0.950 . S
C1560 C1559 1.398 . S
C1560 C1561 1.391 . S
C1561 H1549 0.950 . S
C1561 C1557 1.393 . S
C1561 C1560 1.391 . S
C1562 H1552 0.950 . S
C1562 C1563 1.386 . S
C1562 C1564 1.391 . S
C1563 C1562 1.386 . S
C1563 C1567 1.393 . S
C1564 H1553 0.950 . S
C1564 C1562 1.391 . S
C1564 C1565 1.400 . S
C1565 C1559 1.491 . S
C1565 C1564 1.400 . S
C1565 C1566 1.398 . S
C1566 H1554 0.950 . S
C1566 C1565 1.398 . S
C1566 C1567 1.391 . S
C1567 H1555 0.950 . S
C1567 C1563 1.393 . S
C1567 C1566 1.391 . S
H1568 C1576 0.950 . S
H1569 C1581 0.950 . S
H1570 C1578 0.950 . S
H1571 C1580 0.950 . S
H1572 C1582 0.950 . S
H1573 C1584 0.950 . S
H1574 C1586 0.950 . S
H1575 C1587 0.950 . S
C1576 H1568 0.950 . S
C1576 C1577 1.386 . S
C1576 C1578 1.391 . S
C1577 C1576 1.386 . S
C1577 C1581 1.393 . S
C1578 H1570 0.950 . S
C1578 C1576 1.391 . S
C1578 C1579 1.400 . S
C1579 C1578 1.400 . S
C1579 C1580 1.398 . S
C1579 C1585 1.491 . S
C1580 H1571 0.950 . S
C1580 C1579 1.398 . S
C1580 C1581 1.391 . S
C1581 H1569 0.950 . S
C1581 C1577 1.393 . S
C1581 C1580 1.391 . S
C1582 H1572 0.950 . S
C1582 C1583 1.386 . S
C1582 C1584 1.391 . S
C1583 C1582 1.386 . S
C1583 C1587 1.393 . S
C1584 H1573 0.950 . S
C1584 C1582 1.391 . S
C1584 C1585 1.400 . S
C1585 C1579 1.491 . S
C1585 C1584 1.400 . S
C1585 C1586 1.398 . S
C1586 H1574 0.950 . S
C1586 C1585 1.398 . S
C1586 C1587 1.391 . S
C1587 H1575 0.950 . S
C1587 C1583 1.393 . S
C1587 C1586 1.391 . S
H1588 C1596 0.950 . S
H1589 C1601 0.950 . S
H1590 C1598 0.950 . S
H1591 C1600 0.950 . S
H1592 C1602 0.950 . S
H1593 C1604 0.950 . S
H1594 C1606 0.950 . S
H1595 C1607 0.950 . S
C1596 H1588 0.950 . S
C1596 C1597 1.386 . S
C1596 C1598 1.391 . S
C1597 C1596 1.386 . S
C1597 C1601 1.393 . S
C1598 H1590 0.950 . S
C1598 C1596 1.391 . S
C1598 C1599 1.400 . S
C1599 C1598 1.400 . S
C1599 C1600 1.398 . S
C1599 C1605 1.491 . S
C1600 H1591 0.950 . S
C1600 C1599 1.398 . S
C1600 C1601 1.391 . S
C1601 H1589 0.950 . S
C1601 C1597 1.393 . S
C1601 C1600 1.391 . S
C1602 H1592 0.950 . S
C1602 C1603 1.386 . S
C1602 C1604 1.391 . S
C1603 C1602 1.386 . S
C1603 C1607 1.393 . S
C1604 H1593 0.950 . S
C1604 C1602 1.391 . S
C1604 C1605 1.400 . S
C1605 C1599 1.491 . S
C1605 C1604 1.400 . S
C1605 C1606 1.398 . S
C1606 H1594 0.950 . S
C1606 C1605 1.398 . S
C1606 C1607 1.391 . S
C1607 H1595 0.950 . S
C1607 C1603 1.393 . S
C1607 C1606 1.391 . S
H1608 C1616 0.950 . S
H1609 C1621 0.950 . S
H1610 C1618 0.950 . S
H1611 C1620 0.950 . S
H1612 C1622 0.950 . S
H1613 C1624 0.950 . S
H1614 C1626 0.950 1_455 S
H1615 C1627 0.950 . S
C1616 H1608 0.950 . S
C1616 C1617 1.386 . S
C1616 C1618 1.391 . S
C1617 C1616 1.386 . S
C1617 C1621 1.393 . S
C1618 H1610 0.950 . S
C1618 C1616 1.391 . S
C1618 C1619 1.400 . S
C1619 C1618 1.400 . S
C1619 C1620 1.398 . S
C1619 C1625 1.491 . S
C1620 H1611 0.950 . S
C1620 C1619 1.398 . S
C1620 C1621 1.391 . S
C1621 H1609 0.950 . S
C1621 C1617 1.393 . S
C1621 C1620 1.391 . S
C1622 H1612 0.950 . S
C1622 C1623 1.386 1_655 S
C1622 C1624 1.391 . S
C1623 C1622 1.386 1_455 S
C1623 C1627 1.393 . S
C1624 H1613 0.950 . S
C1624 C1622 1.391 . S
C1624 C1625 1.400 . S
C1625 C1619 1.491 . S
C1625 C1624 1.400 . S
C1625 C1626 1.398 . S
C1626 H1614 0.950 1_655 S
C1626 C1625 1.398 . S
C1626 C1627 1.391 1_655 S
C1627 H1615 0.950 . S
C1627 C1623 1.393 . S
C1627 C1626 1.391 1_455 S
H1628 C1636 0.950 . S
H1629 C1641 0.950 . S
H1630 C1638 0.950 . S
H1631 C1640 0.950 . S
H1632 C1642 0.950 . S
H1633 C1644 0.950 . S
H1634 C1646 0.950 . S
H1635 C1647 0.950 . S
C1636 H1628 0.950 . S
C1636 C1637 1.386 . S
C1636 C1638 1.391 . S
C1637 C1636 1.386 . S
C1637 C1641 1.393 . S
C1638 H1630 0.950 . S
C1638 C1636 1.391 . S
C1638 C1639 1.400 . S
C1639 C1638 1.400 . S
C1639 C1640 1.398 . S
C1639 C1645 1.491 . S
C1640 H1631 0.950 . S
C1640 C1639 1.398 . S
C1640 C1641 1.391 . S
C1641 H1629 0.950 . S
C1641 C1637 1.393 . S
C1641 C1640 1.391 . S
C1642 H1632 0.950 . S
C1642 C1643 1.386 . S
C1642 C1644 1.391 . S
C1643 C1642 1.386 . S
C1643 C1647 1.393 . S
C1644 H1633 0.950 . S
C1644 C1642 1.391 . S
C1644 C1645 1.400 . S
C1645 C1639 1.491 . S
C1645 C1644 1.400 . S
C1645 C1646 1.398 . S
C1646 H1634 0.950 . S
C1646 C1645 1.398 . S
C1646 C1647 1.391 . S
C1647 H1635 0.950 . S
C1647 C1643 1.393 . S
C1647 C1646 1.391 . S
H1648 C1656 0.950 . S
H1649 C1661 0.950 . S
H1650 C1658 0.950 . S
H1651 C1660 0.950 . S
H1652 C1662 0.950 . S
H1653 C1664 0.950 . S
H1654 C1666 0.950 . S
H1655 C1667 0.950 . S
C1656 H1648 0.950 . S
C1656 C1657 1.386 . S
C1656 C1658 1.391 . S
C1657 C1656 1.386 . S
C1657 C1661 1.393 . S
C1658 H1650 0.950 . S
C1658 C1656 1.391 . S
C1658 C1659 1.400 . S
C1659 C1658 1.400 . S
C1659 C1660 1.398 . S
C1659 C1665 1.491 . S
C1660 H1651 0.950 . S
C1660 C1659 1.398 . S
C1660 C1661 1.391 . S
C1661 H1649 0.950 . S
C1661 C1657 1.393 . S
C1661 C1660 1.391 . S
C1662 H1652 0.950 . S
C1662 C1663 1.386 . S
C1662 C1664 1.391 . S
C1663 C1662 1.386 . S
C1663 C1667 1.393 . S
C1664 H1653 0.950 . S
C1664 C1662 1.391 . S
C1664 C1665 1.400 . S
C1665 C1659 1.491 . S
C1665 C1664 1.400 . S
C1665 C1666 1.398 . S
C1666 H1654 0.950 . S
C1666 C1665 1.398 . S
C1666 C1667 1.391 . S
C1667 H1655 0.950 . S
C1667 C1663 1.393 . S
C1667 C1666 1.391 . S
H1668 C1676 0.950 . S
H1669 C1681 0.950 . S
H1670 C1678 0.950 . S
H1671 C1680 0.950 . S
H1672 C1682 0.950 . S
H1673 C1684 0.950 . S
H1674 C1686 0.950 . S
H1675 C1687 0.950 . S
C1676 H1668 0.950 . S
C1676 C1677 1.386 . S
C1676 C1678 1.391 . S
C1677 C1676 1.386 . S
C1677 C1681 1.393 . S
C1678 H1670 0.950 . S
C1678 C1676 1.391 . S
C1678 C1679 1.400 . S
C1679 C1678 1.400 . S
C1679 C1680 1.398 . S
C1679 C1685 1.491 . S
C1680 H1671 0.950 . S
C1680 C1679 1.398 . S
C1680 C1681 1.391 . S
C1681 H1669 0.950 . S
C1681 C1677 1.393 . S
C1681 C1680 1.391 . S
C1682 H1672 0.950 . S
C1682 C1683 1.386 . S
C1682 C1684 1.391 . S
C1683 C1682 1.386 . S
C1683 C1687 1.393 . S
C1684 H1673 0.950 . S
C1684 C1682 1.391 . S
C1684 C1685 1.400 . S
C1685 C1679 1.491 . S
C1685 C1684 1.400 . S
C1685 C1686 1.398 . S
C1686 H1674 0.950 . S
C1686 C1685 1.398 . S
C1686 C1687 1.391 . S
C1687 H1675 0.950 . S
C1687 C1683 1.393 . S
C1687 C1686 1.391 . S
H1688 C1696 0.950 . S
H1689 C1701 0.950 . S
H1690 C1698 0.950 . S
H1691 C1700 0.950 . S
H1692 C1702 0.950 . S
H1693 C1704 0.950 . S
H1694 C1706 0.944 1_455 S
H1695 C1707 0.950 . S
C1696 H1688 0.950 . S
C1696 C1697 1.386 . S
C1696 C1698 1.391 . S
C1697 C1696 1.386 . S
C1697 C1701 1.393 . S
C1698 H1690 0.950 . S
C1698 C1696 1.391 . S
C1698 C1699 1.400 . S
C1699 C1698 1.400 . S
C1699 C1700 1.398 . S
C1699 C1705 1.491 . S
C1700 H1691 0.950 . S
C1700 C1699 1.398 . S
C1700 C1701 1.391 . S
C1701 H1689 0.950 . S
C1701 C1697 1.393 . S
C1701 C1700 1.391 . S
C1702 H1692 0.950 . S
C1702 C1703 1.386 1_655 S
C1702 C1704 1.391 . S
C1703 C1702 1.386 1_455 S
C1703 C1707 1.393 . S
C1704 H1693 0.950 . S
C1704 C1702 1.391 . S
C1704 C1705 1.400 . S
C1705 C1699 1.491 . S
C1705 C1704 1.400 . S
C1705 C1706 1.398 . S
C1706 H1694 0.944 1_655 S
C1706 C1705 1.398 . S
C1706 C1707 1.391 1_655 S
C1707 H1695 0.950 . S
C1707 C1703 1.393 . S
C1707 C1706 1.391 1_455 S
H1708 C1716 0.950 . S
H1709 C1721 0.950 . S
H1710 C1718 0.950 . S
H1711 C1720 0.950 . S
H1712 C1722 0.950 . S
H1713 C1724 0.950 . S
H1714 C1726 0.950 . S
H1715 C1727 0.950 . S
C1716 H1708 0.950 . S
C1716 C1717 1.386 . S
C1716 C1718 1.391 . S
C1717 C1716 1.386 . S
C1717 C1721 1.393 . S
C1718 H1710 0.950 . S
C1718 C1716 1.391 . S
C1718 C1719 1.400 . S
C1719 C1718 1.400 . S
C1719 C1720 1.398 . S
C1719 C1725 1.491 . S
C1720 H1711 0.950 . S
C1720 C1719 1.398 . S
C1720 C1721 1.391 . S
C1721 H1709 0.950 . S
C1721 C1717 1.393 . S
C1721 C1720 1.391 . S
C1722 H1712 0.950 . S
C1722 C1723 1.386 . S
C1722 C1724 1.391 . S
C1723 C1722 1.386 . S
C1723 C1727 1.393 . S
C1724 H1713 0.950 . S
C1724 C1722 1.391 . S
C1724 C1725 1.400 . S
C1725 C1719 1.491 . S
C1725 C1724 1.400 . S
C1725 C1726 1.398 . S
C1726 H1714 0.950 . S
C1726 C1725 1.398 . S
C1726 C1727 1.391 . S
C1727 H1715 0.950 . S
C1727 C1723 1.393 . S
C1727 C1726 1.391 . S
H1728 C1736 0.950 . S
H1729 C1741 0.950 . S
H1730 C1738 0.950 1_455 S
H1731 C1740 0.950 . S
H1732 C1742 0.950 . S
H1733 C1744 0.950 . S
H1734 C1746 0.950 . S
H1735 C1747 0.950 . S
C1736 H1728 0.950 . S
C1736 C1737 1.386 . S
C1736 C1738 1.391 1_455 S
C1737 C1736 1.386 . S
C1737 C1741 1.393 1_455 S
C1738 H1730 0.950 1_655 S
C1738 C1736 1.391 1_655 S
C1738 C1739 1.400 . S
C1739 C1738 1.400 . S
C1739 C1740 1.398 . S
C1739 C1745 1.491 . S
C1740 H1731 0.950 . S
C1740 C1739 1.398 . S
C1740 C1741 1.391 . S
C1741 H1729 0.950 . S
C1741 C1737 1.393 1_655 S
C1741 C1740 1.391 . S
C1742 H1732 0.950 . S
C1742 C1743 1.386 . S
C1742 C1744 1.391 . S
C1743 C1742 1.386 . S
C1743 C1747 1.393 . S
C1744 H1733 0.950 . S
C1744 C1742 1.391 . S
C1744 C1745 1.400 . S
C1745 C1739 1.491 . S
C1745 C1744 1.400 . S
C1745 C1746 1.398 . S
C1746 H1734 0.950 . S
C1746 C1745 1.398 . S
C1746 C1747 1.391 . S
C1747 H1735 0.950 . S
C1747 C1743 1.393 . S
C1747 C1746 1.391 . S
H1748 C1756 0.950 . S
H1749 C1761 0.950 . S
H1750 C1758 0.950 . S
H1751 C1760 0.950 . S
H1752 C1762 0.950 . S
H1753 C1764 0.950 . S
H1754 C1766 0.950 . S
H1755 C1767 0.950 . S
C1756 H1748 0.950 . S
C1756 C1757 1.386 . S
C1756 C1758 1.391 . S
C1757 C1756 1.386 . S
C1757 C1761 1.393 . S
C1758 H1750 0.950 . S
C1758 C1756 1.391 . S
C1758 C1759 1.400 . S
C1759 C1758 1.400 . S
C1759 C1760 1.398 . S
C1759 C1765 1.491 . S
C1760 H1751 0.950 . S
C1760 C1759 1.398 . S
C1760 C1761 1.391 . S
C1761 H1749 0.950 . S
C1761 C1757 1.393 . S
C1761 C1760 1.391 . S
C1762 H1752 0.950 . S
C1762 C1763 1.386 . S
C1762 C1764 1.391 . S
C1763 C1762 1.386 . S
C1763 C1767 1.393 . S
C1764 H1753 0.950 . S
C1764 C1762 1.391 . S
C1764 C1765 1.400 . S
C1765 C1759 1.491 . S
C1765 C1764 1.400 . S
C1765 C1766 1.398 . S
C1766 H1754 0.950 . S
C1766 C1765 1.398 . S
C1766 C1767 1.391 . S
C1767 H1755 0.950 . S
C1767 C1763 1.393 . S
C1767 C1766 1.391 . S
H1768 C1776 0.950 . S
H1769 C1781 0.950 . S
H1770 C1778 0.950 . S
H1771 C1780 0.950 . S
H1772 C1782 0.950 . S
H1773 C1784 0.950 . S
H1774 C1786 0.950 . S
H1775 C1787 0.950 . S
C1776 H1768 0.950 . S
C1776 C1777 1.386 . S
C1776 C1778 1.391 . S
C1777 C1776 1.386 . S
C1777 C1781 1.393 . S
C1778 H1770 0.950 . S
C1778 C1776 1.391 . S
C1778 C1779 1.400 . S
C1779 C1778 1.400 . S
C1779 C1780 1.398 . S
C1779 C1785 1.491 . S
C1780 H1771 0.950 . S
C1780 C1779 1.398 . S
C1780 C1781 1.391 . S
C1781 H1769 0.950 . S
C1781 C1777 1.393 . S
C1781 C1780 1.391 . S
C1782 H1772 0.950 . S
C1782 C1783 1.386 . S
C1782 C1784 1.391 . S
C1783 C1782 1.386 . S
C1783 C1787 1.393 . S
C1784 H1773 0.950 . S
C1784 C1782 1.391 . S
C1784 C1785 1.400 . S
C1785 C1779 1.491 . S
C1785 C1784 1.400 . S
C1785 C1786 1.398 . S
C1786 H1774 0.950 . S
C1786 C1785 1.398 . S
C1786 C1787 1.391 . S
C1787 H1775 0.950 . S
C1787 C1783 1.393 . S
C1787 C1786 1.391 . S
H1788 C1796 0.950 . S
H1789 C1801 0.950 . S
H1790 C1798 0.950 . S
H1791 C1800 0.950 . S
H1792 C1802 0.950 . S
H1793 C1804 0.950 . S
H1794 C1806 0.950 . S
H1795 C1807 0.950 . S
C1796 H1788 0.950 . S
C1796 C1797 1.386 . S
C1796 C1798 1.391 . S
C1797 C1796 1.386 . S
C1797 C1801 1.393 . S
C1798 H1790 0.950 . S
C1798 C1796 1.391 . S
C1798 C1799 1.400 . S
C1799 C1798 1.400 . S
C1799 C1800 1.398 . S
C1799 C1805 1.491 . S
C1800 H1791 0.950 . S
C1800 C1799 1.398 . S
C1800 C1801 1.391 . S
C1801 H1789 0.950 . S
C1801 C1797 1.393 . S
C1801 C1800 1.391 . S
C1802 H1792 0.950 . S
C1802 C1803 1.386 . S
C1802 C1804 1.391 . S
C1803 C1802 1.386 . S
C1803 C1807 1.393 . S
C1804 H1793 0.950 . S
C1804 C1802 1.391 . S
C1804 C1805 1.400 . S
C1805 C1799 1.491 . S
C1805 C1804 1.400 . S
C1805 C1806 1.398 . S
C1806 H1794 0.950 . S
C1806 C1805 1.398 . S
C1806 C1807 1.391 . S
C1807 H1795 0.950 . S
C1807 C1803 1.393 . S
C1807 C1806 1.391 . S
H1808 C1816 0.950 . S
H1809 C1821 0.950 . S
H1810 C1818 0.950 . S
H1811 C1820 0.950 . S
H1812 C1822 0.950 . S
H1813 C1824 0.950 . S
H1814 C1826 0.950 1_455 S
H1815 C1827 0.950 . S
C1816 H1808 0.950 . S
C1816 C1817 1.386 . S
C1816 C1818 1.391 . S
C1817 C1816 1.386 . S
C1817 C1821 1.393 . S
C1818 H1810 0.950 . S
C1818 C1816 1.391 . S
C1818 C1819 1.400 . S
C1819 C1818 1.400 . S
C1819 C1820 1.398 . S
C1819 C1825 1.491 . S
C1820 H1811 0.950 . S
C1820 C1819 1.398 . S
C1820 C1821 1.391 . S
C1821 H1809 0.950 . S
C1821 C1817 1.393 . S
C1821 C1820 1.391 . S
C1822 H1812 0.950 . S
C1822 C1823 1.386 1_655 S
C1822 C1824 1.391 . S
C1823 C1822 1.386 1_455 S
C1823 C1827 1.393 . S
C1824 H1813 0.950 . S
C1824 C1822 1.391 . S
C1824 C1825 1.400 . S
C1825 C1819 1.491 . S
C1825 C1824 1.400 . S
C1825 C1826 1.398 . S
C1826 H1814 0.950 1_655 S
C1826 C1825 1.398 . S
C1826 C1827 1.391 1_655 S
C1827 H1815 0.950 . S
C1827 C1823 1.393 . S
C1827 C1826 1.391 1_455 S
H1828 C1836 0.950 . S
H1829 C1841 0.950 . S
H1830 C1838 0.950 . S
H1831 C1840 0.950 . S
H1832 C1842 0.950 . S
H1833 C1844 0.950 . S
H1834 C1846 0.950 . S
H1835 C1847 0.950 . S
C1836 H1828 0.950 . S
C1836 C1837 1.386 . S
C1836 C1838 1.391 . S
C1837 C1836 1.386 . S
C1837 C1841 1.393 . S
C1838 H1830 0.950 . S
C1838 C1836 1.391 . S
C1838 C1839 1.400 . S
C1839 C1838 1.400 . S
C1839 C1840 1.398 . S
C1839 C1845 1.491 . S
C1840 H1831 0.950 . S
C1840 C1839 1.398 . S
C1840 C1841 1.391 . S
C1841 H1829 0.950 . S
C1841 C1837 1.393 . S
C1841 C1840 1.391 . S
C1842 H1832 0.950 . S
C1842 C1843 1.386 . S
C1842 C1844 1.391 . S
C1843 C1842 1.386 . S
C1843 C1847 1.393 . S
C1844 H1833 0.950 . S
C1844 C1842 1.391 . S
C1844 C1845 1.400 . S
C1845 C1839 1.491 . S
C1845 C1844 1.400 . S
C1845 C1846 1.398 . S
C1846 H1834 0.950 . S
C1846 C1845 1.398 . S
C1846 C1847 1.391 . S
C1847 H1835 0.950 . S
C1847 C1843 1.393 . S
C1847 C1846 1.391 . S
H1848 C1856 0.950 . S
H1849 C1861 0.950 . S
H1850 C1858 0.950 . S
H1851 C1860 0.950 . S
H1852 C1862 0.950 . S
H1853 C1864 0.950 . S
H1854 C1866 0.950 . S
H1855 C1867 0.950 . S
C1856 H1848 0.950 . S
C1856 C1857 1.386 . S
C1856 C1858 1.391 . S
C1857 C1856 1.386 . S
C1857 C1861 1.393 . S
C1858 H1850 0.950 . S
C1858 C1856 1.391 . S
C1858 C1859 1.400 . S
C1859 C1858 1.400 . S
C1859 C1860 1.398 . S
C1859 C1865 1.491 . S
C1860 H1851 0.950 . S
C1860 C1859 1.398 . S
C1860 C1861 1.391 . S
C1861 H1849 0.950 . S
C1861 C1857 1.393 . S
C1861 C1860 1.391 . S
C1862 H1852 0.950 . S
C1862 C1863 1.386 . S
C1862 C1864 1.391 . S
C1863 C1862 1.386 . S
C1863 C1867 1.393 . S
C1864 H1853 0.950 . S
C1864 C1862 1.391 . S
C1864 C1865 1.400 . S
C1865 C1859 1.491 . S
C1865 C1864 1.400 . S
C1865 C1866 1.398 . S
C1866 H1854 0.950 . S
C1866 C1865 1.398 . S
C1866 C1867 1.391 . S
C1867 H1855 0.950 . S
C1867 C1863 1.393 . S
C1867 C1866 1.391 . S
H1868 C1876 0.950 . S
H1869 C1881 0.950 . S
H1870 C1878 0.950 . S
H1871 C1880 0.950 . S
H1872 C1882 0.950 . S
H1873 C1884 0.950 . S
H1874 C1886 0.950 . S
H1875 C1887 0.950 . S
C1876 H1868 0.950 . S
C1876 C1877 1.386 . S
C1876 C1878 1.391 . S
C1877 C1876 1.386 . S
C1877 C1881 1.393 . S
C1878 H1870 0.950 . S
C1878 C1876 1.391 . S
C1878 C1879 1.400 . S
C1879 C1878 1.400 . S
C1879 C1880 1.398 . S
C1879 C1885 1.491 . S
C1880 H1871 0.950 . S
C1880 C1879 1.398 . S
C1880 C1881 1.391 . S
C1881 H1869 0.950 . S
C1881 C1877 1.393 . S
C1881 C1880 1.391 . S
C1882 H1872 0.950 . S
C1882 C1883 1.386 . S
C1882 C1884 1.391 . S
C1883 C1882 1.386 . S
C1883 C1887 1.393 . S
C1884 H1873 0.950 . S
C1884 C1882 1.391 . S
C1884 C1885 1.400 . S
C1885 C1879 1.491 . S
C1885 C1884 1.400 . S
C1885 C1886 1.398 . S
C1886 H1874 0.950 . S
C1886 C1885 1.398 . S
C1886 C1887 1.391 . S
C1887 H1875 0.950 . S
C1887 C1883 1.393 . S
C1887 C1886 1.391 . S
H1888 C1896 0.950 . S
H1889 C1901 0.950 . S
H1890 C1898 0.950 . S
H1891 C1900 0.950 . S
H1892 C1902 0.950 . S
H1893 C1904 0.950 . S
H1894 C1906 0.950 . S
H1895 C1907 0.950 . S
C1896 H1888 0.950 . S
C1896 C1897 1.386 1_455 S
C1896 C1898 1.391 . S
C1897 C1896 1.386 1_655 S
C1897 C1901 1.393 . S
C1898 H1890 0.950 . S
C1898 C1896 1.391 . S
C1898 C1899 1.400 . S
C1899 C1898 1.400 . S
C1899 C1900 1.398 . S
C1899 C1905 1.491 . S
C1900 H1891 0.950 . S
C1900 C1899 1.398 . S
C1900 C1901 1.391 1_455 S
C1901 H1889 0.950 . S
C1901 C1897 1.393 . S
C1901 C1900 1.391 1_655 S
C1902 H1892 0.950 . S
C1902 C1903 1.386 . S
C1902 C1904 1.391 . S
C1903 C1902 1.386 . S
C1903 C1907 1.393 . S
C1904 H1893 0.950 . S
C1904 C1902 1.391 . S
C1904 C1905 1.400 . S
C1905 C1899 1.491 . S
C1905 C1904 1.400 . S
C1905 C1906 1.398 . S
C1906 H1894 0.950 . S
C1906 C1905 1.398 . S
C1906 C1907 1.391 . S
C1907 H1895 0.950 . S
C1907 C1903 1.393 . S
C1907 C1906 1.391 . S
H1908 C1916 0.950 . S
H1909 C1921 0.950 . S
H1910 C1918 0.950 . S
H1911 C1920 0.950 . S
H1912 C1922 0.950 . S
H1913 C1924 0.950 . S
H1914 C1926 0.950 . S
H1915 C1927 0.950 . S
C1916 H1908 0.950 . S
C1916 C1917 1.386 . S
C1916 C1918 1.391 . S
C1917 C1916 1.386 . S
C1917 C1921 1.393 . S
C1918 H1910 0.950 . S
C1918 C1916 1.391 . S
C1918 C1919 1.400 . S
C1919 C1918 1.400 . S
C1919 C1920 1.398 . S
C1919 C1925 1.491 . S
C1920 H1911 0.950 . S
C1920 C1919 1.398 . S
C1920 C1921 1.391 . S
C1921 H1909 0.950 . S
C1921 C1917 1.393 . S
C1921 C1920 1.391 . S
C1922 H1912 0.950 . S
C1922 C1923 1.386 . S
C1922 C1924 1.391 . S
C1923 C1922 1.386 . S
C1923 C1927 1.393 . S
C1924 H1913 0.950 . S
C1924 C1922 1.391 . S
C1924 C1925 1.400 . S
C1925 C1919 1.491 . S
C1925 C1924 1.400 . S
C1925 C1926 1.398 . S
C1926 H1914 0.950 . S
C1926 C1925 1.398 . S
C1926 C1927 1.391 . S
C1927 H1915 0.950 . S
C1927 C1923 1.393 . S
C1927 C1926 1.391 . S
H1928 C1936 0.950 . S
H1929 C1941 0.950 . S
H1930 C1938 0.950 . S
H1931 C1940 0.950 . S
H1932 C1942 0.950 . S
H1933 C1944 0.950 . S
H1934 C1946 0.950 . S
H1935 C1947 0.950 . S
C1936 H1928 0.950 . S
C1936 C1937 1.386 . S
C1936 C1938 1.391 . S
C1937 C1936 1.386 . S
C1937 C1941 1.393 . S
C1938 H1930 0.950 . S
C1938 C1936 1.391 . S
C1938 C1939 1.400 . S
C1939 C1938 1.400 . S
C1939 C1940 1.398 . S
C1939 C1945 1.491 . S
C1940 H1931 0.950 . S
C1940 C1939 1.398 . S
C1940 C1941 1.391 . S
C1941 H1929 0.950 . S
C1941 C1937 1.393 . S
C1941 C1940 1.391 . S
C1942 H1932 0.950 . S
C1942 C1943 1.386 . S
C1942 C1944 1.391 . S
C1943 C1942 1.386 . S
C1943 C1947 1.393 . S
C1944 H1933 0.950 . S
C1944 C1942 1.391 . S
C1944 C1945 1.400 . S
C1945 C1939 1.491 . S
C1945 C1944 1.400 . S
C1945 C1946 1.398 . S
C1946 H1934 0.950 . S
C1946 C1945 1.398 . S
C1946 C1947 1.391 . S
C1947 H1935 0.950 . S
C1947 C1943 1.393 . S
C1947 C1946 1.391 . S
H1948 C1956 0.950 . S
H1949 C1961 0.950 . S
H1950 C1958 0.950 . S
H1951 C1960 0.950 . S
H1952 C1962 0.950 . S
H1953 C1964 0.950 . S
H1954 C1966 0.950 . S
H1955 C1967 0.950 . S
C1956 H1948 0.950 . S
C1956 C1957 1.386 . S
C1956 C1958 1.391 . S
C1957 C1956 1.386 . S
C1957 C1961 1.393 . S
C1958 H1950 0.950 . S
C1958 C1956 1.391 . S
C1958 C1959 1.400 . S
C1959 C1958 1.400 . S
C1959 C1960 1.398 . S
C1959 C1965 1.491 . S
C1960 H1951 0.950 . S
C1960 C1959 1.398 . S
C1960 C1961 1.391 . S
C1961 H1949 0.950 . S
C1961 C1957 1.393 . S
C1961 C1960 1.391 . S
C1962 H1952 0.950 . S
C1962 C1963 1.386 . S
C1962 C1964 1.391 . S
C1963 C1962 1.386 . S
C1963 C1967 1.393 . S
C1964 H1953 0.950 . S
C1964 C1962 1.391 . S
C1964 C1965 1.400 . S
C1965 C1959 1.491 . S
C1965 C1964 1.400 . S
C1965 C1966 1.398 . S
C1966 H1954 0.950 . S
C1966 C1965 1.398 . S
C1966 C1967 1.391 . S
C1967 H1955 0.950 . S
C1967 C1963 1.393 . S
C1967 C1966 1.391 . S
H1968 C1976 0.950 . S
H1969 C1981 0.950 . S
H1970 C1978 0.950 . S
H1971 C1980 0.950 . S
H1972 C1982 0.950 . S
H1973 C1984 0.950 . S
H1974 C1986 0.950 . S
H1975 C1987 0.950 . S
C1976 H1968 0.950 . S
C1976 C1977 1.386 . S
C1976 C1978 1.391 . S
C1977 C1976 1.386 . S
C1977 C1981 1.393 . S
C1978 H1970 0.950 . S
C1978 C1976 1.391 . S
C1978 C1979 1.400 . S
C1979 C1978 1.400 . S
C1979 C1980 1.398 . S
C1979 C1985 1.491 . S
C1980 H1971 0.950 . S
C1980 C1979 1.398 . S
C1980 C1981 1.391 . S
C1981 H1969 0.950 . S
C1981 C1977 1.393 . S
C1981 C1980 1.391 . S
C1982 H1972 0.950 . S
C1982 C1983 1.386 . S
C1982 C1984 1.391 1_655 S
C1983 C1982 1.386 . S
C1983 C1987 1.393 1_655 S
C1984 H1973 0.950 . S
C1984 C1982 1.391 1_455 S
C1984 C1985 1.400 . S
C1985 C1979 1.491 . S
C1985 C1984 1.400 . S
C1985 C1986 1.398 . S
C1986 H1974 0.950 . S
C1986 C1985 1.398 . S
C1986 C1987 1.391 . S
C1987 H1975 0.950 . S
C1987 C1983 1.393 1_455 S
C1987 C1986 1.391 . S
H1988 C1996 0.950 . S
H1989 C2001 0.950 . S
H1990 C1998 0.950 . S
H1991 C2000 0.950 . S
H1992 C2002 0.950 . S
H1993 C2004 0.950 . S
H1994 C2006 0.950 . S
H1995 C2007 0.950 . S
C1996 H1988 0.950 . S
C1996 C1997 1.386 . S
C1996 C1998 1.391 . S
C1997 C1996 1.386 . S
C1997 C2001 1.393 . S
C1998 H1990 0.950 . S
C1998 C1996 1.391 . S
C1998 C1999 1.400 . S
C1999 C1998 1.400 . S
C1999 C2000 1.398 . S
C1999 C2005 1.491 . S
C2000 H1991 0.950 . S
C2000 C1999 1.398 . S
C2000 C2001 1.391 . S
C2001 H1989 0.950 . S
C2001 C1997 1.393 . S
C2001 C2000 1.391 . S
C2002 H1992 0.950 . S
C2002 C2003 1.386 . S
C2002 C2004 1.391 . S
C2003 C2002 1.386 . S
C2003 C2007 1.393 . S
C2004 H1993 0.950 . S
C2004 C2002 1.391 . S
C2004 C2005 1.400 . S
C2005 C1999 1.491 . S
C2005 C2004 1.400 . S
C2005 C2006 1.398 . S
C2006 H1994 0.950 . S
C2006 C2005 1.398 . S
C2006 C2007 1.391 . S
C2007 H1995 0.950 . S
C2007 C2003 1.393 . S
C2007 C2006 1.391 . S
H2008 C2016 0.950 . S
H2009 C2021 0.950 . S
H2010 C2018 0.950 . S
H2011 C2020 0.950 . S
H2012 C2022 0.950 . S
H2013 C2024 0.950 . S
H2014 C2026 0.950 . S
H2015 C2027 0.950 . S
C2016 H2008 0.950 . S
C2016 C2017 1.386 . S
C2016 C2018 1.391 . S
C2017 C2016 1.386 . S
C2017 C2021 1.393 . S
C2018 H2010 0.950 . S
C2018 C2016 1.391 . S
C2018 C2019 1.400 . S
C2019 C2018 1.400 . S
C2019 C2020 1.398 . S
C2019 C2025 1.491 . S
C2020 H2011 0.950 . S
C2020 C2019 1.398 . S
C2020 C2021 1.391 . S
C2021 H2009 0.950 . S
C2021 C2017 1.393 . S
C2021 C2020 1.391 . S
C2022 H2012 0.950 . S
C2022 C2023 1.386 . S
C2022 C2024 1.391 . S
C2023 C2022 1.386 . S
C2023 C2027 1.393 . S
C2024 H2013 0.950 . S
C2024 C2022 1.391 . S
C2024 C2025 1.400 . S
C2025 C2019 1.491 . S
C2025 C2024 1.400 . S
C2025 C2026 1.398 . S
C2026 H2014 0.950 . S
C2026 C2025 1.398 . S
C2026 C2027 1.391 . S
C2027 H2015 0.950 . S
C2027 C2023 1.393 . S
C2027 C2026 1.391 . S
H2028 C2036 0.950 . S
H2029 C2041 0.950 . S
H2030 C2038 0.950 . S
H2031 C2040 0.950 . S
H2032 C2042 0.950 . S
H2033 C2044 0.950 . S
H2034 C2046 0.950 . S
H2035 C2047 0.950 . S
C2036 H2028 0.950 . S
C2036 C2037 1.386 . S
C2036 C2038 1.391 . S
C2037 C2036 1.386 . S
C2037 C2041 1.393 . S
C2038 H2030 0.950 . S
C2038 C2036 1.391 . S
C2038 C2039 1.400 . S
C2039 C2038 1.400 . S
C2039 C2040 1.398 . S
C2039 C2045 1.491 . S
C2040 H2031 0.950 . S
C2040 C2039 1.398 . S
C2040 C2041 1.391 . S
C2041 H2029 0.950 . S
C2041 C2037 1.393 . S
C2041 C2040 1.391 . S
C2042 H2032 0.950 . S
C2042 C2043 1.386 . S
C2042 C2044 1.391 . S
C2043 C2042 1.386 . S
C2043 C2047 1.393 . S
C2044 H2033 0.950 . S
C2044 C2042 1.391 . S
C2044 C2045 1.400 . S
C2045 C2039 1.491 . S
C2045 C2044 1.400 . S
C2045 C2046 1.398 . S
C2046 H2034 0.950 . S
C2046 C2045 1.398 . S
C2046 C2047 1.391 . S
C2047 H2035 0.950 . S
C2047 C2043 1.393 . S
C2047 C2046 1.391 . S
H2048 C2056 0.950 . S
H2049 C2061 0.950 1_565 S
H2050 C2058 0.950 . S
H2051 C2060 0.950 . S
H2052 C2062 0.950 . S
H2053 C2064 0.950 . S
H2054 C2066 0.950 . S
H2055 C2067 0.950 . S
C2056 H2048 0.950 . S
C2056 C2057 1.386 . S
C2056 C2058 1.391 . S
C2057 C2056 1.386 . S
C2057 C2061 1.393 . S
C2058 H2050 0.950 . S
C2058 C2056 1.391 . S
C2058 C2059 1.400 . S
C2059 C2058 1.400 . S
C2059 C2060 1.398 . S
C2059 C2065 1.491 . S
C2060 H2051 0.950 . S
C2060 C2059 1.398 . S
C2060 C2061 1.391 . S
C2061 H2049 0.950 1_545 S
C2061 C2057 1.393 . S
C2061 C2060 1.391 . S
C2062 H2052 0.950 . S
C2062 C2063 1.386 . S
C2062 C2064 1.391 . S
C2063 C2062 1.386 . S
C2063 C2067 1.393 . S
C2064 H2053 0.950 . S
C2064 C2062 1.391 . S
C2064 C2065 1.400 . S
C2065 C2059 1.491 . S
C2065 C2064 1.400 . S
C2065 C2066 1.398 . S
C2066 H2054 0.950 . S
C2066 C2065 1.398 . S
C2066 C2067 1.391 . S
C2067 H2055 0.950 . S
C2067 C2063 1.393 . S
C2067 C2066 1.391 . S
H2068 C2076 0.950 . S
H2069 C2081 0.950 . S
H2070 C2078 0.950 . S
H2071 C2080 0.950 . S
H2072 C2082 0.950 . S
H2073 C2084 0.950 . S
H2074 C2086 0.950 . S
H2075 C2087 0.950 1_545 S
C2076 H2068 0.950 . S
C2076 C2077 1.386 . S
C2076 C2078 1.391 . S
C2077 C2076 1.386 . S
C2077 C2081 1.393 . S
C2078 H2070 0.950 . S
C2078 C2076 1.391 . S
C2078 C2079 1.400 . S
C2079 C2078 1.400 . S
C2079 C2080 1.398 . S
C2079 C2085 1.491 . S
C2080 H2071 0.950 . S
C2080 C2079 1.398 . S
C2080 C2081 1.391 . S
C2081 H2069 0.950 . S
C2081 C2077 1.393 . S
C2081 C2080 1.391 . S
C2082 H2072 0.950 . S
C2082 C2083 1.386 . S
C2082 C2084 1.391 . S
C2083 C2082 1.386 . S
C2083 C2087 1.393 . S
C2084 H2073 0.950 . S
C2084 C2082 1.391 . S
C2084 C2085 1.400 . S
C2085 C2079 1.491 . S
C2085 C2084 1.400 . S
C2085 C2086 1.398 . S
C2086 H2074 0.950 . S
C2086 C2085 1.398 . S
C2086 C2087 1.391 . S
C2087 H2075 0.950 1_565 S
C2087 C2083 1.393 . S
C2087 C2086 1.391 . S
H2088 C2096 0.950 . S
H2089 C2101 0.950 . S
H2090 C2098 0.950 . S
H2091 C2100 0.950 . S
H2092 C2102 0.950 . S
H2093 C2104 0.950 . S
H2094 C2106 0.941 1_545 S
H2095 C2107 0.950 . S
C2096 H2088 0.950 . S
C2096 C2097 1.386 . S
C2096 C2098 1.391 . S
C2097 C2096 1.386 . S
C2097 C2101 1.393 . S
C2098 H2090 0.950 . S
C2098 C2096 1.391 . S
C2098 C2099 1.400 . S
C2099 C2098 1.400 . S
C2099 C2100 1.398 . S
C2099 C2105 1.491 . S
C2100 H2091 0.950 . S
C2100 C2099 1.398 . S
C2100 C2101 1.391 . S
C2101 H2089 0.950 . S
C2101 C2097 1.393 . S
C2101 C2100 1.391 . S
C2102 H2092 0.950 . S
C2102 C2103 1.386 . S
C2102 C2104 1.391 . S
C2103 C2102 1.386 . S
C2103 C2107 1.393 1_565 S
C2104 H2093 0.950 . S
C2104 C2102 1.391 . S
C2104 C2105 1.400 . S
C2105 C2099 1.491 . S
C2105 C2104 1.400 . S
C2105 C2106 1.398 . S
C2106 H2094 0.941 1_565 S
C2106 C2105 1.398 . S
C2106 C2107 1.391 1_565 S
C2107 H2095 0.950 . S
C2107 C2103 1.393 1_545 S
C2107 C2106 1.391 1_545 S
H2108 C2116 0.950 . S
H2109 C2121 0.950 . S
H2110 C2118 0.950 . S
H2111 C2120 0.950 . S
H2112 C2122 0.950 . S
H2113 C2124 0.950 . S
H2114 C2126 0.941 1_565 S
H2115 C2127 0.950 . S
C2116 H2108 0.950 . S
C2116 C2117 1.386 . S
C2116 C2118 1.391 . S
C2117 C2116 1.386 . S
C2117 C2121 1.393 . S
C2118 H2110 0.950 . S
C2118 C2116 1.391 . S
C2118 C2119 1.400 . S
C2119 C2118 1.400 . S
C2119 C2120 1.398 . S
C2119 C2125 1.491 . S
C2120 H2111 0.950 . S
C2120 C2119 1.398 . S
C2120 C2121 1.391 . S
C2121 H2109 0.950 . S
C2121 C2117 1.393 . S
C2121 C2120 1.391 . S
C2122 H2112 0.950 . S
C2122 C2123 1.386 . S
C2122 C2124 1.391 . S
C2123 C2122 1.386 . S
C2123 C2127 1.393 1_545 S
C2124 H2113 0.950 . S
C2124 C2122 1.391 . S
C2124 C2125 1.400 . S
C2125 C2119 1.491 . S
C2125 C2124 1.400 . S
C2125 C2126 1.398 . S
C2126 H2114 0.941 1_545 S
C2126 C2125 1.398 . S
C2126 C2127 1.391 1_545 S
C2127 H2115 0.950 . S
C2127 C2123 1.393 1_565 S
C2127 C2126 1.391 1_565 S
H2128 C2136 0.950 . S
H2129 C2141 0.959 . S
H2130 C2138 0.950 . S
H2131 C2140 0.950 . S
H2132 C2142 0.950 . S
H2133 C2144 0.950 . S
H2134 C2146 0.950 . S
H2135 C2147 0.950 . S
C2136 H2128 0.950 . S
C2136 C2137 1.399 . S
C2136 C2138 1.391 . S
C2137 C2136 1.399 . S
C2137 C2141 1.402 . S
C2138 H2130 0.950 . S
C2138 C2136 1.391 . S
C2138 C2139 1.400 . S
C2139 C2138 1.400 . S
C2139 C2140 1.398 . S
C2139 C2145 1.491 . S
C2140 H2131 0.950 . S
C2140 C2139 1.398 . S
C2140 C2141 1.391 . S
C2141 H2129 0.959 . S
C2141 C2137 1.402 . S
C2141 C2140 1.391 . S
C2142 H2132 0.950 . S
C2142 C2143 1.386 . S
C2142 C2144 1.391 . S
C2143 C2142 1.386 . S
C2143 C2147 1.393 . S
C2144 H2133 0.950 . S
C2144 C2142 1.391 . S
C2144 C2145 1.400 . S
C2145 C2139 1.491 . S
C2145 C2144 1.400 . S
C2145 C2146 1.398 . S
C2146 H2134 0.950 . S
C2146 C2145 1.398 . S
C2146 C2147 1.391 . S
C2147 H2135 0.950 . S
C2147 C2143 1.393 . S
C2147 C2146 1.391 . S
H2148 C2156 0.950 . S
H2149 C2161 0.950 . S
H2150 C2158 0.950 . S
H2151 C2160 0.950 . S
H2152 C2162 0.950 . S
H2153 C2164 0.950 . S
H2154 C2166 0.950 . S
H2155 C2167 0.950 . S
C2156 H2148 0.950 . S
C2156 C2157 1.386 1_565 S
C2156 C2158 1.391 1_565 S
C2157 C2156 1.386 1_545 S
C2157 C2161 1.393 . S
C2158 H2150 0.950 . S
C2158 C2156 1.391 1_545 S
C2158 C2159 1.400 . S
C2159 C2158 1.400 . S
C2159 C2160 1.398 . S
C2159 C2165 1.491 . S
C2160 H2151 0.950 . S
C2160 C2159 1.398 . S
C2160 C2161 1.391 . S
C2161 H2149 0.950 . S
C2161 C2157 1.393 . S
C2161 C2160 1.391 . S
C2162 H2152 0.950 . S
C2162 C2163 1.386 . S
C2162 C2164 1.391 . S
C2163 C2162 1.386 . S
C2163 C2167 1.393 . S
C2164 H2153 0.950 . S
C2164 C2162 1.391 . S
C2164 C2165 1.400 . S
C2165 C2159 1.491 . S
C2165 C2164 1.400 . S
C2165 C2166 1.398 . S
C2166 H2154 0.950 . S
C2166 C2165 1.398 . S
C2166 C2167 1.391 . S
C2167 H2155 0.950 . S
C2167 C2163 1.393 . S
C2167 C2166 1.391 . S
H2168 C2176 0.950 . S
H2169 C2181 0.940 1_565 S
H2170 C2178 0.950 . S
H2171 C2180 0.950 . S
H2172 C2182 0.950 . S
H2173 C2184 0.950 . S
H2174 C2186 0.950 . S
H2175 C2187 0.950 . S
C2176 H2168 0.950 . S
C2176 C2177 1.400 . S
C2176 C2178 1.391 . S
C2177 C2176 1.400 . S
C2177 C2181 1.401 . S
C2178 H2170 0.950 . S
C2178 C2176 1.391 . S
C2178 C2179 1.400 . S
C2179 C2178 1.400 . S
C2179 C2180 1.398 . S
C2179 C2185 1.491 . S
C2180 H2171 0.950 . S
C2180 C2179 1.398 . S
C2180 C2181 1.391 . S
C2181 H2169 0.940 1_545 S
C2181 C2177 1.401 . S
C2181 C2180 1.391 . S
C2182 H2172 0.950 . S
C2182 C2183 1.386 . S
C2182 C2184 1.391 . S
C2183 C2182 1.386 . S
C2183 C2187 1.393 . S
C2184 H2173 0.950 . S
C2184 C2182 1.391 . S
C2184 C2185 1.400 . S
C2185 C2179 1.491 . S
C2185 C2184 1.400 . S
C2185 C2186 1.398 . S
C2186 H2174 0.950 . S
C2186 C2185 1.398 . S
C2186 C2187 1.391 . S
C2187 H2175 0.950 . S
C2187 C2183 1.393 . S
C2187 C2186 1.391 . S
H2188 C2196 0.950 . S
H2189 C2201 0.950 . S
H2190 C2198 0.950 . S
H2191 C2200 0.950 . S
H2192 C2202 0.950 . S
H2193 C2204 0.950 . S
H2194 C2206 0.950 . S
H2195 C2207 0.960 . S
C2196 H2188 0.950 . S
C2196 C2197 1.386 . S
C2196 C2198 1.391 . S
C2197 C2196 1.386 . S
C2197 C2201 1.393 . S
C2198 H2190 0.950 . S
C2198 C2196 1.391 . S
C2198 C2199 1.400 . S
C2199 C2198 1.400 . S
C2199 C2200 1.398 . S
C2199 C2205 1.491 . S
C2200 H2191 0.950 . S
C2200 C2199 1.398 . S
C2200 C2201 1.391 . S
C2201 H2189 0.950 . S
C2201 C2197 1.393 . S
C2201 C2200 1.391 . S
C2202 H2192 0.950 . S
C2202 C2203 1.386 . S
C2202 C2204 1.391 . S
C2203 C2202 1.386 . S
C2203 C2207 1.391 1_565 S
C2204 H2193 0.950 . S
C2204 C2202 1.391 . S
C2204 C2205 1.400 . S
C2205 C2199 1.491 . S
C2205 C2204 1.400 . S
C2205 C2206 1.398 . S
C2206 H2194 0.950 . S
C2206 C2205 1.398 . S
C2206 C2207 1.382 1_565 S
C2207 H2195 0.960 . S
C2207 C2203 1.391 1_545 S
C2207 C2206 1.382 1_545 S
H2208 C2216 0.950 . S
H2209 C2221 0.950 . S
H2210 C2218 0.950 . S
H2211 C2220 0.950 . S
H2212 C2222 0.950 . S
H2213 C2224 0.950 . S
H2214 C2226 0.950 . S
H2215 C2227 0.950 . S
C2216 H2208 0.950 . S
C2216 C2217 1.386 . S
C2216 C2218 1.391 . S
C2217 C2216 1.386 . S
C2217 C2221 1.393 . S
C2218 H2210 0.950 . S
C2218 C2216 1.391 . S
C2218 C2219 1.400 . S
C2219 C2218 1.400 . S
C2219 C2220 1.398 . S
C2219 C2225 1.491 . S
C2220 H2211 0.950 . S
C2220 C2219 1.398 . S
C2220 C2221 1.391 . S
C2221 H2209 0.950 . S
C2221 C2217 1.393 . S
C2221 C2220 1.391 . S
C2222 H2212 0.950 . S
C2222 C2223 1.386 . S
C2222 C2224 1.391 . S
C2223 C2222 1.386 . S
C2223 C2227 1.393 . S
C2224 H2213 0.950 . S
C2224 C2222 1.391 . S
C2224 C2225 1.400 . S
C2225 C2219 1.491 . S
C2225 C2224 1.400 . S
C2225 C2226 1.398 . S
C2226 H2214 0.950 . S
C2226 C2225 1.398 . S
C2226 C2227 1.391 . S
C2227 H2215 0.950 . S
C2227 C2223 1.393 . S
C2227 C2226 1.391 . S
H2228 C2236 0.950 . S
H2229 C2241 0.950 . S
H2230 C2238 0.950 . S
H2231 C2240 0.950 . S
H2232 C2242 0.950 . S
H2233 C2244 0.950 . S
H2234 C2246 0.950 . S
H2235 C2247 0.950 . S
C2236 H2228 0.950 . S
C2236 C2237 1.386 . S
C2236 C2238 1.391 . S
C2237 C2236 1.386 . S
C2237 C2241 1.393 . S
C2238 H2230 0.950 . S
C2238 C2236 1.391 . S
C2238 C2239 1.400 . S
C2239 C2238 1.400 . S
C2239 C2240 1.398 . S
C2239 C2245 1.491 . S
C2240 H2231 0.950 . S
C2240 C2239 1.398 . S
C2240 C2241 1.391 . S
C2241 H2229 0.950 . S
C2241 C2237 1.393 . S
C2241 C2240 1.391 . S
C2242 H2232 0.950 . S
C2242 C2243 1.386 . S
C2242 C2244 1.391 . S
C2243 C2242 1.386 . S
C2243 C2247 1.393 . S
C2244 H2233 0.950 . S
C2244 C2242 1.391 . S
C2244 C2245 1.400 . S
C2245 C2239 1.491 . S
C2245 C2244 1.400 . S
C2245 C2246 1.398 . S
C2246 H2234 0.950 . S
C2246 C2245 1.398 . S
C2246 C2247 1.391 . S
C2247 H2235 0.950 . S
C2247 C2243 1.393 . S
C2247 C2246 1.391 . S
H2248 C2256 0.950 . S
H2249 C2261 0.950 . S
H2250 C2258 0.950 . S
H2251 C2260 0.950 . S
H2252 C2262 0.950 . S
H2253 C2264 0.950 . S
H2254 C2266 0.950 . S
H2255 C2267 0.950 . S
C2256 H2248 0.950 . S
C2256 C2257 1.386 . S
C2256 C2258 1.391 . S
C2257 C2256 1.386 . S
C2257 C2261 1.393 . S
C2258 H2250 0.950 . S
C2258 C2256 1.391 . S
C2258 C2259 1.400 . S
C2259 C2258 1.400 . S
C2259 C2260 1.398 . S
C2259 C2265 1.491 . S
C2260 H2251 0.950 . S
C2260 C2259 1.398 . S
C2260 C2261 1.391 . S
C2261 H2249 0.950 . S
C2261 C2257 1.393 . S
C2261 C2260 1.391 . S
C2262 H2252 0.950 . S
C2262 C2263 1.386 . S
C2262 C2264 1.391 . S
C2263 C2262 1.386 . S
C2263 C2267 1.393 . S
C2264 H2253 0.950 . S
C2264 C2262 1.391 . S
C2264 C2265 1.400 . S
C2265 C2259 1.491 . S
C2265 C2264 1.400 . S
C2265 C2266 1.398 . S
C2266 H2254 0.950 . S
C2266 C2265 1.398 . S
C2266 C2267 1.391 . S
C2267 H2255 0.950 . S
C2267 C2263 1.393 . S
C2267 C2266 1.391 . S
H2268 C2276 0.950 . S
H2269 C2281 0.950 . S
H2270 C2278 0.950 . S
H2271 C2280 0.950 . S
H2272 C2282 0.950 . S
H2273 C2284 0.950 . S
H2274 C2286 0.950 . S
H2275 C2287 0.950 . S
C2276 H2268 0.950 . S
C2276 C2277 1.386 . S
C2276 C2278 1.391 . S
C2277 C2276 1.386 . S
C2277 C2281 1.393 . S
C2278 H2270 0.950 . S
C2278 C2276 1.391 . S
C2278 C2279 1.400 . S
C2279 C2278 1.400 . S
C2279 C2280 1.398 . S
C2279 C2285 1.491 . S
C2280 H2271 0.950 . S
C2280 C2279 1.398 . S
C2280 C2281 1.391 . S
C2281 H2269 0.950 . S
C2281 C2277 1.393 . S
C2281 C2280 1.391 . S
C2282 H2272 0.950 . S
C2282 C2283 1.386 . S
C2282 C2284 1.391 . S
C2283 C2282 1.386 . S
C2283 C2287 1.393 . S
C2284 H2273 0.950 . S
C2284 C2282 1.391 . S
C2284 C2285 1.400 . S
C2285 C2279 1.491 . S
C2285 C2284 1.400 . S
C2285 C2286 1.398 . S
C2286 H2274 0.950 . S
C2286 C2285 1.398 . S
C2286 C2287 1.391 . S
C2287 H2275 0.950 . S
C2287 C2283 1.393 . S
C2287 C2286 1.391 . S
H2288 C2296 0.950 . S
H2289 C2301 0.950 . S
H2290 C2298 0.950 . S
H2291 C2300 0.950 . S
H2292 C2302 0.950 . S
H2293 C2304 0.950 . S
H2294 C2306 0.950 . S
H2295 C2307 0.950 . S
C2296 H2288 0.950 . S
C2296 C2297 1.386 . S
C2296 C2298 1.391 . S
C2297 C2296 1.386 . S
C2297 C2301 1.393 . S
C2298 H2290 0.950 . S
C2298 C2296 1.391 . S
C2298 C2299 1.400 . S
C2299 C2298 1.400 . S
C2299 C2300 1.398 . S
C2299 C2305 1.491 . S
C2300 H2291 0.950 . S
C2300 C2299 1.398 . S
C2300 C2301 1.391 . S
C2301 H2289 0.950 . S
C2301 C2297 1.393 . S
C2301 C2300 1.391 . S
C2302 H2292 0.950 . S
C2302 C2303 1.386 . S
C2302 C2304 1.391 . S
C2303 C2302 1.386 . S
C2303 C2307 1.393 . S
C2304 H2293 0.950 . S
C2304 C2302 1.391 . S
C2304 C2305 1.400 . S
C2305 C2299 1.491 . S
C2305 C2304 1.400 . S
C2305 C2306 1.398 . S
C2306 H2294 0.950 . S
C2306 C2305 1.398 . S
C2306 C2307 1.391 . S
C2307 H2295 0.950 . S
C2307 C2303 1.393 . S
C2307 C2306 1.391 . S
H2308 C2316 0.950 . S
H2309 C2321 0.950 . S
H2310 C2318 0.950 . S
H2311 C2320 0.950 . S
H2312 C2322 0.950 . S
H2313 C2324 0.950 . S
H2314 C2326 0.950 . S
H2315 C2327 0.950 . S
C2316 H2308 0.950 . S
C2316 C2317 1.386 . S
C2316 C2318 1.391 . S
C2317 C2316 1.386 . S
C2317 C2321 1.393 . S
C2318 H2310 0.950 . S
C2318 C2316 1.391 . S
C2318 C2319 1.400 . S
C2319 C2318 1.400 . S
C2319 C2320 1.398 . S
C2319 C2325 1.491 . S
C2320 H2311 0.950 . S
C2320 C2319 1.398 . S
C2320 C2321 1.391 . S
C2321 H2309 0.950 . S
C2321 C2317 1.393 . S
C2321 C2320 1.391 . S
C2322 H2312 0.950 . S
C2322 C2323 1.386 . S
C2322 C2324 1.391 . S
C2323 C2322 1.386 . S
C2323 C2327 1.393 . S
C2324 H2313 0.950 . S
C2324 C2322 1.391 . S
C2324 C2325 1.400 . S
C2325 C2319 1.491 . S
C2325 C2324 1.400 . S
C2325 C2326 1.398 . S
C2326 H2314 0.950 . S
C2326 C2325 1.398 . S
C2326 C2327 1.391 . S
C2327 H2315 0.950 . S
C2327 C2323 1.393 . S
C2327 C2326 1.391 . S
H2328 C2336 0.950 . S
H2329 C2341 0.950 . S
H2330 C2338 0.950 . S
H2331 C2340 0.950 . S
H2332 C2342 0.950 . S
H2333 C2344 0.950 . S
H2334 C2346 0.950 . S
H2335 C2347 0.950 . S
C2336 H2328 0.950 . S
C2336 C2337 1.386 . S
C2336 C2338 1.391 . S
C2337 C2336 1.386 . S
C2337 C2341 1.393 . S
C2338 H2330 0.950 . S
C2338 C2336 1.391 . S
C2338 C2339 1.400 . S
C2339 C2338 1.400 . S
C2339 C2340 1.398 . S
C2339 C2345 1.491 . S
C2340 H2331 0.950 . S
C2340 C2339 1.398 . S
C2340 C2341 1.391 . S
C2341 H2329 0.950 . S
C2341 C2337 1.393 . S
C2341 C2340 1.391 . S
C2342 H2332 0.950 . S
C2342 C2343 1.386 . S
C2342 C2344 1.391 . S
C2343 C2342 1.386 . S
C2343 C2347 1.393 . S
C2344 H2333 0.950 . S
C2344 C2342 1.391 . S
C2344 C2345 1.400 . S
C2345 C2339 1.491 . S
C2345 C2344 1.400 . S
C2345 C2346 1.398 . S
C2346 H2334 0.950 . S
C2346 C2345 1.398 . S
C2346 C2347 1.391 . S
C2347 H2335 0.950 . S
C2347 C2343 1.393 . S
C2347 C2346 1.391 . S
H2348 C2356 0.950 . S
H2349 C2361 0.950 . S
H2350 C2358 0.950 . S
H2351 C2360 0.950 . S
H2352 C2362 0.950 . S
H2353 C2364 0.950 . S
H2354 C2366 0.950 . S
H2355 C2367 0.950 . S
C2356 H2348 0.950 . S
C2356 C2357 1.386 . S
C2356 C2358 1.391 . S
C2357 C2356 1.386 . S
C2357 C2361 1.393 . S
C2358 H2350 0.950 . S
C2358 C2356 1.391 . S
C2358 C2359 1.400 . S
C2359 C2358 1.400 . S
C2359 C2360 1.398 . S
C2359 C2365 1.491 . S
C2360 H2351 0.950 . S
C2360 C2359 1.398 . S
C2360 C2361 1.391 . S
C2361 H2349 0.950 . S
C2361 C2357 1.393 . S
C2361 C2360 1.391 . S
C2362 H2352 0.950 . S
C2362 C2363 1.386 . S
C2362 C2364 1.391 . S
C2363 C2362 1.386 . S
C2363 C2367 1.393 . S
C2364 H2353 0.950 . S
C2364 C2362 1.391 . S
C2364 C2365 1.400 . S
C2365 C2359 1.491 . S
C2365 C2364 1.400 . S
C2365 C2366 1.398 . S
C2366 H2354 0.950 . S
C2366 C2365 1.398 . S
C2366 C2367 1.391 . S
C2367 H2355 0.950 . S
C2367 C2363 1.393 . S
C2367 C2366 1.391 . S
H2368 C2376 0.950 . S
H2369 C2381 0.950 . S
H2370 C2378 0.950 . S
H2371 C2380 0.950 . S
H2372 C2382 0.950 . S
H2373 C2384 0.950 . S
H2374 C2386 0.950 . S
H2375 C2387 0.950 . S
C2376 H2368 0.950 . S
C2376 C2377 1.386 . S
C2376 C2378 1.391 . S
C2377 C2376 1.386 . S
C2377 C2381 1.393 . S
C2378 H2370 0.950 . S
C2378 C2376 1.391 . S
C2378 C2379 1.400 . S
C2379 C2378 1.400 . S
C2379 C2380 1.398 . S
C2379 C2385 1.491 . S
C2380 H2371 0.950 . S
C2380 C2379 1.398 . S
C2380 C2381 1.391 . S
C2381 H2369 0.950 . S
C2381 C2377 1.393 . S
C2381 C2380 1.391 . S
C2382 H2372 0.950 . S
C2382 C2383 1.386 . S
C2382 C2384 1.391 . S
C2383 C2382 1.386 . S
C2383 C2387 1.393 . S
C2384 H2373 0.950 . S
C2384 C2382 1.391 . S
C2384 C2385 1.400 . S
C2385 C2379 1.491 . S
C2385 C2384 1.400 . S
C2385 C2386 1.398 . S
C2386 H2374 0.950 . S
C2386 C2385 1.398 . S
C2386 C2387 1.391 . S
C2387 H2375 0.950 . S
C2387 C2383 1.393 . S
C2387 C2386 1.391 . S
H2388 C2396 0.950 . S
H2389 C2401 0.950 . S
H2390 C2398 0.950 1_545 S
H2391 C2400 0.950 . S
H2392 C2402 0.950 . S
H2393 C2404 0.950 1_565 S
H2394 C2406 0.950 . S
H2395 C2407 0.950 . S
C2396 H2388 0.950 . S
C2396 C2397 1.386 . S
C2396 C2398 1.391 . S
C2397 C2396 1.386 . S
C2397 C2401 1.393 . S
C2398 H2390 0.950 1_565 S
C2398 C2396 1.391 . S
C2398 C2399 1.400 . S
C2399 C2398 1.400 . S
C2399 C2400 1.398 . S
C2399 C2405 1.491 1_665 S
C2400 H2391 0.950 . S
C2400 C2399 1.398 . S
C2400 C2401 1.391 . S
C2401 H2389 0.950 . S
C2401 C2397 1.393 . S
C2401 C2400 1.391 . S
C2402 H2392 0.950 . S
C2402 C2403 1.386 . S
C2402 C2404 1.391 . S
C2403 C2402 1.386 . S
C2403 C2407 1.393 . S
C2404 H2393 0.950 1_545 S
C2404 C2402 1.391 . S
C2404 C2405 1.400 . S
C2405 C2399 1.491 1_445 S
C2405 C2404 1.400 . S
C2405 C2406 1.398 . S
C2406 H2394 0.950 . S
C2406 C2405 1.398 . S
C2406 C2407 1.391 . S
C2407 H2395 0.950 . S
C2407 C2403 1.393 . S
C2407 C2406 1.391 . S
H2408 C2416 0.950 . S
H2409 C2421 0.950 . S
H2410 C2418 0.950 . S
H2411 C2420 0.950 . S
H2412 C2422 0.950 . S
H2413 C2424 0.950 . S
H2414 C2426 0.950 . S
H2415 C2427 0.950 . S
C2416 H2408 0.950 . S
C2416 C2417 1.386 . S
C2416 C2418 1.391 . S
C2417 C2416 1.386 . S
C2417 C2421 1.393 . S
C2418 H2410 0.950 . S
C2418 C2416 1.391 . S
C2418 C2419 1.400 . S
C2419 C2418 1.400 . S
C2419 C2420 1.398 . S
C2419 C2425 1.491 . S
C2420 H2411 0.950 . S
C2420 C2419 1.398 . S
C2420 C2421 1.391 . S
C2421 H2409 0.950 . S
C2421 C2417 1.393 . S
C2421 C2420 1.391 . S
C2422 H2412 0.950 . S
C2422 C2423 1.386 . S
C2422 C2424 1.391 . S
C2423 C2422 1.386 . S
C2423 C2427 1.393 . S
C2424 H2413 0.950 . S
C2424 C2422 1.391 . S
C2424 C2425 1.400 . S
C2425 C2419 1.491 . S
C2425 C2424 1.400 . S
C2425 C2426 1.398 . S
C2426 H2414 0.950 . S
C2426 C2425 1.398 . S
C2426 C2427 1.391 . S
C2427 H2415 0.950 . S
C2427 C2423 1.393 . S
C2427 C2426 1.391 . S
H2428 C2436 0.950 . S
H2429 C2441 0.921 1_554 S
H2430 C2438 0.950 1_545 S
H2431 C2440 0.950 . S
H2432 C2442 0.950 . S
H2433 C2444 0.950 1_565 S
H2434 C2446 0.950 . S
H2435 C2447 0.921 1_556 S
C2436 H2428 0.950 . S
C2436 C2437 1.386 . S
C2436 C2438 1.391 . S
C2437 C2436 1.386 . S
C2437 C2441 1.393 . S
C2438 H2430 0.950 1_565 S
C2438 C2436 1.391 . S
C2438 C2439 1.400 . S
C2439 C2438 1.400 . S
C2439 C2440 1.398 1_556 S
C2439 C2445 1.491 1_566 S
C2440 H2431 0.950 . S
C2440 C2439 1.398 1_554 S
C2440 C2441 1.391 1_554 S
C2441 H2429 0.921 1_556 S
C2441 C2437 1.393 . S
C2441 C2440 1.391 1_556 S
C2442 H2432 0.950 . S
C2442 C2443 1.386 . S
C2442 C2444 1.391 . S
C2443 C2442 1.386 . S
C2443 C2447 1.393 . S
C2444 H2433 0.950 1_545 S
C2444 C2442 1.391 . S
C2444 C2445 1.400 . S
C2445 C2439 1.491 1_544 S
C2445 C2444 1.400 . S
C2445 C2446 1.398 1_554 S
C2446 H2434 0.950 . S
C2446 C2445 1.398 1_556 S
C2446 C2447 1.391 1_556 S
C2447 H2435 0.921 1_554 S
C2447 C2443 1.393 . S
C2447 C2446 1.391 1_554 S
H2448 C2456 0.950 . S
H2449 C2461 0.950 . S
H2450 C2458 0.950 . S
H2451 C2460 0.950 . S
H2452 C2462 0.950 . S
H2453 C2464 0.950 . S
H2454 C2466 0.950 . S
H2455 C2467 0.950 . S
C2456 H2448 0.950 . S
C2456 C2457 1.386 . S
C2456 C2458 1.391 . S
C2457 C2456 1.386 . S
C2457 C2461 1.393 . S
C2458 H2450 0.950 . S
C2458 C2456 1.391 . S
C2458 C2459 1.400 . S
C2459 C2458 1.400 . S
C2459 C2460 1.398 . S
C2459 C2465 1.491 . S
C2460 H2451 0.950 . S
C2460 C2459 1.398 . S
C2460 C2461 1.391 . S
C2461 H2449 0.950 . S
C2461 C2457 1.393 . S
C2461 C2460 1.391 . S
C2462 H2452 0.950 . S
C2462 C2463 1.386 . S
C2462 C2464 1.391 . S
C2463 C2462 1.386 . S
C2463 C2467 1.393 . S
C2464 H2453 0.950 . S
C2464 C2462 1.391 . S
C2464 C2465 1.400 . S
C2465 C2459 1.491 . S
C2465 C2464 1.400 . S
C2465 C2466 1.398 . S
C2466 H2454 0.950 . S
C2466 C2465 1.398 . S
C2466 C2467 1.391 . S
C2467 H2455 0.950 . S
C2467 C2463 1.393 . S
C2467 C2466 1.391 . S
H2468 C2476 0.950 . S
H2469 C2481 0.950 . S
H2470 C2478 0.985 . S
H2471 C2480 0.950 . S
H2472 C2482 0.950 . S
H2473 C2484 0.985 . S
H2474 C2486 0.950 . S
H2475 C2487 0.950 . S
C2476 H2468 0.950 . S
C2476 C2477 1.386 . S
C2476 C2478 1.370 1_545 S
C2477 C2476 1.386 . S
C2477 C2481 1.393 . S
C2478 H2470 0.985 . S
C2478 C2476 1.370 1_565 S
C2478 C2479 1.388 1_565 S
C2479 C2478 1.388 1_545 S
C2479 C2480 1.398 . S
C2479 C2485 1.491 1_545 S
C2480 H2471 0.950 . S
C2480 C2479 1.398 . S
C2480 C2481 1.391 . S
C2481 H2469 0.950 . S
C2481 C2477 1.393 . S
C2481 C2480 1.391 . S
C2482 H2472 0.950 . S
C2482 C2483 1.386 . S
C2482 C2484 1.370 1_565 S
C2483 C2482 1.386 . S
C2483 C2487 1.393 . S
C2484 H2473 0.985 . S
C2484 C2482 1.370 1_545 S
C2484 C2485 1.388 1_545 S
C2485 C2479 1.491 1_565 S
C2485 C2484 1.388 1_565 S
C2485 C2486 1.398 . S
C2486 H2474 0.950 . S
C2486 C2485 1.398 . S
C2486 C2487 1.391 . S
C2487 H2475 0.950 . S
C2487 C2483 1.393 . S
C2487 C2486 1.391 . S
H2488 C2496 0.950 . S
H2489 C2501 0.950 . S
H2490 C2498 0.950 . S
H2491 C2500 0.950 . S
H2492 C2502 0.950 . S
H2493 C2504 0.950 . S
H2494 C2506 0.950 . S
H2495 C2507 0.950 . S
C2496 H2488 0.950 . S
C2496 C2497 1.386 . S
C2496 C2498 1.391 . S
C2497 C2496 1.386 . S
C2497 C2501 1.393 . S
C2498 H2490 0.950 . S
C2498 C2496 1.391 . S
C2498 C2499 1.400 . S
C2499 C2498 1.400 . S
C2499 C2500 1.398 . S
C2499 C2505 1.491 . S
C2500 H2491 0.950 . S
C2500 C2499 1.398 . S
C2500 C2501 1.391 . S
C2501 H2489 0.950 . S
C2501 C2497 1.393 . S
C2501 C2500 1.391 . S
C2502 H2492 0.950 . S
C2502 C2503 1.386 . S
C2502 C2504 1.391 . S
C2503 C2502 1.386 . S
C2503 C2507 1.393 . S
C2504 H2493 0.950 . S
C2504 C2502 1.391 . S
C2504 C2505 1.400 . S
C2505 C2499 1.491 . S
C2505 C2504 1.400 . S
C2505 C2506 1.398 . S
C2506 H2494 0.950 . S
C2506 C2505 1.398 . S
C2506 C2507 1.391 . S
C2507 H2495 0.950 . S
C2507 C2503 1.393 . S
C2507 C2506 1.391 . S
H2508 C2516 0.950 . S
H2509 C2521 0.950 . S
H2510 C2518 1.001 . S
H2511 C2520 0.950 1_655 S
H2512 C2522 0.950 . S
H2513 C2524 1.001 . S
H2514 C2526 0.950 1_455 S
H2515 C2527 0.950 . S
C2516 H2508 0.950 . S
C2516 C2517 1.386 . S
C2516 C2518 1.362 1_554 S
C2517 C2516 1.386 . S
C2517 C2521 1.393 . S
C2518 H2510 1.001 . S
C2518 C2516 1.362 1_556 S
C2518 C2519 1.382 1_556 S
C2519 C2518 1.382 1_554 S
C2519 C2520 1.398 . S
C2519 C2525 1.491 1_464 S
C2520 H2511 0.950 1_455 S
C2520 C2519 1.398 . S
C2520 C2521 1.391 . S
C2521 H2509 0.950 . S
C2521 C2517 1.393 . S
C2521 C2520 1.391 . S
C2522 H2512 0.950 . S
C2522 C2523 1.386 . S
C2522 C2524 1.362 1_556 S
C2523 C2522 1.386 . S
C2523 C2527 1.393 . S
C2524 H2513 1.001 . S
C2524 C2522 1.362 1_554 S
C2524 C2525 1.382 1_554 S
C2525 C2519 1.491 1_646 S
C2525 C2524 1.382 1_556 S
C2525 C2526 1.398 . S
C2526 H2514 0.950 1_655 S
C2526 C2525 1.398 . S
C2526 C2527 1.391 . S
C2527 H2515 0.950 . S
C2527 C2523 1.393 . S
C2527 C2526 1.391 . S
H2528 C2536 0.950 . S
H2529 C2541 0.950 . S
H2530 C2538 0.950 . S
H2531 C2540 0.950 . S
H2532 C2542 0.950 . S
H2533 C2544 0.950 . S
H2534 C2546 0.950 . S
H2535 C2547 0.950 . S
C2536 H2528 0.950 . S
C2536 C2537 1.386 . S
C2536 C2538 1.391 . S
C2537 C2536 1.386 . S
C2537 C2541 1.393 . S
C2538 H2530 0.950 . S
C2538 C2536 1.391 . S
C2538 C2539 1.400 . S
C2539 C2538 1.400 . S
C2539 C2540 1.398 . S
C2539 C2545 1.491 . S
C2540 H2531 0.950 . S
C2540 C2539 1.398 . S
C2540 C2541 1.391 . S
C2541 H2529 0.950 . S
C2541 C2537 1.393 . S
C2541 C2540 1.391 . S
C2542 H2532 0.950 . S
C2542 C2543 1.386 . S
C2542 C2544 1.391 . S
C2543 C2542 1.386 . S
C2543 C2547 1.393 . S
C2544 H2533 0.950 . S
C2544 C2542 1.391 . S
C2544 C2545 1.400 . S
C2545 C2539 1.491 . S
C2545 C2544 1.400 . S
C2545 C2546 1.398 . S
C2546 H2534 0.950 . S
C2546 C2545 1.398 . S
C2546 C2547 1.391 . S
C2547 H2535 0.950 . S
C2547 C2543 1.393 . S
C2547 C2546 1.391 . S
H2548 C2556 0.950 . S
H2549 C2561 0.950 . S
H2550 C2558 0.950 . S
H2551 C2560 0.950 . S
H2552 C2562 0.950 . S
H2553 C2564 0.950 . S
H2554 C2566 0.950 . S
H2555 C2567 0.950 . S
C2556 H2548 0.950 . S
C2556 C2557 1.386 . S
C2556 C2558 1.391 . S
C2557 C2556 1.386 . S
C2557 C2561 1.393 . S
C2558 H2550 0.950 . S
C2558 C2556 1.391 . S
C2558 C2559 1.400 . S
C2559 C2558 1.400 . S
C2559 C2560 1.398 . S
C2559 C2565 1.491 . S
C2560 H2551 0.950 . S
C2560 C2559 1.398 . S
C2560 C2561 1.391 . S
C2561 H2549 0.950 . S
C2561 C2557 1.393 . S
C2561 C2560 1.391 . S
C2562 H2552 0.950 . S
C2562 C2563 1.386 . S
C2562 C2564 1.391 . S
C2563 C2562 1.386 . S
C2563 C2567 1.393 . S
C2564 H2553 0.950 . S
C2564 C2562 1.391 . S
C2564 C2565 1.400 . S
C2565 C2559 1.491 . S
C2565 C2564 1.400 . S
C2565 C2566 1.398 . S
C2566 H2554 0.950 . S
C2566 C2565 1.398 . S
C2566 C2567 1.391 . S
C2567 H2555 0.950 . S
C2567 C2563 1.393 . S
C2567 C2566 1.391 . S
H2568 C2576 0.950 . S
H2569 C2581 0.950 . S
H2570 C2578 0.950 . S
H2571 C2580 0.950 . S
H2572 C2582 0.950 . S
H2573 C2584 0.950 . S
H2574 C2586 0.950 . S
H2575 C2587 0.950 . S
C2576 H2568 0.950 . S
C2576 C2577 1.386 . S
C2576 C2578 1.391 . S
C2577 C2576 1.386 . S
C2577 C2581 1.393 . S
C2578 H2570 0.950 . S
C2578 C2576 1.391 . S
C2578 C2579 1.400 . S
C2579 C2578 1.400 . S
C2579 C2580 1.398 . S
C2579 C2585 1.491 . S
C2580 H2571 0.950 . S
C2580 C2579 1.398 . S
C2580 C2581 1.391 . S
C2581 H2569 0.950 . S
C2581 C2577 1.393 . S
C2581 C2580 1.391 . S
C2582 H2572 0.950 . S
C2582 C2583 1.386 . S
C2582 C2584 1.391 . S
C2583 C2582 1.386 . S
C2583 C2587 1.393 . S
C2584 H2573 0.950 . S
C2584 C2582 1.391 . S
C2584 C2585 1.400 . S
C2585 C2579 1.491 . S
C2585 C2584 1.400 . S
C2585 C2586 1.398 . S
C2586 H2574 0.950 . S
C2586 C2585 1.398 . S
C2586 C2587 1.391 . S
C2587 H2575 0.950 . S
C2587 C2583 1.393 . S
C2587 C2586 1.391 . S
H2588 C2596 0.950 . S
H2589 C2601 0.950 . S
H2590 C2598 0.950 . S
H2591 C2600 0.950 . S
H2592 C2602 0.950 . S
H2593 C2604 0.950 . S
H2594 C2606 0.950 . S
H2595 C2607 0.950 . S
C2596 H2588 0.950 . S
C2596 C2597 1.386 . S
C2596 C2598 1.391 . S
C2597 C2596 1.386 . S
C2597 C2601 1.393 . S
C2598 H2590 0.950 . S
C2598 C2596 1.391 . S
C2598 C2599 1.400 . S
C2599 C2598 1.400 . S
C2599 C2600 1.398 . S
C2599 C2605 1.491 . S
C2600 H2591 0.950 . S
C2600 C2599 1.398 . S
C2600 C2601 1.391 . S
C2601 H2589 0.950 . S
C2601 C2597 1.393 . S
C2601 C2600 1.391 . S
C2602 H2592 0.950 . S
C2602 C2603 1.386 . S
C2602 C2604 1.391 . S
C2603 C2602 1.386 . S
C2603 C2607 1.393 . S
C2604 H2593 0.950 . S
C2604 C2602 1.391 . S
C2604 C2605 1.400 . S
C2605 C2599 1.491 . S
C2605 C2604 1.400 . S
C2605 C2606 1.398 . S
C2606 H2594 0.950 . S
C2606 C2605 1.398 . S
C2606 C2607 1.391 . S
C2607 H2595 0.950 . S
C2607 C2603 1.393 . S
C2607 C2606 1.391 . S
H2608 C2616 0.950 . S
H2609 C2621 0.950 . S
H2610 C2618 0.950 . S
H2611 C2620 0.950 . S
H2612 C2622 0.950 . S
H2613 C2624 0.950 . S
H2614 C2626 0.950 . S
H2615 C2627 0.950 . S
C2616 H2608 0.950 . S
C2616 C2617 1.386 . S
C2616 C2618 1.391 . S
C2617 C2616 1.386 . S
C2617 C2621 1.393 . S
C2618 H2610 0.950 . S
C2618 C2616 1.391 . S
C2618 C2619 1.400 . S
C2619 C2618 1.400 . S
C2619 C2620 1.398 . S
C2619 C2625 1.491 1_554 S
C2620 H2611 0.950 . S
C2620 C2619 1.398 . S
C2620 C2621 1.391 . S
C2621 H2609 0.950 . S
C2621 C2617 1.393 . S
C2621 C2620 1.391 . S
C2622 H2612 0.950 . S
C2622 C2623 1.386 . S
C2622 C2624 1.391 . S
C2623 C2622 1.386 . S
C2623 C2627 1.393 . S
C2624 H2613 0.950 . S
C2624 C2622 1.391 . S
C2624 C2625 1.400 . S
C2625 C2619 1.491 1_556 S
C2625 C2624 1.400 . S
C2625 C2626 1.398 . S
C2626 H2614 0.950 . S
C2626 C2625 1.398 . S
C2626 C2627 1.391 . S
C2627 H2615 0.950 . S
C2627 C2623 1.393 . S
C2627 C2626 1.391 . S
H2628 C2636 0.950 . S
H2629 C2641 0.950 . S
H2630 C2638 0.950 . S
H2631 C2640 0.950 . S
H2632 C2642 0.950 . S
H2633 C2644 0.950 . S
H2634 C2646 0.950 . S
H2635 C2647 0.950 . S
C2636 H2628 0.950 . S
C2636 C2637 1.386 . S
C2636 C2638 1.391 . S
C2637 C2636 1.386 . S
C2637 C2641 1.393 . S
C2638 H2630 0.950 . S
C2638 C2636 1.391 . S
C2638 C2639 1.400 . S
C2639 C2638 1.400 . S
C2639 C2640 1.398 . S
C2639 C2645 1.491 1_455 S
C2640 H2631 0.950 . S
C2640 C2639 1.398 . S
C2640 C2641 1.391 . S
C2641 H2629 0.950 . S
C2641 C2637 1.393 . S
C2641 C2640 1.391 . S
C2642 H2632 0.950 . S
C2642 C2643 1.386 . S
C2642 C2644 1.391 . S
C2643 C2642 1.386 . S
C2643 C2647 1.393 . S
C2644 H2633 0.950 . S
C2644 C2642 1.391 . S
C2644 C2645 1.400 . S
C2645 C2639 1.491 1_655 S
C2645 C2644 1.400 . S
C2645 C2646 1.398 . S
C2646 H2634 0.950 . S
C2646 C2645 1.398 . S
C2646 C2647 1.391 . S
C2647 H2635 0.950 . S
C2647 C2643 1.393 . S
C2647 C2646 1.391 . S
H2648 C2656 0.950 . S
H2649 C2661 0.950 . S
H2650 C2658 0.950 . S
H2651 C2660 0.950 1_655 S
H2652 C2662 0.950 . S
H2653 C2664 0.950 . S
H2654 C2666 0.950 1_455 S
H2655 C2667 0.950 . S
C2656 H2648 0.950 . S
C2656 C2657 1.386 . S
C2656 C2658 1.391 1_556 S
C2657 C2656 1.386 . S
C2657 C2661 1.393 . S
C2658 H2650 0.950 . S
C2658 C2656 1.391 1_554 S
C2658 C2659 1.400 1_554 S
C2659 C2658 1.400 1_556 S
C2659 C2660 1.398 . S
C2659 C2665 1.491 1_456 S
C2660 H2651 0.950 1_455 S
C2660 C2659 1.398 . S
C2660 C2661 1.391 . S
C2661 H2649 0.950 . S
C2661 C2657 1.393 . S
C2661 C2660 1.391 . S
C2662 H2652 0.950 . S
C2662 C2663 1.386 . S
C2662 C2664 1.391 1_554 S
C2663 C2662 1.386 . S
C2663 C2667 1.393 . S
C2664 H2653 0.950 . S
C2664 C2662 1.391 1_556 S
C2664 C2665 1.400 1_556 S
C2665 C2659 1.491 1_654 S
C2665 C2664 1.400 1_554 S
C2665 C2666 1.398 . S
C2666 H2654 0.950 1_655 S
C2666 C2665 1.398 . S
C2666 C2667 1.391 . S
C2667 H2655 0.950 . S
C2667 C2663 1.393 . S
C2667 C2666 1.391 . S
H2668 C2676 0.950 . S
H2669 C2681 0.950 . S
H2670 C2678 0.950 . S
H2671 C2680 0.950 . S
H2672 C2682 0.950 . S
H2673 C2684 0.950 . S
H2674 C2686 0.950 . S
H2675 C2687 0.950 . S
C2676 H2668 0.950 . S
C2676 C2677 1.386 . S
C2676 C2678 1.391 . S
C2677 C2676 1.386 . S
C2677 C2681 1.393 . S
C2678 H2670 0.950 . S
C2678 C2676 1.391 . S
C2678 C2679 1.400 . S
C2679 C2678 1.400 . S
C2679 C2680 1.398 . S
C2679 C2685 1.491 . S
C2680 H2671 0.950 . S
C2680 C2679 1.398 . S
C2680 C2681 1.391 . S
C2681 H2669 0.950 . S
C2681 C2677 1.393 . S
C2681 C2680 1.391 . S
C2682 H2672 0.950 . S
C2682 C2683 1.386 . S
C2682 C2684 1.391 . S
C2683 C2682 1.386 . S
C2683 C2687 1.393 . S
C2684 H2673 0.950 . S
C2684 C2682 1.391 . S
C2684 C2685 1.400 . S
C2685 C2679 1.491 . S
C2685 C2684 1.400 . S
C2685 C2686 1.398 . S
C2686 H2674 0.950 . S
C2686 C2685 1.398 . S
C2686 C2687 1.391 . S
C2687 H2675 0.950 . S
C2687 C2683 1.393 . S
C2687 C2686 1.391 . S
C1097 C617 0.723 . S
C1103 C5 0.756 . S
C1117 C39 0.724 . S
C1123 C651 0.757 . S
C1137 C73 0.756 . S
C1143 C549 0.723 . S
C1157 C583 0.719 . S
C1163 C107 0.751 . S
C1177 C141 0.734 . S
C1183 C753 0.720 . S
C1197 C787 0.747 . S
C1203 C175 0.756 . S
C1217 C209 0.748 . S
C1223 C685 0.755 . S
C1237 C243 0.720 . S
C1243 C719 0.733 . S
C1257 C277 0.759 . S
C1263 C889 0.742 . S
C1277 C923 0.752 . S
C1283 C311 0.752 . S
C1297 C345 0.717 . S
C1303 C821 0.741 . S
C1317 C379 0.758 . S
C1323 C855 0.725 . S
C1337 C413 0.750 . S
C1343 C1025 0.755 . S
C1357 C1059 0.731 . S
C1363 C447 0.760 . S
C1377 C957 0.750 . S
C1383 C481 0.718 . S
C1397 C991 0.757 . S
C1403 C515 0.725 . S
C1417 C407 1.114 . S
C1423 C2 1.087 . S
C1437 C849 1.119 . S
C1443 C36 1.075 . S
C1457 C70 1.101 . S
C1463 C339 1.112 . S
C1477 C917 1.111 . S
C1483 C104 1.104 . S
C1497 C475 1.111 . S
C1503 C138 1.096 . S
C1517 C172 1.088 . S
C1523 C1053 1.118 . S
C1537 C543 1.118 . S
C1543 C206 1.087 . S
C1557 C985 1.121 . S
C1563 C240 1.072 . S
C1577 C135 1.116 . S
C1583 C274 1.092 . S
C1597 C308 1.098 . S
C1603 C577 1.113 . S
C1617 C342 1.074 . S
C1623 C67 1.121 . S
C1637 C645 1.114 . S
C1643 C376 1.090 . S
C1657 C410 1.076 . S
C1663 C203 1.121 . S
C1677 C781 1.121 . S
C1683 C444 1.077 . S
C1697 C478 1.075 . S
C1703 C271 1.121 . S
C1717 C512 1.082 . S
C1723 C713 1.117 . S
C1737 C951 1.110 . S
C1743 C546 1.104 . S
C1757 C580 1.072 . S
C1763 C305 1.121 . S
C1777 C614 1.073 . S
C1783 C883 1.121 . S
C1797 C373 1.115 . S
C1803 C648 1.095 . S
C1817 C682 1.105 . S
C1823 C1019 1.110 . S
C1837 C716 1.087 . S
C1843 C509 1.118 . S
C1857 C1087 1.110 . S
C1863 C750 1.104 . S
C1877 C441 1.111 . S
C1883 C784 1.097 . S
C1897 C679 1.111 . S
C1903 C818 1.104 . S
C1917 C852 1.101 . S
C1923 C33 1.112 . S
C1937 C886 1.072 . S
C1943 C611 1.121 . S
C1957 C101 1.115 . S
C1963 C920 1.086 . S
C1977 C954 1.097 . S
C1983 C747 1.111 . S
C1997 C988 1.086 . S
C2003 C237 1.115 . S
C2017 C815 1.110 . S
C2023 C1022 1.104 . S
C2037 C169 1.110 . S
C2043 C1056 1.101 . S
C2057 C247 1.751 1_545 S
C2063 C9 1.767 . S
C2077 C145 1.770 . S
C2083 C43 1.763 1_565 S
C2097 C77 1.762 . S
C2103 C179 1.770 1_565 S
C2117 C213 1.762 . S
C2123 C111 1.770 1_545 S
C2137 C519 1.740 1_565 S
C2143 C281 1.745 . S
C2157 C315 1.747 1_545 S
C2163 C417 1.762 . S
C2177 C451 1.741 1_545 S
C2183 C349 1.745 . S
C2197 C485 1.763 . S
C2203 C383 1.747 1_565 S
C2217 C791 1.770 . S
C2223 C553 1.758 . S
C2237 C689 1.754 . S
C2243 C587 1.768 . S
C2257 C723 1.766 . S
C2263 C621 1.768 . S
C2277 C757 1.746 . S
C2283 C655 1.748 . S
C2297 C825 1.765 . S
C2303 C1063 1.749 . S
C2317 C859 1.764 . S
C2323 C961 1.769 . S
C2337 C893 1.768 . S
C2343 C995 1.753 . S
C2357 C1029 1.768 . S
C2363 C927 1.767 . S
C2377 C20 1.753 . S
C2383 C836 1.753 . S
C2397 C326 1.745 . S
C2403 C54 1.745 . S
C2417 C904 1.765 . S
C2423 C88 1.765 . S
C2437 C122 1.765 . S
C2443 C394 1.765 . S
C2457 C156 1.751 . S
C2463 C972 1.751 . S
C2477 C190 1.764 . S
C2483 C462 1.764 . S
C2497 C1040 1.759 . S
C2503 C224 1.759 . S
C2517 C258 1.755 . S
C2523 C530 1.755 . S
C2537 C564 1.759 . S
C2543 C292 1.759 . S
C2557 C632 1.753 . S
C2563 C360 1.753 . S
C2577 C428 1.758 . S
C2583 C700 1.758 . S
C2597 C496 1.745 . S
C2603 C768 1.745 . S
C2617 C870 1.766 . S
C2623 C598 1.766 . S
C2637 C938 1.744 . S
C2643 C666 1.744 . S
C2657 C1006 1.754 . S
C2663 C734 1.754 . S
C2677 C1074 1.765 . S
C2683 C802 1.765 . S
