# Generated by pormake.
# Topology ftb, (5)-cn, num edge types: 1
# Building blocks:
#     Node 0, Type 0, BuildingBlock: BEQFEK_clean_sbu_0, # of connection points: 5
#     Node 1, Type 0, BuildingBlock: BEQFEK_clean_sbu_0, # of connection points: 5
#     Node 2, Type 0, BuildingBlock: BEQFEK_clean_sbu_0, # of connection points: 5
#     Node 3, Type 0, BuildingBlock: BEQFEK_clean_sbu_0, # of connection points: 5
#     Node 4, Type 0, BuildingBlock: BEQFEK_clean_sbu_0, # of connection points: 5
#     Node 5, Type 0, BuildingBlock: BEQFEK_clean_sbu_0, # of connection points: 5
#     Node 6, Type 0, BuildingBlock: BEQFEK_clean_sbu_0, # of connection points: 5
#     Node 7, Type 0, BuildingBlock: BEQFEK_clean_sbu_0, # of connection points: 5
#     Edge 8, Type (0, 0), BuildingBlock: MIFKUJ_clean_linker_0, # of connection points: 2
#     Edge 9, Type (0, 0), BuildingBlock: MIFKUJ_clean_linker_0, # of connection points: 2
#     Edge 10, Type (0, 0), BuildingBlock: MIFKUJ_clean_linker_0, # of connection points: 2
#     Edge 11, Type (0, 0), BuildingBlock: MIFKUJ_clean_linker_0, # of connection points: 2
#     Edge 12, Type (0, 0), BuildingBlock: MIFKUJ_clean_linker_0, # of connection points: 2
#     Edge 13, Type (0, 0), BuildingBlock: MIFKUJ_clean_linker_0, # of connection points: 2
#     Edge 14, Type (0, 0), BuildingBlock: MIFKUJ_clean_linker_0, # of connection points: 2
#     Edge 15, Type (0, 0), BuildingBlock: MIFKUJ_clean_linker_0, # of connection points: 2
#     Edge 16, Type (0, 0), BuildingBlock: MIFKUJ_clean_linker_0, # of connection points: 2
#     Edge 17, Type (0, 0), BuildingBlock: MIFKUJ_clean_linker_0, # of connection points: 2
#     Edge 18, Type (0, 0), BuildingBlock: MIFKUJ_clean_linker_0, # of connection points: 2
#     Edge 19, Type (0, 0), BuildingBlock: MIFKUJ_clean_linker_0, # of connection points: 2
#     Edge 20, Type (0, 0), BuildingBlock: MIFKUJ_clean_linker_0, # of connection points: 2
#     Edge 21, Type (0, 0), BuildingBlock: MIFKUJ_clean_linker_0, # of connection points: 2
#     Edge 22, Type (0, 0), BuildingBlock: MIFKUJ_clean_linker_0, # of connection points: 2
#     Edge 23, Type (0, 0), BuildingBlock: MIFKUJ_clean_linker_0, # of connection points: 2
#     Edge 24, Type (0, 0), BuildingBlock: MIFKUJ_clean_linker_0, # of connection points: 2
#     Edge 25, Type (0, 0), BuildingBlock: MIFKUJ_clean_linker_0, # of connection points: 2
#     Edge 26, Type (0, 0), BuildingBlock: MIFKUJ_clean_linker_0, # of connection points: 2
#     Edge 27, Type (0, 0), BuildingBlock: MIFKUJ_clean_linker_0, # of connection points: 2
# Relax obj value: 0.145
# Max RMSD: 0.206
# Mean RMSD: 0.206
data_MOF--net-ftb--node1-BEQFEK_clean_sbu_0--edge1-MIFKUJ_clean_linker_0
_symmetry_space_group_name_H-M    P1
_symmetry_Int_Tables_number       1
_symmetry_cell_setting            triclinic
loop_
_symmetry_equiv_pos_as_xyz
'x, y, z'
_cell_length_a     71.566189
_cell_length_b     19.595789
_cell_length_c     43.759422
_cell_angle_alpha  90.006876
_cell_angle_beta   93.107249
_cell_angle_gamma 90.041964
loop_
_atom_site_label
_atom_site_type_symbol
_atom_site_fract_x
_atom_site_fract_y
_atom_site_fract_z
_atom_type_partial_charge
Co0 Co 0.34569 0.10037 0.04772 0.0
Co1 Co 0.34416 0.03737 0.9813 0.0
C2 C 0.33603 0.95244 0.03483 0.0
O3 O 0.33891 0.00301 0.05281 0.0
O4 O 0.33767 0.95782 0.00607 0.0
C5 C 0.34078 0.12263 0.11098 0.0
O6 O 0.3277 0.07617 0.10616 0.0
C7 C 0.34655 0.95183 0.92587 0.0
C8 C 0.35102 0.0307 0.89088 0.0
C9 C 0.34912 0.96101 0.8949 0.0
N10 N 0.3468 0.01347 0.93943 0.0
N11 N 0.34943 0.06029 0.91836 0.0
C12 C 0.34532 0.88575 0.94279 0.0
H13 H 0.3536 0.88899 0.96491 0.0
H14 H 0.35062 0.84257 0.92935 0.0
H15 H 0.33051 0.87598 0.94769 0.0
C16 C 0.38455 0.1233 0.03356 0.0
N17 N 0.36689 0.10684 0.02457 0.0
N18 N 0.36673 0.07666 0.99773 0.0
C19 C 0.38446 0.07062 0.98921 0.0
C20 C 0.39638 0.09997 0.01171 0.0
C21 C 0.38996 0.15621 0.06363 0.0
H22 H 0.38009 0.19828 0.06801 0.0
H23 H 0.389 0.11803 0.08221 0.0
H24 H 0.4044 0.17695 0.06395 0.0
O25 O 0.32411 0.14705 0.02794 0.0
O26 O 0.32236 0.10001 0.98174 0.0
H27 H 0.38763 0.05519 0.94144 0.0
H28 H 0.40481 0.01072 0.96565 0.0
C29 C 0.38994 0.02655 0.96318 0.0
H30 H 0.38109 0.98011 0.96191 0.0
H31 H 0.35027 0.11256 0.92282 0.0
O32 O 0.35045 0.14105 0.08889 0.0
C33 C 0.31599 0.14004 0.00157 0.0
Co34 Co 0.64677 0.10353 0.0504 0.0
Co35 Co 0.64514 0.02788 0.11349 0.0
C36 C 0.66671 0.96951 0.06464 0.0
O37 O 0.66214 0.02045 0.04781 0.0
O38 O 0.66086 0.96319 0.09151 0.0
C39 C 0.64264 0.10654 0.98541 0.0
O40 O 0.64075 0.04029 0.98871 0.0
C41 C 0.64466 0.93895 0.16843 0.0
C42 C 0.62636 0.99967 0.19714 0.0
C43 C 0.63664 0.93986 0.19668 0.0
N44 N 0.63911 0.99528 0.15287 0.0
N45 N 0.62825 0.03135 0.17025 0.0
C46 C 0.65868 0.88932 0.1574 0.0
H47 H 0.66967 0.91707 0.14551 0.0
H48 H 0.65157 0.85382 0.14077 0.0
H49 H 0.66539 0.85962 0.17657 0.0
C50 C 0.60614 0.08818 0.05111 0.0
N51 N 0.62338 0.08147 0.06443 0.0
N52 N 0.62256 0.04534 0.08963 0.0
C53 C 0.60471 0.02518 0.09245 0.0
C54 C 0.59373 0.05193 0.06816 0.0
C55 C 0.60171 0.13059 0.02319 0.0
H56 H 0.61141 0.17467 0.02265 0.0
H57 H 0.60343 0.09908 0.00247 0.0
H58 H 0.58711 0.14974 0.02276 0.0
O59 O 0.65991 0.16797 0.07763 0.0
O60 O 0.66065 0.11152 0.12156 0.0
H61 H 0.59488 0.00289 0.13659 0.0
H62 H 0.58631 0.94546 0.10695 0.0
C63 C 0.5987 0.97499 0.11578 0.0
H64 H 0.61026 0.93914 0.12206 0.0
H65 H 0.62223 0.07796 0.16377 0.0
O66 O 0.6449 0.14391 0.00905 0.0
C67 C 0.66516 0.16292 0.10573 0.0
Co68 Co 0.35065 0.53764 0.56184 0.0
Co69 Co 0.34702 0.51287 0.4908 0.0
C70 C 0.34171 0.40013 0.53665 0.0
O71 O 0.34563 0.43946 0.55926 0.0
O72 O 0.34163 0.42174 0.50909 0.0
C73 C 0.34415 0.55008 0.62487 0.0
O74 O 0.32936 0.51317 0.61677 0.0
C75 C 0.35162 0.45113 0.43007 0.0
C76 C 0.3468 0.54044 0.39982 0.0
C77 C 0.35077 0.47132 0.39959 0.0
N78 N 0.34826 0.5059 0.44744 0.0
N79 N 0.34531 0.55901 0.42919 0.0
C80 C 0.35642 0.38206 0.44272 0.0
H81 H 0.36454 0.3872 0.46493 0.0
H82 H 0.36461 0.35219 0.42654 0.0
H83 H 0.34329 0.35414 0.44681 0.0
C84 C 0.38749 0.58777 0.54671 0.0
N85 N 0.37067 0.56152 0.53825 0.0
N86 N 0.36949 0.55199 0.50846 0.0
C87 C 0.38566 0.57264 0.49688 0.0
C88 C 0.39751 0.5966 0.52077 0.0
C89 C 0.39425 0.59813 0.57939 0.0
H90 H 0.39018 0.55374 0.59327 0.0
H91 H 0.40966 0.60411 0.58189 0.0
H92 H 0.38749 0.64429 0.58848 0.0
O93 O 0.32776 0.58648 0.54807 0.0
O94 O 0.32518 0.57182 0.49779 0.0
H95 H 0.37898 0.60328 0.4508 0.0
H96 H 0.40359 0.59025 0.4592 0.0
C97 C 0.38942 0.57096 0.46359 0.0
H98 H 0.38784 0.51795 0.45491 0.0
H99 H 0.34231 0.60793 0.43682 0.0
O100 O 0.35571 0.56498 0.6049 0.0
C101 C 0.3191 0.59621 0.5223 0.0
Co102 Co 0.63958 0.54282 0.53545 0.0
Co103 Co 0.6414 0.50134 0.60515 0.0
C104 C 0.65108 0.40242 0.55629 0.0
O105 O 0.64753 0.44695 0.5356 0.0
O106 O 0.64918 0.41564 0.58452 0.0
C107 C 0.63544 0.539 0.46902 0.0
O108 O 0.63749 0.47264 0.47174 0.0
C109 C 0.64119 0.43308 0.66586 0.0
C110 C 0.63626 0.52198 0.69547 0.0
C111 C 0.63905 0.45207 0.69614 0.0
N112 N 0.6393 0.48919 0.64821 0.0
N113 N 0.63655 0.54208 0.66614 0.0
C114 C 0.64717 0.36514 0.65419 0.0
H115 H 0.65806 0.37247 0.63746 0.0
H116 H 0.63499 0.33952 0.64233 0.0
H117 H 0.65303 0.33201 0.67286 0.0
C118 C 0.60133 0.57889 0.54885 0.0
N119 N 0.61824 0.55416 0.55769 0.0
N120 N 0.61846 0.53631 0.58671 0.0
C121 C 0.60137 0.54865 0.5972 0.0
C122 C 0.59011 0.57696 0.57361 0.0
C123 C 0.59587 0.59991 0.51669 0.0
H124 H 0.60383 0.64633 0.51089 0.0
H125 H 0.59963 0.55876 0.50075 0.0
H126 H 0.58066 0.61019 0.51335 0.0
O127 O 0.66024 0.5981 0.55303 0.0
O128 O 0.66216 0.56766 0.60188 0.0
H129 H 0.60171 0.57752 0.6442 0.0
H130 H 0.58072 0.53443 0.63114 0.0
C131 C 0.5961 0.5357 0.62932 0.0
H132 H 0.60219 0.48672 0.6377 0.0
H133 H 0.63514 0.59223 0.65835 0.0
O134 O 0.63544 0.57585 0.49292 0.0
C135 C 0.668 0.60234 0.57976 0.0
Co136 Co 0.849 0.08073 0.55606 0.0
Co137 Co 0.84901 0.01492 0.49038 0.0
C138 C 0.83795 0.93361 0.54308 0.0
O139 O 0.84052 0.9855 0.56035 0.0
O140 O 0.84136 0.93577 0.5148 0.0
C141 C 0.85785 0.08525 0.62082 0.0
O142 O 0.86117 0.01982 0.61748 0.0
C143 C 0.85547 0.92926 0.43615 0.0
C144 C 0.85357 0.00715 0.39959 0.0
C145 C 0.85643 0.93807 0.40471 0.0
N146 N 0.85214 0.99036 0.44879 0.0
N147 N 0.85099 0.03654 0.42679 0.0
C148 C 0.85879 0.86527 0.45426 0.0
H149 H 0.86475 0.87764 0.47754 0.0
H150 H 0.86843 0.83062 0.44269 0.0
H151 H 0.84524 0.83873 0.45659 0.0
C152 C 0.88807 0.10851 0.54292 0.0
N153 N 0.87087 0.0855 0.53444 0.0
N154 N 0.87127 0.05562 0.50756 0.0
C155 C 0.88895 0.05715 0.49844 0.0
C156 C 0.90009 0.09122 0.52043 0.0
C157 C 0.89327 0.13915 0.57355 0.0
H158 H 0.8829 0.17875 0.57901 0.0
H159 H 0.89302 0.0987 0.59126 0.0
H160 H 0.90744 0.1622 0.57429 0.0
O161 O 0.82843 0.12997 0.53472 0.0
O162 O 0.82734 0.07847 0.48947 0.0
H163 H 0.88822 0.04676 0.44981 0.0
H164 H 0.91065 0.02697 0.46852 0.0
C165 C 0.89528 0.0228 0.47027 0.0
H166 H 0.89119 0.96822 0.47055 0.0
H167 H 0.84849 0.08832 0.4304 0.0
O168 O 0.85277 0.1207 0.5975 0.0
C169 C 0.82077 0.12089 0.50813 0.0
Co170 Co 0.14363 0.05974 0.54921 0.0
Co171 Co 0.14701 0.01285 0.61842 0.0
C172 C 0.15062 0.9144 0.56613 0.0
O173 O 0.14735 0.96047 0.54599 0.0
O174 O 0.15063 0.92786 0.59468 0.0
C175 C 0.13213 0.07066 0.48434 0.0
O176 O 0.12595 0.00778 0.48646 0.0
C177 C 0.14189 0.93853 0.67712 0.0
C178 C 0.14577 0.02377 0.7099 0.0
C179 C 0.1417 0.95471 0.70812 0.0
N180 N 0.14552 0.99585 0.66145 0.0
N181 N 0.14797 0.0463 0.6813 0.0
C182 C 0.13991 0.86941 0.66276 0.0
H183 H 0.14888 0.86546 0.64309 0.0
H184 H 0.12515 0.86164 0.65439 0.0
H185 H 0.14402 0.82856 0.67933 0.0
C186 C 0.10691 0.10559 0.56767 0.0
N187 N 0.12409 0.08052 0.57466 0.0
N188 N 0.12509 0.05947 0.60325 0.0
C189 C 0.10832 0.06936 0.6152 0.0
C190 C 0.0963 0.09921 0.5931 0.0
C191 C 0.10007 0.12472 0.53587 0.0
H192 H 0.09991 0.07856 0.5212 0.0
H193 H 0.08579 0.14667 0.53507 0.0
H194 H 0.10979 0.16234 0.5264 0.0
O195 O 0.16748 0.09752 0.56522 0.0
O196 O 0.17026 0.06712 0.61403 0.0
H197 H 0.08848 0.05476 0.65039 0.0
H198 H 0.10633 0.98963 0.64829 0.0
C199 C 0.10339 0.04505 0.64617 0.0
H200 H 0.11217 0.07219 0.6639 0.0
H201 H 0.15096 0.09647 0.67524 0.0
O202 O 0.13943 0.10016 0.50795 0.0
C203 C 0.17672 0.09631 0.59084 0.0
Co204 Co 0.85706 0.52539 0.06847 0.0
Co205 Co 0.85384 0.49312 0.99755 0.0
C206 C 0.83758 0.40158 0.04505 0.0
O207 O 0.84434 0.43739 0.06725 0.0
O208 O 0.84001 0.41753 0.01724 0.0
C209 C 0.85668 0.52686 0.13489 0.0
O210 O 0.84637 0.47154 0.1319 0.0
C211 C 0.85707 0.4219 0.9376 0.0
C212 C 0.85829 0.51147 0.9071 0.0
C213 C 0.85861 0.44079 0.9071 0.0
N214 N 0.85608 0.47904 0.95459 0.0
N215 N 0.85679 0.53218 0.93612 0.0
C216 C 0.85569 0.35126 0.95026 0.0
H217 H 0.84862 0.35159 0.97209 0.0
H218 H 0.86999 0.33046 0.95474 0.0
H219 H 0.84787 0.31738 0.93374 0.0
C220 C 0.89655 0.53342 0.05635 0.0
N221 N 0.87873 0.52173 0.04677 0.0
N222 N 0.8778 0.50912 0.01719 0.0
C223 C 0.8952 0.51339 0.00689 0.0
C224 C 0.90755 0.52854 0.03144 0.0
C225 C 0.90259 0.55345 0.08842 0.0
H226 H 0.89563 0.60197 0.09424 0.0
H227 H 0.89808 0.51369 0.1045 0.0
H228 H 0.91794 0.56036 0.09145 0.0
O229 O 0.83938 0.59292 0.05082 0.0
O230 O 0.83771 0.57415 1.00078 0.0
H231 H 0.89338 0.54557 0.96023 0.0
H232 H 0.91525 0.50456 0.97183 0.0
C233 C 0.89989 0.50396 0.97428 0.0
H234 H 0.89407 0.45475 0.96561 0.0
H235 H 0.85625 0.58282 0.94339 0.0
O236 O 0.86275 0.55504 0.11122 0.0
C237 C 0.83281 0.60729 0.02402 0.0
Co238 Co 0.14291 0.56102 0.0486 0.0
Co239 Co 0.14774 0.51326 0.11754 0.0
C240 C 0.14996 0.41542 0.06462 0.0
O241 O 0.14622 0.462 0.04495 0.0
O242 O 0.15107 0.42839 0.09324 0.0
C243 C 0.13121 0.56971 0.9839 0.0
O244 O 0.12729 0.50441 0.98587 0.0
C245 C 0.14163 0.43991 0.17612 0.0
C246 C 0.15271 0.51707 0.20917 0.0
C247 C 0.14466 0.45277 0.20734 0.0
N248 N 0.14748 0.49455 0.16051 0.0
N249 N 0.15409 0.54024 0.1805 0.0
C250 C 0.13413 0.37596 0.16129 0.0
H251 H 0.13858 0.37143 0.1376 0.0
H252 H 0.11862 0.37737 0.16043 0.0
H253 H 0.13897 0.33044 0.17456 0.0
C254 C 0.10751 0.61235 0.07 0.0
N255 N 0.12418 0.58206 0.07541 0.0
N256 N 0.12583 0.56179 0.10408 0.0
C257 C 0.11011 0.57865 0.11792 0.0
C258 C 0.098 0.61145 0.09682 0.0
C259 C 0.1002 0.63341 0.03868 0.0
H260 H 0.10045 0.58879 0.02312 0.0
H261 H 0.08575 0.65339 0.03839 0.0
H262 H 0.1095 0.67315 0.02973 0.0
O263 O 0.16696 0.59985 0.06344 0.0
O264 O 0.17033 0.5696 0.11228 0.0
H265 H 0.09312 0.58378 0.15739 0.0
H266 H 0.10616 0.50546 0.1532 0.0
C267 C 0.10651 0.56169 0.15042 0.0
H268 H 0.11805 0.58203 0.16569 0.0
H269 H 0.15957 0.58743 0.17451 0.0
O270 O 0.13746 0.60164 0.0076 0.0
C271 C 0.17631 0.59976 0.08898 0.0
H272 H 0.33567 0.34577 0.38667 0.0
H273 H 0.33636 0.28288 0.33849 0.0
H274 H 0.37049 0.44121 0.30142 0.0
H275 H 0.36925 0.50517 0.3493 0.0
H276 H 0.34424 0.411 0.26172 0.0
H277 H 0.38788 0.27698 0.32279 0.0
H278 H 0.39921 0.20927 0.36753 0.0
H279 H 0.35509 0.06373 0.3496 0.0
H280 H 0.34333 0.13107 0.30498 0.0
H281 H 0.36461 0.22722 0.12756 0.0
H282 H 0.36852 0.28274 0.17757 0.0
H283 H 0.32778 0.14614 0.21337 0.0
H284 H 0.32381 0.09015 0.16351 0.0
H285 H 0.35883 0.1645 0.25327 0.0
H286 H 0.31494 0.30326 0.19302 0.0
H287 H 0.30432 0.37143 0.148 0.0
H288 H 0.35053 0.5089 0.16438 0.0
H289 H 0.36157 0.44096 0.20928 0.0
C290 C 0.34365 0.3663 0.36846 0.0
C291 C 0.35266 0.42974 0.3718 0.0
C292 C 0.34404 0.33038 0.34089 0.0
C293 C 0.35372 0.35671 0.31637 0.0
C294 C 0.36294 0.41973 0.31995 0.0
C295 C 0.36229 0.45612 0.34732 0.0
C296 C 0.35334 0.32065 0.28643 0.0
C297 C 0.34777 0.35738 0.2599 0.0
C298 C 0.35753 0.25026 0.28397 0.0
C299 C 0.36463 0.20942 0.31069 0.0
C300 C 0.38052 0.23079 0.32851 0.0
C301 C 0.38703 0.19243 0.35383 0.0
C302 C 0.37785 0.13232 0.36144 0.0
C303 C 0.36217 0.11034 0.34369 0.0
C304 C 0.35559 0.14854 0.31836 0.0
C305 C 0.35653 0.20877 0.14609 0.0
C306 C 0.34379 0.15457 0.1415 0.0
C307 C 0.35876 0.24064 0.17463 0.0
C308 C 0.34831 0.21892 0.19907 0.0
C309 C 0.33597 0.16367 0.19479 0.0
C310 C 0.33366 0.13195 0.16624 0.0
C311 C 0.3498 0.25502 0.22886 0.0
C312 C 0.35549 0.21826 0.25525 0.0
C313 C 0.34588 0.3255 0.23121 0.0
C314 C 0.33919 0.36662 0.20432 0.0
C315 C 0.32292 0.34772 0.18688 0.0
C316 C 0.31681 0.38637 0.16141 0.0
C317 C 0.32677 0.44436 0.15328 0.0
C318 C 0.34284 0.46392 0.17067 0.0
C319 C 0.34902 0.42538 0.19615 0.0
H320 H 0.32202 0.47423 0.13356 0.0
H321 H 0.38291 0.10271 0.38106 0.0
H322 H 0.6377 0.79967 0.19391 0.0
H323 H 0.63935 0.71979 0.2371 0.0
H324 H 0.63996 0.88933 0.30009 0.0
H325 H 0.63891 0.96902 0.25718 0.0
H326 H 0.66496 0.79428 0.31881 0.0
H327 H 0.59999 0.79986 0.28154 0.0
H328 H 0.57396 0.78644 0.24272 0.0
H329 H 0.58831 0.57554 0.23139 0.0
H330 H 0.6146 0.588 0.26988 0.0
H331 H 0.63283 0.67495 0.45636 0.0
H332 H 0.63435 0.73045 0.40675 0.0
H333 H 0.63806 0.5342 0.36291 0.0
H334 H 0.63653 0.47767 0.41274 0.0
H335 H 0.6138 0.62693 0.33097 0.0
H336 H 0.67661 0.61952 0.37352 0.0
H337 H 0.70174 0.63412 0.4138 0.0
H338 H 0.69104 0.84959 0.41597 0.0
H339 H 0.66564 0.83616 0.37602 0.0
C340 C 0.63865 0.8198 0.21697 0.0
C341 C 0.63852 0.89057 0.22223 0.0
C342 C 0.63935 0.77415 0.24161 0.0
C343 C 0.63971 0.79865 0.27181 0.0
C344 C 0.63978 0.86929 0.277 0.0
C345 C 0.63908 0.91475 0.25247 0.0
C346 C 0.63955 0.75145 0.29827 0.0
C347 C 0.65374 0.75787 0.3215 0.0
C348 C 0.62519 0.70257 0.30139 0.0
C349 C 0.6094 0.69508 0.27828 0.0
C350 C 0.5977 0.75079 0.27057 0.0
C351 C 0.58287 0.74333 0.24867 0.0
C352 C 0.57952 0.68024 0.23452 0.0
C353 C 0.59095 0.62442 0.24231 0.0
C354 C 0.60581 0.63164 0.26417 0.0
C355 C 0.63385 0.64334 0.43622 0.0
C356 C 0.63474 0.57184 0.43855 0.0
C357 C 0.63477 0.67523 0.40788 0.0
C358 C 0.63662 0.6364 0.38129 0.0
C359 C 0.63674 0.56495 0.38325 0.0
C360 C 0.63589 0.53284 0.41171 0.0
C361 C 0.63892 0.67133 0.35175 0.0
C362 C 0.62519 0.6625 0.32799 0.0
C363 C 0.65367 0.71821 0.34814 0.0
C364 C 0.66913 0.72673 0.3719 0.0
C365 C 0.67953 0.66997 0.38272 0.0
C366 C 0.69384 0.67804 0.40548 0.0
C367 C 0.69797 0.74273 0.41747 0.0
C368 C 0.68783 0.79951 0.40666 0.0
C369 C 0.67348 0.7917 0.38393 0.0
H370 H 0.70904 0.74887 0.43511 0.0
H371 H 0.56803 0.67456 0.21758 0.0
H372 H 0.32183 0.53023 0.67289 0.0
H373 H 0.32361 0.58898 0.72224 0.0
H374 H 0.37267 0.69782 0.69604 0.0
H375 H 0.37123 0.63837 0.64693 0.0
H376 H 0.37628 0.66157 0.75492 0.0
H377 H 0.32966 0.77164 0.68911 0.0
H378 H 0.3013 0.77773 0.6546 0.0
H379 H 0.26808 0.7041 0.7265 0.0
H380 H 0.29631 0.69672 0.76134 0.0
H381 H 0.37246 0.95798 0.84812 0.0
H382 H 0.37239 0.87664 0.80563 0.0
H383 H 0.32641 0.76823 0.84314 0.0
H384 H 0.3263 0.85001 0.88554 0.0
H385 H 0.32078 0.79683 0.78122 0.0
H386 H 0.36861 0.69831 0.84844 0.0
H387 H 0.39758 0.6987 0.88162 0.0
H388 H 0.42924 0.75825 0.80539 0.0
H389 H 0.40041 0.75922 0.77183 0.0
C390 C 0.33312 0.56609 0.67775 0.0
C391 C 0.34627 0.58016 0.65586 0.0
C392 C 0.33408 0.59979 0.70593 0.0
C393 C 0.34808 0.64865 0.71259 0.0
C394 C 0.36172 0.66047 0.69134 0.0
C395 C 0.36083 0.62657 0.66323 0.0
C396 C 0.34801 0.68994 0.74098 0.0
C397 C 0.3642 0.69152 0.76057 0.0
C398 C 0.33214 0.72824 0.74857 0.0
C399 C 0.31513 0.73289 0.72772 0.0
C400 C 0.31633 0.75624 0.69749 0.0
C401 C 0.30028 0.76002 0.67788 0.0
C402 C 0.28291 0.74112 0.68832 0.0
C403 C 0.28155 0.7186 0.71843 0.0
C404 C 0.29757 0.71465 0.73812 0.0
C405 C 0.36246 0.9164 0.84741 0.0
C406 C 0.34963 0.9094 0.87037 0.0
C407 C 0.36249 0.86987 0.82325 0.0
C408 C 0.34956 0.81594 0.8215 0.0
C409 C 0.33662 0.80914 0.84428 0.0
C410 C 0.33669 0.85541 0.86861 0.0
C411 C 0.34906 0.76862 0.79508 0.0
C412 C 0.33278 0.76618 0.77578 0.0
C413 C 0.36493 0.73033 0.78758 0.0
C414 C 0.38231 0.72936 0.80767 0.0
C415 C 0.38173 0.71201 0.83879 0.0
C416 C 0.39813 0.71189 0.85766 0.0
C417 C 0.41523 0.72862 0.84563 0.0
C418 C 0.41597 0.74534 0.81468 0.0
C419 C 0.39961 0.74561 0.79572 0.0
H420 H 0.42791 0.72851 0.86028 0.0
H421 H 0.2705 0.74408 0.67311 0.0
H422 H 0.65247 0.4909 0.75262 0.0
H423 H 0.65344 0.42483 0.79986 0.0
H424 H 0.62906 0.25249 0.7509 0.0
H425 H 0.62695 0.32009 0.70383 0.0
H426 H 0.6133 0.26664 0.80263 0.0
H427 H 0.6767 0.25858 0.77456 0.0
H428 H 0.70686 0.30371 0.75876 0.0
H429 H 0.71301 0.42077 0.84165 0.0
H430 H 0.68274 0.37711 0.85777 0.0
H431 H 0.63397 0.0447 0.93038 0.0
H432 H 0.63381 0.0964 0.87942 0.0
H433 H 0.6505 0.28928 0.91983 0.0
H434 H 0.65073 0.23821 0.97077 0.0
H435 H 0.6711 0.25374 0.8703 0.0
H436 H 0.60624 0.26519 0.8959 0.0
H437 H 0.57645 0.21636 0.91148 0.0
H438 H 0.57387 0.08701 0.83214 0.0
H439 H 0.60381 0.13442 0.81632 0.0
C440 C 0.64737 0.43883 0.75187 0.0
C441 C 0.64018 0.41 0.72427 0.0
C442 C 0.64808 0.40088 0.77886 0.0
C443 C 0.64181 0.33299 0.77881 0.0
C444 C 0.63426 0.30442 0.7514 0.0
C445 C 0.63334 0.34275 0.7244 0.0
C446 C 0.64257 0.293 0.80767 0.0
C447 C 0.62604 0.26277 0.81712 0.0
C448 C 0.65912 0.28864 0.82685 0.0
C449 C 0.67737 0.31493 0.81726 0.0
C450 C 0.68441 0.29433 0.78933 0.0
C451 C 0.70154 0.31959 0.78033 0.0
C452 C 0.71182 0.36518 0.79916 0.0
C453 C 0.70502 0.38549 0.82707 0.0
C454 C 0.68789 0.36043 0.83617 0.0
C455 C 0.63759 0.09813 0.92842 0.0
C456 C 0.64231 0.13745 0.9546 0.0
C457 C 0.63745 0.12757 0.89931 0.0
C458 C 0.64206 0.19668 0.89594 0.0
C459 C 0.64692 0.23583 0.922 0.0
C460 C 0.64695 0.20662 0.95107 0.0
C461 C 0.64182 0.22862 0.86529 0.0
C462 C 0.65845 0.25718 0.85555 0.0
C463 C 0.62544 0.23087 0.84575 0.0
C464 C 0.60736 0.20282 0.85511 0.0
C465 C 0.5994 0.22595 0.88191 0.0
C466 C 0.58247 0.1986 0.89076 0.0
C467 C 0.5733 0.14847 0.87286 0.0
C468 C 0.58101 0.12576 0.84601 0.0
C469 C 0.59795 0.15288 0.83708 0.0
H470 H 0.5602 0.12735 0.87975 0.0
H471 H 0.72508 0.38468 0.79215 0.0
H472 H 0.85104 0.21799 0.63547 0.0
H473 H 0.8538 0.27108 0.68588 0.0
H474 H 0.87232 0.07981 0.72581 0.0
H475 H 0.86924 0.02571 0.67534 0.0
H476 H 0.84705 0.13826 0.75984 0.0
H477 H 0.9033 0.20901 0.71666 0.0
H478 H 0.92321 0.25652 0.67762 0.0
H479 H 0.89529 0.44965 0.68317 0.0
H480 H 0.875 0.403 0.72192 0.0
H481 H 0.87444 0.31259 0.90112 0.0
H482 H 0.87594 0.24515 0.85435 0.0
H483 H 0.8488 0.4076 0.80255 0.0
H484 H 0.84639 0.47408 0.84931 0.0
H485 H 0.88184 0.35519 0.77722 0.0
H486 H 0.82383 0.27689 0.81767 0.0
H487 H 0.80466 0.22709 0.85719 0.0
H488 H 0.83785 0.04456 0.85775 0.0
H489 H 0.8574 0.09377 0.81852 0.0
C490 C 0.85576 0.18713 0.65491 0.0
C491 C 0.85996 0.11761 0.65136 0.0
C492 C 0.85742 0.21769 0.68373 0.0
C493 C 0.86352 0.17965 0.70957 0.0
C494 C 0.86765 0.11015 0.70616 0.0
C495 C 0.86592 0.07939 0.67729 0.0
C496 C 0.86509 0.21255 0.74014 0.0
C497 C 0.85496 0.18496 0.76381 0.0
C498 C 0.87529 0.2738 0.74527 0.0
C499 C 0.88753 0.30231 0.72206 0.0
C500 C 0.90131 0.26147 0.7094 0.0
C501 C 0.91268 0.28827 0.68734 0.0
C502 C 0.91049 0.35602 0.67788 0.0
C503 C 0.89696 0.39716 0.69051 0.0
C504 C 0.88553 0.37058 0.71256 0.0
C505 C 0.86823 0.33326 0.88007 0.0
C506 C 0.85975 0.39807 0.87924 0.0
C507 C 0.86937 0.29494 0.85324 0.0
C508 C 0.86237 0.32133 0.8251 0.0
C509 C 0.85427 0.38639 0.82408 0.0
C510 C 0.85291 0.42423 0.85086 0.0
C511 C 0.86349 0.28164 0.7965 0.0
C512 C 0.87415 0.30798 0.77327 0.0
C513 C 0.85397 0.21893 0.79192 0.0
C514 C 0.84222 0.18935 0.81546 0.0
C515 C 0.82716 0.22642 0.82645 0.0
C516 C 0.8162 0.19824 0.84874 0.0
C517 C 0.82007 0.1328 0.86005 0.0
C518 C 0.83489 0.09532 0.84902 0.0
C519 C 0.84591 0.12331 0.82675 0.0
H520 H 0.81157 0.11105 0.8773 0.0
H521 H 0.91931 0.37668 0.6608 0.0
H522 H 0.14081 0.70117 0.97178 0.0
H523 H 0.1384 0.76024 0.92285 0.0
H524 H 0.11375 0.58098 0.87986 0.0
H525 H 0.11658 0.5205 0.92893 0.0
H526 H 0.13923 0.63168 0.84526 0.0
H527 H 0.08695 0.72337 0.89206 0.0
H528 H 0.06894 0.77465 0.93257 0.0
H529 H 0.1036 0.95351 0.93232 0.0
H530 H 0.12198 0.90305 0.89193 0.0
H531 H 0.11838 0.84242 0.71093 0.0
H532 H 0.11346 0.77052 0.75551 0.0
H533 H 0.15027 0.89992 0.81107 0.0
H534 H 0.15613 0.9698 0.76636 0.0
H535 H 0.11372 0.86661 0.83562 0.0
H536 H 0.16766 0.76137 0.79086 0.0
H537 H 0.18362 0.7071 0.74863 0.0
H538 H 0.142 0.54896 0.74316 0.0
H539 H 0.12564 0.60296 0.78509 0.0
C540 C 0.13476 0.67424 0.95201 0.0
C541 C 0.12888 0.60606 0.95429 0.0
C542 C 0.13328 0.70832 0.92402 0.0
C543 C 0.12562 0.67548 0.89771 0.0
C544 C 0.11965 0.60743 0.89987 0.0
C545 C 0.12124 0.57301 0.92794 0.0
C546 C 0.12467 0.71192 0.86789 0.0
C547 C 0.13328 0.68245 0.843 0.0
C548 C 0.11695 0.77827 0.86483 0.0
C549 C 0.10593 0.80917 0.88908 0.0
C550 C 0.09083 0.77345 0.90078 0.0
C551 C 0.08053 0.8024 0.92371 0.0
C552 C 0.08515 0.86719 0.93511 0.0
C553 C 0.10004 0.90329 0.92349 0.0
C554 C 0.11038 0.8746 0.90051 0.0
C555 C 0.12593 0.85439 0.73232 0.0
C556 C 0.13823 0.91047 0.73476 0.0
C557 C 0.12284 0.81384 0.75789 0.0
C558 C 0.13162 0.82978 0.78644 0.0
C559 C 0.1434 0.88682 0.78918 0.0
C560 C 0.14674 0.92658 0.76358 0.0
C561 C 0.12871 0.787 0.81361 0.0
C562 C 0.11936 0.81537 0.8379 0.0
C563 C 0.1354 0.71924 0.81588 0.0
C564 C 0.1453 0.68666 0.79082 0.0
C565 C 0.16181 0.71541 0.78045 0.0
C566 C 0.17096 0.68462 0.75661 0.0
C567 C 0.1638 0.62474 0.74314 0.0
C568 C 0.14751 0.59542 0.75356 0.0
C569 C 0.1383 0.62608 0.77737 0.0
H570 H 0.1709 0.60097 0.7247 0.0
H571 H 0.07716 0.88948 0.95289 0.0
H572 H 0.87485 0.9572 0.35295 0.0
H573 H 0.87694 0.87923 0.30973 0.0
H574 H 0.84616 0.72709 0.35748 0.0
H575 H 0.84381 0.80526 0.40075 0.0
H576 H 0.87571 0.67144 0.32584 0.0
H577 H 0.82333 0.8205 0.30615 0.0
H578 H 0.80706 0.9312 0.30169 0.0
H579 H 0.84317 0.99318 0.23153 0.0
H580 H 0.85985 0.88316 0.23589 0.0
H581 H 0.84508 0.48384 0.19043 0.0
H582 H 0.84747 0.5462 0.239 0.0
H583 H 0.87744 0.70794 0.19607 0.0
H584 H 0.8751 0.64638 0.14757 0.0
H585 H 0.84772 0.7549 0.22654 0.0
H586 H 0.90008 0.60574 0.246 0.0
H587 H 0.91628 0.4949 0.25021 0.0
H588 H 0.88007 0.43231 0.32014 0.0
H589 H 0.86346 0.54252 0.31603 0.0
C590 C 0.86871 0.90683 0.35442 0.0
C591 C 0.85934 0.88718 0.38042 0.0
C592 C 0.86992 0.86237 0.32971 0.0
C593 C 0.86157 0.79763 0.33032 0.0
C594 C 0.85279 0.77672 0.35666 0.0
C595 C 0.85158 0.82133 0.38148 0.0
C596 C 0.86102 0.75396 0.30263 0.0
C597 C 0.86938 0.68918 0.3042 0.0
C598 C 0.853 0.77768 0.27432 0.0
C599 C 0.84296 0.84384 0.27157 0.0
C600 C 0.8279 0.85795 0.28995 0.0
C601 C 0.81859 0.92054 0.28741 0.0
C602 C 0.82411 0.96927 0.2664 0.0
C603 C 0.83893 0.95542 0.24782 0.0
C604 C 0.84831 0.89294 0.25031 0.0
C605 C 0.85236 0.53232 0.19142 0.0
C606 C 0.85974 0.56042 0.16505 0.0
C607 C 0.85377 0.56775 0.21921 0.0
C608 C 0.86262 0.6317 0.22109 0.0
C609 C 0.8705 0.65877 0.19506 0.0
C610 C 0.86916 0.62339 0.16736 0.0
C611 C 0.86265 0.67268 0.24956 0.0
C612 C 0.85407 0.737 0.24816 0.0
C613 C 0.87043 0.64837 0.27792 0.0
C614 C 0.88039 0.5821 0.28046 0.0
C615 C 0.89545 0.56811 0.26208 0.0
C616 C 0.90474 0.50544 0.26449 0.0
C617 C 0.89917 0.45651 0.28537 0.0
C618 C 0.88434 0.47023 0.30394 0.0
C619 C 0.875 0.53281 0.3016 0.0
H620 H 0.90638 0.40802 0.28721 0.0
H621 H 0.81687 0.01768 0.26445 0.0
H622 H 0.14968 0.18884 0.47018 0.0
H623 H 0.14817 0.24943 0.42161 0.0
H624 H 0.1099 0.09812 0.38302 0.0
H625 H 0.11189 0.03547 0.43161 0.0
H626 H 0.1346 0.12815 0.34332 0.0
H627 H 0.09486 0.26057 0.40331 0.0
H628 H 0.08519 0.32423 0.44841 0.0
H629 H 0.12991 0.46732 0.43839 0.0
H630 H 0.14005 0.4039 0.39353 0.0
H631 H 0.11694 0.35545 0.21396 0.0
H632 H 0.11197 0.28542 0.25899 0.0
H633 H 0.15809 0.38614 0.30779 0.0
H634 H 0.1638 0.45396 0.26251 0.0
H635 H 0.12432 0.37849 0.33987 0.0
H636 H 0.16532 0.23511 0.28259 0.0
H637 H 0.174 0.17081 0.23704 0.0
H638 H 0.12442 0.04839 0.24134 0.0
H639 H 0.11531 0.11274 0.28668 0.0
C640 C 0.14086 0.16845 0.45145 0.0
C641 C 0.13082 0.10748 0.4548 0.0
C642 C 0.13992 0.20345 0.42368 0.0
C643 C 0.1286 0.17922 0.39879 0.0
C644 C 0.11865 0.11802 0.40196 0.0
C645 C 0.11977 0.08234 0.42973 0.0
C646 C 0.12772 0.21725 0.36937 0.0
C647 C 0.13195 0.18263 0.34249 0.0
C648 C 0.12439 0.28851 0.36821 0.0
C649 C 0.11829 0.32715 0.39513 0.0
C650 C 0.10271 0.30534 0.41084 0.0
C651 C 0.09714 0.34142 0.43636 0.0
C652 C 0.10695 0.3997 0.4463 0.0
C653 C 0.12234 0.42212 0.43069 0.0
C654 C 0.12799 0.38617 0.40518 0.0
C655 C 0.12644 0.36135 0.23381 0.0
C656 C 0.14117 0.40906 0.23417 0.0
C657 C 0.12337 0.32186 0.25973 0.0
C658 C 0.13474 0.33041 0.28659 0.0
C659 C 0.14917 0.37881 0.28724 0.0
C660 C 0.1524 0.41749 0.2613 0.0
C661 C 0.13166 0.28959 0.3143 0.0
C662 C 0.12664 0.32379 0.34077 0.0
C663 C 0.13402 0.21799 0.31498 0.0
C664 C 0.13951 0.17931 0.28777 0.0
C665 C 0.15617 0.19495 0.27363 0.0
C666 C 0.16119 0.1584 0.2479 0.0
C667 C 0.14973 0.1057 0.23624 0.0
C668 C 0.13326 0.08932 0.25035 0.0
C669 C 0.12816 0.1258 0.27607 0.0
H670 H 0.15364 0.07743 0.21632 0.0
H671 H 0.10262 0.42756 0.46606 0.0
H672 H 0.56565 0.05938 0.10767 0.0
H673 H 0.53189 0.05325 0.0949 0.0
H674 H 0.54261 0.02058 1.0 0.0
H675 H 0.57633 0.02237 0.01284 0.0
H676 H 0.5179 0.14436 0.02173 0.0
H677 H 0.52679 0.89894 0.02166 0.0
H678 H 0.53789 0.79032 0.04452 0.0
H679 H 0.50334 0.8214 0.12051 0.0
H680 H 0.49226 0.93084 0.09832 0.0
H681 H 0.42242 0.12647 0.97007 0.0
H682 H 0.45624 0.10678 0.9761 0.0
H683 H 0.44993 0.03621 0.06849 0.0
H684 H 0.41618 0.05043 0.06155 0.0
H685 H 0.47337 0.95923 0.04425 0.0
H686 H 0.46591 0.20225 0.05023 0.0
H687 H 0.45537 0.31637 0.03296 0.0
H688 H 0.48745 0.29819 0.95324 0.0
H689 H 0.498 0.18351 0.96985 0.0
C690 C 0.56079 0.0491 0.08425 0.0
C691 C 0.57352 0.04228 0.06115 0.0
C692 C 0.54158 0.04595 0.077 0.0
C693 C 0.53496 0.03672 0.04656 0.0
C694 C 0.5476 0.02793 0.02359 0.0
C695 C 0.56678 0.02965 0.03092 0.0
C696 C 0.51484 0.04195 0.03844 0.0
C697 C 0.5081 0.10364 0.02608 0.0
C698 C 0.50228 0.98935 0.04519 0.0
C699 C 0.50887 0.92346 0.05849 0.0
C700 C 0.52172 0.88301 0.04341 0.0
C701 C 0.52797 0.82119 0.0562 0.0
C702 C 0.52137 0.79907 0.084 0.0
C703 C 0.50846 0.83865 0.09901 0.0
C704 C 0.50219 0.90054 0.08632 0.0
C705 C 0.42835 0.10655 0.99155 0.0
C706 C 0.41683 0.09126 0.01556 0.0
C707 C 0.44763 0.09574 0.99508 0.0
C708 C 0.45568 0.0712 0.02297 0.0
C709 C 0.44408 0.05542 0.04681 0.0
C710 C 0.42482 0.06471 0.04303 0.0
C711 C 0.47617 0.06232 0.02764 0.0
C712 C 0.48306 -2e-05 0.03948 0.0
C713 C 0.48888 0.11511 0.02113 0.0
C714 C 0.48257 0.18402 0.0111 0.0
C715 C 0.4706 0.22239 0.0289 0.0
C716 C 0.46464 0.28719 0.01925 0.0
C717 C 0.47069 0.31442 0.99197 0.0
C718 C 0.48275 0.27697 0.97433 0.0
C719 C 0.48873 0.21209 0.98385 0.0
H720 H 0.46607 0.36462 0.98454 0.0
H721 H 0.52622 0.75119 0.09386 0.0
H722 H 0.41228 0.71292 0.54548 0.0
H723 H 0.44561 0.7405 0.5538 0.0
H724 H 0.45982 0.56059 0.5032 0.0
H725 H 0.42658 0.53185 0.49569 0.0
H726 H 0.4697 0.65046 0.58618 0.0
H727 H 0.50086 0.59657 0.46842 0.0
H728 H 0.49241 0.61459 0.41364 0.0
H729 H 0.45714 0.78257 0.43592 0.0
H730 H 0.46559 0.76629 0.49079 0.0
H731 H 0.55983 0.50183 0.58785 0.0
H732 H 0.52689 0.53541 0.58119 0.0
H733 H 0.54347 0.73506 0.55105 0.0
H734 H 0.57648 0.70206 0.55853 0.0
H735 H 0.51841 0.66844 0.51011 0.0
H736 H 0.52357 0.72791 0.61561 0.0
H737 H 0.53207 0.71188 0.67049 0.0
H738 H 0.4947 0.54074 0.67319 0.0
H739 H 0.48618 0.55505 0.6182 0.0
C740 C 0.42256 0.68021 0.53562 0.0
C741 C 0.41701 0.62028 0.52004 0.0
C742 C 0.44151 0.69596 0.54037 0.0
C743 C 0.45508 0.6526 0.52907 0.0
C744 C 0.44949 0.59507 0.51176 0.0
C745 C 0.43055 0.57884 0.50737 0.0
C746 C 0.47502 0.66212 0.53846 0.0
C747 C 0.48038 0.65525 0.56963 0.0
C748 C 0.48881 0.66934 0.5168 0.0
C749 C 0.48377 0.67985 0.48378 0.0
C750 C 0.49138 0.63758 0.46164 0.0
C751 C 0.48657 0.64745 0.43056 0.0
C752 C 0.47421 0.69958 0.42131 0.0
C753 C 0.46666 0.74205 0.44312 0.0
C754 C 0.47143 0.73244 0.47422 0.0
C755 C 0.5564 0.55353 0.58082 0.0
C756 C 0.57053 0.59969 0.57391 0.0
C757 C 0.53765 0.57256 0.57688 0.0
C758 C 0.53283 0.63775 0.56573 0.0
C759 C 0.54697 0.68463 0.55974 0.0
C760 C 0.56572 0.66584 0.56403 0.0
C761 C 0.51306 0.65413 0.55767 0.0
C762 C 0.50774 0.66532 0.52674 0.0
C763 C 0.49929 0.65113 0.57956 0.0
C764 C 0.50432 0.64237 0.6127 0.0
C765 C 0.51727 0.68653 0.62783 0.0
C766 C 0.52207 0.6778 0.65898 0.0
C767 C 0.51395 0.62528 0.6753 0.0
C768 C 0.50098 0.58142 0.66052 0.0
C769 C 0.49614 0.58988 0.62936 0.0
H770 H 0.51768 0.61861 0.69942 0.0
H771 H 0.47051 0.70712 0.39724 0.0
H772 H 0.07427 0.21083 0.58362 0.0
H773 H 0.04022 0.21175 0.57341 0.0
H774 H 0.03841 0.99501 0.59072 0.0
H775 H 0.07245 0.994 0.60022 0.0
H776 H 0.02157 0.02732 0.53641 0.0
H777 H 0.01996 0.10812 0.6398 0.0
H778 H 0.02824 0.18347 0.68359 0.0
H779 H 0.0059 0.35582 0.63328 0.0
H780 H -0.00228 0.28163 0.589 0.0
H781 H 0.92317 0.98396 0.53074 0.0
H782 H 0.95684 0.98772 0.5439 0.0
H783 H 0.95645 0.20635 0.53122 0.0
H784 H 0.92255 0.20245 0.51912 0.0
H785 H 0.97454 0.17493 0.58292 0.0
H786 H 0.97615 0.09484 0.47951 0.0
H787 H 0.96779 0.01986 0.4356 0.0
H788 H 0.99033 0.84716 0.48543 0.0
H789 H -0.00141 0.92095 0.52981 0.0
C790 C 0.06645 0.16392 0.58591 0.0
C791 C 0.07576 0.10246 0.59276 0.0
C792 C 0.04707 0.16441 0.58014 0.0
C793 C 0.03683 0.10341 0.58137 0.0
C794 C 0.04609 0.04255 0.58966 0.0
C795 C 0.06544 0.04208 0.59533 0.0
C796 C 0.01678 0.10185 0.57134 0.0
C797 C 0.01121 0.05883 0.54687 0.0
C798 C 0.00347 0.14468 0.58436 0.0
C799 C 0.00839 0.18939 0.61097 0.0
C800 C 0.01696 0.16218 0.63797 0.0
C801 C 0.0216 0.20467 0.6629 0.0
C802 C 0.01764 0.27442 0.66119 0.0
C803 C 0.00898 0.3018 0.63456 0.0
C804 C 0.00432 0.25954 0.60955 0.0
C805 C 0.93044 0.03244 0.5302 0.0
C806 C 0.92057 0.09286 0.52369 0.0
C807 C 0.94961 0.03466 0.53768 0.0
C808 C 0.9592 0.09727 0.53821 0.0
C809 C 0.94932 0.15754 0.5309 0.0
C810 C 0.93009 0.15534 0.52379 0.0
C811 C 0.9793 0.10017 0.54803 0.0
C812 C 0.98489 0.14349 0.57242 0.0
C813 C 0.99268 0.05777 0.53486 0.0
C814 C 0.98786 0.01338 0.50808 0.0
C815 C 0.97921 0.0408 0.48118 0.0
C816 C 0.97451 0.99852 0.4562 0.0
C817 C 0.97849 0.92877 0.45775 0.0
C818 C 0.98724 0.90119 0.48427 0.0
C819 C 0.99196 0.94323 0.50933 0.0
H820 H 0.97483 0.89612 0.43839 0.0
H821 H 0.02124 0.30722 0.68053 0.0
H822 H 0.93532 0.45438 0.05863 0.0
H823 H 0.96746 0.49259 0.07045 0.0
H824 H 0.95652 0.67663 0.01834 0.0
H825 H 0.92423 0.63774 0.00625 0.0
H826 H 0.99272 0.62222 0.0121 0.0
H827 H 0.95412 0.69226 0.09089 0.0
H828 H 0.92968 0.68009 0.12812 0.0
H829 H 0.96212 0.52528 0.17581 0.0
H830 H 0.98669 0.53602 0.13868 0.0
H831 H 0.07925 0.72939 0.08327 0.0
H832 H 0.04519 0.74127 0.07473 0.0
H833 H 0.03783 0.53574 0.10732 0.0
H834 H 0.07172 0.52299 0.11481 0.0
H835 H 0.00911 0.63403 0.1238 0.0
H836 H 0.04171 0.54541 0.03449 0.0
H837 H 0.06578 0.55592 0.99642 0.0
H838 H 0.04419 0.75287 0.9698 0.0
H839 H 0.01996 0.74312 0.00762 0.0
C840 C 0.94003 0.50189 0.04896 0.0
C841 C 0.92759 0.54336 0.03162 0.0
C842 C 0.95823 0.524 0.05593 0.0
C843 C 0.9641 0.5881 0.04585 0.0
C844 C 0.95211 0.62729 0.02647 0.0
C845 C 0.93382 0.60499 0.01944 0.0
C846 C 0.98239 0.61494 0.05732 0.0
C847 C 0.99619 0.6267 0.03647 0.0
C848 C 0.98681 0.6209 0.08914 0.0
C849 C 0.97222 0.61479 0.11189 0.0
C850 C 0.95601 0.65542 0.10924 0.0
C851 C 0.94215 0.64888 0.13037 0.0
C852 C 0.94434 0.6019 0.1543 0.0
C853 C 0.96044 0.56165 0.15726 0.0
C854 C 0.97437 0.56809 0.13622 0.0
C855 C 0.07025 0.68763 0.08935 0.0
C856 C 0.07794 0.6251 0.09933 0.0
C857 C 0.0509 0.69448 0.08455 0.0
C858 C 0.03915 0.63914 0.0902 0.0
C859 C 0.04675 0.57902 0.10299 0.0
C860 C 0.06606 0.57184 0.10733 0.0
C861 C 0.01948 0.63904 0.07861 0.0
C862 C 0.00543 0.63202 0.09944 0.0
C863 C 0.01476 0.63824 0.04681 0.0
C864 C 0.02917 0.64378 0.02393 0.0
C865 C 0.04215 0.59094 0.02051 0.0
C866 C 0.05577 0.59665 0.99893 0.0
C867 C 0.05656 0.6551 0.98074 0.0
C868 C 0.04361 0.70766 0.98391 0.0
C869 C 0.02989 0.70198 0.00533 0.0
H870 H 0.0672 0.65959 0.96418 0.0
H871 H 0.93355 0.59672 0.17056 0.0
H872 H 0.16957 0.31804 0.09773 0.0
H873 H 0.19277 0.24321 0.0766 0.0
H874 H 0.17108 0.29054 0.98526 0.0
H875 H 0.1479 0.366 0.00608 0.0
H876 H 0.20088 0.14055 0.03222 0.0
H877 H 0.20568 0.36974 0.95314 0.0
H878 H 0.19425 0.48863 0.94947 0.0
H879 H 0.19612 0.50277 0.04753 0.0
H880 H 0.20777 0.38472 0.05167 0.0
H881 H 0.28775 0.09391 0.96249 0.0
H882 H 0.25461 0.12431 0.96357 0.0
H883 H 0.26838 0.28069 0.03044 0.0
H884 H 0.30143 0.25023 0.02978 0.0
H885 H 0.24043 0.32004 0.98806 0.0
H886 H 0.25719 0.13135 0.05482 0.0
H887 H 0.2693 0.01659 0.06782 0.0
H888 H 0.22704 0.92647 0.00716 0.0
H889 H 0.21487 0.04093 0.99338 0.0
C890 C 0.16907 0.31003 0.07321 0.0
C891 C 0.15743 0.35015 0.05351 0.0
C892 C 0.18234 0.26682 0.06115 0.0
C893 C 0.18395 0.26322 0.02939 0.0
C894 C 0.17018 0.29363 0.00986 0.0
C895 C 0.15698 0.33701 0.02185 0.0
C896 C 0.20226 0.24517 0.01756 0.0
C897 C 0.2094 0.17911 0.02189 0.0
C898 C 0.21357 0.29636 0.00507 0.0
C899 C 0.20739 0.36839 0.00267 0.0
C900 C 0.20375 0.39854 0.97386 0.0
C901 C 0.19721 0.46574 0.97171 0.0
C902 C 0.19439 0.50325 0.99825 0.0
C903 C 0.19825 0.47383 0.02698 0.0
C904 C 0.20483 0.40681 0.02924 0.0
C905 C 0.28378 0.13618 0.97671 0.0
C906 C 0.29714 0.16944 0.99625 0.0
C907 C 0.26484 0.15303 0.97746 0.0
C908 C 0.2591 0.20391 0.99742 0.0
C909 C 0.27258 0.24105 0.01497 0.0
C910 C 0.29144 0.22364 0.01456 0.0
C911 C 0.23908 0.21502 0.0023 0.0
C912 C 0.23168 0.28035 0.99705 0.0
C913 C 0.22783 0.16354 0.01478 0.0
C914 C 0.2353 0.09476 0.0227 0.0
C915 C 0.25063 0.08713 0.04395 0.0
C916 C 0.25747 0.02213 0.05153 0.0
C917 C 0.24899 0.96427 0.03826 0.0
C918 C 0.23363 0.97134 0.01737 0.0
C919 C 0.22676 0.03627 0.00964 0.0
H920 H 0.25426 0.91397 0.04425 0.0
H921 H 0.18924 0.5551 0.99655 0.0
H922 H 0.8156 0.6727 0.06962 0.0
H923 H 0.7858 0.73246 0.06542 0.0
H924 H 0.78411 0.71181 0.96725 0.0
H925 H 0.81398 0.65012 0.97106 0.0
H926 H 0.773 0.85242 0.00114 0.0
H927 H 0.75861 0.61398 0.9858 0.0
H928 H 0.76216 0.49105 0.99668 0.0
H929 H 0.74636 0.52387 0.08878 0.0
H930 H 0.74298 0.64732 0.07857 0.0
H931 H 0.67722 0.95296 0.00612 0.0
H932 H 0.70406 0.88893 0.98939 0.0
H933 H 0.71562 0.81711 0.08165 0.0
H934 H 0.68853 0.87981 0.09852 0.0
H935 H 0.72023 0.71717 0.03878 0.0
H936 H 0.75345 0.95085 0.05652 0.0
H937 H 0.75506 0.07558 0.04893 0.0
H938 H 0.7352 0.05145 0.95518 0.0
H939 H 0.73425 0.92627 0.96199 0.0
C940 C 0.80917 0.68181 0.04701 0.0
C941 C 0.81707 0.65584 0.02067 0.0
C942 C 0.79211 0.71579 0.04472 0.0
C943 C 0.78278 0.72523 0.01611 0.0
C944 C 0.79118 0.70427 0.98951 0.0
C945 C 0.80822 0.66929 0.99177 0.0
C946 C 0.76371 0.75319 0.01487 0.0
C947 C 0.76126 0.82255 0.0084 0.0
C948 C 0.74868 0.71414 0.02511 0.0
C949 C 0.75065 0.63997 0.03145 0.0
C950 C 0.75606 0.5951 0.00846 0.0
C951 C 0.75799 0.52531 0.01448 0.0
C952 C 0.75444 0.49966 0.04337 0.0
C953 C 0.74904 0.54382 0.06637 0.0
C954 C 0.74709 0.6137 0.06047 0.0
C955 C 0.68532 0.92278 0.0228 0.0
C956 C 0.68085 0.92186 0.05372 0.0
C957 C 0.70077 0.88687 0.01323 0.0
C958 C 0.7121 0.84998 0.03444 0.0
C959 C 0.70709 0.84584 0.06497 0.0
C960 C 0.69156 0.88138 0.07455 0.0
C961 C 0.72946 0.81689 0.02522 0.0
C962 C 0.73169 0.74659 0.03026 0.0
C963 C 0.74431 0.85498 0.01361 0.0
C964 C 0.74346 0.9298 0.0099 0.0
C965 C 0.74928 0.97239 0.03439 0.0
C966 C 0.75024 0.04299 0.03015 0.0
C967 C 0.74511 0.07147 0.00165 0.0
C968 C 0.73911 0.02934 0.97727 0.0
C969 C 0.73848 0.95858 0.98124 0.0
H970 H 0.74586 0.12614 0.99842 0.0
H971 H 0.75584 0.44554 0.04791 0.0
H972 H 0.20001 0.61933 0.13976 0.0
H973 H 0.23243 0.66078 0.14078 0.0
H974 H 0.22789 0.68683 0.04282 0.0
H975 H 0.19565 0.64707 0.04149 0.0
H976 H 0.2607 0.61203 0.06692 0.0
H977 H 0.22521 0.82361 0.0816 0.0
H978 H 0.20348 0.89516 0.10957 0.0
H979 H 0.23856 0.87394 0.1918 0.0
H980 H 0.2604 0.80174 0.16431 0.0
H981 H 0.31769 0.85161 0.00256 0.0
H982 H 0.29661 0.76811 0.02272 0.0
H983 H 0.31414 0.82718 0.11494 0.0
H984 H 0.33481 0.91349 0.09472 0.0
H985 H 0.27884 0.83993 0.10793 0.0
H986 H 0.31922 0.65681 0.08748 0.0
H987 H 0.34099 0.58704 0.05889 0.0
H988 H 0.29792 0.55077 0.98862 0.0
H989 H 0.27594 0.62104 0.01653 0.0
C990 C 0.20589 0.63446 0.11849 0.0
C991 C 0.19526 0.62987 0.09054 0.0
C992 C 0.22438 0.65777 0.11913 0.0
C993 C 0.23248 0.67594 0.09183 0.0
C994 C 0.22186 0.67225 0.06406 0.0
C995 C 0.20339 0.65003 0.06342 0.0
C996 C 0.25195 0.7002 0.09169 0.0
C997 C 0.26485 0.66165 0.07596 0.0
C998 C 0.25739 0.76354 0.1046 0.0
C999 C 0.24426 0.80663 0.12107 0.0
C1000 C 0.22817 0.83373 0.10572 0.0
C1001 C 0.21587 0.87452 0.12145 0.0
C1002 C 0.21959 0.88885 0.15248 0.0
C1003 C 0.23566 0.86264 0.1678 0.0
C1004 C 0.24801 0.82184 0.15216 0.0
C1005 C 0.31757 0.84542 0.02714 0.0
C1006 C 0.32767 0.88996 0.04704 0.0
C1007 C 0.30556 0.79705 0.03872 0.0
C1008 C 0.30377 0.79111 0.07043 0.0
C1009 C 0.31524 0.83104 0.0904 0.0
C1010 C 0.32705 0.88029 0.07881 0.0
C1011 C 0.28769 0.75305 0.08193 0.0
C1012 C 0.27525 0.78902 0.0998 0.0
C1013 C 0.28277 0.68703 0.07107 0.0
C1014 C 0.29592 0.64442 0.05414 0.0
C1015 C 0.31441 0.6343 0.06584 0.0
C1016 C 0.32679 0.59459 0.04976 0.0
C1017 C 0.32085 0.56453 0.02195 0.0
C1018 C 0.30249 0.57402 0.01019 0.0
C1019 C 0.29005 0.61365 0.02618 0.0
H1020 H 0.33046 0.53384 0.00953 0.0
H1021 H 0.21005 0.92044 0.16462 0.0
H1022 H 0.67371 0.28894 0.08428 0.0
H1023 H 0.70528 0.33576 0.08605 0.0
H1024 H 0.72296 0.18648 0.15384 0.0
H1025 H 0.69138 0.13896 0.15226 0.0
H1026 H 0.74419 0.34078 0.14512 0.0
H1027 H 0.72746 0.11026 0.09943 0.0
H1028 H 0.70446 0.03897 0.07013 0.0
H1029 H 0.70115 0.18803 0.9981 0.0
H1030 H 0.72418 0.26028 0.02715 0.0
H1031 H 0.83534 0.32596 0.09698 0.0
H1032 H 0.80654 0.27828 0.11573 0.0
H1033 H 0.77762 0.32389 0.02901 0.0
H1034 H 0.80649 0.36863 0.00979 0.0
H1035 H 0.76257 0.21749 0.05211 0.0
H1036 H 0.7812 0.43858 0.08905 0.0
H1037 H 0.80159 0.52444 0.11497 0.0
H1038 H 0.79904 0.41502 0.19965 0.0
H1039 H 0.7787 0.32801 0.17409 0.0
C1040 C 0.68403 0.26835 0.1008 0.0
C1041 C 0.68027 0.20885 0.11734 0.0
C1042 C 0.70205 0.29547 0.1019 0.0
C1043 C 0.7164 0.2635 0.11959 0.0
C1044 C 0.71198 0.21165 0.14005 0.0
C1045 C 0.69389 0.18446 0.13903 0.0
C1046 C 0.73569 0.26941 0.10976 0.0
C1047 C 0.74846 0.313 0.12523 0.0
C1048 C 0.74085 0.23472 0.0832 0.0
C1049 C 0.72744 0.19056 0.06544 0.0
C1050 C 0.72174 0.12789 0.07741 0.0
C1051 C 0.7087 0.08733 0.06084 0.0
C1052 C 0.70129 0.10901 0.03227 0.0
C1053 C 0.7069 0.17132 0.02023 0.0
C1054 C 0.71999 0.21195 0.03668 0.0
C1055 C 0.82302 0.32299 0.08152 0.0
C1056 C 0.82306 0.35167 0.05208 0.0
C1057 C 0.80653 0.29652 0.09236 0.0
C1058 C 0.78981 0.29995 0.07415 0.0
C1059 C 0.79034 0.32138 0.04358 0.0
C1060 C 0.80691 0.34659 0.03252 0.0
C1061 C 0.77153 0.28854 0.08762 0.0
C1062 C 0.75871 0.24426 0.07254 0.0
C1063 C 0.76627 0.32415 0.11414 0.0
C1064 C 0.77851 0.37644 0.12957 0.0
C1065 C 0.785 0.43264 0.11316 0.0
C1066 C 0.79656 0.48155 0.12779 0.0
C1067 C 0.80161 0.47518 0.15894 0.0
C1068 C 0.79511 0.41986 0.17551 0.0
C1069 C 0.78356 0.37075 0.16096 0.0
H1070 H 0.81052 0.51318 0.17024 0.0
H1071 H 0.69128 0.0775 0.01934 0.0
H1072 H 0.15558 0.87029 0.50763 0.0
H1073 H 0.18097 0.79553 0.49341 0.0
H1074 H 0.19163 0.74016 0.58801 0.0
H1075 H 0.16629 0.81387 0.60256 0.0
H1076 H 0.21861 0.83465 0.55381 0.0
H1077 H 0.1852 0.61878 0.55073 0.0
H1078 H 0.1603 0.54024 0.53162 0.0
H1079 H 0.17934 0.55761 0.44057 0.0
H1080 H 0.20421 0.63715 0.45908 0.0
H1081 H 0.30194 0.65236 0.57036 0.0
H1082 H 0.27038 0.69765 0.57071 0.0
H1083 H 0.26288 0.66485 0.4733 0.0
H1084 H 0.29456 0.61767 0.47279 0.0
H1085 H 0.23338 0.61849 0.50141 0.0
H1086 H 0.26749 0.8252 0.50222 0.0
H1087 H 0.29162 0.91009 0.51752 0.0
H1088 H 0.27051 0.92105 0.60735 0.0
H1089 H 0.24653 0.83483 0.59289 0.0
C1090 C 0.16269 0.83973 0.5253 0.0
C1091 C 0.15934 0.85001 0.5564 0.0
C1092 C 0.17719 0.79689 0.51705 0.0
C1093 C 0.18827 0.76357 0.53977 0.0
C1094 C 0.18318 0.76587 0.57022 0.0
C1095 C 0.16865 0.80821 0.57847 0.0
C1096 C 0.2074 0.7424 0.53337 0.0
C1097 C 0.22194 0.78696 0.54272 0.0
C1098 C 0.2114 0.68221 0.51735 0.0
C1099 C 0.19641 0.63465 0.50623 0.0
C1100 C 0.18394 0.60656 0.52657 0.0
C1101 C 0.16987 0.56166 0.51586 0.0
C1102 C 0.1682 0.54413 0.48488 0.0
C1103 C 0.18063 0.57134 0.46455 0.0
C1104 C 0.19472 0.61628 0.47515 0.0
C1105 C 0.29373 0.65543 0.54887 0.0
C1106 C 0.30079 0.63127 0.52153 0.0
C1107 C 0.27567 0.68163 0.54911 0.0
C1108 C 0.26432 0.68513 0.52198 0.0
C1109 C 0.27142 0.66256 0.49447 0.0
C1110 C 0.28955 0.63602 0.49421 0.0
C1111 C 0.2448 0.70954 0.52304 0.0
C1112 C 0.23014 0.66634 0.5124 0.0
C1113 C 0.24059 0.77192 0.53743 0.0
C1114 C 0.25526 0.82298 0.54649 0.0
C1115 C 0.2681 0.8451 0.52535 0.0
C1116 C 0.28173 0.89365 0.53386 0.0
C1117 C 0.28259 0.92102 0.56337 0.0
C1118 C 0.26983 0.89979 0.58448 0.0
C1119 C 0.25622 0.85103 0.57615 0.0
H1120 H 0.29313 0.95864 0.56991 0.0
H1121 H 0.15731 0.50929 0.47666 0.0
H1122 H 0.65182 0.3466 0.49936 0.0
H1123 H 0.67639 0.27278 0.48158 0.0
H1124 H 0.69801 0.24487 0.57461 0.0
H1125 H 0.67351 0.31901 0.59266 0.0
H1126 H 0.71163 0.32704 0.49354 0.0
H1127 H 0.72672 0.09609 0.57468 0.0
H1128 H 0.70962 0.00753 0.60176 0.0
H1129 H 0.66261 0.02937 0.53727 0.0
H1130 H 0.67959 0.11692 0.50933 0.0
H1131 H 0.80544 0.23164 0.53496 0.0
H1132 H 0.77239 0.26377 0.53222 0.0
H1133 H 0.76051 0.10685 0.46487 0.0
H1134 H 0.79363 0.07519 0.4669 0.0
H1135 H 0.73952 0.10275 0.52185 0.0
H1136 H 0.75396 0.25232 0.43875 0.0
H1137 H 0.77233 0.34117 0.41396 0.0
H1138 H 0.76065 0.48245 0.48551 0.0
H1139 H 0.74246 0.39393 0.51085 0.0
C1140 C 0.66136 0.32271 0.51619 0.0
C1141 C 0.66102 0.34002 0.54736 0.0
C1142 C 0.67537 0.28041 0.50596 0.0
C1143 C 0.68913 0.25422 0.52673 0.0
C1144 C 0.68745 0.26439 0.55822 0.0
C1145 C 0.67341 0.30688 0.56852 0.0
C1146 C 0.70707 0.23017 0.51539 0.0
C1147 C 0.71758 0.27746 0.49933 0.0
C1148 C 0.71487 0.16585 0.52324 0.0
C1149 C 0.7044 0.11366 0.54003 0.0
C1150 C 0.71277 0.08186 0.56617 0.0
C1151 C 0.70309 0.03177 0.58168 0.0
C1152 C 0.68501 0.01301 0.57131 0.0
C1153 C 0.67659 0.04418 0.54536 0.0
C1154 C 0.68623 0.09414 0.52969 0.0
C1155 C 0.7959 0.20528 0.5189 0.0
C1156 C 0.80211 0.15078 0.50123 0.0
C1157 C 0.77705 0.22355 0.51743 0.0
C1158 C 0.76412 0.18719 0.49852 0.0
C1159 C 0.77037 0.13528 0.4796 0.0
C1160 C 0.78931 0.11778 0.48061 0.0
C1161 C 0.74397 0.20013 0.50072 0.0
C1162 C 0.73324 0.15139 0.51542 0.0
C1163 C 0.73599 0.26342 0.49209 0.0
C1164 C 0.74686 0.31661 0.47671 0.0
C1165 C 0.7554 0.30223 0.44926 0.0
C1166 C 0.76577 0.35251 0.43509 0.0
C1167 C 0.76766 0.41743 0.44814 0.0
C1168 C 0.75917 0.43221 0.47537 0.0
C1169 C 0.74879 0.38208 0.48961 0.0
H1170 H 0.7757 0.45627 0.43714 0.0
H1171 H 0.67753 0.97422 0.58335 0.0
H1172 H 0.20326 0.08891 0.63876 0.0
H1173 H 0.23685 0.11317 0.63678 0.0
H1174 H 0.22818 0.17914 0.5431 0.0
H1175 H 0.19488 0.15632 0.54482 0.0
H1176 H 0.25775 0.08173 0.55322 0.0
H1177 H 0.23381 0.2945 0.59568 0.0
H1178 H 0.2183 0.36119 0.63486 0.0
H1179 H 0.25861 0.28976 0.70379 0.0
H1180 H 0.27421 0.22197 0.66502 0.0
H1181 H 0.31883 0.32266 0.49868 0.0
H1182 H 0.29687 0.23733 0.51508 0.0
H1183 H 0.32349 0.23992 0.60598 0.0
H1184 H 0.34518 0.32737 0.58989 0.0
H1185 H 0.28923 0.27333 0.60924 0.0
H1186 H 0.31847 0.08881 0.56251 0.0
H1187 H 0.33431 0.02441 0.52307 0.0
H1188 H 0.28524 0.03894 0.46253 0.0
H1189 H 0.26916 0.10431 0.50137 0.0
C1190 C 0.20847 0.10965 0.61792 0.0
C1191 C 0.19636 0.12046 0.59193 0.0
C1192 C 0.22766 0.12289 0.61678 0.0
C1193 C 0.23495 0.14674 0.58962 0.0
C1194 C 0.22282 0.15965 0.56409 0.0
C1195 C 0.20374 0.14714 0.56527 0.0
C1196 C 0.25515 0.15984 0.5873 0.0
C1197 C 0.26478 0.12346 0.56543 0.0
C1198 C 0.26444 0.21203 0.60434 0.0
C1199 C 0.25499 0.25242 0.62759 0.0
C1200 C 0.23924 0.29248 0.61925 0.0
C1201 C 0.23046 0.3306 0.64136 0.0
C1202 C 0.23742 0.32949 0.67182 0.0
C1203 C 0.2532 0.29041 0.68021 0.0
C1204 C 0.26201 0.25214 0.65819 0.0
C1205 C 0.32055 0.30311 0.52182 0.0
C1206 C 0.33345 0.33289 0.54318 0.0
C1207 C 0.30797 0.25384 0.53121 0.0
C1208 C 0.30837 0.23249 0.56192 0.0
C1209 C 0.32279 0.25606 0.58227 0.0
C1210 C 0.33521 0.30598 0.573 0.0
C1211 C 0.29178 0.19775 0.57374 0.0
C1212 C 0.2827 0.22991 0.59756 0.0
C1213 C 0.28307 0.1415 0.55847 0.0
C1214 C 0.29263 0.1019 0.53491 0.0
C1215 C 0.31109 0.07883 0.5407 0.0
C1216 C 0.32011 0.04203 0.51844 0.0
C1217 C 0.31082 0.02783 0.49027 0.0
C1218 C 0.29244 0.05009 0.48435 0.0
C1219 C 0.28334 0.08685 0.50653 0.0
H1220 H 0.31782 0.99931 0.47307 0.0
H1221 H 0.23062 0.35908 0.6889 0.0
H1222 H 0.68022 0.70289 0.54284 0.0
H1223 H 0.71132 0.75421 0.54446 0.0
H1224 H 0.72642 0.64317 0.62726 0.0
H1225 H 0.69523 0.59138 0.62585 0.0
H1226 H 0.73279 0.83063 0.58464 0.0
H1227 H 0.77187 0.57884 0.6162 0.0
H1228 H 0.76607 0.45472 0.6134 0.0
H1229 H 0.72613 0.485 0.5378 0.0
H1230 H 0.73219 0.60865 0.53943 0.0
H1231 H 0.82658 0.91548 0.60108 0.0
H1232 H 0.79981 0.84755 0.61486 0.0
H1233 H 0.7971 0.75434 0.5255 0.0
H1234 H 0.82377 0.82292 0.51114 0.0
H1235 H 0.7851 0.66724 0.57408 0.0
H1236 H 0.77479 0.88793 0.52902 0.0
H1237 H 0.77876 0.01197 0.52322 0.0
H1238 H 0.75827 0.04448 0.61246 0.0
H1239 H 0.7546 0.92015 0.61912 0.0
C1240 C 0.69003 0.69034 0.56173 0.0
C1241 C 0.68538 0.64254 0.58403 0.0
C1242 C 0.70776 0.7199 0.56268 0.0
C1243 C 0.72119 0.70162 0.58572 0.0
C1244 C 0.71625 0.65728 0.60913 0.0
C1245 C 0.69841 0.62806 0.60836 0.0
C1246 C 0.74071 0.72473 0.58355 0.0
C1247 C 0.74428 0.79497 0.58282 0.0
C1248 C 0.75553 0.6779 0.58014 0.0
C1249 C 0.75226 0.60317 0.57831 0.0
C1250 C 0.76194 0.5589 0.59886 0.0
C1251 C 0.75865 0.48857 0.59742 0.0
C1252 C 0.74572 0.46195 0.57548 0.0
C1253 C 0.73616 0.50555 0.55478 0.0
C1254 C 0.73953 0.57576 0.55594 0.0
C1255 C 0.82076 0.87888 0.58463 0.0
C1256 C 0.82695 0.87616 0.55465 0.0
C1257 C 0.80544 0.84009 0.59262 0.0
C1258 C 0.79629 0.79744 0.57092 0.0
C1259 C 0.80397 0.78753 0.54244 0.0
C1260 C 0.81922 0.82684 0.53428 0.0
C1261 C 0.77719 0.77306 0.57589 0.0
C1262 C 0.7737 0.70276 0.57683 0.0
C1263 C 0.76227 0.81981 0.57846 0.0
C1264 C 0.76478 0.89458 0.57482 0.0
C1265 C 0.77142 0.92139 0.54763 0.0
C1266 C 0.77356 0.99182 0.54413 0.0
C1267 C 0.76887 0.03615 0.5675 0.0
C1268 C 0.762 0.01006 0.59443 0.0
C1269 C 0.75992 0.93959 0.5981 0.0
H1270 H 0.77045 0.09069 0.56467 0.0
H1271 H 0.74313 0.40754 0.57446 0.0
loop_
_geom_bond_atom_site_label_1
_geom_bond_atom_site_label_2
_geom_bond_distance
_geom_bond_site_symmetry_2
_ccdc_geom_bond_type
Co0 O3 1.970 1_545 S
Co0 N17 1.989 . S
Co0 O25 1.967 . S
Co0 O32 1.920 . S
Co1 O4 1.966 1_545 S
Co1 N10 2.022 1_544 S
Co1 N18 1.993 . S
Co1 O26 1.942 . S
C2 O3 1.258 . S
C2 O4 1.263 . S
O3 Co0 1.970 1_565 S
O3 C2 1.258 . S
O4 Co1 1.966 1_565 S
O4 C2 1.263 . S
C5 O6 1.235 1_545 S
C5 O32 1.289 . S
O6 C5 1.235 1_565 S
C7 C9 1.400 . S
C7 N10 1.351 . S
C7 C12 1.501 . S
C8 C9 1.387 . S
C8 N11 1.341 1_565 S
C9 C7 1.400 . S
C9 C8 1.387 . S
N10 Co1 2.022 1_566 S
N10 C7 1.351 . S
N10 N11 1.365 1_565 S
N11 C8 1.341 1_545 S
N11 N10 1.365 1_545 S
N11 H31 0.862 . S
C12 C7 1.501 . S
C12 H13 0.961 . S
C12 H14 0.961 . S
C12 H15 0.960 . S
H13 C12 0.961 . S
H14 C12 0.961 . S
H15 C12 0.960 . S
C16 N17 1.342 . S
C16 C20 1.401 . S
C16 C21 1.499 . S
N17 Co0 1.989 . S
N17 C16 1.342 . S
N17 N18 1.388 . S
N18 Co1 1.993 . S
N18 N17 1.388 . S
N18 C19 1.346 . S
C19 N18 1.346 . S
C19 C20 1.396 . S
C19 C29 1.510 1_554 S
C20 C16 1.401 . S
C20 C19 1.396 . S
C21 C16 1.499 . S
C21 H22 0.959 . S
C21 H23 0.960 . S
C21 H24 0.961 . S
H22 C21 0.959 . S
H23 C21 0.960 . S
H24 C21 0.961 . S
O25 Co0 1.967 . S
O25 C33 1.258 . S
O26 Co1 1.942 . S
O26 C33 1.292 . S
H27 C29 0.959 . S
H28 C29 0.961 1_565 S
C29 C19 1.510 1_556 S
C29 H27 0.959 . S
C29 H28 0.961 1_545 S
C29 H30 0.960 1_545 S
H30 C29 0.960 1_565 S
H31 N11 0.862 . S
O32 Co0 1.920 . S
O32 C5 1.289 . S
C33 O25 1.258 . S
C33 O26 1.292 . S
Co34 O37 1.970 1_545 S
Co34 N51 1.989 . S
Co34 O59 1.967 . S
Co34 O66 1.920 1_554 S
Co35 O38 1.966 1_545 S
Co35 N44 2.022 1_545 S
Co35 N52 1.993 . S
Co35 O60 1.941 . S
C36 O37 1.258 . S
C36 O38 1.263 . S
O37 Co34 1.970 1_565 S
O37 C36 1.258 . S
O38 Co35 1.966 1_565 S
O38 C36 1.263 . S
C39 O40 1.235 1_545 S
C39 O66 1.289 . S
O40 C39 1.235 1_565 S
C41 C43 1.400 . S
C41 N44 1.351 . S
C41 C46 1.501 . S
C42 C43 1.387 . S
C42 N45 1.341 1_565 S
C43 C41 1.400 . S
C43 C42 1.387 . S
N44 Co35 2.022 1_565 S
N44 C41 1.351 . S
N44 N45 1.365 1_565 S
N45 C42 1.341 1_545 S
N45 N44 1.365 1_545 S
N45 H65 0.862 . S
C46 C41 1.501 . S
C46 H47 0.961 . S
C46 H48 0.961 . S
C46 H49 0.960 . S
H47 C46 0.961 . S
H48 C46 0.961 . S
H49 C46 0.960 . S
C50 N51 1.342 . S
C50 C54 1.401 . S
C50 C55 1.499 . S
N51 Co34 1.989 . S
N51 C50 1.342 . S
N51 N52 1.388 . S
N52 Co35 1.993 . S
N52 N51 1.388 . S
N52 C53 1.346 . S
C53 N52 1.346 . S
C53 C54 1.396 . S
C53 C63 1.510 . S
C54 C50 1.401 . S
C54 C53 1.396 . S
C55 C50 1.499 . S
C55 H56 0.959 1_554 S
C55 H57 0.952 1_554 S
C55 H58 0.961 . S
H56 C55 0.959 1_556 S
H57 C55 0.952 1_556 S
H58 C55 0.961 . S
O59 Co34 1.967 . S
O59 C67 1.258 . S
O60 Co35 1.941 . S
O60 C67 1.266 . S
H61 C63 0.959 . S
H62 C63 0.961 1_565 S
C63 C53 1.510 . S
C63 H61 0.959 . S
C63 H62 0.961 1_545 S
C63 H64 0.960 1_545 S
H64 C63 0.960 1_565 S
H65 N45 0.862 . S
O66 Co34 1.920 1_556 S
O66 C39 1.289 . S
C67 O59 1.258 . S
C67 O60 1.266 . S
Co68 O71 1.970 . S
Co68 N85 1.989 . S
Co68 O93 1.967 . S
Co68 O100 1.920 . S
Co69 O72 1.966 . S
Co69 N78 2.022 . S
Co69 N86 1.993 . S
Co69 O94 1.941 . S
C70 O71 1.258 . S
C70 O72 1.263 . S
O71 Co68 1.970 . S
O71 C70 1.258 . S
O72 Co69 1.966 . S
O72 C70 1.263 . S
C73 O74 1.235 . S
C73 O100 1.289 . S
O74 C73 1.235 . S
C75 C77 1.400 . S
C75 N78 1.351 . S
C75 C80 1.501 . S
C76 C77 1.387 . S
C76 N79 1.341 . S
C77 C75 1.400 . S
C77 C76 1.387 . S
N78 Co69 2.022 . S
N78 C75 1.351 . S
N78 N79 1.365 . S
N79 C76 1.341 . S
N79 N78 1.365 . S
N79 H99 0.862 . S
C80 C75 1.501 . S
C80 H81 0.961 . S
C80 H82 0.961 . S
C80 H83 0.960 . S
H81 C80 0.961 . S
H82 C80 0.961 . S
H83 C80 0.960 . S
C84 N85 1.342 . S
C84 C88 1.401 . S
C84 C89 1.499 . S
N85 Co68 1.989 . S
N85 C84 1.342 . S
N85 N86 1.388 . S
N86 Co69 1.993 . S
N86 N85 1.388 . S
N86 C87 1.346 . S
C87 N86 1.346 . S
C87 C88 1.396 . S
C87 C97 1.510 . S
C88 C84 1.401 . S
C88 C87 1.396 . S
C89 C84 1.499 . S
C89 H90 0.959 . S
C89 H91 0.960 . S
C89 H92 0.961 . S
H90 C89 0.959 . S
H91 C89 0.960 . S
H92 C89 0.961 . S
O93 Co68 1.967 . S
O93 C101 1.258 . S
O94 Co69 1.941 . S
O94 C101 1.266 . S
H95 C97 0.959 . S
H96 C97 0.961 . S
C97 C87 1.510 . S
C97 H95 0.959 . S
C97 H96 0.961 . S
C97 H98 0.960 . S
H98 C97 0.960 . S
H99 N79 0.862 . S
O100 Co68 1.920 . S
O100 C73 1.289 . S
C101 O93 1.258 . S
C101 O94 1.266 . S
Co102 O105 1.970 . S
Co102 N119 1.989 . S
Co102 O127 1.967 . S
Co102 O134 1.920 . S
Co103 O106 1.966 . S
Co103 N112 2.022 . S
Co103 N120 1.993 . S
Co103 O128 1.941 . S
C104 O105 1.258 . S
C104 O106 1.263 . S
O105 Co102 1.970 . S
O105 C104 1.258 . S
O106 Co103 1.966 . S
O106 C104 1.263 . S
C107 O108 1.235 . S
C107 O134 1.289 . S
O108 C107 1.235 . S
C109 C111 1.400 . S
C109 N112 1.351 . S
C109 C114 1.501 . S
C110 C111 1.387 . S
C110 N113 1.341 . S
C111 C109 1.400 . S
C111 C110 1.387 . S
N112 Co103 2.022 . S
N112 C109 1.351 . S
N112 N113 1.365 . S
N113 C110 1.341 . S
N113 N112 1.365 . S
N113 H133 0.862 . S
C114 C109 1.501 . S
C114 H115 0.961 . S
C114 H116 0.961 . S
C114 H117 0.960 . S
H115 C114 0.961 . S
H116 C114 0.961 . S
H117 C114 0.960 . S
C118 N119 1.342 . S
C118 C122 1.401 . S
C118 C123 1.499 . S
N119 Co102 1.989 . S
N119 C118 1.342 . S
N119 N120 1.388 . S
N120 Co103 1.993 . S
N120 N119 1.388 . S
N120 C121 1.346 . S
C121 N120 1.346 . S
C121 C122 1.396 . S
C121 C131 1.510 . S
C122 C118 1.401 . S
C122 C121 1.396 . S
C123 C118 1.499 . S
C123 H124 0.959 . S
C123 H125 0.960 . S
C123 H126 0.961 . S
H124 C123 0.959 . S
H125 C123 0.960 . S
H126 C123 0.961 . S
O127 Co102 1.967 . S
O127 C135 1.258 . S
O128 Co103 1.941 . S
O128 C135 1.266 . S
H129 C131 0.959 . S
H130 C131 0.961 . S
C131 C121 1.510 . S
C131 H129 0.959 . S
C131 H130 0.961 . S
C131 H132 0.960 . S
H132 C131 0.960 . S
H133 N113 0.862 . S
O134 Co102 1.920 . S
O134 C107 1.289 . S
C135 O127 1.258 . S
C135 O128 1.266 . S
Co136 O139 1.970 1_545 S
Co136 N153 1.989 . S
Co136 O161 1.967 . S
Co136 O168 1.920 . S
Co137 O140 1.966 1_545 S
Co137 N146 2.022 1_545 S
Co137 N154 1.993 . S
Co137 O162 1.941 . S
C138 O139 1.258 . S
C138 O140 1.263 . S
O139 Co136 1.970 1_565 S
O139 C138 1.258 . S
O140 Co137 1.966 1_565 S
O140 C138 1.263 . S
C141 O142 1.235 1_545 S
C141 O168 1.289 . S
O142 C141 1.235 1_565 S
C143 C145 1.400 . S
C143 N146 1.351 . S
C143 C148 1.501 . S
C144 C145 1.387 . S
C144 N147 1.341 1_565 S
C145 C143 1.400 . S
C145 C144 1.387 . S
N146 Co137 2.022 1_565 S
N146 C143 1.351 . S
N146 N147 1.365 1_565 S
N147 C144 1.341 1_545 S
N147 N146 1.365 1_545 S
N147 H167 0.862 . S
C148 C143 1.501 . S
C148 H149 0.961 . S
C148 H150 0.961 . S
C148 H151 0.960 . S
H149 C148 0.961 . S
H150 C148 0.961 . S
H151 C148 0.960 . S
C152 N153 1.342 . S
C152 C156 1.401 . S
C152 C157 1.499 . S
N153 Co136 1.989 . S
N153 C152 1.342 . S
N153 N154 1.388 . S
N154 Co137 1.993 . S
N154 N153 1.388 . S
N154 C155 1.346 . S
C155 N154 1.346 . S
C155 C156 1.396 . S
C155 C165 1.510 . S
C156 C152 1.401 . S
C156 C155 1.396 . S
C157 C152 1.499 . S
C157 H158 0.959 . S
C157 H159 0.960 . S
C157 H160 0.961 . S
H158 C157 0.959 . S
H159 C157 0.960 . S
H160 C157 0.961 . S
O161 Co136 1.967 . S
O161 C169 1.258 . S
O162 Co137 1.941 . S
O162 C169 1.266 . S
H163 C165 0.959 . S
H164 C165 0.961 1_565 S
C165 C155 1.510 . S
C165 H163 0.959 . S
C165 H164 0.961 1_545 S
C165 H166 0.960 1_545 S
H166 C165 0.960 1_565 S
H167 N147 0.862 . S
O168 Co136 1.920 . S
O168 C141 1.289 . S
C169 O161 1.258 . S
C169 O162 1.266 . S
Co170 O173 1.970 1_545 S
Co170 N187 1.989 . S
Co170 O195 1.967 . S
Co170 O202 1.920 . S
Co171 O174 1.966 1_545 S
Co171 N180 2.022 1_545 S
Co171 N188 1.993 . S
Co171 O196 1.941 . S
C172 O173 1.258 . S
C172 O174 1.263 . S
O173 Co170 1.970 1_565 S
O173 C172 1.258 . S
O174 Co171 1.966 1_565 S
O174 C172 1.263 . S
C175 O176 1.235 1_545 S
C175 O202 1.289 . S
O176 C175 1.235 1_565 S
C177 C179 1.400 . S
C177 N180 1.351 . S
C177 C182 1.501 . S
C178 C179 1.387 . S
C178 N181 1.341 1_565 S
C179 C177 1.400 . S
C179 C178 1.387 . S
N180 Co171 2.022 1_565 S
N180 C177 1.351 . S
N180 N181 1.365 1_565 S
N181 C178 1.341 1_545 S
N181 N180 1.365 1_545 S
N181 H201 0.862 . S
C182 C177 1.501 . S
C182 H183 0.961 . S
C182 H184 0.961 . S
C182 H185 0.960 . S
H183 C182 0.961 . S
H184 C182 0.961 . S
H185 C182 0.960 . S
C186 N187 1.342 . S
C186 C190 1.401 . S
C186 C191 1.499 . S
N187 Co170 1.989 . S
N187 C186 1.342 . S
N187 N188 1.388 . S
N188 Co171 1.993 . S
N188 N187 1.388 . S
N188 C189 1.346 . S
C189 N188 1.346 . S
C189 C190 1.396 . S
C189 C199 1.510 . S
C190 C186 1.401 . S
C190 C189 1.396 . S
C191 C186 1.499 . S
C191 H192 0.959 . S
C191 H193 0.960 . S
C191 H194 0.961 . S
H192 C191 0.959 . S
H193 C191 0.960 . S
H194 C191 0.961 . S
O195 Co170 1.967 . S
O195 C203 1.258 . S
O196 Co171 1.941 . S
O196 C203 1.266 . S
H197 C199 0.959 . S
H198 C199 0.961 1_565 S
C199 C189 1.510 . S
C199 H197 0.959 . S
C199 H198 0.961 1_545 S
C199 H200 0.960 1_545 S
H200 C199 0.960 1_565 S
H201 N181 0.862 . S
O202 Co170 1.920 . S
O202 C175 1.289 . S
C203 O195 1.258 . S
C203 O196 1.266 . S
Co204 O207 1.970 . S
Co204 N221 1.989 . S
Co204 O229 1.967 . S
Co204 O236 1.920 . S
Co205 O208 1.966 . S
Co205 N214 2.022 1_554 S
Co205 N222 1.993 . S
Co205 O230 1.942 . S
C206 O207 1.258 . S
C206 O208 1.263 . S
O207 Co204 1.970 . S
O207 C206 1.258 . S
O208 Co205 1.966 . S
O208 C206 1.263 . S
C209 O210 1.235 . S
C209 O236 1.289 . S
O210 C209 1.235 . S
C211 C213 1.400 . S
C211 N214 1.351 . S
C211 C216 1.501 . S
C212 C213 1.387 . S
C212 N215 1.341 . S
C213 C211 1.400 . S
C213 C212 1.387 . S
N214 Co205 2.022 1_556 S
N214 C211 1.351 . S
N214 N215 1.365 . S
N215 C212 1.341 . S
N215 N214 1.365 . S
N215 H235 0.862 . S
C216 C211 1.501 . S
C216 H217 0.961 . S
C216 H218 0.961 . S
C216 H219 0.960 . S
H217 C216 0.961 . S
H218 C216 0.961 . S
H219 C216 0.960 . S
C220 N221 1.342 . S
C220 C224 1.401 . S
C220 C225 1.499 . S
N221 Co204 1.989 . S
N221 C220 1.342 . S
N221 N222 1.388 . S
N222 Co205 1.993 . S
N222 N221 1.388 . S
N222 C223 1.346 . S
C223 N222 1.346 . S
C223 C224 1.396 . S
C223 C233 1.510 1_554 S
C224 C220 1.401 . S
C224 C223 1.396 . S
C225 C220 1.499 . S
C225 H226 0.959 . S
C225 H227 0.960 . S
C225 H228 0.961 . S
H226 C225 0.959 . S
H227 C225 0.960 . S
H228 C225 0.961 . S
O229 Co204 1.967 . S
O229 C237 1.258 . S
O230 Co205 1.942 . S
O230 C237 1.292 . S
H231 C233 0.959 . S
H232 C233 0.961 . S
C233 C223 1.510 1_556 S
C233 H231 0.959 . S
C233 H232 0.961 . S
C233 H234 0.960 . S
H234 C233 0.960 . S
H235 N215 0.862 . S
O236 Co204 1.920 . S
O236 C209 1.289 . S
C237 O229 1.258 . S
C237 O230 1.292 . S
Co238 O241 1.970 . S
Co238 N255 1.989 . S
Co238 O263 1.967 . S
Co238 O270 1.920 1_554 S
Co239 O242 1.966 . S
Co239 N248 2.022 . S
Co239 N256 1.993 . S
Co239 O264 1.941 . S
C240 O241 1.258 . S
C240 O242 1.263 . S
O241 Co238 1.970 . S
O241 C240 1.258 . S
O242 Co239 1.966 . S
O242 C240 1.263 . S
C243 O244 1.235 . S
C243 O270 1.289 . S
O244 C243 1.235 . S
C245 C247 1.400 . S
C245 N248 1.351 . S
C245 C250 1.501 . S
C246 C247 1.387 . S
C246 N249 1.341 . S
C247 C245 1.400 . S
C247 C246 1.387 . S
N248 Co239 2.022 . S
N248 C245 1.351 . S
N248 N249 1.365 . S
N249 C246 1.341 . S
N249 N248 1.365 . S
N249 H269 0.862 . S
C250 C245 1.501 . S
C250 H251 0.961 . S
C250 H252 0.961 . S
C250 H253 0.960 . S
H251 C250 0.961 . S
H252 C250 0.961 . S
H253 C250 0.960 . S
C254 N255 1.342 . S
C254 C258 1.401 . S
C254 C259 1.499 . S
N255 Co238 1.989 . S
N255 C254 1.342 . S
N255 N256 1.388 . S
N256 Co239 1.993 . S
N256 N255 1.388 . S
N256 C257 1.346 . S
C257 N256 1.346 . S
C257 C258 1.396 . S
C257 C267 1.510 . S
C258 C254 1.401 . S
C258 C257 1.396 . S
C259 C254 1.499 . S
C259 H260 0.959 1_554 S
C259 H261 0.951 1_554 S
C259 H262 0.961 . S
H260 C259 0.959 1_556 S
H261 C259 0.951 1_556 S
H262 C259 0.961 . S
O263 Co238 1.967 . S
O263 C271 1.258 . S
O264 Co239 1.941 . S
O264 C271 1.266 . S
H265 C267 0.959 . S
H266 C267 0.961 . S
C267 C257 1.510 . S
C267 H265 0.959 . S
C267 H266 0.961 . S
C267 H268 0.960 . S
H268 C267 0.960 . S
H269 N249 0.862 . S
O270 Co238 1.920 1_556 S
O270 C243 1.289 . S
C271 O263 1.258 . S
C271 O264 1.266 . S
H272 C290 0.951 . S
H273 C292 0.951 . S
H274 C294 0.950 . S
H275 C295 0.950 . S
H276 C297 0.950 . S
H277 C300 0.950 . S
H278 C301 0.950 . S
H279 C303 0.950 . S
H280 C304 0.950 . S
H281 C305 0.951 . S
H282 C307 0.951 . S
H283 C309 0.950 . S
H284 C310 0.950 . S
H285 C312 0.950 . S
H286 C315 0.950 . S
H287 C316 0.950 . S
H288 C318 0.950 . S
H289 C319 0.950 . S
C290 H272 0.951 . S
C290 C291 1.366 . S
C290 C292 1.388 . S
C291 C290 1.366 . S
C291 C295 1.385 . S
C292 H273 0.951 . S
C292 C290 1.388 . S
C292 C293 1.366 . S
C293 C292 1.366 . S
C293 C294 1.414 . S
C293 C296 1.499 . S
C294 H274 0.950 . S
C294 C293 1.414 . S
C294 C295 1.374 . S
C295 H275 0.950 . S
C295 C291 1.385 . S
C295 C294 1.374 . S
C296 C293 1.499 . S
C296 C297 1.373 . S
C296 C298 1.389 . S
C297 H276 0.950 . S
C297 C296 1.373 . S
C297 C313 1.377 . S
C298 C296 1.389 . S
C298 C299 1.524 . S
C298 C312 1.377 . S
C299 C298 1.524 . S
C299 C300 1.397 . S
C299 C304 1.363 . S
C300 H277 0.950 . S
C300 C299 1.397 . S
C300 C301 1.334 . S
C301 H278 0.950 . S
C301 C300 1.334 . S
C301 C302 1.287 . S
C302 C301 1.287 . S
C302 C303 1.524 . S
C302 H321 0.913 . S
C303 H279 0.950 . S
C303 C302 1.524 . S
C303 C304 1.415 . S
C304 H280 0.950 . S
C304 C299 1.363 . S
C304 C303 1.415 . S
C305 H281 0.951 . S
C305 C306 1.366 . S
C305 C307 1.388 . S
C306 C305 1.366 . S
C306 C310 1.385 . S
C307 H282 0.951 . S
C307 C305 1.388 . S
C307 C308 1.366 . S
C308 C307 1.366 . S
C308 C309 1.414 . S
C308 C311 1.499 . S
C309 H283 0.950 . S
C309 C308 1.414 . S
C309 C310 1.374 . S
C310 H284 0.950 . S
C310 C306 1.385 . S
C310 C309 1.374 . S
C311 C308 1.499 . S
C311 C312 1.373 . S
C311 C313 1.389 . S
C312 H285 0.950 . S
C312 C298 1.377 . S
C312 C311 1.373 . S
C313 C297 1.377 . S
C313 C311 1.389 . S
C313 C314 1.524 . S
C314 C313 1.524 . S
C314 C315 1.397 . S
C314 C319 1.363 . S
C315 H286 0.950 . S
C315 C314 1.397 . S
C315 C316 1.334 . S
C316 H287 0.950 . S
C316 C315 1.334 . S
C316 C317 1.287 . S
C317 C316 1.287 . S
C317 C318 1.524 . S
C317 H320 0.999 . S
C318 H288 0.950 . S
C318 C317 1.524 . S
C318 C319 1.415 . S
C319 H289 0.950 . S
C319 C314 1.363 . S
C319 C318 1.415 . S
H320 C317 0.999 . S
H321 C302 0.913 . S
H322 C340 0.951 . S
H323 C342 0.951 . S
H324 C344 0.950 . S
H325 C345 0.950 . S
H326 C347 0.950 . S
H327 C350 0.950 . S
H328 C351 0.950 . S
H329 C353 0.950 . S
H330 C354 0.950 . S
H331 C355 0.951 . S
H332 C357 0.951 . S
H333 C359 0.950 . S
H334 C360 0.950 . S
H335 C362 0.950 . S
H336 C365 0.950 . S
H337 C366 0.950 . S
H338 C368 0.950 . S
H339 C369 0.950 . S
C340 H322 0.951 . S
C340 C341 1.366 . S
C340 C342 1.388 . S
C341 C340 1.366 . S
C341 C345 1.385 . S
C342 H323 0.951 . S
C342 C340 1.388 . S
C342 C343 1.366 . S
C343 C342 1.366 . S
C343 C344 1.414 . S
C343 C346 1.499 . S
C344 H324 0.950 . S
C344 C343 1.414 . S
C344 C345 1.374 . S
C345 H325 0.950 . S
C345 C341 1.385 . S
C345 C344 1.374 . S
C346 C343 1.499 . S
C346 C347 1.373 . S
C346 C348 1.389 . S
C347 H326 0.950 . S
C347 C346 1.373 . S
C347 C363 1.377 . S
C348 C346 1.389 . S
C348 C349 1.524 . S
C348 C362 1.377 . S
C349 C348 1.524 . S
C349 C350 1.397 . S
C349 C354 1.363 . S
C350 H327 0.950 . S
C350 C349 1.397 . S
C350 C351 1.334 . S
C351 H328 0.950 . S
C351 C350 1.334 . S
C351 C352 1.287 . S
C352 C351 1.287 . S
C352 C353 1.524 . S
C352 H371 0.913 . S
C353 H329 0.950 . S
C353 C352 1.524 . S
C353 C354 1.415 . S
C354 H330 0.950 . S
C354 C349 1.363 . S
C354 C353 1.415 . S
C355 H331 0.951 . S
C355 C356 1.366 . S
C355 C357 1.388 . S
C356 C355 1.366 . S
C356 C360 1.385 . S
C357 H332 0.951 . S
C357 C355 1.388 . S
C357 C358 1.366 . S
C358 C357 1.366 . S
C358 C359 1.414 . S
C358 C361 1.499 . S
C359 H333 0.950 . S
C359 C358 1.414 . S
C359 C360 1.374 . S
C360 H334 0.950 . S
C360 C356 1.385 . S
C360 C359 1.374 . S
C361 C358 1.499 . S
C361 C362 1.373 . S
C361 C363 1.389 . S
C362 H335 0.950 . S
C362 C348 1.377 . S
C362 C361 1.373 . S
C363 C347 1.377 . S
C363 C361 1.389 . S
C363 C364 1.524 . S
C364 C363 1.524 . S
C364 C365 1.397 . S
C364 C369 1.363 . S
C365 H336 0.950 . S
C365 C364 1.397 . S
C365 C366 1.334 . S
C366 H337 0.950 . S
C366 C365 1.334 . S
C366 C367 1.287 . S
C367 C366 1.287 . S
C367 C368 1.524 . S
C367 H370 0.999 . S
C368 H338 0.950 . S
C368 C367 1.524 . S
C368 C369 1.415 . S
C369 H339 0.950 . S
C369 C364 1.363 . S
C369 C368 1.415 . S
H370 C367 0.999 . S
H371 C352 0.913 . S
H372 C390 0.951 . S
H373 C392 0.951 . S
H374 C394 0.950 . S
H375 C395 0.950 . S
H376 C397 0.950 . S
H377 C400 0.950 . S
H378 C401 0.950 . S
H379 C403 0.950 . S
H380 C404 0.950 . S
H381 C405 0.951 . S
H382 C407 0.951 . S
H383 C409 0.950 . S
H384 C410 0.950 . S
H385 C412 0.950 . S
H386 C415 0.950 . S
H387 C416 0.950 . S
H388 C418 0.950 . S
H389 C419 0.950 . S
C390 H372 0.951 . S
C390 C391 1.366 . S
C390 C392 1.388 . S
C391 C390 1.366 . S
C391 C395 1.385 . S
C392 H373 0.951 . S
C392 C390 1.388 . S
C392 C393 1.366 . S
C393 C392 1.366 . S
C393 C394 1.414 . S
C393 C396 1.499 . S
C394 H374 0.950 . S
C394 C393 1.414 . S
C394 C395 1.374 . S
C395 H375 0.950 . S
C395 C391 1.385 . S
C395 C394 1.374 . S
C396 C393 1.499 . S
C396 C397 1.373 . S
C396 C398 1.389 . S
C397 H376 0.950 . S
C397 C396 1.373 . S
C397 C413 1.377 . S
C398 C396 1.389 . S
C398 C399 1.524 . S
C398 C412 1.377 . S
C399 C398 1.524 . S
C399 C400 1.397 . S
C399 C404 1.363 . S
C400 H377 0.950 . S
C400 C399 1.397 . S
C400 C401 1.334 . S
C401 H378 0.950 . S
C401 C400 1.334 . S
C401 C402 1.287 . S
C402 C401 1.287 . S
C402 C403 1.524 . S
C402 H421 0.913 . S
C403 H379 0.950 . S
C403 C402 1.524 . S
C403 C404 1.415 . S
C404 H380 0.950 . S
C404 C399 1.363 . S
C404 C403 1.415 . S
C405 H381 0.951 . S
C405 C406 1.366 . S
C405 C407 1.388 . S
C406 C405 1.366 . S
C406 C410 1.385 . S
C407 H382 0.951 . S
C407 C405 1.388 . S
C407 C408 1.366 . S
C408 C407 1.366 . S
C408 C409 1.414 . S
C408 C411 1.499 . S
C409 H383 0.950 . S
C409 C408 1.414 . S
C409 C410 1.374 . S
C410 H384 0.950 . S
C410 C406 1.385 . S
C410 C409 1.374 . S
C411 C408 1.499 . S
C411 C412 1.373 . S
C411 C413 1.389 . S
C412 H385 0.950 . S
C412 C398 1.377 . S
C412 C411 1.373 . S
C413 C397 1.377 . S
C413 C411 1.389 . S
C413 C414 1.524 . S
C414 C413 1.524 . S
C414 C415 1.397 . S
C414 C419 1.363 . S
C415 H386 0.950 . S
C415 C414 1.397 . S
C415 C416 1.334 . S
C416 H387 0.950 . S
C416 C415 1.334 . S
C416 C417 1.287 . S
C417 C416 1.287 . S
C417 C418 1.524 . S
C417 H420 0.999 . S
C418 H388 0.950 . S
C418 C417 1.524 . S
C418 C419 1.415 . S
C419 H389 0.950 . S
C419 C414 1.363 . S
C419 C418 1.415 . S
H420 C417 0.999 . S
H421 C402 0.913 . S
H422 C440 0.951 . S
H423 C442 0.951 . S
H424 C444 0.950 . S
H425 C445 0.950 . S
H426 C447 0.950 . S
H427 C450 0.950 . S
H428 C451 0.950 . S
H429 C453 0.950 . S
H430 C454 0.950 . S
H431 C455 0.951 . S
H432 C457 0.951 . S
H433 C459 0.950 . S
H434 C460 0.950 . S
H435 C462 0.950 . S
H436 C465 0.950 . S
H437 C466 0.950 . S
H438 C468 0.939 1_565 S
H439 C469 0.950 . S
C440 H422 0.951 . S
C440 C441 1.366 . S
C440 C442 1.388 . S
C441 C440 1.366 . S
C441 C445 1.385 . S
C442 H423 0.951 . S
C442 C440 1.388 . S
C442 C443 1.366 . S
C443 C442 1.366 . S
C443 C444 1.414 . S
C443 C446 1.499 . S
C444 H424 0.950 . S
C444 C443 1.414 . S
C444 C445 1.374 . S
C445 H425 0.950 . S
C445 C441 1.385 . S
C445 C444 1.374 . S
C446 C443 1.499 . S
C446 C447 1.373 . S
C446 C448 1.389 . S
C447 H426 0.950 . S
C447 C446 1.373 . S
C447 C463 1.377 . S
C448 C446 1.389 . S
C448 C449 1.524 . S
C448 C462 1.377 . S
C449 C448 1.524 . S
C449 C450 1.397 . S
C449 C454 1.363 . S
C450 H427 0.950 . S
C450 C449 1.397 . S
C450 C451 1.334 . S
C451 H428 0.950 . S
C451 C450 1.334 . S
C451 C452 1.287 . S
C452 C451 1.287 . S
C452 C453 1.524 . S
C452 H471 0.913 . S
C453 H429 0.950 . S
C453 C452 1.524 . S
C453 C454 1.415 . S
C454 H430 0.950 . S
C454 C449 1.363 . S
C454 C453 1.415 . S
C455 H431 0.951 . S
C455 C456 1.366 . S
C455 C457 1.388 . S
C456 C455 1.366 . S
C456 C460 1.385 . S
C457 H432 0.951 . S
C457 C455 1.388 . S
C457 C458 1.366 . S
C458 C457 1.366 . S
C458 C459 1.414 . S
C458 C461 1.499 . S
C459 H433 0.950 . S
C459 C458 1.414 . S
C459 C460 1.374 . S
C460 H434 0.950 . S
C460 C456 1.385 . S
C460 C459 1.374 . S
C461 C458 1.499 . S
C461 C462 1.373 . S
C461 C463 1.389 . S
C462 H435 0.950 . S
C462 C448 1.377 . S
C462 C461 1.373 . S
C463 C447 1.377 . S
C463 C461 1.389 . S
C463 C464 1.524 . S
C464 C463 1.524 . S
C464 C465 1.397 . S
C464 C469 1.363 . S
C465 H436 0.950 . S
C465 C464 1.397 . S
C465 C466 1.334 . S
C466 H437 0.950 . S
C466 C465 1.334 . S
C466 C467 1.287 . S
C467 C466 1.287 . S
C467 C468 1.525 . S
C467 H470 0.999 1_545 S
C468 H438 0.939 1_545 S
C468 C467 1.525 . S
C468 C469 1.425 . S
C469 H439 0.950 . S
C469 C464 1.363 . S
C469 C468 1.425 . S
H470 C467 0.999 1_565 S
H471 C452 0.913 . S
H472 C490 0.951 . S
H473 C492 0.951 . S
H474 C494 0.950 . S
H475 C495 0.950 . S
H476 C497 0.950 . S
H477 C500 0.950 . S
H478 C501 0.950 . S
H479 C503 0.950 . S
H480 C504 0.950 . S
H481 C505 0.951 . S
H482 C507 0.951 . S
H483 C509 0.950 . S
H484 C510 0.950 . S
H485 C512 0.950 . S
H486 C515 0.950 . S
H487 C516 0.950 . S
H488 C518 0.950 . S
H489 C519 0.950 . S
C490 H472 0.951 . S
C490 C491 1.366 . S
C490 C492 1.388 . S
C491 C490 1.366 . S
C491 C495 1.385 . S
C492 H473 0.951 . S
C492 C490 1.388 . S
C492 C493 1.366 . S
C493 C492 1.366 . S
C493 C494 1.414 . S
C493 C496 1.499 . S
C494 H474 0.950 . S
C494 C493 1.414 . S
C494 C495 1.374 . S
C495 H475 0.950 . S
C495 C491 1.385 . S
C495 C494 1.374 . S
C496 C493 1.499 . S
C496 C497 1.373 . S
C496 C498 1.389 . S
C497 H476 0.950 . S
C497 C496 1.373 . S
C497 C513 1.377 . S
C498 C496 1.389 . S
C498 C499 1.524 . S
C498 C512 1.377 . S
C499 C498 1.524 . S
C499 C500 1.397 . S
C499 C504 1.363 . S
C500 H477 0.950 . S
C500 C499 1.397 . S
C500 C501 1.334 . S
C501 H478 0.950 . S
C501 C500 1.334 . S
C501 C502 1.287 . S
C502 C501 1.287 . S
C502 C503 1.524 . S
C502 H521 0.913 . S
C503 H479 0.950 . S
C503 C502 1.524 . S
C503 C504 1.415 . S
C504 H480 0.950 . S
C504 C499 1.363 . S
C504 C503 1.415 . S
C505 H481 0.951 . S
C505 C506 1.366 . S
C505 C507 1.388 . S
C506 C505 1.366 . S
C506 C510 1.385 . S
C507 H482 0.951 . S
C507 C505 1.388 . S
C507 C508 1.366 . S
C508 C507 1.366 . S
C508 C509 1.414 . S
C508 C511 1.499 . S
C509 H483 0.950 . S
C509 C508 1.414 . S
C509 C510 1.374 . S
C510 H484 0.950 . S
C510 C506 1.385 . S
C510 C509 1.374 . S
C511 C508 1.499 . S
C511 C512 1.373 . S
C511 C513 1.389 . S
C512 H485 0.950 . S
C512 C498 1.377 . S
C512 C511 1.373 . S
C513 C497 1.377 . S
C513 C511 1.389 . S
C513 C514 1.524 . S
C514 C513 1.524 . S
C514 C515 1.397 . S
C514 C519 1.363 . S
C515 H486 0.950 . S
C515 C514 1.397 . S
C515 C516 1.334 . S
C516 H487 0.950 . S
C516 C515 1.334 . S
C516 C517 1.287 . S
C517 C516 1.287 . S
C517 C518 1.524 . S
C517 H520 0.999 . S
C518 H488 0.950 . S
C518 C517 1.524 . S
C518 C519 1.415 . S
C519 H489 0.950 . S
C519 C514 1.363 . S
C519 C518 1.415 . S
H520 C517 0.999 . S
H521 C502 0.913 . S
H522 C540 0.951 . S
H523 C542 0.951 . S
H524 C544 0.950 . S
H525 C545 0.950 . S
H526 C547 0.950 . S
H527 C550 0.950 . S
H528 C551 0.950 . S
H529 C553 0.950 . S
H530 C554 0.950 . S
H531 C555 0.951 . S
H532 C557 0.951 . S
H533 C559 0.950 . S
H534 C560 0.950 . S
H535 C562 0.950 . S
H536 C565 0.950 . S
H537 C566 0.950 . S
H538 C568 0.950 . S
H539 C569 0.950 . S
C540 H522 0.951 . S
C540 C541 1.366 . S
C540 C542 1.388 . S
C541 C540 1.366 . S
C541 C545 1.385 . S
C542 H523 0.951 . S
C542 C540 1.388 . S
C542 C543 1.366 . S
C543 C542 1.366 . S
C543 C544 1.414 . S
C543 C546 1.499 . S
C544 H524 0.950 . S
C544 C543 1.414 . S
C544 C545 1.374 . S
C545 H525 0.950 . S
C545 C541 1.385 . S
C545 C544 1.374 . S
C546 C543 1.499 . S
C546 C547 1.373 . S
C546 C548 1.389 . S
C547 H526 0.950 . S
C547 C546 1.373 . S
C547 C563 1.377 . S
C548 C546 1.389 . S
C548 C549 1.524 . S
C548 C562 1.377 . S
C549 C548 1.524 . S
C549 C550 1.397 . S
C549 C554 1.363 . S
C550 H527 0.950 . S
C550 C549 1.397 . S
C550 C551 1.334 . S
C551 H528 0.950 . S
C551 C550 1.334 . S
C551 C552 1.287 . S
C552 C551 1.287 . S
C552 C553 1.524 . S
C552 H571 0.913 . S
C553 H529 0.950 . S
C553 C552 1.524 . S
C553 C554 1.415 . S
C554 H530 0.950 . S
C554 C549 1.363 . S
C554 C553 1.415 . S
C555 H531 0.951 . S
C555 C556 1.366 . S
C555 C557 1.388 . S
C556 C555 1.366 . S
C556 C560 1.385 . S
C557 H532 0.951 . S
C557 C555 1.388 . S
C557 C558 1.366 . S
C558 C557 1.366 . S
C558 C559 1.414 . S
C558 C561 1.499 . S
C559 H533 0.950 . S
C559 C558 1.414 . S
C559 C560 1.374 . S
C560 H534 0.950 . S
C560 C556 1.385 . S
C560 C559 1.374 . S
C561 C558 1.499 . S
C561 C562 1.373 . S
C561 C563 1.389 . S
C562 H535 0.950 . S
C562 C548 1.377 . S
C562 C561 1.373 . S
C563 C547 1.377 . S
C563 C561 1.389 . S
C563 C564 1.524 . S
C564 C563 1.524 . S
C564 C565 1.397 . S
C564 C569 1.363 . S
C565 H536 0.950 . S
C565 C564 1.397 . S
C565 C566 1.334 . S
C566 H537 0.950 . S
C566 C565 1.334 . S
C566 C567 1.287 . S
C567 C566 1.287 . S
C567 C568 1.524 . S
C567 H570 0.999 . S
C568 H538 0.950 . S
C568 C567 1.524 . S
C568 C569 1.415 . S
C569 H539 0.950 . S
C569 C564 1.363 . S
C569 C568 1.415 . S
H570 C567 0.999 . S
H571 C552 0.913 . S
H572 C590 0.951 . S
H573 C592 0.951 . S
H574 C594 0.950 . S
H575 C595 0.950 . S
H576 C597 0.950 . S
H577 C600 0.950 . S
H578 C601 0.950 . S
H579 C603 0.950 1_545 S
H580 C604 0.950 . S
H581 C605 0.951 . S
H582 C607 0.951 . S
H583 C609 0.950 . S
H584 C610 0.950 . S
H585 C612 0.950 . S
H586 C615 0.950 . S
H587 C616 0.950 . S
H588 C618 0.950 . S
H589 C619 0.950 . S
C590 H572 0.951 . S
C590 C591 1.366 . S
C590 C592 1.388 . S
C591 C590 1.366 . S
C591 C595 1.385 . S
C592 H573 0.951 . S
C592 C590 1.388 . S
C592 C593 1.366 . S
C593 C592 1.366 . S
C593 C594 1.414 . S
C593 C596 1.499 . S
C594 H574 0.950 . S
C594 C593 1.414 . S
C594 C595 1.374 . S
C595 H575 0.950 . S
C595 C591 1.385 . S
C595 C594 1.374 . S
C596 C593 1.499 . S
C596 C597 1.373 . S
C596 C598 1.389 . S
C597 H576 0.950 . S
C597 C596 1.373 . S
C597 C613 1.377 . S
C598 C596 1.389 . S
C598 C599 1.524 . S
C598 C612 1.377 . S
C599 C598 1.524 . S
C599 C600 1.397 . S
C599 C604 1.363 . S
C600 H577 0.950 . S
C600 C599 1.397 . S
C600 C601 1.334 . S
C601 H578 0.950 . S
C601 C600 1.334 . S
C601 C602 1.287 . S
C602 C601 1.287 . S
C602 C603 1.524 . S
C602 H621 0.913 . S
C603 H579 0.950 1_565 S
C603 C602 1.524 . S
C603 C604 1.415 . S
C604 H580 0.950 . S
C604 C599 1.363 . S
C604 C603 1.415 . S
C605 H581 0.951 . S
C605 C606 1.366 . S
C605 C607 1.388 . S
C606 C605 1.366 . S
C606 C610 1.385 . S
C607 H582 0.951 . S
C607 C605 1.388 . S
C607 C608 1.366 . S
C608 C607 1.366 . S
C608 C609 1.414 . S
C608 C611 1.499 . S
C609 H583 0.950 . S
C609 C608 1.414 . S
C609 C610 1.374 . S
C610 H584 0.950 . S
C610 C606 1.385 . S
C610 C609 1.374 . S
C611 C608 1.499 . S
C611 C612 1.373 . S
C611 C613 1.389 . S
C612 H585 0.950 . S
C612 C598 1.377 . S
C612 C611 1.373 . S
C613 C597 1.377 . S
C613 C611 1.389 . S
C613 C614 1.524 . S
C614 C613 1.524 . S
C614 C615 1.397 . S
C614 C619 1.363 . S
C615 H586 0.950 . S
C615 C614 1.397 . S
C615 C616 1.334 . S
C616 H587 0.950 . S
C616 C615 1.334 . S
C616 C617 1.287 . S
C617 C616 1.287 . S
C617 C618 1.524 . S
C617 H620 0.999 . S
C618 H588 0.950 . S
C618 C617 1.524 . S
C618 C619 1.415 . S
C619 H589 0.950 . S
C619 C614 1.363 . S
C619 C618 1.415 . S
H620 C617 0.999 . S
H621 C602 0.913 . S
H622 C640 0.951 . S
H623 C642 0.951 . S
H624 C644 0.950 . S
H625 C645 0.950 . S
H626 C647 0.950 . S
H627 C650 0.950 . S
H628 C651 0.950 . S
H629 C653 0.950 . S
H630 C654 0.950 . S
H631 C655 0.951 . S
H632 C657 0.951 . S
H633 C659 0.950 . S
H634 C660 0.950 . S
H635 C662 0.950 . S
H636 C665 0.950 . S
H637 C666 0.950 . S
H638 C668 0.950 . S
H639 C669 0.950 . S
C640 H622 0.951 . S
C640 C641 1.366 . S
C640 C642 1.388 . S
C641 C640 1.366 . S
C641 C645 1.385 . S
C642 H623 0.951 . S
C642 C640 1.388 . S
C642 C643 1.366 . S
C643 C642 1.366 . S
C643 C644 1.414 . S
C643 C646 1.499 . S
C644 H624 0.950 . S
C644 C643 1.414 . S
C644 C645 1.374 . S
C645 H625 0.950 . S
C645 C641 1.385 . S
C645 C644 1.374 . S
C646 C643 1.499 . S
C646 C647 1.373 . S
C646 C648 1.389 . S
C647 H626 0.950 . S
C647 C646 1.373 . S
C647 C663 1.377 . S
C648 C646 1.389 . S
C648 C649 1.524 . S
C648 C662 1.377 . S
C649 C648 1.524 . S
C649 C650 1.397 . S
C649 C654 1.363 . S
C650 H627 0.950 . S
C650 C649 1.397 . S
C650 C651 1.334 . S
C651 H628 0.950 . S
C651 C650 1.334 . S
C651 C652 1.287 . S
C652 C651 1.287 . S
C652 C653 1.524 . S
C652 H671 0.913 . S
C653 H629 0.950 . S
C653 C652 1.524 . S
C653 C654 1.415 . S
C654 H630 0.950 . S
C654 C649 1.363 . S
C654 C653 1.415 . S
C655 H631 0.951 . S
C655 C656 1.366 . S
C655 C657 1.388 . S
C656 C655 1.366 . S
C656 C660 1.385 . S
C657 H632 0.951 . S
C657 C655 1.388 . S
C657 C658 1.366 . S
C658 C657 1.366 . S
C658 C659 1.414 . S
C658 C661 1.499 . S
C659 H633 0.950 . S
C659 C658 1.414 . S
C659 C660 1.374 . S
C660 H634 0.950 . S
C660 C656 1.385 . S
C660 C659 1.374 . S
C661 C658 1.499 . S
C661 C662 1.373 . S
C661 C663 1.389 . S
C662 H635 0.950 . S
C662 C648 1.377 . S
C662 C661 1.373 . S
C663 C647 1.377 . S
C663 C661 1.389 . S
C663 C664 1.524 . S
C664 C663 1.524 . S
C664 C665 1.397 . S
C664 C669 1.363 . S
C665 H636 0.950 . S
C665 C664 1.397 . S
C665 C666 1.334 . S
C666 H637 0.950 . S
C666 C665 1.334 . S
C666 C667 1.287 . S
C667 C666 1.287 . S
C667 C668 1.524 . S
C667 H670 0.999 . S
C668 H638 0.950 . S
C668 C667 1.524 . S
C668 C669 1.415 . S
C669 H639 0.950 . S
C669 C664 1.363 . S
C669 C668 1.415 . S
H670 C667 0.999 . S
H671 C652 0.913 . S
H672 C690 0.951 . S
H673 C692 0.951 . S
H674 C694 0.950 . S
H675 C695 0.950 . S
H676 C697 0.950 . S
H677 C700 0.950 . S
H678 C701 0.950 . S
H679 C703 0.950 . S
H680 C704 0.950 . S
H681 C705 0.951 1_556 S
H682 C707 0.951 1_556 S
H683 C709 0.950 . S
H684 C710 0.950 . S
H685 C712 0.950 1_565 S
H686 C715 0.950 . S
H687 C716 0.950 . S
H688 C718 0.950 . S
H689 C719 0.950 . S
C690 H672 0.951 . S
C690 C691 1.366 . S
C690 C692 1.388 . S
C691 C690 1.366 . S
C691 C695 1.385 . S
C692 H673 0.951 . S
C692 C690 1.388 . S
C692 C693 1.366 . S
C693 C692 1.366 . S
C693 C694 1.414 . S
C693 C696 1.499 . S
C694 H674 0.950 . S
C694 C693 1.414 . S
C694 C695 1.374 . S
C695 H675 0.950 . S
C695 C691 1.385 . S
C695 C694 1.374 . S
C696 C693 1.499 . S
C696 C697 1.373 . S
C696 C698 1.389 . S
C697 H676 0.950 . S
C697 C696 1.373 . S
C697 C713 1.377 . S
C698 C696 1.389 . S
C698 C699 1.524 1_545 S
C698 C712 1.377 . S
C699 C698 1.524 1_565 S
C699 C700 1.397 . S
C699 C704 1.363 . S
C700 H677 0.950 . S
C700 C699 1.397 . S
C700 C701 1.334 . S
C701 H678 0.950 . S
C701 C700 1.334 . S
C701 C702 1.287 . S
C702 C701 1.287 . S
C702 C703 1.524 . S
C702 H721 0.913 . S
C703 H679 0.950 . S
C703 C702 1.524 . S
C703 C704 1.415 . S
C704 H680 0.950 . S
C704 C699 1.363 . S
C704 C703 1.415 . S
C705 H681 0.951 1_554 S
C705 C706 1.366 . S
C705 C707 1.388 . S
C706 C705 1.366 . S
C706 C710 1.385 . S
C707 H682 0.951 1_554 S
C707 C705 1.388 . S
C707 C708 1.366 . S
C708 C707 1.366 . S
C708 C709 1.414 . S
C708 C711 1.499 . S
C709 H683 0.950 . S
C709 C708 1.414 . S
C709 C710 1.374 . S
C710 H684 0.950 . S
C710 C706 1.385 . S
C710 C709 1.374 . S
C711 C708 1.499 . S
C711 C712 1.373 . S
C711 C713 1.389 . S
C712 H685 0.950 1_545 S
C712 C698 1.377 . S
C712 C711 1.373 . S
C713 C697 1.377 . S
C713 C711 1.389 . S
C713 C714 1.524 . S
C714 C713 1.524 . S
C714 C715 1.397 . S
C714 C719 1.363 1_554 S
C715 H686 0.950 . S
C715 C714 1.397 . S
C715 C716 1.334 . S
C716 H687 0.950 . S
C716 C715 1.334 . S
C716 C717 1.287 1_554 S
C717 C716 1.287 1_556 S
C717 C718 1.524 . S
C717 H720 0.999 . S
C718 H688 0.950 . S
C718 C717 1.524 . S
C718 C719 1.415 . S
C719 H689 0.950 . S
C719 C714 1.363 1_556 S
C719 C718 1.415 . S
H720 C717 0.999 . S
H721 C702 0.913 . S
H722 C740 0.951 . S
H723 C742 0.951 . S
H724 C744 0.950 . S
H725 C745 0.950 . S
H726 C747 0.950 . S
H727 C750 0.950 . S
H728 C751 0.950 . S
H729 C753 0.950 . S
H730 C754 0.950 . S
H731 C755 0.951 . S
H732 C757 0.951 . S
H733 C759 0.950 . S
H734 C760 0.950 . S
H735 C762 0.950 . S
H736 C765 0.950 . S
H737 C766 0.950 . S
H738 C768 0.950 . S
H739 C769 0.950 . S
C740 H722 0.951 . S
C740 C741 1.366 . S
C740 C742 1.388 . S
C741 C740 1.366 . S
C741 C745 1.385 . S
C742 H723 0.951 . S
C742 C740 1.388 . S
C742 C743 1.366 . S
C743 C742 1.366 . S
C743 C744 1.414 . S
C743 C746 1.499 . S
C744 H724 0.950 . S
C744 C743 1.414 . S
C744 C745 1.374 . S
C745 H725 0.950 . S
C745 C741 1.385 . S
C745 C744 1.374 . S
C746 C743 1.499 . S
C746 C747 1.373 . S
C746 C748 1.389 . S
C747 H726 0.950 . S
C747 C746 1.373 . S
C747 C763 1.377 . S
C748 C746 1.389 . S
C748 C749 1.524 . S
C748 C762 1.377 . S
C749 C748 1.524 . S
C749 C750 1.397 . S
C749 C754 1.363 . S
C750 H727 0.950 . S
C750 C749 1.397 . S
C750 C751 1.334 . S
C751 H728 0.950 . S
C751 C750 1.334 . S
C751 C752 1.287 . S
C752 C751 1.287 . S
C752 C753 1.524 . S
C752 H771 0.913 . S
C753 H729 0.950 . S
C753 C752 1.524 . S
C753 C754 1.415 . S
C754 H730 0.950 . S
C754 C749 1.363 . S
C754 C753 1.415 . S
C755 H731 0.951 . S
C755 C756 1.366 . S
C755 C757 1.388 . S
C756 C755 1.366 . S
C756 C760 1.385 . S
C757 H732 0.951 . S
C757 C755 1.388 . S
C757 C758 1.366 . S
C758 C757 1.366 . S
C758 C759 1.414 . S
C758 C761 1.499 . S
C759 H733 0.950 . S
C759 C758 1.414 . S
C759 C760 1.374 . S
C760 H734 0.950 . S
C760 C756 1.385 . S
C760 C759 1.374 . S
C761 C758 1.499 . S
C761 C762 1.373 . S
C761 C763 1.389 . S
C762 H735 0.950 . S
C762 C748 1.377 . S
C762 C761 1.373 . S
C763 C747 1.377 . S
C763 C761 1.389 . S
C763 C764 1.524 . S
C764 C763 1.524 . S
C764 C765 1.397 . S
C764 C769 1.363 . S
C765 H736 0.950 . S
C765 C764 1.397 . S
C765 C766 1.334 . S
C766 H737 0.950 . S
C766 C765 1.334 . S
C766 C767 1.287 . S
C767 C766 1.287 . S
C767 C768 1.524 . S
C767 H770 0.999 . S
C768 H738 0.950 . S
C768 C767 1.524 . S
C768 C769 1.415 . S
C769 H739 0.950 . S
C769 C764 1.363 . S
C769 C768 1.415 . S
H770 C767 0.999 . S
H771 C752 0.913 . S
H772 C790 0.951 . S
H773 C792 0.951 . S
H774 C794 0.950 . S
H775 C795 0.950 . S
H776 C797 0.950 1_565 S
H777 C800 0.950 . S
H778 C801 0.950 . S
H779 C803 0.950 . S
H780 C804 0.950 . S
H781 C805 0.951 . S
H782 C807 0.951 . S
H783 C809 0.950 . S
H784 C810 0.950 . S
H785 C812 0.950 . S
H786 C815 0.950 . S
H787 C816 0.950 . S
H788 C818 0.950 . S
H789 C819 0.950 . S
C790 H772 0.951 . S
C790 C791 1.366 . S
C790 C792 1.388 . S
C791 C790 1.366 . S
C791 C795 1.385 . S
C792 H773 0.951 . S
C792 C790 1.388 . S
C792 C793 1.366 . S
C793 C792 1.366 . S
C793 C794 1.414 . S
C793 C796 1.499 . S
C794 H774 0.950 . S
C794 C793 1.414 . S
C794 C795 1.374 . S
C795 H775 0.950 . S
C795 C791 1.385 . S
C795 C794 1.374 . S
C796 C793 1.499 . S
C796 C797 1.373 . S
C796 C798 1.389 . S
C797 H776 0.950 1_545 S
C797 C796 1.373 . S
C797 C813 1.376 1_445 S
C798 C796 1.389 . S
C798 C799 1.524 . S
C798 C812 1.377 1_455 S
C799 C798 1.524 . S
C799 C800 1.397 . S
C799 C804 1.363 . S
C800 H777 0.950 . S
C800 C799 1.397 . S
C800 C801 1.334 . S
C801 H778 0.950 . S
C801 C800 1.334 . S
C801 C802 1.287 . S
C802 C801 1.287 . S
C802 C803 1.524 . S
C802 H821 0.913 . S
C803 H779 0.950 . S
C803 C802 1.524 . S
C803 C804 1.415 . S
C804 H780 0.950 . S
C804 C799 1.363 . S
C804 C803 1.415 . S
C805 H781 0.951 . S
C805 C806 1.366 . S
C805 C807 1.388 . S
C806 C805 1.366 . S
C806 C810 1.385 . S
C807 H782 0.951 . S
C807 C805 1.388 . S
C807 C808 1.366 . S
C808 C807 1.366 . S
C808 C809 1.414 . S
C808 C811 1.499 . S
C809 H783 0.950 . S
C809 C808 1.414 . S
C809 C810 1.374 . S
C810 H784 0.950 . S
C810 C806 1.385 . S
C810 C809 1.374 . S
C811 C808 1.499 . S
C811 C812 1.373 . S
C811 C813 1.389 1_545 S
C812 H785 0.950 . S
C812 C798 1.377 1_655 S
C812 C811 1.373 . S
C813 C797 1.376 1_665 S
C813 C811 1.389 1_565 S
C813 C814 1.524 . S
C814 C813 1.524 . S
C814 C815 1.397 . S
C814 C819 1.363 . S
C815 H786 0.950 . S
C815 C814 1.397 . S
C815 C816 1.334 . S
C816 H787 0.950 . S
C816 C815 1.334 . S
C816 C817 1.287 . S
C817 C816 1.287 . S
C817 C818 1.524 . S
C817 H820 0.999 . S
C818 H788 0.950 . S
C818 C817 1.524 . S
C818 C819 1.415 . S
C819 H789 0.950 . S
C819 C814 1.363 . S
C819 C818 1.415 . S
H820 C817 0.999 . S
H821 C802 0.913 . S
H822 C840 0.951 . S
H823 C842 0.951 . S
H824 C844 0.950 . S
H825 C845 0.950 . S
H826 C847 0.950 . S
H827 C850 0.950 . S
H828 C851 0.950 . S
H829 C853 0.950 . S
H830 C854 0.950 . S
H831 C855 0.951 . S
H832 C857 0.951 . S
H833 C859 0.950 . S
H834 C860 0.950 . S
H835 C862 0.950 . S
H836 C865 0.968 . S
H837 C866 0.950 . S
H838 C868 0.950 . S
H839 C869 0.950 . S
C840 H822 0.951 . S
C840 C841 1.366 . S
C840 C842 1.388 . S
C841 C840 1.366 . S
C841 C845 1.385 . S
C842 H823 0.951 . S
C842 C840 1.388 . S
C842 C843 1.366 . S
C843 C842 1.366 . S
C843 C844 1.414 . S
C843 C846 1.499 . S
C844 H824 0.950 . S
C844 C843 1.414 . S
C844 C845 1.374 . S
C845 H825 0.950 . S
C845 C841 1.385 . S
C845 C844 1.374 . S
C846 C843 1.499 . S
C846 C847 1.373 . S
C846 C848 1.389 . S
C847 H826 0.950 . S
C847 C846 1.373 . S
C847 C863 1.377 1_655 S
C848 C846 1.389 . S
C848 C849 1.524 . S
C848 C862 1.377 1_655 S
C849 C848 1.524 . S
C849 C850 1.397 . S
C849 C854 1.363 . S
C850 H827 0.950 . S
C850 C849 1.397 . S
C850 C851 1.334 . S
C851 H828 0.950 . S
C851 C850 1.334 . S
C851 C852 1.287 . S
C852 C851 1.287 . S
C852 C853 1.524 . S
C852 H871 0.913 . S
C853 H829 0.950 . S
C853 C852 1.524 . S
C853 C854 1.415 . S
C854 H830 0.950 . S
C854 C849 1.363 . S
C854 C853 1.415 . S
C855 H831 0.951 . S
C855 C856 1.366 . S
C855 C857 1.388 . S
C856 C855 1.366 . S
C856 C860 1.385 . S
C857 H832 0.951 . S
C857 C855 1.388 . S
C857 C858 1.366 . S
C858 C857 1.366 . S
C858 C859 1.414 . S
C858 C861 1.499 . S
C859 H833 0.950 . S
C859 C858 1.414 . S
C859 C860 1.374 . S
C860 H834 0.950 . S
C860 C856 1.385 . S
C860 C859 1.374 . S
C861 C858 1.499 . S
C861 C862 1.373 . S
C861 C863 1.389 . S
C862 H835 0.950 . S
C862 C848 1.377 1_455 S
C862 C861 1.373 . S
C863 C847 1.377 1_455 S
C863 C861 1.389 . S
C863 C864 1.524 1_554 S
C864 C863 1.524 1_556 S
C864 C865 1.396 1_556 S
C864 C869 1.363 . S
C865 H836 0.968 . S
C865 C864 1.396 1_554 S
C865 C866 1.318 1_554 S
C866 H837 0.950 . S
C866 C865 1.318 1_556 S
C866 C867 1.287 . S
C867 C866 1.287 . S
C867 C868 1.524 . S
C867 H870 0.999 . S
C868 H838 0.950 . S
C868 C867 1.524 . S
C868 C869 1.415 . S
C869 H839 0.950 . S
C869 C864 1.363 . S
C869 C868 1.415 . S
H870 C867 0.999 . S
H871 C852 0.913 . S
H872 C890 0.951 . S
H873 C892 0.951 . S
H874 C894 0.950 . S
H875 C895 0.950 . S
H876 C897 0.950 . S
H877 C900 0.950 . S
H878 C901 0.950 . S
H879 C903 0.950 . S
H880 C904 0.950 . S
H881 C905 0.951 . S
H882 C907 0.951 . S
H883 C909 0.950 . S
H884 C910 0.950 . S
H885 C912 0.950 . S
H886 C915 0.950 . S
H887 C916 0.950 . S
H888 C918 0.950 . S
H889 C919 0.950 . S
C890 H872 0.951 . S
C890 C891 1.366 . S
C890 C892 1.388 . S
C891 C890 1.366 . S
C891 C895 1.385 . S
C892 H873 0.951 . S
C892 C890 1.388 . S
C892 C893 1.366 . S
C893 C892 1.366 . S
C893 C894 1.414 . S
C893 C896 1.499 . S
C894 H874 0.950 . S
C894 C893 1.414 . S
C894 C895 1.374 . S
C895 H875 0.950 . S
C895 C891 1.385 . S
C895 C894 1.374 . S
C896 C893 1.499 . S
C896 C897 1.373 . S
C896 C898 1.389 . S
C897 H876 0.950 . S
C897 C896 1.373 . S
C897 C913 1.377 . S
C898 C896 1.389 . S
C898 C899 1.547 . S
C898 C912 1.377 . S
C899 C898 1.547 . S
C899 C900 1.374 1_554 S
C899 C904 1.362 . S
C900 H877 0.950 . S
C900 C899 1.374 1_556 S
C900 C901 1.334 . S
C901 H878 0.950 . S
C901 C900 1.334 . S
C901 C902 1.287 . S
C902 C901 1.287 . S
C902 C903 1.524 . S
C902 H921 0.913 . S
C903 H879 0.950 . S
C903 C902 1.524 . S
C903 C904 1.415 1_556 S
C904 H880 0.950 . S
C904 C899 1.362 . S
C904 C903 1.415 1_554 S
C905 H881 0.951 . S
C905 C906 1.366 . S
C905 C907 1.388 . S
C906 C905 1.366 . S
C906 C910 1.385 . S
C907 H882 0.951 . S
C907 C905 1.388 . S
C907 C908 1.366 . S
C908 C907 1.366 . S
C908 C909 1.414 . S
C908 C911 1.499 . S
C909 H883 0.950 . S
C909 C908 1.414 . S
C909 C910 1.374 . S
C910 H884 0.950 . S
C910 C906 1.385 . S
C910 C909 1.374 . S
C911 C908 1.499 . S
C911 C912 1.373 . S
C911 C913 1.389 . S
C912 H885 0.950 . S
C912 C898 1.377 . S
C912 C911 1.373 . S
C913 C897 1.377 . S
C913 C911 1.389 . S
C913 C914 1.524 . S
C914 C913 1.524 . S
C914 C915 1.397 . S
C914 C919 1.363 . S
C915 H886 0.950 . S
C915 C914 1.397 . S
C915 C916 1.334 . S
C916 H887 0.950 . S
C916 C915 1.334 . S
C916 C917 1.287 . S
C917 C916 1.287 . S
C917 C918 1.524 . S
C917 H920 0.999 . S
C918 H888 0.950 . S
C918 C917 1.524 . S
C918 C919 1.415 . S
C919 H889 0.950 . S
C919 C914 1.363 . S
C919 C918 1.415 . S
H920 C917 0.999 . S
H921 C902 0.913 . S
H922 C940 0.951 . S
H923 C942 0.951 . S
H924 C944 0.943 1_556 S
H925 C945 0.950 . S
H926 C947 0.938 1_556 S
H927 C950 0.950 . S
H928 C951 0.950 . S
H929 C953 0.950 . S
H930 C954 0.950 . S
H931 C955 0.951 . S
H932 C957 0.954 . S
H933 C959 0.950 . S
H934 C960 0.950 . S
H935 C962 0.950 . S
H936 C965 0.950 . S
H937 C966 0.950 . S
H938 C968 0.950 . S
H939 C969 0.950 . S
C940 H922 0.951 . S
C940 C941 1.366 . S
C940 C942 1.388 . S
C941 C940 1.366 . S
C941 C945 1.385 1_554 S
C942 H923 0.951 . S
C942 C940 1.388 . S
C942 C943 1.366 . S
C943 C942 1.366 . S
C943 C944 1.423 . S
C943 C946 1.499 . S
C944 H924 0.943 1_554 S
C944 C943 1.423 . S
C944 C945 1.372 1_554 S
C945 H925 0.950 . S
C945 C941 1.385 1_556 S
C945 C944 1.372 1_556 S
C946 C943 1.499 . S
C946 C947 1.373 . S
C946 C948 1.389 . S
C947 H926 0.938 1_554 S
C947 C946 1.373 . S
C947 C963 1.377 . S
C948 C946 1.389 . S
C948 C949 1.524 . S
C948 C962 1.377 . S
C949 C948 1.524 . S
C949 C950 1.397 . S
C949 C954 1.363 . S
C950 H927 0.950 . S
C950 C949 1.397 . S
C950 C951 1.334 . S
C951 H928 0.950 . S
C951 C950 1.334 . S
C951 C952 1.287 . S
C952 C951 1.287 . S
C952 C953 1.524 . S
C952 H971 0.913 . S
C953 H929 0.950 . S
C953 C952 1.524 . S
C953 C954 1.415 . S
C954 H930 0.950 . S
C954 C949 1.363 . S
C954 C953 1.415 . S
C955 H931 0.951 . S
C955 C956 1.366 . S
C955 C957 1.388 . S
C956 C955 1.366 . S
C956 C960 1.385 . S
C957 H932 0.954 . S
C957 C955 1.388 . S
C957 C958 1.366 . S
C958 C957 1.366 . S
C958 C959 1.414 . S
C958 C961 1.499 . S
C959 H933 0.950 . S
C959 C958 1.414 . S
C959 C960 1.374 . S
C960 H934 0.950 . S
C960 C956 1.385 . S
C960 C959 1.374 . S
C961 C958 1.499 . S
C961 C962 1.373 . S
C961 C963 1.389 . S
C962 H935 0.950 . S
C962 C948 1.377 . S
C962 C961 1.373 . S
C963 C947 1.377 . S
C963 C961 1.389 . S
C963 C964 1.531 . S
C964 C963 1.531 . S
C964 C965 1.403 . S
C964 C969 1.351 1_554 S
C965 H936 0.950 . S
C965 C964 1.403 . S
C965 C966 1.334 1_565 S
C966 H937 0.950 . S
C966 C965 1.334 1_545 S
C966 C967 1.287 1_554 S
C967 C966 1.287 1_556 S
C967 C968 1.524 1_545 S
C967 H970 0.999 . S
C968 H938 0.950 . S
C968 C967 1.524 1_565 S
C968 C969 1.415 . S
C969 H939 0.950 . S
C969 C964 1.351 1_556 S
C969 C968 1.415 . S
H970 C967 0.999 . S
H971 C952 0.913 . S
H972 C990 0.951 . S
H973 C992 0.951 . S
H974 C994 0.950 . S
H975 C995 0.950 . S
H976 C997 0.950 . S
H977 C1000 0.950 . S
H978 C1001 0.950 . S
H979 C1003 0.950 . S
H980 C1004 0.950 . S
H981 C1005 0.951 . S
H982 C1007 0.951 . S
H983 C1009 0.950 . S
H984 C1010 0.950 . S
H985 C1012 0.950 . S
H986 C1015 0.956 . S
H987 C1016 0.950 . S
H988 C1018 0.950 . S
H989 C1019 0.950 1_554 S
C990 H972 0.951 . S
C990 C991 1.366 . S
C990 C992 1.388 . S
C991 C990 1.366 . S
C991 C995 1.385 . S
C992 H973 0.951 . S
C992 C990 1.388 . S
C992 C993 1.366 . S
C993 C992 1.366 . S
C993 C994 1.414 . S
C993 C996 1.499 . S
C994 H974 0.950 . S
C994 C993 1.414 . S
C994 C995 1.374 . S
C995 H975 0.950 . S
C995 C991 1.385 . S
C995 C994 1.374 . S
C996 C993 1.499 . S
C996 C997 1.373 . S
C996 C998 1.389 . S
C997 H976 0.950 . S
C997 C996 1.373 . S
C997 C1013 1.377 . S
C998 C996 1.389 . S
C998 C999 1.524 . S
C998 C1012 1.377 . S
C999 C998 1.524 . S
C999 C1000 1.397 . S
C999 C1004 1.363 . S
C1000 H977 0.950 . S
C1000 C999 1.397 . S
C1000 C1001 1.334 . S
C1001 H978 0.950 . S
C1001 C1000 1.334 . S
C1001 C1002 1.287 . S
C1002 C1001 1.287 . S
C1002 C1003 1.524 . S
C1002 H1021 0.913 . S
C1003 H979 0.950 . S
C1003 C1002 1.524 . S
C1003 C1004 1.415 . S
C1004 H980 0.950 . S
C1004 C999 1.363 . S
C1004 C1003 1.415 . S
C1005 H981 0.951 . S
C1005 C1006 1.366 . S
C1005 C1007 1.388 . S
C1006 C1005 1.366 . S
C1006 C1010 1.385 . S
C1007 H982 0.951 . S
C1007 C1005 1.388 . S
C1007 C1008 1.366 . S
C1008 C1007 1.366 . S
C1008 C1009 1.414 . S
C1008 C1011 1.499 . S
C1009 H983 0.950 . S
C1009 C1008 1.414 . S
C1009 C1010 1.374 . S
C1010 H984 0.950 . S
C1010 C1006 1.385 . S
C1010 C1009 1.374 . S
C1011 C1008 1.499 . S
C1011 C1012 1.373 . S
C1011 C1013 1.389 . S
C1012 H985 0.950 . S
C1012 C998 1.377 . S
C1012 C1011 1.373 . S
C1013 C997 1.377 . S
C1013 C1011 1.389 . S
C1013 C1014 1.524 . S
C1014 C1013 1.524 . S
C1014 C1015 1.397 1_554 S
C1014 C1019 1.363 1_554 S
C1015 H986 0.956 . S
C1015 C1014 1.397 1_556 S
C1015 C1016 1.334 . S
C1016 H987 0.950 . S
C1016 C1015 1.334 . S
C1016 C1017 1.287 . S
C1017 C1016 1.287 . S
C1017 C1018 1.524 . S
C1017 H1020 0.999 . S
C1018 H988 0.950 . S
C1018 C1017 1.524 . S
C1018 C1019 1.415 . S
C1019 H989 0.950 1_556 S
C1019 C1014 1.363 1_556 S
C1019 C1018 1.415 . S
H1020 C1017 0.999 . S
H1021 C1002 0.913 . S
H1022 C1040 0.951 . S
H1023 C1042 0.951 . S
H1024 C1044 0.950 . S
H1025 C1045 0.950 . S
H1026 C1047 0.950 . S
H1027 C1050 0.950 . S
H1028 C1051 0.950 . S
H1029 C1053 0.950 . S
H1030 C1054 0.950 . S
H1031 C1055 0.951 . S
H1032 C1057 0.951 . S
H1033 C1059 0.950 . S
H1034 C1060 0.950 . S
H1035 C1062 0.950 . S
H1036 C1065 0.950 . S
H1037 C1066 0.950 . S
H1038 C1068 0.950 . S
H1039 C1069 0.950 . S
C1040 H1022 0.951 . S
C1040 C1041 1.366 . S
C1040 C1042 1.388 . S
C1041 C1040 1.366 . S
C1041 C1045 1.385 . S
C1042 H1023 0.951 . S
C1042 C1040 1.388 . S
C1042 C1043 1.366 . S
C1043 C1042 1.366 . S
C1043 C1044 1.414 . S
C1043 C1046 1.499 . S
C1044 H1024 0.950 . S
C1044 C1043 1.414 . S
C1044 C1045 1.374 . S
C1045 H1025 0.950 . S
C1045 C1041 1.385 . S
C1045 C1044 1.374 . S
C1046 C1043 1.499 . S
C1046 C1047 1.373 . S
C1046 C1048 1.389 . S
C1047 H1026 0.950 . S
C1047 C1046 1.373 . S
C1047 C1063 1.377 . S
C1048 C1046 1.389 . S
C1048 C1049 1.524 . S
C1048 C1062 1.377 . S
C1049 C1048 1.524 . S
C1049 C1050 1.397 . S
C1049 C1054 1.363 1_554 S
C1050 H1027 0.950 . S
C1050 C1049 1.397 . S
C1050 C1051 1.334 1_554 S
C1051 H1028 0.950 . S
C1051 C1050 1.334 1_556 S
C1051 C1052 1.287 . S
C1052 C1051 1.287 . S
C1052 C1053 1.524 . S
C1052 H1071 0.913 . S
C1053 H1029 0.950 . S
C1053 C1052 1.524 . S
C1053 C1054 1.415 . S
C1054 H1030 0.950 . S
C1054 C1049 1.363 1_556 S
C1054 C1053 1.415 . S
C1055 H1031 0.951 . S
C1055 C1056 1.366 . S
C1055 C1057 1.388 . S
C1056 C1055 1.366 . S
C1056 C1060 1.385 . S
C1057 H1032 0.951 . S
C1057 C1055 1.388 . S
C1057 C1058 1.366 . S
C1058 C1057 1.366 . S
C1058 C1059 1.414 . S
C1058 C1061 1.499 . S
C1059 H1033 0.950 . S
C1059 C1058 1.414 . S
C1059 C1060 1.374 . S
C1060 H1034 0.950 . S
C1060 C1056 1.385 . S
C1060 C1059 1.374 . S
C1061 C1058 1.499 . S
C1061 C1062 1.373 . S
C1061 C1063 1.389 . S
C1062 H1035 0.950 . S
C1062 C1048 1.377 . S
C1062 C1061 1.373 . S
C1063 C1047 1.377 . S
C1063 C1061 1.389 . S
C1063 C1064 1.524 . S
C1064 C1063 1.524 . S
C1064 C1065 1.397 . S
C1064 C1069 1.363 . S
C1065 H1036 0.950 . S
C1065 C1064 1.397 . S
C1065 C1066 1.334 . S
C1066 H1037 0.950 . S
C1066 C1065 1.334 . S
C1066 C1067 1.287 . S
C1067 C1066 1.287 . S
C1067 C1068 1.524 . S
C1067 H1070 0.999 . S
C1068 H1038 0.950 . S
C1068 C1067 1.524 . S
C1068 C1069 1.415 . S
C1069 H1039 0.950 . S
C1069 C1064 1.363 . S
C1069 C1068 1.415 . S
H1070 C1067 0.999 . S
H1071 C1052 0.913 . S
H1072 C1090 0.951 . S
H1073 C1092 0.951 . S
H1074 C1094 0.950 . S
H1075 C1095 0.950 . S
H1076 C1097 0.950 . S
H1077 C1100 0.950 . S
H1078 C1101 0.950 . S
H1079 C1103 0.950 . S
H1080 C1104 0.950 . S
H1081 C1105 0.951 . S
H1082 C1107 0.951 . S
H1083 C1109 0.950 . S
H1084 C1110 0.950 . S
H1085 C1112 0.950 . S
H1086 C1115 0.950 . S
H1087 C1116 0.950 . S
H1088 C1118 0.950 . S
H1089 C1119 0.950 . S
C1090 H1072 0.951 . S
C1090 C1091 1.366 . S
C1090 C1092 1.388 . S
C1091 C1090 1.366 . S
C1091 C1095 1.385 . S
C1092 H1073 0.951 . S
C1092 C1090 1.388 . S
C1092 C1093 1.366 . S
C1093 C1092 1.366 . S
C1093 C1094 1.414 . S
C1093 C1096 1.499 . S
C1094 H1074 0.950 . S
C1094 C1093 1.414 . S
C1094 C1095 1.374 . S
C1095 H1075 0.950 . S
C1095 C1091 1.385 . S
C1095 C1094 1.374 . S
C1096 C1093 1.499 . S
C1096 C1097 1.373 . S
C1096 C1098 1.389 . S
C1097 H1076 0.950 . S
C1097 C1096 1.373 . S
C1097 C1113 1.377 . S
C1098 C1096 1.389 . S
C1098 C1099 1.524 . S
C1098 C1112 1.377 . S
C1099 C1098 1.524 . S
C1099 C1100 1.397 . S
C1099 C1104 1.363 . S
C1100 H1077 0.950 . S
C1100 C1099 1.397 . S
C1100 C1101 1.334 . S
C1101 H1078 0.950 . S
C1101 C1100 1.334 . S
C1101 C1102 1.287 . S
C1102 C1101 1.287 . S
C1102 C1103 1.524 . S
C1102 H1121 0.913 . S
C1103 H1079 0.950 . S
C1103 C1102 1.524 . S
C1103 C1104 1.415 . S
C1104 H1080 0.950 . S
C1104 C1099 1.363 . S
C1104 C1103 1.415 . S
C1105 H1081 0.951 . S
C1105 C1106 1.366 . S
C1105 C1107 1.388 . S
C1106 C1105 1.366 . S
C1106 C1110 1.385 . S
C1107 H1082 0.951 . S
C1107 C1105 1.388 . S
C1107 C1108 1.366 . S
C1108 C1107 1.366 . S
C1108 C1109 1.414 . S
C1108 C1111 1.499 . S
C1109 H1083 0.950 . S
C1109 C1108 1.414 . S
C1109 C1110 1.374 . S
C1110 H1084 0.950 . S
C1110 C1106 1.385 . S
C1110 C1109 1.374 . S
C1111 C1108 1.499 . S
C1111 C1112 1.373 . S
C1111 C1113 1.389 . S
C1112 H1085 0.950 . S
C1112 C1098 1.377 . S
C1112 C1111 1.373 . S
C1113 C1097 1.377 . S
C1113 C1111 1.389 . S
C1113 C1114 1.524 . S
C1114 C1113 1.524 . S
C1114 C1115 1.397 . S
C1114 C1119 1.363 . S
C1115 H1086 0.950 . S
C1115 C1114 1.397 . S
C1115 C1116 1.334 . S
C1116 H1087 0.950 . S
C1116 C1115 1.334 . S
C1116 C1117 1.287 . S
C1117 C1116 1.287 . S
C1117 C1118 1.524 . S
C1117 H1120 0.999 . S
C1118 H1088 0.950 . S
C1118 C1117 1.524 . S
C1118 C1119 1.415 . S
C1119 H1089 0.950 . S
C1119 C1114 1.363 . S
C1119 C1118 1.415 . S
H1120 C1117 0.999 . S
H1121 C1102 0.913 . S
H1122 C1140 0.951 . S
H1123 C1142 0.951 . S
H1124 C1144 0.950 . S
H1125 C1145 0.950 . S
H1126 C1147 0.950 . S
H1127 C1150 0.950 . S
H1128 C1151 0.950 . S
H1129 C1153 0.950 . S
H1130 C1154 0.950 . S
H1131 C1155 0.951 . S
H1132 C1157 0.951 . S
H1133 C1159 0.950 . S
H1134 C1160 0.950 . S
H1135 C1162 0.950 . S
H1136 C1165 0.950 . S
H1137 C1166 0.950 . S
H1138 C1168 0.950 . S
H1139 C1169 0.950 . S
C1140 H1122 0.951 . S
C1140 C1141 1.366 . S
C1140 C1142 1.388 . S
C1141 C1140 1.366 . S
C1141 C1145 1.385 . S
C1142 H1123 0.951 . S
C1142 C1140 1.388 . S
C1142 C1143 1.366 . S
C1143 C1142 1.366 . S
C1143 C1144 1.414 . S
C1143 C1146 1.499 . S
C1144 H1124 0.950 . S
C1144 C1143 1.414 . S
C1144 C1145 1.374 . S
C1145 H1125 0.950 . S
C1145 C1141 1.385 . S
C1145 C1144 1.374 . S
C1146 C1143 1.499 . S
C1146 C1147 1.373 . S
C1146 C1148 1.389 . S
C1147 H1126 0.950 . S
C1147 C1146 1.373 . S
C1147 C1163 1.377 . S
C1148 C1146 1.389 . S
C1148 C1149 1.524 . S
C1148 C1162 1.377 . S
C1149 C1148 1.524 . S
C1149 C1150 1.397 . S
C1149 C1154 1.363 . S
C1150 H1127 0.950 . S
C1150 C1149 1.397 . S
C1150 C1151 1.334 . S
C1151 H1128 0.950 . S
C1151 C1150 1.334 . S
C1151 C1152 1.287 . S
C1152 C1151 1.287 . S
C1152 C1153 1.524 . S
C1152 H1171 0.913 . S
C1153 H1129 0.950 . S
C1153 C1152 1.524 . S
C1153 C1154 1.415 . S
C1154 H1130 0.950 . S
C1154 C1149 1.363 . S
C1154 C1153 1.415 . S
C1155 H1131 0.951 . S
C1155 C1156 1.366 . S
C1155 C1157 1.388 . S
C1156 C1155 1.366 . S
C1156 C1160 1.385 . S
C1157 H1132 0.951 . S
C1157 C1155 1.388 . S
C1157 C1158 1.366 . S
C1158 C1157 1.366 . S
C1158 C1159 1.414 . S
C1158 C1161 1.499 . S
C1159 H1133 0.950 . S
C1159 C1158 1.414 . S
C1159 C1160 1.374 . S
C1160 H1134 0.950 . S
C1160 C1156 1.385 . S
C1160 C1159 1.374 . S
C1161 C1158 1.499 . S
C1161 C1162 1.373 . S
C1161 C1163 1.389 . S
C1162 H1135 0.950 . S
C1162 C1148 1.377 . S
C1162 C1161 1.373 . S
C1163 C1147 1.377 . S
C1163 C1161 1.389 . S
C1163 C1164 1.524 . S
C1164 C1163 1.524 . S
C1164 C1165 1.397 . S
C1164 C1169 1.363 . S
C1165 H1136 0.950 . S
C1165 C1164 1.397 . S
C1165 C1166 1.334 . S
C1166 H1137 0.950 . S
C1166 C1165 1.334 . S
C1166 C1167 1.287 . S
C1167 C1166 1.287 . S
C1167 C1168 1.524 . S
C1167 H1170 0.999 . S
C1168 H1138 0.950 . S
C1168 C1167 1.524 . S
C1168 C1169 1.415 . S
C1169 H1139 0.950 . S
C1169 C1164 1.363 . S
C1169 C1168 1.415 . S
H1170 C1167 0.999 . S
H1171 C1152 0.913 . S
H1172 C1190 0.951 . S
H1173 C1192 0.951 . S
H1174 C1194 0.950 . S
H1175 C1195 0.950 . S
H1176 C1197 0.950 . S
H1177 C1200 0.950 . S
H1178 C1201 0.950 . S
H1179 C1203 0.950 . S
H1180 C1204 0.950 . S
H1181 C1205 0.951 . S
H1182 C1207 0.951 . S
H1183 C1209 0.950 . S
H1184 C1210 0.950 . S
H1185 C1212 0.950 . S
H1186 C1215 0.950 . S
H1187 C1216 0.950 . S
H1188 C1218 0.950 . S
H1189 C1219 0.950 . S
C1190 H1172 0.951 . S
C1190 C1191 1.366 . S
C1190 C1192 1.388 . S
C1191 C1190 1.366 . S
C1191 C1195 1.385 . S
C1192 H1173 0.951 . S
C1192 C1190 1.388 . S
C1192 C1193 1.366 . S
C1193 C1192 1.366 . S
C1193 C1194 1.414 . S
C1193 C1196 1.499 . S
C1194 H1174 0.950 . S
C1194 C1193 1.414 . S
C1194 C1195 1.374 . S
C1195 H1175 0.950 . S
C1195 C1191 1.385 . S
C1195 C1194 1.374 . S
C1196 C1193 1.499 . S
C1196 C1197 1.373 . S
C1196 C1198 1.389 . S
C1197 H1176 0.950 . S
C1197 C1196 1.373 . S
C1197 C1213 1.377 . S
C1198 C1196 1.389 . S
C1198 C1199 1.524 . S
C1198 C1212 1.377 . S
C1199 C1198 1.524 . S
C1199 C1200 1.397 . S
C1199 C1204 1.363 . S
C1200 H1177 0.950 . S
C1200 C1199 1.397 . S
C1200 C1201 1.334 . S
C1201 H1178 0.950 . S
C1201 C1200 1.334 . S
C1201 C1202 1.287 . S
C1202 C1201 1.287 . S
C1202 C1203 1.524 . S
C1202 H1221 0.913 . S
C1203 H1179 0.950 . S
C1203 C1202 1.524 . S
C1203 C1204 1.415 . S
C1204 H1180 0.950 . S
C1204 C1199 1.363 . S
C1204 C1203 1.415 . S
C1205 H1181 0.951 . S
C1205 C1206 1.366 . S
C1205 C1207 1.388 . S
C1206 C1205 1.366 . S
C1206 C1210 1.385 . S
C1207 H1182 0.951 . S
C1207 C1205 1.388 . S
C1207 C1208 1.366 . S
C1208 C1207 1.366 . S
C1208 C1209 1.414 . S
C1208 C1211 1.499 . S
C1209 H1183 0.950 . S
C1209 C1208 1.414 . S
C1209 C1210 1.374 . S
C1210 H1184 0.950 . S
C1210 C1206 1.385 . S
C1210 C1209 1.374 . S
C1211 C1208 1.499 . S
C1211 C1212 1.373 . S
C1211 C1213 1.389 . S
C1212 H1185 0.950 . S
C1212 C1198 1.377 . S
C1212 C1211 1.373 . S
C1213 C1197 1.377 . S
C1213 C1211 1.389 . S
C1213 C1214 1.524 . S
C1214 C1213 1.524 . S
C1214 C1215 1.397 . S
C1214 C1219 1.363 . S
C1215 H1186 0.950 . S
C1215 C1214 1.397 . S
C1215 C1216 1.334 . S
C1216 H1187 0.950 . S
C1216 C1215 1.334 . S
C1216 C1217 1.287 . S
C1217 C1216 1.287 . S
C1217 C1218 1.524 . S
C1217 H1220 0.999 . S
C1218 H1188 0.950 . S
C1218 C1217 1.524 . S
C1218 C1219 1.415 . S
C1219 H1189 0.950 . S
C1219 C1214 1.363 . S
C1219 C1218 1.415 . S
H1220 C1217 0.999 . S
H1221 C1202 0.913 . S
H1222 C1240 0.951 . S
H1223 C1242 0.951 . S
H1224 C1244 0.950 . S
H1225 C1245 0.950 . S
H1226 C1247 0.950 . S
H1227 C1250 0.950 . S
H1228 C1251 0.950 . S
H1229 C1253 0.950 . S
H1230 C1254 0.950 . S
H1231 C1255 0.951 . S
H1232 C1257 0.951 . S
H1233 C1259 0.950 . S
H1234 C1260 0.950 . S
H1235 C1262 0.950 . S
H1236 C1265 0.950 . S
H1237 C1266 0.950 . S
H1238 C1268 0.950 . S
H1239 C1269 0.950 . S
C1240 H1222 0.951 . S
C1240 C1241 1.366 . S
C1240 C1242 1.388 . S
C1241 C1240 1.366 . S
C1241 C1245 1.385 . S
C1242 H1223 0.951 . S
C1242 C1240 1.388 . S
C1242 C1243 1.366 . S
C1243 C1242 1.366 . S
C1243 C1244 1.414 . S
C1243 C1246 1.499 . S
C1244 H1224 0.950 . S
C1244 C1243 1.414 . S
C1244 C1245 1.374 . S
C1245 H1225 0.950 . S
C1245 C1241 1.385 . S
C1245 C1244 1.374 . S
C1246 C1243 1.499 . S
C1246 C1247 1.373 . S
C1246 C1248 1.389 . S
C1247 H1226 0.950 . S
C1247 C1246 1.373 . S
C1247 C1263 1.377 . S
C1248 C1246 1.389 . S
C1248 C1249 1.524 . S
C1248 C1262 1.377 . S
C1249 C1248 1.524 . S
C1249 C1250 1.397 . S
C1249 C1254 1.363 . S
C1250 H1227 0.950 . S
C1250 C1249 1.397 . S
C1250 C1251 1.334 . S
C1251 H1228 0.950 . S
C1251 C1250 1.334 . S
C1251 C1252 1.287 . S
C1252 C1251 1.287 . S
C1252 C1253 1.524 . S
C1252 H1271 0.913 . S
C1253 H1229 0.950 . S
C1253 C1252 1.524 . S
C1253 C1254 1.415 . S
C1254 H1230 0.950 . S
C1254 C1249 1.363 . S
C1254 C1253 1.415 . S
C1255 H1231 0.951 . S
C1255 C1256 1.366 . S
C1255 C1257 1.388 . S
C1256 C1255 1.366 . S
C1256 C1260 1.385 . S
C1257 H1232 0.951 . S
C1257 C1255 1.388 . S
C1257 C1258 1.366 . S
C1258 C1257 1.366 . S
C1258 C1259 1.414 . S
C1258 C1261 1.499 . S
C1259 H1233 0.950 . S
C1259 C1258 1.414 . S
C1259 C1260 1.374 . S
C1260 H1234 0.950 . S
C1260 C1256 1.385 . S
C1260 C1259 1.374 . S
C1261 C1258 1.499 . S
C1261 C1262 1.373 . S
C1261 C1263 1.389 . S
C1262 H1235 0.950 . S
C1262 C1248 1.377 . S
C1262 C1261 1.373 . S
C1263 C1247 1.377 . S
C1263 C1261 1.389 . S
C1263 C1264 1.524 . S
C1264 C1263 1.524 . S
C1264 C1265 1.397 . S
C1264 C1269 1.363 . S
C1265 H1236 0.950 . S
C1265 C1264 1.397 . S
C1265 C1266 1.334 . S
C1266 H1237 0.950 . S
C1266 C1265 1.334 . S
C1266 C1267 1.287 1_565 S
C1267 C1266 1.287 1_545 S
C1267 C1268 1.524 . S
C1267 H1270 0.999 . S
C1268 H1238 0.950 . S
C1268 C1267 1.524 . S
C1268 C1269 1.415 1_545 S
C1269 H1239 0.950 . S
C1269 C1264 1.363 . S
C1269 C1268 1.415 1_565 S
H1270 C1267 0.999 . S
H1271 C1252 0.913 . S
C291 C77 1.489 . S
C306 C5 1.534 . S
C341 C43 1.490 . S
C356 C107 1.534 . S
C391 C73 1.534 . S
C406 C9 1.489 . S
C441 C111 1.490 . S
C456 C39 1.534 . S
C491 C141 1.534 . S
C506 C213 1.490 . S
C541 C243 1.534 . S
C556 C179 1.490 . S
C591 C145 1.490 . S
C606 C209 1.534 . S
C641 C175 1.534 . S
C656 C247 1.490 . S
C691 C54 1.386 . S
C706 C20 1.386 . S
C741 C88 1.386 . S
C756 C122 1.386 . S
C791 C190 1.386 . S
C806 C156 1.386 . S
C841 C224 1.386 . S
C856 C258 1.386 . S
C891 C240 0.589 . S
C906 C33 0.610 . S
C941 C237 0.611 . S
C956 C36 0.590 . S
C991 C271 0.609 . S
C1006 C2 0.589 . S
C1041 C67 0.611 . S
C1056 C206 0.590 . S
C1091 C172 0.588 . S
C1106 C101 0.609 . S
C1141 C104 0.589 . S
C1156 C169 0.608 . S
C1191 C203 0.609 . S
C1206 C70 0.589 . S
C1241 C135 0.610 . S
C1256 C138 0.590 . S
