# Generated by pormake.
# Topology wft, (7)-cn, num edge types: 1
# Building blocks:
#     Node 0, Type 0, BuildingBlock: NUHQUE_clean_sbu_2, # of connection points: 7
#     Node 1, Type 0, BuildingBlock: NUHQUE_clean_sbu_2, # of connection points: 7
#     Node 2, Type 0, BuildingBlock: NUHQUE_clean_sbu_2, # of connection points: 7
#     Node 3, Type 0, BuildingBlock: NUHQUE_clean_sbu_2, # of connection points: 7
#     Node 4, Type 0, BuildingBlock: NUHQUE_clean_sbu_2, # of connection points: 7
#     Node 5, Type 0, BuildingBlock: NUHQUE_clean_sbu_2, # of connection points: 7
#     Node 6, Type 0, BuildingBlock: NUHQUE_clean_sbu_2, # of connection points: 7
#     Node 7, Type 0, BuildingBlock: NUHQUE_clean_sbu_2, # of connection points: 7
#     Edge 8, Type (0, 0), BuildingBlock: XUDNAN_clean_linker_2, # of connection points: 2
#     Edge 9, Type (0, 0), BuildingBlock: XUDNAN_clean_linker_2, # of connection points: 2
#     Edge 10, Type (0, 0), BuildingBlock: XUDNAN_clean_linker_2, # of connection points: 2
#     Edge 11, Type (0, 0), BuildingBlock: XUDNAN_clean_linker_2, # of connection points: 2
#     Edge 12, Type (0, 0), BuildingBlock: XUDNAN_clean_linker_2, # of connection points: 2
#     Edge 13, Type (0, 0), BuildingBlock: XUDNAN_clean_linker_2, # of connection points: 2
#     Edge 14, Type (0, 0), BuildingBlock: XUDNAN_clean_linker_2, # of connection points: 2
#     Edge 15, Type (0, 0), BuildingBlock: XUDNAN_clean_linker_2, # of connection points: 2
#     Edge 16, Type (0, 0), BuildingBlock: XUDNAN_clean_linker_2, # of connection points: 2
#     Edge 17, Type (0, 0), BuildingBlock: XUDNAN_clean_linker_2, # of connection points: 2
#     Edge 18, Type (0, 0), BuildingBlock: XUDNAN_clean_linker_2, # of connection points: 2
#     Edge 19, Type (0, 0), BuildingBlock: XUDNAN_clean_linker_2, # of connection points: 2
#     Edge 20, Type (0, 0), BuildingBlock: XUDNAN_clean_linker_2, # of connection points: 2
#     Edge 21, Type (0, 0), BuildingBlock: XUDNAN_clean_linker_2, # of connection points: 2
#     Edge 22, Type (0, 0), BuildingBlock: XUDNAN_clean_linker_2, # of connection points: 2
#     Edge 23, Type (0, 0), BuildingBlock: XUDNAN_clean_linker_2, # of connection points: 2
#     Edge 24, Type (0, 0), BuildingBlock: XUDNAN_clean_linker_2, # of connection points: 2
#     Edge 25, Type (0, 0), BuildingBlock: XUDNAN_clean_linker_2, # of connection points: 2
#     Edge 26, Type (0, 0), BuildingBlock: XUDNAN_clean_linker_2, # of connection points: 2
#     Edge 27, Type (0, 0), BuildingBlock: XUDNAN_clean_linker_2, # of connection points: 2
#     Edge 28, Type (0, 0), BuildingBlock: XUDNAN_clean_linker_2, # of connection points: 2
#     Edge 29, Type (0, 0), BuildingBlock: XUDNAN_clean_linker_2, # of connection points: 2
#     Edge 30, Type (0, 0), BuildingBlock: XUDNAN_clean_linker_2, # of connection points: 2
#     Edge 31, Type (0, 0), BuildingBlock: XUDNAN_clean_linker_2, # of connection points: 2
#     Edge 32, Type (0, 0), BuildingBlock: XUDNAN_clean_linker_2, # of connection points: 2
#     Edge 33, Type (0, 0), BuildingBlock: XUDNAN_clean_linker_2, # of connection points: 2
#     Edge 34, Type (0, 0), BuildingBlock: XUDNAN_clean_linker_2, # of connection points: 2
#     Edge 35, Type (0, 0), BuildingBlock: XUDNAN_clean_linker_2, # of connection points: 2
# Relax obj value: 0.100
# Max RMSD: 0.180
# Mean RMSD: 0.180
data_MOF--net-wft--node1-NUHQUE_clean_sbu_2--edge1-XUDNAN_clean_linker_2
_symmetry_space_group_name_H-M    P1
_symmetry_Int_Tables_number       1
_symmetry_cell_setting            triclinic
loop_
_symmetry_equiv_pos_as_xyz
'x, y, z'
_cell_length_a     33.158407
_cell_length_b     32.982422
_cell_length_c     35.4058
_cell_angle_alpha  90.149968
_cell_angle_beta   89.797995
_cell_angle_gamma 90.001604
loop_
_atom_site_label
_atom_site_type_symbol
_atom_site_fract_x
_atom_site_fract_y
_atom_site_fract_z
_atom_type_partial_charge
O0 O 0.33076 0.32628 0.43546 0.0
Tb1 Tb 0.3558 0.266 0.42496 0.0
Eu2 Eu 0.32531 0.17112 0.3703 0.0
C3 C 0.29152 0.33198 0.43823 0.0
O4 O 0.26704 0.3024 0.42879 0.0
C5 C 0.30529 0.19525 0.45337 0.0
O6 O 0.3546 0.11272 0.35214 0.0
C7 C 0.26342 0.19258 0.33041 0.0
C8 C 0.37989 0.09773 0.37699 0.0
O9 O 0.38257 0.11586 0.40998 0.0
C10 C 0.40255 0.2335 0.35533 0.0
C11 C 0.24811 0.19817 0.29172 0.0
C12 C 0.20707 0.20818 0.28678 0.0
C13 C 0.19057 0.21128 0.25033 0.0
C14 C 0.21551 0.20313 0.21921 0.0
C15 C 0.25637 0.19366 0.22351 0.0
C16 C 0.27295 0.19157 0.25991 0.0
O17 O 0.30232 0.2307 0.43701 0.0
O18 O 0.31427 0.16376 0.43253 0.0
O19 O 0.39396 0.2857 0.47147 0.0
O20 O 0.39899 0.22496 0.45185 0.0
C21 C 0.41247 0.25137 0.47605 0.0
O22 O 0.38612 0.19709 0.35568 0.0
O23 O 0.38436 0.26594 0.3693 0.0
O24 O 0.27043 0.1549 0.34078 0.0
O25 O 0.29026 0.21879 0.34317 0.0
H26 H 0.18816 0.21371 0.31129 0.0
H27 H 0.20305 0.20414 0.19095 0.0
H28 H 0.30449 0.18387 0.26348 0.0
O29 O 0.32852 0.64077 0.64955 0.0
Tb30 Tb 0.26654 0.62123 0.65655 0.0
Eu31 Eu 0.16803 0.64512 0.69954 0.0
C32 C 0.33972 0.67869 0.65404 0.0
O33 O 0.31456 0.7047 0.66947 0.0
C34 C 0.20568 0.68049 0.6278 0.0
O35 O 0.1072 0.61724 0.70704 0.0
C36 C 0.18341 0.69356 0.75469 0.0
C37 C 0.09632 0.58836 0.68372 0.0
O38 O 0.11972 0.57979 0.65475 0.0
C39 C 0.22991 0.57307 0.72277 0.0
C40 C 0.19217 0.72118 0.7863 0.0
C41 C 0.20616 0.76024 0.77792 0.0
C42 C 0.2125 0.78841 0.80688 0.0
C43 C 0.2059 0.77686 0.84438 0.0
C44 C 0.18983 0.7387 0.8535 0.0
C45 C 0.18352 0.71039 0.82417 0.0
O46 O 0.2348 0.67791 0.65242 0.0
O47 O 0.17017 0.66874 0.63955 0.0
O48 O 0.28586 0.58663 0.60703 0.0
O49 O 0.22559 0.58019 0.62613 0.0
C50 C 0.25187 0.56828 0.60103 0.0
O51 O 0.19356 0.58306 0.71098 0.0
O52 O 0.26293 0.59151 0.71094 0.0
O53 O 0.14637 0.68701 0.74293 0.0
O54 O 0.21235 0.67581 0.73508 0.0
H55 H 0.21079 0.76916 0.74876 0.0
H56 H 0.21034 0.79905 0.86666 0.0
H57 H 0.17054 0.68101 0.83047 0.0
O58 O 0.62688 0.66388 0.42069 0.0
Tb59 Tb 0.60748 0.72656 0.41418 0.0
Eu60 Eu 0.64745 0.82208 0.36558 0.0
C61 C 0.66295 0.65342 0.43266 0.0
O62 O 0.69323 0.67862 0.42853 0.0
C63 C 0.66364 0.79104 0.44779 0.0
O64 O 0.62261 0.88276 0.34888 0.0
C65 C 0.70782 0.79648 0.3259 0.0
C66 C 0.59961 0.89984 0.37471 0.0
O67 O 0.59827 0.88324 0.40838 0.0
C68 C 0.56454 0.77062 0.34781 0.0
C69 C 0.72823 0.79001 0.2894 0.0
C70 C 0.76871 0.77774 0.29033 0.0
C71 C 0.79086 0.77334 0.25691 0.0
C72 C 0.77218 0.78033 0.22222 0.0
C73 C 0.73131 0.79171 0.22049 0.0
C74 C 0.70944 0.79719 0.25443 0.0
O75 O 0.66355 0.75546 0.43096 0.0
O76 O 0.65729 0.82385 0.42802 0.0
O77 O 0.56266 0.69895 0.45085 0.0
O78 O 0.57222 0.76247 0.45503 0.0
C79 C 0.55201 0.73177 0.46843 0.0
O80 O 0.58452 0.80486 0.35014 0.0
O81 O 0.57934 0.73554 0.35906 0.0
O82 O 0.70462 0.83417 0.33808 0.0
O83 O 0.67728 0.77277 0.33532 0.0
H84 H 0.7833 0.77223 0.31722 0.0
H85 H 0.78965 0.77686 0.19645 0.0
H86 H 0.67812 0.80655 0.25365 0.0
O87 O 0.64438 0.33344 0.64414 0.0
Tb88 Tb 0.69905 0.36731 0.65604 0.0
Eu89 Eu 0.80827 0.34037 0.71695 0.0
C90 C 0.64595 0.29489 0.63452 0.0
O91 O 0.68055 0.27565 0.63607 0.0
C92 C 0.78124 0.3352 0.62946 0.0
O93 O 0.86629 0.36901 0.7349 0.0
C94 C 0.79342 0.27068 0.74734 0.0
C95 C 0.89478 0.37379 0.7095 0.0
O96 O 0.89079 0.35608 0.67645 0.0
C97 C 0.73869 0.3997 0.73029 0.0
C98 C 0.78677 0.24949 0.78336 0.0
C99 C 0.78293 0.20722 0.7818 0.0
C100 C 0.77951 0.18473 0.81494 0.0
C101 C 0.77822 0.2046 0.84975 0.0
C102 C 0.78395 0.2468 0.85253 0.0
C103 C 0.7876 0.26945 0.81877 0.0
O104 O 0.74628 0.32374 0.64303 0.0
O105 O 0.81148 0.34259 0.65256 0.0
O106 O 0.67891 0.42983 0.65128 0.0
O107 O 0.71861 0.40592 0.60917 0.0
C108 C 0.69814 0.4377 0.61998 0.0
O109 O 0.77442 0.39179 0.74373 0.0
O110 O 0.71995 0.36942 0.71369 0.0
O111 O 0.8302 0.28385 0.74046 0.0
O112 O 0.76477 0.29513 0.73546 0.0
H113 H 0.78468 0.19159 0.75484 0.0
H114 H 0.77454 0.18634 0.87493 0.0
H115 H 0.79262 0.30189 0.81991 0.0
O116 O 0.81937 0.15721 0.15598 0.0
Tb117 Tb 0.85249 0.21414 0.16132 0.0
Eu118 Eu 0.83501 0.32226 0.2088 0.0
C119 C 0.79691 0.15021 0.12598 0.0
O120 O 0.78838 0.18048 0.10342 0.0
C121 C 0.81193 0.28904 0.12562 0.0
O122 O 0.86189 0.38434 0.20141 0.0
C123 C 0.77087 0.31976 0.25091 0.0
C124 C 0.89133 0.39715 0.2232 0.0
O125 O 0.90046 0.37648 0.25366 0.0
C126 C 0.89828 0.2521 0.2284 0.0
C127 C 0.75185 0.30828 0.28723 0.0
C128 C 0.71192 0.29396 0.28631 0.0
C129 C 0.69154 0.2845 0.3198 0.0
C130 C 0.71096 0.2899 0.35444 0.0
C131 C 0.75098 0.30394 0.35648 0.0
C132 C 0.77139 0.31322 0.32239 0.0
O133 O 0.80474 0.25372 0.14145 0.0
O134 O 0.82396 0.32044 0.14568 0.0
O135 O 0.89581 0.1746 0.13383 0.0
O136 O 0.89757 0.23758 0.12112 0.0
C137 C 0.91349 0.20224 0.11375 0.0
O138 O 0.89079 0.29113 0.22977 0.0
O139 O 0.86933 0.22658 0.21945 0.0
O140 O 0.79609 0.35063 0.25069 0.0
O141 O 0.78062 0.29053 0.22705 0.0
H142 H 0.69669 0.29005 0.25948 0.0
H143 H 0.69398 0.28388 0.38002 0.0
H144 H 0.80217 0.32419 0.32311 0.0
O145 O 0.15787 0.14041 0.92636 0.0
Tb146 Tb 0.22098 0.1238 0.92103 0.0
Eu147 Eu 0.31245 0.14304 0.87433 0.0
C148 C 0.14599 0.17149 0.94696 0.0
O149 O 0.17289 0.19718 0.95988 0.0
C150 C 0.28854 0.17587 0.95444 0.0
O151 O 0.37129 0.11582 0.85691 0.0
C152 C 0.2912 0.20378 0.83327 0.0
C153 C 0.391 0.09573 0.88285 0.0
O154 O 0.37733 0.09624 0.91772 0.0
C155 C 0.24804 0.07584 0.85124 0.0
C156 C 0.28199 0.2238 0.79732 0.0
C157 C 0.26759 0.26351 0.79995 0.0
C158 C 0.26218 0.28673 0.7676 0.0
C159 C 0.26944 0.26964 0.7321 0.0
C160 C 0.28416 0.22978 0.72831 0.0
C161 C 0.29046 0.2067 0.76152 0.0
O162 O 0.25221 0.17811 0.93987 0.0
O163 O 0.31748 0.15738 0.93601 0.0
O164 O 0.19925 0.08639 0.96737 0.0
O165 O 0.25789 0.07506 0.94547 0.0
C166 C 0.2311 0.06381 0.97037 0.0
O167 O 0.28591 0.08303 0.85918 0.0
O168 O 0.21907 0.09964 0.86371 0.0
O169 O 0.32912 0.19528 0.84077 0.0
O170 O 0.26469 0.17863 0.8482 0.0
H171 H 0.26253 0.27719 0.82749 0.0
H172 H 0.26349 0.28796 0.70738 0.0
H173 H 0.30272 0.17632 0.75972 0.0
O174 O 0.14051 0.83247 0.14052 0.0
Tb175 Tb 0.11024 0.77532 0.15312 0.0
Eu176 Eu 0.1566 0.66173 0.20314 0.0
C177 C 0.18006 0.83454 0.13747 0.0
O178 O 0.20175 0.80255 0.14611 0.0
C179 C 0.16592 0.70107 0.12877 0.0
O180 O 0.13114 0.5988 0.19871 0.0
C181 C 0.21452 0.67154 0.25168 0.0
C182 C 0.10765 0.59176 0.16959 0.0
O183 O 0.10549 0.6193 0.14294 0.0
C184 C 0.0813 0.72935 0.22335 0.0
C185 C 0.2293 0.69512 0.28469 0.0
C186 C 0.26002 0.72366 0.27773 0.0
C187 C 0.27844 0.74452 0.30734 0.0
C188 C 0.26468 0.7384 0.34414 0.0
C189 C 0.2378 0.70681 0.3527 0.0
C190 C 0.21899 0.68574 0.32267 0.0
O191 O 0.14987 0.72408 0.15509 0.0
O192 O 0.17715 0.66602 0.14186 0.0
O193 O 0.04479 0.78164 0.14806 0.0
O194 O 0.07783 0.75256 0.10393 0.0
C195 C 0.04235 0.76381 0.11531 0.0
O196 O 0.09739 0.69274 0.21912 0.0
O197 O 0.09945 0.76313 0.2126 0.0
O198 O 0.18612 0.64408 0.25607 0.0
O199 O 0.21182 0.69141 0.21961 0.0
H200 H 0.27151 0.72797 0.24929 0.0
H201 H 0.2795 0.75441 0.36704 0.0
H202 H 0.19873 0.66084 0.32881 0.0
O203 O 0.82523 0.81465 0.92607 0.0
Tb204 Tb 0.76797 0.84563 0.92095 0.0
Eu205 Eu 0.67568 0.83513 0.86458 0.0
C206 C 0.8259 0.77548 0.93233 0.0
O207 O 0.79305 0.75428 0.92624 0.0
C208 C 0.69 0.80897 0.94817 0.0
O209 O 0.62009 0.86913 0.84837 0.0
C210 C 0.68706 0.76895 0.82602 0.0
C211 C 0.60902 0.89711 0.87267 0.0
O212 O 0.63059 0.90209 0.9034 0.0
C213 C 0.7518 0.89474 0.84761 0.0
C214 C 0.69552 0.75173 0.78816 0.0
C215 C 0.71115 0.71203 0.78591 0.0
C216 C 0.71771 0.69345 0.75067 0.0
C217 C 0.70829 0.71488 0.71789 0.0
C218 C 0.69092 0.75359 0.71923 0.0
C219 C 0.68534 0.77252 0.75464 0.0
O220 O 0.72449 0.79845 0.93315 0.0
O221 O 0.66422 0.82815 0.92693 0.0
O222 O 0.79085 0.8709 0.97363 0.0
O223 O 0.74487 0.903 0.94488 0.0
C224 C 0.76816 0.90296 0.97451 0.0
O225 O 0.71246 0.88933 0.84738 0.0
O226 O 0.77668 0.86926 0.86422 0.0
O227 O 0.65138 0.78556 0.83131 0.0
O228 O 0.7165 0.78808 0.84357 0.0
H229 H 0.71778 0.69547 0.81157 0.0
H230 H 0.71327 0.7005 0.69071 0.0
H231 H 0.67202 0.80248 0.7562 0.0
H232 H 0.24221 0.13697 0.17014 0.0
H233 H 0.32023 0.238 0.19718 0.0
H234 H 0.34296 0.24073 0.13041 0.0
H235 H 0.30652 0.09153 0.09121 0.0
H236 H 0.262 0.0789 0.06467 0.0
H237 H 0.26059 0.07803 0.11553 0.0
H238 H 0.19988 0.12723 0.11465 0.0
H239 H 0.2015 0.12912 0.06399 0.0
H240 H 0.20466 0.1754 0.09106 0.0
H241 H 0.34879 0.23862 0.05845 0.0
H242 H 0.33873 0.23019 0.98924 0.0
H243 H 0.25114 0.13569 1.01064 0.0
C244 C 0.26567 0.15823 0.16227 0.0
C245 C 0.28018 0.18675 0.18869 0.0
C246 C 0.30971 0.21522 0.17745 0.0
C247 C 0.32243 0.21717 0.13953 0.0
C248 C 0.30538 0.19028 0.11353 0.0
C249 C 0.27806 0.16086 0.12466 0.0
C250 C 0.26009 0.13898 0.09108 0.0
C251 C 0.27309 0.09421 0.0906 0.0
C252 C 0.21381 0.14298 0.09017 0.0
C253 C 0.27968 0.16219 0.05923 0.0
C254 C 0.30665 0.19083 0.0725 0.0
C255 C 0.32797 0.21606 0.04786 0.0
C256 C 0.32188 0.21139 1.00876 0.0
C257 C 0.29372 0.18279 0.99509 0.0
C258 C 0.27242 0.1581 1.02061 0.0
H259 H 0.19065 0.65336 0.06758 0.0
H260 H 0.14857 0.77359 0.09655 0.0
H261 H 0.14093 0.79006 1.02978 0.0
H262 H 0.25332 0.69316 0.99029 0.0
H263 H 0.24739 0.64894 0.96079 0.0
H264 H 0.24505 0.64418 1.01143 0.0
H265 H 0.17499 0.61018 1.00559 0.0
H266 H 0.17681 0.61555 0.95494 0.0
H267 H 0.13501 0.63633 0.98132 0.0
H268 H 0.13064 0.79142 0.96139 0.0
H269 H 0.14188 0.78947 0.89296 0.0
H270 H 0.20497 0.6747 0.90384 0.0
C271 C 0.17955 0.68303 0.05976 0.0
C272 C 0.16717 0.71146 0.08777 0.0
C273 C 0.15563 0.75062 0.07614 0.0
C274 C 0.15121 0.76024 0.03803 0.0
C275 C 0.16108 0.731 1.01128 0.0
C276 C 0.17712 0.69398 1.02128 0.0
C277 C 0.19114 0.67103 0.98611 0.0
C278 C 0.23695 0.66392 0.98722 0.0
C279 C 0.1681 0.63088 0.98174 0.0
C280 C 0.17975 0.70094 0.95508 0.0
C281 C 0.16111 0.73451 0.9707 0.0
C282 C 0.1462 0.76589 0.94876 0.0
C283 C 0.15271 0.76442 0.90987 0.0
C284 C 0.17537 0.73262 0.89308 0.0
C285 C 0.1878 0.69953 0.91584 0.0
H286 H 0.71688 0.75348 0.9996 0.0
H287 H 0.65496 0.86879 0.99036 0.0
H288 H 0.65316 0.87468 0.06 0.0
H289 H 0.65906 0.72059 0.08553 0.0
H290 H 0.70213 0.69435 0.10449 0.0
H291 H 0.69569 0.69818 0.05409 0.0
H292 H 0.7662 0.72769 0.04988 0.0
H293 H 0.77364 0.72874 0.09992 0.0
H294 H 0.77832 0.77498 0.07317 0.0
H295 H 0.66371 0.87054 0.13096 0.0
H296 H 0.68554 0.85619 0.19652 0.0
H297 H 0.73637 0.7418 0.15916 0.0
C298 C 0.70234 0.77958 1.01235 0.0
C299 C 0.68579 0.81053 0.98973 0.0
C300 C 0.66726 0.84444 1.00726 0.0
C301 C 0.66616 0.84808 0.04678 0.0
C302 C 0.68278 0.81704 0.06838 0.0
C303 C 0.69993 0.78311 0.05176 0.0
C304 C 0.71598 0.75426 0.08133 0.0
C305 C 0.69176 0.71449 0.08136 0.0
C306 C 0.76126 0.74608 0.07574 0.0
C307 C 0.70785 0.77852 0.11686 0.0
C308 C 0.68793 0.81428 0.10904 0.0
C309 C 0.67879 0.84232 0.13745 0.0
C310 C 0.6911 0.83389 0.17462 0.0
C311 C 0.71265 0.79795 0.18285 0.0
C312 C 0.72009 0.76962 0.15363 0.0
H313 H 0.82069 0.21272 0.91396 0.0
H314 H 0.75922 0.32255 0.87891 0.0
H315 H 0.76297 0.34828 0.9448 0.0
H316 H 0.76407 0.20184 0.99873 0.0
H317 H 0.80566 0.17964 1.02394 0.0
H318 H 0.80204 0.17335 0.9736 0.0
H319 H 0.87401 0.20378 0.96611 0.0
H320 H 0.87726 0.21038 1.01649 0.0
H321 H 0.88473 0.25314 0.98566 0.0
H322 H 0.77189 0.35992 1.01718 0.0
H323 H 0.7819 0.35461 0.0866 0.0
H324 H 0.83113 0.23406 0.0716 0.0
C325 C 0.80746 0.24208 0.91977 0.0
C326 C 0.78896 0.2652 0.89097 0.0
C327 C 0.77368 0.30417 0.90023 0.0
C328 C 0.77548 0.31892 0.93768 0.0
C329 C 0.79237 0.29422 0.96553 0.0
C330 C 0.80788 0.25649 0.95676 0.0
C331 C 0.82163 0.23397 0.99154 0.0
C332 C 0.79687 0.19492 0.99728 0.0
C333 C 0.8671 0.22481 0.98983 0.0
C334 C 0.81196 0.26503 1.02156 0.0
C335 C 0.79542 0.29982 1.00631 0.0
C336 C 0.78453 0.33263 1.02924 0.0
C337 C 0.79032 0.32941 0.06856 0.0
C338 C 0.80612 0.29339 0.08444 0.0
C339 C 0.81748 0.26125 0.06043 0.0
H340 H 0.73996 0.25805 0.4206 0.0
H341 H 0.80326 0.36456 0.37965 0.0
H342 H 0.82451 0.38018 0.44498 0.0
H343 H 0.69692 0.3064 0.49787 0.0
H344 H 0.69915 0.26312 0.52876 0.0
H345 H 0.69598 0.25579 0.47852 0.0
H346 H 0.76108 0.21232 0.47961 0.0
H347 H 0.76429 0.21926 0.53002 0.0
H348 H 0.80633 0.23288 0.50024 0.0
H349 H 0.83372 0.38727 0.51668 0.0
H350 H 0.82704 0.38677 0.58657 0.0
H351 H 0.75029 0.28075 0.57927 0.0
C352 C 0.75848 0.28464 0.42504 0.0
C353 C 0.76959 0.31019 0.3946 0.0
C354 C 0.79468 0.34408 0.40212 0.0
C355 C 0.80671 0.35336 0.43929 0.0
C356 C 0.79334 0.32859 0.46874 0.0
C357 C 0.76971 0.2949 0.46187 0.0
C358 C 0.75553 0.27545 0.49829 0.0
C359 C 0.70916 0.27521 0.501 0.0
C360 C 0.77285 0.23243 0.50226 0.0
C361 C 0.7739 0.30408 0.52689 0.0
C362 C 0.79652 0.33396 0.50949 0.0
C363 C 0.81618 0.3639 0.53048 0.0
C364 C 0.81229 0.3634 0.5701 0.0
C365 C 0.78803 0.33388 0.58814 0.0
C366 C 0.76885 0.30382 0.56615 0.0
H367 H 0.31324 0.27167 0.66662 0.0
H368 H 0.27398 0.15167 0.70121 0.0
H369 H 0.27955 0.12839 0.6349 0.0
H370 H 0.25282 0.27486 0.58566 0.0
H371 H 0.28842 0.30328 0.5577 0.0
H372 H 0.28799 0.30872 0.60829 0.0
H373 H 0.36379 0.28913 0.61094 0.0
H374 H 0.36419 0.28449 0.56025 0.0
H375 H 0.38046 0.24262 0.58904 0.0
H376 H 0.2852 0.11973 0.56347 0.0
H377 H 0.28885 0.12675 0.49395 0.0
H378 H 0.31641 0.2546 0.50666 0.0
C379 C 0.30569 0.24041 0.66058 0.0
C380 C 0.2927 0.21366 0.6895 0.0
C381 C 0.28438 0.17275 0.67992 0.0
C382 C 0.28721 0.15932 0.64221 0.0
C383 C 0.29819 0.18716 0.61434 0.0
C384 C 0.30729 0.22689 0.62318 0.0
C385 C 0.31489 0.25189 0.58798 0.0
C386 C 0.2842 0.28673 0.58473 0.0
C387 C 0.35843 0.26794 0.58703 0.0
C388 C 0.30815 0.22015 0.55776 0.0
C389 C 0.29925 0.18283 0.57346 0.0
C390 C 0.2921 0.14884 0.55097 0.0
C391 C 0.29414 0.15313 0.51153 0.0
C392 C 0.30244 0.19129 0.49494 0.0
C393 C 0.30947 0.22516 0.51849 0.0
H394 H 0.17269 0.69008 0.40167 0.0
H395 H 0.30352 0.69053 0.39437 0.0
H396 H 0.30813 0.68348 0.46294 0.0
H397 H 0.15878 0.74239 0.485 0.0
H398 H 0.12083 0.71043 0.50613 0.0
H399 H 0.12612 0.7122 0.45554 0.0
H400 H 0.13575 0.63432 0.45312 0.0
H401 H 0.12974 0.63225 0.50375 0.0
H402 H 0.17413 0.61112 0.48178 0.0
H403 H 0.30018 0.68879 0.53095 0.0
H404 H 0.28014 0.68978 0.59743 0.0
H405 H 0.15451 0.6762 0.56527 0.0
C406 C 0.20215 0.68747 0.41452 0.0
C407 C 0.23776 0.69224 0.39263 0.0
C408 C 0.2758 0.68817 0.41053 0.0
C409 C 0.27885 0.68408 0.44955 0.0
C410 C 0.24356 0.682 0.47057 0.0
C411 C 0.20589 0.68175 0.45395 0.0
C412 C 0.17329 0.67757 0.48421 0.0
C413 C 0.14298 0.71277 0.4826 0.0
C414 C 0.15195 0.63638 0.48049 0.0
C415 C 0.19861 0.67911 0.52007 0.0
C416 C 0.23908 0.68143 0.51108 0.0
C417 C 0.26868 0.68567 0.5385 0.0
C418 C 0.25688 0.68636 0.57636 0.0
C419 C 0.21583 0.68229 0.5869 0.0
C420 C 0.18619 0.67889 0.55821 0.0
H421 H 0.65279 0.71618 0.66062 0.0
H422 H 0.7028 0.83214 0.6946 0.0
H423 H 0.69616 0.85662 0.62871 0.0
H424 H 0.71161 0.70946 0.58223 0.0
H425 H 0.67643 0.68417 0.55174 0.0
H426 H 0.67321 0.67707 0.60203 0.0
H427 H 0.59967 0.70183 0.60513 0.0
H428 H 0.60001 0.7061 0.55443 0.0
H429 H 0.58598 0.74908 0.58312 0.0
H430 H 0.69086 0.86516 0.55739 0.0
H431 H 0.68704 0.85774 0.48799 0.0
H432 H 0.64906 0.7327 0.50111 0.0
C433 C 0.66156 0.74712 0.6545 0.0
C434 C 0.67853 0.77225 0.68279 0.0
C435 C 0.68934 0.81253 0.67355 0.0
C436 C 0.68593 0.82651 0.63613 0.0
C437 C 0.67178 0.79975 0.60848 0.0
C438 C 0.65956 0.76091 0.61739 0.0
C439 C 0.65088 0.73601 0.58233 0.0
C440 C 0.67971 0.69952 0.57946 0.0
C441 C 0.6065 0.72248 0.5812 0.0
C442 C 0.65992 0.76689 0.55205 0.0
C443 C 0.67144 0.80363 0.56762 0.0
C444 C 0.6817 0.83659 0.54502 0.0
C445 C 0.67962 0.832 0.50564 0.0
C446 C 0.66812 0.79453 0.48921 0.0
C447 C 0.65842 0.76155 0.51284 0.0
H448 H 0.42749 0.05676 0.42588 0.0
H449 H 0.39867 0.06593 0.30679 0.0
H450 H 0.45354 0.0171 0.29195 0.0
H451 H 0.53298 0.0536 0.41579 0.0
H452 H 0.5404 0.01797 0.45365 0.0
H453 H 0.49768 0.05163 0.45458 0.0
H454 H 0.4491 0.99026 0.46037 0.0
H455 H 0.49171 0.95645 0.46009 0.0
H456 H 0.45194 0.94986 0.42606 0.0
H457 H 0.51502 0.96896 0.29095 0.0
H458 H 0.57207 0.92249 0.30439 0.0
H459 H 0.55865 0.94742 0.42411 0.0
C460 C 0.4323 0.04827 0.39663 0.0
C461 C 0.40883 0.06512 0.36747 0.0
C462 C 0.41616 0.05313 0.32961 0.0
C463 C 0.44741 0.02565 0.32094 0.0
C464 C 0.47074 0.01047 0.35048 0.0
C465 C 0.46306 0.02112 0.3876 0.0
C466 C 0.49221 0.00119 0.41443 0.0
C467 C 0.51729 0.033 0.43586 0.0
C468 C 0.46991 0.97275 0.44184 0.0
C469 C 0.51789 0.97775 0.38673 0.0
C470 C 0.50536 0.98338 0.34992 0.0
C471 C 0.52498 0.9644 0.3197 0.0
C472 C 0.55757 0.93839 0.32754 0.0
C473 C 0.56992 0.9316 0.36527 0.0
C474 C 0.55004 0.95209 0.39495 0.0
H475 H 0.95277 0.39732 0.65908 0.0
H476 H 0.90563 0.4227 0.7713 0.0
H477 H 0.95091 0.48189 0.7762 0.0
H478 H 0.05648 0.42632 0.67788 0.0
H479 H 0.06338 0.44824 0.63173 0.0
H480 H 0.02857 0.4069 0.63814 0.0
H481 H 0.97164 0.45054 0.60892 0.0
H482 H 0.00611 0.49224 0.60301 0.0
H483 H 0.95999 0.49931 0.6293 0.0
H484 H -0.00139 0.54029 0.76739 0.0
H485 H 0.05034 0.58995 0.74807 0.0
H486 H 0.06587 0.5259 0.64167 0.0
C487 C 0.9524 0.41485 0.68499 0.0
C488 C 0.92576 0.40534 0.71486 0.0
C489 C 0.92597 0.42931 0.74812 0.0
C490 C 0.95139 0.46311 0.75109 0.0
C491 C 0.97638 0.47234 0.72062 0.0
C492 C 0.97746 0.44863 0.6884 0.0
C493 C 0.00671 0.46533 0.6595 0.0
C494 C 0.04081 0.43489 0.65135 0.0
C495 C 0.98479 0.47758 0.62304 0.0
C496 C 0.02203 0.5021 0.68056 0.0
C497 C 0.00395 0.50582 0.71562 0.0
C498 C 0.01313 0.5376 0.74008 0.0
C499 C 0.04239 0.56575 0.72875 0.0
C500 C 0.06217 0.5617 0.69339 0.0
C501 C 0.05129 0.52979 0.66886 0.0
H502 H 0.94876 0.43953 0.26321 0.0
H503 H 0.89744 0.4257 0.15122 0.0
H504 H 0.94951 0.47113 0.12538 0.0
H505 H 0.97438 0.54772 0.25127 0.0
H506 H 0.01976 0.54356 0.27884 0.0
H507 H 0.97745 0.51095 0.28873 0.0
H508 H 0.02386 0.44828 0.28056 0.0
H509 H 0.06607 0.48068 0.26983 0.0
H510 H 0.05145 0.44151 0.23701 0.0
H511 H 0.00868 0.51469 0.11077 0.0
H512 H 0.06667 0.56146 0.10952 0.0
H513 H 0.07963 0.54882 0.23089 0.0
C514 C 0.94821 0.44651 0.23335 0.0
C515 C 0.91905 0.42896 0.20924 0.0
C516 C 0.91924 0.43893 0.17033 0.0
C517 C 0.94891 0.46449 0.15529 0.0
C518 C 0.97785 0.48033 0.17957 0.0
C519 C 0.97731 0.47253 0.21789 0.0
C520 C 0.01145 0.49446 0.23777 0.0
C521 C -0.00523 0.52604 0.26581 0.0
C522 C 0.03989 0.46442 0.25744 0.0
C523 C 0.03191 0.51473 0.20442 0.0
C524 C 0.01194 0.50612 0.17116 0.0
C525 C 0.02451 0.52182 0.13662 0.0
C526 C 0.05759 0.54819 0.13618 0.0
C527 C 0.07778 0.55855 0.17003 0.0
C528 C 0.06523 0.5409 0.20447 0.0
H529 H 0.44536 0.06113 0.93015 0.0
H530 H 0.41044 0.06737 0.81229 0.0
H531 H 0.46161 0.01538 0.79642 0.0
H532 H 0.55216 0.04887 0.91343 0.0
H533 H 0.55846 0.01485 0.95273 0.0
H534 H 0.51949 0.05284 0.95408 0.0
H535 H 0.46615 -0.00316 0.96639 0.0
H536 H 0.50489 0.95863 0.96462 0.0
H537 H 0.4619 0.955 0.93378 0.0
H538 H 0.51478 0.96007 0.7944 0.0
H539 H 0.57008 0.91097 0.80556 0.0
H540 H 0.56998 0.94355 0.9244 0.0
C541 C 0.44871 0.05185 0.90094 0.0
C542 C 0.42411 0.0682 0.87243 0.0
C543 C 0.42934 0.05539 0.83451 0.0
C544 C 0.45807 0.02572 0.82528 0.0
C545 C 0.48139 0.00964 0.85427 0.0
C546 C 0.47734 0.02269 0.89124 0.0
C547 C 0.50623 0.00111 0.91717 0.0
C548 C 0.53584 0.03121 0.93541 0.0
C549 C 0.48341 0.97643 0.94725 0.0
C550 C 0.5272 0.9738 0.88905 0.0
C551 C 0.51231 0.97875 0.85296 0.0
C552 C 0.52687 0.95612 0.8225 0.0
C553 C 0.55807 0.92825 0.82909 0.0
C554 C 0.57434 0.92379 0.86574 0.0
C555 C 0.55834 0.94659 0.896 0.0
H556 H 0.45004 0.29485 0.32314 0.0
H557 H 0.45502 0.17363 0.37076 0.0
H558 H 0.52803 0.17192 0.36124 0.0
H559 H 0.53063 0.27489 0.25116 0.0
H560 H 0.55145 0.32522 0.25474 0.0
H561 H 0.49836 0.31707 0.26296 0.0
H562 H 0.50434 0.3509 0.32884 0.0
H563 H 0.55728 0.35933 0.32068 0.0
H564 H 0.54091 0.33192 0.36198 0.0
H565 H 0.60016 0.18398 0.3524 0.0
H566 H 0.66926 0.21013 0.34341 0.0
H567 H 0.62107 0.32201 0.29817 0.0
C568 C 0.46659 0.26793 0.33114 0.0
C569 C 0.44653 0.23425 0.34731 0.0
C570 C 0.46933 0.19958 0.35764 0.0
C571 C 0.51101 0.19823 0.35244 0.0
C572 C 0.52987 0.23152 0.33628 0.0
C573 C 0.50867 0.26565 0.32539 0.0
C574 C 0.53731 0.29724 0.3092 0.0
C575 C 0.52893 0.30401 0.26701 0.0
C576 C 0.53481 0.33721 0.33153 0.0
C577 C 0.57773 0.27627 0.3148 0.0
C578 C 0.5724 0.23811 0.32999 0.0
C579 C 0.60482 0.2135 0.33987 0.0
C580 C 0.64389 0.22851 0.33466 0.0
C581 C 0.65024 0.26763 0.31959 0.0
C582 C 0.6168 0.2916 0.30892 0.0
H583 H 0.30721 0.34887 0.74127 0.0
H584 H 0.19654 0.32169 0.80147 0.0
H585 H 0.18064 0.39516 0.80474 0.0
H586 H 0.32966 0.44453 0.79292 0.0
H587 H 0.35 0.46832 0.75122 0.0
H588 H 0.35432 0.41423 0.75725 0.0
H589 H 0.31915 0.40249 0.69279 0.0
H590 H 0.31511 0.45636 0.68643 0.0
H591 H 0.27053 0.42516 0.68439 0.0
H592 H 0.17328 0.46972 0.79403 0.0
H593 H 0.1743 0.53989 0.77002 0.0
H594 H 0.29188 0.51858 0.7197 0.0
C595 C 0.27985 0.3586 0.75544 0.0
C596 C 0.25283 0.33016 0.77093 0.0
C597 C 0.21744 0.34344 0.78952 0.0
C598 C 0.20838 0.38493 0.79164 0.0
C599 C 0.2356 0.41236 0.77578 0.0
C600 C 0.27079 0.39974 0.75834 0.0
C601 C 0.2939 0.43493 0.74165 0.0
C602 C 0.33437 0.44085 0.76198 0.0
C603 C 0.29999 0.4294 0.69879 0.0
C604 C 0.26512 0.46921 0.7505 0.0
C605 C 0.23198 0.45567 0.77075 0.0
C606 C 0.19945 0.4809 0.77896 0.0
C607 C 0.20029 0.52063 0.76517 0.0
C608 C 0.2334 0.53463 0.74345 0.0
C609 C 0.26674 0.50898 0.73712 0.0
H610 H 0.51404 0.71926 0.30671 0.0
H611 H 0.51704 0.83208 0.37018 0.0
H612 H 0.44549 0.84341 0.35686 0.0
H613 H 0.44148 0.75731 0.23413 0.0
H614 H 0.41573 0.70936 0.23037 0.0
H615 H 0.46869 0.71076 0.24177 0.0
H616 H 0.45544 0.66932 0.30278 0.0
H617 H 0.40285 0.66692 0.29087 0.0
H618 H 0.41801 0.68696 0.33606 0.0
H619 H 0.37316 0.84045 0.34244 0.0
H620 H 0.3026 0.81928 0.33202 0.0
H621 H 0.34475 0.71052 0.27541 0.0
C622 C 0.49955 0.74639 0.31743 0.0
C623 C 0.52124 0.77501 0.33902 0.0
C624 C 0.50125 0.81009 0.3529 0.0
C625 C 0.46056 0.81696 0.34542 0.0
C626 C 0.44011 0.78884 0.32346 0.0
C627 C 0.45868 0.75421 0.30962 0.0
C628 C 0.42867 0.72806 0.28843 0.0
C629 C 0.43929 0.72626 0.24617 0.0
C630 C 0.42609 0.68531 0.30559 0.0
C631 C 0.39017 0.75207 0.2949 0.0
C632 C 0.39773 0.7876 0.3143 0.0
C633 C 0.36678 0.81315 0.32652 0.0
C634 C 0.32684 0.80109 0.32032 0.0
C635 C 0.31837 0.76376 0.3023 0.0
C636 C 0.35045 0.73989 0.28806 0.0
H637 H 0.68951 0.62669 0.78921 0.0
H638 H 0.77403 0.66293 0.70172 0.0
H639 H 0.78274 0.59144 0.683 0.0
H640 H 0.74538 0.53259 0.81403 0.0
H641 H 0.69948 0.50541 0.82426 0.0
H642 H 0.70176 0.55944 0.8315 0.0
H643 H 0.63942 0.56771 0.78823 0.0
H644 H 0.63786 0.51387 0.77974 0.0
H645 H 0.64128 0.54848 0.74053 0.0
H646 H 0.77875 0.51706 0.67062 0.0
H647 H 0.77319 0.44238 0.67396 0.0
H648 H 0.693 0.45332 0.77023 0.0
C649 C 0.71076 0.61946 0.7669 0.0
C650 C 0.73064 0.65047 0.74658 0.0
C651 C 0.758 0.63971 0.71732 0.0
C652 C 0.76301 0.59922 0.70633 0.0
C653 C 0.7411 0.56964 0.72538 0.0
C654 C 0.71659 0.57899 0.75584 0.0
C655 C 0.69753 0.54104 0.77213 0.0
C656 C 0.7119 0.53421 0.81289 0.0
C657 C 0.65127 0.54291 0.77001 0.0
C658 C 0.7144 0.50912 0.74549 0.0
C659 C 0.73922 0.52642 0.71854 0.0
C660 C 0.7593 0.50315 0.69148 0.0
C661 C 0.75552 0.46089 0.6932 0.0
C662 C 0.73141 0.44245 0.72135 0.0
C663 C 0.71011 0.46688 0.74742 0.0
H664 H 0.94852 0.20716 0.27417 0.0
H665 H 0.9446 0.27731 0.17089 0.0
H666 H 0.0186 0.27404 0.16585 0.0
H667 H 0.03474 0.25448 0.31155 0.0
H668 H 0.05678 0.20973 0.33204 0.0
H669 H 0.00294 0.21298 0.32611 0.0
H670 H 0.00307 0.14642 0.28712 0.0
H671 H 0.0568 0.14245 0.29369 0.0
H672 H 0.03602 0.14187 0.24671 0.0
H673 H 0.09176 0.27208 0.17625 0.0
H674 H 0.16201 0.26096 0.19498 0.0
H675 H 0.12159 0.18836 0.29014 0.0
C676 C 0.96335 0.22043 0.24987 0.0
C677 C 0.94097 0.24157 0.2223 0.0
C678 C 0.96126 0.26008 0.19165 0.0
C679 C 0.00328 0.25878 0.1888 0.0
C680 C 0.0247 0.23904 0.21703 0.0
C681 C 0.00567 0.21947 0.24662 0.0
C682 C 0.03654 0.20177 0.27368 0.0
C683 C 0.03249 0.22088 0.31318 0.0
C684 C 0.03289 0.15536 0.27538 0.0
C685 C 0.07564 0.21472 0.25467 0.0
C686 C 0.06778 0.23666 0.22235 0.0
C687 C 0.0984 0.25397 0.2009 0.0
C688 C 0.1383 0.24733 0.2118 0.0
C689 C 0.14764 0.22268 0.24341 0.0
C690 C 0.11565 0.20704 0.26569 0.0
H691 H 0.28574 0.00583 0.86723 0.0
H692 H 0.18814 0.05557 0.80068 0.0
H693 H 0.17446 0.98686 0.77447 0.0
H694 H 0.3216 0.92942 0.8018 0.0
H695 H 0.33026 0.89279 0.8386 0.0
H696 H 0.3345 0.94618 0.84875 0.0
H697 H 0.28202 0.93926 0.90289 0.0
H698 H 0.27811 0.88586 0.89325 0.0
H699 H 0.23351 0.91707 0.893 0.0
H700 H 0.17074 0.91186 0.75776 0.0
H701 H 0.17009 0.83686 0.75904 0.0
H702 H 0.26901 0.83774 0.83871 0.0
C703 C 0.26192 0.00244 0.84658 0.0
C704 C 0.23842 0.03585 0.83523 0.0
C705 C 0.20658 0.03016 0.80934 0.0
C706 C 0.1989 0.99143 0.7942 0.0
C707 C 0.22306 0.95905 0.80579 0.0
C708 C 0.25347 0.96422 0.83193 0.0
C709 C 0.27239 0.92439 0.84311 0.0
C710 C 0.31735 0.92314 0.8324 0.0
C711 C 0.26611 0.91617 0.88556 0.0
C712 C 0.248 0.89565 0.81906 0.0
C713 C 0.22007 0.91614 0.79729 0.0
C714 C 0.19272 0.89558 0.77439 0.0
C715 C 0.19284 0.85303 0.77499 0.0
C716 C 0.21979 0.83172 0.79869 0.0
C717 C 0.24848 0.85338 0.81999 0.0
H718 H 0.8579 0.81993 0.24504 0.0
H719 H 0.81885 0.69766 0.27054 0.0
H720 H 0.88987 0.67435 0.26903 0.0
H721 H 0.93305 0.79656 0.1813 0.0
H722 H 0.97032 0.83301 0.19625 0.0
H723 H 0.9175 0.84311 0.2035 0.0
H724 H 0.92653 0.85272 0.27486 0.0
H725 H 0.98007 0.84534 0.26895 0.0
H726 H 0.95225 0.81452 0.30195 0.0
H727 H 0.96357 0.66389 0.26166 0.0
H728 H 0.03593 0.66544 0.24774 0.0
H729 H 0.02897 0.79521 0.22723 0.0
C730 C 0.86463 0.78841 0.25074 0.0
C731 C 0.83338 0.76039 0.25805 0.0
C732 C 0.84271 0.71936 0.2652 0.0
C733 C 0.88283 0.70599 0.26443 0.0
C734 C 0.91311 0.73426 0.25703 0.0
C735 C 0.90463 0.77468 0.25064 0.0
C736 C 0.94289 0.79844 0.24246 0.0
C737 C 0.94086 0.81896 0.20356 0.0
C738 C 0.9509 0.8296 0.27393 0.0
C739 C 0.97394 0.76464 0.24329 0.0
C740 C 0.95603 0.72811 0.25252 0.0
C741 C 0.97801 0.69234 0.25466 0.0
C742 C 0.0193 0.69367 0.24664 0.0
C743 C 0.03852 0.73049 0.23618 0.0
C744 C 0.01543 0.7666 0.23519 0.0
H745 H 0.72516 0.1263 0.79293 0.0
H746 H 0.84542 0.14435 0.83735 0.0
H747 H 0.85495 0.07023 0.84153 0.0
H748 H 0.69932 0.04683 0.85326 0.0
H749 H 0.67057 0.01839 0.81914 0.0
H750 H 0.67531 0.07244 0.81443 0.0
H751 H 0.70366 0.06293 0.7467 0.0
H752 H 0.69933 0.00868 0.75135 0.0
H753 H 0.74718 0.03113 0.73918 0.0
H754 H 0.84974 -0.00428 0.84615 0.0
H755 H 0.82807 0.9252 0.85631 0.0
H756 H 0.71037 0.95438 0.81013 0.0
C757 C 0.75372 0.11433 0.80261 0.0
C758 C 0.78491 0.14048 0.8143 0.0
C759 C 0.82154 0.12434 0.8279 0.0
C760 C 0.82725 0.08245 0.83019 0.0
C761 C 0.79596 0.05718 0.81875 0.0
C762 C 0.7598 0.07236 0.8054 0.0
C763 C 0.72975 0.03851 0.79862 0.0
C764 C 0.69151 0.0444 0.82282 0.0
C765 C 0.71938 0.03512 0.75645 0.0
C766 C 0.75422 0.0023 0.81162 0.0
C767 C 0.7926 0.0137 0.82226 0.0
C768 C 0.81996 0.98618 0.8374 0.0
C769 C 0.80739 0.94609 0.84295 0.0
C770 C 0.76757 0.93406 0.8339 0.0
C771 C 0.74116 0.9624 0.81699 0.0
H772 H 0.32952 0.40491 0.45204 0.0
H773 H 0.21706 0.34041 0.47023 0.0
H774 H 0.19209 0.3968 0.50963 0.0
H775 H 0.34057 0.44448 0.54199 0.0
H776 H 0.35936 0.49343 0.52774 0.0
H777 H 0.3669 0.45007 0.49765 0.0
H778 H 0.33202 0.48763 0.44247 0.0
H779 H 0.32445 0.53127 0.47245 0.0
H780 H 0.28207 0.50804 0.44916 0.0
H781 H 0.18183 0.45707 0.55237 0.0
H782 H 0.18708 0.5174 0.59389 0.0
H783 H 0.3051 0.54361 0.54679 0.0
C784 C 0.29934 0.40305 0.4637 0.0
C785 C 0.27521 0.36829 0.45784 0.0
C786 C 0.23598 0.36689 0.47387 0.0
C787 C 0.22149 0.39879 0.4964 0.0
C788 C 0.24622 0.43234 0.50213 0.0
C789 C 0.2841 0.435 0.48581 0.0
C790 C 0.30514 0.47382 0.49756 0.0
C791 C 0.34536 0.46488 0.51743 0.0
C792 C 0.31129 0.50185 0.46337 0.0
C793 C 0.27418 0.49132 0.52467 0.0
C794 C 0.24007 0.46734 0.52641 0.0
C795 C 0.20811 0.47645 0.55078 0.0
C796 C 0.2113 0.51075 0.57422 0.0
C797 C 0.24634 0.53519 0.57332 0.0
C798 C 0.27781 0.5256 0.54781 0.0
H799 H 0.50646 0.66898 0.49318 0.0
H800 H 0.53214 0.79586 0.51456 0.0
H801 H 0.48364 0.79523 0.56817 0.0
H802 H 0.40078 0.6741 0.51217 0.0
H803 H 0.39881 0.62456 0.53343 0.0
H804 H 0.43622 0.63547 0.49795 0.0
H805 H 0.49248 0.61356 0.54433 0.0
H806 H 0.45521 0.60308 0.58012 0.0
H807 H 0.49595 0.6377 0.58994 0.0
H808 H 0.42994 0.7806 0.61792 0.0
H809 H 0.37462 0.75417 0.65803 0.0
H810 H 0.38636 0.63659 0.60373 0.0
C811 C 0.50195 0.69666 0.50918 0.0
C812 C 0.52282 0.73256 0.49986 0.0
C813 C 0.51615 0.76816 0.52129 0.0
C814 C 0.48887 0.76797 0.5518 0.0
C815 C 0.46873 0.73192 0.56031 0.0
C816 C 0.47492 0.69698 0.53946 0.0
C817 C 0.44877 0.6625 0.55336 0.0
C818 C 0.41941 0.64835 0.52239 0.0
C819 C 0.47466 0.62713 0.56781 0.0
C820 C 0.42672 0.68344 0.58535 0.0
C821 C 0.43857 0.72343 0.58903 0.0
C822 C 0.42072 0.74922 0.61551 0.0
C823 C 0.38941 0.73393 0.63823 0.0
C824 C 0.3764 0.69323 0.63434 0.0
C825 C 0.39598 0.66764 0.60798 0.0
H826 H 0.73009 0.4567 0.55021 0.0
H827 H 0.65511 0.50379 0.64099 0.0
H828 H 0.63939 0.56397 0.60266 0.0
H829 H 0.77013 0.55633 0.51985 0.0
H830 H 0.76985 0.5427 0.47051 0.0
H831 H 0.77719 0.5042 0.50585 0.0
H832 H 0.71707 0.46382 0.47855 0.0
H833 H 0.70909 0.50239 0.44346 0.0
H834 H 0.66849 0.48797 0.47462 0.0
H835 H 0.62475 0.61382 0.55283 0.0
H836 H 0.62057 0.65803 0.49704 0.0
H837 H 0.70904 0.58353 0.4389 0.0
C838 C 0.71094 0.48009 0.56214 0.0
C839 C 0.69348 0.47557 0.5984 0.0
C840 C 0.66852 0.5066 0.61317 0.0
C841 C 0.65938 0.54084 0.59161 0.0
C842 C 0.67586 0.54383 0.55551 0.0
C843 C 0.7018 0.51487 0.54104 0.0
C844 C 0.71495 0.52575 0.50115 0.0
C845 C 0.76076 0.53267 0.49924 0.0
C846 C 0.70159 0.49303 0.47278 0.0
C847 C 0.69183 0.56503 0.49541 0.0
C848 C 0.66907 0.57434 0.52708 0.0
C849 C 0.64289 0.60727 0.52809 0.0
C850 C 0.64049 0.632 0.49619 0.0
C851 C 0.66455 0.62415 0.46394 0.0
C852 C 0.69064 0.59026 0.46345 0.0
H853 H 0.43386 0.30043 0.53412 0.0
H854 H 0.46703 0.18912 0.47658 0.0
H855 H 0.52754 0.18337 0.51715 0.0
H856 H 0.5282 0.34158 0.54146 0.0
H857 H 0.52133 0.36311 0.5879 0.0
H858 H 0.47845 0.35517 0.55789 0.0
H859 H 0.4443 0.31201 0.60999 0.0
H860 H 0.48721 0.31962 0.64034 0.0
H861 H 0.47053 0.26896 0.62927 0.0
H862 H 0.58814 0.19468 0.55887 0.0
H863 H 0.6437 0.22179 0.59765 0.0
H864 H 0.56936 0.32504 0.62864 0.0
C865 C 0.45336 0.27432 0.53071 0.0
C866 C 0.44586 0.24504 0.50258 0.0
C867 C 0.47219 0.21158 0.49841 0.0
C868 C 0.50652 0.20809 0.52132 0.0
C869 C 0.51342 0.23793 0.54857 0.0
C870 C 0.48727 0.27015 0.5536 0.0
C871 C 0.50259 0.29954 0.58309 0.0
C872 C 0.50798 0.34235 0.56657 0.0
C873 C 0.47449 0.30005 0.61773 0.0
C874 C 0.54266 0.28017 0.59235 0.0
C875 C 0.54805 0.24423 0.57276 0.0
C876 C 0.58393 0.22236 0.57488 0.0
C877 C 0.61533 0.23803 0.59702 0.0
C878 C 0.6108 0.27548 0.61632 0.0
C879 C 0.57362 0.29618 0.61453 0.0
H880 H 0.73888 0.98144 0.97313 0.0
H881 H 0.80346 0.89548 0.04296 0.0
H882 H 0.81182 0.94781 0.09222 0.0
H883 H 0.8011 0.06579 0.99413 0.0
H884 H 0.7608 0.10245 0.99453 0.0
H885 H 0.75643 0.05721 0.96632 0.0
H886 H 0.68912 0.03995 1.00015 0.0
H887 H 0.69363 0.08508 1.02867 0.0
H888 H 0.6879 0.03633 0.05094 0.0
H889 H 0.81693 0.01017 0.1324 0.0
H890 H 0.82162 0.07928 0.159 0.0
H891 H 0.75498 0.1258 0.06306 0.0
C892 C 0.7541 0.97357 0.99911 0.0
C893 C 0.77022 0.93432 1.00443 0.0
C894 C 0.79073 0.92531 0.03841 0.0
C895 C 0.79552 0.9548 0.06662 0.0
C896 C 0.77974 -0.00666 0.06048 0.0
C897 C 0.75956 0.00292 1.02754 0.0
C898 C 0.748 0.04747 1.0271 0.0
C899 C 0.76778 0.06951 0.99354 0.0
C900 C 0.70192 0.05249 1.02669 0.0
C901 C 0.76561 0.06145 0.06447 0.0
C902 C 0.78326 0.02962 0.08352 0.0
C903 C 0.80286 0.0353 0.11793 0.0
C904 C 0.80527 0.0747 0.13291 0.0
C905 C 0.78849 0.10806 0.11335 0.0
C906 C 0.76777 0.10098 0.07901 0.0
H907 H 0.96904 0.25337 0.08029 0.0
H908 H 0.92506 0.12948 0.08081 0.0
H909 H 0.97445 0.11109 1.03166 0.0
H910 H -0.00599 0.25768 0.97788 0.0
H911 H 0.03932 0.28675 0.98541 0.0
H912 H -0.00285 0.29217 1.01733 0.0
H913 H 0.0431 0.27445 0.07403 0.0
H914 H 0.08542 0.26944 0.04243 0.0
H915 H 0.07178 0.22802 0.07305 0.0
H916 H 0.02945 0.10476 0.98503 0.0
H917 H 0.09309 0.10841 0.94936 0.0
H918 H 0.10593 0.23503 0.98111 0.0
C919 C 0.96959 0.22261 0.06952 0.0
C920 C 0.94318 0.19287 0.08401 0.0
C921 C 0.94509 0.1527 0.06998 0.0
C922 C 0.97278 0.14202 0.04184 0.0
C923 C -0.00139 0.1718 1.02816 0.0
C924 C -0.00227 0.21117 0.04173 0.0
C925 C 0.03158 0.23608 1.02456 0.0
C926 C 0.01449 0.2702 0.99983 0.0
C927 C 0.05963 0.25297 0.05535 0.0
C928 C 0.05248 0.20406 1.00059 0.0
C929 C 0.03205 0.16761 1.00222 0.0
C930 C 0.04565 0.13318 0.98327 0.0
C931 C 0.08181 0.13563 0.96293 0.0
C932 C 0.10449 0.17202 0.9624 0.0
C933 C 0.08913 0.20688 0.98088 0.0
H934 H 0.14591 0.90813 0.12115 0.0
H935 H 0.25628 0.83888 0.10753 0.0
H936 H 0.28415 0.89274 0.06674 0.0
H937 H 0.13847 0.94211 1.02941 0.0
H938 H 0.12012 0.9921 0.04091 0.0
H939 H 0.11081 0.95064 0.07264 0.0
H940 H 0.14469 0.99062 0.12721 0.0
H941 H 0.1538 0.03242 0.09559 0.0
H942 H 0.19513 0.00997 0.12096 0.0
H943 H 0.29683 0.95102 1.02137 0.0
H944 H 0.29384 0.01002 0.97807 0.0
H945 H 0.17596 0.04106 1.02293 0.0
C946 C 0.17629 0.90468 0.1103 0.0
C947 C 0.19892 0.86932 0.11767 0.0
C948 C 0.23846 0.86585 0.10261 0.0
C949 C 0.25456 0.89628 0.07931 0.0
C950 C 0.23102 0.93031 0.07181 0.0
C951 C 0.19296 0.93494 0.08736 0.0
C952 C 0.17298 0.97337 0.07353 0.0
C953 C 0.13326 0.96397 0.05289 0.0
C954 C 0.16626 0.00336 0.10628 0.0
C955 C 0.20497 0.98873 0.04657 0.0
C956 C 0.23848 0.96384 0.04618 0.0
C957 C 0.27099 0.97106 1.02191 0.0
C958 C 0.26905 0.0045 0.99739 0.0
C959 C 0.23476 0.03 0.99732 0.0
C960 C 0.20266 0.02214 1.02252 0.0
H961 H 0.90877 0.77619 0.93013 0.0
H962 H 0.80577 0.7466 1.00007 0.0
H963 H 0.85052 0.73667 0.05503 0.0
H964 H 0.97828 0.70056 0.97705 0.0
H965 H 0.02124 0.73357 0.97175 0.0
H966 H 0.98139 0.73442 0.93726 0.0
H967 H 0.97321 0.81175 0.94788 0.0
H968 H 0.01252 0.81101 0.98274 0.0
H969 H 0.96342 0.83069 0.99486 0.0
H970 H 0.90441 0.74134 0.10378 0.0
H971 H 0.96677 0.7487 0.14172 0.0
H972 H 0.03578 0.76827 0.03925 0.0
C973 C 0.89606 0.76622 0.95674 0.0
C974 C 0.8541 0.76137 0.96119 0.0
C975 C 0.83804 0.7493 0.99639 0.0
C976 C 0.86312 0.74398 1.02765 0.0
C977 C 0.90434 0.7498 1.02277 0.0
C978 C 0.92095 0.75939 0.98799 0.0
C979 C 0.96625 0.76435 0.99074 0.0
C980 C 0.98807 0.73125 0.96785 0.0
C981 C 0.9796 0.80699 0.97833 0.0
C982 C 0.97201 0.75824 1.03275 0.0
C983 C 0.93589 0.75004 0.05075 0.0
C984 C 0.93307 0.74674 0.08996 0.0
C985 C 0.96831 0.75141 0.11128 0.0
C986 C 0.00555 0.75883 0.09317 0.0
C987 C 0.00752 0.7619 0.05351 0.0
loop_
_geom_bond_atom_site_label_1
_geom_bond_atom_site_label_2
_geom_bond_distance
_geom_bond_site_symmetry_2
_ccdc_geom_bond_type
O0 Tb1 2.292 . S
O0 C3 1.255 . S
Tb1 O0 2.292 . S
Tb1 O17 2.326 . S
Tb1 O19 2.500 . S
Tb1 O20 2.473 . S
Tb1 O23 2.324 . S
Eu2 O6 2.292 . S
Eu2 C7 2.852 . S
Eu2 O18 2.324 . S
Eu2 O22 2.326 . S
Eu2 O24 2.500 . S
Eu2 O25 2.473 . S
C3 O0 1.255 . S
C3 O4 1.247 . S
O4 C3 1.247 . S
C5 O17 1.242 . S
C5 O18 1.258 . S
O6 Eu2 2.292 . S
O6 C8 1.255 . S
C7 Eu2 2.852 . S
C7 C11 1.503 . S
C7 O24 1.273 . S
C7 O25 1.257 . S
C8 O6 1.255 . S
C8 O9 1.247 . S
O9 C8 1.247 . S
C10 O22 1.242 . S
C10 O23 1.258 . S
C11 C7 1.503 . S
C11 C12 1.379 . S
C11 C16 1.392 . S
C12 C11 1.379 . S
C12 C13 1.404 . S
C12 H26 0.929 . S
C13 C12 1.404 . S
C13 C14 1.389 . S
C14 C13 1.389 . S
C14 C15 1.399 . S
C14 H27 0.931 . S
C15 C14 1.399 . S
C15 C16 1.390 . S
C16 C11 1.392 . S
C16 C15 1.390 . S
C16 H28 0.929 . S
O17 Tb1 2.326 . S
O17 C5 1.242 . S
O18 Eu2 2.324 . S
O18 C5 1.258 . S
O19 Tb1 2.500 . S
O19 C21 1.273 . S
O20 Tb1 2.473 . S
O20 C21 1.257 . S
C21 O19 1.273 . S
C21 O20 1.257 . S
O22 Eu2 2.326 . S
O22 C10 1.242 . S
O23 Tb1 2.324 . S
O23 C10 1.258 . S
O24 Eu2 2.500 . S
O24 C7 1.273 . S
O25 Eu2 2.473 . S
O25 C7 1.257 . S
H26 C12 0.929 . S
H27 C14 0.931 . S
H28 C16 0.929 . S
O29 Tb30 2.292 . S
O29 C32 1.255 . S
Tb30 O29 2.292 . S
Tb30 O46 2.326 . S
Tb30 O48 2.500 . S
Tb30 O49 2.473 . S
Tb30 O52 2.324 . S
Eu31 O35 2.292 . S
Eu31 C36 2.852 . S
Eu31 O47 2.324 . S
Eu31 O51 2.326 . S
Eu31 O53 2.500 . S
Eu31 O54 2.473 . S
C32 O29 1.255 . S
C32 O33 1.247 . S
O33 C32 1.247 . S
C34 O46 1.242 . S
C34 O47 1.258 . S
O35 Eu31 2.292 . S
O35 C37 1.255 . S
C36 Eu31 2.852 . S
C36 C40 1.503 . S
C36 O53 1.273 . S
C36 O54 1.257 . S
C37 O35 1.255 . S
C37 O38 1.247 . S
O38 C37 1.247 . S
C39 O51 1.242 . S
C39 O52 1.258 . S
C40 C36 1.503 . S
C40 C41 1.379 . S
C40 C45 1.392 . S
C41 C40 1.379 . S
C41 C42 1.404 . S
C41 H55 0.929 . S
C42 C41 1.404 . S
C42 C43 1.389 . S
C43 C42 1.389 . S
C43 C44 1.399 . S
C43 H56 0.931 . S
C44 C43 1.399 . S
C44 C45 1.390 . S
C45 C40 1.392 . S
C45 C44 1.390 . S
C45 H57 0.929 . S
O46 Tb30 2.326 . S
O46 C34 1.242 . S
O47 Eu31 2.324 . S
O47 C34 1.258 . S
O48 Tb30 2.500 . S
O48 C50 1.273 . S
O49 Tb30 2.473 . S
O49 C50 1.257 . S
C50 O48 1.273 . S
C50 O49 1.257 . S
O51 Eu31 2.326 . S
O51 C39 1.242 . S
O52 Tb30 2.324 . S
O52 C39 1.258 . S
O53 Eu31 2.500 . S
O53 C36 1.273 . S
O54 Eu31 2.473 . S
O54 C36 1.257 . S
H55 C41 0.929 . S
H56 C43 0.931 . S
H57 C45 0.929 . S
O58 Tb59 2.292 . S
O58 C61 1.255 . S
Tb59 O58 2.292 . S
Tb59 O75 2.326 . S
Tb59 O77 2.500 . S
Tb59 O78 2.473 . S
Tb59 O81 2.324 . S
Eu60 O64 2.292 . S
Eu60 C65 2.852 . S
Eu60 O76 2.324 . S
Eu60 O80 2.326 . S
Eu60 O82 2.500 . S
Eu60 O83 2.473 . S
C61 O58 1.255 . S
C61 O62 1.247 . S
O62 C61 1.247 . S
C63 O75 1.242 . S
C63 O76 1.258 . S
O64 Eu60 2.292 . S
O64 C66 1.255 . S
C65 Eu60 2.852 . S
C65 C69 1.503 . S
C65 O82 1.273 . S
C65 O83 1.257 . S
C66 O64 1.255 . S
C66 O67 1.247 . S
O67 C66 1.247 . S
C68 O80 1.242 . S
C68 O81 1.258 . S
C69 C65 1.503 . S
C69 C70 1.379 . S
C69 C74 1.392 . S
C70 C69 1.379 . S
C70 C71 1.404 . S
C70 H84 0.929 . S
C71 C70 1.404 . S
C71 C72 1.389 . S
C72 C71 1.389 . S
C72 C73 1.399 . S
C72 H85 0.931 . S
C73 C72 1.399 . S
C73 C74 1.390 . S
C74 C69 1.392 . S
C74 C73 1.390 . S
C74 H86 0.929 . S
O75 Tb59 2.326 . S
O75 C63 1.242 . S
O76 Eu60 2.324 . S
O76 C63 1.258 . S
O77 Tb59 2.500 . S
O77 C79 1.273 . S
O78 Tb59 2.473 . S
O78 C79 1.257 . S
C79 O77 1.273 . S
C79 O78 1.257 . S
O80 Eu60 2.326 . S
O80 C68 1.242 . S
O81 Tb59 2.324 . S
O81 C68 1.258 . S
O82 Eu60 2.500 . S
O82 C65 1.273 . S
O83 Eu60 2.473 . S
O83 C65 1.257 . S
H84 C70 0.929 . S
H85 C72 0.931 . S
H86 C74 0.929 . S
O87 Tb88 2.292 . S
O87 C90 1.255 . S
Tb88 O87 2.292 . S
Tb88 O104 2.326 . S
Tb88 O106 2.500 . S
Tb88 O107 2.473 . S
Tb88 O110 2.324 . S
Eu89 O93 2.292 . S
Eu89 C94 2.852 . S
Eu89 O105 2.324 . S
Eu89 O109 2.326 . S
Eu89 O111 2.500 . S
Eu89 O112 2.473 . S
C90 O87 1.255 . S
C90 O91 1.247 . S
O91 C90 1.247 . S
C92 O104 1.242 . S
C92 O105 1.258 . S
O93 Eu89 2.292 . S
O93 C95 1.255 . S
C94 Eu89 2.852 . S
C94 C98 1.503 . S
C94 O111 1.273 . S
C94 O112 1.257 . S
C95 O93 1.255 . S
C95 O96 1.247 . S
O96 C95 1.247 . S
C97 O109 1.242 . S
C97 O110 1.258 . S
C98 C94 1.503 . S
C98 C99 1.379 . S
C98 C103 1.392 . S
C99 C98 1.379 . S
C99 C100 1.404 . S
C99 H113 0.929 . S
C100 C99 1.404 . S
C100 C101 1.389 . S
C101 C100 1.389 . S
C101 C102 1.399 . S
C101 H114 0.931 . S
C102 C101 1.399 . S
C102 C103 1.390 . S
C103 C98 1.392 . S
C103 C102 1.390 . S
C103 H115 0.929 . S
O104 Tb88 2.326 . S
O104 C92 1.242 . S
O105 Eu89 2.324 . S
O105 C92 1.258 . S
O106 Tb88 2.500 . S
O106 C108 1.273 . S
O107 Tb88 2.473 . S
O107 C108 1.257 . S
C108 O106 1.273 . S
C108 O107 1.257 . S
O109 Eu89 2.326 . S
O109 C97 1.242 . S
O110 Tb88 2.324 . S
O110 C97 1.258 . S
O111 Eu89 2.500 . S
O111 C94 1.273 . S
O112 Eu89 2.473 . S
O112 C94 1.257 . S
H113 C99 0.929 . S
H114 C101 0.931 . S
H115 C103 0.929 . S
O116 Tb117 2.292 . S
O116 C119 1.255 . S
Tb117 O116 2.292 . S
Tb117 O133 2.326 . S
Tb117 O135 2.500 . S
Tb117 O136 2.473 . S
Tb117 O139 2.324 . S
Eu118 O122 2.292 . S
Eu118 C123 2.852 . S
Eu118 O134 2.324 . S
Eu118 O138 2.326 . S
Eu118 O140 2.500 . S
Eu118 O141 2.473 . S
C119 O116 1.255 . S
C119 O120 1.247 . S
O120 C119 1.247 . S
C121 O133 1.242 . S
C121 O134 1.258 . S
O122 Eu118 2.292 . S
O122 C124 1.255 . S
C123 Eu118 2.852 . S
C123 C127 1.503 . S
C123 O140 1.273 . S
C123 O141 1.257 . S
C124 O122 1.255 . S
C124 O125 1.247 . S
O125 C124 1.247 . S
C126 O138 1.242 . S
C126 O139 1.258 . S
C127 C123 1.503 . S
C127 C128 1.379 . S
C127 C132 1.392 . S
C128 C127 1.379 . S
C128 C129 1.404 . S
C128 H142 0.929 . S
C129 C128 1.404 . S
C129 C130 1.389 . S
C130 C129 1.389 . S
C130 C131 1.399 . S
C130 H143 0.931 . S
C131 C130 1.399 . S
C131 C132 1.390 . S
C132 C127 1.392 . S
C132 C131 1.390 . S
C132 H144 0.929 . S
O133 Tb117 2.326 . S
O133 C121 1.242 . S
O134 Eu118 2.324 . S
O134 C121 1.258 . S
O135 Tb117 2.500 . S
O135 C137 1.273 . S
O136 Tb117 2.473 . S
O136 C137 1.257 . S
C137 O135 1.273 . S
C137 O136 1.257 . S
O138 Eu118 2.326 . S
O138 C126 1.242 . S
O139 Tb117 2.324 . S
O139 C126 1.258 . S
O140 Eu118 2.500 . S
O140 C123 1.273 . S
O141 Eu118 2.473 . S
O141 C123 1.257 . S
H142 C128 0.929 . S
H143 C130 0.931 . S
H144 C132 0.929 . S
O145 Tb146 2.292 . S
O145 C148 1.255 . S
Tb146 O145 2.292 . S
Tb146 O162 2.326 . S
Tb146 O164 2.500 . S
Tb146 O165 2.473 . S
Tb146 O168 2.324 . S
Eu147 O151 2.292 . S
Eu147 C152 2.852 . S
Eu147 O163 2.324 . S
Eu147 O167 2.326 . S
Eu147 O169 2.500 . S
Eu147 O170 2.473 . S
C148 O145 1.255 . S
C148 O149 1.247 . S
O149 C148 1.247 . S
C150 O162 1.242 . S
C150 O163 1.258 . S
O151 Eu147 2.292 . S
O151 C153 1.255 . S
C152 Eu147 2.852 . S
C152 C156 1.503 . S
C152 O169 1.273 . S
C152 O170 1.257 . S
C153 O151 1.255 . S
C153 O154 1.247 . S
O154 C153 1.247 . S
C155 O167 1.242 . S
C155 O168 1.258 . S
C156 C152 1.503 . S
C156 C157 1.379 . S
C156 C161 1.392 . S
C157 C156 1.379 . S
C157 C158 1.404 . S
C157 H171 0.929 . S
C158 C157 1.404 . S
C158 C159 1.389 . S
C159 C158 1.389 . S
C159 C160 1.399 . S
C159 H172 0.931 . S
C160 C159 1.399 . S
C160 C161 1.390 . S
C161 C156 1.392 . S
C161 C160 1.390 . S
C161 H173 0.929 . S
O162 Tb146 2.326 . S
O162 C150 1.242 . S
O163 Eu147 2.324 . S
O163 C150 1.258 . S
O164 Tb146 2.500 . S
O164 C166 1.273 . S
O165 Tb146 2.473 . S
O165 C166 1.257 . S
C166 O164 1.273 . S
C166 O165 1.257 . S
O167 Eu147 2.326 . S
O167 C155 1.242 . S
O168 Tb146 2.324 . S
O168 C155 1.258 . S
O169 Eu147 2.500 . S
O169 C152 1.273 . S
O170 Eu147 2.473 . S
O170 C152 1.257 . S
H171 C157 0.929 . S
H172 C159 0.931 . S
H173 C161 0.929 . S
O174 Tb175 2.292 . S
O174 C177 1.255 . S
Tb175 O174 2.292 . S
Tb175 O191 2.326 . S
Tb175 O193 2.500 . S
Tb175 O194 2.473 . S
Tb175 O197 2.324 . S
Eu176 O180 2.292 . S
Eu176 C181 2.852 . S
Eu176 O192 2.324 . S
Eu176 O196 2.326 . S
Eu176 O198 2.500 . S
Eu176 O199 2.473 . S
C177 O174 1.255 . S
C177 O178 1.247 . S
O178 C177 1.247 . S
C179 O191 1.242 . S
C179 O192 1.258 . S
O180 Eu176 2.292 . S
O180 C182 1.255 . S
C181 Eu176 2.852 . S
C181 C185 1.503 . S
C181 O198 1.273 . S
C181 O199 1.257 . S
C182 O180 1.255 . S
C182 O183 1.247 . S
O183 C182 1.247 . S
C184 O196 1.242 . S
C184 O197 1.258 . S
C185 C181 1.503 . S
C185 C186 1.379 . S
C185 C190 1.392 . S
C186 C185 1.379 . S
C186 C187 1.404 . S
C186 H200 0.929 . S
C187 C186 1.404 . S
C187 C188 1.389 . S
C188 C187 1.389 . S
C188 C189 1.399 . S
C188 H201 0.931 . S
C189 C188 1.399 . S
C189 C190 1.390 . S
C190 C185 1.392 . S
C190 C189 1.390 . S
C190 H202 0.929 . S
O191 Tb175 2.326 . S
O191 C179 1.242 . S
O192 Eu176 2.324 . S
O192 C179 1.258 . S
O193 Tb175 2.500 . S
O193 C195 1.273 . S
O194 Tb175 2.473 . S
O194 C195 1.257 . S
C195 O193 1.273 . S
C195 O194 1.257 . S
O196 Eu176 2.326 . S
O196 C184 1.242 . S
O197 Tb175 2.324 . S
O197 C184 1.258 . S
O198 Eu176 2.500 . S
O198 C181 1.273 . S
O199 Eu176 2.473 . S
O199 C181 1.257 . S
H200 C186 0.929 . S
H201 C188 0.931 . S
H202 C190 0.929 . S
O203 Tb204 2.292 . S
O203 C206 1.255 . S
Tb204 O203 2.292 . S
Tb204 O220 2.326 . S
Tb204 O222 2.500 . S
Tb204 O223 2.473 . S
Tb204 O226 2.324 . S
Eu205 O209 2.292 . S
Eu205 C210 2.852 . S
Eu205 O221 2.324 . S
Eu205 O225 2.326 . S
Eu205 O227 2.500 . S
Eu205 O228 2.473 . S
C206 O203 1.255 . S
C206 O207 1.247 . S
O207 C206 1.247 . S
C208 O220 1.242 . S
C208 O221 1.258 . S
O209 Eu205 2.292 . S
O209 C211 1.255 . S
C210 Eu205 2.852 . S
C210 C214 1.503 . S
C210 O227 1.273 . S
C210 O228 1.257 . S
C211 O209 1.255 . S
C211 O212 1.247 . S
O212 C211 1.247 . S
C213 O225 1.242 . S
C213 O226 1.258 . S
C214 C210 1.503 . S
C214 C215 1.379 . S
C214 C219 1.392 . S
C215 C214 1.379 . S
C215 C216 1.404 . S
C215 H229 0.929 . S
C216 C215 1.404 . S
C216 C217 1.389 . S
C217 C216 1.389 . S
C217 C218 1.399 . S
C217 H230 0.931 . S
C218 C217 1.399 . S
C218 C219 1.390 . S
C219 C214 1.392 . S
C219 C218 1.390 . S
C219 H231 0.929 . S
O220 Tb204 2.326 . S
O220 C208 1.242 . S
O221 Eu205 2.324 . S
O221 C208 1.258 . S
O222 Tb204 2.500 . S
O222 C224 1.273 . S
O223 Tb204 2.473 . S
O223 C224 1.257 . S
C224 O222 1.273 . S
C224 O223 1.257 . S
O225 Eu205 2.326 . S
O225 C213 1.242 . S
O226 Tb204 2.324 . S
O226 C213 1.258 . S
O227 Eu205 2.500 . S
O227 C210 1.273 . S
O228 Eu205 2.473 . S
O228 C210 1.257 . S
H229 C215 0.929 . S
H230 C217 0.931 . S
H231 C219 0.929 . S
H232 C244 0.930 . S
H233 C246 0.930 . S
H234 C247 0.930 . S
H235 C251 0.959 . S
H236 C251 0.959 . S
H237 C251 0.961 . S
H238 C252 0.960 . S
H239 C252 0.961 . S
H240 C252 0.959 . S
H241 C255 0.929 . S
H242 C256 0.931 . S
H243 C258 0.935 . S
C244 H232 0.930 . S
C244 C245 1.399 . S
C244 C249 1.399 . S
C245 C244 1.399 . S
C245 C246 1.376 . S
C246 H233 0.930 . S
C246 C245 1.376 . S
C246 C247 1.388 . S
C247 H234 0.930 . S
C247 C246 1.388 . S
C247 C248 1.390 . S
C248 C247 1.390 . S
C248 C249 1.394 . S
C248 C254 1.465 . S
C249 C244 1.399 . S
C249 C248 1.394 . S
C249 C250 1.516 . S
C250 C249 1.516 . S
C250 C251 1.502 . S
C250 C252 1.561 . S
C250 C253 1.526 . S
C251 H235 0.959 . S
C251 H236 0.959 . S
C251 H237 0.961 . S
C251 C250 1.502 . S
C252 H238 0.960 . S
C252 H239 0.961 . S
C252 H240 0.959 . S
C252 C250 1.561 . S
C253 C250 1.526 . S
C253 C254 1.396 . S
C253 C258 1.372 1_554 S
C254 C248 1.465 . S
C254 C253 1.396 . S
C254 C255 1.399 . S
C255 H241 0.929 . S
C255 C254 1.399 . S
C255 C256 1.385 1_554 S
C256 H242 0.931 . S
C256 C255 1.385 1_556 S
C256 C257 1.389 . S
C257 C256 1.389 . S
C257 C258 1.400 . S
C258 H243 0.935 . S
C258 C253 1.372 1_556 S
C258 C257 1.400 . S
H259 C271 0.930 . S
H260 C273 0.930 . S
H261 C274 0.930 . S
H262 C278 0.959 . S
H263 C278 0.959 . S
H264 C278 0.961 . S
H265 C279 0.960 . S
H266 C279 0.961 . S
H267 C279 0.959 . S
H268 C282 0.929 . S
H269 C283 0.931 . S
H270 C285 0.930 . S
C271 H259 0.930 . S
C271 C272 1.399 . S
C271 C276 1.399 1_554 S
C272 C271 1.399 . S
C272 C273 1.376 . S
C273 H260 0.930 . S
C273 C272 1.376 . S
C273 C274 1.388 1_554 S
C274 H261 0.930 . S
C274 C273 1.388 1_556 S
C274 C275 1.390 . S
C275 C274 1.390 . S
C275 C276 1.394 . S
C275 C281 1.465 . S
C276 C271 1.399 1_556 S
C276 C275 1.394 . S
C276 C277 1.516 . S
C277 C276 1.516 . S
C277 C278 1.502 . S
C277 C279 1.561 . S
C277 C280 1.526 . S
C278 H262 0.959 . S
C278 H263 0.959 . S
C278 H264 0.961 . S
C278 C277 1.502 . S
C279 H265 0.960 . S
C279 H266 0.961 . S
C279 H267 0.959 . S
C279 C277 1.561 . S
C280 C277 1.526 . S
C280 C281 1.396 . S
C280 C285 1.390 . S
C281 C275 1.465 . S
C281 C280 1.396 . S
C281 C282 1.399 . S
C282 H268 0.929 . S
C282 C281 1.399 . S
C282 C283 1.385 . S
C283 H269 0.931 . S
C283 C282 1.385 . S
C283 C284 1.389 . S
C284 C283 1.389 . S
C284 C285 1.387 . S
C285 H270 0.930 . S
C285 C280 1.390 . S
C285 C284 1.387 . S
H286 C298 0.930 . S
H287 C300 0.930 . S
H288 C301 0.930 . S
H289 C305 0.959 . S
H290 C305 0.959 . S
H291 C305 0.961 . S
H292 C306 0.960 . S
H293 C306 0.961 . S
H294 C306 0.959 . S
H295 C309 0.929 . S
H296 C310 0.931 . S
H297 C312 0.930 . S
C298 H286 0.930 . S
C298 C299 1.399 . S
C298 C303 1.399 1_556 S
C299 C298 1.399 . S
C299 C300 1.376 . S
C300 H287 0.930 . S
C300 C299 1.376 . S
C300 C301 1.388 1_556 S
C301 H288 0.930 . S
C301 C300 1.388 1_554 S
C301 C302 1.390 . S
C302 C301 1.390 . S
C302 C303 1.394 . S
C302 C308 1.465 . S
C303 C298 1.399 1_554 S
C303 C302 1.394 . S
C303 C304 1.516 . S
C304 C303 1.516 . S
C304 C305 1.502 . S
C304 C306 1.561 . S
C304 C307 1.526 . S
C305 H289 0.959 . S
C305 H290 0.959 . S
C305 H291 0.961 . S
C305 C304 1.502 . S
C306 H292 0.960 . S
C306 H293 0.961 . S
C306 H294 0.959 . S
C306 C304 1.561 . S
C307 C304 1.526 . S
C307 C308 1.396 . S
C307 C312 1.390 . S
C308 C302 1.465 . S
C308 C307 1.396 . S
C308 C309 1.399 . S
C309 H295 0.929 . S
C309 C308 1.399 . S
C309 C310 1.385 . S
C310 H296 0.931 . S
C310 C309 1.385 . S
C310 C311 1.389 . S
C311 C310 1.389 . S
C311 C312 1.387 . S
C312 H297 0.930 . S
C312 C307 1.390 . S
C312 C311 1.387 . S
H313 C325 0.930 . S
H314 C327 0.930 . S
H315 C328 0.930 . S
H316 C332 0.959 . S
H317 C332 0.959 . S
H318 C332 0.961 . S
H319 C333 0.960 . S
H320 C333 0.961 . S
H321 C333 0.959 . S
H322 C336 0.929 . S
H323 C337 0.931 . S
H324 C339 0.930 . S
C325 H313 0.930 . S
C325 C326 1.399 . S
C325 C330 1.399 . S
C326 C325 1.399 . S
C326 C327 1.376 . S
C327 H314 0.930 . S
C327 C326 1.376 . S
C327 C328 1.388 . S
C328 H315 0.930 . S
C328 C327 1.388 . S
C328 C329 1.390 . S
C329 C328 1.390 . S
C329 C330 1.394 . S
C329 C335 1.465 . S
C330 C325 1.399 . S
C330 C329 1.394 . S
C330 C331 1.516 . S
C331 C330 1.516 . S
C331 C332 1.502 . S
C331 C333 1.561 . S
C331 C334 1.526 . S
C332 H316 0.959 . S
C332 H317 0.959 . S
C332 H318 0.961 . S
C332 C331 1.502 . S
C333 H319 0.960 . S
C333 H320 0.961 . S
C333 H321 0.959 . S
C333 C331 1.561 . S
C334 C331 1.526 . S
C334 C335 1.396 . S
C334 C339 1.390 1_556 S
C335 C329 1.465 . S
C335 C334 1.396 . S
C335 C336 1.399 . S
C336 H322 0.929 . S
C336 C335 1.399 . S
C336 C337 1.385 1_556 S
C337 H323 0.931 . S
C337 C336 1.385 1_554 S
C337 C338 1.389 . S
C338 C337 1.389 . S
C338 C339 1.387 . S
C339 H324 0.930 . S
C339 C334 1.390 1_554 S
C339 C338 1.387 . S
H340 C352 0.930 . S
H341 C354 0.930 . S
H342 C355 0.930 . S
H343 C359 0.959 . S
H344 C359 0.959 . S
H345 C359 0.961 . S
H346 C360 0.960 . S
H347 C360 0.961 . S
H348 C360 0.959 . S
H349 C363 0.929 . S
H350 C364 0.931 . S
H351 C366 0.930 . S
C352 H340 0.930 . S
C352 C353 1.399 . S
C352 C357 1.399 . S
C353 C352 1.399 . S
C353 C354 1.376 . S
C354 H341 0.930 . S
C354 C353 1.376 . S
C354 C355 1.388 . S
C355 H342 0.930 . S
C355 C354 1.388 . S
C355 C356 1.390 . S
C356 C355 1.390 . S
C356 C357 1.394 . S
C356 C362 1.465 . S
C357 C352 1.399 . S
C357 C356 1.394 . S
C357 C358 1.516 . S
C358 C357 1.516 . S
C358 C359 1.502 . S
C358 C360 1.561 . S
C358 C361 1.526 . S
C359 H343 0.959 . S
C359 H344 0.959 . S
C359 H345 0.961 . S
C359 C358 1.502 . S
C360 H346 0.960 . S
C360 H347 0.961 . S
C360 H348 0.959 . S
C360 C358 1.561 . S
C361 C358 1.526 . S
C361 C362 1.396 . S
C361 C366 1.390 . S
C362 C356 1.465 . S
C362 C361 1.396 . S
C362 C363 1.399 . S
C363 H349 0.929 . S
C363 C362 1.399 . S
C363 C364 1.385 . S
C364 H350 0.931 . S
C364 C363 1.385 . S
C364 C365 1.389 . S
C365 C364 1.389 . S
C365 C366 1.387 . S
C366 H351 0.930 . S
C366 C361 1.390 . S
C366 C365 1.387 . S
H367 C379 0.930 . S
H368 C381 0.930 . S
H369 C382 0.930 . S
H370 C386 0.959 . S
H371 C386 0.959 . S
H372 C386 0.961 . S
H373 C387 0.960 . S
H374 C387 0.961 . S
H375 C387 0.959 . S
H376 C390 0.929 . S
H377 C391 0.931 . S
H378 C393 0.930 . S
C379 H367 0.930 . S
C379 C380 1.399 . S
C379 C384 1.399 . S
C380 C379 1.399 . S
C380 C381 1.376 . S
C381 H368 0.930 . S
C381 C380 1.376 . S
C381 C382 1.388 . S
C382 H369 0.930 . S
C382 C381 1.388 . S
C382 C383 1.390 . S
C383 C382 1.390 . S
C383 C384 1.394 . S
C383 C389 1.465 . S
C384 C379 1.399 . S
C384 C383 1.394 . S
C384 C385 1.516 . S
C385 C384 1.516 . S
C385 C386 1.502 . S
C385 C387 1.561 . S
C385 C388 1.526 . S
C386 H370 0.959 . S
C386 H371 0.959 . S
C386 H372 0.961 . S
C386 C385 1.502 . S
C387 H373 0.960 . S
C387 H374 0.961 . S
C387 H375 0.959 . S
C387 C385 1.561 . S
C388 C385 1.526 . S
C388 C389 1.396 . S
C388 C393 1.390 . S
C389 C383 1.465 . S
C389 C388 1.396 . S
C389 C390 1.399 . S
C390 H376 0.929 . S
C390 C389 1.399 . S
C390 C391 1.385 . S
C391 H377 0.931 . S
C391 C390 1.385 . S
C391 C392 1.389 . S
C392 C391 1.389 . S
C392 C393 1.387 . S
C393 H378 0.930 . S
C393 C388 1.390 . S
C393 C392 1.387 . S
H394 C406 0.930 . S
H395 C408 0.930 . S
H396 C409 0.930 . S
H397 C413 0.959 . S
H398 C413 0.959 . S
H399 C413 0.961 . S
H400 C414 0.960 . S
H401 C414 0.961 . S
H402 C414 0.959 . S
H403 C417 0.929 . S
H404 C418 0.931 . S
H405 C420 0.930 . S
C406 H394 0.930 . S
C406 C407 1.399 . S
C406 C411 1.399 . S
C407 C406 1.399 . S
C407 C408 1.376 . S
C408 H395 0.930 . S
C408 C407 1.376 . S
C408 C409 1.388 . S
C409 H396 0.930 . S
C409 C408 1.388 . S
C409 C410 1.390 . S
C410 C409 1.390 . S
C410 C411 1.394 . S
C410 C416 1.465 . S
C411 C406 1.399 . S
C411 C410 1.394 . S
C411 C412 1.516 . S
C412 C411 1.516 . S
C412 C413 1.502 . S
C412 C414 1.561 . S
C412 C415 1.526 . S
C413 H397 0.959 . S
C413 H398 0.959 . S
C413 H399 0.961 . S
C413 C412 1.502 . S
C414 H400 0.960 . S
C414 H401 0.961 . S
C414 H402 0.959 . S
C414 C412 1.561 . S
C415 C412 1.526 . S
C415 C416 1.396 . S
C415 C420 1.390 . S
C416 C410 1.465 . S
C416 C415 1.396 . S
C416 C417 1.399 . S
C417 H403 0.929 . S
C417 C416 1.399 . S
C417 C418 1.385 . S
C418 H404 0.931 . S
C418 C417 1.385 . S
C418 C419 1.389 . S
C419 C418 1.389 . S
C419 C420 1.387 . S
C420 H405 0.930 . S
C420 C415 1.390 . S
C420 C419 1.387 . S
H421 C433 0.930 . S
H422 C435 0.930 . S
H423 C436 0.930 . S
H424 C440 0.959 . S
H425 C440 0.959 . S
H426 C440 0.961 . S
H427 C441 0.960 . S
H428 C441 0.961 . S
H429 C441 0.959 . S
H430 C444 0.929 . S
H431 C445 0.931 . S
H432 C447 0.930 . S
C433 H421 0.930 . S
C433 C434 1.399 . S
C433 C438 1.399 . S
C434 C433 1.399 . S
C434 C435 1.376 . S
C435 H422 0.930 . S
C435 C434 1.376 . S
C435 C436 1.388 . S
C436 H423 0.930 . S
C436 C435 1.388 . S
C436 C437 1.390 . S
C437 C436 1.390 . S
C437 C438 1.394 . S
C437 C443 1.465 . S
C438 C433 1.399 . S
C438 C437 1.394 . S
C438 C439 1.516 . S
C439 C438 1.516 . S
C439 C440 1.502 . S
C439 C441 1.561 . S
C439 C442 1.526 . S
C440 H424 0.959 . S
C440 H425 0.959 . S
C440 H426 0.961 . S
C440 C439 1.502 . S
C441 H427 0.960 . S
C441 H428 0.961 . S
C441 H429 0.959 . S
C441 C439 1.561 . S
C442 C439 1.526 . S
C442 C443 1.396 . S
C442 C447 1.390 . S
C443 C437 1.465 . S
C443 C442 1.396 . S
C443 C444 1.399 . S
C444 H430 0.929 . S
C444 C443 1.399 . S
C444 C445 1.385 . S
C445 H431 0.931 . S
C445 C444 1.385 . S
C445 C446 1.389 . S
C446 C445 1.389 . S
C446 C447 1.387 . S
C447 H432 0.930 . S
C447 C442 1.390 . S
C447 C446 1.387 . S
H448 C460 0.930 . S
H449 C462 0.930 . S
H450 C463 0.930 . S
H451 C467 0.959 . S
H452 C467 0.959 1_565 S
H453 C467 0.961 . S
H454 C468 0.960 1_545 S
H455 C468 0.961 . S
H456 C468 0.959 . S
H457 C471 0.929 . S
H458 C472 0.931 . S
H459 C474 0.930 . S
C460 H448 0.930 . S
C460 C461 1.399 . S
C460 C465 1.399 . S
C461 C460 1.399 . S
C461 C462 1.376 . S
C462 H449 0.930 . S
C462 C461 1.376 . S
C462 C463 1.388 . S
C463 H450 0.930 . S
C463 C462 1.388 . S
C463 C464 1.390 . S
C464 C463 1.390 . S
C464 C465 1.394 . S
C464 C470 1.465 1_545 S
C465 C460 1.399 . S
C465 C464 1.394 . S
C465 C466 1.516 . S
C466 C465 1.516 . S
C466 C467 1.502 . S
C466 C468 1.561 1_545 S
C466 C469 1.526 1_545 S
C467 H451 0.959 . S
C467 H452 0.959 1_545 S
C467 H453 0.961 . S
C467 C466 1.502 . S
C468 H454 0.960 1_565 S
C468 H455 0.961 . S
C468 H456 0.959 . S
C468 C466 1.561 1_565 S
C469 C466 1.526 1_565 S
C469 C470 1.396 . S
C469 C474 1.390 . S
C470 C464 1.465 1_565 S
C470 C469 1.396 . S
C470 C471 1.399 . S
C471 H457 0.929 . S
C471 C470 1.399 . S
C471 C472 1.385 . S
C472 H458 0.931 . S
C472 C471 1.385 . S
C472 C473 1.389 . S
C473 C472 1.389 . S
C473 C474 1.387 . S
C474 H459 0.930 . S
C474 C469 1.390 . S
C474 C473 1.387 . S
H475 C487 0.930 . S
H476 C489 0.930 . S
H477 C490 0.930 . S
H478 C494 0.959 . S
H479 C494 0.959 . S
H480 C494 0.961 . S
H481 C495 0.960 . S
H482 C495 0.961 1_455 S
H483 C495 0.959 . S
H484 C498 0.929 . S
H485 C499 0.931 . S
H486 C501 0.930 . S
C487 H475 0.930 . S
C487 C488 1.399 . S
C487 C492 1.399 . S
C488 C487 1.399 . S
C488 C489 1.376 . S
C489 H476 0.930 . S
C489 C488 1.376 . S
C489 C490 1.388 . S
C490 H477 0.930 . S
C490 C489 1.388 . S
C490 C491 1.390 . S
C491 C490 1.390 . S
C491 C492 1.394 . S
C491 C497 1.465 1_655 S
C492 C487 1.399 . S
C492 C491 1.394 . S
C492 C493 1.516 1_655 S
C493 C492 1.516 1_455 S
C493 C494 1.502 . S
C493 C495 1.561 1_455 S
C493 C496 1.526 . S
C494 H478 0.959 . S
C494 H479 0.959 . S
C494 H480 0.961 . S
C494 C493 1.502 . S
C495 H481 0.960 . S
C495 H482 0.961 1_655 S
C495 H483 0.959 . S
C495 C493 1.561 1_655 S
C496 C493 1.526 . S
C496 C497 1.396 . S
C496 C501 1.390 . S
C497 C491 1.465 1_455 S
C497 C496 1.396 . S
C497 C498 1.399 . S
C498 H484 0.929 . S
C498 C497 1.399 . S
C498 C499 1.385 . S
C499 H485 0.931 . S
C499 C498 1.385 . S
C499 C500 1.389 . S
C500 C499 1.389 . S
C500 C501 1.387 . S
C501 H486 0.930 . S
C501 C496 1.390 . S
C501 C500 1.387 . S
H502 C514 0.930 . S
H503 C516 0.930 . S
H504 C517 0.930 1_455 S
H505 C521 0.959 . S
H506 C521 0.959 . S
H507 C521 0.961 . S
H508 C522 0.960 . S
H509 C522 0.961 . S
H510 C522 0.959 . S
H511 C525 0.929 . S
H512 C526 0.931 . S
H513 C528 0.930 . S
C514 H502 0.930 . S
C514 C515 1.399 . S
C514 C519 1.399 . S
C515 C514 1.399 . S
C515 C516 1.376 . S
C516 H503 0.930 . S
C516 C515 1.376 . S
C516 C517 1.388 . S
C517 H504 0.930 1_655 S
C517 C516 1.388 . S
C517 C518 1.392 . S
C518 C517 1.392 . S
C518 C519 1.400 . S
C518 C524 1.458 1_655 S
C519 C514 1.399 . S
C519 C518 1.400 . S
C519 C520 1.516 . S
C520 C519 1.516 . S
C520 C521 1.502 . S
C520 C522 1.561 1_655 S
C520 C523 1.526 1_655 S
C521 H505 0.959 . S
C521 H506 0.959 . S
C521 H507 0.961 . S
C521 C520 1.502 . S
C522 H508 0.960 . S
C522 H509 0.961 . S
C522 H510 0.959 . S
C522 C520 1.561 1_455 S
C523 C520 1.526 1_455 S
C523 C524 1.396 . S
C523 C528 1.390 . S
C524 C518 1.458 1_455 S
C524 C523 1.396 . S
C524 C525 1.399 . S
C525 H511 0.929 . S
C525 C524 1.399 . S
C525 C526 1.385 . S
C526 H512 0.931 . S
C526 C525 1.385 . S
C526 C527 1.389 . S
C527 C526 1.389 . S
C527 C528 1.387 . S
C528 H513 0.930 . S
C528 C523 1.390 . S
C528 C527 1.387 . S
H529 C541 0.930 . S
H530 C543 0.930 . S
H531 C544 0.930 1_565 S
H532 C548 0.959 . S
H533 C548 0.959 . S
H534 C548 0.961 . S
H535 C549 0.960 . S
H536 C549 0.961 . S
H537 C549 0.959 . S
H538 C552 0.929 . S
H539 C553 0.931 . S
H540 C555 0.930 . S
C541 H529 0.930 . S
C541 C542 1.399 . S
C541 C546 1.399 . S
C542 C541 1.399 . S
C542 C543 1.376 . S
C543 H530 0.930 . S
C543 C542 1.376 . S
C543 C544 1.388 . S
C544 H531 0.930 1_545 S
C544 C543 1.388 . S
C544 C545 1.389 1_545 S
C545 C544 1.389 1_565 S
C545 C546 1.383 1_565 S
C545 C551 1.476 . S
C546 C541 1.399 . S
C546 C545 1.383 1_545 S
C546 C547 1.516 . S
C547 C546 1.516 . S
C547 C548 1.502 . S
C547 C549 1.561 1_545 S
C547 C550 1.526 1_545 S
C548 H532 0.959 . S
C548 H533 0.959 . S
C548 H534 0.961 . S
C548 C547 1.502 . S
C549 H535 0.960 . S
C549 H536 0.961 . S
C549 H537 0.959 . S
C549 C547 1.561 1_565 S
C550 C547 1.526 1_565 S
C550 C551 1.396 . S
C550 C555 1.390 . S
C551 C545 1.476 . S
C551 C550 1.396 . S
C551 C552 1.399 . S
C552 H538 0.929 . S
C552 C551 1.399 . S
C552 C553 1.385 . S
C553 H539 0.931 . S
C553 C552 1.385 . S
C553 C554 1.389 . S
C554 C553 1.389 . S
C554 C555 1.387 . S
C555 H540 0.930 . S
C555 C550 1.390 . S
C555 C554 1.387 . S
H556 C568 0.930 . S
H557 C570 0.930 . S
H558 C571 0.930 . S
H559 C575 0.959 . S
H560 C575 0.959 . S
H561 C575 0.961 . S
H562 C576 0.960 . S
H563 C576 0.961 . S
H564 C576 0.959 . S
H565 C579 0.929 . S
H566 C580 0.931 . S
H567 C582 0.930 . S
C568 H556 0.930 . S
C568 C569 1.399 . S
C568 C573 1.399 . S
C569 C568 1.399 . S
C569 C570 1.376 . S
C570 H557 0.930 . S
C570 C569 1.376 . S
C570 C571 1.388 . S
C571 H558 0.930 . S
C571 C570 1.388 . S
C571 C572 1.390 . S
C572 C571 1.390 . S
C572 C573 1.394 . S
C572 C578 1.465 . S
C573 C568 1.399 . S
C573 C572 1.394 . S
C573 C574 1.516 . S
C574 C573 1.516 . S
C574 C575 1.502 . S
C574 C576 1.561 . S
C574 C577 1.526 . S
C575 H559 0.959 . S
C575 H560 0.959 . S
C575 H561 0.961 . S
C575 C574 1.502 . S
C576 H562 0.960 . S
C576 H563 0.961 . S
C576 H564 0.959 . S
C576 C574 1.561 . S
C577 C574 1.526 . S
C577 C578 1.396 . S
C577 C582 1.390 . S
C578 C572 1.465 . S
C578 C577 1.396 . S
C578 C579 1.399 . S
C579 H565 0.929 . S
C579 C578 1.399 . S
C579 C580 1.385 . S
C580 H566 0.931 . S
C580 C579 1.385 . S
C580 C581 1.389 . S
C581 C580 1.389 . S
C581 C582 1.387 . S
C582 H567 0.930 . S
C582 C577 1.390 . S
C582 C581 1.387 . S
H583 C595 0.930 . S
H584 C597 0.930 . S
H585 C598 0.930 . S
H586 C602 0.959 . S
H587 C602 0.959 . S
H588 C602 0.961 . S
H589 C603 0.960 . S
H590 C603 0.961 . S
H591 C603 0.959 . S
H592 C606 0.929 . S
H593 C607 0.931 . S
H594 C609 0.930 . S
C595 H583 0.930 . S
C595 C596 1.399 . S
C595 C600 1.399 . S
C596 C595 1.399 . S
C596 C597 1.376 . S
C597 H584 0.930 . S
C597 C596 1.376 . S
C597 C598 1.388 . S
C598 H585 0.930 . S
C598 C597 1.388 . S
C598 C599 1.390 . S
C599 C598 1.390 . S
C599 C600 1.394 . S
C599 C605 1.465 . S
C600 C595 1.399 . S
C600 C599 1.394 . S
C600 C601 1.516 . S
C601 C600 1.516 . S
C601 C602 1.502 . S
C601 C603 1.561 . S
C601 C604 1.526 . S
C602 H586 0.959 . S
C602 H587 0.959 . S
C602 H588 0.961 . S
C602 C601 1.502 . S
C603 H589 0.960 . S
C603 H590 0.961 . S
C603 H591 0.959 . S
C603 C601 1.561 . S
C604 C601 1.526 . S
C604 C605 1.396 . S
C604 C609 1.390 . S
C605 C599 1.465 . S
C605 C604 1.396 . S
C605 C606 1.399 . S
C606 H592 0.929 . S
C606 C605 1.399 . S
C606 C607 1.385 . S
C607 H593 0.931 . S
C607 C606 1.385 . S
C607 C608 1.389 . S
C608 C607 1.389 . S
C608 C609 1.387 . S
C609 H594 0.930 . S
C609 C604 1.390 . S
C609 C608 1.387 . S
H610 C622 0.930 . S
H611 C624 0.930 . S
H612 C625 0.930 . S
H613 C629 0.959 . S
H614 C629 0.959 . S
H615 C629 0.961 . S
H616 C630 0.960 . S
H617 C630 0.961 . S
H618 C630 0.959 . S
H619 C633 0.929 . S
H620 C634 0.931 . S
H621 C636 0.930 . S
C622 H610 0.930 . S
C622 C623 1.399 . S
C622 C627 1.399 . S
C623 C622 1.399 . S
C623 C624 1.376 . S
C624 H611 0.930 . S
C624 C623 1.376 . S
C624 C625 1.388 . S
C625 H612 0.930 . S
C625 C624 1.388 . S
C625 C626 1.390 . S
C626 C625 1.390 . S
C626 C627 1.394 . S
C626 C632 1.465 . S
C627 C622 1.399 . S
C627 C626 1.394 . S
C627 C628 1.516 . S
C628 C627 1.516 . S
C628 C629 1.502 . S
C628 C630 1.561 . S
C628 C631 1.526 . S
C629 H613 0.959 . S
C629 H614 0.959 . S
C629 H615 0.961 . S
C629 C628 1.502 . S
C630 H616 0.960 . S
C630 H617 0.961 . S
C630 H618 0.959 . S
C630 C628 1.561 . S
C631 C628 1.526 . S
C631 C632 1.396 . S
C631 C636 1.390 . S
C632 C626 1.465 . S
C632 C631 1.396 . S
C632 C633 1.399 . S
C633 H619 0.929 . S
C633 C632 1.399 . S
C633 C634 1.385 . S
C634 H620 0.931 . S
C634 C633 1.385 . S
C634 C635 1.389 . S
C635 C634 1.389 . S
C635 C636 1.387 . S
C636 H621 0.930 . S
C636 C631 1.390 . S
C636 C635 1.387 . S
H637 C649 0.930 . S
H638 C651 0.930 . S
H639 C652 0.930 . S
H640 C656 0.959 . S
H641 C656 0.959 . S
H642 C656 0.961 . S
H643 C657 0.960 . S
H644 C657 0.961 . S
H645 C657 0.959 . S
H646 C660 0.929 . S
H647 C661 0.931 . S
H648 C663 0.930 . S
C649 H637 0.930 . S
C649 C650 1.399 . S
C649 C654 1.399 . S
C650 C649 1.399 . S
C650 C651 1.376 . S
C651 H638 0.930 . S
C651 C650 1.376 . S
C651 C652 1.388 . S
C652 H639 0.930 . S
C652 C651 1.388 . S
C652 C653 1.390 . S
C653 C652 1.390 . S
C653 C654 1.394 . S
C653 C659 1.465 . S
C654 C649 1.399 . S
C654 C653 1.394 . S
C654 C655 1.516 . S
C655 C654 1.516 . S
C655 C656 1.502 . S
C655 C657 1.561 . S
C655 C658 1.526 . S
C656 H640 0.959 . S
C656 H641 0.959 . S
C656 H642 0.961 . S
C656 C655 1.502 . S
C657 H643 0.960 . S
C657 H644 0.961 . S
C657 H645 0.959 . S
C657 C655 1.561 . S
C658 C655 1.526 . S
C658 C659 1.396 . S
C658 C663 1.390 . S
C659 C653 1.465 . S
C659 C658 1.396 . S
C659 C660 1.399 . S
C660 H646 0.929 . S
C660 C659 1.399 . S
C660 C661 1.385 . S
C661 H647 0.931 . S
C661 C660 1.385 . S
C661 C662 1.389 . S
C662 C661 1.389 . S
C662 C663 1.387 . S
C663 H648 0.930 . S
C663 C658 1.390 . S
C663 C662 1.387 . S
H664 C676 0.930 . S
H665 C678 0.930 . S
H666 C679 0.930 . S
H667 C683 0.959 . S
H668 C683 0.959 . S
H669 C683 0.961 . S
H670 C684 0.960 . S
H671 C684 0.961 . S
H672 C684 0.959 . S
H673 C687 0.929 . S
H674 C688 0.931 . S
H675 C690 0.930 . S
C676 H664 0.930 . S
C676 C677 1.399 . S
C676 C681 1.399 1_655 S
C677 C676 1.399 . S
C677 C678 1.376 . S
C678 H665 0.930 . S
C678 C677 1.376 . S
C678 C679 1.388 1_655 S
C679 H666 0.930 . S
C679 C678 1.388 1_455 S
C679 C680 1.390 . S
C680 C679 1.390 . S
C680 C681 1.394 . S
C680 C686 1.465 . S
C681 C676 1.399 1_455 S
C681 C680 1.394 . S
C681 C682 1.516 . S
C682 C681 1.516 . S
C682 C683 1.502 . S
C682 C684 1.561 . S
C682 C685 1.526 . S
C683 H667 0.959 . S
C683 H668 0.959 . S
C683 H669 0.961 . S
C683 C682 1.502 . S
C684 H670 0.960 . S
C684 H671 0.961 . S
C684 H672 0.959 . S
C684 C682 1.561 . S
C685 C682 1.526 . S
C685 C686 1.396 . S
C685 C690 1.390 . S
C686 C680 1.465 . S
C686 C685 1.396 . S
C686 C687 1.399 . S
C687 H673 0.929 . S
C687 C686 1.399 . S
C687 C688 1.385 . S
C688 H674 0.931 . S
C688 C687 1.385 . S
C688 C689 1.389 . S
C689 C688 1.389 . S
C689 C690 1.387 . S
C690 H675 0.930 . S
C690 C685 1.390 . S
C690 C689 1.387 . S
H691 C703 0.930 . S
H692 C705 0.930 . S
H693 C706 0.930 . S
H694 C710 0.959 . S
H695 C710 0.959 . S
H696 C710 0.961 . S
H697 C711 0.960 . S
H698 C711 0.961 . S
H699 C711 0.959 . S
H700 C714 0.929 . S
H701 C715 0.931 . S
H702 C717 0.930 . S
C703 H691 0.930 . S
C703 C704 1.400 . S
C703 C708 1.397 1_545 S
C704 C703 1.400 . S
C704 C705 1.376 . S
C705 H692 0.930 . S
C705 C704 1.376 . S
C705 C706 1.388 1_545 S
C706 H693 0.930 . S
C706 C705 1.388 1_565 S
C706 C707 1.390 . S
C707 C706 1.390 . S
C707 C708 1.394 . S
C707 C713 1.465 . S
C708 C703 1.397 1_565 S
C708 C707 1.394 . S
C708 C709 1.516 . S
C709 C708 1.516 . S
C709 C710 1.502 . S
C709 C711 1.561 . S
C709 C712 1.526 . S
C710 H694 0.959 . S
C710 H695 0.959 . S
C710 H696 0.961 . S
C710 C709 1.502 . S
C711 H697 0.960 . S
C711 H698 0.961 . S
C711 H699 0.959 . S
C711 C709 1.561 . S
C712 C709 1.526 . S
C712 C713 1.396 . S
C712 C717 1.390 . S
C713 C707 1.465 . S
C713 C712 1.396 . S
C713 C714 1.399 . S
C714 H700 0.929 . S
C714 C713 1.399 . S
C714 C715 1.385 . S
C715 H701 0.931 . S
C715 C714 1.385 . S
C715 C716 1.389 . S
C716 C715 1.389 . S
C716 C717 1.387 . S
C717 H702 0.930 . S
C717 C712 1.390 . S
C717 C716 1.387 . S
H718 C730 0.930 . S
H719 C732 0.930 . S
H720 C733 0.930 . S
H721 C737 0.959 . S
H722 C737 0.959 . S
H723 C737 0.961 . S
H724 C738 0.960 . S
H725 C738 0.961 . S
H726 C738 0.959 . S
H727 C741 0.929 . S
H728 C742 0.931 . S
H729 C744 0.930 . S
C730 H718 0.930 . S
C730 C731 1.399 . S
C730 C735 1.399 . S
C731 C730 1.399 . S
C731 C732 1.376 . S
C732 H719 0.930 . S
C732 C731 1.376 . S
C732 C733 1.388 . S
C733 H720 0.930 . S
C733 C732 1.388 . S
C733 C734 1.390 . S
C734 C733 1.390 . S
C734 C735 1.394 . S
C734 C740 1.465 . S
C735 C730 1.399 . S
C735 C734 1.394 . S
C735 C736 1.516 . S
C736 C735 1.516 . S
C736 C737 1.502 . S
C736 C738 1.561 . S
C736 C739 1.526 . S
C737 H721 0.959 . S
C737 H722 0.959 . S
C737 H723 0.961 . S
C737 C736 1.502 . S
C738 H724 0.960 . S
C738 H725 0.961 . S
C738 H726 0.959 . S
C738 C736 1.561 . S
C739 C736 1.526 . S
C739 C740 1.396 . S
C739 C744 1.390 1_655 S
C740 C734 1.465 . S
C740 C739 1.396 . S
C740 C741 1.399 . S
C741 H727 0.929 . S
C741 C740 1.399 . S
C741 C742 1.385 1_655 S
C742 H728 0.931 . S
C742 C741 1.385 1_455 S
C742 C743 1.389 . S
C743 C742 1.389 . S
C743 C744 1.387 . S
C744 H729 0.930 . S
C744 C739 1.390 1_455 S
C744 C743 1.387 . S
H745 C757 0.930 . S
H746 C759 0.930 . S
H747 C760 0.930 . S
H748 C764 0.959 . S
H749 C764 0.959 . S
H750 C764 0.961 . S
H751 C765 0.960 . S
H752 C765 0.961 . S
H753 C765 0.959 . S
H754 C768 0.929 . S
H755 C769 0.931 . S
H756 C771 0.930 . S
C757 H745 0.930 . S
C757 C758 1.399 . S
C757 C762 1.399 . S
C758 C757 1.399 . S
C758 C759 1.376 . S
C759 H746 0.930 . S
C759 C758 1.376 . S
C759 C760 1.388 . S
C760 H747 0.930 . S
C760 C759 1.388 . S
C760 C761 1.390 . S
C761 C760 1.390 . S
C761 C762 1.394 . S
C761 C767 1.465 . S
C762 C757 1.399 . S
C762 C761 1.394 . S
C762 C763 1.516 . S
C763 C762 1.516 . S
C763 C764 1.502 . S
C763 C765 1.561 . S
C763 C766 1.526 . S
C764 H748 0.959 . S
C764 H749 0.959 . S
C764 H750 0.961 . S
C764 C763 1.502 . S
C765 H751 0.960 . S
C765 H752 0.961 . S
C765 H753 0.959 . S
C765 C763 1.561 . S
C766 C763 1.526 . S
C766 C767 1.396 . S
C766 C771 1.390 1_545 S
C767 C761 1.465 . S
C767 C766 1.396 . S
C767 C768 1.399 . S
C768 H754 0.929 . S
C768 C767 1.399 . S
C768 C769 1.385 1_545 S
C769 H755 0.931 . S
C769 C768 1.385 1_565 S
C769 C770 1.389 . S
C770 C769 1.389 . S
C770 C771 1.387 . S
C771 H756 0.930 . S
C771 C766 1.390 1_565 S
C771 C770 1.387 . S
H772 C784 0.930 . S
H773 C786 0.930 . S
H774 C787 0.930 . S
H775 C791 0.959 . S
H776 C791 0.959 . S
H777 C791 0.961 . S
H778 C792 0.960 . S
H779 C792 0.961 . S
H780 C792 0.959 . S
H781 C795 0.929 . S
H782 C796 0.931 . S
H783 C798 0.930 . S
C784 H772 0.930 . S
C784 C785 1.399 . S
C784 C789 1.399 . S
C785 C784 1.399 . S
C785 C786 1.376 . S
C786 H773 0.930 . S
C786 C785 1.376 . S
C786 C787 1.388 . S
C787 H774 0.930 . S
C787 C786 1.388 . S
C787 C788 1.390 . S
C788 C787 1.390 . S
C788 C789 1.394 . S
C788 C794 1.465 . S
C789 C784 1.399 . S
C789 C788 1.394 . S
C789 C790 1.516 . S
C790 C789 1.516 . S
C790 C791 1.502 . S
C790 C792 1.561 . S
C790 C793 1.526 . S
C791 H775 0.959 . S
C791 H776 0.959 . S
C791 H777 0.961 . S
C791 C790 1.502 . S
C792 H778 0.960 . S
C792 H779 0.961 . S
C792 H780 0.959 . S
C792 C790 1.561 . S
C793 C790 1.526 . S
C793 C794 1.396 . S
C793 C798 1.390 . S
C794 C788 1.465 . S
C794 C793 1.396 . S
C794 C795 1.399 . S
C795 H781 0.929 . S
C795 C794 1.399 . S
C795 C796 1.385 . S
C796 H782 0.931 . S
C796 C795 1.385 . S
C796 C797 1.389 . S
C797 C796 1.389 . S
C797 C798 1.387 . S
C798 H783 0.930 . S
C798 C793 1.390 . S
C798 C797 1.387 . S
H799 C811 0.930 . S
H800 C813 0.930 . S
H801 C814 0.930 . S
H802 C818 0.959 . S
H803 C818 0.959 . S
H804 C818 0.961 . S
H805 C819 0.960 . S
H806 C819 0.961 . S
H807 C819 0.959 . S
H808 C822 0.929 . S
H809 C823 0.931 . S
H810 C825 0.930 . S
C811 H799 0.930 . S
C811 C812 1.399 . S
C811 C816 1.399 . S
C812 C811 1.399 . S
C812 C813 1.376 . S
C813 H800 0.930 . S
C813 C812 1.376 . S
C813 C814 1.388 . S
C814 H801 0.930 . S
C814 C813 1.388 . S
C814 C815 1.390 . S
C815 C814 1.390 . S
C815 C816 1.394 . S
C815 C821 1.465 . S
C816 C811 1.399 . S
C816 C815 1.394 . S
C816 C817 1.516 . S
C817 C816 1.516 . S
C817 C818 1.502 . S
C817 C819 1.561 . S
C817 C820 1.526 . S
C818 H802 0.959 . S
C818 H803 0.959 . S
C818 H804 0.961 . S
C818 C817 1.502 . S
C819 H805 0.960 . S
C819 H806 0.961 . S
C819 H807 0.959 . S
C819 C817 1.561 . S
C820 C817 1.526 . S
C820 C821 1.396 . S
C820 C825 1.390 . S
C821 C815 1.465 . S
C821 C820 1.396 . S
C821 C822 1.399 . S
C822 H808 0.929 . S
C822 C821 1.399 . S
C822 C823 1.385 . S
C823 H809 0.931 . S
C823 C822 1.385 . S
C823 C824 1.389 . S
C824 C823 1.389 . S
C824 C825 1.387 . S
C825 H810 0.930 . S
C825 C820 1.390 . S
C825 C824 1.387 . S
H826 C838 0.930 . S
H827 C840 0.930 . S
H828 C841 0.930 . S
H829 C845 0.959 . S
H830 C845 0.959 . S
H831 C845 0.961 . S
H832 C846 0.960 . S
H833 C846 0.961 . S
H834 C846 0.959 . S
H835 C849 0.929 . S
H836 C850 0.931 . S
H837 C852 0.930 . S
C838 H826 0.930 . S
C838 C839 1.399 . S
C838 C843 1.399 . S
C839 C838 1.399 . S
C839 C840 1.376 . S
C840 H827 0.930 . S
C840 C839 1.376 . S
C840 C841 1.388 . S
C841 H828 0.930 . S
C841 C840 1.388 . S
C841 C842 1.390 . S
C842 C841 1.390 . S
C842 C843 1.394 . S
C842 C848 1.465 . S
C843 C838 1.399 . S
C843 C842 1.394 . S
C843 C844 1.516 . S
C844 C843 1.516 . S
C844 C845 1.502 . S
C844 C846 1.561 . S
C844 C847 1.526 . S
C845 H829 0.959 . S
C845 H830 0.959 . S
C845 H831 0.961 . S
C845 C844 1.502 . S
C846 H832 0.960 . S
C846 H833 0.961 . S
C846 H834 0.959 . S
C846 C844 1.561 . S
C847 C844 1.526 . S
C847 C848 1.396 . S
C847 C852 1.390 . S
C848 C842 1.465 . S
C848 C847 1.396 . S
C848 C849 1.399 . S
C849 H835 0.929 . S
C849 C848 1.399 . S
C849 C850 1.385 . S
C850 H836 0.931 . S
C850 C849 1.385 . S
C850 C851 1.389 . S
C851 C850 1.389 . S
C851 C852 1.387 . S
C852 H837 0.930 . S
C852 C847 1.390 . S
C852 C851 1.387 . S
H853 C865 0.930 . S
H854 C867 0.930 . S
H855 C868 0.930 . S
H856 C872 0.959 . S
H857 C872 0.959 . S
H858 C872 0.961 . S
H859 C873 0.960 . S
H860 C873 0.961 . S
H861 C873 0.959 . S
H862 C876 0.929 . S
H863 C877 0.931 . S
H864 C879 0.930 . S
C865 H853 0.930 . S
C865 C866 1.399 . S
C865 C870 1.399 . S
C866 C865 1.399 . S
C866 C867 1.376 . S
C867 H854 0.930 . S
C867 C866 1.376 . S
C867 C868 1.388 . S
C868 H855 0.930 . S
C868 C867 1.388 . S
C868 C869 1.390 . S
C869 C868 1.390 . S
C869 C870 1.394 . S
C869 C875 1.465 . S
C870 C865 1.399 . S
C870 C869 1.394 . S
C870 C871 1.516 . S
C871 C870 1.516 . S
C871 C872 1.502 . S
C871 C873 1.561 . S
C871 C874 1.526 . S
C872 H856 0.959 . S
C872 H857 0.959 . S
C872 H858 0.961 . S
C872 C871 1.502 . S
C873 H859 0.960 . S
C873 H860 0.961 . S
C873 H861 0.959 . S
C873 C871 1.561 . S
C874 C871 1.526 . S
C874 C875 1.396 . S
C874 C879 1.390 . S
C875 C869 1.465 . S
C875 C874 1.396 . S
C875 C876 1.399 . S
C876 H862 0.929 . S
C876 C875 1.399 . S
C876 C877 1.385 . S
C877 H863 0.931 . S
C877 C876 1.385 . S
C877 C878 1.389 . S
C878 C877 1.389 . S
C878 C879 1.387 . S
C879 H864 0.930 . S
C879 C874 1.390 . S
C879 C878 1.387 . S
H880 C892 0.921 1_545 S
H881 C894 0.930 . S
H882 C895 0.930 . S
H883 C899 0.959 . S
H884 C899 0.959 . S
H885 C899 0.961 . S
H886 C900 0.960 . S
H887 C900 0.961 . S
H888 C900 0.959 1_554 S
H889 C903 0.929 . S
H890 C904 0.931 . S
H891 C906 0.930 . S
C892 H880 0.921 1_565 S
C892 C893 1.422 . S
C892 C897 1.385 1_565 S
C893 C892 1.422 . S
C893 C894 1.376 . S
C894 H881 0.930 . S
C894 C893 1.376 . S
C894 C895 1.388 1_556 S
C895 H882 0.930 . S
C895 C894 1.388 1_554 S
C895 C896 1.390 1_565 S
C896 C895 1.390 1_545 S
C896 C897 1.394 1_554 S
C896 C902 1.465 . S
C897 C892 1.385 1_545 S
C897 C896 1.394 1_556 S
C897 C898 1.516 . S
C898 C897 1.516 . S
C898 C899 1.502 . S
C898 C900 1.561 . S
C898 C901 1.526 1_556 S
C899 H883 0.959 . S
C899 H884 0.959 . S
C899 H885 0.961 . S
C899 C898 1.502 . S
C900 H886 0.960 . S
C900 H887 0.961 . S
C900 H888 0.959 1_556 S
C900 C898 1.561 . S
C901 C898 1.526 1_554 S
C901 C902 1.396 . S
C901 C906 1.390 . S
C902 C896 1.465 . S
C902 C901 1.396 . S
C902 C903 1.399 . S
C903 H889 0.929 . S
C903 C902 1.399 . S
C903 C904 1.385 . S
C904 H890 0.931 . S
C904 C903 1.385 . S
C904 C905 1.389 . S
C905 C904 1.389 . S
C905 C906 1.387 . S
C906 H891 0.930 . S
C906 C901 1.390 . S
C906 C905 1.387 . S
H907 C919 0.930 . S
H908 C921 0.930 . S
H909 C922 0.930 . S
H910 C926 0.959 . S
H911 C926 0.959 . S
H912 C926 0.961 1_655 S
H913 C927 0.960 . S
H914 C927 0.961 1_556 S
H915 C927 0.959 . S
H916 C930 0.929 . S
H917 C931 0.931 . S
H918 C933 0.930 . S
C919 H907 0.930 . S
C919 C920 1.399 . S
C919 C924 1.399 1_655 S
C920 C919 1.399 . S
C920 C921 1.376 . S
C921 H908 0.930 . S
C921 C920 1.376 . S
C921 C922 1.388 1_655 S
C922 H909 0.930 . S
C922 C921 1.388 1_455 S
C922 C923 1.390 . S
C923 C922 1.390 . S
C923 C924 1.394 . S
C923 C929 1.465 1_554 S
C924 C919 1.399 1_455 S
C924 C923 1.394 . S
C924 C925 1.516 1_554 S
C925 C924 1.516 1_556 S
C925 C926 1.502 . S
C925 C927 1.561 1_556 S
C925 C928 1.526 . S
C926 H910 0.959 . S
C926 H911 0.959 . S
C926 H912 0.961 1_455 S
C926 C925 1.502 . S
C927 H913 0.960 . S
C927 H914 0.961 1_554 S
C927 H915 0.959 . S
C927 C925 1.561 1_554 S
C928 C925 1.526 . S
C928 C929 1.396 . S
C928 C933 1.390 . S
C929 C923 1.465 1_556 S
C929 C928 1.396 . S
C929 C930 1.399 . S
C930 H916 0.929 . S
C930 C929 1.399 . S
C930 C931 1.385 . S
C931 H917 0.931 . S
C931 C930 1.385 . S
C931 C932 1.389 . S
C932 C931 1.389 . S
C932 C933 1.387 . S
C933 H918 0.930 . S
C933 C928 1.390 . S
C933 C932 1.387 . S
H934 C946 0.930 . S
H935 C948 0.930 . S
H936 C949 0.930 . S
H937 C953 0.959 . S
H938 C953 0.959 1_545 S
H939 C953 0.961 . S
H940 C954 0.960 . S
H941 C954 0.961 . S
H942 C954 0.959 . S
H943 C957 0.929 . S
H944 C958 0.931 . S
H945 C960 0.930 . S
C946 H934 0.930 . S
C946 C947 1.399 . S
C946 C951 1.399 . S
C947 C946 1.399 . S
C947 C948 1.376 . S
C948 H935 0.930 . S
C948 C947 1.376 . S
C948 C949 1.388 . S
C949 H936 0.930 . S
C949 C948 1.388 . S
C949 C950 1.390 . S
C950 C949 1.390 . S
C950 C951 1.394 . S
C950 C956 1.465 1_554 S
C951 C946 1.399 . S
C951 C950 1.394 . S
C951 C952 1.516 . S
C952 C951 1.516 . S
C952 C953 1.502 . S
C952 C954 1.561 1_565 S
C952 C955 1.526 . S
C953 H937 0.959 . S
C953 H938 0.959 1_565 S
C953 H939 0.961 . S
C953 C952 1.502 . S
C954 H940 0.960 . S
C954 H941 0.961 . S
C954 H942 0.959 . S
C954 C952 1.561 1_545 S
C955 C952 1.526 . S
C955 C956 1.396 1_554 S
C955 C960 1.390 1_564 S
C956 C950 1.465 1_556 S
C956 C955 1.396 1_556 S
C956 C957 1.399 . S
C957 H943 0.929 . S
C957 C956 1.399 . S
C957 C958 1.385 1_565 S
C958 H944 0.931 . S
C958 C957 1.385 1_545 S
C958 C959 1.389 . S
C959 C958 1.389 . S
C959 C960 1.387 . S
C960 H945 0.930 . S
C960 C955 1.390 1_546 S
C960 C959 1.387 . S
H961 C973 0.930 . S
H962 C975 0.930 . S
H963 C976 0.930 1_554 S
H964 C980 0.959 1_655 S
H965 C980 0.959 . S
H966 C980 0.964 . S
H967 C981 0.960 . S
H968 C981 0.961 . S
H969 C981 0.959 . S
H970 C984 0.929 . S
H971 C985 0.931 . S
H972 C987 0.930 . S
C973 H961 0.930 . S
C973 C974 1.399 . S
C973 C978 1.399 . S
C974 C973 1.399 . S
C974 C975 1.376 . S
C975 H962 0.930 . S
C975 C974 1.376 . S
C975 C976 1.388 . S
C976 H963 0.930 1_556 S
C976 C975 1.388 . S
C976 C977 1.390 . S
C977 C976 1.390 . S
C977 C978 1.394 . S
C977 C983 1.465 1_556 S
C978 C973 1.399 . S
C978 C977 1.394 . S
C978 C979 1.516 . S
C979 C978 1.516 . S
C979 C980 1.502 1_655 S
C979 C981 1.561 1_655 S
C979 C982 1.524 1_655 S
C980 H964 0.959 1_455 S
C980 H965 0.959 . S
C980 H966 0.964 . S
C980 C979 1.502 1_455 S
C981 H967 0.960 . S
C981 H968 0.961 . S
C981 H969 0.959 . S
C981 C979 1.561 1_455 S
C982 C979 1.524 1_455 S
C982 C983 1.388 1_456 S
C982 C987 1.397 1_556 S
C983 C977 1.465 1_554 S
C983 C982 1.388 1_654 S
C983 C984 1.399 . S
C984 H970 0.929 . S
C984 C983 1.399 . S
C984 C985 1.397 . S
C985 H971 0.931 . S
C985 C984 1.397 . S
C985 C986 1.378 1_655 S
C986 C985 1.378 1_455 S
C986 C987 1.387 . S
C987 H972 0.930 . S
C987 C982 1.397 1_554 S
C987 C986 1.387 . S
C245 C15 2.128 . S
C257 C150 2.142 . S
C272 C179 2.106 . S
C284 C44 2.152 . S
C299 C208 2.110 . S
C311 C73 2.158 . S
C326 C102 2.160 . S
C338 C121 2.099 . S
C353 C131 2.159 . S
C365 C92 2.095 . S
C380 C160 2.159 . S
C392 C5 2.101 . S
C407 C189 2.132 . S
C419 C34 2.141 . S
C434 C218 2.154 . S
C446 C63 2.109 . S
C461 C8 1.236 . S
C473 C66 1.246 . S
C488 C95 1.228 . S
C500 C37 1.236 . S
C515 C124 1.137 . S
C527 C182 1.127 . S
C542 C153 1.235 . S
C554 C211 1.242 . S
C569 C10 2.006 . S
C581 C129 1.908 . S
C596 C158 1.923 . S
C608 C39 2.036 . S
C623 C68 2.008 . S
C635 C187 1.859 . S
C650 C216 1.847 . S
C662 C97 2.004 . S
C677 C126 2.006 . S
C689 C13 1.863 . S
C704 C155 2.057 . S
C716 C42 1.858 . S
C731 C71 1.939 . S
C743 C184 2.038 . S
C758 C100 1.838 . S
C770 C213 2.007 . S
C785 C3 0.902 . S
C797 C50 0.863 . S
C812 C79 0.919 . S
C824 C32 0.899 . S
C839 C108 0.817 . S
C851 C61 0.871 . S
C866 C21 0.882 . S
C878 C90 0.894 . S
C893 C224 0.892 . S
C905 C119 0.862 . S
C920 C137 0.815 . S
C932 C148 0.852 . S
C947 C177 0.910 . S
C959 C166 0.896 . S
C974 C206 0.865 . S
C986 C195 0.832 . S
