# Generated by pormake.
# Topology rac, (4)-cn, num edge types: 1
# Building blocks:
#     Node 0, Type 0, BuildingBlock: KUFVIS_clean_sbu_0, # of connection points: 4
#     Node 1, Type 0, BuildingBlock: KUFVIS_clean_sbu_0, # of connection points: 4
#     Node 2, Type 0, BuildingBlock: KUFVIS_clean_sbu_0, # of connection points: 4
#     Node 3, Type 0, BuildingBlock: KUFVIS_clean_sbu_0, # of connection points: 4
#     Node 4, Type 0, BuildingBlock: KUFVIS_clean_sbu_0, # of connection points: 4
#     Node 5, Type 0, BuildingBlock: KUFVIS_clean_sbu_0, # of connection points: 4
#     Node 6, Type 0, BuildingBlock: KUFVIS_clean_sbu_0, # of connection points: 4
#     Node 7, Type 0, BuildingBlock: KUFVIS_clean_sbu_0, # of connection points: 4
#     Edge 8, Type (0, 0), BuildingBlock: ZUJKAS_clean_linker_0, # of connection points: 2
#     Edge 9, Type (0, 0), BuildingBlock: ZUJKAS_clean_linker_0, # of connection points: 2
#     Edge 10, Type (0, 0), BuildingBlock: ZUJKAS_clean_linker_0, # of connection points: 2
#     Edge 11, Type (0, 0), BuildingBlock: ZUJKAS_clean_linker_0, # of connection points: 2
#     Edge 12, Type (0, 0), BuildingBlock: ZUJKAS_clean_linker_0, # of connection points: 2
#     Edge 13, Type (0, 0), BuildingBlock: ZUJKAS_clean_linker_0, # of connection points: 2
#     Edge 14, Type (0, 0), BuildingBlock: ZUJKAS_clean_linker_0, # of connection points: 2
#     Edge 15, Type (0, 0), BuildingBlock: ZUJKAS_clean_linker_0, # of connection points: 2
#     Edge 16, Type (0, 0), BuildingBlock: ZUJKAS_clean_linker_0, # of connection points: 2
#     Edge 17, Type (0, 0), BuildingBlock: ZUJKAS_clean_linker_0, # of connection points: 2
#     Edge 18, Type (0, 0), BuildingBlock: ZUJKAS_clean_linker_0, # of connection points: 2
#     Edge 19, Type (0, 0), BuildingBlock: ZUJKAS_clean_linker_0, # of connection points: 2
#     Edge 20, Type (0, 0), BuildingBlock: ZUJKAS_clean_linker_0, # of connection points: 2
#     Edge 21, Type (0, 0), BuildingBlock: ZUJKAS_clean_linker_0, # of connection points: 2
#     Edge 22, Type (0, 0), BuildingBlock: ZUJKAS_clean_linker_0, # of connection points: 2
#     Edge 23, Type (0, 0), BuildingBlock: ZUJKAS_clean_linker_0, # of connection points: 2
# Relax obj value: 0.213
# Max RMSD: 0.070
# Mean RMSD: 0.070
data_MOF--net-rac--node1-KUFVIS_clean_sbu_0--edge1-ZUJKAS_clean_linker_0
_symmetry_space_group_name_H-M    P1
_symmetry_Int_Tables_number       1
_symmetry_cell_setting            triclinic
loop_
_symmetry_equiv_pos_as_xyz
'x, y, z'
_cell_length_a     52.792162
_cell_length_b     27.585403
_cell_length_c     48.005838
_cell_angle_alpha  90.016485
_cell_angle_beta   89.998527
_cell_angle_gamma 90.011137
loop_
_atom_site_label
_atom_site_type_symbol
_atom_site_fract_x
_atom_site_fract_y
_atom_site_fract_z
_atom_type_partial_charge
Mn0 Mn 0.36758 0.29253 0.04457 0.0
Mn1 Mn 0.30854 0.29528 0.07099 0.0
C2 C 0.33505 0.3271 0.01928 0.0
C3 C 0.40624 0.33449 0.04093 0.0
C4 C 0.33252 0.20464 0.0465 0.0
O5 O 0.37313 0.27749 0.0858 0.0
O6 O 0.33343 0.28921 0.1018 0.0
C7 C 0.31075 0.38839 0.10141 0.0
N8 N 0.29982 0.35982 0.08165 0.0
C9 C 0.26881 0.42101 0.07107 0.0
C10 C 0.27963 0.4509 0.09152 0.0
C11 C 0.30073 0.4346 0.10665 0.0
C12 C 0.27959 0.37524 0.06684 0.0
H13 H 0.327 0.37601 0.11307 0.0
C14 C 0.35708 0.28105 0.10565 0.0
O15 O 0.40504 0.28819 0.03573 0.0
O16 O 0.38556 0.35496 0.04898 0.0
N17 N 0.28285 0.30197 0.04309 0.0
C18 C 0.27567 0.26982 0.02303 0.0
C19 C 0.25547 0.28147 0.00522 0.0
C20 C 0.24274 0.32584 0.00835 0.0
C21 C 0.25036 0.35819 0.02926 0.0
C22 C 0.2706 0.3446 0.04641 0.0
H23 H 0.2853 0.23562 0.02058 0.0
O24 O 0.35564 0.31358 0.00686 0.0
O25 O 0.33437 0.32017 0.04598 0.0
O26 O 0.35329 0.22343 0.03776 0.0
O27 O 0.3156 0.22798 0.05997 0.0
C28 C 0.23884 0.40361 0.03356 0.0
C29 C 0.24803 0.43495 0.05444 0.0
H30 H 0.27212 0.48659 0.09571 0.0
H31 H 0.30925 0.45762 0.12233 0.0
H32 H 0.24972 0.2563 0.98912 0.0
H33 H 0.22723 0.33478 0.99451 0.0
H34 H 0.22302 0.41498 0.02078 0.0
H35 H 0.23902 0.46975 0.05728 0.0
Mn36 Mn 0.13676 0.71806 0.04505 0.0
Mn37 Mn 0.19609 0.7153 0.07074 0.0
C38 C 0.16905 0.68329 0.01944 0.0
C39 C 0.09807 0.67613 0.04173 0.0
C40 C 0.17197 0.80586 0.04638 0.0
O41 O 0.13158 0.73318 0.08635 0.0
O42 O 0.1715 0.72198 0.10178 0.0
C43 C 0.19395 0.6226 0.10154 0.0
N44 N 0.20476 0.65083 0.08155 0.0
C45 C 0.23554 0.58926 0.07086 0.0
C46 C 0.22484 0.55971 0.09154 0.0
C47 C 0.20392 0.57637 0.10684 0.0
C48 C 0.22482 0.63505 0.06657 0.0
H49 H 0.17785 0.63528 0.11335 0.0
C50 C 0.14789 0.73003 0.10597 0.0
O51 O 0.09925 0.72243 0.03655 0.0
O52 O 0.1188 0.65566 0.04964 0.0
N53 N 0.22151 0.70806 0.04259 0.0
C54 C 0.2286 0.73993 0.02235 0.0
C55 C 0.24862 0.72792 0.00438 0.0
C56 C 0.26129 0.6835 0.00754 0.0
C57 C 0.25377 0.65144 0.02863 0.0
C58 C 0.23369 0.66538 0.04593 0.0
H59 H 0.21901 0.77418 0.01988 0.0
O60 O 0.14838 0.69691 0.00722 0.0
O61 O 0.16997 0.69032 0.04612 0.0
O62 O 0.15102 0.78716 0.03807 0.0
O63 O 0.18906 0.78249 0.05954 0.0
C64 C 0.26523 0.60599 0.03298 0.0
C65 C 0.25615 0.57496 0.05406 0.0
H66 H 0.23231 0.524 0.09577 0.0
H67 H 0.1955 0.55361 0.1227 0.0
H68 H 0.25429 0.75287 0.98814 0.0
H69 H 0.27667 0.67428 0.99358 0.0
H70 H 0.28093 0.59435 0.02009 0.0
H71 H 0.26512 0.54013 0.05694 0.0
Mn72 Mn 0.36905 0.21639 0.45482 0.0
Mn73 Mn 0.31002 0.21301 0.42842 0.0
C74 C 0.33658 0.18174 0.48021 0.0
C75 C 0.40782 0.17477 0.45843 0.0
C76 C 0.33389 0.30404 0.45261 0.0
O77 O 0.37451 0.23132 0.41354 0.0
O78 O 0.33488 0.21863 0.39757 0.0
C79 C 0.3122 0.11942 0.39848 0.0
N80 N 0.30128 0.14831 0.41808 0.0
C81 C 0.27013 0.08746 0.42883 0.0
C82 C 0.28092 0.05725 0.40852 0.0
C83 C 0.3021 0.07321 0.3934 0.0
C84 C 0.28099 0.13319 0.43292 0.0
H85 H 0.32851 0.13155 0.38682 0.0
C86 C 0.3585 0.22717 0.3937 0.0
O87 O 0.40652 0.22108 0.46356 0.0
O88 O 0.38715 0.15409 0.45048 0.0
N89 N 0.28434 0.20674 0.45636 0.0
C90 C 0.27719 0.23917 0.47629 0.0
C91 C 0.25695 0.22785 0.49411 0.0
C92 C 0.24413 0.18353 0.49113 0.0
C93 C 0.25173 0.15088 0.47036 0.0
C94 C 0.27203 0.16413 0.45321 0.0
H95 H 0.28688 0.27336 0.47862 0.0
O96 O 0.35718 0.19541 0.49259 0.0
O97 O 0.33588 0.18852 0.4535 0.0
O98 O 0.35462 0.2854 0.46155 0.0
O99 O 0.31707 0.2805 0.43909 0.0
C100 C 0.24012 0.1055 0.4662 0.0
C101 C 0.24928 0.07386 0.44547 0.0
H102 H 0.27333 0.02157 0.40445 0.0
H103 H 0.3106 0.04994 0.37784 0.0
H104 H 0.25122 0.25325 0.5101 0.0
H105 H 0.22858 0.17485 0.50497 0.0
H106 H 0.22424 0.09439 0.47898 0.0
H107 H 0.24019 0.03909 0.44272 0.0
Mn108 Mn 0.1379 0.79038 0.45621 0.0
Mn109 Mn 0.19724 0.79309 0.43051 0.0
C110 C 0.17016 0.8256 0.48168 0.0
C111 C 0.09912 0.83203 0.45933 0.0
C112 C 0.1732 0.7027 0.45517 0.0
O113 O 0.13274 0.77491 0.41496 0.0
O114 O 0.17266 0.78586 0.39949 0.0
C115 C 0.19504 0.88533 0.39925 0.0
N116 N 0.20584 0.85746 0.41941 0.0
C117 C 0.2366 0.91926 0.42977 0.0
C118 C 0.2259 0.94846 0.40894 0.0
C119 C 0.20498 0.93151 0.39371 0.0
C120 C 0.2259 0.87351 0.4343 0.0
H121 H 0.17897 0.87241 0.38748 0.0
C122 C 0.14904 0.77778 0.39533 0.0
O123 O 0.10038 0.78579 0.46466 0.0
O124 O 0.11983 0.85262 0.45145 0.0
N125 N 0.22265 0.80084 0.45862 0.0
C126 C 0.22977 0.76928 0.479 0.0
C127 C 0.2498 0.78161 0.4969 0.0
C128 C 0.26244 0.82602 0.49352 0.0
C129 C 0.25488 0.85776 0.47229 0.0
C130 C 0.2348 0.84352 0.45508 0.0
H131 H 0.22022 0.73504 0.48164 0.0
O132 O 0.14952 0.81197 0.49396 0.0
O133 O 0.17109 0.81826 0.45502 0.0
O134 O 0.15222 0.72138 0.46336 0.0
O135 O 0.1903 0.72602 0.442 0.0
C136 C 0.26633 0.90316 0.4677 0.0
C137 C 0.25722 0.93385 0.44648 0.0
H138 H 0.23336 0.98411 0.40452 0.0
H139 H 0.19657 0.95398 0.37772 0.0
H140 H 0.2555 0.75691 0.51325 0.0
H141 H 0.27783 0.83548 0.50741 0.0
H142 H 0.28204 0.91502 0.48051 0.0
H143 H 0.26617 0.96865 0.44342 0.0
Mn144 Mn 0.63607 0.71851 0.95415 0.0
Mn145 Mn 0.69445 0.7144 0.92623 0.0
C146 C 0.66896 0.68394 0.97887 0.0
C147 C 0.59736 0.67699 0.95875 0.0
C148 C 0.67102 0.80607 0.95017 0.0
O149 O 0.62987 0.73286 0.91294 0.0
O150 O 0.66898 0.71844 0.89587 0.0
C151 C 0.69247 0.6198 0.89733 0.0
N152 N 0.70338 0.64948 0.91655 0.0
C153 C 0.73489 0.58952 0.92766 0.0
C154 C 0.72413 0.5585 0.90775 0.0
C155 C 0.70277 0.57362 0.89262 0.0
C156 C 0.72388 0.63524 0.93131 0.0
H157 H 0.67605 0.63131 0.88566 0.0
C158 C 0.64533 0.72752 0.89265 0.0
O159 O 0.59876 0.72334 0.96373 0.0
O160 O 0.61787 0.6562 0.95044 0.0
N161 N 0.72054 0.70967 0.95383 0.0
C162 C 0.72774 0.74292 0.97328 0.0
C163 C 0.74814 0.73249 0.99106 0.0
C164 C 0.76103 0.68818 0.98854 0.0
C165 C 0.75338 0.65467 0.96826 0.0
C166 C 0.73293 0.66706 0.9511 0.0
H167 H 0.71798 0.77709 0.9753 0.0
O168 O 0.64865 0.69791 0.99171 0.0
O169 O 0.66912 0.69051 0.95213 0.0
O170 O 0.65069 0.78757 0.96025 0.0
O171 O 0.68731 0.78219 0.9361 0.0
C172 C 0.76507 0.60925 0.9646 0.0
C173 C 0.75586 0.57674 0.94433 0.0
H174 H 0.73192 0.52288 0.90393 0.0
H175 H 0.6943 0.54975 0.87735 0.0
H176 H 0.75391 0.75856 0.00668 0.0
H177 H 0.77668 0.68015 0.00238 0.0
H178 H 0.78104 0.59876 0.97741 0.0
H179 H 0.76497 0.54191 0.94202 0.0
Mn180 Mn 0.86867 0.29148 0.95424 0.0
Mn181 Mn 0.81051 0.29644 0.92585 0.0
C182 C 0.8357 0.32609 0.97883 0.0
C183 C 0.90741 0.3328 0.95927 0.0
C184 C 0.83354 0.20428 0.94964 0.0
O185 O 0.87511 0.27743 0.91304 0.0
O186 O 0.83618 0.29245 0.89568 0.0
C187 C 0.81296 0.39134 0.89734 0.0
N188 N 0.80182 0.36155 0.91634 0.0
C189 C 0.77041 0.42174 0.92745 0.0
C190 C 0.78142 0.45289 0.90778 0.0
C191 C 0.80283 0.4377 0.89276 0.0
C192 C 0.78126 0.37585 0.93099 0.0
H193 H 0.82941 0.37978 0.88575 0.0
C194 C 0.85982 0.28309 0.89263 0.0
O195 O 0.90593 0.28641 0.96409 0.0
O196 O 0.88697 0.35371 0.95086 0.0
N197 N 0.78423 0.30113 0.95322 0.0
C198 C 0.77678 0.2677 0.97245 0.0
C199 C 0.75627 0.27813 0.99009 0.0
C200 C 0.74353 0.32261 0.98765 0.0
C201 C 0.75143 0.35628 0.96758 0.0
C202 C 0.77197 0.34388 0.95057 0.0
H203 H 0.78643 0.2334 0.97441 0.0
O204 O 0.85589 0.31183 0.99177 0.0
O205 O 0.8357 0.31979 0.95207 0.0
O206 O 0.85385 0.22246 0.95999 0.0
O207 O 0.81743 0.22852 0.93552 0.0
C208 C 0.73991 0.40187 0.96402 0.0
C209 C 0.74937 0.43454 0.94399 0.0
H210 H 0.77378 0.48866 0.90407 0.0
H211 H 0.81149 0.46167 0.87767 0.0
H212 H 0.75031 0.25193 0.00554 0.0
H213 H 0.72779 0.33063 0.00138 0.0
H214 H 0.72387 0.41238 0.97674 0.0
H215 H 0.74038 0.4695 0.94177 0.0
Mn216 Mn 0.6387 0.79025 0.5451 0.0
Mn217 Mn 0.69609 0.79086 0.57548 0.0
C218 C 0.6732 0.82136 0.52122 0.0
C219 C 0.6009 0.83414 0.53884 0.0
C220 C 0.67202 0.70056 0.55067 0.0
O221 O 0.63066 0.77711 0.58613 0.0
O222 O 0.66946 0.78858 0.60449 0.0
C223 C 0.69352 0.88635 0.60327 0.0
N224 N 0.70533 0.85547 0.58537 0.0
C225 C 0.73797 0.91393 0.57575 0.0
C226 C 0.72628 0.94616 0.59435 0.0
C227 C 0.70392 0.93239 0.60807 0.0
C228 C 0.72676 0.86844 0.5719 0.0
H229 H 0.67625 0.87597 0.61374 0.0
C230 C 0.6456 0.78144 0.60693 0.0
O231 O 0.60164 0.78762 0.53422 0.0
O232 O 0.62156 0.85384 0.5476 0.0
N233 N 0.72365 0.7937 0.54966 0.0
C234 C 0.73196 0.7589 0.5317 0.0
C235 C 0.75418 0.76684 0.51633 0.0
C236 C 0.76765 0.81035 0.51965 0.0
C237 C 0.75859 0.84586 0.53805 0.0
C238 C 0.73656 0.83557 0.55313 0.0
H239 H 0.7219 0.72511 0.52933 0.0
O240 O 0.65291 0.80878 0.50789 0.0
O241 O 0.67236 0.81589 0.54806 0.0
O242 O 0.65224 0.72023 0.54001 0.0
O243 O 0.68832 0.72341 0.56532 0.0
C244 C 0.77046 0.89114 0.54191 0.0
C245 C 0.76004 0.9253 0.56054 0.0
H246 H 0.73412 0.98168 0.59823 0.0
H247 H 0.69473 0.95723 0.62229 0.0
H248 H 0.76101 0.73935 0.50211 0.0
H249 H 0.78487 0.81617 0.50786 0.0
H250 H 0.78745 0.90031 0.5304 0.0
H251 H 0.76908 0.96027 0.56281 0.0
Mn252 Mn 0.86727 0.21459 0.5456 0.0
Mn253 Mn 0.81007 0.2124 0.57635 0.0
C254 C 0.83286 0.18299 0.52179 0.0
C255 C 0.90529 0.1715 0.53911 0.0
C256 C 0.83351 0.30351 0.55175 0.0
O257 O 0.8754 0.22769 0.58662 0.0
O258 O 0.83683 0.21469 0.60521 0.0
C259 C 0.81326 0.11647 0.60351 0.0
N260 N 0.80118 0.14748 0.5859 0.0
C261 C 0.76879 0.08859 0.57609 0.0
C262 C 0.78077 0.05621 0.59438 0.0
C263 C 0.80312 0.07013 0.60805 0.0
C264 C 0.77975 0.13436 0.57249 0.0
H265 H 0.83053 0.12697 0.61393 0.0
C266 C 0.86064 0.2226 0.60751 0.0
O267 O 0.90428 0.21802 0.53457 0.0
O268 O 0.88476 0.15135 0.54789 0.0
N269 N 0.7824 0.20954 0.55069 0.0
C270 C 0.7738 0.24453 0.53303 0.0
C271 C 0.75151 0.23651 0.51779 0.0
C272 C 0.73827 0.19272 0.52093 0.0
C273 C 0.74762 0.157 0.539 0.0
C274 C 0.76969 0.16739 0.55399 0.0
H275 H 0.78369 0.27854 0.5308 0.0
O276 O 0.85304 0.19602 0.50841 0.0
O277 O 0.83377 0.18823 0.54864 0.0
O278 O 0.85328 0.28433 0.54077 0.0
O279 O 0.81749 0.28017 0.56652 0.0
C280 C 0.736 0.11144 0.54263 0.0
C281 C 0.74671 0.0771 0.56095 0.0
H282 H 0.77315 0.02045 0.59805 0.0
H283 H 0.81253 0.04518 0.62203 0.0
H284 H 0.74446 0.26416 0.50381 0.0
H285 H 0.72099 0.18684 0.50924 0.0
H286 H 0.719 0.10217 0.53117 0.0
H287 H 0.73787 0.04192 0.56302 0.0
H288 H 0.32658 0.12849 0.08128 0.0
H289 H 0.29959 0.05781 0.07254 0.0
H290 H 0.29113 0.10162 0.98688 0.0
H291 H 0.31872 0.17186 0.99549 0.0
H292 H 0.24399 0.09338 0.02386 0.0
H293 H 0.30503 0.92906 0.02267 0.0
H294 H 0.31188 0.97397 0.04885 0.0
H295 H 0.31665 0.9883 0.01278 0.0
C296 C 0.32012 0.12147 0.06024 0.0
C297 C 0.32529 0.1548 0.03887 0.0
C298 C 0.30447 0.08141 0.05532 0.0
C299 C 0.29336 0.07446 0.02906 0.0
C300 C 0.2997 0.1061 0.00723 0.0
H301 H 0.1859 0.8383 0.99537 0.0
H302 H 0.21361 0.90838 0.98681 0.0
C303 C 0.31575 0.14577 0.01204 0.0
C304 C 0.27278 0.03816 0.0257 0.0
H305 H 0.26068 0.91653 0.02733 0.0
C306 C 0.24763 0.05468 0.02417 0.0
C307 C 0.27757 0.9878 0.02625 0.0
C308 C 0.30423 0.96841 0.02755 0.0
C309 C 0.22712 0.02206 0.02425 0.0
C310 C 0.23191 0.97177 0.02567 0.0
C311 C 0.25707 0.95519 0.02615 0.0
C312 C 0.21118 0.9358 0.02892 0.0
C313 C 0.20042 0.04134 0.02349 0.0
C314 C 0.1999 0.92914 0.05511 0.0
C315 C 0.18418 0.88918 0.06001 0.0
C316 C 0.17911 0.85569 0.03868 0.0
C317 C 0.18879 0.86451 0.01189 0.0
C318 C 0.20491 0.90409 0.0071 0.0
H319 H 0.19984 0.08059 0.01835 0.0
H320 H 0.18901 0.02106 0.00793 0.0
H321 H 0.19146 0.03594 0.04418 0.0
H322 H 0.20471 0.95289 0.0723 0.0
H323 H 0.17761 0.88232 0.08103 0.0
H324 H 0.17764 0.62559 0.42079 0.0
H325 H 0.20469 0.55482 0.42906 0.0
H326 H 0.21593 0.60062 0.51401 0.0
H327 H 0.1883 0.67092 0.50589 0.0
H328 H 0.2618 0.59137 0.47588 0.0
H329 H 0.20078 0.42711 0.47951 0.0
H330 H 0.19335 0.47144 0.45322 0.0
H331 H 0.18937 0.48655 0.4893 0.0
C332 C 0.18471 0.61897 0.44164 0.0
C333 C 0.18032 0.65288 0.46292 0.0
C334 C 0.2004 0.57886 0.44628 0.0
C335 C 0.21231 0.57244 0.47216 0.0
C336 C 0.20674 0.60467 0.49397 0.0
H337 H 0.32133 0.33776 0.50386 0.0
H338 H 0.29361 0.40768 0.51287 0.0
C339 C 0.19067 0.6444 0.48944 0.0
C340 C 0.23296 0.53615 0.47503 0.0
H341 H 0.24501 0.41449 0.4735 0.0
C342 C 0.25814 0.55268 0.47581 0.0
C343 C 0.22815 0.48577 0.47479 0.0
C344 C 0.20146 0.46635 0.47434 0.0
C345 C 0.27863 0.52005 0.47528 0.0
C346 C 0.27381 0.46975 0.47418 0.0
C347 C 0.24865 0.45316 0.47445 0.0
C348 C 0.29446 0.43379 0.47042 0.0
C349 C 0.30534 0.53933 0.47519 0.0
C350 C 0.30484 0.42645 0.44384 0.0
C351 C 0.32055 0.3866 0.43869 0.0
C352 C 0.32652 0.35387 0.46013 0.0
C353 C 0.31773 0.36337 0.48721 0.0
C354 C 0.30161 0.40285 0.49228 0.0
H355 H 0.30606 0.5787 0.48002 0.0
H356 H 0.31708 0.51941 0.4906 0.0
H357 H 0.31386 0.53341 0.45432 0.0
H358 H 0.29936 0.44961 0.42664 0.0
H359 H 0.32646 0.37924 0.41749 0.0
H360 H 0.68212 0.87661 0.91329 0.0
H361 H 0.70925 0.94677 0.92209 0.0
H362 H 0.70721 0.91643 0.01017 0.0
H363 H 0.67986 0.84582 0.00128 0.0
H364 H 0.70751 0.03131 0.95622 0.0
H365 H 0.78302 0.902 0.9886 0.0
H366 H 0.75444 0.88227 0.97135 0.0
H367 H 0.75357 0.89941 0.00739 0.0
C368 C 0.68651 0.88624 0.93464 0.0
C369 C 0.67856 0.85632 0.95664 0.0
C370 C 0.70225 0.92603 0.93964 0.0
C371 C 0.71071 0.93631 0.96672 0.0
C372 C 0.70119 0.90878 0.98906 0.0
H373 H 0.82513 0.16343 0.0006 0.0
H374 H 0.7965 0.09453 0.00923 0.0
C375 C 0.68517 0.86904 0.98404 0.0
C376 C 0.73111 0.97296 0.97071 0.0
H377 H 0.7946 0.98399 0.98421 0.0
C378 C 0.72643 0.02111 0.96281 0.0
C379 C 0.75592 0.95955 0.97907 0.0
C380 C 0.76226 0.90799 0.98693 0.0
C381 C 0.74592 0.05581 0.96239 0.0
C382 C 0.77085 0.04198 0.96973 0.0
C383 C 0.77545 0.99441 0.97865 0.0
C384 C 0.79243 0.07585 0.96571 0.0
C385 C 0.73994 0.10689 0.95326 0.0
C386 C 0.80067 0.08629 0.9386 0.0
C387 C 0.81707 0.12512 0.93371 0.0
C388 C 0.82572 0.15406 0.95585 0.0
C389 C 0.81933 0.14088 0.98326 0.0
C390 C 0.80272 0.10197 0.98816 0.0
H391 H 0.71924 0.11418 0.95335 0.0
H392 H 0.74948 0.13362 0.96703 0.0
H393 H 0.74711 0.11252 0.93177 0.0
H394 H 0.793 0.06652 0.92101 0.0
H395 H 0.82129 0.13508 0.91237 0.0
H396 H 0.68103 0.62715 0.58655 0.0
H397 H 0.70833 0.5572 0.57735 0.0
H398 H 0.71031 0.59447 0.49021 0.0
H399 H 0.6825 0.66424 0.49933 0.0
H400 H 0.70773 0.47412 0.53162 0.0
H401 H 0.78535 0.61122 0.52795 0.0
H402 H 0.75576 0.6235 0.54547 0.0
H403 H 0.75681 0.6216 0.5082 0.0
C404 C 0.68619 0.61889 0.56522 0.0
C405 C 0.67926 0.65046 0.54356 0.0
C406 C 0.702 0.57925 0.56002 0.0
C407 C 0.71152 0.57098 0.53317 0.0
C408 C 0.7031 0.60023 0.51107 0.0
H409 H 0.82442 0.34146 0.50039 0.0
H410 H 0.79642 0.41087 0.49096 0.0
C411 C 0.68693 0.63961 0.51622 0.0
C412 C 0.73253 0.53582 0.52935 0.0
H413 H 0.79726 0.52903 0.52809 0.0
C414 C 0.72727 0.48601 0.53024 0.0
C415 C 0.75803 0.55158 0.52791 0.0
C416 C 0.76458 0.60484 0.5274 0.0
C417 C 0.74692 0.45156 0.53036 0.0
C418 C 0.77242 0.46738 0.52983 0.0
C419 C 0.77769 0.51711 0.52823 0.0
C420 C 0.79352 0.43264 0.53412 0.0
C421 C 0.74046 0.39837 0.53226 0.0
C422 C 0.80204 0.42349 0.56127 0.0
C423 C 0.81795 0.3841 0.56664 0.0
C424 C 0.82591 0.35356 0.54491 0.0
C425 C 0.81918 0.36528 0.51739 0.0
C426 C 0.80293 0.40449 0.51204 0.0
H427 H 0.71969 0.39185 0.53208 0.0
H428 H 0.74913 0.37857 0.51452 0.0
H429 H 0.74849 0.38297 0.55172 0.0
H430 H 0.79491 0.44469 0.57858 0.0
H431 H 0.82241 0.37519 0.58807 0.0
H432 H 0.33121 0.30629 0.15253 0.0
H433 H 0.34469 0.29905 0.20071 0.0
H434 H 0.41626 0.23971 0.17416 0.0
H435 H 0.4029 0.24694 0.12524 0.0
H436 H 0.39026 0.18546 0.21676 0.0
H437 H 0.39751 0.37954 0.24437 0.0
H438 H 0.36863 0.36589 0.22626 0.0
H439 H 0.39852 0.35822 0.20877 0.0
C440 C 0.3499 0.29186 0.15672 0.0
C441 C 0.36595 0.27707 0.1349 0.0
C442 C 0.35766 0.28821 0.18437 0.0
C443 C 0.38163 0.26969 0.19098 0.0
C444 C 0.39779 0.25466 0.16941 0.0
H445 H 0.40334 0.26527 0.37386 0.0
H446 H 0.41636 0.27326 0.32484 0.0
C447 C 0.39011 0.25875 0.14152 0.0
C448 C 0.3885 0.26317 0.22065 0.0
H449 H 0.38825 0.32438 0.28244 0.0
C450 C 0.39056 0.21586 0.2311 0.0
C451 C 0.38927 0.30286 0.2393 0.0
C452 C 0.38863 0.35452 0.22908 0.0
C453 C 0.39098 0.20709 0.2599 0.0
C454 C 0.38906 0.24661 0.27856 0.0
C455 C 0.38944 0.29407 0.2681 0.0
C456 C 0.38262 0.23931 0.30829 0.0
C457 C 0.39216 0.15547 0.27013 0.0
C458 C 0.35928 0.2182 0.31508 0.0
C459 C 0.35171 0.21415 0.34276 0.0
C460 C 0.36732 0.23107 0.36445 0.0
C461 C 0.39092 0.25177 0.35767 0.0
C462 C 0.39839 0.25631 0.32973 0.0
H463 H 0.40168 0.13156 0.25473 0.0
H464 H 0.40236 0.15303 0.29031 0.0
H465 H 0.3726 0.14169 0.27321 0.0
H466 H 0.3466 0.20577 0.29883 0.0
H467 H 0.33346 0.19784 0.3471 0.0
H468 H 0.10211 0.7502 0.37532 0.0
H469 H 0.08918 0.74276 0.32628 0.0
H470 H 0.16369 0.78778 0.30024 0.0
H471 H 0.17676 0.79536 0.34854 0.0
H472 H 0.12012 0.83578 0.27265 0.0
H473 H 0.11724 0.63361 0.27203 0.0
H474 H 0.10065 0.66644 0.2989 0.0
H475 H 0.1346 0.66647 0.29838 0.0
C476 C 0.11572 0.75853 0.35913 0.0
C477 C 0.14055 0.77303 0.36596 0.0
C478 C 0.10829 0.75424 0.33117 0.0
C479 C 0.12553 0.76465 0.30972 0.0
C480 C 0.1501 0.7797 0.31651 0.0
H481 H 0.17496 0.708 0.15255 0.0
H482 H 0.1622 0.71609 0.20093 0.0
C483 C 0.15756 0.78372 0.34423 0.0
C484 C 0.11885 0.75887 0.27997 0.0
H485 H 0.11702 0.67312 0.22877 0.0
C486 C 0.11865 0.80032 0.26301 0.0
C487 C 0.11709 0.71251 0.2676 0.0
C488 C 0.11744 0.66699 0.28499 0.0
C489 C 0.11848 0.79648 0.23384 0.0
C490 C 0.11846 0.75001 0.22146 0.0
C491 C 0.11689 0.70867 0.23842 0.0
C492 C 0.12478 0.74346 0.19166 0.0
C493 C 0.12037 0.84186 0.21644 0.0
C494 C 0.10781 0.75598 0.17032 0.0
C495 C 0.11506 0.75137 0.14231 0.0
C496 C 0.13944 0.73452 0.13535 0.0
C497 C 0.15612 0.72154 0.15698 0.0
C498 C 0.14883 0.72583 0.18474 0.0
H499 H 0.12134 0.87519 0.22939 0.0
H500 H 0.13749 0.84021 0.20302 0.0
H501 H 0.10362 0.84452 0.20256 0.0
H502 H 0.0891 0.76951 0.17533 0.0
H503 H 0.10173 0.76151 0.12619 0.0
H504 H 0.59973 0.7643 0.87417 0.0
H505 H 0.58534 0.77167 0.82564 0.0
H506 H 0.65486 0.70595 0.79744 0.0
H507 H 0.6693 0.69844 0.84527 0.0
H508 H 0.61045 0.82351 0.78295 0.0
H509 H 0.60054 0.63068 0.75413 0.0
H510 H 0.60089 0.65104 0.78994 0.0
H511 H 0.63013 0.64198 0.77133 0.0
C512 C 0.61181 0.75099 0.85762 0.0
C513 C 0.63572 0.73092 0.86366 0.0
C514 C 0.60354 0.75517 0.82994 0.0
C515 C 0.61883 0.73849 0.808 0.0
C516 C 0.64249 0.71802 0.81407 0.0
H517 H 0.66838 0.8132 0.65428 0.0
H518 H 0.65365 0.80575 0.70192 0.0
C519 C 0.65084 0.71424 0.84151 0.0
C520 C 0.61158 0.74583 0.77848 0.0
H521 H 0.61102 0.68605 0.71625 0.0
C522 C 0.6098 0.79343 0.7684 0.0
C523 C 0.61023 0.70662 0.75954 0.0
C524 C 0.61027 0.65469 0.76934 0.0
C525 C 0.60933 0.80288 0.73968 0.0
C526 C 0.61097 0.76376 0.7207 0.0
C527 C 0.61009 0.71608 0.7308 0.0
C528 C 0.6181 0.77151 0.69117 0.0
C529 C 0.60849 0.85479 0.7299 0.0
C530 C 0.60313 0.75401 0.66915 0.0
C531 C 0.61158 0.7582 0.64151 0.0
C532 C 0.63534 0.77902 0.63566 0.0
C533 C 0.65003 0.79677 0.65789 0.0
C534 C 0.64152 0.79303 0.68524 0.0
H535 H 0.59844 0.87817 0.74517 0.0
H536 H 0.62813 0.8687 0.72783 0.0
H537 H 0.59896 0.85793 0.70935 0.0
H538 H 0.58512 0.73671 0.67337 0.0
H539 H 0.59986 0.74405 0.62487 0.0
H540 H 0.90576 0.26283 0.62522 0.0
H541 H 0.92044 0.27154 0.67366 0.0
H542 H 0.85338 0.19773 0.7025 0.0
H543 H 0.83875 0.18885 0.65489 0.0
H544 H 0.89407 0.32099 0.7159 0.0
H545 H 0.90939 0.13064 0.74671 0.0
H546 H 0.90837 0.1496 0.71067 0.0
H547 H 0.87948 0.13769 0.72947 0.0
C548 C 0.89439 0.24785 0.64191 0.0
C549 C 0.87103 0.22536 0.63617 0.0
C550 C 0.90279 0.25283 0.66952 0.0
C551 C 0.88821 0.23448 0.69162 0.0
C552 C 0.86525 0.21113 0.68578 0.0
H553 H 0.83592 0.31103 0.84497 0.0
H554 H 0.85054 0.30271 0.79726 0.0
C555 C 0.85677 0.20658 0.65845 0.0
C556 C 0.89511 0.24344 0.72111 0.0
H557 H 0.89624 0.18568 0.78395 0.0
C558 C 0.89534 0.29146 0.73075 0.0
C559 C 0.89723 0.20502 0.74049 0.0
C560 C 0.89889 0.15287 0.73124 0.0
C561 C 0.89501 0.3018 0.75938 0.0
C562 C 0.89409 0.26314 0.77872 0.0
C563 C 0.89653 0.21533 0.76911 0.0
C564 C 0.8867 0.27106 0.80816 0.0
C565 C 0.89435 0.35403 0.76864 0.0
C566 C 0.902 0.25512 0.83028 0.0
C567 C 0.89361 0.25969 0.85788 0.0
C568 C 0.86959 0.27947 0.86371 0.0
C569 C 0.85448 0.29548 0.84139 0.0
C570 C 0.86293 0.29126 0.814 0.0
H571 H 0.90402 0.37787 0.75331 0.0
H572 H 0.87435 0.3661 0.77021 0.0
H573 H 0.90347 0.35873 0.78932 0.0
H574 H 0.92029 0.23885 0.82616 0.0
H575 H 0.90569 0.24689 0.87456 0.0
H576 H 0.44755 0.31559 0.00735 0.0
H577 H 0.48056 0.37373 0.99339 0.0
H578 H 0.4485 0.48073 0.04859 0.0
H579 H 0.4156 0.42357 0.06221 0.0
H580 H 0.45529 0.51605 0.99587 0.0
H581 H 0.54314 0.42644 0.03311 0.0
H582 H 0.52354 0.38925 0.01123 0.0
H583 H 0.51203 0.40826 0.04473 0.0
C584 C 0.44798 0.3511 0.01698 0.0
C585 C 0.42896 0.36493 0.03587 0.0
C586 C 0.46681 0.38436 0.00897 0.0
C587 C 0.46706 0.43171 0.01998 0.0
C588 C 0.44869 0.44462 0.03971 0.0
H589 H 0.55647 0.69653 0.99287 0.0
H590 H 0.52342 0.63883 0.00734 0.0
C591 C 0.42992 0.41171 0.04755 0.0
C592 C 0.48529 0.46909 0.00992 0.0
H593 H 0.54824 0.49647 0.00506 0.0
C594 C 0.47563 0.51183 0.99797 0.0
C595 C 0.51181 0.4637 0.01268 0.0
C596 C 0.52332 0.41967 0.02635 0.0
C597 C 0.49173 0.54885 0.9883 0.0
C598 C 0.51825 0.54341 0.99101 0.0
C599 C 0.5279 0.5007 0.003 0.0
C600 C 0.53648 0.58056 0.98069 0.0
C601 C 0.48023 0.59291 0.97465 0.0
C602 C 0.55461 0.56735 0.96077 0.0
C603 C 0.57339 0.60001 0.95262 0.0
C604 C 0.57461 0.64683 0.96421 0.0
C605 C 0.55584 0.66098 0.98332 0.0
C606 C 0.53698 0.62796 0.99162 0.0
H607 H 0.46032 0.58636 0.96814 0.0
H608 H 0.4803 0.62347 0.98967 0.0
H609 H 0.49139 0.604 0.9561 0.0
H610 H 0.55459 0.53119 0.95194 0.0
H611 H 0.58751 0.58791 0.93779 0.0
H612 H 0.08896 0.58657 0.06249 0.0
H613 H 0.05633 0.52922 0.04833 0.0
H614 H 0.02322 0.63763 0.99487 0.0
H615 H 0.05637 0.69561 0.00881 0.0
H616 H 0.00399 0.52932 0.05068 0.0
H617 H 0.03798 0.5252 0.94115 0.0
H618 H 0.05602 0.55273 0.9689 0.0
H619 H 0.02944 0.58414 0.95404 0.0
C620 C 0.07456 0.59861 0.04797 0.0
C621 C 0.07537 0.64563 0.03661 0.0
C622 C 0.05589 0.56564 0.03989 0.0
C623 C 0.03762 0.57865 0.02009 0.0
C624 C 0.03747 0.62645 0.00976 0.0
H625 H 0.9172 0.4224 0.93906 0.0
H626 H 0.94995 0.47896 0.95379 0.0
C627 C 0.05621 0.65975 0.01798 0.0
C628 C 0.01952 0.54125 0.00981 0.0
H629 H 1.00197 0.47783 0.95171 0.0
C630 C 0.00353 0.51805 0.02904 0.0
C631 C 0.01913 0.52613 0.98162 0.0
C632 C 0.03668 0.54794 0.96021 0.0
C633 C 0.98681 0.48099 0.02078 0.0
C634 C 0.98639 0.46595 0.99257 0.0
C635 C 1.00242 0.48907 0.97336 0.0
C636 C 0.96808 0.42899 0.98217 0.0
C637 C 0.96923 0.45923 0.04218 0.0
C638 C 0.96784 0.38113 0.99242 0.0
C639 C 0.94899 0.34826 0.98389 0.0
C640 C 0.93014 0.36288 0.965 0.0
C641 C 0.93134 0.40997 0.95377 0.0
C642 C 0.95008 0.44249 0.96218 0.0
H643 H 0.96803 0.48188 0.06128 0.0
H644 H 0.94988 0.45468 0.03351 0.0
H645 H 0.97639 0.42293 0.04827 0.0
H646 H 0.98188 0.36954 0.00745 0.0
H647 H 0.94854 0.31232 0.99295 0.0
H648 H 0.59303 0.92564 0.55735 0.0
H649 H 0.56008 0.98241 0.54349 0.0
H650 H 0.52583 0.87215 0.49212 0.0
H651 H 0.55891 0.81435 0.50635 0.0
H652 H 0.55111 0.01478 0.49067 0.0
H653 H 0.46494 0.92715 0.53382 0.0
H654 H 0.4965 0.90956 0.54416 0.0
H655 H 0.48363 0.88884 0.51161 0.0
C656 C 0.5783 0.91303 0.54341 0.0
C657 C 0.57861 0.86534 0.53295 0.0
C658 C 0.55948 0.94573 0.53544 0.0
C659 C 0.54039 0.93173 0.51681 0.0
C660 C 0.54014 0.88367 0.50686 0.0
H661 H 0.41676 0.08471 0.4383 0.0
H662 H 0.45014 0.02844 0.45162 0.0
C663 C 0.55903 0.85062 0.51499 0.0
C664 C 0.52175 0.96852 0.50696 0.0
H665 H 0.45866 0.99583 0.50503 0.0
C666 C 0.53088 0.01069 0.49387 0.0
C667 C 0.49538 0.96333 0.5112 0.0
C668 C 0.48446 0.92003 0.52618 0.0
C669 C 0.51438 0.04731 0.48454 0.0
C670 C 0.48802 0.04206 0.48873 0.0
C671 C 0.47888 0.99992 0.50183 0.0
C672 C 0.46936 0.07882 0.47889 0.0
C673 C 0.52527 0.09076 0.46969 0.0
C674 C 0.46929 0.12659 0.48928 0.0
C675 C 0.45013 0.15933 0.48147 0.0
C676 C 0.43066 0.14457 0.46339 0.0
C677 C 0.43142 0.09732 0.45233 0.0
C678 C 0.45047 0.06491 0.46 0.0
H679 H 0.5449 0.08398 0.46231 0.0
H680 H 0.51336 0.10099 0.45156 0.0
H681 H 0.52578 0.122 0.48425 0.0
H682 H 0.48346 0.138 0.5042 0.0
H683 H 0.4499 0.19525 0.49059 0.0
H684 H 0.9138 0.08039 0.55783 0.0
H685 H 0.94693 0.02413 0.54381 0.0
H686 H 0.98023 0.13456 0.49184 0.0
H687 H 0.94696 0.19187 0.50623 0.0
H688 H 0.95559 0.99166 0.49082 0.0
H689 H 0.0417 0.08078 0.53318 0.0
H690 H 0.01014 0.09785 0.54382 0.0
H691 H 0.02262 0.1186 0.5111 0.0
C692 C 0.92837 0.09316 0.54372 0.0
C693 C 0.92772 0.14074 0.53314 0.0
C694 C 0.94728 0.06075 0.53566 0.0
C695 C 0.96615 0.07494 0.51681 0.0
C696 C 0.96609 0.12292 0.50674 0.0
H697 H 0.09023 0.92183 0.43879 0.0
H698 H 0.05675 0.97821 0.45173 0.0
C699 C 0.94709 0.15568 0.51497 0.0
C700 C 0.98487 0.03837 0.50687 0.0
H701 H 0.04803 0.01167 0.50477 0.0
C702 C 0.97581 0.996 0.49392 0.0
C703 C 0.01124 0.0439 0.51096 0.0
C704 C 0.02208 0.08749 0.52574 0.0
C705 C 0.99238 0.95945 0.48463 0.0
C706 C 0.01874 0.96497 0.48874 0.0
C707 C 0.0278 0.00736 0.50164 0.0
C708 C 0.03745 0.92814 0.4791 0.0
C709 C 0.98155 0.91576 0.46995 0.0
C710 C 0.03751 0.8805 0.48967 0.0
C711 C 0.05671 0.8477 0.48209 0.0
C712 C 0.07625 0.86227 0.46404 0.0
C713 C 0.07552 0.90938 0.4528 0.0
C714 C 0.05641 0.94184 0.46025 0.0
H715 H 0.96195 0.92244 0.46244 0.0
H716 H 0.99353 0.90523 0.45191 0.0
H717 H 0.98098 0.88477 0.48466 0.0
H718 H 0.0233 0.86925 0.50459 0.0
H719 H 0.05692 0.81191 0.49135 0.0
H720 H 0.19389 0.69192 0.96973 0.0
H721 H 0.22054 0.62972 0.94723 0.0
H722 H 0.20602 0.53282 0.01606 0.0
H723 H 0.17917 0.59376 0.03776 0.0
H724 H 0.26338 0.59181 0.96693 0.0
H725 H 0.19672 0.44156 0.95211 0.0
H726 H 0.18608 0.50317 0.95749 0.0
H727 H 0.19273 0.46415 0.98678 0.0
C728 C 0.19639 0.65704 0.97972 0.0
C729 C 0.18534 0.6477 0.00574 0.0
C730 C 0.21137 0.62162 0.96687 0.0
C731 C 0.21473 0.57624 0.97963 0.0
C732 C 0.20303 0.56688 0.00532 0.0
H733 H 0.32488 0.41672 0.03746 0.0
H734 H 0.29775 0.47728 0.01583 0.0
C735 C 0.18819 0.60205 0.01804 0.0
C736 C 0.23274 0.54017 0.96851 0.0
H737 H 0.24006 0.41762 0.96751 0.0
C738 C 0.25822 0.55378 0.96605 0.0
C739 C 0.22604 0.4907 0.96613 0.0
C740 C 0.19881 0.47426 0.96543 0.0
C741 C 0.27738 0.51871 0.96582 0.0
C742 C 0.2707 0.46928 0.96853 0.0
C743 C 0.2452 0.45563 0.96638 0.0
C744 C 0.28882 0.4334 0.97964 0.0
C745 C 0.30461 0.53512 0.96479 0.0
C746 C 0.29213 0.38789 0.96699 0.0
C747 C 0.30728 0.3527 0.97981 0.0
C748 C 0.31853 0.36241 0.00568 0.0
C749 C 0.31571 0.40816 0.01787 0.0
C750 C 0.3007 0.4431 0.00519 0.0
H751 H 0.3066 0.56769 0.95136 0.0
H752 H 0.31088 0.54542 0.98605 0.0
H753 H 0.31727 0.50612 0.95681 0.0
H754 H 0.28282 0.37953 0.94748 0.0
H755 H 0.30976 0.31774 0.9699 0.0
H756 H 0.31123 0.19177 0.52951 0.0
H757 H 0.28414 0.13039 0.5521 0.0
H758 H 0.29908 0.03175 0.48418 0.0
H759 H 0.32635 0.09192 0.46238 0.0
H760 H 0.24136 0.09222 0.53209 0.0
H761 H 0.30769 0.94213 0.54908 0.0
H762 H 0.31843 0.0036 0.54341 0.0
H763 H 0.31206 0.96397 0.51431 0.0
C764 C 0.30872 0.1567 0.51973 0.0
C765 C 0.32002 0.14664 0.49394 0.0
C766 C 0.29348 0.12174 0.53264 0.0
C767 C 0.29013 0.0761 0.52017 0.0
C768 C 0.30206 0.06604 0.4947 0.0
H769 H 0.18017 0.9149 0.46292 0.0
H770 H 0.20704 0.97623 0.48423 0.0
C771 C 0.31715 0.10075 0.48192 0.0
C772 C 0.27194 0.04043 0.53138 0.0
H773 H 0.26447 0.91796 0.53366 0.0
C774 C 0.24645 0.0542 0.53341 0.0
C775 C 0.27855 0.99103 0.53436 0.0
C776 C 0.30576 0.97454 0.53551 0.0
C777 C 0.22725 0.01921 0.53384 0.0
C778 C 0.23389 0.96967 0.53175 0.0
C779 C 0.25935 0.95602 0.5343 0.0
C780 C 0.21582 0.93343 0.52088 0.0
C781 C 0.20004 0.03576 0.53443 0.0
C782 C 0.21248 0.88826 0.5339 0.0
C783 C 0.19748 0.8526 0.52127 0.0
C784 C 0.1864 0.8615 0.49522 0.0
C785 C 0.18921 0.90696 0.48267 0.0
C786 C 0.20407 0.94235 0.49517 0.0
H787 H 0.19799 0.06869 0.54757 0.0
H788 H 0.19398 0.04555 0.51302 0.0
H789 H 0.18726 0.00705 0.54253 0.0
H790 H 0.22168 0.88048 0.55355 0.0
H791 H 0.19502 0.81787 0.53144 0.0
H792 H 0.67827 0.59409 0.96058 0.0
H793 H 0.70547 0.53308 0.98159 0.0
H794 H 0.72203 0.63049 0.04966 0.0
H795 H 0.69516 0.69288 0.02771 0.0
H796 H 0.76402 0.59191 0.02989 0.0
H797 H 0.69727 0.44225 0.0454 0.0
H798 H 0.69317 0.46388 0.01056 0.0
H799 H 0.68659 0.50369 0.03956 0.0
C800 C 0.68785 0.6025 0.97995 0.0
C801 C 0.68551 0.64834 0.99216 0.0
C802 C 0.70288 0.56727 0.99232 0.0
C803 C 0.71522 0.57671 0.01764 0.0
C804 C 0.71238 0.62231 0.03032 0.0
H805 H 0.80915 0.31671 0.0274 0.0
H806 H 0.78221 0.37896 0.0494 0.0
C807 C 0.69726 0.65784 0.01778 0.0
C808 C 0.7333 0.54042 0.02843 0.0
H809 H 0.74045 0.41783 0.02951 0.0
C810 C 0.75881 0.5539 0.03078 0.0
C811 C 0.72655 0.49098 0.03087 0.0
C812 C 0.69931 0.4746 0.0318 0.0
C813 C 0.77792 0.51874 0.0311 0.0
C814 C 0.77119 0.46932 0.02844 0.0
C815 C 0.74566 0.45582 0.03057 0.0
C816 C 0.78933 0.43312 0.01767 0.0
C817 C 0.80515 0.53512 0.0323 0.0
C818 C 0.80189 0.4428 0.99252 0.0
C819 C 0.81696 0.40765 0.98012 0.0
C820 C 0.81912 0.36163 0.99214 0.0
C821 C 0.80717 0.35188 0.01761 0.0
C822 C 0.79202 0.38734 0.03018 0.0
H823 H 0.80711 0.56729 0.04606 0.0
H824 H 0.81783 0.50595 0.04002 0.0
H825 H 0.81141 0.54612 0.01116 0.0
H826 H 0.79942 0.47714 0.98192 0.0
H827 H 0.82669 0.41624 0.96087 0.0
H828 H 0.6977 0.80982 0.47146 0.0
H829 H 0.72384 0.87088 0.44728 0.0
H830 H 0.71321 0.96901 0.51643 0.0
H831 H 0.68622 0.90977 0.53935 0.0
H832 H 0.70654 0.01381 0.46568 0.0
H833 H 0.79602 0.90643 0.46522 0.0
H834 H 0.76981 0.88727 0.44384 0.0
H835 H 0.76759 0.88287 0.48086 0.0
C836 C 0.70132 0.84439 0.4814 0.0
C837 C 0.69109 0.85458 0.50778 0.0
C838 C 0.71611 0.87914 0.46762 0.0
C839 C 0.72063 0.92439 0.48012 0.0
C840 C 0.70997 0.93444 0.50629 0.0
H841 H 0.82024 0.09409 0.53946 0.0
H842 H 0.79327 0.03495 0.51637 0.0
C843 C 0.69502 0.90022 0.51972 0.0
C844 C 0.73693 0.96191 0.46727 0.0
H845 H 0.79956 0.99081 0.46555 0.0
C846 C 0.72691 0.00885 0.46477 0.0
C847 C 0.76333 0.95506 0.46447 0.0
C848 C 0.77503 0.9053 0.46369 0.0
C849 C 0.74277 0.04959 0.46473 0.0
C850 C 0.76918 0.04271 0.46746 0.0
C851 C 0.7792 0.9958 0.4647 0.0
C852 C 0.78552 0.08012 0.48039 0.0
C853 C 0.73104 0.09934 0.46423 0.0
C854 C 0.78986 0.1256 0.46812 0.0
C855 C 0.80462 0.16028 0.48202 0.0
C856 C 0.81501 0.14976 0.50827 0.0
C857 C 0.81129 0.10387 0.51995 0.0
C858 C 0.79637 0.06972 0.50642 0.0
H859 H 0.71006 0.09816 0.4659 0.0
H860 H 0.73856 0.12158 0.48146 0.0
H861 H 0.73614 0.11761 0.44443 0.0
H862 H 0.78201 0.13414 0.44788 0.0
H863 H 0.80808 0.19505 0.47226 0.0
loop_
_geom_bond_atom_site_label_1
_geom_bond_atom_site_label_2
_geom_bond_distance
_geom_bond_site_symmetry_2
_ccdc_geom_bond_type
Mn0 O5 2.095 . S
Mn0 O15 2.162 . S
Mn0 O16 2.297 . S
Mn0 O24 2.385 . S
Mn0 O25 2.209 . S
Mn0 O26 2.094 . S
Mn1 O6 2.121 . S
Mn1 N8 2.257 . S
Mn1 N17 2.282 . S
Mn1 O25 2.215 . S
Mn1 O27 2.117 . S
C2 O24 1.234 . S
C2 O25 1.283 . S
C3 O15 1.281 . S
C3 O16 1.236 . S
C4 O26 1.240 . S
C4 O27 1.264 . S
O5 Mn0 2.095 . S
O5 C14 1.250 . S
O6 Mn1 2.121 . S
O6 C14 1.258 . S
C7 N8 1.326 . S
C7 C11 1.460 . S
C7 H13 0.929 . S
N8 Mn1 2.257 . S
N8 C7 1.326 . S
N8 C12 1.362 . S
C9 C10 1.258 . S
C9 C12 1.431 . S
C9 C29 1.449 . S
C10 C9 1.258 . S
C10 C11 1.477 . S
C10 H30 0.931 . S
C11 C7 1.460 . S
C11 C10 1.477 . S
C11 H31 0.930 . S
C12 N8 1.362 . S
C12 C9 1.431 . S
C12 C22 1.476 . S
H13 C7 0.929 . S
C14 O5 1.250 . S
C14 O6 1.258 . S
O15 Mn0 2.162 . S
O15 C3 1.281 . S
O16 Mn0 2.297 . S
O16 C3 1.236 . S
N17 Mn1 2.282 . S
N17 C18 1.328 . S
N17 C22 1.318 . S
C18 N17 1.328 . S
C18 C19 1.457 . S
C18 H23 0.929 . S
C19 C18 1.457 . S
C19 C20 1.291 . S
C19 H32 0.927 . S
C20 C19 1.291 . S
C20 C21 1.373 . S
C20 H33 0.929 . S
C21 C20 1.373 . S
C21 C22 1.396 . S
C21 C28 1.403 . S
C22 C12 1.476 . S
C22 N17 1.318 . S
C22 C21 1.396 . S
H23 C18 0.929 . S
O24 Mn0 2.385 . S
O24 C2 1.234 . S
O25 Mn0 2.209 . S
O25 Mn1 2.215 . S
O25 C2 1.283 . S
O26 Mn0 2.094 . S
O26 C4 1.240 . S
O27 Mn1 2.117 . S
O27 C4 1.264 . S
C28 C21 1.403 . S
C28 C29 1.399 . S
C28 H34 0.929 . S
C29 C9 1.449 . S
C29 C28 1.399 . S
C29 H35 0.930 . S
H30 C10 0.931 . S
H31 C11 0.930 . S
H32 C19 0.927 . S
H33 C20 0.929 . S
H34 C28 0.929 . S
H35 C29 0.930 . S
Mn36 O41 2.095 . S
Mn36 O51 2.162 . S
Mn36 O52 2.297 . S
Mn36 O60 2.385 . S
Mn36 O61 2.209 . S
Mn36 O62 2.094 . S
Mn37 O42 2.121 . S
Mn37 N44 2.257 . S
Mn37 N53 2.282 . S
Mn37 O61 2.215 . S
Mn37 O63 2.117 . S
C38 O60 1.234 . S
C38 O61 1.283 . S
C39 O51 1.281 . S
C39 O52 1.236 . S
C40 O62 1.240 . S
C40 O63 1.264 . S
O41 Mn36 2.095 . S
O41 C50 1.250 . S
O42 Mn37 2.121 . S
O42 C50 1.258 . S
C43 N44 1.326 . S
C43 C47 1.460 . S
C43 H49 0.929 . S
N44 Mn37 2.257 . S
N44 C43 1.326 . S
N44 C48 1.362 . S
C45 C46 1.258 . S
C45 C48 1.431 . S
C45 C65 1.449 . S
C46 C45 1.258 . S
C46 C47 1.477 . S
C46 H66 0.931 . S
C47 C43 1.460 . S
C47 C46 1.477 . S
C47 H67 0.930 . S
C48 N44 1.362 . S
C48 C45 1.431 . S
C48 C58 1.476 . S
H49 C43 0.929 . S
C50 O41 1.250 . S
C50 O42 1.258 . S
O51 Mn36 2.162 . S
O51 C39 1.281 . S
O52 Mn36 2.297 . S
O52 C39 1.236 . S
N53 Mn37 2.282 . S
N53 C54 1.328 . S
N53 C58 1.318 . S
C54 N53 1.328 . S
C54 C55 1.457 . S
C54 H59 0.929 . S
C55 C54 1.457 . S
C55 C56 1.291 . S
C55 H68 0.927 . S
C56 C55 1.291 . S
C56 C57 1.373 . S
C56 H69 0.929 . S
C57 C56 1.373 . S
C57 C58 1.396 . S
C57 C64 1.403 . S
C58 C48 1.476 . S
C58 N53 1.318 . S
C58 C57 1.396 . S
H59 C54 0.929 . S
O60 Mn36 2.385 . S
O60 C38 1.234 . S
O61 Mn36 2.209 . S
O61 Mn37 2.215 . S
O61 C38 1.283 . S
O62 Mn36 2.094 . S
O62 C40 1.240 . S
O63 Mn37 2.117 . S
O63 C40 1.264 . S
C64 C57 1.403 . S
C64 C65 1.399 . S
C64 H70 0.929 . S
C65 C45 1.449 . S
C65 C64 1.399 . S
C65 H71 0.930 . S
H66 C46 0.931 . S
H67 C47 0.930 . S
H68 C55 0.927 . S
H69 C56 0.929 . S
H70 C64 0.929 . S
H71 C65 0.930 . S
Mn72 O77 2.095 . S
Mn72 O87 2.162 . S
Mn72 O88 2.297 . S
Mn72 O96 2.385 . S
Mn72 O97 2.209 . S
Mn72 O98 2.094 . S
Mn73 O78 2.121 . S
Mn73 N80 2.257 . S
Mn73 N89 2.282 . S
Mn73 O97 2.215 . S
Mn73 O99 2.117 . S
C74 O96 1.234 . S
C74 O97 1.283 . S
C75 O87 1.281 . S
C75 O88 1.236 . S
C76 O98 1.240 . S
C76 O99 1.264 . S
O77 Mn72 2.095 . S
O77 C86 1.250 . S
O78 Mn73 2.121 . S
O78 C86 1.258 . S
C79 N80 1.326 . S
C79 C83 1.460 . S
C79 H85 0.929 . S
N80 Mn73 2.257 . S
N80 C79 1.326 . S
N80 C84 1.362 . S
C81 C82 1.258 . S
C81 C84 1.431 . S
C81 C101 1.449 . S
C82 C81 1.258 . S
C82 C83 1.477 . S
C82 H102 0.931 . S
C83 C79 1.460 . S
C83 C82 1.477 . S
C83 H103 0.930 . S
C84 N80 1.362 . S
C84 C81 1.431 . S
C84 C94 1.476 . S
H85 C79 0.929 . S
C86 O77 1.250 . S
C86 O78 1.258 . S
O87 Mn72 2.162 . S
O87 C75 1.281 . S
O88 Mn72 2.297 . S
O88 C75 1.236 . S
N89 Mn73 2.282 . S
N89 C90 1.328 . S
N89 C94 1.318 . S
C90 N89 1.328 . S
C90 C91 1.457 . S
C90 H95 0.929 . S
C91 C90 1.457 . S
C91 C92 1.291 . S
C91 H104 0.931 . S
C92 C91 1.291 . S
C92 C93 1.373 . S
C92 H105 0.929 . S
C93 C92 1.373 . S
C93 C94 1.396 . S
C93 C100 1.403 . S
C94 C84 1.476 . S
C94 N89 1.318 . S
C94 C93 1.396 . S
H95 C90 0.929 . S
O96 Mn72 2.385 . S
O96 C74 1.234 . S
O97 Mn72 2.209 . S
O97 Mn73 2.215 . S
O97 C74 1.283 . S
O98 Mn72 2.094 . S
O98 C76 1.240 . S
O99 Mn73 2.117 . S
O99 C76 1.264 . S
C100 C93 1.403 . S
C100 C101 1.399 . S
C100 H106 0.929 . S
C101 C81 1.449 . S
C101 C100 1.399 . S
C101 H107 0.930 . S
H102 C82 0.931 . S
H103 C83 0.930 . S
H104 C91 0.931 . S
H105 C92 0.929 . S
H106 C100 0.929 . S
H107 C101 0.930 . S
Mn108 O113 2.095 . S
Mn108 O123 2.162 . S
Mn108 O124 2.297 . S
Mn108 O132 2.385 . S
Mn108 O133 2.209 . S
Mn108 O134 2.094 . S
Mn109 O114 2.121 . S
Mn109 N116 2.257 . S
Mn109 N125 2.282 . S
Mn109 O133 2.215 . S
Mn109 O135 2.117 . S
C110 O132 1.234 . S
C110 O133 1.283 . S
C111 O123 1.281 . S
C111 O124 1.236 . S
C112 O134 1.240 . S
C112 O135 1.264 . S
O113 Mn108 2.095 . S
O113 C122 1.250 . S
O114 Mn109 2.121 . S
O114 C122 1.258 . S
C115 N116 1.326 . S
C115 C119 1.460 . S
C115 H121 0.929 . S
N116 Mn109 2.257 . S
N116 C115 1.326 . S
N116 C120 1.362 . S
C117 C118 1.258 . S
C117 C120 1.431 . S
C117 C137 1.449 . S
C118 C117 1.258 . S
C118 C119 1.477 . S
C118 H138 0.931 . S
C119 C115 1.460 . S
C119 C118 1.477 . S
C119 H139 0.930 . S
C120 N116 1.362 . S
C120 C117 1.431 . S
C120 C130 1.476 . S
H121 C115 0.929 . S
C122 O113 1.250 . S
C122 O114 1.258 . S
O123 Mn108 2.162 . S
O123 C111 1.281 . S
O124 Mn108 2.297 . S
O124 C111 1.236 . S
N125 Mn109 2.282 . S
N125 C126 1.328 . S
N125 C130 1.318 . S
C126 N125 1.328 . S
C126 C127 1.457 . S
C126 H131 0.929 . S
C127 C126 1.457 . S
C127 C128 1.291 . S
C127 H140 0.931 . S
C128 C127 1.291 . S
C128 C129 1.373 . S
C128 H141 0.929 . S
C129 C128 1.373 . S
C129 C130 1.396 . S
C129 C136 1.403 . S
C130 C120 1.476 . S
C130 N125 1.318 . S
C130 C129 1.396 . S
H131 C126 0.929 . S
O132 Mn108 2.385 . S
O132 C110 1.234 . S
O133 Mn108 2.209 . S
O133 Mn109 2.215 . S
O133 C110 1.283 . S
O134 Mn108 2.094 . S
O134 C112 1.240 . S
O135 Mn109 2.117 . S
O135 C112 1.264 . S
C136 C129 1.403 . S
C136 C137 1.399 . S
C136 H142 0.929 . S
C137 C117 1.449 . S
C137 C136 1.399 . S
C137 H143 0.930 . S
H138 C118 0.931 . S
H139 C119 0.930 . S
H140 C127 0.931 . S
H141 C128 0.929 . S
H142 C136 0.929 . S
H143 C137 0.930 . S
Mn144 O149 2.095 . S
Mn144 O159 2.162 . S
Mn144 O160 2.297 . S
Mn144 O168 2.385 . S
Mn144 O169 2.209 . S
Mn144 O170 2.094 . S
Mn145 O150 2.121 . S
Mn145 N152 2.257 . S
Mn145 N161 2.282 . S
Mn145 O169 2.215 . S
Mn145 O171 2.117 . S
C146 O168 1.234 . S
C146 O169 1.283 . S
C147 O159 1.281 . S
C147 O160 1.236 . S
C148 O170 1.240 . S
C148 O171 1.264 . S
O149 Mn144 2.095 . S
O149 C158 1.250 . S
O150 Mn145 2.121 . S
O150 C158 1.258 . S
C151 N152 1.326 . S
C151 C155 1.460 . S
C151 H157 0.929 . S
N152 Mn145 2.257 . S
N152 C151 1.326 . S
N152 C156 1.362 . S
C153 C154 1.258 . S
C153 C156 1.431 . S
C153 C173 1.449 . S
C154 C153 1.258 . S
C154 C155 1.477 . S
C154 H174 0.931 . S
C155 C151 1.460 . S
C155 C154 1.477 . S
C155 H175 0.930 . S
C156 N152 1.362 . S
C156 C153 1.431 . S
C156 C166 1.476 . S
H157 C151 0.929 . S
C158 O149 1.250 . S
C158 O150 1.258 . S
O159 Mn144 2.162 . S
O159 C147 1.281 . S
O160 Mn144 2.297 . S
O160 C147 1.236 . S
N161 Mn145 2.282 . S
N161 C162 1.328 . S
N161 C166 1.318 . S
C162 N161 1.328 . S
C162 C163 1.457 . S
C162 H167 0.929 . S
C163 C162 1.457 . S
C163 C164 1.291 . S
C163 H176 0.927 . S
C164 C163 1.291 . S
C164 C165 1.373 . S
C164 H177 0.929 . S
C165 C164 1.373 . S
C165 C166 1.396 . S
C165 C172 1.403 . S
C166 C156 1.476 . S
C166 N161 1.318 . S
C166 C165 1.396 . S
H167 C162 0.929 . S
O168 Mn144 2.385 . S
O168 C146 1.234 . S
O169 Mn144 2.209 . S
O169 Mn145 2.215 . S
O169 C146 1.283 . S
O170 Mn144 2.094 . S
O170 C148 1.240 . S
O171 Mn145 2.117 . S
O171 C148 1.264 . S
C172 C165 1.403 . S
C172 C173 1.399 . S
C172 H178 0.929 . S
C173 C153 1.449 . S
C173 C172 1.399 . S
C173 H179 0.930 . S
H174 C154 0.931 . S
H175 C155 0.930 . S
H176 C163 0.927 . S
H177 C164 0.929 . S
H178 C172 0.929 . S
H179 C173 0.930 . S
Mn180 O185 2.095 . S
Mn180 O195 2.162 . S
Mn180 O196 2.297 . S
Mn180 O204 2.385 . S
Mn180 O205 2.209 . S
Mn180 O206 2.094 . S
Mn181 O186 2.121 . S
Mn181 N188 2.257 . S
Mn181 N197 2.282 . S
Mn181 O205 2.215 . S
Mn181 O207 2.117 . S
C182 O204 1.234 . S
C182 O205 1.283 . S
C183 O195 1.281 . S
C183 O196 1.236 . S
C184 O206 1.240 . S
C184 O207 1.264 . S
O185 Mn180 2.095 . S
O185 C194 1.250 . S
O186 Mn181 2.121 . S
O186 C194 1.258 . S
C187 N188 1.326 . S
C187 C191 1.460 . S
C187 H193 0.929 . S
N188 Mn181 2.257 . S
N188 C187 1.326 . S
N188 C192 1.362 . S
C189 C190 1.258 . S
C189 C192 1.431 . S
C189 C209 1.449 . S
C190 C189 1.258 . S
C190 C191 1.477 . S
C190 H210 0.931 . S
C191 C187 1.460 . S
C191 C190 1.477 . S
C191 H211 0.930 . S
C192 N188 1.362 . S
C192 C189 1.431 . S
C192 C202 1.476 . S
H193 C187 0.929 . S
C194 O185 1.250 . S
C194 O186 1.258 . S
O195 Mn180 2.162 . S
O195 C183 1.281 . S
O196 Mn180 2.297 . S
O196 C183 1.236 . S
N197 Mn181 2.282 . S
N197 C198 1.328 . S
N197 C202 1.318 . S
C198 N197 1.328 . S
C198 C199 1.457 . S
C198 H203 0.929 . S
C199 C198 1.457 . S
C199 C200 1.291 . S
C199 H212 0.927 . S
C200 C199 1.291 . S
C200 C201 1.373 . S
C200 H213 0.929 . S
C201 C200 1.373 . S
C201 C202 1.396 . S
C201 C208 1.403 . S
C202 C192 1.476 . S
C202 N197 1.318 . S
C202 C201 1.396 . S
H203 C198 0.929 . S
O204 Mn180 2.385 . S
O204 C182 1.234 . S
O205 Mn180 2.209 . S
O205 Mn181 2.215 . S
O205 C182 1.283 . S
O206 Mn180 2.094 . S
O206 C184 1.240 . S
O207 Mn181 2.117 . S
O207 C184 1.264 . S
C208 C201 1.403 . S
C208 C209 1.399 . S
C208 H214 0.929 . S
C209 C189 1.449 . S
C209 C208 1.399 . S
C209 H215 0.930 . S
H210 C190 0.931 . S
H211 C191 0.930 . S
H212 C199 0.927 . S
H213 C200 0.929 . S
H214 C208 0.929 . S
H215 C209 0.930 . S
Mn216 O221 2.095 . S
Mn216 O231 2.162 . S
Mn216 O232 2.297 . S
Mn216 O240 2.385 . S
Mn216 O241 2.209 . S
Mn216 O242 2.094 . S
Mn217 O222 2.121 . S
Mn217 N224 2.257 . S
Mn217 N233 2.282 . S
Mn217 O241 2.215 . S
Mn217 O243 2.117 . S
C218 O240 1.234 . S
C218 O241 1.283 . S
C219 O231 1.281 . S
C219 O232 1.236 . S
C220 O242 1.240 . S
C220 O243 1.264 . S
O221 Mn216 2.095 . S
O221 C230 1.250 . S
O222 Mn217 2.121 . S
O222 C230 1.258 . S
C223 N224 1.326 . S
C223 C227 1.460 . S
C223 H229 0.929 . S
N224 Mn217 2.257 . S
N224 C223 1.326 . S
N224 C228 1.362 . S
C225 C226 1.258 . S
C225 C228 1.431 . S
C225 C245 1.449 . S
C226 C225 1.258 . S
C226 C227 1.477 . S
C226 H246 0.931 . S
C227 C223 1.460 . S
C227 C226 1.477 . S
C227 H247 0.930 . S
C228 N224 1.362 . S
C228 C225 1.431 . S
C228 C238 1.476 . S
H229 C223 0.929 . S
C230 O221 1.250 . S
C230 O222 1.258 . S
O231 Mn216 2.162 . S
O231 C219 1.281 . S
O232 Mn216 2.297 . S
O232 C219 1.236 . S
N233 Mn217 2.282 . S
N233 C234 1.328 . S
N233 C238 1.318 . S
C234 N233 1.328 . S
C234 C235 1.457 . S
C234 H239 0.929 . S
C235 C234 1.457 . S
C235 C236 1.291 . S
C235 H248 0.931 . S
C236 C235 1.291 . S
C236 C237 1.373 . S
C236 H249 0.929 . S
C237 C236 1.373 . S
C237 C238 1.396 . S
C237 C244 1.403 . S
C238 C228 1.476 . S
C238 N233 1.318 . S
C238 C237 1.396 . S
H239 C234 0.929 . S
O240 Mn216 2.385 . S
O240 C218 1.234 . S
O241 Mn216 2.209 . S
O241 Mn217 2.215 . S
O241 C218 1.283 . S
O242 Mn216 2.094 . S
O242 C220 1.240 . S
O243 Mn217 2.117 . S
O243 C220 1.264 . S
C244 C237 1.403 . S
C244 C245 1.399 . S
C244 H250 0.929 . S
C245 C225 1.449 . S
C245 C244 1.399 . S
C245 H251 0.930 . S
H246 C226 0.931 . S
H247 C227 0.930 . S
H248 C235 0.931 . S
H249 C236 0.929 . S
H250 C244 0.929 . S
H251 C245 0.930 . S
Mn252 O257 2.095 . S
Mn252 O267 2.162 . S
Mn252 O268 2.297 . S
Mn252 O276 2.385 . S
Mn252 O277 2.209 . S
Mn252 O278 2.094 . S
Mn253 O258 2.121 . S
Mn253 N260 2.257 . S
Mn253 N269 2.282 . S
Mn253 O277 2.215 . S
Mn253 O279 2.117 . S
C254 O276 1.234 . S
C254 O277 1.283 . S
C255 O267 1.281 . S
C255 O268 1.236 . S
C256 O278 1.240 . S
C256 O279 1.264 . S
O257 Mn252 2.095 . S
O257 C266 1.250 . S
O258 Mn253 2.121 . S
O258 C266 1.258 . S
C259 N260 1.326 . S
C259 C263 1.460 . S
C259 H265 0.929 . S
N260 Mn253 2.257 . S
N260 C259 1.326 . S
N260 C264 1.362 . S
C261 C262 1.258 . S
C261 C264 1.431 . S
C261 C281 1.449 . S
C262 C261 1.258 . S
C262 C263 1.477 . S
C262 H282 0.931 . S
C263 C259 1.460 . S
C263 C262 1.477 . S
C263 H283 0.930 . S
C264 N260 1.362 . S
C264 C261 1.431 . S
C264 C274 1.476 . S
H265 C259 0.929 . S
C266 O257 1.250 . S
C266 O258 1.258 . S
O267 Mn252 2.162 . S
O267 C255 1.281 . S
O268 Mn252 2.297 . S
O268 C255 1.236 . S
N269 Mn253 2.282 . S
N269 C270 1.328 . S
N269 C274 1.318 . S
C270 N269 1.328 . S
C270 C271 1.457 . S
C270 H275 0.929 . S
C271 C270 1.457 . S
C271 C272 1.291 . S
C271 H284 0.931 . S
C272 C271 1.291 . S
C272 C273 1.373 . S
C272 H285 0.929 . S
C273 C272 1.373 . S
C273 C274 1.396 . S
C273 C280 1.403 . S
C274 C264 1.476 . S
C274 N269 1.318 . S
C274 C273 1.396 . S
H275 C270 0.929 . S
O276 Mn252 2.385 . S
O276 C254 1.234 . S
O277 Mn252 2.209 . S
O277 Mn253 2.215 . S
O277 C254 1.283 . S
O278 Mn252 2.094 . S
O278 C256 1.240 . S
O279 Mn253 2.117 . S
O279 C256 1.264 . S
C280 C273 1.403 . S
C280 C281 1.399 . S
C280 H286 0.929 . S
C281 C261 1.449 . S
C281 C280 1.399 . S
C281 H287 0.930 . S
H282 C262 0.931 . S
H283 C263 0.930 . S
H284 C271 0.931 . S
H285 C272 0.929 . S
H286 C280 0.929 . S
H287 C281 0.930 . S
H288 C296 0.929 . S
H289 C298 0.930 . S
H290 C300 0.930 . S
H291 C303 0.929 . S
H292 C306 0.930 . S
H293 C308 0.960 . S
H294 C308 0.960 . S
H295 C308 0.960 . S
C296 H288 0.929 . S
C296 C297 1.377 . S
C296 C298 1.384 . S
C297 C296 1.377 . S
C297 C303 1.390 . S
C298 H289 0.930 . S
C298 C296 1.384 . S
C298 C299 1.372 . S
C299 C298 1.372 . S
C299 C300 1.400 . S
C299 C304 1.490 . S
C300 H290 0.930 . S
C300 C299 1.400 . S
C300 C303 1.386 . S
H301 C317 0.930 1_556 S
H302 C318 0.931 1_556 S
C303 H291 0.929 . S
C303 C297 1.390 . S
C303 C300 1.386 . S
C304 C299 1.490 . S
C304 C306 1.395 . S
C304 C307 1.403 1_545 S
H305 C311 0.930 . S
C306 H292 0.930 . S
C306 C304 1.395 . S
C306 C309 1.403 . S
C307 C304 1.403 1_565 S
C307 C308 1.524 . S
C307 C311 1.400 . S
C308 H293 0.960 . S
C308 H294 0.960 . S
C308 H295 0.960 . S
C308 C307 1.524 . S
C309 C306 1.403 . S
C309 C310 1.392 1_545 S
C309 C313 1.495 . S
C310 C309 1.392 1_565 S
C310 C311 1.385 . S
C310 C312 1.478 . S
C311 H305 0.930 . S
C311 C307 1.400 . S
C311 C310 1.385 . S
C312 C310 1.478 . S
C312 C314 1.381 . S
C312 C318 1.383 . S
C313 C309 1.495 . S
C313 H319 0.959 . S
C313 H320 0.961 1_554 S
C313 H321 0.960 . S
C314 C312 1.381 . S
C314 C315 1.394 . S
C314 H322 0.930 . S
C315 C314 1.394 . S
C315 C316 1.383 . S
C315 H323 0.929 . S
C316 C315 1.383 . S
C316 C317 1.377 . S
C317 H301 0.930 1_554 S
C317 C316 1.377 . S
C317 C318 1.379 . S
C318 H302 0.931 1_554 S
C318 C312 1.383 . S
C318 C317 1.379 . S
H319 C313 0.959 . S
H320 C313 0.961 1_556 S
H321 C313 0.960 . S
H322 C314 0.930 . S
H323 C315 0.929 . S
H324 C332 0.929 . S
H325 C334 0.930 . S
H326 C336 0.930 . S
H327 C339 0.929 . S
H328 C342 0.930 . S
H329 C344 0.960 . S
H330 C344 0.960 . S
H331 C344 0.960 . S
C332 H324 0.929 . S
C332 C333 1.377 . S
C332 C334 1.384 . S
C333 C332 1.377 . S
C333 C339 1.390 . S
C334 H325 0.930 . S
C334 C332 1.384 . S
C334 C335 1.372 . S
C335 C334 1.372 . S
C335 C336 1.400 . S
C335 C340 1.490 . S
C336 H326 0.930 . S
C336 C335 1.400 . S
C336 C339 1.386 . S
H337 C353 0.930 . S
H338 C354 0.931 . S
C339 H327 0.929 . S
C339 C333 1.390 . S
C339 C336 1.386 . S
C340 C335 1.490 . S
C340 C342 1.395 . S
C340 C343 1.403 . S
H341 C347 0.930 . S
C342 H328 0.930 . S
C342 C340 1.395 . S
C342 C345 1.403 . S
C343 C340 1.403 . S
C343 C344 1.524 . S
C343 C347 1.400 . S
C344 H329 0.960 . S
C344 H330 0.960 . S
C344 H331 0.960 . S
C344 C343 1.524 . S
C345 C342 1.403 . S
C345 C346 1.392 . S
C345 C349 1.495 . S
C346 C345 1.392 . S
C346 C347 1.385 . S
C346 C348 1.478 . S
C347 H341 0.930 . S
C347 C343 1.400 . S
C347 C346 1.385 . S
C348 C346 1.478 . S
C348 C350 1.381 . S
C348 C354 1.383 . S
C349 C345 1.495 . S
C349 H355 0.959 . S
C349 H356 0.961 . S
C349 H357 0.960 . S
C350 C348 1.381 . S
C350 C351 1.394 . S
C350 H358 0.930 . S
C351 C350 1.394 . S
C351 C352 1.383 . S
C351 H359 0.929 . S
C352 C351 1.383 . S
C352 C353 1.377 . S
C353 H337 0.930 . S
C353 C352 1.377 . S
C353 C354 1.379 . S
C354 H338 0.931 . S
C354 C348 1.383 . S
C354 C353 1.379 . S
H355 C349 0.959 . S
H356 C349 0.961 . S
H357 C349 0.960 . S
H358 C350 0.930 . S
H359 C351 0.929 . S
H360 C368 0.929 . S
H361 C370 0.930 . S
H362 C372 0.930 1_554 S
H363 C375 0.929 1_554 S
H364 C378 0.930 . S
H365 C380 0.960 . S
H366 C380 0.960 . S
H367 C380 0.960 . S
C368 H360 0.929 . S
C368 C369 1.377 . S
C368 C370 1.384 . S
C369 C368 1.377 . S
C369 C375 1.390 . S
C370 H361 0.930 . S
C370 C368 1.384 . S
C370 C371 1.372 . S
C371 C370 1.372 . S
C371 C372 1.400 . S
C371 C376 1.490 . S
C372 H362 0.930 1_556 S
C372 C371 1.400 . S
C372 C375 1.386 . S
H373 C389 0.930 1_554 S
H374 C390 0.931 1_554 S
C375 H363 0.929 1_556 S
C375 C369 1.390 . S
C375 C372 1.386 . S
C376 C371 1.490 . S
C376 C378 1.395 . S
C376 C379 1.403 . S
H377 C383 0.920 1_554 S
C378 H364 0.930 . S
C378 C376 1.395 . S
C378 C381 1.403 1_565 S
C379 C376 1.403 . S
C379 C380 1.524 1_556 S
C379 C383 1.400 1_565 S
C380 H365 0.960 . S
C380 H366 0.960 . S
C380 H367 0.960 . S
C380 C379 1.524 1_554 S
C381 C378 1.403 1_545 S
C381 C382 1.392 . S
C381 C385 1.495 . S
C382 C381 1.392 . S
C382 C383 1.385 . S
C382 C384 1.478 . S
C383 H377 0.920 1_556 S
C383 C379 1.400 1_545 S
C383 C382 1.385 . S
C384 C382 1.478 . S
C384 C386 1.381 . S
C384 C390 1.383 . S
C385 C381 1.495 . S
C385 H391 0.959 . S
C385 H392 0.961 . S
C385 H393 0.960 . S
C386 C384 1.381 . S
C386 C387 1.394 . S
C386 H394 0.930 . S
C387 C386 1.394 . S
C387 C388 1.383 . S
C387 H395 0.929 . S
C388 C387 1.383 . S
C388 C389 1.377 . S
C389 H373 0.930 1_556 S
C389 C388 1.377 . S
C389 C390 1.379 . S
C390 H374 0.931 1_556 S
C390 C384 1.383 . S
C390 C389 1.379 . S
H391 C385 0.959 . S
H392 C385 0.961 . S
H393 C385 0.960 . S
H394 C386 0.930 . S
H395 C387 0.929 . S
H396 C404 0.929 . S
H397 C406 0.930 . S
H398 C408 0.930 . S
H399 C411 0.929 . S
H400 C414 0.930 . S
H401 C416 0.960 . S
H402 C416 0.960 . S
H403 C416 0.960 . S
C404 H396 0.929 . S
C404 C405 1.377 . S
C404 C406 1.384 . S
C405 C404 1.377 . S
C405 C411 1.390 . S
C406 H397 0.930 . S
C406 C404 1.384 . S
C406 C407 1.372 . S
C407 C406 1.372 . S
C407 C408 1.400 . S
C407 C412 1.490 . S
C408 H398 0.930 . S
C408 C407 1.400 . S
C408 C411 1.386 . S
H409 C425 0.930 . S
H410 C426 0.931 . S
C411 H399 0.929 . S
C411 C405 1.390 . S
C411 C408 1.386 . S
C412 C407 1.490 . S
C412 C414 1.395 . S
C412 C415 1.403 . S
H413 C419 0.930 . S
C414 H400 0.930 . S
C414 C412 1.395 . S
C414 C417 1.403 . S
C415 C412 1.403 . S
C415 C416 1.524 . S
C415 C419 1.400 . S
C416 H401 0.960 . S
C416 H402 0.960 . S
C416 H403 0.960 . S
C416 C415 1.524 . S
C417 C414 1.403 . S
C417 C418 1.392 . S
C417 C421 1.495 . S
C418 C417 1.392 . S
C418 C419 1.385 . S
C418 C420 1.478 . S
C419 H413 0.930 . S
C419 C415 1.400 . S
C419 C418 1.385 . S
C420 C418 1.478 . S
C420 C422 1.381 . S
C420 C426 1.383 . S
C421 C417 1.495 . S
C421 H427 0.959 . S
C421 H428 0.961 . S
C421 H429 0.960 . S
C422 C420 1.381 . S
C422 C423 1.394 . S
C422 H430 0.930 . S
C423 C422 1.394 . S
C423 C424 1.383 . S
C423 H431 0.929 . S
C424 C423 1.383 . S
C424 C425 1.377 . S
C425 H409 0.930 . S
C425 C424 1.377 . S
C425 C426 1.379 . S
C426 H410 0.931 . S
C426 C420 1.383 . S
C426 C425 1.379 . S
H427 C421 0.959 . S
H428 C421 0.961 . S
H429 C421 0.960 . S
H430 C422 0.930 . S
H431 C423 0.929 . S
H432 C440 0.929 . S
H433 C442 0.930 . S
H434 C444 0.930 . S
H435 C447 0.929 . S
H436 C450 0.930 . S
H437 C452 0.960 . S
H438 C452 0.960 . S
H439 C452 0.960 . S
C440 H432 0.929 . S
C440 C441 1.377 . S
C440 C442 1.384 . S
C441 C440 1.377 . S
C441 C447 1.390 . S
C442 H433 0.930 . S
C442 C440 1.384 . S
C442 C443 1.372 . S
C443 C442 1.372 . S
C443 C444 1.400 . S
C443 C448 1.490 . S
C444 H434 0.930 . S
C444 C443 1.400 . S
C444 C447 1.386 . S
H445 C461 0.930 . S
H446 C462 0.931 . S
C447 H435 0.929 . S
C447 C441 1.390 . S
C447 C444 1.386 . S
C448 C443 1.490 . S
C448 C450 1.395 . S
C448 C451 1.403 . S
H449 C455 0.930 . S
C450 H436 0.930 . S
C450 C448 1.395 . S
C450 C453 1.403 . S
C451 C448 1.403 . S
C451 C452 1.524 . S
C451 C455 1.400 . S
C452 H437 0.960 . S
C452 H438 0.960 . S
C452 H439 0.960 . S
C452 C451 1.524 . S
C453 C450 1.403 . S
C453 C454 1.392 . S
C453 C457 1.495 . S
C454 C453 1.392 . S
C454 C455 1.385 . S
C454 C456 1.478 . S
C455 H449 0.930 . S
C455 C451 1.400 . S
C455 C454 1.385 . S
C456 C454 1.478 . S
C456 C458 1.381 . S
C456 C462 1.383 . S
C457 C453 1.495 . S
C457 H463 0.959 . S
C457 H464 0.961 . S
C457 H465 0.960 . S
C458 C456 1.381 . S
C458 C459 1.394 . S
C458 H466 0.930 . S
C459 C458 1.394 . S
C459 C460 1.383 . S
C459 H467 0.929 . S
C460 C459 1.383 . S
C460 C461 1.377 . S
C461 H445 0.930 . S
C461 C460 1.377 . S
C461 C462 1.379 . S
C462 H446 0.931 . S
C462 C456 1.383 . S
C462 C461 1.379 . S
H463 C457 0.959 . S
H464 C457 0.961 . S
H465 C457 0.960 . S
H466 C458 0.930 . S
H467 C459 0.929 . S
H468 C476 0.929 . S
H469 C478 0.930 . S
H470 C480 0.930 . S
H471 C483 0.929 . S
H472 C486 0.930 . S
H473 C488 0.960 . S
H474 C488 0.960 . S
H475 C488 0.960 . S
C476 H468 0.929 . S
C476 C477 1.377 . S
C476 C478 1.384 . S
C477 C476 1.377 . S
C477 C483 1.390 . S
C478 H469 0.930 . S
C478 C476 1.384 . S
C478 C479 1.372 . S
C479 C478 1.372 . S
C479 C480 1.400 . S
C479 C484 1.490 . S
C480 H470 0.930 . S
C480 C479 1.400 . S
C480 C483 1.386 . S
H481 C497 0.930 . S
H482 C498 0.931 . S
C483 H471 0.929 . S
C483 C477 1.390 . S
C483 C480 1.386 . S
C484 C479 1.490 . S
C484 C486 1.395 . S
C484 C487 1.403 . S
H485 C491 0.930 . S
C486 H472 0.930 . S
C486 C484 1.395 . S
C486 C489 1.403 . S
C487 C484 1.403 . S
C487 C488 1.524 . S
C487 C491 1.400 . S
C488 H473 0.960 . S
C488 H474 0.960 . S
C488 H475 0.960 . S
C488 C487 1.524 . S
C489 C486 1.403 . S
C489 C490 1.392 . S
C489 C493 1.495 . S
C490 C489 1.392 . S
C490 C491 1.385 . S
C490 C492 1.478 . S
C491 H485 0.930 . S
C491 C487 1.400 . S
C491 C490 1.385 . S
C492 C490 1.478 . S
C492 C494 1.381 . S
C492 C498 1.383 . S
C493 C489 1.495 . S
C493 H499 0.959 . S
C493 H500 0.961 . S
C493 H501 0.960 . S
C494 C492 1.381 . S
C494 C495 1.394 . S
C494 H502 0.930 . S
C495 C494 1.394 . S
C495 C496 1.383 . S
C495 H503 0.929 . S
C496 C495 1.383 . S
C496 C497 1.377 . S
C497 H481 0.930 . S
C497 C496 1.377 . S
C497 C498 1.379 . S
C498 H482 0.931 . S
C498 C492 1.383 . S
C498 C497 1.379 . S
H499 C493 0.959 . S
H500 C493 0.961 . S
H501 C493 0.960 . S
H502 C494 0.930 . S
H503 C495 0.929 . S
H504 C512 0.929 . S
H505 C514 0.930 . S
H506 C516 0.930 . S
H507 C519 0.929 . S
H508 C522 0.930 . S
H509 C524 0.960 . S
H510 C524 0.960 . S
H511 C524 0.960 . S
C512 H504 0.929 . S
C512 C513 1.377 . S
C512 C514 1.384 . S
C513 C512 1.377 . S
C513 C519 1.390 . S
C514 H505 0.930 . S
C514 C512 1.384 . S
C514 C515 1.372 . S
C515 C514 1.372 . S
C515 C516 1.400 . S
C515 C520 1.490 . S
C516 H506 0.930 . S
C516 C515 1.400 . S
C516 C519 1.386 . S
H517 C533 0.930 . S
H518 C534 0.931 . S
C519 H507 0.929 . S
C519 C513 1.390 . S
C519 C516 1.386 . S
C520 C515 1.490 . S
C520 C522 1.395 . S
C520 C523 1.403 . S
H521 C527 0.930 . S
C522 H508 0.930 . S
C522 C520 1.395 . S
C522 C525 1.403 . S
C523 C520 1.403 . S
C523 C524 1.524 . S
C523 C527 1.400 . S
C524 H509 0.960 . S
C524 H510 0.960 . S
C524 H511 0.960 . S
C524 C523 1.524 . S
C525 C522 1.403 . S
C525 C526 1.392 . S
C525 C529 1.495 . S
C526 C525 1.392 . S
C526 C527 1.385 . S
C526 C528 1.478 . S
C527 H521 0.930 . S
C527 C523 1.400 . S
C527 C526 1.385 . S
C528 C526 1.478 . S
C528 C530 1.381 . S
C528 C534 1.383 . S
C529 C525 1.495 . S
C529 H535 0.959 . S
C529 H536 0.961 . S
C529 H537 0.960 . S
C530 C528 1.381 . S
C530 C531 1.394 . S
C530 H538 0.930 . S
C531 C530 1.394 . S
C531 C532 1.383 . S
C531 H539 0.929 . S
C532 C531 1.383 . S
C532 C533 1.377 . S
C533 H517 0.930 . S
C533 C532 1.377 . S
C533 C534 1.379 . S
C534 H518 0.931 . S
C534 C528 1.383 . S
C534 C533 1.379 . S
H535 C529 0.959 . S
H536 C529 0.961 . S
H537 C529 0.960 . S
H538 C530 0.930 . S
H539 C531 0.929 . S
H540 C548 0.929 . S
H541 C550 0.930 . S
H542 C552 0.930 . S
H543 C555 0.929 . S
H544 C558 0.930 . S
H545 C560 0.960 . S
H546 C560 0.960 . S
H547 C560 0.960 . S
C548 H540 0.929 . S
C548 C549 1.377 . S
C548 C550 1.384 . S
C549 C548 1.377 . S
C549 C555 1.390 . S
C550 H541 0.930 . S
C550 C548 1.384 . S
C550 C551 1.372 . S
C551 C550 1.372 . S
C551 C552 1.400 . S
C551 C556 1.490 . S
C552 H542 0.930 . S
C552 C551 1.400 . S
C552 C555 1.386 . S
H553 C569 0.930 . S
H554 C570 0.931 . S
C555 H543 0.929 . S
C555 C549 1.390 . S
C555 C552 1.386 . S
C556 C551 1.490 . S
C556 C558 1.395 . S
C556 C559 1.403 . S
H557 C563 0.930 . S
C558 H544 0.930 . S
C558 C556 1.395 . S
C558 C561 1.403 . S
C559 C556 1.403 . S
C559 C560 1.524 . S
C559 C563 1.400 . S
C560 H545 0.960 . S
C560 H546 0.960 . S
C560 H547 0.960 . S
C560 C559 1.524 . S
C561 C558 1.403 . S
C561 C562 1.392 . S
C561 C565 1.495 . S
C562 C561 1.392 . S
C562 C563 1.385 . S
C562 C564 1.478 . S
C563 H557 0.930 . S
C563 C559 1.400 . S
C563 C562 1.385 . S
C564 C562 1.478 . S
C564 C566 1.381 . S
C564 C570 1.383 . S
C565 C561 1.495 . S
C565 H571 0.959 . S
C565 H572 0.961 . S
C565 H573 0.960 . S
C566 C564 1.381 . S
C566 C567 1.394 . S
C566 H574 0.930 . S
C567 C566 1.394 . S
C567 C568 1.383 . S
C567 H575 0.929 . S
C568 C567 1.383 . S
C568 C569 1.377 . S
C569 H553 0.930 . S
C569 C568 1.377 . S
C569 C570 1.379 . S
C570 H554 0.931 . S
C570 C564 1.383 . S
C570 C569 1.379 . S
H571 C565 0.959 . S
H572 C565 0.961 . S
H573 C565 0.960 . S
H574 C566 0.930 . S
H575 C567 0.929 . S
H576 C584 0.929 . S
H577 C586 0.930 . S
H578 C588 0.930 . S
H579 C591 0.929 . S
H580 C594 0.930 . S
H581 C596 0.960 . S
H582 C596 0.960 1_556 S
H583 C596 0.960 . S
C584 H576 0.929 . S
C584 C585 1.377 1_556 S
C584 C586 1.384 . S
C585 C584 1.377 1_554 S
C585 C591 1.390 . S
C586 H577 0.930 . S
C586 C584 1.384 . S
C586 C587 1.372 1_556 S
C587 C586 1.372 1_554 S
C587 C588 1.400 . S
C587 C592 1.490 . S
C588 H578 0.930 . S
C588 C587 1.400 . S
C588 C591 1.386 . S
H589 C605 0.930 . S
H590 C606 0.931 . S
C591 H579 0.929 . S
C591 C585 1.390 . S
C591 C588 1.386 . S
C592 C587 1.490 . S
C592 C594 1.395 1_554 S
C592 C595 1.403 . S
H593 C599 0.929 1_554 S
C594 H580 0.930 . S
C594 C592 1.395 1_556 S
C594 C597 1.403 . S
C595 C592 1.403 . S
C595 C596 1.524 . S
C595 C599 1.398 1_554 S
C596 H581 0.960 . S
C596 H582 0.960 1_554 S
C596 H583 0.960 . S
C596 C595 1.524 . S
C597 C594 1.403 . S
C597 C598 1.392 . S
C597 C601 1.495 . S
C598 C597 1.392 . S
C598 C599 1.387 . S
C598 C600 1.478 . S
C599 H593 0.929 1_556 S
C599 C595 1.398 1_556 S
C599 C598 1.387 . S
C600 C598 1.478 . S
C600 C602 1.381 . S
C600 C606 1.383 1_556 S
C601 C597 1.495 . S
C601 H607 0.959 . S
C601 H608 0.935 1_556 S
C601 H609 0.960 . S
C602 C600 1.381 . S
C602 C603 1.394 . S
C602 H610 0.930 . S
C603 C602 1.394 . S
C603 C604 1.383 . S
C603 H611 0.929 . S
C604 C603 1.383 . S
C604 C605 1.377 1_556 S
C605 H589 0.930 . S
C605 C604 1.377 1_554 S
C605 C606 1.379 . S
C606 H590 0.931 . S
C606 C600 1.383 1_554 S
C606 C605 1.379 . S
H607 C601 0.959 . S
H608 C601 0.935 1_554 S
H609 C601 0.960 . S
H610 C602 0.930 . S
H611 C603 0.929 . S
H612 C620 0.929 . S
H613 C622 0.930 . S
H614 C624 0.930 . S
H615 C627 0.929 . S
H616 C630 0.930 . S
H617 C632 0.960 . S
H618 C632 0.960 . S
H619 C632 0.960 . S
C620 H612 0.929 . S
C620 C621 1.377 . S
C620 C622 1.384 . S
C621 C620 1.377 . S
C621 C627 1.390 1_554 S
C622 H613 0.930 . S
C622 C620 1.384 . S
C622 C623 1.372 . S
C623 C622 1.372 . S
C623 C624 1.400 1_554 S
C623 C628 1.490 . S
C624 H614 0.930 . S
C624 C623 1.400 1_556 S
C624 C627 1.386 . S
H625 C641 0.930 . S
H626 C642 0.931 . S
C627 H615 0.929 . S
C627 C621 1.390 1_556 S
C627 C624 1.386 . S
C628 C623 1.490 . S
C628 C630 1.395 1_455 S
C628 C631 1.403 1_554 S
H629 C635 0.930 . S
C630 H616 0.930 . S
C630 C628 1.395 1_655 S
C630 C633 1.403 . S
C631 C628 1.403 1_556 S
C631 C632 1.524 . S
C631 C635 1.400 . S
C632 H617 0.960 . S
C632 H618 0.960 . S
C632 H619 0.960 . S
C632 C631 1.524 . S
C633 C630 1.403 . S
C633 C634 1.375 1_554 S
C633 C637 1.495 . S
C634 C633 1.375 1_556 S
C634 C635 1.398 1_655 S
C634 C636 1.484 . S
C635 H629 0.930 . S
C635 C631 1.400 . S
C635 C634 1.398 1_455 S
C636 C634 1.484 . S
C636 C638 1.381 1_556 S
C636 C642 1.383 . S
C637 C633 1.495 . S
C637 H643 0.959 . S
C637 H644 0.961 . S
C637 H645 0.960 . S
C638 C636 1.381 1_554 S
C638 C639 1.394 . S
C638 H646 0.930 . S
C639 C638 1.394 . S
C639 C640 1.383 1_554 S
C639 H647 0.929 . S
C640 C639 1.383 1_556 S
C640 C641 1.377 . S
C641 H625 0.930 . S
C641 C640 1.377 . S
C641 C642 1.379 . S
C642 H626 0.931 . S
C642 C636 1.383 . S
C642 C641 1.379 . S
H643 C637 0.959 . S
H644 C637 0.961 . S
H645 C637 0.960 . S
H646 C638 0.930 . S
H647 C639 0.929 . S
H648 C656 0.929 . S
H649 C658 0.930 . S
H650 C660 0.930 . S
H651 C663 0.929 . S
H652 C666 0.930 . S
H653 C668 0.960 . S
H654 C668 0.960 . S
H655 C668 0.960 . S
C656 H648 0.929 . S
C656 C657 1.377 . S
C656 C658 1.384 . S
C657 C656 1.377 . S
C657 C663 1.390 . S
C658 H649 0.930 . S
C658 C656 1.384 . S
C658 C659 1.372 . S
C659 C658 1.372 . S
C659 C660 1.400 . S
C659 C664 1.490 . S
C660 H650 0.930 . S
C660 C659 1.400 . S
C660 C663 1.386 . S
H661 C677 0.930 . S
H662 C678 0.931 . S
C663 H651 0.929 . S
C663 C657 1.390 . S
C663 C660 1.386 . S
C664 C659 1.490 . S
C664 C666 1.395 1_565 S
C664 C667 1.403 . S
H665 C671 0.929 1_565 S
C666 H652 0.930 . S
C666 C664 1.395 1_545 S
C666 C669 1.403 . S
C667 C664 1.403 . S
C667 C668 1.524 . S
C667 C671 1.400 1_565 S
C668 H653 0.960 . S
C668 H654 0.960 . S
C668 H655 0.960 . S
C668 C667 1.524 . S
C669 C666 1.403 . S
C669 C670 1.392 . S
C669 C673 1.495 . S
C670 C669 1.392 . S
C670 C671 1.385 . S
C670 C672 1.478 . S
C671 H665 0.929 1_545 S
C671 C667 1.400 1_545 S
C671 C670 1.385 . S
C672 C670 1.478 . S
C672 C674 1.381 . S
C672 C678 1.383 . S
C673 C669 1.495 . S
C673 H679 0.959 . S
C673 H680 0.961 . S
C673 H681 0.960 . S
C674 C672 1.381 . S
C674 C675 1.394 . S
C674 H682 0.930 . S
C675 C674 1.394 . S
C675 C676 1.383 . S
C675 H683 0.929 . S
C676 C675 1.383 . S
C676 C677 1.377 . S
C677 H661 0.930 . S
C677 C676 1.377 . S
C677 C678 1.379 . S
C678 H662 0.931 . S
C678 C672 1.383 . S
C678 C677 1.379 . S
H679 C673 0.959 . S
H680 C673 0.961 . S
H681 C673 0.960 . S
H682 C674 0.930 . S
H683 C675 0.929 . S
H684 C692 0.929 . S
H685 C694 0.930 . S
H686 C696 0.930 . S
H687 C699 0.929 . S
H688 C702 0.930 . S
H689 C704 0.960 . S
H690 C704 0.960 . S
H691 C704 0.960 1_655 S
C692 H684 0.929 . S
C692 C693 1.377 . S
C692 C694 1.384 . S
C693 C692 1.377 . S
C693 C699 1.390 . S
C694 H685 0.930 . S
C694 C692 1.384 . S
C694 C695 1.372 . S
C695 C694 1.372 . S
C695 C696 1.400 . S
C695 C700 1.490 . S
C696 H686 0.930 . S
C696 C695 1.400 . S
C696 C699 1.386 . S
H697 C713 0.930 . S
H698 C714 0.931 . S
C699 H687 0.929 . S
C699 C693 1.390 . S
C699 C696 1.386 . S
C700 C695 1.490 . S
C700 C702 1.395 1_545 S
C700 C703 1.403 1_655 S
H701 C707 0.930 . S
C702 H688 0.930 . S
C702 C700 1.395 1_565 S
C702 C705 1.403 . S
C703 C700 1.403 1_455 S
C703 C704 1.524 . S
C703 C707 1.400 1_545 S
C704 H689 0.960 . S
C704 H690 0.960 . S
C704 H691 0.960 1_455 S
C704 C703 1.524 . S
C705 C702 1.403 . S
C705 C706 1.392 1_655 S
C705 C709 1.495 . S
C706 C705 1.392 1_455 S
C706 C707 1.385 . S
C706 C708 1.478 . S
C707 H701 0.930 . S
C707 C703 1.400 1_565 S
C707 C706 1.385 . S
C708 C706 1.478 . S
C708 C710 1.381 . S
C708 C714 1.383 . S
C709 C705 1.495 . S
C709 H715 0.959 . S
C709 H716 0.961 . S
C709 H717 0.960 1_655 S
C710 C708 1.381 . S
C710 C711 1.394 . S
C710 H718 0.930 . S
C711 C710 1.394 . S
C711 C712 1.383 . S
C711 H719 0.929 . S
C712 C711 1.383 . S
C712 C713 1.377 . S
C713 H697 0.930 . S
C713 C712 1.377 . S
C713 C714 1.379 . S
C714 H698 0.931 . S
C714 C708 1.383 . S
C714 C713 1.379 . S
H715 C709 0.959 . S
H716 C709 0.961 . S
H717 C709 0.960 1_455 S
H718 C710 0.930 . S
H719 C711 0.929 . S
H720 C728 0.929 1_556 S
H721 C730 0.930 1_556 S
H722 C732 0.930 . S
H723 C735 0.929 . S
H724 C738 0.930 . S
H725 C740 0.960 . S
H726 C740 0.960 . S
H727 C740 0.960 . S
C728 H720 0.929 1_554 S
C728 C729 1.377 . S
C728 C730 1.384 . S
C729 C728 1.377 . S
C729 C735 1.390 . S
C730 H721 0.930 1_554 S
C730 C728 1.384 . S
C730 C731 1.372 . S
C731 C730 1.372 . S
C731 C732 1.400 . S
C731 C736 1.490 . S
C732 H722 0.930 . S
C732 C731 1.400 . S
C732 C735 1.386 . S
H733 C749 0.930 . S
H734 C750 0.931 . S
C735 H723 0.929 . S
C735 C729 1.390 . S
C735 C732 1.386 . S
C736 C731 1.490 . S
C736 C738 1.395 . S
C736 C739 1.403 . S
H737 C743 0.930 . S
C738 H724 0.930 . S
C738 C736 1.395 . S
C738 C741 1.403 . S
C739 C736 1.403 . S
C739 C740 1.524 . S
C739 C743 1.400 . S
C740 H725 0.960 . S
C740 H726 0.960 . S
C740 H727 0.960 . S
C740 C739 1.524 . S
C741 C738 1.403 . S
C741 C742 1.392 . S
C741 C745 1.495 1_554 S
C742 C741 1.392 . S
C742 C743 1.385 . S
C742 C744 1.478 . S
C743 H737 0.930 . S
C743 C739 1.400 . S
C743 C742 1.385 . S
C744 C742 1.478 . S
C744 C746 1.381 . S
C744 C750 1.383 . S
C745 C741 1.495 1_556 S
C745 H751 0.959 . S
C745 H752 0.961 1_556 S
C745 H753 0.960 . S
C746 C744 1.381 . S
C746 C747 1.394 . S
C746 H754 0.930 1_554 S
C747 C746 1.394 . S
C747 C748 1.383 . S
C747 H755 0.929 1_554 S
C748 C747 1.383 . S
C748 C749 1.377 . S
C749 H733 0.930 . S
C749 C748 1.377 . S
C749 C750 1.379 . S
C750 H734 0.931 . S
C750 C744 1.383 . S
C750 C749 1.379 . S
H751 C745 0.959 . S
H752 C745 0.961 1_554 S
H753 C745 0.960 . S
H754 C746 0.930 1_556 S
H755 C747 0.929 1_556 S
H756 C764 0.929 . S
H757 C766 0.930 . S
H758 C768 0.930 . S
H759 C771 0.929 . S
H760 C774 0.930 . S
H761 C776 0.954 1_565 S
H762 C776 0.958 1_565 S
H763 C776 0.968 . S
C764 H756 0.929 . S
C764 C765 1.377 . S
C764 C766 1.384 . S
C765 C764 1.377 . S
C765 C771 1.390 . S
C766 H757 0.930 . S
C766 C764 1.384 . S
C766 C767 1.372 . S
C767 C766 1.372 . S
C767 C768 1.400 . S
C767 C772 1.490 . S
C768 H758 0.930 . S
C768 C767 1.400 . S
C768 C771 1.386 . S
H769 C785 0.930 . S
H770 C786 0.931 . S
C771 H759 0.929 . S
C771 C765 1.390 . S
C771 C768 1.386 . S
C772 C767 1.490 . S
C772 C774 1.395 . S
C772 C775 1.403 . S
H773 C779 0.930 . S
C774 H760 0.930 . S
C774 C772 1.395 . S
C774 C777 1.403 1_545 S
C775 C772 1.403 . S
C775 C776 1.524 . S
C775 C779 1.400 1_545 S
C776 H761 0.954 1_545 S
C776 H762 0.958 1_545 S
C776 H763 0.968 . S
C776 C775 1.524 . S
C777 C774 1.403 1_565 S
C777 C778 1.392 . S
C777 C781 1.495 . S
C778 C777 1.392 . S
C778 C779 1.385 . S
C778 C780 1.478 . S
C779 H773 0.930 . S
C779 C775 1.400 1_565 S
C779 C778 1.385 . S
C780 C778 1.478 . S
C780 C782 1.381 . S
C780 C786 1.383 . S
C781 C777 1.495 . S
C781 H787 0.959 1_565 S
C781 H788 0.961 1_565 S
C781 H789 0.960 . S
C782 C780 1.381 . S
C782 C783 1.394 . S
C782 H790 0.930 . S
C783 C782 1.394 . S
C783 C784 1.383 . S
C783 H791 0.929 . S
C784 C783 1.383 . S
C784 C785 1.377 . S
C785 H769 0.930 . S
C785 C784 1.377 . S
C785 C786 1.379 . S
C786 H770 0.931 . S
C786 C780 1.383 . S
C786 C785 1.379 . S
H787 C781 0.959 1_545 S
H788 C781 0.961 1_545 S
H789 C781 0.960 . S
H790 C782 0.930 . S
H791 C783 0.929 . S
H792 C800 0.929 . S
H793 C802 0.930 . S
H794 C804 0.952 . S
H795 C807 0.921 1_554 S
H796 C810 0.930 . S
H797 C812 0.960 . S
H798 C812 0.960 . S
H799 C812 0.960 . S
C800 H792 0.929 . S
C800 C801 1.377 . S
C800 C802 1.384 . S
C801 C800 1.377 . S
C801 C807 1.390 . S
C802 H793 0.930 . S
C802 C800 1.384 . S
C802 C803 1.372 . S
C803 C802 1.372 . S
C803 C804 1.400 . S
C803 C808 1.490 . S
C804 H794 0.952 . S
C804 C803 1.400 . S
C804 C807 1.386 . S
H805 C821 0.930 1_554 S
H806 C822 0.931 1_554 S
C807 H795 0.921 1_556 S
C807 C801 1.390 . S
C807 C804 1.386 . S
C808 C803 1.490 . S
C808 C810 1.395 . S
C808 C811 1.403 . S
H809 C815 0.930 . S
C810 H796 0.930 . S
C810 C808 1.395 . S
C810 C813 1.403 . S
C811 C808 1.403 . S
C811 C812 1.524 . S
C811 C815 1.400 . S
C812 H797 0.960 . S
C812 H798 0.960 . S
C812 H799 0.960 . S
C812 C811 1.524 . S
C813 C810 1.403 . S
C813 C814 1.392 . S
C813 C817 1.495 . S
C814 C813 1.392 . S
C814 C815 1.385 . S
C814 C816 1.478 . S
C815 H809 0.930 . S
C815 C811 1.400 . S
C815 C814 1.385 . S
C816 C814 1.478 . S
C816 C818 1.381 . S
C816 C822 1.383 . S
C817 C813 1.495 . S
C817 H823 0.959 . S
C817 H824 0.997 . S
C817 H825 0.960 . S
C818 C816 1.381 . S
C818 C819 1.394 . S
C818 H826 0.930 . S
C819 C818 1.394 . S
C819 C820 1.383 . S
C819 H827 0.929 . S
C820 C819 1.383 . S
C820 C821 1.377 . S
C821 H805 0.930 1_556 S
C821 C820 1.377 . S
C821 C822 1.379 . S
C822 H806 0.931 1_556 S
C822 C816 1.383 . S
C822 C821 1.379 . S
H823 C817 0.959 . S
H824 C817 0.997 . S
H825 C817 0.960 . S
H826 C818 0.930 . S
H827 C819 0.929 . S
H828 C836 0.929 . S
H829 C838 0.930 . S
H830 C840 0.930 . S
H831 C843 0.929 . S
H832 C846 0.930 . S
H833 C848 0.960 . S
H834 C848 0.960 . S
H835 C848 0.960 . S
C836 H828 0.929 . S
C836 C837 1.377 . S
C836 C838 1.384 . S
C837 C836 1.377 . S
C837 C843 1.390 . S
C838 H829 0.930 . S
C838 C836 1.384 . S
C838 C839 1.372 . S
C839 C838 1.372 . S
C839 C840 1.400 . S
C839 C844 1.490 . S
C840 H830 0.930 . S
C840 C839 1.400 . S
C840 C843 1.386 . S
H841 C857 0.930 . S
H842 C858 0.931 . S
C843 H831 0.929 . S
C843 C837 1.390 . S
C843 C840 1.386 . S
C844 C839 1.490 . S
C844 C846 1.395 1_565 S
C844 C847 1.403 . S
H845 C851 0.930 . S
C846 H832 0.930 . S
C846 C844 1.395 1_545 S
C846 C849 1.403 . S
C847 C844 1.403 . S
C847 C848 1.524 . S
C847 C851 1.382 1_565 S
C848 H833 0.960 . S
C848 H834 0.960 . S
C848 H835 0.960 . S
C848 C847 1.524 . S
C849 C846 1.403 . S
C849 C850 1.392 . S
C849 C853 1.495 . S
C850 C849 1.392 . S
C850 C851 1.403 . S
C850 C852 1.478 . S
C851 H845 0.930 . S
C851 C847 1.382 1_545 S
C851 C850 1.403 . S
C852 C850 1.478 . S
C852 C854 1.381 . S
C852 C858 1.383 . S
C853 C849 1.495 . S
C853 H859 0.959 . S
C853 H860 0.961 . S
C853 H861 0.960 . S
C854 C852 1.381 . S
C854 C855 1.394 . S
C854 H862 0.930 . S
C855 C854 1.394 . S
C855 C856 1.383 . S
C855 H863 0.929 . S
C856 C855 1.383 . S
C856 C857 1.377 . S
C857 H841 0.930 . S
C857 C856 1.377 . S
C857 C858 1.379 . S
C858 H842 0.931 . S
C858 C852 1.383 . S
C858 C857 1.379 . S
H859 C853 0.959 . S
H860 C853 0.961 . S
H861 C853 0.960 . S
H862 C854 0.930 . S
H863 C855 0.929 . S
C297 C4 1.413 . S
C316 C40 1.442 . S
C333 C112 1.417 . S
C352 C76 1.432 . S
C369 C148 1.411 . S
C388 C184 1.384 . S
C405 C220 1.412 . S
C424 C256 1.386 . S
C441 C14 1.500 . S
C460 C86 1.529 . S
C477 C122 1.512 . S
C496 C50 1.477 . S
C513 C158 1.513 . S
C532 C230 1.495 . S
C549 C266 1.507 . S
C568 C194 1.529 . S
C585 C3 1.350 . S
C604 C147 1.358 . S
C621 C39 1.342 . S
C640 C183 1.336 . S
C657 C219 1.343 . S
C676 C75 1.352 . S
C693 C255 1.349 . S
C712 C111 1.364 . S
C729 C38 0.813 . S
C748 C2 0.816 . S
C765 C74 0.813 . S
C784 C110 0.817 . S
C801 C146 0.812 . S
C820 C182 0.816 . S
C837 C218 0.812 . S
C856 C254 0.813 . S
