# Generated by pormake.
# Topology una, (4)-cn, num edge types: 1
# Building blocks:
#     Node 0, Type 0, BuildingBlock: UXUYUI_clean_sbu_0, # of connection points: 4
#     Node 1, Type 0, BuildingBlock: UXUYUI_clean_sbu_0, # of connection points: 4
#     Node 2, Type 0, BuildingBlock: UXUYUI_clean_sbu_0, # of connection points: 4
#     Node 3, Type 0, BuildingBlock: UXUYUI_clean_sbu_0, # of connection points: 4
#     Node 4, Type 0, BuildingBlock: UXUYUI_clean_sbu_0, # of connection points: 4
#     Node 5, Type 0, BuildingBlock: UXUYUI_clean_sbu_0, # of connection points: 4
#     Node 6, Type 0, BuildingBlock: UXUYUI_clean_sbu_0, # of connection points: 4
#     Node 7, Type 0, BuildingBlock: UXUYUI_clean_sbu_0, # of connection points: 4
#     Node 8, Type 0, BuildingBlock: UXUYUI_clean_sbu_0, # of connection points: 4
#     Node 9, Type 0, BuildingBlock: UXUYUI_clean_sbu_0, # of connection points: 4
#     Node 10, Type 0, BuildingBlock: UXUYUI_clean_sbu_0, # of connection points: 4
#     Node 11, Type 0, BuildingBlock: UXUYUI_clean_sbu_0, # of connection points: 4
#     Edge 12, Type (0, 0), BuildingBlock: CIFDUS_clean_linker_0, # of connection points: 2
#     Edge 13, Type (0, 0), BuildingBlock: CIFDUS_clean_linker_0, # of connection points: 2
#     Edge 14, Type (0, 0), BuildingBlock: CIFDUS_clean_linker_0, # of connection points: 2
#     Edge 15, Type (0, 0), BuildingBlock: CIFDUS_clean_linker_0, # of connection points: 2
#     Edge 16, Type (0, 0), BuildingBlock: CIFDUS_clean_linker_0, # of connection points: 2
#     Edge 17, Type (0, 0), BuildingBlock: CIFDUS_clean_linker_0, # of connection points: 2
#     Edge 18, Type (0, 0), BuildingBlock: CIFDUS_clean_linker_0, # of connection points: 2
#     Edge 19, Type (0, 0), BuildingBlock: CIFDUS_clean_linker_0, # of connection points: 2
#     Edge 20, Type (0, 0), BuildingBlock: CIFDUS_clean_linker_0, # of connection points: 2
#     Edge 21, Type (0, 0), BuildingBlock: CIFDUS_clean_linker_0, # of connection points: 2
#     Edge 22, Type (0, 0), BuildingBlock: CIFDUS_clean_linker_0, # of connection points: 2
#     Edge 23, Type (0, 0), BuildingBlock: CIFDUS_clean_linker_0, # of connection points: 2
#     Edge 24, Type (0, 0), BuildingBlock: CIFDUS_clean_linker_0, # of connection points: 2
#     Edge 25, Type (0, 0), BuildingBlock: CIFDUS_clean_linker_0, # of connection points: 2
#     Edge 26, Type (0, 0), BuildingBlock: CIFDUS_clean_linker_0, # of connection points: 2
#     Edge 27, Type (0, 0), BuildingBlock: CIFDUS_clean_linker_0, # of connection points: 2
#     Edge 28, Type (0, 0), BuildingBlock: CIFDUS_clean_linker_0, # of connection points: 2
#     Edge 29, Type (0, 0), BuildingBlock: CIFDUS_clean_linker_0, # of connection points: 2
#     Edge 30, Type (0, 0), BuildingBlock: CIFDUS_clean_linker_0, # of connection points: 2
#     Edge 31, Type (0, 0), BuildingBlock: CIFDUS_clean_linker_0, # of connection points: 2
#     Edge 32, Type (0, 0), BuildingBlock: CIFDUS_clean_linker_0, # of connection points: 2
#     Edge 33, Type (0, 0), BuildingBlock: CIFDUS_clean_linker_0, # of connection points: 2
#     Edge 34, Type (0, 0), BuildingBlock: CIFDUS_clean_linker_0, # of connection points: 2
#     Edge 35, Type (0, 0), BuildingBlock: CIFDUS_clean_linker_0, # of connection points: 2
# Relax obj value: 0.208
# Max RMSD: 0.213
# Mean RMSD: 0.213
data_MOF--net-una--node1-UXUYUI_clean_sbu_0--edge1-CIFDUS_clean_linker_0
_symmetry_space_group_name_H-M    P1
_symmetry_Int_Tables_number       1
_symmetry_cell_setting            triclinic
loop_
_symmetry_equiv_pos_as_xyz
'x, y, z'
_cell_length_a     76.076337
_cell_length_b     76.092648
_cell_length_c     29.604116
_cell_angle_alpha  90.033018
_cell_angle_beta   89.970814
_cell_angle_gamma 119.9998
loop_
_atom_site_label
_atom_site_type_symbol
_atom_site_fract_x
_atom_site_fract_y
_atom_site_fract_z
_atom_type_partial_charge
Li0 Li 0.13279 0.45644 0.04849 0.0
Li1 Li 0.1363 0.4278 0.0746 0.0
Li2 Li 0.1457 0.43888 0.99938 0.0
Li3 Li 0.11042 0.42235 0.0216 0.0
C4 C 0.17672 0.46898 0.03976 0.0
N5 N 0.2143 0.49674 0.00524 0.0
C6 C 0.19416 0.46899 0.05463 0.0
C7 C 0.17843 0.4832 0.00756 0.0
C8 C 0.21301 0.48312 0.03671 0.0
C9 C 0.19755 0.49707 0.99047 0.0
C10 C 0.11223 0.43822 0.12752 0.0
C11 C 0.09349 0.43682 0.19445 0.0
N12 N 0.11115 0.45024 0.21509 0.0
C13 C 0.13021 0.45204 0.14938 0.0
C14 C 0.09372 0.43058 0.15017 0.0
C15 C 0.12934 0.45791 0.19365 0.0
C16 C 0.11677 0.4821 0.06414 0.0
N17 N 0.13417 0.48123 0.06527 0.0
C18 C 0.1527 0.51516 0.09338 0.0
C19 C 0.15189 0.49718 0.08006 0.0
C20 C 0.13499 0.51663 0.0925 0.0
C21 C 0.11681 0.4997 0.07775 0.0
H22 H 0.10278 0.46897 0.05327 0.0
H23 H 0.16539 0.49594 0.08198 0.0
C24 C 0.1628 0.41826 0.11652 0.0
N25 N 0.14477 0.41744 0.12353 0.0
C26 C 0.17204 0.41343 0.15118 0.0
C27 C 0.14329 0.40564 0.199 0.0
C28 C 0.13458 0.41064 0.16325 0.0
C29 C 0.16253 0.40752 0.19354 0.0
H30 H 0.17025 0.42319 0.08413 0.0
H31 H 0.11997 0.40954 0.16765 0.0
C32 C 0.1141 0.44413 0.94811 0.0
N33 N 0.08851 0.43508 0.87485 0.0
C34 C 0.11273 0.4301 0.91577 0.0
C35 C 0.1026 0.45368 0.94303 0.0
C36 C 0.09966 0.4257 0.87902 0.0
C37 C 0.08973 0.44888 0.90578 0.0
C38 C 0.1234 0.39237 0.03806 0.0
C39 C 0.13563 0.38375 0.03081 0.0
C40 C 0.10634 0.3825 0.06597 0.0
C41 C 0.13064 0.3654 0.05182 0.0
C42 C 0.10187 0.36417 0.08635 0.0
N43 N 0.11401 0.35608 0.07894 0.0
C44 C 0.17609 0.43363 0.96044 0.0
C45 C 0.16689 0.45376 0.91629 0.0
C46 C 0.19042 0.4357 0.92838 0.0
N47 N 0.16456 0.44241 0.95361 0.0
C48 C 0.18121 0.45642 0.8835 0.0
C49 C 0.19313 0.44719 0.88914 0.0
H50 H 0.17415 0.42505 0.99095 0.0
H51 H 0.15777 0.46091 0.91226 0.0
C52 C 0.0704 0.41255 0.00308 0.0
N53 N 0.08362 0.40554 0.99934 0.0
C54 C 0.05177 0.40269 0.98072 0.0
C55 C 0.06021 0.3779 0.95324 0.0
C56 C 0.07884 0.38844 0.97557 0.0
C57 C 0.04652 0.38524 0.95475 0.0
H58 H 0.07481 0.42641 0.02157 0.0
H59 H 0.08979 0.38339 0.97256 0.0
O60 O 0.15801 0.45491 0.05586 0.0
O61 O 0.11253 0.43227 0.08402 0.0
O62 O 0.12627 0.4481 0.98511 0.0
O63 O 0.12832 0.41063 0.01896 0.0
H64 H 0.19322 0.45829 0.07984 0.0
H65 H 0.16507 0.48334 0.99546 0.0
H66 H 0.22663 0.48327 0.04784 0.0
H67 H 0.19906 0.50806 0.96533 0.0
H68 H 0.07926 0.431 0.2124 0.0
H69 H 0.1447 0.45814 0.13257 0.0
H70 H 0.07967 0.41992 0.13365 0.0
H71 H 0.14313 0.46856 0.21098 0.0
H72 H 0.16712 0.52779 0.104 0.0
H73 H 0.10268 0.49989 0.07741 0.0
H74 H 0.1869 0.41521 0.14535 0.0
H75 H 0.13523 0.40075 0.23081 0.0
H76 H 0.12141 0.42245 0.91945 0.0
H77 H 0.10349 0.46456 0.9678 0.0
H78 H 0.09831 0.41474 0.85394 0.0
H79 H 0.08065 0.45606 0.90153 0.0
H80 H 0.14887 0.39116 0.0093 0.0
H81 H 0.09682 0.38906 0.07228 0.0
H82 H 0.14 0.35858 0.04661 0.0
H83 H 0.08878 0.35642 0.1082 0.0
H84 H 0.19904 0.4281 0.93404 0.0
H85 H 0.18303 0.46574 0.85429 0.0
H86 H 0.042 0.40923 0.98232 0.0
H87 H 0.05678 0.36436 0.93438 0.0
Li88 Li 0.67818 0.13193 0.2225 0.0
Li89 Li 0.71003 0.13502 0.25412 0.0
Li90 Li 0.70899 0.14533 0.17904 0.0
Li91 Li 0.69123 0.11027 0.19537 0.0
C92 C 0.71343 0.17669 0.22349 0.0
N93 N 0.73225 0.21683 0.19669 0.0
C94 C 0.73221 0.19079 0.24178 0.0
C95 C 0.70415 0.18305 0.19183 0.0
C96 C 0.7415 0.21101 0.22773 0.0
C97 C 0.71392 0.20339 0.17864 0.0
C98 C 0.67369 0.10874 0.29989 0.0
C99 C 0.65677 0.08776 0.36454 0.0
N100 N 0.65711 0.1039 0.38519 0.0
C101 C 0.67387 0.12514 0.32175 0.0
C102 C 0.66503 0.08989 0.32137 0.0
C103 C 0.6654 0.12237 0.36486 0.0
C104 C 0.63661 0.11338 0.24018 0.0
N105 N 0.65361 0.13184 0.23554 0.0
C106 C 0.63494 0.14862 0.25249 0.0
C107 C 0.65316 0.14932 0.24173 0.0
C108 C 0.61724 0.12977 0.25802 0.0
C109 C 0.61817 0.11197 0.25193 0.0
H110 H 0.63747 0.09973 0.23537 0.0
H111 H 0.66695 0.1638 0.23901 0.0
C112 C 0.74785 0.15606 0.29352 0.0
N113 N 0.72823 0.14266 0.30448 0.0
C114 C 0.76247 0.16541 0.3272 0.0
C115 C 0.73673 0.1462 0.38298 0.0
C116 C 0.72263 0.13704 0.34812 0.0
C117 C 0.75681 0.16099 0.37268 0.0
H118 H 0.75193 0.16021 0.25855 0.0
H119 H 0.70717 0.12597 0.35631 0.0
C120 C 0.67999 0.12043 0.11509 0.0
N121 N 0.67687 0.10876 0.02571 0.0
C122 C 0.69602 0.11956 0.09413 0.0
C123 C 0.66238 0.11533 0.09064 0.0
C124 C 0.69415 0.11364 0.04891 0.0
C125 C 0.66109 0.10948 0.04546 0.0
C126 C 0.73034 0.11836 0.21169 0.0
C127 C 0.74861 0.12263 0.19124 0.0
C128 C 0.72184 0.10335 0.24498 0.0
C129 C 0.75807 0.11173 0.20431 0.0
C130 C 0.73177 0.0928 0.25711 0.0
N131 N 0.74952 0.09717 0.23669 0.0
C132 C 0.74605 0.17245 0.14054 0.0
C133 C 0.71815 0.17018 0.09977 0.0
C134 C 0.75964 0.18589 0.10879 0.0
N135 N 0.72578 0.16475 0.13522 0.0
C136 C 0.73122 0.18368 0.06725 0.0
C137 C 0.75224 0.19147 0.07127 0.0
H138 H 0.75163 0.16791 0.16927 0.0
H139 H 0.70194 0.16384 0.09647 0.0
C140 C 0.66114 0.07313 0.16404 0.0
N141 N 0.68165 0.08427 0.16844 0.0
C142 C 0.65236 0.05619 0.13577 0.0
C143 C 0.68587 0.06176 0.11907 0.0
C144 C 0.69406 0.07882 0.14716 0.0
C145 C 0.66482 0.05062 0.11212 0.0
H146 H 0.6517 0.07815 0.18041 0.0
H147 H 0.71033 0.0883 0.14957 0.0
O148 O 0.70425 0.15674 0.23621 0.0
O149 O 0.68135 0.11082 0.25716 0.0
O150 O 0.68118 0.12564 0.1597 0.0
O151 O 0.72108 0.12908 0.1992 0.0
H152 H 0.73954 0.18622 0.26663 0.0
H153 H 0.68977 0.17227 0.17677 0.0
H154 H 0.75606 0.22207 0.24153 0.0
H155 H 0.70699 0.20847 0.15384 0.0
H156 H 0.65004 0.07325 0.38158 0.0
H157 H 0.68056 0.13988 0.30587 0.0
H158 H 0.66467 0.07704 0.30477 0.0
H159 H 0.66546 0.13492 0.38218 0.0
H160 H 0.63477 0.16264 0.2575 0.0
H161 H 0.60476 0.09718 0.25591 0.0
H162 H 0.77776 0.17681 0.31783 0.0
H163 H 0.73187 0.14217 0.41769 0.0
H164 H 0.70971 0.12327 0.11258 0.0
H165 H 0.64979 0.11579 0.10651 0.0
H166 H 0.70641 0.11286 0.0323 0.0
H167 H 0.64753 0.10547 0.02613 0.0
H168 H 0.7554 0.13423 0.16549 0.0
H169 H 0.70776 0.09982 0.26134 0.0
H170 H 0.7722 0.11486 0.18872 0.0
H171 H 0.72536 0.08114 0.28278 0.0
H172 H 0.77575 0.19177 0.11339 0.0
H173 H 0.72492 0.1875 0.03861 0.0
H174 H 0.63604 0.04791 0.13132 0.0
H175 H 0.69596 0.05807 0.1009 0.0
Li176 Li 0.56866 0.70663 0.41526 0.0
Li177 Li 0.54006 0.67315 0.38931 0.0
Li178 Li 0.5751 0.68549 0.36252 0.0
Li179 Li 0.55697 0.70175 0.33966 0.0
C180 C 0.56132 0.67117 0.46817 0.0
N181 N 0.55395 0.65537 0.55456 0.0
C182 C 0.5448 0.66934 0.49275 0.0
C183 C 0.57402 0.66487 0.48736 0.0
C184 C 0.54134 0.66133 0.53641 0.0
C185 C 0.57008 0.65697 0.53115 0.0
C186 C 0.52999 0.70764 0.3792 0.0
C187 C 0.50111 0.70431 0.33808 0.0
N188 N 0.5082 0.7245 0.34363 0.0
C189 C 0.53693 0.72833 0.3847 0.0
C190 C 0.51191 0.69549 0.35583 0.0
C191 C 0.52572 0.73658 0.36638 0.0
C192 C 0.58751 0.74634 0.44637 0.0
N193 N 0.57863 0.72693 0.46181 0.0
C194 C 0.57968 0.73837 0.53758 0.0
C195 C 0.57515 0.72277 0.50665 0.0
C196 C 0.58796 0.75848 0.52227 0.0
C197 C 0.59246 0.7624 0.47608 0.0
H198 H 0.58991 0.7493 0.41052 0.0
H199 H 0.56808 0.70735 0.51847 0.0
C200 C 0.51322 0.63118 0.39326 0.0
N201 N 0.51529 0.64946 0.40419 0.0
C202 C 0.495 0.61332 0.40196 0.0
C203 C 0.48148 0.6335 0.43323 0.0
C204 C 0.49997 0.65095 0.42406 0.0
C205 C 0.47877 0.61436 0.42192 0.0
H206 H 0.52567 0.63052 0.37729 0.0
H207 H 0.50211 0.66571 0.43264 0.0
C208 C 0.60558 0.72537 0.37162 0.0
N209 N 0.64606 0.74593 0.39611 0.0
C210 C 0.61956 0.74226 0.34687 0.0
C211 C 0.61219 0.71897 0.40893 0.0
C212 C 0.63996 0.75244 0.35976 0.0
C213 C 0.63271 0.72956 0.42074 0.0
C214 C 0.5532 0.67032 0.28378 0.0
C215 C 0.56984 0.68549 0.26031 0.0
C216 C 0.5408 0.6516 0.2631 0.0
C217 C 0.57377 0.68163 0.21642 0.0
C218 C 0.54523 0.64833 0.21913 0.0
N219 N 0.56149 0.66329 0.19691 0.0
C220 C 0.58242 0.65456 0.33862 0.0
C221 C 0.60984 0.68702 0.31946 0.0
C222 C 0.59086 0.64511 0.31337 0.0
N223 N 0.59173 0.67514 0.34035 0.0
C224 C 0.619 0.67818 0.29449 0.0
C225 C 0.60915 0.657 0.29012 0.0
H226 H 0.56777 0.64552 0.35456 0.0
H227 H 0.61663 0.70331 0.31962 0.0
C228 C 0.5658 0.7356 0.28722 0.0
N229 N 0.55285 0.71532 0.29072 0.0
C230 C 0.56391 0.74649 0.2516 0.0
C231 C 0.53525 0.71541 0.22408 0.0
C232 C 0.53774 0.7051 0.26025 0.0
C233 C 0.54851 0.73639 0.21934 0.0
H234 H 0.57766 0.74326 0.31207 0.0
H235 H 0.52762 0.68895 0.2641 0.0
O236 O 0.56471 0.67841 0.42491 0.0
O237 O 0.54102 0.69938 0.39583 0.0
O238 O 0.58557 0.71541 0.35923 0.0
O239 O 0.54933 0.67347 0.32729 0.0
H240 H 0.53499 0.6744 0.47861 0.0
H241 H 0.58678 0.66605 0.46855 0.0
H242 H 0.52867 0.65992 0.55593 0.0
H243 H 0.57981 0.65206 0.54648 0.0
H244 H 0.48718 0.69512 0.31964 0.0
H245 H 0.5509 0.73796 0.40258 0.0
H246 H 0.50646 0.6795 0.35071 0.0
H247 H 0.53096 0.75259 0.37018 0.0
H248 H 0.57572 0.7345 0.57274 0.0
H249 H 0.59916 0.77765 0.4627 0.0
H250 H 0.49348 0.5989 0.39227 0.0
H251 H 0.46946 0.63496 0.44921 0.0
H252 H 0.61469 0.74743 0.31794 0.0
H253 H 0.60167 0.70601 0.42867 0.0
H254 H 0.65094 0.76552 0.34086 0.0
H255 H 0.63803 0.72476 0.4495 0.0
H256 H 0.57973 0.70002 0.27588 0.0
H257 H 0.52794 0.63967 0.28096 0.0
H258 H 0.58662 0.6932 0.19792 0.0
H259 H 0.53578 0.63389 0.20272 0.0
H260 H 0.58284 0.62871 0.3108 0.0
H261 H 0.63297 0.68784 0.27645 0.0
H262 H 0.57466 0.76258 0.24889 0.0
H263 H 0.52304 0.70709 0.20027 0.0
Li264 Li 0.86859 0.54695 0.5569 0.0
Li265 Li 0.86228 0.5743 0.5748 0.0
Li266 Li 0.85422 0.55974 0.5002 0.0
Li267 Li 0.89057 0.5822 0.52325 0.0
C268 C 0.82804 0.52941 0.57961 0.0
N269 N 0.79922 0.49511 0.62418 0.0
C270 C 0.82336 0.5306 0.6248 0.0
C271 C 0.81805 0.51077 0.55712 0.0
C272 C 0.80873 0.51309 0.64671 0.0
C273 C 0.80354 0.4936 0.58025 0.0
C274 C 0.89264 0.57719 0.63187 0.0
C275 C 0.91402 0.59968 0.69057 0.0
N276 N 0.90301 0.58523 0.72193 0.0
C277 C 0.88156 0.56255 0.6646 0.0
C278 C 0.90902 0.59589 0.64481 0.0
C279 C 0.88703 0.56691 0.71 0.0
C280 C 0.88501 0.52151 0.55438 0.0
N281 N 0.87051 0.52391 0.57575 0.0
C282 C 0.86016 0.49363 0.61848 0.0
C283 C 0.85844 0.51058 0.60799 0.0
C284 C 0.87477 0.49064 0.59639 0.0
C285 C 0.88749 0.50495 0.56437 0.0
H286 H 0.89459 0.53244 0.52925 0.0
H287 H 0.84748 0.513 0.62576 0.0
C288 C 0.83201 0.58084 0.60268 0.0
N289 N 0.85018 0.58394 0.61792 0.0
C290 C 0.81947 0.58457 0.63043 0.0
C291 C 0.84451 0.59476 0.68965 0.0
C292 C 0.85688 0.59132 0.66014 0.0
C293 C 0.82525 0.59092 0.67524 0.0
H294 H 0.82698 0.57484 0.56907 0.0
H295 H 0.8714 0.59389 0.67171 0.0
C296 C 0.87336 0.54436 0.45395 0.0
N297 N 0.8644 0.5233 0.37339 0.0
C298 C 0.88261 0.5545 0.41393 0.0
C299 C 0.85964 0.52351 0.45311 0.0
C300 C 0.87786 0.54358 0.37351 0.0
C301 C 0.85528 0.51313 0.41201 0.0
C302 C 0.86694 0.60538 0.52463 0.0
C303 C 0.85126 0.60723 0.5049 0.0
C304 C 0.88014 0.62009 0.55514 0.0
C305 C 0.84898 0.6238 0.51629 0.0
C306 C 0.87733 0.63642 0.56567 0.0
N307 N 0.86194 0.63791 0.5462 0.0
C308 C 0.81612 0.53979 0.45687 0.0
C309 C 0.84333 0.56405 0.41219 0.0
C310 C 0.80233 0.53644 0.42235 0.0
N311 N 0.83615 0.55341 0.45119 0.0
C312 C 0.83008 0.56119 0.37676 0.0
C313 C 0.80923 0.54742 0.38186 0.0
H314 H 0.81074 0.53199 0.48868 0.0
H315 H 0.85926 0.57523 0.40921 0.0
C316 C 0.92622 0.59011 0.48146 0.0
N317 N 0.91663 0.59967 0.49844 0.0
C318 C 0.94382 0.60079 0.45576 0.0
C319 C 0.94208 0.63131 0.46766 0.0
C320 C 0.92427 0.61992 0.4926 0.0
C321 C 0.95189 0.62167 0.44788 0.0
H322 H 0.91964 0.57393 0.48612 0.0
H323 H 0.91621 0.62712 0.50597 0.0
O324 O 0.84219 0.54642 0.55739 0.0
O325 O 0.88767 0.57318 0.58727 0.0
O326 O 0.87753 0.55483 0.49373 0.0
O327 O 0.86913 0.58904 0.51469 0.0
H328 H 0.83104 0.5448 0.64301 0.0
H329 H 0.82152 0.50953 0.52223 0.0
H330 H 0.80499 0.51379 0.68168 0.0
H331 H 0.79574 0.47907 0.56328 0.0
H332 H 0.92665 0.61409 0.70114 0.0
H333 H 0.86876 0.54807 0.65511 0.0
H334 H 0.91775 0.60735 0.61976 0.0
H335 H 0.87855 0.55576 0.73575 0.0
H336 H 0.8503 0.48305 0.64393 0.0
H337 H 0.89892 0.50311 0.54663 0.0
H338 H 0.80511 0.58195 0.61706 0.0
H339 H 0.84968 0.59954 0.72389 0.0
H340 H 0.89319 0.57067 0.414 0.0
H341 H 0.85241 0.51544 0.48384 0.0
H342 H 0.88482 0.55124 0.34221 0.0
H343 H 0.84465 0.49699 0.41082 0.0
H344 H 0.84089 0.5959 0.48134 0.0
H345 H 0.8922 0.61871 0.57107 0.0
H346 H 0.83687 0.62541 0.50144 0.0
H347 H 0.88734 0.64785 0.58946 0.0
H348 H 0.78639 0.52565 0.42761 0.0
H349 H 0.83598 0.57028 0.34648 0.0
H350 H 0.95044 0.59249 0.44064 0.0
H351 H 0.94785 0.6474 0.46321 0.0
Li352 Li 0.29133 0.86372 0.73473 0.0
Li353 Li 0.32435 0.86888 0.71491 0.0
Li354 Li 0.31036 0.88994 0.67931 0.0
Li355 Li 0.29624 0.85396 0.66223 0.0
C356 C 0.31675 0.89229 0.78861 0.0
N357 N 0.31258 0.89759 0.87952 0.0
C358 C 0.3241 0.8842 0.82092 0.0
C359 C 0.30746 0.90326 0.8025 0.0
C360 C 0.32181 0.887 0.86673 0.0
C361 C 0.30544 0.90571 0.84863 0.0
C362 C 0.28247 0.82359 0.726 0.0
C363 C 0.26804 0.7889 0.75095 0.0
N364 N 0.24931 0.78529 0.73852 0.0
C365 C 0.26306 0.8195 0.71345 0.0
C366 C 0.28499 0.80816 0.7449 0.0
C367 C 0.24651 0.80006 0.72006 0.0
C368 C 0.25562 0.8566 0.78661 0.0
N369 N 0.27249 0.85472 0.78491 0.0
C370 C 0.26176 0.83388 0.8511 0.0
C371 C 0.27595 0.84402 0.81701 0.0
C372 C 0.24375 0.83475 0.8524 0.0
C373 C 0.24101 0.8467 0.82017 0.0
H374 H 0.253 0.86517 0.76137 0.0
H375 H 0.28937 0.8426 0.81495 0.0
C376 C 0.36642 0.88688 0.72102 0.0
N377 N 0.34876 0.86992 0.73208 0.0
C378 C 0.38498 0.88803 0.72996 0.0
C379 C 0.36677 0.85432 0.76202 0.0
C380 C 0.34855 0.85382 0.75245 0.0
C381 C 0.38532 0.87153 0.75035 0.0
H382 H 0.36604 0.89939 0.70466 0.0
H383 H 0.33423 0.8405 0.76054 0.0
C384 C 0.2669 0.87354 0.67691 0.0
N385 N 0.23668 0.88361 0.67739 0.0
C386 C 0.24768 0.86 0.65968 0.0
C387 C 0.2708 0.89229 0.69402 0.0
C388 C 0.23258 0.86534 0.66037 0.0
C389 C 0.25532 0.89708 0.69403 0.0
C390 C 0.32867 0.87028 0.61161 0.0
C391 C 0.32615 0.87772 0.57043 0.0
C392 C 0.33506 0.85597 0.61215 0.0
C393 C 0.32999 0.87058 0.53026 0.0
C394 C 0.33874 0.84922 0.57124 0.0
N395 N 0.33614 0.85659 0.53149 0.0
C396 C 0.33491 0.93227 0.66481 0.0
C397 C 0.30701 0.91506 0.61489 0.0
C398 C 0.34179 0.95031 0.6406 0.0
N399 N 0.3179 0.91513 0.65134 0.0
C400 C 0.31319 0.93278 0.59006 0.0
C401 C 0.33097 0.95063 0.60242 0.0
H402 H 0.34342 0.93175 0.69354 0.0
H403 H 0.29382 0.90106 0.60431 0.0
C404 C 0.28316 0.81722 0.61174 0.0
N405 N 0.28423 0.83559 0.61366 0.0
C406 C 0.27268 0.80381 0.57648 0.0
C407 C 0.26567 0.82899 0.54495 0.0
C408 C 0.27603 0.84175 0.58096 0.0
C409 C 0.26345 0.80952 0.5429 0.0
H410 H 0.29006 0.81283 0.63802 0.0
H411 H 0.27739 0.85657 0.58322 0.0
O412 O 0.31842 0.88925 0.74365 0.0
O413 O 0.29897 0.84259 0.72037 0.0
O414 O 0.28189 0.86862 0.67574 0.0
O415 O 0.32441 0.87661 0.65123 0.0
H416 H 0.33127 0.87562 0.81075 0.0
H417 H 0.30181 0.90974 0.77799 0.0
H418 H 0.3273 0.8807 0.89211 0.0
H419 H 0.29819 0.91407 0.85988 0.0
H420 H 0.26979 0.77684 0.76556 0.0
H421 H 0.26073 0.83117 0.69889 0.0
H422 H 0.29987 0.81103 0.75487 0.0
H423 H 0.23142 0.79672 0.71054 0.0
H424 H 0.26446 0.82469 0.87489 0.0
H425 H 0.2275 0.84806 0.82032 0.0
H426 H 0.3989 0.9017 0.72096 0.0
H427 H 0.36631 0.84116 0.77729 0.0
H428 H 0.24446 0.8455 0.64591 0.0
H429 H 0.28559 0.90299 0.70723 0.0
H430 H 0.21762 0.85498 0.64729 0.0
H431 H 0.25811 0.91151 0.70727 0.0
H432 H 0.32111 0.88873 0.56952 0.0
H433 H 0.33693 0.84998 0.6438 0.0
H434 H 0.32802 0.87611 0.49809 0.0
H435 H 0.3436 0.83807 0.57109 0.0
H436 H 0.35553 0.9638 0.65126 0.0
H437 H 0.30461 0.93233 0.56046 0.0
H438 H 0.2713 0.78894 0.57632 0.0
H439 H 0.2593 0.83428 0.51922 0.0
Li440 Li 0.45662 0.32775 0.88414 0.0
Li441 Li 0.42978 0.29537 0.91647 0.0
Li442 Li 0.4437 0.29688 0.84079 0.0
Li443 Li 0.42168 0.31118 0.85487 0.0
C444 C 0.4696 0.29437 0.89535 0.0
N445 N 0.492 0.27521 0.8835 0.0
C446 C 0.46371 0.27586 0.91672 0.0
C447 C 0.48701 0.30324 0.86836 0.0
C448 C 0.47521 0.2664 0.91023 0.0
C449 C 0.49809 0.29328 0.86265 0.0
C450 C 0.42586 0.32544 0.95735 0.0
C451 C 0.40024 0.31761 0.01411 0.0
N452 N 0.41476 0.33106 0.04264 0.0
C453 C 0.44052 0.33929 0.98709 0.0
C454 C 0.40554 0.3146 0.97078 0.0
C455 C 0.4346 0.34188 0.03012 0.0
C456 C 0.47969 0.37059 0.89089 0.0
N457 N 0.47985 0.35308 0.89865 0.0
C458 C 0.51339 0.37152 0.92895 0.0
C459 C 0.49615 0.35319 0.91767 0.0
C460 C 0.51396 0.38998 0.92022 0.0
C461 C 0.49673 0.38929 0.90088 0.0
H462 H 0.46631 0.37004 0.87681 0.0
H463 H 0.49569 0.33902 0.92453 0.0
C464 C 0.40987 0.25856 0.96422 0.0
N465 N 0.42132 0.27902 0.96931 0.0
C466 C 0.40747 0.24565 0.00021 0.0
C467 C 0.42734 0.27517 0.04682 0.0
C468 C 0.42977 0.28746 0.00972 0.0
C469 C 0.41684 0.25393 0.04191 0.0
H470 H 0.40383 0.25224 0.93133 0.0
H471 H 0.43941 0.30369 0.01258 0.0
C472 C 0.45969 0.34113 0.79958 0.0
N473 N 0.48497 0.37842 0.76043 0.0
C474 C 0.45238 0.35428 0.7895 0.0
C475 C 0.47981 0.3469 0.78942 0.0
C476 C 0.46541 0.37307 0.76975 0.0
C477 C 0.49236 0.36583 0.76977 0.0
C478 C 0.39592 0.27153 0.84384 0.0
C479 C 0.39295 0.26444 0.79937 0.0
C480 C 0.37923 0.26763 0.87059 0.0
C481 C 0.37323 0.25376 0.78215 0.0
C482 C 0.35975 0.2569 0.85213 0.0
N483 N 0.35718 0.25026 0.80865 0.0
C484 C 0.44383 0.26227 0.80817 0.0
C485 C 0.4581 0.29037 0.75816 0.0
C486 C 0.44668 0.25033 0.77649 0.0
N487 N 0.44954 0.28186 0.79845 0.0
C488 C 0.46106 0.27894 0.72534 0.0
C489 C 0.45513 0.25859 0.73422 0.0
H490 H 0.43665 0.2558 0.84018 0.0
H491 H 0.46217 0.30588 0.75109 0.0
C492 C 0.3957 0.32773 0.8502 0.0
N493 N 0.40237 0.31664 0.82754 0.0
C494 C 0.3846 0.33511 0.82761 0.0
C495 C 0.38674 0.31879 0.75938 0.0
C496 C 0.39795 0.31189 0.78317 0.0
C497 C 0.38039 0.33103 0.78134 0.0
H498 H 0.39985 0.3317 0.88518 0.0
H499 H 0.40408 0.30368 0.76563 0.0
O500 O 0.45832 0.30369 0.90054 0.0
O501 O 0.43135 0.32272 0.9151 0.0
O502 O 0.44723 0.32273 0.81931 0.0
O503 O 0.4151 0.28215 0.86117 0.0
H504 H 0.45033 0.2688 0.93784 0.0
H505 H 0.49182 0.31759 0.85174 0.0
H506 H 0.47077 0.25202 0.92637 0.0
H507 H 0.51151 0.29991 0.84161 0.0
H508 H 0.38459 0.30926 0.02504 0.0
H509 H 0.4563 0.34785 0.97717 0.0
H510 H 0.39401 0.30396 0.948 0.0
H511 H 0.44578 0.35248 0.05358 0.0
H512 H 0.526 0.37116 0.9449 0.0
H513 H 0.49642 0.40303 0.89308 0.0
H514 H 0.39948 0.22944 0.99442 0.0
H515 H 0.43449 0.28232 0.07844 0.0
H516 H 0.4369 0.35015 0.79721 0.0
H517 H 0.48571 0.33692 0.79692 0.0
H518 H 0.45998 0.38343 0.76197 0.0
H519 H 0.508 0.37053 0.76198 0.0
H520 H 0.40575 0.26731 0.77831 0.0
H521 H 0.3813 0.27283 0.90522 0.0
H522 H 0.37069 0.24828 0.74771 0.0
H523 H 0.34668 0.25382 0.87237 0.0
H524 H 0.44164 0.23461 0.78433 0.0
H525 H 0.46768 0.28586 0.69317 0.0
H526 H 0.37992 0.34445 0.84575 0.0
H527 H 0.38413 0.3156 0.72358 0.0
Li528 Li 0.58098 0.89084 0.88264 0.0
Li529 Li 0.56037 0.85492 0.9092 0.0
Li530 Li 0.57108 0.86199 0.83197 0.0
Li531 Li 0.54455 0.86762 0.85848 0.0
C532 C 0.60304 0.86527 0.87372 0.0
N533 N 0.63116 0.8552 0.84301 0.0
C534 C 0.60141 0.84679 0.88608 0.0
C535 C 0.61902 0.87869 0.84599 0.0
C536 C 0.61577 0.84197 0.87014 0.0
C537 C 0.63307 0.8733 0.83075 0.0
C538 C 0.55109 0.87549 0.96473 0.0
C539 C 0.52825 0.8574 0.0261 0.0
N540 N 0.54283 0.86951 0.05616 0.0
C541 C 0.56585 0.88775 0.99626 0.0
C542 C 0.53212 0.8602 0.97976 0.0
C543 C 0.56137 0.8845 0.04232 0.0
C544 C 0.59076 0.9287 0.91533 0.0
N545 N 0.59929 0.91739 0.90346 0.0
C546 C 0.63094 0.94178 0.93612 0.0
C547 C 0.61906 0.92365 0.91266 0.0
C548 C 0.62225 0.95331 0.95116 0.0
C549 C 0.60194 0.94668 0.93952 0.0
H550 H 0.57486 0.92306 0.9084 0.0
H551 H 0.62535 0.91417 0.90354 0.0
C552 C 0.54097 0.81879 0.96136 0.0
N553 N 0.5569 0.83806 0.95928 0.0
C554 C 0.53858 0.80664 0.99877 0.0
C555 C 0.56913 0.8344 0.03082 0.0
C556 C 0.57099 0.84593 0.99269 0.0
C557 C 0.55275 0.81448 0.03417 0.0
H558 H 0.53017 0.81285 0.93396 0.0
H559 H 0.58368 0.86121 0.98963 0.0
C560 C 0.57747 0.89458 0.78079 0.0
N561 N 0.59533 0.91107 0.69864 0.0
C562 C 0.5666 0.88675 0.74072 0.0
C563 C 0.59738 0.91086 0.77914 0.0
C564 C 0.57592 0.89527 0.6995 0.0
C565 C 0.60615 0.91897 0.73725 0.0
C566 C 0.52585 0.82945 0.83552 0.0
C567 C 0.52454 0.82585 0.78898 0.0
C568 C 0.50814 0.82101 0.8615 0.0
C569 C 0.5055 0.81381 0.76924 0.0
C570 C 0.48938 0.80912 0.84046 0.0
N571 N 0.48847 0.80579 0.79516 0.0
C572 C 0.57281 0.83025 0.79257 0.0
C573 C 0.59177 0.86002 0.749 0.0
C574 C 0.57747 0.81903 0.76267 0.0
N575 N 0.57969 0.85029 0.78511 0.0
C576 C 0.59657 0.84925 0.71769 0.0
C577 C 0.58931 0.82846 0.72439 0.0
H578 H 0.5636 0.82292 0.82198 0.0
H579 H 0.59788 0.87608 0.7445 0.0
C580 C 0.51103 0.87244 0.87912 0.0
N581 N 0.51994 0.86764 0.84519 0.0
C582 C 0.49271 0.87203 0.87188 0.0
C583 C 0.49328 0.86234 0.7944 0.0
C584 C 0.51163 0.86296 0.80317 0.0
C585 C 0.48351 0.86678 0.82913 0.0
H586 H 0.51817 0.87667 0.91187 0.0
H587 H 0.51909 0.85947 0.77654 0.0
O588 O 0.58879 0.86999 0.88787 0.0
O589 O 0.55534 0.87807 0.91947 0.0
O590 O 0.56852 0.88674 0.82151 0.0
O591 O 0.54434 0.84134 0.85549 0.0
H592 H 0.58904 0.83619 0.90731 0.0
H593 H 0.62034 0.89295 0.83568 0.0
H594 H 0.61464 0.82766 0.8792 0.0
H595 H 0.64542 0.88346 0.80897 0.0
H596 H 0.51368 0.84555 0.03817 0.0
H597 H 0.58072 0.89945 0.98542 0.0
H598 H 0.52059 0.85039 0.95591 0.0
H599 H 0.57269 0.89382 0.06706 0.0
H600 H 0.64659 0.94637 0.9435 0.0
H601 H 0.59431 0.95465 0.95098 0.0
H602 H 0.52574 0.79135 0.00018 0.0
H603 H 0.58057 0.84087 0.05702 0.0
H604 H 0.55123 0.87411 0.74139 0.0
H605 H 0.60596 0.91716 0.80986 0.0
H606 H 0.56773 0.88931 0.6682 0.0
H607 H 0.62155 0.93153 0.73543 0.0
H608 H 0.53801 0.83251 0.76812 0.0
H609 H 0.50882 0.82382 0.89744 0.0
H610 H 0.50426 0.81097 0.73325 0.0
H611 H 0.47555 0.80259 0.86013 0.0
H612 H 0.57146 0.80301 0.76895 0.0
H613 H 0.606 0.85711 0.68884 0.0
H614 H 0.48595 0.87601 0.89936 0.0
H615 H 0.48668 0.85811 0.76099 0.0
Li616 Li 0.70998 0.56317 0.06229 0.0
Li617 Li 0.69201 0.58172 0.04847 0.0
Li618 Li 0.68025 0.5483 0.01438 0.0
Li619 Li 0.71233 0.5776 0.99048 0.0
C620 C 0.6796 0.55678 0.12452 0.0
N621 N 0.67535 0.56098 0.21596 0.0
C622 C 0.6948 0.57331 0.14821 0.0
C623 C 0.66226 0.54239 0.14737 0.0
C624 C 0.69236 0.57516 0.19441 0.0
C625 C 0.6604 0.54477 0.1936 0.0
C626 C 0.73566 0.6113 0.03449 0.0
C627 C 0.74446 0.64072 0.98849 0.0
N628 N 0.76406 0.64911 0.00242 0.0
C629 C 0.75586 0.62026 0.04855 0.0
C630 C 0.72987 0.62164 0.00439 0.0
C631 C 0.77 0.63937 0.03189 0.0
C632 C 0.74543 0.56728 0.09996 0.0
N633 N 0.72492 0.55706 0.1044 0.0
C634 C 0.7269 0.53895 0.16816 0.0
C635 C 0.71549 0.54279 0.137 0.0
C636 C 0.74819 0.5498 0.16541 0.0
C637 C 0.75745 0.56392 0.13033 0.0
H638 H 0.75244 0.5781 0.07286 0.0
H639 H 0.69911 0.53439 0.13888 0.0
C640 C 0.66239 0.58745 0.08984 0.0
N641 N 0.68225 0.59754 0.07751 0.0
C642 C 0.65461 0.59675 0.11768 0.0
C643 C 0.6876 0.62709 0.11765 0.0
C644 C 0.69486 0.61704 0.09056 0.0
C645 C 0.6673 0.61681 0.1325 0.0
H646 H 0.65282 0.5718 0.07973 0.0
H647 H 0.7107 0.62463 0.08132 0.0
C648 C 0.71042 0.53462 0.01287 0.0
N649 N 0.719 0.50446 0.03534 0.0
C650 C 0.72875 0.53615 0.99944 0.0
C651 C 0.69644 0.51774 0.03767 0.0
C652 C 0.73281 0.52074 0.01114 0.0
C653 C 0.70106 0.50266 0.0487 0.0
C654 C 0.67678 0.56956 0.94136 0.0
C655 C 0.68173 0.55807 0.9127 0.0
C656 C 0.66376 0.57627 0.92614 0.0
C657 C 0.67362 0.55356 0.86912 0.0
C658 C 0.65596 0.57145 0.88231 0.0
N659 N 0.66101 0.56029 0.85495 0.0
C660 C 0.63922 0.51791 0.01958 0.0
C661 C 0.65787 0.51244 0.96263 0.0
C662 C 0.62175 0.4997 0.00861 0.0
N663 N 0.65678 0.52384 0.99668 0.0
C664 C 0.6407 0.4943 0.95002 0.0
C665 C 0.62229 0.48758 0.97329 0.0
H666 H 0.63888 0.52725 0.04673 0.0
H667 H 0.6721 0.51738 0.94534 0.0
C668 C 0.74971 0.59034 0.95241 0.0
N669 N 0.73185 0.58953 0.94282 0.0
C670 C 0.76481 0.59647 0.91966 0.0
C671 C 0.74316 0.60145 0.8678 0.0
C672 C 0.72861 0.59567 0.90203 0.0
C673 C 0.76134 0.60151 0.87637 0.0
H674 H 0.75196 0.58562 0.98532 0.0
H675 H 0.71458 0.59553 0.8955 0.0
O676 O 0.68145 0.5547 0.0791 0.0
O677 O 0.72165 0.59237 0.04949 0.0
O678 O 0.7064 0.54981 0.00289 0.0
O679 O 0.68416 0.57384 0.98452 0.0
H680 H 0.70833 0.58463 0.13123 0.0
H681 H 0.65036 0.52951 0.12954 0.0
H682 H 0.70398 0.58788 0.21313 0.0
H683 H 0.64705 0.53375 0.21171 0.0
H684 H 0.74021 0.64884 0.96499 0.0
H685 H 0.76059 0.61257 0.07211 0.0
H686 H 0.71429 0.6149 0.9931 0.0
H687 H 0.7857 0.64647 0.04239 0.0
H688 H 0.71916 0.52764 0.19416 0.0
H689 H 0.7738 0.57268 0.12707 0.0
H690 H 0.639 0.58795 0.1288 0.0
H691 H 0.69794 0.64264 0.12741 0.0
H692 H 0.73975 0.54909 0.98024 0.0
H693 H 0.68233 0.51646 0.04903 0.0
H694 H 0.74695 0.52174 0.00104 0.0
H695 H 0.69043 0.48957 0.0681 0.0
H696 H 0.69189 0.55286 0.92377 0.0
H697 H 0.65969 0.58508 0.94805 0.0
H698 H 0.67738 0.54474 0.84655 0.0
H699 H 0.64588 0.57656 0.87007 0.0
H700 H 0.6081 0.49504 0.02818 0.0
H701 H 0.64188 0.48573 0.92216 0.0
H702 H 0.77861 0.59622 0.92737 0.0
H703 H 0.74008 0.60539 0.83474 0.0
Li704 Li 0.14375 0.70614 0.22901 0.0
Li705 Li 0.1094 0.69053 0.2067 0.0
Li706 Li 0.13078 0.67715 0.17975 0.0
Li707 Li 0.13657 0.71076 0.15354 0.0
C708 C 0.11597 0.67538 0.28591 0.0
N709 N 0.10134 0.66929 0.37333 0.0
C710 C 0.11543 0.69106 0.30938 0.0
C711 C 0.10905 0.65661 0.30688 0.0
C712 C 0.10799 0.68768 0.35355 0.0
C713 C 0.10172 0.65383 0.35111 0.0
C714 C 0.11962 0.73057 0.19717 0.0
C715 C 0.09659 0.73519 0.14931 0.0
N716 N 0.10057 0.75204 0.17328 0.0
C717 C 0.12351 0.74795 0.22126 0.0
C718 C 0.10606 0.72413 0.16082 0.0
C719 C 0.11372 0.75859 0.20869 0.0
C720 C 0.16936 0.7409 0.27635 0.0
N721 N 0.16184 0.72054 0.27691 0.0
C722 C 0.17895 0.72294 0.34625 0.0
C723 C 0.16645 0.71138 0.31065 0.0
C724 C 0.18636 0.74393 0.34715 0.0
C725 C 0.18163 0.75295 0.31143 0.0
H726 H 0.16551 0.74773 0.24889 0.0
H727 H 0.16019 0.69511 0.3102 0.0
C728 C 0.07071 0.66062 0.23054 0.0
N729 N 0.08281 0.68113 0.23019 0.0
C730 C 0.05328 0.65152 0.25728 0.0
C731 C 0.06032 0.68487 0.28063 0.0
C732 C 0.0778 0.69334 0.25387 0.0
C733 C 0.04822 0.66369 0.2837 0.0
H734 H 0.07539 0.65129 0.21241 0.0
H735 H 0.088 0.70952 0.25474 0.0
C736 C 0.17591 0.7104 0.18905 0.0
N737 N 0.21464 0.72576 0.22336 0.0
C738 C 0.19118 0.72996 0.17746 0.0
C739 C 0.18037 0.69861 0.21788 0.0
C740 C 0.21066 0.73746 0.19523 0.0
C741 C 0.20004 0.70665 0.23491 0.0
C742 C 0.1108 0.67696 0.09961 0.0
C743 C 0.12734 0.67672 0.07963 0.0
C744 C 0.09297 0.67047 0.07485 0.0
C745 C 0.12574 0.66999 0.03511 0.0
C746 C 0.09199 0.66391 0.03036 0.0
N747 N 0.10825 0.66379 0.01159 0.0
C748 C 0.11165 0.63562 0.16116 0.0
C749 C 0.14747 0.65237 0.15376 0.0
C750 C 0.10999 0.61718 0.14834 0.0
N751 N 0.13017 0.65268 0.16365 0.0
C752 C 0.14655 0.6342 0.14154 0.0
C753 C 0.12762 0.61635 0.13862 0.0
H754 H 0.09816 0.63641 0.16887 0.0
H755 H 0.16195 0.66624 0.15479 0.0
C756 C 0.16023 0.74996 0.12455 0.0
N757 N 0.14743 0.73121 0.10756 0.0
C758 C 0.17248 0.76599 0.09587 0.0
C759 C 0.15731 0.74356 0.03217 0.0
C760 C 0.14519 0.72792 0.06221 0.0
C761 C 0.17171 0.76273 0.04906 0.0
H762 H 0.16174 0.75219 0.16072 0.0
H763 H 0.13474 0.71307 0.04914 0.0
O764 O 0.12263 0.67807 0.24215 0.0
O765 O 0.12923 0.72014 0.20927 0.0
O766 O 0.15664 0.70291 0.17272 0.0
O767 O 0.11167 0.68289 0.14358 0.0
H768 H 0.12052 0.70564 0.2936 0.0
H769 H 0.10923 0.64428 0.28902 0.0
H770 H 0.10744 0.69966 0.37205 0.0
H771 H 0.09628 0.63936 0.36774 0.0
H772 H 0.08607 0.73038 0.12129 0.0
H773 H 0.13396 0.75314 0.24946 0.0
H774 H 0.10285 0.71079 0.14162 0.0
H775 H 0.11658 0.77205 0.22709 0.0
H776 H 0.18225 0.71551 0.37344 0.0
H777 H 0.18727 0.76914 0.31085 0.0
H778 H 0.04427 0.63512 0.25868 0.0
H779 H 0.05707 0.69473 0.30102 0.0
H780 H 0.18808 0.73925 0.15499 0.0
H781 H 0.16866 0.68355 0.22776 0.0
H782 H 0.2226 0.75259 0.18663 0.0
H783 H 0.20365 0.69775 0.25754 0.0
H784 H 0.14134 0.68186 0.098 0.0
H785 H 0.08 0.67047 0.08995 0.0
H786 H 0.13843 0.66975 0.01921 0.0
H787 H 0.07829 0.65886 0.01079 0.0
H788 H 0.09514 0.60369 0.14654 0.0
H789 H 0.16043 0.63417 0.13364 0.0
H790 H 0.18301 0.78061 0.11041 0.0
H791 H 0.15617 0.74031 0.99634 0.0
Li792 Li 0.44271 0.1482 0.40238 0.0
Li793 Li 0.42372 0.11287 0.37836 0.0
Li794 Li 0.45758 0.13577 0.34565 0.0
Li795 Li 0.42855 0.13955 0.32636 0.0
C796 C 0.45923 0.12582 0.44726 0.0
N797 N 0.47728 0.12275 0.52555 0.0
C798 C 0.44727 0.11427 0.48354 0.0
C799 C 0.48037 0.13551 0.45051 0.0
C800 C 0.45668 0.113 0.52292 0.0
C801 C 0.48921 0.13386 0.49046 0.0
C802 C 0.39323 0.12279 0.37632 0.0
C803 C 0.36388 0.09838 0.33455 0.0
N804 N 0.35206 0.10364 0.35897 0.0
C805 C 0.3808 0.12797 0.40095 0.0
C806 C 0.38473 0.10789 0.34279 0.0
C807 C 0.36002 0.1181 0.3917 0.0
C808 C 0.45234 0.18574 0.43971 0.0
N809 N 0.44728 0.16645 0.45082 0.0
C810 C 0.44516 0.17318 0.52892 0.0
C811 C 0.44362 0.15996 0.49438 0.0
C812 C 0.45035 0.19323 0.51839 0.0
C813 C 0.45425 0.1995 0.47309 0.0
H814 H 0.45441 0.19037 0.40472 0.0
H815 H 0.43878 0.14435 0.50221 0.0
C816 C 0.41211 0.07197 0.39048 0.0
N817 N 0.40735 0.08638 0.40196 0.0
C818 C 0.40302 0.05336 0.41301 0.0
C819 C 0.38378 0.06453 0.45758 0.0
C820 C 0.3933 0.08296 0.43431 0.0
C821 C 0.38897 0.04963 0.44776 0.0
H822 H 0.42361 0.0753 0.36513 0.0
H823 H 0.39026 0.09491 0.44376 0.0
C824 C 0.4742 0.17851 0.34527 0.0
N825 N 0.51121 0.21404 0.34639 0.0
C826 C 0.47922 0.19281 0.31087 0.0
C827 C 0.48791 0.18231 0.38037 0.0
C828 C 0.49803 0.21068 0.312 0.0
C829 C 0.50657 0.20036 0.38031 0.0
C830 C 0.43665 0.11551 0.26847 0.0
C831 C 0.44952 0.1337 0.24614 0.0
C832 C 0.42853 0.09716 0.24498 0.0
C833 C 0.45405 0.13319 0.20059 0.0
C834 C 0.43342 0.0973 0.19943 0.0
N835 N 0.44597 0.11516 0.17837 0.0
C836 C 0.48366 0.12017 0.33389 0.0
C837 C 0.4964 0.15281 0.30179 0.0
C838 C 0.50094 0.11961 0.32005 0.0
N839 N 0.48179 0.13667 0.3249 0.0
C840 C 0.51407 0.15306 0.28804 0.0
C841 C 0.51659 0.1363 0.29707 0.0
H842 H 0.47166 0.10741 0.35179 0.0
H843 H 0.49445 0.16555 0.29382 0.0
C844 C 0.4214 0.16844 0.29255 0.0
N845 N 0.41776 0.14954 0.28214 0.0
C846 C 0.41689 0.17939 0.26171 0.0
C847 C 0.4039 0.15081 0.21055 0.0
C848 C 0.40871 0.14033 0.24262 0.0
C849 C 0.40855 0.17083 0.21957 0.0
H850 H 0.42849 0.17526 0.32442 0.0
H851 H 0.40589 0.12521 0.23532 0.0
O852 O 0.45029 0.12694 0.40812 0.0
O853 O 0.41361 0.13242 0.38504 0.0
O854 O 0.45585 0.16094 0.34446 0.0
O855 O 0.432 0.1155 0.31312 0.0
H856 H 0.4309 0.10654 0.48151 0.0
H857 H 0.48988 0.14409 0.4224 0.0
H858 H 0.44761 0.10424 0.55137 0.0
H859 H 0.50555 0.14134 0.49349 0.0
H860 H 0.3571 0.08682 0.30873 0.0
H861 H 0.38718 0.13951 0.42697 0.0
H862 H 0.39406 0.10366 0.32332 0.0
H863 H 0.35022 0.12195 0.41053 0.0
H864 H 0.44155 0.16752 0.5632 0.0
H865 H 0.45844 0.21482 0.46334 0.0
H866 H 0.40731 0.04221 0.40412 0.0
H867 H 0.37329 0.06243 0.48457 0.0
H868 H 0.46873 0.19008 0.28348 0.0
H869 H 0.48411 0.17154 0.40754 0.0
H870 H 0.50217 0.22186 0.28552 0.0
H871 H 0.51733 0.20351 0.40728 0.0
H872 H 0.45591 0.14806 0.2636 0.0
H873 H 0.41856 0.08296 0.26182 0.0
H874 H 0.46397 0.14715 0.18291 0.0
H875 H 0.42724 0.0832 0.18082 0.0
H876 H 0.50187 0.10613 0.32696 0.0
H877 H 0.5257 0.16641 0.27099 0.0
H878 H 0.42038 0.19465 0.27028 0.0
H879 H 0.39752 0.14371 0.17836 0.0
Li880 Li 0.29108 0.43413 0.56074 0.0
Li881 Li 0.30514 0.41224 0.54206 0.0
Li882 Li 0.32016 0.44798 0.51128 0.0
Li883 Li 0.28746 0.42077 0.48308 0.0
C884 C 0.32117 0.44471 0.61856 0.0
N885 N 0.32564 0.45667 0.70792 0.0
C886 C 0.31837 0.43094 0.65289 0.0
C887 C 0.32646 0.46461 0.62962 0.0
C888 C 0.32065 0.43727 0.69788 0.0
C889 C 0.32858 0.47034 0.67501 0.0
C890 C 0.26281 0.38514 0.53595 0.0
C891 C 0.25062 0.35371 0.49524 0.0
N892 N 0.23545 0.34423 0.52604 0.0
C893 C 0.24706 0.37514 0.56708 0.0
C894 C 0.26458 0.3744 0.49963 0.0
C895 C 0.2334 0.35443 0.56154 0.0
C896 C 0.272 0.45407 0.60097 0.0
N897 N 0.27727 0.43959 0.6069 0.0
C898 C 0.26096 0.43075 0.67887 0.0
C899 C 0.27188 0.42789 0.64466 0.0
C900 C 0.25516 0.44548 0.67355 0.0
C901 C 0.2608 0.45725 0.63406 0.0
H902 H 0.27614 0.46287 0.5702 0.0
H903 H 0.27579 0.4161 0.64782 0.0
C904 C 0.33269 0.40061 0.56845 0.0
N905 N 0.31241 0.39365 0.5666 0.0
C906 C 0.34007 0.38968 0.59164 0.0
C907 C 0.30551 0.36413 0.60899 0.0
C908 C 0.2988 0.37571 0.58597 0.0
C909 C 0.32641 0.37135 0.61284 0.0
H910 H 0.34315 0.41508 0.5533 0.0
H911 H 0.2828 0.37069 0.58528 0.0
C912 C 0.29992 0.4666 0.4832 0.0
N913 N 0.31153 0.50354 0.44278 0.0
C914 C 0.29567 0.46745 0.43759 0.0
C915 C 0.30989 0.48451 0.50837 0.0
C916 C 0.30169 0.48629 0.41775 0.0
C917 C 0.31571 0.50305 0.48728 0.0
C918 C 0.31943 0.41568 0.44204 0.0
C919 C 0.32833 0.42856 0.40509 0.0
C920 C 0.31637 0.39598 0.4408 0.0
C921 C 0.33359 0.42135 0.36699 0.0
C922 C 0.32185 0.38933 0.40209 0.0
N923 N 0.33025 0.40204 0.36628 0.0
C924 C 0.36037 0.4781 0.52797 0.0
C925 C 0.34823 0.48165 0.45682 0.0
C926 C 0.37913 0.49544 0.52016 0.0
N927 N 0.34534 0.47165 0.49664 0.0
C928 C 0.36671 0.49917 0.44774 0.0
C929 C 0.38244 0.50628 0.4797 0.0
H930 H 0.35778 0.46978 0.55915 0.0
H931 H 0.33622 0.4761 0.43207 0.0
C932 C 0.24921 0.4049 0.44594 0.0
N933 N 0.26872 0.41119 0.43397 0.0
C934 C 0.23435 0.39983 0.413 0.0
C935 C 0.25982 0.40754 0.35571 0.0
C936 C 0.2742 0.41232 0.38989 0.0
C937 C 0.23964 0.40159 0.3671 0.0
H938 H 0.24532 0.40444 0.48122 0.0
H939 H 0.28984 0.41778 0.38105 0.0
O940 O 0.31872 0.43872 0.57435 0.0
O941 O 0.27626 0.40541 0.54096 0.0
O942 O 0.2942 0.44831 0.50316 0.0
O943 O 0.31456 0.4226 0.48 0.0
H944 H 0.31427 0.41547 0.64495 0.0
H945 H 0.32883 0.47548 0.60343 0.0
H946 H 0.31841 0.42675 0.72482 0.0
H947 H 0.33256 0.48567 0.68407 0.0
H948 H 0.25181 0.34521 0.46728 0.0
H949 H 0.24545 0.38329 0.59529 0.0
H950 H 0.27648 0.38198 0.47493 0.0
H951 H 0.22116 0.34647 0.58544 0.0
H952 H 0.25655 0.42114 0.70852 0.0
H953 H 0.25655 0.46872 0.62882 0.0
H954 H 0.3563 0.39568 0.59373 0.0
H955 H 0.29455 0.35019 0.62541 0.0
H956 H 0.28789 0.45375 0.41765 0.0
H957 H 0.31322 0.48412 0.54373 0.0
H958 H 0.29858 0.48718 0.38244 0.0
H959 H 0.32355 0.51704 0.50628 0.0
H960 H 0.33094 0.44388 0.40559 0.0
H961 H 0.30996 0.38595 0.46952 0.0
H962 H 0.34033 0.4311 0.338 0.0
H963 H 0.31949 0.3741 0.4006 0.0
H964 H 0.3908 0.50048 0.54583 0.0
H965 H 0.36875 0.50693 0.41585 0.0
H966 H 0.21895 0.39504 0.42344 0.0
H967 H 0.26468 0.40942 0.3208 0.0
Li968 Li 0.89138 0.31279 0.71503 0.0
Li969 Li 0.85623 0.29877 0.7457 0.0
Li970 Li 0.86141 0.2918 0.6688 0.0
Li971 Li 0.86767 0.32514 0.68878 0.0
C972 C 0.86553 0.26481 0.71699 0.0
N973 N 0.8546 0.2252 0.69664 0.0
C974 C 0.84826 0.24875 0.73669 0.0
C975 C 0.87732 0.26075 0.68723 0.0
C976 C 0.84298 0.22882 0.72591 0.0
C977 C 0.87151 0.24061 0.67728 0.0
C978 C 0.87814 0.3316 0.7936 0.0
C979 C 0.86265 0.34148 0.85194 0.0
N980 N 0.87474 0.33965 0.88321 0.0
C981 C 0.89043 0.32986 0.8263 0.0
C982 C 0.86417 0.3375 0.80646 0.0
C983 C 0.88848 0.33399 0.87143 0.0
C984 C 0.92942 0.34187 0.7443 0.0
N985 N 0.91845 0.32188 0.73331 0.0
C986 C 0.94429 0.316 0.7629 0.0
C987 C 0.92556 0.30895 0.74141 0.0
C988 C 0.95535 0.33633 0.77688 0.0
C989 C 0.94795 0.34943 0.7666 0.0
H990 H 0.9232 0.35168 0.738 0.0
H991 H 0.91632 0.29305 0.73308 0.0
C992 C 0.82048 0.28258 0.79851 0.0
N993 N 0.84025 0.28739 0.79812 0.0
C994 C 0.80827 0.27288 0.8359 0.0
C995 C 0.83709 0.27346 0.87187 0.0
C996 C 0.84869 0.28303 0.8337 0.0
C997 C 0.8165 0.268 0.87307 0.0
H998 H 0.81402 0.28573 0.7693 0.0
H999 H 0.86435 0.28666 0.832 0.0
C1000 C 0.89336 0.31709 0.61211 0.0
N1001 N 0.90934 0.31481 0.52997 0.0
C1002 C 0.88691 0.32199 0.5723 0.0
C1003 C 0.90807 0.31122 0.61026 0.0
C1004 C 0.89514 0.3207 0.53107 0.0
C1005 C 0.91592 0.3101 0.56836 0.0
C1006 C 0.82793 0.30372 0.6734 0.0
C1007 C 0.82112 0.29798 0.62906 0.0
C1008 C 0.82078 0.31436 0.69875 0.0
C1009 C 0.8073 0.30305 0.6108 0.0
C1010 C 0.80701 0.3192 0.67922 0.0
N1011 N 0.80062 0.31348 0.63602 0.0
C1012 C 0.82928 0.2561 0.64035 0.0
C1013 C 0.85499 0.26838 0.5845 0.0
C1014 C 0.81618 0.24014 0.6125 0.0
N1015 N 0.84813 0.27007 0.62582 0.0
C1016 C 0.8422 0.25274 0.55507 0.0
C1017 C 0.82228 0.23863 0.56859 0.0
H1018 H 0.82419 0.25771 0.6734 0.0
H1019 H 0.87008 0.27933 0.57364 0.0
C1020 C 0.87591 0.36537 0.69778 0.0
N1021 N 0.86729 0.34892 0.67006 0.0
C1022 C 0.8754 0.38292 0.68652 0.0
C1023 C 0.85743 0.36642 0.618 0.0
C1024 C 0.85859 0.34932 0.63022 0.0
C1025 C 0.86581 0.38344 0.64649 0.0
H1026 H 0.88311 0.36484 0.7288 0.0
H1027 H 0.85238 0.33631 0.6081 0.0
O1028 O 0.87069 0.28441 0.72636 0.0
O1029 O 0.87954 0.32725 0.74934 0.0
O1030 O 0.88574 0.31858 0.65281 0.0
O1031 O 0.84152 0.29898 0.6919 0.0
H1032 H 0.83893 0.25163 0.75967 0.0
H1033 H 0.89066 0.27301 0.67153 0.0
H1034 H 0.8296 0.21623 0.7407 0.0
H1035 H 0.88041 0.23724 0.65406 0.0
H1036 H 0.85185 0.34599 0.86238 0.0
H1037 H 0.90114 0.32505 0.81713 0.0
H1038 H 0.85452 0.3389 0.78162 0.0
H1039 H 0.89782 0.33261 0.89711 0.0
H1040 H 0.94956 0.30549 0.77067 0.0
H1041 H 0.95614 0.3652 0.7769 0.0
H1042 H 0.79239 0.26861 0.83499 0.0
H1043 H 0.84411 0.27015 0.8999 0.0
H1044 H 0.87562 0.32666 0.57322 0.0
H1045 H 0.91338 0.30761 0.64082 0.0
H1046 H 0.89024 0.32435 0.49995 0.0
H1047 H 0.92726 0.30552 0.56637 0.0
H1048 H 0.82663 0.28996 0.60865 0.0
H1049 H 0.82592 0.319 0.73301 0.0
H1050 H 0.80198 0.29878 0.57648 0.0
H1051 H 0.80145 0.32752 0.69838 0.0
H1052 H 0.80121 0.22936 0.62502 0.0
H1053 H 0.84761 0.25225 0.52153 0.0
H1054 H 0.88203 0.39578 0.70932 0.0
H1055 H 0.85018 0.36641 0.5865 0.0
H1056 H 0.18597 0.38959 0.19422 0.0
H1057 H 0.16398 0.42027 0.28032 0.0
H1058 H 0.18485 0.41986 0.34225 0.0
H1059 H 0.2115 0.41362 0.36984 0.0
H1060 H 0.23417 0.38347 0.28406 0.0
H1061 H 0.21126 0.38137 0.2237 0.0
C1062 C 0.18571 0.39614 0.22657 0.0
C1063 C 0.17345 0.40502 0.23244 0.0
C1064 C 0.19809 0.39624 0.26189 0.0
C1065 C 0.17304 0.41312 0.27489 0.0
C1066 C 0.18514 0.41307 0.31026 0.0
C1067 C 0.21118 0.40619 0.33834 0.0
C1068 C 0.22461 0.39876 0.33156 0.0
C1069 C 0.19799 0.40503 0.30387 0.0
C1070 C 0.22421 0.38957 0.29003 0.0
C1071 C 0.21104 0.38827 0.25557 0.0
H1072 H 0.82908 0.21686 0.50375 0.0
H1073 H 0.78196 0.22609 0.56048 0.0
H1074 H 0.75746 0.20161 0.50789 0.0
H1075 H 0.74955 0.17897 0.44315 0.0
H1076 H 0.79658 0.17099 0.38237 0.0
H1077 H 0.82099 0.19376 0.43866 0.0
C1078 C 0.81349 0.2136 0.5045 0.0
C1079 C 0.80745 0.22326 0.53652 0.0
C1080 C 0.79942 0.19976 0.47327 0.0
C1081 C 0.78706 0.21862 0.53709 0.0
C1082 C 0.77299 0.20471 0.5067 0.0
C1083 C 0.76506 0.18193 0.44273 0.0
C1084 C 0.77123 0.17321 0.40894 0.0
C1085 C 0.77902 0.1953 0.47449 0.0
C1086 C 0.7915 0.17756 0.40811 0.0
C1087 C 0.80543 0.19058 0.44023 0.0
H1088 H 0.60001 0.7643 0.6108 0.0
H1089 H 0.58065 0.78952 0.50416 0.0
H1090 H 0.58157 0.81474 0.55613 0.0
H1091 H 0.58486 0.82783 0.63338 0.0
H1092 H 0.60215 0.80142 0.74108 0.0
H1093 H 0.60478 0.77838 0.68744 0.0
C1094 C 0.59597 0.77528 0.59888 0.0
C1095 C 0.59026 0.77489 0.55348 0.0
C1096 C 0.59598 0.78949 0.6293 0.0
C1097 C 0.58543 0.78955 0.53862 0.0
C1098 C 0.58576 0.80392 0.56847 0.0
C1099 C 0.58956 0.81727 0.6449 0.0
C1100 C 0.59324 0.81626 0.69107 0.0
C1101 C 0.59066 0.80382 0.61403 0.0
C1102 C 0.59906 0.80234 0.7057 0.0
C1103 C 0.60057 0.78918 0.67507 0.0
H1104 H 0.83344 0.61728 0.74624 0.0
H1105 H 0.78391 0.56665 0.6772 0.0
H1106 H 0.75987 0.56745 0.72971 0.0
H1107 H 0.75278 0.58061 0.79853 0.0
H1108 H 0.80208 0.6285 0.87307 0.0
H1109 H 0.82629 0.63052 0.81564 0.0
C1110 C 0.81742 0.60633 0.74272 0.0
C1111 C 0.81066 0.59209 0.70718 0.0
C1112 C 0.80356 0.60632 0.77425 0.0
C1113 C 0.78971 0.5782 0.7032 0.0
C1114 C 0.77585 0.57846 0.73361 0.0
C1115 C 0.76879 0.59174 0.80164 0.0
C1116 C 0.77569 0.60455 0.83946 0.0
C1117 C 0.7826 0.59228 0.76949 0.0
C1118 C 0.79649 0.61859 0.84393 0.0
C1119 C 0.8103 0.61967 0.81124 0.0
H1120 H 0.24808 0.82838 0.9412 0.0
H1121 H 0.20281 0.81278 0.83747 0.0
H1122 H 0.17631 0.7901 0.88977 0.0
H1123 H 0.16621 0.77318 0.96386 0.0
H1124 H 0.21203 0.78773 0.0659 0.0
H1125 H 0.23793 0.81228 0.01552 0.0
C1126 C 0.23242 0.82001 0.93 0.0
C1127 C 0.22749 0.82226 0.88541 0.0
C1128 C 0.21729 0.80673 0.95999 0.0
C1129 C 0.20704 0.81155 0.87174 0.0
C1130 C 0.19187 0.79842 0.90153 0.0
C1131 C 0.18186 0.78172 0.97505 0.0
C1132 C 0.18707 0.77859 0.01875 0.0
C1133 C 0.19686 0.79566 0.94556 0.0
C1134 C 0.20743 0.79001 0.03282 0.0
C1135 C 0.22235 0.80397 0.00386 0.0
H1136 H 0.43623 0.20911 0.19651 0.0
H1137 H 0.37612 0.1608 0.16334 0.0
H1138 H 0.37294 0.18243 0.10624 0.0
H1139 H 0.38738 0.21536 0.06648 0.0
H1140 H 0.44846 0.26255 0.09857 0.0
H1141 H 0.45074 0.24128 0.15646 0.0
C1142 C 0.42233 0.20337 0.17713 0.0
C1143 C 0.40635 0.18349 0.18444 0.0
C1144 C 0.42068 0.21578 0.14453 0.0
C1145 C 0.38864 0.17607 0.15824 0.0
C1146 C 0.3868 0.18846 0.12579 0.0
C1147 C 0.40123 0.22098 0.08594 0.0
C1148 C 0.41757 0.24077 0.07833 0.0
C1149 C 0.40275 0.20838 0.11866 0.0
C1150 C 0.43534 0.24772 0.10429 0.0
C1151 C 0.43682 0.23545 0.13718 0.0
H1152 H 0.1138 0.53373 0.05736 0.0
H1153 H 0.15732 0.54237 0.16114 0.0
H1154 H 0.15926 0.57409 0.18345 0.0
H1155 H 0.14859 0.59948 0.17384 0.0
H1156 H 0.10357 0.58989 0.07358 0.0
H1157 H 0.10185 0.55818 0.0503 0.0
C1158 C 0.1235 0.54235 0.0853 0.0
C1159 C 0.13552 0.53564 0.10714 0.0
C1160 C 0.12423 0.56041 0.09873 0.0
C1161 C 0.14822 0.54729 0.14289 0.0
C1162 C 0.14923 0.5654 0.156 0.0
C1163 C 0.13846 0.59043 0.14682 0.0
C1164 C 0.1263 0.59698 0.12525 0.0
C1165 C 0.13739 0.57215 0.13404 0.0
C1166 C 0.113 0.58505 0.09075 0.0
C1167 C 0.11207 0.56699 0.07737 0.0
H1168 H 0.59812 0.1467 0.21439 0.0
H1169 H 0.59328 0.11028 0.33022 0.0
H1170 H 0.56175 0.10914 0.35288 0.0
H1171 H 0.5362 0.1193 0.34064 0.0
H1172 H 0.53958 0.15335 0.22094 0.0
H1173 H 0.57122 0.15494 0.19945 0.0
C1174 C 0.5901 0.13854 0.24457 0.0
C1175 C 0.59794 0.12868 0.27082 0.0
C1176 C 0.57184 0.13766 0.25685 0.0
C1177 C 0.5874 0.11793 0.30954 0.0
C1178 C 0.56945 0.11732 0.3225 0.0
C1179 C 0.54359 0.12679 0.30941 0.0
C1180 C 0.53545 0.13637 0.28284 0.0
C1181 C 0.56155 0.12718 0.29645 0.0
C1182 C 0.54562 0.14626 0.24285 0.0
C1183 C 0.56368 0.14705 0.23021 0.0
H1184 H 0.38875 0.54212 0.4455 0.0
H1185 H 0.42046 0.51224 0.49476 0.0
H1186 H 0.45302 0.54301 0.48147 0.0
H1187 H 0.47247 0.57845 0.45609 0.0
H1188 H 0.44074 0.60825 0.40638 0.0
H1189 H 0.40821 0.5775 0.41972 0.0
C1190 C 0.4028 0.5423 0.45293 0.0
C1191 C 0.40219 0.52492 0.47102 0.0
C1192 C 0.42145 0.56005 0.44531 0.0
C1193 C 0.42051 0.52549 0.48121 0.0
C1194 C 0.43913 0.54304 0.47344 0.0
C1195 C 0.45844 0.57816 0.44785 0.0
C1196 C 0.45904 0.59562 0.43028 0.0
C1197 C 0.43978 0.56041 0.45554 0.0
C1198 C 0.4407 0.59509 0.42044 0.0
C1199 C 0.42209 0.57748 0.42781 0.0
H1200 H 0.84466 0.45142 0.59691 0.0
H1201 H 0.90903 0.48957 0.61794 0.0
H1202 H 0.912 0.45972 0.63557 0.0
H1203 H 0.89613 0.42273 0.64553 0.0
H1204 H 0.83198 0.38454 0.62151 0.0
H1205 H 0.82902 0.4144 0.60434 0.0
C1206 C 0.8593 0.45314 0.60555 0.0
C1207 C 0.87659 0.47258 0.60648 0.0
C1208 C 0.86091 0.43593 0.61497 0.0
C1209 C 0.89555 0.47469 0.61695 0.0
C1210 C 0.89723 0.45766 0.62712 0.0
C1211 C 0.88153 0.42102 0.63663 0.0
C1212 C 0.86428 0.40155 0.63491 0.0
C1213 C 0.88 0.43821 0.62633 0.0
C1214 C 0.84547 0.39941 0.62275 0.0
C1215 C 0.84376 0.41646 0.61314 0.0
H1216 H 0.39643 0.85809 0.82437 0.0
H1217 H 0.41822 0.88627 0.69426 0.0
H1218 H 0.45044 0.88741 0.70722 0.0
H1219 H 0.47249 0.88045 0.75546 0.0
H1220 H 0.45037 0.85139 0.88462 0.0
H1221 H 0.41824 0.85052 0.87199 0.0
C1222 C 0.40815 0.86431 0.79867 0.0
C1223 C 0.4049 0.87213 0.75847 0.0
C1224 C 0.42662 0.8648 0.80618 0.0
C1225 C 0.4204 0.88042 0.72582 0.0
C1226 C 0.4388 0.88096 0.73305 0.0
C1227 C 0.46056 0.87373 0.78064 0.0
C1228 C 0.46387 0.86602 0.82093 0.0
C1229 C 0.44208 0.87319 0.77309 0.0
C1230 C 0.44835 0.85768 0.85355 0.0
C1231 C 0.42992 0.85707 0.84626 0.0
H1232 H 0.55371 0.39985 0.9146 0.0
H1233 H 0.51566 0.42481 0.95145 0.0
H1234 H 0.54566 0.45722 0.969 0.0
H1235 H 0.58264 0.47844 0.97448 0.0
H1236 H 0.62041 0.45233 0.94492 0.0
H1237 H 0.5905 0.42045 0.92407 0.0
C1238 C 0.55187 0.41223 0.92712 0.0
C1239 C 0.53232 0.40975 0.93146 0.0
C1240 C 0.56918 0.43071 0.93836 0.0
C1241 C 0.53044 0.42625 0.94684 0.0
C1242 C 0.54762 0.4448 0.9573 0.0
C1243 C 0.58439 0.46574 0.96412 0.0
C1244 C 0.6039 0.46799 0.96114 0.0
C1245 C 0.56706 0.44719 0.95329 0.0
C1246 C 0.60572 0.45133 0.94671 0.0
C1247 C 0.58858 0.43296 0.93512 0.0
H1248 H 0.26142 0.44922 0.76401 0.0
H1249 H 0.22041 0.44677 0.66049 0.0
H1250 H 0.19793 0.44792 0.71804 0.0
H1251 H 0.18896 0.44738 0.79772 0.0
H1252 H 0.23067 0.45119 0.90136 0.0
H1253 H 0.25369 0.45138 0.84377 0.0
C1254 C 0.24758 0.44901 0.75418 0.0
C1255 C 0.24247 0.4478 0.70825 0.0
C1256 C 0.23478 0.44969 0.78739 0.0
C1257 C 0.22468 0.44782 0.69571 0.0
C1258 C 0.21179 0.44835 0.72857 0.0
C1259 C 0.20325 0.44865 0.80781 0.0
C1260 C 0.20791 0.44903 0.85394 0.0
C1261 C 0.21657 0.44904 0.77453 0.0
C1262 C 0.22642 0.4504 0.86619 0.0
C1263 C 0.23969 0.45065 0.83327 0.0
H1264 H 0.75268 0.22353 0.02936 0.0
H1265 H 0.78334 0.18877 0.03313 0.0
H1266 H 0.80625 0.20977 0.97323 0.0
H1267 H 0.81676 0.23708 0.91808 0.0
H1268 H 0.78663 0.27236 0.91432 0.0
H1269 H 0.76404 0.2518 0.97536 0.0
C1270 C 0.76435 0.22055 0.01691 0.0
C1271 C 0.76633 0.20466 0.03564 0.0
C1272 C 0.77746 0.23266 0.98235 0.0
C1273 C 0.78166 0.20108 0.01962 0.0
C1274 C 0.7947 0.213 0.98521 0.0
C1275 C 0.80549 0.24053 0.93107 0.0
C1276 C 0.80342 0.25626 0.91166 0.0
C1277 C 0.79268 0.22877 0.96624 0.0
C1278 C 0.78841 0.26019 0.92831 0.0
C1279 C 0.77554 0.24851 0.96334 0.0
H1280 H 0.55254 0.77397 0.21996 0.0
H1281 H 0.5405 0.72414 0.1312 0.0
H1282 H 0.53948 0.74346 0.06646 0.0
H1283 H 0.54411 0.77528 0.03447 0.0
H1284 H 0.55729 0.82548 0.12293 0.0
H1285 H 0.55618 0.80537 0.18834 0.0
C1286 C 0.54979 0.76736 0.18642 0.0
C1287 C 0.54671 0.74768 0.18044 0.0
C1288 C 0.5496 0.77868 0.14926 0.0
C1289 C 0.54272 0.73919 0.13686 0.0
C1290 C 0.54229 0.75028 0.09975 0.0
C1291 C 0.54646 0.7817 0.06815 0.0
C1292 C 0.55085 0.80184 0.07391 0.0
C1293 C 0.54595 0.77012 0.1055 0.0
C1294 C 0.55413 0.81008 0.11764 0.0
C1295 C 0.55343 0.79858 0.15502 0.0
H1296 H 0.81313 0.54569 0.29075 0.0
H1297 H 0.77266 0.5453 0.39351 0.0
H1298 H 0.74959 0.5446 0.33551 0.0
H1299 H 0.74206 0.5465 0.25593 0.0
H1300 H 0.78263 0.54748 0.15274 0.0
H1301 H 0.80471 0.54594 0.21065 0.0
C1302 C 0.79926 0.54546 0.3004 0.0
C1303 C 0.79465 0.54557 0.34637 0.0
C1304 C 0.78618 0.54536 0.26686 0.0
C1305 C 0.77646 0.54496 0.35838 0.0
C1306 C 0.76332 0.54472 0.32524 0.0
C1307 C 0.75554 0.546 0.24604 0.0
C1308 C 0.76073 0.54717 0.20013 0.0
C1309 C 0.76816 0.54518 0.27942 0.0
C1310 C 0.77844 0.54686 0.18792 0.0
C1311 C 0.79103 0.54591 0.22098 0.0
H1312 H 0.22003 0.74614 0.38483 0.0
H1313 H 0.17905 0.76964 0.39608 0.0
H1314 H 0.19892 0.79142 0.45865 0.0
H1315 H 0.22799 0.80408 0.5091 0.0
H1316 H 0.27044 0.78239 0.49607 0.0
H1317 H 0.24968 0.75922 0.43593 0.0
C1318 C 0.21545 0.75596 0.40132 0.0
C1319 C 0.19821 0.75641 0.38597 0.0
C1320 C 0.22714 0.76868 0.43688 0.0
C1321 C 0.19242 0.76925 0.40718 0.0
C1322 C 0.20372 0.78164 0.44296 0.0
C1323 C 0.23291 0.79451 0.49277 0.0
C1324 C 0.25087 0.79514 0.50683 0.0
C1325 C 0.22119 0.78161 0.45776 0.0
C1326 C 0.25662 0.78214 0.48613 0.0
C1327 C 0.24482 0.76897 0.45156 0.0
H1328 H 0.44364 0.25584 0.64694 0.0
H1329 H 0.46951 0.23219 0.74206 0.0
H1330 H 0.47072 0.21009 0.68344 0.0
H1331 H 0.46418 0.19743 0.60518 0.0
H1332 H 0.43685 0.22031 0.51161 0.0
H1333 H 0.43694 0.24313 0.56934 0.0
C1334 C 0.44978 0.24603 0.65466 0.0
C1335 C 0.45659 0.24571 0.69858 0.0
C1336 C 0.45024 0.23329 0.62105 0.0
C1337 C 0.4641 0.23262 0.70845 0.0
C1338 C 0.46484 0.22004 0.67496 0.0
C1339 C 0.45811 0.2073 0.59749 0.0
C1340 C 0.45067 0.20721 0.55391 0.0
C1341 C 0.45784 0.22017 0.63118 0.0
C1342 C 0.44308 0.22031 0.54448 0.0
C1343 C 0.44296 0.23327 0.57761 0.0
H1344 H 0.04012 0.36746 0.87132 0.0
H1345 H 0.00957 0.38083 0.97756 0.0
H1346 H 0.97903 0.36727 0.93148 0.0
H1347 H 0.96107 0.3522 0.86047 0.0
H1348 H 0.99039 0.33642 0.75654 0.0
H1349 H 0.02125 0.3499 0.80276 0.0
C1350 C 0.0267 0.36708 0.88494 0.0
C1351 C 0.02736 0.37542 0.9279 0.0
C1352 C 0.00896 0.35883 0.85862 0.0
C1353 C 0.00978 0.375 0.94432 0.0
C1354 C 0.99221 0.3671 0.9181 0.0
C1355 C 0.97426 0.35174 0.8481 0.0
C1356 C 0.97369 0.34361 0.80517 0.0
C1357 C 0.9917 0.35918 0.87507 0.0
C1358 C 0.99063 0.3427 0.78953 0.0
C1359 C 0.00822 0.35043 0.81589 0.0
H1360 H 0.61982 0.98798 0.95506 0.0
H1361 H 0.65019 0.95893 0.01668 0.0
H1362 H 0.66686 0.98689 0.06996 0.0
H1363 H 0.67133 0.01874 0.1024 0.0
H1364 H 0.63874 0.04613 0.04462 0.0
H1365 H 0.62394 0.01936 0.9876 0.0
C1366 C 0.62992 0.98758 0.98033 0.0
C1367 C 0.63362 0.9712 0.98152 0.0
C1368 C 0.63888 0.00333 0.01214 0.0
C1369 C 0.64723 0.9714 0.01406 0.0
C1370 C 0.65664 0.98732 0.04506 0.0
C1371 C 0.66104 0.01882 0.07717 0.0
C1372 C 0.65599 0.03424 0.07785 0.0
C1373 C 0.65236 0.00322 0.04483 0.0
C1374 C 0.64259 0.03421 0.04514 0.0
C1375 C 0.63423 0.01899 0.0124 0.0
H1376 H 0.62913 0.61186 0.13747 0.0
H1377 H 0.68811 0.64367 0.20102 0.0
H1378 H 0.67557 0.65925 0.25424 0.0
H1379 H 0.6476 0.66336 0.28423 0.0
H1380 H 0.58817 0.62958 0.22423 0.0
H1381 H 0.60099 0.61474 0.16923 0.0
C1382 C 0.63925 0.62196 0.16326 0.0
C1383 C 0.65963 0.62658 0.16469 0.0
C1384 C 0.63178 0.63039 0.19487 0.0
C1385 C 0.67249 0.6401 0.19807 0.0
C1386 C 0.66528 0.64889 0.22901 0.0
C1387 C 0.63751 0.65272 0.2591 0.0
C1388 C 0.61698 0.64748 0.25834 0.0
C1389 C 0.64494 0.6441 0.22783 0.0
C1390 C 0.60398 0.63362 0.22581 0.0
C1391 C 0.61133 0.62525 0.1942 0.0
H1392 H 0.01795 0.67228 0.29877 0.0
H1393 H 0.04159 0.63437 0.3447 0.0
H1394 H 0.01475 0.61902 0.40136 0.0
H1395 H 0.98456 0.6162 0.43745 0.0
H1396 H 0.95927 0.65231 0.38824 0.0
H1397 H 0.98716 0.66904 0.33464 0.0
C1398 C 0.01718 0.66068 0.32129 0.0
C1399 C 0.03158 0.65432 0.31731 0.0
C1400 C 0.00158 0.65177 0.35359 0.0
C1401 C 0.03045 0.63925 0.34659 0.0
C1402 C 0.0152 0.63058 0.3792 0.0
C1403 C 0.98494 0.62756 0.41477 0.0
C1404 C 0.96967 0.63286 0.41714 0.0
C1405 C 0.00063 0.63664 0.38284 0.0
C1406 C 0.9709 0.64806 0.38801 0.0
C1407 C 0.98675 0.65752 0.35685 0.0
H1408 H 0.35016 0.02554 0.47762 0.0
H1409 H 0.40985 0.03208 0.48155 0.0
H1410 H 0.39727 0.00234 0.53023 0.0
H1411 H 0.36942 0.97459 0.57223 0.0
H1412 H 0.30966 0.96779 0.56844 0.0
H1413 H 0.32217 0.9976 0.51953 0.0
C1414 C 0.36041 0.02048 0.48927 0.0
C1415 C 0.38089 0.03098 0.47578 0.0
C1416 C 0.35309 0.00339 0.51748 0.0
C1417 C 0.39394 0.0241 0.49078 0.0
C1418 C 0.38681 0.00718 0.51895 0.0
C1419 C 0.3592 0.97979 0.56108 0.0
C1420 C 0.3387 0.96912 0.57415 0.0
C1421 C 0.36645 0.99677 0.53265 0.0
C1422 C 0.32551 0.97574 0.5587 0.0
C1423 C 0.33266 0.99278 0.5308 0.0
H1424 H 0.35502 0.38741 0.67804 0.0
H1425 H 0.31439 0.33095 0.61176 0.0
H1426 H 0.32707 0.31321 0.65895 0.0
H1427 H 0.35027 0.31403 0.71832 0.0
H1428 H 0.39035 0.37065 0.78502 0.0
H1429 H 0.37723 0.38804 0.73871 0.0
C1430 C 0.34907 0.37125 0.67376 0.0
C1431 C 0.334 0.36052 0.6412 0.0
C1432 C 0.35623 0.36118 0.70128 0.0
C1433 C 0.32604 0.3395 0.63662 0.0
C1434 C 0.3333 0.32939 0.66352 0.0
C1435 C 0.35607 0.33016 0.72269 0.0
C1436 C 0.37121 0.34102 0.75512 0.0
C1437 C 0.34845 0.3401 0.69587 0.0
C1438 C 0.37849 0.36189 0.76075 0.0
C1439 C 0.37112 0.37188 0.73404 0.0
loop_
_geom_bond_atom_site_label_1
_geom_bond_atom_site_label_2
_geom_bond_distance
_geom_bond_site_symmetry_2
_ccdc_geom_bond_type
Li0 N17 1.990 . S
Li0 O60 1.956 . S
Li0 O61 1.970 . S
Li0 O62 1.961 1_554 S
Li1 N25 1.990 . S
Li1 O60 1.970 . S
Li1 O61 1.956 . S
Li1 O63 1.961 . S
Li2 N47 1.990 . S
Li2 O60 1.961 1_556 S
Li2 O62 1.956 . S
Li2 O63 1.970 1_556 S
Li3 N53 1.990 . S
Li3 O61 1.961 . S
Li3 O62 1.970 1_554 S
Li3 O63 1.956 . S
C4 C6 1.348 . S
C4 C7 1.356 . S
C4 O60 1.325 . S
N5 C8 1.314 . S
N5 C9 1.279 . S
C6 C4 1.348 . S
C6 C8 1.353 . S
C6 H64 0.929 . S
C7 C4 1.356 . S
C7 C9 1.358 . S
C7 H65 0.930 1_554 S
C8 N5 1.314 . S
C8 C6 1.353 . S
C8 H66 0.930 . S
C9 N5 1.279 . S
C9 C7 1.358 . S
C9 H67 0.930 . S
C10 C13 1.348 . S
C10 C14 1.356 . S
C10 O61 1.325 . S
C11 N12 1.279 . S
C11 C14 1.358 . S
C11 H68 0.930 . S
N12 C11 1.279 . S
N12 C15 1.314 . S
C13 C10 1.348 . S
C13 C15 1.353 . S
C13 H69 0.929 . S
C14 C10 1.356 . S
C14 C11 1.358 . S
C14 H70 0.930 . S
C15 N12 1.314 . S
C15 C13 1.353 . S
C15 H71 0.930 . S
C16 N17 1.314 . S
C16 C21 1.353 . S
C16 H22 0.930 . S
N17 Li0 1.990 . S
N17 C16 1.314 . S
N17 C19 1.279 . S
C18 C19 1.358 . S
C18 C20 1.356 . S
C18 H72 0.930 . S
C19 N17 1.279 . S
C19 C18 1.358 . S
C19 H23 0.930 . S
C20 C18 1.356 . S
C20 C21 1.348 . S
C21 C16 1.353 . S
C21 C20 1.348 . S
C21 H73 0.929 . S
H22 C16 0.930 . S
H23 C19 0.930 . S
C24 N25 1.314 . S
C24 C26 1.353 . S
C24 H30 0.930 . S
N25 Li1 1.990 . S
N25 C24 1.314 . S
N25 C28 1.279 . S
C26 C24 1.353 . S
C26 C29 1.348 . S
C26 H74 0.929 . S
C27 C28 1.358 . S
C27 C29 1.356 . S
C27 H75 0.930 . S
C28 N25 1.279 . S
C28 C27 1.358 . S
C28 H31 0.930 . S
C29 C26 1.348 . S
C29 C27 1.356 . S
H30 C24 0.930 . S
H31 C28 0.930 . S
C32 C34 1.348 . S
C32 C35 1.356 . S
C32 O62 1.325 . S
N33 C36 1.314 . S
N33 C37 1.279 . S
C34 C32 1.348 . S
C34 C36 1.353 . S
C34 H76 0.929 . S
C35 C32 1.356 . S
C35 C37 1.358 . S
C35 H77 0.930 . S
C36 N33 1.314 . S
C36 C34 1.353 . S
C36 H78 0.930 . S
C37 N33 1.279 . S
C37 C35 1.358 . S
C37 H79 0.930 . S
C38 C39 1.348 1_554 S
C38 C40 1.356 . S
C38 O63 1.325 . S
C39 C38 1.348 1_556 S
C39 C41 1.353 . S
C39 H80 0.929 . S
C40 C38 1.356 . S
C40 C42 1.358 . S
C40 H81 0.930 . S
C41 C39 1.353 . S
C41 N43 1.314 . S
C41 H82 0.930 . S
C42 C40 1.358 . S
C42 N43 1.279 1_554 S
C42 H83 0.930 . S
N43 C41 1.314 . S
N43 C42 1.279 1_556 S
C44 C46 1.353 . S
C44 N47 1.314 . S
C44 H50 0.930 . S
C45 N47 1.279 . S
C45 C48 1.358 . S
C45 H51 0.930 . S
C46 C44 1.353 . S
C46 C49 1.348 . S
C46 H84 0.929 . S
N47 Li2 1.990 . S
N47 C44 1.314 . S
N47 C45 1.279 . S
C48 C45 1.358 . S
C48 C49 1.356 . S
C48 H85 0.930 . S
C49 C46 1.348 . S
C49 C48 1.356 . S
H50 C44 0.930 . S
H51 C45 0.930 . S
C52 N53 1.314 . S
C52 C54 1.353 . S
C52 H58 0.930 . S
N53 Li3 1.990 . S
N53 C52 1.314 . S
N53 C56 1.279 1_554 S
C54 C52 1.353 . S
C54 C57 1.348 1_554 S
C54 H86 0.929 . S
C55 C56 1.358 . S
C55 C57 1.356 . S
C55 H87 0.930 . S
C56 N53 1.279 1_556 S
C56 C55 1.358 . S
C56 H59 0.930 . S
C57 C54 1.348 1_556 S
C57 C55 1.356 . S
H58 C52 0.930 . S
H59 C56 0.930 . S
O60 Li0 1.956 . S
O60 Li1 1.970 . S
O60 Li2 1.961 1_554 S
O60 C4 1.325 . S
O61 Li0 1.970 . S
O61 Li1 1.956 . S
O61 Li3 1.961 . S
O61 C10 1.325 . S
O62 Li0 1.961 1_556 S
O62 Li2 1.956 . S
O62 Li3 1.970 1_556 S
O62 C32 1.325 . S
O63 Li1 1.961 . S
O63 Li2 1.970 1_554 S
O63 Li3 1.956 . S
O63 C38 1.325 . S
H64 C6 0.929 . S
H65 C7 0.930 1_556 S
H66 C8 0.930 . S
H67 C9 0.930 . S
H68 C11 0.930 . S
H69 C13 0.929 . S
H70 C14 0.930 . S
H71 C15 0.930 . S
H72 C18 0.930 . S
H73 C21 0.929 . S
H74 C26 0.929 . S
H75 C27 0.930 . S
H76 C34 0.929 . S
H77 C35 0.930 . S
H78 C36 0.930 . S
H79 C37 0.930 . S
H80 C39 0.929 . S
H81 C40 0.930 . S
H82 C41 0.930 . S
H83 C42 0.930 . S
H84 C46 0.929 . S
H85 C48 0.930 . S
H86 C54 0.929 . S
H87 C55 0.930 . S
Li88 N105 1.990 . S
Li88 O148 1.956 . S
Li88 O149 1.970 . S
Li88 O150 1.961 . S
Li89 N113 1.990 . S
Li89 O148 1.970 . S
Li89 O149 1.956 . S
Li89 O151 1.961 . S
Li90 N135 1.990 . S
Li90 O148 1.961 . S
Li90 O150 1.956 . S
Li90 O151 1.970 . S
Li91 N141 1.990 . S
Li91 O149 1.961 . S
Li91 O150 1.970 . S
Li91 O151 1.956 . S
C92 C94 1.348 . S
C92 C95 1.356 . S
C92 O148 1.325 . S
N93 C96 1.314 . S
N93 C97 1.279 . S
C94 C92 1.348 . S
C94 C96 1.353 . S
C94 H152 0.929 . S
C95 C92 1.356 . S
C95 C97 1.358 . S
C95 H153 0.930 . S
C96 N93 1.314 . S
C96 C94 1.353 . S
C96 H154 0.930 . S
C97 N93 1.279 . S
C97 C95 1.358 . S
C97 H155 0.930 . S
C98 C101 1.348 . S
C98 C102 1.356 . S
C98 O149 1.325 . S
C99 N100 1.279 . S
C99 C102 1.358 . S
C99 H156 0.930 . S
N100 C99 1.279 . S
N100 C103 1.314 . S
C101 C98 1.348 . S
C101 C103 1.353 . S
C101 H157 0.929 . S
C102 C98 1.356 . S
C102 C99 1.358 . S
C102 H158 0.930 . S
C103 N100 1.314 . S
C103 C101 1.353 . S
C103 H159 0.930 . S
C104 N105 1.314 . S
C104 C109 1.353 . S
C104 H110 0.930 . S
N105 Li88 1.990 . S
N105 C104 1.314 . S
N105 C107 1.279 . S
C106 C107 1.358 . S
C106 C108 1.356 . S
C106 H160 0.930 . S
C107 N105 1.279 . S
C107 C106 1.358 . S
C107 H111 0.930 . S
C108 C106 1.356 . S
C108 C109 1.348 . S
C109 C104 1.353 . S
C109 C108 1.348 . S
C109 H161 0.929 . S
H110 C104 0.930 . S
H111 C107 0.930 . S
C112 N113 1.314 . S
C112 C114 1.353 . S
C112 H118 0.930 . S
N113 Li89 1.990 . S
N113 C112 1.314 . S
N113 C116 1.279 . S
C114 C112 1.353 . S
C114 C117 1.348 . S
C114 H162 0.929 . S
C115 C116 1.358 . S
C115 C117 1.356 . S
C115 H163 0.930 . S
C116 N113 1.279 . S
C116 C115 1.358 . S
C116 H119 0.930 . S
C117 C114 1.348 . S
C117 C115 1.356 . S
H118 C112 0.930 . S
H119 C116 0.930 . S
C120 C122 1.348 . S
C120 C123 1.356 . S
C120 O150 1.325 . S
N121 C124 1.314 . S
N121 C125 1.279 . S
C122 C120 1.348 . S
C122 C124 1.353 . S
C122 H164 0.929 . S
C123 C120 1.356 . S
C123 C125 1.358 . S
C123 H165 0.930 . S
C124 N121 1.314 . S
C124 C122 1.353 . S
C124 H166 0.930 . S
C125 N121 1.279 . S
C125 C123 1.358 . S
C125 H167 0.930 . S
C126 C127 1.348 . S
C126 C128 1.356 . S
C126 O151 1.325 . S
C127 C126 1.348 . S
C127 C129 1.353 . S
C127 H168 0.929 . S
C128 C126 1.356 . S
C128 C130 1.358 . S
C128 H169 0.930 . S
C129 C127 1.353 . S
C129 N131 1.314 . S
C129 H170 0.930 . S
C130 C128 1.358 . S
C130 N131 1.279 . S
C130 H171 0.930 . S
N131 C129 1.314 . S
N131 C130 1.279 . S
C132 C134 1.353 . S
C132 N135 1.314 . S
C132 H138 0.930 . S
C133 N135 1.279 . S
C133 C136 1.358 . S
C133 H139 0.930 . S
C134 C132 1.353 . S
C134 C137 1.348 . S
C134 H172 0.929 . S
N135 Li90 1.990 . S
N135 C132 1.314 . S
N135 C133 1.279 . S
C136 C133 1.358 . S
C136 C137 1.356 . S
C136 H173 0.930 1_554 S
C137 C134 1.348 . S
C137 C136 1.356 . S
H138 C132 0.930 . S
H139 C133 0.930 . S
C140 N141 1.314 . S
C140 C142 1.353 . S
C140 H146 0.930 . S
N141 Li91 1.990 . S
N141 C140 1.314 . S
N141 C144 1.279 . S
C142 C140 1.353 . S
C142 C145 1.348 . S
C142 H174 0.929 . S
C143 C144 1.358 . S
C143 C145 1.356 . S
C143 H175 0.930 . S
C144 N141 1.279 . S
C144 C143 1.358 . S
C144 H147 0.930 . S
C145 C142 1.348 . S
C145 C143 1.356 . S
H146 C140 0.930 . S
H147 C144 0.930 . S
O148 Li88 1.956 . S
O148 Li89 1.970 . S
O148 Li90 1.961 . S
O148 C92 1.325 . S
O149 Li88 1.970 . S
O149 Li89 1.956 . S
O149 Li91 1.961 . S
O149 C98 1.325 . S
O150 Li88 1.961 . S
O150 Li90 1.956 . S
O150 Li91 1.970 . S
O150 C120 1.325 . S
O151 Li89 1.961 . S
O151 Li90 1.970 . S
O151 Li91 1.956 . S
O151 C126 1.325 . S
H152 C94 0.929 . S
H153 C95 0.930 . S
H154 C96 0.930 . S
H155 C97 0.930 . S
H156 C99 0.930 . S
H157 C101 0.929 . S
H158 C102 0.930 . S
H159 C103 0.930 . S
H160 C106 0.930 . S
H161 C109 0.929 . S
H162 C114 0.929 . S
H163 C115 0.930 . S
H164 C122 0.929 . S
H165 C123 0.930 . S
H166 C124 0.930 . S
H167 C125 0.930 . S
H168 C127 0.929 . S
H169 C128 0.930 . S
H170 C129 0.930 . S
H171 C130 0.930 . S
H172 C134 0.929 . S
H173 C136 0.930 1_556 S
H174 C142 0.929 . S
H175 C143 0.930 . S
Li176 N193 1.990 . S
Li176 O236 1.956 . S
Li176 O237 1.970 . S
Li176 O238 1.961 . S
Li177 N201 1.990 . S
Li177 O236 1.970 . S
Li177 O237 1.956 . S
Li177 O239 1.961 . S
Li178 N223 1.990 . S
Li178 O236 1.961 . S
Li178 O238 1.956 . S
Li178 O239 1.970 . S
Li179 N229 1.990 . S
Li179 O237 1.961 . S
Li179 O238 1.970 . S
Li179 O239 1.956 . S
C180 C182 1.348 . S
C180 C183 1.356 . S
C180 O236 1.325 . S
N181 C184 1.314 . S
N181 C185 1.279 . S
C182 C180 1.348 . S
C182 C184 1.353 . S
C182 H240 0.929 . S
C183 C180 1.356 . S
C183 C185 1.358 . S
C183 H241 0.930 . S
C184 N181 1.314 . S
C184 C182 1.353 . S
C184 H242 0.930 . S
C185 N181 1.279 . S
C185 C183 1.358 . S
C185 H243 0.930 . S
C186 C189 1.348 . S
C186 C190 1.356 . S
C186 O237 1.325 . S
C187 N188 1.279 . S
C187 C190 1.358 . S
C187 H244 0.930 . S
N188 C187 1.279 . S
N188 C191 1.314 . S
C189 C186 1.348 . S
C189 C191 1.353 . S
C189 H245 0.929 . S
C190 C186 1.356 . S
C190 C187 1.358 . S
C190 H246 0.930 . S
C191 N188 1.314 . S
C191 C189 1.353 . S
C191 H247 0.930 . S
C192 N193 1.314 . S
C192 C197 1.353 . S
C192 H198 0.930 . S
N193 Li176 1.990 . S
N193 C192 1.314 . S
N193 C195 1.279 . S
C194 C195 1.358 . S
C194 C196 1.356 . S
C194 H248 0.930 . S
C195 N193 1.279 . S
C195 C194 1.358 . S
C195 H199 0.930 . S
C196 C194 1.356 . S
C196 C197 1.348 . S
C197 C192 1.353 . S
C197 C196 1.348 . S
C197 H249 0.929 . S
H198 C192 0.930 . S
H199 C195 0.930 . S
C200 N201 1.314 . S
C200 C202 1.353 . S
C200 H206 0.930 . S
N201 Li177 1.990 . S
N201 C200 1.314 . S
N201 C204 1.279 . S
C202 C200 1.353 . S
C202 C205 1.348 . S
C202 H250 0.929 . S
C203 C204 1.358 . S
C203 C205 1.356 . S
C203 H251 0.930 . S
C204 N201 1.279 . S
C204 C203 1.358 . S
C204 H207 0.930 . S
C205 C202 1.348 . S
C205 C203 1.356 . S
H206 C200 0.930 . S
H207 C204 0.930 . S
C208 C210 1.348 . S
C208 C211 1.356 . S
C208 O238 1.325 . S
N209 C212 1.314 . S
N209 C213 1.279 . S
C210 C208 1.348 . S
C210 C212 1.353 . S
C210 H252 0.929 . S
C211 C208 1.356 . S
C211 C213 1.358 . S
C211 H253 0.930 . S
C212 N209 1.314 . S
C212 C210 1.353 . S
C212 H254 0.930 . S
C213 N209 1.279 . S
C213 C211 1.358 . S
C213 H255 0.930 . S
C214 C215 1.348 . S
C214 C216 1.356 . S
C214 O239 1.325 . S
C215 C214 1.348 . S
C215 C217 1.353 . S
C215 H256 0.929 . S
C216 C214 1.356 . S
C216 C218 1.358 . S
C216 H257 0.930 . S
C217 C215 1.353 . S
C217 N219 1.314 . S
C217 H258 0.930 . S
C218 C216 1.358 . S
C218 N219 1.279 . S
C218 H259 0.930 . S
N219 C217 1.314 . S
N219 C218 1.279 . S
C220 C222 1.353 . S
C220 N223 1.314 . S
C220 H226 0.930 . S
C221 N223 1.279 . S
C221 C224 1.358 . S
C221 H227 0.930 . S
C222 C220 1.353 . S
C222 C225 1.348 . S
C222 H260 0.929 . S
N223 Li178 1.990 . S
N223 C220 1.314 . S
N223 C221 1.279 . S
C224 C221 1.358 . S
C224 C225 1.356 . S
C224 H261 0.930 . S
C225 C222 1.348 . S
C225 C224 1.356 . S
H226 C220 0.930 . S
H227 C221 0.930 . S
C228 N229 1.314 . S
C228 C230 1.353 . S
C228 H234 0.930 . S
N229 Li179 1.990 . S
N229 C228 1.314 . S
N229 C232 1.279 . S
C230 C228 1.353 . S
C230 C233 1.348 . S
C230 H262 0.929 . S
C231 C232 1.358 . S
C231 C233 1.356 . S
C231 H263 0.930 . S
C232 N229 1.279 . S
C232 C231 1.358 . S
C232 H235 0.930 . S
C233 C230 1.348 . S
C233 C231 1.356 . S
H234 C228 0.930 . S
H235 C232 0.930 . S
O236 Li176 1.956 . S
O236 Li177 1.970 . S
O236 Li178 1.961 . S
O236 C180 1.325 . S
O237 Li176 1.970 . S
O237 Li177 1.956 . S
O237 Li179 1.961 . S
O237 C186 1.325 . S
O238 Li176 1.961 . S
O238 Li178 1.956 . S
O238 Li179 1.970 . S
O238 C208 1.325 . S
O239 Li177 1.961 . S
O239 Li178 1.970 . S
O239 Li179 1.956 . S
O239 C214 1.325 . S
H240 C182 0.929 . S
H241 C183 0.930 . S
H242 C184 0.930 . S
H243 C185 0.930 . S
H244 C187 0.930 . S
H245 C189 0.929 . S
H246 C190 0.930 . S
H247 C191 0.930 . S
H248 C194 0.930 . S
H249 C197 0.929 . S
H250 C202 0.929 . S
H251 C203 0.930 . S
H252 C210 0.929 . S
H253 C211 0.930 . S
H254 C212 0.930 . S
H255 C213 0.930 . S
H256 C215 0.929 . S
H257 C216 0.930 . S
H258 C217 0.930 . S
H259 C218 0.930 . S
H260 C222 0.929 . S
H261 C224 0.930 . S
H262 C230 0.929 . S
H263 C231 0.930 . S
Li264 N281 1.990 . S
Li264 O324 1.956 . S
Li264 O325 1.970 . S
Li264 O326 1.961 . S
Li265 N289 1.990 . S
Li265 O324 1.970 . S
Li265 O325 1.956 . S
Li265 O327 1.961 . S
Li266 N311 1.990 . S
Li266 O324 1.961 . S
Li266 O326 1.956 . S
Li266 O327 1.970 . S
Li267 N317 1.990 . S
Li267 O325 1.961 . S
Li267 O326 1.970 . S
Li267 O327 1.956 . S
C268 C270 1.348 . S
C268 C271 1.356 . S
C268 O324 1.325 . S
N269 C272 1.314 . S
N269 C273 1.279 . S
C270 C268 1.348 . S
C270 C272 1.353 . S
C270 H328 0.929 . S
C271 C268 1.356 . S
C271 C273 1.358 . S
C271 H329 0.930 . S
C272 N269 1.314 . S
C272 C270 1.353 . S
C272 H330 0.930 . S
C273 N269 1.279 . S
C273 C271 1.358 . S
C273 H331 0.930 . S
C274 C277 1.348 . S
C274 C278 1.356 . S
C274 O325 1.325 . S
C275 N276 1.279 . S
C275 C278 1.358 . S
C275 H332 0.930 . S
N276 C275 1.279 . S
N276 C279 1.314 . S
C277 C274 1.348 . S
C277 C279 1.353 . S
C277 H333 0.929 . S
C278 C274 1.356 . S
C278 C275 1.358 . S
C278 H334 0.930 . S
C279 N276 1.314 . S
C279 C277 1.353 . S
C279 H335 0.930 . S
C280 N281 1.314 . S
C280 C285 1.353 . S
C280 H286 0.930 . S
N281 Li264 1.990 . S
N281 C280 1.314 . S
N281 C283 1.279 . S
C282 C283 1.358 . S
C282 C284 1.356 . S
C282 H336 0.930 . S
C283 N281 1.279 . S
C283 C282 1.358 . S
C283 H287 0.930 . S
C284 C282 1.356 . S
C284 C285 1.348 . S
C285 C280 1.353 . S
C285 C284 1.348 . S
C285 H337 0.929 . S
H286 C280 0.930 . S
H287 C283 0.930 . S
C288 N289 1.314 . S
C288 C290 1.353 . S
C288 H294 0.930 . S
N289 Li265 1.990 . S
N289 C288 1.314 . S
N289 C292 1.279 . S
C290 C288 1.353 . S
C290 C293 1.348 . S
C290 H338 0.929 . S
C291 C292 1.358 . S
C291 C293 1.356 . S
C291 H339 0.930 . S
C292 N289 1.279 . S
C292 C291 1.358 . S
C292 H295 0.930 . S
C293 C290 1.348 . S
C293 C291 1.356 . S
H294 C288 0.930 . S
H295 C292 0.930 . S
C296 C298 1.348 . S
C296 C299 1.356 . S
C296 O326 1.325 . S
N297 C300 1.314 . S
N297 C301 1.279 . S
C298 C296 1.348 . S
C298 C300 1.353 . S
C298 H340 0.929 . S
C299 C296 1.356 . S
C299 C301 1.358 . S
C299 H341 0.930 . S
C300 N297 1.314 . S
C300 C298 1.353 . S
C300 H342 0.930 . S
C301 N297 1.279 . S
C301 C299 1.358 . S
C301 H343 0.930 . S
C302 C303 1.348 . S
C302 C304 1.356 . S
C302 O327 1.325 . S
C303 C302 1.348 . S
C303 C305 1.353 . S
C303 H344 0.929 . S
C304 C302 1.356 . S
C304 C306 1.358 . S
C304 H345 0.930 . S
C305 C303 1.353 . S
C305 N307 1.314 . S
C305 H346 0.930 . S
C306 C304 1.358 . S
C306 N307 1.279 . S
C306 H347 0.930 . S
N307 C305 1.314 . S
N307 C306 1.279 . S
C308 C310 1.353 . S
C308 N311 1.314 . S
C308 H314 0.930 . S
C309 N311 1.279 . S
C309 C312 1.358 . S
C309 H315 0.930 . S
C310 C308 1.353 . S
C310 C313 1.348 . S
C310 H348 0.929 . S
N311 Li266 1.990 . S
N311 C308 1.314 . S
N311 C309 1.279 . S
C312 C309 1.358 . S
C312 C313 1.356 . S
C312 H349 0.930 . S
C313 C310 1.348 . S
C313 C312 1.356 . S
H314 C308 0.930 . S
H315 C309 0.930 . S
C316 N317 1.314 . S
C316 C318 1.353 . S
C316 H322 0.930 . S
N317 Li267 1.990 . S
N317 C316 1.314 . S
N317 C320 1.279 . S
C318 C316 1.353 . S
C318 C321 1.348 . S
C318 H350 0.929 . S
C319 C320 1.358 . S
C319 C321 1.356 . S
C319 H351 0.930 . S
C320 N317 1.279 . S
C320 C319 1.358 . S
C320 H323 0.930 . S
C321 C318 1.348 . S
C321 C319 1.356 . S
H322 C316 0.930 . S
H323 C320 0.930 . S
O324 Li264 1.956 . S
O324 Li265 1.970 . S
O324 Li266 1.961 . S
O324 C268 1.325 . S
O325 Li264 1.970 . S
O325 Li265 1.956 . S
O325 Li267 1.961 . S
O325 C274 1.325 . S
O326 Li264 1.961 . S
O326 Li266 1.956 . S
O326 Li267 1.970 . S
O326 C296 1.325 . S
O327 Li265 1.961 . S
O327 Li266 1.970 . S
O327 Li267 1.956 . S
O327 C302 1.325 . S
H328 C270 0.929 . S
H329 C271 0.930 . S
H330 C272 0.930 . S
H331 C273 0.930 . S
H332 C275 0.930 . S
H333 C277 0.929 . S
H334 C278 0.930 . S
H335 C279 0.930 . S
H336 C282 0.930 . S
H337 C285 0.929 . S
H338 C290 0.929 . S
H339 C291 0.930 . S
H340 C298 0.929 . S
H341 C299 0.930 . S
H342 C300 0.930 . S
H343 C301 0.930 . S
H344 C303 0.929 . S
H345 C304 0.930 . S
H346 C305 0.930 . S
H347 C306 0.930 . S
H348 C310 0.929 . S
H349 C312 0.930 . S
H350 C318 0.929 . S
H351 C319 0.930 . S
Li352 N369 1.990 . S
Li352 O412 1.956 . S
Li352 O413 1.970 . S
Li352 O414 1.961 . S
Li353 N377 1.990 . S
Li353 O412 1.970 . S
Li353 O413 1.956 . S
Li353 O415 1.961 . S
Li354 N399 1.990 . S
Li354 O412 1.961 . S
Li354 O414 1.956 . S
Li354 O415 1.970 . S
Li355 N405 1.990 . S
Li355 O413 1.961 . S
Li355 O414 1.970 . S
Li355 O415 1.956 . S
C356 C358 1.348 . S
C356 C359 1.356 . S
C356 O412 1.325 . S
N357 C360 1.314 . S
N357 C361 1.279 . S
C358 C356 1.348 . S
C358 C360 1.353 . S
C358 H416 0.929 . S
C359 C356 1.356 . S
C359 C361 1.358 . S
C359 H417 0.930 . S
C360 N357 1.314 . S
C360 C358 1.353 . S
C360 H418 0.930 . S
C361 N357 1.279 . S
C361 C359 1.358 . S
C361 H419 0.930 . S
C362 C365 1.348 . S
C362 C366 1.356 . S
C362 O413 1.325 . S
C363 N364 1.279 . S
C363 C366 1.358 . S
C363 H420 0.930 . S
N364 C363 1.279 . S
N364 C367 1.314 . S
C365 C362 1.348 . S
C365 C367 1.353 . S
C365 H421 0.929 . S
C366 C362 1.356 . S
C366 C363 1.358 . S
C366 H422 0.930 . S
C367 N364 1.314 . S
C367 C365 1.353 . S
C367 H423 0.930 . S
C368 N369 1.314 . S
C368 C373 1.353 . S
C368 H374 0.930 . S
N369 Li352 1.990 . S
N369 C368 1.314 . S
N369 C371 1.279 . S
C370 C371 1.358 . S
C370 C372 1.356 . S
C370 H424 0.930 . S
C371 N369 1.279 . S
C371 C370 1.358 . S
C371 H375 0.930 . S
C372 C370 1.356 . S
C372 C373 1.348 . S
C373 C368 1.353 . S
C373 C372 1.348 . S
C373 H425 0.929 . S
H374 C368 0.930 . S
H375 C371 0.930 . S
C376 N377 1.314 . S
C376 C378 1.353 . S
C376 H382 0.930 . S
N377 Li353 1.990 . S
N377 C376 1.314 . S
N377 C380 1.279 . S
C378 C376 1.353 . S
C378 C381 1.348 . S
C378 H426 0.929 . S
C379 C380 1.358 . S
C379 C381 1.356 . S
C379 H427 0.930 . S
C380 N377 1.279 . S
C380 C379 1.358 . S
C380 H383 0.930 . S
C381 C378 1.348 . S
C381 C379 1.356 . S
H382 C376 0.930 . S
H383 C380 0.930 . S
C384 C386 1.348 . S
C384 C387 1.356 . S
C384 O414 1.325 . S
N385 C388 1.314 . S
N385 C389 1.279 . S
C386 C384 1.348 . S
C386 C388 1.353 . S
C386 H428 0.929 . S
C387 C384 1.356 . S
C387 C389 1.358 . S
C387 H429 0.930 . S
C388 N385 1.314 . S
C388 C386 1.353 . S
C388 H430 0.930 . S
C389 N385 1.279 . S
C389 C387 1.358 . S
C389 H431 0.930 . S
C390 C391 1.348 . S
C390 C392 1.356 . S
C390 O415 1.325 . S
C391 C390 1.348 . S
C391 C393 1.353 . S
C391 H432 0.929 . S
C392 C390 1.356 . S
C392 C394 1.358 . S
C392 H433 0.930 . S
C393 C391 1.353 . S
C393 N395 1.314 . S
C393 H434 0.930 . S
C394 C392 1.358 . S
C394 N395 1.279 . S
C394 H435 0.930 . S
N395 C393 1.314 . S
N395 C394 1.279 . S
C396 C398 1.353 . S
C396 N399 1.314 . S
C396 H402 0.930 . S
C397 N399 1.279 . S
C397 C400 1.358 . S
C397 H403 0.930 . S
C398 C396 1.353 . S
C398 C401 1.348 . S
C398 H436 0.929 . S
N399 Li354 1.990 . S
N399 C396 1.314 . S
N399 C397 1.279 . S
C400 C397 1.358 . S
C400 C401 1.356 . S
C400 H437 0.930 . S
C401 C398 1.348 . S
C401 C400 1.356 . S
H402 C396 0.930 . S
H403 C397 0.930 . S
C404 N405 1.314 . S
C404 C406 1.353 . S
C404 H410 0.930 . S
N405 Li355 1.990 . S
N405 C404 1.314 . S
N405 C408 1.279 . S
C406 C404 1.353 . S
C406 C409 1.348 . S
C406 H438 0.929 . S
C407 C408 1.358 . S
C407 C409 1.356 . S
C407 H439 0.930 . S
C408 N405 1.279 . S
C408 C407 1.358 . S
C408 H411 0.930 . S
C409 C406 1.348 . S
C409 C407 1.356 . S
H410 C404 0.930 . S
H411 C408 0.930 . S
O412 Li352 1.956 . S
O412 Li353 1.970 . S
O412 Li354 1.961 . S
O412 C356 1.325 . S
O413 Li352 1.970 . S
O413 Li353 1.956 . S
O413 Li355 1.961 . S
O413 C362 1.325 . S
O414 Li352 1.961 . S
O414 Li354 1.956 . S
O414 Li355 1.970 . S
O414 C384 1.325 . S
O415 Li353 1.961 . S
O415 Li354 1.970 . S
O415 Li355 1.956 . S
O415 C390 1.325 . S
H416 C358 0.929 . S
H417 C359 0.930 . S
H418 C360 0.930 . S
H419 C361 0.930 . S
H420 C363 0.930 . S
H421 C365 0.929 . S
H422 C366 0.930 . S
H423 C367 0.930 . S
H424 C370 0.930 . S
H425 C373 0.929 . S
H426 C378 0.929 . S
H427 C379 0.930 . S
H428 C386 0.929 . S
H429 C387 0.930 . S
H430 C388 0.930 . S
H431 C389 0.930 . S
H432 C391 0.929 . S
H433 C392 0.930 . S
H434 C393 0.930 . S
H435 C394 0.930 . S
H436 C398 0.929 . S
H437 C400 0.930 . S
H438 C406 0.929 . S
H439 C407 0.930 . S
Li440 N457 1.990 . S
Li440 O500 1.956 . S
Li440 O501 1.970 . S
Li440 O502 1.961 . S
Li441 N465 1.990 . S
Li441 O500 1.970 . S
Li441 O501 1.956 . S
Li441 O503 1.961 . S
Li442 N487 1.990 . S
Li442 O500 1.961 . S
Li442 O502 1.956 . S
Li442 O503 1.970 . S
Li443 N493 1.990 . S
Li443 O501 1.961 . S
Li443 O502 1.970 . S
Li443 O503 1.956 . S
C444 C446 1.348 . S
C444 C447 1.356 . S
C444 O500 1.325 . S
N445 C448 1.314 . S
N445 C449 1.279 . S
C446 C444 1.348 . S
C446 C448 1.353 . S
C446 H504 0.929 . S
C447 C444 1.356 . S
C447 C449 1.358 . S
C447 H505 0.930 . S
C448 N445 1.314 . S
C448 C446 1.353 . S
C448 H506 0.930 . S
C449 N445 1.279 . S
C449 C447 1.358 . S
C449 H507 0.930 . S
C450 C453 1.348 . S
C450 C454 1.356 . S
C450 O501 1.325 . S
C451 N452 1.279 1_556 S
C451 C454 1.358 . S
C451 H508 0.930 1_556 S
N452 C451 1.279 1_554 S
N452 C455 1.314 . S
C453 C450 1.348 . S
C453 C455 1.353 1_556 S
C453 H509 0.929 . S
C454 C450 1.356 . S
C454 C451 1.358 . S
C454 H510 0.930 . S
C455 N452 1.314 . S
C455 C453 1.353 1_554 S
C455 H511 0.930 . S
C456 N457 1.314 . S
C456 C461 1.353 . S
C456 H462 0.930 . S
N457 Li440 1.990 . S
N457 C456 1.314 . S
N457 C459 1.279 . S
C458 C459 1.358 . S
C458 C460 1.356 . S
C458 H512 0.930 . S
C459 N457 1.279 . S
C459 C458 1.358 . S
C459 H463 0.930 . S
C460 C458 1.356 . S
C460 C461 1.348 . S
C461 C456 1.353 . S
C461 C460 1.348 . S
C461 H513 0.929 . S
H462 C456 0.930 . S
H463 C459 0.930 . S
C464 N465 1.314 . S
C464 C466 1.366 . S
C464 H470 0.930 . S
N465 Li441 1.990 . S
N465 C464 1.314 . S
N465 C468 1.279 1_556 S
C466 C464 1.366 . S
C466 C469 1.332 1_556 S
C466 H514 0.932 . S
C467 C468 1.358 . S
C467 C469 1.356 . S
C467 H515 0.930 . S
C468 N465 1.279 1_554 S
C468 C467 1.358 . S
C468 H471 0.930 . S
C469 C466 1.332 1_554 S
C469 C467 1.356 . S
H470 C464 0.930 . S
H471 C468 0.930 . S
C472 C474 1.348 . S
C472 C475 1.356 . S
C472 O502 1.325 . S
N473 C476 1.314 . S
N473 C477 1.279 . S
C474 C472 1.348 . S
C474 C476 1.353 . S
C474 H516 0.929 . S
C475 C472 1.356 . S
C475 C477 1.358 . S
C475 H517 0.930 . S
C476 N473 1.314 . S
C476 C474 1.353 . S
C476 H518 0.930 . S
C477 N473 1.279 . S
C477 C475 1.358 . S
C477 H519 0.930 . S
C478 C479 1.348 . S
C478 C480 1.356 . S
C478 O503 1.325 . S
C479 C478 1.348 . S
C479 C481 1.353 . S
C479 H520 0.929 . S
C480 C478 1.356 . S
C480 C482 1.358 . S
C480 H521 0.930 . S
C481 C479 1.353 . S
C481 N483 1.314 . S
C481 H522 0.930 . S
C482 C480 1.358 . S
C482 N483 1.279 . S
C482 H523 0.930 . S
N483 C481 1.314 . S
N483 C482 1.279 . S
C484 C486 1.353 . S
C484 N487 1.314 . S
C484 H490 0.930 . S
C485 N487 1.279 . S
C485 C488 1.358 . S
C485 H491 0.930 . S
C486 C484 1.353 . S
C486 C489 1.348 . S
C486 H524 0.929 . S
N487 Li442 1.990 . S
N487 C484 1.314 . S
N487 C485 1.279 . S
C488 C485 1.358 . S
C488 C489 1.356 . S
C488 H525 0.930 . S
C489 C486 1.348 . S
C489 C488 1.356 . S
H490 C484 0.930 . S
H491 C485 0.930 . S
C492 N493 1.314 . S
C492 C494 1.353 . S
C492 H498 0.930 . S
N493 Li443 1.990 . S
N493 C492 1.314 . S
N493 C496 1.279 . S
C494 C492 1.353 . S
C494 C497 1.348 . S
C494 H526 0.929 . S
C495 C496 1.358 . S
C495 C497 1.356 . S
C495 H527 0.930 . S
C496 N493 1.279 . S
C496 C495 1.358 . S
C496 H499 0.930 . S
C497 C494 1.348 . S
C497 C495 1.356 . S
H498 C492 0.930 . S
H499 C496 0.930 . S
O500 Li440 1.956 . S
O500 Li441 1.970 . S
O500 Li442 1.961 . S
O500 C444 1.325 . S
O501 Li440 1.970 . S
O501 Li441 1.956 . S
O501 Li443 1.961 . S
O501 C450 1.325 . S
O502 Li440 1.961 . S
O502 Li442 1.956 . S
O502 Li443 1.970 . S
O502 C472 1.325 . S
O503 Li441 1.961 . S
O503 Li442 1.970 . S
O503 Li443 1.956 . S
O503 C478 1.325 . S
H504 C446 0.929 . S
H505 C447 0.930 . S
H506 C448 0.930 . S
H507 C449 0.930 . S
H508 C451 0.930 1_554 S
H509 C453 0.929 . S
H510 C454 0.930 . S
H511 C455 0.930 . S
H512 C458 0.930 . S
H513 C461 0.929 . S
H514 C466 0.932 . S
H515 C467 0.930 . S
H516 C474 0.929 . S
H517 C475 0.930 . S
H518 C476 0.930 . S
H519 C477 0.930 . S
H520 C479 0.929 . S
H521 C480 0.930 . S
H522 C481 0.930 . S
H523 C482 0.930 . S
H524 C486 0.929 . S
H525 C488 0.930 . S
H526 C494 0.929 . S
H527 C495 0.930 . S
Li528 N545 1.990 . S
Li528 O588 1.956 . S
Li528 O589 1.970 . S
Li528 O590 1.961 . S
Li529 N553 1.990 . S
Li529 O588 1.970 . S
Li529 O589 1.956 . S
Li529 O591 1.961 . S
Li530 N575 1.990 . S
Li530 O588 1.961 . S
Li530 O590 1.956 . S
Li530 O591 1.970 . S
Li531 N581 1.990 . S
Li531 O589 1.961 . S
Li531 O590 1.970 . S
Li531 O591 1.956 . S
C532 C534 1.348 . S
C532 C535 1.356 . S
C532 O588 1.325 . S
N533 C536 1.314 . S
N533 C537 1.279 . S
C534 C532 1.348 . S
C534 C536 1.353 . S
C534 H592 0.929 . S
C535 C532 1.356 . S
C535 C537 1.358 . S
C535 H593 0.930 . S
C536 N533 1.314 . S
C536 C534 1.353 . S
C536 H594 0.930 . S
C537 N533 1.279 . S
C537 C535 1.358 . S
C537 H595 0.930 . S
C538 C541 1.348 . S
C538 C542 1.356 . S
C538 O589 1.325 . S
C539 N540 1.279 . S
C539 C542 1.358 1_554 S
C539 H596 0.930 . S
N540 C539 1.279 . S
N540 C543 1.314 . S
C541 C538 1.348 . S
C541 C543 1.353 1_556 S
C541 H597 0.929 . S
C542 C538 1.356 . S
C542 C539 1.358 1_556 S
C542 H598 0.930 . S
C543 N540 1.314 . S
C543 C541 1.353 1_554 S
C543 H599 0.930 . S
C544 N545 1.314 . S
C544 C549 1.353 . S
C544 H550 0.930 . S
N545 Li528 1.990 . S
N545 C544 1.314 . S
N545 C547 1.279 . S
C546 C547 1.358 . S
C546 C548 1.356 . S
C546 H600 0.930 . S
C547 N545 1.279 . S
C547 C546 1.358 . S
C547 H551 0.930 . S
C548 C546 1.356 . S
C548 C549 1.348 . S
C549 C544 1.353 . S
C549 C548 1.348 . S
C549 H601 0.929 . S
H550 C544 0.930 . S
H551 C547 0.930 . S
C552 N553 1.314 . S
C552 C554 1.353 . S
C552 H558 0.930 . S
N553 Li529 1.990 . S
N553 C552 1.314 . S
N553 C556 1.279 1_556 S
C554 C552 1.353 . S
C554 C557 1.348 1_556 S
C554 H602 0.929 . S
C555 C556 1.358 . S
C555 C557 1.356 . S
C555 H603 0.930 . S
C556 N553 1.279 1_554 S
C556 C555 1.358 . S
C556 H559 0.930 . S
C557 C554 1.348 1_554 S
C557 C555 1.356 . S
H558 C552 0.930 . S
H559 C556 0.930 . S
C560 C562 1.348 . S
C560 C563 1.356 . S
C560 O590 1.325 . S
N561 C564 1.314 . S
N561 C565 1.279 . S
C562 C560 1.348 . S
C562 C564 1.353 . S
C562 H604 0.929 . S
C563 C560 1.356 . S
C563 C565 1.358 . S
C563 H605 0.930 . S
C564 N561 1.314 . S
C564 C562 1.353 . S
C564 H606 0.930 . S
C565 N561 1.279 . S
C565 C563 1.358 . S
C565 H607 0.930 . S
C566 C567 1.348 . S
C566 C568 1.356 . S
C566 O591 1.325 . S
C567 C566 1.348 . S
C567 C569 1.353 . S
C567 H608 0.929 . S
C568 C566 1.356 . S
C568 C570 1.358 . S
C568 H609 0.930 . S
C569 C567 1.353 . S
C569 N571 1.314 . S
C569 H610 0.930 . S
C570 C568 1.358 . S
C570 N571 1.279 . S
C570 H611 0.930 . S
N571 C569 1.314 . S
N571 C570 1.279 . S
C572 C574 1.353 . S
C572 N575 1.314 . S
C572 H578 0.930 . S
C573 N575 1.279 . S
C573 C576 1.358 . S
C573 H579 0.930 . S
C574 C572 1.353 . S
C574 C577 1.348 . S
C574 H612 0.929 . S
N575 Li530 1.990 . S
N575 C572 1.314 . S
N575 C573 1.279 . S
C576 C573 1.358 . S
C576 C577 1.356 . S
C576 H613 0.930 . S
C577 C574 1.348 . S
C577 C576 1.356 . S
H578 C572 0.930 . S
H579 C573 0.930 . S
C580 N581 1.314 . S
C580 C582 1.353 . S
C580 H586 0.930 . S
N581 Li531 1.990 . S
N581 C580 1.314 . S
N581 C584 1.279 . S
C582 C580 1.353 . S
C582 C585 1.348 . S
C582 H614 0.929 . S
C583 C584 1.358 . S
C583 C585 1.356 . S
C583 H615 0.930 . S
C584 N581 1.279 . S
C584 C583 1.358 . S
C584 H587 0.930 . S
C585 C582 1.348 . S
C585 C583 1.356 . S
H586 C580 0.930 . S
H587 C584 0.930 . S
O588 Li528 1.956 . S
O588 Li529 1.970 . S
O588 Li530 1.961 . S
O588 C532 1.325 . S
O589 Li528 1.970 . S
O589 Li529 1.956 . S
O589 Li531 1.961 . S
O589 C538 1.325 . S
O590 Li528 1.961 . S
O590 Li530 1.956 . S
O590 Li531 1.970 . S
O590 C560 1.325 . S
O591 Li529 1.961 . S
O591 Li530 1.970 . S
O591 Li531 1.956 . S
O591 C566 1.325 . S
H592 C534 0.929 . S
H593 C535 0.930 . S
H594 C536 0.930 . S
H595 C537 0.930 . S
H596 C539 0.930 . S
H597 C541 0.929 . S
H598 C542 0.930 . S
H599 C543 0.930 . S
H600 C546 0.930 . S
H601 C549 0.929 . S
H602 C554 0.929 . S
H603 C555 0.930 . S
H604 C562 0.929 . S
H605 C563 0.930 . S
H606 C564 0.930 . S
H607 C565 0.930 . S
H608 C567 0.929 . S
H609 C568 0.930 . S
H610 C569 0.930 . S
H611 C570 0.930 . S
H612 C574 0.929 . S
H613 C576 0.930 . S
H614 C582 0.929 . S
H615 C583 0.930 . S
Li616 N633 1.990 . S
Li616 O676 1.956 . S
Li616 O677 1.970 . S
Li616 O678 1.961 . S
Li617 N641 1.990 . S
Li617 O676 1.970 . S
Li617 O677 1.956 . S
Li617 O679 1.961 1_554 S
Li618 N663 1.990 . S
Li618 O676 1.961 . S
Li618 O678 1.956 . S
Li618 O679 1.970 1_554 S
Li619 N669 1.990 . S
Li619 O677 1.961 1_556 S
Li619 O678 1.970 1_556 S
Li619 O679 1.956 . S
C620 C622 1.348 . S
C620 C623 1.356 . S
C620 O676 1.325 . S
N621 C624 1.314 . S
N621 C625 1.279 . S
C622 C620 1.348 . S
C622 C624 1.353 . S
C622 H680 0.929 . S
C623 C620 1.356 . S
C623 C625 1.358 . S
C623 H681 0.930 . S
C624 N621 1.314 . S
C624 C622 1.353 . S
C624 H682 0.930 . S
C625 N621 1.279 . S
C625 C623 1.358 . S
C625 H683 0.930 . S
C626 C629 1.348 . S
C626 C630 1.356 . S
C626 O677 1.325 . S
C627 N628 1.279 . S
C627 C630 1.358 . S
C627 H684 0.930 . S
N628 C627 1.279 . S
N628 C631 1.314 . S
C629 C626 1.348 . S
C629 C631 1.353 . S
C629 H685 0.929 . S
C630 C626 1.356 . S
C630 C627 1.358 . S
C630 H686 0.930 . S
C631 N628 1.314 . S
C631 C629 1.353 . S
C631 H687 0.930 . S
C632 N633 1.314 . S
C632 C637 1.353 . S
C632 H638 0.930 . S
N633 Li616 1.990 . S
N633 C632 1.314 . S
N633 C635 1.279 . S
C634 C635 1.358 . S
C634 C636 1.356 . S
C634 H688 0.930 . S
C635 N633 1.279 . S
C635 C634 1.358 . S
C635 H639 0.930 . S
C636 C634 1.356 . S
C636 C637 1.348 . S
C637 C632 1.353 . S
C637 C636 1.348 . S
C637 H689 0.929 . S
H638 C632 0.930 . S
H639 C635 0.930 . S
C640 N641 1.314 . S
C640 C642 1.353 . S
C640 H646 0.930 . S
N641 Li617 1.990 . S
N641 C640 1.314 . S
N641 C644 1.279 . S
C642 C640 1.353 . S
C642 C645 1.348 . S
C642 H690 0.929 . S
C643 C644 1.358 . S
C643 C645 1.356 . S
C643 H691 0.930 . S
C644 N641 1.279 . S
C644 C643 1.358 . S
C644 H647 0.930 . S
C645 C642 1.348 . S
C645 C643 1.356 . S
H646 C640 0.930 . S
H647 C644 0.930 . S
C648 C650 1.348 1_554 S
C648 C651 1.356 . S
C648 O678 1.325 . S
N649 C652 1.314 . S
N649 C653 1.279 1_556 S
C650 C648 1.348 1_556 S
C650 C652 1.353 . S
C650 H692 0.929 . S
C651 C648 1.356 . S
C651 C653 1.358 . S
C651 H693 0.930 . S
C652 N649 1.314 . S
C652 C650 1.353 . S
C652 H694 0.930 . S
C653 N649 1.279 1_554 S
C653 C651 1.358 . S
C653 H695 0.930 . S
C654 C655 1.348 . S
C654 C656 1.356 . S
C654 O679 1.325 . S
C655 C654 1.348 . S
C655 C657 1.353 . S
C655 H696 0.929 . S
C656 C654 1.356 . S
C656 C658 1.358 . S
C656 H697 0.930 . S
C657 C655 1.353 . S
C657 N659 1.314 . S
C657 H698 0.930 . S
C658 C656 1.358 . S
C658 N659 1.279 . S
C658 H699 0.930 . S
N659 C657 1.314 . S
N659 C658 1.279 . S
C660 C662 1.353 . S
C660 N663 1.314 . S
C660 H666 0.930 . S
C661 N663 1.279 . S
C661 C664 1.358 1_554 S
C661 H667 0.930 1_554 S
C662 C660 1.353 . S
C662 C665 1.348 . S
C662 H700 0.929 . S
N663 Li618 1.990 . S
N663 C660 1.314 . S
N663 C661 1.279 . S
C664 C661 1.358 1_556 S
C664 C665 1.356 1_556 S
C664 H701 0.930 . S
C665 C662 1.348 . S
C665 C664 1.356 1_554 S
H666 C660 0.930 . S
H667 C661 0.930 1_556 S
C668 N669 1.314 . S
C668 C670 1.353 . S
C668 H674 0.930 . S
N669 Li619 1.990 . S
N669 C668 1.314 . S
N669 C672 1.279 . S
C670 C668 1.353 . S
C670 C673 1.348 . S
C670 H702 0.929 . S
C671 C672 1.358 . S
C671 C673 1.356 . S
C671 H703 0.930 . S
C672 N669 1.279 . S
C672 C671 1.358 . S
C672 H675 0.930 . S
C673 C670 1.348 . S
C673 C671 1.356 . S
H674 C668 0.930 . S
H675 C672 0.930 . S
O676 Li616 1.956 . S
O676 Li617 1.970 . S
O676 Li618 1.961 . S
O676 C620 1.325 . S
O677 Li616 1.970 . S
O677 Li617 1.956 . S
O677 Li619 1.961 1_554 S
O677 C626 1.325 . S
O678 Li616 1.961 . S
O678 Li618 1.956 . S
O678 Li619 1.970 1_554 S
O678 C648 1.325 . S
O679 Li617 1.961 1_556 S
O679 Li618 1.970 1_556 S
O679 Li619 1.956 . S
O679 C654 1.325 . S
H680 C622 0.929 . S
H681 C623 0.930 . S
H682 C624 0.930 . S
H683 C625 0.930 . S
H684 C627 0.930 . S
H685 C629 0.929 . S
H686 C630 0.930 . S
H687 C631 0.930 . S
H688 C634 0.930 . S
H689 C637 0.929 . S
H690 C642 0.929 . S
H691 C643 0.930 . S
H692 C650 0.929 . S
H693 C651 0.930 . S
H694 C652 0.930 . S
H695 C653 0.930 . S
H696 C655 0.929 . S
H697 C656 0.930 . S
H698 C657 0.930 . S
H699 C658 0.930 . S
H700 C662 0.929 . S
H701 C664 0.930 . S
H702 C670 0.929 . S
H703 C671 0.930 . S
Li704 N721 1.990 . S
Li704 O764 1.956 . S
Li704 O765 1.970 . S
Li704 O766 1.961 . S
Li705 N729 1.990 . S
Li705 O764 1.970 . S
Li705 O765 1.956 . S
Li705 O767 1.961 . S
Li706 N751 1.990 . S
Li706 O764 1.961 . S
Li706 O766 1.956 . S
Li706 O767 1.970 . S
Li707 N757 1.990 . S
Li707 O765 1.961 . S
Li707 O766 1.970 . S
Li707 O767 1.956 . S
C708 C710 1.348 . S
C708 C711 1.356 . S
C708 O764 1.325 . S
N709 C712 1.314 . S
N709 C713 1.279 . S
C710 C708 1.348 . S
C710 C712 1.353 . S
C710 H768 0.929 . S
C711 C708 1.356 . S
C711 C713 1.358 . S
C711 H769 0.930 . S
C712 N709 1.314 . S
C712 C710 1.353 . S
C712 H770 0.930 . S
C713 N709 1.279 . S
C713 C711 1.358 . S
C713 H771 0.930 . S
C714 C717 1.348 . S
C714 C718 1.356 . S
C714 O765 1.325 . S
C715 N716 1.279 . S
C715 C718 1.358 . S
C715 H772 0.930 . S
N716 C715 1.279 . S
N716 C719 1.314 . S
C717 C714 1.348 . S
C717 C719 1.353 . S
C717 H773 0.929 . S
C718 C714 1.356 . S
C718 C715 1.358 . S
C718 H774 0.930 . S
C719 N716 1.314 . S
C719 C717 1.353 . S
C719 H775 0.930 . S
C720 N721 1.314 . S
C720 C725 1.353 . S
C720 H726 0.930 . S
N721 Li704 1.990 . S
N721 C720 1.314 . S
N721 C723 1.279 . S
C722 C723 1.358 . S
C722 C724 1.356 . S
C722 H776 0.930 . S
C723 N721 1.279 . S
C723 C722 1.358 . S
C723 H727 0.930 . S
C724 C722 1.356 . S
C724 C725 1.348 . S
C725 C720 1.353 . S
C725 C724 1.348 . S
C725 H777 0.929 . S
H726 C720 0.930 . S
H727 C723 0.930 . S
C728 N729 1.314 . S
C728 C730 1.353 . S
C728 H734 0.930 . S
N729 Li705 1.990 . S
N729 C728 1.314 . S
N729 C732 1.279 . S
C730 C728 1.353 . S
C730 C733 1.348 . S
C730 H778 0.929 . S
C731 C732 1.358 . S
C731 C733 1.356 . S
C731 H779 0.930 . S
C732 N729 1.279 . S
C732 C731 1.358 . S
C732 H735 0.930 . S
C733 C730 1.348 . S
C733 C731 1.356 . S
H734 C728 0.930 . S
H735 C732 0.930 . S
C736 C738 1.348 . S
C736 C739 1.356 . S
C736 O766 1.325 . S
N737 C740 1.314 . S
N737 C741 1.279 . S
C738 C736 1.348 . S
C738 C740 1.353 . S
C738 H780 0.929 . S
C739 C736 1.356 . S
C739 C741 1.358 . S
C739 H781 0.930 . S
C740 N737 1.314 . S
C740 C738 1.353 . S
C740 H782 0.930 . S
C741 N737 1.279 . S
C741 C739 1.358 . S
C741 H783 0.930 . S
C742 C743 1.348 . S
C742 C744 1.356 . S
C742 O767 1.325 . S
C743 C742 1.348 . S
C743 C745 1.353 . S
C743 H784 0.929 . S
C744 C742 1.356 . S
C744 C746 1.358 . S
C744 H785 0.930 . S
C745 C743 1.353 . S
C745 N747 1.314 . S
C745 H786 0.930 . S
C746 C744 1.358 . S
C746 N747 1.279 . S
C746 H787 0.930 . S
N747 C745 1.314 . S
N747 C746 1.279 . S
C748 C750 1.353 . S
C748 N751 1.314 . S
C748 H754 0.930 . S
C749 N751 1.279 . S
C749 C752 1.358 . S
C749 H755 0.930 . S
C750 C748 1.353 . S
C750 C753 1.348 . S
C750 H788 0.929 . S
N751 Li706 1.990 . S
N751 C748 1.314 . S
N751 C749 1.279 . S
C752 C749 1.358 . S
C752 C753 1.356 . S
C752 H789 0.930 . S
C753 C750 1.348 . S
C753 C752 1.356 . S
H754 C748 0.930 . S
H755 C749 0.930 . S
C756 N757 1.314 . S
C756 C758 1.353 . S
C756 H762 0.930 . S
N757 Li707 1.990 . S
N757 C756 1.314 . S
N757 C760 1.279 . S
C758 C756 1.353 . S
C758 C761 1.348 . S
C758 H790 0.929 . S
C759 C760 1.358 . S
C759 C761 1.356 . S
C759 H791 0.910 1_554 S
C760 N757 1.279 . S
C760 C759 1.358 . S
C760 H763 0.930 . S
C761 C758 1.348 . S
C761 C759 1.356 . S
H762 C756 0.930 . S
H763 C760 0.930 . S
O764 Li704 1.956 . S
O764 Li705 1.970 . S
O764 Li706 1.961 . S
O764 C708 1.325 . S
O765 Li704 1.970 . S
O765 Li705 1.956 . S
O765 Li707 1.961 . S
O765 C714 1.325 . S
O766 Li704 1.961 . S
O766 Li706 1.956 . S
O766 Li707 1.970 . S
O766 C736 1.325 . S
O767 Li705 1.961 . S
O767 Li706 1.970 . S
O767 Li707 1.956 . S
O767 C742 1.325 . S
H768 C710 0.929 . S
H769 C711 0.930 . S
H770 C712 0.930 . S
H771 C713 0.930 . S
H772 C715 0.930 . S
H773 C717 0.929 . S
H774 C718 0.930 . S
H775 C719 0.930 . S
H776 C722 0.930 . S
H777 C725 0.929 . S
H778 C730 0.929 . S
H779 C731 0.930 . S
H780 C738 0.929 . S
H781 C739 0.930 . S
H782 C740 0.930 . S
H783 C741 0.930 . S
H784 C743 0.929 . S
H785 C744 0.930 . S
H786 C745 0.930 . S
H787 C746 0.930 . S
H788 C750 0.929 . S
H789 C752 0.930 . S
H790 C758 0.929 . S
H791 C759 0.910 1_556 S
Li792 N809 1.990 . S
Li792 O852 1.956 . S
Li792 O853 1.970 . S
Li792 O854 1.961 . S
Li793 N817 1.990 . S
Li793 O852 1.970 . S
Li793 O853 1.956 . S
Li793 O855 1.961 . S
Li794 N839 1.990 . S
Li794 O852 1.961 . S
Li794 O854 1.956 . S
Li794 O855 1.970 . S
Li795 N845 1.990 . S
Li795 O853 1.961 . S
Li795 O854 1.970 . S
Li795 O855 1.956 . S
C796 C798 1.348 . S
C796 C799 1.356 . S
C796 O852 1.325 . S
N797 C800 1.314 . S
N797 C801 1.279 . S
C798 C796 1.348 . S
C798 C800 1.353 . S
C798 H856 0.929 . S
C799 C796 1.356 . S
C799 C801 1.358 . S
C799 H857 0.930 . S
C800 N797 1.314 . S
C800 C798 1.353 . S
C800 H858 0.930 . S
C801 N797 1.279 . S
C801 C799 1.358 . S
C801 H859 0.930 . S
C802 C805 1.348 . S
C802 C806 1.356 . S
C802 O853 1.325 . S
C803 N804 1.279 . S
C803 C806 1.358 . S
C803 H860 0.930 . S
N804 C803 1.279 . S
N804 C807 1.314 . S
C805 C802 1.348 . S
C805 C807 1.353 . S
C805 H861 0.929 . S
C806 C802 1.356 . S
C806 C803 1.358 . S
C806 H862 0.930 . S
C807 N804 1.314 . S
C807 C805 1.353 . S
C807 H863 0.930 . S
C808 N809 1.314 . S
C808 C813 1.353 . S
C808 H814 0.930 . S
N809 Li792 1.990 . S
N809 C808 1.314 . S
N809 C811 1.279 . S
C810 C811 1.358 . S
C810 C812 1.356 . S
C810 H864 0.930 . S
C811 N809 1.279 . S
C811 C810 1.358 . S
C811 H815 0.930 . S
C812 C810 1.356 . S
C812 C813 1.348 . S
C813 C808 1.353 . S
C813 C812 1.348 . S
C813 H865 0.929 . S
H814 C808 0.930 . S
H815 C811 0.930 . S
C816 N817 1.314 . S
C816 C818 1.353 . S
C816 H822 0.930 . S
N817 Li793 1.990 . S
N817 C816 1.314 . S
N817 C820 1.279 . S
C818 C816 1.353 . S
C818 C821 1.348 . S
C818 H866 0.929 . S
C819 C820 1.358 . S
C819 C821 1.356 . S
C819 H867 0.930 . S
C820 N817 1.279 . S
C820 C819 1.358 . S
C820 H823 0.930 . S
C821 C818 1.348 . S
C821 C819 1.356 . S
H822 C816 0.930 . S
H823 C820 0.930 . S
C824 C826 1.348 . S
C824 C827 1.356 . S
C824 O854 1.325 . S
N825 C828 1.314 . S
N825 C829 1.279 . S
C826 C824 1.348 . S
C826 C828 1.353 . S
C826 H868 0.929 . S
C827 C824 1.356 . S
C827 C829 1.358 . S
C827 H869 0.930 . S
C828 N825 1.314 . S
C828 C826 1.353 . S
C828 H870 0.930 . S
C829 N825 1.279 . S
C829 C827 1.358 . S
C829 H871 0.930 . S
C830 C831 1.348 . S
C830 C832 1.356 . S
C830 O855 1.325 . S
C831 C830 1.348 . S
C831 C833 1.353 . S
C831 H872 0.929 . S
C832 C830 1.356 . S
C832 C834 1.358 . S
C832 H873 0.930 . S
C833 C831 1.353 . S
C833 N835 1.314 . S
C833 H874 0.930 . S
C834 C832 1.358 . S
C834 N835 1.279 . S
C834 H875 0.930 . S
N835 C833 1.314 . S
N835 C834 1.279 . S
C836 C838 1.353 . S
C836 N839 1.314 . S
C836 H842 0.930 . S
C837 N839 1.279 . S
C837 C840 1.358 . S
C837 H843 0.930 . S
C838 C836 1.353 . S
C838 C841 1.348 . S
C838 H876 0.929 . S
N839 Li794 1.990 . S
N839 C836 1.314 . S
N839 C837 1.279 . S
C840 C837 1.358 . S
C840 C841 1.356 . S
C840 H877 0.930 . S
C841 C838 1.348 . S
C841 C840 1.356 . S
H842 C836 0.930 . S
H843 C837 0.930 . S
C844 N845 1.314 . S
C844 C846 1.353 . S
C844 H850 0.930 . S
N845 Li795 1.990 . S
N845 C844 1.314 . S
N845 C848 1.279 . S
C846 C844 1.353 . S
C846 C849 1.348 . S
C846 H878 0.929 . S
C847 C848 1.358 . S
C847 C849 1.356 . S
C847 H879 0.930 . S
C848 N845 1.279 . S
C848 C847 1.358 . S
C848 H851 0.930 . S
C849 C846 1.348 . S
C849 C847 1.356 . S
H850 C844 0.930 . S
H851 C848 0.930 . S
O852 Li792 1.956 . S
O852 Li793 1.970 . S
O852 Li794 1.961 . S
O852 C796 1.325 . S
O853 Li792 1.970 . S
O853 Li793 1.956 . S
O853 Li795 1.961 . S
O853 C802 1.325 . S
O854 Li792 1.961 . S
O854 Li794 1.956 . S
O854 Li795 1.970 . S
O854 C824 1.325 . S
O855 Li793 1.961 . S
O855 Li794 1.970 . S
O855 Li795 1.956 . S
O855 C830 1.325 . S
H856 C798 0.929 . S
H857 C799 0.930 . S
H858 C800 0.930 . S
H859 C801 0.930 . S
H860 C803 0.930 . S
H861 C805 0.929 . S
H862 C806 0.930 . S
H863 C807 0.930 . S
H864 C810 0.930 . S
H865 C813 0.929 . S
H866 C818 0.929 . S
H867 C819 0.930 . S
H868 C826 0.929 . S
H869 C827 0.930 . S
H870 C828 0.930 . S
H871 C829 0.930 . S
H872 C831 0.929 . S
H873 C832 0.930 . S
H874 C833 0.930 . S
H875 C834 0.930 . S
H876 C838 0.929 . S
H877 C840 0.930 . S
H878 C846 0.929 . S
H879 C847 0.930 . S
Li880 N897 1.990 . S
Li880 O940 1.956 . S
Li880 O941 1.970 . S
Li880 O942 1.961 . S
Li881 N905 1.990 . S
Li881 O940 1.970 . S
Li881 O941 1.956 . S
Li881 O943 1.961 . S
Li882 N927 1.990 . S
Li882 O940 1.961 . S
Li882 O942 1.956 . S
Li882 O943 1.970 . S
Li883 N933 1.990 . S
Li883 O941 1.961 . S
Li883 O942 1.970 . S
Li883 O943 1.956 . S
C884 C886 1.348 . S
C884 C887 1.356 . S
C884 O940 1.325 . S
N885 C888 1.314 . S
N885 C889 1.279 . S
C886 C884 1.348 . S
C886 C888 1.353 . S
C886 H944 0.929 . S
C887 C884 1.356 . S
C887 C889 1.358 . S
C887 H945 0.930 . S
C888 N885 1.314 . S
C888 C886 1.353 . S
C888 H946 0.930 . S
C889 N885 1.279 . S
C889 C887 1.358 . S
C889 H947 0.930 . S
C890 C893 1.348 . S
C890 C894 1.356 . S
C890 O941 1.325 . S
C891 N892 1.279 . S
C891 C894 1.358 . S
C891 H948 0.930 . S
N892 C891 1.279 . S
N892 C895 1.314 . S
C893 C890 1.348 . S
C893 C895 1.353 . S
C893 H949 0.929 . S
C894 C890 1.356 . S
C894 C891 1.358 . S
C894 H950 0.930 . S
C895 N892 1.314 . S
C895 C893 1.353 . S
C895 H951 0.930 . S
C896 N897 1.314 . S
C896 C901 1.353 . S
C896 H902 0.930 . S
N897 Li880 1.990 . S
N897 C896 1.314 . S
N897 C899 1.279 . S
C898 C899 1.358 . S
C898 C900 1.356 . S
C898 H952 0.930 . S
C899 N897 1.279 . S
C899 C898 1.358 . S
C899 H903 0.930 . S
C900 C898 1.356 . S
C900 C901 1.348 . S
C901 C896 1.353 . S
C901 C900 1.348 . S
C901 H953 0.929 . S
H902 C896 0.930 . S
H903 C899 0.930 . S
C904 N905 1.314 . S
C904 C906 1.353 . S
C904 H910 0.930 . S
N905 Li881 1.990 . S
N905 C904 1.314 . S
N905 C908 1.279 . S
C906 C904 1.353 . S
C906 C909 1.348 . S
C906 H954 0.929 . S
C907 C908 1.358 . S
C907 C909 1.356 . S
C907 H955 0.930 . S
C908 N905 1.279 . S
C908 C907 1.358 . S
C908 H911 0.930 . S
C909 C906 1.348 . S
C909 C907 1.356 . S
H910 C904 0.930 . S
H911 C908 0.930 . S
C912 C914 1.348 . S
C912 C915 1.356 . S
C912 O942 1.325 . S
N913 C916 1.314 . S
N913 C917 1.279 . S
C914 C912 1.348 . S
C914 C916 1.353 . S
C914 H956 0.929 . S
C915 C912 1.356 . S
C915 C917 1.358 . S
C915 H957 0.930 . S
C916 N913 1.314 . S
C916 C914 1.353 . S
C916 H958 0.930 . S
C917 N913 1.279 . S
C917 C915 1.358 . S
C917 H959 0.930 . S
C918 C919 1.348 . S
C918 C920 1.356 . S
C918 O943 1.325 . S
C919 C918 1.348 . S
C919 C921 1.353 . S
C919 H960 0.929 . S
C920 C918 1.356 . S
C920 C922 1.358 . S
C920 H961 0.930 . S
C921 C919 1.353 . S
C921 N923 1.314 . S
C921 H962 0.930 . S
C922 C920 1.358 . S
C922 N923 1.279 . S
C922 H963 0.930 . S
N923 C921 1.314 . S
N923 C922 1.279 . S
C924 C926 1.353 . S
C924 N927 1.314 . S
C924 H930 0.930 . S
C925 N927 1.279 . S
C925 C928 1.358 . S
C925 H931 0.930 . S
C926 C924 1.353 . S
C926 C929 1.348 . S
C926 H964 0.929 . S
N927 Li882 1.990 . S
N927 C924 1.314 . S
N927 C925 1.279 . S
C928 C925 1.358 . S
C928 C929 1.356 . S
C928 H965 0.930 . S
C929 C926 1.348 . S
C929 C928 1.356 . S
H930 C924 0.930 . S
H931 C925 0.930 . S
C932 N933 1.314 . S
C932 C934 1.353 . S
C932 H938 0.930 . S
N933 Li883 1.990 . S
N933 C932 1.314 . S
N933 C936 1.279 . S
C934 C932 1.353 . S
C934 C937 1.348 . S
C934 H966 0.929 . S
C935 C936 1.358 . S
C935 C937 1.356 . S
C935 H967 0.930 . S
C936 N933 1.279 . S
C936 C935 1.358 . S
C936 H939 0.930 . S
C937 C934 1.348 . S
C937 C935 1.356 . S
H938 C932 0.930 . S
H939 C936 0.930 . S
O940 Li880 1.956 . S
O940 Li881 1.970 . S
O940 Li882 1.961 . S
O940 C884 1.325 . S
O941 Li880 1.970 . S
O941 Li881 1.956 . S
O941 Li883 1.961 . S
O941 C890 1.325 . S
O942 Li880 1.961 . S
O942 Li882 1.956 . S
O942 Li883 1.970 . S
O942 C912 1.325 . S
O943 Li881 1.961 . S
O943 Li882 1.970 . S
O943 Li883 1.956 . S
O943 C918 1.325 . S
H944 C886 0.929 . S
H945 C887 0.930 . S
H946 C888 0.930 . S
H947 C889 0.930 . S
H948 C891 0.930 . S
H949 C893 0.929 . S
H950 C894 0.930 . S
H951 C895 0.930 . S
H952 C898 0.930 . S
H953 C901 0.929 . S
H954 C906 0.929 . S
H955 C907 0.930 . S
H956 C914 0.929 . S
H957 C915 0.930 . S
H958 C916 0.930 . S
H959 C917 0.930 . S
H960 C919 0.929 . S
H961 C920 0.930 . S
H962 C921 0.930 . S
H963 C922 0.930 . S
H964 C926 0.929 . S
H965 C928 0.930 . S
H966 C934 0.929 . S
H967 C935 0.930 . S
Li968 N985 1.990 . S
Li968 O1028 1.956 . S
Li968 O1029 1.970 . S
Li968 O1030 1.961 . S
Li969 N993 1.990 . S
Li969 O1028 1.970 . S
Li969 O1029 1.956 . S
Li969 O1031 1.961 . S
Li970 N1015 1.990 . S
Li970 O1028 1.961 . S
Li970 O1030 1.956 . S
Li970 O1031 1.970 . S
Li971 N1021 1.990 . S
Li971 O1029 1.961 . S
Li971 O1030 1.970 . S
Li971 O1031 1.956 . S
C972 C974 1.348 . S
C972 C975 1.356 . S
C972 O1028 1.325 . S
N973 C976 1.314 . S
N973 C977 1.279 . S
C974 C972 1.348 . S
C974 C976 1.353 . S
C974 H1032 0.929 . S
C975 C972 1.356 . S
C975 C977 1.358 . S
C975 H1033 0.930 . S
C976 N973 1.314 . S
C976 C974 1.353 . S
C976 H1034 0.930 . S
C977 N973 1.279 . S
C977 C975 1.358 . S
C977 H1035 0.930 . S
C978 C981 1.348 . S
C978 C982 1.356 . S
C978 O1029 1.325 . S
C979 N980 1.279 . S
C979 C982 1.358 . S
C979 H1036 0.930 . S
N980 C979 1.279 . S
N980 C983 1.314 . S
C981 C978 1.348 . S
C981 C983 1.353 . S
C981 H1037 0.929 . S
C982 C978 1.356 . S
C982 C979 1.358 . S
C982 H1038 0.930 . S
C983 N980 1.314 . S
C983 C981 1.353 . S
C983 H1039 0.930 . S
C984 N985 1.314 . S
C984 C989 1.353 . S
C984 H990 0.930 . S
N985 Li968 1.990 . S
N985 C984 1.314 . S
N985 C987 1.279 . S
C986 C987 1.358 . S
C986 C988 1.356 . S
C986 H1040 0.930 . S
C987 N985 1.279 . S
C987 C986 1.358 . S
C987 H991 0.930 . S
C988 C986 1.356 . S
C988 C989 1.348 . S
C989 C984 1.353 . S
C989 C988 1.348 . S
C989 H1041 0.929 . S
H990 C984 0.930 . S
H991 C987 0.930 . S
C992 N993 1.314 . S
C992 C994 1.353 . S
C992 H998 0.930 . S
N993 Li969 1.990 . S
N993 C992 1.314 . S
N993 C996 1.279 . S
C994 C992 1.353 . S
C994 C997 1.348 . S
C994 H1042 0.929 . S
C995 C996 1.358 . S
C995 C997 1.356 . S
C995 H1043 0.930 . S
C996 N993 1.279 . S
C996 C995 1.358 . S
C996 H999 0.930 . S
C997 C994 1.348 . S
C997 C995 1.356 . S
H998 C992 0.930 . S
H999 C996 0.930 . S
C1000 C1002 1.348 . S
C1000 C1003 1.356 . S
C1000 O1030 1.325 . S
N1001 C1004 1.314 . S
N1001 C1005 1.279 . S
C1002 C1000 1.348 . S
C1002 C1004 1.353 . S
C1002 H1044 0.929 . S
C1003 C1000 1.356 . S
C1003 C1005 1.358 . S
C1003 H1045 0.930 . S
C1004 N1001 1.314 . S
C1004 C1002 1.353 . S
C1004 H1046 0.930 . S
C1005 N1001 1.279 . S
C1005 C1003 1.358 . S
C1005 H1047 0.930 . S
C1006 C1007 1.348 . S
C1006 C1008 1.356 . S
C1006 O1031 1.325 . S
C1007 C1006 1.348 . S
C1007 C1009 1.353 . S
C1007 H1048 0.929 . S
C1008 C1006 1.356 . S
C1008 C1010 1.358 . S
C1008 H1049 0.930 . S
C1009 C1007 1.353 . S
C1009 N1011 1.314 . S
C1009 H1050 0.930 . S
C1010 C1008 1.358 . S
C1010 N1011 1.279 . S
C1010 H1051 0.930 . S
N1011 C1009 1.314 . S
N1011 C1010 1.279 . S
C1012 C1014 1.353 . S
C1012 N1015 1.314 . S
C1012 H1018 0.930 . S
C1013 N1015 1.279 . S
C1013 C1016 1.358 . S
C1013 H1019 0.930 . S
C1014 C1012 1.353 . S
C1014 C1017 1.348 . S
C1014 H1052 0.929 . S
N1015 Li970 1.990 . S
N1015 C1012 1.314 . S
N1015 C1013 1.279 . S
C1016 C1013 1.358 . S
C1016 C1017 1.356 . S
C1016 H1053 0.930 . S
C1017 C1014 1.348 . S
C1017 C1016 1.356 . S
H1018 C1012 0.930 . S
H1019 C1013 0.930 . S
C1020 N1021 1.314 . S
C1020 C1022 1.353 . S
C1020 H1026 0.930 . S
N1021 Li971 1.990 . S
N1021 C1020 1.314 . S
N1021 C1024 1.279 . S
C1022 C1020 1.353 . S
C1022 C1025 1.348 . S
C1022 H1054 0.929 . S
C1023 C1024 1.358 . S
C1023 C1025 1.356 . S
C1023 H1055 0.930 . S
C1024 N1021 1.279 . S
C1024 C1023 1.358 . S
C1024 H1027 0.930 . S
C1025 C1022 1.348 . S
C1025 C1023 1.356 . S
H1026 C1020 0.930 . S
H1027 C1024 0.930 . S
O1028 Li968 1.956 . S
O1028 Li969 1.970 . S
O1028 Li970 1.961 . S
O1028 C972 1.325 . S
O1029 Li968 1.970 . S
O1029 Li969 1.956 . S
O1029 Li971 1.961 . S
O1029 C978 1.325 . S
O1030 Li968 1.961 . S
O1030 Li970 1.956 . S
O1030 Li971 1.970 . S
O1030 C1000 1.325 . S
O1031 Li969 1.961 . S
O1031 Li970 1.970 . S
O1031 Li971 1.956 . S
O1031 C1006 1.325 . S
H1032 C974 0.929 . S
H1033 C975 0.930 . S
H1034 C976 0.930 . S
H1035 C977 0.930 . S
H1036 C979 0.930 . S
H1037 C981 0.929 . S
H1038 C982 0.930 . S
H1039 C983 0.930 . S
H1040 C986 0.930 . S
H1041 C989 0.929 . S
H1042 C994 0.929 . S
H1043 C995 0.930 . S
H1044 C1002 0.929 . S
H1045 C1003 0.930 . S
H1046 C1004 0.930 . S
H1047 C1005 0.930 . S
H1048 C1007 0.929 . S
H1049 C1008 0.930 . S
H1050 C1009 0.930 . S
H1051 C1010 0.930 . S
H1052 C1014 0.929 . S
H1053 C1016 0.930 . S
H1054 C1022 0.929 . S
H1055 C1023 0.930 . S
H1056 C1062 0.930 . S
H1057 C1065 0.930 . S
H1058 C1066 0.930 . S
H1059 C1067 0.930 . S
H1060 C1070 0.930 . S
H1061 C1071 0.930 . S
C1062 H1056 0.930 . S
C1062 C1063 1.355 . S
C1062 C1064 1.415 . S
C1063 C1062 1.355 . S
C1063 C1065 1.419 . S
C1064 C1062 1.415 . S
C1064 C1069 1.425 . S
C1064 C1071 1.409 . S
C1065 H1057 0.930 . S
C1065 C1063 1.419 . S
C1065 C1066 1.362 . S
C1066 H1058 0.930 . S
C1066 C1065 1.362 . S
C1066 C1069 1.409 . S
C1067 H1059 0.930 . S
C1067 C1068 1.355 . S
C1067 C1069 1.415 . S
C1068 C1067 1.355 . S
C1068 C1070 1.419 . S
C1069 C1064 1.425 . S
C1069 C1066 1.409 . S
C1069 C1067 1.415 . S
C1070 H1060 0.930 . S
C1070 C1068 1.419 . S
C1070 C1071 1.362 . S
C1071 H1061 0.930 . S
C1071 C1064 1.409 . S
C1071 C1070 1.362 . S
H1072 C1078 0.930 . S
H1073 C1081 0.930 . S
H1074 C1082 0.930 . S
H1075 C1083 0.930 . S
H1076 C1086 0.930 . S
H1077 C1087 0.930 . S
C1078 H1072 0.930 . S
C1078 C1079 1.355 . S
C1078 C1080 1.415 . S
C1079 C1078 1.355 . S
C1079 C1081 1.419 . S
C1080 C1078 1.415 . S
C1080 C1085 1.425 . S
C1080 C1087 1.409 . S
C1081 H1073 0.930 . S
C1081 C1079 1.419 . S
C1081 C1082 1.362 . S
C1082 H1074 0.930 . S
C1082 C1081 1.362 . S
C1082 C1085 1.409 . S
C1083 H1075 0.930 . S
C1083 C1084 1.355 . S
C1083 C1085 1.415 . S
C1084 C1083 1.355 . S
C1084 C1086 1.419 . S
C1085 C1080 1.425 . S
C1085 C1082 1.409 . S
C1085 C1083 1.415 . S
C1086 H1076 0.930 . S
C1086 C1084 1.419 . S
C1086 C1087 1.362 . S
C1087 H1077 0.930 . S
C1087 C1080 1.409 . S
C1087 C1086 1.362 . S
H1088 C1094 0.930 . S
H1089 C1097 0.930 . S
H1090 C1098 0.930 . S
H1091 C1099 0.930 . S
H1092 C1102 0.930 . S
H1093 C1103 0.930 . S
C1094 H1088 0.930 . S
C1094 C1095 1.355 . S
C1094 C1096 1.415 . S
C1095 C1094 1.355 . S
C1095 C1097 1.419 . S
C1096 C1094 1.415 . S
C1096 C1101 1.425 . S
C1096 C1103 1.409 . S
C1097 H1089 0.930 . S
C1097 C1095 1.419 . S
C1097 C1098 1.362 . S
C1098 H1090 0.930 . S
C1098 C1097 1.362 . S
C1098 C1101 1.409 . S
C1099 H1091 0.930 . S
C1099 C1100 1.355 . S
C1099 C1101 1.415 . S
C1100 C1099 1.355 . S
C1100 C1102 1.419 . S
C1101 C1096 1.425 . S
C1101 C1098 1.409 . S
C1101 C1099 1.415 . S
C1102 H1092 0.930 . S
C1102 C1100 1.419 . S
C1102 C1103 1.362 . S
C1103 H1093 0.930 . S
C1103 C1096 1.409 . S
C1103 C1102 1.362 . S
H1104 C1110 0.930 . S
H1105 C1113 0.930 . S
H1106 C1114 0.930 . S
H1107 C1115 0.930 . S
H1108 C1118 0.930 . S
H1109 C1119 0.930 . S
C1110 H1104 0.930 . S
C1110 C1111 1.355 . S
C1110 C1112 1.415 . S
C1111 C1110 1.355 . S
C1111 C1113 1.419 . S
C1112 C1110 1.415 . S
C1112 C1117 1.425 . S
C1112 C1119 1.409 . S
C1113 H1105 0.930 . S
C1113 C1111 1.419 . S
C1113 C1114 1.362 . S
C1114 H1106 0.930 . S
C1114 C1113 1.362 . S
C1114 C1117 1.409 . S
C1115 H1107 0.930 . S
C1115 C1116 1.355 . S
C1115 C1117 1.415 . S
C1116 C1115 1.355 . S
C1116 C1118 1.419 . S
C1117 C1112 1.425 . S
C1117 C1114 1.409 . S
C1117 C1115 1.415 . S
C1118 H1108 0.930 . S
C1118 C1116 1.419 . S
C1118 C1119 1.362 . S
C1119 H1109 0.930 . S
C1119 C1112 1.409 . S
C1119 C1118 1.362 . S
H1120 C1126 0.930 . S
H1121 C1129 0.930 . S
H1122 C1130 0.930 . S
H1123 C1131 0.930 . S
H1124 C1134 0.930 . S
H1125 C1135 0.930 . S
C1126 H1120 0.930 . S
C1126 C1127 1.355 . S
C1126 C1128 1.415 . S
C1127 C1126 1.355 . S
C1127 C1129 1.419 . S
C1128 C1126 1.415 . S
C1128 C1133 1.425 . S
C1128 C1135 1.409 1_556 S
C1129 H1121 0.930 . S
C1129 C1127 1.419 . S
C1129 C1130 1.362 . S
C1130 H1122 0.930 . S
C1130 C1129 1.362 . S
C1130 C1133 1.409 . S
C1131 H1123 0.930 . S
C1131 C1132 1.349 1_556 S
C1131 C1133 1.415 . S
C1132 C1131 1.349 1_554 S
C1132 C1134 1.423 . S
C1133 C1128 1.425 . S
C1133 C1130 1.409 . S
C1133 C1131 1.415 . S
C1134 H1124 0.930 . S
C1134 C1132 1.423 . S
C1134 C1135 1.362 . S
C1135 H1125 0.930 . S
C1135 C1128 1.409 1_554 S
C1135 C1134 1.362 . S
H1136 C1142 0.930 . S
H1137 C1145 0.930 . S
H1138 C1146 0.930 . S
H1139 C1147 0.930 . S
H1140 C1150 0.930 . S
H1141 C1151 0.930 . S
C1142 H1136 0.930 . S
C1142 C1143 1.355 . S
C1142 C1144 1.415 . S
C1143 C1142 1.355 . S
C1143 C1145 1.419 . S
C1144 C1142 1.415 . S
C1144 C1149 1.425 . S
C1144 C1151 1.409 . S
C1145 H1137 0.930 . S
C1145 C1143 1.419 . S
C1145 C1146 1.362 . S
C1146 H1138 0.930 . S
C1146 C1145 1.362 . S
C1146 C1149 1.409 . S
C1147 H1139 0.930 . S
C1147 C1148 1.355 . S
C1147 C1149 1.415 . S
C1148 C1147 1.355 . S
C1148 C1150 1.419 . S
C1149 C1144 1.425 . S
C1149 C1146 1.409 . S
C1149 C1147 1.415 . S
C1150 H1140 0.930 . S
C1150 C1148 1.419 . S
C1150 C1151 1.362 . S
C1151 H1141 0.930 . S
C1151 C1144 1.409 . S
C1151 C1150 1.362 . S
H1152 C1158 0.930 . S
H1153 C1161 0.930 . S
H1154 C1162 0.930 . S
H1155 C1163 0.930 . S
H1156 C1166 0.930 . S
H1157 C1167 0.930 . S
C1158 H1152 0.930 . S
C1158 C1159 1.355 . S
C1158 C1160 1.415 . S
C1159 C1158 1.355 . S
C1159 C1161 1.419 . S
C1160 C1158 1.415 . S
C1160 C1165 1.425 . S
C1160 C1167 1.409 . S
C1161 H1153 0.930 . S
C1161 C1159 1.419 . S
C1161 C1162 1.362 . S
C1162 H1154 0.930 . S
C1162 C1161 1.362 . S
C1162 C1165 1.409 . S
C1163 H1155 0.930 . S
C1163 C1164 1.355 . S
C1163 C1165 1.415 . S
C1164 C1163 1.355 . S
C1164 C1166 1.419 . S
C1165 C1160 1.425 . S
C1165 C1162 1.409 . S
C1165 C1163 1.415 . S
C1166 H1156 0.930 . S
C1166 C1164 1.419 . S
C1166 C1167 1.362 . S
C1167 H1157 0.930 . S
C1167 C1160 1.409 . S
C1167 C1166 1.362 . S
H1168 C1174 0.930 . S
H1169 C1177 0.930 . S
H1170 C1178 0.930 . S
H1171 C1179 0.930 . S
H1172 C1182 0.930 . S
H1173 C1183 0.930 . S
C1174 H1168 0.930 . S
C1174 C1175 1.355 . S
C1174 C1176 1.415 . S
C1175 C1174 1.355 . S
C1175 C1177 1.419 . S
C1176 C1174 1.415 . S
C1176 C1181 1.425 . S
C1176 C1183 1.409 . S
C1177 H1169 0.930 . S
C1177 C1175 1.419 . S
C1177 C1178 1.362 . S
C1178 H1170 0.930 . S
C1178 C1177 1.362 . S
C1178 C1181 1.409 . S
C1179 H1171 0.930 . S
C1179 C1180 1.355 . S
C1179 C1181 1.415 . S
C1180 C1179 1.355 . S
C1180 C1182 1.419 . S
C1181 C1176 1.425 . S
C1181 C1178 1.409 . S
C1181 C1179 1.415 . S
C1182 H1172 0.930 . S
C1182 C1180 1.419 . S
C1182 C1183 1.362 . S
C1183 H1173 0.930 . S
C1183 C1176 1.409 . S
C1183 C1182 1.362 . S
H1184 C1190 0.930 . S
H1185 C1193 0.930 . S
H1186 C1194 0.930 . S
H1187 C1195 0.930 . S
H1188 C1198 0.930 . S
H1189 C1199 0.930 . S
C1190 H1184 0.930 . S
C1190 C1191 1.355 . S
C1190 C1192 1.415 . S
C1191 C1190 1.355 . S
C1191 C1193 1.419 . S
C1192 C1190 1.415 . S
C1192 C1197 1.425 . S
C1192 C1199 1.409 . S
C1193 H1185 0.930 . S
C1193 C1191 1.419 . S
C1193 C1194 1.362 . S
C1194 H1186 0.930 . S
C1194 C1193 1.362 . S
C1194 C1197 1.409 . S
C1195 H1187 0.930 . S
C1195 C1196 1.355 . S
C1195 C1197 1.415 . S
C1196 C1195 1.355 . S
C1196 C1198 1.419 . S
C1197 C1192 1.425 . S
C1197 C1194 1.409 . S
C1197 C1195 1.415 . S
C1198 H1188 0.930 . S
C1198 C1196 1.419 . S
C1198 C1199 1.362 . S
C1199 H1189 0.930 . S
C1199 C1192 1.409 . S
C1199 C1198 1.362 . S
H1200 C1206 0.930 . S
H1201 C1209 0.930 . S
H1202 C1210 0.930 . S
H1203 C1211 0.930 . S
H1204 C1214 0.930 . S
H1205 C1215 0.930 . S
C1206 H1200 0.930 . S
C1206 C1207 1.355 . S
C1206 C1208 1.415 . S
C1207 C1206 1.355 . S
C1207 C1209 1.419 . S
C1208 C1206 1.415 . S
C1208 C1213 1.425 . S
C1208 C1215 1.409 . S
C1209 H1201 0.930 . S
C1209 C1207 1.419 . S
C1209 C1210 1.362 . S
C1210 H1202 0.930 . S
C1210 C1209 1.362 . S
C1210 C1213 1.409 . S
C1211 H1203 0.930 . S
C1211 C1212 1.355 . S
C1211 C1213 1.415 . S
C1212 C1211 1.355 . S
C1212 C1214 1.419 . S
C1213 C1208 1.425 . S
C1213 C1210 1.409 . S
C1213 C1211 1.415 . S
C1214 H1204 0.930 . S
C1214 C1212 1.419 . S
C1214 C1215 1.362 . S
C1215 H1205 0.930 . S
C1215 C1208 1.409 . S
C1215 C1214 1.362 . S
H1216 C1222 0.930 . S
H1217 C1225 0.930 . S
H1218 C1226 0.930 . S
H1219 C1227 0.930 . S
H1220 C1230 0.930 . S
H1221 C1231 0.930 . S
C1222 H1216 0.930 . S
C1222 C1223 1.355 . S
C1222 C1224 1.415 . S
C1223 C1222 1.355 . S
C1223 C1225 1.419 . S
C1224 C1222 1.415 . S
C1224 C1229 1.425 . S
C1224 C1231 1.409 . S
C1225 H1217 0.930 . S
C1225 C1223 1.419 . S
C1225 C1226 1.362 . S
C1226 H1218 0.930 . S
C1226 C1225 1.362 . S
C1226 C1229 1.409 . S
C1227 H1219 0.930 . S
C1227 C1228 1.355 . S
C1227 C1229 1.415 . S
C1228 C1227 1.355 . S
C1228 C1230 1.419 . S
C1229 C1224 1.425 . S
C1229 C1226 1.409 . S
C1229 C1227 1.415 . S
C1230 H1220 0.930 . S
C1230 C1228 1.419 . S
C1230 C1231 1.362 . S
C1231 H1221 0.930 . S
C1231 C1224 1.409 . S
C1231 C1230 1.362 . S
H1232 C1238 0.930 . S
H1233 C1241 0.930 . S
H1234 C1242 0.930 . S
H1235 C1243 0.930 . S
H1236 C1246 0.930 1_554 S
H1237 C1247 0.930 . S
C1238 H1232 0.930 . S
C1238 C1239 1.355 . S
C1238 C1240 1.415 . S
C1239 C1238 1.355 . S
C1239 C1241 1.419 . S
C1240 C1238 1.415 . S
C1240 C1245 1.425 . S
C1240 C1247 1.409 . S
C1241 H1233 0.930 . S
C1241 C1239 1.419 . S
C1241 C1242 1.362 . S
C1242 H1234 0.930 . S
C1242 C1241 1.362 . S
C1242 C1245 1.409 . S
C1243 H1235 0.930 . S
C1243 C1244 1.355 . S
C1243 C1245 1.415 . S
C1244 C1243 1.355 . S
C1244 C1246 1.419 . S
C1245 C1240 1.425 . S
C1245 C1242 1.409 . S
C1245 C1243 1.415 . S
C1246 H1236 0.930 1_556 S
C1246 C1244 1.419 . S
C1246 C1247 1.362 . S
C1247 H1237 0.930 . S
C1247 C1240 1.409 . S
C1247 C1246 1.362 . S
H1248 C1254 0.930 . S
H1249 C1257 0.930 . S
H1250 C1258 0.930 . S
H1251 C1259 0.930 . S
H1252 C1262 0.930 . S
H1253 C1263 0.930 . S
C1254 H1248 0.930 . S
C1254 C1255 1.355 . S
C1254 C1256 1.415 . S
C1255 C1254 1.355 . S
C1255 C1257 1.419 . S
C1256 C1254 1.415 . S
C1256 C1261 1.425 . S
C1256 C1263 1.409 . S
C1257 H1249 0.930 . S
C1257 C1255 1.419 . S
C1257 C1258 1.362 . S
C1258 H1250 0.930 . S
C1258 C1257 1.362 . S
C1258 C1261 1.409 . S
C1259 H1251 0.930 . S
C1259 C1260 1.355 . S
C1259 C1261 1.415 . S
C1260 C1259 1.355 . S
C1260 C1262 1.419 . S
C1261 C1256 1.425 . S
C1261 C1258 1.409 . S
C1261 C1259 1.415 . S
C1262 H1252 0.930 . S
C1262 C1260 1.419 . S
C1262 C1263 1.362 . S
C1263 H1253 0.930 . S
C1263 C1256 1.409 . S
C1263 C1262 1.362 . S
H1264 C1270 0.930 . S
H1265 C1273 0.930 . S
H1266 C1274 0.930 . S
H1267 C1275 0.930 . S
H1268 C1278 0.930 . S
H1269 C1279 0.930 . S
C1270 H1264 0.930 . S
C1270 C1271 1.355 1_556 S
C1270 C1272 1.415 . S
C1271 C1270 1.355 1_554 S
C1271 C1273 1.419 . S
C1272 C1270 1.415 . S
C1272 C1277 1.425 . S
C1272 C1279 1.409 . S
C1273 H1265 0.930 . S
C1273 C1271 1.419 . S
C1273 C1274 1.362 1_554 S
C1274 H1266 0.930 . S
C1274 C1273 1.362 1_556 S
C1274 C1277 1.409 . S
C1275 H1267 0.930 . S
C1275 C1276 1.355 . S
C1275 C1277 1.415 . S
C1276 C1275 1.355 . S
C1276 C1278 1.419 . S
C1277 C1272 1.425 . S
C1277 C1274 1.409 . S
C1277 C1275 1.415 . S
C1278 H1268 0.930 . S
C1278 C1276 1.419 . S
C1278 C1279 1.362 . S
C1279 H1269 0.930 . S
C1279 C1272 1.409 . S
C1279 C1278 1.362 . S
H1280 C1286 0.930 . S
H1281 C1289 0.930 . S
H1282 C1290 0.930 . S
H1283 C1291 0.930 . S
H1284 C1294 0.930 . S
H1285 C1295 0.930 . S
C1286 H1280 0.930 . S
C1286 C1287 1.355 . S
C1286 C1288 1.415 . S
C1287 C1286 1.355 . S
C1287 C1289 1.419 . S
C1288 C1286 1.415 . S
C1288 C1293 1.425 . S
C1288 C1295 1.409 . S
C1289 H1281 0.930 . S
C1289 C1287 1.419 . S
C1289 C1290 1.362 . S
C1290 H1282 0.930 . S
C1290 C1289 1.362 . S
C1290 C1293 1.409 . S
C1291 H1283 0.930 . S
C1291 C1292 1.355 . S
C1291 C1293 1.415 . S
C1292 C1291 1.355 . S
C1292 C1294 1.419 . S
C1293 C1288 1.425 . S
C1293 C1290 1.409 . S
C1293 C1291 1.415 . S
C1294 H1284 0.930 . S
C1294 C1292 1.419 . S
C1294 C1295 1.362 . S
C1295 H1285 0.930 . S
C1295 C1288 1.409 . S
C1295 C1294 1.362 . S
H1296 C1302 0.930 . S
H1297 C1305 0.930 . S
H1298 C1306 0.930 . S
H1299 C1307 0.930 . S
H1300 C1310 0.930 . S
H1301 C1311 0.930 . S
C1302 H1296 0.930 . S
C1302 C1303 1.355 . S
C1302 C1304 1.415 . S
C1303 C1302 1.355 . S
C1303 C1305 1.419 . S
C1304 C1302 1.415 . S
C1304 C1309 1.425 . S
C1304 C1311 1.409 . S
C1305 H1297 0.930 . S
C1305 C1303 1.419 . S
C1305 C1306 1.362 . S
C1306 H1298 0.930 . S
C1306 C1305 1.362 . S
C1306 C1309 1.409 . S
C1307 H1299 0.930 . S
C1307 C1308 1.355 . S
C1307 C1309 1.415 . S
C1308 C1307 1.355 . S
C1308 C1310 1.419 . S
C1309 C1304 1.425 . S
C1309 C1306 1.409 . S
C1309 C1307 1.415 . S
C1310 H1300 0.930 . S
C1310 C1308 1.419 . S
C1310 C1311 1.362 . S
C1311 H1301 0.930 . S
C1311 C1304 1.409 . S
C1311 C1310 1.362 . S
H1312 C1318 0.930 . S
H1313 C1321 0.930 . S
H1314 C1322 0.930 . S
H1315 C1323 0.930 . S
H1316 C1326 0.930 . S
H1317 C1327 0.930 . S
C1318 H1312 0.930 . S
C1318 C1319 1.355 . S
C1318 C1320 1.415 . S
C1319 C1318 1.355 . S
C1319 C1321 1.419 . S
C1320 C1318 1.415 . S
C1320 C1325 1.425 . S
C1320 C1327 1.409 . S
C1321 H1313 0.930 . S
C1321 C1319 1.419 . S
C1321 C1322 1.362 . S
C1322 H1314 0.930 . S
C1322 C1321 1.362 . S
C1322 C1325 1.409 . S
C1323 H1315 0.930 . S
C1323 C1324 1.355 . S
C1323 C1325 1.415 . S
C1324 C1323 1.355 . S
C1324 C1326 1.419 . S
C1325 C1320 1.425 . S
C1325 C1322 1.409 . S
C1325 C1323 1.415 . S
C1326 H1316 0.930 . S
C1326 C1324 1.419 . S
C1326 C1327 1.362 . S
C1327 H1317 0.930 . S
C1327 C1320 1.409 . S
C1327 C1326 1.362 . S
H1328 C1334 0.930 . S
H1329 C1337 0.930 . S
H1330 C1338 0.930 . S
H1331 C1339 0.930 . S
H1332 C1342 0.930 . S
H1333 C1343 0.930 . S
C1334 H1328 0.930 . S
C1334 C1335 1.355 . S
C1334 C1336 1.415 . S
C1335 C1334 1.355 . S
C1335 C1337 1.419 . S
C1336 C1334 1.415 . S
C1336 C1341 1.425 . S
C1336 C1343 1.409 . S
C1337 H1329 0.930 . S
C1337 C1335 1.419 . S
C1337 C1338 1.362 . S
C1338 H1330 0.930 . S
C1338 C1337 1.362 . S
C1338 C1341 1.409 . S
C1339 H1331 0.930 . S
C1339 C1340 1.355 . S
C1339 C1341 1.415 . S
C1340 C1339 1.355 . S
C1340 C1342 1.419 . S
C1341 C1336 1.425 . S
C1341 C1338 1.409 . S
C1341 C1339 1.415 . S
C1342 H1332 0.930 . S
C1342 C1340 1.419 . S
C1342 C1343 1.362 . S
C1343 H1333 0.930 . S
C1343 C1336 1.409 . S
C1343 C1342 1.362 . S
H1344 C1350 0.930 . S
H1345 C1353 0.930 . S
H1346 C1354 0.930 . S
H1347 C1355 0.930 . S
H1348 C1358 0.930 . S
H1349 C1359 0.930 . S
C1350 H1344 0.930 . S
C1350 C1351 1.355 . S
C1350 C1352 1.415 . S
C1351 C1350 1.355 . S
C1351 C1353 1.419 . S
C1352 C1350 1.415 . S
C1352 C1357 1.425 1_455 S
C1352 C1359 1.409 . S
C1353 H1345 0.930 . S
C1353 C1351 1.419 . S
C1353 C1354 1.362 1_455 S
C1354 H1346 0.930 . S
C1354 C1353 1.362 1_655 S
C1354 C1357 1.409 . S
C1355 H1347 0.930 . S
C1355 C1356 1.355 . S
C1355 C1357 1.415 . S
C1356 C1355 1.355 . S
C1356 C1358 1.419 . S
C1357 C1352 1.425 1_655 S
C1357 C1354 1.409 . S
C1357 C1355 1.415 . S
C1358 H1348 0.930 . S
C1358 C1356 1.419 . S
C1358 C1359 1.362 1_655 S
C1359 H1349 0.930 . S
C1359 C1352 1.409 . S
C1359 C1358 1.362 1_455 S
H1360 C1366 0.888 1_545 S
H1361 C1369 0.930 . S
H1362 C1370 0.930 . S
H1363 C1371 0.888 1_565 S
H1364 C1374 0.930 . S
H1365 C1375 0.930 . S
C1366 H1360 0.888 1_565 S
C1366 C1367 1.355 . S
C1366 C1368 1.415 1_566 S
C1367 C1366 1.355 . S
C1367 C1369 1.419 . S
C1368 C1366 1.415 1_544 S
C1368 C1373 1.425 1_545 S
C1368 C1375 1.409 . S
C1369 H1361 0.930 . S
C1369 C1367 1.419 . S
C1369 C1370 1.362 1_556 S
C1370 H1362 0.930 . S
C1370 C1369 1.362 1_554 S
C1370 C1373 1.409 . S
C1371 H1363 0.888 1_545 S
C1371 C1372 1.355 . S
C1371 C1373 1.415 1_545 S
C1372 C1371 1.355 . S
C1372 C1374 1.419 . S
C1373 C1368 1.425 1_565 S
C1373 C1370 1.409 . S
C1373 C1371 1.415 1_565 S
C1374 H1364 0.930 . S
C1374 C1372 1.419 . S
C1374 C1375 1.362 . S
C1375 H1365 0.930 . S
C1375 C1368 1.409 . S
C1375 C1374 1.362 . S
H1376 C1382 0.930 . S
H1377 C1385 0.930 . S
H1378 C1386 0.930 . S
H1379 C1387 0.930 . S
H1380 C1390 0.930 . S
H1381 C1391 0.930 . S
C1382 H1376 0.930 . S
C1382 C1383 1.355 . S
C1382 C1384 1.415 . S
C1383 C1382 1.355 . S
C1383 C1385 1.419 . S
C1384 C1382 1.415 . S
C1384 C1389 1.425 . S
C1384 C1391 1.409 . S
C1385 H1377 0.930 . S
C1385 C1383 1.419 . S
C1385 C1386 1.362 . S
C1386 H1378 0.930 . S
C1386 C1385 1.362 . S
C1386 C1389 1.409 . S
C1387 H1379 0.930 . S
C1387 C1388 1.355 . S
C1387 C1389 1.415 . S
C1388 C1387 1.355 . S
C1388 C1390 1.419 . S
C1389 C1384 1.425 . S
C1389 C1386 1.409 . S
C1389 C1387 1.415 . S
C1390 H1380 0.930 . S
C1390 C1388 1.419 . S
C1390 C1391 1.362 . S
C1391 H1381 0.930 . S
C1391 C1384 1.409 . S
C1391 C1390 1.362 . S
H1392 C1398 0.935 . S
H1393 C1401 0.930 . S
H1394 C1402 0.930 . S
H1395 C1403 0.936 . S
H1396 C1406 0.930 . S
H1397 C1407 0.930 . S
C1398 H1392 0.935 . S
C1398 C1399 1.355 . S
C1398 C1400 1.415 1_455 S
C1399 C1398 1.355 . S
C1399 C1401 1.419 . S
C1400 C1398 1.415 1_655 S
C1400 C1405 1.425 1_655 S
C1400 C1407 1.409 . S
C1401 H1393 0.930 . S
C1401 C1399 1.419 . S
C1401 C1402 1.362 . S
C1402 H1394 0.930 . S
C1402 C1401 1.362 . S
C1402 C1405 1.409 . S
C1403 H1395 0.936 . S
C1403 C1404 1.355 . S
C1403 C1405 1.415 1_655 S
C1404 C1403 1.355 . S
C1404 C1406 1.419 . S
C1405 C1400 1.425 1_455 S
C1405 C1402 1.409 . S
C1405 C1403 1.415 1_455 S
C1406 H1396 0.930 . S
C1406 C1404 1.419 . S
C1406 C1407 1.362 . S
C1407 H1397 0.930 . S
C1407 C1400 1.409 . S
C1407 C1406 1.362 . S
H1408 C1414 0.930 . S
H1409 C1417 0.930 . S
H1410 C1418 0.930 . S
H1411 C1419 0.930 . S
H1412 C1422 0.930 . S
H1413 C1423 0.930 . S
C1414 H1408 0.930 . S
C1414 C1415 1.355 . S
C1414 C1416 1.415 . S
C1415 C1414 1.355 . S
C1415 C1417 1.419 . S
C1416 C1414 1.415 . S
C1416 C1421 1.425 1_545 S
C1416 C1423 1.409 1_545 S
C1417 H1409 0.930 . S
C1417 C1415 1.419 . S
C1417 C1418 1.362 . S
C1418 H1410 0.930 . S
C1418 C1417 1.362 . S
C1418 C1421 1.409 1_545 S
C1419 H1411 0.930 . S
C1419 C1420 1.355 . S
C1419 C1421 1.415 . S
C1420 C1419 1.355 . S
C1420 C1422 1.419 . S
C1421 C1416 1.425 1_565 S
C1421 C1418 1.409 1_565 S
C1421 C1419 1.415 . S
C1422 H1412 0.930 . S
C1422 C1420 1.419 . S
C1422 C1423 1.362 . S
C1423 H1413 0.930 . S
C1423 C1416 1.409 1_565 S
C1423 C1422 1.362 . S
H1424 C1430 0.930 . S
H1425 C1433 0.930 . S
H1426 C1434 0.930 . S
H1427 C1435 0.930 . S
H1428 C1438 0.930 . S
H1429 C1439 0.930 . S
C1430 H1424 0.930 . S
C1430 C1431 1.355 . S
C1430 C1432 1.415 . S
C1431 C1430 1.355 . S
C1431 C1433 1.419 . S
C1432 C1430 1.415 . S
C1432 C1437 1.425 . S
C1432 C1439 1.409 . S
C1433 H1425 0.930 . S
C1433 C1431 1.419 . S
C1433 C1434 1.362 . S
C1434 H1426 0.930 . S
C1434 C1433 1.362 . S
C1434 C1437 1.409 . S
C1435 H1427 0.930 . S
C1435 C1436 1.355 . S
C1435 C1437 1.415 . S
C1436 C1435 1.355 . S
C1436 C1438 1.419 . S
C1437 C1432 1.425 . S
C1437 C1434 1.409 . S
C1437 C1435 1.415 . S
C1438 H1428 0.930 . S
C1438 C1436 1.419 . S
C1438 C1439 1.362 . S
C1439 H1429 0.930 . S
C1439 C1432 1.409 . S
C1439 C1438 1.362 . S
C1063 C29 1.404 . S
C1068 C937 1.407 . S
C1079 C1017 1.353 . S
C1084 C117 1.394 . S
C1095 C196 1.341 . S
C1100 C577 1.375 . S
C1111 C293 1.339 . S
C1116 C673 1.370 . S
C1127 C372 1.339 . S
C1132 C761 1.357 . S
C1143 C849 1.389 . S
C1148 C469 1.349 . S
C1159 C20 1.636 . S
C1164 C753 1.632 . S
C1175 C108 1.626 . S
C1180 C841 1.627 . S
C1191 C929 1.639 . S
C1196 C205 1.643 . S
C1207 C284 1.628 . S
C1212 C1025 1.631 . S
C1223 C381 1.649 . S
C1228 C585 1.651 . S
C1239 C460 1.637 . S
C1244 C665 1.641 1_556 S
C1255 C900 0.638 . S
C1260 C49 0.650 . S
C1271 C137 0.638 . S
C1276 C997 0.653 . S
C1287 C233 0.646 . S
C1292 C557 0.647 . S
C1303 C313 0.640 . S
C1308 C636 0.648 . S
C1319 C724 0.637 . S
C1324 C409 0.653 . S
C1335 C489 0.644 . S
C1340 C812 0.645 . S
C1351 C57 1.832 . S
C1356 C988 1.853 . S
C1367 C548 1.827 . S
C1372 C145 1.808 . S
C1383 C645 1.819 . S
C1388 C225 1.803 . S
C1399 C733 1.798 . S
C1404 C321 1.806 . S
C1415 C821 1.813 . S
C1420 C401 1.833 . S
C1431 C909 1.860 . S
C1436 C497 1.840 . S
