# Generated by pormake.
# Topology wjd, (6)-cn, num edge types: 1
# Building blocks:
#     Node 0, Type 0, BuildingBlock: GEDQOX_clean_sbu_0, # of connection points: 6
#     Node 1, Type 0, BuildingBlock: GEDQOX_clean_sbu_0, # of connection points: 6
#     Node 2, Type 0, BuildingBlock: GEDQOX_clean_sbu_0, # of connection points: 6
#     Node 3, Type 0, BuildingBlock: GEDQOX_clean_sbu_0, # of connection points: 6
#     Node 4, Type 0, BuildingBlock: GEDQOX_clean_sbu_0, # of connection points: 6
#     Node 5, Type 0, BuildingBlock: GEDQOX_clean_sbu_0, # of connection points: 6
#     Node 6, Type 0, BuildingBlock: GEDQOX_clean_sbu_0, # of connection points: 6
#     Node 7, Type 0, BuildingBlock: GEDQOX_clean_sbu_0, # of connection points: 6
#     Node 8, Type 0, BuildingBlock: GEDQOX_clean_sbu_0, # of connection points: 6
#     Node 9, Type 0, BuildingBlock: GEDQOX_clean_sbu_0, # of connection points: 6
#     Node 10, Type 0, BuildingBlock: GEDQOX_clean_sbu_0, # of connection points: 6
#     Node 11, Type 0, BuildingBlock: GEDQOX_clean_sbu_0, # of connection points: 6
#     Edge 12, Type (0, 0), BuildingBlock: ZUJKAS_clean_linker_0, # of connection points: 2
#     Edge 13, Type (0, 0), BuildingBlock: ZUJKAS_clean_linker_0, # of connection points: 2
#     Edge 14, Type (0, 0), BuildingBlock: ZUJKAS_clean_linker_0, # of connection points: 2
#     Edge 15, Type (0, 0), BuildingBlock: ZUJKAS_clean_linker_0, # of connection points: 2
#     Edge 16, Type (0, 0), BuildingBlock: ZUJKAS_clean_linker_0, # of connection points: 2
#     Edge 17, Type (0, 0), BuildingBlock: ZUJKAS_clean_linker_0, # of connection points: 2
#     Edge 18, Type (0, 0), BuildingBlock: ZUJKAS_clean_linker_0, # of connection points: 2
#     Edge 19, Type (0, 0), BuildingBlock: ZUJKAS_clean_linker_0, # of connection points: 2
#     Edge 20, Type (0, 0), BuildingBlock: ZUJKAS_clean_linker_0, # of connection points: 2
#     Edge 21, Type (0, 0), BuildingBlock: ZUJKAS_clean_linker_0, # of connection points: 2
#     Edge 22, Type (0, 0), BuildingBlock: ZUJKAS_clean_linker_0, # of connection points: 2
#     Edge 23, Type (0, 0), BuildingBlock: ZUJKAS_clean_linker_0, # of connection points: 2
#     Edge 24, Type (0, 0), BuildingBlock: ZUJKAS_clean_linker_0, # of connection points: 2
#     Edge 25, Type (0, 0), BuildingBlock: ZUJKAS_clean_linker_0, # of connection points: 2
#     Edge 26, Type (0, 0), BuildingBlock: ZUJKAS_clean_linker_0, # of connection points: 2
#     Edge 27, Type (0, 0), BuildingBlock: ZUJKAS_clean_linker_0, # of connection points: 2
#     Edge 28, Type (0, 0), BuildingBlock: ZUJKAS_clean_linker_0, # of connection points: 2
#     Edge 29, Type (0, 0), BuildingBlock: ZUJKAS_clean_linker_0, # of connection points: 2
#     Edge 30, Type (0, 0), BuildingBlock: ZUJKAS_clean_linker_0, # of connection points: 2
#     Edge 31, Type (0, 0), BuildingBlock: ZUJKAS_clean_linker_0, # of connection points: 2
#     Edge 32, Type (0, 0), BuildingBlock: ZUJKAS_clean_linker_0, # of connection points: 2
#     Edge 33, Type (0, 0), BuildingBlock: ZUJKAS_clean_linker_0, # of connection points: 2
#     Edge 34, Type (0, 0), BuildingBlock: ZUJKAS_clean_linker_0, # of connection points: 2
#     Edge 35, Type (0, 0), BuildingBlock: ZUJKAS_clean_linker_0, # of connection points: 2
#     Edge 36, Type (0, 0), BuildingBlock: ZUJKAS_clean_linker_0, # of connection points: 2
#     Edge 37, Type (0, 0), BuildingBlock: ZUJKAS_clean_linker_0, # of connection points: 2
#     Edge 38, Type (0, 0), BuildingBlock: ZUJKAS_clean_linker_0, # of connection points: 2
#     Edge 39, Type (0, 0), BuildingBlock: ZUJKAS_clean_linker_0, # of connection points: 2
#     Edge 40, Type (0, 0), BuildingBlock: ZUJKAS_clean_linker_0, # of connection points: 2
#     Edge 41, Type (0, 0), BuildingBlock: ZUJKAS_clean_linker_0, # of connection points: 2
#     Edge 42, Type (0, 0), BuildingBlock: ZUJKAS_clean_linker_0, # of connection points: 2
#     Edge 43, Type (0, 0), BuildingBlock: ZUJKAS_clean_linker_0, # of connection points: 2
#     Edge 44, Type (0, 0), BuildingBlock: ZUJKAS_clean_linker_0, # of connection points: 2
#     Edge 45, Type (0, 0), BuildingBlock: ZUJKAS_clean_linker_0, # of connection points: 2
#     Edge 46, Type (0, 0), BuildingBlock: ZUJKAS_clean_linker_0, # of connection points: 2
#     Edge 47, Type (0, 0), BuildingBlock: ZUJKAS_clean_linker_0, # of connection points: 2
# Relax obj value: 0.094
# Max RMSD: 0.206
# Mean RMSD: 0.206
data_MOF--net-wjd--node1-GEDQOX_clean_sbu_0--edge1-ZUJKAS_clean_linker_0
_symmetry_space_group_name_H-M    P1
_symmetry_Int_Tables_number       1
_symmetry_cell_setting            triclinic
loop_
_symmetry_equiv_pos_as_xyz
'x, y, z'
_cell_length_a     49.596908
_cell_length_b     49.62583
_cell_length_c     70.587739
_cell_angle_alpha  89.969711
_cell_angle_beta   90.066417
_cell_angle_gamma 119.99598
loop_
_atom_site_label
_atom_site_type_symbol
_atom_site_fract_x
_atom_site_fract_y
_atom_site_fract_z
_atom_type_partial_charge
Nd0 Nd 0.377 0.11897 0.13119 0.0
Nd1 Nd 0.32647 0.14265 0.12116 0.0
C2 C 0.42032 0.1102 0.14733 0.0
C3 C 0.45324 0.11913 0.14348 0.0
C4 C 0.47435 0.14822 0.13559 0.0
C5 C 0.50562 0.15671 0.13264 0.0
C6 C 0.51657 0.13626 0.13737 0.0
C7 C 0.49519 0.10698 0.14503 0.0
C8 C 0.46398 0.09858 0.14808 0.0
C9 C 0.36183 0.11268 0.09269 0.0
C10 C 0.40198 0.19369 0.12151 0.0
C11 C 0.28611 0.15616 0.10541 0.0
C12 C 0.26506 0.16796 0.11092 0.0
C13 C 0.25867 0.18546 0.09794 0.0
C14 C 0.23729 0.19517 0.10238 0.0
C15 C 0.22167 0.18746 0.11991 0.0
C16 C 0.22868 0.17046 0.13307 0.0
C17 C 0.25018 0.16089 0.12865 0.0
C18 C 0.3362 0.14191 0.16008 0.0
C19 C 0.30276 0.06894 0.12882 0.0
O20 O 0.41505 0.13271 0.15206 0.0
O21 O 0.39905 0.08985 0.13587 0.0
O22 O 0.38162 0.10587 0.10018 0.0
O23 O 0.35377 0.12494 0.10551 0.0
O24 O 0.40808 0.17208 0.12778 0.0
O25 O 0.37364 0.18752 0.11646 0.0
O26 O 0.27874 0.12835 0.11149 0.0
O27 O 0.31614 0.17585 0.10598 0.0
O28 O 0.31791 0.15075 0.15266 0.0
O29 O 0.34786 0.1344 0.14674 0.0
O30 O 0.29962 0.08958 0.11858 0.0
O31 O 0.3288 0.07607 0.13824 0.0
H32 H 0.46672 0.1645 0.13177 0.0
H33 H 0.52115 0.17924 0.12647 0.0
H34 H 0.50271 0.09071 0.14906 0.0
H35 H 0.44823 0.07606 0.1542 0.0
H36 H 0.2698 0.19113 0.08417 0.0
H37 H 0.2323 0.2079 0.09181 0.0
H38 H 0.21747 0.16447 0.1468 0.0
H39 H 0.25484 0.14758 0.13898 0.0
Nd40 Nd 0.84508 0.70103 0.40315 0.0
Nd41 Nd 0.77336 0.65812 0.39529 0.0
C42 C 0.90055 0.73978 0.41777 0.0
C43 C 0.93221 0.76414 0.41186 0.0
C44 C 0.93725 0.78961 0.40058 0.0
C45 C 0.96759 0.81255 0.39561 0.0
C46 C 0.99357 0.81047 0.40172 0.0
C47 C 0.98831 0.78476 0.41287 0.0
C48 C 0.95804 0.76197 0.41788 0.0
C49 C 0.83593 0.68657 0.36466 0.0
C50 C 0.80451 0.73183 0.38622 0.0
C51 C 0.71517 0.61329 0.38871 0.0
C52 C 0.69397 0.57889 0.3892 0.0
C53 C 0.69655 0.55837 0.37656 0.0
C54 C 0.67518 0.52616 0.37729 0.0
C55 C 0.65068 0.51374 0.39062 0.0
C56 C 0.64858 0.53445 0.40334 0.0
C57 C 0.66974 0.56643 0.40257 0.0
C58 C 0.78789 0.69293 0.42786 0.0
C59 C 0.81682 0.6265 0.40678 0.0
O60 O 0.87789 0.74611 0.41677 0.0
O61 O 0.89187 0.71119 0.41277 0.0
O62 O 0.86302 0.70376 0.37233 0.0
O63 O 0.8157 0.67779 0.37746 0.0
O64 O 0.82853 0.7356 0.39647 0.0
O65 O 0.78135 0.70382 0.3813 0.0
O66 O 0.73604 0.62605 0.37522 0.0
O67 O 0.72535 0.62679 0.40512 0.0
O68 O 0.76538 0.68771 0.41644 0.0
O69 O 0.80224 0.67893 0.42241 0.0
O70 O 0.79044 0.62271 0.39966 0.0
O71 O 0.83976 0.65416 0.4117 0.0
H72 H 0.91779 0.79187 0.39562 0.0
H73 H 0.97067 0.83179 0.38683 0.0
H74 H 1.00765 0.78253 0.41807 0.0
H75 H 0.95482 0.74264 0.42664 0.0
H76 H 0.71487 0.56717 0.36603 0.0
H77 H 0.67751 0.51109 0.36715 0.0
H78 H 0.63061 0.52598 0.41407 0.0
H79 H 0.66703 0.58156 0.41249 0.0
Nd80 Nd 0.91554 0.26275 0.12922 0.0
Nd81 Nd 0.88788 0.1912 0.12217 0.0
C82 C 0.92797 0.32063 0.13553 0.0
C83 C 0.91348 0.34039 0.13751 0.0
C84 C 0.93089 0.37015 0.14547 0.0
C85 C 0.92003 0.39136 0.14475 0.0
C86 C 0.89141 0.38334 0.13602 0.0
C87 C 0.87336 0.35293 0.12877 0.0
C88 C 0.88433 0.33174 0.12944 0.0
C89 C 0.93561 0.24829 0.09651 0.0
C90 C 0.84025 0.21775 0.11908 0.0
C91 C 0.87154 0.13531 0.10843 0.0
C92 C 0.8645 0.10384 0.11491 0.0
C93 C 0.88732 0.09496 0.11405 0.0
C94 C 0.88014 0.06469 0.11894 0.0
C95 C 0.84987 0.04237 0.12474 0.0
C96 C 0.82715 0.05141 0.1258 0.0
C97 C 0.83433 0.08166 0.1209 0.0
C98 C 0.88323 0.20106 0.16065 0.0
C99 C 0.95981 0.23338 0.1379 0.0
O100 O 0.92488 0.30146 0.14928 0.0
O101 O 0.92622 0.30885 0.1187 0.0
O102 O 0.95267 0.27134 0.10763 0.0
O103 O 0.90745 0.2333 0.10232 0.0
O104 O 0.86249 0.24415 0.12634 0.0
O105 O 0.84569 0.19548 0.11371 0.0
O106 O 0.90049 0.15809 0.10921 0.0
O107 O 0.8516 0.14426 0.11287 0.0
O108 O 0.87364 0.17393 0.15317 0.0
O109 O 0.89402 0.22104 0.14767 0.0
O110 O 0.93936 0.20865 0.12828 0.0
O111 O 0.95484 0.25655 0.14246 0.0
H112 H 0.95352 0.37745 0.15166 0.0
H113 H 0.93435 0.41428 0.1508 0.0
H114 H 0.85133 0.34591 0.12183 0.0
H115 H 0.87057 0.30902 0.12302 0.0
H116 H 0.9107 0.11131 0.10935 0.0
H117 H 0.89838 0.0588 0.11817 0.0
H118 H 0.8035 0.03484 0.1299 0.0
H119 H 0.81599 0.08744 0.12151 0.0
Nd120 Nd 0.3318 0.14524 0.40236 0.0
Nd121 Nd 0.37371 0.11551 0.39317 0.0
C122 C 0.29423 0.16247 0.41816 0.0
C123 C 0.26918 0.16936 0.41329 0.0
C124 C 0.24347 0.15913 0.4254 0.0
C125 C 0.22048 0.16705 0.42189 0.0
C126 C 0.22266 0.18555 0.40617 0.0
C127 C 0.24828 0.19543 0.39389 0.0
C128 C 0.27124 0.18737 0.39738 0.0
C129 C 0.34409 0.14943 0.36354 0.0
C130 C 0.2994 0.07368 0.38572 0.0
C131 C 0.41793 0.10225 0.38459 0.0
C132 C 0.45242 0.11711 0.38426 0.0
C133 C 0.4669 0.10853 0.37036 0.0
C134 C 0.49895 0.11912 0.37128 0.0
C135 C 0.51734 0.13838 0.38626 0.0
C136 C 0.50283 0.1478 0.3998 0.0
C137 C 0.47085 0.13741 0.39877 0.0
C138 C 0.34137 0.09635 0.42664 0.0
C139 C 0.40676 0.19065 0.40478 0.0
O140 O 0.28765 0.13342 0.41733 0.0
O141 O 0.32234 0.18205 0.41213 0.0
O142 O 0.3274 0.1597 0.37147 0.0
O143 O 0.35328 0.1383 0.37628 0.0
O144 O 0.29663 0.09407 0.39641 0.0
O145 O 0.32696 0.07823 0.37999 0.0
O146 O 0.4042 0.11042 0.37176 0.0
O147 O 0.40521 0.09816 0.40133 0.0
O148 O 0.34573 0.07869 0.41504 0.0
O149 O 0.35503 0.12455 0.42086 0.0
O150 O 0.4099 0.16775 0.39757 0.0
O151 O 0.37942 0.18648 0.41002 0.0
H152 H 0.24144 0.1454 0.43782 0.0
H153 H 0.20138 0.15931 0.4318 0.0
H154 H 0.25056 0.20933 0.38152 0.0
H155 H 0.29076 0.19553 0.38774 0.0
H156 H 0.45325 0.09291 0.35902 0.0
H157 H 0.50919 0.11186 0.36031 0.0
H158 H 0.51586 0.16231 0.41167 0.0
H159 H 0.46037 0.14446 0.40973 0.0
Nd160 Nd 0.76993 0.65899 0.132 0.0
Nd161 Nd 0.84173 0.70243 0.12226 0.0
C162 C 0.71343 0.61454 0.14236 0.0
C163 C 0.69327 0.5801 0.14203 0.0
C164 C 0.67151 0.56503 0.15655 0.0
C165 C 0.64951 0.53318 0.15528 0.0
C166 C 0.64851 0.51554 0.13934 0.0
C167 C 0.67114 0.5306 0.12512 0.0
C168 C 0.69325 0.5624 0.12647 0.0
C169 C 0.78151 0.68925 0.09789 0.0
C170 C 0.81301 0.62735 0.11957 0.0
C171 C 0.89632 0.74095 0.10652 0.0
C172 C 0.92849 0.76546 0.11157 0.0
C173 C 0.94185 0.79443 0.10242 0.0
C174 C 0.97287 0.8172 0.10588 0.0
C175 C 0.9915 0.81157 0.11854 0.0
C176 C 0.97782 0.78272 0.12801 0.0
C177 C 0.94673 0.75995 0.12458 0.0
C178 C 0.83405 0.69128 0.16121 0.0
C179 C 0.79998 0.73337 0.13632 0.0
O180 O 0.73707 0.62704 0.15412 0.0
O181 O 0.71995 0.62848 0.12591 0.0
O182 O 0.75853 0.68343 0.10905 0.0
O183 O 0.79751 0.67741 0.10421 0.0
O184 O 0.78642 0.6235 0.12635 0.0
O185 O 0.83638 0.65505 0.11503 0.0
O186 O 0.87404 0.74765 0.10839 0.0
O187 O 0.88758 0.71222 0.11128 0.0
O188 O 0.86086 0.70822 0.15319 0.0
O189 O 0.81365 0.68144 0.14851 0.0
O190 O 0.8228 0.73572 0.12548 0.0
O191 O 0.77891 0.70642 0.14397 0.0
H192 H 0.67098 0.5781 0.16869 0.0
H193 H 0.63307 0.52249 0.16676 0.0
H194 H 0.67116 0.51815 0.11253 0.0
H195 H 0.70972 0.57335 0.11501 0.0
H196 H 0.92836 0.79932 0.09233 0.0
H197 H 0.98225 0.83927 0.09857 0.0
H198 H 0.99138 0.77731 0.13771 0.0
H199 H 0.93718 0.73786 0.13188 0.0
Nd200 Nd 0.88655 0.18642 0.40261 0.0
Nd201 Nd 0.91388 0.26167 0.39331 0.0
C202 C 0.87027 0.13147 0.41779 0.0
C203 C 0.86289 0.09964 0.4121 0.0
C204 C 0.87886 0.08612 0.42066 0.0
C205 C 0.87144 0.05565 0.41618 0.0
C206 C 0.8477 0.03778 0.40307 0.0
C207 C 0.83185 0.05145 0.3944 0.0
C208 C 0.83939 0.08202 0.39881 0.0
C209 C 0.88767 0.19817 0.36386 0.0
C210 C 0.96081 0.23255 0.39276 0.0
C211 C 0.92409 0.3144 0.37734 0.0
C212 C 0.91588 0.33887 0.38112 0.0
C213 C 0.91786 0.35891 0.36648 0.0
C214 C 0.90922 0.38152 0.36955 0.0
C215 C 0.89832 0.38471 0.38739 0.0
C216 C 0.89641 0.36448 0.40206 0.0
C217 C 0.90503 0.34181 0.39894 0.0
C218 C 0.91932 0.25141 0.43162 0.0
C219 C 0.8391 0.21493 0.40417 0.0
O220 O 0.89929 0.15384 0.41625 0.0
O221 O 0.85028 0.14036 0.41319 0.0
O222 O 0.87769 0.17062 0.37095 0.0
O223 O 0.89586 0.21702 0.37743 0.0
O224 O 0.93928 0.2078 0.40191 0.0
O225 O 0.95586 0.2548 0.38589 0.0
O226 O 0.90098 0.28701 0.37259 0.0
O227 O 0.94382 0.31266 0.38897 0.0
O228 O 0.92724 0.27847 0.42443 0.0
O229 O 0.90675 0.23143 0.41862 0.0
O230 O 0.86105 0.24173 0.39705 0.0
O231 O 0.84445 0.1924 0.40953 0.0
H232 H 0.89691 0.09905 0.43103 0.0
H233 H 0.88391 0.04586 0.42334 0.0
H234 H 0.81372 0.0386 0.38407 0.0
H235 H 0.82667 0.09173 0.39189 0.0
H236 H 0.92585 0.35689 0.35256 0.0
H237 H 0.91055 0.39612 0.35777 0.0
H238 H 0.88851 0.3663 0.41604 0.0
H239 H 0.90311 0.32649 0.41045 0.0
Nd240 Nd 0.14713 0.31871 0.61992 0.0
Nd241 Nd 0.12358 0.36943 0.62961 0.0
C242 C 0.16015 0.27791 0.60438 0.0
C243 C 0.17116 0.25597 0.60954 0.0
C244 C 0.15249 0.2243 0.60507 0.0
C245 C 0.16233 0.20301 0.60937 0.0
C246 C 0.19125 0.21283 0.61818 0.0
C247 C 0.21003 0.24463 0.62262 0.0
C248 C 0.20008 0.26596 0.61839 0.0
C249 C 0.14543 0.32805 0.65882 0.0
C250 C 0.0733 0.29536 0.62684 0.0
C251 C 0.1147 0.41249 0.64593 0.0
C252 C 0.1229 0.44537 0.64254 0.0
C253 C 0.1379 0.46759 0.65688 0.0
C254 C 0.1461 0.49876 0.65412 0.0
C255 C 0.13943 0.50865 0.63692 0.0
C256 C 0.12427 0.4863 0.62256 0.0
C257 C 0.1162 0.45509 0.6253 0.0
C258 C 0.11766 0.35431 0.59114 0.0
C259 C 0.19832 0.39414 0.61991 0.0
O260 O 0.13226 0.27076 0.61017 0.0
O261 O 0.18009 0.30789 0.60512 0.0
O262 O 0.15422 0.30965 0.65154 0.0
O263 O 0.13863 0.34013 0.64536 0.0
O264 O 0.09414 0.29225 0.61681 0.0
O265 O 0.08035 0.32128 0.63633 0.0
O266 O 0.13772 0.40783 0.65037 0.0
O267 O 0.09423 0.39093 0.63464 0.0
O268 O 0.11096 0.37426 0.5985 0.0
O269 O 0.1295 0.34598 0.6041 0.0
O270 O 0.17676 0.4004 0.62607 0.0
O271 O 0.19207 0.36571 0.61511 0.0
H272 H 0.13023 0.21598 0.59811 0.0
H273 H 0.14743 0.17886 0.60546 0.0
H274 H 0.23229 0.25301 0.62957 0.0
H275 H 0.21505 0.29021 0.62204 0.0
H276 H 0.14327 0.46079 0.67032 0.0
H277 H 0.15732 0.51507 0.66562 0.0
H278 H 0.11904 0.49301 0.60905 0.0
H279 H 0.10483 0.43863 0.61389 0.0
Nd280 Nd 0.26887 0.90419 0.89601 0.0
Nd281 Nd 0.19499 0.88234 0.90533 0.0
C282 C 0.32078 0.91245 0.88 0.0
C283 C 0.34485 0.90379 0.88406 0.0
C284 C 0.37546 0.92283 0.87765 0.0
C285 C 0.39825 0.91446 0.88081 0.0
C286 C 0.39095 0.88673 0.89044 0.0
C287 C 0.36024 0.86785 0.897 0.0
C288 C 0.3375 0.87632 0.8939 0.0
C289 C 0.25988 0.91113 0.93436 0.0
C290 C 0.21763 0.8299 0.90574 0.0
C291 C 0.14101 0.87029 0.92011 0.0
C292 C 0.10848 0.85987 0.91408 0.0
C293 C 0.09785 0.88133 0.91373 0.0
C294 C 0.06708 0.87198 0.90876 0.0
C295 C 0.04586 0.84076 0.90415 0.0
C296 C 0.05655 0.81927 0.90436 0.0
C297 C 0.08746 0.82868 0.90929 0.0
C298 C 0.20628 0.88318 0.86652 0.0
C299 C 0.24615 0.9554 0.89771 0.0
O300 O 0.29298 0.88959 0.87562 0.0
O301 O 0.31997 0.93315 0.89116 0.0
O302 O 0.28634 0.91707 0.92708 0.0
O303 O 0.23961 0.89932 0.92144 0.0
O304 O 0.24568 0.85093 0.89959 0.0
O305 O 0.19593 0.83689 0.91047 0.0
O306 O 0.16247 0.8981 0.91465 0.0
O307 O 0.15062 0.84998 0.91983 0.0
O308 O 0.17914 0.8751 0.87362 0.0
O309 O 0.22491 0.88983 0.88009 0.0
O310 O 0.22227 0.93534 0.90807 0.0
O311 O 0.26455 0.94749 0.88843 0.0
H312 H 0.38168 0.94407 0.86998 0.0
H313 H 0.42148 0.92943 0.87535 0.0
H314 H 0.35379 0.84659 0.90469 0.0
H315 H 0.3141 0.86129 0.89911 0.0
H316 H 0.11336 0.90548 0.91742 0.0
H317 H 0.05998 0.88936 0.90847 0.0
H318 H 0.04087 0.79498 0.90113 0.0
H319 H 0.09473 0.81142 0.90954 0.0
Nd320 Nd 0.70992 0.83606 0.62009 0.0
Nd321 Nd 0.66212 0.76548 0.63165 0.0
C322 C 0.74949 0.88862 0.60264 0.0
C323 C 0.77211 0.92157 0.60696 0.0
C324 C 0.78063 0.94392 0.59262 0.0
C325 C 0.80239 0.97521 0.59614 0.0
C326 C 0.81625 0.98496 0.61414 0.0
C327 C 0.80729 0.96245 0.62859 0.0
C328 C 0.78545 0.93107 0.62503 0.0
C329 C 0.70205 0.83057 0.65938 0.0
C330 C 0.73577 0.7904 0.63346 0.0
C331 C 0.61618 0.71288 0.64594 0.0
C332 C 0.58281 0.68981 0.64212 0.0
C333 C 0.56018 0.68373 0.65601 0.0
C334 C 0.52893 0.66084 0.65313 0.0
C335 C 0.51946 0.64321 0.6363 0.0
C336 C 0.54212 0.64961 0.62231 0.0
C337 C 0.57333 0.6726 0.62515 0.0
C338 C 0.68733 0.77225 0.59611 0.0
C339 C 0.63496 0.81213 0.61864 0.0
O340 O 0.75667 0.86776 0.6081 0.0
O341 O 0.72002 0.87954 0.60511 0.0
O342 O 0.71993 0.8567 0.65084 0.0
O343 O 0.68969 0.80989 0.64697 0.0
O344 O 0.73855 0.81162 0.62107 0.0
O345 O 0.70949 0.77325 0.64305 0.0
O346 O 0.62293 0.74045 0.65206 0.0
O347 O 0.63687 0.71405 0.63398 0.0
O348 O 0.67776 0.74786 0.60674 0.0
O349 O 0.68 0.79129 0.60339 0.0
O350 O 0.62896 0.784 0.62385 0.0
O351 O 0.66361 0.83518 0.6156 0.0
H352 H 0.77049 0.93715 0.57861 0.0
H353 H 0.80816 0.99182 0.58475 0.0
H354 H 0.81759 0.96895 0.64256 0.0
H355 H 0.77916 0.91421 0.63634 0.0
H356 H 0.56676 0.6964 0.66928 0.0
H357 H 0.51232 0.65643 0.66433 0.0
H358 H 0.53574 0.63691 0.60906 0.0
H359 H 0.59004 0.67663 0.61409 0.0
Nd360 Nd 0.12445 0.36891 0.89112 0.0
Nd361 Nd 0.1513 0.3206 0.90066 0.0
C362 C 0.11456 0.4117 0.87532 0.0
C363 C 0.12215 0.44429 0.87925 0.0
C364 C 0.13952 0.46779 0.86599 0.0
C365 C 0.14724 0.49871 0.86934 0.0
C366 C 0.13766 0.50703 0.88604 0.0
C367 C 0.12009 0.48341 0.89929 0.0
C368 C 0.1125 0.45247 0.89597 0.0
C369 C 0.11799 0.35254 0.92932 0.0
C370 C 0.19911 0.39668 0.90228 0.0
C371 C 0.16777 0.28264 0.91668 0.0
C372 C 0.17428 0.25738 0.91178 0.0
C373 C 0.16568 0.23263 0.92446 0.0
C374 C 0.17324 0.20945 0.92076 0.0
C375 C 0.18973 0.21052 0.90428 0.0
C376 C 0.19791 0.23515 0.89143 0.0
C377 C 0.1902 0.25828 0.89511 0.0
C378 C 0.15018 0.33097 0.86189 0.0
C379 C 0.07755 0.29272 0.88952 0.0
O380 O 0.13797 0.40775 0.87077 0.0
O381 O 0.09415 0.38944 0.88626 0.0
O382 O 0.11017 0.37174 0.92208 0.0
O383 O 0.13118 0.34564 0.91646 0.0
O384 O 0.17726 0.40181 0.89527 0.0
O385 O 0.19361 0.36865 0.9074 0.0
O386 O 0.13881 0.27637 0.91569 0.0
O387 O 0.18772 0.3107 0.91072 0.0
O388 O 0.15984 0.31313 0.86904 0.0
O389 O 0.14243 0.34209 0.87542 0.0
O390 O 0.09874 0.28879 0.8986 0.0
O391 O 0.08263 0.32026 0.88322 0.0
H392 H 0.14716 0.46222 0.85294 0.0
H393 H 0.16038 0.51604 0.85866 0.0
H394 H 0.11256 0.48889 0.9124 0.0
H395 H 0.09921 0.43502 0.90657 0.0
H396 H 0.15353 0.23151 0.93745 0.0
H397 H 0.16685 0.1911 0.93109 0.0
H398 H 0.21022 0.23653 0.87848 0.0
H399 H 0.197 0.27704 0.88502 0.0
Nd400 Nd 0.19437 0.88064 0.62581 0.0
Nd401 Nd 0.2668 0.90599 0.6315 0.0
C402 C 0.13858 0.86431 0.61171 0.0
C403 C 0.10655 0.85613 0.61741 0.0
C404 C 0.09256 0.87156 0.60877 0.0
C405 C 0.06169 0.8631 0.61283 0.0
C406 C 0.04386 0.83881 0.62561 0.0
C407 C 0.05816 0.82381 0.63461 0.0
C408 C 0.08915 0.83235 0.63054 0.0
C409 C 0.20593 0.87587 0.66384 0.0
C410 C 0.23866 0.95366 0.63817 0.0
C411 C 0.32509 0.92456 0.6418 0.0
C412 C 0.34861 0.9147 0.63875 0.0
C413 C 0.3667 0.91466 0.65405 0.0
C414 C 0.38912 0.90558 0.65157 0.0
C415 C 0.39418 0.89633 0.63365 0.0
C416 C 0.37581 0.89623 0.61834 0.0
C417 C 0.3533 0.90523 0.62086 0.0
C418 C 0.24829 0.90688 0.5943 0.0
C419 C 0.22119 0.83262 0.62211 0.0
O420 O 0.16059 0.89325 0.61387 0.0
O421 O 0.14792 0.84444 0.61549 0.0
O422 O 0.17851 0.86728 0.657 0.0
O423 O 0.22522 0.88575 0.65042 0.0
O424 O 0.21105 0.93149 0.63235 0.0
O425 O 0.26307 0.94947 0.63998 0.0
O426 O 0.30089 0.90623 0.65216 0.0
O427 O 0.31778 0.93614 0.62731 0.0
O428 O 0.26868 0.89894 0.59915 0.0
O429 O 0.23792 0.9126 0.60913 0.0
O430 O 0.24662 0.85308 0.63111 0.0
O431 O 0.20127 0.84044 0.61513 0.0
H432 H 0.10544 0.88999 0.59861 0.0
H433 H 0.05179 0.87563 0.60589 0.0
H434 H 0.04517 0.80487 0.64441 0.0
H435 H 0.09926 0.81999 0.63745 0.0
H436 H 0.36345 0.92163 0.66801 0.0
H437 H 0.40222 0.90547 0.66381 0.0
H438 H 0.37911 0.88964 0.60429 0.0
H439 H 0.33963 0.90486 0.60878 0.0
Nd440 Nd 0.66467 0.76402 0.89163 0.0
Nd441 Nd 0.7104 0.83509 0.90277 0.0
C442 C 0.61929 0.71012 0.87831 0.0
C443 C 0.58545 0.68786 0.88157 0.0
C444 C 0.56239 0.68937 0.87074 0.0
C445 C 0.53072 0.66735 0.87321 0.0
C446 C 0.52119 0.64312 0.88656 0.0
C447 C 0.5443 0.64178 0.89743 0.0
C448 C 0.5759 0.6637 0.89494 0.0
C449 C 0.69099 0.77241 0.92689 0.0
C450 C 0.63515 0.80839 0.90506 0.0
C451 C 0.74887 0.8883 0.91999 0.0
C452 C 0.77278 0.92074 0.91553 0.0
C453 C 0.79374 0.93923 0.92968 0.0
C454 C 0.81573 0.97043 0.92615 0.0
C455 C 0.8173 0.98396 0.90833 0.0
C456 C 0.79648 0.96514 0.89406 0.0
C457 C 0.77442 0.93386 0.89763 0.0
C458 C 0.7022 0.82912 0.86352 0.0
C459 C 0.73877 0.79131 0.88932 0.0
O460 O 0.62736 0.737 0.8704 0.0
O461 O 0.63865 0.71245 0.89165 0.0
O462 O 0.68318 0.74853 0.91609 0.0
O463 O 0.68206 0.79038 0.91981 0.0
O464 O 0.63013 0.78084 0.89932 0.0
O465 O 0.6634 0.83192 0.90834 0.0
O466 O 0.75587 0.86657 0.91664 0.0
O467 O 0.72011 0.87985 0.91549 0.0
O468 O 0.71953 0.85543 0.87201 0.0
O469 O 0.69052 0.80836 0.87595 0.0
O470 O 0.74117 0.81306 0.90114 0.0
O471 O 0.71229 0.77261 0.88027 0.0
H472 H 0.56881 0.70743 0.8602 0.0
H473 H 0.51368 0.66942 0.86468 0.0
H474 H 0.53808 0.62325 0.90761 0.0
H475 H 0.59291 0.66141 0.90336 0.0
H476 H 0.79294 0.92956 0.94358 0.0
H477 H 0.83169 0.98391 0.93738 0.0
H478 H 0.79679 0.97474 0.88022 0.0
H479 H 0.75842 0.92003 0.88649 0.0
H480 H 0.96805 0.1864 0.14995 0.0
H481 H 1.01612 0.18424 0.14976 0.0
H482 H 0.06747 0.28071 0.13305 0.0
H483 H 1.0191 0.28311 0.13376 0.0
H484 H 0.0488 0.19197 0.11794 0.0
H485 H 0.12644 0.2773 0.17171 0.0
H486 H 0.0851 0.26323 0.17091 0.0
H487 H 0.11083 0.29255 0.15452 0.0
C488 C 0.98975 0.20745 0.14684 0.0
C489 C 0.98988 0.235 0.14205 0.0
C490 C 1.01723 0.20615 0.14662 0.0
C491 C 0.04559 0.23227 0.14141 0.0
C492 C 0.04609 0.26036 0.13748 0.0
H493 H 0.22267 0.24231 0.11193 0.0
H494 H 0.18117 0.25472 0.11717 0.0
C495 C 1.01845 0.26178 0.13793 0.0
C496 C 0.07342 0.22868 0.13826 0.0
H497 H 0.14854 0.25434 0.15226 0.0
C498 C 0.07055 0.20562 0.12551 0.0
C499 C 0.10202 0.24664 0.14794 0.0
C500 C 0.10635 0.27116 0.16216 0.0
C501 C 0.09513 0.19979 0.12234 0.0
C502 C 0.12346 0.21723 0.1323 0.0
C503 C 0.12676 0.24086 0.1447 0.0
C504 C 0.14948 0.21058 0.13021 0.0
C505 C 0.09065 0.17505 0.10821 0.0
C506 C 0.14572 0.18186 0.13609 0.0
C507 C 0.16932 0.17466 0.13309 0.0
C508 C 0.19732 0.19603 0.12411 0.0
C509 C 0.2013 0.22512 0.11865 0.0
C510 C 0.17769 0.23237 0.12176 0.0
H511 H 0.07075 0.1691 0.09854 0.0
H512 H 0.11197 0.18272 0.09958 0.0
H513 H 0.08583 0.15362 0.11594 0.0
H514 H 0.12426 0.16478 0.14279 0.0
H515 H 0.16524 0.15195 0.13734 0.0
H516 H 0.29064 0.01519 0.37765 0.0
H517 H 0.24038 0.96624 0.37535 0.0
H518 H 0.19192 0.01735 0.38291 0.0
H519 H 0.24127 0.06565 0.38485 0.0
H520 H 0.19495 0.94116 0.40329 0.0
H521 H 0.14437 0.96179 0.33901 0.0
H522 H 0.18531 0.98466 0.34458 0.0
H523 H 0.15781 0.99375 0.35522 0.0
C524 C 0.26922 0.01596 0.37831 0.0
C525 C 0.27003 0.04436 0.38139 0.0
C526 C 0.24052 0.98799 0.37713 0.0
C527 C 0.21224 0.98808 0.37869 0.0
C528 C 0.21323 0.01657 0.38121 0.0
H529 H 1.01775 0.8738 0.40082 0.0
H530 H 0.07125 0.91423 0.3939 0.0
C531 C 0.24163 0.04426 0.38246 0.0
C532 C 0.18157 0.95864 0.37931 0.0
H533 H 0.10768 0.92456 0.36129 0.0
C534 C 0.17601 0.93715 0.39386 0.0
C535 C 0.15675 0.95338 0.36706 0.0
C536 C 0.16144 0.97448 0.35048 0.0
C537 C 0.14602 0.91166 0.39717 0.0
C538 C 0.12093 0.90726 0.38544 0.0
C539 C 0.12678 0.92803 0.37041 0.0
C540 C 0.0882 0.88224 0.38907 0.0
C541 C 0.14116 0.89055 0.41378 0.0
C542 C 0.07965 0.85067 0.38835 0.0
C543 C 0.04897 0.82743 0.39225 0.0
C544 C 0.02604 0.83519 0.39685 0.0
C545 C 0.03459 0.86685 0.39715 0.0
C546 C 0.06527 0.89005 0.39328 0.0
H547 H 0.1612 0.90089 0.42374 0.0
H548 H 0.11974 0.88535 0.42168 0.0
H549 H 0.13836 0.86824 0.40851 0.0
H550 H 0.09669 0.84396 0.38471 0.0
H551 H 0.04317 0.80332 0.39152 0.0
H552 H 0.86969 1.00661 0.10641 0.0
H553 H 0.8562 0.95305 0.11321 0.0
H554 H 0.79794 0.94973 0.15944 0.0
H555 H 0.81159 1.00358 0.15288 0.0
H556 H 0.86559 0.92833 0.14672 0.0
H557 H 0.73959 0.87135 0.12871 0.0
H558 H 0.76704 0.91073 0.12167 0.0
H559 H 0.75373 0.90242 0.14574 0.0
C560 C 0.85423 0.9947 0.11815 0.0
C561 C 0.84179 1.00962 0.12908 0.0
C562 C 0.84637 0.96392 0.12195 0.0
C563 C 0.82572 0.94713 0.13668 0.0
C564 C 0.81339 0.96192 0.14775 0.0
H565 H 0.77331 0.75099 0.16496 0.0
H566 H 0.77652 0.80219 0.16827 0.0
C567 C 0.82127 0.99278 0.14397 0.0
C568 C 0.81787 0.91443 0.14053 0.0
H569 H 0.75892 0.8386 0.13811 0.0
C570 C 0.84217 0.90878 0.14508 0.0
C571 C 0.78727 0.88882 0.13851 0.0
C572 C 0.76035 0.89341 0.13327 0.0
C573 C 0.83694 0.87836 0.14703 0.0
C574 C 0.80667 0.85275 0.14416 0.0
C575 C 0.78204 0.85827 0.14045 0.0
C576 C 0.80162 0.82072 0.14202 0.0
C577 C 0.86411 0.87373 0.15148 0.0
C578 C 0.81373 0.81396 0.126 0.0
C579 C 0.81196 0.7852 0.12412 0.0
C580 C 0.79793 0.76216 0.13821 0.0
C581 C 0.78432 0.76824 0.15391 0.0
C582 C 0.7862 0.79745 0.15582 0.0
H583 H 0.88375 0.89486 0.15794 0.0
H584 H 0.85702 0.85376 0.16126 0.0
H585 H 0.87257 0.86859 0.13816 0.0
H586 H 0.82528 0.83134 0.11505 0.0
H587 H 0.82217 0.78126 0.11161 0.0
H588 H 0.15933 0.14997 0.41065 0.0
H589 H 0.12012 0.1656 0.40656 0.0
H590 H 0.19169 0.25762 0.39022 0.0
H591 H 0.23117 0.24219 0.39435 0.0
H592 H 0.11579 0.21207 0.4255 0.0
H593 H 0.1275 0.23559 0.34803 0.0
H594 H 0.1437 0.21438 0.35958 0.0
H595 H 0.16281 0.256 0.36157 0.0
C596 C 0.16683 0.17357 0.40621 0.0
C597 C 0.19853 0.19478 0.40285 0.0
C598 C 0.14431 0.18245 0.40379 0.0
C599 C 0.1528 0.21271 0.39787 0.0
C600 C 0.18438 0.23395 0.3944 0.0
H601 H 0.01982 0.28413 0.38784 0.0
H602 H 0.06989 0.28453 0.38847 0.0
C603 C 0.20697 0.22506 0.39678 0.0
C604 C 0.12853 0.22201 0.39612 0.0
H605 H 0.09097 0.24419 0.36437 0.0
C606 C 0.11063 0.21937 0.41216 0.0
C607 C 0.12183 0.23181 0.37874 0.0
C608 C 0.13975 0.23444 0.36093 0.0
C609 C 0.08579 0.22535 0.41119 0.0
C610 C 0.0783 0.23393 0.3937 0.0
C611 C 0.09688 0.23782 0.37779 0.0
C612 C 0.0488 0.23459 0.39134 0.0
C613 C 0.06706 0.22158 0.42883 0.0
C614 C 0.02056 0.20647 0.39213 0.0
C615 C 0.99234 0.20619 0.39176 0.0
C616 C 0.99141 0.23406 0.39054 0.0
C617 C 0.01971 0.26229 0.38877 0.0
C618 C 0.04828 0.26254 0.38919 0.0
H619 H 0.08001 0.22242 0.44188 0.0
H620 H 0.06058 0.23998 0.42967 0.0
H621 H 0.04526 0.19869 0.42839 0.0
H622 H 0.02037 0.18463 0.39353 0.0
H623 H 0.97109 0.18391 0.39284 0.0
H624 H 0.26098 0.03999 0.10069 0.0
H625 H 0.21123 0.99167 0.10228 0.0
H626 H 0.23129 0.97723 0.15962 0.0
H627 H 0.28172 0.02617 0.15811 0.0
H628 H 0.19545 0.92873 0.11077 0.0
H629 H 0.14717 0.97745 0.16308 0.0
H630 H 0.18194 1.00193 0.14962 0.0
H631 H 0.18331 0.97911 0.16891 0.0
C632 C 0.25508 0.02641 0.11361 0.0
C633 C 0.27525 0.03705 0.12934 0.0
C634 C 0.22657 0.99871 0.11447 0.0
C635 C 0.21722 0.98101 0.13115 0.0
C636 C 0.23784 0.99074 0.14668 0.0
H637 H 0.02599 0.8271 0.15155 0.0
H638 H 0.08125 0.86538 0.15581 0.0
C639 C 0.26676 0.01851 0.14575 0.0
C640 C 0.1853 0.9533 0.13212 0.0
H641 H 0.11277 0.92815 0.15055 0.0
C642 C 0.17745 0.92841 0.11965 0.0
C643 C 0.16177 0.95283 0.1437 0.0
C644 C 0.1687 0.97926 0.15705 0.0
C645 C 0.14671 0.90345 0.11815 0.0
C646 C 0.12285 0.90368 0.12906 0.0
C647 C 0.13093 0.92797 0.14209 0.0
C648 C 0.08927 0.87986 0.12647 0.0
C649 C 0.14014 0.87709 0.10483 0.0
C650 C 0.07506 0.87542 0.10862 0.0
C651 C 0.04354 0.85337 0.1061 0.0
C652 C 0.02517 0.83533 0.12141 0.0
C653 C 0.03938 0.84013 0.13935 0.0
C654 C 0.071 0.8622 0.14185 0.0
H655 H 0.16124 0.8751 0.10253 0.0
H656 H 0.12123 0.85452 0.11031 0.0
H657 H 0.13285 0.88161 0.09088 0.0
H658 H 0.08834 0.88919 0.09659 0.0
H659 H 0.0337 0.85025 0.09203 0.0
H660 H 0.75347 0.73989 0.38288 0.0
H661 H 0.75423 0.78992 0.38142 0.0
H662 H 0.85454 0.83866 0.37936 0.0
H663 H 0.8539 0.78935 0.38062 0.0
H664 H 0.78209 0.83743 0.40824 0.0
H665 H 0.83462 0.88282 0.33812 0.0
H666 H 0.81803 0.84233 0.34446 0.0
H667 H 0.85702 0.87038 0.35168 0.0
C668 C 0.77557 0.76126 0.38152 0.0
C669 C 0.8036 0.76063 0.38175 0.0
C670 C 0.77602 0.78985 0.38085 0.0
C671 C 0.80446 0.81817 0.38005 0.0
C672 C 0.83228 0.81728 0.37956 0.0
H673 H 0.88702 0.01439 0.39796 0.0
H674 H 0.87334 0.9605 0.39176 0.0
C675 C 0.83186 0.78896 0.38038 0.0
C676 C 0.80578 0.84885 0.3814 0.0
H677 H 0.83915 0.92098 0.36097 0.0
C678 C 0.794 0.85552 0.39773 0.0
C679 C 0.82147 0.87259 0.36774 0.0
C680 C 0.83323 0.86659 0.34943 0.0
C681 C 0.79889 0.88561 0.40121 0.0
C682 C 0.81569 0.90965 0.3879 0.0
C683 C 0.82648 0.90268 0.37126 0.0
C684 C 0.82361 0.94248 0.39139 0.0
C685 C 0.78736 0.89181 0.41956 0.0
C686 C 0.80026 0.95051 0.39302 0.0
C687 C 0.80803 0.98138 0.39661 0.0
C688 C 0.83935 1.00498 0.39868 0.0
C689 C 0.86266 0.99685 0.39676 0.0
C690 C 0.85488 0.96604 0.39308 0.0
H691 H 0.78054 0.87263 0.42993 0.0
H692 H 0.8055 0.91385 0.42608 0.0
H693 H 0.76666 0.89419 0.41665 0.0
H694 H 0.77599 0.93288 0.3915 0.0
H695 H 0.78942 0.98665 0.39812 0.0
H696 H 0.28989 1.01191 0.63263 0.0
H697 H 0.29056 0.06192 0.63258 0.0
H698 H 0.19434 0.01475 0.64988 0.0
H699 H 0.19359 0.96534 0.65006 0.0
H700 H 0.2523 0.07517 0.6096 0.0
H701 H 0.2323 0.08984 0.68495 0.0
H702 H 0.24545 0.0636 0.67731 0.0
H703 H 0.20478 0.0519 0.67622 0.0
C704 C 0.26922 1.01244 0.63696 0.0
C705 C 0.24173 0.98467 0.64142 0.0
C706 C 0.26953 0.04097 0.63679 0.0
C707 C 0.24257 0.04223 0.64143 0.0
C708 C 0.21561 0.01463 0.64661 0.0
H709 H 0.15633 0.15355 0.63214 0.0
H710 H 0.17255 0.11514 0.63793 0.0
C711 C 0.21519 0.98628 0.64661 0.0
C712 C 0.24122 0.07145 0.6393 0.0
H713 H 0.21878 0.11762 0.66238 0.0
C714 C 0.24561 0.08489 0.62122 0.0
C715 C 0.23231 0.08408 0.65442 0.0
C716 C 0.22874 0.07179 0.67436 0.0
C717 C 0.2397 0.10941 0.61766 0.0
C718 C 0.22957 0.12118 0.63264 0.0
C719 C 0.22635 0.10853 0.65086 0.0
C720 C 0.22039 0.14527 0.62948 0.0
C721 C 0.24278 0.12142 0.59767 0.0
C722 C 0.24197 0.17527 0.62305 0.0
C723 C 0.23271 0.19734 0.61963 0.0
C724 C 0.20164 0.1899 0.62257 0.0
C725 C 0.1803 0.16 0.62939 0.0
C726 C 0.18959 0.13804 0.63285 0.0
H727 H 0.24453 0.1057 0.58716 0.0
H728 H 0.22259 0.12423 0.59388 0.0
H729 H 0.26416 0.14455 0.59659 0.0
H730 H 0.26599 0.18162 0.62062 0.0
H731 H 0.24976 0.22003 0.61431 0.0
H732 H 1.00861 0.86043 0.92061 0.0
H733 H 0.95501 0.84545 0.9127 0.0
H734 H 0.95347 0.78304 0.86973 0.0
H735 H 1.00756 0.79835 0.87731 0.0
H736 H 0.93171 0.85107 0.8766 0.0
H737 H 0.87407 0.72835 0.9019 0.0
H738 H 0.91294 0.75702 0.9092 0.0
H739 H 0.90627 0.74087 0.8858 0.0
C740 C 0.9971 0.84372 0.90934 0.0
C741 C 1.01267 0.83078 0.89955 0.0
C742 C 0.96631 0.83502 0.90492 0.0
C743 C 0.95009 0.81296 0.89072 0.0
C744 C 0.96533 0.79977 0.88094 0.0
H745 H 0.75576 0.76525 0.86004 0.0
H746 H 0.80605 0.76647 0.85676 0.0
C747 C 0.99629 0.80854 0.88533 0.0
C748 C 0.9175 0.80461 0.88608 0.0
H749 H 0.84153 0.74701 0.89104 0.0
C750 C 0.91204 0.82813 0.87941 0.0
C751 C 0.89178 0.77466 0.88971 0.0
C752 C 0.8963 0.7487 0.89715 0.0
C753 C 0.88166 0.82289 0.87704 0.0
C754 C 0.85598 0.79346 0.88157 0.0
C755 C 0.86128 0.76944 0.88737 0.0
C756 C 0.82435 0.7894 0.88363 0.0
C757 C 0.87709 0.84933 0.87063 0.0
C758 C 0.8179 0.80119 0.89991 0.0
C759 C 0.78968 0.80061 0.90177 0.0
C760 C 0.76693 0.78813 0.88739 0.0
C761 C 0.77276 0.77499 0.87135 0.0
C762 C 0.80143 0.77573 0.86945 0.0
H763 H 0.89857 0.86858 0.86422 0.0
H764 H 0.85784 0.841 0.86014 0.0
H765 H 0.87062 0.85869 0.883 0.0
H766 H 0.83515 0.81166 0.91105 0.0
H767 H 0.78599 0.81057 0.91448 0.0
H768 H 0.86257 0.02528 0.59024 0.0
H769 H 0.90088 0.07999 0.59546 0.0
H770 H 0.86301 0.07555 0.65105 0.0
H771 H 0.82426 0.02067 0.64588 0.0
H772 H 0.89112 0.12979 0.60301 0.0
H773 H 0.9562 0.11345 0.66191 0.0
H774 H 0.9293 0.08167 0.64708 0.0
H775 H 0.91496 0.0964 0.66534 0.0
C776 C 0.86214 0.03588 0.60355 0.0
C777 C 0.84013 0.01836 0.61761 0.0
C778 C 0.88423 0.06723 0.60655 0.0
C779 C 0.88513 0.08194 0.62372 0.0
C780 C 0.86324 0.06464 0.63782 0.0
H781 H 0.029 0.2745 0.65528 0.0
H782 H 0.97952 0.22447 0.65604 0.0
C783 C 0.84107 0.03319 0.63483 0.0
C784 C 0.90874 0.11548 0.62651 0.0
H785 H 0.97364 0.16488 0.65203 0.0
C786 C 0.90899 0.13745 0.61384 0.0
C787 C 0.93196 0.12567 0.64075 0.0
C788 C 0.93341 0.10313 0.65449 0.0
C789 C 0.93216 0.16903 0.6147 0.0
C790 C 0.95618 0.179 0.62838 0.0
C791 C 0.95521 0.15732 0.64158 0.0
C792 C 0.98434 0.21067 0.62771 0.0
C793 C 0.93091 0.1914 0.60072 0.0
C794 C 1.00334 0.21966 0.61158 0.0
C795 C 0.03133 0.2479 0.61116 0.0
C796 C 0.04126 0.26804 0.62689 0.0
C797 C 0.02182 0.25966 0.64288 0.0
C798 C 0.99369 0.23101 0.64336 0.0
H799 H 0.9067 0.1831 0.59585 0.0
H800 H 0.94038 0.21496 0.60696 0.0
H801 H 0.94506 0.19323 0.5881 0.0
H802 H 0.99707 0.20427 0.59947 0.0
H803 H 0.04568 0.25358 0.59859 0.0
H804 H 0.24517 0.21882 0.8904 0.0
H805 H 0.26061 0.17947 0.8857 0.0
H806 H 0.17107 0.10847 0.9061 0.0
H807 H 0.15521 0.14747 0.91046 0.0
H808 H 0.26467 0.14075 0.91298 0.0
H809 H 0.1807 0.07059 0.85675 0.0
H810 H 0.18891 0.10933 0.86283 0.0
H811 H 0.16265 0.07659 0.8771 0.0
C812 C 0.22854 0.19476 0.8936 0.0
C813 C 0.19886 0.18639 0.90077 0.0
C814 C 0.2375 0.1723 0.89101 0.0
C815 C 0.21689 0.14089 0.8953 0.0
C816 C 0.18722 0.13243 0.90236 0.0
H817 H 0.23776 0.98713 0.92601 0.0
H818 H 0.23588 0.03518 0.92378 0.0
C819 C 0.1783 0.15487 0.90505 0.0
C820 C 0.22679 0.11715 0.89324 0.0
H821 H 0.20639 0.04707 0.8727 0.0
C822 C 0.25215 0.12047 0.90398 0.0
C823 C 0.21082 0.09085 0.88131 0.0
C824 C 0.18444 0.08669 0.86869 0.0
C825 C 0.26094 0.09753 0.90382 0.0
C826 C 0.24386 0.07041 0.89271 0.0
C827 C 0.21946 0.06778 0.88126 0.0
C828 C 0.24885 0.04325 0.89421 0.0
C829 C 0.28819 0.10228 0.91579 0.0
C830 C 0.25712 0.03175 0.87834 0.0
C831 C 0.25855 1.00418 0.87964 0.0
C832 C 0.25106 0.98741 0.89672 0.0
C833 C 0.24375 0.99956 0.91265 0.0
C834 C 0.24276 0.02714 0.91143 0.0
H835 H 0.30416 0.12732 0.91887 0.0
H836 H 0.27944 0.09001 0.92949 0.0
H837 H 0.30155 0.09268 0.90869 0.0
H838 H 0.26171 0.04368 0.86486 0.0
H839 H 0.26379 0.99513 0.86707 0.0
H840 H 1.01107 0.82067 0.65922 0.0
H841 H 0.95603 0.80408 0.66442 0.0
H842 H 0.94596 0.8186 0.60523 0.0
H843 H 1.00033 0.83408 0.59978 0.0
H844 H 0.92451 0.83621 0.65884 0.0
H845 H 0.87332 0.73155 0.61337 0.0
H846 H 0.91359 0.75104 0.62072 0.0
H847 H 0.90161 0.76544 0.60089 0.0
C848 C 0.99704 0.81992 0.64725 0.0
C849 C 1.01031 0.82873 0.62905 0.0
C850 C 0.96558 0.81059 0.65028 0.0
C851 C 0.94659 0.80952 0.63517 0.0
C852 C 0.95984 0.81853 0.61707 0.0
H853 H 0.77906 0.80126 0.6068 0.0
H854 H 0.82773 0.80113 0.61018 0.0
C855 C 0.99118 0.82784 0.61402 0.0
C856 C 0.91324 0.80012 0.63825 0.0
H857 H 0.84006 0.75257 0.62076 0.0
C858 C 0.90593 0.8175 0.65082 0.0
C859 C 0.88886 0.77553 0.62791 0.0
C860 C 0.89467 0.75461 0.61512 0.0
C861 C 0.87535 0.81233 0.65234 0.0
C862 C 0.85137 0.78892 0.64115 0.0
C863 C 0.85841 0.77051 0.62934 0.0
C864 C 0.82013 0.78618 0.63942 0.0
C865 C 0.86924 0.83314 0.66502 0.0
C866 C 0.79898 0.77695 0.65464 0.0
C867 C 0.77058 0.77673 0.65269 0.0
C868 C 0.76321 0.78608 0.63557 0.0
C869 C 0.78404 0.79418 0.62026 0.0
C870 C 0.81196 0.79407 0.62214 0.0
H871 H 0.89102 0.85246 0.67111 0.0
H872 H 0.85707 0.8432 0.65701 0.0
H873 H 0.85387 0.81922 0.67686 0.0
H874 H 0.80463 0.77038 0.66805 0.0
H875 H 0.75506 0.77046 0.66473 0.0
H876 H 0.06894 0.23613 0.88081 0.0
H877 H 0.02074 0.18627 0.88168 0.0
H878 H 0.96916 0.23317 0.89332 0.0
H879 H 1.01794 0.28379 0.89217 0.0
H880 H 0.98514 0.16501 0.91409 0.0
H881 H 0.91441 0.16687 0.85345 0.0
H882 H 0.95594 0.19298 0.85499 0.0
H883 H 0.92994 0.19983 0.86915 0.0
C884 C 0.04727 0.23597 0.88315 0.0
C885 C 0.04724 0.2639 0.88646 0.0
C886 C 0.01969 0.20738 0.88368 0.0
C887 C 0.99124 0.20581 0.8876 0.0
C888 C 0.99076 0.23376 0.89002 0.0
H889 H 0.8352 0.03353 0.9324 0.0
H890 H 0.87528 0.0878 0.92742 0.0
C891 C 1.0186 0.26268 0.88933 0.0
C892 C 0.96313 0.17469 0.89085 0.0
H893 H 0.8911 0.12265 0.87341 0.0
C894 C 0.96451 0.15585 0.90525 0.0
C895 C 0.93631 0.16259 0.87923 0.0
C896 C 0.93393 0.18141 0.86322 0.0
C897 C 0.94015 0.12526 0.90821 0.0
C898 C 0.91322 0.11313 0.89668 0.0
C899 C 0.91165 0.13199 0.88233 0.0
C900 C 0.88701 0.08061 0.89908 0.0
C901 C 0.94394 0.10583 0.9233 0.0
C902 C 0.8795 0.05854 0.88461 0.0
C903 C 0.85657 0.02733 0.88744 0.0
C904 C 0.84057 0.01751 0.90481 0.0
C905 C 0.84748 0.03999 0.91902 0.0
C906 C 0.87034 0.07113 0.91616 0.0
H907 H 0.96862 0.11587 0.92775 0.0
H908 H 0.93016 0.10472 0.93595 0.0
H909 H 0.93532 0.0817 0.91822 0.0
H910 H 0.89203 0.06527 0.8713 0.0
H911 H 0.85208 1.01075 0.87621 0.0
H912 H 0.32428 0.17353 0.33592 0.0
H913 H 0.32905 0.17085 0.30161 0.0
H914 H 0.37851 0.12079 0.30954 0.0
H915 H 0.37334 0.12307 0.34409 0.0
H916 H 0.38158 0.19371 0.2792 0.0
H917 H 0.31042 0.06508 0.27198 0.0
H918 H 0.31057 0.08513 0.29334 0.0
H919 H 0.34269 0.07925 0.28815 0.0
C920 C 0.3362 0.16194 0.33039 0.0
C921 C 0.34841 0.14848 0.34274 0.0
C922 C 0.33893 0.16044 0.31073 0.0
C923 C 0.35378 0.14527 0.30286 0.0
C924 C 0.36642 0.13212 0.31518 0.0
H925 H 0.36922 0.11892 0.17928 0.0
H926 H 0.37738 0.11964 0.21384 0.0
C927 C 0.3637 0.13365 0.33494 0.0
C928 C 0.35607 0.14381 0.28178 0.0
H929 H 0.33096 0.09389 0.24391 0.0
C930 C 0.37071 0.17183 0.27153 0.0
C931 C 0.34211 0.1153 0.27165 0.0
C932 C 0.32533 0.08442 0.28176 0.0
C933 C 0.37112 0.17219 0.25159 0.0
C934 C 0.35606 0.14376 0.24146 0.0
C935 C 0.34252 0.11568 0.25165 0.0
C936 C 0.35157 0.14299 0.22048 0.0
C937 C 0.38741 0.20313 0.24151 0.0
C938 C 0.33403 0.15539 0.21272 0.0
C939 C 0.32936 0.15493 0.19317 0.0
C940 C 0.34206 0.14205 0.18076 0.0
C941 C 0.35943 0.1293 0.18845 0.0
C942 C 0.36399 0.12961 0.20819 0.0
H943 H 0.40533 0.22163 0.25068 0.0
H944 H 0.39871 0.20166 0.22829 0.0
H945 H 0.37007 0.21013 0.2377 0.0
H946 H 0.32369 0.1653 0.22186 0.0
H947 H 0.31568 0.16475 0.18775 0.0
H948 H 0.78021 0.65789 0.3451 0.0
H949 H 0.77298 0.65194 0.31048 0.0
H950 H 0.87253 0.69843 0.30305 0.0
H951 H 0.87977 0.70414 0.3373 0.0
H952 H 0.79532 0.69854 0.2822 0.0
H953 H 0.84303 0.62008 0.27121 0.0
H954 H 0.83159 0.62659 0.29427 0.0
H955 H 0.86892 0.65414 0.28453 0.0
C956 C 0.80046 0.66648 0.33604 0.0
C957 C 0.83055 0.68126 0.34394 0.0
C958 C 0.79634 0.66318 0.31627 0.0
C959 C 0.8222 0.67427 0.3041 0.0
C960 C 0.85216 0.68904 0.31207 0.0
H961 H 0.87843 0.70945 0.18842 0.0
H962 H 0.87159 0.70256 0.22271 0.0
C963 C 0.85627 0.69242 0.3317 0.0
C964 C 0.81846 0.67166 0.28305 0.0
H965 H 0.84062 0.64732 0.24374 0.0
C966 C 0.80472 0.68688 0.27377 0.0
C967 C 0.83065 0.6564 0.272 0.0
C968 C 0.84409 0.63811 0.28101 0.0
C969 C 0.80444 0.68871 0.25383 0.0
C970 C 0.81788 0.67459 0.24282 0.0
C971 C 0.83048 0.65833 0.25211 0.0
C972 C 0.82126 0.67828 0.22179 0.0
C973 C 0.79114 0.70705 0.24472 0.0
C974 C 0.79523 0.66667 0.20969 0.0
C975 C 0.79913 0.67057 0.18995 0.0
C976 C 0.82911 0.68609 0.18197 0.0
C977 C 0.85502 0.6974 0.19411 0.0
C978 C 0.85114 0.69344 0.21374 0.0
H979 H 0.78714 0.7214 0.25518 0.0
H980 H 0.80694 0.72257 0.23348 0.0
H981 H 0.76849 0.69074 0.23801 0.0
H982 H 0.77192 0.65445 0.21549 0.0
H983 H 0.77875 0.66168 0.18098 0.0
H984 H 0.90855 0.25709 0.17988 0.0
H985 H 0.9133 0.26484 0.21453 0.0
H986 H 0.86572 0.16548 0.22266 0.0
H987 H 0.86099 0.15768 0.18843 0.0
H988 H 0.86538 0.24023 0.24473 0.0
H989 H 0.94956 0.19826 0.25133 0.0
H990 H 0.94143 0.21061 0.22902 0.0
H991 H 0.91523 0.17241 0.23815 0.0
C992 C 0.89893 0.23697 0.18911 0.0
C993 C 0.88454 0.20678 0.18141 0.0
C994 C 0.90166 0.24141 0.20889 0.0
C995 C 0.89029 0.21574 0.22124 0.0
C996 C 0.87514 0.18567 0.21348 0.0
H997 H 0.86702 0.1561 0.33543 0.0
H998 H 0.86999 0.16516 0.30136 0.0
C999 C 0.87235 0.18125 0.19386 0.0
C1000 C 0.89452 0.21972 0.24221 0.0
H1001 H 0.92441 0.19975 0.27984 0.0
C1002 C 0.87873 0.23193 0.25243 0.0
C1003 C 0.91205 0.20901 0.25229 0.0
C1004 C 0.9308 0.1971 0.24215 0.0
C1005 C 0.87854 0.23195 0.27245 0.0
C1006 C 0.89485 0.21978 0.2825 0.0
C1007 C 0.91176 0.20894 0.27221 0.0
C1008 C 0.89244 0.21526 0.30351 0.0
C1009 C 0.85959 0.24346 0.28271 0.0
C1010 C 0.90411 0.24044 0.31627 0.0
C1011 C 0.90246 0.23526 0.33598 0.0
C1012 C 0.88912 0.20483 0.34322 0.0
C1013 C 0.8774 0.17984 0.33038 0.0
C1014 C 0.8791 0.18498 0.31083 0.0
H1015 H 0.84445 0.24756 0.27292 0.0
H1016 H 0.84478 0.22647 0.2937 0.0
H1017 H 0.87551 0.26571 0.28996 0.0
H1018 H 0.91499 0.26407 0.31101 0.0
H1019 H 0.91201 0.255 0.3455 0.0
H1020 H 0.16268 0.30304 0.68705 0.0
H1021 H 0.15903 0.30795 0.72117 0.0
H1022 H 0.12061 0.36797 0.71211 0.0
H1023 H 0.12428 0.36307 0.67752 0.0
H1024 H 0.16844 0.3886 0.74162 0.0
H1025 H 0.07691 0.26565 0.75137 0.0
H1026 H 0.10958 0.2698 0.73806 0.0
H1027 H 0.08583 0.28457 0.72853 0.0
C1028 C 0.15345 0.31734 0.69224 0.0
C1029 C 0.14368 0.3326 0.67953 0.0
C1030 C 0.15126 0.32003 0.71181 0.0
C1031 C 0.13909 0.33792 0.7193 0.0
C1032 C 0.12993 0.35388 0.70669 0.0
H1033 H 0.12692 0.36448 0.84357 0.0
H1034 H 0.12204 0.36901 0.80909 0.0
C1035 C 0.13205 0.35111 0.68694 0.0
C1036 C 0.13607 0.3394 0.7403 0.0
H1037 H 0.10568 0.29251 0.77914 0.0
C1038 C 0.15425 0.36774 0.74984 0.0
C1039 C 0.11746 0.31222 0.75108 0.0
C1040 C 0.09609 0.28139 0.74175 0.0
C1041 C 0.15575 0.36919 0.76984 0.0
C1042 C 0.13842 0.34163 0.78056 0.0
C1043 C 0.11913 0.31364 0.77098 0.0
C1044 C 0.14212 0.34051 0.80152 0.0
C1045 C 0.17712 0.39981 0.77936 0.0
C1046 C 0.15477 0.3229 0.8088 0.0
C1047 C 0.15762 0.3204 0.82834 0.0
C1048 C 0.14771 0.33527 0.84122 0.0
C1049 C 0.13505 0.35303 0.83402 0.0
C1050 C 0.13231 0.35565 0.81431 0.0
H1051 H 0.19205 0.41813 0.76903 0.0
H1052 H 0.16299 0.40781 0.78716 0.0
H1053 H 0.19227 0.39697 0.78981 0.0
H1054 H 0.16245 0.31094 0.79929 0.0
H1055 H 0.16742 0.30649 0.83337 0.0
H1056 H 0.16453 0.86578 0.83797 0.0
H1057 H 0.17367 0.86806 0.80392 0.0
H1058 H 0.27183 0.90574 0.81393 0.0
H1059 H 0.26265 0.90337 0.84837 0.0
H1060 H 0.21148 0.92124 0.78236 0.0
H1061 H 0.25012 0.83382 0.77611 0.0
H1062 H 0.23008 0.83627 0.79682 0.0
H1063 H 0.2702 0.86472 0.79301 0.0
C1064 C 0.18809 0.8744 0.83299 0.0
C1065 C 0.21285 0.88423 0.8459 0.0
C1066 C 0.19329 0.87572 0.81347 0.0
C1067 C 0.22337 0.88679 0.80626 0.0
C1068 C 0.24831 0.8966 0.8191 0.0
H1069 H 0.26284 0.90066 0.68221 0.0
H1070 H 0.272 0.90571 0.71676 0.0
C1071 C 0.24308 0.89532 0.83878 0.0
C1072 C 0.22805 0.8888 0.78527 0.0
H1073 H 0.24492 0.85593 0.74777 0.0
C1074 C 0.21918 0.90724 0.77484 0.0
C1075 C 0.23826 0.87068 0.77538 0.0
C1076 C 0.24757 0.85005 0.7858 0.0
C1077 C 0.21919 0.90725 0.75493 0.0
C1078 C 0.22791 0.88801 0.74502 0.0
C1079 C 0.23823 0.87066 0.75537 0.0
C1080 C 0.22317 0.88334 0.72414 0.0
C1081 C 0.20912 0.92737 0.74458 0.0
C1082 C 0.1928 0.86848 0.71684 0.0
C1083 C 0.18758 0.86548 0.6973 0.0
C1084 C 0.2126 0.87722 0.68447 0.0
C1085 C 0.24311 0.89131 0.69173 0.0
C1086 C 0.24835 0.89424 0.71144 0.0
H1087 H 0.21112 0.94654 0.75369 0.0
H1088 H 0.22326 0.93755 0.73159 0.0
H1089 H 0.18439 0.91289 0.74026 0.0
H1090 H 0.173 0.85957 0.72631 0.0
H1091 H 0.16379 0.85438 0.69223 0.0
H1092 H 0.66916 0.77629 0.67975 0.0
H1093 H 0.66371 0.77069 0.71443 0.0
H1094 H 0.72124 0.87008 0.72062 0.0
H1095 H 0.72649 0.87575 0.68621 0.0
H1096 H 0.71041 0.78885 0.7427 0.0
H1097 H 0.64451 0.85079 0.75219 0.0
H1098 H 0.64875 0.8368 0.72941 0.0
H1099 H 0.67962 0.87279 0.7388 0.0
C1100 C 0.6804 0.79691 0.68854 0.0
C1101 C 0.69802 0.82649 0.68024 0.0
C1102 C 0.67737 0.79369 0.70835 0.0
C1103 C 0.69163 0.82001 0.72019 0.0
C1104 C 0.70945 0.84947 0.71184 0.0
H1105 H 0.72588 0.87437 0.83674 0.0
H1106 H 0.72086 0.86876 0.80233 0.0
C1107 C 0.71256 0.85267 0.69214 0.0
C1108 C 0.68872 0.81704 0.74127 0.0
H1109 H 0.66781 0.84374 0.78003 0.0
C1110 C 0.70069 0.80046 0.75087 0.0
C1111 C 0.67596 0.8321 0.75198 0.0
C1112 C 0.66119 0.84887 0.74258 0.0
C1113 C 0.70168 0.79989 0.77084 0.0
C1114 C 0.68992 0.81592 0.78155 0.0
C1115 C 0.67699 0.83158 0.7719 0.0
C1116 C 0.69259 0.81856 0.80266 0.0
C1117 C 0.7166 0.78333 0.7803 0.0
C1118 C 0.67815 0.79222 0.81449 0.0
C1119 C 0.68103 0.79541 0.83431 0.0
C1120 C 0.69828 0.825 0.84265 0.0
C1121 C 0.71244 0.85124 0.83078 0.0
C1122 C 0.70955 0.84807 0.81107 0.0
H1123 H 0.73031 0.77787 0.77016 0.0
H1124 H 0.73217 0.79761 0.79201 0.0
H1125 H 0.69817 0.7611 0.78643 0.0
H1126 H 0.66447 0.76922 0.80842 0.0
H1127 H 0.66987 0.77477 0.84307 0.0
H1128 H 0.29747 0.92354 0.96465 0.0
H1129 H 0.30422 0.95711 0.99168 0.0
H1130 H 0.22794 0.96785 0.97188 0.0
H1131 H 0.2203 0.93308 0.94495 0.0
H1132 H 0.29369 0.02707 0.97944 0.0
H1133 H 0.24473 0.94416 0.03958 0.0
H1134 H 0.26788 0.93715 0.02282 0.0
H1135 H 0.23143 0.93318 0.01545 0.0
C1136 C 0.28146 0.93225 0.96631 0.0
C1137 C 0.2583 0.92549 0.9526 0.0
C1138 C 0.28547 0.9516 0.98177 0.0
C1139 C 0.26671 0.96518 0.98387 0.0
C1140 C 0.24271 0.95764 0.97061 0.0
H1141 H 0.30069 0.09219 0.08171 0.0
H1142 H 0.2733 0.05772 0.05469 0.0
C1143 C 0.23825 0.9376 0.95525 0.0
C1144 C 0.27416 0.98887 0.99913 0.0
H1145 H 0.27813 0.99754 0.04738 0.0
C1146 C 0.28971 0.02059 0.99428 0.0
C1147 C 0.26915 0.98057 0.01853 0.0
C1148 C 0.2522 0.94692 0.02454 0.0
C1149 C 0.30165 0.04407 1.00828 0.0
C1150 C 0.2979 0.03575 0.02769 0.0
C1151 C 0.28098 1.00404 0.03254 0.0
C1152 C 0.31438 0.05931 0.043 0.0
C1153 C 0.31914 0.07771 1.00228 0.0
C1154 C 0.34661 0.07218 0.04529 0.0
C1155 C 0.36209 0.09136 0.0608 0.0
C1156 C 0.34594 0.09863 0.07437 0.0
C1157 C 0.31392 0.08725 0.07153 0.0
C1158 C 0.2982 0.06739 0.05611 0.0
H1159 H 0.31475 0.08063 0.98719 0.0
H1160 H 0.31251 0.09184 1.01126 0.0
H1161 H 0.34449 0.08689 1.00415 0.0
H1162 H 0.35964 0.06626 0.03549 0.0
H1163 H 0.38668 0.0995 0.06262 0.0
H1164 H 0.79697 0.67911 0.46465 0.0
H1165 H 0.78768 0.701 0.49373 0.0
H1166 H 0.7762 0.767 0.46001 0.0
H1167 H 0.78517 0.74529 0.43126 0.0
H1168 H 0.81429 0.76644 0.50975 0.0
H1169 H 0.69065 0.71284 0.48722 0.0
H1170 H 0.71689 0.70124 0.47737 0.0
H1171 H 0.719 0.73681 0.46982 0.0
C1172 C 0.79363 0.69903 0.46357 0.0
C1173 C 0.79196 0.71058 0.44567 0.0
C1174 C 0.788 0.71135 0.48016 0.0
C1175 C 0.78058 0.7353 0.47907 0.0
C1176 C 0.78134 0.74826 0.46128 0.0
H1177 H 0.69205 0.80196 0.5616 0.0
H1178 H 0.71815 0.79811 0.5327 0.0
C1179 C 0.78677 0.73597 0.44484 0.0
C1180 C 0.76959 0.74527 0.49604 0.0
H1181 H 0.70529 0.74447 0.51446 0.0
C1182 C 0.79046 0.76158 0.51079 0.0
C1183 C 0.73858 0.73942 0.49737 0.0
C1184 C 0.71482 0.72143 0.4822 0.0
C1185 C 0.78118 0.77214 0.52675 0.0
C1186 C 0.74992 0.76564 0.5283 0.0
C1187 C 0.72927 0.74978 0.51335 0.0
C1188 C 0.73732 0.772 0.54605 0.0
C1189 C 0.8052 0.79055 0.54169 0.0
C1190 C 0.73955 0.75907 0.56324 0.0
C1191 C 0.72481 0.76128 0.57952 0.0
C1192 C 0.70718 0.7764 0.57927 0.0
C1193 C 0.7058 0.79057 0.56233 0.0
C1194 C 0.72053 0.78812 0.5458 0.0
H1195 H 0.82896 0.80323 0.53551 0.0
H1196 H 0.80027 0.80762 0.54875 0.0
H1197 H 0.8051 0.77436 0.55258 0.0
H1198 H 0.75152 0.74587 0.56392 0.0
H1199 H 0.72631 0.74996 0.59229 0.0
H1200 H 0.09285 0.29001 0.93786 0.0
H1201 H 0.05788 0.26232 0.96459 0.0
H1202 H 0.07594 0.35004 0.98801 0.0
H1203 H 0.10961 0.37734 0.96115 0.0
H1204 H 0.06018 0.26091 1.0029 0.0
H1205 H 0.98308 0.30681 0.98338 0.0
H1206 H 1.01427 0.31118 0.96822 0.0
H1207 H 0.02196 0.33799 0.98745 0.0
C1208 C 0.08994 0.30335 0.94897 0.0
C1209 C 0.10408 0.33591 0.94741 0.0
C1210 C 0.06966 0.2875 0.96419 0.0
C1211 C 0.06323 0.30392 0.97811 0.0
C1212 C 0.07941 0.33659 0.97721 0.0
H1213 H 0.99472 0.26274 0.09077 0.0
H1214 H 0.02175 0.26978 0.06096 0.0
C1215 C 0.09915 0.35228 0.96197 0.0
C1216 C 0.03924 0.28742 0.99331 0.0
H1217 H 0.97711 0.28665 0.01506 0.0
C1218 C 0.0418 0.26628 1.00539 0.0
C1219 C 1.01437 0.29335 0.99638 0.0
C1220 C 1.00801 0.31328 0.98302 0.0
C1221 C 0.02166 0.25266 0.02101 0.0
C1222 C 0.99865 0.26091 0.0251 0.0
C1223 C 0.99486 0.28048 0.0123 0.0
C1224 C 0.9806 0.25225 0.04338 0.0
C1225 C 0.02539 0.22955 0.03298 0.0
C1226 C 0.94801 0.24001 0.04385 0.0
C1227 C 0.93223 0.23609 0.0612 0.0
C1228 C 0.94888 0.24473 0.07836 0.0
C1229 C 0.9811 0.25565 0.07783 0.0
C1230 C 0.99669 0.2595 0.06069 0.0
H1231 H 0.03377 0.21653 0.0243 0.0
H1232 H 0.0431 0.2422 0.04412 0.0
H1233 H 1.00319 0.21259 0.03989 0.0
H1234 H 0.93492 0.23443 0.03075 0.0
H1235 H 0.90753 0.22811 0.06108 0.0
H1236 H 0.3561 0.12293 0.46266 0.0
H1237 H 0.33698 0.09456 0.4929 0.0
H1238 H 0.27419 1.01136 0.46212 0.0
H1239 H 0.29249 0.03953 0.43238 0.0
H1240 H 0.24675 0.0142 0.49339 0.0
H1241 H 0.36478 0.03555 0.51168 0.0
H1242 H 0.36187 0.07003 0.50929 0.0
H1243 H 0.35596 0.04587 0.48895 0.0
C1244 C 0.33754 0.0989 0.46247 0.0
C1245 C 0.3258 0.08348 0.44513 0.0
C1246 C 0.32697 0.08246 0.47974 0.0
C1247 C 0.30461 0.05038 0.47991 0.0
C1248 C 0.29153 0.03587 0.46257 0.0
H1249 H 0.27995 0.90861 0.56194 0.0
H1250 H 0.29189 0.9432 0.53455 0.0
C1251 C 0.30201 0.05211 0.4455 0.0
C1252 C 0.29558 0.03099 0.49765 0.0
H1253 H 0.32431 1.00463 0.5328 0.0
C1254 C 0.26379 1.01234 0.50208 0.0
C1255 C 0.31759 0.02783 0.50889 0.0
C1256 C 0.35193 0.04562 0.50444 0.0
C1257 C 0.25344 0.99059 0.51708 0.0
C1258 C 0.27547 0.98774 0.52847 0.0
C1259 C 0.30729 1.00667 0.5242 0.0
C1260 C 0.26616 0.96501 0.54464 0.0
C1261 C 0.21885 0.97001 0.51998 0.0
C1262 C 0.2473 0.9651 0.55948 0.0
C1263 C 0.23998 0.94489 0.57501 0.0
C1264 C 0.2518 0.92437 0.57634 0.0
C1265 C 0.27023 0.92387 0.56135 0.0
C1266 C 0.27729 0.9439 0.54572 0.0
H1267 H 0.20557 0.96822 0.5069 0.0
H1268 H 0.21295 0.94621 0.52439 0.0
H1269 H 0.21101 0.98016 0.53123 0.0
H1270 H 0.23896 0.98151 0.55941 0.0
H1271 H 0.22608 0.94631 0.58638 0.0
H1272 H 0.76711 0.73405 0.09267 0.0
H1273 H 0.76072 0.75509 0.063 0.0
H1274 H 0.7982 0.70584 0.03255 0.0
H1275 H 0.80382 0.6837 0.06266 0.0
H1276 H 0.79473 0.78998 0.03455 0.0
H1277 H 0.71453 0.67097 1.00756 0.0
H1278 H 0.72887 0.67806 0.03155 0.0
H1279 H 0.75316 0.67843 0.01251 0.0
C1280 C 0.77452 0.728 0.07969 0.0
C1281 C 0.78568 0.70689 0.08003 0.0
C1282 C 0.77085 0.74015 0.06266 0.0
C1283 C 0.77809 0.73153 0.04532 0.0
C1284 C 0.79155 0.71225 0.04566 0.0
H1285 H 0.73653 0.75862 0.92998 0.0
H1286 H 0.7605 0.75299 0.95867 0.0
C1287 C 0.79526 0.69994 0.06289 0.0
C1288 C 0.76939 0.7413 0.02722 0.0
H1289 H 0.72373 0.7127 0.98764 0.0
C1290 C 0.7793 0.77303 0.02426 0.0
C1291 C 0.7488 0.71933 0.01382 0.0
C1292 C 0.73543 0.68479 0.01653 0.0
C1293 C 0.76952 0.78325 1.00835 0.0
C1294 C 0.74908 0.76125 0.995 0.0
C1295 C 0.73939 0.72964 0.99785 0.0
C1296 C 0.7382 0.77018 0.97751 0.0
C1297 C 0.7814 0.81753 1.00579 0.0
C1298 C 0.71838 0.78297 0.97827 0.0
C1299 C 0.70467 0.78659 0.9616 0.0
C1300 C 0.71045 0.77721 0.944 0.0
C1301 C 0.73164 0.76618 0.9433 0.0
C1302 C 0.74531 0.76276 0.95975 0.0
H1303 H 0.80145 0.83195 0.01525 0.0
H1304 H 0.78858 0.82457 0.99088 0.0
H1305 H 0.76246 0.8225 1.00913 0.0
H1306 H 0.71217 0.78855 0.99182 0.0
H1307 H 0.68805 0.79462 0.96265 0.0
H1308 H 0.09852 0.29363 0.57997 0.0
H1309 H 0.06464 0.26603 0.55277 0.0
H1310 H 0.07106 0.35158 0.53382 0.0
H1311 H 0.10373 0.3788 0.56112 0.0
H1312 H 1.00376 0.26779 0.5452 0.0
H1313 H 0.08764 0.30992 0.48539 0.0
H1314 H 0.09914 0.30825 0.50949 0.0
H1315 H 0.09209 0.33892 0.50237 0.0
C1316 C 0.09322 0.30665 0.56982 0.0
C1317 C 0.10385 0.33848 0.57278 0.0
C1318 C 0.0737 0.29081 0.5543 0.0
C1319 C 0.06523 0.3067 0.54118 0.0
C1320 C 0.07733 0.33878 0.54361 0.0
H1321 H 0.92462 0.28277 0.46389 0.0
H1322 H 0.95773 0.28955 0.49126 0.0
C1323 C 0.09617 0.35437 0.55922 0.0
C1324 C 0.04208 0.29 0.5257 0.0
H1325 H 0.03388 0.28716 0.47743 0.0
C1326 C 1.01042 0.27154 0.53038 0.0
C1327 C 0.05059 0.29481 0.50633 0.0
C1328 C 0.08423 0.31386 0.50048 0.0
C1329 C 0.98709 0.25917 0.51627 0.0
C1330 C 0.9955 0.26529 0.49692 0.0
C1331 C 0.02728 0.28238 0.49222 0.0
C1332 C 0.97175 0.25708 0.48154 0.0
C1333 C 0.95346 0.24028 0.52217 0.0
C1334 C 0.96777 0.23589 0.46704 0.0
C1335 C 0.94804 0.23135 0.45149 0.0
C1336 C 0.93253 0.2485 0.44996 0.0
C1337 C 0.93576 0.26878 0.46482 0.0
C1338 C 0.95486 0.27281 0.48046 0.0
H1339 H 0.9511 0.23129 0.53685 0.0
H1340 H 0.94267 0.25519 0.52159 0.0
H1341 H 0.94036 0.22036 0.51238 0.0
H1342 H 0.98071 0.22363 0.46744 0.0
H1343 H 0.94667 0.21612 0.4401 0.0
H1344 H 0.78763 0.16479 0.10732 0.0
H1345 H 0.73358 0.15291 0.10915 0.0
H1346 H 0.76388 0.24429 0.1318 0.0
H1347 H 0.81815 0.25653 0.12993 0.0
H1348 H 0.7014 0.15168 0.14172 0.0
H1349 H 0.70279 0.23707 0.09038 0.0
H1350 H 0.73322 0.2272 0.0913 0.0
H1351 H 0.73231 0.25359 0.10838 0.0
C1352 C 0.78298 0.18264 0.11244 0.0
C1353 C 0.80752 0.21175 0.1184 0.0
C1354 C 0.75191 0.1757 0.11354 0.0
C1355 C 0.74446 0.19773 0.12045 0.0
C1356 C 0.7689 0.22703 0.12609 0.0
H1357 H 0.56885 0.19326 0.14372 0.0
H1358 H 0.62351 0.20785 0.13965 0.0
C1359 C 0.80003 0.23398 0.12505 0.0
C1360 C 0.71112 0.18933 0.12268 0.0
H1361 H 0.65709 0.20916 0.10888 0.0
C1362 C 0.69171 0.16418 0.13446 0.0
C1363 C 0.69836 0.2057 0.11334 0.0
C1364 C 0.71761 0.23223 0.1 0.0
C1365 C 0.66022 0.15527 0.13738 0.0
C1366 C 0.64731 0.17141 0.12789 0.0
C1367 C 0.66679 0.19667 0.11616 0.0
C1368 C 0.61377 0.16249 0.12998 0.0
C1369 C 0.64133 0.12911 0.15104 0.0
C1370 C 0.58977 0.13224 0.1256 0.0
C1371 C 0.55841 0.12379 0.12794 0.0
C1372 C 0.55011 0.14547 0.13452 0.0
C1373 C 0.5742 0.17596 0.13849 0.0
C1374 C 0.60557 0.18434 0.13623 0.0
H1375 H 0.65647 0.12556 0.16115 0.0
H1376 H 0.62493 0.13365 0.15925 0.0
H1377 H 0.62761 0.10717 0.14298 0.0
H1378 H 0.59526 0.11512 0.12023 0.0
H1379 H 0.54062 0.10031 0.12436 0.0
H1380 H 0.58788 0.48608 0.39767 0.0
H1381 H 0.54982 0.43086 0.40048 0.0
H1382 H 0.62074 0.40797 0.38694 0.0
H1383 H 0.65948 0.46347 0.38495 0.0
H1384 H 0.52868 0.38465 0.37509 0.0
H1385 H 0.58441 0.35641 0.43409 0.0
H1386 H 0.59672 0.39592 0.42722 0.0
H1387 H 0.60899 0.37316 0.41379 0.0
C1388 C 0.59567 0.46944 0.39557 0.0
C1389 C 0.6271 0.47957 0.39134 0.0
C1390 C 0.57368 0.4377 0.39704 0.0
C1391 C 0.58232 0.41499 0.39431 0.0
C1392 C 0.61348 0.42489 0.3896 0.0
H1393 H 0.46768 0.21031 0.39491 0.0
H1394 H 0.51099 0.26403 0.39245 0.0
C1395 C 0.6356 0.45675 0.38819 0.0
C1396 C 0.55839 0.38115 0.39603 0.0
H1397 H 0.53978 0.31412 0.42021 0.0
C1398 C 0.53119 0.36931 0.38499 0.0
C1399 C 0.56147 0.36086 0.4089 0.0
C1400 C 0.58931 0.37222 0.42181 0.0
C1401 C 0.50721 0.33808 0.38643 0.0
C1402 C 0.51011 0.31794 0.39944 0.0
C1403 C 0.5375 0.32951 0.41025 0.0
C1404 C 0.48452 0.2851 0.40229 0.0
C1405 C 0.47898 0.32679 0.37384 0.0
C1406 C 0.45543 0.27888 0.40923 0.0
C1407 C 0.43067 0.24823 0.41077 0.0
C1408 C 0.43431 0.22287 0.40541 0.0
C1409 C 0.46388 0.22912 0.39915 0.0
C1410 C 0.48872 0.25988 0.3977 0.0
H1411 H 0.48362 0.34244 0.36151 0.0
H1412 H 0.4712 0.30294 0.36854 0.0
H1413 H 0.45963 0.32609 0.38212 0.0
H1414 H 0.45169 0.29785 0.41319 0.0
H1415 H 0.4084 0.24453 0.41568 0.0
H1416 H 0.83246 0.37545 0.1397 0.0
H1417 H 0.81633 0.41444 0.13533 0.0
H1418 H 0.9112 0.48402 0.1231 0.0
H1419 H 0.92738 0.44524 0.12703 0.0
H1420 H 0.83677 0.47148 0.15481 0.0
H1421 H 0.86318 0.49206 0.07812 0.0
H1422 H 0.86017 0.45866 0.09031 0.0
H1423 H 0.89505 0.49593 0.09226 0.0
C1424 C 0.84988 0.39898 0.13592 0.0
C1425 C 0.88128 0.40706 0.13374 0.0
C1426 C 0.84062 0.42132 0.13351 0.0
C1427 C 0.86244 0.45216 0.12861 0.0
C1428 C 0.89379 0.46032 0.12656 0.0
H1429 H 0.86635 0.62666 0.11006 0.0
H1430 H 0.87615 0.58317 0.11194 0.0
C1431 C 0.90308 0.43811 0.12906 0.0
C1432 C 0.85269 0.47601 0.12604 0.0
H1433 H 0.85228 0.52772 0.09409 0.0
C1434 C 0.83988 0.48357 0.14148 0.0
C1435 C 0.85682 0.49194 0.10867 0.0
C1436 C 0.86929 0.48411 0.09132 0.0
C1437 C 0.83209 0.50724 0.14024 0.0
C1438 C 0.83645 0.52339 0.1229 0.0
C1439 C 0.84886 0.51547 0.10738 0.0
C1440 C 0.82949 0.54936 0.12079 0.0
C1441 C 0.82041 0.51551 0.15779 0.0
C1442 C 0.79967 0.54491 0.12455 0.0
C1443 C 0.79396 0.5699 0.12355 0.0
C1444 C 0.81784 0.59994 0.11853 0.0
C1445 C 0.8473 0.60398 0.11397 0.0
C1446 C 0.85301 0.57904 0.11507 0.0
H1447 H 0.82628 0.50707 0.17087 0.0
H1448 H 0.83035 0.54106 0.15896 0.0
H1449 H 0.79469 0.50443 0.15702 0.0
H1450 H 0.78083 0.52213 0.12847 0.0
H1451 H 0.77093 0.56574 0.12705 0.0
H1452 H 0.56626 0.19352 0.39985 0.0
H1453 H 0.62069 0.20738 0.40397 0.0
H1454 H 0.6001 0.11878 0.38089 0.0
H1455 H 0.54546 0.10413 0.3773 0.0
H1456 H 0.64515 0.17274 0.42543 0.0
H1457 H 0.67534 0.18588 0.34889 0.0
H1458 H 0.64191 0.18715 0.3579 0.0
H1459 H 0.64068 0.15054 0.35553 0.0
C1460 C 0.57308 0.17675 0.39578 0.0
C1461 C 0.5511 0.14763 0.38815 0.0
C1462 C 0.60437 0.18485 0.39808 0.0
C1463 C 0.6146 0.16425 0.3926 0.0
C1464 C 0.59288 0.13526 0.38497 0.0
H1465 H 0.78675 0.16396 0.4185 0.0
H1466 H 0.73275 0.15259 0.4167 0.0
C1467 C 0.56156 0.12701 0.38281 0.0
C1468 C 0.64788 0.17291 0.39501 0.0
H1469 H 0.71346 0.18875 0.37026 0.0
C1470 C 0.66012 0.17629 0.41338 0.0
C1471 C 0.6675 0.17779 0.37929 0.0
C1472 C 0.65591 0.17543 0.35925 0.0
C1473 C 0.69124 0.1839 0.41643 0.0
C1474 C 0.71069 0.18818 0.4007 0.0
C1475 C 0.69856 0.1853 0.38233 0.0
C1476 C 0.74375 0.19585 0.40293 0.0
C1477 C 0.70322 0.1877 0.43646 0.0
C1478 C 0.76806 0.22396 0.3958 0.0
C1479 C 0.79903 0.23062 0.39687 0.0
C1480 C 0.80649 0.20914 0.4049 0.0
C1481 C 0.78207 0.18117 0.41231 0.0
C1482 C 0.75109 0.17463 0.41133 0.0
H1483 H 0.68783 0.19058 0.44668 0.0
H1484 H 0.70431 0.16668 0.44057 0.0
H1485 H 0.72707 0.20811 0.4376 0.0
H1486 H 0.76303 0.24068 0.38921 0.0
H1487 H 0.81703 0.25233 0.39092 0.0
H1488 H 0.46219 0.21667 0.13368 0.0
H1489 H 0.50367 0.27091 0.13583 0.0
H1490 H 0.44309 0.30045 0.11133 0.0
H1491 H 0.4012 0.24607 0.10909 0.0
H1492 H 0.50635 0.33147 0.09633 0.0
H1493 H 0.50361 0.33364 0.17495 0.0
H1494 H 0.5072 0.30231 0.16489 0.0
H1495 H 0.47222 0.30391 0.16107 0.0
C1496 C 0.45757 0.23456 0.12859 0.0
C1497 C 0.42807 0.22673 0.12127 0.0
C1498 C 0.48139 0.26569 0.12995 0.0
C1499 C 0.47645 0.28989 0.12401 0.0
C1500 C 0.44745 0.28223 0.1161 0.0
H1501 H 0.58716 0.48771 0.15072 0.0
H1502 H 0.54615 0.43356 0.14685 0.0
C1503 C 0.42348 0.25104 0.11483 0.0
C1504 C 0.50138 0.32311 0.12637 0.0
H1505 H 0.54436 0.37791 0.15985 0.0
C1506 C 0.51464 0.34163 0.11021 0.0
C1507 C 0.51204 0.33655 0.14449 0.0
C1508 C 0.49793 0.31825 0.16239 0.0
C1509 C 0.5386 0.37294 0.11169 0.0
C1510 C 0.54975 0.38616 0.1298 0.0
C1511 C 0.53607 0.36778 0.14596 0.0
C1512 C 0.57519 0.41914 0.13231 0.0
C1513 C 0.5515 0.39183 0.09385 0.0
C1514 C 0.60548 0.42917 0.12573 0.0
C1515 C 0.62926 0.46017 0.12817 0.0
C1516 C 0.62339 0.48204 0.13725 0.0
C1517 C 0.59297 0.4717 0.14395 0.0
C1518 C 0.56929 0.44067 0.14162 0.0
H1519 H 0.53604 0.38059 0.08146 0.0
H1520 H 0.55482 0.41553 0.09566 0.0
H1521 H 0.57453 0.39426 0.09071 0.0
H1522 H 0.61082 0.41291 0.11883 0.0
H1523 H 0.65236 0.46685 0.1231 0.0
H1524 H 0.77792 0.56624 0.39488 0.0
H1525 H 0.78914 0.52348 0.39341 0.0
H1526 H 0.87929 0.58247 0.41839 0.0
H1527 H 0.8682 0.62512 0.42015 0.0
H1528 H 0.83554 0.52135 0.37365 0.0
H1529 H 0.84824 0.50418 0.44996 0.0
H1530 H 0.83091 0.52648 0.44161 0.0
H1531 H 0.87257 0.54369 0.44238 0.0
C1532 C 0.79994 0.57003 0.40039 0.0
C1533 C 0.82204 0.59928 0.40774 0.0
C1534 C 0.80639 0.54551 0.39944 0.0
C1535 C 0.83496 0.54946 0.40597 0.0
C1536 C 0.85682 0.57845 0.41362 0.0
H1537 H 0.92504 0.44419 0.37287 0.0
H1538 H 0.90875 0.4828 0.37728 0.0
C1539 C 0.85043 0.60297 0.41454 0.0
C1540 C 0.84263 0.52396 0.40384 0.0
H1541 H 0.86633 0.47977 0.4283 0.0
C1542 C 0.84209 0.51217 0.38564 0.0
C1543 C 0.8509 0.51155 0.41945 0.0
C1544 C 0.85042 0.52188 0.43948 0.0
C1545 C 0.85027 0.48908 0.38258 0.0
C1546 C 0.85972 0.47757 0.39808 0.0
C1547 C 0.85948 0.48874 0.41635 0.0
C1548 C 0.8699 0.45398 0.3956 0.0
C1549 C 0.84833 0.47694 0.36274 0.0
C1550 C 0.85411 0.42501 0.4048 0.0
C1551 C 0.86334 0.40269 0.40225 0.0
C1552 C 0.88881 0.40881 0.39053 0.0
C1553 C 0.90492 0.43817 0.38165 0.0
C1554 C 0.89563 0.46041 0.38418 0.0
H1555 H 0.83293 0.48164 0.35357 0.0
H1556 H 0.87192 0.4887 0.35635 0.0
H1557 H 0.83951 0.4515 0.36282 0.0
H1558 H 0.83425 0.41943 0.41374 0.0
H1559 H 0.85006 0.38037 0.4092 0.0
H1560 H 0.25633 0.80769 0.63496 0.0
H1561 H 0.24255 0.75304 0.63562 0.0
H1562 H 0.15538 0.72735 0.60806 0.0
H1563 H 0.1691 0.78208 0.60715 0.0
H1564 H 0.19259 0.70474 0.65376 0.0
H1565 H 0.18656 0.67945 0.57685 0.0
H1566 H 0.20466 0.71862 0.58602 0.0
H1567 H 0.16298 0.69566 0.58419 0.0
C1568 C 0.23438 0.79055 0.62878 0.0
C1569 C 0.21393 0.79954 0.62092 0.0
C1570 C 0.22648 0.75918 0.62922 0.0
C1571 C 0.19804 0.73589 0.62172 0.0
C1572 C 0.17774 0.74479 0.61361 0.0
H1573 H 0.10598 0.53214 0.61917 0.0
H1574 H 0.11997 0.58671 0.61546 0.0
C1575 C 0.18561 0.77621 0.61316 0.0
C1576 C 0.18906 0.70232 0.62335 0.0
H1577 H 0.16864 0.63629 0.59767 0.0
C1578 C 0.18751 0.68984 0.64147 0.0
C1579 C 0.18215 0.68266 0.60737 0.0
C1580 C 0.1844 0.69476 0.58749 0.0
C1581 C 0.17895 0.6584 0.64407 0.0
C1582 C 0.17236 0.63878 0.62808 0.0
C1583 C 0.17369 0.65119 0.60995 0.0
C1584 C 0.16425 0.60546 0.6299 0.0
C1585 C 0.17629 0.64635 0.66401 0.0
C1586 C 0.18467 0.59757 0.6389 0.0
C1587 C 0.17671 0.56634 0.64106 0.0
C1588 C 0.14823 0.54207 0.63409 0.0
C1589 C 0.12818 0.55008 0.62463 0.0
C1590 C 0.13612 0.58136 0.62254 0.0
H1591 H 0.173 0.66121 0.67445 0.0
H1592 H 0.15656 0.62216 0.66533 0.0
H1593 H 0.19807 0.64645 0.66777 0.0
H1594 H 0.20691 0.61561 0.64423 0.0
H1595 H 0.1931 0.56124 0.64805 0.0
H1596 H 0.38425 0.8284 0.88757 0.0
H1597 H 0.42394 0.81336 0.89206 0.0
H1598 H 0.4924 0.9088 0.90386 0.0
H1599 H 0.45274 0.92394 0.89983 0.0
H1600 H 0.47967 0.83397 0.8721 0.0
H1601 H 0.50366 0.86242 0.94843 0.0
H1602 H 0.46962 0.85892 0.93677 0.0
H1603 H 0.50672 0.89379 0.93415 0.0
C1604 C 0.40764 0.84617 0.89139 0.0
C1605 C 0.41514 0.87742 0.89341 0.0
C1606 C 0.43039 0.83754 0.89384 0.0
C1607 C 0.46115 0.85983 0.89857 0.0
C1608 C 0.46876 0.89103 0.90055 0.0
H1609 H 0.63616 0.86269 0.91417 0.0
H1610 H 0.59321 0.87341 0.91299 0.0
C1611 C 0.44607 0.89972 0.89803 0.0
C1612 C 0.48546 0.85063 0.90078 0.0
H1613 H 0.53836 0.85071 0.932 0.0
C1614 C 0.49233 0.83741 0.88524 0.0
C1615 C 0.50212 0.85516 0.9179 0.0
C1616 C 0.49504 0.86809 0.93534 0.0
C1617 C 0.51588 0.82944 0.88618 0.0
C1618 C 0.53265 0.83407 0.9033 0.0
C1619 C 0.52557 0.84706 0.91889 0.0
C1620 C 0.55831 0.82662 0.90509 0.0
C1621 C 0.52328 0.81715 0.86857 0.0
C1622 C 0.55305 0.79645 0.90162 0.0
C1623 C 0.5777 0.79019 0.90223 0.0
C1624 C 0.60822 0.81391 0.90652 0.0
C1625 C 0.6131 0.84377 0.91079 0.0
C1626 C 0.58848 0.85 0.9101 0.0
H1627 H 0.51443 0.8228 0.85558 0.0
H1628 H 0.54877 0.82682 0.86705 0.0
H1629 H 0.51202 0.79145 0.86954 0.0
H1630 H 0.52989 0.77774 0.89822 0.0
H1631 H 0.5729 0.76689 0.89895 0.0
H1632 H 0.49775 0.58539 0.62036 0.0
H1633 H 0.44369 0.54398 0.61602 0.0
H1634 H 0.41176 0.60152 0.64205 0.0
H1635 H 0.46574 0.64332 0.64607 0.0
H1636 H 0.39774 0.5126 0.6436 0.0
H1637 H 0.36062 0.57338 0.59301 0.0
H1638 H 0.40106 0.5868 0.59815 0.0
H1639 H 0.37796 0.59465 0.61441 0.0
C1640 C 0.47927 0.58948 0.62494 0.0
C1641 C 0.4863 0.61793 0.63349 0.0
C1642 C 0.4483 0.56563 0.62255 0.0
C1643 C 0.42349 0.56966 0.62845 0.0
C1644 C 0.43038 0.59794 0.63705 0.0
H1645 H 0.2215 0.45508 0.63059 0.0
H1646 H 0.27581 0.49659 0.63214 0.0
C1647 C 0.46135 0.62176 0.63954 0.0
C1648 C 0.39053 0.54395 0.62611 0.0
H1649 H 0.32084 0.52549 0.60552 0.0
C1650 C 0.38098 0.51536 0.63517 0.0
C1651 C 0.36853 0.54748 0.61517 0.0
C1652 C 0.37752 0.57711 0.60447 0.0
C1653 C 0.35003 0.49058 0.63399 0.0
C1654 C 0.32797 0.49407 0.62304 0.0
C1655 C 0.3376 0.52265 0.6139 0.0
C1656 C 0.29469 0.4687 0.62128 0.0
C1657 C 0.34106 0.46123 0.64502 0.0
C1658 C 0.28682 0.43915 0.61421 0.0
C1659 C 0.25561 0.41516 0.61334 0.0
C1660 C 0.23139 0.42018 0.61936 0.0
C1661 C 0.23933 0.45013 0.62584 0.0
C1662 C 0.27052 0.47403 0.62675 0.0
H1663 H 0.35788 0.46534 0.6566 0.0
H1664 H 0.31748 0.45158 0.65128 0.0
H1665 H 0.34087 0.44351 0.63536 0.0
H1666 H 0.30485 0.43454 0.60941 0.0
H1667 H 0.25055 0.39257 0.60816 0.0
H1668 H 0.25451 0.80526 0.89585 0.0
H1669 H 0.24009 0.7505 0.89405 0.0
H1670 H 0.14854 0.72371 0.91513 0.0
H1671 H 0.16252 0.77845 0.91664 0.0
H1672 H 0.22094 0.70429 0.92047 0.0
H1673 H 0.12739 0.67221 0.86724 0.0
H1674 H 0.15488 0.71212 0.87314 0.0
H1675 H 0.12225 0.68918 0.8884 0.0
C1676 C 0.23129 0.78782 0.90019 0.0
C1677 C 0.20966 0.79654 0.90628 0.0
C1678 C 0.22307 0.75638 0.89914 0.0
C1679 C 0.19297 0.73273 0.90406 0.0
C1680 C 0.17165 0.74135 0.91077 0.0
H1681 H 0.10123 0.52891 0.90147 0.0
H1682 H 0.11477 0.58306 0.90676 0.0
C1683 C 0.17982 0.77281 0.91179 0.0
C1684 C 0.18404 0.6992 0.90208 0.0
H1685 H 0.13253 0.63094 0.88016 0.0
C1686 C 0.20164 0.68831 0.91162 0.0
C1687 C 0.15884 0.67814 0.89052 0.0
C1688 C 0.1399 0.68849 0.87909 0.0
C1689 C 0.19457 0.6571 0.91013 0.0
C1690 C 0.16946 0.63611 0.89852 0.0
C1691 C 0.15171 0.64691 0.88909 0.0
C1692 C 0.16155 0.60304 0.89571 0.0
C1693 C 0.21376 0.64675 0.92127 0.0
C1694 C 0.18317 0.59601 0.88758 0.0
C1695 C 0.17551 0.56502 0.88455 0.0
C1696 C 0.14596 0.54016 0.88954 0.0
C1697 C 0.12434 0.5473 0.89767 0.0
C1698 C 0.13198 0.57833 0.9006 0.0
H1699 H 0.2262 0.6628 0.93322 0.0
H1700 H 0.19898 0.62292 0.927 0.0
H1701 H 0.23146 0.64647 0.9118 0.0
H1702 H 0.20594 0.61454 0.88335 0.0
H1703 H 0.19289 0.56056 0.87841 0.0
H1704 H 0.45171 0.9208 0.65081 0.0
H1705 H 0.49089 0.90513 0.64687 0.0
H1706 H 0.43183 0.83531 0.60646 0.0
H1707 H 0.39219 0.85042 0.61054 0.0
H1708 H 0.48674 0.84781 0.65339 0.0
H1709 H 0.51476 0.88195 0.57798 0.0
H1710 H 0.49329 0.89475 0.59244 0.0
H1711 H 0.47416 0.85614 0.58266 0.0
C1712 C 0.44679 0.90192 0.64118 0.0
C1713 C 0.41852 0.88698 0.63101 0.0
C1714 C 0.46942 0.89309 0.63885 0.0
C1715 C 0.46465 0.86928 0.62617 0.0
C1716 C 0.43648 0.8542 0.61604 0.0
H1717 H 0.57287 0.77285 0.62657 0.0
H1718 H 0.53112 0.78553 0.6277 0.0
C1719 C 0.41376 0.86295 0.61839 0.0
C1720 C 0.48888 0.85989 0.62393 0.0
H1721 H 0.53768 0.85457 0.59175 0.0
C1722 C 0.49782 0.84926 0.63989 0.0
C1723 C 0.50373 0.86206 0.60639 0.0
C1724 C 0.49628 0.8746 0.5889 0.0
C1725 C 0.52083 0.84054 0.63878 0.0
C1726 C 0.53521 0.84208 0.62115 0.0
C1727 C 0.52651 0.85302 0.60522 0.0
C1728 C 0.5601 0.83354 0.61916 0.0
C1729 C 0.5301 0.83049 0.65664 0.0
C1730 C 0.59018 0.85583 0.61324 0.0
C1731 C 0.61415 0.8486 0.61245 0.0
C1732 C 0.60865 0.81875 0.61744 0.0
C1733 C 0.57816 0.7961 0.62266 0.0
C1734 C 0.55422 0.8034 0.62348 0.0
H1735 H 0.52266 0.83782 0.66956 0.0
H1736 H 0.51881 0.80475 0.65683 0.0
H1737 H 0.5557 0.84028 0.65726 0.0
H1738 H 0.59538 0.8792 0.60972 0.0
H1739 H 0.63721 0.86672 0.60833 0.0
H1740 H 0.48941 0.61586 0.91949 0.0
H1741 H 0.43509 0.57474 0.92309 0.0
H1742 H 0.42163 0.57498 0.86278 0.0
H1743 H 0.47615 0.6154 0.85896 0.0
H1744 H 0.37982 0.57284 0.91411 0.0
H1745 H 0.39064 0.4833 0.87328 0.0
H1746 H 0.42407 0.51897 0.88116 0.0
H1747 H 0.40284 0.51879 0.86044 0.0
C1748 C 0.47504 0.60701 0.90693 0.0
C1749 C 0.48747 0.61895 0.8889 0.0
C1750 C 0.44383 0.58358 0.90905 0.0
C1751 C 0.42423 0.57127 0.8932 0.0
C1752 C 0.43633 0.58358 0.87522 0.0
H1753 H 0.2211 0.45777 0.89223 0.0
H1754 H 0.27513 0.50006 0.89097 0.0
C1755 C 0.46752 0.60705 0.87309 0.0
C1756 C 0.39122 0.54565 0.8955 0.0
H1757 H 0.3395 0.47098 0.88195 0.0
C1758 C 0.37104 0.55055 0.9071 0.0
C1759 C 0.37972 0.5163 0.88662 0.0
C1760 C 0.40047 0.5088 0.87482 0.0
C1761 C 0.33971 0.52727 0.90975 0.0
C1762 C 0.32794 0.49829 0.90036 0.0
C1763 C 0.34829 0.4932 0.88905 0.0
C1764 C 0.29471 0.47287 0.90207 0.0
C1765 C 0.31965 0.53377 0.92287 0.0
C1766 C 0.28739 0.44318 0.90855 0.0
C1767 C 0.25639 0.41879 0.90923 0.0
C1768 C 0.23182 0.42336 0.90331 0.0
C1769 C 0.23921 0.45327 0.89706 0.0
C1770 C 0.27023 0.47765 0.8964 0.0
H1771 H 0.33393 0.55296 0.9329 0.0
H1772 H 0.3054 0.54086 0.91436 0.0
H1773 H 0.30364 0.51273 0.93114 0.0
H1774 H 0.30577 0.43878 0.91295 0.0
H1775 H 0.25181 0.39616 0.91403 0.0
loop_
_geom_bond_atom_site_label_1
_geom_bond_atom_site_label_2
_geom_bond_distance
_geom_bond_site_symmetry_2
_ccdc_geom_bond_type
Nd0 C2 2.836 . S
Nd0 O20 2.500 . S
Nd0 O21 2.492 . S
Nd0 O22 2.487 . S
Nd0 O23 2.682 . S
Nd0 O24 2.410 . S
Nd0 O29 2.414 . S
Nd0 O31 2.424 . S
Nd1 C11 2.836 . S
Nd1 O23 2.414 . S
Nd1 O25 2.424 . S
Nd1 O26 2.500 . S
Nd1 O27 2.492 . S
Nd1 O28 2.487 . S
Nd1 O29 2.682 . S
Nd1 O30 2.410 . S
C2 Nd0 2.836 . S
C2 C3 1.498 . S
C2 O20 1.258 . S
C2 O21 1.239 . S
C3 C2 1.498 . S
C3 C4 1.366 . S
C3 C8 1.407 . S
C4 C3 1.366 . S
C4 C5 1.392 . S
C4 H32 0.930 . S
C5 C4 1.392 . S
C5 C6 1.398 . S
C5 H33 0.929 . S
C6 C5 1.398 . S
C6 C7 1.352 . S
C7 C6 1.352 . S
C7 C8 1.384 . S
C7 H34 0.930 . S
C8 C3 1.407 . S
C8 C7 1.384 . S
C8 H35 0.929 . S
C9 O22 1.241 . S
C9 O23 1.273 . S
C10 O24 1.251 . S
C10 O25 1.268 . S
C11 Nd1 2.836 . S
C11 C12 1.498 . S
C11 O26 1.258 . S
C11 O27 1.239 . S
C12 C11 1.498 . S
C12 C13 1.366 . S
C12 C17 1.407 . S
C13 C12 1.366 . S
C13 C14 1.392 . S
C13 H36 0.930 . S
C14 C13 1.392 . S
C14 C15 1.398 . S
C14 H37 0.929 . S
C15 C14 1.398 . S
C15 C16 1.352 . S
C16 C15 1.352 . S
C16 C17 1.384 . S
C16 H38 0.930 . S
C17 C12 1.407 . S
C17 C16 1.384 . S
C17 H39 0.929 . S
C18 O28 1.241 . S
C18 O29 1.273 . S
C19 O30 1.251 . S
C19 O31 1.268 . S
O20 Nd0 2.500 . S
O20 C2 1.258 . S
O21 Nd0 2.492 . S
O21 C2 1.239 . S
O22 Nd0 2.487 . S
O22 C9 1.241 . S
O23 Nd0 2.682 . S
O23 Nd1 2.414 . S
O23 C9 1.273 . S
O24 Nd0 2.410 . S
O24 C10 1.251 . S
O25 Nd1 2.424 . S
O25 C10 1.268 . S
O26 Nd1 2.500 . S
O26 C11 1.258 . S
O27 Nd1 2.492 . S
O27 C11 1.239 . S
O28 Nd1 2.487 . S
O28 C18 1.241 . S
O29 Nd0 2.414 . S
O29 Nd1 2.682 . S
O29 C18 1.273 . S
O30 Nd1 2.410 . S
O30 C19 1.251 . S
O31 Nd0 2.424 . S
O31 C19 1.268 . S
H32 C4 0.930 . S
H33 C5 0.929 . S
H34 C7 0.930 . S
H35 C8 0.929 . S
H36 C13 0.930 . S
H37 C14 0.929 . S
H38 C16 0.930 . S
H39 C17 0.929 . S
Nd40 C42 2.836 . S
Nd40 O60 2.500 . S
Nd40 O61 2.492 . S
Nd40 O62 2.487 . S
Nd40 O63 2.682 . S
Nd40 O64 2.410 . S
Nd40 O69 2.414 . S
Nd40 O71 2.424 . S
Nd41 C51 2.836 . S
Nd41 O63 2.414 . S
Nd41 O65 2.424 . S
Nd41 O66 2.500 . S
Nd41 O67 2.492 . S
Nd41 O68 2.487 . S
Nd41 O69 2.682 . S
Nd41 O70 2.410 . S
C42 Nd40 2.836 . S
C42 C43 1.498 . S
C42 O60 1.258 . S
C42 O61 1.239 . S
C43 C42 1.498 . S
C43 C44 1.366 . S
C43 C48 1.407 . S
C44 C43 1.366 . S
C44 C45 1.392 . S
C44 H72 0.930 . S
C45 C44 1.392 . S
C45 C46 1.398 . S
C45 H73 0.929 . S
C46 C45 1.398 . S
C46 C47 1.352 . S
C47 C46 1.352 . S
C47 C48 1.384 . S
C47 H74 0.930 . S
C48 C43 1.407 . S
C48 C47 1.384 . S
C48 H75 0.929 . S
C49 O62 1.241 . S
C49 O63 1.273 . S
C50 O64 1.251 . S
C50 O65 1.268 . S
C51 Nd41 2.836 . S
C51 C52 1.498 . S
C51 O66 1.258 . S
C51 O67 1.239 . S
C52 C51 1.498 . S
C52 C53 1.366 . S
C52 C57 1.407 . S
C53 C52 1.366 . S
C53 C54 1.392 . S
C53 H76 0.930 . S
C54 C53 1.392 . S
C54 C55 1.398 . S
C54 H77 0.929 . S
C55 C54 1.398 . S
C55 C56 1.352 . S
C56 C55 1.352 . S
C56 C57 1.384 . S
C56 H78 0.930 . S
C57 C52 1.407 . S
C57 C56 1.384 . S
C57 H79 0.929 . S
C58 O68 1.241 . S
C58 O69 1.273 . S
C59 O70 1.251 . S
C59 O71 1.268 . S
O60 Nd40 2.500 . S
O60 C42 1.258 . S
O61 Nd40 2.492 . S
O61 C42 1.239 . S
O62 Nd40 2.487 . S
O62 C49 1.241 . S
O63 Nd40 2.682 . S
O63 Nd41 2.414 . S
O63 C49 1.273 . S
O64 Nd40 2.410 . S
O64 C50 1.251 . S
O65 Nd41 2.424 . S
O65 C50 1.268 . S
O66 Nd41 2.500 . S
O66 C51 1.258 . S
O67 Nd41 2.492 . S
O67 C51 1.239 . S
O68 Nd41 2.487 . S
O68 C58 1.241 . S
O69 Nd40 2.414 . S
O69 Nd41 2.682 . S
O69 C58 1.273 . S
O70 Nd41 2.410 . S
O70 C59 1.251 . S
O71 Nd40 2.424 . S
O71 C59 1.268 . S
H72 C44 0.930 . S
H73 C45 0.929 . S
H74 C47 0.930 . S
H75 C48 0.929 . S
H76 C53 0.930 . S
H77 C54 0.929 . S
H78 C56 0.930 . S
H79 C57 0.929 . S
Nd80 C82 2.836 . S
Nd80 O100 2.500 . S
Nd80 O101 2.492 . S
Nd80 O102 2.487 . S
Nd80 O103 2.682 . S
Nd80 O104 2.410 . S
Nd80 O109 2.414 . S
Nd80 O111 2.424 . S
Nd81 C91 2.836 . S
Nd81 O103 2.414 . S
Nd81 O105 2.424 . S
Nd81 O106 2.500 . S
Nd81 O107 2.492 . S
Nd81 O108 2.487 . S
Nd81 O109 2.682 . S
Nd81 O110 2.410 . S
C82 Nd80 2.836 . S
C82 C83 1.498 . S
C82 O100 1.258 . S
C82 O101 1.239 . S
C83 C82 1.498 . S
C83 C84 1.366 . S
C83 C88 1.407 . S
C84 C83 1.366 . S
C84 C85 1.392 . S
C84 H112 0.930 . S
C85 C84 1.392 . S
C85 C86 1.398 . S
C85 H113 0.929 . S
C86 C85 1.398 . S
C86 C87 1.352 . S
C87 C86 1.352 . S
C87 C88 1.384 . S
C87 H114 0.930 . S
C88 C83 1.407 . S
C88 C87 1.384 . S
C88 H115 0.929 . S
C89 O102 1.241 . S
C89 O103 1.273 . S
C90 O104 1.251 . S
C90 O105 1.268 . S
C91 Nd81 2.836 . S
C91 C92 1.498 . S
C91 O106 1.258 . S
C91 O107 1.239 . S
C92 C91 1.498 . S
C92 C93 1.366 . S
C92 C97 1.407 . S
C93 C92 1.366 . S
C93 C94 1.392 . S
C93 H116 0.930 . S
C94 C93 1.392 . S
C94 C95 1.398 . S
C94 H117 0.929 . S
C95 C94 1.398 . S
C95 C96 1.352 . S
C96 C95 1.352 . S
C96 C97 1.384 . S
C96 H118 0.930 . S
C97 C92 1.407 . S
C97 C96 1.384 . S
C97 H119 0.929 . S
C98 O108 1.241 . S
C98 O109 1.273 . S
C99 O110 1.251 . S
C99 O111 1.268 . S
O100 Nd80 2.500 . S
O100 C82 1.258 . S
O101 Nd80 2.492 . S
O101 C82 1.239 . S
O102 Nd80 2.487 . S
O102 C89 1.241 . S
O103 Nd80 2.682 . S
O103 Nd81 2.414 . S
O103 C89 1.273 . S
O104 Nd80 2.410 . S
O104 C90 1.251 . S
O105 Nd81 2.424 . S
O105 C90 1.268 . S
O106 Nd81 2.500 . S
O106 C91 1.258 . S
O107 Nd81 2.492 . S
O107 C91 1.239 . S
O108 Nd81 2.487 . S
O108 C98 1.241 . S
O109 Nd80 2.414 . S
O109 Nd81 2.682 . S
O109 C98 1.273 . S
O110 Nd81 2.410 . S
O110 C99 1.251 . S
O111 Nd80 2.424 . S
O111 C99 1.268 . S
H112 C84 0.930 . S
H113 C85 0.929 . S
H114 C87 0.930 . S
H115 C88 0.929 . S
H116 C93 0.930 . S
H117 C94 0.929 . S
H118 C96 0.930 . S
H119 C97 0.929 . S
Nd120 C122 2.836 . S
Nd120 O140 2.500 . S
Nd120 O141 2.492 . S
Nd120 O142 2.487 . S
Nd120 O143 2.682 . S
Nd120 O144 2.410 . S
Nd120 O149 2.414 . S
Nd120 O151 2.424 . S
Nd121 C131 2.836 . S
Nd121 O143 2.414 . S
Nd121 O145 2.424 . S
Nd121 O146 2.500 . S
Nd121 O147 2.492 . S
Nd121 O148 2.487 . S
Nd121 O149 2.682 . S
Nd121 O150 2.410 . S
C122 Nd120 2.836 . S
C122 C123 1.498 . S
C122 O140 1.258 . S
C122 O141 1.239 . S
C123 C122 1.498 . S
C123 C124 1.366 . S
C123 C128 1.407 . S
C124 C123 1.366 . S
C124 C125 1.392 . S
C124 H152 0.930 . S
C125 C124 1.392 . S
C125 C126 1.398 . S
C125 H153 0.929 . S
C126 C125 1.398 . S
C126 C127 1.352 . S
C127 C126 1.352 . S
C127 C128 1.384 . S
C127 H154 0.930 . S
C128 C123 1.407 . S
C128 C127 1.384 . S
C128 H155 0.929 . S
C129 O142 1.241 . S
C129 O143 1.273 . S
C130 O144 1.251 . S
C130 O145 1.268 . S
C131 Nd121 2.836 . S
C131 C132 1.498 . S
C131 O146 1.258 . S
C131 O147 1.239 . S
C132 C131 1.498 . S
C132 C133 1.366 . S
C132 C137 1.407 . S
C133 C132 1.366 . S
C133 C134 1.392 . S
C133 H156 0.930 . S
C134 C133 1.392 . S
C134 C135 1.398 . S
C134 H157 0.929 . S
C135 C134 1.398 . S
C135 C136 1.352 . S
C136 C135 1.352 . S
C136 C137 1.384 . S
C136 H158 0.930 . S
C137 C132 1.407 . S
C137 C136 1.384 . S
C137 H159 0.929 . S
C138 O148 1.241 . S
C138 O149 1.273 . S
C139 O150 1.251 . S
C139 O151 1.268 . S
O140 Nd120 2.500 . S
O140 C122 1.258 . S
O141 Nd120 2.492 . S
O141 C122 1.239 . S
O142 Nd120 2.487 . S
O142 C129 1.241 . S
O143 Nd120 2.682 . S
O143 Nd121 2.414 . S
O143 C129 1.273 . S
O144 Nd120 2.410 . S
O144 C130 1.251 . S
O145 Nd121 2.424 . S
O145 C130 1.268 . S
O146 Nd121 2.500 . S
O146 C131 1.258 . S
O147 Nd121 2.492 . S
O147 C131 1.239 . S
O148 Nd121 2.487 . S
O148 C138 1.241 . S
O149 Nd120 2.414 . S
O149 Nd121 2.682 . S
O149 C138 1.273 . S
O150 Nd121 2.410 . S
O150 C139 1.251 . S
O151 Nd120 2.424 . S
O151 C139 1.268 . S
H152 C124 0.930 . S
H153 C125 0.929 . S
H154 C127 0.930 . S
H155 C128 0.929 . S
H156 C133 0.930 . S
H157 C134 0.929 . S
H158 C136 0.930 . S
H159 C137 0.929 . S
Nd160 C162 2.836 . S
Nd160 O180 2.500 . S
Nd160 O181 2.492 . S
Nd160 O182 2.487 . S
Nd160 O183 2.682 . S
Nd160 O184 2.410 . S
Nd160 O189 2.414 . S
Nd160 O191 2.424 . S
Nd161 C171 2.836 . S
Nd161 O183 2.414 . S
Nd161 O185 2.424 . S
Nd161 O186 2.500 . S
Nd161 O187 2.492 . S
Nd161 O188 2.487 . S
Nd161 O189 2.682 . S
Nd161 O190 2.410 . S
C162 Nd160 2.836 . S
C162 C163 1.498 . S
C162 O180 1.258 . S
C162 O181 1.239 . S
C163 C162 1.498 . S
C163 C164 1.366 . S
C163 C168 1.407 . S
C164 C163 1.366 . S
C164 C165 1.392 . S
C164 H192 0.930 . S
C165 C164 1.392 . S
C165 C166 1.398 . S
C165 H193 0.929 . S
C166 C165 1.398 . S
C166 C167 1.352 . S
C167 C166 1.352 . S
C167 C168 1.384 . S
C167 H194 0.930 . S
C168 C163 1.407 . S
C168 C167 1.384 . S
C168 H195 0.929 . S
C169 O182 1.241 . S
C169 O183 1.273 . S
C170 O184 1.251 . S
C170 O185 1.268 . S
C171 Nd161 2.836 . S
C171 C172 1.498 . S
C171 O186 1.258 . S
C171 O187 1.239 . S
C172 C171 1.498 . S
C172 C173 1.366 . S
C172 C177 1.407 . S
C173 C172 1.366 . S
C173 C174 1.392 . S
C173 H196 0.930 . S
C174 C173 1.392 . S
C174 C175 1.398 . S
C174 H197 0.929 . S
C175 C174 1.398 . S
C175 C176 1.352 . S
C176 C175 1.352 . S
C176 C177 1.384 . S
C176 H198 0.930 . S
C177 C172 1.407 . S
C177 C176 1.384 . S
C177 H199 0.929 . S
C178 O188 1.241 . S
C178 O189 1.273 . S
C179 O190 1.251 . S
C179 O191 1.268 . S
O180 Nd160 2.500 . S
O180 C162 1.258 . S
O181 Nd160 2.492 . S
O181 C162 1.239 . S
O182 Nd160 2.487 . S
O182 C169 1.241 . S
O183 Nd160 2.682 . S
O183 Nd161 2.414 . S
O183 C169 1.273 . S
O184 Nd160 2.410 . S
O184 C170 1.251 . S
O185 Nd161 2.424 . S
O185 C170 1.268 . S
O186 Nd161 2.500 . S
O186 C171 1.258 . S
O187 Nd161 2.492 . S
O187 C171 1.239 . S
O188 Nd161 2.487 . S
O188 C178 1.241 . S
O189 Nd160 2.414 . S
O189 Nd161 2.682 . S
O189 C178 1.273 . S
O190 Nd161 2.410 . S
O190 C179 1.251 . S
O191 Nd160 2.424 . S
O191 C179 1.268 . S
H192 C164 0.930 . S
H193 C165 0.929 . S
H194 C167 0.930 . S
H195 C168 0.929 . S
H196 C173 0.930 . S
H197 C174 0.929 . S
H198 C176 0.930 . S
H199 C177 0.929 . S
Nd200 C202 2.836 . S
Nd200 O220 2.500 . S
Nd200 O221 2.492 . S
Nd200 O222 2.487 . S
Nd200 O223 2.682 . S
Nd200 O224 2.410 . S
Nd200 O229 2.414 . S
Nd200 O231 2.424 . S
Nd201 C211 2.836 . S
Nd201 O223 2.414 . S
Nd201 O225 2.424 . S
Nd201 O226 2.500 . S
Nd201 O227 2.492 . S
Nd201 O228 2.487 . S
Nd201 O229 2.682 . S
Nd201 O230 2.410 . S
C202 Nd200 2.836 . S
C202 C203 1.498 . S
C202 O220 1.258 . S
C202 O221 1.239 . S
C203 C202 1.498 . S
C203 C204 1.366 . S
C203 C208 1.407 . S
C204 C203 1.366 . S
C204 C205 1.392 . S
C204 H232 0.930 . S
C205 C204 1.392 . S
C205 C206 1.398 . S
C205 H233 0.929 . S
C206 C205 1.398 . S
C206 C207 1.352 . S
C207 C206 1.352 . S
C207 C208 1.384 . S
C207 H234 0.930 . S
C208 C203 1.407 . S
C208 C207 1.384 . S
C208 H235 0.929 . S
C209 O222 1.241 . S
C209 O223 1.273 . S
C210 O224 1.251 . S
C210 O225 1.268 . S
C211 Nd201 2.836 . S
C211 C212 1.498 . S
C211 O226 1.258 . S
C211 O227 1.239 . S
C212 C211 1.498 . S
C212 C213 1.366 . S
C212 C217 1.407 . S
C213 C212 1.366 . S
C213 C214 1.392 . S
C213 H236 0.930 . S
C214 C213 1.392 . S
C214 C215 1.398 . S
C214 H237 0.929 . S
C215 C214 1.398 . S
C215 C216 1.352 . S
C216 C215 1.352 . S
C216 C217 1.384 . S
C216 H238 0.930 . S
C217 C212 1.407 . S
C217 C216 1.384 . S
C217 H239 0.929 . S
C218 O228 1.241 . S
C218 O229 1.273 . S
C219 O230 1.251 . S
C219 O231 1.268 . S
O220 Nd200 2.500 . S
O220 C202 1.258 . S
O221 Nd200 2.492 . S
O221 C202 1.239 . S
O222 Nd200 2.487 . S
O222 C209 1.241 . S
O223 Nd200 2.682 . S
O223 Nd201 2.414 . S
O223 C209 1.273 . S
O224 Nd200 2.410 . S
O224 C210 1.251 . S
O225 Nd201 2.424 . S
O225 C210 1.268 . S
O226 Nd201 2.500 . S
O226 C211 1.258 . S
O227 Nd201 2.492 . S
O227 C211 1.239 . S
O228 Nd201 2.487 . S
O228 C218 1.241 . S
O229 Nd200 2.414 . S
O229 Nd201 2.682 . S
O229 C218 1.273 . S
O230 Nd201 2.410 . S
O230 C219 1.251 . S
O231 Nd200 2.424 . S
O231 C219 1.268 . S
H232 C204 0.930 . S
H233 C205 0.929 . S
H234 C207 0.930 . S
H235 C208 0.929 . S
H236 C213 0.930 . S
H237 C214 0.929 . S
H238 C216 0.930 . S
H239 C217 0.929 . S
Nd240 C242 2.836 . S
Nd240 O260 2.500 . S
Nd240 O261 2.492 . S
Nd240 O262 2.487 . S
Nd240 O263 2.682 . S
Nd240 O264 2.410 . S
Nd240 O269 2.414 . S
Nd240 O271 2.424 . S
Nd241 C251 2.836 . S
Nd241 O263 2.414 . S
Nd241 O265 2.424 . S
Nd241 O266 2.500 . S
Nd241 O267 2.492 . S
Nd241 O268 2.487 . S
Nd241 O269 2.682 . S
Nd241 O270 2.410 . S
C242 Nd240 2.836 . S
C242 C243 1.498 . S
C242 O260 1.258 . S
C242 O261 1.239 . S
C243 C242 1.498 . S
C243 C244 1.366 . S
C243 C248 1.407 . S
C244 C243 1.366 . S
C244 C245 1.392 . S
C244 H272 0.930 . S
C245 C244 1.392 . S
C245 C246 1.398 . S
C245 H273 0.929 . S
C246 C245 1.398 . S
C246 C247 1.352 . S
C247 C246 1.352 . S
C247 C248 1.384 . S
C247 H274 0.930 . S
C248 C243 1.407 . S
C248 C247 1.384 . S
C248 H275 0.929 . S
C249 O262 1.241 . S
C249 O263 1.273 . S
C250 O264 1.251 . S
C250 O265 1.268 . S
C251 Nd241 2.836 . S
C251 C252 1.498 . S
C251 O266 1.258 . S
C251 O267 1.239 . S
C252 C251 1.498 . S
C252 C253 1.366 . S
C252 C257 1.407 . S
C253 C252 1.366 . S
C253 C254 1.392 . S
C253 H276 0.930 . S
C254 C253 1.392 . S
C254 C255 1.398 . S
C254 H277 0.929 . S
C255 C254 1.398 . S
C255 C256 1.352 . S
C256 C255 1.352 . S
C256 C257 1.384 . S
C256 H278 0.930 . S
C257 C252 1.407 . S
C257 C256 1.384 . S
C257 H279 0.929 . S
C258 O268 1.241 . S
C258 O269 1.273 . S
C259 O270 1.251 . S
C259 O271 1.268 . S
O260 Nd240 2.500 . S
O260 C242 1.258 . S
O261 Nd240 2.492 . S
O261 C242 1.239 . S
O262 Nd240 2.487 . S
O262 C249 1.241 . S
O263 Nd240 2.682 . S
O263 Nd241 2.414 . S
O263 C249 1.273 . S
O264 Nd240 2.410 . S
O264 C250 1.251 . S
O265 Nd241 2.424 . S
O265 C250 1.268 . S
O266 Nd241 2.500 . S
O266 C251 1.258 . S
O267 Nd241 2.492 . S
O267 C251 1.239 . S
O268 Nd241 2.487 . S
O268 C258 1.241 . S
O269 Nd240 2.414 . S
O269 Nd241 2.682 . S
O269 C258 1.273 . S
O270 Nd241 2.410 . S
O270 C259 1.251 . S
O271 Nd240 2.424 . S
O271 C259 1.268 . S
H272 C244 0.930 . S
H273 C245 0.929 . S
H274 C247 0.930 . S
H275 C248 0.929 . S
H276 C253 0.930 . S
H277 C254 0.929 . S
H278 C256 0.930 . S
H279 C257 0.929 . S
Nd280 C282 2.836 . S
Nd280 O300 2.500 . S
Nd280 O301 2.492 . S
Nd280 O302 2.487 . S
Nd280 O303 2.682 . S
Nd280 O304 2.410 . S
Nd280 O309 2.414 . S
Nd280 O311 2.424 . S
Nd281 C291 2.836 . S
Nd281 O303 2.414 . S
Nd281 O305 2.424 . S
Nd281 O306 2.500 . S
Nd281 O307 2.492 . S
Nd281 O308 2.487 . S
Nd281 O309 2.682 . S
Nd281 O310 2.410 . S
C282 Nd280 2.836 . S
C282 C283 1.498 . S
C282 O300 1.258 . S
C282 O301 1.239 . S
C283 C282 1.498 . S
C283 C284 1.366 . S
C283 C288 1.407 . S
C284 C283 1.366 . S
C284 C285 1.392 . S
C284 H312 0.930 . S
C285 C284 1.392 . S
C285 C286 1.398 . S
C285 H313 0.929 . S
C286 C285 1.398 . S
C286 C287 1.352 . S
C287 C286 1.352 . S
C287 C288 1.384 . S
C287 H314 0.930 . S
C288 C283 1.407 . S
C288 C287 1.384 . S
C288 H315 0.929 . S
C289 O302 1.241 . S
C289 O303 1.273 . S
C290 O304 1.251 . S
C290 O305 1.268 . S
C291 Nd281 2.836 . S
C291 C292 1.498 . S
C291 O306 1.258 . S
C291 O307 1.239 . S
C292 C291 1.498 . S
C292 C293 1.366 . S
C292 C297 1.407 . S
C293 C292 1.366 . S
C293 C294 1.392 . S
C293 H316 0.930 . S
C294 C293 1.392 . S
C294 C295 1.398 . S
C294 H317 0.929 . S
C295 C294 1.398 . S
C295 C296 1.352 . S
C296 C295 1.352 . S
C296 C297 1.384 . S
C296 H318 0.930 . S
C297 C292 1.407 . S
C297 C296 1.384 . S
C297 H319 0.929 . S
C298 O308 1.241 . S
C298 O309 1.273 . S
C299 O310 1.251 . S
C299 O311 1.268 . S
O300 Nd280 2.500 . S
O300 C282 1.258 . S
O301 Nd280 2.492 . S
O301 C282 1.239 . S
O302 Nd280 2.487 . S
O302 C289 1.241 . S
O303 Nd280 2.682 . S
O303 Nd281 2.414 . S
O303 C289 1.273 . S
O304 Nd280 2.410 . S
O304 C290 1.251 . S
O305 Nd281 2.424 . S
O305 C290 1.268 . S
O306 Nd281 2.500 . S
O306 C291 1.258 . S
O307 Nd281 2.492 . S
O307 C291 1.239 . S
O308 Nd281 2.487 . S
O308 C298 1.241 . S
O309 Nd280 2.414 . S
O309 Nd281 2.682 . S
O309 C298 1.273 . S
O310 Nd281 2.410 . S
O310 C299 1.251 . S
O311 Nd280 2.424 . S
O311 C299 1.268 . S
H312 C284 0.930 . S
H313 C285 0.929 . S
H314 C287 0.930 . S
H315 C288 0.929 . S
H316 C293 0.930 . S
H317 C294 0.929 . S
H318 C296 0.930 . S
H319 C297 0.929 . S
Nd320 C322 2.836 . S
Nd320 O340 2.500 . S
Nd320 O341 2.492 . S
Nd320 O342 2.487 . S
Nd320 O343 2.682 . S
Nd320 O344 2.410 . S
Nd320 O349 2.414 . S
Nd320 O351 2.424 . S
Nd321 C331 2.836 . S
Nd321 O343 2.414 . S
Nd321 O345 2.424 . S
Nd321 O346 2.500 . S
Nd321 O347 2.492 . S
Nd321 O348 2.487 . S
Nd321 O349 2.682 . S
Nd321 O350 2.410 . S
C322 Nd320 2.836 . S
C322 C323 1.498 . S
C322 O340 1.258 . S
C322 O341 1.239 . S
C323 C322 1.498 . S
C323 C324 1.366 . S
C323 C328 1.407 . S
C324 C323 1.366 . S
C324 C325 1.392 . S
C324 H352 0.930 . S
C325 C324 1.392 . S
C325 C326 1.398 . S
C325 H353 0.929 . S
C326 C325 1.398 . S
C326 C327 1.352 . S
C327 C326 1.352 . S
C327 C328 1.384 . S
C327 H354 0.930 . S
C328 C323 1.407 . S
C328 C327 1.384 . S
C328 H355 0.929 . S
C329 O342 1.241 . S
C329 O343 1.273 . S
C330 O344 1.251 . S
C330 O345 1.268 . S
C331 Nd321 2.836 . S
C331 C332 1.498 . S
C331 O346 1.258 . S
C331 O347 1.239 . S
C332 C331 1.498 . S
C332 C333 1.366 . S
C332 C337 1.407 . S
C333 C332 1.366 . S
C333 C334 1.392 . S
C333 H356 0.930 . S
C334 C333 1.392 . S
C334 C335 1.398 . S
C334 H357 0.929 . S
C335 C334 1.398 . S
C335 C336 1.352 . S
C336 C335 1.352 . S
C336 C337 1.384 . S
C336 H358 0.930 . S
C337 C332 1.407 . S
C337 C336 1.384 . S
C337 H359 0.929 . S
C338 O348 1.241 . S
C338 O349 1.273 . S
C339 O350 1.251 . S
C339 O351 1.268 . S
O340 Nd320 2.500 . S
O340 C322 1.258 . S
O341 Nd320 2.492 . S
O341 C322 1.239 . S
O342 Nd320 2.487 . S
O342 C329 1.241 . S
O343 Nd320 2.682 . S
O343 Nd321 2.414 . S
O343 C329 1.273 . S
O344 Nd320 2.410 . S
O344 C330 1.251 . S
O345 Nd321 2.424 . S
O345 C330 1.268 . S
O346 Nd321 2.500 . S
O346 C331 1.258 . S
O347 Nd321 2.492 . S
O347 C331 1.239 . S
O348 Nd321 2.487 . S
O348 C338 1.241 . S
O349 Nd320 2.414 . S
O349 Nd321 2.682 . S
O349 C338 1.273 . S
O350 Nd321 2.410 . S
O350 C339 1.251 . S
O351 Nd320 2.424 . S
O351 C339 1.268 . S
H352 C324 0.930 . S
H353 C325 0.929 . S
H354 C327 0.930 . S
H355 C328 0.929 . S
H356 C333 0.930 . S
H357 C334 0.929 . S
H358 C336 0.930 . S
H359 C337 0.929 . S
Nd360 C362 2.836 . S
Nd360 O380 2.500 . S
Nd360 O381 2.492 . S
Nd360 O382 2.487 . S
Nd360 O383 2.682 . S
Nd360 O384 2.410 . S
Nd360 O389 2.414 . S
Nd360 O391 2.424 . S
Nd361 C371 2.836 . S
Nd361 O383 2.414 . S
Nd361 O385 2.424 . S
Nd361 O386 2.500 . S
Nd361 O387 2.492 . S
Nd361 O388 2.487 . S
Nd361 O389 2.682 . S
Nd361 O390 2.410 . S
C362 Nd360 2.836 . S
C362 C363 1.498 . S
C362 O380 1.258 . S
C362 O381 1.239 . S
C363 C362 1.498 . S
C363 C364 1.366 . S
C363 C368 1.407 . S
C364 C363 1.366 . S
C364 C365 1.392 . S
C364 H392 0.930 . S
C365 C364 1.392 . S
C365 C366 1.398 . S
C365 H393 0.929 . S
C366 C365 1.398 . S
C366 C367 1.352 . S
C367 C366 1.352 . S
C367 C368 1.384 . S
C367 H394 0.930 . S
C368 C363 1.407 . S
C368 C367 1.384 . S
C368 H395 0.929 . S
C369 O382 1.241 . S
C369 O383 1.273 . S
C370 O384 1.251 . S
C370 O385 1.268 . S
C371 Nd361 2.836 . S
C371 C372 1.498 . S
C371 O386 1.258 . S
C371 O387 1.239 . S
C372 C371 1.498 . S
C372 C373 1.366 . S
C372 C377 1.407 . S
C373 C372 1.366 . S
C373 C374 1.392 . S
C373 H396 0.930 . S
C374 C373 1.392 . S
C374 C375 1.398 . S
C374 H397 0.929 . S
C375 C374 1.398 . S
C375 C376 1.352 . S
C376 C375 1.352 . S
C376 C377 1.384 . S
C376 H398 0.930 . S
C377 C372 1.407 . S
C377 C376 1.384 . S
C377 H399 0.929 . S
C378 O388 1.241 . S
C378 O389 1.273 . S
C379 O390 1.251 . S
C379 O391 1.268 . S
O380 Nd360 2.500 . S
O380 C362 1.258 . S
O381 Nd360 2.492 . S
O381 C362 1.239 . S
O382 Nd360 2.487 . S
O382 C369 1.241 . S
O383 Nd360 2.682 . S
O383 Nd361 2.414 . S
O383 C369 1.273 . S
O384 Nd360 2.410 . S
O384 C370 1.251 . S
O385 Nd361 2.424 . S
O385 C370 1.268 . S
O386 Nd361 2.500 . S
O386 C371 1.258 . S
O387 Nd361 2.492 . S
O387 C371 1.239 . S
O388 Nd361 2.487 . S
O388 C378 1.241 . S
O389 Nd360 2.414 . S
O389 Nd361 2.682 . S
O389 C378 1.273 . S
O390 Nd361 2.410 . S
O390 C379 1.251 . S
O391 Nd360 2.424 . S
O391 C379 1.268 . S
H392 C364 0.930 . S
H393 C365 0.929 . S
H394 C367 0.930 . S
H395 C368 0.929 . S
H396 C373 0.930 . S
H397 C374 0.929 . S
H398 C376 0.930 . S
H399 C377 0.929 . S
Nd400 C402 2.836 . S
Nd400 O420 2.500 . S
Nd400 O421 2.492 . S
Nd400 O422 2.487 . S
Nd400 O423 2.682 . S
Nd400 O424 2.410 . S
Nd400 O429 2.414 . S
Nd400 O431 2.424 . S
Nd401 C411 2.836 . S
Nd401 O423 2.414 . S
Nd401 O425 2.424 . S
Nd401 O426 2.500 . S
Nd401 O427 2.492 . S
Nd401 O428 2.487 . S
Nd401 O429 2.682 . S
Nd401 O430 2.410 . S
C402 Nd400 2.836 . S
C402 C403 1.498 . S
C402 O420 1.258 . S
C402 O421 1.239 . S
C403 C402 1.498 . S
C403 C404 1.366 . S
C403 C408 1.407 . S
C404 C403 1.366 . S
C404 C405 1.392 . S
C404 H432 0.930 . S
C405 C404 1.392 . S
C405 C406 1.398 . S
C405 H433 0.929 . S
C406 C405 1.398 . S
C406 C407 1.352 . S
C407 C406 1.352 . S
C407 C408 1.384 . S
C407 H434 0.930 . S
C408 C403 1.407 . S
C408 C407 1.384 . S
C408 H435 0.929 . S
C409 O422 1.241 . S
C409 O423 1.273 . S
C410 O424 1.251 . S
C410 O425 1.268 . S
C411 Nd401 2.836 . S
C411 C412 1.498 . S
C411 O426 1.258 . S
C411 O427 1.239 . S
C412 C411 1.498 . S
C412 C413 1.366 . S
C412 C417 1.407 . S
C413 C412 1.366 . S
C413 C414 1.392 . S
C413 H436 0.930 . S
C414 C413 1.392 . S
C414 C415 1.398 . S
C414 H437 0.929 . S
C415 C414 1.398 . S
C415 C416 1.352 . S
C416 C415 1.352 . S
C416 C417 1.384 . S
C416 H438 0.930 . S
C417 C412 1.407 . S
C417 C416 1.384 . S
C417 H439 0.929 . S
C418 O428 1.241 . S
C418 O429 1.273 . S
C419 O430 1.251 . S
C419 O431 1.268 . S
O420 Nd400 2.500 . S
O420 C402 1.258 . S
O421 Nd400 2.492 . S
O421 C402 1.239 . S
O422 Nd400 2.487 . S
O422 C409 1.241 . S
O423 Nd400 2.682 . S
O423 Nd401 2.414 . S
O423 C409 1.273 . S
O424 Nd400 2.410 . S
O424 C410 1.251 . S
O425 Nd401 2.424 . S
O425 C410 1.268 . S
O426 Nd401 2.500 . S
O426 C411 1.258 . S
O427 Nd401 2.492 . S
O427 C411 1.239 . S
O428 Nd401 2.487 . S
O428 C418 1.241 . S
O429 Nd400 2.414 . S
O429 Nd401 2.682 . S
O429 C418 1.273 . S
O430 Nd401 2.410 . S
O430 C419 1.251 . S
O431 Nd400 2.424 . S
O431 C419 1.268 . S
H432 C404 0.930 . S
H433 C405 0.929 . S
H434 C407 0.930 . S
H435 C408 0.929 . S
H436 C413 0.930 . S
H437 C414 0.929 . S
H438 C416 0.930 . S
H439 C417 0.929 . S
Nd440 C442 2.836 . S
Nd440 O460 2.500 . S
Nd440 O461 2.492 . S
Nd440 O462 2.487 . S
Nd440 O463 2.682 . S
Nd440 O464 2.410 . S
Nd440 O469 2.414 . S
Nd440 O471 2.424 . S
Nd441 C451 2.836 . S
Nd441 O463 2.414 . S
Nd441 O465 2.424 . S
Nd441 O466 2.500 . S
Nd441 O467 2.492 . S
Nd441 O468 2.487 . S
Nd441 O469 2.682 . S
Nd441 O470 2.410 . S
C442 Nd440 2.836 . S
C442 C443 1.498 . S
C442 O460 1.258 . S
C442 O461 1.239 . S
C443 C442 1.498 . S
C443 C444 1.366 . S
C443 C448 1.407 . S
C444 C443 1.366 . S
C444 C445 1.392 . S
C444 H472 0.930 . S
C445 C444 1.392 . S
C445 C446 1.398 . S
C445 H473 0.929 . S
C446 C445 1.398 . S
C446 C447 1.352 . S
C447 C446 1.352 . S
C447 C448 1.384 . S
C447 H474 0.930 . S
C448 C443 1.407 . S
C448 C447 1.384 . S
C448 H475 0.929 . S
C449 O462 1.241 . S
C449 O463 1.273 . S
C450 O464 1.251 . S
C450 O465 1.268 . S
C451 Nd441 2.836 . S
C451 C452 1.498 . S
C451 O466 1.258 . S
C451 O467 1.239 . S
C452 C451 1.498 . S
C452 C453 1.366 . S
C452 C457 1.407 . S
C453 C452 1.366 . S
C453 C454 1.392 . S
C453 H476 0.930 . S
C454 C453 1.392 . S
C454 C455 1.398 . S
C454 H477 0.929 . S
C455 C454 1.398 . S
C455 C456 1.352 . S
C456 C455 1.352 . S
C456 C457 1.384 . S
C456 H478 0.930 . S
C457 C452 1.407 . S
C457 C456 1.384 . S
C457 H479 0.929 . S
C458 O468 1.241 . S
C458 O469 1.273 . S
C459 O470 1.251 . S
C459 O471 1.268 . S
O460 Nd440 2.500 . S
O460 C442 1.258 . S
O461 Nd440 2.492 . S
O461 C442 1.239 . S
O462 Nd440 2.487 . S
O462 C449 1.241 . S
O463 Nd440 2.682 . S
O463 Nd441 2.414 . S
O463 C449 1.273 . S
O464 Nd440 2.410 . S
O464 C450 1.251 . S
O465 Nd441 2.424 . S
O465 C450 1.268 . S
O466 Nd441 2.500 . S
O466 C451 1.258 . S
O467 Nd441 2.492 . S
O467 C451 1.239 . S
O468 Nd441 2.487 . S
O468 C458 1.241 . S
O469 Nd440 2.414 . S
O469 Nd441 2.682 . S
O469 C458 1.273 . S
O470 Nd441 2.410 . S
O470 C459 1.251 . S
O471 Nd440 2.424 . S
O471 C459 1.268 . S
H472 C444 0.930 . S
H473 C445 0.929 . S
H474 C447 0.930 . S
H475 C448 0.929 . S
H476 C453 0.930 . S
H477 C454 0.929 . S
H478 C456 0.930 . S
H479 C457 0.929 . S
H480 C488 0.929 . S
H481 C490 0.930 . S
H482 C492 0.930 . S
H483 C495 0.929 . S
H484 C498 0.908 1_655 S
H485 C500 0.960 . S
H486 C500 0.960 . S
H487 C500 0.960 . S
C488 H480 0.929 . S
C488 C489 1.377 . S
C488 C490 1.384 . S
C489 C488 1.377 . S
C489 C495 1.390 . S
C490 H481 0.930 . S
C490 C488 1.384 . S
C490 C491 1.372 . S
C491 C490 1.372 . S
C491 C492 1.400 . S
C491 C496 1.490 1_655 S
C492 H482 0.930 . S
C492 C491 1.400 . S
C492 C495 1.386 . S
H493 C509 0.930 . S
H494 C510 0.931 . S
C495 H483 0.929 . S
C495 C489 1.390 . S
C495 C492 1.386 . S
C496 C491 1.490 1_455 S
C496 C498 1.387 . S
C496 C499 1.403 . S
H497 C503 0.930 . S
C498 H484 0.908 1_455 S
C498 C496 1.387 . S
C498 C501 1.433 . S
C499 C496 1.403 . S
C499 C500 1.524 . S
C499 C503 1.400 . S
C500 H485 0.960 . S
C500 H486 0.960 . S
C500 H487 0.960 . S
C500 C499 1.524 . S
C501 C498 1.433 . S
C501 C502 1.392 . S
C501 C505 1.495 . S
C502 C501 1.392 . S
C502 C503 1.385 . S
C502 C504 1.478 . S
C503 H497 0.930 . S
C503 C499 1.400 . S
C503 C502 1.385 . S
C504 C502 1.478 . S
C504 C506 1.381 . S
C504 C510 1.383 . S
C505 C501 1.495 . S
C505 H511 0.959 1_455 S
C505 H512 0.961 . S
C505 H513 0.960 . S
C506 C504 1.381 . S
C506 C507 1.394 . S
C506 H514 0.930 . S
C507 C506 1.394 . S
C507 C508 1.383 . S
C507 H515 0.929 . S
C508 C507 1.383 . S
C508 C509 1.377 . S
C509 H493 0.930 . S
C509 C508 1.377 . S
C509 C510 1.379 . S
C510 H494 0.931 . S
C510 C504 1.383 . S
C510 C509 1.379 . S
H511 C505 0.959 1_655 S
H512 C505 0.961 . S
H513 C505 0.960 . S
H514 C506 0.930 . S
H515 C507 0.929 . S
H516 C524 0.929 . S
H517 C526 0.930 . S
H518 C528 0.930 . S
H519 C531 0.929 . S
H520 C534 0.930 . S
H521 C536 0.960 . S
H522 C536 0.960 . S
H523 C536 0.960 . S
C524 H516 0.929 . S
C524 C525 1.377 . S
C524 C526 1.384 . S
C525 C524 1.377 . S
C525 C531 1.390 . S
C526 H517 0.930 . S
C526 C524 1.384 . S
C526 C527 1.372 . S
C527 C526 1.372 . S
C527 C528 1.400 . S
C527 C532 1.490 1_545 S
C528 H518 0.930 . S
C528 C527 1.400 . S
C528 C531 1.386 . S
H529 C545 0.930 . S
H530 C546 0.931 . S
C531 H519 0.929 . S
C531 C525 1.390 . S
C531 C528 1.386 . S
C532 C527 1.490 1_565 S
C532 C534 1.395 . S
C532 C535 1.403 . S
H533 C539 0.930 . S
C534 H520 0.930 . S
C534 C532 1.395 . S
C534 C537 1.403 . S
C535 C532 1.403 . S
C535 C536 1.524 1_565 S
C535 C539 1.400 . S
C536 H521 0.960 . S
C536 H522 0.960 . S
C536 H523 0.960 . S
C536 C535 1.524 1_545 S
C537 C534 1.403 . S
C537 C538 1.392 . S
C537 C541 1.495 . S
C538 C537 1.392 . S
C538 C539 1.385 . S
C538 C540 1.478 . S
C539 H533 0.930 . S
C539 C535 1.400 . S
C539 C538 1.385 . S
C540 C538 1.478 . S
C540 C542 1.381 . S
C540 C546 1.383 . S
C541 C537 1.495 . S
C541 H547 0.959 . S
C541 H548 0.961 . S
C541 H549 0.960 . S
C542 C540 1.381 . S
C542 C543 1.394 . S
C542 H550 0.930 . S
C543 C542 1.394 . S
C543 C544 1.382 1_455 S
C543 H551 0.929 1_455 S
C544 C543 1.382 1_655 S
C544 C545 1.373 1_655 S
C545 H529 0.930 . S
C545 C544 1.373 1_455 S
C545 C546 1.379 . S
C546 H530 0.931 . S
C546 C540 1.383 . S
C546 C545 1.379 . S
H547 C541 0.959 . S
H548 C541 0.961 . S
H549 C541 0.960 . S
H550 C542 0.930 . S
H551 C543 0.929 1_655 S
H552 C560 0.929 . S
H553 C562 0.930 . S
H554 C564 0.930 . S
H555 C567 0.929 . S
H556 C570 0.930 . S
H557 C572 0.960 . S
H558 C572 0.960 . S
H559 C572 0.960 . S
C560 H552 0.929 . S
C560 C561 1.364 1_565 S
C560 C562 1.384 . S
C561 C560 1.364 1_545 S
C561 C567 1.380 1_545 S
C562 H553 0.930 . S
C562 C560 1.384 . S
C562 C563 1.372 . S
C563 C562 1.372 . S
C563 C564 1.400 . S
C563 C568 1.490 . S
C564 H554 0.930 . S
C564 C563 1.400 . S
C564 C567 1.386 . S
H565 C581 0.930 . S
H566 C582 0.931 . S
C567 H555 0.929 . S
C567 C561 1.380 1_565 S
C567 C564 1.386 . S
C568 C563 1.490 . S
C568 C570 1.395 . S
C568 C571 1.403 . S
H569 C575 0.930 . S
C570 H556 0.930 . S
C570 C568 1.395 . S
C570 C573 1.403 . S
C571 C568 1.403 . S
C571 C572 1.524 . S
C571 C575 1.400 . S
C572 H557 0.960 . S
C572 H558 0.960 . S
C572 H559 0.960 . S
C572 C571 1.524 . S
C573 C570 1.403 . S
C573 C574 1.392 . S
C573 C577 1.495 . S
C574 C573 1.392 . S
C574 C575 1.385 . S
C574 C576 1.478 . S
C575 H569 0.930 . S
C575 C571 1.400 . S
C575 C574 1.385 . S
C576 C574 1.478 . S
C576 C578 1.381 . S
C576 C582 1.383 . S
C577 C573 1.495 . S
C577 H583 0.959 . S
C577 H584 0.961 . S
C577 H585 0.960 . S
C578 C576 1.381 . S
C578 C579 1.394 . S
C578 H586 0.930 . S
C579 C578 1.394 . S
C579 C580 1.383 . S
C579 H587 0.929 . S
C580 C579 1.383 . S
C580 C581 1.377 . S
C581 H565 0.930 . S
C581 C580 1.377 . S
C581 C582 1.379 . S
C582 H566 0.931 . S
C582 C576 1.383 . S
C582 C581 1.379 . S
H583 C577 0.959 . S
H584 C577 0.961 . S
H585 C577 0.960 . S
H586 C578 0.930 . S
H587 C579 0.929 . S
H588 C596 0.929 . S
H589 C598 0.930 . S
H590 C600 0.930 . S
H591 C603 0.929 . S
H592 C606 0.930 . S
H593 C608 0.960 . S
H594 C608 0.960 . S
H595 C608 0.960 . S
C596 H588 0.929 . S
C596 C597 1.377 . S
C596 C598 1.384 . S
C597 C596 1.377 . S
C597 C603 1.390 . S
C598 H589 0.930 . S
C598 C596 1.384 . S
C598 C599 1.372 . S
C599 C598 1.372 . S
C599 C600 1.400 . S
C599 C604 1.490 . S
C600 H590 0.930 . S
C600 C599 1.400 . S
C600 C603 1.386 . S
H601 C617 0.930 . S
H602 C618 0.931 1_455 S
C603 H591 0.929 . S
C603 C597 1.390 . S
C603 C600 1.386 . S
C604 C599 1.490 . S
C604 C606 1.395 . S
C604 C607 1.403 . S
H605 C611 0.930 . S
C606 H592 0.930 . S
C606 C604 1.395 . S
C606 C609 1.403 . S
C607 C604 1.403 . S
C607 C608 1.524 . S
C607 C611 1.400 . S
C608 H593 0.960 . S
C608 H594 0.960 . S
C608 H595 0.960 . S
C608 C607 1.524 . S
C609 C606 1.403 . S
C609 C610 1.392 . S
C609 C613 1.495 1_455 S
C610 C609 1.392 . S
C610 C611 1.385 . S
C610 C612 1.478 1_455 S
C611 H605 0.930 . S
C611 C607 1.400 . S
C611 C610 1.385 . S
C612 C610 1.478 1_655 S
C612 C614 1.381 . S
C612 C618 1.383 . S
C613 C609 1.495 1_655 S
C613 H619 0.959 . S
C613 H620 0.961 . S
C613 H621 0.960 . S
C614 C612 1.381 . S
C614 C615 1.394 . S
C614 H622 0.930 . S
C615 C614 1.394 . S
C615 C616 1.383 . S
C615 H623 0.929 . S
C616 C615 1.383 . S
C616 C617 1.377 . S
C617 H601 0.930 . S
C617 C616 1.377 . S
C617 C618 1.379 . S
C618 H602 0.931 1_655 S
C618 C612 1.383 . S
C618 C617 1.379 . S
H619 C613 0.959 . S
H620 C613 0.961 . S
H621 C613 0.960 . S
H622 C614 0.930 . S
H623 C615 0.929 . S
H624 C632 0.929 . S
H625 C634 0.930 . S
H626 C636 0.930 . S
H627 C639 0.929 . S
H628 C642 0.930 . S
H629 C644 0.960 . S
H630 C644 0.960 . S
H631 C644 0.960 . S
C632 H624 0.929 . S
C632 C633 1.377 . S
C632 C634 1.384 . S
C633 C632 1.377 . S
C633 C639 1.390 . S
C634 H625 0.930 . S
C634 C632 1.384 . S
C634 C635 1.372 . S
C635 C634 1.372 . S
C635 C636 1.400 . S
C635 C640 1.490 1_545 S
C636 H626 0.930 . S
C636 C635 1.400 . S
C636 C639 1.386 . S
H637 C653 0.930 1_655 S
H638 C654 0.931 . S
C639 H627 0.929 . S
C639 C633 1.390 . S
C639 C636 1.386 . S
C640 C635 1.490 1_565 S
C640 C642 1.395 . S
C640 C643 1.403 . S
H641 C647 0.930 . S
C642 H628 0.930 . S
C642 C640 1.395 . S
C642 C645 1.403 . S
C643 C640 1.403 . S
C643 C644 1.524 1_565 S
C643 C647 1.400 . S
C644 H629 0.960 . S
C644 H630 0.960 . S
C644 H631 0.960 . S
C644 C643 1.524 1_545 S
C645 C642 1.403 . S
C645 C646 1.392 . S
C645 C649 1.495 . S
C646 C645 1.392 . S
C646 C647 1.385 . S
C646 C648 1.478 . S
C647 H641 0.930 . S
C647 C643 1.400 . S
C647 C646 1.385 . S
C648 C646 1.478 . S
C648 C650 1.381 . S
C648 C654 1.383 . S
C649 C645 1.495 . S
C649 H655 0.959 . S
C649 H656 0.961 . S
C649 H657 0.960 . S
C650 C648 1.381 . S
C650 C651 1.394 . S
C650 H658 0.930 . S
C651 C650 1.394 . S
C651 C652 1.382 1_455 S
C651 H659 0.929 . S
C652 C651 1.382 1_655 S
C652 C653 1.377 1_655 S
C653 H637 0.930 1_455 S
C653 C652 1.377 1_455 S
C653 C654 1.379 . S
C654 H638 0.931 . S
C654 C648 1.383 . S
C654 C653 1.379 . S
H655 C649 0.959 . S
H656 C649 0.961 . S
H657 C649 0.960 . S
H658 C650 0.930 . S
H659 C651 0.929 . S
H660 C668 0.929 . S
H661 C670 0.930 . S
H662 C672 0.930 . S
H663 C675 0.929 . S
H664 C678 0.930 . S
H665 C680 0.960 . S
H666 C680 0.960 . S
H667 C680 0.960 . S
C668 H660 0.929 . S
C668 C669 1.377 . S
C668 C670 1.384 . S
C669 C668 1.377 . S
C669 C675 1.390 . S
C670 H661 0.930 . S
C670 C668 1.384 . S
C670 C671 1.372 . S
C671 C670 1.372 . S
C671 C672 1.400 . S
C671 C676 1.490 . S
C672 H662 0.930 . S
C672 C671 1.400 . S
C672 C675 1.386 . S
H673 C689 0.930 1_545 S
H674 C690 0.931 . S
C675 H663 0.929 . S
C675 C669 1.390 . S
C675 C672 1.386 . S
C676 C671 1.490 . S
C676 C678 1.395 . S
C676 C679 1.403 . S
H677 C683 0.930 . S
C678 H664 0.930 . S
C678 C676 1.395 . S
C678 C681 1.403 . S
C679 C676 1.403 . S
C679 C680 1.524 . S
C679 C683 1.400 . S
C680 H665 0.960 . S
C680 H666 0.960 . S
C680 H667 0.960 . S
C680 C679 1.524 . S
C681 C678 1.403 . S
C681 C682 1.392 . S
C681 C685 1.495 . S
C682 C681 1.392 . S
C682 C683 1.385 . S
C682 C684 1.478 . S
C683 H677 0.930 . S
C683 C679 1.400 . S
C683 C682 1.385 . S
C684 C682 1.478 . S
C684 C686 1.381 . S
C684 C690 1.383 . S
C685 C681 1.495 . S
C685 H691 0.959 . S
C685 H692 0.961 . S
C685 H693 0.960 . S
C686 C684 1.381 . S
C686 C687 1.394 . S
C686 H694 0.930 . S
C687 C686 1.394 . S
C687 C688 1.383 1_565 S
C687 H695 0.929 . S
C688 C687 1.383 1_545 S
C688 C689 1.375 1_545 S
C689 H673 0.930 1_565 S
C689 C688 1.375 1_565 S
C689 C690 1.379 . S
C690 H674 0.931 . S
C690 C684 1.383 . S
C690 C689 1.379 . S
H691 C685 0.959 . S
H692 C685 0.961 . S
H693 C685 0.960 . S
H694 C686 0.930 . S
H695 C687 0.929 . S
H696 C704 0.929 . S
H697 C706 0.930 1_545 S
H698 C708 0.930 . S
H699 C711 0.929 . S
H700 C714 0.930 . S
H701 C716 0.960 . S
H702 C716 0.960 . S
H703 C716 0.960 . S
C704 H696 0.929 . S
C704 C705 1.377 . S
C704 C706 1.384 . S
C705 C704 1.377 . S
C705 C711 1.390 . S
C706 H697 0.930 1_565 S
C706 C704 1.384 . S
C706 C707 1.372 . S
C707 C706 1.372 . S
C707 C708 1.400 . S
C707 C712 1.490 1_565 S
C708 H698 0.930 . S
C708 C707 1.400 . S
C708 C711 1.386 . S
H709 C725 0.930 . S
H710 C726 0.931 . S
C711 H699 0.929 . S
C711 C705 1.390 . S
C711 C708 1.386 . S
C712 C707 1.490 1_545 S
C712 C714 1.395 . S
C712 C715 1.403 . S
H713 C719 0.930 . S
C714 H700 0.930 . S
C714 C712 1.395 . S
C714 C717 1.403 . S
C715 C712 1.403 . S
C715 C716 1.524 1_545 S
C715 C719 1.400 . S
C716 H701 0.960 . S
C716 H702 0.960 . S
C716 H703 0.960 . S
C716 C715 1.524 1_565 S
C717 C714 1.403 . S
C717 C718 1.392 . S
C717 C721 1.495 . S
C718 C717 1.392 . S
C718 C719 1.385 . S
C718 C720 1.478 . S
C719 H713 0.930 . S
C719 C715 1.400 . S
C719 C718 1.385 . S
C720 C718 1.478 . S
C720 C722 1.381 . S
C720 C726 1.383 . S
C721 C717 1.495 . S
C721 H727 0.959 . S
C721 H728 0.961 . S
C721 H729 0.960 . S
C722 C720 1.381 . S
C722 C723 1.394 . S
C722 H730 0.930 . S
C723 C722 1.394 . S
C723 C724 1.383 . S
C723 H731 0.929 . S
C724 C723 1.383 . S
C724 C725 1.377 . S
C725 H709 0.930 . S
C725 C724 1.377 . S
C725 C726 1.379 . S
C726 H710 0.931 . S
C726 C720 1.383 . S
C726 C725 1.379 . S
H727 C721 0.959 . S
H728 C721 0.961 . S
H729 C721 0.960 . S
H730 C722 0.930 . S
H731 C723 0.929 . S
H732 C740 0.929 . S
H733 C742 0.930 . S
H734 C744 0.930 . S
H735 C747 0.929 . S
H736 C750 0.930 . S
H737 C752 0.960 . S
H738 C752 0.960 . S
H739 C752 0.960 . S
C740 H732 0.929 . S
C740 C741 1.364 1_655 S
C740 C742 1.384 . S
C741 C740 1.364 1_455 S
C741 C747 1.381 1_455 S
C742 H733 0.930 . S
C742 C740 1.384 . S
C742 C743 1.372 . S
C743 C742 1.372 . S
C743 C744 1.400 . S
C743 C748 1.490 . S
C744 H734 0.930 . S
C744 C743 1.400 . S
C744 C747 1.386 . S
H745 C761 0.930 . S
H746 C762 0.931 . S
C747 H735 0.929 . S
C747 C741 1.381 1_655 S
C747 C744 1.386 . S
C748 C743 1.490 . S
C748 C750 1.395 . S
C748 C751 1.403 . S
H749 C755 0.930 . S
C750 H736 0.930 . S
C750 C748 1.395 . S
C750 C753 1.403 . S
C751 C748 1.403 . S
C751 C752 1.524 . S
C751 C755 1.400 . S
C752 H737 0.960 . S
C752 H738 0.960 . S
C752 H739 0.960 . S
C752 C751 1.524 . S
C753 C750 1.403 . S
C753 C754 1.392 . S
C753 C757 1.495 . S
C754 C753 1.392 . S
C754 C755 1.385 . S
C754 C756 1.478 . S
C755 H749 0.930 . S
C755 C751 1.400 . S
C755 C754 1.385 . S
C756 C754 1.478 . S
C756 C758 1.381 . S
C756 C762 1.383 . S
C757 C753 1.495 . S
C757 H763 0.959 . S
C757 H764 0.961 . S
C757 H765 0.960 . S
C758 C756 1.381 . S
C758 C759 1.394 . S
C758 H766 0.930 . S
C759 C758 1.394 . S
C759 C760 1.383 . S
C759 H767 0.929 . S
C760 C759 1.383 . S
C760 C761 1.377 . S
C761 H745 0.930 . S
C761 C760 1.377 . S
C761 C762 1.379 . S
C762 H746 0.931 . S
C762 C756 1.383 . S
C762 C761 1.379 . S
H763 C757 0.959 . S
H764 C757 0.961 . S
H765 C757 0.960 . S
H766 C758 0.930 . S
H767 C759 0.929 . S
H768 C776 0.929 1_565 S
H769 C778 0.930 . S
H770 C780 0.930 . S
H771 C783 0.929 . S
H772 C786 0.930 . S
H773 C788 0.960 . S
H774 C788 0.960 . S
H775 C788 0.960 . S
C776 H768 0.929 1_545 S
C776 C777 1.383 1_545 S
C776 C778 1.384 . S
C777 C776 1.383 1_565 S
C777 C783 1.360 1_565 S
C778 H769 0.930 . S
C778 C776 1.384 . S
C778 C779 1.372 . S
C779 C778 1.372 . S
C779 C780 1.400 . S
C779 C784 1.490 . S
C780 H770 0.930 . S
C780 C779 1.400 . S
C780 C783 1.386 . S
H781 C797 0.930 . S
H782 C798 0.931 1_655 S
C783 H771 0.929 . S
C783 C777 1.360 1_545 S
C783 C780 1.386 . S
C784 C779 1.490 . S
C784 C786 1.395 . S
C784 C787 1.403 . S
H785 C791 0.930 . S
C786 H772 0.930 . S
C786 C784 1.395 . S
C786 C789 1.403 . S
C787 C784 1.403 . S
C787 C788 1.524 . S
C787 C791 1.400 . S
C788 H773 0.960 . S
C788 H774 0.960 . S
C788 H775 0.960 . S
C788 C787 1.524 . S
C789 C786 1.403 . S
C789 C790 1.392 . S
C789 C793 1.495 . S
C790 C789 1.392 . S
C790 C791 1.385 . S
C790 C792 1.478 1_655 S
C791 H785 0.930 . S
C791 C787 1.400 . S
C791 C790 1.385 . S
C792 C790 1.478 1_455 S
C792 C794 1.381 . S
C792 C798 1.383 . S
C793 C789 1.495 . S
C793 H799 0.959 . S
C793 H800 0.961 . S
C793 H801 0.960 1_655 S
C794 C792 1.381 . S
C794 C795 1.394 . S
C794 H802 0.930 . S
C795 C794 1.394 . S
C795 C796 1.383 . S
C795 H803 0.929 . S
C796 C795 1.383 . S
C796 C797 1.377 . S
C797 H781 0.930 . S
C797 C796 1.377 . S
C797 C798 1.379 . S
C798 H782 0.931 1_455 S
C798 C792 1.383 . S
C798 C797 1.379 . S
H799 C793 0.959 . S
H800 C793 0.961 . S
H801 C793 0.960 1_455 S
H802 C794 0.930 . S
H803 C795 0.929 . S
H804 C812 0.929 . S
H805 C814 0.930 . S
H806 C816 0.930 . S
H807 C819 0.929 . S
H808 C822 0.930 . S
H809 C824 0.960 1_565 S
H810 C824 0.960 . S
H811 C824 0.960 . S
C812 H804 0.929 . S
C812 C813 1.377 . S
C812 C814 1.384 . S
C813 C812 1.377 . S
C813 C819 1.390 . S
C814 H805 0.930 . S
C814 C812 1.384 . S
C814 C815 1.372 . S
C815 C814 1.372 . S
C815 C816 1.400 . S
C815 C820 1.490 . S
C816 H806 0.930 . S
C816 C815 1.400 . S
C816 C819 1.386 . S
H817 C833 0.930 . S
H818 C834 0.931 . S
C819 H807 0.929 . S
C819 C813 1.390 . S
C819 C816 1.386 . S
C820 C815 1.490 . S
C820 C822 1.395 . S
C820 C823 1.403 . S
H821 C827 0.930 1_565 S
C822 H808 0.930 . S
C822 C820 1.395 . S
C822 C825 1.403 . S
C823 C820 1.403 . S
C823 C824 1.524 . S
C823 C827 1.400 . S
C824 H809 0.960 1_545 S
C824 H810 0.960 . S
C824 H811 0.960 . S
C824 C823 1.524 . S
C825 C822 1.403 . S
C825 C826 1.392 . S
C825 C829 1.495 . S
C826 C825 1.392 . S
C826 C827 1.385 . S
C826 C828 1.478 1_545 S
C827 H821 0.930 1_545 S
C827 C823 1.400 . S
C827 C826 1.385 . S
C828 C826 1.478 1_565 S
C828 C830 1.381 . S
C828 C834 1.383 . S
C829 C825 1.495 . S
C829 H835 0.959 . S
C829 H836 0.961 . S
C829 H837 0.960 . S
C830 C828 1.381 . S
C830 C831 1.394 . S
C830 H838 0.930 1_565 S
C831 C830 1.394 . S
C831 C832 1.383 . S
C831 H839 0.929 . S
C832 C831 1.383 . S
C832 C833 1.377 . S
C833 H817 0.930 . S
C833 C832 1.377 . S
C833 C834 1.379 . S
C834 H818 0.931 . S
C834 C828 1.383 . S
C834 C833 1.379 . S
H835 C829 0.959 . S
H836 C829 0.961 . S
H837 C829 0.960 . S
H838 C830 0.930 1_545 S
H839 C831 0.929 . S
H840 C848 0.929 . S
H841 C850 0.930 . S
H842 C852 0.930 . S
H843 C855 0.929 . S
H844 C858 0.930 . S
H845 C860 0.960 . S
H846 C860 0.960 . S
H847 C860 0.960 . S
C848 H840 0.929 . S
C848 C849 1.367 1_655 S
C848 C850 1.384 . S
C849 C848 1.367 1_455 S
C849 C855 1.376 1_455 S
C850 H841 0.930 . S
C850 C848 1.384 . S
C850 C851 1.372 . S
C851 C850 1.372 . S
C851 C852 1.400 . S
C851 C856 1.490 . S
C852 H842 0.930 . S
C852 C851 1.400 . S
C852 C855 1.386 . S
H853 C869 0.930 . S
H854 C870 0.931 . S
C855 H843 0.929 . S
C855 C849 1.376 1_655 S
C855 C852 1.386 . S
C856 C851 1.490 . S
C856 C858 1.395 . S
C856 C859 1.403 . S
H857 C863 0.930 . S
C858 H844 0.930 . S
C858 C856 1.395 . S
C858 C861 1.403 . S
C859 C856 1.403 . S
C859 C860 1.524 . S
C859 C863 1.400 . S
C860 H845 0.960 . S
C860 H846 0.960 . S
C860 H847 0.960 . S
C860 C859 1.524 . S
C861 C858 1.403 . S
C861 C862 1.392 . S
C861 C865 1.495 . S
C862 C861 1.392 . S
C862 C863 1.385 . S
C862 C864 1.478 . S
C863 H857 0.930 . S
C863 C859 1.400 . S
C863 C862 1.385 . S
C864 C862 1.478 . S
C864 C866 1.381 . S
C864 C870 1.383 . S
C865 C861 1.495 . S
C865 H871 0.959 . S
C865 H872 0.961 . S
C865 H873 0.960 . S
C866 C864 1.381 . S
C866 C867 1.394 . S
C866 H874 0.930 . S
C867 C866 1.394 . S
C867 C868 1.383 . S
C867 H875 0.929 . S
C868 C867 1.383 . S
C868 C869 1.377 . S
C869 H853 0.930 . S
C869 C868 1.377 . S
C869 C870 1.379 . S
C870 H854 0.931 . S
C870 C864 1.383 . S
C870 C869 1.379 . S
H871 C865 0.959 . S
H872 C865 0.961 . S
H873 C865 0.960 . S
H874 C866 0.930 . S
H875 C867 0.929 . S
H876 C884 0.929 . S
H877 C886 0.930 . S
H878 C888 0.930 1_655 S
H879 C891 0.929 . S
H880 C894 0.922 1_455 S
H881 C896 0.960 . S
H882 C896 0.960 . S
H883 C896 0.960 . S
C884 H876 0.929 . S
C884 C885 1.377 . S
C884 C886 1.384 . S
C885 C884 1.377 . S
C885 C891 1.390 . S
C886 H877 0.930 . S
C886 C884 1.384 . S
C886 C887 1.372 . S
C887 C886 1.372 . S
C887 C888 1.400 . S
C887 C892 1.490 1_455 S
C888 H878 0.930 1_455 S
C888 C887 1.400 . S
C888 C891 1.386 . S
H889 C905 0.930 . S
H890 C906 0.931 . S
C891 H879 0.929 . S
C891 C885 1.390 . S
C891 C888 1.386 . S
C892 C887 1.490 1_655 S
C892 C894 1.400 . S
C892 C895 1.403 . S
H893 C899 0.930 . S
C894 H880 0.922 1_655 S
C894 C892 1.400 . S
C894 C897 1.405 . S
C895 C892 1.403 . S
C895 C896 1.524 . S
C895 C899 1.400 . S
C896 H881 0.960 . S
C896 H882 0.960 . S
C896 H883 0.960 . S
C896 C895 1.524 . S
C897 C894 1.405 . S
C897 C898 1.392 . S
C897 C901 1.495 . S
C898 C897 1.392 . S
C898 C899 1.385 . S
C898 C900 1.478 . S
C899 H893 0.930 . S
C899 C895 1.400 . S
C899 C898 1.385 . S
C900 C898 1.478 . S
C900 C902 1.381 . S
C900 C906 1.383 . S
C901 C897 1.495 . S
C901 H907 0.959 1_655 S
C901 H908 0.961 . S
C901 H909 0.960 . S
C902 C900 1.381 . S
C902 C903 1.394 . S
C902 H910 0.930 . S
C903 C902 1.394 . S
C903 C904 1.383 1_545 S
C903 H911 0.929 1_545 S
C904 C903 1.383 1_565 S
C904 C905 1.377 1_565 S
C905 H889 0.930 . S
C905 C904 1.377 1_545 S
C905 C906 1.379 . S
C906 H890 0.931 . S
C906 C900 1.383 . S
C906 C905 1.379 . S
H907 C901 0.959 1_455 S
H908 C901 0.961 . S
H909 C901 0.960 . S
H910 C902 0.930 . S
H911 C903 0.929 1_565 S
H912 C920 0.929 . S
H913 C922 0.930 . S
H914 C924 0.930 . S
H915 C927 0.929 . S
H916 C930 0.930 . S
H917 C932 0.960 . S
H918 C932 0.960 . S
H919 C932 0.960 . S
C920 H912 0.929 . S
C920 C921 1.377 . S
C920 C922 1.384 . S
C921 C920 1.377 . S
C921 C927 1.390 . S
C922 H913 0.930 . S
C922 C920 1.384 . S
C922 C923 1.372 . S
C923 C922 1.372 . S
C923 C924 1.400 . S
C923 C928 1.490 . S
C924 H914 0.930 . S
C924 C923 1.400 . S
C924 C927 1.386 . S
H925 C941 0.930 . S
H926 C942 0.931 . S
C927 H915 0.929 . S
C927 C921 1.390 . S
C927 C924 1.386 . S
C928 C923 1.490 . S
C928 C930 1.395 . S
C928 C931 1.403 . S
H929 C935 0.930 . S
C930 H916 0.930 . S
C930 C928 1.395 . S
C930 C933 1.403 . S
C931 C928 1.403 . S
C931 C932 1.524 . S
C931 C935 1.400 . S
C932 H917 0.960 . S
C932 H918 0.960 . S
C932 H919 0.960 . S
C932 C931 1.524 . S
C933 C930 1.403 . S
C933 C934 1.392 . S
C933 C937 1.495 . S
C934 C933 1.392 . S
C934 C935 1.385 . S
C934 C936 1.478 . S
C935 H929 0.930 . S
C935 C931 1.400 . S
C935 C934 1.385 . S
C936 C934 1.478 . S
C936 C938 1.381 . S
C936 C942 1.383 . S
C937 C933 1.495 . S
C937 H943 0.959 . S
C937 H944 0.961 . S
C937 H945 0.960 . S
C938 C936 1.381 . S
C938 C939 1.394 . S
C938 H946 0.930 . S
C939 C938 1.394 . S
C939 C940 1.383 . S
C939 H947 0.929 . S
C940 C939 1.383 . S
C940 C941 1.377 . S
C941 H925 0.930 . S
C941 C940 1.377 . S
C941 C942 1.379 . S
C942 H926 0.931 . S
C942 C936 1.383 . S
C942 C941 1.379 . S
H943 C937 0.959 . S
H944 C937 0.961 . S
H945 C937 0.960 . S
H946 C938 0.930 . S
H947 C939 0.929 . S
H948 C956 0.929 . S
H949 C958 0.930 . S
H950 C960 0.930 . S
H951 C963 0.929 . S
H952 C966 0.930 . S
H953 C968 0.960 . S
H954 C968 0.960 . S
H955 C968 0.960 . S
C956 H948 0.929 . S
C956 C957 1.377 . S
C956 C958 1.384 . S
C957 C956 1.377 . S
C957 C963 1.390 . S
C958 H949 0.930 . S
C958 C956 1.384 . S
C958 C959 1.372 . S
C959 C958 1.372 . S
C959 C960 1.400 . S
C959 C964 1.490 . S
C960 H950 0.930 . S
C960 C959 1.400 . S
C960 C963 1.386 . S
H961 C977 0.930 . S
H962 C978 0.931 . S
C963 H951 0.929 . S
C963 C957 1.390 . S
C963 C960 1.386 . S
C964 C959 1.490 . S
C964 C966 1.395 . S
C964 C967 1.403 . S
H965 C971 0.930 . S
C966 H952 0.930 . S
C966 C964 1.395 . S
C966 C969 1.403 . S
C967 C964 1.403 . S
C967 C968 1.524 . S
C967 C971 1.400 . S
C968 H953 0.960 . S
C968 H954 0.960 . S
C968 H955 0.960 . S
C968 C967 1.524 . S
C969 C966 1.403 . S
C969 C970 1.392 . S
C969 C973 1.495 . S
C970 C969 1.392 . S
C970 C971 1.385 . S
C970 C972 1.478 . S
C971 H965 0.930 . S
C971 C967 1.400 . S
C971 C970 1.385 . S
C972 C970 1.478 . S
C972 C974 1.381 . S
C972 C978 1.383 . S
C973 C969 1.495 . S
C973 H979 0.959 . S
C973 H980 0.961 . S
C973 H981 0.960 . S
C974 C972 1.381 . S
C974 C975 1.394 . S
C974 H982 0.930 . S
C975 C974 1.394 . S
C975 C976 1.383 . S
C975 H983 0.929 . S
C976 C975 1.383 . S
C976 C977 1.377 . S
C977 H961 0.930 . S
C977 C976 1.377 . S
C977 C978 1.379 . S
C978 H962 0.931 . S
C978 C972 1.383 . S
C978 C977 1.379 . S
H979 C973 0.959 . S
H980 C973 0.961 . S
H981 C973 0.960 . S
H982 C974 0.930 . S
H983 C975 0.929 . S
H984 C992 0.929 . S
H985 C994 0.930 . S
H986 C996 0.930 . S
H987 C999 0.929 . S
H988 C1002 0.930 . S
H989 C1004 0.960 . S
H990 C1004 0.960 . S
H991 C1004 0.960 . S
C992 H984 0.929 . S
C992 C993 1.377 . S
C992 C994 1.384 . S
C993 C992 1.377 . S
C993 C999 1.390 . S
C994 H985 0.930 . S
C994 C992 1.384 . S
C994 C995 1.372 . S
C995 C994 1.372 . S
C995 C996 1.400 . S
C995 C1000 1.490 . S
C996 H986 0.930 . S
C996 C995 1.400 . S
C996 C999 1.386 . S
H997 C1013 0.930 . S
H998 C1014 0.931 . S
C999 H987 0.929 . S
C999 C993 1.390 . S
C999 C996 1.386 . S
C1000 C995 1.490 . S
C1000 C1002 1.395 . S
C1000 C1003 1.403 . S
H1001 C1007 0.930 . S
C1002 H988 0.930 . S
C1002 C1000 1.395 . S
C1002 C1005 1.403 . S
C1003 C1000 1.403 . S
C1003 C1004 1.524 . S
C1003 C1007 1.400 . S
C1004 H989 0.960 . S
C1004 H990 0.960 . S
C1004 H991 0.960 . S
C1004 C1003 1.524 . S
C1005 C1002 1.403 . S
C1005 C1006 1.392 . S
C1005 C1009 1.495 . S
C1006 C1005 1.392 . S
C1006 C1007 1.385 . S
C1006 C1008 1.478 . S
C1007 H1001 0.930 . S
C1007 C1003 1.400 . S
C1007 C1006 1.385 . S
C1008 C1006 1.478 . S
C1008 C1010 1.381 . S
C1008 C1014 1.383 . S
C1009 C1005 1.495 . S
C1009 H1015 0.959 . S
C1009 H1016 0.961 . S
C1009 H1017 0.960 . S
C1010 C1008 1.381 . S
C1010 C1011 1.394 . S
C1010 H1018 0.930 . S
C1011 C1010 1.394 . S
C1011 C1012 1.383 . S
C1011 H1019 0.929 . S
C1012 C1011 1.383 . S
C1012 C1013 1.377 . S
C1013 H997 0.930 . S
C1013 C1012 1.377 . S
C1013 C1014 1.379 . S
C1014 H998 0.931 . S
C1014 C1008 1.383 . S
C1014 C1013 1.379 . S
H1015 C1009 0.959 . S
H1016 C1009 0.961 . S
H1017 C1009 0.960 . S
H1018 C1010 0.930 . S
H1019 C1011 0.929 . S
H1020 C1028 0.929 . S
H1021 C1030 0.930 . S
H1022 C1032 0.930 . S
H1023 C1035 0.929 . S
H1024 C1038 0.930 . S
H1025 C1040 0.960 . S
H1026 C1040 0.960 . S
H1027 C1040 0.960 . S
C1028 H1020 0.929 . S
C1028 C1029 1.377 . S
C1028 C1030 1.384 . S
C1029 C1028 1.377 . S
C1029 C1035 1.390 . S
C1030 H1021 0.930 . S
C1030 C1028 1.384 . S
C1030 C1031 1.372 . S
C1031 C1030 1.372 . S
C1031 C1032 1.400 . S
C1031 C1036 1.490 . S
C1032 H1022 0.930 . S
C1032 C1031 1.400 . S
C1032 C1035 1.386 . S
H1033 C1049 0.930 . S
H1034 C1050 0.931 . S
C1035 H1023 0.929 . S
C1035 C1029 1.390 . S
C1035 C1032 1.386 . S
C1036 C1031 1.490 . S
C1036 C1038 1.395 . S
C1036 C1039 1.403 . S
H1037 C1043 0.930 . S
C1038 H1024 0.930 . S
C1038 C1036 1.395 . S
C1038 C1041 1.403 . S
C1039 C1036 1.403 . S
C1039 C1040 1.524 . S
C1039 C1043 1.400 . S
C1040 H1025 0.960 . S
C1040 H1026 0.960 . S
C1040 H1027 0.960 . S
C1040 C1039 1.524 . S
C1041 C1038 1.403 . S
C1041 C1042 1.392 . S
C1041 C1045 1.495 . S
C1042 C1041 1.392 . S
C1042 C1043 1.385 . S
C1042 C1044 1.478 . S
C1043 H1037 0.930 . S
C1043 C1039 1.400 . S
C1043 C1042 1.385 . S
C1044 C1042 1.478 . S
C1044 C1046 1.381 . S
C1044 C1050 1.383 . S
C1045 C1041 1.495 . S
C1045 H1051 0.959 . S
C1045 H1052 0.961 . S
C1045 H1053 0.960 . S
C1046 C1044 1.381 . S
C1046 C1047 1.394 . S
C1046 H1054 0.930 . S
C1047 C1046 1.394 . S
C1047 C1048 1.383 . S
C1047 H1055 0.929 . S
C1048 C1047 1.383 . S
C1048 C1049 1.377 . S
C1049 H1033 0.930 . S
C1049 C1048 1.377 . S
C1049 C1050 1.379 . S
C1050 H1034 0.931 . S
C1050 C1044 1.383 . S
C1050 C1049 1.379 . S
H1051 C1045 0.959 . S
H1052 C1045 0.961 . S
H1053 C1045 0.960 . S
H1054 C1046 0.930 . S
H1055 C1047 0.929 . S
H1056 C1064 0.929 . S
H1057 C1066 0.930 . S
H1058 C1068 0.930 . S
H1059 C1071 0.929 . S
H1060 C1074 0.930 . S
H1061 C1076 0.960 . S
H1062 C1076 0.960 . S
H1063 C1076 0.960 . S
C1064 H1056 0.929 . S
C1064 C1065 1.377 . S
C1064 C1066 1.384 . S
C1065 C1064 1.377 . S
C1065 C1071 1.390 . S
C1066 H1057 0.930 . S
C1066 C1064 1.384 . S
C1066 C1067 1.372 . S
C1067 C1066 1.372 . S
C1067 C1068 1.400 . S
C1067 C1072 1.490 . S
C1068 H1058 0.930 . S
C1068 C1067 1.400 . S
C1068 C1071 1.386 . S
H1069 C1085 0.930 . S
H1070 C1086 0.931 . S
C1071 H1059 0.929 . S
C1071 C1065 1.390 . S
C1071 C1068 1.386 . S
C1072 C1067 1.490 . S
C1072 C1074 1.395 . S
C1072 C1075 1.403 . S
H1073 C1079 0.930 . S
C1074 H1060 0.930 . S
C1074 C1072 1.395 . S
C1074 C1077 1.403 . S
C1075 C1072 1.403 . S
C1075 C1076 1.524 . S
C1075 C1079 1.400 . S
C1076 H1061 0.960 . S
C1076 H1062 0.960 . S
C1076 H1063 0.960 . S
C1076 C1075 1.524 . S
C1077 C1074 1.403 . S
C1077 C1078 1.392 . S
C1077 C1081 1.495 . S
C1078 C1077 1.392 . S
C1078 C1079 1.385 . S
C1078 C1080 1.478 . S
C1079 H1073 0.930 . S
C1079 C1075 1.400 . S
C1079 C1078 1.385 . S
C1080 C1078 1.478 . S
C1080 C1082 1.381 . S
C1080 C1086 1.383 . S
C1081 C1077 1.495 . S
C1081 H1087 0.959 . S
C1081 H1088 0.961 . S
C1081 H1089 0.960 . S
C1082 C1080 1.381 . S
C1082 C1083 1.394 . S
C1082 H1090 0.930 . S
C1083 C1082 1.394 . S
C1083 C1084 1.383 . S
C1083 H1091 0.929 . S
C1084 C1083 1.383 . S
C1084 C1085 1.377 . S
C1085 H1069 0.930 . S
C1085 C1084 1.377 . S
C1085 C1086 1.379 . S
C1086 H1070 0.931 . S
C1086 C1080 1.383 . S
C1086 C1085 1.379 . S
H1087 C1081 0.959 . S
H1088 C1081 0.961 . S
H1089 C1081 0.960 . S
H1090 C1082 0.930 . S
H1091 C1083 0.929 . S
H1092 C1100 0.929 . S
H1093 C1102 0.930 . S
H1094 C1104 0.930 . S
H1095 C1107 0.929 . S
H1096 C1110 0.930 . S
H1097 C1112 0.960 . S
H1098 C1112 0.960 . S
H1099 C1112 0.960 . S
C1100 H1092 0.929 . S
C1100 C1101 1.377 . S
C1100 C1102 1.384 . S
C1101 C1100 1.377 . S
C1101 C1107 1.390 . S
C1102 H1093 0.930 . S
C1102 C1100 1.384 . S
C1102 C1103 1.372 . S
C1103 C1102 1.372 . S
C1103 C1104 1.400 . S
C1103 C1108 1.490 . S
C1104 H1094 0.930 . S
C1104 C1103 1.400 . S
C1104 C1107 1.386 . S
H1105 C1121 0.930 . S
H1106 C1122 0.931 . S
C1107 H1095 0.929 . S
C1107 C1101 1.390 . S
C1107 C1104 1.386 . S
C1108 C1103 1.490 . S
C1108 C1110 1.395 . S
C1108 C1111 1.403 . S
H1109 C1115 0.930 . S
C1110 H1096 0.930 . S
C1110 C1108 1.395 . S
C1110 C1113 1.403 . S
C1111 C1108 1.403 . S
C1111 C1112 1.524 . S
C1111 C1115 1.400 . S
C1112 H1097 0.960 . S
C1112 H1098 0.960 . S
C1112 H1099 0.960 . S
C1112 C1111 1.524 . S
C1113 C1110 1.403 . S
C1113 C1114 1.392 . S
C1113 C1117 1.495 . S
C1114 C1113 1.392 . S
C1114 C1115 1.385 . S
C1114 C1116 1.478 . S
C1115 H1109 0.930 . S
C1115 C1111 1.400 . S
C1115 C1114 1.385 . S
C1116 C1114 1.478 . S
C1116 C1118 1.381 . S
C1116 C1122 1.383 . S
C1117 C1113 1.495 . S
C1117 H1123 0.959 . S
C1117 H1124 0.961 . S
C1117 H1125 0.960 . S
C1118 C1116 1.381 . S
C1118 C1119 1.394 . S
C1118 H1126 0.930 . S
C1119 C1118 1.394 . S
C1119 C1120 1.383 . S
C1119 H1127 0.929 . S
C1120 C1119 1.383 . S
C1120 C1121 1.377 . S
C1121 H1105 0.930 . S
C1121 C1120 1.377 . S
C1121 C1122 1.379 . S
C1122 H1106 0.931 . S
C1122 C1116 1.383 . S
C1122 C1121 1.379 . S
H1123 C1117 0.959 . S
H1124 C1117 0.961 . S
H1125 C1117 0.960 . S
H1126 C1118 0.930 . S
H1127 C1119 0.929 . S
H1128 C1136 0.929 . S
H1129 C1138 0.930 . S
H1130 C1140 0.930 . S
H1131 C1143 0.929 . S
H1132 C1146 0.930 . S
H1133 C1148 0.960 . S
H1134 C1148 0.960 . S
H1135 C1148 0.960 . S
C1136 H1128 0.929 . S
C1136 C1137 1.377 . S
C1136 C1138 1.384 . S
C1137 C1136 1.377 . S
C1137 C1143 1.390 . S
C1138 H1129 0.930 . S
C1138 C1136 1.384 . S
C1138 C1139 1.372 . S
C1139 C1138 1.372 . S
C1139 C1140 1.400 . S
C1139 C1144 1.490 . S
C1140 H1130 0.930 . S
C1140 C1139 1.400 . S
C1140 C1143 1.386 . S
H1141 C1157 0.930 . S
H1142 C1158 0.931 . S
C1143 H1131 0.929 . S
C1143 C1137 1.390 . S
C1143 C1140 1.386 . S
C1144 C1139 1.490 . S
C1144 C1146 1.395 1_565 S
C1144 C1147 1.403 1_556 S
H1145 C1151 0.939 1_565 S
C1146 H1132 0.930 . S
C1146 C1144 1.395 1_545 S
C1146 C1149 1.403 . S
C1147 C1144 1.403 1_554 S
C1147 C1148 1.524 . S
C1147 C1151 1.395 1_565 S
C1148 H1133 0.960 . S
C1148 H1134 0.960 . S
C1148 H1135 0.960 . S
C1148 C1147 1.524 . S
C1149 C1146 1.403 . S
C1149 C1150 1.392 1_556 S
C1149 C1153 1.495 . S
C1150 C1149 1.392 1_554 S
C1150 C1151 1.388 . S
C1150 C1152 1.478 . S
C1151 H1145 0.939 1_545 S
C1151 C1147 1.395 1_545 S
C1151 C1150 1.388 . S
C1152 C1150 1.478 . S
C1152 C1154 1.381 . S
C1152 C1158 1.383 . S
C1153 C1149 1.495 . S
C1153 H1159 0.959 . S
C1153 H1160 0.961 . S
C1153 H1161 0.960 . S
C1154 C1152 1.381 . S
C1154 C1155 1.394 . S
C1154 H1162 0.930 . S
C1155 C1154 1.394 . S
C1155 C1156 1.383 . S
C1155 H1163 0.929 . S
C1156 C1155 1.383 . S
C1156 C1157 1.377 . S
C1157 H1141 0.930 . S
C1157 C1156 1.377 . S
C1157 C1158 1.379 . S
C1158 H1142 0.931 . S
C1158 C1152 1.383 . S
C1158 C1157 1.379 . S
H1159 C1153 0.959 . S
H1160 C1153 0.961 . S
H1161 C1153 0.960 . S
H1162 C1154 0.930 . S
H1163 C1155 0.929 . S
H1164 C1172 0.929 . S
H1165 C1174 0.930 . S
H1166 C1176 0.930 . S
H1167 C1179 0.929 . S
H1168 C1182 0.930 . S
H1169 C1184 0.960 . S
H1170 C1184 0.960 . S
H1171 C1184 0.960 . S
C1172 H1164 0.929 . S
C1172 C1173 1.377 . S
C1172 C1174 1.384 . S
C1173 C1172 1.377 . S
C1173 C1179 1.390 . S
C1174 H1165 0.930 . S
C1174 C1172 1.384 . S
C1174 C1175 1.372 . S
C1175 C1174 1.372 . S
C1175 C1176 1.400 . S
C1175 C1180 1.490 . S
C1176 H1166 0.930 . S
C1176 C1175 1.400 . S
C1176 C1179 1.386 . S
H1177 C1193 0.930 . S
H1178 C1194 0.931 . S
C1179 H1167 0.929 . S
C1179 C1173 1.390 . S
C1179 C1176 1.386 . S
C1180 C1175 1.490 . S
C1180 C1182 1.395 . S
C1180 C1183 1.403 . S
H1181 C1187 0.930 . S
C1182 H1168 0.930 . S
C1182 C1180 1.395 . S
C1182 C1185 1.403 . S
C1183 C1180 1.403 . S
C1183 C1184 1.524 . S
C1183 C1187 1.400 . S
C1184 H1169 0.960 . S
C1184 H1170 0.960 . S
C1184 H1171 0.960 . S
C1184 C1183 1.524 . S
C1185 C1182 1.403 . S
C1185 C1186 1.392 . S
C1185 C1189 1.495 . S
C1186 C1185 1.392 . S
C1186 C1187 1.385 . S
C1186 C1188 1.478 . S
C1187 H1181 0.930 . S
C1187 C1183 1.400 . S
C1187 C1186 1.385 . S
C1188 C1186 1.478 . S
C1188 C1190 1.381 . S
C1188 C1194 1.383 . S
C1189 C1185 1.495 . S
C1189 H1195 0.959 . S
C1189 H1196 0.961 . S
C1189 H1197 0.960 . S
C1190 C1188 1.381 . S
C1190 C1191 1.394 . S
C1190 H1198 0.930 . S
C1191 C1190 1.394 . S
C1191 C1192 1.383 . S
C1191 H1199 0.929 . S
C1192 C1191 1.383 . S
C1192 C1193 1.377 . S
C1193 H1177 0.930 . S
C1193 C1192 1.377 . S
C1193 C1194 1.379 . S
C1194 H1178 0.931 . S
C1194 C1188 1.383 . S
C1194 C1193 1.379 . S
H1195 C1189 0.959 . S
H1196 C1189 0.961 . S
H1197 C1189 0.960 . S
H1198 C1190 0.930 . S
H1199 C1191 0.929 . S
H1200 C1208 0.929 . S
H1201 C1210 0.930 . S
H1202 C1212 0.930 . S
H1203 C1215 0.929 . S
H1204 C1218 0.930 . S
H1205 C1220 0.960 1_655 S
H1206 C1220 0.960 . S
H1207 C1220 0.960 . S
C1208 H1200 0.929 . S
C1208 C1209 1.377 . S
C1208 C1210 1.384 . S
C1209 C1208 1.377 . S
C1209 C1215 1.390 . S
C1210 H1201 0.930 . S
C1210 C1208 1.384 . S
C1210 C1211 1.372 . S
C1211 C1210 1.372 . S
C1211 C1212 1.400 . S
C1211 C1216 1.490 . S
C1212 H1202 0.930 . S
C1212 C1211 1.400 . S
C1212 C1215 1.386 . S
H1213 C1229 0.930 . S
H1214 C1230 0.931 . S
C1215 H1203 0.929 . S
C1215 C1209 1.390 . S
C1215 C1212 1.386 . S
C1216 C1211 1.490 . S
C1216 C1218 1.395 . S
C1216 C1219 1.403 . S
H1217 C1223 0.930 . S
C1218 H1204 0.930 . S
C1218 C1216 1.395 . S
C1218 C1221 1.403 1_456 S
C1219 C1216 1.403 . S
C1219 C1220 1.524 . S
C1219 C1223 1.400 1_456 S
C1220 H1205 0.960 1_455 S
C1220 H1206 0.960 . S
C1220 H1207 0.960 . S
C1220 C1219 1.524 . S
C1221 C1218 1.403 1_654 S
C1221 C1222 1.392 . S
C1221 C1225 1.495 . S
C1222 C1221 1.392 . S
C1222 C1223 1.385 . S
C1222 C1224 1.478 . S
C1223 H1217 0.930 . S
C1223 C1219 1.400 1_654 S
C1223 C1222 1.385 . S
C1224 C1222 1.478 . S
C1224 C1226 1.381 . S
C1224 C1230 1.383 . S
C1225 C1221 1.495 . S
C1225 H1231 0.959 1_655 S
C1225 H1232 0.961 . S
C1225 H1233 0.960 . S
C1226 C1224 1.381 . S
C1226 C1227 1.394 . S
C1226 H1234 0.930 . S
C1227 C1226 1.394 . S
C1227 C1228 1.383 . S
C1227 H1235 0.929 . S
C1228 C1227 1.383 . S
C1228 C1229 1.377 . S
C1229 H1213 0.930 . S
C1229 C1228 1.377 . S
C1229 C1230 1.379 . S
C1230 H1214 0.931 . S
C1230 C1224 1.383 . S
C1230 C1229 1.379 . S
H1231 C1225 0.959 1_455 S
H1232 C1225 0.961 . S
H1233 C1225 0.960 . S
H1234 C1226 0.930 . S
H1235 C1227 0.929 . S
H1236 C1244 0.929 . S
H1237 C1246 0.930 . S
H1238 C1248 0.930 . S
H1239 C1251 0.929 . S
H1240 C1254 0.930 . S
H1241 C1256 0.960 . S
H1242 C1256 0.960 . S
H1243 C1256 0.960 . S
C1244 H1236 0.929 . S
C1244 C1245 1.377 . S
C1244 C1246 1.384 . S
C1245 C1244 1.377 . S
C1245 C1251 1.390 . S
C1246 H1237 0.930 . S
C1246 C1244 1.384 . S
C1246 C1247 1.372 . S
C1247 C1246 1.372 . S
C1247 C1248 1.400 . S
C1247 C1252 1.490 . S
C1248 H1238 0.930 . S
C1248 C1247 1.400 . S
C1248 C1251 1.386 . S
H1249 C1265 0.930 . S
H1250 C1266 0.931 . S
C1251 H1239 0.929 . S
C1251 C1245 1.390 . S
C1251 C1248 1.386 . S
C1252 C1247 1.490 . S
C1252 C1254 1.395 . S
C1252 C1255 1.403 1_545 S
H1253 C1259 0.930 . S
C1254 H1240 0.930 . S
C1254 C1252 1.395 . S
C1254 C1257 1.403 . S
C1255 C1252 1.403 1_565 S
C1255 C1256 1.524 . S
C1255 C1259 1.400 . S
C1256 H1241 0.960 . S
C1256 H1242 0.960 . S
C1256 H1243 0.960 . S
C1256 C1255 1.524 . S
C1257 C1254 1.403 . S
C1257 C1258 1.392 1_545 S
C1257 C1261 1.495 . S
C1258 C1257 1.392 1_565 S
C1258 C1259 1.385 . S
C1258 C1260 1.478 . S
C1259 H1253 0.930 . S
C1259 C1255 1.400 . S
C1259 C1258 1.385 . S
C1260 C1258 1.478 . S
C1260 C1262 1.381 . S
C1260 C1266 1.383 . S
C1261 C1257 1.495 . S
C1261 H1267 0.959 . S
C1261 H1268 0.961 . S
C1261 H1269 0.960 . S
C1262 C1260 1.381 . S
C1262 C1263 1.394 . S
C1262 H1270 0.930 . S
C1263 C1262 1.394 . S
C1263 C1264 1.383 . S
C1263 H1271 0.929 . S
C1264 C1263 1.383 . S
C1264 C1265 1.377 . S
C1265 H1249 0.930 . S
C1265 C1264 1.377 . S
C1265 C1266 1.379 . S
C1266 H1250 0.931 . S
C1266 C1260 1.383 . S
C1266 C1265 1.379 . S
H1267 C1261 0.959 . S
H1268 C1261 0.961 . S
H1269 C1261 0.960 . S
H1270 C1262 0.930 . S
H1271 C1263 0.929 . S
H1272 C1280 0.929 . S
H1273 C1282 0.930 . S
H1274 C1284 0.930 . S
H1275 C1287 0.929 . S
H1276 C1290 0.930 . S
H1277 C1292 0.960 1_556 S
H1278 C1292 0.960 . S
H1279 C1292 0.966 . S
C1280 H1272 0.929 . S
C1280 C1281 1.377 . S
C1280 C1282 1.384 . S
C1281 C1280 1.377 . S
C1281 C1287 1.390 . S
C1282 H1273 0.930 . S
C1282 C1280 1.384 . S
C1282 C1283 1.372 . S
C1283 C1282 1.372 . S
C1283 C1284 1.400 . S
C1283 C1288 1.490 . S
C1284 H1274 0.930 . S
C1284 C1283 1.400 . S
C1284 C1287 1.386 . S
H1285 C1301 0.930 . S
H1286 C1302 0.931 . S
C1287 H1275 0.929 . S
C1287 C1281 1.390 . S
C1287 C1284 1.386 . S
C1288 C1283 1.490 . S
C1288 C1290 1.395 . S
C1288 C1291 1.403 . S
H1289 C1295 0.930 . S
C1290 H1276 0.930 . S
C1290 C1288 1.395 . S
C1290 C1293 1.414 . S
C1291 C1288 1.403 . S
C1291 C1292 1.524 . S
C1291 C1295 1.400 1_554 S
C1292 H1277 0.960 1_554 S
C1292 H1278 0.960 . S
C1292 H1279 0.966 . S
C1292 C1291 1.524 . S
C1293 C1290 1.414 . S
C1293 C1294 1.382 1_554 S
C1293 C1297 1.495 1_554 S
C1294 C1293 1.382 1_556 S
C1294 C1295 1.385 . S
C1294 C1296 1.478 . S
C1295 H1289 0.930 . S
C1295 C1291 1.400 1_556 S
C1295 C1294 1.385 . S
C1296 C1294 1.478 . S
C1296 C1298 1.381 . S
C1296 C1302 1.383 . S
C1297 C1293 1.495 1_556 S
C1297 H1303 0.960 1_556 S
C1297 H1304 0.960 . S
C1297 H1305 0.960 1_556 S
C1298 C1296 1.381 . S
C1298 C1299 1.394 . S
C1298 H1306 0.930 . S
C1299 C1298 1.394 . S
C1299 C1300 1.383 . S
C1299 H1307 0.929 . S
C1300 C1299 1.383 . S
C1300 C1301 1.377 . S
C1301 H1285 0.930 . S
C1301 C1300 1.377 . S
C1301 C1302 1.379 . S
C1302 H1286 0.931 . S
C1302 C1296 1.383 . S
C1302 C1301 1.379 . S
H1303 C1297 0.960 1_554 S
H1304 C1297 0.960 . S
H1305 C1297 0.960 1_554 S
H1306 C1298 0.930 . S
H1307 C1299 0.929 . S
H1308 C1316 0.929 . S
H1309 C1318 0.930 . S
H1310 C1320 0.930 . S
H1311 C1323 0.929 . S
H1312 C1326 0.930 . S
H1313 C1328 0.960 . S
H1314 C1328 0.960 . S
H1315 C1328 0.960 . S
C1316 H1308 0.929 . S
C1316 C1317 1.377 . S
C1316 C1318 1.384 . S
C1317 C1316 1.377 . S
C1317 C1323 1.390 . S
C1318 H1309 0.930 . S
C1318 C1316 1.384 . S
C1318 C1319 1.372 . S
C1319 C1318 1.372 . S
C1319 C1320 1.400 . S
C1319 C1324 1.490 . S
C1320 H1310 0.930 . S
C1320 C1319 1.400 . S
C1320 C1323 1.386 . S
H1321 C1337 0.930 . S
H1322 C1338 0.931 . S
C1323 H1311 0.929 . S
C1323 C1317 1.390 . S
C1323 C1320 1.386 . S
C1324 C1319 1.490 . S
C1324 C1326 1.395 1_455 S
C1324 C1327 1.403 . S
H1325 C1331 0.930 . S
C1326 H1312 0.930 . S
C1326 C1324 1.395 1_655 S
C1326 C1329 1.403 . S
C1327 C1324 1.403 . S
C1327 C1328 1.524 . S
C1327 C1331 1.400 . S
C1328 H1313 0.960 . S
C1328 H1314 0.960 . S
C1328 H1315 0.960 . S
C1328 C1327 1.524 . S
C1329 C1326 1.403 . S
C1329 C1330 1.392 . S
C1329 C1333 1.495 . S
C1330 C1329 1.392 . S
C1330 C1331 1.385 1_655 S
C1330 C1332 1.478 . S
C1331 H1325 0.930 . S
C1331 C1327 1.400 . S
C1331 C1330 1.385 1_455 S
C1332 C1330 1.478 . S
C1332 C1334 1.381 . S
C1332 C1338 1.383 . S
C1333 C1329 1.495 . S
C1333 H1339 0.959 . S
C1333 H1340 0.961 . S
C1333 H1341 0.960 . S
C1334 C1332 1.381 . S
C1334 C1335 1.394 . S
C1334 H1342 0.930 . S
C1335 C1334 1.394 . S
C1335 C1336 1.383 . S
C1335 H1343 0.929 . S
C1336 C1335 1.383 . S
C1336 C1337 1.377 . S
C1337 H1321 0.930 . S
C1337 C1336 1.377 . S
C1337 C1338 1.379 . S
C1338 H1322 0.931 . S
C1338 C1332 1.383 . S
C1338 C1337 1.379 . S
H1339 C1333 0.959 . S
H1340 C1333 0.961 . S
H1341 C1333 0.960 . S
H1342 C1334 0.930 . S
H1343 C1335 0.929 . S
H1344 C1352 0.929 . S
H1345 C1354 0.930 . S
H1346 C1356 0.930 . S
H1347 C1359 0.929 . S
H1348 C1362 0.930 . S
H1349 C1364 0.960 . S
H1350 C1364 0.960 . S
H1351 C1364 0.960 . S
C1352 H1344 0.929 . S
C1352 C1353 1.377 . S
C1352 C1354 1.384 . S
C1353 C1352 1.377 . S
C1353 C1359 1.390 . S
C1354 H1345 0.930 . S
C1354 C1352 1.384 . S
C1354 C1355 1.372 . S
C1355 C1354 1.372 . S
C1355 C1356 1.400 . S
C1355 C1360 1.490 . S
C1356 H1346 0.930 . S
C1356 C1355 1.400 . S
C1356 C1359 1.386 . S
H1357 C1373 0.930 . S
H1358 C1374 0.931 . S
C1359 H1347 0.929 . S
C1359 C1353 1.390 . S
C1359 C1356 1.386 . S
C1360 C1355 1.490 . S
C1360 C1362 1.395 . S
C1360 C1363 1.403 . S
H1361 C1367 0.930 . S
C1362 H1348 0.930 . S
C1362 C1360 1.395 . S
C1362 C1365 1.403 . S
C1363 C1360 1.403 . S
C1363 C1364 1.524 . S
C1363 C1367 1.400 . S
C1364 H1349 0.960 . S
C1364 H1350 0.960 . S
C1364 H1351 0.960 . S
C1364 C1363 1.524 . S
C1365 C1362 1.403 . S
C1365 C1366 1.392 . S
C1365 C1369 1.495 . S
C1366 C1365 1.392 . S
C1366 C1367 1.385 . S
C1366 C1368 1.478 . S
C1367 H1361 0.930 . S
C1367 C1363 1.400 . S
C1367 C1366 1.385 . S
C1368 C1366 1.478 . S
C1368 C1370 1.381 . S
C1368 C1374 1.383 . S
C1369 C1365 1.495 . S
C1369 H1375 0.959 . S
C1369 H1376 0.961 . S
C1369 H1377 0.960 . S
C1370 C1368 1.381 . S
C1370 C1371 1.394 . S
C1370 H1378 0.930 . S
C1371 C1370 1.394 . S
C1371 C1372 1.383 . S
C1371 H1379 0.929 . S
C1372 C1371 1.383 . S
C1372 C1373 1.377 . S
C1373 H1357 0.930 . S
C1373 C1372 1.377 . S
C1373 C1374 1.379 . S
C1374 H1358 0.931 . S
C1374 C1368 1.383 . S
C1374 C1373 1.379 . S
H1375 C1369 0.959 . S
H1376 C1369 0.961 . S
H1377 C1369 0.960 . S
H1378 C1370 0.930 . S
H1379 C1371 0.929 . S
H1380 C1388 0.929 . S
H1381 C1390 0.930 . S
H1382 C1392 0.930 . S
H1383 C1395 0.929 . S
H1384 C1398 0.930 . S
H1385 C1400 0.960 . S
H1386 C1400 0.960 . S
H1387 C1400 0.960 . S
C1388 H1380 0.929 . S
C1388 C1389 1.377 . S
C1388 C1390 1.384 . S
C1389 C1388 1.377 . S
C1389 C1395 1.390 . S
C1390 H1381 0.930 . S
C1390 C1388 1.384 . S
C1390 C1391 1.372 . S
C1391 C1390 1.372 . S
C1391 C1392 1.400 . S
C1391 C1396 1.490 . S
C1392 H1382 0.930 . S
C1392 C1391 1.400 . S
C1392 C1395 1.386 . S
H1393 C1409 0.930 . S
H1394 C1410 0.931 . S
C1395 H1383 0.929 . S
C1395 C1389 1.390 . S
C1395 C1392 1.386 . S
C1396 C1391 1.490 . S
C1396 C1398 1.395 . S
C1396 C1399 1.403 . S
H1397 C1403 0.930 . S
C1398 H1384 0.930 . S
C1398 C1396 1.395 . S
C1398 C1401 1.403 . S
C1399 C1396 1.403 . S
C1399 C1400 1.524 . S
C1399 C1403 1.400 . S
C1400 H1385 0.960 . S
C1400 H1386 0.960 . S
C1400 H1387 0.960 . S
C1400 C1399 1.524 . S
C1401 C1398 1.403 . S
C1401 C1402 1.392 . S
C1401 C1405 1.495 . S
C1402 C1401 1.392 . S
C1402 C1403 1.385 . S
C1402 C1404 1.478 . S
C1403 H1397 0.930 . S
C1403 C1399 1.400 . S
C1403 C1402 1.385 . S
C1404 C1402 1.478 . S
C1404 C1406 1.381 . S
C1404 C1410 1.383 . S
C1405 C1401 1.495 . S
C1405 H1411 0.959 . S
C1405 H1412 0.961 . S
C1405 H1413 0.960 . S
C1406 C1404 1.381 . S
C1406 C1407 1.394 . S
C1406 H1414 0.930 . S
C1407 C1406 1.394 . S
C1407 C1408 1.383 . S
C1407 H1415 0.929 . S
C1408 C1407 1.383 . S
C1408 C1409 1.377 . S
C1409 H1393 0.930 . S
C1409 C1408 1.377 . S
C1409 C1410 1.379 . S
C1410 H1394 0.931 . S
C1410 C1404 1.383 . S
C1410 C1409 1.379 . S
H1411 C1405 0.959 . S
H1412 C1405 0.961 . S
H1413 C1405 0.960 . S
H1414 C1406 0.930 . S
H1415 C1407 0.929 . S
H1416 C1424 0.929 . S
H1417 C1426 0.930 . S
H1418 C1428 0.930 . S
H1419 C1431 0.929 . S
H1420 C1434 0.930 . S
H1421 C1436 0.960 . S
H1422 C1436 0.960 . S
H1423 C1436 0.960 . S
C1424 H1416 0.929 . S
C1424 C1425 1.377 . S
C1424 C1426 1.384 . S
C1425 C1424 1.377 . S
C1425 C1431 1.390 . S
C1426 H1417 0.930 . S
C1426 C1424 1.384 . S
C1426 C1427 1.372 . S
C1427 C1426 1.372 . S
C1427 C1428 1.400 . S
C1427 C1432 1.490 . S
C1428 H1418 0.930 . S
C1428 C1427 1.400 . S
C1428 C1431 1.386 . S
H1429 C1445 0.930 . S
H1430 C1446 0.931 . S
C1431 H1419 0.929 . S
C1431 C1425 1.390 . S
C1431 C1428 1.386 . S
C1432 C1427 1.490 . S
C1432 C1434 1.395 . S
C1432 C1435 1.403 . S
H1433 C1439 0.930 . S
C1434 H1420 0.930 . S
C1434 C1432 1.395 . S
C1434 C1437 1.403 . S
C1435 C1432 1.403 . S
C1435 C1436 1.524 . S
C1435 C1439 1.400 . S
C1436 H1421 0.960 . S
C1436 H1422 0.960 . S
C1436 H1423 0.960 . S
C1436 C1435 1.524 . S
C1437 C1434 1.403 . S
C1437 C1438 1.392 . S
C1437 C1441 1.495 . S
C1438 C1437 1.392 . S
C1438 C1439 1.385 . S
C1438 C1440 1.478 . S
C1439 H1433 0.930 . S
C1439 C1435 1.400 . S
C1439 C1438 1.385 . S
C1440 C1438 1.478 . S
C1440 C1442 1.381 . S
C1440 C1446 1.383 . S
C1441 C1437 1.495 . S
C1441 H1447 0.959 . S
C1441 H1448 0.961 . S
C1441 H1449 0.960 . S
C1442 C1440 1.381 . S
C1442 C1443 1.394 . S
C1442 H1450 0.930 . S
C1443 C1442 1.394 . S
C1443 C1444 1.383 . S
C1443 H1451 0.929 . S
C1444 C1443 1.383 . S
C1444 C1445 1.377 . S
C1445 H1429 0.930 . S
C1445 C1444 1.377 . S
C1445 C1446 1.379 . S
C1446 H1430 0.931 . S
C1446 C1440 1.383 . S
C1446 C1445 1.379 . S
H1447 C1441 0.959 . S
H1448 C1441 0.961 . S
H1449 C1441 0.960 . S
H1450 C1442 0.930 . S
H1451 C1443 0.929 . S
H1452 C1460 0.929 . S
H1453 C1462 0.930 . S
H1454 C1464 0.930 . S
H1455 C1467 0.929 . S
H1456 C1470 0.930 . S
H1457 C1472 0.960 . S
H1458 C1472 0.960 . S
H1459 C1472 0.960 . S
C1460 H1452 0.929 . S
C1460 C1461 1.377 . S
C1460 C1462 1.384 . S
C1461 C1460 1.377 . S
C1461 C1467 1.390 . S
C1462 H1453 0.930 . S
C1462 C1460 1.384 . S
C1462 C1463 1.372 . S
C1463 C1462 1.372 . S
C1463 C1464 1.400 . S
C1463 C1468 1.490 . S
C1464 H1454 0.930 . S
C1464 C1463 1.400 . S
C1464 C1467 1.386 . S
H1465 C1481 0.930 . S
H1466 C1482 0.931 . S
C1467 H1455 0.929 . S
C1467 C1461 1.390 . S
C1467 C1464 1.386 . S
C1468 C1463 1.490 . S
C1468 C1470 1.395 . S
C1468 C1471 1.403 . S
H1469 C1475 0.930 . S
C1470 H1456 0.930 . S
C1470 C1468 1.395 . S
C1470 C1473 1.403 . S
C1471 C1468 1.403 . S
C1471 C1472 1.524 . S
C1471 C1475 1.400 . S
C1472 H1457 0.960 . S
C1472 H1458 0.960 . S
C1472 H1459 0.960 . S
C1472 C1471 1.524 . S
C1473 C1470 1.403 . S
C1473 C1474 1.392 . S
C1473 C1477 1.495 . S
C1474 C1473 1.392 . S
C1474 C1475 1.385 . S
C1474 C1476 1.478 . S
C1475 H1469 0.930 . S
C1475 C1471 1.400 . S
C1475 C1474 1.385 . S
C1476 C1474 1.478 . S
C1476 C1478 1.381 . S
C1476 C1482 1.383 . S
C1477 C1473 1.495 . S
C1477 H1483 0.959 . S
C1477 H1484 0.961 . S
C1477 H1485 0.960 . S
C1478 C1476 1.381 . S
C1478 C1479 1.394 . S
C1478 H1486 0.930 . S
C1479 C1478 1.394 . S
C1479 C1480 1.383 . S
C1479 H1487 0.929 . S
C1480 C1479 1.383 . S
C1480 C1481 1.377 . S
C1481 H1465 0.930 . S
C1481 C1480 1.377 . S
C1481 C1482 1.379 . S
C1482 H1466 0.931 . S
C1482 C1476 1.383 . S
C1482 C1481 1.379 . S
H1483 C1477 0.959 . S
H1484 C1477 0.961 . S
H1485 C1477 0.960 . S
H1486 C1478 0.930 . S
H1487 C1479 0.929 . S
H1488 C1496 0.929 . S
H1489 C1498 0.930 . S
H1490 C1500 0.930 . S
H1491 C1503 0.929 . S
H1492 C1506 0.930 . S
H1493 C1508 0.960 . S
H1494 C1508 0.960 . S
H1495 C1508 0.960 . S
C1496 H1488 0.929 . S
C1496 C1497 1.377 . S
C1496 C1498 1.384 . S
C1497 C1496 1.377 . S
C1497 C1503 1.390 . S
C1498 H1489 0.930 . S
C1498 C1496 1.384 . S
C1498 C1499 1.372 . S
C1499 C1498 1.372 . S
C1499 C1500 1.400 . S
C1499 C1504 1.490 . S
C1500 H1490 0.930 . S
C1500 C1499 1.400 . S
C1500 C1503 1.386 . S
H1501 C1517 0.930 . S
H1502 C1518 0.931 . S
C1503 H1491 0.929 . S
C1503 C1497 1.390 . S
C1503 C1500 1.386 . S
C1504 C1499 1.490 . S
C1504 C1506 1.395 . S
C1504 C1507 1.403 . S
H1505 C1511 0.930 . S
C1506 H1492 0.930 . S
C1506 C1504 1.395 . S
C1506 C1509 1.403 . S
C1507 C1504 1.403 . S
C1507 C1508 1.524 . S
C1507 C1511 1.400 . S
C1508 H1493 0.960 . S
C1508 H1494 0.960 . S
C1508 H1495 0.960 . S
C1508 C1507 1.524 . S
C1509 C1506 1.403 . S
C1509 C1510 1.392 . S
C1509 C1513 1.495 . S
C1510 C1509 1.392 . S
C1510 C1511 1.385 . S
C1510 C1512 1.478 . S
C1511 H1505 0.930 . S
C1511 C1507 1.400 . S
C1511 C1510 1.385 . S
C1512 C1510 1.478 . S
C1512 C1514 1.381 . S
C1512 C1518 1.383 . S
C1513 C1509 1.495 . S
C1513 H1519 0.959 . S
C1513 H1520 0.961 . S
C1513 H1521 0.960 . S
C1514 C1512 1.381 . S
C1514 C1515 1.394 . S
C1514 H1522 0.930 . S
C1515 C1514 1.394 . S
C1515 C1516 1.383 . S
C1515 H1523 0.929 . S
C1516 C1515 1.383 . S
C1516 C1517 1.377 . S
C1517 H1501 0.930 . S
C1517 C1516 1.377 . S
C1517 C1518 1.379 . S
C1518 H1502 0.931 . S
C1518 C1512 1.383 . S
C1518 C1517 1.379 . S
H1519 C1513 0.959 . S
H1520 C1513 0.961 . S
H1521 C1513 0.960 . S
H1522 C1514 0.930 . S
H1523 C1515 0.929 . S
H1524 C1532 0.929 . S
H1525 C1534 0.930 . S
H1526 C1536 0.930 . S
H1527 C1539 0.929 . S
H1528 C1542 0.930 . S
H1529 C1544 0.960 . S
H1530 C1544 0.960 . S
H1531 C1544 0.960 . S
C1532 H1524 0.929 . S
C1532 C1533 1.377 . S
C1532 C1534 1.384 . S
C1533 C1532 1.377 . S
C1533 C1539 1.390 . S
C1534 H1525 0.930 . S
C1534 C1532 1.384 . S
C1534 C1535 1.372 . S
C1535 C1534 1.372 . S
C1535 C1536 1.400 . S
C1535 C1540 1.490 . S
C1536 H1526 0.930 . S
C1536 C1535 1.400 . S
C1536 C1539 1.386 . S
H1537 C1553 0.930 . S
H1538 C1554 0.931 . S
C1539 H1527 0.929 . S
C1539 C1533 1.390 . S
C1539 C1536 1.386 . S
C1540 C1535 1.490 . S
C1540 C1542 1.395 . S
C1540 C1543 1.403 . S
H1541 C1547 0.930 . S
C1542 H1528 0.930 . S
C1542 C1540 1.395 . S
C1542 C1545 1.403 . S
C1543 C1540 1.403 . S
C1543 C1544 1.524 . S
C1543 C1547 1.400 . S
C1544 H1529 0.960 . S
C1544 H1530 0.960 . S
C1544 H1531 0.960 . S
C1544 C1543 1.524 . S
C1545 C1542 1.403 . S
C1545 C1546 1.392 . S
C1545 C1549 1.495 . S
C1546 C1545 1.392 . S
C1546 C1547 1.385 . S
C1546 C1548 1.478 . S
C1547 H1541 0.930 . S
C1547 C1543 1.400 . S
C1547 C1546 1.385 . S
C1548 C1546 1.478 . S
C1548 C1550 1.381 . S
C1548 C1554 1.383 . S
C1549 C1545 1.495 . S
C1549 H1555 0.959 . S
C1549 H1556 0.961 . S
C1549 H1557 0.960 . S
C1550 C1548 1.381 . S
C1550 C1551 1.394 . S
C1550 H1558 0.930 . S
C1551 C1550 1.394 . S
C1551 C1552 1.383 . S
C1551 H1559 0.929 . S
C1552 C1551 1.383 . S
C1552 C1553 1.377 . S
C1553 H1537 0.930 . S
C1553 C1552 1.377 . S
C1553 C1554 1.379 . S
C1554 H1538 0.931 . S
C1554 C1548 1.383 . S
C1554 C1553 1.379 . S
H1555 C1549 0.959 . S
H1556 C1549 0.961 . S
H1557 C1549 0.960 . S
H1558 C1550 0.930 . S
H1559 C1551 0.929 . S
H1560 C1568 0.929 . S
H1561 C1570 0.930 . S
H1562 C1572 0.930 . S
H1563 C1575 0.929 . S
H1564 C1578 0.930 . S
H1565 C1580 0.960 . S
H1566 C1580 0.960 . S
H1567 C1580 0.960 . S
C1568 H1560 0.929 . S
C1568 C1569 1.377 . S
C1568 C1570 1.384 . S
C1569 C1568 1.377 . S
C1569 C1575 1.390 . S
C1570 H1561 0.930 . S
C1570 C1568 1.384 . S
C1570 C1571 1.372 . S
C1571 C1570 1.372 . S
C1571 C1572 1.400 . S
C1571 C1576 1.490 . S
C1572 H1562 0.930 . S
C1572 C1571 1.400 . S
C1572 C1575 1.386 . S
H1573 C1589 0.930 . S
H1574 C1590 0.931 . S
C1575 H1563 0.929 . S
C1575 C1569 1.390 . S
C1575 C1572 1.386 . S
C1576 C1571 1.490 . S
C1576 C1578 1.395 . S
C1576 C1579 1.403 . S
H1577 C1583 0.930 . S
C1578 H1564 0.930 . S
C1578 C1576 1.395 . S
C1578 C1581 1.403 . S
C1579 C1576 1.403 . S
C1579 C1580 1.524 . S
C1579 C1583 1.400 . S
C1580 H1565 0.960 . S
C1580 H1566 0.960 . S
C1580 H1567 0.960 . S
C1580 C1579 1.524 . S
C1581 C1578 1.403 . S
C1581 C1582 1.392 . S
C1581 C1585 1.495 . S
C1582 C1581 1.392 . S
C1582 C1583 1.385 . S
C1582 C1584 1.478 . S
C1583 H1577 0.930 . S
C1583 C1579 1.400 . S
C1583 C1582 1.385 . S
C1584 C1582 1.478 . S
C1584 C1586 1.381 . S
C1584 C1590 1.383 . S
C1585 C1581 1.495 . S
C1585 H1591 0.959 . S
C1585 H1592 0.961 . S
C1585 H1593 0.960 . S
C1586 C1584 1.381 . S
C1586 C1587 1.394 . S
C1586 H1594 0.930 . S
C1587 C1586 1.394 . S
C1587 C1588 1.383 . S
C1587 H1595 0.929 . S
C1588 C1587 1.383 . S
C1588 C1589 1.377 . S
C1589 H1573 0.930 . S
C1589 C1588 1.377 . S
C1589 C1590 1.379 . S
C1590 H1574 0.931 . S
C1590 C1584 1.383 . S
C1590 C1589 1.379 . S
H1591 C1585 0.959 . S
H1592 C1585 0.961 . S
H1593 C1585 0.960 . S
H1594 C1586 0.930 . S
H1595 C1587 0.929 . S
H1596 C1604 0.929 . S
H1597 C1606 0.930 . S
H1598 C1608 0.930 . S
H1599 C1611 0.929 . S
H1600 C1614 0.930 . S
H1601 C1616 0.960 . S
H1602 C1616 0.960 . S
H1603 C1616 0.960 . S
C1604 H1596 0.929 . S
C1604 C1605 1.377 . S
C1604 C1606 1.384 . S
C1605 C1604 1.377 . S
C1605 C1611 1.390 . S
C1606 H1597 0.930 . S
C1606 C1604 1.384 . S
C1606 C1607 1.372 . S
C1607 C1606 1.372 . S
C1607 C1608 1.400 . S
C1607 C1612 1.490 . S
C1608 H1598 0.930 . S
C1608 C1607 1.400 . S
C1608 C1611 1.386 . S
H1609 C1625 0.930 . S
H1610 C1626 0.931 . S
C1611 H1599 0.929 . S
C1611 C1605 1.390 . S
C1611 C1608 1.386 . S
C1612 C1607 1.490 . S
C1612 C1614 1.395 . S
C1612 C1615 1.403 . S
H1613 C1619 0.930 . S
C1614 H1600 0.930 . S
C1614 C1612 1.395 . S
C1614 C1617 1.403 . S
C1615 C1612 1.403 . S
C1615 C1616 1.524 . S
C1615 C1619 1.400 . S
C1616 H1601 0.960 . S
C1616 H1602 0.960 . S
C1616 H1603 0.960 . S
C1616 C1615 1.524 . S
C1617 C1614 1.403 . S
C1617 C1618 1.392 . S
C1617 C1621 1.495 . S
C1618 C1617 1.392 . S
C1618 C1619 1.385 . S
C1618 C1620 1.478 . S
C1619 H1613 0.930 . S
C1619 C1615 1.400 . S
C1619 C1618 1.385 . S
C1620 C1618 1.478 . S
C1620 C1622 1.381 . S
C1620 C1626 1.383 . S
C1621 C1617 1.495 . S
C1621 H1627 0.959 . S
C1621 H1628 0.961 . S
C1621 H1629 0.960 . S
C1622 C1620 1.381 . S
C1622 C1623 1.394 . S
C1622 H1630 0.930 . S
C1623 C1622 1.394 . S
C1623 C1624 1.383 . S
C1623 H1631 0.929 . S
C1624 C1623 1.383 . S
C1624 C1625 1.377 . S
C1625 H1609 0.930 . S
C1625 C1624 1.377 . S
C1625 C1626 1.379 . S
C1626 H1610 0.931 . S
C1626 C1620 1.383 . S
C1626 C1625 1.379 . S
H1627 C1621 0.959 . S
H1628 C1621 0.961 . S
H1629 C1621 0.960 . S
H1630 C1622 0.930 . S
H1631 C1623 0.929 . S
H1632 C1640 0.929 . S
H1633 C1642 0.930 . S
H1634 C1644 0.930 . S
H1635 C1647 0.929 . S
H1636 C1650 0.930 . S
H1637 C1652 0.960 . S
H1638 C1652 0.960 . S
H1639 C1652 0.960 . S
C1640 H1632 0.929 . S
C1640 C1641 1.377 . S
C1640 C1642 1.384 . S
C1641 C1640 1.377 . S
C1641 C1647 1.390 . S
C1642 H1633 0.930 . S
C1642 C1640 1.384 . S
C1642 C1643 1.372 . S
C1643 C1642 1.372 . S
C1643 C1644 1.400 . S
C1643 C1648 1.490 . S
C1644 H1634 0.930 . S
C1644 C1643 1.400 . S
C1644 C1647 1.386 . S
H1645 C1661 0.930 . S
H1646 C1662 0.931 . S
C1647 H1635 0.929 . S
C1647 C1641 1.390 . S
C1647 C1644 1.386 . S
C1648 C1643 1.490 . S
C1648 C1650 1.395 . S
C1648 C1651 1.403 . S
H1649 C1655 0.930 . S
C1650 H1636 0.930 . S
C1650 C1648 1.395 . S
C1650 C1653 1.403 . S
C1651 C1648 1.403 . S
C1651 C1652 1.524 . S
C1651 C1655 1.400 . S
C1652 H1637 0.960 . S
C1652 H1638 0.960 . S
C1652 H1639 0.960 . S
C1652 C1651 1.524 . S
C1653 C1650 1.403 . S
C1653 C1654 1.392 . S
C1653 C1657 1.495 . S
C1654 C1653 1.392 . S
C1654 C1655 1.385 . S
C1654 C1656 1.478 . S
C1655 H1649 0.930 . S
C1655 C1651 1.400 . S
C1655 C1654 1.385 . S
C1656 C1654 1.478 . S
C1656 C1658 1.381 . S
C1656 C1662 1.383 . S
C1657 C1653 1.495 . S
C1657 H1663 0.959 . S
C1657 H1664 0.961 . S
C1657 H1665 0.960 . S
C1658 C1656 1.381 . S
C1658 C1659 1.394 . S
C1658 H1666 0.930 . S
C1659 C1658 1.394 . S
C1659 C1660 1.383 . S
C1659 H1667 0.929 . S
C1660 C1659 1.383 . S
C1660 C1661 1.377 . S
C1661 H1645 0.930 . S
C1661 C1660 1.377 . S
C1661 C1662 1.379 . S
C1662 H1646 0.931 . S
C1662 C1656 1.383 . S
C1662 C1661 1.379 . S
H1663 C1657 0.959 . S
H1664 C1657 0.961 . S
H1665 C1657 0.960 . S
H1666 C1658 0.930 . S
H1667 C1659 0.929 . S
H1668 C1676 0.929 . S
H1669 C1678 0.930 . S
H1670 C1680 0.930 . S
H1671 C1683 0.929 . S
H1672 C1686 0.930 . S
H1673 C1688 0.960 . S
H1674 C1688 0.960 . S
H1675 C1688 0.960 . S
C1676 H1668 0.929 . S
C1676 C1677 1.377 . S
C1676 C1678 1.384 . S
C1677 C1676 1.377 . S
C1677 C1683 1.390 . S
C1678 H1669 0.930 . S
C1678 C1676 1.384 . S
C1678 C1679 1.372 . S
C1679 C1678 1.372 . S
C1679 C1680 1.400 . S
C1679 C1684 1.490 . S
C1680 H1670 0.930 . S
C1680 C1679 1.400 . S
C1680 C1683 1.386 . S
H1681 C1697 0.930 . S
H1682 C1698 0.931 . S
C1683 H1671 0.929 . S
C1683 C1677 1.390 . S
C1683 C1680 1.386 . S
C1684 C1679 1.490 . S
C1684 C1686 1.395 . S
C1684 C1687 1.403 . S
H1685 C1691 0.930 . S
C1686 H1672 0.930 . S
C1686 C1684 1.395 . S
C1686 C1689 1.403 . S
C1687 C1684 1.403 . S
C1687 C1688 1.524 . S
C1687 C1691 1.400 . S
C1688 H1673 0.960 . S
C1688 H1674 0.960 . S
C1688 H1675 0.960 . S
C1688 C1687 1.524 . S
C1689 C1686 1.403 . S
C1689 C1690 1.392 . S
C1689 C1693 1.495 . S
C1690 C1689 1.392 . S
C1690 C1691 1.385 . S
C1690 C1692 1.478 . S
C1691 H1685 0.930 . S
C1691 C1687 1.400 . S
C1691 C1690 1.385 . S
C1692 C1690 1.478 . S
C1692 C1694 1.381 . S
C1692 C1698 1.383 . S
C1693 C1689 1.495 . S
C1693 H1699 0.959 . S
C1693 H1700 0.961 . S
C1693 H1701 0.960 . S
C1694 C1692 1.381 . S
C1694 C1695 1.394 . S
C1694 H1702 0.930 . S
C1695 C1694 1.394 . S
C1695 C1696 1.383 . S
C1695 H1703 0.929 . S
C1696 C1695 1.383 . S
C1696 C1697 1.377 . S
C1697 H1681 0.930 . S
C1697 C1696 1.377 . S
C1697 C1698 1.379 . S
C1698 H1682 0.931 . S
C1698 C1692 1.383 . S
C1698 C1697 1.379 . S
H1699 C1693 0.959 . S
H1700 C1693 0.961 . S
H1701 C1693 0.960 . S
H1702 C1694 0.930 . S
H1703 C1695 0.929 . S
H1704 C1712 0.929 . S
H1705 C1714 0.930 . S
H1706 C1716 0.930 . S
H1707 C1719 0.929 . S
H1708 C1722 0.930 . S
H1709 C1724 0.960 . S
H1710 C1724 0.960 . S
H1711 C1724 0.960 . S
C1712 H1704 0.929 . S
C1712 C1713 1.377 . S
C1712 C1714 1.384 . S
C1713 C1712 1.377 . S
C1713 C1719 1.390 . S
C1714 H1705 0.930 . S
C1714 C1712 1.384 . S
C1714 C1715 1.372 . S
C1715 C1714 1.372 . S
C1715 C1716 1.400 . S
C1715 C1720 1.490 . S
C1716 H1706 0.930 . S
C1716 C1715 1.400 . S
C1716 C1719 1.386 . S
H1717 C1733 0.930 . S
H1718 C1734 0.931 . S
C1719 H1707 0.929 . S
C1719 C1713 1.390 . S
C1719 C1716 1.386 . S
C1720 C1715 1.490 . S
C1720 C1722 1.395 . S
C1720 C1723 1.403 . S
H1721 C1727 0.930 . S
C1722 H1708 0.930 . S
C1722 C1720 1.395 . S
C1722 C1725 1.403 . S
C1723 C1720 1.403 . S
C1723 C1724 1.524 . S
C1723 C1727 1.400 . S
C1724 H1709 0.960 . S
C1724 H1710 0.960 . S
C1724 H1711 0.960 . S
C1724 C1723 1.524 . S
C1725 C1722 1.403 . S
C1725 C1726 1.392 . S
C1725 C1729 1.495 . S
C1726 C1725 1.392 . S
C1726 C1727 1.385 . S
C1726 C1728 1.478 . S
C1727 H1721 0.930 . S
C1727 C1723 1.400 . S
C1727 C1726 1.385 . S
C1728 C1726 1.478 . S
C1728 C1730 1.381 . S
C1728 C1734 1.383 . S
C1729 C1725 1.495 . S
C1729 H1735 0.959 . S
C1729 H1736 0.961 . S
C1729 H1737 0.960 . S
C1730 C1728 1.381 . S
C1730 C1731 1.394 . S
C1730 H1738 0.930 . S
C1731 C1730 1.394 . S
C1731 C1732 1.383 . S
C1731 H1739 0.929 . S
C1732 C1731 1.383 . S
C1732 C1733 1.377 . S
C1733 H1717 0.930 . S
C1733 C1732 1.377 . S
C1733 C1734 1.379 . S
C1734 H1718 0.931 . S
C1734 C1728 1.383 . S
C1734 C1733 1.379 . S
H1735 C1729 0.959 . S
H1736 C1729 0.961 . S
H1737 C1729 0.960 . S
H1738 C1730 0.930 . S
H1739 C1731 0.929 . S
H1740 C1748 0.929 . S
H1741 C1750 0.930 . S
H1742 C1752 0.930 . S
H1743 C1755 0.929 . S
H1744 C1758 0.930 . S
H1745 C1760 0.960 . S
H1746 C1760 0.960 . S
H1747 C1760 0.960 . S
C1748 H1740 0.929 . S
C1748 C1749 1.377 . S
C1748 C1750 1.384 . S
C1749 C1748 1.377 . S
C1749 C1755 1.390 . S
C1750 H1741 0.930 . S
C1750 C1748 1.384 . S
C1750 C1751 1.372 . S
C1751 C1750 1.372 . S
C1751 C1752 1.400 . S
C1751 C1756 1.490 . S
C1752 H1742 0.930 . S
C1752 C1751 1.400 . S
C1752 C1755 1.386 . S
H1753 C1769 0.930 . S
H1754 C1770 0.931 . S
C1755 H1743 0.929 . S
C1755 C1749 1.390 . S
C1755 C1752 1.386 . S
C1756 C1751 1.490 . S
C1756 C1758 1.395 . S
C1756 C1759 1.403 . S
H1757 C1763 0.930 . S
C1758 H1744 0.930 . S
C1758 C1756 1.395 . S
C1758 C1761 1.403 . S
C1759 C1756 1.403 . S
C1759 C1760 1.524 . S
C1759 C1763 1.400 . S
C1760 H1745 0.960 . S
C1760 H1746 0.960 . S
C1760 H1747 0.960 . S
C1760 C1759 1.524 . S
C1761 C1758 1.403 . S
C1761 C1762 1.392 . S
C1761 C1765 1.495 . S
C1762 C1761 1.392 . S
C1762 C1763 1.385 . S
C1762 C1764 1.478 . S
C1763 H1757 0.930 . S
C1763 C1759 1.400 . S
C1763 C1762 1.385 . S
C1764 C1762 1.478 . S
C1764 C1766 1.381 . S
C1764 C1770 1.383 . S
C1765 C1761 1.495 . S
C1765 H1771 0.959 . S
C1765 H1772 0.961 . S
C1765 H1773 0.960 . S
C1766 C1764 1.381 . S
C1766 C1767 1.394 . S
C1766 H1774 0.930 . S
C1767 C1766 1.394 . S
C1767 C1768 1.383 . S
C1767 H1775 0.929 . S
C1768 C1767 1.383 . S
C1768 C1769 1.377 . S
C1769 H1753 0.930 . S
C1769 C1768 1.377 . S
C1769 C1770 1.379 . S
C1770 H1754 0.931 . S
C1770 C1764 1.383 . S
C1770 C1769 1.379 . S
H1771 C1765 0.959 . S
H1772 C1765 0.961 . S
H1773 C1765 0.960 . S
H1774 C1766 0.930 . S
H1775 C1767 0.929 . S
C489 C99 1.322 . S
C508 C15 1.315 . S
C525 C130 1.321 . S
C544 C46 1.275 . S
C561 C95 1.317 . S
C580 C179 1.315 . S
C597 C126 1.296 . S
C616 C210 1.318 . S
C633 C19 1.322 . S
C652 C175 1.272 . S
C669 C50 1.321 . S
C688 C206 1.281 . S
C705 C410 1.322 . S
C724 C246 1.285 . S
C741 C295 1.318 . S
C760 C459 1.315 . S
C777 C326 1.318 . S
C796 C250 1.322 . S
C813 C375 1.295 . S
C832 C299 1.324 . S
C849 C406 1.315 . S
C868 C330 1.314 . S
C885 C379 1.322 . S
C904 C455 1.317 . S
C921 C129 1.818 . S
C940 C18 1.794 . S
C957 C49 1.815 . S
C976 C178 1.832 . S
C993 C98 1.817 . S
C1012 C209 1.829 . S
C1029 C249 1.815 . S
C1048 C378 1.832 . S
C1065 C298 1.819 . S
C1084 C409 1.794 . S
C1101 C329 1.818 . S
C1120 C458 1.828 . S
C1137 C289 2.084 . S
C1156 C9 2.091 . S
C1173 C58 2.081 . S
C1192 C338 2.078 . S
C1209 C369 2.077 . S
C1228 C89 2.085 . S
C1245 C138 2.078 . S
C1264 C418 2.064 . S
C1281 C169 2.076 . S
C1300 C449 2.101 . S
C1317 C258 2.087 . S
C1336 C218 2.098 . S
C1353 C90 1.694 . S
C1372 C6 1.700 . S
C1389 C55 1.706 . S
C1408 C139 1.691 . S
C1425 C86 1.705 . S
C1444 C170 1.702 . S
C1461 C135 1.706 . S
C1480 C219 1.677 . S
C1497 C10 1.695 . S
C1516 C166 1.696 . S
C1533 C59 1.692 . S
C1552 C215 1.706 . S
C1569 C419 1.693 . S
C1588 C255 1.708 . S
C1605 C286 1.705 . S
C1624 C450 1.702 . S
C1641 C335 1.705 . S
C1660 C259 1.679 . S
C1677 C290 1.694 . S
C1696 C366 1.697 . S
C1713 C415 1.707 . S
C1732 C339 1.699 . S
C1749 C446 1.706 . S
C1768 C370 1.700 . S
