# Generated by pormake.
# Topology uot, (4)-cn, num edge types: 1
# Building blocks:
#     Node 0, Type 0, BuildingBlock: ESEHIV_clean_sbu_0, # of connection points: 4
#     Node 1, Type 0, BuildingBlock: ESEHIV_clean_sbu_0, # of connection points: 4
#     Node 2, Type 0, BuildingBlock: ESEHIV_clean_sbu_0, # of connection points: 4
#     Node 3, Type 0, BuildingBlock: ESEHIV_clean_sbu_0, # of connection points: 4
#     Node 4, Type 0, BuildingBlock: ESEHIV_clean_sbu_0, # of connection points: 4
#     Node 5, Type 0, BuildingBlock: ESEHIV_clean_sbu_0, # of connection points: 4
#     Node 6, Type 0, BuildingBlock: ESEHIV_clean_sbu_0, # of connection points: 4
#     Node 7, Type 0, BuildingBlock: ESEHIV_clean_sbu_0, # of connection points: 4
#     Node 8, Type 0, BuildingBlock: ESEHIV_clean_sbu_0, # of connection points: 4
#     Node 9, Type 0, BuildingBlock: ESEHIV_clean_sbu_0, # of connection points: 4
#     Node 10, Type 0, BuildingBlock: ESEHIV_clean_sbu_0, # of connection points: 4
#     Node 11, Type 0, BuildingBlock: ESEHIV_clean_sbu_0, # of connection points: 4
#     Node 12, Type 0, BuildingBlock: ESEHIV_clean_sbu_0, # of connection points: 4
#     Node 13, Type 0, BuildingBlock: ESEHIV_clean_sbu_0, # of connection points: 4
#     Node 14, Type 0, BuildingBlock: ESEHIV_clean_sbu_0, # of connection points: 4
#     Node 15, Type 0, BuildingBlock: ESEHIV_clean_sbu_0, # of connection points: 4
#     Edge 16, Type (0, 0), BuildingBlock: XUDNAN_clean_linker_2, # of connection points: 2
#     Edge 17, Type (0, 0), BuildingBlock: XUDNAN_clean_linker_2, # of connection points: 2
#     Edge 18, Type (0, 0), BuildingBlock: XUDNAN_clean_linker_2, # of connection points: 2
#     Edge 19, Type (0, 0), BuildingBlock: XUDNAN_clean_linker_2, # of connection points: 2
#     Edge 20, Type (0, 0), BuildingBlock: XUDNAN_clean_linker_2, # of connection points: 2
#     Edge 21, Type (0, 0), BuildingBlock: XUDNAN_clean_linker_2, # of connection points: 2
#     Edge 22, Type (0, 0), BuildingBlock: XUDNAN_clean_linker_2, # of connection points: 2
#     Edge 23, Type (0, 0), BuildingBlock: XUDNAN_clean_linker_2, # of connection points: 2
#     Edge 24, Type (0, 0), BuildingBlock: XUDNAN_clean_linker_2, # of connection points: 2
#     Edge 25, Type (0, 0), BuildingBlock: XUDNAN_clean_linker_2, # of connection points: 2
#     Edge 26, Type (0, 0), BuildingBlock: XUDNAN_clean_linker_2, # of connection points: 2
#     Edge 27, Type (0, 0), BuildingBlock: XUDNAN_clean_linker_2, # of connection points: 2
#     Edge 28, Type (0, 0), BuildingBlock: XUDNAN_clean_linker_2, # of connection points: 2
#     Edge 29, Type (0, 0), BuildingBlock: XUDNAN_clean_linker_2, # of connection points: 2
#     Edge 30, Type (0, 0), BuildingBlock: XUDNAN_clean_linker_2, # of connection points: 2
#     Edge 31, Type (0, 0), BuildingBlock: XUDNAN_clean_linker_2, # of connection points: 2
#     Edge 32, Type (0, 0), BuildingBlock: XUDNAN_clean_linker_2, # of connection points: 2
#     Edge 33, Type (0, 0), BuildingBlock: XUDNAN_clean_linker_2, # of connection points: 2
#     Edge 34, Type (0, 0), BuildingBlock: XUDNAN_clean_linker_2, # of connection points: 2
#     Edge 35, Type (0, 0), BuildingBlock: XUDNAN_clean_linker_2, # of connection points: 2
#     Edge 36, Type (0, 0), BuildingBlock: XUDNAN_clean_linker_2, # of connection points: 2
#     Edge 37, Type (0, 0), BuildingBlock: XUDNAN_clean_linker_2, # of connection points: 2
#     Edge 38, Type (0, 0), BuildingBlock: XUDNAN_clean_linker_2, # of connection points: 2
#     Edge 39, Type (0, 0), BuildingBlock: XUDNAN_clean_linker_2, # of connection points: 2
#     Edge 40, Type (0, 0), BuildingBlock: XUDNAN_clean_linker_2, # of connection points: 2
#     Edge 41, Type (0, 0), BuildingBlock: XUDNAN_clean_linker_2, # of connection points: 2
#     Edge 42, Type (0, 0), BuildingBlock: XUDNAN_clean_linker_2, # of connection points: 2
#     Edge 43, Type (0, 0), BuildingBlock: XUDNAN_clean_linker_2, # of connection points: 2
#     Edge 44, Type (0, 0), BuildingBlock: XUDNAN_clean_linker_2, # of connection points: 2
#     Edge 45, Type (0, 0), BuildingBlock: XUDNAN_clean_linker_2, # of connection points: 2
#     Edge 46, Type (0, 0), BuildingBlock: XUDNAN_clean_linker_2, # of connection points: 2
#     Edge 47, Type (0, 0), BuildingBlock: XUDNAN_clean_linker_2, # of connection points: 2
# Relax obj value: 0.100
# Max RMSD: 0.253
# Mean RMSD: 0.253
data_MOF--net-uot--node1-ESEHIV_clean_sbu_0--edge1-XUDNAN_clean_linker_2
_symmetry_space_group_name_H-M    P1
_symmetry_Int_Tables_number       1
_symmetry_cell_setting            triclinic
loop_
_symmetry_equiv_pos_as_xyz
'x, y, z'
_cell_length_a     48.422147
_cell_length_b     48.495954
_cell_length_c     46.60752
_cell_angle_alpha  90.196963
_cell_angle_beta   90.066835
_cell_angle_gamma 89.974221
loop_
_atom_site_label
_atom_site_type_symbol
_atom_site_fract_x
_atom_site_fract_y
_atom_site_fract_z
_atom_type_partial_charge
Cu0 Cu 0.19777 0.45697 0.35797 0.0
N1 N 0.19868 0.49069 0.33857 0.0
N2 N 0.1938 0.5249 0.30695 0.0
C3 C 0.18759 0.4984 0.31322 0.0
C4 C 0.20923 0.53408 0.32909 0.0
C5 C 0.21212 0.51305 0.34849 0.0
O6 O 0.17077 0.43174 0.34147 0.0
C7 C 0.2083 0.4728 0.41544 0.0
O8 O 0.23409 0.47244 0.40676 0.0
H9 H 0.17557 0.4849 0.29954 0.0
H10 H 0.22336 0.51394 0.36853 0.0
N11 N 0.23268 0.4406 0.35465 0.0
N12 N 0.2672 0.40988 0.35398 0.0
C13 C 0.24036 0.41447 0.3606 0.0
C14 C 0.25538 0.45287 0.34407 0.0
C15 C 0.27664 0.43407 0.34365 0.0
C16 C 0.14649 0.43818 0.33336 0.0
O17 O 0.13778 0.46366 0.33658 0.0
H18 H 0.22638 0.39901 0.36885 0.0
H19 H 0.25635 0.47401 0.33684 0.0
O20 O 0.18934 0.46545 0.39802 0.0
H21 H 0.21741 0.55475 0.33136 0.0
H22 H 0.29748 0.43797 0.33635 0.0
Cu23 Cu 0.45586 0.82997 0.65691 0.0
N24 N 0.48986 0.83001 0.67582 0.0
N25 N 0.52486 0.84154 0.70473 0.0
C26 C 0.49826 0.84639 0.69755 0.0
C27 C 0.53343 0.82132 0.68687 0.0
C28 C 0.51183 0.81428 0.66911 0.0
O29 O 0.43411 0.86076 0.67113 0.0
C30 C 0.47177 0.81406 0.601 0.0
O31 O 0.47239 0.78932 0.61238 0.0
H32 H 0.48541 0.86209 0.7073 0.0
H33 H 0.51218 0.79891 0.65226 0.0
N34 N 0.43791 0.79656 0.66425 0.0
N35 N 0.40647 0.76283 0.66688 0.0
C36 C 0.41222 0.78836 0.65683 0.0
C37 C 0.44871 0.77556 0.67932 0.0
C38 C 0.42949 0.75479 0.68094 0.0
C39 C 0.42436 0.86019 0.69646 0.0
O40 O 0.4284 0.83813 0.71223 0.0
H41 H 0.39796 0.80104 0.6448 0.0
H42 H 0.46918 0.7754 0.68858 0.0
O43 O 0.46372 0.83435 0.61627 0.0
H44 H 0.55385 0.81223 0.68668 0.0
H45 H 0.43245 0.73513 0.69142 0.0
Cu46 Cu 0.83386 0.55722 0.37085 0.0
N47 N 0.8234 0.53298 0.34171 0.0
N48 N 0.82596 0.50323 0.30497 0.0
C49 C 0.8397 0.52178 0.32139 0.0
C50 C 0.79994 0.50303 0.31549 0.0
C51 C 0.79847 0.52136 0.33809 0.0
O52 O 0.86472 0.57922 0.35738 0.0
C53 C 0.85035 0.54611 0.42803 0.0
O54 O 0.85269 0.57305 0.42982 0.0
H55 H 0.86128 0.52696 0.31907 0.0
H56 H 0.78068 0.52537 0.35149 0.0
N57 N 0.80355 0.57896 0.38088 0.0
N58 N 0.76988 0.61049 0.3814 0.0
C59 C 0.79373 0.60228 0.36887 0.0
C60 C 0.78547 0.57239 0.40163 0.0
C61 C 0.76473 0.59174 0.40202 0.0
C62 C 0.88877 0.56864 0.35679 0.0
O63 O 0.8923 0.54369 0.36706 0.0
H64 H 0.80334 0.61246 0.35083 0.0
H65 H 0.78706 0.55442 0.41521 0.0
O66 O 0.84357 0.53526 0.40415 0.0
H67 H 0.78329 0.48991 0.30819 0.0
H68 H 0.74717 0.59195 0.41637 0.0
Cu69 Cu 0.56398 0.1921 0.65657 0.0
N70 N 0.5285 0.18985 0.67201 0.0
N71 N 0.49226 0.18454 0.70101 0.0
C72 C 0.51969 0.18052 0.69767 0.0
C73 C 0.48361 0.19685 0.67671 0.0
C74 C 0.50596 0.20008 0.65893 0.0
O75 O 0.58912 0.16435 0.67167 0.0
C76 C 0.54601 0.17295 0.60175 0.0
O77 O 0.53583 0.15196 0.61601 0.0
H78 H 0.53311 0.1717 0.7138 0.0
H79 H 0.50594 0.20964 0.638 0.0
N80 N 0.57838 0.22661 0.66609 0.0
N81 N 0.60709 0.26263 0.66974 0.0
C82 C 0.60388 0.23632 0.66051 0.0
C83 C 0.56496 0.24734 0.67925 0.0
C84 C 0.58254 0.26954 0.68154 0.0
C85 C 0.58278 0.14071 0.68147 0.0
O86 O 0.55706 0.13221 0.68019 0.0
H87 H 0.61968 0.22422 0.64995 0.0
H88 H 0.54372 0.24648 0.68635 0.0
O89 O 0.56021 0.191 0.61507 0.0
H90 H 0.46256 0.20295 0.6721 0.0
H91 H 0.57732 0.28943 0.6906 0.0
Cu92 Cu 0.19206 0.57685 0.66285 0.0
N93 N 0.19143 0.54321 0.68213 0.0
N94 N 0.17925 0.50967 0.71234 0.0
C95 C 0.17494 0.53602 0.7041 0.0
C96 C 0.19927 0.50003 0.69483 0.0
C97 C 0.20667 0.52072 0.6762 0.0
O98 O 0.16308 0.59966 0.67929 0.0
C99 C 0.20521 0.55955 0.60669 0.0
O100 O 0.23016 0.55764 0.61761 0.0
H101 H 0.16008 0.54987 0.71379 0.0
H102 H 0.22188 0.51936 0.6593 0.0
N103 N 0.22644 0.59351 0.66893 0.0
N104 N 0.26155 0.62351 0.66994 0.0
C105 C 0.23549 0.61858 0.66067 0.0
C106 C 0.24743 0.58225 0.68373 0.0
C107 C 0.26904 0.60059 0.68436 0.0
C108 C 0.13779 0.59432 0.67437 0.0
O109 O 0.13158 0.57445 0.65625 0.0
H110 H 0.22305 0.63302 0.6486 0.0
H111 H 0.24702 0.56208 0.69352 0.0
O112 O 0.18575 0.56889 0.62233 0.0
H113 H 0.20748 0.47927 0.69487 0.0
H114 H 0.28888 0.5971 0.69443 0.0
Cu115 Cu 0.57488 0.81319 0.35327 0.0
N116 N 0.54096 0.81235 0.33412 0.0
N117 N 0.50523 0.82195 0.30543 0.0
C118 C 0.5323 0.82646 0.3109 0.0
C119 C 0.49677 0.8041 0.32575 0.0
C120 C 0.51876 0.7983 0.34335 0.0
O121 O 0.5999 0.84 0.33657 0.0
C122 C 0.559 0.80398 0.41077 0.0
O123 O 0.55866 0.77807 0.40249 0.0
H124 H 0.54523 0.84053 0.29896 0.0
H125 H 0.51846 0.78517 0.36204 0.0
N126 N 0.59131 0.77838 0.35044 0.0
N127 N 0.62235 0.74424 0.35102 0.0
C128 C 0.61796 0.77153 0.35495 0.0
C129 C 0.57854 0.75472 0.34318 0.0
C130 C 0.59756 0.73365 0.34364 0.0
C131 C 0.59383 0.86503 0.33144 0.0
O132 O 0.56909 0.87432 0.33783 0.0
H133 H 0.63368 0.78619 0.36134 0.0
H134 H 0.55688 0.75289 0.33792 0.0
O135 O 0.5668 0.82239 0.39312 0.0
H136 H 0.47606 0.79602 0.32797 0.0
H137 H 0.59352 0.71223 0.33853 0.0
Cu138 Cu 0.81872 0.45051 0.67283 0.0
N139 N 0.81911 0.48573 0.68922 0.0
N140 N 0.82972 0.5221 0.71665 0.0
C141 C 0.83353 0.49481 0.71212 0.0
C142 C 0.81211 0.53035 0.69591 0.0
C143 C 0.80561 0.5079 0.67909 0.0
O144 O 0.84209 0.42576 0.69466 0.0
C145 C 0.84504 0.47216 0.62327 0.0
O146 O 0.85579 0.4899 0.64147 0.0
H147 H 0.84714 0.48186 0.72465 0.0
H148 H 0.79228 0.50775 0.66044 0.0
N149 N 0.78275 0.43675 0.67469 0.0
N150 N 0.7468 0.40781 0.67334 0.0
C151 C 0.77406 0.4111 0.66803 0.0
C152 C 0.76029 0.45012 0.68446 0.0
C153 C 0.73812 0.43238 0.68363 0.0
C154 C 0.86794 0.42867 0.69853 0.0
O155 O 0.88088 0.44931 0.68628 0.0
H156 H 0.78763 0.39504 0.66016 0.0
H157 H 0.76009 0.47122 0.692 0.0
O158 O 0.82962 0.4529 0.63264 0.0
H159 H 0.80447 0.55113 0.69305 0.0
H160 H 0.7172 0.43729 0.69 0.0
Cu161 Cu 0.45018 0.19302 0.35128 0.0
N162 N 0.48343 0.19876 0.33215 0.0
N163 N 0.51994 0.19415 0.30319 0.0
C164 C 0.49602 0.18278 0.31238 0.0
C165 C 0.52236 0.21808 0.31791 0.0
C166 C 0.49986 0.22083 0.33568 0.0
O167 O 0.43625 0.15666 0.34079 0.0
C168 C 0.46503 0.1764 0.4078 0.0
O169 O 0.46409 0.15128 0.39721 0.0
H170 H 0.48763 0.16344 0.3047 0.0
H171 H 0.49573 0.23771 0.35029 0.0
N172 N 0.42578 0.22049 0.3391 0.0
N173 N 0.3944 0.25432 0.33732 0.0
C174 C 0.40789 0.23612 0.35428 0.0
C175 C 0.42342 0.22899 0.31178 0.0
C176 C 0.40416 0.24979 0.3106 0.0
C177 C 0.41099 0.15187 0.335 0.0
O178 O 0.39276 0.17174 0.33784 0.0
H179 H 0.40518 0.23448 0.37726 0.0
H180 H 0.43505 0.22059 0.29397 0.0
O181 O 0.45825 0.19667 0.39199 0.0
H182 H 0.53941 0.23241 0.31638 0.0
H183 H 0.39765 0.26054 0.29143 0.0
Cu184 Cu 0.69817 0.96039 0.86262 0.0
N185 N 0.69996 0.99482 0.8448 0.0
N186 N 0.69254 0.02989 0.81472 0.0
C187 C 0.6843 1.00453 0.8231 0.0
C188 C 0.71406 0.03632 0.83194 0.0
C189 C 0.71855 0.0147 0.85043 0.0
O190 O 0.66605 0.94093 0.84806 0.0
C191 C 0.68336 0.986 0.91518 0.0
O192 O 0.67155 1.00418 0.89831 0.0
H193 H 0.66769 0.99298 0.81321 0.0
H194 H 0.73445 0.01335 0.86668 0.0
N195 N 0.73045 0.94094 0.85346 0.0
N196 N 0.76405 0.90922 0.85126 0.0
C197 C 0.73997 0.91677 0.86386 0.0
C198 C 0.74909 0.94892 0.83382 0.0
C199 C 0.76975 0.92953 0.83242 0.0
C200 C 0.66634 0.93098 0.82277 0.0
O201 O 0.68882 0.93344 0.80723 0.0
H202 H 0.72928 0.90485 0.87998 0.0
H203 H 0.74769 0.96758 0.82127 0.0
O204 O 0.69556 0.96527 0.90408 0.0
H205 H 0.7257 0.05536 0.83132 0.0
H206 H 0.78781 0.9306 0.81882 0.0
Cu207 Cu 0.95505 0.32924 0.16213 0.0
N208 N 0.97828 0.32236 0.19346 0.0
N209 N 0.01106 0.32729 0.22694 0.0
C210 C 0.99869 0.33853 0.20377 0.0
C211 C 0.99806 0.30305 0.23123 0.0
C212 C 0.97782 0.30011 0.21062 0.0
O213 O 0.92789 0.35677 0.17318 0.0
C214 C 0.99947 0.3293 0.12355 0.0
O215 O 1.00904 0.31078 0.14151 0.0
H216 H 1.00473 0.35788 0.19418 0.0
H217 H 0.96366 0.28301 0.20834 0.0
N218 N 0.93657 0.29694 0.1514 0.0
N219 N 0.90649 0.26186 0.14907 0.0
C220 C 0.91515 0.28416 0.16424 0.0
C221 C 0.94157 0.28239 0.12738 0.0
C222 C 0.92318 0.26087 0.12586 0.0
C223 C 0.93495 0.38028 0.18292 0.0
O224 O 0.96123 0.38685 0.18386 0.0
H225 H 0.90618 0.29117 0.18422 0.0
H226 H 0.9572 0.28742 0.1117 0.0
O227 O 0.97651 0.341 0.12903 0.0
H228 H 1.00254 0.28868 0.24835 0.0
H229 H 0.92184 0.24612 0.10846 0.0
Cu230 Cu 0.32328 0.07143 0.86156 0.0
N231 N 0.32444 0.0366 0.84438 0.0
N232 N 0.33535 1.00085 0.81614 0.0
C233 C 0.33809 0.02829 0.82068 0.0
C234 C 0.31917 0.99175 0.83769 0.0
C235 C 0.31252 0.01379 0.85501 0.0
O236 O 0.34882 0.09635 0.84301 0.0
C237 C 0.31445 0.06162 0.92054 0.0
O238 O 0.28839 0.06079 0.91276 0.0
H239 H 0.35046 0.04189 0.80758 0.0
H240 H 0.30014 0.01323 0.8743 0.0
N241 N 0.28777 0.08607 0.85764 0.0
N242 N 0.25222 0.11555 0.85768 0.0
C243 C 0.27919 0.11179 0.86418 0.0
C244 C 0.26555 0.07312 0.84673 0.0
C245 C 0.24361 0.09121 0.84672 0.0
C246 C 0.37432 0.0914 0.83892 0.0
O247 O 0.38497 0.06809 0.84801 0.0
H248 H 0.29264 0.12753 0.87294 0.0
H249 H 0.26536 0.05202 0.83915 0.0
O250 O 0.33281 0.06683 0.9018 0.0
H251 H 0.31262 0.97064 0.8408 0.0
H252 H 0.22289 0.08667 0.83939 0.0
Cu253 Cu 0.06464 0.69598 0.17105 0.0
N254 N 0.03886 0.69472 0.20105 0.0
N255 N 0.01178 0.67877 0.23615 0.0
C256 C 0.03086 0.67241 0.21607 0.0
C257 C 1.00764 0.70617 0.23373 0.0
C258 C 0.02448 0.71597 0.21222 0.0
O259 O 0.09412 0.67016 0.17964 0.0
C260 C 0.02272 0.69607 0.12901 0.0
O261 O 1.00913 0.70914 0.14926 0.0
H262 H 0.03859 0.65185 0.21219 0.0
H263 H 0.02606 0.73711 0.20513 0.0
N264 N 0.07941 0.73153 0.16885 0.0
N265 N 0.10877 0.76717 0.16912 0.0
C266 C 0.10541 0.73996 0.17452 0.0
C267 C 0.06591 0.75408 0.1597 0.0
C268 C 0.08389 0.77605 0.15986 0.0
C269 C 0.09086 0.64412 0.1791 0.0
O270 O 0.06723 0.63376 0.17035 0.0
H271 H 0.12167 0.72629 0.18168 0.0
H272 H 0.0445 0.75445 0.1531 0.0
O273 O 0.04714 0.68764 0.13421 0.0
H274 H 0.99373 0.71833 0.24683 0.0
H275 H 0.07895 0.79697 0.15367 0.0
Cu276 Cu 0.70262 0.06508 0.17111 0.0
N277 N 0.70786 0.04082 0.2017 0.0
N278 N 0.70252 1.00635 0.23288 0.0
C279 C 0.69166 0.01975 0.21015 0.0
C280 C 0.72645 0.01938 0.23886 0.0
C281 C 0.72963 0.04067 0.21966 0.0
O282 O 0.67507 0.09246 0.18158 0.0
C283 C 0.6879 0.05605 0.11325 0.0
O284 O 0.68831 0.08312 0.1122 0.0
H285 H 0.67265 0.01393 0.19951 0.0
H286 H 0.7467 0.05502 0.21875 0.0
N287 N 0.73635 0.08224 0.16356 0.0
N288 N 0.77089 0.11279 0.1605 0.0
C289 C 0.74423 0.10857 0.16815 0.0
C290 C 0.7586 0.06939 0.15275 0.0
C291 C 0.77988 0.08805 0.15085 0.0
C292 C 0.65111 0.0856 0.19018 0.0
O293 O 0.64422 0.05942 0.1904 0.0
H294 H 0.73063 0.12422 0.17683 0.0
H295 H 0.75934 0.04776 0.14701 0.0
O296 O 0.69234 0.04418 0.13712 0.0
H297 H 0.7405 0.01407 0.25606 0.0
H298 H 0.80056 0.08342 0.14351 0.0
Cu299 Cu 0.06826 0.33123 0.8647 0.0
N300 N 0.03266 0.3243 0.85134 0.0
N301 N 0.99253 0.32873 0.828 0.0
C302 C 0.01675 0.34087 0.83511 0.0
C303 C 0.99346 0.30355 0.84033 0.0
C304 C 0.01821 0.30091 0.85465 0.0
O305 O 0.08002 0.36639 0.84928 0.0
C306 C 0.04939 0.34399 0.92038 0.0
O307 O 0.02983 0.35696 0.90626 0.0
H308 H 0.02293 0.36138 0.8287 0.0
H309 H 0.02543 0.28301 0.86625 0.0
N310 N 0.09109 0.30319 0.85078 0.0
N311 N 0.12205 0.26911 0.8472 0.0
C312 C 0.10986 0.28771 0.86483 0.0
C313 C 0.09147 0.2942 0.82348 0.0
C314 C 0.11049 0.27322 0.82118 0.0
C315 C 0.10508 0.37167 0.84332 0.0
O316 O 0.12421 0.35332 0.84923 0.0
H317 H 0.11417 0.28982 0.88752 0.0
H318 H 0.07875 0.30242 0.80644 0.0
O319 O 0.06839 0.33177 0.90638 0.0
H320 H 0.97775 0.28778 0.8386 0.0
H321 H 0.11565 0.26214 0.80172 0.0
Cu322 Cu 0.32922 0.94639 0.15806 0.0
N323 N 0.3221 0.97057 0.18836 0.0
N324 N 0.33074 1.00045 0.22386 0.0
C325 C 0.34167 0.98344 0.2039 0.0
C326 C 0.3031 0.9982 0.22066 0.0
C327 C 0.29783 0.97964 0.19875 0.0
O328 O 0.36027 0.92349 0.16897 0.0
C329 C 0.32211 0.98527 0.11442 0.0
O330 O 0.29827 0.98882 0.12738 0.0
H331 H 0.36356 0.98082 0.20007 0.0
H332 H 0.27778 0.97342 0.19077 0.0
N333 N 0.29847 0.9247 0.14861 0.0
N334 N 0.26269 0.8955 0.14959 0.0
C335 C 0.28282 0.90801 0.16508 0.0
C336 C 0.28802 0.92241 0.12196 0.0
C337 C 0.266 0.90459 0.12249 0.0
C338 C 0.36016 0.91153 0.1932 0.0
O339 O 0.33822 0.91378 0.20961 0.0
H340 H 0.28601 0.90519 0.18786 0.0
H341 H 0.29614 0.9327 0.10325 0.0
O342 O 0.33918 0.9679 0.12459 0.0
H343 H 0.2878 1.00908 0.23326 0.0
H344 H 0.25381 0.89824 0.10414 0.0
Cu345 Cu 0.95218 0.69735 0.86856 0.0
N346 N 0.98626 0.69488 0.84981 0.0
N347 N 0.01812 0.68256 0.8174 0.0
C348 C 0.99235 0.67817 0.82755 0.0
C349 C 0.02867 0.70277 0.83415 0.0
C350 C 1.00894 0.71038 0.85403 0.0
O351 O 0.92978 0.66632 0.85613 0.0
C352 C 0.97655 0.68567 0.92347 0.0
O353 O 0.99617 0.67324 0.9089 0.0
H354 H 0.97804 0.66317 0.81893 0.0
H355 H 0.01075 0.72647 0.87005 0.0
N356 N 0.93498 0.73038 0.85803 0.0
N357 N 0.90475 0.76517 0.85448 0.0
C358 C 0.91092 0.74105 0.86757 0.0
C359 C 0.94437 0.74833 0.8384 0.0
C360 C 0.92584 0.76974 0.83616 0.0
C361 C 0.91918 0.66622 0.83112 0.0
O362 O 0.92275 0.68778 0.81455 0.0
H363 H 0.89806 0.73108 0.88342 0.0
H364 H 0.96336 0.74593 0.82647 0.0
O365 O 0.95649 0.6968 0.9101 0.0
H366 H 0.04885 0.71203 0.83171 0.0
H367 H 0.92801 0.78749 0.82235 0.0
H368 H 0.30992 0.39342 0.32041 0.0
H369 H 0.2595 0.36858 0.39265 0.0
H370 H 0.28708 0.32572 0.3971 0.0
H371 H 0.31778 0.32628 0.28939 0.0
H372 H 0.35285 0.33228 0.27813 0.0
H373 H 0.32911 0.36073 0.28101 0.0
H374 H 0.36288 0.38582 0.3155 0.0
H375 H 0.38672 0.35743 0.31276 0.0
H376 H 0.37459 0.36854 0.34747 0.0
H377 H 0.32163 0.28568 0.39389 0.0
H378 H 0.35776 0.25141 0.38154 0.0
H379 H 0.38479 0.30349 0.31156 0.0
C380 C 0.30476 0.37913 0.33735 0.0
C381 C 0.28263 0.38449 0.35632 0.0
C382 C 0.27624 0.36485 0.37777 0.0
C383 C 0.2919 0.34054 0.38055 0.0
C384 C 0.31377 0.33609 0.3616 0.0
C385 C 0.32002 0.35483 0.3403 0.0
C386 C 0.34417 0.34522 0.32229 0.0
C387 C 0.33544 0.34087 0.29085 0.0
C388 C 0.36853 0.36546 0.32466 0.0
C389 C 0.35067 0.31812 0.33675 0.0
C390 C 0.33308 0.31317 0.35948 0.0
C391 C 0.33545 0.28938 0.37609 0.0
C392 C 0.35613 0.27011 0.36904 0.0
C393 C 0.37403 0.27464 0.34548 0.0
C394 C 0.37122 0.29914 0.3294 0.0
H395 H 0.3874 0.72294 0.70249 0.0
H396 H 0.36845 0.76657 0.6238 0.0
H397 H 0.32701 0.73732 0.6171 0.0
H398 H 0.36977 0.65665 0.67757 0.0
H399 H 0.35553 0.64543 0.71128 0.0
H400 H 0.38217 0.67128 0.71078 0.0
H401 H 0.35064 0.70458 0.73953 0.0
H402 H 0.32389 0.67879 0.74018 0.0
H403 H 0.31666 0.71259 0.72607 0.0
H404 H 0.28884 0.70062 0.61789 0.0
H405 H 0.2582 0.66053 0.62609 0.0
H406 H 0.30311 0.64184 0.70423 0.0
C407 C 0.37462 0.72644 0.6838 0.0
C408 C 0.38134 0.74705 0.6636 0.0
C409 C 0.36365 0.75112 0.63972 0.0
C410 C 0.34011 0.73452 0.63569 0.0
C411 C 0.33443 0.71406 0.65584 0.0
C412 C 0.35119 0.71014 0.6795 0.0
C413 C 0.34135 0.68626 0.69758 0.0
C414 C 0.36352 0.66357 0.69939 0.0
C415 C 0.33261 0.69616 0.72762 0.0
C416 C 0.31672 0.67689 0.68016 0.0
C417 C 0.31282 0.69322 0.65626 0.0
C418 C 0.29163 0.68786 0.63668 0.0
C419 C 0.27424 0.6651 0.64157 0.0
C420 C 0.27824 0.64787 0.66574 0.0
C421 C 0.29962 0.65426 0.68534 0.0
H422 H 0.62815 0.69121 0.36807 0.0
H423 H 0.67438 0.76309 0.34109 0.0
H424 H 0.7179 0.73643 0.34502 0.0
H425 H 0.67722 0.66723 0.41986 0.0
H426 H 0.67106 0.63132 0.41208 0.0
H427 H 0.64392 0.6562 0.40684 0.0
H428 H 0.63883 0.64035 0.35391 0.0
H429 H 0.666 0.61547 0.35897 0.0
H430 H 0.66862 0.64065 0.33074 0.0
H431 H 0.75645 0.70066 0.35075 0.0
H432 H 0.78639 0.66037 0.36115 0.0
H433 H 0.71413 0.61292 0.38478 0.0
C434 C 0.64739 0.70132 0.36279 0.0
C435 C 0.64787 0.72918 0.3541 0.0
C436 C 0.67356 0.74181 0.34796 0.0
C437 C 0.69834 0.72678 0.34996 0.0
C438 C 0.69705 0.69921 0.35834 0.0
C439 C 0.67219 0.68673 0.36488 0.0
C440 C 0.67624 0.6571 0.37395 0.0
C441 C 0.66654 0.65272 0.40503 0.0
C442 C 0.66155 0.63723 0.35315 0.0
C443 C 0.70727 0.65473 0.37149 0.0
C444 C 0.719 0.67911 0.36225 0.0
C445 C 0.74744 0.68153 0.3581 0.0
C446 C 0.76428 0.65854 0.36388 0.0
C447 C 0.75261 0.63362 0.37398 0.0
C448 C 0.72371 0.63182 0.37755 0.0
H449 H 0.61943 0.30858 0.70114 0.0
H450 H 0.64968 0.25673 0.63182 0.0
H451 H 0.68997 0.28734 0.62638 0.0
H452 H 0.63758 0.37261 0.66937 0.0
H453 H 0.64714 0.38868 0.70286 0.0
H454 H 0.62156 0.36176 0.70235 0.0
H455 H 0.65019 0.33394 0.73933 0.0
H456 H 0.67585 0.36081 0.73999 0.0
H457 H 0.68577 0.32586 0.73167 0.0
H458 H 0.72653 0.32489 0.62756 0.0
H459 H 0.75554 0.36628 0.63496 0.0
H460 H 0.70057 0.39349 0.70284 0.0
C461 C 0.63437 0.30358 0.6847 0.0
C462 C 0.63117 0.28006 0.66695 0.0
C463 C 0.65165 0.27431 0.64601 0.0
C464 C 0.67462 0.29169 0.64263 0.0
C465 C 0.6769 0.31479 0.66035 0.0
C466 C 0.6573 0.32072 0.68097 0.0
C467 C 0.6641 0.34717 0.69683 0.0
C468 C 0.64124 0.36883 0.69258 0.0
C469 C 0.66929 0.3416 0.72885 0.0
C470 C 0.69043 0.35541 0.68167 0.0
C471 C 0.69763 0.33641 0.66083 0.0
C472 C 0.72112 0.33983 0.64392 0.0
C473 C 0.73755 0.36335 0.64836 0.0
C474 C 0.73035 0.38325 0.66942 0.0
C475 C 0.70651 0.37895 0.68631 0.0
H476 H 0.80003 0.88468 0.81437 0.0
H477 H 0.76622 0.87864 0.90028 0.0
H478 H 0.79694 0.83892 0.90995 0.0
H479 H 0.80909 0.81123 0.80181 0.0
H480 H 0.8409 0.81601 0.78241 0.0
H481 H 0.81481 0.8425 0.78188 0.0
H482 H 0.85062 0.87809 0.80043 0.0
H483 H 0.87677 0.85173 0.80109 0.0
H484 H 0.86925 0.8712 0.83315 0.0
H485 H 0.83392 0.80115 0.9108 0.0
H486 H 0.87318 0.76938 0.90274 0.0
H487 H 0.8822 0.80107 0.81634 0.0
C488 C 0.79899 0.87511 0.83527 0.0
C489 C 0.78068 0.88498 0.8566 0.0
C490 C 0.77981 0.87138 0.88347 0.0
C491 C 0.79729 0.84885 0.88919 0.0
C492 C 0.81542 0.84003 0.86777 0.0
C493 C 0.81622 0.85273 0.8413 0.0
C494 C 0.83807 0.84007 0.82215 0.0
C495 C 0.82493 0.82665 0.79549 0.0
C496 C 0.85997 0.86155 0.81372 0.0
C497 C 0.84991 0.81857 0.84214 0.0
C498 C 0.83649 0.81862 0.86828 0.0
C499 C 0.84439 0.80084 0.8903 0.0
C500 C 0.86667 0.78276 0.88549 0.0
C501 C 0.88095 0.78269 0.85893 0.0
C502 C 0.87208 0.80074 0.83701 0.0
H503 H 0.81816 0.12515 0.1315 0.0
H504 H 0.76034 0.15801 0.19403 0.0
H505 H 0.78858 0.20026 0.198 0.0
H506 H 0.87938 0.14993 0.16597 0.0
H507 H 0.8968 0.15719 0.13268 0.0
H508 H 0.8714 0.13013 0.13422 0.0
H509 H 0.84417 0.15311 0.09275 0.0
H510 H 0.86948 0.18024 0.0911 0.0
H511 H 0.83354 0.1886 0.09618 0.0
H512 H 0.82423 0.23918 0.19523 0.0
H513 H 0.86312 0.27075 0.18562 0.0
H514 H 0.89806 0.21036 0.12697 0.0
C515 C 0.81137 0.14099 0.14627 0.0
C516 C 0.78689 0.13796 0.1625 0.0
C517 C 0.77877 0.15974 0.18109 0.0
C518 C 0.7948 0.18383 0.18363 0.0
C519 C 0.81896 0.18587 0.16749 0.0
C520 C 0.82715 0.16497 0.14918 0.0
C521 C 0.85404 0.17189 0.13437 0.0
C522 C 0.87674 0.15105 0.1423 0.0
C523 C 0.85005 0.17356 0.10167 0.0
C524 C 0.85982 0.19999 0.1472 0.0
C525 C 0.83939 0.20782 0.1662 0.0
C526 C 0.84037 0.23316 0.18044 0.0
C527 C 0.86271 0.25093 0.17495 0.0
C528 C 0.88388 0.2433 0.15542 0.0
C529 C 0.88225 0.21729 0.14166 0.0
H530 H 0.13118 0.22001 0.82059 0.0
H531 H 0.16055 0.27247 0.88973 0.0
H532 H 0.19725 0.23851 0.90054 0.0
H533 H 0.14324 0.15519 0.85564 0.0
H534 H 0.15391 0.13795 0.82317 0.0
H535 H 0.12983 0.1662 0.82144 0.0
H536 H 0.16205 0.19163 0.7859 0.0
H537 H 0.18623 0.16346 0.78753 0.0
H538 H 0.19748 0.198 0.79583 0.0
H539 H 0.23186 0.19893 0.90256 0.0
H540 H 0.25995 0.15664 0.89684 0.0
H541 H 0.20766 0.13096 0.826 0.0
C542 C 0.14538 0.22451 0.83791 0.0
C543 C 0.14299 0.24902 0.85424 0.0
C544 C 0.16177 0.25376 0.87708 0.0
C545 C 0.18279 0.23465 0.88327 0.0
C546 C 0.18466 0.21083 0.86652 0.0
C547 C 0.16634 0.20569 0.8444 0.0
C548 C 0.17266 0.17861 0.82955 0.0
C549 C 0.14847 0.15829 0.83265 0.0
C550 C 0.18005 0.18321 0.79783 0.0
C551 C 0.19753 0.16931 0.84664 0.0
C552 C 0.20423 0.18814 0.86784 0.0
C553 C 0.22673 0.18404 0.88605 0.0
C554 C 0.24268 0.16003 0.88253 0.0
C555 C 0.23601 0.14036 0.86104 0.0
C556 C 0.21311 0.14528 0.84292 0.0
H557 H 0.21148 0.88787 0.12747 0.0
H558 H 0.26776 0.85816 0.19284 0.0
H559 H 0.23392 0.82204 0.20611 0.0
H560 H 0.14817 0.87629 0.16704 0.0
H561 H 0.12919 0.86596 0.13549 0.0
H562 H 0.1574 0.88997 0.13243 0.0
H563 H 0.18077 0.85804 0.09491 0.0
H564 H 0.15272 0.8339 0.09794 0.0
H565 H 0.1877 0.82259 0.10396 0.0
H566 H 0.19431 0.78715 0.20985 0.0
H567 H 0.15186 0.7589 0.20577 0.0
H568 H 0.1225 0.81213 0.13766 0.0
C569 C 0.21673 0.87381 0.14461 0.0
C570 C 0.24234 0.87577 0.15904 0.0
C571 C 0.24818 0.85721 0.18167 0.0
C572 C 0.22914 0.83654 0.18921 0.0
C573 C 0.20428 0.83489 0.17409 0.0
C574 C 0.19801 0.85326 0.15244 0.0
C575 C 0.17015 0.84711 0.13916 0.0
C576 C 0.15004 0.87127 0.14382 0.0
C577 C 0.17302 0.83998 0.1071 0.0
C578 C 0.16175 0.82217 0.15645 0.0
C579 C 0.18164 0.81532 0.17648 0.0
C580 C 0.17856 0.79249 0.19435 0.0
C581 C 0.15446 0.77645 0.19175 0.0
C582 C 0.13371 0.78336 0.17153 0.0
C583 C 0.13764 0.80654 0.1537 0.0
H584 H 0.14425 0.52275 0.27938 0.0
H585 H 0.22351 0.56422 0.28027 0.0
H586 H 0.20709 0.59632 0.24302 0.0
H587 H 0.12997 0.53163 0.20086 0.0
H588 H 0.0937 0.53762 0.20692 0.0
H589 H 0.11284 0.51546 0.23072 0.0
H590 H 0.09739 0.54521 0.27407 0.0
H591 H 0.07835 0.56751 0.25048 0.0
H592 H 0.10426 0.58175 0.27403 0.0
H593 H 0.1806 0.62745 0.21096 0.0
H594 H 0.14586 0.65502 0.18489 0.0
H595 H 0.08371 0.59317 0.20332 0.0
C596 C 0.15835 0.53805 0.27103 0.0
C597 C 0.18518 0.541 0.28262 0.0
C598 C 0.20284 0.56175 0.27177 0.0
C599 C 0.19375 0.57995 0.2505 0.0
C600 C 0.16694 0.57708 0.24012 0.0
C601 C 0.14951 0.55654 0.2498 0.0
C602 C 0.12093 0.55951 0.23678 0.0
C603 C 0.11396 0.53457 0.21768 0.0
C604 C 0.09895 0.56375 0.26024 0.0
C605 C 0.12485 0.58539 0.21904 0.0
C606 C 0.15163 0.59503 0.2211 0.0
C607 C 0.15971 0.61984 0.20866 0.0
C608 C 0.13984 0.6354 0.19398 0.0
C609 C 0.11223 0.62606 0.19176 0.0
C610 C 0.10483 0.60048 0.20405 0.0
H611 H 0.58003 0.85101 0.70309 0.0
H612 H 0.50671 0.86417 0.75468 0.0
H613 H 0.53502 0.88797 0.79146 0.0
H614 H 0.62705 0.83784 0.76127 0.0
H615 H 0.6554 0.8557 0.74456 0.0
H616 H 0.62929 0.83953 0.7227 0.0
H617 H 0.62011 0.88601 0.69707 0.0
H618 H 0.64621 0.9023 0.71881 0.0
H619 H 0.61165 0.91609 0.71812 0.0
H620 H 0.57198 0.90986 0.8229 0.0
H621 H 0.61384 0.92999 0.84509 0.0
H622 H 0.66237 0.90275 0.77204 0.0
C623 C 0.56994 0.85864 0.72224 0.0
C624 C 0.54118 0.85559 0.72612 0.0
C625 C 0.52869 0.86643 0.75121 0.0
C626 C 0.54462 0.87983 0.77226 0.0
C627 C 0.57298 0.88235 0.76778 0.0
C628 C 0.58546 0.87219 0.74328 0.0
C629 C 0.61614 0.87811 0.74316 0.0
C630 C 0.63295 0.85119 0.74292 0.0
C631 C 0.62397 0.89674 0.71779 0.0
C632 C 0.61905 0.89316 0.77147 0.0
C633 C 0.594 0.8953 0.78548 0.0
C634 C 0.59169 0.90833 0.81209 0.0
C635 C 0.61559 0.91964 0.82455 0.0
C636 C 0.64138 0.91799 0.8103 0.0
C637 C 0.64298 0.90444 0.78348 0.0
H638 H 0.9438 0.4224 0.22095 0.0
H639 H 0.87892 0.37963 0.17444 0.0
H640 H 0.84393 0.4089 0.19837 0.0
H641 H 0.90823 0.42617 0.28659 0.0
H642 H 0.92138 0.45966 0.29644 0.0
H643 H 0.94136 0.43743 0.27347 0.0
H644 H 0.9435 0.47584 0.23501 0.0
H645 H 0.92354 0.49823 0.25792 0.0
H646 H 0.91189 0.49093 0.22194 0.0
H647 H 0.81602 0.44167 0.2289 0.0
H648 H 0.79711 0.47363 0.26495 0.0
H649 H 0.88047 0.49281 0.29341 0.0
C650 C 0.92227 0.41954 0.21536 0.0
C651 C 0.91407 0.39895 0.1956 0.0
C652 C 0.88565 0.39539 0.18941 0.0
C653 C 0.86566 0.41196 0.20284 0.0
C654 C 0.87443 0.43183 0.22252 0.0
C655 C 0.90207 0.43561 0.22884 0.0
C656 C 0.90597 0.45697 0.25228 0.0
C657 C 0.92006 0.44429 0.27875 0.0
C658 C 0.92218 0.48197 0.24111 0.0
C659 C 0.87618 0.46441 0.2584 0.0
C660 C 0.85833 0.44996 0.24079 0.0
C661 C 0.82982 0.45308 0.24284 0.0
C662 C 0.81926 0.47122 0.26363 0.0
C663 C 0.83712 0.48585 0.28247 0.0
C664 C 0.86602 0.48241 0.27941 0.0
H665 H 0.49541 0.13818 0.73345 0.0
H666 H 0.45007 0.21446 0.72232 0.0
H667 H 0.41735 0.20045 0.76011 0.0
H668 H 0.43763 0.096 0.74141 0.0
H669 H 0.45237 0.07352 0.76807 0.0
H670 H 0.47449 0.09092 0.74298 0.0
H671 H 0.50232 0.11227 0.785 0.0
H672 H 0.48035 0.0948 0.8103 0.0
H673 H 0.48451 0.13169 0.81237 0.0
H674 H 0.38718 0.17668 0.79505 0.0
H675 H 0.36108 0.14449 0.82549 0.0
H676 H 0.42544 0.08297 0.81447 0.0
C677 C 0.47901 0.15216 0.73961 0.0
C678 C 0.47525 0.17744 0.72514 0.0
C679 C 0.45316 0.19497 0.73313 0.0
C680 C 0.43461 0.18726 0.75465 0.0
C681 C 0.43841 0.16192 0.76802 0.0
C682 C 0.46009 0.14462 0.76096 0.0
C683 C 0.45805 0.11754 0.77705 0.0
C684 C 0.45547 0.09306 0.75612 0.0
C685 C 0.48278 0.11387 0.79739 0.0
C686 C 0.43149 0.12212 0.79363 0.0
C687 C 0.42072 0.14799 0.78829 0.0
C688 C 0.39556 0.1565 0.79974 0.0
C689 C 0.38084 0.13801 0.81692 0.0
C690 C 0.39125 0.11125 0.82248 0.0
C691 C 0.41712 0.10341 0.81095 0.0
H692 H 0.19799 0.4652 0.74201 0.0
H693 H 0.12719 0.51925 0.73199 0.0
H694 H 0.1015 0.49171 0.76746 0.0
H695 H 0.16039 0.40315 0.7461 0.0
H696 H 0.18276 0.38746 0.77232 0.0
H697 H 0.19629 0.41282 0.748 0.0
H698 H 0.21359 0.44202 0.7911 0.0
H699 H 0.20007 0.41673 0.81559 0.0
H700 H 0.18955 0.45227 0.81866 0.0
H701 H 0.08229 0.45607 0.80125 0.0
H702 H 0.07132 0.41551 0.83106 0.0
H703 H 0.15479 0.38491 0.8189 0.0
C704 C 0.17712 0.47134 0.74729 0.0
C705 C 0.16468 0.49447 0.73416 0.0
C706 C 0.13737 0.50189 0.74198 0.0
C707 C 0.12254 0.48629 0.76205 0.0
C708 C 0.13536 0.46342 0.77427 0.0
C709 C 0.16208 0.45606 0.76728 0.0
C710 C 0.17076 0.42995 0.78258 0.0
C711 C 0.17796 0.407 0.76096 0.0
C712 C 0.19492 0.43559 0.80321 0.0
C713 C 0.14452 0.42343 0.7988 0.0
C714 C 0.12439 0.44306 0.79388 0.0
C715 C 0.09799 0.44073 0.80552 0.0
C716 C 0.09196 0.4176 0.82239 0.0
C717 C 0.11223 0.39709 0.82747 0.0
C718 C 0.13893 0.40035 0.81574 0.0
H719 H 0.36598 0.88404 0.24394 0.0
H720 H 0.41094 0.90719 0.16719 0.0
H721 H 0.45324 0.88591 0.18709 0.0
H722 H 0.41979 0.8979 0.29339 0.0
H723 H 0.41172 0.86919 0.31637 0.0
H724 H 0.38489 0.88513 0.29543 0.0
H725 H 0.37294 0.83784 0.27246 0.0
H726 H 0.39969 0.82172 0.29342 0.0
H727 H 0.39971 0.81821 0.25491 0.0
H728 H 0.49136 0.86378 0.21694 0.0
H729 H 0.52113 0.84111 0.25316 0.0
H730 H 0.45049 0.83304 0.30964 0.0
C731 C 0.38462 0.88445 0.23113 0.0
C732 C 0.38512 0.89726 0.20398 0.0
C733 C 0.41002 0.89741 0.18801 0.0
C734 C 0.43417 0.88542 0.19916 0.0
C735 C 0.43301 0.87328 0.22621 0.0
C736 C 0.40879 0.87259 0.24187 0.0
C737 C 0.41297 0.85881 0.27059 0.0
C738 C 0.407 0.87896 0.2954 0.0
C739 C 0.39528 0.83259 0.27297 0.0
C740 C 0.44337 0.85195 0.26878 0.0
C741 C 0.45467 0.86046 0.24309 0.0
C742 C 0.48266 0.85689 0.23706 0.0
C743 C 0.49944 0.84415 0.25779 0.0
C744 C 0.48813 0.83506 0.28413 0.0
C745 C 0.45971 0.83917 0.28952 0.0
H746 H 0.84179 0.5766 0.71236 0.0
H747 H 0.84739 0.50648 0.76959 0.0
H748 H 0.86982 0.53603 0.8062 0.0
H749 H 0.90691 0.60602 0.73019 0.0
H750 H 0.89492 0.64112 0.7276 0.0
H751 H 0.87873 0.6145 0.70648 0.0
H752 H 0.83112 0.62754 0.72802 0.0
H753 H 0.84718 0.65419 0.74925 0.0
H754 H 0.82675 0.62794 0.76642 0.0
H755 H 0.89191 0.57373 0.8365 0.0
H756 H 0.9134 0.61568 0.85701 0.0
H757 H 0.89307 0.66056 0.77936 0.0
C758 C 0.84737 0.56748 0.7327 0.0
C759 C 0.84267 0.53922 0.73815 0.0
C760 C 0.85095 0.52801 0.76486 0.0
C761 C 0.86354 0.54468 0.78584 0.0
C762 C 0.8678 0.57249 0.77973 0.0
C763 C 0.86004 0.58374 0.75374 0.0
C764 C 0.86757 0.61396 0.75205 0.0
C765 C 0.88826 0.61919 0.72764 0.0
C766 C 0.8416 0.63196 0.74875 0.0
C767 C 0.88085 0.61802 0.78114 0.0
C768 C 0.88068 0.59394 0.7969 0.0
C769 C 0.89209 0.59271 0.82435 0.0
C770 C 0.90421 0.61665 0.83584 0.0
C771 C 0.90492 0.64143 0.81982 0.0
C772 C 0.89286 0.642 0.79221 0.0
H773 H 0.60422 0.07684 0.22184 0.0
H774 H 0.65532 0.14181 0.18628 0.0
H775 H 0.62526 0.17677 0.20903 0.0
H776 H 0.53777 0.11274 0.21591 0.0
H777 H 0.5253 0.0994 0.24953 0.0
H778 H 0.54938 0.07956 0.22843 0.0
H779 H 0.58258 0.07696 0.27198 0.0
H780 H 0.55866 0.09681 0.29317 0.0
H781 H 0.5938 0.1084 0.28914 0.0
H782 H 0.59117 0.2045 0.23757 0.0
H783 H 0.55607 0.22318 0.27054 0.0
H784 H 0.52801 0.14009 0.28889 0.0
C785 C 0.60884 0.09842 0.2184 0.0
C786 C 0.63204 0.1066 0.20209 0.0
C787 C 0.63763 0.13506 0.1986 0.0
C788 C 0.62063 0.15506 0.21138 0.0
C789 C 0.59817 0.14628 0.22765 0.0
C790 C 0.59223 0.11864 0.2312 0.0
C791 C 0.56782 0.11466 0.25111 0.0
C792 C 0.54363 0.10077 0.23529 0.0
C793 C 0.57623 0.09824 0.27793 0.0
C794 C 0.56118 0.14438 0.25852 0.0
C795 C 0.5788 0.16227 0.24455 0.0
C796 C 0.57723 0.19068 0.24857 0.0
C797 C 0.55732 0.20108 0.26755 0.0
C798 C 0.53928 0.18316 0.28252 0.0
C799 C 0.54117 0.15442 0.27758 0.0
H800 H 0.63933 0.0311 0.79537 0.0
H801 H 0.72055 0.06651 0.78206 0.0
H802 H 0.70162 0.09655 0.7443 0.0
H803 H 0.61745 0.03236 0.71983 0.0
H804 H 0.58232 0.04146 0.72845 0.0
H805 H 0.60251 0.02142 0.75332 0.0
H806 H 0.59311 0.05753 0.79322 0.0
H807 H 0.57291 0.07765 0.7685 0.0
H808 H 0.60169 0.09318 0.78703 0.0
H809 H 0.67379 0.12442 0.70994 0.0
H810 H 0.63859 0.14899 0.68158 0.0
H811 H 0.57505 0.09554 0.71637 0.0
C812 C 0.65318 0.04486 0.78417 0.0
C813 C 0.68146 0.04647 0.79176 0.0
C814 C 0.6988 0.06513 0.77693 0.0
C815 C 0.68827 0.08214 0.75527 0.0
C816 C 0.66031 0.08027 0.74856 0.0
C817 C 0.64296 0.06212 0.76251 0.0
C818 C 0.61343 0.06522 0.752 0.0
C819 C 0.60334 0.03852 0.73754 0.0
C820 C 0.59416 0.07392 0.77666 0.0
C821 C 0.61689 0.08822 0.7303 0.0
C822 C 0.64415 0.09643 0.72855 0.0
C823 C 0.6524 0.11804 0.71093 0.0
C824 C 0.63222 0.1319 0.69491 0.0
C825 C 0.60405 0.12416 0.69659 0.0
C826 C 0.59643 0.10175 0.71429 0.0
H827 H 0.09932 0.44644 0.30146 0.0
H828 H 0.15337 0.38222 0.33389 0.0
H829 H 0.12432 0.34695 0.31039 0.0
H830 H 0.0351 0.40894 0.30842 0.0
H831 H 0.02071 0.42227 0.27558 0.0
H832 H 0.04528 0.44249 0.29567 0.0
H833 H 0.0763 0.44619 0.25059 0.0
H834 H 0.05187 0.42591 0.2304 0.0
H835 H 0.08745 0.41517 0.23259 0.0
H836 H 0.08926 0.31854 0.28379 0.0
H837 H 0.05144 0.29909 0.2544 0.0
H838 H 0.02092 0.3816 0.23783 0.0
C839 C 0.10493 0.42494 0.3038 0.0
C840 C 0.12857 0.4171 0.31967 0.0
C841 C 0.13538 0.38876 0.32187 0.0
C842 C 0.11898 0.36855 0.30862 0.0
C843 C 0.09593 0.37697 0.29303 0.0
C844 C 0.08894 0.40448 0.29042 0.0
C845 C 0.06349 0.40801 0.27178 0.0
C846 C 0.03974 0.4212 0.28889 0.0
C847 C 0.07019 0.42481 0.24474 0.0
C848 C 0.05725 0.37817 0.26438 0.0
C849 C 0.07612 0.36061 0.27702 0.0
C850 C 0.07438 0.33209 0.27374 0.0
C851 C 0.05278 0.32122 0.25712 0.0
C852 C 0.03329 0.3388 0.24376 0.0
C853 C 0.03572 0.36767 0.24745 0.0
H854 H 0.34936 0.94667 0.81937 0.0
H855 H 0.35072 0.01748 0.76276 0.0
H856 H 0.37283 0.98897 0.7251 0.0
H857 H 0.41467 0.91923 0.79888 0.0
H858 H 0.40375 0.88379 0.80146 0.0
H859 H 0.38761 0.90974 0.82348 0.0
H860 H 0.33963 0.89567 0.80352 0.0
H861 H 0.35564 0.86968 0.78141 0.0
H862 H 0.33389 0.89554 0.7653 0.0
H863 H 0.39497 0.9522 0.69359 0.0
H864 H 0.41662 0.911 0.6717 0.0
H865 H 0.40039 0.86475 0.74946 0.0
C866 C 0.35395 0.95617 0.79896 0.0
C867 C 0.34813 0.98433 0.79401 0.0
C868 C 0.35514 0.99603 0.76715 0.0
C869 C 0.36755 0.97995 0.74558 0.0
C870 C 0.3729 0.95223 0.75122 0.0
C871 C 0.36638 0.9405 0.77732 0.0
C872 C 0.3748 0.91046 0.77836 0.0
C873 C 0.3965 0.90553 0.80194 0.0
C874 C 0.34948 0.89174 0.78238 0.0
C875 C 0.38714 0.90705 0.74875 0.0
C876 C 0.38577 0.9313 0.73333 0.0
C877 C 0.39611 0.9331 0.70549 0.0
C878 C 0.40833 0.90957 0.69321 0.0
C879 C 0.41021 0.8846 0.70883 0.0
C880 C 0.39928 0.88346 0.7369 0.0
H881 H 0.88803 0.61893 0.32938 0.0
H882 H 0.94181 0.55028 0.35067 0.0
H883 H 0.9796 0.57191 0.32344 0.0
H884 H 0.91143 0.62758 0.25805 0.0
H885 H 0.90939 0.66469 0.25851 0.0
H886 H 0.88693 0.64473 0.28112 0.0
H887 H 0.90453 0.67136 0.32581 0.0
H888 H 0.92699 0.69151 0.30332 0.0
H889 H 0.94107 0.67261 0.3332 0.0
H890 H 0.01075 0.59947 0.29156 0.0
H891 H 0.0336 0.63207 0.25867 0.0
H892 H 0.95992 0.68299 0.25822 0.0
C893 C 0.90785 0.60861 0.32865 0.0
C894 C 0.91192 0.5829 0.34226 0.0
C895 C 0.93815 0.57 0.34052 0.0
C896 C 0.95978 0.58212 0.32508 0.0
C897 C 0.95496 0.60724 0.31158 0.0
C898 C 0.92973 0.62046 0.31335 0.0
C899 C 0.92979 0.64695 0.29616 0.0
C900 C 0.9081 0.64591 0.27203 0.0
C901 C 0.92534 0.67209 0.3158 0.0
C902 C 0.95888 0.64636 0.2842 0.0
C903 C 0.97304 0.62327 0.29336 0.0
C904 C 0.99992 0.61772 0.28439 0.0
C905 C 0.01267 0.63625 0.26555 0.0
C906 C 0.99859 0.66012 0.2559 0.0
C907 C 0.97137 0.66519 0.26555 0.0
H908 H 0.64841 0.99608 0.24403 0.0
H909 H 0.73117 0.9638 0.25548 0.0
H910 H 0.71224 0.9239 0.2818 0.0
H911 H 0.62361 0.97712 0.31388 0.0
H912 H 0.58937 0.96842 0.30165 0.0
H913 H 0.60929 0.99394 0.28279 0.0
H914 H 0.60349 0.96633 0.23549 0.0
H915 H 0.58348 0.94076 0.25417 0.0
H916 H 0.61373 0.9306 0.23424 0.0
H917 H 0.68437 0.88722 0.30599 0.0
H918 H 0.64961 0.85713 0.32862 0.0
H919 H 0.58486 0.91417 0.30357 0.0
C920 C 0.66245 0.98043 0.25186 0.0
C921 C 0.69125 0.98289 0.24765 0.0
C922 C 0.70908 0.96233 0.25865 0.0
C923 C 0.6985 0.93957 0.2735 0.0
C924 C 0.67004 0.93782 0.27744 0.0
C925 C 0.65224 0.95776 0.26712 0.0
C926 C 0.62259 0.95134 0.27513 0.0
C927 C 0.61051 0.97406 0.29452 0.0
C928 C 0.60478 0.947 0.24815 0.0
C929 C 0.62651 0.92462 0.29143 0.0
C930 C 0.65403 0.91711 0.2923 0.0
C931 C 0.66277 0.89294 0.30558 0.0
C932 C 0.64286 0.87596 0.31833 0.0
C933 C 0.61455 0.88336 0.31801 0.0
C934 C 0.60637 0.90809 0.30443 0.0
H935 H 0.92302 0.42945 0.71369 0.0
H936 H 0.84636 0.38516 0.72816 0.0
H937 H 0.87011 0.35479 0.76252 0.0
H938 H 0.96818 0.36969 0.71777 0.0
H939 H 0.99539 0.38816 0.73595 0.0
H940 H 0.97252 0.40617 0.71194 0.0
H941 H 0.96013 0.44054 0.75262 0.0
H942 H 0.98285 0.42255 0.77679 0.0
H943 H 0.9471 0.42759 0.78619 0.0
H944 H 0.90151 0.33021 0.79647 0.0
H945 H 0.93887 0.312 0.82674 0.0
H946 H 0.99573 0.37119 0.7895 0.0
C947 C 0.91126 0.41326 0.72394 0.0
C948 C 0.88278 0.40974 0.71817 0.0
C949 C 0.86817 0.38832 0.73215 0.0
C950 C 0.88147 0.37093 0.75175 0.0
C951 C 0.90944 0.37512 0.75714 0.0
C952 C 0.92424 0.39563 0.74357 0.0
C953 C 0.95411 0.39576 0.75343 0.0
C954 C 0.9737 0.38957 0.72827 0.0
C955 C 0.96147 0.42324 0.76813 0.0
C956 C 0.95368 0.37224 0.77478 0.0
C957 C 0.9277 0.36067 0.77657 0.0
C958 C 0.92203 0.33894 0.79508 0.0
C959 C 0.94352 0.32862 0.81212 0.0
C960 C 0.9705 0.3399 0.81055 0.0
C961 C 0.97544 0.36211 0.79155 0.0
H962 H 0.36071 0.13779 0.31198 0.0
H963 H 0.44254 0.10518 0.32934 0.0
H964 H 0.42966 0.06152 0.30539 0.0
H965 H 0.32271 0.07287 0.321 0.0
H966 H 0.29919 0.08038 0.29206 0.0
H967 H 0.31406 0.10812 0.31274 0.0
H968 H 0.33278 0.13018 0.26609 0.0
H969 H 0.31806 0.10251 0.24529 0.0
H970 H 0.35441 0.11003 0.24254 0.0
H971 H 0.40889 0.02261 0.27685 0.0
H972 H 0.38186 0.99133 0.24581 0.0
H973 H 0.31385 0.04961 0.24631 0.0
C974 C 0.3758 0.12132 0.31121 0.0
C975 C 0.40262 0.12489 0.32271 0.0
C976 C 0.42185 0.10292 0.3208 0.0
C977 C 0.41471 0.07802 0.30727 0.0
C978 C 0.38825 0.07537 0.29577 0.0
C979 C 0.36906 0.09639 0.29767 0.0
C980 C 0.34255 0.08886 0.28219 0.0
C981 C 0.31819 0.08747 0.30326 0.0
C982 C 0.33662 0.10909 0.25757 0.0
C983 C 0.34997 0.06049 0.27087 0.0
C984 C 0.37635 0.05303 0.27911 0.0
C985 C 0.38816 0.02819 0.27039 0.0
C986 C 0.37271 0.01064 0.25258 0.0
C987 C 0.34573 0.01799 0.24353 0.0
C988 C 0.33421 0.04317 0.25317 0.0
H989 H 0.14331 0.62733 0.72221 0.0
H990 H 0.08213 0.59206 0.66467 0.0
H991 H 0.04492 0.61212 0.69429 0.0
H992 H 0.10657 0.61441 0.78652 0.0
H993 H 0.11697 0.64593 0.80407 0.0
H994 H 0.13893 0.63049 0.77732 0.0
H995 H 0.13872 0.67605 0.74845 0.0
H996 H 0.11685 0.69169 0.7752 0.0
H997 H 0.10623 0.69126 0.73812 0.0
H998 H 0.01431 0.63439 0.73113 0.0
H999 H 0.99241 0.65758 0.77229 0.0
H1000 H 0.07338 0.67735 0.80682 0.0
C1001 C 0.1221 0.62418 0.71557 0.0
C1002 C 0.11566 0.60824 0.69097 0.0
C1003 C 0.08761 0.60425 0.68334 0.0
C1004 C 0.06631 0.61557 0.70003 0.0
C1005 C 0.07336 0.63081 0.72436 0.0
C1006 C 0.10056 0.6352 0.7321 0.0
C1007 C 0.10247 0.65143 0.75991 0.0
C1008 C 0.1171 0.63455 0.78334 0.0
C1009 C 0.11692 0.67926 0.75512 0.0
C1010 C 0.0721 0.65532 0.76668 0.0
C1011 C 0.05568 0.64335 0.74583 0.0
C1012 C 0.02697 0.64385 0.74758 0.0
C1013 C 0.01471 0.65692 0.77125 0.0
C1014 C 0.03107 0.66929 0.79304 0.0
C1015 C 0.0602 0.66844 0.79049 0.0
H1016 H 0.24277 0.54006 0.56768 0.0
H1017 H 0.1549 0.55329 0.57986 0.0
H1018 H 0.14572 0.53159 0.53267 0.0
H1019 H 0.24389 0.554 0.49161 0.0
H1020 H 0.26952 0.52795 0.4843 0.0
H1021 H 0.26883 0.5449 0.51873 0.0
H1022 H 0.26533 0.49738 0.54376 0.0
H1023 H 0.26573 0.4803 0.50939 0.0
H1024 H 0.23776 0.47417 0.53404 0.0
H1025 H 0.14633 0.50693 0.4842 0.0
H1026 H 0.15692 0.48436 0.43777 0.0
H1027 H 0.24439 0.48789 0.45794 0.0
C1028 C 0.22157 0.5386 0.56041 0.0
C1029 C 0.19956 0.54842 0.57754 0.0
C1030 C 0.17214 0.54603 0.56712 0.0
C1031 C 0.16671 0.53362 0.54037 0.0
C1032 C 0.18891 0.52379 0.52425 0.0
C1033 C 0.21581 0.52638 0.53383 0.0
C1034 C 0.23607 0.51429 0.51249 0.0
C1035 C 0.25573 0.53662 0.50111 0.0
C1036 C 0.25216 0.4901 0.52572 0.0
C1037 C 0.21641 0.50442 0.48937 0.0
C1038 C 0.18928 0.50994 0.49653 0.0
C1039 C 0.16753 0.50259 0.47839 0.0
C1040 C 0.17374 0.48967 0.4521 0.0
C1041 C 0.20148 0.48432 0.44414 0.0
C1042 C 0.22295 0.49165 0.46329 0.0
H1043 H 0.54245 0.76923 0.4536 0.0
H1044 H 0.54931 0.85601 0.43222 0.0
H1045 H 0.52694 0.86824 0.47824 0.0
H1046 H 0.4763 0.77276 0.48637 0.0
H1047 H 0.48429 0.748 0.51392 0.0
H1048 H 0.50155 0.74616 0.47977 0.0
H1049 H 0.54911 0.74868 0.50523 0.0
H1050 H 0.532 0.75024 0.53948 0.0
H1051 H 0.5562 0.77677 0.52958 0.0
H1052 H 0.50217 0.87071 0.52623 0.0
H1053 H 0.47995 0.86336 0.57333 0.0
H1054 H 0.48983 0.77492 0.56283 0.0
C1055 C 0.53948 0.79084 0.45862 0.0
C1056 C 0.54767 0.81166 0.43925 0.0
C1057 C 0.54333 0.83969 0.44673 0.0
C1058 C 0.53053 0.84683 0.47278 0.0
C1059 C 0.5223 0.82573 0.49115 0.0
C1060 C 0.52685 0.79832 0.48448 0.0
C1061 C 0.5161 0.77952 0.50781 0.0
C1062 C 0.4932 0.7605 0.49627 0.0
C1063 C 0.53977 0.76283 0.52133 0.0
C1064 C 0.50467 0.8006 0.52865 0.0
C1065 C 0.50833 0.82715 0.51866 0.0
C1066 C 0.49929 0.85001 0.53427 0.0
C1067 C 0.48658 0.84561 0.56096 0.0
C1068 C 0.48311 0.81856 0.57183 0.0
C1069 C 0.49212 0.79586 0.5552 0.0
H1070 H 0.86451 0.56258 0.48254 0.0
H1071 H 0.84043 0.49063 0.43282 0.0
H1072 H 0.83967 0.46283 0.47707 0.0
H1073 H 0.90858 0.52573 0.53434 0.0
H1074 H 0.898 0.54745 0.5638 0.0
H1075 H 0.89886 0.56106 0.52788 0.0
H1076 H 0.84749 0.57546 0.53242 0.0
H1077 H 0.84645 0.56183 0.56825 0.0
H1078 H 0.82206 0.54989 0.54175 0.0
H1079 H 0.83697 0.444 0.52747 0.0
H1080 H 0.83465 0.43533 0.5797 0.0
H1081 H 0.86199 0.51912 0.59613 0.0
C1082 C 0.85952 0.54088 0.48085 0.0
C1083 C 0.85256 0.52882 0.45414 0.0
C1084 C 0.84595 0.50036 0.45297 0.0
C1085 C 0.84545 0.48436 0.47802 0.0
C1086 C 0.85189 0.49703 0.50407 0.0
C1087 C 0.85908 0.52458 0.5056 0.0
C1088 C 0.864 0.53351 0.53636 0.0
C1089 C 0.89415 0.54246 0.54085 0.0
C1090 C 0.84379 0.55652 0.5452 0.0
C1091 C 0.85785 0.50686 0.55195 0.0
C1092 C 0.85095 0.48602 0.53297 0.0
C1093 C 0.84277 0.46004 0.5425 0.0
C1094 C 0.84144 0.45532 0.5722 0.0
C1095 C 0.84841 0.47642 0.592 0.0
C1096 C 0.85703 0.50238 0.58158 0.0
H1097 H 0.47237 0.13912 0.45161 0.0
H1098 H 0.48542 0.22491 0.42902 0.0
H1099 H 0.50901 0.23269 0.4753 0.0
H1100 H 0.45822 0.15213 0.52707 0.0
H1101 H 0.47522 0.12112 0.53893 0.0
H1102 H 0.45948 0.1223 0.50393 0.0
H1103 H 0.50603 0.10794 0.48094 0.0
H1104 H 0.522 0.10703 0.51585 0.0
H1105 H 0.53651 0.12822 0.48799 0.0
H1106 H 0.53313 0.23073 0.5229 0.0
H1107 H 0.55137 0.22066 0.57115 0.0
H1108 H 0.52079 0.13673 0.56428 0.0
C1109 C 0.48006 0.15958 0.45648 0.0
C1110 C 0.47709 0.1814 0.43663 0.0
C1111 C 0.48731 0.2079 0.4439 0.0
C1112 C 0.5009 0.21249 0.47008 0.0
C1113 C 0.50385 0.19047 0.48896 0.0
C1114 C 0.49334 0.16465 0.48274 0.0
C1115 C 0.49861 0.14476 0.50722 0.0
C1116 C 0.47125 0.13448 0.52005 0.0
C1117 C 0.51688 0.12056 0.4974 0.0
C1118 C 0.5139 0.16341 0.52805 0.0
C1119 C 0.51694 0.1896 0.51692 0.0
C1120 C 0.53072 0.21034 0.53192 0.0
C1121 C 0.54115 0.20435 0.55929 0.0
C1122 C 0.53751 0.17791 0.57159 0.0
C1123 C 0.52389 0.15715 0.55553 0.0
H1124 H 0.67432 0.07459 0.05944 0.0
H1125 H 0.69589 1.0004 0.10628 0.0
H1126 H 0.69542 0.97386 0.06095 0.0
H1127 H 0.62821 0.04104 1.0076 0.0
H1128 H 0.63895 0.06303 0.97859 0.0
H1129 H 0.63956 0.07575 0.01495 0.0
H1130 H 0.69134 0.08809 1.00941 0.0
H1131 H 0.69094 0.07528 0.97313 0.0
H1132 H 0.71545 0.06171 0.99857 0.0
H1133 H 0.69631 0.95619 1.00974 0.0
H1134 H 0.69548 0.94835 0.95725 0.0
H1135 H 0.67169 0.0337 0.94437 0.0
C1136 C 0.67862 0.05269 0.06026 0.0
C1137 C 0.68515 0.03961 0.08647 0.0
C1138 C 0.69071 0.0109 0.08652 0.0
C1139 C 0.69056 0.99564 0.06085 0.0
C1140 C 0.68451 1.00928 0.03533 0.0
C1141 C 0.67832 0.03711 0.0349 0.0
C1142 C 0.67301 0.04699 1.00458 0.0
C1143 C 0.64315 0.05731 1.00124 0.0
C1144 C 0.69394 0.06933 0.99593 0.0
C1145 C 0.67766 0.02051 0.98796 0.0
C1146 C 0.68432 0.99898 1.00604 0.0
C1147 C 0.69078 0.97283 0.99542 0.0
C1148 C 0.69034 0.96858 0.96558 0.0
C1149 C 0.68331 0.99032 0.9467 0.0
C1150 C 0.67677 0.01654 0.95821 0.0
H1151 H 1.00803 0.36187 0.95619 0.0
H1152 H 0.08855 0.32243 0.95647 0.0
H1153 H 0.08607 0.31806 1.00918 0.0
H1154 H 0.01597 0.3997 0.02404 0.0
H1155 H 0.98053 0.39426 0.03437 0.0
H1156 H 0.98958 0.39634 0.99694 0.0
H1157 H 0.96698 0.34867 0.98783 0.0
H1158 H 0.95784 0.34647 0.02517 0.0
H1159 H 0.97796 0.31943 1.00874 0.0
H1160 H 0.07356 0.31518 0.0613 0.0
H1161 H 0.05156 0.313 0.10893 0.0
H1162 H 0.97909 0.35434 0.07495 0.0
C1163 C 0.02534 0.35266 0.96734 0.0
C1164 C 0.04856 0.3426 0.95216 0.0
C1165 C 0.07057 0.33035 0.9676 0.0
C1166 C 0.06939 0.32785 0.99756 0.0
C1167 C 0.04609 0.33775 1.01182 0.0
C1168 C 0.02446 0.34992 0.99724 0.0
C1169 C 1.0011 0.35744 0.01747 0.0
C1170 C 0.99654 0.3888 0.01825 0.0
C1171 C 0.9744 0.34208 1.00931 0.0
C1172 C 0.01277 0.34712 0.04565 0.0
C1173 C 0.03884 0.33605 0.04193 0.0
C1174 C 0.05327 0.32403 0.06452 0.0
C1175 C 0.04057 0.32287 0.09151 0.0
C1176 C 0.01366 0.33363 0.09576 0.0
C1177 C 0.99983 0.34631 0.07254 0.0
H1178 H 0.28033 0.05548 0.9668 0.0
H1179 H 0.36627 0.04973 0.94113 0.0
H1180 H 0.3784 0.03238 0.98936 0.0
H1181 H 0.29352 0.07688 0.0415 0.0
H1182 H 0.26487 0.05707 0.05498 0.0
H1183 H 0.26356 0.07115 0.01928 0.0
H1184 H 0.25419 0.02233 0.99866 0.0
H1185 H 0.25562 1.00809 0.03422 0.0
H1186 H 0.27796 0.99474 1.00655 0.0
H1187 H 0.38015 0.01108 0.0389 0.0
H1188 H 0.37172 0.99003 0.0864 0.0
H1189 H 0.28493 0.01144 0.07975 0.0
C1190 C 0.30179 0.05098 0.97141 0.0
C1191 C 0.32235 0.05396 0.95018 0.0
C1192 C 0.35017 0.04775 0.95709 0.0
C1193 C 0.35726 0.03785 0.98442 0.0
C1194 C 0.33634 0.03462 1.00468 0.0
C1195 C 0.30922 0.04134 0.99859 0.0
C1196 C 0.29044 0.03507 0.02367 0.0
C1197 C 0.27733 0.06163 0.03556 0.0
C1198 C 0.26826 0.01379 0.01526 0.0
C1199 C 0.31108 0.02309 0.04459 0.0
C1200 C 0.33747 0.02304 0.03333 0.0
C1201 C 0.35964 0.01141 0.0481 0.0
C1202 C 0.35465 0.99943 0.07501 0.0
C1203 C 0.32773 0.99931 0.08689 0.0
C1204 C 0.30583 0.01159 0.0715 0.0
H1205 H 0.02008 0.67184 0.9588 0.0
H1206 H 0.93599 0.70299 0.96015 0.0
H1207 H 0.9381 0.70641 1.0129 0.0
H1208 H 0.01592 0.63165 0.02472 0.0
H1209 H 0.05053 0.6402 0.03591 0.0
H1210 H 0.04209 0.63874 0.99826 0.0
H1211 H 0.05979 0.68875 0.99193 0.0
H1212 H 0.06832 0.69034 0.02951 0.0
H1213 H 0.04573 0.71587 1.01408 0.0
H1214 H 0.94954 0.70793 0.06506 0.0
H1215 H 0.97001 0.70896 0.11341 0.0
H1216 H 0.04712 0.67737 0.07891 0.0
C1217 C 1.00202 0.67914 0.9702 0.0
C1218 C 0.9778 0.68705 0.95527 0.0
C1219 C 0.95475 0.69679 0.97103 0.0
C1220 C 0.95572 0.69874 1.00104 0.0
C1221 C 0.97989 0.69091 0.01505 0.0
C1222 C 1.00267 0.68137 1.00022 0.0
C1223 C 0.02649 0.67542 0.02051 0.0
C1224 C 0.0342 0.64467 0.0198 0.0
C1225 C 0.05156 0.69369 1.01359 0.0
C1226 C 0.01359 0.68337 0.04902 0.0
C1227 C 0.98663 0.69205 0.04532 0.0
C1228 C 0.97058 0.70108 0.06825 0.0
C1229 C 0.98246 0.70159 0.09568 0.0
C1230 C 1.0102 0.69322 0.10006 0.0
C1231 C 0.02582 0.6837 0.07635 0.0
loop_
_geom_bond_atom_site_label_1
_geom_bond_atom_site_label_2
_geom_bond_distance
_geom_bond_site_symmetry_2
_ccdc_geom_bond_type
Cu0 N1 1.999 . S
Cu0 O6 1.974 . S
Cu0 N11 1.985 . S
Cu0 O20 1.959 . S
N1 Cu0 1.999 . S
N1 C3 1.263 . S
N1 C5 1.389 . S
N2 C3 1.358 . S
N2 C4 1.400 . S
C3 N1 1.263 . S
C3 N2 1.358 . S
C3 H9 0.930 . S
C4 N2 1.400 . S
C4 C5 1.351 . S
C4 H21 0.930 . S
C5 N1 1.389 . S
C5 C4 1.351 . S
C5 H10 0.930 . S
O6 Cu0 1.974 . S
O6 C16 1.282 . S
C7 O8 1.261 . S
C7 O20 1.251 . S
O8 C7 1.261 . S
H9 C3 0.930 . S
H10 C5 0.930 . S
N11 Cu0 1.985 . S
N11 C13 1.335 . S
N11 C14 1.390 . S
N12 C13 1.345 . S
N12 C15 1.336 . S
C13 N11 1.335 . S
C13 N12 1.345 . S
C13 H18 0.930 . S
C14 N11 1.390 . S
C14 C15 1.346 . S
C14 H19 0.930 . S
C15 N12 1.336 . S
C15 C14 1.346 . S
C15 H22 0.929 . S
C16 O6 1.282 . S
C16 O17 1.216 . S
O17 C16 1.216 . S
H18 C13 0.930 . S
H19 C14 0.930 . S
O20 Cu0 1.959 . S
O20 C7 1.251 . S
H21 C4 0.930 . S
H22 C15 0.929 . S
Cu23 N24 1.999 . S
Cu23 O29 1.974 . S
Cu23 N34 1.985 . S
Cu23 O43 1.959 . S
N24 Cu23 1.999 . S
N24 C26 1.263 . S
N24 C28 1.389 . S
N25 C26 1.358 . S
N25 C27 1.400 . S
C26 N24 1.263 . S
C26 N25 1.358 . S
C26 H32 0.930 . S
C27 N25 1.400 . S
C27 C28 1.351 . S
C27 H44 0.930 . S
C28 N24 1.389 . S
C28 C27 1.351 . S
C28 H33 0.930 . S
O29 Cu23 1.974 . S
O29 C39 1.282 . S
C30 O31 1.261 . S
C30 O43 1.251 . S
O31 C30 1.261 . S
H32 C26 0.930 . S
H33 C28 0.930 . S
N34 Cu23 1.985 . S
N34 C36 1.335 . S
N34 C37 1.390 . S
N35 C36 1.345 . S
N35 C38 1.336 . S
C36 N34 1.335 . S
C36 N35 1.345 . S
C36 H41 0.930 . S
C37 N34 1.390 . S
C37 C38 1.346 . S
C37 H42 0.930 . S
C38 N35 1.336 . S
C38 C37 1.346 . S
C38 H45 0.929 . S
C39 O29 1.282 . S
C39 O40 1.216 . S
O40 C39 1.216 . S
H41 C36 0.930 . S
H42 C37 0.930 . S
O43 Cu23 1.959 . S
O43 C30 1.251 . S
H44 C27 0.930 . S
H45 C38 0.929 . S
Cu46 N47 1.999 . S
Cu46 O52 1.974 . S
Cu46 N57 1.985 . S
Cu46 O66 1.959 . S
N47 Cu46 1.999 . S
N47 C49 1.263 . S
N47 C51 1.389 . S
N48 C49 1.358 . S
N48 C50 1.400 . S
C49 N47 1.263 . S
C49 N48 1.358 . S
C49 H55 0.930 . S
C50 N48 1.400 . S
C50 C51 1.351 . S
C50 H67 0.930 . S
C51 N47 1.389 . S
C51 C50 1.351 . S
C51 H56 0.930 . S
O52 Cu46 1.974 . S
O52 C62 1.282 . S
C53 O54 1.261 . S
C53 O66 1.251 . S
O54 C53 1.261 . S
H55 C49 0.930 . S
H56 C51 0.930 . S
N57 Cu46 1.985 . S
N57 C59 1.335 . S
N57 C60 1.390 . S
N58 C59 1.345 . S
N58 C61 1.336 . S
C59 N57 1.335 . S
C59 N58 1.345 . S
C59 H64 0.930 . S
C60 N57 1.390 . S
C60 C61 1.346 . S
C60 H65 0.930 . S
C61 N58 1.336 . S
C61 C60 1.346 . S
C61 H68 0.929 . S
C62 O52 1.282 . S
C62 O63 1.216 . S
O63 C62 1.216 . S
H64 C59 0.930 . S
H65 C60 0.930 . S
O66 Cu46 1.959 . S
O66 C53 1.251 . S
H67 C50 0.930 . S
H68 C61 0.929 . S
Cu69 N70 1.999 . S
Cu69 O75 1.974 . S
Cu69 N80 1.985 . S
Cu69 O89 1.959 . S
N70 Cu69 1.999 . S
N70 C72 1.263 . S
N70 C74 1.389 . S
N71 C72 1.358 . S
N71 C73 1.400 . S
C72 N70 1.263 . S
C72 N71 1.358 . S
C72 H78 0.930 . S
C73 N71 1.400 . S
C73 C74 1.351 . S
C73 H90 0.930 . S
C74 N70 1.389 . S
C74 C73 1.351 . S
C74 H79 0.930 . S
O75 Cu69 1.974 . S
O75 C85 1.282 . S
C76 O77 1.261 . S
C76 O89 1.251 . S
O77 C76 1.261 . S
H78 C72 0.930 . S
H79 C74 0.930 . S
N80 Cu69 1.985 . S
N80 C82 1.335 . S
N80 C83 1.390 . S
N81 C82 1.345 . S
N81 C84 1.336 . S
C82 N80 1.335 . S
C82 N81 1.345 . S
C82 H87 0.930 . S
C83 N80 1.390 . S
C83 C84 1.346 . S
C83 H88 0.930 . S
C84 N81 1.336 . S
C84 C83 1.346 . S
C84 H91 0.929 . S
C85 O75 1.282 . S
C85 O86 1.216 . S
O86 C85 1.216 . S
H87 C82 0.930 . S
H88 C83 0.930 . S
O89 Cu69 1.959 . S
O89 C76 1.251 . S
H90 C73 0.930 . S
H91 C84 0.929 . S
Cu92 N93 1.999 . S
Cu92 O98 1.974 . S
Cu92 N103 1.985 . S
Cu92 O112 1.959 . S
N93 Cu92 1.999 . S
N93 C95 1.263 . S
N93 C97 1.389 . S
N94 C95 1.358 . S
N94 C96 1.400 . S
C95 N93 1.263 . S
C95 N94 1.358 . S
C95 H101 0.930 . S
C96 N94 1.400 . S
C96 C97 1.351 . S
C96 H113 0.930 . S
C97 N93 1.389 . S
C97 C96 1.351 . S
C97 H102 0.930 . S
O98 Cu92 1.974 . S
O98 C108 1.282 . S
C99 O100 1.261 . S
C99 O112 1.251 . S
O100 C99 1.261 . S
H101 C95 0.930 . S
H102 C97 0.930 . S
N103 Cu92 1.985 . S
N103 C105 1.335 . S
N103 C106 1.390 . S
N104 C105 1.345 . S
N104 C107 1.336 . S
C105 N103 1.335 . S
C105 N104 1.345 . S
C105 H110 0.930 . S
C106 N103 1.390 . S
C106 C107 1.346 . S
C106 H111 0.930 . S
C107 N104 1.336 . S
C107 C106 1.346 . S
C107 H114 0.929 . S
C108 O98 1.282 . S
C108 O109 1.216 . S
O109 C108 1.216 . S
H110 C105 0.930 . S
H111 C106 0.930 . S
O112 Cu92 1.959 . S
O112 C99 1.251 . S
H113 C96 0.930 . S
H114 C107 0.929 . S
Cu115 N116 1.999 . S
Cu115 O121 1.974 . S
Cu115 N126 1.985 . S
Cu115 O135 1.959 . S
N116 Cu115 1.999 . S
N116 C118 1.263 . S
N116 C120 1.389 . S
N117 C118 1.358 . S
N117 C119 1.400 . S
C118 N116 1.263 . S
C118 N117 1.358 . S
C118 H124 0.930 . S
C119 N117 1.400 . S
C119 C120 1.351 . S
C119 H136 0.930 . S
C120 N116 1.389 . S
C120 C119 1.351 . S
C120 H125 0.930 . S
O121 Cu115 1.974 . S
O121 C131 1.282 . S
C122 O123 1.261 . S
C122 O135 1.251 . S
O123 C122 1.261 . S
H124 C118 0.930 . S
H125 C120 0.930 . S
N126 Cu115 1.985 . S
N126 C128 1.335 . S
N126 C129 1.390 . S
N127 C128 1.345 . S
N127 C130 1.336 . S
C128 N126 1.335 . S
C128 N127 1.345 . S
C128 H133 0.930 . S
C129 N126 1.390 . S
C129 C130 1.346 . S
C129 H134 0.930 . S
C130 N127 1.336 . S
C130 C129 1.346 . S
C130 H137 0.929 . S
C131 O121 1.282 . S
C131 O132 1.216 . S
O132 C131 1.216 . S
H133 C128 0.930 . S
H134 C129 0.930 . S
O135 Cu115 1.959 . S
O135 C122 1.251 . S
H136 C119 0.930 . S
H137 C130 0.929 . S
Cu138 N139 1.999 . S
Cu138 O144 1.974 . S
Cu138 N149 1.985 . S
Cu138 O158 1.959 . S
N139 Cu138 1.999 . S
N139 C141 1.263 . S
N139 C143 1.389 . S
N140 C141 1.358 . S
N140 C142 1.400 . S
C141 N139 1.263 . S
C141 N140 1.358 . S
C141 H147 0.930 . S
C142 N140 1.400 . S
C142 C143 1.351 . S
C142 H159 0.930 . S
C143 N139 1.389 . S
C143 C142 1.351 . S
C143 H148 0.930 . S
O144 Cu138 1.974 . S
O144 C154 1.282 . S
C145 O146 1.261 . S
C145 O158 1.251 . S
O146 C145 1.261 . S
H147 C141 0.930 . S
H148 C143 0.930 . S
N149 Cu138 1.985 . S
N149 C151 1.335 . S
N149 C152 1.390 . S
N150 C151 1.345 . S
N150 C153 1.336 . S
C151 N149 1.335 . S
C151 N150 1.345 . S
C151 H156 0.930 . S
C152 N149 1.390 . S
C152 C153 1.346 . S
C152 H157 0.930 . S
C153 N150 1.336 . S
C153 C152 1.346 . S
C153 H160 0.929 . S
C154 O144 1.282 . S
C154 O155 1.216 . S
O155 C154 1.216 . S
H156 C151 0.930 . S
H157 C152 0.930 . S
O158 Cu138 1.959 . S
O158 C145 1.251 . S
H159 C142 0.930 . S
H160 C153 0.929 . S
Cu161 N162 1.999 . S
Cu161 O167 1.974 . S
Cu161 N172 1.985 . S
Cu161 O181 1.959 . S
N162 Cu161 1.999 . S
N162 C164 1.263 . S
N162 C166 1.389 . S
N163 C164 1.358 . S
N163 C165 1.400 . S
C164 N162 1.263 . S
C164 N163 1.358 . S
C164 H170 0.930 . S
C165 N163 1.400 . S
C165 C166 1.351 . S
C165 H182 0.930 . S
C166 N162 1.389 . S
C166 C165 1.351 . S
C166 H171 0.930 . S
O167 Cu161 1.974 . S
O167 C177 1.282 . S
C168 O169 1.261 . S
C168 O181 1.251 . S
O169 C168 1.261 . S
H170 C164 0.930 . S
H171 C166 0.930 . S
N172 Cu161 1.985 . S
N172 C174 1.335 . S
N172 C175 1.390 . S
N173 C174 1.345 . S
N173 C176 1.336 . S
C174 N172 1.335 . S
C174 N173 1.345 . S
C174 H179 0.930 . S
C175 N172 1.390 . S
C175 C176 1.346 . S
C175 H180 0.930 . S
C176 N173 1.336 . S
C176 C175 1.346 . S
C176 H183 0.929 . S
C177 O167 1.282 . S
C177 O178 1.216 . S
O178 C177 1.216 . S
H179 C174 0.930 . S
H180 C175 0.930 . S
O181 Cu161 1.959 . S
O181 C168 1.251 . S
H182 C165 0.930 . S
H183 C176 0.929 . S
Cu184 N185 1.999 1_565 S
Cu184 O190 1.974 . S
Cu184 N195 1.985 . S
Cu184 O204 1.959 . S
N185 Cu184 1.999 1_545 S
N185 C187 1.263 . S
N185 C189 1.389 . S
N186 C187 1.358 . S
N186 C188 1.400 . S
C187 N185 1.263 . S
C187 N186 1.358 . S
C187 H193 0.930 1_545 S
C188 N186 1.400 . S
C188 C189 1.351 . S
C188 H205 0.930 . S
C189 N185 1.389 . S
C189 C188 1.351 . S
C189 H194 0.930 . S
O190 Cu184 1.974 . S
O190 C200 1.282 . S
C191 O192 1.261 . S
C191 O204 1.251 . S
O192 C191 1.261 . S
H193 C187 0.930 1_565 S
H194 C189 0.930 . S
N195 Cu184 1.985 . S
N195 C197 1.335 . S
N195 C198 1.390 . S
N196 C197 1.345 . S
N196 C199 1.336 . S
C197 N195 1.335 . S
C197 N196 1.345 . S
C197 H202 0.930 . S
C198 N195 1.390 . S
C198 C199 1.346 . S
C198 H203 0.930 . S
C199 N196 1.336 . S
C199 C198 1.346 . S
C199 H206 0.929 . S
C200 O190 1.282 . S
C200 O201 1.216 . S
O201 C200 1.216 . S
H202 C197 0.930 . S
H203 C198 0.930 . S
O204 Cu184 1.959 . S
O204 C191 1.251 . S
H205 C188 0.930 . S
H206 C199 0.929 . S
Cu207 N208 1.999 1_655 S
Cu207 O213 1.974 . S
Cu207 N218 1.985 . S
Cu207 O227 1.959 . S
N208 Cu207 1.999 1_455 S
N208 C210 1.263 . S
N208 C212 1.389 . S
N209 C210 1.358 . S
N209 C211 1.400 . S
C210 N208 1.263 . S
C210 N209 1.358 . S
C210 H216 0.930 1_455 S
C211 N209 1.400 . S
C211 C212 1.351 . S
C211 H228 0.930 . S
C212 N208 1.389 . S
C212 C211 1.351 . S
C212 H217 0.930 . S
O213 Cu207 1.974 . S
O213 C223 1.282 . S
C214 O215 1.261 . S
C214 O227 1.251 . S
O215 C214 1.261 . S
H216 C210 0.930 1_655 S
H217 C212 0.930 . S
N218 Cu207 1.985 . S
N218 C220 1.335 . S
N218 C221 1.390 . S
N219 C220 1.345 . S
N219 C222 1.336 . S
C220 N218 1.335 . S
C220 N219 1.345 . S
C220 H225 0.930 . S
C221 N218 1.390 . S
C221 C222 1.346 . S
C221 H226 0.930 . S
C222 N219 1.336 . S
C222 C221 1.346 . S
C222 H229 0.929 . S
C223 O213 1.282 . S
C223 O224 1.216 . S
O224 C223 1.216 . S
H225 C220 0.930 . S
H226 C221 0.930 . S
O227 Cu207 1.959 . S
O227 C214 1.251 . S
H228 C211 0.930 . S
H229 C222 0.929 . S
Cu230 N231 1.999 1_545 S
Cu230 O236 1.974 . S
Cu230 N241 1.985 . S
Cu230 O250 1.959 . S
N231 Cu230 1.999 1_565 S
N231 C233 1.263 . S
N231 C235 1.389 . S
N232 C233 1.358 . S
N232 C234 1.400 . S
C233 N231 1.263 . S
C233 N232 1.358 . S
C233 H239 0.930 1_565 S
C234 N232 1.400 . S
C234 C235 1.351 . S
C234 H251 0.930 . S
C235 N231 1.389 . S
C235 C234 1.351 . S
C235 H240 0.930 . S
O236 Cu230 1.974 . S
O236 C246 1.282 . S
C237 O238 1.261 . S
C237 O250 1.251 . S
O238 C237 1.261 . S
H239 C233 0.930 1_545 S
H240 C235 0.930 . S
N241 Cu230 1.985 . S
N241 C243 1.335 . S
N241 C244 1.390 . S
N242 C243 1.345 . S
N242 C245 1.336 . S
C243 N241 1.335 . S
C243 N242 1.345 . S
C243 H248 0.930 . S
C244 N241 1.390 . S
C244 C245 1.346 . S
C244 H249 0.930 . S
C245 N242 1.336 . S
C245 C244 1.346 . S
C245 H252 0.929 . S
C246 O236 1.282 . S
C246 O247 1.216 . S
O247 C246 1.216 . S
H248 C243 0.930 . S
H249 C244 0.930 . S
O250 Cu230 1.959 . S
O250 C237 1.251 . S
H251 C234 0.930 . S
H252 C245 0.929 . S
Cu253 N254 1.999 1_455 S
Cu253 O259 1.974 . S
Cu253 N264 1.985 . S
Cu253 O273 1.959 . S
N254 Cu253 1.999 1_655 S
N254 C256 1.263 . S
N254 C258 1.389 . S
N255 C256 1.358 . S
N255 C257 1.400 . S
C256 N254 1.263 . S
C256 N255 1.358 . S
C256 H262 0.930 1_655 S
C257 N255 1.400 . S
C257 C258 1.351 . S
C257 H274 0.930 . S
C258 N254 1.389 . S
C258 C257 1.351 . S
C258 H263 0.930 . S
O259 Cu253 1.974 . S
O259 C269 1.282 . S
C260 O261 1.261 . S
C260 O273 1.251 . S
O261 C260 1.261 . S
H262 C256 0.930 1_455 S
H263 C258 0.930 . S
N264 Cu253 1.985 . S
N264 C266 1.335 . S
N264 C267 1.390 . S
N265 C266 1.345 . S
N265 C268 1.336 . S
C266 N264 1.335 . S
C266 N265 1.345 . S
C266 H271 0.930 . S
C267 N264 1.390 . S
C267 C268 1.346 . S
C267 H272 0.930 . S
C268 N265 1.336 . S
C268 C267 1.346 . S
C268 H275 0.929 . S
C269 O259 1.282 . S
C269 O270 1.216 . S
O270 C269 1.216 . S
H271 C266 0.930 . S
H272 C267 0.930 . S
O273 Cu253 1.959 . S
O273 C260 1.251 . S
H274 C257 0.930 . S
H275 C268 0.929 . S
Cu276 N277 1.999 1_545 S
Cu276 O282 1.974 . S
Cu276 N287 1.985 . S
Cu276 O296 1.959 . S
N277 Cu276 1.999 1_565 S
N277 C279 1.263 . S
N277 C281 1.389 . S
N278 C279 1.358 . S
N278 C280 1.400 . S
C279 N277 1.263 . S
C279 N278 1.358 . S
C279 H285 0.930 1_565 S
C280 N278 1.400 . S
C280 C281 1.351 . S
C280 H297 0.930 . S
C281 N277 1.389 . S
C281 C280 1.351 . S
C281 H286 0.930 . S
O282 Cu276 1.974 . S
O282 C292 1.282 . S
C283 O284 1.261 . S
C283 O296 1.251 . S
O284 C283 1.261 . S
H285 C279 0.930 1_545 S
H286 C281 0.930 . S
N287 Cu276 1.985 . S
N287 C289 1.335 . S
N287 C290 1.390 . S
N288 C289 1.345 . S
N288 C291 1.336 . S
C289 N287 1.335 . S
C289 N288 1.345 . S
C289 H294 0.930 . S
C290 N287 1.390 . S
C290 C291 1.346 . S
C290 H295 0.930 . S
C291 N288 1.336 . S
C291 C290 1.346 . S
C291 H298 0.929 . S
C292 O282 1.282 . S
C292 O293 1.216 . S
O293 C292 1.216 . S
H294 C289 0.930 . S
H295 C290 0.930 . S
O296 Cu276 1.959 . S
O296 C283 1.251 . S
H297 C280 0.930 . S
H298 C291 0.929 . S
Cu299 N300 1.999 1_455 S
Cu299 O305 1.974 . S
Cu299 N310 1.985 . S
Cu299 O319 1.959 . S
N300 Cu299 1.999 1_655 S
N300 C302 1.263 . S
N300 C304 1.389 . S
N301 C302 1.358 . S
N301 C303 1.400 . S
C302 N300 1.263 . S
C302 N301 1.358 . S
C302 H308 0.930 1_655 S
C303 N301 1.400 . S
C303 C304 1.351 . S
C303 H320 0.930 . S
C304 N300 1.389 . S
C304 C303 1.351 . S
C304 H309 0.930 . S
O305 Cu299 1.974 . S
O305 C315 1.282 . S
C306 O307 1.261 . S
C306 O319 1.251 . S
O307 C306 1.261 . S
H308 C302 0.930 1_455 S
H309 C304 0.930 . S
N310 Cu299 1.985 . S
N310 C312 1.335 . S
N310 C313 1.390 . S
N311 C312 1.345 . S
N311 C314 1.336 . S
C312 N310 1.335 . S
C312 N311 1.345 . S
C312 H317 0.930 . S
C313 N310 1.390 . S
C313 C314 1.346 . S
C313 H318 0.930 . S
C314 N311 1.336 . S
C314 C313 1.346 . S
C314 H321 0.929 . S
C315 O305 1.282 . S
C315 O316 1.216 . S
O316 C315 1.216 . S
H317 C312 0.930 . S
H318 C313 0.930 . S
O319 Cu299 1.959 . S
O319 C306 1.251 . S
H320 C303 0.930 . S
H321 C314 0.929 . S
Cu322 N323 1.999 1_565 S
Cu322 O328 1.974 . S
Cu322 N333 1.985 . S
Cu322 O342 1.959 . S
N323 Cu322 1.999 1_545 S
N323 C325 1.263 . S
N323 C327 1.389 . S
N324 C325 1.358 . S
N324 C326 1.400 . S
C325 N323 1.263 . S
C325 N324 1.358 . S
C325 H331 0.930 1_545 S
C326 N324 1.400 . S
C326 C327 1.351 . S
C326 H343 0.930 . S
C327 N323 1.389 . S
C327 C326 1.351 . S
C327 H332 0.930 . S
O328 Cu322 1.974 . S
O328 C338 1.282 . S
C329 O330 1.261 . S
C329 O342 1.251 . S
O330 C329 1.261 . S
H331 C325 0.930 1_565 S
H332 C327 0.930 . S
N333 Cu322 1.985 . S
N333 C335 1.335 . S
N333 C336 1.390 . S
N334 C335 1.345 . S
N334 C337 1.336 . S
C335 N333 1.335 . S
C335 N334 1.345 . S
C335 H340 0.930 . S
C336 N333 1.390 . S
C336 C337 1.346 . S
C336 H341 0.930 . S
C337 N334 1.336 . S
C337 C336 1.346 . S
C337 H344 0.929 . S
C338 O328 1.282 . S
C338 O339 1.216 . S
O339 C338 1.216 . S
H340 C335 0.930 . S
H341 C336 0.930 . S
O342 Cu322 1.959 . S
O342 C329 1.251 . S
H343 C326 0.930 . S
H344 C337 0.929 . S
Cu345 N346 1.999 1_655 S
Cu345 O351 1.974 . S
Cu345 N356 1.985 . S
Cu345 O365 1.959 . S
N346 Cu345 1.999 1_455 S
N346 C348 1.263 . S
N346 C350 1.389 . S
N347 C348 1.358 . S
N347 C349 1.400 . S
C348 N346 1.263 . S
C348 N347 1.358 . S
C348 H354 0.930 1_455 S
C349 N347 1.400 . S
C349 C350 1.351 . S
C349 H366 0.930 . S
C350 N346 1.389 . S
C350 C349 1.351 . S
C350 H355 0.930 . S
O351 Cu345 1.974 . S
O351 C361 1.282 . S
C352 O353 1.261 . S
C352 O365 1.251 . S
O353 C352 1.261 . S
H354 C348 0.930 1_655 S
H355 C350 0.930 . S
N356 Cu345 1.985 . S
N356 C358 1.335 . S
N356 C359 1.390 . S
N357 C358 1.345 . S
N357 C360 1.336 . S
C358 N356 1.335 . S
C358 N357 1.345 . S
C358 H363 0.930 . S
C359 N356 1.390 . S
C359 C360 1.346 . S
C359 H364 0.930 . S
C360 N357 1.336 . S
C360 C359 1.346 . S
C360 H367 0.929 . S
C361 O351 1.282 . S
C361 O362 1.216 . S
O362 C361 1.216 . S
H363 C358 0.930 . S
H364 C359 0.930 . S
O365 Cu345 1.959 . S
O365 C352 1.251 . S
H366 C349 0.930 . S
H367 C360 0.929 . S
H368 C380 0.930 . S
H369 C382 0.930 . S
H370 C383 0.930 . S
H371 C387 0.959 . S
H372 C387 0.959 . S
H373 C387 0.961 . S
H374 C388 0.960 . S
H375 C388 0.961 . S
H376 C388 0.959 . S
H377 C391 0.929 . S
H378 C392 0.931 . S
H379 C394 0.930 . S
C380 H368 0.930 . S
C380 C381 1.399 . S
C380 C385 1.399 . S
C381 C380 1.399 . S
C381 C382 1.376 . S
C382 H369 0.930 . S
C382 C381 1.376 . S
C382 C383 1.388 . S
C383 H370 0.930 . S
C383 C382 1.388 . S
C383 C384 1.390 . S
C384 C383 1.390 . S
C384 C385 1.394 . S
C384 C390 1.465 . S
C385 C380 1.399 . S
C385 C384 1.394 . S
C385 C386 1.516 . S
C386 C385 1.516 . S
C386 C387 1.502 . S
C386 C388 1.561 . S
C386 C389 1.526 . S
C387 H371 0.959 . S
C387 H372 0.959 . S
C387 H373 0.961 . S
C387 C386 1.502 . S
C388 H374 0.960 . S
C388 H375 0.961 . S
C388 H376 0.959 . S
C388 C386 1.561 . S
C389 C386 1.526 . S
C389 C390 1.396 . S
C389 C394 1.390 . S
C390 C384 1.465 . S
C390 C389 1.396 . S
C390 C391 1.399 . S
C391 H377 0.929 . S
C391 C390 1.399 . S
C391 C392 1.385 . S
C392 H378 0.931 . S
C392 C391 1.385 . S
C392 C393 1.389 . S
C393 C392 1.389 . S
C393 C394 1.387 . S
C394 H379 0.930 . S
C394 C389 1.390 . S
C394 C393 1.387 . S
H395 C407 0.930 . S
H396 C409 0.930 . S
H397 C410 0.930 . S
H398 C414 0.959 . S
H399 C414 0.959 . S
H400 C414 0.961 . S
H401 C415 0.960 . S
H402 C415 0.961 . S
H403 C415 0.959 . S
H404 C418 0.929 . S
H405 C419 0.931 . S
H406 C421 0.930 . S
C407 H395 0.930 . S
C407 C408 1.399 . S
C407 C412 1.399 . S
C408 C407 1.399 . S
C408 C409 1.376 . S
C409 H396 0.930 . S
C409 C408 1.376 . S
C409 C410 1.388 . S
C410 H397 0.930 . S
C410 C409 1.388 . S
C410 C411 1.390 . S
C411 C410 1.390 . S
C411 C412 1.394 . S
C411 C417 1.465 . S
C412 C407 1.399 . S
C412 C411 1.394 . S
C412 C413 1.516 . S
C413 C412 1.516 . S
C413 C414 1.502 . S
C413 C415 1.561 . S
C413 C416 1.526 . S
C414 H398 0.959 . S
C414 H399 0.959 . S
C414 H400 0.961 . S
C414 C413 1.502 . S
C415 H401 0.960 . S
C415 H402 0.961 . S
C415 H403 0.959 . S
C415 C413 1.561 . S
C416 C413 1.526 . S
C416 C417 1.396 . S
C416 C421 1.390 . S
C417 C411 1.465 . S
C417 C416 1.396 . S
C417 C418 1.399 . S
C418 H404 0.929 . S
C418 C417 1.399 . S
C418 C419 1.385 . S
C419 H405 0.931 . S
C419 C418 1.385 . S
C419 C420 1.389 . S
C420 C419 1.389 . S
C420 C421 1.387 . S
C421 H406 0.930 . S
C421 C416 1.390 . S
C421 C420 1.387 . S
H422 C434 0.930 . S
H423 C436 0.930 . S
H424 C437 0.930 . S
H425 C441 0.959 . S
H426 C441 0.959 . S
H427 C441 0.961 . S
H428 C442 0.960 . S
H429 C442 0.961 . S
H430 C442 0.959 . S
H431 C445 0.929 . S
H432 C446 0.931 . S
H433 C448 0.930 . S
C434 H422 0.930 . S
C434 C435 1.399 . S
C434 C439 1.399 . S
C435 C434 1.399 . S
C435 C436 1.376 . S
C436 H423 0.930 . S
C436 C435 1.376 . S
C436 C437 1.388 . S
C437 H424 0.930 . S
C437 C436 1.388 . S
C437 C438 1.390 . S
C438 C437 1.390 . S
C438 C439 1.394 . S
C438 C444 1.465 . S
C439 C434 1.399 . S
C439 C438 1.394 . S
C439 C440 1.516 . S
C440 C439 1.516 . S
C440 C441 1.502 . S
C440 C442 1.561 . S
C440 C443 1.526 . S
C441 H425 0.959 . S
C441 H426 0.959 . S
C441 H427 0.961 . S
C441 C440 1.502 . S
C442 H428 0.960 . S
C442 H429 0.961 . S
C442 H430 0.959 . S
C442 C440 1.561 . S
C443 C440 1.526 . S
C443 C444 1.396 . S
C443 C448 1.390 . S
C444 C438 1.465 . S
C444 C443 1.396 . S
C444 C445 1.399 . S
C445 H431 0.929 . S
C445 C444 1.399 . S
C445 C446 1.385 . S
C446 H432 0.931 . S
C446 C445 1.385 . S
C446 C447 1.389 . S
C447 C446 1.389 . S
C447 C448 1.387 . S
C448 H433 0.930 . S
C448 C443 1.390 . S
C448 C447 1.387 . S
H449 C461 0.930 . S
H450 C463 0.930 . S
H451 C464 0.930 . S
H452 C468 0.959 . S
H453 C468 0.959 . S
H454 C468 0.961 . S
H455 C469 0.960 . S
H456 C469 0.961 . S
H457 C469 0.959 . S
H458 C472 0.929 . S
H459 C473 0.931 . S
H460 C475 0.930 . S
C461 H449 0.930 . S
C461 C462 1.399 . S
C461 C466 1.399 . S
C462 C461 1.399 . S
C462 C463 1.376 . S
C463 H450 0.930 . S
C463 C462 1.376 . S
C463 C464 1.388 . S
C464 H451 0.930 . S
C464 C463 1.388 . S
C464 C465 1.390 . S
C465 C464 1.390 . S
C465 C466 1.394 . S
C465 C471 1.465 . S
C466 C461 1.399 . S
C466 C465 1.394 . S
C466 C467 1.516 . S
C467 C466 1.516 . S
C467 C468 1.502 . S
C467 C469 1.561 . S
C467 C470 1.526 . S
C468 H452 0.959 . S
C468 H453 0.959 . S
C468 H454 0.961 . S
C468 C467 1.502 . S
C469 H455 0.960 . S
C469 H456 0.961 . S
C469 H457 0.959 . S
C469 C467 1.561 . S
C470 C467 1.526 . S
C470 C471 1.396 . S
C470 C475 1.390 . S
C471 C465 1.465 . S
C471 C470 1.396 . S
C471 C472 1.399 . S
C472 H458 0.929 . S
C472 C471 1.399 . S
C472 C473 1.385 . S
C473 H459 0.931 . S
C473 C472 1.385 . S
C473 C474 1.389 . S
C474 C473 1.389 . S
C474 C475 1.387 . S
C475 H460 0.930 . S
C475 C470 1.390 . S
C475 C474 1.387 . S
H476 C488 0.930 . S
H477 C490 0.930 . S
H478 C491 0.930 . S
H479 C495 0.959 . S
H480 C495 0.959 . S
H481 C495 0.961 . S
H482 C496 0.960 . S
H483 C496 0.961 . S
H484 C496 0.959 . S
H485 C499 0.929 . S
H486 C500 0.931 . S
H487 C502 0.930 . S
C488 H476 0.930 . S
C488 C489 1.399 . S
C488 C493 1.399 . S
C489 C488 1.399 . S
C489 C490 1.376 . S
C490 H477 0.930 . S
C490 C489 1.376 . S
C490 C491 1.388 . S
C491 H478 0.930 . S
C491 C490 1.388 . S
C491 C492 1.390 . S
C492 C491 1.390 . S
C492 C493 1.394 . S
C492 C498 1.465 . S
C493 C488 1.399 . S
C493 C492 1.394 . S
C493 C494 1.516 . S
C494 C493 1.516 . S
C494 C495 1.502 . S
C494 C496 1.561 . S
C494 C497 1.526 . S
C495 H479 0.959 . S
C495 H480 0.959 . S
C495 H481 0.961 . S
C495 C494 1.502 . S
C496 H482 0.960 . S
C496 H483 0.961 . S
C496 H484 0.959 . S
C496 C494 1.561 . S
C497 C494 1.526 . S
C497 C498 1.396 . S
C497 C502 1.390 . S
C498 C492 1.465 . S
C498 C497 1.396 . S
C498 C499 1.399 . S
C499 H485 0.929 . S
C499 C498 1.399 . S
C499 C500 1.385 . S
C500 H486 0.931 . S
C500 C499 1.385 . S
C500 C501 1.389 . S
C501 C500 1.389 . S
C501 C502 1.387 . S
C502 H487 0.930 . S
C502 C497 1.390 . S
C502 C501 1.387 . S
H503 C515 0.930 . S
H504 C517 0.930 . S
H505 C518 0.930 . S
H506 C522 0.959 . S
H507 C522 0.959 . S
H508 C522 0.961 . S
H509 C523 0.960 . S
H510 C523 0.961 . S
H511 C523 0.959 . S
H512 C526 0.929 . S
H513 C527 0.931 . S
H514 C529 0.930 . S
C515 H503 0.930 . S
C515 C516 1.399 . S
C515 C520 1.399 . S
C516 C515 1.399 . S
C516 C517 1.376 . S
C517 H504 0.930 . S
C517 C516 1.376 . S
C517 C518 1.388 . S
C518 H505 0.930 . S
C518 C517 1.388 . S
C518 C519 1.390 . S
C519 C518 1.390 . S
C519 C520 1.394 . S
C519 C525 1.465 . S
C520 C515 1.399 . S
C520 C519 1.394 . S
C520 C521 1.516 . S
C521 C520 1.516 . S
C521 C522 1.502 . S
C521 C523 1.561 . S
C521 C524 1.526 . S
C522 H506 0.959 . S
C522 H507 0.959 . S
C522 H508 0.961 . S
C522 C521 1.502 . S
C523 H509 0.960 . S
C523 H510 0.961 . S
C523 H511 0.959 . S
C523 C521 1.561 . S
C524 C521 1.526 . S
C524 C525 1.396 . S
C524 C529 1.390 . S
C525 C519 1.465 . S
C525 C524 1.396 . S
C525 C526 1.399 . S
C526 H512 0.929 . S
C526 C525 1.399 . S
C526 C527 1.385 . S
C527 H513 0.931 . S
C527 C526 1.385 . S
C527 C528 1.389 . S
C528 C527 1.389 . S
C528 C529 1.387 . S
C529 H514 0.930 . S
C529 C524 1.390 . S
C529 C528 1.387 . S
H530 C542 0.930 . S
H531 C544 0.930 . S
H532 C545 0.930 . S
H533 C549 0.959 . S
H534 C549 0.959 . S
H535 C549 0.961 . S
H536 C550 0.960 . S
H537 C550 0.961 . S
H538 C550 0.959 . S
H539 C553 0.929 . S
H540 C554 0.931 . S
H541 C556 0.930 . S
C542 H530 0.930 . S
C542 C543 1.399 . S
C542 C547 1.399 . S
C543 C542 1.399 . S
C543 C544 1.376 . S
C544 H531 0.930 . S
C544 C543 1.376 . S
C544 C545 1.388 . S
C545 H532 0.930 . S
C545 C544 1.388 . S
C545 C546 1.390 . S
C546 C545 1.390 . S
C546 C547 1.394 . S
C546 C552 1.465 . S
C547 C542 1.399 . S
C547 C546 1.394 . S
C547 C548 1.516 . S
C548 C547 1.516 . S
C548 C549 1.502 . S
C548 C550 1.561 . S
C548 C551 1.526 . S
C549 H533 0.959 . S
C549 H534 0.959 . S
C549 H535 0.961 . S
C549 C548 1.502 . S
C550 H536 0.960 . S
C550 H537 0.961 . S
C550 H538 0.959 . S
C550 C548 1.561 . S
C551 C548 1.526 . S
C551 C552 1.396 . S
C551 C556 1.390 . S
C552 C546 1.465 . S
C552 C551 1.396 . S
C552 C553 1.399 . S
C553 H539 0.929 . S
C553 C552 1.399 . S
C553 C554 1.385 . S
C554 H540 0.931 . S
C554 C553 1.385 . S
C554 C555 1.389 . S
C555 C554 1.389 . S
C555 C556 1.387 . S
C556 H541 0.930 . S
C556 C551 1.390 . S
C556 C555 1.387 . S
H557 C569 0.930 . S
H558 C571 0.930 . S
H559 C572 0.930 . S
H560 C576 0.959 . S
H561 C576 0.959 . S
H562 C576 0.961 . S
H563 C577 0.960 . S
H564 C577 0.961 . S
H565 C577 0.959 . S
H566 C580 0.929 . S
H567 C581 0.931 . S
H568 C583 0.930 . S
C569 H557 0.930 . S
C569 C570 1.399 . S
C569 C574 1.399 . S
C570 C569 1.399 . S
C570 C571 1.376 . S
C571 H558 0.930 . S
C571 C570 1.376 . S
C571 C572 1.388 . S
C572 H559 0.930 . S
C572 C571 1.388 . S
C572 C573 1.390 . S
C573 C572 1.390 . S
C573 C574 1.394 . S
C573 C579 1.465 . S
C574 C569 1.399 . S
C574 C573 1.394 . S
C574 C575 1.516 . S
C575 C574 1.516 . S
C575 C576 1.502 . S
C575 C577 1.561 . S
C575 C578 1.526 . S
C576 H560 0.959 . S
C576 H561 0.959 . S
C576 H562 0.961 . S
C576 C575 1.502 . S
C577 H563 0.960 . S
C577 H564 0.961 . S
C577 H565 0.959 . S
C577 C575 1.561 . S
C578 C575 1.526 . S
C578 C579 1.396 . S
C578 C583 1.390 . S
C579 C573 1.465 . S
C579 C578 1.396 . S
C579 C580 1.399 . S
C580 H566 0.929 . S
C580 C579 1.399 . S
C580 C581 1.385 . S
C581 H567 0.931 . S
C581 C580 1.385 . S
C581 C582 1.389 . S
C582 C581 1.389 . S
C582 C583 1.387 . S
C583 H568 0.930 . S
C583 C578 1.390 . S
C583 C582 1.387 . S
H584 C596 0.930 . S
H585 C598 0.930 . S
H586 C599 0.930 . S
H587 C603 0.959 . S
H588 C603 0.959 . S
H589 C603 0.961 . S
H590 C604 0.960 . S
H591 C604 0.961 . S
H592 C604 0.959 . S
H593 C607 0.929 . S
H594 C608 0.931 . S
H595 C610 0.930 . S
C596 H584 0.930 . S
C596 C597 1.399 . S
C596 C601 1.399 . S
C597 C596 1.399 . S
C597 C598 1.376 . S
C598 H585 0.930 . S
C598 C597 1.376 . S
C598 C599 1.388 . S
C599 H586 0.930 . S
C599 C598 1.388 . S
C599 C600 1.390 . S
C600 C599 1.390 . S
C600 C601 1.394 . S
C600 C606 1.465 . S
C601 C596 1.399 . S
C601 C600 1.394 . S
C601 C602 1.516 . S
C602 C601 1.516 . S
C602 C603 1.502 . S
C602 C604 1.561 . S
C602 C605 1.526 . S
C603 H587 0.959 . S
C603 H588 0.959 . S
C603 H589 0.961 . S
C603 C602 1.502 . S
C604 H590 0.960 . S
C604 H591 0.961 . S
C604 H592 0.959 . S
C604 C602 1.561 . S
C605 C602 1.526 . S
C605 C606 1.396 . S
C605 C610 1.390 . S
C606 C600 1.465 . S
C606 C605 1.396 . S
C606 C607 1.399 . S
C607 H593 0.929 . S
C607 C606 1.399 . S
C607 C608 1.385 . S
C608 H594 0.931 . S
C608 C607 1.385 . S
C608 C609 1.389 . S
C609 C608 1.389 . S
C609 C610 1.387 . S
C610 H595 0.930 . S
C610 C605 1.390 . S
C610 C609 1.387 . S
H611 C623 0.930 . S
H612 C625 0.930 . S
H613 C626 0.930 . S
H614 C630 0.959 . S
H615 C630 0.959 . S
H616 C630 0.961 . S
H617 C631 0.960 . S
H618 C631 0.961 . S
H619 C631 0.959 . S
H620 C634 0.929 . S
H621 C635 0.931 . S
H622 C637 0.930 . S
C623 H611 0.930 . S
C623 C624 1.399 . S
C623 C628 1.399 . S
C624 C623 1.399 . S
C624 C625 1.376 . S
C625 H612 0.930 . S
C625 C624 1.376 . S
C625 C626 1.388 . S
C626 H613 0.930 . S
C626 C625 1.388 . S
C626 C627 1.390 . S
C627 C626 1.390 . S
C627 C628 1.394 . S
C627 C633 1.465 . S
C628 C623 1.399 . S
C628 C627 1.394 . S
C628 C629 1.516 . S
C629 C628 1.516 . S
C629 C630 1.502 . S
C629 C631 1.561 . S
C629 C632 1.526 . S
C630 H614 0.959 . S
C630 H615 0.959 . S
C630 H616 0.961 . S
C630 C629 1.502 . S
C631 H617 0.960 . S
C631 H618 0.961 . S
C631 H619 0.959 . S
C631 C629 1.561 . S
C632 C629 1.526 . S
C632 C633 1.396 . S
C632 C637 1.390 . S
C633 C627 1.465 . S
C633 C632 1.396 . S
C633 C634 1.399 . S
C634 H620 0.929 . S
C634 C633 1.399 . S
C634 C635 1.385 . S
C635 H621 0.931 . S
C635 C634 1.385 . S
C635 C636 1.389 . S
C636 C635 1.389 . S
C636 C637 1.387 . S
C637 H622 0.930 . S
C637 C632 1.390 . S
C637 C636 1.387 . S
H638 C650 0.930 . S
H639 C652 0.930 . S
H640 C653 0.930 . S
H641 C657 0.959 . S
H642 C657 0.959 . S
H643 C657 0.961 . S
H644 C658 0.960 . S
H645 C658 0.961 . S
H646 C658 0.959 . S
H647 C661 0.929 . S
H648 C662 0.931 . S
H649 C664 0.930 . S
C650 H638 0.930 . S
C650 C651 1.399 . S
C650 C655 1.399 . S
C651 C650 1.399 . S
C651 C652 1.376 . S
C652 H639 0.930 . S
C652 C651 1.376 . S
C652 C653 1.388 . S
C653 H640 0.930 . S
C653 C652 1.388 . S
C653 C654 1.390 . S
C654 C653 1.390 . S
C654 C655 1.394 . S
C654 C660 1.465 . S
C655 C650 1.399 . S
C655 C654 1.394 . S
C655 C656 1.516 . S
C656 C655 1.516 . S
C656 C657 1.502 . S
C656 C658 1.561 . S
C656 C659 1.526 . S
C657 H641 0.959 . S
C657 H642 0.959 . S
C657 H643 0.961 . S
C657 C656 1.502 . S
C658 H644 0.960 . S
C658 H645 0.961 . S
C658 H646 0.959 . S
C658 C656 1.561 . S
C659 C656 1.526 . S
C659 C660 1.396 . S
C659 C664 1.390 . S
C660 C654 1.465 . S
C660 C659 1.396 . S
C660 C661 1.399 . S
C661 H647 0.929 . S
C661 C660 1.399 . S
C661 C662 1.385 . S
C662 H648 0.931 . S
C662 C661 1.385 . S
C662 C663 1.389 . S
C663 C662 1.389 . S
C663 C664 1.387 . S
C664 H649 0.930 . S
C664 C659 1.390 . S
C664 C663 1.387 . S
H665 C677 0.930 . S
H666 C679 0.930 . S
H667 C680 0.930 . S
H668 C684 0.959 . S
H669 C684 0.959 . S
H670 C684 0.961 . S
H671 C685 0.960 . S
H672 C685 0.961 . S
H673 C685 0.959 . S
H674 C688 0.929 . S
H675 C689 0.931 . S
H676 C691 0.930 . S
C677 H665 0.930 . S
C677 C678 1.399 . S
C677 C682 1.399 . S
C678 C677 1.399 . S
C678 C679 1.376 . S
C679 H666 0.930 . S
C679 C678 1.376 . S
C679 C680 1.388 . S
C680 H667 0.930 . S
C680 C679 1.388 . S
C680 C681 1.390 . S
C681 C680 1.390 . S
C681 C682 1.394 . S
C681 C687 1.465 . S
C682 C677 1.399 . S
C682 C681 1.394 . S
C682 C683 1.516 . S
C683 C682 1.516 . S
C683 C684 1.502 . S
C683 C685 1.561 . S
C683 C686 1.526 . S
C684 H668 0.959 . S
C684 H669 0.959 . S
C684 H670 0.961 . S
C684 C683 1.502 . S
C685 H671 0.960 . S
C685 H672 0.961 . S
C685 H673 0.959 . S
C685 C683 1.561 . S
C686 C683 1.526 . S
C686 C687 1.396 . S
C686 C691 1.390 . S
C687 C681 1.465 . S
C687 C686 1.396 . S
C687 C688 1.399 . S
C688 H674 0.929 . S
C688 C687 1.399 . S
C688 C689 1.385 . S
C689 H675 0.931 . S
C689 C688 1.385 . S
C689 C690 1.389 . S
C690 C689 1.389 . S
C690 C691 1.387 . S
C691 H676 0.930 . S
C691 C686 1.390 . S
C691 C690 1.387 . S
H692 C704 0.930 . S
H693 C706 0.930 . S
H694 C707 0.930 . S
H695 C711 0.959 . S
H696 C711 0.959 . S
H697 C711 0.961 . S
H698 C712 0.960 . S
H699 C712 0.961 . S
H700 C712 0.959 . S
H701 C715 0.929 . S
H702 C716 0.931 . S
H703 C718 0.930 . S
C704 H692 0.930 . S
C704 C705 1.399 . S
C704 C709 1.399 . S
C705 C704 1.399 . S
C705 C706 1.376 . S
C706 H693 0.930 . S
C706 C705 1.376 . S
C706 C707 1.388 . S
C707 H694 0.930 . S
C707 C706 1.388 . S
C707 C708 1.390 . S
C708 C707 1.390 . S
C708 C709 1.394 . S
C708 C714 1.465 . S
C709 C704 1.399 . S
C709 C708 1.394 . S
C709 C710 1.516 . S
C710 C709 1.516 . S
C710 C711 1.502 . S
C710 C712 1.561 . S
C710 C713 1.526 . S
C711 H695 0.959 . S
C711 H696 0.959 . S
C711 H697 0.961 . S
C711 C710 1.502 . S
C712 H698 0.960 . S
C712 H699 0.961 . S
C712 H700 0.959 . S
C712 C710 1.561 . S
C713 C710 1.526 . S
C713 C714 1.396 . S
C713 C718 1.390 . S
C714 C708 1.465 . S
C714 C713 1.396 . S
C714 C715 1.399 . S
C715 H701 0.929 . S
C715 C714 1.399 . S
C715 C716 1.385 . S
C716 H702 0.931 . S
C716 C715 1.385 . S
C716 C717 1.389 . S
C717 C716 1.389 . S
C717 C718 1.387 . S
C718 H703 0.930 . S
C718 C713 1.390 . S
C718 C717 1.387 . S
H719 C731 0.930 . S
H720 C733 0.930 . S
H721 C734 0.930 . S
H722 C738 0.959 . S
H723 C738 0.959 . S
H724 C738 0.961 . S
H725 C739 0.960 . S
H726 C739 0.961 . S
H727 C739 0.959 . S
H728 C742 0.929 . S
H729 C743 0.931 . S
H730 C745 0.930 . S
C731 H719 0.930 . S
C731 C732 1.399 . S
C731 C736 1.399 . S
C732 C731 1.399 . S
C732 C733 1.376 . S
C733 H720 0.930 . S
C733 C732 1.376 . S
C733 C734 1.388 . S
C734 H721 0.930 . S
C734 C733 1.388 . S
C734 C735 1.390 . S
C735 C734 1.390 . S
C735 C736 1.394 . S
C735 C741 1.465 . S
C736 C731 1.399 . S
C736 C735 1.394 . S
C736 C737 1.516 . S
C737 C736 1.516 . S
C737 C738 1.502 . S
C737 C739 1.561 . S
C737 C740 1.526 . S
C738 H722 0.959 . S
C738 H723 0.959 . S
C738 H724 0.961 . S
C738 C737 1.502 . S
C739 H725 0.960 . S
C739 H726 0.961 . S
C739 H727 0.959 . S
C739 C737 1.561 . S
C740 C737 1.526 . S
C740 C741 1.396 . S
C740 C745 1.390 . S
C741 C735 1.465 . S
C741 C740 1.396 . S
C741 C742 1.399 . S
C742 H728 0.929 . S
C742 C741 1.399 . S
C742 C743 1.385 . S
C743 H729 0.931 . S
C743 C742 1.385 . S
C743 C744 1.389 . S
C744 C743 1.389 . S
C744 C745 1.387 . S
C745 H730 0.930 . S
C745 C740 1.390 . S
C745 C744 1.387 . S
H746 C758 0.930 . S
H747 C760 0.930 . S
H748 C761 0.930 . S
H749 C765 0.959 . S
H750 C765 0.959 . S
H751 C765 0.961 . S
H752 C766 0.960 . S
H753 C766 0.961 . S
H754 C766 0.959 . S
H755 C769 0.929 . S
H756 C770 0.931 . S
H757 C772 0.930 . S
C758 H746 0.930 . S
C758 C759 1.399 . S
C758 C763 1.399 . S
C759 C758 1.399 . S
C759 C760 1.376 . S
C760 H747 0.930 . S
C760 C759 1.376 . S
C760 C761 1.388 . S
C761 H748 0.930 . S
C761 C760 1.388 . S
C761 C762 1.390 . S
C762 C761 1.390 . S
C762 C763 1.394 . S
C762 C768 1.465 . S
C763 C758 1.399 . S
C763 C762 1.394 . S
C763 C764 1.516 . S
C764 C763 1.516 . S
C764 C765 1.502 . S
C764 C766 1.561 . S
C764 C767 1.526 . S
C765 H749 0.959 . S
C765 H750 0.959 . S
C765 H751 0.961 . S
C765 C764 1.502 . S
C766 H752 0.960 . S
C766 H753 0.961 . S
C766 H754 0.959 . S
C766 C764 1.561 . S
C767 C764 1.526 . S
C767 C768 1.396 . S
C767 C772 1.390 . S
C768 C762 1.465 . S
C768 C767 1.396 . S
C768 C769 1.399 . S
C769 H755 0.929 . S
C769 C768 1.399 . S
C769 C770 1.385 . S
C770 H756 0.931 . S
C770 C769 1.385 . S
C770 C771 1.389 . S
C771 C770 1.389 . S
C771 C772 1.387 . S
C772 H757 0.930 . S
C772 C767 1.390 . S
C772 C771 1.387 . S
H773 C785 0.930 . S
H774 C787 0.930 . S
H775 C788 0.930 . S
H776 C792 0.959 . S
H777 C792 0.959 . S
H778 C792 0.961 . S
H779 C793 0.960 . S
H780 C793 0.961 . S
H781 C793 0.959 . S
H782 C796 0.929 . S
H783 C797 0.931 . S
H784 C799 0.930 . S
C785 H773 0.930 . S
C785 C786 1.399 . S
C785 C790 1.399 . S
C786 C785 1.399 . S
C786 C787 1.376 . S
C787 H774 0.930 . S
C787 C786 1.376 . S
C787 C788 1.388 . S
C788 H775 0.930 . S
C788 C787 1.388 . S
C788 C789 1.390 . S
C789 C788 1.390 . S
C789 C790 1.394 . S
C789 C795 1.465 . S
C790 C785 1.399 . S
C790 C789 1.394 . S
C790 C791 1.516 . S
C791 C790 1.516 . S
C791 C792 1.502 . S
C791 C793 1.561 . S
C791 C794 1.526 . S
C792 H776 0.959 . S
C792 H777 0.959 . S
C792 H778 0.961 . S
C792 C791 1.502 . S
C793 H779 0.960 . S
C793 H780 0.961 . S
C793 H781 0.959 . S
C793 C791 1.561 . S
C794 C791 1.526 . S
C794 C795 1.396 . S
C794 C799 1.390 . S
C795 C789 1.465 . S
C795 C794 1.396 . S
C795 C796 1.399 . S
C796 H782 0.929 . S
C796 C795 1.399 . S
C796 C797 1.385 . S
C797 H783 0.931 . S
C797 C796 1.385 . S
C797 C798 1.389 . S
C798 C797 1.389 . S
C798 C799 1.387 . S
C799 H784 0.930 . S
C799 C794 1.390 . S
C799 C798 1.387 . S
H800 C812 0.930 . S
H801 C814 0.930 . S
H802 C815 0.930 . S
H803 C819 0.959 . S
H804 C819 0.959 . S
H805 C819 0.961 . S
H806 C820 0.960 . S
H807 C820 0.961 . S
H808 C820 0.959 . S
H809 C823 0.929 . S
H810 C824 0.931 . S
H811 C826 0.930 . S
C812 H800 0.930 . S
C812 C813 1.399 . S
C812 C817 1.399 . S
C813 C812 1.399 . S
C813 C814 1.376 . S
C814 H801 0.930 . S
C814 C813 1.376 . S
C814 C815 1.388 . S
C815 H802 0.930 . S
C815 C814 1.388 . S
C815 C816 1.390 . S
C816 C815 1.390 . S
C816 C817 1.394 . S
C816 C822 1.465 . S
C817 C812 1.399 . S
C817 C816 1.394 . S
C817 C818 1.516 . S
C818 C817 1.516 . S
C818 C819 1.502 . S
C818 C820 1.561 . S
C818 C821 1.526 . S
C819 H803 0.959 . S
C819 H804 0.959 . S
C819 H805 0.961 . S
C819 C818 1.502 . S
C820 H806 0.960 . S
C820 H807 0.961 . S
C820 H808 0.959 . S
C820 C818 1.561 . S
C821 C818 1.526 . S
C821 C822 1.396 . S
C821 C826 1.390 . S
C822 C816 1.465 . S
C822 C821 1.396 . S
C822 C823 1.399 . S
C823 H809 0.929 . S
C823 C822 1.399 . S
C823 C824 1.385 . S
C824 H810 0.931 . S
C824 C823 1.385 . S
C824 C825 1.389 . S
C825 C824 1.389 . S
C825 C826 1.387 . S
C826 H811 0.930 . S
C826 C821 1.390 . S
C826 C825 1.387 . S
H827 C839 0.930 . S
H828 C841 0.930 . S
H829 C842 0.930 . S
H830 C846 0.959 . S
H831 C846 0.959 . S
H832 C846 0.961 . S
H833 C847 0.960 . S
H834 C847 0.961 . S
H835 C847 0.959 . S
H836 C850 0.929 . S
H837 C851 0.931 . S
H838 C853 0.930 . S
C839 H827 0.930 . S
C839 C840 1.399 . S
C839 C844 1.399 . S
C840 C839 1.399 . S
C840 C841 1.376 . S
C841 H828 0.930 . S
C841 C840 1.376 . S
C841 C842 1.388 . S
C842 H829 0.930 . S
C842 C841 1.388 . S
C842 C843 1.390 . S
C843 C842 1.390 . S
C843 C844 1.394 . S
C843 C849 1.465 . S
C844 C839 1.399 . S
C844 C843 1.394 . S
C844 C845 1.516 . S
C845 C844 1.516 . S
C845 C846 1.502 . S
C845 C847 1.561 . S
C845 C848 1.526 . S
C846 H830 0.959 . S
C846 H831 0.959 . S
C846 H832 0.961 . S
C846 C845 1.502 . S
C847 H833 0.960 . S
C847 H834 0.961 . S
C847 H835 0.959 . S
C847 C845 1.561 . S
C848 C845 1.526 . S
C848 C849 1.396 . S
C848 C853 1.390 . S
C849 C843 1.465 . S
C849 C848 1.396 . S
C849 C850 1.399 . S
C850 H836 0.929 . S
C850 C849 1.399 . S
C850 C851 1.385 . S
C851 H837 0.931 . S
C851 C850 1.385 . S
C851 C852 1.389 . S
C852 C851 1.389 . S
C852 C853 1.387 . S
C853 H838 0.930 . S
C853 C848 1.390 . S
C853 C852 1.387 . S
H854 C866 0.930 . S
H855 C868 0.930 . S
H856 C869 0.930 . S
H857 C873 0.959 . S
H858 C873 0.959 . S
H859 C873 0.961 . S
H860 C874 0.960 . S
H861 C874 0.961 . S
H862 C874 0.959 . S
H863 C877 0.929 . S
H864 C878 0.931 . S
H865 C880 0.930 . S
C866 H854 0.930 . S
C866 C867 1.399 . S
C866 C871 1.399 . S
C867 C866 1.399 . S
C867 C868 1.376 . S
C868 H855 0.930 . S
C868 C867 1.376 . S
C868 C869 1.388 . S
C869 H856 0.930 . S
C869 C868 1.388 . S
C869 C870 1.390 . S
C870 C869 1.390 . S
C870 C871 1.394 . S
C870 C876 1.465 . S
C871 C866 1.399 . S
C871 C870 1.394 . S
C871 C872 1.516 . S
C872 C871 1.516 . S
C872 C873 1.502 . S
C872 C874 1.561 . S
C872 C875 1.526 . S
C873 H857 0.959 . S
C873 H858 0.959 . S
C873 H859 0.961 . S
C873 C872 1.502 . S
C874 H860 0.960 . S
C874 H861 0.961 . S
C874 H862 0.959 . S
C874 C872 1.561 . S
C875 C872 1.526 . S
C875 C876 1.396 . S
C875 C880 1.390 . S
C876 C870 1.465 . S
C876 C875 1.396 . S
C876 C877 1.399 . S
C877 H863 0.929 . S
C877 C876 1.399 . S
C877 C878 1.385 . S
C878 H864 0.931 . S
C878 C877 1.385 . S
C878 C879 1.389 . S
C879 C878 1.389 . S
C879 C880 1.387 . S
C880 H865 0.930 . S
C880 C875 1.390 . S
C880 C879 1.387 . S
H881 C893 0.930 . S
H882 C895 0.930 . S
H883 C896 0.930 . S
H884 C900 0.959 . S
H885 C900 0.959 . S
H886 C900 0.961 . S
H887 C901 0.960 . S
H888 C901 0.961 . S
H889 C901 0.959 . S
H890 C904 0.929 . S
H891 C905 0.931 . S
H892 C907 0.930 . S
C893 H881 0.930 . S
C893 C894 1.399 . S
C893 C898 1.399 . S
C894 C893 1.399 . S
C894 C895 1.376 . S
C895 H882 0.930 . S
C895 C894 1.376 . S
C895 C896 1.388 . S
C896 H883 0.930 . S
C896 C895 1.388 . S
C896 C897 1.390 . S
C897 C896 1.390 . S
C897 C898 1.394 . S
C897 C903 1.465 . S
C898 C893 1.399 . S
C898 C897 1.394 . S
C898 C899 1.516 . S
C899 C898 1.516 . S
C899 C900 1.502 . S
C899 C901 1.561 . S
C899 C902 1.526 . S
C900 H884 0.959 . S
C900 H885 0.959 . S
C900 H886 0.961 . S
C900 C899 1.502 . S
C901 H887 0.960 . S
C901 H888 0.961 . S
C901 H889 0.959 . S
C901 C899 1.561 . S
C902 C899 1.526 . S
C902 C903 1.396 . S
C902 C907 1.390 . S
C903 C897 1.465 . S
C903 C902 1.396 . S
C903 C904 1.399 . S
C904 H890 0.929 . S
C904 C903 1.399 . S
C904 C905 1.385 . S
C905 H891 0.931 . S
C905 C904 1.385 . S
C905 C906 1.389 . S
C906 C905 1.389 . S
C906 C907 1.387 . S
C907 H892 0.930 . S
C907 C902 1.390 . S
C907 C906 1.387 . S
H908 C920 0.930 . S
H909 C922 0.930 . S
H910 C923 0.930 . S
H911 C927 0.959 . S
H912 C927 0.959 . S
H913 C927 0.961 . S
H914 C928 0.960 . S
H915 C928 0.961 . S
H916 C928 0.959 . S
H917 C931 0.929 . S
H918 C932 0.931 . S
H919 C934 0.930 . S
C920 H908 0.930 . S
C920 C921 1.399 . S
C920 C925 1.399 . S
C921 C920 1.399 . S
C921 C922 1.376 . S
C922 H909 0.930 . S
C922 C921 1.376 . S
C922 C923 1.388 . S
C923 H910 0.930 . S
C923 C922 1.388 . S
C923 C924 1.390 . S
C924 C923 1.390 . S
C924 C925 1.394 . S
C924 C930 1.465 . S
C925 C920 1.399 . S
C925 C924 1.394 . S
C925 C926 1.516 . S
C926 C925 1.516 . S
C926 C927 1.502 . S
C926 C928 1.561 . S
C926 C929 1.526 . S
C927 H911 0.959 . S
C927 H912 0.959 . S
C927 H913 0.961 . S
C927 C926 1.502 . S
C928 H914 0.960 . S
C928 H915 0.961 . S
C928 H916 0.959 . S
C928 C926 1.561 . S
C929 C926 1.526 . S
C929 C930 1.396 . S
C929 C934 1.390 . S
C930 C924 1.465 . S
C930 C929 1.396 . S
C930 C931 1.399 . S
C931 H917 0.929 . S
C931 C930 1.399 . S
C931 C932 1.385 . S
C932 H918 0.931 . S
C932 C931 1.385 . S
C932 C933 1.389 . S
C933 C932 1.389 . S
C933 C934 1.387 . S
C934 H919 0.930 . S
C934 C929 1.390 . S
C934 C933 1.387 . S
H935 C947 0.930 . S
H936 C949 0.930 . S
H937 C950 0.930 . S
H938 C954 0.959 . S
H939 C954 0.959 . S
H940 C954 0.961 . S
H941 C955 0.960 . S
H942 C955 0.961 . S
H943 C955 0.959 . S
H944 C958 0.929 . S
H945 C959 0.931 . S
H946 C961 0.930 . S
C947 H935 0.930 . S
C947 C948 1.399 . S
C947 C952 1.399 . S
C948 C947 1.399 . S
C948 C949 1.376 . S
C949 H936 0.930 . S
C949 C948 1.376 . S
C949 C950 1.388 . S
C950 H937 0.930 . S
C950 C949 1.388 . S
C950 C951 1.390 . S
C951 C950 1.390 . S
C951 C952 1.394 . S
C951 C957 1.465 . S
C952 C947 1.399 . S
C952 C951 1.394 . S
C952 C953 1.516 . S
C953 C952 1.516 . S
C953 C954 1.502 . S
C953 C955 1.561 . S
C953 C956 1.526 . S
C954 H938 0.959 . S
C954 H939 0.959 . S
C954 H940 0.961 . S
C954 C953 1.502 . S
C955 H941 0.960 . S
C955 H942 0.961 . S
C955 H943 0.959 . S
C955 C953 1.561 . S
C956 C953 1.526 . S
C956 C957 1.396 . S
C956 C961 1.390 . S
C957 C951 1.465 . S
C957 C956 1.396 . S
C957 C958 1.399 . S
C958 H944 0.929 . S
C958 C957 1.399 . S
C958 C959 1.385 . S
C959 H945 0.931 . S
C959 C958 1.385 . S
C959 C960 1.389 . S
C960 C959 1.389 . S
C960 C961 1.387 . S
C961 H946 0.930 . S
C961 C956 1.390 . S
C961 C960 1.387 . S
H962 C974 0.930 . S
H963 C976 0.930 . S
H964 C977 0.930 . S
H965 C981 0.959 . S
H966 C981 0.959 . S
H967 C981 0.961 . S
H968 C982 0.960 . S
H969 C982 0.961 . S
H970 C982 0.959 . S
H971 C985 0.929 . S
H972 C986 0.931 . S
H973 C988 0.930 . S
C974 H962 0.930 . S
C974 C975 1.399 . S
C974 C979 1.399 . S
C975 C974 1.399 . S
C975 C976 1.376 . S
C976 H963 0.930 . S
C976 C975 1.376 . S
C976 C977 1.388 . S
C977 H964 0.930 . S
C977 C976 1.388 . S
C977 C978 1.390 . S
C978 C977 1.390 . S
C978 C979 1.394 . S
C978 C984 1.465 . S
C979 C974 1.399 . S
C979 C978 1.394 . S
C979 C980 1.516 . S
C980 C979 1.516 . S
C980 C981 1.502 . S
C980 C982 1.561 . S
C980 C983 1.526 . S
C981 H965 0.959 . S
C981 H966 0.959 . S
C981 H967 0.961 . S
C981 C980 1.502 . S
C982 H968 0.960 . S
C982 H969 0.961 . S
C982 H970 0.959 . S
C982 C980 1.561 . S
C983 C980 1.526 . S
C983 C984 1.396 . S
C983 C988 1.390 . S
C984 C978 1.465 . S
C984 C983 1.396 . S
C984 C985 1.399 . S
C985 H971 0.929 . S
C985 C984 1.399 . S
C985 C986 1.385 . S
C986 H972 0.931 . S
C986 C985 1.385 . S
C986 C987 1.389 . S
C987 C986 1.389 . S
C987 C988 1.387 . S
C988 H973 0.930 . S
C988 C983 1.390 . S
C988 C987 1.387 . S
H989 C1001 0.930 . S
H990 C1003 0.930 . S
H991 C1004 0.930 . S
H992 C1008 0.959 . S
H993 C1008 0.959 . S
H994 C1008 0.961 . S
H995 C1009 0.960 . S
H996 C1009 0.961 . S
H997 C1009 0.959 . S
H998 C1012 0.929 . S
H999 C1013 0.931 . S
H1000 C1015 0.930 . S
C1001 H989 0.930 . S
C1001 C1002 1.399 . S
C1001 C1006 1.399 . S
C1002 C1001 1.399 . S
C1002 C1003 1.376 . S
C1003 H990 0.930 . S
C1003 C1002 1.376 . S
C1003 C1004 1.388 . S
C1004 H991 0.930 . S
C1004 C1003 1.388 . S
C1004 C1005 1.390 . S
C1005 C1004 1.390 . S
C1005 C1006 1.394 . S
C1005 C1011 1.465 . S
C1006 C1001 1.399 . S
C1006 C1005 1.394 . S
C1006 C1007 1.516 . S
C1007 C1006 1.516 . S
C1007 C1008 1.502 . S
C1007 C1009 1.561 . S
C1007 C1010 1.526 . S
C1008 H992 0.959 . S
C1008 H993 0.959 . S
C1008 H994 0.961 . S
C1008 C1007 1.502 . S
C1009 H995 0.960 . S
C1009 H996 0.961 . S
C1009 H997 0.959 . S
C1009 C1007 1.561 . S
C1010 C1007 1.526 . S
C1010 C1011 1.396 . S
C1010 C1015 1.390 . S
C1011 C1005 1.465 . S
C1011 C1010 1.396 . S
C1011 C1012 1.399 . S
C1012 H998 0.929 . S
C1012 C1011 1.399 . S
C1012 C1013 1.385 . S
C1013 H999 0.931 . S
C1013 C1012 1.385 . S
C1013 C1014 1.389 . S
C1014 C1013 1.389 . S
C1014 C1015 1.387 . S
C1015 H1000 0.930 . S
C1015 C1010 1.390 . S
C1015 C1014 1.387 . S
H1016 C1028 0.930 . S
H1017 C1030 0.930 . S
H1018 C1031 0.930 . S
H1019 C1035 0.959 . S
H1020 C1035 0.959 . S
H1021 C1035 0.961 . S
H1022 C1036 0.960 . S
H1023 C1036 0.961 . S
H1024 C1036 0.959 . S
H1025 C1039 0.929 . S
H1026 C1040 0.931 . S
H1027 C1042 0.930 . S
C1028 H1016 0.930 . S
C1028 C1029 1.399 . S
C1028 C1033 1.399 . S
C1029 C1028 1.399 . S
C1029 C1030 1.376 . S
C1030 H1017 0.930 . S
C1030 C1029 1.376 . S
C1030 C1031 1.388 . S
C1031 H1018 0.930 . S
C1031 C1030 1.388 . S
C1031 C1032 1.390 . S
C1032 C1031 1.390 . S
C1032 C1033 1.394 . S
C1032 C1038 1.465 . S
C1033 C1028 1.399 . S
C1033 C1032 1.394 . S
C1033 C1034 1.516 . S
C1034 C1033 1.516 . S
C1034 C1035 1.502 . S
C1034 C1036 1.561 . S
C1034 C1037 1.526 . S
C1035 H1019 0.959 . S
C1035 H1020 0.959 . S
C1035 H1021 0.961 . S
C1035 C1034 1.502 . S
C1036 H1022 0.960 . S
C1036 H1023 0.961 . S
C1036 H1024 0.959 . S
C1036 C1034 1.561 . S
C1037 C1034 1.526 . S
C1037 C1038 1.396 . S
C1037 C1042 1.390 . S
C1038 C1032 1.465 . S
C1038 C1037 1.396 . S
C1038 C1039 1.399 . S
C1039 H1025 0.929 . S
C1039 C1038 1.399 . S
C1039 C1040 1.385 . S
C1040 H1026 0.931 . S
C1040 C1039 1.385 . S
C1040 C1041 1.389 . S
C1041 C1040 1.389 . S
C1041 C1042 1.387 . S
C1042 H1027 0.930 . S
C1042 C1037 1.390 . S
C1042 C1041 1.387 . S
H1043 C1055 0.930 . S
H1044 C1057 0.930 . S
H1045 C1058 0.930 . S
H1046 C1062 0.959 . S
H1047 C1062 0.959 . S
H1048 C1062 0.961 . S
H1049 C1063 0.960 . S
H1050 C1063 0.961 . S
H1051 C1063 0.959 . S
H1052 C1066 0.929 . S
H1053 C1067 0.931 . S
H1054 C1069 0.930 . S
C1055 H1043 0.930 . S
C1055 C1056 1.399 . S
C1055 C1060 1.399 . S
C1056 C1055 1.399 . S
C1056 C1057 1.376 . S
C1057 H1044 0.930 . S
C1057 C1056 1.376 . S
C1057 C1058 1.388 . S
C1058 H1045 0.930 . S
C1058 C1057 1.388 . S
C1058 C1059 1.390 . S
C1059 C1058 1.390 . S
C1059 C1060 1.394 . S
C1059 C1065 1.465 . S
C1060 C1055 1.399 . S
C1060 C1059 1.394 . S
C1060 C1061 1.516 . S
C1061 C1060 1.516 . S
C1061 C1062 1.502 . S
C1061 C1063 1.561 . S
C1061 C1064 1.526 . S
C1062 H1046 0.959 . S
C1062 H1047 0.959 . S
C1062 H1048 0.961 . S
C1062 C1061 1.502 . S
C1063 H1049 0.960 . S
C1063 H1050 0.961 . S
C1063 H1051 0.959 . S
C1063 C1061 1.561 . S
C1064 C1061 1.526 . S
C1064 C1065 1.396 . S
C1064 C1069 1.390 . S
C1065 C1059 1.465 . S
C1065 C1064 1.396 . S
C1065 C1066 1.399 . S
C1066 H1052 0.929 . S
C1066 C1065 1.399 . S
C1066 C1067 1.385 . S
C1067 H1053 0.931 . S
C1067 C1066 1.385 . S
C1067 C1068 1.389 . S
C1068 C1067 1.389 . S
C1068 C1069 1.387 . S
C1069 H1054 0.930 . S
C1069 C1064 1.390 . S
C1069 C1068 1.387 . S
H1070 C1082 0.930 . S
H1071 C1084 0.930 . S
H1072 C1085 0.930 . S
H1073 C1089 0.959 . S
H1074 C1089 0.959 . S
H1075 C1089 0.961 . S
H1076 C1090 0.960 . S
H1077 C1090 0.961 . S
H1078 C1090 0.959 . S
H1079 C1093 0.929 . S
H1080 C1094 0.931 . S
H1081 C1096 0.930 . S
C1082 H1070 0.930 . S
C1082 C1083 1.399 . S
C1082 C1087 1.399 . S
C1083 C1082 1.399 . S
C1083 C1084 1.376 . S
C1084 H1071 0.930 . S
C1084 C1083 1.376 . S
C1084 C1085 1.388 . S
C1085 H1072 0.930 . S
C1085 C1084 1.388 . S
C1085 C1086 1.390 . S
C1086 C1085 1.390 . S
C1086 C1087 1.394 . S
C1086 C1092 1.465 . S
C1087 C1082 1.399 . S
C1087 C1086 1.394 . S
C1087 C1088 1.516 . S
C1088 C1087 1.516 . S
C1088 C1089 1.502 . S
C1088 C1090 1.561 . S
C1088 C1091 1.526 . S
C1089 H1073 0.959 . S
C1089 H1074 0.959 . S
C1089 H1075 0.961 . S
C1089 C1088 1.502 . S
C1090 H1076 0.960 . S
C1090 H1077 0.961 . S
C1090 H1078 0.959 . S
C1090 C1088 1.561 . S
C1091 C1088 1.526 . S
C1091 C1092 1.396 . S
C1091 C1096 1.390 . S
C1092 C1086 1.465 . S
C1092 C1091 1.396 . S
C1092 C1093 1.399 . S
C1093 H1079 0.929 . S
C1093 C1092 1.399 . S
C1093 C1094 1.385 . S
C1094 H1080 0.931 . S
C1094 C1093 1.385 . S
C1094 C1095 1.389 . S
C1095 C1094 1.389 . S
C1095 C1096 1.387 . S
C1096 H1081 0.930 . S
C1096 C1091 1.390 . S
C1096 C1095 1.387 . S
H1097 C1109 0.930 . S
H1098 C1111 0.930 . S
H1099 C1112 0.930 . S
H1100 C1116 0.959 . S
H1101 C1116 0.959 . S
H1102 C1116 0.961 . S
H1103 C1117 0.960 . S
H1104 C1117 0.961 . S
H1105 C1117 0.959 . S
H1106 C1120 0.929 . S
H1107 C1121 0.931 . S
H1108 C1123 0.930 . S
C1109 H1097 0.930 . S
C1109 C1110 1.399 . S
C1109 C1114 1.399 . S
C1110 C1109 1.399 . S
C1110 C1111 1.376 . S
C1111 H1098 0.930 . S
C1111 C1110 1.376 . S
C1111 C1112 1.388 . S
C1112 H1099 0.930 . S
C1112 C1111 1.388 . S
C1112 C1113 1.390 . S
C1113 C1112 1.390 . S
C1113 C1114 1.394 . S
C1113 C1119 1.465 . S
C1114 C1109 1.399 . S
C1114 C1113 1.394 . S
C1114 C1115 1.516 . S
C1115 C1114 1.516 . S
C1115 C1116 1.502 . S
C1115 C1117 1.561 . S
C1115 C1118 1.526 . S
C1116 H1100 0.959 . S
C1116 H1101 0.959 . S
C1116 H1102 0.961 . S
C1116 C1115 1.502 . S
C1117 H1103 0.960 . S
C1117 H1104 0.961 . S
C1117 H1105 0.959 . S
C1117 C1115 1.561 . S
C1118 C1115 1.526 . S
C1118 C1119 1.396 . S
C1118 C1123 1.390 . S
C1119 C1113 1.465 . S
C1119 C1118 1.396 . S
C1119 C1120 1.399 . S
C1120 H1106 0.929 . S
C1120 C1119 1.399 . S
C1120 C1121 1.385 . S
C1121 H1107 0.931 . S
C1121 C1120 1.385 . S
C1121 C1122 1.389 . S
C1122 C1121 1.389 . S
C1122 C1123 1.387 . S
C1123 H1108 0.930 . S
C1123 C1118 1.390 . S
C1123 C1122 1.387 . S
H1124 C1136 0.930 . S
H1125 C1138 0.930 . S
H1126 C1139 0.930 . S
H1127 C1143 0.959 . S
H1128 C1143 0.959 . S
H1129 C1143 0.961 1_554 S
H1130 C1144 0.960 1_554 S
H1131 C1144 0.961 . S
H1132 C1144 0.959 . S
H1133 C1147 0.929 . S
H1134 C1148 0.931 . S
H1135 C1150 0.930 . S
C1136 H1124 0.930 . S
C1136 C1137 1.399 . S
C1136 C1141 1.399 . S
C1137 C1136 1.399 . S
C1137 C1138 1.376 1_545 S
C1138 H1125 0.930 . S
C1138 C1137 1.376 1_565 S
C1138 C1139 1.388 . S
C1139 H1126 0.930 . S
C1139 C1138 1.388 . S
C1139 C1140 1.390 . S
C1140 C1139 1.390 . S
C1140 C1141 1.394 1_565 S
C1140 C1146 1.465 1_554 S
C1141 C1136 1.399 . S
C1141 C1140 1.394 1_545 S
C1141 C1142 1.516 1_554 S
C1142 C1141 1.516 1_556 S
C1142 C1143 1.502 . S
C1142 C1144 1.561 . S
C1142 C1145 1.526 . S
C1143 H1127 0.959 . S
C1143 H1128 0.959 . S
C1143 H1129 0.961 1_556 S
C1143 C1142 1.502 . S
C1144 H1130 0.960 1_556 S
C1144 H1131 0.961 . S
C1144 H1132 0.959 . S
C1144 C1142 1.561 . S
C1145 C1142 1.526 . S
C1145 C1146 1.396 1_545 S
C1145 C1150 1.390 . S
C1146 C1140 1.465 1_556 S
C1146 C1145 1.396 1_565 S
C1146 C1147 1.399 . S
C1147 H1133 0.929 . S
C1147 C1146 1.399 . S
C1147 C1148 1.385 . S
C1148 H1134 0.931 . S
C1148 C1147 1.385 . S
C1148 C1149 1.389 . S
C1149 C1148 1.389 . S
C1149 C1150 1.387 1_565 S
C1150 H1135 0.930 . S
C1150 C1145 1.390 . S
C1150 C1149 1.387 1_545 S
H1151 C1163 0.930 . S
H1152 C1165 0.930 . S
H1153 C1166 0.930 . S
H1154 C1170 0.959 . S
H1155 C1170 0.959 . S
H1156 C1170 0.961 1_556 S
H1157 C1171 0.983 . S
H1158 C1171 0.940 1_554 S
H1159 C1171 0.959 . S
H1160 C1174 0.929 . S
H1161 C1175 0.931 . S
H1162 C1177 0.930 . S
C1163 H1151 0.930 . S
C1163 C1164 1.399 . S
C1163 C1168 1.399 . S
C1164 C1163 1.399 . S
C1164 C1165 1.376 1_455 S
C1165 H1152 0.930 . S
C1165 C1164 1.376 1_655 S
C1165 C1166 1.388 . S
C1166 H1153 0.930 . S
C1166 C1165 1.388 . S
C1166 C1167 1.390 . S
C1167 C1166 1.390 . S
C1167 C1168 1.394 1_655 S
C1167 C1173 1.465 1_556 S
C1168 C1163 1.399 . S
C1168 C1167 1.394 1_455 S
C1168 C1169 1.516 1_556 S
C1169 C1168 1.516 1_554 S
C1169 C1170 1.502 . S
C1169 C1171 1.560 1_454 S
C1169 C1172 1.526 . S
C1170 H1154 0.959 . S
C1170 H1155 0.959 . S
C1170 H1156 0.961 1_554 S
C1170 C1169 1.502 . S
C1171 H1157 0.983 . S
C1171 H1158 0.940 1_556 S
C1171 H1159 0.959 . S
C1171 C1169 1.560 1_656 S
C1172 C1169 1.526 . S
C1172 C1173 1.396 1_455 S
C1172 C1177 1.390 . S
C1173 C1167 1.465 1_554 S
C1173 C1172 1.396 1_655 S
C1173 C1174 1.399 . S
C1174 H1160 0.929 . S
C1174 C1173 1.399 . S
C1174 C1175 1.385 . S
C1175 H1161 0.931 . S
C1175 C1174 1.385 . S
C1175 C1176 1.389 . S
C1176 C1175 1.389 . S
C1176 C1177 1.387 1_655 S
C1177 H1162 0.930 . S
C1177 C1172 1.390 . S
C1177 C1176 1.387 1_455 S
H1178 C1190 0.930 . S
H1179 C1192 0.930 . S
H1180 C1193 0.930 . S
H1181 C1197 0.959 . S
H1182 C1197 0.959 . S
H1183 C1197 0.961 1_556 S
H1184 C1198 0.960 1_556 S
H1185 C1198 0.961 . S
H1186 C1198 0.959 . S
H1187 C1201 0.929 . S
H1188 C1202 0.931 . S
H1189 C1204 0.930 . S
C1190 H1178 0.930 . S
C1190 C1191 1.399 . S
C1190 C1195 1.399 . S
C1191 C1190 1.399 . S
C1191 C1192 1.376 1_545 S
C1192 H1179 0.930 . S
C1192 C1191 1.376 1_565 S
C1192 C1193 1.388 . S
C1193 H1180 0.930 . S
C1193 C1192 1.388 . S
C1193 C1194 1.390 . S
C1194 C1193 1.390 . S
C1194 C1195 1.394 1_565 S
C1194 C1200 1.465 1_556 S
C1195 C1190 1.399 . S
C1195 C1194 1.394 1_545 S
C1195 C1196 1.516 1_556 S
C1196 C1195 1.516 1_554 S
C1196 C1197 1.502 . S
C1196 C1198 1.561 . S
C1196 C1199 1.526 . S
C1197 H1181 0.959 . S
C1197 H1182 0.959 . S
C1197 H1183 0.961 1_554 S
C1197 C1196 1.502 . S
C1198 H1184 0.960 1_554 S
C1198 H1185 0.961 . S
C1198 H1186 0.959 . S
C1198 C1196 1.561 . S
C1199 C1196 1.526 . S
C1199 C1200 1.396 1_545 S
C1199 C1204 1.390 . S
C1200 C1194 1.465 1_554 S
C1200 C1199 1.396 1_565 S
C1200 C1201 1.399 . S
C1201 H1187 0.929 . S
C1201 C1200 1.399 . S
C1201 C1202 1.385 . S
C1202 H1188 0.931 . S
C1202 C1201 1.385 . S
C1202 C1203 1.389 . S
C1203 C1202 1.389 . S
C1203 C1204 1.387 1_565 S
C1204 H1189 0.930 . S
C1204 C1199 1.390 . S
C1204 C1203 1.387 1_545 S
H1205 C1217 0.930 . S
H1206 C1219 0.930 . S
H1207 C1220 0.930 . S
H1208 C1224 0.959 . S
H1209 C1224 0.959 . S
H1210 C1224 0.961 1_556 S
H1211 C1225 0.960 . S
H1212 C1225 0.961 1_554 S
H1213 C1225 0.959 . S
H1214 C1228 0.929 . S
H1215 C1229 0.931 . S
H1216 C1231 0.925 1_655 S
C1217 H1205 0.930 . S
C1217 C1218 1.399 . S
C1217 C1222 1.399 . S
C1218 C1217 1.399 . S
C1218 C1219 1.376 1_655 S
C1219 H1206 0.930 . S
C1219 C1218 1.376 1_455 S
C1219 C1220 1.388 . S
C1220 H1207 0.930 . S
C1220 C1219 1.388 . S
C1220 C1221 1.390 . S
C1221 C1220 1.390 . S
C1221 C1222 1.394 1_455 S
C1221 C1227 1.465 1_556 S
C1222 C1217 1.399 . S
C1222 C1221 1.394 1_655 S
C1222 C1223 1.493 1_556 S
C1223 C1222 1.493 1_554 S
C1223 C1224 1.505 . S
C1223 C1225 1.560 1_654 S
C1223 C1226 1.544 1_655 S
C1224 H1208 0.959 . S
C1224 H1209 0.959 . S
C1224 H1210 0.961 1_554 S
C1224 C1223 1.505 . S
C1225 H1211 0.960 . S
C1225 H1212 0.961 1_556 S
C1225 H1213 0.959 . S
C1225 C1223 1.560 1_456 S
C1226 C1223 1.544 1_455 S
C1226 C1227 1.402 . S
C1226 C1231 1.390 . S
C1227 C1221 1.465 1_554 S
C1227 C1226 1.402 . S
C1227 C1228 1.399 . S
C1228 H1214 0.929 . S
C1228 C1227 1.399 . S
C1228 C1229 1.385 . S
C1229 H1215 0.931 . S
C1229 C1228 1.385 . S
C1229 C1230 1.389 . S
C1230 C1229 1.389 . S
C1230 C1231 1.392 . S
C1231 H1216 0.925 1_455 S
C1231 C1226 1.390 . S
C1231 C1230 1.392 . S
C381 N12 1.734 . S
C393 N173 1.735 . S
C408 N35 1.695 . S
C420 N104 1.707 . S
C435 N127 1.701 . S
C447 N58 1.712 . S
C462 N81 1.703 . S
C474 N150 1.714 . S
C489 N196 1.733 . S
C501 N357 1.735 . S
C516 N288 1.671 . S
C528 N219 1.666 . S
C543 N311 1.715 . S
C555 N242 1.724 . S
C570 N334 1.664 . S
C582 N265 1.662 . S
C597 N2 1.773 . S
C609 C269 1.792 . S
C624 N25 1.784 . S
C636 C200 1.732 . S
C651 C223 1.747 . S
C663 N48 1.730 . S
C678 N71 1.753 . S
C690 C246 1.726 . S
C705 N94 1.787 . S
C717 C315 1.793 . S
C732 C338 1.772 . S
C744 N117 1.794 . S
C759 N140 1.764 . S
C771 C361 1.732 . S
C786 C292 1.752 . S
C798 N163 1.730 . S
C813 N186 1.774 . S
C825 C85 1.792 . S
C840 C16 1.736 . S
C852 N209 1.737 . S
C867 N232 1.794 . S
C879 C39 1.788 . S
C894 C62 1.729 . S
C906 N255 1.745 . S
C921 N278 1.754 . S
C933 C131 1.782 . S
C948 C154 1.787 . S
C960 N301 1.744 . S
C975 C177 1.792 . S
C987 N324 1.774 . S
C1002 C108 1.729 . S
C1014 N347 1.746 . S
C1029 C99 1.916 . S
C1041 C7 1.940 . S
C1056 C122 1.918 . S
C1068 C30 1.930 . S
C1083 C53 1.976 . S
C1095 C145 1.952 . S
C1110 C168 1.973 . S
C1122 C76 1.961 . S
C1137 C283 1.976 . S
C1149 C191 1.950 . S
C1164 C306 1.974 . S
C1176 C214 1.962 . S
C1191 C237 1.975 . S
C1203 C329 1.949 . S
C1218 C352 1.975 . S
C1230 C260 1.965 . S
