# Generated by pormake.
# Topology lcs, (4)-cn, num edge types: 1
# Building blocks:
#     Node 0, Type 0, BuildingBlock: NAHDIM_clean_sbu_0, # of connection points: 4
#     Node 1, Type 0, BuildingBlock: NAHDIM_clean_sbu_0, # of connection points: 4
#     Node 2, Type 0, BuildingBlock: NAHDIM_clean_sbu_0, # of connection points: 4
#     Node 3, Type 0, BuildingBlock: NAHDIM_clean_sbu_0, # of connection points: 4
#     Node 4, Type 0, BuildingBlock: NAHDIM_clean_sbu_0, # of connection points: 4
#     Node 5, Type 0, BuildingBlock: NAHDIM_clean_sbu_0, # of connection points: 4
#     Node 6, Type 0, BuildingBlock: NAHDIM_clean_sbu_0, # of connection points: 4
#     Node 7, Type 0, BuildingBlock: NAHDIM_clean_sbu_0, # of connection points: 4
#     Node 8, Type 0, BuildingBlock: NAHDIM_clean_sbu_0, # of connection points: 4
#     Node 9, Type 0, BuildingBlock: NAHDIM_clean_sbu_0, # of connection points: 4
#     Node 10, Type 0, BuildingBlock: NAHDIM_clean_sbu_0, # of connection points: 4
#     Node 11, Type 0, BuildingBlock: NAHDIM_clean_sbu_0, # of connection points: 4
#     Node 12, Type 0, BuildingBlock: NAHDIM_clean_sbu_0, # of connection points: 4
#     Node 13, Type 0, BuildingBlock: NAHDIM_clean_sbu_0, # of connection points: 4
#     Node 14, Type 0, BuildingBlock: NAHDIM_clean_sbu_0, # of connection points: 4
#     Node 15, Type 0, BuildingBlock: NAHDIM_clean_sbu_0, # of connection points: 4
#     Node 16, Type 0, BuildingBlock: NAHDIM_clean_sbu_0, # of connection points: 4
#     Node 17, Type 0, BuildingBlock: NAHDIM_clean_sbu_0, # of connection points: 4
#     Node 18, Type 0, BuildingBlock: NAHDIM_clean_sbu_0, # of connection points: 4
#     Node 19, Type 0, BuildingBlock: NAHDIM_clean_sbu_0, # of connection points: 4
#     Node 20, Type 0, BuildingBlock: NAHDIM_clean_sbu_0, # of connection points: 4
#     Node 21, Type 0, BuildingBlock: NAHDIM_clean_sbu_0, # of connection points: 4
#     Node 22, Type 0, BuildingBlock: NAHDIM_clean_sbu_0, # of connection points: 4
#     Node 23, Type 0, BuildingBlock: NAHDIM_clean_sbu_0, # of connection points: 4
#     Edge 24, Type (0, 0), BuildingBlock: EZIPEK_clean_linker_0, # of connection points: 2
#     Edge 25, Type (0, 0), BuildingBlock: EZIPEK_clean_linker_0, # of connection points: 2
#     Edge 26, Type (0, 0), BuildingBlock: EZIPEK_clean_linker_0, # of connection points: 2
#     Edge 27, Type (0, 0), BuildingBlock: EZIPEK_clean_linker_0, # of connection points: 2
#     Edge 28, Type (0, 0), BuildingBlock: EZIPEK_clean_linker_0, # of connection points: 2
#     Edge 29, Type (0, 0), BuildingBlock: EZIPEK_clean_linker_0, # of connection points: 2
#     Edge 30, Type (0, 0), BuildingBlock: EZIPEK_clean_linker_0, # of connection points: 2
#     Edge 31, Type (0, 0), BuildingBlock: EZIPEK_clean_linker_0, # of connection points: 2
#     Edge 32, Type (0, 0), BuildingBlock: EZIPEK_clean_linker_0, # of connection points: 2
#     Edge 33, Type (0, 0), BuildingBlock: EZIPEK_clean_linker_0, # of connection points: 2
#     Edge 34, Type (0, 0), BuildingBlock: EZIPEK_clean_linker_0, # of connection points: 2
#     Edge 35, Type (0, 0), BuildingBlock: EZIPEK_clean_linker_0, # of connection points: 2
#     Edge 36, Type (0, 0), BuildingBlock: EZIPEK_clean_linker_0, # of connection points: 2
#     Edge 37, Type (0, 0), BuildingBlock: EZIPEK_clean_linker_0, # of connection points: 2
#     Edge 38, Type (0, 0), BuildingBlock: EZIPEK_clean_linker_0, # of connection points: 2
#     Edge 39, Type (0, 0), BuildingBlock: EZIPEK_clean_linker_0, # of connection points: 2
#     Edge 40, Type (0, 0), BuildingBlock: EZIPEK_clean_linker_0, # of connection points: 2
#     Edge 41, Type (0, 0), BuildingBlock: EZIPEK_clean_linker_0, # of connection points: 2
#     Edge 42, Type (0, 0), BuildingBlock: EZIPEK_clean_linker_0, # of connection points: 2
#     Edge 43, Type (0, 0), BuildingBlock: EZIPEK_clean_linker_0, # of connection points: 2
#     Edge 44, Type (0, 0), BuildingBlock: EZIPEK_clean_linker_0, # of connection points: 2
#     Edge 45, Type (0, 0), BuildingBlock: EZIPEK_clean_linker_0, # of connection points: 2
#     Edge 46, Type (0, 0), BuildingBlock: EZIPEK_clean_linker_0, # of connection points: 2
#     Edge 47, Type (0, 0), BuildingBlock: EZIPEK_clean_linker_0, # of connection points: 2
#     Edge 48, Type (0, 0), BuildingBlock: EZIPEK_clean_linker_0, # of connection points: 2
#     Edge 49, Type (0, 0), BuildingBlock: EZIPEK_clean_linker_0, # of connection points: 2
#     Edge 50, Type (0, 0), BuildingBlock: EZIPEK_clean_linker_0, # of connection points: 2
#     Edge 51, Type (0, 0), BuildingBlock: EZIPEK_clean_linker_0, # of connection points: 2
#     Edge 52, Type (0, 0), BuildingBlock: EZIPEK_clean_linker_0, # of connection points: 2
#     Edge 53, Type (0, 0), BuildingBlock: EZIPEK_clean_linker_0, # of connection points: 2
#     Edge 54, Type (0, 0), BuildingBlock: EZIPEK_clean_linker_0, # of connection points: 2
#     Edge 55, Type (0, 0), BuildingBlock: EZIPEK_clean_linker_0, # of connection points: 2
#     Edge 56, Type (0, 0), BuildingBlock: EZIPEK_clean_linker_0, # of connection points: 2
#     Edge 57, Type (0, 0), BuildingBlock: EZIPEK_clean_linker_0, # of connection points: 2
#     Edge 58, Type (0, 0), BuildingBlock: EZIPEK_clean_linker_0, # of connection points: 2
#     Edge 59, Type (0, 0), BuildingBlock: EZIPEK_clean_linker_0, # of connection points: 2
#     Edge 60, Type (0, 0), BuildingBlock: EZIPEK_clean_linker_0, # of connection points: 2
#     Edge 61, Type (0, 0), BuildingBlock: EZIPEK_clean_linker_0, # of connection points: 2
#     Edge 62, Type (0, 0), BuildingBlock: EZIPEK_clean_linker_0, # of connection points: 2
#     Edge 63, Type (0, 0), BuildingBlock: EZIPEK_clean_linker_0, # of connection points: 2
#     Edge 64, Type (0, 0), BuildingBlock: EZIPEK_clean_linker_0, # of connection points: 2
#     Edge 65, Type (0, 0), BuildingBlock: EZIPEK_clean_linker_0, # of connection points: 2
#     Edge 66, Type (0, 0), BuildingBlock: EZIPEK_clean_linker_0, # of connection points: 2
#     Edge 67, Type (0, 0), BuildingBlock: EZIPEK_clean_linker_0, # of connection points: 2
#     Edge 68, Type (0, 0), BuildingBlock: EZIPEK_clean_linker_0, # of connection points: 2
#     Edge 69, Type (0, 0), BuildingBlock: EZIPEK_clean_linker_0, # of connection points: 2
#     Edge 70, Type (0, 0), BuildingBlock: EZIPEK_clean_linker_0, # of connection points: 2
#     Edge 71, Type (0, 0), BuildingBlock: EZIPEK_clean_linker_0, # of connection points: 2
# Relax obj value: 0.091
# Max RMSD: 0.165
# Mean RMSD: 0.151
data_MOF--net-lcs--node1-NAHDIM_clean_sbu_0--edge1-EZIPEK_clean_linker_0
_symmetry_space_group_name_H-M    P1
_symmetry_Int_Tables_number       1
_symmetry_cell_setting            triclinic
loop_
_symmetry_equiv_pos_as_xyz
'x, y, z'
_cell_length_a     37.030956
_cell_length_b     35.534743
_cell_length_c     35.423515
_cell_angle_alpha  92.104414
_cell_angle_beta   90.651739
_cell_angle_gamma 91.313379
loop_
_atom_site_label
_atom_site_type_symbol
_atom_site_fract_x
_atom_site_fract_y
_atom_site_fract_z
_atom_type_partial_charge
C0 C 0.92875 0.26278 0.42069 0.0
O1 O 0.91633 0.25492 0.38637 0.0
O2 O 0.96383 0.20117 0.35586 0.0
Zn3 Zn 0.99164 0.24228 0.3838 0.0
O4 O -0.00105 0.28669 0.35126 0.0
C5 C 0.04316 0.19976 0.42598 0.0
O6 O 0.0145 0.18699 0.44338 0.0
O7 O 0.96209 0.25898 0.42803 0.0
C8 C 0.029 0.29178 0.33514 0.0
O9 O 0.05411 0.26646 0.33747 0.0
C10 C 0.97323 0.18506 0.32511 0.0
O11 O 0.00381 0.19476 0.30931 0.0
O12 O 0.03971 0.22349 0.40037 0.0
C13 C 0.07211 0.71619 0.6159 0.0
O14 O 0.07518 0.71275 0.65259 0.0
O15 O 0.99143 0.70544 0.66777 0.0
Zn16 Zn 0.00931 0.75038 0.6408 0.0
O17 O 0.03365 0.7878 0.67716 0.0
C18 C 0.94617 0.75599 0.59266 0.0
O19 O 0.95175 0.72042 0.58371 0.0
O20 O 0.04516 0.73295 0.60258 0.0
C21 C 0.02529 0.82227 0.67724 0.0
O22 O -0.00035 0.83321 0.65453 0.0
C23 C 0.97655 0.70809 0.69982 0.0
O24 O 0.97297 0.74129 0.71671 0.0
O25 O 0.9673 0.77387 0.61572 0.0
C26 C 0.44222 0.77204 0.92055 0.0
O27 O 0.44276 0.7351 0.92025 0.0
O28 O 0.47682 0.71791 0.84602 0.0
Zn29 Zn 0.50211 0.76287 0.87092 0.0
O30 O 0.5224 0.79837 0.83344 0.0
C31 C 0.57303 0.73852 0.88919 0.0
O32 O 0.57895 0.74815 0.85432 0.0
O33 O 0.46564 0.7903 0.90223 0.0
C34 C 0.50614 0.80658 0.8032 0.0
O35 O 0.47493 0.79017 0.79413 0.0
C36 C 0.49135 0.69574 0.82205 0.0
O37 O 0.52357 0.70393 0.80917 0.0
O38 O 0.54208 0.74337 0.90346 0.0
C39 C 0.57548 0.22779 0.11588 0.0
O40 O 0.57655 0.22425 0.15263 0.0
O41 O 0.49161 0.22485 0.16318 0.0
Zn42 Zn 0.51369 0.26833 0.13642 0.0
O43 O 0.53676 0.30701 0.17238 0.0
C44 C 0.44219 0.29068 0.11926 0.0
O45 O 0.4355 0.27327 0.15056 0.0
O46 O 0.55104 0.24739 0.10135 0.0
C47 C 0.51908 0.32367 0.19828 0.0
O48 O 0.48491 0.31483 0.2032 0.0
C49 C 0.50036 0.21416 0.19575 0.0
O50 O 0.52628 0.23191 0.21523 0.0
O51 O 0.47428 0.29258 0.10699 0.0
C52 C 0.06923 0.79423 0.11879 0.0
O53 O 0.07217 0.79332 0.15573 0.0
O54 O 0.02495 0.71573 0.16274 0.0
Zn55 Zn 0.0039 0.7598 0.13747 0.0
O56 O 0.99071 0.79982 0.17556 0.0
C57 C 0.95629 0.71563 0.08703 0.0
O58 O 0.98574 0.69804 0.07724 0.0
O59 O 0.04081 0.78082 0.10244 0.0
C60 C 0.97646 0.82867 0.16219 0.0
O61 O 0.97313 0.83126 0.12543 0.0
C62 C 0.02123 0.70983 0.19763 0.0
O63 O 0.00284 0.7333 0.21902 0.0
O64 O 0.95811 0.74311 0.11089 0.0
C65 C 0.44107 0.71582 0.40455 0.0
O66 O 0.44671 0.70644 0.36893 0.0
O67 O 0.52694 0.71169 0.36667 0.0
Zn68 Zn 0.50447 0.75662 0.39171 0.0
O69 O 0.48556 0.79267 0.35498 0.0
C70 C 0.56229 0.76488 0.44565 0.0
O71 O 0.55776 0.72823 0.44753 0.0
O72 O 0.46297 0.73854 0.42196 0.0
C73 C 0.50596 0.81431 0.33655 0.0
O74 O 0.54121 0.81217 0.33979 0.0
C75 C 0.52742 0.70405 0.33141 0.0
O76 O 0.51293 0.72704 0.30766 0.0
O77 O 0.54182 0.78323 0.42444 0.0
C78 C 0.56978 0.2987 0.60425 0.0
O79 O 0.5687 0.2994 0.64132 0.0
O80 O 0.52452 0.21539 0.64115 0.0
Zn81 Zn 0.50477 0.26081 0.6167 0.0
O82 O 0.49085 0.30026 0.65546 0.0
C83 C 0.43373 0.23387 0.60305 0.0
O84 O 0.43608 0.22977 0.63967 0.0
O85 O 0.54408 0.28273 0.58527 0.0
C86 C 0.47805 0.33004 0.64245 0.0
O87 O 0.47508 0.33313 0.60571 0.0
C88 C 0.51845 0.20701 0.67507 0.0
O89 O 0.49765 0.22827 0.69624 0.0
O90 O 0.4608 0.24646 0.58538 0.0
C91 C 0.93437 0.19136 0.89495 0.0
O92 O 0.93413 0.19203 0.85792 0.0
O93 O 0.02137 0.18594 0.84905 0.0
Zn94 Zn 0.00193 0.22684 0.88331 0.0
O95 O 0.98268 0.27055 0.8556 0.0
C96 C 0.07287 0.25222 0.90278 0.0
O97 O 0.07809 0.24102 0.86757 0.0
O98 O 0.96144 0.20516 0.91346 0.0
C99 C -0.00174 0.28685 0.82873 0.0
O100 O 0.02832 0.27362 0.81478 0.0
C101 C 0.01158 0.17812 0.81514 0.0
O102 O 0.9865 0.19775 0.79899 0.0
O103 O 0.04197 0.24741 0.91733 0.0
C104 C 0.43242 0.93117 0.26013 0.0
O105 O 0.40768 0.92196 0.23438 0.0
O106 O 0.37761 0.98974 0.20752 0.0
Zn107 Zn 0.40417 0.00585 0.25526 0.0
O108 O 0.3685 0.01502 0.29659 0.0
C109 C 0.42013 0.08404 0.24395 0.0
O110 O 0.38534 0.08754 0.24932 0.0
O111 O 0.4363 0.96516 0.27206 0.0
C112 C 0.37813 0.0324 0.32713 0.0
O113 O 0.41155 0.0452 0.33131 0.0
C114 C 0.34736 0.00372 0.19949 0.0
O115 O 0.33316 0.02902 0.22242 0.0
O116 O 0.43428 0.05199 0.24605 0.0
C117 C 0.18468 0.14353 0.45897 0.0
O118 O 0.18892 0.10709 0.45422 0.0
O119 O 0.24201 0.11183 0.53656 0.0
Zn120 Zn 0.25444 0.1363 0.48838 0.0
O121 O 0.26755 0.09856 0.44782 0.0
C122 C 0.29854 0.18891 0.53093 0.0
O123 O 0.26953 0.19033 0.55185 0.0
O124 O 0.21056 0.16415 0.47247 0.0
C125 C 0.29285 0.07572 0.45274 0.0
O126 O 0.31092 0.07852 0.4849 0.0
C127 C 0.22815 0.07918 0.53962 0.0
O128 O 0.22157 0.05746 0.50942 0.0
O129 O 0.29783 0.16934 0.50024 0.0
C130 C 0.17913 0.05264 0.69 0.0
O131 O 0.15952 0.07906 0.70573 0.0
O132 O 0.11914 0.05044 0.76542 0.0
Zn133 Zn 0.15233 0.00846 0.75079 0.0
O134 O 0.12246 0.96287 0.73479 0.0
C135 C 0.17006 -0.00139 0.82786 0.0
O136 O 0.13832 0.0138 0.83213 0.0
O137 O 0.18164 0.02109 0.70536 0.0
C138 C 0.10299 0.94345 0.75643 0.0
O139 O 0.10135 0.95259 0.79259 0.0
C140 C 0.08873 0.05423 0.74922 0.0
O141 O 0.07801 0.0304 0.72195 0.0
O142 O 0.18343 0.99522 0.79506 0.0
C143 C 0.32635 0.85723 0.98574 0.0
O144 O 0.33244 0.89362 0.99078 0.0
O145 O 0.28059 0.90921 0.05546 0.0
Zn146 Zn 0.25828 0.87958 0.01114 0.0
O147 O 0.24666 0.9114 0.96671 0.0
C148 C 0.19111 0.8664 0.0497 0.0
O149 O 0.19601 0.90175 0.06094 0.0
O150 O 0.29547 0.8432 0.99306 0.0
C151 C 0.22004 0.93313 0.96442 0.0
O152 O 0.19811 0.93751 0.99294 0.0
C153 C 0.27402 0.94298 0.06558 0.0
O154 O 0.25096 0.96237 0.04626 0.0
O155 O 0.21383 0.85086 0.02785 0.0
C156 C 0.32167 0.3579 0.04468 0.0
O157 O 0.31947 0.39473 0.04454 0.0
O158 O 0.23736 0.39872 0.05349 0.0
Zn159 Zn 0.25424 0.36554 0.01044 0.0
O160 O 0.27191 0.39378 0.96582 0.0
C161 C 0.19209 0.33988 0.96826 0.0
O162 O 0.19705 0.3728 0.95326 0.0
O163 O 0.296 0.33741 0.0306 0.0
C164 C 0.28164 0.42826 0.96596 0.0
O165 O 0.27909 0.44948 0.9969 0.0
C166 C 0.21121 0.42103 0.05187 0.0
O167 O 0.19402 0.42519 0.01973 0.0
O168 O 0.21356 0.32979 0.99402 0.0
C169 C 0.6762 0.13748 0.03088 0.0
O170 O 0.66706 0.10181 0.02503 0.0
O171 O 0.75957 0.07989 0.03932 0.0
Zn172 Zn 0.74177 0.1124 -0.00199 0.0
O173 O 0.71749 0.08272 0.95489 0.0
C174 C 0.81066 0.12173 0.96472 0.0
O175 O 0.8093 0.08481 0.96541 0.0
O176 O 0.707 0.14934 0.02048 0.0
C177 C 0.72549 0.04943 0.94433 0.0
O178 O 0.75048 0.03144 0.96246 0.0
C179 C 0.74256 0.05179 0.05219 0.0
O180 O 0.71129 0.04072 0.03734 0.0
O181 O 0.78451 0.14052 0.97775 0.0
C182 C 0.09105 0.57872 0.25291 0.0
O183 O 0.12237 0.58182 0.27064 0.0
O184 O 0.12892 0.48621 0.20239 0.0
Zn185 Zn 0.10683 0.50017 0.25256 0.0
O186 O 0.14448 0.51329 0.29308 0.0
C187 C 0.08441 0.42424 0.26627 0.0
O188 O 0.11498 0.41691 0.24947 0.0
O189 O 0.07798 0.54629 0.24354 0.0
C190 C 0.16122 0.49112 0.31414 0.0
O191 O 0.15632 0.45453 0.30955 0.0
C192 C 0.15892 0.47018 0.19788 0.0
O193 O 0.17859 0.46203 0.22741 0.0
O194 O 0.07419 0.45808 0.26969 0.0
C195 C 0.8293 0.84331 0.53651 0.0
O196 O 0.8383 0.8727 0.51696 0.0
O197 O 0.74313 0.9058 0.5664 0.0
Zn198 Zn 0.75797 0.87012 0.52445 0.0
O199 O 0.77654 0.89731 0.47972 0.0
C200 C 0.68316 0.84518 0.5175 0.0
O201 O 0.6775 0.87245 0.5426 0.0
O202 O 0.79629 0.83631 0.54341 0.0
C203 C 0.75909 0.92247 0.46333 0.0
O204 O 0.72763 0.93288 0.4763 0.0
C205 C 0.75604 0.93877 0.5732 0.0
O206 O 0.78225 0.95213 0.55253 0.0
O207 O 0.71502 0.83875 0.50644 0.0
C208 C 0.80671 0.98752 0.1834 0.0
O209 O 0.81693 0.9524 0.184 0.0
O210 O 0.87442 0.9504 0.23704 0.0
Zn211 Zn 0.84455 0.99373 0.25476 0.0
O212 O 0.87835 0.03602 0.27196 0.0
C213 C 0.82795 0.97658 0.33028 0.0
O214 O 0.86232 0.98556 0.33497 0.0
O215 O 0.81446 0.01016 0.21104 0.0
C216 C 0.8718 0.07055 0.26791 0.0
O217 O 0.84124 0.08017 0.25218 0.0
C218 C 0.9074 0.94734 0.24638 0.0
O219 O 0.92295 0.97221 0.27 0.0
O220 O 0.81341 0.97791 0.29773 0.0
C221 C 0.18184 0.64101 0.52981 0.0
O222 O 0.18139 0.60425 0.53272 0.0
O223 O 0.263 0.59772 0.54371 0.0
Zn224 Zn 0.24736 0.62297 0.49655 0.0
O225 O 0.22738 0.58646 0.45606 0.0
C226 C 0.32061 0.64177 0.47544 0.0
O227 O 0.32703 0.60824 0.48797 0.0
O228 O 0.20779 0.65695 0.51301 0.0
C229 C 0.24604 0.56983 0.43087 0.0
O230 O 0.28132 0.57429 0.43108 0.0
C231 C 0.27821 0.56623 0.54586 0.0
O232 O 0.28332 0.54542 0.51506 0.0
O233 O 0.28875 0.6543 0.47684 0.0
C234 C 0.34509 0.51939 0.68365 0.0
O235 O 0.38051 0.51908 0.68229 0.0
O236 O 0.39231 0.45696 0.73643 0.0
Zn237 Zn 0.36397 0.50136 0.75615 0.0
O238 O 0.39454 0.54846 0.76596 0.0
C239 C 0.35088 0.46831 0.82762 0.0
O240 O 0.38243 0.45342 0.8211 0.0
O241 O 0.32942 0.51267 0.71445 0.0
C242 C 0.41901 0.55161 0.79135 0.0
O243 O 0.42619 0.52268 0.81197 0.0
C244 C 0.42639 0.45553 0.73317 0.0
O245 O 0.44704 0.48388 0.74574 0.0
O246 O 0.33715 0.48956 0.80352 0.0
C247 C 0.59182 0.07944 0.73392 0.0
O248 O 0.61851 0.08539 0.75829 0.0
O249 O 0.64824 0.98787 0.69981 0.0
Zn250 Zn 0.61292 0.00267 0.7398 0.0
O251 O 0.64045 0.01767 0.78729 0.0
C252 C 0.57839 0.92858 0.73034 0.0
O253 O 0.59576 0.9267 0.69823 0.0
O254 O 0.5839 0.04605 0.72204 0.0
C255 C 0.65485 0.99298 0.80725 0.0
O256 O 0.65227 0.95723 0.79651 0.0
C257 C 0.67521 0.00879 0.69206 0.0
O258 O 0.68085 0.04104 0.71072 0.0
O259 O 0.58069 0.95834 0.7513 0.0
C260 C 0.68311 0.65863 0.9685 0.0
O261 O 0.67787 0.62237 0.97271 0.0
O262 O 0.72951 0.61515 0.04623 0.0
Zn263 Zn 0.75021 0.64083 0.00134 0.0
O264 O 0.76624 0.60474 0.96015 0.0
C265 C 0.81699 0.65453 0.03861 0.0
O266 O 0.80959 0.62023 0.04926 0.0
O267 O 0.71287 0.6742 0.97929 0.0
C268 C 0.7815 0.57356 0.96465 0.0
O269 O 0.78678 0.56121 -0.00133 0.0
C270 C 0.71363 0.58307 0.0458 0.0
O271 O 0.70961 0.56322 0.01397 0.0
O272 O 0.79432 0.67117 0.01828 0.0
C273 C 0.92657 0.42455 0.80022 0.0
O274 O 0.8936 0.42494 0.81347 0.0
O275 O 0.87428 0.48723 0.73377 0.0
Zn276 Zn 0.9066 0.49726 0.77896 0.0
O277 O 0.87898 0.50625 0.82688 0.0
C278 C 0.91589 0.57222 0.7599 0.0
O279 O 0.88054 0.56882 0.76056 0.0
O280 O 0.93915 0.45323 0.78401 0.0
C281 C 0.84682 0.51793 0.82766 0.0
O282 O 0.82915 0.52284 0.79596 0.0
C283 C 0.84808 0.46364 0.73076 0.0
O284 O 0.83895 0.44341 0.75957 0.0
O285 O 0.93498 0.54433 0.76806 0.0
C286 C 0.81868 0.32761 0.51241 0.0
O287 O 0.80848 0.31979 0.54669 0.0
O288 O 0.78771 0.40689 0.56797 0.0
Zn289 Zn 0.76672 0.38609 0.5193 0.0
O290 O 0.7536 0.42583 0.48302 0.0
C291 C 0.69584 0.37239 0.54459 0.0
O292 O 0.6971 0.40931 0.5481 0.0
O293 O 0.80413 0.35415 0.4952 0.0
C294 C 0.73257 0.41417 0.45631 0.0
O295 O 0.72138 0.37879 0.455 0.0
C296 C 0.78043 0.43809 0.58433 0.0
O297 O 0.7582 0.46118 0.56838 0.0
O298 O 0.72287 0.35507 0.53155 0.0
C299 C 0.65483 0.53334 0.18622 0.0
O300 O 0.6196 0.53182 0.1903 0.0
O301 O 0.62317 0.56102 0.27656 0.0
Zn302 Zn 0.64874 0.51381 0.26097 0.0
O303 O 0.6141 0.47057 0.24682 0.0
C304 C 0.672 0.498 0.33582 0.0
O305 O 0.64021 0.51155 0.34397 0.0
O306 O 0.67526 0.52594 0.21391 0.0
C307 C 0.59777 0.44916 0.26936 0.0
O308 O 0.60142 0.45502 0.306 0.0
C309 C 0.59147 0.5622 0.28973 0.0
O310 O 0.57304 0.53083 0.29475 0.0
O311 O 0.68291 0.49843 0.30196 0.0
C312 C 0.05837 0.39329 0.32291 0.0
C313 C 0.06371 0.39315 0.28324 0.0
C314 C 0.04239 0.32737 0.27712 0.0
C315 C 0.03717 0.32751 0.31671 0.0
N316 N 0.03281 0.3621 0.37644 0.0
N317 N 0.05248 0.36411 0.22163 0.0
C318 C 0.04243 0.36109 0.33924 0.0
C319 C 0.05317 0.36133 0.26003 0.0
N320 N 0.07087 0.42299 0.34541 0.0
N321 N 0.03753 0.29461 0.256 0.0
H322 H 0.05918 0.38904 0.20843 0.0
H323 H 0.04205 0.34313 0.20304 0.0
H324 H 0.02737 0.2698 0.26716 0.0
H325 H 0.04515 0.29143 0.22789 0.0
H326 H 0.07232 0.42252 0.37476 0.0
H327 H 0.08232 0.44745 0.33497 0.0
H328 H 0.03161 0.38691 0.39292 0.0
H329 H 0.02346 0.33859 0.39045 0.0
C330 C 0.9109 0.78068 0.53836 0.0
C331 C 0.91441 0.77517 0.57767 0.0
C332 C 0.86249 0.81504 0.59014 0.0
C333 C 0.85763 0.8187 0.55068 0.0
N334 N 0.87212 0.79883 0.48689 0.0
N335 N 0.88921 0.77985 0.64016 0.0
C336 C 0.88035 0.79968 0.52464 0.0
C337 C 0.88886 0.79017 0.60334 0.0
N338 N 0.93754 0.76941 0.51435 0.0
N339 N 0.84319 0.83666 0.61507 0.0
H340 H 0.90789 0.76132 0.65082 0.0
H341 H 0.86897 0.78673 0.6592 0.0
H342 H 0.82387 0.85561 0.60661 0.0
H343 H 0.84854 0.83832 0.64402 0.0
H344 H 0.93846 0.77658 0.48612 0.0
H345 H 0.96041 0.75546 0.52326 0.0
H346 H 0.88549 0.78216 0.46697 0.0
H347 H 0.84971 0.81209 0.47581 0.0
C348 C 0.45387 0.60799 0.76857 0.0
C349 C 0.4382 0.58824 0.79874 0.0
C350 C 0.46325 0.63583 0.84387 0.0
C351 C 0.47426 0.65827 0.81354 0.0
N352 N 0.47486 0.66832 0.74652 0.0
N353 N 0.42057 0.58876 0.86431 0.0
C354 C 0.46822 0.64508 0.77567 0.0
C355 C 0.44083 0.60361 0.83622 0.0
N356 N 0.4564 0.5909 0.73353 0.0
N357 N 0.47531 0.64429 0.87988 0.0
H358 H 0.40195 0.56661 0.8596 0.0
H359 H 0.41916 0.60133 0.89129 0.0
H360 H 0.49351 0.66644 0.88658 0.0
H361 H 0.4706 0.62667 0.90227 0.0
H362 H 0.47073 0.60272 0.71158 0.0
H363 H 0.44743 0.5633 0.7274 0.0
H364 H 0.46734 0.66143 0.71864 0.0
H365 H 0.48481 0.69588 0.75059 0.0
C366 C 0.63896 0.21062 0.10051 0.0
C367 C 0.60152 0.20731 0.09181 0.0
C368 C 0.61458 0.16424 0.03844 0.0
C369 C 0.65112 0.16312 0.05074 0.0
N370 N 0.69642 0.17984 0.09862 0.0
N371 N 0.55293 0.17471 0.05689 0.0
C372 C 0.66302 0.18499 0.08308 0.0
C373 C 0.58902 0.18257 0.06183 0.0
N374 N 0.65172 0.23878 0.12475 0.0
N375 N 0.60439 0.1487 0.00398 0.0
H376 H 0.53315 0.18607 0.07431 0.0
H377 H 0.5429 0.15383 0.0379 0.0
H378 H 0.62257 0.1361 0.98543 0.0
H379 H 0.57878 0.15195 0.99221 0.0
H380 H 0.67918 0.24461 0.1292 0.0
H381 H 0.63503 0.25882 0.13726 0.0
H382 H 0.70475 0.19238 0.12441 0.0
H383 H 0.71443 0.16008 0.08804 0.0
C384 C 0.0925 0.63832 0.21745 0.0
C385 C 0.07316 0.61282 0.24008 0.0
C386 C 0.01871 0.65002 0.23347 0.0
C387 C 0.03915 0.67738 0.21411 0.0
N388 N 0.09754 0.70197 0.19609 0.0
N389 N 0.01994 0.59807 0.27586 0.0
C390 C 0.07668 0.67285 0.20859 0.0
C391 C 0.03682 0.61971 0.24995 0.0
N392 N 0.12519 0.62886 0.20272 0.0
N393 N 0.9819 0.65186 0.23461 0.0
H394 H 0.03251 0.57593 0.28892 0.0
H395 H 0.99477 0.60429 0.28701 0.0
H396 H 0.96747 0.67311 0.22219 0.0
H397 H 0.96545 0.63045 0.24483 0.0
H398 H 0.1385 0.64487 0.18287 0.0
H399 H 0.13724 0.60312 0.20707 0.0
H400 H 0.12563 0.70129 0.19502 0.0
H401 H 0.08721 0.72832 0.19075 0.0
C402 C 0.59721 0.78521 0.50433 0.0
C403 C 0.5937 0.78422 0.46439 0.0
C404 C 0.64674 0.82601 0.4599 0.0
C405 C 0.65225 0.82427 0.49948 0.0
N406 N 0.6365 0.79743 0.55884 0.0
N407 N 0.61947 0.79656 0.40362 0.0
C408 C 0.6285 0.80255 0.52163 0.0
C409 C 0.61972 0.80258 0.44198 0.0
N410 N 0.57007 0.77085 0.52577 0.0
N411 N 0.66619 0.85126 0.43959 0.0
H412 H 0.60061 0.77887 0.38934 0.0
H413 H 0.6401 0.80606 0.38635 0.0
H414 H 0.68554 0.86983 0.4518 0.0
H415 H 0.66061 0.85646 0.4114 0.0
H416 H 0.56928 0.77446 0.55506 0.0
H417 H 0.54673 0.75795 0.51409 0.0
H418 H 0.6223 0.77866 0.57538 0.0
H419 H 0.6593 0.80953 0.57242 0.0
C420 C 0.44179 0.35536 0.69701 0.0
C421 C 0.46724 0.3615 0.66808 0.0
C422 C 0.46507 0.42951 0.68093 0.0
C423 C 0.44219 0.42321 0.71212 0.0
N424 N 0.41597 0.37946 0.75521 0.0
N425 N 0.51038 0.40343 0.63961 0.0
C426 C 0.43273 0.38589 0.72182 0.0
C427 C 0.48115 0.39829 0.66223 0.0
N428 N 0.42481 0.32102 0.69969 0.0
N429 N 0.46983 0.46486 0.66757 0.0
H430 H 0.52381 0.38108 0.62656 0.0
H431 H 0.52364 0.42941 0.63726 0.0
H432 H 0.45717 0.4885 0.67897 0.0
H433 H 0.48329 0.47006 0.64255 0.0
H434 H 0.40326 0.31632 0.71771 0.0
H435 H 0.42974 0.29811 0.68142 0.0
H436 H 0.41161 0.35259 0.76533 0.0
H437 H 0.40991 0.40104 0.77467 0.0
C438 C 0.90787 0.14619 0.94073 0.0
C439 C 0.90298 0.17506 0.91463 0.0
C440 C 0.83737 0.16717 0.91942 0.0
C441 C 0.8423 0.14108 0.94832 0.0
N442 N 0.88243 0.11254 0.99266 0.0
N443 N 0.8633 0.21936 0.88626 0.0
C444 C 0.87763 0.13256 0.96084 0.0
C445 C 0.86778 0.18747 0.90607 0.0
N446 N 0.94091 0.13039 0.94502 0.0
N447 N 0.80405 0.17129 0.90326 0.0
H448 H 0.88492 0.23585 0.87709 0.0
H449 H 0.83828 0.23162 0.8825 0.0
H450 H 0.78116 0.15599 0.91107 0.0
H451 H 0.7999 0.18703 0.87941 0.0
H452 H 0.94492 0.10658 0.96073 0.0
H453 H 0.96361 0.13857 0.92994 0.0
H454 H 0.90769 0.10879 0.00505 0.0
H455 H 0.86102 0.10309 0.00897 0.0
C456 C 0.29476 0.05918 0.38283 0.0
C457 C 0.30708 0.05286 0.41999 0.0
C458 C 0.36043 0.02189 0.39426 0.0
C459 C 0.35222 0.03667 0.35844 0.0
N460 N 0.31179 0.07092 0.31873 0.0
N461 N 0.34056 0.01129 0.45837 0.0
C462 C 0.31912 0.05513 0.3525 0.0
C463 C 0.33684 0.02911 0.42507 0.0
N464 N 0.25926 0.06656 0.37622 0.0
N465 N 0.39085 0.00131 0.39876 0.0
H466 H 0.32079 0.01253 0.47911 0.0
H467 H 0.36045 0.99198 0.4639 0.0
H468 H 0.40688 0.99262 0.3762 0.0
H469 H 0.40088 0.99347 0.42478 0.0
H470 H 0.24827 0.06871 0.3492 0.0
H471 H 0.23986 0.0646 0.39722 0.0
H472 H 0.28993 0.08834 0.31463 0.0
H473 H 0.32914 0.06957 0.29581 0.0
C474 C 0.22958 0.05911 0.64387 0.0
C475 C 0.19204 0.05673 0.65109 0.0
C476 C 0.17812 0.06748 0.58468 0.0
C477 C 0.21562 0.0681 0.57703 0.0
N478 N 0.27699 0.05843 0.59703 0.0
N479 N 0.13072 0.04986 0.62752 0.0
C480 C 0.24138 0.06205 0.60599 0.0
C481 C 0.16632 0.05831 0.62122 0.0
N482 N 0.25381 0.05995 0.67333 0.0
N483 N 0.15384 0.07745 0.55763 0.0
H484 H 0.12099 0.04253 0.65384 0.0
H485 H 0.11139 0.04663 0.60599 0.0
H486 H 0.16123 0.08412 0.53031 0.0
H487 H 0.1267 0.08208 0.56309 0.0
H488 H 0.28129 0.06578 0.67043 0.0
H489 H 0.24604 0.05741 0.70135 0.0
H490 H 0.29675 0.05051 0.61609 0.0
H491 H 0.28637 0.06031 0.56947 0.0
C492 C 0.18941 0.94218 0.86254 0.0
C493 C 0.18781 0.982 0.8607 0.0
C494 C 0.21348 0.98942 0.92478 0.0
C495 C 0.21109 0.94982 0.92805 0.0
N496 N 0.19302 0.88834 0.90234 0.0
N497 N 0.19681 0.04397 0.88978 0.0
C498 C 0.1985 0.92607 0.89739 0.0
C499 C 0.19952 0.00577 0.89176 0.0
N500 N 0.18177 0.91965 0.83118 0.0
N501 N 0.23004 0.01118 0.95285 0.0
H502 H 0.18915 0.05707 0.86515 0.0
H503 H 0.20053 0.06267 0.91288 0.0
H504 H 0.24062 -3e-05 0.97732 0.0
H505 H 0.23597 0.03979 0.95076 0.0
H506 H 0.18686 0.89095 0.8295 0.0
H507 H 0.17273 0.92981 0.80566 0.0
H508 H 0.17967 0.87027 0.88274 0.0
H509 H 0.19914 0.87529 0.92743 0.0
C510 C 0.31755 0.98964 0.09683 0.0
C511 C 0.29163 0.95987 0.10001 0.0
C512 C 0.29952 0.96213 0.16894 0.0
C513 C 0.3273 0.98982 0.16543 0.0
N514 N 0.36501 0.02876 0.12712 0.0
N515 N 0.25958 0.9153 0.13803 0.0
C516 C 0.33687 0.00337 0.12965 0.0
C517 C 0.28304 0.94543 0.1358 0.0
N518 N 0.32365 0.00471 0.06242 0.0
N519 N 0.28854 0.95226 0.20407 0.0
H520 H 0.24523 0.9036 0.11486 0.0
H521 H 0.25566 0.90035 0.16241 0.0
H522 H 0.30091 0.96281 0.22899 0.0
H523 H 0.2657 0.93561 0.2089 0.0
H524 H 0.339 0.02914 0.05865 0.0
H525 H 0.31178 0.9939 0.03736 0.0
H526 H 0.37634 0.03667 0.10179 0.0
H527 H 0.37851 0.04075 0.15076 0.0
C528 C 0.36015 0.34967 0.10204 0.0
C529 C 0.35274 0.34071 0.06334 0.0
C530 C 0.40312 0.29722 0.06158 0.0
C531 C 0.41245 0.30888 0.09926 0.0
N532 N 0.40469 0.35211 0.15256 0.0
N533 N 0.37088 0.31155 0.00416 0.0
C534 C 0.39235 0.33682 0.11872 0.0
C535 C 0.37526 0.31602 0.04245 0.0
N536 N 0.33569 0.36905 0.12335 0.0
N537 N 0.41975 0.26721 0.04461 0.0
H538 H 0.35099 0.32514 0.98906 0.0
H539 H 0.38895 0.29711 0.98695 0.0
H540 H 0.44006 0.25242 0.05776 0.0
H541 H 0.41126 0.2549 0.01878 0.0
H542 H 0.33797 0.37282 0.15259 0.0
H543 H 0.31122 0.37817 0.11251 0.0
H544 H 0.39315 0.37537 0.16603 0.0
H545 H 0.42864 0.34405 0.16536 0.0
C546 C 0.9324 0.84976 0.21135 0.0
C547 C 0.96181 0.85829 0.18751 0.0
C548 C 0.95678 0.92548 0.20366 0.0
C549 C 0.92843 0.91679 0.22876 0.0
N550 N 0.89473 0.87075 0.26317 0.0
N551 N 0.00743 0.90246 0.1675 0.0
C552 C 0.91797 0.87888 0.23471 0.0
C553 C 0.97572 0.89565 0.18572 0.0
N554 N 0.91692 0.8144 0.21017 0.0
N555 N 0.96434 0.96208 0.19533 0.0
H556 H 0.02221 0.8811 0.15444 0.0
H557 H 0.02082 0.92857 0.16845 0.0
H558 H 0.95099 0.98487 0.20762 0.0
H559 H 0.9818 0.96975 0.17394 0.0
H560 H 0.89289 0.80777 0.22366 0.0
H561 H 0.92633 0.79223 0.19319 0.0
H562 H 0.8889 0.84346 0.27138 0.0
H563 H 0.88393 0.89151 0.28102 0.0
C564 C 0.16371 0.69023 0.57809 0.0
C565 C 0.15382 0.66351 0.54878 0.0
C566 C 0.08984 0.67169 0.56291 0.0
C567 C 0.0997 0.70004 0.59066 0.0
N568 N 0.1451 0.74274 0.61818 0.0
N569 N 0.10787 0.63506 0.50751 0.0
C570 C 0.13639 0.71133 0.59621 0.0
C571 C 0.11695 0.65619 0.53938 0.0
N572 N 0.19884 0.69394 0.59025 0.0
N573 N 0.05505 0.65801 0.56038 0.0
H574 H 0.1271 0.62365 0.48938 0.0
H575 H 0.0815 0.63194 0.49713 0.0
H576 H 0.03437 0.668 0.57747 0.0
H577 H 0.04729 0.63445 0.5436 0.0
H578 H 0.20676 0.7099 0.61431 0.0
H579 H 0.21977 0.67843 0.57855 0.0
H580 H 0.17111 0.75453 0.62009 0.0
H581 H 0.12572 0.75923 0.63149 0.0
C582 C 0.97277 0.66212 0.75196 0.0
C583 C 0.96069 0.67395 0.71621 0.0
C584 C 0.92357 0.61643 0.70751 0.0
C585 C 0.93267 0.60646 0.74475 0.0
N586 N 0.96157 0.62212 0.80482 0.0
N587 N 0.91876 0.66655 0.66358 0.0
C588 C 0.95614 0.6299 0.76771 0.0
C589 C 0.93444 0.65227 0.69496 0.0
N590 N 0.00102 0.68072 0.77017 0.0
N591 N 0.9057 0.5911 0.68356 0.0
H592 H 0.92516 0.69325 0.654 0.0
H593 H 0.8968 0.65358 0.64932 0.0
H594 H 0.89806 0.56404 0.69129 0.0
H595 H 0.90175 0.59549 0.6549 0.0
H596 H 0.01352 0.67097 0.79429 0.0
H597 H 0.01403 0.7043 0.75944 0.0
H598 H 0.97515 0.64046 0.82402 0.0
H599 H 0.95 0.59865 0.81725 0.0
C600 C 0.13539 0.15688 0.41296 0.0
C601 C 0.14921 0.15962 0.45047 0.0
C602 C 0.09451 0.19138 0.47148 0.0
C603 C 0.07935 0.18542 0.43474 0.0
N604 N 0.08243 0.15636 0.3722 0.0
N605 N 0.13968 0.17314 0.51687 0.0
C606 C 0.09901 0.16654 0.40586 0.0
C607 C 0.12822 0.17522 0.48018 0.0
N608 N 0.15738 0.14604 0.38397 0.0
N609 N 0.07739 0.2136 0.49768 0.0
H610 H 0.16412 0.16137 0.52454 0.0
H611 H 0.12358 0.18007 0.5399 0.0
H612 H 0.05274 0.22612 0.49234 0.0
H613 H 0.08908 0.22232 0.52351 0.0
H614 H 0.15001 0.14736 0.3556 0.0
H615 H 0.18429 0.13897 0.38809 0.0
H616 H 0.09419 0.13908 0.35162 0.0
H617 H 0.05552 0.16212 0.36616 0.0
C618 C 0.54677 0.42404 0.228 0.0
C619 C 0.57514 0.4172 0.25399 0.0
C620 C 0.56064 0.34954 0.24927 0.0
C621 C 0.53598 0.35601 0.21954 0.0
N622 N 0.50735 0.39869 0.17775 0.0
N623 N 0.61248 0.37291 0.28579 0.0
C624 C 0.52934 0.3931 0.20822 0.0
C625 C 0.58282 0.37982 0.264 0.0
N626 N 0.53569 0.46001 0.22317 0.0
N627 N 0.56238 0.31456 0.26387 0.0
H628 H 0.62993 0.39407 0.29673 0.0
H629 H 0.62168 0.34595 0.29031 0.0
H630 H 0.54614 0.29193 0.25386 0.0
H631 H 0.57714 0.30894 0.28814 0.0
H632 H 0.51279 0.46644 0.20757 0.0
H633 H 0.54735 0.48336 0.2377 0.0
H634 H 0.50488 0.42465 0.16537 0.0
H635 H 0.49342 0.3768 0.16304 0.0
C636 C 0.35321 0.82228 0.93081 0.0
C637 C 0.35484 0.83329 0.96971 0.0
C638 C 0.41177 0.80023 0.97723 0.0
C639 C 0.41167 0.79205 0.93776 0.0
N640 N 0.38446 0.79692 0.87599 0.0
N641 N 0.38607 0.83581 0.02985 0.0
C642 C 0.38291 0.80343 0.91426 0.0
C643 C 0.38423 0.82305 0.99295 0.0
N644 N 0.32309 0.82962 0.90982 0.0
N645 N 0.43797 0.78576 -0.00036 0.0
H646 H 0.36557 0.8511 0.04275 0.0
H647 H 0.40862 0.83314 0.04725 0.0
H648 H 0.45912 0.76989 0.98884 0.0
H649 H 0.43764 0.78723 0.02902 0.0
H650 H 0.31829 0.81873 0.88252 0.0
H651 H 0.30145 0.84478 0.92052 0.0
H652 H 0.36679 0.8084 0.85674 0.0
H653 H 0.40484 0.78157 0.86297 0.0
C654 C 0.98093 0.39098 0.82372 0.0
C655 C 0.94798 0.39011 0.80281 0.0
C656 C 0.95021 0.32141 0.79512 0.0
C657 C 0.98341 0.32232 0.81549 0.0
N658 N 0.03447 0.35785 0.84219 0.0
N659 N 0.9061 0.35644 0.76052 0.0
C660 C 0.00024 0.35714 0.82724 0.0
C661 C 0.93405 0.35585 0.78605 0.0
N662 N 0.99257 0.42355 0.84226 0.0
N663 N 0.93378 0.28761 0.78509 0.0
H664 H 0.89422 0.38133 0.75252 0.0
H665 H 0.89696 0.33287 0.74456 0.0
H666 H 0.94585 0.26183 0.78926 0.0
H667 H 0.90746 0.285 0.77451 0.0
H668 H 0.01398 0.42492 0.8616 0.0
H669 H 0.9791 0.4489 0.84073 0.0
H670 H 0.04959 0.38255 0.84764 0.0
H671 H 0.0491 0.3336 0.8463 0.0
C672 C 0.34547 0.23882 0.54756 0.0
C673 C 0.33377 0.20061 0.54784 0.0
C674 C 0.38986 0.18382 0.57976 0.0
C675 C 0.40009 0.22249 0.58259 0.0
N676 N 0.3863 0.28763 0.5738 0.0
N677 N 0.34181 0.13726 0.56844 0.0
C678 C 0.37764 0.25028 0.56754 0.0
C679 C 0.35517 0.17319 0.56503 0.0
N680 N 0.32612 0.26391 0.52766 0.0
N681 N 0.41379 0.15718 0.5901 0.0
H682 H 0.31671 0.12809 0.55756 0.0
H683 H 0.35425 0.11724 0.58457 0.0
H684 H 0.43951 0.16392 0.60103 0.0
H685 H 0.4095 0.12839 0.58487 0.0
H686 H 0.33513 0.29128 0.52295 0.0
H687 H 0.30208 0.25643 0.51335 0.0
H688 H 0.36915 0.3093 0.56721 0.0
H689 H 0.40965 0.29704 0.58828 0.0
C690 C 0.52443 0.64151 0.29581 0.0
C691 C 0.54455 0.66903 0.31777 0.0
C692 C 0.5942 0.62533 0.32379 0.0
C693 C 0.57544 0.59904 0.29913 0.0
N694 N 0.52657 0.58587 0.25449 0.0
N695 N 0.60177 0.69058 0.3449 0.0
C696 C 0.54165 0.60819 0.28301 0.0
C697 C 0.58044 0.66197 0.32942 0.0
N698 N 0.48849 0.64618 0.28867 0.0
N699 N 0.62421 0.61488 0.34328 0.0
H700 H 0.59297 0.71815 0.34839 0.0
H701 H 0.62925 0.68786 0.35051 0.0
H702 H 0.63471 0.58795 0.34095 0.0
H703 H 0.63657 0.63174 0.3646 0.0
H704 H 0.47177 0.62502 0.27641 0.0
H705 H 0.47452 0.6698 0.29807 0.0
H706 H 0.50382 0.59336 0.23916 0.0
H707 H 0.53879 0.56177 0.24349 0.0
C708 C 0.09448 0.84218 0.07521 0.0
C709 C 0.09943 0.80985 0.09687 0.0
C710 C 0.16468 0.81358 0.08647 0.0
C711 C 0.15955 0.84486 0.06339 0.0
N712 N 0.11917 0.88325 0.02837 0.0
N713 N 0.13736 0.75924 0.11525 0.0
C714 C 0.12427 0.85742 0.05546 0.0
C715 C 0.134 0.79382 0.10005 0.0
N716 N 0.0619 0.85951 0.07503 0.0
N717 N 0.19874 0.80392 0.09713 0.0
H718 H 0.11528 0.74359 0.12469 0.0
H719 H 0.16132 0.74444 0.11495 0.0
H720 H 0.22203 0.81786 0.08821 0.0
H721 H 0.20384 0.78415 0.1174 0.0
H722 H 0.05799 0.88565 0.06344 0.0
H723 H 0.03935 0.84934 0.08912 0.0
H724 H 0.09375 0.89072 0.01868 0.0
H725 H 0.14036 0.89444 0.01284 0.0
C726 C 0.74516 0.94929 0.64201 0.0
C727 C 0.74097 0.96165 0.60466 0.0
C728 C 0.70102 0.01155 0.62722 0.0
C729 C 0.70099 0.99552 0.6633 0.0
N730 N 0.72264 0.94962 0.70608 0.0
N731 N 0.71402 0.00313 0.5605 0.0
C732 C 0.72319 0.96465 0.67108 0.0
C733 C 0.71917 0.99287 0.59698 0.0
N734 N 0.77081 0.92345 0.64965 0.0
N735 N 0.68333 0.04432 0.6218 0.0
H736 H 0.72712 0.99042 0.53767 0.0
H737 H 0.69508 0.02256 0.5524 0.0
H738 H 0.66857 0.05794 0.64291 0.0
H739 H 0.68546 0.05959 0.59738 0.0
H740 H 0.77768 0.91561 0.67677 0.0
H741 H 0.78766 0.9122 0.62892 0.0
H742 H 0.73456 0.92432 0.71233 0.0
H743 H 0.70875 0.96168 0.72877 0.0
C744 C 0.79853 0.98953 0.39241 0.0
C745 C 0.80685 0.96355 0.3626 0.0
C746 C 0.7772 0.91257 0.39609 0.0
C747 C 0.77315 0.9375 0.42791 0.0
N748 N 0.7827 -0.00115 0.45826 0.0
N749 N 0.80764 0.89973 0.33697 0.0
C750 C 0.78426 0.97588 0.42653 0.0
C751 C 0.79691 0.92491 0.36451 0.0
N752 N 0.80345 0.0273 0.38766 0.0
N753 N 0.76133 0.87741 0.39569 0.0
H754 H 0.82169 0.9077 0.31309 0.0
H755 H 0.80501 0.87065 0.33908 0.0
H756 H 0.74645 0.86747 0.41823 0.0
H757 H 0.76005 0.8594 0.37183 0.0
H758 H 0.79462 0.04793 0.4068 0.0
H759 H 0.81342 0.03816 0.36278 0.0
H760 H 0.79426 0.02584 0.4603 0.0
H761 H 0.77214 0.98996 0.48367 0.0
C762 C 0.73897 0.03386 0.11986 0.0
C763 C 0.75761 0.03278 0.08505 0.0
C764 C 0.809 0.00313 0.11515 0.0
C765 C 0.78929 0.00171 0.14921 0.0
N766 N 0.73336 0.00921 0.1825 0.0
N767 N 0.8071 0.0103 0.04743 0.0
C768 C 0.75358 0.01514 0.15113 0.0
C769 C 0.79169 0.01559 0.08206 0.0
N770 N 0.70834 0.05437 0.12368 0.0
N771 N 0.84477 0.99432 0.11482 0.0
H772 H 0.79514 0.01893 0.0225 0.0
H773 H 0.83002 0.99437 0.04293 0.0
H774 H 0.85865 0.98538 0.13852 0.0
H775 H 0.86155 -0.001 0.09199 0.0
H776 H 0.69591 0.05968 0.14949 0.0
H777 H 0.69693 0.06894 0.10165 0.0
H778 H 0.7059 0.01473 0.18398 0.0
H779 H 0.74324 0.99562 0.20597 0.0
C780 C 0.7055 0.029 0.84011 0.0
C781 C 0.67468 0.00478 0.84231 0.0
C782 C 0.68118 0.00497 0.9113 0.0
C783 C 0.70921 0.03263 0.90925 0.0
N784 N 0.747 0.07331 0.87255 0.0
N785 N 0.63026 0.97277 0.87968 0.0
C786 C 0.72108 0.04534 0.87386 0.0
C787 C 0.66189 0.99322 0.8778 0.0
N788 N 0.72075 0.03508 0.80581 0.0
N789 N 0.67303 0.98997 0.94525 0.0
H790 H 0.61516 0.96383 0.85585 0.0
H791 H 0.61737 0.96712 0.90488 0.0
H792 H 0.68576 -0.00113 0.97054 0.0
H793 H 0.65567 0.9668 0.94803 0.0
H794 H 0.74531 0.04935 0.80254 0.0
H795 H 0.71056 0.02278 0.78058 0.0
H796 H 0.75357 0.08708 0.84803 0.0
H797 H 0.76064 0.08444 0.8965 0.0
C798 C 0.61452 0.6843 0.89421 0.0
C799 C 0.60105 0.71836 0.91007 0.0
C800 C 0.63965 0.71193 0.96608 0.0
C801 C 0.65573 0.68016 0.94825 0.0
N802 N 0.66408 0.64125 0.89182 0.0
N803 N 0.6047 0.76807 0.95832 0.0
C804 C 0.64478 0.6678 0.91128 0.0
C805 C 0.61466 0.73319 0.9453 0.0
N806 N 0.59741 0.66666 0.86385 0.0
N807 N 0.64709 0.72092 0.00326 0.0
H808 H 0.58663 0.78455 0.94379 0.0
H809 H 0.61669 0.78203 0.98178 0.0
H810 H 0.66494 0.70581 0.01952 0.0
H811 H 0.63323 0.74125 0.01885 0.0
H812 H 0.60386 0.63979 0.85368 0.0
H813 H 0.57424 0.67698 0.85134 0.0
H814 H 0.65942 0.63411 0.86336 0.0
H815 H 0.68716 0.62918 0.90283 0.0
C816 C 0.04575 0.07961 0.79706 0.0
C817 C 0.06471 0.08416 0.76293 0.0
C818 C 0.04682 0.14998 0.76126 0.0
C819 C 0.02722 0.14526 0.79505 0.0
N820 N 0.00028 0.10367 0.83969 0.0
N821 N 0.0767 0.12005 0.70786 0.0
C822 C 0.02438 0.10944 0.81137 0.0
C823 C 0.06294 0.11818 0.74341 0.0
N824 N 0.04867 0.04701 0.8161 0.0
N825 N 0.05189 0.18514 0.74749 0.0
H826 H 0.08901 0.09734 0.69417 0.0
H827 H 0.07306 0.14284 0.69066 0.0
H828 H 0.04088 0.20925 0.75989 0.0
H829 H 0.06937 0.19095 0.72553 0.0
H830 H 0.03926 0.04376 0.8434 0.0
H831 H 0.06241 0.02371 0.80541 0.0
H832 H 0.99441 0.07732 0.85031 0.0
H833 H 0.98342 0.12464 0.85014 0.0
C834 C 0.90784 0.31503 0.46387 0.0
C835 C 0.90393 0.27725 0.44975 0.0
C836 C 0.84545 0.27074 0.48077 0.0
C837 C 0.84949 0.30843 0.49493 0.0
N838 N 0.88775 0.36306 0.50874 0.0
N839 N 0.87407 0.21641 0.45162 0.0
C840 C 0.88182 0.32947 0.48932 0.0
C841 C 0.87427 0.2542 0.46044 0.0
N842 N 0.9351 0.33778 0.45128 0.0
N843 N 0.8135 0.25145 0.48519 0.0
H844 H 0.89503 0.20346 0.43702 0.0
H845 H 0.85496 0.1974 0.46162 0.0
H846 H 0.79209 0.26244 0.50062 0.0
H847 H 0.80729 0.22556 0.47169 0.0
H848 H 0.93671 0.36671 0.45708 0.0
H849 H 0.9548 0.32842 0.4326 0.0
H850 H 0.91229 0.37797 0.50877 0.0
H851 H 0.86922 0.37429 0.52781 0.0
C852 C 0.52121 0.89803 0.75214 0.0
C853 C 0.55846 0.89527 0.74392 0.0
C854 C 0.5578 0.83061 0.76561 0.0
C855 C 0.52232 0.83558 0.77923 0.0
N856 N 0.47131 0.8758 0.78951 0.0
N857 N 0.61382 0.86074 0.74733 0.0
C858 C 0.50405 0.8696 0.77323 0.0
C859 C 0.57719 0.8619 0.75146 0.0
N860 N 0.50215 0.92755 0.73927 0.0
N861 N 0.57272 0.79577 0.76562 0.0
H862 H 0.62935 0.8832 0.73774 0.0
H863 H 0.62931 0.8387 0.75659 0.0
H864 H 0.55894 0.77209 0.7752 0.0
H865 H 0.59711 0.7896 0.75269 0.0
H866 H 0.47416 0.92912 0.74106 0.0
H867 H 0.51389 0.94871 0.72347 0.0
H868 H 0.4588 0.90176 0.78971 0.0
H869 H 0.45788 0.85604 0.80562 0.0
C870 C 0.93987 0.12404 0.33156 0.0
C871 C 0.94997 0.15424 0.30857 0.0
C872 C 0.91226 0.12677 0.25691 0.0
C873 C 0.89842 0.09967 0.28178 0.0
N874 N 0.89381 0.07752 0.34526 0.0
N875 N 0.94159 0.18786 0.25118 0.0
C876 C 0.91087 0.09956 0.3198 0.0
C877 C 0.93519 0.15656 0.27161 0.0
N878 N 0.95862 0.11811 0.36421 0.0
N879 N 0.90464 0.12337 0.21908 0.0
H880 H 0.95792 0.21051 0.261 0.0
H881 H 0.9282 0.19278 0.22588 0.0
H882 H 0.8886 0.1015 0.20704 0.0
H883 H 0.91703 0.14011 0.19921 0.0
H884 H 0.95456 0.09434 0.38014 0.0
H885 H 0.98086 0.1348 0.37319 0.0
H886 H 0.89957 0.07919 0.37414 0.0
H887 H 0.87122 0.06059 0.33825 0.0
C888 C 0.59267 0.14066 0.70122 0.0
C889 C 0.57262 0.11178 0.71873 0.0
C890 C 0.51635 0.14399 0.705 0.0
C891 C 0.53685 0.17465 0.69118 0.0
N892 N 0.59481 0.20583 0.68386 0.0
N893 N 0.516 0.08893 0.74336 0.0
C894 C 0.57512 0.17404 0.69146 0.0
C895 C 0.53457 0.11419 0.72229 0.0
N896 N 0.62812 0.13562 0.69235 0.0
N897 N 0.47964 0.14261 0.70037 0.0
H898 H 0.52841 0.06702 0.75695 0.0
H899 H 0.48889 0.0917 0.75023 0.0
H900 H 0.46534 0.16375 0.68759 0.0
H901 H 0.46372 0.11902 0.70615 0.0
H902 H 0.64288 0.15416 0.67603 0.0
H903 H 0.64177 0.11103 0.69783 0.0
H904 H 0.62276 0.20803 0.68736 0.0
H905 H 0.58294 0.23129 0.67784 0.0
C906 C 0.12574 0.33025 0.9569 0.0
C907 C 0.161 0.3155 0.95564 0.0
C908 C 0.13627 0.25608 0.92788 0.0
C909 C 0.10217 0.27295 0.92394 0.0
N910 N 0.0656 0.3284 0.92967 0.0
N911 N 0.20087 0.26598 0.9354 0.0
C912 C 0.09704 0.31057 0.93737 0.0
C913 C 0.1666 0.27868 0.94024 0.0
N914 N 0.11947 0.36265 0.97753 0.0
N915 N 0.13951 0.21828 0.92055 0.0
H916 H 0.22394 0.2818 0.9434 0.0
H917 H 0.20659 0.24109 0.92044 0.0
H918 H 0.11768 0.20079 0.91199 0.0
H919 H 0.16285 0.20369 0.92653 0.0
H920 H 0.09365 0.37254 0.98271 0.0
H921 H 0.13972 0.37763 0.9927 0.0
H922 H 0.06227 0.35716 0.93483 0.0
H923 H 0.04386 0.31549 0.91498 0.0
C924 C 0.41474 0.68116 0.4586 0.0
C925 C 0.40972 0.69948 0.42411 0.0
C926 C 0.34612 0.67921 0.42235 0.0
C927 C 0.35035 0.66397 0.45863 0.0
N928 N 0.38659 0.66024 0.51545 0.0
N929 N 0.36866 0.72426 0.37829 0.0
C930 C 0.38405 0.66789 0.47804 0.0
C931 C 0.37479 0.70106 0.40751 0.0
N932 N 0.44871 0.67464 0.47199 0.0
N933 N 0.31572 0.67127 0.40102 0.0
H934 H 0.38872 0.74172 0.36741 0.0
H935 H 0.34291 0.72916 0.36765 0.0
H936 H 0.29439 0.65438 0.40997 0.0
H937 H 0.31327 0.67838 0.37284 0.0
H938 H 0.45356 0.65793 0.495 0.0
H939 H 0.47216 0.68245 0.45797 0.0
H940 H 0.40982 0.66597 0.53172 0.0
H941 H 0.36426 0.65247 0.53118 0.0
C942 C 0.84941 0.55719 0.88783 0.0
C943 C 0.83081 0.52993 0.86406 0.0
C944 C 0.77951 0.53026 0.90722 0.0
C945 C 0.7993 0.55543 0.93202 0.0
N946 N 0.85578 0.58633 0.95043 0.0
N947 N 0.78138 0.48505 0.85433 0.0
C948 C 0.83521 0.56663 0.92382 0.0
C949 C 0.7967 0.51487 0.87464 0.0
N950 N 0.87929 0.57598 0.87513 0.0
N951 N 0.74416 0.52168 0.91446 0.0
H952 H 0.79354 0.4726 0.83072 0.0
H953 H 0.75829 0.4705 0.86274 0.0
H954 H 0.73126 0.53129 0.9389 0.0
H955 H 0.72704 0.50702 0.89526 0.0
H956 H 0.89152 0.59892 0.88977 0.0
H957 H 0.88975 0.57148 0.84819 0.0
H958 H 0.88331 0.59191 0.94739 0.0
H959 H 0.84616 0.59406 0.9771 0.0
C960 C 0.69296 0.52164 0.12905 0.0
C961 C 0.67025 0.54579 0.15037 0.0
C962 C 0.67211 0.59152 0.10039 0.0
C963 C 0.6979 0.56936 0.08103 0.0
N964 N 0.73744 0.51625 0.07966 0.0
N965 N 0.64385 0.60686 0.16004 0.0
C966 C 0.70956 0.53512 0.09602 0.0
C967 C 0.66133 0.58161 0.13707 0.0
N968 N 0.69759 0.4854 0.13951 0.0
N969 N 0.65687 0.62123 0.08319 0.0
H970 H 0.63624 0.60111 0.18754 0.0
H971 H 0.6401 0.63478 0.15325 0.0
H972 H 0.66335 0.6289 0.05591 0.0
H973 H 0.6352 0.63589 0.09443 0.0
H974 H 0.71061 0.4653 0.12279 0.0
H975 H 0.68564 0.47436 0.16335 0.0
H976 H 0.74973 0.49348 0.09179 0.0
H977 H 0.75046 0.52528 0.05556 0.0
C978 C 0.70646 0.47425 0.43296 0.0
C979 C 0.72239 0.43888 0.42534 0.0
C980 C 0.70687 0.44259 0.35835 0.0
C981 C 0.69285 0.4791 0.36542 0.0
N982 N 0.68938 0.53375 0.40766 0.0
N983 N 0.74836 0.39599 0.37935 0.0
C984 C 0.69588 0.49626 0.40221 0.0
C985 C 0.72605 0.42522 0.38754 0.0
N986 N 0.69948 0.48603 0.46924 0.0
N987 N 0.69992 0.42309 0.32497 0.0
H988 H 0.76398 0.38345 0.3999 0.0
H989 H 0.75447 0.38728 0.35178 0.0
H990 H 0.68438 0.43323 0.30311 0.0
H991 H 0.7064 0.39489 0.32058 0.0
H992 H 0.68435 0.5097 0.47584 0.0
H993 H 0.70582 0.47046 0.49267 0.0
H994 H 0.6943 0.54837 0.43332 0.0
H995 H 0.68299 0.55108 0.38551 0.0
C996 C 0.85135 0.44742 0.66174 0.0
C997 C 0.83011 0.45709 0.69358 0.0
C998 C 0.77544 0.45333 0.6539 0.0
C999 C 0.79724 0.44758 0.62157 0.0
N1000 N 0.85642 0.44706 0.59373 0.0
N1001 N 0.77281 0.47576 0.71919 0.0
C1002 C 0.83538 0.447 0.62521 0.0
C1003 C 0.79235 0.4619 0.6895 0.0
N1004 N 0.88635 0.43685 0.66648 0.0
N1005 N 0.73874 0.44879 0.65106 0.0
H1006 H 0.78417 0.4824 0.74572 0.0
H1007 H 0.74603 0.48374 0.7166 0.0
H1008 H 0.72522 0.44198 0.62566 0.0
H1009 H 0.72193 0.44848 0.67443 0.0
H1010 H 0.90184 0.42582 0.64453 0.0
H1011 H 0.89877 0.43525 0.69293 0.0
H1012 H 0.88443 0.45042 0.59487 0.0
H1013 H 0.8457 0.44765 0.56639 0.0
C1014 C 0.46083 0.11534 0.19805 0.0
C1015 C 0.44234 0.1168 0.23293 0.0
C1016 C 0.46194 0.18266 0.24383 0.0
C1017 C 0.48247 0.18022 0.2103 0.0
N1018 N 0.50834 0.14198 0.16029 0.0
N1019 N 0.43107 0.14892 0.29269 0.0
C1020 C 0.48401 0.14584 0.18885 0.0
C1021 C 0.44457 0.14963 0.25696 0.0
N1022 N 0.45491 0.08575 0.17278 0.0
N1023 N 0.45764 0.21676 0.26219 0.0
H1024 H 0.41852 0.12508 0.30344 0.0
H1025 H 0.43525 0.17073 0.31283 0.0
H1026 H 0.46981 0.24166 0.25343 0.0
H1027 H 0.43966 0.22093 0.28427 0.0
H1028 H 0.4645 0.08541 0.14524 0.0
H1029 H 0.43758 0.06304 0.17789 0.0
H1030 H 0.51323 0.11635 0.14626 0.0
H1031 H 0.52632 0.16351 0.15313 0.0
C1032 C 0.08363 0.85491 0.69684 0.0
C1033 C 0.04571 0.85057 0.70099 0.0
C1034 C 0.04512 0.90686 0.74294 0.0
C1035 C 0.08329 0.90983 0.7405 0.0
N1036 N 0.13954 0.88105 0.72359 0.0
N1037 N 0.99173 0.86655 0.73491 0.0
C1038 C 0.10277 0.88202 0.72012 0.0
C1039 C 0.02685 0.87475 0.72625 0.0
N1040 N 0.10115 0.83488 0.66921 0.0
N1041 N 0.02608 0.93555 0.75926 0.0
H1042 H 0.97771 0.84283 0.72369 0.0
H1043 H 0.97775 0.88109 0.75599 0.0
H1044 H 0.03828 0.95994 0.77125 0.0
H1045 H -0.00199 0.93663 0.75801 0.0
H1046 H 0.12807 0.84004 0.66244 0.0
H1047 H 0.08809 0.81565 0.65047 0.0
H1048 H 0.15475 0.85915 0.71228 0.0
H1049 H 0.15446 0.90002 0.74108 0.0
C1050 C 0.46948 0.8722 0.33785 0.0
C1051 C 0.48968 0.84559 0.31669 0.0
C1052 C 0.4757 0.8778 0.25851 0.0
C1053 C 0.45214 0.90154 0.27923 0.0
N1054 N 0.42098 0.91648 0.33729 0.0
N1055 N 0.50933 0.81996 0.2566 0.0
C1056 C 0.44753 0.89752 0.31859 0.0
C1057 C 0.49225 0.84759 0.2769 0.0
N1058 N 0.47215 0.87407 0.37642 0.0
N1059 N 0.48312 0.88486 0.22169 0.0
H1060 H 0.52219 0.79774 0.26922 0.0
H1061 H 0.50858 0.81751 0.22722 0.0
H1062 H 0.47148 0.90677 0.20738 0.0
H1063 H 0.50295 0.87105 0.20627 0.0
H1064 H 0.46097 0.89551 0.39305 0.0
H1065 H 0.48867 0.85653 0.39166 0.0
H1066 H 0.41401 0.91149 0.36511 0.0
H1067 H 0.40335 0.93446 0.32408 0.0
C1068 C 0.8601 0.67693 0.08961 0.0
C1069 C 0.85158 0.67314 0.05053 0.0
C1070 C 0.91064 0.70104 0.03539 0.0
C1071 C 0.92048 0.70079 0.07417 0.0
N1072 N 0.90715 0.68224 0.13755 0.0
N1073 N 0.8702 0.67685 0.98556 0.0
C1074 C 0.89589 0.68712 0.10118 0.0
C1075 C 0.87715 0.6841 0.02315 0.0
N1076 N 0.83365 0.67197 0.11572 0.0
N1077 N 0.93278 0.71847 0.01046 0.0
H1078 H 0.84591 0.66492 0.97524 0.0
H1079 H 0.88953 0.67996 0.96472 0.0
H1080 H 0.95759 0.73102 0.01841 0.0
H1081 H 0.92528 0.72326 0.98265 0.0
H1082 H 0.83742 0.67819 0.14448 0.0
H1083 H 0.80686 0.66531 0.10828 0.0
H1084 H 0.89151 0.66857 0.15735 0.0
H1085 H 0.93343 0.68851 0.14711 0.0
C1086 C 0.59776 0.34412 0.55954 0.0
C1087 C 0.60166 0.31483 0.58537 0.0
C1088 C 0.66734 0.32375 0.585 0.0
C1089 C 0.66365 0.35125 0.55726 0.0
N1090 N 0.62614 0.38135 0.51168 0.0
N1091 N 0.64006 0.26994 0.61444 0.0
C1092 C 0.62906 0.35958 0.54255 0.0
C1093 C 0.63646 0.30253 0.59557 0.0
N1094 N 0.56451 0.35846 0.55256 0.0
N1095 N 0.69981 0.31922 0.60284 0.0
H1096 H 0.61801 0.25286 0.62135 0.0
H1097 H 0.66492 0.25777 0.61945 0.0
H1098 H 0.72301 0.33504 0.59705 0.0
H1099 H 0.70287 0.30238 0.62608 0.0
H1100 H 0.56076 0.3827 0.53745 0.0
H1101 H 0.54084 0.34809 0.56442 0.0
H1102 H 0.60181 0.38522 0.49745 0.0
H1103 H 0.64852 0.39253 0.49798 0.0
C1104 C 0.21424 0.46611 0.10781 0.0
C1105 C 0.19609 0.43602 0.08757 0.0
C1106 C 0.15096 0.43178 0.13737 0.0
C1107 C 0.17101 0.45946 0.15935 0.0
N1108 N 0.22236 0.50224 0.16693 0.0
N1109 N 0.15057 0.38632 0.08469 0.0
C1110 C 0.2029 0.4764 0.14498 0.0
C1111 C 0.16516 0.41801 0.1026 0.0
N1112 N 0.24166 0.48541 0.09094 0.0
N1113 N 0.11841 0.41844 0.14973 0.0
H1114 H 0.16015 0.37518 0.05918 0.0
H1115 H 0.13087 0.36915 0.09646 0.0
H1116 H 0.10788 0.42573 0.17603 0.0
H1117 H 0.10049 0.40204 0.13288 0.0
H1118 H 0.25385 0.50998 0.10238 0.0
H1119 H 0.25055 0.4784 0.0638 0.0
H1120 H 0.24801 0.51226 0.16019 0.0
H1121 H 0.21358 0.5126 0.1931 0.0
C1122 C 0.29603 0.4465 0.86269 0.0
C1123 C 0.33203 0.46117 0.8634 0.0
C1124 C 0.33481 0.45555 0.93212 0.0
C1125 C 0.29809 0.44325 0.9316 0.0
N1126 N 0.24129 0.43614 0.898 0.0
N1127 N 0.38232 0.48857 0.89965 0.0
C1128 C 0.27792 0.44157 0.89733 0.0
C1129 C 0.35044 0.46839 0.8984 0.0
N1130 N 0.27974 0.43533 0.82918 0.0
N1131 N 0.35538 0.45322 0.9642 0.0
H1132 H 0.39433 0.4992 0.87569 0.0
H1133 H 0.39493 0.49804 0.92479 0.0
H1134 H 0.34523 0.44376 0.98956 0.0
H1135 H 0.3833 0.45761 0.96479 0.0
H1136 H 0.255 0.42076 0.82747 0.0
H1137 H 0.29236 0.43727 0.80315 0.0
H1138 H 0.22469 0.43815 0.87425 0.0
H1139 H 0.22713 0.43368 0.92312 0.0
C1140 C 0.3163 0.58013 0.6042 0.0
C1141 C 0.29306 0.55484 0.58269 0.0
C1142 C 0.30282 0.50597 0.62867 0.0
C1143 C 0.32448 0.53197 0.65079 0.0
N1144 N 0.34478 0.59588 0.66478 0.0
N1145 N 0.25773 0.49687 0.57881 0.0
C1146 C 0.32897 0.56972 0.64014 0.0
C1147 C 0.28444 0.5186 0.59617 0.0
N1148 N 0.32804 0.61323 0.58958 0.0
N1149 N 0.30083 0.469 0.63797 0.0
H1150 H 0.24299 0.5056 0.55558 0.0
H1151 H 0.24778 0.47184 0.58955 0.0
H1152 H 0.31333 0.45896 0.66203 0.0
H1153 H 0.28895 0.44785 0.62053 0.0
H1154 H 0.34838 0.63035 0.60207 0.0
H1155 H 0.32004 0.62216 0.56323 0.0
H1156 H 0.34519 0.6247 0.6603 0.0
H1157 H 0.35435 0.58927 0.69149 0.0
C1158 C 0.21374 0.53313 0.33359 0.0
C1159 C 0.18619 0.5072 0.34383 0.0
C1160 C 0.20426 0.5164 0.41041 0.0
C1161 C 0.22759 0.54659 0.40059 0.0
N1162 N 0.25093 0.58733 0.35295 0.0
N1163 N 0.15206 0.47735 0.39276 0.0
C1164 C 0.23168 0.55577 0.36217 0.0
C1165 C 0.18078 0.49933 0.38244 0.0
N1166 N 0.22332 0.53553 0.29659 0.0
N1167 N 0.20511 0.50347 0.44628 0.0
H1168 H 0.13388 0.46458 0.37342 0.0
H1169 H 0.14444 0.47438 0.42073 0.0
H1170 H 0.2224 0.51494 0.46737 0.0
H1171 H 0.19141 0.47908 0.45406 0.0
H1172 H 0.24564 0.55121 0.2879 0.0
H1173 H 0.21131 0.51874 0.27494 0.0
H1174 H 0.25128 0.59762 0.32579 0.0
H1175 H 0.26388 0.6053 0.37292 0.0
loop_
_geom_bond_atom_site_label_1
_geom_bond_atom_site_label_2
_geom_bond_distance
_geom_bond_site_symmetry_2
_ccdc_geom_bond_type
C0 O1 1.160 . S
C0 O7 1.185 . S
O1 C0 1.160 . S
O2 Zn3 1.894 1_655 S
O2 C10 1.284 . S
Zn3 O2 1.894 1_455 S
Zn3 O4 2.033 . S
Zn3 O7 2.080 1_455 S
Zn3 O12 1.987 . S
O4 Zn3 2.033 . S
O4 C8 1.278 . S
C5 O6 1.203 . S
C5 O12 1.267 . S
O6 C5 1.203 . S
O7 C0 1.185 . S
O7 Zn3 2.080 1_655 S
C8 O4 1.278 . S
C8 O9 1.211 . S
O9 C8 1.211 . S
C10 O2 1.284 . S
C10 O11 1.273 1_655 S
O11 C10 1.273 1_455 S
O12 Zn3 1.987 . S
O12 C5 1.267 . S
C13 O14 1.160 . S
C13 O20 1.185 . S
O14 C13 1.160 . S
O15 Zn16 1.899 1_655 S
O15 C23 1.284 . S
Zn16 O15 1.899 1_455 S
Zn16 O17 2.032 . S
Zn16 O20 2.086 . S
Zn16 O25 1.977 1_455 S
O17 Zn16 2.032 . S
O17 C21 1.278 . S
C18 O19 1.203 . S
C18 O25 1.267 . S
O19 C18 1.203 . S
O20 C13 1.185 . S
O20 Zn16 2.086 . S
C21 O17 1.278 . S
C21 O22 1.211 1_455 S
O22 C21 1.211 1_655 S
C23 O15 1.284 . S
C23 O24 1.273 . S
O24 C23 1.273 . S
O25 Zn16 1.977 1_655 S
O25 C18 1.267 . S
C26 O27 1.160 . S
C26 O33 1.185 . S
O27 C26 1.160 . S
O28 Zn29 1.899 . S
O28 C36 1.284 . S
Zn29 O28 1.899 . S
Zn29 O30 2.032 . S
Zn29 O33 2.086 . S
Zn29 O38 1.977 . S
O30 Zn29 2.032 . S
O30 C34 1.278 . S
C31 O32 1.203 . S
C31 O38 1.267 . S
O32 C31 1.203 . S
O33 C26 1.185 . S
O33 Zn29 2.086 . S
C34 O30 1.278 . S
C34 O35 1.211 . S
O35 C34 1.211 . S
C36 O28 1.284 . S
C36 O37 1.273 . S
O37 C36 1.273 . S
O38 Zn29 1.977 . S
O38 C31 1.267 . S
C39 O40 1.160 . S
C39 O46 1.185 . S
O40 C39 1.160 . S
O41 Zn42 1.899 . S
O41 C49 1.284 . S
Zn42 O41 1.899 . S
Zn42 O43 2.032 . S
Zn42 O46 2.086 . S
Zn42 O51 1.977 . S
O43 Zn42 2.032 . S
O43 C47 1.278 . S
C44 O45 1.203 . S
C44 O51 1.267 . S
O45 C44 1.203 . S
O46 C39 1.185 . S
O46 Zn42 2.086 . S
C47 O43 1.278 . S
C47 O48 1.211 . S
O48 C47 1.211 . S
C49 O41 1.284 . S
C49 O50 1.273 . S
O50 C49 1.273 . S
O51 Zn42 1.977 . S
O51 C44 1.267 . S
C52 O53 1.160 . S
C52 O59 1.185 . S
O53 C52 1.160 . S
O54 Zn55 1.899 . S
O54 C62 1.284 . S
Zn55 O54 1.899 . S
Zn55 O56 2.032 . S
Zn55 O59 2.086 . S
Zn55 O64 1.977 1_455 S
O56 Zn55 2.032 . S
O56 C60 1.278 1_455 S
C57 O58 1.203 . S
C57 O64 1.267 . S
O58 C57 1.203 . S
O59 C52 1.185 . S
O59 Zn55 2.086 . S
C60 O56 1.278 1_655 S
C60 O61 1.211 . S
O61 C60 1.211 . S
C62 O54 1.284 . S
C62 O63 1.273 . S
O63 C62 1.273 . S
O64 Zn55 1.977 1_655 S
O64 C57 1.267 . S
C65 O66 1.160 . S
C65 O72 1.185 . S
O66 C65 1.160 . S
O67 Zn68 1.899 . S
O67 C75 1.284 . S
Zn68 O67 1.899 . S
Zn68 O69 2.032 . S
Zn68 O72 2.086 . S
Zn68 O77 1.977 . S
O69 Zn68 2.032 . S
O69 C73 1.278 . S
C70 O71 1.203 . S
C70 O77 1.267 . S
O71 C70 1.203 . S
O72 C65 1.185 . S
O72 Zn68 2.086 . S
C73 O69 1.278 . S
C73 O74 1.211 . S
O74 C73 1.211 . S
C75 O67 1.284 . S
C75 O76 1.273 . S
O76 C75 1.273 . S
O77 Zn68 1.977 . S
O77 C70 1.267 . S
C78 O79 1.160 . S
C78 O85 1.185 . S
O79 C78 1.160 . S
O80 Zn81 1.899 . S
O80 C88 1.284 . S
Zn81 O80 1.899 . S
Zn81 O82 2.032 . S
Zn81 O85 2.086 . S
Zn81 O90 1.977 . S
O82 Zn81 2.032 . S
O82 C86 1.278 . S
C83 O84 1.203 . S
C83 O90 1.267 . S
O84 C83 1.203 . S
O85 C78 1.185 . S
O85 Zn81 2.086 . S
C86 O82 1.278 . S
C86 O87 1.211 . S
O87 C86 1.211 . S
C88 O80 1.284 . S
C88 O89 1.273 . S
O89 C88 1.273 . S
O90 Zn81 1.977 . S
O90 C83 1.267 . S
C91 O92 1.160 . S
C91 O98 1.185 . S
O92 C91 1.160 . S
O93 Zn94 1.899 . S
O93 C101 1.284 . S
Zn94 O93 1.899 . S
Zn94 O95 2.032 1_455 S
Zn94 O98 2.086 1_455 S
Zn94 O103 1.977 . S
O95 Zn94 2.032 1_655 S
O95 C99 1.278 . S
C96 O97 1.203 . S
C96 O103 1.267 . S
O97 C96 1.203 . S
O98 C91 1.185 . S
O98 Zn94 2.086 1_655 S
C99 O95 1.278 . S
C99 O100 1.211 1_655 S
O100 C99 1.211 1_455 S
C101 O93 1.284 . S
C101 O102 1.273 . S
O102 C101 1.273 . S
O103 Zn94 1.977 . S
O103 C96 1.267 . S
C104 O105 1.160 . S
C104 O111 1.185 . S
O105 C104 1.160 . S
O106 Zn107 1.899 1_565 S
O106 C114 1.284 . S
Zn107 O106 1.899 1_545 S
Zn107 O108 2.032 . S
Zn107 O111 2.086 1_545 S
Zn107 O116 1.977 . S
O108 Zn107 2.032 . S
O108 C112 1.278 . S
C109 O110 1.203 . S
C109 O116 1.267 . S
O110 C109 1.203 . S
O111 C104 1.185 . S
O111 Zn107 2.086 1_565 S
C112 O108 1.278 . S
C112 O113 1.211 . S
O113 C112 1.211 . S
C114 O106 1.284 . S
C114 O115 1.273 1_565 S
O115 C114 1.273 1_545 S
O116 Zn107 1.977 . S
O116 C109 1.267 . S
C117 O118 1.160 . S
C117 O124 1.185 . S
O118 C117 1.160 . S
O119 Zn120 1.899 . S
O119 C127 1.284 . S
Zn120 O119 1.899 . S
Zn120 O121 2.032 . S
Zn120 O124 2.086 . S
Zn120 O129 1.977 . S
O121 Zn120 2.032 . S
O121 C125 1.278 . S
C122 O123 1.203 . S
C122 O129 1.267 . S
O123 C122 1.203 . S
O124 C117 1.185 . S
O124 Zn120 2.086 . S
C125 O121 1.278 . S
C125 O126 1.211 . S
O126 C125 1.211 . S
C127 O119 1.284 . S
C127 O128 1.273 . S
O128 C127 1.273 . S
O129 Zn120 1.977 . S
O129 C122 1.267 . S
C130 O131 1.160 . S
C130 O137 1.185 . S
O131 C130 1.160 . S
O132 Zn133 1.899 . S
O132 C140 1.284 . S
Zn133 O132 1.899 . S
Zn133 O134 2.032 1_545 S
Zn133 O137 2.086 . S
Zn133 O142 1.977 1_545 S
O134 Zn133 2.032 1_565 S
O134 C138 1.278 . S
C135 O136 1.203 . S
C135 O142 1.267 . S
O136 C135 1.203 . S
O137 C130 1.185 . S
O137 Zn133 2.086 . S
C138 O134 1.278 . S
C138 O139 1.211 . S
O139 C138 1.211 . S
C140 O132 1.284 . S
C140 O141 1.273 . S
O141 C140 1.273 . S
O142 Zn133 1.977 1_565 S
O142 C135 1.267 . S
C143 O144 1.160 . S
C143 O150 1.185 . S
O144 C143 1.160 . S
O145 Zn146 1.899 . S
O145 C153 1.284 . S
Zn146 O145 1.899 . S
Zn146 O147 2.032 1_554 S
Zn146 O150 2.086 1_554 S
Zn146 O155 1.977 . S
O147 Zn146 2.032 1_556 S
O147 C151 1.278 . S
C148 O149 1.203 . S
C148 O155 1.267 . S
O149 C148 1.203 . S
O150 C143 1.185 . S
O150 Zn146 2.086 1_556 S
C151 O147 1.278 . S
C151 O152 1.211 . S
O152 C151 1.211 . S
C153 O145 1.284 . S
C153 O154 1.273 . S
O154 C153 1.273 . S
O155 Zn146 1.977 . S
O155 C148 1.267 . S
C156 O157 1.160 . S
C156 O163 1.185 . S
O157 C156 1.160 . S
O158 Zn159 1.899 . S
O158 C166 1.284 . S
Zn159 O158 1.899 . S
Zn159 O160 2.032 1_554 S
Zn159 O163 2.086 . S
Zn159 O168 1.977 1_554 S
O160 Zn159 2.032 1_556 S
O160 C164 1.278 . S
C161 O162 1.203 . S
C161 O168 1.267 . S
O162 C161 1.203 . S
O163 C156 1.185 . S
O163 Zn159 2.086 . S
C164 O160 1.278 . S
C164 O165 1.211 . S
O165 C164 1.211 . S
C166 O158 1.284 . S
C166 O167 1.273 . S
O167 C166 1.273 . S
O168 Zn159 1.977 1_556 S
O168 C161 1.267 . S
C169 O170 1.160 . S
C169 O176 1.185 . S
O170 C169 1.160 . S
O171 Zn172 1.899 . S
O171 C179 1.284 . S
Zn172 O171 1.899 . S
Zn172 O173 2.032 1_554 S
Zn172 O176 2.086 . S
Zn172 O181 1.977 1_554 S
O173 Zn172 2.032 1_556 S
O173 C177 1.278 . S
C174 O175 1.203 . S
C174 O181 1.267 . S
O175 C174 1.203 . S
O176 C169 1.185 . S
O176 Zn172 2.086 . S
C177 O173 1.278 . S
C177 O178 1.211 . S
O178 C177 1.211 . S
C179 O171 1.284 . S
C179 O180 1.273 . S
O180 C179 1.273 . S
O181 Zn172 1.977 1_556 S
O181 C174 1.267 . S
C182 O183 1.160 . S
C182 O189 1.185 . S
O183 C182 1.160 . S
O184 Zn185 1.899 . S
O184 C192 1.284 . S
Zn185 O184 1.899 . S
Zn185 O186 2.032 . S
Zn185 O189 2.086 . S
Zn185 O194 1.977 . S
O186 Zn185 2.032 . S
O186 C190 1.278 . S
C187 O188 1.203 . S
C187 O194 1.267 . S
O188 C187 1.203 . S
O189 C182 1.185 . S
O189 Zn185 2.086 . S
C190 O186 1.278 . S
C190 O191 1.211 . S
O191 C190 1.211 . S
C192 O184 1.284 . S
C192 O193 1.273 . S
O193 C192 1.273 . S
O194 Zn185 1.977 . S
O194 C187 1.267 . S
C195 O196 1.160 . S
C195 O202 1.185 . S
O196 C195 1.160 . S
O197 Zn198 1.899 . S
O197 C205 1.284 . S
Zn198 O197 1.899 . S
Zn198 O199 2.032 . S
Zn198 O202 2.086 . S
Zn198 O207 1.977 . S
O199 Zn198 2.032 . S
O199 C203 1.278 . S
C200 O201 1.203 . S
C200 O207 1.267 . S
O201 C200 1.203 . S
O202 C195 1.185 . S
O202 Zn198 2.086 . S
C203 O199 1.278 . S
C203 O204 1.211 . S
O204 C203 1.211 . S
C205 O197 1.284 . S
C205 O206 1.273 . S
O206 C205 1.273 . S
O207 Zn198 1.977 . S
O207 C200 1.267 . S
C208 O209 1.160 . S
C208 O215 1.185 . S
O209 C208 1.160 . S
O210 Zn211 1.899 . S
O210 C218 1.284 . S
Zn211 O210 1.899 . S
Zn211 O212 2.032 1_565 S
Zn211 O215 2.086 1_565 S
Zn211 O220 1.977 . S
O212 Zn211 2.032 1_545 S
O212 C216 1.278 . S
C213 O214 1.203 . S
C213 O220 1.267 . S
O214 C213 1.203 . S
O215 C208 1.185 . S
O215 Zn211 2.086 1_545 S
C216 O212 1.278 . S
C216 O217 1.211 . S
O217 C216 1.211 . S
C218 O210 1.284 . S
C218 O219 1.273 . S
O219 C218 1.273 . S
O220 Zn211 1.977 . S
O220 C213 1.267 . S
C221 O222 1.160 . S
C221 O228 1.185 . S
O222 C221 1.160 . S
O223 Zn224 1.899 . S
O223 C231 1.284 . S
Zn224 O223 1.899 . S
Zn224 O225 2.032 . S
Zn224 O228 2.086 . S
Zn224 O233 1.977 . S
O225 Zn224 2.032 . S
O225 C229 1.278 . S
C226 O227 1.203 . S
C226 O233 1.267 . S
O227 C226 1.203 . S
O228 C221 1.185 . S
O228 Zn224 2.086 . S
C229 O225 1.278 . S
C229 O230 1.211 . S
O230 C229 1.211 . S
C231 O223 1.284 . S
C231 O232 1.273 . S
O232 C231 1.273 . S
O233 Zn224 1.977 . S
O233 C226 1.267 . S
C234 O235 1.160 . S
C234 O241 1.185 . S
O235 C234 1.160 . S
O236 Zn237 1.899 . S
O236 C244 1.284 . S
Zn237 O236 1.899 . S
Zn237 O238 2.032 . S
Zn237 O241 2.086 . S
Zn237 O246 1.977 . S
O238 Zn237 2.032 . S
O238 C242 1.278 . S
C239 O240 1.203 . S
C239 O246 1.267 . S
O240 C239 1.203 . S
O241 C234 1.185 . S
O241 Zn237 2.086 . S
C242 O238 1.278 . S
C242 O243 1.211 . S
O243 C242 1.211 . S
C244 O236 1.284 . S
C244 O245 1.273 . S
O245 C244 1.273 . S
O246 Zn237 1.977 . S
O246 C239 1.267 . S
C247 O248 1.160 . S
C247 O254 1.185 . S
O248 C247 1.160 . S
O249 Zn250 1.899 1_565 S
O249 C257 1.284 . S
Zn250 O249 1.899 1_545 S
Zn250 O251 2.032 . S
Zn250 O254 2.086 . S
Zn250 O259 1.977 1_545 S
O251 Zn250 2.032 . S
O251 C255 1.278 . S
C252 O253 1.203 . S
C252 O259 1.267 . S
O253 C252 1.203 . S
O254 C247 1.185 . S
O254 Zn250 2.086 . S
C255 O251 1.278 . S
C255 O256 1.211 1_545 S
O256 C255 1.211 1_565 S
C257 O249 1.284 . S
C257 O258 1.273 . S
O258 C257 1.273 . S
O259 Zn250 1.977 1_565 S
O259 C252 1.267 . S
C260 O261 1.160 . S
C260 O267 1.185 . S
O261 C260 1.160 . S
O262 Zn263 1.899 . S
O262 C270 1.284 . S
Zn263 O262 1.899 . S
Zn263 O264 2.032 1_554 S
Zn263 O267 2.086 1_554 S
Zn263 O272 1.977 . S
O264 Zn263 2.032 1_556 S
O264 C268 1.278 . S
C265 O266 1.203 . S
C265 O272 1.267 . S
O266 C265 1.203 . S
O267 C260 1.185 . S
O267 Zn263 2.086 1_556 S
C268 O264 1.278 . S
C268 O269 1.211 . S
O269 C268 1.211 . S
C270 O262 1.284 . S
C270 O271 1.273 . S
O271 C270 1.273 . S
O272 Zn263 1.977 . S
O272 C265 1.267 . S
C273 O274 1.160 . S
C273 O280 1.185 . S
O274 C273 1.160 . S
O275 Zn276 1.899 . S
O275 C283 1.284 . S
Zn276 O275 1.899 . S
Zn276 O277 2.032 . S
Zn276 O280 2.086 . S
Zn276 O285 1.977 . S
O277 Zn276 2.032 . S
O277 C281 1.278 . S
C278 O279 1.203 . S
C278 O285 1.267 . S
O279 C278 1.203 . S
O280 C273 1.185 . S
O280 Zn276 2.086 . S
C281 O277 1.278 . S
C281 O282 1.211 . S
O282 C281 1.211 . S
C283 O275 1.284 . S
C283 O284 1.273 . S
O284 C283 1.273 . S
O285 Zn276 1.977 . S
O285 C278 1.267 . S
C286 O287 1.160 . S
C286 O293 1.185 . S
O287 C286 1.160 . S
O288 Zn289 1.899 . S
O288 C296 1.284 . S
Zn289 O288 1.899 . S
Zn289 O290 2.032 . S
Zn289 O293 2.086 . S
Zn289 O298 1.977 . S
O290 Zn289 2.032 . S
O290 C294 1.278 . S
C291 O292 1.203 . S
C291 O298 1.267 . S
O292 C291 1.203 . S
O293 C286 1.185 . S
O293 Zn289 2.086 . S
C294 O290 1.278 . S
C294 O295 1.211 . S
O295 C294 1.211 . S
C296 O288 1.284 . S
C296 O297 1.273 . S
O297 C296 1.273 . S
O298 Zn289 1.977 . S
O298 C291 1.267 . S
C299 O300 1.160 . S
C299 O306 1.185 . S
O300 C299 1.160 . S
O301 Zn302 1.899 . S
O301 C309 1.284 . S
Zn302 O301 1.899 . S
Zn302 O303 2.032 . S
Zn302 O306 2.086 . S
Zn302 O311 1.977 . S
O303 Zn302 2.032 . S
O303 C307 1.278 . S
C304 O305 1.203 . S
C304 O311 1.267 . S
O305 C304 1.203 . S
O306 C299 1.185 . S
O306 Zn302 2.086 . S
C307 O303 1.278 . S
C307 O308 1.211 . S
O308 C307 1.211 . S
C309 O301 1.284 . S
C309 O310 1.273 . S
O310 C309 1.273 . S
O311 Zn302 1.977 . S
O311 C304 1.267 . S
C312 C313 1.363 . S
C312 C318 1.379 . S
C312 N320 1.356 . S
C313 C312 1.363 . S
C313 C319 1.363 . S
C314 C315 1.363 . S
C314 C319 1.379 . S
C314 N321 1.356 . S
C315 C314 1.363 . S
C315 C318 1.363 . S
N316 C318 1.356 . S
N316 H328 0.984 . S
N316 H329 0.985 . S
N317 C319 1.356 . S
N317 H322 0.984 . S
N317 H323 0.985 . S
C318 C312 1.379 . S
C318 C315 1.363 . S
C318 N316 1.356 . S
C319 C313 1.363 . S
C319 C314 1.379 . S
C319 N317 1.356 . S
N320 C312 1.356 . S
N320 H326 0.984 . S
N320 H327 0.984 . S
N321 C314 1.356 . S
N321 H324 0.984 . S
N321 H325 0.985 1_455 S
H322 N317 0.984 . S
H323 N317 0.985 . S
H324 N321 0.984 . S
H325 N321 0.985 1_655 S
H326 N320 0.984 . S
H327 N320 0.984 . S
H328 N316 0.984 . S
H329 N316 0.985 . S
C330 C331 1.363 . S
C330 C336 1.379 . S
C330 N338 1.356 . S
C331 C330 1.363 . S
C331 C337 1.363 . S
C332 C333 1.363 . S
C332 C337 1.379 . S
C332 N339 1.356 . S
C333 C332 1.363 . S
C333 C336 1.363 . S
N334 C336 1.356 . S
N334 H346 0.984 . S
N334 H347 0.985 . S
N335 C337 1.356 . S
N335 H340 0.984 . S
N335 H341 0.985 . S
C336 C330 1.379 . S
C336 C333 1.363 . S
C336 N334 1.356 . S
C337 C331 1.363 . S
C337 C332 1.379 . S
C337 N335 1.356 . S
N338 C330 1.356 . S
N338 H344 0.984 . S
N338 H345 0.984 . S
N339 C332 1.356 . S
N339 H342 0.984 . S
N339 H343 0.985 . S
H340 N335 0.984 . S
H341 N335 0.985 . S
H342 N339 0.984 . S
H343 N339 0.985 . S
H344 N338 0.984 . S
H345 N338 0.984 . S
H346 N334 0.984 . S
H347 N334 0.985 . S
C348 C349 1.363 . S
C348 C354 1.379 . S
C348 N356 1.356 . S
C349 C348 1.363 . S
C349 C355 1.363 . S
C350 C351 1.363 . S
C350 C355 1.379 . S
C350 N357 1.356 . S
C351 C350 1.363 . S
C351 C354 1.363 . S
N352 C354 1.356 . S
N352 H364 0.984 . S
N352 H365 0.985 . S
N353 C355 1.356 . S
N353 H358 0.984 . S
N353 H359 0.985 . S
C354 C348 1.379 . S
C354 C351 1.363 . S
C354 N352 1.356 . S
C355 C349 1.363 . S
C355 C350 1.379 . S
C355 N353 1.356 . S
N356 C348 1.356 . S
N356 H362 0.984 . S
N356 H363 0.984 . S
N357 C350 1.356 . S
N357 H360 0.984 . S
N357 H361 0.985 . S
H358 N353 0.984 . S
H359 N353 0.985 . S
H360 N357 0.984 . S
H361 N357 0.985 . S
H362 N356 0.984 . S
H363 N356 0.984 . S
H364 N352 0.984 . S
H365 N352 0.985 . S
C366 C367 1.363 . S
C366 C372 1.379 . S
C366 N374 1.356 . S
C367 C366 1.363 . S
C367 C373 1.363 . S
C368 C369 1.363 . S
C368 C373 1.379 . S
C368 N375 1.356 . S
C369 C368 1.363 . S
C369 C372 1.363 . S
N370 C372 1.356 . S
N370 H382 0.984 . S
N370 H383 0.985 . S
N371 C373 1.356 . S
N371 H376 0.984 . S
N371 H377 0.985 . S
C372 C366 1.379 . S
C372 C369 1.363 . S
C372 N370 1.356 . S
C373 C367 1.363 . S
C373 C368 1.379 . S
C373 N371 1.356 . S
N374 C366 1.356 . S
N374 H380 0.984 . S
N374 H381 0.984 . S
N375 C368 1.356 . S
N375 H378 0.984 . S
N375 H379 0.985 . S
H376 N371 0.984 . S
H377 N371 0.985 . S
H378 N375 0.984 . S
H379 N375 0.985 . S
H380 N374 0.984 . S
H381 N374 0.984 . S
H382 N370 0.984 . S
H383 N370 0.985 . S
C384 C385 1.363 . S
C384 C390 1.379 . S
C384 N392 1.356 . S
C385 C384 1.363 . S
C385 C391 1.363 . S
C386 C387 1.363 . S
C386 C391 1.379 . S
C386 N393 1.356 . S
C387 C386 1.363 . S
C387 C390 1.363 . S
N388 C390 1.356 . S
N388 H400 0.984 . S
N388 H401 0.985 . S
N389 C391 1.356 . S
N389 H394 0.984 . S
N389 H395 0.985 . S
C390 C384 1.379 . S
C390 C387 1.363 . S
C390 N388 1.356 . S
C391 C385 1.363 . S
C391 C386 1.379 . S
C391 N389 1.356 . S
N392 C384 1.356 . S
N392 H398 0.984 . S
N392 H399 0.984 . S
N393 C386 1.356 . S
N393 H396 0.984 . S
N393 H397 0.985 . S
H394 N389 0.984 . S
H395 N389 0.985 . S
H396 N393 0.984 . S
H397 N393 0.985 . S
H398 N392 0.984 . S
H399 N392 0.984 . S
H400 N388 0.984 . S
H401 N388 0.985 . S
C402 C403 1.363 . S
C402 C408 1.379 . S
C402 N410 1.356 . S
C403 C402 1.363 . S
C403 C409 1.363 . S
C404 C405 1.363 . S
C404 C409 1.379 . S
C404 N411 1.356 . S
C405 C404 1.363 . S
C405 C408 1.363 . S
N406 C408 1.356 . S
N406 H418 0.984 . S
N406 H419 0.985 . S
N407 C409 1.356 . S
N407 H412 0.984 . S
N407 H413 0.985 . S
C408 C402 1.379 . S
C408 C405 1.363 . S
C408 N406 1.356 . S
C409 C403 1.363 . S
C409 C404 1.379 . S
C409 N407 1.356 . S
N410 C402 1.356 . S
N410 H416 0.984 . S
N410 H417 0.984 . S
N411 C404 1.356 . S
N411 H414 0.984 . S
N411 H415 0.985 . S
H412 N407 0.984 . S
H413 N407 0.985 . S
H414 N411 0.984 . S
H415 N411 0.985 . S
H416 N410 0.984 . S
H417 N410 0.984 . S
H418 N406 0.984 . S
H419 N406 0.985 . S
C420 C421 1.363 . S
C420 C426 1.379 . S
C420 N428 1.356 . S
C421 C420 1.363 . S
C421 C427 1.363 . S
C422 C423 1.363 . S
C422 C427 1.379 . S
C422 N429 1.356 . S
C423 C422 1.363 . S
C423 C426 1.363 . S
N424 C426 1.356 . S
N424 H436 0.984 . S
N424 H437 0.985 . S
N425 C427 1.356 . S
N425 H430 0.984 . S
N425 H431 0.985 . S
C426 C420 1.379 . S
C426 C423 1.363 . S
C426 N424 1.356 . S
C427 C421 1.363 . S
C427 C422 1.379 . S
C427 N425 1.356 . S
N428 C420 1.356 . S
N428 H434 0.984 . S
N428 H435 0.984 . S
N429 C422 1.356 . S
N429 H432 0.984 . S
N429 H433 0.985 . S
H430 N425 0.984 . S
H431 N425 0.985 . S
H432 N429 0.984 . S
H433 N429 0.985 . S
H434 N428 0.984 . S
H435 N428 0.984 . S
H436 N424 0.984 . S
H437 N424 0.985 . S
C438 C439 1.363 . S
C438 C444 1.379 . S
C438 N446 1.356 . S
C439 C438 1.363 . S
C439 C445 1.363 . S
C440 C441 1.363 . S
C440 C445 1.379 . S
C440 N447 1.356 . S
C441 C440 1.363 . S
C441 C444 1.363 . S
N442 C444 1.356 1_554 S
N442 H454 0.984 . S
N442 H455 0.985 . S
N443 C445 1.356 . S
N443 H448 0.984 . S
N443 H449 0.985 . S
C444 C438 1.379 . S
C444 C441 1.363 . S
C444 N442 1.356 1_556 S
C445 C439 1.363 . S
C445 C440 1.379 . S
C445 N443 1.356 . S
N446 C438 1.356 . S
N446 H452 0.984 1_556 S
N446 H453 0.984 . S
N447 C440 1.356 . S
N447 H450 0.984 . S
N447 H451 0.985 . S
H448 N443 0.984 . S
H449 N443 0.985 . S
H450 N447 0.984 . S
H451 N447 0.985 . S
H452 N446 0.984 1_554 S
H453 N446 0.984 . S
H454 N442 0.984 . S
H455 N442 0.985 . S
C456 C457 1.363 . S
C456 C462 1.379 . S
C456 N464 1.356 . S
C457 C456 1.363 . S
C457 C463 1.363 . S
C458 C459 1.363 . S
C458 C463 1.379 . S
C458 N465 1.356 . S
C459 C458 1.363 . S
C459 C462 1.363 . S
N460 C462 1.356 . S
N460 H472 0.984 . S
N460 H473 0.985 . S
N461 C463 1.356 . S
N461 H466 0.984 . S
N461 H467 0.985 . S
C462 C456 1.379 . S
C462 C459 1.363 . S
C462 N460 1.356 . S
C463 C457 1.363 . S
C463 C458 1.379 . S
C463 N461 1.356 . S
N464 C456 1.356 . S
N464 H470 0.984 . S
N464 H471 0.984 . S
N465 C458 1.356 . S
N465 H468 0.984 . S
N465 H469 0.985 1_545 S
H466 N461 0.984 . S
H467 N461 0.985 . S
H468 N465 0.984 . S
H469 N465 0.985 1_565 S
H470 N464 0.984 . S
H471 N464 0.984 . S
H472 N460 0.984 . S
H473 N460 0.985 . S
C474 C475 1.363 . S
C474 C480 1.379 . S
C474 N482 1.356 . S
C475 C474 1.363 . S
C475 C481 1.363 . S
C476 C477 1.363 . S
C476 C481 1.379 . S
C476 N483 1.356 . S
C477 C476 1.363 . S
C477 C480 1.363 . S
N478 C480 1.356 . S
N478 H490 0.984 . S
N478 H491 0.985 . S
N479 C481 1.356 . S
N479 H484 0.984 . S
N479 H485 0.985 . S
C480 C474 1.379 . S
C480 C477 1.363 . S
C480 N478 1.356 . S
C481 C475 1.363 . S
C481 C476 1.379 . S
C481 N479 1.356 . S
N482 C474 1.356 . S
N482 H488 0.984 . S
N482 H489 0.984 . S
N483 C476 1.356 . S
N483 H486 0.984 . S
N483 H487 0.985 . S
H484 N479 0.984 . S
H485 N479 0.985 . S
H486 N483 0.984 . S
H487 N483 0.985 . S
H488 N482 0.984 . S
H489 N482 0.984 . S
H490 N478 0.984 . S
H491 N478 0.985 . S
C492 C493 1.363 . S
C492 C498 1.379 . S
C492 N500 1.356 . S
C493 C492 1.363 . S
C493 C499 1.363 . S
C494 C495 1.363 . S
C494 C499 1.379 . S
C494 N501 1.356 1_565 S
C495 C494 1.363 . S
C495 C498 1.363 . S
N496 C498 1.356 . S
N496 H508 0.984 . S
N496 H509 0.985 . S
N497 C499 1.356 1_545 S
N497 H502 0.984 . S
N497 H503 0.985 . S
C498 C492 1.379 . S
C498 C495 1.363 . S
C498 N496 1.356 . S
C499 C493 1.363 . S
C499 C494 1.379 . S
C499 N497 1.356 1_565 S
N500 C492 1.356 . S
N500 H506 0.984 . S
N500 H507 0.984 . S
N501 C494 1.356 1_545 S
N501 H504 0.984 1_545 S
N501 H505 0.985 . S
H502 N497 0.984 . S
H503 N497 0.985 . S
H504 N501 0.984 1_565 S
H505 N501 0.985 . S
H506 N500 0.984 . S
H507 N500 0.984 . S
H508 N496 0.984 . S
H509 N496 0.985 . S
C510 C511 1.363 . S
C510 C516 1.379 . S
C510 N518 1.356 1_565 S
C511 C510 1.363 . S
C511 C517 1.363 . S
C512 C513 1.363 . S
C512 C517 1.379 . S
C512 N519 1.356 . S
C513 C512 1.363 . S
C513 C516 1.363 . S
N514 C516 1.356 1_545 S
N514 H526 0.984 . S
N514 H527 0.985 . S
N515 C517 1.356 . S
N515 H520 0.984 . S
N515 H521 0.985 . S
C516 C510 1.379 . S
C516 C513 1.363 . S
C516 N514 1.356 1_565 S
C517 C511 1.363 . S
C517 C512 1.379 . S
C517 N515 1.356 . S
N518 C510 1.356 1_545 S
N518 H524 0.984 . S
N518 H525 0.984 1_545 S
N519 C512 1.356 . S
N519 H522 0.984 . S
N519 H523 0.985 . S
H520 N515 0.984 . S
H521 N515 0.985 . S
H522 N519 0.984 . S
H523 N519 0.985 . S
H524 N518 0.984 . S
H525 N518 0.984 1_565 S
H526 N514 0.984 . S
H527 N514 0.985 . S
C528 C529 1.363 . S
C528 C534 1.379 . S
C528 N536 1.356 . S
C529 C528 1.363 . S
C529 C535 1.363 . S
C530 C531 1.363 . S
C530 C535 1.379 . S
C530 N537 1.356 . S
C531 C530 1.363 . S
C531 C534 1.363 . S
N532 C534 1.356 . S
N532 H544 0.984 . S
N532 H545 0.985 . S
N533 C535 1.356 . S
N533 H538 0.984 . S
N533 H539 0.985 1_554 S
C534 C528 1.379 . S
C534 C531 1.363 . S
C534 N532 1.356 . S
C535 C529 1.363 . S
C535 C530 1.379 . S
C535 N533 1.356 . S
N536 C528 1.356 . S
N536 H542 0.984 . S
N536 H543 0.984 . S
N537 C530 1.356 . S
N537 H540 0.984 . S
N537 H541 0.985 . S
H538 N533 0.984 . S
H539 N533 0.985 1_556 S
H540 N537 0.984 . S
H541 N537 0.985 . S
H542 N536 0.984 . S
H543 N536 0.984 . S
H544 N532 0.984 . S
H545 N532 0.985 . S
C546 C547 1.363 . S
C546 C552 1.379 . S
C546 N554 1.356 . S
C547 C546 1.363 . S
C547 C553 1.363 . S
C548 C549 1.363 . S
C548 C553 1.379 . S
C548 N555 1.356 . S
C549 C548 1.363 . S
C549 C552 1.363 . S
N550 C552 1.356 . S
N550 H562 0.984 . S
N550 H563 0.985 . S
N551 C553 1.356 1_455 S
N551 H556 0.984 . S
N551 H557 0.985 . S
C552 C546 1.379 . S
C552 C549 1.363 . S
C552 N550 1.356 . S
C553 C547 1.363 . S
C553 C548 1.379 . S
C553 N551 1.356 1_655 S
N554 C546 1.356 . S
N554 H560 0.984 . S
N554 H561 0.984 . S
N555 C548 1.356 . S
N555 H558 0.984 . S
N555 H559 0.985 . S
H556 N551 0.984 . S
H557 N551 0.985 . S
H558 N555 0.984 . S
H559 N555 0.985 . S
H560 N554 0.984 . S
H561 N554 0.984 . S
H562 N550 0.984 . S
H563 N550 0.985 . S
C564 C565 1.363 . S
C564 C570 1.379 . S
C564 N572 1.356 . S
C565 C564 1.363 . S
C565 C571 1.363 . S
C566 C567 1.363 . S
C566 C571 1.379 . S
C566 N573 1.356 . S
C567 C566 1.363 . S
C567 C570 1.363 . S
N568 C570 1.356 . S
N568 H580 0.984 . S
N568 H581 0.985 . S
N569 C571 1.356 . S
N569 H574 0.984 . S
N569 H575 0.985 . S
C570 C564 1.379 . S
C570 C567 1.363 . S
C570 N568 1.356 . S
C571 C565 1.363 . S
C571 C566 1.379 . S
C571 N569 1.356 . S
N572 C564 1.356 . S
N572 H578 0.984 . S
N572 H579 0.984 . S
N573 C566 1.356 . S
N573 H576 0.984 . S
N573 H577 0.985 . S
H574 N569 0.984 . S
H575 N569 0.985 . S
H576 N573 0.984 . S
H577 N573 0.985 . S
H578 N572 0.984 . S
H579 N572 0.984 . S
H580 N568 0.984 . S
H581 N568 0.985 . S
C582 C583 1.363 . S
C582 C588 1.379 . S
C582 N590 1.356 . S
C583 C582 1.363 . S
C583 C589 1.363 . S
C584 C585 1.363 . S
C584 C589 1.379 . S
C584 N591 1.356 . S
C585 C584 1.363 . S
C585 C588 1.363 . S
N586 C588 1.356 . S
N586 H598 0.984 . S
N586 H599 0.985 . S
N587 C589 1.356 . S
N587 H592 0.984 . S
N587 H593 0.985 . S
C588 C582 1.379 . S
C588 C585 1.363 . S
C588 N586 1.356 . S
C589 C583 1.363 . S
C589 C584 1.379 . S
C589 N587 1.356 . S
N590 C582 1.356 . S
N590 H596 0.984 1_655 S
N590 H597 0.984 . S
N591 C584 1.356 . S
N591 H594 0.984 . S
N591 H595 0.985 . S
H592 N587 0.984 . S
H593 N587 0.985 . S
H594 N591 0.984 . S
H595 N591 0.985 . S
H596 N590 0.984 1_455 S
H597 N590 0.984 . S
H598 N586 0.984 . S
H599 N586 0.985 . S
C600 C601 1.363 . S
C600 C606 1.379 . S
C600 N608 1.356 . S
C601 C600 1.363 . S
C601 C607 1.363 . S
C602 C603 1.363 . S
C602 C607 1.379 . S
C602 N609 1.356 . S
C603 C602 1.363 . S
C603 C606 1.363 . S
N604 C606 1.356 . S
N604 H616 0.984 . S
N604 H617 0.985 . S
N605 C607 1.356 . S
N605 H610 0.984 . S
N605 H611 0.985 . S
C606 C600 1.379 . S
C606 C603 1.363 . S
C606 N604 1.356 . S
C607 C601 1.363 . S
C607 C602 1.379 . S
C607 N605 1.356 . S
N608 C600 1.356 . S
N608 H614 0.984 . S
N608 H615 0.984 . S
N609 C602 1.356 . S
N609 H612 0.984 . S
N609 H613 0.985 . S
H610 N605 0.984 . S
H611 N605 0.985 . S
H612 N609 0.984 . S
H613 N609 0.985 . S
H614 N608 0.984 . S
H615 N608 0.984 . S
H616 N604 0.984 . S
H617 N604 0.985 . S
C618 C619 1.363 . S
C618 C624 1.379 . S
C618 N626 1.356 . S
C619 C618 1.363 . S
C619 C625 1.363 . S
C620 C621 1.363 . S
C620 C625 1.379 . S
C620 N627 1.356 . S
C621 C620 1.363 . S
C621 C624 1.363 . S
N622 C624 1.356 . S
N622 H634 0.984 . S
N622 H635 0.985 . S
N623 C625 1.356 . S
N623 H628 0.984 . S
N623 H629 0.985 . S
C624 C618 1.379 . S
C624 C621 1.363 . S
C624 N622 1.356 . S
C625 C619 1.363 . S
C625 C620 1.379 . S
C625 N623 1.356 . S
N626 C618 1.356 . S
N626 H632 0.984 . S
N626 H633 0.984 . S
N627 C620 1.356 . S
N627 H630 0.984 . S
N627 H631 0.985 . S
H628 N623 0.984 . S
H629 N623 0.985 . S
H630 N627 0.984 . S
H631 N627 0.985 . S
H632 N626 0.984 . S
H633 N626 0.984 . S
H634 N622 0.984 . S
H635 N622 0.985 . S
C636 C637 1.363 . S
C636 C642 1.379 . S
C636 N644 1.356 . S
C637 C636 1.363 . S
C637 C643 1.363 . S
C638 C639 1.363 . S
C638 C643 1.379 . S
C638 N645 1.356 . S
C639 C638 1.363 . S
C639 C642 1.363 . S
N640 C642 1.356 . S
N640 H652 0.984 . S
N640 H653 0.985 . S
N641 C643 1.356 1_554 S
N641 H646 0.984 . S
N641 H647 0.985 . S
C642 C636 1.379 . S
C642 C639 1.363 . S
C642 N640 1.356 . S
C643 C637 1.363 . S
C643 C638 1.379 . S
C643 N641 1.356 1_556 S
N644 C636 1.356 . S
N644 H650 0.984 . S
N644 H651 0.984 . S
N645 C638 1.356 . S
N645 H648 0.984 . S
N645 H649 0.985 1_556 S
H646 N641 0.984 . S
H647 N641 0.985 . S
H648 N645 0.984 . S
H649 N645 0.985 1_554 S
H650 N644 0.984 . S
H651 N644 0.984 . S
H652 N640 0.984 . S
H653 N640 0.985 . S
C654 C655 1.363 . S
C654 C660 1.379 . S
C654 N662 1.356 . S
C655 C654 1.363 . S
C655 C661 1.363 . S
C656 C657 1.363 . S
C656 C661 1.379 . S
C656 N663 1.356 . S
C657 C656 1.363 . S
C657 C660 1.363 . S
N658 C660 1.356 1_455 S
N658 H670 0.984 . S
N658 H671 0.985 . S
N659 C661 1.356 . S
N659 H664 0.984 . S
N659 H665 0.985 . S
C660 C654 1.379 . S
C660 C657 1.363 . S
C660 N658 1.356 1_655 S
C661 C655 1.363 . S
C661 C656 1.379 . S
C661 N659 1.356 . S
N662 C654 1.356 . S
N662 H668 0.986 1_655 S
N662 H669 0.984 . S
N663 C656 1.356 . S
N663 H666 0.984 . S
N663 H667 0.985 . S
H664 N659 0.984 . S
H665 N659 0.985 . S
H666 N663 0.984 . S
H667 N663 0.985 . S
H668 N662 0.986 1_455 S
H669 N662 0.984 . S
H670 N658 0.984 . S
H671 N658 0.985 . S
C672 C673 1.363 . S
C672 C678 1.379 . S
C672 N680 1.356 . S
C673 C672 1.363 . S
C673 C679 1.363 . S
C674 C675 1.363 . S
C674 C679 1.379 . S
C674 N681 1.356 . S
C675 C674 1.363 . S
C675 C678 1.363 . S
N676 C678 1.356 . S
N676 H688 0.984 . S
N676 H689 0.985 . S
N677 C679 1.356 . S
N677 H682 0.984 . S
N677 H683 0.985 . S
C678 C672 1.379 . S
C678 C675 1.363 . S
C678 N676 1.356 . S
C679 C673 1.363 . S
C679 C674 1.379 . S
C679 N677 1.356 . S
N680 C672 1.356 . S
N680 H686 0.984 . S
N680 H687 0.984 . S
N681 C674 1.356 . S
N681 H684 0.984 . S
N681 H685 0.985 . S
H682 N677 0.984 . S
H683 N677 0.985 . S
H684 N681 0.984 . S
H685 N681 0.985 . S
H686 N680 0.984 . S
H687 N680 0.984 . S
H688 N676 0.984 . S
H689 N676 0.985 . S
C690 C691 1.363 . S
C690 C696 1.379 . S
C690 N698 1.356 . S
C691 C690 1.363 . S
C691 C697 1.363 . S
C692 C693 1.363 . S
C692 C697 1.379 . S
C692 N699 1.356 . S
C693 C692 1.363 . S
C693 C696 1.363 . S
N694 C696 1.356 . S
N694 H706 0.984 . S
N694 H707 0.985 . S
N695 C697 1.356 . S
N695 H700 0.984 . S
N695 H701 0.985 . S
C696 C690 1.379 . S
C696 C693 1.363 . S
C696 N694 1.356 . S
C697 C691 1.363 . S
C697 C692 1.379 . S
C697 N695 1.356 . S
N698 C690 1.356 . S
N698 H704 0.984 . S
N698 H705 0.984 . S
N699 C692 1.356 . S
N699 H702 0.984 . S
N699 H703 0.985 . S
H700 N695 0.984 . S
H701 N695 0.985 . S
H702 N699 0.984 . S
H703 N699 0.985 . S
H704 N698 0.984 . S
H705 N698 0.984 . S
H706 N694 0.984 . S
H707 N694 0.985 . S
C708 C709 1.363 . S
C708 C714 1.379 . S
C708 N716 1.356 . S
C709 C708 1.363 . S
C709 C715 1.363 . S
C710 C711 1.363 . S
C710 C715 1.379 . S
C710 N717 1.356 . S
C711 C710 1.363 . S
C711 C714 1.363 . S
N712 C714 1.356 . S
N712 H724 0.984 . S
N712 H725 0.985 . S
N713 C715 1.356 . S
N713 H718 0.984 . S
N713 H719 0.985 . S
C714 C708 1.379 . S
C714 C711 1.363 . S
C714 N712 1.356 . S
C715 C709 1.363 . S
C715 C710 1.379 . S
C715 N713 1.356 . S
N716 C708 1.356 . S
N716 H722 0.984 . S
N716 H723 0.984 . S
N717 C710 1.356 . S
N717 H720 0.984 . S
N717 H721 0.985 . S
H718 N713 0.984 . S
H719 N713 0.985 . S
H720 N717 0.984 . S
H721 N717 0.985 . S
H722 N716 0.984 . S
H723 N716 0.984 . S
H724 N712 0.984 . S
H725 N712 0.985 . S
C726 C727 1.363 . S
C726 C732 1.379 . S
C726 N734 1.356 . S
C727 C726 1.363 . S
C727 C733 1.363 . S
C728 C729 1.363 . S
C728 C733 1.379 . S
C728 N735 1.356 1_565 S
C729 C728 1.363 . S
C729 C732 1.363 . S
N730 C732 1.356 . S
N730 H742 0.984 . S
N730 H743 0.985 . S
N731 C733 1.356 . S
N731 H736 0.984 . S
N731 H737 0.985 1_565 S
C732 C726 1.379 . S
C732 C729 1.363 . S
C732 N730 1.356 . S
C733 C727 1.363 . S
C733 C728 1.379 . S
C733 N731 1.356 . S
N734 C726 1.356 . S
N734 H740 0.984 . S
N734 H741 0.984 . S
N735 C728 1.356 1_545 S
N735 H738 0.984 . S
N735 H739 0.985 . S
H736 N731 0.984 . S
H737 N731 0.985 1_545 S
H738 N735 0.984 . S
H739 N735 0.985 . S
H740 N734 0.984 . S
H741 N734 0.984 . S
H742 N730 0.984 . S
H743 N730 0.985 . S
C744 C745 1.363 . S
C744 C750 1.379 . S
C744 N752 1.356 1_565 S
C745 C744 1.363 . S
C745 C751 1.363 . S
C746 C747 1.363 . S
C746 C751 1.379 . S
C746 N753 1.356 . S
C747 C746 1.363 . S
C747 C750 1.363 . S
N748 C750 1.356 . S
N748 H760 0.970 1_565 S
N748 H761 0.985 . S
N749 C751 1.356 . S
N749 H754 0.984 . S
N749 H755 0.985 . S
C750 C744 1.379 . S
C750 C747 1.363 . S
C750 N748 1.356 . S
C751 C745 1.363 . S
C751 C746 1.379 . S
C751 N749 1.356 . S
N752 C744 1.356 1_545 S
N752 H758 0.984 . S
N752 H759 0.984 . S
N753 C746 1.356 . S
N753 H756 0.984 . S
N753 H757 0.985 . S
H754 N749 0.984 . S
H755 N749 0.985 . S
H756 N753 0.984 . S
H757 N753 0.985 . S
H758 N752 0.984 . S
H759 N752 0.984 . S
H760 N748 0.970 1_545 S
H761 N748 0.985 . S
C762 C763 1.363 . S
C762 C768 1.379 . S
C762 N770 1.356 . S
C763 C762 1.363 . S
C763 C769 1.363 . S
C764 C765 1.363 . S
C764 C769 1.379 . S
C764 N771 1.356 . S
C765 C764 1.363 . S
C765 C768 1.363 . S
N766 C768 1.356 . S
N766 H778 0.984 . S
N766 H779 0.985 . S
N767 C769 1.356 . S
N767 H772 0.984 . S
N767 H773 0.985 . S
C768 C762 1.379 . S
C768 C765 1.363 . S
C768 N766 1.356 . S
C769 C763 1.363 . S
C769 C764 1.379 . S
C769 N767 1.356 . S
N770 C762 1.356 . S
N770 H776 0.984 . S
N770 H777 0.984 . S
N771 C764 1.356 . S
N771 H774 0.984 . S
N771 H775 0.985 . S
H772 N767 0.984 . S
H773 N767 0.985 . S
H774 N771 0.984 . S
H775 N771 0.985 . S
H776 N770 0.984 . S
H777 N770 0.984 . S
H778 N766 0.984 . S
H779 N766 0.985 . S
C780 C781 1.363 . S
C780 C786 1.379 . S
C780 N788 1.356 . S
C781 C780 1.363 . S
C781 C787 1.363 . S
C782 C783 1.363 . S
C782 C787 1.379 . S
C782 N789 1.356 . S
C783 C782 1.363 . S
C783 C786 1.363 . S
N784 C786 1.356 . S
N784 H796 0.984 . S
N784 H797 0.985 . S
N785 C787 1.356 . S
N785 H790 0.984 . S
N785 H791 0.985 . S
C786 C780 1.379 . S
C786 C783 1.363 . S
C786 N784 1.356 . S
C787 C781 1.363 . S
C787 C782 1.379 . S
C787 N785 1.356 . S
N788 C780 1.356 . S
N788 H794 0.984 . S
N788 H795 0.984 . S
N789 C782 1.356 . S
N789 H792 0.984 . S
N789 H793 0.985 . S
H790 N785 0.984 . S
H791 N785 0.985 . S
H792 N789 0.984 . S
H793 N789 0.985 . S
H794 N788 0.984 . S
H795 N788 0.984 . S
H796 N784 0.984 . S
H797 N784 0.985 . S
C798 C799 1.363 . S
C798 C804 1.379 . S
C798 N806 1.356 . S
C799 C798 1.363 . S
C799 C805 1.363 . S
C800 C801 1.363 . S
C800 C805 1.379 . S
C800 N807 1.338 1_556 S
C801 C800 1.363 . S
C801 C804 1.363 . S
N802 C804 1.356 . S
N802 H814 0.984 . S
N802 H815 0.985 . S
N803 C805 1.356 . S
N803 H808 0.984 . S
N803 H809 0.985 . S
C804 C798 1.379 . S
C804 C801 1.363 . S
C804 N802 1.356 . S
C805 C799 1.363 . S
C805 C800 1.379 . S
C805 N803 1.356 . S
N806 C798 1.356 . S
N806 H812 0.984 . S
N806 H813 0.984 . S
N807 C800 1.338 1_554 S
N807 H810 0.987 . S
N807 H811 1.001 . S
H808 N803 0.984 . S
H809 N803 0.985 . S
H810 N807 0.987 . S
H811 N807 1.001 . S
H812 N806 0.984 . S
H813 N806 0.984 . S
H814 N802 0.984 . S
H815 N802 0.985 . S
C816 C817 1.363 . S
C816 C822 1.379 . S
C816 N824 1.356 . S
C817 C816 1.363 . S
C817 C823 1.363 . S
C818 C819 1.363 . S
C818 C823 1.379 . S
C818 N825 1.356 . S
C819 C818 1.363 . S
C819 C822 1.363 . S
N820 C822 1.356 . S
N820 H832 0.984 . S
N820 H833 0.985 . S
N821 C823 1.356 . S
N821 H826 0.984 . S
N821 H827 0.985 . S
C822 C816 1.379 . S
C822 C819 1.363 . S
C822 N820 1.356 . S
C823 C817 1.363 . S
C823 C818 1.379 . S
C823 N821 1.356 . S
N824 C816 1.356 . S
N824 H830 0.984 . S
N824 H831 0.984 . S
N825 C818 1.356 . S
N825 H828 0.984 . S
N825 H829 0.985 . S
H826 N821 0.984 . S
H827 N821 0.985 . S
H828 N825 0.984 . S
H829 N825 0.985 . S
H830 N824 0.984 . S
H831 N824 0.984 . S
H832 N820 0.984 . S
H833 N820 0.985 . S
C834 C835 1.363 . S
C834 C840 1.379 . S
C834 N842 1.356 . S
C835 C834 1.363 . S
C835 C841 1.363 . S
C836 C837 1.363 . S
C836 C841 1.379 . S
C836 N843 1.356 . S
C837 C836 1.363 . S
C837 C840 1.363 . S
N838 C840 1.356 . S
N838 H850 0.984 . S
N838 H851 0.985 . S
N839 C841 1.356 . S
N839 H844 0.984 . S
N839 H845 0.985 . S
C840 C834 1.379 . S
C840 C837 1.363 . S
C840 N838 1.356 . S
C841 C835 1.363 . S
C841 C836 1.379 . S
C841 N839 1.356 . S
N842 C834 1.356 . S
N842 H848 0.984 . S
N842 H849 0.984 . S
N843 C836 1.356 . S
N843 H846 0.984 . S
N843 H847 0.985 . S
H844 N839 0.984 . S
H845 N839 0.985 . S
H846 N843 0.984 . S
H847 N843 0.985 . S
H848 N842 0.984 . S
H849 N842 0.984 . S
H850 N838 0.984 . S
H851 N838 0.985 . S
C852 C853 1.363 . S
C852 C858 1.379 . S
C852 N860 1.356 . S
C853 C852 1.363 . S
C853 C859 1.363 . S
C854 C855 1.363 . S
C854 C859 1.379 . S
C854 N861 1.356 . S
C855 C854 1.363 . S
C855 C858 1.363 . S
N856 C858 1.356 . S
N856 H868 0.984 . S
N856 H869 0.985 . S
N857 C859 1.356 . S
N857 H862 0.984 . S
N857 H863 0.985 . S
C858 C852 1.379 . S
C858 C855 1.363 . S
C858 N856 1.356 . S
C859 C853 1.363 . S
C859 C854 1.379 . S
C859 N857 1.356 . S
N860 C852 1.356 . S
N860 H866 0.984 . S
N860 H867 0.984 . S
N861 C854 1.356 . S
N861 H864 0.984 . S
N861 H865 0.985 . S
H862 N857 0.984 . S
H863 N857 0.985 . S
H864 N861 0.984 . S
H865 N861 0.985 . S
H866 N860 0.984 . S
H867 N860 0.984 . S
H868 N856 0.984 . S
H869 N856 0.985 . S
C870 C871 1.363 . S
C870 C876 1.379 . S
C870 N878 1.356 . S
C871 C870 1.363 . S
C871 C877 1.363 . S
C872 C873 1.363 . S
C872 C877 1.379 . S
C872 N879 1.356 . S
C873 C872 1.363 . S
C873 C876 1.363 . S
N874 C876 1.356 . S
N874 H886 0.984 . S
N874 H887 0.985 . S
N875 C877 1.356 . S
N875 H880 0.984 . S
N875 H881 0.985 . S
C876 C870 1.379 . S
C876 C873 1.363 . S
C876 N874 1.356 . S
C877 C871 1.363 . S
C877 C872 1.379 . S
C877 N875 1.356 . S
N878 C870 1.356 . S
N878 H884 0.984 1_655 S
N878 H885 0.984 1_655 S
N879 C872 1.356 . S
N879 H882 0.984 . S
N879 H883 0.985 . S
H880 N875 0.984 . S
H881 N875 0.985 . S
H882 N879 0.984 . S
H883 N879 0.985 . S
H884 N878 0.984 1_455 S
H885 N878 0.984 1_455 S
H886 N874 0.984 . S
H887 N874 0.985 . S
C888 C889 1.363 . S
C888 C894 1.379 . S
C888 N896 1.356 . S
C889 C888 1.363 . S
C889 C895 1.363 . S
C890 C891 1.363 . S
C890 C895 1.379 . S
C890 N897 1.356 . S
C891 C890 1.363 . S
C891 C894 1.363 . S
N892 C894 1.356 . S
N892 H904 0.984 . S
N892 H905 0.985 . S
N893 C895 1.356 . S
N893 H898 0.984 . S
N893 H899 0.985 . S
C894 C888 1.379 . S
C894 C891 1.363 . S
C894 N892 1.356 . S
C895 C889 1.363 . S
C895 C890 1.379 . S
C895 N893 1.356 . S
N896 C888 1.356 . S
N896 H902 0.984 . S
N896 H903 0.984 . S
N897 C890 1.356 . S
N897 H900 0.984 . S
N897 H901 0.985 . S
H898 N893 0.984 . S
H899 N893 0.985 . S
H900 N897 0.984 . S
H901 N897 0.985 . S
H902 N896 0.984 . S
H903 N896 0.984 . S
H904 N892 0.984 . S
H905 N892 0.985 . S
C906 C907 1.363 . S
C906 C912 1.379 . S
C906 N914 1.356 1_556 S
C907 C906 1.363 . S
C907 C913 1.363 . S
C908 C909 1.363 . S
C908 C913 1.379 . S
C908 N915 1.356 . S
C909 C908 1.363 . S
C909 C912 1.363 . S
N910 C912 1.356 . S
N910 H922 0.984 1_556 S
N910 H923 0.985 . S
N911 C913 1.356 . S
N911 H916 0.984 . S
N911 H917 0.985 . S
C912 C906 1.379 . S
C912 C909 1.363 . S
C912 N910 1.356 . S
C913 C907 1.363 . S
C913 C908 1.379 . S
C913 N911 1.356 . S
N914 C906 1.356 1_554 S
N914 H920 0.984 . S
N914 H921 0.984 . S
N915 C908 1.356 . S
N915 H918 0.984 . S
N915 H919 0.985 . S
H916 N911 0.984 . S
H917 N911 0.985 . S
H918 N915 0.984 . S
H919 N915 0.985 . S
H920 N914 0.984 . S
H921 N914 0.984 . S
H922 N910 0.984 1_554 S
H923 N910 0.985 . S
C924 C925 1.363 . S
C924 C930 1.379 . S
C924 N932 1.356 . S
C925 C924 1.363 . S
C925 C931 1.363 . S
C926 C927 1.363 . S
C926 C931 1.379 . S
C926 N933 1.356 . S
C927 C926 1.363 . S
C927 C930 1.363 . S
N928 C930 1.356 . S
N928 H940 0.984 . S
N928 H941 0.985 . S
N929 C931 1.356 . S
N929 H934 0.984 . S
N929 H935 0.985 . S
C930 C924 1.379 . S
C930 C927 1.363 . S
C930 N928 1.356 . S
C931 C925 1.363 . S
C931 C926 1.379 . S
C931 N929 1.356 . S
N932 C924 1.356 . S
N932 H938 0.984 . S
N932 H939 0.984 . S
N933 C926 1.356 . S
N933 H936 0.984 . S
N933 H937 0.985 . S
H934 N929 0.984 . S
H935 N929 0.985 . S
H936 N933 0.984 . S
H937 N933 0.985 . S
H938 N932 0.984 . S
H939 N932 0.984 . S
H940 N928 0.984 . S
H941 N928 0.985 . S
C942 C943 1.363 . S
C942 C948 1.379 . S
C942 N950 1.356 . S
C943 C942 1.363 . S
C943 C949 1.363 . S
C944 C945 1.363 . S
C944 C949 1.379 . S
C944 N951 1.356 . S
C945 C944 1.363 . S
C945 C948 1.363 . S
N946 C948 1.356 . S
N946 H958 0.984 . S
N946 H959 0.985 . S
N947 C949 1.356 . S
N947 H952 0.984 . S
N947 H953 0.985 . S
C948 C942 1.379 . S
C948 C945 1.363 . S
C948 N946 1.356 . S
C949 C943 1.363 . S
C949 C944 1.379 . S
C949 N947 1.356 . S
N950 C942 1.356 . S
N950 H956 0.984 . S
N950 H957 0.984 . S
N951 C944 1.356 . S
N951 H954 0.984 . S
N951 H955 0.985 . S
H952 N947 0.984 . S
H953 N947 0.985 . S
H954 N951 0.984 . S
H955 N951 0.985 . S
H956 N950 0.984 . S
H957 N950 0.984 . S
H958 N946 0.984 . S
H959 N946 0.985 . S
C960 C961 1.363 . S
C960 C966 1.379 . S
C960 N968 1.356 . S
C961 C960 1.363 . S
C961 C967 1.363 . S
C962 C963 1.363 . S
C962 C967 1.379 . S
C962 N969 1.356 . S
C963 C962 1.363 . S
C963 C966 1.363 . S
N964 C966 1.356 . S
N964 H976 0.984 . S
N964 H977 0.985 . S
N965 C967 1.356 . S
N965 H970 0.984 . S
N965 H971 0.985 . S
C966 C960 1.379 . S
C966 C963 1.363 . S
C966 N964 1.356 . S
C967 C961 1.363 . S
C967 C962 1.379 . S
C967 N965 1.356 . S
N968 C960 1.356 . S
N968 H974 0.984 . S
N968 H975 0.984 . S
N969 C962 1.356 . S
N969 H972 0.984 . S
N969 H973 0.985 . S
H970 N965 0.984 . S
H971 N965 0.985 . S
H972 N969 0.984 . S
H973 N969 0.985 . S
H974 N968 0.984 . S
H975 N968 0.984 . S
H976 N964 0.984 . S
H977 N964 0.985 . S
C978 C979 1.363 . S
C978 C984 1.379 . S
C978 N986 1.356 . S
C979 C978 1.363 . S
C979 C985 1.363 . S
C980 C981 1.363 . S
C980 C985 1.379 . S
C980 N987 1.356 . S
C981 C980 1.363 . S
C981 C984 1.363 . S
N982 C984 1.356 . S
N982 H994 0.984 . S
N982 H995 0.985 . S
N983 C985 1.356 . S
N983 H988 0.984 . S
N983 H989 0.985 . S
C984 C978 1.379 . S
C984 C981 1.363 . S
C984 N982 1.356 . S
C985 C979 1.363 . S
C985 C980 1.379 . S
C985 N983 1.356 . S
N986 C978 1.356 . S
N986 H992 0.984 . S
N986 H993 0.984 . S
N987 C980 1.356 . S
N987 H990 0.984 . S
N987 H991 0.985 . S
H988 N983 0.984 . S
H989 N983 0.985 . S
H990 N987 0.984 . S
H991 N987 0.985 . S
H992 N986 0.984 . S
H993 N986 0.984 . S
H994 N982 0.984 . S
H995 N982 0.985 . S
C996 C997 1.363 . S
C996 C1002 1.379 . S
C996 N1004 1.356 . S
C997 C996 1.363 . S
C997 C1003 1.363 . S
C998 C999 1.363 . S
C998 C1003 1.379 . S
C998 N1005 1.356 . S
C999 C998 1.363 . S
C999 C1002 1.363 . S
N1000 C1002 1.356 . S
N1000 H1012 0.984 . S
N1000 H1013 0.985 . S
N1001 C1003 1.356 . S
N1001 H1006 0.984 . S
N1001 H1007 0.985 . S
C1002 C996 1.379 . S
C1002 C999 1.363 . S
C1002 N1000 1.356 . S
C1003 C997 1.363 . S
C1003 C998 1.379 . S
C1003 N1001 1.356 . S
N1004 C996 1.356 . S
N1004 H1010 0.984 . S
N1004 H1011 0.984 . S
N1005 C998 1.356 . S
N1005 H1008 0.984 . S
N1005 H1009 0.985 . S
H1006 N1001 0.984 . S
H1007 N1001 0.985 . S
H1008 N1005 0.984 . S
H1009 N1005 0.985 . S
H1010 N1004 0.984 . S
H1011 N1004 0.984 . S
H1012 N1000 0.984 . S
H1013 N1000 0.985 . S
C1014 C1015 1.363 . S
C1014 C1020 1.379 . S
C1014 N1022 1.356 . S
C1015 C1014 1.363 . S
C1015 C1021 1.363 . S
C1016 C1017 1.363 . S
C1016 C1021 1.379 . S
C1016 N1023 1.356 . S
C1017 C1016 1.363 . S
C1017 C1020 1.363 . S
N1018 C1020 1.356 . S
N1018 H1030 0.984 . S
N1018 H1031 0.985 . S
N1019 C1021 1.356 . S
N1019 H1024 0.984 . S
N1019 H1025 0.985 . S
C1020 C1014 1.379 . S
C1020 C1017 1.363 . S
C1020 N1018 1.356 . S
C1021 C1015 1.363 . S
C1021 C1016 1.379 . S
C1021 N1019 1.356 . S
N1022 C1014 1.356 . S
N1022 H1028 0.984 . S
N1022 H1029 0.984 . S
N1023 C1016 1.356 . S
N1023 H1026 0.984 . S
N1023 H1027 0.985 . S
H1024 N1019 0.984 . S
H1025 N1019 0.985 . S
H1026 N1023 0.984 . S
H1027 N1023 0.985 . S
H1028 N1022 0.984 . S
H1029 N1022 0.984 . S
H1030 N1018 0.984 . S
H1031 N1018 0.985 . S
C1032 C1033 1.363 . S
C1032 C1038 1.379 . S
C1032 N1040 1.356 . S
C1033 C1032 1.363 . S
C1033 C1039 1.363 . S
C1034 C1035 1.363 . S
C1034 C1039 1.379 . S
C1034 N1041 1.356 . S
C1035 C1034 1.363 . S
C1035 C1038 1.363 . S
N1036 C1038 1.356 . S
N1036 H1048 0.984 . S
N1036 H1049 0.985 . S
N1037 C1039 1.356 . S
N1037 H1042 0.984 . S
N1037 H1043 0.995 . S
C1038 C1032 1.379 . S
C1038 C1035 1.363 . S
C1038 N1036 1.356 . S
C1039 C1033 1.363 . S
C1039 C1034 1.379 . S
C1039 N1037 1.356 . S
N1040 C1032 1.356 . S
N1040 H1046 0.984 . S
N1040 H1047 0.984 . S
N1041 C1034 1.356 . S
N1041 H1044 0.984 . S
N1041 H1045 0.985 . S
H1042 N1037 0.984 . S
H1043 N1037 0.995 . S
H1044 N1041 0.984 . S
H1045 N1041 0.985 . S
H1046 N1040 0.984 . S
H1047 N1040 0.984 . S
H1048 N1036 0.984 . S
H1049 N1036 0.985 . S
C1050 C1051 1.363 . S
C1050 C1056 1.379 . S
C1050 N1058 1.356 . S
C1051 C1050 1.363 . S
C1051 C1057 1.363 . S
C1052 C1053 1.363 . S
C1052 C1057 1.379 . S
C1052 N1059 1.356 . S
C1053 C1052 1.363 . S
C1053 C1056 1.363 . S
N1054 C1056 1.356 . S
N1054 H1066 0.984 . S
N1054 H1067 0.985 . S
N1055 C1057 1.356 . S
N1055 H1060 0.984 . S
N1055 H1061 0.985 . S
C1056 C1050 1.379 . S
C1056 C1053 1.363 . S
C1056 N1054 1.356 . S
C1057 C1051 1.363 . S
C1057 C1052 1.379 . S
C1057 N1055 1.356 . S
N1058 C1050 1.356 . S
N1058 H1064 0.984 . S
N1058 H1065 0.984 . S
N1059 C1052 1.356 . S
N1059 H1062 0.984 . S
N1059 H1063 0.985 . S
H1060 N1055 0.984 . S
H1061 N1055 0.985 . S
H1062 N1059 0.984 . S
H1063 N1059 0.985 . S
H1064 N1058 0.984 . S
H1065 N1058 0.984 . S
H1066 N1054 0.984 . S
H1067 N1054 0.985 . S
C1068 C1069 1.363 . S
C1068 C1074 1.379 . S
C1068 N1076 1.356 . S
C1069 C1068 1.363 . S
C1069 C1075 1.363 . S
C1070 C1071 1.363 . S
C1070 C1075 1.379 . S
C1070 N1077 1.356 . S
C1071 C1070 1.363 . S
C1071 C1074 1.363 . S
N1072 C1074 1.356 . S
N1072 H1084 0.984 . S
N1072 H1085 0.985 . S
N1073 C1075 1.356 1_556 S
N1073 H1078 0.984 . S
N1073 H1079 0.985 . S
C1074 C1068 1.379 . S
C1074 C1071 1.363 . S
C1074 N1072 1.356 . S
C1075 C1069 1.363 . S
C1075 C1070 1.379 . S
C1075 N1073 1.356 1_554 S
N1076 C1068 1.356 . S
N1076 H1082 0.984 . S
N1076 H1083 0.984 . S
N1077 C1070 1.356 . S
N1077 H1080 0.984 . S
N1077 H1081 0.985 . S
H1078 N1073 0.984 . S
H1079 N1073 0.985 . S
H1080 N1077 0.984 . S
H1081 N1077 0.985 . S
H1082 N1076 0.984 . S
H1083 N1076 0.984 . S
H1084 N1072 0.984 . S
H1085 N1072 0.985 . S
C1086 C1087 1.363 . S
C1086 C1092 1.379 . S
C1086 N1094 1.356 . S
C1087 C1086 1.363 . S
C1087 C1093 1.363 . S
C1088 C1089 1.363 . S
C1088 C1093 1.379 . S
C1088 N1095 1.356 . S
C1089 C1088 1.363 . S
C1089 C1092 1.363 . S
N1090 C1092 1.356 . S
N1090 H1102 0.984 . S
N1090 H1103 0.985 . S
N1091 C1093 1.356 . S
N1091 H1096 0.984 . S
N1091 H1097 0.985 . S
C1092 C1086 1.379 . S
C1092 C1089 1.363 . S
C1092 N1090 1.356 . S
C1093 C1087 1.363 . S
C1093 C1088 1.379 . S
C1093 N1091 1.356 . S
N1094 C1086 1.356 . S
N1094 H1100 0.984 . S
N1094 H1101 0.984 . S
N1095 C1088 1.356 . S
N1095 H1098 0.984 . S
N1095 H1099 0.985 . S
H1096 N1091 0.984 . S
H1097 N1091 0.985 . S
H1098 N1095 0.984 . S
H1099 N1095 0.985 . S
H1100 N1094 0.984 . S
H1101 N1094 0.984 . S
H1102 N1090 0.984 . S
H1103 N1090 0.985 . S
C1104 C1105 1.363 . S
C1104 C1110 1.379 . S
C1104 N1112 1.356 . S
C1105 C1104 1.363 . S
C1105 C1111 1.363 . S
C1106 C1107 1.363 . S
C1106 C1111 1.379 . S
C1106 N1113 1.356 . S
C1107 C1106 1.363 . S
C1107 C1110 1.363 . S
N1108 C1110 1.356 . S
N1108 H1120 0.984 . S
N1108 H1121 0.985 . S
N1109 C1111 1.356 . S
N1109 H1114 0.984 . S
N1109 H1115 0.985 . S
C1110 C1104 1.379 . S
C1110 C1107 1.363 . S
C1110 N1108 1.356 . S
C1111 C1105 1.363 . S
C1111 C1106 1.379 . S
C1111 N1109 1.356 . S
N1112 C1104 1.356 . S
N1112 H1118 0.984 . S
N1112 H1119 0.984 . S
N1113 C1106 1.356 . S
N1113 H1116 0.984 . S
N1113 H1117 0.985 . S
H1114 N1109 0.984 . S
H1115 N1109 0.985 . S
H1116 N1113 0.984 . S
H1117 N1113 0.985 . S
H1118 N1112 0.984 . S
H1119 N1112 0.984 . S
H1120 N1108 0.984 . S
H1121 N1108 0.985 . S
C1122 C1123 1.363 . S
C1122 C1128 1.379 . S
C1122 N1130 1.356 . S
C1123 C1122 1.363 . S
C1123 C1129 1.363 . S
C1124 C1125 1.363 . S
C1124 C1129 1.379 . S
C1124 N1131 1.356 . S
C1125 C1124 1.363 . S
C1125 C1128 1.363 . S
N1126 C1128 1.356 . S
N1126 H1138 0.984 . S
N1126 H1139 0.985 . S
N1127 C1129 1.356 . S
N1127 H1132 0.984 . S
N1127 H1133 0.985 . S
C1128 C1122 1.379 . S
C1128 C1125 1.363 . S
C1128 N1126 1.356 . S
C1129 C1123 1.363 . S
C1129 C1124 1.379 . S
C1129 N1127 1.356 . S
N1130 C1122 1.356 . S
N1130 H1136 0.984 . S
N1130 H1137 0.984 . S
N1131 C1124 1.356 . S
N1131 H1134 0.984 . S
N1131 H1135 0.985 . S
H1132 N1127 0.984 . S
H1133 N1127 0.985 . S
H1134 N1131 0.984 . S
H1135 N1131 0.985 . S
H1136 N1130 0.984 . S
H1137 N1130 0.984 . S
H1138 N1126 0.984 . S
H1139 N1126 0.985 . S
C1140 C1141 1.363 . S
C1140 C1146 1.379 . S
C1140 N1148 1.356 . S
C1141 C1140 1.363 . S
C1141 C1147 1.363 . S
C1142 C1143 1.363 . S
C1142 C1147 1.379 . S
C1142 N1149 1.356 . S
C1143 C1142 1.363 . S
C1143 C1146 1.363 . S
N1144 C1146 1.356 . S
N1144 H1156 0.984 . S
N1144 H1157 0.985 . S
N1145 C1147 1.356 . S
N1145 H1150 0.984 . S
N1145 H1151 0.985 . S
C1146 C1140 1.379 . S
C1146 C1143 1.363 . S
C1146 N1144 1.356 . S
C1147 C1141 1.363 . S
C1147 C1142 1.379 . S
C1147 N1145 1.356 . S
N1148 C1140 1.356 . S
N1148 H1154 0.984 . S
N1148 H1155 0.984 . S
N1149 C1142 1.356 . S
N1149 H1152 0.984 . S
N1149 H1153 0.985 . S
H1150 N1145 0.984 . S
H1151 N1145 0.985 . S
H1152 N1149 0.984 . S
H1153 N1149 0.985 . S
H1154 N1148 0.984 . S
H1155 N1148 0.984 . S
H1156 N1144 0.984 . S
H1157 N1144 0.985 . S
C1158 C1159 1.363 . S
C1158 C1164 1.379 . S
C1158 N1166 1.356 . S
C1159 C1158 1.363 . S
C1159 C1165 1.363 . S
C1160 C1161 1.363 . S
C1160 C1165 1.379 . S
C1160 N1167 1.356 . S
C1161 C1160 1.363 . S
C1161 C1164 1.363 . S
N1162 C1164 1.356 . S
N1162 H1174 0.984 . S
N1162 H1175 0.985 . S
N1163 C1165 1.356 . S
N1163 H1168 0.984 . S
N1163 H1169 0.985 . S
C1164 C1158 1.379 . S
C1164 C1161 1.363 . S
C1164 N1162 1.356 . S
C1165 C1159 1.363 . S
C1165 C1160 1.379 . S
C1165 N1163 1.356 . S
N1166 C1158 1.356 . S
N1166 H1172 0.984 . S
N1166 H1173 0.984 . S
N1167 C1160 1.356 . S
N1167 H1170 0.984 . S
N1167 H1171 0.985 . S
H1168 N1163 0.984 . S
H1169 N1163 0.985 . S
H1170 N1167 0.984 . S
H1171 N1167 0.985 . S
H1172 N1166 0.984 . S
H1173 N1166 0.984 . S
H1174 N1162 0.984 . S
H1175 N1162 0.985 . S
C313 C187 1.334 . S
C315 C8 1.352 . S
C331 C18 1.268 . S
C333 C195 1.280 . S
C349 C242 1.385 . S
C351 C36 1.404 . S
C367 C39 1.267 . S
C369 C169 1.266 . S
C385 C182 1.376 . S
C387 C62 1.403 . S
C403 C70 1.280 . S
C405 C200 1.281 . S
C421 C86 1.312 . S
C423 C244 1.355 . S
C439 C91 1.276 . S
C441 C174 1.258 . S
C457 C125 1.323 . S
C459 C112 1.345 . S
C475 C130 1.373 . S
C477 C127 1.402 . S
C493 C135 1.337 . S
C495 C151 1.351 . S
C511 C153 1.389 . S
C513 C114 1.387 . S
C529 C156 1.281 . S
C531 C44 1.268 . S
C547 C60 1.312 . S
C549 C218 1.358 . S
C565 C221 1.266 . S
C567 C13 1.267 . S
C583 C23 1.489 . S
C585 C278 1.444 . S
C601 C117 1.374 . S
C603 C5 1.399 . S
C619 C307 1.439 . S
C621 C47 1.437 . S
C637 C143 1.384 . S
C639 C26 1.385 . S
C655 C273 1.473 . S
C657 C99 1.473 . S
C673 C122 1.398 . S
C675 C83 1.405 . S
C691 C75 1.493 . S
C693 C309 1.490 . S
C709 C52 1.372 . S
C711 C148 1.393 . S
C727 C205 1.495 . S
C729 C257 1.491 . S
C745 C213 1.528 . S
C747 C203 1.497 . S
C763 C179 1.467 . S
C765 C208 1.397 . S
C781 C255 1.435 . S
C783 C177 1.434 . S
C799 C31 1.399 . S
C801 C260 1.375 . S
C817 C140 1.490 . S
C819 C101 1.493 . S
C835 C0 1.385 . S
C837 C286 1.384 . S
C853 C252 1.334 . S
C855 C34 1.352 . S
C871 C10 1.404 . S
C873 C216 1.382 . S
C889 C247 1.376 . S
C891 C88 1.403 . S
C907 C161 1.281 . S
C909 C96 1.280 . S
C925 C65 1.276 . S
C927 C226 1.257 . S
C943 C281 1.345 . S
C945 C268 1.323 . S
C961 C299 1.373 . S
C963 C270 1.402 . S
C979 C294 1.351 . S
C981 C304 1.337 . S
C997 C283 1.387 . S
C999 C296 1.389 . S
C1015 C109 1.444 . S
C1017 C49 1.489 . S
C1033 C21 1.437 . S
C1035 C138 1.439 . S
C1051 C73 1.473 . S
C1053 C104 1.473 . S
C1069 C265 1.398 . S
C1071 C57 1.405 . S
C1087 C78 1.372 . S
C1089 C291 1.393 . S
C1105 C166 1.495 . S
C1107 C192 1.491 . S
C1123 C239 1.528 . S
C1125 C164 1.496 . S
C1141 C231 1.467 . S
C1143 C234 1.398 . S
C1159 C190 1.435 . S
C1161 C229 1.434 . S
