# Generated by pormake.
# Topology uob, (4)-cn, num edge types: 1
# Building blocks:
#     Node 0, Type 0, BuildingBlock: QUQFOY_clean_sbu_1, # of connection points: 4
#     Node 1, Type 0, BuildingBlock: QUQFOY_clean_sbu_1, # of connection points: 4
#     Node 2, Type 0, BuildingBlock: QUQFOY_clean_sbu_1, # of connection points: 4
#     Node 3, Type 0, BuildingBlock: QUQFOY_clean_sbu_1, # of connection points: 4
#     Node 4, Type 0, BuildingBlock: QUQFOY_clean_sbu_1, # of connection points: 4
#     Node 5, Type 0, BuildingBlock: QUQFOY_clean_sbu_1, # of connection points: 4
#     Node 6, Type 0, BuildingBlock: QUQFOY_clean_sbu_1, # of connection points: 4
#     Node 7, Type 0, BuildingBlock: QUQFOY_clean_sbu_1, # of connection points: 4
#     Node 8, Type 0, BuildingBlock: QUQFOY_clean_sbu_1, # of connection points: 4
#     Node 9, Type 0, BuildingBlock: QUQFOY_clean_sbu_1, # of connection points: 4
#     Node 10, Type 0, BuildingBlock: QUQFOY_clean_sbu_1, # of connection points: 4
#     Node 11, Type 0, BuildingBlock: QUQFOY_clean_sbu_1, # of connection points: 4
#     Node 12, Type 0, BuildingBlock: QUQFOY_clean_sbu_1, # of connection points: 4
#     Node 13, Type 0, BuildingBlock: QUQFOY_clean_sbu_1, # of connection points: 4
#     Node 14, Type 0, BuildingBlock: QUQFOY_clean_sbu_1, # of connection points: 4
#     Node 15, Type 0, BuildingBlock: QUQFOY_clean_sbu_1, # of connection points: 4
#     Edge 16, Type (0, 0), BuildingBlock: AJUNOK_clean_linker_0, # of connection points: 2
#     Edge 17, Type (0, 0), BuildingBlock: AJUNOK_clean_linker_0, # of connection points: 2
#     Edge 18, Type (0, 0), BuildingBlock: AJUNOK_clean_linker_0, # of connection points: 2
#     Edge 19, Type (0, 0), BuildingBlock: AJUNOK_clean_linker_0, # of connection points: 2
#     Edge 20, Type (0, 0), BuildingBlock: AJUNOK_clean_linker_0, # of connection points: 2
#     Edge 21, Type (0, 0), BuildingBlock: AJUNOK_clean_linker_0, # of connection points: 2
#     Edge 22, Type (0, 0), BuildingBlock: AJUNOK_clean_linker_0, # of connection points: 2
#     Edge 23, Type (0, 0), BuildingBlock: AJUNOK_clean_linker_0, # of connection points: 2
#     Edge 24, Type (0, 0), BuildingBlock: AJUNOK_clean_linker_0, # of connection points: 2
#     Edge 25, Type (0, 0), BuildingBlock: AJUNOK_clean_linker_0, # of connection points: 2
#     Edge 26, Type (0, 0), BuildingBlock: AJUNOK_clean_linker_0, # of connection points: 2
#     Edge 27, Type (0, 0), BuildingBlock: AJUNOK_clean_linker_0, # of connection points: 2
#     Edge 28, Type (0, 0), BuildingBlock: AJUNOK_clean_linker_0, # of connection points: 2
#     Edge 29, Type (0, 0), BuildingBlock: AJUNOK_clean_linker_0, # of connection points: 2
#     Edge 30, Type (0, 0), BuildingBlock: AJUNOK_clean_linker_0, # of connection points: 2
#     Edge 31, Type (0, 0), BuildingBlock: AJUNOK_clean_linker_0, # of connection points: 2
#     Edge 32, Type (0, 0), BuildingBlock: AJUNOK_clean_linker_0, # of connection points: 2
#     Edge 33, Type (0, 0), BuildingBlock: AJUNOK_clean_linker_0, # of connection points: 2
#     Edge 34, Type (0, 0), BuildingBlock: AJUNOK_clean_linker_0, # of connection points: 2
#     Edge 35, Type (0, 0), BuildingBlock: AJUNOK_clean_linker_0, # of connection points: 2
#     Edge 36, Type (0, 0), BuildingBlock: AJUNOK_clean_linker_0, # of connection points: 2
#     Edge 37, Type (0, 0), BuildingBlock: AJUNOK_clean_linker_0, # of connection points: 2
#     Edge 38, Type (0, 0), BuildingBlock: AJUNOK_clean_linker_0, # of connection points: 2
#     Edge 39, Type (0, 0), BuildingBlock: AJUNOK_clean_linker_0, # of connection points: 2
#     Edge 40, Type (0, 0), BuildingBlock: AJUNOK_clean_linker_0, # of connection points: 2
#     Edge 41, Type (0, 0), BuildingBlock: AJUNOK_clean_linker_0, # of connection points: 2
#     Edge 42, Type (0, 0), BuildingBlock: AJUNOK_clean_linker_0, # of connection points: 2
#     Edge 43, Type (0, 0), BuildingBlock: AJUNOK_clean_linker_0, # of connection points: 2
#     Edge 44, Type (0, 0), BuildingBlock: AJUNOK_clean_linker_0, # of connection points: 2
#     Edge 45, Type (0, 0), BuildingBlock: AJUNOK_clean_linker_0, # of connection points: 2
#     Edge 46, Type (0, 0), BuildingBlock: AJUNOK_clean_linker_0, # of connection points: 2
#     Edge 47, Type (0, 0), BuildingBlock: AJUNOK_clean_linker_0, # of connection points: 2
# Relax obj value: 0.039
# Max RMSD: 0.118
# Mean RMSD: 0.118
data_MOF--net-uob--node1-QUQFOY_clean_sbu_1--edge1-AJUNOK_clean_linker_0
_symmetry_space_group_name_H-M    P1
_symmetry_Int_Tables_number       1
_symmetry_cell_setting            triclinic
loop_
_symmetry_equiv_pos_as_xyz
'x, y, z'
_cell_length_a     41.407063
_cell_length_b     41.45879
_cell_length_c     20.764588
_cell_angle_alpha  90.015663
_cell_angle_beta   90.055542
_cell_angle_gamma 90.039687
loop_
_atom_site_label
_atom_site_type_symbol
_atom_site_fract_x
_atom_site_fract_y
_atom_site_fract_z
_atom_type_partial_charge
O0 O 0.15208 0.08214 0.44643 0.0
Cd1 Cd 0.15297 0.04551 0.38065 0.0
Cd2 Cd 0.12695 0.09837 0.31098 0.0
O3 O 0.14282 0.12564 0.3883 0.0
O4 O 0.17913 1.01386 0.43182 0.0
O5 O 0.19699 0.03667 0.34273 0.0
C6 C 0.20286 0.01943 0.39328 0.0
C7 C 0.1339 0.11426 0.20338 0.0
C8 C 0.15008 0.11257 0.44176 0.0
C9 C 0.08342 0.04106 0.34128 0.0
O10 O 0.08617 0.07065 0.32608 0.0
O11 O 0.1083 0.02482 0.35786 0.0
O12 O 0.11374 0.12873 0.24081 0.0
O13 O 0.15157 0.0918 0.22833 0.0
O14 O 0.94785 0.6523 0.6862 0.0
Cd15 Cd 0.98587 0.65195 0.62367 0.0
Cd16 Cd 0.93188 0.62824 0.54991 0.0
O17 O 0.90444 0.6443 0.62664 0.0
O18 O 0.01745 0.67563 0.67975 0.0
O19 O 0.99781 0.69616 0.58998 0.0
C20 C 1.01373 0.70036 0.64293 0.0
C21 C 0.91593 0.63519 0.44222 0.0
C22 C 0.91739 0.65136 0.68034 0.0
C23 C 0.98758 0.58254 0.58316 0.0
O24 O 0.95849 0.5869 0.56551 0.0
O25 O 1.00485 0.60643 0.60143 0.0
O26 O 0.90124 0.6153 0.47987 0.0
O27 O 0.93872 0.65256 0.46692 0.0
O28 O 0.38154 0.44842 0.92751 0.0
Cd29 Cd 0.3809 0.48647 0.86514 0.0
Cd30 Cd 0.40793 0.43368 0.7917 0.0
O31 O 0.39308 0.40577 0.86841 0.0
O32 O 0.35592 0.51728 0.92056 0.0
O33 O 0.33688 0.49768 0.82939 0.0
C34 C 0.33185 0.51366 0.88189 0.0
C35 C 0.40272 0.41542 0.68509 0.0
C36 C 0.38484 0.41815 0.92189 0.0
C37 C 0.45064 0.49149 0.82633 0.0
O38 O 0.44796 0.46237 0.80766 0.0
O39 O 0.42582 0.50717 0.84505 0.0
O40 O 0.4232 0.40277 0.72436 0.0
O41 O 0.38399 0.43771 0.70736 0.0
O42 O 0.58381 0.88148 0.19363 0.0
Cd43 Cd 0.54679 0.87997 0.12858 0.0
Cd44 Cd 0.59989 0.90581 0.05787 0.0
O45 O 0.62732 0.89095 0.13555 0.0
O46 O 0.51518 0.85576 0.18326 0.0
O47 O 0.53657 0.83535 0.09498 0.0
C48 C 0.51994 0.83104 0.14694 0.0
C49 C 0.61635 0.89843 0.95089 0.0
C50 C 0.61426 0.88383 0.18904 0.0
C51 C 0.5421 0.94896 0.08669 0.0
O52 O 0.57173 0.94631 0.0715 0.0
O53 O 0.52602 0.9242 0.10429 0.0
O54 O 0.6304 0.91901 0.98813 0.0
O55 O 0.59397 0.88062 0.97575 0.0
O56 O 0.15098 0.44986 0.92893 0.0
Cd57 Cd 0.15133 0.48752 0.99218 0.0
Cd58 Cd 0.12427 0.43381 0.06362 0.0
O59 O 0.14023 0.40651 0.98662 0.0
O60 O 0.17521 0.51877 0.93598 0.0
O61 O 0.19585 0.49891 0.02542 0.0
C62 C 0.20003 0.51481 0.97252 0.0
C63 C 0.12931 0.41614 0.17067 0.0
C64 C 0.14863 0.41948 0.93376 0.0
C65 C 0.08152 0.49174 0.031 0.0
O66 O 0.08414 0.4623 0.04745 0.0
O67 O 0.10642 0.50781 1.0139 0.0
O68 O 0.10928 0.40285 0.13121 0.0
O69 O 0.14782 0.43859 0.14825 0.0
O70 O 0.58498 0.6496 0.18118 0.0
Cd71 Cd 0.54801 0.64983 0.24635 0.0
Cd72 Cd 0.60129 0.62655 0.31766 0.0
O73 O 0.62853 0.64221 0.24051 0.0
O74 O 0.51587 0.67511 0.19483 0.0
O75 O 0.53802 0.69344 0.28443 0.0
C76 C 0.52074 0.69888 0.23368 0.0
C77 C 0.61751 0.63414 0.4248 0.0
C78 C 0.61547 0.64851 0.18657 0.0
C79 C 0.54553 0.58086 0.28687 0.0
O80 O 0.57483 0.58499 0.30327 0.0
O81 O 0.52834 0.60486 0.26928 0.0
O82 O 0.63215 0.61411 0.38741 0.0
O83 O 0.59459 0.6513 0.40007 0.0
O84 O 0.38392 0.08715 0.44605 0.0
Cd85 Cd 0.3833 0.04816 0.50608 0.0
Cd86 Cd 0.40832 0.10132 0.5831 0.0
O87 O 0.39331 0.12964 0.50728 0.0
O88 O 0.36 0.01782 0.44674 0.0
O89 O 0.33877 0.03549 0.53739 0.0
C90 C 0.33501 0.0206 0.48318 0.0
C91 C 0.40347 0.11932 0.68999 0.0
C92 C 0.38616 0.11745 0.45299 0.0
C93 C 0.45273 0.04491 0.54635 0.0
O94 O 0.44886 0.07367 0.5662 0.0
O95 O 0.42859 0.02828 0.52708 0.0
O96 O 0.42365 0.13221 0.6505 0.0
O97 O 0.38482 0.0969 0.66784 0.0
O98 O 0.94944 0.88164 0.67978 0.0
Cd99 Cd 0.98669 0.88177 0.74443 0.0
Cd100 Cd 0.93271 0.90556 0.81594 0.0
O101 O 0.90583 0.88876 0.73896 0.0
O102 O 0.01862 0.85643 0.69228 0.0
O103 O 0.99698 0.83805 0.78216 0.0
C104 C 1.01391 0.83259 0.731 0.0
C105 C 0.91518 0.90039 0.9231 0.0
C106 C 0.91894 0.88236 0.68514 0.0
C107 C 0.98851 0.95118 0.7834 0.0
O108 O 0.95922 0.94695 0.79969 0.0
O109 O 1.00598 0.92717 0.76682 0.0
O110 O 0.90113 0.91961 0.88322 0.0
O111 O 0.93829 0.88261 0.90102 0.0
O112 O 0.65067 0.58267 0.94288 0.0
Cd113 Cd 0.65066 0.54644 0.87616 0.0
Cd114 Cd 0.62746 0.60121 0.80782 0.0
O115 O 0.64459 0.62707 0.88571 0.0
O116 O 0.67514 0.51371 0.92771 0.0
O117 O 0.69483 0.53652 0.84015 0.0
C118 C 0.6996 0.51911 0.89095 0.0
C119 C 0.63333 0.61917 0.70135 0.0
C120 C 0.65079 0.61319 0.93883 0.0
C121 C 0.58144 0.54542 0.83587 0.0
O122 O 0.58573 0.57502 0.82238 0.0
O123 O 0.60542 0.52759 0.85107 0.0
O124 O 0.61417 0.63334 0.74116 0.0
O125 O 0.65073 0.59573 0.72329 0.0
O126 O 0.45501 0.14338 0.20863 0.0
Cd127 Cd 0.48667 0.14683 0.13391 0.0
Cd128 Cd 0.43336 0.12691 0.0731 0.0
O129 O 0.40995 0.14608 0.15231 0.0
O130 O 0.51958 0.17736 0.16942 0.0
O131 O 0.48386 0.19043 0.09401 0.0
C132 C 0.50513 0.19937 0.13616 0.0
C133 C 0.41756 0.13577 0.96649 0.0
C134 C 0.42477 0.14809 0.20581 0.0
C135 C 0.48762 0.07936 0.09146 0.0
O136 O 0.45737 0.08375 0.08593 0.0
O137 O 0.50618 0.10347 0.10116 0.0
O138 O 0.40103 0.11739 1.00426 0.0
O139 O 0.44201 0.1509 0.99088 0.0
O140 O 0.88264 0.94768 0.44319 0.0
Cd141 Cd 0.88307 0.98512 0.37933 0.0
Cd142 Cd 0.90688 0.93119 0.30793 0.0
O143 O 0.89011 0.90402 0.38441 0.0
O144 O 0.85923 0.01702 0.43406 0.0
O145 O 0.83884 0.99653 0.34483 0.0
C146 C 0.83453 1.01284 0.39722 0.0
C147 C 0.89986 0.91572 0.20008 0.0
C148 C 0.88317 0.91723 0.43787 0.0
C149 C 0.95264 0.98673 0.34057 0.0
O150 O 0.94846 0.95745 0.32431 0.0
O151 O 0.92857 1.00416 0.357 0.0
O152 O 0.91953 0.90067 0.23768 0.0
O153 O 0.88274 0.93861 0.22493 0.0
O154 O 0.08215 0.38307 0.69008 0.0
Cd155 Cd 0.04546 0.38228 0.62421 0.0
Cd156 Cd 0.09864 0.40807 0.55514 0.0
O157 O 0.12585 0.39207 0.63229 0.0
O158 O 1.01366 0.35646 0.67575 0.0
O159 O 0.03618 0.33826 0.58661 0.0
C160 C 0.01897 0.33264 0.63732 0.0
C161 C 0.11437 0.40086 0.44761 0.0
C162 C 0.11264 0.3849 0.68562 0.0
C163 C 0.04152 0.45178 0.58485 0.0
O164 O 0.07122 0.44897 0.57035 0.0
O165 O 0.02504 0.42698 0.6009 0.0
O166 O 0.12905 0.42097 0.48492 0.0
O167 O 0.09175 0.3834 0.47265 0.0
O168 O 0.6522 0.94959 0.43348 0.0
Cd169 Cd 0.65276 0.98626 0.49912 0.0
Cd170 Cd 0.62632 0.9323 0.5681 0.0
O171 O 0.64217 0.90573 0.49009 0.0
O172 O 0.67822 0.01802 0.44685 0.0
O173 O 0.69683 0.99601 0.53622 0.0
C174 C 0.7022 1.01303 0.48516 0.0
C175 C 0.63188 0.91397 0.67446 0.0
C176 C 0.65013 0.91915 0.43743 0.0
C177 C 0.58319 0.99024 0.53925 0.0
O178 O 0.5859 0.96057 0.55389 0.0
O179 O 0.60801 1.00653 0.52253 0.0
O180 O 0.61186 0.90074 0.63492 0.0
O181 O 0.65018 0.93669 0.65238 0.0
O182 O 0.08468 0.15154 0.68388 0.0
Cd183 Cd 0.04656 0.1518 0.74604 0.0
Cd184 Cd 0.10034 0.12487 0.81924 0.0
O185 O 0.12784 0.1407 0.74233 0.0
O186 O 1.01559 0.17566 0.68894 0.0
O187 O 0.03483 0.19624 0.77899 0.0
C188 C 0.01924 0.20042 0.72568 0.0
C189 C 0.11814 0.12961 0.92644 0.0
C190 C 0.11508 0.14911 0.68923 0.0
C191 C 0.0424 0.08202 0.7855 0.0
O192 O 0.07175 0.08482 0.80287 0.0
O193 O 0.02635 0.10676 0.76753 0.0
O194 O 0.13131 0.10966 0.88682 0.0
O195 O 0.09574 0.14823 0.90413 0.0
O196 O 0.88138 0.58466 0.92232 0.0
Cd197 Cd 0.88154 0.54776 0.98761 0.0
Cd198 Cd 0.90521 0.6019 0.0585 0.0
O199 O 0.8885 0.62842 0.98103 0.0
O200 O 0.85627 0.51554 0.93601 0.0
O201 O 0.83792 0.53737 0.02578 0.0
C202 C 0.83249 0.52018 0.97494 0.0
C203 C 0.8999 0.61972 0.16544 0.0
C204 C 0.88213 0.61515 0.92731 0.0
C205 C 0.95088 0.54608 0.02727 0.0
O206 O 0.94668 0.57541 0.04306 0.0
O207 O 0.92686 0.5286 1.01062 0.0
O208 O 0.91915 0.63369 0.12552 0.0
O209 O 0.88212 0.59654 0.14346 0.0
O210 O 0.45288 0.38693 0.16639 0.0
Cd211 Cd 0.48529 0.38297 0.23982 0.0
Cd212 Cd 0.43294 0.40675 0.302 0.0
O213 O 0.40794 0.38925 0.22303 0.0
O214 O 0.51718 0.35194 0.20236 0.0
O215 O 0.48292 0.33947 0.28054 0.0
C216 C 0.50328 0.33015 0.23706 0.0
C217 C 0.41672 0.39868 0.40866 0.0
C218 C 0.42235 0.38511 0.16963 0.0
C219 C 0.49007 0.45082 0.28201 0.0
O220 O 0.45967 0.44836 0.28916 0.0
O221 O 0.50689 0.42568 0.27064 0.0
O222 O 0.40142 0.41818 0.37106 0.0
O223 O 0.44013 0.38212 0.38413 0.0
C224 C 0.27605 1.00966 0.50162 0.0
C225 C 0.30214 1.01242 0.45865 0.0
C226 C 0.24397 1.00897 0.47934 0.0
C227 C 0.23659 1.01182 0.41323 0.0
H228 H 0.28033 1.00954 0.55309 0.0
H229 H 0.2248 1.00852 0.51478 0.0
S230 S 0.29605 1.01614 0.2801 0.0
N231 N 0.31837 1.0148 0.34599 0.0
N232 N 0.25819 1.01451 0.30473 0.0
C233 C 0.26246 1.01257 0.36951 0.0
C234 C 0.29517 1.01259 0.39205 0.0
C235 C 0.0232 0.79155 0.64446 0.0
C236 C 0.02196 0.79907 0.71069 0.0
C237 C 0.0228 0.75943 0.62268 0.0
C238 C 0.02191 0.73344 0.66618 0.0
H239 H 0.02212 0.8106 0.60883 0.0
H240 H 0.02158 0.755 0.57131 0.0
S241 S 0.02324 0.74007 0.84479 0.0
N242 N 0.023 0.77783 0.81956 0.0
N243 N 0.02329 0.71758 0.77915 0.0
C244 C 0.02344 0.74063 0.73262 0.0
C245 C 0.02316 0.77338 0.75472 0.0
C246 C 0.29141 0.52278 0.96958 0.0
C247 C 0.29854 0.52198 0.90317 0.0
C248 C 0.25938 0.52276 0.99197 0.0
C249 C 0.23313 0.52268 0.94894 0.0
H250 H 0.31065 0.52108 1.0048 0.0
H251 H 0.25521 0.52118 0.04337 0.0
S252 S 0.2388 0.52556 0.77028 0.0
N253 N 0.27673 0.52442 0.79477 0.0
N254 N 0.21665 0.52538 0.83635 0.0
C255 C 0.23998 0.52469 0.88243 0.0
C256 C 0.27262 0.52405 0.85969 0.0
C257 C 0.51081 0.77208 0.12624 0.0
C258 C 0.51202 0.79795 0.16997 0.0
C259 C 0.51057 0.73994 0.14777 0.0
C260 C 0.51239 0.73235 0.2139 0.0
H261 H 0.51161 0.77663 0.07489 0.0
H262 H 0.51138 0.72096 0.11196 0.0
S263 S 0.51251 0.7911 0.34852 0.0
N264 N 0.51177 0.81368 0.28304 0.0
N265 N 0.51241 0.75338 0.32299 0.0
C266 C 0.51156 0.75794 0.2582 0.0
C267 C 0.51107 0.79069 0.23637 0.0
C268 C 0.75866 0.51144 0.86828 0.0
C269 C 0.73299 0.51111 0.91259 0.0
C270 C 0.79098 0.51134 0.8891 0.0
C271 C 0.79897 0.51175 0.95515 0.0
H272 H 0.75378 0.51339 0.81716 0.0
H273 H 0.80975 0.51338 0.85302 0.0
S274 S 0.74105 0.50717 0.09081 0.0
N275 N 0.71802 0.50765 0.02586 0.0
N276 N 0.77864 0.50862 0.06451 0.0
C277 C 0.77365 0.50934 0.99983 0.0
C278 C 0.74073 0.50869 0.97868 0.0
C279 C 0.53352 0.28252 0.1914 0.0
C280 C 0.50496 0.2958 0.21717 0.0
C281 C 0.53388 0.25121 0.16466 0.0
C282 C 0.50531 0.23299 0.15987 0.0
H283 H 0.55567 0.29644 0.19185 0.0
H284 H 0.5564 0.24145 0.14673 0.0
S285 S 0.42428 0.25665 0.21921 0.0
N286 N 0.44761 0.28773 0.23679 0.0
N287 N 0.44805 0.23005 0.18394 0.0
C288 C 0.47672 0.24606 0.18511 0.0
C289 C 0.47658 0.27718 0.21433 0.0
C290 C 0.77531 0.02104 0.37648 0.0
C291 C 0.80136 0.02094 0.42004 0.0
C292 C 0.74317 0.0214 0.39823 0.0
C293 C 0.73571 0.02091 0.4645 0.0
H294 H 0.77973 0.01924 0.32519 0.0
H295 H 0.72408 0.01969 0.36267 0.0
S296 S 0.79477 0.02423 0.59856 0.0
N297 N 0.81727 0.02374 0.53295 0.0
N298 N 0.75696 0.02335 0.5733 0.0
C299 C 0.76141 0.02282 0.50848 0.0
C300 C 0.79418 0.02315 0.4864 0.0
C301 C 1.00962 0.29159 0.72374 0.0
C302 C 1.01116 0.29905 0.65752 0.0
C303 C 1.01005 0.25949 0.7456 0.0
C304 C 1.01125 0.23348 0.70216 0.0
H305 H 1.0104 0.31067 0.75935 0.0
H306 H 1.01098 0.2551 0.79699 0.0
S307 S 1.01091 0.23997 0.52351 0.0
N308 N 1.01085 0.27774 0.54868 0.0
N309 N 1.0106 0.21752 0.5892 0.0
C310 C 1.01009 0.24061 0.63567 0.0
C311 C 1.01035 0.27333 0.61352 0.0
C312 C 0.02293 0.04628 0.33773 0.0
C313 C 0.0505 0.02628 0.34117 0.0
C314 C 0.9915 0.03346 0.33821 0.0
C315 C 0.98616 1.00001 0.34122 0.0
H316 H 0.02553 0.07224 0.33512 0.0
H317 H 0.97125 0.04993 0.33545 0.0
S318 S 0.04983 0.93694 0.35225 0.0
N319 N 0.0701 0.97118 0.34884 0.0
N320 N 1.01131 0.94702 0.3491 0.0
C321 C 1.01349 0.97968 0.34483 0.0
C322 C 0.0455 0.99278 0.34502 0.0
C323 C 0.03425 0.54359 0.58615 0.0
C324 C 1.00075 0.54899 0.58356 0.0
C325 C 0.04701 0.51218 0.5861 0.0
C326 C 0.02686 0.48468 0.58443 0.0
H327 H 0.05085 0.56378 0.58765 0.0
H328 H 0.07301 0.50951 0.58801 0.0
S329 S 0.93732 0.48533 0.57863 0.0
N330 N 0.94753 0.52381 0.57989 0.0
N331 N 0.97161 0.46509 0.58052 0.0
C332 C 0.99332 0.48968 0.58245 0.0
C333 C 0.98028 0.52167 0.58176 0.0
C334 C 0.51113 0.48628 0.82313 0.0
C335 C 0.48357 0.50619 0.82855 0.0
C336 C 0.54257 0.49896 0.82635 0.0
C337 C 0.54793 0.5322 0.83422 0.0
H338 H 0.5085 0.46047 0.81688 0.0
H339 H 0.56281 0.48258 0.82184 0.0
S340 S 0.48434 0.59492 0.85225 0.0
N341 N 0.46402 0.56094 0.84341 0.0
N342 N 0.52286 0.58485 0.8488 0.0
C343 C 0.52063 0.55244 0.83985 0.0
C344 C 0.4886 0.53945 0.83725 0.0
C345 C 0.54704 1.00931 0.08122 0.0
C346 C 0.52716 0.98172 0.08617 0.0
C347 C 0.53415 0.04062 0.08277 0.0
C348 C 0.50074 0.04585 0.08864 0.0
H349 H 0.57298 1.00683 0.07699 0.0
H350 H 0.5506 0.06087 0.0793 0.0
S351 S 0.4379 0.98196 0.1022 0.0
N352 N 0.47218 0.96189 0.09661 0.0
N353 N 0.44785 0.02048 0.09902 0.0
C354 C 0.48047 0.01847 0.09291 0.0
C355 C 0.49368 0.98656 0.09187 0.0
C356 C 0.02102 0.48655 0.0333 0.0
C357 C 0.04864 0.50653 0.03004 0.0
C358 C 0.98962 0.49937 0.03167 0.0
C359 C 0.98437 0.53279 0.02763 0.0
H360 H 0.02357 0.46061 0.03664 0.0
H361 H 0.96933 0.48292 0.03436 0.0
S362 S 0.04818 0.59579 1.01662 0.0
N363 N 0.06838 0.56157 1.02144 0.0
N364 N 1.00963 0.58572 1.01902 0.0
C365 C 1.01174 0.5531 0.02419 0.0
C366 C 0.04372 0.53999 0.02517 0.0
C367 C 0.48529 0.51124 0.28507 0.0
C368 C 0.50512 0.48353 0.28466 0.0
C369 C 0.49843 0.54249 0.28568 0.0
C370 C 0.532 0.54749 0.2867 0.0
H371 H 0.45925 0.50891 0.28418 0.0
H372 H 0.48207 0.56286 0.28565 0.0
S373 S 0.59476 0.48327 0.28578 0.0
N374 N 0.56023 0.46338 0.28505 0.0
N375 N 0.58496 0.52185 0.28669 0.0
C376 C 0.55218 0.52001 0.28666 0.0
C377 C 0.53876 0.48817 0.28548 0.0
C378 C 0.49132 0.99801 0.54467 0.0
C379 C 0.48614 0.0315 0.5441 0.0
C380 C 0.5227 0.98511 0.54349 0.0
C381 C 0.55033 1.00508 0.54064 0.0
H382 H 0.471 0.98158 0.54686 0.0
H383 H 0.52521 0.95911 0.54436 0.0
S384 S 0.54998 0.09455 0.53522 0.0
N385 N 0.51145 0.08452 0.53882 0.0
N386 N 0.57013 0.06022 0.5359 0.0
C387 C 0.54547 0.03863 0.53903 0.0
C388 C 0.51352 0.05181 0.541 0.0
C389 C 0.04784 0.02161 0.78866 0.0
C390 C 0.02773 0.04907 0.78463 0.0
C391 C 0.03515 0.99016 0.78742 0.0
C392 C 1.00172 0.9847 0.78305 0.0
H393 H 0.07379 0.02431 0.79237 0.0
H394 H 0.05169 0.96999 0.79076 0.0
S395 S 0.93842 0.04803 0.76977 0.0
N396 N 0.97257 0.06842 0.77474 0.0
N397 N 0.94865 1.00959 0.77308 0.0
C398 C 0.98128 1.01191 0.77873 0.0
C399 C 0.99427 0.04394 0.77928 0.0
C400 C 0.15806 0.1268 0.61905 0.0
C401 C 0.13404 0.15009 0.62917 0.0
C402 C 0.16647 0.1175 0.55645 0.0
C403 C 0.15123 0.13132 0.5023 0.0
H404 H 0.16761 0.11304 0.6591 0.0
H405 H 0.18261 0.09712 0.55068 0.0
S406 S 0.09437 0.20028 0.50421 0.0
N407 N 0.10091 0.19207 0.58094 0.0
N408 N 0.11672 0.17451 0.46312 0.0
C409 C 0.13117 0.15815 0.51196 0.0
C410 C 0.12253 0.16755 0.5757 0.0
C411 C 0.87412 0.62939 0.75017 0.0
C412 C 0.89829 0.65256 0.74015 0.0
C413 C 0.86561 0.62013 0.81276 0.0
C414 C 0.88085 0.63395 0.86693 0.0
H415 H 0.86458 0.61563 0.71006 0.0
H416 H 0.84943 0.59977 0.81854 0.0
S417 S 0.93843 0.70239 0.86516 0.0
N418 N 0.93185 0.69423 0.78841 0.0
N419 N 0.91574 0.67687 0.90619 0.0
C420 C 0.90111 0.66066 0.85731 0.0
C421 C 0.90991 0.66995 0.79361 0.0
C422 C 0.37781 0.40339 0.0985 0.0
C423 C 0.40428 0.38295 0.10876 0.0
C424 C 0.3683 0.41142 0.03581 0.0
C425 C 0.38492 0.3991 0.9819 0.0
H426 H 0.36681 0.41607 0.13849 0.0
H427 H 0.3501 0.42995 0.02972 0.0
S428 S 0.4492 0.33697 0.98472 0.0
N429 N 0.44191 0.34479 0.06133 0.0
N430 N 0.42401 0.35985 0.94327 0.0
C431 C 0.40787 0.37471 0.99189 0.0
C432 C 0.41767 0.36671 0.05568 0.0
C433 C 0.62857 0.8761 0.36627 0.0
C434 C 0.6512 0.90076 0.37667 0.0
C435 C 0.61953 0.86752 0.30358 0.0
C436 C 0.63297 0.88321 0.24963 0.0
H437 H 0.61512 0.86602 0.40621 0.0
H438 H 0.59961 0.85079 0.29759 0.0
S439 S 0.70015 0.94229 0.25222 0.0
N440 N 0.69215 0.93533 0.32887 0.0
N441 N 0.67507 0.9192 0.21087 0.0
C442 C 0.65917 0.90413 0.25954 0.0
C443 C 0.66828 0.91296 0.32337 0.0
C444 C 0.11744 0.36827 0.8001 0.0
C445 C 0.13131 0.38369 0.74625 0.0
C446 C 0.12659 0.3766 0.86286 0.0
C447 C 0.14976 0.40073 0.87344 0.0
H448 H 0.09713 0.35204 0.79395 0.0
H449 H 0.11279 0.36688 0.90269 0.0
S450 S 0.2 0.441 0.74938 0.0
N451 N 0.17442 0.41856 0.70782 0.0
N452 N 0.19168 0.43424 0.82596 0.0
C453 C 0.16728 0.41246 0.82027 0.0
C454 C 0.15805 0.40389 0.75636 0.0
C455 C 0.62142 0.66533 0.07258 0.0
C456 C 0.63445 0.64927 0.12649 0.0
C457 C 0.63036 0.65668 1.00991 0.0
C458 C 0.65237 0.6315 0.99956 0.0
H459 H 0.60183 0.6824 0.0786 0.0
H460 H 0.61719 0.66709 0.96989 0.0
S461 S 0.69989 0.58841 0.12411 0.0
N462 N 0.67548 0.61214 0.1654 0.0
N463 N 0.6922 0.5957 0.04742 0.0
C464 C 0.66903 0.61876 0.05289 0.0
C465 C 0.66011 0.62775 0.11667 0.0
C466 C 0.36922 0.12569 0.33988 0.0
C467 C 0.38674 0.1369 0.39368 0.0
C468 C 0.37919 0.13299 0.27715 0.0
C469 C 0.4071 0.15143 0.26681 0.0
H470 H 0.34988 0.10836 0.34617 0.0
H471 H 0.36725 0.12109 0.23719 0.0
S472 S 0.45574 0.19379 0.39071 0.0
N473 N 0.42878 0.17306 0.43221 0.0
N474 N 0.44779 0.18648 0.31414 0.0
C475 C 0.42181 0.16663 0.31982 0.0
C476 C 0.41142 0.15952 0.3836 0.0
C477 C 0.91345 0.86536 0.57105 0.0
C478 C 0.89994 0.88102 0.62497 0.0
C479 C 0.90433 0.87383 0.50833 0.0
C480 C 0.88162 0.89838 0.49795 0.0
H481 H 0.93353 0.84887 0.57711 0.0
H482 H 0.9179 0.86392 0.46839 0.0
S483 S 0.83259 0.93978 0.62236 0.0
N484 N 0.8577 0.91678 0.66373 0.0
N485 N 0.84059 0.9328 0.54571 0.0
C486 C 0.86445 0.91046 0.55123 0.0
C487 C 0.8736 0.9017 0.61506 0.0
C488 C 0.10787 0.14706 0.04033 0.0
C489 C 0.12627 0.12893 0.9964 0.0
C490 C 0.11172 0.14332 0.10709 0.0
C491 C 0.13415 0.12126 0.13296 0.0
H492 H 0.08936 0.16341 0.02322 0.0
H493 H 0.09601 0.157 0.13855 0.0
S494 S 0.19124 0.07082 0.0389 0.0
N495 N 0.17005 0.09023 0.98383 0.0
N496 N 0.17717 0.0832 0.10901 0.0
C497 C 0.15406 0.10436 0.08965 0.0
C498 C 0.15016 0.10818 1.02155 0.0
C499 C 0.88675 0.61289 0.34612 0.0
C500 C 0.90872 0.63547 0.37188 0.0
C501 C 0.88281 0.60913 0.27939 0.0
C502 C 0.90063 0.6278 0.23538 0.0
H503 H 0.8733 0.59699 0.37763 0.0
H504 H 0.86657 0.59049 0.26235 0.0
S505 S 0.95837 0.69321 0.27766 0.0
N506 N 0.94635 0.67888 0.34782 0.0
N507 N 0.93893 0.67196 0.22267 0.0
C508 C 0.92126 0.65184 0.26045 0.0
C509 C 0.92531 0.65563 0.32852 0.0
C510 C 0.38412 0.42463 0.57161 0.0
C511 C 0.4029 0.4068 0.61544 0.0
C512 C 0.38747 0.42047 0.50488 0.0
C513 C 0.40977 0.39831 0.47902 0.0
H514 H 0.36762 0.44299 0.58872 0.0
H515 H 0.37338 0.43584 0.47342 0.0
S516 S 0.46156 0.34238 0.57301 0.0
N517 N 0.44223 0.3636 0.62808 0.0
N518 N 0.44855 0.35592 0.50291 0.0
C519 C 0.4272 0.37883 0.5223 0.0
C520 C 0.42377 0.38304 0.59036 0.0
C521 C 0.6495 0.92419 0.78821 0.0
C522 C 0.63145 0.90566 0.74425 0.0
C523 C 0.64569 0.9204 0.85492 0.0
C524 C 0.62365 0.89793 0.88067 0.0
H525 H 0.66576 0.94279 0.77116 0.0
H526 H 0.65926 0.93625 0.88641 0.0
S527 S 0.57362 0.8404 0.78649 0.0
N528 N 0.59301 0.86162 0.73149 0.0
N529 N 0.58584 0.85463 0.85665 0.0
C530 C 0.60693 0.87782 0.83734 0.0
C531 C 0.61083 0.88166 0.76929 0.0
C532 C 0.14335 0.42285 0.35114 0.0
C533 C 0.12131 0.40045 0.3772 0.0
C534 C 0.14699 0.42659 0.28437 0.0
C535 C 0.12878 0.40808 0.24062 0.0
H536 H 0.15707 0.43864 0.38246 0.0
H537 H 0.16331 0.44509 0.2671 0.0
S538 S 0.07078 0.34309 0.28366 0.0
N539 N 0.08324 0.35732 0.35365 0.0
N540 N 0.0901 0.36422 0.2284 0.0
C541 C 0.10809 0.38421 0.26595 0.0
C542 C 0.10436 0.38043 0.33408 0.0
C543 C 0.65063 0.60852 0.58766 0.0
C544 C 0.63282 0.62729 0.63148 0.0
C545 C 0.64675 0.61217 0.52093 0.0
C546 C 0.62483 0.63471 0.49503 0.0
H547 H 0.66678 0.58986 0.60485 0.0
H548 H 0.66013 0.59616 0.48957 0.0
S549 S 0.57539 0.69279 0.58871 0.0
N550 N 0.59472 0.6716 0.64388 0.0
N551 N 0.58738 0.67829 0.51867 0.0
C552 C 0.60833 0.65502 0.53818 0.0
C553 C 0.61233 0.65136 0.60626 0.0
C554 C 0.38451 0.11059 0.80332 0.0
C555 C 0.40385 0.12789 0.75965 0.0
C556 C 0.38784 0.11473 0.87007 0.0
C557 C 0.41072 0.1363 0.8961 0.0
H558 H 0.36751 0.09268 0.78608 0.0
H559 H 0.37327 0.09977 0.90142 0.0
S560 S 0.4643 0.19069 0.80256 0.0
N561 N 0.44445 0.16998 0.74733 0.0
N562 N 0.45076 0.17757 0.87255 0.0
C563 C 0.4288 0.15524 0.85297 0.0
C564 C 0.42535 0.15109 0.78489 0.0
C565 C 0.92198 0.88676 0.1037 0.0
C566 C 0.89957 0.90879 0.12964 0.0
C567 C 0.92573 0.88301 0.03694 0.0
C568 C 0.90718 0.90108 0.99308 0.0
H569 H 0.93778 0.8731 0.1351 0.0
H570 H 0.94423 0.86669 1.01976 0.0
S571 S 0.84225 0.95916 0.03583 0.0
N572 N 0.85648 0.94681 0.10589 0.0
N573 N 0.86335 0.93974 0.98068 0.0
C574 C 0.88332 0.92181 1.01832 0.0
C575 C 0.87956 0.92566 0.08642 0.0
loop_
_geom_bond_atom_site_label_1
_geom_bond_atom_site_label_2
_geom_bond_distance
_geom_bond_site_symmetry_2
_ccdc_geom_bond_type
O0 Cd1 2.223 . S
O0 C8 1.315 . S
Cd1 O0 2.223 . S
Cd1 O4 2.297 . S
Cd1 O5 2.439 . S
Cd1 O11 2.240 . S
Cd2 O3 2.240 . S
Cd2 O10 2.223 . S
Cd2 O12 2.297 . S
Cd2 O13 2.439 . S
O3 Cd2 2.240 . S
O3 C8 1.279 . S
O4 Cd1 2.297 . S
O4 C6 1.247 . S
O5 Cd1 2.439 . S
O5 C6 1.208 . S
C6 O4 1.247 . S
C6 O5 1.208 . S
C7 O12 1.247 . S
C7 O13 1.208 . S
C8 O0 1.315 . S
C8 O3 1.279 . S
C9 O10 1.315 . S
C9 O11 1.279 . S
O10 Cd2 2.223 . S
O10 C9 1.315 . S
O11 Cd1 2.240 . S
O11 C9 1.279 . S
O12 Cd2 2.297 . S
O12 C7 1.247 . S
O13 Cd2 2.439 . S
O13 C7 1.208 . S
O14 Cd15 2.223 . S
O14 C22 1.315 . S
Cd15 O14 2.223 . S
Cd15 O18 2.297 . S
Cd15 O19 2.439 . S
Cd15 O25 2.240 . S
Cd16 O17 2.240 . S
Cd16 O24 2.223 . S
Cd16 O26 2.297 . S
Cd16 O27 2.439 . S
O17 Cd16 2.240 . S
O17 C22 1.279 . S
O18 Cd15 2.297 . S
O18 C20 1.247 . S
O19 Cd15 2.439 . S
O19 C20 1.208 . S
C20 O18 1.247 . S
C20 O19 1.208 . S
C21 O26 1.247 . S
C21 O27 1.208 . S
C22 O14 1.315 . S
C22 O17 1.279 . S
C23 O24 1.315 . S
C23 O25 1.279 . S
O24 Cd16 2.223 . S
O24 C23 1.315 . S
O25 Cd15 2.240 . S
O25 C23 1.279 . S
O26 Cd16 2.297 . S
O26 C21 1.247 . S
O27 Cd16 2.439 . S
O27 C21 1.208 . S
O28 Cd29 2.223 . S
O28 C36 1.315 . S
Cd29 O28 2.223 . S
Cd29 O32 2.297 . S
Cd29 O33 2.439 . S
Cd29 O39 2.240 . S
Cd30 O31 2.240 . S
Cd30 O38 2.223 . S
Cd30 O40 2.297 . S
Cd30 O41 2.439 . S
O31 Cd30 2.240 . S
O31 C36 1.279 . S
O32 Cd29 2.297 . S
O32 C34 1.247 . S
O33 Cd29 2.439 . S
O33 C34 1.208 . S
C34 O32 1.247 . S
C34 O33 1.208 . S
C35 O40 1.247 . S
C35 O41 1.208 . S
C36 O28 1.315 . S
C36 O31 1.279 . S
C37 O38 1.315 . S
C37 O39 1.279 . S
O38 Cd30 2.223 . S
O38 C37 1.315 . S
O39 Cd29 2.240 . S
O39 C37 1.279 . S
O40 Cd30 2.297 . S
O40 C35 1.247 . S
O41 Cd30 2.439 . S
O41 C35 1.208 . S
O42 Cd43 2.223 . S
O42 C50 1.315 . S
Cd43 O42 2.223 . S
Cd43 O46 2.297 . S
Cd43 O47 2.439 . S
Cd43 O53 2.240 . S
Cd44 O45 2.240 . S
Cd44 O52 2.223 . S
Cd44 O54 2.297 1_554 S
Cd44 O55 2.439 1_554 S
O45 Cd44 2.240 . S
O45 C50 1.279 . S
O46 Cd43 2.297 . S
O46 C48 1.247 . S
O47 Cd43 2.439 . S
O47 C48 1.208 . S
C48 O46 1.247 . S
C48 O47 1.208 . S
C49 O54 1.247 . S
C49 O55 1.208 . S
C50 O42 1.315 . S
C50 O45 1.279 . S
C51 O52 1.315 . S
C51 O53 1.279 . S
O52 Cd44 2.223 . S
O52 C51 1.315 . S
O53 Cd43 2.240 . S
O53 C51 1.279 . S
O54 Cd44 2.297 1_556 S
O54 C49 1.247 . S
O55 Cd44 2.439 1_556 S
O55 C49 1.208 . S
O56 Cd57 2.223 . S
O56 C64 1.315 . S
Cd57 O56 2.223 . S
Cd57 O60 2.297 . S
Cd57 O61 2.439 1_556 S
Cd57 O67 2.240 1_556 S
Cd58 O59 2.240 1_554 S
Cd58 O66 2.223 . S
Cd58 O68 2.297 . S
Cd58 O69 2.439 . S
O59 Cd58 2.240 1_556 S
O59 C64 1.279 . S
O60 Cd57 2.297 . S
O60 C62 1.247 . S
O61 Cd57 2.439 1_554 S
O61 C62 1.208 1_554 S
C62 O60 1.247 . S
C62 O61 1.208 1_556 S
C63 O68 1.247 . S
C63 O69 1.208 . S
C64 O56 1.315 . S
C64 O59 1.279 . S
C65 O66 1.315 . S
C65 O67 1.279 . S
O66 Cd58 2.223 . S
O66 C65 1.315 . S
O67 Cd57 2.240 1_554 S
O67 C65 1.279 . S
O68 Cd58 2.297 . S
O68 C63 1.247 . S
O69 Cd58 2.439 . S
O69 C63 1.208 . S
O70 Cd71 2.223 . S
O70 C78 1.315 . S
Cd71 O70 2.223 . S
Cd71 O74 2.297 . S
Cd71 O75 2.439 . S
Cd71 O81 2.240 . S
Cd72 O73 2.240 . S
Cd72 O80 2.223 . S
Cd72 O82 2.297 . S
Cd72 O83 2.439 . S
O73 Cd72 2.240 . S
O73 C78 1.279 . S
O74 Cd71 2.297 . S
O74 C76 1.247 . S
O75 Cd71 2.439 . S
O75 C76 1.208 . S
C76 O74 1.247 . S
C76 O75 1.208 . S
C77 O82 1.247 . S
C77 O83 1.208 . S
C78 O70 1.315 . S
C78 O73 1.279 . S
C79 O80 1.315 . S
C79 O81 1.279 . S
O80 Cd72 2.223 . S
O80 C79 1.315 . S
O81 Cd71 2.240 . S
O81 C79 1.279 . S
O82 Cd72 2.297 . S
O82 C77 1.247 . S
O83 Cd72 2.439 . S
O83 C77 1.208 . S
O84 Cd85 2.223 . S
O84 C92 1.315 . S
Cd85 O84 2.223 . S
Cd85 O88 2.297 . S
Cd85 O89 2.439 . S
Cd85 O95 2.240 . S
Cd86 O87 2.240 . S
Cd86 O94 2.223 . S
Cd86 O96 2.297 . S
Cd86 O97 2.439 . S
O87 Cd86 2.240 . S
O87 C92 1.279 . S
O88 Cd85 2.297 . S
O88 C90 1.247 . S
O89 Cd85 2.439 . S
O89 C90 1.208 . S
C90 O88 1.247 . S
C90 O89 1.208 . S
C91 O96 1.247 . S
C91 O97 1.208 . S
C92 O84 1.315 . S
C92 O87 1.279 . S
C93 O94 1.315 . S
C93 O95 1.279 . S
O94 Cd86 2.223 . S
O94 C93 1.315 . S
O95 Cd85 2.240 . S
O95 C93 1.279 . S
O96 Cd86 2.297 . S
O96 C91 1.247 . S
O97 Cd86 2.439 . S
O97 C91 1.208 . S
O98 Cd99 2.223 . S
O98 C106 1.315 . S
Cd99 O98 2.223 . S
Cd99 O102 2.297 . S
Cd99 O103 2.439 . S
Cd99 O109 2.240 . S
Cd100 O101 2.240 . S
Cd100 O108 2.223 . S
Cd100 O110 2.297 . S
Cd100 O111 2.439 . S
O101 Cd100 2.240 . S
O101 C106 1.279 . S
O102 Cd99 2.297 . S
O102 C104 1.247 . S
O103 Cd99 2.439 . S
O103 C104 1.208 . S
C104 O102 1.247 . S
C104 O103 1.208 . S
C105 O110 1.247 . S
C105 O111 1.208 . S
C106 O98 1.315 . S
C106 O101 1.279 . S
C107 O108 1.315 . S
C107 O109 1.279 . S
O108 Cd100 2.223 . S
O108 C107 1.315 . S
O109 Cd99 2.240 . S
O109 C107 1.279 . S
O110 Cd100 2.297 . S
O110 C105 1.247 . S
O111 Cd100 2.439 . S
O111 C105 1.208 . S
O112 Cd113 2.223 . S
O112 C120 1.315 . S
Cd113 O112 2.223 . S
Cd113 O116 2.297 . S
Cd113 O117 2.439 . S
Cd113 O123 2.240 . S
Cd114 O115 2.240 . S
Cd114 O122 2.223 . S
Cd114 O124 2.297 . S
Cd114 O125 2.439 . S
O115 Cd114 2.240 . S
O115 C120 1.279 . S
O116 Cd113 2.297 . S
O116 C118 1.247 . S
O117 Cd113 2.439 . S
O117 C118 1.208 . S
C118 O116 1.247 . S
C118 O117 1.208 . S
C119 O124 1.247 . S
C119 O125 1.208 . S
C120 O112 1.315 . S
C120 O115 1.279 . S
C121 O122 1.315 . S
C121 O123 1.279 . S
O122 Cd114 2.223 . S
O122 C121 1.315 . S
O123 Cd113 2.240 . S
O123 C121 1.279 . S
O124 Cd114 2.297 . S
O124 C119 1.247 . S
O125 Cd114 2.439 . S
O125 C119 1.208 . S
O126 Cd127 2.223 . S
O126 C134 1.315 . S
Cd127 O126 2.223 . S
Cd127 O130 2.297 . S
Cd127 O131 2.439 . S
Cd127 O137 2.240 . S
Cd128 O129 2.240 . S
Cd128 O136 2.223 . S
Cd128 O138 2.297 1_554 S
Cd128 O139 2.439 1_554 S
O129 Cd128 2.240 . S
O129 C134 1.279 . S
O130 Cd127 2.297 . S
O130 C132 1.247 . S
O131 Cd127 2.439 . S
O131 C132 1.208 . S
C132 O130 1.247 . S
C132 O131 1.208 . S
C133 O138 1.247 . S
C133 O139 1.208 . S
C134 O126 1.315 . S
C134 O129 1.279 . S
C135 O136 1.315 . S
C135 O137 1.279 . S
O136 Cd128 2.223 . S
O136 C135 1.315 . S
O137 Cd127 2.240 . S
O137 C135 1.279 . S
O138 Cd128 2.297 1_556 S
O138 C133 1.247 . S
O139 Cd128 2.439 1_556 S
O139 C133 1.208 . S
O140 Cd141 2.223 . S
O140 C148 1.315 . S
Cd141 O140 2.223 . S
Cd141 O144 2.297 . S
Cd141 O145 2.439 . S
Cd141 O151 2.240 . S
Cd142 O143 2.240 . S
Cd142 O150 2.223 . S
Cd142 O152 2.297 . S
Cd142 O153 2.439 . S
O143 Cd142 2.240 . S
O143 C148 1.279 . S
O144 Cd141 2.297 . S
O144 C146 1.247 . S
O145 Cd141 2.439 . S
O145 C146 1.208 . S
C146 O144 1.247 . S
C146 O145 1.208 . S
C147 O152 1.247 . S
C147 O153 1.208 . S
C148 O140 1.315 . S
C148 O143 1.279 . S
C149 O150 1.315 . S
C149 O151 1.279 . S
O150 Cd142 2.223 . S
O150 C149 1.315 . S
O151 Cd141 2.240 . S
O151 C149 1.279 . S
O152 Cd142 2.297 . S
O152 C147 1.247 . S
O153 Cd142 2.439 . S
O153 C147 1.208 . S
O154 Cd155 2.223 . S
O154 C162 1.315 . S
Cd155 O154 2.223 . S
Cd155 O158 2.297 . S
Cd155 O159 2.439 . S
Cd155 O165 2.240 . S
Cd156 O157 2.240 . S
Cd156 O164 2.223 . S
Cd156 O166 2.297 . S
Cd156 O167 2.439 . S
O157 Cd156 2.240 . S
O157 C162 1.279 . S
O158 Cd155 2.297 . S
O158 C160 1.247 . S
O159 Cd155 2.439 . S
O159 C160 1.208 . S
C160 O158 1.247 . S
C160 O159 1.208 . S
C161 O166 1.247 . S
C161 O167 1.208 . S
C162 O154 1.315 . S
C162 O157 1.279 . S
C163 O164 1.315 . S
C163 O165 1.279 . S
O164 Cd156 2.223 . S
O164 C163 1.315 . S
O165 Cd155 2.240 . S
O165 C163 1.279 . S
O166 Cd156 2.297 . S
O166 C161 1.247 . S
O167 Cd156 2.439 . S
O167 C161 1.208 . S
O168 Cd169 2.223 . S
O168 C176 1.315 . S
Cd169 O168 2.223 . S
Cd169 O172 2.297 . S
Cd169 O173 2.439 . S
Cd169 O179 2.240 . S
Cd170 O171 2.240 . S
Cd170 O178 2.223 . S
Cd170 O180 2.297 . S
Cd170 O181 2.439 . S
O171 Cd170 2.240 . S
O171 C176 1.279 . S
O172 Cd169 2.297 . S
O172 C174 1.247 . S
O173 Cd169 2.439 . S
O173 C174 1.208 . S
C174 O172 1.247 . S
C174 O173 1.208 . S
C175 O180 1.247 . S
C175 O181 1.208 . S
C176 O168 1.315 . S
C176 O171 1.279 . S
C177 O178 1.315 . S
C177 O179 1.279 . S
O178 Cd170 2.223 . S
O178 C177 1.315 . S
O179 Cd169 2.240 . S
O179 C177 1.279 . S
O180 Cd170 2.297 . S
O180 C175 1.247 . S
O181 Cd170 2.439 . S
O181 C175 1.208 . S
O182 Cd183 2.223 . S
O182 C190 1.315 . S
Cd183 O182 2.223 . S
Cd183 O186 2.297 . S
Cd183 O187 2.439 . S
Cd183 O193 2.240 . S
Cd184 O185 2.240 . S
Cd184 O192 2.223 . S
Cd184 O194 2.297 . S
Cd184 O195 2.439 . S
O185 Cd184 2.240 . S
O185 C190 1.279 . S
O186 Cd183 2.297 . S
O186 C188 1.247 . S
O187 Cd183 2.439 . S
O187 C188 1.208 . S
C188 O186 1.247 . S
C188 O187 1.208 . S
C189 O194 1.247 . S
C189 O195 1.208 . S
C190 O182 1.315 . S
C190 O185 1.279 . S
C191 O192 1.315 . S
C191 O193 1.279 . S
O192 Cd184 2.223 . S
O192 C191 1.315 . S
O193 Cd183 2.240 . S
O193 C191 1.279 . S
O194 Cd184 2.297 . S
O194 C189 1.247 . S
O195 Cd184 2.439 . S
O195 C189 1.208 . S
O196 Cd197 2.223 . S
O196 C204 1.315 . S
Cd197 O196 2.223 . S
Cd197 O200 2.297 . S
Cd197 O201 2.439 1_556 S
Cd197 O207 2.240 1_556 S
Cd198 O199 2.240 1_554 S
Cd198 O206 2.223 . S
Cd198 O208 2.297 . S
Cd198 O209 2.439 . S
O199 Cd198 2.240 1_556 S
O199 C204 1.279 . S
O200 Cd197 2.297 . S
O200 C202 1.247 . S
O201 Cd197 2.439 1_554 S
O201 C202 1.208 1_554 S
C202 O200 1.247 . S
C202 O201 1.208 1_556 S
C203 O208 1.247 . S
C203 O209 1.208 . S
C204 O196 1.315 . S
C204 O199 1.279 . S
C205 O206 1.315 . S
C205 O207 1.279 . S
O206 Cd198 2.223 . S
O206 C205 1.315 . S
O207 Cd197 2.240 1_554 S
O207 C205 1.279 . S
O208 Cd198 2.297 . S
O208 C203 1.247 . S
O209 Cd198 2.439 . S
O209 C203 1.208 . S
O210 Cd211 2.223 . S
O210 C218 1.315 . S
Cd211 O210 2.223 . S
Cd211 O214 2.297 . S
Cd211 O215 2.439 . S
Cd211 O221 2.240 . S
Cd212 O213 2.240 . S
Cd212 O220 2.223 . S
Cd212 O222 2.297 . S
Cd212 O223 2.439 . S
O213 Cd212 2.240 . S
O213 C218 1.279 . S
O214 Cd211 2.297 . S
O214 C216 1.247 . S
O215 Cd211 2.439 . S
O215 C216 1.208 . S
C216 O214 1.247 . S
C216 O215 1.208 . S
C217 O222 1.247 . S
C217 O223 1.208 . S
C218 O210 1.315 . S
C218 O213 1.279 . S
C219 O220 1.315 . S
C219 O221 1.279 . S
O220 Cd212 2.223 . S
O220 C219 1.315 . S
O221 Cd211 2.240 . S
O221 C219 1.279 . S
O222 Cd212 2.297 . S
O222 C217 1.247 . S
O223 Cd212 2.439 . S
O223 C217 1.208 . S
C224 C225 1.369 . S
C224 C226 1.419 . S
C224 H228 0.930 . S
C225 C224 1.369 . S
C225 C234 1.429 . S
C226 C224 1.419 . S
C226 C227 1.363 . S
C226 H229 0.929 . S
C227 C226 1.363 . S
C227 C233 1.428 . S
H228 C224 0.930 . S
H229 C226 0.929 . S
S230 N231 1.613 . S
S230 N232 1.610 . S
N231 S230 1.613 . S
N231 C234 1.350 . S
N232 S230 1.610 . S
N232 C233 1.351 . S
C233 C227 1.428 . S
C233 N232 1.351 . S
C233 C234 1.434 . S
C234 C225 1.429 . S
C234 N231 1.350 . S
C234 C233 1.434 . S
C235 C236 1.369 . S
C235 C237 1.419 . S
C235 H239 0.930 . S
C236 C235 1.369 . S
C236 C245 1.429 . S
C237 C235 1.419 . S
C237 C238 1.363 . S
C237 H240 0.929 . S
C238 C237 1.363 . S
C238 C244 1.428 . S
H239 C235 0.930 . S
H240 C237 0.929 . S
S241 N242 1.613 1_455 S
S241 N243 1.610 1_455 S
N242 S241 1.613 1_655 S
N242 C245 1.350 . S
N243 S241 1.610 1_655 S
N243 C244 1.351 . S
C244 C238 1.428 . S
C244 N243 1.351 . S
C244 C245 1.434 . S
C245 C236 1.429 . S
C245 N242 1.350 . S
C245 C244 1.434 . S
C246 C247 1.369 . S
C246 C248 1.419 . S
C246 H250 0.930 . S
C247 C246 1.369 . S
C247 C256 1.429 . S
C248 C246 1.419 . S
C248 C249 1.363 . S
C248 H251 0.929 1_556 S
C249 C248 1.363 . S
C249 C255 1.428 . S
H250 C246 0.930 . S
H251 C248 0.929 1_554 S
S252 N253 1.613 . S
S252 N254 1.610 . S
N253 S252 1.613 . S
N253 C256 1.350 . S
N254 S252 1.610 . S
N254 C255 1.351 . S
C255 C249 1.428 . S
C255 N254 1.351 . S
C255 C256 1.434 . S
C256 C247 1.429 . S
C256 N253 1.350 . S
C256 C255 1.434 . S
C257 C258 1.369 . S
C257 C259 1.419 . S
C257 H261 0.930 . S
C258 C257 1.369 . S
C258 C267 1.429 . S
C259 C257 1.419 . S
C259 C260 1.363 . S
C259 H262 0.929 . S
C260 C259 1.363 . S
C260 C266 1.428 . S
H261 C257 0.930 . S
H262 C259 0.929 . S
S263 N264 1.613 . S
S263 N265 1.610 . S
N264 S263 1.613 . S
N264 C267 1.350 . S
N265 S263 1.610 . S
N265 C266 1.351 . S
C266 C260 1.428 . S
C266 N265 1.351 . S
C266 C267 1.434 . S
C267 C258 1.429 . S
C267 N264 1.350 . S
C267 C266 1.434 . S
C268 C269 1.369 . S
C268 C270 1.419 . S
C268 H272 0.930 . S
C269 C268 1.369 . S
C269 C278 1.429 . S
C270 C268 1.419 . S
C270 C271 1.363 . S
C270 H273 0.929 . S
C271 C270 1.363 . S
C271 C277 1.428 . S
H272 C268 0.930 . S
H273 C270 0.929 . S
S274 N275 1.613 1_554 S
S274 N276 1.610 . S
N275 S274 1.613 1_556 S
N275 C278 1.350 . S
N276 S274 1.610 . S
N276 C277 1.351 1_554 S
C277 C271 1.428 . S
C277 N276 1.351 1_556 S
C277 C278 1.434 . S
C278 C269 1.429 . S
C278 N275 1.350 . S
C278 C277 1.434 . S
C279 C280 1.369 . S
C279 C281 1.419 . S
C279 H283 0.930 . S
C280 C279 1.369 . S
C280 C289 1.429 . S
C281 C279 1.419 . S
C281 C282 1.363 . S
C281 H284 0.929 . S
C282 C281 1.363 . S
C282 C288 1.428 . S
H283 C279 0.930 . S
H284 C281 0.929 . S
S285 N286 1.613 . S
S285 N287 1.610 . S
N286 S285 1.613 . S
N286 C289 1.350 . S
N287 S285 1.610 . S
N287 C288 1.351 . S
C288 C282 1.428 . S
C288 N287 1.351 . S
C288 C289 1.434 . S
C289 C280 1.429 . S
C289 N286 1.350 . S
C289 C288 1.434 . S
C290 C291 1.369 . S
C290 C292 1.419 . S
C290 H294 0.930 . S
C291 C290 1.369 . S
C291 C300 1.429 . S
C292 C290 1.419 . S
C292 C293 1.363 . S
C292 H295 0.929 . S
C293 C292 1.363 . S
C293 C299 1.428 . S
H294 C290 0.930 . S
H295 C292 0.929 . S
S296 N297 1.613 . S
S296 N298 1.610 . S
N297 S296 1.613 . S
N297 C300 1.350 . S
N298 S296 1.610 . S
N298 C299 1.351 . S
C299 C293 1.428 . S
C299 N298 1.351 . S
C299 C300 1.434 . S
C300 C291 1.429 . S
C300 N297 1.350 . S
C300 C299 1.434 . S
C301 C302 1.369 . S
C301 C303 1.419 . S
C301 H305 0.930 . S
C302 C301 1.369 . S
C302 C311 1.429 . S
C303 C301 1.419 . S
C303 C304 1.363 . S
C303 H306 0.929 . S
C304 C303 1.363 . S
C304 C310 1.428 . S
H305 C301 0.930 . S
H306 C303 0.929 . S
S307 N308 1.613 . S
S307 N309 1.610 . S
N308 S307 1.613 . S
N308 C311 1.350 . S
N309 S307 1.610 . S
N309 C310 1.351 . S
C310 C304 1.428 . S
C310 N309 1.351 . S
C310 C311 1.434 . S
C311 C302 1.429 . S
C311 N308 1.350 . S
C311 C310 1.434 . S
C312 C313 1.369 . S
C312 C314 1.419 1_455 S
C312 H316 0.930 . S
C313 C312 1.369 . S
C313 C322 1.429 1_545 S
C314 C312 1.419 1_655 S
C314 C315 1.363 1_545 S
C314 H317 0.929 . S
C315 C314 1.363 1_565 S
C315 C321 1.428 . S
H316 C312 0.930 . S
H317 C314 0.929 . S
S318 N319 1.613 . S
S318 N320 1.610 1_455 S
N319 S318 1.613 . S
N319 C322 1.350 . S
N320 S318 1.610 1_655 S
N320 C321 1.351 . S
C321 C315 1.428 . S
C321 N320 1.351 . S
C321 C322 1.434 1_655 S
C322 C313 1.429 1_565 S
C322 N319 1.350 . S
C322 C321 1.434 1_455 S
C323 C324 1.376 . S
C323 C325 1.412 1_655 S
C323 H327 0.930 . S
C324 C323 1.376 . S
C324 C333 1.429 . S
C325 C323 1.412 1_455 S
C325 C326 1.363 . S
C325 H328 0.929 . S
C326 C325 1.363 . S
C326 C332 1.427 1_455 S
H327 C323 0.930 . S
H328 C325 0.929 . S
S329 N330 1.613 . S
S329 N331 1.610 . S
N330 S329 1.613 . S
N330 C333 1.350 . S
N331 S329 1.610 . S
N331 C332 1.351 . S
C332 C326 1.427 1_655 S
C332 N331 1.351 . S
C332 C333 1.435 . S
C333 C324 1.429 . S
C333 N330 1.350 . S
C333 C332 1.435 . S
C334 C335 1.369 . S
C334 C336 1.419 . S
C334 H338 0.930 . S
C335 C334 1.369 . S
C335 C344 1.429 . S
C336 C334 1.419 . S
C336 C337 1.363 . S
C336 H339 0.929 . S
C337 C336 1.363 . S
C337 C343 1.428 . S
H338 C334 0.930 . S
H339 C336 0.929 . S
S340 N341 1.613 . S
S340 N342 1.610 . S
N341 S340 1.613 . S
N341 C344 1.350 . S
N342 S340 1.610 . S
N342 C343 1.351 . S
C343 C337 1.428 . S
C343 N342 1.351 . S
C343 C344 1.434 . S
C344 C335 1.429 . S
C344 N341 1.350 . S
C344 C343 1.434 . S
C345 C346 1.369 . S
C345 C347 1.419 1_565 S
C345 H349 0.930 . S
C346 C345 1.369 . S
C346 C355 1.429 . S
C347 C345 1.419 1_545 S
C347 C348 1.363 . S
C347 H350 0.929 . S
C348 C347 1.363 . S
C348 C354 1.428 . S
H349 C345 0.930 . S
H350 C347 0.929 . S
S351 N352 1.613 1_556 S
S351 N353 1.610 1_566 S
N352 S351 1.613 1_554 S
N352 C355 1.350 . S
N353 S351 1.610 1_544 S
N353 C354 1.351 . S
C354 C348 1.428 . S
C354 N353 1.351 . S
C354 C355 1.434 1_545 S
C355 C346 1.429 . S
C355 N352 1.350 . S
C355 C354 1.434 1_565 S
C356 C357 1.370 . S
C356 C358 1.419 1_455 S
C356 H360 0.930 . S
C357 C356 1.370 . S
C357 C366 1.428 1_556 S
C358 C356 1.419 1_655 S
C358 C359 1.364 . S
C358 H361 0.929 . S
C359 C358 1.364 . S
C359 C365 1.427 1_556 S
H360 C356 0.930 . S
H361 C358 0.929 . S
S362 N363 1.613 . S
S362 N364 1.610 1_455 S
N363 S362 1.613 . S
N363 C366 1.350 . S
N364 S362 1.610 1_655 S
N364 C365 1.351 . S
C365 C359 1.427 1_554 S
C365 N364 1.351 . S
C365 C366 1.434 1_655 S
C366 C357 1.428 1_554 S
C366 N363 1.350 . S
C366 C365 1.434 1_455 S
C367 C368 1.369 . S
C367 C369 1.419 . S
C367 H371 0.930 . S
C368 C367 1.369 . S
C368 C377 1.429 . S
C369 C367 1.419 . S
C369 C370 1.363 . S
C369 H372 0.929 . S
C370 C369 1.363 . S
C370 C376 1.428 . S
H371 C367 0.930 . S
H372 C369 0.929 . S
S373 N374 1.613 . S
S373 N375 1.610 . S
N374 S373 1.613 . S
N374 C377 1.350 . S
N375 S373 1.610 . S
N375 C376 1.351 . S
C376 C370 1.428 . S
C376 N375 1.351 . S
C376 C377 1.434 . S
C377 C368 1.429 . S
C377 N374 1.350 . S
C377 C376 1.434 . S
C378 C379 1.369 1_565 S
C378 C380 1.419 . S
C378 H382 0.930 . S
C379 C378 1.369 1_545 S
C379 C388 1.429 . S
C380 C378 1.419 . S
C380 C381 1.363 . S
C380 H383 0.929 . S
C381 C380 1.363 . S
C381 C387 1.428 1_565 S
H382 C378 0.930 . S
H383 C380 0.929 . S
S384 N385 1.613 . S
S384 N386 1.610 . S
N385 S384 1.613 . S
N385 C388 1.350 . S
N386 S384 1.610 . S
N386 C387 1.351 . S
C387 C381 1.428 1_545 S
C387 N386 1.351 . S
C387 C388 1.434 . S
C388 C379 1.429 . S
C388 N385 1.350 . S
C388 C387 1.434 . S
C389 C390 1.369 . S
C389 C391 1.419 1_545 S
C389 H393 0.930 . S
C390 C389 1.369 . S
C390 C399 1.429 1_455 S
C391 C389 1.419 1_565 S
C391 C392 1.363 1_455 S
C391 H394 0.929 . S
C392 C391 1.363 1_655 S
C392 C398 1.428 . S
H393 C389 0.930 . S
H394 C391 0.929 . S
S395 N396 1.613 . S
S395 N397 1.610 1_545 S
N396 S395 1.613 . S
N396 C399 1.350 . S
N397 S395 1.610 1_565 S
N397 C398 1.351 . S
C398 C392 1.428 . S
C398 N397 1.351 . S
C398 C399 1.434 1_565 S
C399 C390 1.429 1_655 S
C399 N396 1.350 . S
C399 C398 1.434 1_545 S
C400 C401 1.369 . S
C400 C402 1.419 . S
C400 H404 0.930 . S
C401 C400 1.369 . S
C401 C410 1.429 . S
C402 C400 1.419 . S
C402 C403 1.363 . S
C402 H405 0.929 . S
C403 C402 1.363 . S
C403 C409 1.428 . S
H404 C400 0.930 . S
H405 C402 0.929 . S
S406 N407 1.613 . S
S406 N408 1.610 . S
N407 S406 1.613 . S
N407 C410 1.350 . S
N408 S406 1.610 . S
N408 C409 1.351 . S
C409 C403 1.428 . S
C409 N408 1.351 . S
C409 C410 1.434 . S
C410 C401 1.429 . S
C410 N407 1.350 . S
C410 C409 1.434 . S
C411 C412 1.369 . S
C411 C413 1.419 . S
C411 H415 0.930 . S
C412 C411 1.369 . S
C412 C421 1.429 . S
C413 C411 1.419 . S
C413 C414 1.363 . S
C413 H416 0.929 . S
C414 C413 1.363 . S
C414 C420 1.428 . S
H415 C411 0.930 . S
H416 C413 0.929 . S
S417 N418 1.613 . S
S417 N419 1.610 . S
N418 S417 1.613 . S
N418 C421 1.350 . S
N419 S417 1.610 . S
N419 C420 1.351 . S
C420 C414 1.428 . S
C420 N419 1.351 . S
C420 C421 1.434 . S
C421 C412 1.429 . S
C421 N418 1.350 . S
C421 C420 1.434 . S
C422 C423 1.369 . S
C422 C424 1.419 . S
C422 H426 0.930 . S
C423 C422 1.369 . S
C423 C432 1.429 . S
C424 C422 1.419 . S
C424 C425 1.363 1_554 S
C424 H427 0.929 1_554 S
C425 C424 1.363 1_556 S
C425 C431 1.428 1_556 S
H426 C422 0.930 . S
H427 C424 0.929 1_556 S
S428 N429 1.613 . S
S428 N430 1.610 1_554 S
N429 S428 1.613 . S
N429 C432 1.350 . S
N430 S428 1.610 1_556 S
N430 C431 1.351 1_556 S
C431 C425 1.428 1_554 S
C431 N430 1.351 1_554 S
C431 C432 1.434 . S
C432 C423 1.429 . S
C432 N429 1.350 . S
C432 C431 1.434 . S
C433 C434 1.369 . S
C433 C435 1.419 . S
C433 H437 0.930 . S
C434 C433 1.369 . S
C434 C443 1.429 . S
C435 C433 1.419 . S
C435 C436 1.363 . S
C435 H438 0.929 . S
C436 C435 1.363 . S
C436 C442 1.428 . S
H437 C433 0.930 . S
H438 C435 0.929 . S
S439 N440 1.613 . S
S439 N441 1.610 . S
N440 S439 1.613 . S
N440 C443 1.350 . S
N441 S439 1.610 . S
N441 C442 1.351 . S
C442 C436 1.428 . S
C442 N441 1.351 . S
C442 C443 1.434 . S
C443 C434 1.429 . S
C443 N440 1.350 . S
C443 C442 1.434 . S
C444 C445 1.369 . S
C444 C446 1.419 . S
C444 H448 0.930 . S
C445 C444 1.369 . S
C445 C454 1.429 . S
C446 C444 1.419 . S
C446 C447 1.363 . S
C446 H449 0.929 . S
C447 C446 1.363 . S
C447 C453 1.428 . S
H448 C444 0.930 . S
H449 C446 0.929 . S
S450 N451 1.613 . S
S450 N452 1.610 . S
N451 S450 1.613 . S
N451 C454 1.350 . S
N452 S450 1.610 . S
N452 C453 1.351 . S
C453 C447 1.428 . S
C453 N452 1.351 . S
C453 C454 1.434 . S
C454 C445 1.429 . S
C454 N451 1.350 . S
C454 C453 1.434 . S
C455 C456 1.369 . S
C455 C457 1.419 . S
C455 H459 0.930 . S
C456 C455 1.369 . S
C456 C465 1.429 . S
C457 C455 1.419 . S
C457 C458 1.363 1_554 S
C457 H460 0.929 1_554 S
C458 C457 1.363 1_556 S
C458 C464 1.428 1_556 S
H459 C455 0.930 . S
H460 C457 0.929 1_556 S
S461 N462 1.613 . S
S461 N463 1.610 1_554 S
N462 S461 1.613 . S
N462 C465 1.350 . S
N463 S461 1.610 1_556 S
N463 C464 1.351 1_556 S
C464 C458 1.428 1_554 S
C464 N463 1.351 1_554 S
C464 C465 1.434 . S
C465 C456 1.429 . S
C465 N462 1.350 . S
C465 C464 1.434 . S
C466 C467 1.369 . S
C466 C468 1.419 . S
C466 H470 0.930 . S
C467 C466 1.369 . S
C467 C476 1.429 . S
C468 C466 1.419 . S
C468 C469 1.363 . S
C468 H471 0.929 . S
C469 C468 1.363 . S
C469 C475 1.428 . S
H470 C466 0.930 . S
H471 C468 0.929 . S
S472 N473 1.613 . S
S472 N474 1.610 . S
N473 S472 1.613 . S
N473 C476 1.350 . S
N474 S472 1.610 . S
N474 C475 1.351 . S
C475 C469 1.428 . S
C475 N474 1.351 . S
C475 C476 1.434 . S
C476 C467 1.429 . S
C476 N473 1.350 . S
C476 C475 1.434 . S
C477 C478 1.369 . S
C477 C479 1.419 . S
C477 H481 0.930 . S
C478 C477 1.369 . S
C478 C487 1.429 . S
C479 C477 1.419 . S
C479 C480 1.363 . S
C479 H482 0.929 . S
C480 C479 1.363 . S
C480 C486 1.428 . S
H481 C477 0.930 . S
H482 C479 0.929 . S
S483 N484 1.613 . S
S483 N485 1.610 . S
N484 S483 1.613 . S
N484 C487 1.350 . S
N485 S483 1.610 . S
N485 C486 1.351 . S
C486 C480 1.428 . S
C486 N485 1.351 . S
C486 C487 1.434 . S
C487 C478 1.429 . S
C487 N484 1.350 . S
C487 C486 1.434 . S
C488 C489 1.369 1_554 S
C488 C490 1.419 . S
C488 H492 0.930 1_554 S
C489 C488 1.369 1_556 S
C489 C498 1.429 1_556 S
C490 C488 1.419 . S
C490 C491 1.363 . S
C490 H493 0.929 . S
C491 C490 1.363 . S
C491 C497 1.428 . S
H492 C488 0.930 1_556 S
H493 C490 0.929 . S
S494 N495 1.613 1_554 S
S494 N496 1.610 . S
N495 S494 1.613 1_556 S
N495 C498 1.350 1_556 S
N496 S494 1.610 . S
N496 C497 1.351 . S
C497 C491 1.428 . S
C497 N496 1.351 . S
C497 C498 1.434 . S
C498 C489 1.429 1_554 S
C498 N495 1.350 1_554 S
C498 C497 1.434 . S
C499 C500 1.369 . S
C499 C501 1.419 . S
C499 H503 0.930 . S
C500 C499 1.369 . S
C500 C509 1.429 . S
C501 C499 1.419 . S
C501 C502 1.363 . S
C501 H504 0.929 . S
C502 C501 1.363 . S
C502 C508 1.428 . S
H503 C499 0.930 . S
H504 C501 0.929 . S
S505 N506 1.613 . S
S505 N507 1.610 . S
N506 S505 1.613 . S
N506 C509 1.350 . S
N507 S505 1.610 . S
N507 C508 1.351 . S
C508 C502 1.428 . S
C508 N507 1.351 . S
C508 C509 1.434 . S
C509 C500 1.429 . S
C509 N506 1.350 . S
C509 C508 1.434 . S
C510 C511 1.369 . S
C510 C512 1.419 . S
C510 H514 0.930 . S
C511 C510 1.369 . S
C511 C520 1.429 . S
C512 C510 1.419 . S
C512 C513 1.363 . S
C512 H515 0.929 . S
C513 C512 1.363 . S
C513 C519 1.428 . S
H514 C510 0.930 . S
H515 C512 0.929 . S
S516 N517 1.613 . S
S516 N518 1.610 . S
N517 S516 1.613 . S
N517 C520 1.350 . S
N518 S516 1.610 . S
N518 C519 1.351 . S
C519 C513 1.428 . S
C519 N518 1.351 . S
C519 C520 1.434 . S
C520 C511 1.429 . S
C520 N517 1.350 . S
C520 C519 1.434 . S
C521 C522 1.369 . S
C521 C523 1.419 . S
C521 H525 0.930 . S
C522 C521 1.369 . S
C522 C531 1.429 . S
C523 C521 1.419 . S
C523 C524 1.363 . S
C523 H526 0.929 . S
C524 C523 1.363 . S
C524 C530 1.428 . S
H525 C521 0.930 . S
H526 C523 0.929 . S
S527 N528 1.613 . S
S527 N529 1.610 . S
N528 S527 1.613 . S
N528 C531 1.350 . S
N529 S527 1.610 . S
N529 C530 1.351 . S
C530 C524 1.428 . S
C530 N529 1.351 . S
C530 C531 1.434 . S
C531 C522 1.429 . S
C531 N528 1.350 . S
C531 C530 1.434 . S
C532 C533 1.369 . S
C532 C534 1.419 . S
C532 H536 0.930 . S
C533 C532 1.369 . S
C533 C542 1.429 . S
C534 C532 1.419 . S
C534 C535 1.363 . S
C534 H537 0.929 . S
C535 C534 1.363 . S
C535 C541 1.428 . S
H536 C532 0.930 . S
H537 C534 0.929 . S
S538 N539 1.613 . S
S538 N540 1.610 . S
N539 S538 1.613 . S
N539 C542 1.350 . S
N540 S538 1.610 . S
N540 C541 1.351 . S
C541 C535 1.428 . S
C541 N540 1.351 . S
C541 C542 1.434 . S
C542 C533 1.429 . S
C542 N539 1.350 . S
C542 C541 1.434 . S
C543 C544 1.369 . S
C543 C545 1.419 . S
C543 H547 0.930 . S
C544 C543 1.369 . S
C544 C553 1.429 . S
C545 C543 1.419 . S
C545 C546 1.363 . S
C545 H548 0.929 . S
C546 C545 1.363 . S
C546 C552 1.428 . S
H547 C543 0.930 . S
H548 C545 0.929 . S
S549 N550 1.613 . S
S549 N551 1.610 . S
N550 S549 1.613 . S
N550 C553 1.350 . S
N551 S549 1.610 . S
N551 C552 1.351 . S
C552 C546 1.428 . S
C552 N551 1.351 . S
C552 C553 1.434 . S
C553 C544 1.429 . S
C553 N550 1.350 . S
C553 C552 1.434 . S
C554 C555 1.369 . S
C554 C556 1.419 . S
C554 H558 0.930 . S
C555 C554 1.369 . S
C555 C564 1.429 . S
C556 C554 1.419 . S
C556 C557 1.363 . S
C556 H559 0.929 . S
C557 C556 1.363 . S
C557 C563 1.428 . S
H558 C554 0.930 . S
H559 C556 0.929 . S
S560 N561 1.613 . S
S560 N562 1.610 . S
N561 S560 1.613 . S
N561 C564 1.350 . S
N562 S560 1.610 . S
N562 C563 1.351 . S
C563 C557 1.428 . S
C563 N562 1.351 . S
C563 C564 1.434 . S
C564 C555 1.429 . S
C564 N561 1.350 . S
C564 C563 1.434 . S
C565 C566 1.369 . S
C565 C567 1.419 . S
C565 H569 0.930 . S
C566 C565 1.369 . S
C566 C575 1.429 . S
C567 C565 1.419 . S
C567 C568 1.363 1_554 S
C567 H570 0.929 1_554 S
C568 C567 1.363 1_556 S
C568 C574 1.421 1_556 S
H569 C565 0.930 . S
H570 C567 0.929 1_556 S
S571 N572 1.613 . S
S571 N573 1.610 1_554 S
N572 S571 1.613 . S
N572 C575 1.350 . S
N573 S571 1.610 1_556 S
N573 C574 1.343 1_556 S
C574 C568 1.421 1_554 S
C574 N573 1.343 1_554 S
C574 C575 1.452 . S
C575 C566 1.429 . S
C575 N572 1.350 . S
C575 C574 1.452 . S
C225 C90 1.429 . S
C227 C6 1.435 . S
C236 C104 1.432 . S
C238 C20 1.430 . S
C247 C34 1.435 . S
C249 C62 1.429 . S
C258 C48 1.428 . S
C260 C76 1.434 . S
C269 C118 1.428 . S
C271 C202 1.435 . S
C280 C216 1.436 . S
C282 C132 1.430 . S
C291 C146 1.428 . S
C293 C174 1.435 . S
C302 C160 1.436 . S
C304 C188 1.429 . S
C313 C9 1.375 . S
C315 C149 1.366 . S
C324 C23 1.364 . S
C326 C163 1.369 . S
C335 C37 1.375 . S
C337 C121 1.366 . S
C346 C51 1.370 . S
C348 C135 1.365 . S
C357 C65 1.372 1_556 S
C359 C205 1.364 1_556 S
C368 C219 1.375 . S
C370 C79 1.366 . S
C379 C93 1.365 . S
C381 C177 1.373 . S
C390 C191 1.375 . S
C392 C107 1.365 . S
C401 C190 1.022 . S
C403 C8 1.033 . S
C412 C22 1.022 . S
C414 C204 1.033 . S
C423 C218 1.025 . S
C425 C36 1.031 . S
C434 C176 1.020 . S
C436 C50 1.033 . S
C445 C162 1.034 . S
C447 C64 1.022 . S
C456 C78 1.030 . S
C458 C120 1.025 . S
C467 C92 1.035 . S
C469 C134 1.023 . S
C478 C106 1.035 . S
C480 C148 1.022 . S
C489 C189 1.507 . S
C491 C7 1.510 . S
C500 C21 1.510 . S
C502 C203 1.506 . S
C511 C35 1.507 . S
C513 C217 1.508 . S
C522 C175 1.507 . S
C524 C49 1.508 . S
C533 C161 1.511 . S
C535 C63 1.507 . S
C544 C119 1.508 . S
C546 C77 1.507 . S
C555 C91 1.506 . S
C557 C133 1.510 . S
C566 C147 1.510 . S
C568 C105 1.508 . S
