# Generated by pormake.
# Topology umb, (4)-cn, num edge types: 1
# Building blocks:
#     Node 0, Type 0, BuildingBlock: ESEHIV_clean_sbu_0, # of connection points: 4
#     Node 1, Type 0, BuildingBlock: ESEHIV_clean_sbu_0, # of connection points: 4
#     Node 2, Type 0, BuildingBlock: ESEHIV_clean_sbu_0, # of connection points: 4
#     Node 3, Type 0, BuildingBlock: ESEHIV_clean_sbu_0, # of connection points: 4
#     Node 4, Type 0, BuildingBlock: ESEHIV_clean_sbu_0, # of connection points: 4
#     Node 5, Type 0, BuildingBlock: ESEHIV_clean_sbu_0, # of connection points: 4
#     Node 6, Type 0, BuildingBlock: ESEHIV_clean_sbu_0, # of connection points: 4
#     Node 7, Type 0, BuildingBlock: ESEHIV_clean_sbu_0, # of connection points: 4
#     Node 8, Type 0, BuildingBlock: ESEHIV_clean_sbu_0, # of connection points: 4
#     Node 9, Type 0, BuildingBlock: ESEHIV_clean_sbu_0, # of connection points: 4
#     Node 10, Type 0, BuildingBlock: ESEHIV_clean_sbu_0, # of connection points: 4
#     Node 11, Type 0, BuildingBlock: ESEHIV_clean_sbu_0, # of connection points: 4
#     Edge 12, Type (0, 0), BuildingBlock: EZIPEK_clean_linker_0, # of connection points: 2
#     Edge 13, Type (0, 0), BuildingBlock: EZIPEK_clean_linker_0, # of connection points: 2
#     Edge 14, Type (0, 0), BuildingBlock: EZIPEK_clean_linker_0, # of connection points: 2
#     Edge 15, Type (0, 0), BuildingBlock: EZIPEK_clean_linker_0, # of connection points: 2
#     Edge 16, Type (0, 0), BuildingBlock: EZIPEK_clean_linker_0, # of connection points: 2
#     Edge 17, Type (0, 0), BuildingBlock: EZIPEK_clean_linker_0, # of connection points: 2
#     Edge 18, Type (0, 0), BuildingBlock: EZIPEK_clean_linker_0, # of connection points: 2
#     Edge 19, Type (0, 0), BuildingBlock: EZIPEK_clean_linker_0, # of connection points: 2
#     Edge 20, Type (0, 0), BuildingBlock: EZIPEK_clean_linker_0, # of connection points: 2
#     Edge 21, Type (0, 0), BuildingBlock: EZIPEK_clean_linker_0, # of connection points: 2
#     Edge 22, Type (0, 0), BuildingBlock: EZIPEK_clean_linker_0, # of connection points: 2
#     Edge 23, Type (0, 0), BuildingBlock: EZIPEK_clean_linker_0, # of connection points: 2
#     Edge 24, Type (0, 0), BuildingBlock: EZIPEK_clean_linker_0, # of connection points: 2
#     Edge 25, Type (0, 0), BuildingBlock: EZIPEK_clean_linker_0, # of connection points: 2
#     Edge 26, Type (0, 0), BuildingBlock: EZIPEK_clean_linker_0, # of connection points: 2
#     Edge 27, Type (0, 0), BuildingBlock: EZIPEK_clean_linker_0, # of connection points: 2
#     Edge 28, Type (0, 0), BuildingBlock: EZIPEK_clean_linker_0, # of connection points: 2
#     Edge 29, Type (0, 0), BuildingBlock: EZIPEK_clean_linker_0, # of connection points: 2
#     Edge 30, Type (0, 0), BuildingBlock: EZIPEK_clean_linker_0, # of connection points: 2
#     Edge 31, Type (0, 0), BuildingBlock: EZIPEK_clean_linker_0, # of connection points: 2
#     Edge 32, Type (0, 0), BuildingBlock: EZIPEK_clean_linker_0, # of connection points: 2
#     Edge 33, Type (0, 0), BuildingBlock: EZIPEK_clean_linker_0, # of connection points: 2
#     Edge 34, Type (0, 0), BuildingBlock: EZIPEK_clean_linker_0, # of connection points: 2
#     Edge 35, Type (0, 0), BuildingBlock: EZIPEK_clean_linker_0, # of connection points: 2
# Relax obj value: 0.189
# Max RMSD: 0.170
# Mean RMSD: 0.150
data_MOF--net-umb--node1-ESEHIV_clean_sbu_0--edge1-EZIPEK_clean_linker_0
_symmetry_space_group_name_H-M    P1
_symmetry_Int_Tables_number       1
_symmetry_cell_setting            triclinic
loop_
_symmetry_equiv_pos_as_xyz
'x, y, z'
_cell_length_a     37.921318
_cell_length_b     41.75783
_cell_length_c     29.393527
_cell_angle_alpha  89.86879
_cell_angle_beta   90.018512
_cell_angle_gamma 116.99565
loop_
_atom_site_label
_atom_site_type_symbol
_atom_site_fract_x
_atom_site_fract_y
_atom_site_fract_z
_atom_type_partial_charge
Cu0 Cu 0.5717 0.17407 0.34119 0.0
N1 N 0.623 0.1846 0.32415 0.0
N2 N 0.68856 0.20905 0.32606 0.0
C3 C 0.65616 0.21073 0.34164 0.0
C4 C 0.6758 0.1811 0.29717 0.0
C5 C 0.63499 0.16609 0.29581 0.0
O6 O 0.55907 0.2113 0.31691 0.0
C7 C 0.5856 0.19648 0.43497 0.0
O8 O 0.6033 0.22954 0.41933 0.0
H9 H 0.65674 0.23024 0.36607 0.0
H10 H 0.61542 0.14291 0.27629 0.0
N11 N 0.53934 0.12883 0.31761 0.0
N12 N 0.51968 0.07048 0.30569 0.0
C13 C 0.53649 0.09796 0.3352 0.0
C14 C 0.52325 0.1205 0.27579 0.0
C15 C 0.51109 0.08439 0.26832 0.0
C16 C 0.56815 0.222 0.27593 0.0
O17 O 0.58468 0.20696 0.25007 0.0
H18 H 0.54932 0.09626 0.36748 0.0
H19 H 0.52287 0.13971 0.25134 0.0
O20 O 0.56895 0.17028 0.40753 0.0
H21 H 0.6945 0.17193 0.27934 0.0
H22 H 0.49868 0.06982 0.23718 0.0
Cu23 Cu 0.4196 0.61258 0.66671 0.0
N24 N 0.46749 0.65265 0.65636 0.0
N25 N 0.51554 0.70762 0.66831 0.0
C26 C 0.47814 0.6838 0.67801 0.0
C27 C 0.52945 0.69114 0.63928 0.0
C28 C 0.49934 0.65689 0.63171 0.0
O29 O 0.38463 0.61004 0.61708 0.0
C30 C 0.40449 0.59996 0.76217 0.0
O31 O 0.40814 0.57064 0.75479 0.0
H32 H 0.45911 0.6887 0.70149 0.0
H33 H 0.50093 0.63626 0.61089 0.0
N34 N 0.42896 0.57289 0.66373 0.0
N35 N 0.46254 0.54118 0.66508 0.0
C36 C 0.46328 0.57286 0.67469 0.0
C37 C 0.40562 0.54002 0.64682 0.0
C38 C 0.42649 0.52021 0.6476 0.0
C39 C 0.35519 0.61677 0.61885 0.0
O40 O 0.3448 0.62524 0.65789 0.0
H41 H 0.48872 0.59587 0.68821 0.0
H42 H 0.3761 0.53153 0.63365 0.0
O43 O 0.40442 0.61932 0.72854 0.0
H44 H 0.55909 0.70279 0.62531 0.0
H45 H 0.41661 0.49311 0.63515 0.0
Cu46 Cu 0.82453 0.39428 1.00134 0.0
N47 N 0.81688 0.37558 0.06057 0.0
N48 N 0.8135 0.37355 0.13652 0.0
C49 C 0.82759 0.39464 0.09947 0.0
C50 C 0.79385 0.3397 0.12056 0.0
C51 C 0.79584 0.34107 0.07362 0.0
O52 O 0.88192 0.42473 0.99456 0.0
C53 C 0.78825 0.43852 1.02625 0.0
O54 O 0.81835 0.4549 0.05375 0.0
H55 H 0.84509 0.42347 0.10094 0.0
H56 H 0.78168 0.31864 0.05059 0.0
N57 N 0.80682 0.35547 0.96025 0.0
N58 N 0.7691 0.31159 0.91204 0.0
C59 C 0.77416 0.34207 0.93357 0.0
C60 C 0.82284 0.3328 0.9551 0.0
C61 C 0.79971 0.30579 0.92552 0.0
C62 C 0.90042 0.45889 0.99182 0.0
O63 O 0.88054 0.47766 0.98964 0.0
H64 H 0.75388 0.3537 0.93102 0.0
H65 H 0.84897 0.33522 0.97273 0.0
O66 O 0.78966 0.41724 0.99604 0.0
H67 H 0.77804 0.31598 0.14134 0.0
H68 H 0.80453 0.2832 0.91526 0.0
Cu69 Cu 0.43597 0.82658 0.36181 0.0
N70 N 0.38793 0.8283 0.35428 0.0
N71 N 0.32332 0.80987 0.36308 0.0
C72 C 0.35222 0.79988 0.35834 0.0
C73 C 0.34099 0.84593 0.36025 0.0
C74 C 0.38097 0.85727 0.35482 0.0
O75 O 0.43669 0.78956 0.32105 0.0
C76 C 0.41588 0.79959 0.45388 0.0
O77 O 0.38329 0.77458 0.43619 0.0
H78 H 0.34786 0.77257 0.36255 0.0
H79 H 0.40331 0.8848 0.35592 0.0
N80 N 0.47556 0.87038 0.34073 0.0
N81 N 0.50431 0.92867 0.32292 0.0
C82 C 0.48175 0.9035 0.3534 0.0
C83 C 0.49591 0.87506 0.30167 0.0
C84 C 0.51368 0.91106 0.29056 0.0
C85 C 0.43405 0.75865 0.32981 0.0
O86 O 0.42953 0.74712 0.37204 0.0
H87 H 0.46716 0.90872 0.382 0.0
H88 H 0.49484 0.85347 0.28054 0.0
O89 O 0.44293 0.82183 0.42774 0.0
H90 H 0.32672 0.86277 0.36689 0.0
H91 H 0.5293 0.92295 0.25931 0.0
Cu92 Cu 0.61479 0.42314 0.69516 0.0
N93 N 0.56821 0.38601 0.67358 0.0
N94 N 0.52212 0.32958 0.666 0.0
C95 C 0.55572 0.35194 0.68699 0.0
C96 C 0.51271 0.35004 0.63789 0.0
C97 C 0.54152 0.38522 0.64265 0.0
O98 O 0.65798 0.42287 0.66017 0.0
C99 C 0.5884 0.4129 0.78408 0.0
O100 O 0.56288 0.4221 0.7654 0.0
H101 H 0.57174 0.34348 0.71071 0.0
H102 H 0.54348 0.40825 0.62384 0.0
N103 N 0.61355 0.46667 0.68742 0.0
N104 N 0.58914 0.50556 0.67941 0.0
C105 C 0.58063 0.47093 0.68471 0.0
C106 C 0.64402 0.49991 0.68369 0.0
C107 C 0.62889 0.52423 0.67873 0.0
C108 C 0.65633 0.42519 0.61708 0.0
O109 O 0.62678 0.42878 0.59863 0.0
H110 H 0.5509 0.44921 0.68713 0.0
H111 H 0.67492 0.50596 0.68471 0.0
O112 O 0.61621 0.41294 0.75968 0.0
H113 H 0.48804 0.34006 0.61445 0.0
H114 H 0.64548 0.55311 0.67511 0.0
Cu115 Cu 0.15293 0.58016 0.99641 0.0
N116 N 0.16096 0.60499 0.05144 0.0
N117 N 0.17112 0.61506 0.1261 0.0
C118 C 0.16474 0.59161 0.09194 0.0
C119 C 0.17156 0.6445 0.10655 0.0
C120 C 0.16539 0.63824 0.06027 0.0
O121 O 0.09578 0.55147 0.98592 0.0
C122 C 0.20778 0.55197 0.98158 0.0
O123 O 0.21214 0.5657 0.94059 0.0
H124 H 0.16259 0.56505 0.09641 0.0
H125 H 0.16421 0.65655 1.03494 0.0
N126 N 0.17526 0.61129 0.94604 0.0
N127 N 0.21683 0.65146 0.89595 0.0
C128 C 0.21115 0.64005 0.93988 0.0
C129 C 0.15792 0.60495 0.90484 0.0
C130 C 0.1833 0.6295 0.87409 0.0
C131 C 0.07189 0.53037 1.01553 0.0
O132 O 0.08574 0.52597 0.05475 0.0
H133 H 0.23314 0.65158 0.96637 0.0
H134 H 0.12917 0.58302 0.89736 0.0
O135 O 0.17995 0.55072 1.00677 0.0
H136 H 0.17567 0.66853 0.12453 0.0
H137 H 0.17797 0.6307 0.83808 0.0
Cu138 Cu 0.81287 0.42081 0.4157 0.0
N139 N 0.81578 0.37825 0.42772 0.0
N140 N 0.80426 0.32234 0.41161 0.0
C141 C 0.79073 0.34698 0.40881 0.0
C142 C 0.8391 0.33836 0.43365 0.0
C143 C 0.84601 0.37298 0.44402 0.0
O144 O 0.7709 0.42195 0.45248 0.0
C145 C 0.82702 0.41268 0.32523 0.0
O146 O 0.85503 0.40735 0.34475 0.0
H147 H 0.7648 0.34334 0.38964 0.0
H148 H 0.87257 0.3935 0.45912 0.0
N149 N 0.85993 0.45989 0.43181 0.0
N150 N 0.92397 0.49257 0.44587 0.0
C151 C 0.8965 0.46361 0.42444 0.0
C152 C 0.86454 0.48796 0.45797 0.0
C153 C 0.90429 0.50816 0.46711 0.0
C154 C 0.77071 0.41531 0.49485 0.0
O155 O 0.7975 0.40674 0.51141 0.0
H156 H 0.90296 0.44456 0.40594 0.0
H157 H 0.84057 0.49266 0.47073 0.0
O158 O 0.80492 0.42119 0.34998 0.0
H159 H 0.85902 0.32665 0.43924 0.0
H160 H 0.91762 0.53169 0.4886 0.0
Cu161 Cu 0.40077 0.81847 0.74357 0.0
N162 N 0.44736 0.81819 0.76295 0.0
N163 N 0.49977 0.80786 0.75775 0.0
C164 C 0.46186 0.79698 0.74559 0.0
C165 C 0.50974 0.83685 0.7844 0.0
C166 C 0.47698 0.843 0.78794 0.0
O167 O 0.3571 0.78631 0.78317 0.0
C168 C 0.42138 0.82003 0.65022 0.0
O169 O 0.45557 0.84495 0.66464 0.0
H170 H 0.44595 0.77558 0.72171 0.0
H171 H 0.47581 0.86548 0.80483 0.0
N172 N 0.40842 0.8657 0.74987 0.0
N173 N 0.44006 0.92549 0.75373 0.0
C174 C 0.44202 0.89558 0.74024 0.0
C175 C 0.38436 0.87729 0.76989 0.0
C176 C 0.40391 0.91438 0.77229 0.0
C177 C 0.34487 0.75237 0.78484 0.0
O178 O 0.36097 0.73767 0.75775 0.0
H179 H 0.46808 0.89544 0.7255 0.0
H180 H 0.35527 0.85993 0.78324 0.0
O181 O 0.39289 0.80491 0.67853 0.0
H182 H 0.53902 0.85342 0.79786 0.0
H183 H 0.393 0.93176 0.7875 0.0
Cu184 Cu 0.56437 0.41287 0.09653 0.0
N185 N 0.54676 0.38509 0.04423 0.0
N186 N 0.54991 0.3734 0.97077 0.0
C187 C 0.55721 0.39902 1.00221 0.0
C188 C 0.53399 0.34194 0.99364 0.0
C189 C 0.532 0.34925 1.03915 0.0
O190 O 0.53625 0.44211 0.10271 0.0
C191 C 0.64744 0.43614 0.10379 0.0
O192 O 0.63874 0.41779 0.14193 0.0
H193 H 0.57258 0.42756 0.99519 0.0
H194 H 0.52285 0.33001 0.06673 0.0
N195 N 0.55483 0.38339 0.14842 0.0
N196 N 0.55125 0.34086 0.19738 0.0
C197 C 0.56068 0.35405 0.15465 0.0
C198 C 0.54112 0.38857 0.1886 0.0
C199 C 0.53893 0.36242 0.21887 0.0
C200 C 0.5432 0.46963 0.07835 0.0
O201 O 0.57174 0.4807 0.04805 0.0
H202 H 0.57234 0.34296 0.12892 0.0
H203 H 0.53368 0.41021 0.19552 0.0
O204 O 0.62075 0.44117 0.0835 0.0
H205 H 0.52596 0.31586 0.97874 0.0
H206 H 0.52957 0.35966 0.25407 0.0
Cu207 Cu 0.1964 0.58794 0.4094 0.0
N208 N 0.19336 0.62935 0.42638 0.0
N209 N 0.20538 0.68647 0.42808 0.0
C210 C 0.21391 0.66198 0.40793 0.0
C211 C 0.1781 0.6688 0.46021 0.0
C212 C 0.1711 0.63337 0.45947 0.0
O213 O 0.23913 0.58677 0.44472 0.0
C214 C 0.17901 0.59766 0.31916 0.0
O215 O 0.15472 0.60726 0.34008 0.0
H216 H 0.23536 0.6679 0.38086 0.0
H217 H 0.15182 0.61223 0.4821 0.0
N218 N 0.15033 0.5503 0.43083 0.0
N219 N 0.08635 0.52437 0.44865 0.0
C220 C 0.11346 0.54102 0.41588 0.0
C221 C 0.14623 0.53804 0.47386 0.0
C222 C 0.10674 0.52215 0.48505 0.0
C223 C 0.27225 0.61412 0.45132 0.0
O224 O 0.28259 0.64277 0.42564 0.0
H225 H 0.10691 0.55 0.38391 0.0
H226 H 0.17053 0.54404 0.49712 0.0
O227 O 0.20033 0.58731 0.34271 0.0
H228 H 0.1656 0.68095 0.48353 0.0
H229 H 0.0942 0.51233 0.51833 0.0
Cu230 Cu 0.59798 0.17317 0.72092 0.0
N231 N 0.54965 0.17356 0.73051 0.0
N232 N 0.50983 0.19879 0.7179 0.0
C233 C 0.54651 0.2043 0.72957 0.0
C234 C 0.48862 0.16312 0.71198 0.0
C235 C 0.51341 0.14763 0.71922 0.0
O236 O 0.63958 0.21091 0.75753 0.0
C237 C 0.59089 0.16109 0.62563 0.0
O238 O 0.57177 0.12716 0.63756 0.0
H239 H 0.57195 0.23056 0.73016 0.0
H240 H 0.50686 0.12059 0.70948 0.0
N241 N 0.59397 0.1274 0.73263 0.0
N242 N 0.56592 0.06789 0.74261 0.0
C243 C 0.56175 0.09807 0.74736 0.0
C244 C 0.61973 0.11526 0.7193 0.0
C245 C 0.60241 0.07844 0.7253 0.0
C246 C 0.64532 0.20702 0.79954 0.0
O247 O 0.62274 0.17637 0.81975 0.0
H248 H 0.5349 0.09828 0.75912 0.0
H249 H 0.64792 0.13167 0.70319 0.0
O250 O 0.60733 0.1849 0.65621 0.0
H251 H 0.45936 0.1501 0.69704 0.0
H252 H 0.61443 0.06054 0.7148 0.0
Cu253 Cu 0.43297 0.60713 0.07738 0.0
N254 N 0.44334 0.63379 1.02302 0.0
N255 N 0.439 0.64333 0.94873 0.0
C256 C 0.44056 0.62064 0.98051 0.0
C257 C 0.44164 0.67221 0.97171 0.0
C258 C 0.44449 0.66631 1.01756 0.0
O259 O 0.46032 0.57698 0.07538 0.0
C260 C 0.356 0.56166 0.04662 0.0
O261 O 0.37434 0.55253 1.01527 0.0
H262 H 0.43704 0.59399 0.97307 0.0
H263 H 0.44411 0.68321 0.04519 0.0
N264 N 0.45104 0.63801 0.12808 0.0
N265 N 0.45501 0.67297 0.18774 0.0
C266 C 0.43315 0.65453 0.15149 0.0
C267 C 0.48525 0.64663 0.15018 0.0
C268 C 0.48774 0.66803 0.18688 0.0
C269 C 0.44622 0.54462 0.08944 0.0
O270 O 0.41027 0.52876 0.10639 0.0
H271 H 0.4047 0.65287 0.14244 0.0
H272 H 0.5069 0.63782 0.14029 0.0
O273 O 0.37552 0.58017 0.08053 0.0
H274 H 0.43936 0.69487 0.95662 0.0
H275 H 0.51183 0.6793 0.21107 0.0
C276 C 0.62419 0.19737 0.50524 0.0
C277 C 0.58728 0.18928 0.48437 0.0
C278 C 0.55273 0.16182 0.55554 0.0
C279 C 0.58986 0.1716 0.57727 0.0
N280 N 0.66125 0.20228 0.57442 0.0
N281 N 0.51735 0.17008 0.49133 0.0
C282 C 0.62568 0.19077 0.55267 0.0
C283 C 0.55179 0.1731 0.50997 0.0
N284 N 0.65763 0.20937 0.47914 0.0
N285 N 0.51817 0.14169 0.57834 0.0
H286 H 0.51559 0.17826 0.45821 0.0
H287 H 0.49131 0.16253 0.50973 0.0
H288 H 0.51676 0.13587 0.61295 0.0
H289 H 0.49065 0.12937 0.56249 0.0
H290 H 0.68451 0.21166 0.49096 0.0
H291 H 0.65793 0.21433 0.44439 0.0
H292 H 0.6881 0.22047 0.56025 0.0
H293 H 0.66398 0.19526 0.6078 0.0
C294 C 0.38127 0.60768 0.8398 0.0
C295 C 0.41278 0.61545 0.80878 0.0
C296 C 0.46116 0.64658 0.86924 0.0
C297 C 0.42991 0.6356 0.90109 0.0
N298 N 0.36054 0.60548 0.9187 0.0
N299 N 0.48281 0.64067 0.79342 0.0
C300 C 0.38995 0.61626 0.88682 0.0
C301 C 0.4528 0.6348 0.82327 0.0
N302 N 0.34323 0.59239 0.82404 0.0
N303 N 0.49884 0.66859 0.88325 0.0
H304 H 0.47811 0.63411 0.75898 0.0
H305 H 0.51227 0.65026 0.80304 0.0
H306 H 0.50564 0.67667 0.91704 0.0
H307 H 0.52285 0.6808 0.8613 0.0
H308 H 0.31877 0.58827 0.84379 0.0
H309 H 0.3363 0.58585 0.78985 0.0
H310 H 0.33093 0.58835 0.91208 0.0
H311 H 0.36621 0.61256 0.95289 0.0
C312 C 0.85572 0.42107 0.24706 0.0
C313 C 0.82153 0.40705 0.27521 0.0
C314 C 0.78127 0.37678 0.20864 0.0
C315 C 0.81615 0.38542 0.18308 0.0
N316 N 0.88723 0.41115 0.18075 0.0
N317 N 0.75183 0.36591 0.28347 0.0
C318 C 0.85363 0.40649 0.20298 0.0
C319 C 0.78415 0.38355 0.25623 0.0
N320 N 0.89006 0.44884 0.26212 0.0
N321 N 0.74548 0.36329 0.18721 0.0
H322 H 0.75228 0.36916 0.31858 0.0
H323 H 0.72539 0.34541 0.2715 0.0
H324 H 0.74257 0.35973 0.15206 0.0
H325 H 0.71957 0.35967 0.20362 0.0
H326 H 0.91488 0.46208 0.24147 0.0
H327 H 0.89217 0.46121 0.29351 0.0
H328 H 0.91521 0.42351 0.19558 0.0
H329 H 0.88668 0.39934 0.14938 0.0
C330 C 0.42013 0.77858 0.53352 0.0
C331 C 0.41792 0.80482 0.50432 0.0
C332 C 0.41067 0.83691 0.57124 0.0
C333 C 0.41613 0.81237 0.60038 0.0
N334 N 0.42966 0.76176 0.61011 0.0
N335 N 0.41336 0.86028 0.49485 0.0
C336 C 0.42163 0.78358 0.58172 0.0
C337 C 0.41392 0.83441 0.52309 0.0
N338 N 0.42057 0.74872 0.51508 0.0
N339 N 0.40119 0.86204 0.5898 0.0
H340 H 0.41307 0.85848 0.45948 0.0
H341 H 0.41538 0.88464 0.50615 0.0
H342 H 0.39868 0.86463 0.6248 0.0
H343 H 0.39268 0.87845 0.57088 0.0
H344 H 0.41769 0.72661 0.53408 0.0
H345 H 0.4218 0.74513 0.48012 0.0
H346 H 0.43885 0.74311 0.59898 0.0
H347 H 0.42909 0.76359 0.6454 0.0
C348 C 0.53106 0.3662 0.88961 0.0
C349 C 0.56075 0.37931 0.92339 0.0
C350 C 0.61062 0.41285 0.86544 0.0
C351 C 0.58099 0.39853 0.83133 0.0
N352 N 0.51609 0.35282 0.80994 0.0
N353 N 0.6299 0.40691 0.94255 0.0
C354 C 0.54214 0.37241 0.84313 0.0
C355 C 0.60099 0.40006 0.91093 0.0
N356 N 0.4921 0.34946 0.90195 0.0
N357 N 0.64716 0.43994 0.85517 0.0
H358 H 0.62352 0.39691 0.97568 0.0
H359 H 0.65998 0.41918 0.93475 0.0
H360 H 0.6553 0.45046 0.8225 0.0
H361 H 0.66835 0.45395 0.87976 0.0
H362 H 0.46904 0.34276 0.87877 0.0
H363 H 0.48288 0.34527 0.93579 0.0
H364 H 0.48864 0.33125 0.81693 0.0
H365 H 0.52369 0.35549 0.77556 0.0
C366 C 0.14346 0.57772 0.24493 0.0
C367 C 0.17953 0.59809 0.26845 0.0
C368 C 0.21148 0.62555 0.19595 0.0
C369 C 0.17424 0.6088 0.17394 0.0
N370 N 0.1039 0.57204 0.17768 0.0
N371 N 0.24752 0.64382 0.26724 0.0
C372 C 0.14 0.58552 0.19847 0.0
C373 C 0.21367 0.62243 0.24414 0.0
N374 N 0.11281 0.55027 0.26686 0.0
N375 N 0.24477 0.64387 0.1704 0.0
H376 H 0.25042 0.64207 0.3023 0.0
H377 H 0.27191 0.66486 0.25217 0.0
H378 H 0.24371 0.64655 0.13518 0.0
H379 H 0.27335 0.65381 0.18336 0.0
H380 H 0.08701 0.53226 0.25061 0.0
H381 H 0.11484 0.54323 0.30049 0.0
H382 H 0.07719 0.55794 0.19483 0.0
H383 H 0.10046 0.57757 0.14381 0.0
C384 C 0.78449 0.29061 0.33926 0.0
C385 C 0.78764 0.2891 0.38705 0.0
C386 C 0.7376 0.22648 0.38681 0.0
C387 C 0.72788 0.23138 0.34176 0.0
N388 N 0.74247 0.26639 0.27319 0.0
N389 N 0.7716 0.2552 0.45656 0.0
C390 C 0.75223 0.2626 0.31687 0.0
C391 C 0.76631 0.25645 0.41079 0.0
N392 N 0.81186 0.3196 0.31619 0.0
N393 N 0.71781 0.19346 0.40665 0.0
H394 H 0.79267 0.27704 0.47444 0.0
H395 H 0.75485 0.2331 0.47698 0.0
H396 H 0.6963 0.17163 0.38906 0.0
H397 H 0.72455 0.18703 0.43864 0.0
H398 H 0.81273 0.32194 0.28088 0.0
H399 H 0.83606 0.33969 0.33285 0.0
H400 H 0.75629 0.29023 0.25473 0.0
H401 H 0.71908 0.24576 0.25613 0.0
C402 C 0.53297 0.76942 0.76098 0.0
C403 C 0.52501 0.79481 0.73724 0.0
C404 C 0.53356 0.77153 0.66438 0.0
C405 C 0.53487 0.74267 0.68806 0.0
N406 N 0.55046 0.72023 0.75589 0.0
N407 N 0.53172 0.82888 0.66942 0.0
C408 C 0.54065 0.74444 0.73558 0.0
C409 C 0.53105 0.79923 0.68976 0.0
N410 N 0.52935 0.76724 0.80719 0.0
N411 N 0.53063 0.77025 0.61811 0.0
H412 H 0.5295 0.84896 0.68849 0.0
H413 H 0.53757 0.83489 0.63502 0.0
H414 H 0.53304 0.75018 0.5993 0.0
H415 H 0.52491 0.78823 0.59866 0.0
H416 H 0.53054 0.74684 0.82654 0.0
H417 H 0.52405 0.78578 0.82599 0.0
H418 H 0.55715 0.72074 0.79031 0.0
H419 H 0.55487 0.7013 0.73674 0.0
C420 C 0.71536 0.47123 0.06884 0.0
C421 C 0.68147 0.43811 0.07688 0.0
C422 C 0.71602 0.40512 0.04794 0.0
C423 C 0.74992 0.43822 1.03823 0.0
N424 N 0.77868 0.50261 1.0302 0.0
N425 N 0.64528 0.37495 0.05985 0.0
C426 C 0.74855 0.47129 0.04579 0.0
C427 C 0.68046 0.40557 0.06167 0.0
N428 N 0.71627 0.50237 0.08447 0.0
N429 N 0.71816 0.3733 0.0478 0.0
H430 H 0.6184 0.37445 0.06859 0.0
H431 H 0.64226 0.35131 0.04467 0.0
H432 H 0.74362 0.37095 1.04019 0.0
H433 H 0.69547 0.34936 0.06002 0.0
H434 H 0.74162 0.52699 0.08425 0.0
H435 H 0.69198 0.5031 0.1002 0.0
H436 H 0.77799 0.52724 1.03104 0.0
H437 H 0.80289 0.50334 1.01249 0.0
C438 C 0.25325 0.76709 0.35639 0.0
C439 C 0.28614 0.78754 0.38413 0.0
C440 C 0.25677 0.74672 0.44803 0.0
C441 C 0.22574 0.7242 0.41883 0.0
N442 N 0.18782 0.71612 0.35094 0.0
N443 N 0.31435 0.80427 0.45872 0.0
C444 C 0.22154 0.73598 0.37498 0.0
C445 C 0.28578 0.78004 0.43111 0.0
N446 N 0.25403 0.77634 0.31172 0.0
N447 N 0.26052 0.73475 0.49015 0.0
H448 H 0.3363 0.82863 0.44654 0.0
H449 H 0.31437 0.80182 0.49398 0.0
H450 H 0.23944 0.7107 0.50399 0.0
H451 H 0.28537 0.74772 0.51069 0.0
H452 H 0.23283 0.76084 0.28795 0.0
H453 H 0.27703 0.79965 0.29835 0.0
H454 H 0.18154 0.72364 0.31938 0.0
H455 H 0.16472 0.69305 0.36471 0.0
C456 C 0.52041 0.27329 0.64048 0.0
C457 C 0.50528 0.29128 0.66908 0.0
C458 C 0.48283 0.24214 0.72426 0.0
C459 C 0.5014 0.22592 0.69786 0.0
N460 N 0.5287 0.21993 0.62642 0.0
N461 N 0.46389 0.29041 0.7308 0.0
C462 C 0.51674 0.23936 0.65409 0.0
C463 C 0.48317 0.27443 0.70836 0.0
N464 N 0.54109 0.29022 0.60233 0.0
N465 N 0.46713 0.22761 0.76553 0.0
H466 H 0.46454 0.3143 0.71904 0.0
H467 H 0.44535 0.2791 0.7586 0.0
H468 H 0.46626 0.20358 0.777 0.0
H469 H 0.45615 0.23959 0.78879 0.0
H470 H 0.55733 0.28093 0.58267 0.0
H471 H 0.54304 0.31466 0.59107 0.0
H472 H 0.53715 0.22647 0.59264 0.0
H473 H 0.52749 0.19556 0.63652 0.0
C474 C 0.27057 0.58435 1.02502 0.0
C475 C 0.24292 0.55221 1.00393 0.0
C476 C 0.28556 0.5239 1.02174 0.0
C477 C 0.31571 0.55766 1.03656 0.0
N478 N 0.33893 0.62211 0.04297 0.0
N479 N 0.22445 0.49182 0.97922 0.0
C480 C 0.30867 0.5884 1.03633 0.0
C481 C 0.25045 0.522 1.00154 0.0
N482 N 0.26072 0.61142 1.03399 0.0
N483 N 0.29014 0.49357 1.02807 0.0
H484 H 0.19787 0.48926 0.96563 0.0
H485 H 0.23029 0.47032 0.97179 0.0
H486 H 0.31503 0.49399 0.04378 0.0
H487 H 0.26789 0.46775 1.02178 0.0
H488 H 0.27789 0.63339 0.05442 0.0
H489 H 0.23383 0.61052 1.02466 0.0
H490 H 0.33615 0.64549 1.03715 0.0
H491 H 0.36798 0.62747 0.04941 0.0
C492 C 0.55014 0.02948 0.31712 0.0
C493 C 0.51596 0.03471 0.31069 0.0
C494 C 0.47504 0.96964 0.30688 0.0
C495 C 0.50829 0.96449 0.3189 0.0
N496 N 0.57641 0.98884 0.3411 0.0
N497 N 0.44503 0.00991 0.30783 0.0
C498 C 0.54558 0.9943 0.32579 0.0
C499 C 0.4781 0.00476 0.30797 0.0
N500 N 0.58691 0.05776 0.31246 0.0
N501 N 0.44117 0.94117 0.29231 0.0
H502 H 0.44638 0.03538 0.3099 0.0
H503 H 0.41645 0.98891 0.31015 0.0
H504 H 0.43887 0.91546 0.28871 0.0
H505 H 0.41705 0.9438 0.27929 0.0
H506 H 0.61288 0.05504 0.3127 0.0
H507 H 0.59125 0.08344 0.30366 0.0
H508 H 0.60345 0.00962 0.35114 0.0
H509 H 0.57368 0.96318 0.34715 0.0
C510 C 0.51788 0.53525 0.62946 0.0
C511 C 0.49539 0.53327 0.66871 0.0
C512 C 0.54036 0.52031 0.71598 0.0
C513 C 0.56044 0.5188 0.67614 0.0
N514 N 0.56707 0.52099 0.59481 0.0
N515 N 0.48233 0.52199 0.74855 0.0
C516 C 0.54905 0.52549 0.63277 0.0
C517 C 0.50599 0.52545 0.71193 0.0
N518 N 0.5099 0.54739 0.58949 0.0
N519 N 0.55466 0.51703 0.75746 0.0
H520 H 0.45696 0.52567 0.74609 0.0
H521 H 0.4862 0.51332 0.78052 0.0
H522 H 0.57992 0.51325 0.76086 0.0
H523 H 0.54349 0.52057 0.78833 0.0
H524 H 0.52755 0.55281 0.56057 0.0
H525 H 0.48707 0.55464 0.58627 0.0
H526 H 0.55742 0.52164 0.56182 0.0
H527 H 0.59043 0.51432 0.5965 0.0
C528 C 0.96914 0.47335 0.96358 0.0
C529 C 0.94445 0.47767 0.99683 0.0
C530 C 0.00354 0.52017 1.0383 0.0
C531 C 0.02815 0.51308 1.00771 0.0
N532 N 0.0341 0.47902 0.94463 0.0
N533 N 0.93808 0.49978 0.07061 0.0
C534 C 0.01089 0.48871 0.97109 0.0
C535 C 0.96164 0.49967 1.03547 0.0
N536 N 0.95283 0.45543 0.92416 0.0
N537 N 0.02012 0.54753 0.06905 0.0
H538 H 0.90736 0.48476 0.07041 0.0
H539 H 0.9492 0.51201 0.10179 0.0
H540 H 0.05056 0.56384 0.07149 0.0
H541 H 0.00361 0.55644 0.08894 0.0
H542 H 0.96951 0.45465 0.89645 0.0
H543 H 0.9225 0.44377 0.91763 0.0
H544 H 0.0228 0.45846 0.92071 0.0
H545 H 0.0646 0.48952 0.94912 0.0
C546 C 0.0161 0.48236 0.46139 0.0
C547 C 0.04538 0.51689 0.4484 0.0
C548 C 0.99381 0.53505 0.4317 0.0
C549 C 0.9652 0.5019 0.44919 0.0
N550 N 0.95026 0.44808 0.49199 0.0
N551 N 0.06229 0.57923 0.43355 0.0
C552 C 0.9767 0.4767 0.46747 0.0
C553 C 0.03439 0.54424 0.43695 0.0
N554 N 0.02565 0.45472 0.46626 0.0
N555 N 0.98227 0.5572 0.40887 0.0
H556 H 0.09201 0.58749 0.44054 0.0
H557 H 0.05527 0.60044 0.42914 0.0
H558 H 0.9526 0.55082 0.40369 0.0
H559 H 1.00207 0.58014 0.39151 0.0
H560 H 0.00456 0.42824 0.47189 0.0
H561 H 0.05401 0.45765 0.45991 0.0
H562 H 0.95797 0.43029 0.50912 0.0
H563 H 0.92189 0.44471 0.49943 0.0
C564 C 0.52778 0.01234 0.78664 0.0
C565 C 0.53454 0.03166 0.74531 0.0
C566 C 0.47704 0.9816 0.71076 0.0
C567 C 0.47147 0.96164 0.75134 0.0
N568 N 0.49281 0.95517 0.82616 0.0
N569 N 0.5191 0.0345 0.66656 0.0
C570 C 0.49721 0.97629 0.78892 0.0
C571 C 0.51006 0.01619 0.70688 0.0
N572 N 0.55033 0.02896 0.82372 0.0
N573 N 0.45008 0.96745 0.67641 0.0
H574 H 0.54281 0.06002 0.66309 0.0
H575 H 0.50492 0.02382 0.63595 0.0
H576 H 0.42607 0.94189 0.67845 0.0
H577 H 0.44988 0.9815 0.64723 0.0
H578 H 0.54501 0.01794 0.85628 0.0
H579 H 0.57344 0.05504 0.82221 0.0
H580 H 0.51254 0.9627 0.8533 0.0
H581 H 0.47026 0.92889 0.82869 0.0
C582 C 0.50619 0.53736 0.11299 0.0
C583 C 0.47067 0.52495 0.08731 0.0
C584 C 0.48061 0.47391 0.06004 0.0
C585 C 0.51785 0.48822 0.08239 0.0
N586 N 0.56864 0.53571 0.12567 0.0
N587 N 0.42665 0.48438 1.03129 0.0
C588 C 0.53142 0.52065 0.10746 0.0
C589 C 0.45843 0.49387 0.05963 0.0
N590 N 0.51483 0.56398 0.1444 0.0
N591 N 0.46632 0.44109 1.03937 0.0
H592 H 0.4099 0.49843 1.02973 0.0
H593 H 0.41874 0.46448 1.0066 0.0
H594 H 0.48233 0.42638 1.03735 0.0
H595 H 0.43756 0.42722 1.02702 0.0
H596 H 0.53804 0.57177 0.16754 0.0
H597 H 0.49652 0.57606 0.15035 0.0
H598 H 0.5821 0.56138 0.13967 0.0
H599 H 0.58728 0.52351 0.12399 0.0
C600 C 0.5251 0.24952 0.24787 0.0
C601 C 0.56341 0.25319 0.258 0.0
C602 C 0.59331 0.31565 0.23037 0.0
C603 C 0.55542 0.31109 0.21721 0.0
N604 N 0.48578 0.27354 0.20831 0.0
N605 N 0.63443 0.28842 0.2556 0.0
C606 C 0.52139 0.27797 0.22481 0.0
C607 C 0.59766 0.28589 0.24818 0.0
N608 N 0.49236 0.21882 0.2602 0.0
N609 N 0.62487 0.34903 0.22762 0.0
H610 H 0.63913 0.26857 0.27216 0.0
H611 H 0.66027 0.30935 0.24306 0.0
H612 H 0.62235 0.37126 0.21499 0.0
H613 H 0.65268 0.35543 0.24101 0.0
H614 H 0.46359 0.21571 0.2581 0.0
H615 H 0.494 0.19689 0.27525 0.0
H616 H 0.46013 0.24919 0.2085 0.0
H617 H 0.48255 0.29399 0.19125 0.0
C618 C 0.30493 0.58745 0.50323 0.0
C619 C 0.29507 0.61567 0.49323 0.0
C620 C 0.32823 0.64639 0.56347 0.0
C621 C 0.33375 0.61614 0.57612 0.0
N622 N 0.31976 0.55456 0.56184 0.0
N623 N 0.28865 0.66751 0.52041 0.0
C624 C 0.32006 0.58572 0.547 0.0
C625 C 0.30437 0.644 0.52509 0.0
N626 N 0.30092 0.56282 0.47052 0.0
N627 N 0.34687 0.67793 0.58692 0.0
H628 H 0.26904 0.6657 0.49456 0.0
H629 H 0.29147 0.68633 0.5452 0.0
H630 H 0.3658 0.68141 0.61423 0.0
H631 H 0.34686 0.70174 0.57619 0.0
H632 H 0.31137 0.54381 0.47444 0.0
H633 H 0.29076 0.56367 0.43777 0.0
H634 H 0.3065 0.53054 0.54378 0.0
H635 H 0.32894 0.55163 0.59435 0.0
C636 C 0.74596 0.28238 0.8371 0.0
C637 C 0.73721 0.28853 0.88217 0.0
C638 C 0.66707 0.24719 0.86877 0.0
C639 C 0.67681 0.2369 0.82629 0.0
N640 N 0.72755 0.24148 0.77315 0.0
N641 N 0.69023 0.2723 0.94358 0.0
C642 C 0.71679 0.25385 0.81103 0.0
C643 C 0.69789 0.26988 0.89868 0.0
N644 N 0.78212 0.30438 0.81897 0.0
N645 N 0.62832 0.23627 0.88 0.0
H646 H 0.71217 0.28772 0.96674 0.0
H647 H 0.6629 0.25639 0.95865 0.0
H648 H 0.60498 0.22085 0.85833 0.0
H649 H 0.61961 0.24573 0.90846 0.0
H650 H 0.78921 0.30361 0.78489 0.0
H651 H 0.8036 0.32587 0.83704 0.0
H652 H 0.75689 0.25032 0.76332 0.0
H653 H 0.70763 0.21996 0.75384 0.0
C654 C 0.4154 0.67859 0.25219 0.0
C655 C 0.44688 0.6947 0.22053 0.0
C656 C 0.47146 0.75163 0.26242 0.0
C657 C 0.43816 0.73649 0.29204 0.0
N658 N 0.37396 0.68743 0.30866 0.0
N659 N 0.49923 0.74835 0.18927 0.0
C660 C 0.40879 0.70045 0.28508 0.0
C661 C 0.47311 0.73184 0.22378 0.0
N662 N 0.3929 0.64217 0.25217 0.0
N663 N 0.50269 0.78403 0.27252 0.0
H664 H 0.50035 0.73461 0.16012 0.0
H665 H 0.51667 0.77608 0.1874 0.0
H666 H 0.50382 0.79855 0.30175 0.0
H667 H 0.52927 0.79466 0.25454 0.0
H668 H 0.37222 0.62835 0.27739 0.0
H669 H 0.39732 0.62546 0.22901 0.0
H670 H 0.34992 0.6627 0.30171 0.0
H671 H 0.36764 0.70276 0.3322 0.0
C672 C 0.726 0.44891 0.58819 0.0
C673 C 0.68609 0.42204 0.58726 0.0
C674 C 0.70093 0.39247 0.52313 0.0
C675 C 0.74141 0.41802 0.526 0.0
N676 N 0.79388 0.4675 0.56539 0.0
N677 N 0.63666 0.36476 0.56005 0.0
C678 C 0.75438 0.44523 0.55992 0.0
C679 C 0.67378 0.39291 0.55628 0.0
N680 N 0.73642 0.47886 0.61445 0.0
N681 N 0.68842 0.36767 0.48886 0.0
H682 H 0.61629 0.36378 0.58455 0.0
H683 H 0.62713 0.34093 0.54185 0.0
H684 H 0.70765 0.36492 0.46565 0.0
H685 H 0.65873 0.3512 0.48161 0.0
H686 H 0.76387 0.50141 0.61256 0.0
H687 H 0.71653 0.48253 0.63567 0.0
H688 H 0.80546 0.48476 0.59296 0.0
H689 H 0.81563 0.46713 0.54411 0.0
C690 C 0.24754 0.70852 0.85268 0.0
C691 C 0.25133 0.67995 0.87451 0.0
C692 C 0.31961 0.7043 0.8459 0.0
C693 C 0.31343 0.72926 0.81804 0.0
N694 N 0.26851 0.75157 0.79077 0.0
N695 N 0.28954 0.64783 0.88718 0.0
C696 C 0.27672 0.73074 0.82066 0.0
C697 C 0.28713 0.67721 0.87017 0.0
N698 N 0.21595 0.71449 0.86307 0.0
N699 N 0.35679 0.70711 0.85039 0.0
H700 H 0.26632 0.62732 0.90454 0.0
H701 H 0.31328 0.64238 0.88076 0.0
H702 H 0.38158 0.72742 0.8348 0.0
H703 H 0.36373 0.6918 0.87338 0.0
H704 H 0.21312 0.73687 0.85173 0.0
H705 H 0.19463 0.69889 0.88693 0.0
H706 H 0.2407 0.75071 0.78805 0.0
H707 H 0.28816 0.76721 0.76561 0.0
loop_
_geom_bond_atom_site_label_1
_geom_bond_atom_site_label_2
_geom_bond_distance
_geom_bond_site_symmetry_2
_ccdc_geom_bond_type
Cu0 N1 1.999 . S
Cu0 O6 1.974 . S
Cu0 N11 1.985 . S
Cu0 O20 1.959 . S
N1 Cu0 1.999 . S
N1 C3 1.263 . S
N1 C5 1.389 . S
N2 C3 1.358 . S
N2 C4 1.400 . S
C3 N1 1.263 . S
C3 N2 1.358 . S
C3 H9 0.930 . S
C4 N2 1.400 . S
C4 C5 1.351 . S
C4 H21 0.930 . S
C5 N1 1.389 . S
C5 C4 1.351 . S
C5 H10 0.930 . S
O6 Cu0 1.974 . S
O6 C16 1.282 . S
C7 O8 1.261 . S
C7 O20 1.251 . S
O8 C7 1.261 . S
H9 C3 0.930 . S
H10 C5 0.930 . S
N11 Cu0 1.985 . S
N11 C13 1.335 . S
N11 C14 1.390 . S
N12 C13 1.345 . S
N12 C15 1.336 . S
C13 N11 1.335 . S
C13 N12 1.345 . S
C13 H18 0.930 . S
C14 N11 1.390 . S
C14 C15 1.346 . S
C14 H19 0.930 . S
C15 N12 1.336 . S
C15 C14 1.346 . S
C15 H22 0.929 . S
C16 O6 1.282 . S
C16 O17 1.216 . S
O17 C16 1.216 . S
H18 C13 0.930 . S
H19 C14 0.930 . S
O20 Cu0 1.959 . S
O20 C7 1.251 . S
H21 C4 0.930 . S
H22 C15 0.929 . S
Cu23 N24 1.999 . S
Cu23 O29 1.974 . S
Cu23 N34 1.985 . S
Cu23 O43 1.959 . S
N24 Cu23 1.999 . S
N24 C26 1.263 . S
N24 C28 1.389 . S
N25 C26 1.358 . S
N25 C27 1.400 . S
C26 N24 1.263 . S
C26 N25 1.358 . S
C26 H32 0.930 . S
C27 N25 1.400 . S
C27 C28 1.351 . S
C27 H44 0.930 . S
C28 N24 1.389 . S
C28 C27 1.351 . S
C28 H33 0.930 . S
O29 Cu23 1.974 . S
O29 C39 1.282 . S
C30 O31 1.261 . S
C30 O43 1.251 . S
O31 C30 1.261 . S
H32 C26 0.930 . S
H33 C28 0.930 . S
N34 Cu23 1.985 . S
N34 C36 1.335 . S
N34 C37 1.390 . S
N35 C36 1.345 . S
N35 C38 1.336 . S
C36 N34 1.335 . S
C36 N35 1.345 . S
C36 H41 0.930 . S
C37 N34 1.390 . S
C37 C38 1.346 . S
C37 H42 0.930 . S
C38 N35 1.336 . S
C38 C37 1.346 . S
C38 H45 0.929 . S
C39 O29 1.282 . S
C39 O40 1.216 . S
O40 C39 1.216 . S
H41 C36 0.930 . S
H42 C37 0.930 . S
O43 Cu23 1.959 . S
O43 C30 1.251 . S
H44 C27 0.930 . S
H45 C38 0.929 . S
Cu46 N47 1.999 . S
Cu46 O52 1.974 . S
Cu46 N57 1.985 1_554 S
Cu46 O66 1.959 . S
N47 Cu46 1.999 . S
N47 C49 1.263 . S
N47 C51 1.389 . S
N48 C49 1.358 . S
N48 C50 1.400 . S
C49 N47 1.263 . S
C49 N48 1.358 . S
C49 H55 0.930 . S
C50 N48 1.400 . S
C50 C51 1.351 . S
C50 H67 0.930 . S
C51 N47 1.389 . S
C51 C50 1.351 . S
C51 H56 0.930 . S
O52 Cu46 1.974 . S
O52 C62 1.282 1_554 S
C53 O54 1.261 . S
C53 O66 1.251 1_556 S
O54 C53 1.261 . S
H55 C49 0.930 . S
H56 C51 0.930 . S
N57 Cu46 1.985 1_556 S
N57 C59 1.335 . S
N57 C60 1.390 . S
N58 C59 1.345 . S
N58 C61 1.336 . S
C59 N57 1.335 . S
C59 N58 1.345 . S
C59 H64 0.930 . S
C60 N57 1.390 . S
C60 C61 1.346 . S
C60 H65 0.930 . S
C61 N58 1.336 . S
C61 C60 1.346 . S
C61 H68 0.929 . S
C62 O52 1.282 1_556 S
C62 O63 1.216 . S
O63 C62 1.216 . S
H64 C59 0.930 . S
H65 C60 0.930 . S
O66 Cu46 1.959 . S
O66 C53 1.251 1_554 S
H67 C50 0.930 . S
H68 C61 0.929 . S
Cu69 N70 1.999 . S
Cu69 O75 1.974 . S
Cu69 N80 1.985 . S
Cu69 O89 1.959 . S
N70 Cu69 1.999 . S
N70 C72 1.263 . S
N70 C74 1.389 . S
N71 C72 1.358 . S
N71 C73 1.400 . S
C72 N70 1.263 . S
C72 N71 1.358 . S
C72 H78 0.930 . S
C73 N71 1.400 . S
C73 C74 1.351 . S
C73 H90 0.930 . S
C74 N70 1.389 . S
C74 C73 1.351 . S
C74 H79 0.930 . S
O75 Cu69 1.974 . S
O75 C85 1.282 . S
C76 O77 1.261 . S
C76 O89 1.251 . S
O77 C76 1.261 . S
H78 C72 0.930 . S
H79 C74 0.930 . S
N80 Cu69 1.985 . S
N80 C82 1.335 . S
N80 C83 1.390 . S
N81 C82 1.345 . S
N81 C84 1.336 . S
C82 N80 1.335 . S
C82 N81 1.345 . S
C82 H87 0.930 . S
C83 N80 1.390 . S
C83 C84 1.346 . S
C83 H88 0.930 . S
C84 N81 1.336 . S
C84 C83 1.346 . S
C84 H91 0.929 . S
C85 O75 1.282 . S
C85 O86 1.216 . S
O86 C85 1.216 . S
H87 C82 0.930 . S
H88 C83 0.930 . S
O89 Cu69 1.959 . S
O89 C76 1.251 . S
H90 C73 0.930 . S
H91 C84 0.929 . S
Cu92 N93 1.999 . S
Cu92 O98 1.974 . S
Cu92 N103 1.985 . S
Cu92 O112 1.959 . S
N93 Cu92 1.999 . S
N93 C95 1.263 . S
N93 C97 1.389 . S
N94 C95 1.358 . S
N94 C96 1.400 . S
C95 N93 1.263 . S
C95 N94 1.358 . S
C95 H101 0.930 . S
C96 N94 1.400 . S
C96 C97 1.351 . S
C96 H113 0.930 . S
C97 N93 1.389 . S
C97 C96 1.351 . S
C97 H102 0.930 . S
O98 Cu92 1.974 . S
O98 C108 1.282 . S
C99 O100 1.261 . S
C99 O112 1.251 . S
O100 C99 1.261 . S
H101 C95 0.930 . S
H102 C97 0.930 . S
N103 Cu92 1.985 . S
N103 C105 1.335 . S
N103 C106 1.390 . S
N104 C105 1.345 . S
N104 C107 1.336 . S
C105 N103 1.335 . S
C105 N104 1.345 . S
C105 H110 0.930 . S
C106 N103 1.390 . S
C106 C107 1.346 . S
C106 H111 0.930 . S
C107 N104 1.336 . S
C107 C106 1.346 . S
C107 H114 0.929 . S
C108 O98 1.282 . S
C108 O109 1.216 . S
O109 C108 1.216 . S
H110 C105 0.930 . S
H111 C106 0.930 . S
O112 Cu92 1.959 . S
O112 C99 1.251 . S
H113 C96 0.930 . S
H114 C107 0.929 . S
Cu115 N116 1.999 . S
Cu115 O121 1.974 . S
Cu115 N126 1.985 1_554 S
Cu115 O135 1.959 . S
N116 Cu115 1.999 . S
N116 C118 1.263 . S
N116 C120 1.389 . S
N117 C118 1.358 . S
N117 C119 1.400 . S
C118 N116 1.263 . S
C118 N117 1.358 . S
C118 H124 0.930 . S
C119 N117 1.400 . S
C119 C120 1.351 . S
C119 H136 0.930 . S
C120 N116 1.389 . S
C120 C119 1.351 . S
C120 H125 0.930 . S
O121 Cu115 1.974 . S
O121 C131 1.282 1_554 S
C122 O123 1.261 . S
C122 O135 1.251 1_556 S
O123 C122 1.261 . S
H124 C118 0.930 . S
H125 C120 0.930 . S
N126 Cu115 1.985 1_556 S
N126 C128 1.335 . S
N126 C129 1.390 . S
N127 C128 1.345 . S
N127 C130 1.336 . S
C128 N126 1.335 . S
C128 N127 1.345 . S
C128 H133 0.930 . S
C129 N126 1.390 . S
C129 C130 1.346 . S
C129 H134 0.930 . S
C130 N127 1.336 . S
C130 C129 1.346 . S
C130 H137 0.929 . S
C131 O121 1.282 1_556 S
C131 O132 1.216 . S
O132 C131 1.216 . S
H133 C128 0.930 . S
H134 C129 0.930 . S
O135 Cu115 1.959 . S
O135 C122 1.251 1_554 S
H136 C119 0.930 . S
H137 C130 0.929 . S
Cu138 N139 1.999 . S
Cu138 O144 1.974 . S
Cu138 N149 1.985 . S
Cu138 O158 1.959 . S
N139 Cu138 1.999 . S
N139 C141 1.263 . S
N139 C143 1.389 . S
N140 C141 1.358 . S
N140 C142 1.400 . S
C141 N139 1.263 . S
C141 N140 1.358 . S
C141 H147 0.930 . S
C142 N140 1.400 . S
C142 C143 1.351 . S
C142 H159 0.930 . S
C143 N139 1.389 . S
C143 C142 1.351 . S
C143 H148 0.930 . S
O144 Cu138 1.974 . S
O144 C154 1.282 . S
C145 O146 1.261 . S
C145 O158 1.251 . S
O146 C145 1.261 . S
H147 C141 0.930 . S
H148 C143 0.930 . S
N149 Cu138 1.985 . S
N149 C151 1.335 . S
N149 C152 1.390 . S
N150 C151 1.345 . S
N150 C153 1.336 . S
C151 N149 1.335 . S
C151 N150 1.345 . S
C151 H156 0.930 . S
C152 N149 1.390 . S
C152 C153 1.346 . S
C152 H157 0.930 . S
C153 N150 1.336 . S
C153 C152 1.346 . S
C153 H160 0.929 . S
C154 O144 1.282 . S
C154 O155 1.216 . S
O155 C154 1.216 . S
H156 C151 0.930 . S
H157 C152 0.930 . S
O158 Cu138 1.959 . S
O158 C145 1.251 . S
H159 C142 0.930 . S
H160 C153 0.929 . S
Cu161 N162 1.999 . S
Cu161 O167 1.974 . S
Cu161 N172 1.985 . S
Cu161 O181 1.959 . S
N162 Cu161 1.999 . S
N162 C164 1.263 . S
N162 C166 1.389 . S
N163 C164 1.358 . S
N163 C165 1.400 . S
C164 N162 1.263 . S
C164 N163 1.358 . S
C164 H170 0.930 . S
C165 N163 1.400 . S
C165 C166 1.351 . S
C165 H182 0.930 . S
C166 N162 1.389 . S
C166 C165 1.351 . S
C166 H171 0.930 . S
O167 Cu161 1.974 . S
O167 C177 1.282 . S
C168 O169 1.261 . S
C168 O181 1.251 . S
O169 C168 1.261 . S
H170 C164 0.930 . S
H171 C166 0.930 . S
N172 Cu161 1.985 . S
N172 C174 1.335 . S
N172 C175 1.390 . S
N173 C174 1.345 . S
N173 C176 1.336 . S
C174 N172 1.335 . S
C174 N173 1.345 . S
C174 H179 0.930 . S
C175 N172 1.390 . S
C175 C176 1.346 . S
C175 H180 0.930 . S
C176 N173 1.336 . S
C176 C175 1.346 . S
C176 H183 0.929 . S
C177 O167 1.282 . S
C177 O178 1.216 . S
O178 C177 1.216 . S
H179 C174 0.930 . S
H180 C175 0.930 . S
O181 Cu161 1.959 . S
O181 C168 1.251 . S
H182 C165 0.930 . S
H183 C176 0.929 . S
Cu184 N185 1.999 . S
Cu184 O190 1.974 . S
Cu184 N195 1.985 1_556 S
Cu184 O204 1.959 . S
N185 Cu184 1.999 . S
N185 C187 1.263 . S
N185 C189 1.389 . S
N186 C187 1.358 . S
N186 C188 1.400 . S
C187 N185 1.263 . S
C187 N186 1.358 . S
C187 H193 0.930 . S
C188 N186 1.400 . S
C188 C189 1.351 . S
C188 H205 0.930 . S
C189 N185 1.389 . S
C189 C188 1.351 . S
C189 H194 0.930 . S
O190 Cu184 1.974 . S
O190 C200 1.282 1_556 S
C191 O192 1.261 . S
C191 O204 1.251 1_554 S
O192 C191 1.261 . S
H193 C187 0.930 . S
H194 C189 0.930 . S
N195 Cu184 1.985 1_554 S
N195 C197 1.335 . S
N195 C198 1.390 . S
N196 C197 1.345 . S
N196 C199 1.336 . S
C197 N195 1.335 . S
C197 N196 1.345 . S
C197 H202 0.930 . S
C198 N195 1.390 . S
C198 C199 1.346 . S
C198 H203 0.930 . S
C199 N196 1.336 . S
C199 C198 1.346 . S
C199 H206 0.929 . S
C200 O190 1.282 1_554 S
C200 O201 1.216 . S
O201 C200 1.216 . S
H202 C197 0.930 . S
H203 C198 0.930 . S
O204 Cu184 1.959 . S
O204 C191 1.251 1_556 S
H205 C188 0.930 . S
H206 C199 0.929 . S
Cu207 N208 1.999 . S
Cu207 O213 1.974 . S
Cu207 N218 1.985 . S
Cu207 O227 1.959 . S
N208 Cu207 1.999 . S
N208 C210 1.263 . S
N208 C212 1.389 . S
N209 C210 1.358 . S
N209 C211 1.400 . S
C210 N208 1.263 . S
C210 N209 1.358 . S
C210 H216 0.930 . S
C211 N209 1.400 . S
C211 C212 1.351 . S
C211 H228 0.930 . S
C212 N208 1.389 . S
C212 C211 1.351 . S
C212 H217 0.930 . S
O213 Cu207 1.974 . S
O213 C223 1.282 . S
C214 O215 1.261 . S
C214 O227 1.251 . S
O215 C214 1.261 . S
H216 C210 0.930 . S
H217 C212 0.930 . S
N218 Cu207 1.985 . S
N218 C220 1.335 . S
N218 C221 1.390 . S
N219 C220 1.345 . S
N219 C222 1.336 . S
C220 N218 1.335 . S
C220 N219 1.345 . S
C220 H225 0.930 . S
C221 N218 1.390 . S
C221 C222 1.346 . S
C221 H226 0.930 . S
C222 N219 1.336 . S
C222 C221 1.346 . S
C222 H229 0.929 . S
C223 O213 1.282 . S
C223 O224 1.216 . S
O224 C223 1.216 . S
H225 C220 0.930 . S
H226 C221 0.930 . S
O227 Cu207 1.959 . S
O227 C214 1.251 . S
H228 C211 0.930 . S
H229 C222 0.929 . S
Cu230 N231 1.999 . S
Cu230 O236 1.974 . S
Cu230 N241 1.985 . S
Cu230 O250 1.959 . S
N231 Cu230 1.999 . S
N231 C233 1.263 . S
N231 C235 1.389 . S
N232 C233 1.358 . S
N232 C234 1.400 . S
C233 N231 1.263 . S
C233 N232 1.358 . S
C233 H239 0.930 . S
C234 N232 1.400 . S
C234 C235 1.351 . S
C234 H251 0.930 . S
C235 N231 1.389 . S
C235 C234 1.351 . S
C235 H240 0.930 . S
O236 Cu230 1.974 . S
O236 C246 1.282 . S
C237 O238 1.261 . S
C237 O250 1.251 . S
O238 C237 1.261 . S
H239 C233 0.930 . S
H240 C235 0.930 . S
N241 Cu230 1.985 . S
N241 C243 1.335 . S
N241 C244 1.390 . S
N242 C243 1.345 . S
N242 C245 1.336 . S
C243 N241 1.335 . S
C243 N242 1.345 . S
C243 H248 0.930 . S
C244 N241 1.390 . S
C244 C245 1.346 . S
C244 H249 0.930 . S
C245 N242 1.336 . S
C245 C244 1.346 . S
C245 H252 0.929 . S
C246 O236 1.282 . S
C246 O247 1.216 . S
O247 C246 1.216 . S
H248 C243 0.930 . S
H249 C244 0.930 . S
O250 Cu230 1.959 . S
O250 C237 1.251 . S
H251 C234 0.930 . S
H252 C245 0.929 . S
Cu253 N254 1.999 . S
Cu253 O259 1.974 . S
Cu253 N264 1.985 1_556 S
Cu253 O273 1.959 . S
N254 Cu253 1.999 . S
N254 C256 1.263 . S
N254 C258 1.389 . S
N255 C256 1.358 . S
N255 C257 1.400 . S
C256 N254 1.263 . S
C256 N255 1.358 . S
C256 H262 0.930 . S
C257 N255 1.400 . S
C257 C258 1.351 . S
C257 H274 0.930 . S
C258 N254 1.389 . S
C258 C257 1.351 . S
C258 H263 0.930 . S
O259 Cu253 1.974 . S
O259 C269 1.282 1_556 S
C260 O261 1.261 . S
C260 O273 1.251 1_554 S
O261 C260 1.261 . S
H262 C256 0.930 . S
H263 C258 0.930 . S
N264 Cu253 1.985 1_554 S
N264 C266 1.335 . S
N264 C267 1.390 . S
N265 C266 1.345 . S
N265 C268 1.336 . S
C266 N264 1.335 . S
C266 N265 1.345 . S
C266 H271 0.930 . S
C267 N264 1.390 . S
C267 C268 1.346 . S
C267 H272 0.930 . S
C268 N265 1.336 . S
C268 C267 1.346 . S
C268 H275 0.929 . S
C269 O259 1.282 1_554 S
C269 O270 1.216 . S
O270 C269 1.216 . S
H271 C266 0.930 . S
H272 C267 0.930 . S
O273 Cu253 1.959 . S
O273 C260 1.251 1_556 S
H274 C257 0.930 . S
H275 C268 0.929 . S
C276 C277 1.363 . S
C276 C282 1.379 . S
C276 N284 1.356 . S
C277 C276 1.363 . S
C277 C283 1.363 . S
C278 C279 1.363 . S
C278 C283 1.379 . S
C278 N285 1.356 . S
C279 C278 1.363 . S
C279 C282 1.363 . S
N280 C282 1.356 . S
N280 H292 0.984 . S
N280 H293 0.985 . S
N281 C283 1.356 . S
N281 H286 0.984 . S
N281 H287 0.985 . S
C282 C276 1.379 . S
C282 C279 1.363 . S
C282 N280 1.356 . S
C283 C277 1.363 . S
C283 C278 1.379 . S
C283 N281 1.356 . S
N284 C276 1.356 . S
N284 H290 0.984 . S
N284 H291 0.984 . S
N285 C278 1.356 . S
N285 H288 0.984 . S
N285 H289 0.985 . S
H286 N281 0.984 . S
H287 N281 0.985 . S
H288 N285 0.984 . S
H289 N285 0.985 . S
H290 N284 0.984 . S
H291 N284 0.984 . S
H292 N280 0.984 . S
H293 N280 0.985 . S
C294 C295 1.363 . S
C294 C300 1.379 . S
C294 N302 1.356 . S
C295 C294 1.363 . S
C295 C301 1.363 . S
C296 C297 1.363 . S
C296 C301 1.379 . S
C296 N303 1.356 . S
C297 C296 1.363 . S
C297 C300 1.363 . S
N298 C300 1.356 . S
N298 H310 0.984 . S
N298 H311 0.985 . S
N299 C301 1.356 . S
N299 H304 0.984 . S
N299 H305 0.985 . S
C300 C294 1.379 . S
C300 C297 1.363 . S
C300 N298 1.356 . S
C301 C295 1.363 . S
C301 C296 1.379 . S
C301 N299 1.356 . S
N302 C294 1.356 . S
N302 H308 0.984 . S
N302 H309 0.984 . S
N303 C296 1.356 . S
N303 H306 0.984 . S
N303 H307 0.985 . S
H304 N299 0.984 . S
H305 N299 0.985 . S
H306 N303 0.984 . S
H307 N303 0.985 . S
H308 N302 0.984 . S
H309 N302 0.984 . S
H310 N298 0.984 . S
H311 N298 0.985 . S
C312 C313 1.363 . S
C312 C318 1.379 . S
C312 N320 1.356 . S
C313 C312 1.363 . S
C313 C319 1.363 . S
C314 C315 1.363 . S
C314 C319 1.379 . S
C314 N321 1.356 . S
C315 C314 1.363 . S
C315 C318 1.363 . S
N316 C318 1.356 . S
N316 H328 0.984 . S
N316 H329 0.985 . S
N317 C319 1.356 . S
N317 H322 0.984 . S
N317 H323 0.985 . S
C318 C312 1.379 . S
C318 C315 1.363 . S
C318 N316 1.356 . S
C319 C313 1.363 . S
C319 C314 1.379 . S
C319 N317 1.356 . S
N320 C312 1.356 . S
N320 H326 0.984 . S
N320 H327 0.984 . S
N321 C314 1.356 . S
N321 H324 0.984 . S
N321 H325 0.985 . S
H322 N317 0.984 . S
H323 N317 0.985 . S
H324 N321 0.984 . S
H325 N321 0.985 . S
H326 N320 0.984 . S
H327 N320 0.984 . S
H328 N316 0.984 . S
H329 N316 0.985 . S
C330 C331 1.363 . S
C330 C336 1.379 . S
C330 N338 1.356 . S
C331 C330 1.363 . S
C331 C337 1.363 . S
C332 C333 1.363 . S
C332 C337 1.379 . S
C332 N339 1.356 . S
C333 C332 1.363 . S
C333 C336 1.363 . S
N334 C336 1.356 . S
N334 H346 0.984 . S
N334 H347 0.985 . S
N335 C337 1.356 . S
N335 H340 0.984 . S
N335 H341 0.985 . S
C336 C330 1.379 . S
C336 C333 1.363 . S
C336 N334 1.356 . S
C337 C331 1.363 . S
C337 C332 1.379 . S
C337 N335 1.356 . S
N338 C330 1.356 . S
N338 H344 0.984 . S
N338 H345 0.984 . S
N339 C332 1.356 . S
N339 H342 0.984 . S
N339 H343 0.985 . S
H340 N335 0.984 . S
H341 N335 0.985 . S
H342 N339 0.984 . S
H343 N339 0.985 . S
H344 N338 0.984 . S
H345 N338 0.984 . S
H346 N334 0.984 . S
H347 N334 0.985 . S
C348 C349 1.363 . S
C348 C354 1.379 . S
C348 N356 1.356 . S
C349 C348 1.363 . S
C349 C355 1.363 . S
C350 C351 1.363 . S
C350 C355 1.379 . S
C350 N357 1.356 . S
C351 C350 1.363 . S
C351 C354 1.363 . S
N352 C354 1.356 . S
N352 H364 0.984 . S
N352 H365 0.985 . S
N353 C355 1.356 . S
N353 H358 0.984 . S
N353 H359 0.985 . S
C354 C348 1.379 . S
C354 C351 1.363 . S
C354 N352 1.356 . S
C355 C349 1.363 . S
C355 C350 1.379 . S
C355 N353 1.356 . S
N356 C348 1.356 . S
N356 H362 0.984 . S
N356 H363 0.984 . S
N357 C350 1.356 . S
N357 H360 0.984 . S
N357 H361 0.985 . S
H358 N353 0.984 . S
H359 N353 0.985 . S
H360 N357 0.984 . S
H361 N357 0.985 . S
H362 N356 0.984 . S
H363 N356 0.984 . S
H364 N352 0.984 . S
H365 N352 0.985 . S
C366 C367 1.363 . S
C366 C372 1.379 . S
C366 N374 1.356 . S
C367 C366 1.363 . S
C367 C373 1.363 . S
C368 C369 1.363 . S
C368 C373 1.379 . S
C368 N375 1.356 . S
C369 C368 1.363 . S
C369 C372 1.363 . S
N370 C372 1.356 . S
N370 H382 0.984 . S
N370 H383 0.985 . S
N371 C373 1.356 . S
N371 H376 0.984 . S
N371 H377 0.985 . S
C372 C366 1.379 . S
C372 C369 1.363 . S
C372 N370 1.356 . S
C373 C367 1.363 . S
C373 C368 1.379 . S
C373 N371 1.356 . S
N374 C366 1.356 . S
N374 H380 0.984 . S
N374 H381 0.984 . S
N375 C368 1.356 . S
N375 H378 0.984 . S
N375 H379 0.985 . S
H376 N371 0.984 . S
H377 N371 0.985 . S
H378 N375 0.984 . S
H379 N375 0.985 . S
H380 N374 0.984 . S
H381 N374 0.984 . S
H382 N370 0.984 . S
H383 N370 0.985 . S
C384 C385 1.363 . S
C384 C390 1.379 . S
C384 N392 1.356 . S
C385 C384 1.363 . S
C385 C391 1.363 . S
C386 C387 1.363 . S
C386 C391 1.379 . S
C386 N393 1.356 . S
C387 C386 1.363 . S
C387 C390 1.363 . S
N388 C390 1.356 . S
N388 H400 0.984 . S
N388 H401 0.985 . S
N389 C391 1.356 . S
N389 H394 0.984 . S
N389 H395 0.985 . S
C390 C384 1.379 . S
C390 C387 1.363 . S
C390 N388 1.356 . S
C391 C385 1.363 . S
C391 C386 1.379 . S
C391 N389 1.356 . S
N392 C384 1.356 . S
N392 H398 0.984 . S
N392 H399 0.984 . S
N393 C386 1.356 . S
N393 H396 0.984 . S
N393 H397 0.985 . S
H394 N389 0.984 . S
H395 N389 0.985 . S
H396 N393 0.984 . S
H397 N393 0.985 . S
H398 N392 0.984 . S
H399 N392 0.984 . S
H400 N388 0.984 . S
H401 N388 0.985 . S
C402 C403 1.363 . S
C402 C408 1.379 . S
C402 N410 1.356 . S
C403 C402 1.363 . S
C403 C409 1.363 . S
C404 C405 1.363 . S
C404 C409 1.379 . S
C404 N411 1.356 . S
C405 C404 1.363 . S
C405 C408 1.363 . S
N406 C408 1.356 . S
N406 H418 0.984 . S
N406 H419 0.985 . S
N407 C409 1.356 . S
N407 H412 0.984 . S
N407 H413 0.985 . S
C408 C402 1.379 . S
C408 C405 1.363 . S
C408 N406 1.356 . S
C409 C403 1.363 . S
C409 C404 1.379 . S
C409 N407 1.356 . S
N410 C402 1.356 . S
N410 H416 0.984 . S
N410 H417 0.984 . S
N411 C404 1.356 . S
N411 H414 0.984 . S
N411 H415 0.985 . S
H412 N407 0.984 . S
H413 N407 0.985 . S
H414 N411 0.984 . S
H415 N411 0.985 . S
H416 N410 0.984 . S
H417 N410 0.984 . S
H418 N406 0.984 . S
H419 N406 0.985 . S
C420 C421 1.363 1_556 S
C420 C426 1.379 . S
C420 N428 1.356 . S
C421 C420 1.363 1_554 S
C421 C427 1.363 . S
C422 C423 1.363 1_554 S
C422 C427 1.379 . S
C422 N429 1.356 . S
C423 C422 1.363 1_556 S
C423 C426 1.363 . S
N424 C426 1.356 . S
N424 H436 0.984 . S
N424 H437 0.985 . S
N425 C427 1.356 . S
N425 H430 0.984 . S
N425 H431 0.985 . S
C426 C420 1.379 . S
C426 C423 1.363 . S
C426 N424 1.356 . S
C427 C421 1.363 . S
C427 C422 1.379 . S
C427 N425 1.356 . S
N428 C420 1.356 . S
N428 H434 0.984 . S
N428 H435 0.984 . S
N429 C422 1.356 . S
N429 H432 0.984 . S
N429 H433 0.985 . S
H430 N425 0.984 . S
H431 N425 0.985 . S
H432 N429 0.984 . S
H433 N429 0.985 . S
H434 N428 0.984 . S
H435 N428 0.984 . S
H436 N424 0.984 . S
H437 N424 0.985 . S
C438 C439 1.363 . S
C438 C444 1.379 . S
C438 N446 1.356 . S
C439 C438 1.363 . S
C439 C445 1.363 . S
C440 C441 1.363 . S
C440 C445 1.379 . S
C440 N447 1.356 . S
C441 C440 1.363 . S
C441 C444 1.363 . S
N442 C444 1.356 . S
N442 H454 0.984 . S
N442 H455 0.985 . S
N443 C445 1.356 . S
N443 H448 0.984 . S
N443 H449 0.985 . S
C444 C438 1.379 . S
C444 C441 1.363 . S
C444 N442 1.356 . S
C445 C439 1.363 . S
C445 C440 1.379 . S
C445 N443 1.356 . S
N446 C438 1.356 . S
N446 H452 0.984 . S
N446 H453 0.984 . S
N447 C440 1.356 . S
N447 H450 0.984 . S
N447 H451 0.985 . S
H448 N443 0.984 . S
H449 N443 0.985 . S
H450 N447 0.984 . S
H451 N447 0.985 . S
H452 N446 0.984 . S
H453 N446 0.984 . S
H454 N442 0.984 . S
H455 N442 0.985 . S
C456 C457 1.363 . S
C456 C462 1.379 . S
C456 N464 1.356 . S
C457 C456 1.363 . S
C457 C463 1.363 . S
C458 C459 1.363 . S
C458 C463 1.379 . S
C458 N465 1.356 . S
C459 C458 1.363 . S
C459 C462 1.363 . S
N460 C462 1.356 . S
N460 H472 0.984 . S
N460 H473 0.985 . S
N461 C463 1.356 . S
N461 H466 0.984 . S
N461 H467 0.985 . S
C462 C456 1.379 . S
C462 C459 1.363 . S
C462 N460 1.356 . S
C463 C457 1.363 . S
C463 C458 1.379 . S
C463 N461 1.356 . S
N464 C456 1.356 . S
N464 H470 0.984 . S
N464 H471 0.984 . S
N465 C458 1.356 . S
N465 H468 0.984 . S
N465 H469 0.985 . S
H466 N461 0.984 . S
H467 N461 0.985 . S
H468 N465 0.984 . S
H469 N465 0.985 . S
H470 N464 0.984 . S
H471 N464 0.984 . S
H472 N460 0.984 . S
H473 N460 0.985 . S
C474 C475 1.363 . S
C474 C480 1.379 . S
C474 N482 1.356 . S
C475 C474 1.363 . S
C475 C481 1.363 1_556 S
C476 C477 1.363 . S
C476 C481 1.379 . S
C476 N483 1.356 . S
C477 C476 1.363 . S
C477 C480 1.363 1_554 S
N478 C480 1.356 . S
N478 H490 0.984 . S
N478 H491 0.985 . S
N479 C481 1.356 . S
N479 H484 0.984 . S
N479 H485 0.985 . S
C480 C474 1.379 . S
C480 C477 1.363 1_556 S
C480 N478 1.356 . S
C481 C475 1.363 1_554 S
C481 C476 1.379 . S
C481 N479 1.356 . S
N482 C474 1.356 . S
N482 H488 0.984 . S
N482 H489 0.984 . S
N483 C476 1.356 . S
N483 H486 0.984 . S
N483 H487 0.985 . S
H484 N479 0.984 . S
H485 N479 0.985 . S
H486 N483 0.984 . S
H487 N483 0.985 . S
H488 N482 0.984 . S
H489 N482 0.984 . S
H490 N478 0.984 . S
H491 N478 0.985 . S
C492 C493 1.363 . S
C492 C498 1.379 . S
C492 N500 1.356 . S
C493 C492 1.363 . S
C493 C499 1.363 1_545 S
C494 C495 1.363 . S
C494 C499 1.379 . S
C494 N501 1.356 . S
C495 C494 1.363 . S
C495 C498 1.363 1_565 S
N496 C498 1.356 . S
N496 H508 0.984 . S
N496 H509 0.985 1_545 S
N497 C499 1.356 . S
N497 H502 0.984 1_565 S
N497 H503 0.985 . S
C498 C492 1.379 . S
C498 C495 1.363 1_545 S
C498 N496 1.356 . S
C499 C493 1.363 1_565 S
C499 C494 1.379 . S
C499 N497 1.356 . S
N500 C492 1.356 . S
N500 H506 0.984 . S
N500 H507 0.984 . S
N501 C494 1.356 . S
N501 H504 0.984 . S
N501 H505 0.985 . S
H502 N497 0.984 1_545 S
H503 N497 0.985 . S
H504 N501 0.984 . S
H505 N501 0.985 . S
H506 N500 0.984 . S
H507 N500 0.984 . S
H508 N496 0.984 . S
H509 N496 0.985 1_565 S
C510 C511 1.363 . S
C510 C516 1.379 . S
C510 N518 1.356 . S
C511 C510 1.363 . S
C511 C517 1.363 . S
C512 C513 1.363 . S
C512 C517 1.379 . S
C512 N519 1.356 . S
C513 C512 1.363 . S
C513 C516 1.363 . S
N514 C516 1.356 . S
N514 H526 0.984 . S
N514 H527 0.985 . S
N515 C517 1.356 . S
N515 H520 0.984 . S
N515 H521 0.985 . S
C516 C510 1.379 . S
C516 C513 1.363 . S
C516 N514 1.356 . S
C517 C511 1.363 . S
C517 C512 1.379 . S
C517 N515 1.356 . S
N518 C510 1.356 . S
N518 H524 0.984 . S
N518 H525 0.984 . S
N519 C512 1.356 . S
N519 H522 0.984 . S
N519 H523 0.985 . S
H520 N515 0.984 . S
H521 N515 0.985 . S
H522 N519 0.984 . S
H523 N519 0.985 . S
H524 N518 0.984 . S
H525 N518 0.984 . S
H526 N514 0.984 . S
H527 N514 0.985 . S
C528 C529 1.381 1_556 S
C528 C534 1.369 1_655 S
C528 N536 1.353 . S
C529 C528 1.381 1_554 S
C529 C535 1.364 . S
C530 C531 1.383 . S
C530 C535 1.369 1_455 S
C530 N537 1.353 . S
C531 C530 1.383 . S
C531 C534 1.362 1_554 S
N532 C534 1.356 . S
N532 H544 0.984 . S
N532 H545 0.985 . S
N533 C535 1.356 . S
N533 H538 0.984 . S
N533 H539 0.985 . S
C534 C528 1.369 1_455 S
C534 C531 1.362 1_556 S
C534 N532 1.356 . S
C535 C529 1.364 . S
C535 C530 1.369 1_655 S
C535 N533 1.356 . S
N536 C528 1.353 . S
N536 H542 0.984 1_655 S
N536 H543 0.984 . S
N537 C530 1.353 . S
N537 H540 0.984 . S
N537 H541 0.985 1_455 S
H538 N533 0.984 . S
H539 N533 0.985 . S
H540 N537 0.984 . S
H541 N537 0.985 1_655 S
H542 N536 0.984 1_455 S
H543 N536 0.984 . S
H544 N532 0.984 . S
H545 N532 0.985 . S
C546 C547 1.363 1_655 S
C546 C552 1.379 . S
C546 N554 1.356 . S
C547 C546 1.363 1_455 S
C547 C553 1.363 . S
C548 C549 1.363 1_455 S
C548 C553 1.379 . S
C548 N555 1.356 . S
C549 C548 1.363 1_655 S
C549 C552 1.363 . S
N550 C552 1.356 . S
N550 H562 0.984 . S
N550 H563 0.985 . S
N551 C553 1.356 . S
N551 H556 0.984 . S
N551 H557 0.985 . S
C552 C546 1.379 . S
C552 C549 1.363 . S
C552 N550 1.356 . S
C553 C547 1.363 . S
C553 C548 1.379 . S
C553 N551 1.356 . S
N554 C546 1.356 . S
N554 H560 0.984 . S
N554 H561 0.984 1_655 S
N555 C548 1.356 . S
N555 H558 0.984 1_455 S
N555 H559 0.985 . S
H556 N551 0.984 . S
H557 N551 0.985 . S
H558 N555 0.984 1_655 S
H559 N555 0.985 . S
H560 N554 0.984 . S
H561 N554 0.984 1_455 S
H562 N550 0.984 . S
H563 N550 0.985 . S
C564 C565 1.363 1_565 S
C564 C570 1.379 . S
C564 N572 1.356 . S
C565 C564 1.363 1_545 S
C565 C571 1.363 . S
C566 C567 1.363 1_545 S
C566 C571 1.379 . S
C566 N573 1.356 . S
C567 C566 1.363 1_565 S
C567 C570 1.363 . S
N568 C570 1.356 . S
N568 H580 0.984 . S
N568 H581 0.985 . S
N569 C571 1.356 . S
N569 H574 0.984 . S
N569 H575 0.985 . S
C570 C564 1.379 . S
C570 C567 1.363 . S
C570 N568 1.356 . S
C571 C565 1.363 . S
C571 C566 1.379 . S
C571 N569 1.356 . S
N572 C564 1.356 . S
N572 H578 0.984 . S
N572 H579 0.984 1_565 S
N573 C566 1.356 . S
N573 H576 0.984 1_545 S
N573 H577 0.985 . S
H574 N569 0.984 . S
H575 N569 0.985 . S
H576 N573 0.984 1_565 S
H577 N573 0.985 . S
H578 N572 0.984 . S
H579 N572 0.984 1_545 S
H580 N568 0.984 . S
H581 N568 0.985 . S
C582 C583 1.363 . S
C582 C588 1.379 . S
C582 N590 1.356 . S
C583 C582 1.363 . S
C583 C589 1.363 1_554 S
C584 C585 1.363 1_556 S
C584 C589 1.379 . S
C584 N591 1.356 . S
C585 C584 1.363 1_554 S
C585 C588 1.363 . S
N586 C588 1.356 . S
N586 H598 0.984 . S
N586 H599 0.985 . S
N587 C589 1.356 . S
N587 H592 0.984 . S
N587 H593 0.985 . S
C588 C582 1.379 . S
C588 C585 1.363 . S
C588 N586 1.356 . S
C589 C583 1.363 1_556 S
C589 C584 1.379 . S
C589 N587 1.356 . S
N590 C582 1.356 . S
N590 H596 0.984 . S
N590 H597 0.984 . S
N591 C584 1.356 . S
N591 H594 0.984 . S
N591 H595 0.985 . S
H592 N587 0.984 . S
H593 N587 0.985 . S
H594 N591 0.984 . S
H595 N591 0.985 . S
H596 N590 0.984 . S
H597 N590 0.984 . S
H598 N586 0.984 . S
H599 N586 0.985 . S
C600 C601 1.363 . S
C600 C606 1.379 . S
C600 N608 1.356 . S
C601 C600 1.363 . S
C601 C607 1.363 . S
C602 C603 1.363 . S
C602 C607 1.379 . S
C602 N609 1.356 . S
C603 C602 1.363 . S
C603 C606 1.363 . S
N604 C606 1.356 . S
N604 H616 0.984 . S
N604 H617 0.985 . S
N605 C607 1.356 . S
N605 H610 0.984 . S
N605 H611 0.985 . S
C606 C600 1.379 . S
C606 C603 1.363 . S
C606 N604 1.356 . S
C607 C601 1.363 . S
C607 C602 1.379 . S
C607 N605 1.356 . S
N608 C600 1.356 . S
N608 H614 0.984 . S
N608 H615 0.984 . S
N609 C602 1.356 . S
N609 H612 0.984 . S
N609 H613 0.985 . S
H610 N605 0.984 . S
H611 N605 0.985 . S
H612 N609 0.984 . S
H613 N609 0.985 . S
H614 N608 0.984 . S
H615 N608 0.984 . S
H616 N604 0.984 . S
H617 N604 0.985 . S
C618 C619 1.363 . S
C618 C624 1.379 . S
C618 N626 1.356 . S
C619 C618 1.363 . S
C619 C625 1.363 . S
C620 C621 1.363 . S
C620 C625 1.379 . S
C620 N627 1.356 . S
C621 C620 1.363 . S
C621 C624 1.363 . S
N622 C624 1.356 . S
N622 H634 0.984 . S
N622 H635 0.985 . S
N623 C625 1.356 . S
N623 H628 0.984 . S
N623 H629 0.985 . S
C624 C618 1.379 . S
C624 C621 1.363 . S
C624 N622 1.356 . S
C625 C619 1.363 . S
C625 C620 1.379 . S
C625 N623 1.356 . S
N626 C618 1.356 . S
N626 H632 0.984 . S
N626 H633 0.984 . S
N627 C620 1.356 . S
N627 H630 0.984 . S
N627 H631 0.985 . S
H628 N623 0.984 . S
H629 N623 0.985 . S
H630 N627 0.984 . S
H631 N627 0.985 . S
H632 N626 0.984 . S
H633 N626 0.984 . S
H634 N622 0.984 . S
H635 N622 0.985 . S
C636 C637 1.363 . S
C636 C642 1.379 . S
C636 N644 1.356 . S
C637 C636 1.363 . S
C637 C643 1.363 . S
C638 C639 1.363 . S
C638 C643 1.379 . S
C638 N645 1.356 . S
C639 C638 1.363 . S
C639 C642 1.363 . S
N640 C642 1.356 . S
N640 H652 0.984 . S
N640 H653 0.985 . S
N641 C643 1.356 . S
N641 H646 0.984 . S
N641 H647 0.985 . S
C642 C636 1.379 . S
C642 C639 1.363 . S
C642 N640 1.356 . S
C643 C637 1.363 . S
C643 C638 1.379 . S
C643 N641 1.356 . S
N644 C636 1.356 . S
N644 H650 0.984 . S
N644 H651 0.984 . S
N645 C638 1.356 . S
N645 H648 0.984 . S
N645 H649 0.985 . S
H646 N641 0.984 . S
H647 N641 0.985 . S
H648 N645 0.984 . S
H649 N645 0.985 . S
H650 N644 0.984 . S
H651 N644 0.984 . S
H652 N640 0.984 . S
H653 N640 0.985 . S
C654 C655 1.363 . S
C654 C660 1.379 . S
C654 N662 1.356 . S
C655 C654 1.363 . S
C655 C661 1.363 . S
C656 C657 1.363 . S
C656 C661 1.379 . S
C656 N663 1.356 . S
C657 C656 1.363 . S
C657 C660 1.363 . S
N658 C660 1.356 . S
N658 H670 0.984 . S
N658 H671 0.985 . S
N659 C661 1.356 . S
N659 H664 0.984 . S
N659 H665 0.985 . S
C660 C654 1.379 . S
C660 C657 1.363 . S
C660 N658 1.356 . S
C661 C655 1.363 . S
C661 C656 1.379 . S
C661 N659 1.356 . S
N662 C654 1.356 . S
N662 H668 0.984 . S
N662 H669 0.984 . S
N663 C656 1.356 . S
N663 H666 0.984 . S
N663 H667 0.985 . S
H664 N659 0.984 . S
H665 N659 0.985 . S
H666 N663 0.984 . S
H667 N663 0.985 . S
H668 N662 0.984 . S
H669 N662 0.984 . S
H670 N658 0.984 . S
H671 N658 0.985 . S
C672 C673 1.363 . S
C672 C678 1.379 . S
C672 N680 1.356 . S
C673 C672 1.363 . S
C673 C679 1.363 . S
C674 C675 1.363 . S
C674 C679 1.379 . S
C674 N681 1.356 . S
C675 C674 1.363 . S
C675 C678 1.363 . S
N676 C678 1.356 . S
N676 H688 0.984 . S
N676 H689 0.985 . S
N677 C679 1.356 . S
N677 H682 0.984 . S
N677 H683 0.985 . S
C678 C672 1.379 . S
C678 C675 1.363 . S
C678 N676 1.356 . S
C679 C673 1.363 . S
C679 C674 1.379 . S
C679 N677 1.356 . S
N680 C672 1.356 . S
N680 H686 0.984 . S
N680 H687 0.984 . S
N681 C674 1.356 . S
N681 H684 0.984 . S
N681 H685 0.985 . S
H682 N677 0.984 . S
H683 N677 0.985 . S
H684 N681 0.984 . S
H685 N681 0.985 . S
H686 N680 0.984 . S
H687 N680 0.984 . S
H688 N676 0.984 . S
H689 N676 0.985 . S
C690 C691 1.363 . S
C690 C696 1.379 . S
C690 N698 1.356 . S
C691 C690 1.363 . S
C691 C697 1.363 . S
C692 C693 1.363 . S
C692 C697 1.379 . S
C692 N699 1.356 . S
C693 C692 1.363 . S
C693 C696 1.363 . S
N694 C696 1.356 . S
N694 H706 0.984 . S
N694 H707 0.985 . S
N695 C697 1.356 . S
N695 H700 0.984 . S
N695 H701 0.985 . S
C696 C690 1.379 . S
C696 C693 1.363 . S
C696 N694 1.356 . S
C697 C691 1.363 . S
C697 C692 1.379 . S
C697 N695 1.356 . S
N698 C690 1.356 . S
N698 H704 0.984 . S
N698 H705 0.984 . S
N699 C692 1.356 . S
N699 H702 0.984 . S
N699 H703 0.985 . S
H700 N695 0.984 . S
H701 N695 0.985 . S
H702 N699 0.984 . S
H703 N699 0.985 . S
H704 N698 0.984 . S
H705 N698 0.984 . S
H706 N694 0.984 . S
H707 N694 0.985 . S
C277 C7 1.921 . S
C279 C237 1.921 . S
C295 C30 1.492 . S
C297 N255 1.413 . S
C313 C145 1.492 . S
C315 N48 1.413 . S
C331 C76 1.920 . S
C333 C168 1.920 . S
C349 N186 1.413 . S
C351 C99 1.492 . S
C367 C214 1.492 . S
C369 N117 1.413 . S
C385 N140 1.054 . S
C387 N2 1.106 . S
C403 N163 1.106 . S
C405 N25 1.054 . S
C421 C191 1.682 . S
C423 C53 1.682 . S
C439 N71 1.106 . S
C441 N209 1.054 . S
C457 N94 1.054 . S
C459 N232 1.106 . S
C475 C122 1.682 . S
C477 C260 1.682 . S
C493 N12 2.504 . S
C495 N81 2.504 . S
C511 N35 2.329 . S
C513 N104 2.329 . S
C529 C62 2.423 1_554 S
C531 C131 2.423 1_554 S
C547 N219 2.329 . S
C549 N150 2.329 . S
C565 N242 2.504 . S
C567 N173 2.504 . S
C583 C269 2.423 . S
C585 C200 2.423 . S
C601 C16 2.123 . S
C603 N196 2.149 . S
C619 C223 1.818 . S
C621 C39 1.818 . S
C637 N58 2.149 . S
C639 C246 2.123 . S
C655 N265 2.149 . S
C657 C85 2.123 . S
C673 C108 1.818 . S
C675 C154 1.818 . S
C691 N127 2.149 . S
C693 C177 2.123 . S
