# Generated by pormake.
# Topology rob, (6)-cn, num edge types: 1
# Building blocks:
#     Node 0, Type 0, BuildingBlock: KUMJIN_clean_sbu_1, # of connection points: 6
#     Node 1, Type 0, BuildingBlock: KUMJIN_clean_sbu_1, # of connection points: 6
#     Node 2, Type 0, BuildingBlock: KUMJIN_clean_sbu_1, # of connection points: 6
#     Node 3, Type 0, BuildingBlock: KUMJIN_clean_sbu_1, # of connection points: 6
#     Edge 4, Type (0, 0), BuildingBlock: XIVTED_clean_linker_0, # of connection points: 2
#     Edge 5, Type (0, 0), BuildingBlock: XIVTED_clean_linker_0, # of connection points: 2
#     Edge 6, Type (0, 0), BuildingBlock: XIVTED_clean_linker_0, # of connection points: 2
#     Edge 7, Type (0, 0), BuildingBlock: XIVTED_clean_linker_0, # of connection points: 2
#     Edge 8, Type (0, 0), BuildingBlock: XIVTED_clean_linker_0, # of connection points: 2
#     Edge 9, Type (0, 0), BuildingBlock: XIVTED_clean_linker_0, # of connection points: 2
#     Edge 10, Type (0, 0), BuildingBlock: XIVTED_clean_linker_0, # of connection points: 2
#     Edge 11, Type (0, 0), BuildingBlock: XIVTED_clean_linker_0, # of connection points: 2
#     Edge 12, Type (0, 0), BuildingBlock: XIVTED_clean_linker_0, # of connection points: 2
#     Edge 13, Type (0, 0), BuildingBlock: XIVTED_clean_linker_0, # of connection points: 2
#     Edge 14, Type (0, 0), BuildingBlock: XIVTED_clean_linker_0, # of connection points: 2
#     Edge 15, Type (0, 0), BuildingBlock: XIVTED_clean_linker_0, # of connection points: 2
# Relax obj value: 0.020
# Max RMSD: 0.112
# Mean RMSD: 0.112
data_MOF--net-rob--node1-KUMJIN_clean_sbu_1--edge1-XIVTED_clean_linker_0
_symmetry_space_group_name_H-M    P1
_symmetry_Int_Tables_number       1
_symmetry_cell_setting            triclinic
loop_
_symmetry_equiv_pos_as_xyz
'x, y, z'
_cell_length_a     18.604521
_cell_length_b     23.833959
_cell_length_c     34.550683
_cell_angle_alpha  110.7812
_cell_angle_beta   90.35671
_cell_angle_gamma 90.075618
loop_
_atom_site_label
_atom_site_type_symbol
_atom_site_fract_x
_atom_site_fract_y
_atom_site_fract_z
_atom_type_partial_charge
Eu0 Eu 0.33017 0.18397 0.96333 0.0
C1 C 0.13038 0.40886 0.05869 0.0
N2 N 0.19803 0.39757 0.06908 0.0
C3 C 0.22867 0.50174 0.08893 0.0
C4 C 0.10916 0.46768 0.06338 0.0
C5 C 0.24695 0.44284 0.08436 0.0
C6 C 0.15947 0.51425 0.0784 0.0
C7 C 1.01059 0.37215 0.03401 0.0
C8 C 0.0815 0.36159 0.04431 0.0
C9 C 0.98939 0.4307 0.03864 0.0
C10 C 0.03841 0.47832 0.05352 0.0
Eu11 Eu 0.22273 0.29747 0.06213 0.0
N12 N 0.10329 0.3054 0.04067 0.0
C13 C 0.96275 0.32365 0.01995 0.0
C14 C 0.05598 0.25854 0.02867 0.0
C15 C 0.98547 0.26669 0.0175 0.0
H16 H 0.29953 0.43374 0.09402 0.0
H17 H 0.94837 0.22917 1.00756 0.0
H18 H 0.26355 0.04567 0.94422 0.0
H19 H 0.60059 0.2734 0.01309 0.0
H20 H 0.07181 0.21501 0.02819 0.0
H21 H 0.90787 0.32989 0.01162 0.0
H22 H 0.47526 0.27733 0.99227 0.0
H23 H 0.26765 0.53756 0.10109 0.0
H24 H 0.93506 0.43971 0.03101 0.0
H25 H 0.0211 0.52329 0.05725 0.0
H26 H 0.30692 0.9467 0.9421 0.0
H27 H 0.14519 0.56003 0.08236 0.0
H28 H 0.65167 0.17782 0.01321 0.0
N29 N 0.36428 0.08896 0.96341 0.0
C30 C 0.43449 0.08315 0.97248 0.0
C31 C 0.34323 0.98475 0.95081 0.0
C32 C 0.46205 0.027 0.97022 0.0
C33 C 0.31857 0.04098 0.95258 0.0
C34 C 0.41531 0.97768 0.95955 0.0
N35 N 0.45107 0.18747 0.98612 0.0
C36 C 0.49455 0.23659 0.99494 0.0
C37 C 0.55192 0.1286 0.99398 0.0
C38 C 0.47892 0.13367 0.98432 0.0
C39 C 0.59543 0.17987 1.00549 0.0
C40 C 0.56669 0.23398 1.00569 0.0
H41 H 0.43441 0.93392 0.95781 0.0
H42 H 0.55765 0.97861 0.97586 0.0
H43 H 0.6358 0.06765 0.99775 0.0
O44 O 0.38075 0.20205 0.91172 0.0
O45 O 0.3456 0.17385 0.02585 0.0
O46 O 0.33719 0.27112 0.06985 0.0
O47 O 0.33614 0.11445 0.90208 0.0
O48 O 0.34278 0.28491 0.97928 0.0
O49 O 0.33352 0.32592 0.05035 0.0
O50 O 0.17407 0.27118 0.11078 0.0
O51 O 0.19853 0.30342 0.9988 0.0
O52 O 0.21664 0.20798 0.95148 0.0
O53 O 0.22331 0.35851 0.12659 0.0
O54 O 0.20316 0.19698 0.04358 0.0
O55 O 0.21889 0.1528 0.97259 0.0
C56 C 0.35677 0.21552 0.06222 0.0
C57 C 0.33916 0.14507 0.84401 0.0
C58 C 0.36322 0.14477 0.77444 0.0
C59 C 0.29075 0.13012 0.76382 0.0
C60 C 0.26689 0.13088 0.83286 0.0
C61 C 0.24289 0.12372 0.79301 0.0
C62 C 0.38692 0.15263 0.81483 0.0
C63 C 0.35366 0.32913 0.0148 0.0
C64 C 0.3667 0.14881 0.88495 0.0
C65 C 0.53515 0.02171 0.97852 0.0
C66 C 0.57971 0.07244 0.99091 0.0
C67 C 0.18845 0.26181 0.96207 0.0
C68 C 0.12473 0.35011 0.16706 0.0
C69 C 0.05625 0.36507 0.23013 0.0
C70 C 1.00827 0.40191 0.21852 0.0
C71 C 0.07593 0.3869 0.15621 0.0
C72 C 0.11442 0.33887 0.20398 0.0
C73 C 0.01772 0.41203 0.18154 0.0
C74 C 0.19157 0.15333 1.00784 0.0
C75 C 0.18586 0.32296 0.13992 0.0
H76 H 0.27098 0.12426 0.73306 0.0
H77 H 0.22935 0.12444 0.85474 0.0
H78 H 0.18711 0.11267 0.7846 0.0
H79 H 0.44293 0.16304 0.82322 0.0
H80 H 0.96225 0.4216 0.23751 0.0
H81 H 0.08261 0.39626 0.1282 0.0
H82 H 0.15169 0.31014 0.21242 0.0
H83 H 0.9796 0.43929 0.17233 0.0
Eu84 Eu 0.81813 0.6875 0.96118 0.0
C85 C 0.61745 0.91155 0.05756 0.0
N86 N 0.68684 0.90135 0.06569 0.0
C87 C 0.71466 0.0058 0.08392 0.0
C88 C 0.5937 0.97009 0.06325 0.0
C89 C 0.73541 0.94725 0.07882 0.0
C90 C 0.64342 0.01735 0.07627 0.0
C91 C 0.4966 0.8732 0.03714 0.0
C92 C 0.56927 0.86351 0.04479 0.0
C93 C 0.47283 0.93154 0.04314 0.0
C94 C 0.5211 0.97981 0.05644 0.0
Eu95 Eu 0.71429 0.80242 0.06033 0.0
N96 N 0.59327 0.80761 0.04042 0.0
C97 C 0.44955 0.82409 0.02447 0.0
C98 C 0.54684 0.76016 0.0298 0.0
C99 C 0.47478 0.76739 0.02092 0.0
H100 H 0.78963 0.93904 0.08659 0.0
H101 H 0.43838 0.72939 0.01215 0.0
H102 H 0.7419 0.55097 0.93088 0.0
H103 H 0.09167 0.75825 0.01636 0.0
H104 H 0.56425 0.71694 0.02905 0.0
H105 H 0.39342 0.82968 0.01815 0.0
H106 H 0.96774 0.77161 0.99626 0.0
H107 H 0.7533 0.04215 0.09448 0.0
H108 H 0.41706 0.93989 0.0378 0.0
H109 H 0.5019 0.02453 0.06094 0.0
H110 H 0.77573 0.44726 0.92295 0.0
H111 H 0.62721 0.06292 0.08087 0.0
H112 H 0.13405 0.6575 0.01103 0.0
N113 N 0.84385 0.58774 0.95463 0.0
C114 C 0.91197 0.57694 0.96458 0.0
C115 C 0.81447 0.48333 0.93482 0.0
C116 C 0.93428 0.51814 0.95926 0.0
C117 C 0.79514 0.54218 0.93985 0.0
C118 C 0.88442 0.47119 0.94443 0.0
N119 N 0.93753 0.68084 0.98318 0.0
C120 C 0.9842 0.72812 0.99546 0.0
C121 C 0.03164 0.61452 0.98881 0.0
C122 C 0.96025 0.62467 0.97903 0.0
C123 C 0.07885 0.66342 1.00309 0.0
C124 C 0.05507 0.7204 1.00626 0.0
H125 H 0.89954 0.42543 0.94 0.0
H126 H 0.02401 0.46288 0.96372 0.0
H127 H 0.10881 0.54726 0.99038 0.0
O128 O 0.8683 0.71229 0.91237 0.0
O129 O 0.83907 0.67896 0.02392 0.0
O130 O 0.82842 0.77574 0.06902 0.0
O131 O 0.81674 0.62578 0.89696 0.0
O132 O 0.83488 0.78801 0.97772 0.0
O133 O 0.82536 0.83083 0.04876 0.0
O134 O 0.66792 0.77864 0.11054 0.0
O135 O 0.68897 0.80964 0.9972 0.0
O136 O 0.70386 0.71282 0.9527 0.0
O137 O 0.71582 0.86612 0.12403 0.0
O138 O 0.6957 0.70196 0.04355 0.0
O139 O 0.70704 0.65861 0.97248 0.0
C140 C 0.84955 0.72025 0.06063 0.0
C141 C 0.91557 0.63245 0.85607 0.0
C142 C 0.98391 0.61861 0.79331 0.0
C143 C 0.02909 0.57816 0.80302 0.0
C144 C 0.96144 0.59206 0.86518 0.0
C145 C 0.01827 0.56561 0.83901 0.0
C146 C 0.92744 0.64612 0.82026 0.0
C147 C 0.84854 0.8316 0.01308 0.0
C148 C 0.85529 0.66055 0.88347 0.0
C149 C 1.00566 0.50788 0.96825 0.0
C150 C 0.05403 0.55595 0.9833 0.0
C151 C 0.67971 0.76738 0.96064 0.0
C152 C 0.6195 0.85856 0.16628 0.0
C153 C 0.55273 0.87234 0.22957 0.0
C154 C 0.50349 0.90881 0.21849 0.0
C155 C 0.56982 0.89524 0.15599 0.0
C156 C 0.61057 0.84691 0.20307 0.0
C157 C 0.5117 0.91949 0.18163 0.0
C158 C 0.68363 0.65781 1.00816 0.0
C159 C 0.67984 0.83128 0.13866 0.0
H160 H 0.07355 0.55701 0.7831 0.0
H161 H 0.95338 0.5807 0.89232 0.0
H162 H 0.05394 0.53511 0.8466 0.0
H163 H 0.8922 0.67735 0.81307 0.0
H164 H 0.45766 0.92788 0.23786 0.0
H165 H 0.57571 0.9053 0.12827 0.0
H166 H 0.6486 0.8183 0.2111 0.0
H167 H 0.47291 0.9467 0.17284 0.0
Eu168 Eu 0.32009 0.79705 0.55899 0.0
C169 C 0.09942 0.59064 0.47362 0.0
N170 N 0.17104 0.5929 0.46662 0.0
C171 C 0.18445 0.49076 0.46199 0.0
C172 C 0.06756 0.53774 0.47517 0.0
C173 C 0.21374 0.54414 0.46076 0.0
C174 C 0.11098 0.48739 0.46892 0.0
C175 C 0.9835 0.64021 0.4868 0.0
C176 C 0.05791 0.6415 0.47928 0.0
C177 C 0.95185 0.58777 0.48879 0.0
C178 C 0.99356 0.5365 0.48248 0.0
Eu179 Eu 0.21361 0.68181 0.45944 0.0
N180 N 0.08958 0.69134 0.47611 0.0
C181 C 0.94246 0.691 0.49066 0.0
C182 C 0.04833 0.73871 0.47627 0.0
C183 C 0.97488 0.74013 0.48479 0.0
H184 H 0.27003 0.54589 0.45396 0.0
H185 H 0.94288 0.77841 0.48556 0.0
H186 H 0.24551 0.93309 0.58144 0.0
H187 H 0.59547 0.72289 0.51315 0.0
H188 H 0.07054 0.77438 0.46799 0.0
H189 H 0.88524 0.69181 0.49649 0.0
H190 H 0.46957 0.71088 0.52926 0.0
H191 H 0.21834 0.45197 0.45696 0.0
H192 H 0.89478 0.586 0.49436 0.0
H193 H 0.96796 0.496 0.48315 0.0
H194 H 0.28198 0.03488 0.58578 0.0
H195 H 0.08826 0.44562 0.46912 0.0
H196 H 0.64144 0.82274 0.51851 0.0
N197 N 0.34851 0.89529 0.563 0.0
C198 C 0.4183 0.90525 0.55581 0.0
C199 C 0.32074 -0.00122 0.57715 0.0
C200 C 0.44212 0.96317 0.55958 0.0
C201 C 0.2999 0.94094 0.57401 0.0
C202 C 0.39211 0.00994 0.56981 0.0
N203 N 0.44128 0.80134 0.53968 0.0
C204 C 0.48727 0.75389 0.52974 0.0
C205 C 0.53873 0.86652 0.53656 0.0
C206 C 0.46603 0.85718 0.5441 0.0
C207 C 0.58529 0.81739 0.52464 0.0
C208 C 0.55945 0.7609 0.52136 0.0
H209 H 0.40819 0.05488 0.57244 0.0
H210 H 0.5343 0.01702 0.55663 0.0
H211 H 0.61881 0.93261 0.53654 0.0
O212 O 0.36674 0.77551 0.61049 0.0
O213 O 0.34373 0.8051 0.4967 0.0
O214 O 0.32685 0.70933 0.45 0.0
O215 O 0.32465 0.86417 0.62128 0.0
O216 O 0.33887 0.69681 0.54239 0.0
O217 O 0.32427 0.65227 0.47137 0.0
O218 O 0.16705 0.68693 0.40137 0.0
O219 O 0.19736 0.67345 0.52254 0.0
O220 O 0.20532 0.77128 0.56648 0.0
O221 O 0.2216 0.60611 0.40174 0.0
O222 O 0.20089 0.78263 0.47409 0.0
O223 O 0.20908 0.82401 0.54547 0.0
C224 C 0.3527 0.76393 0.45993 0.0
C225 C 0.32575 0.83101 0.67828 0.0
C226 C 0.34968 0.8307 0.74789 0.0
C227 C 0.27686 0.84368 0.75763 0.0
C228 C 0.25328 0.84381 0.68859 0.0
C229 C 0.229 0.84975 0.72802 0.0
C230 C 0.37356 0.82398 0.70789 0.0
C231 C 0.34985 0.65249 0.50702 0.0
C232 C 0.35366 0.82837 0.63785 0.0
C233 C 0.51482 0.97266 0.55312 0.0
C234 C 0.56293 0.92452 0.54161 0.0
C235 C 0.18238 0.71609 0.55785 0.0
C236 C 0.17352 0.60089 0.33527 0.0
C237 C 0.11785 0.59454 0.26935 0.0
C238 C 0.14578 0.53625 0.25113 0.0
C239 C 0.2001 0.54235 0.31608 0.0
C240 C 0.13265 0.62713 0.31158 0.0
C241 C 0.18641 0.51049 0.27436 0.0
C242 C 0.18805 0.8263 0.5096 0.0
C243 C 0.18666 0.63214 0.38019 0.0
H244 H 0.25681 0.84854 0.78801 0.0
H245 H 0.21583 0.85014 0.66642 0.0
H246 H 0.17301 0.85962 0.73579 0.0
H247 H 0.42979 0.81492 0.70012 0.0
H248 H 0.1365 0.51049 0.21867 0.0
H249 H 0.23132 0.52079 0.33338 0.0
H250 H 0.11089 0.67181 0.3261 0.0
H251 H 0.20716 0.46547 0.25996 0.0
Eu252 Eu 0.81305 0.29642 0.56134 0.0
C253 C 0.60109 0.0804 0.47093 0.0
N254 N 0.67294 0.08617 0.4663 0.0
C255 C 0.69126 0.98334 0.45879 0.0
C256 C 0.57152 0.02511 0.46941 0.0
C257 C 0.71822 0.03894 0.46046 0.0
C258 C 0.61752 0.97621 0.46284 0.0
C259 C 0.48245 0.12535 0.48324 0.0
C260 C 0.55701 0.13014 0.47753 0.0
C261 C 0.45301 0.07035 0.48183 0.0
C262 C 0.49723 0.02022 0.47434 0.0
Eu263 Eu 0.71076 0.17783 0.46167 0.0
N264 N 0.58655 0.18261 0.47758 0.0
C265 C 0.43913 0.17553 0.48903 0.0
C266 C 0.54342 0.23007 0.48024 0.0
C267 C 0.46969 0.22791 0.48714 0.0
H268 H 0.77479 0.04351 0.45558 0.0
H269 H 0.43612 0.26612 0.48974 0.0
H270 H 0.73269 0.43057 0.58955 0.0
H271 H 0.09118 0.23417 0.51531 0.0
H272 H 0.56427 0.26878 0.47524 0.0
H273 H 0.38173 0.17367 0.49361 0.0
H274 H 0.9661 0.21673 0.5305 0.0
H275 H 0.7272 0.94575 0.45364 0.0
H276 H 0.39585 0.06587 0.48589 0.0
H277 H 0.47347 0.97793 0.47273 0.0
H278 H 0.76376 0.5353 0.59834 0.0
H279 H 0.59666 0.93279 0.46083 0.0
H280 H 0.13163 0.33644 0.52294 0.0
N281 N 0.8365 0.39697 0.56886 0.0
C282 C 0.90494 0.40988 0.56115 0.0
C283 C 0.80389 0.50043 0.58772 0.0
C284 C 0.92581 0.46937 0.56731 0.0
C285 C 0.7861 0.44102 0.58214 0.0
C286 C 0.87412 0.51473 0.58039 0.0
N287 N 0.93348 0.30675 0.54308 0.0
C288 C 0.98176 0.26088 0.53224 0.0
C289 C 0.0269 0.37611 0.54132 0.0
C290 C 0.95497 0.36366 0.54824 0.0
C291 C 0.07595 0.32872 0.52867 0.0
C292 C 0.05327 0.2709 0.52422 0.0
H293 H 0.88805 0.56094 0.58532 0.0
H294 H 0.01479 0.52741 0.56607 0.0
H295 H 0.10324 0.44592 0.54345 0.0
O296 O 0.85725 0.27111 0.61164 0.0
O297 O 0.83973 0.30352 0.49893 0.0
O298 O 0.82325 0.2074 0.45253 0.0
O299 O 0.80941 0.35848 0.62546 0.0
O300 O 0.83581 0.19687 0.54519 0.0
O301 O 0.8224 0.15145 0.47428 0.0
O302 O 0.66278 0.1818 0.40374 0.0
O303 O 0.6914 0.16948 0.52468 0.0
O304 O 0.69849 0.26815 0.56577 0.0
O305 O 0.72266 0.10306 0.40386 0.0
O306 O 0.69521 0.27799 0.47446 0.0
O307 O 0.70225 0.32111 0.5457 0.0
C308 C 0.84828 0.26224 0.46209 0.0
C309 C 0.90552 0.35047 0.66835 0.0
C310 C 0.97319 0.36267 0.73159 0.0
C311 C 0.02082 0.40166 0.72208 0.0
C312 C 0.95382 0.38948 0.65952 0.0
C313 C 1.01163 0.41418 0.68592 0.0
C314 C 0.91585 0.33659 0.7043 0.0
C315 C 0.84861 0.15286 0.51003 0.0
C316 C 0.84516 0.32332 0.64005 0.0
C317 C 0.99762 0.48189 0.56097 0.0
C318 C 0.04796 0.43543 0.548 0.0
C319 C 0.67933 0.21291 0.56012 0.0
C320 C 0.67305 0.09657 0.33766 0.0
C321 C 0.61828 0.09077 0.27195 0.0
C322 C 0.64435 0.03195 0.25373 0.0
C323 C 0.69833 0.03755 0.31866 0.0
C324 C 0.63346 0.12333 0.31395 0.0
C325 C 0.68419 0.00566 0.27696 0.0
C326 C 0.6829 0.32288 0.50942 0.0
C327 C 0.68543 0.12792 0.38248 0.0
H328 H 0.06611 0.42141 0.7422 0.0
H329 H 0.94709 0.40094 0.63231 0.0
H330 H 0.04952 0.44306 0.67826 0.0
H331 H 0.87911 0.3061 0.71119 0.0
H332 H 0.63411 0.00636 0.22134 0.0
H333 H 0.72857 0.01561 0.33611 0.0
H334 H 0.61279 0.16845 0.32829 0.0
H335 H 0.70374 0.96024 0.26266 0.0
H336 H 0.61164 0.57689 0.94255 0.0
H337 H 0.42725 0.40906 0.08006 0.0
H338 H 0.6448 0.62767 0.07439 0.0
H339 H 0.38553 0.36361 0.94939 0.0
H340 H 0.50672 0.48972 0.07861 0.0
H341 H 0.52979 0.49766 0.9442 0.0
C342 C 0.60222 0.57105 0.97179 0.0
C343 C 0.63556 0.60862 1.00834 0.0
C344 C 0.4799 0.46234 0.05028 0.0
C345 C 0.54109 0.51864 0.01055 0.0
C346 C 0.43406 0.41653 0.05115 0.0
C347 C 0.39915 0.37995 0.01487 0.0
C348 C 0.49133 0.47139 0.01279 0.0
C349 C 0.41135 0.39081 0.97811 0.0
C350 C 0.55508 0.52606 0.97276 0.0
C351 C 0.62028 0.59971 0.04546 0.0
N352 N 0.45654 0.43553 0.97799 0.0
N353 N 0.57421 0.55559 0.0456 0.0
H354 H 0.39606 0.62648 0.57399 0.0
H355 H 0.65002 0.35566 0.44294 0.0
H356 H 0.4132 0.56624 0.44088 0.0
H357 H 0.60717 0.40176 0.5732 0.0
H358 H 0.56821 0.43543 0.44164 0.0
H359 H 0.47811 0.54707 0.57441 0.0
C360 C 0.41696 0.59648 0.5448 0.0
C361 C 0.39761 0.60305 0.50732 0.0
C362 C 0.57704 0.42819 0.47052 0.0
C363 C 0.49201 0.51194 0.50762 0.0
C364 C 0.62379 0.38277 0.4713 0.0
C365 C 0.63612 0.37247 0.50833 0.0
C366 C 0.54245 0.46354 0.50706 0.0
C367 C 0.60045 0.40877 0.54411 0.0
C368 C 0.46382 0.55105 0.54507 0.0
C369 C 0.42637 0.5627 0.47048 0.0
N370 N 0.55537 0.45265 0.54257 0.0
N371 N 0.4723 0.51894 0.47156 0.0
H372 H 0.12713 0.06823 0.94084 0.0
H373 H 0.91906 0.91326 0.07892 0.0
H374 H 0.14368 0.12724 0.07409 0.0
H375 H 0.89225 0.85913 0.94642 0.0
H376 H 1.00289 -0.00889 0.0774 0.0
H377 H 0.04344 0.98955 0.94177 0.0
C378 C 0.11354 0.06445 0.97026 0.0
C379 C 0.14261 0.10429 1.00743 0.0
C380 C 0.9785 0.96236 0.04865 0.0
C381 C 0.04645 0.01482 1.00875 0.0
C382 C 0.93023 0.9181 0.04954 0.0
C383 C 0.89796 0.88001 0.0128 0.0
C384 C 0.99503 0.96845 0.01072 0.0
C385 C 0.91574 0.88759 0.97552 0.0
C386 C 0.06551 0.0197 0.97078 0.0
C387 C 0.1225 0.09765 0.04467 0.0
N388 N 0.9631 0.93096 0.97544 0.0
N389 N 0.07569 0.05381 0.04435 0.0
H390 H 0.89905 0.12914 0.57719 0.0
H391 H 0.15556 0.86167 0.44431 0.0
H392 H 0.91424 0.06869 0.44398 0.0
H393 H 0.11378 0.90458 0.57441 0.0
H394 H 0.07383 0.94194 0.44422 0.0
H395 H 0.98421 0.05145 0.57739 0.0
C396 C 0.92021 0.09951 0.54796 0.0
C397 C 0.89918 0.10529 0.51049 0.0
C398 C 0.0828 0.9339 0.47281 0.0
C399 C 0.99699 0.01635 0.51053 0.0
C400 C 0.1295 0.88818 0.47289 0.0
C401 C 0.14173 0.87658 0.50945 0.0
C402 C 0.04824 0.96837 0.50958 0.0
C403 C 0.10656 0.91232 0.5456 0.0
C404 C 0.96881 0.0551 0.5481 0.0
C405 C 0.92849 0.06563 0.47358 0.0
N406 N 0.06142 0.95657 0.54474 0.0
N407 N 0.97597 0.02288 0.47454 0.0
H408 H 0.63481 0.19881 0.26084 0.0
H409 H 0.3689 0.10445 0.06726 0.0
H410 H 0.50036 0.04138 0.22628 0.0
H411 H 0.42883 0.28968 0.13088 0.0
H412 H 0.42728 0.07833 0.12203 0.0
H413 H 0.56839 0.23267 0.21125 0.0
C414 C 0.5909 0.1717 0.24304 0.0
C415 C 0.57389 0.11643 0.24666 0.0
C416 C 0.42786 0.12468 0.12395 0.0
C417 C 0.49911 0.15401 0.18987 0.0
C418 C 0.39474 0.13959 0.09265 0.0
C419 C 0.39386 0.19936 0.09465 0.0
C420 C 0.46209 0.16949 0.15695 0.0
C421 C 0.42802 0.24308 0.12834 0.0
C422 C 0.55335 0.19081 0.21472 0.0
C423 C 0.51665 0.08297 0.22306 0.0
N424 N 0.46139 0.22721 0.15808 0.0
N425 N 0.48186 0.10182 0.19532 0.0
H426 H 0.523 0.95017 0.30766 0.0
H427 H 0.40158 0.68768 0.38529 0.0
H428 H 0.5533 0.76222 0.23716 0.0
H429 H 0.40151 0.87467 0.46395 0.0
H430 H 0.46424 0.71427 0.33244 0.0
H431 H 0.48665 0.92412 0.36727 0.0
C432 C 0.52255 0.90345 0.30494 0.0
C433 C 0.54041 0.85816 0.26741 0.0
C434 C 0.45122 0.74947 0.36142 0.0
C435 C 0.49822 0.82795 0.33507 0.0
C436 C 0.41517 0.73432 0.39162 0.0
C437 C 0.39566 0.77903 0.42904 0.0
C438 C 0.46734 0.80989 0.36842 0.0
C439 C 0.41528 0.83867 0.43555 0.0
C440 C 0.50198 0.8886 0.33892 0.0
C441 C 0.54002 0.79846 0.26557 0.0
N442 N 0.44938 0.85243 0.40536 0.0
N443 N 0.51826 0.78502 0.29874 0.0
H444 H 0.64883 0.69026 0.8825 0.0
H445 H 0.36574 0.90442 0.82906 0.0
H446 H 0.60567 0.87046 0.96585 0.0
H447 H 0.44941 0.74257 0.73852 0.0
H448 H 0.44854 0.89157 0.88072 0.0
H449 H 0.57127 0.70732 0.83084 0.0
C450 C 0.62292 0.73348 0.89013 0.0
C451 C 0.63334 0.77873 0.92902 0.0
C452 C 0.44872 0.85893 0.84961 0.0
C453 C 0.5438 0.79852 0.86948 0.0
C454 C 0.40134 0.86606 0.82013 0.0
C455 C 0.40053 0.82434 0.77944 0.0
C456 C 0.49482 0.8092 0.83859 0.0
C457 C 0.44851 0.77596 0.76944 0.0
C458 C 0.57866 0.74321 0.86042 0.0
C459 C 0.59855 0.83392 0.93666 0.0
N460 N 0.49324 0.7695 0.79886 0.0
N461 N 0.55498 0.84215 0.90727 0.0
H462 H 0.64772 0.29158 0.63744 0.0
H463 H 0.3842 0.0682 0.69479 0.0
H464 H 0.61428 0.10752 0.55754 0.0
H465 H 0.45713 0.23706 0.78334 0.0
H466 H 0.46562 0.08217 0.6434 0.0
H467 H 0.57482 0.27337 0.69022 0.0
C468 C 0.62494 0.24728 0.63086 0.0
C469 C 0.63654 0.2012 0.59261 0.0
C470 C 0.46357 0.11623 0.67398 0.0
C471 C 0.55259 0.18009 0.65325 0.0
C472 C 0.41716 0.10833 0.70331 0.0
C473 C 0.41377 0.15171 0.74332 0.0
C474 C 0.50575 0.16849 0.68438 0.0
C475 C 0.45831 0.20246 0.75289 0.0
C476 C 0.58343 0.2369 0.66116 0.0
C477 C 0.60607 0.14462 0.58622 0.0
N478 N 0.5019 0.20973 0.72354 0.0
N479 N 0.5651 0.13578 0.6161 0.0
H480 H 0.87665 0.60779 0.06079 0.0
H481 H 0.12232 0.70747 0.26384 0.0
H482 H 0.91255 0.79497 0.1329 0.0
H483 H 1.00974 0.53846 0.21651 0.0
H484 H 0.05563 0.74109 0.2142 0.0
H485 H 0.93789 0.58081 0.11428 0.0
C486 C 0.89777 0.64329 0.08777 0.0
C487 C 0.88914 0.70381 0.09241 0.0
C488 C 0.04551 0.69671 0.21488 0.0
C489 C 0.96035 0.67297 0.1537 0.0
C490 C 0.08317 0.67766 0.24331 0.0
C491 C 0.07262 0.61946 0.24362 0.0
C492 C 0.9976 0.657 0.18652 0.0
C493 C 0.0213 0.58274 0.21629 0.0
C494 C 0.93257 0.62781 0.11839 0.0
C495 C 0.91766 0.74777 0.12817 0.0
N496 N 0.98645 0.60174 0.18862 0.0
N497 N 0.95241 0.7315 0.15739 0.0
H498 H 0.89657 0.18514 0.38754 0.0
H499 H 0.02436 0.44407 0.30761 0.0
H500 H 0.89848 0.37256 0.46528 0.0
H501 H 0.05467 0.25553 0.23902 0.0
H502 H 0.98482 0.41957 0.36731 0.0
H503 H 0.95989 0.21036 0.33434 0.0
C504 C 0.91067 0.23162 0.39361 0.0
C505 C 0.89154 0.27681 0.43094 0.0
C506 C 1.00083 0.38358 0.33938 0.0
C507 C 0.9641 0.3061 0.36973 0.0
C508 C 0.02327 0.39753 0.30531 0.0
C509 C 0.0422 0.35166 0.26823 0.0
C510 C 0.99625 0.32322 0.33615 0.0
C511 C 0.04075 0.29224 0.26703 0.0
C512 C 0.94711 0.24597 0.36316 0.0
C513 C 0.91185 0.33619 0.43699 0.0
N514 N 0.01722 0.27968 0.30027 0.0
N515 N 0.94638 0.34917 0.40654 0.0
H516 H 0.9926 0.44009 0.81064 0.0
H517 H 0.12841 0.18286 0.89119 0.0
H518 H 0.98374 0.25159 0.73757 0.0
H519 H 0.14185 0.37196 0.96375 0.0
H520 H 0.06204 0.20657 0.83791 0.0
H521 H 0.03226 0.41573 0.87056 0.0
C522 C 0.99868 0.39357 0.80747 0.0
C523 C 0.98613 0.34787 0.76918 0.0
C524 C 0.07898 0.2429 0.86561 0.0
C525 C 0.03169 0.31927 0.83715 0.0
C526 C 0.1174 0.22941 0.89595 0.0
C527 C 0.14216 0.27553 0.93161 0.0
C528 C 0.065 0.30304 0.8709 0.0
C529 C 0.12436 0.33493 0.93663 0.0
C530 C 0.0211 0.37958 0.84157 0.0
C531 C 0.99304 0.28812 0.76661 0.0
N532 N 0.08746 0.347 0.90641 0.0
N533 N 0.01629 0.27554 0.80002 0.0
H534 H 0.11647 0.79445 0.62601 0.0
H535 H 1.00426 0.53986 0.7151 0.0
H536 H 0.14994 0.60521 0.5607 0.0
H537 H 0.99391 0.729 0.78572 0.0
H538 H 0.0413 0.56248 0.65432 0.0
H539 H 0.0564 0.77109 0.68108 0.0
C540 C 0.11123 0.74794 0.62326 0.0
C541 C 0.13973 0.70182 0.58914 0.0
C542 C 0.03059 0.59913 0.68299 0.0
C543 C 0.06964 0.67461 0.65173 0.0
C544 C 1.00976 0.58612 0.71759 0.0
C545 C 0.99738 0.63247 0.75544 0.0
C546 C 0.03944 0.65921 0.68637 0.0
C547 C 1.00315 0.69192 0.75707 0.0
C548 C 0.07646 0.73462 0.6546 0.0
C549 C 0.12929 0.64227 0.58657 0.0
N550 N 0.02456 0.70362 0.72312 0.0
N551 N 0.09562 0.63042 0.61765 0.0
loop_
_geom_bond_atom_site_label_1
_geom_bond_atom_site_label_2
_geom_bond_distance
_geom_bond_site_symmetry_2
_ccdc_geom_bond_type
Eu0 N29 2.600 . S
Eu0 N35 2.562 . S
Eu0 O44 2.462 . S
Eu0 O45 2.373 1_556 S
Eu0 O47 2.432 . S
Eu0 O48 2.291 . S
Eu0 O52 2.335 . S
Eu0 O55 2.372 . S
Eu0 C64 2.787 . S
C1 N2 1.365 . S
C1 C4 1.405 . S
C1 C8 1.448 . S
N2 C1 1.365 . S
N2 C5 1.319 . S
N2 Eu11 2.600 . S
C3 C5 1.397 . S
C3 C6 1.367 . S
C3 H23 0.931 . S
C4 C1 1.405 . S
C4 C6 1.403 . S
C4 C10 1.439 1_455 S
C5 N2 1.319 . S
C5 C3 1.397 . S
C5 H16 0.930 . S
C6 C3 1.367 . S
C6 C4 1.403 . S
C6 H27 0.929 . S
C7 C8 1.430 1_655 S
C7 C9 1.387 . S
C7 C13 1.404 1_554 S
C8 C1 1.448 . S
C8 C7 1.430 1_455 S
C8 N12 1.351 . S
C9 C7 1.387 . S
C9 C10 1.374 . S
C9 H24 0.931 1_554 S
C10 C4 1.439 1_655 S
C10 C9 1.374 . S
C10 H25 0.931 . S
Eu11 N2 2.600 . S
Eu11 N12 2.562 . S
Eu11 O46 2.335 . S
Eu11 O49 2.372 . S
Eu11 O50 2.462 . S
Eu11 O51 2.373 1_554 S
Eu11 O53 2.432 . S
Eu11 O54 2.291 . S
Eu11 C75 2.787 . S
N12 C8 1.351 . S
N12 Eu11 2.562 . S
N12 C14 1.325 . S
C13 C7 1.404 1_556 S
C13 C15 1.360 1_556 S
C13 H21 0.930 . S
C14 N12 1.325 . S
C14 C15 1.421 1_455 S
C14 H20 0.929 . S
C15 C13 1.360 1_554 S
C15 C14 1.421 1_655 S
C15 H17 0.931 1_554 S
H16 C5 0.930 . S
H17 C15 0.931 1_556 S
H18 C33 0.930 . S
H19 C40 0.930 . S
H20 C14 0.929 . S
H21 C13 0.930 . S
H22 C36 0.929 . S
H23 C3 0.931 . S
H24 C9 0.931 1_556 S
H25 C10 0.931 . S
H26 C31 0.931 . S
H27 C6 0.929 . S
H28 C39 0.930 . S
N29 Eu0 2.600 . S
N29 C30 1.365 . S
N29 C33 1.319 . S
C30 N29 1.365 . S
C30 C32 1.405 . S
C30 C38 1.448 . S
C31 H26 0.931 . S
C31 C33 1.397 1_565 S
C31 C34 1.367 . S
C32 C30 1.405 . S
C32 C34 1.403 1_545 S
C32 C65 1.439 . S
C33 H18 0.930 . S
C33 N29 1.319 . S
C33 C31 1.397 1_545 S
C34 C31 1.367 . S
C34 C32 1.403 1_565 S
C34 H41 0.929 . S
N35 Eu0 2.562 . S
N35 C36 1.325 . S
N35 C38 1.351 . S
C36 H22 0.929 . S
C36 N35 1.325 . S
C36 C40 1.416 1_556 S
C37 C38 1.430 . S
C37 C39 1.404 1_556 S
C37 C66 1.383 1_556 S
C38 C30 1.448 . S
C38 N35 1.351 . S
C38 C37 1.430 . S
C39 H28 0.930 . S
C39 C37 1.404 1_554 S
C39 C40 1.366 . S
C40 H19 0.930 . S
C40 C36 1.416 1_554 S
C40 C39 1.366 . S
H41 C34 0.929 . S
H42 C65 0.931 1_565 S
H43 C66 0.934 . S
O44 Eu0 2.462 . S
O44 C64 1.252 . S
O45 Eu0 2.373 1_554 S
O45 C56 1.249 . S
O46 Eu11 2.335 . S
O46 C56 1.264 . S
O47 Eu0 2.432 . S
O47 C64 1.268 . S
O48 Eu0 2.291 . S
O48 C63 1.255 1_556 S
O49 Eu11 2.372 . S
O49 C63 1.257 . S
O50 Eu11 2.462 . S
O50 C75 1.252 . S
O51 Eu11 2.373 1_556 S
O51 C67 1.249 . S
O52 Eu0 2.335 . S
O52 C67 1.264 . S
O53 Eu11 2.432 . S
O53 C75 1.268 . S
O54 Eu11 2.291 . S
O54 C74 1.255 1_554 S
O55 Eu0 2.372 . S
O55 C74 1.257 . S
C56 O45 1.249 . S
C56 O46 1.264 . S
C57 C60 1.382 . S
C57 C62 1.390 . S
C57 C64 1.506 . S
C58 C59 1.398 . S
C58 C62 1.392 . S
C59 C58 1.398 . S
C59 C61 1.372 . S
C59 H76 0.931 . S
C60 C57 1.382 . S
C60 C61 1.390 . S
C60 H77 0.931 . S
C61 C59 1.372 . S
C61 C60 1.390 . S
C61 H78 0.929 . S
C62 C57 1.390 . S
C62 C58 1.392 . S
C62 H79 0.930 . S
C63 O48 1.255 1_554 S
C63 O49 1.257 . S
C64 Eu0 2.787 . S
C64 O44 1.252 . S
C64 O47 1.268 . S
C64 C57 1.506 . S
C65 C32 1.439 . S
C65 H42 0.931 1_545 S
C65 C66 1.375 1_556 S
C66 C37 1.383 1_554 S
C66 H43 0.934 . S
C66 C65 1.375 1_554 S
C67 O51 1.249 . S
C67 O52 1.264 . S
C68 C71 1.382 . S
C68 C72 1.390 . S
C68 C75 1.506 . S
C69 C70 1.398 . S
C69 C72 1.392 . S
C70 C69 1.398 . S
C70 C73 1.372 . S
C70 H80 0.931 . S
C71 C68 1.382 . S
C71 C73 1.390 . S
C71 H81 0.931 . S
C72 C68 1.390 . S
C72 C69 1.392 . S
C72 H82 0.930 . S
C73 C70 1.372 . S
C73 C71 1.390 . S
C73 H83 0.929 . S
C74 O54 1.255 1_556 S
C74 O55 1.257 . S
C75 Eu11 2.787 . S
C75 O50 1.252 . S
C75 O53 1.268 . S
C75 C68 1.506 . S
H76 C59 0.931 . S
H77 C60 0.931 . S
H78 C61 0.929 . S
H79 C62 0.930 . S
H80 C70 0.931 . S
H81 C71 0.931 . S
H82 C72 0.930 . S
H83 C73 0.929 . S
Eu84 N113 2.600 . S
Eu84 N119 2.562 . S
Eu84 O128 2.462 . S
Eu84 O129 2.373 1_556 S
Eu84 O131 2.432 . S
Eu84 O132 2.291 . S
Eu84 O136 2.335 . S
Eu84 O139 2.372 . S
Eu84 C148 2.787 . S
C85 N86 1.365 . S
C85 C88 1.405 . S
C85 C92 1.448 . S
N86 C85 1.365 . S
N86 C89 1.319 . S
N86 Eu95 2.600 . S
C87 C89 1.397 1_545 S
C87 C90 1.367 . S
C87 H107 0.931 . S
C88 C85 1.405 . S
C88 C90 1.403 1_565 S
C88 C94 1.439 . S
C89 N86 1.319 . S
C89 C87 1.397 1_565 S
C89 H100 0.930 . S
C90 C87 1.367 . S
C90 C88 1.403 1_545 S
C90 H111 0.929 . S
C91 C92 1.430 . S
C91 C93 1.387 . S
C91 C97 1.404 1_554 S
C92 C85 1.448 . S
C92 C91 1.430 . S
C92 N96 1.351 . S
C93 C91 1.387 . S
C93 C94 1.374 . S
C93 H108 0.931 1_554 S
C94 C88 1.439 . S
C94 C93 1.374 . S
C94 H109 0.931 1_565 S
Eu95 N86 2.600 . S
Eu95 N96 2.562 . S
Eu95 O130 2.335 . S
Eu95 O133 2.372 . S
Eu95 O134 2.462 . S
Eu95 O135 2.373 1_554 S
Eu95 O137 2.432 . S
Eu95 O138 2.291 . S
Eu95 C159 2.787 . S
N96 C92 1.351 . S
N96 Eu95 2.562 . S
N96 C98 1.325 . S
C97 C91 1.404 1_556 S
C97 C99 1.360 1_556 S
C97 H105 0.930 . S
C98 N96 1.325 . S
C98 C99 1.421 . S
C98 H104 0.929 . S
C99 C97 1.360 1_554 S
C99 C98 1.421 . S
C99 H101 0.931 1_554 S
H100 C89 0.930 . S
H101 C99 0.931 1_556 S
H102 C117 0.930 . S
H103 C124 0.930 . S
H104 C98 0.929 . S
H105 C97 0.930 . S
H106 C120 0.929 . S
H107 C87 0.931 . S
H108 C93 0.931 1_556 S
H109 C94 0.931 1_545 S
H110 C115 0.931 . S
H111 C90 0.929 . S
H112 C123 0.930 . S
N113 Eu84 2.600 . S
N113 C114 1.365 . S
N113 C117 1.319 . S
C114 N113 1.365 . S
C114 C116 1.405 . S
C114 C122 1.448 . S
C115 H110 0.931 . S
C115 C117 1.397 . S
C115 C118 1.367 . S
C116 C114 1.405 . S
C116 C118 1.403 . S
C116 C149 1.439 1_655 S
C117 H102 0.930 . S
C117 N113 1.319 . S
C117 C115 1.397 . S
C118 C115 1.367 . S
C118 C116 1.403 . S
C118 H125 0.929 . S
N119 Eu84 2.562 . S
N119 C120 1.325 . S
N119 C122 1.351 . S
C120 H106 0.929 . S
C120 N119 1.325 . S
C120 C124 1.416 1_656 S
C121 C122 1.430 1_455 S
C121 C123 1.404 1_556 S
C121 C150 1.383 1_556 S
C122 C114 1.448 . S
C122 N119 1.351 . S
C122 C121 1.430 1_655 S
C123 H112 0.930 . S
C123 C121 1.404 1_554 S
C123 C124 1.366 . S
C124 H103 0.930 . S
C124 C120 1.416 1_454 S
C124 C123 1.366 . S
H125 C118 0.929 . S
H126 C149 0.931 . S
H127 C150 0.934 . S
O128 Eu84 2.462 . S
O128 C148 1.252 . S
O129 Eu84 2.373 1_554 S
O129 C140 1.249 . S
O130 Eu95 2.335 . S
O130 C140 1.264 . S
O131 Eu84 2.432 . S
O131 C148 1.268 . S
O132 Eu84 2.291 . S
O132 C147 1.255 1_556 S
O133 Eu95 2.372 . S
O133 C147 1.257 . S
O134 Eu95 2.462 . S
O134 C159 1.252 . S
O135 Eu95 2.373 1_556 S
O135 C151 1.249 . S
O136 Eu84 2.335 . S
O136 C151 1.264 . S
O137 Eu95 2.432 . S
O137 C159 1.268 . S
O138 Eu95 2.291 . S
O138 C158 1.255 1_554 S
O139 Eu84 2.372 . S
O139 C158 1.257 . S
C140 O129 1.249 . S
C140 O130 1.264 . S
C141 C144 1.382 . S
C141 C146 1.390 . S
C141 C148 1.506 . S
C142 C143 1.398 . S
C142 C146 1.392 . S
C143 C142 1.398 . S
C143 C145 1.372 . S
C143 H160 0.931 . S
C144 C141 1.382 . S
C144 C145 1.390 . S
C144 H161 0.931 . S
C145 C143 1.372 . S
C145 C144 1.390 . S
C145 H162 0.929 . S
C146 C141 1.390 . S
C146 C142 1.392 . S
C146 H163 0.930 . S
C147 O132 1.255 1_554 S
C147 O133 1.257 . S
C148 Eu84 2.787 . S
C148 O128 1.252 . S
C148 O131 1.268 . S
C148 C141 1.506 . S
C149 C116 1.439 1_455 S
C149 H126 0.931 . S
C149 C150 1.375 1_556 S
C150 C121 1.383 1_554 S
C150 H127 0.934 . S
C150 C149 1.375 1_554 S
C151 O135 1.249 . S
C151 O136 1.264 . S
C152 C155 1.382 . S
C152 C156 1.390 . S
C152 C159 1.506 . S
C153 C154 1.398 . S
C153 C156 1.392 . S
C154 C153 1.398 . S
C154 C157 1.372 . S
C154 H164 0.931 . S
C155 C152 1.382 . S
C155 C157 1.390 . S
C155 H165 0.931 . S
C156 C152 1.390 . S
C156 C153 1.392 . S
C156 H166 0.930 . S
C157 C154 1.372 . S
C157 C155 1.390 . S
C157 H167 0.929 . S
C158 O138 1.255 1_556 S
C158 O139 1.257 . S
C159 Eu95 2.787 . S
C159 O134 1.252 . S
C159 O137 1.268 . S
C159 C152 1.506 . S
H160 C143 0.931 . S
H161 C144 0.931 . S
H162 C145 0.929 . S
H163 C146 0.930 . S
H164 C154 0.931 . S
H165 C155 0.931 . S
H166 C156 0.930 . S
H167 C157 0.929 . S
Eu168 N197 2.600 . S
Eu168 N203 2.562 . S
Eu168 O212 2.462 . S
Eu168 O213 2.373 . S
Eu168 O215 2.432 . S
Eu168 O216 2.291 . S
Eu168 O220 2.335 . S
Eu168 O223 2.372 . S
Eu168 C232 2.787 . S
C169 N170 1.365 . S
C169 C172 1.405 . S
C169 C176 1.448 . S
N170 C169 1.365 . S
N170 C173 1.319 . S
N170 Eu179 2.600 . S
C171 C173 1.397 . S
C171 C174 1.367 . S
C171 H191 0.931 . S
C172 C169 1.405 . S
C172 C174 1.403 . S
C172 C178 1.439 1_455 S
C173 N170 1.319 . S
C173 C171 1.397 . S
C173 H184 0.930 . S
C174 C171 1.367 . S
C174 C172 1.403 . S
C174 H195 0.929 . S
C175 C176 1.430 1_655 S
C175 C177 1.387 . S
C175 C181 1.404 . S
C176 C169 1.448 . S
C176 C175 1.430 1_455 S
C176 N180 1.351 . S
C177 C175 1.387 . S
C177 C178 1.374 . S
C177 H192 0.931 . S
C178 C172 1.439 1_655 S
C178 C177 1.374 . S
C178 H193 0.931 . S
Eu179 N170 2.600 . S
Eu179 N180 2.562 . S
Eu179 O214 2.335 . S
Eu179 O217 2.372 . S
Eu179 O218 2.462 . S
Eu179 O219 2.373 . S
Eu179 O221 2.432 . S
Eu179 O222 2.291 . S
Eu179 C243 2.787 . S
N180 C176 1.351 . S
N180 Eu179 2.562 . S
N180 C182 1.325 . S
C181 C175 1.404 . S
C181 C183 1.366 . S
C181 H189 0.930 . S
C182 N180 1.325 . S
C182 C183 1.416 1_455 S
C182 H188 0.929 . S
C183 C181 1.366 . S
C183 C182 1.416 1_655 S
C183 H185 0.930 . S
H184 C173 0.930 . S
H185 C183 0.930 . S
H186 C201 0.930 . S
H187 C208 0.930 . S
H188 C182 0.929 . S
H189 C181 0.930 . S
H190 C204 0.929 . S
H191 C171 0.931 . S
H192 C177 0.931 . S
H193 C178 0.931 . S
H194 C199 0.931 . S
H195 C174 0.929 . S
H196 C207 0.930 . S
N197 Eu168 2.600 . S
N197 C198 1.365 . S
N197 C201 1.319 . S
C198 N197 1.365 . S
C198 C200 1.405 . S
C198 C206 1.448 . S
C199 H194 0.931 . S
C199 C201 1.397 1_545 S
C199 C202 1.367 . S
C200 C198 1.405 . S
C200 C202 1.403 1_565 S
C200 C233 1.439 . S
C201 H186 0.930 . S
C201 N197 1.319 . S
C201 C199 1.397 1_565 S
C202 C199 1.367 . S
C202 C200 1.403 1_545 S
C202 H209 0.929 . S
N203 Eu168 2.562 . S
N203 C204 1.325 . S
N203 C206 1.351 . S
C204 H190 0.929 . S
C204 N203 1.325 . S
C204 C208 1.416 . S
C205 C206 1.430 . S
C205 C207 1.404 . S
C205 C234 1.387 . S
C206 C198 1.448 . S
C206 N203 1.351 . S
C206 C205 1.430 . S
C207 H196 0.930 . S
C207 C205 1.404 . S
C207 C208 1.366 . S
C208 H187 0.930 . S
C208 C204 1.416 . S
C208 C207 1.366 . S
H209 C202 0.929 . S
H210 C233 0.931 1_545 S
H211 C234 0.931 . S
O212 Eu168 2.462 . S
O212 C232 1.252 . S
O213 Eu168 2.373 . S
O213 C224 1.249 . S
O214 Eu179 2.335 . S
O214 C224 1.264 . S
O215 Eu168 2.432 . S
O215 C232 1.268 . S
O216 Eu168 2.291 . S
O216 C231 1.255 . S
O217 Eu179 2.372 . S
O217 C231 1.257 . S
O218 Eu179 2.462 . S
O218 C243 1.252 . S
O219 Eu179 2.373 . S
O219 C235 1.249 . S
O220 Eu168 2.335 . S
O220 C235 1.264 . S
O221 Eu179 2.432 . S
O221 C243 1.268 . S
O222 Eu179 2.291 . S
O222 C242 1.255 . S
O223 Eu168 2.372 . S
O223 C242 1.257 . S
C224 O213 1.249 . S
C224 O214 1.264 . S
C225 C228 1.382 . S
C225 C230 1.390 . S
C225 C232 1.506 . S
C226 C227 1.398 . S
C226 C230 1.392 . S
C227 C226 1.398 . S
C227 C229 1.372 . S
C227 H244 0.931 . S
C228 C225 1.382 . S
C228 C229 1.390 . S
C228 H245 0.931 . S
C229 C227 1.372 . S
C229 C228 1.390 . S
C229 H246 0.929 . S
C230 C225 1.390 . S
C230 C226 1.392 . S
C230 H247 0.930 . S
C231 O216 1.255 . S
C231 O217 1.257 . S
C232 Eu168 2.787 . S
C232 O212 1.252 . S
C232 O215 1.268 . S
C232 C225 1.506 . S
C233 C200 1.439 . S
C233 H210 0.931 1_565 S
C233 C234 1.374 . S
C234 C205 1.387 . S
C234 H211 0.931 . S
C234 C233 1.374 . S
C235 O219 1.249 . S
C235 O220 1.264 . S
C236 C239 1.382 . S
C236 C240 1.390 . S
C236 C243 1.506 . S
C237 C238 1.398 . S
C237 C240 1.392 . S
C238 C237 1.398 . S
C238 C241 1.372 . S
C238 H248 0.931 . S
C239 C236 1.382 . S
C239 C241 1.390 . S
C239 H249 0.931 . S
C240 C236 1.390 . S
C240 C237 1.392 . S
C240 H250 0.930 . S
C241 C238 1.372 . S
C241 C239 1.390 . S
C241 H251 0.929 . S
C242 O222 1.255 . S
C242 O223 1.257 . S
C243 Eu179 2.787 . S
C243 O218 1.252 . S
C243 O221 1.268 . S
C243 C236 1.506 . S
H244 C227 0.931 . S
H245 C228 0.931 . S
H246 C229 0.929 . S
H247 C230 0.930 . S
H248 C238 0.931 . S
H249 C239 0.931 . S
H250 C240 0.930 . S
H251 C241 0.929 . S
Eu252 N281 2.600 . S
Eu252 N287 2.562 . S
Eu252 O296 2.462 . S
Eu252 O297 2.373 . S
Eu252 O299 2.432 . S
Eu252 O300 2.291 . S
Eu252 O304 2.335 . S
Eu252 O307 2.372 . S
Eu252 C316 2.787 . S
C253 N254 1.365 . S
C253 C256 1.405 . S
C253 C260 1.448 . S
N254 C253 1.365 . S
N254 C257 1.319 . S
N254 Eu263 2.600 . S
C255 C257 1.397 1_565 S
C255 C258 1.367 . S
C255 H275 0.931 . S
C256 C253 1.405 . S
C256 C258 1.403 1_545 S
C256 C262 1.439 . S
C257 N254 1.319 . S
C257 C255 1.397 1_545 S
C257 H268 0.930 . S
C258 C255 1.367 . S
C258 C256 1.403 1_565 S
C258 H279 0.929 . S
C259 C260 1.430 . S
C259 C261 1.387 . S
C259 C265 1.404 . S
C260 C253 1.448 . S
C260 C259 1.430 . S
C260 N264 1.351 . S
C261 C259 1.387 . S
C261 C262 1.374 . S
C261 H276 0.931 . S
C262 C256 1.439 . S
C262 C261 1.374 . S
C262 H277 0.931 1_545 S
Eu263 N254 2.600 . S
Eu263 N264 2.562 . S
Eu263 O298 2.335 . S
Eu263 O301 2.372 . S
Eu263 O302 2.462 . S
Eu263 O303 2.373 . S
Eu263 O305 2.432 . S
Eu263 O306 2.291 . S
Eu263 C327 2.787 . S
N264 C260 1.351 . S
N264 Eu263 2.562 . S
N264 C266 1.325 . S
C265 C259 1.404 . S
C265 C267 1.366 . S
C265 H273 0.930 . S
C266 N264 1.325 . S
C266 C267 1.416 . S
C266 H272 0.929 . S
C267 C265 1.366 . S
C267 C266 1.416 . S
C267 H269 0.930 . S
H268 C257 0.930 . S
H269 C267 0.930 . S
H270 C285 0.930 . S
H271 C292 0.930 . S
H272 C266 0.929 . S
H273 C265 0.930 . S
H274 C288 0.929 . S
H275 C255 0.931 . S
H276 C261 0.931 . S
H277 C262 0.931 1_565 S
H278 C283 0.931 . S
H279 C258 0.929 . S
H280 C291 0.930 . S
N281 Eu252 2.600 . S
N281 C282 1.365 . S
N281 C285 1.319 . S
C282 N281 1.365 . S
C282 C284 1.405 . S
C282 C290 1.448 . S
C283 H278 0.931 . S
C283 C285 1.397 . S
C283 C286 1.367 . S
C284 C282 1.405 . S
C284 C286 1.403 . S
C284 C317 1.439 1_655 S
C285 H270 0.930 . S
C285 N281 1.319 . S
C285 C283 1.397 . S
C286 C283 1.367 . S
C286 C284 1.403 . S
C286 H293 0.929 . S
N287 Eu252 2.562 . S
N287 C288 1.325 . S
N287 C290 1.351 . S
C288 H274 0.929 . S
C288 N287 1.325 . S
C288 C292 1.416 1_655 S
C289 C290 1.430 1_455 S
C289 C291 1.404 . S
C289 C318 1.387 . S
C290 C282 1.448 . S
C290 N287 1.351 . S
C290 C289 1.430 1_655 S
C291 H280 0.930 . S
C291 C289 1.404 . S
C291 C292 1.366 . S
C292 H271 0.930 . S
C292 C288 1.416 1_455 S
C292 C291 1.366 . S
H293 C286 0.929 . S
H294 C317 0.931 . S
H295 C318 0.931 . S
O296 Eu252 2.462 . S
O296 C316 1.252 . S
O297 Eu252 2.373 . S
O297 C308 1.249 . S
O298 Eu263 2.335 . S
O298 C308 1.264 . S
O299 Eu252 2.432 . S
O299 C316 1.268 . S
O300 Eu252 2.291 . S
O300 C315 1.255 . S
O301 Eu263 2.372 . S
O301 C315 1.257 . S
O302 Eu263 2.462 . S
O302 C327 1.252 . S
O303 Eu263 2.373 . S
O303 C319 1.249 . S
O304 Eu252 2.335 . S
O304 C319 1.264 . S
O305 Eu263 2.432 . S
O305 C327 1.268 . S
O306 Eu263 2.291 . S
O306 C326 1.255 . S
O307 Eu252 2.372 . S
O307 C326 1.257 . S
C308 O297 1.249 . S
C308 O298 1.264 . S
C309 C312 1.382 . S
C309 C314 1.390 . S
C309 C316 1.506 . S
C310 C311 1.398 . S
C310 C314 1.392 . S
C311 C310 1.398 . S
C311 C313 1.372 . S
C311 H328 0.931 . S
C312 C309 1.382 . S
C312 C313 1.390 . S
C312 H329 0.931 . S
C313 C311 1.372 . S
C313 C312 1.390 . S
C313 H330 0.929 . S
C314 C309 1.390 . S
C314 C310 1.392 . S
C314 H331 0.930 . S
C315 O300 1.255 . S
C315 O301 1.257 . S
C316 Eu252 2.787 . S
C316 O296 1.252 . S
C316 O299 1.268 . S
C316 C309 1.506 . S
C317 C284 1.439 1_455 S
C317 H294 0.931 . S
C317 C318 1.374 . S
C318 C289 1.387 . S
C318 H295 0.931 . S
C318 C317 1.374 . S
C319 O303 1.249 . S
C319 O304 1.264 . S
C320 C323 1.382 . S
C320 C324 1.390 . S
C320 C327 1.506 . S
C321 C322 1.398 . S
C321 C324 1.392 . S
C322 C321 1.398 . S
C322 C325 1.372 . S
C322 H332 0.931 . S
C323 C320 1.382 . S
C323 C325 1.390 . S
C323 H333 0.931 . S
C324 C320 1.390 . S
C324 C321 1.392 . S
C324 H334 0.930 . S
C325 C322 1.372 . S
C325 C323 1.390 . S
C325 H335 0.929 . S
C326 O306 1.255 . S
C326 O307 1.257 . S
C327 Eu263 2.787 . S
C327 O302 1.252 . S
C327 O305 1.268 . S
C327 C320 1.506 . S
H328 C311 0.931 . S
H329 C312 0.931 . S
H330 C313 0.929 . S
H331 C314 0.930 . S
H332 C322 0.931 . S
H333 C323 0.931 . S
H334 C324 0.930 . S
H335 C325 0.929 . S
H336 C342 0.930 . S
H337 C346 0.930 . S
H338 C351 0.929 . S
H339 C349 0.929 . S
H340 C344 0.929 . S
H341 C350 0.929 . S
C342 H336 0.930 . S
C342 C343 1.367 . S
C342 C350 1.378 . S
C343 C342 1.367 . S
C343 C351 1.433 1_556 S
C344 H340 0.929 . S
C344 C346 1.378 . S
C344 C348 1.350 . S
C345 C348 1.458 1_556 S
C345 C350 1.364 . S
C345 N353 1.417 1_556 S
C346 H337 0.930 . S
C346 C344 1.378 . S
C346 C347 1.367 . S
C347 C346 1.367 . S
C347 C349 1.433 1_554 S
C348 C344 1.350 . S
C348 C345 1.458 1_554 S
C348 N352 1.427 1_554 S
C349 H339 0.929 . S
C349 C347 1.433 1_556 S
C349 N352 1.384 . S
C350 H341 0.929 . S
C350 C342 1.378 . S
C350 C345 1.364 . S
C351 H338 0.929 . S
C351 C343 1.433 1_554 S
C351 N353 1.384 . S
N352 C348 1.427 1_556 S
N352 C349 1.384 . S
N353 C345 1.417 1_554 S
N353 C351 1.384 . S
H354 C360 0.930 . S
H355 C364 0.930 . S
H356 C369 0.929 . S
H357 C367 0.929 . S
H358 C362 0.929 . S
H359 C368 0.929 . S
C360 H354 0.930 . S
C360 C361 1.367 . S
C360 C368 1.378 . S
C361 C360 1.367 . S
C361 C369 1.433 . S
C362 H358 0.929 . S
C362 C364 1.378 . S
C362 C366 1.350 . S
C363 C366 1.463 . S
C363 C368 1.350 . S
C363 N371 1.427 . S
C364 H355 0.930 . S
C364 C362 1.378 . S
C364 C365 1.367 . S
C365 C364 1.367 . S
C365 C367 1.433 . S
C366 C362 1.350 . S
C366 C363 1.463 . S
C366 N370 1.427 . S
C367 H357 0.929 . S
C367 C365 1.433 . S
C367 N370 1.384 . S
C368 H359 0.929 . S
C368 C360 1.378 . S
C368 C363 1.350 . S
C369 H356 0.929 . S
C369 C361 1.433 . S
C369 N371 1.384 . S
N370 C366 1.427 . S
N370 C367 1.384 . S
N371 C363 1.427 . S
N371 C369 1.384 . S
H372 C378 0.930 . S
H373 C382 0.930 . S
H374 C387 0.929 . S
H375 C385 0.929 . S
H376 C380 0.929 . S
H377 C386 0.929 . S
C378 H372 0.930 . S
C378 C379 1.367 . S
C378 C386 1.378 . S
C379 C378 1.367 . S
C379 C387 1.433 1_556 S
C380 H376 0.929 . S
C380 C382 1.378 . S
C380 C384 1.350 . S
C381 C384 1.459 1_446 S
C381 C386 1.360 . S
C381 N389 1.420 1_556 S
C382 H373 0.930 . S
C382 C380 1.378 . S
C382 C383 1.367 . S
C383 C382 1.367 . S
C383 C385 1.433 1_554 S
C384 C380 1.350 . S
C384 C381 1.459 1_664 S
C384 N388 1.427 1_554 S
C385 H375 0.929 . S
C385 C383 1.433 1_556 S
C385 N388 1.384 . S
C386 H377 0.929 . S
C386 C378 1.378 . S
C386 C381 1.360 . S
C387 H374 0.929 . S
C387 C379 1.433 1_554 S
C387 N389 1.384 . S
N388 C384 1.427 1_556 S
N388 C385 1.384 . S
N389 C381 1.420 1_554 S
N389 C387 1.384 . S
H390 C396 0.930 . S
H391 C400 0.930 . S
H392 C405 0.929 . S
H393 C403 0.929 . S
H394 C398 0.929 1_545 S
H395 C404 0.929 1_565 S
C396 H390 0.930 . S
C396 C397 1.367 . S
C396 C404 1.378 . S
C397 C396 1.367 . S
C397 C405 1.433 . S
C398 H394 0.929 1_565 S
C398 C400 1.378 . S
C398 C402 1.350 . S
C399 C402 1.463 1_645 S
C399 C404 1.350 . S
C399 N407 1.427 . S
C400 H391 0.930 . S
C400 C398 1.378 . S
C400 C401 1.367 . S
C401 C400 1.367 . S
C401 C403 1.433 . S
C402 C398 1.350 . S
C402 C399 1.463 1_465 S
C402 N406 1.427 . S
C403 H393 0.929 . S
C403 C401 1.433 . S
C403 N406 1.384 . S
C404 H395 0.929 1_545 S
C404 C396 1.378 . S
C404 C399 1.350 . S
C405 H392 0.929 . S
C405 C397 1.433 . S
C405 N407 1.384 . S
N406 C402 1.427 . S
N406 C403 1.384 . S
N407 C399 1.427 . S
N407 C405 1.384 . S
H408 C414 0.930 . S
H409 C418 0.930 . S
H410 C423 0.929 . S
H411 C421 0.929 . S
H412 C416 0.929 . S
H413 C422 0.929 . S
C414 H408 0.930 . S
C414 C415 1.367 . S
C414 C422 1.378 . S
C415 C414 1.367 . S
C415 C423 1.433 . S
C416 H412 0.929 . S
C416 C418 1.378 . S
C416 C420 1.350 . S
C417 C420 1.463 . S
C417 C422 1.350 . S
C417 N425 1.427 . S
C418 H409 0.930 . S
C418 C416 1.378 . S
C418 C419 1.367 . S
C419 C418 1.367 . S
C419 C421 1.433 . S
C420 C416 1.350 . S
C420 C417 1.463 . S
C420 N424 1.427 . S
C421 H411 0.929 . S
C421 C419 1.433 . S
C421 N424 1.384 . S
C422 H413 0.929 . S
C422 C414 1.378 . S
C422 C417 1.350 . S
C423 H410 0.929 . S
C423 C415 1.433 . S
C423 N425 1.384 . S
N424 C420 1.427 . S
N424 C421 1.384 . S
N425 C417 1.427 . S
N425 C423 1.384 . S
H426 C432 0.930 . S
H427 C436 0.930 . S
H428 C441 0.929 . S
H429 C439 0.929 . S
H430 C434 0.929 . S
H431 C440 0.929 . S
C432 H426 0.930 . S
C432 C433 1.367 . S
C432 C440 1.378 . S
C433 C432 1.367 . S
C433 C441 1.433 . S
C434 H430 0.929 . S
C434 C436 1.378 . S
C434 C438 1.350 . S
C435 C438 1.463 . S
C435 C440 1.350 . S
C435 N443 1.427 . S
C436 H427 0.930 . S
C436 C434 1.378 . S
C436 C437 1.367 . S
C437 C436 1.367 . S
C437 C439 1.433 . S
C438 C434 1.350 . S
C438 C435 1.463 . S
C438 N442 1.427 . S
C439 H429 0.929 . S
C439 C437 1.433 . S
C439 N442 1.384 . S
C440 H431 0.929 . S
C440 C432 1.378 . S
C440 C435 1.350 . S
C441 H428 0.929 . S
C441 C433 1.433 . S
C441 N443 1.384 . S
N442 C438 1.427 . S
N442 C439 1.384 . S
N443 C435 1.427 . S
N443 C441 1.384 . S
H444 C450 0.930 . S
H445 C454 0.930 . S
H446 C459 0.929 . S
H447 C457 0.929 . S
H448 C452 0.929 . S
H449 C458 0.929 . S
C450 H444 0.930 . S
C450 C451 1.367 . S
C450 C458 1.378 . S
C451 C450 1.367 . S
C451 C459 1.433 . S
C452 H448 0.929 . S
C452 C454 1.378 . S
C452 C456 1.350 . S
C453 C456 1.463 . S
C453 C458 1.350 . S
C453 N461 1.427 . S
C454 H445 0.930 . S
C454 C452 1.378 . S
C454 C455 1.367 . S
C455 C454 1.367 . S
C455 C457 1.433 . S
C456 C452 1.350 . S
C456 C453 1.463 . S
C456 N460 1.427 . S
C457 H447 0.929 . S
C457 C455 1.433 . S
C457 N460 1.384 . S
C458 H449 0.929 . S
C458 C450 1.378 . S
C458 C453 1.350 . S
C459 H446 0.929 . S
C459 C451 1.433 . S
C459 N461 1.384 . S
N460 C456 1.427 . S
N460 C457 1.384 . S
N461 C453 1.427 . S
N461 C459 1.384 . S
H462 C468 0.930 . S
H463 C472 0.930 . S
H464 C477 0.929 . S
H465 C475 0.929 . S
H466 C470 0.929 . S
H467 C476 0.929 . S
C468 H462 0.930 . S
C468 C469 1.367 . S
C468 C476 1.378 . S
C469 C468 1.367 . S
C469 C477 1.433 . S
C470 H466 0.929 . S
C470 C472 1.378 . S
C470 C474 1.350 . S
C471 C474 1.463 . S
C471 C476 1.350 . S
C471 N479 1.427 . S
C472 H463 0.930 . S
C472 C470 1.378 . S
C472 C473 1.367 . S
C473 C472 1.367 . S
C473 C475 1.433 . S
C474 C470 1.350 . S
C474 C471 1.463 . S
C474 N478 1.427 . S
C475 H465 0.929 . S
C475 C473 1.433 . S
C475 N478 1.384 . S
C476 H467 0.929 . S
C476 C468 1.378 . S
C476 C471 1.350 . S
C477 H464 0.929 . S
C477 C469 1.433 . S
C477 N479 1.384 . S
N478 C474 1.427 . S
N478 C475 1.384 . S
N479 C471 1.427 . S
N479 C477 1.384 . S
H480 C486 0.930 . S
H481 C490 0.930 . S
H482 C495 0.929 . S
H483 C493 0.929 . S
H484 C488 0.929 . S
H485 C494 0.929 . S
C486 H480 0.930 . S
C486 C487 1.367 . S
C486 C494 1.378 . S
C487 C486 1.367 . S
C487 C495 1.433 . S
C488 H484 0.929 . S
C488 C490 1.378 . S
C488 C492 1.350 . S
C489 C492 1.463 . S
C489 C494 1.350 . S
C489 N497 1.427 . S
C490 H481 0.930 . S
C490 C488 1.378 . S
C490 C491 1.364 1_655 S
C491 C490 1.364 1_455 S
C491 C493 1.431 1_455 S
C492 C488 1.350 . S
C492 C489 1.463 . S
C492 N496 1.427 . S
C493 H483 0.929 . S
C493 C491 1.431 1_655 S
C493 N496 1.384 . S
C494 H485 0.929 . S
C494 C486 1.378 . S
C494 C489 1.350 . S
C495 H482 0.929 . S
C495 C487 1.433 . S
C495 N497 1.384 . S
N496 C492 1.427 . S
N496 C493 1.384 . S
N497 C489 1.427 . S
N497 C495 1.384 . S
H498 C504 0.930 . S
H499 C508 0.930 . S
H500 C513 0.929 . S
H501 C511 0.929 . S
H502 C506 0.929 . S
H503 C512 0.929 . S
C504 H498 0.930 . S
C504 C505 1.367 . S
C504 C512 1.378 . S
C505 C504 1.367 . S
C505 C513 1.433 . S
C506 H502 0.929 . S
C506 C508 1.378 1_655 S
C506 C510 1.350 . S
C507 C510 1.463 . S
C507 C512 1.350 . S
C507 N515 1.427 . S
C508 H499 0.930 . S
C508 C506 1.378 1_455 S
C508 C509 1.367 . S
C509 C508 1.367 . S
C509 C511 1.433 1_455 S
C510 C506 1.350 . S
C510 C507 1.463 . S
C510 N514 1.427 . S
C511 H501 0.929 . S
C511 C509 1.433 1_655 S
C511 N514 1.384 . S
C512 H503 0.929 . S
C512 C504 1.378 . S
C512 C507 1.350 . S
C513 H500 0.929 . S
C513 C505 1.433 . S
C513 N515 1.384 . S
N514 C510 1.427 . S
N514 C511 1.384 . S
N515 C507 1.427 . S
N515 C513 1.384 . S
H516 C522 0.930 . S
H517 C526 0.930 . S
H518 C531 0.929 . S
H519 C529 0.929 . S
H520 C524 0.929 . S
H521 C530 0.929 . S
C522 H516 0.930 . S
C522 C523 1.367 . S
C522 C530 1.378 . S
C523 C522 1.367 . S
C523 C531 1.433 1_655 S
C524 H520 0.929 . S
C524 C526 1.378 . S
C524 C528 1.350 . S
C525 C528 1.463 . S
C525 C530 1.350 1_455 S
C525 N533 1.427 . S
C526 H517 0.930 . S
C526 C524 1.378 . S
C526 C527 1.367 . S
C527 C526 1.367 . S
C527 C529 1.433 . S
C528 C524 1.350 . S
C528 C525 1.463 . S
C528 N532 1.427 . S
C529 H519 0.929 . S
C529 C527 1.433 . S
C529 N532 1.384 . S
C530 H521 0.929 . S
C530 C522 1.378 . S
C530 C525 1.350 1_655 S
C531 H518 0.929 . S
C531 C523 1.433 1_455 S
C531 N533 1.384 . S
N532 C528 1.427 . S
N532 C529 1.384 . S
N533 C525 1.427 . S
N533 C531 1.384 . S
H534 C540 0.930 . S
H535 C544 0.930 . S
H536 C549 0.929 . S
H537 C547 0.929 . S
H538 C542 0.929 . S
H539 C548 0.929 . S
C540 H534 0.930 . S
C540 C541 1.367 . S
C540 C548 1.378 . S
C541 C540 1.367 . S
C541 C549 1.433 . S
C542 H538 0.929 . S
C542 C544 1.378 . S
C542 C546 1.350 1_655 S
C543 C546 1.463 . S
C543 C548 1.350 . S
C543 N551 1.427 . S
C544 H535 0.930 . S
C544 C542 1.378 . S
C544 C545 1.367 . S
C545 C544 1.367 . S
C545 C547 1.433 1_655 S
C546 C542 1.350 1_455 S
C546 C543 1.463 . S
C546 N550 1.427 . S
C547 H537 0.929 . S
C547 C545 1.433 1_455 S
C547 N550 1.384 . S
C548 H539 0.929 . S
C548 C540 1.378 . S
C548 C543 1.350 . S
C549 H536 0.929 . S
C549 C541 1.433 . S
C549 N551 1.384 . S
N550 C546 1.427 . S
N550 C547 1.384 . S
N551 C543 1.427 . S
N551 C549 1.384 . S
C343 C158 1.507 . S
C347 C63 1.507 . S
C361 C231 1.515 . S
C365 C326 1.515 . S
C379 C74 1.507 . S
C383 C147 1.507 . S
C397 C315 1.512 . S
C401 C242 1.512 . S
C415 C321 1.244 . S
C419 C56 1.311 . S
C433 C153 1.231 . S
C437 C224 1.312 . S
C451 C151 1.318 . S
C455 C226 1.232 . S
C469 C319 1.318 . S
C473 C58 1.232 . S
C487 C140 1.313 . S
C491 C237 1.256 . S
C505 C308 1.315 . S
C509 C69 1.227 . S
C523 C310 1.234 . S
C527 C67 1.312 . S
C541 C235 1.312 . S
C545 C142 1.233 . S
