# Generated by pormake.
# Topology reo, (8)-cn, num edge types: 1
# Building blocks:
#     Node 0, Type 0, BuildingBlock: LIZSOE_clean_sbu_0, # of connection points: 8
#     Node 1, Type 0, BuildingBlock: LIZSOE_clean_sbu_0, # of connection points: 8
#     Node 2, Type 0, BuildingBlock: LIZSOE_clean_sbu_0, # of connection points: 8
#     Edge 3, Type (0, 0), BuildingBlock: KIFKEQ_clean_linker_1, # of connection points: 2
#     Edge 4, Type (0, 0), BuildingBlock: KIFKEQ_clean_linker_1, # of connection points: 2
#     Edge 5, Type (0, 0), BuildingBlock: KIFKEQ_clean_linker_1, # of connection points: 2
#     Edge 6, Type (0, 0), BuildingBlock: KIFKEQ_clean_linker_1, # of connection points: 2
#     Edge 7, Type (0, 0), BuildingBlock: KIFKEQ_clean_linker_1, # of connection points: 2
#     Edge 8, Type (0, 0), BuildingBlock: KIFKEQ_clean_linker_1, # of connection points: 2
#     Edge 9, Type (0, 0), BuildingBlock: KIFKEQ_clean_linker_1, # of connection points: 2
#     Edge 10, Type (0, 0), BuildingBlock: KIFKEQ_clean_linker_1, # of connection points: 2
#     Edge 11, Type (0, 0), BuildingBlock: KIFKEQ_clean_linker_1, # of connection points: 2
#     Edge 12, Type (0, 0), BuildingBlock: KIFKEQ_clean_linker_1, # of connection points: 2
#     Edge 13, Type (0, 0), BuildingBlock: KIFKEQ_clean_linker_1, # of connection points: 2
#     Edge 14, Type (0, 0), BuildingBlock: KIFKEQ_clean_linker_1, # of connection points: 2
# Relax obj value: 0.293
# Max RMSD: 0.276
# Mean RMSD: 0.238
data_MOF--net-reo--node1-LIZSOE_clean_sbu_0--edge1-KIFKEQ_clean_linker_1
_symmetry_space_group_name_H-M    P1
_symmetry_Int_Tables_number       1
_symmetry_cell_setting            triclinic
loop_
_symmetry_equiv_pos_as_xyz
'x, y, z'
_cell_length_a     28.896031
_cell_length_b     23.98144
_cell_length_c     18.691491
_cell_angle_alpha  92.571707
_cell_angle_beta   102.49828
_cell_angle_gamma 111.35841
loop_
_atom_site_label
_atom_site_type_symbol
_atom_site_fract_x
_atom_site_fract_y
_atom_site_fract_z
_atom_type_partial_charge
Co0 Co 0.09788 0.03987 0.50149 0.0
N1 N 0.16083 0.08314 0.48144 0.0
C2 C 0.19497 0.13783 0.51651 0.0
N3 N 0.23543 0.103 0.44993 0.0
C4 C 0.1863 0.0636 0.43973 0.0
C5 C 0.24092 0.1497 0.49807 0.0
Co6 Co 0.92402 0.99509 0.6989 0.0
N7 N 0.85984 0.95486 0.71744 0.0
N8 N 0.78531 0.93797 0.7483 0.0
C9 C 0.77746 0.89395 0.69453 0.0
C10 C 0.82319 0.90397 0.67628 0.0
C11 C 0.83577 0.97399 0.76206 0.0
Co12 Co 0.01058 0.01598 0.59952 0.0
C13 C 0.9663 0.08303 0.69202 0.0
H14 H 0.82857 0.87796 0.63226 0.0
O15 O 0.03873 0.99116 0.5182 0.0
O16 O 0.94201 0.99124 0.52369 0.0
O17 O 0.0268 0.10053 0.56997 0.0
O18 O 0.07816 0.04134 0.67532 0.0
O19 O 0.13111 0.06282 0.6018 0.0
O20 O 0.89104 0.98314 0.59933 0.0
O21 O 0.98361 0.04031 0.682 0.0
O22 O 0.93377 0.92157 0.69105 0.0
O23 O 0.0814 0.1083 0.49849 0.0
O24 O 0.10793 0.97225 0.50774 0.0
O25 O 0.994 0.93173 0.62884 0.0
O26 O 0.92106 0.06748 0.70467 0.0
C27 C 0.05402 0.12927 0.52738 0.0
C28 C 0.86124 0.03141 0.81521 0.0
H29 H 0.85257 0.06805 0.78841 0.0
H30 H 0.84658 0.02657 0.8656 0.0
H31 H 0.90344 0.04425 0.83134 0.0
C32 C 0.89793 0.98259 0.53494 0.0
C33 C 0.12333 0.06139 0.66569 0.0
H34 H 0.18777 0.16589 0.55612 0.0
H35 H 0.17562 0.97049 0.42355 0.0
H36 H 0.17735 1.00602 0.34129 0.0
H37 H 0.121 0.98657 0.3771 0.0
C38 C 0.16354 1.00326 0.39239 0.0
C39 C 0.06102 0.95222 0.51435 0.0
C40 C 0.96257 0.90104 0.66505 0.0
H41 H 0.27619 0.1887 0.52007 0.0
H42 H 0.74069 0.85845 0.66825 0.0
Co43 Co 0.51677 0.15992 0.14332 0.0
N44 N 0.53085 0.24063 0.1354 0.0
C45 C 0.57482 0.28796 0.13816 0.0
N46 N 0.51364 0.32432 0.12418 0.0
C47 C 0.49446 0.26411 0.12742 0.0
C48 C 0.56432 0.33954 0.1316 0.0
Co49 Co 0.504 0.88915 1.04863 0.0
N50 N 0.49137 0.80926 1.05426 0.0
N51 N 0.50789 0.72539 1.04719 0.0
C52 C 0.47111 0.71636 0.08409 0.0
C53 C 0.46071 0.76802 0.08799 0.0
C54 C 0.51963 0.78225 1.03023 0.0
Co55 Co 0.50938 0.02361 0.09736 0.0
C56 C 0.50196 0.93745 0.96572 0.0
H57 H 0.43453 0.7759 0.11684 0.0
O58 O 0.50311 0.08817 0.15907 0.0
O59 O 0.55948 1.00927 0.18007 0.0
O60 O 0.56779 0.0804 1.06462 0.0
O61 O 0.45969 0.03791 1.01463 0.0
O62 O 0.4828 0.13853 1.04061 0.0
O63 O 0.54057 0.90985 0.15037 0.0
O64 O 0.51602 0.96013 1.03504 0.0
O65 O 0.44057 0.87827 1.07058 0.0
O66 O 0.58119 0.16887 0.12511 0.0
O67 O 0.54366 0.17021 0.24237 0.0
O68 O 0.45064 0.96589 0.12965 0.0
O69 O 0.47464 0.87942 0.9502 0.0
C70 C 0.59541 0.13558 0.08766 0.0
C71 C 0.56311 0.81526 0.99697 0.0
H72 H 0.57343 0.86479 1.00683 0.0
H73 H 0.59718 0.80472 1.02059 0.0
H74 H 0.55125 0.80055 0.93643 0.0
C75 C 0.5665 0.96018 0.19284 0.0
C76 C 0.45543 0.0879 0.99943 0.0
H77 H 0.61218 0.28554 0.14555 0.0
H78 H 0.41559 0.21469 1.07165 0.0
H79 H 0.42546 0.25381 0.16145 0.0
H80 H 0.43795 0.18513 0.15294 0.0
C81 C 0.44025 0.22731 0.12893 0.0
C82 C 0.51741 0.11185 0.22809 0.0
C83 C 0.42476 0.91006 0.10742 0.0
H84 H 0.59178 0.38479 0.13249 0.0
H85 H 0.45458 0.67626 0.10903 0.0
Co86 Co 0.11019 0.48213 0.08502 0.0
N87 N 0.17475 0.47859 0.12834 0.0
C88 C 0.17848 0.43373 0.16755 0.0
N89 N 0.25641 0.4839 0.1559 0.0
C90 C 0.22351 0.50873 0.1221 0.0
C91 C 0.22797 0.43724 0.18494 0.0
Co92 Co 0.89972 0.52715 0.09746 0.0
N93 N 0.83135 0.51789 1.05821 0.0
N94 N 0.75566 0.5289 1.02864 0.0
C95 C 0.74638 0.46986 1.02908 0.0
C96 C 0.79233 0.46329 1.04751 0.0
C97 C 0.80761 0.55744 1.04609 0.0
Co98 Co 0.00999 0.51406 0.09238 0.0
C99 C 0.96293 0.59244 0.16599 0.0
H100 H 0.79651 0.42113 1.05754 0.0
O101 O 0.05103 0.48305 1.03789 0.0
O102 O 0.99321 0.5554 1.00356 0.0
O103 O 0.06838 0.59106 0.13775 0.0
O104 O 0.02398 0.47267 0.18223 0.0
O105 O 0.08292 0.44077 0.15885 0.0
O106 O 0.91956 0.56274 1.01354 0.0
O107 O 0.96466 0.54082 0.14225 0.0
O108 O 0.88424 0.45151 1.04927 0.0
O109 O 0.13191 0.55875 0.1433 0.0
O110 O 0.13099 0.52068 1.01339 0.0
O111 O 0.954 0.43485 1.04618 0.0
O112 O 0.91958 0.59927 0.14687 0.0
C113 C 0.11565 0.59948 0.15797 0.0
C114 C 0.83573 0.62485 1.0606 0.0
H115 H 0.87269 0.63803 1.04476 0.0
H116 H 0.81313 0.64871 1.02999 0.0
H117 H 0.84374 0.64006 0.12053 0.0
C118 C 0.95595 0.57281 0.98113 0.0
C119 C 0.05075 0.44036 0.19558 0.0
H120 H 0.14678 0.39762 0.17905 0.0
H121 H 0.22914 0.54803 1.02224 0.0
H122 H 0.28138 0.589 0.10108 0.0
H123 H 0.21916 0.59285 0.09298 0.0
C124 C 0.23933 0.563 0.08259 0.0
C125 C 0.08673 0.47688 1.00772 0.0
C126 C 0.90569 0.41785 1.03106 0.0
H127 H 0.24123 0.40472 0.21158 0.0
H128 H 0.70884 0.4343 1.02166 0.0
H129 H 0.01735 0.4472 0.32403 0.0
H130 H 0.06667 0.33618 0.19466 0.0
H131 H 0.01484 0.37923 0.42036 0.0
H132 H 0.06569 0.27103 0.29005 0.0
H133 H 0.13257 0.22432 0.5035 0.0
H134 H 0.1268 0.30534 0.43293 0.0
H135 H 0.9656 0.24646 0.42447 0.0
H136 H 0.97136 0.16431 0.49638 0.0
C137 C 0.02746 0.4085 0.31595 0.0
C138 C 0.04395 0.39843 0.25264 0.0
C139 C 0.02598 0.3697 0.37094 0.0
C140 C 0.04106 0.32055 0.36321 0.0
C141 C 0.05493 0.30922 0.29834 0.0
C142 C 0.05599 0.34713 0.24389 0.0
C143 C 0.09616 0.22959 0.48884 0.0
C144 C 0.05232 0.18738 0.50488 0.0
C145 C 0.09289 0.27609 0.44832 0.0
C146 C 0.04567 0.28182 0.42243 0.0
C147 C 1.00255 0.24324 0.44406 0.0
C148 C 0.00588 0.19634 0.48529 0.0
H149 H 0.85374 0.91805 0.39303 0.0
H150 H 0.8432 0.04967 0.54716 0.0
H151 H 0.77309 0.91331 0.30938 0.0
H152 H 0.76362 0.04404 0.46649 0.0
H153 H 0.64288 0.06091 0.2794 0.0
H154 H 0.72607 0.06891 0.35308 0.0
H155 H 0.68083 0.87587 0.30559 0.0
H156 H 0.59785 0.8678 0.2306 0.0
C157 C 0.83478 0.94658 0.40832 0.0
C158 C 0.85471 0.98412 0.47653 0.0
C159 C 0.78833 0.94341 0.36114 0.0
C160 C 0.76154 0.97816 0.38129 0.0
C161 C 0.78308 0.0172 0.44831 0.0
C162 C 0.82879 0.02015 0.4949 0.0
C163 C 0.65012 0.01992 0.28564 0.0
C164 C 0.61309 0.96369 0.24927 0.0
C165 C 0.69815 0.02453 0.32766 0.0
C166 C 0.71059 0.97306 0.33486 0.0
C167 C 0.67312 0.91662 0.30015 0.0
C168 C 0.62506 0.91196 0.25811 0.0
H169 H 0.08142 0.85716 0.5652 0.0
H170 H 0.98232 0.90311 0.39154 0.0
H171 H 0.06818 0.76602 0.48548 0.0
H172 H 0.96932 0.81245 0.31145 0.0
H173 H 0.01539 0.70885 0.15464 0.0
H174 H 0.03222 0.79107 0.25063 0.0
H175 H 0.00711 0.66485 0.4091 0.0
H176 H 0.98994 0.58237 0.31217 0.0
C177 C 0.05447 0.84601 0.5114 0.0
C178 C 0.03236 0.88718 0.48528 0.0
C179 C 0.04769 0.79428 0.46509 0.0
C180 C 0.01913 0.78285 0.39107 0.0
C181 C 0.99274 0.82067 0.36754 0.0
C182 C 0.99894 0.87187 0.41423 0.0
C183 C 0.01649 0.69912 0.21092 0.0
C184 C 1.00196 0.63896 0.22564 0.0
C185 C 0.02452 0.74604 0.26561 0.0
C186 C 0.019 0.73433 0.33708 0.0
C187 C 0.01101 0.67549 0.35447 0.0
C188 C 1.00246 0.6283 0.29924 0.0
H189 H 0.53024 0.14399 0.37608 0.0
H190 H 0.41776 0.03209 0.18155 0.0
H191 H 0.46107 0.13446 0.43619 0.0
H192 H 0.35069 0.0169 0.24359 0.0
H193 H 0.24214 0.09552 0.30911 0.0
H194 H 0.31197 0.08463 0.26409 0.0
H195 H 0.39052 0.08103 0.48785 0.0
H196 H 0.32043 0.0938 0.5322 0.0
C197 C 0.49138 0.11442 0.34768 0.0
C198 C 0.48037 0.08766 0.2742 0.0
C199 C 0.45157 0.10903 0.3821 0.0
C200 C 0.39997 0.07612 0.34399 0.0
C201 C 0.38974 0.04398 0.27401 0.0
C202 C 0.42905 0.05072 0.2391 0.0
C203 C 0.27411 0.09156 0.34812 0.0
C204 C 0.27592 0.09459 0.4236 0.0
C205 C 0.31408 0.08495 0.32266 0.0
C206 C 0.35678 0.08082 0.3722 0.0
C207 C 0.35846 0.08412 0.44814 0.0
C208 C 0.31845 0.09123 0.47356 0.0
H209 H 0.88036 0.79678 0.65551 0.0
H210 H 0.04539 0.87425 0.72782 0.0
H211 H 0.87859 0.70872 0.71629 0.0
H212 H 0.04405 0.78835 0.79425 0.0
H213 H 0.03015 0.61871 0.90292 0.0
H214 H 0.03202 0.68878 0.81113 0.0
H215 H 0.88528 0.68597 0.83314 0.0
H216 H 0.88213 0.61423 0.91952 0.0
C217 C 0.91641 0.79436 0.68363 0.0
C218 C 0.96296 0.84229 0.68665 0.0
C219 C 0.91551 0.74425 0.71991 0.0
C220 C 0.96107 0.74152 0.76299 0.0
C221 C 0.00802 0.78801 0.7619 0.0
C222 C 0.00893 0.8375 0.72361 0.0
C223 C 0.99788 0.63223 0.88683 0.0
C224 C 0.95611 0.61062 0.91936 0.0
C225 C 0.99914 0.67309 0.83456 0.0
C226 C 0.95882 0.69381 0.81372 0.0
C227 C 0.91673 0.67076 0.84538 0.0
C228 C 0.9152 0.62967 0.89641 0.0
H229 H 0.37214 0.98828 0.92314 0.0
H230 H 0.43455 0.18359 0.94887 0.0
H231 H 0.2906 0.98671 0.85018 0.0
H232 H 0.35282 0.18196 0.87882 0.0
H233 H 0.21584 0.15148 0.68205 0.0
H234 H 0.29725 0.15815 0.75918 0.0
H235 H 0.21738 1.00902 0.86559 0.0
H236 H 0.13528 1.00115 0.78528 0.0
C237 C 0.36888 0.03086 0.91228 0.0
C238 C 0.41015 0.08606 0.94205 0.0
C239 C 0.32171 0.02998 0.87165 0.0
C240 C 0.31467 0.08421 0.85971 0.0
C241 C 0.35669 0.13924 0.8866 0.0
C242 C 0.40379 0.14015 0.9268 0.0
C243 C 0.21554 0.12096 0.72302 0.0
C244 C 0.16922 0.07579 0.72756 0.0
C245 C 0.26234 0.12478 0.76745 0.0
C246 C 0.26415 0.08353 0.81799 0.0
C247 C 0.21746 0.04073 0.82611 0.0
C248 C 0.17034 0.03696 0.78133 0.0
H249 H 0.99007 0.39269 0.93581 0.0
H250 H 0.15119 0.44004 0.94901 0.0
H251 H 0.96925 0.30427 0.84608 0.0
H252 H 0.13031 0.35191 0.85953 0.0
H253 H 0.06326 0.13846 0.78285 0.0
H254 H 0.09583 0.23953 0.85339 0.0
H255 H 0.97127 0.27524 0.71749 0.0
H256 H 0.93915 0.17471 0.64742 0.0
C257 C 0.02103 0.38477 0.91918 0.0
C258 C 0.07229 0.42426 0.94938 0.0
C259 C 0.00912 0.33413 0.86728 0.0
C260 C 0.04812 0.32096 0.84494 0.0
C261 C 0.09929 0.3604 0.87529 0.0
C262 C 0.11115 0.41135 0.92632 0.0
C263 C 0.04453 0.16912 0.76554 0.0
C264 C 0.9987 0.14856 0.70937 0.0
C265 C 0.06268 0.22685 0.80675 0.0
C266 C 0.03524 0.26499 0.79266 0.0
C267 C 0.99261 0.24662 0.73128 0.0
C268 C 0.97478 0.18936 0.69007 0.0
H269 H 0.49155 0.9076 0.8179 0.0
H270 H 0.60306 0.01148 1.01779 0.0
H271 H 0.56155 0.91477 0.76045 0.0
H272 H 0.67152 0.02308 0.95909 0.0
H273 H 0.77671 0.94024 0.88877 0.0
H274 H 0.70749 0.95262 0.9343 0.0
H275 H 0.63438 0.96963 0.71323 0.0
H276 H 0.70379 0.95577 0.66826 0.0
C277 C 0.5306 0.93474 0.84825 0.0
C278 C 0.54099 0.96006 0.9222 0.0
C279 C 0.57087 0.93869 0.81541 0.0
C280 C 0.62241 0.96841 0.85574 0.0
C281 C 0.63245 0.99853 0.92688 0.0
C282 C 0.59254 0.99361 0.95996 0.0
C283 C 0.74621 0.94768 0.85053 0.0
C284 C 0.74575 0.94812 0.77556 0.0
C285 C 0.70655 0.95498 0.87632 0.0
C286 C 0.66545 0.96307 0.82762 0.0
C287 C 0.66515 0.96336 0.75227 0.0
C288 C 0.70484 0.9557 0.72653 0.0
H289 H 0.33791 0.49491 0.26456 0.0
H290 H 0.28617 0.48415 1.02848 0.0
H291 H 0.41138 0.47269 0.24937 0.0
H292 H 0.36038 0.46323 1.01247 0.0
H293 H 0.54193 0.43096 0.20919 0.0
H294 H 0.49058 0.49284 0.21051 0.0
H295 H 0.37318 0.36943 1.0279 0.0
H296 H 0.4254 0.30957 1.02555 0.0
C297 C 0.3438 0.49058 0.20962 0.0
C298 C 0.30666 0.49144 0.14782 0.0
C299 C 0.38585 0.47784 0.20071 0.0
C300 C 0.3914 0.4652 0.12954 0.0
C301 C 0.35682 0.47188 1.06799 0.0
C302 C 0.31475 0.48482 1.07708 0.0
C303 C 0.50558 0.4181 0.16857 0.0
C304 C 0.48673 0.36468 0.11873 0.0
C305 C 0.47612 0.45324 0.16942 0.0
C306 C 0.42745 0.4358 0.11989 0.0
C307 C 0.41052 0.38458 1.06661 0.0
C308 C 0.43992 0.34956 1.06598 0.0
H309 H 0.10968 0.70435 0.11602 0.0
H310 H 0.21081 0.63282 0.25035 0.0
H311 H 0.1835 0.79632 0.11605 0.0
H312 H 0.28415 0.72561 0.25227 0.0
H313 H 0.33583 0.83381 1.01549 0.0
H314 H 0.25621 0.77478 1.04801 0.0
H315 H 0.32403 0.85658 0.27552 0.0
H316 H 0.40364 0.91763 0.24226 0.0
C317 C 0.14719 0.70961 0.14895 0.0
C318 C 0.15468 0.66127 0.1826 0.0
C319 C 0.18938 0.76211 0.14861 0.0
C320 C 0.23926 0.76757 0.18381 0.0
C321 C 0.24595 0.72253 0.22528 0.0
C322 C 0.204 0.6695 0.22418 0.0
C323 C 0.33325 0.84018 1.07205 0.0
C324 C 0.37551 0.88015 0.12639 0.0
C325 C 0.28772 0.80689 0.09052 0.0
C326 C 0.28406 0.81181 0.16403 0.0
C327 C 0.32591 0.85278 0.21835 0.0
C328 C 0.37119 0.88751 0.19936 0.0
H329 H 0.61612 0.11934 0.95488 0.0
H330 H 0.6857 0.21158 0.17788 0.0
H331 H 0.69843 0.16636 0.92253 0.0
H332 H 0.76775 0.25834 0.14594 0.0
H333 H 0.91367 0.32196 0.0952 0.0
H334 H 0.83873 0.23268 0.09893 0.0
H335 H 0.74605 0.28327 0.92051 0.0
H336 H 0.82052 0.37287 0.91808 0.0
C337 C 0.64939 0.14855 0.99726 0.0
C338 C 0.645 0.16188 1.06885 0.0
C339 C 0.69626 0.17529 0.97879 0.0
C340 C 0.73951 0.21496 1.0321 0.0
C341 C 0.73527 0.22673 0.10429 0.0
C342 C 0.6883 0.20084 0.12231 0.0
C343 C 0.87805 0.31181 1.05371 0.0
C344 C 0.87241 0.35417 1.00676 0.0
C345 C 0.83509 0.26116 1.05642 0.0
C346 C 0.78662 0.25205 1.01105 0.0
C347 C 0.783 0.28925 0.956 0.0
C348 C 0.82567 0.34037 0.95425 0.0
H349 H 0.735 0.60837 0.94139 0.0
H350 H 0.68826 0.5029 0.11256 0.0
H351 H 0.67064 0.65172 0.94397 0.0
H352 H 0.62117 0.54173 0.11144 0.0
H353 H 0.55404 0.68155 0.15769 0.0
H354 H 0.61238 0.63044 0.15077 0.0
H355 H 0.5821 0.6324 0.91393 0.0
H356 H 0.52527 0.68579 0.92258 0.0
C357 C 0.71111 0.59498 0.97989 0.0
C358 C 0.71756 0.55414 1.02858 0.0
C359 C 0.6735 0.61863 0.98039 0.0
C360 C 0.64084 0.6006 1.02841 0.0
C361 C 0.64634 0.55788 1.07509 0.0
C362 C 0.68444 0.53522 1.0754 0.0
C363 C 0.55942 0.66992 0.10426 0.0
C364 C 0.5358 0.68757 1.04075 0.0
C365 C 0.59271 0.64064 0.1 0.0
C366 C 0.60241 0.62768 1.03177 0.0
C367 C 0.57655 0.64292 0.96761 0.0
C368 C 0.54374 0.6729 0.97221 0.0
loop_
_geom_bond_atom_site_label_1
_geom_bond_atom_site_label_2
_geom_bond_distance
_geom_bond_site_symmetry_2
_ccdc_geom_bond_type
Co0 N1 2.034 . S
Co0 O15 2.262 1_545 S
Co0 O19 1.958 . S
Co0 O23 1.950 . S
Co0 O24 2.057 1_545 S
N1 Co0 2.034 . S
N1 C2 1.366 . S
N1 C4 1.332 . S
C2 N1 1.366 . S
C2 C5 1.377 . S
C2 H34 0.931 . S
N3 C4 1.346 . S
N3 C5 1.337 . S
C4 N1 1.332 . S
C4 N3 1.346 . S
C4 C38 1.361 . S
C5 C2 1.377 . S
C5 N3 1.337 . S
C5 H41 0.930 . S
Co6 N7 2.034 . S
Co6 O20 1.950 . S
Co6 O21 2.262 1_565 S
Co6 O22 1.958 . S
Co6 O26 2.057 1_565 S
N7 Co6 2.034 . S
N7 C10 1.366 . S
N7 C11 1.332 . S
N8 C9 1.337 . S
N8 C11 1.346 . S
C9 N8 1.337 . S
C9 C10 1.377 . S
C9 H42 0.930 . S
C10 N7 1.366 . S
C10 C9 1.377 . S
C10 H14 0.931 . S
C11 N7 1.332 . S
C11 N8 1.346 . S
C11 C28 1.361 1_565 S
Co12 O15 2.097 1_545 S
Co12 O16 2.065 1_445 S
Co12 O17 2.065 . S
Co12 O18 2.042 . S
Co12 O21 2.097 1_455 S
Co12 O25 2.042 1_445 S
C13 O21 1.253 . S
C13 O26 1.263 . S
H14 C10 0.931 . S
O15 Co0 2.262 1_565 S
O15 Co12 2.097 1_565 S
O15 C39 1.253 . S
O16 Co12 2.065 1_665 S
O16 C32 1.221 . S
O17 Co12 2.065 . S
O17 C27 1.221 . S
O18 Co12 2.042 . S
O18 C33 1.237 . S
O19 Co0 1.958 . S
O19 C33 1.278 . S
O20 Co6 1.950 . S
O20 C32 1.277 . S
O21 Co6 2.262 1_545 S
O21 Co12 2.097 1_655 S
O21 C13 1.253 . S
O22 Co6 1.958 . S
O22 C40 1.278 . S
O23 Co0 1.950 . S
O23 C27 1.277 . S
O24 Co0 2.057 1_565 S
O24 C39 1.263 . S
O25 Co12 2.042 1_665 S
O25 C40 1.237 . S
O26 Co6 2.057 1_545 S
O26 C13 1.263 . S
C27 O17 1.221 . S
C27 O23 1.277 . S
C28 C11 1.361 1_545 S
C28 H29 0.960 . S
C28 H30 0.961 . S
C28 H31 0.961 . S
H29 C28 0.960 . S
H30 C28 0.961 . S
H31 C28 0.961 . S
C32 O16 1.221 . S
C32 O20 1.277 . S
C33 O18 1.237 . S
C33 O19 1.278 . S
H34 C2 0.931 . S
H35 C38 0.961 . S
H36 C38 0.961 . S
H37 C38 0.960 . S
C38 C4 1.361 . S
C38 H35 0.961 . S
C38 H36 0.961 . S
C38 H37 0.960 . S
C39 O15 1.253 . S
C39 O24 1.263 . S
C40 O22 1.278 . S
C40 O25 1.237 . S
H41 C5 0.930 . S
H42 C9 0.930 . S
Co43 N44 2.034 1_554 S
Co43 O58 2.262 . S
Co43 O62 1.958 1_554 S
Co43 O66 1.950 . S
Co43 O67 2.057 . S
N44 Co43 2.034 1_556 S
N44 C45 1.366 . S
N44 C47 1.332 1_556 S
C45 N44 1.366 . S
C45 C48 1.377 . S
C45 H77 0.931 . S
N46 C47 1.346 . S
N46 C48 1.337 1_554 S
C47 N44 1.332 1_554 S
C47 N46 1.346 . S
C47 C81 1.361 . S
C48 C45 1.377 . S
C48 N46 1.337 1_556 S
C48 H84 0.930 . S
Co49 N50 2.034 . S
Co49 O63 1.950 . S
Co49 O64 2.262 1_554 S
Co49 O65 1.958 1_554 S
Co49 O69 2.057 1_554 S
N50 Co49 2.034 . S
N50 C53 1.366 . S
N50 C54 1.332 . S
N51 C52 1.337 . S
N51 C54 1.346 . S
C52 N51 1.337 . S
C52 C53 1.377 . S
C52 H85 0.930 . S
C53 N50 1.366 . S
C53 C52 1.377 . S
C53 H57 0.931 . S
C54 N50 1.332 . S
C54 N51 1.346 . S
C54 C71 1.361 . S
Co55 O58 2.097 . S
Co55 O59 2.065 . S
Co55 O60 2.065 . S
Co55 O61 2.042 1_554 S
Co55 O64 2.097 1_544 S
Co55 O68 2.042 1_545 S
C56 O64 1.253 . S
C56 O69 1.263 . S
H57 C53 0.931 . S
O58 Co43 2.262 . S
O58 Co55 2.097 . S
O58 C82 1.253 . S
O59 Co55 2.065 . S
O59 C75 1.221 1_545 S
O60 Co55 2.065 . S
O60 C70 1.221 . S
O61 Co55 2.042 1_556 S
O61 C76 1.237 . S
O62 Co43 1.958 1_556 S
O62 C76 1.278 . S
O63 Co49 1.950 . S
O63 C75 1.277 . S
O64 Co49 2.262 1_556 S
O64 Co55 2.097 1_566 S
O64 C56 1.253 . S
O65 Co49 1.958 1_556 S
O65 C83 1.278 1_556 S
O66 Co43 1.950 . S
O66 C70 1.277 . S
O67 Co43 2.057 . S
O67 C82 1.263 . S
O68 Co55 2.042 1_565 S
O68 C83 1.237 . S
O69 Co49 2.057 1_556 S
O69 C56 1.263 . S
C70 O60 1.221 . S
C70 O66 1.277 . S
C71 C54 1.361 . S
C71 H72 0.960 . S
C71 H73 0.961 . S
C71 H74 0.961 . S
H72 C71 0.960 . S
H73 C71 0.961 . S
H74 C71 0.961 . S
C75 O59 1.221 1_565 S
C75 O63 1.277 . S
C76 O61 1.237 . S
C76 O62 1.278 . S
H77 C45 0.931 . S
H78 C81 0.961 . S
H79 C81 0.961 . S
H80 C81 0.960 . S
C81 C47 1.361 . S
C81 H78 0.961 . S
C81 H79 0.961 . S
C81 H80 0.960 . S
C82 O58 1.253 . S
C82 O67 1.263 . S
C83 O65 1.278 1_554 S
C83 O68 1.237 . S
H84 C48 0.930 . S
H85 C52 0.930 . S
Co86 N87 2.034 . S
Co86 O101 2.262 1_554 S
Co86 O105 1.958 . S
Co86 O109 1.950 . S
Co86 O110 2.057 1_554 S
N87 Co86 2.034 . S
N87 C88 1.366 . S
N87 C90 1.332 . S
C88 N87 1.366 . S
C88 C91 1.377 . S
C88 H120 0.931 . S
N89 C90 1.346 . S
N89 C91 1.337 . S
C90 N87 1.332 . S
C90 N89 1.346 . S
C90 C124 1.361 1_554 S
C91 C88 1.377 . S
C91 N89 1.337 . S
C91 H127 0.930 . S
Co92 N93 2.034 1_554 S
Co92 O106 1.950 1_554 S
Co92 O107 2.262 . S
Co92 O108 1.958 . S
Co92 O112 2.057 . S
N93 Co92 2.034 1_556 S
N93 C96 1.366 . S
N93 C97 1.332 . S
N94 C95 1.337 . S
N94 C97 1.346 . S
C95 N94 1.337 . S
C95 C96 1.377 . S
C95 H128 0.930 . S
C96 N93 1.366 . S
C96 C95 1.377 . S
C96 H100 0.931 . S
C97 N93 1.332 . S
C97 N94 1.346 . S
C97 C114 1.361 . S
Co98 O101 2.097 1_554 S
Co98 O102 2.065 1_454 S
Co98 O103 2.065 . S
Co98 O104 2.042 . S
Co98 O107 2.097 1_455 S
Co98 O111 2.042 1_454 S
C99 O107 1.253 . S
C99 O112 1.263 . S
H100 C96 0.931 . S
O101 Co86 2.262 1_556 S
O101 Co98 2.097 1_556 S
O101 C125 1.253 . S
O102 Co98 2.065 1_656 S
O102 C118 1.221 . S
O103 Co98 2.065 . S
O103 C113 1.221 . S
O104 Co98 2.042 . S
O104 C119 1.237 . S
O105 Co86 1.958 . S
O105 C119 1.278 . S
O106 Co92 1.950 1_556 S
O106 C118 1.277 . S
O107 Co92 2.262 . S
O107 Co98 2.097 1_655 S
O107 C99 1.253 . S
O108 Co92 1.958 . S
O108 C126 1.278 1_554 S
O109 Co86 1.950 . S
O109 C113 1.277 . S
O110 Co86 2.057 1_556 S
O110 C125 1.263 . S
O111 Co98 2.042 1_656 S
O111 C126 1.237 . S
O112 Co92 2.057 . S
O112 C99 1.263 . S
C113 O103 1.221 . S
C113 O109 1.277 . S
C114 C97 1.361 . S
C114 H115 0.960 . S
C114 H116 0.961 . S
C114 H117 0.961 1_556 S
H115 C114 0.960 . S
H116 C114 0.961 . S
H117 C114 0.961 1_554 S
C118 O102 1.221 . S
C118 O106 1.277 . S
C119 O104 1.237 . S
C119 O105 1.278 . S
H120 C88 0.931 . S
H121 C124 0.961 . S
H122 C124 0.961 . S
H123 C124 0.960 . S
C124 C90 1.361 1_556 S
C124 H121 0.961 . S
C124 H122 0.961 . S
C124 H123 0.960 . S
C125 O101 1.253 . S
C125 O110 1.263 . S
C126 O108 1.278 1_556 S
C126 O111 1.237 . S
H127 C91 0.930 . S
H128 C95 0.930 . S
H129 C137 0.950 . S
H130 C142 0.950 . S
H131 C139 0.950 . S
H132 C141 0.950 . S
H133 C143 0.950 . S
H134 C145 0.950 . S
H135 C147 0.950 . S
H136 C148 0.950 . S
C137 H129 0.950 . S
C137 C138 1.386 . S
C137 C139 1.391 . S
C138 C137 1.386 . S
C138 C142 1.393 . S
C139 H131 0.950 . S
C139 C137 1.391 . S
C139 C140 1.400 . S
C140 C139 1.400 . S
C140 C141 1.398 . S
C140 C146 1.491 . S
C141 H132 0.950 . S
C141 C140 1.398 . S
C141 C142 1.391 . S
C142 H130 0.950 . S
C142 C138 1.393 . S
C142 C141 1.391 . S
C143 H133 0.950 . S
C143 C144 1.386 . S
C143 C145 1.391 . S
C144 C143 1.386 . S
C144 C148 1.393 . S
C145 H134 0.950 . S
C145 C143 1.391 . S
C145 C146 1.400 . S
C146 C140 1.491 . S
C146 C145 1.400 . S
C146 C147 1.398 . S
C147 H135 0.950 . S
C147 C146 1.398 . S
C147 C148 1.391 . S
C148 H136 0.950 . S
C148 C144 1.393 . S
C148 C147 1.391 . S
H149 C157 0.950 . S
H150 C162 0.950 . S
H151 C159 0.950 . S
H152 C161 0.950 . S
H153 C163 0.950 . S
H154 C165 0.950 . S
H155 C167 0.950 . S
H156 C168 0.950 . S
C157 H149 0.950 . S
C157 C158 1.386 1_545 S
C157 C159 1.391 . S
C158 C157 1.386 1_565 S
C158 C162 1.393 . S
C159 H151 0.950 . S
C159 C157 1.391 . S
C159 C160 1.400 1_545 S
C160 C159 1.400 1_565 S
C160 C161 1.398 . S
C160 C166 1.491 . S
C161 H152 0.950 . S
C161 C160 1.398 . S
C161 C162 1.391 . S
C162 H150 0.950 . S
C162 C158 1.393 . S
C162 C161 1.391 . S
C163 H153 0.950 . S
C163 C164 1.386 1_565 S
C163 C165 1.391 . S
C164 C163 1.386 1_545 S
C164 C168 1.393 . S
C165 H154 0.950 . S
C165 C163 1.391 . S
C165 C166 1.400 . S
C166 C160 1.491 . S
C166 C165 1.400 . S
C166 C167 1.398 1_565 S
C167 H155 0.950 . S
C167 C166 1.398 1_545 S
C167 C168 1.391 . S
C168 H156 0.950 . S
C168 C164 1.393 . S
C168 C167 1.391 . S
H169 C177 0.950 . S
H170 C182 0.950 . S
H171 C179 0.950 . S
H172 C181 0.950 . S
H173 C183 0.950 . S
H174 C185 0.950 . S
H175 C187 0.950 . S
H176 C188 0.950 . S
C177 H169 0.950 . S
C177 C178 1.386 . S
C177 C179 1.391 . S
C178 C177 1.386 . S
C178 C182 1.393 1_655 S
C179 H171 0.950 . S
C179 C177 1.391 . S
C179 C180 1.400 1_655 S
C180 C179 1.400 1_455 S
C180 C181 1.398 . S
C180 C186 1.491 . S
C181 H172 0.950 . S
C181 C180 1.398 . S
C181 C182 1.391 . S
C182 H170 0.950 . S
C182 C178 1.393 1_455 S
C182 C181 1.391 . S
C183 H173 0.950 . S
C183 C184 1.386 . S
C183 C185 1.391 . S
C184 C183 1.386 . S
C184 C188 1.393 1_455 S
C185 H174 0.950 . S
C185 C183 1.391 . S
C185 C186 1.400 . S
C186 C180 1.491 . S
C186 C185 1.400 . S
C186 C187 1.398 1_455 S
C187 H175 0.950 . S
C187 C186 1.398 1_655 S
C187 C188 1.391 . S
C188 H176 0.950 . S
C188 C184 1.393 1_655 S
C188 C187 1.391 . S
H189 C197 0.950 . S
H190 C202 0.950 . S
H191 C199 0.950 . S
H192 C201 0.950 . S
H193 C203 0.950 . S
H194 C205 0.950 . S
H195 C207 0.950 . S
H196 C208 0.950 . S
C197 H189 0.950 . S
C197 C198 1.386 . S
C197 C199 1.391 . S
C198 C197 1.386 . S
C198 C202 1.393 . S
C199 H191 0.950 . S
C199 C197 1.391 . S
C199 C200 1.400 . S
C200 C199 1.400 . S
C200 C201 1.398 . S
C200 C206 1.491 . S
C201 H192 0.950 . S
C201 C200 1.398 . S
C201 C202 1.391 . S
C202 H190 0.950 . S
C202 C198 1.393 . S
C202 C201 1.391 . S
C203 H193 0.950 . S
C203 C204 1.386 . S
C203 C205 1.391 . S
C204 C203 1.386 . S
C204 C208 1.393 . S
C205 H194 0.950 . S
C205 C203 1.391 . S
C205 C206 1.400 . S
C206 C200 1.491 . S
C206 C205 1.400 . S
C206 C207 1.398 . S
C207 H195 0.950 . S
C207 C206 1.398 . S
C207 C208 1.391 . S
C208 H196 0.950 . S
C208 C204 1.393 . S
C208 C207 1.391 . S
H209 C217 0.950 . S
H210 C222 0.950 . S
H211 C219 0.950 . S
H212 C221 0.950 . S
H213 C223 0.950 1_455 S
H214 C225 0.949 . S
H215 C227 0.950 . S
H216 C228 0.950 . S
C217 H209 0.950 . S
C217 C218 1.386 . S
C217 C219 1.391 . S
C218 C217 1.386 . S
C218 C222 1.393 . S
C219 H211 0.950 . S
C219 C217 1.391 . S
C219 C220 1.400 . S
C220 C219 1.400 . S
C220 C221 1.398 . S
C220 C226 1.491 . S
C221 H212 0.950 . S
C221 C220 1.398 . S
C221 C222 1.391 . S
C222 H210 0.950 . S
C222 C218 1.393 . S
C222 C221 1.391 . S
C223 H213 0.950 1_655 S
C223 C224 1.386 . S
C223 C225 1.391 . S
C224 C223 1.386 . S
C224 C228 1.393 . S
C225 H214 0.949 . S
C225 C223 1.391 . S
C225 C226 1.400 . S
C226 C220 1.491 . S
C226 C225 1.400 . S
C226 C227 1.398 . S
C227 H215 0.950 . S
C227 C226 1.398 . S
C227 C228 1.391 . S
C228 H216 0.950 . S
C228 C224 1.393 . S
C228 C227 1.391 . S
H229 C237 0.950 . S
H230 C242 0.950 . S
H231 C239 0.950 . S
H232 C241 0.950 . S
H233 C243 0.950 1_565 S
H234 C245 0.950 1_565 S
H235 C247 0.950 . S
H236 C248 0.950 . S
C237 H229 0.950 . S
C237 C238 1.386 . S
C237 C239 1.391 . S
C238 C237 1.386 . S
C238 C242 1.393 1_545 S
C239 H231 0.950 . S
C239 C237 1.391 . S
C239 C240 1.400 . S
C240 C239 1.400 . S
C240 C241 1.398 1_545 S
C240 C246 1.491 . S
C241 H232 0.950 . S
C241 C240 1.398 1_565 S
C241 C242 1.391 . S
C242 H230 0.950 . S
C242 C238 1.393 1_565 S
C242 C241 1.391 . S
C243 H233 0.950 1_545 S
C243 C244 1.386 . S
C243 C245 1.391 . S
C244 C243 1.386 . S
C244 C248 1.393 . S
C245 H234 0.950 1_545 S
C245 C243 1.391 . S
C245 C246 1.400 . S
C246 C240 1.491 . S
C246 C245 1.400 . S
C246 C247 1.398 . S
C247 H235 0.950 . S
C247 C246 1.398 . S
C247 C248 1.391 . S
C248 H236 0.950 . S
C248 C244 1.393 . S
C248 C247 1.391 . S
H249 C257 0.950 . S
H250 C262 0.950 . S
H251 C259 0.950 . S
H252 C261 0.950 . S
H253 C263 0.950 . S
H254 C265 0.950 . S
H255 C267 0.950 . S
H256 C268 0.950 . S
C257 H249 0.950 . S
C257 C258 1.386 1_655 S
C257 C259 1.391 . S
C258 C257 1.386 1_455 S
C258 C262 1.393 . S
C259 H251 0.950 . S
C259 C257 1.391 . S
C259 C260 1.400 1_655 S
C260 C259 1.400 1_455 S
C260 C261 1.398 . S
C260 C266 1.491 . S
C261 H252 0.950 . S
C261 C260 1.398 . S
C261 C262 1.391 . S
C262 H250 0.950 . S
C262 C258 1.393 . S
C262 C261 1.391 . S
C263 H253 0.950 . S
C263 C264 1.386 . S
C263 C265 1.391 . S
C264 C263 1.386 . S
C264 C268 1.393 1_455 S
C265 H254 0.950 . S
C265 C263 1.391 . S
C265 C266 1.400 . S
C266 C260 1.491 . S
C266 C265 1.400 . S
C266 C267 1.398 1_455 S
C267 H255 0.950 . S
C267 C266 1.398 1_655 S
C267 C268 1.391 . S
C268 H256 0.950 . S
C268 C264 1.393 1_655 S
C268 C267 1.391 . S
H269 C277 0.950 . S
H270 C282 0.950 1_545 S
H271 C279 0.950 . S
H272 C281 0.950 . S
H273 C283 0.950 . S
H274 C285 0.950 . S
H275 C287 0.950 . S
H276 C288 0.950 . S
C277 H269 0.950 . S
C277 C278 1.386 . S
C277 C279 1.391 . S
C278 C277 1.386 . S
C278 C282 1.393 . S
C279 H271 0.950 . S
C279 C277 1.391 . S
C279 C280 1.400 . S
C280 C279 1.400 . S
C280 C281 1.398 . S
C280 C286 1.491 . S
C281 H272 0.950 . S
C281 C280 1.398 . S
C281 C282 1.391 . S
C282 H270 0.950 1_565 S
C282 C278 1.393 . S
C282 C281 1.391 . S
C283 H273 0.950 . S
C283 C284 1.386 . S
C283 C285 1.391 . S
C284 C283 1.386 . S
C284 C288 1.393 . S
C285 H274 0.950 . S
C285 C283 1.391 . S
C285 C286 1.400 . S
C286 C280 1.491 . S
C286 C285 1.400 . S
C286 C287 1.398 . S
C287 H275 0.950 . S
C287 C286 1.398 . S
C287 C288 1.391 . S
C288 H276 0.950 . S
C288 C284 1.393 . S
C288 C287 1.391 . S
H289 C297 0.950 . S
H290 C302 0.950 . S
H291 C299 0.950 . S
H292 C301 0.950 . S
H293 C303 0.950 . S
H294 C305 0.950 . S
H295 C307 0.950 . S
H296 C308 0.950 . S
C297 H289 0.950 . S
C297 C298 1.386 . S
C297 C299 1.391 . S
C298 C297 1.386 . S
C298 C302 1.393 1_554 S
C299 H291 0.950 . S
C299 C297 1.391 . S
C299 C300 1.400 . S
C300 C299 1.400 . S
C300 C301 1.398 1_554 S
C300 C306 1.491 . S
C301 H292 0.950 . S
C301 C300 1.398 1_556 S
C301 C302 1.391 . S
C302 H290 0.950 . S
C302 C298 1.393 1_556 S
C302 C301 1.391 . S
C303 H293 0.950 . S
C303 C304 1.386 1_556 S
C303 C305 1.391 . S
C304 C303 1.386 1_554 S
C304 C308 1.393 . S
C305 H294 0.950 . S
C305 C303 1.391 . S
C305 C306 1.400 1_556 S
C306 C300 1.491 . S
C306 C305 1.400 1_554 S
C306 C307 1.398 . S
C307 H295 0.950 . S
C307 C306 1.398 . S
C307 C308 1.391 . S
C308 H296 0.950 . S
C308 C304 1.393 . S
C308 C307 1.391 . S
H309 C317 0.950 1_556 S
H310 C322 0.950 . S
H311 C319 0.950 1_556 S
H312 C321 0.950 . S
H313 C323 0.950 . S
H314 C325 0.950 . S
H315 C327 0.950 . S
H316 C328 0.950 . S
C317 H309 0.950 1_554 S
C317 C318 1.386 . S
C317 C319 1.391 . S
C318 C317 1.386 . S
C318 C322 1.393 . S
C319 H311 0.950 1_554 S
C319 C317 1.391 . S
C319 C320 1.400 . S
C320 C319 1.400 . S
C320 C321 1.398 . S
C320 C326 1.491 . S
C321 H312 0.950 . S
C321 C320 1.398 . S
C321 C322 1.391 . S
C322 H310 0.950 . S
C322 C318 1.393 . S
C322 C321 1.391 . S
C323 H313 0.950 . S
C323 C324 1.386 1_554 S
C323 C325 1.391 . S
C324 C323 1.386 1_556 S
C324 C328 1.393 . S
C325 H314 0.950 . S
C325 C323 1.391 . S
C325 C326 1.400 . S
C326 C320 1.491 . S
C326 C325 1.400 . S
C326 C327 1.398 1_554 S
C327 H315 0.950 . S
C327 C326 1.398 1_556 S
C327 C328 1.391 . S
C328 H316 0.950 . S
C328 C324 1.393 . S
C328 C327 1.391 . S
H329 C337 0.950 . S
H330 C342 0.950 . S
H331 C339 0.950 . S
H332 C341 0.950 . S
H333 C343 0.950 . S
H334 C345 0.950 . S
H335 C347 0.950 . S
H336 C348 0.950 . S
C337 H329 0.950 . S
C337 C338 1.386 1_556 S
C337 C339 1.391 . S
C338 C337 1.386 1_554 S
C338 C342 1.393 . S
C339 H331 0.950 . S
C339 C337 1.391 . S
C339 C340 1.400 1_556 S
C340 C339 1.400 1_554 S
C340 C341 1.398 . S
C340 C346 1.491 . S
C341 H332 0.950 . S
C341 C340 1.398 . S
C341 C342 1.391 . S
C342 H330 0.950 . S
C342 C338 1.393 . S
C342 C341 1.391 . S
C343 H333 0.950 . S
C343 C344 1.386 1_554 S
C343 C345 1.391 . S
C344 C343 1.386 1_556 S
C344 C348 1.393 . S
C345 H334 0.950 . S
C345 C343 1.391 . S
C345 C346 1.400 . S
C346 C340 1.491 . S
C346 C345 1.400 . S
C346 C347 1.398 1_554 S
C347 H335 0.950 . S
C347 C346 1.398 1_556 S
C347 C348 1.391 . S
C348 H336 0.950 . S
C348 C344 1.393 . S
C348 C347 1.391 . S
H349 C357 0.950 . S
H350 C362 0.950 . S
H351 C359 0.950 . S
H352 C361 0.950 . S
H353 C363 0.950 . S
H354 C365 0.950 . S
H355 C367 0.950 . S
H356 C368 0.950 . S
C357 H349 0.950 . S
C357 C358 1.386 . S
C357 C359 1.391 . S
C358 C357 1.386 . S
C358 C362 1.393 1_556 S
C359 H351 0.950 . S
C359 C357 1.391 . S
C359 C360 1.400 . S
C360 C359 1.400 . S
C360 C361 1.398 1_556 S
C360 C366 1.491 1_556 S
C361 H352 0.950 . S
C361 C360 1.398 1_554 S
C361 C362 1.391 . S
C362 H350 0.950 . S
C362 C358 1.393 1_554 S
C362 C361 1.391 . S
C363 H353 0.950 . S
C363 C364 1.386 . S
C363 C365 1.391 . S
C364 C363 1.386 . S
C364 C368 1.393 1_554 S
C365 H354 0.950 . S
C365 C363 1.391 . S
C365 C366 1.400 . S
C366 C360 1.491 1_554 S
C366 C365 1.400 . S
C366 C367 1.398 1_554 S
C367 H355 0.950 . S
C367 C366 1.398 1_556 S
C367 C368 1.391 . S
C368 H356 0.950 . S
C368 C364 1.393 1_556 S
C368 C367 1.391 . S
C138 C119 1.772 . S
C144 C27 1.859 . S
C158 C32 1.437 . S
C164 C75 1.381 1_545 S
C178 C39 1.812 1_655 S
C184 C99 1.787 1_455 S
C198 C82 1.088 . S
C204 N3 1.293 . S
C218 C40 1.846 . S
C224 C118 1.787 . S
C238 C76 1.149 . S
C244 C33 1.193 . S
C258 C125 1.835 . S
C264 C13 1.863 1_455 S
C278 C56 1.108 . S
C284 N8 1.225 . S
C298 N89 0.676 . S
C304 N46 0.701 . S
C318 C113 0.639 . S
C324 C83 0.624 1_556 S
C338 C70 0.603 . S
C344 C126 0.635 . S
C358 N94 0.584 . S
C364 N51 0.590 . S
