# Generated by pormake.
# Topology crs, (6)-cn, num edge types: 1
# Building blocks:
#     Node 0, Type 0, BuildingBlock: HISSIN_clean_sbu_0, # of connection points: 6
#     Node 1, Type 0, BuildingBlock: HISSIN_clean_sbu_0, # of connection points: 6
#     Node 2, Type 0, BuildingBlock: HISSIN_clean_sbu_0, # of connection points: 6
#     Node 3, Type 0, BuildingBlock: HISSIN_clean_sbu_0, # of connection points: 6
#     Node 4, Type 0, BuildingBlock: HISSIN_clean_sbu_0, # of connection points: 6
#     Node 5, Type 0, BuildingBlock: HISSIN_clean_sbu_0, # of connection points: 6
#     Node 6, Type 0, BuildingBlock: HISSIN_clean_sbu_0, # of connection points: 6
#     Node 7, Type 0, BuildingBlock: HISSIN_clean_sbu_0, # of connection points: 6
#     Node 8, Type 0, BuildingBlock: HISSIN_clean_sbu_0, # of connection points: 6
#     Node 9, Type 0, BuildingBlock: HISSIN_clean_sbu_0, # of connection points: 6
#     Node 10, Type 0, BuildingBlock: HISSIN_clean_sbu_0, # of connection points: 6
#     Node 11, Type 0, BuildingBlock: HISSIN_clean_sbu_0, # of connection points: 6
#     Node 12, Type 0, BuildingBlock: HISSIN_clean_sbu_0, # of connection points: 6
#     Node 13, Type 0, BuildingBlock: HISSIN_clean_sbu_0, # of connection points: 6
#     Node 14, Type 0, BuildingBlock: HISSIN_clean_sbu_0, # of connection points: 6
#     Node 15, Type 0, BuildingBlock: HISSIN_clean_sbu_0, # of connection points: 6
#     Edge 16, Type (0, 0), BuildingBlock: TEMPAE_clean_linker_10, # of connection points: 2
#     Edge 17, Type (0, 0), BuildingBlock: TEMPAE_clean_linker_10, # of connection points: 2
#     Edge 18, Type (0, 0), BuildingBlock: TEMPAE_clean_linker_10, # of connection points: 2
#     Edge 19, Type (0, 0), BuildingBlock: TEMPAE_clean_linker_10, # of connection points: 2
#     Edge 20, Type (0, 0), BuildingBlock: TEMPAE_clean_linker_10, # of connection points: 2
#     Edge 21, Type (0, 0), BuildingBlock: TEMPAE_clean_linker_10, # of connection points: 2
#     Edge 22, Type (0, 0), BuildingBlock: TEMPAE_clean_linker_10, # of connection points: 2
#     Edge 23, Type (0, 0), BuildingBlock: TEMPAE_clean_linker_10, # of connection points: 2
#     Edge 24, Type (0, 0), BuildingBlock: TEMPAE_clean_linker_10, # of connection points: 2
#     Edge 25, Type (0, 0), BuildingBlock: TEMPAE_clean_linker_10, # of connection points: 2
#     Edge 26, Type (0, 0), BuildingBlock: TEMPAE_clean_linker_10, # of connection points: 2
#     Edge 27, Type (0, 0), BuildingBlock: TEMPAE_clean_linker_10, # of connection points: 2
#     Edge 28, Type (0, 0), BuildingBlock: TEMPAE_clean_linker_10, # of connection points: 2
#     Edge 29, Type (0, 0), BuildingBlock: TEMPAE_clean_linker_10, # of connection points: 2
#     Edge 30, Type (0, 0), BuildingBlock: TEMPAE_clean_linker_10, # of connection points: 2
#     Edge 31, Type (0, 0), BuildingBlock: TEMPAE_clean_linker_10, # of connection points: 2
#     Edge 32, Type (0, 0), BuildingBlock: TEMPAE_clean_linker_10, # of connection points: 2
#     Edge 33, Type (0, 0), BuildingBlock: TEMPAE_clean_linker_10, # of connection points: 2
#     Edge 34, Type (0, 0), BuildingBlock: TEMPAE_clean_linker_10, # of connection points: 2
#     Edge 35, Type (0, 0), BuildingBlock: TEMPAE_clean_linker_10, # of connection points: 2
#     Edge 36, Type (0, 0), BuildingBlock: TEMPAE_clean_linker_10, # of connection points: 2
#     Edge 37, Type (0, 0), BuildingBlock: TEMPAE_clean_linker_10, # of connection points: 2
#     Edge 38, Type (0, 0), BuildingBlock: TEMPAE_clean_linker_10, # of connection points: 2
#     Edge 39, Type (0, 0), BuildingBlock: TEMPAE_clean_linker_10, # of connection points: 2
#     Edge 40, Type (0, 0), BuildingBlock: TEMPAE_clean_linker_10, # of connection points: 2
#     Edge 41, Type (0, 0), BuildingBlock: TEMPAE_clean_linker_10, # of connection points: 2
#     Edge 42, Type (0, 0), BuildingBlock: TEMPAE_clean_linker_10, # of connection points: 2
#     Edge 43, Type (0, 0), BuildingBlock: TEMPAE_clean_linker_10, # of connection points: 2
#     Edge 44, Type (0, 0), BuildingBlock: TEMPAE_clean_linker_10, # of connection points: 2
#     Edge 45, Type (0, 0), BuildingBlock: TEMPAE_clean_linker_10, # of connection points: 2
#     Edge 46, Type (0, 0), BuildingBlock: TEMPAE_clean_linker_10, # of connection points: 2
#     Edge 47, Type (0, 0), BuildingBlock: TEMPAE_clean_linker_10, # of connection points: 2
#     Edge 48, Type (0, 0), BuildingBlock: TEMPAE_clean_linker_10, # of connection points: 2
#     Edge 49, Type (0, 0), BuildingBlock: TEMPAE_clean_linker_10, # of connection points: 2
#     Edge 50, Type (0, 0), BuildingBlock: TEMPAE_clean_linker_10, # of connection points: 2
#     Edge 51, Type (0, 0), BuildingBlock: TEMPAE_clean_linker_10, # of connection points: 2
#     Edge 52, Type (0, 0), BuildingBlock: TEMPAE_clean_linker_10, # of connection points: 2
#     Edge 53, Type (0, 0), BuildingBlock: TEMPAE_clean_linker_10, # of connection points: 2
#     Edge 54, Type (0, 0), BuildingBlock: TEMPAE_clean_linker_10, # of connection points: 2
#     Edge 55, Type (0, 0), BuildingBlock: TEMPAE_clean_linker_10, # of connection points: 2
#     Edge 56, Type (0, 0), BuildingBlock: TEMPAE_clean_linker_10, # of connection points: 2
#     Edge 57, Type (0, 0), BuildingBlock: TEMPAE_clean_linker_10, # of connection points: 2
#     Edge 58, Type (0, 0), BuildingBlock: TEMPAE_clean_linker_10, # of connection points: 2
#     Edge 59, Type (0, 0), BuildingBlock: TEMPAE_clean_linker_10, # of connection points: 2
#     Edge 60, Type (0, 0), BuildingBlock: TEMPAE_clean_linker_10, # of connection points: 2
#     Edge 61, Type (0, 0), BuildingBlock: TEMPAE_clean_linker_10, # of connection points: 2
#     Edge 62, Type (0, 0), BuildingBlock: TEMPAE_clean_linker_10, # of connection points: 2
#     Edge 63, Type (0, 0), BuildingBlock: TEMPAE_clean_linker_10, # of connection points: 2
# Relax obj value: 0.463
# Max RMSD: 0.364
# Mean RMSD: 0.312
data_MOF--net-crs--node1-HISSIN_clean_sbu_0--edge1-TEMPAE_clean_linker_10
_symmetry_space_group_name_H-M    P1
_symmetry_Int_Tables_number       1
_symmetry_cell_setting            triclinic
loop_
_symmetry_equiv_pos_as_xyz
'x, y, z'
_cell_length_a     51.452794
_cell_length_b     58.312686
_cell_length_c     44.873293
_cell_angle_alpha  75.328949
_cell_angle_beta   76.379659
_cell_angle_gamma 66.614314
loop_
_atom_site_label
_atom_site_type_symbol
_atom_site_fract_x
_atom_site_fract_y
_atom_site_fract_z
_atom_type_partial_charge
Eu0 Eu -0.01396 0.99755 0.03434 0.0
Eu1 Eu -0.00728 0.03448 0.96565 0.0
C2 C 0.93356 0.02581 0.9958 0.0
C3 C 0.96227 0.94944 0.09185 0.0
C4 C 0.96524 0.93498 0.06965 0.0
C5 C 0.92198 0.93758 0.12119 0.0
C6 C 0.94663 0.9222 0.07302 0.0
C7 C 0.94078 0.95032 0.11789 0.0
C8 C 0.92453 0.9237 0.09852 0.0
C9 C 0.97867 0.96633 0.08546 0.0
O10 O 0.97464 0.06039 1.00123 0.0
O11 O -0.01191 0.03203 0.04588 0.0
C12 C 0.97919 0.05535 0.03024 0.0
O13 O 0.03313 0.9897 0.01919 0.0
O14 O 0.9753 0.06897 0.93233 0.0
O15 O 0.01771 0.04186 0.9203 0.0
O16 O 0.03103 0.02755 0.98692 0.0
C17 C 0.04485 1.00657 1.00456 0.0
O18 O -0.01644 0.97768 0.99882 0.0
O19 O 0.00924 0.99444 0.95632 0.0
O20 O 0.95128 0.02876 0.97008 0.0
O21 O 0.00176 0.96095 0.06475 0.0
O22 O 0.96336 0.99056 0.08144 0.0
O23 O 0.94138 0.01943 0.0234 0.0
C24 C 0.01156 0.08545 0.90617 0.0
C25 C 0.04136 0.07956 0.89977 0.0
C26 C 0.00506 0.12874 0.90809 0.0
C27 C 0.05289 0.09776 0.89878 0.0
C28 C -0.0065 0.1105 0.90913 0.0
C29 C 0.03489 0.12232 0.90388 0.0
C30 C -0.00035 0.06501 0.91351 0.0
C31 C -0.0018 0.977 0.97068 0.0
H32 H 0.98124 0.9343 0.04897 0.0
H33 H 0.90518 0.9389 0.14116 0.0
H34 H 0.94883 0.912 0.05492 0.0
H35 H 0.93789 0.96162 0.13505 0.0
H36 H 0.05592 0.06051 0.89711 0.0
H37 H -0.00934 0.14767 0.91151 0.0
H38 H 0.07597 0.09212 0.89571 0.0
H39 H 0.97043 0.11574 0.91367 0.0
Eu40 Eu -0.00196 0.27059 0.27245 0.0
Eu41 Eu 0.95693 0.26056 0.23372 0.0
C42 C 0.94086 0.31527 0.25232 0.0
C43 C 0.02405 0.30392 0.31609 0.0
C44 C -0.00329 0.32039 0.32679 0.0
C45 C 0.04521 0.3291 0.33119 0.0
C46 C -0.00633 0.34085 0.33997 0.0
C47 C 0.04822 0.30858 0.31816 0.0
C48 C 0.0179 0.3454 0.3426 0.0
C49 C 0.02769 0.2817 0.30319 0.0
O50 O -0.00293 0.26088 0.20148 0.0
O51 O 0.00337 0.28987 0.22212 0.0
C52 C 0.00731 0.27868 0.19863 0.0
O53 O 0.02502 0.23315 0.2571 0.0
O54 O 0.93764 0.26837 0.19216 0.0
O55 O 0.92939 0.24063 0.23197 0.0
O56 O -0.0112 0.22204 0.25047 0.0
C57 C 0.01565 0.21621 0.25341 0.0
O58 O 0.97272 0.24829 0.30617 0.0
O59 O 0.93331 0.26504 0.28173 0.0
O60 O 0.94075 0.30315 0.23123 0.0
O61 O 0.00992 0.26987 0.31631 0.0
O62 O 0.03199 0.28422 0.27292 0.0
O63 O 0.95718 0.30416 0.27415 0.0
C64 C 0.93267 0.23233 0.18216 0.0
C65 C 0.95733 0.22686 0.15957 0.0
C66 C 0.9192 0.20174 0.16733 0.0
C67 C 0.96276 0.20907 0.14087 0.0
C68 C 0.91369 0.21966 0.18582 0.0
C69 C 0.9438 0.1962 0.14456 0.0
C70 C 0.92686 0.25047 0.20276 0.0
C71 C 0.9452 0.25411 0.30696 0.0
H72 H 0.97769 0.31725 0.32534 0.0
H73 H 0.06434 0.33222 0.3322 0.0
H74 H 0.97231 0.35276 0.34873 0.0
H75 H 0.06949 0.29623 0.30984 0.0
H76 H 0.97247 0.23624 0.15644 0.0
H77 H 0.90441 0.19189 0.17132 0.0
H78 H 0.98173 0.20553 0.12338 0.0
H79 H 0.89469 0.22342 0.20331 0.0
Eu80 Eu 0.74792 0.27258 0.54131 0.0
Eu81 Eu 0.73034 0.25221 0.49052 0.0
C82 C 0.79485 0.24663 0.48835 0.0
C83 C 0.78165 0.30381 0.5781 0.0
C84 C 0.80194 0.30596 0.55154 0.0
C85 C 0.79632 0.32914 0.60137 0.0
C86 C 0.81969 0.31925 0.55015 0.0
C87 C 0.77871 0.31568 0.60284 0.0
C88 C 0.81723 0.33076 0.57518 0.0
C89 C 0.764 0.28874 0.58049 0.0
O90 O 0.72602 0.22389 0.53511 0.0
O91 O 0.75494 0.23043 0.56146 0.0
C92 C 0.74068 0.21678 0.55843 0.0
O93 O 0.70448 0.2718 0.56173 0.0
O94 O 0.73793 0.22248 0.46486 0.0
O95 O 0.70563 0.25965 0.45351 0.0
O96 O 0.68806 0.27297 0.51791 0.0
C97 C 0.68367 0.27481 0.5474 0.0
O98 O 0.73092 0.3079 0.5043 0.0
O99 O 0.73984 0.28757 0.46363 0.0
O100 O 0.77839 0.23452 0.48766 0.0
O101 O 0.7397 0.30081 0.56976 0.0
O102 O 0.77763 0.26651 0.57233 0.0
O103 O 0.78504 0.26589 0.50285 0.0
C104 C 0.69824 0.22437 0.4458 0.0
C105 C 0.67798 0.21979 0.47122 0.0
C106 C 0.68305 0.20455 0.41514 0.0
C107 C 0.66034 0.20754 0.46862 0.0
C108 C 0.70058 0.21683 0.41776 0.0
C109 C 0.66287 0.19961 0.4406 0.0
C110 C 0.71756 0.23642 0.44825 0.0
C111 C 0.73429 0.30848 0.47403 0.0
H112 H 0.80431 0.29708 0.53208 0.0
H113 H 0.79412 0.33769 0.62106 0.0
H114 H 0.8354 0.32047 0.52954 0.0
H115 H 0.76309 0.31421 0.62347 0.0
H116 H 0.67604 0.22546 0.4931 0.0
H117 H 0.68522 0.19896 0.39316 0.0
H118 H 0.64518 0.20377 0.4887 0.0
H119 H 0.71613 0.22029 0.39793 0.0
Eu120 Eu 0.72843 1.00087 0.73638 0.0
Eu121 Eu 0.73278 0.02513 0.79235 0.0
C122 C 0.67497 0.04257 0.76634 0.0
C123 C 0.71416 0.99013 0.66168 0.0
C124 C 0.68625 1.0071 0.65812 0.0
C125 C 0.72305 0.98602 0.6073 0.0
C126 C 0.67651 1.01275 0.6297 0.0
C127 C 0.73271 0.98018 0.63588 0.0
C128 C 0.69453 1.00173 0.60417 0.0
C129 C 0.72389 0.98156 0.69229 0.0
O130 O 0.74019 0.98398 0.81484 0.0
O131 O 0.71834 0.97513 0.78248 0.0
C132 C 0.72912 0.96919 0.80866 0.0
O133 O 0.77325 0.97947 0.74563 0.0
O134 O 0.71314 0.03537 0.83794 0.0
O135 O 0.74833 0.04718 0.8117 0.0
O136 O 0.77892 1.00026 0.77977 0.0
C137 C 0.78901 0.98307 0.76173 0.0
O138 O 0.74132 0.03471 0.70972 0.0
O139 O 0.73015 0.05682 0.74948 0.0
O140 O 0.68669 0.03198 0.79165 0.0
O141 O 0.74706 0.98498 0.69382 0.0
O142 O 0.70441 0.98629 0.71688 0.0
O143 O 0.68939 0.0362 0.73972 0.0
C144 C 0.74395 0.03888 0.86633 0.0
C145 C 0.75693 1.01327 0.87936 0.0
C146 C 0.7583 0.0515 0.90536 0.0
C147 C 0.77093 1.0068 0.90513 0.0
C148 C 0.74422 0.05791 0.87978 0.0
C149 C 0.77229 0.02588 0.91799 0.0
C150 C 0.73101 0.04613 0.83803 0.0
C151 C 0.73686 0.05571 0.71947 0.0
H152 H 0.67156 0.01526 0.67757 0.0
H153 H 0.73758 0.97748 0.58803 0.0
H154 H 0.65427 0.02458 0.62843 0.0
H155 H 0.75443 0.96722 0.63809 0.0
H156 H 0.75682 0.99833 0.86918 0.0
H157 H 0.75942 0.06668 0.91419 0.0
H158 H 0.78134 0.98692 0.91443 0.0
H159 H 0.73431 0.07776 0.86989 0.0
Eu160 Eu 0.49704 0.77544 0.27591 0.0
Eu161 Eu 0.45422 0.7602 0.2458 0.0
C162 C 0.43669 0.81699 0.2593 0.0
C163 C 0.52596 0.8033 0.32345 0.0
C164 C 0.4991 0.82157 0.3316 0.0
C165 C 0.54609 0.81595 0.3576 0.0
C166 C 0.49585 0.83719 0.3523 0.0
C167 C 0.54933 0.8004 0.33681 0.0
C168 C 0.51939 0.83475 0.36532 0.0
C169 C 0.53005 0.78778 0.30033 0.0
O170 O 0.4921 0.76032 0.20892 0.0
O171 O 0.50261 0.78978 0.22412 0.0
C172 C 0.50409 0.77739 0.20275 0.0
O173 O 0.52348 0.73815 0.26043 0.0
O174 O 0.43298 0.76356 0.20732 0.0
O175 O 0.42824 0.73732 0.25027 0.0
O176 O 0.48677 0.72386 0.26676 0.0
C177 C 0.51419 0.71952 0.26418 0.0
O178 O 0.47068 0.75834 0.31617 0.0
O179 O 0.43132 0.76832 0.2931 0.0
O180 O 0.43554 0.80311 0.24087 0.0
O181 O 0.52452 0.76694 0.31081 0.0
O182 O 0.52 0.80013 0.27445 0.0
O183 O 0.45536 0.80813 0.27874 0.0
C184 C 0.43046 0.72487 0.20354 0.0
C185 C 0.45887 0.71164 0.19143 0.0
C186 C 0.41456 0.6987 0.18307 0.0
C187 C 0.46508 0.69208 0.17513 0.0
C188 C 0.40839 0.71828 0.19928 0.0
C189 C 0.44299 0.68533 0.17077 0.0
C190 C 0.4238 0.74504 0.22134 0.0
C191 C 0.44343 0.7623 0.31803 0.0
H192 H 0.48078 0.82405 0.32151 0.0
H193 H 0.56454 0.81329 0.36756 0.0
H194 H 0.47507 0.85165 0.35743 0.0
H195 H 0.57018 0.7863 0.33087 0.0
H196 H 0.47623 0.71641 0.19463 0.0
H197 H 0.39707 0.69376 0.18062 0.0
H198 H 0.48715 0.68243 0.16571 0.0
H199 H 0.38637 0.72816 0.20871 0.0
Eu200 Eu 0.23394 0.77537 0.53499 0.0
Eu201 Eu 0.22652 0.75184 0.48005 0.0
C202 C 0.28896 0.74938 0.48623 0.0
C203 C 0.25718 0.80605 0.58447 0.0
C204 C 0.26645 0.82301 0.5603 0.0
C205 C 0.28495 0.81033 0.61816 0.0
C206 C 0.28468 0.83374 0.56515 0.0
C207 C 0.26651 0.79981 0.61338 0.0
C208 C 0.29425 0.82744 0.5941 0.0
C209 C 0.23865 0.79401 0.5797 0.0
O210 O 0.23811 0.71753 0.51944 0.0
O211 O 0.22591 0.73887 0.56007 0.0
C212 C 0.23246 0.71771 0.54968 0.0
O213 O 0.18707 0.79069 0.5309 0.0
O214 O 0.23788 0.72286 0.45171 0.0
O215 O 0.20268 0.75858 0.44264 0.0
O216 O 0.18647 0.75703 0.5148 0.0
C217 C 0.17336 0.77658 0.52884 0.0
O218 O 0.24213 0.80275 0.49083 0.0
O219 O 0.2182 0.79413 0.46062 0.0
O220 O 0.27215 0.74917 0.46849 0.0
O221 O 0.22107 0.80688 0.55952 0.0
O222 O 0.25106 0.77009 0.57733 0.0
O223 O 0.27946 0.75606 0.51374 0.0
C224 C 0.19787 0.72256 0.43432 0.0
C225 C 0.19412 0.70244 0.4577 0.0
C226 C 0.16204 0.72139 0.40862 0.0
C227 C 0.1744 0.69185 0.45646 0.0
C228 C 0.18196 0.73173 0.40964 0.0
C229 C 0.15788 0.70155 0.43216 0.0
C230 C 0.21629 0.73574 0.4364 0.0
C231 C 0.23014 0.80883 0.46565 0.0
H232 H 0.25969 0.82793 0.53768 0.0
H233 H 0.29228 0.80472 0.64054 0.0
H234 H 0.29112 0.8471 0.54626 0.0
H235 H 0.25976 0.78655 0.63217 0.0
H236 H 0.20592 0.6953 0.47721 0.0
H237 H 0.14974 0.72898 0.38949 0.0
H238 H 0.17143 0.67662 0.47492 0.0
H239 H 0.18447 0.74732 0.39151 0.0
Eu240 Eu 0.21238 0.50796 0.74364 0.0
Eu241 Eu 0.24626 0.52482 0.7826 0.0
C242 C 0.17858 0.5524 0.78097 0.0
C243 C 0.17076 0.51122 0.68171 0.0
C244 C 0.14811 0.50466 0.67918 0.0
C245 C 0.16444 0.54064 0.63246 0.0
C246 C 0.134 0.51566 0.65327 0.0
C247 C 0.17842 0.52977 0.6586 0.0
C248 C 0.14241 0.53336 0.62935 0.0
C249 C 0.18695 0.49759 0.70773 0.0
O250 O 0.23892 0.48953 0.81441 0.0
O251 O 0.21472 0.47777 0.78732 0.0
C252 C 0.22668 0.47411 0.8119 0.0
O253 O 0.25689 0.4787 0.74081 0.0
O254 O 0.24091 0.53968 0.82427 0.0
O255 O 0.28124 0.53259 0.79251 0.0
O256 O 0.28254 0.49523 0.75937 0.0
C257 C 0.28103 0.47806 0.74656 0.0
O258 O 0.21749 0.54475 0.71373 0.0
O259 O 0.25035 0.55025 0.73549 0.0
O260 O 0.20296 0.55531 0.77847 0.0
O261 O 0.2141 0.49442 0.70213 0.0
O262 O 0.17461 0.50367 0.73499 0.0
O263 O 0.17791 0.5316 0.7759 0.0
C264 C 0.28325 0.5264 0.84614 0.0
C265 C 0.3079 0.53124 0.84571 0.0
C266 C 0.28802 0.5013 0.89822 0.0
C267 C 0.32238 0.5214 0.87136 0.0
C268 C 0.27365 0.51095 0.87235 0.0
C269 C 0.31236 0.50666 0.89801 0.0
C270 C 0.26744 0.53843 0.81955 0.0
C271 C 0.23458 0.55686 0.71329 0.0
H272 H 0.14192 0.49043 0.69681 0.0
H273 H 0.17122 0.55431 0.61441 0.0
H274 H 0.11738 0.50939 0.65127 0.0
H275 H 0.1957 0.53531 0.66032 0.0
H276 H 0.31559 0.54312 0.82576 0.0
H277 H 0.27996 0.48992 0.91847 0.0
H278 H 0.34084 0.52617 0.87079 0.0
H279 H 0.25479 0.50673 0.87312 0.0
Eu280 Eu -0.0053 0.50049 0.51706 0.0
Eu281 Eu -0.0154 0.54361 0.45266 0.0
C282 C 0.93362 0.52478 0.49281 0.0
C283 C -0.01024 0.44276 0.56995 0.0
C284 C -0.00603 0.42886 0.54663 0.0
C285 C 0.95271 0.42634 0.59921 0.0
C286 C 0.97711 0.41459 0.54911 0.0
C287 C 0.96966 0.44067 0.59675 0.0
C288 C 0.95562 0.41393 0.57486 0.0
C289 C 0.00199 0.46284 0.5636 0.0
O290 O 0.97068 0.56602 0.492 0.0
O291 O -0.00838 0.53559 0.53208 0.0
C292 C 0.97909 0.55945 0.51955 0.0
O293 O 0.03778 0.50192 0.49237 0.0
O294 O 0.95877 0.57844 0.42524 0.0
O295 O 0.00147 0.55657 0.40493 0.0
O296 O 0.0231 0.54311 0.46782 0.0
C297 C 0.04261 0.52315 0.48071 0.0
O298 O -0.01189 0.48251 0.48213 0.0
O299 O 0.00484 0.50508 0.43778 0.0
O300 O 0.9454 0.53333 0.46522 0.0
O301 O 0.02114 0.46303 0.53864 0.0
O302 O -0.01673 0.48555 0.5661 0.0
O303 O 0.94708 0.51567 0.51712 0.0
C304 C -0.01034 0.60057 0.39747 0.0
C305 C 0.01496 0.60028 0.37694 0.0
C306 C -0.00876 0.63448 0.41844 0.0
C307 C 0.02922 0.6158 0.37853 0.0
C308 C 0.97716 0.61875 0.41713 0.0
C309 C 0.01816 0.63221 0.40037 0.0
C310 C 0.98052 0.57861 0.40323 0.0
C311 C -0.00195 0.48515 0.45231 0.0
H312 H 0.00917 0.43009 0.52555 0.0
H313 H 0.93623 0.4262 0.6193 0.0
H314 H 0.98019 0.40482 0.53027 0.0
H315 H 0.96583 0.45137 0.61487 0.0
H316 H 0.02504 0.58648 0.36156 0.0
H317 H 0.98176 0.64747 0.43483 0.0
H318 H 0.04994 0.61349 0.36427 0.0
H319 H 0.95754 0.61966 0.43314 0.0
Eu320 Eu 0.2423 0.27707 0.04463 0.0
Eu321 Eu 0.22374 0.25899 0.99276 0.0
C322 C 0.28903 0.25173 0.99107 0.0
C323 C 0.2789 0.30195 0.08646 0.0
C324 C 0.29876 0.30493 0.05977 0.0
C325 C 0.30026 0.31844 0.1147 0.0
C326 C 0.31955 0.31435 0.06068 0.0
C327 C 0.27958 0.30891 0.11381 0.0
C328 C 0.3206 0.32102 0.08823 0.0
C329 C 0.25858 0.2902 0.08649 0.0
O330 O 0.21719 0.23152 0.03766 0.0
O331 O 0.24948 0.23485 0.06202 0.0
C332 C 0.23322 0.22279 0.05994 0.0
O333 O 0.19777 0.27857 0.06313 0.0
O334 O 0.228 0.22946 0.96845 0.0
O335 O 0.19997 0.2682 0.95432 0.0
O336 O 0.18216 0.28343 0.01749 0.0
C337 C 0.17701 0.28478 0.04718 0.0
O338 O 0.22843 0.31276 1.00713 0.0
O339 O 0.23607 0.29296 0.96623 0.0
O340 O 0.27191 0.24072 0.98882 0.0
O341 O 0.23606 0.30464 0.0732 0.0
O342 O 0.27013 0.26772 0.07891 0.0
O343 O 0.28002 0.27 1.0071 0.0
C344 C 0.18696 0.23548 0.94826 0.0
C345 C 0.17311 0.2237 0.97476 0.0
C346 C 0.15954 0.22926 0.91587 0.0
C347 C 0.15287 0.21437 0.97173 0.0
C348 C 0.17987 0.23843 0.91891 0.0
C349 C 0.14605 0.21691 0.9422 0.0
C350 C 0.20894 0.24466 0.95069 0.0
C351 C 0.23201 0.31341 0.97681 0.0
H352 H 0.29843 0.29959 0.03846 0.0
H353 H 0.30078 0.32325 0.13629 0.0
H354 H 0.33477 0.31645 0.03987 0.0
H355 H 0.26445 0.30653 0.13461 0.0
H356 H 0.17816 0.22151 0.99768 0.0
H357 H 0.15494 0.23122 0.89282 0.0
H358 H 0.1426 0.20512 0.99241 0.0
H359 H 0.19035 0.24755 0.89826 0.0
Eu360 Eu 0.22962 1.00455 0.23559 0.0
Eu361 Eu 0.2273 0.03042 0.29387 0.0
C362 C 0.17005 0.04672 0.26291 0.0
C363 C 0.21956 0.98949 0.16252 0.0
C364 C 0.18999 1.0028 0.16376 0.0
C365 C 0.22345 0.98928 0.10758 0.0
C366 C 0.17714 1.00868 0.1374 0.0
C367 C 0.23628 0.98309 0.13419 0.0
C368 C 0.19363 1.0018 0.10901 0.0
C369 C 0.2331 0.9822 0.19056 0.0
O370 O 0.21678 0.99524 0.31917 0.0
O371 O 0.23268 0.97302 0.27882 0.0
C372 C 0.22427 0.9739 0.30883 0.0
O373 O 0.27442 0.99962 0.23876 0.0
O374 O 0.20841 0.04378 0.33804 0.0
O375 O 0.24811 0.04837 0.31275 0.0
O376 O 0.26828 0.99642 0.291 0.0
C377 C 0.28449 0.98988 0.26508 0.0
O378 O 0.22656 0.04414 0.21035 0.0
O379 O 0.23312 0.05936 0.24956 0.0
O380 O 0.18226 0.04838 0.28441 0.0
O381 O 0.25051 0.99351 0.19038 0.0
O382 O 0.21651 0.98032 0.21733 0.0
O383 O 0.18353 0.03147 0.24251 0.0
C384 C 0.2417 0.04224 0.36719 0.0
C385 C 0.2578 0.01658 0.37661 0.0
C386 C 0.25354 0.05295 0.40972 0.0
C387 C 0.27236 1.00922 0.40208 0.0
C388 C 0.23902 0.06027 0.38429 0.0
C389 C 0.27102 0.02747 0.41832 0.0
C390 C 0.22952 0.05074 0.33828 0.0
C391 C 0.23011 0.06193 0.22025 0.0
H392 H 0.17664 1.00823 0.18528 0.0
H393 H 0.23683 0.98398 0.08604 0.0
H394 H 0.15406 0.01782 0.13971 0.0
H395 H 0.25922 0.97307 0.13274 0.0
H396 H 0.25995 1.00244 0.36358 0.0
H397 H 0.25241 0.0675 0.42145 0.0
H398 H 0.28549 0.98943 0.40836 0.0
H399 H 0.22666 0.08016 0.37718 0.0
Eu400 Eu 0.50009 0.27121 0.78037 0.0
Eu401 Eu 0.4629 0.2552 0.74302 0.0
C402 C 0.44467 0.31216 0.75334 0.0
C403 C 0.52201 0.30295 0.83139 0.0
C404 C 0.49511 0.32217 0.8365 0.0
C405 C 0.53986 0.31819 0.86512 0.0
C406 C 0.49075 0.33952 0.85553 0.0
C407 C 0.54417 0.30091 0.84615 0.0
C408 C 0.51324 0.33797 0.8697 0.0
C409 C 0.52792 0.28574 0.80953 0.0
O410 O 0.50431 0.25268 0.71163 0.0
O411 O 0.51187 0.28306 0.72855 0.0
C412 C 0.51594 0.26981 0.70705 0.0
O413 O 0.52866 0.23275 0.76876 0.0
O414 O 0.44716 0.25767 0.70066 0.0
O415 O 0.43479 0.23519 0.7441 0.0
O416 O 0.4934 0.21881 0.76634 0.0
C417 C 0.52001 0.21433 0.76878 0.0
O418 O 0.47216 0.25287 0.81652 0.0
O419 O 0.43577 0.2644 0.78842 0.0
O420 O 0.44868 0.29791 0.73299 0.0
O421 O 0.52108 0.26558 0.82026 0.0
O422 O 0.52147 0.29649 0.78168 0.0
O423 O 0.45775 0.30329 0.77792 0.0
C424 C 0.44031 0.22064 0.69745 0.0
C425 C 0.45644 0.19536 0.70899 0.0
C426 C 0.43378 0.20685 0.65389 0.0
C427 C 0.46082 0.17593 0.69332 0.0
C428 C 0.42921 0.22623 0.66972 0.0
C429 C 0.4494 0.1814 0.66565 0.0
C430 C 0.43457 0.24135 0.71407 0.0
C431 C 0.44548 0.25694 0.81508 0.0
H432 H 0.47771 0.32409 0.82524 0.0
H433 H 0.5575 0.31614 0.87607 0.0
H434 H 0.47005 0.35459 0.85835 0.0
H435 H 0.56505 0.28617 0.84257 0.0
H436 H 0.46542 0.19057 0.73027 0.0
H437 H 0.42517 0.21186 0.63235 0.0
H438 H 0.4727 0.15656 0.70324 0.0
H439 H 0.4169 0.24563 0.66031 0.0
Eu440 Eu -0.00241 0.77238 0.7759 0.0
Eu441 Eu 0.95918 0.75855 0.73747 0.0
C442 C 0.94192 0.81511 0.74978 0.0
C443 C 0.02338 0.80372 0.82278 0.0
C444 C -0.00421 0.81985 0.83319 0.0
C445 C 0.04376 0.82517 0.84544 0.0
C446 C -0.00779 0.83848 0.84985 0.0
C447 C 0.04729 0.80654 0.82892 0.0
C448 C 0.01619 0.84133 0.85625 0.0
C449 C 0.02769 0.78409 0.80517 0.0
O450 O -0.01119 0.77523 0.70193 0.0
O451 O 0.02494 0.76219 0.73078 0.0
C452 C 0.01571 0.76989 0.7038 0.0
O453 O 0.0086 0.73008 0.7872 0.0
O454 O 0.93915 0.76452 0.69682 0.0
O455 O 0.93656 0.73428 0.73562 0.0
O456 O 0.00029 0.72504 0.74174 0.0
C457 C 0.01229 0.71577 0.76709 0.0
O458 O 0.95519 0.77714 0.80642 0.0
O459 O 0.94554 0.74797 0.78913 0.0
O460 O 0.93209 0.79767 0.74866 0.0
O461 O 0.01446 0.76818 0.81803 0.0
O462 O 0.02638 0.7917 0.77544 0.0
O463 O 0.96885 0.80937 0.75202 0.0
C464 C 0.93846 0.72677 0.68553 0.0
C465 C 0.95938 0.72594 0.6588 0.0
C466 C 0.92907 0.69306 0.67228 0.0
C467 C 0.9649 0.70891 0.63885 0.0
C468 C 0.92348 0.71012 0.69204 0.0
C469 C 0.94971 0.69228 0.64524 0.0
C470 C 0.93182 0.74456 0.70711 0.0
C471 C 0.94192 0.76128 0.81041 0.0
H472 H 0.97707 0.81799 0.82849 0.0
H473 H 0.06269 0.82712 0.8494 0.0
H474 H 0.97068 0.85042 0.85804 0.0
H475 H 0.06874 0.79436 0.82081 0.0
H476 H 0.9714 0.73848 0.65323 0.0
H477 H 0.91734 0.68025 0.67846 0.0
H478 H 0.98078 0.70906 0.61819 0.0
H479 H 0.9074 0.71025 0.71259 0.0
Eu480 Eu 0.7199 0.50321 0.24157 0.0
Eu481 Eu 0.73347 0.52681 0.29262 0.0
C482 C 0.67116 0.54856 0.27178 0.0
C483 C 0.70203 0.49432 0.16898 0.0
C484 C 0.68699 0.52035 0.15998 0.0
C485 C 0.69825 0.48671 0.11987 0.0
C486 C 0.67696 0.52942 0.1313 0.0
C487 C 0.70812 0.47767 0.14855 0.0
C488 C 0.68208 0.51259 0.11119 0.0
C489 C 0.71191 0.4843 0.19931 0.0
O490 O 0.73738 0.48635 0.31631 0.0
O491 O 0.7089 0.48002 0.28932 0.0
C492 C 0.72281 0.47309 0.31338 0.0
O493 O 0.7631 0.47722 0.25326 0.0
O494 O 0.71835 0.53809 0.33809 0.0
O495 O 0.75682 0.54339 0.3103 0.0
O496 O 0.77748 0.50234 0.27268 0.0
C497 C 0.7829 0.4818 0.26181 0.0
O498 O 0.73169 0.537 0.21196 0.0
O499 O 0.73153 0.55782 0.2494 0.0
O500 O 0.68546 0.54086 0.29527 0.0
O501 O 0.7364 0.48565 0.20033 0.0
O502 O 0.6928 0.49073 0.22369 0.0
O503 O 0.682 0.53891 0.24636 0.0
C504 C 0.75435 0.53365 0.36491 0.0
C505 C 0.76992 0.50754 0.3721 0.0
C506 C 0.76582 0.54003 0.41074 0.0
C507 C 0.78387 0.49777 0.39831 0.0
C508 C 0.75196 0.54974 0.3846 0.0
C509 C 0.7823 0.514 0.41766 0.0
C510 C 0.74018 0.54436 0.33721 0.0
C511 C 0.73253 0.55695 0.22005 0.0
H512 H 0.68256 0.53352 0.17538 0.0
H513 H 0.70207 0.47319 0.10518 0.0
H514 H 0.6646 0.54944 0.12517 0.0
H515 H 0.71997 0.45757 0.15509 0.0
H516 H 0.77165 0.49484 0.35719 0.0
H517 H 0.76469 0.55316 0.42472 0.0
H518 H 0.79636 0.47766 0.40306 0.0
H519 H 0.73985 0.56991 0.37939 0.0
Eu520 Eu 0.73681 0.77407 0.03971 0.0
Eu521 Eu 0.72174 0.75278 0.98724 0.0
C522 C 0.78561 0.74873 0.98587 0.0
C523 C 0.76207 0.80943 0.08164 0.0
C524 C 0.7839 0.81322 0.05779 0.0
C525 C 0.76823 0.83709 0.10948 0.0
C526 C 0.7982 0.82852 0.06008 0.0
C527 C 0.75406 0.82169 0.10723 0.0
C528 C 0.79076 0.84037 0.08616 0.0
C529 C 0.74796 0.79225 0.08068 0.0
O530 O 0.72183 0.72161 0.03012 0.0
O531 O 0.74254 0.7327 0.06199 0.0
C532 C 0.73281 0.71678 0.05585 0.0
O533 O 0.69434 0.77031 0.05889 0.0
O534 O 0.72743 0.7234 0.96186 0.0
O535 O 0.69889 0.76197 0.94813 0.0
O536 O 0.67894 0.77328 0.01376 0.0
C537 C 0.67404 0.77348 0.04372 0.0
O538 O 0.72106 0.80869 1.00144 0.0
O539 O 0.73334 0.78729 0.96116 0.0
O540 O 0.76956 0.73703 0.98283 0.0
O541 O 0.72409 0.80264 0.06895 0.0
O542 O 0.76455 0.77079 0.07157 0.0
O543 O 0.7763 0.76596 1.00361 0.0
C544 C 0.68738 0.72904 0.94038 0.0
C545 C 0.66774 0.72378 0.96609 0.0
C546 C 0.66673 0.71583 0.9075 0.0
C547 C 0.64777 0.71437 0.96254 0.0
C548 C 0.68667 0.72521 0.91109 0.0
C549 C 0.6472 0.71012 0.93323 0.0
C550 C 0.70869 0.73856 0.94374 0.0
C551 C 0.72697 0.8085 0.9712 0.0
H552 H 0.79026 0.80396 0.03776 0.0
H553 H 0.76169 0.84628 0.12959 0.0
H554 H 0.81565 0.83044 0.04189 0.0
H555 H 0.73708 0.81908 0.12571 0.0
H556 H 0.66805 0.72673 0.98888 0.0
H557 H 0.66656 0.71306 0.88458 0.0
H558 H 0.63322 0.70987 0.98286 0.0
H559 H 0.70164 0.72938 0.89101 0.0
Eu560 Eu 0.48283 0.98481 0.55486 0.0
Eu561 Eu 0.4878 0.02367 0.48784 0.0
C562 C 0.42944 1.01364 0.51798 0.0
C563 C 0.46135 0.9354 0.61525 0.0
C564 C 0.47188 0.9135 0.60173 0.0
C565 C 0.41711 0.92749 0.63685 0.0
C566 C 0.45478 0.8992 0.60501 0.0
C567 C 0.43432 0.94159 0.63394 0.0
C568 C 0.42689 0.90669 0.6216 0.0
C569 C 0.47624 0.95373 0.60665 0.0
O570 O 0.49052 0.04249 0.52426 0.0
O571 O 0.46549 0.02436 0.56594 0.0
C572 C 0.47582 0.04238 0.55239 0.0
O573 O 0.52362 0.99129 0.55073 0.0
O574 O 0.47398 0.062 0.46056 0.0
O575 O 0.50665 0.03114 0.43916 0.0
O576 O 0.53302 1.00119 0.49753 0.0
C577 C 0.54124 0.99445 0.52502 0.0
O578 O 0.50137 0.96049 0.5174 0.0
O579 O 0.48381 0.99034 0.47562 0.0
O580 O 0.44072 0.03097 0.50388 0.0
O581 O 0.49953 0.94871 0.58613 0.0
O582 O 0.45958 0.97754 0.60127 0.0
O583 O 0.44411 0.99217 0.5342 0.0
C584 C 0.51366 0.07023 0.42909 0.0
C585 C 0.54157 0.05859 0.43656 0.0
C586 C 0.51945 0.11113 0.41654 0.0
C587 C 0.55801 0.07311 0.43473 0.0
C588 C 0.50295 0.09652 0.41838 0.0
C589 C 0.54682 0.09961 0.42557 0.0
C590 C 0.4944 0.05574 0.43724 0.0
C591 C 0.49453 0.96656 0.48923 0.0
H592 H 0.49266 0.90814 0.58725 0.0
H593 H 0.39574 0.93342 0.65002 0.0
H594 H 0.4627 0.88322 0.593 0.0
H595 H 0.42579 0.95823 0.64484 0.0
H596 H 0.5503 0.03837 0.44512 0.0
H597 H 0.51023 0.13155 0.40956 0.0
H598 H 0.57921 0.06366 0.44134 0.0
H599 H 0.48134 0.1059 0.4129 0.0
Eu600 Eu 0.4919 0.48627 0.05487 0.0
Eu601 Eu 0.48347 0.52951 0.99059 0.0
C602 C 0.43248 0.51111 0.02889 0.0
C603 C 0.4792 0.43352 0.11191 0.0
C604 C 0.45012 0.44254 0.10856 0.0
C605 C 0.4819 0.39045 0.11478 0.0
C606 C 0.43747 0.42589 0.10708 0.0
C607 C 0.49477 0.40725 0.11604 0.0
C608 C 0.45352 0.3999 0.10903 0.0
C609 C 0.49418 0.45162 0.10453 0.0
O610 O 0.4909 0.54676 0.02578 0.0
O611 O 0.47232 0.5248 0.06933 0.0
C612 C 0.47986 0.5444 0.05532 0.0
O613 O 0.532 0.49497 0.04277 0.0
O614 O 0.46198 0.5687 0.96901 0.0
O615 O 0.49237 0.54168 0.94037 0.0
O616 O 0.53123 0.51253 0.99071 0.0
C617 C 0.54449 0.50274 0.0152 0.0
O618 O 0.50532 0.46446 0.01519 0.0
O619 O 0.48177 0.4954 0.97749 0.0
O620 O 0.43945 0.53114 0.01572 0.0
O621 O 0.51429 0.44871 0.08031 0.0
O622 O 0.47778 0.47542 0.10432 0.0
O623 O 0.45116 0.49009 0.04129 0.0
C624 C 0.4947 0.5826 0.93065 0.0
C625 C 0.52447 0.57268 0.93045 0.0
C626 C 0.49542 0.62527 0.92121 0.0
C627 C 0.53937 0.58882 0.92669 0.0
C628 C 0.48041 0.60903 0.92506 0.0
C629 C 0.52484 0.61519 0.92317 0.0
C630 C 0.47822 0.56564 0.94209 0.0
C631 C 0.49481 0.4714 0.98889 0.0
H632 H 0.43748 0.46266 0.10507 0.0
H633 H 0.49452 0.37037 0.11646 0.0
H634 H 0.41539 0.43347 0.10307 0.0
H635 H 0.51727 0.39993 0.11828 0.0
H636 H 0.53609 0.55238 0.93489 0.0
H637 H 0.48378 0.64557 0.91856 0.0
H638 H 0.56214 0.58064 0.92776 0.0
H639 H 0.45741 0.61704 0.92545 0.0
C640 C 0.96982 0.07344 0.07828 0.0
C641 C 0.97452 0.07661 0.04568 0.0
C642 C 0.96528 0.09339 0.09331 0.0
C643 C 0.96596 0.11696 0.07531 0.0
C644 C 0.97116 0.12017 0.04236 0.0
C645 C 0.97511 0.10002 0.02792 0.0
C646 C 0.95945 0.0893 0.12849 0.0
C647 C 0.9727 0.14482 0.02236 0.0
C648 C 0.92734 0.17462 0.11476 0.0
C649 C 0.9498 0.17677 0.12522 0.0
C650 C 0.93238 0.15554 0.09802 0.0
C651 C 0.96065 0.13834 0.09115 0.0
C652 C -0.01644 0.14085 0.10074 0.0
C653 C 0.97785 0.1599 0.11782 0.0
C654 C 0.90735 0.15346 0.08829 0.0
C655 C 0.01404 0.12302 0.0936 0.0
H656 H 0.96925 0.05543 0.09213 0.0
H657 H 0.97909 0.10249 1.0027 0.0
H658 H 0.97579 0.09253 0.13749 0.0
H659 H 0.93827 0.10321 0.13633 0.0
H660 H 0.95959 0.06985 0.13906 0.0
H661 H 0.95223 0.16065 0.02719 0.0
H662 H -0.01016 0.1492 0.02815 0.0
H663 H 0.97708 0.14419 0.99706 0.0
H664 H 0.90568 0.18784 0.11975 0.0
H665 H -0.00466 0.16115 0.12606 0.0
H666 H 0.9054 0.1348 0.09948 0.0
H667 H 0.91096 0.1544 0.06271 0.0
H668 H 0.88678 0.1687 0.09476 0.0
H669 H 0.01613 0.10345 0.10594 0.0
H670 H 0.02964 0.1286 0.10073 0.0
H671 H 0.0198 0.12251 0.06828 0.0
C672 C 0.83323 0.22234 0.45022 0.0
C673 C 0.82333 0.24101 0.46885 0.0
C674 C 0.85726 0.22045 0.42707 0.0
C675 C 0.87143 0.23778 0.42243 0.0
C676 C 0.86317 0.25504 0.44309 0.0
C677 C 0.83925 0.25637 0.46618 0.0
C678 C 0.86581 0.20148 0.4058 0.0
C679 C 0.87771 0.27385 0.43893 0.0
C680 C 0.93861 0.23273 0.36271 0.0
C681 C 0.92684 0.24934 0.33665 0.0
C682 C 0.92087 0.22834 0.39088 0.0
C683 C 0.89087 0.24119 0.39293 0.0
C684 C 0.87897 0.25806 0.3667 0.0
C685 C 0.89709 0.26178 0.33887 0.0
C686 C 0.93414 0.21006 0.41838 0.0
C687 C 0.84706 0.27244 0.36805 0.0
H688 H 0.82131 0.21012 0.45247 0.0
H689 H 0.83203 0.27061 0.48082 0.0
H690 H 0.85813 0.21146 0.38319 0.0
H691 H 0.88946 0.19237 0.40097 0.0
H692 H 0.85646 0.18646 0.41587 0.0
H693 H 0.87206 0.28288 0.45976 0.0
H694 H 0.90133 0.26457 0.43417 0.0
H695 H 0.87097 0.28903 0.4186 0.0
H696 H 0.96162 0.22301 0.36103 0.0
H697 H 0.88786 0.27482 0.3189 0.0
H698 H 0.92486 0.19491 0.42647 0.0
H699 H 0.92916 0.22013 0.43809 0.0
H700 H 0.95778 0.20108 0.4127 0.0
H701 H 0.83557 0.25891 0.37435 0.0
H702 H 0.84135 0.28493 0.34554 0.0
H703 H 0.83917 0.28437 0.38636 0.0
C704 C 0.75209 0.07774 0.66511 0.0
C705 C 0.73806 0.07924 0.69594 0.0
C706 C 0.75312 0.09971 0.64291 0.0
C707 C 0.73926 0.12426 0.6511 0.0
C708 C 0.72476 0.1259 0.68209 0.0
C709 C 0.7246 0.10358 0.704 0.0
C710 C 0.76921 0.09661 0.61054 0.0
C711 C 0.70901 0.15137 0.69212 0.0
C712 C 0.76117 0.18073 0.60236 0.0
C713 C 0.74054 0.19306 0.58215 0.0
C714 C 0.76119 0.15843 0.62445 0.0
C715 C 0.7397 0.1481 0.62729 0.0
C716 C 0.71859 0.16069 0.60723 0.0
C717 C 0.71944 0.18263 0.58492 0.0
C718 C 0.78445 0.14576 0.6447 0.0
C719 C 0.69481 0.15111 0.60948 0.0
H720 H 0.76263 0.05925 0.65832 0.0
H721 H 0.71336 0.1053 0.72748 0.0
H722 H 0.75435 0.10676 0.59317 0.0
H723 H 0.7859 0.10524 0.605 0.0
H724 H 0.77962 0.07636 0.6079 0.0
H725 H 0.69807 0.14967 0.71664 0.0
H726 H 0.7242 0.16114 0.68972 0.0
H727 H 0.69276 0.1636 0.67677 0.0
H728 H 0.77767 0.18834 0.60066 0.0
H729 H 0.70314 0.19189 0.56986 0.0
H730 H 0.7962 0.12576 0.64145 0.0
H731 H 0.77484 0.14537 0.66961 0.0
H732 H 0.80002 0.15561 0.63936 0.0
H733 H 0.70394 0.13149 0.60458 0.0
H734 H 0.67956 0.16325 0.59295 0.0
H735 H 0.68276 0.15037 0.63351 0.0
C736 C 0.89259 0.04075 0.96692 0.0
C737 C 0.90529 0.02647 0.99327 0.0
C738 C 0.86794 0.03875 0.96161 0.0
C739 C 0.856 0.02171 0.98299 0.0
C740 C 0.86796 1.00806 1.01045 0.0
C741 C 0.89249 1.01073 0.01536 0.0
C742 C 0.85556 0.05396 0.93222 0.0
C743 C 0.85608 0.98953 0.03364 0.0
C744 C 0.78345 0.03436 0.96467 0.0
C745 C 0.7912 0.01952 0.94154 0.0
C746 C 0.80393 0.03333 0.98125 0.0
C747 C 0.83263 0.01696 0.9746 0.0
C748 C 0.83968 0.99962 0.95431 0.0
C749 C 0.81888 1.00121 0.93784 0.0
C750 C 0.79547 0.05165 1.00333 0.0
C751 C 0.86996 0.98138 0.94724 0.0
H752 H 0.90242 0.05302 0.94997 0.0
H753 H 0.90252 0.99942 0.03564 0.0
H754 H 0.8581 0.04093 0.91663 0.0
H755 H 0.8323 0.06467 0.93792 0.0
H756 H 0.86617 0.06764 0.91926 0.0
H757 H 0.86341 0.98499 0.05656 0.0
H758 H 0.83231 0.99704 0.03716 0.0
H759 H 0.86351 0.97157 0.0246 0.0
H760 H 0.76183 0.04801 0.96831 0.0
H761 H 0.8251 0.98959 0.92012 0.0
H762 H 0.80249 0.06787 0.99153 0.0
H763 H 0.8061 0.04242 0.02435 0.0
H764 H 0.77191 0.05924 1.0107 0.0
H765 H 0.88327 0.99199 0.93167 0.0
H766 H 0.87087 0.96638 0.9355 0.0
H767 H 0.87959 0.97219 0.9689 0.0
C768 C 0.08045 0.99014 0.04079 0.0
C769 C 0.07262 1.00359 0.01172 0.0
C770 C 0.10412 0.99057 0.05049 0.0
C771 C 0.12092 1.0041 0.03016 0.0
C772 C 0.11438 0.01615 0.99983 0.0
C773 C 0.08987 0.01618 0.99116 0.0
C774 C 0.11002 0.97783 0.08329 0.0
C775 C 0.13232 0.02997 0.97701 0.0
C776 C 0.15408 0.02703 0.07726 0.0
C777 C 0.17906 1.00576 0.08221 0.0
C778 C 0.13587 0.02787 0.05792 0.0
C779 C 0.14341 1.00734 0.04232 0.0
C780 C 0.17044 0.98759 0.04377 0.0
C781 C 0.18782 0.98678 0.06414 0.0
C782 C 0.10727 0.04943 0.05682 0.0
C783 C 0.17986 0.96613 0.02601 0.0
H784 H 0.06704 0.98054 0.05681 0.0
H785 H 0.08392 0.02645 0.96853 0.0
H786 H 0.13217 0.96374 0.08279 0.0
H787 H 0.10814 0.99221 0.09661 0.0
H788 H 0.09497 0.96798 0.096 0.0
H789 H 0.1302 0.03101 0.95258 0.0
H790 H 0.12491 0.04968 0.98119 0.0
H791 H 0.15529 0.02063 0.97972 0.0
H792 H 0.14777 0.0423 0.09013 0.0
H793 H 0.20719 0.97034 0.06745 0.0
H794 H 0.0899 0.04217 0.06914 0.0
H795 H 0.10342 0.05741 0.0324 0.0
H796 H 0.10579 0.06498 0.06797 0.0
H797 H 0.16898 0.95255 0.03832 0.0
H798 H 0.20337 0.95565 0.02403 0.0
H799 H 0.17386 0.97339 1.00227 0.0
C800 C -0.01266 0.44761 0.44913 0.0
C801 C 0.00052 0.46552 0.43506 0.0
C802 C -0.01064 0.42873 0.4336 0.0
C803 C 0.00526 0.42742 0.40328 0.0
C804 C 0.01845 0.44553 0.38881 0.0
C805 C 0.01579 0.46445 0.40479 0.0
C806 C 0.97461 0.41008 0.4498 0.0
C807 C 0.03572 0.44469 0.3566 0.0
C808 C 0.03435 0.36343 0.37701 0.0
C809 C 0.0148 0.36668 0.35769 0.0
C810 C 0.03166 0.38309 0.39162 0.0
C811 C 0.00872 0.40665 0.38714 0.0
C812 C -0.01115 0.4101 0.36777 0.0
C813 C -0.00781 0.39016 0.35321 0.0
C814 C 0.05327 0.37856 0.41215 0.0
C815 C 0.96394 0.43484 0.36258 0.0
H816 H 0.97522 0.44837 0.4724 0.0
H817 H 0.02602 0.47818 0.39373 0.0
H818 H -0.00926 0.39056 0.45329 0.0
H819 H 0.9621 0.41433 0.47285 0.0
H820 H 0.9599 0.4103 0.4351 0.0
H821 H 0.04417 0.46041 0.34832 0.0
H822 H 0.05403 0.42636 0.35657 0.0
H823 H 0.02234 0.44584 0.33979 0.0
H824 H 0.05158 0.34528 0.3812 0.0
H825 H 0.97715 0.39308 0.33806 0.0
H826 H 0.04236 0.38037 0.43637 0.0
H827 H 0.06339 0.39313 0.40392 0.0
H828 H 0.07038 0.35946 0.41251 0.0
H829 H 0.95035 0.43891 0.38519 0.0
H830 H 0.9504 0.43455 0.3468 0.0
H831 H 0.97192 0.45069 0.35243 0.0
C832 C 0.63077 0.28433 0.55305 0.0
C833 C 0.65537 0.27757 0.56651 0.0
C834 C 0.60438 0.28552 0.57191 0.0
C835 C 0.60298 0.27928 0.60473 0.0
C836 C 0.62774 0.2726 0.6183 0.0
C837 C 0.65348 0.27205 0.59907 0.0
C838 C 0.57817 0.29313 0.55683 0.0
C839 C 0.6273 0.26544 0.65323 0.0
C840 C 0.53868 0.29695 0.66653 0.0
C841 C 0.53486 0.27362 0.67762 0.0
C842 C 0.55889 0.29996 0.64029 0.0
C843 C 0.57612 0.2789 0.62556 0.0
C844 C 0.571 0.25581 0.63545 0.0
C845 C 0.55014 0.25354 0.66126 0.0
C846 C 0.5633 0.32506 0.62991 0.0
C847 C 0.58931 0.23276 0.62074 0.0
H848 H 0.63214 0.28861 0.5279 0.0
H849 H 0.67239 0.26656 0.60977 0.0
H850 H 0.57096 0.27682 0.56136 0.0
H851 H 0.56031 0.30869 0.56711 0.0
H852 H 0.58231 0.29945 0.53122 0.0
H853 H 0.64863 0.26038 0.65991 0.0
H854 H 0.61181 0.28146 0.66467 0.0
H855 H 0.6202 0.24899 0.66258 0.0
H856 H 0.52639 0.31267 0.67882 0.0
H857 H 0.54706 0.23551 0.66977 0.0
H858 H 0.56663 0.33014 0.60411 0.0
H859 H 0.58276 0.32353 0.63809 0.0
H860 H 0.54482 0.34065 0.63949 0.0
H861 H 0.59231 0.23795 0.59496 0.0
H862 H 0.57988 0.21768 0.62785 0.0
H863 H 0.61083 0.22483 0.62798 0.0
C864 C 0.70978 0.93329 0.8329 0.0
C865 C 0.72885 0.94539 0.83211 0.0
C866 C 0.70902 0.91143 0.85551 0.0
C867 C 0.72824 0.90065 0.8778 0.0
C868 C 0.74791 0.91253 0.87667 0.0
C869 C 0.74774 0.93468 0.85432 0.0
C870 C 0.68734 0.89996 0.85574 0.0
C871 C 0.76942 0.90171 0.89902 0.0
C872 C 0.71164 0.85673 0.95462 0.0
C873 C 0.72736 0.83223 0.94769 0.0
C874 C 0.71143 0.87893 0.93221 0.0
C875 C 0.72794 0.87698 0.90204 0.0
C876 C 0.74434 0.85225 0.89522 0.0
C877 C 0.74354 0.83042 0.91774 0.0
C878 C 0.69323 0.9046 0.94078 0.0
C879 C 0.76305 0.84877 0.86406 0.0
H880 H 0.69497 0.94121 0.81614 0.0
H881 H 0.76283 0.94348 0.85402 0.0
H882 H 0.69847 0.88009 0.85183 0.0
H883 H 0.67368 0.8994 0.87889 0.0
H884 H 0.67337 0.91077 0.83759 0.0
H885 H 0.78395 0.9125 0.8946 0.0
H886 H 0.75813 0.90189 0.92333 0.0
H887 H 0.78257 0.88162 0.89709 0.0
H888 H 0.69896 0.8586 0.97748 0.0
H889 H 0.75609 0.81176 0.91195 0.0
H890 H 0.67789 0.91551 0.92402 0.0
H891 H 0.70694 0.91562 0.93925 0.0
H892 H 0.68099 0.90312 0.9647 0.0
H893 H 0.74967 0.85731 0.84516 0.0
H894 H 0.7754 0.82844 0.86263 0.0
H895 H 0.77835 0.85876 0.85971 0.0
C896 C 0.12398 0.29725 0.04941 0.0
C897 C 0.14763 0.29057 0.06446 0.0
C898 C 0.0967 0.29986 0.06676 0.0
C899 C 0.09346 0.295 0.09972 0.0
C900 C 0.11703 0.28937 0.11485 0.0
C901 C 0.14366 0.28757 0.09703 0.0
C902 C 0.07177 0.30671 0.04988 0.0
C903 C 0.11464 0.28369 0.15002 0.0
C904 C 0.02729 0.30869 0.15975 0.0
C905 C 0.02562 0.28447 0.16962 0.0
C906 C 0.04726 0.31336 0.13407 0.0
C907 C 0.06661 0.29303 0.11905 0.0
C908 C 0.06361 0.26901 0.12767 0.0
C909 C 0.04278 0.26514 0.15264 0.0
C910 C 0.04907 0.33949 0.12454 0.0
C911 C 0.08422 0.24667 0.1127 0.0
H912 H 0.12685 0.29985 0.02421 0.0
H913 H 0.16171 0.28261 0.10895 0.0
H914 H 0.06796 0.28925 0.05002 0.0
H915 H 0.05188 0.31973 0.0616 0.0
H916 H 0.076 0.31583 0.02522 0.0
H917 H 0.13505 0.27996 0.158 0.0
H918 H 0.09778 0.29985 0.16013 0.0
H919 H 0.10839 0.26678 0.15954 0.0
H920 H 0.01348 0.32377 0.17254 0.0
H921 H 0.04133 0.24643 0.16025 0.0
H922 H 0.05349 0.34462 0.09879 0.0
H923 H 0.06694 0.3397 0.13416 0.0
H924 H 0.02899 0.35417 0.13338 0.0
H925 H 0.08685 0.25205 0.08696 0.0
H926 H 0.07704 0.23018 0.11968 0.0
H927 H 0.10559 0.24064 0.11975 0.0
C928 C 0.70338 0.43763 0.34098 0.0
C929 C 0.72365 0.44916 0.33713 0.0
C930 C 0.70435 0.41526 0.36341 0.0
C931 C 0.72653 0.40338 0.38227 0.0
C932 C 0.74725 0.41478 0.37809 0.0
C933 C 0.74536 0.43744 0.35612 0.0
C934 C 0.68143 0.40435 0.36705 0.0
C935 C 0.77183 0.40282 0.39661 0.0
C936 C 0.71809 0.35689 0.45965 0.0
C937 C 0.73236 0.33289 0.45084 0.0
C938 C 0.71565 0.37976 0.43772 0.0
C939 C 0.72833 0.37901 0.40599 0.0
C940 C 0.74318 0.3548 0.39713 0.0
C941 C 0.74468 0.33229 0.41934 0.0
C942 C 0.69925 0.40484 0.44855 0.0
C943 C 0.75783 0.35259 0.36408 0.0
H944 H 0.68645 0.4463 0.32671 0.0
H945 H 0.76142 0.44577 0.35342 0.0
H946 H 0.69125 0.3849 0.36158 0.0
H947 H 0.67059 0.40283 0.39158 0.0
H948 H 0.66507 0.41611 0.35161 0.0
H949 H 0.78642 0.4137 0.39051 0.0
H950 H 0.76351 0.40153 0.4219 0.0
H951 H 0.78441 0.38318 0.39236 0.0
H952 H 0.70833 0.35787 0.48371 0.0
H953 H 0.756 0.31405 0.41199 0.0
H954 H 0.68178 0.41648 0.43452 0.0
H955 H 0.71364 0.41562 0.44493 0.0
H956 H 0.68981 0.40244 0.47358 0.0
H957 H 0.74181 0.36197 0.34788 0.0
H958 H 0.76936 0.33251 0.36096 0.0
H959 H 0.7734 0.3625 0.35729 0.0
C960 C 0.58798 1.00054 0.50153 0.0
C961 C 0.56981 0.99337 0.52769 0.0
C962 C 0.61335 1.00271 0.50485 0.0
C963 C 0.62043 0.99776 0.53504 0.0
C964 C 0.60272 0.98949 0.56133 0.0
C965 C 0.57781 0.98725 0.55727 0.0
C966 C 0.63171 1.01131 0.47616 0.0
C967 C 0.60943 0.98391 0.59407 0.0
C968 C 0.68864 0.98176 0.56424 0.0
C969 C 0.68206 1.00363 0.57656 0.0
C970 C 0.67072 0.98082 0.54578 0.0
C971 C 0.64543 1.00197 0.54034 0.0
C972 C 0.64118 0.02523 0.54852 0.0
C973 C 0.65979 0.02584 0.56637 0.0
C974 C 0.67676 0.95611 0.53585 0.0
C975 C 0.61494 0.04849 0.54213 0.0
H976 H 0.58208 1.00512 0.47853 0.0
H977 H 0.56409 0.98147 0.57761 0.0
H978 H 0.62516 0.03227 0.47238 0.0
H979 H 0.65475 1.00284 0.47864 0.0
H980 H 0.62891 1.00636 0.45508 0.0
H981 H 0.59329 0.9778 0.61191 0.0
H982 H 0.63073 0.96868 0.59595 0.0
H983 H 0.61021 1.00109 0.59964 0.0
H984 H 0.70604 0.96452 0.57147 0.0
H985 H 0.65535 0.04313 0.57469 0.0
H986 H 0.67042 0.95959 0.51265 0.0
H987 H 0.66408 0.94559 0.55288 0.0
H988 H 0.69979 0.94393 0.53492 0.0
H989 H 0.61138 0.05168 0.51774 0.0
H990 H 0.61671 0.06578 0.54623 0.0
H991 H 0.59582 0.04559 0.5577 0.0
C992 C 0.01868 0.95379 0.92554 0.0
C993 C 0.00094 0.95681 0.95435 0.0
C994 C 0.02092 0.93501 0.9097 0.0
C995 C 0.00491 0.91895 0.92288 0.0
C996 C -0.01306 0.92193 0.95192 0.0
C997 C -0.01477 0.94074 0.96733 0.0
C998 C 0.04047 0.9323 0.87887 0.0
C999 C 0.96937 0.90532 0.96667 0.0
C1000 C -0.0083 0.88544 0.86855 0.0
C1001 C 0.01263 0.86108 0.87398 0.0
C1002 C -0.01129 0.90438 0.88456 0.0
C1003 C 0.00721 0.89889 0.90639 0.0
C1004 C 0.02816 0.8743 0.91221 0.0
C1005 C 0.03053 0.85569 0.89606 0.0
C1006 C 0.96598 0.93035 0.87787 0.0
C1007 C 0.04822 0.86768 0.93538 0.0
H1008 H 0.0309 0.96609 0.91534 0.0
H1009 H 0.97129 0.943 0.98947 0.0
H1010 H 0.05693 0.91288 0.88029 0.0
H1011 H 0.028 0.93494 0.86038 0.0
H1012 H 0.05149 0.94625 0.87179 0.0
H1013 H 0.95652 0.91001 0.98943 0.0
H1014 H 0.95459 0.90749 0.95084 0.0
H1015 H -0.01639 0.88506 0.97034 0.0
H1016 H 0.97798 0.88989 0.85131 0.0
H1017 H 0.0464 0.8368 0.90085 0.0
H1018 H 0.97617 0.94481 0.8684 0.0
H1019 H 0.95162 0.93547 0.89975 0.0
H1020 H 0.95278 0.93134 0.8609 0.0
H1021 H 0.06327 0.84764 0.93733 0.0
H1022 H 0.03575 0.87082 0.95873 0.0
H1023 H 0.06088 0.8803 0.92835 0.0
C1024 C 0.03553 0.15403 0.93199 0.0
C1025 C 0.04737 0.14027 0.90746 0.0
C1026 C 0.04901 0.16872 0.93804 0.0
C1027 C 0.07504 0.16946 0.91926 0.0
C1028 C 0.08653 0.15638 0.89379 0.0
C1029 C 0.07247 0.14203 0.88811 0.0
C1030 C 0.03602 0.18255 0.9653 0.0
C1031 C 0.11431 0.15668 0.87328 0.0
C1032 C 0.10508 0.21931 0.91905 0.0
C1033 C 0.12603 0.20565 0.9385 0.0
C1034 C 0.08756 0.20807 0.9134 0.0
C1035 C 0.09133 0.18253 0.92731 0.0
C1036 C 0.11189 0.16889 0.94766 0.0
C1037 C 0.12894 0.18067 0.95309 0.0
C1038 C 0.06556 0.22327 0.89193 0.0
C1039 C 0.11664 0.14155 0.96278 0.0
H1040 H 0.01635 0.15249 0.94732 0.0
H1041 H 0.08148 0.13171 0.86888 0.0
H1042 H 0.05007 0.17375 0.98359 0.0
H1043 H 0.0344 0.20267 0.95792 0.0
H1044 H 0.01438 0.18202 0.97573 0.0
H1045 H 0.11962 0.1465 0.85355 0.0
H1046 H 0.11311 0.17651 0.86374 0.0
H1047 H 0.13208 0.14757 0.88732 0.0
H1048 H 0.10258 0.23874 0.90804 0.0
H1049 H 0.14532 0.16999 0.96787 0.0
H1050 H 0.04421 0.22266 0.90348 0.0
H1051 H 0.07134 0.21479 0.87067 0.0
H1052 H 0.06392 0.24342 0.88478 0.0
H1053 H 0.09618 0.13966 0.97572 0.0
H1054 H 0.13252 0.13405 0.97916 0.0
H1055 H 0.12441 0.12956 0.94456 0.0
C1056 C 0.63033 0.58148 0.24602 0.0
C1057 C 0.64373 0.57046 0.27271 0.0
C1058 C 0.60702 0.60459 0.24479 0.0
C1059 C 0.59688 0.61692 0.27089 0.0
C1060 C 0.60921 0.60518 0.29851 0.0
C1061 C 0.63251 0.58208 0.29909 0.0
C1062 C 0.5944 0.61649 0.21492 0.0
C1063 C 0.59889 0.61771 0.32687 0.0
C1064 C 0.56449 0.68881 0.2569 0.0
C1065 C 0.53511 0.69321 0.26536 0.0
C1066 C 0.58472 0.66406 0.25814 0.0
C1067 C 0.57537 0.64317 0.26835 0.0
C1068 C 0.54574 0.64744 0.27664 0.0
C1069 C 0.52592 0.67245 0.27492 0.0
C1070 C 0.61614 0.66029 0.24872 0.0
C1071 C 0.53504 0.6256 0.28765 0.0
H1072 H 0.63879 0.57265 0.2255 0.0
H1073 H 0.64262 0.57367 0.31987 0.0
H1074 H 0.57067 0.62301 0.21981 0.0
H1075 H 0.60022 0.63342 0.20361 0.0
H1076 H 0.60227 0.60314 0.19822 0.0
H1077 H 0.60877 0.605 0.34743 0.0
H1078 H 0.60428 0.6351 0.32167 0.0
H1079 H 0.57526 0.62364 0.33298 0.0
H1080 H 0.57177 0.70474 0.24919 0.0
H1081 H 0.50324 0.67571 0.28146 0.0
H1082 H 0.62566 0.64896 0.22977 0.0
H1083 H 0.62776 0.64948 0.26877 0.0
H1084 H 0.6198 0.67856 0.24058 0.0
H1085 H 0.54284 0.61324 0.26982 0.0
H1086 H 0.51128 0.63214 0.2925 0.0
H1087 H 0.54368 0.61375 0.30921 0.0
C1088 C 0.33621 0.84174 0.57552 0.0
C1089 C 0.31395 0.83856 0.59917 0.0
C1090 C 0.35474 0.85251 0.57984 0.0
C1091 C 0.35117 0.85993 0.60866 0.0
C1092 C 0.32902 0.85649 0.63277 0.0
C1093 C 0.31054 0.84601 0.62766 0.0
C1094 C 0.378 0.85611 0.55348 0.0
C1095 C 0.32469 0.8641 0.66386 0.0
C1096 C 0.41474 0.86815 0.62749 0.0
C1097 C 0.40702 0.89457 0.62016 0.0
C1098 C 0.39645 0.85659 0.62449 0.0
C1099 C 0.37022 0.87187 0.61328 0.0
C1100 C 0.36237 0.89859 0.60588 0.0
C1101 C 0.38081 0.90963 0.60965 0.0
C1102 C 0.40527 0.82806 0.63302 0.0
C1103 C 0.33485 0.91546 0.59326 0.0
H1104 H 0.33932 0.83564 0.55364 0.0
H1105 H 0.29315 0.84399 0.64589 0.0
H1106 H 0.37533 0.87651 0.54693 0.0
H1107 H 0.39931 0.84565 0.56109 0.0
H1108 H 0.37782 0.84941 0.53248 0.0
H1109 H 0.30721 0.85918 0.68062 0.0
H1110 H 0.34476 0.85458 0.67422 0.0
H1111 H 0.31945 0.88487 0.66059 0.0
H1112 H 0.43506 0.85659 0.63561 0.0
H1113 H 0.37513 0.93006 0.6035 0.0
H1114 H 0.40761 0.82006 0.61218 0.0
H1115 H 0.38841 0.82289 0.65062 0.0
H1116 H 0.42582 0.81903 0.64253 0.0
H1117 H 0.33503 0.91062 0.57083 0.0
H1118 H 0.33164 0.93594 0.58935 0.0
H1119 H 0.31627 0.91226 0.60964 0.0
C1120 C 0.03913 0.67701 0.80187 0.0
C1121 C 0.03226 0.68927 0.77204 0.0
C1122 C 0.06035 0.65281 0.80641 0.0
C1123 C 0.07531 0.64091 0.78039 0.0
C1124 C 0.06751 0.65269 0.75046 0.0
C1125 C 0.04584 0.6767 0.74669 0.0
C1126 C 0.06775 0.64057 0.83875 0.0
C1127 C 0.08326 0.64068 0.72209 0.0
C1128 C 0.15296 0.59859 0.78104 0.0
C1129 C 0.15173 0.57444 0.78453 0.0
C1130 C 0.1281 0.6203 0.78032 0.0
C1131 C 0.10129 0.61776 0.78371 0.0
C1132 C 0.09968 0.59338 0.78871 0.0
C1133 C 0.12502 0.57194 0.78883 0.0
C1134 C 0.1307 0.64604 0.77464 0.0
C1135 C 0.07133 0.59003 0.79295 0.0
H1136 H 0.02834 0.68656 0.8216 0.0
H1137 H 0.04056 0.68614 0.72359 0.0
H1138 H 0.06948 0.62042 0.84398 0.0
H1139 H 0.08888 0.64081 0.84013 0.0
H1140 H 0.05159 0.65059 0.85693 0.0
H1141 H 0.07292 0.6512 0.70106 0.0
H1142 H 0.10559 0.64031 0.71721 0.0
H1143 H 0.08441 0.62075 0.72637 0.0
H1144 H 0.17351 0.60072 0.77762 0.0
H1145 H 0.12395 0.5533 0.79168 0.0
H1146 H 0.15311 0.64463 0.77331 0.0
H1147 H 0.11709 0.65658 0.79354 0.0
H1148 H 0.12298 0.65742 0.75245 0.0
H1149 H 0.05584 0.60046 0.81113 0.0
H1150 H 0.07349 0.56973 0.7996 0.0
H1151 H 0.06213 0.59814 0.77092 0.0
C1152 C 0.86659 0.3318 0.56545 0.0
C1153 C 0.83709 0.34366 0.57443 0.0
C1154 C 0.88585 0.34333 0.56544 0.0
C1155 C 0.8753 0.36738 0.57442 0.0
C1156 C 0.8455 0.37961 0.58316 0.0
C1157 C 0.82673 0.36752 0.58322 0.0
C1158 C 0.91751 0.32971 0.55604 0.0
C1159 C 0.83349 0.40541 0.5925 0.0
C1160 C 0.92695 0.3864 0.60197 0.0
C1161 C 0.93505 0.40192 0.57503 0.0
C1162 C 0.90735 0.37513 0.60215 0.0
C1163 C 0.89554 0.37964 0.57479 0.0
C1164 C 0.90347 0.39548 0.54761 0.0
C1165 C 0.92312 0.40644 0.54809 0.0
C1166 C 0.89948 0.35821 0.6315 0.0
C1167 C 0.89113 0.40096 0.51808 0.0
H1168 H 0.87467 0.31321 0.559 0.0
H1169 H 0.80388 0.37681 0.58989 0.0
H1170 H 0.92606 0.34165 0.53592 0.0
H1171 H 0.92919 0.32641 0.57551 0.0
H1172 H 0.9222 0.31114 0.54958 0.0
H1173 H 0.80974 0.41253 0.59814 0.0
H1174 H 0.84244 0.4045 0.61316 0.0
H1175 H 0.83989 0.41934 0.57338 0.0
H1176 H 0.93625 0.3828 0.62276 0.0
H1177 H 0.92885 0.4189 0.52742 0.0
H1178 H 0.9054 0.33882 0.62684 0.0
H1179 H 0.87598 0.36554 0.63912 0.0
H1180 H 0.91033 0.35687 0.65089 0.0
H1181 H 0.89477 0.38296 0.51084 0.0
H1182 H 0.90064 0.41268 0.49853 0.0
H1183 H 0.86763 0.41119 0.52236 0.0
C1184 C 0.31182 0.94698 0.29214 0.0
C1185 C 0.31033 0.96664 0.26626 0.0
C1186 C 0.33309 0.92283 0.29132 0.0
C1187 C 0.3538 0.9185 0.26426 0.0
C1188 C 0.35329 0.93868 0.23872 0.0
C1189 C 0.3313 0.96246 0.23987 0.0
C1190 C 0.33255 0.90167 0.31878 0.0
C1191 C 0.37532 0.93489 0.20971 0.0
C1192 C 0.42153 0.86021 0.27174 0.0
C1193 C 0.41582 0.8432 0.25929 0.0
C1194 C 0.40169 0.88486 0.27316 0.0
C1195 C 0.37534 0.89262 0.26223 0.0
C1196 C 0.36943 0.8756 0.24954 0.0
C1197 C 0.38988 0.85112 0.24798 0.0
C1198 C 0.4089 0.90257 0.28649 0.0
C1199 C 0.34131 0.88311 0.23811 0.0
H1200 H 0.29532 0.95 0.31239 0.0
H1201 H 0.33007 0.97762 0.21981 0.0
H1202 H 0.32938 0.88633 0.31135 0.0
H1203 H 0.35336 0.89327 0.32764 0.0
H1204 H 0.31518 0.90828 0.33819 0.0
H1205 H 0.37326 0.95296 0.19297 0.0
H1206 H 0.39725 0.9264 0.21593 0.0
H1207 H 0.37287 0.92145 0.1979 0.0
H1208 H 0.44163 0.85428 0.28035 0.0
H1209 H 0.38526 0.838 0.23857 0.0
H1210 H 0.393 0.90826 0.30727 0.0
H1211 H 0.40773 0.92015 0.26912 0.0
H1212 H 0.43062 0.89377 0.29337 0.0
H1213 H 0.3233 0.88825 0.2574 0.0
H1214 H 0.34003 0.86765 0.22895 0.0
H1215 H 0.33834 0.90012 0.21939 0.0
C1216 C 0.30405 0.43238 0.74274 0.0
C1217 C 0.3069 0.45551 0.74167 0.0
C1218 C 0.328 0.40991 0.74237 0.0
C1219 C 0.35551 0.41073 0.74016 0.0
C1220 C 0.35872 0.43422 0.73744 0.0
C1221 C 0.33426 0.45637 0.73865 0.0
C1222 C 0.32367 0.38513 0.74595 0.0
C1223 C 0.38785 0.4358 0.73432 0.0
C1224 C 0.40973 0.34981 0.77557 0.0
C1225 C 0.42363 0.33824 0.74947 0.0
C1226 C 0.38798 0.3738 0.77271 0.0
C1227 C 0.38051 0.38668 0.74291 0.0
C1228 C 0.39542 0.3756 0.71627 0.0
C1229 C 0.41662 0.3513 0.71992 0.0
C1230 C 0.37214 0.38482 0.80175 0.0
C1231 C 0.3884 0.38908 0.68408 0.0
H1232 H 0.28291 0.43158 0.74542 0.0
H1233 H 0.3365 0.47427 0.73766 0.0
H1234 H 0.33711 0.37499 0.72666 0.0
H1235 H 0.3305 0.37266 0.76805 0.0
H1236 H 0.30097 0.38793 0.7462 0.0
H1237 H 0.38694 0.45575 0.72903 0.0
H1238 H 0.39679 0.42629 0.75635 0.0
H1239 H 0.40288 0.42574 0.71561 0.0
H1240 H 0.41505 0.33968 0.79846 0.0
H1241 H 0.42763 0.34246 0.69966 0.0
H1242 H 0.34937 0.38667 0.80519 0.0
H1243 H 0.37247 0.40412 0.79921 0.0
H1244 H 0.38146 0.37286 0.82295 0.0
H1245 H 0.36671 0.39038 0.68226 0.0
H1246 H 0.40399 0.3791 0.66555 0.0
H1247 H 0.38812 0.40876 0.67977 0.0
C1248 C 0.13088 0.79999 0.564 0.0
C1249 C 0.14467 0.77998 0.54726 0.0
C1250 C 0.10671 0.80045 0.58651 0.0
C1251 C 0.0963 0.78038 0.59239 0.0
C1252 C 0.10868 0.76128 0.57379 0.0
C1253 C 0.1327 0.76137 0.55131 0.0
C1254 C 0.09376 0.82135 0.60562 0.0
C1255 C 0.09814 0.73956 0.57936 0.0
C1256 C 0.06562 0.76169 0.67607 0.0
C1257 C 0.03611 0.77228 0.67504 0.0
C1258 C 0.08538 0.76399 0.64917 0.0
C1259 C 0.07533 0.77743 0.62062 0.0
C1260 C 0.0456 0.78806 0.61932 0.0
C1261 C 0.02628 0.78525 0.6466 0.0
C1262 C 0.11702 0.75209 0.65135 0.0
C1263 C 0.03424 0.80256 0.58924 0.0
H1264 H 0.13981 0.81461 0.56072 0.0
H1265 H 0.14308 0.74593 0.53828 0.0
H1266 H 0.07005 0.82879 0.60797 0.0
H1267 H 0.09952 0.81361 0.62943 0.0
H1268 H 0.10152 0.83735 0.59523 0.0
H1269 H 0.10706 0.72856 0.56004 0.0
H1270 H 0.10467 0.72649 0.60125 0.0
H1271 H 0.07442 0.74661 0.58219 0.0
H1272 H 0.07337 0.75146 0.69791 0.0
H1273 H 0.00347 0.79351 0.6457 0.0
H1274 H 0.12671 0.76696 0.64444 0.0
H1275 H 0.12805 0.73846 0.63502 0.0
H1276 H 0.12125 0.74187 0.67523 0.0
H1277 H 0.04095 0.81926 0.58052 0.0
H1278 H 0.0105 0.80926 0.59207 0.0
H1279 H 0.04341 0.79042 0.57113 0.0
C1280 C 0.24321 0.92574 0.32431 0.0
C1281 C 0.22511 0.94966 0.33179 0.0
C1282 C 0.24493 0.90285 0.3458 0.0
C1283 C 0.22768 0.90342 0.37565 0.0
C1284 C 0.20931 0.92753 0.38327 0.0
C1285 C 0.20851 0.95017 0.36159 0.0
C1286 C 0.26551 0.87797 0.33656 0.0
C1287 C 0.1902 0.92945 0.41441 0.0
C1288 C 0.21146 0.84318 0.41971 0.0
C1289 C 0.22968 0.83297 0.44256 0.0
C1290 C 0.21053 0.86589 0.39816 0.0
C1291 C 0.22859 0.87893 0.39867 0.0
C1292 C 0.24732 0.86853 0.4214 0.0
C1293 C 0.24745 0.84601 0.44305 0.0
C1294 C 0.18993 0.87608 0.37487 0.0
C1295 C 0.26745 0.88115 0.42278 0.0
H1296 H 0.25659 0.92488 0.3017 0.0
H1297 H 0.19448 0.96837 0.36789 0.0
H1298 H 0.28098 0.86797 0.35333 0.0
H1299 H 0.25368 0.86547 0.33742 0.0
H1300 H 0.2777 0.88059 0.31276 0.0
H1301 H 0.17684 0.94942 0.41683 0.0
H1302 H 0.17586 0.9187 0.41748 0.0
H1303 H 0.20338 0.92076 0.43349 0.0
H1304 H 0.19752 0.83355 0.41886 0.0
H1305 H 0.26182 0.83845 0.46025 0.0
H1306 H 0.20189 0.87718 0.35082 0.0
H1307 H 0.17518 0.89565 0.37759 0.0
H1308 H 0.17698 0.86411 0.37758 0.0
H1309 H 0.2813 0.88291 0.39992 0.0
H1310 H 0.28132 0.87044 0.44106 0.0
H1311 H 0.25501 0.90064 0.4276 0.0
C1312 C -0.01701 0.66144 0.60983 0.0
C1313 C 0.95512 0.6742 0.62401 0.0
C1314 C -0.01175 0.64359 0.59097 0.0
C1315 C 0.96515 0.63804 0.58645 0.0
C1316 C 0.93696 0.65123 0.60011 0.0
C1317 C 0.93229 0.66918 0.61847 0.0
C1318 C 0.01868 0.63008 0.57684 0.0
C1319 C 0.91168 0.64602 0.59585 0.0
C1320 C 0.9712 0.60467 0.52071 0.0
C1321 C 0.97576 0.57961 0.53644 0.0
C1322 C 0.96869 0.62371 0.5364 0.0
C1323 C 0.97033 0.61768 0.56872 0.0
C1324 C 0.97545 0.59233 0.58455 0.0
C1325 C 0.97826 0.57363 0.56822 0.0
C1326 C 0.96432 0.65027 0.5184 0.0
C1327 C 0.97742 0.58502 0.61894 0.0
H1328 H 0.00089 0.66488 0.61411 0.0
H1329 H 0.9106 0.67928 0.62859 0.0
H1330 H 0.02698 0.61072 0.5907 0.0
H1331 H 0.01977 0.62802 0.55261 0.0
H1332 H 0.03301 0.64021 0.5767 0.0
H1333 H 0.89103 0.65826 0.60743 0.0
H1334 H 0.91057 0.64915 0.57067 0.0
H1335 H 0.91438 0.62586 0.60561 0.0
H1336 H 0.96991 0.6094 0.49601 0.0
H1337 H -0.01796 0.5543 0.58056 0.0
H1338 H 0.96418 0.65177 0.49326 0.0
H1339 H 0.98162 0.65626 0.52066 0.0
H1340 H 0.94372 0.66378 0.52823 0.0
H1341 H -0.00612 0.59076 0.6239 0.0
H1342 H -0.01709 0.56428 0.62749 0.0
H1343 H 0.95663 0.59522 0.63232 0.0
C1344 C 0.33244 0.72822 0.45132 0.0
C1345 C 0.31906 0.74493 0.47252 0.0
C1346 C 0.35777 0.72861 0.43153 0.0
C1347 C 0.36953 0.74652 0.43266 0.0
C1348 C 0.35779 0.76151 0.45633 0.0
C1349 C 0.33262 0.76043 0.47623 0.0
C1350 C 0.36998 0.71186 0.40711 0.0
C1351 C 0.36984 0.78069 0.45846 0.0
C1352 C 0.43726 0.74416 0.37502 0.0
C1353 C 0.4255 0.76028 0.34872 0.0
C1354 C 0.41947 0.74035 0.40338 0.0
C1355 C 0.38947 0.75321 0.40527 0.0
C1356 C 0.37783 0.77079 0.37927 0.0
C1357 C 0.39598 0.77394 0.35128 0.0
C1358 C 0.43262 0.72156 0.43063 0.0
C1359 C 0.34597 0.78534 0.38044 0.0
H1360 H 0.32209 0.71597 0.44883 0.0
H1361 H 0.32223 0.77337 0.49268 0.0
H1362 H 0.36426 0.72345 0.38421 0.0
H1363 H 0.39369 0.70353 0.40474 0.0
H1364 H 0.36152 0.6962 0.41268 0.0
H1365 H 0.36292 0.78629 0.48178 0.0
H1366 H 0.39359 0.77316 0.4536 0.0
H1367 H 0.36208 0.79798 0.44075 0.0
H1368 H 0.46015 0.73368 0.37307 0.0
H1369 H 0.38693 0.78685 0.33113 0.0
H1370 H 0.42888 0.70367 0.43294 0.0
H1371 H 0.42253 0.7289 0.45271 0.0
H1372 H 0.45609 0.71705 0.42755 0.0
H1373 H 0.3348 0.77197 0.38292 0.0
H1374 H 0.34076 0.79987 0.35913 0.0
H1375 H 0.3373 0.79496 0.40095 0.0
C1376 C 0.2207 0.10941 0.20661 0.0
C1377 C 0.23076 0.0857 0.19725 0.0
C1378 C 0.22021 0.13193 0.18481 0.0
C1379 C 0.23091 0.13092 0.15271 0.0
C1380 C 0.24147 0.10693 0.14328 0.0
C1381 C 0.24083 0.08489 0.16538 0.0
C1382 C 0.20782 0.15693 0.19612 0.0
C1383 C 0.25376 0.10444 0.10973 0.0
C1384 C 0.20955 0.19078 0.08889 0.0
C1385 C 0.23267 0.19921 0.08349 0.0
C1386 C 0.20842 0.16911 0.11155 0.0
C1387 C 0.23129 0.15476 0.12906 0.0
C1388 C 0.25481 0.16305 0.12346 0.0
C1389 C 0.25504 0.18516 0.10123 0.0
C1390 C 0.18251 0.16168 0.11694 0.0
C1391 C 0.28004 0.14835 0.14075 0.0
H1392 H 0.21249 0.11049 0.23098 0.0
H1393 H 0.24875 0.0668 0.1577 0.0
H1394 H 0.22449 0.16545 0.19169 0.0
H1395 H 0.19028 0.17045 0.18302 0.0
H1396 H 0.19925 0.15484 0.22141 0.0
H1397 H 0.262 0.08446 0.10617 0.0
H1398 H 0.23714 0.116 0.09462 0.0
H1399 H 0.27152 0.11187 0.10194 0.0
H1400 H 0.19195 0.20145 0.07573 0.0
H1401 H 0.27309 0.19125 0.09742 0.0
H1402 H 0.17295 0.16049 0.14193 0.0
H1403 H 0.18896 0.14261 0.1111 0.0
H1404 H 0.16587 0.17538 0.10273 0.0
H1405 H 0.27286 0.14765 0.16618 0.0
H1406 H 0.29695 0.15682 0.13345 0.0
H1407 H 0.28952 0.12846 0.1367 0.0
C1408 C 0.8354 0.74915 0.97148 0.0
C1409 C 0.81213 0.74644 0.96364 0.0
C1410 C 0.85923 0.75001 0.94885 0.0
C1411 C 0.85895 0.74925 0.91762 0.0
C1412 C 0.83551 0.74635 0.90977 0.0
C1413 C 0.81262 0.74451 0.93302 0.0
C1414 C 0.88435 0.75224 0.95816 0.0
C1415 C 0.83394 0.74635 0.87654 0.0
C1416 C 0.90156 0.7797 0.85042 0.0
C1417 C 0.9224 0.75828 0.8394 0.0
C1418 C 0.88114 0.77707 0.87662 0.0
C1419 C 0.88251 0.75241 0.89264 0.0
C1420 C 0.90468 0.73076 0.88253 0.0
C1421 C 0.92406 0.73397 0.85553 0.0
C1422 C 0.85718 0.80058 0.88599 0.0
C1423 C 0.90733 0.70423 0.89961 0.0
H1424 H 0.83485 0.75077 0.99518 0.0
H1425 H 0.79431 0.74299 0.9268 0.0
H1426 H 0.90461 0.73763 0.94962 0.0
H1427 H 0.88588 0.77107 0.94725 0.0
H1428 H 0.88244 0.75002 0.98382 0.0
H1429 H 0.81402 0.74414 0.8744 0.0
H1430 H 0.83484 0.76442 0.8615 0.0
H1431 H 0.85256 0.7307 0.86741 0.0
H1432 H 0.90041 0.79847 0.83765 0.0
H1433 H 0.94053 0.71748 0.84699 0.0
H1434 H 0.85571 0.80064 0.91102 0.0
H1435 H 0.83644 0.80063 0.88271 0.0
H1436 H 0.8601 0.81833 0.87209 0.0
H1437 H 0.90572 0.70298 0.92503 0.0
H1438 H 0.92789 0.68976 0.89134 0.0
H1439 H 0.8895 0.69954 0.89609 0.0
C1440 C 0.25566 0.59062 0.68382 0.0
C1441 C 0.23485 0.57962 0.6879 0.0
C1442 C 0.25559 0.61246 0.66091 0.0
C1443 C 0.23394 0.62427 0.64147 0.0
C1444 C 0.21289 0.61324 0.64543 0.0
C1445 C 0.21371 0.59115 0.66822 0.0
C1446 C 0.27878 0.623 0.65761 0.0
C1447 C 0.18906 0.62507 0.6259 0.0
C1448 C 0.21877 0.69486 0.60384 0.0
C1449 C 0.23256 0.69372 0.57286 0.0
C1450 C 0.2186 0.67269 0.62597 0.0
C1451 C 0.23308 0.64829 0.61754 0.0
C1452 C 0.24705 0.64701 0.5863 0.0
C1453 C 0.24638 0.66955 0.56444 0.0
C1454 C 0.2028 0.67545 0.65853 0.0
C1455 C 0.2631 0.62168 0.57598 0.0
H1456 H 0.27219 0.58212 0.6986 0.0
H1457 H 0.19732 0.58319 0.671 0.0
H1458 H 0.29006 0.6242 0.63325 0.0
H1459 H 0.26911 0.64255 0.66279 0.0
H1460 H 0.29477 0.61122 0.67346 0.0
H1461 H 0.17455 0.61416 0.6313 0.0
H1462 H 0.17623 0.64474 0.62991 0.0
H1463 H 0.19811 0.62629 0.60079 0.0
H1464 H 0.20772 0.71325 0.61084 0.0
H1465 H 0.25718 0.66817 0.54076 0.0
H1466 H 0.21811 0.66608 0.67553 0.0
H1467 H 0.18697 0.66584 0.66466 0.0
H1468 H 0.19138 0.69564 0.66115 0.0
H1469 H 0.27293 0.62368 0.55107 0.0
H1470 H 0.24841 0.6112 0.57956 0.0
H1471 H 0.28027 0.60995 0.59039 0.0
C1472 C 0.28132 0.03155 0.46825 0.0
C1473 C 0.2906 0.02084 0.44117 0.0
C1474 C 0.30099 0.02929 0.48679 0.0
C1475 C 0.33052 0.01622 0.47777 0.0
C1476 C 0.33973 1.00383 0.45176 0.0
C1477 C 0.31963 1.00628 0.43378 0.0
C1478 C 0.29037 0.04227 0.51476 0.0
C1479 C 0.37108 0.98962 0.44143 0.0
C1480 C 0.38729 0.03712 0.4899 0.0
C1481 C 0.40104 0.01682 0.51207 0.0
C1482 C 0.36306 0.03795 0.47996 0.0
C1483 C 0.35224 0.01807 0.4927 0.0
C1484 C 0.36463 0.99859 0.51685 0.0
C1485 C 0.38899 0.99814 0.52621 0.0
C1486 C 0.35033 0.05914 0.45419 0.0
C1487 C 0.35339 0.97731 0.53136 0.0
H1488 H 0.25881 0.04252 0.47426 0.0
H1489 H 0.32699 0.99818 0.41273 0.0
H1490 H 0.29572 0.05969 0.50919 0.0
H1491 H 0.2668 0.04778 0.52169 0.0
H1492 H 0.30102 0.02977 0.5349 0.0
H1493 H 0.37438 0.97911 0.42255 0.0
H1494 H 0.38247 1.00324 0.43277 0.0
H1495 H 0.38108 0.97592 0.46133 0.0
H1496 H 0.3963 0.05174 0.47905 0.0
H1497 H 0.39927 0.98253 0.54369 0.0
H1498 H 0.32678 0.0678 0.46063 0.0
H1499 H 0.35441 0.05134 0.4327 0.0
H1500 H 0.35955 0.07428 0.44883 0.0
H1501 H 0.32964 0.98478 0.53625 0.0
H1502 H 0.36188 0.96643 0.55336 0.0
H1503 H 0.35989 0.96401 0.51484 0.0
C1504 C 0.81634 0.87111 0.06402 0.0
C1505 C 0.80737 0.85504 0.08974 0.0
C1506 C 0.83386 0.88355 0.06668 0.0
C1507 C 0.8425 0.87988 0.09577 0.0
C1508 C 0.8327 0.86442 0.12206 0.0
C1509 C 0.81534 0.85211 0.1187 0.0
C1510 C 0.84389 0.89995 0.03813 0.0
C1511 C 0.84139 0.86016 0.15348 0.0
C1512 C 0.91276 0.88733 0.09365 0.0
C1513 C 0.90345 0.91183 0.10027 0.0
C1514 C 0.89308 0.87662 0.0925 0.0
C1515 C 0.86338 0.89077 0.09817 0.0
C1516 C 0.8538 0.91531 0.10554 0.0
C1517 C 0.874 0.92558 0.10649 0.0
C1518 C 0.9041 0.85037 0.0846 0.0
C1519 C 0.82229 0.93091 0.1117 0.0
H1520 H 0.80987 0.87377 0.0417 0.0
H1521 H 0.80879 0.83948 0.13859 0.0
H1522 H 0.83892 0.91909 0.04302 0.0
H1523 H 0.86749 0.89144 0.03187 0.0
H1524 H 0.83385 0.90209 0.01773 0.0
H1525 H 0.83011 0.84925 0.17209 0.0
H1526 H 0.8648 0.84957 0.15226 0.0
H1527 H 0.83682 0.87862 0.16012 0.0
H1528 H 0.93552 0.8766 0.0891 0.0
H1529 H 0.86676 0.94468 0.11114 0.0
H1530 H 0.89678 0.85128 0.06282 0.0
H1531 H 0.8953 0.8377 0.10335 0.0
H1532 H 0.92787 0.84173 0.0814 0.0
H1533 H 0.81251 0.93515 0.09045 0.0
H1534 H 0.81839 0.94914 0.11859 0.0
H1535 H 0.81114 0.92002 0.13044 0.0
C1536 C 0.6575 0.16415 0.42395 0.0
C1537 C 0.64503 0.18574 0.43801 0.0
C1538 C 0.64107 0.15066 0.42142 0.0
C1539 C 0.61145 0.15901 0.43321 0.0
C1540 C 0.59868 0.18086 0.44733 0.0
C1541 C 0.61566 0.19396 0.44961 0.0
C1542 C 0.65549 0.12731 0.40646 0.0
C1543 C 0.56715 0.19025 0.46022 0.0
C1544 C 0.56503 0.13543 0.40344 0.0
C1545 C 0.56301 0.11519 0.42743 0.0
C1546 C 0.58049 0.15009 0.40515 0.0
C1547 C 0.59406 0.14439 0.43153 0.0
C1548 C 0.59168 0.12423 0.45604 0.0
C1549 C 0.57624 0.10985 0.45365 0.0
C1550 C 0.58262 0.17145 0.37858 0.0
C1551 C 0.60576 0.11761 0.48461 0.0
H1552 H 0.68029 0.15752 0.41535 0.0
H1553 H 0.6059 0.21079 0.46023 0.0
H1554 H 0.6535 0.11042 0.42358 0.0
H1555 H 0.64475 0.12937 0.38669 0.0
H1556 H 0.67858 0.12375 0.39772 0.0
H1557 H 0.56041 0.20782 0.46995 0.0
H1558 H 0.55427 0.19411 0.44165 0.0
H1559 H 0.56208 0.17537 0.4789 0.0
H1560 H 0.55494 0.13952 0.3831 0.0
H1561 H 0.5743 0.09449 0.47253 0.0
H1562 H 0.60536 0.16768 0.36795 0.0
H1563 H 0.57473 0.18955 0.3874 0.0
H1564 H 0.57013 0.1739 0.36016 0.0
H1565 H 0.62938 0.10984 0.47805 0.0
H1566 H 0.59917 0.10332 0.50296 0.0
H1567 H 0.60036 0.13481 0.49456 0.0
C1568 C 0.8092 0.43731 0.28232 0.0
C1569 C 0.81014 0.46054 0.26467 0.0
C1570 C 0.83321 0.41502 0.28101 0.0
C1571 C 0.8587 0.41601 0.26114 0.0
C1572 C 0.8603 0.43975 0.24465 0.0
C1573 C 0.83581 0.46193 0.24667 0.0
C1574 C 0.83062 0.39022 0.29939 0.0
C1575 C 0.88721 0.44149 0.22344 0.0
C1576 C 0.92264 0.35528 0.27397 0.0
C1577 C 0.92161 0.34205 0.25234 0.0
C1578 C 0.90334 0.38004 0.27593 0.0
C1579 C 0.88246 0.39185 0.25582 0.0
C1580 C 0.88218 0.37911 0.23293 0.0
C1581 C 0.90178 0.35434 0.23146 0.0
C1582 C 0.90439 0.393 0.30058 0.0
C1583 C 0.86025 0.39117 0.21098 0.0
H1584 H 0.78915 0.43642 0.29616 0.0
H1585 H 0.83626 0.47999 0.23284 0.0
H1586 H 0.8316 0.37828 0.28314 0.0
H1587 H 0.84871 0.3795 0.31279 0.0
H1588 H 0.81021 0.39312 0.31589 0.0
H1589 H 0.88631 0.46143 0.21578 0.0
H1590 H 0.90626 0.43023 0.23527 0.0
H1591 H 0.89019 0.4334 0.20247 0.0
H1592 H 0.93812 0.34611 0.28999 0.0
H1593 H 0.901 0.34438 0.21449 0.0
H1594 H 0.88572 0.39382 0.31924 0.0
H1595 H 0.90301 0.41283 0.29057 0.0
H1596 H 0.92426 0.38282 0.31132 0.0
H1597 H 0.83863 0.39303 0.22435 0.0
H1598 H 0.86463 0.37984 0.19265 0.0
H1599 H 0.85977 0.41054 0.19957 0.0
C1600 C 0.03704 0.64527 0.43737 0.0
C1601 C 0.03604 0.64466 0.40656 0.0
C1602 C 0.05568 0.65489 0.44392 0.0
C1603 C 0.07411 0.66367 0.41911 0.0
C1604 C 0.073 0.66339 0.38799 0.0
C1605 C 0.05378 0.6541 0.38207 0.0
C1606 C 0.05601 0.65519 0.47739 0.0
C1607 C 0.09254 0.67242 0.36095 0.0
C1608 C 0.10804 0.7082 0.42736 0.0
C1609 C 0.1359 0.69147 0.43143 0.0
C1610 C 0.08731 0.69925 0.42464 0.0
C1611 C 0.09484 0.673 0.4255 0.0
C1612 C 0.12274 0.65591 0.43049 0.0
C1613 C 0.14294 0.66537 0.43364 0.0
C1614 C 0.05758 0.71794 0.42007 0.0
C1615 C 0.13157 0.6278 0.4313 0.0
H1616 H 0.02387 0.63751 0.45653 0.0
H1617 H 0.0529 0.65395 0.35823 0.0
H1618 H 0.07722 0.64252 0.48412 0.0
H1619 H 0.05266 0.67461 0.48007 0.0
H1620 H 0.03927 0.64889 0.49379 0.0
H1621 H 0.08913 0.67075 0.33816 0.0
H1622 H 0.08898 0.69255 0.36045 0.0
H1623 H 0.11524 0.66114 0.36384 0.0
H1624 H 0.10254 0.72837 0.42613 0.0
H1625 H 0.16455 0.65249 0.43671 0.0
H1626 H 0.04128 0.71164 0.43729 0.0
H1627 H 0.05353 0.71877 0.39654 0.0
H1628 H 0.05456 0.73738 0.42245 0.0
H1629 H 0.11663 0.62009 0.44899 0.0
H1630 H 0.15368 0.61696 0.4367 0.0
H1631 H 0.13043 0.62458 0.40837 0.0
C1632 C 0.63934 0.08082 0.73928 0.0
C1633 C 0.648 0.0649 0.76713 0.0
C1634 C 0.61681 0.10437 0.7396 0.0
C1635 C 0.60253 0.11206 0.76846 0.0
C1636 C 0.61006 0.09545 0.79667 0.0
C1637 C 0.63276 0.07207 0.79567 0.0
C1638 C 0.60938 0.12157 0.70901 0.0
C1639 C 0.59514 0.10292 0.8279 0.0
C1640 C 0.57007 0.18279 0.76954 0.0
C1641 C 0.54096 0.188 0.76986 0.0
C1642 C 0.5903 0.15813 0.76912 0.0
C1643 C 0.58117 0.13818 0.76914 0.0
C1644 C 0.55183 0.14324 0.7697 0.0
C1645 C 0.53207 0.16809 0.77003 0.0
C1646 C 0.62149 0.15346 0.76834 0.0
C1647 C 0.54134 0.12245 0.76968 0.0
H1648 H 0.65103 0.07547 0.71711 0.0
H1649 H 0.63924 0.05984 0.8173 0.0
H1650 H 0.58596 0.12867 0.70889 0.0
H1651 H 0.61549 0.13835 0.70601 0.0
H1652 H 0.62059 0.11184 0.68877 0.0
H1653 H 0.60177 0.08699 0.84759 0.0
H1654 H 0.60017 0.11897 0.83083 0.0
H1655 H 0.57157 0.10949 0.82918 0.0
H1656 H 0.57718 0.19803 0.76926 0.0
H1657 H 0.50963 0.17191 0.7702 0.0
H1658 H 0.63442 0.14588 0.74706 0.0
H1659 H 0.62962 0.13898 0.78869 0.0
H1660 H 0.62504 0.17099 0.76861 0.0
H1661 H 0.55194 0.11386 0.74851 0.0
H1662 H 0.51777 0.12951 0.77033 0.0
H1663 H 0.54714 0.10712 0.79012 0.0
C1664 C 0.75505 0.58957 0.19054 0.0
C1665 C 0.7331 0.57985 0.19534 0.0
C1666 C 0.75559 0.61123 0.16746 0.0
C1667 C 0.73295 0.62451 0.14936 0.0
C1668 C 0.71038 0.61499 0.15474 0.0
C1669 C 0.71105 0.59266 0.17701 0.0
C1670 C 0.78067 0.61975 0.16224 0.0
C1671 C 0.68506 0.62875 0.13741 0.0
C1672 C 0.72266 0.69445 0.11129 0.0
C1673 C 0.73301 0.69313 0.07959 0.0
C1674 C 0.72181 0.67263 0.13385 0.0
C1675 C 0.7328 0.6483 0.12514 0.0
C1676 C 0.74373 0.64687 0.09315 0.0
C1677 C 0.74309 0.6692 0.07084 0.0
C1678 C 0.70868 0.67574 0.16707 0.0
C1679 C 0.75659 0.62158 0.08247 0.0
H1680 H 0.77219 0.5799 0.2045 0.0
H1681 H 0.69376 0.58558 0.18076 0.0
H1682 H 0.79033 0.62115 0.13728 0.0
H1683 H 0.77328 0.63893 0.16812 0.0
H1684 H 0.79748 0.60658 0.17654 0.0
H1685 H 0.6685 0.61987 0.14534 0.0
H1686 H 0.67513 0.64883 0.14072 0.0
H1687 H 0.69224 0.62889 0.11207 0.0
H1688 H 0.71443 0.71281 0.11838 0.0
H1689 H 0.7512 0.66784 0.04652 0.0
H1690 H 0.72522 0.66549 0.18257 0.0
H1691 H 0.69179 0.66726 0.17511 0.0
H1692 H 0.69909 0.69599 0.16977 0.0
H1693 H 0.77391 0.60839 0.09607 0.0
H1694 H 0.76557 0.62332 0.05729 0.0
H1695 H 0.7401 0.61289 0.08679 0.0
C1696 C 0.88761 0.53818 0.47369 0.0
C1697 C 0.90596 0.52209 0.49497 0.0
C1698 C 0.86461 0.53274 0.46992 0.0
C1699 C 0.85993 0.51055 0.4879 0.0
C1700 C 0.87691 0.49536 0.51136 0.0
C1701 C 0.89988 0.50134 0.51466 0.0
C1702 C 0.84674 0.54978 0.44491 0.0
C1703 C 0.87203 0.47199 0.53147 0.0
C1704 C 0.79073 0.51474 0.47007 0.0
C1705 C 0.80074 0.505 0.44226 0.0
C1706 C 0.80998 0.51338 0.48855 0.0
C1707 C 0.83973 0.50216 0.47871 0.0
C1708 C 0.84955 0.48879 0.45351 0.0
C1709 C 0.82985 0.49045 0.43545 0.0
C1710 C 0.79856 0.52694 0.51602 0.0
C1711 C 0.88112 0.47596 0.44267 0.0
H1712 H 0.89213 0.55439 0.45877 0.0
H1713 H 0.91415 0.48882 0.53115 0.0
H1714 H 0.8502 0.5392 0.42608 0.0
H1715 H 0.82364 0.55584 0.45467 0.0
H1716 H 0.85216 0.56704 0.4344 0.0
H1717 H 0.88465 0.46409 0.55108 0.0
H1718 H 0.84899 0.47635 0.54103 0.0
H1719 H 0.87829 0.45715 0.51715 0.0
H1720 H 0.76807 0.52529 0.47601 0.0
H1721 H 0.83776 0.48261 0.41419 0.0
H1722 H 0.79788 0.54679 0.50816 0.0
H1723 H 0.81246 0.51771 0.53441 0.0
H1724 H 0.77645 0.52758 0.52619 0.0
H1725 H 0.89032 0.4906 0.42965 0.0
H1726 H 0.88496 0.46254 0.42703 0.0
H1727 H 0.89279 0.46544 0.46273 0.0
C1728 C 0.10056 0.54835 0.60129 0.0
C1729 C 0.13004 0.54181 0.6001 0.0
C1730 C 0.08944 0.5498 0.57498 0.0
C1731 C 0.10837 0.54458 0.54693 0.0
C1732 C 0.13752 0.54113 0.54458 0.0
C1733 C 0.14813 0.53963 0.57137 0.0
C1734 C 0.05792 0.55451 0.57807 0.0
C1735 C 0.15797 0.53675 0.51461 0.0
C1736 C 0.08402 0.50732 0.5095 0.0
C1737 C 0.06633 0.52682 0.48971 0.0
C1738 C 0.10012 0.51258 0.52627 0.0
C1739 C 0.0986 0.53791 0.52286 0.0
C1740 C 0.08366 0.55703 0.50001 0.0
C1741 C 0.06766 0.55124 0.48362 0.0
C1742 C 0.11622 0.49149 0.55009 0.0
C1743 C 0.0821 0.58412 0.49484 0.0
H1744 H 0.08648 0.55073 0.62335 0.0
H1745 H 0.17093 0.53479 0.57028 0.0
H1746 H 0.04833 0.56973 0.559 0.0
H1747 H 0.05516 0.53703 0.57612 0.0
H1748 H 0.04585 0.56006 0.60072 0.0
H1749 H 0.17791 0.53988 0.5146 0.0
H1750 H 0.1639 0.51689 0.51163 0.0
H1751 H 0.14777 0.54948 0.49428 0.0
H1752 H 0.08351 0.48833 0.51391 0.0
H1753 H 0.05445 0.56641 0.46788 0.0
H1754 H 0.10508 0.49476 0.57388 0.0
H1755 H 0.13821 0.49129 0.54802 0.0
H1756 H 0.11771 0.47252 0.54756 0.0
H1757 H 0.06311 0.59483 0.51012 0.0
H1758 H 0.07955 0.59363 0.47034 0.0
H1759 H 0.10142 0.58529 0.50034 0.0
C1760 C 0.53151 0.76265 0.15302 0.0
C1761 C 0.52226 0.78075 0.17239 0.0
C1762 C 0.55275 0.76311 0.12699 0.0
C1763 C 0.56475 0.78223 0.12019 0.0
C1764 C 0.55347 0.80192 0.1379 0.0
C1765 C 0.53244 0.80087 0.16394 0.0
C1766 C 0.56419 0.74177 0.10867 0.0
C1767 C 0.56543 0.82286 0.1311 0.0
C1768 C 0.64431 0.76381 0.09359 0.0
C1769 C 0.64577 0.77504 0.06201 0.0
C1770 C 0.61807 0.76538 0.11234 0.0
C1771 C 0.59249 0.77884 0.09929 0.0
C1772 C 0.59374 0.78971 0.06718 0.0
C1773 C 0.62055 0.7875 0.04873 0.0
C1774 C 0.61779 0.75304 0.14635 0.0
C1775 C 0.56683 0.80422 0.05262 0.0
H1776 H 0.52352 0.74717 0.15922 0.0
H1777 H 0.52494 0.81522 0.17847 0.0
H1778 H 0.56833 0.74901 0.08333 0.0
H1779 H 0.58486 0.72801 0.11584 0.0
H1780 H 0.54918 0.73149 0.11277 0.0
H1781 H 0.55126 0.83885 0.14334 0.0
H1782 H 0.58669 0.81516 0.13889 0.0
H1783 H 0.5685 0.83027 0.10571 0.0
H1784 H 0.66384 0.75365 0.10379 0.0
H1785 H 0.62173 0.79608 0.02425 0.0
H1786 H 0.60578 0.73993 0.15229 0.0
H1787 H 0.60672 0.76779 0.1612 0.0
H1788 H 0.63971 0.74214 0.15232 0.0
H1789 H 0.55277 0.79291 0.05842 0.0
H1790 H 0.57155 0.80935 0.02687 0.0
H1791 H 0.55466 0.82193 0.06225 0.0
C1792 C 0.68106 0.51129 0.0561 0.0
C1793 C 0.66716 0.52079 0.08372 0.0
C1794 C 0.66523 0.51231 0.03395 0.0
C1795 C 0.63499 0.52251 0.04012 0.0
C1796 C 0.62125 0.53538 0.06565 0.0
C1797 C 0.63758 0.53438 0.08719 0.0
C1798 C 0.68068 0.49993 1.00588 0.0
C1799 C 0.589 0.54722 0.07261 0.0
C1800 C 0.57966 0.52483 0.99593 0.0
C1801 C 0.57284 0.50386 0.01363 0.0
C1802 C 0.60224 0.53001 1.00184 0.0
C1803 C 0.61783 0.51392 0.02609 0.0
C1804 C 0.61304 0.49117 0.04132 0.0
C1805 C 0.59061 0.48642 0.03478 0.0
C1806 C 0.60736 0.55391 0.98418 0.0
C1807 C 0.62943 0.47315 0.06703 0.0
H1808 H 0.70409 0.50144 0.0529 0.0
H1809 H 0.62673 0.54198 0.10833 0.0
H1810 H 0.68152 0.48003 0.01113 0.0
H1811 H 0.66932 0.50997 0.98547 0.0
H1812 H 0.70303 0.49959 0.99967 0.0
H1813 H 0.58196 0.55913 0.09089 0.0
H1814 H 0.58004 0.55916 0.05129 0.0
H1815 H 0.57979 0.53201 0.08082 0.0
H1816 H 0.56596 0.53834 0.97945 0.0
H1817 H 0.58556 0.46998 0.04805 0.0
H1818 H 0.6297 0.55242 0.98332 0.0
H1819 H 0.5927 0.57004 0.99586 0.0
H1820 H 0.6027 0.55835 0.96 0.0
H1821 H 0.65282 0.46782 0.05914 0.0
H1822 H 0.62443 0.45549 0.07484 0.0
H1823 H 0.62399 0.48263 0.0874 0.0
C1824 C 0.42925 0.38991 0.07521 0.0
C1825 C 0.44068 0.38342 0.10289 0.0
C1826 C 0.41285 0.37722 0.07069 0.0
C1827 C 0.40755 0.35784 0.09468 0.0
C1828 C 0.42071 0.35006 0.12179 0.0
C1829 C 0.43733 0.36296 0.12554 0.0
C1830 C 0.39956 0.38593 0.04124 0.0
C1831 C 0.41564 0.32933 0.14773 0.0
C1832 C 0.33563 0.35174 0.10312 0.0
C1833 C 0.34298 0.33043 0.08955 0.0
C1834 C 0.35656 0.36075 0.10499 0.0
C1835 C 0.38552 0.34804 0.0931 0.0
C1836 C 0.39311 0.32654 0.07928 0.0
C1837 C 0.37167 0.31799 0.07761 0.0
C1838 C 0.34763 0.38399 0.11949 0.0
C1839 C 0.42378 0.31272 0.06618 0.0
H1840 H 0.43226 0.40562 0.05756 0.0
H1841 H 0.44629 0.35805 0.14688 0.0
H1842 H 0.39967 0.36964 0.03268 0.0
H1843 H 0.37692 0.39863 0.0462 0.0
H1844 H 0.41092 0.3966 0.02239 0.0
H1845 H 0.43014 0.32344 0.16532 0.0
H1846 H 0.39317 0.33621 0.15961 0.0
H1847 H 0.41872 0.31247 0.13824 0.0
H1848 H 0.31339 0.36156 0.11197 0.0
H1849 H 0.37739 0.30136 0.06735 0.0
H1850 H 0.35327 0.39926 0.10214 0.0
H1851 H 0.35934 0.37946 0.13932 0.0
H1852 H 0.32426 0.39139 0.12807 0.0
H1853 H 0.42614 0.29611 0.05653 0.0
H1854 H 0.43753 0.30606 0.08462 0.0
H1855 H 0.43189 0.32585 0.04742 0.0
C1856 C 0.06511 0.18332 0.25323 0.0
C1857 C 0.03595 0.18977 0.25231 0.0
C1858 C 0.08452 0.15837 0.25261 0.0
C1859 C 0.07458 0.13929 0.25117 0.0
C1860 C 0.04532 0.14573 0.24953 0.0
C1861 C 0.02636 0.17089 0.2501 0.0
C1862 C 0.11564 0.15233 0.25413 0.0
C1863 C 0.03397 0.12595 0.24783 0.0
C1864 C 0.13502 0.07955 0.22978 0.0
C1865 C 0.14127 0.0659 0.25938 0.0
C1866 C 0.11193 0.10285 0.22653 0.0
C1867 C 0.09468 0.1124 0.25354 0.0
C1868 C 0.09929 0.09738 0.28335 0.0
C1869 C 0.12266 0.07439 0.2859 0.0
C1870 C 0.10772 0.11824 0.19432 0.0
C1871 C 0.08118 0.10661 0.31275 0.0
H1872 H 0.07285 0.19775 0.25462 0.0
H1873 H 0.00392 0.17566 0.24916 0.0
H1874 H 0.12167 0.1387 0.27585 0.0
H1875 H 0.12954 0.14317 0.23425 0.0
H1876 H 0.12018 0.16953 0.25369 0.0
H1877 H 0.01113 0.13435 0.2444 0.0
H1878 H 0.04681 0.1157 0.22842 0.0
H1879 H 0.03598 0.11168 0.26968 0.0
H1880 H 0.14959 0.07319 0.20924 0.0
H1881 H 0.12747 0.0638 0.30881 0.0
H1882 H 0.11633 0.13367 0.19011 0.0
H1883 H 0.08464 0.12725 0.1921 0.0
H1884 H 0.11901 0.10643 0.17596 0.0
H1885 H 0.08632 0.12238 0.31639 0.0
H1886 H 0.08499 0.09133 0.33362 0.0
H1887 H 0.05808 0.11409 0.31071 0.0
C1888 C 0.21729 0.36162 0.96183 0.0
C1889 C 0.23193 0.3374 0.95373 0.0
C1890 C 0.21611 0.38415 0.93971 0.0
C1891 C 0.23056 0.38278 0.90863 0.0
C1892 C 0.24604 0.35832 0.90063 0.0
C1893 C 0.24618 0.33617 0.92293 0.0
C1894 C 0.19883 0.40953 0.9495 0.0
C1895 C 0.26255 0.35546 0.86835 0.0
C1896 C 0.20753 0.43906 0.84092 0.0
C1897 C 0.2271 0.45128 0.83737 0.0
C1898 C 0.20803 0.41734 0.86422 0.0
C1899 C 0.2291 0.40676 0.88437 0.0
C1900 C 0.24903 0.41893 0.88077 0.0
C1901 C 0.24758 0.44103 0.85779 0.0
C1902 C 0.18588 0.40568 0.86724 0.0
C1903 C 0.2724 0.40826 0.90083 0.0
H1904 H 0.20605 0.36302 0.98537 0.0
H1905 H 0.25784 0.31771 0.91624 0.0
H1906 H 0.21273 0.42075 0.946 0.0
H1907 H 0.18179 0.42051 0.93471 0.0
H1908 H 0.18868 0.40759 0.97431 0.0
H1909 H 0.27514 0.33528 0.8663 0.0
H1910 H 0.24754 0.36372 0.85104 0.0
H1911 H 0.27741 0.36606 0.86217 0.0
H1912 H 0.1915 0.44665 0.82557 0.0
H1913 H 0.26305 0.44995 0.85532 0.0
H1914 H 0.17432 0.40437 0.89147 0.0
H1915 H 0.19653 0.38608 0.86229 0.0
H1916 H 0.17 0.41678 0.85107 0.0
H1917 H 0.26291 0.40732 0.92581 0.0
H1918 H 0.28625 0.41979 0.89538 0.0
H1919 H 0.286 0.38857 0.89743 0.0
C1920 C 0.32712 0.22845 0.95188 0.0
C1921 C 0.31756 0.24619 0.97175 0.0
C1922 C 0.35146 0.22672 0.92921 0.0
C1923 C 0.36623 0.24332 0.92631 0.0
C1924 C 0.35808 0.25973 0.94797 0.0
C1925 C 0.33392 0.26084 0.9706 0.0
C1926 C 0.35997 0.2086 0.90685 0.0
C1927 C 0.37319 0.27782 0.94555 0.0
C1928 C 0.43579 0.2366 0.8705 0.0
C1929 C 0.42564 0.25355 0.84387 0.0
C1930 C 0.41669 0.23267 0.89757 0.0
C1931 C 0.38698 0.24647 0.89797 0.0
C1932 C 0.37675 0.26392 0.87125 0.0
C1933 C 0.39622 0.26705 0.84442 0.0
C1934 C 0.42818 0.21369 0.92556 0.0
C1935 C 0.34522 0.27941 0.87102 0.0
H1936 H 0.31482 0.2168 0.95292 0.0
H1937 H 0.32693 0.27439 0.98614 0.0
H1938 H 0.35345 0.21942 0.88396 0.0
H1939 H 0.38355 0.19871 0.90301 0.0
H1940 H 0.34963 0.19417 0.91538 0.0
H1941 H 0.367 0.28654 0.9667 0.0
H1942 H 0.39677 0.26799 0.94182 0.0
H1943 H 0.3676 0.29326 0.92516 0.0
H1944 H 0.45858 0.22602 0.86996 0.0
H1945 H 0.38839 0.28035 0.8239 0.0
H1946 H 0.41852 0.19881 0.93174 0.0
H1947 H 0.4221 0.22319 0.94599 0.0
H1948 H 0.45187 0.20439 0.92136 0.0
H1949 H 0.33298 0.26662 0.87557 0.0
H1950 H 0.34093 0.29247 0.84846 0.0
H1951 H 0.33692 0.29086 0.88985 0.0
C1952 C 0.40035 0.4874 0.03286 0.0
C1953 C 0.40591 0.51011 0.02307 0.0
C1954 C 0.38063 0.48337 0.01983 0.0
C1955 C 0.36642 0.50247 0.99646 0.0
C1956 C 0.36941 0.52648 0.98935 0.0
C1957 C 0.38904 0.53007 1.00293 0.0
C1958 C 0.37731 0.45781 0.02889 0.0
C1959 C 0.35431 0.54753 0.96481 0.0
C1960 C 0.35607 0.48928 0.92335 0.0
C1961 C 0.32615 0.49898 0.92616 0.0
C1962 C 0.36967 0.48785 0.94766 0.0
C1963 C 0.35281 0.49636 0.97537 0.0
C1964 C 0.32272 0.50332 0.97969 0.0
C1965 C 0.30964 0.50468 0.95484 0.0
C1966 C 0.40196 0.47959 0.94243 0.0
C1967 C 0.30416 0.51154 1.00936 0.0
H1968 H 0.41289 0.47199 0.04896 0.0
H1969 H 0.39282 0.54782 0.99569 0.0
H1970 H 0.35526 0.45951 0.02795 0.0
H1971 H 0.39229 0.44538 0.01234 0.0
H1972 H 0.38253 0.44837 0.05268 0.0
H1973 H 0.35658 0.56578 0.96442 0.0
H1974 H 0.36346 0.54213 0.9415 0.0
H1975 H 0.33118 0.55054 0.96886 0.0
H1976 H 0.3688 0.48428 0.90137 0.0
H1977 H 0.28646 0.51203 0.95714 0.0
H1978 H 0.41099 0.46541 0.96255 0.0
H1979 H 0.40816 0.49622 0.94018 0.0
H1980 H 0.41188 0.47119 0.92102 0.0
H1981 H 0.31454 0.49993 0.03003 0.0
H1982 H 0.2828 0.51009 0.01217 0.0
H1983 H 0.3009 0.53163 1.00875 0.0
C1984 C 0.59853 0.707 0.94446 0.0
C1985 C 0.62707 0.69888 0.92973 0.0
C1986 C 0.57979 0.69548 0.94261 0.0
C1987 C 0.58992 0.67539 0.92566 0.0
C1988 C 0.61848 0.66755 0.91011 0.0
C1989 C 0.63673 0.67938 0.91236 0.0
C1990 C 0.54946 0.70426 0.95955 0.0
C1991 C 0.63008 0.64608 0.89195 0.0
C1992 C 0.55652 0.62502 0.94813 0.0
C1993 C 0.54007 0.63165 0.92433 0.0
C1994 C 0.57216 0.63957 0.94933 0.0
C1995 C 0.57142 0.66123 0.92602 0.0
C1996 C 0.55419 0.66846 0.90239 0.0
C1997 C 0.53854 0.65359 0.90191 0.0
C1998 C 0.59009 0.63131 0.97506 0.0
C1999 C 0.55293 0.69146 0.8772 0.0
H2000 H 0.5909 0.72229 0.95759 0.0
H2001 H 0.65887 0.6728 0.90128 0.0
H2002 H 0.53403 0.70889 0.94339 0.0
H2003 H 0.54622 0.68873 0.97845 0.0
H2004 H 0.54439 0.7212 0.96996 0.0
H2005 H 0.65218 0.64344 0.8795 0.0
H2006 H 0.63029 0.6281 0.90803 0.0
H2007 H 0.61602 0.64968 0.87465 0.0
H2008 H 0.55717 0.60834 0.96587 0.0
H2009 H 0.52575 0.6587 0.88356 0.0
H2010 H 0.5862 0.64757 0.98618 0.0
H2011 H 0.61314 0.62428 0.96509 0.0
H2012 H 0.58557 0.61595 0.99337 0.0
H2013 H 0.5471 0.70846 0.88775 0.0
H2014 H 0.5372 0.69537 0.86163 0.0
H2015 H 0.57437 0.68851 0.86288 0.0
C2016 C 0.93236 0.85974 0.75439 0.0
C2017 C 0.92204 0.84156 0.75136 0.0
C2018 C 0.91377 0.88449 0.75776 0.0
C2019 C 0.88414 0.8913 0.758 0.0
C2020 C 0.87353 0.87307 0.75505 0.0
C2021 C 0.89262 0.84842 0.75175 0.0
C2022 C 0.92583 0.90336 0.76093 0.0
C2023 C 0.84199 0.87965 0.75525 0.0
C2024 C 0.82632 0.9481 0.78953 0.0
C2025 C 0.81822 0.96435 0.76175 0.0
C2026 C 0.84919 0.9247 0.78887 0.0
C2027 C 0.8642 0.91778 0.75975 0.0
C2028 C 0.85772 0.93532 0.73185 0.0
C2029 C 0.83461 0.95834 0.73321 0.0
C2030 C 0.85545 0.90652 0.81913 0.0
C2031 C 0.87341 0.92887 0.70036 0.0
H2032 H 0.95504 0.85463 0.75438 0.0
H2033 H 0.88441 0.83449 0.74972 0.0
H2034 H 0.92168 0.91955 0.74112 0.0
H2035 H 0.915 0.91119 0.78258 0.0
H2036 H 0.94927 0.89478 0.7615 0.0
H2037 H 0.8371 0.86312 0.75359 0.0
H2038 H 0.82943 0.88672 0.77695 0.0
H2039 H 0.83464 0.8951 0.73538 0.0
H2040 H 0.81319 0.95257 0.81154 0.0
H2041 H 0.82801 0.97089 0.71175 0.0
H2042 H 0.87887 0.89745 0.81945 0.0
H2043 H 0.8471 0.89118 0.82146 0.0
H2044 H 0.84524 0.91613 0.83962 0.0
H2045 H 0.89691 0.9208 0.70031 0.0
H2046 H 0.86837 0.94572 0.68141 0.0
H2047 H 0.86724 0.91426 0.69516 0.0
C2048 C 0.47952 0.14009 0.64724 0.0
C2049 C 0.45342 0.16068 0.64929 0.0
C2050 C 0.48344 0.12041 0.63201 0.0
C2051 C 0.46084 0.12147 0.61819 0.0
C2052 C 0.4345 0.1422 0.62007 0.0
C2053 C 0.43104 0.16144 0.63575 0.0
C2054 C 0.51181 0.09854 0.6306 0.0
C2055 C 0.40996 0.14409 0.60542 0.0
C2056 C 0.47927 0.08371 0.55362 0.0
C2057 C 0.47167 0.06264 0.56931 0.0
C2058 C 0.47587 0.10297 0.56924 0.0
C2059 C 0.46481 0.10105 0.60142 0.0
C2060 C 0.45723 0.07979 0.61746 0.0
C2061 C 0.46062 0.06089 0.60117 0.0
C2062 C 0.48397 0.12544 0.55125 0.0
C2063 C 0.44566 0.07696 0.65185 0.0
H2064 H 0.49708 0.13947 0.65721 0.0
H2065 H 0.41063 0.17699 0.63767 0.0
H2066 H 0.50841 0.08032 0.64075 0.0
H2067 H 0.52191 0.09769 0.60597 0.0
H2068 H 0.52692 0.10017 0.6433 0.0
H2069 H 0.39096 0.16159 0.60868 0.0
H2070 H 0.41685 0.14399 0.58008 0.0
H2071 H 0.4035 0.12738 0.6157 0.0
H2072 H 0.48778 0.08528 0.52898 0.0
H2073 H 0.45487 0.04462 0.61352 0.0
H2074 H 0.50057 0.12697 0.56174 0.0
H2075 H 0.46503 0.14324 0.55258 0.0
H2076 H 0.49231 0.12404 0.52632 0.0
H2077 H 0.46124 0.07715 0.66509 0.0
H2078 H 0.4412 0.0591 0.66099 0.0
H2079 H 0.42556 0.09324 0.65633 0.0
C2080 C 0.53121 0.36711 0.88462 0.0
C2081 C 0.50947 0.35739 0.88819 0.0
C2082 C 0.52825 0.38543 0.9016 0.0
C2083 C 0.50288 0.39438 0.92278 0.0
C2084 C 0.48079 0.38471 0.92655 0.0
C2085 C 0.48431 0.36638 0.90917 0.0
C2086 C 0.55225 0.39534 0.89669 0.0
C2087 C 0.45343 0.39374 0.94894 0.0
C2088 C 0.50793 0.42572 0.98509 0.0
C2089 C 0.49659 0.45162 0.97225 0.0
C2090 C 0.50944 0.40692 0.96965 0.0
C2091 C 0.49951 0.41412 0.94056 0.0
C2092 C 0.4876 0.44022 0.92774 0.0
C2093 C 0.48624 0.45861 0.94371 0.0
C2094 C 0.52201 0.37931 0.9843 0.0
C2095 C 0.47681 0.44874 0.89677 0.0
H2096 H 0.5505 0.36067 0.86809 0.0
H2097 H 0.4675 0.35884 0.91229 0.0
H2098 H 0.5443 0.41616 0.88826 0.0
H2099 H 0.55991 0.39191 0.91913 0.0
H2100 H 0.5707 0.38626 0.87959 0.0
H2101 H 0.43841 0.3842 0.94944 0.0
H2102 H 0.45839 0.39014 0.97283 0.0
H2103 H 0.44248 0.41455 0.9423 0.0
H2104 H 0.51567 0.42006 1.00728 0.0
H2105 H 0.47719 0.47853 0.93363 0.0
H2106 H 0.54164 0.36952 0.96902 0.0
H2107 H 0.50659 0.36977 0.9867 0.0
H2108 H 0.52759 0.37687 1.00765 0.0
H2109 H 0.49499 0.44253 0.87799 0.0
H2110 H 0.46619 0.46969 0.89111 0.0
H2111 H 0.46138 0.4398 0.89679 0.0
C2112 C 0.53768 0.86253 0.38256 0.0
C2113 C 0.51635 0.85238 0.3859 0.0
C2114 C 0.53463 0.88007 0.40072 0.0
C2115 C 0.50956 0.8878 0.4227 0.0
C2116 C 0.48817 0.87731 0.42663 0.0
C2117 C 0.49183 0.85971 0.40821 0.0
C2118 C 0.55791 0.89084 0.39579 0.0
C2119 C 0.46114 0.88507 0.44985 0.0
C2120 C 0.51119 0.92052 0.48531 0.0
C2121 C 0.49828 0.94623 0.47255 0.0
C2122 C 0.51478 0.90125 0.46951 0.0
C2123 C 0.50515 0.90783 0.44035 0.0
C2124 C 0.49181 0.93371 0.42755 0.0
C2125 C 0.4886 0.95256 0.44374 0.0
C2126 C 0.52912 0.87385 0.48388 0.0
C2127 C 0.48106 0.94153 0.39661 0.0
H2128 H 0.5565 0.85729 0.36508 0.0
H2129 H 0.47543 0.85171 0.41125 0.0
H2130 H 0.54938 0.91157 0.38681 0.0
H2131 H 0.56513 0.88819 0.41826 0.0
H2132 H 0.57676 0.88183 0.37903 0.0
H2133 H 0.46657 0.88203 0.47339 0.0
H2134 H 0.44884 0.90563 0.44332 0.0
H2135 H 0.44717 0.87432 0.45108 0.0
H2136 H 0.51864 0.91541 0.50759 0.0
H2137 H 0.4784 0.97233 0.43373 0.0
H2138 H 0.54895 0.86489 0.46826 0.0
H2139 H 0.51481 0.86315 0.48656 0.0
H2140 H 0.53477 0.87186 0.50706 0.0
H2141 H 0.49914 0.93477 0.37795 0.0
H2142 H 0.47062 0.96245 0.39019 0.0
H2143 H 0.46542 0.9326 0.39738 0.0
C2144 C 0.48796 0.58302 0.05949 0.0
C2145 C 0.47584 0.5643 0.07286 0.0
C2146 C 0.48385 0.60238 0.07534 0.0
C2147 C 0.46701 0.60322 0.10524 0.0
C2148 C 0.45503 0.5842 0.11904 0.0
C2149 C 0.45967 0.56493 0.10275 0.0
C2150 C 0.49726 0.62211 0.0599 0.0
C2151 C 0.43691 0.58446 0.15085 0.0
C2152 C 0.47352 0.642 0.15795 0.0
C2153 C 0.44951 0.66439 0.15359 0.0
C2154 C 0.47963 0.62203 0.1422 0.0
C2155 C 0.46123 0.62439 0.12169 0.0
C2156 C 0.43707 0.64697 0.11704 0.0
C2157 C 0.43156 0.66668 0.13295 0.0
C2158 C 0.50566 0.5983 0.14771 0.0
C2159 C 0.41698 0.65029 0.09528 0.0
H2160 H 0.50071 0.58259 0.03651 0.0
H2161 H 0.45024 0.55056 0.11327 0.0
H2162 H 0.48027 0.64118 0.05623 0.0
H2163 H 0.51091 0.62277 0.07524 0.0
H2164 H 0.51056 0.61828 0.03704 0.0
H2165 H 0.42976 0.56795 0.1587 0.0
H2166 H 0.44914 0.58432 0.16826 0.0
H2167 H 0.4177 0.60216 0.15042 0.0
H2168 H 0.48733 0.63989 0.17412 0.0
H2169 H 0.41325 0.68404 0.12899 0.0
H2170 H 0.5198 0.59458 0.12526 0.0
H2171 H 0.49896 0.58169 0.15776 0.0
H2172 H 0.51823 0.59969 0.16375 0.0
H2173 H 0.42893 0.64851 0.07142 0.0
H2174 H 0.39913 0.66899 0.09424 0.0
H2175 H 0.40776 0.63509 0.10297 0.0
loop_
_geom_bond_atom_site_label_1
_geom_bond_atom_site_label_2
_geom_bond_distance
_geom_bond_site_symmetry_2
_ccdc_geom_bond_type
Eu0 C9 2.828 . S
Eu0 O11 2.392 1_565 S
Eu0 O13 2.418 1_655 S
Eu0 O18 2.373 1_654 S
Eu0 O21 2.488 . S
Eu0 O22 2.471 . S
Eu0 O23 2.349 1_564 S
Eu1 O10 2.373 1_456 S
Eu1 O14 2.488 . S
Eu1 O15 2.471 . S
Eu1 O16 2.349 1_546 S
Eu1 O19 2.392 1_545 S
Eu1 O20 2.418 1_455 S
Eu1 C30 2.828 . S
C2 O20 1.244 . S
C2 O23 1.265 . S
C3 C4 1.379 . S
C3 C7 1.373 . S
C3 C9 1.505 . S
C4 C3 1.379 . S
C4 C6 1.369 . S
C4 H32 0.944 . S
C5 C7 1.383 . S
C5 C8 1.382 . S
C5 H33 0.930 . S
C6 C4 1.369 . S
C6 C8 1.392 . S
C6 H34 0.930 . S
C7 C3 1.373 . S
C7 C5 1.383 . S
C7 H35 0.931 . S
C8 C5 1.382 . S
C8 C6 1.392 . S
C9 Eu0 2.828 . S
C9 C3 1.505 . S
C9 O21 1.249 . S
C9 O22 1.244 . S
O10 Eu1 2.373 1_654 S
O10 C12 1.258 . S
O11 Eu0 2.392 1_545 S
O11 C12 1.242 . S
C12 O10 1.258 . S
C12 O11 1.242 . S
O13 Eu0 2.418 1_455 S
O13 C17 1.244 . S
O14 Eu1 2.488 . S
O14 C30 1.249 . S
O15 Eu1 2.471 . S
O15 C30 1.244 . S
O16 Eu1 2.349 1_564 S
O16 C17 1.265 . S
C17 O13 1.244 . S
C17 O16 1.265 . S
O18 Eu0 2.373 1_456 S
O18 C31 1.258 . S
O19 Eu1 2.392 1_565 S
O19 C31 1.242 . S
O20 Eu1 2.418 1_655 S
O20 C2 1.244 . S
O21 Eu0 2.488 . S
O21 C9 1.249 . S
O22 Eu0 2.471 . S
O22 C9 1.244 . S
O23 Eu0 2.349 1_546 S
O23 C2 1.265 . S
C24 C25 1.379 . S
C24 C28 1.373 . S
C24 C30 1.505 . S
C25 C24 1.379 . S
C25 C27 1.369 . S
C25 H36 0.928 . S
C26 C28 1.383 . S
C26 C29 1.382 . S
C26 H37 0.930 . S
C27 C25 1.369 . S
C27 C29 1.392 . S
C27 H38 0.930 . S
C28 C24 1.373 . S
C28 C26 1.383 . S
C28 H39 0.931 . S
C29 C26 1.382 . S
C29 C27 1.392 . S
C30 Eu1 2.828 . S
C30 O14 1.249 . S
C30 O15 1.244 . S
C30 C24 1.505 . S
C31 O18 1.258 . S
C31 O19 1.242 . S
H32 C4 0.944 . S
H33 C5 0.930 . S
H34 C6 0.930 . S
H35 C7 0.931 . S
H36 C25 0.928 . S
H37 C26 0.930 . S
H38 C27 0.930 . S
H39 C28 0.931 . S
Eu40 C49 2.828 . S
Eu40 O51 2.392 . S
Eu40 O53 2.418 . S
Eu40 O58 2.373 1_455 S
Eu40 O61 2.488 . S
Eu40 O62 2.471 1_455 S
Eu40 O63 2.349 1_455 S
Eu41 O50 2.373 1_655 S
Eu41 O54 2.488 . S
Eu41 O55 2.471 1_655 S
Eu41 O56 2.349 1_655 S
Eu41 O59 2.392 . S
Eu41 O60 2.418 . S
Eu41 C70 2.828 . S
C42 O60 1.244 . S
C42 O63 1.265 . S
C43 C44 1.379 1_455 S
C43 C47 1.373 . S
C43 C49 1.505 . S
C44 C43 1.379 1_655 S
C44 C46 1.369 . S
C44 H72 0.930 . S
C45 C47 1.383 . S
C45 C48 1.382 1_455 S
C45 H73 0.930 . S
C46 C44 1.369 . S
C46 C48 1.392 . S
C46 H74 0.930 . S
C47 C43 1.373 . S
C47 C45 1.383 . S
C47 H75 0.931 . S
C48 C45 1.382 1_655 S
C48 C46 1.392 . S
C49 Eu40 2.828 . S
C49 C43 1.505 . S
C49 O61 1.249 . S
C49 O62 1.244 1_455 S
O50 Eu41 2.373 1_455 S
O50 C52 1.258 . S
O51 Eu40 2.392 . S
O51 C52 1.242 . S
C52 O50 1.258 . S
C52 O51 1.242 . S
O53 Eu40 2.418 . S
O53 C57 1.244 . S
O54 Eu41 2.488 . S
O54 C70 1.249 . S
O55 Eu41 2.471 1_455 S
O55 C70 1.244 1_455 S
O56 Eu41 2.349 1_455 S
O56 C57 1.265 . S
C57 O53 1.244 . S
C57 O56 1.265 . S
O58 Eu40 2.373 1_655 S
O58 C71 1.258 . S
O59 Eu41 2.392 . S
O59 C71 1.242 . S
O60 Eu41 2.418 . S
O60 C42 1.244 . S
O61 Eu40 2.488 . S
O61 C49 1.249 . S
O62 Eu40 2.471 1_655 S
O62 C49 1.244 1_655 S
O63 Eu40 2.349 1_655 S
O63 C42 1.265 . S
C64 C65 1.379 1_655 S
C64 C68 1.373 . S
C64 C70 1.505 . S
C65 C64 1.379 1_455 S
C65 C67 1.369 . S
C65 H76 0.930 . S
C66 C68 1.383 . S
C66 C69 1.382 1_655 S
C66 H77 0.930 . S
C67 C65 1.369 . S
C67 C69 1.392 . S
C67 H78 0.930 . S
C68 C64 1.373 . S
C68 C66 1.383 . S
C68 H79 0.931 . S
C69 C66 1.382 1_455 S
C69 C67 1.392 . S
C70 Eu41 2.828 . S
C70 O54 1.249 . S
C70 O55 1.244 1_655 S
C70 C64 1.505 . S
C71 O58 1.258 . S
C71 O59 1.242 . S
H72 C44 0.930 . S
H73 C45 0.930 . S
H74 C46 0.930 . S
H75 C47 0.931 . S
H76 C65 0.930 . S
H77 C66 0.930 . S
H78 C67 0.930 . S
H79 C68 0.931 . S
Eu80 C89 2.828 . S
Eu80 O91 2.392 . S
Eu80 O93 2.418 . S
Eu80 O98 2.373 . S
Eu80 O101 2.488 . S
Eu80 O102 2.471 . S
Eu80 O103 2.349 . S
Eu81 O90 2.373 . S
Eu81 O94 2.488 . S
Eu81 O95 2.471 . S
Eu81 O96 2.349 . S
Eu81 O99 2.392 . S
Eu81 O100 2.418 . S
Eu81 C110 2.828 . S
C82 O100 1.244 . S
C82 O103 1.265 . S
C83 C84 1.379 . S
C83 C87 1.373 . S
C83 C89 1.505 . S
C84 C83 1.379 . S
C84 C86 1.369 . S
C84 H112 0.930 . S
C85 C87 1.383 . S
C85 C88 1.382 . S
C85 H113 0.930 . S
C86 C84 1.369 . S
C86 C88 1.392 . S
C86 H114 0.930 . S
C87 C83 1.373 . S
C87 C85 1.383 . S
C87 H115 0.931 . S
C88 C85 1.382 . S
C88 C86 1.392 . S
C89 Eu80 2.828 . S
C89 C83 1.505 . S
C89 O101 1.249 . S
C89 O102 1.244 . S
O90 Eu81 2.373 . S
O90 C92 1.258 . S
O91 Eu80 2.392 . S
O91 C92 1.242 . S
C92 O90 1.258 . S
C92 O91 1.242 . S
O93 Eu80 2.418 . S
O93 C97 1.244 . S
O94 Eu81 2.488 . S
O94 C110 1.249 . S
O95 Eu81 2.471 . S
O95 C110 1.244 . S
O96 Eu81 2.349 . S
O96 C97 1.265 . S
C97 O93 1.244 . S
C97 O96 1.265 . S
O98 Eu80 2.373 . S
O98 C111 1.258 . S
O99 Eu81 2.392 . S
O99 C111 1.242 . S
O100 Eu81 2.418 . S
O100 C82 1.244 . S
O101 Eu80 2.488 . S
O101 C89 1.249 . S
O102 Eu80 2.471 . S
O102 C89 1.244 . S
O103 Eu80 2.349 . S
O103 C82 1.265 . S
C104 C105 1.379 . S
C104 C108 1.373 . S
C104 C110 1.505 . S
C105 C104 1.379 . S
C105 C107 1.369 . S
C105 H116 0.930 . S
C106 C108 1.383 . S
C106 C109 1.382 . S
C106 H117 0.930 . S
C107 C105 1.369 . S
C107 C109 1.392 . S
C107 H118 0.930 . S
C108 C104 1.373 . S
C108 C106 1.383 . S
C108 H119 0.931 . S
C109 C106 1.382 . S
C109 C107 1.392 . S
C110 Eu81 2.828 . S
C110 O94 1.249 . S
C110 O95 1.244 . S
C110 C104 1.505 . S
C111 O98 1.258 . S
C111 O99 1.242 . S
H112 C84 0.930 . S
H113 C85 0.930 . S
H114 C86 0.930 . S
H115 C87 0.931 . S
H116 C105 0.930 . S
H117 C106 0.930 . S
H118 C107 0.930 . S
H119 C108 0.931 . S
Eu120 C129 2.828 . S
Eu120 O131 2.392 . S
Eu120 O133 2.418 . S
Eu120 O138 2.373 1_565 S
Eu120 O141 2.488 . S
Eu120 O142 2.471 1_565 S
Eu120 O143 2.349 1_565 S
Eu121 O130 2.373 1_545 S
Eu121 O134 2.488 . S
Eu121 O135 2.471 1_545 S
Eu121 O136 2.349 1_545 S
Eu121 O139 2.392 . S
Eu121 O140 2.418 . S
Eu121 C150 2.828 . S
C122 O140 1.244 . S
C122 O143 1.265 . S
C123 C124 1.379 . S
C123 C127 1.373 1_545 S
C123 C129 1.505 1_545 S
C124 C123 1.379 . S
C124 C126 1.369 . S
C124 H152 0.930 . S
C125 C127 1.383 . S
C125 C128 1.382 1_565 S
C125 H153 0.930 . S
C126 C124 1.369 . S
C126 C128 1.392 . S
C126 H154 0.930 . S
C127 C123 1.373 1_565 S
C127 C125 1.383 . S
C127 H155 0.931 . S
C128 C125 1.382 1_545 S
C128 C126 1.392 . S
C129 Eu120 2.828 . S
C129 C123 1.505 1_565 S
C129 O141 1.249 . S
C129 O142 1.244 1_565 S
O130 Eu121 2.373 1_565 S
O130 C132 1.258 . S
O131 Eu120 2.392 . S
O131 C132 1.242 . S
C132 O130 1.258 . S
C132 O131 1.242 . S
O133 Eu120 2.418 . S
O133 C137 1.244 . S
O134 Eu121 2.488 . S
O134 C150 1.249 . S
O135 Eu121 2.471 1_565 S
O135 C150 1.244 1_565 S
O136 Eu121 2.349 1_565 S
O136 C137 1.265 . S
C137 O133 1.244 . S
C137 O136 1.265 . S
O138 Eu120 2.373 1_545 S
O138 C151 1.258 . S
O139 Eu121 2.392 . S
O139 C151 1.242 . S
O140 Eu121 2.418 . S
O140 C122 1.244 . S
O141 Eu120 2.488 . S
O141 C129 1.249 . S
O142 Eu120 2.471 1_545 S
O142 C129 1.244 1_545 S
O143 Eu120 2.349 1_545 S
O143 C122 1.265 . S
C144 C145 1.379 . S
C144 C148 1.373 1_565 S
C144 C150 1.505 1_565 S
C145 C144 1.379 . S
C145 C147 1.369 . S
C145 H156 0.930 . S
C146 C148 1.383 . S
C146 C149 1.382 1_545 S
C146 H157 0.930 . S
C147 C145 1.369 . S
C147 C149 1.392 . S
C147 H158 0.930 . S
C148 C144 1.373 1_545 S
C148 C146 1.383 . S
C148 H159 0.931 . S
C149 C146 1.382 1_565 S
C149 C147 1.392 . S
C150 Eu121 2.828 . S
C150 O134 1.249 . S
C150 O135 1.244 1_545 S
C150 C144 1.505 1_545 S
C151 O138 1.258 . S
C151 O139 1.242 . S
H152 C124 0.930 . S
H153 C125 0.930 . S
H154 C126 0.930 . S
H155 C127 0.931 . S
H156 C145 0.930 . S
H157 C146 0.930 . S
H158 C147 0.930 . S
H159 C148 0.931 . S
Eu160 C169 2.828 . S
Eu160 O171 2.392 . S
Eu160 O173 2.418 . S
Eu160 O178 2.373 . S
Eu160 O181 2.488 . S
Eu160 O182 2.471 . S
Eu160 O183 2.349 . S
Eu161 O170 2.373 . S
Eu161 O174 2.488 . S
Eu161 O175 2.471 . S
Eu161 O176 2.349 . S
Eu161 O179 2.392 . S
Eu161 O180 2.418 . S
Eu161 C190 2.828 . S
C162 O180 1.244 . S
C162 O183 1.265 . S
C163 C164 1.379 . S
C163 C167 1.373 . S
C163 C169 1.505 . S
C164 C163 1.379 . S
C164 C166 1.369 . S
C164 H192 0.930 . S
C165 C167 1.383 . S
C165 C168 1.382 . S
C165 H193 0.930 . S
C166 C164 1.369 . S
C166 C168 1.392 . S
C166 H194 0.930 . S
C167 C163 1.373 . S
C167 C165 1.383 . S
C167 H195 0.931 . S
C168 C165 1.382 . S
C168 C166 1.392 . S
C169 Eu160 2.828 . S
C169 C163 1.505 . S
C169 O181 1.249 . S
C169 O182 1.244 . S
O170 Eu161 2.373 . S
O170 C172 1.258 . S
O171 Eu160 2.392 . S
O171 C172 1.242 . S
C172 O170 1.258 . S
C172 O171 1.242 . S
O173 Eu160 2.418 . S
O173 C177 1.244 . S
O174 Eu161 2.488 . S
O174 C190 1.249 . S
O175 Eu161 2.471 . S
O175 C190 1.244 . S
O176 Eu161 2.349 . S
O176 C177 1.265 . S
C177 O173 1.244 . S
C177 O176 1.265 . S
O178 Eu160 2.373 . S
O178 C191 1.258 . S
O179 Eu161 2.392 . S
O179 C191 1.242 . S
O180 Eu161 2.418 . S
O180 C162 1.244 . S
O181 Eu160 2.488 . S
O181 C169 1.249 . S
O182 Eu160 2.471 . S
O182 C169 1.244 . S
O183 Eu160 2.349 . S
O183 C162 1.265 . S
C184 C185 1.379 . S
C184 C188 1.373 . S
C184 C190 1.505 . S
C185 C184 1.379 . S
C185 C187 1.369 . S
C185 H196 0.930 . S
C186 C188 1.383 . S
C186 C189 1.382 . S
C186 H197 0.930 . S
C187 C185 1.369 . S
C187 C189 1.392 . S
C187 H198 0.930 . S
C188 C184 1.373 . S
C188 C186 1.383 . S
C188 H199 0.931 . S
C189 C186 1.382 . S
C189 C187 1.392 . S
C190 Eu161 2.828 . S
C190 O174 1.249 . S
C190 O175 1.244 . S
C190 C184 1.505 . S
C191 O178 1.258 . S
C191 O179 1.242 . S
H192 C164 0.930 . S
H193 C165 0.930 . S
H194 C166 0.930 . S
H195 C167 0.931 . S
H196 C185 0.930 . S
H197 C186 0.930 . S
H198 C187 0.930 . S
H199 C188 0.931 . S
Eu200 C209 2.828 . S
Eu200 O211 2.392 . S
Eu200 O213 2.418 . S
Eu200 O218 2.373 . S
Eu200 O221 2.488 . S
Eu200 O222 2.471 . S
Eu200 O223 2.349 . S
Eu201 O210 2.373 . S
Eu201 O214 2.488 . S
Eu201 O215 2.471 . S
Eu201 O216 2.349 . S
Eu201 O219 2.392 . S
Eu201 O220 2.418 . S
Eu201 C230 2.828 . S
C202 O220 1.244 . S
C202 O223 1.265 . S
C203 C204 1.379 . S
C203 C207 1.373 . S
C203 C209 1.505 . S
C204 C203 1.379 . S
C204 C206 1.369 . S
C204 H232 0.930 . S
C205 C207 1.383 . S
C205 C208 1.382 . S
C205 H233 0.930 . S
C206 C204 1.369 . S
C206 C208 1.392 . S
C206 H234 0.930 . S
C207 C203 1.373 . S
C207 C205 1.383 . S
C207 H235 0.931 . S
C208 C205 1.382 . S
C208 C206 1.392 . S
C209 Eu200 2.828 . S
C209 C203 1.505 . S
C209 O221 1.249 . S
C209 O222 1.244 . S
O210 Eu201 2.373 . S
O210 C212 1.258 . S
O211 Eu200 2.392 . S
O211 C212 1.242 . S
C212 O210 1.258 . S
C212 O211 1.242 . S
O213 Eu200 2.418 . S
O213 C217 1.244 . S
O214 Eu201 2.488 . S
O214 C230 1.249 . S
O215 Eu201 2.471 . S
O215 C230 1.244 . S
O216 Eu201 2.349 . S
O216 C217 1.265 . S
C217 O213 1.244 . S
C217 O216 1.265 . S
O218 Eu200 2.373 . S
O218 C231 1.258 . S
O219 Eu201 2.392 . S
O219 C231 1.242 . S
O220 Eu201 2.418 . S
O220 C202 1.244 . S
O221 Eu200 2.488 . S
O221 C209 1.249 . S
O222 Eu200 2.471 . S
O222 C209 1.244 . S
O223 Eu200 2.349 . S
O223 C202 1.265 . S
C224 C225 1.379 . S
C224 C228 1.373 . S
C224 C230 1.505 . S
C225 C224 1.379 . S
C225 C227 1.369 . S
C225 H236 0.930 . S
C226 C228 1.383 . S
C226 C229 1.382 . S
C226 H237 0.930 . S
C227 C225 1.369 . S
C227 C229 1.392 . S
C227 H238 0.930 . S
C228 C224 1.373 . S
C228 C226 1.383 . S
C228 H239 0.931 . S
C229 C226 1.382 . S
C229 C227 1.392 . S
C230 Eu201 2.828 . S
C230 O214 1.249 . S
C230 O215 1.244 . S
C230 C224 1.505 . S
C231 O218 1.258 . S
C231 O219 1.242 . S
H232 C204 0.930 . S
H233 C205 0.930 . S
H234 C206 0.930 . S
H235 C207 0.931 . S
H236 C225 0.930 . S
H237 C226 0.930 . S
H238 C227 0.930 . S
H239 C228 0.931 . S
Eu240 C249 2.828 . S
Eu240 O251 2.392 . S
Eu240 O253 2.418 . S
Eu240 O258 2.373 . S
Eu240 O261 2.488 . S
Eu240 O262 2.471 . S
Eu240 O263 2.349 . S
Eu241 O250 2.373 . S
Eu241 O254 2.488 . S
Eu241 O255 2.471 . S
Eu241 O256 2.349 . S
Eu241 O259 2.392 . S
Eu241 O260 2.418 . S
Eu241 C270 2.828 . S
C242 O260 1.244 . S
C242 O263 1.265 . S
C243 C244 1.379 . S
C243 C247 1.373 . S
C243 C249 1.505 . S
C244 C243 1.379 . S
C244 C246 1.369 . S
C244 H272 0.930 . S
C245 C247 1.383 . S
C245 C248 1.382 . S
C245 H273 0.930 . S
C246 C244 1.369 . S
C246 C248 1.392 . S
C246 H274 0.930 . S
C247 C243 1.373 . S
C247 C245 1.383 . S
C247 H275 0.931 . S
C248 C245 1.382 . S
C248 C246 1.392 . S
C249 Eu240 2.828 . S
C249 C243 1.505 . S
C249 O261 1.249 . S
C249 O262 1.244 . S
O250 Eu241 2.373 . S
O250 C252 1.258 . S
O251 Eu240 2.392 . S
O251 C252 1.242 . S
C252 O250 1.258 . S
C252 O251 1.242 . S
O253 Eu240 2.418 . S
O253 C257 1.244 . S
O254 Eu241 2.488 . S
O254 C270 1.249 . S
O255 Eu241 2.471 . S
O255 C270 1.244 . S
O256 Eu241 2.349 . S
O256 C257 1.265 . S
C257 O253 1.244 . S
C257 O256 1.265 . S
O258 Eu240 2.373 . S
O258 C271 1.258 . S
O259 Eu241 2.392 . S
O259 C271 1.242 . S
O260 Eu241 2.418 . S
O260 C242 1.244 . S
O261 Eu240 2.488 . S
O261 C249 1.249 . S
O262 Eu240 2.471 . S
O262 C249 1.244 . S
O263 Eu240 2.349 . S
O263 C242 1.265 . S
C264 C265 1.379 . S
C264 C268 1.373 . S
C264 C270 1.505 . S
C265 C264 1.379 . S
C265 C267 1.369 . S
C265 H276 0.930 . S
C266 C268 1.383 . S
C266 C269 1.382 . S
C266 H277 0.930 . S
C267 C265 1.369 . S
C267 C269 1.392 . S
C267 H278 0.930 . S
C268 C264 1.373 . S
C268 C266 1.383 . S
C268 H279 0.931 . S
C269 C266 1.382 . S
C269 C267 1.392 . S
C270 Eu241 2.828 . S
C270 O254 1.249 . S
C270 O255 1.244 . S
C270 C264 1.505 . S
C271 O258 1.258 . S
C271 O259 1.242 . S
H272 C244 0.930 . S
H273 C245 0.930 . S
H274 C246 0.930 . S
H275 C247 0.931 . S
H276 C265 0.930 . S
H277 C266 0.930 . S
H278 C267 0.930 . S
H279 C268 0.931 . S
Eu280 C289 2.828 . S
Eu280 O291 2.392 . S
Eu280 O293 2.418 1_655 S
Eu280 O298 2.373 1_655 S
Eu280 O301 2.488 . S
Eu280 O302 2.471 . S
Eu280 O303 2.349 . S
Eu281 O290 2.373 1_455 S
Eu281 O294 2.488 . S
Eu281 O295 2.471 . S
Eu281 O296 2.349 . S
Eu281 O299 2.392 . S
Eu281 O300 2.418 1_455 S
Eu281 C310 2.828 . S
C282 O300 1.244 . S
C282 O303 1.265 . S
C283 C284 1.379 . S
C283 C287 1.373 . S
C283 C289 1.505 . S
C284 C283 1.379 . S
C284 C286 1.369 . S
C284 H312 0.930 . S
C285 C287 1.383 . S
C285 C288 1.382 . S
C285 H313 0.930 . S
C286 C284 1.369 . S
C286 C288 1.392 . S
C286 H314 0.930 . S
C287 C283 1.373 . S
C287 C285 1.383 . S
C287 H315 0.931 . S
C288 C285 1.382 . S
C288 C286 1.392 . S
C289 Eu280 2.828 . S
C289 C283 1.505 . S
C289 O301 1.249 . S
C289 O302 1.244 . S
O290 Eu281 2.373 1_655 S
O290 C292 1.258 . S
O291 Eu280 2.392 . S
O291 C292 1.242 . S
C292 O290 1.258 . S
C292 O291 1.242 . S
O293 Eu280 2.418 1_455 S
O293 C297 1.244 . S
O294 Eu281 2.488 . S
O294 C310 1.249 . S
O295 Eu281 2.471 . S
O295 C310 1.244 . S
O296 Eu281 2.349 . S
O296 C297 1.265 . S
C297 O293 1.244 . S
C297 O296 1.265 . S
O298 Eu280 2.373 1_455 S
O298 C311 1.258 . S
O299 Eu281 2.392 . S
O299 C311 1.242 . S
O300 Eu281 2.418 1_655 S
O300 C282 1.244 . S
O301 Eu280 2.488 . S
O301 C289 1.249 . S
O302 Eu280 2.471 . S
O302 C289 1.244 . S
O303 Eu280 2.349 . S
O303 C282 1.265 . S
C304 C305 1.379 . S
C304 C308 1.373 . S
C304 C310 1.505 . S
C305 C304 1.379 . S
C305 C307 1.369 . S
C305 H316 0.930 . S
C306 C308 1.383 . S
C306 C309 1.382 . S
C306 H317 0.930 . S
C307 C305 1.369 . S
C307 C309 1.392 . S
C307 H318 0.930 . S
C308 C304 1.373 . S
C308 C306 1.383 . S
C308 H319 0.931 . S
C309 C306 1.382 . S
C309 C307 1.392 . S
C310 Eu281 2.828 . S
C310 O294 1.249 . S
C310 O295 1.244 . S
C310 C304 1.505 . S
C311 O298 1.258 . S
C311 O299 1.242 . S
H312 C284 0.930 . S
H313 C285 0.930 . S
H314 C286 0.930 . S
H315 C287 0.931 . S
H316 C305 0.930 . S
H317 C306 0.930 . S
H318 C307 0.930 . S
H319 C308 0.931 . S
Eu320 C329 2.828 . S
Eu320 O331 2.392 . S
Eu320 O333 2.418 . S
Eu320 O338 2.373 1_554 S
Eu320 O341 2.488 . S
Eu320 O342 2.471 . S
Eu320 O343 2.349 1_554 S
Eu321 O330 2.373 1_556 S
Eu321 O334 2.488 . S
Eu321 O335 2.471 . S
Eu321 O336 2.349 1_556 S
Eu321 O339 2.392 . S
Eu321 O340 2.418 . S
Eu321 C350 2.828 . S
C322 O340 1.244 . S
C322 O343 1.265 . S
C323 C324 1.379 1_554 S
C323 C327 1.373 . S
C323 C329 1.505 . S
C324 C323 1.379 1_556 S
C324 C326 1.369 . S
C324 H352 0.930 . S
C325 C327 1.383 . S
C325 C328 1.382 . S
C325 H353 0.930 . S
C326 C324 1.369 . S
C326 C328 1.392 1_556 S
C326 H354 0.930 . S
C327 C323 1.373 . S
C327 C325 1.383 . S
C327 H355 0.931 . S
C328 C325 1.382 . S
C328 C326 1.392 1_554 S
C329 Eu320 2.828 . S
C329 C323 1.505 . S
C329 O341 1.249 . S
C329 O342 1.244 . S
O330 Eu321 2.373 1_554 S
O330 C332 1.258 . S
O331 Eu320 2.392 . S
O331 C332 1.242 . S
C332 O330 1.258 . S
C332 O331 1.242 . S
O333 Eu320 2.418 . S
O333 C337 1.244 . S
O334 Eu321 2.488 . S
O334 C350 1.249 . S
O335 Eu321 2.471 . S
O335 C350 1.244 . S
O336 Eu321 2.349 1_554 S
O336 C337 1.265 . S
C337 O333 1.244 . S
C337 O336 1.265 . S
O338 Eu320 2.373 1_556 S
O338 C351 1.258 . S
O339 Eu321 2.392 . S
O339 C351 1.242 . S
O340 Eu321 2.418 . S
O340 C322 1.244 . S
O341 Eu320 2.488 . S
O341 C329 1.249 . S
O342 Eu320 2.471 . S
O342 C329 1.244 . S
O343 Eu320 2.349 1_556 S
O343 C322 1.265 . S
C344 C345 1.379 1_556 S
C344 C348 1.373 . S
C344 C350 1.505 . S
C345 C344 1.379 1_554 S
C345 C347 1.369 . S
C345 H356 0.930 . S
C346 C348 1.383 . S
C346 C349 1.382 . S
C346 H357 0.930 . S
C347 C345 1.369 . S
C347 C349 1.392 1_554 S
C347 H358 0.930 . S
C348 C344 1.373 . S
C348 C346 1.383 . S
C348 H359 0.931 . S
C349 C346 1.382 . S
C349 C347 1.392 1_556 S
C350 Eu321 2.828 . S
C350 O334 1.249 . S
C350 O335 1.244 . S
C350 C344 1.505 . S
C351 O338 1.258 . S
C351 O339 1.242 . S
H352 C324 0.930 . S
H353 C325 0.930 . S
H354 C326 0.930 . S
H355 C327 0.931 . S
H356 C345 0.930 . S
H357 C346 0.930 . S
H358 C347 0.930 . S
H359 C348 0.931 . S
Eu360 C369 2.828 . S
Eu360 O371 2.392 . S
Eu360 O373 2.418 . S
Eu360 O378 2.373 1_565 S
Eu360 O381 2.488 . S
Eu360 O382 2.471 1_565 S
Eu360 O383 2.349 1_565 S
Eu361 O370 2.373 1_545 S
Eu361 O374 2.488 . S
Eu361 O375 2.471 1_545 S
Eu361 O376 2.349 1_545 S
Eu361 O379 2.392 . S
Eu361 O380 2.418 . S
Eu361 C390 2.828 . S
C362 O380 1.244 . S
C362 O383 1.265 . S
C363 C364 1.379 . S
C363 C367 1.373 1_545 S
C363 C369 1.505 1_545 S
C364 C363 1.379 . S
C364 C366 1.369 . S
C364 H392 0.930 . S
C365 C367 1.383 . S
C365 C368 1.382 1_565 S
C365 H393 0.930 . S
C366 C364 1.369 . S
C366 C368 1.392 . S
C366 H394 0.930 . S
C367 C363 1.373 1_565 S
C367 C365 1.383 . S
C367 H395 0.931 . S
C368 C365 1.382 1_545 S
C368 C366 1.392 . S
C369 Eu360 2.828 . S
C369 C363 1.505 1_565 S
C369 O381 1.249 . S
C369 O382 1.244 1_565 S
O370 Eu361 2.373 1_565 S
O370 C372 1.258 . S
O371 Eu360 2.392 . S
O371 C372 1.242 . S
C372 O370 1.258 . S
C372 O371 1.242 . S
O373 Eu360 2.418 . S
O373 C377 1.244 . S
O374 Eu361 2.488 . S
O374 C390 1.249 . S
O375 Eu361 2.471 1_565 S
O375 C390 1.244 1_565 S
O376 Eu361 2.349 1_565 S
O376 C377 1.265 . S
C377 O373 1.244 . S
C377 O376 1.265 . S
O378 Eu360 2.373 1_545 S
O378 C391 1.258 . S
O379 Eu361 2.392 . S
O379 C391 1.242 . S
O380 Eu361 2.418 . S
O380 C362 1.244 . S
O381 Eu360 2.488 . S
O381 C369 1.249 . S
O382 Eu360 2.471 1_545 S
O382 C369 1.244 1_545 S
O383 Eu360 2.349 1_545 S
O383 C362 1.265 . S
C384 C385 1.379 . S
C384 C388 1.373 1_565 S
C384 C390 1.505 1_565 S
C385 C384 1.379 . S
C385 C387 1.369 . S
C385 H396 0.930 . S
C386 C388 1.383 . S
C386 C389 1.382 1_545 S
C386 H397 0.930 . S
C387 C385 1.369 . S
C387 C389 1.392 . S
C387 H398 0.930 . S
C388 C384 1.373 1_545 S
C388 C386 1.383 . S
C388 H399 0.931 . S
C389 C386 1.382 1_565 S
C389 C387 1.392 . S
C390 Eu361 2.828 . S
C390 O374 1.249 . S
C390 O375 1.244 1_545 S
C390 C384 1.505 1_545 S
C391 O378 1.258 . S
C391 O379 1.242 . S
H392 C364 0.930 . S
H393 C365 0.930 . S
H394 C366 0.930 . S
H395 C367 0.931 . S
H396 C385 0.930 . S
H397 C386 0.930 . S
H398 C387 0.930 . S
H399 C388 0.931 . S
Eu400 C409 2.828 . S
Eu400 O411 2.392 . S
Eu400 O413 2.418 . S
Eu400 O418 2.373 . S
Eu400 O421 2.488 . S
Eu400 O422 2.471 . S
Eu400 O423 2.349 . S
Eu401 O410 2.373 . S
Eu401 O414 2.488 . S
Eu401 O415 2.471 . S
Eu401 O416 2.349 . S
Eu401 O419 2.392 . S
Eu401 O420 2.418 . S
Eu401 C430 2.828 . S
C402 O420 1.244 . S
C402 O423 1.265 . S
C403 C404 1.379 . S
C403 C407 1.373 . S
C403 C409 1.505 . S
C404 C403 1.379 . S
C404 C406 1.369 . S
C404 H432 0.930 . S
C405 C407 1.383 . S
C405 C408 1.382 . S
C405 H433 0.930 . S
C406 C404 1.369 . S
C406 C408 1.392 . S
C406 H434 0.930 . S
C407 C403 1.373 . S
C407 C405 1.383 . S
C407 H435 0.931 . S
C408 C405 1.382 . S
C408 C406 1.392 . S
C409 Eu400 2.828 . S
C409 C403 1.505 . S
C409 O421 1.249 . S
C409 O422 1.244 . S
O410 Eu401 2.373 . S
O410 C412 1.258 . S
O411 Eu400 2.392 . S
O411 C412 1.242 . S
C412 O410 1.258 . S
C412 O411 1.242 . S
O413 Eu400 2.418 . S
O413 C417 1.244 . S
O414 Eu401 2.488 . S
O414 C430 1.249 . S
O415 Eu401 2.471 . S
O415 C430 1.244 . S
O416 Eu401 2.349 . S
O416 C417 1.265 . S
C417 O413 1.244 . S
C417 O416 1.265 . S
O418 Eu400 2.373 . S
O418 C431 1.258 . S
O419 Eu401 2.392 . S
O419 C431 1.242 . S
O420 Eu401 2.418 . S
O420 C402 1.244 . S
O421 Eu400 2.488 . S
O421 C409 1.249 . S
O422 Eu400 2.471 . S
O422 C409 1.244 . S
O423 Eu400 2.349 . S
O423 C402 1.265 . S
C424 C425 1.379 . S
C424 C428 1.373 . S
C424 C430 1.505 . S
C425 C424 1.379 . S
C425 C427 1.369 . S
C425 H436 0.930 . S
C426 C428 1.383 . S
C426 C429 1.382 . S
C426 H437 0.930 . S
C427 C425 1.369 . S
C427 C429 1.392 . S
C427 H438 0.930 . S
C428 C424 1.373 . S
C428 C426 1.383 . S
C428 H439 0.931 . S
C429 C426 1.382 . S
C429 C427 1.392 . S
C430 Eu401 2.828 . S
C430 O414 1.249 . S
C430 O415 1.244 . S
C430 C424 1.505 . S
C431 O418 1.258 . S
C431 O419 1.242 . S
H432 C404 0.930 . S
H433 C405 0.930 . S
H434 C406 0.930 . S
H435 C407 0.931 . S
H436 C425 0.930 . S
H437 C426 0.930 . S
H438 C427 0.930 . S
H439 C428 0.931 . S
Eu440 C449 2.828 . S
Eu440 O451 2.392 . S
Eu440 O453 2.418 . S
Eu440 O458 2.373 1_455 S
Eu440 O461 2.488 . S
Eu440 O462 2.471 1_455 S
Eu440 O463 2.349 1_455 S
Eu441 O450 2.373 1_655 S
Eu441 O454 2.488 . S
Eu441 O455 2.471 1_655 S
Eu441 O456 2.349 1_655 S
Eu441 O459 2.392 . S
Eu441 O460 2.418 . S
Eu441 C470 2.828 . S
C442 O460 1.244 . S
C442 O463 1.265 . S
C443 C444 1.379 1_455 S
C443 C447 1.373 . S
C443 C449 1.505 . S
C444 C443 1.379 1_655 S
C444 C446 1.369 . S
C444 H472 0.930 . S
C445 C447 1.383 . S
C445 C448 1.382 1_455 S
C445 H473 0.930 . S
C446 C444 1.369 . S
C446 C448 1.392 . S
C446 H474 0.930 . S
C447 C443 1.373 . S
C447 C445 1.383 . S
C447 H475 0.931 . S
C448 C445 1.382 1_655 S
C448 C446 1.392 . S
C449 Eu440 2.828 . S
C449 C443 1.505 . S
C449 O461 1.249 . S
C449 O462 1.244 1_455 S
O450 Eu441 2.373 1_455 S
O450 C452 1.258 . S
O451 Eu440 2.392 . S
O451 C452 1.242 . S
C452 O450 1.258 . S
C452 O451 1.242 . S
O453 Eu440 2.418 . S
O453 C457 1.244 . S
O454 Eu441 2.488 . S
O454 C470 1.249 . S
O455 Eu441 2.471 1_455 S
O455 C470 1.244 1_455 S
O456 Eu441 2.349 1_455 S
O456 C457 1.265 . S
C457 O453 1.244 . S
C457 O456 1.265 . S
O458 Eu440 2.373 1_655 S
O458 C471 1.258 . S
O459 Eu441 2.392 . S
O459 C471 1.242 . S
O460 Eu441 2.418 . S
O460 C442 1.244 . S
O461 Eu440 2.488 . S
O461 C449 1.249 . S
O462 Eu440 2.471 1_655 S
O462 C449 1.244 1_655 S
O463 Eu440 2.349 1_655 S
O463 C442 1.265 . S
C464 C465 1.379 1_655 S
C464 C468 1.373 . S
C464 C470 1.505 . S
C465 C464 1.379 1_455 S
C465 C467 1.369 . S
C465 H476 0.930 . S
C466 C468 1.383 . S
C466 C469 1.382 1_655 S
C466 H477 0.930 . S
C467 C465 1.369 . S
C467 C469 1.392 . S
C467 H478 0.930 . S
C468 C464 1.373 . S
C468 C466 1.383 . S
C468 H479 0.931 . S
C469 C466 1.382 1_455 S
C469 C467 1.392 . S
C470 Eu441 2.828 . S
C470 O454 1.249 . S
C470 O455 1.244 1_655 S
C470 C464 1.505 . S
C471 O458 1.258 . S
C471 O459 1.242 . S
H472 C444 0.930 . S
H473 C445 0.930 . S
H474 C446 0.930 . S
H475 C447 0.931 . S
H476 C465 0.930 . S
H477 C466 0.930 . S
H478 C467 0.930 . S
H479 C468 0.931 . S
Eu480 C489 2.828 . S
Eu480 O491 2.392 . S
Eu480 O493 2.418 . S
Eu480 O498 2.373 . S
Eu480 O501 2.488 . S
Eu480 O502 2.471 . S
Eu480 O503 2.349 . S
Eu481 O490 2.373 . S
Eu481 O494 2.488 . S
Eu481 O495 2.471 . S
Eu481 O496 2.349 . S
Eu481 O499 2.392 . S
Eu481 O500 2.418 . S
Eu481 C510 2.828 . S
C482 O500 1.244 . S
C482 O503 1.265 . S
C483 C484 1.379 . S
C483 C487 1.373 . S
C483 C489 1.505 . S
C484 C483 1.379 . S
C484 C486 1.369 . S
C484 H512 0.930 . S
C485 C487 1.383 . S
C485 C488 1.382 . S
C485 H513 0.930 . S
C486 C484 1.369 . S
C486 C488 1.392 . S
C486 H514 0.930 . S
C487 C483 1.373 . S
C487 C485 1.383 . S
C487 H515 0.931 . S
C488 C485 1.382 . S
C488 C486 1.392 . S
C489 Eu480 2.828 . S
C489 C483 1.505 . S
C489 O501 1.249 . S
C489 O502 1.244 . S
O490 Eu481 2.373 . S
O490 C492 1.258 . S
O491 Eu480 2.392 . S
O491 C492 1.242 . S
C492 O490 1.258 . S
C492 O491 1.242 . S
O493 Eu480 2.418 . S
O493 C497 1.244 . S
O494 Eu481 2.488 . S
O494 C510 1.249 . S
O495 Eu481 2.471 . S
O495 C510 1.244 . S
O496 Eu481 2.349 . S
O496 C497 1.265 . S
C497 O493 1.244 . S
C497 O496 1.265 . S
O498 Eu480 2.373 . S
O498 C511 1.258 . S
O499 Eu481 2.392 . S
O499 C511 1.242 . S
O500 Eu481 2.418 . S
O500 C482 1.244 . S
O501 Eu480 2.488 . S
O501 C489 1.249 . S
O502 Eu480 2.471 . S
O502 C489 1.244 . S
O503 Eu480 2.349 . S
O503 C482 1.265 . S
C504 C505 1.379 . S
C504 C508 1.373 . S
C504 C510 1.505 . S
C505 C504 1.379 . S
C505 C507 1.369 . S
C505 H516 0.930 . S
C506 C508 1.383 . S
C506 C509 1.382 . S
C506 H517 0.930 . S
C507 C505 1.369 . S
C507 C509 1.392 . S
C507 H518 0.930 . S
C508 C504 1.373 . S
C508 C506 1.383 . S
C508 H519 0.931 . S
C509 C506 1.382 . S
C509 C507 1.392 . S
C510 Eu481 2.828 . S
C510 O494 1.249 . S
C510 O495 1.244 . S
C510 C504 1.505 . S
C511 O498 1.258 . S
C511 O499 1.242 . S
H512 C484 0.930 . S
H513 C485 0.930 . S
H514 C486 0.930 . S
H515 C487 0.931 . S
H516 C505 0.930 . S
H517 C506 0.930 . S
H518 C507 0.930 . S
H519 C508 0.931 . S
Eu520 C529 2.828 . S
Eu520 O531 2.392 . S
Eu520 O533 2.418 . S
Eu520 O538 2.373 1_554 S
Eu520 O541 2.488 . S
Eu520 O542 2.471 . S
Eu520 O543 2.349 1_554 S
Eu521 O530 2.373 1_556 S
Eu521 O534 2.488 . S
Eu521 O535 2.471 . S
Eu521 O536 2.349 1_556 S
Eu521 O539 2.392 . S
Eu521 O540 2.418 . S
Eu521 C550 2.828 . S
C522 O540 1.244 . S
C522 O543 1.265 . S
C523 C524 1.379 1_554 S
C523 C527 1.373 . S
C523 C529 1.505 . S
C524 C523 1.379 1_556 S
C524 C526 1.369 . S
C524 H552 0.930 . S
C525 C527 1.383 . S
C525 C528 1.382 . S
C525 H553 0.930 . S
C526 C524 1.369 . S
C526 C528 1.392 1_556 S
C526 H554 0.930 . S
C527 C523 1.373 . S
C527 C525 1.383 . S
C527 H555 0.931 . S
C528 C525 1.382 . S
C528 C526 1.392 1_554 S
C529 Eu520 2.828 . S
C529 C523 1.505 . S
C529 O541 1.249 . S
C529 O542 1.244 . S
O530 Eu521 2.373 1_554 S
O530 C532 1.258 . S
O531 Eu520 2.392 . S
O531 C532 1.242 . S
C532 O530 1.258 . S
C532 O531 1.242 . S
O533 Eu520 2.418 . S
O533 C537 1.244 . S
O534 Eu521 2.488 . S
O534 C550 1.249 . S
O535 Eu521 2.471 . S
O535 C550 1.244 . S
O536 Eu521 2.349 1_554 S
O536 C537 1.265 . S
C537 O533 1.244 . S
C537 O536 1.265 . S
O538 Eu520 2.373 1_556 S
O538 C551 1.258 . S
O539 Eu521 2.392 . S
O539 C551 1.242 . S
O540 Eu521 2.418 . S
O540 C522 1.244 . S
O541 Eu520 2.488 . S
O541 C529 1.249 . S
O542 Eu520 2.471 . S
O542 C529 1.244 . S
O543 Eu520 2.349 1_556 S
O543 C522 1.265 . S
C544 C545 1.379 1_556 S
C544 C548 1.373 . S
C544 C550 1.505 . S
C545 C544 1.379 1_554 S
C545 C547 1.369 . S
C545 H556 0.930 . S
C546 C548 1.383 . S
C546 C549 1.382 . S
C546 H557 0.930 . S
C547 C545 1.369 . S
C547 C549 1.392 1_554 S
C547 H558 0.930 . S
C548 C544 1.373 . S
C548 C546 1.383 . S
C548 H559 0.931 . S
C549 C546 1.382 . S
C549 C547 1.392 1_556 S
C550 Eu521 2.828 . S
C550 O534 1.249 . S
C550 O535 1.244 . S
C550 C544 1.505 . S
C551 O538 1.258 . S
C551 O539 1.242 . S
H552 C524 0.930 . S
H553 C525 0.930 . S
H554 C526 0.930 . S
H555 C527 0.931 . S
H556 C545 0.930 . S
H557 C546 0.930 . S
H558 C547 0.930 . S
H559 C548 0.931 . S
Eu560 C569 2.828 . S
Eu560 O571 2.392 1_565 S
Eu560 O573 2.418 . S
Eu560 O578 2.373 . S
Eu560 O581 2.488 . S
Eu560 O582 2.471 . S
Eu560 O583 2.349 1_565 S
Eu561 O570 2.373 . S
Eu561 O574 2.488 . S
Eu561 O575 2.471 . S
Eu561 O576 2.349 1_545 S
Eu561 O579 2.392 1_545 S
Eu561 O580 2.418 . S
Eu561 C590 2.828 . S
C562 O580 1.244 . S
C562 O583 1.265 . S
C563 C564 1.379 . S
C563 C567 1.373 . S
C563 C569 1.505 . S
C564 C563 1.379 . S
C564 C566 1.369 . S
C564 H592 0.930 . S
C565 C567 1.383 . S
C565 C568 1.382 . S
C565 H593 0.930 . S
C566 C564 1.369 . S
C566 C568 1.392 . S
C566 H594 0.930 . S
C567 C563 1.373 . S
C567 C565 1.383 . S
C567 H595 0.931 . S
C568 C565 1.382 . S
C568 C566 1.392 . S
C569 Eu560 2.828 . S
C569 C563 1.505 . S
C569 O581 1.249 . S
C569 O582 1.244 . S
O570 Eu561 2.373 . S
O570 C572 1.258 . S
O571 Eu560 2.392 1_545 S
O571 C572 1.242 . S
C572 O570 1.258 . S
C572 O571 1.242 . S
O573 Eu560 2.418 . S
O573 C577 1.244 . S
O574 Eu561 2.488 . S
O574 C590 1.249 . S
O575 Eu561 2.471 . S
O575 C590 1.244 . S
O576 Eu561 2.349 1_565 S
O576 C577 1.265 . S
C577 O573 1.244 . S
C577 O576 1.265 . S
O578 Eu560 2.373 . S
O578 C591 1.258 . S
O579 Eu561 2.392 1_565 S
O579 C591 1.242 . S
O580 Eu561 2.418 . S
O580 C562 1.244 . S
O581 Eu560 2.488 . S
O581 C569 1.249 . S
O582 Eu560 2.471 . S
O582 C569 1.244 . S
O583 Eu560 2.349 1_545 S
O583 C562 1.265 . S
C584 C585 1.379 . S
C584 C588 1.373 . S
C584 C590 1.505 . S
C585 C584 1.379 . S
C585 C587 1.369 . S
C585 H596 0.930 . S
C586 C588 1.383 . S
C586 C589 1.382 . S
C586 H597 0.930 . S
C587 C585 1.369 . S
C587 C589 1.392 . S
C587 H598 0.930 . S
C588 C584 1.373 . S
C588 C586 1.383 . S
C588 H599 0.931 . S
C589 C586 1.382 . S
C589 C587 1.392 . S
C590 Eu561 2.828 . S
C590 O574 1.249 . S
C590 O575 1.244 . S
C590 C584 1.505 . S
C591 O578 1.258 . S
C591 O579 1.242 . S
H592 C564 0.930 . S
H593 C565 0.930 . S
H594 C566 0.930 . S
H595 C567 0.931 . S
H596 C585 0.930 . S
H597 C586 0.930 . S
H598 C587 0.930 . S
H599 C588 0.931 . S
Eu600 C609 2.828 . S
Eu600 O611 2.392 . S
Eu600 O613 2.418 . S
Eu600 O618 2.373 1_554 S
Eu600 O621 2.488 . S
Eu600 O622 2.471 . S
Eu600 O623 2.349 1_554 S
Eu601 O610 2.373 1_556 S
Eu601 O614 2.488 . S
Eu601 O615 2.471 . S
Eu601 O616 2.349 1_556 S
Eu601 O619 2.392 . S
Eu601 O620 2.418 . S
Eu601 C630 2.828 . S
C602 O620 1.244 . S
C602 O623 1.265 . S
C603 C604 1.379 . S
C603 C607 1.373 . S
C603 C609 1.505 . S
C604 C603 1.379 . S
C604 C606 1.369 . S
C604 H632 0.944 . S
C605 C607 1.383 . S
C605 C608 1.382 . S
C605 H633 0.930 . S
C606 C604 1.369 . S
C606 C608 1.392 . S
C606 H634 0.930 . S
C607 C603 1.373 . S
C607 C605 1.383 . S
C607 H635 0.931 . S
C608 C605 1.382 . S
C608 C606 1.392 . S
C609 Eu600 2.828 . S
C609 C603 1.505 . S
C609 O621 1.249 . S
C609 O622 1.244 . S
O610 Eu601 2.373 1_554 S
O610 C612 1.258 . S
O611 Eu600 2.392 . S
O611 C612 1.242 . S
C612 O610 1.258 . S
C612 O611 1.242 . S
O613 Eu600 2.418 . S
O613 C617 1.244 . S
O614 Eu601 2.488 . S
O614 C630 1.249 . S
O615 Eu601 2.471 . S
O615 C630 1.244 . S
O616 Eu601 2.349 1_554 S
O616 C617 1.265 . S
C617 O613 1.244 . S
C617 O616 1.265 . S
O618 Eu600 2.373 1_556 S
O618 C631 1.258 . S
O619 Eu601 2.392 . S
O619 C631 1.242 . S
O620 Eu601 2.418 . S
O620 C602 1.244 . S
O621 Eu600 2.488 . S
O621 C609 1.249 . S
O622 Eu600 2.471 . S
O622 C609 1.244 . S
O623 Eu600 2.349 1_556 S
O623 C602 1.265 . S
C624 C625 1.379 . S
C624 C628 1.373 . S
C624 C630 1.505 . S
C625 C624 1.379 . S
C625 C627 1.369 . S
C625 H636 0.927 . S
C626 C628 1.383 . S
C626 C629 1.382 . S
C626 H637 0.930 . S
C627 C625 1.369 . S
C627 C629 1.392 . S
C627 H638 0.930 . S
C628 C624 1.373 . S
C628 C626 1.383 . S
C628 H639 0.931 . S
C629 C626 1.382 . S
C629 C627 1.392 . S
C630 Eu601 2.828 . S
C630 O614 1.249 . S
C630 O615 1.244 . S
C630 C624 1.505 . S
C631 O618 1.258 . S
C631 O619 1.242 . S
H632 C604 0.944 . S
H633 C605 0.930 . S
H634 C606 0.930 . S
H635 C607 0.931 . S
H636 C625 0.927 . S
H637 C626 0.930 . S
H638 C627 0.930 . S
H639 C628 0.931 . S
C640 C641 1.391 . S
C640 C642 1.394 . S
C640 H656 0.931 . S
C641 C640 1.391 . S
C641 C645 1.376 1_655 S
C642 C640 1.394 . S
C642 C643 1.369 . S
C642 C646 1.531 . S
C643 C642 1.369 . S
C643 C644 1.410 1_655 S
C643 C651 1.503 1_655 S
C644 C643 1.410 1_455 S
C644 C645 1.392 . S
C644 C647 1.511 . S
C645 C641 1.376 1_455 S
C645 C644 1.392 . S
C645 H657 0.929 . S
C646 C642 1.531 . S
C646 H658 0.960 . S
C646 H659 0.962 . S
C646 H660 0.960 . S
C647 C644 1.511 . S
C647 H661 0.961 1_554 S
C647 H662 0.961 . S
C647 H663 0.961 . S
C648 C649 1.370 1_655 S
C648 C650 1.363 . S
C648 H664 0.931 . S
C649 C648 1.370 1_455 S
C649 C653 1.408 . S
C650 C648 1.363 . S
C650 C651 1.370 1_655 S
C650 C654 1.524 . S
C651 C643 1.503 1_455 S
C651 C650 1.370 1_455 S
C651 C652 1.403 . S
C652 C651 1.403 . S
C652 C653 1.404 . S
C652 C655 1.539 . S
C653 C649 1.408 . S
C653 C652 1.404 . S
C653 H665 0.930 . S
C654 C650 1.524 . S
C654 H666 0.956 . S
C654 H667 0.961 . S
C654 H668 0.961 . S
C655 C652 1.539 . S
C655 H669 0.958 . S
C655 H670 0.961 . S
C655 H671 0.960 . S
H656 C640 0.931 . S
H657 C645 0.929 . S
H658 C646 0.960 . S
H659 C646 0.962 . S
H660 C646 0.960 . S
H661 C647 0.961 1_556 S
H662 C647 0.961 . S
H663 C647 0.961 . S
H664 C648 0.931 . S
H665 C653 0.930 . S
H666 C654 0.956 . S
H667 C654 0.961 . S
H668 C654 0.961 . S
H669 C655 0.958 . S
H670 C655 0.961 . S
H671 C655 0.960 . S
C672 C673 1.391 . S
C672 C674 1.394 . S
C672 H688 0.931 . S
C673 C672 1.391 . S
C673 C677 1.376 . S
C674 C672 1.394 . S
C674 C675 1.369 . S
C674 C678 1.531 . S
C675 C674 1.369 . S
C675 C676 1.410 . S
C675 C683 1.503 . S
C676 C675 1.410 . S
C676 C677 1.392 . S
C676 C679 1.511 . S
C677 C673 1.376 . S
C677 C676 1.392 . S
C677 H689 0.929 . S
C678 C674 1.531 . S
C678 H690 0.960 . S
C678 H691 0.962 . S
C678 H692 0.960 . S
C679 C676 1.511 . S
C679 H693 0.961 . S
C679 H694 0.961 . S
C679 H695 0.961 . S
C680 C681 1.370 . S
C680 C682 1.363 . S
C680 H696 0.931 . S
C681 C680 1.370 . S
C681 C685 1.408 . S
C682 C680 1.363 . S
C682 C683 1.370 . S
C682 C686 1.524 . S
C683 C675 1.503 . S
C683 C682 1.370 . S
C683 C684 1.403 . S
C684 C683 1.403 . S
C684 C685 1.404 . S
C684 C687 1.539 . S
C685 C681 1.408 . S
C685 C684 1.404 . S
C685 H697 0.930 . S
C686 C682 1.524 . S
C686 H698 0.956 . S
C686 H699 0.961 . S
C686 H700 0.961 . S
C687 C684 1.539 . S
C687 H701 0.958 . S
C687 H702 0.961 . S
C687 H703 0.960 . S
H688 C672 0.931 . S
H689 C677 0.929 . S
H690 C678 0.960 . S
H691 C678 0.962 . S
H692 C678 0.960 . S
H693 C679 0.961 . S
H694 C679 0.961 . S
H695 C679 0.961 . S
H696 C680 0.931 . S
H697 C685 0.930 . S
H698 C686 0.956 . S
H699 C686 0.961 . S
H700 C686 0.961 . S
H701 C687 0.958 . S
H702 C687 0.961 . S
H703 C687 0.960 . S
C704 C705 1.391 . S
C704 C706 1.394 . S
C704 H720 0.931 . S
C705 C704 1.391 . S
C705 C709 1.376 . S
C706 C704 1.394 . S
C706 C707 1.369 . S
C706 C710 1.531 . S
C707 C706 1.369 . S
C707 C708 1.410 . S
C707 C715 1.503 . S
C708 C707 1.410 . S
C708 C709 1.392 . S
C708 C711 1.511 . S
C709 C705 1.376 . S
C709 C708 1.392 . S
C709 H721 0.929 . S
C710 C706 1.531 . S
C710 H722 0.960 . S
C710 H723 0.962 . S
C710 H724 0.960 . S
C711 C708 1.511 . S
C711 H725 0.961 . S
C711 H726 0.961 . S
C711 H727 0.961 . S
C712 C713 1.370 . S
C712 C714 1.363 . S
C712 H728 0.931 . S
C713 C712 1.370 . S
C713 C717 1.408 . S
C714 C712 1.363 . S
C714 C715 1.370 . S
C714 C718 1.524 . S
C715 C707 1.503 . S
C715 C714 1.370 . S
C715 C716 1.403 . S
C716 C715 1.403 . S
C716 C717 1.404 . S
C716 C719 1.539 . S
C717 C713 1.408 . S
C717 C716 1.404 . S
C717 H729 0.930 . S
C718 C714 1.524 . S
C718 H730 0.956 . S
C718 H731 0.961 . S
C718 H732 0.961 . S
C719 C716 1.539 . S
C719 H733 0.958 . S
C719 H734 0.961 . S
C719 H735 0.960 . S
H720 C704 0.931 . S
H721 C709 0.929 . S
H722 C710 0.960 . S
H723 C710 0.962 . S
H724 C710 0.960 . S
H725 C711 0.961 . S
H726 C711 0.961 . S
H727 C711 0.961 . S
H728 C712 0.931 . S
H729 C717 0.930 . S
H730 C718 0.956 . S
H731 C718 0.961 . S
H732 C718 0.961 . S
H733 C719 0.958 . S
H734 C719 0.961 . S
H735 C719 0.960 . S
C736 C737 1.391 . S
C736 C738 1.394 . S
C736 H752 0.931 . S
C737 C736 1.391 . S
C737 C741 1.376 . S
C738 C736 1.394 . S
C738 C739 1.369 . S
C738 C742 1.531 . S
C739 C738 1.369 . S
C739 C740 1.410 1_545 S
C739 C747 1.503 1_545 S
C740 C739 1.410 1_565 S
C740 C741 1.392 1_565 S
C740 C743 1.511 . S
C741 C737 1.376 . S
C741 C740 1.392 1_545 S
C741 H753 0.929 1_545 S
C742 C738 1.531 . S
C742 H754 0.960 . S
C742 H755 0.962 . S
C742 H756 0.960 . S
C743 C740 1.511 . S
C743 H757 0.961 . S
C743 H758 0.961 . S
C743 H759 0.961 . S
C744 C745 1.370 . S
C744 C746 1.363 . S
C744 H760 0.931 . S
C745 C744 1.370 . S
C745 C749 1.408 . S
C746 C744 1.363 . S
C746 C747 1.370 . S
C746 C750 1.524 . S
C747 C739 1.503 1_565 S
C747 C746 1.370 . S
C747 C748 1.403 . S
C748 C747 1.403 . S
C748 C749 1.404 . S
C748 C751 1.539 . S
C749 C745 1.408 . S
C749 C748 1.404 . S
C749 H761 0.930 . S
C750 C746 1.524 . S
C750 H762 0.956 1_565 S
C750 H763 0.961 . S
C750 H764 0.961 . S
C751 C748 1.539 . S
C751 H765 0.958 1_565 S
C751 H766 0.961 . S
C751 H767 0.960 . S
H752 C736 0.931 . S
H753 C741 0.929 1_565 S
H754 C742 0.960 . S
H755 C742 0.962 . S
H756 C742 0.960 . S
H757 C743 0.961 . S
H758 C743 0.961 . S
H759 C743 0.961 . S
H760 C744 0.931 . S
H761 C749 0.930 . S
H762 C750 0.956 1_545 S
H763 C750 0.961 . S
H764 C750 0.961 . S
H765 C751 0.958 1_545 S
H766 C751 0.961 . S
H767 C751 0.960 . S
C768 C769 1.391 . S
C768 C770 1.394 . S
C768 H784 0.931 . S
C769 C768 1.391 . S
C769 C773 1.376 . S
C770 C768 1.394 . S
C770 C771 1.369 . S
C770 C774 1.531 1_565 S
C771 C770 1.369 . S
C771 C772 1.410 . S
C771 C779 1.516 . S
C772 C771 1.410 . S
C772 C773 1.392 . S
C772 C775 1.511 . S
C773 C769 1.376 . S
C773 C772 1.392 . S
C773 H785 0.929 . S
C774 C770 1.531 1_545 S
C774 H786 0.960 . S
C774 H787 0.962 . S
C774 H788 0.960 . S
C775 C772 1.511 . S
C775 H789 0.961 . S
C775 H790 0.961 . S
C775 H791 0.961 . S
C776 C777 1.370 . S
C776 C778 1.363 . S
C776 H792 0.931 . S
C777 C776 1.370 . S
C777 C781 1.408 1_545 S
C778 C776 1.363 . S
C778 C779 1.355 1_545 S
C778 C782 1.524 . S
C779 C771 1.516 . S
C779 C778 1.355 1_565 S
C779 C780 1.405 . S
C780 C779 1.405 . S
C780 C781 1.404 . S
C780 C783 1.539 . S
C781 C777 1.408 1_565 S
C781 C780 1.404 . S
C781 H793 0.930 . S
C782 C778 1.524 . S
C782 H794 0.956 . S
C782 H795 0.961 . S
C782 H796 0.961 . S
C783 C780 1.539 . S
C783 H797 0.958 . S
C783 H798 0.961 . S
C783 H799 0.960 . S
H784 C768 0.931 . S
H785 C773 0.929 . S
H786 C774 0.960 . S
H787 C774 0.962 . S
H788 C774 0.960 . S
H789 C775 0.961 . S
H790 C775 0.961 . S
H791 C775 0.961 . S
H792 C776 0.931 . S
H793 C781 0.930 . S
H794 C782 0.956 . S
H795 C782 0.961 . S
H796 C782 0.961 . S
H797 C783 0.958 . S
H798 C783 0.961 . S
H799 C783 0.960 . S
C800 C801 1.391 1_655 S
C800 C802 1.394 . S
C800 H816 0.931 . S
C801 C800 1.391 1_455 S
C801 C805 1.376 . S
C802 C800 1.394 . S
C802 C803 1.369 1_655 S
C802 C806 1.531 . S
C803 C802 1.369 1_455 S
C803 C804 1.410 . S
C803 C811 1.503 . S
C804 C803 1.410 . S
C804 C805 1.392 . S
C804 C807 1.511 . S
C805 C801 1.376 . S
C805 C804 1.392 . S
C805 H817 0.929 . S
C806 C802 1.531 . S
C806 H818 0.960 . S
C806 H819 0.962 . S
C806 H820 0.960 . S
C807 C804 1.511 . S
C807 H821 0.961 . S
C807 H822 0.961 . S
C807 H823 0.961 . S
C808 C809 1.370 . S
C808 C810 1.357 1_655 S
C808 H824 0.931 . S
C809 C808 1.370 . S
C809 C813 1.408 . S
C810 C808 1.357 1_455 S
C810 C811 1.373 . S
C810 C814 1.528 . S
C811 C803 1.503 . S
C811 C810 1.373 . S
C811 C812 1.403 1_455 S
C812 C811 1.403 1_655 S
C812 C813 1.404 . S
C812 C815 1.539 1_655 S
C813 C809 1.408 . S
C813 C812 1.404 . S
C813 H825 0.930 . S
C814 C810 1.528 . S
C814 H826 0.956 1_455 S
C814 H827 0.961 . S
C814 H828 0.961 . S
C815 C812 1.539 1_455 S
C815 H829 0.958 1_455 S
C815 H830 0.961 . S
C815 H831 0.960 . S
H816 C800 0.931 . S
H817 C805 0.929 . S
H818 C806 0.960 . S
H819 C806 0.962 . S
H820 C806 0.960 . S
H821 C807 0.961 . S
H822 C807 0.961 . S
H823 C807 0.961 . S
H824 C808 0.931 . S
H825 C813 0.930 . S
H826 C814 0.956 1_655 S
H827 C814 0.961 . S
H828 C814 0.961 . S
H829 C815 0.958 1_655 S
H830 C815 0.961 . S
H831 C815 0.960 . S
C832 C833 1.391 . S
C832 C834 1.394 . S
C832 H848 0.931 . S
C833 C832 1.391 . S
C833 C837 1.376 . S
C834 C832 1.394 . S
C834 C835 1.369 . S
C834 C838 1.531 . S
C835 C834 1.369 . S
C835 C836 1.410 . S
C835 C843 1.503 . S
C836 C835 1.410 . S
C836 C837 1.392 . S
C836 C839 1.511 . S
C837 C833 1.376 . S
C837 C836 1.392 . S
C837 H849 0.929 . S
C838 C834 1.531 . S
C838 H850 0.960 . S
C838 H851 0.962 . S
C838 H852 0.960 . S
C839 C836 1.511 . S
C839 H853 0.961 . S
C839 H854 0.961 . S
C839 H855 0.961 . S
C840 C841 1.370 . S
C840 C842 1.363 . S
C840 H856 0.931 . S
C841 C840 1.370 . S
C841 C845 1.408 . S
C842 C840 1.363 . S
C842 C843 1.370 . S
C842 C846 1.524 . S
C843 C835 1.503 . S
C843 C842 1.370 . S
C843 C844 1.403 . S
C844 C843 1.403 . S
C844 C845 1.404 . S
C844 C847 1.539 . S
C845 C841 1.408 . S
C845 C844 1.404 . S
C845 H857 0.930 . S
C846 C842 1.524 . S
C846 H858 0.956 . S
C846 H859 0.961 . S
C846 H860 0.961 . S
C847 C844 1.539 . S
C847 H861 0.958 . S
C847 H862 0.961 . S
C847 H863 0.960 . S
H848 C832 0.931 . S
H849 C837 0.929 . S
H850 C838 0.960 . S
H851 C838 0.962 . S
H852 C838 0.960 . S
H853 C839 0.961 . S
H854 C839 0.961 . S
H855 C839 0.961 . S
H856 C840 0.931 . S
H857 C845 0.930 . S
H858 C846 0.956 . S
H859 C846 0.961 . S
H860 C846 0.961 . S
H861 C847 0.958 . S
H862 C847 0.961 . S
H863 C847 0.960 . S
C864 C865 1.391 . S
C864 C866 1.394 . S
C864 H880 0.931 . S
C865 C864 1.391 . S
C865 C869 1.376 . S
C866 C864 1.394 . S
C866 C867 1.369 . S
C866 C870 1.531 . S
C867 C866 1.369 . S
C867 C868 1.410 . S
C867 C875 1.503 . S
C868 C867 1.410 . S
C868 C869 1.392 . S
C868 C871 1.511 . S
C869 C865 1.376 . S
C869 C868 1.392 . S
C869 H881 0.929 . S
C870 C866 1.531 . S
C870 H882 0.960 . S
C870 H883 0.962 . S
C870 H884 0.960 . S
C871 C868 1.511 . S
C871 H885 0.961 . S
C871 H886 0.961 . S
C871 H887 0.961 . S
C872 C873 1.370 . S
C872 C874 1.363 . S
C872 H888 0.931 . S
C873 C872 1.370 . S
C873 C877 1.408 . S
C874 C872 1.363 . S
C874 C875 1.370 . S
C874 C878 1.524 . S
C875 C867 1.503 . S
C875 C874 1.370 . S
C875 C876 1.403 . S
C876 C875 1.403 . S
C876 C877 1.404 . S
C876 C879 1.539 . S
C877 C873 1.408 . S
C877 C876 1.404 . S
C877 H889 0.930 . S
C878 C874 1.524 . S
C878 H890 0.956 . S
C878 H891 0.961 . S
C878 H892 0.961 . S
C879 C876 1.539 . S
C879 H893 0.958 . S
C879 H894 0.961 . S
C879 H895 0.960 . S
H880 C864 0.931 . S
H881 C869 0.929 . S
H882 C870 0.960 . S
H883 C870 0.962 . S
H884 C870 0.960 . S
H885 C871 0.961 . S
H886 C871 0.961 . S
H887 C871 0.961 . S
H888 C872 0.931 . S
H889 C877 0.930 . S
H890 C878 0.956 . S
H891 C878 0.961 . S
H892 C878 0.961 . S
H893 C879 0.958 . S
H894 C879 0.961 . S
H895 C879 0.960 . S
C896 C897 1.391 . S
C896 C898 1.394 . S
C896 H912 0.931 . S
C897 C896 1.391 . S
C897 C901 1.376 . S
C898 C896 1.394 . S
C898 C899 1.369 . S
C898 C902 1.531 . S
C899 C898 1.369 . S
C899 C900 1.410 . S
C899 C907 1.503 . S
C900 C899 1.410 . S
C900 C901 1.392 . S
C900 C903 1.511 . S
C901 C897 1.376 . S
C901 C900 1.392 . S
C901 H913 0.929 . S
C902 C898 1.531 . S
C902 H914 0.960 . S
C902 H915 0.962 . S
C902 H916 0.960 . S
C903 C900 1.511 . S
C903 H917 0.961 . S
C903 H918 0.961 . S
C903 H919 0.961 . S
C904 C905 1.370 . S
C904 C906 1.363 . S
C904 H920 0.931 . S
C905 C904 1.370 . S
C905 C909 1.408 . S
C906 C904 1.363 . S
C906 C907 1.370 . S
C906 C910 1.524 . S
C907 C899 1.503 . S
C907 C906 1.370 . S
C907 C908 1.403 . S
C908 C907 1.403 . S
C908 C909 1.404 . S
C908 C911 1.539 . S
C909 C905 1.408 . S
C909 C908 1.404 . S
C909 H921 0.930 . S
C910 C906 1.524 . S
C910 H922 0.956 . S
C910 H923 0.961 . S
C910 H924 0.961 . S
C911 C908 1.539 . S
C911 H925 0.958 . S
C911 H926 0.961 . S
C911 H927 0.960 . S
H912 C896 0.931 . S
H913 C901 0.929 . S
H914 C902 0.960 . S
H915 C902 0.962 . S
H916 C902 0.960 . S
H917 C903 0.961 . S
H918 C903 0.961 . S
H919 C903 0.961 . S
H920 C904 0.931 . S
H921 C909 0.930 . S
H922 C910 0.956 . S
H923 C910 0.961 . S
H924 C910 0.961 . S
H925 C911 0.958 . S
H926 C911 0.961 . S
H927 C911 0.960 . S
C928 C929 1.391 . S
C928 C930 1.394 . S
C928 H944 0.931 . S
C929 C928 1.391 . S
C929 C933 1.376 . S
C930 C928 1.394 . S
C930 C931 1.369 . S
C930 C934 1.531 . S
C931 C930 1.369 . S
C931 C932 1.410 . S
C931 C939 1.503 . S
C932 C931 1.410 . S
C932 C933 1.392 . S
C932 C935 1.511 . S
C933 C929 1.376 . S
C933 C932 1.392 . S
C933 H945 0.929 . S
C934 C930 1.531 . S
C934 H946 0.960 . S
C934 H947 0.962 . S
C934 H948 0.960 . S
C935 C932 1.511 . S
C935 H949 0.961 . S
C935 H950 0.961 . S
C935 H951 0.961 . S
C936 C937 1.370 . S
C936 C938 1.363 . S
C936 H952 0.931 . S
C937 C936 1.370 . S
C937 C941 1.408 . S
C938 C936 1.363 . S
C938 C939 1.370 . S
C938 C942 1.524 . S
C939 C931 1.503 . S
C939 C938 1.370 . S
C939 C940 1.403 . S
C940 C939 1.403 . S
C940 C941 1.404 . S
C940 C943 1.539 . S
C941 C937 1.408 . S
C941 C940 1.404 . S
C941 H953 0.930 . S
C942 C938 1.524 . S
C942 H954 0.956 . S
C942 H955 0.961 . S
C942 H956 0.961 . S
C943 C940 1.539 . S
C943 H957 0.958 . S
C943 H958 0.961 . S
C943 H959 0.960 . S
H944 C928 0.931 . S
H945 C933 0.929 . S
H946 C934 0.960 . S
H947 C934 0.962 . S
H948 C934 0.960 . S
H949 C935 0.961 . S
H950 C935 0.961 . S
H951 C935 0.961 . S
H952 C936 0.931 . S
H953 C941 0.930 . S
H954 C942 0.956 . S
H955 C942 0.961 . S
H956 C942 0.961 . S
H957 C943 0.958 . S
H958 C943 0.961 . S
H959 C943 0.960 . S
C960 C961 1.391 . S
C960 C962 1.394 . S
C960 H976 0.931 . S
C961 C960 1.391 . S
C961 C965 1.376 . S
C962 C960 1.394 . S
C962 C963 1.369 . S
C962 C966 1.531 . S
C963 C962 1.369 . S
C963 C964 1.410 1_565 S
C963 C971 1.503 1_565 S
C964 C963 1.410 1_545 S
C964 C965 1.392 1_545 S
C964 C967 1.511 . S
C965 C961 1.376 . S
C965 C964 1.392 1_565 S
C965 H977 0.929 . S
C966 C962 1.531 . S
C966 H978 0.960 . S
C966 H979 0.962 . S
C966 H980 0.960 . S
C967 C964 1.511 . S
C967 H981 0.961 . S
C967 H982 0.961 . S
C967 H983 0.961 . S
C968 C969 1.374 . S
C968 C970 1.360 1_545 S
C968 H984 0.930 1_545 S
C969 C968 1.374 . S
C969 C973 1.408 . S
C970 C968 1.360 1_565 S
C970 C971 1.370 1_565 S
C970 C974 1.524 . S
C971 C963 1.503 1_545 S
C971 C970 1.370 1_545 S
C971 C972 1.403 . S
C972 C971 1.403 . S
C972 C973 1.404 . S
C972 C975 1.539 . S
C973 C969 1.408 . S
C973 C972 1.404 . S
C973 H985 0.930 . S
C974 C970 1.524 . S
C974 H986 0.956 . S
C974 H987 0.961 . S
C974 H988 0.961 . S
C975 C972 1.539 . S
C975 H989 0.958 . S
C975 H990 0.961 . S
C975 H991 0.960 . S
H976 C960 0.931 . S
H977 C965 0.929 . S
H978 C966 0.960 . S
H979 C966 0.962 . S
H980 C966 0.960 . S
H981 C967 0.961 . S
H982 C967 0.961 . S
H983 C967 0.961 . S
H984 C968 0.930 1_565 S
H985 C973 0.930 . S
H986 C974 0.956 . S
H987 C974 0.961 . S
H988 C974 0.961 . S
H989 C975 0.958 . S
H990 C975 0.961 . S
H991 C975 0.960 . S
C992 C993 1.391 . S
C992 C994 1.394 . S
C992 H1008 0.931 . S
C993 C992 1.391 . S
C993 C997 1.376 1_455 S
C994 C992 1.394 . S
C994 C995 1.369 . S
C994 C998 1.531 . S
C995 C994 1.369 . S
C995 C996 1.410 1_455 S
C995 C1003 1.520 . S
C996 C995 1.410 1_655 S
C996 C997 1.392 . S
C996 C999 1.511 . S
C997 C993 1.376 1_655 S
C997 C996 1.392 . S
C997 H1009 0.929 . S
C998 C994 1.531 . S
C998 H1010 0.960 . S
C998 H1011 0.962 . S
C998 H1012 0.960 . S
C999 C996 1.511 . S
C999 H1013 0.961 . S
C999 H1014 0.961 . S
C999 H1015 0.961 . S
C1000 C1001 1.370 1_455 S
C1000 C1002 1.363 . S
C1000 H1016 0.931 . S
C1001 C1000 1.370 1_655 S
C1001 C1005 1.408 . S
C1002 C1000 1.363 . S
C1002 C1003 1.371 . S
C1002 C1006 1.524 . S
C1003 C995 1.520 . S
C1003 C1002 1.371 . S
C1003 C1004 1.386 1_455 S
C1004 C1003 1.386 1_655 S
C1004 C1005 1.404 . S
C1004 C1007 1.539 . S
C1005 C1001 1.408 . S
C1005 C1004 1.404 . S
C1005 H1017 0.930 . S
C1006 C1002 1.524 . S
C1006 H1018 0.956 . S
C1006 H1019 0.961 . S
C1006 H1020 0.961 . S
C1007 C1004 1.539 . S
C1007 H1021 0.958 1_556 S
C1007 H1022 0.961 1_556 S
C1007 H1023 0.960 . S
H1008 C992 0.931 . S
H1009 C997 0.929 . S
H1010 C998 0.960 . S
H1011 C998 0.962 . S
H1012 C998 0.960 . S
H1013 C999 0.961 . S
H1014 C999 0.961 . S
H1015 C999 0.961 . S
H1016 C1000 0.931 . S
H1017 C1005 0.930 . S
H1018 C1006 0.956 . S
H1019 C1006 0.961 . S
H1020 C1006 0.961 . S
H1021 C1007 0.958 1_554 S
H1022 C1007 0.961 1_554 S
H1023 C1007 0.960 . S
C1024 C1025 1.391 . S
C1024 C1026 1.394 . S
C1024 H1040 0.931 . S
C1025 C1024 1.391 . S
C1025 C1029 1.376 . S
C1026 C1024 1.394 . S
C1026 C1027 1.369 . S
C1026 C1030 1.531 1_556 S
C1027 C1026 1.369 . S
C1027 C1028 1.410 . S
C1027 C1035 1.503 . S
C1028 C1027 1.410 . S
C1028 C1029 1.392 . S
C1028 C1031 1.511 . S
C1029 C1025 1.376 . S
C1029 C1028 1.392 . S
C1029 H1041 0.929 . S
C1030 C1026 1.531 1_554 S
C1030 H1042 0.960 . S
C1030 H1043 0.962 1_554 S
C1030 H1044 0.960 . S
C1031 C1028 1.511 . S
C1031 H1045 0.961 . S
C1031 H1046 0.961 . S
C1031 H1047 0.961 . S
C1032 C1033 1.370 . S
C1032 C1034 1.363 . S
C1032 H1048 0.931 . S
C1033 C1032 1.370 . S
C1033 C1037 1.408 1_556 S
C1034 C1032 1.363 . S
C1034 C1035 1.370 . S
C1034 C1038 1.524 . S
C1035 C1027 1.503 . S
C1035 C1034 1.370 . S
C1035 C1036 1.403 1_556 S
C1036 C1035 1.403 1_554 S
C1036 C1037 1.404 . S
C1036 C1039 1.539 . S
C1037 C1033 1.408 1_554 S
C1037 C1036 1.404 . S
C1037 H1049 0.930 . S
C1038 C1034 1.524 . S
C1038 H1050 0.956 . S
C1038 H1051 0.961 . S
C1038 H1052 0.961 . S
C1039 C1036 1.539 . S
C1039 H1053 0.958 . S
C1039 H1054 0.961 . S
C1039 H1055 0.960 . S
H1040 C1024 0.931 . S
H1041 C1029 0.929 . S
H1042 C1030 0.960 . S
H1043 C1030 0.962 1_556 S
H1044 C1030 0.960 . S
H1045 C1031 0.961 . S
H1046 C1031 0.961 . S
H1047 C1031 0.961 . S
H1048 C1032 0.931 . S
H1049 C1037 0.930 . S
H1050 C1038 0.956 . S
H1051 C1038 0.961 . S
H1052 C1038 0.961 . S
H1053 C1039 0.958 . S
H1054 C1039 0.961 . S
H1055 C1039 0.960 . S
C1056 C1057 1.391 . S
C1056 C1058 1.394 . S
C1056 H1072 0.931 . S
C1057 C1056 1.391 . S
C1057 C1061 1.376 . S
C1058 C1056 1.394 . S
C1058 C1059 1.369 . S
C1058 C1062 1.531 . S
C1059 C1058 1.369 . S
C1059 C1060 1.410 . S
C1059 C1067 1.503 . S
C1060 C1059 1.410 . S
C1060 C1061 1.392 . S
C1060 C1063 1.511 . S
C1061 C1057 1.376 . S
C1061 C1060 1.392 . S
C1061 H1073 0.929 . S
C1062 C1058 1.531 . S
C1062 H1074 0.960 . S
C1062 H1075 0.962 . S
C1062 H1076 0.960 . S
C1063 C1060 1.511 . S
C1063 H1077 0.961 . S
C1063 H1078 0.961 . S
C1063 H1079 0.961 . S
C1064 C1065 1.370 . S
C1064 C1066 1.363 . S
C1064 H1080 0.931 . S
C1065 C1064 1.370 . S
C1065 C1069 1.408 . S
C1066 C1064 1.363 . S
C1066 C1067 1.370 . S
C1066 C1070 1.524 . S
C1067 C1059 1.503 . S
C1067 C1066 1.370 . S
C1067 C1068 1.403 . S
C1068 C1067 1.403 . S
C1068 C1069 1.404 . S
C1068 C1071 1.539 . S
C1069 C1065 1.408 . S
C1069 C1068 1.404 . S
C1069 H1081 0.930 . S
C1070 C1066 1.524 . S
C1070 H1082 0.956 . S
C1070 H1083 0.961 . S
C1070 H1084 0.961 . S
C1071 C1068 1.539 . S
C1071 H1085 0.958 . S
C1071 H1086 0.961 . S
C1071 H1087 0.960 . S
H1072 C1056 0.931 . S
H1073 C1061 0.929 . S
H1074 C1062 0.960 . S
H1075 C1062 0.962 . S
H1076 C1062 0.960 . S
H1077 C1063 0.961 . S
H1078 C1063 0.961 . S
H1079 C1063 0.961 . S
H1080 C1064 0.931 . S
H1081 C1069 0.930 . S
H1082 C1070 0.956 . S
H1083 C1070 0.961 . S
H1084 C1070 0.961 . S
H1085 C1071 0.958 . S
H1086 C1071 0.961 . S
H1087 C1071 0.960 . S
C1088 C1089 1.391 . S
C1088 C1090 1.394 . S
C1088 H1104 0.931 . S
C1089 C1088 1.391 . S
C1089 C1093 1.376 . S
C1090 C1088 1.394 . S
C1090 C1091 1.369 . S
C1090 C1094 1.531 . S
C1091 C1090 1.369 . S
C1091 C1092 1.410 . S
C1091 C1099 1.503 . S
C1092 C1091 1.410 . S
C1092 C1093 1.392 . S
C1092 C1095 1.511 . S
C1093 C1089 1.376 . S
C1093 C1092 1.392 . S
C1093 H1105 0.929 . S
C1094 C1090 1.531 . S
C1094 H1106 0.960 . S
C1094 H1107 0.962 . S
C1094 H1108 0.960 . S
C1095 C1092 1.511 . S
C1095 H1109 0.961 . S
C1095 H1110 0.961 . S
C1095 H1111 0.961 . S
C1096 C1097 1.370 . S
C1096 C1098 1.363 . S
C1096 H1112 0.931 . S
C1097 C1096 1.370 . S
C1097 C1101 1.408 . S
C1098 C1096 1.363 . S
C1098 C1099 1.370 . S
C1098 C1102 1.524 . S
C1099 C1091 1.503 . S
C1099 C1098 1.370 . S
C1099 C1100 1.403 . S
C1100 C1099 1.403 . S
C1100 C1101 1.404 . S
C1100 C1103 1.539 . S
C1101 C1097 1.408 . S
C1101 C1100 1.404 . S
C1101 H1113 0.930 . S
C1102 C1098 1.524 . S
C1102 H1114 0.956 . S
C1102 H1115 0.961 . S
C1102 H1116 0.961 . S
C1103 C1100 1.539 . S
C1103 H1117 0.958 . S
C1103 H1118 0.961 . S
C1103 H1119 0.960 . S
H1104 C1088 0.931 . S
H1105 C1093 0.929 . S
H1106 C1094 0.960 . S
H1107 C1094 0.962 . S
H1108 C1094 0.960 . S
H1109 C1095 0.961 . S
H1110 C1095 0.961 . S
H1111 C1095 0.961 . S
H1112 C1096 0.931 . S
H1113 C1101 0.930 . S
H1114 C1102 0.956 . S
H1115 C1102 0.961 . S
H1116 C1102 0.961 . S
H1117 C1103 0.958 . S
H1118 C1103 0.961 . S
H1119 C1103 0.960 . S
C1120 C1121 1.391 . S
C1120 C1122 1.394 . S
C1120 H1136 0.931 . S
C1121 C1120 1.391 . S
C1121 C1125 1.376 . S
C1122 C1120 1.394 . S
C1122 C1123 1.369 . S
C1122 C1126 1.531 . S
C1123 C1122 1.369 . S
C1123 C1124 1.410 . S
C1123 C1131 1.503 . S
C1124 C1123 1.410 . S
C1124 C1125 1.392 . S
C1124 C1127 1.511 . S
C1125 C1121 1.376 . S
C1125 C1124 1.392 . S
C1125 H1137 0.929 . S
C1126 C1122 1.531 . S
C1126 H1138 0.960 . S
C1126 H1139 0.962 . S
C1126 H1140 0.960 . S
C1127 C1124 1.511 . S
C1127 H1141 0.961 . S
C1127 H1142 0.961 . S
C1127 H1143 0.961 . S
C1128 C1129 1.370 . S
C1128 C1130 1.363 . S
C1128 H1144 0.931 . S
C1129 C1128 1.370 . S
C1129 C1133 1.408 . S
C1130 C1128 1.363 . S
C1130 C1131 1.370 . S
C1130 C1134 1.524 . S
C1131 C1123 1.503 . S
C1131 C1130 1.370 . S
C1131 C1132 1.403 . S
C1132 C1131 1.403 . S
C1132 C1133 1.404 . S
C1132 C1135 1.539 . S
C1133 C1129 1.408 . S
C1133 C1132 1.404 . S
C1133 H1145 0.930 . S
C1134 C1130 1.524 . S
C1134 H1146 0.956 . S
C1134 H1147 0.961 . S
C1134 H1148 0.961 . S
C1135 C1132 1.539 . S
C1135 H1149 0.958 . S
C1135 H1150 0.961 . S
C1135 H1151 0.960 . S
H1136 C1120 0.931 . S
H1137 C1125 0.929 . S
H1138 C1126 0.960 . S
H1139 C1126 0.962 . S
H1140 C1126 0.960 . S
H1141 C1127 0.961 . S
H1142 C1127 0.961 . S
H1143 C1127 0.961 . S
H1144 C1128 0.931 . S
H1145 C1133 0.930 . S
H1146 C1134 0.956 . S
H1147 C1134 0.961 . S
H1148 C1134 0.961 . S
H1149 C1135 0.958 . S
H1150 C1135 0.961 . S
H1151 C1135 0.960 . S
C1152 C1153 1.391 . S
C1152 C1154 1.394 . S
C1152 H1168 0.931 . S
C1153 C1152 1.391 . S
C1153 C1157 1.376 . S
C1154 C1152 1.394 . S
C1154 C1155 1.369 . S
C1154 C1158 1.531 . S
C1155 C1154 1.369 . S
C1155 C1156 1.410 . S
C1155 C1163 1.503 . S
C1156 C1155 1.410 . S
C1156 C1157 1.392 . S
C1156 C1159 1.511 . S
C1157 C1153 1.376 . S
C1157 C1156 1.392 . S
C1157 H1169 0.929 . S
C1158 C1154 1.531 . S
C1158 H1170 0.960 . S
C1158 H1171 0.962 . S
C1158 H1172 0.960 . S
C1159 C1156 1.511 . S
C1159 H1173 0.961 . S
C1159 H1174 0.961 . S
C1159 H1175 0.961 . S
C1160 C1161 1.370 . S
C1160 C1162 1.363 . S
C1160 H1176 0.931 . S
C1161 C1160 1.370 . S
C1161 C1165 1.408 . S
C1162 C1160 1.363 . S
C1162 C1163 1.370 . S
C1162 C1166 1.524 . S
C1163 C1155 1.503 . S
C1163 C1162 1.370 . S
C1163 C1164 1.403 . S
C1164 C1163 1.403 . S
C1164 C1165 1.404 . S
C1164 C1167 1.539 . S
C1165 C1161 1.408 . S
C1165 C1164 1.404 . S
C1165 H1177 0.930 . S
C1166 C1162 1.524 . S
C1166 H1178 0.956 . S
C1166 H1179 0.961 . S
C1166 H1180 0.961 . S
C1167 C1164 1.539 . S
C1167 H1181 0.958 . S
C1167 H1182 0.961 . S
C1167 H1183 0.960 . S
H1168 C1152 0.931 . S
H1169 C1157 0.929 . S
H1170 C1158 0.960 . S
H1171 C1158 0.962 . S
H1172 C1158 0.960 . S
H1173 C1159 0.961 . S
H1174 C1159 0.961 . S
H1175 C1159 0.961 . S
H1176 C1160 0.931 . S
H1177 C1165 0.930 . S
H1178 C1166 0.956 . S
H1179 C1166 0.961 . S
H1180 C1166 0.961 . S
H1181 C1167 0.958 . S
H1182 C1167 0.961 . S
H1183 C1167 0.960 . S
C1184 C1185 1.391 . S
C1184 C1186 1.394 . S
C1184 H1200 0.931 . S
C1185 C1184 1.391 . S
C1185 C1189 1.376 . S
C1186 C1184 1.394 . S
C1186 C1187 1.369 . S
C1186 C1190 1.531 . S
C1187 C1186 1.369 . S
C1187 C1188 1.410 . S
C1187 C1195 1.503 . S
C1188 C1187 1.410 . S
C1188 C1189 1.392 . S
C1188 C1191 1.511 . S
C1189 C1185 1.376 . S
C1189 C1188 1.392 . S
C1189 H1201 0.929 . S
C1190 C1186 1.531 . S
C1190 H1202 0.960 . S
C1190 H1203 0.962 . S
C1190 H1204 0.960 . S
C1191 C1188 1.511 . S
C1191 H1205 0.961 . S
C1191 H1206 0.961 . S
C1191 H1207 0.961 . S
C1192 C1193 1.370 . S
C1192 C1194 1.363 . S
C1192 H1208 0.931 . S
C1193 C1192 1.370 . S
C1193 C1197 1.408 . S
C1194 C1192 1.363 . S
C1194 C1195 1.370 . S
C1194 C1198 1.524 . S
C1195 C1187 1.503 . S
C1195 C1194 1.370 . S
C1195 C1196 1.403 . S
C1196 C1195 1.403 . S
C1196 C1197 1.404 . S
C1196 C1199 1.539 . S
C1197 C1193 1.408 . S
C1197 C1196 1.404 . S
C1197 H1209 0.930 . S
C1198 C1194 1.524 . S
C1198 H1210 0.956 . S
C1198 H1211 0.961 . S
C1198 H1212 0.961 . S
C1199 C1196 1.539 . S
C1199 H1213 0.958 . S
C1199 H1214 0.961 . S
C1199 H1215 0.960 . S
H1200 C1184 0.931 . S
H1201 C1189 0.929 . S
H1202 C1190 0.960 . S
H1203 C1190 0.962 . S
H1204 C1190 0.960 . S
H1205 C1191 0.961 . S
H1206 C1191 0.961 . S
H1207 C1191 0.961 . S
H1208 C1192 0.931 . S
H1209 C1197 0.930 . S
H1210 C1198 0.956 . S
H1211 C1198 0.961 . S
H1212 C1198 0.961 . S
H1213 C1199 0.958 . S
H1214 C1199 0.961 . S
H1215 C1199 0.960 . S
C1216 C1217 1.391 . S
C1216 C1218 1.394 . S
C1216 H1232 0.931 . S
C1217 C1216 1.391 . S
C1217 C1221 1.376 . S
C1218 C1216 1.394 . S
C1218 C1219 1.369 . S
C1218 C1222 1.531 . S
C1219 C1218 1.369 . S
C1219 C1220 1.410 . S
C1219 C1227 1.503 . S
C1220 C1219 1.410 . S
C1220 C1221 1.392 . S
C1220 C1223 1.511 . S
C1221 C1217 1.376 . S
C1221 C1220 1.392 . S
C1221 H1233 0.929 . S
C1222 C1218 1.531 . S
C1222 H1234 0.960 . S
C1222 H1235 0.962 . S
C1222 H1236 0.960 . S
C1223 C1220 1.511 . S
C1223 H1237 0.961 . S
C1223 H1238 0.961 . S
C1223 H1239 0.961 . S
C1224 C1225 1.370 . S
C1224 C1226 1.363 . S
C1224 H1240 0.931 . S
C1225 C1224 1.370 . S
C1225 C1229 1.408 . S
C1226 C1224 1.363 . S
C1226 C1227 1.370 . S
C1226 C1230 1.524 . S
C1227 C1219 1.503 . S
C1227 C1226 1.370 . S
C1227 C1228 1.403 . S
C1228 C1227 1.403 . S
C1228 C1229 1.404 . S
C1228 C1231 1.539 . S
C1229 C1225 1.408 . S
C1229 C1228 1.404 . S
C1229 H1241 0.930 . S
C1230 C1226 1.524 . S
C1230 H1242 0.956 . S
C1230 H1243 0.961 . S
C1230 H1244 0.961 . S
C1231 C1228 1.539 . S
C1231 H1245 0.958 . S
C1231 H1246 0.961 . S
C1231 H1247 0.960 . S
H1232 C1216 0.931 . S
H1233 C1221 0.929 . S
H1234 C1222 0.960 . S
H1235 C1222 0.962 . S
H1236 C1222 0.960 . S
H1237 C1223 0.961 . S
H1238 C1223 0.961 . S
H1239 C1223 0.961 . S
H1240 C1224 0.931 . S
H1241 C1229 0.930 . S
H1242 C1230 0.956 . S
H1243 C1230 0.961 . S
H1244 C1230 0.961 . S
H1245 C1231 0.958 . S
H1246 C1231 0.961 . S
H1247 C1231 0.960 . S
C1248 C1249 1.391 . S
C1248 C1250 1.394 . S
C1248 H1264 0.931 . S
C1249 C1248 1.391 . S
C1249 C1253 1.376 . S
C1250 C1248 1.394 . S
C1250 C1251 1.369 . S
C1250 C1254 1.531 . S
C1251 C1250 1.369 . S
C1251 C1252 1.410 . S
C1251 C1259 1.503 . S
C1252 C1251 1.410 . S
C1252 C1253 1.392 . S
C1252 C1255 1.511 . S
C1253 C1249 1.376 . S
C1253 C1252 1.392 . S
C1253 H1265 0.929 . S
C1254 C1250 1.531 . S
C1254 H1266 0.960 . S
C1254 H1267 0.962 . S
C1254 H1268 0.960 . S
C1255 C1252 1.511 . S
C1255 H1269 0.961 . S
C1255 H1270 0.961 . S
C1255 H1271 0.961 . S
C1256 C1257 1.370 . S
C1256 C1258 1.363 . S
C1256 H1272 0.931 . S
C1257 C1256 1.370 . S
C1257 C1261 1.408 . S
C1258 C1256 1.363 . S
C1258 C1259 1.370 . S
C1258 C1262 1.524 . S
C1259 C1251 1.503 . S
C1259 C1258 1.370 . S
C1259 C1260 1.403 . S
C1260 C1259 1.403 . S
C1260 C1261 1.404 . S
C1260 C1263 1.539 . S
C1261 C1257 1.408 . S
C1261 C1260 1.404 . S
C1261 H1273 0.930 . S
C1262 C1258 1.524 . S
C1262 H1274 0.956 . S
C1262 H1275 0.961 . S
C1262 H1276 0.961 . S
C1263 C1260 1.539 . S
C1263 H1277 0.958 . S
C1263 H1278 0.961 . S
C1263 H1279 0.960 . S
H1264 C1248 0.931 . S
H1265 C1253 0.929 . S
H1266 C1254 0.960 . S
H1267 C1254 0.962 . S
H1268 C1254 0.960 . S
H1269 C1255 0.961 . S
H1270 C1255 0.961 . S
H1271 C1255 0.961 . S
H1272 C1256 0.931 . S
H1273 C1261 0.930 . S
H1274 C1262 0.956 . S
H1275 C1262 0.961 . S
H1276 C1262 0.961 . S
H1277 C1263 0.958 . S
H1278 C1263 0.961 . S
H1279 C1263 0.960 . S
C1280 C1281 1.391 . S
C1280 C1282 1.394 . S
C1280 H1296 0.931 . S
C1281 C1280 1.391 . S
C1281 C1285 1.376 . S
C1282 C1280 1.394 . S
C1282 C1283 1.369 . S
C1282 C1286 1.531 . S
C1283 C1282 1.369 . S
C1283 C1284 1.410 . S
C1283 C1291 1.503 . S
C1284 C1283 1.410 . S
C1284 C1285 1.392 . S
C1284 C1287 1.511 . S
C1285 C1281 1.376 . S
C1285 C1284 1.392 . S
C1285 H1297 0.929 . S
C1286 C1282 1.531 . S
C1286 H1298 0.960 . S
C1286 H1299 0.962 . S
C1286 H1300 0.960 . S
C1287 C1284 1.511 . S
C1287 H1301 0.961 . S
C1287 H1302 0.961 . S
C1287 H1303 0.961 . S
C1288 C1289 1.370 . S
C1288 C1290 1.363 . S
C1288 H1304 0.931 . S
C1289 C1288 1.370 . S
C1289 C1293 1.408 . S
C1290 C1288 1.363 . S
C1290 C1291 1.370 . S
C1290 C1294 1.524 . S
C1291 C1283 1.503 . S
C1291 C1290 1.370 . S
C1291 C1292 1.403 . S
C1292 C1291 1.403 . S
C1292 C1293 1.404 . S
C1292 C1295 1.539 . S
C1293 C1289 1.408 . S
C1293 C1292 1.404 . S
C1293 H1305 0.930 . S
C1294 C1290 1.524 . S
C1294 H1306 0.956 . S
C1294 H1307 0.961 . S
C1294 H1308 0.961 . S
C1295 C1292 1.539 . S
C1295 H1309 0.958 . S
C1295 H1310 0.961 . S
C1295 H1311 0.960 . S
H1296 C1280 0.931 . S
H1297 C1285 0.929 . S
H1298 C1286 0.960 . S
H1299 C1286 0.962 . S
H1300 C1286 0.960 . S
H1301 C1287 0.961 . S
H1302 C1287 0.961 . S
H1303 C1287 0.961 . S
H1304 C1288 0.931 . S
H1305 C1293 0.930 . S
H1306 C1294 0.956 . S
H1307 C1294 0.961 . S
H1308 C1294 0.961 . S
H1309 C1295 0.958 . S
H1310 C1295 0.961 . S
H1311 C1295 0.960 . S
C1312 C1313 1.391 . S
C1312 C1314 1.394 . S
C1312 H1328 0.931 . S
C1313 C1312 1.391 . S
C1313 C1317 1.376 1_455 S
C1314 C1312 1.394 . S
C1314 C1315 1.369 1_455 S
C1314 C1318 1.531 . S
C1315 C1314 1.369 1_655 S
C1315 C1316 1.410 . S
C1315 C1323 1.503 . S
C1316 C1315 1.410 . S
C1316 C1317 1.392 . S
C1316 C1319 1.511 . S
C1317 C1313 1.376 1_655 S
C1317 C1316 1.392 . S
C1317 H1329 0.929 . S
C1318 C1314 1.531 . S
C1318 H1330 0.960 . S
C1318 H1331 0.962 . S
C1318 H1332 0.960 . S
C1319 C1316 1.511 . S
C1319 H1333 0.961 . S
C1319 H1334 0.961 . S
C1319 H1335 0.961 . S
C1320 C1321 1.370 . S
C1320 C1322 1.363 1_655 S
C1320 H1336 0.931 1_655 S
C1321 C1320 1.370 . S
C1321 C1325 1.408 . S
C1322 C1320 1.363 1_455 S
C1322 C1323 1.370 1_455 S
C1322 C1326 1.524 . S
C1323 C1315 1.503 . S
C1323 C1322 1.370 1_655 S
C1323 C1324 1.403 . S
C1324 C1323 1.403 . S
C1324 C1325 1.404 . S
C1324 C1327 1.539 . S
C1325 C1321 1.408 . S
C1325 C1324 1.404 . S
C1325 H1337 0.930 . S
C1326 C1322 1.524 . S
C1326 H1338 0.956 . S
C1326 H1339 0.961 . S
C1326 H1340 0.961 . S
C1327 C1324 1.539 . S
C1327 H1341 0.958 . S
C1327 H1342 0.961 . S
C1327 H1343 0.960 . S
H1328 C1312 0.931 . S
H1329 C1317 0.929 . S
H1330 C1318 0.960 . S
H1331 C1318 0.962 . S
H1332 C1318 0.960 . S
H1333 C1319 0.961 . S
H1334 C1319 0.961 . S
H1335 C1319 0.961 . S
H1336 C1320 0.931 1_455 S
H1337 C1325 0.930 . S
H1338 C1326 0.956 . S
H1339 C1326 0.961 . S
H1340 C1326 0.961 . S
H1341 C1327 0.958 . S
H1342 C1327 0.961 . S
H1343 C1327 0.960 . S
C1344 C1345 1.391 . S
C1344 C1346 1.394 . S
C1344 H1360 0.931 . S
C1345 C1344 1.391 . S
C1345 C1349 1.376 . S
C1346 C1344 1.394 . S
C1346 C1347 1.369 . S
C1346 C1350 1.531 . S
C1347 C1346 1.369 . S
C1347 C1348 1.410 . S
C1347 C1355 1.503 . S
C1348 C1347 1.410 . S
C1348 C1349 1.392 . S
C1348 C1351 1.511 . S
C1349 C1345 1.376 . S
C1349 C1348 1.392 . S
C1349 H1361 0.929 . S
C1350 C1346 1.531 . S
C1350 H1362 0.960 . S
C1350 H1363 0.962 . S
C1350 H1364 0.960 . S
C1351 C1348 1.511 . S
C1351 H1365 0.961 . S
C1351 H1366 0.961 . S
C1351 H1367 0.961 . S
C1352 C1353 1.370 . S
C1352 C1354 1.363 . S
C1352 H1368 0.931 . S
C1353 C1352 1.370 . S
C1353 C1357 1.408 . S
C1354 C1352 1.363 . S
C1354 C1355 1.370 . S
C1354 C1358 1.524 . S
C1355 C1347 1.503 . S
C1355 C1354 1.370 . S
C1355 C1356 1.403 . S
C1356 C1355 1.403 . S
C1356 C1357 1.404 . S
C1356 C1359 1.539 . S
C1357 C1353 1.408 . S
C1357 C1356 1.404 . S
C1357 H1369 0.930 . S
C1358 C1354 1.524 . S
C1358 H1370 0.956 . S
C1358 H1371 0.961 . S
C1358 H1372 0.961 . S
C1359 C1356 1.539 . S
C1359 H1373 0.958 . S
C1359 H1374 0.961 . S
C1359 H1375 0.960 . S
H1360 C1344 0.931 . S
H1361 C1349 0.929 . S
H1362 C1350 0.960 . S
H1363 C1350 0.962 . S
H1364 C1350 0.960 . S
H1365 C1351 0.961 . S
H1366 C1351 0.961 . S
H1367 C1351 0.961 . S
H1368 C1352 0.931 . S
H1369 C1357 0.930 . S
H1370 C1358 0.956 . S
H1371 C1358 0.961 . S
H1372 C1358 0.961 . S
H1373 C1359 0.958 . S
H1374 C1359 0.961 . S
H1375 C1359 0.960 . S
C1376 C1377 1.391 . S
C1376 C1378 1.394 . S
C1376 H1392 0.931 . S
C1377 C1376 1.391 . S
C1377 C1381 1.376 . S
C1378 C1376 1.394 . S
C1378 C1379 1.369 . S
C1378 C1382 1.531 . S
C1379 C1378 1.369 . S
C1379 C1380 1.410 . S
C1379 C1387 1.503 . S
C1380 C1379 1.410 . S
C1380 C1381 1.392 . S
C1380 C1383 1.511 . S
C1381 C1377 1.376 . S
C1381 C1380 1.392 . S
C1381 H1393 0.929 . S
C1382 C1378 1.531 . S
C1382 H1394 0.960 . S
C1382 H1395 0.962 . S
C1382 H1396 0.960 . S
C1383 C1380 1.511 . S
C1383 H1397 0.961 . S
C1383 H1398 0.961 . S
C1383 H1399 0.961 . S
C1384 C1385 1.370 . S
C1384 C1386 1.363 . S
C1384 H1400 0.931 . S
C1385 C1384 1.370 . S
C1385 C1389 1.408 . S
C1386 C1384 1.363 . S
C1386 C1387 1.370 . S
C1386 C1390 1.524 . S
C1387 C1379 1.503 . S
C1387 C1386 1.370 . S
C1387 C1388 1.403 . S
C1388 C1387 1.403 . S
C1388 C1389 1.404 . S
C1388 C1391 1.539 . S
C1389 C1385 1.408 . S
C1389 C1388 1.404 . S
C1389 H1401 0.930 . S
C1390 C1386 1.524 . S
C1390 H1402 0.956 . S
C1390 H1403 0.961 . S
C1390 H1404 0.961 . S
C1391 C1388 1.539 . S
C1391 H1405 0.958 . S
C1391 H1406 0.961 . S
C1391 H1407 0.960 . S
H1392 C1376 0.931 . S
H1393 C1381 0.929 . S
H1394 C1382 0.960 . S
H1395 C1382 0.962 . S
H1396 C1382 0.960 . S
H1397 C1383 0.961 . S
H1398 C1383 0.961 . S
H1399 C1383 0.961 . S
H1400 C1384 0.931 . S
H1401 C1389 0.930 . S
H1402 C1390 0.956 . S
H1403 C1390 0.961 . S
H1404 C1390 0.961 . S
H1405 C1391 0.958 . S
H1406 C1391 0.961 . S
H1407 C1391 0.960 . S
C1408 C1409 1.391 . S
C1408 C1410 1.394 . S
C1408 H1424 0.931 . S
C1409 C1408 1.391 . S
C1409 C1413 1.376 . S
C1410 C1408 1.394 . S
C1410 C1411 1.369 . S
C1410 C1414 1.531 . S
C1411 C1410 1.369 . S
C1411 C1412 1.410 . S
C1411 C1419 1.503 . S
C1412 C1411 1.410 . S
C1412 C1413 1.392 . S
C1412 C1415 1.511 . S
C1413 C1409 1.376 . S
C1413 C1412 1.392 . S
C1413 H1425 0.929 . S
C1414 C1410 1.531 . S
C1414 H1426 0.960 . S
C1414 H1427 0.962 . S
C1414 H1428 0.960 . S
C1415 C1412 1.511 . S
C1415 H1429 0.961 . S
C1415 H1430 0.961 . S
C1415 H1431 0.961 . S
C1416 C1417 1.370 . S
C1416 C1418 1.363 . S
C1416 H1432 0.931 . S
C1417 C1416 1.370 . S
C1417 C1421 1.408 . S
C1418 C1416 1.363 . S
C1418 C1419 1.370 . S
C1418 C1422 1.524 . S
C1419 C1411 1.503 . S
C1419 C1418 1.370 . S
C1419 C1420 1.403 . S
C1420 C1419 1.403 . S
C1420 C1421 1.404 . S
C1420 C1423 1.539 . S
C1421 C1417 1.408 . S
C1421 C1420 1.404 . S
C1421 H1433 0.930 . S
C1422 C1418 1.524 . S
C1422 H1434 0.956 . S
C1422 H1435 0.961 . S
C1422 H1436 0.961 . S
C1423 C1420 1.539 . S
C1423 H1437 0.958 . S
C1423 H1438 0.961 . S
C1423 H1439 0.960 . S
H1424 C1408 0.931 . S
H1425 C1413 0.929 . S
H1426 C1414 0.960 . S
H1427 C1414 0.962 . S
H1428 C1414 0.960 . S
H1429 C1415 0.961 . S
H1430 C1415 0.961 . S
H1431 C1415 0.961 . S
H1432 C1416 0.931 . S
H1433 C1421 0.930 . S
H1434 C1422 0.956 . S
H1435 C1422 0.961 . S
H1436 C1422 0.961 . S
H1437 C1423 0.958 . S
H1438 C1423 0.961 . S
H1439 C1423 0.960 . S
C1440 C1441 1.391 . S
C1440 C1442 1.394 . S
C1440 H1456 0.931 . S
C1441 C1440 1.391 . S
C1441 C1445 1.376 . S
C1442 C1440 1.394 . S
C1442 C1443 1.369 . S
C1442 C1446 1.531 . S
C1443 C1442 1.369 . S
C1443 C1444 1.410 . S
C1443 C1451 1.503 . S
C1444 C1443 1.410 . S
C1444 C1445 1.392 . S
C1444 C1447 1.511 . S
C1445 C1441 1.376 . S
C1445 C1444 1.392 . S
C1445 H1457 0.929 . S
C1446 C1442 1.531 . S
C1446 H1458 0.960 . S
C1446 H1459 0.962 . S
C1446 H1460 0.960 . S
C1447 C1444 1.511 . S
C1447 H1461 0.961 . S
C1447 H1462 0.961 . S
C1447 H1463 0.961 . S
C1448 C1449 1.370 . S
C1448 C1450 1.363 . S
C1448 H1464 0.931 . S
C1449 C1448 1.370 . S
C1449 C1453 1.408 . S
C1450 C1448 1.363 . S
C1450 C1451 1.370 . S
C1450 C1454 1.524 . S
C1451 C1443 1.503 . S
C1451 C1450 1.370 . S
C1451 C1452 1.403 . S
C1452 C1451 1.403 . S
C1452 C1453 1.404 . S
C1452 C1455 1.539 . S
C1453 C1449 1.408 . S
C1453 C1452 1.404 . S
C1453 H1465 0.930 . S
C1454 C1450 1.524 . S
C1454 H1466 0.956 . S
C1454 H1467 0.961 . S
C1454 H1468 0.961 . S
C1455 C1452 1.539 . S
C1455 H1469 0.958 . S
C1455 H1470 0.961 . S
C1455 H1471 0.960 . S
H1456 C1440 0.931 . S
H1457 C1445 0.929 . S
H1458 C1446 0.960 . S
H1459 C1446 0.962 . S
H1460 C1446 0.960 . S
H1461 C1447 0.961 . S
H1462 C1447 0.961 . S
H1463 C1447 0.961 . S
H1464 C1448 0.931 . S
H1465 C1453 0.930 . S
H1466 C1454 0.956 . S
H1467 C1454 0.961 . S
H1468 C1454 0.961 . S
H1469 C1455 0.958 . S
H1470 C1455 0.961 . S
H1471 C1455 0.960 . S
C1472 C1473 1.391 . S
C1472 C1474 1.394 . S
C1472 H1488 0.931 . S
C1473 C1472 1.391 . S
C1473 C1477 1.376 . S
C1474 C1472 1.394 . S
C1474 C1475 1.369 . S
C1474 C1478 1.531 . S
C1475 C1474 1.369 . S
C1475 C1476 1.409 1_565 S
C1475 C1483 1.503 1_565 S
C1476 C1475 1.409 1_545 S
C1476 C1477 1.375 1_545 S
C1476 C1479 1.529 . S
C1477 C1473 1.376 . S
C1477 C1476 1.375 1_565 S
C1477 H1489 0.929 . S
C1478 C1474 1.531 . S
C1478 H1490 0.960 . S
C1478 H1491 0.962 . S
C1478 H1492 0.960 . S
C1479 C1476 1.529 . S
C1479 H1493 0.961 . S
C1479 H1494 0.961 . S
C1479 H1495 0.961 . S
C1480 C1481 1.370 . S
C1480 C1482 1.363 . S
C1480 H1496 0.931 . S
C1481 C1480 1.370 . S
C1481 C1485 1.408 . S
C1482 C1480 1.363 . S
C1482 C1483 1.370 . S
C1482 C1486 1.524 . S
C1483 C1475 1.503 1_545 S
C1483 C1482 1.370 . S
C1483 C1484 1.403 1_545 S
C1484 C1483 1.403 1_565 S
C1484 C1485 1.404 1_565 S
C1484 C1487 1.539 . S
C1485 C1481 1.408 . S
C1485 C1484 1.404 1_545 S
C1485 H1497 0.930 1_545 S
C1486 C1482 1.524 . S
C1486 H1498 0.956 . S
C1486 H1499 0.961 . S
C1486 H1500 0.961 . S
C1487 C1484 1.539 . S
C1487 H1501 0.958 . S
C1487 H1502 0.961 . S
C1487 H1503 0.960 . S
H1488 C1472 0.931 . S
H1489 C1477 0.929 . S
H1490 C1478 0.960 . S
H1491 C1478 0.962 . S
H1492 C1478 0.960 . S
H1493 C1479 0.961 . S
H1494 C1479 0.961 . S
H1495 C1479 0.961 . S
H1496 C1480 0.931 . S
H1497 C1485 0.930 1_565 S
H1498 C1486 0.956 . S
H1499 C1486 0.961 . S
H1500 C1486 0.961 . S
H1501 C1487 0.958 . S
H1502 C1487 0.961 . S
H1503 C1487 0.960 . S
C1504 C1505 1.391 1_556 S
C1504 C1506 1.394 1_556 S
C1504 H1520 0.931 . S
C1505 C1504 1.391 1_554 S
C1505 C1509 1.376 . S
C1506 C1504 1.394 1_554 S
C1506 C1507 1.369 . S
C1506 C1510 1.531 1_554 S
C1507 C1506 1.369 . S
C1507 C1508 1.410 . S
C1507 C1515 1.503 . S
C1508 C1507 1.410 . S
C1508 C1509 1.392 . S
C1508 C1511 1.511 . S
C1509 C1505 1.376 . S
C1509 C1508 1.392 . S
C1509 H1521 0.929 . S
C1510 C1506 1.531 1_556 S
C1510 H1522 0.960 . S
C1510 H1523 0.962 . S
C1510 H1524 0.960 . S
C1511 C1508 1.511 . S
C1511 H1525 0.961 . S
C1511 H1526 0.961 . S
C1511 H1527 0.961 . S
C1512 C1513 1.370 . S
C1512 C1514 1.363 . S
C1512 H1528 0.931 . S
C1513 C1512 1.370 . S
C1513 C1517 1.408 . S
C1514 C1512 1.363 . S
C1514 C1515 1.370 . S
C1514 C1518 1.524 . S
C1515 C1507 1.503 . S
C1515 C1514 1.370 . S
C1515 C1516 1.403 . S
C1516 C1515 1.403 . S
C1516 C1517 1.404 . S
C1516 C1519 1.539 . S
C1517 C1513 1.408 . S
C1517 C1516 1.404 . S
C1517 H1529 0.930 . S
C1518 C1514 1.524 . S
C1518 H1530 0.956 1_554 S
C1518 H1531 0.961 . S
C1518 H1532 0.964 . S
C1519 C1516 1.539 . S
C1519 H1533 0.958 . S
C1519 H1534 0.961 . S
C1519 H1535 0.960 . S
H1520 C1504 0.931 . S
H1521 C1509 0.929 . S
H1522 C1510 0.960 . S
H1523 C1510 0.962 . S
H1524 C1510 0.960 . S
H1525 C1511 0.961 . S
H1526 C1511 0.961 . S
H1527 C1511 0.961 . S
H1528 C1512 0.931 . S
H1529 C1517 0.930 . S
H1530 C1518 0.956 1_556 S
H1531 C1518 0.961 . S
H1532 C1518 0.964 . S
H1533 C1519 0.958 . S
H1534 C1519 0.961 . S
H1535 C1519 0.960 . S
C1536 C1537 1.391 . S
C1536 C1538 1.394 . S
C1536 H1552 0.931 . S
C1537 C1536 1.391 . S
C1537 C1541 1.376 . S
C1538 C1536 1.394 . S
C1538 C1539 1.369 . S
C1538 C1542 1.531 . S
C1539 C1538 1.369 . S
C1539 C1540 1.410 . S
C1539 C1547 1.503 . S
C1540 C1539 1.410 . S
C1540 C1541 1.392 . S
C1540 C1543 1.511 . S
C1541 C1537 1.376 . S
C1541 C1540 1.392 . S
C1541 H1553 0.929 . S
C1542 C1538 1.531 . S
C1542 H1554 0.960 . S
C1542 H1555 0.962 . S
C1542 H1556 0.960 . S
C1543 C1540 1.511 . S
C1543 H1557 0.961 . S
C1543 H1558 0.961 . S
C1543 H1559 0.961 . S
C1544 C1545 1.370 . S
C1544 C1546 1.363 . S
C1544 H1560 0.931 . S
C1545 C1544 1.370 . S
C1545 C1549 1.408 . S
C1546 C1544 1.363 . S
C1546 C1547 1.370 . S
C1546 C1550 1.524 . S
C1547 C1539 1.503 . S
C1547 C1546 1.370 . S
C1547 C1548 1.403 . S
C1548 C1547 1.403 . S
C1548 C1549 1.404 . S
C1548 C1551 1.539 . S
C1549 C1545 1.408 . S
C1549 C1548 1.404 . S
C1549 H1561 0.930 . S
C1550 C1546 1.524 . S
C1550 H1562 0.956 . S
C1550 H1563 0.961 . S
C1550 H1564 0.961 . S
C1551 C1548 1.539 . S
C1551 H1565 0.958 . S
C1551 H1566 0.961 . S
C1551 H1567 0.960 . S
H1552 C1536 0.931 . S
H1553 C1541 0.929 . S
H1554 C1542 0.960 . S
H1555 C1542 0.962 . S
H1556 C1542 0.960 . S
H1557 C1543 0.961 . S
H1558 C1543 0.961 . S
H1559 C1543 0.961 . S
H1560 C1544 0.931 . S
H1561 C1549 0.930 . S
H1562 C1550 0.956 . S
H1563 C1550 0.961 . S
H1564 C1550 0.961 . S
H1565 C1551 0.958 . S
H1566 C1551 0.961 . S
H1567 C1551 0.960 . S
C1568 C1569 1.391 . S
C1568 C1570 1.394 . S
C1568 H1584 0.931 . S
C1569 C1568 1.391 . S
C1569 C1573 1.376 . S
C1570 C1568 1.394 . S
C1570 C1571 1.369 . S
C1570 C1574 1.531 . S
C1571 C1570 1.369 . S
C1571 C1572 1.410 . S
C1571 C1579 1.503 . S
C1572 C1571 1.410 . S
C1572 C1573 1.392 . S
C1572 C1575 1.511 . S
C1573 C1569 1.376 . S
C1573 C1572 1.392 . S
C1573 H1585 0.929 . S
C1574 C1570 1.531 . S
C1574 H1586 0.960 . S
C1574 H1587 0.962 . S
C1574 H1588 0.960 . S
C1575 C1572 1.511 . S
C1575 H1589 0.961 . S
C1575 H1590 0.961 . S
C1575 H1591 0.961 . S
C1576 C1577 1.370 . S
C1576 C1578 1.363 . S
C1576 H1592 0.931 . S
C1577 C1576 1.370 . S
C1577 C1581 1.408 . S
C1578 C1576 1.363 . S
C1578 C1579 1.370 . S
C1578 C1582 1.524 . S
C1579 C1571 1.503 . S
C1579 C1578 1.370 . S
C1579 C1580 1.403 . S
C1580 C1579 1.403 . S
C1580 C1581 1.404 . S
C1580 C1583 1.539 . S
C1581 C1577 1.408 . S
C1581 C1580 1.404 . S
C1581 H1593 0.930 . S
C1582 C1578 1.524 . S
C1582 H1594 0.956 . S
C1582 H1595 0.961 . S
C1582 H1596 0.961 . S
C1583 C1580 1.539 . S
C1583 H1597 0.958 . S
C1583 H1598 0.961 . S
C1583 H1599 0.960 . S
H1584 C1568 0.931 . S
H1585 C1573 0.929 . S
H1586 C1574 0.960 . S
H1587 C1574 0.962 . S
H1588 C1574 0.960 . S
H1589 C1575 0.961 . S
H1590 C1575 0.961 . S
H1591 C1575 0.961 . S
H1592 C1576 0.931 . S
H1593 C1581 0.930 . S
H1594 C1582 0.956 . S
H1595 C1582 0.961 . S
H1596 C1582 0.961 . S
H1597 C1583 0.958 . S
H1598 C1583 0.961 . S
H1599 C1583 0.960 . S
C1600 C1601 1.391 . S
C1600 C1602 1.394 . S
C1600 H1616 0.931 . S
C1601 C1600 1.391 . S
C1601 C1605 1.376 . S
C1602 C1600 1.394 . S
C1602 C1603 1.369 . S
C1602 C1606 1.531 . S
C1603 C1602 1.369 . S
C1603 C1604 1.410 . S
C1603 C1611 1.503 . S
C1604 C1603 1.410 . S
C1604 C1605 1.392 . S
C1604 C1607 1.511 . S
C1605 C1601 1.376 . S
C1605 C1604 1.392 . S
C1605 H1617 0.929 . S
C1606 C1602 1.531 . S
C1606 H1618 0.960 . S
C1606 H1619 0.962 . S
C1606 H1620 0.960 . S
C1607 C1604 1.511 . S
C1607 H1621 0.961 . S
C1607 H1622 0.961 . S
C1607 H1623 0.961 . S
C1608 C1609 1.370 . S
C1608 C1610 1.363 . S
C1608 H1624 0.931 . S
C1609 C1608 1.370 . S
C1609 C1613 1.408 . S
C1610 C1608 1.363 . S
C1610 C1611 1.370 . S
C1610 C1614 1.524 . S
C1611 C1603 1.503 . S
C1611 C1610 1.370 . S
C1611 C1612 1.403 . S
C1612 C1611 1.403 . S
C1612 C1613 1.404 . S
C1612 C1615 1.539 . S
C1613 C1609 1.408 . S
C1613 C1612 1.404 . S
C1613 H1625 0.930 . S
C1614 C1610 1.524 . S
C1614 H1626 0.956 . S
C1614 H1627 0.961 . S
C1614 H1628 0.961 . S
C1615 C1612 1.539 . S
C1615 H1629 0.958 . S
C1615 H1630 0.961 . S
C1615 H1631 0.960 . S
H1616 C1600 0.931 . S
H1617 C1605 0.929 . S
H1618 C1606 0.960 . S
H1619 C1606 0.962 . S
H1620 C1606 0.960 . S
H1621 C1607 0.961 . S
H1622 C1607 0.961 . S
H1623 C1607 0.961 . S
H1624 C1608 0.931 . S
H1625 C1613 0.930 . S
H1626 C1614 0.956 . S
H1627 C1614 0.961 . S
H1628 C1614 0.961 . S
H1629 C1615 0.958 . S
H1630 C1615 0.961 . S
H1631 C1615 0.960 . S
C1632 C1633 1.391 . S
C1632 C1634 1.394 . S
C1632 H1648 0.931 . S
C1633 C1632 1.391 . S
C1633 C1637 1.376 . S
C1634 C1632 1.394 . S
C1634 C1635 1.369 . S
C1634 C1638 1.531 . S
C1635 C1634 1.369 . S
C1635 C1636 1.410 . S
C1635 C1643 1.503 . S
C1636 C1635 1.410 . S
C1636 C1637 1.392 . S
C1636 C1639 1.511 . S
C1637 C1633 1.376 . S
C1637 C1636 1.392 . S
C1637 H1649 0.929 . S
C1638 C1634 1.531 . S
C1638 H1650 0.960 . S
C1638 H1651 0.962 . S
C1638 H1652 0.960 . S
C1639 C1636 1.511 . S
C1639 H1653 0.961 . S
C1639 H1654 0.961 . S
C1639 H1655 0.961 . S
C1640 C1641 1.370 . S
C1640 C1642 1.363 . S
C1640 H1656 0.931 . S
C1641 C1640 1.370 . S
C1641 C1645 1.408 . S
C1642 C1640 1.363 . S
C1642 C1643 1.370 . S
C1642 C1646 1.524 . S
C1643 C1635 1.503 . S
C1643 C1642 1.370 . S
C1643 C1644 1.403 . S
C1644 C1643 1.403 . S
C1644 C1645 1.404 . S
C1644 C1647 1.539 . S
C1645 C1641 1.408 . S
C1645 C1644 1.404 . S
C1645 H1657 0.930 . S
C1646 C1642 1.524 . S
C1646 H1658 0.956 . S
C1646 H1659 0.961 . S
C1646 H1660 0.961 . S
C1647 C1644 1.539 . S
C1647 H1661 0.958 . S
C1647 H1662 0.961 . S
C1647 H1663 0.960 . S
H1648 C1632 0.931 . S
H1649 C1637 0.929 . S
H1650 C1638 0.960 . S
H1651 C1638 0.962 . S
H1652 C1638 0.960 . S
H1653 C1639 0.961 . S
H1654 C1639 0.961 . S
H1655 C1639 0.961 . S
H1656 C1640 0.931 . S
H1657 C1645 0.930 . S
H1658 C1646 0.956 . S
H1659 C1646 0.961 . S
H1660 C1646 0.961 . S
H1661 C1647 0.958 . S
H1662 C1647 0.961 . S
H1663 C1647 0.960 . S
C1664 C1665 1.391 . S
C1664 C1666 1.394 . S
C1664 H1680 0.931 . S
C1665 C1664 1.391 . S
C1665 C1669 1.376 . S
C1666 C1664 1.394 . S
C1666 C1667 1.369 . S
C1666 C1670 1.531 . S
C1667 C1666 1.369 . S
C1667 C1668 1.410 . S
C1667 C1675 1.503 . S
C1668 C1667 1.410 . S
C1668 C1669 1.392 . S
C1668 C1671 1.511 . S
C1669 C1665 1.376 . S
C1669 C1668 1.392 . S
C1669 H1681 0.929 . S
C1670 C1666 1.531 . S
C1670 H1682 0.960 . S
C1670 H1683 0.962 . S
C1670 H1684 0.960 . S
C1671 C1668 1.511 . S
C1671 H1685 0.961 . S
C1671 H1686 0.961 . S
C1671 H1687 0.961 . S
C1672 C1673 1.370 . S
C1672 C1674 1.363 . S
C1672 H1688 0.931 . S
C1673 C1672 1.370 . S
C1673 C1677 1.408 . S
C1674 C1672 1.363 . S
C1674 C1675 1.370 . S
C1674 C1678 1.524 . S
C1675 C1667 1.503 . S
C1675 C1674 1.370 . S
C1675 C1676 1.403 . S
C1676 C1675 1.403 . S
C1676 C1677 1.404 . S
C1676 C1679 1.539 . S
C1677 C1673 1.408 . S
C1677 C1676 1.404 . S
C1677 H1689 0.930 . S
C1678 C1674 1.524 . S
C1678 H1690 0.956 . S
C1678 H1691 0.961 . S
C1678 H1692 0.961 . S
C1679 C1676 1.539 . S
C1679 H1693 0.958 . S
C1679 H1694 0.961 . S
C1679 H1695 0.960 . S
H1680 C1664 0.931 . S
H1681 C1669 0.929 . S
H1682 C1670 0.960 . S
H1683 C1670 0.962 . S
H1684 C1670 0.960 . S
H1685 C1671 0.961 . S
H1686 C1671 0.961 . S
H1687 C1671 0.961 . S
H1688 C1672 0.931 . S
H1689 C1677 0.930 . S
H1690 C1678 0.956 . S
H1691 C1678 0.961 . S
H1692 C1678 0.961 . S
H1693 C1679 0.958 . S
H1694 C1679 0.961 . S
H1695 C1679 0.960 . S
C1696 C1697 1.391 . S
C1696 C1698 1.394 . S
C1696 H1712 0.931 . S
C1697 C1696 1.391 . S
C1697 C1701 1.376 . S
C1698 C1696 1.394 . S
C1698 C1699 1.369 . S
C1698 C1702 1.531 . S
C1699 C1698 1.369 . S
C1699 C1700 1.410 . S
C1699 C1707 1.503 . S
C1700 C1699 1.410 . S
C1700 C1701 1.392 . S
C1700 C1703 1.511 . S
C1701 C1697 1.376 . S
C1701 C1700 1.392 . S
C1701 H1713 0.929 . S
C1702 C1698 1.531 . S
C1702 H1714 0.960 . S
C1702 H1715 0.962 . S
C1702 H1716 0.960 . S
C1703 C1700 1.511 . S
C1703 H1717 0.961 . S
C1703 H1718 0.961 . S
C1703 H1719 0.961 . S
C1704 C1705 1.370 . S
C1704 C1706 1.363 . S
C1704 H1720 0.931 . S
C1705 C1704 1.370 . S
C1705 C1709 1.408 . S
C1706 C1704 1.363 . S
C1706 C1707 1.370 . S
C1706 C1710 1.524 . S
C1707 C1699 1.503 . S
C1707 C1706 1.370 . S
C1707 C1708 1.403 . S
C1708 C1707 1.403 . S
C1708 C1709 1.404 . S
C1708 C1711 1.539 . S
C1709 C1705 1.408 . S
C1709 C1708 1.404 . S
C1709 H1721 0.930 . S
C1710 C1706 1.524 . S
C1710 H1722 0.956 . S
C1710 H1723 0.961 . S
C1710 H1724 0.961 . S
C1711 C1708 1.539 . S
C1711 H1725 0.958 . S
C1711 H1726 0.961 . S
C1711 H1727 0.960 . S
H1712 C1696 0.931 . S
H1713 C1701 0.929 . S
H1714 C1702 0.960 . S
H1715 C1702 0.962 . S
H1716 C1702 0.960 . S
H1717 C1703 0.961 . S
H1718 C1703 0.961 . S
H1719 C1703 0.961 . S
H1720 C1704 0.931 . S
H1721 C1709 0.930 . S
H1722 C1710 0.956 . S
H1723 C1710 0.961 . S
H1724 C1710 0.961 . S
H1725 C1711 0.958 . S
H1726 C1711 0.961 . S
H1727 C1711 0.960 . S
C1728 C1729 1.391 . S
C1728 C1730 1.394 . S
C1728 H1744 0.931 . S
C1729 C1728 1.391 . S
C1729 C1733 1.376 . S
C1730 C1728 1.394 . S
C1730 C1731 1.369 . S
C1730 C1734 1.531 . S
C1731 C1730 1.369 . S
C1731 C1732 1.410 . S
C1731 C1739 1.503 . S
C1732 C1731 1.410 . S
C1732 C1733 1.392 . S
C1732 C1735 1.511 . S
C1733 C1729 1.376 . S
C1733 C1732 1.392 . S
C1733 H1745 0.929 . S
C1734 C1730 1.531 . S
C1734 H1746 0.960 . S
C1734 H1747 0.962 . S
C1734 H1748 0.960 . S
C1735 C1732 1.511 . S
C1735 H1749 0.961 . S
C1735 H1750 0.961 . S
C1735 H1751 0.961 . S
C1736 C1737 1.370 . S
C1736 C1738 1.363 . S
C1736 H1752 0.931 . S
C1737 C1736 1.370 . S
C1737 C1741 1.408 . S
C1738 C1736 1.363 . S
C1738 C1739 1.370 . S
C1738 C1742 1.524 . S
C1739 C1731 1.503 . S
C1739 C1738 1.370 . S
C1739 C1740 1.403 . S
C1740 C1739 1.403 . S
C1740 C1741 1.404 . S
C1740 C1743 1.539 . S
C1741 C1737 1.408 . S
C1741 C1740 1.404 . S
C1741 H1753 0.930 . S
C1742 C1738 1.524 . S
C1742 H1754 0.956 . S
C1742 H1755 0.961 . S
C1742 H1756 0.961 . S
C1743 C1740 1.539 . S
C1743 H1757 0.958 . S
C1743 H1758 0.961 . S
C1743 H1759 0.960 . S
H1744 C1728 0.931 . S
H1745 C1733 0.929 . S
H1746 C1734 0.960 . S
H1747 C1734 0.962 . S
H1748 C1734 0.960 . S
H1749 C1735 0.961 . S
H1750 C1735 0.961 . S
H1751 C1735 0.961 . S
H1752 C1736 0.931 . S
H1753 C1741 0.930 . S
H1754 C1742 0.956 . S
H1755 C1742 0.961 . S
H1756 C1742 0.961 . S
H1757 C1743 0.958 . S
H1758 C1743 0.961 . S
H1759 C1743 0.960 . S
C1760 C1761 1.391 . S
C1760 C1762 1.394 . S
C1760 H1776 0.931 . S
C1761 C1760 1.391 . S
C1761 C1765 1.376 . S
C1762 C1760 1.394 . S
C1762 C1763 1.369 . S
C1762 C1766 1.531 . S
C1763 C1762 1.369 . S
C1763 C1764 1.410 . S
C1763 C1771 1.503 . S
C1764 C1763 1.410 . S
C1764 C1765 1.392 . S
C1764 C1767 1.511 . S
C1765 C1761 1.376 . S
C1765 C1764 1.392 . S
C1765 H1777 0.929 . S
C1766 C1762 1.531 . S
C1766 H1778 0.960 . S
C1766 H1779 0.962 . S
C1766 H1780 0.960 . S
C1767 C1764 1.511 . S
C1767 H1781 0.961 . S
C1767 H1782 0.961 . S
C1767 H1783 0.961 . S
C1768 C1769 1.370 . S
C1768 C1770 1.363 . S
C1768 H1784 0.931 . S
C1769 C1768 1.370 . S
C1769 C1773 1.408 . S
C1770 C1768 1.363 . S
C1770 C1771 1.370 . S
C1770 C1774 1.524 . S
C1771 C1763 1.503 . S
C1771 C1770 1.370 . S
C1771 C1772 1.403 . S
C1772 C1771 1.403 . S
C1772 C1773 1.404 . S
C1772 C1775 1.539 . S
C1773 C1769 1.408 . S
C1773 C1772 1.404 . S
C1773 H1785 0.930 . S
C1774 C1770 1.524 . S
C1774 H1786 0.956 . S
C1774 H1787 0.961 . S
C1774 H1788 0.961 . S
C1775 C1772 1.539 . S
C1775 H1789 0.958 . S
C1775 H1790 0.961 . S
C1775 H1791 0.960 . S
H1776 C1760 0.931 . S
H1777 C1765 0.929 . S
H1778 C1766 0.960 . S
H1779 C1766 0.962 . S
H1780 C1766 0.960 . S
H1781 C1767 0.961 . S
H1782 C1767 0.961 . S
H1783 C1767 0.961 . S
H1784 C1768 0.931 . S
H1785 C1773 0.930 . S
H1786 C1774 0.956 . S
H1787 C1774 0.961 . S
H1788 C1774 0.961 . S
H1789 C1775 0.958 . S
H1790 C1775 0.961 . S
H1791 C1775 0.960 . S
C1792 C1793 1.391 . S
C1792 C1794 1.394 . S
C1792 H1808 0.931 . S
C1793 C1792 1.391 . S
C1793 C1797 1.376 . S
C1794 C1792 1.394 . S
C1794 C1795 1.369 . S
C1794 C1798 1.531 . S
C1795 C1794 1.369 . S
C1795 C1796 1.410 . S
C1795 C1803 1.503 . S
C1796 C1795 1.410 . S
C1796 C1797 1.392 . S
C1796 C1799 1.511 . S
C1797 C1793 1.376 . S
C1797 C1796 1.392 . S
C1797 H1809 0.929 . S
C1798 C1794 1.531 . S
C1798 H1810 0.960 . S
C1798 H1811 0.962 . S
C1798 H1812 0.960 . S
C1799 C1796 1.511 . S
C1799 H1813 0.961 . S
C1799 H1814 0.961 . S
C1799 H1815 0.961 . S
C1800 C1801 1.370 . S
C1800 C1802 1.363 . S
C1800 H1816 0.931 . S
C1801 C1800 1.370 . S
C1801 C1805 1.408 . S
C1802 C1800 1.363 . S
C1802 C1803 1.370 . S
C1802 C1806 1.524 . S
C1803 C1795 1.503 . S
C1803 C1802 1.370 . S
C1803 C1804 1.403 . S
C1804 C1803 1.403 . S
C1804 C1805 1.404 . S
C1804 C1807 1.539 . S
C1805 C1801 1.408 . S
C1805 C1804 1.404 . S
C1805 H1817 0.930 . S
C1806 C1802 1.524 . S
C1806 H1818 0.956 . S
C1806 H1819 0.961 . S
C1806 H1820 0.961 . S
C1807 C1804 1.539 . S
C1807 H1821 0.958 . S
C1807 H1822 0.961 . S
C1807 H1823 0.960 . S
H1808 C1792 0.931 . S
H1809 C1797 0.929 . S
H1810 C1798 0.960 . S
H1811 C1798 0.962 . S
H1812 C1798 0.960 . S
H1813 C1799 0.961 . S
H1814 C1799 0.961 . S
H1815 C1799 0.961 . S
H1816 C1800 0.931 . S
H1817 C1805 0.930 . S
H1818 C1806 0.956 . S
H1819 C1806 0.961 . S
H1820 C1806 0.961 . S
H1821 C1807 0.958 . S
H1822 C1807 0.961 . S
H1823 C1807 0.960 . S
C1824 C1825 1.391 . S
C1824 C1826 1.394 . S
C1824 H1840 0.931 . S
C1825 C1824 1.391 . S
C1825 C1829 1.376 . S
C1826 C1824 1.394 . S
C1826 C1827 1.369 . S
C1826 C1830 1.531 1_554 S
C1827 C1826 1.369 . S
C1827 C1828 1.410 . S
C1827 C1835 1.503 . S
C1828 C1827 1.410 . S
C1828 C1829 1.392 . S
C1828 C1831 1.511 . S
C1829 C1825 1.376 . S
C1829 C1828 1.392 . S
C1829 H1841 0.929 . S
C1830 C1826 1.531 1_556 S
C1830 H1842 0.960 . S
C1830 H1843 0.962 . S
C1830 H1844 0.960 . S
C1831 C1828 1.511 . S
C1831 H1845 0.961 . S
C1831 H1846 0.961 . S
C1831 H1847 0.961 . S
C1832 C1833 1.370 . S
C1832 C1834 1.363 . S
C1832 H1848 0.931 . S
C1833 C1832 1.370 . S
C1833 C1837 1.408 . S
C1834 C1832 1.363 . S
C1834 C1835 1.370 . S
C1834 C1838 1.524 . S
C1835 C1827 1.503 . S
C1835 C1834 1.370 . S
C1835 C1836 1.403 . S
C1836 C1835 1.403 . S
C1836 C1837 1.404 . S
C1836 C1839 1.539 . S
C1837 C1833 1.408 . S
C1837 C1836 1.404 . S
C1837 H1849 0.930 1_554 S
C1838 C1834 1.524 . S
C1838 H1850 0.956 . S
C1838 H1851 0.961 . S
C1838 H1852 0.961 . S
C1839 C1836 1.539 . S
C1839 H1853 0.958 1_554 S
C1839 H1854 0.961 . S
C1839 H1855 0.960 . S
H1840 C1824 0.931 . S
H1841 C1829 0.929 . S
H1842 C1830 0.960 . S
H1843 C1830 0.962 . S
H1844 C1830 0.960 . S
H1845 C1831 0.961 . S
H1846 C1831 0.961 . S
H1847 C1831 0.961 . S
H1848 C1832 0.931 . S
H1849 C1837 0.930 1_556 S
H1850 C1838 0.956 . S
H1851 C1838 0.961 . S
H1852 C1838 0.961 . S
H1853 C1839 0.958 1_556 S
H1854 C1839 0.961 . S
H1855 C1839 0.960 . S
C1856 C1857 1.391 . S
C1856 C1858 1.394 . S
C1856 H1872 0.931 . S
C1857 C1856 1.391 . S
C1857 C1861 1.376 . S
C1858 C1856 1.394 . S
C1858 C1859 1.369 . S
C1858 C1862 1.531 . S
C1859 C1858 1.369 . S
C1859 C1860 1.410 . S
C1859 C1867 1.503 . S
C1860 C1859 1.410 . S
C1860 C1861 1.392 . S
C1860 C1863 1.511 . S
C1861 C1857 1.376 . S
C1861 C1860 1.392 . S
C1861 H1873 0.929 . S
C1862 C1858 1.531 . S
C1862 H1874 0.960 . S
C1862 H1875 0.962 . S
C1862 H1876 0.960 . S
C1863 C1860 1.511 . S
C1863 H1877 0.961 . S
C1863 H1878 0.961 . S
C1863 H1879 0.961 . S
C1864 C1865 1.370 . S
C1864 C1866 1.363 . S
C1864 H1880 0.931 . S
C1865 C1864 1.370 . S
C1865 C1869 1.408 . S
C1866 C1864 1.363 . S
C1866 C1867 1.370 . S
C1866 C1870 1.524 . S
C1867 C1859 1.503 . S
C1867 C1866 1.370 . S
C1867 C1868 1.403 . S
C1868 C1867 1.403 . S
C1868 C1869 1.404 . S
C1868 C1871 1.539 . S
C1869 C1865 1.408 . S
C1869 C1868 1.404 . S
C1869 H1881 0.930 . S
C1870 C1866 1.524 . S
C1870 H1882 0.956 . S
C1870 H1883 0.961 . S
C1870 H1884 0.961 . S
C1871 C1868 1.539 . S
C1871 H1885 0.958 . S
C1871 H1886 0.961 . S
C1871 H1887 0.960 . S
H1872 C1856 0.931 . S
H1873 C1861 0.929 . S
H1874 C1862 0.960 . S
H1875 C1862 0.962 . S
H1876 C1862 0.960 . S
H1877 C1863 0.961 . S
H1878 C1863 0.961 . S
H1879 C1863 0.961 . S
H1880 C1864 0.931 . S
H1881 C1869 0.930 . S
H1882 C1870 0.956 . S
H1883 C1870 0.961 . S
H1884 C1870 0.961 . S
H1885 C1871 0.958 . S
H1886 C1871 0.961 . S
H1887 C1871 0.960 . S
C1888 C1889 1.391 . S
C1888 C1890 1.394 . S
C1888 H1904 0.931 . S
C1889 C1888 1.391 . S
C1889 C1893 1.376 . S
C1890 C1888 1.394 . S
C1890 C1891 1.369 . S
C1890 C1894 1.531 . S
C1891 C1890 1.369 . S
C1891 C1892 1.410 . S
C1891 C1899 1.503 . S
C1892 C1891 1.410 . S
C1892 C1893 1.392 . S
C1892 C1895 1.511 . S
C1893 C1889 1.376 . S
C1893 C1892 1.392 . S
C1893 H1905 0.929 . S
C1894 C1890 1.531 . S
C1894 H1906 0.960 . S
C1894 H1907 0.962 . S
C1894 H1908 0.960 . S
C1895 C1892 1.511 . S
C1895 H1909 0.961 . S
C1895 H1910 0.961 . S
C1895 H1911 0.961 . S
C1896 C1897 1.370 . S
C1896 C1898 1.363 . S
C1896 H1912 0.931 . S
C1897 C1896 1.370 . S
C1897 C1901 1.408 . S
C1898 C1896 1.363 . S
C1898 C1899 1.370 . S
C1898 C1902 1.524 . S
C1899 C1891 1.503 . S
C1899 C1898 1.370 . S
C1899 C1900 1.403 . S
C1900 C1899 1.403 . S
C1900 C1901 1.404 . S
C1900 C1903 1.539 . S
C1901 C1897 1.408 . S
C1901 C1900 1.404 . S
C1901 H1913 0.930 . S
C1902 C1898 1.524 . S
C1902 H1914 0.956 . S
C1902 H1915 0.961 . S
C1902 H1916 0.961 . S
C1903 C1900 1.539 . S
C1903 H1917 0.958 . S
C1903 H1918 0.961 . S
C1903 H1919 0.960 . S
H1904 C1888 0.931 . S
H1905 C1893 0.929 . S
H1906 C1894 0.960 . S
H1907 C1894 0.962 . S
H1908 C1894 0.960 . S
H1909 C1895 0.961 . S
H1910 C1895 0.961 . S
H1911 C1895 0.961 . S
H1912 C1896 0.931 . S
H1913 C1901 0.930 . S
H1914 C1902 0.956 . S
H1915 C1902 0.961 . S
H1916 C1902 0.961 . S
H1917 C1903 0.958 . S
H1918 C1903 0.961 . S
H1919 C1903 0.960 . S
C1920 C1921 1.391 . S
C1920 C1922 1.394 . S
C1920 H1936 0.931 . S
C1921 C1920 1.391 . S
C1921 C1925 1.376 . S
C1922 C1920 1.394 . S
C1922 C1923 1.369 . S
C1922 C1926 1.531 . S
C1923 C1922 1.369 . S
C1923 C1924 1.410 . S
C1923 C1931 1.503 . S
C1924 C1923 1.410 . S
C1924 C1925 1.392 . S
C1924 C1927 1.511 . S
C1925 C1921 1.376 . S
C1925 C1924 1.392 . S
C1925 H1937 0.929 . S
C1926 C1922 1.531 . S
C1926 H1938 0.960 . S
C1926 H1939 0.962 . S
C1926 H1940 0.960 . S
C1927 C1924 1.511 . S
C1927 H1941 0.961 . S
C1927 H1942 0.961 . S
C1927 H1943 0.961 . S
C1928 C1929 1.370 . S
C1928 C1930 1.363 . S
C1928 H1944 0.931 . S
C1929 C1928 1.370 . S
C1929 C1933 1.408 . S
C1930 C1928 1.363 . S
C1930 C1931 1.370 . S
C1930 C1934 1.524 . S
C1931 C1923 1.503 . S
C1931 C1930 1.370 . S
C1931 C1932 1.403 . S
C1932 C1931 1.403 . S
C1932 C1933 1.404 . S
C1932 C1935 1.539 . S
C1933 C1929 1.408 . S
C1933 C1932 1.404 . S
C1933 H1945 0.930 . S
C1934 C1930 1.524 . S
C1934 H1946 0.956 . S
C1934 H1947 0.961 . S
C1934 H1948 0.961 . S
C1935 C1932 1.539 . S
C1935 H1949 0.958 . S
C1935 H1950 0.961 . S
C1935 H1951 0.960 . S
H1936 C1920 0.931 . S
H1937 C1925 0.929 . S
H1938 C1926 0.960 . S
H1939 C1926 0.962 . S
H1940 C1926 0.960 . S
H1941 C1927 0.961 . S
H1942 C1927 0.961 . S
H1943 C1927 0.961 . S
H1944 C1928 0.931 . S
H1945 C1933 0.930 . S
H1946 C1934 0.956 . S
H1947 C1934 0.961 . S
H1948 C1934 0.961 . S
H1949 C1935 0.958 . S
H1950 C1935 0.961 . S
H1951 C1935 0.960 . S
C1952 C1953 1.391 . S
C1952 C1954 1.394 . S
C1952 H1968 0.931 . S
C1953 C1952 1.391 . S
C1953 C1957 1.376 . S
C1954 C1952 1.394 . S
C1954 C1955 1.369 . S
C1954 C1958 1.531 . S
C1955 C1954 1.369 . S
C1955 C1956 1.410 . S
C1955 C1963 1.503 . S
C1956 C1955 1.410 . S
C1956 C1957 1.392 . S
C1956 C1959 1.511 . S
C1957 C1953 1.376 . S
C1957 C1956 1.392 . S
C1957 H1969 0.929 . S
C1958 C1954 1.531 . S
C1958 H1970 0.960 . S
C1958 H1971 0.970 . S
C1958 H1972 0.960 1_556 S
C1959 C1956 1.511 . S
C1959 H1973 0.961 . S
C1959 H1974 0.961 . S
C1959 H1975 0.961 . S
C1960 C1961 1.370 . S
C1960 C1962 1.363 . S
C1960 H1976 0.931 . S
C1961 C1960 1.370 . S
C1961 C1965 1.408 . S
C1962 C1960 1.363 . S
C1962 C1963 1.370 . S
C1962 C1966 1.524 . S
C1963 C1955 1.503 . S
C1963 C1962 1.370 . S
C1963 C1964 1.403 . S
C1964 C1963 1.403 . S
C1964 C1965 1.404 . S
C1964 C1967 1.539 . S
C1965 C1961 1.408 . S
C1965 C1964 1.404 . S
C1965 H1977 0.930 . S
C1966 C1962 1.524 . S
C1966 H1978 0.956 . S
C1966 H1979 0.961 . S
C1966 H1980 0.961 . S
C1967 C1964 1.539 . S
C1967 H1981 0.958 . S
C1967 H1982 0.961 . S
C1967 H1983 0.960 . S
H1968 C1952 0.931 . S
H1969 C1957 0.929 . S
H1970 C1958 0.960 . S
H1971 C1958 0.970 . S
H1972 C1958 0.960 1_554 S
H1973 C1959 0.961 . S
H1974 C1959 0.961 . S
H1975 C1959 0.961 . S
H1976 C1960 0.931 . S
H1977 C1965 0.930 . S
H1978 C1966 0.956 . S
H1979 C1966 0.961 . S
H1980 C1966 0.961 . S
H1981 C1967 0.958 . S
H1982 C1967 0.961 . S
H1983 C1967 0.960 . S
C1984 C1985 1.391 . S
C1984 C1986 1.394 . S
C1984 H2000 0.931 . S
C1985 C1984 1.391 . S
C1985 C1989 1.376 . S
C1986 C1984 1.394 . S
C1986 C1987 1.369 . S
C1986 C1990 1.531 . S
C1987 C1986 1.369 . S
C1987 C1988 1.410 . S
C1987 C1995 1.503 . S
C1988 C1987 1.410 . S
C1988 C1989 1.392 . S
C1988 C1991 1.511 . S
C1989 C1985 1.376 . S
C1989 C1988 1.392 . S
C1989 H2001 0.929 . S
C1990 C1986 1.531 . S
C1990 H2002 0.960 . S
C1990 H2003 0.962 . S
C1990 H2004 0.960 . S
C1991 C1988 1.511 . S
C1991 H2005 0.961 . S
C1991 H2006 0.961 . S
C1991 H2007 0.961 . S
C1992 C1993 1.370 . S
C1992 C1994 1.363 . S
C1992 H2008 0.931 . S
C1993 C1992 1.370 . S
C1993 C1997 1.408 . S
C1994 C1992 1.363 . S
C1994 C1995 1.370 . S
C1994 C1998 1.524 1_556 S
C1995 C1987 1.503 . S
C1995 C1994 1.370 . S
C1995 C1996 1.403 . S
C1996 C1995 1.403 . S
C1996 C1997 1.404 . S
C1996 C1999 1.539 . S
C1997 C1993 1.408 . S
C1997 C1996 1.404 . S
C1997 H2009 0.930 . S
C1998 C1994 1.524 1_554 S
C1998 H2010 0.956 . S
C1998 H2011 0.961 . S
C1998 H2012 0.961 . S
C1999 C1996 1.539 . S
C1999 H2013 0.958 . S
C1999 H2014 0.961 . S
C1999 H2015 0.960 . S
H2000 C1984 0.931 . S
H2001 C1989 0.929 . S
H2002 C1990 0.960 . S
H2003 C1990 0.962 . S
H2004 C1990 0.960 . S
H2005 C1991 0.961 . S
H2006 C1991 0.961 . S
H2007 C1991 0.961 . S
H2008 C1992 0.931 . S
H2009 C1997 0.930 . S
H2010 C1998 0.956 . S
H2011 C1998 0.961 . S
H2012 C1998 0.961 . S
H2013 C1999 0.958 . S
H2014 C1999 0.961 . S
H2015 C1999 0.960 . S
C2016 C2017 1.391 . S
C2016 C2018 1.394 . S
C2016 H2032 0.931 . S
C2017 C2016 1.391 . S
C2017 C2021 1.376 . S
C2018 C2016 1.394 . S
C2018 C2019 1.369 . S
C2018 C2022 1.531 . S
C2019 C2018 1.369 . S
C2019 C2020 1.410 . S
C2019 C2027 1.503 . S
C2020 C2019 1.410 . S
C2020 C2021 1.392 . S
C2020 C2023 1.511 . S
C2021 C2017 1.376 . S
C2021 C2020 1.392 . S
C2021 H2033 0.929 . S
C2022 C2018 1.531 . S
C2022 H2034 0.960 . S
C2022 H2035 0.962 . S
C2022 H2036 0.960 . S
C2023 C2020 1.511 . S
C2023 H2037 0.961 . S
C2023 H2038 0.961 . S
C2023 H2039 0.961 . S
C2024 C2025 1.370 . S
C2024 C2026 1.363 . S
C2024 H2040 0.931 . S
C2025 C2024 1.370 . S
C2025 C2029 1.408 . S
C2026 C2024 1.363 . S
C2026 C2027 1.370 . S
C2026 C2030 1.524 . S
C2027 C2019 1.503 . S
C2027 C2026 1.370 . S
C2027 C2028 1.403 . S
C2028 C2027 1.403 . S
C2028 C2029 1.404 . S
C2028 C2031 1.539 . S
C2029 C2025 1.408 . S
C2029 C2028 1.404 . S
C2029 H2041 0.930 . S
C2030 C2026 1.524 . S
C2030 H2042 0.956 . S
C2030 H2043 0.961 . S
C2030 H2044 0.961 . S
C2031 C2028 1.539 . S
C2031 H2045 0.958 . S
C2031 H2046 0.961 . S
C2031 H2047 0.960 . S
H2032 C2016 0.931 . S
H2033 C2021 0.929 . S
H2034 C2022 0.960 . S
H2035 C2022 0.962 . S
H2036 C2022 0.960 . S
H2037 C2023 0.961 . S
H2038 C2023 0.961 . S
H2039 C2023 0.961 . S
H2040 C2024 0.931 . S
H2041 C2029 0.930 . S
H2042 C2030 0.956 . S
H2043 C2030 0.961 . S
H2044 C2030 0.961 . S
H2045 C2031 0.958 . S
H2046 C2031 0.961 . S
H2047 C2031 0.960 . S
C2048 C2049 1.391 . S
C2048 C2050 1.394 . S
C2048 H2064 0.931 . S
C2049 C2048 1.391 . S
C2049 C2053 1.376 . S
C2050 C2048 1.394 . S
C2050 C2051 1.369 . S
C2050 C2054 1.531 . S
C2051 C2050 1.369 . S
C2051 C2052 1.410 . S
C2051 C2059 1.503 . S
C2052 C2051 1.410 . S
C2052 C2053 1.392 . S
C2052 C2055 1.511 . S
C2053 C2049 1.376 . S
C2053 C2052 1.392 . S
C2053 H2065 0.929 . S
C2054 C2050 1.531 . S
C2054 H2066 0.960 . S
C2054 H2067 0.962 . S
C2054 H2068 0.960 . S
C2055 C2052 1.511 . S
C2055 H2069 0.961 . S
C2055 H2070 0.961 . S
C2055 H2071 0.961 . S
C2056 C2057 1.370 . S
C2056 C2058 1.363 . S
C2056 H2072 0.931 . S
C2057 C2056 1.370 . S
C2057 C2061 1.408 . S
C2058 C2056 1.363 . S
C2058 C2059 1.370 . S
C2058 C2062 1.524 . S
C2059 C2051 1.503 . S
C2059 C2058 1.370 . S
C2059 C2060 1.403 . S
C2060 C2059 1.403 . S
C2060 C2061 1.404 . S
C2060 C2063 1.539 . S
C2061 C2057 1.408 . S
C2061 C2060 1.404 . S
C2061 H2073 0.930 . S
C2062 C2058 1.524 . S
C2062 H2074 0.956 . S
C2062 H2075 0.961 . S
C2062 H2076 0.961 . S
C2063 C2060 1.539 . S
C2063 H2077 0.958 . S
C2063 H2078 0.961 . S
C2063 H2079 0.960 . S
H2064 C2048 0.931 . S
H2065 C2053 0.929 . S
H2066 C2054 0.960 . S
H2067 C2054 0.962 . S
H2068 C2054 0.960 . S
H2069 C2055 0.961 . S
H2070 C2055 0.961 . S
H2071 C2055 0.961 . S
H2072 C2056 0.931 . S
H2073 C2061 0.930 . S
H2074 C2062 0.956 . S
H2075 C2062 0.961 . S
H2076 C2062 0.961 . S
H2077 C2063 0.958 . S
H2078 C2063 0.961 . S
H2079 C2063 0.960 . S
C2080 C2081 1.391 . S
C2080 C2082 1.394 . S
C2080 H2096 0.931 . S
C2081 C2080 1.391 . S
C2081 C2085 1.376 . S
C2082 C2080 1.394 . S
C2082 C2083 1.369 . S
C2082 C2086 1.531 . S
C2083 C2082 1.369 . S
C2083 C2084 1.410 . S
C2083 C2091 1.503 . S
C2084 C2083 1.410 . S
C2084 C2085 1.392 . S
C2084 C2087 1.511 . S
C2085 C2081 1.376 . S
C2085 C2084 1.392 . S
C2085 H2097 0.929 . S
C2086 C2082 1.531 . S
C2086 H2098 0.960 . S
C2086 H2099 0.962 . S
C2086 H2100 0.960 . S
C2087 C2084 1.511 . S
C2087 H2101 0.961 . S
C2087 H2102 0.961 . S
C2087 H2103 0.961 . S
C2088 C2089 1.370 . S
C2088 C2090 1.363 . S
C2088 H2104 0.931 . S
C2089 C2088 1.370 . S
C2089 C2093 1.408 . S
C2090 C2088 1.363 . S
C2090 C2091 1.370 . S
C2090 C2094 1.524 . S
C2091 C2083 1.503 . S
C2091 C2090 1.370 . S
C2091 C2092 1.403 . S
C2092 C2091 1.403 . S
C2092 C2093 1.404 . S
C2092 C2095 1.539 . S
C2093 C2089 1.408 . S
C2093 C2092 1.404 . S
C2093 H2105 0.930 . S
C2094 C2090 1.524 . S
C2094 H2106 0.956 . S
C2094 H2107 0.961 . S
C2094 H2108 0.961 . S
C2095 C2092 1.539 . S
C2095 H2109 0.958 . S
C2095 H2110 0.961 . S
C2095 H2111 0.960 . S
H2096 C2080 0.931 . S
H2097 C2085 0.929 . S
H2098 C2086 0.960 . S
H2099 C2086 0.962 . S
H2100 C2086 0.960 . S
H2101 C2087 0.961 . S
H2102 C2087 0.961 . S
H2103 C2087 0.961 . S
H2104 C2088 0.931 . S
H2105 C2093 0.930 . S
H2106 C2094 0.956 . S
H2107 C2094 0.961 . S
H2108 C2094 0.961 . S
H2109 C2095 0.958 . S
H2110 C2095 0.961 . S
H2111 C2095 0.960 . S
C2112 C2113 1.391 . S
C2112 C2114 1.394 . S
C2112 H2128 0.931 . S
C2113 C2112 1.391 . S
C2113 C2117 1.376 . S
C2114 C2112 1.394 . S
C2114 C2115 1.369 . S
C2114 C2118 1.531 . S
C2115 C2114 1.369 . S
C2115 C2116 1.410 . S
C2115 C2123 1.503 . S
C2116 C2115 1.410 . S
C2116 C2117 1.392 . S
C2116 C2119 1.511 . S
C2117 C2113 1.376 . S
C2117 C2116 1.392 . S
C2117 H2129 0.929 . S
C2118 C2114 1.531 . S
C2118 H2130 0.960 . S
C2118 H2131 0.962 . S
C2118 H2132 0.960 . S
C2119 C2116 1.511 . S
C2119 H2133 0.961 . S
C2119 H2134 0.961 . S
C2119 H2135 0.961 . S
C2120 C2121 1.370 . S
C2120 C2122 1.363 . S
C2120 H2136 0.931 . S
C2121 C2120 1.370 . S
C2121 C2125 1.408 . S
C2122 C2120 1.363 . S
C2122 C2123 1.370 . S
C2122 C2126 1.524 . S
C2123 C2115 1.503 . S
C2123 C2122 1.370 . S
C2123 C2124 1.403 . S
C2124 C2123 1.403 . S
C2124 C2125 1.404 . S
C2124 C2127 1.539 . S
C2125 C2121 1.408 . S
C2125 C2124 1.404 . S
C2125 H2137 0.930 . S
C2126 C2122 1.524 . S
C2126 H2138 0.956 . S
C2126 H2139 0.961 . S
C2126 H2140 0.961 . S
C2127 C2124 1.539 . S
C2127 H2141 0.958 . S
C2127 H2142 0.961 . S
C2127 H2143 0.960 . S
H2128 C2112 0.931 . S
H2129 C2117 0.929 . S
H2130 C2118 0.960 . S
H2131 C2118 0.962 . S
H2132 C2118 0.960 . S
H2133 C2119 0.961 . S
H2134 C2119 0.961 . S
H2135 C2119 0.961 . S
H2136 C2120 0.931 . S
H2137 C2125 0.930 . S
H2138 C2126 0.956 . S
H2139 C2126 0.961 . S
H2140 C2126 0.961 . S
H2141 C2127 0.958 . S
H2142 C2127 0.961 . S
H2143 C2127 0.960 . S
C2144 C2145 1.391 . S
C2144 C2146 1.394 . S
C2144 H2160 0.929 . S
C2145 C2144 1.391 . S
C2145 C2149 1.376 . S
C2146 C2144 1.394 . S
C2146 C2147 1.369 . S
C2146 C2150 1.531 . S
C2147 C2146 1.369 . S
C2147 C2148 1.410 . S
C2147 C2155 1.503 . S
C2148 C2147 1.410 . S
C2148 C2149 1.392 . S
C2148 C2151 1.511 . S
C2149 C2145 1.376 . S
C2149 C2148 1.392 . S
C2149 H2161 0.929 . S
C2150 C2146 1.531 . S
C2150 H2162 0.960 . S
C2150 H2163 0.962 . S
C2150 H2164 0.960 1_554 S
C2151 C2148 1.511 . S
C2151 H2165 0.961 . S
C2151 H2166 0.961 . S
C2151 H2167 0.961 . S
C2152 C2153 1.370 . S
C2152 C2154 1.363 . S
C2152 H2168 0.931 . S
C2153 C2152 1.370 . S
C2153 C2157 1.408 . S
C2154 C2152 1.363 . S
C2154 C2155 1.370 . S
C2154 C2158 1.524 . S
C2155 C2147 1.503 . S
C2155 C2154 1.370 . S
C2155 C2156 1.403 . S
C2156 C2155 1.403 . S
C2156 C2157 1.404 . S
C2156 C2159 1.539 . S
C2157 C2153 1.408 . S
C2157 C2156 1.404 . S
C2157 H2169 0.930 . S
C2158 C2154 1.524 . S
C2158 H2170 0.956 . S
C2158 H2171 0.961 . S
C2158 H2172 0.961 . S
C2159 C2156 1.539 . S
C2159 H2173 0.958 . S
C2159 H2174 0.961 . S
C2159 H2175 0.960 . S
H2160 C2144 0.929 . S
H2161 C2149 0.929 . S
H2162 C2150 0.960 . S
H2163 C2150 0.962 . S
H2164 C2150 0.960 1_556 S
H2165 C2151 0.961 . S
H2166 C2151 0.961 . S
H2167 C2151 0.961 . S
H2168 C2152 0.931 . S
H2169 C2157 0.930 . S
H2170 C2158 0.956 . S
H2171 C2158 0.961 . S
H2172 C2158 0.961 . S
H2173 C2159 0.958 . S
H2174 C2159 0.961 . S
H2175 C2159 0.960 . S
C641 C12 1.464 . S
C649 C69 1.425 . S
C673 C82 1.507 . S
C681 C71 1.530 . S
C705 C151 2.404 . S
C713 C92 2.443 . S
C737 C2 0.943 . S
C745 C149 0.903 . S
C769 C17 0.993 . S
C777 C368 0.892 . S
C801 C311 1.487 . S
C809 C48 1.408 . S
C833 C97 1.518 . S
C841 C412 1.534 . S
C865 C132 2.383 . S
C873 C551 2.442 . S
C897 C337 1.509 . S
C905 C52 1.528 . S
C929 C492 2.382 . S
C937 C111 2.443 . S
C961 C577 0.909 . S
C969 C128 0.950 . S
C993 C31 1.466 . S
C1001 C448 1.442 . S
C1025 C29 0.443 . S
C1033 C349 0.584 . S
C1057 C482 1.773 . S
C1065 C177 1.799 . S
C1089 C208 0.646 . S
C1097 C568 0.476 . S
C1121 C457 1.796 . S
C1129 C242 1.758 . S
C1153 C88 0.644 . S
C1161 C288 0.476 . S
C1185 C377 1.758 . S
C1193 C162 1.797 . S
C1217 C257 1.746 . S
C1225 C402 1.794 . S
C1249 C217 1.550 . S
C1257 C452 1.531 . S
C1281 C372 2.409 . S
C1289 C231 2.444 . S
C1313 C469 1.377 . S
C1321 C292 1.496 . S
C1345 C202 1.519 . S
C1353 C191 1.537 . S
C1377 C391 2.390 . S
C1385 C332 2.448 . S
C1409 C522 1.518 . S
C1417 C471 1.519 . S
C1441 C271 2.414 . S
C1449 C212 2.445 . S
C1473 C389 0.938 . S
C1481 C562 0.933 . S
C1505 C528 0.597 . S
C1513 C8 0.502 . S
C1537 C109 0.584 . S
C1545 C589 0.516 . S
C1569 C497 1.767 . S
C1577 C42 1.799 . S
C1601 C309 0.468 . S
C1609 C229 0.579 . S
C1633 C122 1.764 . S
C1641 C417 1.798 . S
C1665 C511 2.415 . S
C1673 C532 2.446 . S
C1697 C282 0.915 . S
C1705 C509 0.919 . S
C1729 C248 0.959 . S
C1737 C297 0.966 . S
C1761 C172 1.542 . S
C1769 C537 1.543 . S
C1793 C488 0.844 . S
C1801 C617 0.962 . S
C1825 C608 0.594 . S
C1833 C328 0.516 . S
C1857 C57 1.797 . S
C1865 C362 1.758 . S
C1889 C351 2.440 . S
C1897 C252 2.410 . S
C1921 C322 1.533 . S
C1929 C431 1.520 . S
C1953 C602 1.006 . S
C1961 C269 0.894 . S
C1985 C549 0.537 . S
C1993 C629 0.516 . S
C2017 C442 1.781 . S
C2025 C137 1.745 . S
C2049 C429 1.379 . S
C2057 C572 1.493 . S
C2081 C408 1.417 . S
C2089 C631 1.477 . S
C2113 C168 1.397 . S
C2121 C591 1.482 . S
C2145 C612 1.501 . S
C2153 C189 1.422 . S
