# Generated by pormake.
# Topology wiu, (6)-cn, num edge types: 1
# Building blocks:
#     Node 0, Type 0, BuildingBlock: CUKXOW_clean_sbu_0, # of connection points: 6
#     Node 1, Type 0, BuildingBlock: CUKXOW_clean_sbu_0, # of connection points: 6
#     Node 2, Type 0, BuildingBlock: CUKXOW_clean_sbu_0, # of connection points: 6
#     Node 3, Type 0, BuildingBlock: CUKXOW_clean_sbu_0, # of connection points: 6
#     Node 4, Type 0, BuildingBlock: CUKXOW_clean_sbu_0, # of connection points: 6
#     Node 5, Type 0, BuildingBlock: CUKXOW_clean_sbu_0, # of connection points: 6
#     Node 6, Type 0, BuildingBlock: CUKXOW_clean_sbu_0, # of connection points: 6
#     Node 7, Type 0, BuildingBlock: CUKXOW_clean_sbu_0, # of connection points: 6
#     Node 8, Type 0, BuildingBlock: CUKXOW_clean_sbu_0, # of connection points: 6
#     Node 9, Type 0, BuildingBlock: CUKXOW_clean_sbu_0, # of connection points: 6
#     Node 10, Type 0, BuildingBlock: CUKXOW_clean_sbu_0, # of connection points: 6
#     Node 11, Type 0, BuildingBlock: CUKXOW_clean_sbu_0, # of connection points: 6
#     Node 12, Type 0, BuildingBlock: CUKXOW_clean_sbu_0, # of connection points: 6
#     Node 13, Type 0, BuildingBlock: CUKXOW_clean_sbu_0, # of connection points: 6
#     Node 14, Type 0, BuildingBlock: CUKXOW_clean_sbu_0, # of connection points: 6
#     Node 15, Type 0, BuildingBlock: CUKXOW_clean_sbu_0, # of connection points: 6
#     Edge 16, Type (0, 0), BuildingBlock: EZIPEK_clean_linker_0, # of connection points: 2
#     Edge 17, Type (0, 0), BuildingBlock: EZIPEK_clean_linker_0, # of connection points: 2
#     Edge 18, Type (0, 0), BuildingBlock: EZIPEK_clean_linker_0, # of connection points: 2
#     Edge 19, Type (0, 0), BuildingBlock: EZIPEK_clean_linker_0, # of connection points: 2
#     Edge 20, Type (0, 0), BuildingBlock: EZIPEK_clean_linker_0, # of connection points: 2
#     Edge 21, Type (0, 0), BuildingBlock: EZIPEK_clean_linker_0, # of connection points: 2
#     Edge 22, Type (0, 0), BuildingBlock: EZIPEK_clean_linker_0, # of connection points: 2
#     Edge 23, Type (0, 0), BuildingBlock: EZIPEK_clean_linker_0, # of connection points: 2
#     Edge 24, Type (0, 0), BuildingBlock: EZIPEK_clean_linker_0, # of connection points: 2
#     Edge 25, Type (0, 0), BuildingBlock: EZIPEK_clean_linker_0, # of connection points: 2
#     Edge 26, Type (0, 0), BuildingBlock: EZIPEK_clean_linker_0, # of connection points: 2
#     Edge 27, Type (0, 0), BuildingBlock: EZIPEK_clean_linker_0, # of connection points: 2
#     Edge 28, Type (0, 0), BuildingBlock: EZIPEK_clean_linker_0, # of connection points: 2
#     Edge 29, Type (0, 0), BuildingBlock: EZIPEK_clean_linker_0, # of connection points: 2
#     Edge 30, Type (0, 0), BuildingBlock: EZIPEK_clean_linker_0, # of connection points: 2
#     Edge 31, Type (0, 0), BuildingBlock: EZIPEK_clean_linker_0, # of connection points: 2
#     Edge 32, Type (0, 0), BuildingBlock: EZIPEK_clean_linker_0, # of connection points: 2
#     Edge 33, Type (0, 0), BuildingBlock: EZIPEK_clean_linker_0, # of connection points: 2
#     Edge 34, Type (0, 0), BuildingBlock: EZIPEK_clean_linker_0, # of connection points: 2
#     Edge 35, Type (0, 0), BuildingBlock: EZIPEK_clean_linker_0, # of connection points: 2
#     Edge 36, Type (0, 0), BuildingBlock: EZIPEK_clean_linker_0, # of connection points: 2
#     Edge 37, Type (0, 0), BuildingBlock: EZIPEK_clean_linker_0, # of connection points: 2
#     Edge 38, Type (0, 0), BuildingBlock: EZIPEK_clean_linker_0, # of connection points: 2
#     Edge 39, Type (0, 0), BuildingBlock: EZIPEK_clean_linker_0, # of connection points: 2
#     Edge 40, Type (0, 0), BuildingBlock: EZIPEK_clean_linker_0, # of connection points: 2
#     Edge 41, Type (0, 0), BuildingBlock: EZIPEK_clean_linker_0, # of connection points: 2
#     Edge 42, Type (0, 0), BuildingBlock: EZIPEK_clean_linker_0, # of connection points: 2
#     Edge 43, Type (0, 0), BuildingBlock: EZIPEK_clean_linker_0, # of connection points: 2
#     Edge 44, Type (0, 0), BuildingBlock: EZIPEK_clean_linker_0, # of connection points: 2
#     Edge 45, Type (0, 0), BuildingBlock: EZIPEK_clean_linker_0, # of connection points: 2
#     Edge 46, Type (0, 0), BuildingBlock: EZIPEK_clean_linker_0, # of connection points: 2
#     Edge 47, Type (0, 0), BuildingBlock: EZIPEK_clean_linker_0, # of connection points: 2
#     Edge 48, Type (0, 0), BuildingBlock: EZIPEK_clean_linker_0, # of connection points: 2
#     Edge 49, Type (0, 0), BuildingBlock: EZIPEK_clean_linker_0, # of connection points: 2
#     Edge 50, Type (0, 0), BuildingBlock: EZIPEK_clean_linker_0, # of connection points: 2
#     Edge 51, Type (0, 0), BuildingBlock: EZIPEK_clean_linker_0, # of connection points: 2
#     Edge 52, Type (0, 0), BuildingBlock: EZIPEK_clean_linker_0, # of connection points: 2
#     Edge 53, Type (0, 0), BuildingBlock: EZIPEK_clean_linker_0, # of connection points: 2
#     Edge 54, Type (0, 0), BuildingBlock: EZIPEK_clean_linker_0, # of connection points: 2
#     Edge 55, Type (0, 0), BuildingBlock: EZIPEK_clean_linker_0, # of connection points: 2
#     Edge 56, Type (0, 0), BuildingBlock: EZIPEK_clean_linker_0, # of connection points: 2
#     Edge 57, Type (0, 0), BuildingBlock: EZIPEK_clean_linker_0, # of connection points: 2
#     Edge 58, Type (0, 0), BuildingBlock: EZIPEK_clean_linker_0, # of connection points: 2
#     Edge 59, Type (0, 0), BuildingBlock: EZIPEK_clean_linker_0, # of connection points: 2
#     Edge 60, Type (0, 0), BuildingBlock: EZIPEK_clean_linker_0, # of connection points: 2
#     Edge 61, Type (0, 0), BuildingBlock: EZIPEK_clean_linker_0, # of connection points: 2
#     Edge 62, Type (0, 0), BuildingBlock: EZIPEK_clean_linker_0, # of connection points: 2
#     Edge 63, Type (0, 0), BuildingBlock: EZIPEK_clean_linker_0, # of connection points: 2
# Relax obj value: 0.180
# Max RMSD: 0.242
# Mean RMSD: 0.242
data_MOF--net-wiu--node1-CUKXOW_clean_sbu_0--edge1-EZIPEK_clean_linker_0
_symmetry_space_group_name_H-M    P1
_symmetry_Int_Tables_number       1
_symmetry_cell_setting            triclinic
loop_
_symmetry_equiv_pos_as_xyz
'x, y, z'
_cell_length_a     19.232554
_cell_length_b     19.213562
_cell_length_c     51.067423
_cell_angle_alpha  90.243855
_cell_angle_beta   89.748941
_cell_angle_gamma 89.864444
loop_
_atom_site_label
_atom_site_type_symbol
_atom_site_fract_x
_atom_site_fract_y
_atom_site_fract_z
_atom_type_partial_charge
Tb0 Tb 0.36308 0.07478 0.11505 0.0
C1 C 0.37855 0.18936 0.07251 0.0
Tb2 Tb 0.2661 0.08343 0.07612 0.0
O3 O 0.45559 0.05673 0.09195 0.0
O4 O 0.36092 0.01707 0.07781 0.0
O5 O 0.38728 0.17575 0.09777 0.0
C6 C 0.20386 0.09086 0.02924 0.0
O7 O 0.33891 0.15074 0.05803 0.0
C8 C 0.23001 0.16404 0.11782 0.0
C9 C 0.2106 1.00284 0.12282 0.0
O10 O 0.21896 0.14261 0.04446 0.0
O11 O 0.22273 0.03434 0.04117 0.0
O12 O 0.18692 0.13411 0.1019 0.0
O13 O 0.28953 0.15329 0.10831 0.0
O14 O 0.20329 0.00873 0.09732 0.0
O15 O 0.26977 0.02494 0.13329 0.0
C16 C 0.43087 0.07032 0.16094 0.0
O17 O 0.4095 0.01713 0.14745 0.0
O18 O 0.41406 0.12591 0.14822 0.0
C19 C 0.42648 0.02803 0.0719 0.0
Tb20 Tb 0.71656 0.61754 0.36934 0.0
C21 C 0.60826 0.68909 0.33794 0.0
Tb22 Tb 0.66191 0.54601 0.32823 0.0
O23 O 0.76075 0.70689 0.34893 0.0
O24 O 0.75334 0.6147 0.32846 0.0
O25 O 0.6236 0.67568 0.36226 0.0
C26 C 0.63148 0.49218 0.2813 0.0
O27 O 0.63466 0.65042 0.31935 0.0
C28 C 0.56818 0.54495 0.3673 0.0
C29 C 0.74402 0.45368 0.36898 0.0
O30 O 0.69275 0.49203 0.29185 0.0
O31 O 0.58777 0.51887 0.2977 0.0
O32 O 0.5547 0.54902 0.34254 0.0
O33 O 0.63437 0.54004 0.36951 0.0
O34 O 0.70511 0.45283 0.34754 0.0
O35 O 0.76131 0.51492 0.37907 0.0
C36 C 0.73931 0.66938 0.41697 0.0
O37 O 0.78142 0.62804 0.40435 0.0
O38 O 0.6871 0.68299 0.40214 0.0
C39 C 0.76671 0.68085 0.3257 0.0
Tb40 Tb 0.17385 0.94809 0.61246 0.0
C41 C 0.11929 0.82585 0.5787 0.0
Tb42 Tb 0.2591 0.90054 0.56906 0.0
O43 O 0.08427 0.98836 0.59135 0.0
O44 O 0.17915 0.98252 0.57188 0.0
O45 O 0.11362 0.85775 0.60166 0.0
C46 C 0.29918 0.87401 0.51992 0.0
O47 O 0.16962 0.83842 0.56197 0.0
C48 C 0.28622 0.8302 0.61358 0.0
C49 C 0.33936 0.98517 0.61064 0.0
O50 O 0.28601 0.82756 0.53752 0.0
O51 O 0.29194 0.9354 0.53031 0.0
O52 O 0.32976 0.83887 0.59429 0.0
O53 O 0.2293 0.85467 0.60544 0.0
O54 O 0.34067 0.96695 0.58564 0.0
O55 O 0.27957 0.98301 0.62357 0.0
C56 C 0.13296 0.97266 0.66154 0.0
O57 O 0.15478 0.01976 0.64524 0.0
O58 O 0.13122 0.91293 0.64973 0.0
C59 C 0.11184 0.98779 0.5681 0.0
Tb60 Tb 0.78914 0.41589 0.85977 0.0
C61 C 0.8858 0.33764 0.82161 0.0
Tb62 Tb 0.84988 0.4867 0.81766 0.0
O63 O 0.73696 0.33046 0.83949 0.0
O64 O 0.75646 0.4208 0.81892 0.0
O65 O 0.87182 0.34854 0.84671 0.0
C66 C 0.87212 0.55263 0.77198 0.0
O67 O 0.87288 0.38499 0.80417 0.0
C68 C 0.94155 0.47276 0.85679 0.0
C69 C 0.76713 0.57932 0.85923 0.0
O70 O 0.91816 0.52079 0.78593 0.0
O71 O 0.81342 0.54834 0.78448 0.0
O72 O 0.95604 0.47089 0.83195 0.0
O73 O 0.87649 0.48592 0.85888 0.0
O74 O 0.81151 0.57956 0.83923 0.0
O75 O 0.74397 0.51883 0.86793 0.0
C76 C 0.76538 0.37552 0.90917 0.0
O77 O 0.72095 0.40716 0.89422 0.0
O78 O 0.82137 0.3643 0.89573 0.0
C79 C 0.73794 0.35568 0.81593 0.0
Tb80 Tb 0.76674 0.87456 0.98466 0.0
C81 C 0.84889 0.96262 0.94188 0.0
Tb82 Tb 0.68459 0.93271 0.93937 0.0
O83 O 0.76556 0.76856 0.96732 0.0
O84 O 0.76228 0.85522 0.94359 0.0
O85 O 0.8522 0.9322 0.96522 0.0
C86 C 0.63696 0.93598 0.89037 0.0
O87 O 0.78876 0.96885 0.92944 0.0
C88 C 0.63897 0.99905 0.98417 0.0
C89 C 0.61287 0.84126 0.98038 0.0
O90 O 0.66662 0.98742 0.90262 0.0
O91 O 0.63092 0.88398 0.90636 0.0
O92 O 0.62186 0.01314 0.96005 0.0
O93 O 0.68953 0.95566 0.98044 0.0
O94 O 0.6225 0.84921 0.95486 0.0
O95 O 0.66157 0.85738 0.99724 0.0
C96 C 0.83243 0.86043 0.03034 0.0
O97 O 0.79909 0.81175 1.01799 0.0
O98 O 0.8286 0.91676 1.01645 0.0
C99 C 0.75749 0.78945 0.94332 0.0
Tb100 Tb 0.37272 0.51067 0.73118 0.0
C101 C 0.30017 0.58491 0.68458 0.0
Tb102 Tb 0.32138 0.4149 0.68541 0.0
O103 O 0.46869 0.54878 0.71042 0.0
O104 O 0.40579 0.47751 0.6941 0.0
O105 O 0.3112 0.58875 0.71022 0.0
C106 C 0.31579 0.36523 0.63671 0.0
O107 O 0.30341 0.52358 0.67224 0.0
C108 C 0.2594 0.37698 0.73137 0.0
C109 C 0.4172 0.3569 0.72841 0.0
O110 O 0.26585 0.39885 0.64868 0.0
O111 O 0.36741 0.35697 0.65274 0.0
O112 O 0.25452 0.34559 0.7087 0.0
O113 O 0.28762 0.43651 0.7251 0.0
O114 O 0.40162 0.35324 0.70317 0.0
O115 O 0.39995 0.40859 0.744 0.0
C116 C 0.40263 0.56209 0.77795 0.0
O117 O 0.44653 0.53334 0.76204 0.0
O118 O 0.34191 0.56636 0.76683 0.0
C119 C 0.46159 0.50967 0.68981 0.0
Tb120 Tb 0.75502 0.10534 0.47398 0.0
C121 C 0.6993 0.02424 0.42684 0.0
Tb122 Tb 0.85466 0.09356 0.43355 0.0
O123 O 0.68839 0.17461 0.4489 0.0
O124 O 0.79201 0.17624 0.44442 0.0
O125 O 0.69208 0.03074 0.45239 0.0
C126 C 0.91924 0.10891 0.38711 0.0
O127 O 0.75869 0.04515 0.41574 0.0
C128 C 0.91645 0.03699 0.47438 0.0
C129 C 0.8794 0.18836 0.48442 0.0
O130 O 0.90374 0.05035 0.39831 0.0
O131 O 0.89793 0.15862 0.40235 0.0
O132 O 0.94548 0.05228 0.45222 0.0
O133 O 0.84855 0.0359 0.47023 0.0
O134 O 0.88953 0.18258 0.45845 0.0
O135 O 0.83401 0.15076 0.49651 0.0
C136 C 0.69117 0.11105 0.52042 0.0
O137 O 0.71302 0.16395 0.50715 0.0
O138 O 0.70147 0.05493 0.50663 0.0
C139 C 0.73762 0.19806 0.43397 0.0
Tb140 Tb 0.11553 0.50746 0.229 0.0
C141 C 0.18624 0.41 0.18546 0.0
Tb142 Tb 0.18306 0.57543 0.18423 0.0
O143 O 0.01169 0.53415 0.2142 0.0
O144 O 0.09097 0.51415 0.18806 0.0
O145 O 0.15007 0.41238 0.20778 0.0
C146 C 0.19568 0.62541 0.13596 0.0
O147 O 0.20883 0.46742 0.17395 0.0
C148 C 0.24894 0.62025 0.22819 0.0
C149 C 0.10314 0.66294 0.22523 0.0
O150 O 0.23934 0.58285 0.14693 0.0
O151 O 0.14687 0.64068 0.15248 0.0
O152 O 0.25963 0.64081 0.20429 0.0
O153 O 0.21356 0.5632 0.22447 0.0
O154 O 0.11165 0.6524 0.1998 0.0
O155 O 0.11006 0.61226 0.24194 0.0
C156 C 0.08639 0.44698 0.27468 0.0
O157 O 0.1473 0.44944 0.26375 0.0
O158 O 0.04139 0.47467 0.2591 0.0
C159 C 0.02779 0.53379 0.18948 0.0
Tb160 Tb 0.84661 0.53696 0.61138 0.0
C161 C 0.92966 0.62679 0.57245 0.0
Tb162 Tb 0.77743 0.60555 0.56952 0.0
O163 O 0.92427 0.47559 0.58997 0.0
O164 O 0.8363 0.50715 0.57018 0.0
O165 O 0.91985 0.61426 0.59768 0.0
C166 C 0.71308 0.64878 0.52633 0.0
O167 O 0.88001 0.61716 0.55565 0.0
C168 C 0.79667 0.68917 0.61117 0.0
C169 C 0.68162 0.52557 0.60982 0.0
O170 O 0.75212 0.68588 0.54134 0.0
O171 O 0.7105 0.58626 0.53586 0.0
O172 O 0.79826 0.70867 0.58695 0.0
O173 O 0.77996 0.62539 0.61077 0.0
O174 O 0.68299 0.56433 0.58837 0.0
O175 O 0.74022 0.50118 0.61998 0.0
C176 C 0.88919 0.52524 0.66064 0.0
O177 O 0.86345 0.47449 0.6467 0.0
O178 O 0.89444 0.58024 0.64623 0.0
C179 C 0.89864 0.4811 0.56652 0.0
Tb180 Tb 0.21152 0.10419 0.86795 0.0
C181 C 0.09696 0.18042 0.84034 0.0
Tb182 Tb 0.15242 0.03839 0.82244 0.0
O183 O 0.25085 0.19821 0.84779 0.0
O184 O 0.24086 0.10806 0.82639 0.0
O185 O 0.12007 0.16549 0.86366 0.0
C186 C 0.14047 0.98647 0.77417 0.0
O187 O 0.11351 0.14303 0.81958 0.0
C188 C 0.06513 0.02766 0.86287 0.0
C189 C 0.23749 0.93994 0.86045 0.0
O190 O 0.09539 0.0261 0.78585 0.0
O191 O 0.19096 0.9737 0.79016 0.0
O192 O 0.04788 0.02519 0.83833 0.0
O193 O 0.13151 0.02736 0.86325 0.0
O194 O 0.19535 0.94317 0.84003 0.0
O195 O 0.25756 0.999 0.87191 0.0
C196 C 0.22786 0.1339 0.9186 0.0
O197 O 0.27817 0.11603 0.90264 0.0
O198 O 0.17057 0.13788 0.90557 0.0
C199 C 0.25192 0.1745 0.8239 0.0
Tb200 Tb 0.62672 0.46723 0.11946 0.0
C201 C 0.54844 0.38629 0.07694 0.0
Tb202 Tb 0.70726 0.41611 0.07113 0.0
O203 O 0.55169 0.53389 0.09959 0.0
O204 O 0.64125 0.50676 0.08008 0.0
O205 O 0.55273 0.39606 0.10259 0.0
C206 C 0.75235 0.40274 1.02168 0.0
O207 O 0.6016 0.39488 0.061 0.0
C208 C 0.71492 0.31977 0.10937 0.0
C209 C 0.79232 0.48905 0.11723 0.0
O210 O 0.70739 0.36318 0.03331 0.0
O211 O 0.77397 0.4492 0.0384 0.0
O212 O 0.74261 0.31313 0.0862 0.0
O213 O 0.68436 0.37832 0.10885 0.0
O214 O 0.79524 0.46252 0.09304 0.0
O215 O 0.73241 0.50025 0.12948 0.0
C216 C 0.59214 0.47252 0.16974 0.0
O217 O 0.61521 0.52472 0.1561 0.0
O218 O 0.58303 0.41914 0.15448 0.0
C219 C 0.57905 0.53294 0.0762 0.0
Tb220 Tb 0.31492 0.89356 0.35825 0.0
C221 C 0.39762 0.81098 0.31693 0.0
Tb222 Tb 0.37216 0.96525 0.31505 0.0
O223 O 0.25706 0.81129 0.33903 0.0
O224 O 0.27628 0.90213 0.31812 0.0
O225 O 0.38963 0.8202 0.34253 0.0
C226 C 0.40659 0.02937 0.2703 0.0
O227 O 0.3864 0.86192 0.30061 0.0
C228 C 0.46566 0.94884 0.3542 0.0
C229 C 0.2911 0.05632 0.35791 0.0
O230 O 0.44904 1.00073 0.28651 0.0
O231 O 0.34393 0.0239 0.2796 0.0
O232 O 0.47881 0.94684 0.3293 0.0
O233 O 0.40111 0.9635 0.35574 0.0
O234 O 0.32959 0.05782 0.33612 0.0
O235 O 0.27072 0.99603 0.36771 0.0
C236 C 0.29933 0.85232 0.40749 0.0
O237 O 0.24891 0.86827 0.39171 0.0
O238 O 0.35789 0.85513 0.39487 0.0
C239 C 0.2536 0.83791 0.31575 0.0
Tb240 Tb 0.25105 0.36937 0.47673 0.0
C241 C 0.32584 0.45966 0.43213 0.0
Tb242 Tb 0.16365 0.41845 0.43212 0.0
O243 O 0.25649 0.26176 0.46156 0.0
O244 O 0.24616 0.34411 0.43586 0.0
O245 O 0.33289 0.42603 0.45478 0.0
C246 C 0.1068 0.4158 0.3849 0.0
O247 O 0.26371 0.46724 0.42103 0.0
C248 C 0.11254 0.48228 0.47683 0.0
C249 C 0.09989 0.32237 0.4731 0.0
O250 O 0.13334 0.47056 0.39603 0.0
O251 O 0.10937 0.36353 0.40082 0.0
O252 O 0.09321 0.49295 0.45275 0.0
O253 O 0.16701 0.4437 0.47298 0.0
O254 O 0.10485 0.33154 0.44759 0.0
O255 O 0.14743 0.34635 0.48904 0.0
C256 C 0.31102 0.36486 0.52389 0.0
O257 O 0.2759 0.31504 0.51301 0.0
O258 O 0.31657 0.41525 0.50715 0.0
C259 C 0.24483 0.27792 0.43724 0.0
Tb260 Tb 0.86641 0.029 0.23185 0.0
C261 C 0.77422 0.10068 0.18785 0.0
Tb262 Tb 0.82473 0.94268 0.18864 0.0
O263 O 0.97532 0.03943 0.22037 0.0
O264 O 0.90189 0.02239 0.19188 0.0
O265 O 0.80354 0.10852 0.21127 0.0
C266 C 0.82044 0.88848 0.14095 0.0
O267 O 0.7704 0.0384 0.17669 0.0
C268 C 0.78166 0.88042 0.23297 0.0
C269 C 0.94163 0.88856 0.22354 0.0
O270 O 0.76563 0.90464 0.15483 0.0
O271 O 0.87617 0.90324 0.15388 0.0
O272 O 0.79181 0.85192 0.21027 0.0
O273 O 0.78532 0.94796 0.22924 0.0
O274 O 0.91146 0.88335 0.20075 0.0
O275 O 0.92697 0.93825 0.24037 0.0
C276 C 0.88309 0.08778 0.27923 0.0
O277 O 0.85294 0.02938 0.27422 0.0
O278 O 0.9016 0.11538 0.25717 0.0
C279 C 0.96785 0.02437 0.19583 0.0
Tb280 Tb 0.23347 0.62644 0.97813 0.0
C281 C 0.17181 0.53396 0.93115 0.0
Tb282 Tb 0.33467 0.57098 0.93538 0.0
O283 O 0.192 0.71957 0.95788 0.0
O284 O 0.26079 0.65255 0.93977 0.0
O285 O 0.15872 0.56675 0.9538 0.0
C286 C 0.3957 0.57627 0.88903 0.0
O287 O 0.23639 0.52306 0.92262 0.0
C288 C 0.38037 0.52498 0.98236 0.0
C289 C 0.38212 0.68888 0.97343 0.0
O290 O 0.37059 0.52003 0.89956 0.0
O291 O 0.39039 0.62783 0.90528 0.0
O292 O 0.4035 0.50457 0.95949 0.0
O293 O 0.32312 0.55721 0.97651 0.0
O294 O 0.39405 0.65439 0.95145 0.0
O295 O 0.3259 0.68234 0.98804 0.0
C296 C 0.17287 0.6356 1.0251 0.0
O297 O 0.1969 0.687 1.01144 0.0
O298 O 0.18303 0.5783 1.01184 0.0
C299 C 0.22704 0.70913 0.93629 0.0
Tb300 Tb 0.65577 0.99871 0.72985 0.0
C301 C 0.74401 0.921 0.68513 0.0
Tb302 Tb 0.7007 0.08352 0.68292 0.0
O303 O 0.54799 0.98733 0.71443 0.0
O304 O 0.62982 1.00186 0.68944 0.0
O305 O 0.71375 0.91581 0.70865 0.0
C306 C 0.69752 0.12312 0.63332 0.0
O307 O 0.7494 0.98227 0.67315 0.0
C308 C 0.75741 0.14109 0.72699 0.0
C309 C 0.60118 0.14565 0.7242 0.0
O310 O 0.75395 0.11277 0.64684 0.0
O311 O 0.64356 0.11581 0.64837 0.0
O312 O 0.75989 0.16558 0.70322 0.0
O313 O 0.73496 0.07781 0.72305 0.0
O314 O 0.61321 0.14164 0.6987 0.0
O315 O 0.62598 0.101 0.74097 0.0
C316 C 0.65022 0.94164 0.77768 0.0
O317 O 0.60098 0.97643 0.76646 0.0
O318 O 0.70131 0.93527 0.76112 0.0
C319 C 0.56403 0.99973 0.69009 0.0
C320 C 0.44432 0.26524 0.04238 0.0
C321 C 0.39554 0.25737 0.06272 0.0
C322 C 0.42092 0.36986 0.08069 0.0
C323 C 0.48189 0.36771 0.06519 0.0
N324 N 0.52134 0.34585 1.02081 0.0
N325 N 0.31008 0.31488 0.0894 0.0
C326 C 0.48315 0.32677 0.04213 0.0
C327 C 0.3739 0.31491 0.07777 0.0
N328 N 0.45662 0.21309 1.02485 0.0
N329 N 0.41101 0.42072 0.09901 0.0
H330 H 0.2751 0.27482 0.08558 0.0
H331 H 0.28974 0.35673 0.09998 0.0
H332 H 0.44421 0.46312 0.10045 0.0
H333 H 0.3709 0.42036 0.11277 0.0
H334 H 0.49836 0.21331 1.01177 0.0
H335 H 0.4251 0.16935 1.02388 0.0
H336 H 0.52061 0.31853 1.00314 0.0
H337 H 0.5466 0.39359 1.01987 0.0
C338 C 0.4831 0.69754 0.34226 0.0
C339 C 0.54509 0.72414 0.33095 0.0
C340 C 0.48142 0.75442 0.2918 0.0
C341 C 0.4213 0.74405 0.30657 0.0
N342 N 0.36676 0.65723 0.33281 0.0
N343 N 0.60297 0.78331 0.29534 0.0
C344 C 0.42416 0.69446 0.32633 0.0
C345 C 0.5445 0.75374 0.30547 0.0
N346 N 0.47815 0.68375 0.36833 0.0
N347 N 0.47664 0.77197 0.26618 0.0
H348 H 0.64761 0.78836 0.30664 0.0
H349 H 0.60456 0.80862 0.27735 0.0
H350 H 0.42814 0.77617 0.25743 0.0
H351 H 0.5196 0.77772 0.25388 0.0
H352 H 0.43211 0.66721 0.37716 0.0
H353 H 0.51635 0.69968 0.38141 0.0
H354 H 0.36709 0.61973 0.34753 0.0
H355 H 0.3216 0.66098 0.32171 0.0
C356 C 0.08126 0.70764 0.59011 0.0
C357 C 0.0776 0.76574 0.57303 0.0
C358 C 0.99911 0.70368 0.54411 0.0
C359 C 0.99675 0.65169 0.56346 0.0
N360 N 0.06143 0.58378 0.59369 0.0
N361 N 0.05144 0.81062 0.52958 0.0
C362 C 0.04902 0.6463 0.5821 0.0
C363 C 0.04308 0.76094 0.54843 0.0
N364 N 0.11232 0.71106 0.61409 0.0
N365 N 0.95682 0.70018 0.52276 0.0
H366 H 0.0794 0.85616 0.53238 0.0
H367 H 0.03361 0.80533 0.51047 0.0
H368 H 0.93167 0.65451 0.51735 0.0
H369 H 0.94716 0.74181 0.5103 0.0
H370 H 0.10696 0.67207 0.62806 0.0
H371 H 0.13955 0.75381 0.62104 0.0
H372 H 0.09784 0.57609 0.60833 0.0
H373 H 0.03763 0.53859 0.58687 0.0
C374 C 0.97823 0.2144 0.84872 0.0
C375 C 0.04259 0.23094 0.8372 0.0
C376 C 0.98539 0.28829 0.80119 0.0
C377 C 0.92249 0.27507 0.81404 0.0
N378 N 0.8543 0.20281 0.84137 0.0
N379 N 0.10865 0.30193 0.80789 0.0
C380 C 0.91824 0.22554 0.83386 0.0
C381 C 0.0468 0.2728 0.81466 0.0
N382 N 0.97441 0.19572 0.87439 0.0
N383 N 0.98542 0.31855 0.77712 0.0
H384 H 0.15189 0.29631 0.81996 0.0
H385 H 0.1142 0.33774 0.79277 0.0
H386 H 0.9389 0.329 0.76741 0.0
H387 H 0.03054 0.32686 0.76621 0.0
H388 H 0.92753 0.19304 0.88453 0.0
H389 H 0.01794 0.19315 0.88641 0.0
H390 H 0.845 0.17377 0.85801 0.0
H391 H 0.81053 0.21387 0.83017 0.0
C392 C 0.49175 0.84518 0.97067 0.0
C393 C 0.54201 0.82892 0.98928 0.0
C394 C 0.46473 0.74043 1.00587 0.0
C395 C 0.43227 0.74068 0.98076 0.0
N396 N 0.43449 0.78778 0.9361 0.0
N397 N 0.57087 0.76807 0.02909 0.0
C398 C 0.45057 0.79155 0.96211 0.0
C399 C 0.52645 0.77967 1.00884 0.0
N400 N 0.4901 0.90797 0.95874 0.0
N401 N 0.4385 0.7032 0.0263 0.0
H402 H 0.61259 0.80072 0.03319 0.0
H403 H 0.56614 0.72568 0.04165 0.0
H404 H 0.39333 0.67392 1.02513 0.0
H405 H 0.45823 0.70711 0.04521 0.0
H406 H 0.45198 0.92157 0.94539 0.0
H407 H 0.52184 0.94788 0.96471 0.0
H408 H 0.45777 0.82085 0.92248 0.0
H409 H 0.40113 0.75193 0.92764 0.0
C410 C 0.49337 0.18598 0.74486 0.0
C411 C 0.55985 0.20162 0.73461 0.0
C412 C 0.53479 0.32383 0.73867 0.0
C413 C 0.46387 0.30622 0.73875 0.0
N414 N 0.37444 0.21786 0.73879 0.0
N415 N 0.64241 0.28833 0.71949 0.0
C416 C 0.44214 0.23672 0.74183 0.0
C417 C 0.58142 0.27147 0.7315 0.0
N418 N 0.47742 0.12246 0.75511 0.0
N419 N 0.55665 0.39058 0.74258 0.0
H420 H 0.6753 0.25135 0.71147 0.0
H421 H 0.65646 0.33931 0.71502 0.0
H422 H 0.52259 0.43126 0.74676 0.0
H423 H 0.60912 0.40356 0.74416 0.0
H424 H 0.42945 0.11241 0.76393 0.0
H425 H 0.51333 0.08229 0.75695 0.0
H426 H 0.35782 0.16625 0.73907 0.0
H427 H 0.33691 0.25298 0.73278 0.0
C428 C 0.03501 0.25194 0.50605 0.0
C429 C 0.03463 0.30052 0.48479 0.0
C430 C 0.9095 0.3075 0.48807 0.0
C431 C 0.912 0.24287 0.49962 0.0
N432 N 0.96337 0.17478 0.533 0.0
N433 N 0.96726 0.38255 0.45809 0.0
C434 C 0.97039 0.22369 0.51392 0.0
C435 C 0.9708 0.33241 0.47687 0.0
N436 N 0.09575 0.22865 0.5168 0.0
N437 N 0.84789 0.34195 0.48697 0.0
H438 H 0.00991 0.40328 0.44859 0.0
H439 H 0.92027 0.40078 0.45066 0.0
H440 H 0.80329 0.32045 0.49542 0.0
H441 H 0.84384 0.39336 0.48079 0.0
H442 H 0.0981 0.19558 0.53282 0.0
H443 H 0.14477 0.23946 0.5092 0.0
H444 H 1.0037 0.15662 0.54463 0.0
H445 H 0.91452 0.15454 0.5377 0.0
C446 C 0.04409 0.74668 0.2555 0.0
C447 C 0.09091 0.73368 0.23462 0.0
C448 C 0.04948 0.82865 0.20971 0.0
C449 C 0.99741 0.84072 0.22914 0.0
N450 N 0.95793 0.82351 0.27422 0.0
N451 N 0.16469 0.78677 0.20231 0.0
C452 C 0.99962 0.80495 0.25357 0.0
C453 C 0.10418 0.78549 0.21619 0.0
N454 N 0.03833 0.70144 0.27592 0.0
N455 N 0.04531 0.85177 0.18445 0.0
H456 H 0.20383 0.75093 0.20549 0.0
H457 H 0.17716 0.82648 0.18928 0.0
H458 H 0.00668 0.8829 0.17679 0.0
H459 H 0.07931 0.83469 0.16978 0.0
H460 H 0.99667 0.70138 0.28903 0.0
H461 H 0.07576 0.66405 0.27999 0.0
H462 H 0.96479 0.8043 0.29307 0.0
H463 H 0.91885 0.86065 0.27337 0.0
C464 C 0.54177 0.97617 0.05306 0.0
C465 C 0.47381 1.00478 0.04831 0.0
C466 C 0.51748 0.03732 1.0039 0.0
C467 C 0.58515 1.00612 1.00776 0.0
N468 N 0.6639 0.96188 0.04004 0.0
N469 N 0.39394 0.03979 1.01518 0.0
C470 C 0.59737 0.97908 0.03346 0.0
C471 C 0.46094 0.02765 1.02243 0.0
N472 N 0.55202 0.94244 0.07622 0.0
N473 N 0.50793 0.08218 0.98356 0.0
H474 H 0.35261 0.03202 0.02807 0.0
H475 H 0.37934 0.04973 0.99592 0.0
H476 H 0.54896 0.10182 0.97252 0.0
H477 H 0.46157 0.10894 0.9804 0.0
H478 H 0.59652 0.9141 0.08068 0.0
H479 H 0.5123 0.93655 0.09002 0.0
H480 H 0.67948 0.94754 0.05873 0.0
H481 H 0.70554 0.96941 0.0273 0.0
C482 C 0.79113 0.80255 0.30427 0.0
C483 C 0.77504 0.72956 0.30093 0.0
C484 C 0.74985 0.7598 0.25402 0.0
C485 C 0.76746 0.83229 0.25753 0.0
N486 N 0.76837 0.92134 0.29019 0.0
N487 N 0.75659 0.63933 0.26902 0.0
C488 C 0.77776 0.8532 0.28388 0.0
C489 C 0.75917 0.70863 0.27475 0.0
N490 N 0.82486 0.82404 0.32631 0.0
N491 N 0.71611 0.74063 0.23165 0.0
H492 H 0.76815 0.60137 0.28277 0.0
H493 H 0.7523 0.61968 0.25006 0.0
H494 H 0.69842 0.77684 0.21806 0.0
H495 H 0.69567 0.69119 0.2285 0.0
H496 H 0.8422 0.87499 0.32888 0.0
H497 H 0.84554 0.78941 0.33986 0.0
H498 H 0.76898 0.93974 0.30943 0.0
H499 H 0.7491 0.9565 0.2765 0.0
C500 C 0.99392 0.96874 0.5423 0.0
C501 C 0.0644 0.99616 0.54285 0.0
C502 C 0.03441 0.0535 0.50004 0.0
C503 C 0.96475 0.02398 0.4991 0.0
N504 N 0.88998 0.93724 0.51742 0.0
N505 N 0.1521 0.05687 0.51853 0.0
C506 C 0.94792 0.97769 0.51986 0.0
C507 C 0.08466 0.03513 0.52035 0.0
N508 N 0.96992 0.93148 0.56316 0.0
N509 N 0.05214 0.10359 0.48227 0.0
H510 H 0.18824 0.04969 0.53335 0.0
H511 H 0.17469 0.07647 0.50158 0.0
H512 H 0.01604 0.13063 0.47117 0.0
H513 H 0.10079 0.12652 0.48069 0.0
H514 H 0.91736 0.92145 0.56634 0.0
H515 H 1.00175 0.91059 0.57748 0.0
H516 H 0.87888 0.89535 0.5296 0.0
H517 H 0.85595 0.94128 0.5017 0.0
C518 C 0.7088 0.23507 0.79427 0.0
C519 C 0.73654 0.30438 0.79148 0.0
C520 C 0.78515 0.26264 0.74842 0.0
C521 C 0.75743 0.1932 0.75126 0.0
N522 N 0.7164 0.11169 0.78311 0.0
N523 N 0.77922 0.38609 0.75993 0.0
C524 C 0.72582 0.17921 0.77597 0.0
C525 C 0.76848 0.31851 0.76682 0.0
N526 N 0.66087 0.2231 0.81351 0.0
N527 N 0.83283 0.27462 0.72908 0.0
H528 H 0.76291 0.42727 0.77176 0.0
H529 H 0.79539 0.40121 0.74131 0.0
H530 H 0.85363 0.23482 0.71752 0.0
H531 H 0.85942 0.32147 0.72705 0.0
H532 H 0.63383 0.17639 0.81523 0.0
H533 H 0.64064 0.26282 0.82526 0.0
H534 H 0.70052 0.09688 0.8018 0.0
H535 H 0.73291 0.07066 0.77122 0.0
C536 C 0.28626 0.34471 0.78141 0.0
C537 C 0.25093 0.33249 0.75735 0.0
C538 C 0.21994 0.21408 0.77546 0.0
C539 C 0.25803 0.22442 0.79917 0.0
N540 N 0.34189 0.29845 0.82052 0.0
N541 N 0.15873 0.26465 0.73845 0.0
C542 C 0.29458 0.28988 0.80094 0.0
C543 C 0.21089 0.26946 0.75644 0.0
N544 N 0.30638 0.41091 0.78688 0.0
N545 N 0.19368 0.15001 0.77031 0.0
H546 H 0.14518 0.30594 0.72629 0.0
H547 H 0.12232 0.22461 0.73824 0.0
H548 H 0.20235 0.10863 0.78277 0.0
H549 H 0.17139 0.13615 0.7525 0.0
H550 H 0.32523 0.42677 0.80502 0.0
H551 H 0.29428 0.45128 0.77418 0.0
H552 H 0.37513 0.34105 0.82171 0.0
H553 H 0.35425 0.25897 0.83364 0.0
C554 C 0.21445 0.71903 0.29565 0.0
C555 C 0.24382 0.78718 0.2916 0.0
C556 C 0.2824 0.74304 0.24767 0.0
C557 C 0.25334 0.67446 0.25168 0.0
N558 N 0.21297 0.59522 0.28441 0.0
N559 N 0.28158 0.8671 0.25866 0.0
C560 C 0.22527 0.66223 0.2771 0.0
C561 C 0.27045 0.79995 0.26605 0.0
N562 N 0.17131 0.70932 0.31664 0.0
N563 N 0.32671 0.75323 0.22706 0.0
H564 H 0.26955 0.90894 0.2709 0.0
H565 H 0.29355 0.88162 0.23954 0.0
H566 H 0.34902 0.71217 0.21661 0.0
H567 H 0.35028 0.80062 0.22291 0.0
H568 H 0.14455 0.66326 0.32019 0.0
H569 H 0.15414 0.75043 0.3284 0.0
H570 H 0.19892 0.58076 0.30333 0.0
H571 H 0.22583 0.55337 0.27229 0.0
C572 C 0.99053 0.5167 0.49768 0.0
C573 C 0.05871 0.48559 0.50056 0.0
C574 C 0.01542 0.442 0.544 0.0
C575 C 0.94837 0.47503 0.54167 0.0
N576 N 0.86771 0.52143 0.51059 0.0
N577 N 0.13828 0.44002 0.5323 0.0
C578 C 0.93482 0.50573 0.51679 0.0
C579 C 0.07139 0.45418 0.52537 0.0
N580 N 0.98002 0.56272 0.47776 0.0
N581 N 0.02454 0.39301 0.56297 0.0
H582 H 0.18026 0.45302 0.52036 0.0
H583 H 0.15237 0.42398 0.55101 0.0
H584 H 0.98383 0.37543 0.57473 0.0
H585 H 0.06909 0.36224 0.56426 0.0
H586 H 0.93409 0.59058 0.47522 0.0
H587 H 0.02034 0.58172 0.4662 0.0
H588 H 0.85201 0.53671 0.49198 0.0
H589 H 0.82643 0.51052 0.52315 0.0
C590 C 0.55365 0.53307 1.02476 0.0
C591 C 0.53032 0.53918 0.05121 0.0
C592 C 0.40803 0.5347 0.03295 0.0
C593 C 0.43105 0.53346 1.00644 0.0
N594 N 0.53144 0.55841 0.97904 0.0
N595 N 0.4306 0.58274 0.07588 0.0
C596 C 0.5055 0.53969 1.00292 0.0
C597 C 0.45609 0.55023 0.05404 0.0
N598 N 0.62241 0.52236 1.01992 0.0
N599 N 0.33977 0.52234 0.03842 0.0
H600 H 0.46242 0.60762 0.08941 0.0
H601 H 0.37818 0.59561 0.0781 0.0
H602 H 0.30361 0.51132 1.02384 0.0
H603 H 0.32121 0.51686 0.05753 0.0
H604 H 0.64063 0.50602 1.00167 0.0
H605 H 0.66003 0.52592 0.03442 0.0
H606 H 0.58382 0.56926 0.97588 0.0
H607 H 0.5004 0.57364 0.96347 0.0
C608 C 0.2451 0.22791 0.16157 0.0
C609 C 0.21295 0.22398 0.1364 0.0
C610 C 0.15095 0.33339 0.14721 0.0
C611 C 0.19186 0.34276 0.17011 0.0
N612 N 0.28176 0.30007 0.19829 0.0
N613 N 0.14133 0.2819 0.10412 0.0
C614 C 0.23987 0.29015 0.17709 0.0
C615 C 0.16698 0.2788 0.12901 0.0
N616 N 0.27773 0.17077 0.17143 0.0
N617 N 0.09488 0.37555 0.14312 0.0
H618 H 0.15268 0.24552 0.08958 0.0
H619 H 0.1147 0.32505 0.09695 0.0
H620 H 0.08099 0.41529 0.156 0.0
H621 H 0.05813 0.36638 0.12858 0.0
H622 H 0.29489 0.16736 0.19069 0.0
H623 H 0.28075 0.12408 0.16123 0.0
H624 H 0.3232 0.2674 0.20278 0.0
H625 H 0.27786 0.34377 0.21042 0.0
C626 C 0.49848 0.55017 0.41101 0.0
C627 C 0.51339 0.51709 0.38652 0.0
C628 C 0.40478 0.44881 0.39169 0.0
C629 C 0.39071 0.48022 0.41661 0.0
N630 N 0.43104 0.55398 0.45159 0.0
N631 N 0.49119 0.41831 0.35875 0.0
C632 C 0.44015 0.52829 0.42682 0.0
C633 C 0.46929 0.46182 0.37839 0.0
N634 N 0.5382 0.60504 0.41868 0.0
N635 N 0.35666 0.40609 0.38037 0.0
H636 H 0.53987 0.42293 0.34984 0.0
H637 H 0.46536 0.37269 0.35362 0.0
H638 H 0.31159 0.3894 0.38974 0.0
H639 H 0.35972 0.38999 0.36089 0.0
H640 H 0.52639 0.63757 0.43444 0.0
H641 H 0.58131 0.62042 0.40795 0.0
H642 H 0.46868 0.58238 0.46156 0.0
H643 H 0.38699 0.54362 0.46288 0.0
C644 C 0.31047 0.7772 0.65857 0.0
C645 C 0.29055 0.76836 0.63202 0.0
C646 C 0.26439 0.64515 0.64181 0.0
C647 C 0.29176 0.65113 0.66777 0.0
N648 N 0.36162 0.72428 0.69668 0.0
N649 N 0.26318 0.6888 0.59708 0.0
C650 C 0.31985 0.71773 0.67521 0.0
C651 C 0.27327 0.70038 0.62321 0.0
N652 N 0.32233 0.84265 0.66796 0.0
N653 N 0.2264 0.5879 0.63513 0.0
H654 H 0.26563 0.72808 0.5831 0.0
H655 H 0.25732 0.63953 0.58892 0.0
H656 H 0.20509 0.5546 0.64907 0.0
H657 H 0.20927 0.57753 0.61628 0.0
H658 H 0.32817 0.85361 0.68783 0.0
H659 H 0.32151 0.88643 0.65602 0.0
H660 H 0.38824 0.76992 0.70118 0.0
H661 H 0.37887 0.68304 0.70796 0.0
C662 C 0.00747 0.44905 0.90008 0.0
C663 C 0.99744 0.48987 0.8771 0.0
C664 C 0.10863 0.54874 0.88727 0.0
C665 C 0.11207 0.51678 0.91252 0.0
N666 N 0.05773 0.43982 0.9436 0.0
N667 N 0.03391 0.59034 0.85254 0.0
C668 C 0.05856 0.46886 0.91927 0.0
C669 C 0.04688 0.54293 0.8718 0.0
N670 N 0.97335 0.38739 0.90244 0.0
N671 N 0.16427 0.58446 0.87752 0.0
H672 H 0.98756 0.59138 0.84202 0.0
H673 H 0.0655 0.63333 0.84909 0.0
H674 H 0.20846 0.59647 0.88826 0.0
H675 H 0.16751 0.59991 0.858 0.0
H676 H 0.98213 0.35243 0.91762 0.0
H677 H 0.94417 0.36712 0.88714 0.0
H678 H 0.01625 0.4101 0.95047 0.0
H679 H 0.09636 0.44921 0.95743 0.0
C680 C 0.79673 0.70431 0.87545 0.0
C681 C 0.7524 0.64486 0.87588 0.0
C682 C 0.70202 0.68891 0.91773 0.0
C683 C 0.75353 0.74216 0.91927 0.0
N684 N 0.85589 0.79439 0.90024 0.0
N685 N 0.64156 0.60345 0.89088 0.0
C686 C 0.8018 0.74878 0.8981 0.0
C687 C 0.69891 0.64367 0.89526 0.0
N688 N 0.82976 0.72217 0.85275 0.0
N689 N 0.6565 0.6802 0.93806 0.0
H690 H 0.6343 0.57661 0.8733 0.0
H691 H 0.5973 0.60403 0.90268 0.0
H692 H 0.65411 0.71343 0.95419 0.0
H693 H 0.62369 0.63751 0.93975 0.0
H694 H 0.85812 0.76791 0.85056 0.0
H695 H 0.81928 0.698 0.83493 0.0
H696 H 0.89742 0.79571 0.88709 0.0
H697 H 0.86313 0.82636 0.91649 0.0
C698 C 0.51858 0.57218 0.65146 0.0
C699 C 0.50875 0.50961 0.66575 0.0
C700 C 0.59774 0.45378 0.6372 0.0
C701 C 0.61528 0.51891 0.62592 0.0
N702 N 0.59518 0.6438 0.62541 0.0
N703 N 0.54791 0.39273 0.67413 0.0
C704 C 0.5757 0.57894 0.63353 0.0
C705 C 0.55015 0.45062 0.65887 0.0
N706 N 0.47282 0.62578 0.65496 0.0
N707 N 0.62618 0.39439 0.62698 0.0
H708 H 0.51683 0.39016 0.6907 0.0
H709 H 0.58166 0.35063 0.67197 0.0
H710 H 0.65968 0.39472 0.61085 0.0
H711 H 0.61086 0.34481 0.63268 0.0
H712 H 0.47096 0.66938 0.64292 0.0
H713 H 0.43245 0.62336 0.66848 0.0
H714 H 0.57408 0.68953 0.6331 0.0
H715 H 0.63694 0.65354 0.61303 0.0
C716 C 0.73734 0.32998 0.42809 0.0
C717 C 0.73525 0.26266 0.41666 0.0
C718 C 0.74849 0.31892 0.37298 0.0
C719 C 0.75484 0.3862 0.38485 0.0
N720 N 0.788 0.44434 0.42513 0.0
N721 N 0.74574 0.19268 0.37769 0.0
C722 C 0.7586 0.38863 0.41282 0.0
C723 C 0.74285 0.25722 0.38891 0.0
N724 N 0.71863 0.33865 0.45368 0.0
N725 N 0.74951 0.31342 0.34633 0.0
H726 H 0.73597 0.14756 0.38824 0.0
H727 H 0.76029 0.18346 0.35833 0.0
H728 H 0.76728 0.35337 0.33431 0.0
H729 H 0.73346 0.26924 0.33618 0.0
H730 H 0.71217 0.38762 0.46225 0.0
H731 H 0.70309 0.29738 0.46552 0.0
H732 H 0.79273 0.44806 0.44538 0.0
H733 H 0.81847 0.48063 0.41534 0.0
C734 C 0.90666 0.55122 0.12884 0.0
C735 C 0.85783 0.49724 0.13359 0.0
C736 C 0.93034 0.45951 0.17105 0.0
C737 C 0.97301 0.51937 0.16875 0.0
N738 N 0.98982 0.63082 0.14828 0.0
N739 N 0.81784 0.40806 0.16344 0.0
C740 C 0.95842 0.56733 0.14821 0.0
C741 C 0.86823 0.4538 0.15591 0.0
N742 N 0.90284 0.58836 0.10619 0.0
N743 N 0.94962 0.40684 0.18741 0.0
H744 H 0.77255 0.3997 0.15287 0.0
H745 H 0.8189 0.38177 0.18124 0.0
H746 H 0.99516 0.40811 0.19842 0.0
H747 H 0.92441 0.35891 0.18789 0.0
H748 H 0.94076 0.62393 0.10048 0.0
H749 H 0.86459 0.57931 0.09217 0.0
H750 H 0.97721 0.67038 0.13523 0.0
H751 H 0.0222 0.64658 0.16343 0.0
C752 C 0.74345 0.73436 0.65471 0.0
C753 C 0.79325 0.74066 0.63414 0.0
C754 C 0.82477 0.85603 0.65304 0.0
C755 C 0.76481 0.85566 0.66961 0.0
N756 N 0.6577 0.79561 0.68068 0.0
N757 N 0.88622 0.8083 0.61526 0.0
C758 C 0.72197 0.79488 0.66917 0.0
C759 C 0.83515 0.80196 0.63378 0.0
N760 N 0.71702 0.67087 0.66111 0.0
N761 N 0.87372 0.90661 0.65641 0.0
H762 H 0.90234 0.76707 0.60334 0.0
H763 H 0.91149 0.85494 0.61126 0.0
H764 H 0.86995 0.9444 0.67104 0.0
H765 H 0.92136 0.90692 0.64667 0.0
H766 H 0.68485 0.66333 0.67734 0.0
H767 H 0.73417 0.62477 0.65256 0.0
H768 H 0.62243 0.75485 0.67851 0.0
H769 H 0.63569 0.83946 0.68941 0.0
C770 C 0.90206 0.03637 0.90713 0.0
C771 C 0.9129 0.98544 0.92652 0.0
C772 C 0.03105 0.96894 0.90744 0.0
C773 C 0.01408 0.01177 0.88531 0.0
N774 N 0.91396 0.05714 0.86141 0.0
N775 N 0.9867 0.89039 0.94072 0.0
C776 C 0.94407 0.03682 0.88424 0.0
C777 C 0.9774 0.94836 0.92572 0.0
N778 N 0.85015 0.08436 0.91023 0.0
N779 N 0.09695 0.94466 0.91084 0.0
H780 H 0.9503 0.87197 0.95402 0.0
H781 H 0.02825 0.85612 0.93807 0.0
H782 H 0.13733 0.95345 0.89787 0.0
H783 H 0.11241 0.91875 0.92771 0.0
H784 H 0.83889 0.12194 0.89631 0.0
H785 H 0.82315 0.09056 0.92788 0.0
H786 H 0.85993 0.06037 0.85994 0.0
H787 H 0.93943 0.06452 0.84373 0.0
C788 C 0.68681 0.17682 0.16255 0.0
C789 C 0.75614 0.16407 0.17114 0.0
C790 C 0.79716 0.255 0.14017 0.0
C791 C 0.72761 0.27014 0.1323 0.0
N792 N 0.60535 0.24898 0.13802 0.0
N793 N 0.87616 0.20076 0.17098 0.0
C794 C 0.67222 0.23239 0.14433 0.0
C795 C 0.81067 0.20639 0.16087 0.0
N796 N 0.63488 0.13442 0.17138 0.0
N797 N 0.85138 0.28628 0.12743 0.0
H798 H 0.89006 0.16438 0.18505 0.0
H799 H 0.91603 0.23571 0.16694 0.0
H800 H 0.84501 0.32704 0.11426 0.0
H801 H 0.90287 0.27007 0.12904 0.0
H802 H 0.58468 0.13424 0.16389 0.0
H803 H 0.64306 0.09652 0.18562 0.0
H804 H 0.5619 0.22942 0.14763 0.0
H805 H 0.59328 0.28568 0.12383 0.0
C806 C 0.648 0.94964 0.3892 0.0
C807 C 0.63763 0.99841 0.40997 0.0
C808 C 0.51062 0.99643 0.39909 0.0
C809 C 0.52288 0.95881 0.37533 0.0
N810 N 0.6065 0.89332 0.34961 0.0
N811 N 0.55527 0.07536 0.43179 0.0
C812 C 0.59267 0.93399 0.37097 0.0
C813 C 0.5679 0.02322 0.41416 0.0
N814 N 0.70974 0.91432 0.38781 0.0
N815 N 0.44439 1.00461 0.40842 0.0
H816 H 0.59261 0.09608 0.44406 0.0
H817 H 0.50829 0.10249 0.43263 0.0
H818 H 0.40091 0.98295 0.39968 0.0
H819 H 0.43329 0.02493 0.42692 0.0
H820 H 0.71902 0.87267 0.37516 0.0
H821 H 0.74969 0.92168 0.40127 0.0
H822 H 0.65653 0.88381 0.34254 0.0
H823 H 0.5677 0.86919 0.33881 0.0
C824 C 0.32159 0.21948 0.40214 0.0
C825 C 0.25548 0.22672 0.41458 0.0
C826 C 0.21041 0.13457 0.3849 0.0
C827 C 0.27799 0.12163 0.37448 0.0
N828 N 0.40109 0.14638 0.3771 0.0
N829 N 0.14123 0.1783 0.42127 0.0
C830 C 0.33431 0.16337 0.38388 0.0
C831 C 0.20108 0.1808 0.40684 0.0
N832 N 0.37345 0.26506 0.40831 0.0
N833 N 0.15436 0.10338 0.37351 0.0
H834 H 0.13362 0.20822 0.43806 0.0
H835 H 0.10257 0.14122 0.41831 0.0
H836 H 0.15907 0.0705 0.35728 0.0
H837 H 0.10315 0.11601 0.37832 0.0
H838 H 0.41972 0.26872 0.39774 0.0
H839 H 0.3683 0.30297 0.42285 0.0
H840 H 0.44462 0.1682 0.38594 0.0
H841 H 0.41394 0.1061 0.36431 0.0
C842 C 0.02173 0.0195 0.1489 0.0
C843 C 0.0297 0.01418 0.1766 0.0
C844 C 0.15554 0.98489 0.16829 0.0
C845 C 0.1467 0.99182 0.14079 0.0
N846 N 0.0618 0.98071 0.1063 0.0
N847 N 0.10999 0.99104 0.2124 0.0
C848 C 0.07713 0.99903 0.13146 0.0
C849 C 0.09843 0.99742 0.18614 0.0
N850 N 0.96302 0.04863 0.13878 0.0
N851 N 0.21678 0.95763 0.17722 0.0
H852 H 0.07209 0.97694 0.22587 0.0
H853 H 0.15871 0.99733 0.22088 0.0
H854 H 0.25441 0.93693 0.16464 0.0
H855 H 0.22731 0.94641 0.19671 0.0
H856 H 0.95878 0.06158 0.11905 0.0
H857 H 0.92265 0.06827 0.15024 0.0
H858 H 0.01109 0.97959 0.09919 0.0
H859 H 0.09714 0.95507 0.09412 0.0
C860 C 0.29099 0.87028 0.89766 0.0
C861 C 0.24728 0.87113 0.87538 0.0
C862 C 0.19081 0.76434 0.89269 0.0
C863 C 0.23502 0.76385 0.91492 0.0
N864 N 0.30212 0.8378 0.94321 0.0
N865 N 0.17427 0.79974 0.84771 0.0
C866 C 0.27833 0.82279 0.91871 0.0
C867 C 0.2023 0.81277 0.87173 0.0
N868 N 0.34741 0.91294 0.89813 0.0
N869 N 0.13274 0.72384 0.89279 0.0
H870 H 0.18972 0.82631 0.83095 0.0
H871 H 0.14524 0.75527 0.84366 0.0
H872 H 0.12038 0.69096 0.90833 0.0
H873 H 0.09338 0.72895 0.87895 0.0
H874 H 0.38264 0.9135 0.91335 0.0
H875 H 0.36356 0.94104 0.88177 0.0
H876 H 0.29235 0.80631 0.95937 0.0
H877 H 0.32735 0.88421 0.94777 0.0
C878 C 0.52315 0.96545 0.64327 0.0
C879 C 0.51254 1.00366 0.66704 0.0
C880 C 0.40151 0.04757 0.64801 0.0
C881 C 0.40571 0.99996 0.62661 0.0
N882 N 0.47435 0.9106 0.60474 0.0
N883 N 0.43774 0.08123 0.69158 0.0
C884 C 0.46806 0.95906 0.62425 0.0
C885 C 0.45054 0.04455 0.66916 0.0
N886 N 0.586 0.93457 0.63848 0.0
N887 N 0.35168 0.09837 0.64762 0.0
H888 H 0.47433 0.08663 0.70627 0.0
H889 H 0.38969 0.10339 0.69613 0.0
H890 H 0.31711 0.10401 0.63209 0.0
H891 H 0.3494 0.13935 0.66101 0.0
H892 H 0.60072 0.91542 0.62016 0.0
H893 H 0.62583 0.93229 0.65207 0.0
H894 H 0.51102 0.87062 0.60504 0.0
H895 H 0.44229 0.90804 0.58853 0.0
C896 C 0.1859 0.16592 0.98982 0.0
C897 C 0.19343 0.0982 1.00043 0.0
C898 C 0.22306 0.05312 0.9568 0.0
C899 C 0.22642 0.12254 0.94725 0.0
N900 N 0.21505 0.24568 0.95476 0.0
N901 N 0.20162 0.97463 0.99301 0.0
C902 C 0.20881 0.17914 0.96382 0.0
C903 C 0.20651 0.04088 0.98355 0.0
N904 N 0.15281 0.21637 1.00414 0.0
N905 N 0.2316 0.99863 0.93988 0.0
H906 H 0.17322 0.96307 1.00987 0.0
H907 H 0.22315 0.93104 0.98392 0.0
H908 H 0.2471 1.00451 0.92055 0.0
H909 H 0.21991 0.94747 0.94449 0.0
H910 H 0.14081 0.2655 0.99688 0.0
H911 H 0.12915 0.20578 1.02211 0.0
H912 H 0.20951 0.28957 0.96662 0.0
H913 H 0.23199 0.25679 0.93578 0.0
C914 C 0.63124 0.41794 0.21225 0.0
C915 C 0.59347 0.4707 0.19873 0.0
C916 C 0.58536 0.53895 0.23906 0.0
C917 C 0.61721 0.48361 0.25306 0.0
N918 N 0.65732 0.36481 0.25407 0.0
N919 N 0.51967 0.57211 0.2008 0.0
C920 C 0.63591 0.42123 0.24 0.0
C921 C 0.5656 0.52812 0.21268 0.0
N922 N 0.66687 0.36743 0.1988 0.0
N923 N 0.57817 0.60346 0.25021 0.0
H924 H 0.50297 0.56479 0.18157 0.0
H925 H 0.49266 0.61103 0.21088 0.0
H926 H 0.59647 0.61598 0.26879 0.0
H927 H 0.56152 0.64693 0.23981 0.0
H928 H 0.70127 0.33304 0.20774 0.0
H929 H 0.66802 0.36338 0.17852 0.0
H930 H 0.66439 0.31561 0.24581 0.0
H931 H 0.66176 0.3656 0.27443 0.0
C932 C 0.24297 0.89412 0.47704 0.0
C933 C 0.29563 0.86054 0.49149 0.0
C934 C 0.33794 0.80587 0.45106 0.0
C935 C 0.29425 0.85104 0.43641 0.0
N936 N 0.21852 0.95292 0.43691 0.0
N937 N 0.39598 0.78533 0.4925 0.0
C938 C 0.24989 0.89897 0.44968 0.0
C939 C 0.3438 0.81607 0.47863 0.0
N940 N 0.18503 0.91971 0.48928 0.0
N941 N 0.37224 0.75243 0.43882 0.0
H942 H 0.40089 0.79121 0.51273 0.0
H943 H 0.4369 0.75816 0.48373 0.0
H944 H 0.36706 0.74199 0.41886 0.0
H945 H 0.40006 0.71443 0.44884 0.0
H946 H 0.14246 0.93892 0.47895 0.0
H947 H 0.17612 0.91361 0.50929 0.0
H948 H 0.19061 0.99166 0.44678 0.0
H949 H 0.22765 0.96507 0.41738 0.0
C950 C 0.82159 0.53894 0.70206 0.0
C951 C 0.88719 0.53046 0.68952 0.0
C952 C 0.94575 0.55867 0.73089 0.0
C953 C 0.87961 0.56486 0.74326 0.0
N954 N 0.75972 0.5967 0.73722 0.0
N955 N 0.01165 0.54391 0.69038 0.0
C956 C 0.81893 0.566 0.72783 0.0
C957 C 0.94945 0.54407 0.70347 0.0
N958 N 0.76145 0.52118 0.68959 0.0
N959 N 1.00464 0.56798 0.74532 0.0
H960 H 0.01617 0.52994 0.67067 0.0
H961 H 0.05845 0.5599 0.69855 0.0
H962 H 1.00333 0.58986 0.76405 0.0
H963 H 0.05439 0.55525 0.7388 0.0
H964 H 0.71333 0.51998 0.69905 0.0
H965 H 0.75993 0.50166 0.67059 0.0
H966 H 0.71523 0.60363 0.72593 0.0
H967 H 0.75889 0.62458 0.75479 0.0
C968 C 0.83932 0.93579 0.09682 0.0
C969 C 0.82208 0.87782 0.1125 0.0
C970 C 0.8335 0.80062 0.07439 0.0
C971 C 0.84857 0.85992 0.05879 0.0
N972 N 0.90012 0.97397 0.05812 0.0
N973 N 0.81076 0.75412 0.118 0.0
C974 C 0.86231 0.92453 0.07093 0.0
C975 C 0.82157 0.80962 0.10182 0.0
N976 N 0.83201 1.00191 0.10642 0.0
N977 N 0.83258 0.73616 0.06305 0.0
H978 H 0.80014 0.76001 0.13795 0.0
H979 H 0.81331 0.70238 0.11209 0.0
H980 H 0.85318 0.72707 0.04442 0.0
H981 H 0.81398 0.69157 0.07213 0.0
H982 H 0.83753 0.046 0.09477 0.0
H983 H 0.81402 0.01253 0.12532 0.0
H984 H 0.91541 0.02059 0.06685 0.0
H985 H 0.92436 0.96379 0.04017 0.0
C986 C 0.45449 0.5333 0.84891 0.0
C987 C 0.41101 0.58335 0.86094 0.0
C988 C 0.38531 0.63309 0.81809 0.0
C989 C 0.41512 0.57373 0.80608 0.0
N990 N 0.47128 0.46061 0.811 0.0
N991 N 0.32673 0.67709 0.8564 0.0
C992 C 0.44927 0.52242 0.82157 0.0
C993 C 0.37501 0.63326 0.84552 0.0
N994 N 0.50009 0.49565 0.86365 0.0
N995 N 0.36671 0.6892 0.8033 0.0
H996 H 0.314 0.6781 0.87618 0.0
H997 H 0.29394 0.70811 0.84519 0.0
H998 H 0.37494 0.69101 0.7831 0.0
H999 H 0.35053 0.73639 0.81147 0.0
H1000 H 0.53786 0.46308 0.85548 0.0
H1001 H 0.50507 0.50305 0.88383 0.0
H1002 H 0.48974 0.4196 0.82233 0.0
H1003 H 0.46436 0.44617 0.79158 0.0
C1004 C 0.64705 0.16357 0.59044 0.0
C1005 C 0.69378 0.12009 0.60442 0.0
C1006 C 0.74054 0.07499 0.56334 0.0
C1007 C 0.6891 0.11217 0.54929 0.0
N1008 N 0.58738 0.1855 0.5494 0.0
N1009 N 0.76574 0.0162 0.60353 0.0
C1010 C 0.64038 0.15469 0.56284 0.0
C1011 C 0.73497 0.07047 0.59076 0.0
N1012 N 0.61086 0.21458 0.60334 0.0
N1013 N 0.79718 0.04697 0.55093 0.0
H1014 H 0.75777 1.00604 0.62331 0.0
H1015 H 0.79136 0.97587 0.5937 0.0
H1016 H 0.80669 0.05196 0.53096 0.0
H1017 H 0.83915 0.02624 0.56117 0.0
H1018 H 0.58134 0.25228 0.59386 0.0
H1019 H 0.61482 0.22275 0.62346 0.0
H1020 H 0.54616 0.21145 0.55847 0.0
H1021 H 0.58167 0.18014 0.52918 0.0
C1022 C 0.04197 0.46391 0.34717 0.0
C1023 C 0.08699 0.41221 0.35705 0.0
C1024 C 0.10661 0.36871 0.31251 0.0
C1025 C 0.07471 0.42948 0.30254 0.0
N1026 N 0.01597 0.53958 0.31106 0.0
N1027 N 0.16728 0.31692 0.34887 0.0
C1028 C 0.04206 0.47783 0.31994 0.0
C1029 C 0.11973 0.3639 0.33976 0.0
N1030 N 0.99902 0.49964 0.36388 0.0
N1031 N 0.12442 0.31569 0.29585 0.0
H1032 H 0.18047 0.31203 0.36851 0.0
H1033 H 0.19827 0.28636 0.33659 0.0
H1034 H 0.11443 0.31764 0.27579 0.0
H1035 H 0.14196 0.26736 0.30226 0.0
H1036 H 0.9601 0.53327 0.35748 0.0
H1037 H 0.99738 0.48975 0.38397 0.0
H1038 H 1.00032 0.57979 0.32353 0.0
H1039 H 0.01468 0.55381 0.29148 0.0
C1040 C 0.69073 0.61118 0.4561 0.0
C1041 C 0.72915 0.66759 0.44536 0.0
C1042 C 0.72703 0.72723 0.48765 0.0
C1043 C 0.69798 0.66637 0.49881 0.0
N1044 N 0.62133 0.56976 0.49253 0.0
N1045 N 0.78226 0.78035 0.44978 0.0
C1046 C 0.67017 0.61408 0.48264 0.0
C1047 C 0.74619 0.72652 0.46075 0.0
N1048 N 0.67548 0.554 0.44118 0.0
N1049 N 0.73224 0.78626 0.50251 0.0
H1050 H 0.79635 0.78106 0.43002 0.0
H1051 H 0.80201 0.8222 0.46038 0.0
H1052 H 0.71072 0.78953 0.52127 0.0
H1053 H 0.74982 0.83383 0.49548 0.0
H1054 H 0.6549 0.50829 0.44883 0.0
H1055 H 0.68704 0.55022 0.4213 0.0
H1056 H 0.59414 0.53382 0.48122 0.0
H1057 H 0.60176 0.57545 0.51152 0.0
C1058 C 0.19954 0.98921 0.7031 0.0
C1059 C 0.13483 0.97908 0.69036 0.0
C1060 C 0.07915 0.95754 0.73271 0.0
C1061 C 0.14192 0.97573 0.74554 0.0
N1062 N 0.26049 0.01962 0.74241 0.0
N1063 N 0.0111 0.96318 0.69293 0.0
C1064 C 0.20192 0.99397 0.73068 0.0
C1065 C 0.07404 0.96574 0.70515 0.0
N1066 N 0.25985 0.99163 0.68899 0.0
N1067 N 0.02521 0.93021 0.74681 0.0
H1068 H 0.00592 0.9702 0.67279 0.0
H1069 H 0.96394 0.96093 0.70297 0.0
H1070 H 0.0281 0.92135 0.76693 0.0
H1071 H 0.98055 0.90981 0.73828 0.0
H1072 H 0.30906 0.98789 0.69733 0.0
H1073 H 0.26104 0.99133 0.66878 0.0
H1074 H 0.30011 0.04428 0.73204 0.0
H1075 H 0.26875 0.02209 0.76243 0.0
C1076 C 0.78049 0.44841 0.94937 0.0
C1077 C 0.76662 0.38232 0.93801 0.0
C1078 C 0.76925 0.32971 0.98151 0.0
C1079 C 0.76921 0.39716 0.99317 0.0
N1080 N 0.77283 0.52274 0.98741 0.0
N1081 N 0.7462 0.25959 0.94287 0.0
C1082 C 0.77522 0.45715 0.97697 0.0
C1083 C 0.76083 0.32271 0.95397 0.0
N1084 N 0.80129 0.50254 0.93388 0.0
N1085 N 0.78062 0.27242 0.9967 0.0
H1086 H 0.74139 0.25254 0.92268 0.0
H1087 H 0.73381 0.2155 0.95372 0.0
H1088 H 0.7919 0.27602 1.01663 0.0
H1089 H 0.78711 0.22242 0.98912 0.0
H1090 H 0.81989 0.54951 0.94128 0.0
H1091 H 0.80681 0.49845 0.91363 0.0
H1092 H 0.76586 0.56721 0.97611 0.0
H1093 H 0.77285 0.53371 1.00732 0.0
C1094 C 0.44736 0.98778 0.22632 0.0
C1095 C 0.42461 0.04368 0.24265 0.0
C1096 C 0.43858 0.12464 0.20604 0.0
C1097 C 0.44984 0.06694 0.18915 0.0
N1098 N 0.49942 0.95299 0.18489 0.0
N1099 N 0.3995 0.16559 0.24874 0.0
C1100 C 0.46524 1.00128 0.19989 0.0
C1101 C 0.42121 0.11248 0.23278 0.0
N1102 N 0.44702 0.921 0.23544 0.0
N1103 N 0.44906 0.1905 0.19696 0.0
H1104 H 0.38868 0.15866 0.2686 0.0
H1105 H 0.38841 0.21551 0.24207 0.0
H1106 H 0.46879 0.20005 0.1783 0.0
H1107 H 0.44755 0.23469 0.20878 0.0
H1108 H 0.4558 0.87768 0.22358 0.0
H1109 H 0.43192 0.90795 0.25437 0.0
H1110 H 0.51806 0.90589 0.19209 0.0
H1111 H 0.51675 0.96423 0.16597 0.0
C1112 C 0.33029 0.30184 0.59363 0.0
C1113 C 0.32469 0.36478 0.6079 0.0
C1114 C 0.31984 0.43101 0.56719 0.0
C1115 C 0.32663 0.36793 0.55248 0.0
N1116 N 0.36208 0.24721 0.55242 0.0
N1117 N 0.34421 0.48864 0.60823 0.0
C1118 C 0.33928 0.30441 0.56596 0.0
C1119 C 0.32896 0.42916 0.59468 0.0
N1120 N 0.32535 0.23973 0.60636 0.0
N1121 N 0.3005 0.49228 0.5558 0.0
H1122 H 0.3552 0.48868 0.62819 0.0
H1123 H 0.35454 0.53598 0.59911 0.0
H1124 H 0.29233 0.4997 0.53598 0.0
H1125 H 0.28623 0.53587 0.56678 0.0
H1126 H 0.32144 0.19217 0.59661 0.0
H1127 H 0.32013 0.2365 0.62666 0.0
H1128 H 0.37756 0.20125 0.56147 0.0
H1129 H 0.37339 0.24855 0.53243 0.0
C1130 C 0.96347 0.05623 0.34529 0.0
C1131 C 0.93895 0.11576 0.35894 0.0
C1132 C 0.90067 0.16837 0.31784 0.0
C1133 C 0.91354 0.10398 0.30513 0.0
N1134 N 0.98231 0.99904 0.30332 0.0
N1135 N 0.92096 0.23973 0.35649 0.0
C1136 C 0.95315 0.05161 0.31782 0.0
C1137 C 0.91948 0.17593 0.34466 0.0
N1138 N 0.99626 1.00449 0.35877 0.0
N1139 N 0.86842 0.22087 0.30463 0.0
H1140 H 0.94175 0.2469 0.37512 0.0
H1141 H 0.91073 0.2862 0.34681 0.0
H1142 H 0.85508 0.21682 0.28491 0.0
H1143 H 0.85284 0.2674 0.31331 0.0
H1144 H 0.00786 0.95567 0.35103 0.0
H1145 H 0.01244 0.0113 0.3781 0.0
H1146 H 0.01458 0.96062 0.3109 0.0
H1147 H 0.97942 0.99753 0.28295 0.0
C1148 C 0.14881 0.57438 0.09475 0.0
C1149 C 0.18416 0.62974 0.10758 0.0
C1150 C 0.17664 0.69963 0.06797 0.0
C1151 C 0.15744 0.63921 0.05369 0.0
N1152 N 0.10723 0.52464 0.05395 0.0
N1153 N 0.23194 0.74549 0.1069 0.0
C1154 C 0.13763 0.5782 0.06729 0.0
C1155 C 0.19786 0.69272 0.09437 0.0
N1156 N 0.1237 0.51968 0.109 0.0
N1157 N 0.17049 0.76384 0.05685 0.0
H1158 H 0.24725 0.74239 0.12644 0.0
H1159 H 0.2497 0.78988 0.09733 0.0
H1160 H 0.14616 0.7711 0.03885 0.0
H1161 H 0.17954 0.8101 0.06695 0.0
H1162 H 0.09135 0.48132 0.10146 0.0
H1163 H 0.13137 0.51469 0.12909 0.0
H1164 H 0.10099 0.47471 0.06142 0.0
H1165 H 0.0871 0.53094 0.03517 0.0
C1166 C 0.58045 0.91613 0.84649 0.0
C1167 C 0.6409 0.92698 0.86159 0.0
C1168 C 0.71157 0.93675 0.82178 0.0
C1169 C 0.65099 0.92567 0.80627 0.0
N1170 N 0.53321 0.88281 0.80432 0.0
N1171 N 0.76599 0.91986 0.86385 0.0
C1172 C 0.58699 0.90851 0.81881 0.0
C1173 C 0.70707 0.92852 0.8493 0.0
N1174 N 0.51679 0.91484 0.85846 0.0
N1175 N 0.77262 0.95927 0.81097 0.0
H1176 H 0.76481 0.91068 0.88394 0.0
H1177 H 0.81521 0.91333 0.85556 0.0
H1178 H 0.78147 0.96588 0.79111 0.0
H1179 H 0.81405 0.9771 0.82223 0.0
H1180 H 0.47007 0.91477 0.84823 0.0
H1181 H 0.51072 0.91844 0.87874 0.0
H1182 H 0.48735 0.86394 0.81253 0.0
H1183 H 0.5376 0.87302 0.78426 0.0
loop_
_geom_bond_atom_site_label_1
_geom_bond_atom_site_label_2
_geom_bond_distance
_geom_bond_site_symmetry_2
_ccdc_geom_bond_type
Tb0 O3 2.453 1_545 S
Tb0 O4 2.596 . S
Tb0 O5 2.374 . S
Tb0 O13 2.343 . S
Tb0 O15 2.353 . S
Tb0 O17 2.427 . S
Tb0 O18 2.513 . S
C1 O5 1.251 . S
C1 O7 1.263 . S
Tb2 O4 2.343 . S
Tb2 O7 2.353 . S
Tb2 O10 2.427 . S
Tb2 O11 2.513 . S
Tb2 O12 2.453 . S
Tb2 O13 2.596 . S
Tb2 O14 2.374 . S
O3 Tb0 2.453 1_565 S
O3 C19 1.245 1_565 S
O4 Tb0 2.596 . S
O4 Tb2 2.343 . S
O4 C19 1.259 . S
O5 Tb0 2.374 . S
O5 C1 1.251 . S
C6 O10 1.275 1_556 S
C6 O11 1.246 1_556 S
O7 C1 1.263 . S
O7 Tb2 2.353 . S
C8 O12 1.245 . S
C8 O13 1.259 . S
C9 O14 1.250 . S
C9 O15 1.263 . S
O10 Tb2 2.427 . S
O10 C6 1.275 1_554 S
O11 Tb2 2.513 . S
O11 C6 1.246 1_554 S
O12 Tb2 2.453 . S
O12 C8 1.245 . S
O13 Tb0 2.343 . S
O13 Tb2 2.596 . S
O13 C8 1.259 . S
O14 Tb2 2.374 . S
O14 C9 1.250 . S
O15 Tb0 2.353 . S
O15 C9 1.263 . S
C16 O17 1.275 . S
C16 O18 1.246 . S
O17 Tb0 2.427 . S
O17 C16 1.275 . S
O18 Tb0 2.513 . S
O18 C16 1.246 . S
C19 O3 1.245 1_545 S
C19 O4 1.259 . S
Tb20 O23 2.453 . S
Tb20 O24 2.596 . S
Tb20 O25 2.374 . S
Tb20 O33 2.343 . S
Tb20 O35 2.353 . S
Tb20 O37 2.427 . S
Tb20 O38 2.513 . S
C21 O25 1.251 . S
C21 O27 1.263 . S
Tb22 O24 2.343 . S
Tb22 O27 2.353 . S
Tb22 O30 2.427 . S
Tb22 O31 2.513 . S
Tb22 O32 2.453 . S
Tb22 O33 2.596 . S
Tb22 O34 2.374 . S
O23 Tb20 2.453 . S
O23 C39 1.245 . S
O24 Tb20 2.596 . S
O24 Tb22 2.343 . S
O24 C39 1.259 . S
O25 Tb20 2.374 . S
O25 C21 1.251 . S
C26 O30 1.275 . S
C26 O31 1.246 . S
O27 C21 1.263 . S
O27 Tb22 2.353 . S
C28 O32 1.245 . S
C28 O33 1.259 . S
C29 O34 1.250 . S
C29 O35 1.263 . S
O30 Tb22 2.427 . S
O30 C26 1.275 . S
O31 Tb22 2.513 . S
O31 C26 1.246 . S
O32 Tb22 2.453 . S
O32 C28 1.245 . S
O33 Tb20 2.343 . S
O33 Tb22 2.596 . S
O33 C28 1.259 . S
O34 Tb22 2.374 . S
O34 C29 1.250 . S
O35 Tb20 2.353 . S
O35 C29 1.263 . S
C36 O37 1.275 . S
C36 O38 1.246 . S
O37 Tb20 2.427 . S
O37 C36 1.275 . S
O38 Tb20 2.513 . S
O38 C36 1.246 . S
C39 O23 1.245 . S
C39 O24 1.259 . S
Tb40 O43 2.453 1_565 S
Tb40 O44 2.596 . S
Tb40 O45 2.374 . S
Tb40 O53 2.343 . S
Tb40 O55 2.353 . S
Tb40 O57 2.427 . S
Tb40 O58 2.513 . S
C41 O45 1.251 . S
C41 O47 1.263 . S
Tb42 O44 2.343 . S
Tb42 O47 2.353 . S
Tb42 O50 2.427 . S
Tb42 O51 2.513 . S
Tb42 O52 2.453 . S
Tb42 O53 2.596 . S
Tb42 O54 2.374 . S
O43 Tb40 2.453 1_545 S
O43 C59 1.245 1_545 S
O44 Tb40 2.596 . S
O44 Tb42 2.343 . S
O44 C59 1.259 . S
O45 Tb40 2.374 . S
O45 C41 1.251 . S
C46 O50 1.275 . S
C46 O51 1.246 . S
O47 C41 1.263 . S
O47 Tb42 2.353 . S
C48 O52 1.245 . S
C48 O53 1.259 . S
C49 O54 1.250 . S
C49 O55 1.263 . S
O50 Tb42 2.427 . S
O50 C46 1.275 . S
O51 Tb42 2.513 . S
O51 C46 1.246 . S
O52 Tb42 2.453 . S
O52 C48 1.245 . S
O53 Tb40 2.343 . S
O53 Tb42 2.596 . S
O53 C48 1.259 . S
O54 Tb42 2.374 . S
O54 C49 1.250 . S
O55 Tb40 2.353 . S
O55 C49 1.263 . S
C56 O57 1.275 . S
C56 O58 1.246 . S
O57 Tb40 2.427 . S
O57 C56 1.275 . S
O58 Tb40 2.513 . S
O58 C56 1.246 . S
C59 O43 1.245 1_565 S
C59 O44 1.259 . S
Tb60 O63 2.453 . S
Tb60 O64 2.596 . S
Tb60 O65 2.374 . S
Tb60 O73 2.343 . S
Tb60 O75 2.353 . S
Tb60 O77 2.427 . S
Tb60 O78 2.513 . S
C61 O65 1.251 . S
C61 O67 1.263 . S
Tb62 O64 2.343 . S
Tb62 O67 2.353 . S
Tb62 O70 2.427 . S
Tb62 O71 2.513 . S
Tb62 O72 2.453 1_655 S
Tb62 O73 2.596 . S
Tb62 O74 2.374 . S
O63 Tb60 2.453 . S
O63 C79 1.245 . S
O64 Tb60 2.596 . S
O64 Tb62 2.343 . S
O64 C79 1.259 . S
O65 Tb60 2.374 . S
O65 C61 1.251 . S
C66 O70 1.275 . S
C66 O71 1.246 . S
O67 C61 1.263 . S
O67 Tb62 2.353 . S
C68 O72 1.245 1_655 S
C68 O73 1.259 . S
C69 O74 1.250 . S
C69 O75 1.263 . S
O70 Tb62 2.427 . S
O70 C66 1.275 . S
O71 Tb62 2.513 . S
O71 C66 1.246 . S
O72 Tb62 2.453 1_455 S
O72 C68 1.245 1_455 S
O73 Tb60 2.343 . S
O73 Tb62 2.596 . S
O73 C68 1.259 . S
O74 Tb62 2.374 . S
O74 C69 1.250 . S
O75 Tb60 2.353 . S
O75 C69 1.263 . S
C76 O77 1.275 . S
C76 O78 1.246 . S
O77 Tb60 2.427 . S
O77 C76 1.275 . S
O78 Tb60 2.513 . S
O78 C76 1.246 . S
C79 O63 1.245 . S
C79 O64 1.259 . S
Tb80 O83 2.453 . S
Tb80 O84 2.596 . S
Tb80 O85 2.374 . S
Tb80 O93 2.343 . S
Tb80 O95 2.353 . S
Tb80 O97 2.427 . S
Tb80 O98 2.513 . S
C81 O85 1.251 . S
C81 O87 1.263 . S
Tb82 O84 2.343 . S
Tb82 O87 2.353 . S
Tb82 O90 2.427 . S
Tb82 O91 2.513 . S
Tb82 O92 2.453 1_565 S
Tb82 O93 2.596 . S
Tb82 O94 2.374 . S
O83 Tb80 2.453 . S
O83 C99 1.245 . S
O84 Tb80 2.596 . S
O84 Tb82 2.343 . S
O84 C99 1.259 . S
O85 Tb80 2.374 . S
O85 C81 1.251 . S
C86 O90 1.275 . S
C86 O91 1.246 . S
O87 C81 1.263 . S
O87 Tb82 2.353 . S
C88 O92 1.245 1_565 S
C88 O93 1.259 . S
C89 O94 1.250 . S
C89 O95 1.263 . S
O90 Tb82 2.427 . S
O90 C86 1.275 . S
O91 Tb82 2.513 . S
O91 C86 1.246 . S
O92 Tb82 2.453 1_545 S
O92 C88 1.245 1_545 S
O93 Tb80 2.343 . S
O93 Tb82 2.596 . S
O93 C88 1.259 . S
O94 Tb82 2.374 . S
O94 C89 1.250 . S
O95 Tb80 2.353 . S
O95 C89 1.263 . S
C96 O97 1.275 1_554 S
C96 O98 1.246 1_554 S
O97 Tb80 2.427 . S
O97 C96 1.275 1_556 S
O98 Tb80 2.513 . S
O98 C96 1.246 1_556 S
C99 O83 1.245 . S
C99 O84 1.259 . S
Tb100 O103 2.453 . S
Tb100 O104 2.596 . S
Tb100 O105 2.374 . S
Tb100 O113 2.343 . S
Tb100 O115 2.353 . S
Tb100 O117 2.427 . S
Tb100 O118 2.513 . S
C101 O105 1.251 . S
C101 O107 1.263 . S
Tb102 O104 2.343 . S
Tb102 O107 2.353 . S
Tb102 O110 2.427 . S
Tb102 O111 2.513 . S
Tb102 O112 2.453 . S
Tb102 O113 2.596 . S
Tb102 O114 2.374 . S
O103 Tb100 2.453 . S
O103 C119 1.245 . S
O104 Tb100 2.596 . S
O104 Tb102 2.343 . S
O104 C119 1.259 . S
O105 Tb100 2.374 . S
O105 C101 1.251 . S
C106 O110 1.275 . S
C106 O111 1.246 . S
O107 C101 1.263 . S
O107 Tb102 2.353 . S
C108 O112 1.245 . S
C108 O113 1.259 . S
C109 O114 1.250 . S
C109 O115 1.263 . S
O110 Tb102 2.427 . S
O110 C106 1.275 . S
O111 Tb102 2.513 . S
O111 C106 1.246 . S
O112 Tb102 2.453 . S
O112 C108 1.245 . S
O113 Tb100 2.343 . S
O113 Tb102 2.596 . S
O113 C108 1.259 . S
O114 Tb102 2.374 . S
O114 C109 1.250 . S
O115 Tb100 2.353 . S
O115 C109 1.263 . S
C116 O117 1.275 . S
C116 O118 1.246 . S
O117 Tb100 2.427 . S
O117 C116 1.275 . S
O118 Tb100 2.513 . S
O118 C116 1.246 . S
C119 O103 1.245 . S
C119 O104 1.259 . S
Tb120 O123 2.453 . S
Tb120 O124 2.596 . S
Tb120 O125 2.374 . S
Tb120 O133 2.343 . S
Tb120 O135 2.353 . S
Tb120 O137 2.427 . S
Tb120 O138 2.513 . S
C121 O125 1.251 . S
C121 O127 1.263 . S
Tb122 O124 2.343 . S
Tb122 O127 2.353 . S
Tb122 O130 2.427 . S
Tb122 O131 2.513 . S
Tb122 O132 2.453 1_545 S
Tb122 O133 2.596 . S
Tb122 O134 2.374 . S
O123 Tb120 2.453 . S
O123 C139 1.245 . S
O124 Tb120 2.596 . S
O124 Tb122 2.343 . S
O124 C139 1.259 . S
O125 Tb120 2.374 . S
O125 C121 1.251 . S
C126 O130 1.275 . S
C126 O131 1.246 . S
O127 C121 1.263 . S
O127 Tb122 2.353 . S
C128 O132 1.245 1_545 S
C128 O133 1.259 . S
C129 O134 1.250 . S
C129 O135 1.263 . S
O130 Tb122 2.427 . S
O130 C126 1.275 . S
O131 Tb122 2.513 . S
O131 C126 1.246 . S
O132 Tb122 2.453 1_565 S
O132 C128 1.245 1_565 S
O133 Tb120 2.343 . S
O133 Tb122 2.596 . S
O133 C128 1.259 . S
O134 Tb122 2.374 . S
O134 C129 1.250 . S
O135 Tb120 2.353 . S
O135 C129 1.263 . S
C136 O137 1.275 . S
C136 O138 1.246 . S
O137 Tb120 2.427 . S
O137 C136 1.275 . S
O138 Tb120 2.513 . S
O138 C136 1.246 . S
C139 O123 1.245 . S
C139 O124 1.259 . S
Tb140 O143 2.453 1_455 S
Tb140 O144 2.596 . S
Tb140 O145 2.374 . S
Tb140 O153 2.343 . S
Tb140 O155 2.353 . S
Tb140 O157 2.427 . S
Tb140 O158 2.513 . S
C141 O145 1.251 . S
C141 O147 1.263 . S
Tb142 O144 2.343 . S
Tb142 O147 2.353 . S
Tb142 O150 2.427 . S
Tb142 O151 2.513 . S
Tb142 O152 2.453 . S
Tb142 O153 2.596 . S
Tb142 O154 2.374 . S
O143 Tb140 2.453 1_655 S
O143 C159 1.245 1_655 S
O144 Tb140 2.596 . S
O144 Tb142 2.343 . S
O144 C159 1.259 . S
O145 Tb140 2.374 . S
O145 C141 1.251 . S
C146 O150 1.275 . S
C146 O151 1.246 . S
O147 C141 1.263 . S
O147 Tb142 2.353 . S
C148 O152 1.245 . S
C148 O153 1.259 . S
C149 O154 1.250 . S
C149 O155 1.263 . S
O150 Tb142 2.427 . S
O150 C146 1.275 . S
O151 Tb142 2.513 . S
O151 C146 1.246 . S
O152 Tb142 2.453 . S
O152 C148 1.245 . S
O153 Tb140 2.343 . S
O153 Tb142 2.596 . S
O153 C148 1.259 . S
O154 Tb142 2.374 . S
O154 C149 1.250 . S
O155 Tb140 2.353 . S
O155 C149 1.263 . S
C156 O157 1.275 . S
C156 O158 1.246 . S
O157 Tb140 2.427 . S
O157 C156 1.275 . S
O158 Tb140 2.513 . S
O158 C156 1.246 . S
C159 O143 1.245 1_455 S
C159 O144 1.259 . S
Tb160 O163 2.453 . S
Tb160 O164 2.596 . S
Tb160 O165 2.374 . S
Tb160 O173 2.343 . S
Tb160 O175 2.353 . S
Tb160 O177 2.427 . S
Tb160 O178 2.513 . S
C161 O165 1.251 . S
C161 O167 1.263 . S
Tb162 O164 2.343 . S
Tb162 O167 2.353 . S
Tb162 O170 2.427 . S
Tb162 O171 2.513 . S
Tb162 O172 2.453 . S
Tb162 O173 2.596 . S
Tb162 O174 2.374 . S
O163 Tb160 2.453 . S
O163 C179 1.245 . S
O164 Tb160 2.596 . S
O164 Tb162 2.343 . S
O164 C179 1.259 . S
O165 Tb160 2.374 . S
O165 C161 1.251 . S
C166 O170 1.275 . S
C166 O171 1.246 . S
O167 C161 1.263 . S
O167 Tb162 2.353 . S
C168 O172 1.245 . S
C168 O173 1.259 . S
C169 O174 1.250 . S
C169 O175 1.263 . S
O170 Tb162 2.427 . S
O170 C166 1.275 . S
O171 Tb162 2.513 . S
O171 C166 1.246 . S
O172 Tb162 2.453 . S
O172 C168 1.245 . S
O173 Tb160 2.343 . S
O173 Tb162 2.596 . S
O173 C168 1.259 . S
O174 Tb162 2.374 . S
O174 C169 1.250 . S
O175 Tb160 2.353 . S
O175 C169 1.263 . S
C176 O177 1.275 . S
C176 O178 1.246 . S
O177 Tb160 2.427 . S
O177 C176 1.275 . S
O178 Tb160 2.513 . S
O178 C176 1.246 . S
C179 O163 1.245 . S
C179 O164 1.259 . S
Tb180 O183 2.453 . S
Tb180 O184 2.596 . S
Tb180 O185 2.374 . S
Tb180 O193 2.343 . S
Tb180 O195 2.353 1_545 S
Tb180 O197 2.427 . S
Tb180 O198 2.513 . S
C181 O185 1.251 . S
C181 O187 1.263 . S
Tb182 O184 2.343 . S
Tb182 O187 2.353 . S
Tb182 O190 2.427 . S
Tb182 O191 2.513 1_545 S
Tb182 O192 2.453 1_445 S
Tb182 O193 2.596 . S
Tb182 O194 2.374 1_545 S
O183 Tb180 2.453 . S
O183 C199 1.245 . S
O184 Tb180 2.596 . S
O184 Tb182 2.343 . S
O184 C199 1.259 . S
O185 Tb180 2.374 . S
O185 C181 1.251 . S
C186 O190 1.275 . S
C186 O191 1.246 1_545 S
O187 C181 1.263 . S
O187 Tb182 2.353 . S
C188 O192 1.245 1_455 S
C188 O193 1.259 1_565 S
C189 O194 1.250 . S
C189 O195 1.263 . S
O190 Tb182 2.427 . S
O190 C186 1.275 . S
O191 Tb182 2.513 1_565 S
O191 C186 1.246 1_565 S
O192 Tb182 2.453 1_665 S
O192 C188 1.245 1_655 S
O193 Tb180 2.343 . S
O193 Tb182 2.596 . S
O193 C188 1.259 1_545 S
O194 Tb182 2.374 1_565 S
O194 C189 1.250 . S
O195 Tb180 2.353 1_565 S
O195 C189 1.263 . S
C196 O197 1.275 . S
C196 O198 1.246 . S
O197 Tb180 2.427 . S
O197 C196 1.275 . S
O198 Tb180 2.513 . S
O198 C196 1.246 . S
C199 O183 1.245 . S
C199 O184 1.259 . S
Tb200 O203 2.453 . S
Tb200 O204 2.596 . S
Tb200 O205 2.374 . S
Tb200 O213 2.343 . S
Tb200 O215 2.353 . S
Tb200 O217 2.427 . S
Tb200 O218 2.513 . S
C201 O205 1.251 . S
C201 O207 1.263 . S
Tb202 O204 2.343 . S
Tb202 O207 2.353 . S
Tb202 O210 2.427 . S
Tb202 O211 2.513 . S
Tb202 O212 2.453 . S
Tb202 O213 2.596 . S
Tb202 O214 2.374 . S
O203 Tb200 2.453 . S
O203 C219 1.245 . S
O204 Tb200 2.596 . S
O204 Tb202 2.343 . S
O204 C219 1.259 . S
O205 Tb200 2.374 . S
O205 C201 1.251 . S
C206 O210 1.275 1_556 S
C206 O211 1.246 1_556 S
O207 C201 1.263 . S
O207 Tb202 2.353 . S
C208 O212 1.245 . S
C208 O213 1.259 . S
C209 O214 1.250 . S
C209 O215 1.263 . S
O210 Tb202 2.427 . S
O210 C206 1.275 1_554 S
O211 Tb202 2.513 . S
O211 C206 1.246 1_554 S
O212 Tb202 2.453 . S
O212 C208 1.245 . S
O213 Tb200 2.343 . S
O213 Tb202 2.596 . S
O213 C208 1.259 . S
O214 Tb202 2.374 . S
O214 C209 1.250 . S
O215 Tb200 2.353 . S
O215 C209 1.263 . S
C216 O217 1.275 . S
C216 O218 1.246 . S
O217 Tb200 2.427 . S
O217 C216 1.275 . S
O218 Tb200 2.513 . S
O218 C216 1.246 . S
C219 O203 1.245 . S
C219 O204 1.259 . S
Tb220 O223 2.453 . S
Tb220 O224 2.596 . S
Tb220 O225 2.374 . S
Tb220 O233 2.343 . S
Tb220 O235 2.353 1_565 S
Tb220 O237 2.427 . S
Tb220 O238 2.513 . S
C221 O225 1.251 . S
C221 O227 1.263 . S
Tb222 O224 2.343 . S
Tb222 O227 2.353 . S
Tb222 O230 2.427 . S
Tb222 O231 2.513 1_565 S
Tb222 O232 2.453 1_565 S
Tb222 O233 2.596 . S
Tb222 O234 2.374 1_565 S
O223 Tb220 2.453 . S
O223 C239 1.245 . S
O224 Tb220 2.596 . S
O224 Tb222 2.343 . S
O224 C239 1.259 . S
O225 Tb220 2.374 . S
O225 C221 1.251 . S
C226 O230 1.275 . S
C226 O231 1.246 1_565 S
O227 C221 1.263 . S
O227 Tb222 2.353 . S
C228 O232 1.245 . S
C228 O233 1.259 1_545 S
C229 O234 1.250 . S
C229 O235 1.263 . S
O230 Tb222 2.427 . S
O230 C226 1.275 . S
O231 Tb222 2.513 1_545 S
O231 C226 1.246 1_545 S
O232 Tb222 2.453 1_545 S
O232 C228 1.245 . S
O233 Tb220 2.343 . S
O233 Tb222 2.596 . S
O233 C228 1.259 1_565 S
O234 Tb222 2.374 1_545 S
O234 C229 1.250 . S
O235 Tb220 2.353 1_545 S
O235 C229 1.263 . S
C236 O237 1.275 . S
C236 O238 1.246 . S
O237 Tb220 2.427 . S
O237 C236 1.275 . S
O238 Tb220 2.513 . S
O238 C236 1.246 . S
C239 O223 1.245 . S
C239 O224 1.259 . S
Tb240 O243 2.453 . S
Tb240 O244 2.596 . S
Tb240 O245 2.374 . S
Tb240 O253 2.343 . S
Tb240 O255 2.353 . S
Tb240 O257 2.427 . S
Tb240 O258 2.513 . S
C241 O245 1.251 . S
C241 O247 1.263 . S
Tb242 O244 2.343 . S
Tb242 O247 2.353 . S
Tb242 O250 2.427 . S
Tb242 O251 2.513 . S
Tb242 O252 2.453 . S
Tb242 O253 2.596 . S
Tb242 O254 2.374 . S
O243 Tb240 2.453 . S
O243 C259 1.245 . S
O244 Tb240 2.596 . S
O244 Tb242 2.343 . S
O244 C259 1.259 . S
O245 Tb240 2.374 . S
O245 C241 1.251 . S
C246 O250 1.275 . S
C246 O251 1.246 . S
O247 C241 1.263 . S
O247 Tb242 2.353 . S
C248 O252 1.245 . S
C248 O253 1.259 . S
C249 O254 1.250 . S
C249 O255 1.263 . S
O250 Tb242 2.427 . S
O250 C246 1.275 . S
O251 Tb242 2.513 . S
O251 C246 1.246 . S
O252 Tb242 2.453 . S
O252 C248 1.245 . S
O253 Tb240 2.343 . S
O253 Tb242 2.596 . S
O253 C248 1.259 . S
O254 Tb242 2.374 . S
O254 C249 1.250 . S
O255 Tb240 2.353 . S
O255 C249 1.263 . S
C256 O257 1.275 . S
C256 O258 1.246 . S
O257 Tb240 2.427 . S
O257 C256 1.275 . S
O258 Tb240 2.513 . S
O258 C256 1.246 . S
C259 O243 1.245 . S
C259 O244 1.259 . S
Tb260 O263 2.453 1_665 S
Tb260 O264 2.596 . S
Tb260 O265 2.374 1_565 S
Tb260 O273 2.343 . S
Tb260 O275 2.353 . S
Tb260 O277 2.427 . S
Tb260 O278 2.513 1_565 S
C261 O265 1.251 . S
C261 O267 1.263 . S
Tb262 O264 2.343 . S
Tb262 O267 2.353 1_565 S
Tb262 O270 2.427 . S
Tb262 O271 2.513 . S
Tb262 O272 2.453 . S
Tb262 O273 2.596 . S
Tb262 O274 2.374 . S
O263 Tb260 2.453 1_445 S
O263 C279 1.245 1_455 S
O264 Tb260 2.596 . S
O264 Tb262 2.343 . S
O264 C279 1.259 1_565 S
O265 Tb260 2.374 1_545 S
O265 C261 1.251 . S
C266 O270 1.275 . S
C266 O271 1.246 . S
O267 C261 1.263 . S
O267 Tb262 2.353 1_545 S
C268 O272 1.245 . S
C268 O273 1.259 . S
C269 O274 1.250 . S
C269 O275 1.263 . S
O270 Tb262 2.427 . S
O270 C266 1.275 . S
O271 Tb262 2.513 . S
O271 C266 1.246 . S
O272 Tb262 2.453 . S
O272 C268 1.245 . S
O273 Tb260 2.343 . S
O273 Tb262 2.596 . S
O273 C268 1.259 . S
O274 Tb262 2.374 . S
O274 C269 1.250 . S
O275 Tb260 2.353 . S
O275 C269 1.263 . S
C276 O277 1.275 . S
C276 O278 1.246 1_565 S
O277 Tb260 2.427 . S
O277 C276 1.275 . S
O278 Tb260 2.513 1_545 S
O278 C276 1.246 1_545 S
C279 O263 1.245 1_655 S
C279 O264 1.259 1_545 S
Tb280 O283 2.453 . S
Tb280 O284 2.596 . S
Tb280 O285 2.374 . S
Tb280 O293 2.343 . S
Tb280 O295 2.353 . S
Tb280 O297 2.427 . S
Tb280 O298 2.513 . S
C281 O285 1.251 . S
C281 O287 1.263 . S
Tb282 O284 2.343 . S
Tb282 O287 2.353 . S
Tb282 O290 2.427 . S
Tb282 O291 2.513 . S
Tb282 O292 2.453 . S
Tb282 O293 2.596 . S
Tb282 O294 2.374 . S
O283 Tb280 2.453 . S
O283 C299 1.245 . S
O284 Tb280 2.596 . S
O284 Tb282 2.343 . S
O284 C299 1.259 . S
O285 Tb280 2.374 . S
O285 C281 1.251 . S
C286 O290 1.275 . S
C286 O291 1.246 . S
O287 C281 1.263 . S
O287 Tb282 2.353 . S
C288 O292 1.245 . S
C288 O293 1.259 . S
C289 O294 1.250 . S
C289 O295 1.263 . S
O290 Tb282 2.427 . S
O290 C286 1.275 . S
O291 Tb282 2.513 . S
O291 C286 1.246 . S
O292 Tb282 2.453 . S
O292 C288 1.245 . S
O293 Tb280 2.343 . S
O293 Tb282 2.596 . S
O293 C288 1.259 . S
O294 Tb282 2.374 . S
O294 C289 1.250 . S
O295 Tb280 2.353 . S
O295 C289 1.263 . S
C296 O297 1.275 1_554 S
C296 O298 1.246 1_554 S
O297 Tb280 2.427 . S
O297 C296 1.275 1_556 S
O298 Tb280 2.513 . S
O298 C296 1.246 1_556 S
C299 O283 1.245 . S
C299 O284 1.259 . S
Tb300 O303 2.453 1_545 S
Tb300 O304 2.596 . S
Tb300 O305 2.374 1_545 S
Tb300 O313 2.343 . S
Tb300 O315 2.353 . S
Tb300 O317 2.427 . S
Tb300 O318 2.513 1_545 S
C301 O305 1.251 . S
C301 O307 1.263 . S
Tb302 O304 2.343 . S
Tb302 O307 2.353 1_545 S
Tb302 O310 2.427 . S
Tb302 O311 2.513 . S
Tb302 O312 2.453 . S
Tb302 O313 2.596 . S
Tb302 O314 2.374 . S
O303 Tb300 2.453 1_565 S
O303 C319 1.245 . S
O304 Tb300 2.596 . S
O304 Tb302 2.343 . S
O304 C319 1.259 1_545 S
O305 Tb300 2.374 1_565 S
O305 C301 1.251 . S
C306 O310 1.275 . S
C306 O311 1.246 . S
O307 C301 1.263 . S
O307 Tb302 2.353 1_565 S
C308 O312 1.245 . S
C308 O313 1.259 . S
C309 O314 1.250 . S
C309 O315 1.263 . S
O310 Tb302 2.427 . S
O310 C306 1.275 . S
O311 Tb302 2.513 . S
O311 C306 1.246 . S
O312 Tb302 2.453 . S
O312 C308 1.245 . S
O313 Tb300 2.343 . S
O313 Tb302 2.596 . S
O313 C308 1.259 . S
O314 Tb302 2.374 . S
O314 C309 1.250 . S
O315 Tb300 2.353 . S
O315 C309 1.263 . S
C316 O317 1.275 . S
C316 O318 1.246 1_545 S
O317 Tb300 2.427 . S
O317 C316 1.275 . S
O318 Tb300 2.513 1_565 S
O318 C316 1.246 1_565 S
C319 O303 1.245 . S
C319 O304 1.259 1_565 S
C320 C321 1.363 . S
C320 C326 1.379 . S
C320 N328 1.356 . S
C321 C320 1.363 . S
C321 C327 1.363 . S
C322 C323 1.363 . S
C322 C327 1.379 . S
C322 N329 1.356 . S
C323 C322 1.363 . S
C323 C326 1.363 . S
N324 C326 1.356 . S
N324 H336 0.984 . S
N324 H337 0.985 . S
N325 C327 1.356 . S
N325 H330 0.984 . S
N325 H331 0.985 . S
C326 C320 1.379 . S
C326 C323 1.363 . S
C326 N324 1.356 . S
C327 C321 1.363 . S
C327 C322 1.379 . S
C327 N325 1.356 . S
N328 C320 1.356 . S
N328 H334 0.984 . S
N328 H335 0.984 . S
N329 C322 1.356 . S
N329 H332 0.984 . S
N329 H333 0.985 . S
H330 N325 0.984 . S
H331 N325 0.985 . S
H332 N329 0.984 . S
H333 N329 0.985 . S
H334 N328 0.984 . S
H335 N328 0.984 . S
H336 N324 0.984 . S
H337 N324 0.985 . S
C338 C339 1.363 . S
C338 C344 1.379 . S
C338 N346 1.356 . S
C339 C338 1.363 . S
C339 C345 1.363 . S
C340 C341 1.363 . S
C340 C345 1.379 . S
C340 N347 1.356 . S
C341 C340 1.363 . S
C341 C344 1.363 . S
N342 C344 1.356 . S
N342 H354 0.984 . S
N342 H355 0.985 . S
N343 C345 1.356 . S
N343 H348 0.984 . S
N343 H349 0.985 . S
C344 C338 1.379 . S
C344 C341 1.363 . S
C344 N342 1.356 . S
C345 C339 1.363 . S
C345 C340 1.379 . S
C345 N343 1.356 . S
N346 C338 1.356 . S
N346 H352 0.984 . S
N346 H353 0.984 . S
N347 C340 1.356 . S
N347 H350 0.984 . S
N347 H351 0.985 . S
H348 N343 0.984 . S
H349 N343 0.985 . S
H350 N347 0.984 . S
H351 N347 0.985 . S
H352 N346 0.984 . S
H353 N346 0.984 . S
H354 N342 0.984 . S
H355 N342 0.985 . S
C356 C357 1.363 . S
C356 C362 1.379 1_455 S
C356 N364 1.356 . S
C357 C356 1.363 . S
C357 C363 1.363 . S
C358 C359 1.363 . S
C358 C363 1.379 1_655 S
C358 N365 1.356 . S
C359 C358 1.363 . S
C359 C362 1.363 . S
N360 C362 1.356 . S
N360 H372 0.984 1_655 S
N360 H373 0.985 . S
N361 C363 1.356 . S
N361 H366 0.984 . S
N361 H367 0.985 1_455 S
C362 C356 1.379 1_655 S
C362 C359 1.363 . S
C362 N360 1.356 . S
C363 C357 1.363 . S
C363 C358 1.379 1_455 S
C363 N361 1.356 . S
N364 C356 1.356 . S
N364 H370 0.984 . S
N364 H371 0.984 . S
N365 C358 1.356 . S
N365 H368 0.984 . S
N365 H369 0.985 . S
H366 N361 0.984 . S
H367 N361 0.985 1_655 S
H368 N365 0.984 . S
H369 N365 0.985 . S
H370 N364 0.984 . S
H371 N364 0.984 . S
H372 N360 0.984 1_455 S
H373 N360 0.985 . S
C374 C375 1.357 1_655 S
C374 C380 1.384 . S
C374 N382 1.354 1_655 S
C375 C374 1.357 1_455 S
C375 C381 1.363 . S
C376 C377 1.357 1_455 S
C376 C381 1.385 . S
C376 N383 1.354 1_455 S
C377 C376 1.357 1_655 S
C377 C380 1.363 . S
N378 C380 1.356 . S
N378 H390 0.984 . S
N378 H391 0.985 . S
N379 C381 1.356 . S
N379 H384 0.984 . S
N379 H385 0.985 . S
C380 C374 1.384 . S
C380 C377 1.363 . S
C380 N378 1.356 . S
C381 C375 1.363 . S
C381 C376 1.385 . S
C381 N379 1.356 . S
N382 C374 1.354 1_455 S
N382 H388 0.984 1_455 S
N382 H389 0.984 . S
N383 C376 1.354 1_655 S
N383 H386 0.984 . S
N383 H387 0.985 1_655 S
H384 N379 0.984 . S
H385 N379 0.985 . S
H386 N383 0.984 . S
H387 N383 0.985 1_455 S
H388 N382 0.984 1_655 S
H389 N382 0.984 . S
H390 N378 0.984 . S
H391 N378 0.985 . S
C392 C393 1.363 . S
C392 C398 1.379 . S
C392 N400 1.356 . S
C393 C392 1.363 . S
C393 C399 1.363 . S
C394 C395 1.363 . S
C394 C399 1.379 . S
C394 N401 1.356 . S
C395 C394 1.363 . S
C395 C398 1.363 . S
N396 C398 1.356 . S
N396 H408 0.984 . S
N396 H409 0.985 . S
N397 C399 1.356 . S
N397 H402 0.984 . S
N397 H403 0.985 . S
C398 C392 1.379 . S
C398 C395 1.363 . S
C398 N396 1.356 . S
C399 C393 1.363 . S
C399 C394 1.379 . S
C399 N397 1.356 . S
N400 C392 1.356 . S
N400 H406 0.984 . S
N400 H407 0.984 . S
N401 C394 1.356 . S
N401 H404 0.984 . S
N401 H405 0.985 . S
H402 N397 0.984 . S
H403 N397 0.985 . S
H404 N401 0.984 . S
H405 N401 0.985 . S
H406 N400 0.984 . S
H407 N400 0.984 . S
H408 N396 0.984 . S
H409 N396 0.985 . S
C410 C411 1.363 . S
C410 C416 1.379 . S
C410 N418 1.356 . S
C411 C410 1.363 . S
C411 C417 1.363 . S
C412 C413 1.363 . S
C412 C417 1.379 . S
C412 N419 1.356 . S
C413 C412 1.363 . S
C413 C416 1.363 . S
N414 C416 1.356 . S
N414 H426 0.984 . S
N414 H427 0.985 . S
N415 C417 1.356 . S
N415 H420 0.984 . S
N415 H421 0.985 . S
C416 C410 1.379 . S
C416 C413 1.363 . S
C416 N414 1.356 . S
C417 C411 1.363 . S
C417 C412 1.379 . S
C417 N415 1.356 . S
N418 C410 1.356 . S
N418 H424 0.984 . S
N418 H425 0.984 . S
N419 C412 1.356 . S
N419 H422 0.984 . S
N419 H423 0.985 . S
H420 N415 0.984 . S
H421 N415 0.985 . S
H422 N419 0.984 . S
H423 N419 0.985 . S
H424 N418 0.984 . S
H425 N418 0.984 . S
H426 N414 0.984 . S
H427 N414 0.985 . S
C428 C429 1.363 . S
C428 C434 1.379 1_455 S
C428 N436 1.356 . S
C429 C428 1.363 . S
C429 C435 1.363 . S
C430 C431 1.363 . S
C430 C435 1.379 1_655 S
C430 N437 1.356 . S
C431 C430 1.363 . S
C431 C434 1.363 . S
N432 C434 1.356 . S
N432 H444 0.984 1_655 S
N432 H445 0.985 . S
N433 C435 1.356 . S
N433 H438 0.984 . S
N433 H439 0.985 1_455 S
C434 C428 1.379 1_655 S
C434 C431 1.363 . S
C434 N432 1.356 . S
C435 C429 1.363 . S
C435 C430 1.379 1_455 S
C435 N433 1.356 . S
N436 C428 1.356 . S
N436 H442 0.984 . S
N436 H443 0.984 . S
N437 C430 1.356 . S
N437 H440 0.984 . S
N437 H441 0.985 . S
H438 N433 0.984 . S
H439 N433 0.985 1_655 S
H440 N437 0.984 . S
H441 N437 0.985 . S
H442 N436 0.984 . S
H443 N436 0.984 . S
H444 N432 0.984 1_455 S
H445 N432 0.985 . S
C446 C447 1.357 1_655 S
C446 C452 1.385 . S
C446 N454 1.354 1_655 S
C447 C446 1.357 1_455 S
C447 C453 1.363 . S
C448 C449 1.357 1_455 S
C448 C453 1.384 . S
C448 N455 1.354 1_455 S
C449 C448 1.357 1_655 S
C449 C452 1.363 . S
N450 C452 1.356 . S
N450 H462 0.984 . S
N450 H463 0.985 . S
N451 C453 1.356 . S
N451 H456 0.984 . S
N451 H457 0.985 . S
C452 C446 1.385 . S
C452 C449 1.363 . S
C452 N450 1.356 . S
C453 C447 1.363 . S
C453 C448 1.384 . S
C453 N451 1.356 . S
N454 C446 1.354 1_455 S
N454 H460 0.984 1_455 S
N454 H461 0.984 . S
N455 C448 1.354 1_655 S
N455 H458 0.984 . S
N455 H459 0.985 1_655 S
H456 N451 0.984 . S
H457 N451 0.985 . S
H458 N455 0.984 . S
H459 N455 0.985 1_455 S
H460 N454 0.984 1_655 S
H461 N454 0.984 . S
H462 N450 0.984 . S
H463 N450 0.985 . S
C464 C465 1.363 1_565 S
C464 C470 1.379 . S
C464 N472 1.356 . S
C465 C464 1.363 1_545 S
C465 C471 1.363 1_554 S
C466 C467 1.363 1_545 S
C466 C471 1.379 . S
C466 N473 1.356 . S
C467 C466 1.363 1_565 S
C467 C470 1.363 1_556 S
N468 C470 1.356 . S
N468 H480 0.984 . S
N468 H481 0.985 1_554 S
N469 C471 1.356 . S
N469 H474 0.984 1_556 S
N469 H475 0.985 . S
C470 C464 1.379 . S
C470 C467 1.363 1_554 S
C470 N468 1.356 . S
C471 C465 1.363 1_556 S
C471 C466 1.379 . S
C471 N469 1.356 . S
N472 C464 1.356 . S
N472 H478 0.984 . S
N472 H479 0.984 . S
N473 C466 1.356 . S
N473 H476 0.984 . S
N473 H477 0.985 . S
H474 N469 0.984 1_554 S
H475 N469 0.985 . S
H476 N473 0.984 . S
H477 N473 0.985 . S
H478 N472 0.984 . S
H479 N472 0.984 . S
H480 N468 0.984 . S
H481 N468 0.985 1_556 S
C482 C483 1.363 . S
C482 C488 1.379 . S
C482 N490 1.356 . S
C483 C482 1.363 . S
C483 C489 1.363 . S
C484 C485 1.363 . S
C484 C489 1.379 . S
C484 N491 1.356 . S
C485 C484 1.363 . S
C485 C488 1.363 . S
N486 C488 1.356 . S
N486 H498 0.984 . S
N486 H499 0.985 . S
N487 C489 1.356 . S
N487 H492 0.984 . S
N487 H493 0.985 . S
C488 C482 1.379 . S
C488 C485 1.363 . S
C488 N486 1.356 . S
C489 C483 1.363 . S
C489 C484 1.379 . S
C489 N487 1.356 . S
N490 C482 1.356 . S
N490 H496 0.984 . S
N490 H497 0.984 . S
N491 C484 1.356 . S
N491 H494 0.984 . S
N491 H495 0.985 . S
H492 N487 0.984 . S
H493 N487 0.985 . S
H494 N491 0.984 . S
H495 N491 0.985 . S
H496 N490 0.984 . S
H497 N490 0.984 . S
H498 N486 0.984 . S
H499 N486 0.985 . S
C500 C501 1.363 1_655 S
C500 C506 1.379 . S
C500 N508 1.356 1_655 S
C501 C500 1.363 1_455 S
C501 C507 1.363 1_565 S
C502 C503 1.363 1_455 S
C502 C507 1.379 . S
C502 N509 1.356 1_455 S
C503 C502 1.363 1_655 S
C503 C506 1.363 1_545 S
N504 C506 1.356 . S
N504 H516 0.984 . S
N504 H517 0.985 . S
N505 C507 1.356 . S
N505 H510 0.984 . S
N505 H511 0.985 . S
C506 C500 1.379 . S
C506 C503 1.363 1_565 S
C506 N504 1.356 . S
C507 C501 1.363 1_545 S
C507 C502 1.379 . S
C507 N505 1.356 . S
N508 C500 1.356 1_455 S
N508 H514 0.984 1_455 S
N508 H515 0.984 . S
N509 C502 1.356 1_655 S
N509 H512 0.984 . S
N509 H513 0.985 1_655 S
H510 N505 0.984 . S
H511 N505 0.985 . S
H512 N509 0.984 . S
H513 N509 0.985 1_455 S
H514 N508 0.984 1_655 S
H515 N508 0.984 . S
H516 N504 0.984 . S
H517 N504 0.985 . S
C518 C519 1.363 . S
C518 C524 1.379 . S
C518 N526 1.356 . S
C519 C518 1.363 . S
C519 C525 1.363 . S
C520 C521 1.363 . S
C520 C525 1.379 . S
C520 N527 1.356 . S
C521 C520 1.363 . S
C521 C524 1.363 . S
N522 C524 1.356 . S
N522 H534 0.984 . S
N522 H535 0.985 . S
N523 C525 1.356 . S
N523 H528 0.984 . S
N523 H529 0.985 . S
C524 C518 1.379 . S
C524 C521 1.363 . S
C524 N522 1.356 . S
C525 C519 1.363 . S
C525 C520 1.379 . S
C525 N523 1.356 . S
N526 C518 1.356 . S
N526 H532 0.984 . S
N526 H533 0.984 . S
N527 C520 1.356 . S
N527 H530 0.984 . S
N527 H531 0.985 . S
H528 N523 0.984 . S
H529 N523 0.985 . S
H530 N527 0.984 . S
H531 N527 0.985 . S
H532 N526 0.984 . S
H533 N526 0.984 . S
H534 N522 0.984 . S
H535 N522 0.985 . S
C536 C537 1.363 . S
C536 C542 1.379 . S
C536 N544 1.356 . S
C537 C536 1.363 . S
C537 C543 1.363 . S
C538 C539 1.363 . S
C538 C543 1.379 . S
C538 N545 1.356 . S
C539 C538 1.363 . S
C539 C542 1.363 . S
N540 C542 1.356 . S
N540 H552 0.984 . S
N540 H553 0.985 . S
N541 C543 1.356 . S
N541 H546 0.984 . S
N541 H547 0.985 . S
C542 C536 1.379 . S
C542 C539 1.363 . S
C542 N540 1.356 . S
C543 C537 1.363 . S
C543 C538 1.379 . S
C543 N541 1.356 . S
N544 C536 1.356 . S
N544 H550 0.984 . S
N544 H551 0.984 . S
N545 C538 1.356 . S
N545 H548 0.984 . S
N545 H549 0.985 . S
H546 N541 0.984 . S
H547 N541 0.985 . S
H548 N545 0.984 . S
H549 N545 0.985 . S
H550 N544 0.984 . S
H551 N544 0.984 . S
H552 N540 0.984 . S
H553 N540 0.985 . S
C554 C555 1.363 . S
C554 C560 1.379 . S
C554 N562 1.356 . S
C555 C554 1.363 . S
C555 C561 1.363 . S
C556 C557 1.363 . S
C556 C561 1.379 . S
C556 N563 1.356 . S
C557 C556 1.363 . S
C557 C560 1.363 . S
N558 C560 1.356 . S
N558 H570 0.984 . S
N558 H571 0.985 . S
N559 C561 1.356 . S
N559 H564 0.984 . S
N559 H565 0.985 . S
C560 C554 1.379 . S
C560 C557 1.363 . S
C560 N558 1.356 . S
C561 C555 1.363 . S
C561 C556 1.379 . S
C561 N559 1.356 . S
N562 C554 1.356 . S
N562 H568 0.984 . S
N562 H569 0.984 . S
N563 C556 1.356 . S
N563 H566 0.984 . S
N563 H567 0.985 . S
H564 N559 0.984 . S
H565 N559 0.985 . S
H566 N563 0.984 . S
H567 N563 0.985 . S
H568 N562 0.984 . S
H569 N562 0.984 . S
H570 N558 0.984 . S
H571 N558 0.985 . S
C572 C573 1.363 . S
C572 C578 1.379 1_455 S
C572 N580 1.356 . S
C573 C572 1.363 . S
C573 C579 1.363 . S
C574 C575 1.363 . S
C574 C579 1.379 1_655 S
C574 N581 1.356 . S
C575 C574 1.363 . S
C575 C578 1.363 . S
N576 C578 1.356 . S
N576 H588 0.984 . S
N576 H589 0.985 . S
N577 C579 1.356 . S
N577 H582 0.984 . S
N577 H583 0.985 . S
C578 C572 1.379 1_655 S
C578 C575 1.363 . S
C578 N576 1.356 . S
C579 C573 1.363 . S
C579 C574 1.379 1_455 S
C579 N577 1.356 . S
N580 C572 1.356 . S
N580 H586 0.984 1_455 S
N580 H587 0.984 . S
N581 C574 1.356 . S
N581 H584 0.984 . S
N581 H585 0.985 1_655 S
H582 N577 0.984 . S
H583 N577 0.985 . S
H584 N581 0.984 . S
H585 N581 0.985 1_455 S
H586 N580 0.984 1_655 S
H587 N580 0.984 . S
H588 N576 0.984 . S
H589 N576 0.985 . S
C590 C591 1.344 1_556 S
C590 C596 1.397 . S
C590 N598 1.351 1_556 S
C591 C590 1.344 1_554 S
C591 C597 1.363 . S
C592 C593 1.344 1_554 S
C592 C597 1.397 . S
C592 N599 1.351 1_554 S
C593 C592 1.344 1_556 S
C593 C596 1.363 . S
N594 C596 1.356 . S
N594 H606 0.984 . S
N594 H607 0.985 . S
N595 C597 1.356 . S
N595 H600 0.984 . S
N595 H601 0.985 . S
C596 C590 1.397 . S
C596 C593 1.363 . S
C596 N594 1.356 . S
C597 C591 1.363 . S
C597 C592 1.397 . S
C597 N595 1.356 . S
N598 C590 1.351 1_554 S
N598 H604 0.984 1_554 S
N598 H605 0.984 . S
N599 C592 1.351 1_556 S
N599 H602 0.984 . S
N599 H603 0.985 1_556 S
H600 N595 0.984 . S
H601 N595 0.985 . S
H602 N599 0.984 . S
H603 N599 0.985 1_554 S
H604 N598 0.984 1_556 S
H605 N598 0.984 . S
H606 N594 0.984 . S
H607 N594 0.985 . S
C608 C609 1.363 . S
C608 C614 1.379 . S
C608 N616 1.356 . S
C609 C608 1.363 . S
C609 C615 1.363 . S
C610 C611 1.363 . S
C610 C615 1.379 . S
C610 N617 1.356 . S
C611 C610 1.363 . S
C611 C614 1.363 . S
N612 C614 1.356 . S
N612 H624 0.984 . S
N612 H625 0.985 . S
N613 C615 1.356 . S
N613 H618 0.984 . S
N613 H619 0.985 . S
C614 C608 1.379 . S
C614 C611 1.363 . S
C614 N612 1.356 . S
C615 C609 1.363 . S
C615 C610 1.379 . S
C615 N613 1.356 . S
N616 C608 1.356 . S
N616 H622 0.984 . S
N616 H623 0.984 . S
N617 C610 1.356 . S
N617 H620 0.984 . S
N617 H621 0.985 . S
H618 N613 0.984 . S
H619 N613 0.985 . S
H620 N617 0.984 . S
H621 N617 0.985 . S
H622 N616 0.984 . S
H623 N616 0.984 . S
H624 N612 0.984 . S
H625 N612 0.985 . S
C626 C627 1.363 . S
C626 C632 1.379 . S
C626 N634 1.356 . S
C627 C626 1.363 . S
C627 C633 1.363 . S
C628 C629 1.363 . S
C628 C633 1.379 . S
C628 N635 1.356 . S
C629 C628 1.363 . S
C629 C632 1.363 . S
N630 C632 1.356 . S
N630 H642 0.984 . S
N630 H643 0.985 . S
N631 C633 1.356 . S
N631 H636 0.984 . S
N631 H637 0.985 . S
C632 C626 1.379 . S
C632 C629 1.363 . S
C632 N630 1.356 . S
C633 C627 1.363 . S
C633 C628 1.379 . S
C633 N631 1.356 . S
N634 C626 1.356 . S
N634 H640 0.984 . S
N634 H641 0.984 . S
N635 C628 1.356 . S
N635 H638 0.984 . S
N635 H639 0.985 . S
H636 N631 0.984 . S
H637 N631 0.985 . S
H638 N635 0.984 . S
H639 N635 0.985 . S
H640 N634 0.984 . S
H641 N634 0.984 . S
H642 N630 0.984 . S
H643 N630 0.985 . S
C644 C645 1.363 . S
C644 C650 1.379 . S
C644 N652 1.356 . S
C645 C644 1.363 . S
C645 C651 1.363 . S
C646 C647 1.363 . S
C646 C651 1.379 . S
C646 N653 1.356 . S
C647 C646 1.363 . S
C647 C650 1.363 . S
N648 C650 1.356 . S
N648 H660 0.984 . S
N648 H661 0.985 . S
N649 C651 1.356 . S
N649 H654 0.984 . S
N649 H655 0.985 . S
C650 C644 1.379 . S
C650 C647 1.363 . S
C650 N648 1.356 . S
C651 C645 1.363 . S
C651 C646 1.379 . S
C651 N649 1.356 . S
N652 C644 1.356 . S
N652 H658 0.984 . S
N652 H659 0.984 . S
N653 C646 1.356 . S
N653 H656 0.984 . S
N653 H657 0.985 . S
H654 N649 0.984 . S
H655 N649 0.985 . S
H656 N653 0.984 . S
H657 N653 0.985 . S
H658 N652 0.984 . S
H659 N652 0.984 . S
H660 N648 0.984 . S
H661 N648 0.985 . S
C662 C663 1.363 . S
C662 C668 1.379 . S
C662 N670 1.356 1_455 S
C663 C662 1.363 . S
C663 C669 1.363 . S
C664 C665 1.363 . S
C664 C669 1.379 . S
C664 N671 1.356 . S
C665 C664 1.363 . S
C665 C668 1.363 . S
N666 C668 1.356 . S
N666 H678 0.984 . S
N666 H679 0.985 . S
N667 C669 1.356 . S
N667 H672 0.984 1_455 S
N667 H673 0.985 . S
C668 C662 1.379 . S
C668 C665 1.363 . S
C668 N666 1.356 . S
C669 C663 1.363 . S
C669 C664 1.379 . S
C669 N667 1.356 . S
N670 C662 1.356 1_655 S
N670 H676 0.984 . S
N670 H677 0.984 . S
N671 C664 1.356 . S
N671 H674 0.984 . S
N671 H675 0.985 . S
H672 N667 0.984 1_655 S
H673 N667 0.985 . S
H674 N671 0.984 . S
H675 N671 0.985 . S
H676 N670 0.984 . S
H677 N670 0.984 . S
H678 N666 0.984 . S
H679 N666 0.985 . S
C680 C681 1.363 . S
C680 C686 1.379 . S
C680 N688 1.356 . S
C681 C680 1.363 . S
C681 C687 1.363 . S
C682 C683 1.363 . S
C682 C687 1.379 . S
C682 N689 1.356 . S
C683 C682 1.363 . S
C683 C686 1.363 . S
N684 C686 1.356 . S
N684 H696 0.984 . S
N684 H697 0.985 . S
N685 C687 1.356 . S
N685 H690 0.984 . S
N685 H691 0.985 . S
C686 C680 1.379 . S
C686 C683 1.363 . S
C686 N684 1.356 . S
C687 C681 1.363 . S
C687 C682 1.379 . S
C687 N685 1.356 . S
N688 C680 1.356 . S
N688 H694 0.984 . S
N688 H695 0.984 . S
N689 C682 1.356 . S
N689 H692 0.984 . S
N689 H693 0.985 . S
H690 N685 0.984 . S
H691 N685 0.985 . S
H692 N689 0.984 . S
H693 N689 0.985 . S
H694 N688 0.984 . S
H695 N688 0.984 . S
H696 N684 0.984 . S
H697 N684 0.985 . S
C698 C699 1.363 . S
C698 C704 1.379 . S
C698 N706 1.356 . S
C699 C698 1.363 . S
C699 C705 1.363 . S
C700 C701 1.363 . S
C700 C705 1.379 . S
C700 N707 1.356 . S
C701 C700 1.363 . S
C701 C704 1.363 . S
N702 C704 1.356 . S
N702 H714 0.984 . S
N702 H715 0.985 . S
N703 C705 1.356 . S
N703 H708 0.984 . S
N703 H709 0.985 . S
C704 C698 1.379 . S
C704 C701 1.363 . S
C704 N702 1.356 . S
C705 C699 1.363 . S
C705 C700 1.379 . S
C705 N703 1.356 . S
N706 C698 1.356 . S
N706 H712 0.984 . S
N706 H713 0.984 . S
N707 C700 1.356 . S
N707 H710 0.984 . S
N707 H711 0.985 . S
H708 N703 0.984 . S
H709 N703 0.985 . S
H710 N707 0.984 . S
H711 N707 0.985 . S
H712 N706 0.984 . S
H713 N706 0.984 . S
H714 N702 0.984 . S
H715 N702 0.985 . S
C716 C717 1.363 . S
C716 C722 1.379 . S
C716 N724 1.356 . S
C717 C716 1.363 . S
C717 C723 1.363 . S
C718 C719 1.363 . S
C718 C723 1.379 . S
C718 N725 1.356 . S
C719 C718 1.363 . S
C719 C722 1.363 . S
N720 C722 1.356 . S
N720 H732 0.984 . S
N720 H733 0.985 . S
N721 C723 1.356 . S
N721 H726 0.984 . S
N721 H727 0.985 . S
C722 C716 1.379 . S
C722 C719 1.363 . S
C722 N720 1.356 . S
C723 C717 1.363 . S
C723 C718 1.379 . S
C723 N721 1.356 . S
N724 C716 1.356 . S
N724 H730 0.984 . S
N724 H731 0.984 . S
N725 C718 1.356 . S
N725 H728 0.984 . S
N725 H729 0.985 . S
H726 N721 0.984 . S
H727 N721 0.985 . S
H728 N725 0.984 . S
H729 N725 0.985 . S
H730 N724 0.984 . S
H731 N724 0.984 . S
H732 N720 0.984 . S
H733 N720 0.985 . S
C734 C735 1.363 . S
C734 C740 1.379 . S
C734 N742 1.356 . S
C735 C734 1.363 . S
C735 C741 1.363 . S
C736 C737 1.363 . S
C736 C741 1.379 . S
C736 N743 1.356 . S
C737 C736 1.363 . S
C737 C740 1.363 . S
N738 C740 1.356 1_455 S
N738 H750 0.984 . S
N738 H751 0.985 . S
N739 C741 1.356 . S
N739 H744 0.984 . S
N739 H745 0.985 . S
C740 C734 1.379 . S
C740 C737 1.363 . S
C740 N738 1.356 1_655 S
C741 C735 1.363 . S
C741 C736 1.379 . S
C741 N739 1.356 . S
N742 C734 1.356 . S
N742 H748 0.984 . S
N742 H749 0.984 . S
N743 C736 1.356 . S
N743 H746 0.984 1_655 S
N743 H747 0.985 . S
H744 N739 0.984 . S
H745 N739 0.985 . S
H746 N743 0.984 1_455 S
H747 N743 0.985 . S
H748 N742 0.984 . S
H749 N742 0.984 . S
H750 N738 0.984 . S
H751 N738 0.985 . S
C752 C753 1.363 . S
C752 C758 1.379 . S
C752 N760 1.356 . S
C753 C752 1.363 . S
C753 C759 1.363 . S
C754 C755 1.363 . S
C754 C759 1.379 . S
C754 N761 1.356 . S
C755 C754 1.363 . S
C755 C758 1.363 . S
N756 C758 1.356 . S
N756 H768 0.984 . S
N756 H769 0.985 . S
N757 C759 1.356 . S
N757 H762 0.984 . S
N757 H763 0.985 . S
C758 C752 1.379 . S
C758 C755 1.363 . S
C758 N756 1.356 . S
C759 C753 1.363 . S
C759 C754 1.379 . S
C759 N757 1.356 . S
N760 C752 1.356 . S
N760 H766 0.984 . S
N760 H767 0.984 . S
N761 C754 1.356 . S
N761 H764 0.984 . S
N761 H765 0.985 . S
H762 N757 0.984 . S
H763 N757 0.985 . S
H764 N761 0.984 . S
H765 N761 0.985 . S
H766 N760 0.984 . S
H767 N760 0.984 . S
H768 N756 0.984 . S
H769 N756 0.985 . S
C770 C771 1.363 1_545 S
C770 C776 1.379 . S
C770 N778 1.356 . S
C771 C770 1.363 1_565 S
C771 C777 1.363 . S
C772 C773 1.363 . S
C772 C777 1.379 . S
C772 N779 1.356 1_655 S
C773 C772 1.363 . S
C773 C776 1.363 1_565 S
N774 C776 1.356 . S
N774 H786 0.984 . S
N774 H787 0.985 1_655 S
N775 C777 1.356 . S
N775 H780 0.984 . S
N775 H781 0.985 . S
C776 C770 1.379 . S
C776 C773 1.363 1_545 S
C776 N774 1.356 . S
C777 C771 1.363 . S
C777 C772 1.379 . S
C777 N775 1.356 . S
N778 C770 1.356 . S
N778 H784 0.984 . S
N778 H785 0.984 . S
N779 C772 1.356 1_455 S
N779 H782 0.984 . S
N779 H783 0.985 . S
H780 N775 0.984 . S
H781 N775 0.985 . S
H782 N779 0.984 . S
H783 N779 0.985 . S
H784 N778 0.984 . S
H785 N778 0.984 . S
H786 N774 0.984 . S
H787 N774 0.985 1_455 S
C788 C789 1.363 . S
C788 C794 1.379 . S
C788 N796 1.356 . S
C789 C788 1.363 . S
C789 C795 1.363 . S
C790 C791 1.363 . S
C790 C795 1.379 . S
C790 N797 1.356 . S
C791 C790 1.363 . S
C791 C794 1.363 . S
N792 C794 1.356 . S
N792 H804 0.984 . S
N792 H805 0.985 . S
N793 C795 1.356 . S
N793 H798 0.984 . S
N793 H799 0.985 . S
C794 C788 1.379 . S
C794 C791 1.363 . S
C794 N792 1.356 . S
C795 C789 1.363 . S
C795 C790 1.379 . S
C795 N793 1.356 . S
N796 C788 1.356 . S
N796 H802 0.984 . S
N796 H803 0.984 . S
N797 C790 1.356 . S
N797 H800 0.984 . S
N797 H801 0.985 . S
H798 N793 0.984 . S
H799 N793 0.985 . S
H800 N797 0.984 . S
H801 N797 0.985 . S
H802 N796 0.984 . S
H803 N796 0.984 . S
H804 N792 0.984 . S
H805 N792 0.985 . S
C806 C807 1.363 1_565 S
C806 C812 1.379 . S
C806 N814 1.356 . S
C807 C806 1.363 1_545 S
C807 C813 1.363 . S
C808 C809 1.363 . S
C808 C813 1.379 . S
C808 N815 1.356 . S
C809 C808 1.363 . S
C809 C812 1.363 1_545 S
N810 C812 1.356 . S
N810 H822 0.984 . S
N810 H823 0.985 . S
N811 C813 1.356 . S
N811 H816 0.984 . S
N811 H817 0.985 . S
C812 C806 1.379 . S
C812 C809 1.363 1_565 S
C812 N810 1.356 . S
C813 C807 1.363 . S
C813 C808 1.379 . S
C813 N811 1.356 . S
N814 C806 1.356 . S
N814 H820 0.984 . S
N814 H821 0.984 . S
N815 C808 1.356 . S
N815 H818 0.984 . S
N815 H819 0.985 . S
H816 N811 0.984 . S
H817 N811 0.985 . S
H818 N815 0.984 . S
H819 N815 0.985 . S
H820 N814 0.984 . S
H821 N814 0.984 . S
H822 N810 0.984 . S
H823 N810 0.985 . S
C824 C825 1.363 . S
C824 C830 1.379 . S
C824 N832 1.356 . S
C825 C824 1.363 . S
C825 C831 1.363 . S
C826 C827 1.363 . S
C826 C831 1.379 . S
C826 N833 1.356 . S
C827 C826 1.363 . S
C827 C830 1.363 . S
N828 C830 1.356 . S
N828 H840 0.984 . S
N828 H841 0.985 . S
N829 C831 1.356 . S
N829 H834 0.984 . S
N829 H835 0.985 . S
C830 C824 1.379 . S
C830 C827 1.363 . S
C830 N828 1.356 . S
C831 C825 1.363 . S
C831 C826 1.379 . S
C831 N829 1.356 . S
N832 C824 1.356 . S
N832 H838 0.984 . S
N832 H839 0.984 . S
N833 C826 1.356 . S
N833 H836 0.984 . S
N833 H837 0.985 . S
H834 N829 0.984 . S
H835 N829 0.985 . S
H836 N833 0.984 . S
H837 N833 0.985 . S
H838 N832 0.984 . S
H839 N832 0.984 . S
H840 N828 0.984 . S
H841 N828 0.985 . S
C842 C843 1.363 1_655 S
C842 C848 1.374 1_655 S
C842 N850 1.362 . S
C843 C842 1.363 1_455 S
C843 C849 1.363 1_545 S
C844 C845 1.363 1_565 S
C844 C849 1.379 . S
C844 N851 1.356 . S
C845 C844 1.363 1_545 S
C845 C848 1.363 . S
N846 C848 1.356 . S
N846 H858 0.984 . S
N846 H859 0.985 . S
N847 C849 1.356 . S
N847 H852 0.984 . S
N847 H853 0.985 . S
C848 C842 1.374 1_455 S
C848 C845 1.363 . S
C848 N846 1.356 . S
C849 C843 1.363 1_565 S
C849 C844 1.379 . S
C849 N847 1.356 . S
N850 C842 1.362 . S
N850 H856 0.984 . S
N850 H857 0.984 . S
N851 C844 1.356 . S
N851 H854 0.984 . S
N851 H855 0.985 . S
H852 N847 0.984 . S
H853 N847 0.985 . S
H854 N851 0.984 . S
H855 N851 0.985 . S
H856 N850 0.984 . S
H857 N850 0.984 . S
H858 N846 0.984 . S
H859 N846 0.985 . S
C860 C861 1.363 . S
C860 C866 1.379 . S
C860 N868 1.356 . S
C861 C860 1.363 . S
C861 C867 1.363 . S
C862 C863 1.363 . S
C862 C867 1.379 . S
C862 N869 1.356 . S
C863 C862 1.363 . S
C863 C866 1.363 . S
N864 C866 1.356 . S
N864 H876 0.984 . S
N864 H877 0.985 . S
N865 C867 1.356 . S
N865 H870 0.984 . S
N865 H871 0.985 . S
C866 C860 1.379 . S
C866 C863 1.363 . S
C866 N864 1.356 . S
C867 C861 1.363 . S
C867 C862 1.379 . S
C867 N865 1.356 . S
N868 C860 1.356 . S
N868 H874 0.984 . S
N868 H875 0.984 . S
N869 C862 1.356 . S
N869 H872 0.984 . S
N869 H873 0.985 . S
H870 N865 0.984 . S
H871 N865 0.985 . S
H872 N869 0.984 . S
H873 N869 0.985 . S
H874 N868 0.984 . S
H875 N868 0.984 . S
H876 N864 0.984 . S
H877 N864 0.985 . S
C878 C879 1.363 . S
C878 C884 1.379 . S
C878 N886 1.356 . S
C879 C878 1.363 . S
C879 C885 1.363 1_565 S
C880 C881 1.363 1_545 S
C880 C885 1.379 . S
C880 N887 1.356 . S
C881 C880 1.363 1_565 S
C881 C884 1.363 . S
N882 C884 1.356 . S
N882 H894 0.984 . S
N882 H895 0.985 . S
N883 C885 1.356 . S
N883 H888 0.984 . S
N883 H889 0.985 . S
C884 C878 1.379 . S
C884 C881 1.363 . S
C884 N882 1.356 . S
C885 C879 1.363 1_545 S
C885 C880 1.379 . S
C885 N883 1.356 . S
N886 C878 1.356 . S
N886 H892 0.984 . S
N886 H893 0.984 . S
N887 C880 1.356 . S
N887 H890 0.984 . S
N887 H891 0.985 . S
H888 N883 0.984 . S
H889 N883 0.985 . S
H890 N887 0.984 . S
H891 N887 0.985 . S
H892 N886 0.984 . S
H893 N886 0.984 . S
H894 N882 0.984 . S
H895 N882 0.985 . S
C896 C897 1.363 . S
C896 C902 1.379 . S
C896 N904 1.356 . S
C897 C896 1.363 . S
C897 C903 1.363 . S
C898 C899 1.363 . S
C898 C903 1.379 . S
C898 N905 1.356 . S
C899 C898 1.363 . S
C899 C902 1.363 . S
N900 C902 1.356 . S
N900 H912 0.984 . S
N900 H913 0.985 . S
N901 C903 1.356 . S
N901 H906 0.984 . S
N901 H907 0.985 1_545 S
C902 C896 1.379 . S
C902 C899 1.363 . S
C902 N900 1.356 . S
C903 C897 1.363 . S
C903 C898 1.379 . S
C903 N901 1.356 . S
N904 C896 1.356 . S
N904 H910 0.984 . S
N904 H911 0.984 . S
N905 C898 1.356 . S
N905 H908 0.984 . S
N905 H909 0.985 1_545 S
H906 N901 0.984 . S
H907 N901 0.985 1_565 S
H908 N905 0.984 . S
H909 N905 0.985 1_565 S
H910 N904 0.984 . S
H911 N904 0.984 . S
H912 N900 0.984 . S
H913 N900 0.985 . S
C914 C915 1.363 . S
C914 C920 1.379 . S
C914 N922 1.356 . S
C915 C914 1.363 . S
C915 C921 1.363 . S
C916 C917 1.363 . S
C916 C921 1.379 . S
C916 N923 1.356 . S
C917 C916 1.363 . S
C917 C920 1.363 . S
N918 C920 1.356 . S
N918 H930 0.984 . S
N918 H931 0.985 . S
N919 C921 1.356 . S
N919 H924 0.984 . S
N919 H925 0.985 . S
C920 C914 1.379 . S
C920 C917 1.363 . S
C920 N918 1.356 . S
C921 C915 1.363 . S
C921 C916 1.379 . S
C921 N919 1.356 . S
N922 C914 1.356 . S
N922 H928 0.984 . S
N922 H929 0.984 . S
N923 C916 1.356 . S
N923 H926 0.984 . S
N923 H927 0.985 . S
H924 N919 0.984 . S
H925 N919 0.985 . S
H926 N923 0.984 . S
H927 N923 0.985 . S
H928 N922 0.984 . S
H929 N922 0.984 . S
H930 N918 0.984 . S
H931 N918 0.985 . S
C932 C933 1.363 . S
C932 C938 1.379 . S
C932 N940 1.356 . S
C933 C932 1.363 . S
C933 C939 1.363 . S
C934 C935 1.363 . S
C934 C939 1.379 . S
C934 N941 1.356 . S
C935 C934 1.363 . S
C935 C938 1.363 . S
N936 C938 1.356 . S
N936 H948 0.984 1_565 S
N936 H949 0.985 . S
N937 C939 1.356 . S
N937 H942 0.984 . S
N937 H943 0.985 . S
C938 C932 1.379 . S
C938 C935 1.363 . S
C938 N936 1.356 . S
C939 C933 1.363 . S
C939 C934 1.379 . S
C939 N937 1.356 . S
N940 C932 1.356 . S
N940 H946 0.984 . S
N940 H947 0.984 . S
N941 C934 1.356 . S
N941 H944 0.984 . S
N941 H945 0.985 . S
H942 N937 0.984 . S
H943 N937 0.985 . S
H944 N941 0.984 . S
H945 N941 0.985 . S
H946 N940 0.984 . S
H947 N940 0.984 . S
H948 N936 0.984 1_545 S
H949 N936 0.985 . S
C950 C951 1.363 . S
C950 C956 1.379 . S
C950 N958 1.356 . S
C951 C950 1.363 . S
C951 C957 1.363 . S
C952 C953 1.363 . S
C952 C957 1.379 . S
C952 N959 1.356 . S
C953 C952 1.363 . S
C953 C956 1.363 . S
N954 C956 1.356 . S
N954 H966 0.984 . S
N954 H967 0.985 . S
N955 C957 1.356 . S
N955 H960 0.984 . S
N955 H961 0.985 . S
C956 C950 1.379 . S
C956 C953 1.363 . S
C956 N954 1.356 . S
C957 C951 1.363 . S
C957 C952 1.379 . S
C957 N955 1.356 . S
N958 C950 1.356 . S
N958 H964 0.984 . S
N958 H965 0.984 . S
N959 C952 1.356 . S
N959 H962 0.984 . S
N959 H963 0.985 . S
H960 N955 0.984 . S
H961 N955 0.985 . S
H962 N959 0.984 . S
H963 N959 0.985 . S
H964 N958 0.984 . S
H965 N958 0.984 . S
H966 N954 0.984 . S
H967 N954 0.985 . S
C968 C969 1.363 . S
C968 C974 1.379 . S
C968 N976 1.356 . S
C969 C968 1.363 . S
C969 C975 1.363 . S
C970 C971 1.363 . S
C970 C975 1.379 . S
C970 N977 1.356 . S
C971 C970 1.363 . S
C971 C974 1.363 . S
N972 C974 1.356 . S
N972 H984 0.984 . S
N972 H985 0.985 . S
N973 C975 1.356 . S
N973 H978 0.984 . S
N973 H979 0.985 . S
C974 C968 1.379 . S
C974 C971 1.363 . S
C974 N972 1.356 . S
C975 C969 1.363 . S
C975 C970 1.379 . S
C975 N973 1.356 . S
N976 C968 1.356 . S
N976 H982 0.984 1_565 S
N976 H983 0.984 . S
N977 C970 1.356 . S
N977 H980 0.984 . S
N977 H981 0.985 . S
H978 N973 0.984 . S
H979 N973 0.985 . S
H980 N977 0.984 . S
H981 N977 0.985 . S
H982 N976 0.984 1_545 S
H983 N976 0.984 . S
H984 N972 0.984 . S
H985 N972 0.985 . S
C986 C987 1.363 . S
C986 C992 1.379 . S
C986 N994 1.356 . S
C987 C986 1.363 . S
C987 C993 1.363 . S
C988 C989 1.363 . S
C988 C993 1.379 . S
C988 N995 1.356 . S
C989 C988 1.363 . S
C989 C992 1.363 . S
N990 C992 1.356 . S
N990 H1002 0.984 . S
N990 H1003 0.985 . S
N991 C993 1.356 . S
N991 H996 0.984 . S
N991 H997 0.985 . S
C992 C986 1.379 . S
C992 C989 1.363 . S
C992 N990 1.356 . S
C993 C987 1.363 . S
C993 C988 1.379 . S
C993 N991 1.356 . S
N994 C986 1.356 . S
N994 H1000 0.984 . S
N994 H1001 0.984 . S
N995 C988 1.356 . S
N995 H998 0.984 . S
N995 H999 0.985 . S
H996 N991 0.984 . S
H997 N991 0.985 . S
H998 N995 0.984 . S
H999 N995 0.985 . S
H1000 N994 0.984 . S
H1001 N994 0.984 . S
H1002 N990 0.984 . S
H1003 N990 0.985 . S
C1004 C1005 1.363 . S
C1004 C1010 1.379 . S
C1004 N1012 1.356 . S
C1005 C1004 1.363 . S
C1005 C1011 1.363 . S
C1006 C1007 1.363 . S
C1006 C1011 1.379 . S
C1006 N1013 1.356 . S
C1007 C1006 1.363 . S
C1007 C1010 1.363 . S
N1008 C1010 1.356 . S
N1008 H1020 0.984 . S
N1008 H1021 0.985 . S
N1009 C1011 1.356 . S
N1009 H1014 0.984 . S
N1009 H1015 0.985 1_545 S
C1010 C1004 1.379 . S
C1010 C1007 1.363 . S
C1010 N1008 1.356 . S
C1011 C1005 1.363 . S
C1011 C1006 1.379 . S
C1011 N1009 1.356 . S
N1012 C1004 1.356 . S
N1012 H1018 0.984 . S
N1012 H1019 0.984 . S
N1013 C1006 1.356 . S
N1013 H1016 0.984 . S
N1013 H1017 0.985 1_545 S
H1014 N1009 0.984 . S
H1015 N1009 0.985 1_565 S
H1016 N1013 0.984 . S
H1017 N1013 0.985 1_565 S
H1018 N1012 0.984 . S
H1019 N1012 0.984 . S
H1020 N1008 0.984 . S
H1021 N1008 0.985 . S
C1022 C1023 1.363 . S
C1022 C1028 1.379 . S
C1022 N1030 1.356 . S
C1023 C1022 1.363 . S
C1023 C1029 1.363 . S
C1024 C1025 1.363 . S
C1024 C1029 1.379 . S
C1024 N1031 1.356 . S
C1025 C1024 1.363 . S
C1025 C1028 1.363 . S
N1026 C1028 1.356 . S
N1026 H1038 0.984 . S
N1026 H1039 0.985 . S
N1027 C1029 1.356 . S
N1027 H1032 0.984 . S
N1027 H1033 0.985 . S
C1028 C1022 1.379 . S
C1028 C1025 1.363 . S
C1028 N1026 1.356 . S
C1029 C1023 1.363 . S
C1029 C1024 1.379 . S
C1029 N1027 1.356 . S
N1030 C1022 1.356 . S
N1030 H1036 0.984 . S
N1030 H1037 0.984 . S
N1031 C1024 1.356 . S
N1031 H1034 0.984 . S
N1031 H1035 0.985 . S
H1032 N1027 0.984 . S
H1033 N1027 0.985 . S
H1034 N1031 0.984 . S
H1035 N1031 0.985 . S
H1036 N1030 0.984 . S
H1037 N1030 0.984 . S
H1038 N1026 0.984 . S
H1039 N1026 0.985 . S
C1040 C1041 1.363 . S
C1040 C1046 1.379 . S
C1040 N1048 1.356 . S
C1041 C1040 1.363 . S
C1041 C1047 1.363 . S
C1042 C1043 1.363 . S
C1042 C1047 1.379 . S
C1042 N1049 1.356 . S
C1043 C1042 1.363 . S
C1043 C1046 1.363 . S
N1044 C1046 1.356 . S
N1044 H1056 0.984 . S
N1044 H1057 0.985 . S
N1045 C1047 1.356 . S
N1045 H1050 0.984 . S
N1045 H1051 0.985 . S
C1046 C1040 1.379 . S
C1046 C1043 1.363 . S
C1046 N1044 1.356 . S
C1047 C1041 1.363 . S
C1047 C1042 1.379 . S
C1047 N1045 1.356 . S
N1048 C1040 1.356 . S
N1048 H1054 0.984 . S
N1048 H1055 0.984 . S
N1049 C1042 1.356 . S
N1049 H1052 0.984 . S
N1049 H1053 0.985 . S
H1050 N1045 0.984 . S
H1051 N1045 0.985 . S
H1052 N1049 0.984 . S
H1053 N1049 0.985 . S
H1054 N1048 0.984 . S
H1055 N1048 0.984 . S
H1056 N1044 0.984 . S
H1057 N1044 0.985 . S
C1058 C1059 1.363 . S
C1058 C1064 1.379 1_565 S
C1058 N1066 1.356 . S
C1059 C1058 1.363 . S
C1059 C1065 1.363 . S
C1060 C1061 1.363 . S
C1060 C1065 1.379 . S
C1060 N1067 1.356 . S
C1061 C1060 1.363 . S
C1061 C1064 1.363 1_565 S
N1062 C1064 1.356 . S
N1062 H1074 0.984 . S
N1062 H1075 0.985 . S
N1063 C1065 1.356 . S
N1063 H1068 0.984 . S
N1063 H1069 0.985 . S
C1064 C1058 1.379 1_545 S
C1064 C1061 1.363 1_545 S
C1064 N1062 1.356 . S
C1065 C1059 1.363 . S
C1065 C1060 1.379 . S
C1065 N1063 1.356 . S
N1066 C1058 1.356 . S
N1066 H1072 0.984 1_565 S
N1066 H1073 0.984 . S
N1067 C1060 1.356 . S
N1067 H1070 0.984 . S
N1067 H1071 0.985 . S
H1068 N1063 0.984 . S
H1069 N1063 0.985 . S
H1070 N1067 0.984 . S
H1071 N1067 0.985 . S
H1072 N1066 0.984 1_545 S
H1073 N1066 0.984 . S
H1074 N1062 0.984 . S
H1075 N1062 0.985 . S
C1076 C1077 1.363 . S
C1076 C1082 1.379 . S
C1076 N1084 1.356 . S
C1077 C1076 1.363 . S
C1077 C1083 1.363 . S
C1078 C1079 1.363 . S
C1078 C1083 1.379 . S
C1078 N1085 1.356 . S
C1079 C1078 1.363 . S
C1079 C1082 1.363 . S
N1080 C1082 1.356 . S
N1080 H1092 0.983 . S
N1080 H1093 0.985 1_556 S
N1081 C1083 1.356 . S
N1081 H1086 0.984 . S
N1081 H1087 0.985 . S
C1082 C1076 1.379 . S
C1082 C1079 1.363 . S
C1082 N1080 1.356 . S
C1083 C1077 1.363 . S
C1083 C1078 1.379 . S
C1083 N1081 1.356 . S
N1084 C1076 1.356 . S
N1084 H1090 0.984 . S
N1084 H1091 0.984 . S
N1085 C1078 1.356 . S
N1085 H1088 0.984 . S
N1085 H1089 0.985 . S
H1086 N1081 0.984 . S
H1087 N1081 0.985 . S
H1088 N1085 0.984 . S
H1089 N1085 0.985 . S
H1090 N1084 0.984 . S
H1091 N1084 0.984 . S
H1092 N1080 0.983 . S
H1093 N1080 0.985 1_554 S
C1094 C1095 1.363 1_565 S
C1094 C1100 1.379 1_565 S
C1094 N1102 1.356 . S
C1095 C1094 1.363 1_545 S
C1095 C1101 1.363 . S
C1096 C1097 1.363 . S
C1096 C1101 1.379 . S
C1096 N1103 1.356 . S
C1097 C1096 1.363 . S
C1097 C1100 1.363 . S
N1098 C1100 1.356 . S
N1098 H1110 0.984 1_545 S
N1098 H1111 0.985 . S
N1099 C1101 1.356 . S
N1099 H1104 0.984 . S
N1099 H1105 0.985 . S
C1100 C1094 1.379 1_545 S
C1100 C1097 1.363 . S
C1100 N1098 1.356 . S
C1101 C1095 1.363 . S
C1101 C1096 1.379 . S
C1101 N1099 1.356 . S
N1102 C1094 1.356 . S
N1102 H1108 0.984 . S
N1102 H1109 0.984 . S
N1103 C1096 1.356 . S
N1103 H1106 0.984 . S
N1103 H1107 0.985 . S
H1104 N1099 0.984 . S
H1105 N1099 0.985 . S
H1106 N1103 0.984 . S
H1107 N1103 0.985 . S
H1108 N1102 0.984 . S
H1109 N1102 0.984 . S
H1110 N1098 0.984 1_565 S
H1111 N1098 0.985 . S
C1112 C1113 1.363 . S
C1112 C1118 1.379 . S
C1112 N1120 1.356 . S
C1113 C1112 1.363 . S
C1113 C1119 1.363 . S
C1114 C1115 1.363 . S
C1114 C1119 1.379 . S
C1114 N1121 1.356 . S
C1115 C1114 1.363 . S
C1115 C1118 1.363 . S
N1116 C1118 1.356 . S
N1116 H1128 0.984 . S
N1116 H1129 0.985 . S
N1117 C1119 1.356 . S
N1117 H1122 0.984 . S
N1117 H1123 0.985 . S
C1118 C1112 1.379 . S
C1118 C1115 1.363 . S
C1118 N1116 1.356 . S
C1119 C1113 1.363 . S
C1119 C1114 1.379 . S
C1119 N1117 1.356 . S
N1120 C1112 1.356 . S
N1120 H1126 0.984 . S
N1120 H1127 0.984 . S
N1121 C1114 1.356 . S
N1121 H1124 0.984 . S
N1121 H1125 0.985 . S
H1122 N1117 0.984 . S
H1123 N1117 0.985 . S
H1124 N1121 0.984 . S
H1125 N1121 0.985 . S
H1126 N1120 0.984 . S
H1127 N1120 0.984 . S
H1128 N1116 0.984 . S
H1129 N1116 0.985 . S
C1130 C1131 1.363 . S
C1130 C1136 1.379 1_545 S
C1130 N1138 1.356 . S
C1131 C1130 1.363 . S
C1131 C1137 1.363 . S
C1132 C1133 1.363 . S
C1132 C1137 1.379 . S
C1132 N1139 1.356 . S
C1133 C1132 1.363 . S
C1133 C1136 1.363 1_545 S
N1134 C1136 1.356 . S
N1134 H1146 0.984 . S
N1134 H1147 0.985 . S
N1135 C1137 1.356 . S
N1135 H1140 0.984 . S
N1135 H1141 0.985 . S
C1136 C1130 1.379 1_565 S
C1136 C1133 1.363 1_565 S
C1136 N1134 1.356 . S
C1137 C1131 1.363 . S
C1137 C1132 1.379 . S
C1137 N1135 1.356 . S
N1138 C1130 1.356 . S
N1138 H1144 0.984 1_545 S
N1138 H1145 0.984 . S
N1139 C1132 1.356 . S
N1139 H1142 0.984 . S
N1139 H1143 0.985 . S
H1140 N1135 0.984 . S
H1141 N1135 0.985 . S
H1142 N1139 0.984 . S
H1143 N1139 0.985 . S
H1144 N1138 0.984 1_565 S
H1145 N1138 0.984 . S
H1146 N1134 0.984 . S
H1147 N1134 0.985 . S
C1148 C1149 1.363 . S
C1148 C1154 1.379 . S
C1148 N1156 1.356 . S
C1149 C1148 1.363 . S
C1149 C1155 1.363 . S
C1150 C1151 1.363 . S
C1150 C1155 1.379 . S
C1150 N1157 1.356 . S
C1151 C1150 1.363 . S
C1151 C1154 1.363 . S
N1152 C1154 1.356 . S
N1152 H1164 0.984 . S
N1152 H1165 0.985 . S
N1153 C1155 1.356 . S
N1153 H1158 0.984 . S
N1153 H1159 0.985 . S
C1154 C1148 1.379 . S
C1154 C1151 1.363 . S
C1154 N1152 1.356 . S
C1155 C1149 1.363 . S
C1155 C1150 1.379 . S
C1155 N1153 1.356 . S
N1156 C1148 1.356 . S
N1156 H1162 0.984 . S
N1156 H1163 0.984 . S
N1157 C1150 1.356 . S
N1157 H1160 0.984 . S
N1157 H1161 0.985 . S
H1158 N1153 0.984 . S
H1159 N1153 0.985 . S
H1160 N1157 0.984 . S
H1161 N1157 0.985 . S
H1162 N1156 0.984 . S
H1163 N1156 0.984 . S
H1164 N1152 0.984 . S
H1165 N1152 0.985 . S
C1166 C1167 1.363 . S
C1166 C1172 1.379 . S
C1166 N1174 1.356 . S
C1167 C1166 1.363 . S
C1167 C1173 1.363 . S
C1168 C1169 1.363 . S
C1168 C1173 1.379 . S
C1168 N1175 1.356 1_565 S
C1169 C1168 1.363 . S
C1169 C1172 1.363 . S
N1170 C1172 1.356 . S
N1170 H1182 0.984 . S
N1170 H1183 0.985 1_565 S
N1171 C1173 1.356 . S
N1171 H1176 0.984 . S
N1171 H1177 0.985 . S
C1172 C1166 1.379 . S
C1172 C1169 1.363 . S
C1172 N1170 1.356 . S
C1173 C1167 1.363 . S
C1173 C1168 1.379 . S
C1173 N1171 1.356 . S
N1174 C1166 1.356 . S
N1174 H1180 0.984 . S
N1174 H1181 0.984 . S
N1175 C1168 1.356 1_545 S
N1175 H1178 0.984 . S
N1175 H1179 0.985 . S
H1176 N1171 0.984 . S
H1177 N1171 0.985 . S
H1178 N1175 0.984 . S
H1179 N1175 0.985 . S
H1180 N1174 0.984 . S
H1181 N1174 0.984 . S
H1182 N1170 0.984 . S
H1183 N1170 0.985 1_545 S
C321 C1 0.663 . S
C323 C201 0.663 . S
C339 C21 0.663 . S
C341 C221 0.663 . S
C357 C41 0.663 . S
C359 C161 0.663 . S
C375 C181 0.663 . S
C377 C61 0.663 . S
C393 C89 0.663 . S
C395 C289 0.663 . S
C411 C309 0.663 . S
C413 C109 0.663 . S
C429 C249 0.663 . S
C431 C129 0.663 . S
C447 C149 0.663 . S
C449 C269 0.663 . S
C465 C19 2.317 . S
C467 C88 2.317 . S
C483 C39 2.317 . S
C485 C268 2.317 . S
C501 C59 2.317 . S
C503 C128 2.317 . S
C519 C79 2.317 . S
C521 C308 2.317 . S
C537 C108 2.317 . S
C539 C199 2.317 . S
C555 C239 2.317 . S
C557 C148 2.317 . S
C573 C248 2.317 . S
C575 C179 2.317 . S
C591 C219 2.317 . S
C593 C288 2.317 . S
C609 C8 1.435 . S
C611 C141 1.527 . S
C627 C28 1.435 . S
C629 C241 1.526 . S
C645 C48 1.435 . S
C647 C101 1.527 . S
C663 C68 1.435 1_455 S
C665 C281 1.526 . S
C681 C69 1.527 . S
C683 C99 1.435 . S
C699 C119 1.435 . S
C701 C169 1.526 . S
C717 C139 1.435 . S
C719 C29 1.527 . S
C735 C209 1.526 . S
C737 C159 1.435 1_655 S
C753 C168 1.435 . S
C755 C301 1.527 . S
C771 C81 1.527 . S
C773 C188 1.435 1_655 S
C789 C261 1.527 . S
C791 C208 1.435 . S
C807 C121 1.527 . S
C809 C228 1.435 . S
C825 C259 1.435 . S
C827 C229 1.527 . S
C843 C279 1.435 1_455 S
C845 C9 1.527 . S
C861 C189 1.527 . S
C863 C299 1.435 . S
C879 C319 1.435 . S
C881 C49 1.527 . S
C897 C6 1.556 . S
C899 C196 1.496 . S
C915 C216 1.496 . S
C917 C26 1.556 . S
C933 C46 1.556 . S
C935 C236 1.496 . S
C951 C176 1.496 . S
C953 C66 1.556 . S
C969 C266 1.496 . S
C971 C96 1.556 . S
C987 C286 1.496 . S
C989 C116 1.556 . S
C1005 C306 1.496 . S
C1007 C136 1.556 . S
C1023 C246 1.496 . S
C1025 C156 1.556 . S
C1041 C36 1.496 . S
C1043 C166 1.556 . S
C1059 C56 1.496 . S
C1061 C186 1.556 1_565 S
C1077 C76 1.496 . S
C1079 C206 1.556 . S
C1095 C226 1.556 1_545 S
C1097 C16 1.496 . S
C1113 C106 1.496 . S
C1115 C256 1.556 . S
C1131 C126 1.496 . S
C1133 C276 1.556 1_545 S
C1149 C146 1.496 . S
C1151 C296 1.556 . S
C1167 C86 1.496 . S
C1169 C316 1.556 1_565 S
