# Generated by pormake.
# Topology ict, (4)-cn, num edge types: 1
# Building blocks:
#     Node 0, Type 0, BuildingBlock: NAHDIM_clean_sbu_0, # of connection points: 4
#     Node 1, Type 0, BuildingBlock: NAHDIM_clean_sbu_0, # of connection points: 4
#     Node 2, Type 0, BuildingBlock: NAHDIM_clean_sbu_0, # of connection points: 4
#     Node 3, Type 0, BuildingBlock: NAHDIM_clean_sbu_0, # of connection points: 4
#     Node 4, Type 0, BuildingBlock: NAHDIM_clean_sbu_0, # of connection points: 4
#     Node 5, Type 0, BuildingBlock: NAHDIM_clean_sbu_0, # of connection points: 4
#     Node 6, Type 0, BuildingBlock: NAHDIM_clean_sbu_0, # of connection points: 4
#     Node 7, Type 0, BuildingBlock: NAHDIM_clean_sbu_0, # of connection points: 4
#     Node 8, Type 0, BuildingBlock: NAHDIM_clean_sbu_0, # of connection points: 4
#     Node 9, Type 0, BuildingBlock: NAHDIM_clean_sbu_0, # of connection points: 4
#     Node 10, Type 0, BuildingBlock: NAHDIM_clean_sbu_0, # of connection points: 4
#     Node 11, Type 0, BuildingBlock: NAHDIM_clean_sbu_0, # of connection points: 4
#     Node 12, Type 0, BuildingBlock: NAHDIM_clean_sbu_0, # of connection points: 4
#     Node 13, Type 0, BuildingBlock: NAHDIM_clean_sbu_0, # of connection points: 4
#     Node 14, Type 0, BuildingBlock: NAHDIM_clean_sbu_0, # of connection points: 4
#     Node 15, Type 0, BuildingBlock: NAHDIM_clean_sbu_0, # of connection points: 4
#     Node 16, Type 0, BuildingBlock: NAHDIM_clean_sbu_0, # of connection points: 4
#     Node 17, Type 0, BuildingBlock: NAHDIM_clean_sbu_0, # of connection points: 4
#     Node 18, Type 0, BuildingBlock: NAHDIM_clean_sbu_0, # of connection points: 4
#     Node 19, Type 0, BuildingBlock: NAHDIM_clean_sbu_0, # of connection points: 4
#     Node 20, Type 0, BuildingBlock: NAHDIM_clean_sbu_0, # of connection points: 4
#     Node 21, Type 0, BuildingBlock: NAHDIM_clean_sbu_0, # of connection points: 4
#     Node 22, Type 0, BuildingBlock: NAHDIM_clean_sbu_0, # of connection points: 4
#     Node 23, Type 0, BuildingBlock: NAHDIM_clean_sbu_0, # of connection points: 4
#     Node 24, Type 0, BuildingBlock: NAHDIM_clean_sbu_0, # of connection points: 4
#     Node 25, Type 0, BuildingBlock: NAHDIM_clean_sbu_0, # of connection points: 4
#     Node 26, Type 0, BuildingBlock: NAHDIM_clean_sbu_0, # of connection points: 4
#     Node 27, Type 0, BuildingBlock: NAHDIM_clean_sbu_0, # of connection points: 4
#     Node 28, Type 0, BuildingBlock: NAHDIM_clean_sbu_0, # of connection points: 4
#     Node 29, Type 0, BuildingBlock: NAHDIM_clean_sbu_0, # of connection points: 4
#     Node 30, Type 0, BuildingBlock: NAHDIM_clean_sbu_0, # of connection points: 4
#     Node 31, Type 0, BuildingBlock: NAHDIM_clean_sbu_0, # of connection points: 4
#     Node 32, Type 0, BuildingBlock: NAHDIM_clean_sbu_0, # of connection points: 4
#     Node 33, Type 0, BuildingBlock: NAHDIM_clean_sbu_0, # of connection points: 4
#     Node 34, Type 0, BuildingBlock: NAHDIM_clean_sbu_0, # of connection points: 4
#     Node 35, Type 0, BuildingBlock: NAHDIM_clean_sbu_0, # of connection points: 4
#     Edge 36, Type (0, 0), BuildingBlock: XUDNAN_clean_linker_2, # of connection points: 2
#     Edge 37, Type (0, 0), BuildingBlock: XUDNAN_clean_linker_2, # of connection points: 2
#     Edge 38, Type (0, 0), BuildingBlock: XUDNAN_clean_linker_2, # of connection points: 2
#     Edge 39, Type (0, 0), BuildingBlock: XUDNAN_clean_linker_2, # of connection points: 2
#     Edge 40, Type (0, 0), BuildingBlock: XUDNAN_clean_linker_2, # of connection points: 2
#     Edge 41, Type (0, 0), BuildingBlock: XUDNAN_clean_linker_2, # of connection points: 2
#     Edge 42, Type (0, 0), BuildingBlock: XUDNAN_clean_linker_2, # of connection points: 2
#     Edge 43, Type (0, 0), BuildingBlock: XUDNAN_clean_linker_2, # of connection points: 2
#     Edge 44, Type (0, 0), BuildingBlock: XUDNAN_clean_linker_2, # of connection points: 2
#     Edge 45, Type (0, 0), BuildingBlock: XUDNAN_clean_linker_2, # of connection points: 2
#     Edge 46, Type (0, 0), BuildingBlock: XUDNAN_clean_linker_2, # of connection points: 2
#     Edge 47, Type (0, 0), BuildingBlock: XUDNAN_clean_linker_2, # of connection points: 2
#     Edge 48, Type (0, 0), BuildingBlock: XUDNAN_clean_linker_2, # of connection points: 2
#     Edge 49, Type (0, 0), BuildingBlock: XUDNAN_clean_linker_2, # of connection points: 2
#     Edge 50, Type (0, 0), BuildingBlock: XUDNAN_clean_linker_2, # of connection points: 2
#     Edge 51, Type (0, 0), BuildingBlock: XUDNAN_clean_linker_2, # of connection points: 2
#     Edge 52, Type (0, 0), BuildingBlock: XUDNAN_clean_linker_2, # of connection points: 2
#     Edge 53, Type (0, 0), BuildingBlock: XUDNAN_clean_linker_2, # of connection points: 2
#     Edge 54, Type (0, 0), BuildingBlock: XUDNAN_clean_linker_2, # of connection points: 2
#     Edge 55, Type (0, 0), BuildingBlock: XUDNAN_clean_linker_2, # of connection points: 2
#     Edge 56, Type (0, 0), BuildingBlock: XUDNAN_clean_linker_2, # of connection points: 2
#     Edge 57, Type (0, 0), BuildingBlock: XUDNAN_clean_linker_2, # of connection points: 2
#     Edge 58, Type (0, 0), BuildingBlock: XUDNAN_clean_linker_2, # of connection points: 2
#     Edge 59, Type (0, 0), BuildingBlock: XUDNAN_clean_linker_2, # of connection points: 2
#     Edge 60, Type (0, 0), BuildingBlock: XUDNAN_clean_linker_2, # of connection points: 2
#     Edge 61, Type (0, 0), BuildingBlock: XUDNAN_clean_linker_2, # of connection points: 2
#     Edge 62, Type (0, 0), BuildingBlock: XUDNAN_clean_linker_2, # of connection points: 2
#     Edge 63, Type (0, 0), BuildingBlock: XUDNAN_clean_linker_2, # of connection points: 2
#     Edge 64, Type (0, 0), BuildingBlock: XUDNAN_clean_linker_2, # of connection points: 2
#     Edge 65, Type (0, 0), BuildingBlock: XUDNAN_clean_linker_2, # of connection points: 2
#     Edge 66, Type (0, 0), BuildingBlock: XUDNAN_clean_linker_2, # of connection points: 2
#     Edge 67, Type (0, 0), BuildingBlock: XUDNAN_clean_linker_2, # of connection points: 2
#     Edge 68, Type (0, 0), BuildingBlock: XUDNAN_clean_linker_2, # of connection points: 2
#     Edge 69, Type (0, 0), BuildingBlock: XUDNAN_clean_linker_2, # of connection points: 2
#     Edge 70, Type (0, 0), BuildingBlock: XUDNAN_clean_linker_2, # of connection points: 2
#     Edge 71, Type (0, 0), BuildingBlock: XUDNAN_clean_linker_2, # of connection points: 2
#     Edge 72, Type (0, 0), BuildingBlock: XUDNAN_clean_linker_2, # of connection points: 2
#     Edge 73, Type (0, 0), BuildingBlock: XUDNAN_clean_linker_2, # of connection points: 2
#     Edge 74, Type (0, 0), BuildingBlock: XUDNAN_clean_linker_2, # of connection points: 2
#     Edge 75, Type (0, 0), BuildingBlock: XUDNAN_clean_linker_2, # of connection points: 2
#     Edge 76, Type (0, 0), BuildingBlock: XUDNAN_clean_linker_2, # of connection points: 2
#     Edge 77, Type (0, 0), BuildingBlock: XUDNAN_clean_linker_2, # of connection points: 2
#     Edge 78, Type (0, 0), BuildingBlock: XUDNAN_clean_linker_2, # of connection points: 2
#     Edge 79, Type (0, 0), BuildingBlock: XUDNAN_clean_linker_2, # of connection points: 2
#     Edge 80, Type (0, 0), BuildingBlock: XUDNAN_clean_linker_2, # of connection points: 2
#     Edge 81, Type (0, 0), BuildingBlock: XUDNAN_clean_linker_2, # of connection points: 2
#     Edge 82, Type (0, 0), BuildingBlock: XUDNAN_clean_linker_2, # of connection points: 2
#     Edge 83, Type (0, 0), BuildingBlock: XUDNAN_clean_linker_2, # of connection points: 2
#     Edge 84, Type (0, 0), BuildingBlock: XUDNAN_clean_linker_2, # of connection points: 2
#     Edge 85, Type (0, 0), BuildingBlock: XUDNAN_clean_linker_2, # of connection points: 2
#     Edge 86, Type (0, 0), BuildingBlock: XUDNAN_clean_linker_2, # of connection points: 2
#     Edge 87, Type (0, 0), BuildingBlock: XUDNAN_clean_linker_2, # of connection points: 2
#     Edge 88, Type (0, 0), BuildingBlock: XUDNAN_clean_linker_2, # of connection points: 2
#     Edge 89, Type (0, 0), BuildingBlock: XUDNAN_clean_linker_2, # of connection points: 2
#     Edge 90, Type (0, 0), BuildingBlock: XUDNAN_clean_linker_2, # of connection points: 2
#     Edge 91, Type (0, 0), BuildingBlock: XUDNAN_clean_linker_2, # of connection points: 2
#     Edge 92, Type (0, 0), BuildingBlock: XUDNAN_clean_linker_2, # of connection points: 2
#     Edge 93, Type (0, 0), BuildingBlock: XUDNAN_clean_linker_2, # of connection points: 2
#     Edge 94, Type (0, 0), BuildingBlock: XUDNAN_clean_linker_2, # of connection points: 2
#     Edge 95, Type (0, 0), BuildingBlock: XUDNAN_clean_linker_2, # of connection points: 2
#     Edge 96, Type (0, 0), BuildingBlock: XUDNAN_clean_linker_2, # of connection points: 2
#     Edge 97, Type (0, 0), BuildingBlock: XUDNAN_clean_linker_2, # of connection points: 2
#     Edge 98, Type (0, 0), BuildingBlock: XUDNAN_clean_linker_2, # of connection points: 2
#     Edge 99, Type (0, 0), BuildingBlock: XUDNAN_clean_linker_2, # of connection points: 2
#     Edge 100, Type (0, 0), BuildingBlock: XUDNAN_clean_linker_2, # of connection points: 2
#     Edge 101, Type (0, 0), BuildingBlock: XUDNAN_clean_linker_2, # of connection points: 2
#     Edge 102, Type (0, 0), BuildingBlock: XUDNAN_clean_linker_2, # of connection points: 2
#     Edge 103, Type (0, 0), BuildingBlock: XUDNAN_clean_linker_2, # of connection points: 2
#     Edge 104, Type (0, 0), BuildingBlock: XUDNAN_clean_linker_2, # of connection points: 2
#     Edge 105, Type (0, 0), BuildingBlock: XUDNAN_clean_linker_2, # of connection points: 2
#     Edge 106, Type (0, 0), BuildingBlock: XUDNAN_clean_linker_2, # of connection points: 2
#     Edge 107, Type (0, 0), BuildingBlock: XUDNAN_clean_linker_2, # of connection points: 2
# Relax obj value: 0.088
# Max RMSD: 0.120
# Mean RMSD: 0.120
data_MOF--net-ict--node1-NAHDIM_clean_sbu_0--edge1-XUDNAN_clean_linker_2
_symmetry_space_group_name_H-M    P1
_symmetry_Int_Tables_number       1
_symmetry_cell_setting            triclinic
loop_
_symmetry_equiv_pos_as_xyz
'x, y, z'
_cell_length_a     66.112499
_cell_length_b     66.100866
_cell_length_c     36.028045
_cell_angle_alpha  90.022506
_cell_angle_beta   89.986839
_cell_angle_gamma 119.99019
loop_
_atom_site_label
_atom_site_type_symbol
_atom_site_fract_x
_atom_site_fract_y
_atom_site_fract_z
_atom_type_partial_charge
C0 C 0.25267 0.24913 0.97932 0.0
O1 O 0.23785 0.2327 0.9569 0.0
O2 O 0.18973 0.21871 0.0093 0.0
Zn3 Zn 0.21825 0.219 0.0302 0.0
O4 O 0.21931 0.19055 0.01228 0.0
C5 C 0.19629 0.19987 0.09773 0.0
O6 O 0.18175 0.18458 0.07364 0.0
O7 O 0.24783 0.24767 0.0137 0.0
C8 C 0.22751 0.18022 0.03165 0.0
O9 O 0.23576 0.18817 0.06494 0.0
C10 C 0.17742 0.20477 0.98362 0.0
O11 O 0.18414 0.19101 0.9685 0.0
O12 O 0.21481 0.21749 0.08579 0.0
C13 C 0.74334 0.01363 0.00212 0.0
O14 O 0.7634 0.0197 0.98595 0.0
O15 O 0.77431 0.98398 0.04864 0.0
Zn16 Zn 0.76789 0.00952 0.06397 0.0
O17 O 0.79625 0.04073 0.05341 0.0
C18 C 0.74142 0.99517 0.13278 0.0
O19 O 0.7235 0.98278 0.1109 0.0
O20 O 0.74068 0.00769 0.03607 0.0
C21 C 0.81686 0.0445 0.05866 0.0
O22 O 0.81985 0.02752 0.07126 0.0
C23 C 0.75842 0.96392 0.03808 0.0
O24 O 0.7367 0.95941 0.03658 0.0
O25 O 0.76161 0.0075 0.1187 0.0
C26 C 2e-05 0.74367 0.96828 0.0
O27 O 0.01235 0.76497 0.95511 0.0
O28 O 0.0218 0.79832 0.01725 0.0
Zn29 Zn 0.99513 0.76711 0.03325 0.0
O30 O 0.96468 0.76705 0.02997 0.0
C31 C 0.00018 0.77655 0.1097 0.0
O32 O 0.99776 0.79389 0.09718 0.0
O33 O 0.9919 0.7407 0.00106 0.0
C34 C 0.96254 0.78397 0.01805 0.0
O35 O 0.98116 0.80318 0.00693 0.0
C36 C 0.04283 0.80271 0.01767 0.0
O37 O 0.04728 0.78621 0.02763 0.0
O38 O -9e-05 0.76184 0.08668 0.0
C39 C 0.24413 0.26141 0.46967 0.0
O40 O 0.25139 0.24637 0.46479 0.0
O41 O 0.20979 0.20099 0.45788 0.0
Zn42 Zn 0.201 0.2242 0.43892 0.0
O43 O 0.16913 0.21619 0.45744 0.0
C44 C 0.18451 0.20371 0.36942 0.0
O45 O 0.16979 0.18746 0.39213 0.0
O46 O 0.22376 0.25609 0.45887 0.0
C47 C 0.15777 0.22439 0.44099 0.0
O48 O 0.16694 0.23765 0.4116 0.0
C49 C 0.19533 0.18073 0.46989 0.0
O50 O 0.17301 0.17411 0.47125 0.0
O51 O 0.20063 0.22273 0.38301 0.0
C52 C 0.72017 0.9808 0.51353 0.0
O53 O 0.72381 0.99755 0.49017 0.0
O54 O 0.78563 0.0171 0.49146 0.0
Zn55 Zn 0.76054 0.98449 0.47713 0.0
O56 O 0.77262 0.96185 0.47686 0.0
C57 C 0.76041 0.0001 0.40228 0.0
O58 O 0.78173 0.01631 0.41113 0.0
O59 O 0.73402 0.97271 0.51346 0.0
C60 C 0.78302 0.95944 0.44895 0.0
O61 O 0.78686 0.97268 0.41964 0.0
C62 C 0.80707 0.02314 0.4948 0.0
O63 O 0.81356 0.00755 0.48958 0.0
O64 O 0.74799 0.98479 0.42625 0.0
C65 C 0.01262 0.75141 0.51551 0.0
O66 O 0.99294 0.75117 0.52189 0.0
O67 O 0.9891 0.78337 0.47604 0.0
Zn68 Zn 0.01921 0.78571 0.45911 0.0
O69 O 0.04631 0.81864 0.46408 0.0
C70 C 0.01216 0.78762 0.38141 0.0
O71 O 0.01081 0.8059 0.3922 0.0
O72 O 0.02616 0.76451 0.49006 0.0
C73 C 0.06376 0.82532 0.44256 0.0
O74 O 0.06352 0.81071 0.41762 0.0
C75 C 0.98529 0.80035 0.47859 0.0
O76 O 0.00199 0.82152 0.47012 0.0
O77 O 0.01561 0.77568 0.40558 0.0
C78 C 0.74286 0.76528 0.02419 0.0
O79 O 0.76021 0.78263 0.042 0.0
O80 O 0.80039 0.78028 0.97974 0.0
Zn81 Zn 0.7744 0.78571 0.96343 0.0
O82 O 0.78157 0.81832 0.97595 0.0
C83 C 0.78246 0.7963 0.88555 0.0
O84 O 0.7991 0.81643 0.89821 0.0
O85 O 0.74495 0.76283 0.98968 0.0
C86 C 0.76529 0.82315 0.97278 0.0
O87 O 0.74465 0.80683 0.96125 0.0
C88 C 0.82184 0.79565 0.97665 0.0
O89 O 0.82755 0.8162 0.96278 0.0
O90 O 0.76955 0.78043 0.90845 0.0
C91 C 0.24649 0.98181 0.00949 0.0
O92 O 0.22552 0.97368 0.02365 0.0
O93 O 0.2283 0.02472 0.95167 0.0
Zn94 Zn 0.22676 0.99359 0.94651 0.0
O95 O 0.19437 0.96788 0.95967 0.0
C96 C 0.22704 0.99835 0.86713 0.0
O97 O 0.21726 0.01086 0.8755 0.0
O98 O 0.25104 0.99164 0.97787 0.0
C99 C 0.18933 0.94663 0.9595 0.0
O100 O 0.20568 0.94158 0.95134 0.0
C101 C 0.23216 0.03632 0.98154 0.0
O102 O 0.2361 0.02823 0.01235 0.0
O103 O 0.2327 0.98915 0.89312 0.0
C104 C 0.02926 0.26591 0.03292 0.0
O105 O 0.04065 0.25462 0.03857 0.0
O106 O 0.97318 0.20381 0.99504 0.0
Zn107 Zn 0.00451 0.22977 0.97784 0.0
O108 O 0.02991 0.22121 0.98043 0.0
C109 C 0.98627 0.22164 0.90341 0.0
O110 O 0.97215 0.20073 0.91683 0.0
O111 O 0.01321 0.25841 0.00859 0.0
C112 C 0.0305 0.20695 0.95735 0.0
O113 O 0.01362 0.19675 0.9329 0.0
C114 C 0.96866 0.1841 0.00797 0.0
O115 O 0.98565 0.17945 0.0123 0.0
O116 O 0.0015 0.23718 0.92457 0.0
C117 C 0.7691 0.74843 0.47891 0.0
O118 O 0.79128 0.7577 0.47022 0.0
O119 O 0.79237 0.81352 0.51924 0.0
Zn120 Zn 0.78833 0.78284 0.53672 0.0
O121 O 0.81813 0.78168 0.53265 0.0
C122 C 0.79104 0.79379 0.61374 0.0
O123 O 0.80979 0.81278 0.6023 0.0
O124 O 0.76339 0.75658 0.50639 0.0
C125 C 0.83868 0.79904 0.52974 0.0
O126 O 0.84185 0.8203 0.52951 0.0
C127 C 0.79981 0.8217 0.48704 0.0
O128 O 0.80558 0.80999 0.46405 0.0
O129 O 0.77858 0.77818 0.59019 0.0
C130 C 0.27389 0.0116 0.48495 0.0
O131 O 0.2562 0.99043 0.47971 0.0
O132 O 0.21412 0.99052 0.50286 0.0
Zn133 Zn 0.24046 0.01861 0.52792 0.0
O134 O 0.23778 0.04722 0.51978 0.0
C135 C 0.24473 0.99814 0.59657 0.0
O136 O 0.24983 0.98554 0.5744 0.0
O137 O 0.27118 0.02577 0.50531 0.0
C138 C 0.21929 0.04848 0.52255 0.0
O139 O 0.19949 0.02968 0.53106 0.0
C140 C 0.19499 0.97689 0.51911 0.0
O141 O 0.19179 0.98139 0.55345 0.0
O142 O 0.24031 0.01318 0.58272 0.0
C143 C 0.99439 0.27034 0.51137 0.0
O144 O 0.01584 0.27431 0.51498 0.0
O145 O 0.0051 0.22172 0.54052 0.0
Zn146 Zn 0.97812 0.22628 0.55404 0.0
O147 O 0.94746 0.19669 0.54501 0.0
C148 C 0.9731 0.21832 0.63249 0.0
O149 O 0.96281 0.19644 0.62159 0.0
O150 O 0.97747 0.25192 0.52508 0.0
C151 C 0.94555 0.1768 0.53962 0.0
O152 O 0.96439 0.17489 0.53976 0.0
C153 C 0.0134 0.22316 0.5082 0.0
O154 O 0.0043 0.22832 0.47988 0.0
O155 O 0.981 0.23442 0.60825 0.0
C156 C 0.92435 0.59647 0.31111 0.0
O157 O 0.90662 0.59923 0.30213 0.0
O158 O 0.86434 0.56164 0.34146 0.0
Zn159 Zn 0.8921 0.56173 0.36451 0.0
O160 O 0.88684 0.52911 0.3631 0.0
C161 C 0.89313 0.58929 0.42746 0.0
O162 O 0.89043 0.60186 0.4018 0.0
O163 O 0.92192 0.58224 0.33677 0.0
C164 C 0.87041 0.51276 0.38146 0.0
O165 O 0.85665 0.51738 0.40166 0.0
C166 C 0.85507 0.55021 0.31194 0.0
O167 O 0.86444 0.5391 0.29551 0.0
O168 O 0.89475 0.57166 0.41781 0.0
C169 C 0.42535 0.33531 0.32466 0.0
O170 O 0.42236 0.31428 0.32006 0.0
O171 O 0.46372 0.31477 0.3575 0.0
Zn172 Zn 0.46246 0.34263 0.37744 0.0
O173 O 0.49403 0.37145 0.37274 0.0
C174 C 0.43369 0.33275 0.44392 0.0
O175 O 0.41703 0.32912 0.42039 0.0
O176 O 0.4405 0.34915 0.34772 0.0
C177 C 0.49584 0.39032 0.38497 0.0
O178 O 0.47759 0.38965 0.40074 0.0
C179 C 0.47442 0.3167 0.32723 0.0
O180 O 0.48403 0.33674 0.30947 0.0
O181 O 0.4538 0.33818 0.43163 0.0
C182 C 0.66885 0.07916 0.31214 0.0
O183 O 0.66029 0.09161 0.29795 0.0
O184 O 0.70193 0.13852 0.37071 0.0
Zn185 Zn 0.67312 0.10697 0.37554 0.0
O186 O 0.64392 0.10707 0.35954 0.0
C187 C 0.66741 0.11131 0.45249 0.0
O188 O 0.66754 0.13007 0.44014 0.0
O189 O 0.67624 0.08299 0.3454 0.0
C190 C 0.64109 0.12471 0.35801 0.0
O191 O 0.65847 0.14544 0.36685 0.0
C192 C 0.70881 0.15082 0.3414 0.0
O193 O 0.69644 0.14304 0.31085 0.0
O194 O 0.66957 0.09797 0.42942 0.0
C195 C 0.91155 0.60015 0.82608 0.0
O196 O 0.89336 0.58561 0.84592 0.0
O197 O 0.88481 0.53912 0.77593 0.0
Zn198 Zn 0.88422 0.56892 0.76738 0.0
O199 O 0.8548 0.56645 0.78809 0.0
C200 C 0.88525 0.59237 0.69945 0.0
O201 O 0.88362 0.60692 0.72245 0.0
O202 O 0.91186 0.59625 0.79159 0.0
C203 C 0.83472 0.55315 0.77432 0.0
O204 O 0.83275 0.54006 0.74556 0.0
C205 C 0.87731 0.52699 0.80535 0.0
O206 O 0.86885 0.53405 0.83218 0.0
O207 O 0.88568 0.57472 0.71245 0.0
C208 C 0.40314 0.33262 0.85443 0.0
O209 O 0.42401 0.3475 0.86716 0.0
O210 O 0.45909 0.34972 0.81052 0.0
Zn211 Zn 0.42773 0.32282 0.79479 0.0
O212 O 0.42681 0.29219 0.80327 0.0
C213 C 0.43805 0.33199 0.71653 0.0
O214 O 0.45937 0.33845 0.72758 0.0
O215 O 0.40123 0.32143 0.82469 0.0
C216 C 0.44298 0.28806 0.79422 0.0
O217 O 0.46191 0.30451 0.7781 0.0
C218 C 0.46973 0.34733 0.83809 0.0
O219 O 0.45973 0.32756 0.85658 0.0
O220 O 0.42183 0.32515 0.7405 0.0
C221 C 0.65992 0.07286 0.85645 0.0
O222 O 0.64055 0.0733 0.86256 0.0
O223 O 0.64482 0.11459 0.81881 0.0
Zn224 Zn 0.67152 0.11039 0.80176 0.0
O225 O 0.70217 0.14043 0.80692 0.0
C226 C 0.66343 0.11257 0.72442 0.0
O227 O 0.66187 0.13066 0.7356 0.0
O228 O 0.67431 0.08645 0.8323 0.0
C229 C 0.70505 0.16092 0.8053 0.0
O230 O 0.68696 0.16368 0.79951 0.0
C231 C 0.64583 0.12504 0.84896 0.0
O232 O 0.6645 0.13278 0.86996 0.0
O233 O 0.66717 0.10066 0.74824 0.0
C234 C 0.41775 0.10228 0.3424 0.0
O235 O 0.43004 0.12346 0.35607 0.0
O236 O 0.47914 0.11673 0.29501 0.0
Zn237 Zn 0.45171 0.12087 0.28252 0.0
O238 O 0.45838 0.15381 0.29189 0.0
C239 C 0.43896 0.0941 0.21458 0.0
O240 O 0.43696 0.07737 0.23665 0.0
O241 O 0.42376 0.09747 0.31163 0.0
C242 C 0.47016 0.16934 0.26777 0.0
O243 O 0.47822 0.16357 0.23873 0.0
C244 C 0.49932 0.13271 0.305 0.0
O245 O 0.50347 0.15423 0.30864 0.0
O246 O 0.4448 0.11401 0.22823 0.0
C247 C 0.9189 0.33951 0.36975 0.0
O248 O 0.898 0.3323 0.38359 0.0
O249 O 0.89058 0.37122 0.31969 0.0
Zn250 Zn 0.89633 0.34481 0.30659 0.0
O251 O 0.86789 0.314 0.31922 0.0
C252 C 0.89614 0.35275 0.22696 0.0
O253 O 0.88323 0.362 0.23584 0.0
O254 O 0.92306 0.34695 0.33654 0.0
C255 C 0.85054 0.3022 0.29801 0.0
O256 O 0.85041 0.30996 0.2645 0.0
C257 C 0.87514 0.368 0.34371 0.0
O258 O 0.86326 0.34749 0.35972 0.0
O259 O 0.90364 0.34492 0.25244 0.0
C260 C 0.67799 0.60645 0.33123 0.0
O261 O 0.65541 0.59239 0.32721 0.0
O262 O 0.65144 0.54651 0.3084 0.0
Zn263 Zn 0.68127 0.57201 0.28592 0.0
O264 O 0.70689 0.56385 0.28723 0.0
C265 C 0.66135 0.56343 0.21155 0.0
O266 O 0.64821 0.54196 0.22361 0.0
O267 O 0.69212 0.60124 0.31597 0.0
C268 C 0.71083 0.55359 0.2607 0.0
O269 O 0.69723 0.54709 0.23137 0.0
C270 C 0.6449 0.52487 0.30753 0.0
O271 O 0.65803 0.51794 0.2908 0.0
O272 O 0.67619 0.57883 0.23331 0.0
C273 C 0.42942 0.08107 0.79735 0.0
O274 O 0.43829 0.1026 0.78524 0.0
O275 O 0.44435 0.13046 0.8558 0.0
Zn276 Zn 0.45101 0.10434 0.86606 0.0
O277 O 0.48514 0.11455 0.86039 0.0
C278 C 0.44105 0.10637 0.94353 0.0
O279 O 0.44583 0.12754 0.93436 0.0
O280 O 0.43251 0.07761 0.83105 0.0
C281 C 0.50016 0.1282 0.88381 0.0
O282 O 0.49344 0.13688 0.91079 0.0
C283 C 0.45826 0.14963 0.8399 0.0
O284 O 0.47868 0.15331 0.82837 0.0
O285 O 0.44168 0.09304 0.91868 0.0
C286 C 0.92738 0.35604 0.83171 0.0
O287 O 0.91259 0.35694 0.80833 0.0
O288 O 0.86583 0.31602 0.86798 0.0
Zn289 Zn 0.89127 0.34774 0.88406 0.0
O290 O 0.88677 0.37319 0.86187 0.0
C291 C 0.90155 0.33875 0.95616 0.0
O292 O 0.90916 0.32732 0.93609 0.0
O293 O 0.92194 0.3522 0.86581 0.0
C294 C 0.88077 0.3858 0.88013 0.0
O295 O 0.87643 0.38199 0.91581 0.0
C296 C 0.84485 0.31108 0.8626 0.0
O297 O 0.83919 0.32733 0.86741 0.0
O298 O 0.89246 0.34932 0.93984 0.0
C299 C 0.62841 0.55941 0.81502 0.0
O300 O 0.61923 0.53812 0.80165 0.0
O301 O 0.67699 0.54603 0.86337 0.0
Zn302 Zn 0.64501 0.54126 0.87383 0.0
O303 O 0.61959 0.50829 0.86311 0.0
C304 C 0.65509 0.56814 0.94059 0.0
O305 O 0.66672 0.58545 0.91728 0.0
O306 O 0.6401 0.5645 0.84495 0.0
C307 C 0.61838 0.49186 0.88305 0.0
O308 O 0.63433 0.49686 0.90869 0.0
C309 C 0.68213 0.53552 0.83885 0.0
O310 O 0.6656 0.51999 0.81734 0.0
O311 O 0.64396 0.54739 0.92817 0.0
C312 C 0.58878 0.8862 0.68043 0.0
O313 O 0.59252 0.87111 0.6985 0.0
O314 O 0.51363 0.86095 0.70629 0.0
Zn315 Zn 0.54433 0.86308 0.71898 0.0
O316 O 0.54058 0.83101 0.71445 0.0
C317 C 0.56143 0.86732 0.79506 0.0
O318 O 0.5667 0.85141 0.78499 0.0
O319 O 0.56953 0.8858 0.68486 0.0
C320 C 0.5249 0.81461 0.73386 0.0
O321 O 0.51197 0.81926 0.75606 0.0
C322 C 0.51151 0.87364 0.68186 0.0
O323 O 0.53 0.8888 0.66321 0.0
O324 O 0.55228 0.87471 0.77158 0.0
C325 C 0.0915 0.68177 0.65055 0.0
O326 O 0.11076 0.68648 0.63289 0.0
O327 O 0.11157 0.63947 0.67825 0.0
Zn328 Zn 0.11274 0.66707 0.70396 0.0
O329 O 0.14363 0.69624 0.69563 0.0
C330 C 0.09249 0.64226 0.77272 0.0
O331 O 0.07899 0.62497 0.75046 0.0
O332 O 0.08784 0.6726 0.68261 0.0
C333 C 0.1461 0.71487 0.71014 0.0
O334 O 0.12894 0.71379 0.73008 0.0
C335 C 0.12093 0.62836 0.69177 0.0
O336 O 0.13229 0.63533 0.72337 0.0
O337 O 0.10788 0.66156 0.75891 0.0
C338 C 0.2966 0.39058 0.64609 0.0
O339 O 0.28306 0.39981 0.64403 0.0
O340 O 0.34316 0.45255 0.69258 0.0
Zn341 Zn 0.31605 0.42176 0.709 0.0
O342 O 0.2874 0.42519 0.71097 0.0
C343 C 0.33434 0.42796 0.78382 0.0
O344 O 0.34564 0.45009 0.77417 0.0
O345 O 0.31174 0.39708 0.67182 0.0
C346 C 0.28812 0.44171 0.73007 0.0
O347 O 0.30732 0.45575 0.74829 0.0
C348 C 0.33993 0.4626 0.66501 0.0
O349 O 0.31944 0.45245 0.6486 0.0
O350 O 0.32131 0.41272 0.76015 0.0
C351 C 0.60898 0.93348 0.17696 0.0
O352 O 0.61213 0.91547 0.18059 0.0
O353 O 0.56753 0.87389 0.16325 0.0
Zn354 Zn 0.56498 0.9004 0.14072 0.0
O355 O 0.53455 0.89821 0.15576 0.0
C356 C 0.57383 0.88973 0.06499 0.0
O357 O 0.58064 0.87627 0.08095 0.0
O358 O 0.59075 0.93088 0.16072 0.0
C359 C 0.51626 0.88838 0.13578 0.0
O360 O 0.5167 0.87841 0.10447 0.0
C361 C 0.55395 0.85241 0.156 0.0
O362 O 0.53701 0.84646 0.13184 0.0
O363 O 0.56697 0.90101 0.08491 0.0
C364 C 0.07019 0.63843 0.18127 0.0
O365 O 0.08196 0.63065 0.20001 0.0
O366 O 0.13307 0.67543 0.13141 0.0
Zn367 Zn 0.10332 0.64474 0.12373 0.0
O368 O 0.10706 0.61874 0.14604 0.0
C369 C 0.10413 0.65404 0.04447 0.0
O370 O 0.11776 0.67592 0.05431 0.0
O371 O 0.07638 0.6457 0.14827 0.0
C372 C 0.11227 0.60599 0.12643 0.0
O373 O 0.11533 0.60974 0.09052 0.0
C374 C 0.15247 0.67787 0.1206 0.0
O375 O 0.15275 0.66026 0.10419 0.0
O376 O 0.09608 0.63825 0.06924 0.0
C377 C 0.37203 0.42498 0.1782 0.0
O378 O 0.3824 0.4466 0.19041 0.0
O379 O 0.32659 0.44482 0.14453 0.0
Zn380 Zn 0.354 0.44347 0.12258 0.0
O381 O 0.38219 0.47566 0.12685 0.0
C382 C 0.34065 0.41537 0.05441 0.0
O383 O 0.33454 0.39751 0.0767 0.0
O384 O 0.35908 0.41962 0.14961 0.0
C385 C 0.38209 0.49161 0.10729 0.0
O386 O 0.36422 0.48614 0.0853 0.0
C387 C 0.33004 0.45707 0.17358 0.0
O388 O 0.35093 0.46762 0.18863 0.0
O389 O 0.34873 0.4357 0.06809 0.0
C390 C 0.07775 0.40879 0.70919 0.0
O391 O 0.09765 0.41155 0.7216 0.0
O392 O 0.13389 0.43701 0.66505 0.0
Zn393 Zn 0.10516 0.43669 0.6457 0.0
O394 O 0.11067 0.46957 0.64506 0.0
C395 C 0.11466 0.43163 0.57008 0.0
O396 O 0.13562 0.44814 0.58003 0.0
O397 O 0.07718 0.4175 0.67804 0.0
C398 C 0.10102 0.47613 0.62112 0.0
O399 O 0.08756 0.46128 0.59561 0.0
C400 C 0.14641 0.45157 0.68988 0.0
O401 O 0.14003 0.46598 0.70346 0.0
O402 O 0.09838 0.42354 0.594 0.0
C403 C 0.56932 0.6471 0.67755 0.0
O404 O 0.57298 0.66844 0.68143 0.0
O405 O 0.53144 0.66864 0.64966 0.0
Zn406 Zn 0.53153 0.64058 0.62802 0.0
O407 O 0.49924 0.61277 0.63192 0.0
C408 C 0.55812 0.64711 0.55965 0.0
O409 O 0.573 0.64497 0.58111 0.0
O410 O 0.55314 0.63294 0.65615 0.0
C411 C 0.48287 0.61083 0.61109 0.0
O412 O 0.48723 0.62739 0.58688 0.0
C413 C 0.51912 0.66625 0.67818 0.0
O414 O 0.50713 0.64553 0.69353 0.0
O415 O 0.54004 0.64609 0.57389 0.0
C416 C 0.35175 0.93105 0.66544 0.0
O417 O 0.34928 0.9144 0.68812 0.0
O418 O 0.30332 0.87149 0.63664 0.0
Zn419 Zn 0.33457 0.89324 0.61409 0.0
O420 O 0.35719 0.88306 0.6301 0.0
C421 C 0.31697 0.89562 0.54259 0.0
O422 O 0.30371 0.90086 0.56289 0.0
O423 O 0.34619 0.92612 0.63153 0.0
C424 C 0.37778 0.89276 0.61705 0.0
O425 O 0.38417 0.90956 0.59248 0.0
C426 C 0.29399 0.84985 0.62932 0.0
O427 O 0.30499 0.84275 0.60717 0.0
O428 O 0.33179 0.8917 0.55856 0.0
C429 C 0.09738 0.40745 0.18675 0.0
O430 O 0.09094 0.42296 0.19327 0.0
O431 O 0.13339 0.46507 0.22521 0.0
Zn432 Zn 0.13759 0.43729 0.23349 0.0
O433 O 0.17061 0.44531 0.22266 0.0
C434 C 0.11078 0.41445 0.29999 0.0
O435 O 0.09309 0.40414 0.27693 0.0
O436 O 0.11615 0.41017 0.20108 0.0
C437 C 0.1871 0.45834 0.24456 0.0
O438 O 0.18243 0.46732 0.27364 0.0
C439 C 0.13622 0.4754 0.19431 0.0
O440 O 0.14241 0.4679 0.16505 0.0
O441 O 0.13097 0.42857 0.28736 0.0
C442 C 0.60527 0.69037 0.18516 0.0
O443 O 0.61012 0.70115 0.21733 0.0
O444 O 0.52847 0.64284 0.19441 0.0
Zn445 Zn 0.55818 0.67082 0.21183 0.0
O446 O 0.55498 0.69966 0.21038 0.0
C447 C 0.55126 0.66267 0.28956 0.0
O448 O 0.53213 0.6631 0.28119 0.0
O449 O 0.58412 0.67599 0.17708 0.0
C450 C 0.56673 0.71666 0.2323 0.0
O451 O 0.58043 0.71496 0.25695 0.0
C452 C 0.51798 0.64455 0.16607 0.0
O453 O 0.52666 0.66478 0.14906 0.0
O454 O 0.56551 0.66535 0.2638 0.0
C455 C 0.33006 0.91615 0.14175 0.0
O456 O 0.35176 0.9206 0.14017 0.0
O457 O 0.35627 0.88697 0.18995 0.0
Zn458 Zn 0.32248 0.87857 0.19344 0.0
O459 O 0.30169 0.84522 0.17749 0.0
C460 C 0.32485 0.87758 0.27322 0.0
O461 O 0.33958 0.87022 0.26598 0.0
O462 O 0.31542 0.89946 0.16193 0.0
C463 C 0.2797 0.83568 0.18153 0.0
O464 O 0.27098 0.84784 0.19632 0.0
C465 C 0.36357 0.87823 0.16557 0.0
O466 O 0.3489 0.86395 0.1406 0.0
O467 O 0.31523 0.8821 0.24646 0.0
H468 H 0.35768 0.30177 0.83641 0.0
H469 H 0.40076 0.34999 0.92262 0.0
H470 H 0.36577 0.33685 0.96201 0.0
H471 H 0.30486 0.30676 0.85332 0.0
H472 H 0.28562 0.27619 0.84384 0.0
H473 H 0.31348 0.29175 0.82075 0.0
H474 H 0.32415 0.2613 0.84482 0.0
H475 H 0.29646 0.24574 0.86808 0.0
H476 H 0.32311 0.25573 0.89397 0.0
H477 H 0.32677 0.31488 0.99477 0.0
H478 H 0.28723 0.28648 0.01747 0.0
H479 H 0.27008 0.25316 0.90925 0.0
C480 C 0.35975 0.30997 0.86324 0.0
C481 C 0.38199 0.32693 0.87639 0.0
C482 C 0.3839 0.33702 0.91186 0.0
C483 C 0.36411 0.3297 0.93442 0.0
C484 C 0.34252 0.31245 0.92096 0.0
C485 C 0.34023 0.3029 0.88601 0.0
C486 C 0.31551 0.28344 0.87899 0.0
C487 C 0.3042 0.28993 0.84735 0.0
C488 C 0.31478 0.26019 0.87101 0.0
C489 C 0.30441 0.28288 0.91596 0.0
C490 C 0.32014 0.29992 0.93969 0.0
C491 C 0.31421 0.30171 0.97622 0.0
C492 C 0.29173 0.28547 0.98889 0.0
C493 C 0.27552 0.26764 0.96512 0.0
C494 C 0.28194 0.26671 0.92803 0.0
H495 H 0.69824 0.0677 0.84924 0.0
H496 H 0.63598 0.04533 0.91612 0.0
H497 H 0.64868 0.02404 0.95773 0.0
H498 H 0.70186 0.01396 0.85992 0.0
H499 H 0.7333 0.03019 0.86199 0.0
H500 H 0.71785 0.04121 0.83525 0.0
H501 H 0.73861 0.08007 0.87215 0.0
H502 H 0.75404 0.06917 0.89901 0.0
H503 H 0.7366 0.07936 0.92209 0.0
H504 H 0.67044 0.00886 0.99567 0.0
H505 H 0.69913 0.00078 0.02625 0.0
H506 H 0.74669 0.03292 0.93369 0.0
C507 C 0.68701 0.05798 0.87222 0.0
C508 C 0.66609 0.05817 0.8794 0.0
C509 C 0.65203 0.04537 0.90997 0.0
C510 C 0.65909 0.0332 0.93373 0.0
C511 C 0.6801 0.03382 0.92626 0.0
C512 C 0.69374 0.04575 0.89605 0.0
C513 C 0.71628 0.04509 0.89539 0.0
C514 C 0.71737 0.03181 0.8611 0.0
C515 C 0.73763 0.06989 0.89729 0.0
C516 C 0.71358 0.03156 0.93063 0.0
C517 C 0.69251 0.02498 0.9479 0.0
C518 C 0.68684 0.01362 0.9821 0.0
C519 C 0.70326 0.00915 -0.0007 0.0
C520 C 0.72512 0.01613 0.98229 0.0
C521 C 0.73005 0.02709 0.94722 0.0
H522 H 0.96691 0.69812 0.98151 0.0
H523 H 0.01711 0.74329 0.8991 0.0
H524 H 0.00254 0.71002 0.85557 0.0
H525 H 0.96786 0.64402 0.95706 0.0
H526 H 0.93691 0.62595 0.9649 0.0
H527 H 0.95352 0.65245 0.99122 0.0
H528 H 0.92545 0.66685 0.9697 0.0
H529 H 0.90886 0.64052 0.94322 0.0
H530 H 0.92083 0.66855 0.92074 0.0
H531 H 0.9798 0.67289 0.81894 0.0
H532 H 0.95049 0.6351 0.79195 0.0
H533 H 0.91489 0.61456 0.89823 0.0
C534 C 0.97526 0.70092 0.95466 0.0
C535 C 0.99325 0.72329 0.94378 0.0
C536 C 0.00336 0.72629 0.90809 0.0
C537 C 0.99525 0.70748 0.88321 0.0
C538 C 0.97707 0.68578 0.8945 0.0
C539 C 0.96728 0.6824 0.92946 0.0
C540 C 0.94665 0.65795 0.93372 0.0
C541 C 0.95154 0.64429 0.96349 0.0
C542 C 0.92413 0.65852 0.94234 0.0
C543 C 0.94591 0.64831 0.89533 0.0
C544 C 0.96379 0.66449 0.87326 0.0
C545 C 0.96591 0.65997 0.8361 0.0
C546 C 0.94915 0.63847 0.82101 0.0
C547 C 0.9304 0.62183 0.84298 0.0
C548 C 0.92908 0.62679 0.88075 0.0
H549 H 0.26243 0.36878 0.5936 0.0
H550 H 0.32511 0.37183 0.63723 0.0
H551 H 0.32042 0.34139 0.59261 0.0
H552 H 0.23016 0.30771 0.58269 0.0
H553 H 0.21584 0.30842 0.54055 0.0
H554 H 0.22529 0.33178 0.57372 0.0
H555 H 0.24941 0.36179 0.52251 0.0
H556 H 0.24009 0.33847 0.48917 0.0
H557 H 0.27079 0.35829 0.49657 0.0
H558 H 0.30771 0.30916 0.54545 0.0
H559 H 0.28693 0.27634 0.50169 0.0
H560 H 0.23245 0.29432 0.4895 0.0
C561 C 0.27534 0.36326 0.59352 0.0
C562 C 0.29418 0.37275 0.61883 0.0
C563 C 0.31052 0.36482 0.61809 0.0
C564 C 0.30808 0.34762 0.59274 0.0
C565 C 0.28922 0.33855 0.5683 0.0
C566 C 0.2731 0.34606 0.56856 0.0
C567 C 0.25365 0.33255 0.54098 0.0
C568 C 0.22984 0.31933 0.56067 0.0
C569 C 0.25349 0.34875 0.5105 0.0
C570 C 0.26108 0.31594 0.52567 0.0
C571 C 0.28178 0.31986 0.54143 0.0
C572 C 0.29158 0.30605 0.53271 0.0
C573 C 0.27965 0.28745 0.50778 0.0
C574 C 0.25807 0.28275 0.4921 0.0
C575 C 0.24898 0.29753 0.50075 0.0
H576 H 0.63057 0.88989 0.66038 0.0
H577 H 0.58745 0.92154 0.64294 0.0
H578 H 0.61706 0.95013 0.60012 0.0
H579 H 0.68646 0.94349 0.65787 0.0
H580 H 0.70085 0.93038 0.63353 0.0
H581 H 0.67661 0.91286 0.66382 0.0
H582 H 0.65509 0.88411 0.60979 0.0
H583 H 0.67927 0.90151 0.57938 0.0
H584 H 0.65026 0.89511 0.5669 0.0
H585 H 0.65097 0.97477 0.55814 0.0
H586 H 0.68638 0.99311 0.51901 0.0
H587 H 0.70713 0.94517 0.56367 0.0
C588 C 0.62739 0.9029 0.64774 0.0
C589 C 0.6067 0.90349 0.6551 0.0
C590 C 0.60317 0.92073 0.63776 0.0
C591 C 0.6199 0.93709 0.61344 0.0
C592 C 0.64007 0.93598 0.60673 0.0
C593 C 0.64387 0.91932 0.62332 0.0
C594 C 0.66672 0.92152 0.61064 0.0
C595 C 0.68366 0.92742 0.64342 0.0
C596 C 0.66258 0.89924 0.59047 0.0
C597 C 0.67508 0.94191 0.58411 0.0
C598 C 0.65953 0.95008 0.58239 0.0
C599 C 0.66333 0.96858 0.55933 0.0
C600 C 0.68349 0.97888 0.53722 0.0
C601 C 0.69954 0.9706 0.53826 0.0
C602 C 0.69526 0.95197 0.56228 0.0
H603 H 0.0519 0.74766 0.50894 0.0
H604 H 0.98895 0.72356 0.57479 0.0
H605 H 0.00139 0.70157 0.61518 0.0
H606 H 0.05453 0.69402 0.5144 0.0
H607 H 0.08595 0.70934 0.51738 0.0
H608 H 0.07146 0.72221 0.49271 0.0
H609 H 0.09263 0.75927 0.53379 0.0
H610 H 0.10713 0.74652 0.5586 0.0
H611 H 0.09006 0.75641 0.58358 0.0
H612 H 0.02187 0.68397 0.65041 0.0
H613 H 0.04847 0.67159 0.67694 0.0
H614 H 0.09752 0.70693 0.5872 0.0
C615 C 0.0406 0.73761 0.53164 0.0
C616 C 0.01945 0.73733 0.53869 0.0
C617 C 0.00522 0.72401 0.5688 0.0
C618 C 0.01213 0.71145 0.59189 0.0
C619 C 0.03321 0.7123 0.58436 0.0
C620 C 0.04717 0.72495 0.55485 0.0
C621 C 0.0693 0.72354 0.55326 0.0
C622 C 0.07036 0.71156 0.5173 0.0
C623 C 0.09106 0.74788 0.55758 0.0
C624 C 0.06578 0.70839 0.58682 0.0
C625 C 0.04485 0.70202 0.60436 0.0
C626 C 0.03821 0.68868 0.63673 0.0
C627 C 0.05345 0.68177 0.65161 0.0
C628 C 0.07502 0.6882 0.63406 0.0
C629 C 0.08107 0.70154 0.60111 0.0
H630 H 0.65124 0.72449 0.19012 0.0
H631 H 0.6014 0.66988 0.11739 0.0
H632 H 0.63196 0.68166 0.06948 0.0
H633 H 0.67883 0.7671 0.12102 0.0
H634 H 0.70771 0.77939 0.14049 0.0
H635 H 0.68254 0.7654 0.17028 0.0
H636 H 0.69647 0.73756 0.19497 0.0
H637 H 0.72178 0.75155 0.16534 0.0
H638 H 0.70248 0.72041 0.16261 0.0
H639 H 0.66717 0.70108 0.028 0.0
H640 H 0.70456 0.7265 0.99618 0.0
H641 H 0.73123 0.76839 0.09614 0.0
C642 C 0.64681 0.71474 0.16436 0.0
C643 C 0.62394 0.69621 0.15755 0.0
C644 C 0.61882 0.68412 0.12327 0.0
C645 C 0.63606 0.69065 0.0959 0.0
C646 C 0.65833 0.70925 0.1033 0.0
C647 C 0.66377 0.72107 0.13674 0.0
C648 C 0.68869 0.74117 0.13706 0.0
C649 C 0.68947 0.76465 0.14252 0.0
C650 C 0.70321 0.73744 0.16676 0.0
C651 C 0.6963 0.73906 0.09834 0.0
C652 C 0.6786 0.72046 0.07938 0.0
C653 C 0.68124 0.71556 0.04267 0.0
C654 C 0.70253 0.73014 0.02482 0.0
C655 C 0.72085 0.7494 0.04369 0.0
C656 C 0.71765 0.75372 0.08102 0.0
H657 H 0.28726 0.91323 0.1431 0.0
H658 H 0.35568 0.95094 0.09151 0.0
H659 H 0.34248 0.97369 0.0545 0.0
H660 H 0.25424 0.90831 0.06305 0.0
H661 H 0.23267 0.91225 0.08752 0.0
H662 H 0.24796 0.89989 0.11112 0.0
H663 H 0.2614 0.93197 0.1617 0.0
H664 H 0.24619 0.94447 0.13818 0.0
H665 H 0.27689 0.96229 0.14824 0.0
H666 H 0.32095 0.99067 0.02056 0.0
H667 H 0.29291 0.00067 0.99267 0.0
H668 H 0.23905 0.95235 0.06781 0.0
C669 C 0.29956 0.92636 0.12421 0.0
C670 C 0.32252 0.93029 0.12019 0.0
C671 C 0.33802 0.94764 0.0951 0.0
C672 C 0.33069 0.96067 0.07401 0.0
C673 C 0.30789 0.95625 0.07854 0.0
C674 C 0.2926 0.93957 0.10314 0.0
C675 C 0.26884 0.93771 0.10217 0.0
C676 C 0.24981 0.91308 0.09024 0.0
C677 C 0.263 0.94452 0.13981 0.0
C678 C 0.273 0.95567 0.07268 0.0
C679 C 0.29564 0.96625 0.05947 0.0
C680 C 0.30324 0.98267 0.03096 0.0
C681 C 0.28719 0.98822 0.01527 0.0
C682 C 0.26383 0.9774 0.0282 0.0
C683 C 0.25684 0.96116 0.05763 0.0
H684 H 0.10483 0.37114 0.17129 0.0
H685 H 0.05787 0.39761 0.14765 0.0
H686 H 0.03479 0.36384 0.10642 0.0
H687 H 0.10536 0.35038 0.08029 0.0
H688 H 0.10609 0.32488 0.09613 0.0
H689 H 0.1185 0.35083 0.12436 0.0
H690 H 0.09207 0.32688 0.17936 0.0
H691 H 0.07959 0.30084 0.15131 0.0
H692 H 0.06088 0.31002 0.17286 0.0
H693 H 0.01753 0.32764 0.06642 0.0
H694 H 0.00703 0.29153 0.03153 0.0
H695 H 0.06522 0.28885 0.08228 0.0
C696 C 0.08966 0.36985 0.15757 0.0
C697 C 0.08316 0.38704 0.16268 0.0
C698 C 0.06317 0.38464 0.14419 0.0
C699 C 0.04996 0.36553 0.12072 0.0
C700 C 0.05694 0.34897 0.11619 0.0
C701 C 0.07627 0.35091 0.13421 0.0
C702 C 0.08022 0.33088 0.12447 0.0
C703 C 0.10395 0.33978 0.10516 0.0
C704 C 0.07805 0.3163 0.15906 0.0
C705 C 0.06017 0.31741 0.0979 0.0
C706 C 0.04692 0.32811 0.09348 0.0
C707 C 0.02771 0.31906 0.06979 0.0
C708 C 0.02192 0.29856 0.05006 0.0
C709 C 0.03527 0.28733 0.05422 0.0
C710 C 0.05459 0.29693 0.07859 0.0
H711 H 0.72358 0.64045 0.3409 0.0
H712 H 0.65283 0.62079 0.37329 0.0
H713 H 0.66825 0.65592 0.41304 0.0
H714 H 0.74984 0.66135 0.42863 0.0
H715 H 0.77647 0.68508 0.41004 0.0
H716 H 0.75972 0.65898 0.38304 0.0
H717 H 0.75743 0.68369 0.32908 0.0
H718 H 0.77421 0.70991 0.35591 0.0
H719 H 0.74606 0.703 0.33779 0.0
H720 H 0.69177 0.69232 0.4517 0.0
H721 H 0.7214 0.7274 0.48507 0.0
H722 H 0.77639 0.72312 0.42598 0.0
C723 C 0.71127 0.64356 0.35615 0.0
C724 C 0.68699 0.62785 0.35402 0.0
C725 C 0.67151 0.6326 0.37445 0.0
C726 C 0.6801 0.6525 0.39709 0.0
C727 C 0.70417 0.66752 0.39877 0.0
C728 C 0.71951 0.66332 0.37867 0.0
C729 C 0.7446 0.68187 0.38576 0.0
C730 C 0.75846 0.67118 0.4029 0.0
C731 C 0.75626 0.69542 0.35001 0.0
C732 C 0.74104 0.69703 0.41339 0.0
C733 C 0.71762 0.68852 0.42054 0.0
C734 C 0.71016 0.69924 0.4461 0.0
C735 C 0.72711 0.71912 0.46495 0.0
C736 C 0.75121 0.72805 0.45804 0.0
C737 C 0.75813 0.71687 0.43169 0.0
H738 H 0.31293 0.05507 0.48718 0.0
H739 H 0.28446 0.98707 0.43469 0.0
H740 H 0.31956 0.00228 0.39507 0.0
H741 H 0.33587 0.08832 0.40708 0.0
H742 H 0.36174 0.11129 0.42887 0.0
H743 H 0.33562 0.09449 0.45577 0.0
H744 H 0.35849 0.08342 0.50211 0.0
H745 H 0.38477 0.10035 0.47548 0.0
H746 H 0.37465 0.07001 0.48507 0.0
H747 H 0.35596 0.02589 0.35726 0.0
H748 H 0.39164 0.05571 0.32569 0.0
H749 H 0.39636 0.10812 0.40342 0.0
C750 C 0.31422 0.04321 0.46785 0.0
C751 C 0.29593 0.01985 0.46408 0.0
C752 C 0.29827 0.00501 0.43818 0.0
C753 C 0.31814 0.01349 0.41554 0.0
C754 C 0.33558 0.03677 0.41937 0.0
C755 C 0.33391 0.05136 0.44512 0.0
C756 C 0.35449 0.07596 0.44248 0.0
C757 C 0.34644 0.09354 0.43297 0.0
C758 C 0.36896 0.08283 0.47842 0.0
C759 C 0.36773 0.07309 0.41057 0.0
C760 C 0.35662 0.05033 0.39777 0.0
C761 C 0.36497 0.0437 0.36734 0.0
C762 C 0.3852 0.06079 0.34952 0.0
C763 C 0.39685 0.08425 0.36216 0.0
C764 C 0.38801 0.09033 0.39329 0.0
H765 H 0.91106 0.31391 0.43276 0.0
H766 H 0.96525 0.35629 0.35342 0.0
H767 H 0.9924 0.34648 0.38535 0.0
H768 H 0.94917 0.32565 0.51451 0.0
H769 H 0.932 0.296 0.53078 0.0
H770 H 0.91828 0.30926 0.50501 0.0
H771 H 0.90234 0.27511 0.45776 0.0
H772 H 0.9161 0.26185 0.48317 0.0
H773 H 0.92244 0.26838 0.43456 0.0
H774 H 0.01249 0.32908 0.42334 0.0
H775 H 0.02284 0.30449 0.46181 0.0
H776 H 0.95449 0.2727 0.51365 0.0
C777 C 0.9288 0.32164 0.42259 0.0
C778 C 0.93611 0.33602 0.3908 0.0
C779 C 0.95933 0.34532 0.37789 0.0
C780 C 0.97488 0.3399 0.3959 0.0
C781 C 0.96689 0.32516 0.4267 0.0
C782 C 0.94437 0.3162 0.43989 0.0
C783 C 0.9392 0.29903 0.47111 0.0
C784 C 0.93439 0.30803 0.50751 0.0
C785 C 0.91883 0.27466 0.46102 0.0
C786 C 0.96211 0.29919 0.47282 0.0
C787 C 0.97807 0.31465 0.44755 0.0
C788 C 0.00017 0.31706 0.44342 0.0
C789 C 0.0059 0.30305 0.46536 0.0
C790 C 0.98943 0.28663 0.49056 0.0
C791 C 0.96744 0.28503 0.49455 0.0
H792 H 0.04848 0.61772 0.24653 0.0
H793 H 0.04401 0.65639 0.15255 0.0
H794 H 0.00757 0.65254 0.17813 0.0
H795 H 0.98872 0.57661 0.25115 0.0
H796 H 0.98757 0.57479 0.30109 0.0
H797 H 0.01438 0.58254 0.27722 0.0
H798 H 0.03586 0.62063 0.31592 0.0
H799 H 0.00907 0.61296 0.33998 0.0
H800 H 0.02483 0.64065 0.31646 0.0
H801 H 0.97019 0.64221 0.21212 0.0
H802 H 0.93462 0.62553 0.25096 0.0
H803 H 0.96372 0.59342 0.32204 0.0
C804 C 0.04007 0.62571 0.23157 0.0
C805 C 0.04916 0.63744 0.1976 0.0
C806 C 0.0374 0.64735 0.17867 0.0
C807 C 0.01672 0.64532 0.19303 0.0
C808 C 0.00807 0.63335 0.22636 0.0
C809 C 0.0194 0.62375 0.24539 0.0
C810 C 0.0058 0.61057 0.27944 0.0
C811 C 0.9987 0.58459 0.27705 0.0
C812 C 0.01972 0.62189 0.31505 0.0
C813 C 0.98481 0.61386 0.27623 0.0
C814 C 0.98652 0.62725 0.24567 0.0
C815 C 0.96876 0.63187 0.23631 0.0
C816 C 0.94862 0.62232 0.25853 0.0
C817 C 0.94636 0.60818 0.28958 0.0
C818 C 0.96491 0.60424 0.29865 0.0
H819 H 0.43 0.37887 0.32444 0.0
H820 H 0.39226 0.31091 0.27135 0.0
H821 H 0.37315 0.32597 0.22954 0.0
H822 H 0.38337 0.39304 0.31938 0.0
H823 H 0.40331 0.4235 0.31015 0.0
H824 H 0.41275 0.40684 0.33727 0.0
H825 H 0.44731 0.41848 0.29197 0.0
H826 H 0.43793 0.43507 0.26463 0.0
H827 H 0.44152 0.41244 0.24312 0.0
H828 H 0.35979 0.34923 0.19135 0.0
H829 H 0.35287 0.37859 0.16042 0.0
H830 H 0.39963 0.43116 0.23876 0.0
C831 C 0.4175 0.36702 0.30436 0.0
C832 C 0.41259 0.34367 0.30124 0.0
C833 C 0.39626 0.32884 0.27434 0.0
C834 C 0.38532 0.33724 0.25047 0.0
C835 C 0.39085 0.36046 0.25396 0.0
C836 C 0.40649 0.37509 0.28036 0.0
C837 C 0.4101 0.39953 0.27761 0.0
C838 C 0.40188 0.40611 0.31322 0.0
C839 C 0.43573 0.41743 0.2688 0.0
C840 C 0.39429 0.39648 0.24517 0.0
C841 C 0.38324 0.37381 0.23201 0.0
C842 C 0.36823 0.36699 0.20159 0.0
C843 C 0.36444 0.38381 0.18417 0.0
C844 C 0.37568 0.40718 0.19717 0.0
C845 C 0.39069 0.41345 0.2282 0.0
H846 H 0.60885 0.97454 0.17024 0.0
H847 H 0.64516 0.94333 0.22482 0.0
H848 H 0.66836 0.97969 0.26073 0.0
H849 H 0.6594 0.03545 0.16726 0.0
H850 H 0.64075 0.04759 0.17589 0.0
H851 H 0.62967 0.02049 0.15081 0.0
H852 H 0.59568 0.00036 0.198 0.0
H853 H 0.60669 0.02726 0.2233 0.0
H854 H 0.60223 0.00126 0.24675 0.0
H855 H 0.68323 0.01717 0.29706 0.0
H856 H 0.68946 0.05303 0.32884 0.0
H857 H 0.64411 0.05972 0.2488 0.0
C858 C 0.62205 0.97549 0.1891 0.0
C859 C 0.62514 0.95608 0.1948 0.0
C860 C 0.64252 0.95801 0.21991 0.0
C861 C 0.65582 0.97861 0.24038 0.0
C862 C 0.65179 0.99718 0.23491 0.0
C863 C 0.63553 0.99589 0.20947 0.0
C864 C 0.63314 0.01746 0.21069 0.0
C865 C 0.64123 0.03106 0.17398 0.0
C866 C 0.60795 0.0112 0.22027 0.0
C867 C 0.64982 0.03069 0.24193 0.0
C868 C 0.66064 0.01888 0.25533 0.0
C869 C 0.67523 0.0268 0.2863 0.0
C870 C 0.6786 0.04712 0.30424 0.0
C871 C 0.6674 0.05925 0.29113 0.0
C872 C 0.65325 0.0511 0.25913 0.0
H873 H 0.36661 0.94743 0.73584 0.0
H874 H 0.35959 0.96964 0.62551 0.0
H875 H 0.37754 0.01038 0.64772 0.0
H876 H 0.35418 0.98732 0.78702 0.0
H877 H 0.37523 0.99232 0.82282 0.0
H878 H 0.36097 0.96483 0.7985 0.0
H879 H 0.4013 0.9702 0.78026 0.0
H880 H 0.41567 0.99771 0.80445 0.0
H881 H 0.42205 0.99634 0.75617 0.0
H882 H 0.39769 0.04895 0.68152 0.0
H883 H 0.41819 0.08231 0.72445 0.0
H884 H 0.41174 0.03458 0.81249 0.0
C885 C 0.36866 0.9608 0.71636 0.0
C886 C 0.36167 0.95533 0.67893 0.0
C887 C 0.36479 0.9734 0.65433 0.0
C888 C 0.37495 0.99659 0.66668 0.0
C889 C 0.38182 0.00139 0.7037 0.0
C890 C 0.37875 0.98399 0.72819 0.0
C891 C 0.38813 0.99382 0.76632 0.0
C892 C 0.36845 0.98399 0.79538 0.0
C893 C 0.40797 0.98924 0.77743 0.0
C894 C 0.3972 0.01951 0.75937 0.0
C895 C 0.39334 0.02353 0.72313 0.0
C896 C 0.40069 0.04599 0.71002 0.0
C897 C 0.41235 0.06483 0.73461 0.0
C898 C 0.41654 0.06108 0.77185 0.0
C899 C 0.40872 0.03805 0.78426 0.0
H900 H 0.03402 0.40052 0.69128 0.0
H901 H 0.07329 0.39105 0.77948 0.0
H902 H 0.03822 0.37421 0.81943 0.0
H903 H 0.00284 0.41852 0.74777 0.0
H904 H 0.97609 0.40365 0.72153 0.0
H905 H 0.00364 0.41308 0.6989 0.0
H906 H 0.98914 0.37079 0.67624 0.0
H907 H 0.96146 0.36122 0.69869 0.0
H908 H 0.97823 0.3473 0.70953 0.0
H909 H 0.99969 0.36118 0.8512 0.0
H910 H 0.96046 0.3522 0.87197 0.0
H911 H 0.94659 0.37001 0.76254 0.0
C912 C 0.03522 0.39463 0.71881 0.0
C913 C 0.05641 0.39709 0.73225 0.0
C914 C 0.05723 0.38928 0.76854 0.0
C915 C 0.0374 0.37968 0.79143 0.0
C916 C 0.0169 0.37788 0.77748 0.0
C917 C 0.01564 0.385 0.74193 0.0
C918 C 0.99185 0.38211 0.73407 0.0
C919 C 0.99373 0.40575 0.72505 0.0
C920 C 0.97944 0.36429 0.70278 0.0
C921 C 0.98005 0.37272 0.77107 0.0
C922 C 0.99471 0.37027 0.79568 0.0
C923 C 0.98797 0.3628 0.83205 0.0
C924 C 0.96568 0.35781 0.84361 0.0
C925 C 0.95043 0.36034 0.81885 0.0
C926 C 0.95774 0.36771 0.78205 0.0
H927 H 0.60029 0.55304 0.75505 0.0
H928 H 0.64706 0.60557 0.83343 0.0
H929 H 0.63883 0.63451 0.80438 0.0
H930 H 0.61426 0.59202 0.67532 0.0
H931 H 0.58454 0.5774 0.65884 0.0
H932 H 0.59539 0.5613 0.68419 0.0
H933 H 0.56151 0.54803 0.73146 0.0
H934 H 0.55059 0.5641 0.70632 0.0
H935 H 0.55731 0.56972 0.75502 0.0
H936 H 0.62396 0.65721 0.7687 0.0
H937 H 0.60311 0.67168 0.72971 0.0
H938 H 0.56598 0.60412 0.67521 0.0
C939 C 0.60903 0.57069 0.76585 0.0
C940 C 0.62437 0.57704 0.79645 0.0
C941 C 0.63526 0.60029 0.80997 0.0
C942 C 0.63074 0.61688 0.79361 0.0
C943 C 0.61534 0.60997 0.76373 0.0
C944 C 0.60468 0.58744 0.74994 0.0
C945 C 0.58804 0.58418 0.71866 0.0
C946 C 0.59604 0.57839 0.68209 0.0
C947 C 0.56288 0.5654 0.72847 0.0
C948 C 0.5907 0.60828 0.71743 0.0
C949 C 0.60667 0.62297 0.7434 0.0
C950 C 0.61154 0.64591 0.74808 0.0
C951 C 0.5996 0.65397 0.72582 0.0
C952 C 0.58292 0.63906 0.69939 0.0
C953 C 0.57867 0.61601 0.69505 0.0
H954 H 0.24087 0.06659 0.03978 0.0
H955 H 0.22135 0.05573 0.92328 0.0
H956 H 0.21861 0.09157 0.92332 0.0
H957 H 0.20295 0.08796 0.06673 0.0
H958 H 0.22342 0.10934 0.09878 0.0
H959 H 0.22441 0.08307 0.08954 0.0
H960 H 0.26793 0.10784 0.0706 0.0
H961 H 0.26709 0.1342 0.07986 0.0
H962 H 0.27625 0.12973 0.03495 0.0
H963 H 0.21667 0.12779 0.93631 0.0
H964 H 0.21681 0.16267 0.96106 0.0
H965 H 0.23825 0.1505 0.06878 0.0
C966 C 0.23612 0.07179 0.01423 0.0
C967 C 0.23131 0.05829 0.98154 0.0
C968 C 0.22514 0.06575 0.94869 0.0
C969 C 0.22352 0.08609 0.94841 0.0
C970 C 0.22822 0.09888 0.98113 0.0
C971 C 0.2345 0.09212 0.01339 0.0
C972 C 0.2385 0.10898 0.04481 0.0
C973 C 0.22129 0.09659 0.07685 0.0
C974 C 0.26396 0.12089 0.05834 0.0
C975 C 0.23331 0.12615 0.0252 0.0
C976 C 0.22739 0.11998 0.9885 0.0
C977 C 0.2214 0.13288 0.96496 0.0
C978 C 0.22149 0.15264 0.97931 0.0
C979 C 0.22761 0.15938 0.01682 0.0
C980 C 0.23364 0.14591 0.03993 0.0
H981 H 0.95197 0.13931 0.03376 0.0
H982 H 0.9298 0.18829 -0.0001 0.0
H983 H 0.88877 0.15817 0.01044 0.0
H984 H 0.90526 0.08904 0.99114 0.0
H985 H 0.90241 0.06928 0.02789 0.0
H986 H 0.93023 0.09495 0.01913 0.0
H987 H 0.93215 0.10799 0.0875 0.0
H988 H 0.90435 0.08231 0.09652 0.0
H989 H 0.90843 0.11086 0.10632 0.0
H990 H 0.85013 0.12253 0.02234 0.0
H991 H 0.81634 0.08378 0.03617 0.0
H992 H 0.86342 0.05787 0.06278 0.0
C993 C 0.93852 0.14377 0.02883 0.0
C994 C 0.94415 0.1662 0.01604 0.0
C995 C 0.92597 0.17127 0.00977 0.0
C996 C 0.90258 0.15427 0.01566 0.0
C997 C 0.89762 0.1323 0.02794 0.0
C998 C 0.91504 0.127 0.03462 0.0
C999 C 0.90488 0.10188 0.04715 0.0
C1000 C 0.91106 0.08797 0.01968 0.0
C1001 C 0.91293 0.1007 0.08673 0.0
C1002 C 0.87904 0.09386 0.0461 0.0
C1003 C 0.87526 0.1117 0.03499 0.0
C1004 C 0.85286 0.10844 0.03125 0.0
C1005 C 0.83377 0.08634 0.03913 0.0
C1006 C 0.8372 0.06778 0.05064 0.0
C1007 C 0.86019 0.0717 0.05419 0.0
H1008 H 0.86936 0.82319 0.96873 0.0
H1009 H 0.81562 0.75542 0.00881 0.0
H1010 H 0.84588 0.74555 0.02518 0.0
H1011 H 0.90548 0.80355 0.92757 0.0
H1012 H 0.93256 0.8291 0.94044 0.0
H1013 H 0.90677 0.83128 0.93321 0.0
H1014 H 0.91107 0.8486 0.9992 0.0
H1015 H 0.93691 0.84651 0.00663 0.0
H1016 H 0.91281 0.83276 0.03865 0.0
H1017 H 0.88173 0.74256 0.03564 0.0
H1018 H 0.92083 0.74664 0.03954 0.0
H1019 H 0.95131 0.81631 0.99248 0.0
C1020 C 0.86394 0.80633 0.98119 0.0
C1021 C 0.8401 0.79009 0.98753 0.0
C1022 C 0.83377 0.76817 0.00369 0.0
C1023 C 0.85083 0.76239 0.01313 0.0
C1024 C 0.87414 0.77873 0.00627 0.0
C1025 C 0.88074 0.80026 0.99073 0.0
C1026 C 0.90697 0.81444 0.98551 0.0
C1027 C 0.91331 0.8199 0.94423 0.0
C1028 C 0.91756 0.83691 0.0089 0.0
C1029 C 0.91404 0.79743 0.00027 0.0
C1030 C 0.89485 0.77698 0.01222 0.0
C1031 C 0.89691 0.75853 0.0265 0.0
C1032 C 0.91922 0.76102 0.02856 0.0
C1033 C 0.93917 0.7818 0.01633 0.0
C1034 C 0.93645 0.80023 0.00213 0.0
H1035 H 0.12781 0.23703 0.41 0.0
H1036 H 0.1364 0.20188 0.50542 0.0
H1037 H 0.09945 0.19629 0.5316 0.0
H1038 H 0.10514 0.26778 0.45863 0.0
H1039 H 0.08462 0.26461 0.42298 0.0
H1040 H 0.11111 0.26479 0.41073 0.0
H1041 H 0.08695 0.22478 0.37795 0.0
H1042 H 0.06036 0.2245 0.39002 0.0
H1043 H 0.06439 0.20046 0.40334 0.0
H1044 H 0.06313 0.19682 0.54933 0.0
H1045 H 0.02893 0.20209 0.55643 0.0
H1046 H 0.04329 0.23591 0.44868 0.0
C1047 C 0.12184 0.22797 0.43625 0.0
C1048 C 0.13502 0.21992 0.4557 0.0
C1049 C 0.12659 0.20818 0.48999 0.0
C1050 C 0.10562 0.20491 0.50509 0.0
C1051 C 0.0932 0.21331 0.48541 0.0
C1052 C 0.10088 0.22443 0.45161 0.0
C1053 C 0.08448 0.23223 0.4365 0.0
C1054 C 0.09709 0.25894 0.43196 0.0
C1055 C 0.07339 0.21974 0.39978 0.0
C1056 C 0.06659 0.22409 0.46741 0.0
C1057 C 0.07196 0.21321 0.49532 0.0
C1058 C 0.0586 0.2051 0.5275 0.0
C1059 C 0.03927 0.20825 0.53132 0.0
C1060 C 0.0334 0.21932 0.50303 0.0
C1061 C 0.04718 0.22714 0.47056 0.0
H1062 H 0.78588 0.84811 0.52624 0.0
H1063 H 0.81679 0.84526 0.42142 0.0
H1064 H 0.8178 0.88151 0.40138 0.0
H1065 H 0.74874 0.86717 0.4894 0.0
H1066 H 0.75209 0.8859 0.52808 0.0
H1067 H 0.75521 0.86064 0.53496 0.0
H1068 H 0.79639 0.88685 0.56302 0.0
H1069 H 0.79339 0.91223 0.55624 0.0
H1070 H 0.81803 0.91133 0.53671 0.0
H1071 H 0.81382 0.91718 0.39187 0.0
H1072 H 0.80467 0.94912 0.39324 0.0
H1073 H 0.7762 0.92819 0.50429 0.0
C1074 C 0.79309 0.8552 0.49919 0.0
C1075 C 0.80131 0.84387 0.47541 0.0
C1076 C 0.81041 0.85364 0.44013 0.0
C1077 C 0.8111 0.87425 0.42854 0.0
C1078 C 0.80266 0.88485 0.45258 0.0
C1079 C 0.79385 0.87566 0.48718 0.0
C1080 C 0.78501 0.88985 0.5072 0.0
C1081 C 0.7587 0.875 0.51537 0.0
C1082 C 0.79905 0.90071 0.5429 0.0
C1083 C 0.78994 0.90833 0.47826 0.0
C1084 C 0.80027 0.90525 0.44705 0.0
C1085 C 0.80586 0.91984 0.41626 0.0
C1086 C 0.80058 0.93792 0.4173 0.0
C1087 C 0.78974 0.94119 0.44888 0.0
C1088 C 0.78459 0.92625 0.47979 0.0
H1089 H 0.07461 0.85657 0.49985 0.0
H1090 H 0.09982 0.84726 0.39352 0.0
H1091 H 0.13523 0.88589 0.40025 0.0
H1092 H 0.09709 0.91932 0.49173 0.0
H1093 H 0.10498 0.92479 0.54008 0.0
H1094 H 0.08086 0.89704 0.52583 0.0
H1095 H 0.10016 0.87576 0.55767 0.0
H1096 H 0.12434 0.90342 0.57194 0.0
H1097 H 0.12955 0.88342 0.54519 0.0
H1098 H 0.16847 0.92477 0.41935 0.0
H1099 H 0.1978 0.96096 0.45026 0.0
H1100 H 0.15143 0.94472 0.54483 0.0
C1101 C 0.08744 0.86278 0.47778 0.0
C1102 C 0.08441 0.84894 0.44608 0.0
C1103 C 0.10177 0.85755 0.41806 0.0
C1104 C 0.12192 0.87951 0.42156 0.0
C1105 C 0.12449 0.89261 0.45331 0.0
C1106 C 0.10776 0.88459 0.48096 0.0
C1107 C 0.11533 0.90167 0.51305 0.0
C1108 C 0.09857 0.91127 0.51794 0.0
C1109 C 0.11747 0.89039 0.54908 0.0
C1110 C 0.13901 0.92041 0.49926 0.0
C1111 C 0.14386 0.91492 0.4646 0.0
C1112 C 0.16484 0.92932 0.44642 0.0
C1113 C 0.18139 0.94985 0.46423 0.0
C1114 C 0.17693 0.9557 0.49997 0.0
C1115 C 0.15536 0.94078 0.5175 0.0
H1116 H 0.72893 0.91941 0.01295 0.0
H1117 H 0.80138 0.96726 0.04155 0.0
H1118 H 0.8112 0.93671 0.02688 0.0
H1119 H 0.72586 0.86814 0.05109 0.0
H1120 H 0.70743 0.8491 0.01476 0.0
H1121 H 0.70619 0.87492 0.02665 0.0
H1122 H 0.71499 0.88885 0.95828 0.0
H1123 H 0.71623 0.86305 0.94617 0.0
H1124 H 0.74064 0.89155 0.93597 0.0
H1125 H 0.81296 0.90058 0.0107 0.0
H1126 H 0.80654 0.86164 0.99332 0.0
H1127 H 0.73306 0.83766 0.97476 0.0
C1128 C 0.74688 0.92352 0.01602 0.0
C1129 C 0.76437 0.94574 0.02843 0.0
C1130 C 0.78766 0.95037 0.03206 0.0
C1131 C 0.79343 0.93313 0.0238 0.0
C1132 C 0.77574 0.91139 0.01181 0.0
C1133 C 0.75296 0.90655 0.0078 0.0
C1134 C 0.73721 0.8817 0.99476 0.0
C1135 C 0.71805 0.86764 0.02354 0.0
C1136 C 0.72665 0.88128 0.95652 0.0
C1137 C 0.75466 0.87328 0.99234 0.0
C1138 C 0.77679 0.89065 0.00225 0.0
C1139 C 0.79571 0.88686 0.00274 0.0
C1140 C 0.79189 0.86468 0.99286 0.0
C1141 C 0.76932 0.84661 0.98261 0.0
C1142 C 0.75055 0.8511 0.98229 0.0
H1143 H 0.17435 0.90041 0.9729 0.0
H1144 H 0.15004 0.95036 0.96573 0.0
H1145 H 0.10985 0.91886 0.97911 0.0
H1146 H 0.1244 0.85212 0.93055 0.0
H1147 H 0.12464 0.83058 0.96092 0.0
H1148 H 0.15149 0.85701 0.95052 0.0
H1149 H 0.15906 0.86604 0.0208 0.0
H1150 H 0.13227 0.83961 0.03142 0.0
H1151 H 0.13711 0.86724 0.04889 0.0
H1152 H 0.07222 0.88183 0.99203 0.0
H1153 H 0.04004 0.8422 0.00657 0.0
H1154 H 0.08911 0.81663 0.00703 0.0
C1155 C 0.16058 0.90474 0.97408 0.0
C1156 C 0.16532 0.92783 0.96813 0.0
C1157 C 0.14683 0.93279 0.97022 0.0
C1158 C 0.12394 0.91502 0.97772 0.0
C1159 C 0.11986 0.89243 0.98331 0.0
C1160 C 0.13767 0.88726 0.98184 0.0
C1161 C 0.12867 0.86162 0.98954 0.0
C1162 C 0.13253 0.84963 0.95587 0.0
C1163 C 0.13995 0.85845 0.02476 0.0
C1164 C 0.10298 0.85316 0.99542 0.0
C1165 C 0.09825 0.87118 0.99152 0.0
C1166 C 0.07572 0.86759 0.99527 0.0
C1167 C 0.05755 0.845 0.00345 0.0
C1168 C 0.06205 0.82631 0.00802 0.0
C1169 C 0.0851 0.83055 0.00386 0.0
H1170 H 0.15619 0.2275 0.01429 0.0
H1171 H 0.1474 0.17718 0.92918 0.0
H1172 H 0.10877 0.17208 0.91361 0.0
H1173 H 0.09705 0.19814 0.04562 0.0
H1174 H 0.09606 0.22456 0.05347 0.0
H1175 H 0.12337 0.22486 0.05729 0.0
H1176 H 0.14199 0.2582 0.00879 0.0
H1177 H 0.11478 0.25811 0.00501 0.0
H1178 H 0.12827 0.25437 0.96409 0.0
H1179 H 0.07081 0.17183 0.9081 0.0
H1180 H 0.0366 0.17733 0.91173 0.0
H1181 H 0.07002 0.22765 0.00069 0.0
C1182 C 0.14625 0.21554 0.99216 0.0
C1183 C 0.15487 0.20276 0.97291 0.0
C1184 C 0.1412 0.18718 0.9443 0.0
C1185 C 0.11922 0.18414 0.93527 0.0
C1186 C 0.11113 0.19678 0.9551 0.0
C1187 C 0.12425 0.21225 0.98284 0.0
C1188 C 0.11142 0.22353 0.00013 0.0
C1189 C 0.1067 0.2174 0.04158 0.0
C1190 C 0.12492 0.25013 0.99413 0.0
C1191 C 0.08902 0.21196 0.97781 0.0
C1192 C 0.08921 0.19658 0.95201 0.0
C1193 C 0.07046 0.18385 0.92816 0.0
C1194 C 0.05109 0.18707 0.93049 0.0
C1195 C 0.05059 0.20291 0.9565 0.0
C1196 C 0.06981 0.21537 0.98058 0.0
H1197 H 0.96996 0.83207 0.48371 0.0
H1198 H 0.94762 0.75862 0.49871 0.0
H1199 H 0.9082 0.75074 0.51538 0.0
H1200 H 0.93585 0.83626 0.55966 0.0
H1201 H 0.92903 0.85576 0.5348 0.0
H1202 H 0.95587 0.85591 0.52534 0.0
H1203 H 0.94489 0.84838 0.45566 0.0
H1204 H 0.91802 0.84816 0.4649 0.0
H1205 H 0.91738 0.82351 0.44234 0.0
H1206 H 0.87094 0.75035 0.52785 0.0
H1207 H 0.8381 0.75758 0.53622 0.0
H1208 H 0.88442 0.83133 0.51382 0.0
C1209 C 0.95684 0.81436 0.49077 0.0
C1210 C 0.96192 0.79597 0.48989 0.0
C1211 C 0.94419 0.77302 0.49916 0.0
C1212 C 0.92173 0.76835 0.50872 0.0
C1213 C 0.91726 0.78681 0.50901 0.0
C1214 C 0.93429 0.80937 0.50042 0.0
C1215 C 0.92468 0.82591 0.50208 0.0
C1216 C 0.9371 0.84456 0.53227 0.0
C1217 C 0.92634 0.83714 0.46398 0.0
C1218 C 0.89953 0.80905 0.51255 0.0
C1219 C 0.89568 0.78661 0.51648 0.0
C1220 C 0.87375 0.76788 0.52509 0.0
C1221 C 0.8552 0.77217 0.52973 0.0
C1222 C 0.85868 0.79503 0.52579 0.0
C1223 C 0.88122 0.8137 0.51728 0.0
H1224 H 0.16889 0.13464 0.49043 0.0
H1225 H 0.24045 0.18981 0.47204 0.0
H1226 H 0.25427 0.16221 0.4857 0.0
H1227 H 0.18153 0.10589 0.56623 0.0
H1228 H 0.16004 0.07699 0.55115 0.0
H1229 H 0.15579 0.10139 0.54185 0.0
H1230 H 0.15148 0.09142 0.4717 0.0
H1231 H 0.15581 0.06706 0.48074 0.0
H1232 H 0.17437 0.08927 0.44804 0.0
H1233 H 0.26027 0.12851 0.49818 0.0
H1234 H 0.25821 0.09082 0.50989 0.0
H1235 H 0.18278 0.05731 0.52051 0.0
C1236 C 0.18749 0.141 0.48966 0.0
C1237 C 0.20359 0.16441 0.48018 0.0
C1238 C 0.22777 0.17197 0.47923 0.0
C1239 C 0.23581 0.15643 0.48699 0.0
C1240 C 0.21947 0.13342 0.49576 0.0
C1241 C 0.19583 0.12571 0.49732 0.0
C1242 C 0.18194 0.09989 0.50641 0.0
C1243 C 0.16907 0.09581 0.54363 0.0
C1244 C 0.1649 0.0861 0.47484 0.0
C1245 C 0.20145 0.09425 0.50919 0.0
C1246 C 0.22295 0.11389 0.50308 0.0
C1247 C 0.24356 0.11303 0.50326 0.0
C1248 C 0.24217 0.0915 0.50985 0.0
C1249 C 0.22033 0.07109 0.51617 0.0
C1250 C 0.19974 0.07259 0.51596 0.0
H1251 H 0.93511 0.13158 0.52732 0.0
H1252 H 0.90321 0.1749 0.53906 0.0
H1253 H 0.8643 0.14023 0.52977 0.0
H1254 H 0.89692 0.09431 0.45575 0.0
H1255 H 0.89605 0.06838 0.47342 0.0
H1256 H 0.92139 0.09658 0.48141 0.0
H1257 H 0.91741 0.08876 0.55227 0.0
H1258 H 0.89203 0.06054 0.5445 0.0
H1259 H 0.89025 0.0812 0.57506 0.0
H1260 H 0.82888 0.10093 0.51882 0.0
H1261 H 0.79946 0.05978 0.5064 0.0
H1262 H 0.85449 0.04214 0.50187 0.0
C1263 C 0.91996 0.13381 0.52797 0.0
C1264 C 0.92223 0.15598 0.53393 0.0
C1265 C 0.90193 0.15811 0.53454 0.0
C1266 C 0.87974 0.13851 0.52933 0.0
C1267 C 0.87813 0.11692 0.52355 0.0
C1268 C 0.89768 0.11444 0.52281 0.0
C1269 C 0.89114 0.0893 0.51583 0.0
C1270 C 0.90202 0.08702 0.47944 0.0
C1271 C 0.89812 0.07937 0.54889 0.0
C1272 C 0.86487 0.07805 0.51265 0.0
C1273 C 0.85771 0.09427 0.51724 0.0
C1274 C 0.83426 0.08805 0.51523 0.0
C1275 C 0.81768 0.06463 0.50817 0.0
C1276 C 0.82464 0.0477 0.5032 0.0
C1277 C 0.84858 0.05461 0.50562 0.0
H1278 H 0.89496 0.49735 0.34037 0.0
H1279 H 0.83828 0.47422 0.41991 0.0
H1280 H 0.8331 0.43453 0.41846 0.0
H1281 H 0.86949 0.44462 0.2857 0.0
H1282 H 0.89703 0.44597 0.27744 0.0
H1283 H 0.89611 0.47248 0.28454 0.0
H1284 H 0.92582 0.48396 0.33846 0.0
H1285 H 0.92682 0.45749 0.33155 0.0
H1286 H 0.91949 0.46396 0.37652 0.0
H1287 H 0.83454 0.39759 0.40905 0.0
H1288 H 0.84217 0.36588 0.39193 0.0
H1289 H 0.89777 0.41323 0.3182 0.0
C1290 C 0.88142 0.48396 0.35747 0.0
C1291 C 0.86703 0.4889 0.3803 0.0
C1292 C 0.84951 0.47085 0.4022 0.0
C1293 C 0.84643 0.44826 0.40157 0.0
C1294 C 0.86097 0.44402 0.37883 0.0
C1295 C 0.87808 0.46135 0.35712 0.0
C1296 C 0.89145 0.45228 0.33523 0.0
C1297 C 0.88832 0.45393 0.29324 0.0
C1298 C 0.91743 0.46519 0.34611 0.0
C1299 C 0.87926 0.42714 0.34815 0.0
C1300 C 0.86173 0.42273 0.37328 0.0
C1301 C 0.84819 0.40082 0.38934 0.0
C1302 C 0.85268 0.38293 0.37944 0.0
C1303 C 0.87056 0.38705 0.35371 0.0
C1304 C 0.88396 0.40949 0.33789 0.0
H1305 H 0.62265 0.47698 0.30321 0.0
H1306 H 0.61609 0.534 0.34999 0.0
H1307 H 0.57809 0.50561 0.37716 0.0
H1308 H 0.5629 0.44152 0.27815 0.0
H1309 H 0.5615 0.4143 0.2895 0.0
H1310 H 0.58879 0.43902 0.27527 0.0
H1311 H 0.60831 0.43602 0.33579 0.0
H1312 H 0.58106 0.41127 0.35021 0.0
H1313 H 0.59577 0.43645 0.38002 0.0
H1314 H 0.54037 0.47132 0.39758 0.0
H1315 H 0.50498 0.43331 0.40897 0.0
H1316 H 0.53581 0.39847 0.34862 0.0
C1317 C 0.61333 0.4835 0.31943 0.0
C1318 C 0.62239 0.50772 0.32455 0.0
C1319 C 0.60952 0.51553 0.34567 0.0
C1320 C 0.58793 0.49954 0.36131 0.0
C1321 C 0.57945 0.47581 0.35556 0.0
C1322 C 0.5917 0.46778 0.33512 0.0
C1323 C 0.57825 0.44138 0.33207 0.0
C1324 C 0.57252 0.43361 0.29133 0.0
C1325 C 0.59165 0.43065 0.35064 0.0
C1326 C 0.55644 0.43587 0.35372 0.0
C1327 C 0.55756 0.45598 0.36719 0.0
C1328 C 0.53931 0.45543 0.38733 0.0
C1329 C 0.51928 0.43374 0.39363 0.0
C1330 C 0.51762 0.4129 0.37975 0.0
C1331 C 0.53658 0.41406 0.35978 0.0
H1332 H 0.54494 0.1626 0.32533 0.0
H1333 H 0.49606 0.08993 0.29934 0.0
H1334 H 0.52715 0.08028 0.30926 0.0
H1335 H 0.59497 0.1652 0.28079 0.0
H1336 H 0.61535 0.18385 0.31562 0.0
H1337 H 0.58925 0.18521 0.30653 0.0
H1338 H 0.57774 0.17706 0.37596 0.0
H1339 H 0.60383 0.17575 0.38527 0.0
H1340 H 0.57567 0.15153 0.39771 0.0
H1341 H 0.56327 0.07835 0.32185 0.0
H1342 H 0.60211 0.08414 0.3374 0.0
H1343 H 0.62777 0.15806 0.35532 0.0
C1344 C 0.54075 0.14465 0.32176 0.0
C1345 C 0.51803 0.12703 0.31155 0.0
C1346 C 0.51331 0.10375 0.30715 0.0
C1347 C 0.53086 0.09808 0.31269 0.0
C1348 C 0.55306 0.11586 0.3226 0.0
C1349 C 0.55808 0.13866 0.32717 0.0
C1350 C 0.5834 0.1544 0.3381 0.0
C1351 C 0.59651 0.17328 0.30849 0.0
C1352 C 0.58526 0.16532 0.37655 0.0
C1353 C 0.59177 0.13685 0.33904 0.0
C1354 C 0.57398 0.11474 0.32993 0.0
C1355 C 0.57736 0.09558 0.32904 0.0
C1356 C 0.59951 0.09907 0.33791 0.0
C1357 C 0.61802 0.12156 0.34761 0.0
C1358 C 0.61403 0.14067 0.34797 0.0
H1359 H 0.78901 0.52719 0.75139 0.0
H1360 H 0.83347 0.57889 0.8328 0.0
H1361 H 0.7992 0.57953 0.85833 0.0
H1362 H 0.75174 0.55091 0.73396 0.0
H1363 H 0.72555 0.52288 0.72945 0.0
H1364 H 0.75347 0.52597 0.71795 0.0
H1365 H 0.74601 0.49298 0.76429 0.0
H1366 H 0.71804 0.48974 0.77588 0.0
H1367 H 0.73909 0.4953 0.81194 0.0
H1368 H 0.76054 0.5753 0.87429 0.0
H1369 H 0.71971 0.56612 0.88029 0.0
H1370 H 0.70003 0.51702 0.78874 0.0
C1371 C 0.79154 0.53858 0.77468 0.0
C1372 C 0.81396 0.553 0.79007 0.0
C1373 C 0.81649 0.56768 0.82052 0.0
C1374 C 0.79713 0.56818 0.83523 0.0
C1375 C 0.77534 0.55387 0.81929 0.0
C1376 C 0.77238 0.53929 0.78978 0.0
C1377 C 0.74704 0.52582 0.77766 0.0
C1378 C 0.7443 0.53176 0.73737 0.0
C1379 C 0.73695 0.49939 0.78276 0.0
C1380 C 0.73627 0.53525 0.80482 0.0
C1381 C 0.75292 0.55137 0.8286 0.0
C1382 C 0.74732 0.56266 0.85591 0.0
C1383 C 0.72405 0.55732 0.85905 0.0
C1384 C 0.70661 0.54083 0.835 0.0
C1385 C 0.7129 0.52967 0.80757 0.0
H1386 H 0.48397 0.19318 0.80838 0.0
H1387 H 0.41719 0.14699 0.86057 0.0
H1388 H 0.4059 0.17711 0.85352 0.0
H1389 H 0.49254 0.24609 0.84997 0.0
H1390 H 0.50557 0.2637 0.80924 0.0
H1391 H 0.5083 0.2383 0.81755 0.0
H1392 H 0.49029 0.22185 0.75299 0.0
H1393 H 0.48751 0.24721 0.74447 0.0
H1394 H 0.46223 0.21842 0.74125 0.0
H1395 H 0.40199 0.21229 0.8419 0.0
H1396 H 0.40575 0.25035 0.82643 0.0
H1397 H 0.47502 0.27382 0.7817 0.0
C1398 C 0.46693 0.18935 0.8182 0.0
C1399 C 0.45146 0.16768 0.835 0.0
C1400 C 0.42936 0.16342 0.84758 0.0
C1401 C 0.42275 0.18042 0.84369 0.0
C1402 C 0.43843 0.20159 0.82714 0.0
C1403 C 0.46004 0.20613 0.81456 0.0
C1404 C 0.4737 0.23045 0.79819 0.0
C1405 C 0.49636 0.24552 0.82005 0.0
C1406 C 0.47872 0.22941 0.75676 0.0
C1407 C 0.4564 0.23889 0.80373 0.0
C1408 C 0.43617 0.22194 0.82041 0.0
C1409 C 0.41773 0.22569 0.82874 0.0
C1410 C 0.42005 0.24739 0.81985 0.0
C1411 C 0.44067 0.26509 0.80281 0.0
C1412 C 0.45902 0.26066 0.79461 0.0
H1413 H 0.71681 0.20683 0.81429 0.0
H1414 H 0.74646 0.16121 0.81018 0.0
H1415 H 0.78555 0.19492 0.82224 0.0
H1416 H 0.76562 0.25719 0.77045 0.0
H1417 H 0.76319 0.27795 0.79985 0.0
H1418 H 0.73762 0.25039 0.78913 0.0
H1419 H 0.72953 0.24164 0.85938 0.0
H1420 H 0.75508 0.26913 0.87031 0.0
H1421 H 0.75198 0.24236 0.88869 0.0
H1422 H 0.82114 0.23314 0.83648 0.0
H1423 H 0.85097 0.27344 0.85273 0.0
H1424 H 0.79826 0.29431 0.84839 0.0
C1425 C 0.73155 0.20395 0.81558 0.0
C1426 C 0.72856 0.18137 0.81119 0.0
C1427 C 0.74829 0.17833 0.81345 0.0
C1428 C 0.77058 0.19738 0.82022 0.0
C1429 C 0.77288 0.21935 0.82472 0.0
C1430 C 0.75394 0.22277 0.8225 0.0
C1431 C 0.76112 0.24809 0.82959 0.0
C1432 C 0.75662 0.25905 0.7952 0.0
C1433 C 0.74869 0.25043 0.86404 0.0
C1434 C 0.78702 0.2583 0.83647 0.0
C1435 C 0.79345 0.24143 0.8333 0.0
C1436 C 0.81636 0.24653 0.83892 0.0
C1437 C 0.83317 0.26949 0.84816 0.0
C1438 C 0.82698 0.28707 0.85185 0.0
C1439 C 0.80358 0.28131 0.84573 0.0
H1440 H 0.45417 0.18687 0.32261 0.0
H1441 H 0.49488 0.20615 0.2209 0.0
H1442 H 0.50047 0.24584 0.22531 0.0
H1443 H 0.42477 0.21893 0.30477 0.0
H1444 H 0.42548 0.22764 0.35239 0.0
H1445 H 0.42509 0.20081 0.34188 0.0
H1446 H 0.46289 0.21464 0.38028 0.0
H1447 H 0.46336 0.24149 0.39103 0.0
H1448 H 0.48839 0.24229 0.36958 0.0
H1449 H 0.50106 0.28316 0.23988 0.0
H1450 H 0.49721 0.31593 0.26436 0.0
H1451 H 0.45615 0.27256 0.35666 0.0
C1452 C 0.46437 0.19947 0.30137 0.0
C1453 C 0.47411 0.19337 0.27141 0.0
C1454 C 0.48726 0.21037 0.24413 0.0
C1455 C 0.49053 0.23298 0.24636 0.0
C1456 C 0.48057 0.23836 0.27605 0.0
C1457 C 0.46781 0.22214 0.30314 0.0
C1458 C 0.4588 0.23241 0.33197 0.0
C1459 C 0.43194 0.21916 0.33278 0.0
C1460 C 0.46898 0.23273 0.37049 0.0
C1461 C 0.46843 0.2569 0.31677 0.0
C1462 C 0.48093 0.25994 0.28449 0.0
C1463 C 0.49136 0.28102 0.26518 0.0
C1464 C 0.48905 0.29952 0.27931 0.0
C1465 C 0.4764 0.29686 0.31245 0.0
C1466 C 0.46596 0.27519 0.33129 0.0
H1467 H 0.81167 0.27067 0.25892 0.0
H1468 H 0.84444 0.28346 0.36748 0.0
H1469 H 0.81151 0.24648 0.39025 0.0
H1470 H 0.75222 0.24478 0.29166 0.0
H1471 H 0.74039 0.22345 0.25491 0.0
H1472 H 0.76643 0.25114 0.24702 0.0
H1473 H 0.78851 0.22975 0.22693 0.0
H1474 H 0.76254 0.202 0.23474 0.0
H1475 H 0.78938 0.20876 0.25783 0.0
H1476 H 0.77541 0.20832 0.4014 0.0
H1477 H 0.73845 0.17081 0.40007 0.0
H1478 H 0.72897 0.18231 0.28419 0.0
C1479 C 0.8119 0.26573 0.2875 0.0
C1480 C 0.83064 0.27999 0.31141 0.0
C1481 C 0.8303 0.27283 0.3486 0.0
C1482 C 0.81166 0.25187 0.36184 0.0
C1483 C 0.79349 0.23822 0.33757 0.0
C1484 C 0.79343 0.24479 0.30119 0.0
C1485 C 0.77184 0.22671 0.28083 0.0
C1486 C 0.75683 0.23715 0.26785 0.0
C1487 C 0.77847 0.21618 0.24815 0.0
C1488 C 0.75984 0.20895 0.31147 0.0
C1489 C 0.77263 0.21601 0.34397 0.0
C1490 C 0.76522 0.20258 0.37613 0.0
C1491 C 0.74418 0.18129 0.37506 0.0
C1492 C 0.73079 0.17357 0.34201 0.0
C1493 C 0.73878 0.18769 0.30986 0.0
H1494 H 0.82917 0.56774 0.34308 0.0
H1495 H 0.83178 0.52876 0.24793 0.0
H1496 H 0.79493 0.52504 0.22461 0.0
H1497 H 0.7673 0.53438 0.35669 0.0
H1498 H 0.76464 0.55925 0.36988 0.0
H1499 H 0.79144 0.55922 0.37869 0.0
H1500 H 0.81457 0.59791 0.34201 0.0
H1501 H 0.78786 0.59813 0.33323 0.0
H1502 H 0.80614 0.59957 0.29501 0.0
H1503 H 0.75766 0.52552 0.21183 0.0
H1504 H 0.72302 0.53046 0.21029 0.0
H1505 H 0.74476 0.56865 0.31434 0.0
C1506 C 0.82209 0.55851 0.31724 0.0
C1507 C 0.8334 0.54858 0.29728 0.0
C1508 C 0.82345 0.53653 0.26369 0.0
C1509 C 0.80251 0.53431 0.25022 0.0
C1510 C 0.79174 0.54417 0.27073 0.0
C1511 C 0.8012 0.55605 0.3035 0.0
C1512 C 0.78611 0.56489 0.32042 0.0
C1513 C 0.77682 0.55376 0.35868 0.0
C1514 C 0.79947 0.59172 0.32279 0.0
C1515 C 0.76668 0.55617 0.29202 0.0
C1516 C 0.77023 0.54427 0.26356 0.0
C1517 C 0.75468 0.53479 0.23398 0.0
C1518 C 0.73505 0.53768 0.23337 0.0
C1519 C 0.73114 0.54991 0.26221 0.0
C1520 C 0.74717 0.55913 0.29194 0.0
H1521 H 0.60357 0.10864 0.81419 0.0
H1522 H 0.64435 0.15053 0.90785 0.0
H1523 H 0.6122 0.1575 0.92524 0.0
H1524 H 0.57699 0.14328 0.79068 0.0
H1525 H 0.54926 0.11827 0.77876 0.0
H1526 H 0.57576 0.11716 0.77303 0.0
H1527 H 0.55891 0.08021 0.81448 0.0
H1528 H 0.53234 0.08114 0.8202 0.0
H1529 H 0.54851 0.08104 0.86041 0.0
H1530 H 0.5753 0.15935 0.93297 0.0
H1531 H 0.53582 0.1546 0.932 0.0
H1532 H 0.51922 0.11127 0.83346 0.0
C1533 C 0.60581 0.11935 0.83829 0.0
C1534 C 0.62651 0.12907 0.85963 0.0
C1535 C 0.62866 0.14288 0.89109 0.0
C1536 C 0.61052 0.14701 0.90112 0.0
C1537 C 0.59038 0.13719 0.87943 0.0
C1538 C 0.58789 0.12358 0.84876 0.0
C1539 C 0.56422 0.11449 0.83074 0.0
C1540 C 0.56672 0.12387 0.79095 0.0
C1541 C 0.55017 0.08763 0.83153 0.0
C1542 C 0.55368 0.12495 0.85627 0.0
C1543 C 0.5691 0.13812 0.88403 0.0
C1544 C 0.5631 0.14914 0.9113 0.0
C1545 C 0.54064 0.14636 0.91048 0.0
C1546 C 0.5244 0.13258 0.88265 0.0
C1547 C 0.53122 0.122 0.85502 0.0
H1548 H 0.86782 0.49949 0.86739 0.0
H1549 H 0.88875 0.50505 0.75186 0.0
H1550 H 0.89047 0.46878 0.75799 0.0
H1551 H 0.90503 0.47889 0.90137 0.0
H1552 H 0.88429 0.45933 0.93501 0.0
H1553 H 0.88378 0.48525 0.92122 0.0
H1554 H 0.84025 0.46 0.90257 0.0
H1555 H 0.84064 0.43399 0.91627 0.0
H1556 H 0.83174 0.43641 0.86997 0.0
H1557 H 0.8906 0.43241 0.77671 0.0
H1558 H 0.89019 0.39886 0.80729 0.0
H1559 H 0.86964 0.41708 0.91094 0.0
C1560 C 0.87263 0.49302 0.84331 0.0
C1561 C 0.8781 0.5051 0.80911 0.0
C1562 C 0.8845 0.49612 0.77836 0.0
C1563 C 0.88547 0.4755 0.78152 0.0
C1564 C 0.88005 0.46407 0.81563 0.0
C1565 C 0.87381 0.4725 0.84602 0.0
C1566 C 0.86949 0.4572 0.87978 0.0
C1567 C 0.88668 0.47099 0.91119 0.0
C1568 C 0.84401 0.44625 0.89291 0.0
C1569 C 0.87441 0.43893 0.86365 0.0
C1570 C 0.88034 0.44316 0.82655 0.0
C1571 C 0.88593 0.42888 0.80574 0.0
C1572 C 0.88564 0.40985 0.82339 0.0
C1573 C 0.87988 0.40531 0.86154 0.0
C1574 C 0.87405 0.42002 0.88175 0.0
H1575 H 0.581 0.47598 0.83537 0.0
H1576 H 0.61037 0.45334 0.92289 0.0
H1577 H 0.57597 0.41375 0.91977 0.0
H1578 H 0.52212 0.44385 0.86551 0.0
H1579 H 0.50988 0.43661 0.81946 0.0
H1580 H 0.53735 0.46292 0.82709 0.0
H1581 H 0.55698 0.44984 0.77773 0.0
H1582 H 0.52953 0.42352 0.7698 0.0
H1583 H 0.555 0.42174 0.7822 0.0
H1584 H 0.53766 0.37722 0.90941 0.0
H1585 H 0.49851 0.34576 0.89105 0.0
H1586 H 0.49406 0.39194 0.80986 0.0
C1587 C 0.58033 0.46265 0.85363 0.0
C1588 C 0.59842 0.46778 0.87938 0.0
C1589 C 0.59677 0.44985 0.9029 0.0
C1590 C 0.57729 0.42729 0.90136 0.0
C1591 C 0.55963 0.42291 0.87605 0.0
C1592 C 0.56101 0.44002 0.85244 0.0
C1593 C 0.53938 0.43083 0.82837 0.0
C1594 C 0.52642 0.44436 0.83556 0.0
C1595 C 0.5456 0.43152 0.78708 0.0
C1596 C 0.52553 0.40595 0.84244 0.0
C1597 C 0.53755 0.40176 0.86991 0.0
C1598 C 0.52813 0.38024 0.88777 0.0
C1599 C 0.50583 0.3625 0.8772 0.0
C1600 C 0.4932 0.36634 0.84898 0.0
C1601 C 0.50329 0.3884 0.83141 0.0
H1602 H 0.54317 0.71194 0.65493 0.0
H1603 H 0.49144 0.66591 0.73492 0.0
H1604 H 0.48777 0.69899 0.75845 0.0
H1605 H 0.57136 0.76267 0.71502 0.0
H1606 H 0.57631 0.78303 0.67809 0.0
H1607 H 0.57524 0.75581 0.66806 0.0
H1608 H 0.54263 0.74585 0.61956 0.0
H1609 H 0.54356 0.773 0.62951 0.0
H1610 H 0.5164 0.7458 0.63343 0.0
H1611 H 0.48879 0.73671 0.77199 0.0
H1612 H 0.4951 0.77674 0.7756 0.0
H1613 H 0.54651 0.79831 0.68729 0.0
C1614 C 0.53115 0.70882 0.67751 0.0
C1615 C 0.51758 0.68631 0.69308 0.0
C1616 C 0.50205 0.68299 0.72259 0.0
C1617 C 0.49982 0.70166 0.73614 0.0
C1618 C 0.51332 0.72357 0.72002 0.0
C1619 C 0.52876 0.72727 0.69148 0.0
C1620 C 0.54109 0.7525 0.67882 0.0
C1621 C 0.56757 0.76419 0.6854 0.0
C1622 C 0.53558 0.75438 0.63791 0.0
C1623 C 0.53001 0.76235 0.70449 0.0
C1624 C 0.51405 0.74538 0.72804 0.0
C1625 C 0.50132 0.75019 0.75382 0.0
C1626 C 0.50501 0.77298 0.75561 0.0
C1627 C 0.52132 0.79068 0.73179 0.0
C1628 C 0.53398 0.78521 0.70599 0.0
H1629 H 0.18379 0.72376 0.66665 0.0
H1630 H 0.1566 0.75744 0.73838 0.0
H1631 H 0.1916 0.79562 0.72592 0.0
H1632 H 0.24447 0.75981 0.69236 0.0
H1633 H 0.25507 0.7604 0.64605 0.0
H1634 H 0.22806 0.73565 0.66125 0.0
H1635 H 0.20659 0.74099 0.60521 0.0
H1636 H 0.23351 0.7658 0.58989 0.0
H1637 H 0.20823 0.76877 0.59812 0.0
H1638 H 0.22922 0.83024 0.70478 0.0
H1639 H 0.26704 0.85877 0.67696 0.0
H1640 H 0.26952 0.80242 0.61903 0.0
C1641 C 0.18524 0.73913 0.67992 0.0
C1642 C 0.16746 0.7376 0.70354 0.0
C1643 C 0.17 0.75817 0.7202 0.0
C1644 C 0.18981 0.77995 0.7133 0.0
C1645 C 0.20693 0.78086 0.68969 0.0
C1646 C 0.20487 0.76101 0.67331 0.0
C1647 C 0.22564 0.76681 0.64871 0.0
C1648 C 0.23911 0.75497 0.66296 0.0
C1649 C 0.21803 0.7602 0.60808 0.0
C1650 C 0.23966 0.79304 0.65372 0.0
C1651 C 0.22857 0.8008 0.67749 0.0
C1652 C 0.2381 0.82437 0.68618 0.0
C1653 C 0.25957 0.84044 0.67022 0.0
C1654 C 0.27126 0.83284 0.64583 0.0
C1655 C 0.26106 0.8088 0.63757 0.0
H1656 H 0.24761 0.41915 0.68944 0.0
H1657 H 0.28325 0.47341 0.77224 0.0
H1658 H 0.25029 0.48096 0.7724 0.0
H1659 H 0.2245 0.44875 0.63745 0.0
H1660 H 0.1972 0.42273 0.62717 0.0
H1661 H 0.22313 0.42086 0.63474 0.0
H1662 H 0.202 0.39026 0.68665 0.0
H1663 H 0.17598 0.39203 0.67922 0.0
H1664 H 0.18887 0.39721 0.7248 0.0
H1665 H 0.21402 0.48339 0.76238 0.0
H1666 H 0.17704 0.4807 0.74244 0.0
H1667 H 0.16518 0.42502 0.66596 0.0
C1668 C 0.24842 0.43249 0.70784 0.0
C1669 C 0.26799 0.44565 0.73091 0.0
C1670 C 0.26844 0.46309 0.75433 0.0
C1671 C 0.24978 0.4675 0.75468 0.0
C1672 C 0.23083 0.45432 0.73144 0.0
C1673 C 0.22999 0.43717 0.70846 0.0
C1674 C 0.20786 0.42594 0.68544 0.0
C1675 C 0.21352 0.42981 0.64373 0.0
C1676 C 0.19279 0.39981 0.69459 0.0
C1677 C 0.19648 0.43958 0.6989 0.0
C1678 C 0.20996 0.4558 0.72553 0.0
C1679 C 0.20325 0.47069 0.74165 0.0
C1680 C 0.18222 0.46904 0.73012 0.0
C1681 C 0.16819 0.45264 0.70268 0.0
C1682 C 0.17545 0.43768 0.68708 0.0
H1683 H 0.38519 0.86308 0.11691 0.0
H1684 H 0.3972 0.90431 0.2169 0.0
H1685 H 0.43743 0.91117 0.22028 0.0
H1686 H 0.41748 0.83548 0.14469 0.0
H1687 H 0.42913 0.83639 0.09909 0.0
H1688 H 0.40136 0.83502 0.10403 0.0
H1689 H 0.41639 0.87254 0.0644 0.0
H1690 H 0.44416 0.87396 0.05919 0.0
H1691 H 0.44287 0.8986 0.07781 0.0
H1692 H 0.47603 0.91281 0.2137 0.0
H1693 H 0.51083 0.91035 0.19626 0.0
H1694 H 0.4738 0.86834 0.10027 0.0
C1695 C 0.39629 0.87364 0.13945 0.0
C1696 C 0.38801 0.88315 0.16665 0.0
C1697 C 0.40314 0.89687 0.19568 0.0
C1698 C 0.42602 0.90084 0.1979 0.0
C1699 C 0.43355 0.89104 0.17083 0.0
C1700 C 0.4192 0.87783 0.14204 0.0
C1701 C 0.4316 0.86929 0.11654 0.0
C1702 C 0.41915 0.84245 0.11608 0.0
C1703 C 0.43389 0.8792 0.07716 0.0
C1704 C 0.45512 0.87969 0.13558 0.0
C1705 C 0.45586 0.89212 0.16688 0.0
C1706 C 0.47568 0.90318 0.18919 0.0
C1707 C 0.49535 0.90163 0.17908 0.0
C1708 C 0.49509 0.88917 0.14688 0.0
C1709 C 0.47461 0.87801 0.12502 0.0
H1710 H 0.1243 0.57631 0.09254 0.0
H1711 H 0.10635 0.59314 0.19969 0.0
H1712 H 0.11082 0.56176 0.22866 0.0
H1713 H 0.09431 0.51412 0.10492 0.0
H1714 H 0.11625 0.51039 0.08126 0.0
H1715 H 0.1118 0.53429 0.06898 0.0
H1716 H 0.15554 0.56359 0.08151 0.0
H1717 H 0.16013 0.53978 0.09385 0.0
H1718 H 0.16794 0.56345 0.12601 0.0
H1719 H 0.11697 0.52845 0.24589 0.0
H1720 H 0.1244 0.49551 0.25034 0.0
H1721 H 0.13851 0.50046 0.13193 0.0
C1722 C 0.12131 0.57343 0.12211 0.0
C1723 C 0.11497 0.5872 0.14385 0.0
C1724 C 0.11123 0.58283 0.18246 0.0
C1725 C 0.11373 0.56505 0.19918 0.0
C1726 C 0.11999 0.55181 0.17693 0.0
C1727 C 0.12375 0.55578 0.13925 0.0
C1728 C 0.13028 0.53902 0.12161 0.0
C1729 C 0.11207 0.52354 0.09248 0.0
C1730 C 0.15494 0.55225 0.10476 0.0
C1731 C 0.12957 0.52497 0.15527 0.0
C1732 C 0.1236 0.53264 0.18688 0.0
C1733 C 0.12169 0.5223 0.22133 0.0
C1734 C 0.12594 0.50359 0.22355 0.0
C1735 C 0.13207 0.49538 0.19149 0.0
C1736 C 0.13392 0.50632 0.15696 0.0
H1737 H 0.4975 0.59935 0.19133 0.0
H1738 H 0.49012 0.64309 0.10874 0.0
H1739 H 0.45472 0.60865 0.08456 0.0
H1740 H 0.47939 0.54926 0.1327 0.0
H1741 H 0.464 0.52845 0.1691 0.0
H1742 H 0.48862 0.55658 0.18029 0.0
H1743 H 0.46299 0.5643 0.2261 0.0
H1744 H 0.43831 0.53617 0.21512 0.0
H1745 H 0.4362 0.56217 0.20986 0.0
H1746 H 0.4201 0.5696 0.06952 0.0
H1747 H 0.38864 0.52853 0.06447 0.0
H1748 H 0.41888 0.51012 0.15631 0.0
C1749 C 0.48842 0.60173 0.16821 0.0
C1750 C 0.49658 0.62394 0.15195 0.0
C1751 C 0.48422 0.62626 0.12166 0.0
C1752 C 0.46409 0.6068 0.10771 0.0
C1753 C 0.45659 0.58516 0.1243 0.0
C1754 C 0.46836 0.5825 0.15386 0.0
C1755 C 0.4567 0.55729 0.16652 0.0
C1756 C 0.47316 0.54731 0.16186 0.0
C1757 C 0.44803 0.55485 0.20678 0.0
C1758 C 0.4365 0.5462 0.13946 0.0
C1759 C 0.43675 0.56259 0.11539 0.0
C1760 C 0.41974 0.55659 0.08816 0.0
C1761 C 0.40193 0.53321 0.08554 0.0
C1762 C 0.40132 0.51609 0.10992 0.0
C1763 C 0.41893 0.52276 0.13712 0.0
H1764 H 0.13457 0.59776 0.71677 0.0
H1765 H 0.10012 0.61062 0.62468 0.0
H1766 H 0.0932 0.57408 0.59492 0.0
H1767 H 0.16248 0.57177 0.66222 0.0
H1768 H 0.15798 0.55061 0.69753 0.0
H1769 H 0.16158 0.57856 0.71045 0.0
H1770 H 0.1222 0.55779 0.74588 0.0
H1771 H 0.11847 0.52981 0.73302 0.0
H1772 H 0.09615 0.53687 0.72178 0.0
H1773 H 0.08804 0.53511 0.57687 0.0
H1774 H 0.08512 0.49649 0.57176 0.0
H1775 H 0.12304 0.50911 0.67551 0.0
C1776 C 0.12583 0.59307 0.69013 0.0
C1777 C 0.11794 0.6071 0.67303 0.0
C1778 C 0.10635 0.60018 0.63832 0.0
C1779 C 0.10237 0.57947 0.62114 0.0
C1780 C 0.11013 0.5659 0.63896 0.0
C1781 C 0.12168 0.57243 0.67262 0.0
C1782 C 0.12738 0.55425 0.68662 0.0
C1783 C 0.15393 0.56441 0.68935 0.0
C1784 C 0.11532 0.54408 0.72403 0.0
C1785 C 0.11693 0.53632 0.65584 0.0
C1786 C 0.10717 0.54343 0.62852 0.0
C1787 C 0.09578 0.52943 0.59793 0.0
C1788 C 0.09417 0.5075 0.59532 0.0
C1789 C 0.10389 0.49978 0.62316 0.0
C1790 C 0.11558 0.51456 0.6536 0.0
H1791 H 0.38479 0.48809 0.69152 0.0
H1792 H 0.3377 0.48886 0.60822 0.0
H1793 H 0.369 0.52704 0.58577 0.0
H1794 H 0.41415 0.54957 0.71252 0.0
H1795 H 0.44234 0.55194 0.71831 0.0
H1796 H 0.41617 0.5247 0.72803 0.0
H1797 H 0.42927 0.50345 0.68174 0.0
H1798 H 0.45548 0.53062 0.67191 0.0
H1799 H 0.43622 0.5138 0.63459 0.0
H1800 H 0.40541 0.56511 0.57226 0.0
H1801 H 0.44458 0.60018 0.56823 0.0
H1802 H 0.46786 0.57437 0.66009 0.0
C1803 C 0.38103 0.49628 0.66858 0.0
C1804 C 0.35878 0.48547 0.65164 0.0
C1805 C 0.35461 0.49678 0.62165 0.0
C1806 C 0.37227 0.51849 0.60869 0.0
C1807 C 0.39399 0.52865 0.626 0.0
C1808 C 0.39846 0.51792 0.65525 0.0
C1809 C 0.42337 0.53249 0.66879 0.0
C1810 C 0.42403 0.54013 0.70931 0.0
C1811 C 0.43688 0.5193 0.66395 0.0
C1812 C 0.43221 0.55305 0.64251 0.0
C1813 C 0.41499 0.55053 0.61811 0.0
C1814 C 0.41905 0.56729 0.59122 0.0
C1815 C 0.44135 0.58715 0.58917 0.0
C1816 C 0.4593 0.59002 0.6138 0.0
C1817 C 0.45454 0.5727 0.64082 0.0
H1818 H 0.4233 0.91015 0.59525 0.0
H1819 H 0.37002 0.85914 0.66847 0.0
H1820 H 0.39808 0.84777 0.69143 0.0
H1821 H 0.45031 0.87552 0.572 0.0
H1822 H 0.47944 0.90042 0.57147 0.0
H1823 H 0.4549 0.90396 0.55978 0.0
H1824 H 0.46715 0.93567 0.61073 0.0
H1825 H 0.4917 0.93222 0.62259 0.0
H1826 H 0.47088 0.92887 0.65781 0.0
H1827 H 0.4322 0.84278 0.70785 0.0
H1828 H 0.47011 0.84465 0.71678 0.0
H1829 H 0.50109 0.89891 0.63283 0.0
C1830 C 0.41746 0.89649 0.61595 0.0
C1831 C 0.39444 0.88553 0.63004 0.0
C1832 C 0.38755 0.86778 0.65721 0.0
C1833 C 0.40336 0.86117 0.67041 0.0
C1834 C 0.42594 0.87242 0.65609 0.0
C1835 C 0.43299 0.88966 0.62941 0.0
C1836 C 0.45841 0.89934 0.6192 0.0
C1837 C 0.4609 0.89452 0.57818 0.0
C1838 C 0.47288 0.92558 0.62813 0.0
C1839 C 0.46463 0.88507 0.6447 0.0
C1840 C 0.44563 0.86956 0.66558 0.0
C1841 C 0.44719 0.85479 0.69154 0.0
C1842 C 0.46881 0.856 0.69641 0.0
C1843 C 0.48859 0.87192 0.6755 0.0
C1844 C 0.48632 0.88651 0.64918 0.0
H1845 H 0.20188 0.44 0.1895 0.0
H1846 H 0.22611 0.48499 0.28654 0.0
H1847 H 0.26535 0.48978 0.27851 0.0
H1848 H 0.23358 0.41049 0.20688 0.0
H1849 H 0.24006 0.40891 0.15873 0.0
H1850 H 0.21408 0.40967 0.17118 0.0
H1851 H 0.22688 0.44587 0.12911 0.0
H1852 H 0.25286 0.44515 0.11637 0.0
H1853 H 0.2552 0.47136 0.13584 0.0
H1854 H 0.30158 0.4888 0.26105 0.0
H1855 H 0.33262 0.48286 0.23458 0.0
H1856 H 0.28477 0.43841 0.14893 0.0
C1857 C 0.21547 0.45101 0.20893 0.0
C1858 C 0.21091 0.46215 0.23865 0.0
C1859 C 0.22917 0.47631 0.26353 0.0
C1860 C 0.25152 0.47913 0.25923 0.0
C1861 C 0.25533 0.4677 0.22988 0.0
C1862 C 0.23785 0.454 0.20507 0.0
C1863 C 0.24644 0.44335 0.17624 0.0
C1864 C 0.23272 0.41651 0.17841 0.0
C1865 C 0.24528 0.45196 0.13708 0.0
C1866 C 0.27146 0.45309 0.18887 0.0
C1867 C 0.27622 0.46711 0.21983 0.0
C1868 C 0.29808 0.47792 0.23674 0.0
C1869 C 0.31559 0.47439 0.22151 0.0
C1870 C 0.31115 0.46016 0.18967 0.0
C1871 C 0.28873 0.44938 0.17327 0.0
H1872 H 0.53325 0.80567 0.13913 0.0
H1873 H 0.58325 0.85865 0.21384 0.0
H1874 H 0.59031 0.82914 0.2435 0.0
H1875 H 0.50928 0.75757 0.20548 0.0
H1876 H 0.50653 0.73631 0.1715 0.0
H1877 H 0.50434 0.7613 0.15739 0.0
H1878 H 0.53755 0.77237 0.10955 0.0
H1879 H 0.53982 0.74744 0.12349 0.0
H1880 H 0.5652 0.77623 0.12498 0.0
H1881 H 0.5929 0.79437 0.26387 0.0
H1882 H 0.59184 0.75684 0.27226 0.0
H1883 H 0.54067 0.72645 0.18368 0.0
C1884 C 0.54551 0.81102 0.16196 0.0
C1885 C 0.55763 0.83446 0.17424 0.0
C1886 C 0.57375 0.8408 0.20393 0.0
C1887 C 0.57784 0.82415 0.22106 0.0
C1888 C 0.56571 0.80124 0.20815 0.0
C1889 C 0.54992 0.79464 0.17924 0.0
C1890 C 0.53997 0.76906 0.16971 0.0
C1891 C 0.51346 0.75525 0.17643 0.0
C1892 C 0.546 0.76612 0.12956 0.0
C1893 C 0.55286 0.76242 0.19749 0.0
C1894 C 0.56745 0.7812 0.2196 0.0
C1895 C 0.58147 0.7795 0.24683 0.0
C1896 C 0.58074 0.75809 0.25138 0.0
C1897 C 0.56618 0.73868 0.22864 0.0
C1898 C 0.55193 0.74092 0.20158 0.0
H1899 H 0.15798 0.71809 0.15245 0.0
H1900 H 0.19676 0.68818 0.10192 0.0
H1901 H 0.23352 0.72527 0.11194 0.0
H1902 H 0.19265 0.77583 0.11444 0.0
H1903 H 0.19084 0.79031 0.15567 0.0
H1904 H 0.16757 0.76138 0.1445 0.0
H1905 H 0.17198 0.74664 0.20899 0.0
H1906 H 0.19527 0.77552 0.22036 0.0
H1907 H 0.20006 0.751 0.223 0.0
H1908 H 0.26611 0.76555 0.12787 0.0
H1909 H 0.29214 0.80624 0.14804 0.0
H1910 H 0.232 0.80982 0.18791 0.0
C1911 C 0.17418 0.71931 0.14346 0.0
C1912 C 0.17447 0.70019 0.12641 0.0
C1913 C 0.19607 0.70256 0.11504 0.0
C1914 C 0.21706 0.72357 0.12062 0.0
C1915 C 0.21615 0.74204 0.13756 0.0
C1916 C 0.19528 0.74014 0.14877 0.0
C1917 C 0.19911 0.76261 0.16631 0.0
C1918 C 0.18682 0.77315 0.14388 0.0
C1919 C 0.19113 0.7587 0.20708 0.0
C1920 C 0.22541 0.77744 0.16326 0.0
C1921 C 0.23491 0.76525 0.14662 0.0
C1922 C 0.25887 0.77528 0.1409 0.0
C1923 C 0.27351 0.7984 0.15248 0.0
C1924 C 0.26413 0.81125 0.16955 0.0
C1925 C 0.23974 0.80052 0.17494 0.0
H1926 H 0.22118 0.22922 0.15541 0.0
H1927 H 0.15909 0.16287 0.13079 0.0
H1928 H 0.14943 0.15702 0.19737 0.0
H1929 H 0.23603 0.21111 0.24063 0.0
H1930 H 0.24574 0.23864 0.26376 0.0
H1931 H 0.24795 0.23773 0.21402 0.0
H1932 H 0.22398 0.25876 0.20676 0.0
H1933 H 0.22166 0.2597 0.25648 0.0
H1934 H 0.19565 0.24649 0.22831 0.0
H1935 H 0.14636 0.15809 0.26601 0.0
H1936 H 0.15009 0.16597 0.33318 0.0
H1937 H 0.21397 0.23181 0.31404 0.0
C1938 C 0.20558 0.21345 0.16403 0.0
C1939 C 0.19089 0.19649 0.13785 0.0
C1940 C 0.17061 0.17611 0.15028 0.0
C1941 C 0.16495 0.17261 0.18805 0.0
C1942 C 0.17972 0.18966 0.21309 0.0
C1943 C 0.19961 0.20968 0.20171 0.0
C1944 C 0.21243 0.22524 0.2345 0.0
C1945 C 0.23699 0.22836 0.23845 0.0
C1946 C 0.21348 0.24895 0.23131 0.0
C1947 C 0.19661 0.21079 0.26602 0.0
C1948 C 0.17787 0.19035 0.25296 0.0
C1949 C 0.16094 0.17405 0.27662 0.0
C1950 C 0.16323 0.1787 0.31476 0.0
C1951 C 0.18231 0.19952 0.32891 0.0
C1952 C 0.19915 0.21578 0.30409 0.0
H1953 H 0.77478 0.02038 0.18469 0.0
H1954 H 0.70144 0.96826 0.1731 0.0
H1955 H 0.69743 0.96583 0.24143 0.0
H1956 H 0.78656 0.99484 0.26039 0.0
H1957 H 0.80635 0.02209 0.28275 0.0
H1958 H 0.80283 0.021 0.23316 0.0
H1959 H 0.79194 0.05358 0.2366 0.0
H1960 H 0.79544 0.0548 0.2863 0.0
H1961 H 0.76832 0.04975 0.26629 0.0
H1962 H 0.70238 0.96711 0.31121 0.0
H1963 H 0.71584 0.972 0.37635 0.0
H1964 H 0.78567 0.02387 0.34129 0.0
C1965 C 0.75777 0.00864 0.19641 0.0
C1966 C 0.73843 0.99447 0.17353 0.0
C1967 C 0.71651 0.97929 0.19008 0.0
C1968 C 0.71404 0.97785 0.22886 0.0
C1969 C 0.73359 0.99189 0.25059 0.0
C1970 C 0.75499 0.00708 0.23489 0.0
C1971 C 0.77356 0.01951 0.26417 0.0
C1972 C 0.79349 0.01402 0.25985 0.0
C1973 C 0.78285 0.04598 0.26328 0.0
C1974 C 0.75943 0.00854 0.29886 0.0
C1975 C 0.73638 0.99276 0.29055 0.0
C1976 C 0.72033 0.9796 0.31806 0.0
C1977 C 0.72815 0.98247 0.35495 0.0
C1978 C 0.75179 0.99839 0.36391 0.0
C1979 C 0.76745 0.01177 0.33544 0.0
H1980 H 0.0063 0.81066 0.32302 0.0
H1981 H 0.01435 0.751 0.34963 0.0
H1982 H 0.01221 0.7415 0.28286 0.0
H1983 H 0.96536 0.78367 0.24831 0.0
H1984 H 0.97757 0.80998 0.22089 0.0
H1985 H 0.97956 0.81183 0.27074 0.0
H1986 H 0.02454 0.83798 0.26609 0.0
H1987 H 0.0227 0.83617 0.21623 0.0
H1988 H 0.04109 0.82767 0.24059 0.0
H1989 H 0.00938 0.73877 0.21276 0.0
H1990 H 0.00587 0.74293 0.1452 0.0
H1991 H -0.0001 0.8045 0.16541 0.0
C1992 C 0.00756 0.79555 0.3149 0.0
C1993 C 0.01048 0.78156 0.34157 0.0
C1994 C 0.01209 0.76197 0.32969 0.0
C1995 C 0.0109 0.75644 0.29184 0.0
C1996 C 0.00811 0.77067 0.26628 0.0
C1997 C 0.00643 0.78981 0.27734 0.0
C1998 C 0.0036 0.80238 0.24445 0.0
C1999 C 0.98012 0.80193 0.24621 0.0
C2000 C 0.02421 0.82754 0.24169 0.0
C2001 C 0.00397 0.78737 0.21308 0.0
C2002 C 0.00656 0.76915 0.22616 0.0
C2003 C 0.00734 0.75297 0.20221 0.0
C2004 C 0.00534 0.75549 0.1639 0.0
C2005 C 0.00263 0.77404 0.15 0.0
C2006 C 0.00199 0.79014 0.17508 0.0
H2007 H 0.80947 0.82503 0.82931 0.0
H2008 H 0.7478 0.75773 0.85042 0.0
H2009 H 0.74257 0.75026 0.78298 0.0
H2010 H 0.78812 0.83907 0.74632 0.0
H2011 H 0.81614 0.85256 0.72356 0.0
H2012 H 0.81456 0.85293 0.77345 0.0
H2013 H 0.84019 0.83351 0.77813 0.0
H2014 H 0.84185 0.83308 0.72828 0.0
H2015 H 0.83123 0.80636 0.75422 0.0
H2016 H 0.74456 0.74976 0.71332 0.0
H2017 H 0.75395 0.75606 0.6465 0.0
H2018 H 0.81446 0.82357 0.67123 0.0
C2019 C 0.79477 0.80878 0.8198 0.0
C2020 C 0.77902 0.79199 0.84515 0.0
C2021 C 0.7601 0.77087 0.83152 0.0
C2022 C 0.75695 0.76647 0.79327 0.0
C2023 C 0.77287 0.78335 0.76906 0.0
C2024 C 0.79141 0.80407 0.78177 0.0
C2025 C 0.80636 0.81907 0.75 0.0
C2026 C 0.80628 0.84228 0.74824 0.0
C2027 C 0.83139 0.82324 0.75284 0.0
C2028 C 0.79342 0.80348 0.71743 0.0
C2029 C 0.7741 0.78301 0.72898 0.0
C2030 C 0.75961 0.76576 0.70392 0.0
C2031 C 0.76509 0.7695 0.66603 0.0
C2032 C 0.78494 0.79031 0.65361 0.0
C2033 C 0.79915 0.80751 0.67978 0.0
H2034 H 0.23252 0.02001 0.6491 0.0
H2035 H 0.25477 0.96873 0.63611 0.0
H2036 H 0.253 0.96329 0.70419 0.0
H2037 H 0.26455 0.04627 0.73281 0.0
H2038 H 0.24191 0.05061 0.75237 0.0
H2039 H 0.2452 0.05053 0.70276 0.0
H2040 H 0.20198 0.01771 0.69666 0.0
H2041 H 0.19856 0.01768 0.74624 0.0
H2042 H 0.19181 0.99101 0.72254 0.0
H2043 H 0.24884 0.96368 0.77398 0.0
H2044 H 0.24195 0.9693 0.83965 0.0
H2045 H 0.22196 0.01994 0.80596 0.0
C2046 C 0.23708 0.00765 0.66048 0.0
C2047 C 0.24383 0.99482 0.63726 0.0
C2048 C 0.24957 0.97877 0.65335 0.0
C2049 C 0.24863 0.97558 0.69197 0.0
C2050 C 0.24189 0.98853 0.71402 0.0
C2051 C 0.23619 0.00422 0.69881 0.0
C2052 C 0.22929 0.01586 0.72843 0.0
C2053 C 0.24625 0.04239 0.72912 0.0
C2054 C 0.2039 0.01021 0.72315 0.0
C2055 C 0.23188 0.0042 0.76275 0.0
C2056 C 0.23927 0.98857 0.75394 0.0
C2057 C 0.24303 0.97586 0.78118 0.0
C2058 C 0.23909 0.97919 0.81839 0.0
C2059 C 0.23136 0.99502 0.82793 0.0
C2060 C 0.22776 0.00764 0.79961 0.0
H2061 H 0.95544 0.18796 0.69092 0.0
H2062 H 0.99792 0.26167 0.66445 0.0
H2063 H 0.00452 0.2709 0.73135 0.0
H2064 H 0.92835 0.19541 0.77392 0.0
H2065 H 0.92871 0.17172 0.79807 0.0
H2066 H 0.9265 0.17114 0.7482 0.0
H2067 H 0.96297 0.16629 0.74317 0.0
H2068 H 0.96531 0.16688 0.79297 0.0
H2069 H 0.98979 0.18733 0.76535 0.0
H2070 H 0.00846 0.27172 0.80107 0.0
H2071 H 0.0085 0.26412 0.86826 0.0
H2072 H 0.96263 0.19001 0.84847 0.0
C2073 C 0.96598 0.20608 0.69913 0.0
C2074 C 0.97619 0.22409 0.67247 0.0
C2075 C 0.98989 0.24757 0.68441 0.0
C2076 C 0.99373 0.253 0.72233 0.0
C2077 C 0.9836 0.23477 0.74787 0.0
C2078 C 0.96988 0.2118 0.73677 0.0
C2079 C 0.96144 0.19538 0.76964 0.0
C2080 C 0.93466 0.18267 0.77262 0.0
C2081 C 0.97042 0.17795 0.76765 0.0
C2082 C 0.97285 0.21265 0.80098 0.0
C2083 C 0.98554 0.23528 0.78792 0.0
C2084 C 0.9984 0.25409 0.81165 0.0
C2085 C 0.99835 0.2496 0.84973 0.0
C2086 C 0.98546 0.2265 0.8636 0.0
C2087 C 0.97243 0.20789 0.83881 0.0
H2088 H 0.89505 0.56463 0.48713 0.0
H2089 H 0.89066 0.62605 0.45792 0.0
H2090 H 0.88888 0.63407 0.52451 0.0
H2091 H 0.85504 0.54637 0.56238 0.0
H2092 H 0.87093 0.53643 0.59044 0.0
H2093 H 0.87283 0.53614 0.54062 0.0
H2094 H 0.91793 0.5614 0.54445 0.0
H2095 H 0.91618 0.56171 0.59432 0.0
H2096 H 0.93096 0.58883 0.56903 0.0
H2097 H 0.88656 0.6347 0.59453 0.0
H2098 H 0.88413 0.62802 0.66228 0.0
H2099 H 0.88977 0.56602 0.64486 0.0
C2100 C 0.8939 0.57989 0.49465 0.0
C2101 C 0.89304 0.59475 0.46728 0.0
C2102 C 0.89138 0.61444 0.47839 0.0
C2103 C 0.89036 0.61914 0.51614 0.0
C2104 C 0.89103 0.60399 0.54237 0.0
C2105 C 0.89281 0.5848 0.53208 0.0
C2106 C 0.89273 0.57095 0.56557 0.0
C2107 C 0.87162 0.546 0.56469 0.0
C2108 C 0.91582 0.57072 0.56851 0.0
C2109 C 0.89047 0.58526 0.59636 0.0
C2110 C 0.88958 0.60428 0.58248 0.0
C2111 C 0.8873 0.61989 0.60571 0.0
C2112 C 0.88591 0.61593 0.64415 0.0
C2113 C 0.88676 0.5965 0.65892 0.0
C2114 C 0.88908 0.58104 0.63453 0.0
H2115 H 0.46527 0.3417 0.49968 0.0
H2116 H 0.39255 0.32055 0.47989 0.0
H2117 H 0.38578 0.31864 0.5476 0.0
H2118 H 0.45571 0.30511 0.57875 0.0
H2119 H 0.48167 0.32644 0.60255 0.0
H2120 H 0.48066 0.32617 0.55261 0.0
H2121 H 0.49121 0.36959 0.55263 0.0
H2122 H 0.49218 0.36997 0.60259 0.0
H2123 H 0.47342 0.37817 0.57865 0.0
H2124 H 0.38702 0.31882 0.6177 0.0
H2125 H 0.39605 0.32076 0.68458 0.0
H2126 H 0.46805 0.34214 0.65789 0.0
C2127 C 0.44788 0.33662 0.50949 0.0
C2128 C 0.42942 0.33124 0.48444 0.0
C2129 C 0.40697 0.32474 0.49853 0.0
C2130 C 0.40296 0.32363 0.53694 0.0
C2131 C 0.42159 0.32912 0.56084 0.0
C2132 C 0.4436 0.33548 0.54764 0.0
C2133 C 0.46065 0.34049 0.57908 0.0
C2134 C 0.47023 0.32354 0.57819 0.0
C2135 C 0.48054 0.36608 0.57817 0.0
C2136 C 0.44479 0.33587 0.6121 0.0
C2137 C 0.42233 0.32935 0.60104 0.0
C2138 C 0.40456 0.32395 0.62667 0.0
C2139 C 0.40987 0.32511 0.6646 0.0
C2140 C 0.43277 0.33164 0.67652 0.0
C2141 C 0.4504 0.33719 0.64976 0.0
H2142 H 0.65938 0.13691 0.66622 0.0
H2143 H 0.66496 0.07574 0.6922 0.0
H2144 H 0.66487 0.06766 0.62523 0.0
H2145 H 0.62145 0.1125 0.58559 0.0
H2146 H 0.63563 0.13974 0.56055 0.0
H2147 H 0.63472 0.13981 0.61052 0.0
H2148 H 0.67985 0.16537 0.61255 0.0
H2149 H 0.68091 0.16532 0.56264 0.0
H2150 H 0.69742 0.15544 0.58919 0.0
H2151 H 0.66596 0.06735 0.55523 0.0
H2152 H 0.66818 0.07488 0.48773 0.0
H2153 H 0.66213 0.13638 0.50826 0.0
C2154 C 0.66033 0.12166 0.65791 0.0
C2155 C 0.66213 0.10693 0.68446 0.0
C2156 C 0.66353 0.08726 0.67235 0.0
C2157 C 0.66346 0.08251 0.63438 0.0
C2158 C 0.66194 0.09756 0.60894 0.0
C2159 C 0.66033 0.1167 0.62021 0.0
C2160 C 0.65974 0.13064 0.58736 0.0
C2161 C 0.6365 0.13066 0.58593 0.0
C2162 C 0.68073 0.15566 0.58798 0.0
C2163 C 0.66159 0.11654 0.55583 0.0
C2164 C 0.66269 0.09745 0.56878 0.0
C2165 C 0.66497 0.08217 0.54476 0.0
C2166 C 0.66624 0.08661 0.50648 0.0
C2167 C 0.66533 0.10621 0.4927 0.0
C2168 C 0.66284 0.12122 0.51785 0.0
H2169 H 0.44324 0.1257 0.16163 0.0
H2170 H 0.4274 0.05401 0.1758 0.0
H2171 H 0.42381 0.04847 0.10777 0.0
H2172 H 0.40412 0.11505 0.08328 0.0
H2173 H 0.42418 0.1422 0.06095 0.0
H2174 H 0.42395 0.13992 0.1108 0.0
H2175 H 0.46815 0.15358 0.11019 0.0
H2176 H 0.46853 0.15588 0.06041 0.0
H2177 H 0.47852 0.13795 0.08234 0.0
H2178 H 0.42438 0.05164 0.03788 0.0
H2179 H 0.42893 0.06322 0.97184 0.0
H2180 H 0.44409 0.13271 0.00415 0.0
C2181 C 0.43875 0.10873 0.15054 0.0
C2182 C 0.43556 0.09026 0.17406 0.0
C2183 C 0.42988 0.0684 0.15833 0.0
C2184 C 0.42777 0.06508 0.11973 0.0
C2185 C 0.43129 0.08375 0.09733 0.0
C2186 C 0.43657 0.10512 0.1122 0.0
C2187 C 0.44044 0.12267 0.08213 0.0
C2188 C 0.42207 0.13041 0.08444 0.0
C2189 C 0.46539 0.14375 0.08388 0.0
C2190 C 0.43692 0.10798 0.04795 0.0
C2191 C 0.43152 0.08554 0.05725 0.0
C2192 C 0.42839 0.0691 0.03028 0.0
C2193 C 0.43104 0.07585 0.99285 0.0
C2194 C 0.43678 0.09884 0.9828 0.0
C2195 C 0.4395 0.11495 0.01084 0.0
H2196 H 0.88134 0.36583 0.16481 0.0
H2197 H 0.92122 0.33328 0.20009 0.0
H2198 H 0.9275 0.32695 0.1347 0.0
H2199 H 0.8525 0.32766 0.08895 0.0
H2200 H 0.85371 0.3501 0.05906 0.0
H2201 H 0.85305 0.353 0.10867 0.0
H2202 H 0.8912 0.3931 0.10564 0.0
H2203 H 0.89193 0.39037 0.05597 0.0
H2204 H 0.91668 0.39521 0.08363 0.0
H2205 H 0.92818 0.32266 0.066 0.0
H2206 H 0.92415 0.32168 0.99791 0.0
H2207 H 0.88419 0.35735 0.00683 0.0
C2208 C 0.89155 0.35754 0.1588 0.0
C2209 C 0.90079 0.35006 0.18762 0.0
C2210 C 0.91398 0.33919 0.17854 0.0
C2211 C 0.91765 0.33551 0.14146 0.0
C2212 C 0.9081 0.34286 0.11377 0.0
C2213 C 0.89543 0.35375 0.1219 0.0
C2214 C 0.88676 0.3596 0.08683 0.0
C2215 C 0.85992 0.34682 0.08583 0.0
C2216 C 0.89728 0.38615 0.08279 0.0
C2217 C 0.89638 0.35009 0.05777 0.0
C2218 C 0.90864 0.34052 0.07396 0.0
C2219 C 0.91874 0.33021 0.05295 0.0
C2220 C 0.9163 0.3297 0.01429 0.0
C2221 C 0.90389 0.33947 0.99702 0.0
C2222 C 0.89386 0.34983 0.01918 0.0
H2223 H 0.63857 0.53313 0.15435 0.0
H2224 H 0.68239 0.60684 0.1797 0.0
H2225 H 0.68311 0.61633 0.11327 0.0
H2226 H 0.66747 0.5337 0.07253 0.0
H2227 H 0.64153 0.51295 0.04806 0.0
H2228 H 0.64244 0.51212 0.09792 0.0
H2229 H 0.60532 0.5159 0.10191 0.0
H2230 H 0.60424 0.51667 0.05198 0.0
H2231 H 0.60489 0.53993 0.07903 0.0
H2232 H 0.68135 0.61757 0.04377 0.0
H2233 H 0.67756 0.61041 0.97618 0.0
H2234 H 0.63523 0.53586 0.99638 0.0
C2235 C 0.64798 0.55131 0.14606 0.0
C2236 C 0.66034 0.56925 0.17223 0.0
C2237 C 0.67276 0.59279 0.16013 0.0
C2238 C 0.67322 0.59837 0.12248 0.0
C2239 C 0.66116 0.58022 0.09732 0.0
C2240 C 0.64873 0.55716 0.1086 0.0
C2241 C 0.63847 0.54084 0.07576 0.0
C2242 C 0.64806 0.52392 0.07344 0.0
C2243 C 0.61164 0.52755 0.07727 0.0
C2244 C 0.64746 0.55828 0.04421 0.0
C2245 C 0.66032 0.58091 0.05723 0.0
C2246 C 0.67114 0.59993 0.03323 0.0
C2247 C 0.66891 0.59568 0.99489 0.0
C2248 C 0.65607 0.57259 0.98097 0.0
C2249 C 0.64503 0.55373 0.0061 0.0
H2250 H 0.57966 0.86248 0.01324 0.0
H2251 H 0.56665 0.92043 0.02424 0.0
H2252 H 0.56425 0.92229 0.95617 0.0
H2253 H 0.61471 0.88269 0.92869 0.0
H2254 H 0.60233 0.85372 0.90947 0.0
H2255 H 0.60447 0.8578 0.95906 0.0
H2256 H 0.56001 0.8291 0.96536 0.0
H2257 H 0.55773 0.82494 0.91583 0.0
H2258 H 0.53984 0.83442 0.93935 0.0
H2259 H 0.56127 0.91673 0.88749 0.0
H2260 H 0.55766 0.90389 0.82235 0.0
H2261 H 0.57257 0.84953 0.85558 0.0
C2262 C 0.5766 0.87574 0.00132 0.0
C2263 C 0.57342 0.89136 0.02408 0.0
C2264 C 0.56914 0.90827 0.00739 0.0
C2265 C 0.5678 0.90952 0.96874 0.0
C2266 C 0.57078 0.89374 0.94713 0.0
C2267 C 0.57509 0.87717 0.96274 0.0
C2268 C 0.57658 0.86162 0.93323 0.0
C2269 C 0.60098 0.86412 0.93258 0.0
C2270 C 0.5574 0.83601 0.93878 0.0
C2271 C 0.57223 0.87193 0.89867 0.0
C2272 C 0.56902 0.8905 0.90733 0.0
C2273 C 0.56391 0.90232 0.88029 0.0
C2274 C 0.56186 0.89486 0.84338 0.0
C2275 C 0.56491 0.87576 0.83383 0.0
C2276 C 0.57037 0.86433 0.86191 0.0
H2277 H 0.1221 0.68268 0.98382 0.0
H2278 H 0.07352 0.61103 0.01564 0.0
H2279 H 0.06454 0.60032 0.94959 0.0
H2280 H 0.08877 0.6854 0.90643 0.0
H2281 H 0.11423 0.7029 0.87834 0.0
H2282 H 0.1163 0.70503 0.92819 0.0
H2283 H 0.14971 0.69529 0.92675 0.0
H2284 H 0.14773 0.69311 0.87692 0.0
H2285 H 0.14499 0.66896 0.90406 0.0
H2286 H 0.06117 0.59734 0.8799 0.0
H2287 H 0.0643 0.60223 0.81175 0.0
H2288 H 0.11553 0.67567 0.82591 0.0
C2289 C 0.10947 0.66476 0.97696 0.0
C2290 C 0.09846 0.64771 0.00492 0.0
C2291 C 0.08217 0.62441 0.9947 0.0
C2292 C 0.07693 0.61815 0.95727 0.0
C2293 C 0.08816 0.63537 0.9304 0.0
C2294 C 0.10412 0.65819 0.93977 0.0
C2295 C 0.11416 0.67325 0.90556 0.0
C2296 C 0.10798 0.6928 0.90458 0.0
C2297 C 0.14072 0.68323 0.90319 0.0
C2298 C 0.10143 0.65531 0.87548 0.0
C2299 C 0.08642 0.6336 0.89034 0.0
C2300 C 0.07285 0.61427 0.86793 0.0
C2301 C 0.07474 0.61722 0.82927 0.0
C2302 C 0.09017 0.63931 0.81348 0.0
C2303 C 0.1036 0.65855 0.83706 0.0
H2304 H 0.35495 0.4493 0.00116 0.0
H2305 H 0.32172 0.37415 0.01536 0.0
H2306 H 0.31805 0.36908 0.9472 0.0
H2307 H 0.31997 0.44871 0.92615 0.0
H2308 H 0.34362 0.47319 0.90267 0.0
H2309 H 0.34425 0.47073 0.95235 0.0
H2310 H 0.38457 0.47322 0.94782 0.0
H2311 H 0.38403 0.47562 0.89806 0.0
H2312 H 0.38784 0.45289 0.91861 0.0
H2313 H 0.31646 0.37236 0.87726 0.0
H2314 H 0.31737 0.3837 0.8116 0.0
H2315 H 0.35254 0.45672 0.84406 0.0
C2316 C 0.34695 0.43175 0.99004 0.0
C2317 C 0.33857 0.41211 0.01364 0.0
C2318 C 0.32826 0.38947 0.99784 0.0
C2319 C 0.32612 0.38641 0.95916 0.0
C2320 C 0.33451 0.40619 0.93673 0.0
C2321 C 0.34479 0.42841 0.95164 0.0
C2322 C 0.35207 0.44679 0.92169 0.0
C2323 C 0.3392 0.46066 0.92598 0.0
C2324 C 0.37871 0.46309 0.92154 0.0
C2325 C 0.344 0.43145 0.88752 0.0
C2326 C 0.33395 0.40808 0.89669 0.0
C2327 C 0.32445 0.39062 0.86976 0.0
C2328 C 0.32504 0.39723 0.83256 0.0
C2329 C 0.33514 0.4211 0.82266 0.0
C2330 C 0.34494 0.43835 0.8506 0.0
H2331 H 0.1453 0.44685 0.51178 0.0
H2332 H 0.073 0.39835 0.54017 0.0
H2333 H 0.06458 0.38654 0.47437 0.0
H2334 H 0.13402 0.46642 0.42799 0.0
H2335 H 0.15904 0.46882 0.40394 0.0
H2336 H 0.15973 0.47198 0.45359 0.0
H2337 H 0.16973 0.43892 0.46071 0.0
H2338 H 0.1691 0.43568 0.411 0.0
H2339 H 0.15095 0.41083 0.43984 0.0
H2340 H 0.06354 0.38204 0.40468 0.0
H2341 H 0.07005 0.38528 0.33684 0.0
H2342 H 0.14306 0.43657 0.35487 0.0
C2343 C 0.12775 0.43353 0.50431 0.0
C2344 C 0.10982 0.4235 0.53114 0.0
C2345 C 0.08704 0.40625 0.5201 0.0
C2346 C 0.08209 0.39939 0.48281 0.0
C2347 C 0.10013 0.40986 0.45699 0.0
C2348 C 0.12252 0.42649 0.46731 0.0
C2349 C 0.13855 0.43587 0.43404 0.0
C2350 C 0.1484 0.46233 0.42964 0.0
C2351 C 0.15824 0.42996 0.43656 0.0
C2352 C 0.12158 0.42229 0.40328 0.0
C2353 C 0.09954 0.40724 0.41702 0.0
C2354 C 0.08079 0.3936 0.39362 0.0
C2355 C 0.08465 0.39558 0.35514 0.0
C2356 C 0.10707 0.41112 0.34052 0.0
C2357 C 0.12575 0.42439 0.3651 0.0
H2358 H 0.52508 0.65834 0.35107 0.0
H2359 H 0.58944 0.66136 0.31639 0.0
H2360 H 0.59847 0.65789 0.38185 0.0
H2361 H 0.54774 0.69223 0.43386 0.0
H2362 H 0.52135 0.67513 0.46017 0.0
H2363 H 0.51988 0.67754 0.41058 0.0
H2364 H 0.49794 0.63241 0.40469 0.0
H2365 H 0.49928 0.62986 0.45427 0.0
H2366 H 0.51075 0.61626 0.42407 0.0
H2367 H 0.60045 0.65424 0.45152 0.0
H2368 H 0.59499 0.65038 0.51957 0.0
H2369 H 0.52944 0.65003 0.50777 0.0
C2370 C 0.54106 0.6582 0.35714 0.0
C2371 C 0.55654 0.66009 0.32859 0.0
C2372 C 0.57729 0.6599 0.33781 0.0
C2373 C 0.58259 0.65796 0.3749 0.0
C2374 C 0.56696 0.65623 0.40238 0.0
C2375 C 0.54661 0.65631 0.39392 0.0
C2376 C 0.53277 0.65433 0.42851 0.0
C2377 C 0.5303 0.67611 0.43357 0.0
C2378 C 0.50877 0.63188 0.42783 0.0
C2379 C 0.5485 0.65312 0.45782 0.0
C2380 C 0.56814 0.65424 0.44227 0.0
C2381 C 0.58513 0.65335 0.46399 0.0
C2382 C 0.58188 0.65117 0.50261 0.0
C2383 C 0.56181 0.64992 0.51904 0.0
C2384 C 0.54501 0.65099 0.49616 0.0
H2385 H 0.34518 0.87297 0.33656 0.0
H2386 H 0.29342 0.89018 0.29764 0.0
H2387 H 0.28562 0.89654 0.36237 0.0
H2388 H 0.31451 0.84216 0.419 0.0
H2389 H 0.34066 0.85318 0.44659 0.0
H2390 H 0.34195 0.84975 0.39721 0.0
H2391 H 0.37392 0.89333 0.39155 0.0
H2392 H 0.37269 0.8969 0.44091 0.0
H2393 H 0.36829 0.91553 0.40941 0.0
H2394 H 0.28361 0.9012 0.43143 0.0
H2395 H 0.28762 0.90388 0.49968 0.0
H2396 H 0.3409 0.88389 0.49302 0.0
C2397 C 0.33213 0.878 0.3416 0.0
C2398 C 0.31989 0.88105 0.31201 0.0
C2399 C 0.30304 0.88774 0.31985 0.0
C2400 C 0.29847 0.89139 0.35652 0.0
C2401 C 0.31092 0.88831 0.385 0.0
C2402 C 0.32741 0.88177 0.37797 0.0
C2403 C 0.33854 0.87985 0.4135 0.0
C2404 C 0.33361 0.85474 0.41941 0.0
C2405 C 0.36492 0.89745 0.41385 0.0
C2406 C 0.32572 0.88631 0.44164 0.0
C2407 C 0.30985 0.89111 0.42468 0.0
C2408 C 0.29598 0.89748 0.44503 0.0
C2409 C 0.29839 0.89895 0.48378 0.0
C2410 C 0.31457 0.89411 0.50172 0.0
C2411 C 0.32838 0.88773 0.4802 0.0
loop_
_geom_bond_atom_site_label_1
_geom_bond_atom_site_label_2
_geom_bond_distance
_geom_bond_site_symmetry_2
_ccdc_geom_bond_type
C0 O1 1.160 . S
C0 O7 1.185 1_556 S
O1 C0 1.160 . S
O2 Zn3 1.899 . S
O2 C10 1.284 . S
Zn3 O2 1.899 . S
Zn3 O4 2.032 . S
Zn3 O7 2.086 . S
Zn3 O12 1.977 . S
O4 Zn3 2.032 . S
O4 C8 1.278 . S
C5 O6 1.203 . S
C5 O12 1.267 . S
O6 C5 1.203 . S
O7 C0 1.185 1_554 S
O7 Zn3 2.086 . S
C8 O4 1.278 . S
C8 O9 1.211 . S
O9 C8 1.211 . S
C10 O2 1.284 . S
C10 O11 1.273 . S
O11 C10 1.273 . S
O12 Zn3 1.977 . S
O12 C5 1.267 . S
C13 O14 1.160 . S
C13 O20 1.185 1_556 S
O14 C13 1.160 . S
O15 Zn16 1.899 1_565 S
O15 C23 1.284 . S
Zn16 O15 1.899 1_545 S
Zn16 O17 2.032 . S
Zn16 O20 2.086 . S
Zn16 O25 1.977 . S
O17 Zn16 2.032 . S
O17 C21 1.278 . S
C18 O19 1.203 1_545 S
C18 O25 1.267 . S
O19 C18 1.203 1_565 S
O20 C13 1.185 1_554 S
O20 Zn16 2.086 . S
C21 O17 1.278 . S
C21 O22 1.211 . S
O22 C21 1.211 . S
C23 O15 1.284 . S
C23 O24 1.273 . S
O24 C23 1.273 . S
O25 Zn16 1.977 . S
O25 C18 1.267 . S
C26 O27 1.160 . S
C26 O33 1.185 1_556 S
O27 C26 1.160 . S
O28 Zn29 1.899 1_455 S
O28 C36 1.284 . S
Zn29 O28 1.899 1_655 S
Zn29 O30 2.032 . S
Zn29 O33 2.086 . S
Zn29 O38 1.977 . S
O30 Zn29 2.032 . S
O30 C34 1.278 . S
C31 O32 1.203 1_655 S
C31 O38 1.267 . S
O32 C31 1.203 1_455 S
O33 C26 1.185 1_554 S
O33 Zn29 2.086 . S
C34 O30 1.278 . S
C34 O35 1.211 . S
O35 C34 1.211 . S
C36 O28 1.284 . S
C36 O37 1.273 . S
O37 C36 1.273 . S
O38 Zn29 1.977 . S
O38 C31 1.267 . S
C39 O40 1.160 . S
C39 O46 1.185 . S
O40 C39 1.160 . S
O41 Zn42 1.899 . S
O41 C49 1.284 . S
Zn42 O41 1.899 . S
Zn42 O43 2.032 . S
Zn42 O46 2.086 . S
Zn42 O51 1.977 . S
O43 Zn42 2.032 . S
O43 C47 1.278 . S
C44 O45 1.203 . S
C44 O51 1.267 . S
O45 C44 1.203 . S
O46 C39 1.185 . S
O46 Zn42 2.086 . S
C47 O43 1.278 . S
C47 O48 1.211 . S
O48 C47 1.211 . S
C49 O41 1.284 . S
C49 O50 1.273 . S
O50 C49 1.273 . S
O51 Zn42 1.977 . S
O51 C44 1.267 . S
C52 O53 1.160 . S
C52 O59 1.185 . S
O53 C52 1.160 . S
O54 Zn55 1.899 1_545 S
O54 C62 1.284 . S
Zn55 O54 1.899 1_565 S
Zn55 O56 2.032 . S
Zn55 O59 2.086 . S
Zn55 O64 1.977 . S
O56 Zn55 2.032 . S
O56 C60 1.278 . S
C57 O58 1.203 1_565 S
C57 O64 1.267 . S
O58 C57 1.203 1_545 S
O59 C52 1.185 . S
O59 Zn55 2.086 . S
C60 O56 1.278 . S
C60 O61 1.211 . S
O61 C60 1.211 . S
C62 O54 1.284 . S
C62 O63 1.273 . S
O63 C62 1.273 . S
O64 Zn55 1.977 . S
O64 C57 1.267 . S
C65 O66 1.160 . S
C65 O72 1.185 . S
O66 C65 1.160 . S
O67 Zn68 1.899 1_655 S
O67 C75 1.284 . S
Zn68 O67 1.899 1_455 S
Zn68 O69 2.032 . S
Zn68 O72 2.086 . S
Zn68 O77 1.977 . S
O69 Zn68 2.032 . S
O69 C73 1.278 . S
C70 O71 1.203 1_455 S
C70 O77 1.267 . S
O71 C70 1.203 1_655 S
O72 C65 1.185 . S
O72 Zn68 2.086 . S
C73 O69 1.278 . S
C73 O74 1.211 . S
O74 C73 1.211 . S
C75 O67 1.284 . S
C75 O76 1.273 . S
O76 C75 1.273 . S
O77 Zn68 1.977 . S
O77 C70 1.267 . S
C78 O79 1.160 . S
C78 O85 1.185 1_554 S
O79 C78 1.160 . S
O80 Zn81 1.899 . S
O80 C88 1.284 . S
Zn81 O80 1.899 . S
Zn81 O82 2.032 . S
Zn81 O85 2.086 . S
Zn81 O90 1.977 . S
O82 Zn81 2.032 . S
O82 C86 1.278 . S
C83 O84 1.203 . S
C83 O90 1.267 . S
O84 C83 1.203 . S
O85 C78 1.185 1_556 S
O85 Zn81 2.086 . S
C86 O82 1.278 . S
C86 O87 1.211 . S
O87 C86 1.211 . S
C88 O80 1.284 . S
C88 O89 1.273 . S
O89 C88 1.273 . S
O90 Zn81 1.977 . S
O90 C83 1.267 . S
C91 O92 1.160 . S
C91 O98 1.185 1_554 S
O92 C91 1.160 . S
O93 Zn94 1.899 1_545 S
O93 C101 1.284 . S
Zn94 O93 1.899 1_565 S
Zn94 O95 2.032 . S
Zn94 O98 2.086 . S
Zn94 O103 1.977 . S
O95 Zn94 2.032 . S
O95 C99 1.278 . S
C96 O97 1.203 1_565 S
C96 O103 1.267 . S
O97 C96 1.203 1_545 S
O98 C91 1.185 1_556 S
O98 Zn94 2.086 . S
C99 O95 1.278 . S
C99 O100 1.211 . S
O100 C99 1.211 . S
C101 O93 1.284 . S
C101 O102 1.273 . S
O102 C101 1.273 . S
O103 Zn94 1.977 . S
O103 C96 1.267 . S
C104 O105 1.160 . S
C104 O111 1.185 1_554 S
O105 C104 1.160 . S
O106 Zn107 1.899 1_655 S
O106 C114 1.284 . S
Zn107 O106 1.899 1_455 S
Zn107 O108 2.032 . S
Zn107 O111 2.086 . S
Zn107 O116 1.977 . S
O108 Zn107 2.032 . S
O108 C112 1.278 . S
C109 O110 1.203 1_455 S
C109 O116 1.267 . S
O110 C109 1.203 1_655 S
O111 C104 1.185 1_556 S
O111 Zn107 2.086 . S
C112 O108 1.278 . S
C112 O113 1.211 . S
O113 C112 1.211 . S
C114 O106 1.284 . S
C114 O115 1.273 . S
O115 C114 1.273 . S
O116 Zn107 1.977 . S
O116 C109 1.267 . S
C117 O118 1.160 . S
C117 O124 1.185 . S
O118 C117 1.160 . S
O119 Zn120 1.899 . S
O119 C127 1.284 . S
Zn120 O119 1.899 . S
Zn120 O121 2.032 . S
Zn120 O124 2.086 . S
Zn120 O129 1.977 . S
O121 Zn120 2.032 . S
O121 C125 1.278 . S
C122 O123 1.203 . S
C122 O129 1.267 . S
O123 C122 1.203 . S
O124 C117 1.185 . S
O124 Zn120 2.086 . S
C125 O121 1.278 . S
C125 O126 1.211 . S
O126 C125 1.211 . S
C127 O119 1.284 . S
C127 O128 1.273 . S
O128 C127 1.273 . S
O129 Zn120 1.977 . S
O129 C122 1.267 . S
C130 O131 1.160 . S
C130 O137 1.185 . S
O131 C130 1.160 . S
O132 Zn133 1.899 1_565 S
O132 C140 1.284 . S
Zn133 O132 1.899 1_545 S
Zn133 O134 2.032 . S
Zn133 O137 2.086 . S
Zn133 O142 1.977 . S
O134 Zn133 2.032 . S
O134 C138 1.278 . S
C135 O136 1.203 1_545 S
C135 O142 1.267 . S
O136 C135 1.203 1_565 S
O137 C130 1.185 . S
O137 Zn133 2.086 . S
C138 O134 1.278 . S
C138 O139 1.211 . S
O139 C138 1.211 . S
C140 O132 1.284 . S
C140 O141 1.273 . S
O141 C140 1.273 . S
O142 Zn133 1.977 . S
O142 C135 1.267 . S
C143 O144 1.160 . S
C143 O150 1.185 . S
O144 C143 1.160 . S
O145 Zn146 1.899 1_455 S
O145 C153 1.284 . S
Zn146 O145 1.899 1_655 S
Zn146 O147 2.032 . S
Zn146 O150 2.086 . S
Zn146 O155 1.977 . S
O147 Zn146 2.032 . S
O147 C151 1.278 . S
C148 O149 1.203 1_655 S
C148 O155 1.267 . S
O149 C148 1.203 1_455 S
O150 C143 1.185 . S
O150 Zn146 2.086 . S
C151 O147 1.278 . S
C151 O152 1.211 . S
O152 C151 1.211 . S
C153 O145 1.284 . S
C153 O154 1.273 . S
O154 C153 1.273 . S
O155 Zn146 1.977 . S
O155 C148 1.267 . S
C156 O157 1.160 . S
C156 O163 1.185 . S
O157 C156 1.160 . S
O158 Zn159 1.899 . S
O158 C166 1.284 . S
Zn159 O158 1.899 . S
Zn159 O160 2.032 . S
Zn159 O163 2.086 . S
Zn159 O168 1.977 . S
O160 Zn159 2.032 . S
O160 C164 1.278 . S
C161 O162 1.203 . S
C161 O168 1.267 . S
O162 C161 1.203 . S
O163 C156 1.185 . S
O163 Zn159 2.086 . S
C164 O160 1.278 . S
C164 O165 1.211 . S
O165 C164 1.211 . S
C166 O158 1.284 . S
C166 O167 1.273 . S
O167 C166 1.273 . S
O168 Zn159 1.977 . S
O168 C161 1.267 . S
C169 O170 1.160 . S
C169 O176 1.185 . S
O170 C169 1.160 . S
O171 Zn172 1.899 . S
O171 C179 1.284 . S
Zn172 O171 1.899 . S
Zn172 O173 2.032 . S
Zn172 O176 2.086 . S
Zn172 O181 1.977 . S
O173 Zn172 2.032 . S
O173 C177 1.278 . S
C174 O175 1.203 . S
C174 O181 1.267 . S
O175 C174 1.203 . S
O176 C169 1.185 . S
O176 Zn172 2.086 . S
C177 O173 1.278 . S
C177 O178 1.211 . S
O178 C177 1.211 . S
C179 O171 1.284 . S
C179 O180 1.273 . S
O180 C179 1.273 . S
O181 Zn172 1.977 . S
O181 C174 1.267 . S
C182 O183 1.160 . S
C182 O189 1.185 . S
O183 C182 1.160 . S
O184 Zn185 1.899 . S
O184 C192 1.284 . S
Zn185 O184 1.899 . S
Zn185 O186 2.032 . S
Zn185 O189 2.086 . S
Zn185 O194 1.977 . S
O186 Zn185 2.032 . S
O186 C190 1.278 . S
C187 O188 1.203 . S
C187 O194 1.267 . S
O188 C187 1.203 . S
O189 C182 1.185 . S
O189 Zn185 2.086 . S
C190 O186 1.278 . S
C190 O191 1.211 . S
O191 C190 1.211 . S
C192 O184 1.284 . S
C192 O193 1.273 . S
O193 C192 1.273 . S
O194 Zn185 1.977 . S
O194 C187 1.267 . S
C195 O196 1.160 . S
C195 O202 1.185 . S
O196 C195 1.160 . S
O197 Zn198 1.899 . S
O197 C205 1.284 . S
Zn198 O197 1.899 . S
Zn198 O199 2.032 . S
Zn198 O202 2.086 . S
Zn198 O207 1.977 . S
O199 Zn198 2.032 . S
O199 C203 1.278 . S
C200 O201 1.203 . S
C200 O207 1.267 . S
O201 C200 1.203 . S
O202 C195 1.185 . S
O202 Zn198 2.086 . S
C203 O199 1.278 . S
C203 O204 1.211 . S
O204 C203 1.211 . S
C205 O197 1.284 . S
C205 O206 1.273 . S
O206 C205 1.273 . S
O207 Zn198 1.977 . S
O207 C200 1.267 . S
C208 O209 1.160 . S
C208 O215 1.185 . S
O209 C208 1.160 . S
O210 Zn211 1.899 . S
O210 C218 1.284 . S
Zn211 O210 1.899 . S
Zn211 O212 2.032 . S
Zn211 O215 2.086 . S
Zn211 O220 1.977 . S
O212 Zn211 2.032 . S
O212 C216 1.278 . S
C213 O214 1.203 . S
C213 O220 1.267 . S
O214 C213 1.203 . S
O215 C208 1.185 . S
O215 Zn211 2.086 . S
C216 O212 1.278 . S
C216 O217 1.211 . S
O217 C216 1.211 . S
C218 O210 1.284 . S
C218 O219 1.273 . S
O219 C218 1.273 . S
O220 Zn211 1.977 . S
O220 C213 1.267 . S
C221 O222 1.160 . S
C221 O228 1.185 . S
O222 C221 1.160 . S
O223 Zn224 1.899 . S
O223 C231 1.284 . S
Zn224 O223 1.899 . S
Zn224 O225 2.032 . S
Zn224 O228 2.086 . S
Zn224 O233 1.977 . S
O225 Zn224 2.032 . S
O225 C229 1.278 . S
C226 O227 1.203 . S
C226 O233 1.267 . S
O227 C226 1.203 . S
O228 C221 1.185 . S
O228 Zn224 2.086 . S
C229 O225 1.278 . S
C229 O230 1.211 . S
O230 C229 1.211 . S
C231 O223 1.284 . S
C231 O232 1.273 . S
O232 C231 1.273 . S
O233 Zn224 1.977 . S
O233 C226 1.267 . S
C234 O235 1.160 . S
C234 O241 1.185 . S
O235 C234 1.160 . S
O236 Zn237 1.899 . S
O236 C244 1.284 . S
Zn237 O236 1.899 . S
Zn237 O238 2.032 . S
Zn237 O241 2.086 . S
Zn237 O246 1.977 . S
O238 Zn237 2.032 . S
O238 C242 1.278 . S
C239 O240 1.203 . S
C239 O246 1.267 . S
O240 C239 1.203 . S
O241 C234 1.185 . S
O241 Zn237 2.086 . S
C242 O238 1.278 . S
C242 O243 1.211 . S
O243 C242 1.211 . S
C244 O236 1.284 . S
C244 O245 1.273 . S
O245 C244 1.273 . S
O246 Zn237 1.977 . S
O246 C239 1.267 . S
C247 O248 1.160 . S
C247 O254 1.185 . S
O248 C247 1.160 . S
O249 Zn250 1.899 . S
O249 C257 1.284 . S
Zn250 O249 1.899 . S
Zn250 O251 2.032 . S
Zn250 O254 2.086 . S
Zn250 O259 1.977 . S
O251 Zn250 2.032 . S
O251 C255 1.278 . S
C252 O253 1.203 . S
C252 O259 1.267 . S
O253 C252 1.203 . S
O254 C247 1.185 . S
O254 Zn250 2.086 . S
C255 O251 1.278 . S
C255 O256 1.211 . S
O256 C255 1.211 . S
C257 O249 1.284 . S
C257 O258 1.273 . S
O258 C257 1.273 . S
O259 Zn250 1.977 . S
O259 C252 1.267 . S
C260 O261 1.160 . S
C260 O267 1.185 . S
O261 C260 1.160 . S
O262 Zn263 1.899 . S
O262 C270 1.284 . S
Zn263 O262 1.899 . S
Zn263 O264 2.032 . S
Zn263 O267 2.086 . S
Zn263 O272 1.977 . S
O264 Zn263 2.032 . S
O264 C268 1.278 . S
C265 O266 1.203 . S
C265 O272 1.267 . S
O266 C265 1.203 . S
O267 C260 1.185 . S
O267 Zn263 2.086 . S
C268 O264 1.278 . S
C268 O269 1.211 . S
O269 C268 1.211 . S
C270 O262 1.284 . S
C270 O271 1.273 . S
O271 C270 1.273 . S
O272 Zn263 1.977 . S
O272 C265 1.267 . S
C273 O274 1.160 . S
C273 O280 1.185 . S
O274 C273 1.160 . S
O275 Zn276 1.899 . S
O275 C283 1.284 . S
Zn276 O275 1.899 . S
Zn276 O277 2.032 . S
Zn276 O280 2.086 . S
Zn276 O285 1.977 . S
O277 Zn276 2.032 . S
O277 C281 1.278 . S
C278 O279 1.203 . S
C278 O285 1.267 . S
O279 C278 1.203 . S
O280 C273 1.185 . S
O280 Zn276 2.086 . S
C281 O277 1.278 . S
C281 O282 1.211 . S
O282 C281 1.211 . S
C283 O275 1.284 . S
C283 O284 1.273 . S
O284 C283 1.273 . S
O285 Zn276 1.977 . S
O285 C278 1.267 . S
C286 O287 1.160 . S
C286 O293 1.185 . S
O287 C286 1.160 . S
O288 Zn289 1.899 . S
O288 C296 1.284 . S
Zn289 O288 1.899 . S
Zn289 O290 2.032 . S
Zn289 O293 2.086 . S
Zn289 O298 1.977 . S
O290 Zn289 2.032 . S
O290 C294 1.278 . S
C291 O292 1.203 . S
C291 O298 1.267 . S
O292 C291 1.203 . S
O293 C286 1.185 . S
O293 Zn289 2.086 . S
C294 O290 1.278 . S
C294 O295 1.211 . S
O295 C294 1.211 . S
C296 O288 1.284 . S
C296 O297 1.273 . S
O297 C296 1.273 . S
O298 Zn289 1.977 . S
O298 C291 1.267 . S
C299 O300 1.160 . S
C299 O306 1.185 . S
O300 C299 1.160 . S
O301 Zn302 1.899 . S
O301 C309 1.284 . S
Zn302 O301 1.899 . S
Zn302 O303 2.032 . S
Zn302 O306 2.086 . S
Zn302 O311 1.977 . S
O303 Zn302 2.032 . S
O303 C307 1.278 . S
C304 O305 1.203 . S
C304 O311 1.267 . S
O305 C304 1.203 . S
O306 C299 1.185 . S
O306 Zn302 2.086 . S
C307 O303 1.278 . S
C307 O308 1.211 . S
O308 C307 1.211 . S
C309 O301 1.284 . S
C309 O310 1.273 . S
O310 C309 1.273 . S
O311 Zn302 1.977 . S
O311 C304 1.267 . S
C312 O313 1.160 . S
C312 O319 1.185 . S
O313 C312 1.160 . S
O314 Zn315 1.899 . S
O314 C322 1.284 . S
Zn315 O314 1.899 . S
Zn315 O316 2.032 . S
Zn315 O319 2.086 . S
Zn315 O324 1.977 . S
O316 Zn315 2.032 . S
O316 C320 1.278 . S
C317 O318 1.203 . S
C317 O324 1.267 . S
O318 C317 1.203 . S
O319 C312 1.185 . S
O319 Zn315 2.086 . S
C320 O316 1.278 . S
C320 O321 1.211 . S
O321 C320 1.211 . S
C322 O314 1.284 . S
C322 O323 1.273 . S
O323 C322 1.273 . S
O324 Zn315 1.977 . S
O324 C317 1.267 . S
C325 O326 1.160 . S
C325 O332 1.185 . S
O326 C325 1.160 . S
O327 Zn328 1.899 . S
O327 C335 1.284 . S
Zn328 O327 1.899 . S
Zn328 O329 2.032 . S
Zn328 O332 2.086 . S
Zn328 O337 1.977 . S
O329 Zn328 2.032 . S
O329 C333 1.278 . S
C330 O331 1.203 . S
C330 O337 1.267 . S
O331 C330 1.203 . S
O332 C325 1.185 . S
O332 Zn328 2.086 . S
C333 O329 1.278 . S
C333 O334 1.211 . S
O334 C333 1.211 . S
C335 O327 1.284 . S
C335 O336 1.273 . S
O336 C335 1.273 . S
O337 Zn328 1.977 . S
O337 C330 1.267 . S
C338 O339 1.160 . S
C338 O345 1.185 . S
O339 C338 1.160 . S
O340 Zn341 1.899 . S
O340 C348 1.284 . S
Zn341 O340 1.899 . S
Zn341 O342 2.032 . S
Zn341 O345 2.086 . S
Zn341 O350 1.977 . S
O342 Zn341 2.032 . S
O342 C346 1.278 . S
C343 O344 1.203 . S
C343 O350 1.267 . S
O344 C343 1.203 . S
O345 C338 1.185 . S
O345 Zn341 2.086 . S
C346 O342 1.278 . S
C346 O347 1.211 . S
O347 C346 1.211 . S
C348 O340 1.284 . S
C348 O349 1.273 . S
O349 C348 1.273 . S
O350 Zn341 1.977 . S
O350 C343 1.267 . S
C351 O352 1.160 . S
C351 O358 1.185 . S
O352 C351 1.160 . S
O353 Zn354 1.899 . S
O353 C361 1.284 . S
Zn354 O353 1.899 . S
Zn354 O355 2.032 . S
Zn354 O358 2.086 . S
Zn354 O363 1.977 . S
O355 Zn354 2.032 . S
O355 C359 1.278 . S
C356 O357 1.203 . S
C356 O363 1.267 . S
O357 C356 1.203 . S
O358 C351 1.185 . S
O358 Zn354 2.086 . S
C359 O355 1.278 . S
C359 O360 1.211 . S
O360 C359 1.211 . S
C361 O353 1.284 . S
C361 O362 1.273 . S
O362 C361 1.273 . S
O363 Zn354 1.977 . S
O363 C356 1.267 . S
C364 O365 1.160 . S
C364 O371 1.185 . S
O365 C364 1.160 . S
O366 Zn367 1.899 . S
O366 C374 1.284 . S
Zn367 O366 1.899 . S
Zn367 O368 2.032 . S
Zn367 O371 2.086 . S
Zn367 O376 1.977 . S
O368 Zn367 2.032 . S
O368 C372 1.278 . S
C369 O370 1.203 . S
C369 O376 1.267 . S
O370 C369 1.203 . S
O371 C364 1.185 . S
O371 Zn367 2.086 . S
C372 O368 1.278 . S
C372 O373 1.211 . S
O373 C372 1.211 . S
C374 O366 1.284 . S
C374 O375 1.273 . S
O375 C374 1.273 . S
O376 Zn367 1.977 . S
O376 C369 1.267 . S
C377 O378 1.160 . S
C377 O384 1.185 . S
O378 C377 1.160 . S
O379 Zn380 1.899 . S
O379 C387 1.284 . S
Zn380 O379 1.899 . S
Zn380 O381 2.032 . S
Zn380 O384 2.086 . S
Zn380 O389 1.977 . S
O381 Zn380 2.032 . S
O381 C385 1.278 . S
C382 O383 1.203 . S
C382 O389 1.267 . S
O383 C382 1.203 . S
O384 C377 1.185 . S
O384 Zn380 2.086 . S
C385 O381 1.278 . S
C385 O386 1.211 . S
O386 C385 1.211 . S
C387 O379 1.284 . S
C387 O388 1.273 . S
O388 C387 1.273 . S
O389 Zn380 1.977 . S
O389 C382 1.267 . S
C390 O391 1.160 . S
C390 O397 1.185 . S
O391 C390 1.160 . S
O392 Zn393 1.899 . S
O392 C400 1.284 . S
Zn393 O392 1.899 . S
Zn393 O394 2.032 . S
Zn393 O397 2.086 . S
Zn393 O402 1.977 . S
O394 Zn393 2.032 . S
O394 C398 1.278 . S
C395 O396 1.203 . S
C395 O402 1.267 . S
O396 C395 1.203 . S
O397 C390 1.185 . S
O397 Zn393 2.086 . S
C398 O394 1.278 . S
C398 O399 1.211 . S
O399 C398 1.211 . S
C400 O392 1.284 . S
C400 O401 1.273 . S
O401 C400 1.273 . S
O402 Zn393 1.977 . S
O402 C395 1.267 . S
C403 O404 1.160 . S
C403 O410 1.185 . S
O404 C403 1.160 . S
O405 Zn406 1.899 . S
O405 C413 1.284 . S
Zn406 O405 1.899 . S
Zn406 O407 2.032 . S
Zn406 O410 2.086 . S
Zn406 O415 1.977 . S
O407 Zn406 2.032 . S
O407 C411 1.278 . S
C408 O409 1.203 . S
C408 O415 1.267 . S
O409 C408 1.203 . S
O410 C403 1.185 . S
O410 Zn406 2.086 . S
C411 O407 1.278 . S
C411 O412 1.211 . S
O412 C411 1.211 . S
C413 O405 1.284 . S
C413 O414 1.273 . S
O414 C413 1.273 . S
O415 Zn406 1.977 . S
O415 C408 1.267 . S
C416 O417 1.160 . S
C416 O423 1.185 . S
O417 C416 1.160 . S
O418 Zn419 1.899 . S
O418 C426 1.284 . S
Zn419 O418 1.899 . S
Zn419 O420 2.032 . S
Zn419 O423 2.086 . S
Zn419 O428 1.977 . S
O420 Zn419 2.032 . S
O420 C424 1.278 . S
C421 O422 1.203 . S
C421 O428 1.267 . S
O422 C421 1.203 . S
O423 C416 1.185 . S
O423 Zn419 2.086 . S
C424 O420 1.278 . S
C424 O425 1.211 . S
O425 C424 1.211 . S
C426 O418 1.284 . S
C426 O427 1.273 . S
O427 C426 1.273 . S
O428 Zn419 1.977 . S
O428 C421 1.267 . S
C429 O430 1.160 . S
C429 O436 1.185 . S
O430 C429 1.160 . S
O431 Zn432 1.899 . S
O431 C439 1.284 . S
Zn432 O431 1.899 . S
Zn432 O433 2.032 . S
Zn432 O436 2.086 . S
Zn432 O441 1.977 . S
O433 Zn432 2.032 . S
O433 C437 1.278 . S
C434 O435 1.203 . S
C434 O441 1.267 . S
O435 C434 1.203 . S
O436 C429 1.185 . S
O436 Zn432 2.086 . S
C437 O433 1.278 . S
C437 O438 1.211 . S
O438 C437 1.211 . S
C439 O431 1.284 . S
C439 O440 1.273 . S
O440 C439 1.273 . S
O441 Zn432 1.977 . S
O441 C434 1.267 . S
C442 O443 1.160 . S
C442 O449 1.185 . S
O443 C442 1.160 . S
O444 Zn445 1.899 . S
O444 C452 1.284 . S
Zn445 O444 1.899 . S
Zn445 O446 2.032 . S
Zn445 O449 2.086 . S
Zn445 O454 1.977 . S
O446 Zn445 2.032 . S
O446 C450 1.278 . S
C447 O448 1.203 . S
C447 O454 1.267 . S
O448 C447 1.203 . S
O449 C442 1.185 . S
O449 Zn445 2.086 . S
C450 O446 1.278 . S
C450 O451 1.211 . S
O451 C450 1.211 . S
C452 O444 1.284 . S
C452 O453 1.273 . S
O453 C452 1.273 . S
O454 Zn445 1.977 . S
O454 C447 1.267 . S
C455 O456 1.160 . S
C455 O462 1.185 . S
O456 C455 1.160 . S
O457 Zn458 1.899 . S
O457 C465 1.284 . S
Zn458 O457 1.899 . S
Zn458 O459 2.032 . S
Zn458 O462 2.086 . S
Zn458 O467 1.977 . S
O459 Zn458 2.032 . S
O459 C463 1.278 . S
C460 O461 1.203 . S
C460 O467 1.267 . S
O461 C460 1.203 . S
O462 C455 1.185 . S
O462 Zn458 2.086 . S
C463 O459 1.278 . S
C463 O464 1.211 . S
O464 C463 1.211 . S
C465 O457 1.284 . S
C465 O466 1.273 . S
O466 C465 1.273 . S
O467 Zn458 1.977 . S
O467 C460 1.267 . S
H468 C480 0.930 . S
H469 C482 0.930 . S
H470 C483 0.930 . S
H471 C487 0.959 . S
H472 C487 0.959 . S
H473 C487 0.961 . S
H474 C488 0.960 . S
H475 C488 0.961 . S
H476 C488 0.959 . S
H477 C491 0.929 . S
H478 C492 0.931 1_554 S
H479 C494 0.930 . S
C480 H468 0.930 . S
C480 C481 1.399 . S
C480 C485 1.399 . S
C481 C480 1.399 . S
C481 C482 1.376 . S
C482 H469 0.930 . S
C482 C481 1.376 . S
C482 C483 1.388 . S
C483 H470 0.930 . S
C483 C482 1.388 . S
C483 C484 1.390 . S
C484 C483 1.390 . S
C484 C485 1.394 . S
C484 C490 1.465 . S
C485 C480 1.399 . S
C485 C484 1.394 . S
C485 C486 1.516 . S
C486 C485 1.516 . S
C486 C487 1.502 . S
C486 C488 1.561 . S
C486 C489 1.526 . S
C487 H471 0.959 . S
C487 H472 0.959 . S
C487 H473 0.961 . S
C487 C486 1.502 . S
C488 H474 0.960 . S
C488 H475 0.961 . S
C488 H476 0.959 . S
C488 C486 1.561 . S
C489 C486 1.526 . S
C489 C490 1.396 . S
C489 C494 1.390 . S
C490 C484 1.465 . S
C490 C489 1.396 . S
C490 C491 1.399 . S
C491 H477 0.929 . S
C491 C490 1.399 . S
C491 C492 1.385 . S
C492 H478 0.931 1_556 S
C492 C491 1.385 . S
C492 C493 1.389 . S
C493 C492 1.389 . S
C493 C494 1.387 . S
C494 H479 0.930 . S
C494 C489 1.390 . S
C494 C493 1.387 . S
H495 C507 0.930 . S
H496 C509 0.930 . S
H497 C510 0.930 . S
H498 C514 0.959 . S
H499 C514 0.959 . S
H500 C514 0.961 . S
H501 C515 0.960 . S
H502 C515 0.961 . S
H503 C515 0.959 . S
H504 C518 0.929 . S
H505 C519 0.931 . S
H506 C521 0.930 . S
C507 H495 0.930 . S
C507 C508 1.399 . S
C507 C512 1.399 . S
C508 C507 1.399 . S
C508 C509 1.376 . S
C509 H496 0.930 . S
C509 C508 1.376 . S
C509 C510 1.388 . S
C510 H497 0.930 . S
C510 C509 1.388 . S
C510 C511 1.390 . S
C511 C510 1.390 . S
C511 C512 1.394 . S
C511 C517 1.465 . S
C512 C507 1.399 . S
C512 C511 1.394 . S
C512 C513 1.516 . S
C513 C512 1.516 . S
C513 C514 1.502 . S
C513 C515 1.561 . S
C513 C516 1.526 . S
C514 H498 0.959 . S
C514 H499 0.959 . S
C514 H500 0.961 . S
C514 C513 1.502 . S
C515 H501 0.960 . S
C515 H502 0.961 . S
C515 H503 0.959 . S
C515 C513 1.561 . S
C516 C513 1.526 . S
C516 C517 1.396 . S
C516 C521 1.390 . S
C517 C511 1.465 . S
C517 C516 1.396 . S
C517 C518 1.399 . S
C518 H504 0.929 . S
C518 C517 1.399 . S
C518 C519 1.385 . S
C519 H505 0.931 . S
C519 C518 1.385 . S
C519 C520 1.389 . S
C520 C519 1.389 . S
C520 C521 1.387 . S
C521 H506 0.930 . S
C521 C516 1.390 . S
C521 C520 1.387 . S
H522 C534 0.930 . S
H523 C536 0.930 . S
H524 C537 0.930 . S
H525 C541 0.959 . S
H526 C541 0.959 . S
H527 C541 0.961 . S
H528 C542 0.960 . S
H529 C542 0.961 . S
H530 C542 0.959 . S
H531 C545 0.929 . S
H532 C546 0.931 . S
H533 C548 0.930 . S
C534 H522 0.930 . S
C534 C535 1.399 . S
C534 C539 1.399 . S
C535 C534 1.399 . S
C535 C536 1.376 . S
C536 H523 0.930 . S
C536 C535 1.376 . S
C536 C537 1.388 . S
C537 H524 0.930 . S
C537 C536 1.388 . S
C537 C538 1.390 . S
C538 C537 1.390 . S
C538 C539 1.394 . S
C538 C544 1.465 . S
C539 C534 1.399 . S
C539 C538 1.394 . S
C539 C540 1.516 . S
C540 C539 1.516 . S
C540 C541 1.502 . S
C540 C542 1.561 . S
C540 C543 1.526 . S
C541 H525 0.959 . S
C541 H526 0.959 . S
C541 H527 0.961 . S
C541 C540 1.502 . S
C542 H528 0.960 . S
C542 H529 0.961 . S
C542 H530 0.959 . S
C542 C540 1.561 . S
C543 C540 1.526 . S
C543 C544 1.396 . S
C543 C548 1.390 . S
C544 C538 1.465 . S
C544 C543 1.396 . S
C544 C545 1.399 . S
C545 H531 0.929 . S
C545 C544 1.399 . S
C545 C546 1.385 . S
C546 H532 0.931 . S
C546 C545 1.385 . S
C546 C547 1.389 . S
C547 C546 1.389 . S
C547 C548 1.387 . S
C548 H533 0.930 . S
C548 C543 1.390 . S
C548 C547 1.387 . S
H549 C561 0.930 . S
H550 C563 0.930 . S
H551 C564 0.930 . S
H552 C568 0.959 . S
H553 C568 0.959 . S
H554 C568 0.961 . S
H555 C569 0.960 . S
H556 C569 0.961 . S
H557 C569 0.959 . S
H558 C572 0.929 . S
H559 C573 0.931 . S
H560 C575 0.930 . S
C561 H549 0.930 . S
C561 C562 1.399 . S
C561 C566 1.399 . S
C562 C561 1.399 . S
C562 C563 1.376 . S
C563 H550 0.930 . S
C563 C562 1.376 . S
C563 C564 1.388 . S
C564 H551 0.930 . S
C564 C563 1.388 . S
C564 C565 1.390 . S
C565 C564 1.390 . S
C565 C566 1.394 . S
C565 C571 1.465 . S
C566 C561 1.399 . S
C566 C565 1.394 . S
C566 C567 1.516 . S
C567 C566 1.516 . S
C567 C568 1.502 . S
C567 C569 1.561 . S
C567 C570 1.526 . S
C568 H552 0.959 . S
C568 H553 0.959 . S
C568 H554 0.961 . S
C568 C567 1.502 . S
C569 H555 0.960 . S
C569 H556 0.961 . S
C569 H557 0.959 . S
C569 C567 1.561 . S
C570 C567 1.526 . S
C570 C571 1.396 . S
C570 C575 1.390 . S
C571 C565 1.465 . S
C571 C570 1.396 . S
C571 C572 1.399 . S
C572 H558 0.929 . S
C572 C571 1.399 . S
C572 C573 1.385 . S
C573 H559 0.931 . S
C573 C572 1.385 . S
C573 C574 1.389 . S
C574 C573 1.389 . S
C574 C575 1.387 . S
C575 H560 0.930 . S
C575 C570 1.390 . S
C575 C574 1.387 . S
H576 C588 0.930 . S
H577 C590 0.930 . S
H578 C591 0.930 . S
H579 C595 0.959 . S
H580 C595 0.959 . S
H581 C595 0.961 . S
H582 C596 0.960 . S
H583 C596 0.961 . S
H584 C596 0.959 . S
H585 C599 0.929 . S
H586 C600 0.931 . S
H587 C602 0.930 . S
C588 H576 0.930 . S
C588 C589 1.399 . S
C588 C593 1.399 . S
C589 C588 1.399 . S
C589 C590 1.376 . S
C590 H577 0.930 . S
C590 C589 1.376 . S
C590 C591 1.388 . S
C591 H578 0.930 . S
C591 C590 1.388 . S
C591 C592 1.390 . S
C592 C591 1.390 . S
C592 C593 1.394 . S
C592 C598 1.465 . S
C593 C588 1.399 . S
C593 C592 1.394 . S
C593 C594 1.516 . S
C594 C593 1.516 . S
C594 C595 1.502 . S
C594 C596 1.561 . S
C594 C597 1.526 . S
C595 H579 0.959 . S
C595 H580 0.959 . S
C595 H581 0.961 . S
C595 C594 1.502 . S
C596 H582 0.960 . S
C596 H583 0.961 . S
C596 H584 0.959 . S
C596 C594 1.561 . S
C597 C594 1.526 . S
C597 C598 1.396 . S
C597 C602 1.390 . S
C598 C592 1.465 . S
C598 C597 1.396 . S
C598 C599 1.399 . S
C599 H585 0.929 . S
C599 C598 1.399 . S
C599 C600 1.385 . S
C600 H586 0.931 . S
C600 C599 1.385 . S
C600 C601 1.389 . S
C601 C600 1.389 . S
C601 C602 1.387 . S
C602 H587 0.930 . S
C602 C597 1.390 . S
C602 C601 1.387 . S
H603 C615 0.930 . S
H604 C617 0.930 . S
H605 C618 0.930 . S
H606 C622 0.959 . S
H607 C622 0.959 . S
H608 C622 0.961 . S
H609 C623 0.960 . S
H610 C623 0.961 . S
H611 C623 0.959 . S
H612 C626 0.929 . S
H613 C627 0.931 . S
H614 C629 0.930 . S
C615 H603 0.930 . S
C615 C616 1.399 . S
C615 C620 1.399 . S
C616 C615 1.399 . S
C616 C617 1.376 . S
C617 H604 0.930 . S
C617 C616 1.376 . S
C617 C618 1.388 . S
C618 H605 0.930 . S
C618 C617 1.388 . S
C618 C619 1.390 . S
C619 C618 1.390 . S
C619 C620 1.394 . S
C619 C625 1.465 . S
C620 C615 1.399 . S
C620 C619 1.394 . S
C620 C621 1.516 . S
C621 C620 1.516 . S
C621 C622 1.502 . S
C621 C623 1.561 . S
C621 C624 1.526 . S
C622 H606 0.959 . S
C622 H607 0.959 . S
C622 H608 0.961 . S
C622 C621 1.502 . S
C623 H609 0.960 . S
C623 H610 0.961 . S
C623 H611 0.959 . S
C623 C621 1.561 . S
C624 C621 1.526 . S
C624 C625 1.396 . S
C624 C629 1.390 . S
C625 C619 1.465 . S
C625 C624 1.396 . S
C625 C626 1.399 . S
C626 H612 0.929 . S
C626 C625 1.399 . S
C626 C627 1.385 . S
C627 H613 0.931 . S
C627 C626 1.385 . S
C627 C628 1.389 . S
C628 C627 1.389 . S
C628 C629 1.387 . S
C629 H614 0.930 . S
C629 C624 1.390 . S
C629 C628 1.387 . S
H630 C642 0.930 . S
H631 C644 0.930 . S
H632 C645 0.930 . S
H633 C649 0.959 . S
H634 C649 0.959 . S
H635 C649 0.961 . S
H636 C650 0.960 . S
H637 C650 0.961 . S
H638 C650 0.959 . S
H639 C653 0.929 . S
H640 C654 0.931 . S
H641 C656 0.930 . S
C642 H630 0.930 . S
C642 C643 1.399 . S
C642 C647 1.399 . S
C643 C642 1.399 . S
C643 C644 1.376 . S
C644 H631 0.930 . S
C644 C643 1.376 . S
C644 C645 1.388 . S
C645 H632 0.930 . S
C645 C644 1.388 . S
C645 C646 1.390 . S
C646 C645 1.390 . S
C646 C647 1.394 . S
C646 C652 1.465 . S
C647 C642 1.399 . S
C647 C646 1.394 . S
C647 C648 1.516 . S
C648 C647 1.516 . S
C648 C649 1.502 . S
C648 C650 1.561 . S
C648 C651 1.526 . S
C649 H633 0.959 . S
C649 H634 0.959 . S
C649 H635 0.961 . S
C649 C648 1.502 . S
C650 H636 0.960 . S
C650 H637 0.961 . S
C650 H638 0.959 . S
C650 C648 1.561 . S
C651 C648 1.526 . S
C651 C652 1.396 . S
C651 C656 1.390 . S
C652 C646 1.465 . S
C652 C651 1.396 . S
C652 C653 1.399 . S
C653 H639 0.929 . S
C653 C652 1.399 . S
C653 C654 1.385 . S
C654 H640 0.931 . S
C654 C653 1.385 . S
C654 C655 1.389 . S
C655 C654 1.389 . S
C655 C656 1.387 . S
C656 H641 0.930 . S
C656 C651 1.390 . S
C656 C655 1.387 . S
H657 C669 0.930 . S
H658 C671 0.930 . S
H659 C672 0.930 . S
H660 C676 0.959 . S
H661 C676 0.959 . S
H662 C676 0.961 . S
H663 C677 0.960 . S
H664 C677 0.961 . S
H665 C677 0.959 . S
H666 C680 0.929 . S
H667 C681 0.931 1_556 S
H668 C683 0.930 . S
C669 H657 0.930 . S
C669 C670 1.399 . S
C669 C674 1.399 . S
C670 C669 1.399 . S
C670 C671 1.376 . S
C671 H658 0.930 . S
C671 C670 1.376 . S
C671 C672 1.388 . S
C672 H659 0.930 . S
C672 C671 1.388 . S
C672 C673 1.390 . S
C673 C672 1.390 . S
C673 C674 1.394 . S
C673 C679 1.465 . S
C674 C669 1.399 . S
C674 C673 1.394 . S
C674 C675 1.516 . S
C675 C674 1.516 . S
C675 C676 1.502 . S
C675 C677 1.561 . S
C675 C678 1.526 . S
C676 H660 0.959 . S
C676 H661 0.959 . S
C676 H662 0.961 . S
C676 C675 1.502 . S
C677 H663 0.960 . S
C677 H664 0.961 . S
C677 H665 0.959 . S
C677 C675 1.561 . S
C678 C675 1.526 . S
C678 C679 1.396 . S
C678 C683 1.390 . S
C679 C673 1.465 . S
C679 C678 1.396 . S
C679 C680 1.399 . S
C680 H666 0.929 . S
C680 C679 1.399 . S
C680 C681 1.385 . S
C681 H667 0.931 1_554 S
C681 C680 1.385 . S
C681 C682 1.389 . S
C682 C681 1.389 . S
C682 C683 1.387 . S
C683 H668 0.930 . S
C683 C678 1.390 . S
C683 C682 1.387 . S
H684 C696 0.930 . S
H685 C698 0.930 . S
H686 C699 0.930 . S
H687 C703 0.959 . S
H688 C703 0.959 . S
H689 C703 0.961 . S
H690 C704 0.960 . S
H691 C704 0.961 . S
H692 C704 0.959 . S
H693 C707 0.929 . S
H694 C708 0.931 1_556 S
H695 C710 0.930 . S
C696 H684 0.930 . S
C696 C697 1.399 . S
C696 C701 1.399 . S
C697 C696 1.399 . S
C697 C698 1.376 . S
C698 H685 0.930 . S
C698 C697 1.376 . S
C698 C699 1.388 . S
C699 H686 0.930 . S
C699 C698 1.388 . S
C699 C700 1.390 . S
C700 C699 1.390 . S
C700 C701 1.394 . S
C700 C706 1.465 . S
C701 C696 1.399 . S
C701 C700 1.394 . S
C701 C702 1.516 . S
C702 C701 1.516 . S
C702 C703 1.502 . S
C702 C704 1.561 . S
C702 C705 1.526 . S
C703 H687 0.959 . S
C703 H688 0.959 . S
C703 H689 0.961 . S
C703 C702 1.502 . S
C704 H690 0.960 . S
C704 H691 0.961 . S
C704 H692 0.959 . S
C704 C702 1.561 . S
C705 C702 1.526 . S
C705 C706 1.396 . S
C705 C710 1.390 . S
C706 C700 1.465 . S
C706 C705 1.396 . S
C706 C707 1.399 . S
C707 H693 0.929 . S
C707 C706 1.399 . S
C707 C708 1.385 . S
C708 H694 0.931 1_554 S
C708 C707 1.385 . S
C708 C709 1.389 . S
C709 C708 1.389 . S
C709 C710 1.387 . S
C710 H695 0.930 . S
C710 C705 1.390 . S
C710 C709 1.387 . S
H711 C723 0.930 . S
H712 C725 0.930 . S
H713 C726 0.930 . S
H714 C730 0.959 . S
H715 C730 0.959 . S
H716 C730 0.961 . S
H717 C731 0.960 . S
H718 C731 0.961 . S
H719 C731 0.959 . S
H720 C734 0.929 . S
H721 C735 0.931 . S
H722 C737 0.930 . S
C723 H711 0.930 . S
C723 C724 1.399 . S
C723 C728 1.399 . S
C724 C723 1.399 . S
C724 C725 1.376 . S
C725 H712 0.930 . S
C725 C724 1.376 . S
C725 C726 1.388 . S
C726 H713 0.930 . S
C726 C725 1.388 . S
C726 C727 1.390 . S
C727 C726 1.390 . S
C727 C728 1.394 . S
C727 C733 1.465 . S
C728 C723 1.399 . S
C728 C727 1.394 . S
C728 C729 1.516 . S
C729 C728 1.516 . S
C729 C730 1.502 . S
C729 C731 1.561 . S
C729 C732 1.526 . S
C730 H714 0.959 . S
C730 H715 0.959 . S
C730 H716 0.961 . S
C730 C729 1.502 . S
C731 H717 0.960 . S
C731 H718 0.961 . S
C731 H719 0.959 . S
C731 C729 1.561 . S
C732 C729 1.526 . S
C732 C733 1.396 . S
C732 C737 1.390 . S
C733 C727 1.465 . S
C733 C732 1.396 . S
C733 C734 1.399 . S
C734 H720 0.929 . S
C734 C733 1.399 . S
C734 C735 1.385 . S
C735 H721 0.931 . S
C735 C734 1.385 . S
C735 C736 1.389 . S
C736 C735 1.389 . S
C736 C737 1.387 . S
C737 H722 0.930 . S
C737 C732 1.390 . S
C737 C736 1.387 . S
H738 C750 0.930 . S
H739 C752 0.930 . S
H740 C753 0.930 . S
H741 C757 0.959 . S
H742 C757 0.959 . S
H743 C757 0.961 . S
H744 C758 0.960 . S
H745 C758 0.961 . S
H746 C758 0.959 . S
H747 C761 0.929 . S
H748 C762 0.931 . S
H749 C764 0.930 . S
C750 H738 0.930 . S
C750 C751 1.399 . S
C750 C755 1.399 . S
C751 C750 1.399 . S
C751 C752 1.376 . S
C752 H739 0.930 . S
C752 C751 1.376 . S
C752 C753 1.388 . S
C753 H740 0.930 . S
C753 C752 1.388 . S
C753 C754 1.390 . S
C754 C753 1.390 . S
C754 C755 1.394 . S
C754 C760 1.465 . S
C755 C750 1.399 . S
C755 C754 1.394 . S
C755 C756 1.516 . S
C756 C755 1.516 . S
C756 C757 1.502 . S
C756 C758 1.561 . S
C756 C759 1.526 . S
C757 H741 0.959 . S
C757 H742 0.959 . S
C757 H743 0.961 . S
C757 C756 1.502 . S
C758 H744 0.960 . S
C758 H745 0.961 . S
C758 H746 0.959 . S
C758 C756 1.561 . S
C759 C756 1.526 . S
C759 C760 1.396 . S
C759 C764 1.390 . S
C760 C754 1.465 . S
C760 C759 1.396 . S
C760 C761 1.399 . S
C761 H747 0.929 . S
C761 C760 1.399 . S
C761 C762 1.385 . S
C762 H748 0.931 . S
C762 C761 1.385 . S
C762 C763 1.389 . S
C763 C762 1.389 . S
C763 C764 1.387 . S
C764 H749 0.930 . S
C764 C759 1.390 . S
C764 C763 1.387 . S
H765 C777 0.930 . S
H766 C779 0.930 . S
H767 C780 0.930 . S
H768 C784 0.959 . S
H769 C784 0.959 . S
H770 C784 0.961 . S
H771 C785 0.960 . S
H772 C785 0.961 . S
H773 C785 0.959 . S
H774 C788 0.929 . S
H775 C789 0.931 . S
H776 C791 0.930 . S
C777 H765 0.930 . S
C777 C778 1.399 . S
C777 C782 1.399 . S
C778 C777 1.399 . S
C778 C779 1.376 . S
C779 H766 0.930 . S
C779 C778 1.376 . S
C779 C780 1.388 . S
C780 H767 0.930 . S
C780 C779 1.388 . S
C780 C781 1.390 . S
C781 C780 1.390 . S
C781 C782 1.394 . S
C781 C787 1.465 . S
C782 C777 1.399 . S
C782 C781 1.394 . S
C782 C783 1.516 . S
C783 C782 1.516 . S
C783 C784 1.502 . S
C783 C785 1.561 . S
C783 C786 1.526 . S
C784 H768 0.959 . S
C784 H769 0.959 . S
C784 H770 0.961 . S
C784 C783 1.502 . S
C785 H771 0.960 . S
C785 H772 0.961 . S
C785 H773 0.959 . S
C785 C783 1.561 . S
C786 C783 1.526 . S
C786 C787 1.396 . S
C786 C791 1.390 . S
C787 C781 1.465 . S
C787 C786 1.396 . S
C787 C788 1.399 . S
C788 H774 0.929 . S
C788 C787 1.399 . S
C788 C789 1.385 . S
C789 H775 0.931 . S
C789 C788 1.385 . S
C789 C790 1.389 . S
C790 C789 1.389 . S
C790 C791 1.387 . S
C791 H776 0.930 . S
C791 C786 1.390 . S
C791 C790 1.387 . S
H792 C804 0.930 . S
H793 C806 0.930 . S
H794 C807 0.930 . S
H795 C811 0.971 . S
H796 C811 0.961 . S
H797 C811 0.944 1_455 S
H798 C812 0.960 . S
H799 C812 0.961 . S
H800 C812 0.959 . S
H801 C815 0.929 . S
H802 C816 0.931 . S
H803 C818 0.930 . S
C804 H792 0.930 . S
C804 C805 1.399 . S
C804 C809 1.399 . S
C805 C804 1.399 . S
C805 C806 1.376 . S
C806 H793 0.930 . S
C806 C805 1.376 . S
C806 C807 1.388 . S
C807 H794 0.930 . S
C807 C806 1.388 . S
C807 C808 1.390 . S
C808 C807 1.390 . S
C808 C809 1.394 . S
C808 C814 1.465 1_455 S
C809 C804 1.399 . S
C809 C808 1.394 . S
C809 C810 1.516 . S
C810 C809 1.516 . S
C810 C811 1.505 1_455 S
C810 C812 1.561 . S
C810 C813 1.526 1_455 S
C811 H795 0.971 . S
C811 H796 0.961 . S
C811 H797 0.944 1_655 S
C811 C810 1.505 1_655 S
C812 H798 0.960 . S
C812 H799 0.961 . S
C812 H800 0.959 . S
C812 C810 1.561 . S
C813 C810 1.526 1_655 S
C813 C814 1.396 . S
C813 C818 1.390 . S
C814 C808 1.465 1_655 S
C814 C813 1.396 . S
C814 C815 1.399 . S
C815 H801 0.929 . S
C815 C814 1.399 . S
C815 C816 1.385 . S
C816 H802 0.931 . S
C816 C815 1.385 . S
C816 C817 1.389 . S
C817 C816 1.389 . S
C817 C818 1.387 . S
C818 H803 0.930 . S
C818 C813 1.390 . S
C818 C817 1.387 . S
H819 C831 0.930 . S
H820 C833 0.930 . S
H821 C834 0.930 . S
H822 C838 0.959 . S
H823 C838 0.959 . S
H824 C838 0.961 . S
H825 C839 0.960 . S
H826 C839 0.961 . S
H827 C839 0.959 . S
H828 C842 0.929 . S
H829 C843 0.931 . S
H830 C845 0.930 . S
C831 H819 0.930 . S
C831 C832 1.399 . S
C831 C836 1.399 . S
C832 C831 1.399 . S
C832 C833 1.376 . S
C833 H820 0.930 . S
C833 C832 1.376 . S
C833 C834 1.388 . S
C834 H821 0.930 . S
C834 C833 1.388 . S
C834 C835 1.390 . S
C835 C834 1.390 . S
C835 C836 1.394 . S
C835 C841 1.465 . S
C836 C831 1.399 . S
C836 C835 1.394 . S
C836 C837 1.516 . S
C837 C836 1.516 . S
C837 C838 1.502 . S
C837 C839 1.561 . S
C837 C840 1.526 . S
C838 H822 0.959 . S
C838 H823 0.959 . S
C838 H824 0.961 . S
C838 C837 1.502 . S
C839 H825 0.960 . S
C839 H826 0.961 . S
C839 H827 0.959 . S
C839 C837 1.561 . S
C840 C837 1.526 . S
C840 C841 1.396 . S
C840 C845 1.390 . S
C841 C835 1.465 . S
C841 C840 1.396 . S
C841 C842 1.399 . S
C842 H828 0.929 . S
C842 C841 1.399 . S
C842 C843 1.385 . S
C843 H829 0.931 . S
C843 C842 1.385 . S
C843 C844 1.389 . S
C844 C843 1.389 . S
C844 C845 1.387 . S
C845 H830 0.930 . S
C845 C840 1.390 . S
C845 C844 1.387 . S
H846 C858 0.930 . S
H847 C860 0.930 . S
H848 C861 0.930 . S
H849 C865 0.959 . S
H850 C865 0.959 . S
H851 C865 0.961 . S
H852 C866 0.960 . S
H853 C866 0.961 . S
H854 C866 0.959 . S
H855 C869 0.929 1_565 S
H856 C870 0.931 . S
H857 C872 0.930 . S
C858 H846 0.930 . S
C858 C859 1.399 . S
C858 C863 1.399 . S
C859 C858 1.399 . S
C859 C860 1.376 . S
C860 H847 0.930 . S
C860 C859 1.376 . S
C860 C861 1.388 . S
C861 H848 0.930 . S
C861 C860 1.388 . S
C861 C862 1.390 . S
C862 C861 1.390 . S
C862 C863 1.394 . S
C862 C868 1.465 1_565 S
C863 C858 1.399 . S
C863 C862 1.394 . S
C863 C864 1.516 1_565 S
C864 C863 1.516 1_545 S
C864 C865 1.502 . S
C864 C866 1.561 . S
C864 C867 1.526 . S
C865 H849 0.959 . S
C865 H850 0.959 . S
C865 H851 0.961 . S
C865 C864 1.502 . S
C866 H852 0.960 . S
C866 H853 0.961 . S
C866 H854 0.959 . S
C866 C864 1.561 . S
C867 C864 1.526 . S
C867 C868 1.396 . S
C867 C872 1.390 . S
C868 C862 1.465 1_545 S
C868 C867 1.396 . S
C868 C869 1.399 . S
C869 H855 0.929 1_545 S
C869 C868 1.399 . S
C869 C870 1.385 . S
C870 H856 0.931 . S
C870 C869 1.385 . S
C870 C871 1.389 . S
C871 C870 1.389 . S
C871 C872 1.387 . S
C872 H857 0.930 . S
C872 C867 1.390 . S
C872 C871 1.387 . S
H873 C885 0.930 . S
H874 C887 0.930 . S
H875 C888 0.930 1_545 S
H876 C892 0.959 . S
H877 C892 0.959 . S
H878 C892 0.961 . S
H879 C893 0.960 . S
H880 C893 0.961 . S
H881 C893 0.959 . S
H882 C896 0.929 . S
H883 C897 0.931 . S
H884 C899 0.930 . S
C885 H873 0.930 . S
C885 C886 1.399 . S
C885 C890 1.399 . S
C886 C885 1.399 . S
C886 C887 1.376 . S
C887 H874 0.930 . S
C887 C886 1.376 . S
C887 C888 1.388 . S
C888 H875 0.930 1_565 S
C888 C887 1.388 . S
C888 C889 1.390 . S
C889 C888 1.390 . S
C889 C890 1.394 . S
C889 C895 1.465 1_565 S
C890 C885 1.399 . S
C890 C889 1.394 . S
C890 C891 1.516 . S
C891 C890 1.516 . S
C891 C892 1.502 . S
C891 C893 1.561 . S
C891 C894 1.526 1_565 S
C892 H876 0.959 . S
C892 H877 0.959 . S
C892 H878 0.961 . S
C892 C891 1.502 . S
C893 H879 0.960 . S
C893 H880 0.961 . S
C893 H881 0.959 . S
C893 C891 1.561 . S
C894 C891 1.526 1_545 S
C894 C895 1.396 . S
C894 C899 1.390 . S
C895 C889 1.465 1_545 S
C895 C894 1.396 . S
C895 C896 1.399 . S
C896 H882 0.929 . S
C896 C895 1.399 . S
C896 C897 1.385 . S
C897 H883 0.931 . S
C897 C896 1.385 . S
C897 C898 1.389 . S
C898 C897 1.389 . S
C898 C899 1.387 . S
C899 H884 0.930 . S
C899 C894 1.390 . S
C899 C898 1.387 . S
H900 C912 0.930 . S
H901 C914 0.930 . S
H902 C915 0.930 . S
H903 C919 0.959 . S
H904 C919 0.959 . S
H905 C919 0.961 . S
H906 C920 0.960 1_455 S
H907 C920 0.961 . S
H908 C920 0.959 1_455 S
H909 C923 0.928 1_455 S
H910 C924 0.931 . S
H911 C926 0.930 . S
C912 H900 0.930 . S
C912 C913 1.399 . S
C912 C917 1.399 . S
C913 C912 1.399 . S
C913 C914 1.376 . S
C914 H901 0.930 . S
C914 C913 1.376 . S
C914 C915 1.388 . S
C915 H902 0.930 . S
C915 C914 1.388 . S
C915 C916 1.390 . S
C916 C915 1.390 . S
C916 C917 1.394 . S
C916 C922 1.465 1_455 S
C917 C912 1.399 . S
C917 C916 1.394 . S
C917 C918 1.516 1_455 S
C918 C917 1.516 1_655 S
C918 C919 1.502 . S
C918 C920 1.561 . S
C918 C921 1.526 . S
C919 H903 0.959 . S
C919 H904 0.959 . S
C919 H905 0.961 . S
C919 C918 1.502 . S
C920 H906 0.960 1_655 S
C920 H907 0.961 . S
C920 H908 0.959 1_655 S
C920 C918 1.561 . S
C921 C918 1.526 . S
C921 C922 1.396 . S
C921 C926 1.390 . S
C922 C916 1.465 1_655 S
C922 C921 1.396 . S
C922 C923 1.399 . S
C923 H909 0.928 1_655 S
C923 C922 1.399 . S
C923 C924 1.385 . S
C924 H910 0.931 . S
C924 C923 1.385 . S
C924 C925 1.389 . S
C925 C924 1.389 . S
C925 C926 1.387 . S
C926 H911 0.930 . S
C926 C921 1.390 . S
C926 C925 1.387 . S
H927 C939 0.930 . S
H928 C941 0.930 . S
H929 C942 0.930 . S
H930 C946 0.959 . S
H931 C946 0.959 . S
H932 C946 0.961 . S
H933 C947 0.960 . S
H934 C947 0.961 . S
H935 C947 0.959 . S
H936 C950 0.929 . S
H937 C951 0.931 . S
H938 C953 0.930 . S
C939 H927 0.930 . S
C939 C940 1.399 . S
C939 C944 1.399 . S
C940 C939 1.399 . S
C940 C941 1.376 . S
C941 H928 0.930 . S
C941 C940 1.376 . S
C941 C942 1.388 . S
C942 H929 0.930 . S
C942 C941 1.388 . S
C942 C943 1.390 . S
C943 C942 1.390 . S
C943 C944 1.394 . S
C943 C949 1.465 . S
C944 C939 1.399 . S
C944 C943 1.394 . S
C944 C945 1.516 . S
C945 C944 1.516 . S
C945 C946 1.502 . S
C945 C947 1.561 . S
C945 C948 1.526 . S
C946 H930 0.959 . S
C946 H931 0.959 . S
C946 H932 0.961 . S
C946 C945 1.502 . S
C947 H933 0.960 . S
C947 H934 0.961 . S
C947 H935 0.959 . S
C947 C945 1.561 . S
C948 C945 1.526 . S
C948 C949 1.396 . S
C948 C953 1.390 . S
C949 C943 1.465 . S
C949 C948 1.396 . S
C949 C950 1.399 . S
C950 H936 0.929 . S
C950 C949 1.399 . S
C950 C951 1.385 . S
C951 H937 0.931 . S
C951 C950 1.385 . S
C951 C952 1.389 . S
C952 C951 1.389 . S
C952 C953 1.387 . S
C953 H938 0.930 . S
C953 C948 1.390 . S
C953 C952 1.387 . S
H954 C966 0.930 . S
H955 C968 0.930 . S
H956 C969 0.930 . S
H957 C973 0.959 . S
H958 C973 0.959 . S
H959 C973 0.961 . S
H960 C974 0.960 . S
H961 C974 0.961 . S
H962 C974 0.959 . S
H963 C977 0.929 . S
H964 C978 0.931 . S
H965 C980 0.930 . S
C966 H954 0.930 . S
C966 C967 1.399 1_554 S
C966 C971 1.399 . S
C967 C966 1.399 1_556 S
C967 C968 1.376 . S
C968 H955 0.930 . S
C968 C967 1.376 . S
C968 C969 1.388 . S
C969 H956 0.930 . S
C969 C968 1.388 . S
C969 C970 1.390 . S
C970 C969 1.390 . S
C970 C971 1.394 1_556 S
C970 C976 1.465 . S
C971 C966 1.399 . S
C971 C970 1.394 1_554 S
C971 C972 1.516 . S
C972 C971 1.516 . S
C972 C973 1.502 . S
C972 C974 1.561 . S
C972 C975 1.526 . S
C973 H957 0.959 . S
C973 H958 0.959 . S
C973 H959 0.961 . S
C973 C972 1.502 . S
C974 H960 0.960 . S
C974 H961 0.961 . S
C974 H962 0.959 . S
C974 C972 1.561 . S
C975 C972 1.526 . S
C975 C976 1.396 1_554 S
C975 C980 1.390 . S
C976 C970 1.465 . S
C976 C975 1.396 1_556 S
C976 C977 1.399 . S
C977 H963 0.929 . S
C977 C976 1.399 . S
C977 C978 1.385 . S
C978 H964 0.931 . S
C978 C977 1.385 . S
C978 C979 1.389 1_556 S
C979 C978 1.389 1_554 S
C979 C980 1.387 . S
C980 H965 0.930 . S
C980 C975 1.390 . S
C980 C979 1.387 . S
H981 C993 0.930 . S
H982 C995 0.930 . S
H983 C996 0.930 . S
H984 C1000 0.959 . S
H985 C1000 0.959 . S
H986 C1000 0.961 . S
H987 C1001 0.960 . S
H988 C1001 0.961 . S
H989 C1001 0.959 . S
H990 C1004 0.929 . S
H991 C1005 0.931 . S
H992 C1007 0.930 . S
C993 H981 0.930 . S
C993 C994 1.399 1_554 S
C993 C998 1.399 . S
C994 C993 1.399 1_556 S
C994 C995 1.376 . S
C995 H982 0.930 . S
C995 C994 1.376 . S
C995 C996 1.388 . S
C996 H983 0.930 . S
C996 C995 1.388 . S
C996 C997 1.390 . S
C997 C996 1.390 . S
C997 C998 1.394 1_556 S
C997 C1003 1.465 . S
C998 C993 1.399 . S
C998 C997 1.394 1_554 S
C998 C999 1.516 . S
C999 C998 1.516 . S
C999 C1000 1.502 . S
C999 C1001 1.561 . S
C999 C1002 1.526 . S
C1000 H984 0.959 . S
C1000 H985 0.959 . S
C1000 H986 0.961 . S
C1000 C999 1.502 . S
C1001 H987 0.960 . S
C1001 H988 0.961 . S
C1001 H989 0.959 . S
C1001 C999 1.561 . S
C1002 C999 1.526 . S
C1002 C1003 1.396 1_554 S
C1002 C1007 1.390 . S
C1003 C997 1.465 . S
C1003 C1002 1.396 1_556 S
C1003 C1004 1.399 . S
C1004 H990 0.929 . S
C1004 C1003 1.399 . S
C1004 C1005 1.385 . S
C1005 H991 0.931 . S
C1005 C1004 1.385 . S
C1005 C1006 1.389 1_556 S
C1006 C1005 1.389 1_554 S
C1006 C1007 1.387 . S
C1007 H992 0.930 . S
C1007 C1002 1.390 . S
C1007 C1006 1.387 . S
H1008 C1020 0.930 . S
H1009 C1022 0.930 . S
H1010 C1023 0.930 . S
H1011 C1027 0.959 . S
H1012 C1027 0.959 . S
H1013 C1027 0.961 . S
H1014 C1028 0.960 . S
H1015 C1028 0.961 . S
H1016 C1028 0.959 . S
H1017 C1031 0.929 . S
H1018 C1032 0.931 . S
H1019 C1034 0.930 . S
C1020 H1008 0.930 . S
C1020 C1021 1.399 . S
C1020 C1025 1.400 . S
C1021 C1020 1.399 . S
C1021 C1022 1.376 1_556 S
C1022 H1009 0.930 . S
C1022 C1021 1.376 1_554 S
C1022 C1023 1.388 . S
C1023 H1010 0.930 . S
C1023 C1022 1.388 . S
C1023 C1024 1.390 . S
C1024 C1023 1.390 . S
C1024 C1025 1.392 1_554 S
C1024 C1030 1.465 . S
C1025 C1020 1.400 . S
C1025 C1024 1.392 1_556 S
C1025 C1026 1.516 1_556 S
C1026 C1025 1.516 1_554 S
C1026 C1027 1.502 1_554 S
C1026 C1028 1.561 . S
C1026 C1029 1.526 . S
C1027 H1011 0.959 . S
C1027 H1012 0.959 . S
C1027 H1013 0.961 . S
C1027 C1026 1.502 1_556 S
C1028 H1014 0.960 . S
C1028 H1015 0.961 . S
C1028 H1016 0.959 . S
C1028 C1026 1.561 . S
C1029 C1026 1.526 . S
C1029 C1030 1.396 . S
C1029 C1034 1.390 . S
C1030 C1024 1.465 . S
C1030 C1029 1.396 . S
C1030 C1031 1.399 . S
C1031 H1017 0.929 . S
C1031 C1030 1.399 . S
C1031 C1032 1.385 . S
C1032 H1018 0.931 . S
C1032 C1031 1.385 . S
C1032 C1033 1.389 . S
C1033 C1032 1.389 . S
C1033 C1034 1.387 . S
C1034 H1019 0.930 . S
C1034 C1029 1.390 . S
C1034 C1033 1.387 . S
H1035 C1047 0.930 . S
H1036 C1049 0.930 . S
H1037 C1050 0.930 . S
H1038 C1054 0.959 . S
H1039 C1054 0.959 . S
H1040 C1054 0.961 . S
H1041 C1055 0.960 . S
H1042 C1055 0.961 . S
H1043 C1055 0.959 . S
H1044 C1058 0.929 . S
H1045 C1059 0.931 . S
H1046 C1061 0.930 . S
C1047 H1035 0.930 . S
C1047 C1048 1.399 . S
C1047 C1052 1.399 . S
C1048 C1047 1.399 . S
C1048 C1049 1.376 . S
C1049 H1036 0.930 . S
C1049 C1048 1.376 . S
C1049 C1050 1.388 . S
C1050 H1037 0.930 . S
C1050 C1049 1.388 . S
C1050 C1051 1.390 . S
C1051 C1050 1.390 . S
C1051 C1052 1.394 . S
C1051 C1057 1.465 . S
C1052 C1047 1.399 . S
C1052 C1051 1.394 . S
C1052 C1053 1.516 . S
C1053 C1052 1.516 . S
C1053 C1054 1.502 . S
C1053 C1055 1.561 . S
C1053 C1056 1.526 . S
C1054 H1038 0.959 . S
C1054 H1039 0.959 . S
C1054 H1040 0.961 . S
C1054 C1053 1.502 . S
C1055 H1041 0.960 . S
C1055 H1042 0.961 . S
C1055 H1043 0.959 . S
C1055 C1053 1.561 . S
C1056 C1053 1.526 . S
C1056 C1057 1.396 . S
C1056 C1061 1.390 . S
C1057 C1051 1.465 . S
C1057 C1056 1.396 . S
C1057 C1058 1.399 . S
C1058 H1044 0.929 . S
C1058 C1057 1.399 . S
C1058 C1059 1.385 . S
C1059 H1045 0.931 . S
C1059 C1058 1.385 . S
C1059 C1060 1.389 . S
C1060 C1059 1.389 . S
C1060 C1061 1.387 . S
C1061 H1046 0.930 . S
C1061 C1056 1.390 . S
C1061 C1060 1.387 . S
H1062 C1074 0.930 . S
H1063 C1076 0.930 . S
H1064 C1077 0.930 . S
H1065 C1081 0.959 . S
H1066 C1081 0.959 . S
H1067 C1081 0.961 . S
H1068 C1082 0.960 . S
H1069 C1082 0.961 . S
H1070 C1082 0.959 . S
H1071 C1085 0.929 . S
H1072 C1086 0.931 . S
H1073 C1088 0.930 . S
C1074 H1062 0.930 . S
C1074 C1075 1.399 . S
C1074 C1079 1.399 . S
C1075 C1074 1.399 . S
C1075 C1076 1.376 . S
C1076 H1063 0.930 . S
C1076 C1075 1.376 . S
C1076 C1077 1.388 . S
C1077 H1064 0.930 . S
C1077 C1076 1.388 . S
C1077 C1078 1.390 . S
C1078 C1077 1.390 . S
C1078 C1079 1.394 . S
C1078 C1084 1.465 . S
C1079 C1074 1.399 . S
C1079 C1078 1.394 . S
C1079 C1080 1.516 . S
C1080 C1079 1.516 . S
C1080 C1081 1.502 . S
C1080 C1082 1.561 . S
C1080 C1083 1.526 . S
C1081 H1065 0.959 . S
C1081 H1066 0.959 . S
C1081 H1067 0.961 . S
C1081 C1080 1.502 . S
C1082 H1068 0.960 . S
C1082 H1069 0.961 . S
C1082 H1070 0.959 . S
C1082 C1080 1.561 . S
C1083 C1080 1.526 . S
C1083 C1084 1.396 . S
C1083 C1088 1.390 . S
C1084 C1078 1.465 . S
C1084 C1083 1.396 . S
C1084 C1085 1.399 . S
C1085 H1071 0.929 . S
C1085 C1084 1.399 . S
C1085 C1086 1.385 . S
C1086 H1072 0.931 . S
C1086 C1085 1.385 . S
C1086 C1087 1.389 . S
C1087 C1086 1.389 . S
C1087 C1088 1.387 . S
C1088 H1073 0.930 . S
C1088 C1083 1.390 . S
C1088 C1087 1.387 . S
H1089 C1101 0.930 . S
H1090 C1103 0.930 . S
H1091 C1104 0.930 . S
H1092 C1108 0.959 . S
H1093 C1108 0.959 . S
H1094 C1108 0.961 . S
H1095 C1109 0.960 . S
H1096 C1109 0.961 . S
H1097 C1109 0.959 . S
H1098 C1112 0.929 . S
H1099 C1113 0.931 . S
H1100 C1115 0.930 . S
C1101 H1089 0.930 . S
C1101 C1102 1.399 . S
C1101 C1106 1.399 . S
C1102 C1101 1.399 . S
C1102 C1103 1.376 . S
C1103 H1090 0.930 . S
C1103 C1102 1.376 . S
C1103 C1104 1.388 . S
C1104 H1091 0.930 . S
C1104 C1103 1.388 . S
C1104 C1105 1.390 . S
C1105 C1104 1.390 . S
C1105 C1106 1.394 . S
C1105 C1111 1.465 . S
C1106 C1101 1.399 . S
C1106 C1105 1.394 . S
C1106 C1107 1.516 . S
C1107 C1106 1.516 . S
C1107 C1108 1.502 . S
C1107 C1109 1.561 . S
C1107 C1110 1.526 . S
C1108 H1092 0.959 . S
C1108 H1093 0.959 . S
C1108 H1094 0.961 . S
C1108 C1107 1.502 . S
C1109 H1095 0.960 . S
C1109 H1096 0.961 . S
C1109 H1097 0.959 . S
C1109 C1107 1.561 . S
C1110 C1107 1.526 . S
C1110 C1111 1.396 . S
C1110 C1115 1.390 . S
C1111 C1105 1.465 . S
C1111 C1110 1.396 . S
C1111 C1112 1.399 . S
C1112 H1098 0.929 . S
C1112 C1111 1.399 . S
C1112 C1113 1.385 . S
C1113 H1099 0.931 . S
C1113 C1112 1.385 . S
C1113 C1114 1.389 . S
C1114 C1113 1.389 . S
C1114 C1115 1.387 . S
C1115 H1100 0.930 . S
C1115 C1110 1.390 . S
C1115 C1114 1.387 . S
H1116 C1128 0.930 . S
H1117 C1130 0.930 . S
H1118 C1131 0.930 . S
H1119 C1135 0.959 . S
H1120 C1135 0.959 . S
H1121 C1135 0.961 . S
H1122 C1136 0.960 . S
H1123 C1136 0.961 . S
H1124 C1136 0.959 . S
H1125 C1139 0.929 . S
H1126 C1140 0.931 . S
H1127 C1142 0.930 . S
C1128 H1116 0.930 . S
C1128 C1129 1.399 1_556 S
C1128 C1133 1.399 . S
C1129 C1128 1.399 1_554 S
C1129 C1130 1.376 . S
C1130 H1117 0.930 . S
C1130 C1129 1.376 . S
C1130 C1131 1.388 . S
C1131 H1118 0.930 . S
C1131 C1130 1.388 . S
C1131 C1132 1.390 . S
C1132 C1131 1.390 . S
C1132 C1133 1.394 1_554 S
C1132 C1138 1.465 . S
C1133 C1128 1.399 . S
C1133 C1132 1.394 1_556 S
C1133 C1134 1.516 . S
C1134 C1133 1.516 . S
C1134 C1135 1.502 . S
C1134 C1136 1.561 . S
C1134 C1137 1.526 . S
C1135 H1119 0.959 . S
C1135 H1120 0.959 . S
C1135 H1121 0.961 . S
C1135 C1134 1.502 . S
C1136 H1122 0.960 . S
C1136 H1123 0.961 . S
C1136 H1124 0.959 . S
C1136 C1134 1.561 . S
C1137 C1134 1.526 . S
C1137 C1138 1.396 1_556 S
C1137 C1142 1.390 . S
C1138 C1132 1.465 . S
C1138 C1137 1.396 1_554 S
C1138 C1139 1.399 . S
C1139 H1125 0.929 . S
C1139 C1138 1.399 . S
C1139 C1140 1.385 . S
C1140 H1126 0.931 . S
C1140 C1139 1.385 . S
C1140 C1141 1.389 1_554 S
C1141 C1140 1.389 1_556 S
C1141 C1142 1.387 . S
C1142 H1127 0.930 . S
C1142 C1137 1.390 . S
C1142 C1141 1.387 . S
H1143 C1155 0.930 . S
H1144 C1157 0.930 . S
H1145 C1158 0.930 . S
H1146 C1162 0.959 . S
H1147 C1162 0.959 . S
H1148 C1162 0.961 . S
H1149 C1163 0.960 . S
H1150 C1163 0.961 . S
H1151 C1163 0.959 . S
H1152 C1166 0.929 . S
H1153 C1167 0.931 . S
H1154 C1169 0.930 . S
C1155 H1143 0.930 . S
C1155 C1156 1.399 . S
C1155 C1160 1.399 . S
C1156 C1155 1.399 . S
C1156 C1157 1.376 1_556 S
C1157 H1144 0.930 . S
C1157 C1156 1.376 1_554 S
C1157 C1158 1.388 . S
C1158 H1145 0.930 . S
C1158 C1157 1.388 . S
C1158 C1159 1.390 . S
C1159 C1158 1.390 . S
C1159 C1160 1.394 1_554 S
C1159 C1165 1.465 . S
C1160 C1155 1.399 . S
C1160 C1159 1.394 1_556 S
C1160 C1161 1.516 . S
C1161 C1160 1.516 . S
C1161 C1162 1.502 . S
C1161 C1163 1.561 . S
C1161 C1164 1.526 . S
C1162 H1146 0.959 . S
C1162 H1147 0.959 . S
C1162 H1148 0.961 . S
C1162 C1161 1.502 . S
C1163 H1149 0.960 . S
C1163 H1150 0.961 . S
C1163 H1151 0.959 . S
C1163 C1161 1.561 . S
C1164 C1161 1.526 . S
C1164 C1165 1.396 1_556 S
C1164 C1169 1.390 . S
C1165 C1159 1.465 . S
C1165 C1164 1.396 1_554 S
C1165 C1166 1.399 . S
C1166 H1152 0.929 . S
C1166 C1165 1.399 . S
C1166 C1167 1.385 . S
C1167 H1153 0.931 . S
C1167 C1166 1.385 . S
C1167 C1168 1.389 . S
C1168 C1167 1.389 . S
C1168 C1169 1.387 1_554 S
C1169 H1154 0.930 . S
C1169 C1164 1.390 . S
C1169 C1168 1.387 1_556 S
H1170 C1182 0.930 . S
H1171 C1184 0.930 . S
H1172 C1185 0.930 . S
H1173 C1189 0.959 . S
H1174 C1189 0.959 . S
H1175 C1189 0.961 . S
H1176 C1190 0.959 1_554 S
H1177 C1190 0.961 . S
H1178 C1190 0.959 . S
H1179 C1193 0.929 . S
H1180 C1194 0.931 . S
H1181 C1196 0.930 1_554 S
C1182 H1170 0.930 . S
C1182 C1183 1.399 . S
C1182 C1187 1.399 . S
C1183 C1182 1.399 . S
C1183 C1184 1.376 1_554 S
C1184 H1171 0.930 . S
C1184 C1183 1.376 1_556 S
C1184 C1185 1.388 . S
C1185 H1172 0.930 . S
C1185 C1184 1.388 . S
C1185 C1186 1.390 . S
C1186 C1185 1.390 . S
C1186 C1187 1.394 1_556 S
C1186 C1192 1.465 . S
C1187 C1182 1.399 . S
C1187 C1186 1.394 1_554 S
C1187 C1188 1.516 . S
C1188 C1187 1.516 . S
C1188 C1189 1.502 . S
C1188 C1190 1.561 1_554 S
C1188 C1191 1.526 1_554 S
C1189 H1173 0.959 . S
C1189 H1174 0.959 . S
C1189 H1175 0.961 . S
C1189 C1188 1.502 . S
C1190 H1176 0.959 1_556 S
C1190 H1177 0.961 . S
C1190 H1178 0.959 . S
C1190 C1188 1.561 1_556 S
C1191 C1188 1.526 1_556 S
C1191 C1192 1.396 . S
C1191 C1196 1.390 . S
C1192 C1186 1.465 . S
C1192 C1191 1.396 . S
C1192 C1193 1.399 . S
C1193 H1179 0.929 . S
C1193 C1192 1.399 . S
C1193 C1194 1.385 . S
C1194 H1180 0.931 . S
C1194 C1193 1.385 . S
C1194 C1195 1.389 . S
C1195 C1194 1.389 . S
C1195 C1196 1.387 . S
C1196 H1181 0.930 1_556 S
C1196 C1191 1.390 . S
C1196 C1195 1.387 . S
H1197 C1209 0.930 . S
H1198 C1211 0.930 . S
H1199 C1212 0.930 . S
H1200 C1216 0.959 . S
H1201 C1216 0.959 . S
H1202 C1216 0.961 . S
H1203 C1217 0.960 . S
H1204 C1217 0.961 . S
H1205 C1217 0.959 . S
H1206 C1220 0.929 . S
H1207 C1221 0.931 . S
H1208 C1223 0.930 . S
C1209 H1197 0.930 . S
C1209 C1210 1.399 . S
C1209 C1214 1.399 . S
C1210 C1209 1.399 . S
C1210 C1211 1.376 . S
C1211 H1198 0.930 . S
C1211 C1210 1.376 . S
C1211 C1212 1.388 . S
C1212 H1199 0.930 . S
C1212 C1211 1.388 . S
C1212 C1213 1.390 . S
C1213 C1212 1.390 . S
C1213 C1214 1.394 . S
C1213 C1219 1.465 . S
C1214 C1209 1.399 . S
C1214 C1213 1.394 . S
C1214 C1215 1.516 . S
C1215 C1214 1.516 . S
C1215 C1216 1.502 . S
C1215 C1217 1.561 . S
C1215 C1218 1.526 . S
C1216 H1200 0.959 . S
C1216 H1201 0.959 . S
C1216 H1202 0.961 . S
C1216 C1215 1.502 . S
C1217 H1203 0.960 . S
C1217 H1204 0.961 . S
C1217 H1205 0.959 . S
C1217 C1215 1.561 . S
C1218 C1215 1.526 . S
C1218 C1219 1.396 . S
C1218 C1223 1.390 . S
C1219 C1213 1.465 . S
C1219 C1218 1.396 . S
C1219 C1220 1.399 . S
C1220 H1206 0.929 . S
C1220 C1219 1.399 . S
C1220 C1221 1.385 . S
C1221 H1207 0.931 . S
C1221 C1220 1.385 . S
C1221 C1222 1.389 . S
C1222 C1221 1.389 . S
C1222 C1223 1.387 . S
C1223 H1208 0.930 . S
C1223 C1218 1.390 . S
C1223 C1222 1.387 . S
H1224 C1236 0.930 . S
H1225 C1238 0.930 . S
H1226 C1239 0.930 . S
H1227 C1243 0.959 . S
H1228 C1243 0.959 . S
H1229 C1243 0.961 . S
H1230 C1244 0.960 . S
H1231 C1244 0.961 . S
H1232 C1244 0.959 . S
H1233 C1247 0.929 . S
H1234 C1248 0.931 . S
H1235 C1250 0.930 . S
C1236 H1224 0.930 . S
C1236 C1237 1.399 . S
C1236 C1241 1.399 . S
C1237 C1236 1.399 . S
C1237 C1238 1.376 . S
C1238 H1225 0.930 . S
C1238 C1237 1.376 . S
C1238 C1239 1.388 . S
C1239 H1226 0.930 . S
C1239 C1238 1.388 . S
C1239 C1240 1.390 . S
C1240 C1239 1.390 . S
C1240 C1241 1.394 . S
C1240 C1246 1.465 . S
C1241 C1236 1.399 . S
C1241 C1240 1.394 . S
C1241 C1242 1.516 . S
C1242 C1241 1.516 . S
C1242 C1243 1.502 . S
C1242 C1244 1.561 . S
C1242 C1245 1.526 . S
C1243 H1227 0.959 . S
C1243 H1228 0.959 . S
C1243 H1229 0.961 . S
C1243 C1242 1.502 . S
C1244 H1230 0.960 . S
C1244 H1231 0.961 . S
C1244 H1232 0.959 . S
C1244 C1242 1.561 . S
C1245 C1242 1.526 . S
C1245 C1246 1.396 . S
C1245 C1250 1.390 . S
C1246 C1240 1.465 . S
C1246 C1245 1.396 . S
C1246 C1247 1.399 . S
C1247 H1233 0.929 . S
C1247 C1246 1.399 . S
C1247 C1248 1.385 . S
C1248 H1234 0.931 . S
C1248 C1247 1.385 . S
C1248 C1249 1.389 . S
C1249 C1248 1.389 . S
C1249 C1250 1.387 . S
C1250 H1235 0.930 . S
C1250 C1245 1.390 . S
C1250 C1249 1.387 . S
H1251 C1263 0.930 . S
H1252 C1265 0.930 . S
H1253 C1266 0.930 . S
H1254 C1270 0.959 . S
H1255 C1270 0.959 . S
H1256 C1270 0.961 . S
H1257 C1271 0.960 . S
H1258 C1271 0.961 . S
H1259 C1271 0.959 . S
H1260 C1274 0.929 . S
H1261 C1275 0.931 . S
H1262 C1277 0.930 . S
C1263 H1251 0.930 . S
C1263 C1264 1.399 . S
C1263 C1268 1.399 . S
C1264 C1263 1.399 . S
C1264 C1265 1.376 . S
C1265 H1252 0.930 . S
C1265 C1264 1.376 . S
C1265 C1266 1.388 . S
C1266 H1253 0.930 . S
C1266 C1265 1.388 . S
C1266 C1267 1.390 . S
C1267 C1266 1.390 . S
C1267 C1268 1.394 . S
C1267 C1273 1.465 . S
C1268 C1263 1.399 . S
C1268 C1267 1.394 . S
C1268 C1269 1.516 . S
C1269 C1268 1.516 . S
C1269 C1270 1.502 . S
C1269 C1271 1.561 . S
C1269 C1272 1.526 . S
C1270 H1254 0.959 . S
C1270 H1255 0.959 . S
C1270 H1256 0.961 . S
C1270 C1269 1.502 . S
C1271 H1257 0.960 . S
C1271 H1258 0.961 . S
C1271 H1259 0.959 . S
C1271 C1269 1.561 . S
C1272 C1269 1.526 . S
C1272 C1273 1.396 . S
C1272 C1277 1.390 . S
C1273 C1267 1.465 . S
C1273 C1272 1.396 . S
C1273 C1274 1.399 . S
C1274 H1260 0.929 . S
C1274 C1273 1.399 . S
C1274 C1275 1.385 . S
C1275 H1261 0.931 . S
C1275 C1274 1.385 . S
C1275 C1276 1.389 . S
C1276 C1275 1.389 . S
C1276 C1277 1.387 . S
C1277 H1262 0.930 . S
C1277 C1272 1.390 . S
C1277 C1276 1.387 . S
H1278 C1290 0.930 . S
H1279 C1292 0.930 . S
H1280 C1293 0.930 . S
H1281 C1297 0.959 . S
H1282 C1297 0.959 . S
H1283 C1297 0.961 . S
H1284 C1298 0.960 . S
H1285 C1298 0.961 . S
H1286 C1298 0.959 . S
H1287 C1301 0.929 . S
H1288 C1302 0.931 . S
H1289 C1304 0.930 . S
C1290 H1278 0.930 . S
C1290 C1291 1.399 . S
C1290 C1295 1.399 . S
C1291 C1290 1.399 . S
C1291 C1292 1.376 . S
C1292 H1279 0.930 . S
C1292 C1291 1.376 . S
C1292 C1293 1.388 . S
C1293 H1280 0.930 . S
C1293 C1292 1.388 . S
C1293 C1294 1.390 . S
C1294 C1293 1.390 . S
C1294 C1295 1.394 . S
C1294 C1300 1.465 . S
C1295 C1290 1.399 . S
C1295 C1294 1.394 . S
C1295 C1296 1.516 . S
C1296 C1295 1.516 . S
C1296 C1297 1.502 . S
C1296 C1298 1.561 . S
C1296 C1299 1.526 . S
C1297 H1281 0.959 . S
C1297 H1282 0.959 . S
C1297 H1283 0.961 . S
C1297 C1296 1.502 . S
C1298 H1284 0.960 . S
C1298 H1285 0.961 . S
C1298 H1286 0.959 . S
C1298 C1296 1.561 . S
C1299 C1296 1.526 . S
C1299 C1300 1.396 . S
C1299 C1304 1.390 . S
C1300 C1294 1.465 . S
C1300 C1299 1.396 . S
C1300 C1301 1.399 . S
C1301 H1287 0.929 . S
C1301 C1300 1.399 . S
C1301 C1302 1.385 . S
C1302 H1288 0.931 . S
C1302 C1301 1.385 . S
C1302 C1303 1.389 . S
C1303 C1302 1.389 . S
C1303 C1304 1.387 . S
C1304 H1289 0.930 . S
C1304 C1299 1.390 . S
C1304 C1303 1.387 . S
H1305 C1317 0.930 . S
H1306 C1319 0.930 . S
H1307 C1320 0.930 . S
H1308 C1324 0.959 . S
H1309 C1324 0.959 . S
H1310 C1324 0.961 . S
H1311 C1325 0.960 . S
H1312 C1325 0.961 . S
H1313 C1325 0.959 . S
H1314 C1328 0.929 . S
H1315 C1329 0.931 . S
H1316 C1331 0.930 . S
C1317 H1305 0.930 . S
C1317 C1318 1.399 . S
C1317 C1322 1.399 . S
C1318 C1317 1.399 . S
C1318 C1319 1.376 . S
C1319 H1306 0.930 . S
C1319 C1318 1.376 . S
C1319 C1320 1.388 . S
C1320 H1307 0.930 . S
C1320 C1319 1.388 . S
C1320 C1321 1.390 . S
C1321 C1320 1.390 . S
C1321 C1322 1.394 . S
C1321 C1327 1.465 . S
C1322 C1317 1.399 . S
C1322 C1321 1.394 . S
C1322 C1323 1.516 . S
C1323 C1322 1.516 . S
C1323 C1324 1.502 . S
C1323 C1325 1.561 . S
C1323 C1326 1.526 . S
C1324 H1308 0.959 . S
C1324 H1309 0.959 . S
C1324 H1310 0.961 . S
C1324 C1323 1.502 . S
C1325 H1311 0.960 . S
C1325 H1312 0.961 . S
C1325 H1313 0.959 . S
C1325 C1323 1.561 . S
C1326 C1323 1.526 . S
C1326 C1327 1.396 . S
C1326 C1331 1.390 . S
C1327 C1321 1.465 . S
C1327 C1326 1.396 . S
C1327 C1328 1.399 . S
C1328 H1314 0.929 . S
C1328 C1327 1.399 . S
C1328 C1329 1.385 . S
C1329 H1315 0.931 . S
C1329 C1328 1.385 . S
C1329 C1330 1.389 . S
C1330 C1329 1.389 . S
C1330 C1331 1.387 . S
C1331 H1316 0.930 . S
C1331 C1326 1.390 . S
C1331 C1330 1.387 . S
H1332 C1344 0.930 . S
H1333 C1346 0.930 . S
H1334 C1347 0.930 . S
H1335 C1351 0.959 . S
H1336 C1351 0.959 . S
H1337 C1351 0.961 . S
H1338 C1352 0.960 . S
H1339 C1352 0.961 . S
H1340 C1352 0.959 . S
H1341 C1355 0.929 . S
H1342 C1356 0.931 . S
H1343 C1358 0.930 . S
C1344 H1332 0.930 . S
C1344 C1345 1.399 . S
C1344 C1349 1.399 . S
C1345 C1344 1.399 . S
C1345 C1346 1.376 . S
C1346 H1333 0.930 . S
C1346 C1345 1.376 . S
C1346 C1347 1.388 . S
C1347 H1334 0.930 . S
C1347 C1346 1.388 . S
C1347 C1348 1.390 . S
C1348 C1347 1.390 . S
C1348 C1349 1.394 . S
C1348 C1354 1.465 . S
C1349 C1344 1.399 . S
C1349 C1348 1.394 . S
C1349 C1350 1.516 . S
C1350 C1349 1.516 . S
C1350 C1351 1.502 . S
C1350 C1352 1.561 . S
C1350 C1353 1.526 . S
C1351 H1335 0.959 . S
C1351 H1336 0.959 . S
C1351 H1337 0.961 . S
C1351 C1350 1.502 . S
C1352 H1338 0.960 . S
C1352 H1339 0.961 . S
C1352 H1340 0.959 . S
C1352 C1350 1.561 . S
C1353 C1350 1.526 . S
C1353 C1354 1.396 . S
C1353 C1358 1.390 . S
C1354 C1348 1.465 . S
C1354 C1353 1.396 . S
C1354 C1355 1.399 . S
C1355 H1341 0.929 . S
C1355 C1354 1.399 . S
C1355 C1356 1.385 . S
C1356 H1342 0.931 . S
C1356 C1355 1.385 . S
C1356 C1357 1.389 . S
C1357 C1356 1.389 . S
C1357 C1358 1.387 . S
C1358 H1343 0.930 . S
C1358 C1353 1.390 . S
C1358 C1357 1.387 . S
H1359 C1371 0.930 . S
H1360 C1373 0.930 . S
H1361 C1374 0.930 . S
H1362 C1378 0.959 . S
H1363 C1378 0.959 . S
H1364 C1378 0.961 . S
H1365 C1379 0.960 . S
H1366 C1379 0.961 . S
H1367 C1379 0.959 . S
H1368 C1382 0.929 . S
H1369 C1383 0.931 . S
H1370 C1385 0.930 . S
C1371 H1359 0.930 . S
C1371 C1372 1.399 . S
C1371 C1376 1.399 . S
C1372 C1371 1.399 . S
C1372 C1373 1.376 . S
C1373 H1360 0.930 . S
C1373 C1372 1.376 . S
C1373 C1374 1.388 . S
C1374 H1361 0.930 . S
C1374 C1373 1.388 . S
C1374 C1375 1.390 . S
C1375 C1374 1.390 . S
C1375 C1376 1.394 . S
C1375 C1381 1.465 . S
C1376 C1371 1.399 . S
C1376 C1375 1.394 . S
C1376 C1377 1.516 . S
C1377 C1376 1.516 . S
C1377 C1378 1.502 . S
C1377 C1379 1.561 . S
C1377 C1380 1.526 . S
C1378 H1362 0.959 . S
C1378 H1363 0.959 . S
C1378 H1364 0.961 . S
C1378 C1377 1.502 . S
C1379 H1365 0.960 . S
C1379 H1366 0.961 . S
C1379 H1367 0.959 . S
C1379 C1377 1.561 . S
C1380 C1377 1.526 . S
C1380 C1381 1.396 . S
C1380 C1385 1.390 . S
C1381 C1375 1.465 . S
C1381 C1380 1.396 . S
C1381 C1382 1.399 . S
C1382 H1368 0.929 . S
C1382 C1381 1.399 . S
C1382 C1383 1.385 . S
C1383 H1369 0.931 . S
C1383 C1382 1.385 . S
C1383 C1384 1.389 . S
C1384 C1383 1.389 . S
C1384 C1385 1.387 . S
C1385 H1370 0.930 . S
C1385 C1380 1.390 . S
C1385 C1384 1.387 . S
H1386 C1398 0.930 . S
H1387 C1400 0.930 . S
H1388 C1401 0.930 . S
H1389 C1405 0.959 . S
H1390 C1405 0.959 . S
H1391 C1405 0.961 . S
H1392 C1406 0.960 . S
H1393 C1406 0.961 . S
H1394 C1406 0.959 . S
H1395 C1409 0.929 . S
H1396 C1410 0.931 . S
H1397 C1412 0.930 . S
C1398 H1386 0.930 . S
C1398 C1399 1.399 . S
C1398 C1403 1.399 . S
C1399 C1398 1.399 . S
C1399 C1400 1.376 . S
C1400 H1387 0.930 . S
C1400 C1399 1.376 . S
C1400 C1401 1.388 . S
C1401 H1388 0.930 . S
C1401 C1400 1.388 . S
C1401 C1402 1.390 . S
C1402 C1401 1.390 . S
C1402 C1403 1.394 . S
C1402 C1408 1.465 . S
C1403 C1398 1.399 . S
C1403 C1402 1.394 . S
C1403 C1404 1.516 . S
C1404 C1403 1.516 . S
C1404 C1405 1.502 . S
C1404 C1406 1.561 . S
C1404 C1407 1.526 . S
C1405 H1389 0.959 . S
C1405 H1390 0.959 . S
C1405 H1391 0.961 . S
C1405 C1404 1.502 . S
C1406 H1392 0.960 . S
C1406 H1393 0.961 . S
C1406 H1394 0.959 . S
C1406 C1404 1.561 . S
C1407 C1404 1.526 . S
C1407 C1408 1.396 . S
C1407 C1412 1.390 . S
C1408 C1402 1.465 . S
C1408 C1407 1.396 . S
C1408 C1409 1.399 . S
C1409 H1395 0.929 . S
C1409 C1408 1.399 . S
C1409 C1410 1.385 . S
C1410 H1396 0.931 . S
C1410 C1409 1.385 . S
C1410 C1411 1.389 . S
C1411 C1410 1.389 . S
C1411 C1412 1.387 . S
C1412 H1397 0.930 . S
C1412 C1407 1.390 . S
C1412 C1411 1.387 . S
H1413 C1425 0.930 . S
H1414 C1427 0.930 . S
H1415 C1428 0.930 . S
H1416 C1432 0.959 . S
H1417 C1432 0.959 . S
H1418 C1432 0.961 . S
H1419 C1433 0.960 . S
H1420 C1433 0.961 . S
H1421 C1433 0.959 . S
H1422 C1436 0.929 . S
H1423 C1437 0.931 . S
H1424 C1439 0.930 . S
C1425 H1413 0.930 . S
C1425 C1426 1.399 . S
C1425 C1430 1.399 . S
C1426 C1425 1.399 . S
C1426 C1427 1.376 . S
C1427 H1414 0.930 . S
C1427 C1426 1.376 . S
C1427 C1428 1.388 . S
C1428 H1415 0.930 . S
C1428 C1427 1.388 . S
C1428 C1429 1.390 . S
C1429 C1428 1.390 . S
C1429 C1430 1.394 . S
C1429 C1435 1.465 . S
C1430 C1425 1.399 . S
C1430 C1429 1.394 . S
C1430 C1431 1.516 . S
C1431 C1430 1.516 . S
C1431 C1432 1.502 . S
C1431 C1433 1.561 . S
C1431 C1434 1.526 . S
C1432 H1416 0.959 . S
C1432 H1417 0.959 . S
C1432 H1418 0.961 . S
C1432 C1431 1.502 . S
C1433 H1419 0.960 . S
C1433 H1420 0.961 . S
C1433 H1421 0.959 . S
C1433 C1431 1.561 . S
C1434 C1431 1.526 . S
C1434 C1435 1.396 . S
C1434 C1439 1.390 . S
C1435 C1429 1.465 . S
C1435 C1434 1.396 . S
C1435 C1436 1.399 . S
C1436 H1422 0.929 . S
C1436 C1435 1.399 . S
C1436 C1437 1.385 . S
C1437 H1423 0.931 . S
C1437 C1436 1.385 . S
C1437 C1438 1.389 . S
C1438 C1437 1.389 . S
C1438 C1439 1.387 . S
C1439 H1424 0.930 . S
C1439 C1434 1.390 . S
C1439 C1438 1.387 . S
H1440 C1452 0.930 . S
H1441 C1454 0.930 . S
H1442 C1455 0.930 . S
H1443 C1459 0.959 . S
H1444 C1459 0.959 . S
H1445 C1459 0.961 . S
H1446 C1460 0.960 . S
H1447 C1460 0.961 . S
H1448 C1460 0.959 . S
H1449 C1463 0.929 . S
H1450 C1464 0.931 . S
H1451 C1466 0.930 . S
C1452 H1440 0.930 . S
C1452 C1453 1.399 . S
C1452 C1457 1.399 . S
C1453 C1452 1.399 . S
C1453 C1454 1.376 . S
C1454 H1441 0.930 . S
C1454 C1453 1.376 . S
C1454 C1455 1.388 . S
C1455 H1442 0.930 . S
C1455 C1454 1.388 . S
C1455 C1456 1.390 . S
C1456 C1455 1.390 . S
C1456 C1457 1.394 . S
C1456 C1462 1.465 . S
C1457 C1452 1.399 . S
C1457 C1456 1.394 . S
C1457 C1458 1.516 . S
C1458 C1457 1.516 . S
C1458 C1459 1.502 . S
C1458 C1460 1.561 . S
C1458 C1461 1.526 . S
C1459 H1443 0.959 . S
C1459 H1444 0.959 . S
C1459 H1445 0.961 . S
C1459 C1458 1.502 . S
C1460 H1446 0.960 . S
C1460 H1447 0.961 . S
C1460 H1448 0.959 . S
C1460 C1458 1.561 . S
C1461 C1458 1.526 . S
C1461 C1462 1.396 . S
C1461 C1466 1.390 . S
C1462 C1456 1.465 . S
C1462 C1461 1.396 . S
C1462 C1463 1.399 . S
C1463 H1449 0.929 . S
C1463 C1462 1.399 . S
C1463 C1464 1.385 . S
C1464 H1450 0.931 . S
C1464 C1463 1.385 . S
C1464 C1465 1.389 . S
C1465 C1464 1.389 . S
C1465 C1466 1.387 . S
C1466 H1451 0.930 . S
C1466 C1461 1.390 . S
C1466 C1465 1.387 . S
H1467 C1479 0.930 . S
H1468 C1481 0.930 . S
H1469 C1482 0.930 . S
H1470 C1486 0.959 . S
H1471 C1486 0.959 . S
H1472 C1486 0.961 . S
H1473 C1487 0.960 . S
H1474 C1487 0.961 . S
H1475 C1487 0.959 . S
H1476 C1490 0.929 . S
H1477 C1491 0.931 . S
H1478 C1493 0.930 . S
C1479 H1467 0.930 . S
C1479 C1480 1.399 . S
C1479 C1484 1.399 . S
C1480 C1479 1.399 . S
C1480 C1481 1.376 . S
C1481 H1468 0.930 . S
C1481 C1480 1.376 . S
C1481 C1482 1.388 . S
C1482 H1469 0.930 . S
C1482 C1481 1.388 . S
C1482 C1483 1.390 . S
C1483 C1482 1.390 . S
C1483 C1484 1.394 . S
C1483 C1489 1.465 . S
C1484 C1479 1.399 . S
C1484 C1483 1.394 . S
C1484 C1485 1.516 . S
C1485 C1484 1.516 . S
C1485 C1486 1.502 . S
C1485 C1487 1.561 . S
C1485 C1488 1.526 . S
C1486 H1470 0.959 . S
C1486 H1471 0.959 . S
C1486 H1472 0.961 . S
C1486 C1485 1.502 . S
C1487 H1473 0.960 . S
C1487 H1474 0.961 . S
C1487 H1475 0.959 . S
C1487 C1485 1.561 . S
C1488 C1485 1.526 . S
C1488 C1489 1.396 . S
C1488 C1493 1.390 . S
C1489 C1483 1.465 . S
C1489 C1488 1.396 . S
C1489 C1490 1.399 . S
C1490 H1476 0.929 . S
C1490 C1489 1.399 . S
C1490 C1491 1.385 . S
C1491 H1477 0.931 . S
C1491 C1490 1.385 . S
C1491 C1492 1.389 . S
C1492 C1491 1.389 . S
C1492 C1493 1.387 . S
C1493 H1478 0.930 . S
C1493 C1488 1.390 . S
C1493 C1492 1.387 . S
H1494 C1506 0.930 . S
H1495 C1508 0.930 . S
H1496 C1509 0.930 . S
H1497 C1513 0.959 . S
H1498 C1513 0.959 . S
H1499 C1513 0.961 . S
H1500 C1514 0.960 . S
H1501 C1514 0.961 . S
H1502 C1514 0.959 . S
H1503 C1517 0.929 . S
H1504 C1518 0.931 . S
H1505 C1520 0.930 . S
C1506 H1494 0.930 . S
C1506 C1507 1.399 . S
C1506 C1511 1.399 . S
C1507 C1506 1.399 . S
C1507 C1508 1.376 . S
C1508 H1495 0.930 . S
C1508 C1507 1.376 . S
C1508 C1509 1.388 . S
C1509 H1496 0.930 . S
C1509 C1508 1.388 . S
C1509 C1510 1.390 . S
C1510 C1509 1.390 . S
C1510 C1511 1.394 . S
C1510 C1516 1.465 . S
C1511 C1506 1.399 . S
C1511 C1510 1.394 . S
C1511 C1512 1.516 . S
C1512 C1511 1.516 . S
C1512 C1513 1.502 . S
C1512 C1514 1.561 . S
C1512 C1515 1.526 . S
C1513 H1497 0.959 . S
C1513 H1498 0.959 . S
C1513 H1499 0.961 . S
C1513 C1512 1.502 . S
C1514 H1500 0.960 . S
C1514 H1501 0.961 . S
C1514 H1502 0.959 . S
C1514 C1512 1.561 . S
C1515 C1512 1.526 . S
C1515 C1516 1.396 . S
C1515 C1520 1.390 . S
C1516 C1510 1.465 . S
C1516 C1515 1.396 . S
C1516 C1517 1.399 . S
C1517 H1503 0.929 . S
C1517 C1516 1.399 . S
C1517 C1518 1.385 . S
C1518 H1504 0.931 . S
C1518 C1517 1.385 . S
C1518 C1519 1.389 . S
C1519 C1518 1.389 . S
C1519 C1520 1.387 . S
C1520 H1505 0.930 . S
C1520 C1515 1.390 . S
C1520 C1519 1.387 . S
H1521 C1533 0.930 . S
H1522 C1535 0.930 . S
H1523 C1536 0.930 . S
H1524 C1540 0.959 . S
H1525 C1540 0.959 . S
H1526 C1540 0.961 . S
H1527 C1541 0.960 . S
H1528 C1541 0.961 . S
H1529 C1541 0.959 . S
H1530 C1544 0.929 . S
H1531 C1545 0.931 . S
H1532 C1547 0.930 . S
C1533 H1521 0.930 . S
C1533 C1534 1.399 . S
C1533 C1538 1.399 . S
C1534 C1533 1.399 . S
C1534 C1535 1.376 . S
C1535 H1522 0.930 . S
C1535 C1534 1.376 . S
C1535 C1536 1.388 . S
C1536 H1523 0.930 . S
C1536 C1535 1.388 . S
C1536 C1537 1.390 . S
C1537 C1536 1.390 . S
C1537 C1538 1.394 . S
C1537 C1543 1.465 . S
C1538 C1533 1.399 . S
C1538 C1537 1.394 . S
C1538 C1539 1.516 . S
C1539 C1538 1.516 . S
C1539 C1540 1.502 . S
C1539 C1541 1.561 . S
C1539 C1542 1.526 . S
C1540 H1524 0.959 . S
C1540 H1525 0.959 . S
C1540 H1526 0.961 . S
C1540 C1539 1.502 . S
C1541 H1527 0.960 . S
C1541 H1528 0.961 . S
C1541 H1529 0.959 . S
C1541 C1539 1.561 . S
C1542 C1539 1.526 . S
C1542 C1543 1.396 . S
C1542 C1547 1.390 . S
C1543 C1537 1.465 . S
C1543 C1542 1.396 . S
C1543 C1544 1.399 . S
C1544 H1530 0.929 . S
C1544 C1543 1.399 . S
C1544 C1545 1.385 . S
C1545 H1531 0.931 . S
C1545 C1544 1.385 . S
C1545 C1546 1.389 . S
C1546 C1545 1.389 . S
C1546 C1547 1.387 . S
C1547 H1532 0.930 . S
C1547 C1542 1.390 . S
C1547 C1546 1.387 . S
H1548 C1560 0.930 . S
H1549 C1562 0.930 . S
H1550 C1563 0.930 . S
H1551 C1567 0.959 . S
H1552 C1567 0.959 . S
H1553 C1567 0.961 . S
H1554 C1568 0.960 . S
H1555 C1568 0.961 . S
H1556 C1568 0.959 . S
H1557 C1571 0.929 . S
H1558 C1572 0.931 . S
H1559 C1574 0.930 . S
C1560 H1548 0.930 . S
C1560 C1561 1.399 . S
C1560 C1565 1.399 . S
C1561 C1560 1.399 . S
C1561 C1562 1.376 . S
C1562 H1549 0.930 . S
C1562 C1561 1.376 . S
C1562 C1563 1.388 . S
C1563 H1550 0.930 . S
C1563 C1562 1.388 . S
C1563 C1564 1.390 . S
C1564 C1563 1.390 . S
C1564 C1565 1.394 . S
C1564 C1570 1.465 . S
C1565 C1560 1.399 . S
C1565 C1564 1.394 . S
C1565 C1566 1.516 . S
C1566 C1565 1.516 . S
C1566 C1567 1.502 . S
C1566 C1568 1.561 . S
C1566 C1569 1.526 . S
C1567 H1551 0.959 . S
C1567 H1552 0.959 . S
C1567 H1553 0.961 . S
C1567 C1566 1.502 . S
C1568 H1554 0.960 . S
C1568 H1555 0.961 . S
C1568 H1556 0.959 . S
C1568 C1566 1.561 . S
C1569 C1566 1.526 . S
C1569 C1570 1.396 . S
C1569 C1574 1.390 . S
C1570 C1564 1.465 . S
C1570 C1569 1.396 . S
C1570 C1571 1.399 . S
C1571 H1557 0.929 . S
C1571 C1570 1.399 . S
C1571 C1572 1.385 . S
C1572 H1558 0.931 . S
C1572 C1571 1.385 . S
C1572 C1573 1.389 . S
C1573 C1572 1.389 . S
C1573 C1574 1.387 . S
C1574 H1559 0.930 . S
C1574 C1569 1.390 . S
C1574 C1573 1.387 . S
H1575 C1587 0.930 . S
H1576 C1589 0.930 . S
H1577 C1590 0.930 . S
H1578 C1594 0.959 . S
H1579 C1594 0.959 . S
H1580 C1594 0.961 . S
H1581 C1595 0.960 . S
H1582 C1595 0.961 . S
H1583 C1595 0.959 . S
H1584 C1598 0.929 . S
H1585 C1599 0.931 . S
H1586 C1601 0.930 . S
C1587 H1575 0.930 . S
C1587 C1588 1.399 . S
C1587 C1592 1.399 . S
C1588 C1587 1.399 . S
C1588 C1589 1.376 . S
C1589 H1576 0.930 . S
C1589 C1588 1.376 . S
C1589 C1590 1.388 . S
C1590 H1577 0.930 . S
C1590 C1589 1.388 . S
C1590 C1591 1.390 . S
C1591 C1590 1.390 . S
C1591 C1592 1.394 . S
C1591 C1597 1.465 . S
C1592 C1587 1.399 . S
C1592 C1591 1.394 . S
C1592 C1593 1.516 . S
C1593 C1592 1.516 . S
C1593 C1594 1.502 . S
C1593 C1595 1.561 . S
C1593 C1596 1.526 . S
C1594 H1578 0.959 . S
C1594 H1579 0.959 . S
C1594 H1580 0.961 . S
C1594 C1593 1.502 . S
C1595 H1581 0.960 . S
C1595 H1582 0.961 . S
C1595 H1583 0.959 . S
C1595 C1593 1.561 . S
C1596 C1593 1.526 . S
C1596 C1597 1.396 . S
C1596 C1601 1.390 . S
C1597 C1591 1.465 . S
C1597 C1596 1.396 . S
C1597 C1598 1.399 . S
C1598 H1584 0.929 . S
C1598 C1597 1.399 . S
C1598 C1599 1.385 . S
C1599 H1585 0.931 . S
C1599 C1598 1.385 . S
C1599 C1600 1.389 . S
C1600 C1599 1.389 . S
C1600 C1601 1.387 . S
C1601 H1586 0.930 . S
C1601 C1596 1.390 . S
C1601 C1600 1.387 . S
H1602 C1614 0.930 . S
H1603 C1616 0.930 . S
H1604 C1617 0.930 . S
H1605 C1621 0.959 . S
H1606 C1621 0.959 . S
H1607 C1621 0.961 . S
H1608 C1622 0.960 . S
H1609 C1622 0.961 . S
H1610 C1622 0.959 . S
H1611 C1625 0.929 . S
H1612 C1626 0.931 . S
H1613 C1628 0.930 . S
C1614 H1602 0.930 . S
C1614 C1615 1.399 . S
C1614 C1619 1.399 . S
C1615 C1614 1.399 . S
C1615 C1616 1.376 . S
C1616 H1603 0.930 . S
C1616 C1615 1.376 . S
C1616 C1617 1.388 . S
C1617 H1604 0.930 . S
C1617 C1616 1.388 . S
C1617 C1618 1.390 . S
C1618 C1617 1.390 . S
C1618 C1619 1.394 . S
C1618 C1624 1.465 . S
C1619 C1614 1.399 . S
C1619 C1618 1.394 . S
C1619 C1620 1.516 . S
C1620 C1619 1.516 . S
C1620 C1621 1.502 . S
C1620 C1622 1.561 . S
C1620 C1623 1.526 . S
C1621 H1605 0.959 . S
C1621 H1606 0.959 . S
C1621 H1607 0.961 . S
C1621 C1620 1.502 . S
C1622 H1608 0.960 . S
C1622 H1609 0.961 . S
C1622 H1610 0.959 . S
C1622 C1620 1.561 . S
C1623 C1620 1.526 . S
C1623 C1624 1.396 . S
C1623 C1628 1.390 . S
C1624 C1618 1.465 . S
C1624 C1623 1.396 . S
C1624 C1625 1.399 . S
C1625 H1611 0.929 . S
C1625 C1624 1.399 . S
C1625 C1626 1.385 . S
C1626 H1612 0.931 . S
C1626 C1625 1.385 . S
C1626 C1627 1.389 . S
C1627 C1626 1.389 . S
C1627 C1628 1.387 . S
C1628 H1613 0.930 . S
C1628 C1623 1.390 . S
C1628 C1627 1.387 . S
H1629 C1641 0.930 . S
H1630 C1643 0.930 . S
H1631 C1644 0.930 . S
H1632 C1648 0.959 . S
H1633 C1648 0.959 . S
H1634 C1648 0.961 . S
H1635 C1649 0.960 . S
H1636 C1649 0.961 . S
H1637 C1649 0.959 . S
H1638 C1652 0.929 . S
H1639 C1653 0.931 . S
H1640 C1655 0.930 . S
C1641 H1629 0.930 . S
C1641 C1642 1.399 . S
C1641 C1646 1.399 . S
C1642 C1641 1.399 . S
C1642 C1643 1.376 . S
C1643 H1630 0.930 . S
C1643 C1642 1.376 . S
C1643 C1644 1.388 . S
C1644 H1631 0.930 . S
C1644 C1643 1.388 . S
C1644 C1645 1.390 . S
C1645 C1644 1.390 . S
C1645 C1646 1.394 . S
C1645 C1651 1.465 . S
C1646 C1641 1.399 . S
C1646 C1645 1.394 . S
C1646 C1647 1.516 . S
C1647 C1646 1.516 . S
C1647 C1648 1.502 . S
C1647 C1649 1.561 . S
C1647 C1650 1.526 . S
C1648 H1632 0.959 . S
C1648 H1633 0.959 . S
C1648 H1634 0.961 . S
C1648 C1647 1.502 . S
C1649 H1635 0.960 . S
C1649 H1636 0.961 . S
C1649 H1637 0.959 . S
C1649 C1647 1.561 . S
C1650 C1647 1.526 . S
C1650 C1651 1.396 . S
C1650 C1655 1.390 . S
C1651 C1645 1.465 . S
C1651 C1650 1.396 . S
C1651 C1652 1.399 . S
C1652 H1638 0.929 . S
C1652 C1651 1.399 . S
C1652 C1653 1.385 . S
C1653 H1639 0.931 . S
C1653 C1652 1.385 . S
C1653 C1654 1.389 . S
C1654 C1653 1.389 . S
C1654 C1655 1.387 . S
C1655 H1640 0.930 . S
C1655 C1650 1.390 . S
C1655 C1654 1.387 . S
H1656 C1668 0.930 . S
H1657 C1670 0.930 . S
H1658 C1671 0.930 . S
H1659 C1675 0.959 . S
H1660 C1675 0.959 . S
H1661 C1675 0.961 . S
H1662 C1676 0.960 . S
H1663 C1676 0.961 . S
H1664 C1676 0.959 . S
H1665 C1679 0.929 . S
H1666 C1680 0.931 . S
H1667 C1682 0.930 . S
C1668 H1656 0.930 . S
C1668 C1669 1.399 . S
C1668 C1673 1.399 . S
C1669 C1668 1.399 . S
C1669 C1670 1.376 . S
C1670 H1657 0.930 . S
C1670 C1669 1.376 . S
C1670 C1671 1.388 . S
C1671 H1658 0.930 . S
C1671 C1670 1.388 . S
C1671 C1672 1.390 . S
C1672 C1671 1.390 . S
C1672 C1673 1.394 . S
C1672 C1678 1.465 . S
C1673 C1668 1.399 . S
C1673 C1672 1.394 . S
C1673 C1674 1.516 . S
C1674 C1673 1.516 . S
C1674 C1675 1.502 . S
C1674 C1676 1.561 . S
C1674 C1677 1.526 . S
C1675 H1659 0.959 . S
C1675 H1660 0.959 . S
C1675 H1661 0.961 . S
C1675 C1674 1.502 . S
C1676 H1662 0.960 . S
C1676 H1663 0.961 . S
C1676 H1664 0.959 . S
C1676 C1674 1.561 . S
C1677 C1674 1.526 . S
C1677 C1678 1.396 . S
C1677 C1682 1.390 . S
C1678 C1672 1.465 . S
C1678 C1677 1.396 . S
C1678 C1679 1.399 . S
C1679 H1665 0.929 . S
C1679 C1678 1.399 . S
C1679 C1680 1.385 . S
C1680 H1666 0.931 . S
C1680 C1679 1.385 . S
C1680 C1681 1.389 . S
C1681 C1680 1.389 . S
C1681 C1682 1.387 . S
C1682 H1667 0.930 . S
C1682 C1677 1.390 . S
C1682 C1681 1.387 . S
H1683 C1695 0.930 . S
H1684 C1697 0.930 . S
H1685 C1698 0.930 . S
H1686 C1702 0.959 . S
H1687 C1702 0.959 . S
H1688 C1702 0.961 . S
H1689 C1703 0.960 . S
H1690 C1703 0.961 . S
H1691 C1703 0.959 . S
H1692 C1706 0.929 . S
H1693 C1707 0.931 . S
H1694 C1709 0.930 . S
C1695 H1683 0.930 . S
C1695 C1696 1.399 . S
C1695 C1700 1.399 . S
C1696 C1695 1.399 . S
C1696 C1697 1.376 . S
C1697 H1684 0.930 . S
C1697 C1696 1.376 . S
C1697 C1698 1.388 . S
C1698 H1685 0.930 . S
C1698 C1697 1.388 . S
C1698 C1699 1.390 . S
C1699 C1698 1.390 . S
C1699 C1700 1.394 . S
C1699 C1705 1.465 . S
C1700 C1695 1.399 . S
C1700 C1699 1.394 . S
C1700 C1701 1.516 . S
C1701 C1700 1.516 . S
C1701 C1702 1.502 . S
C1701 C1703 1.561 . S
C1701 C1704 1.526 . S
C1702 H1686 0.959 . S
C1702 H1687 0.959 . S
C1702 H1688 0.961 . S
C1702 C1701 1.502 . S
C1703 H1689 0.960 . S
C1703 H1690 0.961 . S
C1703 H1691 0.959 . S
C1703 C1701 1.561 . S
C1704 C1701 1.526 . S
C1704 C1705 1.396 . S
C1704 C1709 1.390 . S
C1705 C1699 1.465 . S
C1705 C1704 1.396 . S
C1705 C1706 1.399 . S
C1706 H1692 0.929 . S
C1706 C1705 1.399 . S
C1706 C1707 1.385 . S
C1707 H1693 0.931 . S
C1707 C1706 1.385 . S
C1707 C1708 1.389 . S
C1708 C1707 1.389 . S
C1708 C1709 1.387 . S
C1709 H1694 0.930 . S
C1709 C1704 1.390 . S
C1709 C1708 1.387 . S
H1710 C1722 0.930 . S
H1711 C1724 0.930 . S
H1712 C1725 0.930 . S
H1713 C1729 0.959 . S
H1714 C1729 0.959 . S
H1715 C1729 0.961 . S
H1716 C1730 0.960 . S
H1717 C1730 0.961 . S
H1718 C1730 0.959 . S
H1719 C1733 0.929 . S
H1720 C1734 0.931 . S
H1721 C1736 0.930 . S
C1722 H1710 0.930 . S
C1722 C1723 1.399 . S
C1722 C1727 1.399 . S
C1723 C1722 1.399 . S
C1723 C1724 1.376 . S
C1724 H1711 0.930 . S
C1724 C1723 1.376 . S
C1724 C1725 1.388 . S
C1725 H1712 0.930 . S
C1725 C1724 1.388 . S
C1725 C1726 1.390 . S
C1726 C1725 1.390 . S
C1726 C1727 1.394 . S
C1726 C1732 1.465 . S
C1727 C1722 1.399 . S
C1727 C1726 1.394 . S
C1727 C1728 1.516 . S
C1728 C1727 1.516 . S
C1728 C1729 1.502 . S
C1728 C1730 1.561 . S
C1728 C1731 1.526 . S
C1729 H1713 0.959 . S
C1729 H1714 0.959 . S
C1729 H1715 0.961 . S
C1729 C1728 1.502 . S
C1730 H1716 0.960 . S
C1730 H1717 0.961 . S
C1730 H1718 0.959 . S
C1730 C1728 1.561 . S
C1731 C1728 1.526 . S
C1731 C1732 1.396 . S
C1731 C1736 1.390 . S
C1732 C1726 1.465 . S
C1732 C1731 1.396 . S
C1732 C1733 1.399 . S
C1733 H1719 0.929 . S
C1733 C1732 1.399 . S
C1733 C1734 1.385 . S
C1734 H1720 0.931 . S
C1734 C1733 1.385 . S
C1734 C1735 1.389 . S
C1735 C1734 1.389 . S
C1735 C1736 1.387 . S
C1736 H1721 0.930 . S
C1736 C1731 1.390 . S
C1736 C1735 1.387 . S
H1737 C1749 0.930 . S
H1738 C1751 0.930 . S
H1739 C1752 0.930 . S
H1740 C1756 0.959 . S
H1741 C1756 0.959 . S
H1742 C1756 0.961 . S
H1743 C1757 0.960 . S
H1744 C1757 0.961 . S
H1745 C1757 0.959 . S
H1746 C1760 0.929 . S
H1747 C1761 0.931 . S
H1748 C1763 0.930 . S
C1749 H1737 0.930 . S
C1749 C1750 1.399 . S
C1749 C1754 1.399 . S
C1750 C1749 1.399 . S
C1750 C1751 1.376 . S
C1751 H1738 0.930 . S
C1751 C1750 1.376 . S
C1751 C1752 1.388 . S
C1752 H1739 0.930 . S
C1752 C1751 1.388 . S
C1752 C1753 1.390 . S
C1753 C1752 1.390 . S
C1753 C1754 1.394 . S
C1753 C1759 1.465 . S
C1754 C1749 1.399 . S
C1754 C1753 1.394 . S
C1754 C1755 1.516 . S
C1755 C1754 1.516 . S
C1755 C1756 1.502 . S
C1755 C1757 1.561 . S
C1755 C1758 1.526 . S
C1756 H1740 0.959 . S
C1756 H1741 0.959 . S
C1756 H1742 0.961 . S
C1756 C1755 1.502 . S
C1757 H1743 0.960 . S
C1757 H1744 0.961 . S
C1757 H1745 0.959 . S
C1757 C1755 1.561 . S
C1758 C1755 1.526 . S
C1758 C1759 1.396 . S
C1758 C1763 1.390 . S
C1759 C1753 1.465 . S
C1759 C1758 1.396 . S
C1759 C1760 1.399 . S
C1760 H1746 0.929 . S
C1760 C1759 1.399 . S
C1760 C1761 1.385 . S
C1761 H1747 0.931 . S
C1761 C1760 1.385 . S
C1761 C1762 1.389 . S
C1762 C1761 1.389 . S
C1762 C1763 1.387 . S
C1763 H1748 0.930 . S
C1763 C1758 1.390 . S
C1763 C1762 1.387 . S
H1764 C1776 0.930 . S
H1765 C1778 0.930 . S
H1766 C1779 0.930 . S
H1767 C1783 0.959 . S
H1768 C1783 0.959 . S
H1769 C1783 0.961 . S
H1770 C1784 0.960 . S
H1771 C1784 0.961 . S
H1772 C1784 0.959 . S
H1773 C1787 0.929 . S
H1774 C1788 0.931 . S
H1775 C1790 0.930 . S
C1776 H1764 0.930 . S
C1776 C1777 1.399 . S
C1776 C1781 1.399 . S
C1777 C1776 1.399 . S
C1777 C1778 1.376 . S
C1778 H1765 0.930 . S
C1778 C1777 1.376 . S
C1778 C1779 1.388 . S
C1779 H1766 0.930 . S
C1779 C1778 1.388 . S
C1779 C1780 1.390 . S
C1780 C1779 1.390 . S
C1780 C1781 1.394 . S
C1780 C1786 1.465 . S
C1781 C1776 1.399 . S
C1781 C1780 1.394 . S
C1781 C1782 1.516 . S
C1782 C1781 1.516 . S
C1782 C1783 1.502 . S
C1782 C1784 1.561 . S
C1782 C1785 1.526 . S
C1783 H1767 0.959 . S
C1783 H1768 0.959 . S
C1783 H1769 0.961 . S
C1783 C1782 1.502 . S
C1784 H1770 0.960 . S
C1784 H1771 0.961 . S
C1784 H1772 0.959 . S
C1784 C1782 1.561 . S
C1785 C1782 1.526 . S
C1785 C1786 1.396 . S
C1785 C1790 1.390 . S
C1786 C1780 1.465 . S
C1786 C1785 1.396 . S
C1786 C1787 1.399 . S
C1787 H1773 0.929 . S
C1787 C1786 1.399 . S
C1787 C1788 1.385 . S
C1788 H1774 0.931 . S
C1788 C1787 1.385 . S
C1788 C1789 1.389 . S
C1789 C1788 1.389 . S
C1789 C1790 1.387 . S
C1790 H1775 0.930 . S
C1790 C1785 1.390 . S
C1790 C1789 1.387 . S
H1791 C1803 0.930 . S
H1792 C1805 0.930 . S
H1793 C1806 0.930 . S
H1794 C1810 0.959 . S
H1795 C1810 0.959 . S
H1796 C1810 0.961 . S
H1797 C1811 0.960 . S
H1798 C1811 0.961 . S
H1799 C1811 0.959 . S
H1800 C1814 0.929 . S
H1801 C1815 0.931 . S
H1802 C1817 0.930 . S
C1803 H1791 0.930 . S
C1803 C1804 1.399 . S
C1803 C1808 1.399 . S
C1804 C1803 1.399 . S
C1804 C1805 1.376 . S
C1805 H1792 0.930 . S
C1805 C1804 1.376 . S
C1805 C1806 1.388 . S
C1806 H1793 0.930 . S
C1806 C1805 1.388 . S
C1806 C1807 1.390 . S
C1807 C1806 1.390 . S
C1807 C1808 1.394 . S
C1807 C1813 1.465 . S
C1808 C1803 1.399 . S
C1808 C1807 1.394 . S
C1808 C1809 1.516 . S
C1809 C1808 1.516 . S
C1809 C1810 1.502 . S
C1809 C1811 1.561 . S
C1809 C1812 1.526 . S
C1810 H1794 0.959 . S
C1810 H1795 0.959 . S
C1810 H1796 0.961 . S
C1810 C1809 1.502 . S
C1811 H1797 0.960 . S
C1811 H1798 0.961 . S
C1811 H1799 0.959 . S
C1811 C1809 1.561 . S
C1812 C1809 1.526 . S
C1812 C1813 1.396 . S
C1812 C1817 1.390 . S
C1813 C1807 1.465 . S
C1813 C1812 1.396 . S
C1813 C1814 1.399 . S
C1814 H1800 0.929 . S
C1814 C1813 1.399 . S
C1814 C1815 1.385 . S
C1815 H1801 0.931 . S
C1815 C1814 1.385 . S
C1815 C1816 1.389 . S
C1816 C1815 1.389 . S
C1816 C1817 1.387 . S
C1817 H1802 0.930 . S
C1817 C1812 1.390 . S
C1817 C1816 1.387 . S
H1818 C1830 0.930 . S
H1819 C1832 0.930 . S
H1820 C1833 0.930 . S
H1821 C1837 0.959 . S
H1822 C1837 0.959 . S
H1823 C1837 0.961 . S
H1824 C1838 0.960 . S
H1825 C1838 0.961 . S
H1826 C1838 0.959 . S
H1827 C1841 0.929 . S
H1828 C1842 0.931 . S
H1829 C1844 0.930 . S
C1830 H1818 0.930 . S
C1830 C1831 1.399 . S
C1830 C1835 1.399 . S
C1831 C1830 1.399 . S
C1831 C1832 1.376 . S
C1832 H1819 0.930 . S
C1832 C1831 1.376 . S
C1832 C1833 1.388 . S
C1833 H1820 0.930 . S
C1833 C1832 1.388 . S
C1833 C1834 1.390 . S
C1834 C1833 1.390 . S
C1834 C1835 1.394 . S
C1834 C1840 1.465 . S
C1835 C1830 1.399 . S
C1835 C1834 1.394 . S
C1835 C1836 1.516 . S
C1836 C1835 1.516 . S
C1836 C1837 1.502 . S
C1836 C1838 1.561 . S
C1836 C1839 1.526 . S
C1837 H1821 0.959 . S
C1837 H1822 0.959 . S
C1837 H1823 0.961 . S
C1837 C1836 1.502 . S
C1838 H1824 0.960 . S
C1838 H1825 0.961 . S
C1838 H1826 0.959 . S
C1838 C1836 1.561 . S
C1839 C1836 1.526 . S
C1839 C1840 1.396 . S
C1839 C1844 1.390 . S
C1840 C1834 1.465 . S
C1840 C1839 1.396 . S
C1840 C1841 1.399 . S
C1841 H1827 0.929 . S
C1841 C1840 1.399 . S
C1841 C1842 1.385 . S
C1842 H1828 0.931 . S
C1842 C1841 1.385 . S
C1842 C1843 1.389 . S
C1843 C1842 1.389 . S
C1843 C1844 1.387 . S
C1844 H1829 0.930 . S
C1844 C1839 1.390 . S
C1844 C1843 1.387 . S
H1845 C1857 0.930 . S
H1846 C1859 0.930 . S
H1847 C1860 0.930 . S
H1848 C1864 0.959 . S
H1849 C1864 0.959 . S
H1850 C1864 0.961 . S
H1851 C1865 0.960 . S
H1852 C1865 0.961 . S
H1853 C1865 0.959 . S
H1854 C1868 0.929 . S
H1855 C1869 0.931 . S
H1856 C1871 0.930 . S
C1857 H1845 0.930 . S
C1857 C1858 1.399 . S
C1857 C1862 1.399 . S
C1858 C1857 1.399 . S
C1858 C1859 1.376 . S
C1859 H1846 0.930 . S
C1859 C1858 1.376 . S
C1859 C1860 1.388 . S
C1860 H1847 0.930 . S
C1860 C1859 1.388 . S
C1860 C1861 1.390 . S
C1861 C1860 1.390 . S
C1861 C1862 1.394 . S
C1861 C1867 1.465 . S
C1862 C1857 1.399 . S
C1862 C1861 1.394 . S
C1862 C1863 1.516 . S
C1863 C1862 1.516 . S
C1863 C1864 1.502 . S
C1863 C1865 1.561 . S
C1863 C1866 1.526 . S
C1864 H1848 0.959 . S
C1864 H1849 0.959 . S
C1864 H1850 0.961 . S
C1864 C1863 1.502 . S
C1865 H1851 0.960 . S
C1865 H1852 0.961 . S
C1865 H1853 0.959 . S
C1865 C1863 1.561 . S
C1866 C1863 1.526 . S
C1866 C1867 1.396 . S
C1866 C1871 1.390 . S
C1867 C1861 1.465 . S
C1867 C1866 1.396 . S
C1867 C1868 1.399 . S
C1868 H1854 0.929 . S
C1868 C1867 1.399 . S
C1868 C1869 1.385 . S
C1869 H1855 0.931 . S
C1869 C1868 1.385 . S
C1869 C1870 1.389 . S
C1870 C1869 1.389 . S
C1870 C1871 1.387 . S
C1871 H1856 0.930 . S
C1871 C1866 1.390 . S
C1871 C1870 1.387 . S
H1872 C1884 0.930 . S
H1873 C1886 0.930 . S
H1874 C1887 0.930 . S
H1875 C1891 0.959 . S
H1876 C1891 0.959 . S
H1877 C1891 0.961 . S
H1878 C1892 0.960 . S
H1879 C1892 0.961 . S
H1880 C1892 0.959 . S
H1881 C1895 0.929 . S
H1882 C1896 0.931 . S
H1883 C1898 0.930 . S
C1884 H1872 0.930 . S
C1884 C1885 1.399 . S
C1884 C1889 1.399 . S
C1885 C1884 1.399 . S
C1885 C1886 1.376 . S
C1886 H1873 0.930 . S
C1886 C1885 1.376 . S
C1886 C1887 1.388 . S
C1887 H1874 0.930 . S
C1887 C1886 1.388 . S
C1887 C1888 1.390 . S
C1888 C1887 1.390 . S
C1888 C1889 1.394 . S
C1888 C1894 1.465 . S
C1889 C1884 1.399 . S
C1889 C1888 1.394 . S
C1889 C1890 1.516 . S
C1890 C1889 1.516 . S
C1890 C1891 1.502 . S
C1890 C1892 1.561 . S
C1890 C1893 1.526 . S
C1891 H1875 0.959 . S
C1891 H1876 0.959 . S
C1891 H1877 0.961 . S
C1891 C1890 1.502 . S
C1892 H1878 0.960 . S
C1892 H1879 0.961 . S
C1892 H1880 0.959 . S
C1892 C1890 1.561 . S
C1893 C1890 1.526 . S
C1893 C1894 1.396 . S
C1893 C1898 1.390 . S
C1894 C1888 1.465 . S
C1894 C1893 1.396 . S
C1894 C1895 1.399 . S
C1895 H1881 0.929 . S
C1895 C1894 1.399 . S
C1895 C1896 1.385 . S
C1896 H1882 0.931 . S
C1896 C1895 1.385 . S
C1896 C1897 1.389 . S
C1897 C1896 1.389 . S
C1897 C1898 1.387 . S
C1898 H1883 0.930 . S
C1898 C1893 1.390 . S
C1898 C1897 1.387 . S
H1899 C1911 0.930 . S
H1900 C1913 0.930 . S
H1901 C1914 0.930 . S
H1902 C1918 0.959 . S
H1903 C1918 0.959 . S
H1904 C1918 0.961 . S
H1905 C1919 0.960 . S
H1906 C1919 0.961 . S
H1907 C1919 0.959 . S
H1908 C1922 0.929 . S
H1909 C1923 0.931 . S
H1910 C1925 0.930 . S
C1911 H1899 0.930 . S
C1911 C1912 1.399 . S
C1911 C1916 1.399 . S
C1912 C1911 1.399 . S
C1912 C1913 1.376 . S
C1913 H1900 0.930 . S
C1913 C1912 1.376 . S
C1913 C1914 1.388 . S
C1914 H1901 0.930 . S
C1914 C1913 1.388 . S
C1914 C1915 1.390 . S
C1915 C1914 1.390 . S
C1915 C1916 1.394 . S
C1915 C1921 1.465 . S
C1916 C1911 1.399 . S
C1916 C1915 1.394 . S
C1916 C1917 1.516 . S
C1917 C1916 1.516 . S
C1917 C1918 1.502 . S
C1917 C1919 1.561 . S
C1917 C1920 1.526 . S
C1918 H1902 0.959 . S
C1918 H1903 0.959 . S
C1918 H1904 0.961 . S
C1918 C1917 1.502 . S
C1919 H1905 0.960 . S
C1919 H1906 0.961 . S
C1919 H1907 0.959 . S
C1919 C1917 1.561 . S
C1920 C1917 1.526 . S
C1920 C1921 1.396 . S
C1920 C1925 1.390 . S
C1921 C1915 1.465 . S
C1921 C1920 1.396 . S
C1921 C1922 1.399 . S
C1922 H1908 0.929 . S
C1922 C1921 1.399 . S
C1922 C1923 1.385 . S
C1923 H1909 0.931 . S
C1923 C1922 1.385 . S
C1923 C1924 1.389 . S
C1924 C1923 1.389 . S
C1924 C1925 1.387 . S
C1925 H1910 0.930 . S
C1925 C1920 1.390 . S
C1925 C1924 1.387 . S
H1926 C1938 0.930 . S
H1927 C1940 0.930 . S
H1928 C1941 0.930 . S
H1929 C1945 0.959 . S
H1930 C1945 0.959 . S
H1931 C1945 0.961 . S
H1932 C1946 0.960 . S
H1933 C1946 0.961 . S
H1934 C1946 0.959 . S
H1935 C1949 0.929 . S
H1936 C1950 0.931 . S
H1937 C1952 0.930 . S
C1938 H1926 0.930 . S
C1938 C1939 1.399 . S
C1938 C1943 1.399 . S
C1939 C1938 1.399 . S
C1939 C1940 1.376 . S
C1940 H1927 0.930 . S
C1940 C1939 1.376 . S
C1940 C1941 1.388 . S
C1941 H1928 0.930 . S
C1941 C1940 1.388 . S
C1941 C1942 1.390 . S
C1942 C1941 1.390 . S
C1942 C1943 1.394 . S
C1942 C1948 1.465 . S
C1943 C1938 1.399 . S
C1943 C1942 1.394 . S
C1943 C1944 1.516 . S
C1944 C1943 1.516 . S
C1944 C1945 1.502 . S
C1944 C1946 1.561 . S
C1944 C1947 1.526 . S
C1945 H1929 0.959 . S
C1945 H1930 0.959 . S
C1945 H1931 0.961 . S
C1945 C1944 1.502 . S
C1946 H1932 0.960 . S
C1946 H1933 0.961 . S
C1946 H1934 0.959 . S
C1946 C1944 1.561 . S
C1947 C1944 1.526 . S
C1947 C1948 1.396 . S
C1947 C1952 1.390 . S
C1948 C1942 1.465 . S
C1948 C1947 1.396 . S
C1948 C1949 1.399 . S
C1949 H1935 0.929 . S
C1949 C1948 1.399 . S
C1949 C1950 1.385 . S
C1950 H1936 0.931 . S
C1950 C1949 1.385 . S
C1950 C1951 1.389 . S
C1951 C1950 1.389 . S
C1951 C1952 1.387 . S
C1952 H1937 0.930 . S
C1952 C1947 1.390 . S
C1952 C1951 1.387 . S
H1953 C1965 0.930 . S
H1954 C1967 0.930 . S
H1955 C1968 0.930 . S
H1956 C1972 0.959 . S
H1957 C1972 0.959 . S
H1958 C1972 0.961 . S
H1959 C1973 0.960 . S
H1960 C1973 0.961 . S
H1961 C1973 0.959 . S
H1962 C1976 0.929 . S
H1963 C1977 0.931 . S
H1964 C1979 0.930 . S
C1965 H1953 0.930 . S
C1965 C1966 1.399 . S
C1965 C1970 1.399 . S
C1966 C1965 1.399 . S
C1966 C1967 1.376 1_545 S
C1967 H1954 0.930 . S
C1967 C1966 1.376 1_565 S
C1967 C1968 1.388 . S
C1968 H1955 0.930 . S
C1968 C1967 1.388 . S
C1968 C1969 1.390 . S
C1969 C1968 1.390 . S
C1969 C1970 1.394 1_565 S
C1969 C1975 1.465 . S
C1970 C1965 1.399 . S
C1970 C1969 1.394 1_545 S
C1970 C1971 1.516 . S
C1971 C1970 1.516 . S
C1971 C1972 1.502 . S
C1971 C1973 1.561 . S
C1971 C1974 1.526 . S
C1972 H1956 0.959 . S
C1972 H1957 0.959 . S
C1972 H1958 0.961 . S
C1972 C1971 1.502 . S
C1973 H1959 0.960 . S
C1973 H1960 0.961 . S
C1973 H1961 0.959 . S
C1973 C1971 1.561 . S
C1974 C1971 1.526 . S
C1974 C1975 1.396 1_545 S
C1974 C1979 1.390 . S
C1975 C1969 1.465 . S
C1975 C1974 1.396 1_565 S
C1975 C1976 1.399 . S
C1976 H1962 0.929 . S
C1976 C1975 1.399 . S
C1976 C1977 1.385 . S
C1977 H1963 0.931 . S
C1977 C1976 1.385 . S
C1977 C1978 1.389 . S
C1978 C1977 1.389 . S
C1978 C1979 1.387 1_565 S
C1979 H1964 0.930 . S
C1979 C1974 1.390 . S
C1979 C1978 1.387 1_545 S
H1980 C1992 0.930 1_655 S
H1981 C1994 0.930 . S
H1982 C1995 0.930 . S
H1983 C1999 0.959 . S
H1984 C1999 0.959 . S
H1985 C1999 0.961 . S
H1986 C2000 0.960 . S
H1987 C2000 0.961 . S
H1988 C2000 0.959 . S
H1989 C2003 0.929 . S
H1990 C2004 0.929 . S
H1991 C2006 0.930 . S
C1992 H1980 0.930 1_455 S
C1992 C1993 1.399 . S
C1992 C1997 1.399 . S
C1993 C1992 1.399 . S
C1993 C1994 1.376 . S
C1994 H1981 0.930 . S
C1994 C1993 1.376 . S
C1994 C1995 1.388 . S
C1995 H1982 0.930 . S
C1995 C1994 1.388 . S
C1995 C1996 1.390 . S
C1996 C1995 1.390 . S
C1996 C1997 1.394 . S
C1996 C2002 1.465 . S
C1997 C1992 1.399 . S
C1997 C1996 1.394 . S
C1997 C1998 1.516 1_455 S
C1998 C1997 1.516 1_655 S
C1998 C1999 1.502 . S
C1998 C2000 1.561 1_655 S
C1998 C2001 1.526 . S
C1999 H1983 0.959 . S
C1999 H1984 0.959 . S
C1999 H1985 0.961 . S
C1999 C1998 1.502 . S
C2000 H1986 0.960 . S
C2000 H1987 0.961 . S
C2000 H1988 0.959 . S
C2000 C1998 1.561 1_455 S
C2001 C1998 1.526 . S
C2001 C2002 1.396 1_655 S
C2001 C2006 1.390 . S
C2002 C1996 1.465 . S
C2002 C2001 1.396 1_455 S
C2002 C2003 1.399 . S
C2003 H1989 0.929 . S
C2003 C2002 1.399 . S
C2003 C2004 1.384 . S
C2004 H1990 0.929 . S
C2004 C2003 1.384 . S
C2004 C2005 1.392 1_455 S
C2005 C2004 1.392 1_655 S
C2005 C2006 1.387 . S
C2006 H1991 0.930 . S
C2006 C2001 1.390 . S
C2006 C2005 1.387 . S
H2007 C2019 0.930 . S
H2008 C2021 0.930 . S
H2009 C2022 0.930 . S
H2010 C2026 0.959 . S
H2011 C2026 0.959 . S
H2012 C2026 0.961 . S
H2013 C2027 0.960 . S
H2014 C2027 0.961 . S
H2015 C2027 0.959 . S
H2016 C2030 0.929 . S
H2017 C2031 0.931 . S
H2018 C2033 0.930 . S
C2019 H2007 0.930 . S
C2019 C2020 1.399 . S
C2019 C2024 1.399 . S
C2020 C2019 1.399 . S
C2020 C2021 1.376 . S
C2021 H2008 0.930 . S
C2021 C2020 1.376 . S
C2021 C2022 1.388 . S
C2022 H2009 0.930 . S
C2022 C2021 1.388 . S
C2022 C2023 1.390 . S
C2023 C2022 1.390 . S
C2023 C2024 1.394 . S
C2023 C2029 1.465 . S
C2024 C2019 1.399 . S
C2024 C2023 1.394 . S
C2024 C2025 1.516 . S
C2025 C2024 1.516 . S
C2025 C2026 1.502 . S
C2025 C2027 1.561 . S
C2025 C2028 1.526 . S
C2026 H2010 0.959 . S
C2026 H2011 0.959 . S
C2026 H2012 0.961 . S
C2026 C2025 1.502 . S
C2027 H2013 0.960 . S
C2027 H2014 0.961 . S
C2027 H2015 0.959 . S
C2027 C2025 1.561 . S
C2028 C2025 1.526 . S
C2028 C2029 1.396 . S
C2028 C2033 1.390 . S
C2029 C2023 1.465 . S
C2029 C2028 1.396 . S
C2029 C2030 1.399 . S
C2030 H2016 0.929 . S
C2030 C2029 1.399 . S
C2030 C2031 1.385 . S
C2031 H2017 0.931 . S
C2031 C2030 1.385 . S
C2031 C2032 1.389 . S
C2032 C2031 1.389 . S
C2032 C2033 1.387 . S
C2033 H2018 0.930 . S
C2033 C2028 1.390 . S
C2033 C2032 1.387 . S
H2034 C2046 0.930 . S
H2035 C2048 0.930 . S
H2036 C2049 0.930 . S
H2037 C2053 0.959 . S
H2038 C2053 0.959 . S
H2039 C2053 0.961 . S
H2040 C2054 0.960 . S
H2041 C2054 0.961 . S
H2042 C2054 0.959 . S
H2043 C2057 0.929 . S
H2044 C2058 0.931 . S
H2045 C2060 0.930 . S
C2046 H2034 0.930 . S
C2046 C2047 1.399 . S
C2046 C2051 1.399 . S
C2047 C2046 1.399 . S
C2047 C2048 1.376 1_545 S
C2048 H2035 0.930 . S
C2048 C2047 1.376 1_565 S
C2048 C2049 1.388 . S
C2049 H2036 0.930 . S
C2049 C2048 1.388 . S
C2049 C2050 1.390 . S
C2050 C2049 1.390 . S
C2050 C2051 1.394 1_565 S
C2050 C2056 1.465 . S
C2051 C2046 1.399 . S
C2051 C2050 1.394 1_545 S
C2051 C2052 1.516 . S
C2052 C2051 1.516 . S
C2052 C2053 1.502 . S
C2052 C2054 1.561 . S
C2052 C2055 1.526 . S
C2053 H2037 0.959 . S
C2053 H2038 0.959 . S
C2053 H2039 0.961 . S
C2053 C2052 1.502 . S
C2054 H2040 0.960 . S
C2054 H2041 0.961 . S
C2054 H2042 0.959 . S
C2054 C2052 1.561 . S
C2055 C2052 1.526 . S
C2055 C2056 1.396 1_545 S
C2055 C2060 1.390 . S
C2056 C2050 1.465 . S
C2056 C2055 1.396 1_565 S
C2056 C2057 1.399 . S
C2057 H2043 0.929 . S
C2057 C2056 1.399 . S
C2057 C2058 1.385 . S
C2058 H2044 0.931 . S
C2058 C2057 1.385 . S
C2058 C2059 1.389 . S
C2059 C2058 1.389 . S
C2059 C2060 1.387 1_565 S
C2060 H2045 0.930 . S
C2060 C2055 1.390 . S
C2060 C2059 1.387 1_545 S
H2061 C2073 0.930 . S
H2062 C2075 0.930 . S
H2063 C2076 0.930 . S
H2064 C2080 0.959 . S
H2065 C2080 0.959 . S
H2066 C2080 0.961 . S
H2067 C2081 0.960 . S
H2068 C2081 0.961 . S
H2069 C2081 0.959 . S
H2070 C2084 0.929 . S
H2071 C2085 0.931 . S
H2072 C2087 0.930 . S
C2073 H2061 0.930 . S
C2073 C2074 1.399 . S
C2073 C2078 1.399 . S
C2074 C2073 1.399 . S
C2074 C2075 1.376 1_655 S
C2075 H2062 0.930 . S
C2075 C2074 1.376 1_455 S
C2075 C2076 1.388 . S
C2076 H2063 0.930 . S
C2076 C2075 1.388 . S
C2076 C2077 1.390 . S
C2077 C2076 1.390 . S
C2077 C2078 1.394 1_455 S
C2077 C2083 1.465 . S
C2078 C2073 1.399 . S
C2078 C2077 1.394 1_655 S
C2078 C2079 1.516 . S
C2079 C2078 1.516 . S
C2079 C2080 1.502 . S
C2079 C2081 1.561 . S
C2079 C2082 1.526 . S
C2080 H2064 0.959 . S
C2080 H2065 0.959 . S
C2080 H2066 0.961 . S
C2080 C2079 1.502 . S
C2081 H2067 0.960 . S
C2081 H2068 0.961 . S
C2081 H2069 0.959 . S
C2081 C2079 1.561 . S
C2082 C2079 1.526 . S
C2082 C2083 1.396 1_655 S
C2082 C2087 1.390 . S
C2083 C2077 1.465 . S
C2083 C2082 1.396 1_455 S
C2083 C2084 1.399 . S
C2084 H2070 0.929 . S
C2084 C2083 1.399 . S
C2084 C2085 1.385 . S
C2085 H2071 0.931 . S
C2085 C2084 1.385 . S
C2085 C2086 1.389 . S
C2086 C2085 1.389 . S
C2086 C2087 1.387 1_455 S
C2087 H2072 0.930 . S
C2087 C2082 1.390 . S
C2087 C2086 1.387 1_655 S
H2088 C2100 0.930 . S
H2089 C2102 0.930 . S
H2090 C2103 0.930 . S
H2091 C2107 0.959 . S
H2092 C2107 0.959 . S
H2093 C2107 0.961 . S
H2094 C2108 0.960 . S
H2095 C2108 0.961 . S
H2096 C2108 0.959 . S
H2097 C2111 0.929 . S
H2098 C2112 0.931 . S
H2099 C2114 0.930 . S
C2100 H2088 0.930 . S
C2100 C2101 1.399 . S
C2100 C2105 1.399 . S
C2101 C2100 1.399 . S
C2101 C2102 1.376 . S
C2102 H2089 0.930 . S
C2102 C2101 1.376 . S
C2102 C2103 1.388 . S
C2103 H2090 0.930 . S
C2103 C2102 1.388 . S
C2103 C2104 1.390 . S
C2104 C2103 1.390 . S
C2104 C2105 1.394 . S
C2104 C2110 1.465 . S
C2105 C2100 1.399 . S
C2105 C2104 1.394 . S
C2105 C2106 1.516 . S
C2106 C2105 1.516 . S
C2106 C2107 1.502 . S
C2106 C2108 1.561 . S
C2106 C2109 1.526 . S
C2107 H2091 0.959 . S
C2107 H2092 0.959 . S
C2107 H2093 0.961 . S
C2107 C2106 1.502 . S
C2108 H2094 0.960 . S
C2108 H2095 0.961 . S
C2108 H2096 0.959 . S
C2108 C2106 1.561 . S
C2109 C2106 1.526 . S
C2109 C2110 1.396 . S
C2109 C2114 1.390 . S
C2110 C2104 1.465 . S
C2110 C2109 1.396 . S
C2110 C2111 1.399 . S
C2111 H2097 0.929 . S
C2111 C2110 1.399 . S
C2111 C2112 1.385 . S
C2112 H2098 0.931 . S
C2112 C2111 1.385 . S
C2112 C2113 1.389 . S
C2113 C2112 1.389 . S
C2113 C2114 1.387 . S
C2114 H2099 0.930 . S
C2114 C2109 1.390 . S
C2114 C2113 1.387 . S
H2115 C2127 0.930 . S
H2116 C2129 0.930 . S
H2117 C2130 0.930 . S
H2118 C2134 0.959 . S
H2119 C2134 0.959 . S
H2120 C2134 0.961 . S
H2121 C2135 0.960 . S
H2122 C2135 0.961 . S
H2123 C2135 0.959 . S
H2124 C2138 0.929 . S
H2125 C2139 0.931 . S
H2126 C2141 0.930 . S
C2127 H2115 0.930 . S
C2127 C2128 1.399 . S
C2127 C2132 1.399 . S
C2128 C2127 1.399 . S
C2128 C2129 1.376 . S
C2129 H2116 0.930 . S
C2129 C2128 1.376 . S
C2129 C2130 1.388 . S
C2130 H2117 0.930 . S
C2130 C2129 1.388 . S
C2130 C2131 1.390 . S
C2131 C2130 1.390 . S
C2131 C2132 1.394 . S
C2131 C2137 1.465 . S
C2132 C2127 1.399 . S
C2132 C2131 1.394 . S
C2132 C2133 1.516 . S
C2133 C2132 1.516 . S
C2133 C2134 1.502 . S
C2133 C2135 1.561 . S
C2133 C2136 1.526 . S
C2134 H2118 0.959 . S
C2134 H2119 0.959 . S
C2134 H2120 0.961 . S
C2134 C2133 1.502 . S
C2135 H2121 0.960 . S
C2135 H2122 0.961 . S
C2135 H2123 0.959 . S
C2135 C2133 1.561 . S
C2136 C2133 1.526 . S
C2136 C2137 1.396 . S
C2136 C2141 1.390 . S
C2137 C2131 1.465 . S
C2137 C2136 1.396 . S
C2137 C2138 1.399 . S
C2138 H2124 0.929 . S
C2138 C2137 1.399 . S
C2138 C2139 1.385 . S
C2139 H2125 0.931 . S
C2139 C2138 1.385 . S
C2139 C2140 1.389 . S
C2140 C2139 1.389 . S
C2140 C2141 1.387 . S
C2141 H2126 0.930 . S
C2141 C2136 1.390 . S
C2141 C2140 1.387 . S
H2142 C2154 0.930 . S
H2143 C2156 0.930 . S
H2144 C2157 0.930 . S
H2145 C2161 0.959 . S
H2146 C2161 0.959 . S
H2147 C2161 0.961 . S
H2148 C2162 0.960 . S
H2149 C2162 0.961 . S
H2150 C2162 0.959 . S
H2151 C2165 0.929 . S
H2152 C2166 0.931 . S
H2153 C2168 0.930 . S
C2154 H2142 0.930 . S
C2154 C2155 1.399 . S
C2154 C2159 1.399 . S
C2155 C2154 1.399 . S
C2155 C2156 1.376 . S
C2156 H2143 0.930 . S
C2156 C2155 1.376 . S
C2156 C2157 1.388 . S
C2157 H2144 0.930 . S
C2157 C2156 1.388 . S
C2157 C2158 1.390 . S
C2158 C2157 1.390 . S
C2158 C2159 1.394 . S
C2158 C2164 1.465 . S
C2159 C2154 1.399 . S
C2159 C2158 1.394 . S
C2159 C2160 1.516 . S
C2160 C2159 1.516 . S
C2160 C2161 1.502 . S
C2160 C2162 1.561 . S
C2160 C2163 1.526 . S
C2161 H2145 0.959 . S
C2161 H2146 0.959 . S
C2161 H2147 0.961 . S
C2161 C2160 1.502 . S
C2162 H2148 0.960 . S
C2162 H2149 0.961 . S
C2162 H2150 0.959 . S
C2162 C2160 1.561 . S
C2163 C2160 1.526 . S
C2163 C2164 1.396 . S
C2163 C2168 1.390 . S
C2164 C2158 1.465 . S
C2164 C2163 1.396 . S
C2164 C2165 1.399 . S
C2165 H2151 0.929 . S
C2165 C2164 1.399 . S
C2165 C2166 1.385 . S
C2166 H2152 0.931 . S
C2166 C2165 1.385 . S
C2166 C2167 1.389 . S
C2167 C2166 1.389 . S
C2167 C2168 1.387 . S
C2168 H2153 0.930 . S
C2168 C2163 1.390 . S
C2168 C2167 1.387 . S
H2169 C2181 0.930 . S
H2170 C2183 0.930 . S
H2171 C2184 0.930 . S
H2172 C2188 0.959 . S
H2173 C2188 0.959 . S
H2174 C2188 0.961 . S
H2175 C2189 0.960 . S
H2176 C2189 0.961 . S
H2177 C2189 0.959 . S
H2178 C2192 0.929 . S
H2179 C2193 0.924 1_556 S
H2180 C2195 0.930 . S
C2181 H2169 0.930 . S
C2181 C2182 1.399 . S
C2181 C2186 1.399 . S
C2182 C2181 1.399 . S
C2182 C2183 1.376 . S
C2183 H2170 0.930 . S
C2183 C2182 1.376 . S
C2183 C2184 1.388 . S
C2184 H2171 0.930 . S
C2184 C2183 1.388 . S
C2184 C2185 1.390 . S
C2185 C2184 1.390 . S
C2185 C2186 1.394 . S
C2185 C2191 1.465 . S
C2186 C2181 1.399 . S
C2186 C2185 1.394 . S
C2186 C2187 1.516 . S
C2187 C2186 1.516 . S
C2187 C2188 1.502 . S
C2187 C2189 1.561 . S
C2187 C2190 1.526 . S
C2188 H2172 0.959 . S
C2188 H2173 0.959 . S
C2188 H2174 0.961 . S
C2188 C2187 1.502 . S
C2189 H2175 0.960 . S
C2189 H2176 0.961 . S
C2189 H2177 0.959 . S
C2189 C2187 1.561 . S
C2190 C2187 1.526 . S
C2190 C2191 1.396 . S
C2190 C2195 1.390 . S
C2191 C2185 1.465 . S
C2191 C2190 1.396 . S
C2191 C2192 1.399 . S
C2192 H2178 0.929 . S
C2192 C2191 1.399 . S
C2192 C2193 1.395 . S
C2193 H2179 0.924 1_554 S
C2193 C2192 1.395 . S
C2193 C2194 1.386 1_554 S
C2194 C2193 1.386 1_556 S
C2194 C2195 1.387 1_556 S
C2195 H2180 0.930 . S
C2195 C2190 1.390 . S
C2195 C2194 1.387 1_554 S
H2196 C2208 0.930 . S
H2197 C2210 0.930 . S
H2198 C2211 0.930 . S
H2199 C2215 0.959 . S
H2200 C2215 0.959 . S
H2201 C2215 0.961 . S
H2202 C2216 0.960 . S
H2203 C2216 0.961 . S
H2204 C2216 0.959 . S
H2205 C2219 0.929 . S
H2206 C2220 0.931 . S
H2207 C2222 0.930 . S
C2208 H2196 0.930 . S
C2208 C2209 1.399 . S
C2208 C2213 1.399 . S
C2209 C2208 1.399 . S
C2209 C2210 1.376 . S
C2210 H2197 0.930 . S
C2210 C2209 1.376 . S
C2210 C2211 1.388 . S
C2211 H2198 0.930 . S
C2211 C2210 1.388 . S
C2211 C2212 1.390 . S
C2212 C2211 1.390 . S
C2212 C2213 1.394 . S
C2212 C2218 1.465 . S
C2213 C2208 1.399 . S
C2213 C2212 1.394 . S
C2213 C2214 1.516 . S
C2214 C2213 1.516 . S
C2214 C2215 1.502 . S
C2214 C2216 1.561 . S
C2214 C2217 1.526 . S
C2215 H2199 0.959 . S
C2215 H2200 0.959 . S
C2215 H2201 0.961 . S
C2215 C2214 1.502 . S
C2216 H2202 0.960 . S
C2216 H2203 0.961 . S
C2216 H2204 0.959 . S
C2216 C2214 1.561 . S
C2217 C2214 1.526 . S
C2217 C2218 1.396 . S
C2217 C2222 1.390 . S
C2218 C2212 1.465 . S
C2218 C2217 1.396 . S
C2218 C2219 1.399 . S
C2219 H2205 0.929 . S
C2219 C2218 1.399 . S
C2219 C2220 1.385 1_554 S
C2220 H2206 0.931 . S
C2220 C2219 1.385 1_556 S
C2220 C2221 1.389 . S
C2221 C2220 1.389 . S
C2221 C2222 1.387 1_556 S
C2222 H2207 0.930 . S
C2222 C2217 1.390 . S
C2222 C2221 1.387 1_554 S
H2223 C2235 0.930 . S
H2224 C2237 0.930 . S
H2225 C2238 0.930 . S
H2226 C2242 0.959 . S
H2227 C2242 0.959 . S
H2228 C2242 0.961 . S
H2229 C2243 0.960 . S
H2230 C2243 0.961 . S
H2231 C2243 0.959 . S
H2232 C2246 0.929 . S
H2233 C2247 0.931 . S
H2234 C2249 0.930 . S
C2235 H2223 0.930 . S
C2235 C2236 1.399 . S
C2235 C2240 1.399 . S
C2236 C2235 1.399 . S
C2236 C2237 1.376 . S
C2237 H2224 0.930 . S
C2237 C2236 1.376 . S
C2237 C2238 1.388 . S
C2238 H2225 0.930 . S
C2238 C2237 1.388 . S
C2238 C2239 1.390 . S
C2239 C2238 1.390 . S
C2239 C2240 1.394 . S
C2239 C2245 1.465 . S
C2240 C2235 1.399 . S
C2240 C2239 1.394 . S
C2240 C2241 1.516 . S
C2241 C2240 1.516 . S
C2241 C2242 1.502 . S
C2241 C2243 1.561 . S
C2241 C2244 1.526 . S
C2242 H2226 0.959 . S
C2242 H2227 0.959 . S
C2242 H2228 0.961 . S
C2242 C2241 1.502 . S
C2243 H2229 0.960 . S
C2243 H2230 0.961 . S
C2243 H2231 0.959 . S
C2243 C2241 1.561 . S
C2244 C2241 1.526 . S
C2244 C2245 1.396 . S
C2244 C2249 1.390 . S
C2245 C2239 1.465 . S
C2245 C2244 1.396 . S
C2245 C2246 1.399 . S
C2246 H2232 0.929 . S
C2246 C2245 1.399 . S
C2246 C2247 1.385 1_554 S
C2247 H2233 0.931 . S
C2247 C2246 1.385 1_556 S
C2247 C2248 1.389 . S
C2248 C2247 1.389 . S
C2248 C2249 1.387 1_556 S
C2249 H2234 0.930 . S
C2249 C2244 1.390 . S
C2249 C2248 1.387 1_554 S
H2250 C2262 0.930 1_554 S
H2251 C2264 0.930 1_554 S
H2252 C2265 0.930 . S
H2253 C2269 0.959 . S
H2254 C2269 0.959 . S
H2255 C2269 0.961 . S
H2256 C2270 0.960 . S
H2257 C2270 0.961 . S
H2258 C2270 0.959 . S
H2259 C2273 0.929 . S
H2260 C2274 0.931 . S
H2261 C2276 0.930 . S
C2262 H2250 0.930 1_556 S
C2262 C2263 1.399 1_556 S
C2262 C2267 1.399 . S
C2263 C2262 1.399 1_554 S
C2263 C2264 1.376 1_554 S
C2264 H2251 0.930 1_556 S
C2264 C2263 1.376 1_556 S
C2264 C2265 1.388 . S
C2265 H2252 0.930 . S
C2265 C2264 1.388 . S
C2265 C2266 1.390 . S
C2266 C2265 1.390 . S
C2266 C2267 1.394 . S
C2266 C2272 1.465 . S
C2267 C2262 1.399 . S
C2267 C2266 1.394 . S
C2267 C2268 1.516 . S
C2268 C2267 1.516 . S
C2268 C2269 1.502 . S
C2268 C2270 1.561 . S
C2268 C2271 1.526 . S
C2269 H2253 0.959 . S
C2269 H2254 0.959 . S
C2269 H2255 0.961 . S
C2269 C2268 1.502 . S
C2270 H2256 0.960 . S
C2270 H2257 0.961 . S
C2270 H2258 0.959 . S
C2270 C2268 1.561 . S
C2271 C2268 1.526 . S
C2271 C2272 1.396 . S
C2271 C2276 1.390 . S
C2272 C2266 1.465 . S
C2272 C2271 1.396 . S
C2272 C2273 1.399 . S
C2273 H2259 0.929 . S
C2273 C2272 1.399 . S
C2273 C2274 1.385 . S
C2274 H2260 0.931 . S
C2274 C2273 1.385 . S
C2274 C2275 1.389 . S
C2275 C2274 1.389 . S
C2275 C2276 1.387 . S
C2276 H2261 0.930 . S
C2276 C2271 1.390 . S
C2276 C2275 1.387 . S
H2277 C2289 0.918 1_554 S
H2278 C2291 0.930 1_554 S
H2279 C2292 0.930 . S
H2280 C2296 0.959 . S
H2281 C2296 0.959 . S
H2282 C2296 0.961 . S
H2283 C2297 0.960 . S
H2284 C2297 0.961 . S
H2285 C2297 0.959 . S
H2286 C2300 0.929 . S
H2287 C2301 0.931 . S
H2288 C2303 0.930 . S
C2289 H2277 0.918 1_556 S
C2289 C2290 1.399 1_556 S
C2289 C2294 1.399 . S
C2290 C2289 1.399 1_554 S
C2290 C2291 1.376 1_554 S
C2291 H2278 0.930 1_556 S
C2291 C2290 1.376 1_556 S
C2291 C2292 1.388 . S
C2292 H2279 0.930 . S
C2292 C2291 1.388 . S
C2292 C2293 1.390 . S
C2293 C2292 1.390 . S
C2293 C2294 1.394 . S
C2293 C2299 1.465 . S
C2294 C2289 1.399 . S
C2294 C2293 1.394 . S
C2294 C2295 1.516 . S
C2295 C2294 1.516 . S
C2295 C2296 1.502 . S
C2295 C2297 1.561 . S
C2295 C2298 1.526 . S
C2296 H2280 0.959 . S
C2296 H2281 0.959 . S
C2296 H2282 0.961 . S
C2296 C2295 1.502 . S
C2297 H2283 0.960 . S
C2297 H2284 0.961 . S
C2297 H2285 0.959 . S
C2297 C2295 1.561 . S
C2298 C2295 1.526 . S
C2298 C2299 1.396 . S
C2298 C2303 1.390 . S
C2299 C2293 1.465 . S
C2299 C2298 1.396 . S
C2299 C2300 1.399 . S
C2300 H2286 0.929 . S
C2300 C2299 1.399 . S
C2300 C2301 1.385 . S
C2301 H2287 0.931 . S
C2301 C2300 1.385 . S
C2301 C2302 1.389 . S
C2302 C2301 1.389 . S
C2302 C2303 1.387 . S
C2303 H2288 0.930 . S
C2303 C2298 1.390 . S
C2303 C2302 1.387 . S
H2304 C2316 0.930 . S
H2305 C2318 0.930 . S
H2306 C2319 0.930 . S
H2307 C2323 0.959 . S
H2308 C2323 0.959 . S
H2309 C2323 0.961 . S
H2310 C2324 0.960 . S
H2311 C2324 0.961 . S
H2312 C2324 0.959 . S
H2313 C2327 0.929 . S
H2314 C2328 0.931 . S
H2315 C2330 0.930 . S
C2316 H2304 0.930 . S
C2316 C2317 1.399 1_556 S
C2316 C2321 1.399 . S
C2317 C2316 1.399 1_554 S
C2317 C2318 1.376 . S
C2318 H2305 0.930 . S
C2318 C2317 1.376 . S
C2318 C2319 1.388 1_554 S
C2319 H2306 0.930 . S
C2319 C2318 1.388 1_556 S
C2319 C2320 1.390 . S
C2320 C2319 1.390 . S
C2320 C2321 1.394 . S
C2320 C2326 1.465 . S
C2321 C2316 1.399 . S
C2321 C2320 1.394 . S
C2321 C2322 1.516 . S
C2322 C2321 1.516 . S
C2322 C2323 1.502 . S
C2322 C2324 1.561 . S
C2322 C2325 1.526 . S
C2323 H2307 0.959 . S
C2323 H2308 0.959 . S
C2323 H2309 0.961 . S
C2323 C2322 1.502 . S
C2324 H2310 0.960 . S
C2324 H2311 0.961 . S
C2324 H2312 0.959 . S
C2324 C2322 1.561 . S
C2325 C2322 1.526 . S
C2325 C2326 1.396 . S
C2325 C2330 1.390 . S
C2326 C2320 1.465 . S
C2326 C2325 1.396 . S
C2326 C2327 1.399 . S
C2327 H2313 0.929 . S
C2327 C2326 1.399 . S
C2327 C2328 1.385 . S
C2328 H2314 0.931 . S
C2328 C2327 1.385 . S
C2328 C2329 1.389 . S
C2329 C2328 1.389 . S
C2329 C2330 1.387 . S
C2330 H2315 0.930 . S
C2330 C2325 1.390 . S
C2330 C2329 1.387 . S
H2331 C2343 0.930 . S
H2332 C2345 0.930 . S
H2333 C2346 0.930 . S
H2334 C2350 0.959 . S
H2335 C2350 0.959 . S
H2336 C2350 0.961 . S
H2337 C2351 0.960 . S
H2338 C2351 0.961 . S
H2339 C2351 0.959 . S
H2340 C2354 0.929 . S
H2341 C2355 0.931 . S
H2342 C2357 0.930 . S
C2343 H2331 0.930 . S
C2343 C2344 1.399 . S
C2343 C2348 1.399 . S
C2344 C2343 1.399 . S
C2344 C2345 1.376 . S
C2345 H2332 0.930 . S
C2345 C2344 1.376 . S
C2345 C2346 1.388 . S
C2346 H2333 0.930 . S
C2346 C2345 1.388 . S
C2346 C2347 1.390 . S
C2347 C2346 1.390 . S
C2347 C2348 1.394 . S
C2347 C2353 1.465 . S
C2348 C2343 1.399 . S
C2348 C2347 1.394 . S
C2348 C2349 1.516 . S
C2349 C2348 1.516 . S
C2349 C2350 1.502 . S
C2349 C2351 1.561 . S
C2349 C2352 1.526 . S
C2350 H2334 0.959 . S
C2350 H2335 0.959 . S
C2350 H2336 0.961 . S
C2350 C2349 1.502 . S
C2351 H2337 0.960 . S
C2351 H2338 0.961 . S
C2351 H2339 0.959 . S
C2351 C2349 1.561 . S
C2352 C2349 1.526 . S
C2352 C2353 1.396 . S
C2352 C2357 1.390 . S
C2353 C2347 1.465 . S
C2353 C2352 1.396 . S
C2353 C2354 1.399 . S
C2354 H2340 0.929 . S
C2354 C2353 1.399 . S
C2354 C2355 1.385 . S
C2355 H2341 0.931 . S
C2355 C2354 1.385 . S
C2355 C2356 1.389 . S
C2356 C2355 1.389 . S
C2356 C2357 1.387 . S
C2357 H2342 0.930 . S
C2357 C2352 1.390 . S
C2357 C2356 1.387 . S
H2358 C2370 0.930 . S
H2359 C2372 0.930 . S
H2360 C2373 0.930 . S
H2361 C2377 0.959 . S
H2362 C2377 0.959 . S
H2363 C2377 0.961 . S
H2364 C2378 0.960 . S
H2365 C2378 0.961 . S
H2366 C2378 0.959 . S
H2367 C2381 0.929 . S
H2368 C2382 0.931 . S
H2369 C2384 0.930 . S
C2370 H2358 0.930 . S
C2370 C2371 1.399 . S
C2370 C2375 1.399 . S
C2371 C2370 1.399 . S
C2371 C2372 1.376 . S
C2372 H2359 0.930 . S
C2372 C2371 1.376 . S
C2372 C2373 1.388 . S
C2373 H2360 0.930 . S
C2373 C2372 1.388 . S
C2373 C2374 1.390 . S
C2374 C2373 1.390 . S
C2374 C2375 1.394 . S
C2374 C2380 1.465 . S
C2375 C2370 1.399 . S
C2375 C2374 1.394 . S
C2375 C2376 1.516 . S
C2376 C2375 1.516 . S
C2376 C2377 1.502 . S
C2376 C2378 1.561 . S
C2376 C2379 1.526 . S
C2377 H2361 0.959 . S
C2377 H2362 0.959 . S
C2377 H2363 0.961 . S
C2377 C2376 1.502 . S
C2378 H2364 0.960 . S
C2378 H2365 0.961 . S
C2378 H2366 0.959 . S
C2378 C2376 1.561 . S
C2379 C2376 1.526 . S
C2379 C2380 1.396 . S
C2379 C2384 1.390 . S
C2380 C2374 1.465 . S
C2380 C2379 1.396 . S
C2380 C2381 1.399 . S
C2381 H2367 0.929 . S
C2381 C2380 1.399 . S
C2381 C2382 1.385 . S
C2382 H2368 0.931 . S
C2382 C2381 1.385 . S
C2382 C2383 1.389 . S
C2383 C2382 1.389 . S
C2383 C2384 1.387 . S
C2384 H2369 0.930 . S
C2384 C2379 1.390 . S
C2384 C2383 1.387 . S
H2385 C2397 0.930 . S
H2386 C2399 0.930 . S
H2387 C2400 0.930 . S
H2388 C2404 0.959 . S
H2389 C2404 0.959 . S
H2390 C2404 0.961 . S
H2391 C2405 0.960 . S
H2392 C2405 0.961 . S
H2393 C2405 0.959 . S
H2394 C2408 0.929 . S
H2395 C2409 0.931 . S
H2396 C2411 0.930 . S
C2397 H2385 0.930 . S
C2397 C2398 1.399 . S
C2397 C2402 1.399 . S
C2398 C2397 1.399 . S
C2398 C2399 1.376 . S
C2399 H2386 0.930 . S
C2399 C2398 1.376 . S
C2399 C2400 1.388 . S
C2400 H2387 0.930 . S
C2400 C2399 1.388 . S
C2400 C2401 1.390 . S
C2401 C2400 1.390 . S
C2401 C2402 1.394 . S
C2401 C2407 1.465 . S
C2402 C2397 1.399 . S
C2402 C2401 1.394 . S
C2402 C2403 1.516 . S
C2403 C2402 1.516 . S
C2403 C2404 1.502 . S
C2403 C2405 1.561 . S
C2403 C2406 1.526 . S
C2404 H2388 0.959 . S
C2404 H2389 0.959 . S
C2404 H2390 0.961 . S
C2404 C2403 1.502 . S
C2405 H2391 0.960 . S
C2405 H2392 0.961 . S
C2405 H2393 0.959 . S
C2405 C2403 1.561 . S
C2406 C2403 1.526 . S
C2406 C2407 1.396 . S
C2406 C2411 1.390 . S
C2407 C2401 1.465 . S
C2407 C2406 1.396 . S
C2407 C2408 1.399 . S
C2408 H2394 0.929 . S
C2408 C2407 1.399 . S
C2408 C2409 1.385 . S
C2409 H2395 0.931 . S
C2409 C2408 1.385 . S
C2409 C2410 1.389 . S
C2410 C2409 1.389 . S
C2410 C2411 1.387 . S
C2411 H2396 0.930 . S
C2411 C2406 1.390 . S
C2411 C2410 1.387 . S
C481 C208 1.298 . S
C493 C0 1.345 . S
C508 C221 1.327 . S
C520 C13 1.328 . S
C535 C26 1.324 . S
C547 C195 1.331 . S
C562 C338 1.336 . S
C574 C39 1.288 . S
C589 C312 1.307 . S
C601 C52 1.306 . S
C616 C65 1.291 . S
C628 C325 1.326 . S
C643 C442 1.324 . S
C655 C78 1.307 . S
C670 C455 1.289 . S
C682 C91 1.344 . S
C697 C429 1.305 . S
C709 C104 1.325 . S
C724 C260 1.296 . S
C736 C117 1.335 . S
C751 C130 1.318 . S
C763 C234 1.312 . S
C778 C247 1.345 . S
C790 C143 1.289 . S
C805 C364 1.307 . S
C817 C156 1.305 . S
C832 C169 1.289 . S
C844 C377 1.343 . S
C859 C351 1.292 . S
C871 C182 1.345 . S
C886 C416 1.344 . S
C898 C273 1.292 . S
C913 C390 1.294 . S
C925 C286 1.341 . S
C940 C299 1.343 . S
C952 C403 1.293 . S
C967 C101 1.331 . S
C979 C8 1.336 . S
C994 C114 1.336 . S
C1006 C21 1.331 . S
C1021 C88 1.340 . S
C1033 C34 1.296 . S
C1048 C47 1.328 . S
C1060 C153 1.338 . S
C1075 C127 1.285 . S
C1087 C60 1.313 . S
C1102 C73 1.286 . S
C1114 C140 1.331 . S
C1129 C23 1.292 . S
C1141 C86 1.342 . S
C1156 C99 1.343 . S
C1168 C36 1.296 . S
C1183 C10 1.303 . S
C1195 C112 1.300 . S
C1210 C75 1.320 . S
C1222 C125 1.331 . S
C1237 C49 1.318 . S
C1249 C138 1.332 . S
C1264 C151 1.303 . S
C1276 C62 1.341 . S
C1291 C164 1.316 . S
C1303 C257 1.286 . S
C1318 C270 1.320 . S
C1330 C177 1.283 . S
C1345 C244 1.339 . S
C1357 C190 1.294 . S
C1372 C203 1.329 . S
C1384 C309 1.337 . S
C1399 C283 1.333 . S
C1411 C216 1.334 . S
C1426 C229 1.342 . S
C1438 C296 1.304 . S
C1453 C242 1.294 . S
C1465 C179 1.310 . S
C1480 C255 1.284 . S
C1492 C192 1.340 . S
C1507 C166 1.294 . S
C1519 C268 1.311 . S
C1534 C231 1.296 . S
C1546 C281 1.308 . S
C1561 C205 1.290 . S
C1573 C294 1.341 . S
C1588 C307 1.315 . S
C1600 C218 1.292 . S
C1615 C413 1.285 . S
C1627 C320 1.314 . S
C1642 C333 1.290 . S
C1654 C426 1.336 . S
C1669 C346 1.295 . S
C1681 C400 1.293 . S
C1696 C465 1.337 . S
C1708 C359 1.292 . S
C1723 C372 1.340 . S
C1735 C439 1.300 . S
C1750 C452 1.295 . S
C1762 C385 1.293 . S
C1777 C335 1.339 . S
C1789 C398 1.284 . S
C1804 C348 1.294 . S
C1816 C411 1.312 . S
C1831 C424 1.335 . S
C1843 C322 1.315 . S
C1858 C437 1.314 . S
C1870 C387 1.292 . S
C1885 C361 1.339 . S
C1897 C450 1.284 . S
C1912 C374 1.288 . S
C1924 C463 1.341 . S
C1939 C5 1.303 . S
C1951 C44 1.298 . S
C1966 C18 1.341 . S
C1978 C57 1.367 . S
C1993 C70 1.370 . S
C2005 C31 1.351 . S
C2020 C83 1.342 . S
C2032 C122 1.369 . S
C2047 C135 1.295 . S
C2059 C96 1.329 . S
C2074 C148 1.316 . S
C2086 C109 1.366 . S
C2101 C161 1.296 . S
C2113 C200 1.304 . S
C2128 C174 1.311 . S
C2140 C213 1.345 . S
C2155 C226 1.369 . S
C2167 C187 1.362 . S
C2182 C239 1.318 . S
C2194 C278 1.299 . S
C2209 C252 1.370 . S
C2221 C291 1.330 . S
C2236 C265 1.370 . S
C2248 C304 1.329 . S
C2263 C356 1.364 . S
C2275 C317 1.335 . S
C2290 C369 1.316 . S
C2302 C330 1.297 . S
C2317 C382 1.301 . S
C2329 C343 1.331 . S
C2344 C395 1.350 . S
C2356 C434 1.300 . S
C2371 C447 1.370 . S
C2383 C408 1.328 . S
C2398 C460 1.338 . S
C2410 C421 1.296 . S
