# Generated by pormake.
# Topology smk, (6)-cn, num edge types: 1
# Building blocks:
#     Node 0, Type 0, BuildingBlock: IZENUY_clean_sbu_0, # of connection points: 6
#     Node 1, Type 0, BuildingBlock: IZENUY_clean_sbu_0, # of connection points: 6
#     Node 2, Type 0, BuildingBlock: IZENUY_clean_sbu_0, # of connection points: 6
#     Node 3, Type 0, BuildingBlock: IZENUY_clean_sbu_0, # of connection points: 6
#     Node 4, Type 0, BuildingBlock: IZENUY_clean_sbu_0, # of connection points: 6
#     Node 5, Type 0, BuildingBlock: IZENUY_clean_sbu_0, # of connection points: 6
#     Edge 6, Type (0, 0), BuildingBlock: XIVTED_clean_linker_0, # of connection points: 2
#     Edge 7, Type (0, 0), BuildingBlock: XIVTED_clean_linker_0, # of connection points: 2
#     Edge 8, Type (0, 0), BuildingBlock: XIVTED_clean_linker_0, # of connection points: 2
#     Edge 9, Type (0, 0), BuildingBlock: XIVTED_clean_linker_0, # of connection points: 2
#     Edge 10, Type (0, 0), BuildingBlock: XIVTED_clean_linker_0, # of connection points: 2
#     Edge 11, Type (0, 0), BuildingBlock: XIVTED_clean_linker_0, # of connection points: 2
#     Edge 12, Type (0, 0), BuildingBlock: XIVTED_clean_linker_0, # of connection points: 2
#     Edge 13, Type (0, 0), BuildingBlock: XIVTED_clean_linker_0, # of connection points: 2
#     Edge 14, Type (0, 0), BuildingBlock: XIVTED_clean_linker_0, # of connection points: 2
#     Edge 15, Type (0, 0), BuildingBlock: XIVTED_clean_linker_0, # of connection points: 2
#     Edge 16, Type (0, 0), BuildingBlock: XIVTED_clean_linker_0, # of connection points: 2
#     Edge 17, Type (0, 0), BuildingBlock: XIVTED_clean_linker_0, # of connection points: 2
#     Edge 18, Type (0, 0), BuildingBlock: XIVTED_clean_linker_0, # of connection points: 2
#     Edge 19, Type (0, 0), BuildingBlock: XIVTED_clean_linker_0, # of connection points: 2
#     Edge 20, Type (0, 0), BuildingBlock: XIVTED_clean_linker_0, # of connection points: 2
#     Edge 21, Type (0, 0), BuildingBlock: XIVTED_clean_linker_0, # of connection points: 2
#     Edge 22, Type (0, 0), BuildingBlock: XIVTED_clean_linker_0, # of connection points: 2
#     Edge 23, Type (0, 0), BuildingBlock: XIVTED_clean_linker_0, # of connection points: 2
# Relax obj value: 0.171
# Max RMSD: 0.207
# Mean RMSD: 0.207
data_MOF--net-smk--node1-IZENUY_clean_sbu_0--edge1-XIVTED_clean_linker_0
_symmetry_space_group_name_H-M    P1
_symmetry_Int_Tables_number       1
_symmetry_cell_setting            triclinic
loop_
_symmetry_equiv_pos_as_xyz
'x, y, z'
_cell_length_a     42.442534
_cell_length_b     42.428766
_cell_length_c     15.342535
_cell_angle_alpha  89.907452
_cell_angle_beta   90.044224
_cell_angle_gamma 120.01144
loop_
_atom_site_label
_atom_site_type_symbol
_atom_site_fract_x
_atom_site_fract_y
_atom_site_fract_z
_atom_type_partial_charge
Fe0 Fe 0.4659 0.25903 0.66748 0.0
Fe1 Fe 0.39343 0.19958 0.5911 0.0
O2 O 0.44165 0.2239 0.59134 0.0
Fe3 Fe 0.46594 0.21324 0.51475 0.0
O4 O 0.48721 0.20078 0.60031 0.0
O5 O 0.50454 0.25079 0.67583 0.0
O6 O 0.44563 0.228 0.75749 0.0
C7 C 0.41194 0.20992 0.77203 0.0
C8 C 0.50803 0.29021 0.52509 0.0
O9 O 0.3891 0.2024 0.7108 0.0
C10 C 0.41254 0.21056 0.41158 0.0
O11 O 0.4316 0.27337 0.67372 0.0
O12 O 0.39149 0.24094 0.57311 0.0
O13 O 0.50523 0.2597 0.50813 0.0
O14 O 0.48783 0.29257 0.58172 0.0
C15 C 0.40621 0.14396 0.55781 0.0
O16 O 0.38947 0.19292 0.47105 0.0
O17 O 0.44621 0.22536 0.42598 0.0
C18 C 0.40592 0.26824 0.62292 0.0
O19 O 0.39203 0.15654 0.60915 0.0
O20 O 0.43127 0.16482 0.50606 0.0
C21 C 0.50706 0.22289 0.6583 0.0
Fe22 Fe 0.2183 0.46074 0.84195 0.0
Fe23 Fe 0.20218 0.38916 0.75519 0.0
O24 O 0.22673 0.43748 0.75782 0.0
Fe25 Fe 0.25955 0.46217 0.67678 0.0
O26 O 0.29566 0.48441 0.75587 0.0
O27 O 0.26526 0.49917 0.84717 0.0
O28 O 0.23151 0.43896 0.9234 0.0
C29 C 0.21569 0.40515 0.93542 0.0
C30 C 0.22474 0.50404 0.70376 0.0
O31 O 0.19659 0.38335 0.87543 0.0
C32 C 0.20933 0.40863 0.57493 0.0
O33 O 0.16951 0.42628 0.85216 0.0
O34 O 0.1594 0.38857 0.74342 0.0
O35 O 0.25088 0.50061 0.67494 0.0
O36 O 0.2051 0.48458 0.76569 0.0
C37 C 0.27017 0.40231 0.71439 0.0
O38 O 0.20336 0.38556 0.63463 0.0
O39 O 0.22593 0.44207 0.59196 0.0
C40 C 0.14783 0.40229 0.79892 0.0
O41 O 0.24376 0.38735 0.76683 0.0
O42 O 0.27396 0.42787 0.66437 0.0
C43 C 0.29502 0.50287 0.81929 0.0
Fe44 Fe 0.82124 0.19747 0.92118 0.0
Fe45 Fe 0.80893 0.25785 0.8472 0.0
O46 O 0.79788 0.22236 0.92263 0.0
Fe47 Fe 0.76336 0.21202 1.00036 0.0
O48 O 0.7956 0.22365 0.08796 0.0
O49 O 0.81922 0.1908 0.04126 0.0
O50 O 0.86495 0.23845 0.93805 0.0
C51 C 0.87786 0.26601 0.88897 0.0
C52 C 0.75284 0.14236 0.95705 0.0
O53 O 0.85735 0.27163 0.83925 0.0
C54 C 0.7317 0.22264 0.85852 0.0
O55 O 0.82765 0.20027 0.80106 0.0
O56 O 0.79742 0.22702 0.7569 0.0
O57 O 0.74912 0.16349 1.00875 0.0
O58 O 0.77918 0.15467 0.9044 0.0
C59 C 0.79893 0.28906 0.99043 0.0
O60 O 0.76229 0.25024 0.84052 0.0
O61 O 0.72927 0.20014 0.91586 0.0
C62 C 0.81269 0.20876 0.74074 0.0
O63 O 0.82127 0.29125 0.9334 0.0
O64 O 0.77114 0.25864 1.00775 0.0
C65 C 0.81442 0.20869 0.10108 0.0
Fe66 Fe 0.63093 0.81862 0.0945 0.0
Fe67 Fe 0.55828 0.80189 0.01216 0.0
O68 O 0.58268 0.7933 0.09308 0.0
Fe69 Fe 0.55877 0.75941 0.17253 0.0
O70 O 0.5781 0.79235 0.259 0.0
O71 O 0.63481 0.81732 0.21486 0.0
O72 O 0.63102 0.86117 0.10733 0.0
C73 C 0.6167 0.87259 0.05301 0.0
C74 C 0.61969 0.7511 0.13424 0.0
O75 O 0.59194 0.85073 1.00178 0.0
C76 C 0.51816 0.72487 0.02997 0.0
O77 O 0.63578 0.82421 0.97424 0.0
O78 O 0.57968 0.78987 0.92739 0.0
O79 O 0.59395 0.74648 0.18415 0.0
O80 O 0.63386 0.77759 0.08178 0.0
C81 C 0.51547 0.79274 0.15251 0.0
O82 O 0.52037 0.75458 1.00654 0.0
O83 O 0.53761 0.7241 0.09107 0.0
C84 C 0.61346 0.80559 0.91452 0.0
O85 O 0.53501 0.81416 0.09299 0.0
O86 O 0.5193 0.76615 0.17543 0.0
C87 C 0.61166 0.81042 0.27494 0.0
Fe88 Fe 0.82075 0.62818 0.25814 0.0
Fe89 Fe 0.76379 0.55566 0.17752 0.0
O90 O 0.79859 0.57995 0.25476 0.0
Fe91 Fe 0.81081 0.55552 0.32737 0.0
O92 O 0.80005 0.57402 0.42066 0.0
O93 O 0.82743 0.63128 0.37793 0.0
O94 O 0.77811 0.62736 0.27676 0.0
C95 C 0.75201 0.61361 0.22365 0.0
C96 C 0.87882 0.61799 0.28586 0.0
O97 O 0.74886 0.58944 0.17056 0.0
C98 C 0.80013 0.515 0.18253 0.0
O99 O 0.8184 0.63318 0.13805 0.0
O100 O 0.79565 0.57695 0.08969 0.0
O101 O 0.85915 0.59045 0.33279 0.0
O102 O 0.86507 0.63285 0.24045 0.0
C103 C 0.73345 0.51314 0.31964 0.0
O104 O 0.77185 0.51703 0.16794 0.0
O105 O 0.82278 0.5353 0.23868 0.0
C106 C 0.81399 0.61085 0.07746 0.0
O107 O 0.73036 0.53301 0.26286 0.0
O108 O 0.76425 0.51618 0.33558 0.0
C109 C 0.81401 0.60738 0.43768 0.0
Fe110 Fe 0.2046 0.82045 0.42821 0.0
Fe111 Fe 0.21595 0.76019 0.3505 0.0
O112 O 0.22714 0.79474 0.42877 0.0
Fe113 Fe 0.26134 0.80389 0.50676 0.0
O114 O 0.22959 0.79331 0.59483 0.0
O115 O 0.20699 0.82697 0.54827 0.0
O116 O 0.1607 0.78011 0.44392 0.0
C117 C 0.14742 0.75317 0.39307 0.0
C118 C 0.27366 0.8744 0.46364 0.0
O119 O 0.1677 0.74748 0.34256 0.0
C120 C 0.29272 0.79348 0.36354 0.0
O121 O 0.19832 0.81868 0.30826 0.0
O122 O 0.22902 0.7927 0.26289 0.0
O123 O 0.27722 0.85294 0.51489 0.0
O124 O 0.24708 0.86266 0.4119 0.0
C125 C 0.22368 0.72653 0.49263 0.0
O126 O 0.26204 0.76649 0.34407 0.0
O127 O 0.29542 0.81522 0.42279 0.0
C128 C 0.21539 0.81261 0.24886 0.0
O129 O 0.20261 0.72552 0.4334 0.0
O130 O 0.25152 0.75637 0.51404 0.0
C131 C 0.21297 0.81039 0.60941 0.0
H132 H 0.35992 0.15296 0.31783 0.0
H133 H 0.42871 0.2672 0.87437 0.0
H134 H 0.44072 0.26667 0.29816 0.0
H135 H 0.37074 0.14995 0.87658 0.0
H136 H 0.41965 0.2673 0.03104 0.0
H137 H 0.35092 0.1514 0.15857 0.0
C138 C 0.37497 0.17775 0.28025 0.0
C139 C 0.40112 0.21002 0.32061 0.0
C140 C 0.40849 0.24143 0.99763 0.0
C141 C 0.39116 0.20844 0.14006 0.0
C142 C 0.41358 0.2414 0.9082 0.0
C143 C 0.40069 0.20854 0.86326 0.0
C144 C 0.39079 0.20831 0.04322 0.0
C145 C 0.38107 0.17581 0.90951 0.0
C146 C 0.37008 0.17678 0.1896 0.0
C147 C 0.42039 0.24126 0.2693 0.0
N148 N 0.37711 0.17647 0.99771 0.0
N149 N 0.41513 0.23964 0.18191 0.0
H150 H 0.15263 0.35501 0.47773 0.0
H151 H 0.27296 0.42685 0.04304 0.0
H152 H 0.26502 0.4398 0.46256 0.0
H153 H 0.15654 0.35731 0.03332 0.0
H154 H 0.27115 0.41923 0.20056 0.0
H155 H 0.15373 0.3447 0.31911 0.0
C156 C 0.17751 0.37108 0.44122 0.0
C157 C 0.20859 0.3987 0.48247 0.0
C158 C 0.24591 0.40508 0.16436 0.0
C159 C 0.21031 0.3868 0.30339 0.0
C160 C 0.24706 0.40921 0.07428 0.0
C161 C 0.2149 0.39268 0.02552 0.0
C162 C 0.21222 0.38494 0.20681 0.0
C163 C 0.18196 0.37024 0.06898 0.0
C164 C 0.17815 0.36526 0.3511 0.0
C165 C 0.24025 0.4187 0.43286 0.0
N166 N 0.18132 0.36751 0.15773 0.0
N167 N 0.24022 0.41243 0.34639 0.0
H168 H 0.84961 0.26688 0.20575 0.0
H169 H 0.80404 0.14967 0.64433 0.0
H170 H 0.80452 0.15062 0.20144 0.0
H171 H 0.8416 0.26453 0.62822 0.0
H172 H 0.81327 0.14912 0.48515 0.0
H173 H 0.85779 0.26667 0.36264 0.0
C174 C 0.84213 0.24135 0.23811 0.0
C175 C 0.82641 0.20878 0.19114 0.0
C176 C 0.81989 0.17446 0.51699 0.0
C177 C 0.83425 0.20787 0.37181 0.0
C178 C 0.81471 0.17474 0.60747 0.0
C179 C 0.82153 0.20707 0.64858 0.0
C180 C 0.83241 0.20684 0.46869 0.0
C181 C 0.83537 0.2389 0.59857 0.0
C182 C 0.84655 0.24111 0.32784 0.0
C183 C 0.81701 0.17633 0.23581 0.0
N184 N 0.84014 0.23791 0.51164 0.0
N185 N 0.82045 0.17655 0.32431 0.0
H186 H 0.65854 0.87 0.37493 0.0
H187 H 0.59119 0.74831 0.80678 0.0
H188 H 0.58851 0.75356 0.38319 0.0
H189 H 0.6611 0.86471 0.81657 0.0
H190 H 0.59948 0.75006 0.64962 0.0
H191 H 0.66839 0.86953 0.5338 0.0
C192 C 0.64577 0.84441 0.41005 0.0
C193 C 0.62228 0.81184 0.36689 0.0
C194 C 0.61359 0.77531 0.68568 0.0
C195 C 0.63343 0.81092 0.54648 0.0
C196 C 0.60901 0.7742 0.77559 0.0
C197 C 0.62556 0.80635 0.82424 0.0
C198 C 0.63414 0.80901 0.64328 0.0
C199 C 0.64818 0.83929 0.78095 0.0
C200 C 0.6513 0.8441 0.50035 0.0
C201 C 0.60634 0.77932 0.41461 0.0
N202 N 0.65132 0.83991 0.69236 0.0
N203 N 0.61204 0.77974 0.50152 0.0
H204 H 0.84715 0.58394 0.54688 0.0
H205 H 0.80446 0.65995 0.97962 0.0
H206 H 0.80102 0.65418 0.53744 0.0
H207 H 0.84821 0.5877 0.97012 0.0
H208 H 0.81174 0.66757 0.82001 0.0
H209 H 0.85666 0.59436 0.70249 0.0
C210 C 0.83917 0.6018 0.57804 0.0
C211 C 0.82282 0.61782 0.52987 0.0
C212 C 0.82048 0.65073 0.85328 0.0
C213 C 0.83307 0.62957 0.70947 0.0
C214 C 0.81666 0.64668 0.94419 0.0
C215 C 0.82577 0.62315 0.98745 0.0
C216 C 0.83365 0.63121 0.80639 0.0
C217 C 0.84079 0.60599 0.93895 0.0
C218 C 0.84465 0.60783 0.66706 0.0
C219 C 0.81354 0.64121 0.57287 0.0
N220 N 0.84399 0.61016 0.85128 0.0
N221 N 0.81824 0.64596 0.66098 0.0
H222 H 0.27319 0.84326 0.14125 0.0
H223 H 0.15393 0.7993 0.70915 0.0
H224 H 0.15858 0.80698 0.1505 0.0
H225 H 0.27002 0.84346 0.71703 0.0
H226 H 0.1545 0.8088 0.86829 0.0
H227 H 0.2727 0.85152 0.98446 0.0
C228 C 0.24801 0.83772 0.11 0.0
C229 C 0.21593 0.82448 0.15837 0.0
C230 C 0.17986 0.81693 0.83471 0.0
C231 C 0.21462 0.83252 0.97779 0.0
C232 C 0.1795 0.81159 0.74423 0.0
C233 C 0.21191 0.82022 0.70089 0.0
C234 C 0.21291 0.83111 0.8809 0.0
C235 C 0.24438 0.83599 0.74858 0.0
C236 C 0.24761 0.84225 0.02031 0.0
C237 C 0.18394 0.81753 0.11507 0.0
N238 N 0.244 0.84066 0.83575 0.0
N239 N 0.18389 0.82099 0.02662 0.0
H240 H 0.36832 0.09041 0.67887 0.0
H241 H 0.29177 0.92795 0.342 0.0
H242 H 0.40552 0.10688 0.41215 0.0
H243 H 0.30752 0.91116 0.61231 0.0
H244 H 0.32664 0.99395 0.36599 0.0
H245 H 0.33866 0.02428 0.65625 0.0
C246 C 0.37033 0.08011 0.61579 0.0
C247 C 0.38947 0.10411 0.54739 0.0
C248 C 0.32267 0.97575 0.41975 0.0
C249 C 0.35521 0.0289 0.52079 0.0
C250 C 0.30277 0.93819 0.40617 0.0
C251 C 0.29694 0.91414 0.47515 0.0
C252 C 0.33596 0.98929 0.5034 0.0
C253 C 0.31171 0.9288 0.55716 0.0
C254 C 0.35357 0.0425 0.60306 0.0
C255 C 0.39127 0.08936 0.46687 0.0
N256 N 0.33016 0.96546 0.56934 0.0
N257 N 0.37399 0.05271 0.45548 0.0
H258 H 0.36707 0.28236 0.50136 0.0
H259 H 0.28918 0.36765 0.83581 0.0
H260 H 0.40561 0.3058 0.76677 0.0
H261 H 0.30356 0.39912 0.56483 0.0
H262 H 0.32495 0.33748 0.81211 0.0
H263 H 0.33654 0.31806 0.5227 0.0
C264 C 0.36922 0.29512 0.56386 0.0
C265 C 0.38897 0.29121 0.63229 0.0
C266 C 0.32046 0.35123 0.75809 0.0
C267 C 0.35366 0.33127 0.65748 0.0
C268 C 0.30001 0.36832 0.77148 0.0
C269 C 0.29356 0.38599 0.70226 0.0
C270 C 0.33369 0.35098 0.6744 0.0
C271 C 0.3082 0.38606 0.62011 0.0
C272 C 0.35194 0.31554 0.57585 0.0
C273 C 0.39091 0.30834 0.71204 0.0
N274 N 0.32721 0.3684 0.60813 0.0
N275 N 0.37309 0.32722 0.72279 0.0
H276 H 0.93071 0.27972 0.01039 0.0
H277 H 0.09445 0.36998 0.67605 0.0
H278 H 0.9158 0.3043 0.74571 0.0
H279 H 0.11087 0.39614 0.94994 0.0
H280 H 0.02848 0.33916 0.69948 0.0
H281 H 0.99695 0.31597 0.98961 0.0
C282 C 0.94138 0.29281 0.94812 0.0
C283 C 0.91778 0.28907 0.87973 0.0
C284 C 0.04658 0.35191 0.75424 0.0
C285 C 0.99316 0.32981 0.85519 0.0
C286 C 0.08414 0.36938 0.74098 0.0
C287 C 0.1081 0.38575 0.81107 0.0
C288 C 0.03287 0.34998 0.83857 0.0
C289 C 0.09332 0.38416 0.89397 0.0
C290 C 0.97907 0.31355 0.93645 0.0
C291 C 0.93301 0.30668 0.80037 0.0
N292 N 0.05662 0.36618 0.90569 0.0
N293 N 0.96971 0.32591 0.78994 0.0
H294 H 0.61936 0.90778 0.90148 0.0
H295 H 0.71737 0.10649 0.10488 0.0
H296 H 0.65269 0.92757 0.17101 0.0
H297 H 0.73655 0.08767 0.83882 0.0
H298 H 0.68221 0.04069 0.1284 0.0
H299 H 0.65101 0.97369 0.87608 0.0
C300 C 0.63294 0.926 0.95556 0.0
C301 C 0.63339 0.91224 0.03861 0.0
C302 C 0.694 0.05101 0.06484 0.0
C303 C 0.66929 0.98741 0.0099 0.0
C304 C 0.71386 0.08852 0.05107 0.0
C305 C 0.72991 0.10257 0.96964 0.0
C306 C 0.68947 0.02731 0.99628 0.0
C307 C 0.72473 0.07795 0.90262 0.0
C308 C 0.65118 0.96351 0.94077 0.0
C309 C 0.65177 0.93707 0.10603 0.0
N310 N 0.70473 0.04143 0.91725 0.0
N311 N 0.66882 0.9735 0.09034 0.0
H312 H 0.71849 0.61658 0.07472 0.0
H313 H 0.62077 0.71638 0.28298 0.0
H314 H 0.73472 0.65024 0.34411 0.0
H315 H 0.65786 0.73484 0.01607 0.0
H316 H 0.65138 0.68108 0.30612 0.0
H317 H 0.68477 0.64881 0.05215 0.0
C318 C 0.71456 0.63036 0.12942 0.0
C319 C 0.72938 0.63074 0.21155 0.0
C320 C 0.65268 0.6928 0.24252 0.0
C321 C 0.69071 0.66736 0.18599 0.0
C322 C 0.63507 0.71271 0.22901 0.0
C323 C 0.63682 0.72853 0.14737 0.0
C324 C 0.67144 0.68797 0.17344 0.0
C325 C 0.656 0.72321 0.08002 0.0
C326 C 0.69559 0.64895 0.11621 0.0
C327 C 0.7238 0.64939 0.2798 0.0
N328 N 0.6724 0.70312 0.09436 0.0
N329 N 0.70469 0.66682 0.26564 0.0
H330 H 0.92024 0.58724 0.32799 0.0
H331 H 0.09791 0.77485 0.4254 0.0
H332 H 0.92813 0.69025 0.2666 0.0
H333 H 0.10629 0.68326 0.33323 0.0
H334 H 0.03256 0.74104 0.39529 0.0
H335 H 0.98623 0.61918 0.35447 0.0
C336 C 0.93589 0.6165 0.31958 0.0
C337 C 0.91879 0.63615 0.2948 0.0
C338 C 0.04875 0.72836 0.38198 0.0
C339 C 0.9936 0.67264 0.3271 0.0
C340 C 0.08593 0.74746 0.3998 0.0
C341 C 0.10753 0.7318 0.3817 0.0
C342 C 0.03287 0.69307 0.34763 0.0
C343 C 0.09058 0.69632 0.34778 0.0
C344 C 0.9734 0.6346 0.33457 0.0
C345 C 0.94027 0.67402 0.2849 0.0
N346 N 0.05411 0.67797 0.33231 0.0
N347 N 0.97649 0.69109 0.3022 0.0
H348 H 0.51746 0.35914 0.51659 0.0
H349 H 0.72688 0.45132 0.39187 0.0
H350 H 0.57085 0.29779 0.45769 0.0
H351 H 0.6643 0.50304 0.32808 0.0
H352 H 0.67123 0.39756 0.44071 0.0
H353 H 0.5723 0.41486 0.46824 0.0
C354 C 0.5406 0.35737 0.49317 0.0
C355 C 0.53958 0.32378 0.49101 0.0
C356 C 0.6697 0.42072 0.41621 0.0
C357 C 0.60226 0.38718 0.43765 0.0
C358 C 0.70149 0.45155 0.38892 0.0
C359 C 0.70023 0.48171 0.35555 0.0
C360 C 0.63641 0.42015 0.41151 0.0
C361 C 0.66644 0.48028 0.35293 0.0
C362 C 0.57176 0.38909 0.46561 0.0
C363 C 0.5703 0.32301 0.46003 0.0
N364 N 0.63579 0.44999 0.38083 0.0
N365 N 0.60047 0.35426 0.43541 0.0
H366 H 0.20408 0.54512 0.79832 0.0
H367 H 0.19767 0.66243 0.40489 0.0
H368 H 0.23658 0.53311 0.53982 0.0
H369 H 0.24119 0.7123 0.65409 0.0
H370 H 0.19563 0.60663 0.4562 0.0
H371 H 0.20153 0.59885 0.74842 0.0
C372 C 0.21019 0.55352 0.73082 0.0
C373 C 0.22055 0.53473 0.67292 0.0
C374 C 0.20534 0.62976 0.49963 0.0
C375 C 0.21715 0.5955 0.61575 0.0
C376 C 0.20628 0.66143 0.47083 0.0
C377 C 0.2196 0.69195 0.52554 0.0
C378 C 0.21684 0.62828 0.58442 0.0
C379 C 0.23083 0.68936 0.60997 0.0
C380 C 0.20897 0.58421 0.70277 0.0
C381 C 0.22859 0.54696 0.58642 0.0
N382 N 0.22895 0.65791 0.63722 0.0
N383 N 0.22643 0.57646 0.56014 0.0
H384 H 0.72502 0.27791 0.78754 0.0
H385 H 0.51559 0.16282 0.6656 0.0
H386 H 0.66206 0.16385 0.85378 0.0
H387 H 0.56973 0.27722 0.72894 0.0
H388 H 0.56993 0.16102 0.71416 0.0
H389 H 0.66936 0.27649 0.74154 0.0
C390 C 0.69953 0.25243 0.79164 0.0
C391 C 0.69821 0.22093 0.82475 0.0
C392 C 0.56963 0.18636 0.71783 0.0
C393 C 0.6343 0.21924 0.77199 0.0
C394 C 0.53877 0.18745 0.69013 0.0
C395 C 0.53813 0.22021 0.6933 0.0
C396 C 0.60023 0.21843 0.74688 0.0
C397 C 0.56888 0.25132 0.72572 0.0
C398 C 0.66773 0.25175 0.76598 0.0
C399 C 0.66425 0.18877 0.82898 0.0
N400 N 0.59878 0.24973 0.75031 0.0
N401 N 0.63356 0.18868 0.8025 0.0
H402 H 0.48949 0.7108 0.86586 0.0
H403 H 0.31018 0.53044 0.98463 0.0
H404 H 0.4782 0.66086 0.11769 0.0
H405 H 0.35825 0.54395 0.7298 0.0
H406 H 0.36704 0.58304 0.03621 0.0
H407 H 0.43653 0.65429 0.81412 0.0
C408 C 0.47598 0.68785 0.90993 0.0
C409 C 0.48822 0.69031 0.99589 0.0
C410 C 0.3651 0.57419 0.96926 0.0
C411 C 0.42747 0.62639 0.93817 0.0
C412 C 0.33276 0.54438 0.93982 0.0
C413 C 0.32966 0.53286 0.85304 0.0
C414 C 0.394 0.59315 0.91073 0.0
C415 C 0.35968 0.55182 0.79742 0.0
C416 C 0.44595 0.65573 0.88042 0.0
C417 C 0.46977 0.65989 0.05065 0.0
N418 N 0.39046 0.58141 0.82686 0.0
N419 N 0.43992 0.6293 0.02126 0.0
H420 H 0.86019 0.50659 0.17377 0.0
H421 H 0.74409 0.29628 0.06159 0.0
H422 H 0.74544 0.45206 0.11391 0.0
H423 H 0.85795 0.3585 0.99358 0.0
H424 H 0.74588 0.35235 0.10513 0.0
H425 H 0.86165 0.45188 0.12745 0.0
C426 C 0.83542 0.48326 0.15036 0.0
C427 C 0.80264 0.48386 0.1477 0.0
C428 C 0.77049 0.35372 0.08086 0.0
C429 C 0.80404 0.42135 0.09673 0.0
C430 C 0.76962 0.3217 0.05666 0.0
C431 C 0.80094 0.32271 0.02368 0.0
C432 C 0.80304 0.38706 0.07347 0.0
C433 C 0.83316 0.35656 0.01832 0.0
C434 C 0.83631 0.45217 0.12399 0.0
C435 C 0.77135 0.45292 0.11676 0.0
N436 N 0.83345 0.38749 0.0433 0.0
N437 N 0.77275 0.42282 0.09345 0.0
H438 H 0.45404 0.73797 0.22574 0.0
H439 H 0.36143 0.85322 0.35536 0.0
H440 H 0.50426 0.85135 0.1534 0.0
H441 H 0.29997 0.73915 0.28937 0.0
H442 H 0.41692 0.85489 0.30209 0.0
H443 H 0.40022 0.73969 0.2736 0.0
C444 C 0.45389 0.76336 0.22054 0.0
C445 C 0.48371 0.7946 0.18538 0.0
C446 C 0.39116 0.82966 0.2989 0.0
C447 C 0.42204 0.79665 0.24046 0.0
C448 C 0.3596 0.82863 0.32939 0.0
C449 C 0.32608 0.79598 0.32687 0.0
C450 C 0.38916 0.79763 0.26779 0.0
C451 C 0.32516 0.76493 0.2923 0.0
C452 C 0.42302 0.76421 0.2473 0.0
C453 C 0.48178 0.82664 0.17978 0.0
N454 N 0.35629 0.76644 0.26509 0.0
N455 N 0.45145 0.82695 0.2076 0.0
loop_
_geom_bond_atom_site_label_1
_geom_bond_atom_site_label_2
_geom_bond_distance
_geom_bond_site_symmetry_2
_ccdc_geom_bond_type
Fe0 O2 1.918 . S
Fe0 O5 1.997 . S
Fe0 O6 2.002 . S
Fe0 O11 1.976 . S
Fe0 O14 1.996 . S
Fe1 O2 1.918 . S
Fe1 O9 1.997 . S
Fe1 O12 1.996 . S
Fe1 O16 1.976 . S
Fe1 O19 2.002 . S
O2 Fe0 1.918 . S
O2 Fe1 1.918 . S
O2 Fe3 1.918 . S
Fe3 O2 1.918 . S
Fe3 O4 2.002 . S
Fe3 O13 1.976 . S
Fe3 O17 1.996 . S
Fe3 O20 1.997 . S
O4 Fe3 2.002 . S
O4 C21 1.295 . S
O5 Fe0 1.997 . S
O5 C21 1.235 . S
O6 Fe0 2.002 . S
O6 C7 1.295 . S
C7 O6 1.295 . S
C7 O9 1.235 . S
C8 O13 1.287 . S
C8 O14 1.255 . S
O9 Fe1 1.997 . S
O9 C7 1.235 . S
C10 O16 1.287 . S
C10 O17 1.255 . S
O11 Fe0 1.976 . S
O11 C18 1.287 . S
O12 Fe1 1.996 . S
O12 C18 1.255 . S
O13 Fe3 1.976 . S
O13 C8 1.287 . S
O14 Fe0 1.996 . S
O14 C8 1.255 . S
C15 O19 1.295 . S
C15 O20 1.235 . S
O16 Fe1 1.976 . S
O16 C10 1.287 . S
O17 Fe3 1.996 . S
O17 C10 1.255 . S
C18 O11 1.287 . S
C18 O12 1.255 . S
O19 Fe1 2.002 . S
O19 C15 1.295 . S
O20 Fe3 1.997 . S
O20 C15 1.235 . S
C21 O4 1.295 . S
C21 O5 1.235 . S
Fe22 O24 1.918 . S
Fe22 O27 1.997 . S
Fe22 O28 2.002 . S
Fe22 O33 1.976 . S
Fe22 O36 1.996 . S
Fe23 O24 1.918 . S
Fe23 O31 1.997 . S
Fe23 O34 1.996 . S
Fe23 O38 1.976 . S
Fe23 O41 2.002 . S
O24 Fe22 1.918 . S
O24 Fe23 1.918 . S
O24 Fe25 1.918 . S
Fe25 O24 1.918 . S
Fe25 O26 2.002 . S
Fe25 O35 1.976 . S
Fe25 O39 1.996 . S
Fe25 O42 1.997 . S
O26 Fe25 2.002 . S
O26 C43 1.295 . S
O27 Fe22 1.997 . S
O27 C43 1.235 . S
O28 Fe22 2.002 . S
O28 C29 1.295 . S
C29 O28 1.295 . S
C29 O31 1.235 . S
C30 O35 1.287 . S
C30 O36 1.255 . S
O31 Fe23 1.997 . S
O31 C29 1.235 . S
C32 O38 1.287 . S
C32 O39 1.255 . S
O33 Fe22 1.976 . S
O33 C40 1.287 . S
O34 Fe23 1.996 . S
O34 C40 1.255 . S
O35 Fe25 1.976 . S
O35 C30 1.287 . S
O36 Fe22 1.996 . S
O36 C30 1.255 . S
C37 O41 1.295 . S
C37 O42 1.235 . S
O38 Fe23 1.976 . S
O38 C32 1.287 . S
O39 Fe25 1.996 . S
O39 C32 1.255 . S
C40 O33 1.287 . S
C40 O34 1.255 . S
O41 Fe23 2.002 . S
O41 C37 1.295 . S
O42 Fe25 1.997 . S
O42 C37 1.235 . S
C43 O26 1.295 . S
C43 O27 1.235 . S
Fe44 O46 1.918 . S
Fe44 O49 1.997 1_556 S
Fe44 O50 2.002 . S
Fe44 O55 1.976 . S
Fe44 O58 1.996 . S
Fe45 O46 1.918 . S
Fe45 O53 1.997 . S
Fe45 O56 1.996 . S
Fe45 O60 1.976 . S
Fe45 O63 2.002 . S
O46 Fe44 1.918 . S
O46 Fe45 1.918 . S
O46 Fe47 1.918 . S
Fe47 O46 1.918 . S
Fe47 O48 2.002 1_556 S
Fe47 O57 1.976 . S
Fe47 O61 1.996 . S
Fe47 O64 1.997 1_556 S
O48 Fe47 2.002 1_554 S
O48 C65 1.295 . S
O49 Fe44 1.997 1_554 S
O49 C65 1.235 . S
O50 Fe44 2.002 . S
O50 C51 1.295 . S
C51 O50 1.295 . S
C51 O53 1.235 . S
C52 O57 1.287 . S
C52 O58 1.255 . S
O53 Fe45 1.997 . S
O53 C51 1.235 . S
C54 O60 1.287 . S
C54 O61 1.255 . S
O55 Fe44 1.976 . S
O55 C62 1.287 . S
O56 Fe45 1.996 . S
O56 C62 1.255 . S
O57 Fe47 1.976 . S
O57 C52 1.287 . S
O58 Fe44 1.996 . S
O58 C52 1.255 . S
C59 O63 1.295 . S
C59 O64 1.235 1_556 S
O60 Fe45 1.976 . S
O60 C54 1.287 . S
O61 Fe47 1.996 . S
O61 C54 1.255 . S
C62 O55 1.287 . S
C62 O56 1.255 . S
O63 Fe45 2.002 . S
O63 C59 1.295 . S
O64 Fe47 1.997 1_554 S
O64 C59 1.235 1_554 S
C65 O48 1.295 . S
C65 O49 1.235 . S
Fe66 O68 1.918 . S
Fe66 O71 1.997 . S
Fe66 O72 2.002 . S
Fe66 O77 1.976 1_554 S
Fe66 O80 1.996 . S
Fe67 O68 1.918 1_556 S
Fe67 O75 1.997 1_556 S
Fe67 O78 1.996 . S
Fe67 O82 1.976 . S
Fe67 O85 2.002 1_556 S
O68 Fe66 1.918 . S
O68 Fe67 1.918 1_554 S
O68 Fe69 1.918 . S
Fe69 O68 1.918 . S
Fe69 O70 2.002 . S
Fe69 O79 1.976 . S
Fe69 O83 1.996 . S
Fe69 O86 1.997 . S
O70 Fe69 2.002 . S
O70 C87 1.295 . S
O71 Fe66 1.997 . S
O71 C87 1.235 . S
O72 Fe66 2.002 . S
O72 C73 1.295 . S
C73 O72 1.295 . S
C73 O75 1.235 . S
C74 O79 1.287 . S
C74 O80 1.255 . S
O75 Fe67 1.997 1_554 S
O75 C73 1.235 . S
C76 O82 1.287 1_554 S
C76 O83 1.255 . S
O77 Fe66 1.976 1_556 S
O77 C84 1.287 . S
O78 Fe67 1.996 . S
O78 C84 1.255 . S
O79 Fe69 1.976 . S
O79 C74 1.287 . S
O80 Fe66 1.996 . S
O80 C74 1.255 . S
C81 O85 1.295 . S
C81 O86 1.235 . S
O82 Fe67 1.976 . S
O82 C76 1.287 1_556 S
O83 Fe69 1.996 . S
O83 C76 1.255 . S
C84 O77 1.287 . S
C84 O78 1.255 . S
O85 Fe67 2.002 1_554 S
O85 C81 1.295 . S
O86 Fe69 1.997 . S
O86 C81 1.235 . S
C87 O70 1.295 . S
C87 O71 1.235 . S
Fe88 O90 1.918 . S
Fe88 O93 1.997 . S
Fe88 O94 2.002 . S
Fe88 O99 1.976 . S
Fe88 O102 1.996 . S
Fe89 O90 1.918 . S
Fe89 O97 1.997 . S
Fe89 O100 1.996 . S
Fe89 O104 1.976 . S
Fe89 O107 2.002 . S
O90 Fe88 1.918 . S
O90 Fe89 1.918 . S
O90 Fe91 1.918 . S
Fe91 O90 1.918 . S
Fe91 O92 2.002 . S
Fe91 O101 1.976 . S
Fe91 O105 1.996 . S
Fe91 O108 1.997 . S
O92 Fe91 2.002 . S
O92 C109 1.295 . S
O93 Fe88 1.997 . S
O93 C109 1.235 . S
O94 Fe88 2.002 . S
O94 C95 1.295 . S
C95 O94 1.295 . S
C95 O97 1.235 . S
C96 O101 1.287 . S
C96 O102 1.255 . S
O97 Fe89 1.997 . S
O97 C95 1.235 . S
C98 O104 1.287 . S
C98 O105 1.255 . S
O99 Fe88 1.976 . S
O99 C106 1.287 . S
O100 Fe89 1.996 . S
O100 C106 1.255 . S
O101 Fe91 1.976 . S
O101 C96 1.287 . S
O102 Fe88 1.996 . S
O102 C96 1.255 . S
C103 O107 1.295 . S
C103 O108 1.235 . S
O104 Fe89 1.976 . S
O104 C98 1.287 . S
O105 Fe91 1.996 . S
O105 C98 1.255 . S
C106 O99 1.287 . S
C106 O100 1.255 . S
O107 Fe89 2.002 . S
O107 C103 1.295 . S
O108 Fe91 1.997 . S
O108 C103 1.235 . S
C109 O92 1.295 . S
C109 O93 1.235 . S
Fe110 O112 1.918 . S
Fe110 O115 1.997 . S
Fe110 O116 2.002 . S
Fe110 O121 1.976 . S
Fe110 O124 1.996 . S
Fe111 O112 1.918 . S
Fe111 O119 1.997 . S
Fe111 O122 1.996 . S
Fe111 O126 1.976 . S
Fe111 O129 2.002 . S
O112 Fe110 1.918 . S
O112 Fe111 1.918 . S
O112 Fe113 1.918 . S
Fe113 O112 1.918 . S
Fe113 O114 2.002 . S
Fe113 O123 1.976 . S
Fe113 O127 1.996 . S
Fe113 O130 1.997 . S
O114 Fe113 2.002 . S
O114 C131 1.295 . S
O115 Fe110 1.997 . S
O115 C131 1.235 . S
O116 Fe110 2.002 . S
O116 C117 1.295 . S
C117 O116 1.295 . S
C117 O119 1.235 . S
C118 O123 1.287 . S
C118 O124 1.255 . S
O119 Fe111 1.997 . S
O119 C117 1.235 . S
C120 O126 1.287 . S
C120 O127 1.255 . S
O121 Fe110 1.976 . S
O121 C128 1.287 . S
O122 Fe111 1.996 . S
O122 C128 1.255 . S
O123 Fe113 1.976 . S
O123 C118 1.287 . S
O124 Fe110 1.996 . S
O124 C118 1.255 . S
C125 O129 1.295 . S
C125 O130 1.235 . S
O126 Fe111 1.976 . S
O126 C120 1.287 . S
O127 Fe113 1.996 . S
O127 C120 1.255 . S
C128 O121 1.287 . S
C128 O122 1.255 . S
O129 Fe111 2.002 . S
O129 C125 1.295 . S
O130 Fe113 1.997 . S
O130 C125 1.235 . S
C131 O114 1.295 . S
C131 O115 1.235 . S
H132 C138 0.930 . S
H133 C142 0.930 . S
H134 C147 0.929 . S
H135 C145 0.929 . S
H136 C140 0.929 1_554 S
H137 C146 0.929 . S
C138 H132 0.930 . S
C138 C139 1.367 . S
C138 C146 1.378 . S
C139 C138 1.367 . S
C139 C147 1.433 . S
C140 H136 0.929 1_556 S
C140 C142 1.378 . S
C140 C144 1.350 1_556 S
C141 C144 1.463 . S
C141 C146 1.350 . S
C141 N149 1.427 . S
C142 H133 0.930 . S
C142 C140 1.378 . S
C142 C143 1.367 . S
C143 C142 1.367 . S
C143 C145 1.433 . S
C144 C140 1.350 1_554 S
C144 C141 1.463 . S
C144 N148 1.427 1_554 S
C145 H135 0.929 . S
C145 C143 1.433 . S
C145 N148 1.384 . S
C146 H137 0.929 . S
C146 C138 1.378 . S
C146 C141 1.350 . S
C147 H134 0.929 . S
C147 C139 1.433 . S
C147 N149 1.384 . S
N148 C144 1.427 1_556 S
N148 C145 1.384 . S
N149 C141 1.427 . S
N149 C147 1.384 . S
H150 C156 0.930 . S
H151 C160 0.930 . S
H152 C165 0.929 . S
H153 C163 0.929 . S
H154 C158 0.929 . S
H155 C164 0.929 . S
C156 H150 0.930 . S
C156 C157 1.367 . S
C156 C164 1.378 . S
C157 C156 1.367 . S
C157 C165 1.433 . S
C158 H154 0.929 . S
C158 C160 1.378 . S
C158 C162 1.350 . S
C159 C162 1.463 . S
C159 C164 1.350 . S
C159 N167 1.427 . S
C160 H151 0.930 . S
C160 C158 1.378 . S
C160 C161 1.367 . S
C161 C160 1.367 . S
C161 C163 1.433 . S
C162 C158 1.350 . S
C162 C159 1.463 . S
C162 N166 1.427 . S
C163 H153 0.929 . S
C163 C161 1.433 . S
C163 N166 1.384 . S
C164 H155 0.929 . S
C164 C156 1.378 . S
C164 C159 1.350 . S
C165 H152 0.929 . S
C165 C157 1.433 . S
C165 N167 1.384 . S
N166 C162 1.427 . S
N166 C163 1.384 . S
N167 C159 1.427 . S
N167 C165 1.384 . S
H168 C174 0.930 . S
H169 C178 0.930 . S
H170 C183 0.929 . S
H171 C181 0.929 . S
H172 C176 0.929 . S
H173 C182 0.929 . S
C174 H168 0.930 . S
C174 C175 1.367 . S
C174 C182 1.378 . S
C175 C174 1.367 . S
C175 C183 1.433 . S
C176 H172 0.929 . S
C176 C178 1.378 . S
C176 C180 1.350 . S
C177 C180 1.463 . S
C177 C182 1.350 . S
C177 N185 1.427 . S
C178 H169 0.930 . S
C178 C176 1.378 . S
C178 C179 1.367 . S
C179 C178 1.367 . S
C179 C181 1.433 . S
C180 C176 1.350 . S
C180 C177 1.463 . S
C180 N184 1.427 . S
C181 H171 0.929 . S
C181 C179 1.433 . S
C181 N184 1.384 . S
C182 H173 0.929 . S
C182 C174 1.378 . S
C182 C177 1.350 . S
C183 H170 0.929 . S
C183 C175 1.433 . S
C183 N185 1.384 . S
N184 C180 1.427 . S
N184 C181 1.384 . S
N185 C177 1.427 . S
N185 C183 1.384 . S
H186 C192 0.930 . S
H187 C196 0.930 . S
H188 C201 0.929 . S
H189 C199 0.929 . S
H190 C194 0.929 . S
H191 C200 0.929 . S
C192 H186 0.930 . S
C192 C193 1.367 . S
C192 C200 1.378 . S
C193 C192 1.367 . S
C193 C201 1.433 . S
C194 H190 0.929 . S
C194 C196 1.378 . S
C194 C198 1.350 . S
C195 C198 1.463 . S
C195 C200 1.350 . S
C195 N203 1.427 . S
C196 H187 0.930 . S
C196 C194 1.378 . S
C196 C197 1.367 . S
C197 C196 1.367 . S
C197 C199 1.433 . S
C198 C194 1.350 . S
C198 C195 1.463 . S
C198 N202 1.427 . S
C199 H189 0.929 . S
C199 C197 1.433 . S
C199 N202 1.384 . S
C200 H191 0.929 . S
C200 C192 1.378 . S
C200 C195 1.350 . S
C201 H188 0.929 . S
C201 C193 1.433 . S
C201 N203 1.384 . S
N202 C198 1.427 . S
N202 C199 1.384 . S
N203 C195 1.427 . S
N203 C201 1.384 . S
H204 C210 0.930 . S
H205 C214 0.930 . S
H206 C219 0.929 . S
H207 C217 0.929 . S
H208 C212 0.929 . S
H209 C218 0.929 . S
C210 H204 0.930 . S
C210 C211 1.367 . S
C210 C218 1.378 . S
C211 C210 1.367 . S
C211 C219 1.433 . S
C212 H208 0.929 . S
C212 C214 1.378 . S
C212 C216 1.350 . S
C213 C216 1.463 . S
C213 C218 1.350 . S
C213 N221 1.427 . S
C214 H205 0.930 . S
C214 C212 1.378 . S
C214 C215 1.367 . S
C215 C214 1.367 . S
C215 C217 1.433 . S
C216 C212 1.350 . S
C216 C213 1.463 . S
C216 N220 1.427 . S
C217 H207 0.929 . S
C217 C215 1.433 . S
C217 N220 1.384 . S
C218 H209 0.929 . S
C218 C210 1.378 . S
C218 C213 1.350 . S
C219 H206 0.929 . S
C219 C211 1.433 . S
C219 N221 1.384 . S
N220 C216 1.427 . S
N220 C217 1.384 . S
N221 C213 1.427 . S
N221 C219 1.384 . S
H222 C228 0.930 . S
H223 C232 0.930 . S
H224 C237 0.929 . S
H225 C235 0.929 . S
H226 C230 0.929 . S
H227 C236 0.930 . S
C228 H222 0.930 . S
C228 C229 1.367 . S
C228 C236 1.374 1_554 S
C229 C228 1.367 . S
C229 C237 1.433 . S
C230 H226 0.929 . S
C230 C232 1.378 . S
C230 C234 1.350 . S
C231 C234 1.463 . S
C231 C236 1.352 . S
C231 N239 1.427 1_556 S
C232 H223 0.930 . S
C232 C230 1.378 . S
C232 C233 1.367 . S
C233 C232 1.367 . S
C233 C235 1.433 . S
C234 C230 1.350 . S
C234 C231 1.463 . S
C234 N238 1.427 . S
C235 H225 0.929 . S
C235 C233 1.433 . S
C235 N238 1.384 . S
C236 H227 0.930 . S
C236 C228 1.374 1_556 S
C236 C231 1.352 . S
C237 H224 0.929 . S
C237 C229 1.433 . S
C237 N239 1.384 . S
N238 C234 1.427 . S
N238 C235 1.384 . S
N239 C231 1.427 1_554 S
N239 C237 1.384 . S
H240 C246 0.930 . S
H241 C250 0.930 . S
H242 C255 0.929 . S
H243 C253 0.929 . S
H244 C248 0.929 . S
H245 C254 0.929 . S
C246 H240 0.930 . S
C246 C247 1.367 . S
C246 C254 1.378 . S
C247 C246 1.367 . S
C247 C255 1.433 . S
C248 H244 0.929 . S
C248 C250 1.378 . S
C248 C252 1.350 . S
C249 C252 1.463 1_545 S
C249 C254 1.350 . S
C249 N257 1.427 . S
C250 H241 0.930 . S
C250 C248 1.378 . S
C250 C251 1.367 . S
C251 C250 1.367 . S
C251 C253 1.433 . S
C252 C248 1.350 . S
C252 C249 1.463 1_565 S
C252 N256 1.427 . S
C253 H243 0.929 . S
C253 C251 1.433 . S
C253 N256 1.384 . S
C254 H245 0.929 . S
C254 C246 1.378 . S
C254 C249 1.350 . S
C255 H242 0.929 . S
C255 C247 1.433 . S
C255 N257 1.384 . S
N256 C252 1.427 . S
N256 C253 1.384 . S
N257 C249 1.427 . S
N257 C255 1.384 . S
H258 C264 0.930 . S
H259 C268 0.930 . S
H260 C273 0.929 . S
H261 C271 0.929 . S
H262 C266 0.929 . S
H263 C272 0.929 . S
C264 H258 0.930 . S
C264 C265 1.367 . S
C264 C272 1.378 . S
C265 C264 1.367 . S
C265 C273 1.433 . S
C266 H262 0.929 . S
C266 C268 1.378 . S
C266 C270 1.350 . S
C267 C270 1.463 . S
C267 C272 1.350 . S
C267 N275 1.427 . S
C268 H259 0.930 . S
C268 C266 1.378 . S
C268 C269 1.367 . S
C269 C268 1.367 . S
C269 C271 1.433 . S
C270 C266 1.350 . S
C270 C267 1.463 . S
C270 N274 1.427 . S
C271 H261 0.929 . S
C271 C269 1.433 . S
C271 N274 1.384 . S
C272 H263 0.929 . S
C272 C264 1.378 . S
C272 C267 1.350 . S
C273 H260 0.929 . S
C273 C265 1.433 . S
C273 N275 1.384 . S
N274 C270 1.427 . S
N274 C271 1.384 . S
N275 C267 1.427 . S
N275 C273 1.384 . S
H276 C282 0.930 . S
H277 C286 0.930 . S
H278 C291 0.929 . S
H279 C289 0.929 . S
H280 C284 0.929 . S
H281 C290 0.929 . S
C282 H276 0.930 . S
C282 C283 1.367 . S
C282 C290 1.378 . S
C283 C282 1.367 . S
C283 C291 1.433 . S
C284 H280 0.929 . S
C284 C286 1.378 . S
C284 C288 1.350 . S
C285 C288 1.463 1_655 S
C285 C290 1.350 . S
C285 N293 1.427 . S
C286 H277 0.930 . S
C286 C284 1.378 . S
C286 C287 1.367 . S
C287 C286 1.367 . S
C287 C289 1.433 . S
C288 C284 1.350 . S
C288 C285 1.463 1_455 S
C288 N292 1.427 . S
C289 H279 0.929 . S
C289 C287 1.433 . S
C289 N292 1.384 . S
C290 H281 0.929 . S
C290 C282 1.378 . S
C290 C285 1.350 . S
C291 H278 0.929 . S
C291 C283 1.433 . S
C291 N293 1.384 . S
N292 C288 1.427 . S
N292 C289 1.384 . S
N293 C285 1.427 . S
N293 C291 1.384 . S
H294 C300 0.930 . S
H295 C304 0.930 . S
H296 C309 0.929 . S
H297 C307 0.929 . S
H298 C302 0.929 . S
H299 C308 0.929 . S
C300 H294 0.930 . S
C300 C301 1.367 1_556 S
C300 C308 1.378 . S
C301 C300 1.367 1_554 S
C301 C309 1.433 . S
C302 H298 0.929 . S
C302 C304 1.378 . S
C302 C306 1.350 1_554 S
C303 C306 1.463 1_564 S
C303 C308 1.350 1_554 S
C303 N311 1.427 . S
C304 H295 0.930 . S
C304 C302 1.378 . S
C304 C305 1.367 1_554 S
C305 C304 1.367 1_556 S
C305 C307 1.433 . S
C306 C302 1.350 1_556 S
C306 C303 1.463 1_546 S
C306 N310 1.427 . S
C307 H297 0.929 . S
C307 C305 1.433 . S
C307 N310 1.384 . S
C308 H299 0.929 . S
C308 C300 1.378 . S
C308 C303 1.350 1_556 S
C309 H296 0.929 . S
C309 C301 1.433 . S
C309 N311 1.384 . S
N310 C306 1.427 . S
N310 C307 1.384 . S
N311 C303 1.427 . S
N311 C309 1.384 . S
H312 C318 0.930 . S
H313 C322 0.930 . S
H314 C327 0.929 . S
H315 C325 0.929 . S
H316 C320 0.929 . S
H317 C326 0.929 . S
C318 H312 0.930 . S
C318 C319 1.367 . S
C318 C326 1.378 . S
C319 C318 1.367 . S
C319 C327 1.433 . S
C320 H316 0.929 . S
C320 C322 1.378 . S
C320 C324 1.350 . S
C321 C324 1.463 . S
C321 C326 1.350 . S
C321 N329 1.427 . S
C322 H313 0.930 . S
C322 C320 1.378 . S
C322 C323 1.367 . S
C323 C322 1.367 . S
C323 C325 1.433 . S
C324 C320 1.350 . S
C324 C321 1.463 . S
C324 N328 1.427 . S
C325 H315 0.929 . S
C325 C323 1.433 . S
C325 N328 1.384 . S
C326 H317 0.929 . S
C326 C318 1.378 . S
C326 C321 1.350 . S
C327 H314 0.929 . S
C327 C319 1.433 . S
C327 N329 1.384 . S
N328 C324 1.427 . S
N328 C325 1.384 . S
N329 C321 1.427 . S
N329 C327 1.384 . S
H330 C336 0.930 . S
H331 C340 0.930 . S
H332 C345 0.929 . S
H333 C343 0.929 . S
H334 C338 0.929 . S
H335 C344 0.929 . S
C336 H330 0.930 . S
C336 C337 1.367 . S
C336 C344 1.378 . S
C337 C336 1.367 . S
C337 C345 1.433 . S
C338 H334 0.929 . S
C338 C340 1.378 . S
C338 C342 1.350 . S
C339 C342 1.463 1_655 S
C339 C344 1.350 . S
C339 N347 1.427 . S
C340 H331 0.930 . S
C340 C338 1.378 . S
C340 C341 1.367 . S
C341 C340 1.367 . S
C341 C343 1.433 . S
C342 C338 1.350 . S
C342 C339 1.463 1_455 S
C342 N346 1.427 . S
C343 H333 0.929 . S
C343 C341 1.433 . S
C343 N346 1.384 . S
C344 H335 0.929 . S
C344 C336 1.378 . S
C344 C339 1.350 . S
C345 H332 0.929 . S
C345 C337 1.433 . S
C345 N347 1.384 . S
N346 C342 1.427 . S
N346 C343 1.384 . S
N347 C339 1.427 . S
N347 C345 1.384 . S
H348 C354 0.930 . S
H349 C358 0.930 . S
H350 C363 0.929 . S
H351 C361 0.929 . S
H352 C356 0.929 . S
H353 C362 0.929 . S
C354 H348 0.930 . S
C354 C355 1.367 . S
C354 C362 1.378 . S
C355 C354 1.367 . S
C355 C363 1.433 . S
C356 H352 0.929 . S
C356 C358 1.378 . S
C356 C360 1.350 . S
C357 C360 1.463 . S
C357 C362 1.350 . S
C357 N365 1.427 . S
C358 H349 0.930 . S
C358 C356 1.378 . S
C358 C359 1.367 . S
C359 C358 1.367 . S
C359 C361 1.433 . S
C360 C356 1.350 . S
C360 C357 1.463 . S
C360 N364 1.427 . S
C361 H351 0.929 . S
C361 C359 1.433 . S
C361 N364 1.384 . S
C362 H353 0.929 . S
C362 C354 1.378 . S
C362 C357 1.350 . S
C363 H350 0.929 . S
C363 C355 1.433 . S
C363 N365 1.384 . S
N364 C360 1.427 . S
N364 C361 1.384 . S
N365 C357 1.427 . S
N365 C363 1.384 . S
H366 C372 0.930 . S
H367 C376 0.930 . S
H368 C381 0.929 . S
H369 C379 0.929 . S
H370 C374 0.929 . S
H371 C380 0.929 . S
C372 H366 0.930 . S
C372 C373 1.367 . S
C372 C380 1.378 . S
C373 C372 1.367 . S
C373 C381 1.433 . S
C374 H370 0.929 . S
C374 C376 1.378 . S
C374 C378 1.350 . S
C375 C378 1.463 . S
C375 C380 1.350 . S
C375 N383 1.427 . S
C376 H367 0.930 . S
C376 C374 1.378 . S
C376 C377 1.367 . S
C377 C376 1.367 . S
C377 C379 1.433 . S
C378 C374 1.350 . S
C378 C375 1.463 . S
C378 N382 1.427 . S
C379 H369 0.929 . S
C379 C377 1.433 . S
C379 N382 1.384 . S
C380 H371 0.929 . S
C380 C372 1.378 . S
C380 C375 1.350 . S
C381 H368 0.929 . S
C381 C373 1.433 . S
C381 N383 1.384 . S
N382 C378 1.427 . S
N382 C379 1.384 . S
N383 C375 1.427 . S
N383 C381 1.384 . S
H384 C390 0.930 . S
H385 C394 0.930 . S
H386 C399 0.929 . S
H387 C397 0.929 . S
H388 C392 0.929 . S
H389 C398 0.929 . S
C390 H384 0.930 . S
C390 C391 1.367 . S
C390 C398 1.378 . S
C391 C390 1.367 . S
C391 C399 1.433 . S
C392 H388 0.929 . S
C392 C394 1.378 . S
C392 C396 1.350 . S
C393 C396 1.463 . S
C393 C398 1.350 . S
C393 N401 1.427 . S
C394 H385 0.930 . S
C394 C392 1.378 . S
C394 C395 1.367 . S
C395 C394 1.367 . S
C395 C397 1.433 . S
C396 C392 1.350 . S
C396 C393 1.463 . S
C396 N400 1.427 . S
C397 H387 0.929 . S
C397 C395 1.433 . S
C397 N400 1.384 . S
C398 H389 0.929 . S
C398 C390 1.378 . S
C398 C393 1.350 . S
C399 H386 0.929 . S
C399 C391 1.433 . S
C399 N401 1.384 . S
N400 C396 1.427 . S
N400 C397 1.384 . S
N401 C393 1.427 . S
N401 C399 1.384 . S
H402 C408 0.930 . S
H403 C412 0.930 . S
H404 C417 0.929 . S
H405 C415 0.929 . S
H406 C410 0.929 1_554 S
H407 C416 0.929 . S
C408 H402 0.930 . S
C408 C409 1.367 . S
C408 C416 1.378 . S
C409 C408 1.367 . S
C409 C417 1.433 1_556 S
C410 H406 0.929 1_556 S
C410 C412 1.378 . S
C410 C414 1.350 . S
C411 C414 1.463 . S
C411 C416 1.350 . S
C411 N419 1.427 1_556 S
C412 H403 0.930 . S
C412 C410 1.378 . S
C412 C413 1.367 . S
C413 C412 1.367 . S
C413 C415 1.433 . S
C414 C410 1.350 . S
C414 C411 1.463 . S
C414 N418 1.427 . S
C415 H405 0.929 . S
C415 C413 1.433 . S
C415 N418 1.384 . S
C416 H407 0.929 . S
C416 C408 1.378 . S
C416 C411 1.350 . S
C417 H404 0.929 . S
C417 C409 1.433 1_554 S
C417 N419 1.384 . S
N418 C414 1.427 . S
N418 C415 1.384 . S
N419 C411 1.427 1_554 S
N419 C417 1.384 . S
H420 C426 0.930 . S
H421 C430 0.930 . S
H422 C435 0.929 . S
H423 C433 0.929 . S
H424 C428 0.929 . S
H425 C434 0.929 . S
C426 H420 0.930 . S
C426 C427 1.367 . S
C426 C434 1.378 . S
C427 C426 1.367 . S
C427 C435 1.433 . S
C428 H424 0.929 . S
C428 C430 1.378 . S
C428 C432 1.350 1_556 S
C429 C432 1.463 . S
C429 C434 1.350 . S
C429 N437 1.427 . S
C430 H421 0.930 . S
C430 C428 1.378 . S
C430 C431 1.367 1_556 S
C431 C430 1.367 1_554 S
C431 C433 1.433 . S
C432 C428 1.350 1_554 S
C432 C429 1.463 . S
C432 N436 1.427 . S
C433 H423 0.929 . S
C433 C431 1.433 . S
C433 N436 1.384 . S
C434 H425 0.929 . S
C434 C426 1.378 . S
C434 C429 1.350 . S
C435 H422 0.929 . S
C435 C427 1.433 . S
C435 N437 1.384 . S
N436 C432 1.427 . S
N436 C433 1.384 . S
N437 C429 1.427 . S
N437 C435 1.384 . S
H438 C444 0.930 . S
H439 C448 0.930 . S
H440 C453 0.929 . S
H441 C451 0.929 . S
H442 C446 0.929 . S
H443 C452 0.929 . S
C444 H438 0.930 . S
C444 C445 1.367 . S
C444 C452 1.378 . S
C445 C444 1.367 . S
C445 C453 1.433 . S
C446 H442 0.929 . S
C446 C448 1.378 . S
C446 C450 1.350 . S
C447 C450 1.463 . S
C447 C452 1.350 . S
C447 N455 1.427 . S
C448 H439 0.930 . S
C448 C446 1.378 . S
C448 C449 1.367 . S
C449 C448 1.367 . S
C449 C451 1.433 . S
C450 C446 1.350 . S
C450 C447 1.463 . S
C450 N454 1.427 . S
C451 H441 0.929 . S
C451 C449 1.433 . S
C451 N454 1.384 . S
C452 H443 0.929 . S
C452 C444 1.378 . S
C452 C447 1.350 . S
C453 H440 0.929 . S
C453 C445 1.433 . S
C453 N455 1.384 . S
N454 C450 1.427 . S
N454 C451 1.384 . S
N455 C447 1.427 . S
N455 C453 1.384 . S
C139 C10 1.447 . S
C143 C7 1.437 . S
C157 C32 1.454 . S
C161 C29 1.442 1_554 S
C175 C65 1.443 . S
C179 C62 1.454 . S
C193 C87 1.448 . S
C197 C84 1.450 . S
C211 C109 1.436 . S
C215 C106 1.451 1_556 S
C229 C128 1.448 . S
C233 C131 1.449 . S
C247 C15 1.576 . S
C251 C118 1.589 . S
C265 C18 1.587 . S
C269 C37 1.577 . S
C283 C51 1.578 . S
C287 C40 1.586 . S
C301 C73 1.573 . S
C305 C52 1.585 . S
C319 C95 1.570 . S
C323 C74 1.586 . S
C337 C96 1.589 . S
C341 C117 1.570 . S
C355 C8 1.330 . S
C359 C103 1.316 . S
C373 C30 1.323 . S
C377 C125 1.310 . S
C391 C54 1.327 . S
C395 C21 1.320 . S
C409 C76 1.329 1_556 S
C413 C43 1.319 . S
C427 C98 1.325 . S
C431 C59 1.309 1_554 S
C445 C81 1.315 . S
C449 C120 1.330 . S
