# Generated by pormake.
# Topology wjd, (6)-cn, num edge types: 1
# Building blocks:
#     Node 0, Type 0, BuildingBlock: HISSIN_clean_sbu_0, # of connection points: 6
#     Node 1, Type 0, BuildingBlock: HISSIN_clean_sbu_0, # of connection points: 6
#     Node 2, Type 0, BuildingBlock: HISSIN_clean_sbu_0, # of connection points: 6
#     Node 3, Type 0, BuildingBlock: HISSIN_clean_sbu_0, # of connection points: 6
#     Node 4, Type 0, BuildingBlock: HISSIN_clean_sbu_0, # of connection points: 6
#     Node 5, Type 0, BuildingBlock: HISSIN_clean_sbu_0, # of connection points: 6
#     Node 6, Type 0, BuildingBlock: HISSIN_clean_sbu_0, # of connection points: 6
#     Node 7, Type 0, BuildingBlock: HISSIN_clean_sbu_0, # of connection points: 6
#     Node 8, Type 0, BuildingBlock: HISSIN_clean_sbu_0, # of connection points: 6
#     Node 9, Type 0, BuildingBlock: HISSIN_clean_sbu_0, # of connection points: 6
#     Node 10, Type 0, BuildingBlock: HISSIN_clean_sbu_0, # of connection points: 6
#     Node 11, Type 0, BuildingBlock: HISSIN_clean_sbu_0, # of connection points: 6
#     Edge 12, Type (0, 0), BuildingBlock: OJICUG_clean_linker_0, # of connection points: 2
#     Edge 13, Type (0, 0), BuildingBlock: OJICUG_clean_linker_0, # of connection points: 2
#     Edge 14, Type (0, 0), BuildingBlock: OJICUG_clean_linker_0, # of connection points: 2
#     Edge 15, Type (0, 0), BuildingBlock: OJICUG_clean_linker_0, # of connection points: 2
#     Edge 16, Type (0, 0), BuildingBlock: OJICUG_clean_linker_0, # of connection points: 2
#     Edge 17, Type (0, 0), BuildingBlock: OJICUG_clean_linker_0, # of connection points: 2
#     Edge 18, Type (0, 0), BuildingBlock: OJICUG_clean_linker_0, # of connection points: 2
#     Edge 19, Type (0, 0), BuildingBlock: OJICUG_clean_linker_0, # of connection points: 2
#     Edge 20, Type (0, 0), BuildingBlock: OJICUG_clean_linker_0, # of connection points: 2
#     Edge 21, Type (0, 0), BuildingBlock: OJICUG_clean_linker_0, # of connection points: 2
#     Edge 22, Type (0, 0), BuildingBlock: OJICUG_clean_linker_0, # of connection points: 2
#     Edge 23, Type (0, 0), BuildingBlock: OJICUG_clean_linker_0, # of connection points: 2
#     Edge 24, Type (0, 0), BuildingBlock: OJICUG_clean_linker_0, # of connection points: 2
#     Edge 25, Type (0, 0), BuildingBlock: OJICUG_clean_linker_0, # of connection points: 2
#     Edge 26, Type (0, 0), BuildingBlock: OJICUG_clean_linker_0, # of connection points: 2
#     Edge 27, Type (0, 0), BuildingBlock: OJICUG_clean_linker_0, # of connection points: 2
#     Edge 28, Type (0, 0), BuildingBlock: OJICUG_clean_linker_0, # of connection points: 2
#     Edge 29, Type (0, 0), BuildingBlock: OJICUG_clean_linker_0, # of connection points: 2
#     Edge 30, Type (0, 0), BuildingBlock: OJICUG_clean_linker_0, # of connection points: 2
#     Edge 31, Type (0, 0), BuildingBlock: OJICUG_clean_linker_0, # of connection points: 2
#     Edge 32, Type (0, 0), BuildingBlock: OJICUG_clean_linker_0, # of connection points: 2
#     Edge 33, Type (0, 0), BuildingBlock: OJICUG_clean_linker_0, # of connection points: 2
#     Edge 34, Type (0, 0), BuildingBlock: OJICUG_clean_linker_0, # of connection points: 2
#     Edge 35, Type (0, 0), BuildingBlock: OJICUG_clean_linker_0, # of connection points: 2
#     Edge 36, Type (0, 0), BuildingBlock: OJICUG_clean_linker_0, # of connection points: 2
#     Edge 37, Type (0, 0), BuildingBlock: OJICUG_clean_linker_0, # of connection points: 2
#     Edge 38, Type (0, 0), BuildingBlock: OJICUG_clean_linker_0, # of connection points: 2
#     Edge 39, Type (0, 0), BuildingBlock: OJICUG_clean_linker_0, # of connection points: 2
#     Edge 40, Type (0, 0), BuildingBlock: OJICUG_clean_linker_0, # of connection points: 2
#     Edge 41, Type (0, 0), BuildingBlock: OJICUG_clean_linker_0, # of connection points: 2
#     Edge 42, Type (0, 0), BuildingBlock: OJICUG_clean_linker_0, # of connection points: 2
#     Edge 43, Type (0, 0), BuildingBlock: OJICUG_clean_linker_0, # of connection points: 2
#     Edge 44, Type (0, 0), BuildingBlock: OJICUG_clean_linker_0, # of connection points: 2
#     Edge 45, Type (0, 0), BuildingBlock: OJICUG_clean_linker_0, # of connection points: 2
#     Edge 46, Type (0, 0), BuildingBlock: OJICUG_clean_linker_0, # of connection points: 2
#     Edge 47, Type (0, 0), BuildingBlock: OJICUG_clean_linker_0, # of connection points: 2
# Relax obj value: 0.101
# Max RMSD: 0.227
# Mean RMSD: 0.227
data_MOF--net-wjd--node1-HISSIN_clean_sbu_0--edge1-OJICUG_clean_linker_0
_symmetry_space_group_name_H-M    P1
_symmetry_Int_Tables_number       1
_symmetry_cell_setting            triclinic
loop_
_symmetry_equiv_pos_as_xyz
'x, y, z'
_cell_length_a     31.780773
_cell_length_b     31.928237
_cell_length_c     38.808452
_cell_angle_alpha  90.14687
_cell_angle_beta   89.812079
_cell_angle_gamma 120.06511
loop_
_atom_site_label
_atom_site_type_symbol
_atom_site_fract_x
_atom_site_fract_y
_atom_site_fract_z
_atom_type_partial_charge
Eu0 Eu 0.40639 0.20105 0.0997 0.0
Eu1 Eu 0.34186 0.09429 0.13545 0.0
C2 C 0.41073 0.18428 0.18161 0.0
C3 C 0.49581 0.33641 0.0868 0.0
C4 C 0.52169 0.3405 0.11708 0.0
C5 C 0.54191 0.4241 0.08071 0.0
C6 C 0.55778 0.38607 0.12889 0.0
C7 C 0.50598 0.37856 0.0689 0.0
C8 C 0.56855 0.42857 0.1108 0.0
C9 C 0.45684 0.28884 0.07438 0.0
O10 O 0.30503 0.13795 0.14752 0.0
O11 O 0.32837 0.18303 0.09844 0.0
C12 C 0.29974 0.16607 0.12539 0.0
O13 O 0.3845 0.14211 0.05817 0.0
O14 O 0.29286 0.04603 0.1753 0.0
O15 O 0.31026 1.01612 0.13095 0.0
O16 O 0.312 0.09326 0.08348 0.0
C17 C 0.34035 0.10406 0.05676 0.0
O18 O 0.46129 0.18269 0.11921 0.0
O19 O 0.41344 0.1 0.11725 0.0
O20 O 0.39582 0.13849 0.17574 0.0
O21 O 0.41486 0.27211 0.08957 0.0
O22 O 0.46804 0.25512 0.06947 0.0
O23 O 0.40846 0.21256 0.15788 0.0
C24 C 0.22875 0.97253 0.15181 0.0
C25 C 0.21304 0.94151 0.12303 0.0
C26 C 0.14392 0.9385 0.16928 0.0
C27 C 0.16353 0.90945 0.11748 0.0
C28 C 0.19355 0.9705 0.17494 0.0
C29 C 0.12833 0.9074 0.14056 0.0
C30 C 0.28144 1.00703 0.15743 0.0
C31 C 0.45679 0.13961 0.11787 0.0
H32 H 0.51396 0.30845 0.13158 0.0
H33 H 0.54959 0.45574 0.06574 0.0
H34 H 0.57714 0.38801 0.1523 0.0
H35 H 0.48619 0.37625 0.04561 0.0
H36 H 0.23898 0.94196 0.10465 0.0
H37 H 0.11781 0.93736 0.18782 0.0
H38 H 0.15279 0.88634 0.09493 0.0
H39 H 0.20434 0.9936 0.1975 0.0
Eu40 Eu 0.81673 0.72824 0.36368 0.0
Eu41 Eu 0.8476 0.65894 0.40831 0.0
C42 C 0.80739 0.72389 0.44529 0.0
C43 C 0.81845 0.84396 0.34056 0.0
C44 C 0.83712 0.86335 0.37319 0.0
C45 C 0.83516 0.92354 0.32176 0.0
C46 C 0.85438 0.91236 0.38013 0.0
C47 C 0.81773 0.8744 0.31488 0.0
C48 C 0.85364 0.94317 0.35453 0.0
C49 C 0.80195 0.7927 0.33289 0.0
O50 O 0.76629 0.61953 0.40638 0.0
O51 O 0.75335 0.65098 0.3568 0.0
C52 C 0.73901 0.61626 0.38009 0.0
O53 O 0.84371 0.69642 0.32408 0.0
O54 O 0.82876 0.59212 0.43578 0.0
O55 O 0.90404 0.64804 0.43208 0.0
O56 O 0.8387 0.63101 0.35317 0.0
C57 C 0.8441 0.65557 0.32466 0.0
O58 O 0.8923 0.77521 0.38603 0.0
O59 O 0.91456 0.71797 0.38303 0.0
O60 O 0.84008 0.70973 0.44717 0.0
O61 O 0.83603 0.78347 0.32403 0.0
O62 O 0.77149 0.76091 0.35475 0.0
O63 O 0.78596 0.72189 0.41622 0.0
C64 C 0.88642 0.56533 0.432 0.0
C65 C 0.85234 0.51647 0.4383 0.0
C66 C 0.94278 0.53998 0.41037 0.0
C67 C 0.86287 0.47993 0.43031 0.0
C68 C 0.93209 0.57676 0.41825 0.0
C69 C 0.908 0.49097 0.4159 0.0
C70 C 0.87374 0.6033 0.44071 0.0
C71 C 0.92638 0.76351 0.38336 0.0
H72 H 0.83867 0.84062 0.39326 0.0
H73 H 0.83355 0.94599 0.30153 0.0
H74 H 0.86896 0.92626 0.40546 0.0
H75 H 0.80381 0.86021 0.28947 0.0
H76 H 0.8172 0.50634 0.44944 0.0
H77 H 0.97787 0.54986 0.3993 0.0
H78 H 0.8355 0.44278 0.43568 0.0
H79 H 0.9595 0.61404 0.41338 0.0
Eu80 Eu 0.87247 0.20881 0.10084 0.0
Eu81 Eu 0.97986 0.25946 0.13802 0.0
C82 C 0.88714 0.23269 0.18279 0.0
C83 C 0.7362 0.16156 0.08262 0.0
C84 C 0.72928 0.20171 0.08376 0.0
C85 C 0.6499 0.10927 0.0958 0.0
C86 C 0.68328 0.19569 0.0908 0.0
C87 C 0.69593 0.1153 0.08858 0.0
C88 C 0.64285 0.14941 0.09712 0.0
C89 C 0.78453 0.16693 0.07465 0.0
O90 O 0.93997 0.17853 0.14896 0.0
O91 O 0.89654 0.1537 0.09922 0.0
C92 C 0.91445 0.14418 0.12648 0.0
O93 O 0.93094 0.24577 0.05887 0.0
O94 O 1.02612 0.26129 0.18028 0.0
O95 O 0.05829 0.30877 0.13644 0.0
O96 O 0.98807 0.23513 0.08589 0.0
C97 C 0.97318 0.24708 0.05839 0.0
O98 O 0.88628 0.28148 0.11816 0.0
O99 O 0.96983 0.32217 0.11907 0.0
O100 O 0.93195 0.2667 0.17664 0.0
O101 O 0.79987 0.14532 0.09535 0.0
O102 O 0.81966 0.20946 0.06513 0.0
O103 O 0.8609 0.20015 0.15926 0.0
C104 C 0.10007 0.27127 0.15902 0.0
C105 C 0.09492 0.24198 0.13047 0.0
C106 C 0.16779 0.26229 0.17874 0.0
C107 C 0.12645 0.22387 0.12566 0.0
C108 C 0.13647 0.28099 0.18331 0.0
C109 C 0.1634 0.23393 0.14963 0.0
C110 C 0.06625 0.28991 0.16375 0.0
C111 C 0.92812 0.3221 0.11765 0.0
H112 H 0.75934 0.23787 0.0791 0.0
H113 H 0.62001 0.07316 0.10081 0.0
H114 H 0.67939 0.22749 0.09081 0.0
H115 H 0.70009 0.08365 0.08773 0.0
H116 H 0.06635 0.23296 0.11186 0.0
H117 H 0.196 0.27077 0.1976 0.0
H118 H 0.12159 0.20153 0.10329 0.0
H119 H 0.14068 0.303 0.20574 0.0
Eu120 Eu 0.34362 0.09295 0.36968 0.0
Eu121 Eu 0.40533 0.20027 0.40665 0.0
C122 C 0.34191 0.1009 0.44893 0.0
C123 C 0.23151 0.97138 0.35174 0.0
C124 C 0.21654 0.93536 0.37718 0.0
C125 C 0.14605 0.9419 0.33841 0.0
C126 C 0.16711 0.90323 0.38324 0.0
C127 C 0.19559 0.97412 0.33232 0.0
C128 C 0.13114 0.90592 0.3639 0.0
C129 C 0.28423 1.00625 0.34616 0.0
O130 O 0.46189 0.18305 0.38848 0.0
O131 O 0.41554 0.1 0.38812 0.0
C132 C 0.45836 0.14032 0.38903 0.0
O133 O 0.39892 0.13865 0.33053 0.0
O134 O 0.41274 0.2714 0.41475 0.0
O135 O 0.46476 0.25527 0.43788 0.0
O136 O 0.40743 0.21116 0.34838 0.0
C137 C 0.41211 0.18402 0.32475 0.0
O138 O 0.30548 0.13572 0.35887 0.0
O139 O 0.32641 0.17854 0.40896 0.0
O140 O 0.38368 0.14222 0.44869 0.0
O141 O 0.29565 0.04576 0.32905 0.0
O142 O 0.31293 1.01469 0.37249 0.0
O143 O 0.31367 0.08844 0.42212 0.0
C144 C 0.49336 0.33631 0.41945 0.0
C145 C 0.52302 0.34011 0.39134 0.0
C146 C 0.53772 0.42427 0.42456 0.0
C147 C 0.56012 0.38562 0.3802 0.0
C148 C 0.50078 0.37876 0.43573 0.0
C149 C 0.56824 0.42841 0.39679 0.0
C150 C 0.45367 0.2887 0.43137 0.0
C151 C 0.29847 0.16206 0.38176 0.0
H152 H 0.24307 0.93209 0.39263 0.0
H153 H 0.11945 0.94463 0.32267 0.0
H154 H 0.15709 0.87641 0.40336 0.0
H155 H 0.20568 1.00117 0.31237 0.0
H156 H 0.51754 0.30786 0.37806 0.0
H157 H 0.54318 0.45615 0.43833 0.0
H158 H 0.58246 0.38728 0.35854 0.0
H159 H 0.47811 0.37671 0.45732 0.0
Eu160 Eu 0.84541 0.65789 0.1012 0.0
Eu161 Eu 0.81512 0.72776 0.14634 0.0
C162 C 0.84364 0.65584 0.1847 0.0
C163 C 0.88379 0.56386 0.07699 0.0
C164 C 0.92859 0.57495 0.09198 0.0
C165 C 0.86084 0.4786 0.07695 0.0
C166 C 0.93913 0.53807 0.09961 0.0
C167 C 0.85047 0.51527 0.0692 0.0
C168 C 0.90505 0.48927 0.0926 0.0
C169 C 0.8712 0.60187 0.06854 0.0
O170 O 0.88965 0.77477 0.1226 0.0
O171 O 0.91293 0.7182 0.12489 0.0
C172 C 0.92411 0.76357 0.12433 0.0
O173 O 0.83741 0.70812 0.06247 0.0
O174 O 0.83492 0.78317 0.18605 0.0
O175 O 0.76991 0.76038 0.15608 0.0
O176 O 0.78403 0.7213 0.09397 0.0
C177 C 0.80497 0.72258 0.06469 0.0
O178 O 0.7641 0.61925 0.10352 0.0
O179 O 0.75208 0.65062 0.15369 0.0
O180 O 0.84414 0.69714 0.18518 0.0
O181 O 0.82626 0.59082 0.07372 0.0
O182 O 0.90161 0.64659 0.07716 0.0
O183 O 0.83676 0.63045 0.15634 0.0
C184 C 0.81721 0.84356 0.1699 0.0
C185 C 0.83641 0.86281 0.13732 0.0
C186 C 0.83348 0.92319 0.18844 0.0
C187 C 0.85372 0.91176 0.13028 0.0
C188 C 0.816 0.8741 0.19542 0.0
C189 C 0.85249 0.94268 0.15572 0.0
C190 C 0.80072 0.79236 0.17765 0.0
C191 C 0.73721 0.61612 0.13015 0.0
H192 H 0.9554 0.61204 0.09804 0.0
H193 H 0.83407 0.44165 0.07046 0.0
H194 H 0.97348 0.54765 0.11168 0.0
H195 H 0.81605 0.50547 0.05712 0.0
H196 H 0.83833 0.83999 0.11738 0.0
H197 H 0.83148 0.94572 0.20854 0.0
H198 H 0.86872 0.92555 0.10499 0.0
H199 H 0.80166 0.86001 0.2208 0.0
Eu200 Eu 0.98183 0.26006 0.37076 0.0
Eu201 Eu 0.87463 0.21071 0.40863 0.0
C202 C 0.97557 0.24882 0.4505 0.0
C203 C 0.1011 0.26994 0.34911 0.0
C204 C 0.09496 0.23995 0.37734 0.0
C205 C 0.16853 0.26021 0.32939 0.0
C206 C 0.12579 0.22103 0.38195 0.0
C207 C 0.13785 0.27964 0.32498 0.0
C208 C 0.16311 0.23106 0.35815 0.0
C209 C 0.06793 0.28932 0.34454 0.0
O210 O 0.88909 0.28333 0.39078 0.0
O211 O 0.97261 0.32344 0.38954 0.0
C212 C 0.9311 0.32375 0.39101 0.0
O213 O 0.93384 0.26692 0.33223 0.0
O214 O 0.82187 0.21276 0.44399 0.0
O215 O 0.80202 0.14754 0.41499 0.0
O216 O 0.8626 0.2011 0.35035 0.0
C217 C 0.88881 0.23312 0.32652 0.0
O218 O 0.94143 0.179 0.36037 0.0
O219 O 0.89793 0.15501 0.41027 0.0
O220 O 0.93345 0.24778 0.45026 0.0
O221 O 1.0276 0.26103 0.32821 0.0
O222 O 0.06042 0.30864 0.37191 0.0
O223 O 0.99012 0.23633 0.42295 0.0
C224 C 0.73833 0.16445 0.42673 0.0
C225 C 0.7303 0.20389 0.42828 0.0
C226 C 0.65313 0.11258 0.41042 0.0
C227 C 0.68438 0.19777 0.42095 0.0
C228 C 0.69909 0.11869 0.41791 0.0
C229 C 0.64507 0.15208 0.41169 0.0
C230 C 0.78666 0.16997 0.43503 0.0
C231 C 0.91576 0.14501 0.38304 0.0
H232 H 0.06615 0.23102 0.39585 0.0
H233 H 0.19707 0.26875 0.31068 0.0
H234 H 0.12012 0.19812 0.40405 0.0
H235 H 0.14285 0.30222 0.3028 0.0
H236 H 0.75942 0.23959 0.4353 0.0
H237 H 0.62413 0.07696 0.40317 0.0
H238 H 0.67962 0.22897 0.423 0.0
H239 H 0.70397 0.08748 0.41674 0.0
Eu240 Eu 0.11939 0.33193 0.64708 0.0
Eu241 Eu 0.21764 0.40225 0.60112 0.0
C242 C 0.11256 0.33187 0.56466 0.0
C243 C 1.00578 0.21662 0.67145 0.0
C244 C 1.00513 0.19782 0.63858 0.0
C245 C 0.94225 0.13669 0.68966 0.0
C246 C 0.97315 0.14894 0.63124 0.0
C247 C 0.97417 0.18573 0.69693 0.0
C248 C 0.94129 0.11763 0.65668 0.0
C249 C 1.04122 0.26761 0.67957 0.0
O250 O 0.16651 0.43112 0.59728 0.0
O251 O 0.132 0.40924 0.65073 0.0
C252 C 0.14566 0.43861 0.62386 0.0
O253 O 0.1793 0.36465 0.68558 0.0
O254 O 0.28338 0.41572 0.57293 0.0
O255 O 0.26586 0.47271 0.57811 0.0
O256 O 0.23519 0.4323 0.65591 0.0
C257 C 0.21856 0.40732 0.68463 0.0
O258 O 0.14914 0.28604 0.62472 0.0
O259 O 0.22858 0.34487 0.62595 0.0
O260 O 0.16035 0.35042 0.56205 0.0
O261 O 0.0849 0.27642 0.68679 0.0
O262 O 1.04195 0.3001 0.65885 0.0
O263 O 0.09189 0.32997 0.59421 0.0
C264 C 0.3499 0.49804 0.57656 0.0
C265 C 0.36673 0.54692 0.56906 0.0
C266 C 0.43051 0.52156 0.59947 0.0
C267 C 0.41422 0.58265 0.57717 0.0
C268 C 0.38251 0.48556 0.59154 0.0
C269 C 0.44668 0.5707 0.59288 0.0
C270 C 0.29841 0.46164 0.56845 0.0
C271 C 0.19537 0.29895 0.62669 0.0
H272 H 1.02974 0.22092 0.61865 0.0
H273 H 0.91792 0.11385 0.70978 0.0
H274 H 0.97397 0.1355 0.60574 0.0
H275 H 0.97433 0.19949 0.72248 0.0
H276 H 0.34283 0.55768 0.55712 0.0
H277 H 0.45452 0.5111 0.61156 0.0
H278 H 0.42557 0.61994 0.5711 0.0
H279 H 0.37085 0.44819 0.59749 0.0
Eu280 Eu 0.23599 0.85723 0.90919 0.0
Eu281 Eu 0.27974 0.96611 0.8761 0.0
C282 C 0.25866 0.87787 0.82781 0.0
C283 C 0.18499 0.71946 0.92143 0.0
C284 C 0.21505 0.71152 0.89887 0.0
C285 C 0.12944 0.63238 0.92368 0.0
C286 C 0.20268 0.6642 0.88926 0.0
C287 C 0.14182 0.67948 0.93326 0.0
C288 C 0.16003 0.62388 0.90201 0.0
C289 C 0.19724 0.76858 0.9331 0.0
O290 O 0.19914 0.92339 0.86352 0.0
O291 O 0.17611 0.87524 0.91115 0.0
C292 C 0.1651 0.89371 0.88492 0.0
O293 O 0.2722 0.91429 0.95196 0.0
O294 O 0.28301 1.01614 0.83649 0.0
O295 O 0.32457 0.0443 0.88352 0.0
O296 O 0.2494 0.96442 0.92818 0.0
C297 C 0.2659 0.95199 0.95451 0.0
O298 O 0.31006 0.87703 0.88993 0.0
O299 O 0.3451 0.95959 0.89409 0.0
O300 O 0.28995 0.92326 0.83485 0.0
O301 O 0.24302 0.80124 0.9368 0.0
O302 O 0.17227 0.78645 0.91941 0.0
O303 O 0.22732 0.84844 0.85089 0.0
C304 C 0.29002 0.0888 0.85979 0.0
C305 C 0.31773 0.13203 0.87817 0.0
C306 C 0.22853 0.11206 0.8503 0.0
C307 C 0.30109 0.16484 0.88267 0.0
C308 C 0.2451 0.07909 0.84596 0.0
C309 C 0.25636 0.15552 0.86865 0.0
C310 C 0.30833 0.05437 0.8557 0.0
C311 C 0.34876 0.92011 0.89242 0.0
H312 H 0.24838 0.74178 0.88909 0.0
H313 H 0.09596 0.60247 0.93359 0.0
H314 H 0.22737 0.65915 0.8728 0.0
H315 H 0.11775 0.68466 0.95034 0.0
H316 H 0.35235 0.14044 0.88924 0.0
H317 H 0.19426 0.1038 0.83874 0.0
H318 H 0.32323 0.1974 0.89746 0.0
H319 H 0.22269 0.04608 0.83167 0.0
Eu320 Eu 0.75278 0.80076 0.63802 0.0
Eu321 Eu 0.69489 0.8501 0.60117 0.0
C322 C 0.75685 0.81178 0.55842 0.0
C323 C 0.86245 0.79114 0.65857 0.0
C324 C 0.88648 0.82116 0.6303 0.0
C325 C 0.93981 0.80157 0.67822 0.0
C326 C 0.93644 0.84044 0.62563 0.0
C327 C 0.8895 0.78177 0.68267 0.0
C328 C 0.96373 0.83077 0.64943 0.0
C329 C 0.80971 0.77148 0.66329 0.0
O330 O 0.63639 0.77742 0.61912 0.0
O331 O 0.67965 0.73738 0.61963 0.0
C332 C 0.63779 0.73703 0.61859 0.0
O333 O 0.69801 0.79345 0.67708 0.0
O334 O 0.63895 0.84775 0.56703 0.0
O335 O 0.68707 0.91378 0.59423 0.0
O336 O 0.69212 0.85898 0.65959 0.0
C337 C 0.68663 0.82693 0.68321 0.0
O338 O 0.79356 0.88159 0.64909 0.0
O339 O 0.77431 0.90587 0.59949 0.0
O340 O 0.71559 0.81245 0.55924 0.0
O341 O 0.79764 0.79936 0.68011 0.0
O342 O 0.78288 0.75255 0.6359 0.0
O343 O 0.78449 0.82505 0.58562 0.0
C344 C 0.60734 0.89849 0.58352 0.0
C345 C 0.5791 0.87726 0.61309 0.0
C346 C 0.55714 0.93438 0.57055 0.0
C347 C 0.53994 0.88421 0.62116 0.0
C348 C 0.59628 0.92737 0.56251 0.0
C349 C 0.52806 0.91255 0.59985 0.0
C350 C 0.64884 0.89162 0.57461 0.0
C351 C 0.802 0.91579 0.62671 0.0
H352 H 0.86659 0.82986 0.61182 0.0
H353 H 0.95981 0.79329 0.69692 0.0
H354 H 0.95384 0.86337 0.6035 0.0
H355 H 0.87177 0.75918 0.70488 0.0
H356 H 0.58728 0.85522 0.62988 0.0
H357 H 0.54893 0.95589 0.55327 0.0
H358 H 0.51895 0.86734 0.64419 0.0
H359 H 0.61775 0.94428 0.53964 0.0
Eu360 Eu 0.21501 0.40093 0.90752 0.0
Eu361 Eu 0.11746 0.32971 0.86127 0.0
C362 C 0.21708 0.40564 0.82414 0.0
C363 C 0.34681 0.49684 0.93291 0.0
C364 C 0.36457 0.5451 0.94288 0.0
C365 C 0.42674 0.52088 0.90817 0.0
C366 C 0.41223 0.58087 0.93511 0.0
C367 C 0.37857 0.48488 0.91576 0.0
C368 C 0.44386 0.56952 0.91726 0.0
C369 C 0.2951 0.46066 0.94055 0.0
O370 O 0.14688 0.28453 0.88475 0.0
O371 O 0.22629 0.34337 0.88319 0.0
C372 C 0.19311 0.29744 0.88301 0.0
O373 O 0.1575 0.34912 0.94646 0.0
O374 O 0.08393 0.27356 0.82186 0.0
O375 O 1.0403 0.29764 0.84878 0.0
O376 O 0.08912 0.32748 0.91409 0.0
C377 C 0.10967 0.32994 0.94371 0.0
O378 O 0.1628 0.4285 0.91128 0.0
O379 O 0.12952 0.40665 0.85756 0.0
O380 O 0.17833 0.36254 0.82317 0.0
O381 O 0.28013 0.41468 0.93632 0.0
O382 O 0.26293 0.47178 0.93022 0.0
O383 O 0.2328 0.4309 0.85281 0.0
C384 C 1.00455 0.21395 0.83697 0.0
C385 C 1.00397 0.19561 0.86993 0.0
C386 C 0.94081 0.13384 0.81931 0.0
C387 C 0.97195 0.14686 0.87758 0.0
C388 C 0.97279 0.18274 0.81174 0.0
C389 C 0.93995 0.11522 0.85237 0.0
C390 C 1.04007 0.26481 0.82856 0.0
C391 C 0.14224 0.43575 0.88456 0.0
H392 H 0.34123 0.55537 0.95643 0.0
H393 H 0.4501 0.51092 0.89435 0.0
H394 H 0.42433 0.61774 0.94305 0.0
H395 H 0.36608 0.44796 0.90779 0.0
H396 H 1.02869 0.21896 0.88968 0.0
H397 H 0.91637 0.11074 0.79937 0.0
H398 H 0.97286 0.13377 0.90313 0.0
H399 H 0.97288 0.19615 0.78613 0.0
Eu400 Eu 0.28342 0.9695 0.63787 0.0
Eu401 Eu 0.23652 0.86031 0.60244 0.0
C402 C 0.27316 0.9584 0.55836 0.0
C403 C 0.29289 0.09125 0.65588 0.0
C404 C 0.32138 0.13462 0.63782 0.0
C405 C 0.23066 0.11422 0.66328 0.0
C406 C 0.30476 0.1673 0.63244 0.0
C407 C 0.24723 0.0814 0.66853 0.0
C408 C 0.25921 0.15776 0.6452 0.0
C409 C 0.31092 0.05661 0.66069 0.0
O410 O 0.31088 0.87852 0.61972 0.0
O411 O 0.34841 0.96172 0.62037 0.0
C412 C 0.35045 0.92125 0.61928 0.0
O413 O 0.29294 0.92464 0.67745 0.0
O414 O 0.24022 0.80372 0.57276 0.0
O415 O 0.17177 0.78926 0.59508 0.0
O416 O 0.22817 0.85157 0.66086 0.0
C417 C 0.26049 0.87947 0.68399 0.0
O418 O 0.20218 0.92696 0.64878 0.0
O419 O 0.18021 0.88291 0.59923 0.0
O420 O 0.27252 0.91668 0.55925 0.0
O421 O 0.28365 1.0173 0.67838 0.0
O422 O 0.33012 0.04803 0.6337 0.0
O423 O 0.259 0.97299 0.58502 0.0
C424 C 0.18398 0.72204 0.58956 0.0
C425 C 0.21351 0.71457 0.61275 0.0
C426 C 0.13139 0.6346 0.58498 0.0
C427 C 0.20235 0.66732 0.62159 0.0
C428 C 0.14255 0.6816 0.57621 0.0
C429 C 0.16146 0.62659 0.60739 0.0
C430 C 0.19496 0.77115 0.57883 0.0
C431 C 0.16879 0.90017 0.62605 0.0
H432 H 0.35658 0.1432 0.62762 0.0
H433 H 0.19574 0.10573 0.67392 0.0
H434 H 0.32757 0.1999 0.61789 0.0
H435 H 0.22416 0.04833 0.68253 0.0
H436 H 0.2455 0.74518 0.62367 0.0
H437 H 0.09921 0.60438 0.57393 0.0
H438 H 0.2266 0.66273 0.63867 0.0
H439 H 0.11888 0.68637 0.55861 0.0
Eu440 Eu 0.69354 0.84881 0.90929 0.0
Eu441 Eu 0.75061 0.79857 0.87204 0.0
C442 C 0.68538 0.82568 0.82714 0.0
C443 C 0.60473 0.89616 0.92773 0.0
C444 C 0.55756 0.85608 0.92486 0.0
C445 C 0.57151 0.94922 0.9163 0.0
C446 C 0.51791 0.86251 0.91787 0.0
C447 C 0.61117 0.94275 0.92348 0.0
C448 C 0.52421 0.90917 0.91329 0.0
C449 C 0.64735 0.89038 0.93572 0.0
O450 O 0.79189 0.87941 0.86105 0.0
O451 O 0.77305 0.90421 0.9108 0.0
C452 C 0.80064 0.9138 0.88344 0.0
O453 O 0.71372 0.8109 0.95104 0.0
O454 O 0.79579 0.79727 0.82987 0.0
O455 O 0.77966 0.74946 0.87352 0.0
O456 O 0.78237 0.82266 0.92441 0.0
C457 C 0.7548 0.80991 0.95173 0.0
O458 O 0.6346 0.77642 0.89133 0.0
O459 O 0.67706 0.7356 0.89039 0.0
O460 O 0.69619 0.7918 0.83311 0.0
O461 O 0.68489 0.9123 0.91532 0.0
O462 O 0.63927 0.84758 0.94478 0.0
O463 O 0.69113 0.85778 0.8509 0.0
C464 C 0.85961 0.78743 0.85116 0.0
C465 C 0.8831 0.81477 0.88059 0.0
C466 C 0.93727 0.7991 0.83064 0.0
C467 C 0.93285 0.83316 0.88543 0.0
C468 C 0.88712 0.78006 0.82604 0.0
C469 C 0.96056 0.82544 0.8606 0.0
C470 C 0.80703 0.76865 0.84633 0.0
C471 C 0.63545 0.73575 0.8917 0.0
H472 H 0.55113 0.81965 0.92815 0.0
H473 H 0.57812 0.98564 0.91265 0.0
H474 H 0.48209 0.8307 0.91652 0.0
H475 H 0.64708 0.97435 0.92566 0.0
H476 H 0.86295 0.82212 0.89983 0.0
H477 H 0.95765 0.79247 0.81109 0.0
H478 H 0.9498 0.85393 0.9085 0.0
H479 H 0.86985 0.75966 0.80291 0.0
C480 C 0.21848 0.21984 0.11092 0.0
C481 C 0.19766 0.21559 0.14365 0.0
H482 H 0.26679 0.20765 0.07954 0.0
C483 C 0.20967 0.19363 0.17027 0.0
H484 H 0.21029 0.23693 0.08995 0.0
C485 C 0.2418 0.17628 0.1642 0.0
C486 C 0.26313 0.18122 0.13153 0.0
H487 H 0.19391 0.1895 0.19569 0.0
H488 H 0.25061 0.15984 0.18527 0.0
C489 C 0.251 0.20314 0.10499 0.0
C490 C 0.06337 0.82126 0.37551 0.0
C491 C 0.07848 0.87021 0.36962 0.0
H492 H 1.00433 0.74986 0.38453 0.0
C493 C 1.04289 0.88425 0.36898 0.0
H494 H 0.08946 0.80887 0.37568 0.0
C495 C 0.99349 0.85006 0.37405 0.0
C496 C 0.97859 0.80103 0.37961 0.0
H497 H 0.05325 0.92173 0.36481 0.0
H498 H 0.967 0.86192 0.37319 0.0
C499 C 1.01427 0.78725 0.38039 0.0
C500 C 0.87533 0.05686 0.10882 0.0
C501 C 0.90156 0.09325 0.13334 0.0
H502 H 0.83897 0.98131 0.0967 0.0
C503 C 0.91269 0.07988 0.16506 0.0
H504 H 0.86592 0.06568 0.08415 0.0
C505 C 0.89712 0.03121 0.17229 0.0
C506 C 0.87027 0.99474 0.14791 0.0
H507 H 0.93273 0.10688 0.18459 0.0
H508 H 0.90624 1.02218 0.19699 0.0
C509 C 0.85999 1.00835 0.11598 0.0
C510 C 0.24145 0.17327 0.34296 0.0
C511 C 0.26167 0.17695 0.37581 0.0
H512 H 0.19479 0.18788 0.31149 0.0
C513 C 0.24856 0.19778 0.40271 0.0
H514 H 0.25103 0.15771 0.32162 0.0
C515 C 0.21637 0.21484 0.39693 0.0
C516 C 0.19677 0.212 0.36401 0.0
H517 H 0.26349 0.20131 0.4283 0.0
H518 H 0.20757 0.23121 0.41816 0.0
C519 C 0.2096 0.19095 0.33707 0.0
C520 C 0.06151 0.82379 0.12564 0.0
C521 C 0.07581 0.87151 0.13532 0.0
H522 H 1.00295 0.7528 0.11454 0.0
C523 C 1.0396 0.88409 0.14035 0.0
H524 H 0.0883 0.81267 0.12193 0.0
C525 C 0.99024 0.84957 0.13592 0.0
C526 C 0.97612 0.80164 0.12684 0.0
H527 H 0.04944 0.92067 0.14756 0.0
H528 H 0.96317 0.86017 0.14029 0.0
C529 C 1.01242 0.78934 0.12159 0.0
C530 C 0.86065 1.00918 0.39395 0.0
C531 C 0.87141 0.9953 0.36219 0.0
H532 H 0.86622 0.06682 0.42546 0.0
C533 C 0.89875 0.03157 0.33781 0.0
H534 H 0.83925 0.9823 0.41321 0.0
C535 C 0.91434 0.0803 0.34486 0.0
C536 C 0.90272 0.09396 0.3764 0.0
H537 H 0.90827 1.02232 0.31326 0.0
H538 H 0.93478 0.10714 0.32533 0.0
C539 C 0.876 0.05778 0.40093 0.0
C540 C 0.27552 0.24356 0.64141 0.0
C541 C 0.2422 0.19353 0.64017 0.0
H542 H 0.28714 0.3154 0.6381 0.0
C543 C 0.1928 0.17835 0.63427 0.0
H544 H 0.31362 0.25693 0.64658 0.0
C545 C 0.17734 0.21225 0.62975 0.0
C546 C 0.2109 0.26221 0.63087 0.0
H547 H 0.16603 0.14021 0.63272 0.0
H548 H 0.13913 0.19928 0.62528 0.0
C549 C 0.26017 0.27729 0.63673 0.0
C550 C 0.07848 0.85422 0.90479 0.0
C551 C 0.11328 0.87862 0.87884 0.0
H552 H 1.00336 0.81833 0.91929 0.0
C553 C 0.09753 0.88594 0.84673 0.0
H554 H 0.08923 0.84782 0.92979 0.0
C555 C 0.04796 0.86847 0.8406 0.0
C556 C 1.01327 0.84399 0.86661 0.0
H557 H 0.12334 0.90434 0.82612 0.0
H558 H 1.03681 0.87444 0.81561 0.0
C559 C 1.0292 0.83738 0.89881 0.0
C560 C 0.84936 1.00338 0.60953 0.0
C561 C 0.83988 0.96689 0.6337 0.0
H562 H 0.88799 0.07909 0.5979 0.0
C563 C 0.86498 0.98026 0.66525 0.0
H564 H 0.83065 0.99457 0.58501 0.0
C565 C 0.89798 1.02898 0.67267 0.0
C566 C 0.90694 0.06554 0.64866 0.0
H567 H 0.85858 0.95319 0.6845 0.0
H568 H 0.91664 0.03799 0.69722 0.0
C569 C 0.88246 0.05198 0.61688 0.0
C570 C 0.25794 0.27539 0.8749 0.0
C571 C 0.20855 0.26059 0.87985 0.0
H572 H 0.3114 0.25448 0.86675 0.0
C573 C 0.1747 0.21072 0.88112 0.0
H574 H 0.28511 0.31344 0.87349 0.0
C575 C 0.19001 0.17659 0.87759 0.0
C576 C 0.23953 0.1915 0.8726 0.0
H577 H 0.13638 0.19801 0.88491 0.0
H578 H 0.16305 0.13852 0.87918 0.0
C579 C 0.27316 0.24143 0.87123 0.0
C580 C 0.08317 0.86441 0.60497 0.0
C581 C 0.11699 0.88547 0.63187 0.0
H582 H 1.00864 0.83065 0.58948 0.0
C583 C 0.10017 0.8894 0.66464 0.0
H584 H 0.09481 0.86072 0.57944 0.0
C585 C 0.05046 0.87161 0.67048 0.0
C586 C 1.01667 0.85021 0.64356 0.0
H587 H 0.12522 0.90517 0.68597 0.0
H588 H 1.03847 0.87478 0.69602 0.0
C589 C 1.03373 0.84726 0.61069 0.0
C590 C 0.88133 0.05008 0.89263 0.0
C591 C 0.90562 0.06324 0.8607 0.0
H592 H 0.82967 0.99308 0.92489 0.0
C593 C 0.89649 1.02638 0.83681 0.0
H594 H 0.88699 0.07743 0.91153 0.0
C595 C 0.86349 0.97776 0.8445 0.0
C596 C 0.83858 0.96479 0.87621 0.0
H597 H 0.91499 0.03507 0.81215 0.0
H598 H 0.85694 0.95046 0.82533 0.0
C599 C 0.84824 1.00158 0.90026 0.0
C600 C 0.40488 0.22392 0.27156 0.0
C601 C 0.42658 0.20127 0.28924 0.0
H602 H 0.38328 0.23687 0.22209 0.0
C603 C 0.45314 0.18449 0.27066 0.0
H604 H 0.38388 0.23675 0.28544 0.0
C605 C 0.45277 0.18453 0.23483 0.0
C606 C 0.42591 0.20142 0.21701 0.0
H607 H 0.47046 0.16722 0.28382 0.0
H608 H 0.46978 0.16726 0.2211 0.0
C609 C 0.40454 0.224 0.2354 0.0
C610 C 0.80749 0.60483 0.27279 0.0
C611 C 0.84941 0.6378 0.29088 0.0
H612 H 0.7732 0.58367 0.22319 0.0
C613 C 0.89263 0.6664 0.27252 0.0
H614 H 0.77344 0.58341 0.28641 0.0
C615 C 0.89247 0.66664 0.23653 0.0
C616 C 0.84911 0.6382 0.2184 0.0
H617 H 0.92507 0.69286 0.28591 0.0
H618 H 0.9248 0.69323 0.22305 0.0
C619 C 0.80735 0.60501 0.23662 0.0
C620 C 0.85008 0.18516 0.2367 0.0
C621 C 0.86996 0.2291 0.21857 0.0
H622 H 0.83985 0.15177 0.28647 0.0
C623 C 0.88464 0.27216 0.23689 0.0
H624 H 0.83902 0.15156 0.22309 0.0
C625 C 0.88518 0.27229 0.27277 0.0
C626 C 0.87098 0.22935 0.29101 0.0
H627 H 0.89989 0.30646 0.22346 0.0
H628 H 0.9008 0.30668 0.28618 0.0
C629 C 0.85058 0.18528 0.27292 0.0
C630 C 0.22886 0.45679 0.73655 0.0
C631 C 0.24155 0.42675 0.71817 0.0
H632 H 0.21255 0.47476 0.78634 0.0
C633 C 0.25968 0.40118 0.73627 0.0
H634 H 0.21349 0.47574 0.72317 0.0
C635 C 0.259 0.40049 0.77227 0.0
C636 C 0.24031 0.42547 0.79067 0.0
H637 H 0.2686 0.37693 0.72267 0.0
H638 H 0.26751 0.37581 0.78552 0.0
C639 C 0.22827 0.45617 0.77273 0.0
C640 C 0.30143 0.88123 0.77393 0.0
C641 C 0.25735 0.86242 0.79194 0.0
H642 H 0.33659 0.89996 0.72485 0.0
C643 C 0.21334 0.8386 0.77369 0.0
H644 H 0.33579 0.89937 0.78754 0.0
C645 C 0.21379 0.83899 0.73752 0.0
C646 C 0.25825 0.86319 0.71969 0.0
H647 H 0.17893 0.82414 0.78716 0.0
H648 H 0.17971 0.82484 0.72379 0.0
C649 C 0.30188 0.88156 0.7381 0.0
C650 C 0.64398 0.78686 0.73701 0.0
C651 C 0.67253 0.83012 0.71893 0.0
H652 H 0.62477 0.75204 0.78612 0.0
C653 C 0.69616 0.87397 0.73729 0.0
H654 H 0.62527 0.75262 0.7234 0.0
C655 C 0.69588 0.87364 0.77353 0.0
C656 C 0.67198 0.82945 0.79142 0.0
H657 H 0.71884 0.90772 0.72388 0.0
H658 H 0.71833 0.90715 0.78728 0.0
C659 C 0.64371 0.78653 0.77289 0.0
C660 C 0.25489 1.00349 0.99737 0.0
C661 C 0.28462 0.98675 0.98353 0.0
H662 H 0.24951 0.05394 0.03093 0.0
C663 C 0.33425 1.01099 0.99233 0.0
H664 H 0.21687 0.98638 0.99027 0.0
C665 C 0.35361 0.05132 0.0146 0.0
C666 C 0.32345 0.0676 0.02866 0.0
H667 H 0.35832 0.99983 0.98106 0.0
H668 H 0.39171 0.06892 0.02149 0.0
C669 C 0.27384 0.04281 0.02005 0.0
C670 C 0.82319 0.76174 0.50486 0.0
C671 C 0.79422 0.74469 0.47525 0.0
H672 H 0.83481 0.79702 0.55372 0.0
C673 C 0.7531 0.75069 0.47305 0.0
H674 H 0.85522 0.75825 0.50739 0.0
C675 C 0.74133 0.77309 0.4995 0.0
C676 C 0.77045 0.79053 0.52898 0.0
H677 H 0.72966 0.73804 0.45068 0.0
H678 H 0.70926 0.77649 0.49688 0.0
C679 C 0.81156 0.78448 0.53128 0.0
C680 C 0.08968 0.29766 0.00478 0.0
C681 C 0.07597 0.30996 0.97385 0.0
H682 H 0.06798 0.26748 0.05523 0.0
C683 C 1.02769 0.30076 0.97082 0.0
H684 H 0.12621 0.30386 0.00802 0.0
C685 C 0.99412 0.27986 0.99782 0.0
C686 C 1.00759 0.26708 0.02863 0.0
H687 H 1.01555 0.30986 0.94744 0.0
H688 H 0.95767 0.27385 0.99454 0.0
C689 C 0.05589 0.27629 0.03174 0.0
C690 C 0.29702 1.01478 0.46937 0.0
C691 C 0.32766 0.06447 0.47696 0.0
H692 H 0.25683 0.94189 0.48881 0.0
C693 C 0.34315 0.07788 0.51098 0.0
H694 H 0.28479 1.00301 0.44327 0.0
C695 C 0.32632 0.04273 0.53702 0.0
C696 C 0.29483 0.99328 0.52952 0.0
H697 H 0.36682 0.11557 0.51765 0.0
H698 H 0.33749 0.05437 0.5633 0.0
C699 C 0.28125 0.9795 0.4953 0.0
C700 C 0.74981 0.74773 0.03665 0.0
C701 C 0.79175 0.74309 0.03478 0.0
H702 H 0.70538 0.77239 0.01254 0.0
C703 C 0.82169 0.76148 0.00566 0.0
H704 H 0.72566 0.734 0.05868 0.0
C705 C 0.81021 0.78423 0.97935 0.0
C706 C 0.76825 0.78888 0.98123 0.0
H707 H 0.85444 0.75915 1.00347 0.0
H708 H 0.83435 0.79798 0.95737 0.0
C709 C 0.73815 0.77011 0.01025 0.0
C710 C 1.03086 0.3035 0.53764 0.0
C711 C 0.07891 0.31198 0.53454 0.0
H712 H 0.9609 0.27708 0.51423 0.0
C713 C 0.09225 0.29892 0.50362 0.0
H714 H 1.01897 0.31319 0.56099 0.0
C715 C 0.05829 0.2775 0.47682 0.0
C716 C 1.01021 0.26896 0.48006 0.0
H717 H 0.12857 0.30455 0.50031 0.0
H718 H 0.07008 0.26806 0.45334 0.0
C719 C 0.99715 0.28253 0.51083 0.0
C720 C 0.59038 0.17901 0.12435 0.0
C721 C 0.5939 0.14354 0.10504 0.0
H722 H 0.5447 0.20504 0.14379 0.0
C723 C 0.55049 0.10362 0.09272 0.0
H724 H 0.62249 0.2095 0.13522 0.0
C725 C 0.50522 0.10056 0.09832 0.0
C726 C 0.50248 0.13754 0.11608 0.0
H727 H 0.55156 0.07563 0.07761 0.0
H728 H 0.47279 0.0705 0.08738 0.0
C729 C 0.54552 0.1762 0.12957 0.0
C730 C 0.69677 0.52713 0.37437 0.0
C731 C 0.69348 0.56933 0.3763 0.0
H732 H 0.66041 0.45013 0.37922 0.0
C733 C 0.6478 0.56493 0.3819 0.0
H734 H 0.73181 0.52965 0.37076 0.0
C735 C 0.60654 0.51904 0.38717 0.0
C736 C 0.61024 0.47676 0.38682 0.0
H737 H 0.6445 0.59698 0.38424 0.0
H738 H 0.57201 0.5168 0.39253 0.0
C739 C 0.65575 0.48148 0.3793 0.0
C740 C 0.96514 0.41132 0.10245 0.0
C741 C 0.92607 0.36772 0.11495 0.0
H742 H 0.98931 0.48407 0.08528 0.0
C743 C 0.882 0.3663 0.1225 0.0
H744 H 0.99954 0.41371 0.09629 0.0
C745 C 0.87617 0.40613 0.11626 0.0
C746 C 0.91412 0.44897 0.10213 0.0
H747 H 0.8512 0.33378 0.13269 0.0
H748 H 0.84137 0.40304 0.12213 0.0
C749 C 0.95923 0.4516 0.09612 0.0
C750 C 0.50714 0.101 0.407 0.0
C751 C 0.50467 0.13939 0.3914 0.0
H752 H 0.55317 0.07508 0.42642 0.0
C753 C 0.54826 0.1801 0.38054 0.0
H754 H 0.47431 0.06929 0.41587 0.0
C755 C 0.59319 0.18333 0.38623 0.0
C756 C 0.59626 0.14619 0.40335 0.0
H757 H 0.5478 0.21015 0.368 0.0
H758 H 0.62568 0.2154 0.37739 0.0
C759 C 0.55246 0.10443 0.41304 0.0
C760 C 0.65348 0.48177 0.13327 0.0
C761 C 0.60931 0.47699 0.12185 0.0
H762 H 0.7284 0.53013 0.14546 0.0
C763 C 0.60605 0.5193 0.11855 0.0
H764 H 0.65777 0.45033 0.13572 0.0
C765 C 0.64675 0.56524 0.1245 0.0
C766 C 0.69136 0.56968 0.13395 0.0
H767 H 0.57248 0.51703 0.11021 0.0
H768 H 0.64413 0.59725 0.11963 0.0
C769 C 0.69401 0.52753 0.139 0.0
C770 C 0.88024 0.40865 0.39084 0.0
C771 C 0.91742 0.45087 0.40622 0.0
H772 H 0.85588 0.33667 0.37352 0.0
C773 C 0.96196 0.45295 0.4134 0.0
H774 H 0.84597 0.40602 0.38404 0.0
C775 C 0.96793 0.41267 0.40706 0.0
C776 C 0.92947 0.36961 0.39342 0.0
H777 H 0.99144 0.48492 0.42522 0.0
H778 H 1.00174 0.41454 0.41421 0.0
C779 C 0.88612 0.36879 0.38462 0.0
C780 C 0.15901 0.56095 0.64619 0.0
C781 C 0.1519 0.57613 0.61364 0.0
H782 H 0.16105 0.50463 0.6755 0.0
C783 C 0.13734 0.54303 0.58613 0.0
H784 H 0.16986 0.58528 0.66806 0.0
C785 C 0.13215 0.49723 0.59048 0.0
C786 C 0.14088 0.48261 0.62253 0.0
H787 H 0.13209 0.55325 0.56061 0.0
H788 H 0.12305 0.47373 0.5682 0.0
C789 C 0.15322 0.51449 0.65064 0.0
C790 C 0.4356 0.95792 0.91346 0.0
C791 C 0.39656 0.92222 0.89432 0.0
H792 H 0.50601 0.9814 0.93525 0.0
C793 C 0.40143 0.88459 0.87954 0.0
H794 H 0.43281 0.98712 0.92542 0.0
C795 C 0.44326 0.88147 0.88479 0.0
C796 C 0.48149 0.91554 0.90543 0.0
H797 H 0.3723 0.85677 0.86427 0.0
H798 H 0.44526 0.85181 0.87289 0.0
C799 C 0.47755 0.9545 0.91908 0.0
C800 C 0.5852 0.64812 0.60242 0.0
C801 C 0.59004 0.69116 0.61621 0.0
H802 H 0.53596 0.576 0.58399 0.0
C803 C 0.54747 0.69199 0.62511 0.0
H804 H 0.61716 0.64624 0.59523 0.0
C805 C 0.50153 0.65229 0.61869 0.0
C806 C 0.49631 0.61021 0.6031 0.0
H807 H 0.5495 0.72405 0.63634 0.0
H808 H 0.46983 0.65497 0.62537 0.0
C809 C 0.53869 0.60794 0.59596 0.0
C810 C 0.15804 0.55877 0.86281 0.0
C811 C 0.14924 0.57319 0.8952 0.0
H812 H 0.16114 0.5029 0.83346 0.0
C813 C 0.13219 0.53921 0.92215 0.0
H814 H 0.17081 0.58383 0.84138 0.0
C815 C 0.1265 0.49326 0.91752 0.0
C816 C 0.1372 0.47949 0.88574 0.0
H817 H 0.12556 0.54887 0.94754 0.0
H818 H 0.1157 0.46904 0.93944 0.0
C819 C 0.15177 0.51219 0.85806 0.0
C820 C 0.44101 0.96293 0.6063 0.0
C821 C 0.39771 0.9219 0.61711 0.0
H822 H 0.51622 0.99247 0.59246 0.0
C823 C 0.39867 0.87901 0.62376 0.0
H824 H 0.44164 0.99648 0.60086 0.0
C825 C 0.44098 0.8766 0.61886 0.0
C826 C 0.48402 0.91697 0.60709 0.0
H827 H 0.36623 0.84657 0.63224 0.0
H828 H 0.43934 0.84234 0.62327 0.0
C829 C 0.48363 0.96042 0.6012 0.0
C830 C 0.54488 0.69208 0.88729 0.0
C831 C 0.58738 0.69019 0.89424 0.0
H832 H 0.4673 0.65592 0.88852 0.0
C833 C 0.58228 0.64622 0.9061 0.0
H834 H 0.54699 0.72487 0.8776 0.0
C835 C 0.53569 0.60605 0.91247 0.0
C836 C 0.49349 0.60928 0.90723 0.0
H837 H 0.61414 0.64345 0.91175 0.0
H838 H 0.53278 0.57324 0.92283 0.0
C839 C 0.49888 0.65243 0.89368 0.0
loop_
_geom_bond_atom_site_label_1
_geom_bond_atom_site_label_2
_geom_bond_distance
_geom_bond_site_symmetry_2
_ccdc_geom_bond_type
Eu0 C9 2.828 . S
Eu0 O11 2.392 . S
Eu0 O13 2.418 . S
Eu0 O18 2.373 . S
Eu0 O21 2.488 . S
Eu0 O22 2.471 . S
Eu0 O23 2.349 . S
Eu1 O10 2.373 . S
Eu1 O14 2.488 . S
Eu1 O15 2.471 . S
Eu1 O16 2.349 . S
Eu1 O19 2.392 . S
Eu1 O20 2.418 . S
Eu1 C30 2.828 1_545 S
C2 O20 1.244 . S
C2 O23 1.265 . S
C3 C4 1.379 . S
C3 C7 1.373 . S
C3 C9 1.505 . S
C4 C3 1.379 . S
C4 C6 1.369 . S
C4 H32 0.930 . S
C5 C7 1.383 . S
C5 C8 1.382 . S
C5 H33 0.930 . S
C6 C4 1.369 . S
C6 C8 1.392 . S
C6 H34 0.930 . S
C7 C3 1.373 . S
C7 C5 1.383 . S
C7 H35 0.931 . S
C8 C5 1.382 . S
C8 C6 1.392 . S
C9 Eu0 2.828 . S
C9 C3 1.505 . S
C9 O21 1.249 . S
C9 O22 1.244 . S
O10 Eu1 2.373 . S
O10 C12 1.258 . S
O11 Eu0 2.392 . S
O11 C12 1.242 . S
C12 O10 1.258 . S
C12 O11 1.242 . S
O13 Eu0 2.418 . S
O13 C17 1.244 . S
O14 Eu1 2.488 . S
O14 C30 1.249 1_545 S
O15 Eu1 2.471 . S
O15 C30 1.244 1_545 S
O16 Eu1 2.349 . S
O16 C17 1.265 . S
C17 O13 1.244 . S
C17 O16 1.265 . S
O18 Eu0 2.373 . S
O18 C31 1.258 . S
O19 Eu1 2.392 . S
O19 C31 1.242 . S
O20 Eu1 2.418 . S
O20 C2 1.244 . S
O21 Eu0 2.488 . S
O21 C9 1.249 . S
O22 Eu0 2.471 . S
O22 C9 1.244 . S
O23 Eu0 2.349 . S
O23 C2 1.265 . S
C24 C25 1.379 . S
C24 C28 1.373 . S
C24 C30 1.505 . S
C25 C24 1.379 . S
C25 C27 1.369 . S
C25 H36 0.930 . S
C26 C28 1.383 . S
C26 C29 1.382 . S
C26 H37 0.930 . S
C27 C25 1.369 . S
C27 C29 1.392 . S
C27 H38 0.930 . S
C28 C24 1.373 . S
C28 C26 1.383 . S
C28 H39 0.931 . S
C29 C26 1.382 . S
C29 C27 1.392 . S
C30 Eu1 2.828 1_565 S
C30 O14 1.249 1_565 S
C30 O15 1.244 1_565 S
C30 C24 1.505 . S
C31 O18 1.258 . S
C31 O19 1.242 . S
H32 C4 0.930 . S
H33 C5 0.930 . S
H34 C6 0.930 . S
H35 C7 0.931 . S
H36 C25 0.930 . S
H37 C26 0.930 . S
H38 C27 0.930 . S
H39 C28 0.931 . S
Eu40 C49 2.828 . S
Eu40 O51 2.392 . S
Eu40 O53 2.418 . S
Eu40 O58 2.373 . S
Eu40 O61 2.488 . S
Eu40 O62 2.471 . S
Eu40 O63 2.349 . S
Eu41 O50 2.373 . S
Eu41 O54 2.488 . S
Eu41 O55 2.471 . S
Eu41 O56 2.349 . S
Eu41 O59 2.392 . S
Eu41 O60 2.418 . S
Eu41 C70 2.828 . S
C42 O60 1.244 . S
C42 O63 1.265 . S
C43 C44 1.379 . S
C43 C47 1.373 . S
C43 C49 1.505 . S
C44 C43 1.379 . S
C44 C46 1.369 . S
C44 H72 0.930 . S
C45 C47 1.383 . S
C45 C48 1.382 . S
C45 H73 0.930 . S
C46 C44 1.369 . S
C46 C48 1.392 . S
C46 H74 0.930 . S
C47 C43 1.373 . S
C47 C45 1.383 . S
C47 H75 0.931 . S
C48 C45 1.382 . S
C48 C46 1.392 . S
C49 Eu40 2.828 . S
C49 C43 1.505 . S
C49 O61 1.249 . S
C49 O62 1.244 . S
O50 Eu41 2.373 . S
O50 C52 1.258 . S
O51 Eu40 2.392 . S
O51 C52 1.242 . S
C52 O50 1.258 . S
C52 O51 1.242 . S
O53 Eu40 2.418 . S
O53 C57 1.244 . S
O54 Eu41 2.488 . S
O54 C70 1.249 . S
O55 Eu41 2.471 . S
O55 C70 1.244 . S
O56 Eu41 2.349 . S
O56 C57 1.265 . S
C57 O53 1.244 . S
C57 O56 1.265 . S
O58 Eu40 2.373 . S
O58 C71 1.258 . S
O59 Eu41 2.392 . S
O59 C71 1.242 . S
O60 Eu41 2.418 . S
O60 C42 1.244 . S
O61 Eu40 2.488 . S
O61 C49 1.249 . S
O62 Eu40 2.471 . S
O62 C49 1.244 . S
O63 Eu40 2.349 . S
O63 C42 1.265 . S
C64 C65 1.379 . S
C64 C68 1.373 . S
C64 C70 1.505 . S
C65 C64 1.379 . S
C65 C67 1.369 . S
C65 H76 0.930 . S
C66 C68 1.383 . S
C66 C69 1.382 . S
C66 H77 0.930 . S
C67 C65 1.369 . S
C67 C69 1.392 . S
C67 H78 0.930 . S
C68 C64 1.373 . S
C68 C66 1.383 . S
C68 H79 0.931 . S
C69 C66 1.382 . S
C69 C67 1.392 . S
C70 Eu41 2.828 . S
C70 O54 1.249 . S
C70 O55 1.244 . S
C70 C64 1.505 . S
C71 O58 1.258 . S
C71 O59 1.242 . S
H72 C44 0.930 . S
H73 C45 0.930 . S
H74 C46 0.930 . S
H75 C47 0.931 . S
H76 C65 0.930 . S
H77 C66 0.930 . S
H78 C67 0.930 . S
H79 C68 0.931 . S
Eu80 C89 2.828 . S
Eu80 O91 2.392 . S
Eu80 O93 2.418 . S
Eu80 O98 2.373 . S
Eu80 O101 2.488 . S
Eu80 O102 2.471 . S
Eu80 O103 2.349 . S
Eu81 O90 2.373 . S
Eu81 O94 2.488 . S
Eu81 O95 2.471 . S
Eu81 O96 2.349 . S
Eu81 O99 2.392 . S
Eu81 O100 2.418 . S
Eu81 C110 2.828 1_655 S
C82 O100 1.244 . S
C82 O103 1.265 . S
C83 C84 1.379 . S
C83 C87 1.373 . S
C83 C89 1.505 . S
C84 C83 1.379 . S
C84 C86 1.369 . S
C84 H112 0.930 . S
C85 C87 1.383 . S
C85 C88 1.382 . S
C85 H113 0.930 . S
C86 C84 1.369 . S
C86 C88 1.392 . S
C86 H114 0.930 . S
C87 C83 1.373 . S
C87 C85 1.383 . S
C87 H115 0.931 . S
C88 C85 1.382 . S
C88 C86 1.392 . S
C89 Eu80 2.828 . S
C89 C83 1.505 . S
C89 O101 1.249 . S
C89 O102 1.244 . S
O90 Eu81 2.373 . S
O90 C92 1.258 . S
O91 Eu80 2.392 . S
O91 C92 1.242 . S
C92 O90 1.258 . S
C92 O91 1.242 . S
O93 Eu80 2.418 . S
O93 C97 1.244 . S
O94 Eu81 2.488 . S
O94 C110 1.249 1_655 S
O95 Eu81 2.471 . S
O95 C110 1.244 1_655 S
O96 Eu81 2.349 . S
O96 C97 1.265 . S
C97 O93 1.244 . S
C97 O96 1.265 . S
O98 Eu80 2.373 . S
O98 C111 1.258 . S
O99 Eu81 2.392 . S
O99 C111 1.242 . S
O100 Eu81 2.418 . S
O100 C82 1.244 . S
O101 Eu80 2.488 . S
O101 C89 1.249 . S
O102 Eu80 2.471 . S
O102 C89 1.244 . S
O103 Eu80 2.349 . S
O103 C82 1.265 . S
C104 C105 1.379 . S
C104 C108 1.373 . S
C104 C110 1.505 . S
C105 C104 1.379 . S
C105 C107 1.369 . S
C105 H116 0.930 . S
C106 C108 1.383 . S
C106 C109 1.382 . S
C106 H117 0.930 . S
C107 C105 1.369 . S
C107 C109 1.392 . S
C107 H118 0.930 . S
C108 C104 1.373 . S
C108 C106 1.383 . S
C108 H119 0.931 . S
C109 C106 1.382 . S
C109 C107 1.392 . S
C110 Eu81 2.828 1_455 S
C110 O94 1.249 1_455 S
C110 O95 1.244 1_455 S
C110 C104 1.505 . S
C111 O98 1.258 . S
C111 O99 1.242 . S
H112 C84 0.930 . S
H113 C85 0.930 . S
H114 C86 0.930 . S
H115 C87 0.931 . S
H116 C105 0.930 . S
H117 C106 0.930 . S
H118 C107 0.930 . S
H119 C108 0.931 . S
Eu120 C129 2.828 1_545 S
Eu120 O131 2.392 . S
Eu120 O133 2.418 . S
Eu120 O138 2.373 . S
Eu120 O141 2.488 . S
Eu120 O142 2.471 . S
Eu120 O143 2.349 . S
Eu121 O130 2.373 . S
Eu121 O134 2.488 . S
Eu121 O135 2.471 . S
Eu121 O136 2.349 . S
Eu121 O139 2.392 . S
Eu121 O140 2.418 . S
Eu121 C150 2.828 . S
C122 O140 1.244 . S
C122 O143 1.265 . S
C123 C124 1.379 . S
C123 C127 1.373 . S
C123 C129 1.505 . S
C124 C123 1.379 . S
C124 C126 1.369 . S
C124 H152 0.930 . S
C125 C127 1.383 . S
C125 C128 1.382 . S
C125 H153 0.930 . S
C126 C124 1.369 . S
C126 C128 1.392 . S
C126 H154 0.930 . S
C127 C123 1.373 . S
C127 C125 1.383 . S
C127 H155 0.931 . S
C128 C125 1.382 . S
C128 C126 1.392 . S
C129 Eu120 2.828 1_565 S
C129 C123 1.505 . S
C129 O141 1.249 1_565 S
C129 O142 1.244 1_565 S
O130 Eu121 2.373 . S
O130 C132 1.258 . S
O131 Eu120 2.392 . S
O131 C132 1.242 . S
C132 O130 1.258 . S
C132 O131 1.242 . S
O133 Eu120 2.418 . S
O133 C137 1.244 . S
O134 Eu121 2.488 . S
O134 C150 1.249 . S
O135 Eu121 2.471 . S
O135 C150 1.244 . S
O136 Eu121 2.349 . S
O136 C137 1.265 . S
C137 O133 1.244 . S
C137 O136 1.265 . S
O138 Eu120 2.373 . S
O138 C151 1.258 . S
O139 Eu121 2.392 . S
O139 C151 1.242 . S
O140 Eu121 2.418 . S
O140 C122 1.244 . S
O141 Eu120 2.488 . S
O141 C129 1.249 1_545 S
O142 Eu120 2.471 . S
O142 C129 1.244 1_545 S
O143 Eu120 2.349 . S
O143 C122 1.265 . S
C144 C145 1.379 . S
C144 C148 1.373 . S
C144 C150 1.505 . S
C145 C144 1.379 . S
C145 C147 1.369 . S
C145 H156 0.930 . S
C146 C148 1.383 . S
C146 C149 1.382 . S
C146 H157 0.930 . S
C147 C145 1.369 . S
C147 C149 1.392 . S
C147 H158 0.930 . S
C148 C144 1.373 . S
C148 C146 1.383 . S
C148 H159 0.931 . S
C149 C146 1.382 . S
C149 C147 1.392 . S
C150 Eu121 2.828 . S
C150 O134 1.249 . S
C150 O135 1.244 . S
C150 C144 1.505 . S
C151 O138 1.258 . S
C151 O139 1.242 . S
H152 C124 0.930 . S
H153 C125 0.930 . S
H154 C126 0.930 . S
H155 C127 0.931 . S
H156 C145 0.930 . S
H157 C146 0.930 . S
H158 C147 0.930 . S
H159 C148 0.931 . S
Eu160 C169 2.828 . S
Eu160 O171 2.392 . S
Eu160 O173 2.418 . S
Eu160 O178 2.373 . S
Eu160 O181 2.488 . S
Eu160 O182 2.471 . S
Eu160 O183 2.349 . S
Eu161 O170 2.373 . S
Eu161 O174 2.488 . S
Eu161 O175 2.471 . S
Eu161 O176 2.349 . S
Eu161 O179 2.392 . S
Eu161 O180 2.418 . S
Eu161 C190 2.828 . S
C162 O180 1.244 . S
C162 O183 1.265 . S
C163 C164 1.379 . S
C163 C167 1.373 . S
C163 C169 1.505 . S
C164 C163 1.379 . S
C164 C166 1.369 . S
C164 H192 0.930 . S
C165 C167 1.383 . S
C165 C168 1.382 . S
C165 H193 0.930 . S
C166 C164 1.369 . S
C166 C168 1.392 . S
C166 H194 0.930 . S
C167 C163 1.373 . S
C167 C165 1.383 . S
C167 H195 0.931 . S
C168 C165 1.382 . S
C168 C166 1.392 . S
C169 Eu160 2.828 . S
C169 C163 1.505 . S
C169 O181 1.249 . S
C169 O182 1.244 . S
O170 Eu161 2.373 . S
O170 C172 1.258 . S
O171 Eu160 2.392 . S
O171 C172 1.242 . S
C172 O170 1.258 . S
C172 O171 1.242 . S
O173 Eu160 2.418 . S
O173 C177 1.244 . S
O174 Eu161 2.488 . S
O174 C190 1.249 . S
O175 Eu161 2.471 . S
O175 C190 1.244 . S
O176 Eu161 2.349 . S
O176 C177 1.265 . S
C177 O173 1.244 . S
C177 O176 1.265 . S
O178 Eu160 2.373 . S
O178 C191 1.258 . S
O179 Eu161 2.392 . S
O179 C191 1.242 . S
O180 Eu161 2.418 . S
O180 C162 1.244 . S
O181 Eu160 2.488 . S
O181 C169 1.249 . S
O182 Eu160 2.471 . S
O182 C169 1.244 . S
O183 Eu160 2.349 . S
O183 C162 1.265 . S
C184 C185 1.379 . S
C184 C188 1.373 . S
C184 C190 1.505 . S
C185 C184 1.379 . S
C185 C187 1.369 . S
C185 H196 0.930 . S
C186 C188 1.383 . S
C186 C189 1.382 . S
C186 H197 0.930 . S
C187 C185 1.369 . S
C187 C189 1.392 . S
C187 H198 0.930 . S
C188 C184 1.373 . S
C188 C186 1.383 . S
C188 H199 0.931 . S
C189 C186 1.382 . S
C189 C187 1.392 . S
C190 Eu161 2.828 . S
C190 O174 1.249 . S
C190 O175 1.244 . S
C190 C184 1.505 . S
C191 O178 1.258 . S
C191 O179 1.242 . S
H192 C164 0.930 . S
H193 C165 0.930 . S
H194 C166 0.930 . S
H195 C167 0.931 . S
H196 C185 0.930 . S
H197 C186 0.930 . S
H198 C187 0.930 . S
H199 C188 0.931 . S
Eu200 C209 2.828 1_655 S
Eu200 O211 2.392 . S
Eu200 O213 2.418 . S
Eu200 O218 2.373 . S
Eu200 O221 2.488 . S
Eu200 O222 2.471 . S
Eu200 O223 2.349 . S
Eu201 O210 2.373 . S
Eu201 O214 2.488 . S
Eu201 O215 2.471 . S
Eu201 O216 2.349 . S
Eu201 O219 2.392 . S
Eu201 O220 2.418 . S
Eu201 C230 2.828 . S
C202 O220 1.244 . S
C202 O223 1.265 . S
C203 C204 1.379 . S
C203 C207 1.373 . S
C203 C209 1.505 . S
C204 C203 1.379 . S
C204 C206 1.369 . S
C204 H232 0.930 . S
C205 C207 1.383 . S
C205 C208 1.382 . S
C205 H233 0.930 . S
C206 C204 1.369 . S
C206 C208 1.392 . S
C206 H234 0.930 . S
C207 C203 1.373 . S
C207 C205 1.383 . S
C207 H235 0.931 . S
C208 C205 1.382 . S
C208 C206 1.392 . S
C209 Eu200 2.828 1_455 S
C209 C203 1.505 . S
C209 O221 1.249 1_455 S
C209 O222 1.244 1_455 S
O210 Eu201 2.373 . S
O210 C212 1.258 . S
O211 Eu200 2.392 . S
O211 C212 1.242 . S
C212 O210 1.258 . S
C212 O211 1.242 . S
O213 Eu200 2.418 . S
O213 C217 1.244 . S
O214 Eu201 2.488 . S
O214 C230 1.249 . S
O215 Eu201 2.471 . S
O215 C230 1.244 . S
O216 Eu201 2.349 . S
O216 C217 1.265 . S
C217 O213 1.244 . S
C217 O216 1.265 . S
O218 Eu200 2.373 . S
O218 C231 1.258 . S
O219 Eu201 2.392 . S
O219 C231 1.242 . S
O220 Eu201 2.418 . S
O220 C202 1.244 . S
O221 Eu200 2.488 . S
O221 C209 1.249 1_655 S
O222 Eu200 2.471 . S
O222 C209 1.244 1_655 S
O223 Eu200 2.349 . S
O223 C202 1.265 . S
C224 C225 1.379 . S
C224 C228 1.373 . S
C224 C230 1.505 . S
C225 C224 1.379 . S
C225 C227 1.369 . S
C225 H236 0.930 . S
C226 C228 1.383 . S
C226 C229 1.382 . S
C226 H237 0.930 . S
C227 C225 1.369 . S
C227 C229 1.392 . S
C227 H238 0.930 . S
C228 C224 1.373 . S
C228 C226 1.383 . S
C228 H239 0.931 . S
C229 C226 1.382 . S
C229 C227 1.392 . S
C230 Eu201 2.828 . S
C230 O214 1.249 . S
C230 O215 1.244 . S
C230 C224 1.505 . S
C231 O218 1.258 . S
C231 O219 1.242 . S
H232 C204 0.930 . S
H233 C205 0.930 . S
H234 C206 0.930 . S
H235 C207 0.931 . S
H236 C225 0.930 . S
H237 C226 0.930 . S
H238 C227 0.930 . S
H239 C228 0.931 . S
Eu240 C249 2.828 1_455 S
Eu240 O251 2.392 . S
Eu240 O253 2.418 . S
Eu240 O258 2.373 . S
Eu240 O261 2.488 . S
Eu240 O262 2.471 . S
Eu240 O263 2.349 . S
Eu241 O250 2.373 . S
Eu241 O254 2.488 . S
Eu241 O255 2.471 . S
Eu241 O256 2.349 . S
Eu241 O259 2.392 . S
Eu241 O260 2.418 . S
Eu241 C270 2.828 . S
C242 O260 1.244 . S
C242 O263 1.265 . S
C243 C244 1.379 . S
C243 C247 1.373 . S
C243 C249 1.505 . S
C244 C243 1.379 . S
C244 C246 1.369 . S
C244 H272 0.930 . S
C245 C247 1.383 . S
C245 C248 1.382 . S
C245 H273 0.930 . S
C246 C244 1.369 . S
C246 C248 1.392 . S
C246 H274 0.930 . S
C247 C243 1.373 . S
C247 C245 1.383 . S
C247 H275 0.931 . S
C248 C245 1.382 . S
C248 C246 1.392 . S
C249 Eu240 2.828 1_655 S
C249 C243 1.505 . S
C249 O261 1.249 1_655 S
C249 O262 1.244 1_655 S
O250 Eu241 2.373 . S
O250 C252 1.258 . S
O251 Eu240 2.392 . S
O251 C252 1.242 . S
C252 O250 1.258 . S
C252 O251 1.242 . S
O253 Eu240 2.418 . S
O253 C257 1.244 . S
O254 Eu241 2.488 . S
O254 C270 1.249 . S
O255 Eu241 2.471 . S
O255 C270 1.244 . S
O256 Eu241 2.349 . S
O256 C257 1.265 . S
C257 O253 1.244 . S
C257 O256 1.265 . S
O258 Eu240 2.373 . S
O258 C271 1.258 . S
O259 Eu241 2.392 . S
O259 C271 1.242 . S
O260 Eu241 2.418 . S
O260 C242 1.244 . S
O261 Eu240 2.488 . S
O261 C249 1.249 1_455 S
O262 Eu240 2.471 . S
O262 C249 1.244 1_455 S
O263 Eu240 2.349 . S
O263 C242 1.265 . S
C264 C265 1.379 . S
C264 C268 1.373 . S
C264 C270 1.505 . S
C265 C264 1.379 . S
C265 C267 1.369 . S
C265 H276 0.930 . S
C266 C268 1.383 . S
C266 C269 1.382 . S
C266 H277 0.930 . S
C267 C265 1.369 . S
C267 C269 1.392 . S
C267 H278 0.930 . S
C268 C264 1.373 . S
C268 C266 1.383 . S
C268 H279 0.931 . S
C269 C266 1.382 . S
C269 C267 1.392 . S
C270 Eu241 2.828 . S
C270 O254 1.249 . S
C270 O255 1.244 . S
C270 C264 1.505 . S
C271 O258 1.258 . S
C271 O259 1.242 . S
H272 C244 0.930 . S
H273 C245 0.930 . S
H274 C246 0.930 . S
H275 C247 0.931 . S
H276 C265 0.930 . S
H277 C266 0.930 . S
H278 C267 0.930 . S
H279 C268 0.931 . S
Eu280 C289 2.828 . S
Eu280 O291 2.392 . S
Eu280 O293 2.418 . S
Eu280 O298 2.373 . S
Eu280 O301 2.488 . S
Eu280 O302 2.471 . S
Eu280 O303 2.349 . S
Eu281 O290 2.373 . S
Eu281 O294 2.488 . S
Eu281 O295 2.471 . S
Eu281 O296 2.349 . S
Eu281 O299 2.392 . S
Eu281 O300 2.418 . S
Eu281 C310 2.828 1_565 S
C282 O300 1.244 . S
C282 O303 1.265 . S
C283 C284 1.379 . S
C283 C287 1.373 . S
C283 C289 1.505 . S
C284 C283 1.379 . S
C284 C286 1.369 . S
C284 H312 0.930 . S
C285 C287 1.383 . S
C285 C288 1.382 . S
C285 H313 0.930 . S
C286 C284 1.369 . S
C286 C288 1.392 . S
C286 H314 0.930 . S
C287 C283 1.373 . S
C287 C285 1.383 . S
C287 H315 0.931 . S
C288 C285 1.382 . S
C288 C286 1.392 . S
C289 Eu280 2.828 . S
C289 C283 1.505 . S
C289 O301 1.249 . S
C289 O302 1.244 . S
O290 Eu281 2.373 . S
O290 C292 1.258 . S
O291 Eu280 2.392 . S
O291 C292 1.242 . S
C292 O290 1.258 . S
C292 O291 1.242 . S
O293 Eu280 2.418 . S
O293 C297 1.244 . S
O294 Eu281 2.488 . S
O294 C310 1.249 1_565 S
O295 Eu281 2.471 . S
O295 C310 1.244 1_565 S
O296 Eu281 2.349 . S
O296 C297 1.265 . S
C297 O293 1.244 . S
C297 O296 1.265 . S
O298 Eu280 2.373 . S
O298 C311 1.258 . S
O299 Eu281 2.392 . S
O299 C311 1.242 . S
O300 Eu281 2.418 . S
O300 C282 1.244 . S
O301 Eu280 2.488 . S
O301 C289 1.249 . S
O302 Eu280 2.471 . S
O302 C289 1.244 . S
O303 Eu280 2.349 . S
O303 C282 1.265 . S
C304 C305 1.379 . S
C304 C308 1.373 . S
C304 C310 1.505 . S
C305 C304 1.379 . S
C305 C307 1.369 . S
C305 H316 0.930 . S
C306 C308 1.383 . S
C306 C309 1.382 . S
C306 H317 0.930 . S
C307 C305 1.369 . S
C307 C309 1.392 . S
C307 H318 0.930 . S
C308 C304 1.373 . S
C308 C306 1.383 . S
C308 H319 0.931 . S
C309 C306 1.382 . S
C309 C307 1.392 . S
C310 Eu281 2.828 1_545 S
C310 O294 1.249 1_545 S
C310 O295 1.244 1_545 S
C310 C304 1.505 . S
C311 O298 1.258 . S
C311 O299 1.242 . S
H312 C284 0.930 . S
H313 C285 0.930 . S
H314 C286 0.930 . S
H315 C287 0.931 . S
H316 C305 0.930 . S
H317 C306 0.930 . S
H318 C307 0.930 . S
H319 C308 0.931 . S
Eu320 C329 2.828 . S
Eu320 O331 2.392 . S
Eu320 O333 2.418 . S
Eu320 O338 2.373 . S
Eu320 O341 2.488 . S
Eu320 O342 2.471 . S
Eu320 O343 2.349 . S
Eu321 O330 2.373 . S
Eu321 O334 2.488 . S
Eu321 O335 2.471 . S
Eu321 O336 2.349 . S
Eu321 O339 2.392 . S
Eu321 O340 2.418 . S
Eu321 C350 2.828 . S
C322 O340 1.244 . S
C322 O343 1.265 . S
C323 C324 1.379 . S
C323 C327 1.373 . S
C323 C329 1.505 . S
C324 C323 1.379 . S
C324 C326 1.369 . S
C324 H352 0.930 . S
C325 C327 1.383 . S
C325 C328 1.382 . S
C325 H353 0.930 . S
C326 C324 1.369 . S
C326 C328 1.392 . S
C326 H354 0.930 . S
C327 C323 1.373 . S
C327 C325 1.383 . S
C327 H355 0.931 . S
C328 C325 1.382 . S
C328 C326 1.392 . S
C329 Eu320 2.828 . S
C329 C323 1.505 . S
C329 O341 1.249 . S
C329 O342 1.244 . S
O330 Eu321 2.373 . S
O330 C332 1.258 . S
O331 Eu320 2.392 . S
O331 C332 1.242 . S
C332 O330 1.258 . S
C332 O331 1.242 . S
O333 Eu320 2.418 . S
O333 C337 1.244 . S
O334 Eu321 2.488 . S
O334 C350 1.249 . S
O335 Eu321 2.471 . S
O335 C350 1.244 . S
O336 Eu321 2.349 . S
O336 C337 1.265 . S
C337 O333 1.244 . S
C337 O336 1.265 . S
O338 Eu320 2.373 . S
O338 C351 1.258 . S
O339 Eu321 2.392 . S
O339 C351 1.242 . S
O340 Eu321 2.418 . S
O340 C322 1.244 . S
O341 Eu320 2.488 . S
O341 C329 1.249 . S
O342 Eu320 2.471 . S
O342 C329 1.244 . S
O343 Eu320 2.349 . S
O343 C322 1.265 . S
C344 C345 1.379 . S
C344 C348 1.373 . S
C344 C350 1.505 . S
C345 C344 1.379 . S
C345 C347 1.369 . S
C345 H356 0.930 . S
C346 C348 1.383 . S
C346 C349 1.382 . S
C346 H357 0.930 . S
C347 C345 1.369 . S
C347 C349 1.392 . S
C347 H358 0.930 . S
C348 C344 1.373 . S
C348 C346 1.383 . S
C348 H359 0.931 . S
C349 C346 1.382 . S
C349 C347 1.392 . S
C350 Eu321 2.828 . S
C350 O334 1.249 . S
C350 O335 1.244 . S
C350 C344 1.505 . S
C351 O338 1.258 . S
C351 O339 1.242 . S
H352 C324 0.930 . S
H353 C325 0.930 . S
H354 C326 0.930 . S
H355 C327 0.931 . S
H356 C345 0.930 . S
H357 C346 0.930 . S
H358 C347 0.930 . S
H359 C348 0.931 . S
Eu360 C369 2.828 . S
Eu360 O371 2.392 . S
Eu360 O373 2.418 . S
Eu360 O378 2.373 . S
Eu360 O381 2.488 . S
Eu360 O382 2.471 . S
Eu360 O383 2.349 . S
Eu361 O370 2.373 . S
Eu361 O374 2.488 . S
Eu361 O375 2.471 . S
Eu361 O376 2.349 . S
Eu361 O379 2.392 . S
Eu361 O380 2.418 . S
Eu361 C390 2.828 1_455 S
C362 O380 1.244 . S
C362 O383 1.265 . S
C363 C364 1.379 . S
C363 C367 1.373 . S
C363 C369 1.505 . S
C364 C363 1.379 . S
C364 C366 1.369 . S
C364 H392 0.930 . S
C365 C367 1.383 . S
C365 C368 1.382 . S
C365 H393 0.930 . S
C366 C364 1.369 . S
C366 C368 1.392 . S
C366 H394 0.930 . S
C367 C363 1.373 . S
C367 C365 1.383 . S
C367 H395 0.931 . S
C368 C365 1.382 . S
C368 C366 1.392 . S
C369 Eu360 2.828 . S
C369 C363 1.505 . S
C369 O381 1.249 . S
C369 O382 1.244 . S
O370 Eu361 2.373 . S
O370 C372 1.258 . S
O371 Eu360 2.392 . S
O371 C372 1.242 . S
C372 O370 1.258 . S
C372 O371 1.242 . S
O373 Eu360 2.418 . S
O373 C377 1.244 . S
O374 Eu361 2.488 . S
O374 C390 1.249 1_455 S
O375 Eu361 2.471 . S
O375 C390 1.244 1_455 S
O376 Eu361 2.349 . S
O376 C377 1.265 . S
C377 O373 1.244 . S
C377 O376 1.265 . S
O378 Eu360 2.373 . S
O378 C391 1.258 . S
O379 Eu361 2.392 . S
O379 C391 1.242 . S
O380 Eu361 2.418 . S
O380 C362 1.244 . S
O381 Eu360 2.488 . S
O381 C369 1.249 . S
O382 Eu360 2.471 . S
O382 C369 1.244 . S
O383 Eu360 2.349 . S
O383 C362 1.265 . S
C384 C385 1.379 . S
C384 C388 1.373 . S
C384 C390 1.505 . S
C385 C384 1.379 . S
C385 C387 1.369 . S
C385 H396 0.930 . S
C386 C388 1.383 . S
C386 C389 1.382 . S
C386 H397 0.930 . S
C387 C385 1.369 . S
C387 C389 1.392 . S
C387 H398 0.930 . S
C388 C384 1.373 . S
C388 C386 1.383 . S
C388 H399 0.931 . S
C389 C386 1.382 . S
C389 C387 1.392 . S
C390 Eu361 2.828 1_655 S
C390 O374 1.249 1_655 S
C390 O375 1.244 1_655 S
C390 C384 1.505 . S
C391 O378 1.258 . S
C391 O379 1.242 . S
H392 C364 0.930 . S
H393 C365 0.930 . S
H394 C366 0.930 . S
H395 C367 0.931 . S
H396 C385 0.930 . S
H397 C386 0.930 . S
H398 C387 0.930 . S
H399 C388 0.931 . S
Eu400 C409 2.828 1_565 S
Eu400 O411 2.392 . S
Eu400 O413 2.418 . S
Eu400 O418 2.373 . S
Eu400 O421 2.488 . S
Eu400 O422 2.471 . S
Eu400 O423 2.349 . S
Eu401 O410 2.373 . S
Eu401 O414 2.488 . S
Eu401 O415 2.471 . S
Eu401 O416 2.349 . S
Eu401 O419 2.392 . S
Eu401 O420 2.418 . S
Eu401 C430 2.828 . S
C402 O420 1.244 . S
C402 O423 1.265 . S
C403 C404 1.379 . S
C403 C407 1.373 . S
C403 C409 1.505 . S
C404 C403 1.379 . S
C404 C406 1.369 . S
C404 H432 0.930 . S
C405 C407 1.383 . S
C405 C408 1.382 . S
C405 H433 0.930 . S
C406 C404 1.369 . S
C406 C408 1.392 . S
C406 H434 0.930 . S
C407 C403 1.373 . S
C407 C405 1.383 . S
C407 H435 0.931 . S
C408 C405 1.382 . S
C408 C406 1.392 . S
C409 Eu400 2.828 1_545 S
C409 C403 1.505 . S
C409 O421 1.249 1_545 S
C409 O422 1.244 1_545 S
O410 Eu401 2.373 . S
O410 C412 1.258 . S
O411 Eu400 2.392 . S
O411 C412 1.242 . S
C412 O410 1.258 . S
C412 O411 1.242 . S
O413 Eu400 2.418 . S
O413 C417 1.244 . S
O414 Eu401 2.488 . S
O414 C430 1.249 . S
O415 Eu401 2.471 . S
O415 C430 1.244 . S
O416 Eu401 2.349 . S
O416 C417 1.265 . S
C417 O413 1.244 . S
C417 O416 1.265 . S
O418 Eu400 2.373 . S
O418 C431 1.258 . S
O419 Eu401 2.392 . S
O419 C431 1.242 . S
O420 Eu401 2.418 . S
O420 C402 1.244 . S
O421 Eu400 2.488 . S
O421 C409 1.249 1_565 S
O422 Eu400 2.471 . S
O422 C409 1.244 1_565 S
O423 Eu400 2.349 . S
O423 C402 1.265 . S
C424 C425 1.379 . S
C424 C428 1.373 . S
C424 C430 1.505 . S
C425 C424 1.379 . S
C425 C427 1.369 . S
C425 H436 0.930 . S
C426 C428 1.383 . S
C426 C429 1.382 . S
C426 H437 0.930 . S
C427 C425 1.369 . S
C427 C429 1.392 . S
C427 H438 0.930 . S
C428 C424 1.373 . S
C428 C426 1.383 . S
C428 H439 0.931 . S
C429 C426 1.382 . S
C429 C427 1.392 . S
C430 Eu401 2.828 . S
C430 O414 1.249 . S
C430 O415 1.244 . S
C430 C424 1.505 . S
C431 O418 1.258 . S
C431 O419 1.242 . S
H432 C404 0.930 . S
H433 C405 0.930 . S
H434 C406 0.930 . S
H435 C407 0.931 . S
H436 C425 0.930 . S
H437 C426 0.930 . S
H438 C427 0.930 . S
H439 C428 0.931 . S
Eu440 C449 2.828 . S
Eu440 O451 2.392 . S
Eu440 O453 2.418 . S
Eu440 O458 2.373 . S
Eu440 O461 2.488 . S
Eu440 O462 2.471 . S
Eu440 O463 2.349 . S
Eu441 O450 2.373 . S
Eu441 O454 2.488 . S
Eu441 O455 2.471 . S
Eu441 O456 2.349 . S
Eu441 O459 2.392 . S
Eu441 O460 2.418 . S
Eu441 C470 2.828 . S
C442 O460 1.244 . S
C442 O463 1.265 . S
C443 C444 1.379 . S
C443 C447 1.373 . S
C443 C449 1.505 . S
C444 C443 1.379 . S
C444 C446 1.369 . S
C444 H472 0.930 . S
C445 C447 1.383 . S
C445 C448 1.382 . S
C445 H473 0.930 . S
C446 C444 1.369 . S
C446 C448 1.392 . S
C446 H474 0.930 . S
C447 C443 1.373 . S
C447 C445 1.383 . S
C447 H475 0.931 . S
C448 C445 1.382 . S
C448 C446 1.392 . S
C449 Eu440 2.828 . S
C449 C443 1.505 . S
C449 O461 1.249 . S
C449 O462 1.244 . S
O450 Eu441 2.373 . S
O450 C452 1.258 . S
O451 Eu440 2.392 . S
O451 C452 1.242 . S
C452 O450 1.258 . S
C452 O451 1.242 . S
O453 Eu440 2.418 . S
O453 C457 1.244 . S
O454 Eu441 2.488 . S
O454 C470 1.249 . S
O455 Eu441 2.471 . S
O455 C470 1.244 . S
O456 Eu441 2.349 . S
O456 C457 1.265 . S
C457 O453 1.244 . S
C457 O456 1.265 . S
O458 Eu440 2.373 . S
O458 C471 1.258 . S
O459 Eu441 2.392 . S
O459 C471 1.242 . S
O460 Eu441 2.418 . S
O460 C442 1.244 . S
O461 Eu440 2.488 . S
O461 C449 1.249 . S
O462 Eu440 2.471 . S
O462 C449 1.244 . S
O463 Eu440 2.349 . S
O463 C442 1.265 . S
C464 C465 1.379 . S
C464 C468 1.373 . S
C464 C470 1.505 . S
C465 C464 1.379 . S
C465 C467 1.369 . S
C465 H476 0.930 . S
C466 C468 1.383 . S
C466 C469 1.382 . S
C466 H477 0.930 . S
C467 C465 1.369 . S
C467 C469 1.392 . S
C467 H478 0.930 . S
C468 C464 1.373 . S
C468 C466 1.383 . S
C468 H479 0.931 . S
C469 C466 1.382 . S
C469 C467 1.392 . S
C470 Eu441 2.828 . S
C470 O454 1.249 . S
C470 O455 1.244 . S
C470 C464 1.505 . S
C471 O458 1.258 . S
C471 O459 1.242 . S
H472 C444 0.930 . S
H473 C445 0.930 . S
H474 C446 0.930 . S
H475 C447 0.931 . S
H476 C465 0.930 . S
H477 C466 0.930 . S
H478 C467 0.930 . S
H479 C468 0.931 . S
C480 C481 1.387 . S
C480 H484 0.950 . S
C480 C489 1.390 . S
C481 C480 1.387 . S
C481 C483 1.387 . S
H482 C489 0.950 . S
C483 C481 1.387 . S
C483 C485 1.390 . S
C483 H487 0.950 . S
H484 C480 0.950 . S
C485 C483 1.390 . S
C485 C486 1.387 . S
C485 H488 0.950 . S
C486 C485 1.387 . S
C486 C489 1.387 . S
H487 C483 0.950 . S
H488 C485 0.950 . S
C489 C480 1.390 . S
C489 H482 0.950 . S
C489 C486 1.387 . S
C490 C491 1.387 . S
C490 H494 0.950 . S
C490 C499 1.390 1_455 S
C491 C490 1.387 . S
C491 C493 1.387 1_455 S
H492 C499 0.950 . S
C493 C491 1.387 1_655 S
C493 C495 1.390 . S
C493 H497 0.950 1_655 S
H494 C490 0.950 . S
C495 C493 1.390 . S
C495 C496 1.387 . S
C495 H498 0.950 . S
C496 C495 1.387 . S
C496 C499 1.387 . S
H497 C493 0.950 1_455 S
H498 C495 0.950 . S
C499 C490 1.390 1_655 S
C499 H492 0.950 . S
C499 C496 1.387 . S
C500 C501 1.387 . S
C500 H504 0.950 . S
C500 C509 1.390 1_545 S
C501 C500 1.387 . S
C501 C503 1.387 . S
H502 C509 0.950 . S
C503 C501 1.387 . S
C503 C505 1.390 . S
C503 H507 0.950 . S
H504 C500 0.950 . S
C505 C503 1.390 . S
C505 C506 1.387 1_545 S
C505 H508 0.950 . S
C506 C505 1.387 1_565 S
C506 C509 1.387 . S
H507 C503 0.950 . S
H508 C505 0.950 . S
C509 C500 1.390 1_565 S
C509 H502 0.950 . S
C509 C506 1.387 . S
C510 C511 1.387 . S
C510 H514 0.950 . S
C510 C519 1.390 . S
C511 C510 1.387 . S
C511 C513 1.387 . S
H512 C519 0.950 . S
C513 C511 1.387 . S
C513 C515 1.390 . S
C513 H517 0.950 . S
H514 C510 0.950 . S
C515 C513 1.390 . S
C515 C516 1.387 . S
C515 H518 0.950 . S
C516 C515 1.387 . S
C516 C519 1.387 . S
H517 C513 0.950 . S
H518 C515 0.950 . S
C519 C510 1.390 . S
C519 H512 0.950 . S
C519 C516 1.387 . S
C520 C521 1.387 . S
C520 H524 0.950 . S
C520 C529 1.390 1_455 S
C521 C520 1.387 . S
C521 C523 1.387 1_455 S
H522 C529 0.950 . S
C523 C521 1.387 1_655 S
C523 C525 1.390 . S
C523 H527 0.950 1_655 S
H524 C520 0.950 . S
C525 C523 1.390 . S
C525 C526 1.387 . S
C525 H528 0.950 . S
C526 C525 1.387 . S
C526 C529 1.387 . S
H527 C523 0.950 1_455 S
H528 C525 0.950 . S
C529 C520 1.390 1_655 S
C529 H522 0.950 . S
C529 C526 1.387 . S
C530 C531 1.387 . S
C530 H534 0.950 . S
C530 C539 1.390 1_565 S
C531 C530 1.387 . S
C531 C533 1.387 1_565 S
H532 C539 0.950 . S
C533 C531 1.387 1_545 S
C533 C535 1.390 . S
C533 H537 0.942 1_545 S
H534 C530 0.950 . S
C535 C533 1.390 . S
C535 C536 1.387 . S
C535 H538 0.950 . S
C536 C535 1.387 . S
C536 C539 1.387 . S
H537 C533 0.942 1_565 S
H538 C535 0.950 . S
C539 C530 1.390 1_545 S
C539 H532 0.950 . S
C539 C536 1.387 . S
C540 C541 1.387 . S
C540 H544 0.950 . S
C540 C549 1.390 . S
C541 C540 1.387 . S
C541 C543 1.387 . S
H542 C549 0.950 . S
C543 C541 1.387 . S
C543 C545 1.390 . S
C543 H547 0.950 . S
H544 C540 0.950 . S
C545 C543 1.390 . S
C545 C546 1.387 . S
C545 H548 0.950 . S
C546 C545 1.387 . S
C546 C549 1.387 . S
H547 C543 0.950 . S
H548 C545 0.950 . S
C549 C540 1.390 . S
C549 H542 0.950 . S
C549 C546 1.387 . S
C550 C551 1.387 . S
C550 H554 0.950 . S
C550 C559 1.390 1_455 S
C551 C550 1.387 . S
C551 C553 1.387 . S
H552 C559 0.950 . S
C553 C551 1.387 . S
C553 C555 1.390 . S
C553 H557 0.950 . S
H554 C550 0.950 . S
C555 C553 1.390 . S
C555 C556 1.387 1_455 S
C555 H558 0.950 . S
C556 C555 1.387 1_655 S
C556 C559 1.387 . S
H557 C553 0.950 . S
H558 C555 0.950 . S
C559 C550 1.390 1_655 S
C559 H552 0.950 . S
C559 C556 1.387 . S
C560 C561 1.387 . S
C560 H564 0.950 . S
C560 C569 1.390 1_565 S
C561 C560 1.387 . S
C561 C563 1.387 . S
H562 C569 0.950 . S
C563 C561 1.387 . S
C563 C565 1.390 . S
C563 H567 0.950 . S
H564 C560 0.950 . S
C565 C563 1.390 . S
C565 C566 1.387 1_565 S
C565 H568 0.950 . S
C566 C565 1.387 1_545 S
C566 C569 1.387 . S
H567 C563 0.950 . S
H568 C565 0.950 . S
C569 C560 1.390 1_545 S
C569 H562 0.950 . S
C569 C566 1.387 . S
C570 C571 1.387 . S
C570 H574 0.950 . S
C570 C579 1.390 . S
C571 C570 1.387 . S
C571 C573 1.387 . S
H572 C579 0.950 . S
C573 C571 1.387 . S
C573 C575 1.390 . S
C573 H577 0.950 . S
H574 C570 0.950 . S
C575 C573 1.390 . S
C575 C576 1.387 . S
C575 H578 0.950 . S
C576 C575 1.387 . S
C576 C579 1.387 . S
H577 C573 0.950 . S
H578 C575 0.950 . S
C579 C570 1.390 . S
C579 H572 0.950 . S
C579 C576 1.387 . S
C580 C581 1.387 . S
C580 H584 0.950 . S
C580 C589 1.390 1_455 S
C581 C580 1.387 . S
C581 C583 1.387 . S
H582 C589 0.950 . S
C583 C581 1.387 . S
C583 C585 1.390 . S
C583 H587 0.950 . S
H584 C580 0.950 . S
C585 C583 1.390 . S
C585 C586 1.387 1_455 S
C585 H588 0.950 . S
C586 C585 1.387 1_655 S
C586 C589 1.387 . S
H587 C583 0.950 . S
H588 C585 0.950 . S
C589 C580 1.390 1_655 S
C589 H582 0.950 . S
C589 C586 1.387 . S
C590 C591 1.387 . S
C590 H594 0.950 . S
C590 C599 1.390 1_545 S
C591 C590 1.387 . S
C591 C593 1.387 1_545 S
H592 C599 0.950 . S
C593 C591 1.387 1_565 S
C593 C595 1.390 . S
C593 H597 0.950 . S
H594 C590 0.950 . S
C595 C593 1.390 . S
C595 C596 1.387 . S
C595 H598 0.950 . S
C596 C595 1.387 . S
C596 C599 1.387 . S
H597 C593 0.950 . S
H598 C595 0.950 . S
C599 C590 1.390 1_565 S
C599 H592 0.950 . S
C599 C596 1.387 . S
C600 C601 1.387 . S
C600 H604 0.950 . S
C600 C609 1.390 . S
C601 C600 1.387 . S
C601 C603 1.387 . S
H602 C609 0.950 . S
C603 C601 1.387 . S
C603 C605 1.390 . S
C603 H607 0.950 . S
H604 C600 0.950 . S
C605 C603 1.390 . S
C605 C606 1.387 . S
C605 H608 0.950 . S
C606 C605 1.387 . S
C606 C609 1.387 . S
H607 C603 0.950 . S
H608 C605 0.950 . S
C609 C600 1.390 . S
C609 H602 0.950 . S
C609 C606 1.387 . S
C610 C611 1.387 . S
C610 H614 0.950 . S
C610 C619 1.390 . S
C611 C610 1.387 . S
C611 C613 1.387 . S
H612 C619 0.950 . S
C613 C611 1.387 . S
C613 C615 1.390 . S
C613 H617 0.950 . S
H614 C610 0.950 . S
C615 C613 1.390 . S
C615 C616 1.387 . S
C615 H618 0.950 . S
C616 C615 1.387 . S
C616 C619 1.387 . S
H617 C613 0.950 . S
H618 C615 0.950 . S
C619 C610 1.390 . S
C619 H612 0.950 . S
C619 C616 1.387 . S
C620 C621 1.387 . S
C620 H624 0.950 . S
C620 C629 1.390 . S
C621 C620 1.387 . S
C621 C623 1.387 . S
H622 C629 0.950 . S
C623 C621 1.387 . S
C623 C625 1.390 . S
C623 H627 0.950 . S
H624 C620 0.950 . S
C625 C623 1.390 . S
C625 C626 1.387 . S
C625 H628 0.950 . S
C626 C625 1.387 . S
C626 C629 1.387 . S
H627 C623 0.950 . S
H628 C625 0.950 . S
C629 C620 1.390 . S
C629 H622 0.950 . S
C629 C626 1.387 . S
C630 C631 1.387 . S
C630 H634 0.950 . S
C630 C639 1.390 . S
C631 C630 1.387 . S
C631 C633 1.387 . S
H632 C639 0.950 . S
C633 C631 1.387 . S
C633 C635 1.390 . S
C633 H637 0.950 . S
H634 C630 0.950 . S
C635 C633 1.390 . S
C635 C636 1.387 . S
C635 H638 0.950 . S
C636 C635 1.387 . S
C636 C639 1.387 . S
H637 C633 0.950 . S
H638 C635 0.950 . S
C639 C630 1.390 . S
C639 H632 0.950 . S
C639 C636 1.387 . S
C640 C641 1.387 . S
C640 H644 0.950 . S
C640 C649 1.390 . S
C641 C640 1.387 . S
C641 C643 1.387 . S
H642 C649 0.950 . S
C643 C641 1.387 . S
C643 C645 1.390 . S
C643 H647 0.950 . S
H644 C640 0.950 . S
C645 C643 1.390 . S
C645 C646 1.387 . S
C645 H648 0.950 . S
C646 C645 1.387 . S
C646 C649 1.387 . S
H647 C643 0.950 . S
H648 C645 0.950 . S
C649 C640 1.390 . S
C649 H642 0.950 . S
C649 C646 1.387 . S
C650 C651 1.387 . S
C650 H654 0.950 . S
C650 C659 1.390 . S
C651 C650 1.387 . S
C651 C653 1.387 . S
H652 C659 0.950 . S
C653 C651 1.387 . S
C653 C655 1.390 . S
C653 H657 0.950 . S
H654 C650 0.950 . S
C655 C653 1.390 . S
C655 C656 1.387 . S
C655 H658 0.950 . S
C656 C655 1.387 . S
C656 C659 1.387 . S
H657 C653 0.950 . S
H658 C655 0.950 . S
C659 C650 1.390 . S
C659 H652 0.950 . S
C659 C656 1.387 . S
C660 C661 1.387 . S
C660 H664 0.950 . S
C660 C669 1.390 1_566 S
C661 C660 1.387 . S
C661 C663 1.387 . S
H662 C669 0.950 . S
C663 C661 1.387 . S
C663 C665 1.390 1_566 S
C663 H667 0.950 . S
H664 C660 0.950 . S
C665 C663 1.390 1_544 S
C665 C666 1.387 . S
C665 H668 0.950 . S
C666 C665 1.387 . S
C666 C669 1.387 . S
H667 C663 0.950 . S
H668 C665 0.950 . S
C669 C660 1.390 1_544 S
C669 H662 0.950 . S
C669 C666 1.387 . S
C670 C671 1.387 . S
C670 H674 0.950 . S
C670 C679 1.390 . S
C671 C670 1.387 . S
C671 C673 1.387 . S
H672 C679 0.950 . S
C673 C671 1.387 . S
C673 C675 1.390 . S
C673 H677 0.950 . S
H674 C670 0.950 . S
C675 C673 1.390 . S
C675 C676 1.387 . S
C675 H678 0.950 . S
C676 C675 1.387 . S
C676 C679 1.387 . S
H677 C673 0.950 . S
H678 C675 0.950 . S
C679 C670 1.390 . S
C679 H672 0.950 . S
C679 C676 1.387 . S
C680 C681 1.387 . S
C680 H684 0.950 . S
C680 C689 1.390 1_455 S
C681 C680 1.387 . S
C681 C683 1.387 1_556 S
H682 C689 0.950 . S
C683 C681 1.387 1_554 S
C683 C685 1.390 1_455 S
C683 H687 0.950 . S
H684 C680 0.950 . S
C685 C683 1.390 1_655 S
C685 C686 1.387 . S
C685 H688 0.950 . S
C686 C685 1.387 . S
C686 C689 1.387 1_554 S
H687 C683 0.950 . S
H688 C685 0.950 . S
C689 C680 1.390 1_655 S
C689 H682 0.950 . S
C689 C686 1.387 1_556 S
C690 C691 1.387 . S
C690 H694 0.950 . S
C690 C699 1.390 1_545 S
C691 C690 1.387 . S
C691 C693 1.387 . S
H692 C699 0.950 . S
C693 C691 1.387 . S
C693 C695 1.390 1_545 S
C693 H697 0.950 . S
H694 C690 0.950 . S
C695 C693 1.390 1_565 S
C695 C696 1.387 . S
C695 H698 0.950 . S
C696 C695 1.387 . S
C696 C699 1.387 . S
H697 C693 0.950 . S
H698 C695 0.950 . S
C699 C690 1.390 1_565 S
C699 H692 0.950 . S
C699 C696 1.387 . S
C700 C701 1.387 . S
C700 H704 0.950 . S
C700 C709 1.390 . S
C701 C700 1.387 . S
C701 C703 1.387 1_554 S
H702 C709 0.950 . S
C703 C701 1.387 1_556 S
C703 C705 1.390 . S
C703 H707 0.950 . S
H704 C700 0.950 . S
C705 C703 1.390 . S
C705 C706 1.387 . S
C705 H708 0.950 . S
C706 C705 1.387 . S
C706 C709 1.387 1_556 S
H707 C703 0.950 . S
H708 C705 0.950 . S
C709 C700 1.390 . S
C709 H702 0.950 . S
C709 C706 1.387 1_554 S
C710 C711 1.387 . S
C710 H714 0.950 . S
C710 C719 1.390 1_455 S
C711 C710 1.387 . S
C711 C713 1.387 . S
H712 C719 0.950 . S
C713 C711 1.387 . S
C713 C715 1.390 1_455 S
C713 H717 0.950 . S
H714 C710 0.950 . S
C715 C713 1.390 1_655 S
C715 C716 1.387 . S
C715 H718 0.950 . S
C716 C715 1.387 . S
C716 C719 1.387 . S
H717 C713 0.950 . S
H718 C715 0.950 . S
C719 C710 1.390 1_655 S
C719 H712 0.950 . S
C719 C716 1.387 . S
C720 C721 1.387 . S
C720 H724 0.950 . S
C720 C729 1.390 . S
C721 C720 1.387 . S
C721 C723 1.387 . S
H722 C729 0.950 . S
C723 C721 1.387 . S
C723 C725 1.390 . S
C723 H727 0.950 . S
H724 C720 0.950 . S
C725 C723 1.390 . S
C725 C726 1.387 . S
C725 H728 0.950 . S
C726 C725 1.387 . S
C726 C729 1.387 . S
H727 C723 0.950 . S
H728 C725 0.950 . S
C729 C720 1.390 . S
C729 H722 0.950 . S
C729 C726 1.387 . S
C730 C731 1.387 . S
C730 H734 0.950 . S
C730 C739 1.390 . S
C731 C730 1.387 . S
C731 C733 1.387 . S
H732 C739 0.950 . S
C733 C731 1.387 . S
C733 C735 1.390 . S
C733 H737 0.950 . S
H734 C730 0.950 . S
C735 C733 1.390 . S
C735 C736 1.387 . S
C735 H738 0.950 . S
C736 C735 1.387 . S
C736 C739 1.387 . S
H737 C733 0.950 . S
H738 C735 0.950 . S
C739 C730 1.390 . S
C739 H732 0.950 . S
C739 C736 1.387 . S
C740 C741 1.387 . S
C740 H744 0.950 . S
C740 C749 1.390 . S
C741 C740 1.387 . S
C741 C743 1.387 . S
H742 C749 0.950 . S
C743 C741 1.387 . S
C743 C745 1.390 . S
C743 H747 0.950 . S
H744 C740 0.950 . S
C745 C743 1.390 . S
C745 C746 1.387 . S
C745 H748 0.950 . S
C746 C745 1.387 . S
C746 C749 1.387 . S
H747 C743 0.950 . S
H748 C745 0.950 . S
C749 C740 1.390 . S
C749 H742 0.950 . S
C749 C746 1.387 . S
C750 C751 1.387 . S
C750 H754 0.950 . S
C750 C759 1.390 . S
C751 C750 1.387 . S
C751 C753 1.387 . S
H752 C759 0.950 . S
C753 C751 1.387 . S
C753 C755 1.390 . S
C753 H757 0.950 . S
H754 C750 0.950 . S
C755 C753 1.390 . S
C755 C756 1.387 . S
C755 H758 0.950 . S
C756 C755 1.387 . S
C756 C759 1.387 . S
H757 C753 0.950 . S
H758 C755 0.950 . S
C759 C750 1.390 . S
C759 H752 0.950 . S
C759 C756 1.387 . S
C760 C761 1.387 . S
C760 H764 0.950 . S
C760 C769 1.390 . S
C761 C760 1.387 . S
C761 C763 1.387 . S
H762 C769 0.950 . S
C763 C761 1.387 . S
C763 C765 1.390 . S
C763 H767 0.950 . S
H764 C760 0.950 . S
C765 C763 1.390 . S
C765 C766 1.387 . S
C765 H768 0.950 . S
C766 C765 1.387 . S
C766 C769 1.387 . S
H767 C763 0.950 . S
H768 C765 0.950 . S
C769 C760 1.390 . S
C769 H762 0.950 . S
C769 C766 1.387 . S
C770 C771 1.387 . S
C770 H774 0.950 . S
C770 C779 1.390 . S
C771 C770 1.387 . S
C771 C773 1.387 . S
H772 C779 0.950 . S
C773 C771 1.387 . S
C773 C775 1.390 . S
C773 H777 0.950 . S
H774 C770 0.950 . S
C775 C773 1.390 . S
C775 C776 1.387 . S
C775 H778 0.950 . S
C776 C775 1.387 . S
C776 C779 1.387 . S
H777 C773 0.950 . S
H778 C775 0.950 . S
C779 C770 1.390 . S
C779 H772 0.950 . S
C779 C776 1.387 . S
C780 C781 1.387 . S
C780 H784 0.950 . S
C780 C789 1.390 . S
C781 C780 1.387 . S
C781 C783 1.387 . S
H782 C789 0.950 . S
C783 C781 1.387 . S
C783 C785 1.390 . S
C783 H787 0.950 . S
H784 C780 0.950 . S
C785 C783 1.390 . S
C785 C786 1.387 . S
C785 H788 0.950 . S
C786 C785 1.387 . S
C786 C789 1.387 . S
H787 C783 0.950 . S
H788 C785 0.950 . S
C789 C780 1.390 . S
C789 H782 0.950 . S
C789 C786 1.387 . S
C790 C791 1.387 . S
C790 H794 0.950 . S
C790 C799 1.390 . S
C791 C790 1.387 . S
C791 C793 1.387 . S
H792 C799 0.950 . S
C793 C791 1.387 . S
C793 C795 1.390 . S
C793 H797 0.950 . S
H794 C790 0.950 . S
C795 C793 1.390 . S
C795 C796 1.387 . S
C795 H798 0.950 . S
C796 C795 1.387 . S
C796 C799 1.387 . S
H797 C793 0.950 . S
H798 C795 0.950 . S
C799 C790 1.390 . S
C799 H792 0.950 . S
C799 C796 1.387 . S
C800 C801 1.387 . S
C800 H804 0.950 . S
C800 C809 1.390 . S
C801 C800 1.387 . S
C801 C803 1.387 . S
H802 C809 0.950 . S
C803 C801 1.387 . S
C803 C805 1.390 . S
C803 H807 0.950 . S
H804 C800 0.950 . S
C805 C803 1.390 . S
C805 C806 1.387 . S
C805 H808 0.950 . S
C806 C805 1.387 . S
C806 C809 1.387 . S
H807 C803 0.950 . S
H808 C805 0.950 . S
C809 C800 1.390 . S
C809 H802 0.950 . S
C809 C806 1.387 . S
C810 C811 1.387 . S
C810 H814 0.950 . S
C810 C819 1.390 . S
C811 C810 1.387 . S
C811 C813 1.387 . S
H812 C819 0.950 . S
C813 C811 1.387 . S
C813 C815 1.390 . S
C813 H817 0.950 . S
H814 C810 0.950 . S
C815 C813 1.390 . S
C815 C816 1.387 . S
C815 H818 0.950 . S
C816 C815 1.387 . S
C816 C819 1.387 . S
H817 C813 0.950 . S
H818 C815 0.950 . S
C819 C810 1.390 . S
C819 H812 0.950 . S
C819 C816 1.387 . S
C820 C821 1.387 . S
C820 H824 0.950 . S
C820 C829 1.390 . S
C821 C820 1.387 . S
C821 C823 1.387 . S
H822 C829 0.950 . S
C823 C821 1.387 . S
C823 C825 1.390 . S
C823 H827 0.950 . S
H824 C820 0.950 . S
C825 C823 1.390 . S
C825 C826 1.387 . S
C825 H828 0.950 . S
C826 C825 1.387 . S
C826 C829 1.387 . S
H827 C823 0.950 . S
H828 C825 0.950 . S
C829 C820 1.390 . S
C829 H822 0.950 . S
C829 C826 1.387 . S
C830 C831 1.387 . S
C830 H834 0.950 . S
C830 C839 1.390 . S
C831 C830 1.387 . S
C831 C833 1.387 . S
H832 C839 0.950 . S
C833 C831 1.387 . S
C833 C835 1.390 . S
C833 H837 0.950 . S
H834 C830 0.950 . S
C835 C833 1.390 . S
C835 C836 1.387 . S
C835 H838 0.950 . S
C836 C835 1.387 . S
C836 C839 1.387 . S
H837 C833 0.950 . S
H838 C835 0.950 . S
C839 C830 1.390 . S
C839 H832 0.950 . S
C839 C836 1.387 . S
C481 C109 1.370 . S
C486 C12 1.346 . S
C491 C128 1.371 . S
C496 C71 1.349 . S
C501 C92 1.346 . S
C506 C189 1.370 . S
C511 C151 1.346 . S
C516 C208 1.370 . S
C521 C29 1.371 . S
C526 C172 1.346 . S
C531 C48 1.371 . S
C536 C231 1.349 . S
C541 C408 1.371 . S
C546 C271 1.349 . S
C551 C292 1.346 . S
C556 C469 1.371 . S
C561 C351 1.349 . S
C566 C248 1.371 . S
C571 C372 1.346 . S
C576 C309 1.371 . S
C581 C431 1.349 . S
C586 C328 1.372 . S
C591 C389 1.370 . S
C596 C452 1.346 . S
C601 C137 1.728 . S
C606 C2 1.729 . S
C611 C57 1.730 . S
C616 C162 1.727 . S
C621 C82 1.729 . S
C626 C217 1.728 . S
C631 C257 1.730 . S
C636 C362 1.728 . S
C641 C282 1.729 . S
C646 C417 1.729 . S
C651 C337 1.730 . S
C656 C442 1.727 . S
C661 C297 2.505 . S
C666 C17 2.505 . S
C671 C42 2.506 . S
C676 C322 2.506 . S
C681 C377 2.505 . S
C686 C97 2.505 . S
C691 C122 2.506 . S
C696 C402 2.506 . S
C701 C177 2.506 . S
C706 C457 2.506 . S
C711 C242 2.505 . S
C716 C202 2.505 . S
C721 C88 1.710 . S
C726 C31 1.774 . S
C731 C52 1.776 . S
C736 C149 1.713 . S
C741 C111 1.775 . S
C746 C168 1.710 . S
C751 C132 1.774 . S
C756 C229 1.710 . S
C761 C8 1.710 . S
C766 C191 1.774 . S
C771 C69 1.713 . S
C776 C212 1.776 . S
C781 C429 1.713 . S
C786 C252 1.776 . S
C791 C311 1.775 . S
C796 C448 1.712 . S
C801 C332 1.774 . S
C806 C269 1.710 . S
C811 C288 1.710 . S
C816 C391 1.774 . S
C821 C412 1.774 . S
C826 C349 1.710 . S
C831 C471 1.774 . S
C836 C368 1.710 . S
