# Generated by pormake.
# Topology noz, (5)-cn, num edge types: 1
# Building blocks:
#     Node 0, Type 0, BuildingBlock: XOMCOT_clean_sbu_0, # of connection points: 5
#     Node 1, Type 0, BuildingBlock: XOMCOT_clean_sbu_0, # of connection points: 5
#     Node 2, Type 0, BuildingBlock: XOMCOT_clean_sbu_0, # of connection points: 5
#     Node 3, Type 0, BuildingBlock: XOMCOT_clean_sbu_0, # of connection points: 5
#     Node 4, Type 0, BuildingBlock: XOMCOT_clean_sbu_0, # of connection points: 5
#     Node 5, Type 0, BuildingBlock: XOMCOT_clean_sbu_0, # of connection points: 5
#     Node 6, Type 0, BuildingBlock: XOMCOT_clean_sbu_0, # of connection points: 5
#     Node 7, Type 0, BuildingBlock: XOMCOT_clean_sbu_0, # of connection points: 5
#     Edge 8, Type (0, 0), BuildingBlock: UVAHIK_clean_linker_0, # of connection points: 2
#     Edge 9, Type (0, 0), BuildingBlock: UVAHIK_clean_linker_0, # of connection points: 2
#     Edge 10, Type (0, 0), BuildingBlock: UVAHIK_clean_linker_0, # of connection points: 2
#     Edge 11, Type (0, 0), BuildingBlock: UVAHIK_clean_linker_0, # of connection points: 2
#     Edge 12, Type (0, 0), BuildingBlock: UVAHIK_clean_linker_0, # of connection points: 2
#     Edge 13, Type (0, 0), BuildingBlock: UVAHIK_clean_linker_0, # of connection points: 2
#     Edge 14, Type (0, 0), BuildingBlock: UVAHIK_clean_linker_0, # of connection points: 2
#     Edge 15, Type (0, 0), BuildingBlock: UVAHIK_clean_linker_0, # of connection points: 2
#     Edge 16, Type (0, 0), BuildingBlock: UVAHIK_clean_linker_0, # of connection points: 2
#     Edge 17, Type (0, 0), BuildingBlock: UVAHIK_clean_linker_0, # of connection points: 2
#     Edge 18, Type (0, 0), BuildingBlock: UVAHIK_clean_linker_0, # of connection points: 2
#     Edge 19, Type (0, 0), BuildingBlock: UVAHIK_clean_linker_0, # of connection points: 2
#     Edge 20, Type (0, 0), BuildingBlock: UVAHIK_clean_linker_0, # of connection points: 2
#     Edge 21, Type (0, 0), BuildingBlock: UVAHIK_clean_linker_0, # of connection points: 2
#     Edge 22, Type (0, 0), BuildingBlock: UVAHIK_clean_linker_0, # of connection points: 2
#     Edge 23, Type (0, 0), BuildingBlock: UVAHIK_clean_linker_0, # of connection points: 2
#     Edge 24, Type (0, 0), BuildingBlock: UVAHIK_clean_linker_0, # of connection points: 2
#     Edge 25, Type (0, 0), BuildingBlock: UVAHIK_clean_linker_0, # of connection points: 2
#     Edge 26, Type (0, 0), BuildingBlock: UVAHIK_clean_linker_0, # of connection points: 2
#     Edge 27, Type (0, 0), BuildingBlock: UVAHIK_clean_linker_0, # of connection points: 2
# Relax obj value: 0.106
# Max RMSD: 0.194
# Mean RMSD: 0.193
data_MOF--net-noz--node1-XOMCOT_clean_sbu_0--edge1-UVAHIK_clean_linker_0
_symmetry_space_group_name_H-M    P1
_symmetry_Int_Tables_number       1
_symmetry_cell_setting            triclinic
loop_
_symmetry_equiv_pos_as_xyz
'x, y, z'
_cell_length_a     30.923274
_cell_length_b     63.470228
_cell_length_c     45.620991
_cell_angle_alpha  88.999738
_cell_angle_beta   90.018727
_cell_angle_gamma 90.085374
loop_
_atom_site_label
_atom_site_type_symbol
_atom_site_fract_x
_atom_site_fract_y
_atom_site_fract_z
_atom_type_partial_charge
Co0 Co 0.14804 0.33235 0.38707 0.0
C1 C 0.21719 0.31741 0.42866 0.0
C2 C 0.15372 0.30807 0.4427 0.0
C3 C 0.1831 0.30018 0.46243 0.0
N4 N 0.17476 0.31904 0.42144 0.0
N5 N 0.22303 0.30597 0.45368 0.0
H6 H 0.24332 0.32419 0.41586 0.0
H7 H 0.11928 0.30549 0.444 0.0
C8 C 0.05394 0.32926 0.40518 0.0
O9 O 0.04846 0.34942 0.39928 0.0
N10 N 0.12073 0.34494 0.35223 0.0
C11 C 0.13696 0.35978 0.33366 0.0
C12 C 0.1073 0.36396 0.31183 0.0
C13 C 0.08251 0.33942 0.34005 0.0
N14 N 0.07291 0.35122 0.31601 0.0
C15 C 0.16018 0.37607 0.39854 0.0
C16 C 0.11295 0.37806 0.44972 0.0
C17 C 0.12929 0.3968 0.4372 0.0
C18 C 0.1544 0.39544 0.4118 0.0
C19 C 0.11969 0.35887 0.43562 0.0
N20 N 0.14055 0.35826 0.40918 0.0
H21 H 0.18114 0.3755 0.37983 0.0
H22 H 0.107 0.34467 0.44571 0.0
H23 H 0.16872 0.36674 0.33495 0.0
H24 H 0.06192 0.32697 0.34841 0.0
O25 O 0.20424 0.33857 0.37099 0.0
O26 O 0.16763 0.30922 0.36291 0.0
O27 O 0.09026 0.32039 0.40019 0.0
C28 C 0.20235 0.32049 0.35819 0.0
H29 H 0.17564 0.29018 0.48122 0.0
H30 H 0.11115 0.37523 0.29394 0.0
H31 H 0.09435 0.37824 0.46982 0.0
H32 H 0.16992 0.40926 0.40228 0.0
Co33 Co 0.59034 0.68324 0.91061 0.0
C34 C 0.66846 0.67828 0.87164 0.0
C35 C 0.6171 0.69604 0.85182 0.0
C36 C 0.65161 0.69638 0.83306 0.0
N37 N 0.62677 0.68413 0.87573 0.0
N38 N 0.68407 0.68532 0.84553 0.0
H39 H 0.68831 0.67061 0.88802 0.0
H40 H 0.58754 0.70487 0.84873 0.0
C41 C 0.53075 0.67308 0.8621 0.0
O42 O 0.5594 0.65867 0.85533 0.0
N43 N 0.55389 0.68382 0.94483 0.0
C44 C 0.55748 0.67236 0.96984 0.0
C45 C 0.52561 0.67868 0.98893 0.0
C46 C 0.52071 0.69712 0.94907 0.0
N47 N 0.50278 0.69432 0.97583 0.0
C48 C 0.62677 0.64194 0.91785 0.0
C49 C 0.54958 0.62006 0.92116 0.0
C50 C 0.58829 0.60922 0.92678 0.0
C51 C 0.62722 0.62042 0.92448 0.0
C52 C 0.55057 0.64169 0.91452 0.0
N53 N 0.58898 0.65241 0.91253 0.0
H54 H 0.65681 0.65034 0.91916 0.0
H55 H 0.52025 0.65003 0.9126 0.0
H56 H 0.58181 0.66045 0.97403 0.0
H57 H 0.51007 0.70866 0.93289 0.0
O58 O 0.64008 0.68725 0.93492 0.0
O59 O 0.6019 0.71325 0.91488 0.0
O60 O 0.53705 0.68452 0.88458 0.0
C61 C 0.63476 0.70737 0.93101 0.0
H62 H 0.6529 0.70463 0.81211 0.0
H63 H 0.5204 0.67266 0.01099 0.0
H64 H 0.51865 0.61218 0.92351 0.0
H65 H 0.65791 0.61279 0.9289 0.0
Co66 Co 0.14943 0.66701 0.61313 0.0
C67 C 0.22175 0.6837 0.57566 0.0
C68 C 0.15943 0.68938 0.55649 0.0
C69 C 0.19027 0.69788 0.53826 0.0
N70 N 0.17891 0.68043 0.58006 0.0
N71 N 0.22949 0.69436 0.55024 0.0
H72 H 0.24678 0.67849 0.59065 0.0
H73 H 0.12502 0.69009 0.55264 0.0
C74 C 0.05492 0.67295 0.59812 0.0
O75 O 0.04679 0.6534 0.60634 0.0
N76 N 0.11935 0.65421 0.64634 0.0
C77 C 0.12365 0.63491 0.65884 0.0
C78 C 0.09504 0.63306 0.68186 0.0
C79 C 0.08943 0.66402 0.6627 0.0
N80 N 0.07325 0.65136 0.68417 0.0
C81 C 0.16662 0.62459 0.59661 0.0
C82 C 0.10839 0.62187 0.55102 0.0
C83 C 0.13053 0.60364 0.56023 0.0
C84 C 0.16109 0.60545 0.58266 0.0
C85 C 0.11511 0.64086 0.56564 0.0
N86 N 0.14166 0.64169 0.58962 0.0
H87 H 0.19075 0.62537 0.61359 0.0
H88 H 0.09859 0.65469 0.55754 0.0
H89 H 0.14586 0.62285 0.65225 0.0
H90 H 0.07962 0.68015 0.65865 0.0
O91 O 0.20392 0.65975 0.63103 0.0
O92 O 0.16851 0.6894 0.63882 0.0
O93 O 0.09337 0.68031 0.59943 0.0
C94 C 0.20186 0.67751 0.64461 0.0
H95 H 0.18402 0.70663 0.51813 0.0
H96 H 0.09015 0.61907 0.69533 0.0
H97 H 0.08546 0.62144 0.5331 0.0
H98 H 0.18076 0.59213 0.58949 0.0
Co99 Co 0.57833 0.33477 0.10657 0.0
C100 C 0.50646 0.32119 0.06617 0.0
C101 C 0.55582 0.29791 0.07249 0.0
C102 C 0.52466 0.28972 0.05458 0.0
N103 N 0.54543 0.31794 0.07904 0.0
N104 N 0.49366 0.30434 0.05063 0.0
H105 H 0.48681 0.33501 0.06877 0.0
H106 H 0.5837 0.28952 0.08094 0.0
C107 C 0.64403 0.32025 0.06364 0.0
O108 O 0.61729 0.32669 0.04295 0.0
N109 N 0.6116 0.35039 0.13461 0.0
C110 C 0.60455 0.37006 0.14407 0.0
C111 C 0.63783 0.37544 0.16268 0.0
C112 C 0.64845 0.34396 0.14772 0.0
N113 N 0.66538 0.35899 0.16491 0.0
C114 C 0.54367 0.36978 0.07379 0.0
C115 C 0.62155 0.38709 0.05598 0.0
C116 C 0.58319 0.39791 0.04928 0.0
C117 C 0.54392 0.38887 0.0582 0.0
C118 C 0.61983 0.36796 0.07174 0.0
N119 N 0.58106 0.35915 0.07978 0.0
H120 H 0.51334 0.36437 0.08261 0.0
H121 H 0.64989 0.36083 0.0787 0.0
H122 H 0.57761 0.37991 0.13748 0.0
H123 H 0.66322 0.32879 0.14403 0.0
O124 O 0.52579 0.34195 0.12659 0.0
O125 O 0.56519 0.31369 0.13688 0.0
O126 O 0.63402 0.32258 0.09062 0.0
C127 C 0.53085 0.32489 0.14229 0.0
H128 H 0.52379 0.27385 0.04625 0.0
H129 H 0.64147 0.39032 0.17366 0.0
H130 H 0.65272 0.39386 0.05045 0.0
H131 H 0.5135 0.3968 0.05397 0.0
Co132 Co 0.64981 0.83491 0.40429 0.0
C133 C 0.7189 0.8094 0.43508 0.0
C134 C 0.67235 0.82263 0.46439 0.0
C135 C 0.70259 0.81187 0.48078 0.0
N136 N 0.68279 0.82146 0.43573 0.0
N137 N 0.73166 0.80355 0.46238 0.0
H138 H 0.7359 0.80512 0.41535 0.0
H139 H 0.64454 0.83085 0.47286 0.0
C140 C 0.55646 0.8203 0.41778 0.0
O141 O 0.53833 0.83426 0.40021 0.0
N142 N 0.61718 0.84862 0.37289 0.0
C143 C 0.61907 0.86934 0.36612 0.0
C144 C 0.59036 0.87368 0.3439 0.0
C145 C 0.58935 0.84038 0.35323 0.0
N146 N 0.57091 0.85557 0.33617 0.0
C147 C 0.67897 0.86972 0.43703 0.0
C148 C 0.5995 0.88752 0.44876 0.0
C149 C 0.63715 0.89868 0.45585 0.0
C150 C 0.67724 0.88923 0.45055 0.0
C151 C 0.60269 0.86796 0.43524 0.0
N152 N 0.64212 0.85953 0.42882 0.0
H153 H 0.71024 0.863 0.43232 0.0
H154 H 0.57342 0.86039 0.42865 0.0
H155 H 0.63916 0.8807 0.37714 0.0
H156 H 0.58026 0.82391 0.35303 0.0
O157 O 0.70158 0.84417 0.3847 0.0
O158 O 0.66893 0.81365 0.37687 0.0
O159 O 0.59748 0.81973 0.42142 0.0
C160 C 0.70017 0.82675 0.37025 0.0
H161 H 0.70294 0.81001 0.50442 0.0
H162 H 0.58327 0.88916 0.3348 0.0
H163 H 0.56783 0.89428 0.45228 0.0
H164 H 0.70718 0.89705 0.45622 0.0
Co165 Co 0.09044 0.17743 0.9105 0.0
C166 C 0.16767 0.17661 0.87039 0.0
C167 C 0.11241 0.16034 0.85341 0.0
C168 C 0.14619 0.15794 0.83427 0.0
N169 N 0.12562 0.17206 0.87609 0.0
N170 N 0.18098 0.16807 0.84495 0.0
H171 H 0.1887 0.18514 0.88495 0.0
H172 H 0.08075 0.15327 0.85141 0.0
C173 C 0.99741 0.18002 0.88681 0.0
O174 O 0.9802 0.17896 0.91306 0.0
N175 N 0.05579 0.18279 0.94508 0.0
C176 C 0.05278 0.17053 0.96942 0.0
C177 C 0.0251 0.17992 0.98883 0.0
C178 C 0.03192 0.20008 0.95078 0.0
N179 N 0.01166 0.1984 0.97697 0.0
C180 C 0.1233 0.13636 0.92077 0.0
C181 C 0.04579 0.11496 0.92615 0.0
C182 C 0.08451 0.10394 0.93129 0.0
C183 C 0.1236 0.11492 0.92783 0.0
C184 C 0.04695 0.13651 0.91883 0.0
N185 N 0.08543 0.14704 0.9168 0.0
H186 H 0.15383 0.14456 0.91882 0.0
H187 H 0.01684 0.14469 0.91611 0.0
H188 H 0.06933 0.1557 0.97288 0.0
H189 H 0.02729 0.21296 0.93523 0.0
O190 O 0.14091 0.18202 0.93421 0.0
O191 O 0.10657 0.207 0.90885 0.0
O192 O 0.0384 0.17874 0.88323 0.0
C193 C 0.13769 0.20184 0.92687 0.0
H194 H 0.14533 0.14913 0.81417 0.0
H195 H 0.01524 0.17352 0.00995 0.0
H196 H 0.01476 0.10724 0.92878 0.0
H197 H 0.1544 0.10706 0.93078 0.0
Co198 Co 0.6489 0.17556 0.61212 0.0
C199 C 0.71639 0.2001 0.57822 0.0
C200 C 0.66571 0.18783 0.55121 0.0
C201 C 0.69515 0.19798 0.5334 0.0
N202 N 0.67916 0.18883 0.5793 0.0
N203 N 0.72683 0.2057 0.55038 0.0
H204 H 0.73597 0.20385 0.59706 0.0
H205 H 0.63654 0.18001 0.54408 0.0
C206 C 0.55428 0.18937 0.60192 0.0
O207 O 0.53845 0.17587 0.62119 0.0
N208 N 0.61898 0.16216 0.64493 0.0
C209 C 0.62043 0.14152 0.65222 0.0
C210 C 0.59443 0.13796 0.67621 0.0
C211 C 0.59432 0.17108 0.66581 0.0
N212 N 0.57719 0.15648 0.68444 0.0
C213 C 0.6758 0.14055 0.57875 0.0
C214 C 0.59536 0.12295 0.56921 0.0
C215 C 0.63224 0.11202 0.5601 0.0
C216 C 0.67283 0.12129 0.56459 0.0
C217 C 0.59979 0.14223 0.58328 0.0
N218 N 0.63969 0.15067 0.58836 0.0
H219 H 0.70744 0.14718 0.58266 0.0
H220 H 0.5711 0.1497 0.59103 0.0
H221 H 0.63847 0.12975 0.64053 0.0
H222 H 0.5864 0.18769 0.66587 0.0
O223 O 0.70256 0.16697 0.6299 0.0
O224 O 0.6692 0.19715 0.63859 0.0
O225 O 0.59486 0.19012 0.59645 0.0
C226 C 0.70144 0.18446 0.64421 0.0
H227 H 0.69331 0.19976 0.50978 0.0
H228 H 0.58779 0.12273 0.68627 0.0
H229 H 0.5633 0.11653 0.56593 0.0
H230 H 0.70231 0.11338 0.55827 0.0
Co231 Co 0.08135 0.8341 0.11763 0.0
C232 C 1.00395 0.81982 0.08198 0.0
C233 C 0.04948 0.79548 0.09282 0.0
C234 C 0.01521 0.7865 0.07877 0.0
N235 N 0.04327 0.81646 0.09442 0.0
N236 N 0.9864 0.80172 0.07207 0.0
H237 H 0.98704 0.83463 0.08159 0.0
H238 H 0.0767 0.78709 0.10221 0.0
C239 C 0.13943 0.81372 0.07473 0.0
O240 O 0.11118 0.81923 0.05447 0.0
N241 N 0.11994 0.85029 0.14171 0.0
C242 C 0.11763 0.87084 0.14824 0.0
C243 C 0.15266 0.87579 0.16557 0.0
C244 C 0.15581 0.84297 0.15522 0.0
N245 N 0.17674 0.85823 0.16994 0.0
C246 C 0.04879 0.86753 0.08082 0.0
C247 C 0.12741 0.88081 0.05847 0.0
C248 C 0.09011 0.89232 0.05117 0.0
C249 C 0.05041 0.88531 0.06245 0.0
C250 C 0.12427 0.86292 0.07678 0.0
N251 N 0.08509 0.85614 0.08726 0.0
H252 H 0.01857 0.86386 0.0914 0.0
H253 H 0.15375 0.85519 0.08366 0.0
H254 H 0.09261 0.8815 0.14063 0.0
H255 H 0.166 0.82669 0.15442 0.0
O256 O 0.03252 0.8449 0.13853 0.0
O257 O 0.06805 0.81586 0.15122 0.0
O258 O 0.13307 0.81868 0.10143 0.0
C259 C 0.03634 0.82883 0.15631 0.0
H260 H 0.01155 0.76991 0.07424 0.0
H261 H 0.16006 0.89126 0.17381 0.0
H262 H 0.15892 0.88586 0.05072 0.0
H263 H 0.02103 0.8942 0.05851 0.0
C264 C 0.27813 0.32413 0.34028 0.0
C265 C 0.23796 0.31382 0.33876 0.0
C266 C 0.31097 0.3197 0.32035 0.0
C267 C 0.38221 0.30215 0.28213 0.0
H268 H 0.3471 0.30385 0.20056 0.0
C269 C 0.506 0.30284 0.18572 0.0
C270 C 0.49803 0.31869 0.1645 0.0
C271 C 0.47466 0.29785 0.20704 0.0
C272 C 0.35744 0.30322 0.22324 0.0
H273 H 0.20119 0.29022 0.31573 0.0
H274 H 0.25878 0.28255 0.28043 0.0
H275 H 0.29219 0.3026 0.23894 0.0
H276 H 0.45061 0.34131 0.14856 0.0
H277 H 0.39646 0.33261 0.18534 0.0
H278 H 0.44747 0.30372 0.26636 0.0
C279 C 0.2647 0.2941 0.29716 0.0
C280 C 0.32595 0.30229 0.24525 0.0
C281 C 0.23183 0.29839 0.31743 0.0
C282 C 0.45792 0.32907 0.16465 0.0
C283 C 0.42662 0.32394 0.18561 0.0
C284 C 0.41373 0.30296 0.26009 0.0
C285 C 0.30446 0.30495 0.29816 0.0
C286 C 0.33791 0.30238 0.27497 0.0
C287 C 0.43459 0.30838 0.20719 0.0
C288 C 0.40167 0.30416 0.23041 0.0
H289 H 0.28396 0.33603 0.35655 0.0
H290 H 0.34088 0.32854 0.32158 0.0
H291 H 0.3925 0.30199 0.30482 0.0
H292 H 0.53659 0.29456 0.18613 0.0
H293 H 0.48171 0.28574 0.22336 0.0
C294 C 0.46252 0.69249 0.84752 0.0
C295 C 0.49411 0.67716 0.8418 0.0
C296 C 0.42966 0.6968 0.82701 0.0
C297 C 0.40701 0.69247 0.74805 0.0
H298 H 0.28547 0.6923 0.76891 0.0
C299 C 0.27526 0.67242 0.66577 0.0
C300 C 0.23567 0.68321 0.66599 0.0
C301 C 0.30644 0.67614 0.68712 0.0
C302 C 0.3193 0.69283 0.7628 0.0
H303 H 0.51522 0.65405 0.81029 0.0
H304 H 0.45859 0.66158 0.77496 0.0
H305 H 0.3405 0.69028 0.80759 0.0
H306 H 0.19787 0.70664 0.68851 0.0
H307 H 0.25275 0.71309 0.72636 0.0
H308 H 0.38621 0.6944 0.70339 0.0
C309 C 0.45932 0.67046 0.79503 0.0
C310 C 0.35076 0.69164 0.78494 0.0
C311 C 0.49167 0.66604 0.81547 0.0
C312 C 0.22823 0.69818 0.68776 0.0
C313 C 0.25945 0.70176 0.70948 0.0
C314 C 0.37574 0.6937 0.72604 0.0
C315 C 0.42825 0.68604 0.80033 0.0
C316 C 0.39489 0.69071 0.77768 0.0
C317 C 0.29883 0.69065 0.70945 0.0
C318 C 0.33151 0.69316 0.73307 0.0
H319 H 0.46346 0.70131 0.86763 0.0
H320 H 0.40601 0.70886 0.83169 0.0
H321 H 0.44081 0.69225 0.74182 0.0
H322 H 0.28199 0.6608 0.64928 0.0
H323 H 0.33609 0.66708 0.68666 0.0
C324 C 0.00869 0.6723 0.6972 0.0
C325 C 0.03764 0.65578 0.70366 0.0
C326 C 0.97267 0.67573 0.71488 0.0
C327 C 0.92389 0.66278 0.78753 0.0
H328 H 0.81802 0.67825 0.74704 0.0
C329 C 0.7522 0.665 0.84126 0.0
C330 C 0.72692 0.68268 0.83365 0.0
C331 C 0.79217 0.66169 0.82761 0.0
C332 C 0.84742 0.67408 0.75869 0.0
H333 H 0.05175 0.63045 0.73482 0.0
H334 H 0.98809 0.63598 0.76499 0.0
H335 H 0.88358 0.67251 0.71898 0.0
H336 H 0.72546 0.71148 0.80726 0.0
H337 H 0.79429 0.7055 0.7833 0.0
H338 H 0.88682 0.664 0.82728 0.0
C339 C 0.99366 0.64646 0.74638 0.0
C340 C 0.8851 0.67088 0.74262 0.0
C341 C 0.02999 0.64312 0.72879 0.0
C342 C 0.74333 0.69738 0.81307 0.0
C343 C 0.78292 0.69401 0.79938 0.0
C344 C 0.8859 0.66581 0.80363 0.0
C345 C 0.9642 0.66262 0.73938 0.0
C346 C 0.92399 0.66546 0.75681 0.0
C347 C 0.80736 0.67595 0.80604 0.0
C348 C 0.84746 0.67175 0.78935 0.0
H349 H 0.01297 0.68234 0.67803 0.0
H350 H 0.9512 0.68862 0.70914 0.0
H351 H 0.95332 0.65876 0.7992 0.0
H352 H 0.74043 0.65336 0.85695 0.0
H353 H 0.8104 0.64761 0.83311 0.0
C354 C 0.7217 0.33855 0.19143 0.0
C355 C 0.70558 0.35797 0.18098 0.0
C356 C 0.76119 0.33748 0.20637 0.0
C357 C 0.84102 0.37064 0.24573 0.0
H358 H 0.91803 0.32364 0.2321 0.0
C359 C 0.018 0.36992 0.28598 0.0
C360 C 0.03298 0.35126 0.29958 0.0
C361 C 0.97816 0.37039 0.27149 0.0
C362 C 0.89671 0.33677 0.23633 0.0
H363 H 0.71869 0.39147 0.17779 0.0
H364 H 0.78771 0.38964 0.20341 0.0
H365 H 0.8483 0.32525 0.20714 0.0
H366 H 0.01818 0.3183 0.30787 0.0
H367 H 0.94855 0.3191 0.28251 0.0
H368 H 0.88983 0.38229 0.27458 0.0
C369 C 0.76945 0.37524 0.20069 0.0
C370 C 0.85663 0.33768 0.22208 0.0
C371 C 0.72982 0.37631 0.18593 0.0
C372 C 0.00745 0.33297 0.29786 0.0
C373 C 0.96772 0.33339 0.28312 0.0
C374 C 0.88119 0.3698 0.25979 0.0
C375 C 0.78574 0.3558 0.21108 0.0
C376 C 0.82825 0.35465 0.22655 0.0
C377 C 0.95242 0.35216 0.27003 0.0
C378 C 0.90955 0.35288 0.25521 0.0
H379 H 0.70355 0.32416 0.18835 0.0
H380 H 0.77222 0.32228 0.21449 0.0
H381 H 0.81977 0.38374 0.25019 0.0
H382 H 0.03657 0.38434 0.28715 0.0
H383 H 0.96752 0.38504 0.26136 0.0
C384 C 0.75385 0.83994 0.33393 0.0
C385 C 0.73248 0.82273 0.34718 0.0
C386 C 0.78487 0.83684 0.31232 0.0
C387 C 0.86731 0.80247 0.2864 0.0
H388 H 0.85436 0.83426 0.21357 0.0
C389 C 0.99846 0.80545 0.1935 0.0
C390 C 1.00421 0.82531 0.17991 0.0
C391 C 0.96452 0.80209 0.21352 0.0
C392 C 0.85871 0.82537 0.23384 0.0
H393 H 0.72716 0.78868 0.34852 0.0
H394 H 0.78303 0.78318 0.3108 0.0
H395 H 0.79547 0.83348 0.24897 0.0
H396 H 0.98049 0.85743 0.17773 0.0
H397 H 0.9227 0.85182 0.21286 0.0
H398 H 0.93157 0.79526 0.27185 0.0
C399 C 0.77501 0.79907 0.31712 0.0
C400 C 0.82479 0.8248 0.25396 0.0
C401 C 0.74304 0.80222 0.3385 0.0
C402 C 0.97662 0.84187 0.18753 0.0
C403 C 0.94315 0.83859 0.20753 0.0
C404 C 0.90166 0.80323 0.26629 0.0
C405 C 0.79588 0.81643 0.30373 0.0
C406 C 0.82914 0.81382 0.28074 0.0
C407 C 0.93592 0.81857 0.22028 0.0
C408 C 0.89817 0.81526 0.24017 0.0
H409 H 0.74634 0.85594 0.34009 0.0
H410 H 0.80071 0.85046 0.30248 0.0
H411 H 0.87143 0.79398 0.30701 0.0
H412 H 0.01919 0.79238 0.18794 0.0
H413 H 0.95988 0.78649 0.22298 0.0
C414 C 0.7761 0.18006 0.66349 0.0
C415 C 0.73478 0.18886 0.66643 0.0
C416 C 0.80639 0.18153 0.68604 0.0
C417 C 0.82951 0.20737 0.75753 0.0
H418 H 0.90062 0.15766 0.76967 0.0
C419 C 0.92556 0.18892 0.86438 0.0
C420 C 0.96869 0.18239 0.86094 0.0
C421 C 0.89832 0.19126 0.84006 0.0
C422 C 0.88129 0.17173 0.7664 0.0
H423 H 0.69292 0.20663 0.6948 0.0
H424 H 0.74524 0.20858 0.7349 0.0
H425 H 0.85072 0.15927 0.72854 0.0
H426 H 0.01702 0.1733 0.82912 0.0
H427 H 0.96905 0.17691 0.78674 0.0
H428 H 0.85929 0.2193 0.7964 0.0
C429 C 0.75485 0.20099 0.71487 0.0
C430 C 0.85276 0.17276 0.74268 0.0
C431 C 0.72475 0.19988 0.69193 0.0
C432 C 0.98397 0.1783 0.83258 0.0
C433 C 0.95651 0.18032 0.80831 0.0
C434 C 0.85767 0.20618 0.78157 0.0
C435 C 0.79579 0.19139 0.71247 0.0
C436 C 0.82655 0.19063 0.73776 0.0
C437 C 0.91341 0.18682 0.81181 0.0
C438 C 0.88392 0.18836 0.78617 0.0
H439 H 0.78479 0.17167 0.64386 0.0
H440 H 0.83792 0.17454 0.68286 0.0
H441 H 0.81038 0.22149 0.75436 0.0
H442 H 0.91281 0.19234 0.88589 0.0
H443 H 0.86516 0.19614 0.84342 0.0
C444 C 0.23796 0.15111 0.81593 0.0
C445 C 0.22372 0.16833 0.83223 0.0
C446 C 0.27786 0.15165 0.80171 0.0
C447 C 0.38414 0.17859 0.79778 0.0
H448 H 0.38557 0.15376 0.7207 0.0
C449 C 0.53294 0.17876 0.71727 0.0
C450 C 0.54125 0.1592 0.70429 0.0
C451 C 0.49574 0.18164 0.73441 0.0
C452 C 0.38579 0.16067 0.74225 0.0
H453 H 0.24099 0.1994 0.84725 0.0
H454 H 0.31111 0.20051 0.82196 0.0
H455 H 0.31795 0.15576 0.74759 0.0
H456 H 0.51673 0.12735 0.69958 0.0
H457 H 0.45283 0.13234 0.72931 0.0
H458 H 0.45248 0.18351 0.79199 0.0
C459 C 0.29127 0.1865 0.82039 0.0
C460 C 0.34702 0.16177 0.75775 0.0
C461 C 0.25117 0.18589 0.83486 0.0
C462 C 0.512 0.14255 0.70943 0.0
C463 C 0.47491 0.14547 0.72624 0.0
C464 C 0.42314 0.17761 0.78207 0.0
C465 C 0.30469 0.16951 0.80316 0.0
C466 C 0.34577 0.17024 0.78601 0.0
C467 C 0.46591 0.16511 0.73852 0.0
C468 C 0.42446 0.16817 0.75442 0.0
H469 H 0.21816 0.13712 0.81411 0.0
H470 H 0.28762 0.138 0.78944 0.0
H471 H 0.38436 0.1852 0.8195 0.0
H472 H 0.5549 0.19187 0.71391 0.0
H473 H 0.4896 0.19696 0.74363 0.0
C474 C 0.2276 0.8712 0.20769 0.0
C475 C 0.21647 0.85622 0.1866 0.0
C476 C 0.26593 0.8693 0.2238 0.0
C477 C 0.37363 0.84316 0.22412 0.0
H478 H 0.37399 0.86067 0.30511 0.0
C479 C 0.52301 0.83548 0.30286 0.0
C480 C 0.5324 0.85387 0.31841 0.0
C481 C 0.48465 0.83394 0.28649 0.0
C482 C 0.37444 0.85576 0.28248 0.0
H483 H 0.23801 0.82752 0.16587 0.0
H484 H 0.30398 0.82391 0.19455 0.0
H485 H 0.3067 0.86133 0.27742 0.0
H486 H 0.5082 0.88482 0.32946 0.0
H487 H 0.44204 0.88214 0.30118 0.0
H488 H 0.44169 0.83752 0.22955 0.0
C489 C 0.28324 0.83731 0.19836 0.0
C490 C 0.33588 0.85624 0.26652 0.0
C491 C 0.24495 0.83926 0.18212 0.0
C492 C 0.50253 0.87057 0.31735 0.0
C493 C 0.46422 0.86894 0.30142 0.0
C494 C 0.41226 0.84251 0.24025 0.0
C495 C 0.29424 0.85229 0.21948 0.0
C496 C 0.33502 0.85035 0.23693 0.0
C497 C 0.45465 0.85061 0.2859 0.0
C498 C 0.41321 0.84921 0.26944 0.0
H499 H 0.20657 0.88437 0.21205 0.0
H500 H 0.27353 0.88138 0.23947 0.0
H501 H 0.3744 0.83866 0.20135 0.0
H502 H 0.54537 0.82237 0.30327 0.0
H503 H 0.47804 0.81959 0.27478 0.0
C504 C 0.12162 0.56445 0.56464 0.0
C505 C 0.12237 0.58278 0.54686 0.0
C506 C 0.1167 0.54461 0.55233 0.0
C507 C 0.13221 0.51699 0.48268 0.0
H508 H 0.06962 0.47199 0.52278 0.0
C509 C 0.11259 0.43529 0.43181 0.0
C510 C 0.12098 0.41775 0.45021 0.0
C511 C 0.10812 0.45537 0.44338 0.0
C512 C 0.08744 0.48437 0.51144 0.0
H513 H 0.11713 0.59459 0.50213 0.0
H514 H 0.10753 0.55991 0.4806 0.0
H515 H 0.06906 0.50744 0.54274 0.0
H516 H 0.12973 0.40753 0.4954 0.0
H517 H 0.12171 0.44274 0.51572 0.0
H518 H 0.15074 0.49392 0.45148 0.0
C519 C 0.11157 0.56091 0.50411 0.0
C520 C 0.08715 0.50469 0.52285 0.0
C521 C 0.1166 0.58082 0.51647 0.0
C522 C 0.12305 0.42067 0.48065 0.0
C523 C 0.11847 0.44084 0.49227 0.0
C524 C 0.13232 0.49672 0.47122 0.0
C525 C 0.11212 0.54253 0.52187 0.0
C526 C 0.10988 0.52122 0.50876 0.0
C527 C 0.11173 0.45847 0.47368 0.0
C528 C 0.11021 0.48013 0.48556 0.0
H529 H 0.12521 0.56539 0.5882 0.0
H530 H 0.11772 0.53086 0.56669 0.0
H531 H 0.15072 0.52919 0.47152 0.0
H532 H 0.10977 0.43352 0.40831 0.0
H533 H 0.10202 0.46853 0.42852 0.0
C534 C 0.61519 0.58086 0.96106 0.0
C535 C 0.58819 0.58696 0.9376 0.0
C536 C 0.61488 0.56017 0.97192 0.0
C537 C 0.58625 0.50556 0.95371 0.0
H538 H 0.58663 0.49736 0.03816 0.0
C539 C 0.61128 0.42385 0.0113 0.0
C540 C 0.58397 0.41925 0.03522 0.0
C541 C 0.61165 0.44404 0.99833 0.0
C542 C 0.58632 0.49935 0.01453 0.0
H543 H 0.53985 0.57596 0.90703 0.0
H544 H 0.53914 0.53963 0.9262 0.0
H545 H 0.5865 0.53295 0.01735 0.0
H546 H 0.53634 0.43239 0.06461 0.0
H547 H 0.53678 0.46737 0.04195 0.0
H548 H 0.58571 0.47183 0.95103 0.0
C549 C 0.56079 0.55095 0.93599 0.0
C550 C 0.58664 0.51976 1.0026 0.0
C551 C 0.56091 0.57177 0.92518 0.0
C552 C 0.55732 0.4353 0.04596 0.0
C553 C 0.5579 0.45544 0.03317 0.0
C554 C 0.58622 0.48507 0.96569 0.0
C555 C 0.58757 0.54497 0.95964 0.0
C556 C 0.58663 0.52314 0.97206 0.0
C557 C 0.58511 0.46009 0.00926 0.0
C558 C 0.58609 0.48175 0.99625 0.0
H559 H 0.63614 0.5922 0.97145 0.0
H560 H 0.6362 0.55605 0.98997 0.0
H561 H 0.58656 0.50764 0.93009 0.0
H562 H 0.63206 0.41179 1.00247 0.0
H563 H 0.63323 0.44718 0.98008 0.0
C564 C 0.59934 0.07576 0.55908 0.0
C565 C 0.62877 0.09062 0.54743 0.0
C566 C 0.59825 0.05518 0.54865 0.0
C567 C 0.66708 0.01657 0.51166 0.0
H568 H 0.55961 0.98649 0.49904 0.0
C569 C 0.66346 0.93603 0.45592 0.0
C570 C 0.63494 0.92055 0.46694 0.0
C571 C 0.66151 0.95669 0.46583 0.0
C572 C 0.58991 0.99458 0.50281 0.0
H573 H 0.67887 0.09564 0.51477 0.0
H574 H 0.67708 0.05973 0.49668 0.0
H575 H 0.55778 0.02292 0.51544 0.0
H576 H 0.58188 0.91469 0.49703 0.0
H577 H 0.57868 0.95084 0.51462 0.0
H578 H 0.6993 0.98831 0.49931 0.0
C579 C 0.65532 0.06393 0.51423 0.0
C580 C 0.58885 0.01547 0.51214 0.0
C581 C 0.65633 0.08452 0.5246 0.0
C582 C 0.60413 0.92628 0.48799 0.0
C583 C 0.60225 0.947 0.498 0.0
C584 C 0.66815 0.99571 0.50244 0.0
C585 C 0.62667 0.04894 0.52639 0.0
C586 C 0.62745 0.02674 0.5165 0.0
C587 C 0.63104 0.96244 0.48709 0.0
C588 C 0.6296 0.98448 0.49772 0.0
H589 H 0.57809 0.07981 0.57698 0.0
H590 H 0.57612 0.04396 0.55869 0.0
H591 H 0.69741 0.02465 0.51539 0.0
H592 H 0.68693 0.93228 0.43918 0.0
H593 H 0.68356 0.96824 0.45646 0.0
C594 C 0.06083 0.91766 0.01309 0.0
C595 C 0.09255 0.9125 0.03411 0.0
C596 C 0.06074 0.93744 0.99906 0.0
C597 C 0.12879 0.985 0.98466 0.0
H598 H 0.01811 0.01292 0.9748 0.0
C599 C 0.11493 0.07428 0.96212 0.0
C600 C 0.08457 0.08141 0.94121 0.0
C601 C 0.11586 0.05318 0.97128 0.0
C602 C 0.04923 0.00525 0.97704 0.0
H603 H 0.14936 0.92408 0.05658 0.0
H604 H 0.14913 0.95857 0.03233 0.0
H605 H 0.02064 0.9769 0.99423 0.0
H606 H 0.03109 0.07172 0.91375 0.0
H607 H 0.0324 0.03482 0.93011 0.0
H608 H 0.15737 0.01354 0.96805 0.0
C609 C 0.12468 0.94722 0.02624 0.0
C610 C 0.05072 0.98456 0.98814 0.0
C611 C 0.12486 0.9274 0.04018 0.0
C612 C 0.05466 0.06686 0.93006 0.0
C613 C 0.05546 0.0457 0.93939 0.0
C614 C 0.12729 0.0057 0.9737 0.0
C615 C 0.09228 0.95261 0.00577 0.0
C616 C 0.09056 0.97422 0.99238 0.0
C617 C 0.08628 0.0386 0.95998 0.0
C618 C 0.08754 0.01616 0.97005 0.0
H619 H 0.03578 0.90644 0.00767 0.0
H620 H 0.03579 0.94087 0.98302 0.0
H621 H 0.15999 0.97744 0.98708 0.0
H622 H 0.13777 0.08508 0.97178 0.0
H623 H 0.13941 0.04835 0.98764 0.0
C624 C 0.26346 0.29437 0.49754 0.0
C625 C 0.26281 0.29915 0.46735 0.0
C626 C 0.29896 0.28433 0.51033 0.0
C627 C 0.413 0.27175 0.50577 0.0
H628 H 0.37875 0.22003 0.54601 0.0
C629 C 0.53686 0.21333 0.559 0.0
C630 C 0.52416 0.20321 0.58531 0.0
C631 C 0.50742 0.22573 0.54296 0.0
C632 C 0.38897 0.23455 0.53528 0.0
H633 H 0.30049 0.29855 0.4273 0.0
H634 H 0.36351 0.28124 0.45005 0.0
H635 H 0.32443 0.24159 0.52144 0.0
H636 H 0.47122 0.19889 0.61598 0.0
H637 H 0.42065 0.2209 0.58877 0.0
H638 H 0.47749 0.26505 0.52049 0.0
C639 C 0.33599 0.28515 0.46357 0.0
C640 C 0.3578 0.24682 0.52103 0.0
C641 C 0.30004 0.2951 0.45062 0.0
C642 C 0.48187 0.20619 0.59559 0.0
C643 C 0.45273 0.21874 0.57982 0.0
C644 C 0.44433 0.25956 0.52046 0.0
C645 C 0.335 0.27904 0.49334 0.0
C646 C 0.36934 0.26567 0.50651 0.0
C647 C 0.46479 0.22843 0.55305 0.0
C648 C 0.43252 0.24096 0.53582 0.0
H649 H 0.23579 0.29776 0.51118 0.0
H650 H 0.29775 0.28014 0.53344 0.0
H651 H 0.42262 0.28625 0.4947 0.0
H652 H 0.56925 0.21131 0.55047 0.0
H653 H 0.5178 0.2328 0.52237 0.0
C654 C 0.46195 0.72748 0.98073 0.0
C655 C 0.46756 0.70607 0.98811 0.0
C656 C 0.42763 0.73888 0.99246 0.0
C657 C 0.31852 0.7325 0.02145 0.0
H658 H 0.33584 0.78834 0.05277 0.0
C659 C 0.17912 0.79106 0.03951 0.0
C660 C 0.1779 0.80131 0.06656 0.0
C661 C 0.21492 0.77899 0.03177 0.0
C662 C 0.33061 0.77272 0.04426 0.0
H663 H 0.4416 0.6798 0.01344 0.0
H664 H 0.38105 0.69969 0.03367 0.0
H665 H 0.39818 0.76801 0.03611 0.0
H666 H 0.21353 0.80716 0.10657 0.0
H667 H 0.27669 0.78631 0.09268 0.0
H668 H 0.25091 0.73736 0.02904 0.0
C669 C 0.40344 0.70763 0.01893 0.0
C670 C 0.36617 0.76116 0.03456 0.0
C671 C 0.43817 0.6963 0.00753 0.0
C672 C 0.21349 0.7994 0.0856 0.0
C673 C 0.24967 0.78756 0.07763 0.0
C674 C 0.28293 0.74417 0.03076 0.0
C675 C 0.39784 0.72904 0.01151 0.0
C676 C 0.36044 0.74098 0.02293 0.0
C677 C 0.25057 0.77713 0.05071 0.0
C678 C 0.28859 0.76443 0.0421 0.0
H679 H 0.48437 0.73547 0.96608 0.0
H680 H 0.4239 0.75532 0.98619 0.0
H681 H 0.31314 0.71705 0.01241 0.0
H682 H 0.15218 0.79216 0.02438 0.0
H683 H 0.21495 0.7713 0.01075 0.0
C684 C 0.30515 0.70647 0.55729 0.0
C685 C 0.27023 0.7019 0.53867 0.0
C686 C 0.34281 0.71592 0.54604 0.0
C687 C 0.39902 0.72933 0.47532 0.0
H688 H 0.44737 0.77549 0.51934 0.0
C689 C 0.4879 0.79971 0.42224 0.0
C690 C 0.52877 0.80484 0.43352 0.0
C691 C 0.46182 0.78479 0.43653 0.0
C692 C 0.43454 0.76245 0.50701 0.0
H693 H 0.24879 0.70246 0.4934 0.0
H694 H 0.31292 0.71949 0.47412 0.0
H695 H 0.39224 0.75283 0.54187 0.0
H696 H 0.57417 0.79863 0.46888 0.0
H697 H 0.52754 0.77293 0.4945 0.0
H698 H 0.43953 0.73988 0.43988 0.0
C699 C 0.31192 0.71563 0.49732 0.0
C700 C 0.4031 0.74938 0.51992 0.0
C701 C 0.27463 0.70612 0.50848 0.0
C702 C 0.54284 0.79492 0.45964 0.0
C703 C 0.51624 0.7803 0.47432 0.0
C704 C 0.42981 0.7426 0.46231 0.0
C705 C 0.34633 0.72098 0.51594 0.0
C706 C 0.38411 0.73296 0.50395 0.0
C707 C 0.47567 0.775 0.46271 0.0
C708 C 0.44714 0.75954 0.47781 0.0
H709 H 0.30283 0.70348 0.58066 0.0
H710 H 0.36886 0.71954 0.561 0.0
H711 H 0.3861 0.71653 0.4626 0.0
H712 H 0.47626 0.807 0.40209 0.0
H713 H 0.43048 0.78109 0.42731 0.0
C714 C 0.19384 0.21195 0.9631 0.0
C715 C 0.16811 0.21747 0.9388 0.0
C716 C 0.22329 0.22629 0.97453 0.0
C717 C 0.2915 0.2706 0.95407 0.0
H718 H 0.306 0.27509 0.03822 0.0
C719 C 0.45322 0.28922 0.00957 0.0
C720 C 0.45376 0.30139 0.03497 0.0
C721 C 0.41422 0.28418 0.99599 0.0
C722 C 0.30199 0.27436 0.01467 0.0
H723 H 0.15285 0.24239 0.90742 0.0
H724 H 0.20546 0.2675 0.92716 0.0
H725 H 0.24373 0.25626 0.01876 0.0
H726 H 0.41409 0.31851 0.06552 0.0
H727 H 0.34539 0.3095 0.04188 0.0
H728 H 0.35077 0.28798 0.95004 0.0
C729 C 0.20236 0.25205 0.93742 0.0
C730 C 0.26654 0.26341 1.00355 0.0
C731 C 0.17227 0.23774 0.9262 0.0
C732 C 0.41456 0.3092 0.04587 0.0
C733 C 0.37533 0.30393 0.03247 0.0
C734 C 0.32722 0.2814 0.96522 0.0
C735 C 0.22811 0.24644 0.96174 0.0
C736 C 0.2616 0.2609 0.97318 0.0
C737 C 0.37474 0.29103 0.00768 0.0
C738 C 0.33345 0.28289 0.99566 0.0
H739 H 0.1913 0.19648 0.97336 0.0
H740 H 0.24313 0.22139 0.993 0.0
H741 H 0.28858 0.26885 0.93058 0.0
H742 H 0.48306 0.28319 1.00059 0.0
H743 H 0.4149 0.27404 0.97714 0.0
C744 C 0.02383 0.70794 0.58358 0.0
C745 C 0.02087 0.68587 0.58381 0.0
C746 C 0.99321 0.72024 0.56864 0.0
C747 C 0.8841 0.7176 0.53291 0.0
H748 H 0.92043 0.77145 0.49971 0.0
C749 C 0.77551 0.77124 0.45831 0.0
C750 C 0.76824 0.79094 0.47093 0.0
C751 C 0.80793 0.7579 0.46945 0.0
C752 C 0.90997 0.75639 0.50878 0.0
H753 H 0.98367 0.65933 0.56842 0.0
H754 H 0.9313 0.68064 0.54125 0.0
H755 H 0.97327 0.74886 0.52434 0.0
H756 H 0.78979 0.81259 0.50396 0.0
H757 H 0.84769 0.78969 0.52264 0.0
H758 H 0.8209 0.72518 0.51634 0.0
C759 C 0.95632 0.68862 0.55339 0.0
C760 C 0.94009 0.74349 0.52324 0.0
C761 C 0.98648 0.67633 0.56891 0.0
C762 C 0.79496 0.79746 0.49394 0.0
C763 C 0.82799 0.78441 0.50454 0.0
C764 C 0.85423 0.73034 0.51785 0.0
C765 C 0.95931 0.7108 0.55289 0.0
C766 C 0.9275 0.72405 0.53604 0.0
C767 C 0.83422 0.76435 0.4928 0.0
C768 C 0.86677 0.74997 0.50606 0.0
H769 H 0.04985 0.71573 0.59506 0.0
H770 H 0.99618 0.73721 0.56962 0.0
H771 H 0.87272 0.70299 0.54275 0.0
H772 H 0.75494 0.76587 0.44073 0.0
H773 H 0.81222 0.74249 0.46005 0.0
C774 C 0.68993 0.30199 0.02683 0.0
C775 C 0.68455 0.30938 0.05547 0.0
C776 C 0.72708 0.29089 0.01913 0.0
C777 C 0.84057 0.2815 0.0379 0.0
H778 H 0.82365 0.22858 0.99815 0.0
C779 C 0.97784 0.23357 0.98173 0.0
C780 C 0.97795 0.2118 0.988 0.0
C781 C 0.94374 0.24627 0.99129 0.0
C782 C 0.82889 0.2433 0.00929 0.0
H783 H 0.71459 0.31139 0.0983 0.0
H784 H 0.7801 0.29219 0.08458 0.0
H785 H 0.76099 0.24946 0.01223 0.0
H786 H 0.94227 0.18632 0.00911 0.0
H787 H 0.88285 0.20837 0.0255 0.0
H788 H 0.90869 0.27533 0.03461 0.0
C789 C 0.75527 0.29496 0.06821 0.0
C790 C 0.79306 0.25531 0.01718 0.0
C791 C 0.71771 0.30583 0.07609 0.0
C792 C 0.94348 0.20306 1.00423 0.0
C793 C 0.90922 0.21565 0.01339 0.0
C794 C 0.87657 0.26961 0.02957 0.0
C795 C 0.76003 0.28714 0.03974 0.0
C796 C 0.79846 0.27451 0.03162 0.0
C797 C 0.90878 0.23734 0.00684 0.0
C798 C 0.87102 0.25033 0.01532 0.0
H799 H 0.66505 0.30442 0.01041 0.0
H800 H 0.73005 0.28522 0.99696 0.0
H801 H 0.84564 0.2963 0.04888 0.0
H802 H 1.00406 0.24074 0.96939 0.0
H803 H 0.94412 0.26294 0.98583 0.0
C804 C 0.01827 0.29495 0.41824 0.0
C805 C 0.01933 0.31699 0.42003 0.0
C806 C 0.98738 0.28318 0.43382 0.0
C807 C 0.88382 0.28834 0.47587 0.0
H808 H 0.9144 0.23207 0.50308 0.0
C809 C 0.77566 0.23644 0.55307 0.0
C810 C 0.76387 0.21737 0.54012 0.0
C811 C 0.80864 0.24892 0.54073 0.0
C812 C 0.90556 0.2478 0.49568 0.0
H813 H 0.98907 0.34404 0.43974 0.0
H814 H 0.93638 0.3236 0.46792 0.0
H815 H 0.96781 0.25351 0.47693 0.0
H816 H 0.7781 0.19588 0.50517 0.0
H817 H 0.8369 0.21724 0.48425 0.0
H818 H 0.8218 0.28257 0.49561 0.0
C819 C 0.95831 0.31528 0.45373 0.0
C820 C 0.93596 0.26006 0.48037 0.0
C821 C 0.98867 0.32707 0.43761 0.0
C822 C 0.78669 0.21055 0.51544 0.0
C823 C 0.82028 0.22272 0.50358 0.0
C824 C 0.85376 0.27621 0.49175 0.0
C825 C 0.9573 0.29312 0.45221 0.0
C826 C 0.92536 0.28041 0.46976 0.0
C827 C 0.83102 0.24219 0.51576 0.0
C828 C 0.86417 0.25573 0.50142 0.0
H829 H 0.04138 0.28675 0.40472 0.0
H830 H 0.98714 0.26626 0.43131 0.0
H831 H 0.87393 0.30372 0.46778 0.0
H832 H 0.7582 0.24204 0.57197 0.0
H833 H 0.81646 0.26389 0.55051 0.0
C834 C 0.702 0.71417 0.95906 0.0
C835 C 0.66638 0.72229 0.94347 0.0
C836 C 0.73381 0.72749 0.96976 0.0
C837 C 0.7583 0.78008 0.99443 0.0
H838 H 0.87608 0.76089 0.98289 0.0
C839 C 0.9268 0.81391 0.03939 0.0
C840 C 0.94502 0.79851 0.05823 0.0
C841 C 0.88945 0.80936 0.0231 0.0
C842 C 0.84342 0.76665 0.98589 0.0
H843 H 0.6356 0.75096 0.92761 0.0
H844 H 0.69179 0.77459 0.94693 0.0
H845 H 0.81696 0.74389 0.95694 0.0
H846 H 0.93617 0.76705 0.07663 0.0
H847 H 0.87214 0.75907 0.04789 0.0
H848 H 0.78537 0.80229 0.02458 0.0
C849 C 0.69477 0.75774 0.95053 0.0
C850 C 0.8096 0.75688 0.9712 0.0
C851 C 0.66276 0.74426 0.93949 0.0
C852 C 0.92373 0.77905 0.06176 0.0
C853 C 0.88688 0.77452 0.04551 0.0
C854 C 0.79245 0.78996 0.00918 0.0
C855 C 0.73099 0.74938 0.96531 0.0
C856 C 0.76655 0.76288 0.97621 0.0
C857 C 0.87006 0.78938 0.02554 0.0
C858 C 0.83503 0.78276 0.00572 0.0
H859 H 0.7058 0.69736 0.96275 0.0
H860 H 0.76084 0.7206 0.98161 0.0
H861 H 0.7254 0.78496 0.99872 0.0
H862 H 0.94254 0.82903 0.03622 0.0
H863 H 0.87693 0.82101 0.0077 0.0
loop_
_geom_bond_atom_site_label_1
_geom_bond_atom_site_label_2
_geom_bond_distance
_geom_bond_site_symmetry_2
_ccdc_geom_bond_type
Co0 N4 2.148 . S
Co0 N10 2.128 . S
Co0 N20 2.194 . S
Co0 O25 2.351 . S
Co0 O26 2.155 . S
Co0 O27 2.096 . S
C1 N4 1.301 . S
C1 N5 1.328 . S
C1 H6 0.930 . S
C2 C3 1.333 . S
C2 N4 1.317 . S
C2 H7 0.930 . S
C3 C2 1.333 . S
C3 N5 1.350 . S
C3 H29 0.931 . S
N4 Co0 2.148 . S
N4 C1 1.301 . S
N4 C2 1.317 . S
N5 C1 1.328 . S
N5 C3 1.350 . S
H6 C1 0.930 . S
H7 C2 0.930 . S
C8 O9 1.224 . S
C8 O27 1.247 . S
O9 C8 1.224 . S
N10 Co0 2.128 . S
N10 C11 1.355 . S
N10 C13 1.311 . S
C11 N10 1.355 . S
C11 C12 1.363 . S
C11 H23 0.929 . S
C12 C11 1.363 . S
C12 N14 1.375 . S
C12 H30 0.931 . S
C13 N10 1.311 . S
C13 N14 1.347 . S
C13 H24 0.929 . S
N14 C12 1.375 . S
N14 C13 1.347 . S
C15 C18 1.365 . S
C15 N20 1.328 . S
C15 H21 0.929 . S
C16 C17 1.362 . S
C16 C19 1.378 . S
C16 H31 0.929 . S
C17 C16 1.362 . S
C17 C18 1.366 . S
C18 C15 1.365 . S
C18 C17 1.366 . S
C18 H32 0.930 . S
C19 C16 1.378 . S
C19 N20 1.315 . S
C19 H22 0.930 . S
N20 Co0 2.194 . S
N20 C15 1.328 . S
N20 C19 1.315 . S
H21 C15 0.929 . S
H22 C19 0.930 . S
H23 C11 0.929 . S
H24 C13 0.929 . S
O25 Co0 2.351 . S
O25 C28 1.244 . S
O26 Co0 2.155 . S
O26 C28 1.240 . S
O27 Co0 2.096 . S
O27 C8 1.247 . S
C28 O25 1.244 . S
C28 O26 1.240 . S
H29 C3 0.931 . S
H30 C12 0.931 . S
H31 C16 0.929 . S
H32 C18 0.930 . S
Co33 N37 2.148 . S
Co33 N43 2.128 . S
Co33 N53 2.194 . S
Co33 O58 2.351 . S
Co33 O59 2.155 . S
Co33 O60 2.096 . S
C34 N37 1.301 . S
C34 N38 1.328 . S
C34 H39 0.930 . S
C35 C36 1.333 . S
C35 N37 1.317 . S
C35 H40 0.930 . S
C36 C35 1.333 . S
C36 N38 1.350 . S
C36 H62 0.931 . S
N37 Co33 2.148 . S
N37 C34 1.301 . S
N37 C35 1.317 . S
N38 C34 1.328 . S
N38 C36 1.350 . S
H39 C34 0.930 . S
H40 C35 0.930 . S
C41 O42 1.224 . S
C41 O60 1.247 . S
O42 C41 1.224 . S
N43 Co33 2.128 . S
N43 C44 1.355 . S
N43 C46 1.311 . S
C44 N43 1.355 . S
C44 C45 1.363 . S
C44 H56 0.929 . S
C45 C44 1.363 . S
C45 N47 1.375 . S
C45 H63 0.931 . S
C46 N43 1.311 . S
C46 N47 1.347 . S
C46 H57 0.929 . S
N47 C45 1.375 . S
N47 C46 1.347 . S
C48 C51 1.365 . S
C48 N53 1.328 . S
C48 H54 0.929 . S
C49 C50 1.362 . S
C49 C52 1.378 . S
C49 H64 0.929 . S
C50 C49 1.362 . S
C50 C51 1.366 . S
C51 C48 1.365 . S
C51 C50 1.366 . S
C51 H65 0.930 . S
C52 C49 1.378 . S
C52 N53 1.315 . S
C52 H55 0.930 . S
N53 Co33 2.194 . S
N53 C48 1.328 . S
N53 C52 1.315 . S
H54 C48 0.929 . S
H55 C52 0.930 . S
H56 C44 0.929 . S
H57 C46 0.929 . S
O58 Co33 2.351 . S
O58 C61 1.244 . S
O59 Co33 2.155 . S
O59 C61 1.240 . S
O60 Co33 2.096 . S
O60 C41 1.247 . S
C61 O58 1.244 . S
C61 O59 1.240 . S
H62 C36 0.931 . S
H63 C45 0.931 . S
H64 C49 0.929 . S
H65 C51 0.930 . S
Co66 N70 2.148 . S
Co66 N76 2.128 . S
Co66 N86 2.194 . S
Co66 O91 2.351 . S
Co66 O92 2.155 . S
Co66 O93 2.096 . S
C67 N70 1.301 . S
C67 N71 1.328 . S
C67 H72 0.930 . S
C68 C69 1.333 . S
C68 N70 1.317 . S
C68 H73 0.930 . S
C69 C68 1.333 . S
C69 N71 1.350 . S
C69 H95 0.931 . S
N70 Co66 2.148 . S
N70 C67 1.301 . S
N70 C68 1.317 . S
N71 C67 1.328 . S
N71 C69 1.350 . S
H72 C67 0.930 . S
H73 C68 0.930 . S
C74 O75 1.224 . S
C74 O93 1.247 . S
O75 C74 1.224 . S
N76 Co66 2.128 . S
N76 C77 1.355 . S
N76 C79 1.311 . S
C77 N76 1.355 . S
C77 C78 1.363 . S
C77 H89 0.929 . S
C78 C77 1.363 . S
C78 N80 1.375 . S
C78 H96 0.931 . S
C79 N76 1.311 . S
C79 N80 1.347 . S
C79 H90 0.929 . S
N80 C78 1.375 . S
N80 C79 1.347 . S
C81 C84 1.365 . S
C81 N86 1.328 . S
C81 H87 0.929 . S
C82 C83 1.362 . S
C82 C85 1.378 . S
C82 H97 0.929 . S
C83 C82 1.362 . S
C83 C84 1.366 . S
C84 C81 1.365 . S
C84 C83 1.366 . S
C84 H98 0.930 . S
C85 C82 1.378 . S
C85 N86 1.315 . S
C85 H88 0.930 . S
N86 Co66 2.194 . S
N86 C81 1.328 . S
N86 C85 1.315 . S
H87 C81 0.929 . S
H88 C85 0.930 . S
H89 C77 0.929 . S
H90 C79 0.929 . S
O91 Co66 2.351 . S
O91 C94 1.244 . S
O92 Co66 2.155 . S
O92 C94 1.240 . S
O93 Co66 2.096 . S
O93 C74 1.247 . S
C94 O91 1.244 . S
C94 O92 1.240 . S
H95 C69 0.931 . S
H96 C78 0.931 . S
H97 C82 0.929 . S
H98 C84 0.930 . S
Co99 N103 2.148 . S
Co99 N109 2.128 . S
Co99 N119 2.194 . S
Co99 O124 2.351 . S
Co99 O125 2.155 . S
Co99 O126 2.096 . S
C100 N103 1.301 . S
C100 N104 1.328 . S
C100 H105 0.930 . S
C101 C102 1.333 . S
C101 N103 1.317 . S
C101 H106 0.930 . S
C102 C101 1.333 . S
C102 N104 1.350 . S
C102 H128 0.931 . S
N103 Co99 2.148 . S
N103 C100 1.301 . S
N103 C101 1.317 . S
N104 C100 1.328 . S
N104 C102 1.350 . S
H105 C100 0.930 . S
H106 C101 0.930 . S
C107 O108 1.224 . S
C107 O126 1.247 . S
O108 C107 1.224 . S
N109 Co99 2.128 . S
N109 C110 1.355 . S
N109 C112 1.311 . S
C110 N109 1.355 . S
C110 C111 1.363 . S
C110 H122 0.929 . S
C111 C110 1.363 . S
C111 N113 1.375 . S
C111 H129 0.931 . S
C112 N109 1.311 . S
C112 N113 1.347 . S
C112 H123 0.929 . S
N113 C111 1.375 . S
N113 C112 1.347 . S
C114 C117 1.365 . S
C114 N119 1.328 . S
C114 H120 0.929 . S
C115 C116 1.362 . S
C115 C118 1.378 . S
C115 H130 0.929 . S
C116 C115 1.362 . S
C116 C117 1.366 . S
C117 C114 1.365 . S
C117 C116 1.366 . S
C117 H131 0.930 . S
C118 C115 1.378 . S
C118 N119 1.315 . S
C118 H121 0.930 . S
N119 Co99 2.194 . S
N119 C114 1.328 . S
N119 C118 1.315 . S
H120 C114 0.929 . S
H121 C118 0.930 . S
H122 C110 0.929 . S
H123 C112 0.929 . S
O124 Co99 2.351 . S
O124 C127 1.244 . S
O125 Co99 2.155 . S
O125 C127 1.240 . S
O126 Co99 2.096 . S
O126 C107 1.247 . S
C127 O124 1.244 . S
C127 O125 1.240 . S
H128 C102 0.931 . S
H129 C111 0.931 . S
H130 C115 0.929 . S
H131 C117 0.930 . S
Co132 N136 2.148 . S
Co132 N142 2.128 . S
Co132 N152 2.194 . S
Co132 O157 2.351 . S
Co132 O158 2.155 . S
Co132 O159 2.096 . S
C133 N136 1.301 . S
C133 N137 1.328 . S
C133 H138 0.930 . S
C134 C135 1.333 . S
C134 N136 1.317 . S
C134 H139 0.930 . S
C135 C134 1.333 . S
C135 N137 1.350 . S
C135 H161 0.931 . S
N136 Co132 2.148 . S
N136 C133 1.301 . S
N136 C134 1.317 . S
N137 C133 1.328 . S
N137 C135 1.350 . S
H138 C133 0.930 . S
H139 C134 0.930 . S
C140 O141 1.224 . S
C140 O159 1.247 . S
O141 C140 1.224 . S
N142 Co132 2.128 . S
N142 C143 1.355 . S
N142 C145 1.311 . S
C143 N142 1.355 . S
C143 C144 1.363 . S
C143 H155 0.929 . S
C144 C143 1.363 . S
C144 N146 1.375 . S
C144 H162 0.931 . S
C145 N142 1.311 . S
C145 N146 1.347 . S
C145 H156 0.929 . S
N146 C144 1.375 . S
N146 C145 1.347 . S
C147 C150 1.365 . S
C147 N152 1.328 . S
C147 H153 0.929 . S
C148 C149 1.362 . S
C148 C151 1.378 . S
C148 H163 0.929 . S
C149 C148 1.362 . S
C149 C150 1.366 . S
C150 C147 1.365 . S
C150 C149 1.366 . S
C150 H164 0.930 . S
C151 C148 1.378 . S
C151 N152 1.315 . S
C151 H154 0.930 . S
N152 Co132 2.194 . S
N152 C147 1.328 . S
N152 C151 1.315 . S
H153 C147 0.929 . S
H154 C151 0.930 . S
H155 C143 0.929 . S
H156 C145 0.929 . S
O157 Co132 2.351 . S
O157 C160 1.244 . S
O158 Co132 2.155 . S
O158 C160 1.240 . S
O159 Co132 2.096 . S
O159 C140 1.247 . S
C160 O157 1.244 . S
C160 O158 1.240 . S
H161 C135 0.931 . S
H162 C144 0.931 . S
H163 C148 0.929 . S
H164 C150 0.930 . S
Co165 N169 2.148 . S
Co165 N175 2.128 . S
Co165 N185 2.194 . S
Co165 O190 2.351 . S
Co165 O191 2.155 . S
Co165 O192 2.096 . S
C166 N169 1.301 . S
C166 N170 1.328 . S
C166 H171 0.930 . S
C167 C168 1.333 . S
C167 N169 1.317 . S
C167 H172 0.930 . S
C168 C167 1.333 . S
C168 N170 1.350 . S
C168 H194 0.931 . S
N169 Co165 2.148 . S
N169 C166 1.301 . S
N169 C167 1.317 . S
N170 C166 1.328 . S
N170 C168 1.350 . S
H171 C166 0.930 . S
H172 C167 0.930 . S
C173 O174 1.225 . S
C173 O192 1.241 1_655 S
O174 C173 1.225 . S
N175 Co165 2.128 . S
N175 C176 1.355 . S
N175 C178 1.311 1_455 S
C176 N175 1.355 . S
C176 C177 1.363 1_455 S
C176 H188 0.929 . S
C177 C176 1.363 1_655 S
C177 N179 1.375 . S
C177 H195 0.931 . S
C178 N175 1.311 1_655 S
C178 N179 1.347 . S
C178 H189 0.929 . S
N179 C177 1.375 . S
N179 C178 1.347 . S
C180 C183 1.365 . S
C180 N185 1.328 . S
C180 H186 0.929 . S
C181 C182 1.362 . S
C181 C184 1.378 . S
C181 H196 0.929 . S
C182 C181 1.362 . S
C182 C183 1.366 . S
C183 C180 1.365 . S
C183 C182 1.366 . S
C183 H197 0.930 . S
C184 C181 1.378 . S
C184 N185 1.315 . S
C184 H187 0.930 . S
N185 Co165 2.194 . S
N185 C180 1.328 . S
N185 C184 1.315 . S
H186 C180 0.929 . S
H187 C184 0.930 . S
H188 C176 0.929 . S
H189 C178 0.929 . S
O190 Co165 2.351 . S
O190 C193 1.244 . S
O191 Co165 2.155 . S
O191 C193 1.240 . S
O192 Co165 2.096 . S
O192 C173 1.241 1_455 S
C193 O190 1.244 . S
C193 O191 1.240 . S
H194 C168 0.931 . S
H195 C177 0.931 . S
H196 C181 0.929 . S
H197 C183 0.930 . S
Co198 N202 2.148 . S
Co198 N208 2.128 . S
Co198 N218 2.194 . S
Co198 O223 2.351 . S
Co198 O224 2.155 . S
Co198 O225 2.096 . S
C199 N202 1.301 . S
C199 N203 1.328 . S
C199 H204 0.930 . S
C200 C201 1.333 . S
C200 N202 1.317 . S
C200 H205 0.930 . S
C201 C200 1.333 . S
C201 N203 1.350 . S
C201 H227 0.931 . S
N202 Co198 2.148 . S
N202 C199 1.301 . S
N202 C200 1.317 . S
N203 C199 1.328 . S
N203 C201 1.350 . S
H204 C199 0.930 . S
H205 C200 0.930 . S
C206 O207 1.224 . S
C206 O225 1.247 . S
O207 C206 1.224 . S
N208 Co198 2.128 . S
N208 C209 1.355 . S
N208 C211 1.311 . S
C209 N208 1.355 . S
C209 C210 1.363 . S
C209 H221 0.929 . S
C210 C209 1.363 . S
C210 N212 1.375 . S
C210 H228 0.931 . S
C211 N208 1.311 . S
C211 N212 1.347 . S
C211 H222 0.929 . S
N212 C210 1.375 . S
N212 C211 1.347 . S
C213 C216 1.365 . S
C213 N218 1.328 . S
C213 H219 0.929 . S
C214 C215 1.362 . S
C214 C217 1.378 . S
C214 H229 0.929 . S
C215 C214 1.362 . S
C215 C216 1.366 . S
C216 C213 1.365 . S
C216 C215 1.366 . S
C216 H230 0.930 . S
C217 C214 1.378 . S
C217 N218 1.315 . S
C217 H220 0.930 . S
N218 Co198 2.194 . S
N218 C213 1.328 . S
N218 C217 1.315 . S
H219 C213 0.929 . S
H220 C217 0.930 . S
H221 C209 0.929 . S
H222 C211 0.929 . S
O223 Co198 2.351 . S
O223 C226 1.244 . S
O224 Co198 2.155 . S
O224 C226 1.240 . S
O225 Co198 2.096 . S
O225 C206 1.247 . S
C226 O223 1.244 . S
C226 O224 1.240 . S
H227 C201 0.931 . S
H228 C210 0.931 . S
H229 C214 0.929 . S
H230 C216 0.930 . S
Co231 N235 2.148 . S
Co231 N241 2.128 . S
Co231 N251 2.194 . S
Co231 O256 2.351 . S
Co231 O257 2.155 . S
Co231 O258 2.096 . S
C232 N235 1.301 1_655 S
C232 N236 1.328 . S
C232 H237 0.930 . S
C233 C234 1.333 1_455 S
C233 N235 1.317 . S
C233 H238 0.930 . S
C234 C233 1.333 1_655 S
C234 N236 1.350 . S
C234 H260 0.931 . S
N235 Co231 2.148 . S
N235 C232 1.301 1_455 S
N235 C233 1.317 . S
N236 C232 1.328 . S
N236 C234 1.350 . S
H237 C232 0.930 . S
H238 C233 0.930 . S
C239 O240 1.224 . S
C239 O258 1.247 . S
O240 C239 1.224 . S
N241 Co231 2.128 . S
N241 C242 1.355 . S
N241 C244 1.311 . S
C242 N241 1.355 . S
C242 C243 1.363 . S
C242 H254 0.929 . S
C243 C242 1.363 . S
C243 N245 1.375 . S
C243 H261 0.931 . S
C244 N241 1.311 . S
C244 N245 1.347 . S
C244 H255 0.929 . S
N245 C243 1.375 . S
N245 C244 1.347 . S
C246 C249 1.365 . S
C246 N251 1.328 . S
C246 H252 0.929 . S
C247 C248 1.362 . S
C247 C250 1.378 . S
C247 H262 0.929 . S
C248 C247 1.362 . S
C248 C249 1.366 . S
C249 C246 1.365 . S
C249 C248 1.366 . S
C249 H263 0.930 . S
C250 C247 1.378 . S
C250 N251 1.315 . S
C250 H253 0.930 . S
N251 Co231 2.194 . S
N251 C246 1.328 . S
N251 C250 1.315 . S
H252 C246 0.929 . S
H253 C250 0.930 . S
H254 C242 0.929 . S
H255 C244 0.929 . S
O256 Co231 2.351 . S
O256 C259 1.244 . S
O257 Co231 2.155 . S
O257 C259 1.240 . S
O258 Co231 2.096 . S
O258 C239 1.247 . S
C259 O256 1.244 . S
C259 O257 1.240 . S
H260 C234 0.931 . S
H261 C243 0.931 . S
H262 C247 0.929 . S
H263 C249 0.930 . S
C264 C265 1.349 . S
C264 C266 1.327 . S
C264 H289 0.950 . S
C265 C264 1.349 . S
C265 C281 1.349 . S
C266 C264 1.327 . S
C266 C285 1.429 . S
C266 H290 0.950 . S
C267 C284 1.574 . S
C267 C286 1.368 . S
C267 H291 0.949 . S
H268 C272 0.949 . S
C269 C270 1.349 . S
C269 C271 1.327 . S
C269 H292 0.950 . S
C270 C269 1.349 . S
C270 C282 1.349 . S
C271 C269 1.327 . S
C271 C287 1.429 . S
C271 H293 0.950 . S
C272 H268 0.949 . S
C272 C280 1.574 . S
C272 C288 1.368 . S
H273 C281 0.950 . S
H274 C279 0.950 . S
H275 C280 0.949 . S
H276 C282 0.950 . S
H277 C283 0.950 . S
H278 C284 0.949 . S
C279 H274 0.950 . S
C279 C281 1.327 . S
C279 C285 1.429 . S
C280 C272 1.574 . S
C280 H275 0.949 . S
C280 C286 1.368 . S
C281 C265 1.349 . S
C281 H273 0.950 . S
C281 C279 1.327 . S
C282 C270 1.349 . S
C282 H276 0.950 . S
C282 C283 1.327 . S
C283 H277 0.950 . S
C283 C282 1.327 . S
C283 C287 1.429 . S
C284 C267 1.574 . S
C284 H278 0.949 . S
C284 C288 1.368 . S
C285 C266 1.429 . S
C285 C279 1.429 . S
C285 C286 1.523 . S
C286 C267 1.368 . S
C286 C280 1.368 . S
C286 C285 1.523 . S
C287 C271 1.429 . S
C287 C283 1.429 . S
C287 C288 1.523 . S
C288 C272 1.368 . S
C288 C284 1.368 . S
C288 C287 1.523 . S
H289 C264 0.950 . S
H290 C266 0.950 . S
H291 C267 0.949 . S
H292 C269 0.950 . S
H293 C271 0.950 . S
C294 C295 1.349 . S
C294 C296 1.327 . S
C294 H319 0.950 . S
C295 C294 1.349 . S
C295 C311 1.349 . S
C296 C294 1.327 . S
C296 C315 1.429 . S
C296 H320 0.950 . S
C297 C314 1.574 . S
C297 C316 1.368 . S
C297 H321 0.949 . S
H298 C302 0.949 . S
C299 C300 1.349 . S
C299 C301 1.327 . S
C299 H322 0.950 . S
C300 C299 1.349 . S
C300 C312 1.349 . S
C301 C299 1.327 . S
C301 C317 1.429 . S
C301 H323 0.950 . S
C302 H298 0.949 . S
C302 C310 1.574 . S
C302 C318 1.368 . S
H303 C311 0.950 . S
H304 C309 0.950 . S
H305 C310 0.949 . S
H306 C312 0.950 . S
H307 C313 0.950 . S
H308 C314 0.949 . S
C309 H304 0.950 . S
C309 C311 1.327 . S
C309 C315 1.429 . S
C310 C302 1.574 . S
C310 H305 0.949 . S
C310 C316 1.368 . S
C311 C295 1.349 . S
C311 H303 0.950 . S
C311 C309 1.327 . S
C312 C300 1.349 . S
C312 H306 0.950 . S
C312 C313 1.327 . S
C313 H307 0.950 . S
C313 C312 1.327 . S
C313 C317 1.429 . S
C314 C297 1.574 . S
C314 H308 0.949 . S
C314 C318 1.368 . S
C315 C296 1.429 . S
C315 C309 1.429 . S
C315 C316 1.523 . S
C316 C297 1.368 . S
C316 C310 1.368 . S
C316 C315 1.523 . S
C317 C301 1.429 . S
C317 C313 1.429 . S
C317 C318 1.523 . S
C318 C302 1.368 . S
C318 C314 1.368 . S
C318 C317 1.523 . S
H319 C294 0.950 . S
H320 C296 0.950 . S
H321 C297 0.949 . S
H322 C299 0.950 . S
H323 C301 0.950 . S
C324 C325 1.349 . S
C324 C326 1.327 . S
C324 H349 0.950 . S
C325 C324 1.349 . S
C325 C341 1.349 . S
C326 C324 1.327 . S
C326 C345 1.429 . S
C326 H350 0.950 . S
C327 C344 1.574 . S
C327 C346 1.368 . S
C327 H351 0.949 . S
H328 C332 0.949 . S
C329 C330 1.349 . S
C329 C331 1.327 . S
C329 H352 0.950 . S
C330 C329 1.349 . S
C330 C342 1.349 . S
C331 C329 1.327 . S
C331 C347 1.429 . S
C331 H353 0.950 . S
C332 H328 0.949 . S
C332 C340 1.574 . S
C332 C348 1.368 . S
H333 C341 0.950 1_455 S
H334 C339 0.950 . S
H335 C340 0.949 . S
H336 C342 0.950 . S
H337 C343 0.950 . S
H338 C344 0.949 . S
C339 H334 0.950 . S
C339 C341 1.327 . S
C339 C345 1.429 . S
C340 C332 1.574 . S
C340 H335 0.949 . S
C340 C346 1.368 . S
C341 C325 1.349 . S
C341 H333 0.950 1_655 S
C341 C339 1.327 . S
C342 C330 1.349 . S
C342 H336 0.950 . S
C342 C343 1.327 . S
C343 H337 0.950 . S
C343 C342 1.327 . S
C343 C347 1.429 . S
C344 C327 1.574 . S
C344 H338 0.949 . S
C344 C348 1.368 . S
C345 C326 1.429 . S
C345 C339 1.429 . S
C345 C346 1.523 . S
C346 C327 1.368 . S
C346 C340 1.368 . S
C346 C345 1.523 . S
C347 C331 1.429 . S
C347 C343 1.429 . S
C347 C348 1.523 . S
C348 C332 1.368 . S
C348 C344 1.368 . S
C348 C347 1.523 . S
H349 C324 0.950 . S
H350 C326 0.950 . S
H351 C327 0.949 . S
H352 C329 0.950 . S
H353 C331 0.950 . S
C354 C355 1.349 . S
C354 C356 1.327 . S
C354 H379 0.950 . S
C355 C354 1.349 . S
C355 C371 1.349 . S
C356 C354 1.327 . S
C356 C375 1.429 . S
C356 H380 0.950 . S
C357 C374 1.574 . S
C357 C376 1.368 . S
C357 H381 0.949 . S
H358 C362 0.949 . S
C359 C360 1.349 . S
C359 C361 1.327 . S
C359 H382 0.950 . S
C360 C359 1.349 . S
C360 C372 1.349 . S
C361 C359 1.327 . S
C361 C377 1.429 . S
C361 H383 0.950 . S
C362 H358 0.949 . S
C362 C370 1.574 . S
C362 C378 1.368 . S
H363 C371 0.950 . S
H364 C369 0.950 . S
H365 C370 0.949 . S
H366 C372 0.950 1_455 S
H367 C373 0.950 . S
H368 C374 0.949 . S
C369 H364 0.950 . S
C369 C371 1.327 . S
C369 C375 1.429 . S
C370 C362 1.574 . S
C370 H365 0.949 . S
C370 C376 1.368 . S
C371 C355 1.349 . S
C371 H363 0.950 . S
C371 C369 1.327 . S
C372 C360 1.349 . S
C372 H366 0.950 1_655 S
C372 C373 1.327 . S
C373 H367 0.950 . S
C373 C372 1.327 . S
C373 C377 1.429 . S
C374 C357 1.574 . S
C374 H368 0.949 . S
C374 C378 1.368 . S
C375 C356 1.429 . S
C375 C369 1.429 . S
C375 C376 1.523 . S
C376 C357 1.368 . S
C376 C370 1.368 . S
C376 C375 1.523 . S
C377 C361 1.429 . S
C377 C373 1.429 . S
C377 C378 1.523 . S
C378 C362 1.368 . S
C378 C374 1.368 . S
C378 C377 1.523 . S
H379 C354 0.950 . S
H380 C356 0.950 . S
H381 C357 0.949 . S
H382 C359 0.950 . S
H383 C361 0.950 . S
C384 C385 1.349 . S
C384 C386 1.327 . S
C384 H409 0.950 . S
C385 C384 1.349 . S
C385 C401 1.349 . S
C386 C384 1.327 . S
C386 C405 1.429 . S
C386 H410 0.950 . S
C387 C404 1.574 . S
C387 C406 1.368 . S
C387 H411 0.949 . S
H388 C392 0.949 . S
C389 C390 1.349 . S
C389 C391 1.327 . S
C389 H412 0.950 . S
C390 C389 1.349 . S
C390 C402 1.349 . S
C391 C389 1.327 . S
C391 C407 1.429 . S
C391 H413 0.950 . S
C392 H388 0.949 . S
C392 C400 1.574 . S
C392 C408 1.368 . S
H393 C401 0.950 . S
H394 C399 0.950 . S
H395 C400 0.949 . S
H396 C402 0.950 1_455 S
H397 C403 0.950 . S
H398 C404 0.949 . S
C399 H394 0.950 . S
C399 C401 1.327 . S
C399 C405 1.429 . S
C400 C392 1.574 . S
C400 H395 0.949 . S
C400 C406 1.368 . S
C401 C385 1.349 . S
C401 H393 0.950 . S
C401 C399 1.327 . S
C402 C390 1.349 . S
C402 H396 0.950 1_655 S
C402 C403 1.327 . S
C403 H397 0.950 . S
C403 C402 1.327 . S
C403 C407 1.429 . S
C404 C387 1.574 . S
C404 H398 0.949 . S
C404 C408 1.368 . S
C405 C386 1.429 . S
C405 C399 1.429 . S
C405 C406 1.523 . S
C406 C387 1.368 . S
C406 C400 1.368 . S
C406 C405 1.523 . S
C407 C391 1.429 . S
C407 C403 1.429 . S
C407 C408 1.523 . S
C408 C392 1.368 . S
C408 C404 1.368 . S
C408 C407 1.523 . S
H409 C384 0.950 . S
H410 C386 0.950 . S
H411 C387 0.949 . S
H412 C389 0.950 . S
H413 C391 0.950 . S
C414 C415 1.349 . S
C414 C416 1.327 . S
C414 H439 0.950 . S
C415 C414 1.349 . S
C415 C431 1.349 . S
C416 C414 1.327 . S
C416 C435 1.429 . S
C416 H440 0.950 . S
C417 C434 1.574 . S
C417 C436 1.368 . S
C417 H441 0.949 . S
H418 C422 0.949 . S
C419 C420 1.349 . S
C419 C421 1.327 . S
C419 H442 0.950 . S
C420 C419 1.349 . S
C420 C432 1.349 . S
C421 C419 1.327 . S
C421 C437 1.429 . S
C421 H443 0.950 . S
C422 H418 0.949 . S
C422 C430 1.574 . S
C422 C438 1.368 . S
H423 C431 0.950 . S
H424 C429 0.950 . S
H425 C430 0.949 . S
H426 C432 0.961 . S
H427 C433 0.950 . S
H428 C434 0.949 . S
C429 H424 0.950 . S
C429 C431 1.327 . S
C429 C435 1.429 . S
C430 C422 1.574 . S
C430 H425 0.949 . S
C430 C436 1.368 . S
C431 C415 1.349 . S
C431 H423 0.950 . S
C431 C429 1.327 . S
C432 C420 1.349 . S
C432 H426 0.961 . S
C432 C433 1.327 . S
C433 H427 0.950 . S
C433 C432 1.327 . S
C433 C437 1.429 . S
C434 C417 1.574 . S
C434 H428 0.949 . S
C434 C438 1.368 . S
C435 C416 1.429 . S
C435 C429 1.429 . S
C435 C436 1.523 . S
C436 C417 1.368 . S
C436 C430 1.368 . S
C436 C435 1.523 . S
C437 C421 1.429 . S
C437 C433 1.429 . S
C437 C438 1.523 . S
C438 C422 1.368 . S
C438 C434 1.368 . S
C438 C437 1.523 . S
H439 C414 0.950 . S
H440 C416 0.950 . S
H441 C417 0.949 . S
H442 C419 0.950 . S
H443 C421 0.950 . S
C444 C445 1.349 . S
C444 C446 1.327 . S
C444 H469 0.950 . S
C445 C444 1.349 . S
C445 C461 1.349 . S
C446 C444 1.327 . S
C446 C465 1.429 . S
C446 H470 0.950 . S
C447 C464 1.574 . S
C447 C466 1.368 . S
C447 H471 0.949 . S
H448 C452 0.949 . S
C449 C450 1.349 . S
C449 C451 1.327 . S
C449 H472 0.950 . S
C450 C449 1.349 . S
C450 C462 1.349 . S
C451 C449 1.327 . S
C451 C467 1.429 . S
C451 H473 0.950 . S
C452 H448 0.949 . S
C452 C460 1.574 . S
C452 C468 1.368 . S
H453 C461 0.950 . S
H454 C459 0.950 . S
H455 C460 0.949 . S
H456 C462 0.950 . S
H457 C463 0.950 . S
H458 C464 0.949 . S
C459 H454 0.950 . S
C459 C461 1.327 . S
C459 C465 1.429 . S
C460 C452 1.574 . S
C460 H455 0.949 . S
C460 C466 1.368 . S
C461 C445 1.349 . S
C461 H453 0.950 . S
C461 C459 1.327 . S
C462 C450 1.349 . S
C462 H456 0.950 . S
C462 C463 1.327 . S
C463 H457 0.950 . S
C463 C462 1.327 . S
C463 C467 1.429 . S
C464 C447 1.574 . S
C464 H458 0.949 . S
C464 C468 1.368 . S
C465 C446 1.429 . S
C465 C459 1.429 . S
C465 C466 1.523 . S
C466 C447 1.368 . S
C466 C460 1.368 . S
C466 C465 1.523 . S
C467 C451 1.429 . S
C467 C463 1.429 . S
C467 C468 1.523 . S
C468 C452 1.368 . S
C468 C464 1.368 . S
C468 C467 1.523 . S
H469 C444 0.950 . S
H470 C446 0.950 . S
H471 C447 0.949 . S
H472 C449 0.950 . S
H473 C451 0.950 . S
C474 C475 1.349 . S
C474 C476 1.327 . S
C474 H499 0.950 . S
C475 C474 1.349 . S
C475 C491 1.349 . S
C476 C474 1.327 . S
C476 C495 1.429 . S
C476 H500 0.950 . S
C477 C494 1.574 . S
C477 C496 1.368 . S
C477 H501 0.949 . S
H478 C482 0.949 . S
C479 C480 1.349 . S
C479 C481 1.327 . S
C479 H502 0.950 . S
C480 C479 1.349 . S
C480 C492 1.349 . S
C481 C479 1.327 . S
C481 C497 1.429 . S
C481 H503 0.950 . S
C482 H478 0.949 . S
C482 C490 1.574 . S
C482 C498 1.368 . S
H483 C491 0.950 . S
H484 C489 0.950 . S
H485 C490 0.949 . S
H486 C492 0.950 . S
H487 C493 0.950 . S
H488 C494 0.949 . S
C489 H484 0.950 . S
C489 C491 1.327 . S
C489 C495 1.429 . S
C490 C482 1.574 . S
C490 H485 0.949 . S
C490 C496 1.368 . S
C491 C475 1.349 . S
C491 H483 0.950 . S
C491 C489 1.327 . S
C492 C480 1.349 . S
C492 H486 0.950 . S
C492 C493 1.327 . S
C493 H487 0.950 . S
C493 C492 1.327 . S
C493 C497 1.429 . S
C494 C477 1.574 . S
C494 H488 0.949 . S
C494 C498 1.368 . S
C495 C476 1.429 . S
C495 C489 1.429 . S
C495 C496 1.523 . S
C496 C477 1.368 . S
C496 C490 1.368 . S
C496 C495 1.523 . S
C497 C481 1.429 . S
C497 C493 1.429 . S
C497 C498 1.523 . S
C498 C482 1.368 . S
C498 C494 1.368 . S
C498 C497 1.523 . S
H499 C474 0.950 . S
H500 C476 0.950 . S
H501 C477 0.949 . S
H502 C479 0.950 . S
H503 C481 0.950 . S
C504 C505 1.349 . S
C504 C506 1.327 . S
C504 H529 0.950 . S
C505 C504 1.349 . S
C505 C521 1.349 . S
C506 C504 1.327 . S
C506 C525 1.429 . S
C506 H530 0.950 . S
C507 C524 1.574 . S
C507 C526 1.368 . S
C507 H531 0.949 . S
H508 C512 0.949 . S
C509 C510 1.349 . S
C509 C511 1.327 . S
C509 H532 0.950 . S
C510 C509 1.349 . S
C510 C522 1.349 . S
C511 C509 1.327 . S
C511 C527 1.429 . S
C511 H533 0.950 . S
C512 H508 0.949 . S
C512 C520 1.574 . S
C512 C528 1.368 . S
H513 C521 0.950 . S
H514 C519 0.950 . S
H515 C520 0.949 . S
H516 C522 0.950 . S
H517 C523 0.950 . S
H518 C524 0.949 . S
C519 H514 0.950 . S
C519 C521 1.327 . S
C519 C525 1.429 . S
C520 C512 1.574 . S
C520 H515 0.949 . S
C520 C526 1.368 . S
C521 C505 1.349 . S
C521 H513 0.950 . S
C521 C519 1.327 . S
C522 C510 1.349 . S
C522 H516 0.950 . S
C522 C523 1.327 . S
C523 H517 0.950 . S
C523 C522 1.327 . S
C523 C527 1.429 . S
C524 C507 1.574 . S
C524 H518 0.949 . S
C524 C528 1.368 . S
C525 C506 1.429 . S
C525 C519 1.429 . S
C525 C526 1.523 . S
C526 C507 1.368 . S
C526 C520 1.368 . S
C526 C525 1.523 . S
C527 C511 1.429 . S
C527 C523 1.429 . S
C527 C528 1.523 . S
C528 C512 1.368 . S
C528 C524 1.368 . S
C528 C527 1.523 . S
H529 C504 0.950 . S
H530 C506 0.950 . S
H531 C507 0.949 . S
H532 C509 0.950 . S
H533 C511 0.950 . S
C534 C535 1.349 . S
C534 C536 1.327 . S
C534 H559 0.950 . S
C535 C534 1.349 . S
C535 C551 1.349 . S
C536 C534 1.327 . S
C536 C555 1.429 . S
C536 H560 0.950 1_556 S
C537 C554 1.574 . S
C537 C556 1.368 . S
C537 H561 0.949 . S
H538 C542 0.949 . S
C539 C540 1.349 . S
C539 C541 1.327 . S
C539 H562 0.955 . S
C540 C539 1.349 . S
C540 C552 1.349 . S
C541 C539 1.327 . S
C541 C557 1.429 . S
C541 H563 0.950 1_554 S
C542 H538 0.949 . S
C542 C550 1.574 . S
C542 C558 1.368 . S
H543 C551 0.950 . S
H544 C549 0.950 . S
H545 C550 0.949 . S
H546 C552 0.950 . S
H547 C553 0.950 . S
H548 C554 0.949 . S
C549 H544 0.950 . S
C549 C551 1.327 . S
C549 C555 1.429 . S
C550 C542 1.574 . S
C550 H545 0.949 . S
C550 C556 1.368 1_554 S
C551 C535 1.349 . S
C551 H543 0.950 . S
C551 C549 1.327 . S
C552 C540 1.349 . S
C552 H546 0.950 . S
C552 C553 1.327 . S
C553 H547 0.950 . S
C553 C552 1.327 . S
C553 C557 1.429 . S
C554 C537 1.574 . S
C554 H548 0.949 . S
C554 C558 1.368 1_556 S
C555 C536 1.429 . S
C555 C549 1.429 . S
C555 C556 1.523 . S
C556 C537 1.368 . S
C556 C550 1.368 1_556 S
C556 C555 1.523 . S
C557 C541 1.429 . S
C557 C553 1.429 . S
C557 C558 1.523 . S
C558 C542 1.368 . S
C558 C554 1.368 1_554 S
C558 C557 1.523 . S
H559 C534 0.950 . S
H560 C536 0.950 1_554 S
H561 C537 0.949 . S
H562 C539 0.955 . S
H563 C541 0.950 1_556 S
C564 C565 1.349 . S
C564 C566 1.327 . S
C564 H589 0.950 . S
C565 C564 1.349 . S
C565 C581 1.349 . S
C566 C564 1.327 . S
C566 C585 1.429 . S
C566 H590 0.950 . S
C567 C584 1.574 1_545 S
C567 C586 1.368 . S
C567 H591 0.949 . S
H568 C572 0.949 . S
C569 C570 1.349 . S
C569 C571 1.327 . S
C569 H592 0.950 . S
C570 C569 1.349 . S
C570 C582 1.349 . S
C571 C569 1.327 . S
C571 C587 1.429 . S
C571 H593 0.950 . S
C572 H568 0.949 . S
C572 C580 1.574 1_565 S
C572 C588 1.368 . S
H573 C581 0.950 . S
H574 C579 0.950 . S
H575 C580 0.949 . S
H576 C582 0.950 . S
H577 C583 0.950 . S
H578 C584 0.949 . S
C579 H574 0.950 . S
C579 C581 1.327 . S
C579 C585 1.429 . S
C580 C572 1.574 1_545 S
C580 H575 0.949 . S
C580 C586 1.368 . S
C581 C565 1.349 . S
C581 H573 0.950 . S
C581 C579 1.327 . S
C582 C570 1.349 . S
C582 H576 0.950 . S
C582 C583 1.327 . S
C583 H577 0.950 . S
C583 C582 1.327 . S
C583 C587 1.429 . S
C584 C567 1.574 1_565 S
C584 H578 0.949 . S
C584 C588 1.368 . S
C585 C566 1.429 . S
C585 C579 1.429 . S
C585 C586 1.523 . S
C586 C567 1.368 . S
C586 C580 1.368 . S
C586 C585 1.523 . S
C587 C571 1.429 . S
C587 C583 1.429 . S
C587 C588 1.523 . S
C588 C572 1.368 . S
C588 C584 1.368 . S
C588 C587 1.523 . S
H589 C564 0.950 . S
H590 C566 0.950 . S
H591 C567 0.949 . S
H592 C569 0.950 . S
H593 C571 0.950 . S
C594 C595 1.349 . S
C594 C596 1.327 . S
C594 H619 0.950 . S
C595 C594 1.349 . S
C595 C611 1.349 . S
C596 C594 1.327 . S
C596 C615 1.429 . S
C596 H620 0.950 1_554 S
C597 C614 1.574 1_565 S
C597 C616 1.368 . S
C597 H621 0.949 . S
H598 C602 0.949 . S
C599 C600 1.349 . S
C599 C601 1.327 . S
C599 H622 0.950 . S
C600 C599 1.349 . S
C600 C612 1.349 . S
C601 C599 1.327 . S
C601 C617 1.429 . S
C601 H623 0.950 1_556 S
C602 H598 0.949 . S
C602 C610 1.574 1_545 S
C602 C618 1.368 . S
H603 C611 0.950 . S
H604 C609 0.950 . S
H605 C610 0.949 . S
H606 C612 0.950 . S
H607 C613 0.950 . S
H608 C614 0.949 . S
C609 H604 0.950 . S
C609 C611 1.327 . S
C609 C615 1.429 . S
C610 C602 1.574 1_565 S
C610 H605 0.949 . S
C610 C616 1.368 1_556 S
C611 C595 1.349 . S
C611 H603 0.950 . S
C611 C609 1.327 . S
C612 C600 1.349 . S
C612 H606 0.950 . S
C612 C613 1.327 . S
C613 H607 0.950 . S
C613 C612 1.327 . S
C613 C617 1.429 . S
C614 C597 1.574 1_545 S
C614 H608 0.949 . S
C614 C618 1.368 1_554 S
C615 C596 1.429 . S
C615 C609 1.429 . S
C615 C616 1.523 . S
C616 C597 1.368 . S
C616 C610 1.368 1_554 S
C616 C615 1.523 . S
C617 C601 1.429 . S
C617 C613 1.429 . S
C617 C618 1.523 . S
C618 C602 1.368 . S
C618 C614 1.368 1_556 S
C618 C617 1.523 . S
H619 C594 0.950 . S
H620 C596 0.950 1_556 S
H621 C597 0.949 . S
H622 C599 0.950 . S
H623 C601 0.950 1_554 S
C624 C625 1.349 . S
C624 C626 1.327 . S
C624 H649 0.950 . S
C625 C624 1.349 . S
C625 C641 1.349 . S
C626 C624 1.327 . S
C626 C645 1.429 . S
C626 H650 0.950 . S
C627 C644 1.574 . S
C627 C646 1.368 . S
C627 H651 0.949 . S
H628 C632 0.949 . S
C629 C630 1.349 . S
C629 C631 1.327 . S
C629 H652 0.950 . S
C630 C629 1.349 . S
C630 C642 1.349 . S
C631 C629 1.327 . S
C631 C647 1.429 . S
C631 H653 0.950 . S
C632 H628 0.949 . S
C632 C640 1.574 . S
C632 C648 1.368 . S
H633 C641 0.950 . S
H634 C639 0.950 . S
H635 C640 0.949 . S
H636 C642 0.950 . S
H637 C643 0.950 . S
H638 C644 0.949 . S
C639 H634 0.950 . S
C639 C641 1.327 . S
C639 C645 1.429 . S
C640 C632 1.574 . S
C640 H635 0.949 . S
C640 C646 1.368 . S
C641 C625 1.349 . S
C641 H633 0.950 . S
C641 C639 1.327 . S
C642 C630 1.349 . S
C642 H636 0.950 . S
C642 C643 1.327 . S
C643 H637 0.950 . S
C643 C642 1.327 . S
C643 C647 1.429 . S
C644 C627 1.574 . S
C644 H638 0.949 . S
C644 C648 1.368 . S
C645 C626 1.429 . S
C645 C639 1.429 . S
C645 C646 1.523 . S
C646 C627 1.368 . S
C646 C640 1.368 . S
C646 C645 1.523 . S
C647 C631 1.429 . S
C647 C643 1.429 . S
C647 C648 1.523 . S
C648 C632 1.368 . S
C648 C644 1.368 . S
C648 C647 1.523 . S
H649 C624 0.950 . S
H650 C626 0.950 . S
H651 C627 0.949 . S
H652 C629 0.950 . S
H653 C631 0.950 . S
C654 C655 1.349 . S
C654 C656 1.327 . S
C654 H679 0.950 . S
C655 C654 1.349 . S
C655 C671 1.349 . S
C656 C654 1.327 . S
C656 C675 1.429 . S
C656 H680 0.950 . S
C657 C674 1.574 . S
C657 C676 1.383 . S
C657 H681 0.949 . S
H658 C662 0.949 . S
C659 C660 1.349 . S
C659 C661 1.327 . S
C659 H682 0.950 . S
C660 C659 1.349 . S
C660 C672 1.349 . S
C661 C659 1.327 . S
C661 C677 1.429 . S
C661 H683 0.950 . S
C662 H658 0.949 . S
C662 C670 1.574 1_554 S
C662 C678 1.368 . S
H663 C671 0.950 . S
H664 C669 0.950 . S
H665 C670 0.949 . S
H666 C672 0.950 . S
H667 C673 0.950 . S
H668 C674 0.949 . S
C669 H664 0.950 . S
C669 C671 1.327 . S
C669 C675 1.429 . S
C670 C662 1.574 1_556 S
C670 H665 0.949 . S
C670 C676 1.365 1_556 S
C671 C655 1.349 . S
C671 H663 0.950 . S
C671 C669 1.327 . S
C672 C660 1.349 . S
C672 H666 0.950 . S
C672 C673 1.327 . S
C673 H667 0.950 . S
C673 C672 1.327 . S
C673 C677 1.429 . S
C674 C657 1.574 . S
C674 H668 0.949 . S
C674 C678 1.368 . S
C675 C656 1.429 . S
C675 C669 1.429 . S
C675 C676 1.510 1_556 S
C676 C657 1.383 . S
C676 C670 1.365 1_554 S
C676 C675 1.510 1_554 S
C677 C661 1.429 . S
C677 C673 1.429 . S
C677 C678 1.523 . S
C678 C662 1.368 . S
C678 C674 1.368 . S
C678 C677 1.523 . S
H679 C654 0.950 . S
H680 C656 0.950 . S
H681 C657 0.949 . S
H682 C659 0.950 . S
H683 C661 0.950 . S
C684 C685 1.349 . S
C684 C686 1.327 . S
C684 H709 0.950 . S
C685 C684 1.349 . S
C685 C701 1.349 . S
C686 C684 1.327 . S
C686 C705 1.429 . S
C686 H710 0.950 . S
C687 C704 1.574 . S
C687 C706 1.368 . S
C687 H711 0.949 . S
H688 C692 0.949 . S
C689 C690 1.349 . S
C689 C691 1.327 . S
C689 H712 0.950 . S
C690 C689 1.349 . S
C690 C702 1.349 . S
C691 C689 1.327 . S
C691 C707 1.429 . S
C691 H713 0.950 . S
C692 H688 0.949 . S
C692 C700 1.574 . S
C692 C708 1.368 . S
H693 C701 0.950 . S
H694 C699 0.950 . S
H695 C700 0.949 . S
H696 C702 0.950 . S
H697 C703 0.950 . S
H698 C704 0.949 . S
C699 H694 0.950 . S
C699 C701 1.327 . S
C699 C705 1.429 . S
C700 C692 1.574 . S
C700 H695 0.949 . S
C700 C706 1.368 . S
C701 C685 1.349 . S
C701 H693 0.950 . S
C701 C699 1.327 . S
C702 C690 1.349 . S
C702 H696 0.950 . S
C702 C703 1.327 . S
C703 H697 0.950 . S
C703 C702 1.327 . S
C703 C707 1.429 . S
C704 C687 1.574 . S
C704 H698 0.949 . S
C704 C708 1.368 . S
C705 C686 1.429 . S
C705 C699 1.429 . S
C705 C706 1.523 . S
C706 C687 1.368 . S
C706 C700 1.368 . S
C706 C705 1.523 . S
C707 C691 1.429 . S
C707 C703 1.429 . S
C707 C708 1.523 . S
C708 C692 1.368 . S
C708 C704 1.368 . S
C708 C707 1.523 . S
H709 C684 0.950 . S
H710 C686 0.950 . S
H711 C687 0.949 . S
H712 C689 0.950 . S
H713 C691 0.950 . S
C714 C715 1.349 . S
C714 C716 1.327 . S
C714 H739 0.950 . S
C715 C714 1.349 . S
C715 C731 1.349 . S
C716 C714 1.327 . S
C716 C735 1.429 . S
C716 H740 0.950 . S
C717 C734 1.574 . S
C717 C736 1.368 . S
C717 H741 0.949 . S
H718 C722 0.949 . S
C719 C720 1.349 . S
C719 C721 1.327 1_554 S
C719 H742 0.950 1_554 S
C720 C719 1.349 . S
C720 C732 1.349 . S
C721 C719 1.327 1_556 S
C721 C737 1.429 1_556 S
C721 H743 0.950 . S
C722 H718 0.949 . S
C722 C730 1.574 . S
C722 C738 1.368 1_554 S
H723 C731 0.950 . S
H724 C729 0.950 . S
H725 C730 0.949 . S
H726 C732 0.950 . S
H727 C733 0.950 . S
H728 C734 0.949 . S
C729 H724 0.950 . S
C729 C731 1.327 . S
C729 C735 1.429 . S
C730 C722 1.574 . S
C730 H725 0.949 . S
C730 C736 1.368 1_554 S
C731 C715 1.349 . S
C731 H723 0.950 . S
C731 C729 1.327 . S
C732 C720 1.349 . S
C732 H726 0.950 . S
C732 C733 1.327 . S
C733 H727 0.950 . S
C733 C732 1.327 . S
C733 C737 1.429 . S
C734 C717 1.574 . S
C734 H728 0.949 . S
C734 C738 1.368 . S
C735 C716 1.429 . S
C735 C729 1.429 . S
C735 C736 1.523 . S
C736 C717 1.368 . S
C736 C730 1.368 1_556 S
C736 C735 1.523 . S
C737 C721 1.429 1_554 S
C737 C733 1.429 . S
C737 C738 1.523 1_554 S
C738 C722 1.368 1_556 S
C738 C734 1.368 . S
C738 C737 1.523 1_556 S
H739 C714 0.950 . S
H740 C716 0.950 . S
H741 C717 0.949 . S
H742 C719 0.950 1_556 S
H743 C721 0.950 . S
C744 C745 1.349 . S
C744 C746 1.327 . S
C744 H769 0.950 . S
C745 C744 1.349 . S
C745 C761 1.349 . S
C746 C744 1.327 . S
C746 C765 1.429 1_455 S
C746 H770 0.950 . S
C747 C764 1.574 . S
C747 C766 1.368 . S
C747 H771 0.949 . S
H748 C752 0.949 . S
C749 C750 1.349 . S
C749 C751 1.327 . S
C749 H772 0.950 . S
C750 C749 1.349 . S
C750 C762 1.349 . S
C751 C749 1.327 . S
C751 C767 1.429 . S
C751 H773 0.950 . S
C752 H748 0.949 . S
C752 C760 1.574 . S
C752 C768 1.368 . S
H753 C761 0.950 . S
H754 C759 0.950 1_655 S
H755 C760 0.949 . S
H756 C762 0.950 . S
H757 C763 0.950 . S
H758 C764 0.949 . S
C759 H754 0.950 1_455 S
C759 C761 1.327 . S
C759 C765 1.429 1_455 S
C760 C752 1.574 . S
C760 H755 0.949 . S
C760 C766 1.368 . S
C761 C745 1.349 . S
C761 H753 0.950 . S
C761 C759 1.327 . S
C762 C750 1.349 . S
C762 H756 0.950 . S
C762 C763 1.327 . S
C763 H757 0.950 . S
C763 C762 1.327 . S
C763 C767 1.429 . S
C764 C747 1.574 . S
C764 H758 0.949 . S
C764 C768 1.368 . S
C765 C746 1.429 1_655 S
C765 C759 1.429 1_655 S
C765 C766 1.523 . S
C766 C747 1.368 . S
C766 C760 1.368 . S
C766 C765 1.523 . S
C767 C751 1.429 . S
C767 C763 1.429 . S
C767 C768 1.523 . S
C768 C752 1.368 . S
C768 C764 1.368 . S
C768 C767 1.523 . S
H769 C744 0.950 . S
H770 C746 0.950 . S
H771 C747 0.949 . S
H772 C749 0.950 . S
H773 C751 0.950 . S
C774 C775 1.349 . S
C774 C776 1.327 . S
C774 H799 0.950 . S
C775 C774 1.349 . S
C775 C791 1.349 . S
C776 C774 1.327 . S
C776 C795 1.429 . S
C776 H800 0.950 . S
C777 C794 1.574 . S
C777 C796 1.368 . S
C777 H801 0.949 . S
H778 C782 0.949 1_556 S
C779 C780 1.349 . S
C779 C781 1.327 . S
C779 H802 0.950 . S
C780 C779 1.349 . S
C780 C792 1.349 . S
C781 C779 1.327 . S
C781 C797 1.429 . S
C781 H803 0.950 . S
C782 H778 0.949 1_554 S
C782 C790 1.574 . S
C782 C798 1.372 . S
H783 C791 0.950 . S
H784 C789 0.950 . S
H785 C790 0.949 . S
H786 C792 0.950 . S
H787 C793 0.950 . S
H788 C794 0.949 . S
C789 H784 0.950 . S
C789 C791 1.327 . S
C789 C795 1.429 . S
C790 C782 1.574 . S
C790 H785 0.949 . S
C790 C796 1.368 . S
C791 C775 1.349 . S
C791 H783 0.950 . S
C791 C789 1.327 . S
C792 C780 1.349 . S
C792 H786 0.950 . S
C792 C793 1.327 . S
C793 H787 0.950 . S
C793 C792 1.327 . S
C793 C797 1.429 . S
C794 C777 1.574 . S
C794 H788 0.949 . S
C794 C798 1.376 . S
C795 C776 1.429 . S
C795 C789 1.429 . S
C795 C796 1.523 . S
C796 C777 1.368 . S
C796 C790 1.368 . S
C796 C795 1.523 . S
C797 C781 1.429 . S
C797 C793 1.429 . S
C797 C798 1.510 1_556 S
C798 C782 1.372 . S
C798 C794 1.376 . S
C798 C797 1.510 1_554 S
H799 C774 0.950 . S
H800 C776 0.950 . S
H801 C777 0.949 . S
H802 C779 0.950 . S
H803 C781 0.950 . S
C804 C805 1.349 . S
C804 C806 1.327 . S
C804 H829 0.950 . S
C805 C804 1.349 . S
C805 C821 1.349 . S
C806 C804 1.327 . S
C806 C825 1.429 1_455 S
C806 H830 0.950 . S
C807 C824 1.574 . S
C807 C826 1.368 . S
C807 H831 0.949 . S
H808 C812 0.949 . S
C809 C810 1.349 . S
C809 C811 1.327 . S
C809 H832 0.950 . S
C810 C809 1.349 . S
C810 C822 1.349 . S
C811 C809 1.327 . S
C811 C827 1.429 . S
C811 H833 0.950 . S
C812 H808 0.949 . S
C812 C820 1.574 . S
C812 C828 1.368 . S
H813 C821 0.950 . S
H814 C819 0.950 1_655 S
H815 C820 0.949 . S
H816 C822 0.950 . S
H817 C823 0.950 . S
H818 C824 0.949 . S
C819 H814 0.950 1_455 S
C819 C821 1.327 . S
C819 C825 1.429 1_455 S
C820 C812 1.574 . S
C820 H815 0.949 . S
C820 C826 1.368 . S
C821 C805 1.349 . S
C821 H813 0.950 . S
C821 C819 1.327 . S
C822 C810 1.349 . S
C822 H816 0.950 . S
C822 C823 1.327 . S
C823 H817 0.950 . S
C823 C822 1.327 . S
C823 C827 1.429 . S
C824 C807 1.574 . S
C824 H818 0.949 . S
C824 C828 1.368 . S
C825 C806 1.429 1_655 S
C825 C819 1.429 1_655 S
C825 C826 1.523 . S
C826 C807 1.368 . S
C826 C820 1.368 . S
C826 C825 1.523 . S
C827 C811 1.429 . S
C827 C823 1.429 . S
C827 C828 1.523 . S
C828 C812 1.368 . S
C828 C824 1.368 . S
C828 C827 1.523 . S
H829 C804 0.950 . S
H830 C806 0.950 . S
H831 C807 0.949 . S
H832 C809 0.950 . S
H833 C811 0.950 . S
C834 C835 1.349 . S
C834 C836 1.327 . S
C834 H859 0.950 . S
C835 C834 1.349 . S
C835 C851 1.349 . S
C836 C834 1.327 . S
C836 C855 1.429 . S
C836 H860 0.950 . S
C837 C854 1.574 . S
C837 C856 1.368 . S
C837 H861 0.949 . S
H838 C842 0.949 . S
C839 C840 1.349 . S
C839 C841 1.327 . S
C839 H862 0.950 . S
C840 C839 1.349 . S
C840 C852 1.349 . S
C841 C839 1.327 . S
C841 C857 1.429 . S
C841 H863 0.950 1_554 S
C842 H838 0.949 . S
C842 C850 1.574 1_554 S
C842 C858 1.368 1_554 S
H843 C851 0.950 . S
H844 C849 0.950 . S
H845 C850 0.940 1_554 S
H846 C852 0.950 . S
H847 C853 0.950 . S
H848 C854 0.949 . S
C849 H844 0.950 . S
C849 C851 1.327 . S
C849 C855 1.429 . S
C850 C842 1.574 1_556 S
C850 H845 0.940 1_556 S
C850 C856 1.368 . S
C851 C835 1.349 . S
C851 H843 0.950 . S
C851 C849 1.327 . S
C852 C840 1.349 . S
C852 H846 0.950 . S
C852 C853 1.327 . S
C853 H847 0.950 . S
C853 C852 1.327 . S
C853 C857 1.429 . S
C854 C837 1.574 . S
C854 H848 0.949 . S
C854 C858 1.368 . S
C855 C836 1.429 . S
C855 C849 1.429 . S
C855 C856 1.523 . S
C856 C837 1.368 . S
C856 C850 1.368 . S
C856 C855 1.523 . S
C857 C841 1.429 . S
C857 C853 1.429 . S
C857 C858 1.523 1_554 S
C858 C842 1.368 1_556 S
C858 C854 1.368 . S
C858 C857 1.523 1_556 S
H859 C834 0.950 . S
H860 C836 0.950 . S
H861 C837 0.949 . S
H862 C839 0.950 . S
H863 C841 0.950 1_556 S
C265 C28 1.086 . S
C270 C127 1.086 . S
C295 C41 1.069 . S
C300 C94 1.075 . S
C325 N80 1.751 1_655 S
C330 N38 1.709 . S
C355 N113 1.839 . S
C360 N14 1.839 1_655 S
C385 C160 1.086 . S
C390 C259 1.086 1_655 S
C415 C226 1.075 . S
C420 C173 1.075 . S
C445 N170 1.709 . S
C450 N212 1.751 . S
C475 N245 1.839 . S
C480 N146 1.839 . S
C505 C83 1.544 . S
C510 C17 1.544 . S
C535 C50 1.450 . S
C540 C116 1.453 . S
C565 C215 1.544 . S
C570 C149 1.544 . S
C595 C248 1.453 . S
C600 C182 1.450 . S
C625 N5 1.385 . S
C630 C206 1.446 . S
C655 N47 1.440 . S
C660 C239 1.462 . S
C685 N71 1.366 . S
C690 C140 1.426 . S
C715 C193 1.422 . S
C720 N104 1.357 . S
C745 C74 1.446 . S
C750 N137 1.385 . S
C775 C107 1.462 . S
C780 N179 1.440 . S
C805 C8 1.426 . S
C810 N203 1.366 . S
C835 C61 1.422 . S
C840 N236 1.357 . S
