# Generated by pormake.
# Topology kag, (6)-cn, num edge types: 1
# Building blocks:
#     Node 0, Type 0, BuildingBlock: KUMBOL_clean_sbu_0, # of connection points: 6
#     Node 1, Type 0, BuildingBlock: KUMBOL_clean_sbu_0, # of connection points: 6
#     Node 2, Type 0, BuildingBlock: KUMBOL_clean_sbu_0, # of connection points: 6
#     Edge 3, Type (0, 0), BuildingBlock: MIFKUJ_clean_linker_0, # of connection points: 2
#     Edge 4, Type (0, 0), BuildingBlock: MIFKUJ_clean_linker_0, # of connection points: 2
#     Edge 5, Type (0, 0), BuildingBlock: MIFKUJ_clean_linker_0, # of connection points: 2
#     Edge 6, Type (0, 0), BuildingBlock: MIFKUJ_clean_linker_0, # of connection points: 2
#     Edge 7, Type (0, 0), BuildingBlock: MIFKUJ_clean_linker_0, # of connection points: 2
#     Edge 8, Type (0, 0), BuildingBlock: MIFKUJ_clean_linker_0, # of connection points: 2
#     Edge 9, Type (0, 0), BuildingBlock: MIFKUJ_clean_linker_0, # of connection points: 2
#     Edge 10, Type (0, 0), BuildingBlock: MIFKUJ_clean_linker_0, # of connection points: 2
#     Edge 11, Type (0, 0), BuildingBlock: MIFKUJ_clean_linker_0, # of connection points: 2
# Relax obj value: 0.054
# Max RMSD: 0.170
# Mean RMSD: 0.129
data_MOF--net-kag--node1-KUMBOL_clean_sbu_0--edge1-MIFKUJ_clean_linker_0
_symmetry_space_group_name_H-M    P1
_symmetry_Int_Tables_number       1
_symmetry_cell_setting            triclinic
loop_
_symmetry_equiv_pos_as_xyz
'x, y, z'
_cell_length_a     48.375978
_cell_length_b     38.465467
_cell_length_c     19.839437
_cell_angle_alpha  93.681418
_cell_angle_beta   114.61591
_cell_angle_gamma 100.58182
loop_
_atom_site_label
_atom_site_type_symbol
_atom_site_fract_x
_atom_site_fract_y
_atom_site_fract_z
_atom_type_partial_charge
Gd0 Gd 0.02953 0.58373 0.01841 0.0
Gd1 Gd 1.00664 0.48672 0.98942 0.0
C2 C 0.07309 0.4163 0.99103 0.0
C3 C 0.04752 0.38477 0.86273 0.0
C4 C 0.02452 0.4282 0.90287 0.0
C5 C 0.04918 0.43511 0.97391 0.0
C6 C 0.02326 0.40273 0.84663 0.0
C7 C 0.07227 0.39137 0.9349 0.0
C8 C 0.09664 0.42238 0.0646 0.0
C9 C 0.09594 0.4466 0.11897 0.0
N10 N 0.04911 0.4591 0.02709 0.0
C11 C 0.0717 0.46453 0.09937 0.0
H12 H 0.07136 0.48287 0.14229 0.0
C13 C 0.97507 0.43734 0.82224 0.0
N14 N 1.00121 0.44554 0.88947 0.0
C15 C 0.97292 0.4126 0.76447 0.0
C16 C 0.99725 0.39542 0.77648 0.0
H17 H 0.95623 0.45062 0.81274 0.0
H18 H 0.09029 0.37651 0.94702 0.0
H19 H 0.96422 0.58838 0.86898 0.0
H20 H 0.11498 0.40788 0.08044 0.0
H21 H 0.11391 0.45122 0.1762 0.0
H22 H 0.047 0.36513 0.82028 0.0
H23 H 0.082 0.61916 0.19377 0.0
H24 H 0.92652 0.67004 0.93106 0.0
H25 H 0.92403 0.62339 0.83605 0.0
H26 H 0.9987 0.71462 0.18792 0.0
H27 H 0.9525 0.40674 0.71082 0.0
H28 H 0.99545 0.37609 0.73178 0.0
H29 H 0.9553 0.70482 0.06175 0.0
H30 H 0.08899 0.6655 0.29523 0.0
N31 N 0.98808 0.61282 0.98376 0.0
C32 C 0.94368 0.6539 0.94687 0.0
C33 C 0.94232 0.62774 0.89285 0.0
C34 C 0.96773 0.65966 0.0198 0.0
C35 C 0.98974 0.63819 0.03698 0.0
C36 C 0.96515 0.60781 0.91198 0.0
N37 N 0.03715 0.62569 0.11948 0.0
C38 C 0.01493 0.64465 0.10721 0.0
C39 C 0.06801 0.65984 0.24273 0.0
C40 C 0.04508 0.67912 0.2316 0.0
C41 C 0.06395 0.63358 0.18521 0.0
C42 C 0.01846 0.67218 0.1627 0.0
H43 H 0.04857 0.69996 0.27571 0.0
O44 O 0.07411 0.61774 0.0386 0.0
O45 O 0.04448 0.53338 0.00571 0.0
O46 O 0.02772 0.51046 0.11421 0.0
O47 O 0.02167 0.56915 0.11791 0.0
O48 O 0.07612 0.57225 0.0923 0.0
O49 O 0.03243 0.61831 0.93819 0.0
O50 O 0.96384 0.4468 0.96021 0.0
O51 O 0.99161 0.53701 0.00129 0.0
O52 O 1.00736 0.56005 0.89387 0.0
O53 O 0.01506 0.50224 0.89099 0.0
O54 O 0.95948 0.49768 0.91658 0.0
O55 O 1.00242 0.45382 0.07101 0.0
C56 C 0.07231 0.54134 0.05617 0.0
C57 C 0.9962 0.69304 0.14641 0.0
C58 C 0.97123 0.68718 0.07476 0.0
C59 C 0.06219 0.63226 0.97856 0.0
C60 C 0.07256 0.67126 0.9884 0.0
C61 C 0.05879 0.69406 0.0158 0.0
C62 C 0.09732 0.68581 0.97183 0.0
C63 C 0.10864 0.7231 0.98301 0.0
C64 C 0.07005 0.73108 0.02782 0.0
C65 C 0.09489 0.74559 0.01188 0.0
C66 C 0.02605 0.54008 0.14936 0.0
C67 C 0.96373 0.52908 0.95128 0.0
C68 C 0.97298 0.43909 0.02803 0.0
C69 C 0.95131 0.44156 0.06138 0.0
C70 C 0.95035 0.47508 0.09145 0.0
C71 C 0.93037 0.41072 0.05985 0.0
C72 C 0.90869 0.41333 0.08892 0.0
C73 C 0.92878 0.47783 0.11988 0.0
C74 C 0.90801 0.44712 0.11867 0.0
C75 C 1.01021 0.53114 0.85938 0.0
H76 H 0.03947 0.68338 0.02793 0.0
H77 H 0.10741 0.66798 0.94918 0.0
H78 H 0.05951 0.74857 0.04961 0.0
H79 H 0.10339 0.77441 0.02249 0.0
H80 H 0.96596 0.49913 0.09194 0.0
H81 H 0.93101 0.3848 0.03635 0.0
H82 H 0.92798 0.50386 0.14209 0.0
H83 H 0.89097 0.44969 0.1396 0.0
Gd84 Gd 0.47334 1.02912 0.94169 0.0
Gd85 Gd 0.557 1.03575 0.0267 0.0
C86 C 0.59773 0.93941 0.10437 0.0
C87 C 0.62468 0.95735 0.23978 0.0
C88 C 0.59749 0.99722 0.15985 0.0
C89 C 0.5881 0.972 0.09711 0.0
C90 C 0.61654 0.99058 0.23176 0.0
C91 C 0.61527 0.93179 0.17617 0.0
C92 C 0.5905 0.91612 0.03918 0.0
C93 C 0.57524 0.92626 0.96916 0.0
N94 N 0.57168 0.98056 0.02858 0.0
C95 C 0.56639 0.95899 0.9649 0.0
H96 H 0.55452 0.96638 0.91035 0.0
C97 C 0.6017 0.05666 0.20889 0.0
N98 N 0.58955 1.02919 0.14994 0.0
C99 C 0.62061 0.05133 0.28135 0.0
C100 C 0.62771 1.01798 0.29304 0.0
H101 H 0.59617 0.08244 0.20037 0.0
H102 H 0.62254 0.90671 0.18292 0.0
H103 H 0.47539 0.09787 0.05899 0.0
H104 H 0.59737 0.89077 0.04231 0.0
H105 H 0.57015 0.9088 0.91839 0.0
H106 H 0.63902 0.95158 0.29465 0.0
H107 H 0.43417 0.98276 0.76775 0.0
H108 H 0.43135 0.1731 0.92819 0.0
H109 H 0.45902 0.15497 0.05173 0.0
H110 H 0.39021 0.11325 0.67532 0.0
H111 H 0.62962 0.07291 0.32813 0.0
H112 H 0.64243 1.01395 0.34919 0.0
H113 H 0.40631 0.15763 0.78755 0.0
H114 H 0.40041 0.99239 0.64036 0.0
N115 N 0.45819 0.08402 0.94065 0.0
C116 C 0.43855 0.14796 0.93097 0.0
C117 C 0.45406 0.13776 0.00078 0.0
C118 C 0.43157 0.12501 0.86552 0.0
C119 C 0.44162 0.09266 0.8723 0.0
C120 C 0.46335 0.10529 0.00458 0.0
N121 N 0.4407 1.03589 0.81869 0.0
C122 C 0.43249 0.06774 0.80925 0.0
C123 C 0.40942 1.01388 0.6873 0.0
C124 C 0.40213 0.04717 0.67603 0.0
C125 C 0.42853 1.00851 0.75956 0.0
C126 C 0.41322 0.07441 0.73756 0.0
H127 H 0.38724 0.05122 0.62004 0.0
O128 O 0.4355 0.98252 0.91452 0.0
O129 O 0.51047 0.99828 0.99057 0.0
O130 O 0.53507 1.02104 0.89932 0.0
O131 O 0.48977 0.04242 0.85396 0.0
O132 O 0.47224 0.97355 0.89282 0.0
O133 O 0.44186 1.02788 -0.00558 0.0
O134 O 0.596 0.08119 0.05512 0.0
O135 O 0.51986 0.06651 0.97824 0.0
O136 O 0.49518 0.04379 0.06902 0.0
O137 O 0.54051 1.02247 0.11438 0.0
O138 O 0.55841 0.09176 0.07459 0.0
O139 O 0.58744 1.03646 0.97126 0.0
C140 C 0.49804 0.96924 0.94399 0.0
C141 C 0.40471 0.10745 0.73002 0.0
C142 C 0.41388 0.13273 0.79392 0.0
C143 C 0.42403 0.99714 0.9549 0.0
C144 C 0.39028 0.99472 0.91686 0.0
C145 C 0.37844 1.02216 0.87925 0.0
C146 C 0.3696 0.96345 0.91453 0.0
C147 C 0.3371 0.95903 0.87357 0.0
C148 C 0.34631 1.01798 0.83811 0.0
C149 C 0.32573 0.98657 0.83469 0.0
C150 C 0.51258 1.03165 0.84489 0.0
C151 C 0.53234 0.09578 0.02407 0.0
C152 C 0.60628 0.06653 0.01193 0.0
C153 C 0.63988 0.06761 0.04658 0.0
C154 C 0.65141 0.03963 0.08267 0.0
C155 C 0.66087 0.09807 0.04676 0.0
C156 C 0.69325 0.10102 0.08413 0.0
C157 C 0.68358 0.04244 0.1199 0.0
C158 C 0.70449 0.07311 0.12122 0.0
C159 C 0.51763 1.03309 0.12337 0.0
H160 H 0.39392 0.04664 0.88119 0.0
H161 H 0.37899 0.94277 0.94523 0.0
H162 H 0.33734 0.03908 0.80842 0.0
H163 H 0.30093 0.98385 0.80121 0.0
H164 H 0.63568 1.01576 0.08249 0.0
H165 H 0.65203 0.11983 0.01925 0.0
H166 H 0.69233 1.02084 0.148 0.0
H167 H 0.72938 0.07486 0.15029 0.0
Gd168 Gd 0.55355 0.54799 0.02913 0.0
Gd169 Gd 0.4678 0.51525 0.94007 0.0
C170 C 0.42646 0.39445 0.88146 0.0
C171 C 0.40132 0.3854 0.74515 0.0
C172 C 0.4285 0.44512 0.81617 0.0
C173 C 0.43698 0.43131 0.88257 0.0
C174 C 0.40988 0.42246 0.74671 0.0
C175 C 0.40944 0.37144 0.81249 0.0
C176 C 0.43221 0.38204 0.94958 0.0
C177 C 0.44786 0.40615 0.01655 0.0
N178 N 0.4535 0.45424 0.94836 0.0
C179 C 0.45811 0.44234 0.01489 0.0
H180 H 0.47008 0.4604 0.06738 0.0
C181 C 0.42312 0.49642 0.75701 0.0
N182 N 0.43619 0.4811 0.81984 0.0
C183 C 0.40532 0.47512 0.68662 0.0
C184 C 0.39914 0.43789 0.68127 0.0
H185 H 0.42727 0.52523 0.76139 0.0
H186 H 0.40162 0.34298 0.81068 0.0
H187 H 0.55559 0.60841 0.91534 0.0
H188 H 0.4236 0.35419 0.9506 0.0
H189 H 0.45195 0.39701 0.06958 0.0
H190 H 0.38733 0.36752 0.69235 0.0
H191 H 0.59517 0.53117 0.20171 0.0
H192 H 0.59875 0.71211 0.04818 0.0
H193 H 0.57334 0.67301 0.92412 0.0
H194 H 0.63341 0.68774 0.29975 0.0
H195 H 0.39611 0.48741 0.63673 0.0
H196 H 0.3849 0.42139 0.62689 0.0
H197 H 0.61936 0.71761 0.18797 0.0
H198 H 0.62677 0.56428 0.33079 0.0
N199 N 0.56933 0.61013 0.03275 0.0
C200 C 0.59048 0.68363 0.04432 0.0
C201 C 0.57643 0.6617 0.97451 0.0
C202 C 0.59517 0.66827 0.10902 0.0
C203 C 0.58462 0.63088 0.10133 0.0
C204 C 0.56633 0.62481 0.96983 0.0
N205 N 0.58581 0.5779 0.15311 0.0
C206 C 0.59281 0.61417 0.16389 0.0
C207 C 0.61715 0.57866 0.28444 0.0
C208 C 0.62273 0.61595 0.29711 0.0
C209 C 0.5993 0.56002 0.21138 0.0
C210 C 0.61136 0.63426 0.23618 0.0
H211 H 0.6371 0.6304 0.35345 0.0
O212 O 0.59423 0.5244 0.06285 0.0
O213 O 0.51368 0.49844 0.97683 0.0
O214 O 0.48655 0.52211 0.06645 0.0
O215 O 0.53878 0.55391 0.12217 0.0
O216 O 0.55229 0.49492 0.07167 0.0
O217 O 0.58269 0.55287 0.9691 0.0
O218 O 0.42517 0.53468 0.89345 0.0
O219 O 0.50752 0.56463 0.99198 0.0
O220 O 0.53352 0.54614 0.90322 0.0
O221 O 0.48359 0.50839 0.84903 0.0
O222 O 0.46896 0.56831 0.89709 0.0
O223 O 0.43662 0.51134 -0.00529 0.0
C224 C 0.52542 0.47702 0.02172 0.0
C225 C 0.61956 0.67178 0.24462 0.0
C226 C 0.61157 0.68878 0.181 0.0
C227 C 0.60309 0.53708 0.01393 0.0
C228 C 0.63652 0.55604 0.04271 0.0
C229 C 0.64798 0.58745 0.09526 0.0
C230 C 0.65702 0.54386 0.01715 0.0
C231 C 0.68837 0.56363 0.04366 0.0
C232 C 0.67881 0.60664 0.12193 0.0
C233 C 0.6988 0.59498 0.09622 0.0
C234 C 0.5126 0.53882 0.12528 0.0
C235 C 0.49581 0.58616 0.94739 0.0
C236 C 0.41689 0.52663 0.94616 0.0
C237 C 0.4051 0.55382 0.97608 0.0
C238 C 0.42383 0.58847 0.00662 0.0
C239 C 0.37463 0.54551 0.97221 0.0
C240 C 0.36285 0.57187 -0.00156 0.0
C241 C 0.41238 0.61467 0.03182 0.0
C242 C 0.38225 0.60663 0.02745 0.0
C243 C 0.50858 0.5268 0.84496 0.0
H244 H 0.63305 0.59739 0.11552 0.0
H245 H 0.64854 0.5198 0.97609 0.0
H246 H 0.68719 0.63088 0.1624 0.0
H247 H 0.72263 0.61057 0.11751 0.0
H248 H 0.4472 0.59535 0.01018 0.0
H249 H 0.36037 0.51854 0.94943 0.0
H250 H 0.42688 0.64152 0.05442 0.0
H251 H 0.37408 0.62801 0.0461 0.0
H252 H 0.022 0.48035 0.77838 0.0
H253 H 0.02533 0.48306 0.65965 0.0
H254 H 1.00398 0.5872 0.65373 0.0
H255 H 0.99966 0.58428 0.77196 0.0
H256 H 0.97271 0.54695 0.51825 0.0
H257 H 0.07886 0.57761 0.70547 0.0
H258 H 0.12412 0.56907 0.81633 0.0
H259 H 0.12221 0.47101 0.69649 0.0
H260 H 0.07657 0.47862 0.58524 0.0
H261 H 0.01883 0.5935 0.23441 0.0
H262 H 0.01762 0.59276 0.35562 0.0
H263 H 0.03146 0.48521 0.35653 0.0
H264 H 0.03381 0.48607 0.23553 0.0
H265 H 0.0677 0.52877 0.49588 0.0
H266 H 0.94962 0.48961 0.34062 0.0
H267 H 0.90039 0.49478 0.23665 0.0
H268 H 0.92724 0.60918 0.29666 0.0
H269 H 0.97581 0.60451 0.40375 0.0
C270 C 0.01755 0.50368 0.75157 0.0
C271 C 1.01037 0.53203 0.78481 0.0
C272 C 0.01984 0.50534 0.68388 0.0
C273 C 0.01544 0.5356 0.64824 0.0
C274 C 1.00761 0.56364 0.68033 0.0
C275 C 1.00517 0.56193 0.74802 0.0
C276 C 0.01887 0.53784 0.57734 0.0
C277 C 0.99374 0.54357 0.514 0.0
C278 C 0.04604 0.53271 0.57095 0.0
C279 C 0.0741 0.52856 0.63707 0.0
C280 C 0.08798 0.55413 0.70281 0.0
C281 C 0.11371 0.54946 0.76575 0.0
C282 C 0.12601 0.5195 0.76348 0.0
C283 C 0.11265 0.49421 0.69816 0.0
C284 C 0.08687 0.4987 0.63509 0.0
C285 C 0.02202 0.56974 0.26041 0.0
C286 C 0.02668 0.53992 0.22502 0.0
C287 C 0.02086 0.56921 0.32956 0.0
C288 C 0.02382 0.53868 0.3647 0.0
C289 C 0.02899 0.50904 0.33036 0.0
C290 C 0.03033 0.50959 0.26112 0.0
C291 C 0.02153 0.53793 0.43723 0.0
C292 C 0.04685 0.53241 0.50073 0.0
C293 C 0.99473 0.54352 0.44436 0.0
C294 C 0.9664 0.54676 0.37901 0.0
C295 C 0.94503 0.51584 0.33124 0.0
C296 C 0.91721 0.51865 0.27216 0.0
C297 C 0.91093 0.55224 0.25921 0.0
C298 C 0.93221 0.58316 0.30637 0.0
C299 C 0.95972 0.58045 0.36677 0.0
H300 H 0.88943 0.55417 0.21304 0.0
H301 H 0.14589 0.51591 0.81231 0.0
H302 H 0.55779 1.01067 0.2477 0.0
H303 H 0.55769 1.0119 0.37026 0.0
H304 H 0.47478 0.0539 0.28891 0.0
H305 H 0.47605 0.05518 0.1673 0.0
H306 H 0.51249 0.0864 0.42456 0.0
H307 H 0.47375 0.96278 0.30741 0.0
H308 H 0.47647 0.90755 0.24258 0.0
H309 H 0.56091 0.90381 0.43334 0.0
H310 H 0.55901 0.95942 0.49883 0.0
H311 H 0.47201 0.05326 0.71998 0.0
H312 H 0.47139 0.05074 0.59665 0.0
H313 H 0.55454 1.00917 0.67815 0.0
H314 H 0.55383 1.00891 0.80054 0.0
H315 H 0.51657 0.97627 0.54223 0.0
H316 H 0.55489 0.10031 0.65912 0.0
H317 H 0.55122 0.15498 0.72373 0.0
H318 H 0.46663 0.15757 0.53221 0.0
H319 H 0.46944 0.10245 0.46702 0.0
C320 C 0.53987 1.02087 0.25603 0.0
C321 C 0.51721 1.0333 0.19768 0.0
C322 C 0.53956 1.02103 0.32608 0.0
C323 C 0.5159 1.03241 0.33866 0.0
C324 C 0.49327 0.04496 0.28063 0.0
C325 C 0.49395 0.0455 0.21091 0.0
C326 C 0.51464 1.03103 0.41211 0.0
C327 C 0.51298 0.06217 0.44979 0.0
C328 C 0.51591 0.99964 0.44594 0.0
C329 C 0.51636 0.96542 0.40778 0.0
C330 C 0.49294 0.95022 0.33546 0.0
C331 C 0.49434 0.91885 0.29857 0.0
C332 C 0.51888 0.90221 0.33377 0.0
C333 C 0.54194 0.91676 0.40614 0.0
C334 C 0.5407 0.94818 0.44319 0.0
C335 C 0.48978 0.0428 0.71151 0.0
C336 C 0.51268 1.03082 0.77018 0.0
C337 C 0.48969 0.04191 0.641 0.0
C338 C 0.51327 1.03039 0.62825 0.0
C339 C 0.53611 1.01822 0.68655 0.0
C340 C 0.53578 1.01831 0.75673 0.0
C341 C 0.51441 1.03163 0.55465 0.0
C342 C 0.51607 1.00048 0.51697 0.0
C343 C 0.51308 0.06299 0.5207 0.0
C344 C 0.51227 0.09712 0.55842 0.0
C345 C 0.5355 0.11253 0.63082 0.0
C346 C 0.53355 0.14357 0.66758 0.0
C347 C 0.50868 0.1597 0.63212 0.0
C348 C 0.48585 0.14501 0.5596 0.0
C349 C 0.48762 0.11388 0.52271 0.0
H350 H 0.50701 0.18353 0.66078 0.0
H351 H 0.52009 0.87808 0.30502 0.0
H352 H 0.46447 0.54266 0.71909 0.0
H353 H 0.46494 0.54497 0.59695 0.0
H354 H 0.55433 0.51657 0.68253 0.0
H355 H 0.55387 0.51467 0.80556 0.0
H356 H 0.55443 0.56848 0.60212 0.0
H357 H 0.48414 0.45534 0.56526 0.0
H358 H 0.43861 0.41611 0.56946 0.0
H359 H 0.37743 0.47256 0.41618 0.0
H360 H 0.42265 0.51259 0.41217 0.0
H361 H 0.55655 0.52425 0.25299 0.0
H362 H 0.5557 0.52309 0.37485 0.0
H363 H 0.46619 0.55119 0.28594 0.0
H364 H 0.46702 0.55201 0.16311 0.0
H365 H 0.46578 0.49995 0.36778 0.0
H366 H 0.53595 0.61276 0.40371 0.0
H367 H 0.58154 0.65281 0.40142 0.0
H368 H 0.64293 0.59738 0.55705 0.0
H369 H 0.59768 0.55654 0.55919 0.0
C370 C 0.48371 0.53588 0.7112 0.0
C371 C 0.50854 0.52718 0.77072 0.0
C372 C 0.48417 0.53756 0.64154 0.0
C373 C 0.50935 0.53014 0.62981 0.0
C374 C 0.53453 0.52214 0.68994 0.0
C375 C 0.53421 0.52089 0.75998 0.0
C376 C 0.50954 0.5312 0.55515 0.0
C377 C 0.53524 0.5531 0.551 0.0
C378 C 0.48414 0.51186 0.48811 0.0
C379 C 0.45683 0.48714 0.48884 0.0
C380 C 0.46099 0.4595 0.53271 0.0
C381 C 0.43524 0.43713 0.53508 0.0
C382 C 0.40515 0.44187 0.49315 0.0
C383 C 0.40075 0.46893 0.44864 0.0
C384 C 0.42643 0.49146 0.44626 0.0
C385 C 0.53719 0.53123 0.26002 0.0
C386 C 0.51241 0.53943 0.19948 0.0
C387 C 0.53653 0.53022 0.32956 0.0
C388 C 0.51119 0.53782 0.34028 0.0
C389 C 0.48609 0.54546 0.27929 0.0
C390 C 0.48663 0.54607 0.20934 0.0
C391 C 0.51073 0.53717 0.41474 0.0
C392 C 0.48498 0.51534 0.41887 0.0
C393 C 0.53609 0.55658 0.48179 0.0
C394 C 0.56337 0.58142 0.48122 0.0
C395 C 0.55915 0.60896 0.43709 0.0
C396 C 0.58493 0.63181 0.43583 0.0
C397 C 0.6151 0.62765 0.47911 0.0
C398 C 0.61955 0.60059 0.52361 0.0
C399 C 0.59384 0.57759 0.52489 0.0
H400 H 0.63504 0.64546 0.47832 0.0
H401 H 0.38524 0.42453 0.49504 0.0
H402 H 0.07356 0.50405 0.9327 0.0
H403 H 0.11982 0.50219 0.91154 0.0
H404 H 0.17919 0.56027 0.13416 0.0
H405 H 0.13329 0.56131 0.15642 0.0
H406 H 0.18658 0.59267 0.01102 0.0
H407 H 0.1939 0.47876 0.11587 0.0
H408 H 0.17416 0.41566 0.12183 0.0
H409 H 0.14179 0.38866 0.88377 0.0
H410 H 0.16211 0.45153 0.87697 0.0
H411 H 0.34431 0.59891 0.10066 0.0
H412 H 0.2921 0.58971 0.09417 0.0
H413 H 0.25546 0.51659 0.88699 0.0
H414 H 0.30788 0.52658 0.89161 0.0
H415 H 0.23116 0.49012 0.97849 0.0
H416 H 0.24029 0.59894 0.88512 0.0
H417 H 0.26139 0.66076 0.87516 0.0
H418 H 0.25847 0.69967 0.07923 0.0
H419 H 0.23796 0.63798 0.0914 0.0
C420 C 0.09643 0.51539 0.97807 0.0
C421 C 0.09955 0.53279 0.04652 0.0
C422 C 0.12296 0.51449 0.96567 0.0
C423 C 0.15312 0.53138 0.02104 0.0
C424 C 0.15626 0.54718 0.09041 0.0
C425 C 0.12992 0.54762 0.10316 0.0
C426 C 0.1812 0.5357 0.00539 0.0
C427 C 0.19653 0.57032 0.00457 0.0
C428 C 0.19343 0.50653 0.99322 0.0
C429 C 0.17925 0.46962 -0.00411 0.0
C430 C 0.18236 0.45934 0.06483 0.0
C431 C 0.17136 0.42362 0.06844 0.0
C432 C 0.1568 0.39816 0.00325 0.0
C433 C 0.15316 0.40839 0.93423 0.0
C434 C 0.16455 0.44399 0.93052 0.0
C435 C 0.32524 0.58126 0.05278 0.0
C436 C 0.33067 0.56397 -0.00394 0.0
C437 C 0.29519 0.57596 0.04931 0.0
C438 C 0.26947 0.55295 0.98939 0.0
C439 C 0.27478 0.53469 0.93369 0.0
C440 C 0.30493 0.54026 0.93672 0.0
C441 C 0.23749 0.54744 0.98709 0.0
C442 C 0.22125 0.51263 0.98409 0.0
C443 C 0.22419 0.57659 -0.00532 0.0
C444 C 0.23788 0.61366 0.9896 0.0
C445 C 0.24459 0.62057 0.92855 0.0
C446 C 0.25636 0.65564 0.92237 0.0
C447 C 0.26134 0.68411 0.97663 0.0
C448 C 0.25467 0.67757 0.03735 0.0
C449 C 0.24298 0.64254 0.04392 0.0
H450 H 0.27025 0.71125 0.97147 0.0
H451 H 0.14825 0.37052 0.00619 0.0
H452 H 0.6943 0.13032 0.96384 0.0
H453 H 0.73104 0.18391 0.96479 0.0
H454 H 0.77767 0.19848 0.20665 0.0
H455 H 0.74139 0.14442 0.20588 0.0
H456 H 0.76053 0.26269 0.13349 0.0
H457 H 0.81382 0.16775 0.13388 0.0
H458 H 0.81774 0.109 0.08594 0.0
H459 H 0.79998 0.1421 0.87195 0.0
H460 H 0.79547 0.2009 0.91834 0.0
H461 H 0.89663 0.39353 0.20493 0.0
H462 H 0.85943 0.34057 0.20308 0.0
H463 H 0.83293 0.30805 0.96797 0.0
H464 H 0.87094 0.3605 0.97047 0.0
H465 H 0.83836 0.25258 0.03558 0.0
H466 H 0.78673 0.34763 0.03184 0.0
H467 H 0.78082 0.4063 0.07464 0.0
H468 H 0.79203 0.37387 0.28571 0.0
H469 H 0.79855 0.31523 0.24487 0.0
C470 C 0.7124 0.14505 0.01708 0.0
C471 C 0.71522 0.13337 0.08479 0.0
C472 C 0.73329 0.17549 0.01756 0.0
C473 C 0.75694 0.19495 0.08578 0.0
C474 C 0.75949 0.18371 0.15355 0.0
C475 C 0.73896 0.15285 0.15303 0.0
C476 C 0.77934 0.22677 0.08617 0.0
C477 C 0.77785 0.26063 0.11301 0.0
C478 C 0.80112 0.22382 0.05718 0.0
C479 C 0.80394 0.18855 0.0293 0.0
C480 C 0.81043 0.16237 0.07636 0.0
C481 C 0.81283 0.12909 0.04953 0.0
C482 C 0.80901 0.12178 0.97587 0.0
C483 C 0.80287 0.14778 0.92896 0.0
C484 C 0.80041 0.18109 0.9555 0.0
C485 C 0.88279 0.37505 0.15291 0.0
C486 C 0.88652 0.38101 0.08779 0.0
C487 C 0.86146 0.34492 0.15176 0.0
C488 C 0.84295 0.32065 0.08502 0.0
C489 C 0.84691 0.32643 0.02007 0.0
C490 C 0.86861 0.35631 0.02151 0.0
C491 C 0.81984 0.28895 0.08332 0.0
C492 C 0.82108 0.25495 0.05602 0.0
C493 C 0.79751 0.29188 0.11097 0.0
C494 C 0.79341 0.32711 0.1355 0.0
C495 C 0.78817 0.35309 0.0876 0.0
C496 C 0.78468 0.38633 0.11145 0.0
C497 C 0.7861 0.39381 0.18281 0.0
C498 C 0.79096 0.36805 0.23046 0.0
C499 C 0.79454 0.33479 0.20698 0.0
H500 H 0.78339 0.41956 0.20113 0.0
H501 H 0.81089 0.096 0.9552 0.0
H502 H 0.48266 0.91273 0.83634 0.0
H503 H 0.48569 0.8506 0.84781 0.0
H504 H 0.52613 0.8771 0.08886 0.0
H505 H 0.52251 0.93983 0.07694 0.0
H506 H 0.52949 0.81806 0.89919 0.0
H507 H 0.50983 0.79725 0.16468 0.0
H508 H 0.4821 0.81875 0.23284 0.0
H509 H 0.41924 0.85027 0.03241 0.0
H510 H 0.44602 0.8281 0.96252 0.0
H511 H 0.52143 0.63698 0.07933 0.0
H512 H 0.52703 0.70255 0.08872 0.0
H513 H 0.48693 0.69199 0.84756 0.0
H514 H 0.48325 0.62784 0.83877 0.0
H515 H 0.48844 0.74477 0.04829 0.0
H516 H 0.49674 0.74614 0.77913 0.0
H517 H 0.52344 0.72636 0.70633 0.0
H518 H 0.60759 0.73884 0.9099 0.0
H519 H 0.58106 0.75842 0.98345 0.0
C520 C 0.4924 0.90551 0.89204 0.0
C521 C 0.50288 0.93184 0.95558 0.0
C522 C 0.49417 0.86965 0.89866 0.0
C523 C 0.50601 0.85814 0.9692 0.0
C524 C 0.51646 0.88445 0.03333 0.0
C525 C 0.51478 0.92068 0.02662 0.0
C526 C 0.50758 0.81894 0.97381 0.0
C527 C 0.52016 0.80224 0.93156 0.0
C528 C 0.49622 0.79744 0.01688 0.0
C529 C 0.48031 0.81152 0.05868 0.0
C530 C 0.49011 0.80879 0.13515 0.0
C531 C 0.47451 0.82103 0.17405 0.0
C532 C 0.44906 0.83607 0.1371 0.0
C533 C 0.43908 0.8388 0.06107 0.0
C534 C 0.45447 0.8264 0.02179 0.0
C535 C 0.51493 0.6489 0.02856 0.0
C536 C 0.5031 0.62683 0.95834 0.0
C537 C 0.51775 0.68662 0.03374 0.0
C538 C 0.50857 0.70358 0.96894 0.0
C539 C 0.49604 0.68106 0.89917 0.0
C540 C 0.4935 0.64377 0.89408 0.0
C541 C 0.51004 0.74392 0.97295 0.0
C542 C 0.49801 0.7608 0.01665 0.0
C543 C 0.52148 0.76574 0.93046 0.0
C544 C 0.53669 0.7522 0.88685 0.0
C545 C 0.5208 0.74409 0.80822 0.0
C546 C 0.53588 0.73303 0.76685 0.0
C547 C 0.56709 0.73092 0.80354 0.0
C548 C 0.5833 0.74005 0.8816 0.0
C549 C 0.56816 0.75068 0.92321 0.0
H550 H 0.5788 0.72252 0.77144 0.0
H551 H 0.437 0.84549 0.16731 0.0
H552 H 0.90415 0.51669 0.84368 0.0
H553 H 0.85753 0.52376 0.85724 0.0
H554 H 0.91477 0.57034 0.08968 0.0
H555 H 0.96158 0.56468 0.0749 0.0
H556 H 0.83189 0.49211 0.92923 0.0
H557 H 0.88069 0.60847 0.16453 0.0
H558 H 0.9134 0.66994 0.21207 0.0
H559 H 0.89428 0.68683 0.98666 0.0
H560 H 0.86323 0.6245 0.93845 0.0
H561 H 0.71511 0.50547 0.06741 0.0
H562 H 0.76111 0.49792 0.04893 0.0
H563 H 0.7596 0.59322 0.94531 0.0
H564 H 0.71435 0.60096 0.96505 0.0
H565 H 0.81548 0.59817 0.04977 0.0
H566 H 0.74024 0.50573 0.84823 0.0
H567 H 0.69949 0.44977 0.7903 0.0
H568 H 0.76254 0.39031 0.92819 0.0
H569 H 0.8035 0.44605 0.98825 0.0
C570 C 0.9069 0.52933 0.8972 0.0
C571 C 0.93673 0.54014 0.95798 0.0
C572 C 0.88009 0.53311 0.90523 0.0
C573 C 0.88209 0.54749 0.97464 0.0
C574 C 0.91213 0.55978 0.0349 0.0
C575 C 0.93911 0.55643 0.02648 0.0
C576 C 0.85261 0.54695 0.98404 0.0
C577 C 0.82844 0.51546 0.95561 0.0
C578 C 0.84758 0.57682 0.01926 0.0
C579 C 0.87039 0.61168 0.0483 0.0
C580 C 0.88446 0.6249 0.12553 0.0
C581 C 0.90264 0.65987 0.15252 0.0
C582 C 0.90609 0.68218 0.10241 0.0
C583 C 0.89199 0.66927 0.02542 0.0
C584 C 0.87454 0.63395 -0.00165 0.0
C585 C 0.72409 0.52407 0.03859 0.0
C586 C 0.71092 0.55359 0.01691 0.0
C587 C 0.75052 0.51989 0.02836 0.0
C588 C 0.76418 0.54509 -0.00411 0.0
C589 C 0.74988 0.5735 0.97096 0.0
C590 C 0.72375 0.57774 0.98154 0.0
C591 C 0.7945 0.54395 0.99252 0.0
C592 C 0.81896 0.57484 0.0233 0.0
C593 C 0.79955 0.51363 0.95877 0.0
C594 C 0.7748 0.48018 0.92351 0.0
C595 C 0.74531 0.4808 0.86693 0.0
C596 C 0.72218 0.4491 0.83362 0.0
C597 C 0.72838 0.41654 0.85585 0.0
C598 C 0.75774 0.41559 0.91131 0.0
C599 C 0.78091 0.44723 0.94505 0.0
H600 H 0.71046 0.39202 0.82988 0.0
H601 H 0.91954 0.70956 0.12321 0.0
H602 H 0.11369 0.7823 0.91658 0.0
H603 H 0.15558 0.80864 0.88531 0.0
H604 H 0.20261 0.72444 0.96789 0.0
H605 H 0.16132 0.69884 0.00357 0.0
H606 H 0.24358 0.78566 0.01397 0.0
H607 H 0.16798 0.72684 0.7782 0.0
H608 H 0.11616 0.70457 0.67113 0.0
H609 H 0.11107 0.81232 0.63301 0.0
H610 H 0.16265 0.83535 0.74059 0.0
H611 H 0.3443 0.88954 0.87158 0.0
H612 H 0.30899 0.83655 0.87741 0.0
H613 H 0.24458 0.90074 0.87627 0.0
H614 H 0.28013 0.95399 0.8745 0.0
H615 H 0.21781 0.83155 0.77192 0.0
H616 H 0.29106 0.88537 0.03621 0.0
H617 H 0.34472 0.90331 0.13803 0.0
H618 H 0.35602 0.79595 0.11035 0.0
H619 H 0.3025 0.77751 0.00777 0.0
C620 C 0.13304 0.7695 0.92893 0.0
C621 C 0.13414 0.73853 0.96285 0.0
C622 C 0.15677 0.78426 0.90979 0.0
C623 C 0.18191 0.76806 0.92263 0.0
C624 C 0.18326 0.73717 0.95673 0.0
C625 C 0.15954 0.72247 0.97659 0.0
C626 C 0.20724 0.78502 0.9035 0.0
C627 C 0.23806 0.79485 0.96028 0.0
C628 C 0.20034 0.79638 0.83292 0.0
C629 C 0.16924 0.78284 0.76775 0.0
C630 C 0.15576 0.74583 0.7473 0.0
C631 C 0.12641 0.73307 0.68646 0.0
C632 C 0.11033 0.75702 0.64531 0.0
C633 C 0.12358 0.7938 0.66489 0.0
C634 C 0.15291 0.80672 0.72574 0.0
C635 C 0.32276 0.89251 0.87325 0.0
C636 C 0.31514 0.9262 0.87272 0.0
C637 C 0.30253 0.86211 0.87584 0.0
C638 C 0.27425 0.86488 0.8769 0.0
C639 C 0.26624 0.89813 0.87466 0.0
C640 C 0.28656 0.92853 0.87325 0.0
C641 C 0.25318 0.83386 0.88387 0.0
C642 C 0.22331 0.82128 0.82455 0.0
C643 C 0.26119 0.81917 0.95111 0.0
C644 C 0.29297 0.83017 0.01393 0.0
C645 C 0.30506 0.86566 0.05161 0.0
C646 C 0.33543 0.87591 0.10948 0.0
C647 C 0.3538 0.85082 0.13049 0.0
C648 C 0.34178 0.81537 0.09395 0.0
C649 C 0.31143 0.805 0.03602 0.0
H650 H 0.37733 0.85881 0.17517 0.0
H651 H 0.0876 0.74708 0.59822 0.0
H652 H 0.49786 0.42567 0.88967 0.0
H653 H 0.49341 0.36029 0.88074 0.0
H654 H 0.53812 0.3719 0.12218 0.0
H655 H 0.54053 0.43572 0.13068 0.0
H656 H 0.53212 0.31927 0.91449 0.0
H657 H 0.53308 0.31336 0.1959 0.0
H658 H 0.50987 0.3337 0.27677 0.0
H659 H 0.42432 0.32929 0.0817 0.0
H660 H 0.44732 0.3089 0.00015 0.0
H661 H 0.54807 0.1522 0.13225 0.0
H662 H 0.54352 0.2139 0.12131 0.0
H663 H 0.5001 0.18701 0.87997 0.0
H664 H 0.50579 0.1249 0.89144 0.0
H665 H 0.50036 0.24565 0.07737 0.0
H666 H 0.50898 0.26734 0.79887 0.0
H667 H 0.53388 0.2474 0.7221 0.0
H668 H 0.60222 0.21649 0.91454 0.0
H669 H 0.57845 0.23744 0.99313 0.0
C670 C 0.50564 0.414 0.94073 0.0
C671 C 0.51851 0.43631 0.01099 0.0
C672 C 0.50348 0.37638 0.93578 0.0
C673 C 0.51447 0.35976 0.00083 0.0
C674 C 0.5278 0.3825 0.07054 0.0
C675 C 0.52958 0.41964 0.07541 0.0
C676 C 0.51407 0.31962 -0.00309 0.0
C677 C 0.52455 0.30312 0.94919 0.0
C678 C 0.50538 0.29773 0.04342 0.0
C679 C 0.49211 0.31095 0.09206 0.0
C680 C 0.50943 0.31711 0.17049 0.0
C681 C 0.49634 0.32857 0.21639 0.0
C682 C 0.46574 0.33318 0.18435 0.0
C683 C 0.44814 0.32614 0.10642 0.0
C684 C 0.46127 0.31503 0.06034 0.0
C685 C 0.53742 0.15925 0.07661 0.0
C686 C 0.52669 0.13295 0.01291 0.0
C687 C 0.53473 0.1949 0.07027 0.0
C688 C 0.52151 0.20623 -0.00022 0.0
C689 C 0.51086 0.17993 0.93549 0.0
C690 C 0.51367 0.14398 0.94195 0.0
C691 C 0.51875 0.24518 -0.00448 0.0
C692 C 0.50772 0.26153 0.04197 0.0
C693 C 0.5274 0.26682 0.94851 0.0
C694 C 0.54154 0.2534 0.90161 0.0
C695 C 0.52932 0.25628 0.82484 0.0
C696 C 0.54331 0.24491 0.78105 0.0
C697 C 0.56947 0.23043 0.81329 0.0
C698 C 0.58184 0.22752 0.88954 0.0
C699 C 0.56813 0.23919 0.93378 0.0
H700 H 0.58025 0.22165 0.77925 0.0
H701 H 0.4556 0.34194 0.21993 0.0
loop_
_geom_bond_atom_site_label_1
_geom_bond_atom_site_label_2
_geom_bond_distance
_geom_bond_site_symmetry_2
_ccdc_geom_bond_type
Gd0 N31 2.661 1_454 S
Gd0 N37 2.601 . S
Gd0 O44 2.545 . S
Gd0 O45 2.606 . S
Gd0 O47 2.429 . S
Gd0 O48 2.545 . S
Gd0 O49 2.412 1_554 S
Gd0 O51 2.362 1_454 S
Gd0 O52 2.324 1_554 S
Gd0 C59 2.828 . S
Gd1 N10 2.661 1_656 S
Gd1 N14 2.601 . S
Gd1 O45 2.362 1_656 S
Gd1 O46 2.324 1_556 S
Gd1 O50 2.545 . S
Gd1 O51 2.606 . S
Gd1 O53 2.429 . S
Gd1 O54 2.545 . S
Gd1 O55 2.412 1_556 S
Gd1 C68 2.828 . S
C2 C5 1.417 1_554 S
C2 C7 1.431 1_554 S
C2 C8 1.412 . S
C3 C6 1.437 . S
C3 C7 1.317 . S
C3 H22 0.929 . S
C4 C5 1.426 . S
C4 C6 1.413 . S
C4 N14 1.359 1_455 S
C5 C2 1.417 1_556 S
C5 C4 1.426 . S
C5 N10 1.350 1_556 S
C6 C3 1.437 . S
C6 C4 1.413 . S
C6 C16 1.391 1_455 S
C7 C2 1.431 1_556 S
C7 C3 1.317 . S
C7 H18 0.930 1_556 S
C8 C2 1.412 . S
C8 C9 1.355 . S
C8 H20 0.930 . S
C9 C8 1.355 . S
C9 C11 1.402 . S
C9 H21 0.930 . S
N10 Gd1 2.661 1_454 S
N10 C5 1.350 1_554 S
N10 C11 1.307 . S
C11 C9 1.402 . S
C11 N10 1.307 . S
C11 H12 0.930 . S
H12 C11 0.930 . S
C13 N14 1.334 . S
C13 C15 1.394 . S
C13 H17 0.930 . S
N14 Gd1 2.601 . S
N14 C4 1.359 1_655 S
N14 C13 1.334 . S
C15 C13 1.394 . S
C15 C16 1.359 . S
C15 H27 0.930 . S
C16 C6 1.391 1_655 S
C16 C15 1.359 . S
C16 H28 0.929 . S
H17 C13 0.930 . S
H18 C7 0.930 1_554 S
H19 C36 0.930 . S
H20 C8 0.930 . S
H21 C9 0.930 . S
H22 C3 0.929 . S
H23 C41 0.930 . S
H24 C32 0.930 . S
H25 C33 0.930 . S
H26 C57 0.929 . S
H27 C15 0.930 . S
H28 C16 0.929 . S
H29 C58 0.930 1_556 S
H30 C39 0.930 . S
N31 Gd0 2.661 1_656 S
N31 C35 1.350 1_556 S
N31 C36 1.307 . S
C32 H24 0.930 . S
C32 C33 1.355 . S
C32 C34 1.412 . S
C33 H25 0.930 . S
C33 C32 1.355 . S
C33 C36 1.402 . S
C34 C32 1.412 . S
C34 C35 1.417 1_556 S
C34 C58 1.431 1_556 S
C35 N31 1.350 1_554 S
C35 C34 1.417 1_554 S
C35 C38 1.426 . S
C36 H19 0.930 . S
C36 N31 1.307 . S
C36 C33 1.402 . S
N37 Gd0 2.601 . S
N37 C38 1.359 1_455 S
N37 C41 1.334 . S
C38 C35 1.426 . S
C38 N37 1.359 1_655 S
C38 C42 1.413 . S
C39 H30 0.930 . S
C39 C40 1.359 . S
C39 C41 1.394 . S
C40 C39 1.359 . S
C40 C42 1.391 1_455 S
C40 H43 0.929 . S
C41 H23 0.930 . S
C41 N37 1.334 . S
C41 C39 1.394 . S
C42 C38 1.413 . S
C42 C40 1.391 1_655 S
C42 C57 1.437 . S
H43 C40 0.929 . S
O44 Gd0 2.545 . S
O44 C59 1.258 . S
O45 Gd0 2.606 . S
O45 Gd1 2.362 1_454 S
O45 C56 1.284 . S
O46 Gd1 2.324 1_554 S
O46 C66 1.254 1_655 S
O47 Gd0 2.429 . S
O47 C66 1.268 . S
O48 Gd0 2.545 . S
O48 C56 1.250 . S
O49 Gd0 2.412 1_556 S
O49 C59 1.252 1_556 S
O50 Gd1 2.545 . S
O50 C68 1.258 . S
O51 Gd0 2.362 1_656 S
O51 Gd1 2.606 . S
O51 C67 1.284 . S
O52 Gd0 2.324 1_556 S
O52 C75 1.254 1_455 S
O53 Gd1 2.429 . S
O53 C75 1.268 . S
O54 Gd1 2.545 . S
O54 C67 1.250 . S
O55 Gd1 2.412 1_554 S
O55 C68 1.252 1_554 S
C56 O45 1.284 . S
C56 O48 1.250 . S
C57 H26 0.929 . S
C57 C42 1.437 . S
C57 C58 1.317 . S
C58 H29 0.930 1_554 S
C58 C34 1.431 1_554 S
C58 C57 1.317 . S
C59 Gd0 2.828 . S
C59 O44 1.258 . S
C59 O49 1.252 1_554 S
C59 C60 1.497 . S
C60 C59 1.497 . S
C60 C61 1.395 . S
C60 C62 1.380 . S
C61 C60 1.395 . S
C61 C64 1.398 . S
C61 H76 0.930 . S
C62 C60 1.380 . S
C62 C63 1.391 . S
C62 H77 0.930 1_554 S
C63 C62 1.391 . S
C63 C65 1.387 . S
C64 C61 1.398 . S
C64 C65 1.380 . S
C64 H78 0.930 . S
C65 C63 1.387 . S
C65 C64 1.380 . S
C65 H79 0.930 . S
C66 O46 1.254 1_455 S
C66 O47 1.268 . S
C67 O51 1.284 . S
C67 O54 1.250 . S
C68 Gd1 2.828 . S
C68 O50 1.258 . S
C68 O55 1.252 1_556 S
C68 C69 1.497 . S
C69 C68 1.497 . S
C69 C70 1.395 . S
C69 C71 1.380 . S
C70 C69 1.395 . S
C70 C73 1.398 . S
C70 H80 0.930 . S
C71 C69 1.380 . S
C71 C72 1.391 . S
C71 H81 0.930 1_556 S
C72 C71 1.391 . S
C72 C74 1.387 . S
C73 C70 1.398 . S
C73 C74 1.380 . S
C73 H82 0.930 . S
C74 C72 1.387 . S
C74 C73 1.380 . S
C74 H83 0.930 . S
C75 O52 1.254 1_655 S
C75 O53 1.268 . S
H76 C61 0.930 . S
H77 C62 0.930 1_556 S
H78 C64 0.930 . S
H79 C65 0.930 . S
H80 C70 0.930 . S
H81 C71 0.930 1_554 S
H82 C73 0.930 . S
H83 C74 0.930 . S
Gd84 N115 2.661 1_565 S
Gd84 N121 2.601 1_565 S
Gd84 O128 2.545 . S
Gd84 O129 2.606 1_556 S
Gd84 O131 2.429 . S
Gd84 O132 2.545 . S
Gd84 O133 2.412 . S
Gd84 O135 2.362 1_565 S
Gd84 O136 2.324 1_556 S
Gd84 C143 2.828 . S
Gd85 N94 2.661 1_545 S
Gd85 N98 2.601 1_545 S
Gd85 O129 2.362 1_545 S
Gd85 O130 2.324 1_554 S
Gd85 O134 2.545 . S
Gd85 O135 2.606 1_554 S
Gd85 O137 2.429 . S
Gd85 O138 2.545 . S
Gd85 O139 2.412 . S
Gd85 C152 2.828 . S
C86 C89 1.417 . S
C86 C91 1.431 . S
C86 C92 1.412 1_554 S
C87 C90 1.437 . S
C87 C91 1.317 . S
C87 H106 0.929 . S
C88 C89 1.426 . S
C88 C90 1.413 . S
C88 N98 1.359 . S
C89 C86 1.417 . S
C89 C88 1.426 . S
C89 N94 1.350 . S
C90 C87 1.437 . S
C90 C88 1.413 . S
C90 C100 1.391 . S
C91 C86 1.431 . S
C91 C87 1.317 . S
C91 H102 0.930 . S
C92 C86 1.412 1_556 S
C92 C93 1.355 . S
C92 H104 0.930 . S
C93 C92 1.355 . S
C93 C95 1.402 . S
C93 H105 0.930 . S
N94 Gd85 2.661 1_565 S
N94 C89 1.350 . S
N94 C95 1.307 1_554 S
C95 C93 1.402 . S
C95 N94 1.307 1_556 S
C95 H96 0.930 . S
H96 C95 0.930 . S
C97 N98 1.334 1_545 S
C97 C99 1.394 . S
C97 H101 0.930 . S
N98 Gd85 2.601 1_565 S
N98 C88 1.359 . S
N98 C97 1.334 1_565 S
C99 C97 1.394 . S
C99 C100 1.359 1_545 S
C99 H111 0.930 . S
C100 C90 1.391 . S
C100 C99 1.359 1_565 S
C100 H112 0.929 . S
H101 C97 0.930 . S
H102 C91 0.930 . S
H103 C120 0.930 . S
H104 C92 0.930 . S
H105 C93 0.930 . S
H106 C87 0.929 . S
H107 C125 0.930 . S
H108 C116 0.930 . S
H109 C117 0.930 . S
H110 C141 0.929 . S
H111 C99 0.930 . S
H112 C100 0.929 . S
H113 C142 0.930 . S
H114 C123 0.930 . S
N115 Gd84 2.661 1_545 S
N115 C119 1.350 . S
N115 C120 1.307 1_556 S
C116 H108 0.930 . S
C116 C117 1.355 . S
C116 C118 1.412 1_554 S
C117 H109 0.930 . S
C117 C116 1.355 . S
C117 C120 1.402 . S
C118 C116 1.412 1_556 S
C118 C119 1.417 . S
C118 C142 1.431 . S
C119 N115 1.350 . S
C119 C118 1.417 . S
C119 C122 1.426 . S
C120 H103 0.930 . S
C120 N115 1.307 1_554 S
C120 C117 1.402 . S
N121 Gd84 2.601 1_545 S
N121 C122 1.359 . S
N121 C125 1.334 1_545 S
C122 C119 1.426 . S
C122 N121 1.359 . S
C122 C126 1.413 . S
C123 H114 0.930 . S
C123 C124 1.359 1_565 S
C123 C125 1.394 . S
C124 C123 1.359 1_545 S
C124 C126 1.391 . S
C124 H127 0.929 . S
C125 H107 0.930 . S
C125 N121 1.334 1_565 S
C125 C123 1.394 . S
C126 C122 1.413 . S
C126 C124 1.391 . S
C126 C141 1.437 . S
H127 C124 0.929 . S
O128 Gd84 2.545 . S
O128 C143 1.258 . S
O129 Gd84 2.606 1_554 S
O129 Gd85 2.362 1_565 S
O129 C140 1.284 . S
O130 Gd85 2.324 1_556 S
O130 C150 1.252 . S
O131 Gd84 2.429 . S
O131 C150 1.264 1_565 S
O132 Gd84 2.545 . S
O132 C140 1.250 1_556 S
O133 Gd84 2.412 . S
O133 C143 1.252 . S
O134 Gd85 2.545 . S
O134 C152 1.258 . S
O135 Gd84 2.362 1_545 S
O135 Gd85 2.606 1_556 S
O135 C151 1.284 . S
O136 Gd84 2.324 1_554 S
O136 C159 1.253 . S
O137 Gd85 2.429 . S
O137 C159 1.267 1_545 S
O138 Gd85 2.545 . S
O138 C151 1.250 1_554 S
O139 Gd85 2.412 . S
O139 C152 1.252 . S
C140 O129 1.284 . S
C140 O132 1.250 1_554 S
C141 H110 0.929 . S
C141 C126 1.437 . S
C141 C142 1.317 . S
C142 H113 0.930 . S
C142 C118 1.431 . S
C142 C141 1.317 . S
C143 Gd84 2.828 . S
C143 O128 1.258 . S
C143 O133 1.252 . S
C143 C144 1.497 . S
C144 C143 1.497 . S
C144 C145 1.395 . S
C144 C146 1.380 . S
C145 C144 1.395 . S
C145 C148 1.398 . S
C145 H160 0.930 . S
C146 C144 1.380 . S
C146 C147 1.391 . S
C146 H161 0.930 1_556 S
C147 C146 1.391 . S
C147 C149 1.387 . S
C148 C145 1.398 . S
C148 C149 1.380 . S
C148 H162 0.930 . S
C149 C147 1.387 . S
C149 C148 1.380 . S
C149 H163 0.930 . S
C150 O130 1.252 . S
C150 O131 1.264 1_545 S
C151 O135 1.284 . S
C151 O138 1.250 1_556 S
C152 Gd85 2.828 . S
C152 O134 1.258 . S
C152 O139 1.252 . S
C152 C153 1.497 . S
C153 C152 1.497 . S
C153 C154 1.395 . S
C153 C155 1.380 . S
C154 C153 1.395 . S
C154 C157 1.398 . S
C154 H164 0.930 . S
C155 C153 1.380 . S
C155 C156 1.391 . S
C155 H165 0.930 1_554 S
C156 C155 1.391 . S
C156 C158 1.387 . S
C157 C154 1.398 . S
C157 C158 1.380 . S
C157 H166 0.930 . S
C158 C156 1.387 . S
C158 C157 1.380 . S
C158 H167 0.930 . S
C159 O136 1.253 . S
C159 O137 1.267 1_565 S
H160 C145 0.930 . S
H161 C146 0.930 1_554 S
H162 C148 0.930 . S
H163 C149 0.930 . S
H164 C154 0.930 . S
H165 C155 0.930 1_556 S
H166 C157 0.930 . S
H167 C158 0.930 . S
Gd168 N199 2.661 . S
Gd168 N205 2.601 . S
Gd168 O212 2.545 . S
Gd168 O213 2.606 1_554 S
Gd168 O215 2.429 . S
Gd168 O216 2.545 . S
Gd168 O217 2.412 . S
Gd168 O219 2.362 . S
Gd168 O220 2.324 1_554 S
Gd168 C227 2.828 . S
Gd169 N178 2.661 . S
Gd169 N182 2.601 . S
Gd169 O213 2.362 . S
Gd169 O214 2.324 1_556 S
Gd169 O218 2.545 . S
Gd169 O219 2.606 1_556 S
Gd169 O221 2.429 . S
Gd169 O222 2.545 . S
Gd169 O223 2.412 . S
Gd169 C236 2.828 . S
C170 C173 1.417 . S
C170 C175 1.431 . S
C170 C176 1.412 1_556 S
C171 C174 1.437 . S
C171 C175 1.317 . S
C171 H190 0.929 . S
C172 C173 1.426 . S
C172 C174 1.413 . S
C172 N182 1.359 . S
C173 C170 1.417 . S
C173 C172 1.426 . S
C173 N178 1.350 . S
C174 C171 1.437 . S
C174 C172 1.413 . S
C174 C184 1.391 . S
C175 C170 1.431 . S
C175 C171 1.317 . S
C175 H186 0.930 . S
C176 C170 1.412 1_554 S
C176 C177 1.355 . S
C176 H188 0.930 . S
C177 C176 1.355 . S
C177 C179 1.402 . S
C177 H189 0.930 . S
N178 Gd169 2.661 . S
N178 C173 1.350 . S
N178 C179 1.307 1_556 S
C179 C177 1.402 . S
C179 N178 1.307 1_554 S
C179 H180 0.930 . S
H180 C179 0.930 . S
C181 N182 1.334 . S
C181 C183 1.394 . S
C181 H185 0.930 . S
N182 Gd169 2.601 . S
N182 C172 1.359 . S
N182 C181 1.334 . S
C183 C181 1.394 . S
C183 C184 1.359 . S
C183 H195 0.930 . S
C184 C174 1.391 . S
C184 C183 1.359 . S
C184 H196 0.929 . S
H185 C181 0.930 . S
H186 C175 0.930 . S
H187 C204 0.930 . S
H188 C176 0.930 . S
H189 C177 0.930 . S
H190 C171 0.929 . S
H191 C209 0.930 . S
H192 C200 0.930 . S
H193 C201 0.930 . S
H194 C225 0.929 . S
H195 C183 0.930 . S
H196 C184 0.929 . S
H197 C226 0.930 . S
H198 C207 0.930 . S
N199 Gd168 2.661 . S
N199 C203 1.350 . S
N199 C204 1.307 1_554 S
C200 H192 0.930 . S
C200 C201 1.355 . S
C200 C202 1.412 1_556 S
C201 H193 0.930 . S
C201 C200 1.355 . S
C201 C204 1.402 . S
C202 C200 1.412 1_554 S
C202 C203 1.417 . S
C202 C226 1.431 . S
C203 N199 1.350 . S
C203 C202 1.417 . S
C203 C206 1.426 . S
C204 H187 0.930 . S
C204 N199 1.307 1_556 S
C204 C201 1.402 . S
N205 Gd168 2.601 . S
N205 C206 1.359 . S
N205 C209 1.334 . S
C206 C203 1.426 . S
C206 N205 1.359 . S
C206 C210 1.413 . S
C207 H198 0.930 . S
C207 C208 1.359 . S
C207 C209 1.394 . S
C208 C207 1.359 . S
C208 C210 1.391 . S
C208 H211 0.929 . S
C209 H191 0.930 . S
C209 N205 1.334 . S
C209 C207 1.394 . S
C210 C206 1.413 . S
C210 C208 1.391 . S
C210 C225 1.437 . S
H211 C208 0.929 . S
O212 Gd168 2.545 . S
O212 C227 1.258 . S
O213 Gd168 2.606 1_556 S
O213 Gd169 2.362 . S
O213 C224 1.284 . S
O214 Gd169 2.324 1_554 S
O214 C234 1.254 . S
O215 Gd168 2.429 . S
O215 C234 1.268 . S
O216 Gd168 2.545 . S
O216 C224 1.250 1_554 S
O217 Gd168 2.412 . S
O217 C227 1.252 . S
O218 Gd169 2.545 . S
O218 C236 1.258 . S
O219 Gd168 2.362 . S
O219 Gd169 2.606 1_554 S
O219 C235 1.284 . S
O220 Gd168 2.324 1_556 S
O220 C243 1.254 . S
O221 Gd169 2.429 . S
O221 C243 1.268 . S
O222 Gd169 2.545 . S
O222 C235 1.250 1_556 S
O223 Gd169 2.412 . S
O223 C236 1.252 . S
C224 O213 1.284 . S
C224 O216 1.250 1_556 S
C225 H194 0.929 . S
C225 C210 1.437 . S
C225 C226 1.317 . S
C226 H197 0.930 . S
C226 C202 1.431 . S
C226 C225 1.317 . S
C227 Gd168 2.828 . S
C227 O212 1.258 . S
C227 O217 1.252 . S
C227 C228 1.497 . S
C228 C227 1.497 . S
C228 C229 1.395 . S
C228 C230 1.380 . S
C229 C228 1.395 . S
C229 C232 1.398 . S
C229 H244 0.930 . S
C230 C228 1.380 . S
C230 C231 1.391 . S
C230 H245 0.930 1_554 S
C231 C230 1.391 . S
C231 C233 1.387 . S
C232 C229 1.398 . S
C232 C233 1.380 . S
C232 H246 0.930 . S
C233 C231 1.387 . S
C233 C232 1.380 . S
C233 H247 0.930 . S
C234 O214 1.254 . S
C234 O215 1.268 . S
C235 O219 1.284 . S
C235 O222 1.250 1_554 S
C236 Gd169 2.828 . S
C236 O218 1.258 . S
C236 O223 1.252 . S
C236 C237 1.497 . S
C237 C236 1.497 . S
C237 C238 1.395 . S
C237 C239 1.380 . S
C238 C237 1.395 . S
C238 C241 1.398 . S
C238 H248 0.930 . S
C239 C237 1.380 . S
C239 C240 1.391 . S
C239 H249 0.930 1_556 S
C240 C239 1.391 . S
C240 C242 1.387 . S
C241 C238 1.398 . S
C241 C242 1.380 . S
C241 H250 0.930 . S
C242 C240 1.387 . S
C242 C241 1.380 . S
C242 H251 0.930 . S
C243 O220 1.254 . S
C243 O221 1.268 . S
H244 C229 0.930 . S
H245 C230 0.930 1_556 S
H246 C232 0.930 . S
H247 C233 0.930 . S
H248 C238 0.930 . S
H249 C239 0.930 1_554 S
H250 C241 0.930 . S
H251 C242 0.930 . S
H252 C270 0.951 . S
H253 C272 0.951 . S
H254 C274 0.950 . S
H255 C275 0.950 . S
H256 C277 0.950 . S
H257 C280 0.950 . S
H258 C281 0.950 . S
H259 C283 0.950 . S
H260 C284 0.950 . S
H261 C285 0.951 . S
H262 C287 0.951 . S
H263 C289 0.950 . S
H264 C290 0.950 . S
H265 C292 0.950 . S
H266 C295 0.950 . S
H267 C296 0.950 . S
H268 C298 0.950 . S
H269 C299 0.950 . S
C270 H252 0.951 . S
C270 C271 1.366 1_455 S
C270 C272 1.388 . S
C271 C270 1.366 1_655 S
C271 C275 1.385 . S
C272 H253 0.951 . S
C272 C270 1.388 . S
C272 C273 1.373 . S
C273 C272 1.373 . S
C273 C274 1.394 1_455 S
C273 C276 1.494 . S
C274 H254 0.950 . S
C274 C273 1.394 1_655 S
C274 C275 1.374 . S
C275 H255 0.950 . S
C275 C271 1.385 . S
C275 C274 1.374 . S
C276 C273 1.494 . S
C276 C277 1.351 1_455 S
C276 C278 1.427 . S
C277 H256 0.950 . S
C277 C276 1.351 1_655 S
C277 C293 1.377 . S
C278 C276 1.427 . S
C278 C279 1.524 . S
C278 C292 1.377 . S
C279 C278 1.524 . S
C279 C280 1.397 . S
C279 C284 1.363 . S
C280 H257 0.950 . S
C280 C279 1.397 . S
C280 C281 1.334 . S
C281 H258 0.950 . S
C281 C280 1.334 . S
C281 C282 1.287 . S
C282 C281 1.287 . S
C282 C283 1.524 . S
C282 H301 0.913 . S
C283 H259 0.950 . S
C283 C282 1.524 . S
C283 C284 1.415 . S
C284 H260 0.950 . S
C284 C279 1.363 . S
C284 C283 1.415 . S
C285 H261 0.951 . S
C285 C286 1.366 1_655 S
C285 C287 1.388 . S
C286 C285 1.366 1_455 S
C286 C290 1.385 . S
C287 H262 0.951 . S
C287 C285 1.388 . S
C287 C288 1.370 . S
C288 C287 1.370 . S
C288 C289 1.401 1_655 S
C288 C291 1.494 . S
C289 H263 0.950 . S
C289 C288 1.401 1_455 S
C289 C290 1.374 . S
C290 H264 0.950 . S
C290 C286 1.385 . S
C290 C289 1.374 . S
C291 C288 1.494 . S
C291 C292 1.357 1_655 S
C291 C293 1.418 . S
C292 H265 0.950 . S
C292 C278 1.377 . S
C292 C291 1.357 1_455 S
C293 C277 1.377 . S
C293 C291 1.418 . S
C293 C294 1.524 . S
C294 C293 1.524 . S
C294 C295 1.397 . S
C294 C299 1.363 . S
C295 H266 0.950 . S
C295 C294 1.397 . S
C295 C296 1.334 . S
C296 H267 0.950 . S
C296 C295 1.334 . S
C296 C297 1.287 . S
C297 C296 1.287 . S
C297 C298 1.524 . S
C297 H300 0.999 . S
C298 H268 0.950 . S
C298 C297 1.524 . S
C298 C299 1.415 . S
C299 H269 0.950 . S
C299 C294 1.363 . S
C299 C298 1.415 . S
H300 C297 0.999 . S
H301 C282 0.913 . S
H302 C320 0.951 . S
H303 C322 0.951 . S
H304 C324 0.950 . S
H305 C325 0.950 . S
H306 C327 0.950 . S
H307 C330 0.950 . S
H308 C331 0.950 . S
H309 C333 0.950 . S
H310 C334 0.950 . S
H311 C335 0.951 . S
H312 C337 0.951 . S
H313 C339 0.950 . S
H314 C340 0.950 . S
H315 C342 0.950 . S
H316 C345 0.950 . S
H317 C346 0.950 . S
H318 C348 0.950 . S
H319 C349 0.950 . S
C320 H302 0.951 . S
C320 C321 1.366 . S
C320 C322 1.388 . S
C321 C320 1.366 . S
C321 C325 1.385 1_565 S
C322 H303 0.951 . S
C322 C320 1.388 . S
C322 C323 1.366 . S
C323 C322 1.366 . S
C323 C324 1.414 1_565 S
C323 C326 1.499 . S
C324 H304 0.950 . S
C324 C323 1.414 1_545 S
C324 C325 1.374 . S
C325 H305 0.950 . S
C325 C321 1.385 1_545 S
C325 C324 1.374 . S
C326 C323 1.499 . S
C326 C327 1.373 1_565 S
C326 C328 1.389 . S
C327 H306 0.950 . S
C327 C326 1.373 1_545 S
C327 C343 1.377 . S
C328 C326 1.389 . S
C328 C329 1.524 . S
C328 C342 1.377 . S
C329 C328 1.524 . S
C329 C330 1.397 . S
C329 C334 1.363 . S
C330 H307 0.950 . S
C330 C329 1.397 . S
C330 C331 1.334 . S
C331 H308 0.950 . S
C331 C330 1.334 . S
C331 C332 1.287 . S
C332 C331 1.287 . S
C332 C333 1.524 . S
C332 H351 0.913 . S
C333 H309 0.950 . S
C333 C332 1.524 . S
C333 C334 1.415 . S
C334 H310 0.950 . S
C334 C329 1.363 . S
C334 C333 1.415 . S
C335 H311 0.951 . S
C335 C336 1.366 . S
C335 C337 1.388 . S
C336 C335 1.366 . S
C336 C340 1.385 1_545 S
C337 H312 0.951 . S
C337 C335 1.388 . S
C337 C338 1.366 . S
C338 C337 1.366 . S
C338 C339 1.414 1_545 S
C338 C341 1.499 . S
C339 H313 0.950 . S
C339 C338 1.414 1_565 S
C339 C340 1.374 . S
C340 H314 0.950 . S
C340 C336 1.385 1_565 S
C340 C339 1.374 . S
C341 C338 1.499 . S
C341 C342 1.373 1_545 S
C341 C343 1.389 . S
C342 H315 0.950 . S
C342 C328 1.377 . S
C342 C341 1.373 1_565 S
C343 C327 1.377 . S
C343 C341 1.389 . S
C343 C344 1.524 . S
C344 C343 1.524 . S
C344 C345 1.397 . S
C344 C349 1.363 . S
C345 H316 0.950 . S
C345 C344 1.397 . S
C345 C346 1.334 . S
C346 H317 0.950 . S
C346 C345 1.334 . S
C346 C347 1.287 . S
C347 C346 1.287 . S
C347 C348 1.524 . S
C347 H350 0.999 . S
C348 H318 0.950 . S
C348 C347 1.524 . S
C348 C349 1.415 . S
C349 H319 0.950 . S
C349 C344 1.363 . S
C349 C348 1.415 . S
H350 C347 0.999 . S
H351 C332 0.913 . S
H352 C370 0.951 . S
H353 C372 0.951 . S
H354 C374 0.950 . S
H355 C375 0.950 . S
H356 C377 0.950 . S
H357 C380 0.950 . S
H358 C381 0.950 . S
H359 C383 0.950 . S
H360 C384 0.950 . S
H361 C385 0.951 . S
H362 C387 0.951 . S
H363 C389 0.950 . S
H364 C390 0.950 . S
H365 C392 0.950 . S
H366 C395 0.950 . S
H367 C396 0.950 . S
H368 C398 0.950 . S
H369 C399 0.950 . S
C370 H352 0.951 . S
C370 C371 1.366 . S
C370 C372 1.388 . S
C371 C370 1.366 . S
C371 C375 1.385 . S
C372 H353 0.951 . S
C372 C370 1.388 . S
C372 C373 1.366 . S
C373 C372 1.366 . S
C373 C374 1.414 . S
C373 C376 1.499 . S
C374 H354 0.950 . S
C374 C373 1.414 . S
C374 C375 1.374 . S
C375 H355 0.950 . S
C375 C371 1.385 . S
C375 C374 1.374 . S
C376 C373 1.499 . S
C376 C377 1.373 . S
C376 C378 1.389 . S
C377 H356 0.950 . S
C377 C376 1.373 . S
C377 C393 1.377 . S
C378 C376 1.389 . S
C378 C379 1.524 . S
C378 C392 1.377 . S
C379 C378 1.524 . S
C379 C380 1.397 . S
C379 C384 1.363 . S
C380 H357 0.950 . S
C380 C379 1.397 . S
C380 C381 1.334 . S
C381 H358 0.950 . S
C381 C380 1.334 . S
C381 C382 1.287 . S
C382 C381 1.287 . S
C382 C383 1.524 . S
C382 H401 0.913 . S
C383 H359 0.950 . S
C383 C382 1.524 . S
C383 C384 1.415 . S
C384 H360 0.950 . S
C384 C379 1.363 . S
C384 C383 1.415 . S
C385 H361 0.951 . S
C385 C386 1.366 . S
C385 C387 1.388 . S
C386 C385 1.366 . S
C386 C390 1.385 . S
C387 H362 0.951 . S
C387 C385 1.388 . S
C387 C388 1.366 . S
C388 C387 1.366 . S
C388 C389 1.414 . S
C388 C391 1.499 . S
C389 H363 0.950 . S
C389 C388 1.414 . S
C389 C390 1.374 . S
C390 H364 0.950 . S
C390 C386 1.385 . S
C390 C389 1.374 . S
C391 C388 1.499 . S
C391 C392 1.373 . S
C391 C393 1.389 . S
C392 H365 0.950 . S
C392 C378 1.377 . S
C392 C391 1.373 . S
C393 C377 1.377 . S
C393 C391 1.389 . S
C393 C394 1.524 . S
C394 C393 1.524 . S
C394 C395 1.397 . S
C394 C399 1.363 . S
C395 H366 0.950 . S
C395 C394 1.397 . S
C395 C396 1.334 . S
C396 H367 0.950 . S
C396 C395 1.334 . S
C396 C397 1.287 . S
C397 C396 1.287 . S
C397 C398 1.524 . S
C397 H400 0.999 . S
C398 H368 0.950 . S
C398 C397 1.524 . S
C398 C399 1.415 . S
C399 H369 0.950 . S
C399 C394 1.363 . S
C399 C398 1.415 . S
H400 C397 0.999 . S
H401 C382 0.913 . S
H402 C420 0.951 . S
H403 C422 0.951 . S
H404 C424 0.950 . S
H405 C425 0.950 . S
H406 C427 0.950 . S
H407 C430 0.950 . S
H408 C431 0.950 . S
H409 C433 0.950 . S
H410 C434 0.950 . S
H411 C435 0.951 . S
H412 C437 0.951 . S
H413 C439 0.950 . S
H414 C440 0.950 . S
H415 C442 0.950 . S
H416 C445 0.950 . S
H417 C446 0.950 . S
H418 C448 0.950 . S
H419 C449 0.950 . S
C420 H402 0.951 . S
C420 C421 1.366 1_556 S
C420 C422 1.388 . S
C421 C420 1.366 1_554 S
C421 C425 1.385 . S
C422 H403 0.951 . S
C422 C420 1.388 . S
C422 C423 1.366 1_556 S
C423 C422 1.366 1_554 S
C423 C424 1.414 . S
C423 C426 1.499 . S
C424 H404 0.950 . S
C424 C423 1.414 . S
C424 C425 1.374 . S
C425 H405 0.950 . S
C425 C421 1.385 . S
C425 C424 1.374 . S
C426 C423 1.499 . S
C426 C427 1.373 . S
C426 C428 1.389 . S
C427 H406 0.950 . S
C427 C426 1.373 . S
C427 C443 1.377 . S
C428 C426 1.389 . S
C428 C429 1.524 . S
C428 C442 1.377 1_554 S
C429 C428 1.524 . S
C429 C430 1.397 . S
C429 C434 1.363 1_554 S
C430 H407 0.950 . S
C430 C429 1.397 . S
C430 C431 1.334 . S
C431 H408 0.950 . S
C431 C430 1.334 . S
C431 C432 1.287 . S
C432 C431 1.287 . S
C432 C433 1.524 1_554 S
C432 H451 0.913 . S
C433 H409 0.950 . S
C433 C432 1.524 1_556 S
C433 C434 1.415 . S
C434 H410 0.950 . S
C434 C429 1.363 1_556 S
C434 C433 1.415 . S
C435 H411 0.951 . S
C435 C436 1.366 1_554 S
C435 C437 1.388 . S
C436 C435 1.366 1_556 S
C436 C440 1.385 . S
C437 H412 0.951 . S
C437 C435 1.388 . S
C437 C438 1.366 1_554 S
C438 C437 1.366 1_556 S
C438 C439 1.414 . S
C438 C441 1.499 . S
C439 H413 0.950 . S
C439 C438 1.414 . S
C439 C440 1.374 . S
C440 H414 0.950 . S
C440 C436 1.385 . S
C440 C439 1.374 . S
C441 C438 1.499 . S
C441 C442 1.373 . S
C441 C443 1.389 1_556 S
C442 H415 0.950 . S
C442 C428 1.377 1_556 S
C442 C441 1.373 . S
C443 C427 1.377 . S
C443 C441 1.389 1_554 S
C443 C444 1.524 . S
C444 C443 1.524 . S
C444 C445 1.397 1_554 S
C444 C449 1.363 . S
C445 H416 0.950 . S
C445 C444 1.397 1_556 S
C445 C446 1.334 . S
C446 H417 0.950 . S
C446 C445 1.334 . S
C446 C447 1.287 . S
C447 C446 1.287 . S
C447 C448 1.524 1_556 S
C447 H450 0.999 . S
C448 H418 0.950 . S
C448 C447 1.524 1_554 S
C448 C449 1.415 . S
C449 H419 0.950 . S
C449 C444 1.363 . S
C449 C448 1.415 . S
H450 C447 0.999 . S
H451 C432 0.913 . S
H452 C470 0.951 . S
H453 C472 0.951 . S
H454 C474 0.950 . S
H455 C475 0.950 . S
H456 C477 0.950 . S
H457 C480 0.950 . S
H458 C481 0.950 . S
H459 C483 0.950 . S
H460 C484 0.950 . S
H461 C485 0.951 . S
H462 C487 0.951 . S
H463 C489 0.950 . S
H464 C490 0.950 . S
H465 C492 0.950 . S
H466 C495 0.950 . S
H467 C496 0.950 . S
H468 C498 0.950 . S
H469 C499 0.950 . S
C470 H452 0.951 . S
C470 C471 1.366 1_556 S
C470 C472 1.388 . S
C471 C470 1.366 1_554 S
C471 C475 1.385 . S
C472 H453 0.951 . S
C472 C470 1.388 . S
C472 C473 1.366 1_556 S
C473 C472 1.366 1_554 S
C473 C474 1.414 . S
C473 C476 1.499 . S
C474 H454 0.950 . S
C474 C473 1.414 . S
C474 C475 1.374 . S
C475 H455 0.950 . S
C475 C471 1.385 . S
C475 C474 1.374 . S
C476 C473 1.499 . S
C476 C477 1.373 . S
C476 C478 1.389 . S
C477 H456 0.950 . S
C477 C476 1.373 . S
C477 C493 1.377 . S
C478 C476 1.389 . S
C478 C479 1.524 . S
C478 C492 1.377 . S
C479 C478 1.524 . S
C479 C480 1.397 . S
C479 C484 1.363 1_554 S
C480 H457 0.950 . S
C480 C479 1.397 . S
C480 C481 1.334 . S
C481 H458 0.950 . S
C481 C480 1.334 . S
C481 C482 1.287 . S
C482 C481 1.287 . S
C482 C483 1.524 1_554 S
C482 H501 0.913 . S
C483 H459 0.950 . S
C483 C482 1.524 1_556 S
C483 C484 1.415 . S
C484 H460 0.950 . S
C484 C479 1.363 1_556 S
C484 C483 1.415 . S
C485 H461 0.951 . S
C485 C486 1.366 . S
C485 C487 1.388 . S
C486 C485 1.366 . S
C486 C490 1.385 1_554 S
C487 H462 0.951 . S
C487 C485 1.388 . S
C487 C488 1.366 . S
C488 C487 1.366 . S
C488 C489 1.414 1_554 S
C488 C491 1.499 . S
C489 H463 0.950 . S
C489 C488 1.414 1_556 S
C489 C490 1.374 . S
C490 H464 0.950 . S
C490 C486 1.385 1_556 S
C490 C489 1.374 . S
C491 C488 1.499 . S
C491 C492 1.373 . S
C491 C493 1.389 . S
C492 H465 0.950 . S
C492 C478 1.377 . S
C492 C491 1.373 . S
C493 C477 1.377 . S
C493 C491 1.389 . S
C493 C494 1.524 . S
C494 C493 1.524 . S
C494 C495 1.397 1_554 S
C494 C499 1.363 . S
C495 H466 0.950 . S
C495 C494 1.397 1_556 S
C495 C496 1.334 . S
C496 H467 0.950 . S
C496 C495 1.334 . S
C496 C497 1.287 . S
C497 C496 1.287 . S
C497 C498 1.524 1_556 S
C497 H500 0.999 . S
C498 H468 0.950 . S
C498 C497 1.524 1_554 S
C498 C499 1.415 . S
C499 H469 0.950 . S
C499 C494 1.363 . S
C499 C498 1.415 . S
H500 C497 0.999 . S
H501 C482 0.913 . S
H502 C520 0.951 1_556 S
H503 C522 0.951 1_556 S
H504 C524 0.950 . S
H505 C525 0.950 . S
H506 C527 0.950 . S
H507 C530 0.950 . S
H508 C531 0.950 . S
H509 C533 0.950 . S
H510 C534 0.950 . S
H511 C535 0.951 . S
H512 C537 0.951 . S
H513 C539 0.950 1_556 S
H514 C540 0.950 1_556 S
H515 C542 0.950 . S
H516 C545 0.950 . S
H517 C546 0.950 . S
H518 C548 0.950 . S
H519 C549 0.950 . S
C520 H502 0.951 1_554 S
C520 C521 1.366 . S
C520 C522 1.388 . S
C521 C520 1.366 . S
C521 C525 1.385 . S
C522 H503 0.951 1_554 S
C522 C520 1.388 . S
C522 C523 1.366 . S
C523 C522 1.366 . S
C523 C524 1.414 . S
C523 C526 1.499 . S
C524 H504 0.950 . S
C524 C523 1.414 . S
C524 C525 1.374 . S
C525 H505 0.950 . S
C525 C521 1.385 . S
C525 C524 1.374 . S
C526 C523 1.499 . S
C526 C527 1.373 1_554 S
C526 C528 1.389 . S
C527 H506 0.950 . S
C527 C526 1.373 1_556 S
C527 C543 1.377 . S
C528 C526 1.389 . S
C528 C529 1.524 . S
C528 C542 1.377 . S
C529 C528 1.524 . S
C529 C530 1.397 . S
C529 C534 1.363 . S
C530 H507 0.950 . S
C530 C529 1.397 . S
C530 C531 1.334 . S
C531 H508 0.950 . S
C531 C530 1.334 . S
C531 C532 1.287 . S
C532 C531 1.287 . S
C532 C533 1.524 . S
C532 H551 0.913 . S
C533 H509 0.950 . S
C533 C532 1.524 . S
C533 C534 1.415 . S
C534 H510 0.950 . S
C534 C529 1.363 . S
C534 C533 1.415 . S
C535 H511 0.951 . S
C535 C536 1.366 . S
C535 C537 1.388 . S
C536 C535 1.366 . S
C536 C540 1.385 . S
C537 H512 0.951 . S
C537 C535 1.388 . S
C537 C538 1.366 . S
C538 C537 1.366 . S
C538 C539 1.414 . S
C538 C541 1.499 . S
C539 H513 0.950 1_554 S
C539 C538 1.414 . S
C539 C540 1.374 . S
C540 H514 0.950 1_554 S
C540 C536 1.385 . S
C540 C539 1.374 . S
C541 C538 1.499 . S
C541 C542 1.373 . S
C541 C543 1.389 1_554 S
C542 H515 0.950 . S
C542 C528 1.377 . S
C542 C541 1.373 . S
C543 C527 1.377 . S
C543 C541 1.389 1_556 S
C543 C544 1.524 . S
C544 C543 1.524 . S
C544 C545 1.397 . S
C544 C549 1.363 . S
C545 H516 0.950 . S
C545 C544 1.397 . S
C545 C546 1.334 . S
C546 H517 0.950 . S
C546 C545 1.334 . S
C546 C547 1.287 . S
C547 C546 1.287 . S
C547 C548 1.524 . S
C547 H550 0.999 . S
C548 H518 0.950 . S
C548 C547 1.524 . S
C548 C549 1.415 . S
C549 H519 0.950 . S
C549 C544 1.363 . S
C549 C548 1.415 . S
H550 C547 0.999 . S
H551 C532 0.913 . S
H552 C570 0.951 . S
H553 C572 0.951 . S
H554 C574 0.950 . S
H555 C575 0.950 . S
H556 C577 0.950 . S
H557 C580 0.950 . S
H558 C581 0.950 . S
H559 C583 0.950 . S
H560 C584 0.950 . S
H561 C585 0.951 . S
H562 C587 0.951 . S
H563 C589 0.950 . S
H564 C590 0.950 . S
H565 C592 0.950 . S
H566 C595 0.950 . S
H567 C596 0.950 . S
H568 C598 0.950 . S
H569 C599 0.950 . S
C570 H552 0.951 . S
C570 C571 1.366 . S
C570 C572 1.388 . S
C571 C570 1.366 . S
C571 C575 1.385 1_556 S
C572 H553 0.951 . S
C572 C570 1.388 . S
C572 C573 1.366 . S
C573 C572 1.366 . S
C573 C574 1.414 1_556 S
C573 C576 1.505 . S
C574 H554 0.950 . S
C574 C573 1.414 1_554 S
C574 C575 1.374 . S
C575 H555 0.950 . S
C575 C571 1.385 1_554 S
C575 C574 1.374 . S
C576 C573 1.505 . S
C576 C577 1.374 . S
C576 C578 1.384 1_556 S
C577 H556 0.950 . S
C577 C576 1.374 . S
C577 C593 1.377 . S
C578 C576 1.384 1_554 S
C578 C579 1.524 . S
C578 C592 1.377 . S
C579 C578 1.524 . S
C579 C580 1.397 . S
C579 C584 1.363 . S
C580 H557 0.950 . S
C580 C579 1.397 . S
C580 C581 1.334 . S
C581 H558 0.950 . S
C581 C580 1.334 . S
C581 C582 1.287 . S
C582 C581 1.287 . S
C582 C583 1.524 . S
C582 H601 0.913 . S
C583 H559 0.950 . S
C583 C582 1.524 . S
C583 C584 1.415 . S
C584 H560 0.950 . S
C584 C579 1.363 . S
C584 C583 1.415 . S
C585 H561 0.951 . S
C585 C586 1.366 . S
C585 C587 1.388 . S
C586 C585 1.366 . S
C586 C590 1.385 1_554 S
C587 H562 0.951 . S
C587 C585 1.388 . S
C587 C588 1.366 1_554 S
C588 C587 1.366 1_556 S
C588 C589 1.414 . S
C588 C591 1.499 . S
C589 H563 0.950 . S
C589 C588 1.414 . S
C589 C590 1.374 . S
C590 H564 0.950 . S
C590 C586 1.385 1_556 S
C590 C589 1.374 . S
C591 C588 1.499 . S
C591 C592 1.373 1_556 S
C591 C593 1.389 . S
C592 H565 0.950 . S
C592 C578 1.377 . S
C592 C591 1.373 1_554 S
C593 C577 1.377 . S
C593 C591 1.389 . S
C593 C594 1.524 . S
C594 C593 1.524 . S
C594 C595 1.397 . S
C594 C599 1.363 . S
C595 H566 0.950 . S
C595 C594 1.397 . S
C595 C596 1.334 . S
C596 H567 0.950 . S
C596 C595 1.334 . S
C596 C597 1.287 . S
C597 C596 1.287 . S
C597 C598 1.524 . S
C597 H600 0.999 . S
C598 H568 0.950 . S
C598 C597 1.524 . S
C598 C599 1.415 . S
C599 H569 0.950 . S
C599 C594 1.363 . S
C599 C598 1.415 . S
H600 C597 0.999 . S
H601 C582 0.913 . S
H602 C620 0.951 . S
H603 C622 0.951 . S
H604 C624 0.950 . S
H605 C625 0.950 . S
H606 C627 0.950 . S
H607 C630 0.950 . S
H608 C631 0.950 . S
H609 C633 0.950 . S
H610 C634 0.950 . S
H611 C635 0.951 . S
H612 C637 0.951 . S
H613 C639 0.950 . S
H614 C640 0.950 . S
H615 C642 0.950 . S
H616 C645 0.950 . S
H617 C646 0.950 . S
H618 C648 0.950 . S
H619 C649 0.950 . S
C620 H602 0.951 . S
C620 C621 1.366 . S
C620 C622 1.388 . S
C621 C620 1.366 . S
C621 C625 1.385 . S
C622 H603 0.951 . S
C622 C620 1.388 . S
C622 C623 1.366 . S
C623 C622 1.366 . S
C623 C624 1.414 . S
C623 C626 1.499 . S
C624 H604 0.950 . S
C624 C623 1.414 . S
C624 C625 1.374 . S
C625 H605 0.950 . S
C625 C621 1.385 . S
C625 C624 1.374 . S
C626 C623 1.499 . S
C626 C627 1.373 1_556 S
C626 C628 1.389 . S
C627 H606 0.950 . S
C627 C626 1.373 1_554 S
C627 C643 1.377 . S
C628 C626 1.389 . S
C628 C629 1.524 . S
C628 C642 1.377 . S
C629 C628 1.524 . S
C629 C630 1.397 . S
C629 C634 1.363 . S
C630 H607 0.950 . S
C630 C629 1.397 . S
C630 C631 1.334 . S
C631 H608 0.950 . S
C631 C630 1.334 . S
C631 C632 1.287 . S
C632 C631 1.287 . S
C632 C633 1.524 . S
C632 H651 0.913 . S
C633 H609 0.950 . S
C633 C632 1.524 . S
C633 C634 1.415 . S
C634 H610 0.950 . S
C634 C629 1.363 . S
C634 C633 1.415 . S
C635 H611 0.951 . S
C635 C636 1.366 . S
C635 C637 1.388 . S
C636 C635 1.366 . S
C636 C640 1.385 . S
C637 H612 0.951 . S
C637 C635 1.388 . S
C637 C638 1.366 . S
C638 C637 1.366 . S
C638 C639 1.414 . S
C638 C641 1.499 . S
C639 H613 0.950 . S
C639 C638 1.414 . S
C639 C640 1.374 . S
C640 H614 0.950 . S
C640 C636 1.385 . S
C640 C639 1.374 . S
C641 C638 1.499 . S
C641 C642 1.373 . S
C641 C643 1.389 1_556 S
C642 H615 0.950 . S
C642 C628 1.377 . S
C642 C641 1.373 . S
C643 C627 1.377 . S
C643 C641 1.389 1_554 S
C643 C644 1.524 . S
C644 C643 1.524 . S
C644 C645 1.397 . S
C644 C649 1.363 . S
C645 H616 0.950 . S
C645 C644 1.397 . S
C645 C646 1.334 . S
C646 H617 0.950 . S
C646 C645 1.334 . S
C646 C647 1.287 . S
C647 C646 1.287 . S
C647 C648 1.524 . S
C647 H650 0.999 . S
C648 H618 0.950 . S
C648 C647 1.524 . S
C648 C649 1.415 . S
C649 H619 0.950 . S
C649 C644 1.363 . S
C649 C648 1.415 . S
H650 C647 0.999 . S
H651 C632 0.913 . S
H652 C670 0.951 . S
H653 C672 0.951 . S
H654 C674 0.950 1_554 S
H655 C675 0.950 1_554 S
H656 C677 0.950 . S
H657 C680 0.950 . S
H658 C681 0.950 . S
H659 C683 0.950 . S
H660 C684 0.950 . S
H661 C685 0.951 1_554 S
H662 C687 0.951 1_554 S
H663 C689 0.950 . S
H664 C690 0.950 . S
H665 C692 0.950 . S
H666 C695 0.950 . S
H667 C696 0.950 . S
H668 C698 0.950 . S
H669 C699 0.950 . S
C670 H652 0.951 . S
C670 C671 1.366 . S
C670 C672 1.388 . S
C671 C670 1.366 . S
C671 C675 1.385 . S
C672 H653 0.951 . S
C672 C670 1.388 . S
C672 C673 1.366 . S
C673 C672 1.366 . S
C673 C674 1.414 . S
C673 C676 1.499 . S
C674 H654 0.950 1_556 S
C674 C673 1.414 . S
C674 C675 1.374 . S
C675 H655 0.950 1_556 S
C675 C671 1.385 . S
C675 C674 1.374 . S
C676 C673 1.499 . S
C676 C677 1.373 . S
C676 C678 1.389 1_556 S
C677 H656 0.950 . S
C677 C676 1.373 . S
C677 C693 1.377 . S
C678 C676 1.389 1_554 S
C678 C679 1.524 . S
C678 C692 1.377 . S
C679 C678 1.524 . S
C679 C680 1.397 . S
C679 C684 1.363 . S
C680 H657 0.950 . S
C680 C679 1.397 . S
C680 C681 1.334 . S
C681 H658 0.950 . S
C681 C680 1.334 . S
C681 C682 1.287 . S
C682 C681 1.287 . S
C682 C683 1.524 . S
C682 H701 0.913 . S
C683 H659 0.950 . S
C683 C682 1.524 . S
C683 C684 1.415 . S
C684 H660 0.950 . S
C684 C679 1.363 . S
C684 C683 1.415 . S
C685 H661 0.951 1_556 S
C685 C686 1.366 . S
C685 C687 1.388 . S
C686 C685 1.366 . S
C686 C690 1.385 . S
C687 H662 0.951 1_556 S
C687 C685 1.388 . S
C687 C688 1.366 . S
C688 C687 1.366 . S
C688 C689 1.414 . S
C688 C691 1.499 . S
C689 H663 0.950 . S
C689 C688 1.414 . S
C689 C690 1.374 . S
C690 H664 0.950 . S
C690 C686 1.385 . S
C690 C689 1.374 . S
C691 C688 1.499 . S
C691 C692 1.373 1_556 S
C691 C693 1.389 . S
C692 H665 0.950 . S
C692 C678 1.377 . S
C692 C691 1.373 1_554 S
C693 C677 1.377 . S
C693 C691 1.389 . S
C693 C694 1.524 . S
C694 C693 1.524 . S
C694 C695 1.397 . S
C694 C699 1.363 . S
C695 H666 0.950 . S
C695 C694 1.397 . S
C695 C696 1.334 . S
C696 H667 0.950 . S
C696 C695 1.334 . S
C696 C697 1.287 . S
C697 C696 1.287 . S
C697 C698 1.524 . S
C697 H700 0.999 . S
C698 H668 0.950 . S
C698 C697 1.524 . S
C698 C699 1.415 . S
C699 H669 0.950 . S
C699 C694 1.363 . S
C699 C698 1.415 . S
H700 C697 0.999 . S
H701 C682 0.913 . S
C271 C75 1.486 . S
C286 C66 1.486 . S
C321 C159 1.477 . S
C336 C150 1.480 . S
C371 C243 1.489 . S
C386 C234 1.489 . S
C421 C56 1.519 . S
C436 C240 1.426 . S
C471 C156 0.769 . S
C486 C72 0.771 1_554 S
C521 C140 2.286 . S
C536 C235 2.332 . S
C571 C67 1.520 . S
C586 C231 1.433 . S
C621 C63 0.767 1_556 S
C636 C147 0.767 . S
C671 C224 2.327 . S
C686 C151 2.282 . S
