# Generated by pormake.
# Topology noz, (5)-cn, num edge types: 1
# Building blocks:
#     Node 0, Type 0, BuildingBlock: BEQFEK_clean_sbu_0, # of connection points: 5
#     Node 1, Type 0, BuildingBlock: BEQFEK_clean_sbu_0, # of connection points: 5
#     Node 2, Type 0, BuildingBlock: BEQFEK_clean_sbu_0, # of connection points: 5
#     Node 3, Type 0, BuildingBlock: BEQFEK_clean_sbu_0, # of connection points: 5
#     Node 4, Type 0, BuildingBlock: BEQFEK_clean_sbu_0, # of connection points: 5
#     Node 5, Type 0, BuildingBlock: BEQFEK_clean_sbu_0, # of connection points: 5
#     Node 6, Type 0, BuildingBlock: BEQFEK_clean_sbu_0, # of connection points: 5
#     Node 7, Type 0, BuildingBlock: BEQFEK_clean_sbu_0, # of connection points: 5
#     Edge 8, Type (0, 0), BuildingBlock: AJUNOK_clean_linker_0, # of connection points: 2
#     Edge 9, Type (0, 0), BuildingBlock: AJUNOK_clean_linker_0, # of connection points: 2
#     Edge 10, Type (0, 0), BuildingBlock: AJUNOK_clean_linker_0, # of connection points: 2
#     Edge 11, Type (0, 0), BuildingBlock: AJUNOK_clean_linker_0, # of connection points: 2
#     Edge 12, Type (0, 0), BuildingBlock: AJUNOK_clean_linker_0, # of connection points: 2
#     Edge 13, Type (0, 0), BuildingBlock: AJUNOK_clean_linker_0, # of connection points: 2
#     Edge 14, Type (0, 0), BuildingBlock: AJUNOK_clean_linker_0, # of connection points: 2
#     Edge 15, Type (0, 0), BuildingBlock: AJUNOK_clean_linker_0, # of connection points: 2
#     Edge 16, Type (0, 0), BuildingBlock: AJUNOK_clean_linker_0, # of connection points: 2
#     Edge 17, Type (0, 0), BuildingBlock: AJUNOK_clean_linker_0, # of connection points: 2
#     Edge 18, Type (0, 0), BuildingBlock: AJUNOK_clean_linker_0, # of connection points: 2
#     Edge 19, Type (0, 0), BuildingBlock: AJUNOK_clean_linker_0, # of connection points: 2
#     Edge 20, Type (0, 0), BuildingBlock: AJUNOK_clean_linker_0, # of connection points: 2
#     Edge 21, Type (0, 0), BuildingBlock: AJUNOK_clean_linker_0, # of connection points: 2
#     Edge 22, Type (0, 0), BuildingBlock: AJUNOK_clean_linker_0, # of connection points: 2
#     Edge 23, Type (0, 0), BuildingBlock: AJUNOK_clean_linker_0, # of connection points: 2
#     Edge 24, Type (0, 0), BuildingBlock: AJUNOK_clean_linker_0, # of connection points: 2
#     Edge 25, Type (0, 0), BuildingBlock: AJUNOK_clean_linker_0, # of connection points: 2
#     Edge 26, Type (0, 0), BuildingBlock: AJUNOK_clean_linker_0, # of connection points: 2
#     Edge 27, Type (0, 0), BuildingBlock: AJUNOK_clean_linker_0, # of connection points: 2
# Relax obj value: 0.098
# Max RMSD: 0.181
# Mean RMSD: 0.119
data_MOF--net-noz--node1-BEQFEK_clean_sbu_0--edge1-AJUNOK_clean_linker_0
_symmetry_space_group_name_H-M    P1
_symmetry_Int_Tables_number       1
_symmetry_cell_setting            triclinic
loop_
_symmetry_equiv_pos_as_xyz
'x, y, z'
_cell_length_a     18.789782
_cell_length_b     33.323621
_cell_length_c     32.445232
_cell_angle_alpha  88.688551
_cell_angle_beta   97.65645
_cell_angle_gamma 82.482017
loop_
_atom_site_label
_atom_site_type_symbol
_atom_site_fract_x
_atom_site_fract_y
_atom_site_fract_z
_atom_type_partial_charge
Co0 Co 0.16093 0.36459 0.3954 0.0
Co1 Co 0.05568 0.32925 0.44903 0.0
C2 C 0.20366 0.29133 0.45962 0.0
O3 O 0.21608 0.31779 0.43315 0.0
O4 O 0.14017 0.29044 0.46882 0.0
C5 C 0.23622 0.34417 0.32877 0.0
O6 O 0.20961 0.31074 0.33682 0.0
C7 C 0.94898 0.29031 0.49058 0.0
C8 C 0.86433 0.34331 0.48973 0.0
C9 C 0.88062 0.30263 0.50132 0.0
N10 N 0.97161 0.32242 0.47307 0.0
N11 N 0.921 0.35396 0.47301 0.0
C12 C 0.99284 0.24932 0.49784 0.0
H13 H 0.05133 0.2522 0.50402 0.0
H14 H 0.98373 0.23156 0.46958 0.0
H15 H 0.97685 0.2327 0.52444 0.0
C16 C 0.03154 0.36061 0.33119 0.0
N17 N 0.07008 0.35156 0.36913 0.0
N18 N 0.03339 0.33034 0.39103 0.0
C19 C 0.97326 0.32233 0.3672 0.0
C20 C 0.96825 0.34199 0.32833 0.0
C21 C 0.05048 0.39148 0.30172 0.0
H22 H 0.08176 0.41319 0.31924 0.0
H23 H 0.0855 0.37611 0.28025 0.0
H24 H 1.00103 0.40832 0.28343 0.0
O25 O 0.14368 0.41271 0.42962 0.0
O26 O 0.07429 0.38305 0.4673 0.0
H27 H 0.88221 0.31235 0.39758 0.0
H28 H 0.89609 0.27991 0.35469 0.0
C29 C 0.92367 0.29476 0.3814 0.0
H30 H 0.9551 0.2711 0.4036 0.0
H31 H 0.92472 0.38274 0.46081 0.0
O32 O 0.22254 0.37435 0.35115 0.0
C33 C 0.10569 0.41323 0.45939 0.0
Co34 Co 0.49282 0.61494 0.89417 0.0
Co35 Co 0.62586 0.63764 0.9552 0.0
C36 C 0.4824 0.68872 0.94598 0.0
O37 O 0.45598 0.66468 0.92019 0.0
O38 O 0.54883 0.68267 0.96162 0.0
C39 C 0.38505 0.63822 0.82647 0.0
O40 O 0.40848 0.67304 0.83457 0.0
C41 C 0.74018 0.68522 0.98952 0.0
C42 C 0.80995 0.64118 0.03432 0.0
C43 C 0.80127 0.68091 1.01914 0.0
N44 N 0.71382 0.64955 0.98701 0.0
N45 N 0.75611 0.62332 1.01378 0.0
C46 C 0.705 0.72333 0.96597 0.0
H47 H 0.68223 0.74488 0.98794 0.0
H48 H 0.66115 0.71699 0.94154 0.0
H49 H 0.74592 0.7379 0.9515 0.0
C50 C 0.60206 0.611 0.83593 0.0
N51 N 0.58137 0.61946 0.87332 0.0
N52 N 0.63689 0.62944 0.89835 0.0
C53 C 0.69469 0.62768 0.87751 0.0
C54 C 0.6745 0.61591 0.83726 0.0
C55 C 0.55513 0.59481 0.80097 0.0
H56 H 0.5237 0.57249 0.81341 0.0
H57 H 0.51627 0.62015 0.78507 0.0
H58 H 0.58764 0.58022 0.77789 0.0
O59 O 0.50591 0.57049 0.93715 0.0
O60 O 0.59878 0.5875 0.98018 0.0
H61 H 0.78862 0.6158 0.9234 0.0
H62 H 0.80711 0.63373 0.87321 0.0
C63 C 0.76793 0.63665 0.89604 0.0
H64 H 0.76315 0.66802 0.9069 0.0
H65 H 0.74734 0.59343 1.01871 0.0
O66 O 0.41526 0.60684 0.84825 0.0
C67 C 0.55097 0.56416 0.97044 0.0
Co68 Co 0.07812 0.64419 0.56519 0.0
Co69 Co 0.97359 0.605 0.61644 0.0
C70 C 0.91841 0.67358 0.55421 0.0
O71 O 0.98186 0.67461 0.54508 0.0
O72 O 0.90715 0.64846 0.58199 0.0
C73 C 0.13865 0.71086 0.53821 0.0
O74 O 0.07817 0.72999 0.5483 0.0
C75 C 0.87506 0.60456 0.67866 0.0
C76 C 0.88299 0.53963 0.69642 0.0
C77 C 0.85135 0.57779 0.70557 0.0
N78 N 0.91905 0.58328 0.65516 0.0
N79 N 0.92291 0.54441 0.66555 0.0
C80 C 0.86254 0.64988 0.67798 0.0
H81 H 0.90648 0.66265 0.66454 0.0
H82 H 0.85958 0.66082 0.70985 0.0
H83 H 0.81036 0.66078 0.6583 0.0
C84 C 0.15833 0.64878 0.6491 0.0
N85 N 0.09909 0.6412 0.62386 0.0
N86 N 0.05598 0.62457 0.64596 0.0
C87 C 0.08691 0.62091 0.68617 0.0
C88 C 0.15262 0.63624 0.68936 0.0
C89 C 0.22298 0.6632 0.63412 0.0
H90 H 0.23856 0.64497 0.60777 0.0
H91 H 0.20872 0.6953 0.62288 0.0
H92 H 0.27006 0.66081 0.65903 0.0
O93 O 0.08341 0.58936 0.54397 0.0
O94 O 1.00797 0.56146 0.57956 0.0
H95 H 0.04547 0.57066 0.7123 0.0
H96 H 0.09231 0.60025 0.75055 0.0
C97 C 0.05578 0.60168 0.72059 0.0
H98 H 1.00354 0.61966 0.72473 0.0
H99 H 0.95445 0.52128 0.65245 0.0
O100 O 0.15067 0.67253 0.54246 0.0
C101 C 0.05187 0.55929 0.55256 0.0
Co102 Co 0.50634 0.37037 0.13997 0.0
Co103 Co 0.62055 0.33563 0.08342 0.0
C104 C 0.48798 0.29929 0.08058 0.0
O105 O 0.46784 0.3251 0.10666 0.0
O106 O 0.54926 0.29868 0.06779 0.0
C107 C 0.43055 0.34686 0.20256 0.0
O108 O 0.46247 0.31207 0.19156 0.0
C109 C 0.73159 0.29371 0.03693 0.0
C110 C 0.80674 0.33974 0.03768 0.0
C111 C 0.79596 0.30177 1.02395 0.0
N112 N 0.70513 0.32581 0.05711 0.0
N113 N 0.75006 0.35324 0.05724 0.0
C114 C 0.69819 0.25537 0.033 0.0
H115 H 0.67455 0.24901 0.06164 0.0
H116 H 0.73861 0.22939 0.02738 0.0
H117 H 0.65353 0.25922 1.00657 0.0
C118 C 0.64459 0.36293 0.19984 0.0
N119 N 0.6052 0.35513 0.16377 0.0
N120 N 0.64811 0.33395 0.14115 0.0
C121 C 0.71452 0.32485 0.16284 0.0
C122 C 0.71619 0.34438 0.20044 0.0
C123 C 0.61512 0.39092 0.23075 0.0
H124 H 0.56721 0.41159 0.21556 0.0
H125 H 0.59768 0.37281 0.25578 0.0
H126 H 0.65702 0.40896 0.24489 0.0
O127 O 0.50027 0.4196 0.10319 0.0
O128 O 0.58209 0.392 0.06494 0.0
H129 H 0.80272 0.30749 0.12818 0.0
H130 H 0.8084 0.27926 0.17699 0.0
C131 C 0.77104 0.29354 0.14968 0.0
H132 H 0.74448 0.26982 0.13257 0.0
H133 H 0.7426 0.38099 0.07139 0.0
O134 O 0.44361 0.37934 0.18536 0.0
C135 C 0.53808 0.42189 0.07363 0.0
Co136 Co 0.65088 0.85865 0.39729 0.0
Co137 Co 0.53923 0.83394 0.45392 0.0
C138 C 0.68607 0.78872 0.46291 0.0
O139 O 0.70291 0.81246 0.43539 0.0
O140 O 0.62218 0.79241 0.47255 0.0
C141 C 0.74847 0.8366 0.33912 0.0
O142 O 0.73966 0.80052 0.35314 0.0
C143 C 0.42862 0.79276 0.48718 0.0
C144 C 0.3626 0.84501 0.51056 0.0
C145 C 0.36555 0.80386 0.50453 0.0
N146 N 0.45998 0.82618 0.48219 0.0
N147 N 0.42106 0.8571 0.49697 0.0
C148 C 0.45569 0.75222 0.4721 0.0
H149 H 0.49376 0.75544 0.44921 0.0
H150 H 0.40976 0.73704 0.45789 0.0
H151 H 0.48515 0.73291 0.49893 0.0
C152 C 0.52705 0.84869 0.33146 0.0
N153 N 0.55869 0.84646 0.37151 0.0
N154 N 0.51213 0.836 0.39543 0.0
C155 C 0.44958 0.8315 0.37139 0.0
C156 C 0.45727 0.83877 0.33019 0.0
C157 C 0.56268 0.86063 0.29536 0.0
H158 H 0.60636 0.83611 0.29056 0.0
H159 H 0.52354 0.86583 0.26636 0.0
H160 H 0.58789 0.88846 0.30234 0.0
O161 O 0.63699 0.90841 0.43078 0.0
O162 O 0.56345 0.88646 0.47149 0.0
H163 H 0.33318 0.83101 0.36288 0.0
H164 H 0.38493 0.79272 0.39855 0.0
C165 C 0.38076 0.8247 0.38742 0.0
H166 H 0.37149 0.84473 0.41346 0.0
H167 H 0.43266 0.88685 0.49615 0.0
O168 O 0.71443 0.86754 0.35359 0.0
C169 C 0.59977 0.91352 0.46088 0.0
Co170 Co 0.99971 0.11485 0.8948 0.0
Co171 Co 0.13275 0.13309 0.9584 0.0
C172 C 0.99247 0.18753 0.94784 0.0
O173 O 0.96537 0.16443 0.92139 0.0
O174 O 0.05835 0.1799 0.96424 0.0
C175 C 0.89185 0.14178 0.82899 0.0
O176 O 0.91904 0.17533 0.8382 0.0
C177 C 0.2425 0.18113 0.99575 0.0
C178 C 0.3252 0.13532 0.03089 0.0
C179 C 0.30829 0.17654 1.02157 0.0
N180 N 0.22097 0.14445 0.99032 0.0
N181 N 0.27059 0.11716 1.01155 0.0
C182 C 0.20242 0.21945 0.97464 0.0
H183 H 0.17545 0.21307 0.94336 0.0
H184 H 0.2395 0.24239 0.97173 0.0
H185 H 0.15991 0.23192 0.9933 0.0
C186 C 0.11013 0.11169 0.83716 0.0
N187 N 0.08942 0.11792 0.87496 0.0
N188 N 0.14572 0.12452 0.90143 0.0
C189 C 0.20452 0.12205 0.88131 0.0
C190 C 0.18392 0.11411 0.83971 0.0
C191 C 0.05921 0.10453 0.79927 0.0
H192 H 0.03087 0.07831 0.80555 0.0
H193 H 1.0178 0.13154 0.7923 0.0
H194 H 0.08703 0.09925 0.77148 0.0
O195 O 1.00859 0.07037 0.9374 0.0
O196 O 0.09903 0.08496 0.98393 0.0
H197 H 0.28992 0.10313 0.93099 0.0
H198 H 0.32121 0.11332 0.88219 0.0
C199 C 0.2799 0.12326 0.90258 0.0
H200 H 0.28547 0.15458 0.91217 0.0
H201 H 0.26729 0.08616 1.01275 0.0
O202 O 0.92104 0.10905 0.84875 0.0
C203 C 0.04902 0.06345 0.97234 0.0
Co204 Co 0.59458 0.14541 0.56651 0.0
Co205 Co 0.48405 0.10894 0.61591 0.0
C206 C 0.43647 0.17812 0.55328 0.0
O207 O 0.50116 0.17756 0.54587 0.0
O208 O 0.42106 0.15337 0.58025 0.0
C209 C 0.6644 0.2108 0.55242 0.0
O210 O 0.61318 0.22729 0.57305 0.0
C211 C 0.37889 0.10846 0.6759 0.0
C212 C 0.40304 0.04575 0.70231 0.0
C213 C 0.36268 0.08289 0.70689 0.0
N214 N 0.42852 0.08775 0.65521 0.0
N215 N 0.44167 0.05007 0.67072 0.0
C216 C 0.34656 0.15146 0.66493 0.0
H217 H 0.32881 0.15502 0.63095 0.0
H218 H 0.38836 0.17171 0.67292 0.0
H219 H 0.29891 0.16061 0.68108 0.0
C220 C 0.67223 0.14878 0.65121 0.0
N221 N 0.61364 0.14182 0.62504 0.0
N222 N 0.56677 0.12785 0.6465 0.0
C223 C 0.59407 0.1262 0.68735 0.0
C224 C 0.66133 0.13968 0.69145 0.0
C225 C 0.74121 0.15914 0.63789 0.0
H226 H 0.75096 0.1444 0.60851 0.0
H227 H 0.73709 0.19245 0.63298 0.0
H228 H 0.78828 0.14924 0.66203 0.0
O229 O 0.59719 0.09147 0.54457 0.0
O230 O 0.51859 0.06465 0.57875 0.0
H231 H 0.55245 0.07883 0.71815 0.0
H232 H 0.58866 0.11505 0.75281 0.0
C233 C 0.55767 0.11133 0.72187 0.0
H234 H 0.50281 0.12855 0.72046 0.0
H235 H 0.47929 0.02774 0.66089 0.0
O236 O 0.66734 0.17354 0.5446 0.0
C237 C 0.56339 0.06209 0.55209 0.0
Co238 Co 1.00432 0.86804 0.14282 0.0
Co239 Co 0.11383 0.84104 0.08014 0.0
C240 C 0.98403 0.80083 0.08041 0.0
O241 O 0.96416 0.82407 0.10872 0.0
O242 O 0.04351 0.8029 0.06629 0.0
C243 C 0.9358 0.84302 0.20919 0.0
O244 O 0.96794 0.80829 0.1981 0.0
C245 C 0.22337 0.79817 0.03418 0.0
C246 C 0.28145 0.84847 1.01733 0.0
C247 C 0.28071 0.80718 1.01432 0.0
N248 N 0.19202 0.8326 0.04849 0.0
N249 N 0.22649 0.8626 0.03798 0.0
C250 C 0.20188 0.75736 0.04241 0.0
H251 H 0.17547 0.75734 0.07103 0.0
H252 H 0.24974 0.73359 0.04566 0.0
H253 H 0.16241 0.75026 1.01589 0.0
C254 C 0.1423 0.85361 0.20204 0.0
N255 N 0.10411 0.85209 0.16395 0.0
N256 N 0.14909 0.8391 0.13775 0.0
C257 C 0.21678 0.83111 0.15854 0.0
C258 C 0.2147 0.84017 0.19978 0.0
C259 C 0.11056 0.86924 0.2394 0.0
H260 H 0.06878 0.89576 0.23015 0.0
H261 H 0.08402 0.84518 0.25292 0.0
H262 H 0.15302 0.87777 0.2635 0.0
O263 O 0.99551 0.91959 0.10795 0.0
O264 O 0.06769 0.89569 0.06259 0.0
H265 H 0.29338 0.84232 0.11801 0.0
H266 H 0.33154 0.80962 0.16267 0.0
C267 C 0.28312 0.81759 0.13895 0.0
H268 H 0.27439 0.79085 0.12022 0.0
H269 H 0.21328 0.89266 0.04561 0.0
O270 O 0.94479 0.87529 0.18989 0.0
C271 C 0.02494 0.92398 0.07517 0.0
C272 C 0.32098 0.37887 0.29019 0.0
C273 C 0.28254 0.34579 0.29496 0.0
C274 C 0.36765 0.37969 0.25967 0.0
C275 C 0.37807 0.3473 0.23306 0.0
H276 H 0.31599 0.40405 0.3106 0.0
H277 H 0.39714 0.40534 0.25763 0.0
S278 S 0.28424 0.25582 0.22916 0.0
N279 N 0.25399 0.28141 0.26766 0.0
N280 N 0.34163 0.28291 0.2111 0.0
C281 C 0.33825 0.31476 0.23658 0.0
C282 C 0.29054 0.31402 0.26728 0.0
C283 C 0.28746 0.67255 0.77247 0.0
C284 C 0.32431 0.6363 0.79254 0.0
C285 C 0.23081 0.67219 0.73979 0.0
C286 C 0.20859 0.63565 0.72604 0.0
H287 H 0.3026 0.70161 0.78181 0.0
H288 H 0.20461 0.70073 0.72484 0.0
S289 S 0.28728 0.53234 0.7667 0.0
N290 N 0.33417 0.56263 0.79558 0.0
N291 N 0.22787 0.56229 0.73374 0.0
C292 C 0.24429 0.59919 0.74565 0.0
C293 C 0.3021 0.59944 0.77903 0.0
C294 C 0.74586 0.61718 0.73327 0.0
C295 C 0.80698 0.58728 0.73954 0.0
C296 C 0.70345 0.62645 0.76515 0.0
C297 C 0.72092 0.60629 0.80441 0.0
H298 H 0.72983 0.63307 0.70334 0.0
H299 H 0.65662 0.64952 0.75908 0.0
S300 S 0.87329 0.52461 0.83644 0.0
N301 N 0.88169 0.53702 0.78792 0.0
N302 N 0.80127 0.55417 0.84749 0.0
C303 C 0.78113 0.57605 0.81099 0.0
C304 C 0.8242 0.56653 0.77858 0.0
C305 C 0.77381 0.34699 0.27469 0.0
C306 C 0.78074 0.34707 0.23214 0.0
C307 C 0.83405 0.34771 0.30503 0.0
C308 C 0.90494 0.34549 0.29457 0.0
H309 H 0.72169 0.34576 0.28498 0.0
H310 H 0.82448 0.34957 0.33708 0.0
S311 S 0.95235 0.34914 0.18726 0.0
N312 N 0.86319 0.35238 0.18094 0.0
N313 N 0.97781 0.34431 0.23797 0.0
C314 C 0.91266 0.34599 0.25208 0.0
C315 C 0.85043 0.34876 0.22099 0.0
C316 C 0.83554 0.80496 0.2934 0.0
C317 C 0.7966 0.84026 0.30654 0.0
C318 C 0.88055 0.80652 0.26246 0.0
C319 C 0.88895 0.84346 0.24295 0.0
H320 H 0.83128 0.77553 0.307 0.0
H321 H 0.90863 0.7782 0.25365 0.0
S322 S 0.80011 0.94511 0.26616 0.0
N323 N 0.7702 0.91366 0.29782 0.0
N324 N 0.85494 0.9166 0.23955 0.0
C325 C 0.85095 0.87921 0.25595 0.0
C326 C 0.80485 0.87761 0.28769 0.0
C327 C 0.7448 0.10551 0.75216 0.0
C328 C 0.71385 0.14121 0.72926 0.0
C329 C 0.8018 0.10597 0.78477 0.0
C330 C 0.82959 0.1422 0.79553 0.0
H331 H 0.72645 0.07688 0.7439 0.0
H332 H 0.82502 0.07759 0.8011 0.0
S333 S 0.76217 0.24431 0.74607 0.0
N334 N 0.71155 0.21376 0.72025 0.0
N335 N 0.81807 0.2152 0.78148 0.0
C336 C 0.79698 0.17834 0.77342 0.0
C337 C 0.73928 0.17769 0.74027 0.0
C338 C 0.22976 0.07143 0.78362 0.0
C339 C 0.23052 0.10693 0.80623 0.0
C340 C 0.27216 0.06425 0.75137 0.0
C341 C 0.31726 0.09219 0.74057 0.0
H342 H 0.19624 0.04891 0.79102 0.0
H343 H 0.26939 0.03661 0.73463 0.0
S344 S 0.34497 0.18769 0.79351 0.0
N345 N 0.2823 0.16955 0.81682 0.0
N346 N 0.36596 0.15472 0.75837 0.0
C347 C 0.32071 0.12707 0.76409 0.0
C348 C 0.27645 0.13473 0.79641 0.0
C349 C 0.30742 0.87503 0.24213 0.0
C350 C 0.27735 0.83935 0.23255 0.0
C351 C 0.36826 0.87446 0.27254 0.0
C352 C 0.40042 0.83819 0.29415 0.0
H353 H 0.2835 0.90348 0.22615 0.0
H354 H 0.38898 0.90264 0.28005 0.0
S355 S 0.34296 0.73671 0.27939 0.0
N356 N 0.28498 0.76692 0.24586 0.0
N357 N 0.39872 0.76583 0.30342 0.0
C358 C 0.37132 0.80234 0.28431 0.0
C359 C 0.30986 0.80291 0.25331 0.0
C360 C 0.10731 0.52058 0.49666 0.0
C361 C 0.06652 0.5213 0.53021 0.0
C362 C 0.12083 0.48549 0.47434 0.0
C363 C 0.09427 0.44959 0.48468 0.0
H364 H 0.12845 0.54751 0.48708 0.0
H365 H 0.15156 0.48675 0.44848 0.0
S366 S 0.98743 0.4347 0.57135 0.0
N367 N 1.00179 0.48242 0.57352 0.0
N368 N 0.02723 0.41656 0.53208 0.0
C369 C 0.05453 0.44965 0.51876 0.0
C370 C 0.04062 0.48542 0.54134 0.0
C371 C 0.48126 0.51339 0.9996 0.0
C372 C 0.54723 0.52916 0.99873 0.0
C373 C 0.47698 0.47981 0.02575 0.0
C374 C 0.53879 0.46069 0.05129 0.0
H375 H 0.43265 0.52697 0.97981 0.0
H376 H 0.4259 0.46786 1.02483 0.0
S377 S 0.72364 0.49012 0.06154 0.0
N378 N 0.67508 0.52324 0.02682 0.0
N379 N 0.66691 0.46004 0.07525 0.0
C380 C 0.60448 0.47645 0.0513 0.0
C381 C 0.60876 0.51076 0.02522 0.0
C382 C 0.5464 0.98994 0.54011 0.0
C383 C 0.57605 0.02445 0.52886 0.0
C384 C 0.55588 0.95435 0.51836 0.0
C385 C 0.59518 0.95153 0.4841 0.0
H386 H 0.51527 0.99028 0.56594 0.0
H387 H 0.53137 0.92887 0.52857 0.0
S388 S 0.68546 0.03305 0.44221 0.0
N389 N 0.64798 0.05343 0.48138 0.0
N390 N 0.66524 0.98634 0.44046 0.0
C391 C 0.62615 0.98558 0.47276 0.0
C392 C 0.6167 0.02201 0.49508 0.0
C393 C 0.99621 0.96374 1.00838 0.0
C394 C 1.01589 0.96302 0.05175 0.0
C395 C 1.00517 -0.00313 0.98315 0.0
C396 C 0.03624 0.03002 1.00025 0.0
H397 H 0.9765 0.93768 0.99368 0.0
H398 H 0.99055 -0.00437 0.9498 0.0
S399 S 0.09355 0.04343 0.11258 0.0
N400 N 0.06435 -0.00124 0.11113 0.0
N401 N 0.08266 0.06103 0.0638 0.0
C402 C 0.05393 0.03023 0.04385 0.0
C403 C 0.04331 -0.00327 0.06959 0.0
C404 C 0.24955 0.23292 0.51059 0.0
C405 C 0.26423 0.26219 0.48189 0.0
C406 C 0.30528 0.20618 0.53361 0.0
C407 C 0.37835 0.20741 0.52904 0.0
H408 H 0.19437 0.23062 0.51563 0.0
H409 H 0.29066 0.1843 0.55508 0.0
S410 S 0.44661 0.2783 0.45803 0.0
N411 N 0.35779 0.29062 0.45018 0.0
N412 N 0.46245 0.24065 0.49335 0.0
C413 C 0.39396 0.23647 0.50032 0.0
C414 C 0.33707 0.26368 0.4768 0.0
C415 C 0.35717 0.72111 0.95241 0.0
C416 C 0.43259 0.72173 0.96083 0.0
C417 C 0.30838 0.74914 0.96945 0.0
C418 C 0.33299 0.77904 0.99531 0.0
H419 H 0.33533 0.69812 0.93336 0.0
H420 H 0.25096 0.7473 0.96233 0.0
S421 S 0.52389 0.79617 1.02464 0.0
N422 N 0.52899 0.7565 0.99507 0.0
N423 N 0.43672 0.8094 0.0269 0.0
C424 C 0.40774 0.78124 1.00269 0.0
C425 C 0.45769 0.75247 0.98561 0.0
C426 C 0.26864 0.71687 0.53435 0.0
C427 C 0.19529 0.73389 0.52658 0.0
C428 C 0.32375 0.73943 0.52677 0.0
C429 C 0.30727 0.77954 0.51064 0.0
H430 H 0.28383 0.68635 0.54765 0.0
H431 H 0.37951 0.72571 0.5348 0.0
S432 S 0.12343 0.83661 0.48103 0.0
N433 N 0.10889 0.79231 0.49957 0.0
N434 N 0.2123 0.83446 0.48453 0.0
C435 C 0.23404 0.79644 0.50154 0.0
C436 C 0.17806 0.77364 0.5096 0.0
C437 C 0.42512 0.20555 0.02993 0.0
C438 C 0.35238 0.20832 0.0366 0.0
C439 C 0.46804 0.23534 0.04377 0.0
C440 C 0.44027 0.2687 0.06558 0.0
H441 H 0.44881 0.18037 1.01346 0.0
H442 H 0.52374 0.23185 0.03763 0.0
S443 S 0.25337 0.28806 0.09322 0.0
N444 N 0.2547 0.2458 0.06756 0.0
N445 N 0.33498 0.30163 0.09415 0.0
C446 C 0.36753 0.2713 0.07301 0.0
C447 C 0.32371 0.24118 0.05839 0.0
C448 C 0.8711 0.72921 0.50042 0.0
C449 C 0.85727 0.70193 0.5313 0.0
C450 C 0.81539 0.7564 0.4781 0.0
C451 C 0.74308 0.75776 0.48562 0.0
H452 H 0.92569 0.72984 0.49333 0.0
H453 H 0.82963 0.77685 0.45505 0.0
S454 S 0.67686 0.69203 0.56239 0.0
N455 N 0.76507 0.67743 0.56761 0.0
N456 N 0.66034 0.72855 0.5258 0.0
C457 C 0.72809 0.73033 0.5161 0.0
C458 C 0.78505 0.70251 0.53887 0.0
C459 C 0.9198 0.26753 1.01834 0.0
C460 C 0.84609 0.27537 1.00199 0.0
C461 C 0.96786 0.24051 0.99946 0.0
C462 C 0.9438 0.22072 0.96334 0.0
H463 H 0.93992 0.28128 0.04675 0.0
H464 H 0.02355 0.23405 1.01421 0.0
S465 S 0.75752 0.237 0.90471 0.0
N466 N 0.75262 0.26561 0.94537 0.0
N467 N 0.84227 0.21491 0.90942 0.0
C468 C 0.87074 0.23053 0.94532 0.0
C469 C 0.82198 0.25781 0.9648 0.0
C470 C 0.82005 0.2404 0.5008 0.0
C471 C 0.82989 0.27813 0.51739 0.0
C472 C 0.76669 0.2187 0.51261 0.0
C473 C 0.72084 0.2342 0.5411 0.0
H474 H 0.85192 0.22813 0.47743 0.0
H475 H 0.7604 0.18995 0.49859 0.0
S476 S 0.72793 0.33092 0.59515 0.0
N477 N 0.79205 0.3295 0.56483 0.0
N478 N 0.69125 0.2889 0.58705 0.0
C479 C 0.73105 0.27167 0.55844 0.0
C480 C 0.78561 0.29364 0.54649 0.0
C481 C 0.84622 0.72624 0.07406 0.0
C482 C 0.84668 0.71211 0.03364 0.0
C483 C 0.88999 0.75539 0.08874 0.0
C484 C 0.93702 0.77071 0.06379 0.0
H485 H 0.81151 0.71479 0.09439 0.0
H486 H 0.88786 0.76546 0.12012 0.0
S487 S 0.95811 0.74266 0.95549 0.0
N488 N 0.89705 0.71522 0.96881 0.0
N489 N 0.98056 0.76937 0.99633 0.0
C490 C 0.93798 0.75647 1.02326 0.0
C491 C 0.89246 0.72734 1.00819 0.0
loop_
_geom_bond_atom_site_label_1
_geom_bond_atom_site_label_2
_geom_bond_distance
_geom_bond_site_symmetry_2
_ccdc_geom_bond_type
Co0 O3 1.970 . S
Co0 N17 1.989 . S
Co0 O25 1.967 . S
Co0 O32 1.920 . S
Co1 O4 1.966 . S
Co1 N10 2.022 1_455 S
Co1 N18 1.993 1_455 S
Co1 O26 1.941 . S
C2 O3 1.258 . S
C2 O4 1.263 . S
O3 Co0 1.970 . S
O3 C2 1.258 . S
O4 Co1 1.966 . S
O4 C2 1.263 . S
C5 O6 1.235 . S
C5 O32 1.289 . S
O6 C5 1.235 . S
C7 C9 1.400 . S
C7 N10 1.351 . S
C7 C12 1.501 . S
C8 C9 1.387 . S
C8 N11 1.341 . S
C9 C7 1.400 . S
C9 C8 1.387 . S
N10 Co1 2.022 1_655 S
N10 C7 1.351 . S
N10 N11 1.365 . S
N11 C8 1.341 . S
N11 N10 1.365 . S
N11 H31 0.862 . S
C12 C7 1.501 . S
C12 H13 0.961 1_655 S
C12 H14 0.961 . S
C12 H15 0.960 . S
H13 C12 0.961 1_455 S
H14 C12 0.961 . S
H15 C12 0.960 . S
C16 N17 1.342 1_655 S
C16 C20 1.401 . S
C16 C21 1.499 1_655 S
N17 Co0 1.989 . S
N17 C16 1.342 1_455 S
N17 N18 1.388 1_455 S
N18 Co1 1.993 1_655 S
N18 N17 1.388 1_655 S
N18 C19 1.346 . S
C19 N18 1.346 . S
C19 C20 1.396 . S
C19 C29 1.510 . S
C20 C16 1.401 . S
C20 C19 1.396 . S
C21 C16 1.499 1_455 S
C21 H22 0.959 . S
C21 H23 0.960 . S
C21 H24 0.965 . S
H22 C21 0.959 . S
H23 C21 0.960 . S
H24 C21 0.965 . S
O25 Co0 1.967 . S
O25 C33 1.258 . S
O26 Co1 1.941 . S
O26 C33 1.266 . S
H27 C29 0.959 . S
H28 C29 0.961 . S
C29 C19 1.510 . S
C29 H27 0.959 . S
C29 H28 0.961 . S
C29 H30 0.960 . S
H30 C29 0.960 . S
H31 N11 0.862 . S
O32 Co0 1.920 . S
O32 C5 1.289 . S
C33 O25 1.258 . S
C33 O26 1.266 . S
Co34 O37 1.970 . S
Co34 N51 1.989 . S
Co34 O59 1.967 . S
Co34 O66 1.920 . S
Co35 O38 1.966 . S
Co35 N44 2.022 . S
Co35 N52 1.993 . S
Co35 O60 1.941 . S
C36 O37 1.258 . S
C36 O38 1.263 . S
O37 Co34 1.970 . S
O37 C36 1.258 . S
O38 Co35 1.966 . S
O38 C36 1.263 . S
C39 O40 1.235 . S
C39 O66 1.289 . S
O40 C39 1.235 . S
C41 C43 1.400 . S
C41 N44 1.351 . S
C41 C46 1.501 . S
C42 C43 1.387 . S
C42 N45 1.341 . S
C43 C41 1.400 . S
C43 C42 1.387 . S
N44 Co35 2.022 . S
N44 C41 1.351 . S
N44 N45 1.365 . S
N45 C42 1.341 . S
N45 N44 1.365 . S
N45 H65 0.862 . S
C46 C41 1.501 . S
C46 H47 0.961 . S
C46 H48 0.961 . S
C46 H49 0.960 1_556 S
H47 C46 0.961 . S
H48 C46 0.961 . S
H49 C46 0.960 1_554 S
C50 N51 1.342 . S
C50 C54 1.401 . S
C50 C55 1.499 . S
N51 Co34 1.989 . S
N51 C50 1.342 . S
N51 N52 1.388 . S
N52 Co35 1.993 . S
N52 N51 1.388 . S
N52 C53 1.346 . S
C53 N52 1.346 . S
C53 C54 1.396 . S
C53 C63 1.510 . S
C54 C50 1.401 . S
C54 C53 1.396 . S
C55 C50 1.499 . S
C55 H56 0.959 . S
C55 H57 0.960 . S
C55 H58 0.961 . S
H56 C55 0.959 . S
H57 C55 0.960 . S
H58 C55 0.961 . S
O59 Co34 1.967 . S
O59 C67 1.258 . S
O60 Co35 1.941 . S
O60 C67 1.266 . S
H61 C63 0.959 . S
H62 C63 0.961 . S
C63 C53 1.510 . S
C63 H61 0.959 . S
C63 H62 0.961 . S
C63 H64 0.960 . S
H64 C63 0.960 . S
H65 N45 0.862 . S
O66 Co34 1.920 . S
O66 C39 1.289 . S
C67 O59 1.258 . S
C67 O60 1.266 . S
Co68 O71 1.970 1_455 S
Co68 N85 1.989 . S
Co68 O93 1.967 . S
Co68 O100 1.920 . S
Co69 O72 1.966 . S
Co69 N78 2.022 . S
Co69 N86 1.993 1_655 S
Co69 O94 1.941 . S
C70 O71 1.258 . S
C70 O72 1.263 . S
O71 Co68 1.970 1_655 S
O71 C70 1.258 . S
O72 Co69 1.966 . S
O72 C70 1.263 . S
C73 O74 1.235 . S
C73 O100 1.289 . S
O74 C73 1.235 . S
C75 C77 1.400 . S
C75 N78 1.351 . S
C75 C80 1.501 . S
C76 C77 1.387 . S
C76 N79 1.341 . S
C77 C75 1.400 . S
C77 C76 1.387 . S
N78 Co69 2.022 . S
N78 C75 1.351 . S
N78 N79 1.365 . S
N79 C76 1.341 . S
N79 N78 1.365 . S
N79 H99 0.862 . S
C80 C75 1.501 . S
C80 H81 0.961 . S
C80 H82 0.961 . S
C80 H83 0.960 . S
H81 C80 0.961 . S
H82 C80 0.961 . S
H83 C80 0.960 . S
C84 N85 1.342 . S
C84 C88 1.401 . S
C84 C89 1.499 . S
N85 Co68 1.989 . S
N85 C84 1.342 . S
N85 N86 1.388 . S
N86 Co69 1.993 1_455 S
N86 N85 1.388 . S
N86 C87 1.346 . S
C87 N86 1.346 . S
C87 C88 1.396 . S
C87 C97 1.510 . S
C88 C84 1.401 . S
C88 C87 1.396 . S
C89 C84 1.499 . S
C89 H90 0.959 . S
C89 H91 0.960 . S
C89 H92 0.961 . S
H90 C89 0.959 . S
H91 C89 0.960 . S
H92 C89 0.961 . S
O93 Co68 1.967 . S
O93 C101 1.258 . S
O94 Co69 1.941 . S
O94 C101 1.266 1_655 S
H95 C97 0.959 . S
H96 C97 0.961 . S
C97 C87 1.510 . S
C97 H95 0.959 . S
C97 H96 0.961 . S
C97 H98 0.960 . S
H98 C97 0.960 . S
H99 N79 0.862 . S
O100 Co68 1.920 . S
O100 C73 1.289 . S
C101 O93 1.258 . S
C101 O94 1.266 1_455 S
Co102 O105 1.970 . S
Co102 N119 1.989 . S
Co102 O127 1.967 . S
Co102 O134 1.920 . S
Co103 O106 1.966 . S
Co103 N112 2.022 . S
Co103 N120 1.993 . S
Co103 O128 1.941 . S
C104 O105 1.258 . S
C104 O106 1.263 . S
O105 Co102 1.970 . S
O105 C104 1.258 . S
O106 Co103 1.966 . S
O106 C104 1.263 . S
C107 O108 1.235 . S
C107 O134 1.289 . S
O108 C107 1.235 . S
C109 C111 1.400 . S
C109 N112 1.351 . S
C109 C114 1.501 . S
C110 C111 1.387 . S
C110 N113 1.341 . S
C111 C109 1.400 . S
C111 C110 1.387 . S
N112 Co103 2.022 . S
N112 C109 1.351 . S
N112 N113 1.365 . S
N113 C110 1.341 . S
N113 N112 1.365 . S
N113 H133 0.862 . S
C114 C109 1.501 . S
C114 H115 0.961 . S
C114 H116 0.961 . S
C114 H117 0.960 1_554 S
H115 C114 0.961 . S
H116 C114 0.961 . S
H117 C114 0.960 1_556 S
C118 N119 1.342 . S
C118 C122 1.401 . S
C118 C123 1.499 . S
N119 Co102 1.989 . S
N119 C118 1.342 . S
N119 N120 1.388 . S
N120 Co103 1.993 . S
N120 N119 1.388 . S
N120 C121 1.346 . S
C121 N120 1.346 . S
C121 C122 1.396 . S
C121 C131 1.510 . S
C122 C118 1.401 . S
C122 C121 1.396 . S
C123 C118 1.499 . S
C123 H124 0.959 . S
C123 H125 0.960 . S
C123 H126 0.961 . S
H124 C123 0.959 . S
H125 C123 0.960 . S
H126 C123 0.961 . S
O127 Co102 1.967 . S
O127 C135 1.258 . S
O128 Co103 1.941 . S
O128 C135 1.266 . S
H129 C131 0.959 . S
H130 C131 0.961 . S
C131 C121 1.510 . S
C131 H129 0.959 . S
C131 H130 0.961 . S
C131 H132 0.960 . S
H132 C131 0.960 . S
H133 N113 0.862 . S
O134 Co102 1.920 . S
O134 C107 1.289 . S
C135 O127 1.258 . S
C135 O128 1.266 . S
Co136 O139 1.970 . S
Co136 N153 1.989 . S
Co136 O161 1.967 . S
Co136 O168 1.920 . S
Co137 O140 1.966 . S
Co137 N146 2.022 . S
Co137 N154 1.993 . S
Co137 O162 1.941 . S
C138 O139 1.258 . S
C138 O140 1.263 . S
O139 Co136 1.970 . S
O139 C138 1.258 . S
O140 Co137 1.966 . S
O140 C138 1.263 . S
C141 O142 1.235 . S
C141 O168 1.289 . S
O142 C141 1.235 . S
C143 C145 1.400 . S
C143 N146 1.351 . S
C143 C148 1.501 . S
C144 C145 1.387 . S
C144 N147 1.341 . S
C145 C143 1.400 . S
C145 C144 1.387 . S
N146 Co137 2.022 . S
N146 C143 1.351 . S
N146 N147 1.365 . S
N147 C144 1.341 . S
N147 N146 1.365 . S
N147 H167 0.862 . S
C148 C143 1.501 . S
C148 H149 0.961 . S
C148 H150 0.961 . S
C148 H151 0.960 . S
H149 C148 0.961 . S
H150 C148 0.961 . S
H151 C148 0.960 . S
C152 N153 1.342 . S
C152 C156 1.401 . S
C152 C157 1.499 . S
N153 Co136 1.989 . S
N153 C152 1.342 . S
N153 N154 1.388 . S
N154 Co137 1.993 . S
N154 N153 1.388 . S
N154 C155 1.346 . S
C155 N154 1.346 . S
C155 C156 1.396 . S
C155 C165 1.510 . S
C156 C152 1.401 . S
C156 C155 1.396 . S
C157 C152 1.499 . S
C157 H158 0.959 . S
C157 H159 0.960 . S
C157 H160 0.961 . S
H158 C157 0.959 . S
H159 C157 0.960 . S
H160 C157 0.961 . S
O161 Co136 1.967 . S
O161 C169 1.258 . S
O162 Co137 1.941 . S
O162 C169 1.266 . S
H163 C165 0.959 . S
H164 C165 0.961 . S
C165 C155 1.510 . S
C165 H163 0.959 . S
C165 H164 0.961 . S
C165 H166 0.960 . S
H166 C165 0.960 . S
H167 N147 0.862 . S
O168 Co136 1.920 . S
O168 C141 1.289 . S
C169 O161 1.258 . S
C169 O162 1.266 . S
Co170 O173 1.970 . S
Co170 N187 1.989 1_655 S
Co170 O195 1.967 . S
Co170 O202 1.920 . S
Co171 O174 1.966 . S
Co171 N180 2.022 . S
Co171 N188 1.993 . S
Co171 O196 1.941 . S
C172 O173 1.258 . S
C172 O174 1.263 1_655 S
O173 Co170 1.970 . S
O173 C172 1.258 . S
O174 Co171 1.966 . S
O174 C172 1.263 1_455 S
C175 O176 1.235 . S
C175 O202 1.289 . S
O176 C175 1.235 . S
C177 C179 1.400 . S
C177 N180 1.351 . S
C177 C182 1.501 . S
C178 C179 1.387 . S
C178 N181 1.341 . S
C179 C177 1.400 . S
C179 C178 1.387 . S
N180 Co171 2.022 . S
N180 C177 1.351 . S
N180 N181 1.365 . S
N181 C178 1.341 . S
N181 N180 1.365 . S
N181 H201 0.862 . S
C182 C177 1.501 . S
C182 H183 0.961 . S
C182 H184 0.961 . S
C182 H185 0.960 1_556 S
H183 C182 0.961 . S
H184 C182 0.961 . S
H185 C182 0.960 1_554 S
C186 N187 1.342 . S
C186 C190 1.401 . S
C186 C191 1.499 . S
N187 Co170 1.989 1_455 S
N187 C186 1.342 . S
N187 N188 1.388 . S
N188 Co171 1.993 . S
N188 N187 1.388 . S
N188 C189 1.346 . S
C189 N188 1.346 . S
C189 C190 1.396 . S
C189 C199 1.510 . S
C190 C186 1.401 . S
C190 C189 1.396 . S
C191 C186 1.499 . S
C191 H192 0.970 . S
C191 H193 0.960 . S
C191 H194 0.961 . S
H192 C191 0.970 . S
H193 C191 0.960 . S
H194 C191 0.961 . S
O195 Co170 1.967 . S
O195 C203 1.258 1_655 S
O196 Co171 1.941 . S
O196 C203 1.266 . S
H197 C199 0.959 . S
H198 C199 0.961 . S
C199 C189 1.510 . S
C199 H197 0.959 . S
C199 H198 0.961 . S
C199 H200 0.960 . S
H200 C199 0.960 . S
H201 N181 0.862 . S
O202 Co170 1.920 . S
O202 C175 1.289 . S
C203 O195 1.258 1_455 S
C203 O196 1.266 . S
Co204 O207 1.970 . S
Co204 N221 1.989 . S
Co204 O229 1.967 . S
Co204 O236 1.920 . S
Co205 O208 1.966 . S
Co205 N214 2.022 . S
Co205 N222 1.993 . S
Co205 O230 1.941 . S
C206 O207 1.258 . S
C206 O208 1.263 . S
O207 Co204 1.970 . S
O207 C206 1.258 . S
O208 Co205 1.966 . S
O208 C206 1.263 . S
C209 O210 1.235 . S
C209 O236 1.289 . S
O210 C209 1.235 . S
C211 C213 1.400 . S
C211 N214 1.351 . S
C211 C216 1.501 . S
C212 C213 1.387 . S
C212 N215 1.341 . S
C213 C211 1.400 . S
C213 C212 1.387 . S
N214 Co205 2.022 . S
N214 C211 1.351 . S
N214 N215 1.365 . S
N215 C212 1.341 . S
N215 N214 1.365 . S
N215 H235 0.862 . S
C216 C211 1.501 . S
C216 H217 0.961 . S
C216 H218 0.961 . S
C216 H219 0.960 . S
H217 C216 0.961 . S
H218 C216 0.961 . S
H219 C216 0.960 . S
C220 N221 1.342 . S
C220 C224 1.401 . S
C220 C225 1.499 . S
N221 Co204 1.989 . S
N221 C220 1.342 . S
N221 N222 1.388 . S
N222 Co205 1.993 . S
N222 N221 1.388 . S
N222 C223 1.346 . S
C223 N222 1.346 . S
C223 C224 1.396 . S
C223 C233 1.510 . S
C224 C220 1.401 . S
C224 C223 1.396 . S
C225 C220 1.499 . S
C225 H226 0.959 . S
C225 H227 0.960 . S
C225 H228 0.961 . S
H226 C225 0.959 . S
H227 C225 0.960 . S
H228 C225 0.961 . S
O229 Co204 1.967 . S
O229 C237 1.258 . S
O230 Co205 1.941 . S
O230 C237 1.266 . S
H231 C233 0.959 . S
H232 C233 0.961 . S
C233 C223 1.510 . S
C233 H231 0.959 . S
C233 H232 0.961 . S
C233 H234 0.960 . S
H234 C233 0.960 . S
H235 N215 0.862 . S
O236 Co204 1.920 . S
O236 C209 1.289 . S
C237 O229 1.258 . S
C237 O230 1.266 . S
Co238 O241 1.970 . S
Co238 N255 1.989 1_655 S
Co238 O263 1.967 . S
Co238 O270 1.920 . S
Co239 O242 1.966 . S
Co239 N248 2.022 . S
Co239 N256 1.993 . S
Co239 O264 1.941 . S
C240 O241 1.258 . S
C240 O242 1.263 1_655 S
O241 Co238 1.970 . S
O241 C240 1.258 . S
O242 Co239 1.966 . S
O242 C240 1.263 1_455 S
C243 O244 1.235 . S
C243 O270 1.289 . S
O244 C243 1.235 . S
C245 C247 1.400 . S
C245 N248 1.351 . S
C245 C250 1.501 . S
C246 C247 1.387 . S
C246 N249 1.341 . S
C247 C245 1.400 . S
C247 C246 1.387 . S
N248 Co239 2.022 . S
N248 C245 1.351 . S
N248 N249 1.365 . S
N249 C246 1.341 . S
N249 N248 1.365 . S
N249 H269 0.862 . S
C250 C245 1.501 . S
C250 H251 0.961 . S
C250 H252 0.961 . S
C250 H253 0.960 1_554 S
H251 C250 0.961 . S
H252 C250 0.961 . S
H253 C250 0.960 1_556 S
C254 N255 1.342 . S
C254 C258 1.401 . S
C254 C259 1.499 . S
N255 Co238 1.989 1_455 S
N255 C254 1.342 . S
N255 N256 1.388 . S
N256 Co239 1.993 . S
N256 N255 1.388 . S
N256 C257 1.346 . S
C257 N256 1.346 . S
C257 C258 1.396 . S
C257 C267 1.510 . S
C258 C254 1.401 . S
C258 C257 1.396 . S
C259 C254 1.499 . S
C259 H260 0.959 . S
C259 H261 0.960 . S
C259 H262 0.961 . S
H260 C259 0.959 . S
H261 C259 0.960 . S
H262 C259 0.961 . S
O263 Co238 1.967 . S
O263 C271 1.258 1_655 S
O264 Co239 1.941 . S
O264 C271 1.266 . S
H265 C267 0.959 . S
H266 C267 0.961 . S
C267 C257 1.510 . S
C267 H265 0.959 . S
C267 H266 0.961 . S
C267 H268 0.960 . S
H268 C267 0.960 . S
H269 N249 0.862 . S
O270 Co238 1.920 . S
O270 C243 1.289 . S
C271 O263 1.258 1_455 S
C271 O264 1.266 . S
C272 C273 1.369 . S
C272 C274 1.419 . S
C272 H276 0.930 . S
C273 C272 1.369 . S
C273 C282 1.429 . S
C274 C272 1.419 . S
C274 C275 1.363 . S
C274 H277 0.929 . S
C275 C274 1.363 . S
C275 C281 1.428 . S
H276 C272 0.930 . S
H277 C274 0.929 . S
S278 N279 1.613 . S
S278 N280 1.610 . S
N279 S278 1.613 . S
N279 C282 1.350 . S
N280 S278 1.610 . S
N280 C281 1.351 . S
C281 C275 1.428 . S
C281 N280 1.351 . S
C281 C282 1.434 . S
C282 C273 1.429 . S
C282 N279 1.350 . S
C282 C281 1.434 . S
C283 C284 1.369 . S
C283 C285 1.419 . S
C283 H287 0.930 . S
C284 C283 1.369 . S
C284 C293 1.429 . S
C285 C283 1.419 . S
C285 C286 1.363 . S
C285 H288 0.929 . S
C286 C285 1.363 . S
C286 C292 1.428 . S
H287 C283 0.930 . S
H288 C285 0.929 . S
S289 N290 1.613 . S
S289 N291 1.610 . S
N290 S289 1.613 . S
N290 C293 1.350 . S
N291 S289 1.610 . S
N291 C292 1.351 . S
C292 C286 1.428 . S
C292 N291 1.351 . S
C292 C293 1.434 . S
C293 C284 1.429 . S
C293 N290 1.350 . S
C293 C292 1.434 . S
C294 C295 1.369 . S
C294 C296 1.419 . S
C294 H298 0.930 . S
C295 C294 1.369 . S
C295 C304 1.429 . S
C296 C294 1.419 . S
C296 C297 1.363 . S
C296 H299 0.929 . S
C297 C296 1.363 . S
C297 C303 1.428 . S
H298 C294 0.930 . S
H299 C296 0.929 . S
S300 N301 1.613 . S
S300 N302 1.610 . S
N301 S300 1.613 . S
N301 C304 1.350 . S
N302 S300 1.610 . S
N302 C303 1.351 . S
C303 C297 1.428 . S
C303 N302 1.351 . S
C303 C304 1.434 . S
C304 C295 1.429 . S
C304 N301 1.350 . S
C304 C303 1.434 . S
C305 C306 1.369 . S
C305 C307 1.419 . S
C305 H309 0.930 . S
C306 C305 1.369 . S
C306 C315 1.429 . S
C307 C305 1.419 . S
C307 C308 1.363 . S
C307 H310 0.929 . S
C308 C307 1.363 . S
C308 C314 1.428 . S
H309 C305 0.930 . S
H310 C307 0.929 . S
S311 N312 1.613 . S
S311 N313 1.610 . S
N312 S311 1.613 . S
N312 C315 1.350 . S
N313 S311 1.610 . S
N313 C314 1.351 . S
C314 C308 1.428 . S
C314 N313 1.351 . S
C314 C315 1.434 . S
C315 C306 1.429 . S
C315 N312 1.350 . S
C315 C314 1.434 . S
C316 C317 1.369 . S
C316 C318 1.419 . S
C316 H320 0.930 . S
C317 C316 1.369 . S
C317 C326 1.429 . S
C318 C316 1.419 . S
C318 C319 1.363 . S
C318 H321 0.929 . S
C319 C318 1.363 . S
C319 C325 1.428 . S
H320 C316 0.930 . S
H321 C318 0.929 . S
S322 N323 1.613 . S
S322 N324 1.610 . S
N323 S322 1.613 . S
N323 C326 1.350 . S
N324 S322 1.610 . S
N324 C325 1.351 . S
C325 C319 1.428 . S
C325 N324 1.351 . S
C325 C326 1.434 . S
C326 C317 1.429 . S
C326 N323 1.350 . S
C326 C325 1.434 . S
C327 C328 1.369 . S
C327 C329 1.419 . S
C327 H331 0.930 . S
C328 C327 1.369 . S
C328 C337 1.429 . S
C329 C327 1.419 . S
C329 C330 1.363 . S
C329 H332 0.929 . S
C330 C329 1.363 . S
C330 C336 1.428 . S
H331 C327 0.930 . S
H332 C329 0.929 . S
S333 N334 1.613 . S
S333 N335 1.610 . S
N334 S333 1.613 . S
N334 C337 1.350 . S
N335 S333 1.610 . S
N335 C336 1.351 . S
C336 C330 1.428 . S
C336 N335 1.351 . S
C336 C337 1.434 . S
C337 C328 1.429 . S
C337 N334 1.350 . S
C337 C336 1.434 . S
C338 C339 1.369 . S
C338 C340 1.419 . S
C338 H342 0.930 . S
C339 C338 1.369 . S
C339 C348 1.429 . S
C340 C338 1.419 . S
C340 C341 1.363 . S
C340 H343 0.929 . S
C341 C340 1.363 . S
C341 C347 1.428 . S
H342 C338 0.930 . S
H343 C340 0.929 . S
S344 N345 1.613 . S
S344 N346 1.610 . S
N345 S344 1.613 . S
N345 C348 1.350 . S
N346 S344 1.610 . S
N346 C347 1.351 . S
C347 C341 1.428 . S
C347 N346 1.351 . S
C347 C348 1.434 . S
C348 C339 1.429 . S
C348 N345 1.350 . S
C348 C347 1.434 . S
C349 C350 1.369 . S
C349 C351 1.419 . S
C349 H353 0.930 . S
C350 C349 1.369 . S
C350 C359 1.429 . S
C351 C349 1.419 . S
C351 C352 1.363 . S
C351 H354 0.929 . S
C352 C351 1.363 . S
C352 C358 1.428 . S
H353 C349 0.930 . S
H354 C351 0.929 . S
S355 N356 1.613 . S
S355 N357 1.610 . S
N356 S355 1.613 . S
N356 C359 1.350 . S
N357 S355 1.610 . S
N357 C358 1.351 . S
C358 C352 1.428 . S
C358 N357 1.351 . S
C358 C359 1.434 . S
C359 C350 1.429 . S
C359 N356 1.350 . S
C359 C358 1.434 . S
C360 C361 1.369 . S
C360 C362 1.419 . S
C360 H364 0.930 . S
C361 C360 1.369 . S
C361 C370 1.429 . S
C362 C360 1.419 . S
C362 C363 1.363 . S
C362 H365 0.929 . S
C363 C362 1.363 . S
C363 C369 1.428 . S
H364 C360 0.930 . S
H365 C362 0.929 . S
S366 N367 1.613 . S
S366 N368 1.610 . S
N367 S366 1.613 . S
N367 C370 1.350 . S
N368 S366 1.610 . S
N368 C369 1.351 . S
C369 C363 1.428 . S
C369 N368 1.351 . S
C369 C370 1.434 . S
C370 C361 1.429 . S
C370 N367 1.350 . S
C370 C369 1.434 . S
C371 C372 1.369 . S
C371 C373 1.419 . S
C371 H375 0.930 . S
C372 C371 1.369 . S
C372 C381 1.429 . S
C373 C371 1.419 . S
C373 C374 1.363 1_556 S
C373 H376 0.929 . S
C374 C373 1.363 1_554 S
C374 C380 1.428 . S
H375 C371 0.930 . S
H376 C373 0.929 . S
S377 N378 1.595 1_554 S
S377 N379 1.610 . S
N378 S377 1.595 1_556 S
N378 C381 1.350 . S
N379 S377 1.610 . S
N379 C380 1.351 . S
C380 C374 1.428 . S
C380 N379 1.351 . S
C380 C381 1.434 1_554 S
C381 C372 1.429 . S
C381 N378 1.350 . S
C381 C380 1.434 1_556 S
C382 C383 1.369 . S
C382 C384 1.419 1_545 S
C382 H386 0.930 . S
C383 C382 1.369 . S
C383 C392 1.429 . S
C384 C382 1.419 1_565 S
C384 C385 1.363 . S
C384 H387 0.929 . S
C385 C384 1.363 . S
C385 C391 1.428 . S
H386 C382 0.930 . S
H387 C384 0.929 . S
S388 N389 1.613 . S
S388 N390 1.610 1_545 S
N389 S388 1.613 . S
N389 C392 1.350 . S
N390 S388 1.610 1_565 S
N390 C391 1.351 . S
C391 C385 1.428 . S
C391 N390 1.351 . S
C391 C392 1.434 1_565 S
C392 C383 1.429 . S
C392 N389 1.350 . S
C392 C391 1.434 1_545 S
C393 C394 1.369 1_556 S
C393 C395 1.419 . S
C393 H397 0.930 1_455 S
C394 C393 1.369 1_554 S
C394 C403 1.429 1_565 S
C395 C393 1.419 . S
C395 C396 1.363 1_565 S
C395 H398 0.928 1_455 S
C396 C395 1.363 1_545 S
C396 C402 1.428 1_556 S
H397 C393 0.930 1_655 S
H398 C395 0.928 1_655 S
S399 N400 1.613 . S
S399 N401 1.610 . S
N400 S399 1.613 . S
N400 C403 1.350 . S
N401 S399 1.610 . S
N401 C402 1.351 . S
C402 C396 1.428 1_554 S
C402 N401 1.351 . S
C402 C403 1.434 . S
C403 C394 1.429 1_545 S
C403 N400 1.350 . S
C403 C402 1.434 . S
C404 C405 1.369 . S
C404 C406 1.419 . S
C404 H408 0.930 . S
C405 C404 1.369 . S
C405 C414 1.429 . S
C406 C404 1.419 . S
C406 C407 1.363 . S
C406 H409 0.929 . S
C407 C406 1.363 . S
C407 C413 1.428 . S
H408 C404 0.930 . S
H409 C406 0.929 . S
S410 N411 1.613 . S
S410 N412 1.610 . S
N411 S410 1.613 . S
N411 C414 1.350 . S
N412 S410 1.610 . S
N412 C413 1.351 . S
C413 C407 1.428 . S
C413 N412 1.351 . S
C413 C414 1.434 . S
C414 C405 1.429 . S
C414 N411 1.350 . S
C414 C413 1.434 . S
C415 C416 1.369 . S
C415 C417 1.419 . S
C415 H419 0.930 . S
C416 C415 1.369 . S
C416 C425 1.429 . S
C417 C415 1.419 . S
C417 C418 1.363 . S
C417 H420 0.929 . S
C418 C417 1.363 . S
C418 C424 1.428 . S
H419 C415 0.930 . S
H420 C417 0.929 . S
S421 N422 1.613 . S
S421 N423 1.610 1_556 S
N422 S421 1.613 . S
N422 C425 1.350 . S
N423 S421 1.610 1_554 S
N423 C424 1.351 1_554 S
C424 C418 1.428 . S
C424 N423 1.351 1_556 S
C424 C425 1.434 . S
C425 C416 1.429 . S
C425 N422 1.350 . S
C425 C424 1.434 . S
C426 C427 1.369 . S
C426 C428 1.419 . S
C426 H430 0.930 . S
C427 C426 1.369 . S
C427 C436 1.429 . S
C428 C426 1.419 . S
C428 C429 1.363 . S
C428 H431 0.929 . S
C429 C428 1.363 . S
C429 C435 1.428 . S
H430 C426 0.930 . S
H431 C428 0.929 . S
S432 N433 1.613 . S
S432 N434 1.610 . S
N433 S432 1.613 . S
N433 C436 1.350 . S
N434 S432 1.610 . S
N434 C435 1.351 . S
C435 C429 1.428 . S
C435 N434 1.351 . S
C435 C436 1.434 . S
C436 C427 1.429 . S
C436 N433 1.350 . S
C436 C435 1.434 . S
C437 C438 1.369 1_556 S
C437 C439 1.419 1_556 S
C437 H441 0.930 . S
C438 C437 1.369 1_554 S
C438 C447 1.429 . S
C439 C437 1.419 1_554 S
C439 C440 1.363 . S
C439 H442 0.929 . S
C440 C439 1.363 . S
C440 C446 1.428 . S
H441 C437 0.930 . S
H442 C439 0.929 . S
S443 N444 1.613 . S
S443 N445 1.610 . S
N444 S443 1.613 . S
N444 C447 1.350 . S
N445 S443 1.610 . S
N445 C446 1.351 . S
C446 C440 1.428 . S
C446 N445 1.351 . S
C446 C447 1.434 . S
C447 C438 1.429 . S
C447 N444 1.350 . S
C447 C446 1.434 . S
C448 C449 1.369 . S
C448 C450 1.419 . S
C448 H452 0.930 . S
C449 C448 1.369 . S
C449 C458 1.429 . S
C450 C448 1.419 . S
C450 C451 1.363 . S
C450 H453 0.929 . S
C451 C450 1.363 . S
C451 C457 1.428 . S
H452 C448 0.930 . S
H453 C450 0.929 . S
S454 N455 1.613 . S
S454 N456 1.610 . S
N455 S454 1.613 . S
N455 C458 1.350 . S
N456 S454 1.610 . S
N456 C457 1.351 . S
C457 C451 1.428 . S
C457 N456 1.351 . S
C457 C458 1.434 . S
C458 C449 1.429 . S
C458 N455 1.350 . S
C458 C457 1.434 . S
C459 C460 1.369 1_554 S
C459 C461 1.419 1_554 S
C459 H463 0.930 . S
C460 C459 1.369 1_556 S
C460 C469 1.429 . S
C461 C459 1.419 1_556 S
C461 C462 1.363 . S
C461 H464 0.929 1_556 S
C462 C461 1.363 . S
C462 C468 1.428 . S
H463 C459 0.930 . S
H464 C461 0.929 1_554 S
S465 N466 1.613 . S
S465 N467 1.610 . S
N466 S465 1.613 . S
N466 C469 1.350 . S
N467 S465 1.610 . S
N467 C468 1.351 . S
C468 C462 1.428 . S
C468 N467 1.351 . S
C468 C469 1.434 . S
C469 C460 1.429 . S
C469 N466 1.350 . S
C469 C468 1.434 . S
C470 C471 1.369 . S
C470 C472 1.419 . S
C470 H474 0.930 . S
C471 C470 1.369 . S
C471 C480 1.429 . S
C472 C470 1.419 . S
C472 C473 1.363 . S
C472 H475 0.929 . S
C473 C472 1.363 . S
C473 C479 1.428 . S
H474 C470 0.930 . S
H475 C472 0.929 . S
S476 N477 1.613 . S
S476 N478 1.610 . S
N477 S476 1.613 . S
N477 C480 1.350 . S
N478 S476 1.610 . S
N478 C479 1.351 . S
C479 C473 1.428 . S
C479 N478 1.351 . S
C479 C480 1.434 . S
C480 C471 1.429 . S
C480 N477 1.350 . S
C480 C479 1.434 . S
C481 C482 1.369 . S
C481 C483 1.419 . S
C481 H485 0.930 . S
C482 C481 1.369 . S
C482 C491 1.429 1_554 S
C483 C481 1.419 . S
C483 C484 1.363 . S
C483 H486 0.929 . S
C484 C483 1.363 . S
C484 C490 1.428 . S
H485 C481 0.930 . S
H486 C483 0.929 . S
S487 N488 1.613 . S
S487 N489 1.610 . S
N488 S487 1.613 . S
N488 C491 1.350 . S
N489 S487 1.610 . S
N489 C490 1.351 1_556 S
C490 C484 1.428 . S
C490 N489 1.351 1_554 S
C490 C491 1.434 1_554 S
C491 C482 1.429 1_556 S
C491 N488 1.350 . S
C491 C490 1.434 1_556 S
C273 C5 1.697 . S
C275 C107 1.654 . S
C284 C39 1.469 . S
C286 C88 1.544 . S
C295 C77 1.543 . S
C297 C54 1.554 . S
C306 C122 1.399 . S
C308 C20 1.397 . S
C317 C141 1.703 . S
C319 C243 1.660 . S
C328 C224 1.544 . S
C330 C175 1.461 . S
C339 C190 1.555 . S
C341 C213 1.546 . S
C350 C258 1.400 . S
C352 C156 1.395 . S
C361 C101 1.678 . S
C363 C33 1.644 . S
C372 C67 1.540 . S
C374 C135 1.505 . S
C383 C237 1.676 . S
C385 C169 1.649 . S
C394 C271 1.511 . S
C396 C203 1.537 . S
C405 C2 1.958 . S
C407 C206 1.958 . S
C416 C36 1.268 . S
C418 C247 1.229 1_556 S
C427 C73 1.356 . S
C429 C145 1.389 . S
C438 C179 1.637 1_554 S
C440 C104 1.647 . S
C449 C70 1.958 . S
C451 C138 1.959 . S
C460 C111 1.232 1_556 S
C462 C172 1.268 . S
C471 C9 1.389 . S
C473 C209 1.354 . S
C482 C43 1.636 1_554 S
C484 C240 1.648 . S
