# Generated by pormake.
# Topology wir, (6)-cn, num edge types: 1
# Building blocks:
#     Node 0, Type 0, BuildingBlock: BETDAH_clean_sbu_0, # of connection points: 6
#     Node 1, Type 0, BuildingBlock: BETDAH_clean_sbu_0, # of connection points: 6
#     Node 2, Type 0, BuildingBlock: BETDAH_clean_sbu_0, # of connection points: 6
#     Node 3, Type 0, BuildingBlock: BETDAH_clean_sbu_0, # of connection points: 6
#     Node 4, Type 0, BuildingBlock: BETDAH_clean_sbu_0, # of connection points: 6
#     Node 5, Type 0, BuildingBlock: BETDAH_clean_sbu_0, # of connection points: 6
#     Node 6, Type 0, BuildingBlock: BETDAH_clean_sbu_0, # of connection points: 6
#     Node 7, Type 0, BuildingBlock: BETDAH_clean_sbu_0, # of connection points: 6
#     Node 8, Type 0, BuildingBlock: BETDAH_clean_sbu_0, # of connection points: 6
#     Node 9, Type 0, BuildingBlock: BETDAH_clean_sbu_0, # of connection points: 6
#     Node 10, Type 0, BuildingBlock: BETDAH_clean_sbu_0, # of connection points: 6
#     Node 11, Type 0, BuildingBlock: BETDAH_clean_sbu_0, # of connection points: 6
#     Node 12, Type 0, BuildingBlock: BETDAH_clean_sbu_0, # of connection points: 6
#     Node 13, Type 0, BuildingBlock: BETDAH_clean_sbu_0, # of connection points: 6
#     Node 14, Type 0, BuildingBlock: BETDAH_clean_sbu_0, # of connection points: 6
#     Node 15, Type 0, BuildingBlock: BETDAH_clean_sbu_0, # of connection points: 6
#     Node 16, Type 0, BuildingBlock: BETDAH_clean_sbu_0, # of connection points: 6
#     Node 17, Type 0, BuildingBlock: BETDAH_clean_sbu_0, # of connection points: 6
#     Node 18, Type 0, BuildingBlock: BETDAH_clean_sbu_0, # of connection points: 6
#     Node 19, Type 0, BuildingBlock: BETDAH_clean_sbu_0, # of connection points: 6
#     Node 20, Type 0, BuildingBlock: BETDAH_clean_sbu_0, # of connection points: 6
#     Node 21, Type 0, BuildingBlock: BETDAH_clean_sbu_0, # of connection points: 6
#     Node 22, Type 0, BuildingBlock: BETDAH_clean_sbu_0, # of connection points: 6
#     Node 23, Type 0, BuildingBlock: BETDAH_clean_sbu_0, # of connection points: 6
#     Node 24, Type 0, BuildingBlock: BETDAH_clean_sbu_0, # of connection points: 6
#     Node 25, Type 0, BuildingBlock: BETDAH_clean_sbu_0, # of connection points: 6
#     Node 26, Type 0, BuildingBlock: BETDAH_clean_sbu_0, # of connection points: 6
#     Node 27, Type 0, BuildingBlock: BETDAH_clean_sbu_0, # of connection points: 6
#     Node 28, Type 0, BuildingBlock: BETDAH_clean_sbu_0, # of connection points: 6
#     Node 29, Type 0, BuildingBlock: BETDAH_clean_sbu_0, # of connection points: 6
#     Node 30, Type 0, BuildingBlock: BETDAH_clean_sbu_0, # of connection points: 6
#     Node 31, Type 0, BuildingBlock: BETDAH_clean_sbu_0, # of connection points: 6
#     Edge 32, Type (0, 0), BuildingBlock: MIFKUJ_clean_linker_0, # of connection points: 2
#     Edge 33, Type (0, 0), BuildingBlock: MIFKUJ_clean_linker_0, # of connection points: 2
#     Edge 34, Type (0, 0), BuildingBlock: MIFKUJ_clean_linker_0, # of connection points: 2
#     Edge 35, Type (0, 0), BuildingBlock: MIFKUJ_clean_linker_0, # of connection points: 2
#     Edge 36, Type (0, 0), BuildingBlock: MIFKUJ_clean_linker_0, # of connection points: 2
#     Edge 37, Type (0, 0), BuildingBlock: MIFKUJ_clean_linker_0, # of connection points: 2
#     Edge 38, Type (0, 0), BuildingBlock: MIFKUJ_clean_linker_0, # of connection points: 2
#     Edge 39, Type (0, 0), BuildingBlock: MIFKUJ_clean_linker_0, # of connection points: 2
#     Edge 40, Type (0, 0), BuildingBlock: MIFKUJ_clean_linker_0, # of connection points: 2
#     Edge 41, Type (0, 0), BuildingBlock: MIFKUJ_clean_linker_0, # of connection points: 2
#     Edge 42, Type (0, 0), BuildingBlock: MIFKUJ_clean_linker_0, # of connection points: 2
#     Edge 43, Type (0, 0), BuildingBlock: MIFKUJ_clean_linker_0, # of connection points: 2
#     Edge 44, Type (0, 0), BuildingBlock: MIFKUJ_clean_linker_0, # of connection points: 2
#     Edge 45, Type (0, 0), BuildingBlock: MIFKUJ_clean_linker_0, # of connection points: 2
#     Edge 46, Type (0, 0), BuildingBlock: MIFKUJ_clean_linker_0, # of connection points: 2
#     Edge 47, Type (0, 0), BuildingBlock: MIFKUJ_clean_linker_0, # of connection points: 2
#     Edge 48, Type (0, 0), BuildingBlock: MIFKUJ_clean_linker_0, # of connection points: 2
#     Edge 49, Type (0, 0), BuildingBlock: MIFKUJ_clean_linker_0, # of connection points: 2
#     Edge 50, Type (0, 0), BuildingBlock: MIFKUJ_clean_linker_0, # of connection points: 2
#     Edge 51, Type (0, 0), BuildingBlock: MIFKUJ_clean_linker_0, # of connection points: 2
#     Edge 52, Type (0, 0), BuildingBlock: MIFKUJ_clean_linker_0, # of connection points: 2
#     Edge 53, Type (0, 0), BuildingBlock: MIFKUJ_clean_linker_0, # of connection points: 2
#     Edge 54, Type (0, 0), BuildingBlock: MIFKUJ_clean_linker_0, # of connection points: 2
#     Edge 55, Type (0, 0), BuildingBlock: MIFKUJ_clean_linker_0, # of connection points: 2
#     Edge 56, Type (0, 0), BuildingBlock: MIFKUJ_clean_linker_0, # of connection points: 2
#     Edge 57, Type (0, 0), BuildingBlock: MIFKUJ_clean_linker_0, # of connection points: 2
#     Edge 58, Type (0, 0), BuildingBlock: MIFKUJ_clean_linker_0, # of connection points: 2
#     Edge 59, Type (0, 0), BuildingBlock: MIFKUJ_clean_linker_0, # of connection points: 2
#     Edge 60, Type (0, 0), BuildingBlock: MIFKUJ_clean_linker_0, # of connection points: 2
#     Edge 61, Type (0, 0), BuildingBlock: MIFKUJ_clean_linker_0, # of connection points: 2
#     Edge 62, Type (0, 0), BuildingBlock: MIFKUJ_clean_linker_0, # of connection points: 2
#     Edge 63, Type (0, 0), BuildingBlock: MIFKUJ_clean_linker_0, # of connection points: 2
#     Edge 64, Type (0, 0), BuildingBlock: MIFKUJ_clean_linker_0, # of connection points: 2
#     Edge 65, Type (0, 0), BuildingBlock: MIFKUJ_clean_linker_0, # of connection points: 2
#     Edge 66, Type (0, 0), BuildingBlock: MIFKUJ_clean_linker_0, # of connection points: 2
#     Edge 67, Type (0, 0), BuildingBlock: MIFKUJ_clean_linker_0, # of connection points: 2
#     Edge 68, Type (0, 0), BuildingBlock: MIFKUJ_clean_linker_0, # of connection points: 2
#     Edge 69, Type (0, 0), BuildingBlock: MIFKUJ_clean_linker_0, # of connection points: 2
#     Edge 70, Type (0, 0), BuildingBlock: MIFKUJ_clean_linker_0, # of connection points: 2
#     Edge 71, Type (0, 0), BuildingBlock: MIFKUJ_clean_linker_0, # of connection points: 2
#     Edge 72, Type (0, 0), BuildingBlock: MIFKUJ_clean_linker_0, # of connection points: 2
#     Edge 73, Type (0, 0), BuildingBlock: MIFKUJ_clean_linker_0, # of connection points: 2
#     Edge 74, Type (0, 0), BuildingBlock: MIFKUJ_clean_linker_0, # of connection points: 2
#     Edge 75, Type (0, 0), BuildingBlock: MIFKUJ_clean_linker_0, # of connection points: 2
#     Edge 76, Type (0, 0), BuildingBlock: MIFKUJ_clean_linker_0, # of connection points: 2
#     Edge 77, Type (0, 0), BuildingBlock: MIFKUJ_clean_linker_0, # of connection points: 2
#     Edge 78, Type (0, 0), BuildingBlock: MIFKUJ_clean_linker_0, # of connection points: 2
#     Edge 79, Type (0, 0), BuildingBlock: MIFKUJ_clean_linker_0, # of connection points: 2
#     Edge 80, Type (0, 0), BuildingBlock: MIFKUJ_clean_linker_0, # of connection points: 2
#     Edge 81, Type (0, 0), BuildingBlock: MIFKUJ_clean_linker_0, # of connection points: 2
#     Edge 82, Type (0, 0), BuildingBlock: MIFKUJ_clean_linker_0, # of connection points: 2
#     Edge 83, Type (0, 0), BuildingBlock: MIFKUJ_clean_linker_0, # of connection points: 2
#     Edge 84, Type (0, 0), BuildingBlock: MIFKUJ_clean_linker_0, # of connection points: 2
#     Edge 85, Type (0, 0), BuildingBlock: MIFKUJ_clean_linker_0, # of connection points: 2
#     Edge 86, Type (0, 0), BuildingBlock: MIFKUJ_clean_linker_0, # of connection points: 2
#     Edge 87, Type (0, 0), BuildingBlock: MIFKUJ_clean_linker_0, # of connection points: 2
#     Edge 88, Type (0, 0), BuildingBlock: MIFKUJ_clean_linker_0, # of connection points: 2
#     Edge 89, Type (0, 0), BuildingBlock: MIFKUJ_clean_linker_0, # of connection points: 2
#     Edge 90, Type (0, 0), BuildingBlock: MIFKUJ_clean_linker_0, # of connection points: 2
#     Edge 91, Type (0, 0), BuildingBlock: MIFKUJ_clean_linker_0, # of connection points: 2
#     Edge 92, Type (0, 0), BuildingBlock: MIFKUJ_clean_linker_0, # of connection points: 2
#     Edge 93, Type (0, 0), BuildingBlock: MIFKUJ_clean_linker_0, # of connection points: 2
#     Edge 94, Type (0, 0), BuildingBlock: MIFKUJ_clean_linker_0, # of connection points: 2
#     Edge 95, Type (0, 0), BuildingBlock: MIFKUJ_clean_linker_0, # of connection points: 2
#     Edge 96, Type (0, 0), BuildingBlock: MIFKUJ_clean_linker_0, # of connection points: 2
#     Edge 97, Type (0, 0), BuildingBlock: MIFKUJ_clean_linker_0, # of connection points: 2
#     Edge 98, Type (0, 0), BuildingBlock: MIFKUJ_clean_linker_0, # of connection points: 2
#     Edge 99, Type (0, 0), BuildingBlock: MIFKUJ_clean_linker_0, # of connection points: 2
#     Edge 100, Type (0, 0), BuildingBlock: MIFKUJ_clean_linker_0, # of connection points: 2
#     Edge 101, Type (0, 0), BuildingBlock: MIFKUJ_clean_linker_0, # of connection points: 2
#     Edge 102, Type (0, 0), BuildingBlock: MIFKUJ_clean_linker_0, # of connection points: 2
#     Edge 103, Type (0, 0), BuildingBlock: MIFKUJ_clean_linker_0, # of connection points: 2
#     Edge 104, Type (0, 0), BuildingBlock: MIFKUJ_clean_linker_0, # of connection points: 2
#     Edge 105, Type (0, 0), BuildingBlock: MIFKUJ_clean_linker_0, # of connection points: 2
#     Edge 106, Type (0, 0), BuildingBlock: MIFKUJ_clean_linker_0, # of connection points: 2
#     Edge 107, Type (0, 0), BuildingBlock: MIFKUJ_clean_linker_0, # of connection points: 2
#     Edge 108, Type (0, 0), BuildingBlock: MIFKUJ_clean_linker_0, # of connection points: 2
#     Edge 109, Type (0, 0), BuildingBlock: MIFKUJ_clean_linker_0, # of connection points: 2
#     Edge 110, Type (0, 0), BuildingBlock: MIFKUJ_clean_linker_0, # of connection points: 2
#     Edge 111, Type (0, 0), BuildingBlock: MIFKUJ_clean_linker_0, # of connection points: 2
#     Edge 112, Type (0, 0), BuildingBlock: MIFKUJ_clean_linker_0, # of connection points: 2
#     Edge 113, Type (0, 0), BuildingBlock: MIFKUJ_clean_linker_0, # of connection points: 2
#     Edge 114, Type (0, 0), BuildingBlock: MIFKUJ_clean_linker_0, # of connection points: 2
#     Edge 115, Type (0, 0), BuildingBlock: MIFKUJ_clean_linker_0, # of connection points: 2
#     Edge 116, Type (0, 0), BuildingBlock: MIFKUJ_clean_linker_0, # of connection points: 2
#     Edge 117, Type (0, 0), BuildingBlock: MIFKUJ_clean_linker_0, # of connection points: 2
#     Edge 118, Type (0, 0), BuildingBlock: MIFKUJ_clean_linker_0, # of connection points: 2
#     Edge 119, Type (0, 0), BuildingBlock: MIFKUJ_clean_linker_0, # of connection points: 2
#     Edge 120, Type (0, 0), BuildingBlock: MIFKUJ_clean_linker_0, # of connection points: 2
#     Edge 121, Type (0, 0), BuildingBlock: MIFKUJ_clean_linker_0, # of connection points: 2
#     Edge 122, Type (0, 0), BuildingBlock: MIFKUJ_clean_linker_0, # of connection points: 2
#     Edge 123, Type (0, 0), BuildingBlock: MIFKUJ_clean_linker_0, # of connection points: 2
#     Edge 124, Type (0, 0), BuildingBlock: MIFKUJ_clean_linker_0, # of connection points: 2
#     Edge 125, Type (0, 0), BuildingBlock: MIFKUJ_clean_linker_0, # of connection points: 2
#     Edge 126, Type (0, 0), BuildingBlock: MIFKUJ_clean_linker_0, # of connection points: 2
#     Edge 127, Type (0, 0), BuildingBlock: MIFKUJ_clean_linker_0, # of connection points: 2
# Relax obj value: 0.366
# Max RMSD: 0.203
# Mean RMSD: 0.203
data_MOF--net-wir--node1-BETDAH_clean_sbu_0--edge1-MIFKUJ_clean_linker_0
_symmetry_space_group_name_H-M    P1
_symmetry_Int_Tables_number       1
_symmetry_cell_setting            triclinic
loop_
_symmetry_equiv_pos_as_xyz
'x, y, z'
_cell_length_a     49.661555
_cell_length_b     49.727507
_cell_length_c     136.41916
_cell_angle_alpha  90.203635
_cell_angle_beta   89.972256
_cell_angle_gamma 89.890791
loop_
_atom_site_label
_atom_site_type_symbol
_atom_site_fract_x
_atom_site_fract_y
_atom_site_fract_z
_atom_type_partial_charge
Ho0 Ho 0.24596 0.22703 0.37085 0.0
Ho1 Ho 0.22577 0.19059 0.36508 0.0
C2 C 0.20945 0.20529 0.38619 0.0
C3 C 0.2647 0.27504 0.37409 0.0
C4 C 0.25061 0.30077 0.3749 0.0
C5 C 0.22329 0.30228 0.37236 0.0
C6 C 0.20767 0.32393 0.37554 0.0
C7 C 0.21921 0.34424 0.38135 0.0
C8 C 0.24719 0.344 0.38299 0.0
C9 C 0.26279 0.32225 0.37983 0.0
C10 C 0.27478 0.1862 0.38159 0.0
C11 C 0.25241 0.22515 0.34742 0.0
C12 C 0.2155 0.14389 0.3574 0.0
C13 C 0.19382 0.13132 0.35159 0.0
C14 C 0.1975 0.12679 0.34153 0.0
C15 C 0.17841 0.11242 0.33616 0.0
C16 C 0.1553 0.10209 0.34077 0.0
C17 C 0.15113 0.10741 0.35077 0.0
C18 C 0.17019 0.12189 0.35613 0.0
C19 C 0.17893 0.22202 0.36646 0.0
O20 O 0.21353 0.22868 0.38218 0.0
O21 O 0.21764 0.1844 0.38114 0.0
O22 O 0.25871 0.2581 0.38095 0.0
O23 O 0.26451 0.26369 0.3655 0.0
O24 O 0.26582 0.20906 0.38463 0.0
O25 O 0.26799 0.18576 0.37229 0.0
O26 O 0.23231 0.20868 0.34938 0.0
O27 O 0.26547 0.23242 0.3554 0.0
O28 O 0.20967 0.15052 0.36637 0.0
O29 O 0.23031 0.16198 0.35312 0.0
O30 O 0.18132 0.19664 0.36821 0.0
O31 O 0.20282 0.23081 0.36409 0.0
H32 H 0.21355 0.2857 0.36861 0.0
H33 H 0.18615 0.32336 0.37425 0.0
H34 H 0.2566 0.35957 0.38737 0.0
H35 H 0.28387 0.3213 0.38185 0.0
H36 H 0.21561 0.13356 0.33786 0.0
H37 H 0.18249 0.1082 0.32851 0.0
H38 H 0.13348 0.09975 0.35449 0.0
H39 H 0.16675 0.12497 0.36389 0.0
Ho40 Ho 0.07765 0.98812 0.62617 0.0
Ho41 Ho 0.11331 0.96549 0.6207 0.0
C42 C 0.09578 0.94525 0.64093 0.0
C43 C 0.03074 1.00299 0.63238 0.0
C44 C 1.00673 0.98597 0.63275 0.0
C45 C 1.00445 0.96435 0.62613 0.0
C46 C 0.98767 0.94274 0.62826 0.0
C47 C 0.97319 0.94236 0.63708 0.0
C48 C 0.97301 0.96549 0.64308 0.0
C49 C 0.98987 0.98712 0.64095 0.0
C50 C 0.12073 1.01901 0.63516 0.0
C51 C 0.07836 0.99218 0.60266 0.0
C52 C 0.16111 0.96325 0.61328 0.0
C53 C 0.1744 0.95436 0.60428 0.0
C54 C 0.20156 0.96066 0.60292 0.0
C55 C 0.21594 0.94911 0.59521 0.0
C56 C 0.20337 0.93095 0.58876 0.0
C57 C 0.17575 0.92557 0.58989 0.0
C58 C 0.16134 0.93719 0.59763 0.0
C59 C 0.081 0.92052 0.62049 0.0
O60 O 0.07372 0.95605 0.63757 0.0
O61 O 0.11793 0.94962 0.63598 0.0
O62 O 0.04995 0.99516 0.63818 0.0
O63 O 0.03969 1.00859 0.62366 0.0
O64 O 0.10054 0.02808 0.63009 0.0
O65 O 0.11848 0.99344 0.63406 0.0
O66 O 0.09665 0.97369 0.60475 0.0
O67 O 0.06891 1.00419 0.61052 0.0
O68 O 0.15033 0.94405 0.61844 0.0
O69 O 0.14593 0.98478 0.61281 0.0
O70 O 0.10681 0.92127 0.62178 0.0
O71 O 0.07238 0.94521 0.61884 0.0
H72 H 1.01744 0.96295 0.61977 0.0
H73 H 0.98805 0.92532 0.62349 0.0
H74 H 0.96148 0.96594 0.64982 0.0
H75 H 0.99145 1.00358 0.64615 0.0
H76 H 0.21189 0.97384 0.60802 0.0
H77 H 0.23702 0.95415 0.59438 0.0
H78 H 0.16557 0.91167 0.58502 0.0
H79 H 0.14034 0.93203 0.59864 0.0
Ho80 Ho 0.31757 0.84015 0.87072 0.0
Ho81 Ho 0.34143 0.87397 0.86491 0.0
C82 C 0.35718 0.85993 0.88597 0.0
C83 C 0.29977 0.79525 0.87777 0.0
C84 C 0.3138 0.76988 0.87949 0.0
C85 C 0.33728 0.76372 0.87418 0.0
C86 C 0.35394 0.74271 0.87717 0.0
C87 C 0.34745 0.72797 0.88558 0.0
C88 C 0.32305 0.73302 0.89048 0.0
C89 C 0.30629 0.75389 0.88744 0.0
C90 C 0.28745 0.88473 0.87904 0.0
C91 C 0.31346 0.83822 0.84731 0.0
C92 C 0.34689 0.91909 0.85592 0.0
C93 C 0.35771 0.92601 0.84627 0.0
C94 C 0.35118 0.95071 0.842 0.0
C95 C 0.36281 0.95805 0.83309 0.0
C96 C 0.38126 0.94082 0.82838 0.0
C97 C 0.38738 0.91586 0.8326 0.0
C98 C 0.37555 0.90842 0.84146 0.0
C99 C 0.38568 0.84051 0.86557 0.0
O100 O 0.34908 0.83706 0.88237 0.0
O101 O 0.3522 0.88126 0.88066 0.0
O102 O 0.30808 0.8151 0.88318 0.0
O103 O 0.29701 0.80219 0.86864 0.0
O104 O 0.27802 0.86448 0.8741 0.0
O105 O 0.31297 0.88206 0.87795 0.0
O106 O 0.33286 0.85555 0.84926 0.0
O107 O 0.3008 0.83043 0.85523 0.0
O108 O 0.36463 0.90953 0.86204 0.0
O109 O 0.32424 0.90558 0.85596 0.0
O110 O 0.38547 0.86638 0.86662 0.0
O111 O 0.36082 0.83239 0.86391 0.0
H112 H 0.34358 0.77615 0.86809 0.0
H113 H 0.37282 0.73934 0.87337 0.0
H114 H 0.31772 0.72177 0.89699 0.0
H115 H 0.28836 0.75858 0.89165 0.0
H116 H 0.33748 0.96448 0.84564 0.0
H117 H 0.35794 0.97752 0.83001 0.0
H118 H 0.40131 0.90213 0.82905 0.0
H119 H 0.38069 0.88915 0.84464 0.0
Ho120 Ho 0.47152 0.0651 0.12766 0.0
Ho121 Ho 0.43251 0.08371 0.12145 0.0
C122 C 0.4459 0.1008 0.14253 0.0
C123 C 0.52089 0.05137 0.13118 0.0
C124 C 0.54515 0.06682 0.1288 0.0
C125 C 0.54342 0.08737 0.12178 0.0
C126 C 0.56167 0.10869 0.12196 0.0
C127 C 0.58179 0.10967 0.12915 0.0
C128 C 0.58552 0.08741 0.13535 0.0
C129 C 0.56715 0.06615 0.13521 0.0
C130 C 0.43164 0.03541 0.13857 0.0
C131 C 0.47011 0.05849 0.10403 0.0
C132 C 0.38554 0.08992 0.11348 0.0
C133 C 0.3743 0.10508 0.10523 0.0
C134 C 0.35366 0.09346 0.09969 0.0
C135 C 0.34286 0.10713 0.0917 0.0
C136 C 0.35249 0.13274 0.08915 0.0
C137 C 0.37303 0.14452 0.09477 0.0
C138 C 0.38403 0.13069 0.10274 0.0
C139 C 0.46331 0.13076 0.1221 0.0
O140 O 0.4695 0.09858 0.13845 0.0
O141 O 0.42558 0.09098 0.13757 0.0
O142 O 0.50546 0.06335 0.13754 0.0
O143 O 0.50715 0.04181 0.12382 0.0
O144 O 0.45505 0.04355 0.14134 0.0
O145 O 0.43044 0.04252 0.12933 0.0
O146 O 0.4503 0.07567 0.10576 0.0
O147 O 0.48041 0.04807 0.11208 0.0
O148 O 0.394 0.10392 0.12094 0.0
O149 O 0.40196 0.07042 0.11119 0.0
O150 O 0.43782 0.12845 0.12378 0.0
O151 O 0.47248 0.10677 0.12001 0.0
H152 H 0.52644 0.08839 0.11681 0.0
H153 H 0.55856 0.12557 0.11709 0.0
H154 H 0.60076 0.08783 0.14102 0.0
H155 H 0.56861 0.05066 0.14075 0.0
H156 H 0.34594 0.07374 0.10152 0.0
H157 H 0.32679 0.09776 0.08756 0.0
H158 H 0.38086 0.16417 0.09291 0.0
H159 H 0.40015 0.13991 0.1069 0.0
Ho160 Ho 0.23625 0.82955 0.22704 0.0
Ho161 Ho 0.21241 0.86239 0.23175 0.0
C162 C 0.19353 0.84404 0.21178 0.0
C163 C 0.25564 0.78318 0.22177 0.0
C164 C 0.24275 0.75676 0.2213 0.0
C165 C 0.21464 0.755 0.2217 0.0
C166 C 0.202 0.73019 0.22081 0.0
C167 C 0.21723 0.70647 0.21961 0.0
C168 C 0.24555 0.70823 0.21988 0.0
C169 C 0.25821 0.73326 0.22067 0.0
C170 C 0.26547 0.87298 0.2176 0.0
C171 C 0.23862 0.82986 0.25017 0.0
C172 C 0.2096 0.90841 0.24043 0.0
C173 C 0.1986 0.91697 0.24989 0.0
C174 C 0.20499 0.94234 0.25366 0.0
C175 C 0.19209 0.95182 0.26208 0.0
C176 C 0.1724 0.93614 0.26681 0.0
C177 C 0.16684 0.91025 0.26319 0.0
C178 C 0.17991 0.90071 0.25481 0.0
C179 C 0.16775 0.83004 0.23184 0.0
O180 O 0.20443 0.82276 0.21567 0.0
O181 O 0.19752 0.86682 0.21635 0.0
O182 O 0.24666 0.80098 0.21561 0.0
O183 O 0.25795 0.79304 0.23056 0.0
O184 O 0.27519 0.85455 0.22331 0.0
O185 O 0.24006 0.86908 0.21837 0.0
O186 O 0.21696 0.84342 0.24755 0.0
O187 O 0.2541 0.82492 0.24264 0.0
O188 O 0.19156 0.89964 0.23425 0.0
O189 O 0.23127 0.8933 0.24066 0.0
O190 O 0.16826 0.85571 0.23022 0.0
O191 O 0.19252 0.82168 0.23367 0.0
H192 H 0.20235 0.7729 0.22241 0.0
H193 H 0.18023 0.73 0.22049 0.0
H194 H 0.25794 0.6904 0.21916 0.0
H195 H 0.28 0.7343 0.2206 0.0
H196 H 0.21944 0.95506 0.24995 0.0
H197 H 0.19732 0.97159 0.26483 0.0
H198 H 0.15172 0.89772 0.2666 0.0
H199 H 0.17472 0.88102 0.25197 0.0
Ho200 Ho 0.48465 0.99208 0.4703 0.0
Ho201 Ho 0.44852 0.9709 0.47569 0.0
C202 C 0.46454 0.95577 0.45474 0.0
C203 C 0.53295 1.0106 0.46807 0.0
C204 C 0.55841 0.99732 0.47059 0.0
C205 C 0.55918 0.9783 0.47819 0.0
C206 C 0.58018 0.95963 0.47869 0.0
C207 C 0.60048 0.95939 0.4715 0.0
C208 C 0.60085 0.9802 0.46449 0.0
C209 C 0.58001 0.99899 0.46406 0.0
C210 C 0.44439 1.0198 0.45887 0.0
C211 C 0.48251 0.99632 0.49366 0.0
C212 C 0.40197 0.96223 0.48364 0.0
C213 C 0.3909 0.94611 0.49171 0.0
C214 C 0.39945 0.94983 0.50143 0.0
C215 C 0.38715 0.93569 0.50902 0.0
C216 C 0.3662 0.91746 0.50703 0.0
C217 C 0.35849 0.91298 0.49725 0.0
C218 C 0.37066 0.92727 0.48967 0.0
C219 C 0.48067 0.92492 0.47475 0.0
O220 O 0.48747 0.95988 0.45907 0.0
O221 O 0.44305 0.96339 0.45957 0.0
O222 O 0.51963 0.99849 0.46117 0.0
O223 O 0.51741 1.01749 0.47535 0.0
O224 O 0.4683 1.01245 0.45633 0.0
O225 O 0.44271 1.01237 0.46807 0.0
O226 O 0.4673 0.97553 0.49138 0.0
O227 O 0.4888 1.01066 0.48591 0.0
O228 O 0.41105 0.94882 0.47612 0.0
O229 O 0.41737 0.98253 0.48595 0.0
O230 O 0.45524 0.92672 0.47283 0.0
O231 O 0.48916 0.94907 0.47706 0.0
H232 H 0.54253 0.9765 0.48328 0.0
H233 H 0.57944 0.94422 0.48427 0.0
H234 H 0.61578 0.98061 0.45871 0.0
H235 H 0.57957 1.01327 0.45808 0.0
H236 H 0.41513 0.96415 0.50321 0.0
H237 H 0.39328 0.93994 0.51648 0.0
H238 H 0.34266 0.89884 0.49547 0.0
H239 H 0.36387 0.924 0.48221 0.0
Ho240 Ho 0.30935 0.22641 0.7264 0.0
Ho241 Ho 0.32935 0.18985 0.7319 0.0
C242 C 0.35188 0.2104 0.71228 0.0
C243 C 0.28961 0.27401 0.72344 0.0
C244 C 0.30439 0.2994 0.72333 0.0
C245 C 0.33219 0.29892 0.72508 0.0
C246 C 0.3481 0.3208 0.72253 0.0
C247 C 0.33636 0.34369 0.71827 0.0
C248 C 0.30804 0.34525 0.71765 0.0
C249 C 0.29215 0.32303 0.72004 0.0
C250 C 0.28293 0.18553 0.71479 0.0
C251 C 0.3026 0.22354 0.74981 0.0
C252 C 0.33768 0.14158 0.73839 0.0
C253 C 0.35936 0.12738 0.74349 0.0
C254 C 0.37709 0.14094 0.74979 0.0
C255 C 0.397 0.12663 0.75482 0.0
C256 C 0.39957 0.09867 0.75351 0.0
C257 C 0.38241 0.08548 0.74686 0.0
C258 C 0.36246 0.09974 0.74191 0.0
C259 C 0.37644 0.22044 0.7321 0.0
O260 O 0.3446 0.23244 0.71668 0.0
O261 O 0.34306 0.18795 0.7161 0.0
O262 O 0.29636 0.25758 0.71644 0.0
O263 O 0.28858 0.26191 0.73186 0.0
O264 O 0.29312 0.20806 0.71198 0.0
O265 O 0.28794 0.18529 0.72421 0.0
O266 O 0.32239 0.20667 0.7478 0.0
O267 O 0.28991 0.23152 0.74186 0.0
O268 O 0.34324 0.14913 0.72951 0.0
O269 O 0.32475 0.16003 0.74331 0.0
O270 O 0.37434 0.19484 0.73067 0.0
O271 O 0.35216 0.23008 0.73349 0.0
H272 H 0.34191 0.28079 0.72767 0.0
H273 H 0.36974 0.3186 0.72308 0.0
H274 H 0.2983 0.36289 0.71465 0.0
H275 H 0.27065 0.32373 0.71872 0.0
H276 H 0.37523 0.16243 0.75096 0.0
H277 H 0.41002 0.13729 0.75987 0.0
H278 H 0.38356 0.0639 0.74582 0.0
H279 H 0.34906 0.08906 0.73699 0.0
Ho280 Ho 0.08479 0.0775 0.97016 0.0
Ho281 Ho 0.12228 0.09841 0.97599 0.0
C282 C 0.11156 0.10924 0.95419 0.0
C283 C 0.03574 0.06124 0.96778 0.0
C284 C 1.01106 0.07287 0.97188 0.0
C285 C 1.01297 0.09517 0.97818 0.0
C286 C 0.99093 0.11226 0.97947 0.0
C287 C 0.96673 0.10706 0.9745 0.0
C288 C 0.96383 0.08251 0.96943 0.0
C289 C 0.98604 0.06569 0.96799 0.0
C290 C 0.12442 0.04761 0.9593 0.0
C291 C 0.08681 0.07221 0.9937 0.0
C292 C 0.16809 0.10897 0.98429 0.0
C293 C 0.17725 0.12568 0.99251 0.0
C294 C 0.16004 0.13199 1.00035 0.0
C295 C 0.16955 0.14703 1.00829 0.0
C296 C 0.1963 0.15623 1.00843 0.0
C297 C 0.21311 0.15073 1.00037 0.0
C298 C 0.20364 0.13553 0.99248 0.0
C299 C 0.0893 0.14395 0.97427 0.0
O300 O 0.0874 0.10689 0.95784 0.0
O301 O 0.13146 0.10235 0.95994 0.0
O302 O 0.04809 0.07706 0.96168 0.0
O303 O 0.05228 0.05039 0.97403 0.0
O304 O 0.10013 0.05374 0.95682 0.0
O305 O 0.12685 0.05671 0.96831 0.0
O306 O 0.1042 0.09154 0.99174 0.0
O307 O 0.07844 0.05973 0.98575 0.0
O308 O 0.15882 0.12198 0.97677 0.0
O309 O 0.15333 0.08816 0.98647 0.0
O310 O 0.11456 0.14196 0.97213 0.0
O311 O 0.08158 0.12017 0.97716 0.0
H312 H 0.03217 0.10084 0.98132 0.0
H313 H 0.99363 0.13088 0.98349 0.0
H314 H 0.94534 0.07782 0.9656 0.0
H315 H 0.98422 0.0485 0.96313 0.0
H316 H 0.13944 0.12491 1.00043 0.0
H317 H 0.15618 0.15107 1.0144 0.0
H318 H 0.23393 0.15719 1.00035 0.0
H319 H 0.2171 0.13099 0.98644 0.0
Ho320 Ho 0.83856 0.85771 0.72538 0.0
Ho321 Ho 0.81534 0.82726 0.72196 0.0
C322 C 0.81354 0.8288 0.74489 0.0
C323 C 0.83404 0.90574 0.73213 0.0
C324 C 0.83818 0.91987 0.74137 0.0
C325 C 0.82333 0.94323 0.74319 0.0
C326 C 0.82827 0.95833 0.75159 0.0
C327 C 0.84822 0.95024 0.75827 0.0
C328 C 0.86251 0.92627 0.75659 0.0
C329 C 0.85739 0.91103 0.74819 0.0
C330 C 0.88431 0.82831 0.72719 0.0
C331 C 0.85891 0.83308 0.70644 0.0
C332 C 0.7928 0.78149 0.71791 0.0
C333 C 0.80498 0.75473 0.71862 0.0
C334 C 0.83257 0.75271 0.7206 0.0
C335 C 0.84518 0.72778 0.72076 0.0
C336 C 0.8304 0.7041 0.71908 0.0
C337 C 0.80229 0.70611 0.71773 0.0
C338 C 0.78968 0.73133 0.71744 0.0
C339 C 0.78893 0.87038 0.71107 0.0
O340 O 0.83496 0.84208 0.74183 0.0
O341 O 0.79783 0.82315 0.73755 0.0
O342 O 0.85582 0.89672 0.7278 0.0
O343 O 0.81387 0.88873 0.73192 0.0
O344 O 0.88301 0.85403 0.72553 0.0
O345 O 0.85971 0.81839 0.72816 0.0
O346 O 0.84545 0.81416 0.71078 0.0
O347 O 0.85725 0.85709 0.71036 0.0
O348 O 0.80323 0.79711 0.71131 0.0
O349 O 0.79008 0.79382 0.72625 0.0
O350 O 0.77883 0.85657 0.71827 0.0
O351 O 0.81342 0.86262 0.71131 0.0
H352 H 0.80842 0.9502 0.73798 0.0
H353 H 0.81728 0.97696 0.75264 0.0
H354 H 0.87787 0.91963 0.76167 0.0
H355 H 0.86884 0.89279 0.74689 0.0
H356 H 0.84462 0.77053 0.72173 0.0
H357 H 0.86684 0.7274 0.72163 0.0
H358 H 0.79018 0.68831 0.71657 0.0
H359 H 0.76822 0.73258 0.71611 0.0
Ho360 Ho 0.93395 0.08532 0.48169 0.0
Ho361 Ho 0.97085 0.06611 0.47569 0.0
C362 C 0.96961 0.05868 0.49912 0.0
C363 C 0.88696 0.09319 0.48949 0.0
C364 C 0.87418 0.11325 0.49596 0.0
C365 C 0.86148 0.10451 0.50453 0.0
C366 C 0.8478 0.12276 0.51051 0.0
C367 C 0.84643 0.15013 0.50799 0.0
C368 C 0.85949 0.159 0.49947 0.0
C369 C 0.87341 0.14073 0.49352 0.0
C370 C 0.96393 0.13287 0.48106 0.0
C371 C 0.94906 0.10426 0.46102 0.0
C372 C 1.01913 0.04909 0.47172 0.0
C373 C 0.0445 0.06395 0.47077 0.0
C374 C 0.04878 0.08775 0.47612 0.0
C375 C 0.07014 0.10476 0.47373 0.0
C376 C 0.08732 0.09848 0.46584 0.0
C377 C 0.08369 0.07386 0.46086 0.0
C378 C 0.06253 0.05676 0.46333 0.0
C379 C 0.92991 0.0376 0.46477 0.0
O380 O 0.95248 0.0784 0.49733 0.0
O381 O 0.97731 0.04628 0.49102 0.0
O382 O 0.89355 0.10111 0.48075 0.0
O383 O 0.90531 0.07785 0.4934 0.0
O384 O 0.93837 0.13015 0.47968 0.0
O385 O 0.97391 0.10895 0.48271 0.0
O386 O 0.97224 0.1002 0.4652 0.0
O387 O 0.92803 0.09487 0.46567 0.0
O388 O 1.00136 0.05492 0.46511 0.0
O389 O 1.00849 0.04797 0.48042 0.0
O390 O 0.95245 0.04727 0.46173 0.0
O391 O 0.92995 0.04357 0.47414 0.0
H392 H 0.86169 0.08342 0.50652 0.0
H393 H 0.83752 0.11526 0.51694 0.0
H394 H 0.85879 0.17999 0.49739 0.0
H395 H 0.88316 0.14806 0.48695 0.0
H396 H 0.03485 0.09387 0.48183 0.0
H397 H 0.07252 0.12332 0.47781 0.0
H398 H 0.09608 0.06848 0.45462 0.0
H399 H 0.05928 0.03869 0.45903 0.0
Ho400 Ho 0.72188 0.19015 0.2257 0.0
Ho401 Ho 0.74476 0.22689 0.22094 0.0
C402 C 0.74812 0.22417 0.24438 0.0
C403 C 0.71719 0.14153 0.2321 0.0
C404 C 0.70744 0.12802 0.24091 0.0
C405 C 0.70991 0.10007 0.24158 0.0
C406 C 0.698 0.08636 0.24935 0.0
C407 C 0.68334 0.10044 0.25655 0.0
C408 C 0.68156 0.12863 0.25599 0.0
C409 C 0.69351 0.14234 0.2482 0.0
C410 C 0.67668 0.22243 0.22569 0.0
C411 C 0.70503 0.21123 0.20541 0.0
C412 C 0.76023 0.2744 0.21595 0.0
C413 C 0.7438 0.29861 0.21739 0.0
C414 C 0.72475 0.29872 0.22504 0.0
C415 C 0.70128 0.31388 0.22421 0.0
C416 C 0.69683 0.3292 0.21579 0.0
C417 C 0.71777 0.3325 0.20896 0.0
C418 C 0.74117 0.31704 0.20972 0.0
C419 C 0.77584 0.18414 0.2115 0.0
O420 O 0.73112 0.20471 0.24196 0.0
O421 O 0.75904 0.23558 0.23674 0.0
O422 O 0.69865 0.15396 0.22709 0.0
O423 O 0.73944 0.15548 0.23291 0.0
O424 O 0.67782 0.19697 0.22375 0.0
O425 O 0.70114 0.23069 0.22802 0.0
O426 O 0.71252 0.23308 0.20985 0.0
O427 O 0.71161 0.1884 0.20956 0.0
O428 O 0.74993 0.2573 0.20975 0.0
O429 O 0.76836 0.26265 0.22393 0.0
O430 O 0.78477 0.20425 0.21663 0.0
O431 O 0.75031 0.1865 0.21256 0.0
H432 H 0.72053 0.08878 0.23597 0.0
H433 H 0.70017 0.06471 0.24969 0.0
H434 H 0.6703 0.13999 0.2614 0.0
H435 H 0.69125 0.16397 0.24771 0.0
H436 H 0.72625 0.28457 0.23104 0.0
H437 H 0.68531 0.31107 0.22952 0.0
H438 H 0.71452 0.34408 0.20235 0.0
H439 H 0.7555 0.31707 0.20373 0.0
Ho440 Ho 0.61072 0.96803 0.9817 0.0
Ho441 Ho 0.5766 0.99081 0.97775 0.0
C442 C 0.58114 0.99436 1.00059 0.0
C443 C 0.65844 0.9568 0.98821 0.0
C444 C 0.67089 0.93552 0.99405 0.0
C445 C 0.65614 0.92111 1.00106 0.0
C446 C 0.66895 0.90177 1.00684 0.0
C447 C 0.69658 0.89644 1.0056 0.0
C448 C 0.71083 0.91005 0.99822 0.0
C449 C 0.69808 0.92946 0.99252 0.0
C450 C 0.58004 0.92165 0.98102 0.0
C451 C 0.5868 0.95289 0.96169 0.0
C452 C 0.5295 1.01317 0.97667 0.0
C453 C 0.50328 1.00018 0.97543 0.0
C454 C 0.49938 0.97393 0.97894 0.0
C455 C 0.47827 0.95829 0.97536 0.0
C456 C 0.46106 0.96863 0.96815 0.0
C457 C 0.46343 0.99572 0.96536 0.0
C458 C 0.48447 1.01142 0.96899 0.0
C459 C 0.61618 1.0176 0.9657 0.0
O460 O 0.59237 0.97162 0.99766 0.0
O461 O 0.5777 1.01061 0.99316 0.0
O462 O 0.64966 0.94939 0.97965 0.0
O463 O 0.64173 0.97293 0.99271 0.0
O464 O 0.60538 0.92388 0.97908 0.0
O465 O 0.57053 0.94576 0.98307 0.0
O466 O 0.56613 0.95912 0.96703 0.0
O467 O 0.6103 0.95945 0.96534 0.0
O468 O 0.54551 1.01027 0.96921 0.0
O469 O 0.54183 1.00871 0.98491 0.0
O470 O 0.59187 1.01078 0.96349 0.0
O471 O 0.61872 1.00965 0.97478 0.0
H472 H 0.63494 0.92525 1.00221 0.0
H473 H 0.6575 0.89153 1.01245 0.0
H474 H 0.73222 0.90677 0.99719 0.0
H475 H 0.70965 0.94024 0.98706 0.0
H476 H 0.51389 0.96472 0.98382 0.0
H477 H 0.47701 0.93739 0.97754 0.0
H478 H 0.45027 1.00407 0.95982 0.0
H479 H 0.48733 0.03153 0.96614 0.0
Ho480 Ho 0.83193 0.19288 0.8718 0.0
Ho481 Ho 0.80954 0.22506 0.87724 0.0
C482 C 0.8056 0.22726 0.85398 0.0
C483 C 0.82978 0.14899 0.86192 0.0
C484 C 0.8355 0.14323 0.85156 0.0
C485 C 0.82175 0.15672 0.84401 0.0
C486 C 0.82922 0.1528 0.83426 0.0
C487 C 0.85053 0.13537 0.83192 0.0
C488 C 0.86411 0.12178 0.83946 0.0
C489 C 0.85662 0.12565 0.84919 0.0
C490 C 0.87785 0.22325 0.8719 0.0
C491 C 0.85176 0.20582 0.89225 0.0
C492 C 0.7946 0.27167 0.88368 0.0
C493 C 0.81271 0.29462 0.88517 0.0
C494 C 0.83269 0.3001 0.87814 0.0
C495 C 0.85554 0.31467 0.88072 0.0
C496 C 0.85902 0.32369 0.89039 0.0
C497 C 0.83753 0.32093 0.89706 0.0
C498 C 0.8146 0.30638 0.89448 0.0
C499 C 0.77958 0.18192 0.88634 0.0
O500 O 0.82714 0.21316 0.8563 0.0
O501 O 0.79079 0.23201 0.86176 0.0
O502 O 0.85079 0.15598 0.8671 0.0
O503 O 0.8084 0.16376 0.86378 0.0
O504 O 0.87643 0.1973 0.87278 0.0
O505 O 0.8533 0.2331 0.87081 0.0
O506 O 0.84023 0.22793 0.88928 0.0
O507 O 0.84893 0.1846 0.88666 0.0
O508 O 0.79955 0.25143 0.88939 0.0
O509 O 0.79101 0.26396 0.87465 0.0
O510 O 0.76994 0.20139 0.88105 0.0
O511 O 0.80508 0.18474 0.88528 0.0
H512 H 0.8054 0.17048 0.84561 0.0
H513 H 0.81835 0.16333 0.82856 0.0
H514 H 0.88015 0.10766 0.83781 0.0
H515 H 0.8675 0.1151 0.85489 0.0
H516 H 0.83185 0.29125 0.87088 0.0
H517 H 0.87127 0.31701 0.87531 0.0
H518 H 0.83903 0.32871 0.90447 0.0
H519 H 0.79943 0.30242 0.9 0.0
Ho520 Ho 0.62504 0.08639 0.61451 0.0
Ho521 Ho 0.58853 0.06581 0.62052 0.0
C522 C 0.5894 0.06027 0.59724 0.0
C523 C 0.66878 0.09363 0.60459 0.0
C524 C 0.67436 0.10884 0.59556 0.0
C525 C 0.661 0.10286 0.58673 0.0
C526 C 0.66568 0.11827 0.57838 0.0
C527 C 0.68366 0.14002 0.57871 0.0
C528 C 0.69685 0.1461 0.58755 0.0
C529 C 0.6923 0.13058 0.59589 0.0
C530 C 0.59344 0.13263 0.61593 0.0
C531 C 0.61409 0.10338 0.63561 0.0
C532 C 0.5415 0.04813 0.62562 0.0
C533 C 0.52771 0.05309 0.63496 0.0
C534 C 0.50113 0.06261 0.63476 0.0
C535 C 0.49128 0.07803 0.64255 0.0
C536 C 0.50808 0.08425 0.65052 0.0
C537 C 0.53346 0.07213 0.65121 0.0
C538 C 0.54307 0.0563 0.64354 0.0
C539 C 0.62937 0.03983 0.632 0.0
O540 O 0.6037 0.08178 0.59934 0.0
O541 O 0.5844 0.04575 0.60509 0.0
O542 O 0.66224 0.10808 0.6122 0.0
O543 O 0.65377 0.07223 0.60372 0.0
O544 O 0.61906 0.13065 0.61748 0.0
O545 O 0.58455 0.10861 0.61369 0.0
O546 O 0.5902 0.0973 0.63229 0.0
O547 O 0.63465 0.09616 0.6302 0.0
O548 O 0.56312 0.03336 0.62585 0.0
O549 O 0.54521 0.06987 0.62056 0.0
O550 O 0.60652 0.04952 0.63485 0.0
O551 O 0.63022 0.04542 0.62259 0.0
H552 H 0.64687 0.08634 0.58624 0.0
H553 H 0.65522 0.11319 0.57165 0.0
H554 H 0.71118 0.16245 0.58796 0.0
H555 H 0.70275 0.1356 0.60262 0.0
H556 H 0.48905 0.06055 0.62819 0.0
H557 H 0.47157 0.08723 0.64188 0.0
H558 H 0.54661 0.07653 0.65734 0.0
H559 H 0.56347 0.04888 0.64397 0.0
Ho560 Ho 0.71078 0.8647 0.37124 0.0
Ho561 Ho 0.73113 0.82786 0.37729 0.0
C562 C 0.73649 0.82903 0.35358 0.0
C563 C 0.70287 0.91165 0.36356 0.0
C564 C 0.68676 0.92354 0.35566 0.0
C565 C 0.68597 0.91205 0.34624 0.0
C566 C 0.67205 0.92493 0.33871 0.0
C567 C 0.65857 0.9494 0.34047 0.0
C568 C 0.65841 0.96011 0.35002 0.0
C569 C 0.67246 0.94732 0.35753 0.0
C570 C 0.66478 0.83217 0.3715 0.0
C571 C 0.69219 0.85008 0.39196 0.0
C572 C 0.7511 0.78045 0.38032 0.0
C573 C 0.74155 0.75447 0.37666 0.0
C574 C 0.72174 0.75381 0.36932 0.0
C575 C 0.70553 0.73112 0.36818 0.0
C576 C 0.70873 0.70903 0.37447 0.0
C577 C 0.73109 0.70849 0.38084 0.0
C578 C 0.74729 0.73118 0.38197 0.0
C579 C 0.75817 0.86882 0.38862 0.0
O580 O 0.71775 0.84719 0.35545 0.0
O581 O 0.74831 0.82018 0.36159 0.0
O582 O 0.68944 0.90268 0.37105 0.0
O583 O 0.72261 0.8957 0.36104 0.0
O584 O 0.66604 0.85781 0.37301 0.0
O585 O 0.68929 0.82369 0.36975 0.0
O586 O 0.69728 0.82671 0.38803 0.0
O587 O 0.70105 0.87107 0.3872 0.0
O588 O 0.73429 0.79226 0.38625 0.0
O589 O 0.7606 0.79696 0.3738 0.0
O590 O 0.74931 0.84577 0.39143 0.0
O591 O 0.75203 0.86938 0.37926 0.0
H592 H 0.69668 0.89356 0.34464 0.0
H593 H 0.67288 0.91634 0.3314 0.0
H594 H 0.64793 0.97873 0.35163 0.0
H595 H 0.67264 0.95633 0.36478 0.0
H596 H 0.71703 0.77171 0.36515 0.0
H597 H 0.68875 0.732 0.36312 0.0
H598 H 0.73412 0.69195 0.38587 0.0
H599 H 0.76241 0.73144 0.38769 0.0
Ho600 Ho 0.94178 0.97282 0.11385 0.0
Ho601 Ho 0.97797 0.9949 0.12021 0.0
C602 C 0.97864 1.00219 0.09686 0.0
C603 C 0.89631 0.96851 0.10484 0.0
C604 C 0.88789 0.95828 0.09526 0.0
C605 C 0.86228 0.9647 0.0917 0.0
C606 C 0.85292 0.95286 0.08307 0.0
C607 C 0.86904 0.9343 0.07791 0.0
C608 C 0.89502 0.92845 0.08137 0.0
C609 C 0.90445 0.9405 0.08996 0.0
C610 C 0.97401 0.92743 0.11486 0.0
C611 C 0.95302 0.95659 0.13506 0.0
C612 C 1.02404 1.00449 0.1282 0.0
C613 C 0.04179 0.98361 0.13232 0.0
C614 C 0.05102 0.96224 0.12637 0.0
C615 C 0.05868 0.93784 0.13058 0.0
C616 C 0.05672 0.93447 0.14073 0.0
C617 C 0.05032 0.95656 0.14672 0.0
C618 C 0.04324 0.98108 0.14255 0.0
C619 C 0.93512 0.02726 0.12842 0.0
O620 O 0.96072 0.98309 0.09848 0.0
O621 O 0.98721 1.01367 0.10498 0.0
O622 O 0.90588 0.9503 0.11075 0.0
O623 O 0.91048 0.9907 0.10488 0.0
O624 O 0.94813 0.92858 0.11582 0.0
O625 O 0.98273 0.95188 0.11304 0.0
O626 O 0.97672 0.96301 0.13174 0.0
O627 O 0.93249 0.96309 0.12954 0.0
O628 O 1.00131 1.00721 0.13282 0.0
O629 O 1.02054 1.00414 0.11874 0.0
O630 O 0.95708 0.03569 0.12423 0.0
O631 O 0.93551 1.00177 0.12681 0.0
H632 H 0.84924 0.97828 0.09574 0.0
H633 H 0.8327 0.95749 0.08062 0.0
H634 H 0.90789 0.91441 0.07748 0.0
H635 H 0.92436 0.93539 0.09263 0.0
H636 H 0.05025 0.96352 0.11845 0.0
H637 H 0.06428 0.9211 0.12591 0.0
H638 H 0.04938 0.9544 0.15462 0.0
H639 H 0.0363 0.99719 0.14729 0.0
Ho640 Ho 0.7389 0.72788 0.87214 0.0
Ho641 Ho 0.7178 0.68917 0.86629 0.0
C642 C 0.69874 0.70546 0.88696 0.0
C643 C 0.74887 0.77489 0.87936 0.0
C644 C 0.72858 0.7958 0.88108 0.0
C645 C 0.70465 0.79544 0.87557 0.0
C646 C 0.68245 0.81057 0.87854 0.0
C647 C 0.68385 0.82636 0.88705 0.0
C648 C 0.7083 0.82784 0.89226 0.0
C649 C 0.7305 0.81254 0.88931 0.0
C650 C 0.77125 0.68538 0.88065 0.0
C651 C 0.74628 0.72514 0.8487 0.0
C652 C 0.71656 0.64004 0.86029 0.0
C653 C 0.71461 0.61638 0.85381 0.0
C654 C 0.73752 0.60638 0.84897 0.0
C655 C 0.73728 0.58066 0.84481 0.0
C656 C 0.71419 0.56444 0.84548 0.0
C657 C 0.69087 0.57507 0.84987 0.0
C658 C 0.69111 0.60075 0.85401 0.0
C659 C 0.67251 0.72178 0.86631 0.0
O660 O 0.70553 0.72854 0.88322 0.0
O661 O 0.70604 0.68396 0.88207 0.0
O662 O 0.74566 0.75365 0.88473 0.0
O663 O 0.75335 0.76868 0.87022 0.0
O664 O 0.77981 0.70591 0.87565 0.0
O665 O 0.74566 0.68716 0.87969 0.0
O666 O 0.72969 0.70492 0.85057 0.0
O667 O 0.75562 0.73699 0.85664 0.0
O668 O 0.69494 0.65336 0.86284 0.0
O669 O 0.73869 0.65435 0.86056 0.0
O670 O 0.67343 0.69618 0.86803 0.0
O671 O 0.69703 0.72975 0.86415 0.0
H672 H 0.70261 0.78234 0.86926 0.0
H673 H 0.66393 0.80926 0.87438 0.0
H674 H 0.70979 0.83962 0.89893 0.0
H675 H 0.74857 0.81261 0.89376 0.0
H676 H 0.75603 0.61785 0.84879 0.0
H677 H 0.75539 0.57321 0.8413 0.0
H678 H 0.67282 0.56303 0.85056 0.0
H679 H 0.67331 0.60773 0.85786 0.0
Ho680 Ho 0.57917 0.48411 0.12668 0.0
Ho681 Ho 0.61355 0.46138 0.12082 0.0
C682 C 0.5991 0.44045 0.14099 0.0
C683 C 0.53193 0.49821 0.13274 0.0
C684 C 0.50748 0.4819 0.13186 0.0
C685 C 0.50503 0.46372 0.12398 0.0
C686 C 0.48643 0.44282 0.12438 0.0
C687 C 0.47011 0.43968 0.13269 0.0
C688 C 0.47096 0.45932 0.14016 0.0
C689 C 0.4896 0.48026 0.13975 0.0
C690 C 0.62196 0.51441 0.13595 0.0
C691 C 0.57841 0.48846 0.10321 0.0
C692 C 0.65855 0.4595 0.11145 0.0
C693 C 0.66599 0.45197 0.10135 0.0
C694 C 0.65459 0.46487 0.09317 0.0
C695 C 0.6609 0.45619 0.08369 0.0
C696 C 0.67846 0.43435 0.08225 0.0
C697 C 0.68981 0.42154 0.09042 0.0
C698 C 0.68371 0.43034 0.09988 0.0
C699 C 0.5807 0.41682 0.1211 0.0
O700 O 0.5768 0.45144 0.1379 0.0
O701 O 0.62086 0.44508 0.13586 0.0
O702 O 0.55016 0.48801 0.13848 0.0
O703 O 0.54221 0.50656 0.12453 0.0
O704 O 0.60092 0.52372 0.13147 0.0
O705 O 0.6207 0.48896 0.13424 0.0
O706 O 0.59462 0.46824 0.10523 0.0
O707 O 0.57131 0.50176 0.11112 0.0
O708 O 0.64958 0.43975 0.11681 0.0
O709 O 0.64474 0.4818 0.11266 0.0
O710 O 0.60659 0.41719 0.12231 0.0
O711 O 0.57244 0.44155 0.11931 0.0
H712 H 0.51883 0.46443 0.11783 0.0
H713 H 0.48604 0.42813 0.1185 0.0
H714 H 0.45889 0.45725 0.14672 0.0
H715 H 0.49146 0.49384 0.14594 0.0
H716 H 0.6407 0.4815 0.09408 0.0
H717 H 0.65195 0.46642 0.07749 0.0
H718 H 0.70384 0.40501 0.0895 0.0
H719 H 0.6927 0.4201 0.10607 0.0
Ho720 Ho 0.82251 0.33009 0.37203 0.0
Ho721 Ho 0.84208 0.36702 0.36563 0.0
C722 C 0.86026 0.35379 0.38665 0.0
C723 C 0.80508 0.28215 0.3759 0.0
C724 C 0.81935 0.25651 0.37493 0.0
C725 C 0.84292 0.25511 0.36925 0.0
C726 C 0.8612 0.23408 0.3706 0.0
C727 C 0.85622 0.21432 0.37771 0.0
C728 C 0.8313 0.2145 0.38267 0.0
C729 C 0.81305 0.2355 0.3813 0.0
C730 C 0.79452 0.37159 0.3828 0.0
C731 C 0.81517 0.33091 0.34833 0.0
C732 C 0.85032 0.41423 0.35817 0.0
C733 C 0.87046 0.42894 0.35235 0.0
C734 C 0.8638 0.43724 0.34285 0.0
C735 C 0.88058 0.4548 0.33778 0.0
C736 C 0.90432 0.46457 0.34214 0.0
C737 C 0.91166 0.45529 0.35147 0.0
C738 C 0.8949 0.43756 0.35653 0.0
C739 C 0.88892 0.33539 0.36649 0.0
O740 O 0.85601 0.33004 0.38291 0.0
O741 O 0.8517 0.37418 0.38149 0.0
O742 O 0.81555 0.2981 0.3824 0.0
O743 O 0.79948 0.29476 0.36781 0.0
O744 O 0.80373 0.34895 0.38589 0.0
O745 O 0.80044 0.37133 0.37341 0.0
O746 O 0.83363 0.34945 0.34997 0.0
O747 O 0.80411 0.32194 0.35649 0.0
O748 O 0.85714 0.40744 0.36701 0.0
O749 O 0.83638 0.39556 0.35377 0.0
O750 O 0.88708 0.36115 0.36746 0.0
O751 O 0.8647 0.32635 0.36482 0.0
H752 H 0.84822 0.27134 0.36434 0.0
H753 H 0.88003 0.23434 0.36659 0.0
H754 H 0.82689 0.19985 0.3883 0.0
H755 H 0.79512 0.23649 0.38582 0.0
H756 H 0.84496 0.43118 0.33951 0.0
H757 H 0.87405 0.46201 0.33069 0.0
H758 H 0.92985 0.46246 0.35498 0.0
H759 H 0.90059 0.43156 0.36387 0.0
Ho760 Ho 0.96499 0.56633 0.62707 0.0
Ho761 Ho 0.9303 0.5891 0.62119 0.0
C762 C 0.94262 0.60532 0.6424 0.0
C763 C 1.01172 0.55054 0.63335 0.0
C764 C 0.03792 0.56399 0.63307 0.0
C765 C 0.03913 0.59203 0.63216 0.0
C766 C 0.06392 0.60507 0.63203 0.0
C767 C 0.08803 0.59029 0.63271 0.0
C768 C 0.0867 0.56203 0.63317 0.0
C769 C 0.06178 0.54898 0.63336 0.0
C770 C 0.92171 0.53496 0.63558 0.0
C771 C 0.96617 0.5622 0.60361 0.0
C772 C 0.88535 0.59227 0.61186 0.0
C773 C 0.87828 0.60182 0.60206 0.0
C774 C 0.85388 0.59408 0.5978 0.0
C775 C 0.84602 0.60493 0.58882 0.0
C776 C 0.86238 0.62388 0.58402 0.0
C777 C 0.88737 0.63073 0.58815 0.0
C778 C 0.89528 0.61972 0.59709 0.0
C779 C 0.96301 0.6338 0.62177 0.0
O780 O 0.96589 0.59696 0.63917 0.0
O781 O 0.92183 0.60079 0.63675 0.0
O782 O 0.99361 0.56171 0.63893 0.0
O783 O 1.00202 0.54404 0.62483 0.0
O784 O 0.94293 0.52613 0.63105 0.0
O785 O 0.92302 0.56045 0.6342 0.0
O786 O 0.94922 0.58185 0.60562 0.0
O787 O 0.97377 0.54925 0.61149 0.0
O788 O 0.89406 0.6109 0.61784 0.0
O789 O 0.89967 0.57012 0.61223 0.0
O790 O 0.93718 0.63315 0.62309 0.0
O791 O 0.97143 0.60912 0.61996 0.0
H792 H 1.02086 0.60392 0.63176 0.0
H793 H 0.06404 0.62684 0.63186 0.0
H794 H 0.10489 0.55005 0.6336 0.0
H795 H 0.06113 0.52726 0.63387 0.0
H796 H 0.84068 0.58009 0.60151 0.0
H797 H 0.82694 0.59877 0.58571 0.0
H798 H 0.90035 0.64536 0.58468 0.0
H799 H 0.91431 0.62582 0.60028 0.0
Ho800 Ho 0.73211 0.33028 0.7263 0.0
Ho801 Ho 0.71181 0.36425 0.7328 0.0
C802 C 0.69716 0.35872 0.71137 0.0
C803 C 0.74969 0.28192 0.72279 0.0
C804 C 0.73718 0.25549 0.72388 0.0
C805 C 0.71366 0.25263 0.72948 0.0
C806 C 0.69756 0.22983 0.72835 0.0
C807 C 0.70465 0.20981 0.72151 0.0
C808 C 0.72962 0.21168 0.71666 0.0
C809 C 0.74572 0.2344 0.71783 0.0
C810 C 0.76045 0.37003 0.71521 0.0
C811 C 0.73881 0.32909 0.74967 0.0
C812 C 0.70844 0.40489 0.74451 0.0
C813 C 0.70421 0.40491 0.75521 0.0
C814 C 0.72578 0.41212 0.7613 0.0
C815 C 0.72455 0.40747 0.77135 0.0
C816 C 0.70148 0.39602 0.77555 0.0
C817 C 0.67939 0.38978 0.76955 0.0
C818 C 0.68084 0.39389 0.75942 0.0
C819 C 0.6652 0.33388 0.73057 0.0
O820 O 0.70137 0.33412 0.71436 0.0
O821 O 0.70347 0.3779 0.71752 0.0
O822 O 0.73819 0.29707 0.71629 0.0
O823 O 0.75495 0.29511 0.7308 0.0
O824 O 0.75428 0.34584 0.71272 0.0
O825 O 0.75208 0.37226 0.72432 0.0
O826 O 0.71643 0.34194 0.7477 0.0
O827 O 0.7533 0.3257 0.74165 0.0
O828 O 0.68847 0.3973 0.73893 0.0
O829 O 0.73122 0.39409 0.74181 0.0
O830 O 0.66763 0.35965 0.7293 0.0
O831 O 0.68905 0.32421 0.73272 0.0
H832 H 0.70672 0.26887 0.73417 0.0
H833 H 0.67859 0.22887 0.73226 0.0
H834 H 0.73558 0.19693 0.71121 0.0
H835 H 0.7637 0.23645 0.71339 0.0
H836 H 0.74408 0.42046 0.75824 0.0
H837 H 0.7416 0.41304 0.77586 0.0
H838 H 0.66128 0.38123 0.77268 0.0
H839 H 0.664 0.38776 0.7549 0.0
Ho840 Ho 0.97927 0.50088 0.97213 0.0
Ho841 Ho 0.94414 0.4789 0.97695 0.0
C842 C 0.96633 0.4615 0.95682 0.0
C843 C 1.02626 0.52277 0.97033 0.0
C844 C 0.0523 0.50947 0.97161 0.0
C845 C 0.05349 0.48561 0.9771 0.0
C846 C 0.07396 0.46697 0.97538 0.0
C847 C 0.09327 0.47198 0.96812 0.0
C848 C 0.09415 0.49747 0.96368 0.0
C849 C 0.07361 0.51609 0.96537 0.0
C850 C 0.93884 0.52694 0.96023 0.0
C851 C 0.97663 0.50458 0.99537 0.0
C852 C 0.89645 0.4703 0.98402 0.0
C853 C 0.88297 0.45388 0.99155 0.0
C854 C 0.87588 0.46568 1.00055 0.0
C855 C 0.86062 0.45148 1.00734 0.0
C856 C 0.85195 0.42516 1.00529 0.0
C857 C 0.85953 0.41306 0.99639 0.0
C858 C 0.87491 0.42729 0.98957 0.0
C859 C 0.9757 0.43287 0.97655 0.0
O860 O 0.98774 0.46789 0.96173 0.0
O861 O 0.94326 0.46883 0.96071 0.0
O862 O 1.01249 0.51339 0.96298 0.0
O863 O 1.01151 0.52534 0.97816 0.0
O864 O 0.9629 0.51971 0.95784 0.0
O865 O 0.93702 0.51994 0.96943 0.0
O866 O 0.96176 0.48361 0.99292 0.0
O867 O 0.98279 0.51922 0.98772 0.0
O868 O 0.90611 0.45787 0.97638 0.0
O869 O 0.91231 0.48944 0.9871 0.0
O870 O 0.95023 0.43463 0.97468 0.0
O871 O 0.98467 0.45715 0.97855 0.0
H872 H 0.03708 0.48005 0.98192 0.0
H873 H 0.07281 0.4475 0.97889 0.0
H874 H 0.10914 0.50188 0.95814 0.0
H875 H 0.07292 0.53434 0.96106 0.0
H876 H 0.8814 0.48626 1.00222 0.0
H877 H 0.85462 0.46162 1.01404 0.0
H878 H 0.85318 0.39278 0.99462 0.0
H879 H 0.87985 0.4177 0.98266 0.0
Ho880 Ho 0.81057 0.7178 0.22713 0.0
Ho881 Ho 0.834 0.68528 0.23282 0.0
C882 C 0.85104 0.69812 0.21189 0.0
C883 C 0.79356 0.76368 0.22059 0.0
C884 C 0.80796 0.78848 0.21824 0.0
C885 C 0.83206 0.79493 0.2231 0.0
C886 C 0.84823 0.8158 0.21968 0.0
C887 C 0.84066 0.83009 0.21128 0.0
C888 C 0.8159 0.82449 0.20674 0.0
C889 C 0.7996 0.80383 0.21022 0.0
C890 C 0.78035 0.6745 0.21821 0.0
C891 C 0.80585 0.7199 0.25038 0.0
C892 C 0.8367 0.64212 0.24305 0.0
C893 C 0.84539 0.63799 0.2533 0.0
C894 C 0.82804 0.64377 0.2612 0.0
C895 C 0.83729 0.64194 0.27084 0.0
C896 C 0.86406 0.63453 0.27275 0.0
C897 C 0.88131 0.62855 0.26489 0.0
C898 C 0.87202 0.63007 0.25527 0.0
C899 C 0.87893 0.71726 0.23219 0.0
O900 O 0.84129 0.72068 0.21524 0.0
O901 O 0.84764 0.67689 0.2174 0.0
O902 O 0.79947 0.74337 0.21497 0.0
O903 O 0.7929 0.757 0.2298 0.0
O904 O 0.77097 0.69543 0.22277 0.0
O905 O 0.80586 0.67582 0.2198 0.0
O906 O 0.82748 0.70569 0.24825 0.0
O907 O 0.79145 0.72471 0.24253 0.0
O908 O 0.85568 0.64957 0.237 0.0
O909 O 0.81412 0.65542 0.24174 0.0
O910 O 0.87828 0.69131 0.23132 0.0
O911 O 0.85417 0.72623 0.23357 0.0
H912 H 0.83904 0.783 0.22923 0.0
H913 H 0.86742 0.81959 0.2232 0.0
H914 H 0.80976 0.83535 0.20024 0.0
H915 H 0.7812 0.79892 0.20635 0.0
H916 H 0.80742 0.65 0.25995 0.0
H917 H 0.82359 0.64646 0.27681 0.0
H918 H 0.90187 0.62214 0.26619 0.0
H919 H 0.88584 0.62536 0.24935 0.0
Ho920 Ho 0.5882 0.56867 0.47217 0.0
Ho921 Ho 0.62466 0.58869 0.47792 0.0
C922 C 0.61077 0.60662 0.45706 0.0
C923 C 0.54009 0.55382 0.46753 0.0
C924 C 0.52337 0.56893 0.46048 0.0
C925 C 0.50625 0.58933 0.464 0.0
C926 C 0.49938 0.61093 0.45801 0.0
C927 C 0.50907 0.6122 0.44835 0.0
C928 C 0.52303 0.59004 0.44445 0.0
C929 C 0.53009 0.56854 0.45046 0.0
C930 C 0.62864 0.54158 0.46067 0.0
C931 C 0.59004 0.56113 0.49534 0.0
C932 C 0.67088 0.59695 0.48625 0.0
C933 C 0.68284 0.61704 0.49294 0.0
C934 C 0.68528 0.61135 0.50296 0.0
C935 C 0.69883 0.62905 0.50917 0.0
C936 C 0.7104 0.65275 0.50548 0.0
C937 C 0.70721 0.6589 0.49552 0.0
C938 C 0.69357 0.64121 0.4893 0.0
C939 C 0.59435 0.63603 0.4765 0.0
O940 O 0.58736 0.60074 0.46077 0.0
O941 O 0.63182 0.59896 0.46209 0.0
O942 O 0.56148 0.54229 0.46399 0.0
O943 O 0.54561 0.56668 0.4756 0.0
O944 O 0.60579 0.55134 0.45784 0.0
O945 O 0.62952 0.54731 0.47009 0.0
O946 O 0.60489 0.58246 0.49341 0.0
O947 O 0.58439 0.54736 0.48732 0.0
O948 O 0.6648 0.60512 0.47749 0.0
O949 O 0.65257 0.58099 0.48983 0.0
O950 O 0.61998 0.63331 0.47526 0.0
O951 O 0.58477 0.61226 0.4786 0.0
H952 H 0.50038 0.58999 0.47165 0.0
H953 H 0.48764 0.62729 0.46109 0.0
H954 H 0.53047 0.59028 0.43698 0.0
H955 H 0.54302 0.55299 0.44745 0.0
H956 H 0.67747 0.59278 0.50596 0.0
H957 H 0.70142 0.62344 0.51678 0.0
H958 H 0.71588 0.67703 0.49248 0.0
H959 H 0.69213 0.64616 0.48159 0.0
Ho960 Ho 0.34251 0.36498 0.22479 0.0
Ho961 Ho 0.31911 0.33111 0.22021 0.0
C962 C 0.31626 0.33193 0.24355 0.0
C963 C 0.33975 0.41375 0.23117 0.0
C964 C 0.33514 0.42646 0.24068 0.0
C965 C 0.32092 0.45074 0.24089 0.0
C966 C 0.30995 0.4601 0.24964 0.0
C967 C 0.31286 0.44514 0.2583 0.0
C968 C 0.32858 0.42162 0.25819 0.0
C969 C 0.33973 0.41236 0.24941 0.0
C970 C 0.38707 0.33346 0.22633 0.0
C971 C 0.36478 0.3409 0.20566 0.0
C972 C 0.29825 0.28597 0.21459 0.0
C973 C 0.30813 0.25865 0.21636 0.0
C974 C 0.32375 0.25315 0.22471 0.0
C975 C 0.33799 0.22903 0.22542 0.0
C976 C 0.33709 0.21022 0.21773 0.0
C977 C 0.31993 0.21513 0.20969 0.0
C978 C 0.30557 0.23917 0.20902 0.0
C979 C 0.29178 0.37496 0.21017 0.0
O980 O 0.33361 0.35088 0.24108 0.0
O981 O 0.30484 0.32104 0.2359 0.0
O982 O 0.36262 0.40119 0.2298 0.0
O983 O 0.31896 0.40007 0.22806 0.0
O984 O 0.38672 0.35919 0.22464 0.0
O985 O 0.36215 0.32441 0.22746 0.0
O986 O 0.35129 0.32117 0.2095 0.0
O987 O 0.36239 0.3646 0.20987 0.0
O988 O 0.31371 0.30049 0.20904 0.0
O989 O 0.29018 0.29913 0.22231 0.0
O990 O 0.28147 0.3581 0.21636 0.0
O991 O 0.31696 0.36947 0.21084 0.0
H992 H 0.31706 0.46173 0.23419 0.0
H993 H 0.29862 0.47873 0.24958 0.0
H994 H 0.33129 0.40983 0.26478 0.0
H995 H 0.3508 0.3936 0.24938 0.0
H996 H 0.32621 0.26812 0.23043 0.0
H997 H 0.35085 0.22579 0.23171 0.0
H998 H 0.31914 0.20139 0.20352 0.0
H999 H 0.29388 0.24325 0.20249 0.0
Ho1000 Ho 0.43856 0.58511 0.98195 0.0
Ho1001 Ho 0.47471 0.5644 0.97641 0.0
C1002 C 0.47223 0.5578 0.9997 0.0
C1003 C 0.39183 0.59565 0.98949 0.0
C1004 C 0.38083 0.61757 0.99556 0.0
C1005 C 0.39163 0.62371 1.00481 0.0
C1006 C 0.38042 0.64428 1.01048 0.0
C1007 C 0.35836 0.65922 1.00698 0.0
C1008 C 0.34829 0.65368 0.99757 0.0
C1009 C 0.35935 0.63296 0.99194 0.0
C1010 C 0.46931 0.63197 0.98097 0.0
C1011 C 0.45479 0.60174 0.96115 0.0
C1012 C 0.5232 0.54683 0.9734 0.0
C1013 C 0.54833 0.56218 0.97257 0.0
C1014 C 0.55285 0.58494 0.97849 0.0
C1015 C 0.57346 0.60296 0.9762 0.0
C1016 C 0.58959 0.59881 0.96785 0.0
C1017 C 0.58586 0.57513 0.9623 0.0
C1018 C 0.56554 0.55698 0.96467 0.0
C1019 C 0.43408 0.5362 0.96531 0.0
O1020 O 0.45684 0.57871 0.99766 0.0
O1021 O 0.47882 0.5442 0.99175 0.0
O1022 O 0.39883 0.60248 0.98067 0.0
O1023 O 0.4092 0.57938 0.99352 0.0
O1024 O 0.44375 0.62959 0.97957 0.0
O1025 O 0.47891 0.60798 0.98281 0.0
O1026 O 0.47775 0.59704 0.96539 0.0
O1027 O 0.43338 0.59368 0.96588 0.0
O1028 O 0.50604 0.55136 0.96643 0.0
O1029 O 0.51163 0.54655 0.98195 0.0
O1030 O 0.4576 0.54405 0.96254 0.0
O1031 O 0.43302 0.54339 0.97456 0.0
H1032 H 0.40839 0.61234 1.00775 0.0
H1033 H 0.38832 0.64766 1.01778 0.0
H1034 H 0.33145 0.66496 0.99464 0.0
H1035 H 0.35092 0.62874 0.98477 0.0
H1036 H 0.5396 0.58959 0.98457 0.0
H1037 H 0.57596 0.62069 0.98074 0.0
H1038 H 0.59738 0.57136 0.9557 0.0
H1039 H 0.56211 0.53979 0.95993 0.0
Ho1040 Ho 0.22172 0.68761 0.72716 0.0
Ho1041 Ho 0.24097 0.72469 0.72105 0.0
C1042 C 0.24688 0.72436 0.74457 0.0
C1043 C 0.21472 0.6414 0.73556 0.0
C1044 C 0.19836 0.63084 0.74364 0.0
C1045 C 0.19335 0.64614 0.75213 0.0
C1046 C 0.17828 0.63528 0.75981 0.0
C1047 C 0.16779 0.60911 0.75907 0.0
C1048 C 0.17221 0.59422 0.75044 0.0
C1049 C 0.18742 0.605 0.74281 0.0
C1050 C 0.1746 0.71834 0.72625 0.0
C1051 C 0.20424 0.70075 0.70608 0.0
C1052 C 0.25762 0.77335 0.71818 0.0
C1053 C 0.24381 0.79804 0.72124 0.0
C1054 C 0.22266 0.79614 0.72806 0.0
C1055 C 0.20247 0.81567 0.72828 0.0
C1056 C 0.20343 0.83734 0.72176 0.0
C1057 C 0.22649 0.8411 0.71595 0.0
C1058 C 0.24654 0.82136 0.71563 0.0
C1059 C 0.26936 0.68426 0.70988 0.0
O1060 O 0.22748 0.70697 0.74274 0.0
O1061 O 0.25943 0.73194 0.73655 0.0
O1062 O 0.20145 0.64915 0.72787 0.0
O1063 O 0.23404 0.65799 0.73786 0.0
O1064 O 0.1772 0.69292 0.72451 0.0
O1065 O 0.19853 0.72766 0.72839 0.0
O1066 O 0.20836 0.72443 0.70989 0.0
O1067 O 0.21265 0.68014 0.7112 0.0
O1068 O 0.24426 0.75956 0.71171 0.0
O1069 O 0.26681 0.75812 0.72516 0.0
O1070 O 0.26029 0.70719 0.70701 0.0
O1071 O 0.26318 0.68371 0.71923 0.0
H1072 H 0.2013 0.6663 0.75288 0.0
H1073 H 0.17501 0.64726 0.76635 0.0
H1074 H 0.1647 0.57387 0.74973 0.0
H1075 H 0.19097 0.59299 0.73629 0.0
H1076 H 0.22015 0.77819 0.73244 0.0
H1077 H 0.18482 0.81244 0.73279 0.0
H1078 H 0.22744 0.85756 0.71077 0.0
H1079 H 0.26256 0.82301 0.71027 0.0
Ho1080 Ho 0.10829 0.46689 0.48286 0.0
Ho1081 Ho 0.07432 0.48904 0.47673 0.0
C1082 C 0.07267 0.49406 0.50016 0.0
C1083 C 0.15234 0.46497 0.49276 0.0
C1084 C 0.15884 0.45509 0.50265 0.0
C1085 C 0.14681 0.46607 0.51112 0.0
C1086 C 0.15167 0.4546 0.5203 0.0
C1087 C 0.16825 0.43181 0.5211 0.0
C1088 C 0.18042 0.42109 0.51266 0.0
C1089 C 0.17588 0.43272 0.50354 0.0
C1090 C 0.07655 0.42157 0.48235 0.0
C1091 C 0.09672 0.447 0.46225 0.0
C1092 C 0.02741 0.50396 0.47035 0.0
C1093 C 1.00194 0.48931 0.46955 0.0
C1094 C 1.0019 0.46112 0.46961 0.0
C1095 C 0.9779 0.44705 0.46841 0.0
C1096 C 0.9534 0.46093 0.46722 0.0
C1097 C 0.95341 0.48923 0.46772 0.0
C1098 C 0.97756 0.50331 0.46885 0.0
C1099 C 0.11704 0.5203 0.46795 0.0
O1100 O 0.08802 0.47317 0.49819 0.0
O1101 O 0.06685 0.50776 0.49222 0.0
O1102 O 0.14495 0.44626 0.4866 0.0
O1103 O 0.13766 0.48687 0.49208 0.0
O1104 O 0.10252 0.42255 0.48154 0.0
O1105 O 0.06733 0.44618 0.48367 0.0
O1106 O 0.07371 0.4571 0.46508 0.0
O1107 O 0.11757 0.45174 0.46783 0.0
O1108 O 0.04675 0.49555 0.46468 0.0
O1109 O 0.03568 0.50817 0.47926 0.0
O1110 O 0.09531 0.52909 0.47215 0.0
O1111 O 0.11642 0.49486 0.46968 0.0
H1112 H 0.13345 0.48326 0.51066 0.0
H1113 H 0.14231 0.46334 0.52675 0.0
H1114 H 0.19385 0.40394 0.51314 0.0
H1115 H 0.18539 0.42393 0.49713 0.0
H1116 H 1.02055 0.44996 0.47031 0.0
H1117 H 0.97883 0.42533 0.4679 0.0
H1118 H 0.93486 0.50051 0.46696 0.0
H1119 H 0.97725 0.5251 0.46898 0.0
Ho1120 Ho 0.32862 0.69185 0.3721 0.0
Ho1121 Ho 0.30655 0.72326 0.3763 0.0
C1122 C 0.30249 0.72265 0.35341 0.0
C1123 C 0.32055 0.64554 0.3643 0.0
C1124 C 0.31716 0.6345 0.3544 0.0
C1125 C 0.2984 0.64582 0.34788 0.0
C1126 C 0.29195 0.63259 0.33919 0.0
C1127 C 0.30452 0.60819 0.33684 0.0
C1128 C 0.32457 0.59779 0.34301 0.0
C1129 C 0.33073 0.61081 0.3518 0.0
C1130 C 0.37474 0.72056 0.37037 0.0
C1131 C 0.35276 0.71367 0.3907 0.0
C1132 C 0.28806 0.76987 0.38149 0.0
C1133 C 0.30292 0.79525 0.38209 0.0
C1134 C 0.32381 0.80041 0.37539 0.0
C1135 C 0.34271 0.82038 0.37735 0.0
C1136 C 0.34111 0.83518 0.38609 0.0
C1137 C 0.319 0.83152 0.39238 0.0
C1138 C 0.29997 0.81165 0.39038 0.0
C1139 C 0.27894 0.68136 0.38718 0.0
O1140 O 0.3246 0.71015 0.35617 0.0
O1141 O 0.28685 0.72685 0.36094 0.0
O1142 O 0.34462 0.65387 0.36678 0.0
O1143 O 0.30114 0.66153 0.36727 0.0
O1144 O 0.37326 0.69491 0.37229 0.0
O1145 O 0.3502 0.73074 0.36929 0.0
O1146 O 0.34001 0.73354 0.38659 0.0
O1147 O 0.34873 0.68985 0.38684 0.0
O1148 O 0.29588 0.75176 0.38771 0.0
O1149 O 0.28501 0.75988 0.37274 0.0
O1150 O 0.26854 0.69787 0.38086 0.0
O1151 O 0.3042 0.6862 0.38631 0.0
H1152 H 0.28779 0.66425 0.34966 0.0
H1153 H 0.27658 0.64095 0.33445 0.0
H1154 H 0.3344 0.57888 0.34129 0.0
H1155 H 0.34522 0.60181 0.35674 0.0
H1156 H 0.32676 0.78773 0.369 0.0
H1157 H 0.35976 0.82266 0.37247 0.0
H1158 H 0.31741 0.84286 0.39915 0.0
H1159 H 0.28415 0.80778 0.39566 0.0
Ho1160 Ho 0.12507 0.59479 0.11595 0.0
Ho1161 Ho 0.08809 0.57243 0.12199 0.0
C1162 C 0.08831 0.56776 0.09839 0.0
C1163 C 0.17233 0.6006 0.1083 0.0
C1164 C 0.18441 0.61285 0.09964 0.0
C1165 C 0.2124 0.61198 0.09859 0.0
C1166 C 0.22501 0.62755 0.09148 0.0
C1167 C 0.20977 0.64431 0.08532 0.0
C1168 C 0.18154 0.64422 0.0861 0.0
C1169 C 0.16892 0.62864 0.09326 0.0
C1170 C 0.09193 0.63964 0.11654 0.0
C1171 C 0.11114 0.61068 0.13719 0.0
C1172 C 0.04148 0.55799 0.12871 0.0
C1173 C 1.01577 0.57239 0.1293 0.0
C1174 C 1.01536 0.60058 0.12955 0.0
C1175 C 0.99114 0.61431 0.13081 0.0
C1176 C 0.96675 0.60012 0.13169 0.0
C1177 C 0.96714 0.57189 0.13075 0.0
C1178 C 0.99152 0.55813 0.12963 0.0
C1179 C 0.13124 0.53954 0.12991 0.0
O1180 O 0.10828 0.58459 0.10023 0.0
O1181 O 0.07759 0.55748 0.10633 0.0
O1182 O 0.16129 0.61775 0.11431 0.0
O1183 O 0.15779 0.57892 0.10704 0.0
O1184 O 0.11767 0.63883 0.11787 0.0
O1185 O 0.0837 0.61505 0.11461 0.0
O1186 O 0.0877 0.60352 0.13383 0.0
O1187 O 0.1321 0.60484 0.13177 0.0
O1188 O 0.06072 0.56747 0.13418 0.0
O1189 O 0.04975 0.55243 0.11989 0.0
O1190 O 0.10922 0.53157 0.1257 0.0
O1191 O 0.13048 0.56512 0.12866 0.0
H1192 H 0.2246 0.60004 0.10353 0.0
H1193 H 0.24675 0.62676 0.09088 0.0
H1194 H 0.16933 0.65694 0.08144 0.0
H1195 H 0.14724 0.62974 0.09409 0.0
H1196 H 0.03389 0.61198 0.12911 0.0
H1197 H 0.99184 0.63597 0.13163 0.0
H1198 H 0.94871 0.56037 0.13121 0.0
H1199 H 0.9915 0.53637 0.12923 0.0
Ho1200 Ho 0.21402 0.36725 0.87138 0.0
Ho1201 Ho 0.23449 0.33055 0.87681 0.0
C1202 C 0.2388 0.3325 0.85335 0.0
C1203 C 0.20719 0.41404 0.86341 0.0
C1204 C 0.19317 0.4256 0.85492 0.0
C1205 C 0.20741 0.44299 0.84876 0.0
C1206 C 0.19487 0.45441 0.84064 0.0
C1207 C 0.16776 0.44875 0.83855 0.0
C1208 C 0.15338 0.43144 0.84475 0.0
C1209 C 0.16605 0.41978 0.85286 0.0
C1210 C 0.16731 0.33634 0.87236 0.0
C1211 C 0.19835 0.3515 0.89235 0.0
C1212 C 0.25345 0.28233 0.879 0.0
C1213 C 0.24125 0.25652 0.87635 0.0
C1214 C 0.21336 0.25511 0.87492 0.0
C1215 C 0.20074 0.2303 0.87398 0.0
C1216 C 0.21582 0.20631 0.87435 0.0
C1217 C 0.24415 0.20806 0.87475 0.0
C1218 C 0.25677 0.23304 0.87585 0.0
C1219 C 0.26295 0.37024 0.88826 0.0
O1220 O 0.21879 0.34893 0.85556 0.0
O1221 O 0.2524 0.3251 0.86115 0.0
O1222 O 0.19242 0.40498 0.87055 0.0
O1223 O 0.2275 0.39827 0.86142 0.0
O1224 O 0.16972 0.36173 0.87425 0.0
O1225 O 0.19126 0.32711 0.87004 0.0
O1226 O 0.20221 0.32846 0.88802 0.0
O1227 O 0.20643 0.37281 0.88755 0.0
O1228 O 0.24084 0.29553 0.88584 0.0
O1229 O 0.25993 0.29776 0.8717 0.0
O1230 O 0.25518 0.34657 0.89079 0.0
O1231 O 0.25558 0.37195 0.87906 0.0
H1232 H 0.22829 0.4478 0.85025 0.0
H1233 H 0.20632 0.46801 0.83607 0.0
H1234 H 0.1325 0.42669 0.84326 0.0
H1235 H 0.15467 0.40627 0.85749 0.0
H1236 H 0.2011 0.27315 0.87515 0.0
H1237 H 0.17895 0.2301 0.8738 0.0
H1238 H 0.25648 0.19009 0.8748 0.0
H1239 H 0.27842 0.2339 0.87674 0.0
Ho1240 Ho 0.44583 0.46742 0.6161 0.0
Ho1241 Ho 0.48176 0.48728 0.62226 0.0
C1242 C 0.48112 0.49339 0.59868 0.0
C1243 C 0.39918 0.46025 0.608 0.0
C1244 C 0.38604 0.4422 0.60091 0.0
C1245 C 0.374 0.45341 0.59259 0.0
C1246 C 0.35873 0.43747 0.5863 0.0
C1247 C 0.35506 0.40995 0.58823 0.0
C1248 C 0.36783 0.39848 0.5964 0.0
C1249 C 0.38331 0.41446 0.60268 0.0
C1250 C 0.47686 0.42045 0.61678 0.0
C1251 C 0.45995 0.44759 0.63672 0.0
C1252 C 0.5295 0.50647 0.62569 0.0
C1253 C 0.55605 0.49368 0.62525 0.0
C1254 C 0.55793 0.4656 0.62463 0.0
C1255 C 0.58262 0.45283 0.62602 0.0
C1256 C 0.60595 0.46797 0.62798 0.0
C1257 C 0.6043 0.49625 0.62763 0.0
C1258 C 0.57944 0.50902 0.62636 0.0
C1259 C 0.44051 0.51556 0.63313 0.0
O1260 O 0.4647 0.47323 0.60051 0.0
O1261 O 0.488 0.50639 0.60674 0.0
O1262 O 0.4061 0.45002 0.61639 0.0
O1263 O 0.41719 0.47682 0.60459 0.0
O1264 O 0.45114 0.42264 0.61797 0.0
O1265 O 0.48638 0.4446 0.61524 0.0
O1266 O 0.48344 0.45368 0.6331 0.0
O1267 O 0.43898 0.45617 0.63184 0.0
O1268 O 0.51366 0.49704 0.63242 0.0
O1269 O 0.51708 0.50926 0.61738 0.0
O1270 O 0.4634 0.5066 0.63614 0.0
O1271 O 0.44034 0.50894 0.62381 0.0
H1272 H 0.37563 0.47476 0.59114 0.0
H1273 H 0.3487 0.44703 0.58019 0.0
H1274 H 0.36536 0.37733 0.59803 0.0
H1275 H 0.39244 0.40525 0.60905 0.0
H1276 H 0.54 0.45347 0.62369 0.0
H1277 H 0.58286 0.43108 0.62633 0.0
H1278 H 0.62196 0.50853 0.6289 0.0
H1279 H 0.57831 0.53076 0.62672 0.0
H1280 H 0.2239 0.35438 0.40077 0.0
H1281 H 0.18994 0.37359 0.41155 0.0
H1282 H 0.13937 0.39102 0.38668 0.0
H1283 H 0.1738 0.37186 0.37567 0.0
H1284 H 0.14782 0.433 0.40507 0.0
H1285 H 0.11686 0.34391 0.39538 0.0
H1286 H 0.12496 0.29583 0.39164 0.0
H1287 H 0.15366 0.28331 0.42091 0.0
H1288 H 0.147 0.33137 0.42468 0.0
H1289 H 0.05764 0.43729 0.44858 0.0
H1290 H 0.0643 0.41847 0.43207 0.0
H1291 H 0.14828 0.40537 0.43852 0.0
H1292 H 0.14194 0.42391 0.45493 0.0
H1293 H 0.10546 0.36251 0.42566 0.0
H1294 H 0.16783 0.4541 0.42316 0.0
H1295 H 0.16827 0.49861 0.43125 0.0
H1296 H 0.08217 0.50323 0.42896 0.0
H1297 H 0.0813 0.45893 0.42074 0.0
C1298 C 0.20607 0.36317 0.39751 0.0
C1299 C 0.20147 0.36161 0.38736 0.0
C1300 C 0.18656 0.37386 0.4037 0.0
C1301 C 0.16216 0.38323 0.39988 0.0
C1302 C 0.15814 0.38366 0.38972 0.0
C1303 C 0.17771 0.37275 0.38347 0.0
C1304 C 0.14061 0.39054 0.40678 0.0
C1305 C 0.13751 0.41771 0.4093 0.0
C1306 C 0.12791 0.37038 0.41245 0.0
C1307 C 0.13162 0.34132 0.41026 0.0
C1308 C 0.12527 0.33095 0.40095 0.0
C1309 C 0.12956 0.30373 0.39883 0.0
C1310 C 0.13979 0.2866 0.40601 0.0
C1311 C 0.14582 0.29662 0.41533 0.0
C1312 C 0.14183 0.32386 0.41746 0.0
C1313 C 0.07738 0.42987 0.44652 0.0
C1314 C 0.09942 0.4324 0.45294 0.0
C1315 C 0.08105 0.41902 0.43715 0.0
C1316 C 0.10674 0.41073 0.43418 0.0
C1317 C 0.12829 0.41165 0.44078 0.0
C1318 C 0.12468 0.42241 0.45011 0.0
C1319 C 0.11271 0.40477 0.42387 0.0
C1320 C 0.11378 0.37787 0.42092 0.0
C1321 C 0.12378 0.42504 0.41786 0.0
C1322 C 0.12452 0.45331 0.42132 0.0
C1323 C 0.14907 0.46491 0.42419 0.0
C1324 C 0.14937 0.48998 0.42887 0.0
C1325 C 0.12523 0.50359 0.4307 0.0
C1326 C 0.10082 0.49258 0.42758 0.0
C1327 C 0.10042 0.46756 0.42288 0.0
H1328 H 0.1254 0.52261 0.43457 0.0
H1329 H 0.1429 0.26553 0.40435 0.0
H1330 H 0.94534 0.90269 0.62716 0.0
H1331 H 0.93012 0.85935 0.6338 0.0
H1332 H 0.96328 0.88092 0.66201 0.0
H1333 H 0.97914 0.92308 0.65542 0.0
H1334 H 0.97117 0.82798 0.65824 0.0
H1335 H 0.89516 0.89583 0.6558 0.0
H1336 H 0.86482 0.92317 0.64552 0.0
H1337 H 0.84267 0.85276 0.62909 0.0
H1338 H 0.87324 0.82511 0.63922 0.0
H1339 H 0.90074 0.86163 0.69902 0.0
H1340 H 0.92366 0.85396 0.68338 0.0
H1341 H 0.87359 0.78475 0.67785 0.0
H1342 H 0.85112 0.7918 0.69368 0.0
H1343 H 0.8725 0.83011 0.66364 0.0
H1344 H 0.93181 0.76878 0.67799 0.0
H1345 H 0.96124 0.75007 0.69081 0.0
H1346 H 1.01671 0.81523 0.68685 0.0
H1347 H 0.98712 0.83512 0.67445 0.0
C1348 C 0.94947 0.89795 0.63475 0.0
C1349 C 0.96271 0.91659 0.64086 0.0
C1350 C 0.94097 0.87318 0.6385 0.0
C1351 C 0.94568 0.86687 0.64838 0.0
C1352 C 0.95967 0.88516 0.65433 0.0
C1353 C 0.96814 0.90964 0.65062 0.0
C1354 C 0.93316 0.84349 0.65322 0.0
C1355 C 0.94954 0.82775 0.65934 0.0
C1356 C 0.90489 0.84209 0.65423 0.0
C1357 C 0.88655 0.85854 0.64817 0.0
C1358 C 0.88384 0.88626 0.64997 0.0
C1359 C 0.86664 0.90178 0.64418 0.0
C1360 C 0.85181 0.88971 0.63665 0.0
C1361 C 0.8542 0.86208 0.63491 0.0
C1362 C 0.87149 0.84649 0.64066 0.0
C1363 C 0.89498 0.84454 0.69455 0.0
C1364 C 0.87411 0.82747 0.69745 0.0
C1365 C 0.90822 0.83997 0.68569 0.0
C1366 C 0.90045 0.81858 0.67958 0.0
C1367 C 0.88005 0.80107 0.68257 0.0
C1368 C 0.86722 0.80526 0.69156 0.0
C1369 C 0.91088 0.81789 0.66949 0.0
C1370 C 0.89398 0.82853 0.66225 0.0
C1371 C 0.93881 0.81553 0.66773 0.0
C1372 C 0.95714 0.80343 0.67517 0.0
C1373 C 0.95017 0.77928 0.6799 0.0
C1374 C 0.96689 0.76849 0.68714 0.0
C1375 C 0.99092 0.78135 0.68963 0.0
C1376 C 0.99816 0.80518 0.68493 0.0
C1377 C 0.98135 0.81627 0.67779 0.0
H1378 H 1.0039 0.77287 0.6952 0.0
H1379 H 0.83846 0.90175 0.63219 0.0
H1380 H 0.36569 0.73163 0.90407 0.0
H1381 H 0.39994 0.70418 0.91196 0.0
H1382 H 0.41025 0.65825 0.88531 0.0
H1383 H 0.37567 0.68623 0.87726 0.0
H1384 H 0.40162 0.62735 0.90227 0.0
H1385 H 0.45928 0.6935 0.89156 0.0
H1386 H 0.47388 0.73922 0.88743 0.0
H1387 H 0.47873 0.75941 0.91799 0.0
H1388 H 0.46215 0.71447 0.92235 0.0
H1389 H 0.49627 0.61053 0.94836 0.0
H1390 H 0.49261 0.62396 0.93111 0.0
H1391 H 0.40636 0.63042 0.93432 0.0
H1392 H 0.40977 0.61641 0.95134 0.0
H1393 H 0.47372 0.66839 0.92255 0.0
H1394 H 0.37364 0.60984 0.91571 0.0
H1395 H 0.35338 0.5671 0.92096 0.0
H1396 H 0.43203 0.53367 0.92572 0.0
H1397 H 0.45289 0.57609 0.92032 0.0
C1398 C 0.3752 0.71565 0.8999 0.0
C1399 C 0.36788 0.71065 0.89014 0.0
C1400 C 0.39502 0.70027 0.90435 0.0
C1401 C 0.40788 0.67957 0.89914 0.0
C1402 C 0.4007 0.67443 0.88936 0.0
C1403 C 0.38099 0.69021 0.88483 0.0
C1404 C 0.42667 0.66205 0.9045 0.0
C1405 C 0.41789 0.63595 0.90655 0.0
C1406 C 0.44855 0.67318 0.90978 0.0
C1407 C 0.45944 0.70028 0.90729 0.0
C1408 C 0.46318 0.70768 0.89743 0.0
C1409 C 0.47171 0.73359 0.89504 0.0
C1410 C 0.4775 0.75216 0.90244 0.0
C1411 C 0.47437 0.74495 0.91226 0.0
C1412 C 0.46522 0.71925 0.9147 0.0
C1413 C 0.47655 0.61487 0.94535 0.0
C1414 C 0.45322 0.61221 0.95112 0.0
C1415 C 0.47453 0.62239 0.93552 0.0
C1416 C 0.44916 0.62727 0.93137 0.0
C1417 C 0.42605 0.62575 0.93728 0.0
C1418 C 0.42803 0.61804 0.94704 0.0
C1419 C 0.44622 0.63527 0.92101 0.0
C1420 C 0.45833 0.6593 0.91798 0.0
C1421 C 0.42721 0.6224 0.91486 0.0
C1422 C 0.41487 0.59621 0.91757 0.0
C1423 C 0.38669 0.59327 0.91771 0.0
C1424 C 0.37507 0.56913 0.92076 0.0
C1425 C 0.3914 0.54774 0.92368 0.0
C1426 C 0.41941 0.5503 0.92347 0.0
C1427 C 0.43115 0.57439 0.92041 0.0
H1428 H 0.38228 0.52928 0.92616 0.0
H1429 H 0.48436 0.77214 0.90056 0.0
H1430 H 0.66086 0.24095 0.20103 0.0
H1431 H 0.63571 0.24068 0.18547 0.0
H1432 H 0.69397 0.18559 0.17316 0.0
H1433 H 0.71809 0.18456 0.18884 0.0
H1434 H 0.67223 0.23408 0.16049 0.0
H1435 H 0.65009 0.15831 0.18228 0.0
H1436 H 0.63286 0.1397 0.19774 0.0
H1437 H 0.55633 0.17735 0.1927 0.0
H1438 H 0.5735 0.197 0.17731 0.0
H1439 H 0.63513 0.1217 0.13178 0.0
H1440 H 0.65237 0.15956 0.14146 0.0
H1441 H 0.5723 0.19283 0.14331 0.0
H1442 H 0.55517 0.15524 0.13372 0.0
H1443 H 0.59514 0.17081 0.16093 0.0
H1444 H 0.61185 0.23641 0.13753 0.0
H1445 H 0.62714 0.25773 0.12224 0.0
H1446 H 0.7093 0.23996 0.12962 0.0
H1447 H 0.6945 0.21823 0.14491 0.0
C1448 C 0.66822 0.22894 0.19495 0.0
C1449 C 0.69094 0.21238 0.19605 0.0
C1450 C 0.65407 0.22901 0.1861 0.0
C1451 C 0.66322 0.21324 0.17823 0.0
C1452 C 0.68687 0.19802 0.17917 0.0
C1453 C 0.70036 0.19714 0.18811 0.0
C1454 C 0.64657 0.2094 0.16944 0.0
C1455 C 0.65527 0.22036 0.16052 0.0
C1456 C 0.6238 0.19242 0.16966 0.0
C1457 C 0.61353 0.18029 0.17887 0.0
C1458 C 0.62988 0.16338 0.1846 0.0
C1459 C 0.62006 0.15246 0.19332 0.0
C1460 C 0.59365 0.15776 0.19629 0.0
C1461 C 0.57693 0.17371 0.19047 0.0
C1462 C 0.58675 0.18485 0.18178 0.0
C1463 C 0.62154 0.13783 0.13383 0.0
C1464 C 0.59387 0.13571 0.13195 0.0
C1465 C 0.63137 0.15953 0.13929 0.0
C1466 C 0.61354 0.17897 0.14306 0.0
C1467 C 0.58639 0.17826 0.14034 0.0
C1468 C 0.57665 0.1568 0.1348 0.0
C1469 C 0.62164 0.19429 0.15184 0.0
C1470 C 0.61142 0.18534 0.16084 0.0
C1471 C 0.64283 0.21313 0.15166 0.0
C1472 C 0.65201 0.22544 0.14234 0.0
C1473 C 0.63316 0.23674 0.13584 0.0
C1474 C 0.64175 0.24899 0.12719 0.0
C1475 C 0.66917 0.25012 0.12494 0.0
C1476 C 0.68806 0.23904 0.13136 0.0
C1477 C 0.67957 0.22679 0.14004 0.0
H1478 H 0.6758 0.25965 0.11824 0.0
H1479 H 0.58604 0.14922 0.20303 0.0
H1480 H 0.23559 0.66871 0.20653 0.0
H1481 H 0.20732 0.64005 0.19658 0.0
H1482 H 0.13871 0.65991 0.21453 0.0
H1483 H 0.16731 0.68732 0.22511 0.0
H1484 H 0.1512 0.60127 0.198 0.0
H1485 H 0.12287 0.70395 0.20114 0.0
H1486 H 0.14002 0.74908 0.20557 0.0
H1487 H 0.21163 0.73445 0.18869 0.0
H1488 H 0.19471 0.68948 0.1841 0.0
H1489 H 0.07587 0.60531 0.15239 0.0
H1490 H 0.08479 0.61509 0.16975 0.0
H1491 H 0.16276 0.64678 0.16203 0.0
H1492 H 0.15422 0.63668 0.14477 0.0
H1493 H 0.13403 0.67828 0.17572 0.0
H1494 H 0.16047 0.58588 0.16903 0.0
H1495 H 0.15204 0.53917 0.1638 0.0
H1496 H 0.09313 0.53036 0.18659 0.0
H1497 H 0.10087 0.57728 0.19186 0.0
C1498 C 0.21497 0.66573 0.20885 0.0
C1499 C 0.20349 0.68139 0.21639 0.0
C1500 C 0.19877 0.64913 0.20312 0.0
C1501 C 0.17093 0.64842 0.20473 0.0
C1502 C 0.1602 0.66035 0.21318 0.0
C1503 C 0.17655 0.67645 0.21909 0.0
C1504 C 0.15355 0.64416 0.19614 0.0
C1505 C 0.14649 0.61808 0.19325 0.0
C1506 C 0.14819 0.66611 0.18988 0.0
C1507 C 0.15756 0.69356 0.19228 0.0
C1508 C 0.14215 0.71054 0.19833 0.0
C1509 C 0.15183 0.73605 0.20086 0.0
C1510 C 0.1769 0.74459 0.1974 0.0
C1511 C 0.19221 0.72782 0.19134 0.0
C1512 C 0.18255 0.70242 0.18874 0.0
C1513 C 0.09469 0.61482 0.15441 0.0
C1514 C 0.11445 0.62024 0.1473 0.0
C1515 C 0.09977 0.62021 0.16429 0.0
C1516 C 0.12445 0.63144 0.1671 0.0
C1517 C 0.14358 0.63809 0.15995 0.0
C1518 C 0.13871 0.63233 0.15012 0.0
C1519 C 0.13134 0.63533 0.1775 0.0
C1520 C 0.13696 0.6615 0.18068 0.0
C1521 C 0.13558 0.61334 0.1839 0.0
C1522 C 0.13094 0.58519 0.18074 0.0
C1523 C 0.1455 0.57408 0.17286 0.0
C1524 C 0.14091 0.54755 0.1699 0.0
C1525 C 0.12202 0.53181 0.17483 0.0
C1526 C 0.10771 0.54259 0.18276 0.0
C1527 C 0.11217 0.56916 0.18573 0.0
H1528 H 0.11854 0.51126 0.17253 0.0
H1529 H 0.18465 0.7641 0.19945 0.0
H1530 H 0.6988 0.89131 0.4048 0.0
H1531 H 0.68476 0.89286 0.42196 0.0
H1532 H 0.64707 0.81519 0.41886 0.0
H1533 H 0.6611 0.81371 0.40154 0.0
H1534 H 0.61583 0.85646 0.42924 0.0
H1535 H 0.70067 0.81315 0.43067 0.0
H1536 H 0.74788 0.80661 0.42561 0.0
H1537 H 0.76846 0.88387 0.43756 0.0
H1538 H 0.72132 0.89116 0.44249 0.0
H1539 H 0.58728 0.90627 0.47446 0.0
H1540 H 0.60735 0.86837 0.46587 0.0
H1541 H 0.67129 0.91972 0.4556 0.0
H1542 H 0.65273 0.95707 0.4649 0.0
H1543 H 0.68734 0.87032 0.45417 0.0
H1544 H 0.60269 0.9188 0.44495 0.0
H1545 H 0.55539 0.9309 0.44843 0.0
H1546 H 0.53473 0.84724 0.45027 0.0
H1547 H 0.58208 0.83469 0.44698 0.0
C1548 C 0.68723 0.87473 0.40773 0.0
C1549 C 0.68115 0.85223 0.40193 0.0
C1550 C 0.67943 0.87551 0.41754 0.0
C1551 C 0.66534 0.8539 0.42168 0.0
C1552 C 0.6582 0.83189 0.4158 0.0
C1553 C 0.66626 0.83101 0.40598 0.0
C1554 C 0.65834 0.85493 0.4322 0.0
C1555 C 0.63132 0.85857 0.4348 0.0
C1556 C 0.67864 0.85757 0.4394 0.0
C1557 C 0.7074 0.85269 0.43696 0.0
C1558 C 0.71527 0.82876 0.43222 0.0
C1559 C 0.74202 0.82493 0.42935 0.0
C1560 C 0.76116 0.84481 0.43124 0.0
C1561 C 0.75364 0.86846 0.4361 0.0
C1562 C 0.7269 0.87244 0.43895 0.0
C1563 C 0.60643 0.90928 0.47086 0.0
C1564 C 0.61765 0.93518 0.46994 0.0
C1565 C 0.61778 0.88748 0.46584 0.0
C1566 C 0.63989 0.89158 0.45962 0.0
C1567 C 0.65374 0.91615 0.46013 0.0
C1568 C 0.64287 0.93771 0.46536 0.0
C1569 C 0.64495 0.87373 0.45106 0.0
C1570 C 0.67165 0.8668 0.44879 0.0
C1571 C 0.62436 0.86837 0.4441 0.0
C1572 C 0.59585 0.87584 0.44581 0.0
C1573 C 0.58801 0.90302 0.44609 0.0
C1574 C 0.56124 0.90994 0.44805 0.0
C1575 C 0.54207 0.88984 0.44956 0.0
C1576 C 0.54963 0.86277 0.4491 0.0
C1577 C 0.57642 0.85574 0.44722 0.0
H1578 H 0.52136 0.89522 0.45111 0.0
H1579 H 0.78176 0.84192 0.4289 0.0
H1580 H 0.41723 0.41739 0.64206 0.0
H1581 H 0.40823 0.39838 0.65819 0.0
H1582 H 0.48606 0.42489 0.6683 0.0
H1583 H 0.49561 0.44335 0.65195 0.0
H1584 H 0.4594 0.37085 0.67722 0.0
H1585 H 0.44699 0.46782 0.67262 0.0
H1586 H 0.43314 0.5044 0.66179 0.0
H1587 H 0.35314 0.47186 0.66021 0.0
H1588 H 0.3669 0.43448 0.67098 0.0
H1589 H 0.38728 0.36228 0.72291 0.0
H1590 H 0.41912 0.3832 0.71151 0.0
H1591 H 0.35646 0.38836 0.68971 0.0
H1592 H 0.32513 0.36701 0.70072 0.0
H1593 H 0.3878 0.43216 0.68959 0.0
H1594 H 0.39809 0.33415 0.69065 0.0
H1595 H 0.40807 0.29231 0.69959 0.0
H1596 H 0.48682 0.32197 0.70677 0.0
H1597 H 0.47706 0.36426 0.69798 0.0
C1598 C 0.43274 0.41852 0.64763 0.0
C1599 C 0.45685 0.4323 0.64587 0.0
C1600 C 0.42773 0.40735 0.65679 0.0
C1601 C 0.44644 0.41039 0.66442 0.0
C1602 C 0.47152 0.42214 0.66246 0.0
C1603 C 0.47679 0.43292 0.65318 0.0
C1604 C 0.43684 0.40716 0.67461 0.0
C1605 C 0.44432 0.38457 0.6801 0.0
C1606 C 0.41698 0.42491 0.67828 0.0
C1607 C 0.40799 0.44844 0.67256 0.0
C1608 C 0.42647 0.46846 0.66994 0.0
C1609 C 0.41863 0.48927 0.66375 0.0
C1610 C 0.39225 0.49043 0.6602 0.0
C1611 C 0.37358 0.47087 0.66293 0.0
C1612 C 0.38138 0.44989 0.6691 0.0
C1613 C 0.3802 0.3683 0.71574 0.0
C1614 C 0.35363 0.36266 0.71272 0.0
C1615 C 0.39842 0.38025 0.70926 0.0
C1616 C 0.39019 0.3869 0.69974 0.0
C1617 C 0.3632 0.3834 0.69704 0.0
C1618 C 0.34515 0.37135 0.70343 0.0
C1619 C 0.40953 0.39532 0.69213 0.0
C1620 C 0.40382 0.419 0.68703 0.0
C1621 C 0.43051 0.37817 0.68879 0.0
C1622 C 0.43675 0.35244 0.69376 0.0
C1623 C 0.4175 0.33177 0.69416 0.0
C1624 C 0.42311 0.30798 0.6992 0.0
C1625 C 0.44805 0.30449 0.70377 0.0
C1626 C 0.46749 0.32473 0.70325 0.0
C1627 C 0.46193 0.34862 0.69824 0.0
H1628 H 0.45233 0.2861 0.70771 0.0
H1629 H 0.38613 0.50651 0.65541 0.0
H1630 H 0.91135 0.10747 0.97452 0.0
H1631 H 0.884 0.13626 0.96393 0.0
H1632 H 0.95395 0.18439 0.95751 0.0
H1633 H 0.98082 0.1568 0.96834 0.0
H1634 H 0.9111 0.2128 0.9535 0.0
H1635 H 0.94471 0.12423 0.94426 0.0
H1636 H 0.9505 0.07514 0.94597 0.0
H1637 H 0.86462 0.06494 0.94625 0.0
H1638 H 0.85852 0.11402 0.94446 0.0
H1639 H 0.89201 0.17245 0.89791 0.0
H1640 H 0.90869 0.16559 0.91456 0.0
H1641 H 0.85403 0.22672 0.92525 0.0
H1642 H 0.83869 0.2348 0.90848 0.0
H1643 H 0.88284 0.14616 0.92842 0.0
H1644 H 0.87689 0.25031 0.94836 0.0
H1645 H 0.88244 0.29838 0.94447 0.0
H1646 H 0.93135 0.27781 0.9196 0.0
H1647 H 0.92728 0.22972 0.92361 0.0
C1648 C 0.92046 0.12509 0.97126 0.0
C1649 C 0.94831 0.12947 0.97205 0.0
C1650 C 0.90488 0.14147 0.96518 0.0
C1651 C 0.91725 0.16174 0.95961 0.0
C1652 C 0.94401 0.16872 0.96164 0.0
C1653 C 0.95942 0.15279 0.96787 0.0
C1654 C 0.90511 0.17087 0.95027 0.0
C1655 C 0.90471 0.19839 0.948 0.0
C1656 C 0.89755 0.15196 0.94301 0.0
C1657 C 0.90112 0.12264 0.94431 0.0
C1658 C 0.92711 0.11147 0.94472 0.0
C1659 C 0.93045 0.08368 0.94566 0.0
C1660 C 0.90794 0.06693 0.94626 0.0
C1661 C 0.88204 0.07793 0.94582 0.0
C1662 C 0.87862 0.10569 0.94479 0.0
C1663 C 0.88406 0.18478 0.9038 0.0
C1664 C 0.86412 0.20404 0.90198 0.0
C1665 C 0.89344 0.18082 0.91331 0.0
C1666 C 0.8825 0.19552 0.92119 0.0
C1667 C 0.8631 0.21541 0.91931 0.0
C1668 C 0.85428 0.21993 0.90973 0.0
C1669 C 0.88987 0.18822 0.93138 0.0
C1670 C 0.88901 0.1609 0.93386 0.0
C1671 C 0.89799 0.20733 0.93853 0.0
C1672 C 0.9013 0.2363 0.93619 0.0
C1673 C 0.88901 0.25603 0.94211 0.0
C1674 C 0.89204 0.2833 0.93991 0.0
C1675 C 0.90727 0.29114 0.9318 0.0
C1676 C 0.91969 0.27172 0.92591 0.0
C1677 C 0.91706 0.24444 0.92815 0.0
H1678 H 0.90947 0.31225 0.93009 0.0
H1679 H 0.91057 0.04544 0.94704 0.0
H1680 H 0.81781 0.66505 0.70569 0.0
H1681 H 0.84897 0.63337 0.69849 0.0
H1682 H 0.90892 0.65445 0.72003 0.0
H1683 H 0.87698 0.68535 0.72778 0.0
H1684 H 0.92218 0.66993 0.70125 0.0
H1685 H 0.89924 0.58934 0.71649 0.0
H1686 H 0.87093 0.55426 0.72393 0.0
H1687 H 0.83342 0.53922 0.69612 0.0
H1688 H 0.86106 0.57448 0.68851 0.0
H1689 H 0.9816 0.61399 0.65626 0.0
H1690 H 0.97456 0.61983 0.67398 0.0
H1691 H 0.8886 0.61843 0.66948 0.0
H1692 H 0.89533 0.61297 0.65192 0.0
H1693 H 0.9082 0.58246 0.68448 0.0
H1694 H 0.91527 0.67675 0.67319 0.0
H1695 H 0.94061 0.71322 0.66516 0.0
H1696 H 1.00578 0.7023 0.68541 0.0
H1697 H 0.9808 0.66562 0.69356 0.0
C1698 C 0.83694 0.66199 0.70932 0.0
C1699 C 0.84515 0.67857 0.71712 0.0
C1700 C 0.8549 0.64373 0.70515 0.0
C1701 C 0.88142 0.64189 0.70864 0.0
C1702 C 0.88859 0.65576 0.71719 0.0
C1703 C 0.87037 0.67364 0.72153 0.0
C1704 C 0.90226 0.63139 0.7019 0.0
C1705 C 0.92004 0.65031 0.69783 0.0
C1706 C 0.89936 0.60591 0.69742 0.0
C1707 C 0.8824 0.58461 0.70191 0.0
C1708 C 0.88485 0.57868 0.71195 0.0
C1709 C 0.8689 0.55873 0.7162 0.0
C1710 C 0.8504 0.54449 0.71049 0.0
C1711 C 0.8478 0.5502 0.70052 0.0
C1712 C 0.86368 0.57014 0.69623 0.0
C1713 C 0.96123 0.61535 0.65907 0.0
C1714 C 0.93899 0.61304 0.65273 0.0
C1715 C 0.95729 0.61844 0.66916 0.0
C1716 C 0.9311 0.619 0.67299 0.0
C1717 C 0.90897 0.61756 0.66664 0.0
C1718 C 0.91286 0.61478 0.6566 0.0
C1719 C 0.92599 0.62178 0.68358 0.0
C1720 C 0.91144 0.60139 0.68827 0.0
C1721 C 0.93158 0.64596 0.6886 0.0
C1722 C 0.94639 0.66826 0.68388 0.0
C1723 C 0.93508 0.68204 0.67589 0.0
C1724 C 0.94935 0.70272 0.67133 0.0
C1725 C 0.9749 0.70986 0.67473 0.0
C1726 C 0.98608 0.69656 0.68277 0.0
C1727 C 0.97186 0.67588 0.68737 0.0
H1728 H 0.98595 0.72586 0.67118 0.0
H1729 H 0.83808 0.52905 0.71379 0.0
H1730 H 0.13715 0.08938 0.45777 0.0
H1731 H 0.16309 0.12036 0.44789 0.0
H1732 H 0.10887 0.18492 0.45576 0.0
H1733 H 0.08134 0.15337 0.46495 0.0
H1734 H 0.11239 0.18535 0.43774 0.0
H1735 H 0.17994 0.18499 0.4615 0.0
H1736 H 0.2118 0.16857 0.47397 0.0
H1737 H 0.2536 0.12247 0.45205 0.0
H1738 H 0.2217 0.13813 0.43948 0.0
H1739 H 0.19 0.24475 0.39837 0.0
H1740 H 0.1751 0.23942 0.41545 0.0
H1741 H 0.1928 0.15462 0.41386 0.0
H1742 H 0.20764 0.15964 0.39694 0.0
H1743 H 0.21072 0.18133 0.43158 0.0
H1744 H 0.13129 0.17576 0.40958 0.0
H1745 H 0.1008 0.19656 0.3975 0.0
H1746 H 0.08347 0.26067 0.41772 0.0
H1747 H 0.11434 0.24053 0.42984 0.0
C1748 C 0.13081 0.11021 0.45749 0.0
C1749 C 0.10676 0.11862 0.46199 0.0
C1750 C 0.14605 0.12816 0.45197 0.0
C1751 C 0.13811 0.15519 0.45107 0.0
C1752 C 0.11542 0.16419 0.45629 0.0
C1753 C 0.0998 0.14608 0.46165 0.0
C1754 C 0.15088 0.17244 0.44349 0.0
C1755 C 0.13401 0.18515 0.43662 0.0
C1756 C 0.17912 0.17263 0.44197 0.0
C1757 C 0.1983 0.16276 0.44952 0.0
C1758 C 0.19577 0.17118 0.45934 0.0
C1759 C 0.21387 0.162 0.46644 0.0
C1760 C 0.2347 0.14448 0.46381 0.0
C1761 C 0.23746 0.13606 0.45408 0.0
C1762 C 0.21939 0.14513 0.44696 0.0
C1763 C 0.19063 0.22499 0.40168 0.0
C1764 C 0.19964 0.20253 0.39631 0.0
C1765 C 0.18228 0.22206 0.41142 0.0
C1766 C 0.18293 0.19668 0.41586 0.0
C1767 C 0.19236 0.1744 0.41055 0.0
C1768 C 0.20053 0.17726 0.40086 0.0
C1769 C 0.17203 0.19235 0.42579 0.0
C1770 C 0.18926 0.18224 0.43304 0.0
C1771 C 0.14428 0.19513 0.42779 0.0
C1772 C 0.12532 0.20681 0.42057 0.0
C1773 C 0.12111 0.19438 0.41142 0.0
C1774 C 0.10376 0.20605 0.40457 0.0
C1775 C 0.09022 0.22994 0.40683 0.0
C1776 C 0.09394 0.24215 0.41598 0.0
C1777 C 0.1114 0.23066 0.42283 0.0
H1778 H 0.07685 0.23898 0.40151 0.0
H1779 H 0.24871 0.13744 0.46931 0.0
H1780 H 0.64218 0.41885 0.15046 0.0
H1781 H 0.64147 0.38547 0.16353 0.0
H1782 H 0.55465 0.38271 0.16208 0.0
H1783 H 0.55524 0.41666 0.14916 0.0
H1784 H 0.56856 0.38706 0.17989 0.0
H1785 H 0.59544 0.33362 0.15398 0.0
H1786 H 0.6176 0.31212 0.13994 0.0
H1787 H 0.68912 0.3002 0.15697 0.0
H1788 H 0.66771 0.32183 0.17116 0.0
H1789 H 0.66192 0.29037 0.21124 0.0
H1790 H 0.62488 0.29465 0.19982 0.0
H1791 H 0.63225 0.38106 0.20089 0.0
H1792 H 0.67114 0.37659 0.21177 0.0
H1793 H 0.63546 0.31353 0.1827 0.0
H1794 H 0.57641 0.41157 0.19527 0.0
H1795 H 0.55028 0.42591 0.20974 0.0
H1796 H 0.54025 0.34352 0.21831 0.0
H1797 H 0.56596 0.32874 0.20382 0.0
C1798 C 0.62298 0.41107 0.15292 0.0
C1799 C 0.59879 0.42053 0.14891 0.0
C1800 C 0.62257 0.39176 0.16029 0.0
C1801 C 0.59801 0.38126 0.16366 0.0
C1802 C 0.57381 0.39045 0.15955 0.0
C1803 C 0.5742 0.40997 0.15224 0.0
C1804 C 0.59782 0.36287 0.17214 0.0
C1805 C 0.58307 0.37082 0.18046 0.0
C1806 C 0.61545 0.34046 0.1727 0.0
C1807 C 0.62938 0.32893 0.16387 0.0
C1808 C 0.61582 0.32641 0.15484 0.0
C1809 C 0.62835 0.31422 0.14679 0.0
C1810 C 0.65466 0.30462 0.14758 0.0
C1811 C 0.66862 0.30744 0.15639 0.0
C1812 C 0.65619 0.3196 0.16448 0.0
C1813 C 0.65468 0.31034 0.20944 0.0
C1814 C 0.66913 0.33324 0.21237 0.0
C1815 C 0.63324 0.31274 0.20296 0.0
C1816 C 0.62516 0.33814 0.19965 0.0
C1817 C 0.63768 0.36124 0.20351 0.0
C1818 C 0.65991 0.35879 0.20971 0.0
C1819 C 0.60948 0.34075 0.19049 0.0
C1820 C 0.62072 0.32948 0.18198 0.0
C1821 C 0.5886 0.35982 0.18968 0.0
C1822 C 0.57327 0.36897 0.19845 0.0
C1823 C 0.56852 0.39648 0.20019 0.0
C1824 C 0.5538 0.40472 0.20842 0.0
C1825 C 0.54364 0.38566 0.21495 0.0
C1826 C 0.5482 0.3583 0.21328 0.0
C1827 C 0.56294 0.34999 0.20508 0.0
H1828 H 0.53222 0.39209 0.2213 0.0
H1829 H 0.66431 0.29514 0.14134 0.0
H1830 H 0.36925 0.81923 0.89867 0.0
H1831 H 0.37963 0.8236 0.91621 0.0
H1832 H 0.37434 0.90995 0.91381 0.0
H1833 H 0.36417 0.90583 0.89642 0.0
H1834 H 0.42215 0.85047 0.92485 0.0
H1835 H 0.34357 0.93547 0.93336 0.0
H1836 H 0.29665 0.94654 0.92905 0.0
H1837 H 0.28109 0.86352 0.92252 0.0
H1838 H 0.32778 0.8518 0.92694 0.0
H1839 H 0.4622 0.96392 0.94851 0.0
H1840 H 0.4396 0.93057 0.93835 0.0
H1841 H 0.40168 0.89696 0.96398 0.0
H1842 H 0.42487 0.93048 0.97434 0.0
H1843 H 0.36709 0.90962 0.94634 0.0
H1844 H 0.44287 0.85899 0.95589 0.0
H1845 H 0.49058 0.85014 0.95972 0.0
H1846 H 0.51212 0.86508 0.92976 0.0
H1847 H 0.46479 0.87495 0.92579 0.0
C1848 C 0.37048 0.83912 0.90191 0.0
C1849 C 0.36601 0.86222 0.89621 0.0
C1850 C 0.37618 0.84154 0.91191 0.0
C1851 C 0.37701 0.86703 0.91631 0.0
C1852 C 0.37307 0.89005 0.91058 0.0
C1853 C 0.36764 0.88769 0.90062 0.0
C1854 C 0.38401 0.87036 0.92674 0.0
C1855 C 0.40998 0.86289 0.92968 0.0
C1856 C 0.36757 0.8858 0.93311 0.0
C1857 C 0.33928 0.89273 0.93052 0.0
C1858 C 0.33011 0.91949 0.9311 0.0
C1859 C 0.30355 0.9259 0.92862 0.0
C1860 C 0.28589 0.90573 0.92556 0.0
C1861 C 0.29479 0.87912 0.92491 0.0
C1862 C 0.32132 0.87258 0.9274 0.0
C1863 C 0.44874 0.94972 0.95198 0.0
C1864 C 0.44487 0.94997 0.96217 0.0
C1865 C 0.43616 0.93048 0.9462 0.0
C1866 C 0.41936 0.91121 0.95047 0.0
C1867 C 0.41483 0.91163 0.96062 0.0
C1868 C 0.42788 0.93075 0.96648 0.0
C1869 C 0.406 0.89169 0.94398 0.0
C1870 C 0.37883 0.89615 0.94175 0.0
C1871 C 0.42142 0.87365 0.93822 0.0
C1872 C 0.45011 0.86773 0.94055 0.0
C1873 C 0.45778 0.86063 0.95013 0.0
C1874 C 0.48479 0.85544 0.95233 0.0
C1875 C 0.50433 0.85705 0.94498 0.0
C1876 C 0.49693 0.8638 0.93543 0.0
C1877 C 0.47 0.86924 0.93321 0.0
H1878 H 0.52523 0.85323 0.94669 0.0
H1879 H 0.26533 0.91074 0.92367 0.0
H1880 H 0.89651 0.35347 0.88016 0.0
H1881 H 0.93929 0.3708 0.88621 0.0
H1882 H 0.92372 0.33458 0.91438 0.0
H1883 H 0.88279 0.31499 0.90812 0.0
H1884 H 0.9426 0.40677 0.89791 0.0
H1885 H 0.97524 0.33003 0.92994 0.0
H1886 H 0.98786 0.28246 0.9312 0.0
H1887 H 0.99544 0.27723 0.89991 0.0
H1888 H 0.98343 0.32498 0.89842 0.0
H1889 H 0.92622 0.45155 0.94376 0.0
H1890 H 0.93013 0.42849 0.92801 0.0
H1891 H 1.01534 0.41715 0.93273 0.0
H1892 H 1.01152 0.44004 0.94859 0.0
H1893 H 0.99181 0.37176 0.92675 0.0
H1894 H 0.99857 0.45774 0.9143 0.0
H1895 H 0.99014 0.50643 0.91288 0.0
H1896 H 0.90849 0.49099 0.90423 0.0
H1897 H 0.91624 0.44225 0.90576 0.0
C1898 C 0.90262 0.34847 0.88755 0.0
C1899 C 0.88568 0.33354 0.89375 0.0
C1900 C 0.92716 0.35841 0.891 0.0
C1901 C 0.93493 0.3541 0.90077 0.0
C1902 C 0.91874 0.33786 0.90676 0.0
C1903 C 0.89467 0.32737 0.90325 0.0
C1904 C 0.95597 0.37097 0.90544 0.0
C1905 C 0.9539 0.39891 0.90406 0.0
C1906 C 0.97237 0.36093 0.91313 0.0
C1907 C 0.9789 0.33166 0.91405 0.0
C1908 C 0.98007 0.31909 0.9233 0.0
C1909 C 0.98705 0.29192 0.92407 0.0
C1910 C 0.99263 0.27687 0.91565 0.0
C1911 C 0.99119 0.28893 0.90644 0.0
C1912 C 0.98434 0.3161 0.90563 0.0
C1913 C 0.94578 0.44425 0.94142 0.0
C1914 C 0.96851 0.44757 0.94735 0.0
C1915 C 0.94809 0.43137 0.93239 0.0
C1916 C 0.97318 0.42171 0.92913 0.0
C1917 C 0.99593 0.42481 0.93507 0.0
C1918 C 0.99364 0.43781 0.94412 0.0
C1919 C 0.97446 0.40637 0.91987 0.0
C1920 C 0.98141 0.37909 0.92032 0.0
C1921 C 0.96294 0.41685 0.91125 0.0
C1922 C 0.95809 0.44622 0.91009 0.0
C1923 C 0.9788 0.4647 0.91211 0.0
C1924 C 0.97412 0.49234 0.91129 0.0
C1925 C 0.94881 0.50179 0.90845 0.0
C1926 C 0.92813 0.48363 0.9064 0.0
C1927 C 0.93268 0.45596 0.90721 0.0
H1928 H 0.94521 0.5232 0.90784 0.0
H1929 H 0.99791 0.25581 0.91626 0.0
H1930 H 0.53793 0.12836 0.65472 0.0
H1931 H 0.52372 0.16843 0.66386 0.0
H1932 H 0.44771 0.13032 0.6702 0.0
H1933 H 0.46158 0.0906 0.66081 0.0
H1934 H 0.44784 0.18628 0.66109 0.0
H1935 H 0.48498 0.1407 0.69622 0.0
H1936 H 0.52635 0.12018 0.70297 0.0
H1937 H 0.5748 0.17359 0.68573 0.0
H1938 H 0.53371 0.19462 0.67901 0.0
H1939 H 0.36019 0.17271 0.69826 0.0
H1940 H 0.39771 0.17041 0.68668 0.0
H1941 H 0.42959 0.24463 0.69824 0.0
H1942 H 0.39144 0.24755 0.70971 0.0
H1943 H 0.46712 0.19585 0.6966 0.0
H1944 H 0.4147 0.25433 0.67756 0.0
H1945 H 0.3733 0.27382 0.67058 0.0
H1946 H 0.35766 0.20011 0.65513 0.0
H1947 H 0.3987 0.17998 0.66213 0.0
C1948 C 0.51845 0.12842 0.65825 0.0
C1949 C 0.50085 0.10646 0.65717 0.0
C1950 C 0.51038 0.15129 0.66344 0.0
C1951 C 0.48479 0.15217 0.66771 0.0
C1952 C 0.46755 0.12991 0.66689 0.0
C1953 C 0.47545 0.10727 0.66159 0.0
C1954 C 0.4748 0.1762 0.67287 0.0
C1955 C 0.45254 0.18937 0.66877 0.0
C1956 C 0.48175 0.18093 0.68274 0.0
C1957 C 0.50635 0.169 0.68706 0.0
C1958 C 0.50448 0.14812 0.69392 0.0
C1959 C 0.52786 0.13639 0.69773 0.0
C1960 C 0.55319 0.14549 0.69474 0.0
C1961 C 0.55519 0.16647 0.688 0.0
C1962 C 0.53187 0.1783 0.6842 0.0
C1963 C 0.37495 0.18873 0.69822 0.0
C1964 C 0.37292 0.21037 0.70476 0.0
C1965 C 0.3963 0.18743 0.69164 0.0
C1966 C 0.41615 0.20749 0.69162 0.0
C1967 C 0.41424 0.2292 0.69814 0.0
C1968 C 0.39245 0.23085 0.7046 0.0
C1969 C 0.43914 0.20441 0.68492 0.0
C1970 C 0.46351 0.1948 0.68877 0.0
C1971 C 0.43461 0.20375 0.67471 0.0
C1972 C 0.4099 0.21567 0.67036 0.0
C1973 C 0.40238 0.24222 0.6727 0.0
C1974 C 0.37896 0.25339 0.66874 0.0
C1975 C 0.36288 0.23823 0.6624 0.0
C1976 C 0.37019 0.21186 0.66002 0.0
C1977 C 0.39358 0.20058 0.66396 0.0
H1978 H 0.34474 0.24691 0.65935 0.0
H1979 H 0.57124 0.13635 0.69768 0.0
H1980 H 0.65583 0.72316 0.37576 0.0
H1981 H 0.62398 0.70175 0.38662 0.0
H1982 H 0.67699 0.63358 0.38953 0.0
H1983 H 0.70928 0.65484 0.37851 0.0
H1984 H 0.61999 0.6225 0.39421 0.0
H1985 H 0.69467 0.68673 0.40316 0.0
H1986 H 0.71737 0.73051 0.40103 0.0
H1987 H 0.64202 0.77145 0.40536 0.0
H1988 H 0.61911 0.72805 0.40756 0.0
H1989 H 0.65688 0.61863 0.44734 0.0
H1990 H 0.6611 0.63513 0.43058 0.0
H1991 H 0.57458 0.63793 0.42787 0.0
H1992 H 0.57019 0.62193 0.44479 0.0
H1993 H 0.63795 0.68396 0.42224 0.0
H1994 H 0.56813 0.61263 0.40183 0.0
H1995 H 0.54492 0.56926 0.40414 0.0
H1996 H 0.60855 0.54249 0.42305 0.0
H1997 H 0.63203 0.58563 0.42089 0.0
C1998 C 0.66015 0.70286 0.37814 0.0
C1999 C 0.68562 0.69108 0.37656 0.0
C2000 C 0.64172 0.6906 0.38438 0.0
C2001 C 0.64846 0.66646 0.38904 0.0
C2002 C 0.67156 0.65237 0.38605 0.0
C2003 C 0.69009 0.66464 0.3798 0.0
C2004 C 0.63678 0.66048 0.39872 0.0
C2005 C 0.62347 0.63605 0.40032 0.0
C2006 C 0.64128 0.67824 0.40668 0.0
C2007 C 0.65522 0.70427 0.40549 0.0
C2008 C 0.68303 0.70513 0.40365 0.0
C2009 C 0.69593 0.72987 0.40241 0.0
C2010 C 0.68118 0.75378 0.40299 0.0
C2011 C 0.65352 0.75301 0.40488 0.0
C2012 C 0.64057 0.72836 0.40617 0.0
C2013 C 0.63876 0.62302 0.44323 0.0
C2014 C 0.61321 0.61873 0.4473 0.0
C2015 C 0.64118 0.63243 0.43368 0.0
C2016 C 0.61814 0.63739 0.42803 0.0
C2017 C 0.59253 0.63387 0.43213 0.0
C2018 C 0.5901 0.62473 0.44175 0.0
C2019 C 0.62151 0.64581 0.41779 0.0
C2020 C 0.63358 0.67071 0.4161 0.0
C2021 C 0.61555 0.62855 0.40982 0.0
C2022 C 0.60176 0.60244 0.41122 0.0
C2023 C 0.57717 0.59745 0.40647 0.0
C2024 C 0.56393 0.57293 0.40778 0.0
C2025 C 0.57521 0.55316 0.41377 0.0
C2026 C 0.59974 0.55787 0.41847 0.0
C2027 C 0.61298 0.5824 0.41722 0.0
H2028 H 0.56496 0.53418 0.41476 0.0
H2029 H 0.69123 0.77287 0.402 0.0
H2030 H 0.17987 0.88287 0.19883 0.0
H2031 H 0.14468 0.88057 0.18633 0.0
H2032 H 0.12796 0.79839 0.19434 0.0
H2033 H 0.16299 0.80082 0.20699 0.0
H2034 H 0.12671 0.80671 0.17404 0.0
H2035 H 0.08841 0.84415 0.20285 0.0
H2036 H 0.08291 0.87375 0.21724 0.0
H2037 H 0.08121 0.94294 0.1986 0.0
H2038 H 0.08643 0.91397 0.18406 0.0
H2039 H 1.01923 0.90717 0.15107 0.0
H2040 H 0.02743 0.86902 0.16191 0.0
H2041 H 0.10939 0.86446 0.15138 0.0
H2042 H 0.10082 0.9021 0.14038 0.0
H2043 H 0.05921 0.88014 0.17577 0.0
H2044 H 0.1406 0.80816 0.15711 0.0
H2045 H 0.14296 0.78046 0.14214 0.0
H2046 H 0.05675 0.78118 0.13994 0.0
H2047 H 0.0537 0.80806 0.15508 0.0
C2048 C 0.16884 0.86428 0.19785 0.0
C2049 C 0.17423 0.84191 0.20372 0.0
C2050 C 0.14877 0.86296 0.19075 0.0
C2051 C 0.13353 0.83941 0.18956 0.0
C2052 C 0.13948 0.8167 0.1952 0.0
C2053 C 0.15963 0.81803 0.20231 0.0
C2054 C 0.11077 0.83947 0.18264 0.0
C2055 C 0.11175 0.82258 0.17437 0.0
C2056 C 0.09027 0.8591 0.18347 0.0
C2057 C 0.08744 0.87668 0.19229 0.0
C2058 C 0.08673 0.86562 0.20178 0.0
C2059 C 0.08373 0.88232 0.20998 0.0
C2060 C 0.08171 0.91013 0.20883 0.0
C2061 C 0.08265 0.92136 0.19948 0.0
C2062 C 0.08548 0.90479 0.19124 0.0
C2063 C 0.03866 0.89729 0.15085 0.0
C2064 C 0.05971 0.90779 0.14517 0.0
C2065 C 0.04324 0.87536 0.15696 0.0
C2066 C 0.06908 0.86403 0.15756 0.0
C2067 C 0.08917 0.8726 0.15099 0.0
C2068 C 0.08445 0.89433 0.14479 0.0
C2069 C 0.07742 0.84982 0.16656 0.0
C2070 C 0.07353 0.86368 0.17543 0.0
C2071 C 0.09506 0.82749 0.16624 0.0
C2072 C 0.09693 0.81026 0.1573 0.0
C2073 C 0.12208 0.8021 0.15355 0.0
C2074 C 0.12354 0.78653 0.145 0.0
C2075 C 0.10002 0.779 0.1401 0.0
C2076 C 0.07496 0.78692 0.14376 0.0
C2077 C 0.07337 0.80233 0.15233 0.0
H2078 H 0.1012 0.76708 0.13346 0.0
H2079 H 0.07945 0.92299 0.2152 0.0
H2080 H 0.62241 0.95181 0.94656 0.0
H2081 H 0.61631 0.93001 0.93058 0.0
H2082 H 0.53746 0.90307 0.93932 0.0
H2083 H 0.54317 0.92514 0.95527 0.0
H2084 H 0.57889 0.86216 0.9325 0.0
H2085 H 0.53 0.93594 0.92245 0.0
H2086 H 0.51548 0.98291 0.92031 0.0
H2087 H 0.58658 0.99926 0.90345 0.0
H2088 H 0.60212 0.95272 0.9058 0.0
H2089 H 0.63342 0.80486 0.88896 0.0
H2090 H 0.59526 0.82437 0.89796 0.0
H2091 H 0.64167 0.89621 0.90331 0.0
H2092 H 0.67934 0.87727 0.89416 0.0
H2093 H 0.5889 0.90801 0.9005 0.0
H2094 H 0.64248 0.83838 0.91838 0.0
H2095 H 0.65661 0.79191 0.92205 0.0
H2096 H 0.57388 0.76816 0.92483 0.0
H2097 H 0.55927 0.81445 0.921 0.0
C2098 C 0.60376 0.94133 0.94504 0.0
C2099 C 0.58337 0.93991 0.95211 0.0
C2100 C 0.60014 0.92921 0.93592 0.0
C2101 C 0.57629 0.91522 0.93381 0.0
C2102 C 0.55584 0.9139 0.94084 0.0
C2103 C 0.55922 0.92644 0.94991 0.0
C2104 C 0.57483 0.89942 0.9247 0.0
C2105 C 0.58008 0.87186 0.9254 0.0
C2106 C 0.57583 0.91221 0.91551 0.0
C2107 C 0.56726 0.94068 0.91433 0.0
C2108 C 0.54278 0.94962 0.91841 0.0
C2109 C 0.53435 0.97621 0.91716 0.0
C2110 C 0.55011 0.99408 0.91176 0.0
C2111 C 0.57441 0.98542 0.90766 0.0
C2112 C 0.58306 0.95891 0.90895 0.0
C2113 C 0.63511 0.82515 0.89181 0.0
C2114 C 0.65943 0.83952 0.891 0.0
C2115 C 0.61336 0.83615 0.89697 0.0
C2116 C 0.61577 0.86154 0.90138 0.0
C2117 C 0.63935 0.87658 0.89994 0.0
C2118 C 0.66099 0.86566 0.89481 0.0
C2119 C 0.59589 0.87155 0.90857 0.0
C2120 C 0.58631 0.89795 0.90748 0.0
C2121 C 0.59094 0.8577 0.91745 0.0
C2122 C 0.5998 0.82967 0.91918 0.0
C2123 C 0.62732 0.82314 0.9196 0.0
C2124 C 0.6354 0.79686 0.92174 0.0
C2125 C 0.61614 0.77708 0.92362 0.0
C2126 C 0.58875 0.78348 0.92332 0.0
C2127 C 0.58056 0.8097 0.92113 0.0
H2128 H 0.62243 0.75687 0.92538 0.0
H2129 H 0.54342 1.0146 0.91074 0.0
H2130 H 0.36585 0.29571 0.19447 0.0
H2131 H 0.38995 0.28854 0.17908 0.0
H2132 H 0.42623 0.36694 0.18192 0.0
H2133 H 0.40187 0.37443 0.1973 0.0
H2134 H 0.37916 0.32131 0.16359 0.0
H2135 H 0.48855 0.36435 0.17141 0.0
H2136 H 0.52546 0.35594 0.18305 0.0
H2137 H 0.49166 0.27914 0.1902 0.0
H2138 H 0.45453 0.28688 0.17856 0.0
H2139 H 0.41992 0.43226 0.1404 0.0
H2140 H 0.40398 0.39144 0.14821 0.0
H2141 H 0.47236 0.34775 0.13681 0.0
H2142 H 0.48921 0.38898 0.12939 0.0
H2143 H 0.47324 0.34645 0.15579 0.0
H2144 H 0.40898 0.3213 0.13316 0.0
H2145 H 0.37357 0.32514 0.12059 0.0
H2146 H 0.31933 0.35851 0.14194 0.0
H2147 H 0.35447 0.35532 0.1546 0.0
C2148 C 0.37932 0.31128 0.1919 0.0
C2149 C 0.38167 0.33589 0.19697 0.0
C2150 C 0.39319 0.307 0.18315 0.0
C2151 C 0.40998 0.32707 0.17942 0.0
C2152 C 0.41366 0.351 0.18478 0.0
C2153 C 0.39949 0.35545 0.19348 0.0
C2154 C 0.41947 0.32578 0.16918 0.0
C2155 C 0.39983 0.32628 0.16179 0.0
C2156 C 0.44669 0.33052 0.16679 0.0
C2157 C 0.46862 0.32625 0.17407 0.0
C2158 C 0.48895 0.3456 0.17543 0.0
C2159 C 0.50994 0.34096 0.18205 0.0
C2160 C 0.51092 0.317 0.18735 0.0
C2161 C 0.49081 0.29771 0.18611 0.0
C2162 C 0.46973 0.30227 0.17952 0.0
C2163 C 0.43113 0.41377 0.1393 0.0
C2164 C 0.45606 0.41395 0.13448 0.0
C2165 C 0.42184 0.39028 0.14367 0.0
C2166 C 0.4372 0.36653 0.14318 0.0
C2167 C 0.46042 0.36591 0.13735 0.0
C2168 C 0.46986 0.38949 0.13304 0.0
C2169 C 0.43227 0.34536 0.15056 0.0
C2170 C 0.45279 0.34038 0.15743 0.0
C2171 C 0.40596 0.33595 0.15242 0.0
C2172 C 0.38444 0.33792 0.14487 0.0
C2173 C 0.38954 0.32955 0.13518 0.0
C2174 C 0.3695 0.33162 0.12803 0.0
C2175 C 0.34421 0.34201 0.13047 0.0
C2176 C 0.33891 0.35037 0.14006 0.0
C2177 C 0.35888 0.34834 0.14725 0.0
H2178 H 0.32872 0.34362 0.12492 0.0
H2179 H 0.52726 0.31336 0.19243 0.0
H2180 H 0.9869 0.13346 0.45132 0.0
H2181 H 0.98495 0.14918 0.4343 0.0
H2182 H 0.90617 0.11379 0.43111 0.0
H2183 H 0.90782 0.09836 0.44811 0.0
H2184 H 0.94443 0.10349 0.415 0.0
H2185 H 0.90916 0.17729 0.43585 0.0
H2186 H 0.915 0.21031 0.44923 0.0
H2187 H 0.98404 0.24315 0.4346 0.0
H2188 H 0.97876 0.21009 0.42119 0.0
H2189 H 0.85348 0.16175 0.38355 0.0
H2190 H 0.88477 0.13968 0.39459 0.0
H2191 H 0.94083 0.20526 0.39119 0.0
H2192 H 0.90892 0.22816 0.38057 0.0
H2193 H 0.93075 0.20089 0.40908 0.0
H2194 H 0.95822 0.13768 0.38591 0.0
H2195 H 0.95589 0.10491 0.37236 0.0
H2196 H 0.90888 0.05187 0.39026 0.0
H2197 H 0.91051 0.08457 0.40387 0.0
C2198 C 0.96915 0.12916 0.44698 0.0
C2199 C 0.94737 0.115 0.45102 0.0
C2200 C 0.96815 0.13799 0.43728 0.0
C2201 C 0.94551 0.13245 0.43149 0.0
C2202 C 0.92389 0.11805 0.43548 0.0
C2203 C 0.92471 0.10957 0.44521 0.0
C2204 C 0.94328 0.14299 0.42143 0.0
C2205 C 0.94145 0.12475 0.41361 0.0
C2206 C 0.94106 0.17083 0.41965 0.0
C2207 C 0.94378 0.19104 0.4276 0.0
C2208 C 0.92568 0.19145 0.43553 0.0
C2209 C 0.92888 0.21018 0.44311 0.0
C2210 C 0.94996 0.22873 0.44279 0.0
C2211 C 0.96779 0.2287 0.43486 0.0
C2212 C 0.96468 0.21 0.42726 0.0
C2213 C 0.87278 0.17112 0.38493 0.0
C2214 C 0.87835 0.19699 0.38138 0.0
C2215 C 0.89091 0.1583 0.39117 0.0
C2216 C 0.91521 0.17086 0.3938 0.0
C2217 C 0.92215 0.19525 0.38933 0.0
C2218 C 0.9039 0.20823 0.38316 0.0
C2219 C 0.93019 0.16123 0.40253 0.0
C2220 C 0.93457 0.17964 0.41021 0.0
C2221 C 0.9354 0.13357 0.40409 0.0
C2222 C 0.93437 0.11369 0.39592 0.0
C2223 C 0.94719 0.11914 0.38695 0.0
C2224 C 0.94602 0.10055 0.37925 0.0
C2225 C 0.93221 0.07634 0.38044 0.0
C2226 C 0.91957 0.07064 0.38934 0.0
C2227 C 0.92065 0.08918 0.39706 0.0
H2228 H 0.93134 0.06197 0.37447 0.0
H2229 H 0.95242 0.2432 0.44867 0.0
H2230 H 0.10571 0.63694 0.62403 0.0
H2231 H 0.14048 0.66688 0.63053 0.0
H2232 H 0.16313 0.60615 0.6515 0.0
H2233 H 0.12846 0.57669 0.64527 0.0
H2234 H 0.13242 0.68399 0.64843 0.0
H2235 H 0.22131 0.61386 0.66112 0.0
H2236 H 0.25243 0.58094 0.65373 0.0
H2237 H 0.23936 0.61564 0.62535 0.0
H2238 H 0.20832 0.649 0.63257 0.0
H2239 H 0.18665 0.6554 0.69701 0.0
H2240 H 0.17823 0.64917 0.67949 0.0
H2241 H 0.19733 0.7325 0.67431 0.0
H2242 H 0.20461 0.73919 0.69189 0.0
H2243 H 0.21986 0.66246 0.66407 0.0
H2244 H 0.16511 0.74723 0.66228 0.0
H2245 H 0.13229 0.77938 0.66925 0.0
H2246 H 0.07655 0.71496 0.67423 0.0
H2247 H 0.10952 0.68232 0.66763 0.0
C2248 C 0.11866 0.62972 0.62984 0.0
C2249 C 0.11384 0.60469 0.63431 0.0
C2250 C 0.1387 0.64675 0.63347 0.0
C2251 C 0.15437 0.63885 0.64152 0.0
C2252 C 0.15167 0.61263 0.64518 0.0
C2253 C 0.13161 0.5957 0.64161 0.0
C2254 C 0.16809 0.65915 0.6477 0.0
C2255 C 0.15205 0.67992 0.65158 0.0
C2256 C 0.19378 0.65417 0.65178 0.0
C2257 C 0.21244 0.63402 0.64741 0.0
C2258 C 0.22517 0.61464 0.65331 0.0
C2259 C 0.24273 0.59581 0.64914 0.0
C2260 C 0.24787 0.5962 0.63908 0.0
C2261 C 0.23534 0.61535 0.63315 0.0
C2262 C 0.21768 0.63417 0.63727 0.0
C2263 C 0.18847 0.67251 0.69216 0.0
C2264 C 0.196 0.69778 0.69579 0.0
C2265 C 0.18382 0.66893 0.68217 0.0
C2266 C 0.18695 0.69046 0.67565 0.0
C2267 C 0.19419 0.71583 0.67925 0.0
C2268 C 0.19837 0.71956 0.68929 0.0
C2269 C 0.18319 0.68539 0.66509 0.0
C2270 C 0.20103 0.66745 0.66047 0.0
C2271 C 0.15927 0.69306 0.66027 0.0
C2272 C 0.13997 0.71234 0.66468 0.0
C2273 C 0.14609 0.73988 0.66507 0.0
C2274 C 0.12745 0.75818 0.66893 0.0
C2275 C 0.10241 0.7492 0.67224 0.0
C2276 C 0.09603 0.72186 0.67174 0.0
C2277 C 0.11473 0.70345 0.66799 0.0
H2278 H 0.08791 0.76342 0.67515 0.0
H2279 H 0.26156 0.58167 0.63587 0.0
H2280 H 0.65575 0.09423 0.64798 0.0
H2281 H 0.65967 0.10901 0.66507 0.0
H2282 H 0.58374 0.15079 0.66278 0.0
H2283 H 0.57951 0.13563 0.64565 0.0
H2284 H 0.63531 0.17989 0.67062 0.0
H2285 H 0.57472 0.10557 0.67642 0.0
H2286 H 0.55956 0.05893 0.67363 0.0
H2287 H 0.63561 0.02908 0.6839 0.0
H2288 H 0.65115 0.07556 0.68684 0.0
H2289 H 0.6516 0.22018 0.71798 0.0
H2290 H 0.62411 0.19679 0.70602 0.0
H2291 H 0.68364 0.1341 0.7037 0.0
H2292 H 0.71131 0.15695 0.71597 0.0
H2293 H 0.63126 0.11657 0.69866 0.0
H2294 H 0.69294 0.18926 0.69244 0.0
H2295 H 0.71104 0.23502 0.6944 0.0
H2296 H 0.63783 0.26812 0.68281 0.0
H2297 H 0.61914 0.22252 0.6809 0.0
C2298 C 0.64004 0.10675 0.6511 0.0
C2299 C 0.6174 0.11398 0.64557 0.0
C2300 C 0.64215 0.1149 0.66085 0.0
C2301 C 0.62185 0.13069 0.66513 0.0
C2302 C 0.59944 0.13841 0.65957 0.0
C2303 C 0.59708 0.12982 0.64985 0.0
C2304 C 0.62507 0.14 0.6753 0.0
C2305 C 0.63369 0.16641 0.67683 0.0
C2306 C 0.62364 0.12194 0.68323 0.0
C2307 C 0.6141 0.09399 0.68182 0.0
C2308 C 0.5882 0.08905 0.67807 0.0
C2309 C 0.57954 0.06266 0.67647 0.0
C2310 C 0.59666 0.04108 0.67853 0.0
C2311 C 0.62238 0.04582 0.68231 0.0
C2312 C 0.63107 0.07217 0.684 0.0
C2313 C 0.6583 0.20066 0.7154 0.0
C2314 C 0.68412 0.19082 0.7177 0.0
C2315 C 0.64246 0.18738 0.7085 0.0
C2316 C 0.65224 0.16433 0.70377 0.0
C2317 C 0.67592 0.15215 0.70719 0.0
C2318 C 0.69181 0.16534 0.71415 0.0
C2319 C 0.64152 0.1567 0.69406 0.0
C2320 C 0.63196 0.13047 0.69256 0.0
C2321 C 0.64246 0.17496 0.68607 0.0
C2322 C 0.65413 0.20243 0.68693 0.0
C2323 C 0.68046 0.20627 0.69048 0.0
C2324 C 0.69092 0.23221 0.69152 0.0
C2325 C 0.67548 0.2545 0.68883 0.0
C2326 C 0.64967 0.25086 0.68498 0.0
C2327 C 0.63911 0.22496 0.68395 0.0
H2328 H 0.6836 0.27456 0.68963 0.0
H2329 H 0.58994 1.0207 0.67722 0.0
H2330 H 0.20029 0.39485 0.90447 0.0
H2331 H 0.18831 0.39659 0.92179 0.0
H2332 H 0.16637 0.31267 0.92095 0.0
H2333 H 0.17826 0.3108 0.90351 0.0
H2334 H 0.12781 0.34264 0.92884 0.0
H2335 H 0.21906 0.33019 0.93529 0.0
H2336 H 0.26829 0.33462 0.93369 0.0
H2337 H 0.26294 0.41823 0.94137 0.0
H2338 H 0.21371 0.41451 0.94287 0.0
H2339 H 0.12194 0.43121 0.97701 0.0
H2340 H 0.14164 0.39135 0.96885 0.0
H2341 H 0.11423 0.4212 0.94091 0.0
H2342 H 0.0949 0.46037 0.94886 0.0
H2343 H 0.18129 0.39239 0.95366 0.0
H2344 H 0.0892 0.3729 0.92782 0.0
H2345 H 0.04002 0.36904 0.92906 0.0
H2346 H 0.04684 0.34957 0.95958 0.0
H2347 H 0.09624 0.35307 0.95854 0.0
C2348 C 0.19292 0.37676 0.90797 0.0
C2349 C 0.18994 0.35278 0.90266 0.0
C2350 C 0.18655 0.37763 0.9179 0.0
C2351 C 0.17713 0.35455 0.9227 0.0
C2352 C 0.17406 0.33054 0.9174 0.0
C2353 C 0.18061 0.32961 0.90745 0.0
C2354 C 0.16713 0.35706 0.93285 0.0
C2355 C 0.13956 0.35295 0.9344 0.0
C2356 C 0.18285 0.36937 0.94024 0.0
C2357 C 0.21257 0.37198 0.93926 0.0
C2358 C 0.22834 0.34957 0.93659 0.0
C2359 C 0.25628 0.35196 0.93571 0.0
C2360 C 0.26875 0.37665 0.93749 0.0
C2361 C 0.25329 0.39907 0.94007 0.0
C2362 C 0.22534 0.39681 0.94096 0.0
C2363 C 0.12038 0.42916 0.96912 0.0
C2364 C 0.10749 0.44911 0.96352 0.0
C2365 C 0.13135 0.4064 0.96451 0.0
C2366 C 0.12878 0.40316 0.95433 0.0
C2367 C 0.1159 0.42307 0.9488 0.0
C2368 C 0.10536 0.44575 0.95334 0.0
C2369 C 0.14161 0.38074 0.949 0.0
C2370 C 0.16976 0.3809 0.94835 0.0
C2371 C 0.12641 0.36497 0.94237 0.0
C2372 C 0.09657 0.36315 0.94309 0.0
C2373 C 0.0803 0.36761 0.9348 0.0
C2374 C 0.0523 0.36561 0.93548 0.0
C2375 C 0.04022 0.35919 0.94442 0.0
C2376 C 0.05617 0.35475 0.95269 0.0
C2377 C 0.08421 0.35678 0.95206 0.0
H2378 H 1.01853 0.35761 0.94493 0.0
H2379 H 0.2904 0.37841 0.93688 0.0
H2380 H 0.906 0.94352 0.14399 0.0
H2381 H 0.89941 0.93111 0.16108 0.0
H2382 H 0.985 0.93679 0.16618 0.0
H2383 H 0.99174 0.94914 0.14897 0.0
H2384 H 0.96524 0.89264 0.17413 0.0
H2385 H 0.94465 0.98383 0.17639 0.0
H2386 H 0.92579 0.02808 0.17199 0.0
H2387 H 0.84566 0.99736 0.17545 0.0
H2388 H 0.86393 0.95279 0.17969 0.0
H2389 H 0.86719 0.87346 0.21911 0.0
H2390 H 0.89979 0.9027 0.21062 0.0
H2391 H 0.89061 0.855 0.18435 0.0
H2392 H 0.85815 0.82634 0.19266 0.0
H2393 H 0.88985 0.93261 0.19316 0.0
H2394 H 0.95435 0.84586 0.17452 0.0
H2395 H 0.9731 0.80217 0.17949 0.0
H2396 H 0.96703 0.82513 0.20977 0.0
H2397 H 0.94983 0.86962 0.20501 0.0
C2398 C 0.92343 0.94206 0.14873 0.0
C2399 C 0.94938 0.94715 0.14516 0.0
C2400 C 0.91963 0.93532 0.15852 0.0
C2401 C 0.94166 0.93377 0.16495 0.0
C2402 C 0.96772 0.93827 0.16136 0.0
C2403 C 0.97154 0.94507 0.15154 0.0
C2404 C 0.93706 0.92546 0.1752 0.0
C2405 C 0.9491 0.90154 0.17841 0.0
C2406 C 0.91705 0.93807 0.18101 0.0
C2407 C 0.90575 0.96488 0.17841 0.0
C2408 C 0.923 0.98643 0.17617 0.0
C2409 C 0.9124 1.01159 0.1737 0.0
C2410 C 0.88456 1.01554 0.17349 0.0
C2411 C 0.86724 0.99429 0.17567 0.0
C2412 C 0.87771 0.96907 0.17813 0.0
C2413 C 0.87229 0.86939 0.21152 0.0
C2414 C 0.86007 0.84801 0.20645 0.0
C2415 C 0.89083 0.88594 0.20673 0.0
C2416 C 0.89776 0.88069 0.19693 0.0
C2417 C 0.88577 0.85911 0.19196 0.0
C2418 C 0.86705 0.84296 0.19666 0.0
C2419 C 0.916 0.8984 0.19141 0.0
C2420 C 0.9067 0.92422 0.18911 0.0
C2421 C 0.93876 0.88768 0.18652 0.0
C2422 C 0.95053 0.86124 0.18938 0.0
C2423 C 0.95742 0.84189 0.18224 0.0
C2424 C 0.96784 0.81692 0.18503 0.0
C2425 C 0.97114 0.81083 0.19494 0.0
C2426 C 0.96444 0.82985 0.20209 0.0
C2427 C 0.9545 0.85503 0.19935 0.0
H2428 H 0.97901 0.79143 0.1971 0.0
H2429 H 0.87639 0.03507 0.17166 0.0
H2430 H 0.49589 0.61655 0.42904 0.0
H2431 H 0.4869 0.6574 0.41992 0.0
H2432 H 0.50641 0.7053 0.44539 0.0
H2433 H 0.51577 0.66412 0.4546 0.0
H2434 H 0.45862 0.71742 0.43924 0.0
H2435 H 0.54069 0.71859 0.42389 0.0
H2436 H 0.58277 0.70244 0.41636 0.0
H2437 H 0.53837 0.67007 0.39206 0.0
H2438 H 0.49591 0.68555 0.39949 0.0
H2439 H 0.37934 0.7609 0.39353 0.0
H2440 H 0.41921 0.76851 0.40381 0.0
H2441 H 0.41574 0.68611 0.41349 0.0
H2442 H 0.3765 0.6781 0.40304 0.0
H2443 H 0.47125 0.72545 0.40332 0.0
H2444 H 0.41042 0.70478 0.43912 0.0
H2445 H 0.36805 0.72039 0.44665 0.0
H2446 H 0.37265 0.79401 0.43039 0.0
H2447 H 0.41526 0.77906 0.42287 0.0
C2448 C 0.49895 0.63575 0.43263 0.0
C2449 C 0.50591 0.63712 0.44258 0.0
C2450 C 0.49412 0.6592 0.42738 0.0
C2451 C 0.49633 0.68452 0.43193 0.0
C2452 C 0.50475 0.68601 0.44173 0.0
C2453 C 0.50964 0.66248 0.447 0.0
C2454 C 0.48443 0.7081 0.42697 0.0
C2455 C 0.46192 0.72004 0.43145 0.0
C2456 C 0.48953 0.71286 0.41692 0.0
C2457 C 0.515 0.70355 0.41224 0.0
C2458 C 0.53983 0.70799 0.41694 0.0
C2459 C 0.5638 0.69894 0.41268 0.0
C2460 C 0.56326 0.68545 0.40369 0.0
C2461 C 0.53875 0.68075 0.39898 0.0
C2462 C 0.5147 0.68977 0.4032 0.0
C2463 C 0.38692 0.74451 0.39797 0.0
C2464 C 0.37482 0.71889 0.3976 0.0
C2465 C 0.40971 0.74892 0.40375 0.0
C2466 C 0.42011 0.7279 0.40938 0.0
C2467 C 0.40773 0.70254 0.40917 0.0
C2468 C 0.38537 0.69798 0.40326 0.0
C2469 C 0.44428 0.7312 0.41546 0.0
C2470 C 0.46905 0.72438 0.41121 0.0
C2471 C 0.44155 0.73157 0.42574 0.0
C2472 C 0.41615 0.7408 0.43044 0.0
C2473 C 0.40258 0.72442 0.43722 0.0
C2474 C 0.37845 0.73313 0.44147 0.0
C2475 C 0.36767 0.75818 0.439 0.0
C2476 C 0.381 0.7746 0.43229 0.0
C2477 C 0.40514 0.766 0.42802 0.0
H2478 H 0.34897 0.76486 0.4423 0.0
H2479 H 0.5818 0.67864 0.40035 0.0
H2480 H 0.39034 0.21179 0.22299 0.0
H2481 H 0.42551 0.18302 0.21626 0.0
H2482 H 0.36492 0.13157 0.20351 0.0
H2483 H 0.32974 0.159 0.21085 0.0
H2484 H 0.4104 0.10476 0.20498 0.0
H2485 H 0.38464 0.197 0.19288 0.0
H2486 H 0.3828 0.2462 0.19534 0.0
H2487 H 0.46763 0.24735 0.20142 0.0
H2488 H 0.46991 0.19814 0.19903 0.0
H2489 H 0.40292 0.09323 0.15458 0.0
H2490 H 0.40019 0.10312 0.17209 0.0
H2491 H 0.48094 0.13499 0.17151 0.0
H2492 H 0.48381 0.12515 0.15393 0.0
H2493 H 0.4464 0.16852 0.18037 0.0
H2494 H 0.46998 0.07783 0.18342 0.0
H2495 H 0.47056 0.02873 0.18095 0.0
H2496 H 0.3897 1.02336 0.1919 0.0
H2497 H 0.38821 0.07246 0.19412 0.0
C2498 C 0.38443 0.1935 0.21925 0.0
C2499 C 0.3572 0.18823 0.21708 0.0
C2500 C 0.40467 0.17716 0.21532 0.0
C2501 C 0.39782 0.156 0.20897 0.0
C2502 C 0.37074 0.14818 0.20821 0.0
C2503 C 0.35056 0.16409 0.21231 0.0
C2504 C 0.41687 0.1463 0.20139 0.0
C2505 C 0.41858 0.11855 0.19961 0.0
C2506 C 0.42866 0.16439 0.19462 0.0
C2507 C 0.42738 0.19397 0.19588 0.0
C2508 C 0.40288 0.20781 0.19473 0.0
C2509 C 0.40177 0.23567 0.19612 0.0
C2510 C 0.4251 0.24992 0.19853 0.0
C2511 C 0.4496 0.23632 0.19954 0.0
C2512 C 0.45081 0.20845 0.19818 0.0
C2513 C 0.42004 0.10247 0.15817 0.0
C2514 C 0.44347 0.10866 0.1529 0.0
C2515 C 0.41864 0.10768 0.1682 0.0
C2516 C 0.44061 0.11921 0.17313 0.0
C2517 C 0.46394 0.12573 0.16786 0.0
C2518 C 0.46544 0.12031 0.15782 0.0
C2519 C 0.43775 0.127 0.18354 0.0
C2520 C 0.43934 0.15443 0.18585 0.0
C2521 C 0.42876 0.10856 0.19071 0.0
C2522 C 0.42902 0.079 0.18895 0.0
C2523 C 0.45216 0.06627 0.18518 0.0
C2524 C 0.45265 0.03839 0.18382 0.0
C2525 C 0.43022 1.02293 0.18629 0.0
C2526 C 0.40709 0.03534 0.18999 0.0
C2527 C 0.40641 0.06323 0.1913 0.0
H2528 H 0.4308 1.00131 0.18537 0.0
H2529 H 0.42422 0.27147 0.19963 0.0
H2530 H 0.58295 0.65387 0.96898 0.0
H2531 H 0.6074 0.68772 0.95971 0.0
H2532 H 0.66005 0.62591 0.94826 0.0
H2533 H 0.63791 0.59273 0.95837 0.0
H2534 H 0.68619 0.66861 0.94803 0.0
H2535 H 0.59036 0.64875 0.93794 0.0
H2536 H 0.54132 0.65154 0.94089 0.0
H2537 H 0.54758 0.73695 0.94519 0.0
H2538 H 0.59659 0.73456 0.94225 0.0
H2539 H 0.69318 0.66037 0.89788 0.0
H2540 H 0.67883 0.65731 0.91491 0.0
H2541 H 0.66454 0.74284 0.91569 0.0
H2542 H 0.67913 0.74623 0.89852 0.0
H2543 H 0.6222 0.70789 0.92409 0.0
H2544 H 0.71556 0.72637 0.92707 0.0
H2545 H 0.76351 0.72181 0.92269 0.0
H2546 H 0.76221 0.63883 0.93125 0.0
H2547 H 0.71412 0.64271 0.93551 0.0
C2548 C 0.60047 0.6476 0.96483 0.0
C2549 C 0.60785 0.62025 0.96417 0.0
C2550 C 0.6142 0.66703 0.95938 0.0
C2551 C 0.63476 0.65927 0.95288 0.0
C2552 C 0.64394 0.63253 0.95306 0.0
C2553 C 0.63091 0.61335 0.95874 0.0
C2554 C 0.64449 0.67726 0.94495 0.0
C2555 C 0.67222 0.67752 0.94286 0.0
C2556 C 0.62649 0.69013 0.93836 0.0
C2557 C 0.59707 0.69142 0.94003 0.0
C2558 C 0.58122 0.66807 0.93953 0.0
C2559 C 0.55346 0.66959 0.9412 0.0
C2560 C 0.54136 0.69439 0.94326 0.0
C2561 C 0.55696 0.71774 0.94361 0.0
C2562 C 0.58471 0.71632 0.94195 0.0
C2563 C 0.68673 0.67853 0.90161 0.0
C2564 C 0.68732 0.70354 0.89689 0.0
C2565 C 0.67873 0.67677 0.91136 0.0
C2566 C 0.67105 0.69992 0.91655 0.0
C2567 C 0.67057 0.72484 0.91178 0.0
C2568 C 0.67887 0.72669 0.902 0.0
C2569 C 0.66346 0.69737 0.92696 0.0
C2570 C 0.63629 0.70017 0.92947 0.0
C2571 C 0.68194 0.6872 0.9339 0.0
C2572 C 0.71114 0.68487 0.93161 0.0
C2573 C 0.72545 0.70711 0.92799 0.0
C2574 C 0.75267 0.70464 0.92552 0.0
C2575 C 0.7659 0.68005 0.92669 0.0
C2576 C 0.75195 0.65788 0.93036 0.0
C2577 C 0.7247 0.66023 0.93282 0.0
H2578 H 0.78695 0.6782 0.92475 0.0
H2579 H 0.51988 0.69551 0.94455 0.0
H2580 H 0.19097 0.89106 0.72209 0.0
H2581 H 0.15612 0.91245 0.71207 0.0
H2582 H 0.12783 0.83387 0.70319 0.0
H2583 H 0.16043 0.81304 0.71391 0.0
H2584 H 0.16117 0.9107 0.6946 0.0
H2585 H 0.07629 0.83048 0.69003 0.0
H2586 H 0.04647 0.80361 0.70065 0.0
H2587 H 0.05297 0.86298 0.72342 0.0
H2588 H 0.08321 0.88998 0.71305 0.0
H2589 H 0.13224 0.90751 0.64647 0.0
H2590 H 0.13658 0.88701 0.66264 0.0
H2591 H 0.06435 0.92769 0.67221 0.0
H2592 H 0.05927 0.94741 0.65586 0.0
H2593 H 0.07299 0.8784 0.6822 0.0
H2594 H 0.11878 0.9594 0.67454 0.0
H2595 H 0.14641 0.98844 0.66417 0.0
H2596 H 0.21406 0.93546 0.66784 0.0
H2597 H 0.1863 0.9054 0.67803 0.0
C2598 C 0.17615 0.87861 0.71843 0.0
C2599 C 0.17825 0.85054 0.71872 0.0
C2600 C 0.15637 0.89073 0.71264 0.0
C2601 C 0.13933 0.8749 0.70671 0.0
C2602 C 0.13997 0.84682 0.70779 0.0
C2603 C 0.15892 0.83479 0.71389 0.0
C2604 C 0.12604 0.88681 0.69796 0.0
C2605 C 0.14161 0.90393 0.69208 0.0
C2606 C 0.10041 0.87836 0.69452 0.0
C2607 C 0.08198 0.8623 0.70075 0.0
C2608 C 0.07125 0.83788 0.69728 0.0
C2609 C 0.05439 0.82256 0.70328 0.0
C2610 C 0.04773 0.83167 0.71266 0.0
C2611 C 0.05818 0.85594 0.71615 0.0
C2612 C 0.07531 0.87119 0.71024 0.0
C2613 C 0.11695 0.91156 0.65195 0.0
C2614 C 0.09588 0.92959 0.65005 0.0
C2615 C 0.11928 0.89966 0.66114 0.0
C2616 C 0.1011 0.90634 0.66867 0.0
C2617 C 0.0786 0.92235 0.66651 0.0
C2618 C 0.07592 0.93382 0.65721 0.0
C2619 C 0.10872 0.90115 0.67897 0.0
C2620 C 0.09217 0.88546 0.685 0.0
C2621 C 0.13313 0.9115 0.68274 0.0
C2622 C 0.15034 0.92998 0.67696 0.0
C2623 C 0.13944 0.95372 0.67304 0.0
C2624 C 0.15513 0.9703 0.66712 0.0
C2625 C 0.18201 0.96375 0.66524 0.0
C2626 C 0.19321 0.9405 0.66928 0.0
C2627 C 0.17747 0.92362 0.67511 0.0
H2628 H 0.19423 0.97675 0.66072 0.0
H2629 H 0.03441 0.81997 0.71722 0.0
H2630 H 0.91679 0.47626 0.45348 0.0
H2631 H 0.88575 0.44749 0.44483 0.0
H2632 H 0.90408 0.38227 0.46455 0.0
H2633 H 0.93542 0.41143 0.47341 0.0
H2634 H 0.91741 0.36932 0.44698 0.0
H2635 H 0.83564 0.40023 0.4599 0.0
H2636 H 0.80228 0.43232 0.46649 0.0
H2637 H 0.79986 0.47317 0.43883 0.0
H2638 H 0.83323 0.44144 0.43207 0.0
H2639 H 0.86678 0.31487 0.40066 0.0
H2640 H 0.8708 0.3221 0.41843 0.0
H2641 H 0.87251 0.40787 0.41377 0.0
H2642 H 0.86847 0.40088 0.39618 0.0
H2643 H 0.83581 0.39298 0.428 0.0
H2644 H 0.92846 0.37044 0.41788 0.0
H2645 H 0.96451 0.34032 0.41195 0.0
H2646 H 0.94793 0.28528 0.43536 0.0
H2647 H 0.91136 0.31472 0.44128 0.0
C2648 C 0.91334 0.45627 0.45633 0.0
C2649 C 0.92905 0.44602 0.46402 0.0
C2650 C 0.89531 0.43972 0.45137 0.0
C2651 C 0.8925 0.4126 0.45401 0.0
C2652 C 0.90594 0.40312 0.46237 0.0
C2653 C 0.92402 0.41974 0.46737 0.0
C2654 C 0.88142 0.39359 0.44667 0.0
C2655 C 0.899 0.37375 0.44304 0.0
C2656 C 0.85739 0.39927 0.44152 0.0
C2657 C 0.83699 0.41835 0.44547 0.0
C2658 C 0.82807 0.4161 0.45522 0.0
C2659 C 0.80911 0.43422 0.45899 0.0
C2660 C 0.79899 0.45479 0.45308 0.0
C2661 C 0.80774 0.45724 0.4434 0.0
C2662 C 0.82654 0.43906 0.43957 0.0
C2663 C 0.86851 0.33522 0.40344 0.0
C2664 C 0.86735 0.35735 0.39705 0.0
C2665 C 0.87056 0.33929 0.41357 0.0
C2666 C 0.87154 0.36551 0.41739 0.0
C2667 C 0.87135 0.38748 0.41097 0.0
C2668 C 0.86934 0.38345 0.40091 0.0
C2669 C 0.87313 0.37084 0.42803 0.0
C2670 C 0.85353 0.38771 0.43223 0.0
C2671 C 0.8954 0.36254 0.43371 0.0
C2672 C 0.91672 0.34445 0.42987 0.0
C2673 C 0.93215 0.35166 0.42165 0.0
C2674 C 0.95275 0.33474 0.41831 0.0
C2675 C 0.95836 0.31076 0.42322 0.0
C2676 C 0.94341 0.30369 0.4315 0.0
C2677 C 0.9227 0.32044 0.43483 0.0
H2678 H 0.97439 0.29774 0.42066 0.0
H2679 H 0.78432 0.46881 0.45601 0.0
H2680 H 0.5064 0.94098 0.44296 0.0
H2681 H 0.50433 0.92896 0.42555 0.0
H2682 H 0.4183 0.94181 0.42589 0.0
H2683 H 0.42028 0.95383 0.44316 0.0
H2684 H 0.4794 0.88738 0.41841 0.0
H2685 H 0.39433 0.96319 0.40524 0.0
H2686 H 0.38636 1.01205 0.40568 0.0
H2687 H 0.47034 1.02582 0.4111 0.0
H2688 H 0.47906 0.97707 0.41046 0.0
H2689 H 0.3665 0.83019 0.40341 0.0
H2690 H 0.4059 0.85405 0.40912 0.0
H2691 H 0.40979 0.89761 0.38183 0.0
H2692 H 0.369 0.87422 0.3762 0.0
H2693 H 0.4161 0.93033 0.39511 0.0
H2694 H 0.48 0.85634 0.39084 0.0
H2695 H 0.4974 0.80972 0.39052 0.0
H2696 H 0.4631 0.79522 0.41887 0.0
H2697 H 0.44698 0.8422 0.41963 0.0
C2698 C 0.4871 0.94127 0.43928 0.0
C2699 C 0.46341 0.94787 0.4444 0.0
C2700 C 0.48603 0.93478 0.42934 0.0
C2701 C 0.4613 0.93514 0.42439 0.0
C2702 C 0.43774 0.9422 0.42949 0.0
C2703 C 0.43879 0.94854 0.43941 0.0
C2704 C 0.45873 0.9239 0.41444 0.0
C2705 C 0.46618 0.89697 0.41313 0.0
C2706 C 0.44276 0.93682 0.40729 0.0
C2707 C 0.43741 0.96629 0.40774 0.0
C2708 C 0.41121 0.97657 0.40641 0.0
C2709 C 0.40653 1.0043 0.40672 0.0
C2710 C 0.42785 1.02201 0.40837 0.0
C2711 C 0.45386 1.01205 0.40979 0.0
C2712 C 0.45868 0.98436 0.40947 0.0
C2713 C 0.37572 0.84489 0.39862 0.0
C2714 C 0.36464 0.85065 0.38943 0.0
C2715 C 0.39886 0.85792 0.40176 0.0
C2716 C 0.41185 0.87665 0.39571 0.0
C2717 C 0.40058 0.88271 0.38652 0.0
C2718 C 0.37722 0.8696 0.38335 0.0
C2719 C 0.43391 0.89301 0.3999 0.0
C2720 C 0.43044 0.92105 0.40005 0.0
C2721 C 0.45406 0.8813 0.40587 0.0
C2722 C 0.46172 0.85254 0.40517 0.0
C2723 C 0.47589 0.8431 0.39695 0.0
C2724 C 0.4858 0.81673 0.39675 0.0
C2725 C 0.48088 0.79939 0.40457 0.0
C2726 C 0.46662 0.80857 0.41276 0.0
C2727 C 0.45741 0.83515 0.41314 0.0
H2728 H 0.48837 0.77895 0.40434 0.0
H2729 H 0.42425 0.04347 0.40856 0.0
H2730 H 0.88095 0.65791 0.2037 0.0
H2731 H 0.89246 0.65261 0.18631 0.0
H2732 H 0.85241 0.7274 0.17974 0.0
H2733 H 0.84174 0.73343 0.19714 0.0
H2734 H 0.84041 0.66587 0.16915 0.0
H2735 H 0.89904 0.74261 0.17441 0.0
H2736 H 0.93264 0.76825 0.18385 0.0
H2737 H 0.98841 0.70242 0.18153 0.0
H2738 H 0.95476 0.67605 0.17232 0.0
H2739 H 0.94918 0.65082 0.12659 0.0
H2740 H 0.91733 0.67838 0.13593 0.0
H2741 H 0.89667 0.60963 0.15354 0.0
H2742 H 0.92875 0.58231 0.14459 0.0
H2743 H 0.93078 0.68411 0.15526 0.0
H2744 H 0.8361 0.61815 0.16405 0.0
H2745 H 0.80307 0.59056 0.15509 0.0
H2746 H 0.81983 0.63402 0.12865 0.0
H2747 H 0.85264 0.66224 0.13747 0.0
C2748 C 0.87507 0.67343 0.19857 0.0
C2749 C 0.86064 0.69611 0.20174 0.0
C2750 C 0.88155 0.67036 0.18868 0.0
C2751 C 0.87326 0.68969 0.18184 0.0
C2752 C 0.85909 0.71247 0.18498 0.0
C2753 C 0.85315 0.71587 0.1949 0.0
C2754 C 0.87868 0.68509 0.17138 0.0
C2755 C 0.85995 0.67015 0.16596 0.0
C2756 C 0.9039 0.69144 0.16728 0.0
C2757 C 0.92424 0.70725 0.17278 0.0
C2758 C 0.91832 0.73345 0.17603 0.0
C2759 C 0.93742 0.74816 0.18132 0.0
C2760 C 0.96267 0.73697 0.1833 0.0
C2761 C 0.96884 0.71105 0.18 0.0
C2762 C 0.94974 0.69621 0.17476 0.0
C2763 C 0.93737 0.6414 0.1323 0.0
C2764 C 0.94209 0.61448 0.135 0.0
C2765 C 0.91902 0.65714 0.13755 0.0
C2766 C 0.90484 0.64609 0.14545 0.0
C2767 C 0.90716 0.61851 0.14738 0.0
C2768 C 0.92565 0.60284 0.14222 0.0
C2769 C 0.89298 0.66366 0.15306 0.0
C2770 C 0.91069 0.68079 0.15811 0.0
C2771 C 0.86681 0.65922 0.15679 0.0
C2772 C 0.84695 0.64233 0.15144 0.0
C2773 C 0.83263 0.62201 0.15634 0.0
C2774 C 0.81395 0.6062 0.15128 0.0
C2775 C 0.80938 0.61051 0.1413 0.0
C2776 C 0.82345 0.63066 0.13637 0.0
C2777 C 0.84212 0.64654 0.1414 0.0
H2778 H 0.79491 0.59825 0.1374 0.0
H2779 H 0.97748 0.74838 0.18736 0.0
H2780 H 0.16635 0.18877 0.86758 0.0
H2781 H 0.13686 0.15853 0.87669 0.0
H2782 H 0.2038 0.13446 0.89475 0.0
H2783 H 0.23287 0.16538 0.88622 0.0
H2784 H 0.16102 0.09448 0.89279 0.0
H2785 H 0.17615 0.19185 0.90112 0.0
H2786 H 0.17442 0.23945 0.89607 0.0
H2787 H 0.09125 0.23054 0.8881 0.0
H2788 H 0.09263 0.18277 0.89305 0.0
H2789 H 0.15689 0.0985 0.94366 0.0
H2790 H 0.16303 0.1019 0.92597 0.0
H2791 H 0.08145 0.13073 0.92292 0.0
H2792 H 0.07514 0.12728 0.9407 0.0
H2793 H 0.11526 0.16241 0.91373 0.0
H2794 H 0.0985 0.07043 0.91372 0.0
H2795 H 0.09888 1.02168 0.91682 0.0
H2796 H 0.18146 1.01708 0.90769 0.0
H2797 H 0.18206 0.06596 0.90491 0.0
C2798 C 0.17501 0.17646 0.87331 0.0
C2799 C 0.20174 0.18056 0.87646 0.0
C2800 C 0.15815 0.15895 0.87842 0.0
C2801 C 0.16809 0.1449 0.88654 0.0
C2802 C 0.19575 0.14531 0.88853 0.0
C2803 C 0.21246 0.16314 0.88357 0.0
C2804 C 0.14988 0.13593 0.89441 0.0
C2805 C 0.15075 0.10906 0.8974 0.0
C2806 C 0.13561 0.15501 0.90011 0.0
C2807 C 0.13453 0.18382 0.8974 0.0
C2808 C 0.15752 0.20008 0.89829 0.0
C2809 C 0.15661 0.22705 0.89544 0.0
C2810 C 0.13274 0.238 0.89176 0.0
C2811 C 0.10972 0.22201 0.89095 0.0
C2812 C 0.11055 0.19501 0.89378 0.0
C2813 C 0.14028 0.10569 0.93924 0.0
C2814 C 0.11566 0.11304 0.94357 0.0
C2815 C 0.14365 0.10715 0.9291 0.0
C2816 C 0.12253 0.1161 0.9231 0.0
C2817 C 0.0979 0.12348 0.92741 0.0
C2818 C 0.09441 0.12175 0.93756 0.0
C2819 C 0.12758 0.12086 0.91254 0.0
C2820 C 0.12442 0.14721 0.90906 0.0
C2821 C 0.13954 0.10108 0.9064 0.0
C2822 C 0.14027 0.07208 0.90908 0.0
C2823 C 0.11695 0.05921 0.91256 0.0
C2824 C 0.11697 0.03147 0.91422 0.0
C2825 C 0.1401 1.01628 0.91235 0.0
C2826 C 0.16348 0.02886 0.90905 0.0
C2827 C 0.16368 0.05662 0.90747 0.0
H2828 H 0.13994 0.99474 0.91344 0.0
H2829 H 0.13209 0.25888 0.88955 0.0
H2830 H 0.63796 0.48607 0.64281 0.0
H2831 H 0.66748 0.45944 0.65291 0.0
H2832 H 0.65732 0.39154 0.63349 0.0
H2833 H 0.62779 0.4186 0.62306 0.0
H2834 H 0.64077 0.37967 0.65124 0.0
H2835 H 0.72326 0.41297 0.63931 0.0
H2836 H 0.75663 0.44547 0.63313 0.0
H2837 H 0.75202 0.48965 0.66019 0.0
H2838 H 0.718 0.45786 0.66637 0.0
H2839 H 0.69268 0.32298 0.6962 0.0
H2840 H 0.68879 0.33359 0.67874 0.0
H2841 H 0.68462 0.41816 0.68581 0.0
H2842 H 0.68901 0.40778 0.70319 0.0
H2843 H 0.71969 0.40835 0.67089 0.0
H2844 H 0.62792 0.38054 0.68012 0.0
H2845 H 0.59564 0.34718 0.68647 0.0
H2846 H 0.61933 0.2914 0.66396 0.0
H2847 H 0.65195 0.32437 0.65753 0.0
C2848 C 0.64295 0.46597 0.64033 0.0
C2849 C 0.63001 0.4544 0.63218 0.0
C2850 C 0.66001 0.45063 0.64617 0.0
C2851 C 0.66462 0.4234 0.64399 0.0
C2852 C 0.65396 0.4125 0.63532 0.0
C2853 C 0.63695 0.42796 0.62941 0.0
C2854 C 0.67542 0.40581 0.65181 0.0
C2855 C 0.65862 0.38529 0.65534 0.0
C2856 C 0.69858 0.4131 0.6572 0.0
C2857 C 0.71835 0.43283 0.65337 0.0
C2858 C 0.72924 0.42971 0.64392 0.0
C2859 C 0.74824 0.44803 0.6404 0.0
C2860 C 0.75652 0.46956 0.64628 0.0
C2861 C 0.74569 0.47291 0.65566 0.0
C2862 C 0.72662 0.45471 0.65918 0.0
C2863 C 0.69055 0.3438 0.69402 0.0
C2864 C 0.69095 0.36457 0.70105 0.0
C2865 C 0.68851 0.34982 0.68405 0.0
C2866 C 0.68657 0.37667 0.68099 0.0
C2867 C 0.68641 0.39733 0.68802 0.0
C2868 C 0.68858 0.39135 0.69796 0.0
C2869 C 0.68409 0.38371 0.67051 0.0
C2870 C 0.70253 0.40205 0.66654 0.0
C2871 C 0.66254 0.3743 0.66468 0.0
C2872 C 0.64254 0.35477 0.66842 0.0
C2873 C 0.6263 0.36111 0.67655 0.0
C2874 C 0.60795 0.34229 0.68016 0.0
C2875 C 0.60548 0.31717 0.67563 0.0
C2876 C 0.62127 0.31086 0.66746 0.0
C2877 C 0.63969 0.3296 0.66383 0.0
H2878 H 0.59132 0.30259 0.67845 0.0
H2879 H 0.77129 0.48367 0.64356 0.0
H2880 H 0.15851 0.27006 0.35687 0.0
H2881 H 0.11207 0.28753 0.35607 0.0
H2882 H 0.08552 0.2237 0.37494 0.0
H2883 H 0.13125 0.20559 0.3752 0.0
H2884 H 0.04473 0.22969 0.36545 0.0
H2885 H 0.09451 0.30463 0.37891 0.0
H2886 H 0.13028 0.33905 0.37859 0.0
H2887 H 0.0964 0.37266 0.35242 0.0
H2888 H 0.06136 0.33755 0.3523 0.0
H2889 H 0.90834 0.28416 0.37326 0.0
H2890 H 0.95445 0.26632 0.37365 0.0
H2891 H 0.98225 0.33568 0.3578 0.0
H2892 H 0.93675 0.35434 0.35829 0.0
H2893 H 1.02279 0.32664 0.36555 0.0
H2894 H 0.97473 0.25224 0.35104 0.0
H2895 H 0.94045 0.21645 0.35006 0.0
H2896 H 0.97057 0.18183 0.37669 0.0
H2897 H 1.00452 0.21781 0.37797 0.0
C2898 C 0.14299 0.25965 0.36093 0.0
C2899 C 0.15008 0.23591 0.36615 0.0
C2900 C 0.11563 0.27002 0.36056 0.0
C2901 C 0.09332 0.25796 0.36562 0.0
C2902 C 0.10078 0.23433 0.37083 0.0
C2903 C 0.1278 0.22377 0.37104 0.0
C2904 C 0.06285 0.26896 0.36551 0.0
C2905 C 0.04042 0.25105 0.36559 0.0
C2906 C 0.05497 0.29683 0.36538 0.0
C2907 C 0.07558 0.31828 0.36556 0.0
C2908 C 0.09486 0.31929 0.37308 0.0
C2909 C 0.11499 0.3389 0.37296 0.0
C2910 C 0.1155 0.35816 0.36554 0.0
C2911 C 0.09599 0.35773 0.35817 0.0
C2912 C 0.0761 0.33787 0.35815 0.0
C2913 C 0.92404 0.29558 0.36968 0.0
C2914 C 0.91732 0.32096 0.36553 0.0
C2915 C 0.9513 0.28501 0.36981 0.0
C2916 C 0.97395 0.29846 0.36547 0.0
C2917 C 0.96681 0.32376 0.36129 0.0
C2918 C 0.93988 0.33464 0.36145 0.0
C2919 C 1.00444 0.28738 0.36542 0.0
C2920 C 0.02694 0.30526 0.36536 0.0
C2921 C 1.01237 0.25946 0.3654 0.0
C2922 C 0.99193 0.23791 0.36466 0.0
C2923 C 0.97389 0.2371 0.35672 0.0
C2924 C 0.95448 0.21682 0.35613 0.0
C2925 C 0.95322 0.19697 0.36334 0.0
C2926 C 0.97144 0.19731 0.37114 0.0
C2927 C 0.99072 0.21768 0.37182 0.0
H2928 H 0.93818 0.18129 0.36288 0.0
H2929 H 0.13102 0.3734 0.36548 0.0
H2930 H 0.93985 0.68384 0.61888 0.0
H2931 H 0.95824 0.72919 0.61851 0.0
H2932 H 0.0379 0.69727 0.62251 0.0
H2933 H 1.0192 0.651 0.62283 0.0
H2934 H 0.03592 0.7444 0.63301 0.0
H2935 H 1.01101 0.72871 0.59952 0.0
H2936 H 0.98065 0.71637 0.58593 0.0
H2937 H 0.92621 0.77963 0.59428 0.0
H2938 H 0.9561 0.79213 0.608 0.0
H2939 H 0.10281 0.87052 0.62422 0.0
H2940 H 0.08442 0.82537 0.62411 0.0
H2941 H 1.00682 0.85691 0.61619 0.0
H2942 H 1.02594 0.90303 0.61595 0.0
H2943 H 1.0071 0.80989 0.60781 0.0
H2944 H 0.0291 0.82569 0.64117 0.0
H2945 H 0.05657 0.83803 0.65555 0.0
H2946 H 0.11301 0.77531 0.64853 0.0
H2947 H 0.08603 0.76277 0.63406 0.0
C2948 C 0.96147 0.68588 0.61956 0.0
C2949 C 0.97744 0.66218 0.62074 0.0
C2950 C 0.97226 0.71266 0.61931 0.0
C2951 C 1.00014 0.71843 0.62032 0.0
C2952 C 1.01639 0.69482 0.62162 0.0
C2953 C 1.0055 0.66767 0.62174 0.0
C2954 C 1.01155 0.74849 0.62011 0.0
C2955 C 0.02976 0.75828 0.62733 0.0
C2956 C 1.0036 0.76856 0.61309 0.0
C2957 C 0.98567 0.76119 0.60484 0.0
C2958 C 0.99248 0.73987 0.59849 0.0
C2959 C 0.97537 0.73286 0.59076 0.0
C2960 C 0.95148 0.74716 0.58926 0.0
C2961 C 0.9447 0.76855 0.59546 0.0
C2962 C 0.96173 0.77562 0.60321 0.0
C2963 C 0.08168 0.86845 0.62243 0.0
C2964 C 0.06647 0.89203 0.62015 0.0
C2965 C 0.07077 0.84174 0.6225 0.0
C2966 C 0.04336 0.83587 0.62042 0.0
C2967 C 0.02792 0.85935 0.61796 0.0
C2968 C 0.03901 0.88645 0.61787 0.0
C2969 C 0.03175 0.80584 0.62068 0.0
C2970 C 1.01341 0.79604 0.61348 0.0
C2971 C 0.03926 0.78587 0.62783 0.0
C2972 C 0.0557 0.79349 0.63646 0.0
C2973 C 0.04749 0.81467 0.64265 0.0
C2974 C 0.06294 0.82166 0.65084 0.0
C2975 C 0.08655 0.8075 0.65295 0.0
C2976 C 0.09472 0.78628 0.6469 0.0
C2977 C 0.07935 0.7792 0.6387 0.0
H2978 H 0.09847 0.81294 0.65929 0.0
H2979 H 0.93826 0.7417 0.58327 0.0
H2980 H 0.43474 0.86097 0.85947 0.0
H2981 H 0.48028 0.8425 0.85948 0.0
H2982 H 0.44991 0.76745 0.87034 0.0
H2983 H 0.40351 0.78617 0.87024 0.0
H2984 H 0.4991 0.77617 0.87954 0.0
H2985 H 0.47712 0.77902 0.84523 0.0
H2986 H 0.46197 0.80017 0.82986 0.0
H2987 H 0.52582 0.858 0.83197 0.0
H2988 H 0.54115 0.8374 0.84742 0.0
H2989 H 0.62316 0.70295 0.8725 0.0
H2990 H 0.57795 0.72174 0.87214 0.0
H2991 H 0.60854 0.79376 0.8589 0.0
H2992 H 0.65471 0.77446 0.85917 0.0
H2993 H 0.55962 0.78749 0.85098 0.0
H2994 H 0.58017 0.78929 0.88495 0.0
H2995 H 0.59607 0.77221 0.9009 0.0
H2996 H 0.53663 0.70963 0.89992 0.0
H2997 H 0.52104 0.72589 0.88381 0.0
C2998 C 0.43717 0.84025 0.86172 0.0
C2999 C 0.41386 0.82549 0.86461 0.0
C3000 C 0.46404 0.82941 0.86173 0.0
C3001 C 0.4703 0.80281 0.86478 0.0
C3002 C 0.44708 0.78788 0.86782 0.0
C3003 C 0.41982 0.7987 0.86766 0.0
C3004 C 0.50046 0.7914 0.86482 0.0
C3005 C 0.51178 0.77831 0.87313 0.0
C3006 C 0.51917 0.79452 0.85684 0.0
C3007 C 0.51013 0.80681 0.84753 0.0
C3008 C 0.48783 0.79635 0.84245 0.0
C3009 C 0.47923 0.80822 0.83371 0.0
C3010 C 0.49289 0.83045 0.82995 0.0
C3011 C 0.51524 0.8408 0.8349 0.0
C3012 C 0.52391 0.82902 0.84364 0.0
C3013 C 0.62085 0.72293 0.86949 0.0
C3014 C 0.64411 0.73653 0.86589 0.0
C3015 C 0.59416 0.73408 0.86937 0.0
C3016 C 0.58806 0.76003 0.86564 0.0
C3017 C 0.61123 0.77384 0.86191 0.0
C3018 C 0.63833 0.76261 0.8621 0.0
C3019 C 0.55806 0.7718 0.86563 0.0
C3020 C 0.54682 0.78506 0.85735 0.0
C3021 C 0.53956 0.76922 0.87369 0.0
C3022 C 0.54927 0.75892 0.88323 0.0
C3023 C 0.57059 0.77182 0.88813 0.0
C3024 C 0.57959 0.76226 0.89718 0.0
C3025 C 0.5673 0.73991 0.90145 0.0
C3026 C 0.5461 0.72698 0.89663 0.0
C3027 C 0.53715 0.73637 0.88754 0.0
H3028 H 0.57425 0.73258 0.90847 0.0
H3029 H 0.48619 0.83963 0.82319 0.0
H3030 H 0.43917 0.18049 0.1186 0.0
H3031 H 0.45744 0.22627 0.11819 0.0
H3032 H 0.53665 0.19504 0.12366 0.0
H3033 H 0.51817 0.14857 0.12367 0.0
H3034 H 0.52486 0.24391 0.13568 0.0
H3035 H 0.52095 0.22174 0.10132 0.0
H3036 H 0.49835 0.20687 0.08616 0.0
H3037 H 0.44188 0.27202 0.08871 0.0
H3038 H 0.46392 0.28707 0.10397 0.0
H3039 H 0.59766 0.36901 0.12929 0.0
H3040 H 0.57856 0.32393 0.12958 0.0
H3041 H 0.50933 0.35233 0.11381 0.0
H3042 H 0.5288 0.39824 0.11348 0.0
H3043 H 0.51448 0.30445 0.1072 0.0
H3044 H 0.51479 0.32907 0.14007 0.0
H3045 H 0.52434 0.34113 0.15722 0.0
H3046 H 0.57621 0.27244 0.15991 0.0
H3047 H 0.56776 0.26045 0.14265 0.0
C3048 C 0.46066 0.18289 0.1196 0.0
C3049 C 0.47681 0.15948 0.12108 0.0
C3050 C 0.47131 0.20979 0.11938 0.0
C3051 C 0.49898 0.2157 0.12092 0.0
C3052 C 0.51529 0.19235 0.12247 0.0
C3053 C 0.50463 0.1652 0.12241 0.0
C3054 C 0.5103 0.24565 0.12096 0.0
C3055 C 0.52317 0.2568 0.12932 0.0
C3056 C 0.50709 0.26427 0.11303 0.0
C3057 C 0.49395 0.25539 0.10383 0.0
C3058 C 0.50359 0.23278 0.09869 0.0
C3059 C 0.4909 0.22434 0.09007 0.0
C3060 C 0.46865 0.23845 0.08648 0.0
C3061 C 0.4591 0.26109 0.0915 0.0
C3062 C 0.4717 0.2696 0.10013 0.0
C3063 C 0.57821 0.3662 0.12586 0.0
C3064 C 0.56543 0.38876 0.12135 0.0
C3065 C 0.5669 0.33963 0.12612 0.0
C3066 C 0.54171 0.33294 0.12183 0.0
C3067 C 0.52869 0.35546 0.11727 0.0
C3068 C 0.53997 0.38244 0.11711 0.0
C3069 C 0.53001 0.30298 0.12192 0.0
C3070 C 0.51683 0.29174 0.11358 0.0
C3071 C 0.53218 0.28453 0.13005 0.0
C3072 C 0.54066 0.29391 0.13996 0.0
C3073 C 0.52867 0.31682 0.14422 0.0
C3074 C 0.53374 0.32354 0.15401 0.0
C3075 C 0.55051 0.30733 0.15971 0.0
C3076 C 0.56293 0.2848 0.15553 0.0
C3077 C 0.5582 0.27819 0.1457 0.0
H3078 H 0.55422 0.31245 0.16731 0.0
H3079 H 0.45885 0.23188 0.07981 0.0
H3080 H 0.92707 0.69681 0.2393 0.0
H3081 H 0.97297 0.71437 0.23939 0.0
H3082 H 0.94485 0.78789 0.22646 0.0
H3083 H 0.89813 0.77022 0.22653 0.0
H3084 H 0.99425 0.77557 0.21783 0.0
H3085 H 0.96999 0.78083 0.25192 0.0
H3086 H 0.95353 0.76329 0.26771 0.0
H3087 H 1.01675 0.70427 0.26784 0.0
H3088 H 0.03339 0.72124 0.25198 0.0
H3089 H 0.12071 0.84561 0.22286 0.0
H3090 H 0.07506 0.82778 0.22303 0.0
H3091 H 0.1014 0.76208 0.24101 0.0
H3092 H 0.14789 0.78041 0.2409 0.0
H3093 H 0.05275 0.76987 0.24715 0.0
H3094 H 0.07502 0.7575 0.21379 0.0
H3095 H 0.08924 0.76547 0.19673 0.0
H3096 H 0.03148 0.82944 0.19424 0.0
H3097 H 1.0172 0.82204 0.21137 0.0
C3098 C 0.93008 0.71705 0.23662 0.0
C3099 C 0.9073 0.73176 0.23315 0.0
C3100 C 0.95714 0.72734 0.23667 0.0
C3101 C 0.96412 0.75319 0.23305 0.0
C3102 C 0.94144 0.76803 0.22943 0.0
C3103 C 0.91399 0.75784 0.22957 0.0
C3104 C 0.99447 0.76391 0.23297 0.0
C3105 C 1.00656 0.77468 0.22438 0.0
C3106 C 1.01261 0.76225 0.24117 0.0
C3107 C 1.00279 0.75216 0.25072 0.0
C3108 C 0.98028 0.764 0.25529 0.0
C3109 C 0.97093 0.75418 0.26425 0.0
C3110 C 0.98405 0.73264 0.26876 0.0
C3111 C 1.00659 0.72093 0.26433 0.0
C3112 C 1.01601 0.73066 0.25536 0.0
C3113 C 0.11729 0.82719 0.22687 0.0
C3114 C 0.13947 0.81509 0.23185 0.0
C3115 C 0.0904 0.81656 0.22688 0.0
C3116 C 0.08295 0.79273 0.23191 0.0
C3117 C 0.1051 0.78035 0.23695 0.0
C3118 C 0.13243 0.79095 0.23685 0.0
C3119 C 0.05259 0.78185 0.23201 0.0
C3120 C 0.04047 0.77101 0.2406 0.0
C3121 C 0.0346 0.78275 0.22373 0.0
C3122 C 0.04499 0.7892 0.21384 0.0
C3123 C 0.06561 0.77351 0.20965 0.0
C3124 C 0.07361 0.77785 0.19996 0.0
C3125 C 0.06112 0.79781 0.19438 0.0
C3126 C 0.04094 0.81381 0.19854 0.0
C3127 C 0.03291 0.80958 0.20824 0.0
H3128 H 0.06706 0.80088 0.18684 0.0
H3129 H 0.97677 0.72505 0.2757 0.0
H3130 H 0.45676 0.87507 0.47734 0.0
H3131 H 0.47486 0.82941 0.47771 0.0
H3132 H 0.55483 0.86052 0.47395 0.0
H3133 H 0.53644 0.90701 0.47373 0.0
H3134 H 0.55138 0.81283 0.46307 0.0
H3135 H 0.52879 0.83031 0.49674 0.0
H3136 H 0.49914 0.84364 0.51043 0.0
H3137 H 0.44385 0.78065 0.50283 0.0
H3138 H 0.47302 0.76715 0.489 0.0
H3139 H 0.61748 0.68534 0.47222 0.0
H3140 H 0.59985 0.73111 0.47201 0.0
H3141 H 0.52198 0.70177 0.48055 0.0
H3142 H 0.54001 0.65522 0.48084 0.0
H3143 H 0.52398 0.74881 0.48893 0.0
H3144 H 0.543 0.73018 0.45587 0.0
H3145 H 0.56777 0.71691 0.44096 0.0
H3146 H 0.62401 0.78119 0.44565 0.0
H3147 H 0.59989 0.79451 0.46072 0.0
C3148 C 0.47837 0.87273 0.47672 0.0
C3149 C 0.49458 0.89623 0.47569 0.0
C3150 C 0.48899 0.84581 0.47696 0.0
C3151 C 0.51687 0.83976 0.47601 0.0
C3152 C 0.53332 0.86319 0.47481 0.0
C3153 C 0.52263 0.89045 0.47476 0.0
C3154 C 0.52806 0.80959 0.47626 0.0
C3155 C 0.5456 0.79926 0.46889 0.0
C3156 C 0.52043 0.78994 0.48345 0.0
C3157 C 0.50298 0.79787 0.49179 0.0
C3158 C 0.51023 0.81941 0.49795 0.0
C3159 C 0.49352 0.82698 0.50574 0.0
C3160 C 0.4696 0.81304 0.50748 0.0
C3161 C 0.46238 0.79145 0.50146 0.0
C3162 C 0.479 0.78381 0.49365 0.0
C3163 C 0.59646 0.68811 0.47407 0.0
C3164 C 0.5808 0.66507 0.47657 0.0
C3165 C 0.58602 0.71511 0.47386 0.0
C3166 C 0.55881 0.72173 0.47609 0.0
C3167 C 0.54298 0.69874 0.47871 0.0
C3168 C 0.55349 0.67141 0.47887 0.0
C3169 C 0.54764 0.75197 0.47578 0.0
C3170 C 0.53 0.76234 0.48312 0.0
C3171 C 0.5547 0.77148 0.46842 0.0
C3172 C 0.56984 0.76309 0.45953 0.0
C3173 C 0.56086 0.74127 0.45381 0.0
C3174 C 0.57475 0.73377 0.44531 0.0
C3175 C 0.59753 0.74812 0.44238 0.0
C3176 C 0.60644 0.77 0.44795 0.0
C3177 C 0.59268 0.77752 0.45649 0.0
H3178 H 0.6082 0.74234 0.43578 0.0
H3179 H 0.45668 0.81895 0.51351 0.0
H3180 H 0.64701 0.27829 0.73 0.0
H3181 H 0.60055 0.26027 0.73011 0.0
H3182 H 0.56921 0.34068 0.73236 0.0
H3183 H 0.61503 0.35845 0.73214 0.0
H3184 H 0.5356 0.31511 0.74252 0.0
H3185 H 0.56604 0.29235 0.71048 0.0
H3186 H 0.5894 0.27135 0.69643 0.0
H3187 H 0.57101 0.19294 0.70765 0.0
H3188 H 0.54818 0.21339 0.72187 0.0
H3189 H 0.39341 0.27619 0.73409 0.0
H3190 H 0.43935 0.29523 0.73378 0.0
H3191 H 0.4723 0.21571 0.73035 0.0
H3192 H 0.42693 0.19708 0.73042 0.0
H3193 H 0.50459 0.24194 0.72069 0.0
H3194 H 0.47519 0.26592 0.75328 0.0
H3195 H 0.44553 0.28755 0.76551 0.0
H3196 H 0.45911 0.3644 0.75214 0.0
H3197 H 0.48865 0.34316 0.73977 0.0
C3198 C 0.63041 0.29235 0.73057 0.0
C3199 C 0.63622 0.3204 0.73113 0.0
C3200 C 0.60309 0.28185 0.73054 0.0
C3201 C 0.57954 0.29854 0.73118 0.0
C3202 C 0.58564 0.32641 0.73188 0.0
C3203 C 0.61267 0.33683 0.73174 0.0
C3204 C 0.54918 0.28777 0.73127 0.0
C3205 C 0.52927 0.29916 0.73761 0.0
C3206 C 0.53887 0.2666 0.72512 0.0
C3207 C 0.55565 0.25443 0.71731 0.0
C3208 C 0.56753 0.27064 0.71007 0.0
C3209 C 0.58052 0.25883 0.70204 0.0
C3210 C 0.58147 0.23085 0.70113 0.0
C3211 C 0.5701 0.21461 0.70835 0.0
C3212 C 0.5573 0.22629 0.71642 0.0
C3213 C 0.41029 0.26254 0.73336 0.0
C3214 C 0.40509 0.23446 0.73243 0.0
C3215 C 0.43733 0.27363 0.73324 0.0
C3216 C 0.46118 0.2575 0.73223 0.0
C3217 C 0.45563 0.2296 0.73117 0.0
C3218 C 0.42889 0.21864 0.73128 0.0
C3219 C 0.49135 0.26875 0.73208 0.0
C3220 C 0.51113 0.25759 0.72569 0.0
C3221 C 0.5015 0.29013 0.73814 0.0
C3222 C 0.4839 0.30293 0.74556 0.0
C3223 C 0.47173 0.28741 0.75293 0.0
C3224 C 0.45496 0.2996 0.75988 0.0
C3225 C 0.45038 0.32732 0.75958 0.0
C3226 C 0.46264 0.34293 0.75235 0.0
C3227 C 0.47941 0.33083 0.74537 0.0
H3228 H 0.43739 0.33672 0.76497 0.0
H3229 H 0.5909 0.22166 0.69482 0.0
H3230 H 0.03347 0.16198 0.97422 0.0
H3231 H 1.01523 0.20843 0.97451 0.0
H3232 H 0.09561 0.23968 0.97675 0.0
H3233 H 0.1136 0.19393 0.97626 0.0
H3234 H 0.06862 0.27264 0.98741 0.0
H3235 H 0.05001 0.24151 0.95535 0.0
H3236 H 0.03108 0.21592 0.94149 0.0
H3237 H 0.95117 0.2382 0.95036 0.0
H3238 H 0.96943 0.26274 0.96457 0.0
H3239 H 0.03116 0.41529 0.97969 0.0
H3240 H 0.05003 0.36927 0.97938 0.0
H3241 H 0.97108 0.33731 0.97381 0.0
H3242 H 0.9527 0.38273 0.97386 0.0
H3243 H 0.99835 0.30491 0.96463 0.0
H3244 H 1.01836 0.33229 0.99796 0.0
H3245 H 0.03861 0.36141 1.01064 0.0
H3246 H 0.11686 0.34903 0.99798 0.0
H3247 H 0.09702 0.32 0.98517 0.0
C3248 C 0.04746 0.17855 0.97486 0.0
C3249 C 0.07559 0.17276 0.9753 0.0
C3250 C 0.03684 0.20584 0.97494 0.0
C3251 C 0.05348 0.22935 0.9756 0.0
C3252 C 0.0814 0.22325 0.97625 0.0
C3253 C 0.09194 0.19628 0.97597 0.0
C3254 C 0.04264 0.25969 0.97569 0.0
C3255 C 0.05327 0.27925 0.98231 0.0
C3256 C 1.02232 0.27029 0.96924 0.0
C3257 C 1.01114 0.2536 0.96117 0.0
C3258 C 0.02835 0.24038 0.95452 0.0
C3259 C 1.01771 0.22606 0.94657 0.0
C3260 C 0.98989 0.22519 0.9451 0.0
C3261 C 0.97266 0.23854 0.95158 0.0
C3262 C 0.98315 0.25253 0.95962 0.0
C3263 C 1.01758 0.39861 0.97849 0.0
C3264 C 0.98975 0.40416 0.97692 0.0
C3265 C 0.02855 0.37148 0.97838 0.0
C3266 C 1.01253 0.34783 0.97676 0.0
C3267 C 0.9849 0.35375 0.97511 0.0
C3268 C 0.97407 0.38057 0.9752 0.0
C3269 C 1.02365 0.31755 0.97656 0.0
C3270 C 1.0133 0.29808 0.96985 0.0
C3271 C 0.04423 0.307 0.98288 0.0
C3272 C 0.05619 0.32419 0.99058 0.0
C3273 C 0.03987 0.33587 0.99787 0.0
C3274 C 0.05127 0.35234 1.00508 0.0
C3275 C 0.079 0.35711 1.0051 0.0
C3276 C 0.09539 0.34534 0.99794 0.0
C3277 C 0.08409 0.32885 0.99072 0.0
H3278 H 0.08778 0.36989 1.01068 0.0
H3279 H 0.98169 0.21435 0.93889 0.0
H3280 H 0.12492 0.69384 0.72411 0.0
H3281 H 0.07898 0.71081 0.72464 0.0
H3282 H 0.10866 0.7906 0.73009 0.0
H3283 H 0.15551 0.77312 0.72981 0.0
H3284 H 0.06263 0.78934 0.73968 0.0
H3285 H 0.07644 0.7632 0.70651 0.0
H3286 H 0.08949 0.73292 0.693 0.0
H3287 H 0.02845 0.67674 0.70165 0.0
H3288 H 1.01525 0.70657 0.71533 0.0
H3289 H 0.93395 0.85256 0.72961 0.0
H3290 H 0.9798 0.83516 0.7296 0.0
H3291 H 0.94951 0.75482 0.72612 0.0
H3292 H 0.90272 0.77257 0.72606 0.0
H3293 H 0.99572 0.75657 0.71552 0.0
H3294 H 0.98186 0.78435 0.74882 0.0
H3295 H 0.96984 0.8156 0.76221 0.0
H3296 H 0.03159 0.87015 0.75286 0.0
H3297 H 0.04378 0.83934 0.73936 0.0
C3298 C 0.12222 0.71515 0.72545 0.0
C3299 C 0.14546 0.73152 0.72692 0.0
C3300 C 0.09508 0.72518 0.72564 0.0
C3301 C 0.08849 0.75271 0.72719 0.0
C3302 C 0.11168 0.76931 0.72882 0.0
C3303 C 0.13916 0.75913 0.72865 0.0
C3304 C 0.05808 0.76342 0.72715 0.0
C3305 C 0.04842 0.78215 0.73425 0.0
C3306 C 0.03769 0.75465 0.72035 0.0
C3307 C 0.04503 0.73701 0.712 0.0
C3308 C 0.06582 0.74437 0.70554 0.0
C3309 C 0.07323 0.72729 0.69784 0.0
C3310 C 0.05979 0.70291 0.69645 0.0
C3311 C 0.03885 0.69562 0.70274 0.0
C3312 C 0.03136 0.71263 0.71046 0.0
C3313 C 0.93648 0.831 0.72897 0.0
C3314 C 0.91309 0.81452 0.72803 0.0
C3315 C 0.96355 0.82078 0.729 0.0
C3316 C 0.9699 0.79302 0.72806 0.0
C3317 C 0.9466 0.77628 0.72697 0.0
C3318 C 0.91916 0.7866 0.72703 0.0
C3319 C 1.00025 0.78226 0.72811 0.0
C3320 C 1.00991 0.76361 0.72099 0.0
C3321 C 1.02067 0.79125 0.73486 0.0
C3322 C 1.01352 0.80969 0.743 0.0
C3323 C 0.99275 0.8031 0.74958 0.0
C3324 C 0.98593 0.82071 0.7572 0.0
C3325 C 0.99988 0.84489 0.75837 0.0
C3326 C 1.02075 0.85145 0.75194 0.0
C3327 C 0.02764 0.83391 0.7443 0.0
H3328 H 0.99457 0.8585 0.76427 0.0
H3329 H 0.0656 0.68966 0.6905 0.0
H3330 H 1.019 0.15112 0.48387 0.0
H3331 H 0.037 0.19739 0.48403 0.0
H3332 H 0.95717 0.22864 0.47954 0.0
H3333 H 0.93956 0.18287 0.47914 0.0
H3334 H 0.98374 0.2628 0.4707 0.0
H3335 H 1.00412 0.23181 0.50327 0.0
H3336 H 1.02421 0.20192 0.51568 0.0
H3337 H 0.10287 0.21633 0.50374 0.0
H3338 H 0.08319 0.2461 0.49119 0.0
H3339 H 1.02038 0.4045 0.48108 0.0
H3340 H 1.00168 0.35836 0.48092 0.0
H3341 H 0.08144 0.32594 0.48428 0.0
H3342 H 0.09979 0.37131 0.48448 0.0
H3343 H 0.05466 0.29256 0.49372 0.0
H3344 H 0.03506 0.3243 0.46152 0.0
H3345 H 1.01559 0.35315 0.44866 0.0
H3346 H 0.93607 0.33692 0.45948 0.0
H3347 H 0.95511 0.30828 0.47249 0.0
C3348 C 1.00504 0.16768 0.48299 0.0
C3349 C 0.97722 0.16185 0.4816 0.0
C3350 C 1.01551 0.19493 0.48315 0.0
C3351 C 0.99898 0.21844 0.482 0.0
C3352 C 0.97133 0.21229 0.4805 0.0
C3353 C 0.96097 0.1853 0.48032 0.0
C3354 C 1.0097 0.2488 0.48226 0.0
C3355 C 0.999 0.26896 0.47592 0.0
C3356 C 0.03029 0.25873 0.48872 0.0
C3357 C 0.04216 0.24093 0.49624 0.0
C3358 C 1.02568 0.22847 0.50326 0.0
C3359 C 0.03699 0.21158 0.51032 0.0
C3360 C 0.06479 0.20717 0.51048 0.0
C3361 C 0.08134 0.21972 0.5036 0.0
C3362 C 0.07012 0.23662 0.49651 0.0
C3363 C 0.03412 0.38773 0.48187 0.0
C3364 C 0.06218 0.39309 0.48288 0.0
C3365 C 1.02325 0.36059 0.48167 0.0
C3366 C 0.03959 0.33683 0.48248 0.0
C3367 C 0.06742 0.34253 0.48364 0.0
C3368 C 0.07818 0.36932 0.48375 0.0
C3369 C 0.0286 0.30661 0.48221 0.0
C3370 C 0.0393 0.28645 0.48853 0.0
C3371 C 1.00805 0.29672 0.47572 0.0
C3372 C 0.99655 0.31443 0.46807 0.0
C3373 C 1.01344 0.32712 0.46122 0.0
C3374 C 1.00248 0.34339 0.4539 0.0
C3375 C 0.97462 0.34695 0.45328 0.0
C3376 C 0.95766 0.33423 0.45999 0.0
C3377 C 0.96853 0.31798 0.46734 0.0
H3378 H 0.96622 0.35947 0.44757 0.0
H3379 H 0.07351 0.19407 0.51595 0.0
H3380 H 0.62942 0.20494 0.21718 0.0
H3381 H 0.58359 0.22221 0.21719 0.0
H3382 H 0.60932 0.2906 0.2341 0.0
H3383 H 0.65595 0.27267 0.23423 0.0
H3384 H 0.56237 0.28437 0.24045 0.0
H3385 H 0.58323 0.28536 0.20695 0.0
H3386 H 0.59262 0.2763 0.1894 0.0
H3387 H 0.52721 0.22029 0.18844 0.0
H3388 H 0.51769 0.2287 0.20591 0.0
H3389 H 0.43501 0.35475 0.23309 0.0
H3390 H 0.48104 0.33749 0.23307 0.0
H3391 H 0.45296 0.26241 0.22124 0.0
H3392 H 0.40617 0.27994 0.2213 0.0
H3393 H 0.50043 0.27305 0.21234 0.0
H3394 H 0.48059 0.27389 0.24678 0.0
H3395 H 0.46595 0.29421 0.26243 0.0
H3396 H 0.52826 0.35362 0.26014 0.0
H3397 H 0.54306 0.33384 0.24442 0.0
C3398 C 0.62588 0.22385 0.22093 0.0
C3399 C 0.648 0.23681 0.2257 0.0
C3400 C 0.5988 0.23415 0.22084 0.0
C3401 C 0.59108 0.25857 0.22552 0.0
C3402 C 0.61317 0.27181 0.23032 0.0
C3403 C 0.64063 0.26146 0.23036 0.0
C3404 C 0.56055 0.26915 0.22567 0.0
C3405 C 0.54936 0.28184 0.23414 0.0
C3406 C 0.54146 0.26636 0.21773 0.0
C3407 C 0.55 0.25758 0.20778 0.0
C3408 C 0.57137 0.27063 0.20304 0.0
C3409 C 0.5766 0.26573 0.19311 0.0
C3410 C 0.56059 0.24776 0.18785 0.0
C3411 C 0.53965 0.2342 0.19253 0.0
C3412 C 0.5344 0.23896 0.20246 0.0
C3413 C 0.43808 0.33422 0.23066 0.0
C3414 C 0.41534 0.31902 0.22749 0.0
C3415 C 0.4652 0.3241 0.23066 0.0
C3416 C 0.47217 0.2979 0.22733 0.0
C3417 C 0.4495 0.28255 0.22401 0.0
C3418 C 0.42203 0.29264 0.22416 0.0
C3419 C 0.50253 0.28736 0.2271 0.0
C3420 C 0.51359 0.2749 0.21864 0.0
C3421 C 0.52156 0.29067 0.23494 0.0
C3422 C 0.5128 0.30251 0.24439 0.0
C3423 C 0.49107 0.29139 0.24959 0.0
C3424 C 0.48275 0.30279 0.25847 0.0
C3425 C 0.49613 0.32523 0.26226 0.0
C3426 C 0.5179 0.33626 0.25719 0.0
C3427 C 0.52628 0.32494 0.2483 0.0
H3428 H 0.48967 0.33403 0.26914 0.0
H3429 H 0.56435 0.24449 0.18012 0.0
H3430 H 0.60451 0.87192 0.97883 0.0
H3431 H 0.58745 0.82615 0.97889 0.0
H3432 H 0.50726 0.85609 0.9837 0.0
H3433 H 0.5248 0.90277 0.98388 0.0
H3434 H 0.50583 0.81103 0.99253 0.0
H3435 H 0.53895 0.82234 0.96025 0.0
H3436 H 0.56983 0.83129 0.94646 0.0
H3437 H 0.62267 0.76871 0.95639 0.0
H3438 H 0.59239 0.75965 0.97032 0.0
H3439 H 0.44437 0.68182 0.9818 0.0
H3440 H 0.46171 0.72762 0.98182 0.0
H3441 H 0.54267 0.69704 0.98106 0.0
H3442 H 0.52501 0.65038 0.98102 0.0
H3443 H 0.54323 0.74205 0.97004 0.0
H3444 H 0.50796 0.73161 1.00258 0.0
H3445 H 0.47334 0.72078 1.01492 0.0
H3446 H 0.42117 0.78126 1.00293 0.0
H3447 H 0.45537 0.79223 0.99045 0.0
C3448 C 0.58308 0.86933 0.97991 0.0
C3449 C 0.56666 0.89261 0.98138 0.0
C3450 C 0.57299 0.84225 0.97982 0.0
C3451 C 0.54532 0.83574 0.98105 0.0
C3452 C 0.52866 0.85899 0.98265 0.0
C3453 C 0.53888 0.88641 0.98277 0.0
C3454 C 0.53453 0.80538 0.98088 0.0
C3455 C 0.51412 0.79641 0.98744 0.0
C3456 C 0.54458 0.78436 0.97451 0.0
C3457 C 0.56355 0.79062 0.96643 0.0
C3458 C 0.55734 0.81075 0.95957 0.0
C3459 C 0.57469 0.81578 0.95171 0.0
C3460 C 0.59823 0.80068 0.95058 0.0
C3461 C 0.60449 0.7805 0.95731 0.0
C3462 C 0.58724 0.77542 0.96519 0.0
C3463 C 0.46602 0.68431 0.98175 0.0
C3464 C 0.4827 0.66091 0.98157 0.0
C3465 C 0.4762 0.71134 0.98181 0.0
C3466 C 0.50412 0.7176 0.98165 0.0
C3467 C 0.52107 0.69423 0.98129 0.0
C3468 C 0.51078 0.66687 0.98133 0.0
C3469 C 0.51492 0.74786 0.98174 0.0
C3470 C 0.53522 0.75676 0.97515 0.0
C3471 C 0.50456 0.76888 0.98797 0.0
C3472 C 0.48413 0.76257 0.99553 0.0
C3473 C 0.48905 0.74251 1.00255 0.0
C3474 C 0.46951 0.73635 1.00957 0.0
C3475 C 0.44504 0.75027 1.00969 0.0
C3476 C 0.44012 0.77046 1.00282 0.0
C3477 C 0.45958 0.77668 0.99578 0.0
H3478 H 0.42992 0.74545 1.01512 0.0
H3479 H 0.61157 0.80456 0.94447 0.0
H3480 H 0.11736 0.361 0.87372 0.0
H3481 H 0.07159 0.34389 0.87345 0.0
H3482 H 0.10193 0.26336 0.87003 0.0
H3483 H 0.14858 0.28099 0.86994 0.0
H3484 H 0.05751 0.25984 0.86126 0.0
H3485 H 0.06356 0.29758 0.89348 0.0
H3486 H 0.07082 0.33089 0.90668 0.0
H3487 H 1.01445 0.38461 0.89306 0.0
H3488 H 1.007 0.35169 0.87975 0.0
H3489 H 0.92825 0.1992 0.87206 0.0
H3490 H 0.9738 0.21711 0.87206 0.0
H3491 H 0.94211 0.2975 0.87098 0.0
H3492 H 0.89567 0.27911 0.87091 0.0
H3493 H 0.98671 0.3012 0.88199 0.0
H3494 H 0.97857 0.25974 0.85046 0.0
H3495 H 0.96911 0.22331 0.83864 0.0
H3496 H 0.02947 0.1739 0.85218 0.0
H3497 H 0.03906 0.20993 0.86416 0.0
C3498 C 0.11483 0.33949 0.8729 0.0
C3499 C 0.13823 0.32301 0.87183 0.0
C3500 C 0.08773 0.32935 0.87289 0.0
C3501 C 0.08131 0.30156 0.87201 0.0
C3502 C 0.1047 0.28485 0.8708 0.0
C3503 C 0.13213 0.29513 0.87073 0.0
C3504 C 0.05092 0.29066 0.8721 0.0
C3505 C 0.0425 0.26896 0.86599 0.0
C3506 C 0.02936 0.3018 0.87795 0.0
C3507 C 0.03499 0.32231 0.88557 0.0
C3508 C 0.053 0.31665 0.89324 0.0
C3509 C 0.05707 0.33541 0.90075 0.0
C3510 C 0.04318 0.35989 0.90068 0.0
C3511 C 1.02531 0.36572 0.89307 0.0
C3512 C 1.02117 0.34702 0.88554 0.0
C3513 C 0.93039 0.22083 0.87171 0.0
C3514 C 0.90669 0.23713 0.87141 0.0
C3515 C 0.95734 0.23135 0.87166 0.0
C3516 C 0.96327 0.25929 0.87131 0.0
C3517 C 0.93961 0.27589 0.87118 0.0
C3518 C 0.91235 0.26521 0.87113 0.0
C3519 C 0.99349 0.27044 0.8712 0.0
C3520 C 1.00182 0.29216 0.87729 0.0
C3521 C 1.01502 0.2591 0.86544 0.0
C3522 C 1.00934 0.23743 0.85826 0.0
C3523 C 0.9897 0.24104 0.85095 0.0
C3524 C 0.98433 0.22047 0.84422 0.0
C3525 C 0.99863 0.19628 0.84468 0.0
C3526 C 1.01838 0.19263 0.85185 0.0
C3527 C 1.0238 0.21313 0.8586 0.0
H3528 H 0.99445 0.18038 0.83946 0.0
H3529 H 0.04618 0.37428 0.90655 0.0
H3530 H 0.53241 0.40311 0.61408 0.0
H3531 H 0.5514 0.35716 0.61391 0.0
H3532 H 0.47217 0.32449 0.61818 0.0
H3533 H 0.45357 0.36995 0.61858 0.0
H3534 H 0.49919 0.29053 0.62704 0.0
H3535 H 0.51966 0.32212 0.59462 0.0
H3536 H 0.53923 0.35233 0.58222 0.0
H3537 H 0.61805 0.33939 0.59426 0.0
H3538 H 0.59889 0.30931 0.6068 0.0
H3539 H 0.5375 0.14998 0.61587 0.0
H3540 H 0.5187 0.19613 0.61586 0.0
H3541 H 0.59877 0.22859 0.61472 0.0
H3542 H 0.61732 0.18302 0.61481 0.0
H3543 H 0.57159 0.26231 0.60429 0.0
H3544 H 0.55172 0.22975 0.63626 0.0
H3545 H 0.53288 0.19833 0.64838 0.0
H3546 H 0.45334 0.21275 0.63724 0.0
H3547 H 0.47178 0.24395 0.62491 0.0
C3548 C 0.51878 0.38631 0.61492 0.0
C3549 C 0.49081 0.39168 0.61625 0.0
C3550 C 0.52984 0.35923 0.61476 0.0
C3551 C 0.51381 0.3354 0.61585 0.0
C3552 C 0.48601 0.34109 0.61728 0.0
C3553 C 0.47506 0.36791 0.61746 0.0
C3554 C 0.52521 0.3052 0.6156 0.0
C3555 C 0.51477 0.28476 0.62188 0.0
C3556 C 0.54624 0.2957 0.6092 0.0
C3557 C 0.55781 0.31372 0.60171 0.0
C3558 C 0.54114 0.32586 0.59465 0.0
C3559 C 0.55216 0.34293 0.5876 0.0
C3560 C 0.57985 0.34784 0.58747 0.0
C3561 C 0.5966 0.33562 0.59438 0.0
C3562 C 0.58567 0.31854 0.60146 0.0
C3563 C 0.55132 0.16675 0.61555 0.0
C3564 C 0.57951 0.16135 0.61528 0.0
C3565 C 0.54036 0.19387 0.61564 0.0
C3566 C 0.55673 0.21761 0.61538 0.0
C3567 C 0.58476 0.21195 0.61491 0.0
C3568 C 0.59562 0.1851 0.61497 0.0
C3569 C 0.54539 0.24774 0.61564 0.0
C3570 C 0.55591 0.26813 0.6094 0.0
C3571 C 0.52446 0.25718 0.62207 0.0
C3572 C 0.51318 0.23893 0.62958 0.0
C3573 C 0.53023 0.22611 0.63635 0.0
C3574 C 0.51963 0.20834 0.64326 0.0
C3575 C 0.49195 0.20346 0.64355 0.0
C3576 C 0.47479 0.2165 0.63698 0.0
C3577 C 0.4853 0.23422 0.63002 0.0
H3578 H 0.48383 0.18956 0.64885 0.0
H3579 H 0.58835 0.36107 0.582 0.0
H3580 H 0.64522 0.78028 0.37768 0.0
H3581 H 0.59909 0.7625 0.37767 0.0
H3582 H 0.57176 0.83318 0.36245 0.0
H3583 H 0.61722 0.85157 0.36325 0.0
H3584 H 0.53082 0.82383 0.36965 0.0
H3585 H 0.57883 0.75077 0.35499 0.0
H3586 H 0.61106 0.71336 0.35287 0.0
H3587 H 0.58017 0.67549 0.37878 0.0
H3588 H 0.54835 0.71311 0.3812 0.0
H3589 H 0.39624 0.76579 0.35938 0.0
H3590 H 0.44305 0.7824 0.35851 0.0
H3591 H 0.46712 0.72397 0.37997 0.0
H3592 H 0.42115 0.70655 0.38035 0.0
H3593 H 0.50873 0.72701 0.36943 0.0
H3594 H 0.45412 0.80021 0.38092 0.0
H3595 H 0.41799 0.8331 0.37918 0.0
H3596 H 0.45993 0.87041 0.35528 0.0
H3597 H 0.49593 0.8364 0.35651 0.0
C3598 C 0.62964 0.79199 0.37413 0.0
C3599 C 0.63651 0.81765 0.37024 0.0
C3600 C 0.60235 0.7815 0.37405 0.0
C3601 C 0.57977 0.79538 0.3698 0.0
C3602 C 0.58708 0.82092 0.36588 0.0
C3603 C 0.61402 0.83166 0.36622 0.0
C3604 C 0.54921 0.78448 0.36959 0.0
C3605 C 0.52668 0.80248 0.36941 0.0
C3606 C 0.54123 0.75661 0.36944 0.0
C3607 C 0.56145 0.7349 0.36834 0.0
C3608 C 0.57918 0.73464 0.3603 0.0
C3609 C 0.59735 0.71339 0.35904 0.0
C3610 C 0.59762 0.69205 0.36567 0.0
C3611 C 0.5799 0.69201 0.37363 0.0
C3612 C 0.56194 0.71337 0.37499 0.0
C3613 C 0.41126 0.75646 0.36401 0.0
C3614 C 0.40346 0.73447 0.37002 0.0
C3615 C 0.43878 0.76621 0.36354 0.0
C3616 C 0.46043 0.75541 0.36932 0.0
C3617 C 0.4523 0.73351 0.37531 0.0
C3618 C 0.42517 0.72343 0.37558 0.0
C3619 C 0.49081 0.76632 0.36934 0.0
C3620 C 0.51317 0.74834 0.36959 0.0
C3621 C 0.49861 0.79417 0.36916 0.0
C3622 C 0.47778 0.81556 0.36879 0.0
C3623 C 0.45582 0.81542 0.3753 0.0
C3624 C 0.4352 0.83428 0.37436 0.0
C3625 C 0.43665 0.85411 0.36716 0.0
C3626 C 0.45881 0.85504 0.36087 0.0
C3627 C 0.47928 0.83582 0.36164 0.0
H3628 H 0.42057 0.86866 0.36641 0.0
H3629 H 0.61161 0.67555 0.36466 0.0
H3630 H 0.03026 0.91059 0.11346 0.0
H3631 H 0.04965 0.86488 0.11408 0.0
H3632 H 0.96994 0.83149 0.1157 0.0
H3633 H 0.95106 0.87668 0.11568 0.0
H3634 H 0.99317 0.79699 0.12467 0.0
H3635 H 0.027 0.83 0.09374 0.0
H3636 H 0.05174 0.86084 0.08284 0.0
H3637 H 0.12406 0.84784 0.09942 0.0
H3638 H 0.09967 0.8171 0.11047 0.0
H3639 H 0.03558 0.65656 0.11485 0.0
H3640 H 1.01662 0.70264 0.11438 0.0
H3641 H 0.09643 0.73553 0.11627 0.0
H3642 H 0.11509 0.69024 0.1166 0.0
H3643 H 0.07372 0.76995 0.10572 0.0
H3644 H 0.04031 0.73434 0.13588 0.0
H3645 H 1.01585 0.70234 0.14637 0.0
H3646 H 0.94245 0.71955 0.13097 0.0
H3647 H 0.96654 0.75139 0.1203 0.0
C3648 C 1.01667 0.89368 0.11395 0.0
C3649 C 0.98848 0.89884 0.11448 0.0
C3650 C 0.02797 0.86667 0.11418 0.0
C3651 C 1.01195 0.84262 0.11474 0.0
C3652 C 0.98388 0.84815 0.11528 0.0
C3653 C 0.97275 0.87489 0.11518 0.0
C3654 C 1.02345 0.81238 0.11485 0.0
C3655 C 1.0106 0.79153 0.12032 0.0
C3656 C 0.0468 0.80312 0.10957 0.0
C3657 C 0.06147 0.82151 0.10297 0.0
C3658 C 0.04815 0.83384 0.09508 0.0
C3659 C 0.06211 0.85128 0.08888 0.0
C3660 C 0.08943 0.85636 0.09046 0.0
C3661 C 0.10289 0.84393 0.09822 0.0
C3662 C 0.08902 0.82649 0.10445 0.0
C3663 C 0.04932 0.67341 0.1151 0.0
C3664 C 0.07751 0.66817 0.11571 0.0
C3665 C 0.03825 0.70053 0.11493 0.0
C3666 C 0.05446 0.72443 0.11539 0.0
C3667 C 0.08249 0.71886 0.11586 0.0
C3668 C 0.09342 0.69208 0.11608 0.0
C3669 C 0.04316 0.75464 0.11538 0.0
C3670 C 0.05617 0.77546 0.11 0.0
C3671 C 1.01991 0.76381 0.12071 0.0
C3672 C 1.00529 0.74507 0.12722 0.0
C3673 C 1.01896 0.73125 0.13471 0.0
C3674 C 1.00517 0.7131 0.14068 0.0
C3675 C 0.97764 0.70881 0.13931 0.0
C3676 C 0.9638 0.7228 0.13201 0.0
C3677 C 0.97751 0.74091 0.12599 0.0
H3678 H 0.96707 0.69465 0.14391 0.0
H3679 H 0.1002 0.86987 0.08565 0.0
H3680 H 0.22886 0.21365 0.32885 0.0
H3681 H 0.23873 0.23124 0.31244 0.0
H3682 H 0.30221 0.27985 0.32446 0.0
H3683 H 0.2919 0.26254 0.34093 0.0
H3684 H 0.28579 0.30925 0.3104 0.0
H3685 H 0.30753 0.21574 0.30756 0.0
H3686 H 0.29986 0.1668 0.3084 0.0
H3687 H 0.23396 0.17396 0.28821 0.0
H3688 H 0.24107 0.223 0.28732 0.0
H3689 H 0.33925 0.34681 0.26204 0.0
H3690 H 0.33024 0.32997 0.27864 0.0
H3691 H 0.26914 0.27749 0.26712 0.0
H3692 H 0.27903 0.29356 0.25051 0.0
H3693 H 0.28474 0.25037 0.28109 0.0
H3694 H 0.26394 0.34472 0.28378 0.0
H3695 H 0.27352 0.39332 0.28265 0.0
H3696 H 0.33839 0.38467 0.30319 0.0
H3697 H 0.32962 0.33595 0.30428 0.0
C3698 C 0.24514 0.22795 0.32813 0.0
C3699 C 0.25943 0.2359 0.33673 0.0
C3700 C 0.25113 0.23818 0.31845 0.0
C3701 C 0.27204 0.2572 0.3165 0.0
C3702 C 0.28605 0.26541 0.32515 0.0
C3703 C 0.28009 0.25512 0.33483 0.0
C3704 C 0.27901 0.26841 0.30577 0.0
C3705 C 0.28574 0.29591 0.3041 0.0
C3706 C 0.27901 0.25245 0.29694 0.0
C3707 C 0.27465 0.22306 0.29746 0.0
C3708 C 0.2913 0.20689 0.30335 0.0
C3709 C 0.28707 0.17914 0.30383 0.0
C3710 C 0.26638 0.16729 0.29839 0.0
C3711 C 0.24994 0.18317 0.29243 0.0
C3712 C 0.25407 0.21094 0.29193 0.0
C3713 C 0.32372 0.33177 0.26293 0.0
C3714 C 0.31003 0.32221 0.25442 0.0
C3715 C 0.31816 0.32201 0.27272 0.0
C3716 C 0.29809 0.30219 0.27487 0.0
C3717 C 0.28465 0.29258 0.2663 0.0
C3718 C 0.29036 0.30215 0.25653 0.0
C3719 C 0.29135 0.29128 0.28567 0.0
C3720 C 0.28468 0.26379 0.28736 0.0
C3721 C 0.29142 0.30728 0.29451 0.0
C3722 C 0.29634 0.33662 0.29401 0.0
C3723 C 0.28037 0.35315 0.288 0.0
C3724 C 0.28571 0.38069 0.28734 0.0
C3725 C 0.30671 0.39198 0.29278 0.0
C3726 C 0.32228 0.37583 0.29893 0.0
C3727 C 0.31714 0.34826 0.29957 0.0
H3728 H 0.31071 0.4133 0.29233 0.0
H3729 H 0.26314 0.1458 0.29877 0.0
H3730 H 1.00752 1.01929 0.50529 0.0
H3731 H 1.0255 1.00864 0.52157 0.0
H3732 H 0.97544 0.07012 0.53431 0.0
H3733 H 0.95794 0.08118 0.51791 0.0
H3734 H 1.01554 0.07165 0.54559 0.0
H3735 H 0.97032 0.99037 0.53645 0.0
H3736 H 0.95958 0.95089 0.52618 0.0
H3737 H 0.04177 0.92436 0.52795 0.0
H3738 H 0.05306 0.96386 0.53814 0.0
H3739 H 0.03989 0.03031 0.59621 0.0
H3740 H 1.02243 0.0406 0.57984 0.0
H3741 H 0.07447 0.98037 0.56737 0.0
H3742 H 0.09165 0.96974 0.58388 0.0
H3743 H 0.03371 0.97808 0.55594 0.0
H3744 H 0.07879 0.05917 0.56519 0.0
H3745 H 0.08951 0.09864 0.57546 0.0
H3746 H 1.00748 0.12551 0.57349 0.0
H3747 H 0.99619 0.08603 0.56329 0.0
C3748 C 0.99994 0.03064 0.51149 0.0
C3749 C 0.98052 0.05126 0.50976 0.0
C3750 C 1.01035 1.02423 0.52111 0.0
C3751 C 1.00211 0.03772 0.5299 0.0
C3752 C 0.98291 0.05861 0.52813 0.0
C3753 C 0.9725 0.06504 0.51849 0.0
C3754 C 1.0134 0.03061 0.54063 0.0
C3755 C 1.01897 0.05097 0.54773 0.0
C3756 C 1.01924 1.00389 0.54409 0.0
C3757 C 1.01259 0.98021 0.53796 0.0
C3758 C 0.98614 0.9762 0.53459 0.0
C3759 C 0.97995 0.95381 0.5288 0.0
C3760 C 1.0 0.93517 0.52639 0.0
C3761 C 1.02627 0.93885 0.5298 0.0
C3762 C 0.03258 0.96122 0.53559 0.0
C3763 C 0.04803 1.01914 0.59005 0.0
C3764 C 0.0679 0.99902 0.5919 0.0
C3765 C 0.0379 1.02535 0.58039 0.0
C3766 C 0.04684 1.0121 0.57165 0.0
C3767 C 0.06649 0.99167 0.57352 0.0
C3768 C 0.07669 0.98548 0.58322 0.0
C3769 C 0.03576 1.01912 0.56089 0.0
C3770 C 0.03025 0.99876 0.55379 0.0
C3771 C 0.02995 0.04584 0.55743 0.0
C3772 C 0.03659 0.06951 0.56357 0.0
C3773 C 0.063 0.07341 0.567 0.0
C3774 C 0.06918 0.09579 0.5728 0.0
C3775 C 0.04917 0.11452 0.57515 0.0
C3776 C 1.02294 0.11095 0.57168 0.0
C3777 C 1.01665 0.08859 0.56589 0.0
H3778 H 0.054 0.13184 0.57964 0.0
H3779 H 0.99517 0.91785 0.52191 0.0
H3780 H 0.27276 0.80233 0.84102 0.0
H3781 H 0.26169 0.78457 0.82474 0.0
H3782 H 0.32714 0.82953 0.81231 0.0
H3783 H 0.33766 0.84801 0.82865 0.0
H3784 H 0.29443 0.82888 0.7982 0.0
H3785 H 0.31976 0.75046 0.81636 0.0
H3786 H 0.3181 0.71767 0.82988 0.0
H3787 H 0.23501 0.70152 0.8235 0.0
H3788 H 0.23609 0.73446 0.81002 0.0
H3789 H 0.2875 0.76065 0.75071 0.0
H3790 H 0.29874 0.77862 0.76695 0.0
H3791 H 0.23374 0.73341 0.77957 0.0
H3792 H 0.22309 0.71471 0.76328 0.0
H3793 H 0.26638 0.73425 0.79357 0.0
H3794 H 0.24114 0.81256 0.77534 0.0
H3795 H 0.24283 0.84542 0.76185 0.0
H3796 H 0.32577 0.86189 0.76837 0.0
H3797 H 0.32467 0.82887 0.78183 0.0
C3798 C 0.28506 0.80865 0.83489 0.0
C3799 C 0.30647 0.8271 0.83667 0.0
C3800 C 0.27877 0.79794 0.82531 0.0
C3801 C 0.2936 0.80441 0.81665 0.0
C3802 C 0.31478 0.82325 0.81842 0.0
C3803 C 0.32102 0.83407 0.82802 0.0
C3804 C 0.28703 0.79215 0.80603 0.0
C3805 C 0.28871 0.80798 0.79736 0.0
C3806 C 0.27867 0.76489 0.80417 0.0
C3807 C 0.27794 0.74512 0.81225 0.0
C3808 C 0.3011 0.74003 0.81788 0.0
C3809 C 0.30026 0.72141 0.82553 0.0
C3810 C 0.27645 0.70758 0.82756 0.0
C3811 C 0.25343 0.71229 0.82193 0.0
C3812 C 0.25414 0.73092 0.81428 0.0
C3813 C 0.27535 0.75431 0.75687 0.0
C3814 C 0.25403 0.73571 0.75517 0.0
C3815 C 0.28173 0.76515 0.76643 0.0
C3816 C 0.26709 0.75866 0.77513 0.0
C3817 C 0.24598 0.7397 0.77343 0.0
C3818 C 0.23966 0.72875 0.76386 0.0
C3819 C 0.27375 0.77097 0.78574 0.0
C3820 C 0.27209 0.75514 0.79442 0.0
C3821 C 0.28214 0.79824 0.78759 0.0
C3822 C 0.2829 0.81803 0.77951 0.0
C3823 C 0.25979 0.82306 0.77385 0.0
C3824 C 0.26063 0.84173 0.76622 0.0
C3825 C 0.28441 0.85567 0.76424 0.0
C3826 C 0.30738 0.85103 0.7699 0.0
C3827 C 0.30666 0.83235 0.77753 0.0
H3828 H 0.28503 0.87012 0.75833 0.0
H3829 H 0.27584 0.69317 0.83349 0.0
H3830 H 0.51941 0.03498 0.09813 0.0
H3831 H 0.53792 1.02559 0.08187 0.0
H3832 H 0.46503 0.05519 0.06867 0.0
H3833 H 0.44743 0.06643 0.08504 0.0
H3834 H 0.49421 0.06352 0.05524 0.0
H3835 H 0.5822 0.99388 0.06661 0.0
H3836 H 0.59303 0.95985 0.07914 0.0
H3837 H 0.50878 0.94437 0.08335 0.0
H3838 H 0.49748 0.97812 0.07078 0.0
H3839 H 0.56706 0.04383 1.00951 0.0
H3840 H 0.55064 0.05436 1.02598 0.0
H3841 H 0.55232 0.97022 1.03322 0.0
H3842 H 0.57082 0.96008 1.01688 0.0
H3843 H 0.55638 0.9873 0.04944 0.0
H3844 H 0.48895 1.02356 1.02852 0.0
H3845 H 0.46949 0.05098 1.01524 0.0
H3846 H 0.49926 0.12282 1.02899 0.0
H3847 H 0.51913 0.09578 1.0423 0.0
C3848 C 0.50698 0.03948 0.09183 0.0
C3849 C 0.48127 0.05152 0.09341 0.0
C3850 C 0.51771 0.03359 0.08221 0.0
C3851 C 0.50331 0.03834 0.0733 0.0
C3852 C 0.4776 0.05064 0.07492 0.0
C3853 C 0.46711 0.05713 0.08455 0.0
C3854 C 0.51481 0.03124 0.06258 0.0
C3855 C 0.50791 0.04679 0.05418 0.0
C3856 C 0.5324 1.00898 0.0603 0.0
C3857 C 0.53902 0.98874 0.06785 0.0
C3858 C 0.56601 0.98317 0.0702 0.0
C3859 C 0.57222 0.96395 0.07731 0.0
C3860 C 0.5516 0.95004 0.08206 0.0
C3861 C 0.52473 0.95524 0.07969 0.0
C3862 C 0.51841 0.97442 0.07258 0.0
C3863 C 0.56412 0.02731 1.01454 0.0
C3864 C 0.57082 1.00081 1.01137 0.0
C3865 C 0.55394 0.03342 1.02422 0.0
C3866 C 0.54851 1.01344 1.03147 0.0
C3867 C 0.55556 0.98688 1.02828 0.0
C3868 C 0.56639 0.98085 1.01866 0.0
C3869 C 0.53626 1.01994 1.04213 0.0
C3870 C 0.54291 1.0042 0.05051 0.0
C3871 C 0.51753 0.04133 1.04432 0.0
C3872 C 0.50577 0.05764 1.03634 0.0
C3873 C 0.49146 0.0452 1.02868 0.0
C3874 C 0.48035 0.06067 1.02115 0.0
C3875 C 0.48321 0.08862 1.02126 0.0
C3876 C 0.49712 0.10116 1.02891 0.0
C3877 C 0.5083 0.08578 1.03645 0.0
H3878 H 0.4746 0.10056 1.01543 0.0
H3879 H 0.55645 0.93517 0.08757 0.0
H3880 H 0.2542 0.74292 0.34528 0.0
H3881 H 0.24389 0.75973 0.32878 0.0
H3882 H 0.3254 0.74385 0.31986 0.0
H3883 H 0.33561 0.72662 0.3364 0.0
H3884 H 0.31238 0.78861 0.31046 0.0
H3885 H 0.26518 0.70606 0.31134 0.0
H3886 H 0.23416 0.67135 0.31749 0.0
H3887 H 0.16805 0.72685 0.31544 0.0
H3888 H 0.19878 0.76202 0.30937 0.0
H3889 H 0.28629 0.80764 0.25806 0.0
H3890 H 0.29663 0.79054 0.27451 0.0
H3891 H 0.21618 0.80961 0.28387 0.0
H3892 H 0.20595 0.82721 0.26737 0.0
H3893 H 0.22883 0.76301 0.29299 0.0
H3894 H 0.27793 0.8455 0.29163 0.0
H3895 H 0.31012 0.87849 0.28502 0.0
H3896 H 0.37415 0.82078 0.28752 0.0
H3897 H 0.34224 0.78729 0.29403 0.0
C3898 C 0.27014 0.74266 0.33987 0.0
C3899 C 0.29598 0.73273 0.34264 0.0
C3900 C 0.26407 0.75244 0.33016 0.0
C3901 C 0.28342 0.75343 0.32243 0.0
C3902 C 0.3094 0.74382 0.32525 0.0
C3903 C 0.31536 0.73361 0.33493 0.0
C3904 C 0.27671 0.7644 0.31172 0.0
C3905 C 0.29415 0.78246 0.30671 0.0
C3906 C 0.25287 0.75766 0.30628 0.0
C3907 C 0.23433 0.73677 0.31002 0.0
C3908 C 0.24407 0.71095 0.31229 0.0
C3909 C 0.22653 0.69116 0.31574 0.0
C3910 C 0.19916 0.69692 0.31689 0.0
C3911 C 0.18927 0.72245 0.31457 0.0
C3912 C 0.20674 0.74231 0.31111 0.0
C3913 C 0.27059 0.80855 0.26356 0.0
C3914 C 0.24506 0.81951 0.26092 0.0
C3915 C 0.27669 0.79859 0.27323 0.0
C3916 C 0.25764 0.79839 0.28107 0.0
C3917 C 0.23194 0.80899 0.27839 0.0
C3918 C 0.22597 0.81941 0.26873 0.0
C3919 C 0.26442 0.78733 0.29176 0.0
C3920 C 0.24701 0.76921 0.29676 0.0
C3921 C 0.28843 0.79382 0.29715 0.0
C3922 C 0.30764 0.8138 0.29321 0.0
C3923 C 0.29883 0.83977 0.29069 0.0
C3924 C 0.31703 0.85857 0.28698 0.0
C3925 C 0.34415 0.85171 0.28582 0.0
C3926 C 0.35313 0.82604 0.2884 0.0
C3927 C 0.335 0.80715 0.29211 0.0
H3928 H 0.35821 0.8663 0.28295 0.0
H3929 H 0.18561 0.68158 0.31956 0.0
H3930 H 0.58958 0.09143 0.57996 0.0
H3931 H 0.57182 0.08208 0.56358 0.0
H3932 H 0.54737 1.00332 0.57297 0.0
H3933 H 0.56378 1.01351 0.5896 0.0
H3934 H 0.51327 1.01166 0.56039 0.0
H3935 H 0.5697 0.09304 0.53897 0.0
H3936 H 0.61226 0.1185 0.53969 0.0
H3937 H 0.65004 0.05339 0.55507 0.0
H3938 H 0.60773 0.02748 0.5544 0.0
H3939 H 0.48247 0.96469 0.5109 0.0
H3940 H 0.50062 0.9738 0.52726 0.0
H3941 H 0.52479 0.05274 0.51797 0.0
H3942 H 0.50815 0.04274 0.50137 0.0
H3943 H 0.5591 0.0443 0.53051 0.0
H3944 H 0.50327 0.96295 0.55202 0.0
H3945 H 0.46133 0.93656 0.551 0.0
H3946 H 0.42306 1.00076 0.53527 0.0
H3947 H 0.46461 0.02774 0.53637 0.0
C3948 C 0.58057 0.07194 0.57864 0.0
C3949 C 0.5788 0.05345 0.58656 0.0
C3950 C 0.57042 0.06624 0.56895 0.0
C3951 C 0.55831 0.04122 0.56626 0.0
C3952 C 0.55636 1.02282 0.57425 0.0
C3953 C 0.56612 0.02872 0.584 0.0
C3954 C 0.54748 0.03447 0.55548 0.0
C3955 C 0.52388 1.01874 0.55395 0.0
C3956 C 0.55978 0.04341 0.5465 0.0
C3957 C 0.58549 0.05845 0.54671 0.0
C3958 C 0.58714 0.08411 0.54246 0.0
C3959 C 0.61121 0.09863 0.54287 0.0
C3960 C 0.63384 0.0876 0.54743 0.0
C3961 C 0.63248 0.06194 0.55156 0.0
C3962 C 0.60846 0.04733 0.55117 0.0
C3963 C 0.49145 0.98418 0.51224 0.0
C3964 C 0.49305 1.0028 0.50437 0.0
C3965 C 0.50186 0.98974 0.52192 0.0
C3966 C 0.51398 1.01476 0.52464 0.0
C3967 C 0.51579 0.03325 0.51668 0.0
C3968 C 0.50586 0.02746 0.50694 0.0
C3969 C 0.52489 1.02149 0.53542 0.0
C3970 C 0.5485 0.03724 0.53694 0.0
C3971 C 0.51263 1.01253 0.5444 0.0
C3972 C 0.48713 0.9972 0.54418 0.0
C3973 C 0.48582 0.97153 0.54843 0.0
C3974 C 0.46213 0.95646 0.54783 0.0
C3975 C 0.4396 0.96692 0.54303 0.0
C3976 C 0.44055 0.99266 0.53897 0.0
C3977 C 0.46414 1.00787 0.53959 0.0
H3978 H 0.42145 0.95503 0.54246 0.0
H3979 H 0.65242 0.09892 0.54777 0.0
H3980 H 0.26212 0.25968 0.75632 0.0
H3981 H 0.25136 0.27689 0.77273 0.0
H3982 H 0.31623 0.23022 0.78481 0.0
H3983 H 0.32651 0.21244 0.76834 0.0
H3984 H 0.2831 0.23047 0.79888 0.0
H3985 H 0.31057 0.30892 0.7813 0.0
H3986 H 0.30998 0.34251 0.76803 0.0
H3987 H 0.22743 0.3612 0.77456 0.0
H3988 H 0.22744 0.32748 0.78779 0.0
H3989 H 0.2793 0.29676 0.8467 0.0
H3990 H 0.28979 0.27959 0.83026 0.0
H3991 H 0.22408 0.32547 0.81839 0.0
H3992 H 0.214 0.34319 0.83489 0.0
H3993 H 0.25751 0.32564 0.80423 0.0
H3994 H 0.23021 0.24724 0.82189 0.0
H3995 H 0.23107 0.21393 0.83525 0.0
H3996 H 0.31357 0.19529 0.82862 0.0
H3997 H 0.3133 0.22874 0.81529 0.0
C3998 C 0.27431 0.25284 0.76239 0.0
C3999 C 0.29549 0.23414 0.7605 0.0
C4000 C 0.26821 0.26321 0.77205 0.0
C4001 C 0.28298 0.25604 0.78065 0.0
C4002 C 0.30392 0.23697 0.77875 0.0
C4003 C 0.31001 0.22655 0.76908 0.0
C4004 C 0.27667 0.26786 0.79134 0.0
C4005 C 0.27792 0.25147 0.79988 0.0
C4006 C 0.26904 0.29526 0.79339 0.0
C4007 C 0.26893 0.31548 0.78546 0.0
C4008 C 0.29225 0.32008 0.77986 0.0
C4009 C 0.29202 0.33915 0.77235 0.0
C4010 C 0.26866 0.35392 0.77043 0.0
C4011 C 0.24549 0.34971 0.77604 0.0
C4012 C 0.2456 0.33063 0.78354 0.0
C4013 C 0.26683 0.30341 0.84066 0.0
C4014 C 0.24547 0.32185 0.84263 0.0
C4015 C 0.2728 0.29308 0.831 0.0
C4016 C 0.25772 0.30005 0.82245 0.0
C4017 C 0.2366 0.31887 0.82441 0.0
C4018 C 0.23062 0.32924 0.8341 0.0
C4019 C 0.26394 0.28824 0.81175 0.0
C4020 C 0.26269 0.30463 0.80322 0.0
C4021 C 0.27159 0.26085 0.80971 0.0
C4022 C 0.27181 0.24068 0.81767 0.0
C4023 C 0.24858 0.23614 0.82332 0.0
C4024 C 0.24896 0.21723 0.83088 0.0
C4025 C 0.27238 0.20256 0.8328 0.0
C4026 C 0.29546 0.20671 0.82713 0.0
C4027 C 0.2952 0.22562 0.81957 0.0
H4028 H 0.27264 0.18794 0.83865 0.0
H4029 H 0.26852 0.36868 0.76462 0.0
H4030 H 0.04918 0.03311 0.99993 0.0
H4031 H 0.03219 1.02171 1.01626 0.0
H4032 H 0.08201 0.08326 1.02895 0.0
H4033 H 0.09952 0.09424 1.01253 0.0
H4034 H 0.08094 0.0486 1.04262 0.0
H4035 H 1.00305 0.08146 1.02583 0.0
H4036 H 0.96907 0.08374 1.01267 0.0
H4037 H 0.94693 1.00169 1.01809 0.0
H4038 H 0.98103 0.99881 1.03119 0.0
H4039 H 1.0168 0.04134 0.09084 0.0
H4040 H 0.0339 0.05313 0.07454 0.0
H4041 H 0.98349 0.99246 0.0616 0.0
H4042 H 0.96586 0.98117 0.07796 0.0
H4043 H 0.98488 0.0269 1.04805 0.0
H4044 H 0.06304 0.9939 0.06474 0.0
H4045 H 0.09724 0.99151 0.07782 0.0
H4046 H 0.11887 0.0738 0.07259 0.0
H4047 H 0.08458 0.07676 0.05955 0.0
C4048 C 0.05676 0.04448 1.00612 0.0
C4049 C 0.07623 0.06496 1.00438 0.0
C4050 C 0.04653 0.03798 1.01574 0.0
C4051 C 0.05464 0.05159 1.0245 0.0
C4052 C 0.07448 0.07184 1.02277 0.0
C4053 C 0.08474 0.07835 1.01312 0.0
C4054 C 0.04298 0.04476 1.03517 0.0
C4055 C 0.05974 0.0443 1.04365 0.0
C4056 C 1.01532 0.03818 1.03725 0.0
C4057 C 0.99478 0.03984 1.02942 0.0
C4058 C 0.99104 0.06385 1.02417 0.0
C4059 C 0.97175 0.06526 1.01673 0.0
C4060 C 0.9559 0.04285 1.01453 0.0
C4061 C 0.95926 1.01901 1.01979 0.0
C4062 C 0.97855 1.01749 1.02723 0.0
C4063 C 1.00914 0.03025 0.0846 0.0
C4064 C 0.98946 1.0099 0.08624 0.0
C4065 C 1.01942 0.03696 0.075 0.0
C4066 C 1.01118 1.0237 0.06618 0.0
C4067 C 0.99114 1.00361 0.06782 0.0
C4068 C 0.98081 0.99692 0.07744 0.0
C4069 C 1.02284 0.0307 0.05551 0.0
C4070 C 1.00607 0.0312 1.04703 0.0
C4071 C 0.05049 0.0373 0.05343 0.0
C4072 C 0.07106 0.03563 0.06125 0.0
C4073 C 0.07498 1.01153 0.06642 0.0
C4074 C 0.0944 1.01007 0.07382 0.0
C4075 C 0.11017 0.03251 0.07605 0.0
C4076 C 0.10661 0.05644 0.07087 0.0
C4077 C 0.0872 0.05802 0.06347 0.0
H4078 H 0.12519 0.03134 0.08178 0.0
H4079 H 0.94099 0.04398 1.00876 0.0
H4080 H 0.72472 0.71113 0.82999 0.0
H4081 H 0.73564 0.72777 0.81348 0.0
H4082 H 0.79628 0.77939 0.82575 0.0
H4083 H 0.78521 0.76286 0.84226 0.0
H4084 H 0.81685 0.76451 0.80877 0.0
H4085 H 0.71394 0.74846 0.79031 0.0
H4086 H 0.66563 0.74786 0.79456 0.0
H4087 H 0.68077 0.79943 0.81925 0.0
H4088 H 0.72908 0.80061 0.81508 0.0
H4089 H 0.84095 0.8383 0.7631 0.0
H4090 H 0.83063 0.82258 0.77976 0.0
H4091 H 0.76175 0.77987 0.7687 0.0
H4092 H 0.77159 0.79642 0.75217 0.0
H4093 H 0.74551 0.79028 0.78529 0.0
H4094 H 0.84932 0.80557 0.80338 0.0
H4095 H 0.89758 0.80455 0.79905 0.0
H4096 H 0.88071 0.75174 0.77486 0.0
H4097 H 0.83242 0.75222 0.77911 0.0
C4098 C 0.74046 0.72603 0.82931 0.0
C4099 C 0.75375 0.73512 0.83797 0.0
C4100 C 0.74676 0.73599 0.81962 0.0
C4101 C 0.76699 0.75576 0.81776 0.0
C4102 C 0.78058 0.76443 0.82642 0.0
C4103 C 0.77405 0.75474 0.83612 0.0
C4104 C 0.77389 0.76715 0.80709 0.0
C4105 C 0.80092 0.77037 0.80379 0.0
C4106 C 0.75415 0.77479 0.79991 0.0
C4107 C 0.72516 0.77435 0.80244 0.0
C4108 C 0.70694 0.75972 0.79663 0.0
C4109 C 0.67956 0.75928 0.79903 0.0
C4110 C 0.67016 0.77352 0.80719 0.0
C4111 C 0.6881 0.78832 0.81296 0.0
C4112 C 0.71548 0.78886 0.81058 0.0
C4113 C 0.82353 0.82555 0.7641 0.0
C4114 C 0.80744 0.8191 0.75577 0.0
C4115 C 0.81758 0.81598 0.77388 0.0
C4116 C 0.79529 0.79879 0.77615 0.0
C4117 C 0.77913 0.79272 0.76778 0.0
C4118 C 0.78497 0.8024 0.75804 0.0
C4119 C 0.78857 0.78756 0.78689 0.0
C4120 C 0.76152 0.78439 0.79023 0.0
C4121 C 0.80831 0.7797 0.79407 0.0
C4122 C 0.83725 0.77922 0.79149 0.0
C4123 C 0.85594 0.79371 0.79715 0.0
C4124 C 0.88329 0.79323 0.79471 0.0
C4125 C 0.89219 0.77818 0.78666 0.0
C4126 C 0.87378 0.76348 0.78106 0.0
C4127 C 0.84642 0.76386 0.78348 0.0
H4128 H 0.91336 0.77785 0.78478 0.0
H4129 H 0.64897 0.77313 0.80904 0.0
H4130 H 0.77791 0.29075 0.34227 0.0
H4131 H 0.76701 0.27291 0.32595 0.0
H4132 H 0.82373 0.32749 0.313 0.0
H4133 H 0.83504 0.3449 0.32941 0.0
H4134 H 0.82714 0.28809 0.30142 0.0
H4135 H 0.72263 0.24333 0.30954 0.0
H4136 H 0.68324 0.25153 0.32018 0.0
H4137 H 0.70434 0.33503 0.32243 0.0
H4138 H 0.74366 0.32738 0.31172 0.0
H4139 H 0.78348 0.26456 0.25106 0.0
H4140 H 0.79363 0.28146 0.26752 0.0
H4141 H 0.73841 0.22435 0.27984 0.0
H4142 H 0.72786 0.20764 0.2632 0.0
H4143 H 0.73406 0.26439 0.29179 0.0
H4144 H 0.83874 0.30916 0.28379 0.0
H4145 H 0.87807 0.30101 0.27311 0.0
H4146 H 0.85657 0.21767 0.27062 0.0
H4147 H 0.81731 0.22526 0.28136 0.0
C4148 C 0.78814 0.29935 0.33602 0.0
C4149 C 0.80753 0.32 0.33769 0.0
C4150 C 0.78157 0.28901 0.32638 0.0
C4151 C 0.79366 0.29854 0.31752 0.0
C4152 C 0.81332 0.31899 0.31924 0.0
C4153 C 0.8199 0.32933 0.32888 0.0
C4154 C 0.78641 0.28731 0.30678 0.0
C4155 C 0.80653 0.28343 0.29944 0.0
C4156 C 0.75983 0.2799 0.30352 0.0
C4157 C 0.73625 0.2847 0.30993 0.0
C4158 C 0.71882 0.26344 0.31229 0.0
C4159 C 0.69652 0.26799 0.31834 0.0
C4160 C 0.69135 0.29376 0.32201 0.0
C4161 C 0.70842 0.31506 0.31962 0.0
C4162 C 0.73073 0.31062 0.31357 0.0
C4163 C 0.7734 0.25515 0.25719 0.0
C4164 C 0.75472 0.23401 0.25526 0.0
C4165 C 0.77955 0.26498 0.26691 0.0
C4166 C 0.76768 0.25447 0.27564 0.0
C4167 C 0.74862 0.23355 0.2737 0.0
C4168 C 0.74249 0.22363 0.26393 0.0
C4169 C 0.77478 0.26529 0.28644 0.0
C4170 C 0.75465 0.26908 0.29378 0.0
C4171 C 0.80136 0.27264 0.28971 0.0
C4172 C 0.82494 0.26787 0.28329 0.0
C4173 C 0.84246 0.28909 0.28098 0.0
C4174 C 0.86473 0.28457 0.27491 0.0
C4175 C 0.86976 0.25886 0.27116 0.0
C4176 C 0.85259 0.2376 0.2735 0.0
C4177 C 0.83032 0.242 0.27957 0.0
H4178 H 0.887 0.25541 0.26646 0.0
H4179 H 0.67408 0.29724 0.3267 0.0
H4180 H 0.78356 0.29826 0.75654 0.0
H4181 H 0.79483 0.28232 0.77309 0.0
H4182 H 0.72299 0.31958 0.78438 0.0
H4183 H 0.7121 0.33595 0.76786 0.0
H4184 H 0.7545 0.32424 0.79878 0.0
H4185 H 0.73987 0.24262 0.78087 0.0
H4186 H 0.74667 0.20911 0.76772 0.0
H4187 H 0.82992 0.20144 0.77575 0.0
H4188 H 0.8237 0.23518 0.78887 0.0
H4189 H 0.76268 0.26002 0.84706 0.0
H4190 H 0.75194 0.2765 0.83058 0.0
H4191 H 0.8219 0.23609 0.81916 0.0
H4192 H 0.83228 0.21918 0.83568 0.0
H4193 H 0.79152 0.23333 0.80473 0.0
H4194 H 0.8062 0.31503 0.82266 0.0
H4195 H 0.80024 0.35085 0.83504 0.0
H4196 H 0.71735 0.35962 0.82668 0.0
H4197 H 0.72273 0.32368 0.81434 0.0
C4198 C 0.76992 0.30321 0.76248 0.0
C4199 C 0.74653 0.3188 0.76034 0.0
C4200 C 0.77637 0.29361 0.77221 0.0
C4201 C 0.75989 0.29863 0.78064 0.0
C4202 C 0.73674 0.31462 0.77848 0.0
C4203 C 0.73028 0.32417 0.76876 0.0
C4204 C 0.76659 0.28788 0.79144 0.0
C4205 C 0.7622 0.30409 0.79993 0.0
C4206 C 0.77753 0.26178 0.79367 0.0
C4207 C 0.78138 0.24165 0.78577 0.0
C4208 C 0.75967 0.23393 0.77978 0.0
C4209 C 0.76342 0.21488 0.77234 0.0
C4210 C 0.78873 0.20321 0.77088 0.0
C4211 C 0.81034 0.21054 0.77687 0.0
C4212 C 0.80672 0.22962 0.78431 0.0
C4213 C 0.77607 0.2545 0.84112 0.0
C4214 C 0.79873 0.23782 0.84324 0.0
C4215 C 0.76993 0.26445 0.83141 0.0
C4216 C 0.78601 0.25875 0.82295 0.0
C4217 C 0.80848 0.2417 0.82508 0.0
C4218 C 0.81466 0.23179 0.8348 0.0
C4219 C 0.77941 0.26967 0.81214 0.0
C4220 C 0.7838 0.25348 0.80362 0.0
C4221 C 0.76847 0.29583 0.80989 0.0
C4222 C 0.76478 0.31635 0.81768 0.0
C4223 C 0.78661 0.32433 0.82356 0.0
C4224 C 0.78335 0.34475 0.83054 0.0
C4225 C 0.75841 0.35747 0.83166 0.0
C4226 C 0.73664 0.34972 0.82583 0.0
C4227 C 0.73977 0.3293 0.81885 0.0
H4228 H 0.75598 0.37337 0.83703 0.0
H4229 H 0.79159 0.18845 0.76512 0.0
H4230 H 0.77713 0.79281 0.34724 0.0
H4231 H 0.78826 0.77527 0.33088 0.0
H4232 H 0.72392 0.82198 0.31848 0.0
H4233 H 0.71275 0.83952 0.33493 0.0
H4234 H 0.724 0.77855 0.30776 0.0
H4235 H 0.80021 0.8332 0.31563 0.0
H4236 H 0.839 0.84896 0.32535 0.0
H4237 H 0.87491 0.77048 0.32352 0.0
H4238 H 0.83616 0.75416 0.31388 0.0
H4239 H 0.76313 0.75345 0.25688 0.0
H4240 H 0.75215 0.7713 0.27318 0.0
H4241 H 0.82025 0.7295 0.28529 0.0
H4242 H 0.83159 0.71217 0.26885 0.0
H4243 H 0.81821 0.77043 0.29625 0.0
H4244 H 0.74248 0.71516 0.28875 0.0
H4245 H 0.70367 0.69841 0.27926 0.0
H4246 H 0.6668 0.77651 0.28068 0.0
H4247 H 0.70556 0.7938 0.29008 0.0
C4248 C 0.76524 0.79974 0.3411 0.0
C4249 C 0.74385 0.8183 0.34291 0.0
C4250 C 0.77188 0.78955 0.33146 0.0
C4251 C 0.75765 0.79696 0.32277 0.0
C4252 C 0.73597 0.81523 0.32462 0.0
C4253 C 0.72946 0.82563 0.33426 0.0
C4254 C 0.76499 0.78577 0.31207 0.0
C4255 C 0.74476 0.77732 0.30533 0.0
C4256 C 0.79191 0.78273 0.30832 0.0
C4257 C 0.81515 0.79239 0.31413 0.0
C4258 C 0.81629 0.81925 0.31736 0.0
C4259 C 0.83828 0.82829 0.32284 0.0
C4260 C 0.85937 0.81071 0.32507 0.0
C4261 C 0.85853 0.78406 0.3218 0.0
C4262 C 0.83657 0.77491 0.31632 0.0
C4263 C 0.77592 0.74771 0.26295 0.0
C4264 C 0.79849 0.73071 0.26104 0.0
C4265 C 0.76934 0.75801 0.27258 0.0
C4266 C 0.78458 0.75199 0.28119 0.0
C4267 C 0.80736 0.73518 0.27924 0.0
C4268 C 0.81399 0.7249 0.26959 0.0
C4269 C 0.77722 0.76317 0.29191 0.0
C4270 C 0.79745 0.77164 0.29865 0.0
C4271 C 0.75029 0.76606 0.2957 0.0
C4272 C 0.72705 0.75584 0.29002 0.0
C4273 C 0.72618 0.7288 0.28698 0.0
C4274 C 0.70418 0.71921 0.28163 0.0
C4275 C 0.68283 0.73641 0.27934 0.0
C4276 C 0.68339 0.76323 0.28243 0.0
C4277 C 0.70536 0.77293 0.28778 0.0
H4278 H 0.66581 0.72894 0.2752 0.0
H4279 H 0.87638 0.81775 0.32932 0.0
H4280 H 0.58607 0.46172 0.08495 0.0
H4281 H 0.56877 0.47184 0.06853 0.0
H4282 H 0.5294 0.54251 0.07986 0.0
H4283 H 0.54578 0.53155 0.09639 0.0
H4284 H 0.49832 0.53102 0.06635 0.0
H4285 H 0.59422 0.53439 0.06209 0.0
H4286 H 0.64082 0.51717 0.06277 0.0
H4287 H 0.61911 0.4512 1.044 0.0
H4288 H 0.57228 0.46783 1.04332 0.0
H4289 H 0.46554 0.58488 1.01794 0.0
H4290 H 0.48295 0.57461 1.03433 0.0
H4291 H 0.52074 0.50308 1.02302 0.0
H4292 H 0.50409 0.51405 1.00651 0.0
H4293 H 0.55269 0.51503 1.03649 0.0
H4294 H 0.45658 0.51168 1.04098 0.0
H4295 H 0.41006 0.52913 1.04038 0.0
H4296 H 0.43264 0.59577 0.05869 0.0
H4297 H 0.47937 0.57881 0.05934 0.0
C4298 C 0.57382 0.47958 0.08406 0.0
C4299 C 0.56799 0.49557 0.0925 0.0
C4300 C 0.56386 0.48577 0.07436 0.0
C4301 C 0.54763 0.50883 0.0722 0.0
C4302 C 0.54164 0.52464 0.0807 0.0
C4303 C 0.55138 0.51829 0.09042 0.0
C4304 C 0.53681 0.5162 0.06144 0.0
C4305 C 0.51078 0.52767 0.05994 0.0
C4306 C 0.55153 0.51202 0.05246 0.0
C4307 C 0.5797 0.50221 0.05273 0.0
C4308 C 0.59937 0.51616 0.05814 0.0
C4309 C 0.62581 0.50649 0.05853 0.0
C4310 C 0.6329 0.48307 0.05345 0.0
C4311 C 0.61358 0.46931 1.04794 0.0
C4312 C 0.58708 0.47885 1.04755 0.0
C4313 C 0.47738 0.56675 1.01882 0.0
C4314 C 0.48263 0.55049 1.0104 0.0
C4315 C 0.48744 0.5605 1.0285 0.0
C4316 C 0.5033 0.53719 1.03066 0.0
C4317 C 0.50878 0.52114 1.02218 0.0
C4318 C 0.49886 0.5275 1.01248 0.0
C4319 C 0.51423 0.52983 1.0414 0.0
C4320 C 0.54026 0.51837 1.04291 0.0
C4321 C 0.49957 0.53409 0.05039 0.0
C4322 C 0.47149 0.54411 0.05013 0.0
C4323 C 0.45162 0.5301 1.04485 0.0
C4324 C 0.42523 0.5399 1.0445 0.0
C4325 C 0.41842 0.56358 0.04947 0.0
C4326 C 0.43796 0.57744 0.05484 0.0
C4327 C 0.46439 0.56773 0.05521 0.0
H4328 H 0.39799 0.57117 0.04918 0.0
H4329 H 0.65337 0.47563 0.05376 0.0
H4330 H 0.96087 0.59062 0.58572 0.0
H4331 H 0.97871 0.58096 0.56933 0.0
H4332 H 1.01383 0.50754 0.57998 0.0
H4333 H 0.99719 0.51815 0.59655 0.0
H4334 H 0.04616 0.51892 0.56674 0.0
H4335 H 0.94981 0.51963 0.562 0.0
H4336 H 0.90501 0.54069 0.56374 0.0
H4337 H 0.93109 0.60785 0.54649 0.0
H4338 H 0.97616 0.5873 0.54474 0.0
H4339 H 0.07781 0.46614 0.51813 0.0
H4340 H 0.06022 0.47632 0.53451 0.0
H4341 H 1.0253 0.5496 0.52364 0.0
H4342 H 0.04194 0.5386 0.50709 0.0
H4343 H 0.99284 0.53858 0.53696 0.0
H4344 H 0.08875 0.53792 0.5414 0.0
H4345 H 0.13456 0.51876 0.54051 0.0
H4346 H 0.11 0.45267 0.55858 0.0
H4347 H 0.06393 0.47126 0.55946 0.0
C4348 C 0.97226 0.57223 0.58468 0.0
C4349 C 0.97686 0.55535 0.59293 0.0
C4350 C 0.9825 0.56632 0.575 0.0
C4351 C 0.9976 0.54261 0.57266 0.0
C4352 C 1.00244 0.52592 0.58098 0.0
C4353 C 0.99254 0.53206 0.5907 0.0
C4354 C 1.00837 0.53542 0.56189 0.0
C4355 C 0.03395 0.52304 0.56034 0.0
C4356 C 0.99396 0.5407 0.55294 0.0
C4357 C 0.96641 0.55208 0.55333 0.0
C4358 C 0.94594 0.53884 0.55855 0.0
C4359 C 0.92055 0.55073 0.55956 0.0
C4360 C 0.91532 0.57571 0.55531 0.0
C4361 C 0.93526 0.58858 0.54984 0.0
C4362 C 0.96072 0.5768 0.54881 0.0
C4363 C 0.06649 0.48459 0.5191 0.0
C4364 C 0.06196 0.50131 0.51081 0.0
C4365 C 0.05639 0.4908 0.52878 0.0
C4366 C 0.04136 0.51459 0.53105 0.0
C4367 C 0.03661 0.53115 0.52269 0.0
C4368 C 0.04649 0.52478 0.51298 0.0
C4369 C 0.03062 0.52194 0.54181 0.0
C4370 C 1.00504 0.53436 0.54336 0.0
C4371 C 0.04507 0.51675 0.55076 0.0
C4372 C 0.07284 0.50585 0.55042 0.0
C4373 C 0.09311 0.51926 0.54516 0.0
C4374 C 0.11911 0.50849 0.54464 0.0
C4375 C 0.12516 0.48448 0.54946 0.0
C4376 C 0.10526 0.47125 0.55483 0.0
C4377 C 0.07921 0.4819 0.55535 0.0
H4378 H 0.14529 0.47615 0.54904 0.0
H4379 H 0.89581 0.58509 0.55626 0.0
H4380 H 0.049 0.53033 0.09217 0.0
H4381 H 0.03095 0.52011 0.07583 0.0
H4382 H 0.08345 0.57929 0.06324 0.0
H4383 H 0.10152 0.58958 0.07967 0.0
H4384 H 0.03993 0.58273 0.05257 0.0
H4385 H 0.08833 0.50248 0.06077 0.0
H4386 H 0.10062 0.46297 0.0707 0.0
H4387 H 1.01938 0.43397 0.0689 0.0
H4388 H 1.00653 0.47349 0.05905 0.0
H4389 H 1.01238 0.54478 1.00193 0.0
H4390 H 0.03073 0.5546 1.0182 0.0
H4391 H 0.98451 0.48964 1.0303 0.0
H4392 H 0.96682 0.47923 1.01383 0.0
H4393 H 1.0247 0.48921 1.04136 0.0
H4394 H 0.97538 0.56888 1.03367 0.0
H4395 H 0.96169 0.60861 1.02409 0.0
H4396 H 0.04248 0.63903 1.02535 0.0
H4397 H 0.05672 0.59932 1.03484 0.0
C4398 C 0.05711 0.54124 0.08598 0.0
C4399 C 0.07743 0.56091 0.08772 0.0
C4400 C 0.04661 0.53513 0.07637 0.0
C4401 C 0.05548 0.54823 0.06765 0.0
C4402 C 0.07555 0.56821 0.06941 0.0
C4403 C 0.08624 0.57417 0.07904 0.0
C4404 C 0.04391 0.54148 0.05699 0.0
C4405 C 0.03713 0.5621 0.0502 0.0
C4406 C 0.03881 0.51479 0.05334 0.0
C4407 C 0.04642 0.49108 0.05926 0.0
C4408 C 0.07305 0.48777 0.06255 0.0
C4409 C 0.08012 0.46536 0.06816 0.0
C4410 C 0.06077 0.44601 0.07045 0.0
C4411 C 0.03433 0.44899 0.06713 0.0
C4412 C 0.02715 0.47138 0.06153 0.0
C4413 C 1.00571 0.53248 1.00799 0.0
C4414 C 0.98736 0.5111 1.00608 0.0
C4415 C 1.01632 0.53841 1.0176 0.0
C4416 C 1.00919 0.52372 1.0262 0.0
C4417 C 0.99103 0.50207 1.02425 0.0
C4418 C 0.98052 0.49602 1.01459 0.0
C4419 C 1.02068 0.53049 1.03689 0.0
C4420 C 0.02747 0.50987 1.0437 0.0
C4421 C 1.02556 0.5572 1.0406 0.0
C4422 C 1.01716 0.581 1.03487 0.0
C4423 C 0.99025 0.58396 1.03184 0.0
C4424 C 0.9824 0.60648 1.02644 0.0
C4425 C 1.00122 0.62629 1.02409 0.0
C4426 C 0.02794 0.62365 1.02716 0.0
C4427 C 0.03591 0.60115 1.03255 0.0
H4428 H 0.9951 0.64371 1.0199 0.0
H4429 H 0.06628 0.42867 0.07479 0.0
H4430 H 0.51586 0.53523 0.59226 0.0
H4431 H 0.53355 0.54598 0.57593 0.0
H4432 H 0.48981 0.47934 0.5637 0.0
H4433 H 0.47242 0.46839 0.58013 0.0
H4434 H 0.5316 0.48024 0.55285 0.0
H4435 H 0.47678 0.55674 0.56045 0.0
H4436 H 0.46087 0.59581 0.57004 0.0
H4437 H 0.53948 0.63132 0.56835 0.0
H4438 H 0.55593 0.5923 0.55884 0.0
H4439 H 0.55643 0.51842 0.50181 0.0
H4440 H 0.53863 0.50765 0.51812 0.0
H4441 H 0.58048 0.57563 0.53026 0.0
H4442 H 0.59777 0.58672 0.51384 0.0
H4443 H 0.53961 0.574 0.54118 0.0
H4444 H 0.59461 0.4975 0.5337 0.0
H4445 H 0.61072 0.45837 0.52419 0.0
H4446 H 0.53213 0.42277 0.52574 0.0
H4447 H 0.51547 0.46186 0.53517 0.0
C4448 C 0.50963 0.52274 0.58616 0.0
C4449 C 0.49197 0.50074 0.58802 0.0
C4450 C 0.51987 0.52917 0.57652 0.0
C4451 C 0.5133 0.51422 0.56787 0.0
C4452 C 0.49591 0.49198 0.56978 0.0
C4453 C 0.48558 0.4856 0.57943 0.0
C4454 C 0.52444 0.52129 0.55713 0.0
C4455 C 0.53281 0.50091 0.5504 0.0
C4456 C 0.5274 0.54808 0.5533 0.0
C4457 C 0.51765 0.57148 0.55903 0.0
C4458 C 0.49071 0.57281 0.56218 0.0
C4459 C 0.48159 0.59495 0.56759 0.0
C4460 C 0.49917 0.61599 0.56983 0.0
C4461 C 0.5259 0.61498 0.56663 0.0
C4462 C 0.53513 0.59286 0.56123 0.0
C4463 C 0.56223 0.5312 0.50789 0.0
C4464 C 0.57929 0.55364 0.506 0.0
C4465 C 0.55194 0.52475 0.51752 0.0
C4466 C 0.55797 0.54004 0.52615 0.0
C4467 C 0.57481 0.56269 0.52421 0.0
C4468 C 0.58509 0.56915 0.51456 0.0
C4469 C 0.54681 0.53294 0.53689 0.0
C4470 C 0.53842 0.55332 0.54362 0.0
C4471 C 0.54387 0.50615 0.54073 0.0
C4472 C 0.55373 0.48273 0.53504 0.0
C4473 C 0.58073 0.48141 0.53195 0.0
C4474 C 0.58996 0.45923 0.52659 0.0
C4475 C 0.57244 0.43814 0.52434 0.0
C4476 C 0.54566 0.43915 0.52747 0.0
C4477 C 0.53632 0.4613 0.53283 0.0
H4478 H 0.57963 0.42098 0.52019 0.0
H4479 H 0.49207 0.63312 0.57402 0.0
H4480 H 0.31622 0.1439 0.37842 0.0
H4481 H 0.34305 0.11819 0.39029 0.0
H4482 H 0.30017 0.15608 0.41399 0.0
H4483 H 0.27501 0.18284 0.40215 0.0
H4484 H 0.33599 0.14407 0.42398 0.0
H4485 H 0.30882 0.07217 0.40233 0.0
H4486 H 0.30411 0.04676 0.38685 0.0
H4487 H 0.3898 0.049 0.38268 0.0
H4488 H 0.39493 0.07474 0.39806 0.0
H4489 H 0.39323 0.05 0.46136 0.0
H4490 H 0.36601 0.07526 0.4493 0.0
H4491 H 0.42281 0.05506 0.42673 0.0
H4492 H 0.44961 0.0299 0.43866 0.0
H4493 H 0.37987 0.05724 0.41648 0.0
H4494 H 0.40511 0.12664 0.43965 0.0
H4495 H 0.40721 0.14856 0.45589 0.0
H4496 H 0.32089 0.14738 0.4578 0.0
H4497 H 0.31832 0.12522 0.44162 0.0
C4498 C 0.31202 0.14691 0.38613 0.0
C4499 C 0.29209 0.16654 0.38878 0.0
C4500 C 0.32776 0.13132 0.39327 0.0
C4501 C 0.32473 0.13304 0.40383 0.0
C4502 C 0.30465 0.1527 0.40633 0.0
C4503 C 0.28947 0.16856 0.39925 0.0
C4504 C 0.3418 0.11586 0.4121 0.0
C4505 C 0.34499 0.12492 0.42206 0.0
C4506 C 0.35526 0.09022 0.41064 0.0
C4507 C 0.35221 0.07562 0.40126 0.0
C4508 C 0.32661 0.06741 0.39806 0.0
C4509 C 0.32387 0.05295 0.38931 0.0
C4510 C 0.34663 0.04635 0.38377 0.0
C4511 C 0.37218 0.05421 0.38696 0.0
C4512 C 0.37501 0.06875 0.39568 0.0
C4513 C 0.40038 0.05074 0.45387 0.0
C4514 C 0.42499 0.03694 0.45154 0.0
C4515 C 0.38436 0.06591 0.4467 0.0
C4516 C 0.39117 0.06872 0.43644 0.0
C4517 C 0.4155 0.05447 0.43419 0.0
C4518 C 0.4315 0.03965 0.44132 0.0
C4519 C 0.37389 0.08553 0.42822 0.0
C4520 C 0.37079 0.07643 0.4183 0.0
C4521 C 0.36004 0.1108 0.42978 0.0
C4522 C 0.36155 0.12405 0.43948 0.0
C4523 C 0.3866 0.13093 0.44357 0.0
C4524 C 0.38787 0.14341 0.45275 0.0
C4525 C 0.36421 0.14929 0.45789 0.0
C4526 C 0.33921 0.14277 0.45383 0.0
C4527 C 0.33784 0.13026 0.44465 0.0
H4528 H 0.36523 0.15895 0.465 0.0
H4529 H 0.34447 0.0351 0.37701 0.0
H4530 H 0.27807 0.18783 0.6943 0.0
H4531 H 0.25382 0.16144 0.68214 0.0
H4532 H 0.22123 0.11204 0.70498 0.0
H4533 H 0.247 0.13822 0.7173 0.0
H4534 H 0.21667 0.07905 0.69121 0.0
H4535 H 0.18584 0.16867 0.68594 0.0
H4536 H 0.18901 0.21734 0.68268 0.0
H4537 H 0.23106 0.20116 0.65577 0.0
H4538 H 0.22833 0.15239 0.65893 0.0
H4539 H 0.16405 1.00332 0.64814 0.0
H4540 H 0.18879 0.028 0.661 0.0
H4541 H 0.14272 0.09889 0.65467 0.0
H4542 H 0.11793 0.07404 0.6419 0.0
H4543 H 0.1837 0.12158 0.66079 0.0
H4544 H 0.22943 0.03194 0.68181 0.0
H4545 H 0.21759 0.98753 0.68859 0.0
H4546 H 0.1336 1.00764 0.68696 0.0
H4547 H 0.14494 0.05202 0.68006 0.0
C4548 C 0.26574 0.1715 0.69699 0.0
C4549 C 0.26552 0.16659 0.70735 0.0
C4550 C 0.25091 0.15596 0.68972 0.0
C4551 C 0.23345 0.13384 0.69194 0.0
C4552 C 0.23349 0.12847 0.70235 0.0
C4553 C 0.24871 0.14401 0.70969 0.0
C4554 C 0.2163 0.1169 0.68366 0.0
C4555 C 0.21004 0.08888 0.68456 0.0
C4556 C 0.20538 0.12776 0.67463 0.0
C4557 C 0.20713 0.15694 0.67272 0.0
C4558 C 0.19587 0.17552 0.67935 0.0
C4559 C 0.19758 0.20311 0.67752 0.0
C4560 C 0.2103 0.21234 0.66904 0.0
C4561 C 0.22126 0.19399 0.66235 0.0
C4562 C 0.21963 0.16637 0.66415 0.0
C4563 C 0.15859 1.02409 0.64945 0.0
C4564 C 0.1376 0.03542 0.64352 0.0
C4565 C 0.17319 0.03877 0.65712 0.0
C4566 C 0.16861 0.06656 0.65965 0.0
C4567 C 0.14801 0.078 0.65353 0.0
C4568 C 0.13324 0.06323 0.64594 0.0
C4569 C 0.18503 0.08341 0.66814 0.0
C4570 C 0.19091 0.11154 0.66732 0.0
C4571 C 0.195 0.07278 0.67734 0.0
C4572 C 0.18803 0.04514 0.68033 0.0
C4573 C 0.20843 1.02672 0.68279 0.0
C4574 C 0.20182 1.00163 0.68669 0.0
C4575 C 0.17488 0.99489 0.68829 0.0
C4576 C 0.15447 1.01297 0.68577 0.0
C4577 C 0.16096 0.03798 0.68177 0.0
H4578 H 0.16981 0.97555 0.69141 0.0
H4579 H 0.2116 0.23371 0.66764 0.0
H4580 H 0.18302 0.0376 0.95824 0.0
H4581 H 0.20986 1.01215 0.94607 0.0
H4582 H 0.13728 0.98974 0.93108 0.0
H4583 H 0.11089 1.01547 0.94298 0.0
H4584 H 0.16517 0.95028 0.92649 0.0
H4585 H 0.19909 0.04039 0.92434 0.0
H4586 H 0.2212 0.08203 0.92982 0.0
H4587 H 0.29244 0.0374 0.93718 0.0
H4588 H 0.27063 0.99536 0.93178 0.0
H4589 H 0.231 0.89123 0.8831 0.0
H4590 H 0.20646 0.91689 0.89558 0.0
H4591 H 0.28136 0.94408 0.90777 0.0
H4592 H 0.30591 0.91905 0.89492 0.0
H4593 H 0.25334 0.98121 0.91414 0.0
H4594 H 0.21995 0.89167 0.91821 0.0
H4595 H 0.19892 0.84864 0.91348 0.0
H4596 H 0.12818 0.89069 0.90382 0.0
H4597 H 0.14892 0.93401 0.90842 0.0
C4598 C 0.17235 0.02733 0.95242 0.0
C4599 C 0.14355 0.0295 0.95218 0.0
C4600 C 0.18826 1.01253 0.94508 0.0
C4601 C 0.17703 0.99834 0.93678 0.0
C4602 C 0.14824 1.00001 0.93682 0.0
C4603 C 0.13251 1.01513 0.94397 0.0
C4604 C 0.19408 0.98201 0.92832 0.0
C4605 C 0.18429 0.95781 0.92385 0.0
C4606 C 0.22009 0.98946 0.92436 0.0
C4607 C 0.23313 1.01466 0.92768 0.0
C4608 C 0.21945 0.0394 0.92711 0.0
C4609 C 0.23193 0.0631 0.93023 0.0
C4610 C 0.25822 0.06237 0.93386 0.0
C4611 C 0.27207 0.03793 0.93437 0.0
C4612 C 0.25965 1.01416 0.93128 0.0
C4613 C 0.24275 0.90246 0.88839 0.0
C4614 C 0.2715 0.90188 0.88744 0.0
C4615 C 0.22817 0.91746 0.89595 0.0
C4616 C 0.24066 0.93314 0.90359 0.0
C4617 C 0.26952 0.93285 0.90252 0.0
C4618 C 0.28414 0.91797 0.89489 0.0
C4619 C 0.22433 0.94949 0.91227 0.0
C4620 C 0.23421 0.97371 0.91677 0.0
C4621 C 0.19853 0.94191 0.91638 0.0
C4622 C 0.1861 0.91606 0.91355 0.0
C4623 C 0.19998 0.89173 0.91503 0.0
C4624 C 0.18811 0.8673 0.91237 0.0
C4625 C 0.16227 0.86694 0.90832 0.0
C4626 C 0.14822 0.89101 0.90694 0.0
C4627 C 0.16001 0.9155 0.90957 0.0
H4628 H 0.15311 0.84801 0.90627 0.0
H4629 H 0.26786 0.08074 0.93627 0.0
H4630 H 0.32196 0.88388 0.21502 0.0
H4631 H 0.34703 0.90895 0.20247 0.0
H4632 H 0.27298 0.92697 0.18767 0.0
H4633 H 0.24785 0.90197 0.20033 0.0
H4634 H 0.30681 0.9246 0.1728 0.0
H4635 H 0.32204 0.97522 0.20209 0.0
H4636 H 0.33682 0.98486 0.21899 0.0
H4637 H 0.41718 0.9598 0.2117 0.0
H4638 H 0.40279 0.94962 0.19478 0.0
H4639 H 0.37511 1.01695 0.13758 0.0
H4640 H 0.34768 0.99235 0.14963 0.0
H4641 H 0.41624 0.98644 0.16868 0.0
H4642 H 0.44285 1.0122 0.15696 0.0
H4643 H 0.38384 0.98275 0.18138 0.0
H4644 H 0.36873 0.9288 0.15263 0.0
H4645 H 0.35475 0.91902 0.13563 0.0
H4646 H 0.27572 0.94999 0.14178 0.0
H4647 H 0.28933 0.96014 0.1588 0.0
C4648 C 0.31049 0.89317 0.20919 0.0
C4649 C 0.28177 0.88996 0.20929 0.0
C4650 C 0.32535 0.90822 0.20176 0.0
C4651 C 0.31318 0.92155 0.19352 0.0
C4652 C 0.28445 0.91791 0.19354 0.0
C4653 C 0.26952 0.90316 0.20107 0.0
C4654 C 0.32981 0.93847 0.18518 0.0
C4655 C 0.32342 0.93745 0.17492 0.0
C4656 C 0.35265 0.95581 0.18701 0.0
C4657 C 0.36122 0.96127 0.19721 0.0
C4658 C 0.34279 0.97147 0.20412 0.0
C4659 C 0.35112 0.97709 0.2137 0.0
C4660 C 0.3779 0.97284 0.21643 0.0
C4661 C 0.39642 0.96299 0.20958 0.0
C4662 C 0.38818 0.95727 0.2 0.0
C4663 C 0.38484 1.01034 0.14425 0.0
C4664 C 0.41258 1.01731 0.14568 0.0
C4665 C 0.36863 0.99545 0.15142 0.0
C4666 C 0.37854 0.98554 0.16071 0.0
C4667 C 0.40624 0.99275 0.16204 0.0
C4668 C 0.4222 1.00785 0.15498 0.0
C4669 C 0.36116 0.96882 0.16895 0.0
C4670 C 0.36734 0.96988 0.17922 0.0
C4671 C 0.33833 0.95136 0.16712 0.0
C4672 C 0.33013 0.94551 0.15693 0.0
C4673 C 0.34842 0.93364 0.15033 0.0
C4674 C 0.34056 0.92802 0.1407 0.0
C4675 C 0.31439 0.93397 0.13762 0.0
C4676 C 0.296 0.94547 0.14417 0.0
C4677 C 0.30377 0.95115 0.15381 0.0
H4678 H 0.30834 0.9296 0.13016 0.0
H4679 H 0.38431 0.97725 0.22384 0.0
H4680 H 0.80331 0.88406 0.69125 0.0
H4681 H 0.77943 0.90846 0.6784 0.0
H4682 H 0.71401 0.92384 0.69829 0.0
H4683 H 0.73724 0.89722 0.71089 0.0
H4684 H 0.6881 0.93195 0.68414 0.0
H4685 H 0.77651 0.97372 0.68262 0.0
H4686 H 0.82595 0.97472 0.68067 0.0
H4687 H 0.81901 0.93393 0.65298 0.0
H4688 H 0.76963 0.93254 0.65481 0.0
H4689 H 0.62447 0.03195 0.65227 0.0
H4690 H 0.64984 1.00633 0.66433 0.0
H4691 H 0.70351 0.97881 0.64174 0.0
H4692 H 0.67811 1.00563 0.62952 0.0
H4693 H 0.73525 0.97662 0.65677 0.0
H4694 H 0.64614 0.93879 0.65799 0.0
H4695 H 0.59674 0.93951 0.65993 0.0
H4696 H 0.60519 0.97479 0.68854 0.0
H4697 H 0.65462 0.97458 0.68671 0.0
C4698 C 0.78386 0.89259 0.69308 0.0
C4699 C 0.77336 0.8877 0.70269 0.0
C4700 C 0.76972 0.90767 0.68546 0.0
C4701 C 0.74388 0.92057 0.68671 0.0
C4702 C 0.73341 0.91541 0.69637 0.0
C4703 C 0.74725 0.89969 0.70391 0.0
C4704 C 0.7279 0.93822 0.6783 0.0
C4705 C 0.6992 0.9418 0.67835 0.0
C4706 C 0.73993 0.95198 0.67001 0.0
C4707 C 0.76949 0.95276 0.66891 0.0
C4708 C 0.7856 0.9649 0.67614 0.0
C4709 C 0.81359 0.96552 0.67505 0.0
C4710 C 0.82564 0.95429 0.66672 0.0
C4711 C 0.80971 0.94253 0.65944 0.0
C4712 C 0.78172 0.94183 0.6605 0.0
C4713 C 0.64153 1.02045 0.64961 0.0
C4714 C 0.64785 1.02186 0.63935 0.0
C4715 C 0.65648 1.00489 0.6568 0.0
C4716 C 0.67945 0.98845 0.65458 0.0
C4717 C 0.6863 0.9902 0.64431 0.0
C4718 C 0.67125 1.00603 0.63704 0.0
C4719 C 0.69571 0.97048 0.66275 0.0
C4720 C 0.72433 0.96681 0.66263 0.0
C4721 C 0.68365 0.9569 0.67104 0.0
C4722 C 0.65404 0.95687 0.67218 0.0
C4723 C 0.63744 0.94679 0.66468 0.0
C4724 C 0.60944 0.94712 0.66576 0.0
C4725 C 0.59783 0.95723 0.67435 0.0
C4726 C 0.61421 0.96695 0.68189 0.0
C4727 C 0.64221 0.96674 0.68084 0.0
H4728 H 0.57616 0.95752 0.67516 0.0
H4729 H 0.84731 0.95477 0.66589 0.0
H4730 H 0.92888 0.0347 0.44421 0.0
H4731 H 0.90218 1.00925 0.43233 0.0
H4732 H 0.85827 0.97276 0.45586 0.0
H4733 H 0.88521 0.99882 0.46791 0.0
H4734 H 0.86075 0.93331 0.44186 0.0
H4735 H 0.83461 1.0252 0.43684 0.0
H4736 H 0.84136 0.07316 0.43302 0.0
H4737 H 0.87423 0.05182 0.40493 0.0
H4738 H 0.86875 1.00379 0.40873 0.0
H4739 H 0.76528 0.86591 0.40902 0.0
H4740 H 0.79056 0.89221 0.42094 0.0
H4741 H 0.8196 0.94309 0.39794 0.0
H4742 H 0.79295 0.91695 0.38586 0.0
H4743 H 0.82521 0.97562 0.41176 0.0
H4744 H 0.85673 0.8866 0.41623 0.0
H4745 H 0.85687 0.83791 0.4196 0.0
H4746 H 0.82032 0.85232 0.44767 0.0
H4747 H 0.8195 0.90106 0.44439 0.0
C4748 C 0.91353 1.02149 0.4471 0.0
C4749 C 0.9104 1.02013 0.45756 0.0
C4750 C 0.89753 1.00647 0.44001 0.0
C4751 C 0.87654 0.98801 0.44254 0.0
C4752 C 0.87351 0.98621 0.45305 0.0
C4753 C 0.88939 1.00171 0.4602 0.0
C4754 C 0.85875 0.97122 0.43445 0.0
C4755 C 0.85277 0.9432 0.43542 0.0
C4756 C 0.84807 0.9819 0.42537 0.0
C4757 C 0.85157 1.01082 0.42313 0.0
C4758 C 0.84362 0.03072 0.4299 0.0
C4759 C 0.84729 0.05795 0.42775 0.0
C4760 C 0.85846 0.06556 0.41877 0.0
C4761 C 0.8659 0.04595 0.41193 0.0
C4762 C 0.86257 1.01871 0.41409 0.0
C4763 C 0.77704 0.88254 0.40624 0.0
C4764 C 0.77602 0.88785 0.3959 0.0
C4765 C 0.79243 0.89805 0.41337 0.0
C4766 C 0.80924 0.92057 0.41103 0.0
C4767 C 0.80794 0.92635 0.40065 0.0
C4768 C 0.79217 0.91082 0.39346 0.0
C4769 C 0.82696 0.93754 0.41916 0.0
C4770 C 0.83297 0.96564 0.41821 0.0
C4771 C 0.83831 0.92677 0.42815 0.0
C4772 C 0.83771 0.89746 0.43 0.0
C4773 C 0.84844 0.87936 0.42307 0.0
C4774 C 0.8487 0.85176 0.42498 0.0
C4775 C 0.83863 0.84203 0.43385 0.0
C4776 C 0.82818 0.85989 0.44081 0.0
C4777 C 0.82773 0.8875 0.43892 0.0
H4778 H 0.83887 0.82066 0.43531 0.0
H4779 H 0.86123 0.08664 0.41711 0.0
H4780 H 0.88809 1.01264 0.13973 0.0
H4781 H 0.86295 0.03647 0.15268 0.0
H4782 H 0.91752 0.103 0.15056 0.0
H4783 H 0.94246 0.0792 0.13751 0.0
H4784 H 0.905 0.10442 0.16927 0.0
H4785 H 0.83939 0.09839 0.14314 0.0
H4786 H 0.81107 0.07465 0.13104 0.0
H4787 H 0.77608 0.02738 0.15403 0.0
H4788 H 0.80441 0.05068 0.16625 0.0
H4789 H 0.82856 0.19146 0.2032 0.0
H4790 H 0.85293 0.16811 0.19014 0.0
H4791 H 0.78679 0.11333 0.18668 0.0
H4792 H 0.76162 0.13825 0.19938 0.0
H4793 H 0.80555 0.10459 0.17079 0.0
H4794 H 0.87017 0.1055 0.19673 0.0
H4795 H 0.89957 0.12444 0.20959 0.0
H4796 H 0.93767 0.1752 0.18831 0.0
H4797 H 0.90833 0.15669 0.17534 0.0
C4798 C 0.89501 0.03247 0.14183 0.0
C4799 C 0.91823 0.04307 0.13692 0.0
C4800 C 0.88 0.04673 0.14949 0.0
C4801 C 0.88677 0.07304 0.15318 0.0
C4802 C 0.91035 0.08333 0.14839 0.0
C4803 C 0.9251 0.06925 0.14062 0.0
C4804 C 0.87016 0.08926 0.16176 0.0
C4805 C 0.88318 0.10444 0.16933 0.0
C4806 C 0.84119 0.09001 0.16288 0.0
C4807 C 0.82412 0.07612 0.15558 0.0
C4808 C 0.82573 0.08285 0.1456 0.0
C4809 C 0.80968 0.06948 0.13873 0.0
C4810 C 0.79182 0.04948 0.14176 0.0
C4811 C 0.78993 0.04286 0.15169 0.0
C4812 C 0.80595 0.05615 0.15859 0.0
C4813 C 0.81879 0.17438 0.1998 0.0
C4814 C 0.79212 0.16771 0.20299 0.0
C4815 C 0.8335 0.16005 0.19209 0.0
C4816 C 0.82364 0.13678 0.18689 0.0
C4817 C 0.79672 0.13034 0.19005 0.0
C4818 C 0.78175 0.14506 0.19764 0.0
C4819 C 0.84034 0.12011 0.17836 0.0
C4820 C 0.82735 0.10478 0.17077 0.0
C4821 C 0.86942 0.11861 0.17737 0.0
C4822 C 0.88685 0.12998 0.18511 0.0
C4823 C 0.88473 0.12081 0.19482 0.0
C4824 C 0.90138 0.13145 0.20212 0.0
C4825 C 0.9204 0.15108 0.19978 0.0
C4826 C 0.92287 0.16006 0.19012 0.0
C4827 C 0.90625 0.1495 0.18279 0.0
H4828 H 0.93328 0.15929 0.20544 0.0
H4829 H 0.77942 0.03915 0.13643 0.0
H4830 H 0.60138 0.05106 0.94992 0.0
H4831 H 0.62664 0.07764 0.93817 0.0
H4832 H 0.70071 0.05239 0.95155 0.0
H4833 H 0.67473 0.02708 0.96395 0.0
H4834 H 0.71906 0.09249 0.94338 0.0
H4835 H 0.66201 0.03621 0.92359 0.0
H4836 H 0.61932 1.0167 0.91769 0.0
H4837 H 0.58924 0.09574 0.91128 0.0
H4838 H 0.63162 0.11572 0.91727 0.0
H4839 H 0.79808 0.14518 0.90129 0.0
H4840 H 0.77394 0.11933 0.91385 0.0
H4841 H 0.69893 0.1523 0.90384 0.0
H4842 H 0.72318 0.17775 0.89114 0.0
H4843 H 0.6822 0.10775 0.9102 0.0
H4844 H 0.74219 0.16314 0.9294 0.0
H4845 H 0.78637 0.1807 0.93465 0.0
H4846 H 0.81263 0.10054 0.94143 0.0
H4847 H 0.76886 0.08255 0.93608 0.0
C4848 C 0.6231 0.05091 0.95058 0.0
C4849 C 0.63474 0.03591 0.95848 0.0
C4850 C 0.6383 0.0663 0.9434 0.0
C4851 C 0.66719 0.0676 0.94295 0.0
C4852 C 0.67899 0.05285 0.95099 0.0
C4853 C 0.6636 0.03785 0.95839 0.0
C4854 C 0.68423 0.08398 0.9345 0.0
C4855 C 0.7105 0.09518 0.93615 0.0
C4856 C 0.67519 0.08935 0.92458 0.0
C4857 C 0.64982 0.07744 0.92097 0.0
C4858 C 0.64623 0.0494 0.92095 0.0
C4859 C 0.62209 0.03827 0.9176 0.0
C4860 C 0.60156 0.05499 0.91413 0.0
C4861 C 0.60514 0.08284 0.91399 0.0
C4862 C 0.6292 0.09407 0.91737 0.0
C4863 C 0.7764 0.14731 0.90163 0.0
C4864 C 0.76365 0.16471 0.89465 0.0
C4865 C 0.76202 0.13219 0.90918 0.0
C4866 C 0.73329 0.13294 0.91063 0.0
C4867 C 0.72059 0.1501 0.90354 0.0
C4868 C 0.73498 0.16526 0.896 0.0
C4869 C 0.71683 0.11629 0.9191 0.0
C4870 C 0.69067 0.10508 0.91745 0.0
C4871 C 0.72617 0.11062 0.92895 0.0
C4872 C 0.75236 0.12149 0.93225 0.0
C4873 C 0.75747 0.14928 0.93197 0.0
C4874 C 0.78245 0.15932 0.93495 0.0
C4875 C 0.80238 0.14177 0.93834 0.0
C4876 C 0.7973 0.11416 0.93878 0.0
C4877 C 0.77239 0.10403 0.93577 0.0
H4878 H 0.82171 0.14959 0.94064 0.0
H4879 H 0.58288 0.04642 0.91154 0.0
H4880 H 0.82806 0.67731 0.88371 0.0
H4881 H 0.85341 0.65279 0.89635 0.0
H4882 H 0.77928 0.63071 0.91032 0.0
H4883 H 0.75388 0.65508 0.89756 0.0
H4884 H 0.81234 0.63448 0.92547 0.0
H4885 H 0.83079 0.58481 0.89611 0.0
H4886 H 0.84643 0.57745 0.87915 0.0
H4887 H 0.92493 0.60662 0.88691 0.0
H4888 H 0.90966 0.61446 0.9039 0.0
H4889 H 0.88191 0.54396 0.96088 0.0
H4890 H 0.85432 0.56789 0.9487 0.0
H4891 H 0.92338 0.57505 0.92991 0.0
H4892 H 0.95024 0.55007 0.94182 0.0
H4893 H 0.89152 0.57868 0.91708 0.0
H4894 H 0.87365 0.63124 0.94601 0.0
H4895 H 0.85832 0.64113 0.96286 0.0
H4896 H 0.78005 0.60968 0.95601 0.0
H4897 H 0.79503 0.5993 0.93917 0.0
C4898 C 0.81666 0.66721 0.88937 0.0
C4899 C 0.78785 0.669 0.88901 0.0
C4900 C 0.83168 0.65251 0.89685 0.0
C4901 C 0.81954 0.63823 0.90486 0.0
C4902 C 0.7907 0.64054 0.90461 0.0
C4903 C 0.77563 0.6549 0.89703 0.0
C4904 C 0.83633 0.62162 0.91321 0.0
C4905 C 0.82945 0.62217 0.92341 0.0
C4906 C 0.85979 0.60504 0.91143 0.0
C4907 C 0.86899 0.60049 0.90124 0.0
C4908 C 0.85133 0.58983 0.89418 0.0
C4909 C 0.86014 0.58555 0.88456 0.0
C4910 C 0.88664 0.59164 0.88194 0.0
C4911 C 0.9044 0.60196 0.88894 0.0
C4912 C 0.89568 0.60632 0.89857 0.0
C4913 C 0.8917 0.55072 0.95425 0.0
C4914 C 0.91965 0.54434 0.95294 0.0
C4915 C 0.8754 0.56524 0.947 0.0
C4916 C 0.88542 0.57536 0.93776 0.0
C4917 C 0.91333 0.56868 0.93654 0.0
C4918 C 0.9294 0.55398 0.94368 0.0
C4919 C 0.8679 0.59177 0.92948 0.0
C4920 C 0.87457 0.59109 0.91923 0.0
C4921 C 0.84446 0.60855 0.93124 0.0
C4922 C 0.83559 0.61413 0.94139 0.0
C4923 C 0.85325 0.62622 0.94814 0.0
C4924 C 0.84461 0.63194 0.95768 0.0
C4925 C 0.81827 0.62592 0.96052 0.0
C4926 C 0.80048 0.61422 0.95382 0.0
C4927 C 0.80904 0.60839 0.94428 0.0
H4928 H 0.81161 0.63041 0.9679 0.0
H4929 H 0.89342 0.58829 0.8745 0.0
H4930 H 0.6681 0.49891 0.14771 0.0
H4931 H 0.69403 0.52319 0.16022 0.0
H4932 H 0.64172 0.5915 0.15709 0.0
H4933 H 0.61674 0.56752 0.14419 0.0
H4934 H 0.67969 0.61644 0.16359 0.0
H4935 H 0.65609 0.53506 0.18029 0.0
H4936 H 0.65328 0.48613 0.18307 0.0
H4937 H 0.73943 0.47992 0.18145 0.0
H4938 H 0.74271 0.52879 0.17857 0.0
H4939 H 0.72876 0.68205 0.20908 0.0
H4940 H 0.70466 0.65699 0.19623 0.0
H4941 H 0.77004 0.60068 0.19445 0.0
H4942 H 0.79448 0.62624 0.20723 0.0
H4943 H 0.72628 0.56966 0.19065 0.0
H4944 H 0.74876 0.65261 0.17507 0.0
H4945 H 0.75028 0.70182 0.17295 0.0
H4946 H 0.66387 0.7052 0.17327 0.0
H4947 H 0.66184 0.65601 0.1755 0.0
C4948 C 0.66167 0.5191 0.14959 0.0
C4949 C 0.63912 0.53012 0.1444 0.0
C4950 C 0.67684 0.53351 0.15716 0.0
C4951 C 0.67079 0.56036 0.16058 0.0
C4952 C 0.64833 0.57135 0.15527 0.0
C4953 C 0.63338 0.55707 0.14761 0.0
C4954 C 0.68727 0.57671 0.16921 0.0
C4955 C 0.6893 0.60553 0.16948 0.0
C4956 C 0.70145 0.56475 0.17742 0.0
C4957 C 0.69962 0.53547 0.1791 0.0
C4958 C 0.67441 0.52321 0.18048 0.0
C4959 C 0.67274 0.4955 0.18207 0.0
C4960 C 0.69616 0.47991 0.1824 0.0
C4961 C 0.72131 0.49201 0.18117 0.0
C4962 C 0.72309 0.5197 0.17955 0.0
C4963 C 0.73854 0.66442 0.20605 0.0
C4964 C 0.76464 0.65732 0.20977 0.0
C4965 C 0.72429 0.6496 0.19837 0.0
C4966 C 0.73438 0.62576 0.19363 0.0
C4967 C 0.76034 0.61838 0.19746 0.0
C4968 C 0.77486 0.63355 0.20503 0.0
C4969 C 0.71839 0.60919 0.18501 0.0
C4970 C 0.71653 0.58043 0.18474 0.0
C4971 C 0.70405 0.6212 0.17689 0.0
C4972 C 0.70515 0.65069 0.17556 0.0
C4973 C 0.73008 0.66388 0.17476 0.0
C4974 C 0.73104 0.69176 0.17352 0.0
C4975 C 0.70719 0.70664 0.17301 0.0
C4976 C 0.68233 0.69365 0.17369 0.0
C4977 C 0.68126 0.66577 0.17493 0.0
H4978 H 0.70797 0.72822 0.17205 0.0
H4979 H 0.69483 0.45847 0.18364 0.0
H4980 H 0.79995 0.37944 0.40305 0.0
H4981 H 0.77646 0.40674 0.41514 0.0
H4982 H 0.72434 0.43727 0.39265 0.0
H4983 H 0.74975 0.41093 0.38025 0.0
H4984 H 0.71755 0.47433 0.40465 0.0
H4985 H 0.71357 0.3837 0.41757 0.0
H4986 H 0.73267 0.34066 0.4233 0.0
H4987 H 0.78066 0.38282 0.44454 0.0
H4988 H 0.76169 0.42602 0.43894 0.0
H4989 H 0.62279 0.53196 0.44049 0.0
H4990 H 0.64834 0.50638 0.42834 0.0
H4991 H 0.70509 0.48355 0.45054 0.0
H4992 H 0.6788 0.50926 0.4629 0.0
H4993 H 0.70948 0.44283 0.43887 0.0
H4994 H 0.71302 0.53261 0.42666 0.0
H4995 H 0.69701 0.57653 0.4206 0.0
H4996 H 0.65115 0.53694 0.39815 0.0
H4997 H 0.66668 0.49275 0.40413 0.0
C4998 C 0.78351 0.39185 0.40044 0.0
C4999 C 0.77794 0.39168 0.39012 0.0
C5000 C 0.76903 0.40776 0.40772 0.0
C5001 C 0.74628 0.42468 0.40564 0.0
C5002 C 0.74089 0.42501 0.39522 0.0
C5003 C 0.75598 0.40942 0.38783 0.0
C5004 C 0.72918 0.4416 0.41401 0.0
C5005 C 0.71579 0.46661 0.41203 0.0
C5006 C 0.72583 0.43405 0.42422 0.0
C5007 C 0.73659 0.40808 0.42774 0.0
C5008 C 0.72822 0.38375 0.42345 0.0
C5009 C 0.73899 0.35933 0.42668 0.0
C5010 C 0.75796 0.35901 0.43425 0.0
C5011 C 0.76604 0.38309 0.43866 0.0
C5012 C 0.75527 0.40752 0.43547 0.0
C5013 C 0.64074 0.52175 0.44302 0.0
C5014 C 0.64748 0.52394 0.45323 0.0
C5015 C 0.65617 0.50674 0.43574 0.0
C5016 C 0.68044 0.49212 0.43777 0.0
C5017 C 0.68717 0.4939 0.44806 0.0
C5018 C 0.67164 0.50918 0.45541 0.0
C5019 C 0.69769 0.47535 0.42946 0.0
C5020 C 0.71111 0.45042 0.43146 0.0
C5021 C 0.70105 0.48299 0.41928 0.0
C5022 C 0.69087 0.50937 0.41589 0.0
C5023 C 0.69935 0.53326 0.42048 0.0
C5024 C 0.69044 0.5582 0.41704 0.0
C5025 C 0.67323 0.55951 0.40896 0.0
C5026 C 0.66461 0.53588 0.40437 0.0
C5027 C 0.67345 0.51089 0.40779 0.0
H5028 H 0.66651 0.57884 0.40626 0.0
H5029 H 0.76633 0.3401 0.43672 0.0
H5030 H 0.77047 0.42855 0.71427 0.0
H5031 H 0.79535 0.45549 0.70201 0.0
H5032 H 0.81689 0.38326 0.68659 0.0
H5033 H 0.79183 0.35666 0.69862 0.0
H5034 H 0.8598 0.41398 0.6837 0.0
H5035 H 0.76757 0.43761 0.67956 0.0
H5036 H 0.72339 0.45522 0.68472 0.0
H5037 H 0.75825 0.53289 0.68994 0.0
H5038 H 0.80292 0.51543 0.68523 0.0
H5039 H 0.91867 0.47878 0.64027 0.0
H5040 H 0.89326 0.4538 0.65263 0.0
H5041 H 0.85926 0.52767 0.66338 0.0
H5042 H 0.8841 0.55261 0.65064 0.0
H5043 H 0.82243 0.49674 0.66899 0.0
H5044 H 0.91408 0.47326 0.67562 0.0
H5045 H 0.95981 0.45616 0.67219 0.0
H5046 H 0.92691 0.38023 0.66314 0.0
H5047 H 0.88095 0.397 0.66643 0.0
C5048 C 0.78057 0.41794 0.70838 0.0
C5049 C 0.77835 0.38916 0.70806 0.0
C5050 C 0.79512 0.43389 0.70104 0.0
C5051 C 0.80913 0.42271 0.69268 0.0
C5052 C 0.80721 0.394 0.69254 0.0
C5053 C 0.79236 0.37822 0.69972 0.0
C5054 C 0.82517 0.4399 0.68427 0.0
C5055 C 0.85095 0.43189 0.68054 0.0
C5056 C 0.81578 0.46435 0.67965 0.0
C5057 C 0.78879 0.47504 0.68223 0.0
C5058 C 0.76594 0.45835 0.68194 0.0
C5059 C 0.74078 0.4683 0.6848 0.0
C5060 C 0.73801 0.49514 0.68767 0.0
C5061 C 0.76043 0.51207 0.68774 0.0
C5062 C 0.78572 0.50211 0.68504 0.0
C5063 C 0.90594 0.49023 0.6452 0.0
C5064 C 0.90462 0.51881 0.64389 0.0
C5065 C 0.89104 0.47541 0.65268 0.0
C5066 C 0.8735 0.48751 0.65986 0.0
C5067 C 0.87193 0.51616 0.65846 0.0
C5068 C 0.88671 0.53101 0.6509 0.0
C5069 C 0.85726 0.4709 0.66844 0.0
C5070 C 0.83135 0.4789 0.67217 0.0
C5071 C 0.86665 0.4466 0.67319 0.0
C5072 C 0.89411 0.43648 0.67116 0.0
C5073 C 0.91661 0.45297 0.67284 0.0
C5074 C 0.94256 0.44333 0.67094 0.0
C5075 C 0.94626 0.41715 0.66742 0.0
C5076 C 0.92401 0.40053 0.66584 0.0
C5077 C 0.89801 0.41008 0.66773 0.0
H5078 H 0.96636 0.40973 0.66595 0.0
H5079 H 0.71847 0.50285 0.68982 0.0
H5080 H 0.30897 0.41694 0.19683 0.0
H5081 H 0.2843 0.44314 0.18439 0.0
H5082 H 0.21208 0.39977 0.19113 0.0
H5083 H 0.23663 0.37407 0.20373 0.0
H5084 H 0.2072 0.40849 0.17182 0.0
H5085 H 0.22782 0.47465 0.19633 0.0
H5086 H 0.25698 0.50173 0.20715 0.0
H5087 H 0.30001 0.53132 0.18211 0.0
H5088 H 0.27131 0.50414 0.17115 0.0
H5089 H 0.11993 0.49013 0.13992 0.0
H5090 H 0.14388 0.46526 0.15264 0.0
H5091 H 0.20751 0.52361 0.15205 0.0
H5092 H 0.18218 0.54964 0.13975 0.0
H5093 H 0.21759 0.50684 0.16832 0.0
H5094 H 0.20181 0.43935 0.14383 0.0
H5095 H 0.17563 0.41094 0.13244 0.0
H5096 H 0.12752 0.3824 0.1564 0.0
H5097 H 0.15329 0.41083 0.16792 0.0
C5098 C 0.28778 0.41269 0.19584 0.0
C5099 C 0.27585 0.39231 0.20186 0.0
C5100 C 0.27307 0.42833 0.18848 0.0
C5101 C 0.24494 0.42495 0.18624 0.0
C5102 C 0.23322 0.4042 0.19216 0.0
C5103 C 0.24777 0.389 0.19965 0.0
C5104 C 0.22826 0.4422 0.178 0.0
C5105 C 0.20964 0.43008 0.1713 0.0
C5106 C 0.23032 0.47087 0.17639 0.0
C5107 C 0.24761 0.48715 0.18293 0.0
C5108 C 0.24363 0.48678 0.19314 0.0
C5109 C 0.26005 0.50217 0.1993 0.0
C5110 C 0.28038 0.51818 0.19532 0.0
C5111 C 0.28429 0.51888 0.18518 0.0
C5112 C 0.26794 0.50349 0.17899 0.0
C5113 C 0.1391 0.49806 0.14234 0.0
C5114 C 0.1481 0.52289 0.13817 0.0
C5115 C 0.15371 0.48298 0.14983 0.0
C5116 C 0.17955 0.49045 0.15378 0.0
C5117 C 0.18841 0.51555 0.14964 0.0
C5118 C 0.17343 0.53101 0.14229 0.0
C5119 C 0.19646 0.47315 0.16203 0.0
C5120 C 0.21511 0.48526 0.16877 0.0
C5121 C 0.19487 0.44432 0.16356 0.0
C5122 C 0.17924 0.42743 0.1567 0.0
C5123 C 0.18555 0.42711 0.14665 0.0
C5124 C 0.1708 0.411 0.14018 0.0
C5125 C 0.14987 0.39495 0.14369 0.0
C5126 C 0.14369 0.3949 0.15369 0.0
C5127 C 0.15836 0.41099 0.16019 0.0
H5128 H 0.13848 0.38249 0.13867 0.0
H5129 H 0.29307 0.53009 0.2001 0.0
H5130 H 0.37761 0.51746 0.96643 0.0
H5131 H 0.34998 0.49291 0.95438 0.0
H5132 H 0.4179 0.48801 0.93495 0.0
H5133 H 0.44474 0.51358 0.94672 0.0
H5134 H 0.38562 0.48291 0.92232 0.0
H5135 H 0.37163 0.42916 0.95101 0.0
H5136 H 0.35827 0.41863 0.968 0.0
H5137 H 0.27893 0.44956 0.96249 0.0
H5138 H 0.29197 0.4606 0.94551 0.0
H5139 H 0.28891 0.4236 0.88636 0.0
H5140 H 0.31468 0.45034 0.89841 0.0
H5141 H 0.30511 0.38763 0.91966 0.0
H5142 H 0.27894 0.36157 0.9078 0.0
H5143 H 0.30909 0.42485 0.93135 0.0
H5144 H 0.35986 0.50244 0.90639 0.0
H5145 H 0.37745 0.50688 0.88956 0.0
H5146 H 0.3889 0.42137 0.88784 0.0
H5147 H 0.37163 0.41646 0.9047 0.0
C5148 C 0.38717 0.51107 0.95968 0.0
C5149 C 0.41482 0.51825 0.95816 0.0
C5150 C 0.37085 0.4962 0.9525 0.0
C5151 C 0.38051 0.48652 0.94312 0.0
C5152 C 0.40811 0.49397 0.9417 0.0
C5153 C 0.42419 0.50903 0.94876 0.0
C5154 C 0.36292 0.46978 0.93489 0.0
C5155 C 0.36867 0.47077 0.92457 0.0
C5156 C 0.34053 0.45193 0.93683 0.0
C5157 C 0.33284 0.44594 0.94705 0.0
C5158 C 0.3514 0.43388 0.95345 0.0
C5159 C 0.34389 0.42781 0.96307 0.0
C5160 C 0.31779 0.4335 0.96633 0.0
C5161 C 0.29915 0.44525 0.95997 0.0
C5162 C 0.30659 0.45143 0.95035 0.0
C5163 C 0.2922 0.41503 0.89354 0.0
C5164 C 0.28093 0.38906 0.89553 0.0
C5165 C 0.3077 0.43078 0.90071 0.0
C5166 C 0.31367 0.42219 0.9106 0.0
C5167 C 0.30203 0.3964 0.91251 0.0
C5168 C 0.28664 0.3808 0.9054 0.0
C5169 C 0.33105 0.43908 0.9188 0.0
C5170 C 0.32554 0.4377 0.92912 0.0
C5171 C 0.35384 0.45637 0.91686 0.0
C5172 C 0.36408 0.45906 0.90674 0.0
C5173 C 0.36612 0.48459 0.90242 0.0
C5174 C 0.37605 0.48719 0.89287 0.0
C5175 C 0.38417 0.46441 0.88762 0.0
C5176 C 0.38249 0.43898 0.8919 0.0
C5177 C 0.37261 0.43628 0.90145 0.0
H5178 H 0.39184 0.46646 0.88023 0.0
H5179 H 0.312 0.42874 0.97377 0.0
H5180 H 0.45237 0.54108 0.65108 0.0
H5181 H 0.42582 0.56663 0.66295 0.0
H5182 H 0.35703 0.5616 0.64407 0.0
H5183 H 0.38402 0.53544 0.63202 0.0
H5184 H 0.34999 0.60942 0.65333 0.0
H5185 H 0.35456 0.52759 0.67649 0.0
H5186 H 0.37891 0.49161 0.68525 0.0
H5187 H 0.44592 0.54461 0.68985 0.0
H5188 H 0.42131 0.58126 0.68152 0.0
H5189 H 0.26076 0.67182 0.69002 0.0
H5190 H 0.285 0.64493 0.67799 0.0
H5191 H 0.34467 0.62555 0.69965 0.0
H5192 H 0.31848 0.65089 0.71206 0.0
H5193 H 0.35656 0.58955 0.68874 0.0
H5194 H 0.34212 0.67398 0.67218 0.0
H5195 H 0.31562 0.71166 0.66542 0.0
H5196 H 0.26972 0.65636 0.64794 0.0
H5197 H 0.29577 0.61833 0.65468 0.0
C5198 C 0.43153 0.54501 0.64924 0.0
C5199 C 0.42162 0.5347 0.64008 0.0
C5200 C 0.41559 0.55991 0.65641 0.0
C5201 C 0.38769 0.56661 0.65527 0.0
C5202 C 0.37784 0.55743 0.64587 0.0
C5203 C 0.39387 0.54204 0.63867 0.0
C5204 C 0.36995 0.58318 0.66349 0.0
C5205 C 0.35164 0.60444 0.66104 0.0
C5206 C 0.37071 0.57906 0.67399 0.0
C5207 C 0.38654 0.55677 0.67813 0.0
C5208 C 0.37462 0.53141 0.67927 0.0
C5209 C 0.38829 0.51104 0.68427 0.0
C5210 C 0.41408 0.51571 0.68799 0.0
C5211 C 0.42605 0.54093 0.68688 0.0
C5212 C 0.41216 0.56157 0.6821 0.0
C5213 C 0.27898 0.66186 0.69245 0.0
C5214 C 0.28634 0.66458 0.70257 0.0
C5215 C 0.29394 0.64632 0.68518 0.0
C5216 C 0.319 0.63269 0.68701 0.0
C5217 C 0.32626 0.6351 0.69724 0.0
C5218 C 0.31069 0.6501 0.70465 0.0
C5219 C 0.33662 0.6162 0.67866 0.0
C5220 C 0.35484 0.59481 0.68107 0.0
C5221 C 0.33612 0.62061 0.66812 0.0
C5222 C 0.32059 0.64333 0.66403 0.0
C5223 C 0.32629 0.66988 0.66692 0.0
C5224 C 0.31134 0.69127 0.66311 0.0
C5225 C 0.29087 0.68637 0.65631 0.0
C5226 C 0.28542 0.66008 0.65326 0.0
C5227 C 0.30026 0.63861 0.65707 0.0
H5228 H 0.2793 0.70295 0.65337 0.0
H5229 H 0.42473 0.49982 0.69178 0.0
H5230 H 0.10799 0.57089 0.45841 0.0
H5231 H 0.13317 0.5956 0.44584 0.0
H5232 H 0.19253 0.53284 0.44508 0.0
H5233 H 0.16685 0.50776 0.4576 0.0
H5234 H 0.22209 0.57671 0.44146 0.0
H5235 H 0.14176 0.5544 0.42223 0.0
H5236 H 0.09253 0.55222 0.41965 0.0
H5237 H 0.08614 0.63696 0.42544 0.0
H5238 H 0.13527 0.63939 0.42816 0.0
H5239 H 0.29588 0.63855 0.40013 0.0
H5240 H 0.27147 0.61211 0.41233 0.0
H5241 H 0.19998 0.65846 0.40681 0.0
H5242 H 0.22415 0.68342 0.39404 0.0
H5243 H 0.17637 0.62249 0.41399 0.0
H5244 H 0.25513 0.648 0.43202 0.0
H5245 H 0.30358 0.65247 0.43571 0.0
H5246 H 0.31322 0.5668 0.43363 0.0
H5247 H 0.26486 0.56187 0.42985 0.0
C5248 C 0.12631 0.56179 0.45565 0.0
C5249 C 0.13422 0.53623 0.45959 0.0
C5250 C 0.14119 0.57638 0.44811 0.0
C5251 C 0.16594 0.56725 0.44374 0.0
C5252 C 0.1741 0.54182 0.44779 0.0
C5253 C 0.15887 0.52692 0.45521 0.0
C5254 C 0.18284 0.5838 0.43537 0.0
C5255 C 0.21159 0.58626 0.43544 0.0
C5256 C 0.17123 0.59816 0.42719 0.0
C5257 C 0.14192 0.59691 0.42558 0.0
C5258 C 0.1297 0.57241 0.42308 0.0
C5259 C 0.10189 0.57117 0.42155 0.0
C5260 C 0.08619 0.59441 0.42244 0.0
C5261 C 0.0983 0.61895 0.42479 0.0
C5262 C 0.12611 0.62027 0.42631 0.0
C5263 C 0.27495 0.64355 0.40142 0.0
C5264 C 0.26313 0.66436 0.39558 0.0
C5265 C 0.26039 0.62812 0.40884 0.0
C5266 C 0.23258 0.6324 0.41153 0.0
C5267 C 0.22086 0.65323 0.40559 0.0
C5268 C 0.23525 0.66821 0.39801 0.0
C5269 C 0.21596 0.61566 0.42 0.0
C5270 C 0.18714 0.61308 0.41996 0.0
C5271 C 0.22753 0.6018 0.42836 0.0
C5272 C 0.25652 0.60461 0.43054 0.0
C5273 C 0.26764 0.63015 0.43231 0.0
C5274 C 0.29506 0.63276 0.43442 0.0
C5275 C 0.31148 0.60994 0.43487 0.0
C5276 C 0.30049 0.58446 0.43325 0.0
C5277 C 0.27309 0.58174 0.43113 0.0
H5278 H 0.33271 0.612 0.43651 0.0
H5279 H 0.06466 0.59342 0.42126 0.0
H5280 H 0.1362 0.1069 0.32208 0.0
H5281 H 0.11875 0.07065 0.31189 0.0
H5282 H 0.11691 1.01816 0.33702 0.0
H5283 H 0.13531 0.05419 0.34719 0.0
H5284 H 0.14904 0.99922 0.32363 0.0
H5285 H 0.05905 0.02816 0.32314 0.0
H5286 H 1.02075 0.05965 0.3223 0.0
H5287 H 0.04277 0.08093 0.2929 0.0
H5288 H 0.08146 0.04992 0.2936 0.0
H5289 H 0.1566 0.90985 0.28353 0.0
H5290 H 0.13429 0.92928 0.2979 0.0
H5291 H 0.13256 1.00672 0.28373 0.0
H5292 H 0.15333 0.98721 0.26919 0.0
H5293 H 0.08853 1.00045 0.29474 0.0
H5294 H 0.18614 0.98638 0.29866 0.0
H5295 H 0.22678 0.95783 0.29944 0.0
H5296 H 0.19109 0.91142 0.32252 0.0
H5297 H 0.15012 0.93958 0.3218 0.0
C5298 C 0.13135 0.08787 0.32549 0.0
C5299 C 0.13765 0.08319 0.33537 0.0
C5300 C 0.12097 0.06722 0.31969 0.0
C5301 C 0.11654 0.04161 0.32369 0.0
C5302 C 0.12014 0.03777 0.33379 0.0
C5303 C 0.1306 0.05843 0.3396 0.0
C5304 C 0.11447 1.01819 0.317 0.0
C5305 C 0.13509 0.9989 0.31751 0.0
C5306 C 0.09655 1.01791 0.30894 0.0
C5307 C 0.07323 0.03663 0.30843 0.0
C5308 C 0.05584 0.03965 0.31651 0.0
C5309 C 0.03403 0.05742 0.31606 0.0
C5310 C 0.02932 0.07227 0.30755 0.0
C5311 C 0.04641 0.06937 0.29948 0.0
C5312 C 0.06826 0.05163 0.29989 0.0
C5313 C 0.15088 0.93087 0.28339 0.0
C5314 C 0.15727 0.94714 0.2753 0.0
C5315 C 0.1382 0.94194 0.29162 0.0
C5316 C 0.13213 0.96952 0.29194 0.0
C5317 C 0.13708 0.98539 0.28365 0.0
C5318 C 0.14944 0.97431 0.27541 0.0
C5319 C 0.12399 0.98292 0.30118 0.0
C5320 C 0.10154 1.00014 0.30112 0.0
C5321 C 0.14039 0.98163 0.30964 0.0
C5322 C 0.165 0.9648 0.31009 0.0
C5323 C 0.18693 0.96998 0.30386 0.0
C5324 C 0.21001 0.95389 0.30429 0.0
C5325 C 0.21148 0.93276 0.311 0.0
C5326 C 0.18989 0.92774 0.31731 0.0
C5327 C 0.16674 0.94374 0.31689 0.0
H5328 H 0.22936 0.92032 0.31133 0.0
H5329 H 1.01243 0.08603 0.30722 0.0
H5330 H 0.18943 0.92263 0.56957 0.0
H5331 H 0.21842 0.90567 0.55641 0.0
H5332 H 0.28234 0.89237 0.57725 0.0
H5333 H 0.2534 0.90891 0.59045 0.0
H5334 H 0.29617 0.92625 0.56242 0.0
H5335 H 0.25612 0.83971 0.56567 0.0
H5336 H 0.219 0.80706 0.56692 0.0
H5337 H 0.19153 0.82897 0.5382 0.0
H5338 H 0.22824 0.86206 0.53682 0.0
H5339 H 0.38558 0.89717 0.52432 0.0
H5340 H 0.35924 0.88584 0.53889 0.0
H5341 H 0.28576 0.8991 0.52277 0.0
H5342 H 0.31176 0.91091 0.50828 0.0
H5343 H 0.28042 0.85816 0.53638 0.0
H5344 H 0.31155 0.94951 0.53444 0.0
H5345 H 0.34431 0.98649 0.53306 0.0
H5346 H 0.38429 0.95925 0.55911 0.0
H5347 H 0.352 0.92176 0.56054 0.0
C5348 C 0.2094 0.91543 0.57138 0.0
C5349 C 0.21936 0.91755 0.58099 0.0
C5350 C 0.2259 0.90564 0.56387 0.0
C5351 C 0.25247 0.89775 0.56589 0.0
C5352 C 0.26188 0.89839 0.57556 0.0
C5353 C 0.24543 0.90809 0.58306 0.0
C5354 C 0.27157 0.89294 0.55777 0.0
C5355 C 0.29319 0.91082 0.55688 0.0
C5356 C 0.26699 0.87344 0.55039 0.0
C5357 C 0.24487 0.85352 0.55118 0.0
C5358 C 0.24204 0.83774 0.55965 0.0
C5359 C 0.22109 0.81912 0.56038 0.0
C5360 C 0.20289 0.81598 0.55265 0.0
C5361 C 0.20564 0.83143 0.54418 0.0
C5362 C 0.22654 0.8501 0.54342 0.0
C5363 C 0.36381 0.89726 0.52384 0.0
C5364 C 0.35076 0.90536 0.5152 0.0
C5365 C 0.34883 0.89058 0.53214 0.0
C5366 C 0.32061 0.89197 0.5319 0.0
C5367 C 0.30753 0.8978 0.52307 0.0
C5368 C 0.32247 0.90456 0.51478 0.0
C5369 C 0.30489 0.89151 0.54109 0.0
C5370 C 0.28383 0.87295 0.54211 0.0
C5371 C 0.30956 0.91074 0.54855 0.0
C5372 C 0.32962 0.93261 0.54751 0.0
C5373 C 0.32756 0.95117 0.53979 0.0
C5374 C 0.34598 0.97228 0.53902 0.0
C5375 C 0.36633 0.97523 0.546 0.0
C5376 C 0.36848 0.95694 0.55372 0.0
C5377 C 0.35017 0.93573 0.5545 0.0
H5378 H 0.38039 0.99174 0.54545 0.0
H5379 H 0.18669 0.80154 0.55323 0.0
H5380 H 0.40566 0.10353 0.7732 0.0
H5381 H 0.42444 0.07027 0.7842 0.0
H5382 H 0.4521 1.02343 0.75944 0.0
H5383 H 0.43272 0.0568 0.74832 0.0
H5384 H 0.42158 0.99434 0.76976 0.0
H5385 H 0.4974 0.04434 0.77804 0.0
H5386 H 0.52535 0.08382 0.78198 0.0
H5387 H 0.48086 0.09614 0.80862 0.0
H5388 H 0.45234 0.05705 0.80478 0.0
H5389 H 0.43485 0.93849 0.82387 0.0
H5390 H 0.45703 0.95629 0.80917 0.0
H5391 H 0.37968 0.98053 0.79777 0.0
H5392 H 0.35756 0.96259 0.8123 0.0
H5393 H 0.45722 1.00809 0.80335 0.0
H5394 H 0.37704 0.97527 0.77404 0.0
H5395 H 0.35079 0.93468 0.77006 0.0
H5396 H 0.40909 0.88555 0.78484 0.0
H5397 H 0.43596 0.92577 0.78879 0.0
C5398 C 0.41673 0.08677 0.77008 0.0
C5399 C 0.4174 0.08256 0.75991 0.0
C5400 C 0.42766 0.06772 0.7764 0.0
C5401 C 0.43979 0.04425 0.77267 0.0
C5402 C 0.44278 0.04132 0.76249 0.0
C5403 C 0.43163 0.06032 0.75615 0.0
C5404 C 0.44373 1.021 0.77931 0.0
C5405 C 0.42995 0.99712 0.77703 0.0
C5406 C 0.45558 1.02403 0.78868 0.0
C5407 C 0.47273 0.04761 0.79111 0.0
C5408 C 0.49348 0.05552 0.78472 0.0
C5409 C 0.50944 0.07785 0.78694 0.0
C5410 C 0.50491 0.09246 0.79555 0.0
C5411 C 0.4844 0.08476 0.80196 0.0
C5412 C 0.46838 0.06245 0.79978 0.0
C5413 C 0.42262 0.94715 0.81811 0.0
C5414 C 0.39453 0.9493 0.8192 0.0
C5415 C 0.4353 0.95735 0.80977 0.0
C5416 C 0.41997 0.96941 0.80235 0.0
C5417 C 0.39186 0.97084 0.80333 0.0
C5418 C 0.37925 0.96087 0.81167 0.0
C5419 C 0.43294 0.98305 0.79398 0.0
C5420 C 0.44992 1.00492 0.79594 0.0
C5421 C 0.42446 0.97799 0.78427 0.0
C5422 C 0.40857 0.95362 0.78171 0.0
C5423 C 0.38445 0.9558 0.77636 0.0
C5424 C 0.3694 0.93285 0.77413 0.0
C5425 C 0.37826 0.90755 0.77719 0.0
C5426 C 0.40222 0.90516 0.78248 0.0
C5427 C 0.41736 0.92804 0.78473 0.0
H5428 H 0.36656 0.88982 0.77547 0.0
H5429 H 0.51727 0.10975 0.79725 0.0
H5430 H 0.22833 0.20094 1.00978 0.0
H5431 H 0.25454 0.2152 1.02411 0.0
H5432 H 0.21708 0.15289 1.0413 0.0
H5433 H 0.19057 0.13914 1.02717 0.0
H5434 H 0.22866 0.19394 0.05277 0.0
H5435 H 0.27533 0.1414 1.02732 0.0
H5436 H 0.29237 0.1346 1.01049 0.0
H5437 H 0.33834 0.20745 1.01271 0.0
H5438 H 0.32125 0.21481 1.02951 0.0
H5439 H 0.34405 0.11205 0.071 0.0
H5440 H 0.31965 0.13268 0.05748 0.0
H5441 H 0.31068 0.20582 0.07431 0.0
H5442 H 0.33486 0.18488 0.08804 0.0
H5443 H 0.32522 0.17596 1.04598 0.0
H5444 H 0.24561 0.22858 0.06923 0.0
H5445 H 0.22694 0.22788 0.08601 0.0
H5446 H 0.24541 0.14372 0.08829 0.0
H5447 H 0.26387 0.14391 0.07149 0.0
C5448 C 0.22524 0.19082 1.01671 0.0
C5449 C 0.20773 0.16871 1.01735 0.0
C5450 C 0.24015 0.199 1.02488 0.0
C5451 C 0.23816 0.18476 1.03372 0.0
C5452 C 0.21894 0.16423 1.03457 0.0
C5453 C 0.20381 0.15632 1.02647 0.0
C5454 C 0.25861 0.18779 1.04155 0.0
C5455 C 0.24989 0.1907 0.05128 0.0
C5456 C 0.28631 0.18338 1.03963 0.0
C5457 C 0.29679 0.17881 1.02959 0.0
C5458 C 0.28898 0.156 1.02419 0.0
C5459 C 0.29863 0.15206 1.01466 0.0
C5460 C 0.31637 0.17062 1.01052 0.0
C5461 C 0.32455 0.19313 1.01591 0.0
C5462 C 0.31488 0.19721 1.02543 0.0
C5463 C 0.33709 0.13261 0.07179 0.0
C5464 C 0.34094 0.14676 0.08059 0.0
C5465 C 0.32341 0.14449 0.06403 0.0
C5466 C 0.3132 0.17071 0.06492 0.0
C5467 C 0.31829 0.1855 0.07351 0.0
C5468 C 0.33214 0.17359 0.08131 0.0
C5469 C 0.29504 0.18091 0.05719 0.0
C5470 C 0.30424 0.18058 1.04747 0.0
C5471 C 0.26767 0.18681 0.05913 0.0
C5472 C 0.25644 0.18638 0.06919 0.0
C5473 C 0.24565 0.20995 0.07332 0.0
C5474 C 0.2351 0.20964 0.08283 0.0
C5475 C 0.2351 0.1858 0.08823 0.0
C5476 C 0.24552 0.1622 0.08412 0.0
C5477 C 0.25604 0.1624 0.07461 0.0
H5478 H 0.22695 0.1856 0.09559 0.0
H5479 H 0.32382 0.16754 1.00315 0.0
H5480 H 0.81407 0.97533 0.7709 0.0
H5481 H 0.82507 1.01254 0.78192 0.0
H5482 H 0.90935 1.00333 0.775 0.0
H5483 H 0.89845 0.96618 0.76381 0.0
H5484 H 0.8948 1.01513 0.79583 0.0
H5485 H 0.88212 0.04822 0.76308 0.0
H5486 H 0.85806 0.05038 0.7473 0.0
H5487 H 0.78762 0.08065 0.76192 0.0
H5488 H 0.81108 0.07819 0.77782 0.0
H5489 H 0.90014 0.13229 0.82332 0.0
H5490 H 0.91056 0.10903 0.80792 0.0
H5491 H 0.82556 0.09985 0.80224 0.0
H5492 H 0.81513 0.12321 0.81746 0.0
H5493 H 0.85351 0.10146 0.78535 0.0
H5494 H 0.85792 0.05543 0.81695 0.0
H5495 H 0.87576 0.04973 0.83369 0.0
H5496 H 0.95578 0.04106 0.82214 0.0
H5497 H 0.93839 0.04712 0.80533 0.0
C5498 C 0.83497 0.98096 0.77186 0.0
C5499 C 0.85538 0.96826 0.76643 0.0
C5500 C 0.84121 1.00212 0.77813 0.0
C5501 C 0.86791 1.01084 0.77904 0.0
C5502 C 0.88864 0.99684 0.77428 0.0
C5503 C 0.88239 0.97562 0.76796 0.0
C5504 C 0.87346 0.03586 0.7844 0.0
C5505 C 0.88659 0.03425 0.79344 0.0
C5506 C 0.86226 0.06053 0.78125 0.0
C5507 C 0.84838 0.06297 0.77165 0.0
C5508 C 0.86147 0.05525 0.76293 0.0
C5509 C 0.84793 0.05651 0.75397 0.0
C5510 C 0.82133 0.06565 0.7536 0.0
C5511 C 0.80824 0.07361 0.76221 0.0
C5512 C 0.82167 0.07233 0.7712 0.0
C5513 C 0.88376 0.12607 0.81859 0.0
C5514 C 0.85687 0.12888 0.82164 0.0
C5515 C 0.88972 0.11295 0.8098 0.0
C5516 C 0.86882 0.10218 0.80411 0.0
C5517 C 0.84198 0.10795 0.80656 0.0
C5518 C 0.83602 0.12126 0.81528 0.0
C5519 C 0.87415 0.0806 0.79695 0.0
C5520 C 0.86292 0.08273 0.78756 0.0
C5521 C 0.88655 0.0562 0.79987 0.0
C5522 C 0.89694 0.05204 0.80992 0.0
C5523 C 0.87933 0.05242 0.818 0.0
C5524 C 0.88935 0.04914 0.82749 0.0
C5525 C 0.9169 0.04511 0.82898 0.0
C5526 C 0.93446 0.04425 0.82098 0.0
C5527 C 0.92455 0.04762 0.81147 0.0
H5528 H 0.92463 0.04259 0.83634 0.0
H5529 H 0.81086 0.06656 0.74666 0.0
H5530 H 0.68794 0.19458 0.57639 0.0
H5531 H 0.70527 0.21841 0.562 0.0
H5532 H 0.71312 0.14259 0.5467 0.0
H5533 H 0.69517 0.11916 0.5608 0.0
H5534 H 0.75205 0.21598 0.55532 0.0
H5535 H 0.71364 0.14429 0.52369 0.0
H5536 H 0.67056 0.12431 0.51854 0.0
H5537 H 0.62731 0.1853 0.53441 0.0
H5538 H 0.67012 0.20598 0.53954 0.0
H5539 H 0.84572 0.15455 0.52784 0.0
H5540 H 0.81164 0.17663 0.53777 0.0
H5541 H 0.77558 0.21015 0.51171 0.0
H5542 H 0.80936 0.18695 0.50166 0.0
H5543 H 0.73948 0.18521 0.52103 0.0
H5544 H 0.79673 0.25293 0.53102 0.0
H5545 H 0.83847 0.276 0.53595 0.0
H5546 H 0.84092 0.23014 0.56254 0.0
H5547 H 0.79948 0.20645 0.55772 0.0
C5548 C 0.69284 0.1832 0.56984 0.0
C5549 C 0.69033 0.15504 0.5697 0.0
C5550 C 0.70261 0.19681 0.56163 0.0
C5551 C 0.71018 0.18243 0.55318 0.0
C5552 C 0.70661 0.15439 0.55295 0.0
C5553 C 0.69653 0.14089 0.56108 0.0
C5554 C 0.72574 0.19544 0.54521 0.0
C5555 C 0.74906 0.20977 0.54778 0.0
C5556 C 0.72109 0.18891 0.53526 0.0
C5557 C 0.69521 0.17682 0.53197 0.0
C5558 C 0.69499 0.1537 0.52598 0.0
C5559 C 0.67058 0.14216 0.5231 0.0
C5560 C 0.64622 0.15357 0.52612 0.0
C5561 C 0.6462 0.1765 0.53206 0.0
C5562 C 0.67054 0.18813 0.53497 0.0
C5563 C 0.8309 0.16712 0.52424 0.0
C5564 C 0.82988 0.16867 0.51399 0.0
C5565 C 0.8116 0.18015 0.52994 0.0
C5566 C 0.79103 0.1953 0.52551 0.0
C5567 C 0.79128 0.19866 0.51529 0.0
C5568 C 0.81064 0.18549 0.50956 0.0
C5569 C 0.76707 0.20272 0.53144 0.0
C5570 C 0.74201 0.19251 0.52847 0.0
C5571 C 0.76981 0.21374 0.54096 0.0
C5572 C 0.7948 0.22796 0.54401 0.0
C5573 C 0.80619 0.24767 0.53791 0.0
C5574 C 0.82983 0.26086 0.54069 0.0
C5575 C 0.84231 0.25457 0.54956 0.0
C5576 C 0.83117 0.23507 0.55568 0.0
C5577 C 0.80753 0.2218 0.55294 0.0
H5578 H 0.86062 0.2648 0.5517 0.0
H5579 H 0.62735 0.1446 0.52387 0.0
H5580 H 0.62964 0.93074 0.32471 0.0
H5581 H 0.61887 0.95554 0.30972 0.0
H5582 H 0.65167 0.02782 0.32255 0.0
H5583 H 0.66262 1.00333 0.33742 0.0
H5584 H 0.60866 0.03889 0.31056 0.0
H5585 H 0.69169 0.98613 0.30982 0.0
H5586 H 0.7174 0.94377 0.31101 0.0
H5587 H 0.67061 0.90981 0.28759 0.0
H5588 H 0.64434 0.95188 0.28637 0.0
H5589 H 0.68176 0.11365 0.27601 0.0
H5590 H 0.66283 0.08723 0.28939 0.0
H5591 H 0.636 0.02722 0.26868 0.0
H5592 H 0.65474 0.05367 0.25523 0.0
H5593 H 0.66494 1.00545 0.28302 0.0
H5594 H 0.59001 0.06429 0.28127 0.0
H5595 H 0.56598 0.1076 0.28023 0.0
H5596 H 0.59826 0.13134 0.30813 0.0
H5597 H 0.62282 0.08834 0.30929 0.0
C5598 C 0.63412 0.95202 0.32438 0.0
C5599 C 0.64731 0.96499 0.33219 0.0
C5600 C 0.6278 0.96617 0.31585 0.0
C5601 C 0.63481 0.9934 0.31501 0.0
C5602 C 0.64599 1.00684 0.32308 0.0
C5603 C 0.65225 0.99277 0.33159 0.0
C5604 C 0.63445 1.00701 0.3054 0.0
C5605 C 0.62082 0.03161 0.3045 0.0
C5606 C 0.64987 0.99711 0.29744 0.0
C5607 C 0.66585 0.97197 0.29809 0.0
C5608 C 0.68678 0.96955 0.30497 0.0
C5609 C 0.70145 0.94561 0.30565 0.0
C5610 C 0.69558 0.92408 0.2994 0.0
C5611 C 0.67508 0.92648 0.29244 0.0
C5612 C 0.66029 0.95036 0.29176 0.0
C5613 C 0.67132 0.09513 0.27428 0.0
C5614 C 0.66995 0.08561 0.26459 0.0
C5615 C 0.66042 0.08008 0.28193 0.0
C5616 C 0.6478 0.05538 0.28001 0.0
C5617 C 0.64563 0.04625 0.27031 0.0
C5618 C 0.65652 0.06128 0.26266 0.0
C5619 C 0.63974 0.03783 0.28823 0.0
C5620 C 0.65197 1.01246 0.2889 0.0
C5621 C 0.62317 0.04717 0.29597 0.0
C5622 C 0.60838 0.07309 0.29534 0.0
C5623 C 0.59215 0.07881 0.28716 0.0
C5624 C 0.5784 0.10331 0.28655 0.0
C5625 C 0.58061 0.12223 0.2941 0.0
C5626 C 0.59655 0.11666 0.30229 0.0
C5627 C 0.61036 0.09221 0.30293 0.0
H5628 H 0.56995 0.14118 0.29361 0.0
H5629 H 0.70697 0.90556 0.29994 0.0
H5630 H 0.84229 0.9566 0.06258 0.0
H5631 H 0.81915 0.9332 0.04931 0.0
H5632 H 0.84793 0.85706 0.06025 0.0
H5633 H 0.87085 0.88051 0.07373 0.0
H5634 H 0.83407 0.90013 1.03452 0.0
H5635 H 0.79371 0.81256 0.05682 0.0
H5636 H 0.7861 0.79938 0.07404 0.0
H5637 H 0.77395 0.88215 0.08201 0.0
H5638 H 0.78117 0.89572 0.06483 0.0
H5639 H 0.73606 0.85887 1.00213 0.0
H5640 H 0.77022 0.84465 1.01398 0.0
H5641 H 0.72585 0.88419 1.03711 0.0
H5642 H 0.69181 0.89815 1.02542 0.0
H5643 H 0.75627 0.84399 1.04451 0.0
H5644 H 0.76743 0.92133 1.0222 0.0
H5645 H 0.77068 0.94099 1.00566 0.0
H5646 H 0.83631 0.88779 0.99877 0.0
H5647 H 0.83322 0.86768 1.01528 0.0
C5648 C 0.84388 0.93491 0.06211 0.0
C5649 C 0.8581 0.92033 0.06921 0.0
C5650 C 0.83088 0.92156 0.05448 0.0
C5651 C 0.83174 0.89339 0.05384 0.0
C5652 C 0.84697 0.8788 0.06066 0.0
C5653 C 0.86012 0.89221 0.0683 0.0
C5654 C 0.81461 0.8798 1.04649 0.0
C5655 C 0.81748 0.88721 1.03665 0.0
C5656 C 0.79295 0.86302 0.04928 0.0
C5657 C 0.78837 0.85513 0.0596 0.0
C5658 C 0.7894 0.8279 0.06226 0.0
C5659 C 0.78514 0.82037 0.07201 0.0
C5660 C 0.77967 0.83992 0.07913 0.0
C5661 C 0.77831 0.86703 0.0765 0.0
C5662 C 0.7825 0.87466 0.06677 0.0
C5663 C 0.73313 0.86359 1.00982 0.0
C5664 C 0.71167 0.8802 1.01283 0.0
C5665 C 0.75257 0.85536 1.01658 0.0
C5666 C 0.75091 0.86401 1.02636 0.0
C5667 C 0.7276 0.87737 1.02959 0.0
C5668 C 0.7081 0.88541 1.02287 0.0
C5669 C 0.77519 0.86522 1.03263 0.0
C5670 C 0.77371 0.85555 1.04226 0.0
C5671 C 0.7978 0.88061 1.02973 0.0
C5672 C 0.79992 0.89286 1.01989 0.0
C5673 C 0.78249 0.91382 1.01714 0.0
C5674 C 0.7843 0.92502 1.00778 0.0
C5675 C 0.80364 0.91559 1.00116 0.0
C5676 C 0.82129 0.89501 1.0039 0.0
C5677 C 0.81953 0.88371 1.01325 0.0
H5678 H 0.805 0.92426 0.99391 0.0
H5679 H 0.7764 0.83405 0.08666 0.0
H5680 H 0.67491 0.53763 0.83543 0.0
H5681 H 0.67608 0.49154 0.82935 0.0
H5682 H 0.75565 0.48106 0.84146 0.0
H5683 H 0.75451 0.52731 0.84767 0.0
H5684 H 0.75457 0.46697 0.82292 0.0
H5685 H 0.7041 0.44249 0.85035 0.0
H5686 H 0.66941 0.44578 0.86323 0.0
H5687 H 0.60726 0.43853 0.84152 0.0
H5688 H 0.64151 0.43564 0.82848 0.0
H5689 H 0.73758 0.37088 0.78754 0.0
H5690 H 0.74203 0.37812 0.80522 0.0
H5691 H 0.66777 0.4234 0.80519 0.0
H5692 H 0.66274 0.41515 0.78769 0.0
H5693 H 0.67732 0.40384 0.82325 0.0
H5694 H 0.73103 0.45538 0.79789 0.0
H5695 H 0.76471 0.45522 0.78455 0.0
H5696 H 0.8198 0.41141 0.8028 0.0
H5697 H 0.78638 0.41141 0.81624 0.0
C5698 C 0.69245 0.52539 0.83697 0.0
C5699 C 0.71468 0.53618 0.84197 0.0
C5700 C 0.69303 0.49893 0.83356 0.0
C5701 C 0.71575 0.48265 0.83513 0.0
C5702 C 0.73782 0.49319 0.84026 0.0
C5703 C 0.73726 0.51971 0.84369 0.0
C5704 C 0.71755 0.45619 0.83015 0.0
C5705 C 0.7382 0.45256 0.82328 0.0
C5706 C 0.69633 0.43728 0.83063 0.0
C5707 C 0.67546 0.43882 0.83842 0.0
C5708 C 0.68303 0.44173 0.84831 0.0
C5709 C 0.66344 0.44351 0.85564 0.0
C5710 C 0.63615 0.44235 0.85319 0.0
C5711 C 0.62841 0.43937 0.84341 0.0
C5712 C 0.64792 0.43758 0.83604 0.0
C5713 C 0.72166 0.38133 0.79143 0.0
C5714 C 0.70011 0.39301 0.78629 0.0
C5715 C 0.72419 0.38544 0.80152 0.0
C5716 C 0.7057 0.40205 0.80646 0.0
C5717 C 0.68239 0.41064 0.80154 0.0
C5718 C 0.67957 0.40606 0.79151 0.0
C5719 C 0.7132 0.41609 0.81565 0.0
C5720 C 0.69441 0.41739 0.82332 0.0
C5721 C 0.73614 0.43296 0.81596 0.0
C5722 C 0.75632 0.43333 0.808 0.0
C5723 C 0.75039 0.44581 0.79903 0.0
C5724 C 0.76938 0.44571 0.79147 0.0
C5725 C 0.79436 0.43327 0.79282 0.0
C5726 C 0.80044 0.42102 0.80176 0.0
C5727 C 0.78153 0.42111 0.80936 0.0
H5728 H 0.80901 0.43314 0.78694 0.0
H5729 H 0.62101 0.44375 0.85888 0.0
H5730 H 0.80659 0.39641 1.00077 0.0
H5731 H 0.77101 0.38279 1.01212 0.0
H5732 H 0.81865 0.41141 1.03645 0.0
H5733 H 0.85468 0.42374 1.02524 0.0
H5734 H 0.78955 0.37064 1.04218 0.0
H5735 H 0.77415 0.4532 1.02356 0.0
H5736 H 0.76769 0.4788 1.00828 0.0
H5737 H 0.69987 0.42932 1.00083 0.0
H5738 H 0.70617 0.40323 1.01604 0.0
H5739 H 0.69526 0.46636 0.06737 0.0
H5740 H 0.71678 0.45212 0.05215 0.0
H5741 H 0.70127 0.36909 0.05933 0.0
H5742 H 0.68027 0.38335 0.07476 0.0
H5743 H 0.70745 0.42506 1.03601 0.0
H5744 H 0.75694 0.33254 0.05306 0.0
H5745 H 0.76719 0.31353 0.06935 0.0
H5746 H 0.77245 0.39314 0.08149 0.0
H5747 H 0.76258 0.41256 0.06526 0.0
C5748 C 0.80988 0.39886 1.00857 0.0
C5749 C 0.83318 0.41166 1.01212 0.0
C5750 C 0.78944 0.39125 1.01504 0.0
C5751 C 0.79191 0.39669 1.0251 0.0
C5752 C 0.8162 0.40715 1.02871 0.0
C5753 C 0.83668 0.41448 1.02229 0.0
C5754 C 0.76839 0.39531 1.03176 0.0
C5755 C 0.77132 0.38204 1.04075 0.0
C5756 C 0.74469 0.41038 1.02994 0.0
C5757 C 0.74083 0.42609 1.02084 0.0
C5758 C 0.75797 0.44771 1.01863 0.0
C5759 C 0.75433 0.4623 1.00999 0.0
C5760 C 0.73344 0.45563 1.00357 0.0
C5761 C 0.71609 0.43441 1.0058 0.0
C5762 C 0.71969 0.41971 1.01442 0.0
C5763 C 0.69585 0.44512 0.06559 0.0
C5764 C 0.68655 0.42591 0.07228 0.0
C5765 C 0.70809 0.43697 0.05687 0.0
C5766 C 0.71109 0.4095 0.05469 0.0
C5767 C 0.69963 0.39036 0.06096 0.0
C5768 C 0.68769 0.3985 0.06976 0.0
C5769 C 0.72916 0.40134 1.04657 0.0
C5770 C 0.72512 0.4127 1.03729 0.0
C5771 C 0.75233 0.38533 1.04825 0.0
C5772 C 0.75866 0.37393 0.058 0.0
C5773 C 0.76034 0.34594 0.05922 0.0
C5774 C 0.76609 0.33511 0.06843 0.0
C5775 C 0.77036 0.35211 0.07646 0.0
C5776 C 0.76904 0.37999 0.07528 0.0
C5777 C 0.76338 0.39092 0.06608 0.0
H5778 H 0.77475 0.34369 0.08358 0.0
H5779 H 0.73064 0.46696 0.99689 0.0
H5780 H 0.92295 0.51066 0.35075 0.0
H5781 H 0.93362 0.55253 0.34228 0.0
H5782 H 0.92749 0.51143 0.31446 0.0
H5783 H 0.91808 0.46943 0.32287 0.0
H5784 H 0.95957 0.55355 0.31264 0.0
H5785 H 0.87023 0.53458 0.32681 0.0
H5786 H 0.83998 0.52564 0.34078 0.0
H5787 H 0.86478 0.59946 0.35448 0.0
H5788 H 0.89545 0.6086 0.34062 0.0
H5789 H 0.83963 0.60602 0.28707 0.0
H5790 H 0.85938 0.59147 0.30249 0.0
H5791 H 0.92965 0.64007 0.29686 0.0
H5792 H 0.91016 0.65392 0.28113 0.0
H5793 H 0.87805 0.60875 0.31906 0.0
H5794 H 0.98422 0.60468 0.3042 0.0
H5795 H 1.00887 0.60718 0.28849 0.0
H5796 H 0.94209 0.57051 0.27361 0.0
H5797 H 0.91724 0.56755 0.28925 0.0
C5798 C 0.92521 0.51027 0.34285 0.0
C5799 C 0.91895 0.48698 0.33743 0.0
C5800 C 0.93118 0.53427 0.33802 0.0
C5801 C 0.93052 0.53526 0.32775 0.0
C5802 C 0.92787 0.51123 0.3224 0.0
C5803 C 0.92219 0.48725 0.32721 0.0
C5804 C 0.92655 0.56101 0.32252 0.0
C5805 C 0.94223 0.56618 0.31419 0.0
C5806 C 0.90381 0.57742 0.3245 0.0
C5807 C 0.88532 0.57209 0.33278 0.0
C5808 C 0.86928 0.54882 0.33283 0.0
C5809 C 0.85209 0.54371 0.34072 0.0
C5810 C 0.85052 0.56193 0.34853 0.0
C5811 C 0.86609 0.58533 0.34844 0.0
C5812 C 0.8834 0.59047 0.34058 0.0
C5813 C 0.85896 0.61417 0.28925 0.0
C5814 C 0.8736 0.6307 0.28289 0.0
C5815 C 0.87024 0.60594 0.29808 0.0
C5816 C 0.89624 0.6143 0.30076 0.0
C5817 C 0.9098 0.63297 0.29485 0.0
C5818 C 0.89869 0.64084 0.28589 0.0
C5819 C 0.91005 0.60009 0.30886 0.0
C5820 C 0.89633 0.59727 0.31778 0.0
C5821 C 0.93392 0.58508 0.30722 0.0
C5822 C 0.94884 0.58621 0.29784 0.0
C5823 C 0.97489 0.5971 0.29757 0.0
C5824 C 0.98887 0.59859 0.28869 0.0
C5825 C 0.97702 0.58909 0.28006 0.0
C5826 C 0.95122 0.57791 0.2803 0.0
C5827 C 0.9372 0.5763 0.28916 0.0
H5828 H 0.98784 0.59034 0.27318 0.0
H5829 H 0.83719 0.55796 0.35463 0.0
H5830 H 0.70208 0.66804 0.5245 0.0
H5831 H 0.73652 0.68246 0.53604 0.0
H5832 H 0.79392 0.68877 0.51239 0.0
H5833 H 0.75971 0.6733 0.50085 0.0
H5834 H 0.80975 0.65347 0.52509 0.0
H5835 H 0.78168 0.74352 0.52788 0.0
H5836 H 0.75026 0.78176 0.52926 0.0
H5837 H 0.72329 0.75303 0.55722 0.0
H5838 H 0.75422 0.71438 0.55596 0.0
H5839 H 0.89134 0.63724 0.56755 0.0
H5840 H 0.87462 0.65951 0.55277 0.0
H5841 H 0.79484 0.66245 0.56532 0.0
H5842 H 0.81163 0.64182 0.58024 0.0
H5843 H 0.80383 0.70706 0.55572 0.0
H5844 H 0.81666 0.61043 0.54892 0.0
H5845 H 0.84327 0.56878 0.5469 0.0
H5846 H 0.89514 0.60855 0.52637 0.0
H5847 H 0.86881 0.65044 0.52829 0.0
C5848 C 0.72183 0.67324 0.52172 0.0
C5849 C 0.72838 0.66896 0.51182 0.0
C5850 C 0.74146 0.68189 0.5283 0.0
C5851 C 0.76789 0.68666 0.52508 0.0
C5852 C 0.77365 0.68523 0.51502 0.0
C5853 C 0.75403 0.67644 0.50843 0.0
C5854 C 0.79001 0.6867 0.53236 0.0
C5855 C 0.80908 0.66591 0.53164 0.0
C5856 C 0.78897 0.70263 0.54095 0.0
C5857 C 0.77037 0.72599 0.54182 0.0
C5858 C 0.76897 0.74525 0.5343 0.0
C5859 C 0.75124 0.76703 0.53507 0.0
C5860 C 0.7348 0.76983 0.54332 0.0
C5861 C 0.73608 0.75087 0.55084 0.0
C5862 C 0.75378 0.72905 0.55012 0.0
C5863 C 0.87033 0.64305 0.5672 0.0
C5864 C 0.85271 0.63743 0.57502 0.0
C5865 C 0.86079 0.65564 0.55874 0.0
C5866 C 0.83343 0.66244 0.5579 0.0
C5867 C 0.81606 0.65748 0.5658 0.0
C5868 C 0.82559 0.64523 0.57427 0.0
C5869 C 0.82195 0.67274 0.54862 0.0
C5870 C 0.80515 0.6955 0.54897 0.0
C5871 C 0.82468 0.65839 0.53971 0.0
C5872 C 0.84103 0.63357 0.53883 0.0
C5873 C 0.83387 0.6103 0.54403 0.0
C5874 C 0.8488 0.58664 0.54287 0.0
C5875 C 0.87083 0.58601 0.53649 0.0
C5876 C 0.87804 0.60906 0.53129 0.0
C5877 C 0.86313 0.63275 0.53241 0.0
H5878 H 0.88237 0.56767 0.5356 0.0
H5879 H 0.72107 0.78669 0.5439 0.0
H5880 H 0.33413 0.58987 0.32149 0.0
H5881 H 0.31877 0.56019 0.30823 0.0
H5882 H 0.23867 0.56012 0.32049 0.0
H5883 H 0.25381 0.59042 0.33364 0.0
H5884 H 0.26732 0.50638 0.31625 0.0
H5885 H 0.2371 0.58838 0.30185 0.0
H5886 H 0.24119 0.63601 0.29711 0.0
H5887 H 0.30807 0.61646 0.27843 0.0
H5888 H 0.30474 0.56881 0.2832 0.0
H5889 H 0.26164 0.4643 0.26018 0.0
H5890 H 0.24234 0.48714 0.27446 0.0
H5891 H 0.31392 0.46893 0.29109 0.0
H5892 H 0.33356 0.44662 0.27682 0.0
H5893 H 0.26934 0.53176 0.28112 0.0
H5894 H 0.29822 0.4661 0.31501 0.0
H5895 H 0.29566 0.4187 0.32015 0.0
H5896 H 0.23117 0.40499 0.29981 0.0
H5897 H 0.23314 0.45236 0.2946 0.0
C5898 C 0.31321 0.58377 0.32124 0.0
C5899 C 0.29505 0.59231 0.32847 0.0
C5900 C 0.30447 0.56695 0.31372 0.0
C5901 C 0.27765 0.5582 0.31346 0.0
C5902 C 0.25939 0.56687 0.32062 0.0
C5903 C 0.268 0.58416 0.32804 0.0
C5904 C 0.26949 0.53888 0.3059 0.0
C5905 C 0.26722 0.51178 0.30855 0.0
C5906 C 0.26883 0.54638 0.29595 0.0
C5907 C 0.2707 0.57499 0.29292 0.0
C5908 C 0.25279 0.59426 0.29678 0.0
C5909 C 0.25497 0.62126 0.29408 0.0
C5910 C 0.27488 0.62925 0.28747 0.0
C5911 C 0.29264 0.61024 0.28354 0.0
C5912 C 0.29059 0.58321 0.28623 0.0
C5913 C 0.27308 0.46485 0.26694 0.0
C5914 C 0.29936 0.45432 0.26736 0.0
C5915 C 0.26189 0.47758 0.27509 0.0
C5916 C 0.27669 0.47958 0.28379 0.0
C5917 C 0.30203 0.46718 0.28446 0.0
C5918 C 0.3133 0.45458 0.2763 0.0
C5919 C 0.26862 0.49895 0.29142 0.0
C5920 C 0.26818 0.52621 0.28879 0.0
C5921 C 0.2669 0.49152 0.30138 0.0
C5922 C 0.26582 0.46287 0.30442 0.0
C5923 C 0.28335 0.45305 0.31168 0.0
C5924 C 0.28202 0.42616 0.3146 0.0
C5925 C 0.26314 0.40889 0.31036 0.0
C5926 C 0.24569 0.41843 0.30313 0.0
C5927 C 0.247 0.44527 0.30015 0.0
H5928 H 0.2622 0.38806 0.31261 0.0
H5929 H 0.27653 0.65017 0.28539 0.0
H5930 H 0.37967 0.69554 1.02006 0.0
H5931 H 0.35592 0.71558 1.03403 0.0
H5932 H 0.28074 0.68464 1.02294 0.0
H5933 H 0.30411 0.66447 1.00913 0.0
H5934 H 0.27312 0.73064 1.03414 0.0
H5935 H 0.32042 0.64367 1.03581 0.0
H5936 H 0.36127 0.61555 1.0345 0.0
H5937 H 0.40059 0.6646 0.05613 0.0
H5938 H 0.36004 0.69327 0.05744 0.0
H5939 H 0.19662 0.65266 0.06613 0.0
H5940 H 0.22304 0.67665 0.05387 0.0
H5941 H 0.28051 0.69949 0.0761 0.0
H5942 H 0.2541 0.67549 0.08841 0.0
H5943 H 0.30386 0.67314 0.06161 0.0
H5944 H 0.24592 0.74821 0.06369 0.0
H5945 H 0.20289 0.77284 0.06467 0.0
H5946 H 0.18111 0.744 1.03606 0.0
H5947 H 0.22381 0.71883 1.03496 0.0
C5948 C 0.35797 0.69372 1.02047 0.0
C5949 C 0.34385 0.67782 1.01365 0.0
C5950 C 0.34442 0.7054 1.02839 0.0
C5951 C 0.3167 0.70108 1.0296 0.0
C5952 C 0.30215 0.68821 1.02214 0.0
C5953 C 0.31562 0.67658 1.01424 0.0
C5954 C 0.30395 0.70378 1.03933 0.0
C5955 C 0.27989 0.71842 1.04023 0.0
C5956 C 0.31318 0.68816 1.04731 0.0
C5957 C 0.3374 0.67079 1.04662 0.0
C5958 C 0.33785 0.64852 1.04024 0.0
C5959 C 0.36092 0.6325 1.0395 0.0
C5960 C 0.38354 0.63834 1.0452 0.0
C5961 C 0.38308 0.66016 0.05169 0.0
C5962 C 0.36008 0.67632 0.05243 0.0
C5963 C 0.21447 0.66341 0.06845 0.0
C5964 C 0.22357 0.66186 0.07817 0.0
C5965 C 0.22948 0.67728 0.06146 0.0
C5966 C 0.25366 0.69002 0.0641 0.0
C5967 C 0.26189 0.68984 0.07392 0.0
C5968 C 0.24694 0.67592 0.08091 0.0
C5969 C 0.27232 0.69924 0.05636 0.0
C5970 C 0.29752 0.68656 0.05579 0.0
C5971 C 0.26386 0.71636 1.04868 0.0
C5972 C 0.23812 0.73156 0.04925 0.0
C5973 C 0.2319 0.74697 0.05763 0.0
C5974 C 0.20756 0.76106 0.0582 0.0
C5975 C 0.18927 0.75998 0.05043 0.0
C5976 C 0.19531 0.74484 1.04206 0.0
C5977 C 0.21962 0.7307 1.04145 0.0
H5978 H 0.17043 0.77089 0.05089 0.0
H5979 H 0.4014 0.62592 1.04461 0.0
H5980 H 0.1216 0.57901 0.75907 0.0
H5981 H 0.1031 0.55306 0.77274 0.0
H5982 H 0.16573 0.58378 0.79162 0.0
H5983 H 0.1838 0.60994 0.77812 0.0
H5984 H 0.1257 0.51361 0.78125 0.0
H5985 H 0.15083 0.58385 0.81477 0.0
H5986 H 0.14657 0.63183 0.81909 0.0
H5987 H 0.08407 0.64127 0.79764 0.0
H5988 H 0.08763 0.59325 0.79328 0.0
H5989 H 0.18771 0.45204 0.82006 0.0
H5990 H 0.16978 0.47798 0.80644 0.0
H5991 H 0.10047 0.49984 0.82386 0.0
H5992 H 0.11885 0.4742 0.83769 0.0
H5993 H 0.12206 0.54294 0.81602 0.0
H5994 H 0.09166 0.46106 0.80333 0.0
H5995 H 0.0923 0.41291 0.79899 0.0
H5996 H 0.15712 0.42667 0.7788 0.0
H5997 H 0.15719 0.47483 0.78312 0.0
C5998 C 0.13104 0.58056 0.7662 0.0
C5999 C 0.15416 0.59644 0.76754 0.0
C6000 C 0.12043 0.56581 0.774 0.0
C6001 C 0.1328 0.56664 0.78325 0.0
C6002 C 0.15529 0.58332 0.78465 0.0
C6003 C 0.16573 0.59823 0.7769 0.0
C6004 C 0.12485 0.54762 0.7911 0.0
C6005 C 0.12442 0.52005 0.78884 0.0
C6006 C 0.12204 0.55599 0.80097 0.0
C6007 C 0.11954 0.58487 0.80368 0.0
C6008 C 0.136 0.59607 0.81102 0.0
C6009 C 0.13376 0.62331 0.81346 0.0
C6010 C 0.11508 0.63959 0.80863 0.0
C6011 C 0.09857 0.62865 0.80136 0.0
C6012 C 0.10072 0.60142 0.79889 0.0
C6013 C 0.16849 0.4621 0.82095 0.0
C6014 C 0.15478 0.46134 0.82994 0.0
C6015 C 0.15808 0.47667 0.81312 0.0
C6016 C 0.13361 0.49063 0.81409 0.0
C6017 C 0.11929 0.48907 0.82295 0.0
C6018 C 0.12973 0.47436 0.83081 0.0
C6019 C 0.12509 0.50911 0.80617 0.0
C6020 C 0.12238 0.53655 0.80841 0.0
C6021 C 0.12434 0.50062 0.79627 0.0
C6022 C 0.12441 0.47164 0.79356 0.0
C6023 C 0.10616 0.45382 0.798 0.0
C6024 C 0.10639 0.42651 0.79554 0.0
C6025 C 0.12474 0.41674 0.78862 0.0
C6026 C 0.14288 0.43427 0.78414 0.0
C6027 C 0.14275 0.46161 0.78658 0.0
H6028 H 0.12489 0.39558 0.78673 0.0
H6029 H 0.11339 0.66068 0.81053 0.0
H6030 H 0.18635 0.45831 0.5372 0.0
H6031 H 0.20863 0.43829 0.55133 0.0
H6032 H 0.18738 0.35903 0.54091 0.0
H6033 H 0.16575 0.37914 0.52655 0.0
H6034 H 0.20276 0.40607 0.56637 0.0
H6035 H 0.2427 0.31933 0.54316 0.0
H6036 H 0.24691 0.30567 0.5258 0.0
H6037 H 0.25255 0.38852 0.51726 0.0
H6038 H 0.24875 0.40258 0.53458 0.0
H6039 H 0.31578 0.37565 0.5946 0.0
H6040 H 0.27697 0.3601 0.58511 0.0
H6041 H 0.31114 0.39525 0.55904 0.0
H6042 H 0.35034 0.4096 0.56835 0.0
H6043 H 0.28135 0.35423 0.55403 0.0
H6044 H 0.27197 0.43288 0.5758 0.0
H6045 H 0.27187 0.45462 0.5921 0.0
H6046 H 0.21083 0.39985 0.60189 0.0
H6047 H 0.21083 0.37761 0.58567 0.0
C6048 C 0.18566 0.43669 0.5381 0.0
C6049 C 0.17489 0.4202 0.53074 0.0
C6050 C 0.19833 0.42522 0.54619 0.0
C6051 C 0.20021 0.39712 0.54705 0.0
C6052 C 0.18662 0.38073 0.54028 0.0
C6053 C 0.17431 0.3922 0.5321 0.0
C6054 C 0.22017 0.38566 0.55394 0.0
C6055 C 0.21961 0.39412 0.56375 0.0
C6056 C 0.24228 0.37019 0.55051 0.0
C6057 C 0.24506 0.36196 0.54012 0.0
C6058 C 0.24489 0.33458 0.53757 0.0
C6059 C 0.24723 0.32678 0.52774 0.0
C6060 C 0.24989 0.34622 0.52043 0.0
C6061 C 0.25041 0.37349 0.52293 0.0
C6062 C 0.24819 0.38138 0.53274 0.0
C6063 C 0.31553 0.37901 0.58676 0.0
C6064 C 0.33572 0.39441 0.58223 0.0
C6065 C 0.29325 0.37027 0.58137 0.0
C6066 C 0.29081 0.37717 0.57144 0.0
C6067 C 0.31245 0.38984 0.56671 0.0
C6068 C 0.33475 0.39831 0.57206 0.0
C6069 C 0.26458 0.37588 0.5663 0.0
C6070 C 0.26385 0.36489 0.55683 0.0
C6071 C 0.24179 0.39 0.5699 0.0
C6072 C 0.24164 0.40342 0.5796 0.0
C6073 C 0.25863 0.42543 0.58146 0.0
C6074 C 0.25859 0.43783 0.59067 0.0
C6075 C 0.24141 0.42857 0.59803 0.0
C6076 C 0.22417 0.40694 0.59619 0.0
C6077 C 0.2242 0.39443 0.58699 0.0
H6078 H 0.2414 0.43819 0.60516 0.0
H6079 H 0.25162 0.34014 0.51283 0.0
loop_
_geom_bond_atom_site_label_1
_geom_bond_atom_site_label_2
_geom_bond_distance
_geom_bond_site_symmetry_2
_ccdc_geom_bond_type
Ho0 C3 2.811 . S
Ho0 O20 2.322 . S
Ho0 O22 2.378 . S
Ho0 O23 2.524 . S
Ho0 O24 2.381 . S
Ho0 O25 2.669 . S
Ho0 O27 2.346 . S
Ho0 O31 2.305 . S
Ho1 C12 2.811 . S
Ho1 O21 2.346 . S
Ho1 O25 2.305 . S
Ho1 O26 2.322 . S
Ho1 O28 2.378 . S
Ho1 O29 2.524 . S
Ho1 O30 2.381 . S
Ho1 O31 2.669 . S
C2 O20 1.259 . S
C2 O21 1.268 . S
C3 Ho0 2.811 . S
C3 C4 1.488 . S
C3 O22 1.215 . S
C3 O23 1.289 . S
C4 C3 1.488 . S
C4 C5 1.348 . S
C4 C9 1.413 . S
C5 C4 1.348 . S
C5 C6 1.442 . S
C5 H32 0.930 . S
C6 C5 1.442 . S
C6 C7 1.381 . S
C6 H33 0.931 . S
C7 C6 1.381 . S
C7 C8 1.321 . S
C8 C7 1.321 . S
C8 C9 1.403 . S
C8 H34 0.934 . S
C9 C4 1.413 . S
C9 C8 1.403 . S
C9 H35 0.930 . S
C10 O24 1.275 . S
C10 O25 1.256 . S
C11 O26 1.259 . S
C11 O27 1.268 . S
C12 Ho1 2.811 . S
C12 C13 1.488 . S
C12 O28 1.215 . S
C12 O29 1.289 . S
C13 C12 1.488 . S
C13 C14 1.348 . S
C13 C18 1.413 . S
C14 C13 1.348 . S
C14 C15 1.442 . S
C14 H36 0.930 . S
C15 C14 1.442 . S
C15 C16 1.381 . S
C15 H37 0.931 . S
C16 C15 1.381 . S
C16 C17 1.321 . S
C17 C16 1.321 . S
C17 C18 1.403 . S
C17 H38 0.934 . S
C18 C13 1.413 . S
C18 C17 1.403 . S
C18 H39 0.930 . S
C19 O30 1.275 . S
C19 O31 1.256 . S
O20 Ho0 2.322 . S
O20 C2 1.259 . S
O21 Ho1 2.346 . S
O21 C2 1.268 . S
O22 Ho0 2.378 . S
O22 C3 1.215 . S
O23 Ho0 2.524 . S
O23 C3 1.289 . S
O24 Ho0 2.381 . S
O24 C10 1.275 . S
O25 Ho0 2.669 . S
O25 Ho1 2.305 . S
O25 C10 1.256 . S
O26 Ho1 2.322 . S
O26 C11 1.259 . S
O27 Ho0 2.346 . S
O27 C11 1.268 . S
O28 Ho1 2.378 . S
O28 C12 1.215 . S
O29 Ho1 2.524 . S
O29 C12 1.289 . S
O30 Ho1 2.381 . S
O30 C19 1.275 . S
O31 Ho0 2.305 . S
O31 Ho1 2.669 . S
O31 C19 1.256 . S
H32 C5 0.930 . S
H33 C6 0.931 . S
H34 C8 0.934 . S
H35 C9 0.930 . S
H36 C14 0.930 . S
H37 C15 0.931 . S
H38 C17 0.934 . S
H39 C18 0.930 . S
Ho40 C43 2.811 1_455 S
Ho40 O60 2.322 . S
Ho40 O62 2.378 1_455 S
Ho40 O63 2.524 1_455 S
Ho40 O64 2.381 . S
Ho40 O65 2.669 . S
Ho40 O67 2.346 . S
Ho40 O71 2.305 . S
Ho41 C52 2.811 . S
Ho41 O61 2.346 . S
Ho41 O65 2.305 . S
Ho41 O66 2.322 . S
Ho41 O68 2.378 . S
Ho41 O69 2.524 . S
Ho41 O70 2.381 . S
Ho41 O71 2.669 . S
C42 O60 1.259 . S
C42 O61 1.268 . S
C43 Ho40 2.811 1_655 S
C43 C44 1.488 . S
C43 O62 1.215 . S
C43 O63 1.289 . S
C44 C43 1.488 . S
C44 C45 1.348 . S
C44 C49 1.413 . S
C45 C44 1.348 . S
C45 C46 1.442 . S
C45 H72 0.930 . S
C46 C45 1.442 . S
C46 C47 1.381 . S
C46 H73 0.931 . S
C47 C46 1.381 . S
C47 C48 1.321 . S
C48 C47 1.321 . S
C48 C49 1.403 . S
C48 H74 0.934 . S
C49 C44 1.413 . S
C49 C48 1.403 . S
C49 H75 0.930 . S
C50 O64 1.275 . S
C50 O65 1.256 . S
C51 O66 1.259 . S
C51 O67 1.268 . S
C52 Ho41 2.811 . S
C52 C53 1.488 . S
C52 O68 1.215 . S
C52 O69 1.289 . S
C53 C52 1.488 . S
C53 C54 1.348 . S
C53 C58 1.413 . S
C54 C53 1.348 . S
C54 C55 1.442 . S
C54 H76 0.930 . S
C55 C54 1.442 . S
C55 C56 1.381 . S
C55 H77 0.931 . S
C56 C55 1.381 . S
C56 C57 1.321 . S
C57 C56 1.321 . S
C57 C58 1.403 . S
C57 H78 0.934 . S
C58 C53 1.413 . S
C58 C57 1.403 . S
C58 H79 0.930 . S
C59 O70 1.275 . S
C59 O71 1.256 . S
O60 Ho40 2.322 . S
O60 C42 1.259 . S
O61 Ho41 2.346 . S
O61 C42 1.268 . S
O62 Ho40 2.378 1_655 S
O62 C43 1.215 . S
O63 Ho40 2.524 1_655 S
O63 C43 1.289 . S
O64 Ho40 2.381 . S
O64 C50 1.275 . S
O65 Ho40 2.669 . S
O65 Ho41 2.305 . S
O65 C50 1.256 . S
O66 Ho41 2.322 . S
O66 C51 1.259 . S
O67 Ho40 2.346 . S
O67 C51 1.268 . S
O68 Ho41 2.378 . S
O68 C52 1.215 . S
O69 Ho41 2.524 . S
O69 C52 1.289 . S
O70 Ho41 2.381 . S
O70 C59 1.275 . S
O71 Ho40 2.305 . S
O71 Ho41 2.669 . S
O71 C59 1.256 . S
H72 C45 0.930 . S
H73 C46 0.931 . S
H74 C48 0.934 . S
H75 C49 0.930 . S
H76 C54 0.930 . S
H77 C55 0.931 . S
H78 C57 0.934 . S
H79 C58 0.930 . S
Ho80 C83 2.811 . S
Ho80 O100 2.322 . S
Ho80 O102 2.378 . S
Ho80 O103 2.524 . S
Ho80 O104 2.381 . S
Ho80 O105 2.669 . S
Ho80 O107 2.346 . S
Ho80 O111 2.305 . S
Ho81 C92 2.811 . S
Ho81 O101 2.346 . S
Ho81 O105 2.305 . S
Ho81 O106 2.322 . S
Ho81 O108 2.378 . S
Ho81 O109 2.524 . S
Ho81 O110 2.381 . S
Ho81 O111 2.669 . S
C82 O100 1.259 . S
C82 O101 1.268 . S
C83 Ho80 2.811 . S
C83 C84 1.488 . S
C83 O102 1.215 . S
C83 O103 1.289 . S
C84 C83 1.488 . S
C84 C85 1.348 . S
C84 C89 1.413 . S
C85 C84 1.348 . S
C85 C86 1.442 . S
C85 H112 0.930 . S
C86 C85 1.442 . S
C86 C87 1.381 . S
C86 H113 0.931 . S
C87 C86 1.381 . S
C87 C88 1.321 . S
C88 C87 1.321 . S
C88 C89 1.403 . S
C88 H114 0.934 . S
C89 C84 1.413 . S
C89 C88 1.403 . S
C89 H115 0.930 . S
C90 O104 1.275 . S
C90 O105 1.256 . S
C91 O106 1.259 . S
C91 O107 1.268 . S
C92 Ho81 2.811 . S
C92 C93 1.488 . S
C92 O108 1.215 . S
C92 O109 1.289 . S
C93 C92 1.488 . S
C93 C94 1.348 . S
C93 C98 1.413 . S
C94 C93 1.348 . S
C94 C95 1.442 . S
C94 H116 0.930 . S
C95 C94 1.442 . S
C95 C96 1.381 . S
C95 H117 0.931 . S
C96 C95 1.381 . S
C96 C97 1.321 . S
C97 C96 1.321 . S
C97 C98 1.403 . S
C97 H118 0.934 . S
C98 C93 1.413 . S
C98 C97 1.403 . S
C98 H119 0.930 . S
C99 O110 1.275 . S
C99 O111 1.256 . S
O100 Ho80 2.322 . S
O100 C82 1.259 . S
O101 Ho81 2.346 . S
O101 C82 1.268 . S
O102 Ho80 2.378 . S
O102 C83 1.215 . S
O103 Ho80 2.524 . S
O103 C83 1.289 . S
O104 Ho80 2.381 . S
O104 C90 1.275 . S
O105 Ho80 2.669 . S
O105 Ho81 2.305 . S
O105 C90 1.256 . S
O106 Ho81 2.322 . S
O106 C91 1.259 . S
O107 Ho80 2.346 . S
O107 C91 1.268 . S
O108 Ho81 2.378 . S
O108 C92 1.215 . S
O109 Ho81 2.524 . S
O109 C92 1.289 . S
O110 Ho81 2.381 . S
O110 C99 1.275 . S
O111 Ho80 2.305 . S
O111 Ho81 2.669 . S
O111 C99 1.256 . S
H112 C85 0.930 . S
H113 C86 0.931 . S
H114 C88 0.934 . S
H115 C89 0.930 . S
H116 C94 0.930 . S
H117 C95 0.931 . S
H118 C97 0.934 . S
H119 C98 0.930 . S
Ho120 C123 2.811 . S
Ho120 O140 2.322 . S
Ho120 O142 2.378 . S
Ho120 O143 2.524 . S
Ho120 O144 2.381 . S
Ho120 O145 2.669 . S
Ho120 O147 2.346 . S
Ho120 O151 2.305 . S
Ho121 C132 2.811 . S
Ho121 O141 2.346 . S
Ho121 O145 2.305 . S
Ho121 O146 2.322 . S
Ho121 O148 2.378 . S
Ho121 O149 2.524 . S
Ho121 O150 2.381 . S
Ho121 O151 2.669 . S
C122 O140 1.259 . S
C122 O141 1.268 . S
C123 Ho120 2.811 . S
C123 C124 1.488 . S
C123 O142 1.215 . S
C123 O143 1.289 . S
C124 C123 1.488 . S
C124 C125 1.348 . S
C124 C129 1.413 . S
C125 C124 1.348 . S
C125 C126 1.442 . S
C125 H152 0.930 . S
C126 C125 1.442 . S
C126 C127 1.381 . S
C126 H153 0.931 . S
C127 C126 1.381 . S
C127 C128 1.321 . S
C128 C127 1.321 . S
C128 C129 1.403 . S
C128 H154 0.934 . S
C129 C124 1.413 . S
C129 C128 1.403 . S
C129 H155 0.930 . S
C130 O144 1.275 . S
C130 O145 1.256 . S
C131 O146 1.259 . S
C131 O147 1.268 . S
C132 Ho121 2.811 . S
C132 C133 1.488 . S
C132 O148 1.215 . S
C132 O149 1.289 . S
C133 C132 1.488 . S
C133 C134 1.348 . S
C133 C138 1.413 . S
C134 C133 1.348 . S
C134 C135 1.442 . S
C134 H156 0.930 . S
C135 C134 1.442 . S
C135 C136 1.381 . S
C135 H157 0.931 . S
C136 C135 1.381 . S
C136 C137 1.321 . S
C137 C136 1.321 . S
C137 C138 1.403 . S
C137 H158 0.934 . S
C138 C133 1.413 . S
C138 C137 1.403 . S
C138 H159 0.930 . S
C139 O150 1.275 . S
C139 O151 1.256 . S
O140 Ho120 2.322 . S
O140 C122 1.259 . S
O141 Ho121 2.346 . S
O141 C122 1.268 . S
O142 Ho120 2.378 . S
O142 C123 1.215 . S
O143 Ho120 2.524 . S
O143 C123 1.289 . S
O144 Ho120 2.381 . S
O144 C130 1.275 . S
O145 Ho120 2.669 . S
O145 Ho121 2.305 . S
O145 C130 1.256 . S
O146 Ho121 2.322 . S
O146 C131 1.259 . S
O147 Ho120 2.346 . S
O147 C131 1.268 . S
O148 Ho121 2.378 . S
O148 C132 1.215 . S
O149 Ho121 2.524 . S
O149 C132 1.289 . S
O150 Ho121 2.381 . S
O150 C139 1.275 . S
O151 Ho120 2.305 . S
O151 Ho121 2.669 . S
O151 C139 1.256 . S
H152 C125 0.930 . S
H153 C126 0.931 . S
H154 C128 0.934 . S
H155 C129 0.930 . S
H156 C134 0.930 . S
H157 C135 0.931 . S
H158 C137 0.934 . S
H159 C138 0.930 . S
Ho160 C163 2.811 . S
Ho160 O180 2.322 . S
Ho160 O182 2.378 . S
Ho160 O183 2.524 . S
Ho160 O184 2.381 . S
Ho160 O185 2.669 . S
Ho160 O187 2.346 . S
Ho160 O191 2.305 . S
Ho161 C172 2.811 . S
Ho161 O181 2.346 . S
Ho161 O185 2.305 . S
Ho161 O186 2.322 . S
Ho161 O188 2.378 . S
Ho161 O189 2.524 . S
Ho161 O190 2.381 . S
Ho161 O191 2.669 . S
C162 O180 1.259 . S
C162 O181 1.268 . S
C163 Ho160 2.811 . S
C163 C164 1.488 . S
C163 O182 1.215 . S
C163 O183 1.289 . S
C164 C163 1.488 . S
C164 C165 1.348 . S
C164 C169 1.413 . S
C165 C164 1.348 . S
C165 C166 1.442 . S
C165 H192 0.930 . S
C166 C165 1.442 . S
C166 C167 1.381 . S
C166 H193 0.931 . S
C167 C166 1.381 . S
C167 C168 1.321 . S
C168 C167 1.321 . S
C168 C169 1.403 . S
C168 H194 0.934 . S
C169 C164 1.413 . S
C169 C168 1.403 . S
C169 H195 0.930 . S
C170 O184 1.275 . S
C170 O185 1.256 . S
C171 O186 1.259 . S
C171 O187 1.268 . S
C172 Ho161 2.811 . S
C172 C173 1.488 . S
C172 O188 1.215 . S
C172 O189 1.289 . S
C173 C172 1.488 . S
C173 C174 1.348 . S
C173 C178 1.413 . S
C174 C173 1.348 . S
C174 C175 1.442 . S
C174 H196 0.930 . S
C175 C174 1.442 . S
C175 C176 1.381 . S
C175 H197 0.931 . S
C176 C175 1.381 . S
C176 C177 1.321 . S
C177 C176 1.321 . S
C177 C178 1.403 . S
C177 H198 0.934 . S
C178 C173 1.413 . S
C178 C177 1.403 . S
C178 H199 0.930 . S
C179 O190 1.275 . S
C179 O191 1.256 . S
O180 Ho160 2.322 . S
O180 C162 1.259 . S
O181 Ho161 2.346 . S
O181 C162 1.268 . S
O182 Ho160 2.378 . S
O182 C163 1.215 . S
O183 Ho160 2.524 . S
O183 C163 1.289 . S
O184 Ho160 2.381 . S
O184 C170 1.275 . S
O185 Ho160 2.669 . S
O185 Ho161 2.305 . S
O185 C170 1.256 . S
O186 Ho161 2.322 . S
O186 C171 1.259 . S
O187 Ho160 2.346 . S
O187 C171 1.268 . S
O188 Ho161 2.378 . S
O188 C172 1.215 . S
O189 Ho161 2.524 . S
O189 C172 1.289 . S
O190 Ho161 2.381 . S
O190 C179 1.275 . S
O191 Ho160 2.305 . S
O191 Ho161 2.669 . S
O191 C179 1.256 . S
H192 C165 0.930 . S
H193 C166 0.931 . S
H194 C168 0.934 . S
H195 C169 0.930 . S
H196 C174 0.930 . S
H197 C175 0.931 . S
H198 C177 0.934 . S
H199 C178 0.930 . S
Ho200 C203 2.811 . S
Ho200 O220 2.322 . S
Ho200 O222 2.378 . S
Ho200 O223 2.524 . S
Ho200 O224 2.381 . S
Ho200 O225 2.669 . S
Ho200 O227 2.346 . S
Ho200 O231 2.305 . S
Ho201 C212 2.811 . S
Ho201 O221 2.346 . S
Ho201 O225 2.305 . S
Ho201 O226 2.322 . S
Ho201 O228 2.378 . S
Ho201 O229 2.524 . S
Ho201 O230 2.381 . S
Ho201 O231 2.669 . S
C202 O220 1.259 . S
C202 O221 1.268 . S
C203 Ho200 2.811 . S
C203 C204 1.488 . S
C203 O222 1.215 . S
C203 O223 1.289 . S
C204 C203 1.488 . S
C204 C205 1.348 . S
C204 C209 1.413 . S
C205 C204 1.348 . S
C205 C206 1.442 . S
C205 H232 0.930 . S
C206 C205 1.442 . S
C206 C207 1.381 . S
C206 H233 0.931 . S
C207 C206 1.381 . S
C207 C208 1.321 . S
C208 C207 1.321 . S
C208 C209 1.403 . S
C208 H234 0.934 . S
C209 C204 1.413 . S
C209 C208 1.403 . S
C209 H235 0.930 . S
C210 O224 1.275 . S
C210 O225 1.256 . S
C211 O226 1.259 . S
C211 O227 1.268 . S
C212 Ho201 2.811 . S
C212 C213 1.488 . S
C212 O228 1.215 . S
C212 O229 1.289 . S
C213 C212 1.488 . S
C213 C214 1.348 . S
C213 C218 1.413 . S
C214 C213 1.348 . S
C214 C215 1.442 . S
C214 H236 0.930 . S
C215 C214 1.442 . S
C215 C216 1.381 . S
C215 H237 0.931 . S
C216 C215 1.381 . S
C216 C217 1.321 . S
C217 C216 1.321 . S
C217 C218 1.403 . S
C217 H238 0.934 . S
C218 C213 1.413 . S
C218 C217 1.403 . S
C218 H239 0.930 . S
C219 O230 1.275 . S
C219 O231 1.256 . S
O220 Ho200 2.322 . S
O220 C202 1.259 . S
O221 Ho201 2.346 . S
O221 C202 1.268 . S
O222 Ho200 2.378 . S
O222 C203 1.215 . S
O223 Ho200 2.524 . S
O223 C203 1.289 . S
O224 Ho200 2.381 . S
O224 C210 1.275 . S
O225 Ho200 2.669 . S
O225 Ho201 2.305 . S
O225 C210 1.256 . S
O226 Ho201 2.322 . S
O226 C211 1.259 . S
O227 Ho200 2.346 . S
O227 C211 1.268 . S
O228 Ho201 2.378 . S
O228 C212 1.215 . S
O229 Ho201 2.524 . S
O229 C212 1.289 . S
O230 Ho201 2.381 . S
O230 C219 1.275 . S
O231 Ho200 2.305 . S
O231 Ho201 2.669 . S
O231 C219 1.256 . S
H232 C205 0.930 . S
H233 C206 0.931 . S
H234 C208 0.934 . S
H235 C209 0.930 . S
H236 C214 0.930 . S
H237 C215 0.931 . S
H238 C217 0.934 . S
H239 C218 0.930 . S
Ho240 C243 2.811 . S
Ho240 O260 2.322 . S
Ho240 O262 2.378 . S
Ho240 O263 2.524 . S
Ho240 O264 2.381 . S
Ho240 O265 2.669 . S
Ho240 O267 2.346 . S
Ho240 O271 2.305 . S
Ho241 C252 2.811 . S
Ho241 O261 2.346 . S
Ho241 O265 2.305 . S
Ho241 O266 2.322 . S
Ho241 O268 2.378 . S
Ho241 O269 2.524 . S
Ho241 O270 2.381 . S
Ho241 O271 2.669 . S
C242 O260 1.259 . S
C242 O261 1.268 . S
C243 Ho240 2.811 . S
C243 C244 1.488 . S
C243 O262 1.215 . S
C243 O263 1.289 . S
C244 C243 1.488 . S
C244 C245 1.348 . S
C244 C249 1.413 . S
C245 C244 1.348 . S
C245 C246 1.442 . S
C245 H272 0.930 . S
C246 C245 1.442 . S
C246 C247 1.381 . S
C246 H273 0.931 . S
C247 C246 1.381 . S
C247 C248 1.321 . S
C248 C247 1.321 . S
C248 C249 1.403 . S
C248 H274 0.934 . S
C249 C244 1.413 . S
C249 C248 1.403 . S
C249 H275 0.930 . S
C250 O264 1.275 . S
C250 O265 1.256 . S
C251 O266 1.259 . S
C251 O267 1.268 . S
C252 Ho241 2.811 . S
C252 C253 1.488 . S
C252 O268 1.215 . S
C252 O269 1.289 . S
C253 C252 1.488 . S
C253 C254 1.348 . S
C253 C258 1.413 . S
C254 C253 1.348 . S
C254 C255 1.442 . S
C254 H276 0.930 . S
C255 C254 1.442 . S
C255 C256 1.381 . S
C255 H277 0.931 . S
C256 C255 1.381 . S
C256 C257 1.321 . S
C257 C256 1.321 . S
C257 C258 1.403 . S
C257 H278 0.934 . S
C258 C253 1.413 . S
C258 C257 1.403 . S
C258 H279 0.930 . S
C259 O270 1.275 . S
C259 O271 1.256 . S
O260 Ho240 2.322 . S
O260 C242 1.259 . S
O261 Ho241 2.346 . S
O261 C242 1.268 . S
O262 Ho240 2.378 . S
O262 C243 1.215 . S
O263 Ho240 2.524 . S
O263 C243 1.289 . S
O264 Ho240 2.381 . S
O264 C250 1.275 . S
O265 Ho240 2.669 . S
O265 Ho241 2.305 . S
O265 C250 1.256 . S
O266 Ho241 2.322 . S
O266 C251 1.259 . S
O267 Ho240 2.346 . S
O267 C251 1.268 . S
O268 Ho241 2.378 . S
O268 C252 1.215 . S
O269 Ho241 2.524 . S
O269 C252 1.289 . S
O270 Ho241 2.381 . S
O270 C259 1.275 . S
O271 Ho240 2.305 . S
O271 Ho241 2.669 . S
O271 C259 1.256 . S
H272 C245 0.930 . S
H273 C246 0.931 . S
H274 C248 0.934 . S
H275 C249 0.930 . S
H276 C254 0.930 . S
H277 C255 0.931 . S
H278 C257 0.934 . S
H279 C258 0.930 . S
Ho280 C283 2.811 1_455 S
Ho280 O300 2.322 . S
Ho280 O302 2.378 1_455 S
Ho280 O303 2.524 1_455 S
Ho280 O304 2.381 . S
Ho280 O305 2.669 . S
Ho280 O307 2.346 . S
Ho280 O311 2.305 . S
Ho281 C292 2.811 . S
Ho281 O301 2.346 . S
Ho281 O305 2.305 . S
Ho281 O306 2.322 . S
Ho281 O308 2.378 . S
Ho281 O309 2.524 . S
Ho281 O310 2.381 . S
Ho281 O311 2.669 . S
C282 O300 1.259 . S
C282 O301 1.268 . S
C283 Ho280 2.811 1_655 S
C283 C284 1.488 . S
C283 O302 1.215 . S
C283 O303 1.289 . S
C284 C283 1.488 . S
C284 C285 1.348 . S
C284 C289 1.413 . S
C285 C284 1.348 . S
C285 C286 1.442 . S
C285 H312 0.930 . S
C286 C285 1.442 . S
C286 C287 1.381 . S
C286 H313 0.931 . S
C287 C286 1.381 . S
C287 C288 1.321 . S
C288 C287 1.321 . S
C288 C289 1.403 . S
C288 H314 0.934 . S
C289 C284 1.413 . S
C289 C288 1.403 . S
C289 H315 0.930 . S
C290 O304 1.275 . S
C290 O305 1.256 . S
C291 O306 1.259 . S
C291 O307 1.268 . S
C292 Ho281 2.811 . S
C292 C293 1.488 . S
C292 O308 1.215 . S
C292 O309 1.289 . S
C293 C292 1.488 . S
C293 C294 1.348 . S
C293 C298 1.413 . S
C294 C293 1.348 . S
C294 C295 1.442 . S
C294 H316 0.930 . S
C295 C294 1.442 . S
C295 C296 1.381 . S
C295 H317 0.931 . S
C296 C295 1.381 . S
C296 C297 1.321 . S
C297 C296 1.321 . S
C297 C298 1.403 . S
C297 H318 0.934 . S
C298 C293 1.413 . S
C298 C297 1.403 . S
C298 H319 0.930 . S
C299 O310 1.275 . S
C299 O311 1.256 . S
O300 Ho280 2.322 . S
O300 C282 1.259 . S
O301 Ho281 2.346 . S
O301 C282 1.268 . S
O302 Ho280 2.378 1_655 S
O302 C283 1.215 . S
O303 Ho280 2.524 1_655 S
O303 C283 1.289 . S
O304 Ho280 2.381 . S
O304 C290 1.275 . S
O305 Ho280 2.669 . S
O305 Ho281 2.305 . S
O305 C290 1.256 . S
O306 Ho281 2.322 . S
O306 C291 1.259 . S
O307 Ho280 2.346 . S
O307 C291 1.268 . S
O308 Ho281 2.378 . S
O308 C292 1.215 . S
O309 Ho281 2.524 . S
O309 C292 1.289 . S
O310 Ho281 2.381 . S
O310 C299 1.275 . S
O311 Ho280 2.305 . S
O311 Ho281 2.669 . S
O311 C299 1.256 . S
H312 C285 0.930 . S
H313 C286 0.931 . S
H314 C288 0.934 . S
H315 C289 0.930 . S
H316 C294 0.930 . S
H317 C295 0.931 . S
H318 C297 0.934 . S
H319 C298 0.930 . S
Ho320 C323 2.811 . S
Ho320 O340 2.322 . S
Ho320 O342 2.378 . S
Ho320 O343 2.524 . S
Ho320 O344 2.381 . S
Ho320 O345 2.669 . S
Ho320 O347 2.346 . S
Ho320 O351 2.305 . S
Ho321 C332 2.811 . S
Ho321 O341 2.346 . S
Ho321 O345 2.305 . S
Ho321 O346 2.322 . S
Ho321 O348 2.378 . S
Ho321 O349 2.524 . S
Ho321 O350 2.381 . S
Ho321 O351 2.669 . S
C322 O340 1.259 . S
C322 O341 1.268 . S
C323 Ho320 2.811 . S
C323 C324 1.488 . S
C323 O342 1.215 . S
C323 O343 1.289 . S
C324 C323 1.488 . S
C324 C325 1.348 . S
C324 C329 1.413 . S
C325 C324 1.348 . S
C325 C326 1.442 . S
C325 H352 0.930 . S
C326 C325 1.442 . S
C326 C327 1.381 . S
C326 H353 0.931 . S
C327 C326 1.381 . S
C327 C328 1.321 . S
C328 C327 1.321 . S
C328 C329 1.403 . S
C328 H354 0.934 . S
C329 C324 1.413 . S
C329 C328 1.403 . S
C329 H355 0.930 . S
C330 O344 1.275 . S
C330 O345 1.256 . S
C331 O346 1.259 . S
C331 O347 1.268 . S
C332 Ho321 2.811 . S
C332 C333 1.488 . S
C332 O348 1.215 . S
C332 O349 1.289 . S
C333 C332 1.488 . S
C333 C334 1.348 . S
C333 C338 1.413 . S
C334 C333 1.348 . S
C334 C335 1.442 . S
C334 H356 0.930 . S
C335 C334 1.442 . S
C335 C336 1.381 . S
C335 H357 0.931 . S
C336 C335 1.381 . S
C336 C337 1.321 . S
C337 C336 1.321 . S
C337 C338 1.403 . S
C337 H358 0.934 . S
C338 C333 1.413 . S
C338 C337 1.403 . S
C338 H359 0.930 . S
C339 O350 1.275 . S
C339 O351 1.256 . S
O340 Ho320 2.322 . S
O340 C322 1.259 . S
O341 Ho321 2.346 . S
O341 C322 1.268 . S
O342 Ho320 2.378 . S
O342 C323 1.215 . S
O343 Ho320 2.524 . S
O343 C323 1.289 . S
O344 Ho320 2.381 . S
O344 C330 1.275 . S
O345 Ho320 2.669 . S
O345 Ho321 2.305 . S
O345 C330 1.256 . S
O346 Ho321 2.322 . S
O346 C331 1.259 . S
O347 Ho320 2.346 . S
O347 C331 1.268 . S
O348 Ho321 2.378 . S
O348 C332 1.215 . S
O349 Ho321 2.524 . S
O349 C332 1.289 . S
O350 Ho321 2.381 . S
O350 C339 1.275 . S
O351 Ho320 2.305 . S
O351 Ho321 2.669 . S
O351 C339 1.256 . S
H352 C325 0.930 . S
H353 C326 0.931 . S
H354 C328 0.934 . S
H355 C329 0.930 . S
H356 C334 0.930 . S
H357 C335 0.931 . S
H358 C337 0.934 . S
H359 C338 0.930 . S
Ho360 C363 2.811 . S
Ho360 O380 2.322 . S
Ho360 O382 2.378 . S
Ho360 O383 2.524 . S
Ho360 O384 2.381 . S
Ho360 O385 2.669 . S
Ho360 O387 2.346 . S
Ho360 O391 2.305 . S
Ho361 C372 2.811 1_655 S
Ho361 O381 2.346 . S
Ho361 O385 2.305 . S
Ho361 O386 2.322 . S
Ho361 O388 2.378 1_655 S
Ho361 O389 2.524 1_655 S
Ho361 O390 2.381 . S
Ho361 O391 2.669 . S
C362 O380 1.259 . S
C362 O381 1.268 . S
C363 Ho360 2.811 . S
C363 C364 1.488 . S
C363 O382 1.215 . S
C363 O383 1.289 . S
C364 C363 1.488 . S
C364 C365 1.348 . S
C364 C369 1.413 . S
C365 C364 1.348 . S
C365 C366 1.442 . S
C365 H392 0.930 . S
C366 C365 1.442 . S
C366 C367 1.381 . S
C366 H393 0.931 . S
C367 C366 1.381 . S
C367 C368 1.321 . S
C368 C367 1.321 . S
C368 C369 1.403 . S
C368 H394 0.934 . S
C369 C364 1.413 . S
C369 C368 1.403 . S
C369 H395 0.930 . S
C370 O384 1.275 . S
C370 O385 1.256 . S
C371 O386 1.259 . S
C371 O387 1.268 . S
C372 Ho361 2.811 1_455 S
C372 C373 1.488 . S
C372 O388 1.215 . S
C372 O389 1.289 . S
C373 C372 1.488 . S
C373 C374 1.348 . S
C373 C378 1.413 . S
C374 C373 1.348 . S
C374 C375 1.442 . S
C374 H396 0.930 . S
C375 C374 1.442 . S
C375 C376 1.381 . S
C375 H397 0.931 . S
C376 C375 1.381 . S
C376 C377 1.321 . S
C377 C376 1.321 . S
C377 C378 1.403 . S
C377 H398 0.934 . S
C378 C373 1.413 . S
C378 C377 1.403 . S
C378 H399 0.930 . S
C379 O390 1.275 . S
C379 O391 1.256 . S
O380 Ho360 2.322 . S
O380 C362 1.259 . S
O381 Ho361 2.346 . S
O381 C362 1.268 . S
O382 Ho360 2.378 . S
O382 C363 1.215 . S
O383 Ho360 2.524 . S
O383 C363 1.289 . S
O384 Ho360 2.381 . S
O384 C370 1.275 . S
O385 Ho360 2.669 . S
O385 Ho361 2.305 . S
O385 C370 1.256 . S
O386 Ho361 2.322 . S
O386 C371 1.259 . S
O387 Ho360 2.346 . S
O387 C371 1.268 . S
O388 Ho361 2.378 1_455 S
O388 C372 1.215 . S
O389 Ho361 2.524 1_455 S
O389 C372 1.289 . S
O390 Ho361 2.381 . S
O390 C379 1.275 . S
O391 Ho360 2.305 . S
O391 Ho361 2.669 . S
O391 C379 1.256 . S
H392 C365 0.930 . S
H393 C366 0.931 . S
H394 C368 0.934 . S
H395 C369 0.930 . S
H396 C374 0.930 . S
H397 C375 0.931 . S
H398 C377 0.934 . S
H399 C378 0.930 . S
Ho400 C403 2.811 . S
Ho400 O420 2.322 . S
Ho400 O422 2.378 . S
Ho400 O423 2.524 . S
Ho400 O424 2.381 . S
Ho400 O425 2.669 . S
Ho400 O427 2.346 . S
Ho400 O431 2.305 . S
Ho401 C412 2.811 . S
Ho401 O421 2.346 . S
Ho401 O425 2.305 . S
Ho401 O426 2.322 . S
Ho401 O428 2.378 . S
Ho401 O429 2.524 . S
Ho401 O430 2.381 . S
Ho401 O431 2.669 . S
C402 O420 1.259 . S
C402 O421 1.268 . S
C403 Ho400 2.811 . S
C403 C404 1.488 . S
C403 O422 1.215 . S
C403 O423 1.289 . S
C404 C403 1.488 . S
C404 C405 1.348 . S
C404 C409 1.413 . S
C405 C404 1.348 . S
C405 C406 1.442 . S
C405 H432 0.930 . S
C406 C405 1.442 . S
C406 C407 1.381 . S
C406 H433 0.931 . S
C407 C406 1.381 . S
C407 C408 1.321 . S
C408 C407 1.321 . S
C408 C409 1.403 . S
C408 H434 0.934 . S
C409 C404 1.413 . S
C409 C408 1.403 . S
C409 H435 0.930 . S
C410 O424 1.275 . S
C410 O425 1.256 . S
C411 O426 1.259 . S
C411 O427 1.268 . S
C412 Ho401 2.811 . S
C412 C413 1.488 . S
C412 O428 1.215 . S
C412 O429 1.289 . S
C413 C412 1.488 . S
C413 C414 1.348 . S
C413 C418 1.413 . S
C414 C413 1.348 . S
C414 C415 1.442 . S
C414 H436 0.930 . S
C415 C414 1.442 . S
C415 C416 1.381 . S
C415 H437 0.931 . S
C416 C415 1.381 . S
C416 C417 1.321 . S
C417 C416 1.321 . S
C417 C418 1.403 . S
C417 H438 0.934 . S
C418 C413 1.413 . S
C418 C417 1.403 . S
C418 H439 0.930 . S
C419 O430 1.275 . S
C419 O431 1.256 . S
O420 Ho400 2.322 . S
O420 C402 1.259 . S
O421 Ho401 2.346 . S
O421 C402 1.268 . S
O422 Ho400 2.378 . S
O422 C403 1.215 . S
O423 Ho400 2.524 . S
O423 C403 1.289 . S
O424 Ho400 2.381 . S
O424 C410 1.275 . S
O425 Ho400 2.669 . S
O425 Ho401 2.305 . S
O425 C410 1.256 . S
O426 Ho401 2.322 . S
O426 C411 1.259 . S
O427 Ho400 2.346 . S
O427 C411 1.268 . S
O428 Ho401 2.378 . S
O428 C412 1.215 . S
O429 Ho401 2.524 . S
O429 C412 1.289 . S
O430 Ho401 2.381 . S
O430 C419 1.275 . S
O431 Ho400 2.305 . S
O431 Ho401 2.669 . S
O431 C419 1.256 . S
H432 C405 0.930 . S
H433 C406 0.931 . S
H434 C408 0.934 . S
H435 C409 0.930 . S
H436 C414 0.930 . S
H437 C415 0.931 . S
H438 C417 0.934 . S
H439 C418 0.930 . S
Ho440 C443 2.811 . S
Ho440 O460 2.322 . S
Ho440 O462 2.378 . S
Ho440 O463 2.524 . S
Ho440 O464 2.381 . S
Ho440 O465 2.669 . S
Ho440 O467 2.346 . S
Ho440 O471 2.305 . S
Ho441 C452 2.811 . S
Ho441 O461 2.346 . S
Ho441 O465 2.305 . S
Ho441 O466 2.322 . S
Ho441 O468 2.378 . S
Ho441 O469 2.524 . S
Ho441 O470 2.381 . S
Ho441 O471 2.669 . S
C442 O460 1.259 . S
C442 O461 1.268 . S
C443 Ho440 2.811 . S
C443 C444 1.488 . S
C443 O462 1.215 . S
C443 O463 1.289 . S
C444 C443 1.488 . S
C444 C445 1.348 . S
C444 C449 1.413 . S
C445 C444 1.348 . S
C445 C446 1.442 . S
C445 H472 0.930 . S
C446 C445 1.442 . S
C446 C447 1.381 . S
C446 H473 0.931 . S
C447 C446 1.381 . S
C447 C448 1.321 . S
C448 C447 1.321 . S
C448 C449 1.403 . S
C448 H474 0.934 . S
C449 C444 1.413 . S
C449 C448 1.403 . S
C449 H475 0.930 . S
C450 O464 1.275 . S
C450 O465 1.256 . S
C451 O466 1.259 . S
C451 O467 1.268 . S
C452 Ho441 2.811 . S
C452 C453 1.488 . S
C452 O468 1.215 . S
C452 O469 1.289 . S
C453 C452 1.488 . S
C453 C454 1.348 . S
C453 C458 1.413 . S
C454 C453 1.348 . S
C454 C455 1.442 . S
C454 H476 0.930 . S
C455 C454 1.442 . S
C455 C456 1.381 . S
C455 H477 0.931 . S
C456 C455 1.381 . S
C456 C457 1.321 . S
C457 C456 1.321 . S
C457 C458 1.403 . S
C457 H478 0.934 . S
C458 C453 1.413 . S
C458 C457 1.403 . S
C458 H479 0.930 . S
C459 O470 1.275 . S
C459 O471 1.256 . S
O460 Ho440 2.322 . S
O460 C442 1.259 . S
O461 Ho441 2.346 . S
O461 C442 1.268 . S
O462 Ho440 2.378 . S
O462 C443 1.215 . S
O463 Ho440 2.524 . S
O463 C443 1.289 . S
O464 Ho440 2.381 . S
O464 C450 1.275 . S
O465 Ho440 2.669 . S
O465 Ho441 2.305 . S
O465 C450 1.256 . S
O466 Ho441 2.322 . S
O466 C451 1.259 . S
O467 Ho440 2.346 . S
O467 C451 1.268 . S
O468 Ho441 2.378 . S
O468 C452 1.215 . S
O469 Ho441 2.524 . S
O469 C452 1.289 . S
O470 Ho441 2.381 . S
O470 C459 1.275 . S
O471 Ho440 2.305 . S
O471 Ho441 2.669 . S
O471 C459 1.256 . S
H472 C445 0.930 . S
H473 C446 0.931 . S
H474 C448 0.934 . S
H475 C449 0.930 . S
H476 C454 0.930 . S
H477 C455 0.931 . S
H478 C457 0.934 . S
H479 C458 0.930 . S
Ho480 C483 2.811 . S
Ho480 O500 2.322 . S
Ho480 O502 2.378 . S
Ho480 O503 2.524 . S
Ho480 O504 2.381 . S
Ho480 O505 2.669 . S
Ho480 O507 2.346 . S
Ho480 O511 2.305 . S
Ho481 C492 2.811 . S
Ho481 O501 2.346 . S
Ho481 O505 2.305 . S
Ho481 O506 2.322 . S
Ho481 O508 2.378 . S
Ho481 O509 2.524 . S
Ho481 O510 2.381 . S
Ho481 O511 2.669 . S
C482 O500 1.259 . S
C482 O501 1.268 . S
C483 Ho480 2.811 . S
C483 C484 1.488 . S
C483 O502 1.215 . S
C483 O503 1.289 . S
C484 C483 1.488 . S
C484 C485 1.348 . S
C484 C489 1.413 . S
C485 C484 1.348 . S
C485 C486 1.442 . S
C485 H512 0.930 . S
C486 C485 1.442 . S
C486 C487 1.381 . S
C486 H513 0.931 . S
C487 C486 1.381 . S
C487 C488 1.321 . S
C488 C487 1.321 . S
C488 C489 1.403 . S
C488 H514 0.934 . S
C489 C484 1.413 . S
C489 C488 1.403 . S
C489 H515 0.930 . S
C490 O504 1.275 . S
C490 O505 1.256 . S
C491 O506 1.259 . S
C491 O507 1.268 . S
C492 Ho481 2.811 . S
C492 C493 1.488 . S
C492 O508 1.215 . S
C492 O509 1.289 . S
C493 C492 1.488 . S
C493 C494 1.348 . S
C493 C498 1.413 . S
C494 C493 1.348 . S
C494 C495 1.442 . S
C494 H516 0.930 . S
C495 C494 1.442 . S
C495 C496 1.381 . S
C495 H517 0.931 . S
C496 C495 1.381 . S
C496 C497 1.321 . S
C497 C496 1.321 . S
C497 C498 1.403 . S
C497 H518 0.934 . S
C498 C493 1.413 . S
C498 C497 1.403 . S
C498 H519 0.930 . S
C499 O510 1.275 . S
C499 O511 1.256 . S
O500 Ho480 2.322 . S
O500 C482 1.259 . S
O501 Ho481 2.346 . S
O501 C482 1.268 . S
O502 Ho480 2.378 . S
O502 C483 1.215 . S
O503 Ho480 2.524 . S
O503 C483 1.289 . S
O504 Ho480 2.381 . S
O504 C490 1.275 . S
O505 Ho480 2.669 . S
O505 Ho481 2.305 . S
O505 C490 1.256 . S
O506 Ho481 2.322 . S
O506 C491 1.259 . S
O507 Ho480 2.346 . S
O507 C491 1.268 . S
O508 Ho481 2.378 . S
O508 C492 1.215 . S
O509 Ho481 2.524 . S
O509 C492 1.289 . S
O510 Ho481 2.381 . S
O510 C499 1.275 . S
O511 Ho480 2.305 . S
O511 Ho481 2.669 . S
O511 C499 1.256 . S
H512 C485 0.930 . S
H513 C486 0.931 . S
H514 C488 0.934 . S
H515 C489 0.930 . S
H516 C494 0.930 . S
H517 C495 0.931 . S
H518 C497 0.934 . S
H519 C498 0.930 . S
Ho520 C523 2.811 . S
Ho520 O540 2.322 . S
Ho520 O542 2.378 . S
Ho520 O543 2.524 . S
Ho520 O544 2.381 . S
Ho520 O545 2.669 . S
Ho520 O547 2.346 . S
Ho520 O551 2.305 . S
Ho521 C532 2.811 . S
Ho521 O541 2.346 . S
Ho521 O545 2.305 . S
Ho521 O546 2.322 . S
Ho521 O548 2.378 . S
Ho521 O549 2.524 . S
Ho521 O550 2.381 . S
Ho521 O551 2.669 . S
C522 O540 1.259 . S
C522 O541 1.268 . S
C523 Ho520 2.811 . S
C523 C524 1.488 . S
C523 O542 1.215 . S
C523 O543 1.289 . S
C524 C523 1.488 . S
C524 C525 1.348 . S
C524 C529 1.413 . S
C525 C524 1.348 . S
C525 C526 1.442 . S
C525 H552 0.930 . S
C526 C525 1.442 . S
C526 C527 1.381 . S
C526 H553 0.931 . S
C527 C526 1.381 . S
C527 C528 1.321 . S
C528 C527 1.321 . S
C528 C529 1.403 . S
C528 H554 0.934 . S
C529 C524 1.413 . S
C529 C528 1.403 . S
C529 H555 0.930 . S
C530 O544 1.275 . S
C530 O545 1.256 . S
C531 O546 1.259 . S
C531 O547 1.268 . S
C532 Ho521 2.811 . S
C532 C533 1.488 . S
C532 O548 1.215 . S
C532 O549 1.289 . S
C533 C532 1.488 . S
C533 C534 1.348 . S
C533 C538 1.413 . S
C534 C533 1.348 . S
C534 C535 1.442 . S
C534 H556 0.930 . S
C535 C534 1.442 . S
C535 C536 1.381 . S
C535 H557 0.931 . S
C536 C535 1.381 . S
C536 C537 1.321 . S
C537 C536 1.321 . S
C537 C538 1.403 . S
C537 H558 0.934 . S
C538 C533 1.413 . S
C538 C537 1.403 . S
C538 H559 0.930 . S
C539 O550 1.275 . S
C539 O551 1.256 . S
O540 Ho520 2.322 . S
O540 C522 1.259 . S
O541 Ho521 2.346 . S
O541 C522 1.268 . S
O542 Ho520 2.378 . S
O542 C523 1.215 . S
O543 Ho520 2.524 . S
O543 C523 1.289 . S
O544 Ho520 2.381 . S
O544 C530 1.275 . S
O545 Ho520 2.669 . S
O545 Ho521 2.305 . S
O545 C530 1.256 . S
O546 Ho521 2.322 . S
O546 C531 1.259 . S
O547 Ho520 2.346 . S
O547 C531 1.268 . S
O548 Ho521 2.378 . S
O548 C532 1.215 . S
O549 Ho521 2.524 . S
O549 C532 1.289 . S
O550 Ho521 2.381 . S
O550 C539 1.275 . S
O551 Ho520 2.305 . S
O551 Ho521 2.669 . S
O551 C539 1.256 . S
H552 C525 0.930 . S
H553 C526 0.931 . S
H554 C528 0.934 . S
H555 C529 0.930 . S
H556 C534 0.930 . S
H557 C535 0.931 . S
H558 C537 0.934 . S
H559 C538 0.930 . S
Ho560 C563 2.811 . S
Ho560 O580 2.322 . S
Ho560 O582 2.378 . S
Ho560 O583 2.524 . S
Ho560 O584 2.381 . S
Ho560 O585 2.669 . S
Ho560 O587 2.346 . S
Ho560 O591 2.305 . S
Ho561 C572 2.811 . S
Ho561 O581 2.346 . S
Ho561 O585 2.305 . S
Ho561 O586 2.322 . S
Ho561 O588 2.378 . S
Ho561 O589 2.524 . S
Ho561 O590 2.381 . S
Ho561 O591 2.669 . S
C562 O580 1.259 . S
C562 O581 1.268 . S
C563 Ho560 2.811 . S
C563 C564 1.488 . S
C563 O582 1.215 . S
C563 O583 1.289 . S
C564 C563 1.488 . S
C564 C565 1.348 . S
C564 C569 1.413 . S
C565 C564 1.348 . S
C565 C566 1.442 . S
C565 H592 0.930 . S
C566 C565 1.442 . S
C566 C567 1.381 . S
C566 H593 0.931 . S
C567 C566 1.381 . S
C567 C568 1.321 . S
C568 C567 1.321 . S
C568 C569 1.403 . S
C568 H594 0.934 . S
C569 C564 1.413 . S
C569 C568 1.403 . S
C569 H595 0.930 . S
C570 O584 1.275 . S
C570 O585 1.256 . S
C571 O586 1.259 . S
C571 O587 1.268 . S
C572 Ho561 2.811 . S
C572 C573 1.488 . S
C572 O588 1.215 . S
C572 O589 1.289 . S
C573 C572 1.488 . S
C573 C574 1.348 . S
C573 C578 1.413 . S
C574 C573 1.348 . S
C574 C575 1.442 . S
C574 H596 0.930 . S
C575 C574 1.442 . S
C575 C576 1.381 . S
C575 H597 0.931 . S
C576 C575 1.381 . S
C576 C577 1.321 . S
C577 C576 1.321 . S
C577 C578 1.403 . S
C577 H598 0.934 . S
C578 C573 1.413 . S
C578 C577 1.403 . S
C578 H599 0.930 . S
C579 O590 1.275 . S
C579 O591 1.256 . S
O580 Ho560 2.322 . S
O580 C562 1.259 . S
O581 Ho561 2.346 . S
O581 C562 1.268 . S
O582 Ho560 2.378 . S
O582 C563 1.215 . S
O583 Ho560 2.524 . S
O583 C563 1.289 . S
O584 Ho560 2.381 . S
O584 C570 1.275 . S
O585 Ho560 2.669 . S
O585 Ho561 2.305 . S
O585 C570 1.256 . S
O586 Ho561 2.322 . S
O586 C571 1.259 . S
O587 Ho560 2.346 . S
O587 C571 1.268 . S
O588 Ho561 2.378 . S
O588 C572 1.215 . S
O589 Ho561 2.524 . S
O589 C572 1.289 . S
O590 Ho561 2.381 . S
O590 C579 1.275 . S
O591 Ho560 2.305 . S
O591 Ho561 2.669 . S
O591 C579 1.256 . S
H592 C565 0.930 . S
H593 C566 0.931 . S
H594 C568 0.934 . S
H595 C569 0.930 . S
H596 C574 0.930 . S
H597 C575 0.931 . S
H598 C577 0.934 . S
H599 C578 0.930 . S
Ho600 C603 2.811 . S
Ho600 O620 2.322 . S
Ho600 O622 2.378 . S
Ho600 O623 2.524 . S
Ho600 O624 2.381 . S
Ho600 O625 2.669 . S
Ho600 O627 2.346 . S
Ho600 O631 2.305 . S
Ho601 C612 2.811 1_655 S
Ho601 O621 2.346 . S
Ho601 O625 2.305 . S
Ho601 O626 2.322 . S
Ho601 O628 2.378 1_655 S
Ho601 O629 2.524 1_655 S
Ho601 O630 2.381 . S
Ho601 O631 2.669 . S
C602 O620 1.259 . S
C602 O621 1.268 . S
C603 Ho600 2.811 . S
C603 C604 1.488 . S
C603 O622 1.215 . S
C603 O623 1.289 . S
C604 C603 1.488 . S
C604 C605 1.348 . S
C604 C609 1.413 . S
C605 C604 1.348 . S
C605 C606 1.442 . S
C605 H632 0.930 . S
C606 C605 1.442 . S
C606 C607 1.381 . S
C606 H633 0.931 . S
C607 C606 1.381 . S
C607 C608 1.321 . S
C608 C607 1.321 . S
C608 C609 1.403 . S
C608 H634 0.934 . S
C609 C604 1.413 . S
C609 C608 1.403 . S
C609 H635 0.930 . S
C610 O624 1.275 . S
C610 O625 1.256 . S
C611 O626 1.259 . S
C611 O627 1.268 . S
C612 Ho601 2.811 1_455 S
C612 C613 1.488 . S
C612 O628 1.215 . S
C612 O629 1.289 . S
C613 C612 1.488 . S
C613 C614 1.348 . S
C613 C618 1.413 . S
C614 C613 1.348 . S
C614 C615 1.442 . S
C614 H636 0.930 . S
C615 C614 1.442 . S
C615 C616 1.381 . S
C615 H637 0.931 . S
C616 C615 1.381 . S
C616 C617 1.321 . S
C617 C616 1.321 . S
C617 C618 1.403 . S
C617 H638 0.934 . S
C618 C613 1.413 . S
C618 C617 1.403 . S
C618 H639 0.930 . S
C619 O630 1.275 . S
C619 O631 1.256 . S
O620 Ho600 2.322 . S
O620 C602 1.259 . S
O621 Ho601 2.346 . S
O621 C602 1.268 . S
O622 Ho600 2.378 . S
O622 C603 1.215 . S
O623 Ho600 2.524 . S
O623 C603 1.289 . S
O624 Ho600 2.381 . S
O624 C610 1.275 . S
O625 Ho600 2.669 . S
O625 Ho601 2.305 . S
O625 C610 1.256 . S
O626 Ho601 2.322 . S
O626 C611 1.259 . S
O627 Ho600 2.346 . S
O627 C611 1.268 . S
O628 Ho601 2.378 1_455 S
O628 C612 1.215 . S
O629 Ho601 2.524 1_455 S
O629 C612 1.289 . S
O630 Ho601 2.381 . S
O630 C619 1.275 . S
O631 Ho600 2.305 . S
O631 Ho601 2.669 . S
O631 C619 1.256 . S
H632 C605 0.930 . S
H633 C606 0.931 . S
H634 C608 0.934 . S
H635 C609 0.930 . S
H636 C614 0.930 . S
H637 C615 0.931 . S
H638 C617 0.934 . S
H639 C618 0.930 . S
Ho640 C643 2.811 . S
Ho640 O660 2.322 . S
Ho640 O662 2.378 . S
Ho640 O663 2.524 . S
Ho640 O664 2.381 . S
Ho640 O665 2.669 . S
Ho640 O667 2.346 . S
Ho640 O671 2.305 . S
Ho641 C652 2.811 . S
Ho641 O661 2.346 . S
Ho641 O665 2.305 . S
Ho641 O666 2.322 . S
Ho641 O668 2.378 . S
Ho641 O669 2.524 . S
Ho641 O670 2.381 . S
Ho641 O671 2.669 . S
C642 O660 1.259 . S
C642 O661 1.268 . S
C643 Ho640 2.811 . S
C643 C644 1.488 . S
C643 O662 1.215 . S
C643 O663 1.289 . S
C644 C643 1.488 . S
C644 C645 1.348 . S
C644 C649 1.413 . S
C645 C644 1.348 . S
C645 C646 1.442 . S
C645 H672 0.930 . S
C646 C645 1.442 . S
C646 C647 1.381 . S
C646 H673 0.931 . S
C647 C646 1.381 . S
C647 C648 1.321 . S
C648 C647 1.321 . S
C648 C649 1.403 . S
C648 H674 0.934 . S
C649 C644 1.413 . S
C649 C648 1.403 . S
C649 H675 0.930 . S
C650 O664 1.275 . S
C650 O665 1.256 . S
C651 O666 1.259 . S
C651 O667 1.268 . S
C652 Ho641 2.811 . S
C652 C653 1.488 . S
C652 O668 1.215 . S
C652 O669 1.289 . S
C653 C652 1.488 . S
C653 C654 1.348 . S
C653 C658 1.413 . S
C654 C653 1.348 . S
C654 C655 1.442 . S
C654 H676 0.930 . S
C655 C654 1.442 . S
C655 C656 1.381 . S
C655 H677 0.931 . S
C656 C655 1.381 . S
C656 C657 1.321 . S
C657 C656 1.321 . S
C657 C658 1.403 . S
C657 H678 0.934 . S
C658 C653 1.413 . S
C658 C657 1.403 . S
C658 H679 0.930 . S
C659 O670 1.275 . S
C659 O671 1.256 . S
O660 Ho640 2.322 . S
O660 C642 1.259 . S
O661 Ho641 2.346 . S
O661 C642 1.268 . S
O662 Ho640 2.378 . S
O662 C643 1.215 . S
O663 Ho640 2.524 . S
O663 C643 1.289 . S
O664 Ho640 2.381 . S
O664 C650 1.275 . S
O665 Ho640 2.669 . S
O665 Ho641 2.305 . S
O665 C650 1.256 . S
O666 Ho641 2.322 . S
O666 C651 1.259 . S
O667 Ho640 2.346 . S
O667 C651 1.268 . S
O668 Ho641 2.378 . S
O668 C652 1.215 . S
O669 Ho641 2.524 . S
O669 C652 1.289 . S
O670 Ho641 2.381 . S
O670 C659 1.275 . S
O671 Ho640 2.305 . S
O671 Ho641 2.669 . S
O671 C659 1.256 . S
H672 C645 0.930 . S
H673 C646 0.931 . S
H674 C648 0.934 . S
H675 C649 0.930 . S
H676 C654 0.930 . S
H677 C655 0.931 . S
H678 C657 0.934 . S
H679 C658 0.930 . S
Ho680 C683 2.811 . S
Ho680 O700 2.322 . S
Ho680 O702 2.378 . S
Ho680 O703 2.524 . S
Ho680 O704 2.381 . S
Ho680 O705 2.669 . S
Ho680 O707 2.346 . S
Ho680 O711 2.305 . S
Ho681 C692 2.811 . S
Ho681 O701 2.346 . S
Ho681 O705 2.305 . S
Ho681 O706 2.322 . S
Ho681 O708 2.378 . S
Ho681 O709 2.524 . S
Ho681 O710 2.381 . S
Ho681 O711 2.669 . S
C682 O700 1.259 . S
C682 O701 1.268 . S
C683 Ho680 2.811 . S
C683 C684 1.488 . S
C683 O702 1.215 . S
C683 O703 1.289 . S
C684 C683 1.488 . S
C684 C685 1.348 . S
C684 C689 1.413 . S
C685 C684 1.348 . S
C685 C686 1.442 . S
C685 H712 0.930 . S
C686 C685 1.442 . S
C686 C687 1.381 . S
C686 H713 0.931 . S
C687 C686 1.381 . S
C687 C688 1.321 . S
C688 C687 1.321 . S
C688 C689 1.403 . S
C688 H714 0.934 . S
C689 C684 1.413 . S
C689 C688 1.403 . S
C689 H715 0.930 . S
C690 O704 1.275 . S
C690 O705 1.256 . S
C691 O706 1.259 . S
C691 O707 1.268 . S
C692 Ho681 2.811 . S
C692 C693 1.488 . S
C692 O708 1.215 . S
C692 O709 1.289 . S
C693 C692 1.488 . S
C693 C694 1.348 . S
C693 C698 1.413 . S
C694 C693 1.348 . S
C694 C695 1.442 . S
C694 H716 0.930 . S
C695 C694 1.442 . S
C695 C696 1.381 . S
C695 H717 0.931 . S
C696 C695 1.381 . S
C696 C697 1.321 . S
C697 C696 1.321 . S
C697 C698 1.403 . S
C697 H718 0.934 . S
C698 C693 1.413 . S
C698 C697 1.403 . S
C698 H719 0.930 . S
C699 O710 1.275 . S
C699 O711 1.256 . S
O700 Ho680 2.322 . S
O700 C682 1.259 . S
O701 Ho681 2.346 . S
O701 C682 1.268 . S
O702 Ho680 2.378 . S
O702 C683 1.215 . S
O703 Ho680 2.524 . S
O703 C683 1.289 . S
O704 Ho680 2.381 . S
O704 C690 1.275 . S
O705 Ho680 2.669 . S
O705 Ho681 2.305 . S
O705 C690 1.256 . S
O706 Ho681 2.322 . S
O706 C691 1.259 . S
O707 Ho680 2.346 . S
O707 C691 1.268 . S
O708 Ho681 2.378 . S
O708 C692 1.215 . S
O709 Ho681 2.524 . S
O709 C692 1.289 . S
O710 Ho681 2.381 . S
O710 C699 1.275 . S
O711 Ho680 2.305 . S
O711 Ho681 2.669 . S
O711 C699 1.256 . S
H712 C685 0.930 . S
H713 C686 0.931 . S
H714 C688 0.934 . S
H715 C689 0.930 . S
H716 C694 0.930 . S
H717 C695 0.931 . S
H718 C697 0.934 . S
H719 C698 0.930 . S
Ho720 C723 2.811 . S
Ho720 O740 2.322 . S
Ho720 O742 2.378 . S
Ho720 O743 2.524 . S
Ho720 O744 2.381 . S
Ho720 O745 2.669 . S
Ho720 O747 2.346 . S
Ho720 O751 2.305 . S
Ho721 C732 2.811 . S
Ho721 O741 2.346 . S
Ho721 O745 2.305 . S
Ho721 O746 2.322 . S
Ho721 O748 2.378 . S
Ho721 O749 2.524 . S
Ho721 O750 2.381 . S
Ho721 O751 2.669 . S
C722 O740 1.259 . S
C722 O741 1.268 . S
C723 Ho720 2.811 . S
C723 C724 1.488 . S
C723 O742 1.215 . S
C723 O743 1.289 . S
C724 C723 1.488 . S
C724 C725 1.348 . S
C724 C729 1.413 . S
C725 C724 1.348 . S
C725 C726 1.442 . S
C725 H752 0.930 . S
C726 C725 1.442 . S
C726 C727 1.381 . S
C726 H753 0.931 . S
C727 C726 1.381 . S
C727 C728 1.321 . S
C728 C727 1.321 . S
C728 C729 1.403 . S
C728 H754 0.934 . S
C729 C724 1.413 . S
C729 C728 1.403 . S
C729 H755 0.930 . S
C730 O744 1.275 . S
C730 O745 1.256 . S
C731 O746 1.259 . S
C731 O747 1.268 . S
C732 Ho721 2.811 . S
C732 C733 1.488 . S
C732 O748 1.215 . S
C732 O749 1.289 . S
C733 C732 1.488 . S
C733 C734 1.348 . S
C733 C738 1.413 . S
C734 C733 1.348 . S
C734 C735 1.442 . S
C734 H756 0.930 . S
C735 C734 1.442 . S
C735 C736 1.381 . S
C735 H757 0.931 . S
C736 C735 1.381 . S
C736 C737 1.321 . S
C737 C736 1.321 . S
C737 C738 1.403 . S
C737 H758 0.934 . S
C738 C733 1.413 . S
C738 C737 1.403 . S
C738 H759 0.930 . S
C739 O750 1.275 . S
C739 O751 1.256 . S
O740 Ho720 2.322 . S
O740 C722 1.259 . S
O741 Ho721 2.346 . S
O741 C722 1.268 . S
O742 Ho720 2.378 . S
O742 C723 1.215 . S
O743 Ho720 2.524 . S
O743 C723 1.289 . S
O744 Ho720 2.381 . S
O744 C730 1.275 . S
O745 Ho720 2.669 . S
O745 Ho721 2.305 . S
O745 C730 1.256 . S
O746 Ho721 2.322 . S
O746 C731 1.259 . S
O747 Ho720 2.346 . S
O747 C731 1.268 . S
O748 Ho721 2.378 . S
O748 C732 1.215 . S
O749 Ho721 2.524 . S
O749 C732 1.289 . S
O750 Ho721 2.381 . S
O750 C739 1.275 . S
O751 Ho720 2.305 . S
O751 Ho721 2.669 . S
O751 C739 1.256 . S
H752 C725 0.930 . S
H753 C726 0.931 . S
H754 C728 0.934 . S
H755 C729 0.930 . S
H756 C734 0.930 . S
H757 C735 0.931 . S
H758 C737 0.934 . S
H759 C738 0.930 . S
Ho760 C763 2.811 1_655 S
Ho760 O780 2.322 . S
Ho760 O782 2.378 1_655 S
Ho760 O783 2.524 1_655 S
Ho760 O784 2.381 . S
Ho760 O785 2.669 . S
Ho760 O787 2.346 . S
Ho760 O791 2.305 . S
Ho761 C772 2.811 . S
Ho761 O781 2.346 . S
Ho761 O785 2.305 . S
Ho761 O786 2.322 . S
Ho761 O788 2.378 . S
Ho761 O789 2.524 . S
Ho761 O790 2.381 . S
Ho761 O791 2.669 . S
C762 O780 1.259 . S
C762 O781 1.268 . S
C763 Ho760 2.811 1_455 S
C763 C764 1.488 . S
C763 O782 1.215 . S
C763 O783 1.289 . S
C764 C763 1.488 . S
C764 C765 1.348 . S
C764 C769 1.413 . S
C765 C764 1.348 . S
C765 C766 1.442 . S
C765 H792 0.930 . S
C766 C765 1.442 . S
C766 C767 1.381 . S
C766 H793 0.931 . S
C767 C766 1.381 . S
C767 C768 1.321 . S
C768 C767 1.321 . S
C768 C769 1.403 . S
C768 H794 0.934 . S
C769 C764 1.413 . S
C769 C768 1.403 . S
C769 H795 0.930 . S
C770 O784 1.275 . S
C770 O785 1.256 . S
C771 O786 1.259 . S
C771 O787 1.268 . S
C772 Ho761 2.811 . S
C772 C773 1.488 . S
C772 O788 1.215 . S
C772 O789 1.289 . S
C773 C772 1.488 . S
C773 C774 1.348 . S
C773 C778 1.413 . S
C774 C773 1.348 . S
C774 C775 1.442 . S
C774 H796 0.930 . S
C775 C774 1.442 . S
C775 C776 1.381 . S
C775 H797 0.931 . S
C776 C775 1.381 . S
C776 C777 1.321 . S
C777 C776 1.321 . S
C777 C778 1.403 . S
C777 H798 0.934 . S
C778 C773 1.413 . S
C778 C777 1.403 . S
C778 H799 0.930 . S
C779 O790 1.275 . S
C779 O791 1.256 . S
O780 Ho760 2.322 . S
O780 C762 1.259 . S
O781 Ho761 2.346 . S
O781 C762 1.268 . S
O782 Ho760 2.378 1_455 S
O782 C763 1.215 . S
O783 Ho760 2.524 1_455 S
O783 C763 1.289 . S
O784 Ho760 2.381 . S
O784 C770 1.275 . S
O785 Ho760 2.669 . S
O785 Ho761 2.305 . S
O785 C770 1.256 . S
O786 Ho761 2.322 . S
O786 C771 1.259 . S
O787 Ho760 2.346 . S
O787 C771 1.268 . S
O788 Ho761 2.378 . S
O788 C772 1.215 . S
O789 Ho761 2.524 . S
O789 C772 1.289 . S
O790 Ho761 2.381 . S
O790 C779 1.275 . S
O791 Ho760 2.305 . S
O791 Ho761 2.669 . S
O791 C779 1.256 . S
H792 C765 0.930 . S
H793 C766 0.931 . S
H794 C768 0.934 . S
H795 C769 0.930 . S
H796 C774 0.930 . S
H797 C775 0.931 . S
H798 C777 0.934 . S
H799 C778 0.930 . S
Ho800 C803 2.811 . S
Ho800 O820 2.322 . S
Ho800 O822 2.378 . S
Ho800 O823 2.524 . S
Ho800 O824 2.381 . S
Ho800 O825 2.669 . S
Ho800 O827 2.346 . S
Ho800 O831 2.305 . S
Ho801 C812 2.811 . S
Ho801 O821 2.346 . S
Ho801 O825 2.305 . S
Ho801 O826 2.322 . S
Ho801 O828 2.378 . S
Ho801 O829 2.524 . S
Ho801 O830 2.381 . S
Ho801 O831 2.669 . S
C802 O820 1.259 . S
C802 O821 1.268 . S
C803 Ho800 2.811 . S
C803 C804 1.488 . S
C803 O822 1.215 . S
C803 O823 1.289 . S
C804 C803 1.488 . S
C804 C805 1.348 . S
C804 C809 1.413 . S
C805 C804 1.348 . S
C805 C806 1.442 . S
C805 H832 0.930 . S
C806 C805 1.442 . S
C806 C807 1.381 . S
C806 H833 0.931 . S
C807 C806 1.381 . S
C807 C808 1.321 . S
C808 C807 1.321 . S
C808 C809 1.403 . S
C808 H834 0.934 . S
C809 C804 1.413 . S
C809 C808 1.403 . S
C809 H835 0.930 . S
C810 O824 1.275 . S
C810 O825 1.256 . S
C811 O826 1.259 . S
C811 O827 1.268 . S
C812 Ho801 2.811 . S
C812 C813 1.488 . S
C812 O828 1.215 . S
C812 O829 1.289 . S
C813 C812 1.488 . S
C813 C814 1.348 . S
C813 C818 1.413 . S
C814 C813 1.348 . S
C814 C815 1.442 . S
C814 H836 0.930 . S
C815 C814 1.442 . S
C815 C816 1.381 . S
C815 H837 0.931 . S
C816 C815 1.381 . S
C816 C817 1.321 . S
C817 C816 1.321 . S
C817 C818 1.403 . S
C817 H838 0.934 . S
C818 C813 1.413 . S
C818 C817 1.403 . S
C818 H839 0.930 . S
C819 O830 1.275 . S
C819 O831 1.256 . S
O820 Ho800 2.322 . S
O820 C802 1.259 . S
O821 Ho801 2.346 . S
O821 C802 1.268 . S
O822 Ho800 2.378 . S
O822 C803 1.215 . S
O823 Ho800 2.524 . S
O823 C803 1.289 . S
O824 Ho800 2.381 . S
O824 C810 1.275 . S
O825 Ho800 2.669 . S
O825 Ho801 2.305 . S
O825 C810 1.256 . S
O826 Ho801 2.322 . S
O826 C811 1.259 . S
O827 Ho800 2.346 . S
O827 C811 1.268 . S
O828 Ho801 2.378 . S
O828 C812 1.215 . S
O829 Ho801 2.524 . S
O829 C812 1.289 . S
O830 Ho801 2.381 . S
O830 C819 1.275 . S
O831 Ho800 2.305 . S
O831 Ho801 2.669 . S
O831 C819 1.256 . S
H832 C805 0.930 . S
H833 C806 0.931 . S
H834 C808 0.934 . S
H835 C809 0.930 . S
H836 C814 0.930 . S
H837 C815 0.931 . S
H838 C817 0.934 . S
H839 C818 0.930 . S
Ho840 C843 2.811 1_655 S
Ho840 O860 2.322 . S
Ho840 O862 2.378 1_655 S
Ho840 O863 2.524 1_655 S
Ho840 O864 2.381 . S
Ho840 O865 2.669 . S
Ho840 O867 2.346 . S
Ho840 O871 2.305 . S
Ho841 C852 2.811 . S
Ho841 O861 2.346 . S
Ho841 O865 2.305 . S
Ho841 O866 2.322 . S
Ho841 O868 2.378 . S
Ho841 O869 2.524 . S
Ho841 O870 2.381 . S
Ho841 O871 2.669 . S
C842 O860 1.259 . S
C842 O861 1.268 . S
C843 Ho840 2.811 1_455 S
C843 C844 1.488 . S
C843 O862 1.215 . S
C843 O863 1.289 . S
C844 C843 1.488 . S
C844 C845 1.348 . S
C844 C849 1.413 . S
C845 C844 1.348 . S
C845 C846 1.442 . S
C845 H872 0.930 . S
C846 C845 1.442 . S
C846 C847 1.381 . S
C846 H873 0.931 . S
C847 C846 1.381 . S
C847 C848 1.321 . S
C848 C847 1.321 . S
C848 C849 1.403 . S
C848 H874 0.934 . S
C849 C844 1.413 . S
C849 C848 1.403 . S
C849 H875 0.930 . S
C850 O864 1.275 . S
C850 O865 1.256 . S
C851 O866 1.259 . S
C851 O867 1.268 . S
C852 Ho841 2.811 . S
C852 C853 1.488 . S
C852 O868 1.215 . S
C852 O869 1.289 . S
C853 C852 1.488 . S
C853 C854 1.348 . S
C853 C858 1.413 . S
C854 C853 1.348 . S
C854 C855 1.442 . S
C854 H876 0.930 . S
C855 C854 1.442 . S
C855 C856 1.381 . S
C855 H877 0.931 . S
C856 C855 1.381 . S
C856 C857 1.321 . S
C857 C856 1.321 . S
C857 C858 1.403 . S
C857 H878 0.934 . S
C858 C853 1.413 . S
C858 C857 1.403 . S
C858 H879 0.930 . S
C859 O870 1.275 . S
C859 O871 1.256 . S
O860 Ho840 2.322 . S
O860 C842 1.259 . S
O861 Ho841 2.346 . S
O861 C842 1.268 . S
O862 Ho840 2.378 1_455 S
O862 C843 1.215 . S
O863 Ho840 2.524 1_455 S
O863 C843 1.289 . S
O864 Ho840 2.381 . S
O864 C850 1.275 . S
O865 Ho840 2.669 . S
O865 Ho841 2.305 . S
O865 C850 1.256 . S
O866 Ho841 2.322 . S
O866 C851 1.259 . S
O867 Ho840 2.346 . S
O867 C851 1.268 . S
O868 Ho841 2.378 . S
O868 C852 1.215 . S
O869 Ho841 2.524 . S
O869 C852 1.289 . S
O870 Ho841 2.381 . S
O870 C859 1.275 . S
O871 Ho840 2.305 . S
O871 Ho841 2.669 . S
O871 C859 1.256 . S
H872 C845 0.930 . S
H873 C846 0.931 . S
H874 C848 0.934 . S
H875 C849 0.930 . S
H876 C854 0.930 . S
H877 C855 0.931 . S
H878 C857 0.934 . S
H879 C858 0.930 . S
Ho880 C883 2.811 . S
Ho880 O900 2.322 . S
Ho880 O902 2.378 . S
Ho880 O903 2.524 . S
Ho880 O904 2.381 . S
Ho880 O905 2.669 . S
Ho880 O907 2.346 . S
Ho880 O911 2.305 . S
Ho881 C892 2.811 . S
Ho881 O901 2.346 . S
Ho881 O905 2.305 . S
Ho881 O906 2.322 . S
Ho881 O908 2.378 . S
Ho881 O909 2.524 . S
Ho881 O910 2.381 . S
Ho881 O911 2.669 . S
C882 O900 1.259 . S
C882 O901 1.268 . S
C883 Ho880 2.811 . S
C883 C884 1.488 . S
C883 O902 1.215 . S
C883 O903 1.289 . S
C884 C883 1.488 . S
C884 C885 1.348 . S
C884 C889 1.413 . S
C885 C884 1.348 . S
C885 C886 1.442 . S
C885 H912 0.930 . S
C886 C885 1.442 . S
C886 C887 1.381 . S
C886 H913 0.931 . S
C887 C886 1.381 . S
C887 C888 1.321 . S
C888 C887 1.321 . S
C888 C889 1.403 . S
C888 H914 0.934 . S
C889 C884 1.413 . S
C889 C888 1.403 . S
C889 H915 0.930 . S
C890 O904 1.275 . S
C890 O905 1.256 . S
C891 O906 1.259 . S
C891 O907 1.268 . S
C892 Ho881 2.811 . S
C892 C893 1.488 . S
C892 O908 1.215 . S
C892 O909 1.289 . S
C893 C892 1.488 . S
C893 C894 1.348 . S
C893 C898 1.413 . S
C894 C893 1.348 . S
C894 C895 1.442 . S
C894 H916 0.930 . S
C895 C894 1.442 . S
C895 C896 1.381 . S
C895 H917 0.931 . S
C896 C895 1.381 . S
C896 C897 1.321 . S
C897 C896 1.321 . S
C897 C898 1.403 . S
C897 H918 0.934 . S
C898 C893 1.413 . S
C898 C897 1.403 . S
C898 H919 0.930 . S
C899 O910 1.275 . S
C899 O911 1.256 . S
O900 Ho880 2.322 . S
O900 C882 1.259 . S
O901 Ho881 2.346 . S
O901 C882 1.268 . S
O902 Ho880 2.378 . S
O902 C883 1.215 . S
O903 Ho880 2.524 . S
O903 C883 1.289 . S
O904 Ho880 2.381 . S
O904 C890 1.275 . S
O905 Ho880 2.669 . S
O905 Ho881 2.305 . S
O905 C890 1.256 . S
O906 Ho881 2.322 . S
O906 C891 1.259 . S
O907 Ho880 2.346 . S
O907 C891 1.268 . S
O908 Ho881 2.378 . S
O908 C892 1.215 . S
O909 Ho881 2.524 . S
O909 C892 1.289 . S
O910 Ho881 2.381 . S
O910 C899 1.275 . S
O911 Ho880 2.305 . S
O911 Ho881 2.669 . S
O911 C899 1.256 . S
H912 C885 0.930 . S
H913 C886 0.931 . S
H914 C888 0.934 . S
H915 C889 0.930 . S
H916 C894 0.930 . S
H917 C895 0.931 . S
H918 C897 0.934 . S
H919 C898 0.930 . S
Ho920 C923 2.811 . S
Ho920 O940 2.322 . S
Ho920 O942 2.378 . S
Ho920 O943 2.524 . S
Ho920 O944 2.381 . S
Ho920 O945 2.669 . S
Ho920 O947 2.346 . S
Ho920 O951 2.305 . S
Ho921 C932 2.811 . S
Ho921 O941 2.346 . S
Ho921 O945 2.305 . S
Ho921 O946 2.322 . S
Ho921 O948 2.378 . S
Ho921 O949 2.524 . S
Ho921 O950 2.381 . S
Ho921 O951 2.669 . S
C922 O940 1.259 . S
C922 O941 1.268 . S
C923 Ho920 2.811 . S
C923 C924 1.488 . S
C923 O942 1.215 . S
C923 O943 1.289 . S
C924 C923 1.488 . S
C924 C925 1.348 . S
C924 C929 1.413 . S
C925 C924 1.348 . S
C925 C926 1.442 . S
C925 H952 0.930 . S
C926 C925 1.442 . S
C926 C927 1.381 . S
C926 H953 0.931 . S
C927 C926 1.381 . S
C927 C928 1.321 . S
C928 C927 1.321 . S
C928 C929 1.403 . S
C928 H954 0.934 . S
C929 C924 1.413 . S
C929 C928 1.403 . S
C929 H955 0.930 . S
C930 O944 1.275 . S
C930 O945 1.256 . S
C931 O946 1.259 . S
C931 O947 1.268 . S
C932 Ho921 2.811 . S
C932 C933 1.488 . S
C932 O948 1.215 . S
C932 O949 1.289 . S
C933 C932 1.488 . S
C933 C934 1.348 . S
C933 C938 1.413 . S
C934 C933 1.348 . S
C934 C935 1.442 . S
C934 H956 0.930 . S
C935 C934 1.442 . S
C935 C936 1.381 . S
C935 H957 0.931 . S
C936 C935 1.381 . S
C936 C937 1.321 . S
C937 C936 1.321 . S
C937 C938 1.403 . S
C937 H958 0.934 . S
C938 C933 1.413 . S
C938 C937 1.403 . S
C938 H959 0.930 . S
C939 O950 1.275 . S
C939 O951 1.256 . S
O940 Ho920 2.322 . S
O940 C922 1.259 . S
O941 Ho921 2.346 . S
O941 C922 1.268 . S
O942 Ho920 2.378 . S
O942 C923 1.215 . S
O943 Ho920 2.524 . S
O943 C923 1.289 . S
O944 Ho920 2.381 . S
O944 C930 1.275 . S
O945 Ho920 2.669 . S
O945 Ho921 2.305 . S
O945 C930 1.256 . S
O946 Ho921 2.322 . S
O946 C931 1.259 . S
O947 Ho920 2.346 . S
O947 C931 1.268 . S
O948 Ho921 2.378 . S
O948 C932 1.215 . S
O949 Ho921 2.524 . S
O949 C932 1.289 . S
O950 Ho921 2.381 . S
O950 C939 1.275 . S
O951 Ho920 2.305 . S
O951 Ho921 2.669 . S
O951 C939 1.256 . S
H952 C925 0.930 . S
H953 C926 0.931 . S
H954 C928 0.934 . S
H955 C929 0.930 . S
H956 C934 0.930 . S
H957 C935 0.931 . S
H958 C937 0.934 . S
H959 C938 0.930 . S
Ho960 C963 2.811 . S
Ho960 O980 2.322 . S
Ho960 O982 2.378 . S
Ho960 O983 2.524 . S
Ho960 O984 2.381 . S
Ho960 O985 2.669 . S
Ho960 O987 2.346 . S
Ho960 O991 2.305 . S
Ho961 C972 2.811 . S
Ho961 O981 2.346 . S
Ho961 O985 2.305 . S
Ho961 O986 2.322 . S
Ho961 O988 2.378 . S
Ho961 O989 2.524 . S
Ho961 O990 2.381 . S
Ho961 O991 2.669 . S
C962 O980 1.259 . S
C962 O981 1.268 . S
C963 Ho960 2.811 . S
C963 C964 1.488 . S
C963 O982 1.215 . S
C963 O983 1.289 . S
C964 C963 1.488 . S
C964 C965 1.348 . S
C964 C969 1.413 . S
C965 C964 1.348 . S
C965 C966 1.442 . S
C965 H992 0.930 . S
C966 C965 1.442 . S
C966 C967 1.381 . S
C966 H993 0.931 . S
C967 C966 1.381 . S
C967 C968 1.321 . S
C968 C967 1.321 . S
C968 C969 1.403 . S
C968 H994 0.934 . S
C969 C964 1.413 . S
C969 C968 1.403 . S
C969 H995 0.930 . S
C970 O984 1.275 . S
C970 O985 1.256 . S
C971 O986 1.259 . S
C971 O987 1.268 . S
C972 Ho961 2.811 . S
C972 C973 1.488 . S
C972 O988 1.215 . S
C972 O989 1.289 . S
C973 C972 1.488 . S
C973 C974 1.348 . S
C973 C978 1.413 . S
C974 C973 1.348 . S
C974 C975 1.442 . S
C974 H996 0.930 . S
C975 C974 1.442 . S
C975 C976 1.381 . S
C975 H997 0.931 . S
C976 C975 1.381 . S
C976 C977 1.321 . S
C977 C976 1.321 . S
C977 C978 1.403 . S
C977 H998 0.934 . S
C978 C973 1.413 . S
C978 C977 1.403 . S
C978 H999 0.930 . S
C979 O990 1.275 . S
C979 O991 1.256 . S
O980 Ho960 2.322 . S
O980 C962 1.259 . S
O981 Ho961 2.346 . S
O981 C962 1.268 . S
O982 Ho960 2.378 . S
O982 C963 1.215 . S
O983 Ho960 2.524 . S
O983 C963 1.289 . S
O984 Ho960 2.381 . S
O984 C970 1.275 . S
O985 Ho960 2.669 . S
O985 Ho961 2.305 . S
O985 C970 1.256 . S
O986 Ho961 2.322 . S
O986 C971 1.259 . S
O987 Ho960 2.346 . S
O987 C971 1.268 . S
O988 Ho961 2.378 . S
O988 C972 1.215 . S
O989 Ho961 2.524 . S
O989 C972 1.289 . S
O990 Ho961 2.381 . S
O990 C979 1.275 . S
O991 Ho960 2.305 . S
O991 Ho961 2.669 . S
O991 C979 1.256 . S
H992 C965 0.930 . S
H993 C966 0.931 . S
H994 C968 0.934 . S
H995 C969 0.930 . S
H996 C974 0.930 . S
H997 C975 0.931 . S
H998 C977 0.934 . S
H999 C978 0.930 . S
Ho1000 C1003 2.811 . S
Ho1000 O1020 2.322 . S
Ho1000 O1022 2.378 . S
Ho1000 O1023 2.524 . S
Ho1000 O1024 2.381 . S
Ho1000 O1025 2.669 . S
Ho1000 O1027 2.346 . S
Ho1000 O1031 2.305 . S
Ho1001 C1012 2.811 . S
Ho1001 O1021 2.346 . S
Ho1001 O1025 2.305 . S
Ho1001 O1026 2.322 . S
Ho1001 O1028 2.378 . S
Ho1001 O1029 2.524 . S
Ho1001 O1030 2.381 . S
Ho1001 O1031 2.669 . S
C1002 O1020 1.259 . S
C1002 O1021 1.268 . S
C1003 Ho1000 2.811 . S
C1003 C1004 1.488 . S
C1003 O1022 1.215 . S
C1003 O1023 1.289 . S
C1004 C1003 1.488 . S
C1004 C1005 1.348 . S
C1004 C1009 1.413 . S
C1005 C1004 1.348 . S
C1005 C1006 1.442 . S
C1005 H1032 0.930 . S
C1006 C1005 1.442 . S
C1006 C1007 1.381 . S
C1006 H1033 0.931 . S
C1007 C1006 1.381 . S
C1007 C1008 1.321 . S
C1008 C1007 1.321 . S
C1008 C1009 1.403 . S
C1008 H1034 0.934 . S
C1009 C1004 1.413 . S
C1009 C1008 1.403 . S
C1009 H1035 0.930 . S
C1010 O1024 1.275 . S
C1010 O1025 1.256 . S
C1011 O1026 1.259 . S
C1011 O1027 1.268 . S
C1012 Ho1001 2.811 . S
C1012 C1013 1.488 . S
C1012 O1028 1.215 . S
C1012 O1029 1.289 . S
C1013 C1012 1.488 . S
C1013 C1014 1.348 . S
C1013 C1018 1.413 . S
C1014 C1013 1.348 . S
C1014 C1015 1.442 . S
C1014 H1036 0.930 . S
C1015 C1014 1.442 . S
C1015 C1016 1.381 . S
C1015 H1037 0.931 . S
C1016 C1015 1.381 . S
C1016 C1017 1.321 . S
C1017 C1016 1.321 . S
C1017 C1018 1.403 . S
C1017 H1038 0.934 . S
C1018 C1013 1.413 . S
C1018 C1017 1.403 . S
C1018 H1039 0.930 . S
C1019 O1030 1.275 . S
C1019 O1031 1.256 . S
O1020 Ho1000 2.322 . S
O1020 C1002 1.259 . S
O1021 Ho1001 2.346 . S
O1021 C1002 1.268 . S
O1022 Ho1000 2.378 . S
O1022 C1003 1.215 . S
O1023 Ho1000 2.524 . S
O1023 C1003 1.289 . S
O1024 Ho1000 2.381 . S
O1024 C1010 1.275 . S
O1025 Ho1000 2.669 . S
O1025 Ho1001 2.305 . S
O1025 C1010 1.256 . S
O1026 Ho1001 2.322 . S
O1026 C1011 1.259 . S
O1027 Ho1000 2.346 . S
O1027 C1011 1.268 . S
O1028 Ho1001 2.378 . S
O1028 C1012 1.215 . S
O1029 Ho1001 2.524 . S
O1029 C1012 1.289 . S
O1030 Ho1001 2.381 . S
O1030 C1019 1.275 . S
O1031 Ho1000 2.305 . S
O1031 Ho1001 2.669 . S
O1031 C1019 1.256 . S
H1032 C1005 0.930 . S
H1033 C1006 0.931 . S
H1034 C1008 0.934 . S
H1035 C1009 0.930 . S
H1036 C1014 0.930 . S
H1037 C1015 0.931 . S
H1038 C1017 0.934 . S
H1039 C1018 0.930 . S
Ho1040 C1043 2.811 . S
Ho1040 O1060 2.322 . S
Ho1040 O1062 2.378 . S
Ho1040 O1063 2.524 . S
Ho1040 O1064 2.381 . S
Ho1040 O1065 2.669 . S
Ho1040 O1067 2.346 . S
Ho1040 O1071 2.305 . S
Ho1041 C1052 2.811 . S
Ho1041 O1061 2.346 . S
Ho1041 O1065 2.305 . S
Ho1041 O1066 2.322 . S
Ho1041 O1068 2.378 . S
Ho1041 O1069 2.524 . S
Ho1041 O1070 2.381 . S
Ho1041 O1071 2.669 . S
C1042 O1060 1.259 . S
C1042 O1061 1.268 . S
C1043 Ho1040 2.811 . S
C1043 C1044 1.488 . S
C1043 O1062 1.215 . S
C1043 O1063 1.289 . S
C1044 C1043 1.488 . S
C1044 C1045 1.348 . S
C1044 C1049 1.413 . S
C1045 C1044 1.348 . S
C1045 C1046 1.442 . S
C1045 H1072 0.930 . S
C1046 C1045 1.442 . S
C1046 C1047 1.381 . S
C1046 H1073 0.931 . S
C1047 C1046 1.381 . S
C1047 C1048 1.321 . S
C1048 C1047 1.321 . S
C1048 C1049 1.403 . S
C1048 H1074 0.934 . S
C1049 C1044 1.413 . S
C1049 C1048 1.403 . S
C1049 H1075 0.930 . S
C1050 O1064 1.275 . S
C1050 O1065 1.256 . S
C1051 O1066 1.259 . S
C1051 O1067 1.268 . S
C1052 Ho1041 2.811 . S
C1052 C1053 1.488 . S
C1052 O1068 1.215 . S
C1052 O1069 1.289 . S
C1053 C1052 1.488 . S
C1053 C1054 1.348 . S
C1053 C1058 1.413 . S
C1054 C1053 1.348 . S
C1054 C1055 1.442 . S
C1054 H1076 0.930 . S
C1055 C1054 1.442 . S
C1055 C1056 1.381 . S
C1055 H1077 0.931 . S
C1056 C1055 1.381 . S
C1056 C1057 1.321 . S
C1057 C1056 1.321 . S
C1057 C1058 1.403 . S
C1057 H1078 0.934 . S
C1058 C1053 1.413 . S
C1058 C1057 1.403 . S
C1058 H1079 0.930 . S
C1059 O1070 1.275 . S
C1059 O1071 1.256 . S
O1060 Ho1040 2.322 . S
O1060 C1042 1.259 . S
O1061 Ho1041 2.346 . S
O1061 C1042 1.268 . S
O1062 Ho1040 2.378 . S
O1062 C1043 1.215 . S
O1063 Ho1040 2.524 . S
O1063 C1043 1.289 . S
O1064 Ho1040 2.381 . S
O1064 C1050 1.275 . S
O1065 Ho1040 2.669 . S
O1065 Ho1041 2.305 . S
O1065 C1050 1.256 . S
O1066 Ho1041 2.322 . S
O1066 C1051 1.259 . S
O1067 Ho1040 2.346 . S
O1067 C1051 1.268 . S
O1068 Ho1041 2.378 . S
O1068 C1052 1.215 . S
O1069 Ho1041 2.524 . S
O1069 C1052 1.289 . S
O1070 Ho1041 2.381 . S
O1070 C1059 1.275 . S
O1071 Ho1040 2.305 . S
O1071 Ho1041 2.669 . S
O1071 C1059 1.256 . S
H1072 C1045 0.930 . S
H1073 C1046 0.931 . S
H1074 C1048 0.934 . S
H1075 C1049 0.930 . S
H1076 C1054 0.930 . S
H1077 C1055 0.931 . S
H1078 C1057 0.934 . S
H1079 C1058 0.930 . S
Ho1080 C1083 2.811 . S
Ho1080 O1100 2.322 . S
Ho1080 O1102 2.378 . S
Ho1080 O1103 2.524 . S
Ho1080 O1104 2.381 . S
Ho1080 O1105 2.669 . S
Ho1080 O1107 2.346 . S
Ho1080 O1111 2.305 . S
Ho1081 C1092 2.811 1_455 S
Ho1081 O1101 2.346 . S
Ho1081 O1105 2.305 . S
Ho1081 O1106 2.322 . S
Ho1081 O1108 2.378 1_455 S
Ho1081 O1109 2.524 1_455 S
Ho1081 O1110 2.381 . S
Ho1081 O1111 2.669 . S
C1082 O1100 1.259 . S
C1082 O1101 1.268 . S
C1083 Ho1080 2.811 . S
C1083 C1084 1.488 . S
C1083 O1102 1.215 . S
C1083 O1103 1.289 . S
C1084 C1083 1.488 . S
C1084 C1085 1.348 . S
C1084 C1089 1.413 . S
C1085 C1084 1.348 . S
C1085 C1086 1.442 . S
C1085 H1112 0.930 . S
C1086 C1085 1.442 . S
C1086 C1087 1.381 . S
C1086 H1113 0.931 . S
C1087 C1086 1.381 . S
C1087 C1088 1.321 . S
C1088 C1087 1.321 . S
C1088 C1089 1.403 . S
C1088 H1114 0.934 . S
C1089 C1084 1.413 . S
C1089 C1088 1.403 . S
C1089 H1115 0.930 . S
C1090 O1104 1.275 . S
C1090 O1105 1.256 . S
C1091 O1106 1.259 . S
C1091 O1107 1.268 . S
C1092 Ho1081 2.811 1_655 S
C1092 C1093 1.488 . S
C1092 O1108 1.215 . S
C1092 O1109 1.289 . S
C1093 C1092 1.488 . S
C1093 C1094 1.348 . S
C1093 C1098 1.413 . S
C1094 C1093 1.348 . S
C1094 C1095 1.442 . S
C1094 H1116 0.930 . S
C1095 C1094 1.442 . S
C1095 C1096 1.381 . S
C1095 H1117 0.931 . S
C1096 C1095 1.381 . S
C1096 C1097 1.321 . S
C1097 C1096 1.321 . S
C1097 C1098 1.403 . S
C1097 H1118 0.934 . S
C1098 C1093 1.413 . S
C1098 C1097 1.403 . S
C1098 H1119 0.930 . S
C1099 O1110 1.275 . S
C1099 O1111 1.256 . S
O1100 Ho1080 2.322 . S
O1100 C1082 1.259 . S
O1101 Ho1081 2.346 . S
O1101 C1082 1.268 . S
O1102 Ho1080 2.378 . S
O1102 C1083 1.215 . S
O1103 Ho1080 2.524 . S
O1103 C1083 1.289 . S
O1104 Ho1080 2.381 . S
O1104 C1090 1.275 . S
O1105 Ho1080 2.669 . S
O1105 Ho1081 2.305 . S
O1105 C1090 1.256 . S
O1106 Ho1081 2.322 . S
O1106 C1091 1.259 . S
O1107 Ho1080 2.346 . S
O1107 C1091 1.268 . S
O1108 Ho1081 2.378 1_655 S
O1108 C1092 1.215 . S
O1109 Ho1081 2.524 1_655 S
O1109 C1092 1.289 . S
O1110 Ho1081 2.381 . S
O1110 C1099 1.275 . S
O1111 Ho1080 2.305 . S
O1111 Ho1081 2.669 . S
O1111 C1099 1.256 . S
H1112 C1085 0.930 . S
H1113 C1086 0.931 . S
H1114 C1088 0.934 . S
H1115 C1089 0.930 . S
H1116 C1094 0.930 . S
H1117 C1095 0.931 . S
H1118 C1097 0.934 . S
H1119 C1098 0.930 . S
Ho1120 C1123 2.811 . S
Ho1120 O1140 2.322 . S
Ho1120 O1142 2.378 . S
Ho1120 O1143 2.524 . S
Ho1120 O1144 2.381 . S
Ho1120 O1145 2.669 . S
Ho1120 O1147 2.346 . S
Ho1120 O1151 2.305 . S
Ho1121 C1132 2.811 . S
Ho1121 O1141 2.346 . S
Ho1121 O1145 2.305 . S
Ho1121 O1146 2.322 . S
Ho1121 O1148 2.378 . S
Ho1121 O1149 2.524 . S
Ho1121 O1150 2.381 . S
Ho1121 O1151 2.669 . S
C1122 O1140 1.259 . S
C1122 O1141 1.268 . S
C1123 Ho1120 2.811 . S
C1123 C1124 1.488 . S
C1123 O1142 1.215 . S
C1123 O1143 1.289 . S
C1124 C1123 1.488 . S
C1124 C1125 1.348 . S
C1124 C1129 1.413 . S
C1125 C1124 1.348 . S
C1125 C1126 1.442 . S
C1125 H1152 0.930 . S
C1126 C1125 1.442 . S
C1126 C1127 1.381 . S
C1126 H1153 0.931 . S
C1127 C1126 1.381 . S
C1127 C1128 1.321 . S
C1128 C1127 1.321 . S
C1128 C1129 1.403 . S
C1128 H1154 0.934 . S
C1129 C1124 1.413 . S
C1129 C1128 1.403 . S
C1129 H1155 0.930 . S
C1130 O1144 1.275 . S
C1130 O1145 1.256 . S
C1131 O1146 1.259 . S
C1131 O1147 1.268 . S
C1132 Ho1121 2.811 . S
C1132 C1133 1.488 . S
C1132 O1148 1.215 . S
C1132 O1149 1.289 . S
C1133 C1132 1.488 . S
C1133 C1134 1.348 . S
C1133 C1138 1.413 . S
C1134 C1133 1.348 . S
C1134 C1135 1.442 . S
C1134 H1156 0.930 . S
C1135 C1134 1.442 . S
C1135 C1136 1.381 . S
C1135 H1157 0.931 . S
C1136 C1135 1.381 . S
C1136 C1137 1.321 . S
C1137 C1136 1.321 . S
C1137 C1138 1.403 . S
C1137 H1158 0.934 . S
C1138 C1133 1.413 . S
C1138 C1137 1.403 . S
C1138 H1159 0.930 . S
C1139 O1150 1.275 . S
C1139 O1151 1.256 . S
O1140 Ho1120 2.322 . S
O1140 C1122 1.259 . S
O1141 Ho1121 2.346 . S
O1141 C1122 1.268 . S
O1142 Ho1120 2.378 . S
O1142 C1123 1.215 . S
O1143 Ho1120 2.524 . S
O1143 C1123 1.289 . S
O1144 Ho1120 2.381 . S
O1144 C1130 1.275 . S
O1145 Ho1120 2.669 . S
O1145 Ho1121 2.305 . S
O1145 C1130 1.256 . S
O1146 Ho1121 2.322 . S
O1146 C1131 1.259 . S
O1147 Ho1120 2.346 . S
O1147 C1131 1.268 . S
O1148 Ho1121 2.378 . S
O1148 C1132 1.215 . S
O1149 Ho1121 2.524 . S
O1149 C1132 1.289 . S
O1150 Ho1121 2.381 . S
O1150 C1139 1.275 . S
O1151 Ho1120 2.305 . S
O1151 Ho1121 2.669 . S
O1151 C1139 1.256 . S
H1152 C1125 0.930 . S
H1153 C1126 0.931 . S
H1154 C1128 0.934 . S
H1155 C1129 0.930 . S
H1156 C1134 0.930 . S
H1157 C1135 0.931 . S
H1158 C1137 0.934 . S
H1159 C1138 0.930 . S
Ho1160 C1163 2.811 . S
Ho1160 O1180 2.322 . S
Ho1160 O1182 2.378 . S
Ho1160 O1183 2.524 . S
Ho1160 O1184 2.381 . S
Ho1160 O1185 2.669 . S
Ho1160 O1187 2.346 . S
Ho1160 O1191 2.305 . S
Ho1161 C1172 2.811 1_455 S
Ho1161 O1181 2.346 . S
Ho1161 O1185 2.305 . S
Ho1161 O1186 2.322 . S
Ho1161 O1188 2.378 1_455 S
Ho1161 O1189 2.524 1_455 S
Ho1161 O1190 2.381 . S
Ho1161 O1191 2.669 . S
C1162 O1180 1.259 . S
C1162 O1181 1.268 . S
C1163 Ho1160 2.811 . S
C1163 C1164 1.488 . S
C1163 O1182 1.215 . S
C1163 O1183 1.289 . S
C1164 C1163 1.488 . S
C1164 C1165 1.348 . S
C1164 C1169 1.413 . S
C1165 C1164 1.348 . S
C1165 C1166 1.442 . S
C1165 H1192 0.930 . S
C1166 C1165 1.442 . S
C1166 C1167 1.381 . S
C1166 H1193 0.931 . S
C1167 C1166 1.381 . S
C1167 C1168 1.321 . S
C1168 C1167 1.321 . S
C1168 C1169 1.403 . S
C1168 H1194 0.934 . S
C1169 C1164 1.413 . S
C1169 C1168 1.403 . S
C1169 H1195 0.930 . S
C1170 O1184 1.275 . S
C1170 O1185 1.256 . S
C1171 O1186 1.259 . S
C1171 O1187 1.268 . S
C1172 Ho1161 2.811 1_655 S
C1172 C1173 1.488 . S
C1172 O1188 1.215 . S
C1172 O1189 1.289 . S
C1173 C1172 1.488 . S
C1173 C1174 1.348 . S
C1173 C1178 1.413 . S
C1174 C1173 1.348 . S
C1174 C1175 1.442 . S
C1174 H1196 0.930 . S
C1175 C1174 1.442 . S
C1175 C1176 1.381 . S
C1175 H1197 0.931 . S
C1176 C1175 1.381 . S
C1176 C1177 1.321 . S
C1177 C1176 1.321 . S
C1177 C1178 1.403 . S
C1177 H1198 0.934 . S
C1178 C1173 1.413 . S
C1178 C1177 1.403 . S
C1178 H1199 0.930 . S
C1179 O1190 1.275 . S
C1179 O1191 1.256 . S
O1180 Ho1160 2.322 . S
O1180 C1162 1.259 . S
O1181 Ho1161 2.346 . S
O1181 C1162 1.268 . S
O1182 Ho1160 2.378 . S
O1182 C1163 1.215 . S
O1183 Ho1160 2.524 . S
O1183 C1163 1.289 . S
O1184 Ho1160 2.381 . S
O1184 C1170 1.275 . S
O1185 Ho1160 2.669 . S
O1185 Ho1161 2.305 . S
O1185 C1170 1.256 . S
O1186 Ho1161 2.322 . S
O1186 C1171 1.259 . S
O1187 Ho1160 2.346 . S
O1187 C1171 1.268 . S
O1188 Ho1161 2.378 1_655 S
O1188 C1172 1.215 . S
O1189 Ho1161 2.524 1_655 S
O1189 C1172 1.289 . S
O1190 Ho1161 2.381 . S
O1190 C1179 1.275 . S
O1191 Ho1160 2.305 . S
O1191 Ho1161 2.669 . S
O1191 C1179 1.256 . S
H1192 C1165 0.930 . S
H1193 C1166 0.931 . S
H1194 C1168 0.934 . S
H1195 C1169 0.930 . S
H1196 C1174 0.930 . S
H1197 C1175 0.931 . S
H1198 C1177 0.934 . S
H1199 C1178 0.930 . S
Ho1200 C1203 2.811 . S
Ho1200 O1220 2.322 . S
Ho1200 O1222 2.378 . S
Ho1200 O1223 2.524 . S
Ho1200 O1224 2.381 . S
Ho1200 O1225 2.669 . S
Ho1200 O1227 2.346 . S
Ho1200 O1231 2.305 . S
Ho1201 C1212 2.811 . S
Ho1201 O1221 2.346 . S
Ho1201 O1225 2.305 . S
Ho1201 O1226 2.322 . S
Ho1201 O1228 2.378 . S
Ho1201 O1229 2.524 . S
Ho1201 O1230 2.381 . S
Ho1201 O1231 2.669 . S
C1202 O1220 1.259 . S
C1202 O1221 1.268 . S
C1203 Ho1200 2.811 . S
C1203 C1204 1.488 . S
C1203 O1222 1.215 . S
C1203 O1223 1.289 . S
C1204 C1203 1.488 . S
C1204 C1205 1.348 . S
C1204 C1209 1.413 . S
C1205 C1204 1.348 . S
C1205 C1206 1.442 . S
C1205 H1232 0.930 . S
C1206 C1205 1.442 . S
C1206 C1207 1.381 . S
C1206 H1233 0.931 . S
C1207 C1206 1.381 . S
C1207 C1208 1.321 . S
C1208 C1207 1.321 . S
C1208 C1209 1.403 . S
C1208 H1234 0.934 . S
C1209 C1204 1.413 . S
C1209 C1208 1.403 . S
C1209 H1235 0.930 . S
C1210 O1224 1.275 . S
C1210 O1225 1.256 . S
C1211 O1226 1.259 . S
C1211 O1227 1.268 . S
C1212 Ho1201 2.811 . S
C1212 C1213 1.488 . S
C1212 O1228 1.215 . S
C1212 O1229 1.289 . S
C1213 C1212 1.488 . S
C1213 C1214 1.348 . S
C1213 C1218 1.413 . S
C1214 C1213 1.348 . S
C1214 C1215 1.442 . S
C1214 H1236 0.930 . S
C1215 C1214 1.442 . S
C1215 C1216 1.381 . S
C1215 H1237 0.931 . S
C1216 C1215 1.381 . S
C1216 C1217 1.321 . S
C1217 C1216 1.321 . S
C1217 C1218 1.403 . S
C1217 H1238 0.934 . S
C1218 C1213 1.413 . S
C1218 C1217 1.403 . S
C1218 H1239 0.930 . S
C1219 O1230 1.275 . S
C1219 O1231 1.256 . S
O1220 Ho1200 2.322 . S
O1220 C1202 1.259 . S
O1221 Ho1201 2.346 . S
O1221 C1202 1.268 . S
O1222 Ho1200 2.378 . S
O1222 C1203 1.215 . S
O1223 Ho1200 2.524 . S
O1223 C1203 1.289 . S
O1224 Ho1200 2.381 . S
O1224 C1210 1.275 . S
O1225 Ho1200 2.669 . S
O1225 Ho1201 2.305 . S
O1225 C1210 1.256 . S
O1226 Ho1201 2.322 . S
O1226 C1211 1.259 . S
O1227 Ho1200 2.346 . S
O1227 C1211 1.268 . S
O1228 Ho1201 2.378 . S
O1228 C1212 1.215 . S
O1229 Ho1201 2.524 . S
O1229 C1212 1.289 . S
O1230 Ho1201 2.381 . S
O1230 C1219 1.275 . S
O1231 Ho1200 2.305 . S
O1231 Ho1201 2.669 . S
O1231 C1219 1.256 . S
H1232 C1205 0.930 . S
H1233 C1206 0.931 . S
H1234 C1208 0.934 . S
H1235 C1209 0.930 . S
H1236 C1214 0.930 . S
H1237 C1215 0.931 . S
H1238 C1217 0.934 . S
H1239 C1218 0.930 . S
Ho1240 C1243 2.811 . S
Ho1240 O1260 2.322 . S
Ho1240 O1262 2.378 . S
Ho1240 O1263 2.524 . S
Ho1240 O1264 2.381 . S
Ho1240 O1265 2.669 . S
Ho1240 O1267 2.346 . S
Ho1240 O1271 2.305 . S
Ho1241 C1252 2.811 . S
Ho1241 O1261 2.346 . S
Ho1241 O1265 2.305 . S
Ho1241 O1266 2.322 . S
Ho1241 O1268 2.378 . S
Ho1241 O1269 2.524 . S
Ho1241 O1270 2.381 . S
Ho1241 O1271 2.669 . S
C1242 O1260 1.259 . S
C1242 O1261 1.268 . S
C1243 Ho1240 2.811 . S
C1243 C1244 1.488 . S
C1243 O1262 1.215 . S
C1243 O1263 1.289 . S
C1244 C1243 1.488 . S
C1244 C1245 1.348 . S
C1244 C1249 1.413 . S
C1245 C1244 1.348 . S
C1245 C1246 1.442 . S
C1245 H1272 0.930 . S
C1246 C1245 1.442 . S
C1246 C1247 1.381 . S
C1246 H1273 0.931 . S
C1247 C1246 1.381 . S
C1247 C1248 1.321 . S
C1248 C1247 1.321 . S
C1248 C1249 1.403 . S
C1248 H1274 0.934 . S
C1249 C1244 1.413 . S
C1249 C1248 1.403 . S
C1249 H1275 0.930 . S
C1250 O1264 1.275 . S
C1250 O1265 1.256 . S
C1251 O1266 1.259 . S
C1251 O1267 1.268 . S
C1252 Ho1241 2.811 . S
C1252 C1253 1.488 . S
C1252 O1268 1.215 . S
C1252 O1269 1.289 . S
C1253 C1252 1.488 . S
C1253 C1254 1.348 . S
C1253 C1258 1.413 . S
C1254 C1253 1.348 . S
C1254 C1255 1.442 . S
C1254 H1276 0.930 . S
C1255 C1254 1.442 . S
C1255 C1256 1.381 . S
C1255 H1277 0.931 . S
C1256 C1255 1.381 . S
C1256 C1257 1.321 . S
C1257 C1256 1.321 . S
C1257 C1258 1.403 . S
C1257 H1278 0.934 . S
C1258 C1253 1.413 . S
C1258 C1257 1.403 . S
C1258 H1279 0.930 . S
C1259 O1270 1.275 . S
C1259 O1271 1.256 . S
O1260 Ho1240 2.322 . S
O1260 C1242 1.259 . S
O1261 Ho1241 2.346 . S
O1261 C1242 1.268 . S
O1262 Ho1240 2.378 . S
O1262 C1243 1.215 . S
O1263 Ho1240 2.524 . S
O1263 C1243 1.289 . S
O1264 Ho1240 2.381 . S
O1264 C1250 1.275 . S
O1265 Ho1240 2.669 . S
O1265 Ho1241 2.305 . S
O1265 C1250 1.256 . S
O1266 Ho1241 2.322 . S
O1266 C1251 1.259 . S
O1267 Ho1240 2.346 . S
O1267 C1251 1.268 . S
O1268 Ho1241 2.378 . S
O1268 C1252 1.215 . S
O1269 Ho1241 2.524 . S
O1269 C1252 1.289 . S
O1270 Ho1241 2.381 . S
O1270 C1259 1.275 . S
O1271 Ho1240 2.305 . S
O1271 Ho1241 2.669 . S
O1271 C1259 1.256 . S
H1272 C1245 0.930 . S
H1273 C1246 0.931 . S
H1274 C1248 0.934 . S
H1275 C1249 0.930 . S
H1276 C1254 0.930 . S
H1277 C1255 0.931 . S
H1278 C1257 0.934 . S
H1279 C1258 0.930 . S
H1280 C1298 0.951 . S
H1281 C1300 0.951 . S
H1282 C1302 0.950 . S
H1283 C1303 0.950 . S
H1284 C1305 0.950 . S
H1285 C1308 0.950 . S
H1286 C1309 0.950 . S
H1287 C1311 0.950 . S
H1288 C1312 0.950 . S
H1289 C1313 0.951 . S
H1290 C1315 0.951 . S
H1291 C1317 0.950 . S
H1292 C1318 0.950 . S
H1293 C1320 0.950 . S
H1294 C1323 0.950 . S
H1295 C1324 0.950 . S
H1296 C1326 0.950 . S
H1297 C1327 0.950 . S
C1298 H1280 0.951 . S
C1298 C1299 1.366 . S
C1298 C1300 1.388 . S
C1299 C1298 1.366 . S
C1299 C1303 1.385 . S
C1300 H1281 0.951 . S
C1300 C1298 1.388 . S
C1300 C1301 1.366 . S
C1301 C1300 1.366 . S
C1301 C1302 1.414 . S
C1301 C1304 1.499 . S
C1302 H1282 0.950 . S
C1302 C1301 1.414 . S
C1302 C1303 1.374 . S
C1303 H1283 0.950 . S
C1303 C1299 1.385 . S
C1303 C1302 1.374 . S
C1304 C1301 1.499 . S
C1304 C1305 1.373 . S
C1304 C1306 1.389 . S
C1305 H1284 0.950 . S
C1305 C1304 1.373 . S
C1305 C1321 1.377 . S
C1306 C1304 1.389 . S
C1306 C1307 1.524 . S
C1306 C1320 1.377 . S
C1307 C1306 1.524 . S
C1307 C1308 1.397 . S
C1307 C1312 1.363 . S
C1308 H1285 0.950 . S
C1308 C1307 1.397 . S
C1308 C1309 1.334 . S
C1309 H1286 0.950 . S
C1309 C1308 1.334 . S
C1309 C1310 1.287 . S
C1310 C1309 1.287 . S
C1310 C1311 1.524 . S
C1310 H1329 0.913 . S
C1311 H1287 0.950 . S
C1311 C1310 1.524 . S
C1311 C1312 1.415 . S
C1312 H1288 0.950 . S
C1312 C1307 1.363 . S
C1312 C1311 1.415 . S
C1313 H1289 0.951 . S
C1313 C1314 1.366 . S
C1313 C1315 1.388 . S
C1314 C1313 1.366 . S
C1314 C1318 1.385 . S
C1315 H1290 0.951 . S
C1315 C1313 1.388 . S
C1315 C1316 1.366 . S
C1316 C1315 1.366 . S
C1316 C1317 1.414 . S
C1316 C1319 1.499 . S
C1317 H1291 0.950 . S
C1317 C1316 1.414 . S
C1317 C1318 1.374 . S
C1318 H1292 0.950 . S
C1318 C1314 1.385 . S
C1318 C1317 1.374 . S
C1319 C1316 1.499 . S
C1319 C1320 1.373 . S
C1319 C1321 1.389 . S
C1320 H1293 0.950 . S
C1320 C1306 1.377 . S
C1320 C1319 1.373 . S
C1321 C1305 1.377 . S
C1321 C1319 1.389 . S
C1321 C1322 1.524 . S
C1322 C1321 1.524 . S
C1322 C1323 1.397 . S
C1322 C1327 1.363 . S
C1323 H1294 0.950 . S
C1323 C1322 1.397 . S
C1323 C1324 1.334 . S
C1324 H1295 0.950 . S
C1324 C1323 1.334 . S
C1324 C1325 1.287 . S
C1325 C1324 1.287 . S
C1325 C1326 1.524 . S
C1325 H1328 0.999 . S
C1326 H1296 0.950 . S
C1326 C1325 1.524 . S
C1326 C1327 1.415 . S
C1327 H1297 0.950 . S
C1327 C1322 1.363 . S
C1327 C1326 1.415 . S
H1328 C1325 0.999 . S
H1329 C1310 0.913 . S
H1330 C1348 0.951 . S
H1331 C1350 0.951 . S
H1332 C1352 0.950 . S
H1333 C1353 0.950 . S
H1334 C1355 0.950 . S
H1335 C1358 0.950 . S
H1336 C1359 0.950 . S
H1337 C1361 0.950 . S
H1338 C1362 0.950 . S
H1339 C1363 0.951 . S
H1340 C1365 0.951 . S
H1341 C1367 0.950 . S
H1342 C1368 0.950 . S
H1343 C1370 0.950 . S
H1344 C1373 0.950 . S
H1345 C1374 0.950 . S
H1346 C1376 0.950 . S
H1347 C1377 0.950 . S
C1348 H1330 0.951 . S
C1348 C1349 1.366 . S
C1348 C1350 1.388 . S
C1349 C1348 1.366 . S
C1349 C1353 1.385 . S
C1350 H1331 0.951 . S
C1350 C1348 1.388 . S
C1350 C1351 1.366 . S
C1351 C1350 1.366 . S
C1351 C1352 1.414 . S
C1351 C1354 1.499 . S
C1352 H1332 0.950 . S
C1352 C1351 1.414 . S
C1352 C1353 1.374 . S
C1353 H1333 0.950 . S
C1353 C1349 1.385 . S
C1353 C1352 1.374 . S
C1354 C1351 1.499 . S
C1354 C1355 1.373 . S
C1354 C1356 1.389 . S
C1355 H1334 0.950 . S
C1355 C1354 1.373 . S
C1355 C1371 1.377 . S
C1356 C1354 1.389 . S
C1356 C1357 1.524 . S
C1356 C1370 1.377 . S
C1357 C1356 1.524 . S
C1357 C1358 1.397 . S
C1357 C1362 1.363 . S
C1358 H1335 0.950 . S
C1358 C1357 1.397 . S
C1358 C1359 1.334 . S
C1359 H1336 0.950 . S
C1359 C1358 1.334 . S
C1359 C1360 1.287 . S
C1360 C1359 1.287 . S
C1360 C1361 1.524 . S
C1360 H1379 0.913 . S
C1361 H1337 0.950 . S
C1361 C1360 1.524 . S
C1361 C1362 1.415 . S
C1362 H1338 0.950 . S
C1362 C1357 1.363 . S
C1362 C1361 1.415 . S
C1363 H1339 0.951 . S
C1363 C1364 1.366 . S
C1363 C1365 1.388 . S
C1364 C1363 1.366 . S
C1364 C1368 1.385 . S
C1365 H1340 0.951 . S
C1365 C1363 1.388 . S
C1365 C1366 1.366 . S
C1366 C1365 1.366 . S
C1366 C1367 1.414 . S
C1366 C1369 1.499 . S
C1367 H1341 0.950 . S
C1367 C1366 1.414 . S
C1367 C1368 1.374 . S
C1368 H1342 0.950 . S
C1368 C1364 1.385 . S
C1368 C1367 1.374 . S
C1369 C1366 1.499 . S
C1369 C1370 1.373 . S
C1369 C1371 1.389 . S
C1370 H1343 0.950 . S
C1370 C1356 1.377 . S
C1370 C1369 1.373 . S
C1371 C1355 1.377 . S
C1371 C1369 1.389 . S
C1371 C1372 1.524 . S
C1372 C1371 1.524 . S
C1372 C1373 1.397 . S
C1372 C1377 1.363 . S
C1373 H1344 0.950 . S
C1373 C1372 1.397 . S
C1373 C1374 1.334 . S
C1374 H1345 0.950 . S
C1374 C1373 1.334 . S
C1374 C1375 1.287 . S
C1375 C1374 1.287 . S
C1375 C1376 1.524 . S
C1375 H1378 0.999 . S
C1376 H1346 0.950 . S
C1376 C1375 1.524 . S
C1376 C1377 1.415 . S
C1377 H1347 0.950 . S
C1377 C1372 1.363 . S
C1377 C1376 1.415 . S
H1378 C1375 0.999 . S
H1379 C1360 0.913 . S
H1380 C1398 0.951 . S
H1381 C1400 0.951 . S
H1382 C1402 0.950 . S
H1383 C1403 0.950 . S
H1384 C1405 0.950 . S
H1385 C1408 0.950 . S
H1386 C1409 0.950 . S
H1387 C1411 0.950 . S
H1388 C1412 0.950 . S
H1389 C1413 0.951 . S
H1390 C1415 0.951 . S
H1391 C1417 0.950 . S
H1392 C1418 0.950 . S
H1393 C1420 0.950 . S
H1394 C1423 0.950 . S
H1395 C1424 0.950 . S
H1396 C1426 0.950 . S
H1397 C1427 0.950 . S
C1398 H1380 0.951 . S
C1398 C1399 1.366 . S
C1398 C1400 1.388 . S
C1399 C1398 1.366 . S
C1399 C1403 1.385 . S
C1400 H1381 0.951 . S
C1400 C1398 1.388 . S
C1400 C1401 1.366 . S
C1401 C1400 1.366 . S
C1401 C1402 1.414 . S
C1401 C1404 1.499 . S
C1402 H1382 0.950 . S
C1402 C1401 1.414 . S
C1402 C1403 1.374 . S
C1403 H1383 0.950 . S
C1403 C1399 1.385 . S
C1403 C1402 1.374 . S
C1404 C1401 1.499 . S
C1404 C1405 1.373 . S
C1404 C1406 1.389 . S
C1405 H1384 0.950 . S
C1405 C1404 1.373 . S
C1405 C1421 1.377 . S
C1406 C1404 1.389 . S
C1406 C1407 1.524 . S
C1406 C1420 1.377 . S
C1407 C1406 1.524 . S
C1407 C1408 1.397 . S
C1407 C1412 1.363 . S
C1408 H1385 0.950 . S
C1408 C1407 1.397 . S
C1408 C1409 1.334 . S
C1409 H1386 0.950 . S
C1409 C1408 1.334 . S
C1409 C1410 1.287 . S
C1410 C1409 1.287 . S
C1410 C1411 1.524 . S
C1410 H1429 0.913 . S
C1411 H1387 0.950 . S
C1411 C1410 1.524 . S
C1411 C1412 1.415 . S
C1412 H1388 0.950 . S
C1412 C1407 1.363 . S
C1412 C1411 1.415 . S
C1413 H1389 0.951 . S
C1413 C1414 1.366 . S
C1413 C1415 1.388 . S
C1414 C1413 1.366 . S
C1414 C1418 1.385 . S
C1415 H1390 0.951 . S
C1415 C1413 1.388 . S
C1415 C1416 1.366 . S
C1416 C1415 1.366 . S
C1416 C1417 1.414 . S
C1416 C1419 1.499 . S
C1417 H1391 0.950 . S
C1417 C1416 1.414 . S
C1417 C1418 1.374 . S
C1418 H1392 0.950 . S
C1418 C1414 1.385 . S
C1418 C1417 1.374 . S
C1419 C1416 1.499 . S
C1419 C1420 1.373 . S
C1419 C1421 1.389 . S
C1420 H1393 0.950 . S
C1420 C1406 1.377 . S
C1420 C1419 1.373 . S
C1421 C1405 1.377 . S
C1421 C1419 1.389 . S
C1421 C1422 1.524 . S
C1422 C1421 1.524 . S
C1422 C1423 1.397 . S
C1422 C1427 1.363 . S
C1423 H1394 0.950 . S
C1423 C1422 1.397 . S
C1423 C1424 1.334 . S
C1424 H1395 0.950 . S
C1424 C1423 1.334 . S
C1424 C1425 1.287 . S
C1425 C1424 1.287 . S
C1425 C1426 1.524 . S
C1425 H1428 0.999 . S
C1426 H1396 0.950 . S
C1426 C1425 1.524 . S
C1426 C1427 1.415 . S
C1427 H1397 0.950 . S
C1427 C1422 1.363 . S
C1427 C1426 1.415 . S
H1428 C1425 0.999 . S
H1429 C1410 0.913 . S
H1430 C1448 0.951 . S
H1431 C1450 0.951 . S
H1432 C1452 0.950 . S
H1433 C1453 0.950 . S
H1434 C1455 0.950 . S
H1435 C1458 0.950 . S
H1436 C1459 0.950 . S
H1437 C1461 0.950 . S
H1438 C1462 0.950 . S
H1439 C1463 0.951 . S
H1440 C1465 0.951 . S
H1441 C1467 0.950 . S
H1442 C1468 0.950 . S
H1443 C1470 0.950 . S
H1444 C1473 0.950 . S
H1445 C1474 0.950 . S
H1446 C1476 0.950 . S
H1447 C1477 0.950 . S
C1448 H1430 0.951 . S
C1448 C1449 1.366 . S
C1448 C1450 1.388 . S
C1449 C1448 1.366 . S
C1449 C1453 1.385 . S
C1450 H1431 0.951 . S
C1450 C1448 1.388 . S
C1450 C1451 1.366 . S
C1451 C1450 1.366 . S
C1451 C1452 1.414 . S
C1451 C1454 1.499 . S
C1452 H1432 0.950 . S
C1452 C1451 1.414 . S
C1452 C1453 1.374 . S
C1453 H1433 0.950 . S
C1453 C1449 1.385 . S
C1453 C1452 1.374 . S
C1454 C1451 1.499 . S
C1454 C1455 1.373 . S
C1454 C1456 1.389 . S
C1455 H1434 0.950 . S
C1455 C1454 1.373 . S
C1455 C1471 1.377 . S
C1456 C1454 1.389 . S
C1456 C1457 1.524 . S
C1456 C1470 1.377 . S
C1457 C1456 1.524 . S
C1457 C1458 1.397 . S
C1457 C1462 1.363 . S
C1458 H1435 0.950 . S
C1458 C1457 1.397 . S
C1458 C1459 1.334 . S
C1459 H1436 0.950 . S
C1459 C1458 1.334 . S
C1459 C1460 1.287 . S
C1460 C1459 1.287 . S
C1460 C1461 1.524 . S
C1460 H1479 0.913 . S
C1461 H1437 0.950 . S
C1461 C1460 1.524 . S
C1461 C1462 1.415 . S
C1462 H1438 0.950 . S
C1462 C1457 1.363 . S
C1462 C1461 1.415 . S
C1463 H1439 0.951 . S
C1463 C1464 1.366 . S
C1463 C1465 1.388 . S
C1464 C1463 1.366 . S
C1464 C1468 1.385 . S
C1465 H1440 0.951 . S
C1465 C1463 1.388 . S
C1465 C1466 1.366 . S
C1466 C1465 1.366 . S
C1466 C1467 1.414 . S
C1466 C1469 1.499 . S
C1467 H1441 0.950 . S
C1467 C1466 1.414 . S
C1467 C1468 1.374 . S
C1468 H1442 0.950 . S
C1468 C1464 1.385 . S
C1468 C1467 1.374 . S
C1469 C1466 1.499 . S
C1469 C1470 1.373 . S
C1469 C1471 1.389 . S
C1470 H1443 0.950 . S
C1470 C1456 1.377 . S
C1470 C1469 1.373 . S
C1471 C1455 1.377 . S
C1471 C1469 1.389 . S
C1471 C1472 1.524 . S
C1472 C1471 1.524 . S
C1472 C1473 1.397 . S
C1472 C1477 1.363 . S
C1473 H1444 0.950 . S
C1473 C1472 1.397 . S
C1473 C1474 1.334 . S
C1474 H1445 0.950 . S
C1474 C1473 1.334 . S
C1474 C1475 1.287 . S
C1475 C1474 1.287 . S
C1475 C1476 1.524 . S
C1475 H1478 0.999 . S
C1476 H1446 0.950 . S
C1476 C1475 1.524 . S
C1476 C1477 1.415 . S
C1477 H1447 0.950 . S
C1477 C1472 1.363 . S
C1477 C1476 1.415 . S
H1478 C1475 0.999 . S
H1479 C1460 0.913 . S
H1480 C1498 0.951 . S
H1481 C1500 0.951 . S
H1482 C1502 0.950 . S
H1483 C1503 0.950 . S
H1484 C1505 0.950 . S
H1485 C1508 0.950 . S
H1486 C1509 0.950 . S
H1487 C1511 0.950 . S
H1488 C1512 0.950 . S
H1489 C1513 0.951 . S
H1490 C1515 0.951 . S
H1491 C1517 0.950 . S
H1492 C1518 0.950 . S
H1493 C1520 0.950 . S
H1494 C1523 0.950 . S
H1495 C1524 0.950 . S
H1496 C1526 0.950 . S
H1497 C1527 0.950 . S
C1498 H1480 0.951 . S
C1498 C1499 1.366 . S
C1498 C1500 1.388 . S
C1499 C1498 1.366 . S
C1499 C1503 1.385 . S
C1500 H1481 0.951 . S
C1500 C1498 1.388 . S
C1500 C1501 1.366 . S
C1501 C1500 1.366 . S
C1501 C1502 1.414 . S
C1501 C1504 1.499 . S
C1502 H1482 0.950 . S
C1502 C1501 1.414 . S
C1502 C1503 1.374 . S
C1503 H1483 0.950 . S
C1503 C1499 1.385 . S
C1503 C1502 1.374 . S
C1504 C1501 1.499 . S
C1504 C1505 1.373 . S
C1504 C1506 1.389 . S
C1505 H1484 0.950 . S
C1505 C1504 1.373 . S
C1505 C1521 1.377 . S
C1506 C1504 1.389 . S
C1506 C1507 1.524 . S
C1506 C1520 1.377 . S
C1507 C1506 1.524 . S
C1507 C1508 1.397 . S
C1507 C1512 1.363 . S
C1508 H1485 0.950 . S
C1508 C1507 1.397 . S
C1508 C1509 1.334 . S
C1509 H1486 0.950 . S
C1509 C1508 1.334 . S
C1509 C1510 1.287 . S
C1510 C1509 1.287 . S
C1510 C1511 1.524 . S
C1510 H1529 0.913 . S
C1511 H1487 0.950 . S
C1511 C1510 1.524 . S
C1511 C1512 1.415 . S
C1512 H1488 0.950 . S
C1512 C1507 1.363 . S
C1512 C1511 1.415 . S
C1513 H1489 0.951 . S
C1513 C1514 1.366 . S
C1513 C1515 1.388 . S
C1514 C1513 1.366 . S
C1514 C1518 1.385 . S
C1515 H1490 0.951 . S
C1515 C1513 1.388 . S
C1515 C1516 1.366 . S
C1516 C1515 1.366 . S
C1516 C1517 1.414 . S
C1516 C1519 1.499 . S
C1517 H1491 0.950 . S
C1517 C1516 1.414 . S
C1517 C1518 1.374 . S
C1518 H1492 0.950 . S
C1518 C1514 1.385 . S
C1518 C1517 1.374 . S
C1519 C1516 1.499 . S
C1519 C1520 1.373 . S
C1519 C1521 1.389 . S
C1520 H1493 0.950 . S
C1520 C1506 1.377 . S
C1520 C1519 1.373 . S
C1521 C1505 1.377 . S
C1521 C1519 1.389 . S
C1521 C1522 1.524 . S
C1522 C1521 1.524 . S
C1522 C1523 1.397 . S
C1522 C1527 1.363 . S
C1523 H1494 0.950 . S
C1523 C1522 1.397 . S
C1523 C1524 1.334 . S
C1524 H1495 0.950 . S
C1524 C1523 1.334 . S
C1524 C1525 1.287 . S
C1525 C1524 1.287 . S
C1525 C1526 1.524 . S
C1525 H1528 0.999 . S
C1526 H1496 0.950 . S
C1526 C1525 1.524 . S
C1526 C1527 1.415 . S
C1527 H1497 0.950 . S
C1527 C1522 1.363 . S
C1527 C1526 1.415 . S
H1528 C1525 0.999 . S
H1529 C1510 0.913 . S
H1530 C1548 0.951 . S
H1531 C1550 0.951 . S
H1532 C1552 0.950 . S
H1533 C1553 0.950 . S
H1534 C1555 0.950 . S
H1535 C1558 0.950 . S
H1536 C1559 0.950 . S
H1537 C1561 0.950 . S
H1538 C1562 0.950 . S
H1539 C1563 0.951 . S
H1540 C1565 0.951 . S
H1541 C1567 0.950 . S
H1542 C1568 0.950 . S
H1543 C1570 0.950 . S
H1544 C1573 0.950 . S
H1545 C1574 0.950 . S
H1546 C1576 0.950 . S
H1547 C1577 0.950 . S
C1548 H1530 0.951 . S
C1548 C1549 1.366 . S
C1548 C1550 1.388 . S
C1549 C1548 1.366 . S
C1549 C1553 1.385 . S
C1550 H1531 0.951 . S
C1550 C1548 1.388 . S
C1550 C1551 1.366 . S
C1551 C1550 1.366 . S
C1551 C1552 1.414 . S
C1551 C1554 1.499 . S
C1552 H1532 0.950 . S
C1552 C1551 1.414 . S
C1552 C1553 1.374 . S
C1553 H1533 0.950 . S
C1553 C1549 1.385 . S
C1553 C1552 1.374 . S
C1554 C1551 1.499 . S
C1554 C1555 1.373 . S
C1554 C1556 1.389 . S
C1555 H1534 0.950 . S
C1555 C1554 1.373 . S
C1555 C1571 1.377 . S
C1556 C1554 1.389 . S
C1556 C1557 1.524 . S
C1556 C1570 1.377 . S
C1557 C1556 1.524 . S
C1557 C1558 1.397 . S
C1557 C1562 1.363 . S
C1558 H1535 0.950 . S
C1558 C1557 1.397 . S
C1558 C1559 1.334 . S
C1559 H1536 0.950 . S
C1559 C1558 1.334 . S
C1559 C1560 1.287 . S
C1560 C1559 1.287 . S
C1560 C1561 1.524 . S
C1560 H1579 0.913 . S
C1561 H1537 0.950 . S
C1561 C1560 1.524 . S
C1561 C1562 1.415 . S
C1562 H1538 0.950 . S
C1562 C1557 1.363 . S
C1562 C1561 1.415 . S
C1563 H1539 0.951 . S
C1563 C1564 1.366 . S
C1563 C1565 1.388 . S
C1564 C1563 1.366 . S
C1564 C1568 1.385 . S
C1565 H1540 0.951 . S
C1565 C1563 1.388 . S
C1565 C1566 1.366 . S
C1566 C1565 1.366 . S
C1566 C1567 1.414 . S
C1566 C1569 1.499 . S
C1567 H1541 0.950 . S
C1567 C1566 1.414 . S
C1567 C1568 1.374 . S
C1568 H1542 0.950 . S
C1568 C1564 1.385 . S
C1568 C1567 1.374 . S
C1569 C1566 1.499 . S
C1569 C1570 1.373 . S
C1569 C1571 1.389 . S
C1570 H1543 0.950 . S
C1570 C1556 1.377 . S
C1570 C1569 1.373 . S
C1571 C1555 1.377 . S
C1571 C1569 1.389 . S
C1571 C1572 1.524 . S
C1572 C1571 1.524 . S
C1572 C1573 1.397 . S
C1572 C1577 1.363 . S
C1573 H1544 0.950 . S
C1573 C1572 1.397 . S
C1573 C1574 1.334 . S
C1574 H1545 0.950 . S
C1574 C1573 1.334 . S
C1574 C1575 1.287 . S
C1575 C1574 1.287 . S
C1575 C1576 1.524 . S
C1575 H1578 0.999 . S
C1576 H1546 0.950 . S
C1576 C1575 1.524 . S
C1576 C1577 1.415 . S
C1577 H1547 0.950 . S
C1577 C1572 1.363 . S
C1577 C1576 1.415 . S
H1578 C1575 0.999 . S
H1579 C1560 0.913 . S
H1580 C1598 0.951 . S
H1581 C1600 0.951 . S
H1582 C1602 0.950 . S
H1583 C1603 0.950 . S
H1584 C1605 0.950 . S
H1585 C1608 0.950 . S
H1586 C1609 0.950 . S
H1587 C1611 0.950 . S
H1588 C1612 0.950 . S
H1589 C1613 0.951 . S
H1590 C1615 0.951 . S
H1591 C1617 0.950 . S
H1592 C1618 0.950 . S
H1593 C1620 0.950 . S
H1594 C1623 0.950 . S
H1595 C1624 0.950 . S
H1596 C1626 0.950 . S
H1597 C1627 0.950 . S
C1598 H1580 0.951 . S
C1598 C1599 1.366 . S
C1598 C1600 1.388 . S
C1599 C1598 1.366 . S
C1599 C1603 1.385 . S
C1600 H1581 0.951 . S
C1600 C1598 1.388 . S
C1600 C1601 1.366 . S
C1601 C1600 1.366 . S
C1601 C1602 1.414 . S
C1601 C1604 1.499 . S
C1602 H1582 0.950 . S
C1602 C1601 1.414 . S
C1602 C1603 1.374 . S
C1603 H1583 0.950 . S
C1603 C1599 1.385 . S
C1603 C1602 1.374 . S
C1604 C1601 1.499 . S
C1604 C1605 1.373 . S
C1604 C1606 1.389 . S
C1605 H1584 0.950 . S
C1605 C1604 1.373 . S
C1605 C1621 1.377 . S
C1606 C1604 1.389 . S
C1606 C1607 1.524 . S
C1606 C1620 1.377 . S
C1607 C1606 1.524 . S
C1607 C1608 1.397 . S
C1607 C1612 1.363 . S
C1608 H1585 0.950 . S
C1608 C1607 1.397 . S
C1608 C1609 1.334 . S
C1609 H1586 0.950 . S
C1609 C1608 1.334 . S
C1609 C1610 1.287 . S
C1610 C1609 1.287 . S
C1610 C1611 1.524 . S
C1610 H1629 0.913 . S
C1611 H1587 0.950 . S
C1611 C1610 1.524 . S
C1611 C1612 1.415 . S
C1612 H1588 0.950 . S
C1612 C1607 1.363 . S
C1612 C1611 1.415 . S
C1613 H1589 0.951 . S
C1613 C1614 1.366 . S
C1613 C1615 1.388 . S
C1614 C1613 1.366 . S
C1614 C1618 1.385 . S
C1615 H1590 0.951 . S
C1615 C1613 1.388 . S
C1615 C1616 1.366 . S
C1616 C1615 1.366 . S
C1616 C1617 1.414 . S
C1616 C1619 1.499 . S
C1617 H1591 0.950 . S
C1617 C1616 1.414 . S
C1617 C1618 1.374 . S
C1618 H1592 0.950 . S
C1618 C1614 1.385 . S
C1618 C1617 1.374 . S
C1619 C1616 1.499 . S
C1619 C1620 1.373 . S
C1619 C1621 1.389 . S
C1620 H1593 0.950 . S
C1620 C1606 1.377 . S
C1620 C1619 1.373 . S
C1621 C1605 1.377 . S
C1621 C1619 1.389 . S
C1621 C1622 1.524 . S
C1622 C1621 1.524 . S
C1622 C1623 1.397 . S
C1622 C1627 1.363 . S
C1623 H1594 0.950 . S
C1623 C1622 1.397 . S
C1623 C1624 1.334 . S
C1624 H1595 0.950 . S
C1624 C1623 1.334 . S
C1624 C1625 1.287 . S
C1625 C1624 1.287 . S
C1625 C1626 1.524 . S
C1625 H1628 0.999 . S
C1626 H1596 0.950 . S
C1626 C1625 1.524 . S
C1626 C1627 1.415 . S
C1627 H1597 0.950 . S
C1627 C1622 1.363 . S
C1627 C1626 1.415 . S
H1628 C1625 0.999 . S
H1629 C1610 0.913 . S
H1630 C1648 0.951 . S
H1631 C1650 0.951 . S
H1632 C1652 0.950 . S
H1633 C1653 0.950 . S
H1634 C1655 0.950 . S
H1635 C1658 0.950 . S
H1636 C1659 0.950 . S
H1637 C1661 0.950 . S
H1638 C1662 0.950 . S
H1639 C1663 0.951 . S
H1640 C1665 0.951 . S
H1641 C1667 0.950 . S
H1642 C1668 0.950 . S
H1643 C1670 0.950 . S
H1644 C1673 0.950 . S
H1645 C1674 0.950 . S
H1646 C1676 0.950 . S
H1647 C1677 0.950 . S
C1648 H1630 0.951 . S
C1648 C1649 1.366 . S
C1648 C1650 1.388 . S
C1649 C1648 1.366 . S
C1649 C1653 1.385 . S
C1650 H1631 0.951 . S
C1650 C1648 1.388 . S
C1650 C1651 1.366 . S
C1651 C1650 1.366 . S
C1651 C1652 1.414 . S
C1651 C1654 1.499 . S
C1652 H1632 0.950 . S
C1652 C1651 1.414 . S
C1652 C1653 1.374 . S
C1653 H1633 0.950 . S
C1653 C1649 1.385 . S
C1653 C1652 1.374 . S
C1654 C1651 1.499 . S
C1654 C1655 1.373 . S
C1654 C1656 1.389 . S
C1655 H1634 0.950 . S
C1655 C1654 1.373 . S
C1655 C1671 1.377 . S
C1656 C1654 1.389 . S
C1656 C1657 1.524 . S
C1656 C1670 1.377 . S
C1657 C1656 1.524 . S
C1657 C1658 1.397 . S
C1657 C1662 1.363 . S
C1658 H1635 0.950 . S
C1658 C1657 1.397 . S
C1658 C1659 1.334 . S
C1659 H1636 0.950 . S
C1659 C1658 1.334 . S
C1659 C1660 1.287 . S
C1660 C1659 1.287 . S
C1660 C1661 1.524 . S
C1660 H1679 0.913 . S
C1661 H1637 0.950 . S
C1661 C1660 1.524 . S
C1661 C1662 1.415 . S
C1662 H1638 0.950 . S
C1662 C1657 1.363 . S
C1662 C1661 1.415 . S
C1663 H1639 0.951 . S
C1663 C1664 1.366 . S
C1663 C1665 1.388 . S
C1664 C1663 1.366 . S
C1664 C1668 1.385 . S
C1665 H1640 0.951 . S
C1665 C1663 1.388 . S
C1665 C1666 1.366 . S
C1666 C1665 1.366 . S
C1666 C1667 1.414 . S
C1666 C1669 1.499 . S
C1667 H1641 0.950 . S
C1667 C1666 1.414 . S
C1667 C1668 1.374 . S
C1668 H1642 0.950 . S
C1668 C1664 1.385 . S
C1668 C1667 1.374 . S
C1669 C1666 1.499 . S
C1669 C1670 1.373 . S
C1669 C1671 1.389 . S
C1670 H1643 0.950 . S
C1670 C1656 1.377 . S
C1670 C1669 1.373 . S
C1671 C1655 1.377 . S
C1671 C1669 1.389 . S
C1671 C1672 1.524 . S
C1672 C1671 1.524 . S
C1672 C1673 1.397 . S
C1672 C1677 1.363 . S
C1673 H1644 0.950 . S
C1673 C1672 1.397 . S
C1673 C1674 1.334 . S
C1674 H1645 0.950 . S
C1674 C1673 1.334 . S
C1674 C1675 1.287 . S
C1675 C1674 1.287 . S
C1675 C1676 1.524 . S
C1675 H1678 0.999 . S
C1676 H1646 0.950 . S
C1676 C1675 1.524 . S
C1676 C1677 1.415 . S
C1677 H1647 0.950 . S
C1677 C1672 1.363 . S
C1677 C1676 1.415 . S
H1678 C1675 0.999 . S
H1679 C1660 0.913 . S
H1680 C1698 0.951 . S
H1681 C1700 0.951 . S
H1682 C1702 0.950 . S
H1683 C1703 0.950 . S
H1684 C1705 0.950 . S
H1685 C1708 0.950 . S
H1686 C1709 0.950 . S
H1687 C1711 0.950 . S
H1688 C1712 0.950 . S
H1689 C1713 0.951 . S
H1690 C1715 0.951 . S
H1691 C1717 0.950 . S
H1692 C1718 0.950 . S
H1693 C1720 0.950 . S
H1694 C1723 0.950 . S
H1695 C1724 0.950 . S
H1696 C1726 0.950 . S
H1697 C1727 0.950 . S
C1698 H1680 0.951 . S
C1698 C1699 1.366 . S
C1698 C1700 1.388 . S
C1699 C1698 1.366 . S
C1699 C1703 1.385 . S
C1700 H1681 0.951 . S
C1700 C1698 1.388 . S
C1700 C1701 1.366 . S
C1701 C1700 1.366 . S
C1701 C1702 1.414 . S
C1701 C1704 1.499 . S
C1702 H1682 0.950 . S
C1702 C1701 1.414 . S
C1702 C1703 1.374 . S
C1703 H1683 0.950 . S
C1703 C1699 1.385 . S
C1703 C1702 1.374 . S
C1704 C1701 1.499 . S
C1704 C1705 1.373 . S
C1704 C1706 1.389 . S
C1705 H1684 0.950 . S
C1705 C1704 1.373 . S
C1705 C1721 1.377 . S
C1706 C1704 1.389 . S
C1706 C1707 1.524 . S
C1706 C1720 1.377 . S
C1707 C1706 1.524 . S
C1707 C1708 1.397 . S
C1707 C1712 1.363 . S
C1708 H1685 0.950 . S
C1708 C1707 1.397 . S
C1708 C1709 1.334 . S
C1709 H1686 0.950 . S
C1709 C1708 1.334 . S
C1709 C1710 1.287 . S
C1710 C1709 1.287 . S
C1710 C1711 1.524 . S
C1710 H1729 0.913 . S
C1711 H1687 0.950 . S
C1711 C1710 1.524 . S
C1711 C1712 1.415 . S
C1712 H1688 0.950 . S
C1712 C1707 1.363 . S
C1712 C1711 1.415 . S
C1713 H1689 0.951 . S
C1713 C1714 1.366 . S
C1713 C1715 1.388 . S
C1714 C1713 1.366 . S
C1714 C1718 1.385 . S
C1715 H1690 0.951 . S
C1715 C1713 1.388 . S
C1715 C1716 1.366 . S
C1716 C1715 1.366 . S
C1716 C1717 1.414 . S
C1716 C1719 1.499 . S
C1717 H1691 0.950 . S
C1717 C1716 1.414 . S
C1717 C1718 1.374 . S
C1718 H1692 0.950 . S
C1718 C1714 1.385 . S
C1718 C1717 1.374 . S
C1719 C1716 1.499 . S
C1719 C1720 1.373 . S
C1719 C1721 1.389 . S
C1720 H1693 0.950 . S
C1720 C1706 1.377 . S
C1720 C1719 1.373 . S
C1721 C1705 1.377 . S
C1721 C1719 1.389 . S
C1721 C1722 1.524 . S
C1722 C1721 1.524 . S
C1722 C1723 1.397 . S
C1722 C1727 1.363 . S
C1723 H1694 0.950 . S
C1723 C1722 1.397 . S
C1723 C1724 1.334 . S
C1724 H1695 0.950 . S
C1724 C1723 1.334 . S
C1724 C1725 1.287 . S
C1725 C1724 1.287 . S
C1725 C1726 1.524 . S
C1725 H1728 0.999 . S
C1726 H1696 0.950 . S
C1726 C1725 1.524 . S
C1726 C1727 1.415 . S
C1727 H1697 0.950 . S
C1727 C1722 1.363 . S
C1727 C1726 1.415 . S
H1728 C1725 0.999 . S
H1729 C1710 0.913 . S
H1730 C1748 0.951 . S
H1731 C1750 0.951 . S
H1732 C1752 0.950 . S
H1733 C1753 0.950 . S
H1734 C1755 0.950 . S
H1735 C1758 0.950 . S
H1736 C1759 0.950 . S
H1737 C1761 0.950 . S
H1738 C1762 0.950 . S
H1739 C1763 0.951 . S
H1740 C1765 0.951 . S
H1741 C1767 0.950 . S
H1742 C1768 0.950 . S
H1743 C1770 0.950 . S
H1744 C1773 0.950 . S
H1745 C1774 0.950 . S
H1746 C1776 0.950 . S
H1747 C1777 0.950 . S
C1748 H1730 0.951 . S
C1748 C1749 1.366 . S
C1748 C1750 1.388 . S
C1749 C1748 1.366 . S
C1749 C1753 1.385 . S
C1750 H1731 0.951 . S
C1750 C1748 1.388 . S
C1750 C1751 1.366 . S
C1751 C1750 1.366 . S
C1751 C1752 1.414 . S
C1751 C1754 1.499 . S
C1752 H1732 0.950 . S
C1752 C1751 1.414 . S
C1752 C1753 1.374 . S
C1753 H1733 0.950 . S
C1753 C1749 1.385 . S
C1753 C1752 1.374 . S
C1754 C1751 1.499 . S
C1754 C1755 1.373 . S
C1754 C1756 1.389 . S
C1755 H1734 0.950 . S
C1755 C1754 1.373 . S
C1755 C1771 1.377 . S
C1756 C1754 1.389 . S
C1756 C1757 1.524 . S
C1756 C1770 1.377 . S
C1757 C1756 1.524 . S
C1757 C1758 1.397 . S
C1757 C1762 1.363 . S
C1758 H1735 0.950 . S
C1758 C1757 1.397 . S
C1758 C1759 1.334 . S
C1759 H1736 0.950 . S
C1759 C1758 1.334 . S
C1759 C1760 1.287 . S
C1760 C1759 1.287 . S
C1760 C1761 1.524 . S
C1760 H1779 0.913 . S
C1761 H1737 0.950 . S
C1761 C1760 1.524 . S
C1761 C1762 1.415 . S
C1762 H1738 0.950 . S
C1762 C1757 1.363 . S
C1762 C1761 1.415 . S
C1763 H1739 0.951 . S
C1763 C1764 1.366 . S
C1763 C1765 1.388 . S
C1764 C1763 1.366 . S
C1764 C1768 1.385 . S
C1765 H1740 0.951 . S
C1765 C1763 1.388 . S
C1765 C1766 1.366 . S
C1766 C1765 1.366 . S
C1766 C1767 1.414 . S
C1766 C1769 1.499 . S
C1767 H1741 0.950 . S
C1767 C1766 1.414 . S
C1767 C1768 1.374 . S
C1768 H1742 0.950 . S
C1768 C1764 1.385 . S
C1768 C1767 1.374 . S
C1769 C1766 1.499 . S
C1769 C1770 1.373 . S
C1769 C1771 1.389 . S
C1770 H1743 0.950 . S
C1770 C1756 1.377 . S
C1770 C1769 1.373 . S
C1771 C1755 1.377 . S
C1771 C1769 1.389 . S
C1771 C1772 1.524 . S
C1772 C1771 1.524 . S
C1772 C1773 1.397 . S
C1772 C1777 1.363 . S
C1773 H1744 0.950 . S
C1773 C1772 1.397 . S
C1773 C1774 1.334 . S
C1774 H1745 0.950 . S
C1774 C1773 1.334 . S
C1774 C1775 1.287 . S
C1775 C1774 1.287 . S
C1775 C1776 1.524 . S
C1775 H1778 0.999 . S
C1776 H1746 0.950 . S
C1776 C1775 1.524 . S
C1776 C1777 1.415 . S
C1777 H1747 0.950 . S
C1777 C1772 1.363 . S
C1777 C1776 1.415 . S
H1778 C1775 0.999 . S
H1779 C1760 0.913 . S
H1780 C1798 0.951 . S
H1781 C1800 0.951 . S
H1782 C1802 0.950 . S
H1783 C1803 0.950 . S
H1784 C1805 0.950 . S
H1785 C1808 0.950 . S
H1786 C1809 0.950 . S
H1787 C1811 0.950 . S
H1788 C1812 0.950 . S
H1789 C1813 0.951 . S
H1790 C1815 0.951 . S
H1791 C1817 0.950 . S
H1792 C1818 0.950 . S
H1793 C1820 0.950 . S
H1794 C1823 0.950 . S
H1795 C1824 0.950 . S
H1796 C1826 0.950 . S
H1797 C1827 0.950 . S
C1798 H1780 0.951 . S
C1798 C1799 1.366 . S
C1798 C1800 1.388 . S
C1799 C1798 1.366 . S
C1799 C1803 1.385 . S
C1800 H1781 0.951 . S
C1800 C1798 1.388 . S
C1800 C1801 1.366 . S
C1801 C1800 1.366 . S
C1801 C1802 1.414 . S
C1801 C1804 1.499 . S
C1802 H1782 0.950 . S
C1802 C1801 1.414 . S
C1802 C1803 1.374 . S
C1803 H1783 0.950 . S
C1803 C1799 1.385 . S
C1803 C1802 1.374 . S
C1804 C1801 1.499 . S
C1804 C1805 1.373 . S
C1804 C1806 1.389 . S
C1805 H1784 0.950 . S
C1805 C1804 1.373 . S
C1805 C1821 1.377 . S
C1806 C1804 1.389 . S
C1806 C1807 1.524 . S
C1806 C1820 1.377 . S
C1807 C1806 1.524 . S
C1807 C1808 1.397 . S
C1807 C1812 1.363 . S
C1808 H1785 0.950 . S
C1808 C1807 1.397 . S
C1808 C1809 1.334 . S
C1809 H1786 0.950 . S
C1809 C1808 1.334 . S
C1809 C1810 1.287 . S
C1810 C1809 1.287 . S
C1810 C1811 1.524 . S
C1810 H1829 0.913 . S
C1811 H1787 0.950 . S
C1811 C1810 1.524 . S
C1811 C1812 1.415 . S
C1812 H1788 0.950 . S
C1812 C1807 1.363 . S
C1812 C1811 1.415 . S
C1813 H1789 0.951 . S
C1813 C1814 1.366 . S
C1813 C1815 1.388 . S
C1814 C1813 1.366 . S
C1814 C1818 1.385 . S
C1815 H1790 0.951 . S
C1815 C1813 1.388 . S
C1815 C1816 1.366 . S
C1816 C1815 1.366 . S
C1816 C1817 1.414 . S
C1816 C1819 1.499 . S
C1817 H1791 0.950 . S
C1817 C1816 1.414 . S
C1817 C1818 1.374 . S
C1818 H1792 0.950 . S
C1818 C1814 1.385 . S
C1818 C1817 1.374 . S
C1819 C1816 1.499 . S
C1819 C1820 1.373 . S
C1819 C1821 1.389 . S
C1820 H1793 0.950 . S
C1820 C1806 1.377 . S
C1820 C1819 1.373 . S
C1821 C1805 1.377 . S
C1821 C1819 1.389 . S
C1821 C1822 1.524 . S
C1822 C1821 1.524 . S
C1822 C1823 1.397 . S
C1822 C1827 1.363 . S
C1823 H1794 0.950 . S
C1823 C1822 1.397 . S
C1823 C1824 1.334 . S
C1824 H1795 0.950 . S
C1824 C1823 1.334 . S
C1824 C1825 1.287 . S
C1825 C1824 1.287 . S
C1825 C1826 1.524 . S
C1825 H1828 0.999 . S
C1826 H1796 0.950 . S
C1826 C1825 1.524 . S
C1826 C1827 1.415 . S
C1827 H1797 0.950 . S
C1827 C1822 1.363 . S
C1827 C1826 1.415 . S
H1828 C1825 0.999 . S
H1829 C1810 0.913 . S
H1830 C1848 0.951 . S
H1831 C1850 0.951 . S
H1832 C1852 0.950 . S
H1833 C1853 0.950 . S
H1834 C1855 0.950 . S
H1835 C1858 0.950 . S
H1836 C1859 0.950 . S
H1837 C1861 0.950 . S
H1838 C1862 0.950 . S
H1839 C1863 0.951 . S
H1840 C1865 0.951 . S
H1841 C1867 0.950 . S
H1842 C1868 0.950 . S
H1843 C1870 0.950 . S
H1844 C1873 0.950 . S
H1845 C1874 0.950 . S
H1846 C1876 0.950 . S
H1847 C1877 0.950 . S
C1848 H1830 0.951 . S
C1848 C1849 1.366 . S
C1848 C1850 1.388 . S
C1849 C1848 1.366 . S
C1849 C1853 1.385 . S
C1850 H1831 0.951 . S
C1850 C1848 1.388 . S
C1850 C1851 1.366 . S
C1851 C1850 1.366 . S
C1851 C1852 1.414 . S
C1851 C1854 1.499 . S
C1852 H1832 0.950 . S
C1852 C1851 1.414 . S
C1852 C1853 1.374 . S
C1853 H1833 0.950 . S
C1853 C1849 1.385 . S
C1853 C1852 1.374 . S
C1854 C1851 1.499 . S
C1854 C1855 1.373 . S
C1854 C1856 1.389 . S
C1855 H1834 0.950 . S
C1855 C1854 1.373 . S
C1855 C1871 1.377 . S
C1856 C1854 1.389 . S
C1856 C1857 1.524 . S
C1856 C1870 1.377 . S
C1857 C1856 1.524 . S
C1857 C1858 1.397 . S
C1857 C1862 1.363 . S
C1858 H1835 0.950 . S
C1858 C1857 1.397 . S
C1858 C1859 1.334 . S
C1859 H1836 0.950 . S
C1859 C1858 1.334 . S
C1859 C1860 1.287 . S
C1860 C1859 1.287 . S
C1860 C1861 1.524 . S
C1860 H1879 0.913 . S
C1861 H1837 0.950 . S
C1861 C1860 1.524 . S
C1861 C1862 1.415 . S
C1862 H1838 0.950 . S
C1862 C1857 1.363 . S
C1862 C1861 1.415 . S
C1863 H1839 0.951 . S
C1863 C1864 1.366 . S
C1863 C1865 1.388 . S
C1864 C1863 1.366 . S
C1864 C1868 1.385 . S
C1865 H1840 0.951 . S
C1865 C1863 1.388 . S
C1865 C1866 1.366 . S
C1866 C1865 1.366 . S
C1866 C1867 1.414 . S
C1866 C1869 1.499 . S
C1867 H1841 0.950 . S
C1867 C1866 1.414 . S
C1867 C1868 1.374 . S
C1868 H1842 0.950 . S
C1868 C1864 1.385 . S
C1868 C1867 1.374 . S
C1869 C1866 1.499 . S
C1869 C1870 1.373 . S
C1869 C1871 1.389 . S
C1870 H1843 0.950 . S
C1870 C1856 1.377 . S
C1870 C1869 1.373 . S
C1871 C1855 1.377 . S
C1871 C1869 1.389 . S
C1871 C1872 1.524 . S
C1872 C1871 1.524 . S
C1872 C1873 1.397 . S
C1872 C1877 1.363 . S
C1873 H1844 0.950 . S
C1873 C1872 1.397 . S
C1873 C1874 1.334 . S
C1874 H1845 0.950 . S
C1874 C1873 1.334 . S
C1874 C1875 1.287 . S
C1875 C1874 1.287 . S
C1875 C1876 1.524 . S
C1875 H1878 0.999 . S
C1876 H1846 0.950 . S
C1876 C1875 1.524 . S
C1876 C1877 1.415 . S
C1877 H1847 0.950 . S
C1877 C1872 1.363 . S
C1877 C1876 1.415 . S
H1878 C1875 0.999 . S
H1879 C1860 0.913 . S
H1880 C1898 0.951 . S
H1881 C1900 0.951 . S
H1882 C1902 0.950 . S
H1883 C1903 0.950 . S
H1884 C1905 0.950 . S
H1885 C1908 0.950 . S
H1886 C1909 0.950 . S
H1887 C1911 0.950 . S
H1888 C1912 0.950 . S
H1889 C1913 0.951 . S
H1890 C1915 0.951 . S
H1891 C1917 0.950 . S
H1892 C1918 0.950 . S
H1893 C1920 0.950 . S
H1894 C1923 0.950 . S
H1895 C1924 0.950 . S
H1896 C1926 0.950 . S
H1897 C1927 0.950 . S
C1898 H1880 0.951 . S
C1898 C1899 1.366 . S
C1898 C1900 1.388 . S
C1899 C1898 1.366 . S
C1899 C1903 1.385 . S
C1900 H1881 0.951 . S
C1900 C1898 1.388 . S
C1900 C1901 1.366 . S
C1901 C1900 1.366 . S
C1901 C1902 1.414 . S
C1901 C1904 1.499 . S
C1902 H1882 0.950 . S
C1902 C1901 1.414 . S
C1902 C1903 1.374 . S
C1903 H1883 0.950 . S
C1903 C1899 1.385 . S
C1903 C1902 1.374 . S
C1904 C1901 1.499 . S
C1904 C1905 1.373 . S
C1904 C1906 1.389 . S
C1905 H1884 0.950 . S
C1905 C1904 1.373 . S
C1905 C1921 1.377 . S
C1906 C1904 1.389 . S
C1906 C1907 1.524 . S
C1906 C1920 1.377 . S
C1907 C1906 1.524 . S
C1907 C1908 1.397 . S
C1907 C1912 1.363 . S
C1908 H1885 0.950 . S
C1908 C1907 1.397 . S
C1908 C1909 1.334 . S
C1909 H1886 0.950 . S
C1909 C1908 1.334 . S
C1909 C1910 1.287 . S
C1910 C1909 1.287 . S
C1910 C1911 1.524 . S
C1910 H1929 0.913 . S
C1911 H1887 0.950 . S
C1911 C1910 1.524 . S
C1911 C1912 1.415 . S
C1912 H1888 0.950 . S
C1912 C1907 1.363 . S
C1912 C1911 1.415 . S
C1913 H1889 0.951 . S
C1913 C1914 1.366 . S
C1913 C1915 1.388 . S
C1914 C1913 1.366 . S
C1914 C1918 1.385 . S
C1915 H1890 0.951 . S
C1915 C1913 1.388 . S
C1915 C1916 1.366 . S
C1916 C1915 1.366 . S
C1916 C1917 1.414 . S
C1916 C1919 1.499 . S
C1917 H1891 0.950 . S
C1917 C1916 1.414 . S
C1917 C1918 1.374 . S
C1918 H1892 0.950 . S
C1918 C1914 1.385 . S
C1918 C1917 1.374 . S
C1919 C1916 1.499 . S
C1919 C1920 1.373 . S
C1919 C1921 1.389 . S
C1920 H1893 0.950 . S
C1920 C1906 1.377 . S
C1920 C1919 1.373 . S
C1921 C1905 1.377 . S
C1921 C1919 1.389 . S
C1921 C1922 1.524 . S
C1922 C1921 1.524 . S
C1922 C1923 1.397 . S
C1922 C1927 1.363 . S
C1923 H1894 0.950 . S
C1923 C1922 1.397 . S
C1923 C1924 1.334 . S
C1924 H1895 0.950 . S
C1924 C1923 1.334 . S
C1924 C1925 1.287 . S
C1925 C1924 1.287 . S
C1925 C1926 1.524 . S
C1925 H1928 0.999 . S
C1926 H1896 0.950 . S
C1926 C1925 1.524 . S
C1926 C1927 1.415 . S
C1927 H1897 0.950 . S
C1927 C1922 1.363 . S
C1927 C1926 1.415 . S
H1928 C1925 0.999 . S
H1929 C1910 0.913 . S
H1930 C1948 0.951 . S
H1931 C1950 0.951 . S
H1932 C1952 0.950 . S
H1933 C1953 0.950 . S
H1934 C1955 0.950 . S
H1935 C1958 0.950 . S
H1936 C1959 0.950 . S
H1937 C1961 0.950 . S
H1938 C1962 0.950 . S
H1939 C1963 0.951 . S
H1940 C1965 0.951 . S
H1941 C1967 0.950 . S
H1942 C1968 0.950 . S
H1943 C1970 0.950 . S
H1944 C1973 0.950 . S
H1945 C1974 0.950 . S
H1946 C1976 0.950 . S
H1947 C1977 0.950 . S
C1948 H1930 0.951 . S
C1948 C1949 1.366 . S
C1948 C1950 1.388 . S
C1949 C1948 1.366 . S
C1949 C1953 1.385 . S
C1950 H1931 0.951 . S
C1950 C1948 1.388 . S
C1950 C1951 1.366 . S
C1951 C1950 1.366 . S
C1951 C1952 1.414 . S
C1951 C1954 1.499 . S
C1952 H1932 0.950 . S
C1952 C1951 1.414 . S
C1952 C1953 1.374 . S
C1953 H1933 0.950 . S
C1953 C1949 1.385 . S
C1953 C1952 1.374 . S
C1954 C1951 1.499 . S
C1954 C1955 1.373 . S
C1954 C1956 1.389 . S
C1955 H1934 0.950 . S
C1955 C1954 1.373 . S
C1955 C1971 1.377 . S
C1956 C1954 1.389 . S
C1956 C1957 1.524 . S
C1956 C1970 1.377 . S
C1957 C1956 1.524 . S
C1957 C1958 1.397 . S
C1957 C1962 1.363 . S
C1958 H1935 0.950 . S
C1958 C1957 1.397 . S
C1958 C1959 1.334 . S
C1959 H1936 0.950 . S
C1959 C1958 1.334 . S
C1959 C1960 1.287 . S
C1960 C1959 1.287 . S
C1960 C1961 1.524 . S
C1960 H1979 0.913 . S
C1961 H1937 0.950 . S
C1961 C1960 1.524 . S
C1961 C1962 1.415 . S
C1962 H1938 0.950 . S
C1962 C1957 1.363 . S
C1962 C1961 1.415 . S
C1963 H1939 0.951 . S
C1963 C1964 1.366 . S
C1963 C1965 1.388 . S
C1964 C1963 1.366 . S
C1964 C1968 1.385 . S
C1965 H1940 0.951 . S
C1965 C1963 1.388 . S
C1965 C1966 1.366 . S
C1966 C1965 1.366 . S
C1966 C1967 1.414 . S
C1966 C1969 1.499 . S
C1967 H1941 0.950 . S
C1967 C1966 1.414 . S
C1967 C1968 1.374 . S
C1968 H1942 0.950 . S
C1968 C1964 1.385 . S
C1968 C1967 1.374 . S
C1969 C1966 1.499 . S
C1969 C1970 1.373 . S
C1969 C1971 1.389 . S
C1970 H1943 0.950 . S
C1970 C1956 1.377 . S
C1970 C1969 1.373 . S
C1971 C1955 1.377 . S
C1971 C1969 1.389 . S
C1971 C1972 1.524 . S
C1972 C1971 1.524 . S
C1972 C1973 1.397 . S
C1972 C1977 1.363 . S
C1973 H1944 0.950 . S
C1973 C1972 1.397 . S
C1973 C1974 1.334 . S
C1974 H1945 0.950 . S
C1974 C1973 1.334 . S
C1974 C1975 1.287 . S
C1975 C1974 1.287 . S
C1975 C1976 1.524 . S
C1975 H1978 0.999 . S
C1976 H1946 0.950 . S
C1976 C1975 1.524 . S
C1976 C1977 1.415 . S
C1977 H1947 0.950 . S
C1977 C1972 1.363 . S
C1977 C1976 1.415 . S
H1978 C1975 0.999 . S
H1979 C1960 0.913 . S
H1980 C1998 0.951 . S
H1981 C2000 0.951 . S
H1982 C2002 0.950 . S
H1983 C2003 0.950 . S
H1984 C2005 0.950 . S
H1985 C2008 0.950 . S
H1986 C2009 0.950 . S
H1987 C2011 0.950 . S
H1988 C2012 0.950 . S
H1989 C2013 0.951 . S
H1990 C2015 0.951 . S
H1991 C2017 0.950 . S
H1992 C2018 0.950 . S
H1993 C2020 0.950 . S
H1994 C2023 0.950 . S
H1995 C2024 0.950 . S
H1996 C2026 0.950 . S
H1997 C2027 0.950 . S
C1998 H1980 0.951 . S
C1998 C1999 1.366 . S
C1998 C2000 1.388 . S
C1999 C1998 1.366 . S
C1999 C2003 1.385 . S
C2000 H1981 0.951 . S
C2000 C1998 1.388 . S
C2000 C2001 1.366 . S
C2001 C2000 1.366 . S
C2001 C2002 1.414 . S
C2001 C2004 1.499 . S
C2002 H1982 0.950 . S
C2002 C2001 1.414 . S
C2002 C2003 1.374 . S
C2003 H1983 0.950 . S
C2003 C1999 1.385 . S
C2003 C2002 1.374 . S
C2004 C2001 1.499 . S
C2004 C2005 1.373 . S
C2004 C2006 1.389 . S
C2005 H1984 0.950 . S
C2005 C2004 1.373 . S
C2005 C2021 1.377 . S
C2006 C2004 1.389 . S
C2006 C2007 1.524 . S
C2006 C2020 1.377 . S
C2007 C2006 1.524 . S
C2007 C2008 1.397 . S
C2007 C2012 1.363 . S
C2008 H1985 0.950 . S
C2008 C2007 1.397 . S
C2008 C2009 1.334 . S
C2009 H1986 0.950 . S
C2009 C2008 1.334 . S
C2009 C2010 1.287 . S
C2010 C2009 1.287 . S
C2010 C2011 1.524 . S
C2010 H2029 0.913 . S
C2011 H1987 0.950 . S
C2011 C2010 1.524 . S
C2011 C2012 1.415 . S
C2012 H1988 0.950 . S
C2012 C2007 1.363 . S
C2012 C2011 1.415 . S
C2013 H1989 0.951 . S
C2013 C2014 1.366 . S
C2013 C2015 1.388 . S
C2014 C2013 1.366 . S
C2014 C2018 1.385 . S
C2015 H1990 0.951 . S
C2015 C2013 1.388 . S
C2015 C2016 1.366 . S
C2016 C2015 1.366 . S
C2016 C2017 1.414 . S
C2016 C2019 1.499 . S
C2017 H1991 0.950 . S
C2017 C2016 1.414 . S
C2017 C2018 1.374 . S
C2018 H1992 0.950 . S
C2018 C2014 1.385 . S
C2018 C2017 1.374 . S
C2019 C2016 1.499 . S
C2019 C2020 1.373 . S
C2019 C2021 1.389 . S
C2020 H1993 0.950 . S
C2020 C2006 1.377 . S
C2020 C2019 1.373 . S
C2021 C2005 1.377 . S
C2021 C2019 1.389 . S
C2021 C2022 1.524 . S
C2022 C2021 1.524 . S
C2022 C2023 1.397 . S
C2022 C2027 1.363 . S
C2023 H1994 0.950 . S
C2023 C2022 1.397 . S
C2023 C2024 1.334 . S
C2024 H1995 0.950 . S
C2024 C2023 1.334 . S
C2024 C2025 1.287 . S
C2025 C2024 1.287 . S
C2025 C2026 1.524 . S
C2025 H2028 0.999 . S
C2026 H1996 0.950 . S
C2026 C2025 1.524 . S
C2026 C2027 1.415 . S
C2027 H1997 0.950 . S
C2027 C2022 1.363 . S
C2027 C2026 1.415 . S
H2028 C2025 0.999 . S
H2029 C2010 0.913 . S
H2030 C2048 0.951 . S
H2031 C2050 0.951 . S
H2032 C2052 0.950 . S
H2033 C2053 0.950 . S
H2034 C2055 0.950 . S
H2035 C2058 0.950 . S
H2036 C2059 0.950 . S
H2037 C2061 0.950 . S
H2038 C2062 0.950 . S
H2039 C2063 0.951 . S
H2040 C2065 0.951 . S
H2041 C2067 0.950 . S
H2042 C2068 0.950 . S
H2043 C2070 0.950 . S
H2044 C2073 0.950 . S
H2045 C2074 0.950 . S
H2046 C2076 0.950 . S
H2047 C2077 0.950 . S
C2048 H2030 0.951 . S
C2048 C2049 1.366 . S
C2048 C2050 1.388 . S
C2049 C2048 1.366 . S
C2049 C2053 1.385 . S
C2050 H2031 0.951 . S
C2050 C2048 1.388 . S
C2050 C2051 1.366 . S
C2051 C2050 1.366 . S
C2051 C2052 1.414 . S
C2051 C2054 1.499 . S
C2052 H2032 0.950 . S
C2052 C2051 1.414 . S
C2052 C2053 1.374 . S
C2053 H2033 0.950 . S
C2053 C2049 1.385 . S
C2053 C2052 1.374 . S
C2054 C2051 1.499 . S
C2054 C2055 1.373 . S
C2054 C2056 1.389 . S
C2055 H2034 0.950 . S
C2055 C2054 1.373 . S
C2055 C2071 1.377 . S
C2056 C2054 1.389 . S
C2056 C2057 1.524 . S
C2056 C2070 1.377 . S
C2057 C2056 1.524 . S
C2057 C2058 1.397 . S
C2057 C2062 1.363 . S
C2058 H2035 0.950 . S
C2058 C2057 1.397 . S
C2058 C2059 1.334 . S
C2059 H2036 0.950 . S
C2059 C2058 1.334 . S
C2059 C2060 1.287 . S
C2060 C2059 1.287 . S
C2060 C2061 1.524 . S
C2060 H2079 0.913 . S
C2061 H2037 0.950 . S
C2061 C2060 1.524 . S
C2061 C2062 1.415 . S
C2062 H2038 0.950 . S
C2062 C2057 1.363 . S
C2062 C2061 1.415 . S
C2063 H2039 0.951 . S
C2063 C2064 1.366 . S
C2063 C2065 1.388 . S
C2064 C2063 1.366 . S
C2064 C2068 1.385 . S
C2065 H2040 0.951 . S
C2065 C2063 1.388 . S
C2065 C2066 1.366 . S
C2066 C2065 1.366 . S
C2066 C2067 1.414 . S
C2066 C2069 1.499 . S
C2067 H2041 0.950 . S
C2067 C2066 1.414 . S
C2067 C2068 1.374 . S
C2068 H2042 0.950 . S
C2068 C2064 1.385 . S
C2068 C2067 1.374 . S
C2069 C2066 1.499 . S
C2069 C2070 1.373 . S
C2069 C2071 1.389 . S
C2070 H2043 0.950 . S
C2070 C2056 1.377 . S
C2070 C2069 1.373 . S
C2071 C2055 1.377 . S
C2071 C2069 1.389 . S
C2071 C2072 1.524 . S
C2072 C2071 1.524 . S
C2072 C2073 1.397 . S
C2072 C2077 1.363 . S
C2073 H2044 0.950 . S
C2073 C2072 1.397 . S
C2073 C2074 1.334 . S
C2074 H2045 0.950 . S
C2074 C2073 1.334 . S
C2074 C2075 1.287 . S
C2075 C2074 1.287 . S
C2075 C2076 1.524 . S
C2075 H2078 0.999 . S
C2076 H2046 0.950 . S
C2076 C2075 1.524 . S
C2076 C2077 1.415 . S
C2077 H2047 0.950 . S
C2077 C2072 1.363 . S
C2077 C2076 1.415 . S
H2078 C2075 0.999 . S
H2079 C2060 0.913 . S
H2080 C2098 0.951 . S
H2081 C2100 0.951 . S
H2082 C2102 0.950 . S
H2083 C2103 0.950 . S
H2084 C2105 0.950 . S
H2085 C2108 0.950 . S
H2086 C2109 0.950 . S
H2087 C2111 0.950 . S
H2088 C2112 0.950 . S
H2089 C2113 0.951 . S
H2090 C2115 0.951 . S
H2091 C2117 0.950 . S
H2092 C2118 0.950 . S
H2093 C2120 0.950 . S
H2094 C2123 0.950 . S
H2095 C2124 0.950 . S
H2096 C2126 0.950 . S
H2097 C2127 0.950 . S
C2098 H2080 0.951 . S
C2098 C2099 1.366 . S
C2098 C2100 1.388 . S
C2099 C2098 1.366 . S
C2099 C2103 1.385 . S
C2100 H2081 0.951 . S
C2100 C2098 1.388 . S
C2100 C2101 1.366 . S
C2101 C2100 1.366 . S
C2101 C2102 1.414 . S
C2101 C2104 1.499 . S
C2102 H2082 0.950 . S
C2102 C2101 1.414 . S
C2102 C2103 1.374 . S
C2103 H2083 0.950 . S
C2103 C2099 1.385 . S
C2103 C2102 1.374 . S
C2104 C2101 1.499 . S
C2104 C2105 1.373 . S
C2104 C2106 1.389 . S
C2105 H2084 0.950 . S
C2105 C2104 1.373 . S
C2105 C2121 1.377 . S
C2106 C2104 1.389 . S
C2106 C2107 1.524 . S
C2106 C2120 1.377 . S
C2107 C2106 1.524 . S
C2107 C2108 1.397 . S
C2107 C2112 1.363 . S
C2108 H2085 0.950 . S
C2108 C2107 1.397 . S
C2108 C2109 1.334 . S
C2109 H2086 0.950 . S
C2109 C2108 1.334 . S
C2109 C2110 1.287 . S
C2110 C2109 1.287 . S
C2110 C2111 1.524 . S
C2110 H2129 0.913 . S
C2111 H2087 0.950 . S
C2111 C2110 1.524 . S
C2111 C2112 1.415 . S
C2112 H2088 0.950 . S
C2112 C2107 1.363 . S
C2112 C2111 1.415 . S
C2113 H2089 0.951 . S
C2113 C2114 1.366 . S
C2113 C2115 1.388 . S
C2114 C2113 1.366 . S
C2114 C2118 1.385 . S
C2115 H2090 0.951 . S
C2115 C2113 1.388 . S
C2115 C2116 1.366 . S
C2116 C2115 1.366 . S
C2116 C2117 1.414 . S
C2116 C2119 1.499 . S
C2117 H2091 0.950 . S
C2117 C2116 1.414 . S
C2117 C2118 1.374 . S
C2118 H2092 0.950 . S
C2118 C2114 1.385 . S
C2118 C2117 1.374 . S
C2119 C2116 1.499 . S
C2119 C2120 1.373 . S
C2119 C2121 1.389 . S
C2120 H2093 0.950 . S
C2120 C2106 1.377 . S
C2120 C2119 1.373 . S
C2121 C2105 1.377 . S
C2121 C2119 1.389 . S
C2121 C2122 1.524 . S
C2122 C2121 1.524 . S
C2122 C2123 1.397 . S
C2122 C2127 1.363 . S
C2123 H2094 0.950 . S
C2123 C2122 1.397 . S
C2123 C2124 1.334 . S
C2124 H2095 0.950 . S
C2124 C2123 1.334 . S
C2124 C2125 1.287 . S
C2125 C2124 1.287 . S
C2125 C2126 1.524 . S
C2125 H2128 0.999 . S
C2126 H2096 0.950 . S
C2126 C2125 1.524 . S
C2126 C2127 1.415 . S
C2127 H2097 0.950 . S
C2127 C2122 1.363 . S
C2127 C2126 1.415 . S
H2128 C2125 0.999 . S
H2129 C2110 0.913 . S
H2130 C2148 0.951 . S
H2131 C2150 0.951 . S
H2132 C2152 0.950 . S
H2133 C2153 0.950 . S
H2134 C2155 0.950 . S
H2135 C2158 0.950 . S
H2136 C2159 0.950 . S
H2137 C2161 0.950 . S
H2138 C2162 0.950 . S
H2139 C2163 0.951 . S
H2140 C2165 0.951 . S
H2141 C2167 0.950 . S
H2142 C2168 0.950 . S
H2143 C2170 0.950 . S
H2144 C2173 0.950 . S
H2145 C2174 0.950 . S
H2146 C2176 0.950 . S
H2147 C2177 0.950 . S
C2148 H2130 0.951 . S
C2148 C2149 1.366 . S
C2148 C2150 1.388 . S
C2149 C2148 1.366 . S
C2149 C2153 1.385 . S
C2150 H2131 0.951 . S
C2150 C2148 1.388 . S
C2150 C2151 1.366 . S
C2151 C2150 1.366 . S
C2151 C2152 1.414 . S
C2151 C2154 1.499 . S
C2152 H2132 0.950 . S
C2152 C2151 1.414 . S
C2152 C2153 1.374 . S
C2153 H2133 0.950 . S
C2153 C2149 1.385 . S
C2153 C2152 1.374 . S
C2154 C2151 1.499 . S
C2154 C2155 1.373 . S
C2154 C2156 1.389 . S
C2155 H2134 0.950 . S
C2155 C2154 1.373 . S
C2155 C2171 1.377 . S
C2156 C2154 1.389 . S
C2156 C2157 1.524 . S
C2156 C2170 1.377 . S
C2157 C2156 1.524 . S
C2157 C2158 1.397 . S
C2157 C2162 1.363 . S
C2158 H2135 0.950 . S
C2158 C2157 1.397 . S
C2158 C2159 1.334 . S
C2159 H2136 0.950 . S
C2159 C2158 1.334 . S
C2159 C2160 1.287 . S
C2160 C2159 1.287 . S
C2160 C2161 1.524 . S
C2160 H2179 0.913 . S
C2161 H2137 0.950 . S
C2161 C2160 1.524 . S
C2161 C2162 1.415 . S
C2162 H2138 0.950 . S
C2162 C2157 1.363 . S
C2162 C2161 1.415 . S
C2163 H2139 0.951 . S
C2163 C2164 1.366 . S
C2163 C2165 1.388 . S
C2164 C2163 1.366 . S
C2164 C2168 1.385 . S
C2165 H2140 0.951 . S
C2165 C2163 1.388 . S
C2165 C2166 1.366 . S
C2166 C2165 1.366 . S
C2166 C2167 1.414 . S
C2166 C2169 1.499 . S
C2167 H2141 0.950 . S
C2167 C2166 1.414 . S
C2167 C2168 1.374 . S
C2168 H2142 0.950 . S
C2168 C2164 1.385 . S
C2168 C2167 1.374 . S
C2169 C2166 1.499 . S
C2169 C2170 1.373 . S
C2169 C2171 1.389 . S
C2170 H2143 0.950 . S
C2170 C2156 1.377 . S
C2170 C2169 1.373 . S
C2171 C2155 1.377 . S
C2171 C2169 1.389 . S
C2171 C2172 1.524 . S
C2172 C2171 1.524 . S
C2172 C2173 1.397 . S
C2172 C2177 1.363 . S
C2173 H2144 0.950 . S
C2173 C2172 1.397 . S
C2173 C2174 1.334 . S
C2174 H2145 0.950 . S
C2174 C2173 1.334 . S
C2174 C2175 1.287 . S
C2175 C2174 1.287 . S
C2175 C2176 1.524 . S
C2175 H2178 0.999 . S
C2176 H2146 0.950 . S
C2176 C2175 1.524 . S
C2176 C2177 1.415 . S
C2177 H2147 0.950 . S
C2177 C2172 1.363 . S
C2177 C2176 1.415 . S
H2178 C2175 0.999 . S
H2179 C2160 0.913 . S
H2180 C2198 0.951 . S
H2181 C2200 0.951 . S
H2182 C2202 0.950 . S
H2183 C2203 0.950 . S
H2184 C2205 0.950 . S
H2185 C2208 0.950 . S
H2186 C2209 0.950 . S
H2187 C2211 0.950 . S
H2188 C2212 0.950 . S
H2189 C2213 0.951 . S
H2190 C2215 0.951 . S
H2191 C2217 0.950 . S
H2192 C2218 0.950 . S
H2193 C2220 0.950 . S
H2194 C2223 0.950 . S
H2195 C2224 0.950 . S
H2196 C2226 0.950 . S
H2197 C2227 0.950 . S
C2198 H2180 0.951 . S
C2198 C2199 1.366 . S
C2198 C2200 1.388 . S
C2199 C2198 1.366 . S
C2199 C2203 1.385 . S
C2200 H2181 0.951 . S
C2200 C2198 1.388 . S
C2200 C2201 1.366 . S
C2201 C2200 1.366 . S
C2201 C2202 1.414 . S
C2201 C2204 1.499 . S
C2202 H2182 0.950 . S
C2202 C2201 1.414 . S
C2202 C2203 1.374 . S
C2203 H2183 0.950 . S
C2203 C2199 1.385 . S
C2203 C2202 1.374 . S
C2204 C2201 1.499 . S
C2204 C2205 1.373 . S
C2204 C2206 1.389 . S
C2205 H2184 0.950 . S
C2205 C2204 1.373 . S
C2205 C2221 1.377 . S
C2206 C2204 1.389 . S
C2206 C2207 1.524 . S
C2206 C2220 1.377 . S
C2207 C2206 1.524 . S
C2207 C2208 1.397 . S
C2207 C2212 1.363 . S
C2208 H2185 0.950 . S
C2208 C2207 1.397 . S
C2208 C2209 1.334 . S
C2209 H2186 0.950 . S
C2209 C2208 1.334 . S
C2209 C2210 1.287 . S
C2210 C2209 1.287 . S
C2210 C2211 1.524 . S
C2210 H2229 0.913 . S
C2211 H2187 0.950 . S
C2211 C2210 1.524 . S
C2211 C2212 1.415 . S
C2212 H2188 0.950 . S
C2212 C2207 1.363 . S
C2212 C2211 1.415 . S
C2213 H2189 0.951 . S
C2213 C2214 1.366 . S
C2213 C2215 1.388 . S
C2214 C2213 1.366 . S
C2214 C2218 1.385 . S
C2215 H2190 0.951 . S
C2215 C2213 1.388 . S
C2215 C2216 1.366 . S
C2216 C2215 1.366 . S
C2216 C2217 1.414 . S
C2216 C2219 1.499 . S
C2217 H2191 0.950 . S
C2217 C2216 1.414 . S
C2217 C2218 1.374 . S
C2218 H2192 0.950 . S
C2218 C2214 1.385 . S
C2218 C2217 1.374 . S
C2219 C2216 1.499 . S
C2219 C2220 1.373 . S
C2219 C2221 1.389 . S
C2220 H2193 0.950 . S
C2220 C2206 1.377 . S
C2220 C2219 1.373 . S
C2221 C2205 1.377 . S
C2221 C2219 1.389 . S
C2221 C2222 1.524 . S
C2222 C2221 1.524 . S
C2222 C2223 1.397 . S
C2222 C2227 1.363 . S
C2223 H2194 0.950 . S
C2223 C2222 1.397 . S
C2223 C2224 1.334 . S
C2224 H2195 0.950 . S
C2224 C2223 1.334 . S
C2224 C2225 1.287 . S
C2225 C2224 1.287 . S
C2225 C2226 1.524 . S
C2225 H2228 0.999 . S
C2226 H2196 0.950 . S
C2226 C2225 1.524 . S
C2226 C2227 1.415 . S
C2227 H2197 0.950 . S
C2227 C2222 1.363 . S
C2227 C2226 1.415 . S
H2228 C2225 0.999 . S
H2229 C2210 0.913 . S
H2230 C2248 0.951 . S
H2231 C2250 0.951 . S
H2232 C2252 0.950 . S
H2233 C2253 0.950 . S
H2234 C2255 0.950 . S
H2235 C2258 0.950 . S
H2236 C2259 0.950 . S
H2237 C2261 0.950 . S
H2238 C2262 0.950 . S
H2239 C2263 0.951 . S
H2240 C2265 0.951 . S
H2241 C2267 0.950 . S
H2242 C2268 0.950 . S
H2243 C2270 0.950 . S
H2244 C2273 0.950 . S
H2245 C2274 0.950 . S
H2246 C2276 0.950 . S
H2247 C2277 0.950 . S
C2248 H2230 0.951 . S
C2248 C2249 1.366 . S
C2248 C2250 1.388 . S
C2249 C2248 1.366 . S
C2249 C2253 1.385 . S
C2250 H2231 0.951 . S
C2250 C2248 1.388 . S
C2250 C2251 1.366 . S
C2251 C2250 1.366 . S
C2251 C2252 1.414 . S
C2251 C2254 1.499 . S
C2252 H2232 0.950 . S
C2252 C2251 1.414 . S
C2252 C2253 1.374 . S
C2253 H2233 0.950 . S
C2253 C2249 1.385 . S
C2253 C2252 1.374 . S
C2254 C2251 1.499 . S
C2254 C2255 1.373 . S
C2254 C2256 1.389 . S
C2255 H2234 0.950 . S
C2255 C2254 1.373 . S
C2255 C2271 1.377 . S
C2256 C2254 1.389 . S
C2256 C2257 1.524 . S
C2256 C2270 1.377 . S
C2257 C2256 1.524 . S
C2257 C2258 1.397 . S
C2257 C2262 1.363 . S
C2258 H2235 0.950 . S
C2258 C2257 1.397 . S
C2258 C2259 1.334 . S
C2259 H2236 0.950 . S
C2259 C2258 1.334 . S
C2259 C2260 1.287 . S
C2260 C2259 1.287 . S
C2260 C2261 1.524 . S
C2260 H2279 0.913 . S
C2261 H2237 0.950 . S
C2261 C2260 1.524 . S
C2261 C2262 1.415 . S
C2262 H2238 0.950 . S
C2262 C2257 1.363 . S
C2262 C2261 1.415 . S
C2263 H2239 0.951 . S
C2263 C2264 1.366 . S
C2263 C2265 1.388 . S
C2264 C2263 1.366 . S
C2264 C2268 1.385 . S
C2265 H2240 0.951 . S
C2265 C2263 1.388 . S
C2265 C2266 1.366 . S
C2266 C2265 1.366 . S
C2266 C2267 1.414 . S
C2266 C2269 1.499 . S
C2267 H2241 0.950 . S
C2267 C2266 1.414 . S
C2267 C2268 1.374 . S
C2268 H2242 0.950 . S
C2268 C2264 1.385 . S
C2268 C2267 1.374 . S
C2269 C2266 1.499 . S
C2269 C2270 1.373 . S
C2269 C2271 1.389 . S
C2270 H2243 0.950 . S
C2270 C2256 1.377 . S
C2270 C2269 1.373 . S
C2271 C2255 1.377 . S
C2271 C2269 1.389 . S
C2271 C2272 1.524 . S
C2272 C2271 1.524 . S
C2272 C2273 1.397 . S
C2272 C2277 1.363 . S
C2273 H2244 0.950 . S
C2273 C2272 1.397 . S
C2273 C2274 1.334 . S
C2274 H2245 0.950 . S
C2274 C2273 1.334 . S
C2274 C2275 1.287 . S
C2275 C2274 1.287 . S
C2275 C2276 1.524 . S
C2275 H2278 0.999 . S
C2276 H2246 0.950 . S
C2276 C2275 1.524 . S
C2276 C2277 1.415 . S
C2277 H2247 0.950 . S
C2277 C2272 1.363 . S
C2277 C2276 1.415 . S
H2278 C2275 0.999 . S
H2279 C2260 0.913 . S
H2280 C2298 0.951 . S
H2281 C2300 0.951 . S
H2282 C2302 0.950 . S
H2283 C2303 0.950 . S
H2284 C2305 0.950 . S
H2285 C2308 0.950 . S
H2286 C2309 0.950 . S
H2287 C2311 0.950 . S
H2288 C2312 0.950 . S
H2289 C2313 0.951 . S
H2290 C2315 0.951 . S
H2291 C2317 0.950 . S
H2292 C2318 0.950 . S
H2293 C2320 0.950 . S
H2294 C2323 0.950 . S
H2295 C2324 0.950 . S
H2296 C2326 0.950 . S
H2297 C2327 0.950 . S
C2298 H2280 0.951 . S
C2298 C2299 1.366 . S
C2298 C2300 1.388 . S
C2299 C2298 1.366 . S
C2299 C2303 1.385 . S
C2300 H2281 0.951 . S
C2300 C2298 1.388 . S
C2300 C2301 1.366 . S
C2301 C2300 1.366 . S
C2301 C2302 1.414 . S
C2301 C2304 1.499 . S
C2302 H2282 0.950 . S
C2302 C2301 1.414 . S
C2302 C2303 1.374 . S
C2303 H2283 0.950 . S
C2303 C2299 1.385 . S
C2303 C2302 1.374 . S
C2304 C2301 1.499 . S
C2304 C2305 1.373 . S
C2304 C2306 1.389 . S
C2305 H2284 0.950 . S
C2305 C2304 1.373 . S
C2305 C2321 1.377 . S
C2306 C2304 1.389 . S
C2306 C2307 1.524 . S
C2306 C2320 1.377 . S
C2307 C2306 1.524 . S
C2307 C2308 1.397 . S
C2307 C2312 1.363 . S
C2308 H2285 0.950 . S
C2308 C2307 1.397 . S
C2308 C2309 1.334 . S
C2309 H2286 0.950 . S
C2309 C2308 1.334 . S
C2309 C2310 1.287 . S
C2310 C2309 1.287 . S
C2310 C2311 1.524 . S
C2310 H2329 0.913 . S
C2311 H2287 0.950 . S
C2311 C2310 1.524 . S
C2311 C2312 1.415 . S
C2312 H2288 0.950 . S
C2312 C2307 1.363 . S
C2312 C2311 1.415 . S
C2313 H2289 0.951 . S
C2313 C2314 1.366 . S
C2313 C2315 1.388 . S
C2314 C2313 1.366 . S
C2314 C2318 1.385 . S
C2315 H2290 0.951 . S
C2315 C2313 1.388 . S
C2315 C2316 1.366 . S
C2316 C2315 1.366 . S
C2316 C2317 1.414 . S
C2316 C2319 1.499 . S
C2317 H2291 0.950 . S
C2317 C2316 1.414 . S
C2317 C2318 1.374 . S
C2318 H2292 0.950 . S
C2318 C2314 1.385 . S
C2318 C2317 1.374 . S
C2319 C2316 1.499 . S
C2319 C2320 1.373 . S
C2319 C2321 1.389 . S
C2320 H2293 0.950 . S
C2320 C2306 1.377 . S
C2320 C2319 1.373 . S
C2321 C2305 1.377 . S
C2321 C2319 1.389 . S
C2321 C2322 1.524 . S
C2322 C2321 1.524 . S
C2322 C2323 1.397 . S
C2322 C2327 1.363 . S
C2323 H2294 0.950 . S
C2323 C2322 1.397 . S
C2323 C2324 1.334 . S
C2324 H2295 0.950 . S
C2324 C2323 1.334 . S
C2324 C2325 1.287 . S
C2325 C2324 1.287 . S
C2325 C2326 1.524 . S
C2325 H2328 0.999 . S
C2326 H2296 0.950 . S
C2326 C2325 1.524 . S
C2326 C2327 1.415 . S
C2327 H2297 0.950 . S
C2327 C2322 1.363 . S
C2327 C2326 1.415 . S
H2328 C2325 0.999 . S
H2329 C2310 0.913 . S
H2330 C2348 0.951 . S
H2331 C2350 0.951 . S
H2332 C2352 0.950 . S
H2333 C2353 0.950 . S
H2334 C2355 0.950 . S
H2335 C2358 0.950 . S
H2336 C2359 0.950 . S
H2337 C2361 0.950 . S
H2338 C2362 0.950 . S
H2339 C2363 0.951 . S
H2340 C2365 0.951 . S
H2341 C2367 0.950 . S
H2342 C2368 0.950 . S
H2343 C2370 0.950 . S
H2344 C2373 0.950 . S
H2345 C2374 0.947 . S
H2346 C2376 0.950 . S
H2347 C2377 0.950 . S
C2348 H2330 0.951 . S
C2348 C2349 1.366 . S
C2348 C2350 1.388 . S
C2349 C2348 1.366 . S
C2349 C2353 1.385 . S
C2350 H2331 0.951 . S
C2350 C2348 1.388 . S
C2350 C2351 1.366 . S
C2351 C2350 1.366 . S
C2351 C2352 1.414 . S
C2351 C2354 1.499 . S
C2352 H2332 0.950 . S
C2352 C2351 1.414 . S
C2352 C2353 1.374 . S
C2353 H2333 0.950 . S
C2353 C2349 1.385 . S
C2353 C2352 1.374 . S
C2354 C2351 1.499 . S
C2354 C2355 1.373 . S
C2354 C2356 1.389 . S
C2355 H2334 0.950 . S
C2355 C2354 1.373 . S
C2355 C2371 1.377 . S
C2356 C2354 1.389 . S
C2356 C2357 1.524 . S
C2356 C2370 1.377 . S
C2357 C2356 1.524 . S
C2357 C2358 1.397 . S
C2357 C2362 1.363 . S
C2358 H2335 0.950 . S
C2358 C2357 1.397 . S
C2358 C2359 1.334 . S
C2359 H2336 0.950 . S
C2359 C2358 1.334 . S
C2359 C2360 1.287 . S
C2360 C2359 1.287 . S
C2360 C2361 1.524 . S
C2360 H2379 0.913 . S
C2361 H2337 0.950 . S
C2361 C2360 1.524 . S
C2361 C2362 1.415 . S
C2362 H2338 0.950 . S
C2362 C2357 1.363 . S
C2362 C2361 1.415 . S
C2363 H2339 0.951 . S
C2363 C2364 1.366 . S
C2363 C2365 1.388 . S
C2364 C2363 1.366 . S
C2364 C2368 1.385 . S
C2365 H2340 0.951 . S
C2365 C2363 1.388 . S
C2365 C2366 1.366 . S
C2366 C2365 1.366 . S
C2366 C2367 1.414 . S
C2366 C2369 1.499 . S
C2367 H2341 0.950 . S
C2367 C2366 1.414 . S
C2367 C2368 1.374 . S
C2368 H2342 0.950 . S
C2368 C2364 1.385 . S
C2368 C2367 1.374 . S
C2369 C2366 1.499 . S
C2369 C2370 1.373 . S
C2369 C2371 1.389 . S
C2370 H2343 0.950 . S
C2370 C2356 1.377 . S
C2370 C2369 1.373 . S
C2371 C2355 1.377 . S
C2371 C2369 1.389 . S
C2371 C2372 1.524 . S
C2372 C2371 1.524 . S
C2372 C2373 1.397 . S
C2372 C2377 1.363 . S
C2373 H2344 0.950 . S
C2373 C2372 1.397 . S
C2373 C2374 1.334 . S
C2374 H2345 0.947 . S
C2374 C2373 1.334 . S
C2374 C2375 1.287 . S
C2375 C2374 1.287 . S
C2375 C2376 1.524 . S
C2375 H2378 0.999 1_455 S
C2376 H2346 0.950 . S
C2376 C2375 1.524 . S
C2376 C2377 1.415 . S
C2377 H2347 0.950 . S
C2377 C2372 1.363 . S
C2377 C2376 1.415 . S
H2378 C2375 0.999 1_655 S
H2379 C2360 0.913 . S
H2380 C2398 0.951 . S
H2381 C2400 0.951 . S
H2382 C2402 0.950 . S
H2383 C2403 0.950 . S
H2384 C2405 0.950 . S
H2385 C2408 0.950 . S
H2386 C2409 0.950 . S
H2387 C2411 0.950 . S
H2388 C2412 0.950 . S
H2389 C2413 0.951 . S
H2390 C2415 0.951 . S
H2391 C2417 0.950 . S
H2392 C2418 0.950 . S
H2393 C2420 0.950 . S
H2394 C2423 0.950 . S
H2395 C2424 0.950 . S
H2396 C2426 0.950 . S
H2397 C2427 0.950 . S
C2398 H2380 0.951 . S
C2398 C2399 1.366 . S
C2398 C2400 1.388 . S
C2399 C2398 1.366 . S
C2399 C2403 1.385 . S
C2400 H2381 0.951 . S
C2400 C2398 1.388 . S
C2400 C2401 1.366 . S
C2401 C2400 1.366 . S
C2401 C2402 1.414 . S
C2401 C2404 1.499 . S
C2402 H2382 0.950 . S
C2402 C2401 1.414 . S
C2402 C2403 1.374 . S
C2403 H2383 0.950 . S
C2403 C2399 1.385 . S
C2403 C2402 1.374 . S
C2404 C2401 1.499 . S
C2404 C2405 1.373 . S
C2404 C2406 1.389 . S
C2405 H2384 0.950 . S
C2405 C2404 1.373 . S
C2405 C2421 1.377 . S
C2406 C2404 1.389 . S
C2406 C2407 1.524 . S
C2406 C2420 1.377 . S
C2407 C2406 1.524 . S
C2407 C2408 1.397 . S
C2407 C2412 1.363 . S
C2408 H2385 0.950 . S
C2408 C2407 1.397 . S
C2408 C2409 1.334 . S
C2409 H2386 0.950 . S
C2409 C2408 1.334 . S
C2409 C2410 1.287 . S
C2410 C2409 1.287 . S
C2410 C2411 1.524 . S
C2410 H2429 0.913 . S
C2411 H2387 0.950 . S
C2411 C2410 1.524 . S
C2411 C2412 1.415 . S
C2412 H2388 0.950 . S
C2412 C2407 1.363 . S
C2412 C2411 1.415 . S
C2413 H2389 0.951 . S
C2413 C2414 1.366 . S
C2413 C2415 1.388 . S
C2414 C2413 1.366 . S
C2414 C2418 1.385 . S
C2415 H2390 0.951 . S
C2415 C2413 1.388 . S
C2415 C2416 1.366 . S
C2416 C2415 1.366 . S
C2416 C2417 1.414 . S
C2416 C2419 1.499 . S
C2417 H2391 0.950 . S
C2417 C2416 1.414 . S
C2417 C2418 1.374 . S
C2418 H2392 0.950 . S
C2418 C2414 1.385 . S
C2418 C2417 1.374 . S
C2419 C2416 1.499 . S
C2419 C2420 1.373 . S
C2419 C2421 1.389 . S
C2420 H2393 0.950 . S
C2420 C2406 1.377 . S
C2420 C2419 1.373 . S
C2421 C2405 1.377 . S
C2421 C2419 1.389 . S
C2421 C2422 1.524 . S
C2422 C2421 1.524 . S
C2422 C2423 1.397 . S
C2422 C2427 1.363 . S
C2423 H2394 0.950 . S
C2423 C2422 1.397 . S
C2423 C2424 1.334 . S
C2424 H2395 0.950 . S
C2424 C2423 1.334 . S
C2424 C2425 1.287 . S
C2425 C2424 1.287 . S
C2425 C2426 1.524 . S
C2425 H2428 0.999 . S
C2426 H2396 0.950 . S
C2426 C2425 1.524 . S
C2426 C2427 1.415 . S
C2427 H2397 0.950 . S
C2427 C2422 1.363 . S
C2427 C2426 1.415 . S
H2428 C2425 0.999 . S
H2429 C2410 0.913 . S
H2430 C2448 0.951 . S
H2431 C2450 0.951 . S
H2432 C2452 0.950 . S
H2433 C2453 0.950 . S
H2434 C2455 0.950 . S
H2435 C2458 0.950 . S
H2436 C2459 0.950 . S
H2437 C2461 0.950 . S
H2438 C2462 0.950 . S
H2439 C2463 0.951 . S
H2440 C2465 0.951 . S
H2441 C2467 0.950 . S
H2442 C2468 0.950 . S
H2443 C2470 0.950 . S
H2444 C2473 0.950 . S
H2445 C2474 0.950 . S
H2446 C2476 0.950 . S
H2447 C2477 0.950 . S
C2448 H2430 0.951 . S
C2448 C2449 1.366 . S
C2448 C2450 1.388 . S
C2449 C2448 1.366 . S
C2449 C2453 1.385 . S
C2450 H2431 0.951 . S
C2450 C2448 1.388 . S
C2450 C2451 1.366 . S
C2451 C2450 1.366 . S
C2451 C2452 1.414 . S
C2451 C2454 1.499 . S
C2452 H2432 0.950 . S
C2452 C2451 1.414 . S
C2452 C2453 1.374 . S
C2453 H2433 0.950 . S
C2453 C2449 1.385 . S
C2453 C2452 1.374 . S
C2454 C2451 1.499 . S
C2454 C2455 1.373 . S
C2454 C2456 1.389 . S
C2455 H2434 0.950 . S
C2455 C2454 1.373 . S
C2455 C2471 1.377 . S
C2456 C2454 1.389 . S
C2456 C2457 1.524 . S
C2456 C2470 1.377 . S
C2457 C2456 1.524 . S
C2457 C2458 1.397 . S
C2457 C2462 1.363 . S
C2458 H2435 0.950 . S
C2458 C2457 1.397 . S
C2458 C2459 1.334 . S
C2459 H2436 0.950 . S
C2459 C2458 1.334 . S
C2459 C2460 1.287 . S
C2460 C2459 1.287 . S
C2460 C2461 1.524 . S
C2460 H2479 0.913 . S
C2461 H2437 0.950 . S
C2461 C2460 1.524 . S
C2461 C2462 1.415 . S
C2462 H2438 0.950 . S
C2462 C2457 1.363 . S
C2462 C2461 1.415 . S
C2463 H2439 0.951 . S
C2463 C2464 1.366 . S
C2463 C2465 1.388 . S
C2464 C2463 1.366 . S
C2464 C2468 1.385 . S
C2465 H2440 0.951 . S
C2465 C2463 1.388 . S
C2465 C2466 1.366 . S
C2466 C2465 1.366 . S
C2466 C2467 1.414 . S
C2466 C2469 1.499 . S
C2467 H2441 0.950 . S
C2467 C2466 1.414 . S
C2467 C2468 1.374 . S
C2468 H2442 0.950 . S
C2468 C2464 1.385 . S
C2468 C2467 1.374 . S
C2469 C2466 1.499 . S
C2469 C2470 1.373 . S
C2469 C2471 1.389 . S
C2470 H2443 0.950 . S
C2470 C2456 1.377 . S
C2470 C2469 1.373 . S
C2471 C2455 1.377 . S
C2471 C2469 1.389 . S
C2471 C2472 1.524 . S
C2472 C2471 1.524 . S
C2472 C2473 1.397 . S
C2472 C2477 1.363 . S
C2473 H2444 0.950 . S
C2473 C2472 1.397 . S
C2473 C2474 1.334 . S
C2474 H2445 0.950 . S
C2474 C2473 1.334 . S
C2474 C2475 1.287 . S
C2475 C2474 1.287 . S
C2475 C2476 1.524 . S
C2475 H2478 0.999 . S
C2476 H2446 0.950 . S
C2476 C2475 1.524 . S
C2476 C2477 1.415 . S
C2477 H2447 0.950 . S
C2477 C2472 1.363 . S
C2477 C2476 1.415 . S
H2478 C2475 0.999 . S
H2479 C2460 0.913 . S
H2480 C2498 0.951 . S
H2481 C2500 0.951 . S
H2482 C2502 0.950 . S
H2483 C2503 0.950 . S
H2484 C2505 0.950 . S
H2485 C2508 0.950 . S
H2486 C2509 0.950 . S
H2487 C2511 0.950 . S
H2488 C2512 0.950 . S
H2489 C2513 0.951 . S
H2490 C2515 0.951 . S
H2491 C2517 0.950 . S
H2492 C2518 0.950 . S
H2493 C2520 0.950 . S
H2494 C2523 0.950 . S
H2495 C2524 0.950 . S
H2496 C2526 0.950 . S
H2497 C2527 0.950 . S
C2498 H2480 0.951 . S
C2498 C2499 1.366 . S
C2498 C2500 1.388 . S
C2499 C2498 1.366 . S
C2499 C2503 1.385 . S
C2500 H2481 0.951 . S
C2500 C2498 1.388 . S
C2500 C2501 1.366 . S
C2501 C2500 1.366 . S
C2501 C2502 1.414 . S
C2501 C2504 1.499 . S
C2502 H2482 0.950 . S
C2502 C2501 1.414 . S
C2502 C2503 1.374 . S
C2503 H2483 0.950 . S
C2503 C2499 1.385 . S
C2503 C2502 1.374 . S
C2504 C2501 1.499 . S
C2504 C2505 1.373 . S
C2504 C2506 1.389 . S
C2505 H2484 0.950 . S
C2505 C2504 1.373 . S
C2505 C2521 1.377 . S
C2506 C2504 1.389 . S
C2506 C2507 1.524 . S
C2506 C2520 1.377 . S
C2507 C2506 1.524 . S
C2507 C2508 1.397 . S
C2507 C2512 1.363 . S
C2508 H2485 0.950 . S
C2508 C2507 1.397 . S
C2508 C2509 1.334 . S
C2509 H2486 0.950 . S
C2509 C2508 1.334 . S
C2509 C2510 1.287 . S
C2510 C2509 1.287 . S
C2510 C2511 1.524 . S
C2510 H2529 0.913 . S
C2511 H2487 0.950 . S
C2511 C2510 1.524 . S
C2511 C2512 1.415 . S
C2512 H2488 0.950 . S
C2512 C2507 1.363 . S
C2512 C2511 1.415 . S
C2513 H2489 0.951 . S
C2513 C2514 1.366 . S
C2513 C2515 1.388 . S
C2514 C2513 1.366 . S
C2514 C2518 1.385 . S
C2515 H2490 0.951 . S
C2515 C2513 1.388 . S
C2515 C2516 1.366 . S
C2516 C2515 1.366 . S
C2516 C2517 1.414 . S
C2516 C2519 1.499 . S
C2517 H2491 0.950 . S
C2517 C2516 1.414 . S
C2517 C2518 1.374 . S
C2518 H2492 0.950 . S
C2518 C2514 1.385 . S
C2518 C2517 1.374 . S
C2519 C2516 1.499 . S
C2519 C2520 1.373 . S
C2519 C2521 1.389 . S
C2520 H2493 0.950 . S
C2520 C2506 1.377 . S
C2520 C2519 1.373 . S
C2521 C2505 1.377 . S
C2521 C2519 1.389 . S
C2521 C2522 1.524 . S
C2522 C2521 1.524 . S
C2522 C2523 1.397 . S
C2522 C2527 1.363 . S
C2523 H2494 0.950 . S
C2523 C2522 1.397 . S
C2523 C2524 1.334 . S
C2524 H2495 0.950 . S
C2524 C2523 1.334 . S
C2524 C2525 1.287 . S
C2525 C2524 1.287 . S
C2525 C2526 1.524 . S
C2525 H2528 0.999 . S
C2526 H2496 0.950 . S
C2526 C2525 1.524 . S
C2526 C2527 1.415 . S
C2527 H2497 0.950 . S
C2527 C2522 1.363 . S
C2527 C2526 1.415 . S
H2528 C2525 0.999 . S
H2529 C2510 0.913 . S
H2530 C2548 0.951 . S
H2531 C2550 0.951 . S
H2532 C2552 0.950 . S
H2533 C2553 0.950 . S
H2534 C2555 0.950 . S
H2535 C2558 0.950 . S
H2536 C2559 0.950 . S
H2537 C2561 0.950 . S
H2538 C2562 0.950 . S
H2539 C2563 0.951 . S
H2540 C2565 0.951 . S
H2541 C2567 0.950 . S
H2542 C2568 0.950 . S
H2543 C2570 0.950 . S
H2544 C2573 0.950 . S
H2545 C2574 0.950 . S
H2546 C2576 0.950 . S
H2547 C2577 0.950 . S
C2548 H2530 0.951 . S
C2548 C2549 1.366 . S
C2548 C2550 1.388 . S
C2549 C2548 1.366 . S
C2549 C2553 1.385 . S
C2550 H2531 0.951 . S
C2550 C2548 1.388 . S
C2550 C2551 1.366 . S
C2551 C2550 1.366 . S
C2551 C2552 1.414 . S
C2551 C2554 1.499 . S
C2552 H2532 0.950 . S
C2552 C2551 1.414 . S
C2552 C2553 1.374 . S
C2553 H2533 0.950 . S
C2553 C2549 1.385 . S
C2553 C2552 1.374 . S
C2554 C2551 1.499 . S
C2554 C2555 1.373 . S
C2554 C2556 1.389 . S
C2555 H2534 0.950 . S
C2555 C2554 1.373 . S
C2555 C2571 1.377 . S
C2556 C2554 1.389 . S
C2556 C2557 1.524 . S
C2556 C2570 1.377 . S
C2557 C2556 1.524 . S
C2557 C2558 1.397 . S
C2557 C2562 1.363 . S
C2558 H2535 0.950 . S
C2558 C2557 1.397 . S
C2558 C2559 1.334 . S
C2559 H2536 0.950 . S
C2559 C2558 1.334 . S
C2559 C2560 1.287 . S
C2560 C2559 1.287 . S
C2560 C2561 1.524 . S
C2560 H2579 0.913 . S
C2561 H2537 0.950 . S
C2561 C2560 1.524 . S
C2561 C2562 1.415 . S
C2562 H2538 0.950 . S
C2562 C2557 1.363 . S
C2562 C2561 1.415 . S
C2563 H2539 0.951 . S
C2563 C2564 1.366 . S
C2563 C2565 1.388 . S
C2564 C2563 1.366 . S
C2564 C2568 1.385 . S
C2565 H2540 0.951 . S
C2565 C2563 1.388 . S
C2565 C2566 1.366 . S
C2566 C2565 1.366 . S
C2566 C2567 1.414 . S
C2566 C2569 1.499 . S
C2567 H2541 0.950 . S
C2567 C2566 1.414 . S
C2567 C2568 1.374 . S
C2568 H2542 0.950 . S
C2568 C2564 1.385 . S
C2568 C2567 1.374 . S
C2569 C2566 1.499 . S
C2569 C2570 1.373 . S
C2569 C2571 1.389 . S
C2570 H2543 0.950 . S
C2570 C2556 1.377 . S
C2570 C2569 1.373 . S
C2571 C2555 1.377 . S
C2571 C2569 1.389 . S
C2571 C2572 1.524 . S
C2572 C2571 1.524 . S
C2572 C2573 1.397 . S
C2572 C2577 1.363 . S
C2573 H2544 0.950 . S
C2573 C2572 1.397 . S
C2573 C2574 1.334 . S
C2574 H2545 0.950 . S
C2574 C2573 1.334 . S
C2574 C2575 1.287 . S
C2575 C2574 1.287 . S
C2575 C2576 1.524 . S
C2575 H2578 0.999 . S
C2576 H2546 0.950 . S
C2576 C2575 1.524 . S
C2576 C2577 1.415 . S
C2577 H2547 0.950 . S
C2577 C2572 1.363 . S
C2577 C2576 1.415 . S
H2578 C2575 0.999 . S
H2579 C2560 0.913 . S
H2580 C2598 0.951 . S
H2581 C2600 0.951 . S
H2582 C2602 0.950 . S
H2583 C2603 0.950 . S
H2584 C2605 0.950 . S
H2585 C2608 0.950 . S
H2586 C2609 0.950 . S
H2587 C2611 0.950 . S
H2588 C2612 0.950 . S
H2589 C2613 0.951 . S
H2590 C2615 0.951 . S
H2591 C2617 0.950 . S
H2592 C2618 0.950 . S
H2593 C2620 0.950 . S
H2594 C2623 0.950 . S
H2595 C2624 0.950 . S
H2596 C2626 0.950 . S
H2597 C2627 0.950 . S
C2598 H2580 0.951 . S
C2598 C2599 1.366 . S
C2598 C2600 1.388 . S
C2599 C2598 1.366 . S
C2599 C2603 1.385 . S
C2600 H2581 0.951 . S
C2600 C2598 1.388 . S
C2600 C2601 1.366 . S
C2601 C2600 1.366 . S
C2601 C2602 1.414 . S
C2601 C2604 1.499 . S
C2602 H2582 0.950 . S
C2602 C2601 1.414 . S
C2602 C2603 1.374 . S
C2603 H2583 0.950 . S
C2603 C2599 1.385 . S
C2603 C2602 1.374 . S
C2604 C2601 1.499 . S
C2604 C2605 1.373 . S
C2604 C2606 1.389 . S
C2605 H2584 0.950 . S
C2605 C2604 1.373 . S
C2605 C2621 1.377 . S
C2606 C2604 1.389 . S
C2606 C2607 1.524 . S
C2606 C2620 1.377 . S
C2607 C2606 1.524 . S
C2607 C2608 1.397 . S
C2607 C2612 1.363 . S
C2608 H2585 0.950 . S
C2608 C2607 1.397 . S
C2608 C2609 1.334 . S
C2609 H2586 0.950 . S
C2609 C2608 1.334 . S
C2609 C2610 1.287 . S
C2610 C2609 1.287 . S
C2610 C2611 1.524 . S
C2610 H2629 0.913 . S
C2611 H2587 0.950 . S
C2611 C2610 1.524 . S
C2611 C2612 1.415 . S
C2612 H2588 0.950 . S
C2612 C2607 1.363 . S
C2612 C2611 1.415 . S
C2613 H2589 0.951 . S
C2613 C2614 1.366 . S
C2613 C2615 1.388 . S
C2614 C2613 1.366 . S
C2614 C2618 1.385 . S
C2615 H2590 0.951 . S
C2615 C2613 1.388 . S
C2615 C2616 1.366 . S
C2616 C2615 1.366 . S
C2616 C2617 1.414 . S
C2616 C2619 1.499 . S
C2617 H2591 0.950 . S
C2617 C2616 1.414 . S
C2617 C2618 1.374 . S
C2618 H2592 0.950 . S
C2618 C2614 1.385 . S
C2618 C2617 1.374 . S
C2619 C2616 1.499 . S
C2619 C2620 1.373 . S
C2619 C2621 1.389 . S
C2620 H2593 0.950 . S
C2620 C2606 1.377 . S
C2620 C2619 1.373 . S
C2621 C2605 1.377 . S
C2621 C2619 1.389 . S
C2621 C2622 1.524 . S
C2622 C2621 1.524 . S
C2622 C2623 1.397 . S
C2622 C2627 1.363 . S
C2623 H2594 0.950 . S
C2623 C2622 1.397 . S
C2623 C2624 1.334 . S
C2624 H2595 0.950 . S
C2624 C2623 1.334 . S
C2624 C2625 1.287 . S
C2625 C2624 1.287 . S
C2625 C2626 1.524 . S
C2625 H2628 0.999 . S
C2626 H2596 0.950 . S
C2626 C2625 1.524 . S
C2626 C2627 1.415 . S
C2627 H2597 0.950 . S
C2627 C2622 1.363 . S
C2627 C2626 1.415 . S
H2628 C2625 0.999 . S
H2629 C2610 0.913 . S
H2630 C2648 0.951 . S
H2631 C2650 0.951 . S
H2632 C2652 0.950 . S
H2633 C2653 0.950 . S
H2634 C2655 0.950 . S
H2635 C2658 0.950 . S
H2636 C2659 0.950 . S
H2637 C2661 0.950 . S
H2638 C2662 0.950 . S
H2639 C2663 0.951 . S
H2640 C2665 0.951 . S
H2641 C2667 0.950 . S
H2642 C2668 0.950 . S
H2643 C2670 0.950 . S
H2644 C2673 0.950 . S
H2645 C2674 0.950 . S
H2646 C2676 0.950 . S
H2647 C2677 0.950 . S
C2648 H2630 0.951 . S
C2648 C2649 1.366 . S
C2648 C2650 1.388 . S
C2649 C2648 1.366 . S
C2649 C2653 1.385 . S
C2650 H2631 0.951 . S
C2650 C2648 1.388 . S
C2650 C2651 1.366 . S
C2651 C2650 1.366 . S
C2651 C2652 1.414 . S
C2651 C2654 1.499 . S
C2652 H2632 0.950 . S
C2652 C2651 1.414 . S
C2652 C2653 1.374 . S
C2653 H2633 0.950 . S
C2653 C2649 1.385 . S
C2653 C2652 1.374 . S
C2654 C2651 1.499 . S
C2654 C2655 1.373 . S
C2654 C2656 1.389 . S
C2655 H2634 0.950 . S
C2655 C2654 1.373 . S
C2655 C2671 1.377 . S
C2656 C2654 1.389 . S
C2656 C2657 1.524 . S
C2656 C2670 1.377 . S
C2657 C2656 1.524 . S
C2657 C2658 1.397 . S
C2657 C2662 1.363 . S
C2658 H2635 0.950 . S
C2658 C2657 1.397 . S
C2658 C2659 1.334 . S
C2659 H2636 0.950 . S
C2659 C2658 1.334 . S
C2659 C2660 1.287 . S
C2660 C2659 1.287 . S
C2660 C2661 1.524 . S
C2660 H2679 0.913 . S
C2661 H2637 0.950 . S
C2661 C2660 1.524 . S
C2661 C2662 1.415 . S
C2662 H2638 0.950 . S
C2662 C2657 1.363 . S
C2662 C2661 1.415 . S
C2663 H2639 0.951 . S
C2663 C2664 1.366 . S
C2663 C2665 1.388 . S
C2664 C2663 1.366 . S
C2664 C2668 1.385 . S
C2665 H2640 0.951 . S
C2665 C2663 1.388 . S
C2665 C2666 1.366 . S
C2666 C2665 1.366 . S
C2666 C2667 1.414 . S
C2666 C2669 1.499 . S
C2667 H2641 0.950 . S
C2667 C2666 1.414 . S
C2667 C2668 1.374 . S
C2668 H2642 0.950 . S
C2668 C2664 1.385 . S
C2668 C2667 1.374 . S
C2669 C2666 1.499 . S
C2669 C2670 1.373 . S
C2669 C2671 1.389 . S
C2670 H2643 0.950 . S
C2670 C2656 1.377 . S
C2670 C2669 1.373 . S
C2671 C2655 1.377 . S
C2671 C2669 1.389 . S
C2671 C2672 1.524 . S
C2672 C2671 1.524 . S
C2672 C2673 1.397 . S
C2672 C2677 1.363 . S
C2673 H2644 0.950 . S
C2673 C2672 1.397 . S
C2673 C2674 1.334 . S
C2674 H2645 0.950 . S
C2674 C2673 1.334 . S
C2674 C2675 1.287 . S
C2675 C2674 1.287 . S
C2675 C2676 1.524 . S
C2675 H2678 0.999 . S
C2676 H2646 0.950 . S
C2676 C2675 1.524 . S
C2676 C2677 1.415 . S
C2677 H2647 0.950 . S
C2677 C2672 1.363 . S
C2677 C2676 1.415 . S
H2678 C2675 0.999 . S
H2679 C2660 0.913 . S
H2680 C2698 0.951 . S
H2681 C2700 0.951 . S
H2682 C2702 0.950 . S
H2683 C2703 0.950 . S
H2684 C2705 0.950 . S
H2685 C2708 0.950 . S
H2686 C2709 0.950 . S
H2687 C2711 0.950 . S
H2688 C2712 0.950 . S
H2689 C2713 0.951 . S
H2690 C2715 0.951 . S
H2691 C2717 0.950 . S
H2692 C2718 0.950 . S
H2693 C2720 0.950 . S
H2694 C2723 0.950 . S
H2695 C2724 0.950 . S
H2696 C2726 0.950 . S
H2697 C2727 0.950 . S
C2698 H2680 0.951 . S
C2698 C2699 1.366 . S
C2698 C2700 1.388 . S
C2699 C2698 1.366 . S
C2699 C2703 1.385 . S
C2700 H2681 0.951 . S
C2700 C2698 1.388 . S
C2700 C2701 1.366 . S
C2701 C2700 1.366 . S
C2701 C2702 1.414 . S
C2701 C2704 1.499 . S
C2702 H2682 0.950 . S
C2702 C2701 1.414 . S
C2702 C2703 1.374 . S
C2703 H2683 0.950 . S
C2703 C2699 1.385 . S
C2703 C2702 1.374 . S
C2704 C2701 1.499 . S
C2704 C2705 1.373 . S
C2704 C2706 1.389 . S
C2705 H2684 0.950 . S
C2705 C2704 1.373 . S
C2705 C2721 1.377 . S
C2706 C2704 1.389 . S
C2706 C2707 1.524 . S
C2706 C2720 1.377 . S
C2707 C2706 1.524 . S
C2707 C2708 1.397 . S
C2707 C2712 1.363 . S
C2708 H2685 0.950 . S
C2708 C2707 1.397 . S
C2708 C2709 1.334 . S
C2709 H2686 0.950 . S
C2709 C2708 1.334 . S
C2709 C2710 1.287 . S
C2710 C2709 1.287 . S
C2710 C2711 1.524 . S
C2710 H2729 0.913 . S
C2711 H2687 0.950 . S
C2711 C2710 1.524 . S
C2711 C2712 1.415 . S
C2712 H2688 0.950 . S
C2712 C2707 1.363 . S
C2712 C2711 1.415 . S
C2713 H2689 0.951 . S
C2713 C2714 1.366 . S
C2713 C2715 1.388 . S
C2714 C2713 1.366 . S
C2714 C2718 1.385 . S
C2715 H2690 0.951 . S
C2715 C2713 1.388 . S
C2715 C2716 1.366 . S
C2716 C2715 1.366 . S
C2716 C2717 1.414 . S
C2716 C2719 1.499 . S
C2717 H2691 0.950 . S
C2717 C2716 1.414 . S
C2717 C2718 1.374 . S
C2718 H2692 0.950 . S
C2718 C2714 1.385 . S
C2718 C2717 1.374 . S
C2719 C2716 1.499 . S
C2719 C2720 1.373 . S
C2719 C2721 1.389 . S
C2720 H2693 0.950 . S
C2720 C2706 1.377 . S
C2720 C2719 1.373 . S
C2721 C2705 1.377 . S
C2721 C2719 1.389 . S
C2721 C2722 1.524 . S
C2722 C2721 1.524 . S
C2722 C2723 1.397 . S
C2722 C2727 1.363 . S
C2723 H2694 0.950 . S
C2723 C2722 1.397 . S
C2723 C2724 1.334 . S
C2724 H2695 0.950 . S
C2724 C2723 1.334 . S
C2724 C2725 1.287 . S
C2725 C2724 1.287 . S
C2725 C2726 1.524 . S
C2725 H2728 0.999 . S
C2726 H2696 0.950 . S
C2726 C2725 1.524 . S
C2726 C2727 1.415 . S
C2727 H2697 0.950 . S
C2727 C2722 1.363 . S
C2727 C2726 1.415 . S
H2728 C2725 0.999 . S
H2729 C2710 0.913 . S
H2730 C2748 0.951 . S
H2731 C2750 0.951 . S
H2732 C2752 0.950 . S
H2733 C2753 0.950 . S
H2734 C2755 0.950 . S
H2735 C2758 0.950 . S
H2736 C2759 0.950 . S
H2737 C2761 0.950 . S
H2738 C2762 0.950 . S
H2739 C2763 0.951 . S
H2740 C2765 0.951 . S
H2741 C2767 0.950 . S
H2742 C2768 0.950 . S
H2743 C2770 0.950 . S
H2744 C2773 0.950 . S
H2745 C2774 0.950 . S
H2746 C2776 0.950 . S
H2747 C2777 0.950 . S
C2748 H2730 0.951 . S
C2748 C2749 1.366 . S
C2748 C2750 1.388 . S
C2749 C2748 1.366 . S
C2749 C2753 1.385 . S
C2750 H2731 0.951 . S
C2750 C2748 1.388 . S
C2750 C2751 1.366 . S
C2751 C2750 1.366 . S
C2751 C2752 1.414 . S
C2751 C2754 1.499 . S
C2752 H2732 0.950 . S
C2752 C2751 1.414 . S
C2752 C2753 1.374 . S
C2753 H2733 0.950 . S
C2753 C2749 1.385 . S
C2753 C2752 1.374 . S
C2754 C2751 1.499 . S
C2754 C2755 1.373 . S
C2754 C2756 1.389 . S
C2755 H2734 0.950 . S
C2755 C2754 1.373 . S
C2755 C2771 1.377 . S
C2756 C2754 1.389 . S
C2756 C2757 1.524 . S
C2756 C2770 1.377 . S
C2757 C2756 1.524 . S
C2757 C2758 1.397 . S
C2757 C2762 1.363 . S
C2758 H2735 0.950 . S
C2758 C2757 1.397 . S
C2758 C2759 1.334 . S
C2759 H2736 0.950 . S
C2759 C2758 1.334 . S
C2759 C2760 1.287 . S
C2760 C2759 1.287 . S
C2760 C2761 1.524 . S
C2760 H2779 0.913 . S
C2761 H2737 0.950 . S
C2761 C2760 1.524 . S
C2761 C2762 1.415 . S
C2762 H2738 0.950 . S
C2762 C2757 1.363 . S
C2762 C2761 1.415 . S
C2763 H2739 0.951 . S
C2763 C2764 1.366 . S
C2763 C2765 1.388 . S
C2764 C2763 1.366 . S
C2764 C2768 1.385 . S
C2765 H2740 0.951 . S
C2765 C2763 1.388 . S
C2765 C2766 1.366 . S
C2766 C2765 1.366 . S
C2766 C2767 1.414 . S
C2766 C2769 1.499 . S
C2767 H2741 0.950 . S
C2767 C2766 1.414 . S
C2767 C2768 1.374 . S
C2768 H2742 0.950 . S
C2768 C2764 1.385 . S
C2768 C2767 1.374 . S
C2769 C2766 1.499 . S
C2769 C2770 1.373 . S
C2769 C2771 1.389 . S
C2770 H2743 0.950 . S
C2770 C2756 1.377 . S
C2770 C2769 1.373 . S
C2771 C2755 1.377 . S
C2771 C2769 1.389 . S
C2771 C2772 1.524 . S
C2772 C2771 1.524 . S
C2772 C2773 1.397 . S
C2772 C2777 1.363 . S
C2773 H2744 0.950 . S
C2773 C2772 1.397 . S
C2773 C2774 1.334 . S
C2774 H2745 0.950 . S
C2774 C2773 1.334 . S
C2774 C2775 1.287 . S
C2775 C2774 1.287 . S
C2775 C2776 1.524 . S
C2775 H2778 0.999 . S
C2776 H2746 0.950 . S
C2776 C2775 1.524 . S
C2776 C2777 1.415 . S
C2777 H2747 0.950 . S
C2777 C2772 1.363 . S
C2777 C2776 1.415 . S
H2778 C2775 0.999 . S
H2779 C2760 0.913 . S
H2780 C2798 0.951 . S
H2781 C2800 0.951 . S
H2782 C2802 0.950 . S
H2783 C2803 0.950 . S
H2784 C2805 0.950 . S
H2785 C2808 0.950 . S
H2786 C2809 0.950 . S
H2787 C2811 0.950 . S
H2788 C2812 0.950 . S
H2789 C2813 0.951 . S
H2790 C2815 0.951 . S
H2791 C2817 0.950 . S
H2792 C2818 0.950 . S
H2793 C2820 0.950 . S
H2794 C2823 0.950 . S
H2795 C2824 0.950 . S
H2796 C2826 0.950 . S
H2797 C2827 0.950 . S
C2798 H2780 0.951 . S
C2798 C2799 1.366 . S
C2798 C2800 1.388 . S
C2799 C2798 1.366 . S
C2799 C2803 1.385 . S
C2800 H2781 0.951 . S
C2800 C2798 1.388 . S
C2800 C2801 1.366 . S
C2801 C2800 1.366 . S
C2801 C2802 1.414 . S
C2801 C2804 1.499 . S
C2802 H2782 0.950 . S
C2802 C2801 1.414 . S
C2802 C2803 1.374 . S
C2803 H2783 0.950 . S
C2803 C2799 1.385 . S
C2803 C2802 1.374 . S
C2804 C2801 1.499 . S
C2804 C2805 1.373 . S
C2804 C2806 1.389 . S
C2805 H2784 0.950 . S
C2805 C2804 1.373 . S
C2805 C2821 1.377 . S
C2806 C2804 1.389 . S
C2806 C2807 1.524 . S
C2806 C2820 1.377 . S
C2807 C2806 1.524 . S
C2807 C2808 1.397 . S
C2807 C2812 1.363 . S
C2808 H2785 0.950 . S
C2808 C2807 1.397 . S
C2808 C2809 1.334 . S
C2809 H2786 0.950 . S
C2809 C2808 1.334 . S
C2809 C2810 1.287 . S
C2810 C2809 1.287 . S
C2810 C2811 1.524 . S
C2810 H2829 0.913 . S
C2811 H2787 0.950 . S
C2811 C2810 1.524 . S
C2811 C2812 1.415 . S
C2812 H2788 0.950 . S
C2812 C2807 1.363 . S
C2812 C2811 1.415 . S
C2813 H2789 0.951 . S
C2813 C2814 1.366 . S
C2813 C2815 1.388 . S
C2814 C2813 1.366 . S
C2814 C2818 1.385 . S
C2815 H2790 0.951 . S
C2815 C2813 1.388 . S
C2815 C2816 1.366 . S
C2816 C2815 1.366 . S
C2816 C2817 1.414 . S
C2816 C2819 1.499 . S
C2817 H2791 0.950 . S
C2817 C2816 1.414 . S
C2817 C2818 1.374 . S
C2818 H2792 0.950 . S
C2818 C2814 1.385 . S
C2818 C2817 1.374 . S
C2819 C2816 1.499 . S
C2819 C2820 1.373 . S
C2819 C2821 1.389 . S
C2820 H2793 0.950 . S
C2820 C2806 1.377 . S
C2820 C2819 1.373 . S
C2821 C2805 1.377 . S
C2821 C2819 1.389 . S
C2821 C2822 1.524 . S
C2822 C2821 1.524 . S
C2822 C2823 1.397 . S
C2822 C2827 1.363 . S
C2823 H2794 0.950 . S
C2823 C2822 1.397 . S
C2823 C2824 1.334 . S
C2824 H2795 0.950 . S
C2824 C2823 1.334 . S
C2824 C2825 1.287 . S
C2825 C2824 1.287 . S
C2825 C2826 1.524 . S
C2825 H2828 0.999 . S
C2826 H2796 0.950 . S
C2826 C2825 1.524 . S
C2826 C2827 1.415 . S
C2827 H2797 0.950 . S
C2827 C2822 1.363 . S
C2827 C2826 1.415 . S
H2828 C2825 0.999 . S
H2829 C2810 0.913 . S
H2830 C2848 0.951 . S
H2831 C2850 0.951 . S
H2832 C2852 0.950 . S
H2833 C2853 0.950 . S
H2834 C2855 0.950 . S
H2835 C2858 0.950 . S
H2836 C2859 0.950 . S
H2837 C2861 0.950 . S
H2838 C2862 0.950 . S
H2839 C2863 0.951 . S
H2840 C2865 0.951 . S
H2841 C2867 0.950 . S
H2842 C2868 0.950 . S
H2843 C2870 0.950 . S
H2844 C2873 0.950 . S
H2845 C2874 0.950 . S
H2846 C2876 0.950 . S
H2847 C2877 0.950 . S
C2848 H2830 0.951 . S
C2848 C2849 1.366 . S
C2848 C2850 1.388 . S
C2849 C2848 1.366 . S
C2849 C2853 1.385 . S
C2850 H2831 0.951 . S
C2850 C2848 1.388 . S
C2850 C2851 1.366 . S
C2851 C2850 1.366 . S
C2851 C2852 1.414 . S
C2851 C2854 1.499 . S
C2852 H2832 0.950 . S
C2852 C2851 1.414 . S
C2852 C2853 1.374 . S
C2853 H2833 0.950 . S
C2853 C2849 1.385 . S
C2853 C2852 1.374 . S
C2854 C2851 1.499 . S
C2854 C2855 1.373 . S
C2854 C2856 1.389 . S
C2855 H2834 0.950 . S
C2855 C2854 1.373 . S
C2855 C2871 1.377 . S
C2856 C2854 1.389 . S
C2856 C2857 1.524 . S
C2856 C2870 1.377 . S
C2857 C2856 1.524 . S
C2857 C2858 1.397 . S
C2857 C2862 1.363 . S
C2858 H2835 0.950 . S
C2858 C2857 1.397 . S
C2858 C2859 1.334 . S
C2859 H2836 0.950 . S
C2859 C2858 1.334 . S
C2859 C2860 1.287 . S
C2860 C2859 1.287 . S
C2860 C2861 1.524 . S
C2860 H2879 0.913 . S
C2861 H2837 0.950 . S
C2861 C2860 1.524 . S
C2861 C2862 1.415 . S
C2862 H2838 0.950 . S
C2862 C2857 1.363 . S
C2862 C2861 1.415 . S
C2863 H2839 0.951 . S
C2863 C2864 1.366 . S
C2863 C2865 1.388 . S
C2864 C2863 1.366 . S
C2864 C2868 1.385 . S
C2865 H2840 0.951 . S
C2865 C2863 1.388 . S
C2865 C2866 1.366 . S
C2866 C2865 1.366 . S
C2866 C2867 1.414 . S
C2866 C2869 1.499 . S
C2867 H2841 0.950 . S
C2867 C2866 1.414 . S
C2867 C2868 1.374 . S
C2868 H2842 0.950 . S
C2868 C2864 1.385 . S
C2868 C2867 1.374 . S
C2869 C2866 1.499 . S
C2869 C2870 1.373 . S
C2869 C2871 1.389 . S
C2870 H2843 0.950 . S
C2870 C2856 1.377 . S
C2870 C2869 1.373 . S
C2871 C2855 1.377 . S
C2871 C2869 1.389 . S
C2871 C2872 1.524 . S
C2872 C2871 1.524 . S
C2872 C2873 1.397 . S
C2872 C2877 1.363 . S
C2873 H2844 0.950 . S
C2873 C2872 1.397 . S
C2873 C2874 1.334 . S
C2874 H2845 0.950 . S
C2874 C2873 1.334 . S
C2874 C2875 1.287 . S
C2875 C2874 1.287 . S
C2875 C2876 1.524 . S
C2875 H2878 0.999 . S
C2876 H2846 0.950 . S
C2876 C2875 1.524 . S
C2876 C2877 1.415 . S
C2877 H2847 0.950 . S
C2877 C2872 1.363 . S
C2877 C2876 1.415 . S
H2878 C2875 0.999 . S
H2879 C2860 0.913 . S
H2880 C2898 0.951 . S
H2881 C2900 0.951 . S
H2882 C2902 0.950 . S
H2883 C2903 0.950 . S
H2884 C2905 0.950 . S
H2885 C2908 0.950 . S
H2886 C2909 0.950 . S
H2887 C2911 0.950 . S
H2888 C2912 0.950 . S
H2889 C2913 0.951 . S
H2890 C2915 0.951 . S
H2891 C2917 0.950 . S
H2892 C2918 0.950 . S
H2893 C2920 0.950 . S
H2894 C2923 0.950 . S
H2895 C2924 0.950 . S
H2896 C2926 0.950 . S
H2897 C2927 0.950 . S
C2898 H2880 0.951 . S
C2898 C2899 1.366 . S
C2898 C2900 1.388 . S
C2899 C2898 1.366 . S
C2899 C2903 1.385 . S
C2900 H2881 0.951 . S
C2900 C2898 1.388 . S
C2900 C2901 1.366 . S
C2901 C2900 1.366 . S
C2901 C2902 1.414 . S
C2901 C2904 1.499 . S
C2902 H2882 0.950 . S
C2902 C2901 1.414 . S
C2902 C2903 1.374 . S
C2903 H2883 0.950 . S
C2903 C2899 1.385 . S
C2903 C2902 1.374 . S
C2904 C2901 1.499 . S
C2904 C2905 1.373 . S
C2904 C2906 1.389 . S
C2905 H2884 0.950 . S
C2905 C2904 1.373 . S
C2905 C2921 1.377 1_455 S
C2906 C2904 1.389 . S
C2906 C2907 1.524 . S
C2906 C2920 1.377 1_455 S
C2907 C2906 1.524 . S
C2907 C2908 1.397 . S
C2907 C2912 1.363 . S
C2908 H2885 0.950 . S
C2908 C2907 1.397 . S
C2908 C2909 1.334 . S
C2909 H2886 0.950 . S
C2909 C2908 1.334 . S
C2909 C2910 1.287 . S
C2910 C2909 1.287 . S
C2910 C2911 1.524 . S
C2910 H2929 0.913 . S
C2911 H2887 0.950 . S
C2911 C2910 1.524 . S
C2911 C2912 1.415 . S
C2912 H2888 0.950 . S
C2912 C2907 1.363 . S
C2912 C2911 1.415 . S
C2913 H2889 0.951 . S
C2913 C2914 1.366 . S
C2913 C2915 1.388 . S
C2914 C2913 1.366 . S
C2914 C2918 1.385 . S
C2915 H2890 0.951 . S
C2915 C2913 1.388 . S
C2915 C2916 1.366 . S
C2916 C2915 1.366 . S
C2916 C2917 1.414 . S
C2916 C2919 1.499 . S
C2917 H2891 0.950 . S
C2917 C2916 1.414 . S
C2917 C2918 1.374 . S
C2918 H2892 0.950 . S
C2918 C2914 1.385 . S
C2918 C2917 1.374 . S
C2919 C2916 1.499 . S
C2919 C2920 1.373 . S
C2919 C2921 1.389 . S
C2920 H2893 0.950 . S
C2920 C2906 1.377 1_655 S
C2920 C2919 1.373 . S
C2921 C2905 1.377 1_655 S
C2921 C2919 1.389 . S
C2921 C2922 1.524 . S
C2922 C2921 1.524 . S
C2922 C2923 1.397 . S
C2922 C2927 1.363 . S
C2923 H2894 0.950 . S
C2923 C2922 1.397 . S
C2923 C2924 1.334 . S
C2924 H2895 0.950 . S
C2924 C2923 1.334 . S
C2924 C2925 1.287 . S
C2925 C2924 1.287 . S
C2925 C2926 1.524 . S
C2925 H2928 0.999 . S
C2926 H2896 0.950 . S
C2926 C2925 1.524 . S
C2926 C2927 1.415 . S
C2927 H2897 0.950 . S
C2927 C2922 1.363 . S
C2927 C2926 1.415 . S
H2928 C2925 0.999 . S
H2929 C2910 0.913 . S
H2930 C2948 0.951 . S
H2931 C2950 0.951 . S
H2932 C2952 0.950 . S
H2933 C2953 0.950 . S
H2934 C2955 0.950 . S
H2935 C2958 0.950 . S
H2936 C2959 0.950 . S
H2937 C2961 0.950 . S
H2938 C2962 0.950 . S
H2939 C2963 0.951 . S
H2940 C2965 0.951 . S
H2941 C2967 0.950 . S
H2942 C2968 0.950 . S
H2943 C2970 0.950 . S
H2944 C2973 0.950 . S
H2945 C2974 0.950 . S
H2946 C2976 0.950 . S
H2947 C2977 0.950 . S
C2948 H2930 0.951 . S
C2948 C2949 1.366 . S
C2948 C2950 1.388 . S
C2949 C2948 1.366 . S
C2949 C2953 1.385 1_655 S
C2950 H2931 0.951 . S
C2950 C2948 1.388 . S
C2950 C2951 1.366 . S
C2951 C2950 1.366 . S
C2951 C2952 1.414 1_655 S
C2951 C2954 1.499 . S
C2952 H2932 0.950 . S
C2952 C2951 1.414 1_455 S
C2952 C2953 1.374 . S
C2953 H2933 0.950 . S
C2953 C2949 1.385 1_455 S
C2953 C2952 1.374 . S
C2954 C2951 1.499 . S
C2954 C2955 1.373 1_655 S
C2954 C2956 1.389 . S
C2955 H2934 0.950 . S
C2955 C2954 1.373 1_455 S
C2955 C2971 1.377 . S
C2956 C2954 1.389 . S
C2956 C2957 1.524 . S
C2956 C2970 1.377 . S
C2957 C2956 1.524 . S
C2957 C2958 1.397 . S
C2957 C2962 1.363 . S
C2958 H2935 0.950 . S
C2958 C2957 1.397 . S
C2958 C2959 1.334 . S
C2959 H2936 0.950 . S
C2959 C2958 1.334 . S
C2959 C2960 1.287 . S
C2960 C2959 1.287 . S
C2960 C2961 1.524 . S
C2960 H2979 0.913 . S
C2961 H2937 0.950 . S
C2961 C2960 1.524 . S
C2961 C2962 1.415 . S
C2962 H2938 0.950 . S
C2962 C2957 1.363 . S
C2962 C2961 1.415 . S
C2963 H2939 0.951 . S
C2963 C2964 1.366 . S
C2963 C2965 1.388 . S
C2964 C2963 1.366 . S
C2964 C2968 1.385 1_455 S
C2965 H2940 0.951 . S
C2965 C2963 1.388 . S
C2965 C2966 1.366 . S
C2966 C2965 1.366 . S
C2966 C2967 1.414 1_455 S
C2966 C2969 1.499 . S
C2967 H2941 0.950 . S
C2967 C2966 1.414 1_655 S
C2967 C2968 1.374 . S
C2968 H2942 0.950 . S
C2968 C2964 1.385 1_655 S
C2968 C2967 1.374 . S
C2969 C2966 1.499 . S
C2969 C2970 1.373 1_455 S
C2969 C2971 1.389 . S
C2970 H2943 0.950 . S
C2970 C2956 1.377 . S
C2970 C2969 1.373 1_655 S
C2971 C2955 1.377 . S
C2971 C2969 1.389 . S
C2971 C2972 1.524 . S
C2972 C2971 1.524 . S
C2972 C2973 1.397 . S
C2972 C2977 1.363 . S
C2973 H2944 0.950 . S
C2973 C2972 1.397 . S
C2973 C2974 1.334 . S
C2974 H2945 0.950 . S
C2974 C2973 1.334 . S
C2974 C2975 1.287 . S
C2975 C2974 1.287 . S
C2975 C2976 1.524 . S
C2975 H2978 0.999 . S
C2976 H2946 0.950 . S
C2976 C2975 1.524 . S
C2976 C2977 1.415 . S
C2977 H2947 0.950 . S
C2977 C2972 1.363 . S
C2977 C2976 1.415 . S
H2978 C2975 0.999 . S
H2979 C2960 0.913 . S
H2980 C2998 0.951 . S
H2981 C3000 0.951 . S
H2982 C3002 0.950 . S
H2983 C3003 0.950 . S
H2984 C3005 0.950 . S
H2985 C3008 0.950 . S
H2986 C3009 0.950 . S
H2987 C3011 0.950 . S
H2988 C3012 0.950 . S
H2989 C3013 0.951 . S
H2990 C3015 0.951 . S
H2991 C3017 0.950 . S
H2992 C3018 0.950 . S
H2993 C3020 0.950 . S
H2994 C3023 0.950 . S
H2995 C3024 0.950 . S
H2996 C3026 0.950 . S
H2997 C3027 0.950 . S
C2998 H2980 0.951 . S
C2998 C2999 1.366 . S
C2998 C3000 1.388 . S
C2999 C2998 1.366 . S
C2999 C3003 1.385 . S
C3000 H2981 0.951 . S
C3000 C2998 1.388 . S
C3000 C3001 1.366 . S
C3001 C3000 1.366 . S
C3001 C3002 1.414 . S
C3001 C3004 1.499 . S
C3002 H2982 0.950 . S
C3002 C3001 1.414 . S
C3002 C3003 1.374 . S
C3003 H2983 0.950 . S
C3003 C2999 1.385 . S
C3003 C3002 1.374 . S
C3004 C3001 1.499 . S
C3004 C3005 1.373 . S
C3004 C3006 1.389 . S
C3005 H2984 0.950 . S
C3005 C3004 1.373 . S
C3005 C3021 1.377 . S
C3006 C3004 1.389 . S
C3006 C3007 1.524 . S
C3006 C3020 1.377 . S
C3007 C3006 1.524 . S
C3007 C3008 1.397 . S
C3007 C3012 1.363 . S
C3008 H2985 0.950 . S
C3008 C3007 1.397 . S
C3008 C3009 1.334 . S
C3009 H2986 0.950 . S
C3009 C3008 1.334 . S
C3009 C3010 1.287 . S
C3010 C3009 1.287 . S
C3010 C3011 1.524 . S
C3010 H3029 0.913 . S
C3011 H2987 0.950 . S
C3011 C3010 1.524 . S
C3011 C3012 1.415 . S
C3012 H2988 0.950 . S
C3012 C3007 1.363 . S
C3012 C3011 1.415 . S
C3013 H2989 0.951 . S
C3013 C3014 1.366 . S
C3013 C3015 1.388 . S
C3014 C3013 1.366 . S
C3014 C3018 1.385 . S
C3015 H2990 0.951 . S
C3015 C3013 1.388 . S
C3015 C3016 1.366 . S
C3016 C3015 1.366 . S
C3016 C3017 1.414 . S
C3016 C3019 1.499 . S
C3017 H2991 0.950 . S
C3017 C3016 1.414 . S
C3017 C3018 1.374 . S
C3018 H2992 0.950 . S
C3018 C3014 1.385 . S
C3018 C3017 1.374 . S
C3019 C3016 1.499 . S
C3019 C3020 1.373 . S
C3019 C3021 1.389 . S
C3020 H2993 0.950 . S
C3020 C3006 1.377 . S
C3020 C3019 1.373 . S
C3021 C3005 1.377 . S
C3021 C3019 1.389 . S
C3021 C3022 1.524 . S
C3022 C3021 1.524 . S
C3022 C3023 1.397 . S
C3022 C3027 1.363 . S
C3023 H2994 0.950 . S
C3023 C3022 1.397 . S
C3023 C3024 1.334 . S
C3024 H2995 0.950 . S
C3024 C3023 1.334 . S
C3024 C3025 1.287 . S
C3025 C3024 1.287 . S
C3025 C3026 1.524 . S
C3025 H3028 0.999 . S
C3026 H2996 0.950 . S
C3026 C3025 1.524 . S
C3026 C3027 1.415 . S
C3027 H2997 0.950 . S
C3027 C3022 1.363 . S
C3027 C3026 1.415 . S
H3028 C3025 0.999 . S
H3029 C3010 0.913 . S
H3030 C3048 0.951 . S
H3031 C3050 0.951 . S
H3032 C3052 0.950 . S
H3033 C3053 0.950 . S
H3034 C3055 0.950 . S
H3035 C3058 0.950 . S
H3036 C3059 0.950 . S
H3037 C3061 0.950 . S
H3038 C3062 0.950 . S
H3039 C3063 0.951 . S
H3040 C3065 0.951 . S
H3041 C3067 0.950 . S
H3042 C3068 0.950 . S
H3043 C3070 0.950 . S
H3044 C3073 0.950 . S
H3045 C3074 0.950 . S
H3046 C3076 0.950 . S
H3047 C3077 0.950 . S
C3048 H3030 0.951 . S
C3048 C3049 1.366 . S
C3048 C3050 1.388 . S
C3049 C3048 1.366 . S
C3049 C3053 1.385 . S
C3050 H3031 0.951 . S
C3050 C3048 1.388 . S
C3050 C3051 1.366 . S
C3051 C3050 1.366 . S
C3051 C3052 1.414 . S
C3051 C3054 1.499 . S
C3052 H3032 0.950 . S
C3052 C3051 1.414 . S
C3052 C3053 1.374 . S
C3053 H3033 0.950 . S
C3053 C3049 1.385 . S
C3053 C3052 1.374 . S
C3054 C3051 1.499 . S
C3054 C3055 1.373 . S
C3054 C3056 1.389 . S
C3055 H3034 0.950 . S
C3055 C3054 1.373 . S
C3055 C3071 1.377 . S
C3056 C3054 1.389 . S
C3056 C3057 1.524 . S
C3056 C3070 1.377 . S
C3057 C3056 1.524 . S
C3057 C3058 1.397 . S
C3057 C3062 1.363 . S
C3058 H3035 0.950 . S
C3058 C3057 1.397 . S
C3058 C3059 1.334 . S
C3059 H3036 0.950 . S
C3059 C3058 1.334 . S
C3059 C3060 1.287 . S
C3060 C3059 1.287 . S
C3060 C3061 1.524 . S
C3060 H3079 0.913 . S
C3061 H3037 0.950 . S
C3061 C3060 1.524 . S
C3061 C3062 1.415 . S
C3062 H3038 0.950 . S
C3062 C3057 1.363 . S
C3062 C3061 1.415 . S
C3063 H3039 0.951 . S
C3063 C3064 1.366 . S
C3063 C3065 1.388 . S
C3064 C3063 1.366 . S
C3064 C3068 1.385 . S
C3065 H3040 0.951 . S
C3065 C3063 1.388 . S
C3065 C3066 1.366 . S
C3066 C3065 1.366 . S
C3066 C3067 1.414 . S
C3066 C3069 1.499 . S
C3067 H3041 0.950 . S
C3067 C3066 1.414 . S
C3067 C3068 1.374 . S
C3068 H3042 0.950 . S
C3068 C3064 1.385 . S
C3068 C3067 1.374 . S
C3069 C3066 1.499 . S
C3069 C3070 1.373 . S
C3069 C3071 1.389 . S
C3070 H3043 0.950 . S
C3070 C3056 1.377 . S
C3070 C3069 1.373 . S
C3071 C3055 1.377 . S
C3071 C3069 1.389 . S
C3071 C3072 1.524 . S
C3072 C3071 1.524 . S
C3072 C3073 1.397 . S
C3072 C3077 1.363 . S
C3073 H3044 0.950 . S
C3073 C3072 1.397 . S
C3073 C3074 1.334 . S
C3074 H3045 0.950 . S
C3074 C3073 1.334 . S
C3074 C3075 1.287 . S
C3075 C3074 1.287 . S
C3075 C3076 1.524 . S
C3075 H3078 0.999 . S
C3076 H3046 0.950 . S
C3076 C3075 1.524 . S
C3076 C3077 1.415 . S
C3077 H3047 0.950 . S
C3077 C3072 1.363 . S
C3077 C3076 1.415 . S
H3078 C3075 0.999 . S
H3079 C3060 0.913 . S
H3080 C3098 0.951 . S
H3081 C3100 0.951 . S
H3082 C3102 0.950 . S
H3083 C3103 0.950 . S
H3084 C3105 0.950 . S
H3085 C3108 0.950 . S
H3086 C3109 0.950 . S
H3087 C3111 0.950 . S
H3088 C3112 0.950 1_455 S
H3089 C3113 0.951 . S
H3090 C3115 0.951 . S
H3091 C3117 0.950 . S
H3092 C3118 0.950 . S
H3093 C3120 0.950 . S
H3094 C3123 0.950 . S
H3095 C3124 0.950 . S
H3096 C3126 0.950 . S
H3097 C3127 0.950 1_655 S
C3098 H3080 0.951 . S
C3098 C3099 1.366 . S
C3098 C3100 1.388 . S
C3099 C3098 1.366 . S
C3099 C3103 1.385 . S
C3100 H3081 0.951 . S
C3100 C3098 1.388 . S
C3100 C3101 1.366 . S
C3101 C3100 1.366 . S
C3101 C3102 1.414 . S
C3101 C3104 1.499 . S
C3102 H3082 0.950 . S
C3102 C3101 1.414 . S
C3102 C3103 1.374 . S
C3103 H3083 0.950 . S
C3103 C3099 1.385 . S
C3103 C3102 1.374 . S
C3104 C3101 1.499 . S
C3104 C3105 1.373 . S
C3104 C3106 1.389 . S
C3105 H3084 0.950 . S
C3105 C3104 1.373 . S
C3105 C3121 1.377 1_655 S
C3106 C3104 1.389 . S
C3106 C3107 1.524 . S
C3106 C3120 1.377 1_655 S
C3107 C3106 1.524 . S
C3107 C3108 1.397 . S
C3107 C3112 1.363 . S
C3108 H3085 0.950 . S
C3108 C3107 1.397 . S
C3108 C3109 1.334 . S
C3109 H3086 0.950 . S
C3109 C3108 1.334 . S
C3109 C3110 1.287 . S
C3110 C3109 1.287 . S
C3110 C3111 1.524 . S
C3110 H3129 0.913 . S
C3111 H3087 0.950 . S
C3111 C3110 1.524 . S
C3111 C3112 1.415 . S
C3112 H3088 0.950 1_655 S
C3112 C3107 1.363 . S
C3112 C3111 1.415 . S
C3113 H3089 0.951 . S
C3113 C3114 1.366 . S
C3113 C3115 1.388 . S
C3114 C3113 1.366 . S
C3114 C3118 1.385 . S
C3115 H3090 0.951 . S
C3115 C3113 1.388 . S
C3115 C3116 1.366 . S
C3116 C3115 1.366 . S
C3116 C3117 1.414 . S
C3116 C3119 1.499 . S
C3117 H3091 0.950 . S
C3117 C3116 1.414 . S
C3117 C3118 1.374 . S
C3118 H3092 0.950 . S
C3118 C3114 1.385 . S
C3118 C3117 1.374 . S
C3119 C3116 1.499 . S
C3119 C3120 1.373 . S
C3119 C3121 1.389 . S
C3120 H3093 0.950 . S
C3120 C3106 1.377 1_455 S
C3120 C3119 1.373 . S
C3121 C3105 1.377 1_455 S
C3121 C3119 1.389 . S
C3121 C3122 1.524 . S
C3122 C3121 1.524 . S
C3122 C3123 1.397 . S
C3122 C3127 1.363 . S
C3123 H3094 0.950 . S
C3123 C3122 1.397 . S
C3123 C3124 1.334 . S
C3124 H3095 0.950 . S
C3124 C3123 1.334 . S
C3124 C3125 1.287 . S
C3125 C3124 1.287 . S
C3125 C3126 1.524 . S
C3125 H3128 0.999 . S
C3126 H3096 0.950 . S
C3126 C3125 1.524 . S
C3126 C3127 1.415 . S
C3127 H3097 0.950 1_455 S
C3127 C3122 1.363 . S
C3127 C3126 1.415 . S
H3128 C3125 0.999 . S
H3129 C3110 0.913 . S
H3130 C3148 0.951 . S
H3131 C3150 0.951 . S
H3132 C3152 0.950 . S
H3133 C3153 0.950 . S
H3134 C3155 0.950 . S
H3135 C3158 0.950 . S
H3136 C3159 0.950 . S
H3137 C3161 0.950 . S
H3138 C3162 0.950 . S
H3139 C3163 0.951 . S
H3140 C3165 0.951 . S
H3141 C3167 0.950 . S
H3142 C3168 0.950 . S
H3143 C3170 0.950 . S
H3144 C3173 0.950 . S
H3145 C3174 0.950 . S
H3146 C3176 0.950 . S
H3147 C3177 0.950 . S
C3148 H3130 0.951 . S
C3148 C3149 1.366 . S
C3148 C3150 1.388 . S
C3149 C3148 1.366 . S
C3149 C3153 1.385 . S
C3150 H3131 0.951 . S
C3150 C3148 1.388 . S
C3150 C3151 1.366 . S
C3151 C3150 1.366 . S
C3151 C3152 1.414 . S
C3151 C3154 1.499 . S
C3152 H3132 0.950 . S
C3152 C3151 1.414 . S
C3152 C3153 1.374 . S
C3153 H3133 0.950 . S
C3153 C3149 1.385 . S
C3153 C3152 1.374 . S
C3154 C3151 1.499 . S
C3154 C3155 1.373 . S
C3154 C3156 1.389 . S
C3155 H3134 0.950 . S
C3155 C3154 1.373 . S
C3155 C3171 1.377 . S
C3156 C3154 1.389 . S
C3156 C3157 1.524 . S
C3156 C3170 1.377 . S
C3157 C3156 1.524 . S
C3157 C3158 1.397 . S
C3157 C3162 1.363 . S
C3158 H3135 0.950 . S
C3158 C3157 1.397 . S
C3158 C3159 1.334 . S
C3159 H3136 0.950 . S
C3159 C3158 1.334 . S
C3159 C3160 1.287 . S
C3160 C3159 1.287 . S
C3160 C3161 1.524 . S
C3160 H3179 0.913 . S
C3161 H3137 0.950 . S
C3161 C3160 1.524 . S
C3161 C3162 1.415 . S
C3162 H3138 0.950 . S
C3162 C3157 1.363 . S
C3162 C3161 1.415 . S
C3163 H3139 0.951 . S
C3163 C3164 1.366 . S
C3163 C3165 1.388 . S
C3164 C3163 1.366 . S
C3164 C3168 1.385 . S
C3165 H3140 0.951 . S
C3165 C3163 1.388 . S
C3165 C3166 1.366 . S
C3166 C3165 1.366 . S
C3166 C3167 1.414 . S
C3166 C3169 1.499 . S
C3167 H3141 0.950 . S
C3167 C3166 1.414 . S
C3167 C3168 1.374 . S
C3168 H3142 0.950 . S
C3168 C3164 1.385 . S
C3168 C3167 1.374 . S
C3169 C3166 1.499 . S
C3169 C3170 1.373 . S
C3169 C3171 1.389 . S
C3170 H3143 0.950 . S
C3170 C3156 1.377 . S
C3170 C3169 1.373 . S
C3171 C3155 1.377 . S
C3171 C3169 1.389 . S
C3171 C3172 1.524 . S
C3172 C3171 1.524 . S
C3172 C3173 1.397 . S
C3172 C3177 1.363 . S
C3173 H3144 0.950 . S
C3173 C3172 1.397 . S
C3173 C3174 1.334 . S
C3174 H3145 0.950 . S
C3174 C3173 1.334 . S
C3174 C3175 1.287 . S
C3175 C3174 1.287 . S
C3175 C3176 1.524 . S
C3175 H3178 0.999 . S
C3176 H3146 0.950 . S
C3176 C3175 1.524 . S
C3176 C3177 1.415 . S
C3177 H3147 0.950 . S
C3177 C3172 1.363 . S
C3177 C3176 1.415 . S
H3178 C3175 0.999 . S
H3179 C3160 0.913 . S
H3180 C3198 0.951 . S
H3181 C3200 0.951 . S
H3182 C3202 0.950 . S
H3183 C3203 0.950 . S
H3184 C3205 0.950 . S
H3185 C3208 0.950 . S
H3186 C3209 0.950 . S
H3187 C3211 0.950 . S
H3188 C3212 0.950 . S
H3189 C3213 0.951 . S
H3190 C3215 0.951 . S
H3191 C3217 0.950 . S
H3192 C3218 0.950 . S
H3193 C3220 0.950 . S
H3194 C3223 0.950 . S
H3195 C3224 0.950 . S
H3196 C3226 0.950 . S
H3197 C3227 0.950 . S
C3198 H3180 0.951 . S
C3198 C3199 1.366 . S
C3198 C3200 1.388 . S
C3199 C3198 1.366 . S
C3199 C3203 1.385 . S
C3200 H3181 0.951 . S
C3200 C3198 1.388 . S
C3200 C3201 1.366 . S
C3201 C3200 1.366 . S
C3201 C3202 1.414 . S
C3201 C3204 1.499 . S
C3202 H3182 0.950 . S
C3202 C3201 1.414 . S
C3202 C3203 1.374 . S
C3203 H3183 0.950 . S
C3203 C3199 1.385 . S
C3203 C3202 1.374 . S
C3204 C3201 1.499 . S
C3204 C3205 1.373 . S
C3204 C3206 1.389 . S
C3205 H3184 0.950 . S
C3205 C3204 1.373 . S
C3205 C3221 1.377 . S
C3206 C3204 1.389 . S
C3206 C3207 1.524 . S
C3206 C3220 1.377 . S
C3207 C3206 1.524 . S
C3207 C3208 1.397 . S
C3207 C3212 1.363 . S
C3208 H3185 0.950 . S
C3208 C3207 1.397 . S
C3208 C3209 1.334 . S
C3209 H3186 0.950 . S
C3209 C3208 1.334 . S
C3209 C3210 1.287 . S
C3210 C3209 1.287 . S
C3210 C3211 1.524 . S
C3210 H3229 0.913 . S
C3211 H3187 0.950 . S
C3211 C3210 1.524 . S
C3211 C3212 1.415 . S
C3212 H3188 0.950 . S
C3212 C3207 1.363 . S
C3212 C3211 1.415 . S
C3213 H3189 0.951 . S
C3213 C3214 1.366 . S
C3213 C3215 1.388 . S
C3214 C3213 1.366 . S
C3214 C3218 1.385 . S
C3215 H3190 0.951 . S
C3215 C3213 1.388 . S
C3215 C3216 1.366 . S
C3216 C3215 1.366 . S
C3216 C3217 1.414 . S
C3216 C3219 1.499 . S
C3217 H3191 0.950 . S
C3217 C3216 1.414 . S
C3217 C3218 1.374 . S
C3218 H3192 0.950 . S
C3218 C3214 1.385 . S
C3218 C3217 1.374 . S
C3219 C3216 1.499 . S
C3219 C3220 1.373 . S
C3219 C3221 1.389 . S
C3220 H3193 0.950 . S
C3220 C3206 1.377 . S
C3220 C3219 1.373 . S
C3221 C3205 1.377 . S
C3221 C3219 1.389 . S
C3221 C3222 1.524 . S
C3222 C3221 1.524 . S
C3222 C3223 1.397 . S
C3222 C3227 1.363 . S
C3223 H3194 0.950 . S
C3223 C3222 1.397 . S
C3223 C3224 1.334 . S
C3224 H3195 0.950 . S
C3224 C3223 1.334 . S
C3224 C3225 1.287 . S
C3225 C3224 1.287 . S
C3225 C3226 1.524 . S
C3225 H3228 0.999 . S
C3226 H3196 0.950 . S
C3226 C3225 1.524 . S
C3226 C3227 1.415 . S
C3227 H3197 0.950 . S
C3227 C3222 1.363 . S
C3227 C3226 1.415 . S
H3228 C3225 0.999 . S
H3229 C3210 0.913 . S
H3230 C3248 0.951 . S
H3231 C3250 0.951 1_655 S
H3232 C3252 0.950 . S
H3233 C3253 0.950 . S
H3234 C3255 0.950 . S
H3235 C3258 0.950 . S
H3236 C3259 0.950 . S
H3237 C3261 0.950 . S
H3238 C3262 0.950 . S
H3239 C3263 0.951 . S
H3240 C3265 0.951 1_455 S
H3241 C3267 0.950 . S
H3242 C3268 0.950 . S
H3243 C3270 0.950 . S
H3244 C3273 0.950 . S
H3245 C3274 0.950 . S
H3246 C3276 0.950 . S
H3247 C3277 0.950 . S
C3248 H3230 0.951 . S
C3248 C3249 1.366 . S
C3248 C3250 1.388 . S
C3249 C3248 1.366 . S
C3249 C3253 1.385 . S
C3250 H3231 0.951 1_455 S
C3250 C3248 1.388 . S
C3250 C3251 1.366 . S
C3251 C3250 1.366 . S
C3251 C3252 1.414 . S
C3251 C3254 1.499 . S
C3252 H3232 0.950 . S
C3252 C3251 1.414 . S
C3252 C3253 1.374 . S
C3253 H3233 0.950 . S
C3253 C3249 1.385 . S
C3253 C3252 1.374 . S
C3254 C3251 1.499 . S
C3254 C3255 1.373 1_455 S
C3254 C3256 1.389 . S
C3255 H3234 0.950 . S
C3255 C3254 1.373 1_655 S
C3255 C3271 1.377 . S
C3256 C3254 1.389 . S
C3256 C3257 1.524 . S
C3256 C3270 1.377 . S
C3257 C3256 1.524 . S
C3257 C3258 1.397 . S
C3257 C3262 1.363 . S
C3258 H3235 0.950 . S
C3258 C3257 1.397 . S
C3258 C3259 1.334 . S
C3259 H3236 0.950 . S
C3259 C3258 1.334 . S
C3259 C3260 1.287 . S
C3260 C3259 1.287 . S
C3260 C3261 1.524 . S
C3260 H3279 0.913 . S
C3261 H3237 0.950 . S
C3261 C3260 1.524 . S
C3261 C3262 1.415 . S
C3262 H3238 0.950 . S
C3262 C3257 1.363 . S
C3262 C3261 1.415 . S
C3263 H3239 0.951 . S
C3263 C3264 1.366 . S
C3263 C3265 1.388 . S
C3264 C3263 1.366 . S
C3264 C3268 1.385 . S
C3265 H3240 0.951 1_655 S
C3265 C3263 1.388 . S
C3265 C3266 1.366 . S
C3266 C3265 1.366 . S
C3266 C3267 1.414 . S
C3266 C3269 1.499 . S
C3267 H3241 0.950 . S
C3267 C3266 1.414 . S
C3267 C3268 1.374 . S
C3268 H3242 0.950 . S
C3268 C3264 1.385 . S
C3268 C3267 1.374 . S
C3269 C3266 1.499 . S
C3269 C3270 1.373 1_655 S
C3269 C3271 1.389 . S
C3270 H3243 0.950 . S
C3270 C3256 1.377 . S
C3270 C3269 1.373 1_455 S
C3271 C3255 1.377 . S
C3271 C3269 1.389 . S
C3271 C3272 1.524 . S
C3272 C3271 1.524 . S
C3272 C3273 1.397 . S
C3272 C3277 1.363 . S
C3273 H3244 0.950 . S
C3273 C3272 1.397 . S
C3273 C3274 1.334 . S
C3274 H3245 0.950 . S
C3274 C3273 1.334 . S
C3274 C3275 1.287 . S
C3275 C3274 1.287 . S
C3275 C3276 1.524 . S
C3275 H3278 0.999 . S
C3276 H3246 0.950 . S
C3276 C3275 1.524 . S
C3276 C3277 1.415 . S
C3277 H3247 0.950 . S
C3277 C3272 1.363 . S
C3277 C3276 1.415 . S
H3278 C3275 0.999 . S
H3279 C3260 0.913 . S
H3280 C3298 0.951 . S
H3281 C3300 0.951 . S
H3282 C3302 0.950 . S
H3283 C3303 0.950 . S
H3284 C3305 0.950 . S
H3285 C3308 0.950 . S
H3286 C3309 0.950 . S
H3287 C3311 0.950 . S
H3288 C3312 0.950 1_655 S
H3289 C3313 0.951 . S
H3290 C3315 0.951 . S
H3291 C3317 0.950 . S
H3292 C3318 0.950 . S
H3293 C3320 0.950 . S
H3294 C3323 0.950 . S
H3295 C3324 0.950 . S
H3296 C3326 0.950 . S
H3297 C3327 0.950 1_455 S
C3298 H3280 0.951 . S
C3298 C3299 1.366 . S
C3298 C3300 1.388 . S
C3299 C3298 1.366 . S
C3299 C3303 1.385 . S
C3300 H3281 0.951 . S
C3300 C3298 1.388 . S
C3300 C3301 1.366 . S
C3301 C3300 1.366 . S
C3301 C3302 1.414 . S
C3301 C3304 1.499 . S
C3302 H3282 0.950 . S
C3302 C3301 1.414 . S
C3302 C3303 1.374 . S
C3303 H3283 0.950 . S
C3303 C3299 1.385 . S
C3303 C3302 1.374 . S
C3304 C3301 1.499 . S
C3304 C3305 1.373 . S
C3304 C3306 1.389 . S
C3305 H3284 0.950 . S
C3305 C3304 1.373 . S
C3305 C3321 1.377 1_455 S
C3306 C3304 1.389 . S
C3306 C3307 1.524 . S
C3306 C3320 1.377 1_455 S
C3307 C3306 1.524 . S
C3307 C3308 1.397 . S
C3307 C3312 1.363 . S
C3308 H3285 0.950 . S
C3308 C3307 1.397 . S
C3308 C3309 1.334 . S
C3309 H3286 0.950 . S
C3309 C3308 1.334 . S
C3309 C3310 1.287 . S
C3310 C3309 1.287 . S
C3310 C3311 1.524 . S
C3310 H3329 0.913 . S
C3311 H3287 0.950 . S
C3311 C3310 1.524 . S
C3311 C3312 1.415 . S
C3312 H3288 0.950 1_455 S
C3312 C3307 1.363 . S
C3312 C3311 1.415 . S
C3313 H3289 0.951 . S
C3313 C3314 1.366 . S
C3313 C3315 1.388 . S
C3314 C3313 1.366 . S
C3314 C3318 1.385 . S
C3315 H3290 0.951 . S
C3315 C3313 1.388 . S
C3315 C3316 1.366 . S
C3316 C3315 1.366 . S
C3316 C3317 1.414 . S
C3316 C3319 1.499 . S
C3317 H3291 0.950 . S
C3317 C3316 1.414 . S
C3317 C3318 1.374 . S
C3318 H3292 0.950 . S
C3318 C3314 1.385 . S
C3318 C3317 1.374 . S
C3319 C3316 1.499 . S
C3319 C3320 1.373 . S
C3319 C3321 1.389 . S
C3320 H3293 0.950 . S
C3320 C3306 1.377 1_655 S
C3320 C3319 1.373 . S
C3321 C3305 1.377 1_655 S
C3321 C3319 1.389 . S
C3321 C3322 1.524 . S
C3322 C3321 1.524 . S
C3322 C3323 1.397 . S
C3322 C3327 1.363 . S
C3323 H3294 0.950 . S
C3323 C3322 1.397 . S
C3323 C3324 1.334 . S
C3324 H3295 0.950 . S
C3324 C3323 1.334 . S
C3324 C3325 1.287 . S
C3325 C3324 1.287 . S
C3325 C3326 1.524 . S
C3325 H3328 0.999 . S
C3326 H3296 0.950 . S
C3326 C3325 1.524 . S
C3326 C3327 1.415 . S
C3327 H3297 0.950 1_655 S
C3327 C3322 1.363 . S
C3327 C3326 1.415 . S
H3328 C3325 0.999 . S
H3329 C3310 0.913 . S
H3330 C3348 0.951 . S
H3331 C3350 0.951 . S
H3332 C3352 0.950 . S
H3333 C3353 0.950 . S
H3334 C3355 0.950 . S
H3335 C3358 0.950 . S
H3336 C3359 0.950 . S
H3337 C3361 0.950 . S
H3338 C3362 0.950 . S
H3339 C3363 0.951 . S
H3340 C3365 0.951 . S
H3341 C3367 0.950 . S
H3342 C3368 0.950 . S
H3343 C3370 0.950 . S
H3344 C3373 0.950 . S
H3345 C3374 0.950 . S
H3346 C3376 0.950 . S
H3347 C3377 0.950 . S
C3348 H3330 0.951 . S
C3348 C3349 1.366 1_455 S
C3348 C3350 1.388 . S
C3349 C3348 1.366 1_655 S
C3349 C3353 1.385 . S
C3350 H3331 0.951 . S
C3350 C3348 1.388 . S
C3350 C3351 1.366 1_455 S
C3351 C3350 1.366 1_655 S
C3351 C3352 1.414 . S
C3351 C3354 1.499 . S
C3352 H3332 0.950 . S
C3352 C3351 1.414 . S
C3352 C3353 1.374 . S
C3353 H3333 0.950 . S
C3353 C3349 1.385 . S
C3353 C3352 1.374 . S
C3354 C3351 1.499 . S
C3354 C3355 1.373 . S
C3354 C3356 1.389 1_655 S
C3355 H3334 0.950 . S
C3355 C3354 1.373 . S
C3355 C3371 1.377 . S
C3356 C3354 1.389 1_455 S
C3356 C3357 1.524 . S
C3356 C3370 1.377 . S
C3357 C3356 1.524 . S
C3357 C3358 1.397 1_455 S
C3357 C3362 1.363 . S
C3358 H3335 0.950 . S
C3358 C3357 1.397 1_655 S
C3358 C3359 1.334 . S
C3359 H3336 0.950 . S
C3359 C3358 1.334 . S
C3359 C3360 1.287 . S
C3360 C3359 1.287 . S
C3360 C3361 1.524 1_655 S
C3360 H3379 0.913 . S
C3361 H3337 0.950 . S
C3361 C3360 1.524 1_455 S
C3361 C3362 1.415 . S
C3362 H3338 0.950 . S
C3362 C3357 1.363 . S
C3362 C3361 1.415 . S
C3363 H3339 0.951 . S
C3363 C3364 1.366 1_655 S
C3363 C3365 1.388 . S
C3364 C3363 1.366 1_455 S
C3364 C3368 1.385 . S
C3365 H3340 0.951 . S
C3365 C3363 1.388 . S
C3365 C3366 1.366 1_655 S
C3366 C3365 1.366 1_455 S
C3366 C3367 1.414 . S
C3366 C3369 1.499 . S
C3367 H3341 0.950 . S
C3367 C3366 1.414 . S
C3367 C3368 1.374 . S
C3368 H3342 0.950 . S
C3368 C3364 1.385 . S
C3368 C3367 1.374 . S
C3369 C3366 1.499 . S
C3369 C3370 1.373 . S
C3369 C3371 1.389 1_455 S
C3370 H3343 0.950 . S
C3370 C3356 1.377 . S
C3370 C3369 1.373 . S
C3371 C3355 1.377 . S
C3371 C3369 1.389 1_655 S
C3371 C3372 1.524 . S
C3372 C3371 1.524 . S
C3372 C3373 1.397 1_655 S
C3372 C3377 1.363 . S
C3373 H3344 0.950 . S
C3373 C3372 1.397 1_455 S
C3373 C3374 1.334 . S
C3374 H3345 0.950 . S
C3374 C3373 1.334 . S
C3374 C3375 1.287 . S
C3375 C3374 1.287 . S
C3375 C3376 1.524 1_455 S
C3375 H3378 0.999 . S
C3376 H3346 0.950 . S
C3376 C3375 1.524 1_655 S
C3376 C3377 1.415 . S
C3377 H3347 0.950 . S
C3377 C3372 1.363 . S
C3377 C3376 1.415 . S
H3378 C3375 0.999 . S
H3379 C3360 0.913 . S
H3380 C3398 0.951 . S
H3381 C3400 0.951 . S
H3382 C3402 0.950 . S
H3383 C3403 0.950 . S
H3384 C3405 0.950 . S
H3385 C3408 0.950 . S
H3386 C3409 0.950 . S
H3387 C3411 0.950 . S
H3388 C3412 0.950 . S
H3389 C3413 0.951 . S
H3390 C3415 0.951 . S
H3391 C3417 0.950 . S
H3392 C3418 0.950 . S
H3393 C3420 0.950 . S
H3394 C3423 0.950 . S
H3395 C3424 0.950 . S
H3396 C3426 0.950 . S
H3397 C3427 0.950 . S
C3398 H3380 0.951 . S
C3398 C3399 1.366 . S
C3398 C3400 1.388 . S
C3399 C3398 1.366 . S
C3399 C3403 1.385 . S
C3400 H3381 0.951 . S
C3400 C3398 1.388 . S
C3400 C3401 1.366 . S
C3401 C3400 1.366 . S
C3401 C3402 1.414 . S
C3401 C3404 1.499 . S
C3402 H3382 0.950 . S
C3402 C3401 1.414 . S
C3402 C3403 1.374 . S
C3403 H3383 0.950 . S
C3403 C3399 1.385 . S
C3403 C3402 1.374 . S
C3404 C3401 1.499 . S
C3404 C3405 1.373 . S
C3404 C3406 1.389 . S
C3405 H3384 0.950 . S
C3405 C3404 1.373 . S
C3405 C3421 1.377 . S
C3406 C3404 1.389 . S
C3406 C3407 1.524 . S
C3406 C3420 1.377 . S
C3407 C3406 1.524 . S
C3407 C3408 1.397 . S
C3407 C3412 1.363 . S
C3408 H3385 0.950 . S
C3408 C3407 1.397 . S
C3408 C3409 1.334 . S
C3409 H3386 0.950 . S
C3409 C3408 1.334 . S
C3409 C3410 1.287 . S
C3410 C3409 1.287 . S
C3410 C3411 1.524 . S
C3410 H3429 0.913 . S
C3411 H3387 0.950 . S
C3411 C3410 1.524 . S
C3411 C3412 1.415 . S
C3412 H3388 0.950 . S
C3412 C3407 1.363 . S
C3412 C3411 1.415 . S
C3413 H3389 0.951 . S
C3413 C3414 1.366 . S
C3413 C3415 1.388 . S
C3414 C3413 1.366 . S
C3414 C3418 1.385 . S
C3415 H3390 0.951 . S
C3415 C3413 1.388 . S
C3415 C3416 1.366 . S
C3416 C3415 1.366 . S
C3416 C3417 1.414 . S
C3416 C3419 1.499 . S
C3417 H3391 0.950 . S
C3417 C3416 1.414 . S
C3417 C3418 1.374 . S
C3418 H3392 0.950 . S
C3418 C3414 1.385 . S
C3418 C3417 1.374 . S
C3419 C3416 1.499 . S
C3419 C3420 1.373 . S
C3419 C3421 1.389 . S
C3420 H3393 0.950 . S
C3420 C3406 1.377 . S
C3420 C3419 1.373 . S
C3421 C3405 1.377 . S
C3421 C3419 1.389 . S
C3421 C3422 1.524 . S
C3422 C3421 1.524 . S
C3422 C3423 1.397 . S
C3422 C3427 1.363 . S
C3423 H3394 0.950 . S
C3423 C3422 1.397 . S
C3423 C3424 1.334 . S
C3424 H3395 0.950 . S
C3424 C3423 1.334 . S
C3424 C3425 1.287 . S
C3425 C3424 1.287 . S
C3425 C3426 1.524 . S
C3425 H3428 0.999 . S
C3426 H3396 0.950 . S
C3426 C3425 1.524 . S
C3426 C3427 1.415 . S
C3427 H3397 0.950 . S
C3427 C3422 1.363 . S
C3427 C3426 1.415 . S
H3428 C3425 0.999 . S
H3429 C3410 0.913 . S
H3430 C3448 0.951 . S
H3431 C3450 0.951 . S
H3432 C3452 0.950 . S
H3433 C3453 0.950 . S
H3434 C3455 0.950 . S
H3435 C3458 0.950 . S
H3436 C3459 0.950 . S
H3437 C3461 0.950 . S
H3438 C3462 0.950 . S
H3439 C3463 0.951 . S
H3440 C3465 0.951 . S
H3441 C3467 0.950 . S
H3442 C3468 0.950 . S
H3443 C3470 0.950 . S
H3444 C3473 0.950 . S
H3445 C3474 0.950 . S
H3446 C3476 0.950 . S
H3447 C3477 0.950 . S
C3448 H3430 0.951 . S
C3448 C3449 1.366 . S
C3448 C3450 1.388 . S
C3449 C3448 1.366 . S
C3449 C3453 1.385 . S
C3450 H3431 0.951 . S
C3450 C3448 1.388 . S
C3450 C3451 1.366 . S
C3451 C3450 1.366 . S
C3451 C3452 1.414 . S
C3451 C3454 1.499 . S
C3452 H3432 0.950 . S
C3452 C3451 1.414 . S
C3452 C3453 1.374 . S
C3453 H3433 0.950 . S
C3453 C3449 1.385 . S
C3453 C3452 1.374 . S
C3454 C3451 1.499 . S
C3454 C3455 1.373 . S
C3454 C3456 1.389 . S
C3455 H3434 0.950 . S
C3455 C3454 1.373 . S
C3455 C3471 1.377 . S
C3456 C3454 1.389 . S
C3456 C3457 1.524 . S
C3456 C3470 1.377 . S
C3457 C3456 1.524 . S
C3457 C3458 1.397 . S
C3457 C3462 1.363 . S
C3458 H3435 0.950 . S
C3458 C3457 1.397 . S
C3458 C3459 1.334 . S
C3459 H3436 0.950 . S
C3459 C3458 1.334 . S
C3459 C3460 1.287 . S
C3460 C3459 1.287 . S
C3460 C3461 1.524 . S
C3460 H3479 0.913 . S
C3461 H3437 0.950 . S
C3461 C3460 1.524 . S
C3461 C3462 1.415 . S
C3462 H3438 0.950 . S
C3462 C3457 1.363 . S
C3462 C3461 1.415 . S
C3463 H3439 0.951 . S
C3463 C3464 1.366 . S
C3463 C3465 1.388 . S
C3464 C3463 1.366 . S
C3464 C3468 1.385 . S
C3465 H3440 0.951 . S
C3465 C3463 1.388 . S
C3465 C3466 1.366 . S
C3466 C3465 1.366 . S
C3466 C3467 1.414 . S
C3466 C3469 1.499 . S
C3467 H3441 0.950 . S
C3467 C3466 1.414 . S
C3467 C3468 1.374 . S
C3468 H3442 0.950 . S
C3468 C3464 1.385 . S
C3468 C3467 1.374 . S
C3469 C3466 1.499 . S
C3469 C3470 1.373 . S
C3469 C3471 1.389 . S
C3470 H3443 0.950 . S
C3470 C3456 1.377 . S
C3470 C3469 1.373 . S
C3471 C3455 1.377 . S
C3471 C3469 1.389 . S
C3471 C3472 1.524 . S
C3472 C3471 1.524 . S
C3472 C3473 1.397 . S
C3472 C3477 1.363 . S
C3473 H3444 0.950 . S
C3473 C3472 1.397 . S
C3473 C3474 1.334 . S
C3474 H3445 0.950 . S
C3474 C3473 1.334 . S
C3474 C3475 1.287 . S
C3475 C3474 1.287 . S
C3475 C3476 1.524 . S
C3475 H3478 0.999 . S
C3476 H3446 0.950 . S
C3476 C3475 1.524 . S
C3476 C3477 1.415 . S
C3477 H3447 0.950 . S
C3477 C3472 1.363 . S
C3477 C3476 1.415 . S
H3478 C3475 0.999 . S
H3479 C3460 0.913 . S
H3480 C3498 0.951 . S
H3481 C3500 0.951 . S
H3482 C3502 0.950 . S
H3483 C3503 0.950 . S
H3484 C3505 0.950 . S
H3485 C3508 0.950 . S
H3486 C3509 0.950 . S
H3487 C3511 0.950 . S
H3488 C3512 0.966 . S
H3489 C3513 0.951 . S
H3490 C3515 0.951 . S
H3491 C3517 0.950 . S
H3492 C3518 0.950 . S
H3493 C3520 0.950 . S
H3494 C3523 0.950 . S
H3495 C3524 0.950 . S
H3496 C3526 0.950 . S
H3497 C3527 0.966 . S
C3498 H3480 0.951 . S
C3498 C3499 1.366 . S
C3498 C3500 1.388 . S
C3499 C3498 1.366 . S
C3499 C3503 1.385 . S
C3500 H3481 0.951 . S
C3500 C3498 1.388 . S
C3500 C3501 1.366 . S
C3501 C3500 1.366 . S
C3501 C3502 1.414 . S
C3501 C3504 1.499 . S
C3502 H3482 0.950 . S
C3502 C3501 1.414 . S
C3502 C3503 1.374 . S
C3503 H3483 0.950 . S
C3503 C3499 1.385 . S
C3503 C3502 1.374 . S
C3504 C3501 1.499 . S
C3504 C3505 1.373 . S
C3504 C3506 1.389 . S
C3505 H3484 0.950 . S
C3505 C3504 1.373 . S
C3505 C3521 1.377 1_455 S
C3506 C3504 1.389 . S
C3506 C3507 1.524 . S
C3506 C3520 1.377 1_455 S
C3507 C3506 1.524 . S
C3507 C3508 1.397 . S
C3507 C3512 1.363 . S
C3508 H3485 0.950 . S
C3508 C3507 1.397 . S
C3508 C3509 1.334 . S
C3509 H3486 0.950 . S
C3509 C3508 1.334 . S
C3509 C3510 1.287 . S
C3510 C3509 1.287 . S
C3510 C3511 1.524 . S
C3510 H3529 0.913 . S
C3511 H3487 0.950 . S
C3511 C3510 1.524 . S
C3511 C3512 1.415 . S
C3512 H3488 0.966 . S
C3512 C3507 1.363 . S
C3512 C3511 1.415 . S
C3513 H3489 0.951 . S
C3513 C3514 1.366 . S
C3513 C3515 1.388 . S
C3514 C3513 1.366 . S
C3514 C3518 1.385 . S
C3515 H3490 0.951 . S
C3515 C3513 1.388 . S
C3515 C3516 1.366 . S
C3516 C3515 1.366 . S
C3516 C3517 1.414 . S
C3516 C3519 1.499 . S
C3517 H3491 0.950 . S
C3517 C3516 1.414 . S
C3517 C3518 1.374 . S
C3518 H3492 0.950 . S
C3518 C3514 1.385 . S
C3518 C3517 1.374 . S
C3519 C3516 1.499 . S
C3519 C3520 1.373 . S
C3519 C3521 1.389 . S
C3520 H3493 0.950 . S
C3520 C3506 1.377 1_655 S
C3520 C3519 1.373 . S
C3521 C3505 1.377 1_655 S
C3521 C3519 1.389 . S
C3521 C3522 1.524 . S
C3522 C3521 1.524 . S
C3522 C3523 1.397 . S
C3522 C3527 1.363 . S
C3523 H3494 0.950 . S
C3523 C3522 1.397 . S
C3523 C3524 1.334 . S
C3524 H3495 0.950 . S
C3524 C3523 1.334 . S
C3524 C3525 1.287 . S
C3525 C3524 1.287 . S
C3525 C3526 1.524 . S
C3525 H3528 0.999 . S
C3526 H3496 0.950 . S
C3526 C3525 1.524 . S
C3526 C3527 1.415 . S
C3527 H3497 0.966 . S
C3527 C3522 1.363 . S
C3527 C3526 1.415 . S
H3528 C3525 0.999 . S
H3529 C3510 0.913 . S
H3530 C3548 0.951 . S
H3531 C3550 0.951 . S
H3532 C3552 0.950 . S
H3533 C3553 0.950 . S
H3534 C3555 0.950 . S
H3535 C3558 0.950 . S
H3536 C3559 0.950 . S
H3537 C3561 0.950 . S
H3538 C3562 0.950 . S
H3539 C3563 0.951 . S
H3540 C3565 0.951 . S
H3541 C3567 0.950 . S
H3542 C3568 0.950 . S
H3543 C3570 0.950 . S
H3544 C3573 0.950 . S
H3545 C3574 0.950 . S
H3546 C3576 0.950 . S
H3547 C3577 0.950 . S
C3548 H3530 0.951 . S
C3548 C3549 1.366 . S
C3548 C3550 1.388 . S
C3549 C3548 1.366 . S
C3549 C3553 1.385 . S
C3550 H3531 0.951 . S
C3550 C3548 1.388 . S
C3550 C3551 1.366 . S
C3551 C3550 1.366 . S
C3551 C3552 1.414 . S
C3551 C3554 1.499 . S
C3552 H3532 0.950 . S
C3552 C3551 1.414 . S
C3552 C3553 1.374 . S
C3553 H3533 0.950 . S
C3553 C3549 1.385 . S
C3553 C3552 1.374 . S
C3554 C3551 1.499 . S
C3554 C3555 1.373 . S
C3554 C3556 1.389 . S
C3555 H3534 0.950 . S
C3555 C3554 1.373 . S
C3555 C3571 1.377 . S
C3556 C3554 1.389 . S
C3556 C3557 1.524 . S
C3556 C3570 1.377 . S
C3557 C3556 1.524 . S
C3557 C3558 1.397 . S
C3557 C3562 1.363 . S
C3558 H3535 0.950 . S
C3558 C3557 1.397 . S
C3558 C3559 1.334 . S
C3559 H3536 0.950 . S
C3559 C3558 1.334 . S
C3559 C3560 1.287 . S
C3560 C3559 1.287 . S
C3560 C3561 1.524 . S
C3560 H3579 0.913 . S
C3561 H3537 0.950 . S
C3561 C3560 1.524 . S
C3561 C3562 1.415 . S
C3562 H3538 0.950 . S
C3562 C3557 1.363 . S
C3562 C3561 1.415 . S
C3563 H3539 0.951 . S
C3563 C3564 1.366 . S
C3563 C3565 1.388 . S
C3564 C3563 1.366 . S
C3564 C3568 1.385 . S
C3565 H3540 0.951 . S
C3565 C3563 1.388 . S
C3565 C3566 1.366 . S
C3566 C3565 1.366 . S
C3566 C3567 1.414 . S
C3566 C3569 1.499 . S
C3567 H3541 0.950 . S
C3567 C3566 1.414 . S
C3567 C3568 1.374 . S
C3568 H3542 0.950 . S
C3568 C3564 1.385 . S
C3568 C3567 1.374 . S
C3569 C3566 1.499 . S
C3569 C3570 1.373 . S
C3569 C3571 1.389 . S
C3570 H3543 0.950 . S
C3570 C3556 1.377 . S
C3570 C3569 1.373 . S
C3571 C3555 1.377 . S
C3571 C3569 1.389 . S
C3571 C3572 1.524 . S
C3572 C3571 1.524 . S
C3572 C3573 1.397 . S
C3572 C3577 1.363 . S
C3573 H3544 0.950 . S
C3573 C3572 1.397 . S
C3573 C3574 1.334 . S
C3574 H3545 0.950 . S
C3574 C3573 1.334 . S
C3574 C3575 1.287 . S
C3575 C3574 1.287 . S
C3575 C3576 1.524 . S
C3575 H3578 0.999 . S
C3576 H3546 0.950 . S
C3576 C3575 1.524 . S
C3576 C3577 1.415 . S
C3577 H3547 0.950 . S
C3577 C3572 1.363 . S
C3577 C3576 1.415 . S
H3578 C3575 0.999 . S
H3579 C3560 0.913 . S
H3580 C3598 0.951 . S
H3581 C3600 0.951 . S
H3582 C3602 0.950 . S
H3583 C3603 0.950 . S
H3584 C3605 0.950 . S
H3585 C3608 0.950 . S
H3586 C3609 0.950 . S
H3587 C3611 0.950 . S
H3588 C3612 0.950 . S
H3589 C3613 0.951 . S
H3590 C3615 0.951 . S
H3591 C3617 0.950 . S
H3592 C3618 0.950 . S
H3593 C3620 0.950 . S
H3594 C3623 0.950 . S
H3595 C3624 0.950 . S
H3596 C3626 0.950 . S
H3597 C3627 0.950 . S
C3598 H3580 0.951 . S
C3598 C3599 1.366 . S
C3598 C3600 1.388 . S
C3599 C3598 1.366 . S
C3599 C3603 1.385 . S
C3600 H3581 0.951 . S
C3600 C3598 1.388 . S
C3600 C3601 1.366 . S
C3601 C3600 1.366 . S
C3601 C3602 1.414 . S
C3601 C3604 1.499 . S
C3602 H3582 0.950 . S
C3602 C3601 1.414 . S
C3602 C3603 1.374 . S
C3603 H3583 0.950 . S
C3603 C3599 1.385 . S
C3603 C3602 1.374 . S
C3604 C3601 1.499 . S
C3604 C3605 1.373 . S
C3604 C3606 1.389 . S
C3605 H3584 0.950 . S
C3605 C3604 1.373 . S
C3605 C3621 1.377 . S
C3606 C3604 1.389 . S
C3606 C3607 1.524 . S
C3606 C3620 1.377 . S
C3607 C3606 1.524 . S
C3607 C3608 1.397 . S
C3607 C3612 1.363 . S
C3608 H3585 0.950 . S
C3608 C3607 1.397 . S
C3608 C3609 1.334 . S
C3609 H3586 0.950 . S
C3609 C3608 1.334 . S
C3609 C3610 1.287 . S
C3610 C3609 1.287 . S
C3610 C3611 1.524 . S
C3610 H3629 0.913 . S
C3611 H3587 0.950 . S
C3611 C3610 1.524 . S
C3611 C3612 1.415 . S
C3612 H3588 0.950 . S
C3612 C3607 1.363 . S
C3612 C3611 1.415 . S
C3613 H3589 0.951 . S
C3613 C3614 1.366 . S
C3613 C3615 1.388 . S
C3614 C3613 1.366 . S
C3614 C3618 1.385 . S
C3615 H3590 0.951 . S
C3615 C3613 1.388 . S
C3615 C3616 1.366 . S
C3616 C3615 1.366 . S
C3616 C3617 1.414 . S
C3616 C3619 1.499 . S
C3617 H3591 0.950 . S
C3617 C3616 1.414 . S
C3617 C3618 1.374 . S
C3618 H3592 0.950 . S
C3618 C3614 1.385 . S
C3618 C3617 1.374 . S
C3619 C3616 1.499 . S
C3619 C3620 1.373 . S
C3619 C3621 1.389 . S
C3620 H3593 0.950 . S
C3620 C3606 1.377 . S
C3620 C3619 1.373 . S
C3621 C3605 1.377 . S
C3621 C3619 1.389 . S
C3621 C3622 1.524 . S
C3622 C3621 1.524 . S
C3622 C3623 1.397 . S
C3622 C3627 1.363 . S
C3623 H3594 0.950 . S
C3623 C3622 1.397 . S
C3623 C3624 1.334 . S
C3624 H3595 0.950 . S
C3624 C3623 1.334 . S
C3624 C3625 1.287 . S
C3625 C3624 1.287 . S
C3625 C3626 1.524 . S
C3625 H3628 0.999 . S
C3626 H3596 0.950 . S
C3626 C3625 1.524 . S
C3626 C3627 1.415 . S
C3627 H3597 0.950 . S
C3627 C3622 1.363 . S
C3627 C3626 1.415 . S
H3628 C3625 0.999 . S
H3629 C3610 0.913 . S
H3630 C3648 0.951 . S
H3631 C3650 0.951 . S
H3632 C3652 0.950 . S
H3633 C3653 0.950 . S
H3634 C3655 0.950 . S
H3635 C3658 0.950 . S
H3636 C3659 0.950 . S
H3637 C3661 0.950 . S
H3638 C3662 0.950 . S
H3639 C3663 0.951 . S
H3640 C3665 0.951 . S
H3641 C3667 0.950 . S
H3642 C3668 0.950 . S
H3643 C3670 0.950 . S
H3644 C3673 0.950 . S
H3645 C3674 0.950 . S
H3646 C3676 0.950 . S
H3647 C3677 0.950 . S
C3648 H3630 0.951 . S
C3648 C3649 1.366 1_455 S
C3648 C3650 1.388 . S
C3649 C3648 1.366 1_655 S
C3649 C3653 1.385 . S
C3650 H3631 0.951 . S
C3650 C3648 1.388 . S
C3650 C3651 1.366 1_455 S
C3651 C3650 1.366 1_655 S
C3651 C3652 1.414 . S
C3651 C3654 1.499 . S
C3652 H3632 0.950 . S
C3652 C3651 1.414 . S
C3652 C3653 1.374 . S
C3653 H3633 0.950 . S
C3653 C3649 1.385 . S
C3653 C3652 1.374 . S
C3654 C3651 1.499 . S
C3654 C3655 1.373 . S
C3654 C3656 1.389 1_655 S
C3655 H3634 0.950 . S
C3655 C3654 1.373 . S
C3655 C3671 1.377 . S
C3656 C3654 1.389 1_455 S
C3656 C3657 1.524 . S
C3656 C3670 1.377 . S
C3657 C3656 1.524 . S
C3657 C3658 1.397 . S
C3657 C3662 1.363 . S
C3658 H3635 0.950 . S
C3658 C3657 1.397 . S
C3658 C3659 1.334 . S
C3659 H3636 0.950 . S
C3659 C3658 1.334 . S
C3659 C3660 1.287 . S
C3660 C3659 1.287 . S
C3660 C3661 1.524 . S
C3660 H3679 0.913 . S
C3661 H3637 0.950 . S
C3661 C3660 1.524 . S
C3661 C3662 1.415 . S
C3662 H3638 0.950 . S
C3662 C3657 1.363 . S
C3662 C3661 1.415 . S
C3663 H3639 0.951 . S
C3663 C3664 1.366 1_655 S
C3663 C3665 1.388 . S
C3664 C3663 1.366 1_455 S
C3664 C3668 1.385 . S
C3665 H3640 0.951 . S
C3665 C3663 1.388 . S
C3665 C3666 1.366 1_655 S
C3666 C3665 1.366 1_455 S
C3666 C3667 1.414 . S
C3666 C3669 1.499 . S
C3667 H3641 0.950 . S
C3667 C3666 1.414 . S
C3667 C3668 1.374 . S
C3668 H3642 0.950 . S
C3668 C3664 1.385 . S
C3668 C3667 1.374 . S
C3669 C3666 1.499 . S
C3669 C3670 1.373 . S
C3669 C3671 1.389 1_455 S
C3670 H3643 0.950 . S
C3670 C3656 1.377 . S
C3670 C3669 1.373 . S
C3671 C3655 1.377 . S
C3671 C3669 1.389 1_655 S
C3671 C3672 1.524 . S
C3672 C3671 1.524 . S
C3672 C3673 1.397 . S
C3672 C3677 1.363 . S
C3673 H3644 0.950 . S
C3673 C3672 1.397 . S
C3673 C3674 1.334 . S
C3674 H3645 0.950 . S
C3674 C3673 1.334 . S
C3674 C3675 1.287 . S
C3675 C3674 1.287 . S
C3675 C3676 1.524 . S
C3675 H3678 0.999 . S
C3676 H3646 0.950 . S
C3676 C3675 1.524 . S
C3676 C3677 1.415 . S
C3677 H3647 0.950 . S
C3677 C3672 1.363 . S
C3677 C3676 1.415 . S
H3678 C3675 0.999 . S
H3679 C3660 0.913 . S
H3680 C3698 0.951 . S
H3681 C3700 0.951 . S
H3682 C3702 0.950 . S
H3683 C3703 0.950 . S
H3684 C3705 0.950 . S
H3685 C3708 0.950 . S
H3686 C3709 0.950 . S
H3687 C3711 0.950 . S
H3688 C3712 0.950 . S
H3689 C3713 0.951 . S
H3690 C3715 0.951 . S
H3691 C3717 0.950 . S
H3692 C3718 0.950 . S
H3693 C3720 0.950 . S
H3694 C3723 0.950 . S
H3695 C3724 0.950 . S
H3696 C3726 0.950 . S
H3697 C3727 0.950 . S
C3698 H3680 0.951 . S
C3698 C3699 1.366 . S
C3698 C3700 1.388 . S
C3699 C3698 1.366 . S
C3699 C3703 1.385 . S
C3700 H3681 0.951 . S
C3700 C3698 1.388 . S
C3700 C3701 1.366 . S
C3701 C3700 1.366 . S
C3701 C3702 1.414 . S
C3701 C3704 1.499 . S
C3702 H3682 0.950 . S
C3702 C3701 1.414 . S
C3702 C3703 1.374 . S
C3703 H3683 0.950 . S
C3703 C3699 1.385 . S
C3703 C3702 1.374 . S
C3704 C3701 1.499 . S
C3704 C3705 1.373 . S
C3704 C3706 1.389 . S
C3705 H3684 0.950 . S
C3705 C3704 1.373 . S
C3705 C3721 1.377 . S
C3706 C3704 1.389 . S
C3706 C3707 1.524 . S
C3706 C3720 1.377 . S
C3707 C3706 1.524 . S
C3707 C3708 1.397 . S
C3707 C3712 1.363 . S
C3708 H3685 0.950 . S
C3708 C3707 1.397 . S
C3708 C3709 1.334 . S
C3709 H3686 0.950 . S
C3709 C3708 1.334 . S
C3709 C3710 1.287 . S
C3710 C3709 1.287 . S
C3710 C3711 1.524 . S
C3710 H3729 0.913 . S
C3711 H3687 0.950 . S
C3711 C3710 1.524 . S
C3711 C3712 1.415 . S
C3712 H3688 0.950 . S
C3712 C3707 1.363 . S
C3712 C3711 1.415 . S
C3713 H3689 0.951 . S
C3713 C3714 1.366 . S
C3713 C3715 1.388 . S
C3714 C3713 1.366 . S
C3714 C3718 1.385 . S
C3715 H3690 0.951 . S
C3715 C3713 1.388 . S
C3715 C3716 1.366 . S
C3716 C3715 1.366 . S
C3716 C3717 1.414 . S
C3716 C3719 1.499 . S
C3717 H3691 0.950 . S
C3717 C3716 1.414 . S
C3717 C3718 1.374 . S
C3718 H3692 0.950 . S
C3718 C3714 1.385 . S
C3718 C3717 1.374 . S
C3719 C3716 1.499 . S
C3719 C3720 1.373 . S
C3719 C3721 1.389 . S
C3720 H3693 0.950 . S
C3720 C3706 1.377 . S
C3720 C3719 1.373 . S
C3721 C3705 1.377 . S
C3721 C3719 1.389 . S
C3721 C3722 1.524 . S
C3722 C3721 1.524 . S
C3722 C3723 1.397 . S
C3722 C3727 1.363 . S
C3723 H3694 0.950 . S
C3723 C3722 1.397 . S
C3723 C3724 1.334 . S
C3724 H3695 0.950 . S
C3724 C3723 1.334 . S
C3724 C3725 1.287 . S
C3725 C3724 1.287 . S
C3725 C3726 1.524 . S
C3725 H3728 0.999 . S
C3726 H3696 0.950 . S
C3726 C3725 1.524 . S
C3726 C3727 1.415 . S
C3727 H3697 0.950 . S
C3727 C3722 1.363 . S
C3727 C3726 1.415 . S
H3728 C3725 0.999 . S
H3729 C3710 0.913 . S
H3730 C3748 0.951 . S
H3731 C3750 0.951 . S
H3732 C3752 0.950 . S
H3733 C3753 0.950 . S
H3734 C3755 0.950 . S
H3735 C3758 0.950 . S
H3736 C3759 0.950 . S
H3737 C3761 0.950 . S
H3738 C3762 0.950 . S
H3739 C3763 0.951 . S
H3740 C3765 0.951 . S
H3741 C3767 0.950 . S
H3742 C3768 0.950 . S
H3743 C3770 0.950 . S
H3744 C3773 0.950 . S
H3745 C3774 0.950 . S
H3746 C3776 0.950 . S
H3747 C3777 0.950 . S
C3748 H3730 0.951 . S
C3748 C3749 1.366 1_565 S
C3748 C3750 1.388 . S
C3749 C3748 1.366 1_545 S
C3749 C3753 1.385 . S
C3750 H3731 0.951 . S
C3750 C3748 1.388 . S
C3750 C3751 1.366 1_565 S
C3751 C3750 1.366 1_545 S
C3751 C3752 1.414 . S
C3751 C3754 1.499 . S
C3752 H3732 0.950 . S
C3752 C3751 1.414 . S
C3752 C3753 1.374 . S
C3753 H3733 0.950 . S
C3753 C3749 1.385 . S
C3753 C3752 1.374 . S
C3754 C3751 1.499 . S
C3754 C3755 1.373 1_655 S
C3754 C3756 1.389 1_545 S
C3755 H3734 0.950 . S
C3755 C3754 1.373 1_455 S
C3755 C3771 1.377 . S
C3756 C3754 1.389 1_565 S
C3756 C3757 1.524 . S
C3756 C3770 1.377 . S
C3757 C3756 1.524 . S
C3757 C3758 1.397 . S
C3757 C3762 1.363 . S
C3758 H3735 0.950 . S
C3758 C3757 1.397 . S
C3758 C3759 1.334 . S
C3759 H3736 0.950 . S
C3759 C3758 1.334 . S
C3759 C3760 1.287 . S
C3760 C3759 1.287 . S
C3760 C3761 1.524 . S
C3760 H3779 0.913 . S
C3761 H3737 0.950 . S
C3761 C3760 1.524 . S
C3761 C3762 1.415 . S
C3762 H3738 0.950 . S
C3762 C3757 1.363 . S
C3762 C3761 1.415 . S
C3763 H3739 0.951 . S
C3763 C3764 1.366 1_545 S
C3763 C3765 1.388 . S
C3764 C3763 1.366 1_565 S
C3764 C3768 1.385 . S
C3765 H3740 0.951 . S
C3765 C3763 1.388 . S
C3765 C3766 1.366 1_545 S
C3766 C3765 1.366 1_565 S
C3766 C3767 1.414 . S
C3766 C3769 1.499 . S
C3767 H3741 0.950 . S
C3767 C3766 1.414 . S
C3767 C3768 1.374 . S
C3768 H3742 0.950 . S
C3768 C3764 1.385 . S
C3768 C3767 1.374 . S
C3769 C3766 1.499 . S
C3769 C3770 1.373 1_455 S
C3769 C3771 1.389 1_565 S
C3770 H3743 0.950 . S
C3770 C3756 1.377 . S
C3770 C3769 1.373 1_655 S
C3771 C3755 1.377 . S
C3771 C3769 1.389 1_545 S
C3771 C3772 1.524 . S
C3772 C3771 1.524 . S
C3772 C3773 1.397 . S
C3772 C3777 1.363 . S
C3773 H3744 0.950 . S
C3773 C3772 1.397 . S
C3773 C3774 1.334 . S
C3774 H3745 0.950 . S
C3774 C3773 1.334 . S
C3774 C3775 1.287 . S
C3775 C3774 1.287 . S
C3775 C3776 1.524 . S
C3775 H3778 0.999 . S
C3776 H3746 0.950 . S
C3776 C3775 1.524 . S
C3776 C3777 1.415 . S
C3777 H3747 0.950 . S
C3777 C3772 1.363 . S
C3777 C3776 1.415 . S
H3778 C3775 0.999 . S
H3779 C3760 0.913 . S
H3780 C3798 0.951 . S
H3781 C3800 0.951 . S
H3782 C3802 0.950 . S
H3783 C3803 0.950 . S
H3784 C3805 0.950 . S
H3785 C3808 0.950 . S
H3786 C3809 0.950 . S
H3787 C3811 0.950 . S
H3788 C3812 0.950 . S
H3789 C3813 0.951 . S
H3790 C3815 0.951 . S
H3791 C3817 0.950 . S
H3792 C3818 0.950 . S
H3793 C3820 0.950 . S
H3794 C3823 0.950 . S
H3795 C3824 0.950 . S
H3796 C3826 0.950 . S
H3797 C3827 0.950 . S
C3798 H3780 0.951 . S
C3798 C3799 1.366 . S
C3798 C3800 1.388 . S
C3799 C3798 1.366 . S
C3799 C3803 1.385 . S
C3800 H3781 0.951 . S
C3800 C3798 1.388 . S
C3800 C3801 1.366 . S
C3801 C3800 1.366 . S
C3801 C3802 1.414 . S
C3801 C3804 1.499 . S
C3802 H3782 0.950 . S
C3802 C3801 1.414 . S
C3802 C3803 1.374 . S
C3803 H3783 0.950 . S
C3803 C3799 1.385 . S
C3803 C3802 1.374 . S
C3804 C3801 1.499 . S
C3804 C3805 1.373 . S
C3804 C3806 1.389 . S
C3805 H3784 0.950 . S
C3805 C3804 1.373 . S
C3805 C3821 1.377 . S
C3806 C3804 1.389 . S
C3806 C3807 1.524 . S
C3806 C3820 1.377 . S
C3807 C3806 1.524 . S
C3807 C3808 1.397 . S
C3807 C3812 1.363 . S
C3808 H3785 0.950 . S
C3808 C3807 1.397 . S
C3808 C3809 1.334 . S
C3809 H3786 0.950 . S
C3809 C3808 1.334 . S
C3809 C3810 1.287 . S
C3810 C3809 1.287 . S
C3810 C3811 1.524 . S
C3810 H3829 0.913 . S
C3811 H3787 0.950 . S
C3811 C3810 1.524 . S
C3811 C3812 1.415 . S
C3812 H3788 0.950 . S
C3812 C3807 1.363 . S
C3812 C3811 1.415 . S
C3813 H3789 0.951 . S
C3813 C3814 1.366 . S
C3813 C3815 1.388 . S
C3814 C3813 1.366 . S
C3814 C3818 1.385 . S
C3815 H3790 0.951 . S
C3815 C3813 1.388 . S
C3815 C3816 1.366 . S
C3816 C3815 1.366 . S
C3816 C3817 1.414 . S
C3816 C3819 1.499 . S
C3817 H3791 0.950 . S
C3817 C3816 1.414 . S
C3817 C3818 1.374 . S
C3818 H3792 0.950 . S
C3818 C3814 1.385 . S
C3818 C3817 1.374 . S
C3819 C3816 1.499 . S
C3819 C3820 1.373 . S
C3819 C3821 1.389 . S
C3820 H3793 0.950 . S
C3820 C3806 1.377 . S
C3820 C3819 1.373 . S
C3821 C3805 1.377 . S
C3821 C3819 1.389 . S
C3821 C3822 1.524 . S
C3822 C3821 1.524 . S
C3822 C3823 1.397 . S
C3822 C3827 1.363 . S
C3823 H3794 0.950 . S
C3823 C3822 1.397 . S
C3823 C3824 1.334 . S
C3824 H3795 0.950 . S
C3824 C3823 1.334 . S
C3824 C3825 1.287 . S
C3825 C3824 1.287 . S
C3825 C3826 1.524 . S
C3825 H3828 0.999 . S
C3826 H3796 0.950 . S
C3826 C3825 1.524 . S
C3826 C3827 1.415 . S
C3827 H3797 0.950 . S
C3827 C3822 1.363 . S
C3827 C3826 1.415 . S
H3828 C3825 0.999 . S
H3829 C3810 0.913 . S
H3830 C3848 0.951 . S
H3831 C3850 0.951 . S
H3832 C3852 0.950 . S
H3833 C3853 0.950 . S
H3834 C3855 0.950 . S
H3835 C3858 0.950 . S
H3836 C3859 0.950 . S
H3837 C3861 0.950 . S
H3838 C3862 0.928 1_556 S
H3839 C3863 0.951 . S
H3840 C3865 0.951 . S
H3841 C3867 0.950 . S
H3842 C3868 0.950 . S
H3843 C3870 0.950 . S
H3844 C3873 0.950 . S
H3845 C3874 0.950 . S
H3846 C3876 0.950 . S
H3847 C3877 0.927 1_554 S
C3848 H3830 0.951 . S
C3848 C3849 1.366 . S
C3848 C3850 1.388 . S
C3849 C3848 1.366 . S
C3849 C3853 1.385 . S
C3850 H3831 0.951 . S
C3850 C3848 1.388 . S
C3850 C3851 1.366 . S
C3851 C3850 1.366 . S
C3851 C3852 1.414 . S
C3851 C3854 1.499 . S
C3852 H3832 0.950 . S
C3852 C3851 1.414 . S
C3852 C3853 1.374 . S
C3853 H3833 0.950 . S
C3853 C3849 1.385 . S
C3853 C3852 1.374 . S
C3854 C3851 1.499 . S
C3854 C3855 1.373 . S
C3854 C3856 1.389 1_545 S
C3855 H3834 0.950 . S
C3855 C3854 1.373 . S
C3855 C3871 1.377 1_554 S
C3856 C3854 1.389 1_565 S
C3856 C3857 1.524 . S
C3856 C3870 1.377 1_554 S
C3857 C3856 1.524 . S
C3857 C3858 1.397 . S
C3857 C3862 1.363 . S
C3858 H3835 0.950 . S
C3858 C3857 1.397 . S
C3858 C3859 1.334 . S
C3859 H3836 0.950 . S
C3859 C3858 1.334 . S
C3859 C3860 1.287 . S
C3860 C3859 1.287 . S
C3860 C3861 1.524 . S
C3860 H3879 0.913 . S
C3861 H3837 0.950 . S
C3861 C3860 1.524 . S
C3861 C3862 1.415 . S
C3862 H3838 0.928 1_554 S
C3862 C3857 1.363 . S
C3862 C3861 1.415 . S
C3863 H3839 0.951 . S
C3863 C3864 1.366 . S
C3863 C3865 1.388 . S
C3864 C3863 1.366 . S
C3864 C3868 1.385 . S
C3865 H3840 0.951 . S
C3865 C3863 1.388 . S
C3865 C3866 1.366 . S
C3866 C3865 1.366 . S
C3866 C3867 1.414 . S
C3866 C3869 1.499 . S
C3867 H3841 0.950 . S
C3867 C3866 1.414 . S
C3867 C3868 1.374 . S
C3868 H3842 0.950 . S
C3868 C3864 1.385 . S
C3868 C3867 1.374 . S
C3869 C3866 1.499 . S
C3869 C3870 1.373 . S
C3869 C3871 1.389 1_565 S
C3870 H3843 0.950 . S
C3870 C3856 1.377 1_556 S
C3870 C3869 1.373 . S
C3871 C3855 1.377 1_556 S
C3871 C3869 1.389 1_545 S
C3871 C3872 1.524 . S
C3872 C3871 1.524 . S
C3872 C3873 1.397 . S
C3872 C3877 1.363 . S
C3873 H3844 0.950 . S
C3873 C3872 1.397 . S
C3873 C3874 1.334 . S
C3874 H3845 0.950 . S
C3874 C3873 1.334 . S
C3874 C3875 1.287 . S
C3875 C3874 1.287 . S
C3875 C3876 1.524 . S
C3875 H3878 0.999 . S
C3876 H3846 0.950 . S
C3876 C3875 1.524 . S
C3876 C3877 1.415 . S
C3877 H3847 0.927 1_556 S
C3877 C3872 1.363 . S
C3877 C3876 1.415 . S
H3878 C3875 0.999 . S
H3879 C3860 0.913 . S
H3880 C3898 0.951 . S
H3881 C3900 0.951 . S
H3882 C3902 0.950 . S
H3883 C3903 0.950 . S
H3884 C3905 0.950 . S
H3885 C3908 0.950 . S
H3886 C3909 0.950 . S
H3887 C3911 0.950 . S
H3888 C3912 0.950 . S
H3889 C3913 0.951 . S
H3890 C3915 0.951 . S
H3891 C3917 0.950 . S
H3892 C3918 0.950 . S
H3893 C3920 0.950 . S
H3894 C3923 0.950 . S
H3895 C3924 0.950 . S
H3896 C3926 0.950 . S
H3897 C3927 0.950 . S
C3898 H3880 0.951 . S
C3898 C3899 1.366 . S
C3898 C3900 1.388 . S
C3899 C3898 1.366 . S
C3899 C3903 1.385 . S
C3900 H3881 0.951 . S
C3900 C3898 1.388 . S
C3900 C3901 1.366 . S
C3901 C3900 1.366 . S
C3901 C3902 1.414 . S
C3901 C3904 1.499 . S
C3902 H3882 0.950 . S
C3902 C3901 1.414 . S
C3902 C3903 1.374 . S
C3903 H3883 0.950 . S
C3903 C3899 1.385 . S
C3903 C3902 1.374 . S
C3904 C3901 1.499 . S
C3904 C3905 1.373 . S
C3904 C3906 1.389 . S
C3905 H3884 0.950 . S
C3905 C3904 1.373 . S
C3905 C3921 1.377 . S
C3906 C3904 1.389 . S
C3906 C3907 1.524 . S
C3906 C3920 1.377 . S
C3907 C3906 1.524 . S
C3907 C3908 1.397 . S
C3907 C3912 1.363 . S
C3908 H3885 0.950 . S
C3908 C3907 1.397 . S
C3908 C3909 1.334 . S
C3909 H3886 0.950 . S
C3909 C3908 1.334 . S
C3909 C3910 1.287 . S
C3910 C3909 1.287 . S
C3910 C3911 1.524 . S
C3910 H3929 0.913 . S
C3911 H3887 0.950 . S
C3911 C3910 1.524 . S
C3911 C3912 1.415 . S
C3912 H3888 0.950 . S
C3912 C3907 1.363 . S
C3912 C3911 1.415 . S
C3913 H3889 0.951 . S
C3913 C3914 1.366 . S
C3913 C3915 1.388 . S
C3914 C3913 1.366 . S
C3914 C3918 1.385 . S
C3915 H3890 0.951 . S
C3915 C3913 1.388 . S
C3915 C3916 1.366 . S
C3916 C3915 1.366 . S
C3916 C3917 1.414 . S
C3916 C3919 1.499 . S
C3917 H3891 0.950 . S
C3917 C3916 1.414 . S
C3917 C3918 1.374 . S
C3918 H3892 0.950 . S
C3918 C3914 1.385 . S
C3918 C3917 1.374 . S
C3919 C3916 1.499 . S
C3919 C3920 1.373 . S
C3919 C3921 1.389 . S
C3920 H3893 0.950 . S
C3920 C3906 1.377 . S
C3920 C3919 1.373 . S
C3921 C3905 1.377 . S
C3921 C3919 1.389 . S
C3921 C3922 1.524 . S
C3922 C3921 1.524 . S
C3922 C3923 1.397 . S
C3922 C3927 1.363 . S
C3923 H3894 0.950 . S
C3923 C3922 1.397 . S
C3923 C3924 1.334 . S
C3924 H3895 0.950 . S
C3924 C3923 1.334 . S
C3924 C3925 1.287 . S
C3925 C3924 1.287 . S
C3925 C3926 1.524 . S
C3925 H3928 0.999 . S
C3926 H3896 0.950 . S
C3926 C3925 1.524 . S
C3926 C3927 1.415 . S
C3927 H3897 0.950 . S
C3927 C3922 1.363 . S
C3927 C3926 1.415 . S
H3928 C3925 0.999 . S
H3929 C3910 0.913 . S
H3930 C3948 0.951 . S
H3931 C3950 0.962 . S
H3932 C3952 0.950 . S
H3933 C3953 0.950 . S
H3934 C3955 0.950 . S
H3935 C3958 0.950 . S
H3936 C3959 0.950 . S
H3937 C3961 0.950 . S
H3938 C3962 0.950 . S
H3939 C3963 0.951 . S
H3940 C3965 0.962 . S
H3941 C3967 0.950 . S
H3942 C3968 0.950 . S
H3943 C3970 0.950 . S
H3944 C3973 0.950 . S
H3945 C3974 0.950 . S
H3946 C3976 0.950 . S
H3947 C3977 0.950 . S
C3948 H3930 0.951 . S
C3948 C3949 1.366 . S
C3948 C3950 1.388 . S
C3949 C3948 1.366 . S
C3949 C3953 1.385 . S
C3950 H3931 0.962 . S
C3950 C3948 1.388 . S
C3950 C3951 1.366 . S
C3951 C3950 1.366 . S
C3951 C3952 1.414 . S
C3951 C3954 1.499 . S
C3952 H3932 0.950 . S
C3952 C3951 1.414 . S
C3952 C3953 1.374 . S
C3953 H3933 0.950 . S
C3953 C3949 1.385 . S
C3953 C3952 1.374 . S
C3954 C3951 1.499 . S
C3954 C3955 1.373 1_545 S
C3954 C3956 1.389 . S
C3955 H3934 0.950 . S
C3955 C3954 1.373 1_565 S
C3955 C3971 1.377 . S
C3956 C3954 1.389 . S
C3956 C3957 1.524 . S
C3956 C3970 1.377 . S
C3957 C3956 1.524 . S
C3957 C3958 1.397 . S
C3957 C3962 1.363 . S
C3958 H3935 0.950 . S
C3958 C3957 1.397 . S
C3958 C3959 1.334 . S
C3959 H3936 0.950 . S
C3959 C3958 1.334 . S
C3959 C3960 1.287 . S
C3960 C3959 1.287 . S
C3960 C3961 1.524 . S
C3960 H3979 0.913 . S
C3961 H3937 0.950 . S
C3961 C3960 1.524 . S
C3961 C3962 1.415 . S
C3962 H3938 0.950 . S
C3962 C3957 1.363 . S
C3962 C3961 1.415 . S
C3963 H3939 0.951 . S
C3963 C3964 1.366 . S
C3963 C3965 1.388 . S
C3964 C3963 1.366 . S
C3964 C3968 1.385 . S
C3965 H3940 0.962 . S
C3965 C3963 1.388 . S
C3965 C3966 1.366 . S
C3966 C3965 1.366 . S
C3966 C3967 1.414 . S
C3966 C3969 1.499 . S
C3967 H3941 0.950 . S
C3967 C3966 1.414 . S
C3967 C3968 1.374 . S
C3968 H3942 0.950 . S
C3968 C3964 1.385 . S
C3968 C3967 1.374 . S
C3969 C3966 1.499 . S
C3969 C3970 1.373 1_565 S
C3969 C3971 1.389 . S
C3970 H3943 0.950 . S
C3970 C3956 1.377 . S
C3970 C3969 1.373 1_545 S
C3971 C3955 1.377 . S
C3971 C3969 1.389 . S
C3971 C3972 1.524 . S
C3972 C3971 1.524 . S
C3972 C3973 1.397 . S
C3972 C3977 1.363 . S
C3973 H3944 0.950 . S
C3973 C3972 1.397 . S
C3973 C3974 1.334 . S
C3974 H3945 0.950 . S
C3974 C3973 1.334 . S
C3974 C3975 1.287 . S
C3975 C3974 1.287 . S
C3975 C3976 1.524 . S
C3975 H3978 0.999 . S
C3976 H3946 0.950 . S
C3976 C3975 1.524 . S
C3976 C3977 1.415 . S
C3977 H3947 0.950 . S
C3977 C3972 1.363 . S
C3977 C3976 1.415 . S
H3978 C3975 0.999 . S
H3979 C3960 0.913 . S
H3980 C3998 0.951 . S
H3981 C4000 0.951 . S
H3982 C4002 0.950 . S
H3983 C4003 0.950 . S
H3984 C4005 0.950 . S
H3985 C4008 0.950 . S
H3986 C4009 0.950 . S
H3987 C4011 0.950 . S
H3988 C4012 0.950 . S
H3989 C4013 0.951 . S
H3990 C4015 0.951 . S
H3991 C4017 0.950 . S
H3992 C4018 0.950 . S
H3993 C4020 0.950 . S
H3994 C4023 0.950 . S
H3995 C4024 0.950 . S
H3996 C4026 0.950 . S
H3997 C4027 0.950 . S
C3998 H3980 0.951 . S
C3998 C3999 1.366 . S
C3998 C4000 1.388 . S
C3999 C3998 1.366 . S
C3999 C4003 1.385 . S
C4000 H3981 0.951 . S
C4000 C3998 1.388 . S
C4000 C4001 1.366 . S
C4001 C4000 1.366 . S
C4001 C4002 1.414 . S
C4001 C4004 1.499 . S
C4002 H3982 0.950 . S
C4002 C4001 1.414 . S
C4002 C4003 1.374 . S
C4003 H3983 0.950 . S
C4003 C3999 1.385 . S
C4003 C4002 1.374 . S
C4004 C4001 1.499 . S
C4004 C4005 1.373 . S
C4004 C4006 1.389 . S
C4005 H3984 0.950 . S
C4005 C4004 1.373 . S
C4005 C4021 1.377 . S
C4006 C4004 1.389 . S
C4006 C4007 1.524 . S
C4006 C4020 1.377 . S
C4007 C4006 1.524 . S
C4007 C4008 1.397 . S
C4007 C4012 1.363 . S
C4008 H3985 0.950 . S
C4008 C4007 1.397 . S
C4008 C4009 1.334 . S
C4009 H3986 0.950 . S
C4009 C4008 1.334 . S
C4009 C4010 1.287 . S
C4010 C4009 1.287 . S
C4010 C4011 1.524 . S
C4010 H4029 0.913 . S
C4011 H3987 0.950 . S
C4011 C4010 1.524 . S
C4011 C4012 1.415 . S
C4012 H3988 0.950 . S
C4012 C4007 1.363 . S
C4012 C4011 1.415 . S
C4013 H3989 0.951 . S
C4013 C4014 1.366 . S
C4013 C4015 1.388 . S
C4014 C4013 1.366 . S
C4014 C4018 1.385 . S
C4015 H3990 0.951 . S
C4015 C4013 1.388 . S
C4015 C4016 1.366 . S
C4016 C4015 1.366 . S
C4016 C4017 1.414 . S
C4016 C4019 1.499 . S
C4017 H3991 0.950 . S
C4017 C4016 1.414 . S
C4017 C4018 1.374 . S
C4018 H3992 0.950 . S
C4018 C4014 1.385 . S
C4018 C4017 1.374 . S
C4019 C4016 1.499 . S
C4019 C4020 1.373 . S
C4019 C4021 1.389 . S
C4020 H3993 0.950 . S
C4020 C4006 1.377 . S
C4020 C4019 1.373 . S
C4021 C4005 1.377 . S
C4021 C4019 1.389 . S
C4021 C4022 1.524 . S
C4022 C4021 1.524 . S
C4022 C4023 1.397 . S
C4022 C4027 1.363 . S
C4023 H3994 0.950 . S
C4023 C4022 1.397 . S
C4023 C4024 1.334 . S
C4024 H3995 0.950 . S
C4024 C4023 1.334 . S
C4024 C4025 1.287 . S
C4025 C4024 1.287 . S
C4025 C4026 1.524 . S
C4025 H4028 0.999 . S
C4026 H3996 0.950 . S
C4026 C4025 1.524 . S
C4026 C4027 1.415 . S
C4027 H3997 0.950 . S
C4027 C4022 1.363 . S
C4027 C4026 1.415 . S
H4028 C4025 0.999 . S
H4029 C4010 0.913 . S
H4030 C4048 0.951 1_655 S
H4031 C4050 0.951 . S
H4032 C4052 0.950 . S
H4033 C4053 0.950 . S
H4034 C4055 0.950 . S
H4035 C4058 0.950 1_455 S
H4036 C4059 0.950 . S
H4037 C4061 0.950 . S
H4038 C4062 0.950 . S
H4039 C4063 0.951 1_455 S
H4040 C4065 0.951 . S
H4041 C4067 0.950 . S
H4042 C4068 0.950 . S
H4043 C4070 0.950 . S
H4044 C4073 0.950 1_655 S
H4045 C4074 0.950 . S
H4046 C4076 0.950 . S
H4047 C4077 0.950 . S
C4048 H4030 0.951 1_455 S
C4048 C4049 1.366 . S
C4048 C4050 1.388 1_455 S
C4049 C4048 1.366 . S
C4049 C4053 1.385 . S
C4050 H4031 0.951 . S
C4050 C4048 1.388 1_655 S
C4050 C4051 1.366 1_655 S
C4051 C4050 1.366 1_455 S
C4051 C4052 1.414 . S
C4051 C4054 1.499 . S
C4052 H4032 0.950 . S
C4052 C4051 1.414 . S
C4052 C4053 1.374 . S
C4053 H4033 0.950 . S
C4053 C4049 1.385 . S
C4053 C4052 1.374 . S
C4054 C4051 1.499 . S
C4054 C4055 1.373 1_545 S
C4054 C4056 1.389 1_455 S
C4055 H4034 0.950 . S
C4055 C4054 1.373 1_565 S
C4055 C4071 1.377 1_556 S
C4056 C4054 1.389 1_655 S
C4056 C4057 1.524 . S
C4056 C4070 1.377 1_556 S
C4057 C4056 1.524 . S
C4057 C4058 1.397 . S
C4057 C4062 1.363 . S
C4058 H4035 0.950 1_655 S
C4058 C4057 1.397 . S
C4058 C4059 1.334 . S
C4059 H4036 0.950 . S
C4059 C4058 1.334 . S
C4059 C4060 1.287 . S
C4060 C4059 1.287 . S
C4060 C4061 1.524 . S
C4060 H4079 0.913 . S
C4061 H4037 0.950 . S
C4061 C4060 1.524 . S
C4061 C4062 1.415 . S
C4062 H4038 0.950 . S
C4062 C4057 1.363 . S
C4062 C4061 1.415 . S
C4063 H4039 0.951 1_655 S
C4063 C4064 1.366 . S
C4063 C4065 1.388 1_655 S
C4064 C4063 1.366 . S
C4064 C4068 1.385 . S
C4065 H4040 0.951 . S
C4065 C4063 1.388 1_455 S
C4065 C4066 1.366 1_455 S
C4066 C4065 1.366 1_655 S
C4066 C4067 1.414 . S
C4066 C4069 1.499 . S
C4067 H4041 0.950 . S
C4067 C4066 1.414 . S
C4067 C4068 1.374 . S
C4068 H4042 0.950 . S
C4068 C4064 1.385 . S
C4068 C4067 1.374 . S
C4069 C4066 1.499 . S
C4069 C4070 1.373 1_565 S
C4069 C4071 1.389 1_655 S
C4070 H4043 0.950 . S
C4070 C4056 1.377 1_554 S
C4070 C4069 1.373 1_545 S
C4071 C4055 1.377 1_554 S
C4071 C4069 1.389 1_455 S
C4071 C4072 1.524 . S
C4072 C4071 1.524 . S
C4072 C4073 1.397 . S
C4072 C4077 1.363 . S
C4073 H4044 0.950 1_455 S
C4073 C4072 1.397 . S
C4073 C4074 1.334 . S
C4074 H4045 0.950 . S
C4074 C4073 1.334 . S
C4074 C4075 1.287 . S
C4075 C4074 1.287 . S
C4075 C4076 1.524 . S
C4075 H4078 0.999 . S
C4076 H4046 0.950 . S
C4076 C4075 1.524 . S
C4076 C4077 1.415 . S
C4077 H4047 0.950 . S
C4077 C4072 1.363 . S
C4077 C4076 1.415 . S
H4078 C4075 0.999 . S
H4079 C4060 0.913 . S
H4080 C4098 0.951 . S
H4081 C4100 0.951 . S
H4082 C4102 0.950 . S
H4083 C4103 0.950 . S
H4084 C4105 0.950 . S
H4085 C4108 0.950 . S
H4086 C4109 0.950 . S
H4087 C4111 0.950 . S
H4088 C4112 0.950 . S
H4089 C4113 0.951 . S
H4090 C4115 0.951 . S
H4091 C4117 0.950 . S
H4092 C4118 0.950 . S
H4093 C4120 0.950 . S
H4094 C4123 0.950 . S
H4095 C4124 0.950 . S
H4096 C4126 0.950 . S
H4097 C4127 0.950 . S
C4098 H4080 0.951 . S
C4098 C4099 1.366 . S
C4098 C4100 1.388 . S
C4099 C4098 1.366 . S
C4099 C4103 1.385 . S
C4100 H4081 0.951 . S
C4100 C4098 1.388 . S
C4100 C4101 1.366 . S
C4101 C4100 1.366 . S
C4101 C4102 1.414 . S
C4101 C4104 1.499 . S
C4102 H4082 0.950 . S
C4102 C4101 1.414 . S
C4102 C4103 1.374 . S
C4103 H4083 0.950 . S
C4103 C4099 1.385 . S
C4103 C4102 1.374 . S
C4104 C4101 1.499 . S
C4104 C4105 1.373 . S
C4104 C4106 1.389 . S
C4105 H4084 0.950 . S
C4105 C4104 1.373 . S
C4105 C4121 1.377 . S
C4106 C4104 1.389 . S
C4106 C4107 1.524 . S
C4106 C4120 1.377 . S
C4107 C4106 1.524 . S
C4107 C4108 1.397 . S
C4107 C4112 1.363 . S
C4108 H4085 0.950 . S
C4108 C4107 1.397 . S
C4108 C4109 1.334 . S
C4109 H4086 0.950 . S
C4109 C4108 1.334 . S
C4109 C4110 1.287 . S
C4110 C4109 1.287 . S
C4110 C4111 1.524 . S
C4110 H4129 0.913 . S
C4111 H4087 0.950 . S
C4111 C4110 1.524 . S
C4111 C4112 1.415 . S
C4112 H4088 0.950 . S
C4112 C4107 1.363 . S
C4112 C4111 1.415 . S
C4113 H4089 0.951 . S
C4113 C4114 1.366 . S
C4113 C4115 1.388 . S
C4114 C4113 1.366 . S
C4114 C4118 1.385 . S
C4115 H4090 0.951 . S
C4115 C4113 1.388 . S
C4115 C4116 1.366 . S
C4116 C4115 1.366 . S
C4116 C4117 1.414 . S
C4116 C4119 1.499 . S
C4117 H4091 0.950 . S
C4117 C4116 1.414 . S
C4117 C4118 1.374 . S
C4118 H4092 0.950 . S
C4118 C4114 1.385 . S
C4118 C4117 1.374 . S
C4119 C4116 1.499 . S
C4119 C4120 1.373 . S
C4119 C4121 1.389 . S
C4120 H4093 0.950 . S
C4120 C4106 1.377 . S
C4120 C4119 1.373 . S
C4121 C4105 1.377 . S
C4121 C4119 1.389 . S
C4121 C4122 1.524 . S
C4122 C4121 1.524 . S
C4122 C4123 1.397 . S
C4122 C4127 1.363 . S
C4123 H4094 0.950 . S
C4123 C4122 1.397 . S
C4123 C4124 1.334 . S
C4124 H4095 0.950 . S
C4124 C4123 1.334 . S
C4124 C4125 1.287 . S
C4125 C4124 1.287 . S
C4125 C4126 1.524 . S
C4125 H4128 0.999 . S
C4126 H4096 0.950 . S
C4126 C4125 1.524 . S
C4126 C4127 1.415 . S
C4127 H4097 0.950 . S
C4127 C4122 1.363 . S
C4127 C4126 1.415 . S
H4128 C4125 0.999 . S
H4129 C4110 0.913 . S
H4130 C4148 0.951 . S
H4131 C4150 0.951 . S
H4132 C4152 0.950 . S
H4133 C4153 0.950 . S
H4134 C4155 0.950 . S
H4135 C4158 0.950 . S
H4136 C4159 0.950 . S
H4137 C4161 0.950 . S
H4138 C4162 0.950 . S
H4139 C4163 0.951 . S
H4140 C4165 0.951 . S
H4141 C4167 0.950 . S
H4142 C4168 0.950 . S
H4143 C4170 0.950 . S
H4144 C4173 0.950 . S
H4145 C4174 0.950 . S
H4146 C4176 0.950 . S
H4147 C4177 0.950 . S
C4148 H4130 0.951 . S
C4148 C4149 1.366 . S
C4148 C4150 1.388 . S
C4149 C4148 1.366 . S
C4149 C4153 1.385 . S
C4150 H4131 0.951 . S
C4150 C4148 1.388 . S
C4150 C4151 1.366 . S
C4151 C4150 1.366 . S
C4151 C4152 1.414 . S
C4151 C4154 1.499 . S
C4152 H4132 0.950 . S
C4152 C4151 1.414 . S
C4152 C4153 1.374 . S
C4153 H4133 0.950 . S
C4153 C4149 1.385 . S
C4153 C4152 1.374 . S
C4154 C4151 1.499 . S
C4154 C4155 1.373 . S
C4154 C4156 1.389 . S
C4155 H4134 0.950 . S
C4155 C4154 1.373 . S
C4155 C4171 1.377 . S
C4156 C4154 1.389 . S
C4156 C4157 1.524 . S
C4156 C4170 1.377 . S
C4157 C4156 1.524 . S
C4157 C4158 1.397 . S
C4157 C4162 1.363 . S
C4158 H4135 0.950 . S
C4158 C4157 1.397 . S
C4158 C4159 1.334 . S
C4159 H4136 0.950 . S
C4159 C4158 1.334 . S
C4159 C4160 1.287 . S
C4160 C4159 1.287 . S
C4160 C4161 1.524 . S
C4160 H4179 0.913 . S
C4161 H4137 0.950 . S
C4161 C4160 1.524 . S
C4161 C4162 1.415 . S
C4162 H4138 0.950 . S
C4162 C4157 1.363 . S
C4162 C4161 1.415 . S
C4163 H4139 0.951 . S
C4163 C4164 1.366 . S
C4163 C4165 1.388 . S
C4164 C4163 1.366 . S
C4164 C4168 1.385 . S
C4165 H4140 0.951 . S
C4165 C4163 1.388 . S
C4165 C4166 1.366 . S
C4166 C4165 1.366 . S
C4166 C4167 1.414 . S
C4166 C4169 1.499 . S
C4167 H4141 0.950 . S
C4167 C4166 1.414 . S
C4167 C4168 1.374 . S
C4168 H4142 0.950 . S
C4168 C4164 1.385 . S
C4168 C4167 1.374 . S
C4169 C4166 1.499 . S
C4169 C4170 1.373 . S
C4169 C4171 1.389 . S
C4170 H4143 0.950 . S
C4170 C4156 1.377 . S
C4170 C4169 1.373 . S
C4171 C4155 1.377 . S
C4171 C4169 1.389 . S
C4171 C4172 1.524 . S
C4172 C4171 1.524 . S
C4172 C4173 1.397 . S
C4172 C4177 1.363 . S
C4173 H4144 0.950 . S
C4173 C4172 1.397 . S
C4173 C4174 1.334 . S
C4174 H4145 0.950 . S
C4174 C4173 1.334 . S
C4174 C4175 1.287 . S
C4175 C4174 1.287 . S
C4175 C4176 1.524 . S
C4175 H4178 0.999 . S
C4176 H4146 0.950 . S
C4176 C4175 1.524 . S
C4176 C4177 1.415 . S
C4177 H4147 0.950 . S
C4177 C4172 1.363 . S
C4177 C4176 1.415 . S
H4178 C4175 0.999 . S
H4179 C4160 0.913 . S
H4180 C4198 0.951 . S
H4181 C4200 0.951 . S
H4182 C4202 0.950 . S
H4183 C4203 0.950 . S
H4184 C4205 0.950 . S
H4185 C4208 0.950 . S
H4186 C4209 0.950 . S
H4187 C4211 0.950 . S
H4188 C4212 0.950 . S
H4189 C4213 0.951 . S
H4190 C4215 0.951 . S
H4191 C4217 0.950 . S
H4192 C4218 0.950 . S
H4193 C4220 0.950 . S
H4194 C4223 0.950 . S
H4195 C4224 0.950 . S
H4196 C4226 0.950 . S
H4197 C4227 0.950 . S
C4198 H4180 0.951 . S
C4198 C4199 1.366 . S
C4198 C4200 1.388 . S
C4199 C4198 1.366 . S
C4199 C4203 1.385 . S
C4200 H4181 0.951 . S
C4200 C4198 1.388 . S
C4200 C4201 1.366 . S
C4201 C4200 1.366 . S
C4201 C4202 1.414 . S
C4201 C4204 1.499 . S
C4202 H4182 0.950 . S
C4202 C4201 1.414 . S
C4202 C4203 1.374 . S
C4203 H4183 0.950 . S
C4203 C4199 1.385 . S
C4203 C4202 1.374 . S
C4204 C4201 1.499 . S
C4204 C4205 1.373 . S
C4204 C4206 1.389 . S
C4205 H4184 0.950 . S
C4205 C4204 1.373 . S
C4205 C4221 1.377 . S
C4206 C4204 1.389 . S
C4206 C4207 1.524 . S
C4206 C4220 1.377 . S
C4207 C4206 1.524 . S
C4207 C4208 1.397 . S
C4207 C4212 1.363 . S
C4208 H4185 0.950 . S
C4208 C4207 1.397 . S
C4208 C4209 1.334 . S
C4209 H4186 0.950 . S
C4209 C4208 1.334 . S
C4209 C4210 1.287 . S
C4210 C4209 1.287 . S
C4210 C4211 1.524 . S
C4210 H4229 0.913 . S
C4211 H4187 0.950 . S
C4211 C4210 1.524 . S
C4211 C4212 1.415 . S
C4212 H4188 0.950 . S
C4212 C4207 1.363 . S
C4212 C4211 1.415 . S
C4213 H4189 0.951 . S
C4213 C4214 1.366 . S
C4213 C4215 1.388 . S
C4214 C4213 1.366 . S
C4214 C4218 1.385 . S
C4215 H4190 0.951 . S
C4215 C4213 1.388 . S
C4215 C4216 1.366 . S
C4216 C4215 1.366 . S
C4216 C4217 1.414 . S
C4216 C4219 1.499 . S
C4217 H4191 0.950 . S
C4217 C4216 1.414 . S
C4217 C4218 1.374 . S
C4218 H4192 0.950 . S
C4218 C4214 1.385 . S
C4218 C4217 1.374 . S
C4219 C4216 1.499 . S
C4219 C4220 1.373 . S
C4219 C4221 1.389 . S
C4220 H4193 0.950 . S
C4220 C4206 1.377 . S
C4220 C4219 1.373 . S
C4221 C4205 1.377 . S
C4221 C4219 1.389 . S
C4221 C4222 1.524 . S
C4222 C4221 1.524 . S
C4222 C4223 1.397 . S
C4222 C4227 1.363 . S
C4223 H4194 0.950 . S
C4223 C4222 1.397 . S
C4223 C4224 1.334 . S
C4224 H4195 0.950 . S
C4224 C4223 1.334 . S
C4224 C4225 1.287 . S
C4225 C4224 1.287 . S
C4225 C4226 1.524 . S
C4225 H4228 0.999 . S
C4226 H4196 0.950 . S
C4226 C4225 1.524 . S
C4226 C4227 1.415 . S
C4227 H4197 0.950 . S
C4227 C4222 1.363 . S
C4227 C4226 1.415 . S
H4228 C4225 0.999 . S
H4229 C4210 0.913 . S
H4230 C4248 0.951 . S
H4231 C4250 0.951 . S
H4232 C4252 0.950 . S
H4233 C4253 0.950 . S
H4234 C4255 0.950 . S
H4235 C4258 0.950 . S
H4236 C4259 0.950 . S
H4237 C4261 0.950 . S
H4238 C4262 0.950 . S
H4239 C4263 0.951 . S
H4240 C4265 0.951 . S
H4241 C4267 0.950 . S
H4242 C4268 0.950 . S
H4243 C4270 0.950 . S
H4244 C4273 0.950 . S
H4245 C4274 0.950 . S
H4246 C4276 0.950 . S
H4247 C4277 0.950 . S
C4248 H4230 0.951 . S
C4248 C4249 1.366 . S
C4248 C4250 1.388 . S
C4249 C4248 1.366 . S
C4249 C4253 1.385 . S
C4250 H4231 0.951 . S
C4250 C4248 1.388 . S
C4250 C4251 1.366 . S
C4251 C4250 1.366 . S
C4251 C4252 1.414 . S
C4251 C4254 1.499 . S
C4252 H4232 0.950 . S
C4252 C4251 1.414 . S
C4252 C4253 1.374 . S
C4253 H4233 0.950 . S
C4253 C4249 1.385 . S
C4253 C4252 1.374 . S
C4254 C4251 1.499 . S
C4254 C4255 1.373 . S
C4254 C4256 1.389 . S
C4255 H4234 0.950 . S
C4255 C4254 1.373 . S
C4255 C4271 1.377 . S
C4256 C4254 1.389 . S
C4256 C4257 1.524 . S
C4256 C4270 1.377 . S
C4257 C4256 1.524 . S
C4257 C4258 1.397 . S
C4257 C4262 1.363 . S
C4258 H4235 0.950 . S
C4258 C4257 1.397 . S
C4258 C4259 1.334 . S
C4259 H4236 0.950 . S
C4259 C4258 1.334 . S
C4259 C4260 1.287 . S
C4260 C4259 1.287 . S
C4260 C4261 1.524 . S
C4260 H4279 0.913 . S
C4261 H4237 0.950 . S
C4261 C4260 1.524 . S
C4261 C4262 1.415 . S
C4262 H4238 0.950 . S
C4262 C4257 1.363 . S
C4262 C4261 1.415 . S
C4263 H4239 0.951 . S
C4263 C4264 1.366 . S
C4263 C4265 1.388 . S
C4264 C4263 1.366 . S
C4264 C4268 1.385 . S
C4265 H4240 0.951 . S
C4265 C4263 1.388 . S
C4265 C4266 1.366 . S
C4266 C4265 1.366 . S
C4266 C4267 1.414 . S
C4266 C4269 1.499 . S
C4267 H4241 0.950 . S
C4267 C4266 1.414 . S
C4267 C4268 1.374 . S
C4268 H4242 0.950 . S
C4268 C4264 1.385 . S
C4268 C4267 1.374 . S
C4269 C4266 1.499 . S
C4269 C4270 1.373 . S
C4269 C4271 1.389 . S
C4270 H4243 0.950 . S
C4270 C4256 1.377 . S
C4270 C4269 1.373 . S
C4271 C4255 1.377 . S
C4271 C4269 1.389 . S
C4271 C4272 1.524 . S
C4272 C4271 1.524 . S
C4272 C4273 1.397 . S
C4272 C4277 1.363 . S
C4273 H4244 0.950 . S
C4273 C4272 1.397 . S
C4273 C4274 1.334 . S
C4274 H4245 0.950 . S
C4274 C4273 1.334 . S
C4274 C4275 1.287 . S
C4275 C4274 1.287 . S
C4275 C4276 1.524 . S
C4275 H4278 0.999 . S
C4276 H4246 0.950 . S
C4276 C4275 1.524 . S
C4276 C4277 1.415 . S
C4277 H4247 0.950 . S
C4277 C4272 1.363 . S
C4277 C4276 1.415 . S
H4278 C4275 0.999 . S
H4279 C4260 0.913 . S
H4280 C4298 0.951 . S
H4281 C4300 0.951 . S
H4282 C4302 0.950 . S
H4283 C4303 0.950 . S
H4284 C4305 0.950 . S
H4285 C4308 0.950 . S
H4286 C4309 0.950 . S
H4287 C4311 0.924 1_556 S
H4288 C4312 1.023 . S
H4289 C4313 0.951 . S
H4290 C4315 0.951 . S
H4291 C4317 0.950 . S
H4292 C4318 0.950 . S
H4293 C4320 0.950 . S
H4294 C4323 0.950 . S
H4295 C4324 0.950 . S
H4296 C4326 0.924 1_554 S
H4297 C4327 1.023 . S
C4298 H4280 0.951 . S
C4298 C4299 1.366 . S
C4298 C4300 1.388 . S
C4299 C4298 1.366 . S
C4299 C4303 1.385 . S
C4300 H4281 0.951 . S
C4300 C4298 1.388 . S
C4300 C4301 1.366 . S
C4301 C4300 1.366 . S
C4301 C4302 1.414 . S
C4301 C4304 1.499 . S
C4302 H4282 0.950 . S
C4302 C4301 1.414 . S
C4302 C4303 1.374 . S
C4303 H4283 0.950 . S
C4303 C4299 1.385 . S
C4303 C4302 1.374 . S
C4304 C4301 1.499 . S
C4304 C4305 1.373 . S
C4304 C4306 1.389 . S
C4305 H4284 0.950 . S
C4305 C4304 1.373 . S
C4305 C4321 1.377 1_554 S
C4306 C4304 1.389 . S
C4306 C4307 1.524 . S
C4306 C4320 1.377 1_554 S
C4307 C4306 1.524 . S
C4307 C4308 1.397 . S
C4307 C4312 1.312 1_554 S
C4308 H4285 0.950 . S
C4308 C4307 1.397 . S
C4308 C4309 1.334 . S
C4309 H4286 0.950 . S
C4309 C4308 1.334 . S
C4309 C4310 1.287 . S
C4310 C4309 1.287 . S
C4310 C4311 1.564 . S
C4310 H4329 0.913 . S
C4311 H4287 0.924 1_554 S
C4311 C4310 1.564 . S
C4311 C4312 1.401 1_554 S
C4312 H4288 1.023 . S
C4312 C4307 1.312 1_556 S
C4312 C4311 1.401 1_556 S
C4313 H4289 0.951 . S
C4313 C4314 1.366 . S
C4313 C4315 1.388 . S
C4314 C4313 1.366 . S
C4314 C4318 1.385 . S
C4315 H4290 0.951 . S
C4315 C4313 1.388 . S
C4315 C4316 1.366 . S
C4316 C4315 1.366 . S
C4316 C4317 1.414 . S
C4316 C4319 1.499 . S
C4317 H4291 0.950 . S
C4317 C4316 1.414 . S
C4317 C4318 1.374 . S
C4318 H4292 0.950 . S
C4318 C4314 1.385 . S
C4318 C4317 1.374 . S
C4319 C4316 1.499 . S
C4319 C4320 1.373 . S
C4319 C4321 1.389 . S
C4320 H4293 0.950 . S
C4320 C4306 1.377 1_556 S
C4320 C4319 1.373 . S
C4321 C4305 1.377 1_556 S
C4321 C4319 1.389 . S
C4321 C4322 1.524 . S
C4322 C4321 1.524 . S
C4322 C4323 1.397 . S
C4322 C4327 1.312 1_556 S
C4323 H4294 0.950 . S
C4323 C4322 1.397 . S
C4323 C4324 1.334 . S
C4324 H4295 0.950 . S
C4324 C4323 1.334 . S
C4324 C4325 1.287 . S
C4325 C4324 1.287 . S
C4325 C4326 1.564 . S
C4325 H4328 0.999 . S
C4326 H4296 0.924 1_556 S
C4326 C4325 1.564 . S
C4326 C4327 1.401 1_556 S
C4327 H4297 1.023 . S
C4327 C4322 1.312 1_554 S
C4327 C4326 1.401 1_554 S
H4328 C4325 0.999 . S
H4329 C4310 0.913 . S
H4330 C4348 0.951 1_455 S
H4331 C4350 0.951 1_455 S
H4332 C4352 0.950 . S
H4333 C4353 0.950 . S
H4334 C4355 0.950 . S
H4335 C4358 0.950 . S
H4336 C4359 0.950 . S
H4337 C4361 0.950 1_455 S
H4338 C4362 0.950 . S
H4339 C4363 0.951 1_655 S
H4340 C4365 0.951 1_655 S
H4341 C4367 0.950 . S
H4342 C4368 0.950 . S
H4343 C4370 0.950 . S
H4344 C4373 0.950 . S
H4345 C4374 0.950 . S
H4346 C4376 0.950 1_655 S
H4347 C4377 0.950 . S
C4348 H4330 0.951 1_655 S
C4348 C4349 1.366 . S
C4348 C4350 1.388 . S
C4349 C4348 1.366 . S
C4349 C4353 1.385 . S
C4350 H4331 0.951 1_655 S
C4350 C4348 1.388 . S
C4350 C4351 1.366 . S
C4351 C4350 1.366 . S
C4351 C4352 1.414 . S
C4351 C4354 1.499 . S
C4352 H4332 0.950 . S
C4352 C4351 1.414 . S
C4352 C4353 1.374 . S
C4353 H4333 0.950 . S
C4353 C4349 1.385 . S
C4353 C4352 1.374 . S
C4354 C4351 1.499 . S
C4354 C4355 1.373 . S
C4354 C4356 1.389 . S
C4355 H4334 0.950 . S
C4355 C4354 1.373 . S
C4355 C4371 1.377 1_655 S
C4356 C4354 1.389 . S
C4356 C4357 1.524 . S
C4356 C4370 1.377 1_655 S
C4357 C4356 1.524 . S
C4357 C4358 1.397 . S
C4357 C4362 1.363 1_655 S
C4358 H4335 0.950 . S
C4358 C4357 1.397 . S
C4358 C4359 1.334 . S
C4359 H4336 0.950 . S
C4359 C4358 1.334 . S
C4359 C4360 1.287 . S
C4360 C4359 1.287 . S
C4360 C4361 1.524 . S
C4360 H4379 0.913 . S
C4361 H4337 0.950 1_655 S
C4361 C4360 1.524 . S
C4361 C4362 1.415 1_655 S
C4362 H4338 0.950 . S
C4362 C4357 1.363 1_455 S
C4362 C4361 1.415 1_455 S
C4363 H4339 0.951 1_455 S
C4363 C4364 1.366 . S
C4363 C4365 1.388 . S
C4364 C4363 1.366 . S
C4364 C4368 1.385 . S
C4365 H4340 0.951 1_455 S
C4365 C4363 1.388 . S
C4365 C4366 1.366 . S
C4366 C4365 1.366 . S
C4366 C4367 1.414 . S
C4366 C4369 1.499 . S
C4367 H4341 0.950 . S
C4367 C4366 1.414 . S
C4367 C4368 1.374 . S
C4368 H4342 0.950 . S
C4368 C4364 1.385 . S
C4368 C4367 1.374 . S
C4369 C4366 1.499 . S
C4369 C4370 1.373 . S
C4369 C4371 1.389 . S
C4370 H4343 0.950 . S
C4370 C4356 1.377 1_455 S
C4370 C4369 1.373 . S
C4371 C4355 1.377 1_455 S
C4371 C4369 1.389 . S
C4371 C4372 1.524 . S
C4372 C4371 1.524 . S
C4372 C4373 1.397 . S
C4372 C4377 1.363 1_455 S
C4373 H4344 0.950 . S
C4373 C4372 1.397 . S
C4373 C4374 1.334 . S
C4374 H4345 0.950 . S
C4374 C4373 1.334 . S
C4374 C4375 1.287 . S
C4375 C4374 1.287 . S
C4375 C4376 1.524 . S
C4375 H4378 0.999 . S
C4376 H4346 0.950 1_455 S
C4376 C4375 1.524 . S
C4376 C4377 1.415 1_455 S
C4377 H4347 0.950 . S
C4377 C4372 1.363 1_655 S
C4377 C4376 1.415 1_655 S
H4378 C4375 0.999 . S
H4379 C4360 0.913 . S
H4380 C4398 0.920 1_655 S
H4381 C4400 0.951 . S
H4382 C4402 0.950 . S
H4383 C4403 0.950 . S
H4384 C4405 0.950 . S
H4385 C4408 0.950 1_455 S
H4386 C4409 0.950 . S
H4387 C4411 0.950 . S
H4388 C4412 0.950 . S
H4389 C4413 0.920 1_455 S
H4390 C4415 0.951 . S
H4391 C4417 0.950 . S
H4392 C4418 0.950 . S
H4393 C4420 0.950 . S
H4394 C4423 0.950 1_655 S
H4395 C4424 0.950 . S
H4396 C4426 0.950 . S
H4397 C4427 0.950 . S
C4398 H4380 0.920 1_455 S
C4398 C4399 1.407 . S
C4398 C4400 1.378 1_455 S
C4399 C4398 1.407 . S
C4399 C4403 1.385 . S
C4400 H4381 0.951 . S
C4400 C4398 1.378 1_655 S
C4400 C4401 1.366 1_655 S
C4401 C4400 1.366 1_455 S
C4401 C4402 1.414 . S
C4401 C4404 1.499 . S
C4402 H4382 0.950 . S
C4402 C4401 1.414 . S
C4402 C4403 1.374 . S
C4403 H4383 0.950 . S
C4403 C4399 1.385 . S
C4403 C4402 1.374 . S
C4404 C4401 1.499 . S
C4404 C4405 1.373 . S
C4404 C4406 1.389 1_455 S
C4405 H4384 0.950 . S
C4405 C4404 1.373 . S
C4405 C4421 1.377 1_554 S
C4406 C4404 1.389 1_655 S
C4406 C4407 1.524 . S
C4406 C4420 1.377 1_554 S
C4407 C4406 1.524 . S
C4407 C4408 1.397 . S
C4407 C4412 1.363 . S
C4408 H4385 0.950 1_655 S
C4408 C4407 1.397 . S
C4408 C4409 1.334 . S
C4409 H4386 0.950 . S
C4409 C4408 1.334 . S
C4409 C4410 1.287 . S
C4410 C4409 1.287 . S
C4410 C4411 1.524 . S
C4410 H4429 0.913 . S
C4411 H4387 0.950 . S
C4411 C4410 1.524 . S
C4411 C4412 1.415 . S
C4412 H4388 0.950 . S
C4412 C4407 1.363 . S
C4412 C4411 1.415 . S
C4413 H4389 0.920 1_655 S
C4413 C4414 1.407 . S
C4413 C4415 1.378 1_655 S
C4414 C4413 1.407 . S
C4414 C4418 1.385 . S
C4415 H4390 0.951 . S
C4415 C4413 1.378 1_455 S
C4415 C4416 1.366 1_455 S
C4416 C4415 1.366 1_655 S
C4416 C4417 1.414 . S
C4416 C4419 1.499 . S
C4417 H4391 0.950 . S
C4417 C4416 1.414 . S
C4417 C4418 1.374 . S
C4418 H4392 0.950 . S
C4418 C4414 1.385 . S
C4418 C4417 1.374 . S
C4419 C4416 1.499 . S
C4419 C4420 1.373 . S
C4419 C4421 1.389 1_655 S
C4420 H4393 0.950 . S
C4420 C4406 1.377 1_556 S
C4420 C4419 1.373 . S
C4421 C4405 1.377 1_556 S
C4421 C4419 1.389 1_455 S
C4421 C4422 1.524 . S
C4422 C4421 1.524 . S
C4422 C4423 1.397 . S
C4422 C4427 1.363 . S
C4423 H4394 0.950 1_455 S
C4423 C4422 1.397 . S
C4423 C4424 1.334 . S
C4424 H4395 0.950 . S
C4424 C4423 1.334 . S
C4424 C4425 1.287 . S
C4425 C4424 1.287 . S
C4425 C4426 1.524 . S
C4425 H4428 0.999 . S
C4426 H4396 0.950 . S
C4426 C4425 1.524 . S
C4426 C4427 1.415 . S
C4427 H4397 0.950 . S
C4427 C4422 1.363 . S
C4427 C4426 1.415 . S
H4428 C4425 0.999 . S
H4429 C4410 0.913 . S
H4430 C4448 0.951 . S
H4431 C4450 0.951 . S
H4432 C4452 0.950 . S
H4433 C4453 0.950 . S
H4434 C4455 0.950 . S
H4435 C4458 0.950 . S
H4436 C4459 0.950 . S
H4437 C4461 0.950 . S
H4438 C4462 0.950 . S
H4439 C4463 0.951 . S
H4440 C4465 0.951 . S
H4441 C4467 0.950 . S
H4442 C4468 0.950 . S
H4443 C4470 0.950 . S
H4444 C4473 0.950 . S
H4445 C4474 0.950 . S
H4446 C4476 0.950 . S
H4447 C4477 0.950 . S
C4448 H4430 0.951 . S
C4448 C4449 1.366 . S
C4448 C4450 1.388 . S
C4449 C4448 1.366 . S
C4449 C4453 1.385 . S
C4450 H4431 0.951 . S
C4450 C4448 1.388 . S
C4450 C4451 1.366 . S
C4451 C4450 1.366 . S
C4451 C4452 1.414 . S
C4451 C4454 1.499 . S
C4452 H4432 0.950 . S
C4452 C4451 1.414 . S
C4452 C4453 1.374 . S
C4453 H4433 0.950 . S
C4453 C4449 1.385 . S
C4453 C4452 1.374 . S
C4454 C4451 1.499 . S
C4454 C4455 1.373 . S
C4454 C4456 1.389 . S
C4455 H4434 0.950 . S
C4455 C4454 1.373 . S
C4455 C4471 1.377 . S
C4456 C4454 1.389 . S
C4456 C4457 1.524 . S
C4456 C4470 1.377 . S
C4457 C4456 1.524 . S
C4457 C4458 1.397 . S
C4457 C4462 1.363 . S
C4458 H4435 0.950 . S
C4458 C4457 1.397 . S
C4458 C4459 1.334 . S
C4459 H4436 0.950 . S
C4459 C4458 1.334 . S
C4459 C4460 1.287 . S
C4460 C4459 1.287 . S
C4460 C4461 1.524 . S
C4460 H4479 0.913 . S
C4461 H4437 0.950 . S
C4461 C4460 1.524 . S
C4461 C4462 1.415 . S
C4462 H4438 0.950 . S
C4462 C4457 1.363 . S
C4462 C4461 1.415 . S
C4463 H4439 0.951 . S
C4463 C4464 1.366 . S
C4463 C4465 1.388 . S
C4464 C4463 1.366 . S
C4464 C4468 1.385 . S
C4465 H4440 0.951 . S
C4465 C4463 1.388 . S
C4465 C4466 1.366 . S
C4466 C4465 1.366 . S
C4466 C4467 1.414 . S
C4466 C4469 1.499 . S
C4467 H4441 0.950 . S
C4467 C4466 1.414 . S
C4467 C4468 1.374 . S
C4468 H4442 0.950 . S
C4468 C4464 1.385 . S
C4468 C4467 1.374 . S
C4469 C4466 1.499 . S
C4469 C4470 1.373 . S
C4469 C4471 1.389 . S
C4470 H4443 0.950 . S
C4470 C4456 1.377 . S
C4470 C4469 1.373 . S
C4471 C4455 1.377 . S
C4471 C4469 1.389 . S
C4471 C4472 1.524 . S
C4472 C4471 1.524 . S
C4472 C4473 1.397 . S
C4472 C4477 1.363 . S
C4473 H4444 0.950 . S
C4473 C4472 1.397 . S
C4473 C4474 1.334 . S
C4474 H4445 0.950 . S
C4474 C4473 1.334 . S
C4474 C4475 1.287 . S
C4475 C4474 1.287 . S
C4475 C4476 1.524 . S
C4475 H4478 0.999 . S
C4476 H4446 0.950 . S
C4476 C4475 1.524 . S
C4476 C4477 1.415 . S
C4477 H4447 0.950 . S
C4477 C4472 1.363 . S
C4477 C4476 1.415 . S
H4478 C4475 0.999 . S
H4479 C4460 0.913 . S
H4480 C4498 0.951 . S
H4481 C4500 0.951 . S
H4482 C4502 0.950 . S
H4483 C4503 0.950 . S
H4484 C4505 0.950 . S
H4485 C4508 0.950 . S
H4486 C4509 0.950 . S
H4487 C4511 0.950 . S
H4488 C4512 0.950 . S
H4489 C4513 0.951 . S
H4490 C4515 0.951 . S
H4491 C4517 0.950 . S
H4492 C4518 0.950 . S
H4493 C4520 0.950 . S
H4494 C4523 0.950 . S
H4495 C4524 0.950 . S
H4496 C4526 0.950 . S
H4497 C4527 0.950 . S
C4498 H4480 0.951 . S
C4498 C4499 1.366 . S
C4498 C4500 1.388 . S
C4499 C4498 1.366 . S
C4499 C4503 1.385 . S
C4500 H4481 0.951 . S
C4500 C4498 1.388 . S
C4500 C4501 1.366 . S
C4501 C4500 1.366 . S
C4501 C4502 1.414 . S
C4501 C4504 1.499 . S
C4502 H4482 0.950 . S
C4502 C4501 1.414 . S
C4502 C4503 1.374 . S
C4503 H4483 0.950 . S
C4503 C4499 1.385 . S
C4503 C4502 1.374 . S
C4504 C4501 1.499 . S
C4504 C4505 1.373 . S
C4504 C4506 1.389 . S
C4505 H4484 0.950 . S
C4505 C4504 1.373 . S
C4505 C4521 1.377 . S
C4506 C4504 1.389 . S
C4506 C4507 1.524 . S
C4506 C4520 1.377 . S
C4507 C4506 1.524 . S
C4507 C4508 1.397 . S
C4507 C4512 1.363 . S
C4508 H4485 0.950 . S
C4508 C4507 1.397 . S
C4508 C4509 1.334 . S
C4509 H4486 0.950 . S
C4509 C4508 1.334 . S
C4509 C4510 1.287 . S
C4510 C4509 1.287 . S
C4510 C4511 1.524 . S
C4510 H4529 0.913 . S
C4511 H4487 0.950 . S
C4511 C4510 1.524 . S
C4511 C4512 1.415 . S
C4512 H4488 0.950 . S
C4512 C4507 1.363 . S
C4512 C4511 1.415 . S
C4513 H4489 0.951 . S
C4513 C4514 1.366 . S
C4513 C4515 1.388 . S
C4514 C4513 1.366 . S
C4514 C4518 1.385 . S
C4515 H4490 0.951 . S
C4515 C4513 1.388 . S
C4515 C4516 1.366 . S
C4516 C4515 1.366 . S
C4516 C4517 1.414 . S
C4516 C4519 1.499 . S
C4517 H4491 0.950 . S
C4517 C4516 1.414 . S
C4517 C4518 1.374 . S
C4518 H4492 0.950 . S
C4518 C4514 1.385 . S
C4518 C4517 1.374 . S
C4519 C4516 1.499 . S
C4519 C4520 1.373 . S
C4519 C4521 1.389 . S
C4520 H4493 0.950 . S
C4520 C4506 1.377 . S
C4520 C4519 1.373 . S
C4521 C4505 1.377 . S
C4521 C4519 1.389 . S
C4521 C4522 1.524 . S
C4522 C4521 1.524 . S
C4522 C4523 1.397 . S
C4522 C4527 1.363 . S
C4523 H4494 0.950 . S
C4523 C4522 1.397 . S
C4523 C4524 1.334 . S
C4524 H4495 0.950 . S
C4524 C4523 1.334 . S
C4524 C4525 1.287 . S
C4525 C4524 1.287 . S
C4525 C4526 1.524 . S
C4525 H4528 0.999 . S
C4526 H4496 0.950 . S
C4526 C4525 1.524 . S
C4526 C4527 1.415 . S
C4527 H4497 0.950 . S
C4527 C4522 1.363 . S
C4527 C4526 1.415 . S
H4528 C4525 0.999 . S
H4529 C4510 0.913 . S
H4530 C4548 0.951 . S
H4531 C4550 0.951 . S
H4532 C4552 0.950 . S
H4533 C4553 0.950 . S
H4534 C4555 0.950 . S
H4535 C4558 0.950 . S
H4536 C4559 0.950 . S
H4537 C4561 0.950 . S
H4538 C4562 0.950 . S
H4539 C4563 0.951 . S
H4540 C4565 0.951 . S
H4541 C4567 0.950 . S
H4542 C4568 0.950 . S
H4543 C4570 0.950 . S
H4544 C4573 0.950 . S
H4545 C4574 0.950 . S
H4546 C4576 0.950 1_565 S
H4547 C4577 0.950 . S
C4548 H4530 0.951 . S
C4548 C4549 1.366 . S
C4548 C4550 1.388 . S
C4549 C4548 1.366 . S
C4549 C4553 1.385 . S
C4550 H4531 0.951 . S
C4550 C4548 1.388 . S
C4550 C4551 1.366 . S
C4551 C4550 1.366 . S
C4551 C4552 1.414 . S
C4551 C4554 1.499 . S
C4552 H4532 0.950 . S
C4552 C4551 1.414 . S
C4552 C4553 1.374 . S
C4553 H4533 0.950 . S
C4553 C4549 1.385 . S
C4553 C4552 1.374 . S
C4554 C4551 1.499 . S
C4554 C4555 1.373 . S
C4554 C4556 1.389 . S
C4555 H4534 0.950 . S
C4555 C4554 1.373 . S
C4555 C4571 1.377 . S
C4556 C4554 1.389 . S
C4556 C4557 1.524 . S
C4556 C4570 1.377 . S
C4557 C4556 1.524 . S
C4557 C4558 1.397 . S
C4557 C4562 1.363 . S
C4558 H4535 0.950 . S
C4558 C4557 1.397 . S
C4558 C4559 1.334 . S
C4559 H4536 0.950 . S
C4559 C4558 1.334 . S
C4559 C4560 1.287 . S
C4560 C4559 1.287 . S
C4560 C4561 1.524 . S
C4560 H4579 0.913 . S
C4561 H4537 0.950 . S
C4561 C4560 1.524 . S
C4561 C4562 1.415 . S
C4562 H4538 0.950 . S
C4562 C4557 1.363 . S
C4562 C4561 1.415 . S
C4563 H4539 0.951 . S
C4563 C4564 1.366 . S
C4563 C4565 1.388 . S
C4564 C4563 1.366 . S
C4564 C4568 1.385 . S
C4565 H4540 0.951 . S
C4565 C4563 1.388 . S
C4565 C4566 1.366 . S
C4566 C4565 1.366 . S
C4566 C4567 1.414 . S
C4566 C4569 1.499 . S
C4567 H4541 0.950 . S
C4567 C4566 1.414 . S
C4567 C4568 1.374 . S
C4568 H4542 0.950 . S
C4568 C4564 1.385 . S
C4568 C4567 1.374 . S
C4569 C4566 1.499 . S
C4569 C4570 1.373 . S
C4569 C4571 1.389 . S
C4570 H4543 0.950 . S
C4570 C4556 1.377 . S
C4570 C4569 1.373 . S
C4571 C4555 1.377 . S
C4571 C4569 1.389 . S
C4571 C4572 1.524 . S
C4572 C4571 1.524 . S
C4572 C4573 1.397 . S
C4572 C4577 1.363 . S
C4573 H4544 0.950 . S
C4573 C4572 1.397 . S
C4573 C4574 1.334 1_545 S
C4574 H4545 0.950 . S
C4574 C4573 1.334 1_565 S
C4574 C4575 1.287 . S
C4575 C4574 1.287 . S
C4575 C4576 1.524 1_565 S
C4575 H4578 0.999 . S
C4576 H4546 0.950 1_545 S
C4576 C4575 1.524 1_545 S
C4576 C4577 1.415 . S
C4577 H4547 0.950 . S
C4577 C4572 1.363 . S
C4577 C4576 1.415 . S
H4578 C4575 0.999 . S
H4579 C4560 0.913 . S
H4580 C4598 0.951 . S
H4581 C4600 0.951 . S
H4582 C4602 0.950 . S
H4583 C4603 0.950 . S
H4584 C4605 0.950 . S
H4585 C4608 0.950 . S
H4586 C4609 0.950 1_545 S
H4587 C4611 0.950 . S
H4588 C4612 0.950 . S
H4589 C4613 0.951 . S
H4590 C4615 0.951 . S
H4591 C4617 0.950 . S
H4592 C4618 0.950 . S
H4593 C4620 0.950 . S
H4594 C4623 0.950 . S
H4595 C4624 0.950 . S
H4596 C4626 0.950 . S
H4597 C4627 0.950 . S
C4598 H4580 0.951 . S
C4598 C4599 1.366 . S
C4598 C4600 1.388 . S
C4599 C4598 1.366 . S
C4599 C4603 1.385 . S
C4600 H4581 0.951 . S
C4600 C4598 1.388 . S
C4600 C4601 1.366 . S
C4601 C4600 1.366 . S
C4601 C4602 1.414 . S
C4601 C4604 1.499 . S
C4602 H4582 0.950 . S
C4602 C4601 1.414 . S
C4602 C4603 1.374 . S
C4603 H4583 0.950 . S
C4603 C4599 1.385 . S
C4603 C4602 1.374 . S
C4604 C4601 1.499 . S
C4604 C4605 1.373 . S
C4604 C4606 1.389 . S
C4605 H4584 0.950 . S
C4605 C4604 1.373 . S
C4605 C4621 1.377 . S
C4606 C4604 1.389 . S
C4606 C4607 1.524 . S
C4606 C4620 1.377 . S
C4607 C4606 1.524 . S
C4607 C4608 1.397 . S
C4607 C4612 1.363 . S
C4608 H4585 0.950 . S
C4608 C4607 1.397 . S
C4608 C4609 1.334 . S
C4609 H4586 0.950 1_565 S
C4609 C4608 1.334 . S
C4609 C4610 1.287 . S
C4610 C4609 1.287 . S
C4610 C4611 1.524 . S
C4610 H4629 0.913 1_565 S
C4611 H4587 0.950 . S
C4611 C4610 1.524 . S
C4611 C4612 1.415 . S
C4612 H4588 0.950 . S
C4612 C4607 1.363 . S
C4612 C4611 1.415 . S
C4613 H4589 0.951 . S
C4613 C4614 1.366 . S
C4613 C4615 1.388 . S
C4614 C4613 1.366 . S
C4614 C4618 1.385 . S
C4615 H4590 0.951 . S
C4615 C4613 1.388 . S
C4615 C4616 1.366 . S
C4616 C4615 1.366 . S
C4616 C4617 1.414 . S
C4616 C4619 1.499 . S
C4617 H4591 0.950 . S
C4617 C4616 1.414 . S
C4617 C4618 1.374 . S
C4618 H4592 0.950 . S
C4618 C4614 1.385 . S
C4618 C4617 1.374 . S
C4619 C4616 1.499 . S
C4619 C4620 1.373 . S
C4619 C4621 1.389 . S
C4620 H4593 0.950 . S
C4620 C4606 1.377 . S
C4620 C4619 1.373 . S
C4621 C4605 1.377 . S
C4621 C4619 1.389 . S
C4621 C4622 1.524 . S
C4622 C4621 1.524 . S
C4622 C4623 1.397 . S
C4622 C4627 1.363 . S
C4623 H4594 0.950 . S
C4623 C4622 1.397 . S
C4623 C4624 1.334 . S
C4624 H4595 0.950 . S
C4624 C4623 1.334 . S
C4624 C4625 1.287 . S
C4625 C4624 1.287 . S
C4625 C4626 1.524 . S
C4625 H4628 0.999 . S
C4626 H4596 0.950 . S
C4626 C4625 1.524 . S
C4626 C4627 1.415 . S
C4627 H4597 0.950 . S
C4627 C4622 1.363 . S
C4627 C4626 1.415 . S
H4628 C4625 0.999 . S
H4629 C4610 0.913 1_545 S
H4630 C4648 0.951 . S
H4631 C4650 0.951 . S
H4632 C4652 0.950 . S
H4633 C4653 0.950 . S
H4634 C4655 0.950 . S
H4635 C4658 0.950 . S
H4636 C4659 0.950 . S
H4637 C4661 0.950 . S
H4638 C4662 0.950 . S
H4639 C4663 0.951 . S
H4640 C4665 0.951 . S
H4641 C4667 0.950 . S
H4642 C4668 0.950 . S
H4643 C4670 0.950 . S
H4644 C4673 0.950 . S
H4645 C4674 0.950 . S
H4646 C4676 0.950 . S
H4647 C4677 0.950 . S
C4648 H4630 0.951 . S
C4648 C4649 1.366 . S
C4648 C4650 1.388 . S
C4649 C4648 1.366 . S
C4649 C4653 1.385 . S
C4650 H4631 0.951 . S
C4650 C4648 1.388 . S
C4650 C4651 1.366 . S
C4651 C4650 1.366 . S
C4651 C4652 1.414 . S
C4651 C4654 1.499 . S
C4652 H4632 0.950 . S
C4652 C4651 1.414 . S
C4652 C4653 1.374 . S
C4653 H4633 0.950 . S
C4653 C4649 1.385 . S
C4653 C4652 1.374 . S
C4654 C4651 1.499 . S
C4654 C4655 1.373 . S
C4654 C4656 1.389 . S
C4655 H4634 0.950 . S
C4655 C4654 1.373 . S
C4655 C4671 1.377 . S
C4656 C4654 1.389 . S
C4656 C4657 1.524 . S
C4656 C4670 1.377 . S
C4657 C4656 1.524 . S
C4657 C4658 1.397 . S
C4657 C4662 1.363 . S
C4658 H4635 0.950 . S
C4658 C4657 1.397 . S
C4658 C4659 1.334 . S
C4659 H4636 0.950 . S
C4659 C4658 1.334 . S
C4659 C4660 1.287 . S
C4660 C4659 1.287 . S
C4660 C4661 1.524 . S
C4660 H4679 0.913 . S
C4661 H4637 0.950 . S
C4661 C4660 1.524 . S
C4661 C4662 1.415 . S
C4662 H4638 0.950 . S
C4662 C4657 1.363 . S
C4662 C4661 1.415 . S
C4663 H4639 0.951 . S
C4663 C4664 1.366 . S
C4663 C4665 1.388 . S
C4664 C4663 1.366 . S
C4664 C4668 1.385 . S
C4665 H4640 0.951 . S
C4665 C4663 1.388 . S
C4665 C4666 1.366 . S
C4666 C4665 1.366 . S
C4666 C4667 1.414 . S
C4666 C4669 1.499 . S
C4667 H4641 0.950 . S
C4667 C4666 1.414 . S
C4667 C4668 1.374 . S
C4668 H4642 0.950 . S
C4668 C4664 1.385 . S
C4668 C4667 1.374 . S
C4669 C4666 1.499 . S
C4669 C4670 1.373 . S
C4669 C4671 1.389 . S
C4670 H4643 0.950 . S
C4670 C4656 1.377 . S
C4670 C4669 1.373 . S
C4671 C4655 1.377 . S
C4671 C4669 1.389 . S
C4671 C4672 1.524 . S
C4672 C4671 1.524 . S
C4672 C4673 1.397 . S
C4672 C4677 1.363 . S
C4673 H4644 0.950 . S
C4673 C4672 1.397 . S
C4673 C4674 1.334 . S
C4674 H4645 0.950 . S
C4674 C4673 1.334 . S
C4674 C4675 1.287 . S
C4675 C4674 1.287 . S
C4675 C4676 1.524 . S
C4675 H4678 0.999 . S
C4676 H4646 0.950 . S
C4676 C4675 1.524 . S
C4676 C4677 1.415 . S
C4677 H4647 0.950 . S
C4677 C4672 1.363 . S
C4677 C4676 1.415 . S
H4678 C4675 0.999 . S
H4679 C4660 0.913 . S
H4680 C4698 0.951 . S
H4681 C4700 0.951 . S
H4682 C4702 0.950 . S
H4683 C4703 0.950 . S
H4684 C4705 0.950 . S
H4685 C4708 0.950 . S
H4686 C4709 0.950 . S
H4687 C4711 0.950 . S
H4688 C4712 0.950 . S
H4689 C4713 0.951 . S
H4690 C4715 0.951 . S
H4691 C4717 0.950 . S
H4692 C4718 0.950 . S
H4693 C4720 0.950 . S
H4694 C4723 0.950 . S
H4695 C4724 0.950 . S
H4696 C4726 0.950 . S
H4697 C4727 0.950 . S
C4698 H4680 0.951 . S
C4698 C4699 1.366 . S
C4698 C4700 1.388 . S
C4699 C4698 1.366 . S
C4699 C4703 1.385 . S
C4700 H4681 0.951 . S
C4700 C4698 1.388 . S
C4700 C4701 1.366 . S
C4701 C4700 1.366 . S
C4701 C4702 1.414 . S
C4701 C4704 1.499 . S
C4702 H4682 0.950 . S
C4702 C4701 1.414 . S
C4702 C4703 1.374 . S
C4703 H4683 0.950 . S
C4703 C4699 1.385 . S
C4703 C4702 1.374 . S
C4704 C4701 1.499 . S
C4704 C4705 1.373 . S
C4704 C4706 1.389 . S
C4705 H4684 0.950 . S
C4705 C4704 1.373 . S
C4705 C4721 1.377 . S
C4706 C4704 1.389 . S
C4706 C4707 1.524 . S
C4706 C4720 1.377 . S
C4707 C4706 1.524 . S
C4707 C4708 1.397 . S
C4707 C4712 1.363 . S
C4708 H4685 0.950 . S
C4708 C4707 1.397 . S
C4708 C4709 1.334 . S
C4709 H4686 0.950 . S
C4709 C4708 1.334 . S
C4709 C4710 1.287 . S
C4710 C4709 1.287 . S
C4710 C4711 1.524 . S
C4710 H4729 0.913 . S
C4711 H4687 0.950 . S
C4711 C4710 1.524 . S
C4711 C4712 1.415 . S
C4712 H4688 0.950 . S
C4712 C4707 1.363 . S
C4712 C4711 1.415 . S
C4713 H4689 0.951 . S
C4713 C4714 1.366 . S
C4713 C4715 1.388 . S
C4714 C4713 1.366 . S
C4714 C4718 1.385 . S
C4715 H4690 0.951 . S
C4715 C4713 1.388 . S
C4715 C4716 1.366 . S
C4716 C4715 1.366 . S
C4716 C4717 1.414 . S
C4716 C4719 1.499 . S
C4717 H4691 0.950 . S
C4717 C4716 1.414 . S
C4717 C4718 1.374 . S
C4718 H4692 0.950 . S
C4718 C4714 1.385 . S
C4718 C4717 1.374 . S
C4719 C4716 1.499 . S
C4719 C4720 1.373 . S
C4719 C4721 1.389 . S
C4720 H4693 0.950 . S
C4720 C4706 1.377 . S
C4720 C4719 1.373 . S
C4721 C4705 1.377 . S
C4721 C4719 1.389 . S
C4721 C4722 1.524 . S
C4722 C4721 1.524 . S
C4722 C4723 1.397 . S
C4722 C4727 1.363 . S
C4723 H4694 0.950 . S
C4723 C4722 1.397 . S
C4723 C4724 1.334 . S
C4724 H4695 0.950 . S
C4724 C4723 1.334 . S
C4724 C4725 1.287 . S
C4725 C4724 1.287 . S
C4725 C4726 1.524 . S
C4725 H4728 0.999 . S
C4726 H4696 0.950 . S
C4726 C4725 1.524 . S
C4726 C4727 1.415 . S
C4727 H4697 0.950 . S
C4727 C4722 1.363 . S
C4727 C4726 1.415 . S
H4728 C4725 0.999 . S
H4729 C4710 0.913 . S
H4730 C4748 0.951 . S
H4731 C4750 0.951 . S
H4732 C4752 0.950 . S
H4733 C4753 0.950 . S
H4734 C4755 0.950 . S
H4735 C4758 0.950 . S
H4736 C4759 0.950 . S
H4737 C4761 0.949 1_545 S
H4738 C4762 0.950 . S
H4739 C4763 0.951 . S
H4740 C4765 0.951 . S
H4741 C4767 0.950 . S
H4742 C4768 0.950 . S
H4743 C4770 0.950 . S
H4744 C4773 0.950 . S
H4745 C4774 0.950 . S
H4746 C4776 0.950 . S
H4747 C4777 0.950 . S
C4748 H4730 0.951 . S
C4748 C4749 1.366 . S
C4748 C4750 1.388 . S
C4749 C4748 1.366 . S
C4749 C4753 1.385 . S
C4750 H4731 0.951 . S
C4750 C4748 1.388 . S
C4750 C4751 1.366 . S
C4751 C4750 1.366 . S
C4751 C4752 1.414 . S
C4751 C4754 1.499 . S
C4752 H4732 0.950 . S
C4752 C4751 1.414 . S
C4752 C4753 1.374 . S
C4753 H4733 0.950 . S
C4753 C4749 1.385 . S
C4753 C4752 1.374 . S
C4754 C4751 1.499 . S
C4754 C4755 1.373 . S
C4754 C4756 1.389 . S
C4755 H4734 0.950 . S
C4755 C4754 1.373 . S
C4755 C4771 1.377 . S
C4756 C4754 1.389 . S
C4756 C4757 1.524 . S
C4756 C4770 1.377 . S
C4757 C4756 1.524 . S
C4757 C4758 1.397 . S
C4757 C4762 1.363 . S
C4758 H4735 0.950 . S
C4758 C4757 1.397 . S
C4758 C4759 1.334 1_565 S
C4759 H4736 0.950 . S
C4759 C4758 1.334 1_545 S
C4759 C4760 1.287 . S
C4760 C4759 1.287 . S
C4760 C4761 1.524 1_545 S
C4760 H4779 0.913 . S
C4761 H4737 0.949 1_565 S
C4761 C4760 1.524 1_565 S
C4761 C4762 1.415 . S
C4762 H4738 0.950 . S
C4762 C4757 1.363 . S
C4762 C4761 1.415 . S
C4763 H4739 0.951 . S
C4763 C4764 1.366 . S
C4763 C4765 1.388 . S
C4764 C4763 1.366 . S
C4764 C4768 1.385 . S
C4765 H4740 0.951 . S
C4765 C4763 1.388 . S
C4765 C4766 1.366 . S
C4766 C4765 1.366 . S
C4766 C4767 1.414 . S
C4766 C4769 1.499 . S
C4767 H4741 0.950 . S
C4767 C4766 1.414 . S
C4767 C4768 1.374 . S
C4768 H4742 0.950 . S
C4768 C4764 1.385 . S
C4768 C4767 1.374 . S
C4769 C4766 1.499 . S
C4769 C4770 1.373 . S
C4769 C4771 1.389 . S
C4770 H4743 0.950 . S
C4770 C4756 1.377 . S
C4770 C4769 1.373 . S
C4771 C4755 1.377 . S
C4771 C4769 1.389 . S
C4771 C4772 1.524 . S
C4772 C4771 1.524 . S
C4772 C4773 1.397 . S
C4772 C4777 1.363 . S
C4773 H4744 0.950 . S
C4773 C4772 1.397 . S
C4773 C4774 1.334 . S
C4774 H4745 0.950 . S
C4774 C4773 1.334 . S
C4774 C4775 1.287 . S
C4775 C4774 1.287 . S
C4775 C4776 1.524 . S
C4775 H4778 0.999 . S
C4776 H4746 0.950 . S
C4776 C4775 1.524 . S
C4776 C4777 1.415 . S
C4777 H4747 0.950 . S
C4777 C4772 1.363 . S
C4777 C4776 1.415 . S
H4778 C4775 0.999 . S
H4779 C4760 0.913 . S
H4780 C4798 0.958 . S
H4781 C4800 0.951 . S
H4782 C4802 0.950 . S
H4783 C4803 0.950 . S
H4784 C4805 0.950 . S
H4785 C4808 0.950 . S
H4786 C4809 0.950 . S
H4787 C4811 0.950 . S
H4788 C4812 0.950 . S
H4789 C4813 0.951 . S
H4790 C4815 0.951 . S
H4791 C4817 0.950 . S
H4792 C4818 0.950 . S
H4793 C4820 0.950 . S
H4794 C4823 0.950 . S
H4795 C4824 0.950 . S
H4796 C4826 0.950 . S
H4797 C4827 0.950 . S
C4798 H4780 0.958 . S
C4798 C4799 1.366 . S
C4798 C4800 1.388 . S
C4799 C4798 1.366 . S
C4799 C4803 1.385 . S
C4800 H4781 0.951 . S
C4800 C4798 1.388 . S
C4800 C4801 1.366 . S
C4801 C4800 1.366 . S
C4801 C4802 1.414 . S
C4801 C4804 1.499 . S
C4802 H4782 0.950 . S
C4802 C4801 1.414 . S
C4802 C4803 1.374 . S
C4803 H4783 0.950 . S
C4803 C4799 1.385 . S
C4803 C4802 1.374 . S
C4804 C4801 1.499 . S
C4804 C4805 1.373 . S
C4804 C4806 1.389 . S
C4805 H4784 0.950 . S
C4805 C4804 1.373 . S
C4805 C4821 1.377 . S
C4806 C4804 1.389 . S
C4806 C4807 1.524 . S
C4806 C4820 1.377 . S
C4807 C4806 1.524 . S
C4807 C4808 1.397 . S
C4807 C4812 1.363 . S
C4808 H4785 0.950 . S
C4808 C4807 1.397 . S
C4808 C4809 1.334 . S
C4809 H4786 0.950 . S
C4809 C4808 1.334 . S
C4809 C4810 1.287 . S
C4810 C4809 1.287 . S
C4810 C4811 1.524 . S
C4810 H4829 0.913 . S
C4811 H4787 0.950 . S
C4811 C4810 1.524 . S
C4811 C4812 1.415 . S
C4812 H4788 0.950 . S
C4812 C4807 1.363 . S
C4812 C4811 1.415 . S
C4813 H4789 0.951 . S
C4813 C4814 1.366 . S
C4813 C4815 1.388 . S
C4814 C4813 1.366 . S
C4814 C4818 1.385 . S
C4815 H4790 0.951 . S
C4815 C4813 1.388 . S
C4815 C4816 1.366 . S
C4816 C4815 1.366 . S
C4816 C4817 1.414 . S
C4816 C4819 1.499 . S
C4817 H4791 0.950 . S
C4817 C4816 1.414 . S
C4817 C4818 1.374 . S
C4818 H4792 0.950 . S
C4818 C4814 1.385 . S
C4818 C4817 1.374 . S
C4819 C4816 1.499 . S
C4819 C4820 1.373 . S
C4819 C4821 1.389 . S
C4820 H4793 0.950 . S
C4820 C4806 1.377 . S
C4820 C4819 1.373 . S
C4821 C4805 1.377 . S
C4821 C4819 1.389 . S
C4821 C4822 1.524 . S
C4822 C4821 1.524 . S
C4822 C4823 1.397 . S
C4822 C4827 1.363 . S
C4823 H4794 0.950 . S
C4823 C4822 1.397 . S
C4823 C4824 1.334 . S
C4824 H4795 0.950 . S
C4824 C4823 1.334 . S
C4824 C4825 1.287 . S
C4825 C4824 1.287 . S
C4825 C4826 1.524 . S
C4825 H4828 0.999 . S
C4826 H4796 0.950 . S
C4826 C4825 1.524 . S
C4826 C4827 1.415 . S
C4827 H4797 0.950 . S
C4827 C4822 1.363 . S
C4827 C4826 1.415 . S
H4828 C4825 0.999 . S
H4829 C4810 0.913 . S
H4830 C4848 0.951 . S
H4831 C4850 0.951 . S
H4832 C4852 0.950 . S
H4833 C4853 0.950 . S
H4834 C4855 0.950 . S
H4835 C4858 0.950 . S
H4836 C4859 0.950 . S
H4837 C4861 0.950 . S
H4838 C4862 0.950 . S
H4839 C4863 0.951 . S
H4840 C4865 0.951 . S
H4841 C4867 0.950 . S
H4842 C4868 0.950 . S
H4843 C4870 0.950 . S
H4844 C4873 0.950 . S
H4845 C4874 0.950 . S
H4846 C4876 0.950 . S
H4847 C4877 0.950 . S
C4848 H4830 0.951 . S
C4848 C4849 1.366 . S
C4848 C4850 1.388 . S
C4849 C4848 1.366 . S
C4849 C4853 1.385 . S
C4850 H4831 0.951 . S
C4850 C4848 1.388 . S
C4850 C4851 1.366 . S
C4851 C4850 1.366 . S
C4851 C4852 1.414 . S
C4851 C4854 1.499 . S
C4852 H4832 0.950 . S
C4852 C4851 1.414 . S
C4852 C4853 1.374 . S
C4853 H4833 0.950 . S
C4853 C4849 1.385 . S
C4853 C4852 1.374 . S
C4854 C4851 1.499 . S
C4854 C4855 1.373 . S
C4854 C4856 1.389 . S
C4855 H4834 0.950 . S
C4855 C4854 1.373 . S
C4855 C4871 1.377 . S
C4856 C4854 1.389 . S
C4856 C4857 1.524 . S
C4856 C4870 1.377 . S
C4857 C4856 1.524 . S
C4857 C4858 1.397 . S
C4857 C4862 1.363 . S
C4858 H4835 0.950 . S
C4858 C4857 1.397 . S
C4858 C4859 1.334 . S
C4859 H4836 0.950 . S
C4859 C4858 1.334 . S
C4859 C4860 1.287 . S
C4860 C4859 1.287 . S
C4860 C4861 1.524 . S
C4860 H4879 0.913 . S
C4861 H4837 0.950 . S
C4861 C4860 1.524 . S
C4861 C4862 1.415 . S
C4862 H4838 0.950 . S
C4862 C4857 1.363 . S
C4862 C4861 1.415 . S
C4863 H4839 0.951 . S
C4863 C4864 1.366 . S
C4863 C4865 1.388 . S
C4864 C4863 1.366 . S
C4864 C4868 1.385 . S
C4865 H4840 0.951 . S
C4865 C4863 1.388 . S
C4865 C4866 1.366 . S
C4866 C4865 1.366 . S
C4866 C4867 1.414 . S
C4866 C4869 1.499 . S
C4867 H4841 0.950 . S
C4867 C4866 1.414 . S
C4867 C4868 1.374 . S
C4868 H4842 0.950 . S
C4868 C4864 1.385 . S
C4868 C4867 1.374 . S
C4869 C4866 1.499 . S
C4869 C4870 1.373 . S
C4869 C4871 1.389 . S
C4870 H4843 0.950 . S
C4870 C4856 1.377 . S
C4870 C4869 1.373 . S
C4871 C4855 1.377 . S
C4871 C4869 1.389 . S
C4871 C4872 1.524 . S
C4872 C4871 1.524 . S
C4872 C4873 1.397 . S
C4872 C4877 1.363 . S
C4873 H4844 0.950 . S
C4873 C4872 1.397 . S
C4873 C4874 1.334 . S
C4874 H4845 0.950 . S
C4874 C4873 1.334 . S
C4874 C4875 1.287 . S
C4875 C4874 1.287 . S
C4875 C4876 1.524 . S
C4875 H4878 0.999 . S
C4876 H4846 0.950 . S
C4876 C4875 1.524 . S
C4876 C4877 1.415 . S
C4877 H4847 0.950 . S
C4877 C4872 1.363 . S
C4877 C4876 1.415 . S
H4878 C4875 0.999 . S
H4879 C4860 0.913 . S
H4880 C4898 0.951 . S
H4881 C4900 0.951 . S
H4882 C4902 0.950 . S
H4883 C4903 0.950 . S
H4884 C4905 0.950 . S
H4885 C4908 0.950 . S
H4886 C4909 0.950 . S
H4887 C4911 0.950 . S
H4888 C4912 0.950 . S
H4889 C4913 0.951 . S
H4890 C4915 0.951 . S
H4891 C4917 0.950 . S
H4892 C4918 0.950 . S
H4893 C4920 0.950 . S
H4894 C4923 0.950 . S
H4895 C4924 0.950 . S
H4896 C4926 0.950 . S
H4897 C4927 0.950 . S
C4898 H4880 0.951 . S
C4898 C4899 1.366 . S
C4898 C4900 1.388 . S
C4899 C4898 1.366 . S
C4899 C4903 1.385 . S
C4900 H4881 0.951 . S
C4900 C4898 1.388 . S
C4900 C4901 1.366 . S
C4901 C4900 1.366 . S
C4901 C4902 1.414 . S
C4901 C4904 1.499 . S
C4902 H4882 0.950 . S
C4902 C4901 1.414 . S
C4902 C4903 1.374 . S
C4903 H4883 0.950 . S
C4903 C4899 1.385 . S
C4903 C4902 1.374 . S
C4904 C4901 1.499 . S
C4904 C4905 1.373 . S
C4904 C4906 1.389 . S
C4905 H4884 0.950 . S
C4905 C4904 1.373 . S
C4905 C4921 1.377 . S
C4906 C4904 1.389 . S
C4906 C4907 1.524 . S
C4906 C4920 1.377 . S
C4907 C4906 1.524 . S
C4907 C4908 1.397 . S
C4907 C4912 1.363 . S
C4908 H4885 0.950 . S
C4908 C4907 1.397 . S
C4908 C4909 1.334 . S
C4909 H4886 0.950 . S
C4909 C4908 1.334 . S
C4909 C4910 1.287 . S
C4910 C4909 1.287 . S
C4910 C4911 1.524 . S
C4910 H4929 0.913 . S
C4911 H4887 0.950 . S
C4911 C4910 1.524 . S
C4911 C4912 1.415 . S
C4912 H4888 0.950 . S
C4912 C4907 1.363 . S
C4912 C4911 1.415 . S
C4913 H4889 0.951 . S
C4913 C4914 1.366 . S
C4913 C4915 1.388 . S
C4914 C4913 1.366 . S
C4914 C4918 1.385 . S
C4915 H4890 0.951 . S
C4915 C4913 1.388 . S
C4915 C4916 1.366 . S
C4916 C4915 1.366 . S
C4916 C4917 1.414 . S
C4916 C4919 1.499 . S
C4917 H4891 0.950 . S
C4917 C4916 1.414 . S
C4917 C4918 1.374 . S
C4918 H4892 0.950 . S
C4918 C4914 1.385 . S
C4918 C4917 1.374 . S
C4919 C4916 1.499 . S
C4919 C4920 1.373 . S
C4919 C4921 1.389 . S
C4920 H4893 0.950 . S
C4920 C4906 1.377 . S
C4920 C4919 1.373 . S
C4921 C4905 1.377 . S
C4921 C4919 1.389 . S
C4921 C4922 1.524 . S
C4922 C4921 1.524 . S
C4922 C4923 1.397 . S
C4922 C4927 1.363 . S
C4923 H4894 0.950 . S
C4923 C4922 1.397 . S
C4923 C4924 1.334 . S
C4924 H4895 0.950 . S
C4924 C4923 1.334 . S
C4924 C4925 1.287 . S
C4925 C4924 1.287 . S
C4925 C4926 1.524 . S
C4925 H4928 0.999 . S
C4926 H4896 0.950 . S
C4926 C4925 1.524 . S
C4926 C4927 1.415 . S
C4927 H4897 0.950 . S
C4927 C4922 1.363 . S
C4927 C4926 1.415 . S
H4928 C4925 0.999 . S
H4929 C4910 0.913 . S
H4930 C4948 0.951 . S
H4931 C4950 0.951 . S
H4932 C4952 0.950 . S
H4933 C4953 0.950 . S
H4934 C4955 0.950 . S
H4935 C4958 0.950 . S
H4936 C4959 0.950 . S
H4937 C4961 0.950 . S
H4938 C4962 0.950 . S
H4939 C4963 0.951 . S
H4940 C4965 0.951 . S
H4941 C4967 0.950 . S
H4942 C4968 0.950 . S
H4943 C4970 0.950 . S
H4944 C4973 0.950 . S
H4945 C4974 0.950 . S
H4946 C4976 0.950 . S
H4947 C4977 0.950 . S
C4948 H4930 0.951 . S
C4948 C4949 1.366 . S
C4948 C4950 1.388 . S
C4949 C4948 1.366 . S
C4949 C4953 1.385 . S
C4950 H4931 0.951 . S
C4950 C4948 1.388 . S
C4950 C4951 1.366 . S
C4951 C4950 1.366 . S
C4951 C4952 1.414 . S
C4951 C4954 1.499 . S
C4952 H4932 0.950 . S
C4952 C4951 1.414 . S
C4952 C4953 1.374 . S
C4953 H4933 0.950 . S
C4953 C4949 1.385 . S
C4953 C4952 1.374 . S
C4954 C4951 1.499 . S
C4954 C4955 1.373 . S
C4954 C4956 1.389 . S
C4955 H4934 0.950 . S
C4955 C4954 1.373 . S
C4955 C4971 1.377 . S
C4956 C4954 1.389 . S
C4956 C4957 1.524 . S
C4956 C4970 1.377 . S
C4957 C4956 1.524 . S
C4957 C4958 1.397 . S
C4957 C4962 1.363 . S
C4958 H4935 0.950 . S
C4958 C4957 1.397 . S
C4958 C4959 1.334 . S
C4959 H4936 0.950 . S
C4959 C4958 1.334 . S
C4959 C4960 1.287 . S
C4960 C4959 1.287 . S
C4960 C4961 1.524 . S
C4960 H4979 0.913 . S
C4961 H4937 0.950 . S
C4961 C4960 1.524 . S
C4961 C4962 1.415 . S
C4962 H4938 0.950 . S
C4962 C4957 1.363 . S
C4962 C4961 1.415 . S
C4963 H4939 0.951 . S
C4963 C4964 1.366 . S
C4963 C4965 1.388 . S
C4964 C4963 1.366 . S
C4964 C4968 1.385 . S
C4965 H4940 0.951 . S
C4965 C4963 1.388 . S
C4965 C4966 1.366 . S
C4966 C4965 1.366 . S
C4966 C4967 1.414 . S
C4966 C4969 1.499 . S
C4967 H4941 0.950 . S
C4967 C4966 1.414 . S
C4967 C4968 1.374 . S
C4968 H4942 0.950 . S
C4968 C4964 1.385 . S
C4968 C4967 1.374 . S
C4969 C4966 1.499 . S
C4969 C4970 1.373 . S
C4969 C4971 1.389 . S
C4970 H4943 0.950 . S
C4970 C4956 1.377 . S
C4970 C4969 1.373 . S
C4971 C4955 1.377 . S
C4971 C4969 1.389 . S
C4971 C4972 1.524 . S
C4972 C4971 1.524 . S
C4972 C4973 1.397 . S
C4972 C4977 1.363 . S
C4973 H4944 0.950 . S
C4973 C4972 1.397 . S
C4973 C4974 1.334 . S
C4974 H4945 0.950 . S
C4974 C4973 1.334 . S
C4974 C4975 1.287 . S
C4975 C4974 1.287 . S
C4975 C4976 1.524 . S
C4975 H4978 0.999 . S
C4976 H4946 0.950 . S
C4976 C4975 1.524 . S
C4976 C4977 1.415 . S
C4977 H4947 0.950 . S
C4977 C4972 1.363 . S
C4977 C4976 1.415 . S
H4978 C4975 0.999 . S
H4979 C4960 0.913 . S
H4980 C4998 0.951 . S
H4981 C5000 0.951 . S
H4982 C5002 0.950 . S
H4983 C5003 0.950 . S
H4984 C5005 0.950 . S
H4985 C5008 0.950 . S
H4986 C5009 0.950 . S
H4987 C5011 0.950 . S
H4988 C5012 0.950 . S
H4989 C5013 0.951 . S
H4990 C5015 0.951 . S
H4991 C5017 0.950 . S
H4992 C5018 0.950 . S
H4993 C5020 0.950 . S
H4994 C5023 0.950 . S
H4995 C5024 0.950 . S
H4996 C5026 0.950 . S
H4997 C5027 0.950 . S
C4998 H4980 0.951 . S
C4998 C4999 1.366 . S
C4998 C5000 1.388 . S
C4999 C4998 1.366 . S
C4999 C5003 1.385 . S
C5000 H4981 0.951 . S
C5000 C4998 1.388 . S
C5000 C5001 1.366 . S
C5001 C5000 1.366 . S
C5001 C5002 1.414 . S
C5001 C5004 1.499 . S
C5002 H4982 0.950 . S
C5002 C5001 1.414 . S
C5002 C5003 1.374 . S
C5003 H4983 0.950 . S
C5003 C4999 1.385 . S
C5003 C5002 1.374 . S
C5004 C5001 1.499 . S
C5004 C5005 1.373 . S
C5004 C5006 1.389 . S
C5005 H4984 0.950 . S
C5005 C5004 1.373 . S
C5005 C5021 1.377 . S
C5006 C5004 1.389 . S
C5006 C5007 1.524 . S
C5006 C5020 1.377 . S
C5007 C5006 1.524 . S
C5007 C5008 1.397 . S
C5007 C5012 1.363 . S
C5008 H4985 0.950 . S
C5008 C5007 1.397 . S
C5008 C5009 1.334 . S
C5009 H4986 0.950 . S
C5009 C5008 1.334 . S
C5009 C5010 1.287 . S
C5010 C5009 1.287 . S
C5010 C5011 1.524 . S
C5010 H5029 0.913 . S
C5011 H4987 0.950 . S
C5011 C5010 1.524 . S
C5011 C5012 1.415 . S
C5012 H4988 0.950 . S
C5012 C5007 1.363 . S
C5012 C5011 1.415 . S
C5013 H4989 0.951 . S
C5013 C5014 1.366 . S
C5013 C5015 1.388 . S
C5014 C5013 1.366 . S
C5014 C5018 1.385 . S
C5015 H4990 0.951 . S
C5015 C5013 1.388 . S
C5015 C5016 1.366 . S
C5016 C5015 1.366 . S
C5016 C5017 1.414 . S
C5016 C5019 1.499 . S
C5017 H4991 0.950 . S
C5017 C5016 1.414 . S
C5017 C5018 1.374 . S
C5018 H4992 0.950 . S
C5018 C5014 1.385 . S
C5018 C5017 1.374 . S
C5019 C5016 1.499 . S
C5019 C5020 1.373 . S
C5019 C5021 1.389 . S
C5020 H4993 0.950 . S
C5020 C5006 1.377 . S
C5020 C5019 1.373 . S
C5021 C5005 1.377 . S
C5021 C5019 1.389 . S
C5021 C5022 1.524 . S
C5022 C5021 1.524 . S
C5022 C5023 1.397 . S
C5022 C5027 1.363 . S
C5023 H4994 0.950 . S
C5023 C5022 1.397 . S
C5023 C5024 1.334 . S
C5024 H4995 0.950 . S
C5024 C5023 1.334 . S
C5024 C5025 1.287 . S
C5025 C5024 1.287 . S
C5025 C5026 1.524 . S
C5025 H5028 0.999 . S
C5026 H4996 0.950 . S
C5026 C5025 1.524 . S
C5026 C5027 1.415 . S
C5027 H4997 0.950 . S
C5027 C5022 1.363 . S
C5027 C5026 1.415 . S
H5028 C5025 0.999 . S
H5029 C5010 0.913 . S
H5030 C5048 0.951 . S
H5031 C5050 0.951 . S
H5032 C5052 0.950 . S
H5033 C5053 0.950 . S
H5034 C5055 0.950 . S
H5035 C5058 0.950 . S
H5036 C5059 0.950 . S
H5037 C5061 0.950 . S
H5038 C5062 0.950 . S
H5039 C5063 0.951 . S
H5040 C5065 0.951 . S
H5041 C5067 0.950 . S
H5042 C5068 0.950 . S
H5043 C5070 0.950 . S
H5044 C5073 0.950 . S
H5045 C5074 0.950 . S
H5046 C5076 0.950 . S
H5047 C5077 0.950 . S
C5048 H5030 0.951 . S
C5048 C5049 1.366 . S
C5048 C5050 1.388 . S
C5049 C5048 1.366 . S
C5049 C5053 1.385 . S
C5050 H5031 0.951 . S
C5050 C5048 1.388 . S
C5050 C5051 1.366 . S
C5051 C5050 1.366 . S
C5051 C5052 1.414 . S
C5051 C5054 1.499 . S
C5052 H5032 0.950 . S
C5052 C5051 1.414 . S
C5052 C5053 1.374 . S
C5053 H5033 0.950 . S
C5053 C5049 1.385 . S
C5053 C5052 1.374 . S
C5054 C5051 1.499 . S
C5054 C5055 1.373 . S
C5054 C5056 1.389 . S
C5055 H5034 0.950 . S
C5055 C5054 1.373 . S
C5055 C5071 1.377 . S
C5056 C5054 1.389 . S
C5056 C5057 1.524 . S
C5056 C5070 1.377 . S
C5057 C5056 1.524 . S
C5057 C5058 1.397 . S
C5057 C5062 1.363 . S
C5058 H5035 0.950 . S
C5058 C5057 1.397 . S
C5058 C5059 1.334 . S
C5059 H5036 0.950 . S
C5059 C5058 1.334 . S
C5059 C5060 1.287 . S
C5060 C5059 1.287 . S
C5060 C5061 1.524 . S
C5060 H5079 0.913 . S
C5061 H5037 0.950 . S
C5061 C5060 1.524 . S
C5061 C5062 1.415 . S
C5062 H5038 0.950 . S
C5062 C5057 1.363 . S
C5062 C5061 1.415 . S
C5063 H5039 0.951 . S
C5063 C5064 1.366 . S
C5063 C5065 1.388 . S
C5064 C5063 1.366 . S
C5064 C5068 1.385 . S
C5065 H5040 0.951 . S
C5065 C5063 1.388 . S
C5065 C5066 1.366 . S
C5066 C5065 1.366 . S
C5066 C5067 1.414 . S
C5066 C5069 1.499 . S
C5067 H5041 0.950 . S
C5067 C5066 1.414 . S
C5067 C5068 1.374 . S
C5068 H5042 0.950 . S
C5068 C5064 1.385 . S
C5068 C5067 1.374 . S
C5069 C5066 1.499 . S
C5069 C5070 1.373 . S
C5069 C5071 1.389 . S
C5070 H5043 0.950 . S
C5070 C5056 1.377 . S
C5070 C5069 1.373 . S
C5071 C5055 1.377 . S
C5071 C5069 1.389 . S
C5071 C5072 1.524 . S
C5072 C5071 1.524 . S
C5072 C5073 1.397 . S
C5072 C5077 1.363 . S
C5073 H5044 0.950 . S
C5073 C5072 1.397 . S
C5073 C5074 1.334 . S
C5074 H5045 0.950 . S
C5074 C5073 1.334 . S
C5074 C5075 1.287 . S
C5075 C5074 1.287 . S
C5075 C5076 1.524 . S
C5075 H5078 0.999 . S
C5076 H5046 0.950 . S
C5076 C5075 1.524 . S
C5076 C5077 1.415 . S
C5077 H5047 0.950 . S
C5077 C5072 1.363 . S
C5077 C5076 1.415 . S
H5078 C5075 0.999 . S
H5079 C5060 0.913 . S
H5080 C5098 0.951 . S
H5081 C5100 0.951 . S
H5082 C5102 0.950 . S
H5083 C5103 0.950 . S
H5084 C5105 0.950 . S
H5085 C5108 0.950 . S
H5086 C5109 0.950 . S
H5087 C5111 0.950 . S
H5088 C5112 0.950 . S
H5089 C5113 0.951 . S
H5090 C5115 0.951 . S
H5091 C5117 0.950 . S
H5092 C5118 0.950 . S
H5093 C5120 0.950 . S
H5094 C5123 0.950 . S
H5095 C5124 0.950 . S
H5096 C5126 0.950 . S
H5097 C5127 0.950 . S
C5098 H5080 0.951 . S
C5098 C5099 1.366 . S
C5098 C5100 1.388 . S
C5099 C5098 1.366 . S
C5099 C5103 1.385 . S
C5100 H5081 0.951 . S
C5100 C5098 1.388 . S
C5100 C5101 1.366 . S
C5101 C5100 1.366 . S
C5101 C5102 1.414 . S
C5101 C5104 1.499 . S
C5102 H5082 0.950 . S
C5102 C5101 1.414 . S
C5102 C5103 1.374 . S
C5103 H5083 0.950 . S
C5103 C5099 1.385 . S
C5103 C5102 1.374 . S
C5104 C5101 1.499 . S
C5104 C5105 1.373 . S
C5104 C5106 1.389 . S
C5105 H5084 0.950 . S
C5105 C5104 1.373 . S
C5105 C5121 1.377 . S
C5106 C5104 1.389 . S
C5106 C5107 1.524 . S
C5106 C5120 1.377 . S
C5107 C5106 1.524 . S
C5107 C5108 1.397 . S
C5107 C5112 1.363 . S
C5108 H5085 0.950 . S
C5108 C5107 1.397 . S
C5108 C5109 1.334 . S
C5109 H5086 0.950 . S
C5109 C5108 1.334 . S
C5109 C5110 1.287 . S
C5110 C5109 1.287 . S
C5110 C5111 1.524 . S
C5110 H5129 0.913 . S
C5111 H5087 0.950 . S
C5111 C5110 1.524 . S
C5111 C5112 1.415 . S
C5112 H5088 0.950 . S
C5112 C5107 1.363 . S
C5112 C5111 1.415 . S
C5113 H5089 0.951 . S
C5113 C5114 1.366 . S
C5113 C5115 1.388 . S
C5114 C5113 1.366 . S
C5114 C5118 1.385 . S
C5115 H5090 0.951 . S
C5115 C5113 1.388 . S
C5115 C5116 1.366 . S
C5116 C5115 1.366 . S
C5116 C5117 1.414 . S
C5116 C5119 1.499 . S
C5117 H5091 0.950 . S
C5117 C5116 1.414 . S
C5117 C5118 1.374 . S
C5118 H5092 0.950 . S
C5118 C5114 1.385 . S
C5118 C5117 1.374 . S
C5119 C5116 1.499 . S
C5119 C5120 1.373 . S
C5119 C5121 1.389 . S
C5120 H5093 0.950 . S
C5120 C5106 1.377 . S
C5120 C5119 1.373 . S
C5121 C5105 1.377 . S
C5121 C5119 1.389 . S
C5121 C5122 1.524 . S
C5122 C5121 1.524 . S
C5122 C5123 1.397 . S
C5122 C5127 1.363 . S
C5123 H5094 0.950 . S
C5123 C5122 1.397 . S
C5123 C5124 1.334 . S
C5124 H5095 0.950 . S
C5124 C5123 1.334 . S
C5124 C5125 1.287 . S
C5125 C5124 1.287 . S
C5125 C5126 1.524 . S
C5125 H5128 0.999 . S
C5126 H5096 0.950 . S
C5126 C5125 1.524 . S
C5126 C5127 1.415 . S
C5127 H5097 0.950 . S
C5127 C5122 1.363 . S
C5127 C5126 1.415 . S
H5128 C5125 0.999 . S
H5129 C5110 0.913 . S
H5130 C5148 0.951 . S
H5131 C5150 0.951 . S
H5132 C5152 0.950 . S
H5133 C5153 0.950 . S
H5134 C5155 0.950 . S
H5135 C5158 0.950 . S
H5136 C5159 0.950 . S
H5137 C5161 0.950 . S
H5138 C5162 0.950 . S
H5139 C5163 0.951 . S
H5140 C5165 0.951 . S
H5141 C5167 0.950 . S
H5142 C5168 0.950 . S
H5143 C5170 0.950 . S
H5144 C5173 0.950 . S
H5145 C5174 0.950 . S
H5146 C5176 0.950 . S
H5147 C5177 0.950 . S
C5148 H5130 0.951 . S
C5148 C5149 1.366 . S
C5148 C5150 1.388 . S
C5149 C5148 1.366 . S
C5149 C5153 1.385 . S
C5150 H5131 0.951 . S
C5150 C5148 1.388 . S
C5150 C5151 1.366 . S
C5151 C5150 1.366 . S
C5151 C5152 1.414 . S
C5151 C5154 1.499 . S
C5152 H5132 0.950 . S
C5152 C5151 1.414 . S
C5152 C5153 1.374 . S
C5153 H5133 0.950 . S
C5153 C5149 1.385 . S
C5153 C5152 1.374 . S
C5154 C5151 1.499 . S
C5154 C5155 1.373 . S
C5154 C5156 1.389 . S
C5155 H5134 0.950 . S
C5155 C5154 1.373 . S
C5155 C5171 1.377 . S
C5156 C5154 1.389 . S
C5156 C5157 1.524 . S
C5156 C5170 1.377 . S
C5157 C5156 1.524 . S
C5157 C5158 1.397 . S
C5157 C5162 1.363 . S
C5158 H5135 0.950 . S
C5158 C5157 1.397 . S
C5158 C5159 1.334 . S
C5159 H5136 0.950 . S
C5159 C5158 1.334 . S
C5159 C5160 1.287 . S
C5160 C5159 1.287 . S
C5160 C5161 1.524 . S
C5160 H5179 0.913 . S
C5161 H5137 0.950 . S
C5161 C5160 1.524 . S
C5161 C5162 1.415 . S
C5162 H5138 0.950 . S
C5162 C5157 1.363 . S
C5162 C5161 1.415 . S
C5163 H5139 0.951 . S
C5163 C5164 1.366 . S
C5163 C5165 1.388 . S
C5164 C5163 1.366 . S
C5164 C5168 1.385 . S
C5165 H5140 0.951 . S
C5165 C5163 1.388 . S
C5165 C5166 1.366 . S
C5166 C5165 1.366 . S
C5166 C5167 1.414 . S
C5166 C5169 1.499 . S
C5167 H5141 0.950 . S
C5167 C5166 1.414 . S
C5167 C5168 1.374 . S
C5168 H5142 0.950 . S
C5168 C5164 1.385 . S
C5168 C5167 1.374 . S
C5169 C5166 1.499 . S
C5169 C5170 1.373 . S
C5169 C5171 1.389 . S
C5170 H5143 0.950 . S
C5170 C5156 1.377 . S
C5170 C5169 1.373 . S
C5171 C5155 1.377 . S
C5171 C5169 1.389 . S
C5171 C5172 1.524 . S
C5172 C5171 1.524 . S
C5172 C5173 1.397 . S
C5172 C5177 1.363 . S
C5173 H5144 0.950 . S
C5173 C5172 1.397 . S
C5173 C5174 1.334 . S
C5174 H5145 0.950 . S
C5174 C5173 1.334 . S
C5174 C5175 1.287 . S
C5175 C5174 1.287 . S
C5175 C5176 1.524 . S
C5175 H5178 0.999 . S
C5176 H5146 0.950 . S
C5176 C5175 1.524 . S
C5176 C5177 1.415 . S
C5177 H5147 0.950 . S
C5177 C5172 1.363 . S
C5177 C5176 1.415 . S
H5178 C5175 0.999 . S
H5179 C5160 0.913 . S
H5180 C5198 0.951 . S
H5181 C5200 0.951 . S
H5182 C5202 0.950 . S
H5183 C5203 0.950 . S
H5184 C5205 0.950 . S
H5185 C5208 0.950 . S
H5186 C5209 0.950 . S
H5187 C5211 0.950 . S
H5188 C5212 0.950 . S
H5189 C5213 0.951 . S
H5190 C5215 0.951 . S
H5191 C5217 0.950 . S
H5192 C5218 0.950 . S
H5193 C5220 0.950 . S
H5194 C5223 0.950 . S
H5195 C5224 0.950 . S
H5196 C5226 0.950 . S
H5197 C5227 0.950 . S
C5198 H5180 0.951 . S
C5198 C5199 1.366 . S
C5198 C5200 1.388 . S
C5199 C5198 1.366 . S
C5199 C5203 1.385 . S
C5200 H5181 0.951 . S
C5200 C5198 1.388 . S
C5200 C5201 1.366 . S
C5201 C5200 1.366 . S
C5201 C5202 1.414 . S
C5201 C5204 1.499 . S
C5202 H5182 0.950 . S
C5202 C5201 1.414 . S
C5202 C5203 1.374 . S
C5203 H5183 0.950 . S
C5203 C5199 1.385 . S
C5203 C5202 1.374 . S
C5204 C5201 1.499 . S
C5204 C5205 1.373 . S
C5204 C5206 1.389 . S
C5205 H5184 0.950 . S
C5205 C5204 1.373 . S
C5205 C5221 1.377 . S
C5206 C5204 1.389 . S
C5206 C5207 1.524 . S
C5206 C5220 1.377 . S
C5207 C5206 1.524 . S
C5207 C5208 1.397 . S
C5207 C5212 1.363 . S
C5208 H5185 0.950 . S
C5208 C5207 1.397 . S
C5208 C5209 1.334 . S
C5209 H5186 0.950 . S
C5209 C5208 1.334 . S
C5209 C5210 1.287 . S
C5210 C5209 1.287 . S
C5210 C5211 1.524 . S
C5210 H5229 0.913 . S
C5211 H5187 0.950 . S
C5211 C5210 1.524 . S
C5211 C5212 1.415 . S
C5212 H5188 0.950 . S
C5212 C5207 1.363 . S
C5212 C5211 1.415 . S
C5213 H5189 0.951 . S
C5213 C5214 1.366 . S
C5213 C5215 1.388 . S
C5214 C5213 1.366 . S
C5214 C5218 1.385 . S
C5215 H5190 0.951 . S
C5215 C5213 1.388 . S
C5215 C5216 1.366 . S
C5216 C5215 1.366 . S
C5216 C5217 1.414 . S
C5216 C5219 1.499 . S
C5217 H5191 0.950 . S
C5217 C5216 1.414 . S
C5217 C5218 1.374 . S
C5218 H5192 0.950 . S
C5218 C5214 1.385 . S
C5218 C5217 1.374 . S
C5219 C5216 1.499 . S
C5219 C5220 1.373 . S
C5219 C5221 1.389 . S
C5220 H5193 0.950 . S
C5220 C5206 1.377 . S
C5220 C5219 1.373 . S
C5221 C5205 1.377 . S
C5221 C5219 1.389 . S
C5221 C5222 1.524 . S
C5222 C5221 1.524 . S
C5222 C5223 1.397 . S
C5222 C5227 1.363 . S
C5223 H5194 0.950 . S
C5223 C5222 1.397 . S
C5223 C5224 1.334 . S
C5224 H5195 0.950 . S
C5224 C5223 1.334 . S
C5224 C5225 1.287 . S
C5225 C5224 1.287 . S
C5225 C5226 1.524 . S
C5225 H5228 0.999 . S
C5226 H5196 0.950 . S
C5226 C5225 1.524 . S
C5226 C5227 1.415 . S
C5227 H5197 0.950 . S
C5227 C5222 1.363 . S
C5227 C5226 1.415 . S
H5228 C5225 0.999 . S
H5229 C5210 0.913 . S
H5230 C5248 0.951 . S
H5231 C5250 0.951 . S
H5232 C5252 0.950 . S
H5233 C5253 0.950 . S
H5234 C5255 0.950 . S
H5235 C5258 0.950 . S
H5236 C5259 0.950 . S
H5237 C5261 0.950 . S
H5238 C5262 0.950 . S
H5239 C5263 0.951 . S
H5240 C5265 0.951 . S
H5241 C5267 0.950 . S
H5242 C5268 0.950 . S
H5243 C5270 0.950 . S
H5244 C5273 0.950 . S
H5245 C5274 0.950 . S
H5246 C5276 0.950 . S
H5247 C5277 0.950 . S
C5248 H5230 0.951 . S
C5248 C5249 1.366 . S
C5248 C5250 1.388 . S
C5249 C5248 1.366 . S
C5249 C5253 1.385 . S
C5250 H5231 0.951 . S
C5250 C5248 1.388 . S
C5250 C5251 1.366 . S
C5251 C5250 1.366 . S
C5251 C5252 1.414 . S
C5251 C5254 1.499 . S
C5252 H5232 0.950 . S
C5252 C5251 1.414 . S
C5252 C5253 1.374 . S
C5253 H5233 0.950 . S
C5253 C5249 1.385 . S
C5253 C5252 1.374 . S
C5254 C5251 1.499 . S
C5254 C5255 1.373 . S
C5254 C5256 1.389 . S
C5255 H5234 0.950 . S
C5255 C5254 1.373 . S
C5255 C5271 1.377 . S
C5256 C5254 1.389 . S
C5256 C5257 1.524 . S
C5256 C5270 1.377 . S
C5257 C5256 1.524 . S
C5257 C5258 1.397 . S
C5257 C5262 1.363 . S
C5258 H5235 0.950 . S
C5258 C5257 1.397 . S
C5258 C5259 1.334 . S
C5259 H5236 0.950 . S
C5259 C5258 1.334 . S
C5259 C5260 1.287 . S
C5260 C5259 1.287 . S
C5260 C5261 1.524 . S
C5260 H5279 0.913 . S
C5261 H5237 0.950 . S
C5261 C5260 1.524 . S
C5261 C5262 1.415 . S
C5262 H5238 0.950 . S
C5262 C5257 1.363 . S
C5262 C5261 1.415 . S
C5263 H5239 0.951 . S
C5263 C5264 1.366 . S
C5263 C5265 1.388 . S
C5264 C5263 1.366 . S
C5264 C5268 1.385 . S
C5265 H5240 0.951 . S
C5265 C5263 1.388 . S
C5265 C5266 1.366 . S
C5266 C5265 1.366 . S
C5266 C5267 1.414 . S
C5266 C5269 1.499 . S
C5267 H5241 0.950 . S
C5267 C5266 1.414 . S
C5267 C5268 1.374 . S
C5268 H5242 0.950 . S
C5268 C5264 1.385 . S
C5268 C5267 1.374 . S
C5269 C5266 1.499 . S
C5269 C5270 1.373 . S
C5269 C5271 1.389 . S
C5270 H5243 0.950 . S
C5270 C5256 1.377 . S
C5270 C5269 1.373 . S
C5271 C5255 1.377 . S
C5271 C5269 1.389 . S
C5271 C5272 1.524 . S
C5272 C5271 1.524 . S
C5272 C5273 1.397 . S
C5272 C5277 1.363 . S
C5273 H5244 0.950 . S
C5273 C5272 1.397 . S
C5273 C5274 1.334 . S
C5274 H5245 0.950 . S
C5274 C5273 1.334 . S
C5274 C5275 1.287 . S
C5275 C5274 1.287 . S
C5275 C5276 1.524 . S
C5275 H5278 0.999 . S
C5276 H5246 0.950 . S
C5276 C5275 1.524 . S
C5276 C5277 1.415 . S
C5277 H5247 0.950 . S
C5277 C5272 1.363 . S
C5277 C5276 1.415 . S
H5278 C5275 0.999 . S
H5279 C5260 0.913 . S
H5280 C5298 0.951 . S
H5281 C5300 0.951 . S
H5282 C5302 0.950 . S
H5283 C5303 0.950 . S
H5284 C5305 0.952 . S
H5285 C5308 0.950 . S
H5286 C5309 0.950 . S
H5287 C5311 0.950 . S
H5288 C5312 0.950 . S
H5289 C5313 0.951 . S
H5290 C5315 0.951 . S
H5291 C5317 0.950 . S
H5292 C5318 0.950 . S
H5293 C5320 0.952 . S
H5294 C5323 0.950 . S
H5295 C5324 0.950 . S
H5296 C5326 0.950 . S
H5297 C5327 0.950 . S
C5298 H5280 0.951 . S
C5298 C5299 1.366 . S
C5298 C5300 1.388 . S
C5299 C5298 1.366 . S
C5299 C5303 1.385 . S
C5300 H5281 0.951 . S
C5300 C5298 1.388 . S
C5300 C5301 1.366 . S
C5301 C5300 1.366 . S
C5301 C5302 1.414 . S
C5301 C5304 1.499 . S
C5302 H5282 0.950 . S
C5302 C5301 1.414 . S
C5302 C5303 1.374 . S
C5303 H5283 0.950 . S
C5303 C5299 1.385 . S
C5303 C5302 1.374 . S
C5304 C5301 1.499 . S
C5304 C5305 1.407 . S
C5304 C5306 1.389 . S
C5305 H5284 0.952 . S
C5305 C5304 1.407 . S
C5305 C5321 1.342 1_545 S
C5306 C5304 1.389 . S
C5306 C5307 1.524 . S
C5306 C5320 1.342 1_545 S
C5307 C5306 1.524 . S
C5307 C5308 1.397 . S
C5307 C5312 1.363 . S
C5308 H5285 0.950 . S
C5308 C5307 1.397 . S
C5308 C5309 1.334 . S
C5309 H5286 0.950 . S
C5309 C5308 1.334 . S
C5309 C5310 1.287 . S
C5310 C5309 1.287 . S
C5310 C5311 1.524 . S
C5310 H5329 0.913 . S
C5311 H5287 0.950 . S
C5311 C5310 1.524 . S
C5311 C5312 1.415 . S
C5312 H5288 0.950 . S
C5312 C5307 1.363 . S
C5312 C5311 1.415 . S
C5313 H5289 0.951 . S
C5313 C5314 1.366 . S
C5313 C5315 1.388 . S
C5314 C5313 1.366 . S
C5314 C5318 1.385 . S
C5315 H5290 0.951 . S
C5315 C5313 1.388 . S
C5315 C5316 1.366 . S
C5316 C5315 1.366 . S
C5316 C5317 1.414 . S
C5316 C5319 1.499 . S
C5317 H5291 0.950 . S
C5317 C5316 1.414 . S
C5317 C5318 1.374 . S
C5318 H5292 0.950 . S
C5318 C5314 1.385 . S
C5318 C5317 1.374 . S
C5319 C5316 1.499 . S
C5319 C5320 1.407 . S
C5319 C5321 1.389 . S
C5320 H5293 0.952 . S
C5320 C5306 1.342 1_565 S
C5320 C5319 1.407 . S
C5321 C5305 1.342 1_565 S
C5321 C5319 1.389 . S
C5321 C5322 1.524 . S
C5322 C5321 1.524 . S
C5322 C5323 1.397 . S
C5322 C5327 1.363 . S
C5323 H5294 0.950 . S
C5323 C5322 1.397 . S
C5323 C5324 1.334 . S
C5324 H5295 0.950 . S
C5324 C5323 1.334 . S
C5324 C5325 1.287 . S
C5325 C5324 1.287 . S
C5325 C5326 1.524 . S
C5325 H5328 0.999 . S
C5326 H5296 0.950 . S
C5326 C5325 1.524 . S
C5326 C5327 1.415 . S
C5327 H5297 0.950 . S
C5327 C5322 1.363 . S
C5327 C5326 1.415 . S
H5328 C5325 0.999 . S
H5329 C5310 0.913 . S
H5330 C5348 0.951 . S
H5331 C5350 0.951 . S
H5332 C5352 0.950 . S
H5333 C5353 0.950 . S
H5334 C5355 0.950 . S
H5335 C5358 0.950 . S
H5336 C5359 0.950 . S
H5337 C5361 0.950 . S
H5338 C5362 0.950 . S
H5339 C5363 0.951 . S
H5340 C5365 0.951 . S
H5341 C5367 0.950 . S
H5342 C5368 0.950 . S
H5343 C5370 0.950 . S
H5344 C5373 0.950 . S
H5345 C5374 0.950 . S
H5346 C5376 0.950 . S
H5347 C5377 0.950 1_565 S
C5348 H5330 0.951 . S
C5348 C5349 1.366 . S
C5348 C5350 1.388 . S
C5349 C5348 1.366 . S
C5349 C5353 1.385 . S
C5350 H5331 0.951 . S
C5350 C5348 1.388 . S
C5350 C5351 1.366 . S
C5351 C5350 1.366 . S
C5351 C5352 1.414 . S
C5351 C5354 1.499 . S
C5352 H5332 0.950 . S
C5352 C5351 1.414 . S
C5352 C5353 1.374 . S
C5353 H5333 0.950 . S
C5353 C5349 1.385 . S
C5353 C5352 1.374 . S
C5354 C5351 1.499 . S
C5354 C5355 1.373 . S
C5354 C5356 1.389 . S
C5355 H5334 0.950 . S
C5355 C5354 1.373 . S
C5355 C5371 1.377 . S
C5356 C5354 1.389 . S
C5356 C5357 1.524 . S
C5356 C5370 1.377 . S
C5357 C5356 1.524 . S
C5357 C5358 1.397 . S
C5357 C5362 1.363 . S
C5358 H5335 0.950 . S
C5358 C5357 1.397 . S
C5358 C5359 1.334 . S
C5359 H5336 0.950 . S
C5359 C5358 1.334 . S
C5359 C5360 1.287 . S
C5360 C5359 1.287 . S
C5360 C5361 1.524 . S
C5360 H5379 0.913 . S
C5361 H5337 0.950 . S
C5361 C5360 1.524 . S
C5361 C5362 1.415 . S
C5362 H5338 0.950 . S
C5362 C5357 1.363 . S
C5362 C5361 1.415 . S
C5363 H5339 0.951 . S
C5363 C5364 1.366 . S
C5363 C5365 1.388 . S
C5364 C5363 1.366 . S
C5364 C5368 1.385 . S
C5365 H5340 0.951 . S
C5365 C5363 1.388 . S
C5365 C5366 1.366 . S
C5366 C5365 1.366 . S
C5366 C5367 1.414 . S
C5366 C5369 1.499 . S
C5367 H5341 0.950 . S
C5367 C5366 1.414 . S
C5367 C5368 1.374 . S
C5368 H5342 0.950 . S
C5368 C5364 1.385 . S
C5368 C5367 1.374 . S
C5369 C5366 1.499 . S
C5369 C5370 1.373 . S
C5369 C5371 1.389 . S
C5370 H5343 0.950 . S
C5370 C5356 1.377 . S
C5370 C5369 1.373 . S
C5371 C5355 1.377 . S
C5371 C5369 1.389 . S
C5371 C5372 1.524 1_565 S
C5372 C5371 1.524 1_545 S
C5372 C5373 1.397 . S
C5372 C5377 1.363 . S
C5373 H5344 0.950 . S
C5373 C5372 1.397 . S
C5373 C5374 1.334 . S
C5374 H5345 0.950 . S
C5374 C5373 1.334 . S
C5374 C5375 1.287 . S
C5375 C5374 1.287 . S
C5375 C5376 1.524 . S
C5375 H5378 0.999 . S
C5376 H5346 0.950 . S
C5376 C5375 1.524 . S
C5376 C5377 1.415 . S
C5377 H5347 0.950 1_545 S
C5377 C5372 1.363 . S
C5377 C5376 1.415 . S
H5378 C5375 0.999 . S
H5379 C5360 0.913 . S
H5380 C5398 0.951 . S
H5381 C5400 0.951 . S
H5382 C5402 0.950 . S
H5383 C5403 0.950 . S
H5384 C5405 0.950 . S
H5385 C5408 0.950 . S
H5386 C5409 0.950 . S
H5387 C5411 0.950 . S
H5388 C5412 0.950 1_565 S
H5389 C5413 0.951 . S
H5390 C5415 0.951 . S
H5391 C5417 0.950 . S
H5392 C5418 0.950 . S
H5393 C5420 0.950 . S
H5394 C5423 0.950 . S
H5395 C5424 0.950 . S
H5396 C5426 0.950 . S
H5397 C5427 0.950 1_545 S
C5398 H5380 0.951 . S
C5398 C5399 1.366 . S
C5398 C5400 1.388 . S
C5399 C5398 1.366 . S
C5399 C5403 1.385 . S
C5400 H5381 0.951 . S
C5400 C5398 1.388 . S
C5400 C5401 1.366 . S
C5401 C5400 1.366 . S
C5401 C5402 1.414 . S
C5401 C5404 1.499 . S
C5402 H5382 0.950 . S
C5402 C5401 1.414 . S
C5402 C5403 1.374 . S
C5403 H5383 0.950 . S
C5403 C5399 1.385 . S
C5403 C5402 1.374 . S
C5404 C5401 1.499 . S
C5404 C5405 1.373 . S
C5404 C5406 1.389 . S
C5405 H5384 0.950 . S
C5405 C5404 1.373 . S
C5405 C5421 1.377 1_545 S
C5406 C5404 1.389 . S
C5406 C5407 1.524 . S
C5406 C5420 1.377 1_545 S
C5407 C5406 1.524 . S
C5407 C5408 1.397 . S
C5407 C5412 1.363 . S
C5408 H5385 0.950 . S
C5408 C5407 1.397 . S
C5408 C5409 1.334 . S
C5409 H5386 0.950 . S
C5409 C5408 1.334 . S
C5409 C5410 1.287 . S
C5410 C5409 1.287 . S
C5410 C5411 1.524 . S
C5410 H5429 0.913 . S
C5411 H5387 0.950 . S
C5411 C5410 1.524 . S
C5411 C5412 1.415 . S
C5412 H5388 0.950 1_545 S
C5412 C5407 1.363 . S
C5412 C5411 1.415 . S
C5413 H5389 0.951 . S
C5413 C5414 1.366 . S
C5413 C5415 1.388 . S
C5414 C5413 1.366 . S
C5414 C5418 1.385 . S
C5415 H5390 0.951 . S
C5415 C5413 1.388 . S
C5415 C5416 1.366 . S
C5416 C5415 1.366 . S
C5416 C5417 1.414 . S
C5416 C5419 1.499 . S
C5417 H5391 0.950 . S
C5417 C5416 1.414 . S
C5417 C5418 1.374 . S
C5418 H5392 0.950 . S
C5418 C5414 1.385 . S
C5418 C5417 1.374 . S
C5419 C5416 1.499 . S
C5419 C5420 1.373 . S
C5419 C5421 1.389 . S
C5420 H5393 0.950 . S
C5420 C5406 1.377 1_565 S
C5420 C5419 1.373 . S
C5421 C5405 1.377 1_565 S
C5421 C5419 1.389 . S
C5421 C5422 1.524 . S
C5422 C5421 1.524 . S
C5422 C5423 1.397 . S
C5422 C5427 1.363 . S
C5423 H5394 0.950 . S
C5423 C5422 1.397 . S
C5423 C5424 1.334 . S
C5424 H5395 0.950 . S
C5424 C5423 1.334 . S
C5424 C5425 1.287 . S
C5425 C5424 1.287 . S
C5425 C5426 1.524 . S
C5425 H5428 0.999 . S
C5426 H5396 0.950 . S
C5426 C5425 1.524 . S
C5426 C5427 1.415 . S
C5427 H5397 0.950 1_565 S
C5427 C5422 1.363 . S
C5427 C5426 1.415 . S
H5428 C5425 0.999 . S
H5429 C5410 0.913 . S
H5430 C5448 0.951 . S
H5431 C5450 0.951 . S
H5432 C5452 0.950 . S
H5433 C5453 0.950 . S
H5434 C5455 0.930 1_565 S
H5435 C5458 0.950 . S
H5436 C5459 0.950 . S
H5437 C5461 0.950 . S
H5438 C5462 0.950 1_554 S
H5439 C5463 0.951 . S
H5440 C5465 0.951 . S
H5441 C5467 0.950 . S
H5442 C5468 0.950 . S
H5443 C5470 0.950 . S
H5444 C5473 0.950 1_545 S
H5445 C5474 0.950 . S
H5446 C5476 0.950 . S
H5447 C5477 0.950 1_556 S
C5448 H5430 0.951 . S
C5448 C5449 1.366 . S
C5448 C5450 1.388 . S
C5449 C5448 1.366 . S
C5449 C5453 1.385 . S
C5450 H5431 0.951 . S
C5450 C5448 1.388 . S
C5450 C5451 1.366 . S
C5451 C5450 1.366 . S
C5451 C5452 1.414 . S
C5451 C5454 1.499 . S
C5452 H5432 0.950 . S
C5452 C5451 1.414 . S
C5452 C5453 1.374 . S
C5453 H5433 0.950 . S
C5453 C5449 1.385 . S
C5453 C5452 1.374 . S
C5454 C5451 1.499 . S
C5454 C5455 1.373 . S
C5454 C5456 1.389 . S
C5455 H5434 0.930 1_545 S
C5455 C5454 1.373 . S
C5455 C5471 1.377 1_556 S
C5456 C5454 1.389 . S
C5456 C5457 1.524 . S
C5456 C5470 1.377 1_556 S
C5457 C5456 1.524 . S
C5457 C5458 1.397 . S
C5457 C5462 1.363 . S
C5458 H5435 0.950 . S
C5458 C5457 1.397 . S
C5458 C5459 1.334 . S
C5459 H5436 0.950 . S
C5459 C5458 1.334 . S
C5459 C5460 1.287 . S
C5460 C5459 1.287 . S
C5460 C5461 1.524 . S
C5460 H5479 0.913 . S
C5461 H5437 0.950 . S
C5461 C5460 1.524 . S
C5461 C5462 1.415 . S
C5462 H5438 0.950 1_556 S
C5462 C5457 1.363 . S
C5462 C5461 1.415 . S
C5463 H5439 0.951 . S
C5463 C5464 1.366 . S
C5463 C5465 1.388 . S
C5464 C5463 1.366 . S
C5464 C5468 1.385 . S
C5465 H5440 0.951 . S
C5465 C5463 1.388 . S
C5465 C5466 1.366 . S
C5466 C5465 1.366 . S
C5466 C5467 1.414 . S
C5466 C5469 1.499 . S
C5467 H5441 0.950 . S
C5467 C5466 1.414 . S
C5467 C5468 1.374 . S
C5468 H5442 0.950 . S
C5468 C5464 1.385 . S
C5468 C5467 1.374 . S
C5469 C5466 1.499 . S
C5469 C5470 1.373 . S
C5469 C5471 1.389 . S
C5470 H5443 0.950 . S
C5470 C5456 1.377 1_554 S
C5470 C5469 1.373 . S
C5471 C5455 1.377 1_554 S
C5471 C5469 1.389 . S
C5471 C5472 1.524 1_545 S
C5472 C5471 1.524 1_565 S
C5472 C5473 1.397 . S
C5472 C5477 1.363 . S
C5473 H5444 0.950 1_565 S
C5473 C5472 1.397 . S
C5473 C5474 1.334 . S
C5474 H5445 0.950 . S
C5474 C5473 1.334 . S
C5474 C5475 1.287 . S
C5475 C5474 1.287 . S
C5475 C5476 1.524 . S
C5475 H5478 0.999 . S
C5476 H5446 0.950 . S
C5476 C5475 1.524 . S
C5476 C5477 1.415 . S
C5477 H5447 0.950 1_554 S
C5477 C5472 1.363 . S
C5477 C5476 1.415 . S
H5478 C5475 0.999 . S
H5479 C5460 0.913 . S
H5480 C5498 0.951 . S
H5481 C5500 0.951 . S
H5482 C5502 0.950 . S
H5483 C5503 0.950 . S
H5484 C5505 0.950 . S
H5485 C5508 0.950 . S
H5486 C5509 0.950 . S
H5487 C5511 0.950 . S
H5488 C5512 0.950 . S
H5489 C5513 0.951 . S
H5490 C5515 0.951 . S
H5491 C5517 0.950 . S
H5492 C5518 0.950 . S
H5493 C5520 0.950 . S
H5494 C5523 0.950 . S
H5495 C5524 0.950 . S
H5496 C5526 0.950 . S
H5497 C5527 0.950 . S
C5498 H5480 0.951 . S
C5498 C5499 1.366 . S
C5498 C5500 1.388 . S
C5499 C5498 1.366 . S
C5499 C5503 1.385 . S
C5500 H5481 0.951 . S
C5500 C5498 1.388 . S
C5500 C5501 1.366 . S
C5501 C5500 1.366 . S
C5501 C5502 1.414 . S
C5501 C5504 1.499 . S
C5502 H5482 0.950 . S
C5502 C5501 1.414 . S
C5502 C5503 1.374 . S
C5503 H5483 0.950 . S
C5503 C5499 1.385 . S
C5503 C5502 1.374 . S
C5504 C5501 1.499 . S
C5504 C5505 1.373 . S
C5504 C5506 1.389 . S
C5505 H5484 0.950 . S
C5505 C5504 1.373 . S
C5505 C5521 1.377 1_565 S
C5506 C5504 1.389 . S
C5506 C5507 1.524 . S
C5506 C5520 1.377 1_565 S
C5507 C5506 1.524 . S
C5507 C5508 1.397 . S
C5507 C5512 1.363 . S
C5508 H5485 0.950 . S
C5508 C5507 1.397 . S
C5508 C5509 1.334 . S
C5509 H5486 0.950 . S
C5509 C5508 1.334 . S
C5509 C5510 1.287 . S
C5510 C5509 1.287 . S
C5510 C5511 1.524 . S
C5510 H5529 0.913 . S
C5511 H5487 0.950 . S
C5511 C5510 1.524 . S
C5511 C5512 1.415 . S
C5512 H5488 0.950 . S
C5512 C5507 1.363 . S
C5512 C5511 1.415 . S
C5513 H5489 0.951 . S
C5513 C5514 1.366 . S
C5513 C5515 1.388 . S
C5514 C5513 1.366 . S
C5514 C5518 1.385 . S
C5515 H5490 0.951 . S
C5515 C5513 1.388 . S
C5515 C5516 1.366 . S
C5516 C5515 1.366 . S
C5516 C5517 1.414 . S
C5516 C5519 1.499 . S
C5517 H5491 0.950 . S
C5517 C5516 1.414 . S
C5517 C5518 1.374 . S
C5518 H5492 0.950 . S
C5518 C5514 1.385 . S
C5518 C5517 1.374 . S
C5519 C5516 1.499 . S
C5519 C5520 1.373 . S
C5519 C5521 1.389 . S
C5520 H5493 0.950 . S
C5520 C5506 1.377 1_545 S
C5520 C5519 1.373 . S
C5521 C5505 1.377 1_545 S
C5521 C5519 1.389 . S
C5521 C5522 1.524 . S
C5522 C5521 1.524 . S
C5522 C5523 1.397 . S
C5522 C5527 1.363 . S
C5523 H5494 0.950 . S
C5523 C5522 1.397 . S
C5523 C5524 1.334 . S
C5524 H5495 0.950 . S
C5524 C5523 1.334 . S
C5524 C5525 1.287 . S
C5525 C5524 1.287 . S
C5525 C5526 1.524 . S
C5525 H5528 0.999 . S
C5526 H5496 0.950 . S
C5526 C5525 1.524 . S
C5526 C5527 1.415 . S
C5527 H5497 0.950 . S
C5527 C5522 1.363 . S
C5527 C5526 1.415 . S
H5528 C5525 0.999 . S
H5529 C5510 0.913 . S
H5530 C5548 0.951 . S
H5531 C5550 0.951 . S
H5532 C5552 0.950 . S
H5533 C5553 0.950 . S
H5534 C5555 0.950 . S
H5535 C5558 0.950 . S
H5536 C5559 0.950 . S
H5537 C5561 0.950 . S
H5538 C5562 0.950 . S
H5539 C5563 0.951 . S
H5540 C5565 0.951 . S
H5541 C5567 0.950 . S
H5542 C5568 0.950 . S
H5543 C5570 0.950 . S
H5544 C5573 0.950 . S
H5545 C5574 0.950 . S
H5546 C5576 0.950 . S
H5547 C5577 0.950 . S
C5548 H5530 0.951 . S
C5548 C5549 1.366 . S
C5548 C5550 1.388 . S
C5549 C5548 1.366 . S
C5549 C5553 1.385 . S
C5550 H5531 0.951 . S
C5550 C5548 1.388 . S
C5550 C5551 1.366 . S
C5551 C5550 1.366 . S
C5551 C5552 1.414 . S
C5551 C5554 1.499 . S
C5552 H5532 0.950 . S
C5552 C5551 1.414 . S
C5552 C5553 1.374 . S
C5553 H5533 0.950 . S
C5553 C5549 1.385 . S
C5553 C5552 1.374 . S
C5554 C5551 1.499 . S
C5554 C5555 1.373 . S
C5554 C5556 1.389 . S
C5555 H5534 0.950 . S
C5555 C5554 1.373 . S
C5555 C5571 1.377 . S
C5556 C5554 1.389 . S
C5556 C5557 1.524 . S
C5556 C5570 1.377 . S
C5557 C5556 1.524 . S
C5557 C5558 1.397 1_545 S
C5557 C5562 1.363 . S
C5558 H5535 0.950 . S
C5558 C5557 1.397 1_565 S
C5558 C5559 1.334 . S
C5559 H5536 0.950 . S
C5559 C5558 1.334 . S
C5559 C5560 1.287 . S
C5560 C5559 1.287 . S
C5560 C5561 1.524 1_565 S
C5560 H5579 0.913 . S
C5561 H5537 0.950 . S
C5561 C5560 1.524 1_545 S
C5561 C5562 1.415 . S
C5562 H5538 0.950 . S
C5562 C5557 1.363 . S
C5562 C5561 1.415 . S
C5563 H5539 0.951 . S
C5563 C5564 1.366 . S
C5563 C5565 1.388 . S
C5564 C5563 1.366 . S
C5564 C5568 1.385 . S
C5565 H5540 0.951 . S
C5565 C5563 1.388 . S
C5565 C5566 1.366 . S
C5566 C5565 1.366 . S
C5566 C5567 1.414 . S
C5566 C5569 1.499 . S
C5567 H5541 0.950 . S
C5567 C5566 1.414 . S
C5567 C5568 1.374 . S
C5568 H5542 0.950 . S
C5568 C5564 1.385 . S
C5568 C5567 1.374 . S
C5569 C5566 1.499 . S
C5569 C5570 1.373 . S
C5569 C5571 1.389 . S
C5570 H5543 0.950 . S
C5570 C5556 1.377 . S
C5570 C5569 1.373 . S
C5571 C5555 1.377 . S
C5571 C5569 1.389 . S
C5571 C5572 1.524 . S
C5572 C5571 1.524 . S
C5572 C5573 1.397 . S
C5572 C5577 1.363 . S
C5573 H5544 0.950 . S
C5573 C5572 1.397 . S
C5573 C5574 1.334 . S
C5574 H5545 0.950 . S
C5574 C5573 1.334 . S
C5574 C5575 1.287 . S
C5575 C5574 1.287 . S
C5575 C5576 1.524 . S
C5575 H5578 0.999 . S
C5576 H5546 0.950 . S
C5576 C5575 1.524 . S
C5576 C5577 1.415 . S
C5577 H5547 0.950 . S
C5577 C5572 1.363 . S
C5577 C5576 1.415 . S
H5578 C5575 0.999 . S
H5579 C5560 0.913 . S
H5580 C5598 0.951 . S
H5581 C5600 0.951 . S
H5582 C5602 0.950 . S
H5583 C5603 0.950 . S
H5584 C5605 0.950 . S
H5585 C5608 0.950 . S
H5586 C5609 0.950 . S
H5587 C5611 0.950 . S
H5588 C5612 0.950 . S
H5589 C5613 0.951 . S
H5590 C5615 0.951 . S
H5591 C5617 0.950 . S
H5592 C5618 0.950 . S
H5593 C5620 0.950 . S
H5594 C5623 0.950 . S
H5595 C5624 0.950 . S
H5596 C5626 0.950 . S
H5597 C5627 0.950 . S
C5598 H5580 0.951 . S
C5598 C5599 1.366 . S
C5598 C5600 1.388 . S
C5599 C5598 1.366 . S
C5599 C5603 1.385 . S
C5600 H5581 0.951 . S
C5600 C5598 1.388 . S
C5600 C5601 1.366 . S
C5601 C5600 1.366 . S
C5601 C5602 1.414 . S
C5601 C5604 1.499 . S
C5602 H5582 0.950 . S
C5602 C5601 1.414 . S
C5602 C5603 1.374 . S
C5603 H5583 0.950 . S
C5603 C5599 1.385 . S
C5603 C5602 1.374 . S
C5604 C5601 1.499 . S
C5604 C5605 1.373 . S
C5604 C5606 1.389 . S
C5605 H5584 0.950 . S
C5605 C5604 1.373 . S
C5605 C5621 1.377 1_565 S
C5606 C5604 1.389 . S
C5606 C5607 1.524 . S
C5606 C5620 1.377 1_565 S
C5607 C5606 1.524 . S
C5607 C5608 1.397 . S
C5607 C5612 1.363 . S
C5608 H5585 0.950 . S
C5608 C5607 1.397 . S
C5608 C5609 1.334 . S
C5609 H5586 0.950 . S
C5609 C5608 1.334 . S
C5609 C5610 1.287 . S
C5610 C5609 1.287 . S
C5610 C5611 1.524 . S
C5610 H5629 0.913 . S
C5611 H5587 0.950 . S
C5611 C5610 1.524 . S
C5611 C5612 1.415 . S
C5612 H5588 0.950 . S
C5612 C5607 1.363 . S
C5612 C5611 1.415 . S
C5613 H5589 0.951 . S
C5613 C5614 1.366 . S
C5613 C5615 1.388 . S
C5614 C5613 1.366 . S
C5614 C5618 1.385 . S
C5615 H5590 0.951 . S
C5615 C5613 1.388 . S
C5615 C5616 1.366 . S
C5616 C5615 1.366 . S
C5616 C5617 1.414 . S
C5616 C5619 1.499 . S
C5617 H5591 0.950 . S
C5617 C5616 1.414 . S
C5617 C5618 1.374 . S
C5618 H5592 0.950 . S
C5618 C5614 1.385 . S
C5618 C5617 1.374 . S
C5619 C5616 1.499 . S
C5619 C5620 1.373 . S
C5619 C5621 1.389 . S
C5620 H5593 0.950 . S
C5620 C5606 1.377 1_545 S
C5620 C5619 1.373 . S
C5621 C5605 1.377 1_545 S
C5621 C5619 1.389 . S
C5621 C5622 1.524 . S
C5622 C5621 1.524 . S
C5622 C5623 1.397 . S
C5622 C5627 1.363 . S
C5623 H5594 0.950 . S
C5623 C5622 1.397 . S
C5623 C5624 1.334 . S
C5624 H5595 0.950 . S
C5624 C5623 1.334 . S
C5624 C5625 1.287 . S
C5625 C5624 1.287 . S
C5625 C5626 1.524 . S
C5625 H5628 0.999 . S
C5626 H5596 0.950 . S
C5626 C5625 1.524 . S
C5626 C5627 1.415 . S
C5627 H5597 0.950 . S
C5627 C5622 1.363 . S
C5627 C5626 1.415 . S
H5628 C5625 0.999 . S
H5629 C5610 0.913 . S
H5630 C5648 0.951 . S
H5631 C5650 0.951 . S
H5632 C5652 0.950 . S
H5633 C5653 0.950 . S
H5634 C5655 0.950 . S
H5635 C5658 0.950 . S
H5636 C5659 0.950 . S
H5637 C5661 0.950 . S
H5638 C5662 0.950 . S
H5639 C5663 0.951 . S
H5640 C5665 0.951 . S
H5641 C5667 0.950 . S
H5642 C5668 0.950 . S
H5643 C5670 0.950 . S
H5644 C5673 0.950 . S
H5645 C5674 0.950 . S
H5646 C5676 0.950 . S
H5647 C5677 0.950 . S
C5648 H5630 0.951 . S
C5648 C5649 1.366 . S
C5648 C5650 1.388 . S
C5649 C5648 1.366 . S
C5649 C5653 1.385 . S
C5650 H5631 0.951 . S
C5650 C5648 1.388 . S
C5650 C5651 1.366 . S
C5651 C5650 1.366 . S
C5651 C5652 1.414 . S
C5651 C5654 1.499 . S
C5652 H5632 0.950 . S
C5652 C5651 1.414 . S
C5652 C5653 1.374 . S
C5653 H5633 0.950 . S
C5653 C5649 1.385 . S
C5653 C5652 1.374 . S
C5654 C5651 1.499 . S
C5654 C5655 1.373 . S
C5654 C5656 1.431 . S
C5655 H5634 0.950 . S
C5655 C5654 1.373 . S
C5655 C5671 1.333 1_554 S
C5656 C5654 1.431 . S
C5656 C5657 1.531 1_565 S
C5656 C5670 1.333 1_554 S
C5657 C5656 1.531 1_545 S
C5657 C5658 1.397 . S
C5657 C5662 1.363 1_554 S
C5658 H5635 0.950 . S
C5658 C5657 1.397 . S
C5658 C5659 1.334 . S
C5659 H5636 0.950 . S
C5659 C5658 1.334 . S
C5659 C5660 1.287 . S
C5660 C5659 1.287 . S
C5660 C5661 1.524 1_554 S
C5660 H5679 0.913 . S
C5661 H5637 0.950 . S
C5661 C5660 1.524 1_556 S
C5661 C5662 1.415 . S
C5662 H5638 0.950 . S
C5662 C5657 1.363 1_556 S
C5662 C5661 1.415 . S
C5663 H5639 0.951 . S
C5663 C5664 1.366 . S
C5663 C5665 1.388 . S
C5664 C5663 1.366 . S
C5664 C5668 1.385 . S
C5665 H5640 0.951 . S
C5665 C5663 1.388 . S
C5665 C5666 1.366 . S
C5666 C5665 1.366 . S
C5666 C5667 1.414 . S
C5666 C5669 1.499 . S
C5667 H5641 0.950 . S
C5667 C5666 1.414 . S
C5667 C5668 1.374 . S
C5668 H5642 0.950 . S
C5668 C5664 1.385 . S
C5668 C5667 1.374 . S
C5669 C5666 1.499 . S
C5669 C5670 1.373 . S
C5669 C5671 1.430 . S
C5670 H5643 0.950 . S
C5670 C5656 1.333 1_556 S
C5670 C5669 1.373 . S
C5671 C5655 1.333 1_556 S
C5671 C5669 1.430 . S
C5671 C5672 1.531 . S
C5672 C5671 1.531 . S
C5672 C5673 1.397 . S
C5672 C5677 1.363 1_556 S
C5673 H5644 0.950 . S
C5673 C5672 1.397 . S
C5673 C5674 1.334 . S
C5674 H5645 0.950 . S
C5674 C5673 1.334 . S
C5674 C5675 1.287 . S
C5675 C5674 1.287 . S
C5675 C5676 1.524 1_556 S
C5675 H5678 0.999 . S
C5676 H5646 0.950 . S
C5676 C5675 1.524 1_554 S
C5676 C5677 1.415 . S
C5677 H5647 0.950 . S
C5677 C5672 1.363 1_554 S
C5677 C5676 1.415 . S
H5678 C5675 0.999 . S
H5679 C5660 0.913 . S
H5680 C5698 0.951 . S
H5681 C5700 0.951 . S
H5682 C5702 0.950 . S
H5683 C5703 0.950 . S
H5684 C5705 0.950 . S
H5685 C5708 0.950 . S
H5686 C5709 0.950 . S
H5687 C5711 0.950 . S
H5688 C5712 0.950 . S
H5689 C5713 0.951 . S
H5690 C5715 0.951 . S
H5691 C5717 0.950 . S
H5692 C5718 0.950 . S
H5693 C5720 0.950 . S
H5694 C5723 0.950 . S
H5695 C5724 0.950 . S
H5696 C5726 0.950 . S
H5697 C5727 0.950 . S
C5698 H5680 0.951 . S
C5698 C5699 1.366 . S
C5698 C5700 1.388 . S
C5699 C5698 1.366 . S
C5699 C5703 1.385 . S
C5700 H5681 0.951 . S
C5700 C5698 1.388 . S
C5700 C5701 1.366 . S
C5701 C5700 1.366 . S
C5701 C5702 1.414 . S
C5701 C5704 1.499 . S
C5702 H5682 0.950 . S
C5702 C5701 1.414 . S
C5702 C5703 1.374 . S
C5703 H5683 0.950 . S
C5703 C5699 1.385 . S
C5703 C5702 1.374 . S
C5704 C5701 1.499 . S
C5704 C5705 1.373 . S
C5704 C5706 1.389 . S
C5705 H5684 0.950 . S
C5705 C5704 1.373 . S
C5705 C5721 1.377 . S
C5706 C5704 1.389 . S
C5706 C5707 1.524 . S
C5706 C5720 1.377 . S
C5707 C5706 1.524 . S
C5707 C5708 1.397 . S
C5707 C5712 1.363 . S
C5708 H5685 0.950 . S
C5708 C5707 1.397 . S
C5708 C5709 1.334 . S
C5709 H5686 0.950 . S
C5709 C5708 1.334 . S
C5709 C5710 1.287 . S
C5710 C5709 1.287 . S
C5710 C5711 1.524 . S
C5710 H5729 0.913 . S
C5711 H5687 0.950 . S
C5711 C5710 1.524 . S
C5711 C5712 1.415 . S
C5712 H5688 0.950 . S
C5712 C5707 1.363 . S
C5712 C5711 1.415 . S
C5713 H5689 0.951 . S
C5713 C5714 1.366 . S
C5713 C5715 1.388 . S
C5714 C5713 1.366 . S
C5714 C5718 1.385 . S
C5715 H5690 0.951 . S
C5715 C5713 1.388 . S
C5715 C5716 1.366 . S
C5716 C5715 1.366 . S
C5716 C5717 1.414 . S
C5716 C5719 1.499 . S
C5717 H5691 0.950 . S
C5717 C5716 1.414 . S
C5717 C5718 1.374 . S
C5718 H5692 0.950 . S
C5718 C5714 1.385 . S
C5718 C5717 1.374 . S
C5719 C5716 1.499 . S
C5719 C5720 1.373 . S
C5719 C5721 1.389 . S
C5720 H5693 0.950 . S
C5720 C5706 1.377 . S
C5720 C5719 1.373 . S
C5721 C5705 1.377 . S
C5721 C5719 1.389 . S
C5721 C5722 1.524 . S
C5722 C5721 1.524 . S
C5722 C5723 1.397 . S
C5722 C5727 1.363 . S
C5723 H5694 0.950 . S
C5723 C5722 1.397 . S
C5723 C5724 1.334 . S
C5724 H5695 0.950 . S
C5724 C5723 1.334 . S
C5724 C5725 1.287 . S
C5725 C5724 1.287 . S
C5725 C5726 1.524 . S
C5725 H5728 0.999 . S
C5726 H5696 0.950 . S
C5726 C5725 1.524 . S
C5726 C5727 1.415 . S
C5727 H5697 0.950 . S
C5727 C5722 1.363 . S
C5727 C5726 1.415 . S
H5728 C5725 0.999 . S
H5729 C5710 0.913 . S
H5730 C5748 0.951 . S
H5731 C5750 0.951 . S
H5732 C5752 0.950 . S
H5733 C5753 0.950 . S
H5734 C5755 0.950 . S
H5735 C5758 0.950 . S
H5736 C5759 0.950 . S
H5737 C5761 0.950 . S
H5738 C5762 0.950 . S
H5739 C5763 0.951 . S
H5740 C5765 0.951 . S
H5741 C5767 0.950 . S
H5742 C5768 0.950 . S
H5743 C5770 0.950 . S
H5744 C5773 0.950 . S
H5745 C5774 0.950 . S
H5746 C5776 0.950 . S
H5747 C5777 0.950 . S
C5748 H5730 0.951 . S
C5748 C5749 1.366 . S
C5748 C5750 1.388 . S
C5749 C5748 1.366 . S
C5749 C5753 1.385 . S
C5750 H5731 0.951 . S
C5750 C5748 1.388 . S
C5750 C5751 1.366 . S
C5751 C5750 1.366 . S
C5751 C5752 1.414 . S
C5751 C5754 1.499 . S
C5752 H5732 0.950 . S
C5752 C5751 1.414 . S
C5752 C5753 1.374 . S
C5753 H5733 0.950 . S
C5753 C5749 1.385 . S
C5753 C5752 1.374 . S
C5754 C5751 1.499 . S
C5754 C5755 1.373 1_556 S
C5754 C5756 1.389 . S
C5755 H5734 0.950 . S
C5755 C5754 1.373 1_554 S
C5755 C5771 1.377 . S
C5756 C5754 1.389 . S
C5756 C5757 1.524 . S
C5756 C5770 1.377 . S
C5757 C5756 1.524 . S
C5757 C5758 1.397 . S
C5757 C5762 1.363 . S
C5758 H5735 0.950 . S
C5758 C5757 1.397 . S
C5758 C5759 1.334 . S
C5759 H5736 0.950 . S
C5759 C5758 1.334 . S
C5759 C5760 1.287 . S
C5760 C5759 1.287 . S
C5760 C5761 1.524 . S
C5760 H5779 0.913 . S
C5761 H5737 0.950 . S
C5761 C5760 1.524 . S
C5761 C5762 1.415 . S
C5762 H5738 0.950 . S
C5762 C5757 1.363 . S
C5762 C5761 1.415 . S
C5763 H5739 0.951 . S
C5763 C5764 1.366 . S
C5763 C5765 1.388 . S
C5764 C5763 1.366 . S
C5764 C5768 1.385 . S
C5765 H5740 0.951 . S
C5765 C5763 1.388 . S
C5765 C5766 1.366 . S
C5766 C5765 1.366 . S
C5766 C5767 1.414 . S
C5766 C5769 1.499 . S
C5767 H5741 0.950 . S
C5767 C5766 1.414 . S
C5767 C5768 1.374 . S
C5768 H5742 0.950 . S
C5768 C5764 1.385 . S
C5768 C5767 1.374 . S
C5769 C5766 1.499 . S
C5769 C5770 1.373 1_554 S
C5769 C5771 1.389 . S
C5770 H5743 0.950 . S
C5770 C5756 1.377 . S
C5770 C5769 1.373 1_556 S
C5771 C5755 1.377 . S
C5771 C5769 1.389 . S
C5771 C5772 1.524 . S
C5772 C5771 1.524 . S
C5772 C5773 1.397 . S
C5772 C5777 1.363 . S
C5773 H5744 0.950 . S
C5773 C5772 1.397 . S
C5773 C5774 1.334 . S
C5774 H5745 0.950 . S
C5774 C5773 1.334 . S
C5774 C5775 1.287 . S
C5775 C5774 1.287 . S
C5775 C5776 1.524 . S
C5775 H5778 0.999 . S
C5776 H5746 0.950 . S
C5776 C5775 1.524 . S
C5776 C5777 1.415 . S
C5777 H5747 0.950 . S
C5777 C5772 1.363 . S
C5777 C5776 1.415 . S
H5778 C5775 0.999 . S
H5779 C5760 0.913 . S
H5780 C5798 0.951 . S
H5781 C5800 0.951 . S
H5782 C5802 0.950 . S
H5783 C5803 0.950 . S
H5784 C5805 0.950 . S
H5785 C5808 0.950 . S
H5786 C5809 0.950 . S
H5787 C5811 0.950 . S
H5788 C5812 0.950 . S
H5789 C5813 0.951 . S
H5790 C5815 0.951 . S
H5791 C5817 0.950 . S
H5792 C5818 0.950 . S
H5793 C5820 0.950 . S
H5794 C5823 0.950 . S
H5795 C5824 0.950 . S
H5796 C5826 0.950 . S
H5797 C5827 0.950 . S
C5798 H5780 0.951 . S
C5798 C5799 1.366 . S
C5798 C5800 1.388 . S
C5799 C5798 1.366 . S
C5799 C5803 1.385 . S
C5800 H5781 0.951 . S
C5800 C5798 1.388 . S
C5800 C5801 1.366 . S
C5801 C5800 1.366 . S
C5801 C5802 1.414 . S
C5801 C5804 1.499 . S
C5802 H5782 0.950 . S
C5802 C5801 1.414 . S
C5802 C5803 1.374 . S
C5803 H5783 0.950 . S
C5803 C5799 1.385 . S
C5803 C5802 1.374 . S
C5804 C5801 1.499 . S
C5804 C5805 1.373 . S
C5804 C5806 1.389 . S
C5805 H5784 0.950 . S
C5805 C5804 1.373 . S
C5805 C5821 1.377 . S
C5806 C5804 1.389 . S
C5806 C5807 1.524 . S
C5806 C5820 1.377 . S
C5807 C5806 1.524 . S
C5807 C5808 1.397 . S
C5807 C5812 1.363 . S
C5808 H5785 0.950 . S
C5808 C5807 1.397 . S
C5808 C5809 1.334 . S
C5809 H5786 0.950 . S
C5809 C5808 1.334 . S
C5809 C5810 1.287 . S
C5810 C5809 1.287 . S
C5810 C5811 1.524 . S
C5810 H5829 0.913 . S
C5811 H5787 0.950 . S
C5811 C5810 1.524 . S
C5811 C5812 1.415 . S
C5812 H5788 0.950 . S
C5812 C5807 1.363 . S
C5812 C5811 1.415 . S
C5813 H5789 0.951 . S
C5813 C5814 1.366 . S
C5813 C5815 1.388 . S
C5814 C5813 1.366 . S
C5814 C5818 1.385 . S
C5815 H5790 0.951 . S
C5815 C5813 1.388 . S
C5815 C5816 1.366 . S
C5816 C5815 1.366 . S
C5816 C5817 1.414 . S
C5816 C5819 1.499 . S
C5817 H5791 0.950 . S
C5817 C5816 1.414 . S
C5817 C5818 1.374 . S
C5818 H5792 0.950 . S
C5818 C5814 1.385 . S
C5818 C5817 1.374 . S
C5819 C5816 1.499 . S
C5819 C5820 1.373 . S
C5819 C5821 1.389 . S
C5820 H5793 0.950 . S
C5820 C5806 1.377 . S
C5820 C5819 1.373 . S
C5821 C5805 1.377 . S
C5821 C5819 1.389 . S
C5821 C5822 1.524 . S
C5822 C5821 1.524 . S
C5822 C5823 1.397 . S
C5822 C5827 1.363 . S
C5823 H5794 0.950 . S
C5823 C5822 1.397 . S
C5823 C5824 1.334 . S
C5824 H5795 0.950 . S
C5824 C5823 1.334 . S
C5824 C5825 1.287 . S
C5825 C5824 1.287 . S
C5825 C5826 1.524 . S
C5825 H5828 0.999 . S
C5826 H5796 0.950 . S
C5826 C5825 1.524 . S
C5826 C5827 1.415 . S
C5827 H5797 0.950 . S
C5827 C5822 1.363 . S
C5827 C5826 1.415 . S
H5828 C5825 0.999 . S
H5829 C5810 0.913 . S
H5830 C5848 0.951 . S
H5831 C5850 0.951 . S
H5832 C5852 0.950 . S
H5833 C5853 0.950 . S
H5834 C5855 0.950 . S
H5835 C5858 0.950 . S
H5836 C5859 0.950 . S
H5837 C5861 0.950 . S
H5838 C5862 0.950 . S
H5839 C5863 0.951 . S
H5840 C5865 0.951 . S
H5841 C5867 0.950 . S
H5842 C5868 0.950 . S
H5843 C5870 0.950 . S
H5844 C5873 0.950 . S
H5845 C5874 0.950 . S
H5846 C5876 0.950 . S
H5847 C5877 0.950 . S
C5848 H5830 0.951 . S
C5848 C5849 1.366 . S
C5848 C5850 1.388 . S
C5849 C5848 1.366 . S
C5849 C5853 1.385 . S
C5850 H5831 0.951 . S
C5850 C5848 1.388 . S
C5850 C5851 1.366 . S
C5851 C5850 1.366 . S
C5851 C5852 1.414 . S
C5851 C5854 1.499 . S
C5852 H5832 0.950 . S
C5852 C5851 1.414 . S
C5852 C5853 1.374 . S
C5853 H5833 0.950 . S
C5853 C5849 1.385 . S
C5853 C5852 1.374 . S
C5854 C5851 1.499 . S
C5854 C5855 1.373 . S
C5854 C5856 1.389 . S
C5855 H5834 0.950 . S
C5855 C5854 1.373 . S
C5855 C5871 1.377 . S
C5856 C5854 1.389 . S
C5856 C5857 1.524 . S
C5856 C5870 1.377 . S
C5857 C5856 1.524 . S
C5857 C5858 1.397 . S
C5857 C5862 1.363 . S
C5858 H5835 0.950 . S
C5858 C5857 1.397 . S
C5858 C5859 1.334 . S
C5859 H5836 0.950 . S
C5859 C5858 1.334 . S
C5859 C5860 1.287 . S
C5860 C5859 1.287 . S
C5860 C5861 1.524 . S
C5860 H5879 0.913 . S
C5861 H5837 0.950 . S
C5861 C5860 1.524 . S
C5861 C5862 1.415 . S
C5862 H5838 0.950 . S
C5862 C5857 1.363 . S
C5862 C5861 1.415 . S
C5863 H5839 0.951 . S
C5863 C5864 1.366 . S
C5863 C5865 1.388 . S
C5864 C5863 1.366 . S
C5864 C5868 1.385 . S
C5865 H5840 0.951 . S
C5865 C5863 1.388 . S
C5865 C5866 1.366 . S
C5866 C5865 1.366 . S
C5866 C5867 1.414 . S
C5866 C5869 1.499 . S
C5867 H5841 0.950 . S
C5867 C5866 1.414 . S
C5867 C5868 1.374 . S
C5868 H5842 0.950 . S
C5868 C5864 1.385 . S
C5868 C5867 1.374 . S
C5869 C5866 1.499 . S
C5869 C5870 1.373 . S
C5869 C5871 1.389 . S
C5870 H5843 0.950 . S
C5870 C5856 1.377 . S
C5870 C5869 1.373 . S
C5871 C5855 1.377 . S
C5871 C5869 1.389 . S
C5871 C5872 1.524 . S
C5872 C5871 1.524 . S
C5872 C5873 1.397 . S
C5872 C5877 1.363 . S
C5873 H5844 0.950 . S
C5873 C5872 1.397 . S
C5873 C5874 1.334 . S
C5874 H5845 0.950 . S
C5874 C5873 1.334 . S
C5874 C5875 1.287 . S
C5875 C5874 1.287 . S
C5875 C5876 1.524 . S
C5875 H5878 0.999 . S
C5876 H5846 0.950 . S
C5876 C5875 1.524 . S
C5876 C5877 1.415 . S
C5877 H5847 0.950 . S
C5877 C5872 1.363 . S
C5877 C5876 1.415 . S
H5878 C5875 0.999 . S
H5879 C5860 0.913 . S
H5880 C5898 0.951 . S
H5881 C5900 0.951 . S
H5882 C5902 0.950 . S
H5883 C5903 0.950 . S
H5884 C5905 0.950 . S
H5885 C5908 0.950 . S
H5886 C5909 0.950 . S
H5887 C5911 0.950 . S
H5888 C5912 0.950 . S
H5889 C5913 0.951 . S
H5890 C5915 0.951 . S
H5891 C5917 0.950 . S
H5892 C5918 0.950 . S
H5893 C5920 0.950 . S
H5894 C5923 0.950 . S
H5895 C5924 0.950 . S
H5896 C5926 0.950 . S
H5897 C5927 0.950 . S
C5898 H5880 0.951 . S
C5898 C5899 1.366 . S
C5898 C5900 1.388 . S
C5899 C5898 1.366 . S
C5899 C5903 1.385 . S
C5900 H5881 0.951 . S
C5900 C5898 1.388 . S
C5900 C5901 1.366 . S
C5901 C5900 1.366 . S
C5901 C5902 1.414 . S
C5901 C5904 1.499 . S
C5902 H5882 0.950 . S
C5902 C5901 1.414 . S
C5902 C5903 1.374 . S
C5903 H5883 0.950 . S
C5903 C5899 1.385 . S
C5903 C5902 1.374 . S
C5904 C5901 1.499 . S
C5904 C5905 1.373 . S
C5904 C5906 1.389 . S
C5905 H5884 0.950 . S
C5905 C5904 1.373 . S
C5905 C5921 1.377 . S
C5906 C5904 1.389 . S
C5906 C5907 1.524 . S
C5906 C5920 1.377 . S
C5907 C5906 1.524 . S
C5907 C5908 1.397 . S
C5907 C5912 1.363 . S
C5908 H5885 0.950 . S
C5908 C5907 1.397 . S
C5908 C5909 1.334 . S
C5909 H5886 0.950 . S
C5909 C5908 1.334 . S
C5909 C5910 1.287 . S
C5910 C5909 1.287 . S
C5910 C5911 1.524 . S
C5910 H5929 0.913 . S
C5911 H5887 0.950 . S
C5911 C5910 1.524 . S
C5911 C5912 1.415 . S
C5912 H5888 0.950 . S
C5912 C5907 1.363 . S
C5912 C5911 1.415 . S
C5913 H5889 0.951 . S
C5913 C5914 1.366 . S
C5913 C5915 1.388 . S
C5914 C5913 1.366 . S
C5914 C5918 1.385 . S
C5915 H5890 0.951 . S
C5915 C5913 1.388 . S
C5915 C5916 1.366 . S
C5916 C5915 1.366 . S
C5916 C5917 1.414 . S
C5916 C5919 1.499 . S
C5917 H5891 0.950 . S
C5917 C5916 1.414 . S
C5917 C5918 1.374 . S
C5918 H5892 0.950 . S
C5918 C5914 1.385 . S
C5918 C5917 1.374 . S
C5919 C5916 1.499 . S
C5919 C5920 1.373 . S
C5919 C5921 1.389 . S
C5920 H5893 0.950 . S
C5920 C5906 1.377 . S
C5920 C5919 1.373 . S
C5921 C5905 1.377 . S
C5921 C5919 1.389 . S
C5921 C5922 1.524 . S
C5922 C5921 1.524 . S
C5922 C5923 1.397 . S
C5922 C5927 1.363 . S
C5923 H5894 0.950 . S
C5923 C5922 1.397 . S
C5923 C5924 1.334 . S
C5924 H5895 0.950 . S
C5924 C5923 1.334 . S
C5924 C5925 1.287 . S
C5925 C5924 1.287 . S
C5925 C5926 1.524 . S
C5925 H5928 0.999 . S
C5926 H5896 0.950 . S
C5926 C5925 1.524 . S
C5926 C5927 1.415 . S
C5927 H5897 0.950 . S
C5927 C5922 1.363 . S
C5927 C5926 1.415 . S
H5928 C5925 0.999 . S
H5929 C5910 0.913 . S
H5930 C5948 0.951 . S
H5931 C5950 0.951 . S
H5932 C5952 0.950 . S
H5933 C5953 0.950 . S
H5934 C5955 0.950 . S
H5935 C5958 0.950 . S
H5936 C5959 0.950 . S
H5937 C5961 0.950 . S
H5938 C5962 0.950 . S
H5939 C5963 0.951 . S
H5940 C5965 0.951 . S
H5941 C5967 0.950 . S
H5942 C5968 0.950 . S
H5943 C5970 0.950 . S
H5944 C5973 0.950 . S
H5945 C5974 0.950 . S
H5946 C5976 0.950 . S
H5947 C5977 0.950 . S
C5948 H5930 0.951 . S
C5948 C5949 1.366 . S
C5948 C5950 1.388 . S
C5949 C5948 1.366 . S
C5949 C5953 1.385 . S
C5950 H5931 0.951 . S
C5950 C5948 1.388 . S
C5950 C5951 1.366 . S
C5951 C5950 1.366 . S
C5951 C5952 1.414 . S
C5951 C5954 1.499 . S
C5952 H5932 0.950 . S
C5952 C5951 1.414 . S
C5952 C5953 1.374 . S
C5953 H5933 0.950 . S
C5953 C5949 1.385 . S
C5953 C5952 1.374 . S
C5954 C5951 1.499 . S
C5954 C5955 1.373 . S
C5954 C5956 1.356 1_556 S
C5955 H5934 0.950 . S
C5955 C5954 1.373 . S
C5955 C5971 1.408 . S
C5956 C5954 1.356 1_554 S
C5956 C5957 1.523 . S
C5956 C5970 1.408 . S
C5957 C5956 1.523 . S
C5957 C5958 1.291 1_554 S
C5957 C5962 1.475 . S
C5958 H5935 0.950 . S
C5958 C5957 1.291 1_556 S
C5958 C5959 1.334 . S
C5959 H5936 0.950 . S
C5959 C5958 1.334 . S
C5959 C5960 1.262 1_556 S
C5960 C5959 1.262 1_554 S
C5960 C5961 1.550 . S
C5960 H5979 0.913 . S
C5961 H5937 0.950 . S
C5961 C5960 1.550 . S
C5961 C5962 1.415 . S
C5962 H5938 0.950 . S
C5962 C5957 1.475 . S
C5962 C5961 1.415 . S
C5963 H5939 0.951 . S
C5963 C5964 1.366 . S
C5963 C5965 1.388 . S
C5964 C5963 1.366 . S
C5964 C5968 1.385 . S
C5965 H5940 0.951 . S
C5965 C5963 1.388 . S
C5965 C5966 1.366 . S
C5966 C5965 1.366 . S
C5966 C5967 1.414 . S
C5966 C5969 1.499 . S
C5967 H5941 0.950 . S
C5967 C5966 1.414 . S
C5967 C5968 1.374 . S
C5968 H5942 0.950 . S
C5968 C5964 1.385 . S
C5968 C5967 1.374 . S
C5969 C5966 1.499 . S
C5969 C5970 1.373 . S
C5969 C5971 1.356 1_554 S
C5970 H5943 0.950 . S
C5970 C5956 1.408 . S
C5970 C5969 1.373 . S
C5971 C5955 1.408 . S
C5971 C5969 1.356 1_556 S
C5971 C5972 1.523 . S
C5972 C5971 1.523 . S
C5972 C5973 1.291 1_556 S
C5972 C5977 1.475 . S
C5973 H5944 0.950 . S
C5973 C5972 1.291 1_554 S
C5973 C5974 1.334 . S
C5974 H5945 0.950 . S
C5974 C5973 1.334 . S
C5974 C5975 1.262 1_554 S
C5975 C5974 1.262 1_556 S
C5975 C5976 1.550 . S
C5975 H5978 0.998 . S
C5976 H5946 0.950 . S
C5976 C5975 1.550 . S
C5976 C5977 1.415 . S
C5977 H5947 0.950 . S
C5977 C5972 1.475 . S
C5977 C5976 1.415 . S
H5978 C5975 0.998 . S
H5979 C5960 0.913 . S
H5980 C5998 0.951 . S
H5981 C6000 0.951 . S
H5982 C6002 0.950 . S
H5983 C6003 0.950 . S
H5984 C6005 0.950 . S
H5985 C6008 0.950 . S
H5986 C6009 0.950 . S
H5987 C6011 0.950 . S
H5988 C6012 0.950 . S
H5989 C6013 0.951 . S
H5990 C6015 0.951 . S
H5991 C6017 0.950 . S
H5992 C6018 0.950 . S
H5993 C6020 0.950 . S
H5994 C6023 0.950 . S
H5995 C6024 0.950 . S
H5996 C6026 0.950 . S
H5997 C6027 0.950 . S
C5998 H5980 0.951 . S
C5998 C5999 1.366 . S
C5998 C6000 1.388 . S
C5999 C5998 1.366 . S
C5999 C6003 1.385 . S
C6000 H5981 0.951 . S
C6000 C5998 1.388 . S
C6000 C6001 1.366 . S
C6001 C6000 1.366 . S
C6001 C6002 1.414 . S
C6001 C6004 1.499 . S
C6002 H5982 0.950 . S
C6002 C6001 1.414 . S
C6002 C6003 1.374 . S
C6003 H5983 0.950 . S
C6003 C5999 1.385 . S
C6003 C6002 1.374 . S
C6004 C6001 1.499 . S
C6004 C6005 1.373 . S
C6004 C6006 1.389 . S
C6005 H5984 0.950 . S
C6005 C6004 1.373 . S
C6005 C6021 1.377 . S
C6006 C6004 1.389 . S
C6006 C6007 1.524 . S
C6006 C6020 1.377 . S
C6007 C6006 1.524 . S
C6007 C6008 1.397 . S
C6007 C6012 1.363 . S
C6008 H5985 0.950 . S
C6008 C6007 1.397 . S
C6008 C6009 1.334 . S
C6009 H5986 0.950 . S
C6009 C6008 1.334 . S
C6009 C6010 1.287 . S
C6010 C6009 1.287 . S
C6010 C6011 1.524 . S
C6010 H6029 0.913 . S
C6011 H5987 0.950 . S
C6011 C6010 1.524 . S
C6011 C6012 1.415 . S
C6012 H5988 0.950 . S
C6012 C6007 1.363 . S
C6012 C6011 1.415 . S
C6013 H5989 0.951 . S
C6013 C6014 1.366 . S
C6013 C6015 1.388 . S
C6014 C6013 1.366 . S
C6014 C6018 1.385 . S
C6015 H5990 0.951 . S
C6015 C6013 1.388 . S
C6015 C6016 1.366 . S
C6016 C6015 1.366 . S
C6016 C6017 1.414 . S
C6016 C6019 1.499 . S
C6017 H5991 0.950 . S
C6017 C6016 1.414 . S
C6017 C6018 1.374 . S
C6018 H5992 0.950 . S
C6018 C6014 1.385 . S
C6018 C6017 1.374 . S
C6019 C6016 1.499 . S
C6019 C6020 1.373 . S
C6019 C6021 1.389 . S
C6020 H5993 0.950 . S
C6020 C6006 1.377 . S
C6020 C6019 1.373 . S
C6021 C6005 1.377 . S
C6021 C6019 1.389 . S
C6021 C6022 1.524 . S
C6022 C6021 1.524 . S
C6022 C6023 1.397 . S
C6022 C6027 1.363 . S
C6023 H5994 0.950 . S
C6023 C6022 1.397 . S
C6023 C6024 1.334 . S
C6024 H5995 0.950 . S
C6024 C6023 1.334 . S
C6024 C6025 1.287 . S
C6025 C6024 1.287 . S
C6025 C6026 1.524 . S
C6025 H6028 0.999 . S
C6026 H5996 0.950 . S
C6026 C6025 1.524 . S
C6026 C6027 1.415 . S
C6027 H5997 0.950 . S
C6027 C6022 1.363 . S
C6027 C6026 1.415 . S
H6028 C6025 0.999 . S
H6029 C6010 0.913 . S
H6030 C6048 0.951 . S
H6031 C6050 0.951 . S
H6032 C6052 0.950 . S
H6033 C6053 0.950 . S
H6034 C6055 0.950 . S
H6035 C6058 0.950 . S
H6036 C6059 0.950 . S
H6037 C6061 0.950 . S
H6038 C6062 0.950 . S
H6039 C6063 0.951 . S
H6040 C6065 0.951 . S
H6041 C6067 0.950 . S
H6042 C6068 0.950 . S
H6043 C6070 0.950 . S
H6044 C6073 0.950 . S
H6045 C6074 0.950 . S
H6046 C6076 0.950 . S
H6047 C6077 0.950 . S
C6048 H6030 0.951 . S
C6048 C6049 1.366 . S
C6048 C6050 1.388 . S
C6049 C6048 1.366 . S
C6049 C6053 1.385 . S
C6050 H6031 0.951 . S
C6050 C6048 1.388 . S
C6050 C6051 1.366 . S
C6051 C6050 1.366 . S
C6051 C6052 1.414 . S
C6051 C6054 1.499 . S
C6052 H6032 0.950 . S
C6052 C6051 1.414 . S
C6052 C6053 1.374 . S
C6053 H6033 0.950 . S
C6053 C6049 1.385 . S
C6053 C6052 1.374 . S
C6054 C6051 1.499 . S
C6054 C6055 1.373 . S
C6054 C6056 1.389 . S
C6055 H6034 0.950 . S
C6055 C6054 1.373 . S
C6055 C6071 1.377 . S
C6056 C6054 1.389 . S
C6056 C6057 1.524 . S
C6056 C6070 1.377 . S
C6057 C6056 1.524 . S
C6057 C6058 1.397 . S
C6057 C6062 1.363 . S
C6058 H6035 0.950 . S
C6058 C6057 1.397 . S
C6058 C6059 1.334 . S
C6059 H6036 0.950 . S
C6059 C6058 1.334 . S
C6059 C6060 1.287 . S
C6060 C6059 1.287 . S
C6060 C6061 1.524 . S
C6060 H6079 0.913 . S
C6061 H6037 0.950 . S
C6061 C6060 1.524 . S
C6061 C6062 1.415 . S
C6062 H6038 0.950 . S
C6062 C6057 1.363 . S
C6062 C6061 1.415 . S
C6063 H6039 0.951 . S
C6063 C6064 1.366 . S
C6063 C6065 1.388 . S
C6064 C6063 1.366 . S
C6064 C6068 1.385 . S
C6065 H6040 0.951 . S
C6065 C6063 1.388 . S
C6065 C6066 1.366 . S
C6066 C6065 1.366 . S
C6066 C6067 1.414 . S
C6066 C6069 1.499 . S
C6067 H6041 0.950 . S
C6067 C6066 1.414 . S
C6067 C6068 1.374 . S
C6068 H6042 0.950 . S
C6068 C6064 1.385 . S
C6068 C6067 1.374 . S
C6069 C6066 1.499 . S
C6069 C6070 1.373 . S
C6069 C6071 1.389 . S
C6070 H6043 0.950 . S
C6070 C6056 1.377 . S
C6070 C6069 1.373 . S
C6071 C6055 1.377 . S
C6071 C6069 1.389 . S
C6071 C6072 1.524 . S
C6072 C6071 1.524 . S
C6072 C6073 1.397 . S
C6072 C6077 1.363 . S
C6073 H6044 0.950 . S
C6073 C6072 1.397 . S
C6073 C6074 1.334 . S
C6074 H6045 0.950 . S
C6074 C6073 1.334 . S
C6074 C6075 1.287 . S
C6075 C6074 1.287 . S
C6075 C6076 1.524 . S
C6075 H6078 0.999 . S
C6076 H6046 0.950 . S
C6076 C6075 1.524 . S
C6076 C6077 1.415 . S
C6077 H6047 0.950 . S
C6077 C6072 1.363 . S
C6077 C6076 1.415 . S
H6078 C6075 0.999 . S
H6079 C6060 0.913 . S
C1299 C7 0.377 . S
C1314 C1091 0.475 . S
C1349 C47 0.375 . S
C1364 C331 0.472 . S
C1399 C87 0.377 . S
C1414 C1011 0.475 . S
C1449 C411 0.474 . S
C1464 C127 0.377 . S
C1499 C167 0.376 . S
C1514 C1171 0.474 . S
C1549 C571 0.472 . S
C1564 C207 0.375 . S
C1599 C1251 0.474 . S
C1614 C247 0.377 . S
C1649 C287 0.374 . S
C1664 C491 0.471 . S
C1699 C336 0.374 . S
C1714 C762 0.472 . S
C1749 C376 0.376 . S
C1764 C2 0.474 . S
C1799 C682 0.474 . S
C1814 C416 0.377 . S
C1849 C82 0.475 . S
C1864 C456 0.377 . S
C1899 C496 0.377 . S
C1914 C842 0.475 . S
C1949 C536 0.375 . S
C1964 C242 0.473 . S
C1999 C576 0.375 . S
C2014 C922 0.473 . S
C2049 C162 0.475 . S
C2064 C616 0.378 . S
C2099 C451 0.472 . S
C2114 C647 0.374 . S
C2149 C971 0.473 . S
C2164 C687 0.376 . S
C2199 C371 0.474 . S
C2214 C727 0.377 . S
C2249 C767 0.374 . S
C2264 C1051 0.471 . S
C2299 C531 0.472 . S
C2314 C807 0.374 . S
C2349 C1211 0.474 . S
C2364 C847 0.376 . S
C2399 C611 0.475 . S
C2414 C887 0.377 . S
C2449 C927 0.375 . S
C2464 C1131 0.472 . S
C2499 C976 0.375 . S
C2514 C122 0.473 . S
C2549 C1016 0.374 . S
C2564 C642 0.472 . S
C2599 C1056 0.377 . S
C2614 C42 0.474 . S
C2649 C1096 0.374 . S
C2664 C722 0.471 . S
C2699 C202 0.474 . S
C2714 C1136 0.376 . S
C2749 C882 0.471 . S
C2764 C1176 0.374 . S
C2799 C1216 0.377 . S
C2814 C282 0.475 . S
C2849 C1256 0.374 . S
C2864 C802 0.471 . S
C2899 C19 2.322 . S
C2914 C739 2.322 . S
C2949 C779 2.322 . S
C2964 C59 2.323 . S
C2999 C99 2.323 . S
C3014 C659 2.323 . S
C3049 C139 2.322 . S
C3064 C699 2.322 . S
C3099 C899 2.323 . S
C3114 C179 2.323 . S
C3149 C219 2.323 . S
C3164 C939 2.323 . S
C3199 C819 2.322 . S
C3214 C259 2.322 . S
C3249 C299 2.323 . S
C3264 C859 2.323 . S
C3299 C1050 2.323 . S
C3314 C330 2.323 . S
C3349 C370 2.322 . S
C3364 C1090 2.323 . S
C3399 C410 2.322 . S
C3414 C970 2.322 . S
C3449 C450 2.322 . S
C3464 C1010 2.322 . S
C3499 C1210 2.323 . S
C3514 C490 2.322 . S
C3549 C1250 2.322 . S
C3564 C530 2.322 . S
C3599 C570 2.322 . S
C3614 C1130 2.322 . S
C3649 C610 2.322 . S
C3664 C1170 2.322 . S
C3699 C11 3.151 . S
C3714 C962 3.151 . S
C3749 C362 3.151 . S
C3764 C51 3.151 . S
C3799 C91 3.151 . S
C3814 C1042 3.151 . S
C3849 C131 3.151 . S
C3864 C442 3.151 . S
C3899 C1122 3.151 . S
C3914 C171 3.151 . S
C3949 C522 3.151 . S
C3964 C211 3.151 . S
C3999 C251 3.152 . S
C4014 C1202 3.152 . S
C4049 C291 3.151 . S
C4064 C602 3.151 . S
C4099 C651 3.152 . S
C4114 C322 3.152 . S
C4149 C731 3.151 . S
C4164 C402 3.151 . S
C4199 C811 3.151 . S
C4214 C482 3.151 . S
C4249 C562 3.151 . S
C4264 C891 3.151 . S
C4299 C691 3.151 . S
C4314 C1002 3.151 . S
C4349 C771 3.151 . S
C4364 C1082 3.151 . S
C4399 C1162 3.151 . S
C4414 C851 3.151 . S
C4449 C1242 3.151 . S
C4464 C931 3.151 . S
C4499 C10 4.632 . S
C4514 C210 4.632 1_545 S
C4549 C250 4.632 . S
C4564 C50 4.632 1_545 S
C4599 C290 4.632 1_565 S
C4614 C90 4.632 . S
C4649 C170 4.631 . S
C4664 C130 4.631 1_565 S
C4699 C339 4.632 . S
C4714 C539 4.632 1_565 S
C4749 C379 4.632 1_565 S
C4764 C579 4.632 . S
C4799 C619 4.632 1_545 S
C4814 C419 4.632 . S
C4849 C459 4.632 1_545 S
C4864 C499 4.632 . S
C4899 C650 4.632 . S
C4914 C850 4.632 . S
C4949 C690 4.632 . S
C4964 C890 4.632 . S
C4999 C730 4.632 . S
C5014 C930 4.632 . S
C5049 C810 4.632 . S
C5064 C770 4.632 . S
C5099 C979 4.632 . S
C5114 C1179 4.632 . S
C5149 C1019 4.631 . S
C5164 C1219 4.631 . S
C5199 C1259 4.632 . S
C5214 C1059 4.632 . S
C5249 C1099 4.632 . S
C5264 C1139 4.632 . S
C5299 C16 0.878 . S
C5314 C176 0.877 . S
C5349 C56 0.878 . S
C5364 C216 0.878 . S
C5399 C256 0.878 . S
C5414 C96 0.878 . S
C5449 C296 0.879 . S
C5464 C136 0.878 . S
C5499 C327 0.878 . S
C5514 C487 0.878 . S
C5549 C527 0.878 . S
C5564 C367 0.878 . S
C5599 C567 0.878 . S
C5614 C407 0.878 . S
C5649 C607 0.878 . S
C5664 C447 0.878 . S
C5699 C656 0.879 . S
C5714 C816 0.878 . S
C5749 C856 0.879 . S
C5764 C696 0.879 . S
C5799 C736 0.878 . S
C5814 C896 0.878 . S
C5849 C936 0.878 . S
C5864 C776 0.878 . S
C5899 C1127 0.877 . S
C5914 C967 0.878 . S
C5949 C1007 0.878 . S
C5964 C1167 0.878 . S
C5999 C1047 0.877 . S
C6014 C1207 0.878 . S
C6049 C1087 0.879 . S
C6064 C1247 0.879 . S
