# Generated by pormake.
# Topology umj, (4)-cn, num edge types: 1
# Building blocks:
#     Node 0, Type 0, BuildingBlock: ESEHIV_clean_sbu_0, # of connection points: 4
#     Node 1, Type 0, BuildingBlock: ESEHIV_clean_sbu_0, # of connection points: 4
#     Node 2, Type 0, BuildingBlock: ESEHIV_clean_sbu_0, # of connection points: 4
#     Node 3, Type 0, BuildingBlock: ESEHIV_clean_sbu_0, # of connection points: 4
#     Node 4, Type 0, BuildingBlock: ESEHIV_clean_sbu_0, # of connection points: 4
#     Node 5, Type 0, BuildingBlock: ESEHIV_clean_sbu_0, # of connection points: 4
#     Node 6, Type 0, BuildingBlock: ESEHIV_clean_sbu_0, # of connection points: 4
#     Node 7, Type 0, BuildingBlock: ESEHIV_clean_sbu_0, # of connection points: 4
#     Node 8, Type 0, BuildingBlock: ESEHIV_clean_sbu_0, # of connection points: 4
#     Node 9, Type 0, BuildingBlock: ESEHIV_clean_sbu_0, # of connection points: 4
#     Node 10, Type 0, BuildingBlock: ESEHIV_clean_sbu_0, # of connection points: 4
#     Node 11, Type 0, BuildingBlock: ESEHIV_clean_sbu_0, # of connection points: 4
#     Edge 12, Type (0, 0), None
#     Edge 13, Type (0, 0), None
#     Edge 14, Type (0, 0), None
#     Edge 15, Type (0, 0), None
#     Edge 16, Type (0, 0), None
#     Edge 17, Type (0, 0), None
#     Edge 18, Type (0, 0), None
#     Edge 19, Type (0, 0), None
#     Edge 20, Type (0, 0), None
#     Edge 21, Type (0, 0), None
#     Edge 22, Type (0, 0), None
#     Edge 23, Type (0, 0), None
#     Edge 24, Type (0, 0), None
#     Edge 25, Type (0, 0), None
#     Edge 26, Type (0, 0), None
#     Edge 27, Type (0, 0), None
#     Edge 28, Type (0, 0), None
#     Edge 29, Type (0, 0), None
#     Edge 30, Type (0, 0), None
#     Edge 31, Type (0, 0), None
#     Edge 32, Type (0, 0), None
#     Edge 33, Type (0, 0), None
#     Edge 34, Type (0, 0), None
#     Edge 35, Type (0, 0), None
# Relax obj value: 0.040
# Max RMSD: 0.120
# Mean RMSD: 0.094
data_MOF--net-umj--node1-ESEHIV_clean_sbu_0--edge1-none
_symmetry_space_group_name_H-M    P1
_symmetry_Int_Tables_number       1
_symmetry_cell_setting            triclinic
loop_
_symmetry_equiv_pos_as_xyz
'x, y, z'
_cell_length_a     12.465064
_cell_length_b     17.561655
_cell_length_c     39.698449
_cell_angle_alpha  90.937172
_cell_angle_beta   89.671122
_cell_angle_gamma 111.63964
loop_
_atom_site_label
_atom_site_type_symbol
_atom_site_fract_x
_atom_site_fract_y
_atom_site_fract_z
_atom_type_partial_charge
Cu0 Cu 0.18129 0.32037 0.11168 0.0
N1 N 0.09524 0.21164 0.09475 0.0
N2 N 1.03899 0.07421 0.08768 0.0
C3 C 0.12828 0.14576 0.09445 0.0
C4 C 0.9464 0.09528 0.08354 0.0
C5 C 0.9812 0.17956 0.08787 0.0
O6 O 0.34571 0.34012 0.11109 0.0
C7 C 0.20619 0.33916 0.18534 0.0
O8 O 0.319 0.3635 0.18343 0.0
H9 H 0.21423 0.1496 0.10107 0.0
H10 H 0.92562 0.2145 0.08778 0.0
N11 N 0.15022 0.41165 0.09349 0.0
N12 N 0.0783 0.51232 0.08855 0.0
C13 C 1.05531 0.43252 0.09654 0.0
C14 C 0.23427 0.48121 0.08313 0.0
C15 C 0.19068 0.54287 0.08012 0.0
C16 C 0.40901 0.32812 0.08791 0.0
O17 O 0.51739 0.34135 0.09482 0.0
H18 H 0.97337 0.39187 0.10635 0.0
H19 H 0.32359 0.48814 0.07985 0.0
O20 O 0.14303 0.31991 0.15894 0.0
H21 H 0.85944 0.05276 0.07864 0.0
H22 H 0.23823 0.60548 0.07284 0.0
Cu23 Cu 0.79075 0.10816 0.44888 0.0
N24 N 0.77869 0.12735 0.49499 0.0
N25 N 0.75543 0.09853 0.5497 0.0
C26 C 0.74346 0.06762 0.51805 0.0
C27 C 0.79927 0.18069 0.54671 0.0
C28 C 0.81293 0.19837 0.51274 0.0
O29 O 0.64385 1.02664 0.43339 0.0
C30 C 0.99908 0.08299 0.45731 0.0
O31 O 1.0221 0.14018 0.48084 0.0
H32 H 0.71578 1.00303 0.51177 0.0
H33 H 0.84938 0.25857 0.50185 0.0
N34 N 0.85937 0.20177 0.42267 0.0
N35 N 0.94942 0.25414 0.37448 0.0
C36 C 0.8534 0.19978 0.38877 0.0
C37 C 0.96245 0.26113 0.42989 0.0
C38 C 1.01846 0.29329 0.40022 0.0
C39 C 0.54406 1.02741 0.42702 0.0
O40 O 0.45955 0.95715 0.4213 0.0
H41 H 0.78661 0.15227 0.37482 0.0
H42 H 1.00043 0.27369 0.45476 0.0
O43 O 0.90102 0.05617 0.443 0.0
H44 H 0.8225 0.22444 0.56746 0.0
H45 H 0.10478 0.33877 0.39778 0.0
Cu46 Cu 0.75382 0.8235 0.84298 0.0
N47 N 0.90977 0.87476 0.85545 0.0
N48 N 1.07271 0.98458 0.8631 0.0
C49 C 0.95667 0.95676 0.86056 0.0
C50 C 0.10073 0.91752 0.85958 0.0
C51 C 0.99967 0.84965 0.85477 0.0
O52 O 0.74902 0.85991 0.79699 0.0
C53 C 0.68523 0.85651 0.90617 0.0
O54 O 0.76271 0.82655 0.915 0.0
H55 H 0.90665 0.99566 0.86025 0.0
H56 H 0.993 0.78754 0.84926 0.0
N57 N 0.67748 0.70805 0.84269 0.0
N58 N 0.60638 0.57206 0.85008 0.0
C59 C 0.6952 0.64399 0.85685 0.0
C60 C 0.57421 0.67464 0.82718 0.0
C61 C 0.53053 0.59131 0.83149 0.0
C62 C 0.76426 0.81772 0.77217 0.0
O63 O 0.77445 0.74721 0.77786 0.0
H64 H 0.76997 0.65009 0.87195 0.0
H65 H 0.53273 0.70938 0.81376 0.0
O66 O 0.66821 0.86395 0.87495 0.0
H67 H 0.18761 0.91773 0.859 0.0
H68 H 0.44909 0.54859 0.82196 0.0
Cu69 Cu 0.89809 0.74953 0.1125 0.0
N70 N 0.98376 0.85642 0.09497 0.0
N71 N 1.03974 0.9932 0.08763 0.0
C72 C 0.95138 0.92256 0.09546 0.0
C73 C 0.13112 0.97127 0.0819 0.0
C74 C 0.09647 0.88732 0.0864 0.0
O75 O 0.73339 0.72944 0.11067 0.0
C76 C 0.87266 0.74382 0.18651 0.0
O77 O 0.76025 0.7223 0.18453 0.0
H78 H 0.86671 0.91968 0.1033 0.0
H79 H 0.15143 0.85196 0.08514 0.0
N80 N 0.92932 0.65644 0.0948 0.0
N81 N 1.00148 0.5557 0.08896 0.0
C82 C 1.02497 0.63626 0.09681 0.0
C83 C 0.84448 0.5857 0.08524 0.0
C84 C 0.88816 0.52402 0.08171 0.0
C85 C 0.67466 0.74085 0.08643 0.0
O86 O 0.56597 0.7302 0.09165 0.0
H87 H 0.10802 0.67815 0.10569 0.0
H88 H 0.75476 0.57821 0.08277 0.0
O89 O 0.93538 0.75606 0.16004 0.0
H90 H 0.21712 1.01299 0.07564 0.0
H91 H 0.84008 0.46067 0.07484 0.0
Cu92 Cu 0.29226 1.01971 0.44997 0.0
N93 N 0.35026 1.00063 0.49072 0.0
N94 N 0.4215 1.03391 0.54258 0.0
C95 C 0.40144 0.06196 0.51287 0.0
C96 C 0.38222 0.95154 0.53912 0.0
C97 C 0.33824 0.93106 0.50682 0.0
O98 O 0.4206 0.10417 0.42752 0.0
C99 C 0.08898 0.05494 0.44511 0.0
O100 O 0.07735 1.01914 0.41538 0.0
H101 H 0.41603 0.1254 0.50793 0.0
H102 H 0.29519 0.86998 0.49651 0.0
N103 N 0.2135 0.92542 0.42346 0.0
N104 N 0.12565 0.86333 0.37587 0.0
C105 C 0.22102 0.92069 0.38967 0.0
C106 C 0.11081 0.86697 0.43129 0.0
C107 C 1.05584 0.82905 0.40191 0.0
C108 C 0.52193 0.10336 0.42349 0.0
O109 O 0.60466 0.16972 0.413 0.0
H110 H 0.28934 0.96463 0.37522 0.0
H111 H 1.07296 0.85872 0.4562 0.0
O112 O 0.17838 0.06606 0.46276 0.0
H113 H 0.3805 0.90926 0.55882 0.0
H114 H 0.97001 0.78258 0.39981 0.0
Cu115 Cu 0.46694 0.24171 0.85075 0.0
N116 N 0.30968 0.1802 0.85966 0.0
N117 N 0.14891 0.06785 0.86431 0.0
C118 C 0.26443 0.09729 0.85973 0.0
C119 C 0.11986 0.13454 0.86728 0.0
C120 C 0.21935 0.20384 0.86436 0.0
O121 O 0.48224 0.22812 0.80249 0.0
C122 C 0.55718 0.18743 0.90802 0.0
O123 O 0.62083 0.15199 0.92241 0.0
H124 H 0.31511 0.05959 0.85543 0.0
H125 H 0.22509 0.26683 0.86498 0.0
N126 N 0.53069 0.35506 0.86257 0.0
N127 N 0.59371 0.49226 0.86022 0.0
C128 C 0.50945 0.42018 0.85094 0.0
C129 C 0.63157 0.38818 0.87942 0.0
C130 C 0.67053 0.47224 0.87799 0.0
C131 C 0.54771 0.28069 0.78228 0.0
O132 O 0.62083 0.35089 0.79402 0.0
H133 H 0.43862 0.41459 0.83424 0.0
H134 H 0.67847 0.35345 0.89008 0.0
O135 O 0.55454 0.18956 0.87586 0.0
H136 H 1.03322 0.13357 0.87069 0.0
H137 H 0.7521 0.51476 0.88745 0.0
Cu138 Cu 0.83881 1.03045 0.67444 0.0
N139 N 0.77244 1.01959 0.63159 0.0
N140 N 0.74082 0.05376 0.57973 0.0
C141 C 0.79725 0.08035 0.60905 0.0
C142 C 0.67762 0.97357 0.58376 0.0
C143 C 0.69682 0.95271 0.61601 0.0
O144 O 0.78177 0.09941 0.70176 0.0
C145 C 0.07708 0.05144 0.67924 0.0
O146 O 1.03922 0.98105 0.6947 0.0
H147 H 0.85864 0.14183 0.61367 0.0
H148 H 0.65994 0.89274 0.62708 0.0
N149 N 0.80373 0.93149 0.69704 0.0
N150 N 0.7749 0.84631 0.74021 0.0
C151 C 0.78904 0.92267 0.73065 0.0
C152 C 0.79843 0.85816 0.68493 0.0
C153 C 0.78145 0.80551 0.71162 0.0
C154 C 0.67614 0.08629 0.7081 0.0
O155 O 0.65311 0.13384 0.73033 0.0
H156 H 0.79246 0.97214 0.74778 0.0
H157 H 0.81026 0.84491 0.65877 0.0
O158 O 1.00621 0.08331 0.66932 0.0
H159 H 0.62313 0.93302 0.56472 0.0
H160 H 0.77596 0.74254 0.71014 0.0
Cu161 Cu 0.71979 0.81346 0.98496 0.0
N162 N 0.87422 0.88209 0.98335 0.0
N163 N 1.0276 0.99726 0.98055 0.0
C164 C 0.91279 0.96227 0.97628 0.0
C165 C 1.06373 0.93786 0.99052 0.0
C166 C 0.96836 0.86633 0.99208 0.0
O167 O 0.673 0.79317 1.03182 0.0
C168 C 0.61781 0.88001 0.93203 0.0
O169 O 0.54662 0.91529 0.92274 0.0
H170 H 0.85752 0.99462 0.96928 0.0
H171 H 0.96808 0.80752 0.99969 0.0
N172 N 0.69413 0.71171 0.96533 0.0
N173 N 0.59713 0.58008 0.95365 0.0
C174 C 0.58947 0.65212 0.9626 0.0
C175 C 0.77063 0.67643 0.95756 0.0
C176 C 0.7107 0.59454 0.95062 0.0
C177 C 0.72423 0.7641 1.05285 0.0
O178 O 0.8143 0.74755 1.04343 0.0
H179 H 0.51055 0.6602 0.96989 0.0
H180 H 0.86328 0.7066 0.95893 0.0
O181 O 0.62472 0.86585 0.96326 0.0
H182 H 0.15192 0.94563 0.99629 0.0
H183 H 0.74792 0.54864 0.94602 0.0
Cu184 Cu 1.01155 0.7975 0.28093 0.0
N185 N 0.07818 0.90263 0.26494 0.0
N186 N 1.06181 1.01774 0.24866 0.0
C187 C 1.00664 0.94278 0.2605 0.0
C188 C 0.17385 1.02664 0.2458 0.0
C189 C 0.18352 0.95386 0.25532 0.0
O190 O 1.00497 0.80841 0.33011 0.0
C191 C 0.9334 0.75954 0.21891 0.0
O192 O 1.04634 0.78423 0.21717 0.0
H193 H 0.91636 0.91854 0.2675 0.0
H194 H 0.26129 0.94021 0.25603 0.0
N195 N 0.08014 0.72209 0.27493 0.0
N196 N 1.06406 0.59342 0.26761 0.0
C197 C 1.00884 0.6435 0.2752 0.0
C198 C 0.18557 0.72244 0.26716 0.0
C199 C 0.17586 0.64166 0.26278 0.0
C200 C 0.1056 0.84878 0.34225 0.0
O201 O 0.19265 0.87793 0.32132 0.0
H202 H 0.9175 0.62387 0.28054 0.0
H203 H 0.26224 0.77685 0.26412 0.0
O204 O 0.88554 0.75594 0.24795 0.0
H205 H 0.24348 0.08221 0.2385 0.0
H206 H 0.24448 0.62042 0.2561 0.0
Cu207 Cu 0.43303 0.09762 0.67336 0.0
N208 N 0.46069 0.11371 0.6273 0.0
N209 N 0.45519 0.08055 0.57269 0.0
C210 C 0.43509 0.05216 0.60434 0.0
C211 C 0.49545 0.16298 0.57568 0.0
C212 C 0.49868 0.18331 0.60952 0.0
O213 O 0.48643 1.01101 0.68551 0.0
C214 C 0.20119 0.09109 0.6727 0.0
O215 O 0.2429 0.16255 0.65802 0.0
H216 H 0.39707 0.98806 0.61072 0.0
H217 H 0.52226 0.2443 0.62017 0.0
N218 N 0.4975 0.19117 0.70051 0.0
N219 N 0.54281 0.26312 0.74871 0.0
C220 C 0.47206 0.19381 0.7334 0.0
C221 C 0.58512 0.26251 0.69452 0.0
C222 C 0.61274 0.30751 0.72429 0.0
C223 C 0.58235 1.01112 0.69641 0.0
O224 O 0.59284 0.94024 0.69971 0.0
H225 H 0.40797 0.14325 0.74625 0.0
H226 H 0.63042 0.27867 0.67084 0.0
O227 O 0.26811 0.05456 0.68084 0.0
H228 H 0.51676 0.20532 0.55498 0.0
H229 H 0.6826 0.36602 0.72802 0.0
Cu230 Cu 0.39671 0.2696 0.98498 0.0
N231 N 0.24683 0.19727 0.97745 0.0
N232 N 0.09598 0.08026 0.97613 0.0
C233 C 0.20201 0.12034 0.98885 0.0
C234 C 1.07238 0.13292 0.95598 0.0
C235 C 0.16677 0.20532 0.95657 0.0
O236 O 0.43037 0.28327 1.03269 0.0
C237 C 0.49072 0.22406 0.92925 0.0
O238 O 0.42014 0.25421 0.91552 0.0
H239 H 0.24745 0.09386 1.00528 0.0
H240 H 0.17824 0.25835 0.94147 0.0
N241 N 0.41674 0.37243 0.9687 0.0
N242 N 0.50693 0.50294 0.95529 0.0
C243 C 0.51861 0.43105 0.96106 0.0
C244 C 0.33845 0.40855 0.96776 0.0
C245 C 0.39393 0.48933 0.95928 0.0
C246 C 0.36649 0.30278 1.05357 0.0
O247 O 0.27024 0.30906 1.04328 0.0
H248 H 0.60013 0.42254 0.96234 0.0
H249 H 0.24899 0.37991 0.97507 0.0
O250 O 0.49871 0.22598 0.96117 0.0
H251 H 0.99555 0.11873 0.94073 0.0
H252 H 0.35553 0.53535 0.95828 0.0
Cu253 Cu 1.06692 0.30377 0.27947 0.0
N254 N 0.99961 0.19635 0.26478 0.0
N255 N 1.01642 0.07994 0.24892 0.0
C256 C 1.07078 0.15527 0.26138 0.0
C257 C 0.90517 0.07156 0.24467 0.0
C258 C 0.89532 0.14517 0.25393 0.0
O259 O 1.07193 0.30044 0.32875 0.0
C260 C 0.1459 0.33092 0.21761 0.0
O261 O 1.03316 0.30794 0.21576 0.0
H262 H 0.16049 0.17973 0.269 0.0
H263 H 0.81844 0.1599 0.25316 0.0
N264 N 0.99973 0.37899 0.27188 0.0
N265 N 1.01419 0.50743 0.26659 0.0
C266 C 1.07156 0.45722 0.26968 0.0
C267 C 0.89198 0.37901 0.27017 0.0
C268 C 0.90078 0.45956 0.26697 0.0
C269 C 0.97098 0.26175 0.34081 0.0
O270 O 0.88492 0.22804 0.31978 0.0
H271 H 0.16437 0.477 0.27191 0.0
H272 H 0.81374 0.32531 0.27213 0.0
O273 O 0.19368 0.33907 0.24677 0.0
H274 H 0.8364 1.01618 0.2362 0.0
H275 H 0.83001 0.4811 0.26589 0.0
loop_
_geom_bond_atom_site_label_1
_geom_bond_atom_site_label_2
_geom_bond_distance
_geom_bond_site_symmetry_2
_ccdc_geom_bond_type
Cu0 N1 1.999 . S
Cu0 O6 1.974 . S
Cu0 N11 1.985 . S
Cu0 O20 1.959 . S
N1 Cu0 1.999 . S
N1 C3 1.263 . S
N1 C5 1.389 . S
N2 C3 1.358 . S
N2 C4 1.400 . S
C3 N1 1.263 . S
C3 N2 1.358 . S
C3 H9 0.930 1_655 S
C4 N2 1.400 . S
C4 C5 1.351 . S
C4 H21 0.930 1_545 S
C5 N1 1.389 . S
C5 C4 1.351 . S
C5 H10 0.930 . S
O6 Cu0 1.974 . S
O6 C16 1.282 1_655 S
C7 O8 1.261 1_655 S
C7 O20 1.251 . S
O8 C7 1.261 1_455 S
H9 C3 0.930 1_455 S
H10 C5 0.930 . S
N11 Cu0 1.985 . S
N11 C13 1.335 . S
N11 C14 1.390 1_655 S
N12 C13 1.345 . S
N12 C15 1.336 1_655 S
C13 N11 1.335 . S
C13 N12 1.345 . S
C13 H18 0.930 . S
C14 N11 1.390 1_455 S
C14 C15 1.346 . S
C14 H19 0.930 . S
C15 N12 1.336 1_455 S
C15 C14 1.346 . S
C15 H22 0.929 . S
C16 O6 1.282 1_455 S
C16 O17 1.216 . S
O17 C16 1.216 . S
H18 C13 0.930 . S
H19 C14 0.930 . S
O20 Cu0 1.959 . S
O20 C7 1.251 . S
H21 C4 0.930 1_565 S
H22 C15 0.929 . S
Cu23 N24 1.999 . S
Cu23 O29 1.974 . S
Cu23 N34 1.985 . S
Cu23 O43 1.959 . S
N24 Cu23 1.999 . S
N24 C26 1.263 . S
N24 C28 1.389 . S
N25 C26 1.358 . S
N25 C27 1.400 . S
C26 N24 1.263 . S
C26 N25 1.358 . S
C26 H32 0.930 1_545 S
C27 N25 1.400 . S
C27 C28 1.351 . S
C27 H44 0.930 . S
C28 N24 1.389 . S
C28 C27 1.351 . S
C28 H33 0.930 . S
O29 Cu23 1.974 . S
O29 C39 1.282 . S
C30 O31 1.261 1_545 S
C30 O43 1.251 . S
O31 C30 1.261 1_565 S
H32 C26 0.930 1_565 S
H33 C28 0.930 . S
N34 Cu23 1.985 . S
N34 C36 1.335 . S
N34 C37 1.390 . S
N35 C36 1.345 . S
N35 C38 1.336 . S
C36 N34 1.335 . S
C36 N35 1.345 . S
C36 H41 0.930 . S
C37 N34 1.390 . S
C37 C38 1.346 . S
C37 H42 0.930 . S
C38 N35 1.336 . S
C38 C37 1.346 . S
C38 H45 0.929 . S
C39 O29 1.282 . S
C39 O40 1.216 1_545 S
O40 C39 1.216 1_565 S
H41 C36 0.930 . S
H42 C37 0.930 . S
O43 Cu23 1.959 . S
O43 C30 1.251 . S
H44 C27 0.930 . S
H45 C38 0.929 . S
Cu46 N47 1.999 . S
Cu46 O52 1.974 . S
Cu46 N57 1.985 . S
Cu46 O66 1.959 . S
N47 Cu46 1.999 . S
N47 C49 1.263 . S
N47 C51 1.389 . S
N48 C49 1.358 . S
N48 C50 1.400 1_655 S
C49 N47 1.263 . S
C49 N48 1.358 . S
C49 H55 0.930 . S
C50 N48 1.400 1_455 S
C50 C51 1.351 1_455 S
C50 H67 0.930 . S
C51 N47 1.389 . S
C51 C50 1.351 1_655 S
C51 H56 0.930 . S
O52 Cu46 1.974 . S
O52 C62 1.282 . S
C53 O54 1.261 . S
C53 O66 1.251 . S
O54 C53 1.261 . S
H55 C49 0.930 . S
H56 C51 0.930 . S
N57 Cu46 1.985 . S
N57 C59 1.335 . S
N57 C60 1.390 . S
N58 C59 1.345 . S
N58 C61 1.336 . S
C59 N57 1.335 . S
C59 N58 1.345 . S
C59 H64 0.930 . S
C60 N57 1.390 . S
C60 C61 1.346 . S
C60 H65 0.930 . S
C61 N58 1.336 . S
C61 C60 1.346 . S
C61 H68 0.929 . S
C62 O52 1.282 . S
C62 O63 1.216 . S
O63 C62 1.216 . S
H64 C59 0.930 . S
H65 C60 0.930 . S
O66 Cu46 1.959 . S
O66 C53 1.251 . S
H67 C50 0.930 . S
H68 C61 0.929 . S
Cu69 N70 1.999 . S
Cu69 O75 1.974 . S
Cu69 N80 1.985 . S
Cu69 O89 1.959 . S
N70 Cu69 1.999 . S
N70 C72 1.263 . S
N70 C74 1.389 . S
N71 C72 1.358 . S
N71 C73 1.400 . S
C72 N70 1.263 . S
C72 N71 1.358 . S
C72 H78 0.930 1_455 S
C73 N71 1.400 . S
C73 C74 1.351 . S
C73 H90 0.930 1_565 S
C74 N70 1.389 . S
C74 C73 1.351 . S
C74 H79 0.930 . S
O75 Cu69 1.974 . S
O75 C85 1.282 1_455 S
C76 O77 1.261 1_455 S
C76 O89 1.251 . S
O77 C76 1.261 1_655 S
H78 C72 0.930 1_655 S
H79 C74 0.930 . S
N80 Cu69 1.985 . S
N80 C82 1.335 . S
N80 C83 1.390 1_455 S
N81 C82 1.345 . S
N81 C84 1.336 1_455 S
C82 N80 1.335 . S
C82 N81 1.345 . S
C82 H87 0.930 . S
C83 N80 1.390 1_655 S
C83 C84 1.346 . S
C83 H88 0.930 . S
C84 N81 1.336 1_655 S
C84 C83 1.346 . S
C84 H91 0.929 . S
C85 O75 1.282 1_655 S
C85 O86 1.216 . S
O86 C85 1.216 . S
H87 C82 0.930 . S
H88 C83 0.930 . S
O89 Cu69 1.959 . S
O89 C76 1.251 . S
H90 C73 0.930 1_545 S
H91 C84 0.929 . S
Cu92 N93 1.999 . S
Cu92 O98 1.974 . S
Cu92 N103 1.985 . S
Cu92 O112 1.959 . S
N93 Cu92 1.999 . S
N93 C95 1.263 . S
N93 C97 1.389 . S
N94 C95 1.358 . S
N94 C96 1.400 . S
C95 N93 1.263 . S
C95 N94 1.358 . S
C95 H101 0.930 1_565 S
C96 N94 1.400 . S
C96 C97 1.351 . S
C96 H113 0.930 . S
C97 N93 1.389 . S
C97 C96 1.351 . S
C97 H102 0.930 . S
O98 Cu92 1.974 . S
O98 C108 1.282 . S
C99 O100 1.261 1_565 S
C99 O112 1.251 . S
O100 C99 1.261 1_545 S
H101 C95 0.930 1_545 S
H102 C97 0.930 . S
N103 Cu92 1.985 . S
N103 C105 1.335 . S
N103 C106 1.390 . S
N104 C105 1.345 . S
N104 C107 1.336 . S
C105 N103 1.335 . S
C105 N104 1.345 . S
C105 H110 0.930 . S
C106 N103 1.390 . S
C106 C107 1.346 . S
C106 H111 0.930 . S
C107 N104 1.336 . S
C107 C106 1.346 . S
C107 H114 0.929 . S
C108 O98 1.282 . S
C108 O109 1.216 1_565 S
O109 C108 1.216 1_545 S
H110 C105 0.930 . S
H111 C106 0.930 . S
O112 Cu92 1.959 . S
O112 C99 1.251 . S
H113 C96 0.930 . S
H114 C107 0.929 . S
Cu115 N116 1.999 . S
Cu115 O121 1.974 . S
Cu115 N126 1.985 . S
Cu115 O135 1.959 . S
N116 Cu115 1.999 . S
N116 C118 1.263 . S
N116 C120 1.389 . S
N117 C118 1.358 . S
N117 C119 1.400 1_455 S
C118 N116 1.263 . S
C118 N117 1.358 . S
C118 H124 0.930 . S
C119 N117 1.400 1_655 S
C119 C120 1.351 1_655 S
C119 H136 0.930 . S
C120 N116 1.389 . S
C120 C119 1.351 1_455 S
C120 H125 0.930 . S
O121 Cu115 1.974 . S
O121 C131 1.282 . S
C122 O123 1.261 . S
C122 O135 1.251 . S
O123 C122 1.261 . S
H124 C118 0.930 . S
H125 C120 0.930 . S
N126 Cu115 1.985 . S
N126 C128 1.335 . S
N126 C129 1.390 . S
N127 C128 1.345 . S
N127 C130 1.336 . S
C128 N126 1.335 . S
C128 N127 1.345 . S
C128 H133 0.930 . S
C129 N126 1.390 . S
C129 C130 1.346 . S
C129 H134 0.930 . S
C130 N127 1.336 . S
C130 C129 1.346 . S
C130 H137 0.929 . S
C131 O121 1.282 . S
C131 O132 1.216 . S
O132 C131 1.216 . S
H133 C128 0.930 . S
H134 C129 0.930 . S
O135 Cu115 1.959 . S
O135 C122 1.251 . S
H136 C119 0.930 . S
H137 C130 0.929 . S
Cu138 N139 1.999 . S
Cu138 O144 1.974 . S
Cu138 N149 1.985 . S
Cu138 O158 1.959 . S
N139 Cu138 1.999 . S
N139 C141 1.263 . S
N139 C143 1.389 . S
N140 C141 1.358 . S
N140 C142 1.400 . S
C141 N139 1.263 . S
C141 N140 1.358 . S
C141 H147 0.930 1_565 S
C142 N140 1.400 . S
C142 C143 1.351 . S
C142 H159 0.930 . S
C143 N139 1.389 . S
C143 C142 1.351 . S
C143 H148 0.930 . S
O144 Cu138 1.974 . S
O144 C154 1.282 . S
C145 O146 1.261 1_565 S
C145 O158 1.251 . S
O146 C145 1.261 1_545 S
H147 C141 0.930 1_545 S
H148 C143 0.930 . S
N149 Cu138 1.985 . S
N149 C151 1.335 . S
N149 C152 1.390 . S
N150 C151 1.345 . S
N150 C153 1.336 . S
C151 N149 1.335 . S
C151 N150 1.345 . S
C151 H156 0.930 . S
C152 N149 1.390 . S
C152 C153 1.346 . S
C152 H157 0.930 . S
C153 N150 1.336 . S
C153 C152 1.346 . S
C153 H160 0.929 . S
C154 O144 1.282 . S
C154 O155 1.216 1_565 S
O155 C154 1.216 1_545 S
H156 C151 0.930 . S
H157 C152 0.930 . S
O158 Cu138 1.959 . S
O158 C145 1.251 . S
H159 C142 0.930 . S
H160 C153 0.929 . S
Cu161 N162 1.999 . S
Cu161 O167 1.974 . S
Cu161 N172 1.985 . S
Cu161 O181 1.959 . S
N162 Cu161 1.999 . S
N162 C164 1.263 . S
N162 C166 1.389 . S
N163 C164 1.358 . S
N163 C165 1.400 . S
C164 N162 1.263 . S
C164 N163 1.358 . S
C164 H170 0.930 . S
C165 N163 1.400 . S
C165 C166 1.351 . S
C165 H182 0.930 1_565 S
C166 N162 1.389 . S
C166 C165 1.351 . S
C166 H171 0.930 . S
O167 Cu161 1.974 . S
O167 C177 1.282 . S
C168 O169 1.261 . S
C168 O181 1.251 . S
O169 C168 1.261 . S
H170 C164 0.930 . S
H171 C166 0.930 . S
N172 Cu161 1.985 . S
N172 C174 1.335 . S
N172 C175 1.390 . S
N173 C174 1.345 . S
N173 C176 1.336 . S
C174 N172 1.335 . S
C174 N173 1.345 . S
C174 H179 0.930 . S
C175 N172 1.390 . S
C175 C176 1.346 . S
C175 H180 0.930 . S
C176 N173 1.336 . S
C176 C175 1.346 . S
C176 H183 0.929 . S
C177 O167 1.282 . S
C177 O178 1.216 . S
O178 C177 1.216 . S
H179 C174 0.930 . S
H180 C175 0.930 . S
O181 Cu161 1.959 . S
O181 C168 1.251 . S
H182 C165 0.930 1_545 S
H183 C176 0.929 . S
Cu184 N185 1.999 . S
Cu184 O190 1.974 . S
Cu184 N195 1.985 . S
Cu184 O204 1.959 . S
N185 Cu184 1.999 . S
N185 C187 1.263 . S
N185 C189 1.389 . S
N186 C187 1.358 . S
N186 C188 1.400 . S
C187 N185 1.263 . S
C187 N186 1.358 . S
C187 H193 0.930 1_655 S
C188 N186 1.400 . S
C188 C189 1.351 . S
C188 H205 0.930 . S
C189 N185 1.389 . S
C189 C188 1.351 . S
C189 H194 0.930 . S
O190 Cu184 1.974 . S
O190 C200 1.282 1_655 S
C191 O192 1.261 1_655 S
C191 O204 1.251 . S
O192 C191 1.261 1_455 S
H193 C187 0.930 1_455 S
H194 C189 0.930 . S
N195 Cu184 1.985 . S
N195 C197 1.335 . S
N195 C198 1.390 1_655 S
N196 C197 1.345 . S
N196 C199 1.336 1_655 S
C197 N195 1.335 . S
C197 N196 1.345 . S
C197 H202 0.930 . S
C198 N195 1.390 1_455 S
C198 C199 1.346 . S
C198 H203 0.930 . S
C199 N196 1.336 1_455 S
C199 C198 1.346 . S
C199 H206 0.929 . S
C200 O190 1.282 1_455 S
C200 O201 1.216 . S
O201 C200 1.216 . S
H202 C197 0.930 . S
H203 C198 0.930 . S
O204 Cu184 1.959 . S
O204 C191 1.251 . S
H205 C188 0.930 . S
H206 C199 0.929 . S
Cu207 N208 1.999 . S
Cu207 O213 1.974 . S
Cu207 N218 1.985 . S
Cu207 O227 1.959 . S
N208 Cu207 1.999 . S
N208 C210 1.263 . S
N208 C212 1.389 . S
N209 C210 1.358 . S
N209 C211 1.400 . S
C210 N208 1.263 . S
C210 N209 1.358 . S
C210 H216 0.930 1_545 S
C211 N209 1.400 . S
C211 C212 1.351 . S
C211 H228 0.930 . S
C212 N208 1.389 . S
C212 C211 1.351 . S
C212 H217 0.930 . S
O213 Cu207 1.974 . S
O213 C223 1.282 . S
C214 O215 1.261 1_545 S
C214 O227 1.251 . S
O215 C214 1.261 1_565 S
H216 C210 0.930 1_565 S
H217 C212 0.930 . S
N218 Cu207 1.985 . S
N218 C220 1.335 . S
N218 C221 1.390 . S
N219 C220 1.345 . S
N219 C222 1.336 . S
C220 N218 1.335 . S
C220 N219 1.345 . S
C220 H225 0.930 . S
C221 N218 1.390 . S
C221 C222 1.346 . S
C221 H226 0.930 . S
C222 N219 1.336 . S
C222 C221 1.346 . S
C222 H229 0.929 . S
C223 O213 1.282 . S
C223 O224 1.216 1_545 S
O224 C223 1.216 1_565 S
H225 C220 0.930 . S
H226 C221 0.930 . S
O227 Cu207 1.959 . S
O227 C214 1.251 . S
H228 C211 0.930 . S
H229 C222 0.929 . S
Cu230 N231 1.999 . S
Cu230 O236 1.974 . S
Cu230 N241 1.985 . S
Cu230 O250 1.959 . S
N231 Cu230 1.999 . S
N231 C233 1.263 . S
N231 C235 1.389 . S
N232 C233 1.358 . S
N232 C234 1.400 . S
C233 N231 1.263 . S
C233 N232 1.358 . S
C233 H239 0.930 . S
C234 N232 1.400 . S
C234 C235 1.351 . S
C234 H251 0.930 1_545 S
C235 N231 1.389 . S
C235 C234 1.351 . S
C235 H240 0.930 . S
O236 Cu230 1.974 . S
O236 C246 1.282 . S
C237 O238 1.261 . S
C237 O250 1.251 . S
O238 C237 1.261 . S
H239 C233 0.930 . S
H240 C235 0.930 . S
N241 Cu230 1.985 . S
N241 C243 1.335 . S
N241 C244 1.390 . S
N242 C243 1.345 . S
N242 C245 1.336 . S
C243 N241 1.335 . S
C243 N242 1.345 . S
C243 H248 0.930 . S
C244 N241 1.390 . S
C244 C245 1.346 . S
C244 H249 0.930 . S
C245 N242 1.336 . S
C245 C244 1.346 . S
C245 H252 0.929 . S
C246 O236 1.282 . S
C246 O247 1.216 . S
O247 C246 1.216 . S
H248 C243 0.930 . S
H249 C244 0.930 . S
O250 Cu230 1.959 . S
O250 C237 1.251 . S
H251 C234 0.930 1_565 S
H252 C245 0.929 . S
Cu253 N254 1.999 . S
Cu253 O259 1.974 . S
Cu253 N264 1.985 . S
Cu253 O273 1.959 . S
N254 Cu253 1.999 . S
N254 C256 1.263 . S
N254 C258 1.389 . S
N255 C256 1.358 . S
N255 C257 1.400 . S
C256 N254 1.263 . S
C256 N255 1.358 . S
C256 H262 0.930 1_455 S
C257 N255 1.400 . S
C257 C258 1.351 . S
C257 H274 0.930 . S
C258 N254 1.389 . S
C258 C257 1.351 . S
C258 H263 0.930 . S
O259 Cu253 1.974 . S
O259 C269 1.282 1_455 S
C260 O261 1.255 1_455 S
C260 O273 1.257 . S
O261 C260 1.255 1_655 S
H262 C256 0.930 1_655 S
H263 C258 0.930 . S
N264 Cu253 1.985 . S
N264 C266 1.335 . S
N264 C267 1.390 1_455 S
N265 C266 1.345 . S
N265 C268 1.336 1_455 S
C266 N264 1.335 . S
C266 N265 1.345 . S
C266 H271 0.930 . S
C267 N264 1.390 1_655 S
C267 C268 1.346 . S
C267 H272 0.930 . S
C268 N265 1.336 1_655 S
C268 C267 1.346 . S
C268 H275 0.929 . S
C269 O259 1.282 1_655 S
C269 O270 1.216 . S
O270 C269 1.216 . S
H271 C266 0.930 . S
H272 C267 0.930 . S
O273 Cu253 1.959 . S
O273 C260 1.257 . S
H274 C257 0.930 . S
H275 C268 0.929 . S
C260 C7 1.717 1_455 S
N25 N140 1.373 1_545 S
C53 C168 1.732 . S
C76 C191 1.719 1_455 S
N209 N94 1.374 1_545 S
C122 C237 1.734 . S
C16 C246 1.574 1_554 S
N35 C269 1.651 . S
C62 N150 1.652 . S
C85 C177 1.575 1_554 S
C200 N104 1.650 . S
N219 C131 1.651 . S
N81 N12 1.400 1_455 S
C39 C108 1.547 1_545 S
N127 N58 1.397 . S
C223 C154 1.546 1_545 S
N242 N173 1.470 . S
N196 N265 1.396 1_655 S
N2 N71 1.757 1_645 S
C30 C99 1.970 1_645 S
N117 N48 1.620 1_445 S
C145 C214 1.974 1_665 S
N163 N232 1.887 1_665 S
N186 N255 1.629 1_665 S
