# Generated by pormake.
# Topology ukg, (4)-cn, num edge types: 1
# Building blocks:
#     Node 0, Type 0, BuildingBlock: QUQFOY_clean_sbu_1, # of connection points: 4
#     Node 1, Type 0, BuildingBlock: QUQFOY_clean_sbu_1, # of connection points: 4
#     Node 2, Type 0, BuildingBlock: QUQFOY_clean_sbu_1, # of connection points: 4
#     Node 3, Type 0, BuildingBlock: QUQFOY_clean_sbu_1, # of connection points: 4
#     Node 4, Type 0, BuildingBlock: QUQFOY_clean_sbu_1, # of connection points: 4
#     Node 5, Type 0, BuildingBlock: QUQFOY_clean_sbu_1, # of connection points: 4
#     Node 6, Type 0, BuildingBlock: QUQFOY_clean_sbu_1, # of connection points: 4
#     Node 7, Type 0, BuildingBlock: QUQFOY_clean_sbu_1, # of connection points: 4
#     Edge 8, Type (0, 0), BuildingBlock: FUNLAD_clean_linker_0, # of connection points: 2
#     Edge 9, Type (0, 0), BuildingBlock: FUNLAD_clean_linker_0, # of connection points: 2
#     Edge 10, Type (0, 0), BuildingBlock: FUNLAD_clean_linker_0, # of connection points: 2
#     Edge 11, Type (0, 0), BuildingBlock: FUNLAD_clean_linker_0, # of connection points: 2
#     Edge 12, Type (0, 0), BuildingBlock: FUNLAD_clean_linker_0, # of connection points: 2
#     Edge 13, Type (0, 0), BuildingBlock: FUNLAD_clean_linker_0, # of connection points: 2
#     Edge 14, Type (0, 0), BuildingBlock: FUNLAD_clean_linker_0, # of connection points: 2
#     Edge 15, Type (0, 0), BuildingBlock: FUNLAD_clean_linker_0, # of connection points: 2
#     Edge 16, Type (0, 0), BuildingBlock: FUNLAD_clean_linker_0, # of connection points: 2
#     Edge 17, Type (0, 0), BuildingBlock: FUNLAD_clean_linker_0, # of connection points: 2
#     Edge 18, Type (0, 0), BuildingBlock: FUNLAD_clean_linker_0, # of connection points: 2
#     Edge 19, Type (0, 0), BuildingBlock: FUNLAD_clean_linker_0, # of connection points: 2
#     Edge 20, Type (0, 0), BuildingBlock: FUNLAD_clean_linker_0, # of connection points: 2
#     Edge 21, Type (0, 0), BuildingBlock: FUNLAD_clean_linker_0, # of connection points: 2
#     Edge 22, Type (0, 0), BuildingBlock: FUNLAD_clean_linker_0, # of connection points: 2
#     Edge 23, Type (0, 0), BuildingBlock: FUNLAD_clean_linker_0, # of connection points: 2
# Relax obj value: 0.022
# Max RMSD: 0.119
# Mean RMSD: 0.119
data_MOF--net-ukg--node1-QUQFOY_clean_sbu_1--edge1-FUNLAD_clean_linker_0
_symmetry_space_group_name_H-M    P1
_symmetry_Int_Tables_number       1
_symmetry_cell_setting            triclinic
loop_
_symmetry_equiv_pos_as_xyz
'x, y, z'
_cell_length_a     37.193089
_cell_length_b     37.217783
_cell_length_c     43.678842
_cell_angle_alpha  90.137737
_cell_angle_beta   90.08638
_cell_angle_gamma 90.092121
loop_
_atom_site_label
_atom_site_type_symbol
_atom_site_fract_x
_atom_site_fract_y
_atom_site_fract_z
_atom_type_partial_charge
O0 O 0.97569 0.63165 0.18 0.0
Cd1 Cd 0.99418 0.66237 0.14424 0.0
Cd2 Cd 0.04363 0.68177 0.18871 0.0
O3 O 0.01845 0.64202 0.21401 0.0
O4 O 0.97137 0.63988 0.10744 0.0
O5 O 0.03002 0.63936 0.11572 0.0
C6 C 1.0029 0.62917 0.09927 0.0
C7 C 0.10588 0.68998 0.19035 0.0
C8 C 0.98962 0.62606 0.20613 0.0
C9 C 0.99265 0.73883 0.1648 0.0
O10 O 0.01647 0.72938 0.184 0.0
O11 O 0.98056 0.71653 0.14517 0.0
O12 O 0.086 0.69593 0.21392 0.0
O13 O 0.09066 0.67733 0.16599 0.0
O14 O 0.37884 0.47274 0.68209 0.0
Cd15 Cd 0.35014 0.49046 0.64472 0.0
Cd16 Cd 0.33099 0.54235 0.68652 0.0
O17 O 0.36817 0.51715 0.71443 0.0
O18 O 0.37244 0.46499 0.60924 0.0
O19 O 0.37542 0.52389 0.61546 0.0
C20 C 0.38451 0.49562 0.60007 0.0
C21 C 0.32487 0.6047 0.68464 0.0
C22 C 0.38347 0.48755 0.70805 0.0
C23 C 0.27288 0.49247 0.66272 0.0
O24 O 0.28251 0.51687 0.68136 0.0
O25 O 0.29549 0.47864 0.64431 0.0
O26 O 0.31707 0.58674 0.70891 0.0
O27 O 0.33861 0.58744 0.66179 0.0
O28 O 0.54653 0.86219 0.18235 0.0
Cd29 Cd 0.5214 0.84091 0.14444 0.0
Cd30 Cd 0.47147 0.8268 0.18678 0.0
O31 O 0.50067 0.86183 0.21425 0.0
O32 O 0.54519 0.86411 0.10861 0.0
O33 O 0.4879 0.87241 0.12009 0.0
C34 C 0.51515 0.88005 0.10293 0.0
C35 C 0.40876 0.82469 0.18575 0.0
C36 C 0.53316 0.86989 0.2083 0.0
C37 C 0.51393 0.7646 0.16034 0.0
O38 O 0.49339 0.7765 0.18123 0.0
O39 O 0.52658 0.78579 0.14022 0.0
O40 O 0.4267 0.81597 0.20986 0.0
O41 O 0.4264 0.8373 0.16268 0.0
O42 O 0.13827 0.04024 0.68556 0.0
Cd43 Cd 0.16571 0.02107 0.64806 0.0
Cd44 Cd 0.18415 0.96838 0.68908 0.0
O45 O 0.14808 0.99506 0.71712 0.0
O46 O 0.14137 0.04261 0.61172 0.0
O47 O 0.14072 0.98433 0.62168 0.0
C48 C 0.13006 0.01079 0.60482 0.0
C49 C 0.18887 0.90581 0.69024 0.0
C50 C 0.13362 0.02524 0.71137 0.0
C51 C 0.24316 0.01684 0.66421 0.0
O52 O 0.23324 0.99235 0.68256 0.0
O53 O 0.2205 0.03199 0.64663 0.0
O54 O 0.19738 0.92533 0.71352 0.0
O55 O 0.17562 0.92167 0.66651 0.0
O56 O 0.03776 0.36603 0.82888 0.0
Cd57 Cd 0.01312 0.34341 0.86628 0.0
Cd58 Cd 0.95914 0.33752 0.8264 0.0
O59 O 0.98892 0.3741 0.8011 0.0
O60 O 0.03488 0.36572 0.90359 0.0
O61 O 0.97813 0.37379 0.88972 0.0
C62 C 1.00436 0.38137 0.90815 0.0
C63 C 0.89639 0.33759 0.82766 0.0
C64 C 0.02253 0.3785 0.80511 0.0
C65 C 0.99838 0.26989 0.84652 0.0
O66 O 0.97791 0.28558 0.82749 0.0
O67 O 0.01426 0.28783 0.86737 0.0
O68 O 0.91375 0.33148 0.80272 0.0
O69 O 0.91464 0.34657 0.85168 0.0
O70 O 0.64851 0.5444 0.33135 0.0
Cd71 Cd 0.67185 0.52346 0.37008 0.0
Cd72 Cd 0.68272 0.4673 0.33172 0.0
O73 O 0.6448 0.4938 0.30515 0.0
O74 O 0.64963 0.54885 0.40558 0.0
O75 O 0.64192 0.4908 0.39642 0.0
C76 C 0.6344 0.51884 0.41276 0.0
C77 C 0.68573 0.40457 0.33231 0.0
C78 C 0.63772 0.52706 0.30798 0.0
C79 C 0.74704 0.51187 0.35273 0.0
O80 O 0.73358 0.48926 0.33411 0.0
O81 O 0.72719 0.52782 0.37213 0.0
O82 O 0.69217 0.42269 0.30787 0.0
O83 O 0.67519 0.42192 0.3563 0.0
O84 O 0.46544 0.14102 0.83967 0.0
Cd85 Cd 0.48352 0.16967 0.87702 0.0
Cd86 Cd 0.53701 0.18674 0.83533 0.0
O87 O 0.51081 0.14946 0.80787 0.0
O88 O 0.45856 0.14755 0.91277 0.0
O89 O 0.51733 0.14405 0.90568 0.0
C90 C 0.48928 0.13509 0.92139 0.0
C91 C 0.59949 0.19315 0.83617 0.0
C92 C 0.4806 0.1352 0.81408 0.0
C93 C 0.48868 0.24647 0.85914 0.0
O94 O 0.51281 0.23573 0.84078 0.0
O95 O 0.47343 0.22461 0.87734 0.0
O96 O 0.58087 0.20051 0.81211 0.0
O97 O 0.58287 0.17929 0.85927 0.0
O98 O 0.86211 0.96575 0.33659 0.0
Cd99 Cd 0.84027 0.98821 0.37537 0.0
Cd100 Cd 0.82591 0.04149 0.33597 0.0
O101 O 0.86172 0.01431 0.30774 0.0
O102 O 0.86607 0.96683 0.41106 0.0
O103 O 0.86954 0.02444 0.3988 0.0
C104 C 0.87971 0.99822 0.41616 0.0
C105 C 0.82239 0.10414 0.33765 0.0
C106 C 0.87019 0.98155 0.31176 0.0
C107 C 0.76386 0.99682 0.36078 0.0
O108 O 0.77559 0.01913 0.34121 0.0
O109 O 0.78528 0.98196 0.37958 0.0
O110 O 0.81396 0.08628 0.31339 0.0
O111 O 0.83561 0.08656 0.36051 0.0
C112 C 0.03033 0.42001 0.94991 0.0
C113 C 1.0004 0.40902 0.93248 0.0
C114 C 0.02746 0.44814 0.9711 0.0
C115 C 0.99451 0.46605 0.97536 0.0
C116 C 0.96437 0.45424 0.95867 0.0
C117 C 0.96729 0.42623 0.93735 0.0
C118 C 0.9902 0.49644 0.99741 0.0
C119 C 0.01747 0.51796 1.00668 0.0
C120 C 0.01321 0.54815 0.02899 0.0
C121 C 0.04367 0.56075 0.04486 0.0
C122 C 0.04069 0.58796 0.06693 0.0
C123 C 0.00713 0.60345 0.07348 0.0
H124 H 0.95592 0.55707 0.02221 0.0
C125 C 0.97691 0.59197 0.05669 0.0
C126 C 0.97988 0.56478 0.03466 0.0
H127 H 0.95067 0.60353 0.06094 0.0
H128 H 0.05622 0.40721 0.94688 0.0
H129 H 0.05107 0.45543 0.98421 0.0
H130 H 0.93854 0.46718 0.96171 0.0
H131 H 0.94367 0.41843 0.92439 0.0
H132 H 0.96322 0.50128 1.00583 0.0
H133 H 0.04441 0.51305 0.99815 0.0
H134 H 0.0698 0.54886 0.04074 0.0
H135 H 0.06453 0.59617 0.07939 0.0
C136 C 0.42947 0.52921 0.56801 0.0
C137 C 0.4101 0.49756 0.57408 0.0
C138 C 0.45631 0.52967 0.5455 0.0
C139 C 0.46431 0.49842 0.52855 0.0
C140 C 0.44386 0.46731 0.53382 0.0
C141 C 0.41728 0.46677 0.55642 0.0
C142 C 0.49332 0.49708 0.50503 0.0
C143 C 0.52241 0.51883 0.50528 0.0
C144 C 0.55176 0.51726 0.48204 0.0
C145 C 0.57331 0.54783 0.47771 0.0
C146 C 0.60063 0.54802 0.45575 0.0
C147 C 0.60743 0.51741 0.43776 0.0
H148 H 0.5442 0.46162 0.46793 0.0
C149 C 0.58674 0.48633 0.44275 0.0
C150 C 0.55923 0.48619 0.46465 0.0
H151 H 0.59139 0.46223 0.42939 0.0
H152 H 0.42449 0.55344 0.58111 0.0
H153 H 0.47053 0.55458 0.54147 0.0
H154 H 0.44904 0.44298 0.52089 0.0
H155 H 0.40277 0.44196 0.56038 0.0
H156 H 0.49082 0.47662 0.48741 0.0
H157 H 0.52485 0.53923 0.52296 0.0
H158 H 0.56855 0.572 0.49098 0.0
H159 H 0.61611 0.57241 0.45262 0.0
C160 C 0.48217 0.92938 0.0754 0.0
C161 C 0.51296 0.90786 0.07869 0.0
C162 C 0.48151 0.95757 0.05416 0.0
C163 C 0.51175 0.96488 0.03575 0.0
C164 C 0.54198 0.94254 0.0384 0.0
C165 C 0.54269 0.91455 0.05969 0.0
C166 C 0.51285 0.99487 0.01313 0.0
C167 C 0.49166 0.02424 0.01453 0.0
C168 C 0.49276 0.05385 0.99158 0.0
C169 C 0.46177 0.07468 0.98711 0.0
C170 C 0.46103 0.10176 0.96498 0.0
C171 C 0.49152 0.10908 0.94703 0.0
H172 H 0.5486 0.0475 0.97785 0.0
C173 C 0.5231 0.08934 0.95237 0.0
C174 C 0.52376 0.06201 0.97439 0.0
H175 H 0.5471 0.0944 0.93904 0.0
H176 H 0.45874 0.92484 0.08958 0.0
H177 H 0.45717 0.97325 0.0522 0.0
H178 H 0.5655 0.94716 0.02433 0.0
H179 H 0.56683 0.89844 0.0615 0.0
H180 H 0.53246 0.99264 0.99484 0.0
H181 H 0.47187 0.02656 0.03265 0.0
H182 H 0.43766 0.06938 1.00026 0.0
H183 H 0.43629 0.11654 0.96158 0.0
C184 C 0.92041 0.97388 0.45701 0.0
C185 C 0.90774 1.00334 0.44003 0.0
C186 C 0.94859 0.97801 0.47801 0.0
C187 C 0.96494 0.01178 0.48247 0.0
C188 C 0.95151 0.0414 0.46615 0.0
C189 C 0.9234 0.03723 0.44506 0.0
C190 C 0.99528 0.01749 0.50437 0.0
C191 C 0.01778 0.99119 0.5137 0.0
C192 C 0.04789 0.99685 0.53587 0.0
C193 C 0.06137 0.96714 0.55204 0.0
C194 C 0.08877 0.97136 0.57381 0.0
C195 C 0.10357 0.00544 0.57973 0.0
H196 H 0.0552 0.05418 0.52835 0.0
C197 C 0.09107 0.03497 0.56274 0.0
C198 C 0.06367 0.03076 0.54103 0.0
H199 H 0.10208 0.06157 0.56652 0.0
H200 H 0.90881 0.94741 0.45387 0.0
H201 H 0.95709 0.9547 0.49083 0.0
H202 H 0.96323 0.06782 0.46934 0.0
H203 H 0.91428 0.06052 0.43243 0.0
H204 H 0.99922 0.0447 0.51269 0.0
H205 H 0.01382 0.96399 0.50535 0.0
H206 H 0.05013 0.94061 0.54832 0.0
H207 H 0.09779 0.94803 0.58642 0.0
C208 C 0.16264 0.70851 0.16366 0.0
C209 C 0.14426 0.70039 0.19088 0.0
C210 C 0.19735 0.72319 0.16469 0.0
C211 C 0.21437 0.72959 0.19301 0.0
C212 C 0.19661 0.71972 0.22003 0.0
C213 C 0.16181 0.70567 0.21903 0.0
C214 C 0.25063 0.74612 0.1955 0.0
C215 C 0.26363 0.77045 0.17548 0.0
C216 C 0.29954 0.7878 0.17906 0.0
C217 C 0.3173 0.8011 0.15305 0.0
C218 C 0.35219 0.81513 0.15533 0.0
C219 C 0.36991 0.81626 0.18376 0.0
H220 H 0.30316 0.7831 0.22864 0.0
C221 C 0.35128 0.8051 0.21003 0.0
C222 C 0.31645 0.79127 0.20778 0.0
H223 H 0.36397 0.80612 0.23236 0.0
H224 H 0.14975 0.70474 0.14163 0.0
H225 H 0.2107 0.72948 0.14336 0.0
H226 H 0.20928 0.72393 0.24211 0.0
H227 H 0.14839 0.69954 0.24039 0.0
H228 H 0.26643 0.73877 0.21542 0.0
H229 H 0.24783 0.77756 0.15547 0.0
H230 H 0.30468 0.79942 0.13072 0.0
H231 H 0.3658 0.82356 0.13465 0.0
C232 C 0.30244 0.66136 0.70849 0.0
C233 C 0.31461 0.643 0.68235 0.0
C234 C 0.28749 0.6956 0.70605 0.0
C235 C 0.28388 0.71219 0.67728 0.0
C236 C 0.29799 0.69473 0.65139 0.0
C237 C 0.31313 0.6604 0.65386 0.0
C238 C 0.26589 0.74766 0.67362 0.0
C239 C 0.24106 0.7601 0.69347 0.0
C240 C 0.22477 0.7964 0.69143 0.0
C241 C 0.21526 0.81394 0.71869 0.0
C242 C 0.20216 0.84905 0.71815 0.0
C243 C 0.19743 0.86708 0.69023 0.0
H244 H 0.22474 0.80065 0.64184 0.0
C245 C 0.20489 0.84885 0.66276 0.0
C246 C 0.21869 0.81384 0.66333 0.0
H247 H 0.20155 0.86216 0.64092 0.0
H248 H 0.30368 0.64892 0.73086 0.0
H249 H 0.27869 0.70876 0.72683 0.0
H250 H 0.29621 0.70715 0.62904 0.0
H251 H 0.32232 0.64697 0.63329 0.0
H252 H 0.27325 0.76377 0.65389 0.0
H253 H 0.23346 0.74399 0.7131 0.0
H254 H 0.21924 0.80093 0.7406 0.0
H255 H 0.1965 0.86238 0.73968 0.0
C256 C 0.65476 0.21855 0.81208 0.0
C257 C 0.63762 0.20447 0.83808 0.0
C258 C 0.6885 0.23481 0.81446 0.0
C259 C 0.70584 0.23771 0.84303 0.0
C260 C 0.68973 0.22165 0.86867 0.0
C261 C 0.65586 0.2053 0.86629 0.0
C262 C 0.74077 0.2569 0.84663 0.0
C263 C 0.75116 0.2838 0.82793 0.0
C264 C 0.78705 0.3013 0.82949 0.0
C265 C 0.80222 0.31435 0.80229 0.0
C266 C 0.83718 0.32806 0.80203 0.0
C267 C 0.85746 0.3298 0.82914 0.0
H268 H 0.79527 0.29604 0.87853 0.0
C269 C 0.84145 0.3191 0.85679 0.0
C270 C 0.80658 0.30477 0.85697 0.0
H271 H 0.85648 0.32007 0.87804 0.0
H272 H 0.64168 0.21793 0.78991 0.0
H273 H 0.70071 0.24521 0.79383 0.0
H274 H 0.7028 0.22285 0.89084 0.0
H275 H 0.6434 0.19465 0.88675 0.0
H276 H 0.75817 0.24863 0.8653 0.0
H277 H 0.73357 0.29222 0.80944 0.0
H278 H 0.78757 0.31247 0.78088 0.0
H279 H 0.84877 0.3362 0.78038 0.0
C280 C 0.70411 0.34903 0.36065 0.0
C281 C 0.69404 0.36578 0.33314 0.0
C282 C 0.71809 0.31408 0.36039 0.0
C283 C 0.72178 0.2952 0.3326 0.0
C284 C 0.70958 0.31123 0.30547 0.0
C285 C 0.69626 0.34626 0.30566 0.0
C286 C 0.73837 0.25899 0.33065 0.0
C287 C 0.76452 0.24739 0.34964 0.0
C288 C 0.78257 0.21198 0.34571 0.0
C289 C 0.79732 0.19461 0.37134 0.0
C290 C 0.81225 0.1602 0.3686 0.0
C291 C 0.81291 0.14266 0.34007 0.0
H292 H 0.77613 0.20845 0.29627 0.0
C293 C 0.80028 0.16102 0.31414 0.0
C294 C 0.78547 0.19531 0.31686 0.0
H295 H 0.80086 0.14849 0.29173 0.0
H296 H 0.70275 0.36349 0.38217 0.0
H297 H 0.72621 0.3021 0.38187 0.0
H298 H 0.71167 0.29712 0.28382 0.0
H299 H 0.68858 0.35843 0.28412 0.0
H300 H 0.7298 0.24211 0.31169 0.0
H301 H 0.77291 0.26404 0.36882 0.0
H302 H 0.7961 0.20712 0.39374 0.0
H303 H 0.82182 0.14679 0.38902 0.0
C304 C 0.80906 0.49726 0.3353 0.0
C305 C 0.78535 0.52163 0.34924 0.0
C306 C 0.84327 0.50826 0.32614 0.0
C307 C 0.8542 0.5442 0.33008 0.0
C308 C 0.83172 0.56766 0.34651 0.0
C309 C 0.79755 0.55647 0.35607 0.0
C310 C 0.887 0.55878 0.31499 0.0
C311 C 0.8995 0.54515 0.2884 0.0
C312 C 0.92601 0.56375 0.26854 0.0
C313 C 0.92396 0.55777 0.23685 0.0
C314 C 0.9456 0.57714 0.21674 0.0
C315 C 0.9704 0.60249 0.22787 0.0
H316 H 0.95496 0.59247 0.30426 0.0
C317 C 0.97415 0.607 0.2597 0.0
C318 C 0.95198 0.58792 0.27991 0.0
H319 H 0.99313 0.6263 0.26893 0.0
H320 H 0.80065 0.46996 0.33037 0.0
H321 H 0.86047 0.48882 0.31499 0.0
H322 H 0.83967 0.59534 0.35031 0.0
H323 H 0.77989 0.57578 0.36692 0.0
H324 H 0.89776 0.58402 0.32356 0.0
H325 H 0.88641 0.52177 0.27848 0.0
H326 H 0.90448 0.53906 0.22746 0.0
H327 H 0.94233 0.57281 0.19236 0.0
C328 C 0.39719 0.47222 0.7628 0.0
C329 C 0.40484 0.46842 0.73143 0.0
C330 C 0.41406 0.45005 0.78437 0.0
C331 C 0.43921 0.42413 0.77486 0.0
C332 C 0.44828 0.42197 0.74374 0.0
C333 C 0.43101 0.44353 0.72222 0.0
C334 C 0.45594 0.39802 0.79617 0.0
C335 C 0.43931 0.38469 0.82114 0.0
C336 C 0.45324 0.35238 0.8373 0.0
C337 C 0.42884 0.32758 0.84988 0.0
C338 C 0.44064 0.2937 0.85961 0.0
C339 C 0.47702 0.28426 0.85679 0.0
H340 H 0.50996 0.36321 0.82964 0.0
C341 C 0.5018 0.31033 0.84704 0.0
C342 C 0.49013 0.34417 0.83774 0.0
H343 H 0.53015 0.30396 0.84525 0.0
H344 H 0.37711 0.49122 0.77052 0.0
H345 H 0.40712 0.453 0.8083 0.0
H346 H 0.46781 0.40248 0.73583 0.0
H347 H 0.43765 0.44018 0.69824 0.0
H348 H 0.4809 0.38587 0.78852 0.0
H349 H 0.41265 0.39424 0.82715 0.0
H350 H 0.40032 0.33344 0.85025 0.0
H351 H 0.421 0.2741 0.86711 0.0
C352 C 0.54349 0.89895 0.25989 0.0
C353 C 0.55711 0.88445 0.23248 0.0
C354 C 0.56699 0.91007 0.28327 0.0
C355 C 0.60438 0.90615 0.27973 0.0
C356 C 0.61778 0.8917 0.2524 0.0
C357 C 0.59455 0.8814 0.22895 0.0
C358 C 0.6306 0.91621 0.30386 0.0
C359 C 0.62699 0.94523 0.322 0.0
C360 C 0.65843 0.95949 0.33909 0.0
C361 C 0.66663 0.99614 0.33676 0.0
C362 C 0.70027 0.00892 0.34602 0.0
C363 C 0.72592 0.98539 0.35851 0.0
H364 H 0.67677 0.90823 0.35666 0.0
C365 C 0.71623 0.94948 0.36392 0.0
C366 C 0.68279 0.93654 0.35407 0.0
H367 H 0.73546 0.93078 0.37352 0.0
H368 H 0.51477 0.90141 0.26336 0.0
H369 H 0.5559 0.92078 0.3043 0.0
H370 H 0.64648 0.88845 0.2491 0.0
H371 H 0.60605 0.87003 0.20832 0.0
H372 H 0.65615 0.90203 0.30371 0.0
H373 H 0.60322 0.96202 0.31997 0.0
H374 H 0.64819 0.01437 0.32551 0.0
H375 H 0.70697 0.03682 0.34184 0.0
C376 C 0.03944 0.21651 0.84917 0.0
C377 C 0.00582 0.23128 0.84176 0.0
C378 C 0.04911 0.1825 0.83802 0.0
C379 C 0.02502 0.1626 0.8196 0.0
C380 C 0.99038 0.17631 0.81461 0.0
C381 C 0.98092 0.21024 0.82545 0.0
C382 C 0.03607 0.13061 0.8014 0.0
C383 C 0.06739 0.11292 0.80469 0.0
C384 C 0.08077 0.08768 0.78089 0.0
C385 C 0.1034 0.05913 0.78913 0.0
C386 C 0.11919 0.03746 0.76659 0.0
C387 C 0.1133 0.04459 0.73537 0.0
H388 H 0.05757 0.11634 0.74231 0.0
C389 C 0.09011 0.07271 0.7272 0.0
C390 C 0.07398 0.09395 0.74964 0.0
H391 H 0.08512 0.07897 0.70336 0.0
H392 H 0.0592 0.23222 0.8616 0.0
H393 H 0.07617 0.17323 0.8423 0.0
H394 H 0.97117 0.16163 0.80069 0.0
H395 H 0.95464 0.22078 0.81966 0.0
H396 H 0.01827 0.12266 0.7828 0.0
H397 H 0.08442 0.11779 0.82445 0.0
H398 H 0.10939 0.054 0.81301 0.0
H399 H 0.13722 0.01616 0.77359 0.0
C400 C 0.0821 0.38936 0.78077 0.0
C401 C 0.04485 0.3956 0.78118 0.0
C402 C 0.10357 0.40392 0.7578 0.0
C403 C 0.08841 0.42539 0.73475 0.0
C404 C 0.05131 0.43233 0.73539 0.0
C405 C 0.02957 0.41711 0.75816 0.0
C406 C 0.1117 0.44298 0.71162 0.0
C407 C 0.14136 0.4268 0.70051 0.0
C408 C 0.1708 0.44601 0.68436 0.0
C409 C 0.19653 0.42588 0.6682 0.0
C410 C 0.22876 0.4417 0.65859 0.0
C411 C 0.23604 0.47785 0.6655 0.0
H412 H 0.15821 0.49938 0.70168 0.0
C413 C 0.20922 0.49861 0.67964 0.0
C414 C 0.17692 0.48295 0.68893 0.0
H415 H 0.21402 0.52662 0.68514 0.0
H416 H 0.09478 0.37287 0.79809 0.0
H417 H 0.13225 0.399 0.75859 0.0
H418 H 0.03913 0.44932 0.71816 0.0
H419 H 1.00095 0.42245 0.75794 0.0
H420 H 0.10493 0.47014 0.70472 0.0
H421 H 0.14564 0.39849 0.7054 0.0
H422 H 0.19257 0.39735 0.66448 0.0
H423 H 0.24897 0.425 0.64783 0.0
C424 C 0.62436 0.58376 0.28008 0.0
C425 C 0.619 0.54658 0.2832 0.0
C426 C 0.60768 0.6027 0.25654 0.0
C427 C 0.58482 0.58502 0.23574 0.0
C428 C 0.5789 0.54796 0.23905 0.0
C429 C 0.59635 0.52872 0.2623 0.0
C430 C 0.56483 0.60585 0.21236 0.0
C431 C 0.57992 0.63406 0.19795 0.0
C432 C 0.55919 0.66234 0.18176 0.0
C433 C 0.57755 0.68597 0.16217 0.0
C434 C 0.56148 0.71799 0.15251 0.0
C435 C 0.52694 0.7272 0.16279 0.0
H436 H 0.50837 0.65293 0.20499 0.0
C437 C 0.50747 0.7022 0.18027 0.0
C438 C 0.52334 0.67005 0.18961 0.0
H439 H 0.48071 0.70853 0.18843 0.0
H440 H 0.64174 0.5983 0.29574 0.0
H441 H 0.61197 0.63145 0.25518 0.0
H442 H 0.56092 0.53389 0.22358 0.0
H443 H 0.59166 0.50009 0.26425 0.0
H444 H 0.53688 0.59887 0.20824 0.0
H445 H 0.60873 0.63837 0.20028 0.0
H446 H 0.60522 0.68075 0.15585 0.0
H447 H 0.57721 0.73675 0.13912 0.0
C448 C 0.46586 0.11897 0.75958 0.0
C449 C 0.46159 0.11291 0.79114 0.0
C450 C 0.44422 0.10066 0.7383 0.0
C451 C 0.41844 0.07562 0.74834 0.0
C452 C 0.41571 0.0683 0.77974 0.0
C453 C 0.43669 0.087 0.80092 0.0
C454 C 0.39313 0.05707 0.72726 0.0
C455 C 0.37992 0.07191 0.70143 0.0
C456 C 0.34817 0.05626 0.6854 0.0
C457 C 0.32281 0.07928 0.67183 0.0
C458 C 0.28929 0.06604 0.6623 0.0
C459 C 0.28073 0.02958 0.66628 0.0
H460 H 0.36044 1.00036 0.69507 0.0
C461 C 0.30743 0.00606 0.67697 0.0
C462 C 0.34093 0.01917 0.68612 0.0
H463 H 0.30181 0.97767 0.67968 0.0
H464 H 0.48489 0.13881 0.75143 0.0
H465 H 0.44755 0.10631 0.71417 0.0
H466 H 0.3963 0.04891 0.78808 0.0
H467 H 0.43301 0.08155 0.82507 0.0
H468 H 0.38135 0.03227 0.73568 0.0
H469 H 0.389 0.09843 0.69452 0.0
H470 H 0.32793 0.1079 0.67055 0.0
H471 H 0.26923 0.08475 0.65404 0.0
C472 C 0.99604 0.80222 0.18318 0.0
C473 C 0.97656 0.77493 0.16823 0.0
C474 C 0.97896 0.83359 0.19295 0.0
C475 C 0.94186 0.83824 0.18813 0.0
C476 C 0.92296 0.81207 0.17129 0.0
C477 C 0.94022 0.78082 0.16113 0.0
C478 C 0.92133 0.86643 0.20473 0.0
C479 C 0.93608 0.89696 0.21575 0.0
C480 C 0.91772 0.91908 0.23931 0.0
C481 C 0.92213 0.95657 0.23985 0.0
C482 C 0.90644 0.97725 0.26317 0.0
C483 C 0.88713 0.96053 0.28686 0.0
H484 H 0.89521 0.87359 0.26374 0.0
C485 C 0.88329 0.92297 0.28646 0.0
C486 C 0.89819 0.90253 0.26292 0.0
H487 H 0.86847 0.90924 0.30429 0.0
H488 H 0.02415 0.79845 0.18889 0.0
H489 H 0.99443 0.8527 0.20626 0.0
H490 H 0.89433 0.81488 0.16739 0.0
H491 H 0.92448 0.7602 0.14978 0.0
H492 H 0.89339 0.86049 0.21001 0.0
H493 H 0.96273 0.90523 0.20849 0.0
H494 H 0.93757 0.96986 0.22215 0.0
H495 H 0.9099 0.00615 0.26293 0.0
loop_
_geom_bond_atom_site_label_1
_geom_bond_atom_site_label_2
_geom_bond_distance
_geom_bond_site_symmetry_2
_ccdc_geom_bond_type
O0 Cd1 2.223 . S
O0 C8 1.315 . S
Cd1 O0 2.223 . S
Cd1 O4 2.297 . S
Cd1 O5 2.439 1_655 S
Cd1 O11 2.240 1_655 S
Cd2 O3 2.240 . S
Cd2 O10 2.223 . S
Cd2 O12 2.297 . S
Cd2 O13 2.439 . S
O3 Cd2 2.240 . S
O3 C8 1.279 1_455 S
O4 Cd1 2.297 . S
O4 C6 1.247 1_655 S
O5 Cd1 2.439 1_455 S
O5 C6 1.208 . S
C6 O4 1.247 1_455 S
C6 O5 1.208 . S
C7 O12 1.247 . S
C7 O13 1.208 . S
C8 O0 1.315 . S
C8 O3 1.279 1_655 S
C9 O10 1.315 1_655 S
C9 O11 1.280 1_655 S
O10 Cd2 2.223 . S
O10 C9 1.315 1_455 S
O11 Cd1 2.240 1_455 S
O11 C9 1.280 1_455 S
O12 Cd2 2.297 . S
O12 C7 1.247 . S
O13 Cd2 2.439 . S
O13 C7 1.208 . S
O14 Cd15 2.223 . S
O14 C22 1.315 . S
Cd15 O14 2.223 . S
Cd15 O18 2.297 . S
Cd15 O19 2.439 . S
Cd15 O25 2.240 . S
Cd16 O17 2.240 . S
Cd16 O24 2.223 . S
Cd16 O26 2.297 . S
Cd16 O27 2.439 . S
O17 Cd16 2.240 . S
O17 C22 1.279 . S
O18 Cd15 2.297 . S
O18 C20 1.247 . S
O19 Cd15 2.439 . S
O19 C20 1.208 . S
C20 O18 1.247 . S
C20 O19 1.208 . S
C21 O26 1.247 . S
C21 O27 1.208 . S
C22 O14 1.315 . S
C22 O17 1.279 . S
C23 O24 1.315 . S
C23 O25 1.279 . S
O24 Cd16 2.223 . S
O24 C23 1.315 . S
O25 Cd15 2.240 . S
O25 C23 1.279 . S
O26 Cd16 2.297 . S
O26 C21 1.247 . S
O27 Cd16 2.439 . S
O27 C21 1.208 . S
O28 Cd29 2.223 . S
O28 C36 1.315 . S
Cd29 O28 2.223 . S
Cd29 O32 2.297 . S
Cd29 O33 2.439 . S
Cd29 O39 2.240 . S
Cd30 O31 2.240 . S
Cd30 O38 2.223 . S
Cd30 O40 2.297 . S
Cd30 O41 2.439 . S
O31 Cd30 2.240 . S
O31 C36 1.279 . S
O32 Cd29 2.297 . S
O32 C34 1.247 . S
O33 Cd29 2.439 . S
O33 C34 1.208 . S
C34 O32 1.247 . S
C34 O33 1.208 . S
C35 O40 1.247 . S
C35 O41 1.208 . S
C36 O28 1.315 . S
C36 O31 1.279 . S
C37 O38 1.315 . S
C37 O39 1.279 . S
O38 Cd30 2.223 . S
O38 C37 1.315 . S
O39 Cd29 2.240 . S
O39 C37 1.279 . S
O40 Cd30 2.297 . S
O40 C35 1.247 . S
O41 Cd30 2.439 . S
O41 C35 1.208 . S
O42 Cd43 2.223 . S
O42 C50 1.315 . S
Cd43 O42 2.223 . S
Cd43 O46 2.297 . S
Cd43 O47 2.439 1_545 S
Cd43 O53 2.240 1_545 S
Cd44 O45 2.240 . S
Cd44 O52 2.223 . S
Cd44 O54 2.297 . S
Cd44 O55 2.439 . S
O45 Cd44 2.240 . S
O45 C50 1.279 1_565 S
O46 Cd43 2.297 . S
O46 C48 1.247 1_545 S
O47 Cd43 2.439 1_565 S
O47 C48 1.208 . S
C48 O46 1.247 1_565 S
C48 O47 1.208 . S
C49 O54 1.247 . S
C49 O55 1.208 . S
C50 O42 1.315 . S
C50 O45 1.279 1_545 S
C51 O52 1.316 1_545 S
C51 O53 1.280 1_545 S
O52 Cd44 2.223 . S
O52 C51 1.316 1_565 S
O53 Cd43 2.240 1_565 S
O53 C51 1.280 1_565 S
O54 Cd44 2.297 . S
O54 C49 1.247 . S
O55 Cd44 2.439 . S
O55 C49 1.208 . S
O56 Cd57 2.223 . S
O56 C64 1.315 . S
Cd57 O56 2.223 . S
Cd57 O60 2.297 . S
Cd57 O61 2.439 1_455 S
Cd57 O67 2.240 1_455 S
Cd58 O59 2.240 . S
Cd58 O66 2.223 . S
Cd58 O68 2.297 . S
Cd58 O69 2.439 . S
O59 Cd58 2.240 . S
O59 C64 1.279 1_655 S
O60 Cd57 2.297 . S
O60 C62 1.247 1_455 S
O61 Cd57 2.439 1_655 S
O61 C62 1.208 . S
C62 O60 1.247 1_655 S
C62 O61 1.208 . S
C63 O68 1.247 . S
C63 O69 1.208 . S
C64 O56 1.315 . S
C64 O59 1.279 1_455 S
C65 O66 1.315 1_455 S
C65 O67 1.280 1_455 S
O66 Cd58 2.223 . S
O66 C65 1.315 1_655 S
O67 Cd57 2.240 1_655 S
O67 C65 1.280 1_655 S
O68 Cd58 2.297 . S
O68 C63 1.247 . S
O69 Cd58 2.439 . S
O69 C63 1.208 . S
O70 Cd71 2.223 . S
O70 C78 1.315 . S
Cd71 O70 2.223 . S
Cd71 O74 2.297 . S
Cd71 O75 2.439 . S
Cd71 O81 2.240 . S
Cd72 O73 2.240 . S
Cd72 O80 2.223 . S
Cd72 O82 2.297 . S
Cd72 O83 2.439 . S
O73 Cd72 2.240 . S
O73 C78 1.279 . S
O74 Cd71 2.297 . S
O74 C76 1.247 . S
O75 Cd71 2.439 . S
O75 C76 1.208 . S
C76 O74 1.247 . S
C76 O75 1.208 . S
C77 O82 1.247 . S
C77 O83 1.208 . S
C78 O70 1.315 . S
C78 O73 1.279 . S
C79 O80 1.315 . S
C79 O81 1.279 . S
O80 Cd72 2.223 . S
O80 C79 1.315 . S
O81 Cd71 2.240 . S
O81 C79 1.279 . S
O82 Cd72 2.297 . S
O82 C77 1.247 . S
O83 Cd72 2.439 . S
O83 C77 1.208 . S
O84 Cd85 2.223 . S
O84 C92 1.315 . S
Cd85 O84 2.223 . S
Cd85 O88 2.297 . S
Cd85 O89 2.439 . S
Cd85 O95 2.240 . S
Cd86 O87 2.240 . S
Cd86 O94 2.223 . S
Cd86 O96 2.297 . S
Cd86 O97 2.439 . S
O87 Cd86 2.240 . S
O87 C92 1.279 . S
O88 Cd85 2.297 . S
O88 C90 1.247 . S
O89 Cd85 2.439 . S
O89 C90 1.208 . S
C90 O88 1.247 . S
C90 O89 1.208 . S
C91 O96 1.247 . S
C91 O97 1.208 . S
C92 O84 1.315 . S
C92 O87 1.279 . S
C93 O94 1.315 . S
C93 O95 1.279 . S
O94 Cd86 2.223 . S
O94 C93 1.315 . S
O95 Cd85 2.240 . S
O95 C93 1.279 . S
O96 Cd86 2.297 . S
O96 C91 1.247 . S
O97 Cd86 2.439 . S
O97 C91 1.208 . S
O98 Cd99 2.223 . S
O98 C106 1.315 . S
Cd99 O98 2.223 . S
Cd99 O102 2.297 . S
Cd99 O103 2.439 1_565 S
Cd99 O109 2.240 1_565 S
Cd100 O101 2.240 . S
Cd100 O108 2.223 . S
Cd100 O110 2.297 . S
Cd100 O111 2.439 . S
O101 Cd100 2.240 . S
O101 C106 1.279 1_545 S
O102 Cd99 2.297 . S
O102 C104 1.247 1_565 S
O103 Cd99 2.439 1_545 S
O103 C104 1.208 . S
C104 O102 1.247 1_545 S
C104 O103 1.208 . S
C105 O110 1.247 . S
C105 O111 1.208 . S
C106 O98 1.315 . S
C106 O101 1.279 1_565 S
C107 O108 1.316 1_565 S
C107 O109 1.280 1_565 S
O108 Cd100 2.223 . S
O108 C107 1.316 1_545 S
O109 Cd99 2.240 1_545 S
O109 C107 1.280 1_545 S
O110 Cd100 2.297 . S
O110 C105 1.247 . S
O111 Cd100 2.439 . S
O111 C105 1.208 . S
C112 C113 1.386 1_455 S
C112 C114 1.383 . S
C112 H128 0.951 . S
C113 C112 1.386 1_655 S
C113 C117 1.383 . S
C114 C112 1.383 . S
C114 C115 1.402 1_455 S
C114 H129 0.951 . S
C115 C114 1.402 1_655 S
C115 C116 1.375 . S
C115 C118 1.481 . S
C116 C115 1.375 . S
C116 C117 1.367 . S
C116 H130 0.951 . S
C117 C113 1.383 . S
C117 C116 1.367 . S
C117 H131 0.950 . S
C118 C115 1.481 . S
C118 C119 1.297 1_655 S
C118 H132 0.950 1_556 S
C119 C118 1.297 1_455 S
C119 C120 1.480 1_556 S
C119 H133 0.950 . S
C120 C119 1.480 1_554 S
C120 C121 1.386 . S
C120 C126 1.394 1_455 S
C121 C120 1.386 . S
C121 C122 1.369 . S
C121 H134 0.950 . S
C122 C121 1.369 . S
C122 C123 1.392 . S
C122 H135 0.951 . S
C123 C122 1.392 . S
C123 C125 1.384 1_455 S
H124 C126 0.949 . S
C125 C123 1.384 1_655 S
C125 C126 1.385 . S
C125 H127 0.950 . S
C126 C120 1.394 1_655 S
C126 H124 0.949 . S
C126 C125 1.385 . S
H127 C125 0.950 . S
H128 C112 0.951 . S
H129 C114 0.951 . S
H130 C116 0.951 . S
H131 C117 0.950 . S
H132 C118 0.950 1_554 S
H133 C119 0.950 . S
H134 C121 0.950 . S
H135 C122 0.951 . S
C136 C137 1.386 . S
C136 C138 1.383 . S
C136 H152 0.951 . S
C137 C136 1.386 . S
C137 C141 1.383 . S
C138 C136 1.383 . S
C138 C139 1.402 . S
C138 H153 0.951 . S
C139 C138 1.402 . S
C139 C140 1.375 . S
C139 C142 1.481 . S
C140 C139 1.375 . S
C140 C141 1.367 . S
C140 H154 0.951 . S
C141 C137 1.383 . S
C141 C140 1.367 . S
C141 H155 0.950 . S
C142 C139 1.481 . S
C142 C143 1.297 . S
C142 H156 0.950 . S
C143 C142 1.297 . S
C143 C144 1.479 . S
C143 H157 0.950 . S
C144 C143 1.479 . S
C144 C145 1.375 . S
C144 C150 1.404 . S
C145 C144 1.375 . S
C145 C146 1.369 . S
C145 H158 0.950 . S
C146 C145 1.369 . S
C146 C147 1.392 . S
C146 H159 0.951 . S
C147 C146 1.392 . S
C147 C149 1.384 . S
H148 C150 0.949 . S
C149 C147 1.384 . S
C149 C150 1.385 . S
C149 H151 0.950 . S
C150 C144 1.404 . S
C150 H148 0.949 . S
C150 C149 1.385 . S
H151 C149 0.950 . S
H152 C136 0.951 . S
H153 C138 0.951 . S
H154 C140 0.951 . S
H155 C141 0.950 . S
H156 C142 0.950 . S
H157 C143 0.950 . S
H158 C145 0.950 . S
H159 C146 0.951 . S
C160 C161 1.386 . S
C160 C162 1.383 . S
C160 H176 0.951 . S
C161 C160 1.386 . S
C161 C165 1.383 . S
C162 C160 1.383 . S
C162 C163 1.402 . S
C162 H177 0.951 . S
C163 C162 1.402 . S
C163 C164 1.375 . S
C163 C166 1.481 1_565 S
C164 C163 1.375 . S
C164 C165 1.367 . S
C164 H178 0.951 . S
C165 C161 1.383 . S
C165 C164 1.367 . S
C165 H179 0.950 . S
C166 C163 1.481 1_545 S
C166 C167 1.297 1_554 S
C166 H180 0.950 . S
C167 C166 1.297 1_556 S
C167 C168 1.479 . S
C167 H181 0.950 1_556 S
C168 C167 1.479 . S
C168 C169 1.375 . S
C168 C174 1.404 . S
C169 C168 1.375 . S
C169 C170 1.369 . S
C169 H182 0.950 . S
C170 C169 1.369 . S
C170 C171 1.392 . S
C170 H183 0.951 . S
C171 C170 1.392 . S
C171 C173 1.384 . S
H172 C174 0.949 . S
C173 C171 1.384 . S
C173 C174 1.385 . S
C173 H175 0.950 . S
C174 C168 1.404 . S
C174 H172 0.949 . S
C174 C173 1.385 . S
H175 C173 0.950 . S
H176 C160 0.951 . S
H177 C162 0.951 . S
H178 C164 0.951 . S
H179 C165 0.950 . S
H180 C166 0.950 . S
H181 C167 0.950 1_554 S
H182 C169 0.950 . S
H183 C170 0.951 . S
C184 C185 1.386 1_565 S
C184 C186 1.383 . S
C184 H200 0.951 . S
C185 C184 1.386 1_545 S
C185 C189 1.383 . S
C186 C184 1.383 . S
C186 C187 1.402 1_565 S
C186 H201 0.951 . S
C187 C186 1.402 1_545 S
C187 C188 1.375 . S
C187 C190 1.481 1_655 S
C188 C187 1.375 . S
C188 C189 1.367 . S
C188 H202 0.951 . S
C189 C185 1.383 . S
C189 C188 1.367 . S
C189 H203 0.950 . S
C190 C187 1.481 1_455 S
C190 C191 1.297 1_545 S
C190 H204 0.950 . S
C191 C190 1.297 1_565 S
C191 C192 1.479 . S
C191 H205 0.950 . S
C192 C191 1.479 . S
C192 C193 1.375 . S
C192 C198 1.404 1_565 S
C193 C192 1.375 . S
C193 C194 1.369 . S
C193 H206 0.950 . S
C194 C193 1.369 . S
C194 C195 1.392 . S
C194 H207 0.951 . S
C195 C194 1.392 . S
C195 C197 1.384 1_565 S
H196 C198 0.949 . S
C197 C195 1.384 1_545 S
C197 C198 1.385 . S
C197 H199 0.950 . S
C198 C192 1.404 1_545 S
C198 H196 0.949 . S
C198 C197 1.385 . S
H199 C197 0.950 . S
H200 C184 0.951 . S
H201 C186 0.951 . S
H202 C188 0.951 . S
H203 C189 0.950 . S
H204 C190 0.950 . S
H205 C191 0.950 . S
H206 C193 0.950 . S
H207 C194 0.951 . S
C208 C209 1.386 . S
C208 C210 1.383 . S
C208 H224 0.951 . S
C209 C208 1.386 . S
C209 C213 1.383 . S
C210 C208 1.383 . S
C210 C211 1.402 . S
C210 H225 0.951 . S
C211 C210 1.402 . S
C211 C212 1.375 . S
C211 C214 1.481 . S
C212 C211 1.375 . S
C212 C213 1.367 . S
C212 H226 0.951 . S
C213 C209 1.383 . S
C213 C212 1.367 . S
C213 H227 0.950 . S
C214 C211 1.481 . S
C214 C215 1.297 . S
C214 H228 0.950 . S
C215 C214 1.297 . S
C215 C216 1.479 . S
C215 H229 0.950 . S
C216 C215 1.479 . S
C216 C217 1.375 . S
C216 C222 1.404 . S
C217 C216 1.375 . S
C217 C218 1.369 . S
C217 H230 0.950 . S
C218 C217 1.369 . S
C218 C219 1.392 . S
C218 H231 0.951 . S
C219 C218 1.392 . S
C219 C221 1.384 . S
H220 C222 0.949 . S
C221 C219 1.384 . S
C221 C222 1.385 . S
C221 H223 0.950 . S
C222 C216 1.404 . S
C222 H220 0.949 . S
C222 C221 1.385 . S
H223 C221 0.950 . S
H224 C208 0.951 . S
H225 C210 0.951 . S
H226 C212 0.951 . S
H227 C213 0.950 . S
H228 C214 0.950 . S
H229 C215 0.950 . S
H230 C217 0.950 . S
H231 C218 0.951 . S
C232 C233 1.386 . S
C232 C234 1.383 . S
C232 H248 0.951 . S
C233 C232 1.386 . S
C233 C237 1.383 . S
C234 C232 1.383 . S
C234 C235 1.402 . S
C234 H249 0.951 . S
C235 C234 1.402 . S
C235 C236 1.375 . S
C235 C238 1.481 . S
C236 C235 1.375 . S
C236 C237 1.367 . S
C236 H250 0.951 . S
C237 C233 1.383 . S
C237 C236 1.367 . S
C237 H251 0.950 . S
C238 C235 1.481 . S
C238 C239 1.297 . S
C238 H252 0.950 . S
C239 C238 1.297 . S
C239 C240 1.479 . S
C239 H253 0.950 . S
C240 C239 1.479 . S
C240 C241 1.375 . S
C240 C246 1.404 . S
C241 C240 1.375 . S
C241 C242 1.369 . S
C241 H254 0.950 . S
C242 C241 1.369 . S
C242 C243 1.392 . S
C242 H255 0.951 . S
C243 C242 1.392 . S
C243 C245 1.384 . S
H244 C246 0.949 . S
C245 C243 1.384 . S
C245 C246 1.385 . S
C245 H247 0.950 . S
C246 C240 1.404 . S
C246 H244 0.949 . S
C246 C245 1.385 . S
H247 C245 0.950 . S
H248 C232 0.951 . S
H249 C234 0.951 . S
H250 C236 0.951 . S
H251 C237 0.950 . S
H252 C238 0.950 . S
H253 C239 0.950 . S
H254 C241 0.950 . S
H255 C242 0.951 . S
C256 C257 1.386 . S
C256 C258 1.383 . S
C256 H272 0.951 . S
C257 C256 1.386 . S
C257 C261 1.383 . S
C258 C256 1.383 . S
C258 C259 1.402 . S
C258 H273 0.951 . S
C259 C258 1.402 . S
C259 C260 1.375 . S
C259 C262 1.481 . S
C260 C259 1.375 . S
C260 C261 1.367 . S
C260 H274 0.951 . S
C261 C257 1.383 . S
C261 C260 1.367 . S
C261 H275 0.950 . S
C262 C259 1.481 . S
C262 C263 1.297 . S
C262 H276 0.950 . S
C263 C262 1.297 . S
C263 C264 1.479 . S
C263 H277 0.950 . S
C264 C263 1.479 . S
C264 C265 1.375 . S
C264 C270 1.404 . S
C265 C264 1.375 . S
C265 C266 1.369 . S
C265 H278 0.950 . S
C266 C265 1.369 . S
C266 C267 1.392 . S
C266 H279 0.951 . S
C267 C266 1.392 . S
C267 C269 1.384 . S
H268 C270 0.949 . S
C269 C267 1.384 . S
C269 C270 1.385 . S
C269 H271 0.950 . S
C270 C264 1.404 . S
C270 H268 0.949 . S
C270 C269 1.385 . S
H271 C269 0.950 . S
H272 C256 0.951 . S
H273 C258 0.951 . S
H274 C260 0.951 . S
H275 C261 0.950 . S
H276 C262 0.950 . S
H277 C263 0.950 . S
H278 C265 0.950 . S
H279 C266 0.951 . S
C280 C281 1.386 . S
C280 C282 1.383 . S
C280 H296 0.951 . S
C281 C280 1.386 . S
C281 C285 1.383 . S
C282 C280 1.383 . S
C282 C283 1.402 . S
C282 H297 0.951 . S
C283 C282 1.402 . S
C283 C284 1.375 . S
C283 C286 1.481 . S
C284 C283 1.375 . S
C284 C285 1.367 . S
C284 H298 0.951 . S
C285 C281 1.383 . S
C285 C284 1.367 . S
C285 H299 0.950 . S
C286 C283 1.481 . S
C286 C287 1.297 . S
C286 H300 0.950 . S
C287 C286 1.297 . S
C287 C288 1.479 . S
C287 H301 0.950 . S
C288 C287 1.479 . S
C288 C289 1.375 . S
C288 C294 1.404 . S
C289 C288 1.375 . S
C289 C290 1.369 . S
C289 H302 0.950 . S
C290 C289 1.369 . S
C290 C291 1.392 . S
C290 H303 0.951 . S
C291 C290 1.392 . S
C291 C293 1.384 . S
H292 C294 0.949 . S
C293 C291 1.384 . S
C293 C294 1.385 . S
C293 H295 0.950 . S
C294 C288 1.404 . S
C294 H292 0.949 . S
C294 C293 1.385 . S
H295 C293 0.950 . S
H296 C280 0.951 . S
H297 C282 0.951 . S
H298 C284 0.951 . S
H299 C285 0.950 . S
H300 C286 0.950 . S
H301 C287 0.950 . S
H302 C289 0.950 . S
H303 C290 0.951 . S
C304 C305 1.386 . S
C304 C306 1.383 . S
C304 H320 0.951 . S
C305 C304 1.386 . S
C305 C309 1.383 . S
C306 C304 1.383 . S
C306 C307 1.402 . S
C306 H321 0.951 . S
C307 C306 1.402 . S
C307 C308 1.375 . S
C307 C310 1.481 . S
C308 C307 1.375 . S
C308 C309 1.367 . S
C308 H322 0.951 . S
C309 C305 1.383 . S
C309 C308 1.367 . S
C309 H323 0.950 . S
C310 C307 1.481 . S
C310 C311 1.297 . S
C310 H324 0.950 . S
C311 C310 1.297 . S
C311 C312 1.479 . S
C311 H325 0.950 . S
C312 C311 1.479 . S
C312 C313 1.375 . S
C312 C318 1.404 . S
C313 C312 1.375 . S
C313 C314 1.369 . S
C313 H326 0.950 . S
C314 C313 1.369 . S
C314 C315 1.392 . S
C314 H327 0.951 . S
C315 C314 1.392 . S
C315 C317 1.384 . S
H316 C318 0.949 . S
C317 C315 1.384 . S
C317 C318 1.385 . S
C317 H319 0.950 . S
C318 C312 1.404 . S
C318 H316 0.949 . S
C318 C317 1.385 . S
H319 C317 0.950 . S
H320 C304 0.951 . S
H321 C306 0.951 . S
H322 C308 0.951 . S
H323 C309 0.950 . S
H324 C310 0.950 . S
H325 C311 0.950 . S
H326 C313 0.950 . S
H327 C314 0.951 . S
C328 C329 1.386 . S
C328 C330 1.383 . S
C328 H344 0.951 . S
C329 C328 1.386 . S
C329 C333 1.383 . S
C330 C328 1.383 . S
C330 C331 1.402 . S
C330 H345 0.951 . S
C331 C330 1.402 . S
C331 C332 1.375 . S
C331 C334 1.481 . S
C332 C331 1.375 . S
C332 C333 1.367 . S
C332 H346 0.951 . S
C333 C329 1.383 . S
C333 C332 1.367 . S
C333 H347 0.950 . S
C334 C331 1.481 . S
C334 C335 1.297 . S
C334 H348 0.950 . S
C335 C334 1.297 . S
C335 C336 1.479 . S
C335 H349 0.950 . S
C336 C335 1.479 . S
C336 C337 1.375 . S
C336 C342 1.404 . S
C337 C336 1.375 . S
C337 C338 1.369 . S
C337 H350 0.950 . S
C338 C337 1.369 . S
C338 C339 1.392 . S
C338 H351 0.951 . S
C339 C338 1.392 . S
C339 C341 1.384 . S
H340 C342 0.949 . S
C341 C339 1.384 . S
C341 C342 1.385 . S
C341 H343 0.950 . S
C342 C336 1.404 . S
C342 H340 0.949 . S
C342 C341 1.385 . S
H343 C341 0.950 . S
H344 C328 0.951 . S
H345 C330 0.951 . S
H346 C332 0.951 . S
H347 C333 0.950 . S
H348 C334 0.950 . S
H349 C335 0.950 . S
H350 C337 0.950 . S
H351 C338 0.951 . S
C352 C353 1.386 . S
C352 C354 1.383 . S
C352 H368 0.951 . S
C353 C352 1.386 . S
C353 C357 1.383 . S
C354 C352 1.383 . S
C354 C355 1.402 . S
C354 H369 0.951 . S
C355 C354 1.402 . S
C355 C356 1.375 . S
C355 C358 1.481 . S
C356 C355 1.375 . S
C356 C357 1.367 . S
C356 H370 0.951 . S
C357 C353 1.383 . S
C357 C356 1.367 . S
C357 H371 0.950 . S
C358 C355 1.481 . S
C358 C359 1.297 . S
C358 H372 0.950 . S
C359 C358 1.297 . S
C359 C360 1.479 . S
C359 H373 0.950 . S
C360 C359 1.479 . S
C360 C361 1.375 . S
C360 C366 1.404 . S
C361 C360 1.375 . S
C361 C362 1.360 1_565 S
C361 H374 0.932 1_565 S
C362 C361 1.360 1_545 S
C362 C363 1.380 1_545 S
C362 H375 0.972 . S
C363 C362 1.380 1_565 S
C363 C365 1.384 . S
H364 C366 0.949 . S
C365 C363 1.384 . S
C365 C366 1.385 . S
C365 H367 0.950 . S
C366 C360 1.404 . S
C366 H364 0.949 . S
C366 C365 1.385 . S
H367 C365 0.950 . S
H368 C352 0.951 . S
H369 C354 0.951 . S
H370 C356 0.951 . S
H371 C357 0.950 . S
H372 C358 0.950 . S
H373 C359 0.950 . S
H374 C361 0.932 1_545 S
H375 C362 0.972 . S
C376 C377 1.386 . S
C376 C378 1.383 . S
C376 H392 0.951 . S
C377 C376 1.386 . S
C377 C381 1.383 . S
C378 C376 1.383 . S
C378 C379 1.402 . S
C378 H393 0.951 . S
C379 C378 1.402 . S
C379 C380 1.375 . S
C379 C382 1.481 . S
C380 C379 1.375 . S
C380 C381 1.367 . S
C380 H394 0.951 . S
C381 C377 1.383 . S
C381 C380 1.367 . S
C381 H395 0.950 . S
C382 C379 1.481 . S
C382 C383 1.297 . S
C382 H396 0.950 . S
C383 C382 1.297 . S
C383 C384 1.479 . S
C383 H397 0.950 . S
C384 C383 1.479 . S
C384 C385 1.375 . S
C384 C390 1.404 . S
C385 C384 1.375 . S
C385 C386 1.369 . S
C385 H398 0.950 . S
C386 C385 1.369 . S
C386 C387 1.392 . S
C386 H399 0.951 . S
C387 C386 1.392 . S
C387 C389 1.384 . S
H388 C390 0.949 . S
C389 C387 1.384 . S
C389 C390 1.385 . S
C389 H391 0.950 . S
C390 C384 1.404 . S
C390 H388 0.949 . S
C390 C389 1.385 . S
H391 C389 0.950 . S
H392 C376 0.951 . S
H393 C378 0.951 . S
H394 C380 0.951 . S
H395 C381 0.950 . S
H396 C382 0.950 . S
H397 C383 0.950 . S
H398 C385 0.950 . S
H399 C386 0.951 . S
C400 C401 1.386 . S
C400 C402 1.383 . S
C400 H416 0.951 . S
C401 C400 1.386 . S
C401 C405 1.383 . S
C402 C400 1.383 . S
C402 C403 1.402 . S
C402 H417 0.951 . S
C403 C402 1.402 . S
C403 C404 1.375 . S
C403 C406 1.481 . S
C404 C403 1.375 . S
C404 C405 1.367 . S
C404 H418 0.951 . S
C405 C401 1.383 . S
C405 C404 1.367 . S
C405 H419 0.950 . S
C406 C403 1.481 . S
C406 C407 1.297 . S
C406 H420 0.950 . S
C407 C406 1.297 . S
C407 C408 1.479 . S
C407 H421 0.950 . S
C408 C407 1.479 . S
C408 C409 1.375 . S
C408 C414 1.404 . S
C409 C408 1.375 . S
C409 C410 1.369 . S
C409 H422 0.950 . S
C410 C409 1.369 . S
C410 C411 1.392 . S
C410 H423 0.951 . S
C411 C410 1.392 . S
C411 C413 1.384 . S
H412 C414 0.949 . S
C413 C411 1.384 . S
C413 C414 1.385 . S
C413 H415 0.950 . S
C414 C408 1.404 . S
C414 H412 0.949 . S
C414 C413 1.385 . S
H415 C413 0.950 . S
H416 C400 0.951 . S
H417 C402 0.951 . S
H418 C404 0.951 . S
H419 C405 0.950 . S
H420 C406 0.950 . S
H421 C407 0.950 . S
H422 C409 0.950 . S
H423 C410 0.951 . S
C424 C425 1.386 . S
C424 C426 1.383 . S
C424 H440 0.951 . S
C425 C424 1.386 . S
C425 C429 1.383 . S
C426 C424 1.383 . S
C426 C427 1.402 . S
C426 H441 0.951 . S
C427 C426 1.402 . S
C427 C428 1.375 . S
C427 C430 1.481 . S
C428 C427 1.375 . S
C428 C429 1.367 . S
C428 H442 0.951 . S
C429 C425 1.383 . S
C429 C428 1.367 . S
C429 H443 0.950 . S
C430 C427 1.481 . S
C430 C431 1.297 . S
C430 H444 0.950 . S
C431 C430 1.297 . S
C431 C432 1.479 . S
C431 H445 0.950 . S
C432 C431 1.479 . S
C432 C433 1.375 . S
C432 C438 1.404 . S
C433 C432 1.375 . S
C433 C434 1.369 . S
C433 H446 0.950 . S
C434 C433 1.369 . S
C434 C435 1.392 . S
C434 H447 0.951 . S
C435 C434 1.392 . S
C435 C437 1.384 . S
H436 C438 0.949 . S
C437 C435 1.384 . S
C437 C438 1.385 . S
C437 H439 0.950 . S
C438 C432 1.404 . S
C438 H436 0.949 . S
C438 C437 1.385 . S
H439 C437 0.950 . S
H440 C424 0.951 . S
H441 C426 0.951 . S
H442 C428 0.951 . S
H443 C429 0.950 . S
H444 C430 0.950 . S
H445 C431 0.950 . S
H446 C433 0.950 . S
H447 C434 0.951 . S
C448 C449 1.386 . S
C448 C450 1.383 . S
C448 H464 0.951 . S
C449 C448 1.386 . S
C449 C453 1.383 . S
C450 C448 1.383 . S
C450 C451 1.402 . S
C450 H465 0.951 . S
C451 C450 1.402 . S
C451 C452 1.375 . S
C451 C454 1.481 . S
C452 C451 1.375 . S
C452 C453 1.367 . S
C452 H466 0.951 . S
C453 C449 1.383 . S
C453 C452 1.367 . S
C453 H467 0.950 . S
C454 C451 1.481 . S
C454 C455 1.297 . S
C454 H468 0.950 . S
C455 C454 1.297 . S
C455 C456 1.479 . S
C455 H469 0.950 . S
C456 C455 1.479 . S
C456 C457 1.375 . S
C456 C462 1.404 . S
C457 C456 1.375 . S
C457 C458 1.369 . S
C457 H470 0.950 . S
C458 C457 1.369 . S
C458 C459 1.392 . S
C458 H471 0.951 . S
C459 C458 1.392 . S
C459 C461 1.384 1_545 S
H460 C462 0.949 1_565 S
C461 C459 1.384 1_565 S
C461 C462 1.385 1_565 S
C461 H463 0.950 . S
C462 C456 1.404 . S
C462 H460 0.949 1_545 S
C462 C461 1.385 1_545 S
H463 C461 0.950 . S
H464 C448 0.951 . S
H465 C450 0.951 . S
H466 C452 0.951 . S
H467 C453 0.950 . S
H468 C454 0.950 . S
H469 C455 0.950 . S
H470 C457 0.950 . S
H471 C458 0.951 . S
C472 C473 1.399 . S
C472 C474 1.395 . S
C472 H488 0.925 1_655 S
C473 C472 1.399 . S
C473 C477 1.383 . S
C474 C472 1.395 . S
C474 C475 1.402 . S
C474 H489 0.951 . S
C475 C474 1.402 . S
C475 C476 1.375 . S
C475 C478 1.481 . S
C476 C475 1.375 . S
C476 C477 1.367 . S
C476 H490 0.951 . S
C477 C473 1.383 . S
C477 C476 1.367 . S
C477 H491 0.950 . S
C478 C475 1.481 . S
C478 C479 1.297 . S
C478 H492 0.950 . S
C479 C478 1.297 . S
C479 C480 1.479 . S
C479 H493 0.950 . S
C480 C479 1.479 . S
C480 C481 1.375 . S
C480 C486 1.404 . S
C481 C480 1.375 . S
C481 C482 1.369 . S
C481 H494 0.950 . S
C482 C481 1.369 . S
C482 C483 1.392 . S
C482 H495 0.951 . S
C483 C482 1.392 . S
C483 C485 1.384 . S
H484 C486 0.949 . S
C485 C483 1.384 . S
C485 C486 1.385 . S
C485 H487 0.950 . S
C486 C480 1.404 . S
C486 H484 0.949 . S
C486 C485 1.385 . S
H487 C485 0.950 . S
H488 C472 0.925 1_455 S
H489 C474 0.951 . S
H490 C476 0.951 . S
H491 C477 0.950 . S
H492 C478 0.950 . S
H493 C479 0.950 . S
H494 C481 0.950 . S
H495 C482 0.951 . S
C113 C62 1.512 . S
C123 C6 1.468 . S
C137 C20 1.486 . S
C147 C76 1.476 . S
C161 C34 1.491 . S
C171 C90 1.468 . S
C185 C104 1.508 . S
C195 C48 1.490 . S
C209 C7 1.277 . S
C219 C35 1.300 . S
C233 C21 1.306 . S
C243 C49 1.257 . S
C257 C91 1.300 . S
C267 C63 1.302 . S
C281 C77 1.276 . S
C291 C105 1.257 . S
C305 C79 1.333 . S
C315 C8 1.305 . S
C329 C22 1.254 . S
C339 C93 1.337 . S
C353 C36 1.285 . S
C363 C107 1.349 . S
C377 C65 1.292 . S
C387 C50 1.317 . S
C401 C64 1.324 . S
C411 C23 1.354 . S
C425 C78 1.324 . S
C435 C37 1.353 . S
C449 C92 1.315 . S
C459 C51 1.337 . S
C473 C9 1.341 . S
C483 C106 1.339 . S
