# Generated by pormake.
# Topology uob, (4)-cn, num edge types: 1
# Building blocks:
#     Node 0, Type 0, BuildingBlock: KUFVIS_clean_sbu_0, # of connection points: 4
#     Node 1, Type 0, BuildingBlock: KUFVIS_clean_sbu_0, # of connection points: 4
#     Node 2, Type 0, BuildingBlock: KUFVIS_clean_sbu_0, # of connection points: 4
#     Node 3, Type 0, BuildingBlock: KUFVIS_clean_sbu_0, # of connection points: 4
#     Node 4, Type 0, BuildingBlock: KUFVIS_clean_sbu_0, # of connection points: 4
#     Node 5, Type 0, BuildingBlock: KUFVIS_clean_sbu_0, # of connection points: 4
#     Node 6, Type 0, BuildingBlock: KUFVIS_clean_sbu_0, # of connection points: 4
#     Node 7, Type 0, BuildingBlock: KUFVIS_clean_sbu_0, # of connection points: 4
#     Node 8, Type 0, BuildingBlock: KUFVIS_clean_sbu_0, # of connection points: 4
#     Node 9, Type 0, BuildingBlock: KUFVIS_clean_sbu_0, # of connection points: 4
#     Node 10, Type 0, BuildingBlock: KUFVIS_clean_sbu_0, # of connection points: 4
#     Node 11, Type 0, BuildingBlock: KUFVIS_clean_sbu_0, # of connection points: 4
#     Node 12, Type 0, BuildingBlock: KUFVIS_clean_sbu_0, # of connection points: 4
#     Node 13, Type 0, BuildingBlock: KUFVIS_clean_sbu_0, # of connection points: 4
#     Node 14, Type 0, BuildingBlock: KUFVIS_clean_sbu_0, # of connection points: 4
#     Node 15, Type 0, BuildingBlock: KUFVIS_clean_sbu_0, # of connection points: 4
#     Edge 16, Type (0, 0), BuildingBlock: EZIPEK_clean_linker_0, # of connection points: 2
#     Edge 17, Type (0, 0), BuildingBlock: EZIPEK_clean_linker_0, # of connection points: 2
#     Edge 18, Type (0, 0), BuildingBlock: EZIPEK_clean_linker_0, # of connection points: 2
#     Edge 19, Type (0, 0), BuildingBlock: EZIPEK_clean_linker_0, # of connection points: 2
#     Edge 20, Type (0, 0), BuildingBlock: EZIPEK_clean_linker_0, # of connection points: 2
#     Edge 21, Type (0, 0), BuildingBlock: EZIPEK_clean_linker_0, # of connection points: 2
#     Edge 22, Type (0, 0), BuildingBlock: EZIPEK_clean_linker_0, # of connection points: 2
#     Edge 23, Type (0, 0), BuildingBlock: EZIPEK_clean_linker_0, # of connection points: 2
#     Edge 24, Type (0, 0), BuildingBlock: EZIPEK_clean_linker_0, # of connection points: 2
#     Edge 25, Type (0, 0), BuildingBlock: EZIPEK_clean_linker_0, # of connection points: 2
#     Edge 26, Type (0, 0), BuildingBlock: EZIPEK_clean_linker_0, # of connection points: 2
#     Edge 27, Type (0, 0), BuildingBlock: EZIPEK_clean_linker_0, # of connection points: 2
#     Edge 28, Type (0, 0), BuildingBlock: EZIPEK_clean_linker_0, # of connection points: 2
#     Edge 29, Type (0, 0), BuildingBlock: EZIPEK_clean_linker_0, # of connection points: 2
#     Edge 30, Type (0, 0), BuildingBlock: EZIPEK_clean_linker_0, # of connection points: 2
#     Edge 31, Type (0, 0), BuildingBlock: EZIPEK_clean_linker_0, # of connection points: 2
#     Edge 32, Type (0, 0), BuildingBlock: EZIPEK_clean_linker_0, # of connection points: 2
#     Edge 33, Type (0, 0), BuildingBlock: EZIPEK_clean_linker_0, # of connection points: 2
#     Edge 34, Type (0, 0), BuildingBlock: EZIPEK_clean_linker_0, # of connection points: 2
#     Edge 35, Type (0, 0), BuildingBlock: EZIPEK_clean_linker_0, # of connection points: 2
#     Edge 36, Type (0, 0), BuildingBlock: EZIPEK_clean_linker_0, # of connection points: 2
#     Edge 37, Type (0, 0), BuildingBlock: EZIPEK_clean_linker_0, # of connection points: 2
#     Edge 38, Type (0, 0), BuildingBlock: EZIPEK_clean_linker_0, # of connection points: 2
#     Edge 39, Type (0, 0), BuildingBlock: EZIPEK_clean_linker_0, # of connection points: 2
#     Edge 40, Type (0, 0), BuildingBlock: EZIPEK_clean_linker_0, # of connection points: 2
#     Edge 41, Type (0, 0), BuildingBlock: EZIPEK_clean_linker_0, # of connection points: 2
#     Edge 42, Type (0, 0), BuildingBlock: EZIPEK_clean_linker_0, # of connection points: 2
#     Edge 43, Type (0, 0), BuildingBlock: EZIPEK_clean_linker_0, # of connection points: 2
#     Edge 44, Type (0, 0), BuildingBlock: EZIPEK_clean_linker_0, # of connection points: 2
#     Edge 45, Type (0, 0), BuildingBlock: EZIPEK_clean_linker_0, # of connection points: 2
#     Edge 46, Type (0, 0), BuildingBlock: EZIPEK_clean_linker_0, # of connection points: 2
#     Edge 47, Type (0, 0), BuildingBlock: EZIPEK_clean_linker_0, # of connection points: 2
# Relax obj value: 0.182
# Max RMSD: 0.227
# Mean RMSD: 0.227
data_MOF--net-uob--node1-KUFVIS_clean_sbu_0--edge1-EZIPEK_clean_linker_0
_symmetry_space_group_name_H-M    P1
_symmetry_Int_Tables_number       1
_symmetry_cell_setting            triclinic
loop_
_symmetry_equiv_pos_as_xyz
'x, y, z'
_cell_length_a     39.510707
_cell_length_b     39.787049
_cell_length_c     19.214209
_cell_angle_alpha  89.86635
_cell_angle_beta   90.01512
_cell_angle_gamma 90.291086
loop_
_atom_site_label
_atom_site_type_symbol
_atom_site_fract_x
_atom_site_fract_y
_atom_site_fract_z
_atom_type_partial_charge
Mn0 Mn 0.14907 0.06956 0.31401 0.0
Mn1 Mn 0.08373 0.12182 0.28134 0.0
C2 C 0.13159 0.10527 0.4011 0.0
C3 C 0.20882 0.06151 0.331 0.0
C4 C 0.07442 0.04675 0.30296 0.0
O5 O 0.15043 0.07237 0.20824 0.0
O6 O 0.10669 0.10828 0.19361 0.0
C7 C 0.11835 0.18169 0.22235 0.0
N8 N 0.09635 0.1678 0.26873 0.0
C9 C 0.07649 0.22236 0.30349 0.0
C10 C 0.09904 0.23726 0.2561 0.0
C11 C 0.12018 0.21682 0.21558 0.0
C12 C 0.07579 0.18721 0.30777 0.0
H13 H 0.13406 0.16603 0.19053 0.0
C14 C 0.13087 0.09017 0.17016 0.0
O15 O 0.18807 0.03632 0.32374 0.0
O16 O 0.19493 0.09035 0.3212 0.0
N17 N 0.05915 0.13717 0.36053 0.0
C18 C 0.0425 0.11896 0.41004 0.0
C19 C 0.02175 0.13561 0.45813 0.0
C20 C 0.01809 0.1707 0.45421 0.0
C21 C 0.03579 0.1889 0.40312 0.0
C22 C 0.05602 0.17091 0.35662 0.0
H23 H 0.04487 0.09195 0.41239 0.0
O24 O 0.14365 0.07579 0.41411 0.0
O25 O 0.12555 0.11204 0.33556 0.0
O26 O 0.10565 0.03911 0.31143 0.0
O27 O 0.06467 0.07658 0.29218 0.0
C28 C 0.03503 0.22422 0.3978 0.0
C29 C 0.05542 0.24096 0.34817 0.0
H30 H 0.10063 0.26435 0.25098 0.0
H31 H 0.13766 0.22811 0.17888 0.0
H32 H 1.00849 0.12144 0.49789 0.0
H33 H 1.00222 0.18346 0.49163 0.0
H34 H 0.0194 0.23883 0.43254 0.0
H35 H 0.05526 0.26816 0.34585 0.0
Mn36 Mn 0.93359 0.63436 0.55305 0.0
Mn37 Mn 0.87354 0.57708 0.51593 0.0
C38 C 0.90434 0.60879 0.64258 0.0
C39 C 0.94578 0.69151 0.58321 0.0
C40 C 0.94845 0.55985 0.52175 0.0
O41 O 0.92594 0.64344 0.44982 0.0
O42 O 0.88884 0.60139 0.43185 0.0
C43 C 0.82233 0.6279 0.47754 0.0
N44 N 0.83181 0.60115 0.51731 0.0
C45 C 0.77875 0.60152 0.57836 0.0
C46 C 0.7686 0.62922 0.53848 0.0
C47 C 0.79052 0.64254 0.48797 0.0
C48 C 0.81129 0.58879 0.56745 0.0
H49 H 0.83887 0.63809 0.43821 0.0
C50 C 0.90698 0.62585 0.41028 0.0
O51 O 0.96955 0.67098 0.56402 0.0
O52 O 0.91581 0.67902 0.57906 0.0
N53 N 0.85456 0.55071 0.58958 0.0
C54 C 0.86441 0.51933 0.60931 0.0
C55 C 0.8443 0.5007 0.65587 0.0
C56 C 0.81297 0.51343 0.67748 0.0
C57 C 0.80151 0.54398 0.64999 0.0
C58 C 0.82308 0.56172 0.605 0.0
H59 H 0.88744 0.50856 0.58944 0.0
O60 O 0.93417 0.6216 0.65099 0.0
O61 O 0.89201 0.61087 0.57977 0.0
O62 O 0.95905 0.59011 0.5312 0.0
O63 O 0.91695 0.55182 0.51751 0.0
C64 C 0.76854 0.5561 0.66107 0.0
C65 C 0.75743 0.58535 0.62669 0.0
H66 H 0.74394 0.64023 0.54563 0.0
H67 H 0.7828 0.66383 0.45673 0.0
H68 H 0.85256 0.47625 0.67368 0.0
H69 H 0.79714 0.49864 0.71201 0.0
H70 H 0.75104 0.54234 0.69365 0.0
H71 H 0.73197 0.59433 0.6355 0.0
Mn72 Mn 0.39291 0.45037 0.80253 0.0
Mn73 Mn 0.45975 0.39805 0.80312 0.0
C74 C 0.42181 0.44001 0.90441 0.0
C75 C 0.33395 0.45495 0.8279 0.0
C76 C 0.46441 0.47012 0.75127 0.0
O77 O 0.38743 0.42491 0.71051 0.0
O78 O 0.43129 0.38971 0.71941 0.0
C79 C 0.419 0.33643 0.82835 0.0
N80 N 0.44495 0.35726 0.84689 0.0
C81 C 0.45548 0.32493 0.95066 0.0
C82 C 0.42976 0.30245 0.9312 0.0
C83 C 0.41132 0.30835 0.86994 0.0
C84 C 0.4623 0.35226 0.90668 0.0
H85 H 0.40365 0.34168 0.78325 0.0
C86 C 0.40459 0.39988 0.68819 0.0
O87 O 0.34948 0.4779 0.79128 0.0
O88 O 0.35167 0.42887 0.84174 0.0
N89 N 0.48921 0.40302 0.88163 0.0
C90 C 0.51309 0.4272 0.89349 0.0
C91 C 0.53352 0.42518 0.95317 0.0
C92 C 0.52938 0.39821 -0.00028 0.0
C93 C 0.50516 0.37325 0.98561 0.0
C94 C 0.486 0.37626 0.9246 0.0
H95 H 0.51647 0.44798 0.85794 0.0
O96 O 0.40345 0.46667 0.89848 0.0
O97 O 0.42344 0.42123 0.84969 0.0
O98 O 0.43326 0.47829 0.76186 0.0
O99 O 0.47618 0.44059 0.76166 0.0
C100 C 0.49905 0.34571 0.03007 0.0
C101 C 0.47401 0.32173 0.01289 0.0
H102 H 0.4235 0.28098 0.9636 0.0
H103 H 0.39084 0.2916 0.85545 0.0
H104 H 0.55222 0.4445 0.96355 0.0
H105 H 0.54481 0.397 0.04625 0.0
H106 H 0.51322 0.34301 0.07795 0.0
H107 H 0.46895 0.30106 0.04807 0.0
Mn108 Mn 0.56186 0.86862 0.05716 0.0
Mn109 Mn 0.60245 0.9427 0.07944 0.0
C110 C 0.56423 0.89399 0.16495 0.0
C111 C 0.56186 0.80924 0.07804 0.0
C112 C 0.53287 0.93776 0.01466 0.0
O113 O 0.59199 0.87069 0.96967 0.0
O114 O 0.61678 0.92045 -0.00756 0.0
C115 C 0.67271 0.9189 0.09694 0.0
N116 N 0.64524 0.93523 0.12276 0.0
C117 C 0.67731 0.95595 0.22015 0.0
C118 C 0.70611 0.94003 0.19363 0.0
C119 C 0.70367 0.92091 0.13252 0.0
C120 C 0.64702 0.95263 0.18304 0.0
H121 H 0.67119 0.90504 0.04879 0.0
C122 C 0.61322 0.89425 0.95463 0.0
O123 O 0.53898 0.82322 0.03887 0.0
O124 O 0.58673 0.8286 0.09462 0.0
N125 N 0.59069 0.96618 0.16279 0.0
C126 C 0.56137 0.98249 0.17821 0.0
C127 C 0.55918 1.00134 0.23975 0.0
C128 C 0.58748 1.00412 0.2836 0.0
C129 C 0.61768 0.98799 0.26553 0.0
C130 C 0.61805 0.96872 0.20461 0.0
H131 H 0.53974 0.98106 0.14397 0.0
O132 O 0.53997 0.87347 0.14972 0.0
O133 O 0.58551 0.90043 0.11554 0.0
O134 O 0.52984 0.90551 0.01615 0.0
O135 O 0.55893 0.95336 0.03667 0.0
C136 C 0.64781 0.99136 0.30409 0.0
C137 C 0.67771 0.9759 0.28065 0.0
H138 H 0.73032 0.94262 0.21927 0.0
H139 H 0.72579 0.90844 0.112 0.0
H140 H 0.53588 0.01401 0.25293 0.0
H141 H 0.58594 0.0192 0.33033 0.0
H142 H 0.64847 1.0065 0.35087 0.0
H143 H 0.701 0.97994 0.309 0.0
Mn144 Mn 0.15097 0.44913 0.02024 0.0
Mn145 Mn 0.07843 0.40344 0.01812 0.0
C146 C 0.12304 0.43922 0.91926 0.0
C147 C 0.20981 0.45191 -0.00441 0.0
C148 C 0.07984 0.47744 0.05002 0.0
O149 O 0.15272 0.42662 0.11608 0.0
O150 O 0.10137 0.40169 0.10912 0.0
C151 C 0.10922 0.33626 0.03511 0.0
N152 N 0.08958 0.35783 -0.00214 0.0
C153 C 0.06935 0.313 0.92498 0.0
C154 C 0.08936 0.29029 0.96253 0.0
C155 C 0.10977 0.30207 0.01722 0.0
C156 C 0.07106 0.34702 0.94306 0.0
H157 H 0.12386 0.34493 0.07893 0.0
C158 C 0.12845 0.40922 0.142 0.0
O159 O 0.19501 0.47542 0.0313 0.0
O160 O 0.19161 0.42544 0.98528 0.0
N161 N 0.05287 0.4024 0.93351 0.0
C162 C 0.03162 0.42642 0.90815 0.0
C163 C 1.01038 0.41891 0.85168 0.0
C164 C 1.00961 0.38622 0.82453 0.0
C165 C 0.02981 0.36129 0.85473 0.0
C166 C 0.05175 0.37064 0.90876 0.0
H167 H 0.03091 0.45123 0.93071 0.0
O168 O 0.14344 0.46453 0.92446 0.0
O169 O 0.11936 0.41982 0.97309 0.0
O170 O 0.11225 0.48094 0.05353 0.0
O171 O 0.06508 0.4497 0.03619 0.0
C172 C 0.02735 0.32714 0.83644 0.0
C173 C 0.04665 0.30299 0.87239 0.0
H174 H 0.08899 0.26373 0.95031 0.0
H175 H 0.12516 0.28469 0.04673 0.0
H176 H 0.99405 0.43807 0.83022 0.0
H177 H 0.99248 0.38026 0.78222 0.0
H178 H 1.01004 0.31903 0.796 0.0
H179 H 0.0433 0.27668 0.86013 0.0
Mn180 Mn 0.57449 0.61902 0.21904 0.0
Mn181 Mn 0.63105 0.5583 0.19017 0.0
C182 C 0.58739 0.60355 0.10769 0.0
C183 C 0.56365 0.67765 0.21249 0.0
C184 C 0.56037 0.54298 0.24379 0.0
O185 O 0.60003 0.61815 0.31117 0.0
O186 O 0.63589 0.57533 0.28698 0.0
C187 C 0.69482 0.59725 0.20008 0.0
N188 N 0.67333 0.57744 0.1626 0.0
C189 C 0.71351 0.57294 0.0694 0.0
C190 C 0.73606 0.59342 0.10667 0.0
C191 C 0.72657 0.6058 0.17219 0.0
C192 C 0.68216 0.56551 0.09949 0.0
H193 H 0.68785 0.60632 0.25098 0.0
C194 C 0.62348 0.5975 0.32802 0.0
O195 O 0.54225 0.65736 0.24281 0.0
O196 O 0.59209 0.66476 0.19523 0.0
N197 N 0.6286 0.54118 0.0972 0.0
C198 C 0.60159 0.52839 0.06187 0.0
C199 C 0.60598 0.51622 -0.00601 0.0
C200 C 0.63784 0.51868 0.96207 0.0
C201 C 0.66443 0.53476 -0.00273 0.0
C202 C 0.65846 0.54631 0.06482 0.0
H203 H 0.57658 0.52952 0.08369 0.0
O204 O 0.55801 0.61555 0.12295 0.0
O205 O 0.60729 0.59807 0.1602 0.0
O206 O 0.55014 0.57371 0.24611 0.0
O207 O 0.58935 0.53514 0.21961 0.0
C208 C 0.69637 0.54056 0.96738 0.0
C209 C 0.72092 0.55949 0.00364 0.0
H210 H 0.76065 0.59987 0.08541 0.0
H211 H 0.74381 0.62161 0.20139 0.0
H212 H 0.58475 0.50559 0.96594 0.0
H213 H 0.64116 0.50955 0.90945 0.0
H214 H 0.70207 0.53074 0.91644 0.0
H215 H 0.74539 0.56371 0.98072 0.0
Mn216 Mn 0.38962 0.07376 0.53514 0.0
Mn217 Mn 0.45968 0.12184 0.5342 0.0
C218 C 0.41952 0.08094 0.43322 0.0
C219 C 0.33152 0.06819 0.50264 0.0
C220 C 0.45931 0.0497 0.58507 0.0
O221 O 0.38318 0.10118 0.62378 0.0
O222 O 0.43301 0.12804 0.62052 0.0
C223 C 0.42711 0.18868 0.53083 0.0
N224 N 0.44822 0.16575 0.50141 0.0
C225 C 0.46807 0.20639 0.41794 0.0
C226 C 0.4472 0.23059 0.44848 0.0
C227 C 0.42609 0.22152 0.50423 0.0
C228 C 0.46726 0.17376 0.44529 0.0
H229 H 0.41156 0.1822 0.57506 0.0
C230 C 0.40466 0.12187 0.64975 0.0
O231 O 0.3457 0.04654 0.54416 0.0
O232 O 0.3496 0.09436 0.48916 0.0
N233 N 0.48829 0.1194 0.45391 0.0
C234 C 0.51216 0.09586 0.43949 0.0
C235 C 0.53408 0.10048 0.38277 0.0
C236 C 0.53308 0.13056 0.34469 0.0
C237 C 0.51061 0.1559 0.36469 0.0
C238 C 0.48814 0.14909 0.41953 0.0
H239 H 0.5146 0.07372 0.4712 0.0
O240 O 0.40189 0.05415 0.44569 0.0
O241 O 0.42112 0.10262 0.48387 0.0
O242 O 0.42723 0.04464 0.58146 0.0
O243 O 0.47357 0.07714 0.56653 0.0
C244 C 0.51137 0.18839 0.33562 0.0
C245 C 0.49068 0.21377 0.36333 0.0
H246 H 0.44739 0.25626 0.4298 0.0
H247 H 0.40969 0.24 0.52774 0.0
H248 H 0.55239 0.08135 0.36983 0.0
H249 H 0.55079 0.13457 0.30241 0.0
H250 H 0.52878 0.19452 0.29388 0.0
H251 H 0.4929 0.23909 0.34321 0.0
Mn252 Mn 0.95061 0.86998 0.75596 0.0
Mn253 Mn 0.89907 0.93618 0.73889 0.0
C254 C 0.92709 0.88068 0.64932 0.0
C255 C 0.95787 0.8111 0.75397 0.0
C256 C 0.97504 0.94237 0.75348 0.0
O257 O 0.93566 0.87663 0.85676 0.0
O258 O 0.90235 0.92181 0.83716 0.0
C259 C 0.83273 0.90883 0.78412 0.0
N260 N 0.85216 0.92477 0.73553 0.0
C261 C 0.80303 0.94022 0.66892 0.0
C262 C 0.78248 0.92366 0.7178 0.0
C263 C 0.79743 0.90771 0.7754 0.0
C264 C 0.83807 0.93996 0.6797 0.0
H265 H 0.84408 0.89729 0.82934 0.0
C266 C 0.91625 0.90035 0.87763 0.0
O267 O 0.98255 0.83097 0.77212 0.0
O268 O 0.9287 0.82524 0.74902 0.0
N269 N 0.89329 0.95257 0.64643 0.0
C270 C 0.91677 0.96631 0.60283 0.0
C271 C 0.90611 0.98268 0.54197 0.0
C272 C 0.87146 0.98493 0.52691 0.0
C273 C 0.84786 0.97062 0.57281 0.0
C274 C 0.85993 0.95448 0.63232 0.0
H275 H 0.94331 0.96546 0.61526 0.0
O276 O 0.95747 0.8694 0.65518 0.0
O277 O 0.91283 0.89117 0.70667 0.0
O278 O 0.98187 0.91143 0.76258 0.0
O279 O 0.94547 0.9532 0.74194 0.0
C280 C 0.8128 0.97218 0.56217 0.0
C281 C 0.79026 0.95684 0.60974 0.0
H282 H 0.75523 0.923 0.71159 0.0
H283 H 0.78174 0.89499 0.81348 0.0
H284 H 0.92442 0.99428 0.50764 0.0
H285 H 0.86325 0.9978 0.48015 0.0
H286 H 0.80337 0.985 0.51704 0.0
H287 H 0.76328 0.95774 0.6001 0.0
Mn288 Mn 0.65299 0.58091 0.76569 0.0
Mn289 Mn 0.591 0.6323 0.70636 0.0
C290 C 0.62131 0.6111 0.84486 0.0
C291 C 0.71169 0.57561 0.79788 0.0
C292 C 0.58142 0.55694 0.72226 0.0
O293 O 0.66394 0.58437 0.66252 0.0
O294 O 0.62254 0.61972 0.63081 0.0
C295 C 0.63667 0.69044 0.68259 0.0
N296 N 0.6074 0.67753 0.70871 0.0
C297 C 0.5889 0.73223 0.74506 0.0
C298 C 0.6184 0.74631 0.71645 0.0
C299 C 0.64266 0.72523 0.68602 0.0
C300 C 0.58482 0.6973 0.74143 0.0
H301 H 0.65528 0.67418 0.66015 0.0
C302 C 0.64805 0.60136 0.61694 0.0
O303 O 0.69295 0.54963 0.78303 0.0
O304 O 0.69613 0.60384 0.79165 0.0
N305 N 0.55668 0.64748 0.76894 0.0
C306 C 0.52893 0.63006 0.79151 0.0
C307 C 0.50165 0.6474 0.82127 0.0
C308 C 0.50274 0.68261 0.82621 0.0
C309 C 0.53103 0.70017 0.80083 0.0
C310 C 0.55734 0.6815 0.77119 0.0
H311 H 0.52726 0.60316 0.78573 0.0
O312 O 0.63799 0.5845 0.86273 0.0
O313 O 0.62368 0.61996 0.77965 0.0
O314 O 0.61133 0.54996 0.74453 0.0
O315 O 0.5719 0.58648 0.70535 0.0
C316 C 0.53427 0.73544 0.80407 0.0
C317 C 0.56339 0.75143 0.77696 0.0
H318 H 0.62277 0.77318 0.71801 0.0
H319 H 0.6658 0.73578 0.66495 0.0
H320 H 0.47974 0.63365 0.83991 0.0
H321 H 0.48174 0.69588 0.84951 0.0
H322 H 0.51459 0.75048 0.82764 0.0
H323 H 0.56578 0.77852 0.78035 0.0
Mn324 Mn 0.43297 0.12107 0.07343 0.0
Mn325 Mn 0.36812 0.06976 0.03147 0.0
C326 C 0.40865 0.08782 0.15925 0.0
C327 C 0.44851 0.17522 0.11741 0.0
C328 C 0.442 0.05017 0.01031 0.0
O329 O 0.41986 0.13828 0.97725 0.0
O330 O 0.37754 0.10263 0.95605 0.0
C331 C 0.31978 0.12597 0.04663 0.0
N332 N 0.32848 0.09351 0.06016 0.0
C333 C 0.28021 0.08626 0.13501 0.0
C334 C 0.2695 0.11878 0.11796 0.0
C335 C 0.28975 0.13897 0.07459 0.0
C336 C 0.31076 0.07499 0.10668 0.0
H337 H 0.33615 0.14215 0.01648 0.0
C338 C 0.39603 0.12757 0.93835 0.0
O339 O 0.47051 0.15612 0.08643 0.0
O340 O 0.4179 0.16396 0.11722 0.0
N341 N 0.35362 0.03549 0.09487 0.0
C342 C 0.36297 1.00254 0.0929 0.0
C343 C 0.34532 0.97867 0.13308 0.0
C344 C 0.31677 0.98848 0.17125 0.0
C345 C 0.305 0.02151 0.16523 0.0
C346 C 0.32385 0.04414 0.12453 0.0
H347 H 0.3835 0.99441 0.06017 0.0
O348 O 0.43852 0.10078 0.16598 0.0
O349 O 0.39296 0.09549 0.10177 0.0
O350 O 0.45509 0.07825 0.03065 0.0
O351 O 0.40993 0.04457 0.00717 0.0
C352 C 0.27393 0.03209 0.19347 0.0
C353 C 0.26167 0.06454 0.17871 0.0
H354 H 0.24621 0.12875 0.13908 0.0
H355 H 0.28239 0.16457 0.06326 0.0
H356 H 0.35339 0.95272 0.13365 0.0
H357 H 0.30294 0.96997 0.20156 0.0
H358 H 0.25878 0.0151 0.22479 0.0
H359 H 0.2375 0.07224 0.19951 0.0
Mn360 Mn 0.88183 0.93649 0.31458 0.0
Mn361 Mn 0.94461 0.88098 0.28338 0.0
C362 C 0.89738 0.90027 0.40263 0.0
C363 C 0.82231 0.94778 0.32664 0.0
C364 C 0.95761 0.95566 0.30324 0.0
O365 O 0.88089 0.93362 0.20902 0.0
O366 O 0.92229 0.89508 0.19519 0.0
C367 C 0.90687 0.82246 0.22705 0.0
N368 N 0.92977 0.83556 0.27245 0.0
C369 C 0.9475 0.78031 0.30812 0.0
C370 C 0.92399 0.76621 0.26174 0.0
C371 C 0.90344 0.7874 0.22136 0.0
C372 C 0.94963 0.81542 0.31163 0.0
H373 H 0.89163 0.83867 0.19533 0.0
C374 C 0.89926 0.91457 0.17138 0.0
O375 O 0.84458 0.97178 0.32062 0.0
O376 O 0.8348 0.91807 0.3209 0.0
N377 N 0.96866 0.8649 0.3628 0.0
C378 C 0.98673 0.88255 0.41088 0.0
C379 C 1.00751 0.86523 0.45805 0.0
C380 C 1.00983 0.83003 0.45454 0.0
C381 C 0.99066 0.8124 0.40498 0.0
C382 C 0.9704 0.83104 0.3595 0.0
H383 H 0.9856 0.90964 0.41258 0.0
O384 O 0.88641 0.93026 0.41487 0.0
O385 O 0.90334 0.89309 0.33732 0.0
O386 O 0.92682 0.96476 0.31223 0.0
O387 O 0.96587 0.92537 0.29263 0.0
C388 C 0.98987 0.77703 0.40063 0.0
C389 C 0.9682 0.76099 0.35244 0.0
H390 H 0.92123 0.73919 0.25728 0.0
H391 H 0.88515 0.77674 0.18564 0.0
H392 H 0.02192 0.87899 0.49662 0.0
H393 H 0.02574 0.81674 0.49125 0.0
H394 H 1.00517 0.76191 0.43535 0.0
H395 H 0.96717 0.73379 0.35082 0.0
Mn396 Mn 0.0615 0.37287 0.55656 0.0
Mn397 Mn 0.11715 0.43701 0.53646 0.0
C398 C 0.08074 0.40277 0.64962 0.0
C399 C 0.05451 0.31592 0.59393 0.0
C400 C 0.04138 0.44618 0.52089 0.0
O401 O 0.07735 0.36467 0.45687 0.0
O402 O 0.11006 0.4113 0.45002 0.0
C403 C 0.17658 0.3931 0.51392 0.0
N404 N 0.16088 0.41763 0.55108 0.0
C405 C 0.20727 0.42044 0.63227 0.0
C406 C 0.22388 0.39524 0.59479 0.0
C407 C 0.20846 0.38154 0.53532 0.0
C408 C 0.17549 0.43091 0.6085 0.0
H409 H 0.16489 0.38236 0.46836 0.0
C410 C 0.0968 0.38487 0.42362 0.0
O411 O 0.02971 0.33236 0.5652 0.0
O412 O 0.08346 0.33063 0.59003 0.0
N413 N 0.12723 0.46394 0.61634 0.0
C414 C 0.1103 0.49134 0.64024 0.0
C415 C 0.12299 0.50898 0.69797 0.0
C416 C 0.15345 0.49885 0.72921 0.0
C417 C 0.17162 0.47203 0.70064 0.0
C418 C 0.15781 0.45563 0.64269 0.0
H419 H 0.08702 0.49937 0.616 0.0
O420 O 0.05297 0.38585 0.65385 0.0
O421 O 0.09712 0.40148 0.59143 0.0
O422 O 0.03335 0.41466 0.52426 0.0
O423 O 0.07188 0.45722 0.52576 0.0
C424 C 0.20329 0.46151 0.72623 0.0
C425 C 0.22106 0.43566 0.69217 0.0
H426 H 0.2485 0.38629 0.61106 0.0
H427 H 0.22111 0.36208 0.50607 0.0
H428 H 0.10926 0.53022 0.71853 0.0
H429 H 0.16305 0.51236 0.77401 0.0
H430 H 0.21443 0.47345 0.77147 0.0
H431 H 0.24552 0.42798 0.71193 0.0
Mn432 Mn 0.63956 0.93645 0.52876 0.0
Mn433 Mn 0.57494 0.8833 0.5683 0.0
C434 C 0.60316 0.91811 0.44344 0.0
C435 C 0.69527 0.94414 0.48283 0.0
C436 C 0.57062 0.95863 0.58926 0.0
O437 O 0.65257 0.92084 0.62635 0.0
O438 O 0.60757 0.88696 0.64705 0.0
C439 C 0.61607 0.82124 0.56923 0.0
N440 N 0.58965 0.83913 0.54343 0.0
C441 C 0.57501 0.7943 0.46482 0.0
C442 C 0.60195 0.77533 0.49114 0.0
C443 C 0.62271 0.78898 0.54329 0.0
C444 C 0.57005 0.82656 0.4919 0.0
H445 H 0.63198 0.83167 0.60884 0.0
C446 C 0.63504 0.90159 0.66599 0.0
O447 O 0.67935 0.96809 0.51486 0.0
O448 O 0.68057 0.91513 0.48685 0.0
N449 N 0.54104 0.87713 0.4981 0.0
C450 C 0.51314 0.89629 0.48596 0.0
C451 C 0.48971 0.88632 0.43497 0.0
C452 C 0.49415 0.85577 0.39982 0.0
C453 C 0.52139 0.83503 0.41766 0.0
C454 C 0.54424 0.84664 0.46804 0.0
H455 H 0.509 0.91929 0.51439 0.0
O456 O 0.62151 0.94465 0.43456 0.0
O457 O 0.60729 0.90195 0.50177 0.0
O458 O 0.60105 0.96573 0.57014 0.0
O459 O 0.5584 0.92876 0.59072 0.0
C460 C 0.52594 0.80271 0.38953 0.0
C461 C 0.55266 0.78232 0.41333 0.0
H462 H 0.60694 0.75031 0.47163 0.0
H463 H 0.64377 0.77467 0.56349 0.0
H464 H 0.46811 0.90198 0.42335 0.0
H465 H 0.47585 0.84797 0.36103 0.0
H466 H 0.5087 0.79305 0.35048 0.0
H467 H 0.5555 0.75728 0.39234 0.0
Mn468 Mn 0.07733 0.13393 0.755 0.0
Mn469 Mn 0.1331 0.07098 0.73724 0.0
C470 C 0.10118 0.12464 0.64852 0.0
C471 C 0.06257 0.19111 0.75205 0.0
C472 C 0.05822 0.05959 0.75094 0.0
O473 O 0.09389 0.12915 0.85546 0.0
O474 O 0.12654 0.08355 0.83597 0.0
C475 C 0.1961 0.1021 0.79126 0.0
N476 N 0.1792 0.08553 0.7398 0.0
C477 C 0.2313 0.07226 0.68135 0.0
C478 C 0.24924 0.08906 0.73376 0.0
C479 C 0.23157 0.10442 0.7885 0.0
C480 C 0.19599 0.0712 0.68631 0.0
H481 H 0.18269 0.11293 0.83463 0.0
C482 C 0.11295 0.10511 0.8765 0.0
O483 O 0.04115 0.16851 0.77378 0.0
O484 O 0.09344 0.18117 0.74467 0.0
N485 N 0.14275 0.05609 0.64491 0.0
C486 C 0.12162 0.04151 0.59772 0.0
C487 C 0.13526 0.02591 0.53863 0.0
C488 C 0.17048 0.02502 0.52922 0.0
C489 C 0.19171 0.04006 0.57871 0.0
C490 C 0.17665 0.05573 0.63588 0.0
H491 H 0.09469 0.04116 0.60597 0.0
O492 O 0.06987 0.13328 0.65437 0.0
O493 O 0.1166 0.11542 0.70572 0.0
O494 O 0.0502 0.08979 0.76483 0.0
O495 O 0.0879 0.05082 0.73411 0.0
C496 C 0.22725 0.03976 0.57403 0.0
C497 C 0.24707 0.05614 0.62487 0.0
H498 H 0.27657 0.08995 0.73264 0.0
H499 H 0.2453 0.11735 0.82927 0.0
H500 H 0.11875 0.01397 0.50114 0.0
H501 H 0.18095 0.01268 0.48391 0.0
H502 H 0.2395 0.02694 0.53162 0.0
H503 H 0.27439 0.0561 0.62016 0.0
Mn504 Mn 0.90181 0.59563 0.97156 0.0
Mn505 Mn 0.96572 0.65193 0.00117 0.0
C506 C 0.90586 0.64739 0.90783 0.0
C507 C 0.84134 0.5838 0.94826 0.0
C508 C 0.97402 0.57517 0.01021 0.0
O509 O 0.8946 0.61179 0.07224 0.0
O510 O 0.94139 0.64302 0.08768 0.0
C511 C 0.92354 0.71086 0.03641 0.0
N512 N 0.94761 0.69639 -0.0044 0.0
C513 C 0.95964 0.74908 0.93947 0.0
C514 C 0.93497 0.76454 0.9807 0.0
C515 C 0.91652 0.74522 0.02879 0.0
C516 C 0.9644 0.71442 0.94699 0.0
H517 H 0.91004 0.69647 0.07511 0.0
C518 C 0.91483 0.62876 0.11043 0.0
O519 O 0.86113 0.56216 0.97712 0.0
O520 O 0.85534 0.61283 0.94042 0.0
N521 N 0.99262 0.66457 0.92219 0.0
C522 C 0.01877 0.64743 0.89311 0.0
C523 C 0.03916 0.66297 0.84253 0.0
C524 C 0.03418 0.69694 0.82611 0.0
C525 C 1.00901 0.715 0.86093 0.0
C526 C 0.98821 0.69761 0.90805 0.0
H527 H 0.02458 0.6224 0.90985 0.0
O528 O 0.87714 0.63713 0.93271 0.0
O529 O 0.93018 0.63396 0.94176 0.0
O530 O 0.94257 0.56685 0.00336 0.0
O531 O 0.98529 0.60566 0.00622 0.0
C532 C 1.00526 0.75 0.85401 0.0
C533 C 0.98061 0.76701 0.89329 0.0
H534 H 0.93024 0.79126 0.97633 0.0
H535 H 0.89747 0.75693 0.06095 0.0
H536 H 0.05952 0.64916 0.81831 0.0
H537 H 0.05072 0.70925 0.78888 0.0
H538 H 0.02179 0.76422 0.81989 0.0
H539 H 0.97844 0.79402 0.88894 0.0
Mn540 Mn 0.45245 0.36264 0.28122 0.0
Mn541 Mn 0.40218 0.43098 0.28164 0.0
C542 C 0.44516 0.39274 0.18153 0.0
C543 C 0.45645 0.30424 0.25913 0.0
C544 C 0.47519 0.43387 0.32852 0.0
O545 O 0.42761 0.35841 0.37397 0.0
O546 O 0.39554 0.40451 0.36864 0.0
C547 C 0.33968 0.39039 0.26449 0.0
N548 N 0.36012 0.41603 0.24287 0.0
C549 C 0.3251 0.42581 0.14238 0.0
C550 C 0.30296 0.40043 0.16513 0.0
C551 C 0.31044 0.38246 0.22618 0.0
C552 C 0.35378 0.43265 0.18282 0.0
H553 H 0.346 0.37563 0.30976 0.0
C554 C 0.40527 0.37785 0.39997 0.0
O555 O 0.47962 0.31987 0.29509 0.0
O556 O 0.43012 0.32152 0.24295 0.0
N557 N 0.40529 0.45965 0.20178 0.0
C558 C 0.42844 0.48438 0.18854 0.0
C559 C 0.42474 0.50461 0.12906 0.0
C560 C 0.39704 0.49956 0.0844 0.0
C561 C 0.37277 0.47497 0.1008 0.0
C562 C 0.37749 0.45601 0.16152 0.0
H563 H 0.44972 0.4885 0.22279 0.0
O564 O 0.47025 0.37222 0.18709 0.0
O565 O 0.42437 0.39417 0.23384 0.0
O566 O 0.48139 0.40229 0.32034 0.0
O567 O 0.4461 0.44689 0.31728 0.0
C568 C 0.34391 0.46877 0.05971 0.0
C569 C 0.32019 0.44412 0.08042 0.0
H570 H 0.28051 0.39411 0.13544 0.0
H571 H 0.29393 0.36227 0.2432 0.0
H572 H 0.44334 0.52388 0.1174 0.0
H573 H 0.39449 0.51491 0.03808 0.0
H574 H 0.33971 0.4828 0.01215 0.0
H575 H 0.29821 0.43945 0.04849 0.0
C576 C 0.28164 0.0921 0.43947 0.0
C577 C 0.29886 0.06294 0.46251 0.0
C578 C 0.25904 0.02948 0.38964 0.0
C579 C 0.24414 0.05962 0.36322 0.0
N580 N 0.25738 0.11793 0.33817 0.0
N581 N 0.30877 1.00368 0.44094 0.0
C582 C 0.26064 0.09036 0.37995 0.0
C583 C 0.28896 0.03142 0.4326 0.0
N584 N 0.28478 0.1217 0.4747 0.0
N585 N 0.24563 0.99889 0.37307 0.0
H586 H 0.33115 1.00357 0.46932 0.0
H587 H 0.30465 0.98137 0.41388 0.0
H588 H 0.22838 0.99532 0.33287 0.0
H589 H 0.25197 0.97693 0.39966 0.0
H590 H 0.27094 0.143 0.46111 0.0
H591 H 0.29764 0.12353 0.52202 0.0
H592 H 0.27057 0.14025 0.34763 0.0
H593 H 0.24583 0.11679 0.28943 0.0
C594 C 0.93166 0.75691 0.72191 0.0
C595 C 0.96167 0.77623 0.72384 0.0
C596 C 0.98413 0.73969 0.62988 0.0
C597 C 0.95157 0.72434 0.62206 0.0
N598 N 0.89164 0.73431 0.64106 0.0
N599 N 0.01768 0.78588 0.6762 0.0
C600 C 0.92445 0.73735 0.66253 0.0
C601 C 0.98858 0.76727 0.67762 0.0
N602 N 0.9088 0.759 0.77491 0.0
N603 N 1.01056 0.72912 0.59 0.0
H604 H 0.02429 0.80296 0.71472 0.0
H605 H 0.03541 0.78449 0.63622 0.0
H606 H 1.00731 0.71473 0.54531 0.0
H607 H 0.03571 0.73507 0.60087 0.0
H608 H 0.88676 0.74453 0.77626 0.0
H609 H 0.91378 0.77276 0.82002 0.0
H610 H 0.87154 0.74495 0.6683 0.0
H611 H 0.88516 0.72697 0.59074 0.0
C612 C 0.28719 0.48787 0.8928 0.0
C613 C 0.29942 0.45784 0.8613 0.0
C614 C 0.2591 0.42586 0.93281 0.0
C615 C 0.24302 0.45567 0.95641 0.0
N616 N 0.23808 0.51615 0.93865 0.0
N617 N 0.28687 0.39974 0.83544 0.0
C618 C 0.25589 0.4871 0.93078 0.0
C619 C 0.28191 0.42742 0.87595 0.0
N620 N 0.30558 0.51696 0.88978 0.0
N621 N 0.25423 0.39605 0.96681 0.0
H622 H 0.3017 0.40047 0.79049 0.0
H623 H 0.27288 0.37764 0.84193 0.0
H624 H 0.2411 0.39433 0.0138 0.0
H625 H 0.26735 0.37429 0.95362 0.0
H626 H 0.29925 0.53814 0.91879 0.0
H627 H 0.32857 0.51926 0.86394 0.0
H628 H 0.24534 0.53858 0.91459 0.0
H629 H 0.2144 0.51754 0.96175 0.0
C630 C 0.56764 0.77274 0.18651 0.0
C631 C 0.55733 0.77575 0.11525 0.0
C632 C 0.53959 0.71613 0.12035 0.0
C633 C 0.55555 0.71224 0.18641 0.0
N634 N 0.58961 0.73649 0.27723 0.0
N635 N 0.53704 0.74772 0.01198 0.0
C636 C 0.57108 0.74045 0.21775 0.0
C637 C 0.54385 0.74679 0.08165 0.0
N638 N 0.57222 0.80076 0.2263 0.0
N639 N 0.5206 0.69036 0.09416 0.0
H640 H 0.54102 0.76903 0.9814 0.0
H641 H 0.53052 0.7265 0.98318 0.0
H642 H 0.51686 0.66791 0.1212 0.0
H643 H 0.50578 0.69261 0.04956 0.0
H644 H 0.57824 0.8 0.27902 0.0
H645 H 0.56542 0.82455 0.20943 0.0
H646 H 0.60517 0.75535 0.29733 0.0
H647 H 0.59097 0.71371 0.3041 0.0
C648 C 0.76233 0.6055 0.84975 0.0
C649 C 0.74749 0.57456 0.82836 0.0
C650 C 0.79768 0.54678 0.8814 0.0
C651 C 0.80697 0.57734 0.91573 0.0
N652 N 0.78831 0.63315 0.94708 0.0
N653 N 0.75331 0.51358 0.82763 0.0
C654 C 0.78604 0.60573 0.90476 0.0
C655 C 0.76567 0.54446 0.84548 0.0
N656 N 0.75597 0.63472 0.81493 0.0
N657 N 0.81973 0.5205 0.87873 0.0
H658 H 0.73323 0.50974 0.79374 0.0
H659 H 0.76295 0.49137 0.84838 0.0
H660 H 0.84334 0.52058 0.90245 0.0
H661 H 0.81576 0.49955 0.84725 0.0
H662 H 0.76777 0.65734 0.82824 0.0
H663 H 0.74397 0.63516 0.76659 0.0
H664 H 0.772 0.65357 0.94203 0.0
H665 H 0.80322 0.63338 -0.00807 0.0
C666 C 0.48323 0.26214 0.17633 0.0
C667 C 0.45996 0.26928 0.23102 0.0
C668 C 0.43898 0.21153 0.22296 0.0
C669 C 0.45699 0.20618 0.15971 0.0
N670 N 0.49474 0.22908 0.07273 0.0
N671 N 0.41372 0.25008 0.30335 0.0
C672 C 0.47921 0.23203 0.13586 0.0
C673 C 0.43692 0.24397 0.25234 0.0
N674 N 0.50886 0.28423 0.16222 0.0
N675 N 0.42474 0.18562 0.25893 0.0
H676 H 0.41175 0.27317 0.32858 0.0
H677 H 0.39625 0.23188 0.31952 0.0
H678 H 0.42837 0.16044 0.2462 0.0
H679 H 0.42837 0.16044 0.2462 0.0
H680 H 0.52851 0.27892 0.1279 0.0
H681 H 0.51198 0.3068 0.18891 0.0
H682 H 0.50823 0.2486 0.04925 0.0
H683 H 0.4919 0.20811 0.04092 0.0
C684 C 0.7624 0.92496 0.34343 0.0
C685 C 0.78565 0.95224 0.34982 0.0
C686 C 0.74727 0.97819 0.43621 0.0
C687 C 0.72541 0.9494 0.43408 0.0
N688 N 0.70438 0.9067 0.35501 0.0
N689 N 0.78955 0.01155 0.37447 0.0
C690 C 0.73081 0.92572 0.3793 0.0
C691 C 0.77474 0.9811 0.38724 0.0
N692 N 0.76924 0.89908 0.29913 0.0
N693 N 0.74295 1.00244 0.48566 0.0
H694 H 0.80671 0.0153 0.33408 0.0
H695 H 0.78104 0.03396 0.39598 0.0
H696 H 0.72588 1.00064 0.52648 0.0
H697 H 0.7592 0.02292 0.49155 0.0
H698 H 0.75668 0.876 0.30153 0.0
H699 H 0.787 0.90103 0.25916 0.0
H700 H 0.70618 0.89039 0.31288 0.0
H701 H 0.67928 0.91149 0.36801 0.0
C702 C 0.02823 0.2584 0.62647 0.0
C703 C 0.05041 0.28565 0.64161 0.0
C704 C 0.07393 0.25278 0.7401 0.0
C705 C 0.05284 0.22508 0.7238 0.0
N706 N 1.00643 0.20379 0.65179 0.0
N707 N 0.08629 0.31073 0.73135 0.0
C708 C 0.02843 0.22885 0.66902 0.0
C709 C 0.07081 0.2834 0.70308 0.0
N710 N 1.00747 0.25961 0.5697 0.0
N711 N 0.09668 0.25062 0.79363 0.0
H712 H 0.08192 0.33539 0.71568 0.0
H713 H 0.08192 0.33539 0.71568 0.0
H714 H 0.09789 0.23002 0.82724 0.0
H715 H 0.11361 0.26999 0.8056 0.0
H716 H 0.99075 0.24018 0.55706 0.0
H717 H 1.00735 0.27945 0.53434 0.0
H718 H 1.0045 0.18074 0.67747 0.0
H719 H 1.0045 0.18074 0.67747 0.0
C720 C 0.03279 0.00914 0.367 0.0
C721 C 0.04687 0.02059 0.30308 0.0
C722 C 1.00277 0.98899 0.23963 0.0
C723 C 0.98644 0.98052 0.30334 0.0
N724 N 0.98517 0.9836 0.42829 0.0
N725 N 0.04143 0.02616 0.17854 0.0
C726 C 1.00131 0.99095 0.36725 0.0
C727 C 0.0307 0.01187 0.23946 0.0
N728 N 0.04978 0.0154 0.42753 0.0
N729 N 0.99247 0.97417 0.1791 0.0
H730 H 0.06214 0.04242 0.17573 0.0
H731 H 0.02823 0.02401 0.1318 0.0
H732 H 0.97246 0.95709 0.17683 0.0
H733 H 1.00568 0.97638 0.13237 0.0
H734 H 0.04364 1.00417 0.4748 0.0
H735 H 0.07186 0.02985 0.42932 0.0
H736 H 0.99223 0.99354 0.47618 0.0
H737 H 0.96313 0.96911 0.43033 0.0
C738 C 0.99938 0.52932 0.47076 0.0
C739 C 0.9734 0.53151 0.52161 0.0
C740 C 0.98864 0.47535 0.56626 0.0
C741 C 0.01462 0.47281 0.51513 0.0
N742 N 0.04118 0.49515 0.41175 0.0
N743 N 0.95173 0.5121 0.63147 0.0
C744 C 0.01901 0.49932 0.46565 0.0
C745 C 0.9701 0.50583 0.57265 0.0
N746 N 1.00676 0.5566 0.42999 0.0
N747 N 0.98128 0.4488 0.60907 0.0
H748 H 0.93996 0.53509 0.64027 0.0
H749 H 0.95136 0.49639 0.67488 0.0
H750 H 0.99486 0.42654 0.61029 0.0
H751 H 0.95976 0.4478 0.6403 0.0
H752 H 0.02769 0.55823 0.39733 0.0
H753 H 0.99386 0.57925 0.43317 0.0
H754 H 0.0426 0.51099 0.36868 0.0
H755 H 0.05648 0.4741 0.40682 0.0
C756 C 0.50176 0.51695 0.79215 0.0
C757 C 0.4906 0.49647 0.73633 0.0
C758 C 0.54026 0.51528 0.66828 0.0
C759 C 0.55348 0.5317 0.7281 0.0
N760 N 0.54953 0.54193 0.85138 0.0
N761 N 0.50045 0.47416 0.62179 0.0
C762 C 0.53508 0.53047 0.79134 0.0
C763 C 0.51031 0.49503 0.67442 0.0
N764 N 0.48027 0.5244 0.84545 0.0
N765 N 0.55599 0.51951 0.60557 0.0
H766 H 0.47766 0.46078 0.6232 0.0
H767 H 0.5154 0.4691 0.57847 0.0
H768 H 0.57845 0.53317 0.60032 0.0
H769 H 0.54581 0.51121 0.5586 0.0
H770 H 0.48618 0.54174 0.88424 0.0
H771 H 0.45519 0.51627 0.8467 0.0
H772 H 0.53882 0.53758 0.90013 0.0
H773 H 0.57374 0.55242 0.85324 0.0
C774 C 0.47692 0.96239 0.04361 0.0
C775 C 0.50402 0.96027 -0.00403 0.0
C776 C 0.48859 0.01656 0.94987 0.0
C777 C 0.4644 0.0199 0.00394 0.0
N778 N 0.44448 0.99985 0.11477 0.0
N779 N 0.53579 0.98462 0.90169 0.0
C780 C 0.46074 0.99369 0.05369 0.0
C781 C 0.50971 0.98721 0.948 0.0
N782 N 0.46714 0.93486 0.08128 0.0
N783 N 0.49162 0.04161 0.9015 0.0
H784 H 0.54985 0.96259 0.89672 0.0
H785 H 0.54386 1.00392 0.86901 0.0
H786 H 0.47633 0.06292 0.90205 0.0
H787 H 0.50852 0.0413 0.86011 0.0
H788 H 0.44554 0.93459 0.11246 0.0
H789 H 0.47811 0.91131 0.07541 0.0
H790 H 0.44454 0.98306 0.15648 0.0
H791 H 0.43455 0.02334 0.12624 0.0
C792 C 0.05823 0.53062 -0.00226 0.0
C793 C 0.05663 0.50687 0.05276 0.0
C794 C 0.99903 0.52694 0.08113 0.0
C795 C 0.99998 0.54839 0.02193 0.0
N796 N 0.02541 0.55927 0.91061 0.0
N797 N 0.02363 0.47975 0.14281 0.0
C798 C 0.02827 0.54721 0.97676 0.0
C799 C 0.02651 0.50452 0.09372 0.0
N800 N 0.08793 0.53692 0.96366 0.0
N801 N 0.97193 0.52768 0.1252 0.0
H802 H 0.04352 0.46383 0.15552 0.0
H803 H 1.00114 0.47359 0.16807 0.0
H804 H 0.9499 0.54095 0.1145 0.0
H805 H 0.97179 0.51639 0.17414 0.0
H806 H 0.09052 0.55614 0.92702 0.0
H807 H 0.1108 0.52576 0.97672 0.0
H808 H 0.04401 0.55627 0.87269 0.0
H809 H 1.00267 0.56862 0.89171 0.0
C810 C 0.53273 0.45332 0.29371 0.0
C811 C 0.50386 0.45866 0.3347 0.0
C812 C 0.51883 0.51904 0.33553 0.0
C813 C 0.53987 0.51434 0.27571 0.0
N814 N 0.56064 0.47326 0.19187 0.0
N815 N 0.47227 0.49716 0.4054 0.0
C816 C 0.54546 0.48036 0.25361 0.0
C817 C 0.49783 0.49182 0.3591 0.0
N818 N 0.54767 0.42252 0.29152 0.0
N819 N 0.52041 0.54814 0.37299 0.0
H820 H 0.45918 0.47726 0.4288 0.0
H821 H 0.46373 0.52104 0.41864 0.0
H822 H 0.53782 0.56725 0.36303 0.0
H823 H 0.50755 0.55144 0.41979 0.0
H824 H 0.57002 0.41821 0.26412 0.0
H825 H 0.54068 0.40315 0.32532 0.0
H826 H 0.56317 0.44883 0.17299 0.0
H827 H 0.56534 0.49146 0.15489 0.0
C828 C 0.49519 0.00918 0.65704 0.0
C829 C 0.48295 0.02089 0.59212 0.0
C830 C 0.53441 1.00216 0.53586 0.0
C831 C 0.54537 0.98603 0.59729 0.0
N832 N 0.534 0.97127 0.71686 0.0
N833 N 0.48443 0.01308 0.46881 0.0
C834 C 0.52493 0.98849 0.65835 0.0
C835 C 0.5005 0.01228 0.53128 0.0
N836 N 0.47854 0.01771 0.71645 0.0
N837 N 0.55599 0.00839 0.48191 0.0
H838 H 0.45867 0.01845 0.46509 0.0
H839 H 0.49592 1.00471 0.42326 0.0
H840 H 0.5817 1.00286 0.48369 0.0
H841 H 0.54846 0.02177 0.43782 0.0
H842 H 0.48706 0.01133 0.76592 0.0
H843 H 0.4564 0.03192 0.71544 0.0
H844 H 0.51849 0.96912 0.76045 0.0
H845 H 0.55665 0.95796 0.72011 0.0
C846 C 0.02211 0.01826 0.81618 0.0
C847 C 0.03253 0.03239 0.75192 0.0
C848 C 0.01179 0.98264 0.69004 0.0
C849 C 1.00187 0.9683 0.7543 0.0
N850 N 1.00496 0.96795 0.87894 0.0
N851 N 0.02875 0.03292 0.62738 0.0
C852 C 1.00913 0.98487 0.81764 0.0
C853 C 0.02516 0.01581 0.68862 0.0
N854 N 0.02279 0.03746 0.87491 0.0
N855 N 1.00971 0.96378 0.63089 0.0
H856 H 0.03696 0.05791 0.62564 0.0
H857 H 0.02009 0.02385 0.57987 0.0
H858 H 1.00073 0.93905 0.63139 0.0
H859 H 0.01975 0.97136 0.58326 0.0
H860 H 0.01273 0.0297 0.92242 0.0
H861 H 0.03044 0.06258 0.87424 0.0
H862 H 0.01248 0.97739 0.92704 0.0
H863 H 0.99692 0.94292 0.88045 0.0
C864 C 0.10446 0.15809 0.53467 0.0
C865 C 0.11979 0.13743 0.58662 0.0
C866 C 0.16401 0.12404 0.50625 0.0
C867 C 0.14057 0.13155 0.45268 0.0
N868 N 0.11935 0.18548 0.42762 0.0
N869 N 0.17704 0.13575 0.62698 0.0
C870 C 0.11821 0.15731 0.4673 0.0
C871 C 0.15409 0.13018 0.57562 0.0
N872 N 0.08146 0.18214 0.54974 0.0
N873 N 0.19518 0.11233 0.49025 0.0
H874 H 0.16962 0.14517 0.67526 0.0
H875 H 0.20309 0.13499 0.61853 0.0
H876 H 0.20288 0.11113 0.43873 0.0
H877 H 0.21292 0.10537 0.52761 0.0
H878 H 0.07402 0.18786 0.60023 0.0
H879 H 0.07402 0.18786 0.60023 0.0
H880 H 0.1073 0.20764 0.44244 0.0
H881 H 0.13478 0.18665 0.38348 0.0
C882 C 0.87026 0.64043 0.72449 0.0
C883 C 0.88387 0.60863 0.70661 0.0
C884 C 0.91785 0.60882 0.8096 0.0
C885 C 0.90496 0.6404 0.83141 0.0
N886 N 0.86306 0.68347 0.81321 0.0
N887 N 0.90326 0.5567 0.75484 0.0
C888 C 0.87918 0.65547 0.78977 0.0
C889 C 0.90004 0.59053 0.7593 0.0
N890 N 0.85097 0.65701 0.67688 0.0
N891 N 0.94817 0.59701 0.83219 0.0
H892 H 0.89163 0.54343 0.71525 0.0
H893 H 0.91462 0.54241 0.79397 0.0
H894 H 0.9651 0.61201 0.85931 0.0
H895 H 0.9585 0.57474 0.8133 0.0
H896 H 0.84308 0.68177 0.68276 0.0
H897 H 0.84382 0.64565 0.63025 0.0
H898 H 0.84174 0.69352 0.78918 0.0
H899 H 0.8706 0.69586 0.85854 0.0
C900 C 0.41161 0.39191 0.07303 0.0
C901 C 0.43777 0.40673 0.11303 0.0
C902 C 0.45306 0.44381 0.01682 0.0
C903 C 0.42898 0.4271 0.97452 0.0
N904 N 0.38738 0.38256 0.95971 0.0
N905 N 0.48738 0.4421 0.12085 0.0
C906 C 0.40877 0.40042 0.00182 0.0
C907 C 0.45982 0.43116 0.08415 0.0
N908 N 0.38941 0.36964 0.10299 0.0
N909 N 0.46907 0.47209 -0.00686 0.0
H910 H 0.49223 0.43469 0.17194 0.0
H911 H 0.50643 0.45698 0.09925 0.0
H912 H 0.46596 0.48107 0.94273 0.0
H913 H 0.48391 0.48761 0.02446 0.0
H914 H 0.36687 0.36197 0.07978 0.0
H915 H 0.39186 0.36055 0.15356 0.0
H916 H 0.37552 0.36025 0.97451 0.0
H917 H 0.38351 0.38784 0.90752 0.0
C918 C 0.55923 0.92232 0.35162 0.0
C919 C 0.58643 0.90435 0.38159 0.0
C920 C 0.60113 0.88192 0.26795 0.0
C921 C 0.57269 0.89873 0.23865 0.0
N922 N 0.51935 0.9269 0.25702 0.0
N923 N 0.62725 0.85993 0.37236 0.0
C924 C 0.54979 0.91602 0.28207 0.0
C925 C 0.60515 0.88154 0.3411 0.0
N926 N 0.54345 0.94673 0.38868 0.0
N927 N 0.62476 0.86686 0.22665 0.0
H928 H 0.6312 0.85945 0.42595 0.0
H929 H 0.63898 0.84028 0.34612 0.0
H930 H 0.62289 0.86503 0.17293 0.0
H931 H 0.64791 0.85834 0.24548 0.0
H932 H 0.52668 0.96376 0.36646 0.0
H933 H 0.54838 0.95018 0.44128 0.0
H934 H 0.50043 0.93645 0.28907 0.0
H935 H 0.51218 0.92459 0.20501 0.0
C936 C 0.12139 0.39696 0.74575 0.0
C937 C 0.09521 0.41558 0.71344 0.0
C938 C 0.09019 0.45125 0.81484 0.0
C939 C 0.11211 0.42955 0.85046 0.0
N940 N 0.14763 0.38019 0.85365 0.0
N941 N 0.05122 0.45745 0.71902 0.0
C942 C 0.12749 0.40188 0.81721 0.0
C943 C 0.07841 0.44188 0.74859 0.0
N944 N 0.14039 0.37468 0.70848 0.0
N945 N 0.08136 0.4807 0.84586 0.0
H946 H 0.04367 0.45285 0.66804 0.0
H947 H 0.0354 0.47377 0.74587 0.0
H948 H 0.06704 0.49943 0.82207 0.0
H949 H 0.06704 0.49943 0.82207 0.0
H950 H 0.16242 0.36375 0.72755 0.0
H951 H 0.13594 0.36893 0.65647 0.0
H952 H 0.15568 0.35721 0.83395 0.0
H953 H 0.15447 0.38372 0.90542 0.0
C954 C 0.57516 0.60847 0.9822 0.0
C955 C 0.59965 0.61044 0.03628 0.0
C956 C 0.63756 0.63814 0.95223 0.0
C957 C 0.61198 0.63414 0.90134 0.0
N958 N 0.55952 0.65848 0.92817 0.0
N959 N 0.65045 0.64108 0.07474 0.0
C960 C 0.57924 0.63078 0.92691 0.0
C961 C 0.63017 0.62933 0.02264 0.0
N962 N 0.5454 0.59148 -0.01071 0.0
N963 N 0.66936 0.64707 0.93167 0.0
H964 H 0.64509 0.63841 0.12729 0.0
H965 H 0.67112 0.65681 0.06536 0.0
H966 H 0.67424 0.65401 0.88014 0.0
H967 H 0.69036 0.64593 0.96446 0.0
H968 H 0.52647 0.59349 0.9515 0.0
H969 H 0.54096 0.57452 0.02983 0.0
H970 H 0.53691 0.65899 0.95639 0.0
H971 H 0.56836 0.6813 0.90816 0.0
C972 C 0.39336 0.11145 0.33307 0.0
C973 C 0.41971 0.09023 0.35881 0.0
C974 C 0.41072 0.05387 0.26086 0.0
C975 C 0.39211 0.07819 0.22507 0.0
N976 N 0.35966 0.12864 0.23271 0.0
N977 N 0.45973 0.04681 0.33154 0.0
C978 C 0.38053 0.10605 0.26414 0.0
C979 C 0.43121 0.06407 0.31593 0.0
N980 N 0.38059 0.13633 0.37392 0.0
N981 N 0.4075 0.02088 0.24532 0.0
H982 H 0.47551 0.05486 0.37124 0.0
H983 H 0.46879 0.02744 0.30014 0.0
H984 H 0.38978 0.01299 0.20929 0.0
H985 H 0.4196 1.00208 0.27387 0.0
H986 H 0.35869 0.14957 0.36186 0.0
H987 H 0.39191 0.14362 0.42041 0.0
H988 H 0.3531 0.15171 0.25413 0.0
H989 H 0.34992 0.1242 0.18316 0.0
C990 C 0.92134 0.84612 0.53819 0.0
C991 C 0.90742 0.86854 0.5883 0.0
C992 C 0.86382 0.88331 0.50745 0.0
C993 C 0.88707 0.8745 0.45452 0.0
N994 N 0.90509 0.81944 0.43022 0.0
N995 N 0.85043 0.87275 0.62859 0.0
C996 C 0.90793 0.84743 0.46997 0.0
C997 C 0.87353 0.87733 0.57712 0.0
N998 N 0.94293 0.82126 0.55745 0.0
N999 N 0.83312 0.8962 0.49072 0.0
H1000 H 0.85763 0.86336 0.67715 0.0
H1001 H 0.82443 0.87431 0.62008 0.0
H1002 H 0.82534 0.89794 0.43913 0.0
H1003 H 0.81563 0.90376 0.52792 0.0
H1004 H 0.95327 0.80436 0.52225 0.0
H1005 H 0.94814 0.81606 0.6093 0.0
H1006 H 0.9147 0.79616 0.44519 0.0
H1007 H 0.88999 0.81957 0.38554 0.0
C1008 C 0.11097 0.06917 0.9842 0.0
C1009 C 0.12005 0.10031 0.9518 0.0
C1010 C 0.14778 0.1185 0.05968 0.0
C1011 C 0.13468 0.08971 0.09366 0.0
N1012 N 0.11369 0.03322 0.08679 0.0
N1013 N 0.14837 0.15417 0.95702 0.0
C1014 C 0.11929 0.06361 0.05531 0.0
C1015 C 0.139 0.12484 -0.01099 0.0
N1016 N 0.09308 0.04553 0.94775 0.0
N1017 N 0.17035 0.13846 0.09439 0.0
H1018 H 0.14432 0.15886 0.90428 0.0
H1019 H 0.15881 0.17461 0.98319 0.0
H1020 H 0.17843 0.13271 0.14478 0.0
H1021 H 0.18341 0.15849 0.0719 0.0
H1022 H 0.08216 0.02419 0.96975 0.0
H1023 H 0.08741 0.04784 0.89515 0.0
H1024 H 0.10514 0.01179 0.0613 0.0
H1025 H 0.12031 0.02855 0.13845 0.0
C1026 C 0.89017 0.65231 0.296 0.0
C1027 C 0.91003 0.62897 0.33398 0.0
C1028 C 0.93484 0.6088 0.22618 0.0
C1029 C 0.91143 0.6281 0.18707 0.0
N1030 N 0.86466 0.66671 0.18456 0.0
N1031 N 0.94415 0.57864 0.33241 0.0
C1032 C 0.88827 0.64941 0.22195 0.0
C1033 C 0.9302 0.60534 0.2983 0.0
N1034 N 0.87365 0.6773 0.33047 0.0
N1035 N 0.96243 0.59457 0.19558 0.0
H1036 H 0.94086 0.57436 0.3853 0.0
H1037 H 0.95601 0.5589 0.30659 0.0
H1038 H 0.96758 0.59624 0.14275 0.0
H1039 H 0.98201 0.58374 0.22419 0.0
H1040 H 0.86112 0.69684 0.30538 0.0
H1041 H 0.8751 0.68004 0.3844 0.0
H1042 H 0.84528 0.68047 0.20737 0.0
H1043 H 0.86298 0.66515 0.13046 0.0
C1044 C 0.3678 0.39616 0.57971 0.0
C1045 C 0.39521 0.3835 0.61956 0.0
C1046 C 0.41112 0.34961 0.51755 0.0
C1047 C 0.39371 0.37252 0.47422 0.0
N1048 N 0.34556 0.40977 0.46596 0.0
N1049 N 0.43604 0.33796 0.62918 0.0
C1050 C 0.36883 0.39341 0.5058 0.0
C1051 C 0.41476 0.35697 0.5896 0.0
N1052 N 0.33959 0.40794 0.61253 0.0
N1053 N 0.42148 0.31952 0.49125 0.0
H1054 H 0.4337 0.33558 0.68277 0.0
H1055 H 0.45521 0.32333 0.60784 0.0
H1056 H 0.41436 0.31145 0.44173 0.0
H1057 H 0.43239 0.30069 0.5214 0.0
H1058 H 0.31777 0.41541 0.58642 0.0
H1059 H 0.33607 0.40535 0.66607 0.0
H1060 H 0.33064 0.42929 0.4847 0.0
H1061 H 0.3408 0.40328 0.41446 0.0
C1062 C 0.64165 0.92894 0.78336 0.0
C1063 C 0.6429 0.89971 0.74152 0.0
C1064 C 0.63604 0.86456 0.84586 0.0
C1065 C 0.63213 0.89413 0.8864 0.0
N1066 N 0.65599 0.95047 0.89618 0.0
N1067 N 0.658 0.84149 0.73801 0.0
C1068 C 0.64281 0.92523 0.8564 0.0
C1069 C 0.64513 0.86785 0.77431 0.0
N1070 N 0.63773 0.96015 0.75483 0.0
N1071 N 0.63225 0.83362 0.8756 0.0
H1072 H 0.66872 0.84512 0.68893 0.0
H1073 H 0.66254 0.81797 0.75989 0.0
H1074 H 0.63111 0.83018 0.92937 0.0
H1075 H 0.6305 0.81155 0.84665 0.0
H1076 H 0.63326 0.98134 0.7853 0.0
H1077 H 0.63624 0.96466 0.70157 0.0
H1078 H 0.66525 0.97278 0.8746 0.0
H1079 H 0.66331 0.94685 0.94774 0.0
C1080 C 0.08519 0.40914 0.31055 0.0
C1081 C 0.10047 0.38273 0.34757 0.0
C1082 C 0.13836 0.37321 0.24837 0.0
C1083 C 0.12626 0.40331 0.21758 0.0
N1084 N 0.09574 0.455 0.2318 0.0
N1085 N 0.14291 0.33978 0.35441 0.0
C1086 C 0.10204 0.42287 0.25274 0.0
C1087 C 0.12747 0.36456 0.31715 0.0
N1088 N 0.05458 0.42122 0.33119 0.0
N1089 N 0.1598 0.35306 0.21195 0.0
H1090 H 0.13407 0.33225 0.40326 0.0
H1091 H 0.16487 0.32777 0.33803 0.0
H1092 H 0.16942 0.36006 0.16341 0.0
H1093 H 0.16682 0.32917 0.22864 0.0
H1094 H 0.04116 0.4389 0.30215 0.0
H1095 H 0.04149 0.41095 0.37348 0.0
H1096 H 0.08018 0.47117 0.25988 0.0
H1097 H 0.10895 0.46627 0.19087 0.0
C1098 C 0.64292 0.56653 0.51084 0.0
C1099 C 0.65501 0.59643 0.5419 0.0
C1100 C 0.65403 0.62469 0.42809 0.0
C1101 C 0.63568 0.59696 0.40079 0.0
N1102 N 0.6101 0.54216 0.41755 0.0
N1103 N 0.6771 0.65229 0.53054 0.0
C1104 C 0.62994 0.56779 0.44211 0.0
C1105 C 0.66242 0.62494 0.50017 0.0
N1106 N 0.64348 0.53701 0.54726 0.0
N1107 N 0.66388 0.65027 0.38486 0.0
H1108 H 0.68728 0.65086 0.58054 0.0
H1109 H 0.67948 0.67573 0.50684 0.0
H1110 H 0.65802 0.6507 0.33192 0.0
H1111 H 0.67964 0.66996 0.39999 0.0
H1112 H 0.63781 0.51379 0.5251 0.0
H1113 H 0.65316 0.53513 0.59751 0.0
H1114 H 0.60153 0.52232 0.44844 0.0
H1115 H 0.5995 0.54208 0.36795 0.0
C1116 C 0.4235 0.1545 0.75932 0.0
C1117 C 0.39787 0.13769 0.71959 0.0
C1118 C 0.36318 0.13224 0.82397 0.0
C1119 C 0.39189 0.14103 0.86537 0.0
N1120 N 0.4379 0.18092 0.86933 0.0
N1121 N 0.3374 0.13444 0.70955 0.0
C1122 C 0.41884 0.15845 0.83239 0.0
C1123 C 0.36567 0.13377 0.75037 0.0
N1124 N 0.45158 0.16772 0.72805 0.0
N1125 N 0.33347 0.12275 0.8543 0.0
H1126 H 0.33867 0.13884 0.65603 0.0
H1127 H 0.31303 0.13598 0.7298 0.0
H1128 H 0.32843 0.12692 0.90652 0.0
H1129 H 0.31383 0.11119 0.82702 0.0
H1130 H 0.47352 0.1739 0.75538 0.0
H1131 H 0.45227 0.17439 0.67568 0.0
H1132 H 0.45663 0.19605 0.8473 0.0
H1133 H 0.43147 0.18819 0.9197 0.0
C1134 C 0.91195 0.94125 0.05671 0.0
C1135 C 0.89561 0.9155 0.09491 0.0
C1136 C 0.89153 0.88026 -0.00908 0.0
C1137 C 0.90972 0.90511 0.95292 0.0
N1138 N 0.93141 0.96221 0.94536 0.0
N1139 N 0.85897 0.86742 0.09496 0.0
C1140 C 0.91794 0.93664 0.98444 0.0
C1141 C 0.88218 0.88696 0.06091 0.0
N1142 N 0.92258 0.96966 0.0903 0.0
N1143 N 0.88305 0.85041 0.96026 0.0
H1144 H 0.85041 0.87347 0.1448 0.0
H1145 H 0.84579 0.84765 0.07191 0.0
H1146 H 0.88736 0.84531 0.90782 0.0
H1147 H 0.87336 0.82992 0.98769 0.0
H1148 H 0.93866 0.98763 0.06869 0.0
H1149 H 0.91612 0.97483 0.14179 0.0
H1150 H 0.93397 0.98684 0.96261 0.0
H1151 H 0.93884 0.95953 0.89379 0.0
loop_
_geom_bond_atom_site_label_1
_geom_bond_atom_site_label_2
_geom_bond_distance
_geom_bond_site_symmetry_2
_ccdc_geom_bond_type
Mn0 O5 2.095 . S
Mn0 O15 2.162 . S
Mn0 O16 2.297 . S
Mn0 O24 2.385 . S
Mn0 O25 2.209 . S
Mn0 O26 2.094 . S
Mn1 O6 2.121 . S
Mn1 N8 2.257 . S
Mn1 N17 2.282 . S
Mn1 O25 2.215 . S
Mn1 O27 2.117 . S
C2 O24 1.234 . S
C2 O25 1.283 . S
C3 O15 1.281 . S
C3 O16 1.236 . S
C4 O26 1.240 . S
C4 O27 1.264 . S
O5 Mn0 2.095 . S
O5 C14 1.250 . S
O6 Mn1 2.121 . S
O6 C14 1.258 . S
C7 N8 1.326 . S
C7 C11 1.460 . S
C7 H13 0.929 . S
N8 Mn1 2.257 . S
N8 C7 1.326 . S
N8 C12 1.362 . S
C9 C10 1.258 . S
C9 C12 1.431 . S
C9 C29 1.449 1_455 S
C10 C9 1.258 . S
C10 C11 1.477 . S
C10 H30 0.931 . S
C11 C7 1.460 . S
C11 C10 1.477 . S
C11 H31 0.930 . S
C12 N8 1.362 . S
C12 C9 1.431 . S
C12 C22 1.476 . S
H13 C7 0.929 . S
C14 O5 1.250 . S
C14 O6 1.258 . S
O15 Mn0 2.162 . S
O15 C3 1.281 . S
O16 Mn0 2.297 . S
O16 C3 1.236 . S
N17 Mn1 2.282 . S
N17 C18 1.328 . S
N17 C22 1.318 . S
C18 N17 1.328 . S
C18 C19 1.457 1_455 S
C18 H23 0.929 . S
C19 C18 1.457 1_655 S
C19 C20 1.291 . S
C19 H32 0.931 . S
C20 C19 1.291 . S
C20 C21 1.373 . S
C20 H33 0.929 . S
C21 C20 1.373 . S
C21 C22 1.396 1_655 S
C21 C28 1.403 . S
C22 C12 1.476 . S
C22 N17 1.318 . S
C22 C21 1.396 1_455 S
H23 C18 0.929 . S
O24 Mn0 2.385 . S
O24 C2 1.234 . S
O25 Mn0 2.209 . S
O25 Mn1 2.215 . S
O25 C2 1.283 . S
O26 Mn0 2.094 . S
O26 C4 1.240 . S
O27 Mn1 2.117 . S
O27 C4 1.264 . S
C28 C21 1.403 . S
C28 C29 1.399 . S
C28 H34 0.929 . S
C29 C9 1.449 1_655 S
C29 C28 1.399 . S
C29 H35 0.930 . S
H30 C10 0.931 . S
H31 C11 0.930 . S
H32 C19 0.931 . S
H33 C20 0.929 . S
H34 C28 0.929 . S
H35 C29 0.930 . S
Mn36 O41 2.095 . S
Mn36 O51 2.162 . S
Mn36 O52 2.297 . S
Mn36 O60 2.385 . S
Mn36 O61 2.209 . S
Mn36 O62 2.094 . S
Mn37 O42 2.121 . S
Mn37 N44 2.257 . S
Mn37 N53 2.282 . S
Mn37 O61 2.215 . S
Mn37 O63 2.117 . S
C38 O60 1.234 . S
C38 O61 1.283 . S
C39 O51 1.281 . S
C39 O52 1.236 . S
C40 O62 1.240 . S
C40 O63 1.264 . S
O41 Mn36 2.095 . S
O41 C50 1.250 . S
O42 Mn37 2.121 . S
O42 C50 1.258 . S
C43 N44 1.326 . S
C43 C47 1.460 . S
C43 H49 0.929 . S
N44 Mn37 2.257 . S
N44 C43 1.326 . S
N44 C48 1.362 . S
C45 C46 1.258 . S
C45 C48 1.431 . S
C45 C65 1.449 . S
C46 C45 1.258 . S
C46 C47 1.477 . S
C46 H66 0.931 . S
C47 C43 1.460 . S
C47 C46 1.477 . S
C47 H67 0.930 . S
C48 N44 1.362 . S
C48 C45 1.431 . S
C48 C58 1.476 . S
H49 C43 0.929 . S
C50 O41 1.250 . S
C50 O42 1.258 . S
O51 Mn36 2.162 . S
O51 C39 1.281 . S
O52 Mn36 2.297 . S
O52 C39 1.236 . S
N53 Mn37 2.282 . S
N53 C54 1.328 . S
N53 C58 1.318 . S
C54 N53 1.328 . S
C54 C55 1.457 . S
C54 H59 0.929 . S
C55 C54 1.457 . S
C55 C56 1.291 . S
C55 H68 0.931 . S
C56 C55 1.291 . S
C56 C57 1.373 . S
C56 H69 0.929 . S
C57 C56 1.373 . S
C57 C58 1.396 . S
C57 C64 1.403 . S
C58 C48 1.476 . S
C58 N53 1.318 . S
C58 C57 1.396 . S
H59 C54 0.929 . S
O60 Mn36 2.385 . S
O60 C38 1.234 . S
O61 Mn36 2.209 . S
O61 Mn37 2.215 . S
O61 C38 1.283 . S
O62 Mn36 2.094 . S
O62 C40 1.240 . S
O63 Mn37 2.117 . S
O63 C40 1.264 . S
C64 C57 1.403 . S
C64 C65 1.399 . S
C64 H70 0.929 . S
C65 C45 1.449 . S
C65 C64 1.399 . S
C65 H71 0.930 . S
H66 C46 0.931 . S
H67 C47 0.930 . S
H68 C55 0.931 . S
H69 C56 0.929 . S
H70 C64 0.929 . S
H71 C65 0.930 . S
Mn72 O77 2.095 . S
Mn72 O87 2.162 . S
Mn72 O88 2.297 . S
Mn72 O96 2.385 . S
Mn72 O97 2.209 . S
Mn72 O98 2.094 . S
Mn73 O78 2.121 . S
Mn73 N80 2.257 . S
Mn73 N89 2.282 . S
Mn73 O97 2.215 . S
Mn73 O99 2.117 . S
C74 O96 1.234 . S
C74 O97 1.283 . S
C75 O87 1.281 . S
C75 O88 1.236 . S
C76 O98 1.240 . S
C76 O99 1.264 . S
O77 Mn72 2.095 . S
O77 C86 1.250 . S
O78 Mn73 2.121 . S
O78 C86 1.258 . S
C79 N80 1.326 . S
C79 C83 1.460 . S
C79 H85 0.929 . S
N80 Mn73 2.257 . S
N80 C79 1.326 . S
N80 C84 1.362 . S
C81 C82 1.258 . S
C81 C84 1.431 . S
C81 C101 1.449 . S
C82 C81 1.258 . S
C82 C83 1.477 . S
C82 H102 0.931 . S
C83 C79 1.460 . S
C83 C82 1.477 . S
C83 H103 0.930 . S
C84 N80 1.362 . S
C84 C81 1.431 . S
C84 C94 1.476 . S
H85 C79 0.929 . S
C86 O77 1.250 . S
C86 O78 1.258 . S
O87 Mn72 2.162 . S
O87 C75 1.281 . S
O88 Mn72 2.297 . S
O88 C75 1.236 . S
N89 Mn73 2.282 . S
N89 C90 1.328 . S
N89 C94 1.318 . S
C90 N89 1.328 . S
C90 C91 1.457 1_556 S
C90 H95 0.929 . S
C91 C90 1.457 1_554 S
C91 C92 1.291 . S
C91 H104 0.931 . S
C92 C91 1.291 . S
C92 C93 1.373 1_554 S
C92 H105 0.929 . S
C93 C92 1.373 1_556 S
C93 C94 1.396 . S
C93 C100 1.403 1_556 S
C94 C84 1.476 . S
C94 N89 1.318 . S
C94 C93 1.396 . S
H95 C90 0.929 . S
O96 Mn72 2.385 . S
O96 C74 1.234 . S
O97 Mn72 2.209 . S
O97 Mn73 2.215 . S
O97 C74 1.283 . S
O98 Mn72 2.094 . S
O98 C76 1.240 . S
O99 Mn73 2.117 . S
O99 C76 1.264 . S
C100 C93 1.403 1_554 S
C100 C101 1.399 1_554 S
C100 H106 0.929 . S
C101 C81 1.449 . S
C101 C100 1.399 1_556 S
C101 H107 0.930 . S
H102 C82 0.931 . S
H103 C83 0.930 . S
H104 C91 0.931 . S
H105 C92 0.929 . S
H106 C100 0.929 . S
H107 C101 0.930 . S
Mn108 O113 2.095 1_554 S
Mn108 O123 2.162 . S
Mn108 O124 2.297 . S
Mn108 O132 2.385 . S
Mn108 O133 2.209 . S
Mn108 O134 2.094 . S
Mn109 O114 2.121 1_554 S
Mn109 N116 2.257 . S
Mn109 N125 2.282 . S
Mn109 O133 2.215 . S
Mn109 O135 2.117 . S
C110 O132 1.234 . S
C110 O133 1.283 . S
C111 O123 1.281 . S
C111 O124 1.236 . S
C112 O134 1.240 . S
C112 O135 1.264 . S
O113 Mn108 2.095 1_556 S
O113 C122 1.250 . S
O114 Mn109 2.121 1_556 S
O114 C122 1.258 . S
C115 N116 1.326 . S
C115 C119 1.460 . S
C115 H121 0.929 1_554 S
N116 Mn109 2.257 . S
N116 C115 1.326 . S
N116 C120 1.362 . S
C117 C118 1.258 . S
C117 C120 1.431 . S
C117 C137 1.449 1_565 S
C118 C117 1.258 . S
C118 C119 1.477 . S
C118 H138 0.931 . S
C119 C115 1.460 . S
C119 C118 1.477 . S
C119 H139 0.930 . S
C120 N116 1.362 . S
C120 C117 1.431 . S
C120 C130 1.476 . S
H121 C115 0.929 1_556 S
C122 O113 1.250 . S
C122 O114 1.258 . S
O123 Mn108 2.162 . S
O123 C111 1.281 . S
O124 Mn108 2.297 . S
O124 C111 1.236 . S
N125 Mn109 2.282 . S
N125 C126 1.328 . S
N125 C130 1.318 . S
C126 N125 1.328 . S
C126 C127 1.457 1_565 S
C126 H131 0.929 . S
C127 C126 1.457 1_545 S
C127 C128 1.291 . S
C127 H140 0.931 . S
C128 C127 1.291 . S
C128 C129 1.373 . S
C128 H141 0.929 . S
C129 C128 1.373 . S
C129 C130 1.396 1_545 S
C129 C136 1.403 . S
C130 C120 1.476 . S
C130 N125 1.318 . S
C130 C129 1.396 1_565 S
H131 C126 0.929 . S
O132 Mn108 2.385 . S
O132 C110 1.234 . S
O133 Mn108 2.209 . S
O133 Mn109 2.215 . S
O133 C110 1.283 . S
O134 Mn108 2.094 . S
O134 C112 1.240 . S
O135 Mn109 2.117 . S
O135 C112 1.264 . S
C136 C129 1.403 . S
C136 C137 1.399 . S
C136 H142 0.929 . S
C137 C117 1.449 1_545 S
C137 C136 1.399 . S
C137 H143 0.930 . S
H138 C118 0.931 . S
H139 C119 0.930 . S
H140 C127 0.931 . S
H141 C128 0.929 . S
H142 C136 0.929 . S
H143 C137 0.930 . S
Mn144 O149 2.093 1_556 S
Mn144 O159 2.162 . S
Mn144 O160 2.297 . S
Mn144 O168 2.387 . S
Mn144 O169 2.209 . S
Mn144 O170 2.094 1_556 S
Mn145 O150 2.121 . S
Mn145 N152 2.257 1_554 S
Mn145 N161 2.282 1_554 S
Mn145 O169 2.215 1_554 S
Mn145 O171 2.117 . S
C146 O168 1.234 . S
C146 O169 1.283 . S
C147 O159 1.281 . S
C147 O160 1.236 . S
C148 O170 1.240 . S
C148 O171 1.264 . S
O149 Mn144 2.093 1_554 S
O149 C158 1.250 . S
O150 Mn145 2.121 . S
O150 C158 1.258 . S
C151 N152 1.326 1_554 S
C151 C155 1.460 . S
C151 H157 0.929 . S
N152 Mn145 2.257 1_556 S
N152 C151 1.326 1_556 S
N152 C156 1.362 . S
C153 C154 1.258 . S
C153 C156 1.431 . S
C153 C173 1.449 1_455 S
C154 C153 1.258 . S
C154 C155 1.477 1_556 S
C154 H174 0.931 . S
C155 C151 1.460 . S
C155 C154 1.477 1_554 S
C155 H175 0.930 . S
C156 N152 1.362 . S
C156 C153 1.431 . S
C156 C166 1.476 . S
H157 C151 0.929 . S
C158 O149 1.250 . S
C158 O150 1.258 . S
O159 Mn144 2.162 . S
O159 C147 1.281 . S
O160 Mn144 2.297 . S
O160 C147 1.236 . S
N161 Mn145 2.282 1_556 S
N161 C162 1.328 . S
N161 C166 1.318 . S
C162 N161 1.328 . S
C162 C163 1.457 1_455 S
C162 H167 0.929 . S
C163 C162 1.457 1_655 S
C163 C164 1.291 . S
C163 H176 0.931 . S
C164 C163 1.291 . S
C164 C165 1.373 . S
C164 H177 0.929 . S
C165 C164 1.373 . S
C165 C166 1.396 1_655 S
C165 C172 1.403 . S
C166 C156 1.476 . S
C166 N161 1.318 . S
C166 C165 1.396 1_455 S
H167 C162 0.929 . S
O168 Mn144 2.387 . S
O168 C146 1.234 . S
O169 Mn144 2.209 . S
O169 Mn145 2.215 1_556 S
O169 C146 1.283 . S
O170 Mn144 2.094 1_554 S
O170 C148 1.240 . S
O171 Mn145 2.117 . S
O171 C148 1.264 . S
C172 C165 1.403 . S
C172 C173 1.399 . S
C172 H178 0.929 . S
C173 C153 1.449 1_655 S
C173 C172 1.399 . S
C173 H179 0.930 . S
H174 C154 0.931 . S
H175 C155 0.930 . S
H176 C163 0.931 . S
H177 C164 0.929 . S
H178 C172 0.929 . S
H179 C173 0.930 . S
Mn180 O185 2.095 . S
Mn180 O195 2.162 . S
Mn180 O196 2.297 . S
Mn180 O204 2.385 . S
Mn180 O205 2.209 . S
Mn180 O206 2.094 . S
Mn181 O186 2.121 . S
Mn181 N188 2.257 . S
Mn181 N197 2.282 . S
Mn181 O205 2.215 . S
Mn181 O207 2.117 . S
C182 O204 1.234 . S
C182 O205 1.283 . S
C183 O195 1.281 . S
C183 O196 1.236 . S
C184 O206 1.240 . S
C184 O207 1.264 . S
O185 Mn180 2.095 . S
O185 C194 1.250 . S
O186 Mn181 2.121 . S
O186 C194 1.258 . S
C187 N188 1.326 . S
C187 C191 1.460 . S
C187 H193 0.929 . S
N188 Mn181 2.257 . S
N188 C187 1.326 . S
N188 C192 1.362 . S
C189 C190 1.258 . S
C189 C192 1.431 . S
C189 C209 1.449 . S
C190 C189 1.258 . S
C190 C191 1.477 . S
C190 H210 0.931 . S
C191 C187 1.460 . S
C191 C190 1.477 . S
C191 H211 0.930 . S
C192 N188 1.362 . S
C192 C189 1.431 . S
C192 C202 1.476 . S
H193 C187 0.929 . S
C194 O185 1.250 . S
C194 O186 1.258 . S
O195 Mn180 2.162 . S
O195 C183 1.281 . S
O196 Mn180 2.297 . S
O196 C183 1.236 . S
N197 Mn181 2.282 . S
N197 C198 1.328 . S
N197 C202 1.318 . S
C198 N197 1.328 . S
C198 C199 1.457 . S
C198 H203 0.929 . S
C199 C198 1.457 . S
C199 C200 1.291 . S
C199 H212 0.931 . S
C200 C199 1.291 . S
C200 C201 1.373 . S
C200 H213 0.929 1_554 S
C201 C200 1.373 . S
C201 C202 1.396 . S
C201 C208 1.403 . S
C202 C192 1.476 . S
C202 N197 1.318 . S
C202 C201 1.396 . S
H203 C198 0.929 . S
O204 Mn180 2.385 . S
O204 C182 1.234 . S
O205 Mn180 2.209 . S
O205 Mn181 2.215 . S
O205 C182 1.283 . S
O206 Mn180 2.094 . S
O206 C184 1.240 . S
O207 Mn181 2.117 . S
O207 C184 1.264 . S
C208 C201 1.403 . S
C208 C209 1.399 . S
C208 H214 0.929 . S
C209 C189 1.449 . S
C209 C208 1.399 . S
C209 H215 0.930 . S
H210 C190 0.931 . S
H211 C191 0.930 . S
H212 C199 0.931 . S
H213 C200 0.929 1_556 S
H214 C208 0.929 . S
H215 C209 0.930 . S
Mn216 O221 2.095 . S
Mn216 O231 2.162 . S
Mn216 O232 2.297 . S
Mn216 O240 2.385 . S
Mn216 O241 2.209 . S
Mn216 O242 2.094 . S
Mn217 O222 2.121 . S
Mn217 N224 2.257 . S
Mn217 N233 2.282 . S
Mn217 O241 2.215 . S
Mn217 O243 2.117 . S
C218 O240 1.234 . S
C218 O241 1.283 . S
C219 O231 1.281 . S
C219 O232 1.236 . S
C220 O242 1.240 . S
C220 O243 1.264 . S
O221 Mn216 2.095 . S
O221 C230 1.250 . S
O222 Mn217 2.121 . S
O222 C230 1.258 . S
C223 N224 1.326 . S
C223 C227 1.460 . S
C223 H229 0.929 . S
N224 Mn217 2.257 . S
N224 C223 1.326 . S
N224 C228 1.362 . S
C225 C226 1.258 . S
C225 C228 1.431 . S
C225 C245 1.449 . S
C226 C225 1.258 . S
C226 C227 1.477 . S
C226 H246 0.931 . S
C227 C223 1.460 . S
C227 C226 1.477 . S
C227 H247 0.930 . S
C228 N224 1.362 . S
C228 C225 1.431 . S
C228 C238 1.476 . S
H229 C223 0.929 . S
C230 O221 1.250 . S
C230 O222 1.258 . S
O231 Mn216 2.162 . S
O231 C219 1.281 . S
O232 Mn216 2.297 . S
O232 C219 1.236 . S
N233 Mn217 2.282 . S
N233 C234 1.328 . S
N233 C238 1.318 . S
C234 N233 1.328 . S
C234 C235 1.457 . S
C234 H239 0.929 . S
C235 C234 1.457 . S
C235 C236 1.291 . S
C235 H248 0.931 . S
C236 C235 1.291 . S
C236 C237 1.373 . S
C236 H249 0.929 . S
C237 C236 1.373 . S
C237 C238 1.396 . S
C237 C244 1.403 . S
C238 C228 1.476 . S
C238 N233 1.318 . S
C238 C237 1.396 . S
H239 C234 0.929 . S
O240 Mn216 2.385 . S
O240 C218 1.234 . S
O241 Mn216 2.209 . S
O241 Mn217 2.215 . S
O241 C218 1.283 . S
O242 Mn216 2.094 . S
O242 C220 1.240 . S
O243 Mn217 2.117 . S
O243 C220 1.264 . S
C244 C237 1.403 . S
C244 C245 1.399 . S
C244 H250 0.929 . S
C245 C225 1.449 . S
C245 C244 1.399 . S
C245 H251 0.930 . S
H246 C226 0.931 . S
H247 C227 0.930 . S
H248 C235 0.931 . S
H249 C236 0.929 . S
H250 C244 0.929 . S
H251 C245 0.930 . S
Mn252 O257 2.095 . S
Mn252 O267 2.162 . S
Mn252 O268 2.297 . S
Mn252 O276 2.385 . S
Mn252 O277 2.209 . S
Mn252 O278 2.094 . S
Mn253 O258 2.121 . S
Mn253 N260 2.257 . S
Mn253 N269 2.282 . S
Mn253 O277 2.215 . S
Mn253 O279 2.117 . S
C254 O276 1.234 . S
C254 O277 1.283 . S
C255 O267 1.281 . S
C255 O268 1.236 . S
C256 O278 1.240 . S
C256 O279 1.264 . S
O257 Mn252 2.095 . S
O257 C266 1.250 . S
O258 Mn253 2.121 . S
O258 C266 1.258 . S
C259 N260 1.326 . S
C259 C263 1.460 . S
C259 H265 0.929 . S
N260 Mn253 2.257 . S
N260 C259 1.326 . S
N260 C264 1.362 . S
C261 C262 1.258 . S
C261 C264 1.431 . S
C261 C281 1.449 1_565 S
C262 C261 1.258 . S
C262 C263 1.477 . S
C262 H282 0.931 . S
C263 C259 1.460 . S
C263 C262 1.477 . S
C263 H283 0.930 . S
C264 N260 1.362 . S
C264 C261 1.431 . S
C264 C274 1.476 . S
H265 C259 0.929 . S
C266 O257 1.250 . S
C266 O258 1.258 . S
O267 Mn252 2.162 . S
O267 C255 1.281 . S
O268 Mn252 2.297 . S
O268 C255 1.236 . S
N269 Mn253 2.282 . S
N269 C270 1.328 . S
N269 C274 1.318 . S
C270 N269 1.328 . S
C270 C271 1.457 1_565 S
C270 H275 0.929 . S
C271 C270 1.457 1_545 S
C271 C272 1.291 . S
C271 H284 0.931 . S
C272 C271 1.291 . S
C272 C273 1.373 . S
C272 H285 0.929 . S
C273 C272 1.373 . S
C273 C274 1.396 1_545 S
C273 C280 1.403 . S
C274 C264 1.476 . S
C274 N269 1.318 . S
C274 C273 1.396 1_565 S
H275 C270 0.929 . S
O276 Mn252 2.385 . S
O276 C254 1.234 . S
O277 Mn252 2.209 . S
O277 Mn253 2.215 . S
O277 C254 1.283 . S
O278 Mn252 2.094 . S
O278 C256 1.240 . S
O279 Mn253 2.117 . S
O279 C256 1.264 . S
C280 C273 1.403 . S
C280 C281 1.399 . S
C280 H286 0.929 . S
C281 C261 1.449 1_545 S
C281 C280 1.399 . S
C281 H287 0.930 . S
H282 C262 0.931 . S
H283 C263 0.930 . S
H284 C271 0.931 . S
H285 C272 0.929 . S
H286 C280 0.929 . S
H287 C281 0.930 . S
Mn288 O293 2.095 . S
Mn288 O303 2.162 . S
Mn288 O304 2.297 . S
Mn288 O312 2.385 . S
Mn288 O313 2.209 . S
Mn288 O314 2.094 . S
Mn289 O294 2.121 . S
Mn289 N296 2.257 . S
Mn289 N305 2.282 . S
Mn289 O313 2.215 . S
Mn289 O315 2.117 . S
C290 O312 1.234 . S
C290 O313 1.283 . S
C291 O303 1.281 . S
C291 O304 1.236 . S
C292 O314 1.240 . S
C292 O315 1.264 . S
O293 Mn288 2.095 . S
O293 C302 1.250 . S
O294 Mn289 2.121 . S
O294 C302 1.258 . S
C295 N296 1.326 . S
C295 C299 1.460 . S
C295 H301 0.929 . S
N296 Mn289 2.257 . S
N296 C295 1.326 . S
N296 C300 1.362 . S
C297 C298 1.258 . S
C297 C300 1.431 . S
C297 C317 1.449 . S
C298 C297 1.258 . S
C298 C299 1.477 . S
C298 H318 0.931 . S
C299 C295 1.460 . S
C299 C298 1.477 . S
C299 H319 0.930 . S
C300 N296 1.362 . S
C300 C297 1.431 . S
C300 C310 1.476 . S
H301 C295 0.929 . S
C302 O293 1.250 . S
C302 O294 1.258 . S
O303 Mn288 2.162 . S
O303 C291 1.281 . S
O304 Mn288 2.297 . S
O304 C291 1.236 . S
N305 Mn289 2.282 . S
N305 C306 1.328 . S
N305 C310 1.318 . S
C306 N305 1.328 . S
C306 C307 1.457 1_556 S
C306 H311 0.929 . S
C307 C306 1.457 1_554 S
C307 C308 1.291 . S
C307 H320 0.931 . S
C308 C307 1.291 . S
C308 C309 1.373 1_554 S
C308 H321 0.929 . S
C309 C308 1.373 1_556 S
C309 C310 1.396 . S
C309 C316 1.403 1_556 S
C310 C300 1.476 . S
C310 N305 1.318 . S
C310 C309 1.396 . S
H311 C306 0.929 . S
O312 Mn288 2.385 . S
O312 C290 1.234 . S
O313 Mn288 2.209 . S
O313 Mn289 2.215 . S
O313 C290 1.283 . S
O314 Mn288 2.094 . S
O314 C292 1.240 . S
O315 Mn289 2.117 . S
O315 C292 1.264 . S
C316 C309 1.403 1_554 S
C316 C317 1.399 1_554 S
C316 H322 0.929 . S
C317 C297 1.449 . S
C317 C316 1.399 1_556 S
C317 H323 0.930 . S
H318 C298 0.931 . S
H319 C299 0.930 . S
H320 C307 0.931 . S
H321 C308 0.929 . S
H322 C316 0.929 . S
H323 C317 0.930 . S
Mn324 O329 2.095 1_554 S
Mn324 O339 2.162 . S
Mn324 O340 2.297 . S
Mn324 O348 2.385 . S
Mn324 O349 2.209 . S
Mn324 O350 2.094 . S
Mn325 O330 2.121 1_554 S
Mn325 N332 2.257 . S
Mn325 N341 2.282 . S
Mn325 O349 2.215 . S
Mn325 O351 2.117 . S
C326 O348 1.234 . S
C326 O349 1.283 . S
C327 O339 1.281 . S
C327 O340 1.236 . S
C328 O350 1.240 . S
C328 O351 1.264 . S
O329 Mn324 2.095 1_556 S
O329 C338 1.250 . S
O330 Mn325 2.121 1_556 S
O330 C338 1.258 . S
C331 N332 1.326 . S
C331 C335 1.460 . S
C331 H337 0.929 1_554 S
N332 Mn325 2.257 . S
N332 C331 1.326 . S
N332 C336 1.362 . S
C333 C334 1.258 . S
C333 C336 1.431 . S
C333 C353 1.449 1_545 S
C334 C333 1.258 . S
C334 C335 1.477 . S
C334 H354 0.931 . S
C335 C331 1.460 . S
C335 C334 1.477 . S
C335 H355 0.930 . S
C336 N332 1.362 . S
C336 C333 1.431 . S
C336 C346 1.476 . S
H337 C331 0.929 1_556 S
C338 O329 1.250 . S
C338 O330 1.258 . S
O339 Mn324 2.162 . S
O339 C327 1.281 . S
O340 Mn324 2.297 . S
O340 C327 1.236 . S
N341 Mn325 2.282 . S
N341 C342 1.328 . S
N341 C346 1.318 . S
C342 N341 1.328 . S
C342 C343 1.457 1_545 S
C342 H347 0.929 . S
C343 C342 1.457 1_565 S
C343 C344 1.291 . S
C343 H356 0.931 . S
C344 C343 1.291 . S
C344 C345 1.373 . S
C344 H357 0.929 . S
C345 C344 1.373 . S
C345 C346 1.396 1_565 S
C345 C352 1.403 . S
C346 C336 1.476 . S
C346 N341 1.318 . S
C346 C345 1.396 1_545 S
H347 C342 0.929 . S
O348 Mn324 2.385 . S
O348 C326 1.234 . S
O349 Mn324 2.209 . S
O349 Mn325 2.215 . S
O349 C326 1.283 . S
O350 Mn324 2.094 . S
O350 C328 1.240 . S
O351 Mn325 2.117 . S
O351 C328 1.264 . S
C352 C345 1.403 . S
C352 C353 1.399 . S
C352 H358 0.929 . S
C353 C333 1.449 1_565 S
C353 C352 1.399 . S
C353 H359 0.930 . S
H354 C334 0.931 . S
H355 C335 0.930 . S
H356 C343 0.931 . S
H357 C344 0.929 . S
H358 C352 0.929 . S
H359 C353 0.930 . S
Mn360 O365 2.095 . S
Mn360 O375 2.162 . S
Mn360 O376 2.297 . S
Mn360 O384 2.385 . S
Mn360 O385 2.209 . S
Mn360 O386 2.094 . S
Mn361 O366 2.121 . S
Mn361 N368 2.257 . S
Mn361 N377 2.282 . S
Mn361 O385 2.215 . S
Mn361 O387 2.117 . S
C362 O384 1.234 . S
C362 O385 1.283 . S
C363 O375 1.281 . S
C363 O376 1.236 . S
C364 O386 1.240 . S
C364 O387 1.264 . S
O365 Mn360 2.095 . S
O365 C374 1.250 . S
O366 Mn361 2.121 . S
O366 C374 1.258 . S
C367 N368 1.326 . S
C367 C371 1.460 . S
C367 H373 0.929 . S
N368 Mn361 2.257 . S
N368 C367 1.326 . S
N368 C372 1.362 . S
C369 C370 1.258 . S
C369 C372 1.431 . S
C369 C389 1.449 1_655 S
C370 C369 1.258 . S
C370 C371 1.477 . S
C370 H390 0.931 . S
C371 C367 1.460 . S
C371 C370 1.477 . S
C371 H391 0.930 . S
C372 N368 1.362 . S
C372 C369 1.431 . S
C372 C382 1.476 . S
H373 C367 0.929 . S
C374 O365 1.250 . S
C374 O366 1.258 . S
O375 Mn360 2.162 . S
O375 C363 1.281 . S
O376 Mn360 2.297 . S
O376 C363 1.236 . S
N377 Mn361 2.282 . S
N377 C378 1.328 . S
N377 C382 1.318 . S
C378 N377 1.328 . S
C378 C379 1.457 1_655 S
C378 H383 0.929 . S
C379 C378 1.457 1_455 S
C379 C380 1.291 . S
C379 H392 0.931 . S
C380 C379 1.291 . S
C380 C381 1.373 . S
C380 H393 0.929 . S
C381 C380 1.373 . S
C381 C382 1.396 1_455 S
C381 C388 1.403 . S
C382 C372 1.476 . S
C382 N377 1.318 . S
C382 C381 1.396 1_655 S
H383 C378 0.929 . S
O384 Mn360 2.385 . S
O384 C362 1.234 . S
O385 Mn360 2.209 . S
O385 Mn361 2.215 . S
O385 C362 1.283 . S
O386 Mn360 2.094 . S
O386 C364 1.240 . S
O387 Mn361 2.117 . S
O387 C364 1.264 . S
C388 C381 1.403 . S
C388 C389 1.399 . S
C388 H394 0.929 . S
C389 C369 1.449 1_455 S
C389 C388 1.399 . S
C389 H395 0.930 . S
H390 C370 0.931 . S
H391 C371 0.930 . S
H392 C379 0.931 . S
H393 C380 0.929 . S
H394 C388 0.929 . S
H395 C389 0.930 . S
Mn396 O401 2.095 . S
Mn396 O411 2.162 . S
Mn396 O412 2.297 . S
Mn396 O420 2.385 . S
Mn396 O421 2.209 . S
Mn396 O422 2.094 . S
Mn397 O402 2.121 . S
Mn397 N404 2.257 . S
Mn397 N413 2.282 . S
Mn397 O421 2.215 . S
Mn397 O423 2.117 . S
C398 O420 1.234 . S
C398 O421 1.283 . S
C399 O411 1.281 . S
C399 O412 1.236 . S
C400 O422 1.240 . S
C400 O423 1.264 . S
O401 Mn396 2.095 . S
O401 C410 1.250 . S
O402 Mn397 2.121 . S
O402 C410 1.258 . S
C403 N404 1.326 . S
C403 C407 1.460 . S
C403 H409 0.929 . S
N404 Mn397 2.257 . S
N404 C403 1.326 . S
N404 C408 1.362 . S
C405 C406 1.258 . S
C405 C408 1.431 . S
C405 C425 1.449 . S
C406 C405 1.258 . S
C406 C407 1.477 . S
C406 H426 0.931 . S
C407 C403 1.460 . S
C407 C406 1.477 . S
C407 H427 0.930 . S
C408 N404 1.362 . S
C408 C405 1.431 . S
C408 C418 1.476 . S
H409 C403 0.929 . S
C410 O401 1.250 . S
C410 O402 1.258 . S
O411 Mn396 2.162 . S
O411 C399 1.281 . S
O412 Mn396 2.297 . S
O412 C399 1.236 . S
N413 Mn397 2.282 . S
N413 C414 1.328 . S
N413 C418 1.318 . S
C414 N413 1.328 . S
C414 C415 1.457 . S
C414 H419 0.929 . S
C415 C414 1.457 . S
C415 C416 1.291 . S
C415 H428 0.931 . S
C416 C415 1.291 . S
C416 C417 1.373 . S
C416 H429 0.929 . S
C417 C416 1.373 . S
C417 C418 1.396 . S
C417 C424 1.403 . S
C418 C408 1.476 . S
C418 N413 1.318 . S
C418 C417 1.396 . S
H419 C414 0.929 . S
O420 Mn396 2.385 . S
O420 C398 1.234 . S
O421 Mn396 2.209 . S
O421 Mn397 2.215 . S
O421 C398 1.283 . S
O422 Mn396 2.094 . S
O422 C400 1.240 . S
O423 Mn397 2.117 . S
O423 C400 1.264 . S
C424 C417 1.403 . S
C424 C425 1.399 . S
C424 H430 0.929 . S
C425 C405 1.449 . S
C425 C424 1.399 . S
C425 H431 0.930 . S
H426 C406 0.931 . S
H427 C407 0.930 . S
H428 C415 0.931 . S
H429 C416 0.929 . S
H430 C424 0.929 . S
H431 C425 0.930 . S
Mn432 O437 2.095 . S
Mn432 O447 2.162 . S
Mn432 O448 2.297 . S
Mn432 O456 2.385 . S
Mn432 O457 2.209 . S
Mn432 O458 2.094 . S
Mn433 O438 2.121 . S
Mn433 N440 2.257 . S
Mn433 N449 2.282 . S
Mn433 O457 2.215 . S
Mn433 O459 2.117 . S
C434 O456 1.234 . S
C434 O457 1.283 . S
C435 O447 1.281 . S
C435 O448 1.236 . S
C436 O458 1.240 . S
C436 O459 1.264 . S
O437 Mn432 2.095 . S
O437 C446 1.250 . S
O438 Mn433 2.121 . S
O438 C446 1.258 . S
C439 N440 1.326 . S
C439 C443 1.460 . S
C439 H445 0.929 . S
N440 Mn433 2.257 . S
N440 C439 1.326 . S
N440 C444 1.362 . S
C441 C442 1.258 . S
C441 C444 1.431 . S
C441 C461 1.449 . S
C442 C441 1.258 . S
C442 C443 1.477 . S
C442 H462 0.931 . S
C443 C439 1.460 . S
C443 C442 1.477 . S
C443 H463 0.930 . S
C444 N440 1.362 . S
C444 C441 1.431 . S
C444 C454 1.476 . S
H445 C439 0.929 . S
C446 O437 1.250 . S
C446 O438 1.258 . S
O447 Mn432 2.162 . S
O447 C435 1.281 . S
O448 Mn432 2.297 . S
O448 C435 1.236 . S
N449 Mn433 2.282 . S
N449 C450 1.328 . S
N449 C454 1.318 . S
C450 N449 1.328 . S
C450 C451 1.457 . S
C450 H455 0.929 . S
C451 C450 1.457 . S
C451 C452 1.291 . S
C451 H464 0.931 . S
C452 C451 1.291 . S
C452 C453 1.373 . S
C452 H465 0.929 . S
C453 C452 1.373 . S
C453 C454 1.396 . S
C453 C460 1.403 . S
C454 C444 1.476 . S
C454 N449 1.318 . S
C454 C453 1.396 . S
H455 C450 0.929 . S
O456 Mn432 2.385 . S
O456 C434 1.234 . S
O457 Mn432 2.209 . S
O457 Mn433 2.215 . S
O457 C434 1.283 . S
O458 Mn432 2.094 . S
O458 C436 1.240 . S
O459 Mn433 2.117 . S
O459 C436 1.264 . S
C460 C453 1.403 . S
C460 C461 1.399 . S
C460 H466 0.929 . S
C461 C441 1.449 . S
C461 C460 1.399 . S
C461 H467 0.930 . S
H462 C442 0.931 . S
H463 C443 0.930 . S
H464 C451 0.931 . S
H465 C452 0.929 . S
H466 C460 0.929 . S
H467 C461 0.930 . S
Mn468 O473 2.095 . S
Mn468 O483 2.162 . S
Mn468 O484 2.297 . S
Mn468 O492 2.385 . S
Mn468 O493 2.209 . S
Mn468 O494 2.094 . S
Mn469 O474 2.121 . S
Mn469 N476 2.257 . S
Mn469 N485 2.282 . S
Mn469 O493 2.215 . S
Mn469 O495 2.117 . S
C470 O492 1.234 . S
C470 O493 1.283 . S
C471 O483 1.281 . S
C471 O484 1.236 . S
C472 O494 1.240 . S
C472 O495 1.264 . S
O473 Mn468 2.095 . S
O473 C482 1.250 . S
O474 Mn469 2.121 . S
O474 C482 1.258 . S
C475 N476 1.326 . S
C475 C479 1.460 . S
C475 H481 0.929 . S
N476 Mn469 2.257 . S
N476 C475 1.326 . S
N476 C480 1.362 . S
C477 C478 1.258 . S
C477 C480 1.431 . S
C477 C497 1.449 1_545 S
C478 C477 1.258 . S
C478 C479 1.477 . S
C478 H498 0.931 . S
C479 C475 1.460 . S
C479 C478 1.477 . S
C479 H499 0.930 . S
C480 N476 1.362 . S
C480 C477 1.431 . S
C480 C490 1.476 . S
H481 C475 0.929 . S
C482 O473 1.250 . S
C482 O474 1.258 . S
O483 Mn468 2.162 . S
O483 C471 1.281 . S
O484 Mn468 2.297 . S
O484 C471 1.236 . S
N485 Mn469 2.282 . S
N485 C486 1.328 . S
N485 C490 1.318 . S
C486 N485 1.328 . S
C486 C487 1.457 1_545 S
C486 H491 0.929 . S
C487 C486 1.457 1_565 S
C487 C488 1.291 . S
C487 H500 0.931 . S
C488 C487 1.291 . S
C488 C489 1.373 . S
C488 H501 0.929 . S
C489 C488 1.373 . S
C489 C490 1.396 1_565 S
C489 C496 1.403 . S
C490 C480 1.476 . S
C490 N485 1.318 . S
C490 C489 1.396 1_545 S
H491 C486 0.929 . S
O492 Mn468 2.385 . S
O492 C470 1.234 . S
O493 Mn468 2.209 . S
O493 Mn469 2.215 . S
O493 C470 1.283 . S
O494 Mn468 2.094 . S
O494 C472 1.240 . S
O495 Mn469 2.117 . S
O495 C472 1.264 . S
C496 C489 1.403 . S
C496 C497 1.399 . S
C496 H502 0.929 . S
C497 C477 1.449 1_565 S
C497 C496 1.399 . S
C497 H503 0.930 . S
H498 C478 0.931 . S
H499 C479 0.930 . S
H500 C487 0.931 . S
H501 C488 0.929 . S
H502 C496 0.929 . S
H503 C497 0.930 . S
Mn504 O509 2.093 1_556 S
Mn504 O519 2.162 . S
Mn504 O520 2.297 . S
Mn504 O528 2.387 . S
Mn504 O529 2.209 . S
Mn504 O530 2.094 1_556 S
Mn505 O510 2.121 . S
Mn505 N512 2.257 1_554 S
Mn505 N521 2.282 1_554 S
Mn505 O529 2.215 1_554 S
Mn505 O531 2.117 . S
C506 O528 1.234 . S
C506 O529 1.283 . S
C507 O519 1.281 . S
C507 O520 1.236 . S
C508 O530 1.240 . S
C508 O531 1.264 . S
O509 Mn504 2.093 1_554 S
O509 C518 1.250 . S
O510 Mn505 2.121 . S
O510 C518 1.258 . S
C511 N512 1.326 1_554 S
C511 C515 1.460 . S
C511 H517 0.929 . S
N512 Mn505 2.257 1_556 S
N512 C511 1.326 1_556 S
N512 C516 1.362 . S
C513 C514 1.258 . S
C513 C516 1.431 . S
C513 C533 1.449 1_655 S
C514 C513 1.258 . S
C514 C515 1.477 1_556 S
C514 H534 0.931 . S
C515 C511 1.460 . S
C515 C514 1.477 1_554 S
C515 H535 0.930 . S
C516 N512 1.362 . S
C516 C513 1.431 . S
C516 C526 1.476 . S
H517 C511 0.929 . S
C518 O509 1.250 . S
C518 O510 1.258 . S
O519 Mn504 2.162 . S
O519 C507 1.281 . S
O520 Mn504 2.297 . S
O520 C507 1.236 . S
N521 Mn505 2.282 1_556 S
N521 C522 1.328 . S
N521 C526 1.318 . S
C522 N521 1.328 . S
C522 C523 1.457 1_655 S
C522 H527 0.929 . S
C523 C522 1.457 1_455 S
C523 C524 1.291 . S
C523 H536 0.931 . S
C524 C523 1.291 . S
C524 C525 1.373 . S
C524 H537 0.929 . S
C525 C524 1.373 . S
C525 C526 1.396 1_455 S
C525 C532 1.403 . S
C526 C516 1.476 . S
C526 N521 1.318 . S
C526 C525 1.396 1_655 S
H527 C522 0.929 . S
O528 Mn504 2.387 . S
O528 C506 1.234 . S
O529 Mn504 2.209 . S
O529 Mn505 2.215 1_556 S
O529 C506 1.283 . S
O530 Mn504 2.094 1_554 S
O530 C508 1.240 . S
O531 Mn505 2.117 . S
O531 C508 1.264 . S
C532 C525 1.403 . S
C532 C533 1.399 . S
C532 H538 0.929 . S
C533 C513 1.449 1_455 S
C533 C532 1.399 . S
C533 H539 0.930 . S
H534 C514 0.931 . S
H535 C515 0.930 . S
H536 C523 0.931 . S
H537 C524 0.929 . S
H538 C532 0.929 . S
H539 C533 0.930 . S
Mn540 O545 2.095 . S
Mn540 O555 2.162 . S
Mn540 O556 2.297 . S
Mn540 O564 2.385 . S
Mn540 O565 2.209 . S
Mn540 O566 2.094 . S
Mn541 O546 2.121 . S
Mn541 N548 2.257 . S
Mn541 N557 2.282 . S
Mn541 O565 2.215 . S
Mn541 O567 2.117 . S
C542 O564 1.234 . S
C542 O565 1.283 . S
C543 O555 1.281 . S
C543 O556 1.236 . S
C544 O566 1.240 . S
C544 O567 1.264 . S
O545 Mn540 2.095 . S
O545 C554 1.250 . S
O546 Mn541 2.121 . S
O546 C554 1.258 . S
C547 N548 1.326 . S
C547 C551 1.460 . S
C547 H553 0.929 . S
N548 Mn541 2.257 . S
N548 C547 1.326 . S
N548 C552 1.362 . S
C549 C550 1.258 . S
C549 C552 1.431 . S
C549 C569 1.449 . S
C550 C549 1.258 . S
C550 C551 1.477 . S
C550 H570 0.931 . S
C551 C547 1.460 . S
C551 C550 1.477 . S
C551 H571 0.930 . S
C552 N548 1.362 . S
C552 C549 1.431 . S
C552 C562 1.476 . S
H553 C547 0.929 . S
C554 O545 1.250 . S
C554 O546 1.258 . S
O555 Mn540 2.162 . S
O555 C543 1.281 . S
O556 Mn540 2.297 . S
O556 C543 1.236 . S
N557 Mn541 2.282 . S
N557 C558 1.328 . S
N557 C562 1.318 . S
C558 N557 1.328 . S
C558 C559 1.457 . S
C558 H563 0.929 . S
C559 C558 1.457 . S
C559 C560 1.291 . S
C559 H572 0.931 . S
C560 C559 1.291 . S
C560 C561 1.373 . S
C560 H573 0.929 1_554 S
C561 C560 1.373 . S
C561 C562 1.396 . S
C561 C568 1.403 . S
C562 C552 1.476 . S
C562 N557 1.318 . S
C562 C561 1.396 . S
H563 C558 0.929 . S
O564 Mn540 2.385 . S
O564 C542 1.234 . S
O565 Mn540 2.209 . S
O565 Mn541 2.215 . S
O565 C542 1.283 . S
O566 Mn540 2.094 . S
O566 C544 1.240 . S
O567 Mn541 2.117 . S
O567 C544 1.264 . S
C568 C561 1.403 . S
C568 C569 1.399 . S
C568 H574 0.929 . S
C569 C549 1.449 . S
C569 C568 1.399 . S
C569 H575 0.930 . S
H570 C550 0.931 . S
H571 C551 0.930 . S
H572 C559 0.931 . S
H573 C560 0.929 1_556 S
H574 C568 0.929 . S
H575 C569 0.930 . S
C576 C577 1.363 . S
C576 C582 1.379 . S
C576 N584 1.356 . S
C577 C576 1.363 . S
C577 C583 1.363 . S
C578 C579 1.363 . S
C578 C583 1.379 . S
C578 N585 1.356 . S
C579 C578 1.363 . S
C579 C582 1.363 . S
N580 C582 1.356 . S
N580 H592 0.984 . S
N580 H593 0.985 . S
N581 C583 1.356 . S
N581 H586 0.984 . S
N581 H587 0.985 . S
C582 C576 1.379 . S
C582 C579 1.363 . S
C582 N580 1.356 . S
C583 C577 1.363 . S
C583 C578 1.379 . S
C583 N581 1.356 . S
N584 C576 1.356 . S
N584 H590 0.984 . S
N584 H591 0.984 . S
N585 C578 1.356 . S
N585 H588 0.984 . S
N585 H589 0.985 . S
H586 N581 0.984 . S
H587 N581 0.985 . S
H588 N585 0.984 . S
H589 N585 0.985 . S
H590 N584 0.984 . S
H591 N584 0.984 . S
H592 N580 0.984 . S
H593 N580 0.985 . S
C594 C595 1.363 . S
C594 C600 1.379 . S
C594 N602 1.356 . S
C595 C594 1.363 . S
C595 C601 1.363 . S
C596 C597 1.363 . S
C596 C601 1.379 . S
C596 N603 1.356 . S
C597 C596 1.363 . S
C597 C600 1.363 . S
N598 C600 1.356 . S
N598 H610 0.984 . S
N598 H611 0.985 . S
N599 C601 1.356 . S
N599 H604 0.984 . S
N599 H605 0.985 . S
C600 C594 1.379 . S
C600 C597 1.363 . S
C600 N598 1.356 . S
C601 C595 1.363 . S
C601 C596 1.379 . S
C601 N599 1.356 . S
N602 C594 1.356 . S
N602 H608 0.984 . S
N602 H609 0.984 . S
N603 C596 1.356 . S
N603 H606 0.984 . S
N603 H607 0.985 . S
H604 N599 0.984 . S
H605 N599 0.985 . S
H606 N603 0.984 . S
H607 N603 0.985 . S
H608 N602 0.984 . S
H609 N602 0.984 . S
H610 N598 0.984 . S
H611 N598 0.985 . S
C612 C613 1.363 . S
C612 C618 1.379 . S
C612 N620 1.356 . S
C613 C612 1.363 . S
C613 C619 1.363 . S
C614 C615 1.363 . S
C614 C619 1.379 . S
C614 N621 1.356 . S
C615 C614 1.363 . S
C615 C618 1.363 . S
N616 C618 1.356 1_554 S
N616 H628 0.984 . S
N616 H629 0.985 . S
N617 C619 1.356 . S
N617 H622 0.984 . S
N617 H623 0.985 . S
C618 C612 1.379 . S
C618 C615 1.363 . S
C618 N616 1.356 1_556 S
C619 C613 1.363 . S
C619 C614 1.379 . S
C619 N617 1.356 . S
N620 C612 1.356 . S
N620 H626 0.984 . S
N620 H627 0.984 . S
N621 C614 1.356 . S
N621 H624 0.984 . S
N621 H625 0.985 . S
H622 N617 0.984 . S
H623 N617 0.985 . S
H624 N621 0.984 . S
H625 N621 0.985 . S
H626 N620 0.984 . S
H627 N620 0.984 . S
H628 N616 0.984 . S
H629 N616 0.985 . S
C630 C631 1.363 . S
C630 C636 1.379 . S
C630 N638 1.356 . S
C631 C630 1.363 . S
C631 C637 1.363 . S
C632 C633 1.363 . S
C632 C637 1.379 . S
C632 N639 1.356 . S
C633 C632 1.363 . S
C633 C636 1.363 . S
N634 C636 1.356 . S
N634 H646 0.984 . S
N634 H647 0.985 . S
N635 C637 1.356 . S
N635 H640 0.984 . S
N635 H641 0.985 . S
C636 C630 1.379 . S
C636 C633 1.363 . S
C636 N634 1.356 . S
C637 C631 1.363 . S
C637 C632 1.379 . S
C637 N635 1.356 . S
N638 C630 1.356 . S
N638 H644 0.984 . S
N638 H645 0.984 . S
N639 C632 1.356 . S
N639 H642 0.984 . S
N639 H643 0.985 . S
H640 N635 0.984 . S
H641 N635 0.985 . S
H642 N639 0.984 . S
H643 N639 0.985 . S
H644 N638 0.984 . S
H645 N638 0.984 . S
H646 N634 0.984 . S
H647 N634 0.985 . S
C648 C649 1.363 . S
C648 C654 1.379 . S
C648 N656 1.356 . S
C649 C648 1.363 . S
C649 C655 1.363 . S
C650 C651 1.363 . S
C650 C655 1.379 . S
C650 N657 1.356 1_556 S
C651 C650 1.363 . S
C651 C654 1.363 . S
N652 C654 1.356 . S
N652 H664 0.984 . S
N652 H665 0.985 . S
N653 C655 1.356 . S
N653 H658 0.984 . S
N653 H659 0.985 . S
C654 C648 1.379 . S
C654 C651 1.363 . S
C654 N652 1.356 . S
C655 C649 1.363 . S
C655 C650 1.379 . S
C655 N653 1.356 . S
N656 C648 1.356 . S
N656 H662 0.984 . S
N656 H663 0.984 . S
N657 C650 1.356 1_554 S
N657 H660 0.984 . S
N657 H661 0.985 . S
H658 N653 0.984 . S
H659 N653 0.985 . S
H660 N657 0.984 . S
H661 N657 0.985 . S
H662 N656 0.984 . S
H663 N656 0.984 . S
H664 N652 0.984 . S
H665 N652 0.985 . S
C666 C667 1.363 . S
C666 C672 1.379 . S
C666 N674 1.356 . S
C667 C666 1.363 . S
C667 C673 1.363 . S
C668 C669 1.363 . S
C668 C673 1.379 . S
C668 N675 1.356 . S
C669 C668 1.363 . S
C669 C672 1.363 . S
N670 C672 1.356 . S
N670 H682 0.984 1_554 S
N670 H683 0.985 . S
N671 C673 1.356 . S
N671 H676 0.984 . S
N671 H677 0.985 . S
C672 C666 1.379 . S
C672 C669 1.363 . S
C672 N670 1.356 . S
C673 C667 1.363 . S
C673 C668 1.379 . S
C673 N671 1.356 . S
N674 C666 1.356 . S
N674 H680 0.984 . S
N674 H681 0.984 . S
N675 C668 1.356 . S
N675 H678 0.984 . S
N675 H679 0.985 . S
H676 N671 0.984 . S
H677 N671 0.985 . S
H678 N675 0.984 . S
H679 N675 0.985 . S
H680 N674 0.984 . S
H681 N674 0.984 . S
H682 N670 0.984 1_556 S
H683 N670 0.985 . S
C684 C685 1.363 . S
C684 C690 1.379 . S
C684 N692 1.356 . S
C685 C684 1.363 . S
C685 C691 1.363 . S
C686 C687 1.363 . S
C686 C691 1.379 . S
C686 N693 1.356 . S
C687 C686 1.363 . S
C687 C690 1.363 . S
N688 C690 1.356 . S
N688 H700 0.984 . S
N688 H701 0.985 . S
N689 C691 1.356 . S
N689 H694 0.984 . S
N689 H695 0.985 . S
C690 C684 1.379 . S
C690 C687 1.363 . S
C690 N688 1.356 . S
C691 C685 1.363 . S
C691 C686 1.379 . S
C691 N689 1.356 . S
N692 C684 1.356 . S
N692 H698 0.984 . S
N692 H699 0.984 . S
N693 C686 1.356 . S
N693 H696 0.984 . S
N693 H697 0.985 . S
H694 N689 0.984 . S
H695 N689 0.985 . S
H696 N693 0.984 . S
H697 N693 0.985 . S
H698 N692 0.984 . S
H699 N692 0.984 . S
H700 N688 0.984 . S
H701 N688 0.985 . S
C702 C703 1.363 . S
C702 C708 1.379 . S
C702 N710 1.356 . S
C703 C702 1.363 . S
C703 C709 1.363 . S
C704 C705 1.363 . S
C704 C709 1.379 . S
C704 N711 1.356 . S
C705 C704 1.363 . S
C705 C708 1.363 . S
N706 C708 1.356 . S
N706 H718 0.984 . S
N706 H719 0.985 . S
N707 C709 1.356 . S
N707 H712 0.984 . S
N707 H713 0.985 . S
C708 C702 1.379 . S
C708 C705 1.363 . S
C708 N706 1.356 . S
C709 C703 1.363 . S
C709 C704 1.379 . S
C709 N707 1.356 . S
N710 C702 1.356 . S
N710 H716 0.984 . S
N710 H717 0.984 . S
N711 C704 1.356 . S
N711 H714 0.984 . S
N711 H715 0.985 . S
H712 N707 0.984 . S
H713 N707 0.985 . S
H714 N711 0.984 . S
H715 N711 0.985 . S
H716 N710 0.984 . S
H717 N710 0.984 . S
H718 N706 0.984 . S
H719 N706 0.985 . S
C720 C721 1.363 1_565 S
C720 C726 1.379 1_455 S
C720 N728 1.356 . S
C721 C720 1.363 1_545 S
C721 C727 1.363 . S
C722 C723 1.363 1_545 S
C722 C727 1.379 1_655 S
C722 N729 1.356 . S
C723 C722 1.363 1_565 S
C723 C726 1.363 . S
N724 C726 1.356 . S
N724 H736 0.984 . S
N724 H737 0.985 . S
N725 C727 1.356 . S
N725 H730 0.984 . S
N725 H731 0.985 . S
C726 C720 1.379 1_655 S
C726 C723 1.363 . S
C726 N724 1.356 . S
C727 C721 1.363 . S
C727 C722 1.379 1_455 S
C727 N725 1.356 . S
N728 C720 1.356 . S
N728 H734 0.984 . S
N728 H735 0.984 . S
N729 C722 1.356 . S
N729 H732 0.984 . S
N729 H733 0.985 . S
H730 N725 0.984 . S
H731 N725 0.985 . S
H732 N729 0.984 . S
H733 N729 0.985 . S
H734 N728 0.984 . S
H735 N728 0.984 . S
H736 N724 0.984 . S
H737 N724 0.985 . S
C738 C739 1.363 . S
C738 C744 1.379 . S
C738 N746 1.356 . S
C739 C738 1.363 . S
C739 C745 1.363 1_655 S
C740 C741 1.363 . S
C740 C745 1.379 . S
C740 N747 1.356 . S
C741 C740 1.363 . S
C741 C744 1.363 1_455 S
N742 C744 1.356 . S
N742 H754 0.984 . S
N742 H755 0.985 . S
N743 C745 1.356 . S
N743 H748 0.984 . S
N743 H749 0.985 . S
C744 C738 1.379 . S
C744 C741 1.363 1_655 S
C744 N742 1.356 . S
C745 C739 1.363 1_455 S
C745 C740 1.379 . S
C745 N743 1.356 . S
N746 C738 1.356 . S
N746 H752 0.984 . S
N746 H753 0.984 . S
N747 C740 1.356 . S
N747 H750 0.984 . S
N747 H751 0.985 . S
H748 N743 0.984 . S
H749 N743 0.985 . S
H750 N747 0.984 . S
H751 N747 0.985 . S
H752 N746 0.984 . S
H753 N746 0.984 . S
H754 N742 0.984 . S
H755 N742 0.985 . S
C756 C757 1.363 . S
C756 C762 1.379 . S
C756 N764 1.356 . S
C757 C756 1.363 . S
C757 C763 1.363 . S
C758 C759 1.363 . S
C758 C763 1.379 . S
C758 N765 1.356 . S
C759 C758 1.363 . S
C759 C762 1.363 . S
N760 C762 1.356 . S
N760 H772 0.984 . S
N760 H773 0.985 . S
N761 C763 1.356 . S
N761 H766 0.984 . S
N761 H767 0.985 . S
C762 C756 1.379 . S
C762 C759 1.363 . S
C762 N760 1.356 . S
C763 C757 1.363 . S
C763 C758 1.379 . S
C763 N761 1.356 . S
N764 C756 1.356 . S
N764 H770 0.984 . S
N764 H771 0.984 . S
N765 C758 1.356 . S
N765 H768 0.984 . S
N765 H769 0.985 . S
H766 N761 0.984 . S
H767 N761 0.985 . S
H768 N765 0.984 . S
H769 N765 0.985 . S
H770 N764 0.984 . S
H771 N764 0.984 . S
H772 N760 0.984 . S
H773 N760 0.985 . S
C774 C775 1.363 . S
C774 C780 1.379 1_565 S
C774 N782 1.356 . S
C775 C774 1.363 . S
C775 C781 1.363 . S
C776 C777 1.363 . S
C776 C781 1.379 1_545 S
C776 N783 1.356 1_554 S
C777 C776 1.363 . S
C777 C780 1.363 . S
N778 C780 1.356 . S
N778 H790 0.984 . S
N778 H791 0.985 . S
N779 C781 1.356 1_556 S
N779 H784 0.984 . S
N779 H785 0.985 . S
C780 C774 1.379 1_545 S
C780 C777 1.363 . S
C780 N778 1.356 . S
C781 C775 1.363 . S
C781 C776 1.379 1_565 S
C781 N779 1.356 1_554 S
N782 C774 1.356 . S
N782 H788 0.984 . S
N782 H789 0.984 . S
N783 C776 1.356 1_556 S
N783 H786 0.984 . S
N783 H787 0.985 . S
H784 N779 0.984 . S
H785 N779 0.985 . S
H786 N783 0.984 . S
H787 N783 0.985 . S
H788 N782 0.984 . S
H789 N782 0.984 . S
H790 N778 0.984 . S
H791 N778 0.985 . S
C792 C793 1.363 1_556 S
C792 C798 1.379 1_455 S
C792 N800 1.356 . S
C793 C792 1.363 1_554 S
C793 C799 1.363 . S
C794 C795 1.363 . S
C794 C799 1.379 1_655 S
C794 N801 1.356 . S
C795 C794 1.363 . S
C795 C798 1.363 1_554 S
N796 C798 1.356 . S
N796 H808 0.984 . S
N796 H809 0.985 . S
N797 C799 1.356 . S
N797 H802 0.984 . S
N797 H803 0.985 . S
C798 C792 1.379 1_655 S
C798 C795 1.363 1_556 S
C798 N796 1.356 . S
C799 C793 1.363 . S
C799 C794 1.379 1_455 S
C799 N797 1.356 . S
N800 C792 1.356 . S
N800 H806 0.984 . S
N800 H807 0.984 . S
N801 C794 1.356 . S
N801 H804 0.984 . S
N801 H805 0.985 . S
H802 N797 0.984 . S
H803 N797 0.985 . S
H804 N801 0.984 . S
H805 N801 0.985 . S
H806 N800 0.984 . S
H807 N800 0.984 . S
H808 N796 0.984 . S
H809 N796 0.985 . S
C810 C811 1.363 . S
C810 C816 1.379 . S
C810 N818 1.356 . S
C811 C810 1.363 . S
C811 C817 1.363 . S
C812 C813 1.363 . S
C812 C817 1.379 . S
C812 N819 1.356 . S
C813 C812 1.363 . S
C813 C816 1.363 . S
N814 C816 1.356 . S
N814 H826 0.984 . S
N814 H827 0.985 . S
N815 C817 1.356 . S
N815 H820 0.984 . S
N815 H821 0.985 . S
C816 C810 1.379 . S
C816 C813 1.363 . S
C816 N814 1.356 . S
C817 C811 1.363 . S
C817 C812 1.379 . S
C817 N815 1.356 . S
N818 C810 1.356 . S
N818 H824 0.984 . S
N818 H825 0.984 . S
N819 C812 1.356 . S
N819 H822 0.984 . S
N819 H823 0.985 . S
H820 N815 0.984 . S
H821 N815 0.985 . S
H822 N819 0.984 . S
H823 N819 0.985 . S
H824 N818 0.984 . S
H825 N818 0.984 . S
H826 N814 0.984 . S
H827 N814 0.985 . S
C828 C829 1.363 . S
C828 C834 1.379 . S
C828 N836 1.356 . S
C829 C828 1.363 . S
C829 C835 1.363 1_545 S
C830 C831 1.363 . S
C830 C835 1.379 . S
C830 N837 1.356 . S
C831 C830 1.363 . S
C831 C834 1.363 1_565 S
N832 C834 1.356 . S
N832 H844 0.984 . S
N832 H845 0.985 . S
N833 C835 1.356 . S
N833 H838 0.984 . S
N833 H839 0.985 . S
C834 C828 1.379 . S
C834 C831 1.363 1_545 S
C834 N832 1.356 . S
C835 C829 1.363 1_565 S
C835 C830 1.379 . S
C835 N833 1.356 . S
N836 C828 1.356 . S
N836 H842 0.984 . S
N836 H843 0.984 . S
N837 C830 1.356 . S
N837 H840 0.984 . S
N837 H841 0.985 . S
H838 N833 0.984 . S
H839 N833 0.985 . S
H840 N837 0.984 . S
H841 N837 0.985 . S
H842 N836 0.984 . S
H843 N836 0.984 . S
H844 N832 0.984 . S
H845 N832 0.985 . S
C846 C847 1.363 . S
C846 C852 1.379 1_545 S
C846 N854 1.356 . S
C847 C846 1.363 . S
C847 C853 1.363 1_455 S
C848 C849 1.363 . S
C848 C853 1.379 1_565 S
C848 N855 1.356 . S
C849 C848 1.363 . S
C849 C852 1.363 1_655 S
N850 C852 1.356 . S
N850 H862 0.984 . S
N850 H863 0.985 . S
N851 C853 1.356 . S
N851 H856 0.984 . S
N851 H857 0.985 . S
C852 C846 1.379 1_565 S
C852 C849 1.363 1_455 S
C852 N850 1.356 . S
C853 C847 1.363 1_655 S
C853 C848 1.379 1_545 S
C853 N851 1.356 . S
N854 C846 1.356 . S
N854 H860 0.984 . S
N854 H861 0.984 . S
N855 C848 1.356 . S
N855 H858 0.984 . S
N855 H859 0.985 . S
H856 N851 0.984 . S
H857 N851 0.985 . S
H858 N855 0.984 . S
H859 N855 0.985 . S
H860 N854 0.984 . S
H861 N854 0.984 . S
H862 N850 0.984 . S
H863 N850 0.985 . S
C864 C865 1.363 . S
C864 C870 1.379 . S
C864 N872 1.356 . S
C865 C864 1.363 . S
C865 C871 1.363 . S
C866 C867 1.363 . S
C866 C871 1.379 . S
C866 N873 1.356 . S
C867 C866 1.363 . S
C867 C870 1.363 . S
N868 C870 1.356 . S
N868 H880 0.984 . S
N868 H881 0.985 . S
N869 C871 1.356 . S
N869 H874 0.984 . S
N869 H875 0.985 . S
C870 C864 1.379 . S
C870 C867 1.363 . S
C870 N868 1.356 . S
C871 C865 1.363 . S
C871 C866 1.379 . S
C871 N869 1.356 . S
N872 C864 1.356 . S
N872 H878 0.984 . S
N872 H879 0.984 . S
N873 C866 1.356 . S
N873 H876 0.984 . S
N873 H877 0.985 . S
H874 N869 0.984 . S
H875 N869 0.985 . S
H876 N873 0.984 . S
H877 N873 0.985 . S
H878 N872 0.984 . S
H879 N872 0.984 . S
H880 N868 0.984 . S
H881 N868 0.985 . S
C882 C883 1.363 . S
C882 C888 1.379 . S
C882 N890 1.356 . S
C883 C882 1.363 . S
C883 C889 1.363 . S
C884 C885 1.363 . S
C884 C889 1.379 . S
C884 N891 1.356 . S
C885 C884 1.363 . S
C885 C888 1.363 . S
N886 C888 1.356 . S
N886 H898 0.984 . S
N886 H899 0.985 . S
N887 C889 1.356 . S
N887 H892 0.984 . S
N887 H893 0.985 . S
C888 C882 1.379 . S
C888 C885 1.363 . S
C888 N886 1.356 . S
C889 C883 1.363 . S
C889 C884 1.379 . S
C889 N887 1.356 . S
N890 C882 1.356 . S
N890 H896 0.984 . S
N890 H897 0.984 . S
N891 C884 1.356 . S
N891 H894 0.984 . S
N891 H895 0.985 . S
H892 N887 0.984 . S
H893 N887 0.985 . S
H894 N891 0.984 . S
H895 N891 0.985 . S
H896 N890 0.984 . S
H897 N890 0.984 . S
H898 N886 0.984 . S
H899 N886 0.985 . S
C900 C901 1.363 . S
C900 C906 1.379 . S
C900 N908 1.356 . S
C901 C900 1.363 . S
C901 C907 1.363 . S
C902 C903 1.363 . S
C902 C907 1.379 1_556 S
C902 N909 1.356 . S
C903 C902 1.363 . S
C903 C906 1.363 1_556 S
N904 C906 1.356 1_556 S
N904 H916 0.984 1_556 S
N904 H917 0.985 . S
N905 C907 1.356 . S
N905 H910 0.984 . S
N905 H911 0.985 . S
C906 C900 1.379 . S
C906 C903 1.363 1_554 S
C906 N904 1.356 1_554 S
C907 C901 1.363 . S
C907 C902 1.379 1_554 S
C907 N905 1.356 . S
N908 C900 1.356 . S
N908 H914 0.984 . S
N908 H915 0.984 . S
N909 C902 1.356 . S
N909 H912 0.984 . S
N909 H913 0.985 . S
H910 N905 0.984 . S
H911 N905 0.985 . S
H912 N909 0.984 . S
H913 N909 0.985 . S
H914 N908 0.984 . S
H915 N908 0.984 . S
H916 N904 0.984 1_554 S
H917 N904 0.985 . S
C918 C919 1.363 . S
C918 C924 1.379 . S
C918 N926 1.356 . S
C919 C918 1.363 . S
C919 C925 1.363 . S
C920 C921 1.363 . S
C920 C925 1.379 . S
C920 N927 1.356 . S
C921 C920 1.363 . S
C921 C924 1.363 . S
N922 C924 1.356 . S
N922 H934 0.984 . S
N922 H935 0.985 . S
N923 C925 1.356 . S
N923 H928 0.984 . S
N923 H929 0.985 . S
C924 C918 1.379 . S
C924 C921 1.363 . S
C924 N922 1.356 . S
C925 C919 1.363 . S
C925 C920 1.379 . S
C925 N923 1.356 . S
N926 C918 1.356 . S
N926 H932 0.984 . S
N926 H933 0.984 . S
N927 C920 1.356 . S
N927 H930 0.984 . S
N927 H931 0.985 . S
H928 N923 0.984 . S
H929 N923 0.985 . S
H930 N927 0.984 . S
H931 N927 0.985 . S
H932 N926 0.984 . S
H933 N926 0.984 . S
H934 N922 0.984 . S
H935 N922 0.985 . S
C936 C937 1.363 . S
C936 C942 1.379 . S
C936 N944 1.356 . S
C937 C936 1.363 . S
C937 C943 1.363 . S
C938 C939 1.363 . S
C938 C943 1.379 . S
C938 N945 1.356 . S
C939 C938 1.363 . S
C939 C942 1.363 . S
N940 C942 1.356 . S
N940 H952 0.984 . S
N940 H953 0.985 . S
N941 C943 1.356 . S
N941 H946 0.984 . S
N941 H947 0.985 . S
C942 C936 1.379 . S
C942 C939 1.363 . S
C942 N940 1.356 . S
C943 C937 1.363 . S
C943 C938 1.379 . S
C943 N941 1.356 . S
N944 C936 1.356 . S
N944 H950 0.984 . S
N944 H951 0.984 . S
N945 C938 1.356 . S
N945 H948 0.984 . S
N945 H949 0.985 . S
H946 N941 0.984 . S
H947 N941 0.985 . S
H948 N945 0.984 . S
H949 N945 0.985 . S
H950 N944 0.984 . S
H951 N944 0.984 . S
H952 N940 0.984 . S
H953 N940 0.985 . S
C954 C955 1.363 . S
C954 C960 1.379 . S
C954 N962 1.356 . S
C955 C954 1.363 . S
C955 C961 1.363 . S
C956 C957 1.363 . S
C956 C961 1.379 1_556 S
C956 N963 1.356 . S
C957 C956 1.363 . S
C957 C960 1.363 1_556 S
N958 C960 1.356 1_556 S
N958 H970 0.984 1_556 S
N958 H971 0.985 . S
N959 C961 1.356 . S
N959 H964 0.984 . S
N959 H965 0.985 . S
C960 C954 1.379 . S
C960 C957 1.363 1_554 S
C960 N958 1.356 1_554 S
C961 C955 1.363 . S
C961 C956 1.379 1_554 S
C961 N959 1.356 . S
N962 C954 1.356 . S
N962 H968 0.984 . S
N962 H969 0.984 . S
N963 C956 1.356 . S
N963 H966 0.984 . S
N963 H967 0.985 . S
H964 N959 0.984 . S
H965 N959 0.985 . S
H966 N963 0.984 . S
H967 N963 0.985 . S
H968 N962 0.984 . S
H969 N962 0.984 . S
H970 N958 0.984 1_554 S
H971 N958 0.985 . S
C972 C973 1.363 . S
C972 C978 1.379 . S
C972 N980 1.356 . S
C973 C972 1.363 . S
C973 C979 1.363 . S
C974 C975 1.363 . S
C974 C979 1.379 . S
C974 N981 1.356 . S
C975 C974 1.363 . S
C975 C978 1.363 . S
N976 C978 1.356 . S
N976 H988 0.984 . S
N976 H989 0.985 . S
N977 C979 1.356 . S
N977 H982 0.984 . S
N977 H983 0.985 . S
C978 C972 1.379 . S
C978 C975 1.363 . S
C978 N976 1.356 . S
C979 C973 1.363 . S
C979 C974 1.379 . S
C979 N977 1.356 . S
N980 C972 1.356 . S
N980 H986 0.984 . S
N980 H987 0.984 . S
N981 C974 1.356 . S
N981 H984 0.984 . S
N981 H985 0.985 . S
H982 N977 0.984 . S
H983 N977 0.985 . S
H984 N981 0.984 . S
H985 N981 0.985 . S
H986 N980 0.984 . S
H987 N980 0.984 . S
H988 N976 0.984 . S
H989 N976 0.985 . S
C990 C991 1.363 . S
C990 C996 1.379 . S
C990 N998 1.356 . S
C991 C990 1.363 . S
C991 C997 1.363 . S
C992 C993 1.363 . S
C992 C997 1.379 . S
C992 N999 1.356 . S
C993 C992 1.363 . S
C993 C996 1.363 . S
N994 C996 1.356 . S
N994 H1006 0.984 . S
N994 H1007 0.985 . S
N995 C997 1.356 . S
N995 H1000 0.984 . S
N995 H1001 0.985 . S
C996 C990 1.379 . S
C996 C993 1.363 . S
C996 N994 1.356 . S
C997 C991 1.363 . S
C997 C992 1.379 . S
C997 N995 1.356 . S
N998 C990 1.356 . S
N998 H1004 0.984 . S
N998 H1005 0.984 . S
N999 C992 1.356 . S
N999 H1002 0.984 . S
N999 H1003 0.985 . S
H1000 N995 0.984 . S
H1001 N995 0.985 . S
H1002 N999 0.984 . S
H1003 N999 0.985 . S
H1004 N998 0.984 . S
H1005 N998 0.984 . S
H1006 N994 0.984 . S
H1007 N994 0.985 . S
C1008 C1009 1.368 . S
C1008 C1014 1.369 1_556 S
C1008 N1016 1.363 . S
C1009 C1008 1.368 . S
C1009 C1015 1.370 . S
C1010 C1011 1.363 . S
C1010 C1015 1.365 1_554 S
C1010 N1017 1.356 . S
C1011 C1010 1.363 . S
C1011 C1014 1.363 . S
N1012 C1014 1.356 . S
N1012 H1024 0.984 . S
N1012 H1025 0.985 . S
N1013 C1015 1.366 . S
N1013 H1018 0.984 . S
N1013 H1019 0.985 . S
C1014 C1008 1.369 1_554 S
C1014 C1011 1.363 . S
C1014 N1012 1.356 . S
C1015 C1009 1.370 . S
C1015 C1010 1.365 1_556 S
C1015 N1013 1.366 . S
N1016 C1008 1.363 . S
N1016 H1022 0.984 . S
N1016 H1023 0.984 . S
N1017 C1010 1.356 . S
N1017 H1020 0.984 . S
N1017 H1021 0.985 . S
H1018 N1013 0.984 . S
H1019 N1013 0.985 . S
H1020 N1017 0.984 . S
H1021 N1017 0.985 . S
H1022 N1016 0.984 . S
H1023 N1016 0.984 . S
H1024 N1012 0.984 . S
H1025 N1012 0.985 . S
C1026 C1027 1.363 . S
C1026 C1032 1.379 . S
C1026 N1034 1.356 . S
C1027 C1026 1.363 . S
C1027 C1033 1.363 . S
C1028 C1029 1.363 . S
C1028 C1033 1.379 . S
C1028 N1035 1.356 . S
C1029 C1028 1.363 . S
C1029 C1032 1.363 . S
N1030 C1032 1.356 . S
N1030 H1042 0.984 . S
N1030 H1043 0.985 . S
N1031 C1033 1.356 . S
N1031 H1036 0.984 . S
N1031 H1037 0.985 . S
C1032 C1026 1.379 . S
C1032 C1029 1.363 . S
C1032 N1030 1.356 . S
C1033 C1027 1.363 . S
C1033 C1028 1.379 . S
C1033 N1031 1.356 . S
N1034 C1026 1.356 . S
N1034 H1040 0.984 . S
N1034 H1041 0.984 . S
N1035 C1028 1.356 . S
N1035 H1038 0.984 . S
N1035 H1039 0.985 . S
H1036 N1031 0.984 . S
H1037 N1031 0.985 . S
H1038 N1035 0.984 . S
H1039 N1035 0.985 . S
H1040 N1034 0.984 . S
H1041 N1034 0.984 . S
H1042 N1030 0.984 . S
H1043 N1030 0.985 . S
C1044 C1045 1.363 . S
C1044 C1050 1.379 . S
C1044 N1052 1.356 . S
C1045 C1044 1.363 . S
C1045 C1051 1.363 . S
C1046 C1047 1.363 . S
C1046 C1051 1.379 . S
C1046 N1053 1.356 . S
C1047 C1046 1.363 . S
C1047 C1050 1.363 . S
N1048 C1050 1.356 . S
N1048 H1060 0.984 . S
N1048 H1061 0.985 . S
N1049 C1051 1.356 . S
N1049 H1054 0.984 . S
N1049 H1055 0.985 . S
C1050 C1044 1.379 . S
C1050 C1047 1.363 . S
C1050 N1048 1.356 . S
C1051 C1045 1.363 . S
C1051 C1046 1.379 . S
C1051 N1049 1.356 . S
N1052 C1044 1.356 . S
N1052 H1058 0.984 . S
N1052 H1059 0.984 . S
N1053 C1046 1.356 . S
N1053 H1056 0.984 . S
N1053 H1057 0.985 . S
H1054 N1049 0.984 . S
H1055 N1049 0.985 . S
H1056 N1053 0.984 . S
H1057 N1053 0.985 . S
H1058 N1052 0.984 . S
H1059 N1052 0.984 . S
H1060 N1048 0.984 . S
H1061 N1048 0.985 . S
C1062 C1063 1.363 . S
C1062 C1068 1.379 . S
C1062 N1070 1.356 . S
C1063 C1062 1.363 . S
C1063 C1069 1.363 . S
C1064 C1065 1.363 . S
C1064 C1069 1.379 . S
C1064 N1071 1.356 . S
C1065 C1064 1.363 . S
C1065 C1068 1.363 . S
N1066 C1068 1.356 . S
N1066 H1078 0.984 . S
N1066 H1079 0.985 . S
N1067 C1069 1.356 . S
N1067 H1072 0.984 . S
N1067 H1073 0.985 . S
C1068 C1062 1.379 . S
C1068 C1065 1.363 . S
C1068 N1066 1.356 . S
C1069 C1063 1.363 . S
C1069 C1064 1.379 . S
C1069 N1067 1.356 . S
N1070 C1062 1.356 . S
N1070 H1076 0.984 . S
N1070 H1077 0.984 . S
N1071 C1064 1.356 . S
N1071 H1074 0.984 . S
N1071 H1075 0.985 . S
H1072 N1067 0.984 . S
H1073 N1067 0.985 . S
H1074 N1071 0.984 . S
H1075 N1071 0.985 . S
H1076 N1070 0.984 . S
H1077 N1070 0.984 . S
H1078 N1066 0.984 . S
H1079 N1066 0.985 . S
C1080 C1081 1.363 . S
C1080 C1086 1.379 . S
C1080 N1088 1.356 . S
C1081 C1080 1.363 . S
C1081 C1087 1.363 . S
C1082 C1083 1.363 . S
C1082 C1087 1.379 . S
C1082 N1089 1.356 . S
C1083 C1082 1.363 . S
C1083 C1086 1.363 . S
N1084 C1086 1.356 . S
N1084 H1096 0.984 . S
N1084 H1097 0.985 . S
N1085 C1087 1.356 . S
N1085 H1090 0.984 . S
N1085 H1091 0.985 . S
C1086 C1080 1.379 . S
C1086 C1083 1.363 . S
C1086 N1084 1.356 . S
C1087 C1081 1.363 . S
C1087 C1082 1.379 . S
C1087 N1085 1.356 . S
N1088 C1080 1.356 . S
N1088 H1094 0.984 . S
N1088 H1095 0.984 . S
N1089 C1082 1.356 . S
N1089 H1092 0.984 . S
N1089 H1093 0.985 . S
H1090 N1085 0.984 . S
H1091 N1085 0.985 . S
H1092 N1089 0.984 . S
H1093 N1089 0.985 . S
H1094 N1088 0.984 . S
H1095 N1088 0.984 . S
H1096 N1084 0.984 . S
H1097 N1084 0.985 . S
C1098 C1099 1.363 . S
C1098 C1104 1.379 . S
C1098 N1106 1.356 . S
C1099 C1098 1.363 . S
C1099 C1105 1.363 . S
C1100 C1101 1.363 . S
C1100 C1105 1.379 . S
C1100 N1107 1.356 . S
C1101 C1100 1.363 . S
C1101 C1104 1.363 . S
N1102 C1104 1.356 . S
N1102 H1114 0.984 . S
N1102 H1115 0.985 . S
N1103 C1105 1.356 . S
N1103 H1108 0.984 . S
N1103 H1109 0.985 . S
C1104 C1098 1.379 . S
C1104 C1101 1.363 . S
C1104 N1102 1.356 . S
C1105 C1099 1.363 . S
C1105 C1100 1.379 . S
C1105 N1103 1.356 . S
N1106 C1098 1.356 . S
N1106 H1112 0.984 . S
N1106 H1113 0.984 . S
N1107 C1100 1.356 . S
N1107 H1110 0.984 . S
N1107 H1111 0.985 . S
H1108 N1103 0.984 . S
H1109 N1103 0.985 . S
H1110 N1107 0.984 . S
H1111 N1107 0.985 . S
H1112 N1106 0.984 . S
H1113 N1106 0.984 . S
H1114 N1102 0.984 . S
H1115 N1102 0.985 . S
C1116 C1117 1.363 . S
C1116 C1122 1.379 . S
C1116 N1124 1.356 . S
C1117 C1116 1.363 . S
C1117 C1123 1.363 . S
C1118 C1119 1.363 . S
C1118 C1123 1.379 . S
C1118 N1125 1.356 . S
C1119 C1118 1.363 . S
C1119 C1122 1.363 . S
N1120 C1122 1.356 . S
N1120 H1132 0.984 . S
N1120 H1133 0.985 . S
N1121 C1123 1.356 . S
N1121 H1126 0.984 . S
N1121 H1127 0.985 . S
C1122 C1116 1.379 . S
C1122 C1119 1.363 . S
C1122 N1120 1.356 . S
C1123 C1117 1.363 . S
C1123 C1118 1.379 . S
C1123 N1121 1.356 . S
N1124 C1116 1.356 . S
N1124 H1130 0.984 . S
N1124 H1131 0.984 . S
N1125 C1118 1.356 . S
N1125 H1128 0.984 . S
N1125 H1129 0.985 . S
H1126 N1121 0.984 . S
H1127 N1121 0.985 . S
H1128 N1125 0.984 . S
H1129 N1125 0.985 . S
H1130 N1124 0.984 . S
H1131 N1124 0.984 . S
H1132 N1120 0.984 . S
H1133 N1120 0.985 . S
C1134 C1135 1.363 . S
C1134 C1140 1.377 . S
C1134 N1142 1.356 . S
C1135 C1134 1.363 . S
C1135 C1141 1.363 . S
C1136 C1137 1.363 . S
C1136 C1141 1.379 1_556 S
C1136 N1143 1.356 . S
C1137 C1136 1.363 . S
C1137 C1140 1.364 1_556 S
N1138 C1140 1.357 1_556 S
N1138 H1150 0.984 . S
N1138 H1151 0.985 . S
N1139 C1141 1.356 . S
N1139 H1144 0.984 . S
N1139 H1145 0.985 . S
C1140 C1134 1.377 . S
C1140 C1137 1.364 1_554 S
C1140 N1138 1.357 1_554 S
C1141 C1135 1.363 . S
C1141 C1136 1.379 1_554 S
C1141 N1139 1.356 . S
N1142 C1134 1.356 . S
N1142 H1148 0.984 . S
N1142 H1149 0.984 . S
N1143 C1136 1.356 . S
N1143 H1146 0.984 . S
N1143 H1147 0.985 . S
H1144 N1139 0.984 . S
H1145 N1139 0.985 . S
H1146 N1143 0.984 . S
H1147 N1143 0.985 . S
H1148 N1142 0.984 . S
H1149 N1142 0.984 . S
H1150 N1138 0.984 . S
H1151 N1138 0.985 . S
C577 C219 1.514 . S
C579 C3 1.514 . S
C595 C255 1.514 . S
C597 C39 1.514 . S
C613 C75 1.514 . S
C615 C147 1.514 . S
C631 C111 1.514 . S
C633 C183 1.514 . S
C649 C291 1.514 . S
C651 C507 1.514 . S
C667 C543 1.514 . S
C669 C327 1.514 . S
C685 C363 1.514 . S
C687 C435 1.514 . S
C703 C399 1.514 . S
C705 C471 1.514 . S
C721 C4 1.445 . S
C723 C364 1.445 . S
C739 C40 1.445 . S
C741 C400 1.445 . S
C757 C76 1.445 . S
C759 C292 1.445 . S
C775 C112 1.445 . S
C777 C328 1.445 . S
C793 C148 1.445 . S
C795 C508 1.445 . S
C811 C544 1.445 . S
C813 C184 1.445 . S
C829 C220 1.445 . S
C831 C436 1.445 . S
C847 C472 1.445 . S
C849 C256 1.445 . S
C865 C470 0.838 . S
C867 C2 0.838 . S
C883 C38 0.838 . S
C885 C506 0.838 . S
C901 C542 0.838 . S
C903 C74 0.838 . S
C919 C434 0.838 . S
C921 C110 0.838 . S
C937 C398 0.838 . S
C939 C146 0.838 . S
C955 C182 0.838 . S
C957 C290 0.838 . S
C973 C218 0.838 . S
C975 C326 0.838 . S
C991 C254 0.838 . S
C993 C362 0.838 . S
C1009 C482 1.496 . S
C1011 C14 1.496 . S
C1027 C50 1.496 . S
C1029 C518 1.496 . S
C1045 C86 1.496 . S
C1047 C554 1.496 . S
C1063 C446 1.496 . S
C1065 C122 1.496 . S
C1081 C410 1.496 . S
C1083 C158 1.496 . S
C1099 C302 1.496 . S
C1101 C194 1.496 . S
C1117 C230 1.496 . S
C1119 C338 1.496 . S
C1135 C374 1.496 . S
C1137 C266 1.496 . S
