# Generated by pormake.
# Topology uoc, (4)-cn, num edge types: 1
# Building blocks:
#     Node 0, Type 0, BuildingBlock: GALJAG_clean_sbu_0, # of connection points: 4
#     Node 1, Type 0, BuildingBlock: GALJAG_clean_sbu_0, # of connection points: 4
#     Node 2, Type 0, BuildingBlock: GALJAG_clean_sbu_0, # of connection points: 4
#     Node 3, Type 0, BuildingBlock: GALJAG_clean_sbu_0, # of connection points: 4
#     Node 4, Type 0, BuildingBlock: GALJAG_clean_sbu_0, # of connection points: 4
#     Node 5, Type 0, BuildingBlock: GALJAG_clean_sbu_0, # of connection points: 4
#     Node 6, Type 0, BuildingBlock: GALJAG_clean_sbu_0, # of connection points: 4
#     Node 7, Type 0, BuildingBlock: GALJAG_clean_sbu_0, # of connection points: 4
#     Edge 8, Type (0, 0), BuildingBlock: CIFDUS_clean_linker_0, # of connection points: 2
#     Edge 9, Type (0, 0), BuildingBlock: CIFDUS_clean_linker_0, # of connection points: 2
#     Edge 10, Type (0, 0), BuildingBlock: CIFDUS_clean_linker_0, # of connection points: 2
#     Edge 11, Type (0, 0), BuildingBlock: CIFDUS_clean_linker_0, # of connection points: 2
#     Edge 12, Type (0, 0), BuildingBlock: CIFDUS_clean_linker_0, # of connection points: 2
#     Edge 13, Type (0, 0), BuildingBlock: CIFDUS_clean_linker_0, # of connection points: 2
#     Edge 14, Type (0, 0), BuildingBlock: CIFDUS_clean_linker_0, # of connection points: 2
#     Edge 15, Type (0, 0), BuildingBlock: CIFDUS_clean_linker_0, # of connection points: 2
#     Edge 16, Type (0, 0), BuildingBlock: CIFDUS_clean_linker_0, # of connection points: 2
#     Edge 17, Type (0, 0), BuildingBlock: CIFDUS_clean_linker_0, # of connection points: 2
#     Edge 18, Type (0, 0), BuildingBlock: CIFDUS_clean_linker_0, # of connection points: 2
#     Edge 19, Type (0, 0), BuildingBlock: CIFDUS_clean_linker_0, # of connection points: 2
#     Edge 20, Type (0, 0), BuildingBlock: CIFDUS_clean_linker_0, # of connection points: 2
#     Edge 21, Type (0, 0), BuildingBlock: CIFDUS_clean_linker_0, # of connection points: 2
#     Edge 22, Type (0, 0), BuildingBlock: CIFDUS_clean_linker_0, # of connection points: 2
#     Edge 23, Type (0, 0), BuildingBlock: CIFDUS_clean_linker_0, # of connection points: 2
# Relax obj value: 0.017
# Max RMSD: 0.050
# Mean RMSD: 0.050
data_MOF--net-uoc--node1-GALJAG_clean_sbu_0--edge1-CIFDUS_clean_linker_0
_symmetry_space_group_name_H-M    P1
_symmetry_Int_Tables_number       1
_symmetry_cell_setting            triclinic
loop_
_symmetry_equiv_pos_as_xyz
'x, y, z'
_cell_length_a     24.483636
_cell_length_b     24.172814
_cell_length_c     48.759812
_cell_angle_alpha  89.94446
_cell_angle_beta   90.003158
_cell_angle_gamma 90.45575
loop_
_atom_site_label
_atom_site_type_symbol
_atom_site_fract_x
_atom_site_fract_y
_atom_site_fract_z
_atom_type_partial_charge
In0 In 0.12099 0.25631 0.12029 0.0
O1 O 0.04805 0.31677 0.12075 0.0
O2 O 0.12824 0.3495 0.11576 0.0
C3 C 0.07775 0.15273 0.12342 0.0
C4 C 0.17041 0.2677 0.16936 0.0
C5 C 0.16748 0.244 0.0706 0.0
O6 O 0.0478 0.19499 0.12082 0.0
O7 O 0.12817 0.16333 0.12473 0.0
O8 O 0.19377 0.23787 0.09266 0.0
O9 O 0.11809 0.25732 0.07361 0.0
C10 C 0.07793 0.35943 0.11773 0.0
O11 O 0.19531 0.27532 0.14697 0.0
O12 O 0.12082 0.25383 0.16698 0.0
In13 In 0.7542 0.60893 0.37061 0.0
O14 O 0.78053 0.68653 0.34715 0.0
O15 O 0.7407 0.62232 0.32495 0.0
C16 C 0.75073 0.64976 0.42202 0.0
C17 C 0.84959 0.55488 0.36734 0.0
C18 C 0.65697 0.55602 0.36838 0.0
O19 O 0.73241 0.676 0.40166 0.0
O20 O 0.77094 0.60341 0.41638 0.0
O21 O 0.70186 0.53077 0.36707 0.0
O22 O 0.66123 0.60789 0.37062 0.0
C23 C 0.76367 0.66914 0.32427 0.0
O24 O 0.80413 0.52978 0.3676 0.0
O25 O 0.84665 0.60685 0.36873 0.0
In26 In 0.38765 0.26063 0.62318 0.0
O27 O 0.45763 0.19881 0.62495 0.0
O28 O 0.37593 0.16795 0.62679 0.0
C29 C 0.44337 0.35686 0.62113 0.0
C30 C 0.34113 0.26426 0.67318 0.0
C31 C 0.34616 0.26128 0.572 0.0
O32 O 0.46709 0.31067 0.6229 0.0
O33 O 0.39187 0.35417 0.62034 0.0
O34 O 0.31952 0.27956 0.59225 0.0
O35 O 0.39262 0.24253 0.57779 0.0
C36 C 0.42625 0.15708 0.62666 0.0
O37 O 0.31426 0.25061 0.65205 0.0
O38 O 0.39031 0.27725 0.66881 0.0
In39 In 0.7361 0.88915 0.8709 0.0
O40 O 0.7049 0.81643 0.84528 0.0
O41 O 0.74804 0.88089 0.82482 0.0
C42 C 0.75222 0.83468 0.91848 0.0
C43 C 0.6405 0.94447 0.87129 0.0
C44 C 0.83231 0.94445 0.87071 0.0
O45 O 0.76662 0.8154 0.89562 0.0
O46 O 0.72837 0.88064 0.91729 0.0
O47 O 0.78778 0.96774 0.87658 0.0
O48 O 0.82793 0.89392 0.86467 0.0
C49 C 0.72313 0.83524 0.82293 0.0
O50 O 0.68525 0.96728 0.86474 0.0
O51 O 0.64421 0.89416 0.87791 0.0
In52 In 0.61555 0.7624 0.61892 0.0
O53 O 0.546 0.82445 0.62279 0.0
O54 O 0.6274 0.85532 0.61905 0.0
C55 C 0.55928 0.66628 0.61916 0.0
C56 C 0.66749 0.76327 0.6675 0.0
C57 C 0.65549 0.75684 0.56767 0.0
O58 O 0.53574 0.71267 0.61924 0.0
O59 O 0.61079 0.66873 0.61905 0.0
O60 O 0.68236 0.74027 0.58819 0.0
O61 O 0.60926 0.77651 0.57315 0.0
C62 C 0.57738 0.86625 0.62166 0.0
O63 O 0.69209 0.77372 0.64528 0.0
O64 O 0.6176 0.75105 0.66495 0.0
In65 In 0.23716 0.10904 0.86833 0.0
O66 O 0.25933 0.17868 0.83826 0.0
O67 O 0.22095 0.10646 0.8224 0.0
C68 C 0.22849 0.16663 0.91561 0.0
C69 C 0.33412 0.05645 0.87122 0.0
C70 C 0.14053 0.05447 0.86919 0.0
O71 O 0.2124 0.1855 0.8929 0.0
O72 O 0.25027 0.11965 0.91432 0.0
O73 O 0.18546 0.02984 0.86613 0.0
O74 O 0.1446 0.1062 0.87192 0.0
C75 C 0.24111 0.15352 0.81746 0.0
O76 O 0.28901 0.03201 0.87524 0.0
O77 O 0.33026 0.10733 0.86578 0.0
In78 In 0.88039 0.75456 0.12099 0.0
O79 O 0.80655 0.73746 0.14802 0.0
O80 O 0.88153 0.75852 0.16766 0.0
C81 C 0.83008 0.76373 0.07218 0.0
C82 C 0.92347 0.65133 0.11908 0.0
C83 C 0.92345 0.85842 0.12265 0.0
O84 O 0.80559 0.77065 0.09467 0.0
O85 O 0.87988 0.75118 0.07429 0.0
O86 O 0.95357 0.816 0.12212 0.0
O87 O 0.87298 0.84789 0.12261 0.0
C88 C 0.83181 0.74523 0.17026 0.0
O89 O 0.95355 0.69427 0.1193 0.0
O90 O 0.87299 0.66103 0.1195 0.0
In91 In 0.25149 0.39326 0.3713 0.0
O92 O 0.22687 0.31584 0.34702 0.0
O93 O 0.2644 0.38239 0.32547 0.0
C94 C 0.25348 0.35476 0.42334 0.0
C95 C 0.15583 0.44645 0.36721 0.0
C96 C 0.34886 0.44589 0.36975 0.0
O97 O 0.27199 0.32713 0.40347 0.0
O98 O 0.23386 0.40092 0.41683 0.0
O99 O 0.30404 0.47141 0.36991 0.0
O100 O 0.34449 0.39381 0.37027 0.0
C101 C 0.24257 0.33508 0.32424 0.0
O102 O 0.20121 0.47164 0.36609 0.0
O103 O 0.15899 0.39478 0.37037 0.0
H104 H 0.13081 0.27836 0.02098 0.0
H105 H 0.25702 0.18202 0.05949 0.0
H106 H 0.28974 0.15226 0.01454 0.0
H107 H 0.27743 0.14751 0.96452 0.0
H108 H 0.15353 0.24659 0.92584 0.0
H109 H 0.12534 0.28201 0.97057 0.0
C110 C 0.16585 0.25134 0.01946 0.0
C111 C 0.19112 0.23187 0.04344 0.0
C112 C 0.1847 0.2348 0.99356 0.0
C113 C 0.23688 0.19747 0.04128 0.0
C114 C 0.25546 0.18028 0.0156 0.0
C115 C 0.24475 0.17742 0.9659 0.0
C116 C 0.21721 0.19403 0.94202 0.0
C117 C 0.22896 0.19776 0.99164 0.0
C118 C 0.17534 0.23322 0.94398 0.0
C119 C 0.159 0.25324 0.96955 0.0
H120 H 0.714 0.65327 0.27535 0.0
H121 H 0.84137 0.74812 0.31493 0.0
H122 H 0.8719 0.78352 0.27045 0.0
H123 H 0.86798 0.77971 0.22002 0.0
H124 H 0.73883 0.68684 0.18068 0.0
H125 H 0.70304 0.65879 0.22537 0.0
C126 C 0.7479 0.68236 0.27422 0.0
C127 C 0.77584 0.69762 0.29823 0.0
C128 C 0.76516 0.70248 0.24865 0.0
C129 C 0.81928 0.73579 0.29665 0.0
C130 C 0.83696 0.75576 0.27123 0.0
C131 C 0.83164 0.75387 0.2213 0.0
C132 C 0.80648 0.73469 0.19719 0.0
C133 C 0.81112 0.73816 0.24706 0.0
C134 C 0.759 0.70191 0.19902 0.0
C135 C 0.73862 0.68571 0.22454 0.0
H136 H 0.26636 0.32712 0.55158 0.0
H137 H 0.3848 0.20482 0.52811 0.0
H138 H 0.36254 0.21891 0.47982 0.0
H139 H 0.31554 0.27203 0.44407 0.0
H140 H 0.20134 0.39852 0.46741 0.0
H141 H 0.21538 0.37656 0.51578 0.0
C142 C 0.28656 0.30297 0.53589 0.0
C143 C 0.32723 0.26518 0.54334 0.0
C144 C 0.27465 0.31238 0.50809 0.0
C145 C 0.3535 0.23441 0.52283 0.0
C146 C 0.34088 0.24248 0.49521 0.0
C147 C 0.29318 0.29418 0.45975 0.0
C148 C 0.2577 0.33694 0.45222 0.0
C149 C 0.30247 0.28229 0.48756 0.0
C150 C 0.22917 0.36558 0.47273 0.0
C151 C 0.23719 0.35311 0.5004 0.0
H152 H 0.77619 0.85376 0.77503 0.0
H153 H 0.64655 0.75651 0.81136 0.0
H154 H 0.62122 0.72081 0.7662 0.0
H155 H 0.63005 0.72498 0.7161 0.0
H156 H 0.76047 0.82097 0.67969 0.0
H157 H 0.79212 0.84874 0.72526 0.0
C158 C 0.74281 0.82425 0.77304 0.0
C159 C 0.71271 0.80834 0.79633 0.0
C160 C 0.72863 0.80383 0.74706 0.0
C161 C 0.67012 0.7695 0.79365 0.0
C162 C 0.65552 0.74923 0.76785 0.0
C163 C 0.66594 0.75126 0.71819 0.0
C164 C 0.69254 0.77151 0.69467 0.0
C165 C 0.68362 0.76723 0.74437 0.0
C166 C 0.73933 0.80496 0.69756 0.0
C167 C 0.75719 0.82113 0.72358 0.0
H168 H 0.28918 0.3567 0.275 0.0
H169 H 0.16698 0.25426 0.31416 0.0
H170 H 0.13541 0.22166 0.26936 0.0
H171 H 0.13704 0.22936 0.21896 0.0
H172 H 0.26124 0.32955 0.17995 0.0
H173 H 0.29779 0.35579 0.22478 0.0
C174 C 0.2562 0.32657 0.27371 0.0
C175 C 0.23006 0.30828 0.29776 0.0
C176 C 0.23832 0.30808 0.24793 0.0
C177 C 0.18776 0.26888 0.29589 0.0
C178 C 0.16945 0.25053 0.27029 0.0
C179 C 0.17245 0.25647 0.22033 0.0
C180 C 0.19603 0.27809 0.19628 0.0
C181 C 0.19351 0.27097 0.24616 0.0
C182 C 0.24233 0.31254 0.19822 0.0
C183 C 0.26313 0.32768 0.22384 0.0
H184 H 0.73519 0.6891 0.54927 0.0
H185 H 0.6166 0.80842 0.52227 0.0
H186 H 0.63967 0.78959 0.47448 0.0
H187 H 0.68776 0.73351 0.4404 0.0
H188 H 0.8018 0.60966 0.46734 0.0
H189 H 0.78668 0.63615 0.51508 0.0
C190 C 0.71507 0.71153 0.5329 0.0
C191 C 0.67423 0.74991 0.53919 0.0
C192 C 0.72743 0.69935 0.50547 0.0
C193 C 0.64805 0.77845 0.51786 0.0
C194 C 0.66114 0.76767 0.49055 0.0
C195 C 0.70981 0.71287 0.45672 0.0
C196 C 0.74561 0.66962 0.45045 0.0
C197 C 0.69987 0.72733 0.48411 0.0
C198 C 0.77375 0.64293 0.47174 0.0
C199 C 0.76512 0.65801 0.49902 0.0
H200 H 0.25758 0.19885 0.6906 0.0
H201 H 0.37828 0.3165 0.71884 0.0
H202 H 0.35359 0.29685 0.76644 0.0
H203 H 0.30471 0.239 0.79999 0.0
H204 H 0.1892 0.11608 0.77169 0.0
H205 H 0.20447 0.14506 0.72428 0.0
C206 C 0.27755 0.22099 0.70719 0.0
C207 C 0.31961 0.25901 0.70131 0.0
C208 C 0.26455 0.20797 0.73452 0.0
C209 C 0.3458 0.28694 0.72295 0.0
C210 C 0.33186 0.27557 0.75015 0.0
C211 C 0.28233 0.21917 0.78346 0.0
C212 C 0.24616 0.17532 0.78927 0.0
C213 C 0.29241 0.23503 0.75619 0.0
C214 C 0.21759 0.14973 0.76768 0.0
C215 C 0.22628 0.16626 0.74056 0.0
H216 H 0.86393 0.72981 0.02203 0.0
H217 H 0.7373 0.82168 0.06277 0.0
H218 H 0.69943 0.84898 0.01848 0.0
H219 H 0.70709 0.8531 0.96828 0.0
H220 H 0.8315 0.75852 0.92738 0.0
H221 H 0.86515 0.72534 0.9716 0.0
C222 C 0.82772 0.75532 0.02115 0.0
C223 C 0.80379 0.7743 0.04553 0.0
C224 C 0.80593 0.77049 -0.00437 0.0
C225 C 0.75649 0.8067 0.04422 0.0
C226 C 0.73493 0.82249 0.01892 0.0
C227 C 0.74112 0.82468 0.96908 0.0
C228 C 0.76719 0.8087 0.94474 0.0
C229 C 0.76002 0.8056 0.99452 0.0
C230 C 0.81082 0.77138 0.94592 0.0
C231 C 0.83025 0.75264 0.97118 0.0
H232 H 0.97157 0.11641 0.12073 0.0
H233 H 0.1372 0.05862 0.12801 0.0
H234 H 0.10492 0.96296 0.12845 0.0
H235 H 0.02954 0.89477 0.1263 0.0
H236 H 0.86386 0.95262 0.11945 0.0
H237 H 0.89611 0.04828 0.11929 0.0
C238 C 0.00053 0.08287 0.12248 0.0
C239 C 0.05671 0.09488 0.1243 0.0
C240 C 0.98168 0.02758 0.12275 0.0
C241 C 0.09368 0.05077 0.12656 0.0
C242 C 0.07528 0.99587 0.1268 0.0
C243 C 0.00056 0.92833 0.1248 0.0
C244 C 0.94439 0.91633 0.12287 0.0
C245 C 0.01937 0.98365 0.12481 0.0
C246 C 0.90737 0.96047 0.121 0.0
C247 C 0.92575 0.01537 0.12088 0.0
H248 H 0.05503 0.39959 0.36765 0.0
H249 H 0.13818 0.55747 0.3633 0.0
H250 H 0.05037 0.60487 0.36234 0.0
H251 H 0.95027 0.60142 0.36392 0.0
H252 H 0.86709 0.44356 0.36821 0.0
H253 H 0.95487 0.39602 0.36794 0.0
C254 C 0.05393 0.44437 0.36642 0.0
C255 C 0.10294 0.47504 0.36566 0.0
C256 C 0.00342 0.47126 0.36591 0.0
C257 C 0.10095 0.53299 0.36395 0.0
C258 C 0.0508 0.56009 0.36343 0.0
C259 C 0.95135 0.5566 0.36473 0.0
C260 C 0.90237 0.526 0.36619 0.0
C261 C 0.00184 0.52964 0.36459 0.0
C262 C 0.90432 0.46798 0.3671 0.0
C263 C 0.95444 0.44081 0.36698 0.0
H264 H 0.40006 0.45972 0.61941 0.0
H265 H 0.55374 0.37358 0.62146 0.0
H266 H 0.60307 0.46191 0.62088 0.0
H267 H 0.60244 0.56341 0.62008 0.0
H268 H 0.44883 0.64967 0.61839 0.0
H269 H 0.39945 0.56131 0.61856 0.0
C270 C 0.44436 0.46027 0.61969 0.0
C271 C 0.47324 0.4102 0.62047 0.0
C272 C 0.47239 0.51114 0.61946 0.0
C273 C 0.53059 0.41157 0.62086 0.0
C274 C 0.5588 0.46203 0.62054 0.0
C275 C 0.55815 0.5629 0.61974 0.0
C276 C 0.5293 0.61299 0.61924 0.0
C277 C 0.53011 0.51204 0.61989 0.0
C278 C 0.47195 0.61166 0.6188 0.0
C279 C 0.44372 0.56118 0.61889 0.0
H280 H 0.53981 0.90184 0.88211 0.0
H281 H 0.62261 0.05305 0.85899 0.0
H282 H 0.53521 0.10116 0.85713 0.0
H283 H 0.43509 0.10002 0.86164 0.0
H284 H 0.35239 0.94845 0.88432 0.0
H285 H 0.43988 0.90076 0.88678 0.0
C286 C 0.53875 0.94537 0.87674 0.0
C287 C 0.58766 0.97384 0.87072 0.0
C288 C 0.48834 0.97267 0.87558 0.0
C289 C 0.58557 0.03019 0.86372 0.0
C290 C 0.53559 0.05772 0.86264 0.0
C291 C 0.43623 0.05656 0.86715 0.0
C292 C 0.38728 0.02782 0.87278 0.0
C293 C 0.48671 0.02934 0.86845 0.0
C294 C 0.38945 0.97152 0.87986 0.0
C295 C 0.43948 0.94421 0.88128 0.0
H296 H 0.02953 0.61669 0.11481 0.0
H297 H 0.86407 0.55612 0.12283 0.0
H298 H 0.8964 0.46101 0.123 0.0
H299 H 0.97184 0.39412 0.12119 0.0
H300 H 0.13725 0.45455 0.11271 0.0
H301 H 0.10491 0.5497 0.11233 0.0
C302 C 0.00061 0.58266 0.11657 0.0
C303 C 0.94447 0.59375 0.11881 0.0
C304 C 0.01947 0.52764 0.11656 0.0
C305 C 0.90755 0.549 0.12102 0.0
C306 C 0.92598 0.4944 0.12115 0.0
C307 C 0.00075 0.42811 0.11921 0.0
C308 C 0.05689 0.41699 0.11701 0.0
C309 C 0.98186 0.4831 0.11896 0.0
C310 C 0.09377 0.4617 0.11444 0.0
C311 C 0.07534 0.51631 0.11424 0.0
H312 H 0.44936 0.39962 0.36668 0.0
H313 H 0.36804 0.55704 0.37159 0.0
H314 H 0.45624 0.60502 0.37135 0.0
H315 H 0.55643 0.60222 0.37022 0.0
H316 H 0.63786 0.4449 0.36507 0.0
H317 H 0.54962 0.3969 0.36487 0.0
C318 C 0.45097 0.44443 0.36767 0.0
C319 C 0.40228 0.47474 0.3692 0.0
C320 C 0.5018 0.47174 0.36748 0.0
C321 C 0.40496 0.53277 0.3704 0.0
C322 C 0.45537 0.56023 0.37028 0.0
C323 C 0.55485 0.55743 0.369 0.0
C324 C 0.60357 0.52715 0.36771 0.0
C325 C 0.50403 0.53014 0.36889 0.0
C326 C 0.6009 0.46915 0.36611 0.0
C327 C 0.55048 0.44168 0.36601 0.0
H328 H 0.53138 0.12258 0.62333 0.0
H329 H 0.36569 0.06273 0.6317 0.0
H330 H 0.3977 0.96738 0.63128 0.0
H331 H 0.47262 0.90077 0.62754 0.0
H332 H 0.63823 0.96072 0.61889 0.0
H333 H 0.60642 0.05605 0.62042 0.0
C334 C 0.50235 0.08865 0.62518 0.0
C335 C 0.44632 0.09968 0.62749 0.0
C336 C 0.52098 0.03388 0.62478 0.0
C337 C 0.40911 0.05532 0.62985 0.0
C338 C 0.42734 1.00075 0.62959 0.0
C339 C 0.5017 0.93473 0.62603 0.0
C340 C 0.55761 0.92372 0.62303 0.0
C341 C 0.48314 0.98952 0.62689 0.0
C342 C 0.59489 0.96811 0.62116 0.0
C343 C 0.57677 0.02267 0.62204 0.0
H344 H 0.93218 0.89975 0.86263 0.0
H345 H 0.85215 0.05409 0.88028 0.0
H346 H 0.94068 0.10165 0.88153 0.0
H347 H 0.04068 0.09928 0.87751 0.0
H348 H 0.12066 0.94467 0.86036 0.0
H349 H 0.03215 0.89719 0.85909 0.0
C350 C 0.93409 0.94383 0.8667 0.0
C351 C 0.88569 0.97342 0.87127 0.0
C352 C 0.98507 0.97076 0.86754 0.0
C353 C 0.88883 0.03043 0.87665 0.0
C354 C 0.93942 0.05761 0.87739 0.0
C355 C 0.03874 0.05517 0.87352 0.0
C356 C 0.08713 0.02552 0.86901 0.0
C357 C 0.98777 0.02818 0.87286 0.0
C358 C 0.084 0.9684 0.86393 0.0
C359 C 0.03341 0.94125 0.86316 0.0
loop_
_geom_bond_atom_site_label_1
_geom_bond_atom_site_label_2
_geom_bond_distance
_geom_bond_site_symmetry_2
_ccdc_geom_bond_type
In0 O1 2.294 . S
In0 O2 2.326 . S
In0 O6 2.266 . S
In0 O7 2.326 . S
In0 O8 2.266 . S
In0 O9 2.326 . S
In0 O11 2.294 . S
In0 O12 2.326 . S
O1 In0 2.294 . S
O1 C10 1.240 . S
O2 In0 2.326 . S
O2 C10 1.252 . S
C3 O6 1.252 . S
C3 O7 1.260 . S
C4 O11 1.240 . S
C4 O12 1.252 . S
C5 O8 1.252 . S
C5 O9 1.260 . S
O6 In0 2.266 . S
O6 C3 1.252 . S
O7 In0 2.326 . S
O7 C3 1.260 . S
O8 In0 2.266 . S
O8 C5 1.252 . S
O9 In0 2.326 . S
O9 C5 1.260 . S
C10 O1 1.240 . S
C10 O2 1.252 . S
O11 In0 2.294 . S
O11 C4 1.240 . S
O12 In0 2.326 . S
O12 C4 1.252 . S
In13 O14 2.294 . S
In13 O15 2.326 . S
In13 O19 2.266 . S
In13 O20 2.326 . S
In13 O21 2.266 . S
In13 O22 2.326 . S
In13 O24 2.294 . S
In13 O25 2.326 . S
O14 In13 2.294 . S
O14 C23 1.240 . S
O15 In13 2.326 . S
O15 C23 1.252 . S
C16 O19 1.252 . S
C16 O20 1.260 . S
C17 O24 1.240 . S
C17 O25 1.252 . S
C18 O21 1.252 . S
C18 O22 1.260 . S
O19 In13 2.266 . S
O19 C16 1.252 . S
O20 In13 2.326 . S
O20 C16 1.260 . S
O21 In13 2.266 . S
O21 C18 1.252 . S
O22 In13 2.326 . S
O22 C18 1.260 . S
C23 O14 1.240 . S
C23 O15 1.252 . S
O24 In13 2.294 . S
O24 C17 1.240 . S
O25 In13 2.326 . S
O25 C17 1.252 . S
In26 O27 2.294 . S
In26 O28 2.326 . S
In26 O32 2.266 . S
In26 O33 2.326 . S
In26 O34 2.266 . S
In26 O35 2.326 . S
In26 O37 2.294 . S
In26 O38 2.326 . S
O27 In26 2.294 . S
O27 C36 1.240 . S
O28 In26 2.326 . S
O28 C36 1.252 . S
C29 O32 1.252 . S
C29 O33 1.260 . S
C30 O37 1.240 . S
C30 O38 1.252 . S
C31 O34 1.252 . S
C31 O35 1.260 . S
O32 In26 2.266 . S
O32 C29 1.252 . S
O33 In26 2.326 . S
O33 C29 1.260 . S
O34 In26 2.266 . S
O34 C31 1.252 . S
O35 In26 2.326 . S
O35 C31 1.260 . S
C36 O27 1.240 . S
C36 O28 1.252 . S
O37 In26 2.294 . S
O37 C30 1.240 . S
O38 In26 2.326 . S
O38 C30 1.252 . S
In39 O40 2.294 . S
In39 O41 2.326 . S
In39 O45 2.266 . S
In39 O46 2.326 . S
In39 O47 2.266 . S
In39 O48 2.326 . S
In39 O50 2.294 . S
In39 O51 2.326 . S
O40 In39 2.294 . S
O40 C49 1.240 . S
O41 In39 2.326 . S
O41 C49 1.252 . S
C42 O45 1.252 . S
C42 O46 1.260 . S
C43 O50 1.240 . S
C43 O51 1.252 . S
C44 O47 1.252 . S
C44 O48 1.260 . S
O45 In39 2.266 . S
O45 C42 1.252 . S
O46 In39 2.326 . S
O46 C42 1.260 . S
O47 In39 2.266 . S
O47 C44 1.252 . S
O48 In39 2.326 . S
O48 C44 1.260 . S
C49 O40 1.240 . S
C49 O41 1.252 . S
O50 In39 2.294 . S
O50 C43 1.240 . S
O51 In39 2.326 . S
O51 C43 1.252 . S
In52 O53 2.294 . S
In52 O54 2.326 . S
In52 O58 2.266 . S
In52 O59 2.326 . S
In52 O60 2.266 . S
In52 O61 2.326 . S
In52 O63 2.294 . S
In52 O64 2.326 . S
O53 In52 2.294 . S
O53 C62 1.240 . S
O54 In52 2.326 . S
O54 C62 1.252 . S
C55 O58 1.252 . S
C55 O59 1.260 . S
C56 O63 1.240 . S
C56 O64 1.252 . S
C57 O60 1.252 . S
C57 O61 1.260 . S
O58 In52 2.266 . S
O58 C55 1.252 . S
O59 In52 2.326 . S
O59 C55 1.260 . S
O60 In52 2.266 . S
O60 C57 1.252 . S
O61 In52 2.326 . S
O61 C57 1.260 . S
C62 O53 1.240 . S
C62 O54 1.252 . S
O63 In52 2.294 . S
O63 C56 1.240 . S
O64 In52 2.326 . S
O64 C56 1.252 . S
In65 O66 2.294 . S
In65 O67 2.326 . S
In65 O71 2.266 . S
In65 O72 2.326 . S
In65 O73 2.266 . S
In65 O74 2.326 . S
In65 O76 2.294 . S
In65 O77 2.326 . S
O66 In65 2.294 . S
O66 C75 1.240 . S
O67 In65 2.326 . S
O67 C75 1.252 . S
C68 O71 1.252 . S
C68 O72 1.260 . S
C69 O76 1.240 . S
C69 O77 1.252 . S
C70 O73 1.252 . S
C70 O74 1.260 . S
O71 In65 2.266 . S
O71 C68 1.252 . S
O72 In65 2.326 . S
O72 C68 1.260 . S
O73 In65 2.266 . S
O73 C70 1.252 . S
O74 In65 2.326 . S
O74 C70 1.260 . S
C75 O66 1.240 . S
C75 O67 1.252 . S
O76 In65 2.294 . S
O76 C69 1.240 . S
O77 In65 2.326 . S
O77 C69 1.252 . S
In78 O79 2.294 . S
In78 O80 2.326 . S
In78 O84 2.266 . S
In78 O85 2.326 . S
In78 O86 2.266 . S
In78 O87 2.326 . S
In78 O89 2.294 . S
In78 O90 2.326 . S
O79 In78 2.294 . S
O79 C88 1.240 . S
O80 In78 2.326 . S
O80 C88 1.252 . S
C81 O84 1.252 . S
C81 O85 1.260 . S
C82 O89 1.240 . S
C82 O90 1.252 . S
C83 O86 1.252 . S
C83 O87 1.260 . S
O84 In78 2.266 . S
O84 C81 1.252 . S
O85 In78 2.326 . S
O85 C81 1.260 . S
O86 In78 2.266 . S
O86 C83 1.252 . S
O87 In78 2.326 . S
O87 C83 1.260 . S
C88 O79 1.240 . S
C88 O80 1.252 . S
O89 In78 2.294 . S
O89 C82 1.240 . S
O90 In78 2.326 . S
O90 C82 1.252 . S
In91 O92 2.294 . S
In91 O93 2.326 . S
In91 O97 2.266 . S
In91 O98 2.326 . S
In91 O99 2.266 . S
In91 O100 2.326 . S
In91 O102 2.294 . S
In91 O103 2.326 . S
O92 In91 2.294 . S
O92 C101 1.240 . S
O93 In91 2.326 . S
O93 C101 1.252 . S
C94 O97 1.252 . S
C94 O98 1.260 . S
C95 O102 1.240 . S
C95 O103 1.252 . S
C96 O99 1.252 . S
C96 O100 1.260 . S
O97 In91 2.266 . S
O97 C94 1.252 . S
O98 In91 2.326 . S
O98 C94 1.260 . S
O99 In91 2.266 . S
O99 C96 1.252 . S
O100 In91 2.326 . S
O100 C96 1.260 . S
C101 O92 1.240 . S
C101 O93 1.252 . S
O102 In91 2.294 . S
O102 C95 1.240 . S
O103 In91 2.326 . S
O103 C95 1.252 . S
H104 C110 0.930 . S
H105 C113 0.930 . S
H106 C114 0.930 . S
H107 C115 0.930 . S
H108 C118 0.930 . S
H109 C119 0.930 . S
C110 H104 0.930 . S
C110 C111 1.355 . S
C110 C112 1.447 . S
C111 C110 1.355 . S
C111 C113 1.419 . S
C112 C110 1.447 . S
C112 C117 1.423 1_554 S
C112 C119 1.379 1_554 S
C113 H105 0.930 . S
C113 C111 1.419 . S
C113 C114 1.362 . S
C114 H106 0.930 . S
C114 C113 1.362 . S
C114 C117 1.379 1_554 S
C115 H107 0.930 . S
C115 C116 1.355 . S
C115 C117 1.447 . S
C116 C115 1.355 . S
C116 C118 1.419 . S
C117 C112 1.423 1_556 S
C117 C114 1.379 1_556 S
C117 C115 1.447 . S
C118 H108 0.930 . S
C118 C116 1.419 . S
C118 C119 1.362 . S
C119 H109 0.930 . S
C119 C112 1.379 1_556 S
C119 C118 1.362 . S
H120 C126 0.930 . S
H121 C129 0.930 . S
H122 C130 0.930 . S
H123 C131 0.930 . S
H124 C134 0.930 . S
H125 C135 0.930 . S
C126 H120 0.930 . S
C126 C127 1.355 . S
C126 C128 1.415 . S
C127 C126 1.355 . S
C127 C129 1.419 . S
C128 C126 1.415 . S
C128 C133 1.425 . S
C128 C135 1.409 . S
C129 H121 0.930 . S
C129 C127 1.419 . S
C129 C130 1.362 . S
C130 H122 0.930 . S
C130 C129 1.362 . S
C130 C133 1.409 . S
C131 H123 0.930 . S
C131 C132 1.355 . S
C131 C133 1.415 . S
C132 C131 1.355 . S
C132 C134 1.419 . S
C133 C128 1.425 . S
C133 C130 1.409 . S
C133 C131 1.415 . S
C134 H124 0.930 . S
C134 C132 1.419 . S
C134 C135 1.362 . S
C135 H125 0.930 . S
C135 C128 1.409 . S
C135 C134 1.362 . S
H136 C142 0.930 . S
H137 C145 0.930 . S
H138 C146 0.930 . S
H139 C147 0.930 . S
H140 C150 0.930 . S
H141 C151 0.930 . S
C142 H136 0.930 . S
C142 C143 1.355 . S
C142 C144 1.415 . S
C143 C142 1.355 . S
C143 C145 1.419 . S
C144 C142 1.415 . S
C144 C149 1.425 . S
C144 C151 1.409 . S
C145 H137 0.930 . S
C145 C143 1.419 . S
C145 C146 1.362 . S
C146 H138 0.930 . S
C146 C145 1.362 . S
C146 C149 1.409 . S
C147 H139 0.930 . S
C147 C148 1.355 . S
C147 C149 1.415 . S
C148 C147 1.355 . S
C148 C150 1.419 . S
C149 C144 1.425 . S
C149 C146 1.409 . S
C149 C147 1.415 . S
C150 H140 0.930 . S
C150 C148 1.419 . S
C150 C151 1.362 . S
C151 H141 0.930 . S
C151 C144 1.409 . S
C151 C150 1.362 . S
H152 C158 0.930 . S
H153 C161 0.930 . S
H154 C162 0.930 . S
H155 C163 0.930 . S
H156 C166 0.930 . S
H157 C167 0.930 . S
C158 H152 0.930 . S
C158 C159 1.355 . S
C158 C160 1.415 . S
C159 C158 1.355 . S
C159 C161 1.419 . S
C160 C158 1.415 . S
C160 C165 1.425 . S
C160 C167 1.409 . S
C161 H153 0.930 . S
C161 C159 1.419 . S
C161 C162 1.362 . S
C162 H154 0.930 . S
C162 C161 1.362 . S
C162 C165 1.409 . S
C163 H155 0.930 . S
C163 C164 1.355 . S
C163 C165 1.415 . S
C164 C163 1.355 . S
C164 C166 1.419 . S
C165 C160 1.425 . S
C165 C162 1.409 . S
C165 C163 1.415 . S
C166 H156 0.930 . S
C166 C164 1.419 . S
C166 C167 1.362 . S
C167 H157 0.930 . S
C167 C160 1.409 . S
C167 C166 1.362 . S
H168 C174 0.930 . S
H169 C177 0.930 . S
H170 C178 0.930 . S
H171 C179 0.930 . S
H172 C182 0.930 . S
H173 C183 0.930 . S
C174 H168 0.930 . S
C174 C175 1.355 . S
C174 C176 1.415 . S
C175 C174 1.355 . S
C175 C177 1.419 . S
C176 C174 1.415 . S
C176 C181 1.425 . S
C176 C183 1.409 . S
C177 H169 0.930 . S
C177 C175 1.419 . S
C177 C178 1.362 . S
C178 H170 0.930 . S
C178 C177 1.362 . S
C178 C181 1.409 . S
C179 H171 0.930 . S
C179 C180 1.355 . S
C179 C181 1.415 . S
C180 C179 1.355 . S
C180 C182 1.419 . S
C181 C176 1.425 . S
C181 C178 1.409 . S
C181 C179 1.415 . S
C182 H172 0.930 . S
C182 C180 1.419 . S
C182 C183 1.362 . S
C183 H173 0.930 . S
C183 C176 1.409 . S
C183 C182 1.362 . S
H184 C190 0.930 . S
H185 C193 0.930 . S
H186 C194 0.930 . S
H187 C195 0.930 . S
H188 C198 0.930 . S
H189 C199 0.930 . S
C190 H184 0.930 . S
C190 C191 1.355 . S
C190 C192 1.415 . S
C191 C190 1.355 . S
C191 C193 1.419 . S
C192 C190 1.415 . S
C192 C197 1.425 . S
C192 C199 1.409 . S
C193 H185 0.930 . S
C193 C191 1.419 . S
C193 C194 1.362 . S
C194 H186 0.930 . S
C194 C193 1.362 . S
C194 C197 1.409 . S
C195 H187 0.930 . S
C195 C196 1.355 . S
C195 C197 1.415 . S
C196 C195 1.355 . S
C196 C198 1.419 . S
C197 C192 1.425 . S
C197 C194 1.409 . S
C197 C195 1.415 . S
C198 H188 0.930 . S
C198 C196 1.419 . S
C198 C199 1.362 . S
C199 H189 0.930 . S
C199 C192 1.409 . S
C199 C198 1.362 . S
H200 C206 0.930 . S
H201 C209 0.930 . S
H202 C210 0.930 . S
H203 C211 0.930 . S
H204 C214 0.930 . S
H205 C215 0.930 . S
C206 H200 0.930 . S
C206 C207 1.355 . S
C206 C208 1.415 . S
C207 C206 1.355 . S
C207 C209 1.419 . S
C208 C206 1.415 . S
C208 C213 1.425 . S
C208 C215 1.409 . S
C209 H201 0.930 . S
C209 C207 1.419 . S
C209 C210 1.362 . S
C210 H202 0.930 . S
C210 C209 1.362 . S
C210 C213 1.409 . S
C211 H203 0.930 . S
C211 C212 1.355 . S
C211 C213 1.415 . S
C212 C211 1.355 . S
C212 C214 1.419 . S
C213 C208 1.425 . S
C213 C210 1.409 . S
C213 C211 1.415 . S
C214 H204 0.930 . S
C214 C212 1.419 . S
C214 C215 1.362 . S
C215 H205 0.930 . S
C215 C208 1.409 . S
C215 C214 1.362 . S
H216 C222 0.930 . S
H217 C225 0.930 . S
H218 C226 0.930 . S
H219 C227 0.930 . S
H220 C230 0.930 . S
H221 C231 0.930 . S
C222 H216 0.930 . S
C222 C223 1.355 . S
C222 C224 1.415 . S
C223 C222 1.355 . S
C223 C225 1.419 . S
C224 C222 1.415 . S
C224 C229 1.425 1_554 S
C224 C231 1.409 1_554 S
C225 H217 0.930 . S
C225 C223 1.419 . S
C225 C226 1.362 . S
C226 H218 0.930 . S
C226 C225 1.362 . S
C226 C229 1.409 1_554 S
C227 H219 0.930 . S
C227 C228 1.355 . S
C227 C229 1.415 . S
C228 C227 1.355 . S
C228 C230 1.419 . S
C229 C224 1.425 1_556 S
C229 C226 1.409 1_556 S
C229 C227 1.415 . S
C230 H220 0.930 . S
C230 C228 1.419 . S
C230 C231 1.362 . S
C231 H221 0.930 . S
C231 C224 1.409 1_556 S
C231 C230 1.362 . S
H232 C238 0.930 1_655 S
H233 C241 0.930 . S
H234 C242 0.930 1_565 S
H235 C243 0.930 1_455 S
H236 C246 0.930 . S
H237 C247 0.930 1_545 S
C238 H232 0.930 1_455 S
C238 C239 1.355 . S
C238 C240 1.415 1_455 S
C239 C238 1.355 . S
C239 C241 1.419 . S
C240 C238 1.415 1_655 S
C240 C245 1.425 1_645 S
C240 C247 1.409 1_545 S
C241 H233 0.930 . S
C241 C239 1.419 . S
C241 C242 1.362 . S
C242 H234 0.930 1_545 S
C242 C241 1.362 . S
C242 C245 1.409 1_545 S
C243 H235 0.930 1_655 S
C243 C244 1.355 . S
C243 C245 1.415 1_655 S
C244 C243 1.355 . S
C244 C246 1.419 . S
C245 C240 1.425 1_465 S
C245 C242 1.409 1_565 S
C245 C243 1.415 1_455 S
C246 H236 0.930 . S
C246 C244 1.419 . S
C246 C247 1.362 . S
C247 H237 0.930 1_565 S
C247 C240 1.409 1_565 S
C247 C246 1.362 . S
H248 C254 0.930 . S
H249 C257 0.930 . S
H250 C258 0.930 . S
H251 C259 0.930 . S
H252 C262 0.930 . S
H253 C263 0.930 . S
C254 H248 0.930 . S
C254 C255 1.355 . S
C254 C256 1.415 . S
C255 C254 1.355 . S
C255 C257 1.419 . S
C256 C254 1.415 . S
C256 C261 1.425 1_455 S
C256 C263 1.409 1_455 S
C257 H249 0.930 . S
C257 C255 1.419 . S
C257 C258 1.362 . S
C258 H250 0.930 . S
C258 C257 1.362 . S
C258 C261 1.409 1_455 S
C259 H251 0.930 . S
C259 C260 1.355 . S
C259 C261 1.415 . S
C260 C259 1.355 . S
C260 C262 1.419 . S
C261 C256 1.425 1_655 S
C261 C258 1.409 1_655 S
C261 C259 1.415 . S
C262 H252 0.930 . S
C262 C260 1.419 . S
C262 C263 1.362 . S
C263 H253 0.930 . S
C263 C256 1.409 1_655 S
C263 C262 1.362 . S
H264 C270 0.930 . S
H265 C273 0.930 . S
H266 C274 0.930 . S
H267 C275 0.930 . S
H268 C278 0.930 . S
H269 C279 0.930 . S
C270 H264 0.930 . S
C270 C271 1.355 . S
C270 C272 1.415 . S
C271 C270 1.355 . S
C271 C273 1.419 . S
C272 C270 1.415 . S
C272 C277 1.425 . S
C272 C279 1.409 . S
C273 H265 0.930 . S
C273 C271 1.419 . S
C273 C274 1.362 . S
C274 H266 0.930 . S
C274 C273 1.362 . S
C274 C277 1.409 . S
C275 H267 0.930 . S
C275 C276 1.355 . S
C275 C277 1.415 . S
C276 C275 1.355 . S
C276 C278 1.419 . S
C277 C272 1.425 . S
C277 C274 1.409 . S
C277 C275 1.415 . S
C278 H268 0.930 . S
C278 C276 1.419 . S
C278 C279 1.362 . S
C279 H269 0.930 . S
C279 C272 1.409 . S
C279 C278 1.362 . S
H280 C286 0.930 . S
H281 C289 0.930 . S
H282 C290 0.930 . S
H283 C291 0.930 . S
H284 C294 0.930 . S
H285 C295 0.930 . S
C286 H280 0.930 . S
C286 C287 1.355 . S
C286 C288 1.415 . S
C287 C286 1.355 . S
C287 C289 1.419 1_565 S
C288 C286 1.415 . S
C288 C293 1.425 1_565 S
C288 C295 1.409 . S
C289 H281 0.930 . S
C289 C287 1.419 1_545 S
C289 C290 1.362 . S
C290 H282 0.930 . S
C290 C289 1.362 . S
C290 C293 1.409 . S
C291 H283 0.930 . S
C291 C292 1.355 . S
C291 C293 1.415 . S
C292 C291 1.355 . S
C292 C294 1.419 1_545 S
C293 C288 1.425 1_545 S
C293 C290 1.409 . S
C293 C291 1.415 . S
C294 H284 0.930 . S
C294 C292 1.419 1_565 S
C294 C295 1.362 . S
C295 H285 0.930 . S
C295 C288 1.409 . S
C295 C294 1.362 . S
H296 C302 0.930 . S
H297 C305 0.930 . S
H298 C306 0.930 . S
H299 C307 0.930 . S
H300 C310 0.930 . S
H301 C311 0.930 . S
C302 H296 0.930 . S
C302 C303 1.355 . S
C302 C304 1.415 1_655 S
C303 C302 1.355 . S
C303 C305 1.419 . S
C304 C302 1.415 1_455 S
C304 C309 1.425 1_455 S
C304 C311 1.409 . S
C305 H297 0.930 . S
C305 C303 1.419 . S
C305 C306 1.362 . S
C306 H298 0.930 . S
C306 C305 1.362 . S
C306 C309 1.409 . S
C307 H299 0.930 . S
C307 C308 1.355 . S
C307 C309 1.415 1_455 S
C308 C307 1.355 . S
C308 C310 1.419 . S
C309 C304 1.425 1_655 S
C309 C306 1.409 . S
C309 C307 1.415 1_655 S
C310 H300 0.930 . S
C310 C308 1.419 . S
C310 C311 1.362 . S
C311 H301 0.930 . S
C311 C304 1.409 . S
C311 C310 1.362 . S
H312 C318 0.930 . S
H313 C321 0.930 . S
H314 C322 0.930 . S
H315 C323 0.930 . S
H316 C326 0.930 . S
H317 C327 0.930 . S
C318 H312 0.930 . S
C318 C319 1.355 . S
C318 C320 1.415 . S
C319 C318 1.355 . S
C319 C321 1.419 . S
C320 C318 1.415 . S
C320 C325 1.425 . S
C320 C327 1.409 . S
C321 H313 0.930 . S
C321 C319 1.419 . S
C321 C322 1.362 . S
C322 H314 0.930 . S
C322 C321 1.362 . S
C322 C325 1.409 . S
C323 H315 0.930 . S
C323 C324 1.355 . S
C323 C325 1.415 . S
C324 C323 1.355 . S
C324 C326 1.419 . S
C325 C320 1.425 . S
C325 C322 1.409 . S
C325 C323 1.415 . S
C326 H316 0.930 . S
C326 C324 1.419 . S
C326 C327 1.362 . S
C327 H317 0.930 . S
C327 C320 1.409 . S
C327 C326 1.362 . S
H328 C334 0.930 . S
H329 C337 0.930 . S
H330 C338 0.930 1_565 S
H331 C339 0.930 . S
H332 C342 0.930 . S
H333 C343 0.930 1_545 S
C334 H328 0.930 . S
C334 C335 1.355 . S
C334 C336 1.415 . S
C335 C334 1.355 . S
C335 C337 1.419 . S
C336 C334 1.415 . S
C336 C341 1.425 1_545 S
C336 C343 1.409 1_545 S
C337 H329 0.930 . S
C337 C335 1.419 . S
C337 C338 1.362 . S
C338 H330 0.930 1_545 S
C338 C337 1.362 . S
C338 C341 1.409 1_545 S
C339 H331 0.930 . S
C339 C340 1.355 . S
C339 C341 1.415 . S
C340 C339 1.355 . S
C340 C342 1.419 . S
C341 C336 1.425 1_565 S
C341 C338 1.409 1_565 S
C341 C339 1.415 . S
C342 H332 0.930 . S
C342 C340 1.419 . S
C342 C343 1.362 . S
C343 H333 0.930 1_565 S
C343 C336 1.409 1_565 S
C343 C342 1.362 . S
H344 C350 0.930 . S
H345 C353 0.930 . S
H346 C354 0.930 . S
H347 C355 0.930 . S
H348 C358 0.930 . S
H349 C359 0.930 . S
C350 H344 0.930 . S
C350 C351 1.355 . S
C350 C352 1.415 1_655 S
C351 C350 1.355 . S
C351 C353 1.419 1_565 S
C352 C350 1.415 1_455 S
C352 C357 1.425 1_465 S
C352 C359 1.409 . S
C353 H345 0.930 . S
C353 C351 1.419 1_545 S
C353 C354 1.362 . S
C354 H346 0.930 . S
C354 C353 1.362 . S
C354 C357 1.409 . S
C355 H347 0.930 . S
C355 C356 1.355 . S
C355 C357 1.415 1_455 S
C356 C355 1.355 . S
C356 C358 1.419 1_545 S
C357 C352 1.425 1_645 S
C357 C354 1.409 . S
C357 C355 1.415 1_655 S
C358 H348 0.930 . S
C358 C356 1.419 1_565 S
C358 C359 1.362 . S
C359 H349 0.930 . S
C359 C352 1.409 . S
C359 C358 1.362 . S
C111 C5 1.359 . S
C116 C68 1.357 . S
C127 C23 1.341 . S
C132 C88 1.365 . S
C143 C31 1.339 . S
C148 C94 1.335 . S
C159 C49 1.348 . S
C164 C56 1.367 . S
C175 C101 1.366 . S
C180 C4 1.352 . S
C191 C57 1.339 . S
C196 C16 1.335 . S
C207 C30 1.339 . S
C212 C75 1.354 . S
C223 C81 1.342 . S
C228 C42 1.362 . S
C239 C3 1.527 . S
C244 C83 1.522 . S
C255 C95 1.512 . S
C260 C17 1.524 . S
C271 C29 1.525 . S
C276 C55 1.520 . S
C287 C43 1.512 . S
C292 C69 1.520 . S
C303 C82 1.517 . S
C308 C10 1.526 . S
C319 C96 1.521 . S
C324 C18 1.521 . S
C335 C36 1.517 . S
C340 C62 1.526 . S
C351 C44 1.520 . S
C356 C70 1.523 . S
