# Generated by pormake.
# Topology wgs, (5)-cn, num edge types: 1
# Building blocks:
#     Node 0, Type 0, BuildingBlock: XOMCOT_clean_sbu_1, # of connection points: 5
#     Node 1, Type 0, BuildingBlock: XOMCOT_clean_sbu_1, # of connection points: 5
#     Node 2, Type 0, BuildingBlock: XOMCOT_clean_sbu_1, # of connection points: 5
#     Node 3, Type 0, BuildingBlock: XOMCOT_clean_sbu_1, # of connection points: 5
#     Node 4, Type 0, BuildingBlock: XOMCOT_clean_sbu_1, # of connection points: 5
#     Node 5, Type 0, BuildingBlock: XOMCOT_clean_sbu_1, # of connection points: 5
#     Node 6, Type 0, BuildingBlock: XOMCOT_clean_sbu_1, # of connection points: 5
#     Node 7, Type 0, BuildingBlock: XOMCOT_clean_sbu_1, # of connection points: 5
#     Node 8, Type 0, BuildingBlock: XOMCOT_clean_sbu_1, # of connection points: 5
#     Node 9, Type 0, BuildingBlock: XOMCOT_clean_sbu_1, # of connection points: 5
#     Node 10, Type 0, BuildingBlock: XOMCOT_clean_sbu_1, # of connection points: 5
#     Node 11, Type 0, BuildingBlock: XOMCOT_clean_sbu_1, # of connection points: 5
#     Node 12, Type 0, BuildingBlock: XOMCOT_clean_sbu_1, # of connection points: 5
#     Node 13, Type 0, BuildingBlock: XOMCOT_clean_sbu_1, # of connection points: 5
#     Node 14, Type 0, BuildingBlock: XOMCOT_clean_sbu_1, # of connection points: 5
#     Node 15, Type 0, BuildingBlock: XOMCOT_clean_sbu_1, # of connection points: 5
#     Node 16, Type 0, BuildingBlock: XOMCOT_clean_sbu_1, # of connection points: 5
#     Node 17, Type 0, BuildingBlock: XOMCOT_clean_sbu_1, # of connection points: 5
#     Node 18, Type 0, BuildingBlock: XOMCOT_clean_sbu_1, # of connection points: 5
#     Node 19, Type 0, BuildingBlock: XOMCOT_clean_sbu_1, # of connection points: 5
#     Node 20, Type 0, BuildingBlock: XOMCOT_clean_sbu_1, # of connection points: 5
#     Node 21, Type 0, BuildingBlock: XOMCOT_clean_sbu_1, # of connection points: 5
#     Node 22, Type 0, BuildingBlock: XOMCOT_clean_sbu_1, # of connection points: 5
#     Node 23, Type 0, BuildingBlock: XOMCOT_clean_sbu_1, # of connection points: 5
#     Node 24, Type 0, BuildingBlock: XOMCOT_clean_sbu_1, # of connection points: 5
#     Node 25, Type 0, BuildingBlock: XOMCOT_clean_sbu_1, # of connection points: 5
#     Node 26, Type 0, BuildingBlock: XOMCOT_clean_sbu_1, # of connection points: 5
#     Node 27, Type 0, BuildingBlock: XOMCOT_clean_sbu_1, # of connection points: 5
#     Node 28, Type 0, BuildingBlock: XOMCOT_clean_sbu_1, # of connection points: 5
#     Node 29, Type 0, BuildingBlock: XOMCOT_clean_sbu_1, # of connection points: 5
#     Node 30, Type 0, BuildingBlock: XOMCOT_clean_sbu_1, # of connection points: 5
#     Node 31, Type 0, BuildingBlock: XOMCOT_clean_sbu_1, # of connection points: 5
#     Edge 32, Type (0, 0), BuildingBlock: AJUNOK_clean_linker_0, # of connection points: 2
#     Edge 33, Type (0, 0), BuildingBlock: AJUNOK_clean_linker_0, # of connection points: 2
#     Edge 34, Type (0, 0), BuildingBlock: AJUNOK_clean_linker_0, # of connection points: 2
#     Edge 35, Type (0, 0), BuildingBlock: AJUNOK_clean_linker_0, # of connection points: 2
#     Edge 36, Type (0, 0), BuildingBlock: AJUNOK_clean_linker_0, # of connection points: 2
#     Edge 37, Type (0, 0), BuildingBlock: AJUNOK_clean_linker_0, # of connection points: 2
#     Edge 38, Type (0, 0), BuildingBlock: AJUNOK_clean_linker_0, # of connection points: 2
#     Edge 39, Type (0, 0), BuildingBlock: AJUNOK_clean_linker_0, # of connection points: 2
#     Edge 40, Type (0, 0), BuildingBlock: AJUNOK_clean_linker_0, # of connection points: 2
#     Edge 41, Type (0, 0), BuildingBlock: AJUNOK_clean_linker_0, # of connection points: 2
#     Edge 42, Type (0, 0), BuildingBlock: AJUNOK_clean_linker_0, # of connection points: 2
#     Edge 43, Type (0, 0), BuildingBlock: AJUNOK_clean_linker_0, # of connection points: 2
#     Edge 44, Type (0, 0), BuildingBlock: AJUNOK_clean_linker_0, # of connection points: 2
#     Edge 45, Type (0, 0), BuildingBlock: AJUNOK_clean_linker_0, # of connection points: 2
#     Edge 46, Type (0, 0), BuildingBlock: AJUNOK_clean_linker_0, # of connection points: 2
#     Edge 47, Type (0, 0), BuildingBlock: AJUNOK_clean_linker_0, # of connection points: 2
#     Edge 48, Type (0, 0), BuildingBlock: AJUNOK_clean_linker_0, # of connection points: 2
#     Edge 49, Type (0, 0), BuildingBlock: AJUNOK_clean_linker_0, # of connection points: 2
#     Edge 50, Type (0, 0), BuildingBlock: AJUNOK_clean_linker_0, # of connection points: 2
#     Edge 51, Type (0, 0), BuildingBlock: AJUNOK_clean_linker_0, # of connection points: 2
#     Edge 52, Type (0, 0), BuildingBlock: AJUNOK_clean_linker_0, # of connection points: 2
#     Edge 53, Type (0, 0), BuildingBlock: AJUNOK_clean_linker_0, # of connection points: 2
#     Edge 54, Type (0, 0), BuildingBlock: AJUNOK_clean_linker_0, # of connection points: 2
#     Edge 55, Type (0, 0), BuildingBlock: AJUNOK_clean_linker_0, # of connection points: 2
#     Edge 56, Type (0, 0), BuildingBlock: AJUNOK_clean_linker_0, # of connection points: 2
#     Edge 57, Type (0, 0), BuildingBlock: AJUNOK_clean_linker_0, # of connection points: 2
#     Edge 58, Type (0, 0), BuildingBlock: AJUNOK_clean_linker_0, # of connection points: 2
#     Edge 59, Type (0, 0), BuildingBlock: AJUNOK_clean_linker_0, # of connection points: 2
#     Edge 60, Type (0, 0), BuildingBlock: AJUNOK_clean_linker_0, # of connection points: 2
#     Edge 61, Type (0, 0), BuildingBlock: AJUNOK_clean_linker_0, # of connection points: 2
#     Edge 62, Type (0, 0), BuildingBlock: AJUNOK_clean_linker_0, # of connection points: 2
#     Edge 63, Type (0, 0), BuildingBlock: AJUNOK_clean_linker_0, # of connection points: 2
#     Edge 64, Type (0, 0), BuildingBlock: AJUNOK_clean_linker_0, # of connection points: 2
#     Edge 65, Type (0, 0), BuildingBlock: AJUNOK_clean_linker_0, # of connection points: 2
#     Edge 66, Type (0, 0), BuildingBlock: AJUNOK_clean_linker_0, # of connection points: 2
#     Edge 67, Type (0, 0), BuildingBlock: AJUNOK_clean_linker_0, # of connection points: 2
#     Edge 68, Type (0, 0), BuildingBlock: AJUNOK_clean_linker_0, # of connection points: 2
#     Edge 69, Type (0, 0), BuildingBlock: AJUNOK_clean_linker_0, # of connection points: 2
#     Edge 70, Type (0, 0), BuildingBlock: AJUNOK_clean_linker_0, # of connection points: 2
#     Edge 71, Type (0, 0), BuildingBlock: AJUNOK_clean_linker_0, # of connection points: 2
#     Edge 72, Type (0, 0), BuildingBlock: AJUNOK_clean_linker_0, # of connection points: 2
#     Edge 73, Type (0, 0), BuildingBlock: AJUNOK_clean_linker_0, # of connection points: 2
#     Edge 74, Type (0, 0), BuildingBlock: AJUNOK_clean_linker_0, # of connection points: 2
#     Edge 75, Type (0, 0), BuildingBlock: AJUNOK_clean_linker_0, # of connection points: 2
#     Edge 76, Type (0, 0), BuildingBlock: AJUNOK_clean_linker_0, # of connection points: 2
#     Edge 77, Type (0, 0), BuildingBlock: AJUNOK_clean_linker_0, # of connection points: 2
#     Edge 78, Type (0, 0), BuildingBlock: AJUNOK_clean_linker_0, # of connection points: 2
#     Edge 79, Type (0, 0), BuildingBlock: AJUNOK_clean_linker_0, # of connection points: 2
#     Edge 80, Type (0, 0), BuildingBlock: AJUNOK_clean_linker_0, # of connection points: 2
#     Edge 81, Type (0, 0), BuildingBlock: AJUNOK_clean_linker_0, # of connection points: 2
#     Edge 82, Type (0, 0), BuildingBlock: AJUNOK_clean_linker_0, # of connection points: 2
#     Edge 83, Type (0, 0), BuildingBlock: AJUNOK_clean_linker_0, # of connection points: 2
#     Edge 84, Type (0, 0), BuildingBlock: AJUNOK_clean_linker_0, # of connection points: 2
#     Edge 85, Type (0, 0), BuildingBlock: AJUNOK_clean_linker_0, # of connection points: 2
#     Edge 86, Type (0, 0), BuildingBlock: AJUNOK_clean_linker_0, # of connection points: 2
#     Edge 87, Type (0, 0), BuildingBlock: AJUNOK_clean_linker_0, # of connection points: 2
#     Edge 88, Type (0, 0), BuildingBlock: AJUNOK_clean_linker_0, # of connection points: 2
#     Edge 89, Type (0, 0), BuildingBlock: AJUNOK_clean_linker_0, # of connection points: 2
#     Edge 90, Type (0, 0), BuildingBlock: AJUNOK_clean_linker_0, # of connection points: 2
#     Edge 91, Type (0, 0), BuildingBlock: AJUNOK_clean_linker_0, # of connection points: 2
#     Edge 92, Type (0, 0), BuildingBlock: AJUNOK_clean_linker_0, # of connection points: 2
#     Edge 93, Type (0, 0), BuildingBlock: AJUNOK_clean_linker_0, # of connection points: 2
#     Edge 94, Type (0, 0), BuildingBlock: AJUNOK_clean_linker_0, # of connection points: 2
#     Edge 95, Type (0, 0), BuildingBlock: AJUNOK_clean_linker_0, # of connection points: 2
#     Edge 96, Type (0, 0), BuildingBlock: AJUNOK_clean_linker_0, # of connection points: 2
#     Edge 97, Type (0, 0), BuildingBlock: AJUNOK_clean_linker_0, # of connection points: 2
#     Edge 98, Type (0, 0), BuildingBlock: AJUNOK_clean_linker_0, # of connection points: 2
#     Edge 99, Type (0, 0), BuildingBlock: AJUNOK_clean_linker_0, # of connection points: 2
#     Edge 100, Type (0, 0), BuildingBlock: AJUNOK_clean_linker_0, # of connection points: 2
#     Edge 101, Type (0, 0), BuildingBlock: AJUNOK_clean_linker_0, # of connection points: 2
#     Edge 102, Type (0, 0), BuildingBlock: AJUNOK_clean_linker_0, # of connection points: 2
#     Edge 103, Type (0, 0), BuildingBlock: AJUNOK_clean_linker_0, # of connection points: 2
#     Edge 104, Type (0, 0), BuildingBlock: AJUNOK_clean_linker_0, # of connection points: 2
#     Edge 105, Type (0, 0), BuildingBlock: AJUNOK_clean_linker_0, # of connection points: 2
#     Edge 106, Type (0, 0), BuildingBlock: AJUNOK_clean_linker_0, # of connection points: 2
#     Edge 107, Type (0, 0), BuildingBlock: AJUNOK_clean_linker_0, # of connection points: 2
#     Edge 108, Type (0, 0), BuildingBlock: AJUNOK_clean_linker_0, # of connection points: 2
#     Edge 109, Type (0, 0), BuildingBlock: AJUNOK_clean_linker_0, # of connection points: 2
#     Edge 110, Type (0, 0), BuildingBlock: AJUNOK_clean_linker_0, # of connection points: 2
#     Edge 111, Type (0, 0), BuildingBlock: AJUNOK_clean_linker_0, # of connection points: 2
# Relax obj value: 0.210
# Max RMSD: 0.259
# Mean RMSD: 0.259
data_MOF--net-wgs--node1-XOMCOT_clean_sbu_1--edge1-AJUNOK_clean_linker_0
_symmetry_space_group_name_H-M    P1
_symmetry_Int_Tables_number       1
_symmetry_cell_setting            triclinic
loop_
_symmetry_equiv_pos_as_xyz
'x, y, z'
_cell_length_a     23.07565
_cell_length_b     23.225026
_cell_length_c     105.78613
_cell_angle_alpha  90.076349
_cell_angle_beta   89.850666
_cell_angle_gamma 90.04827
loop_
_atom_site_label
_atom_site_type_symbol
_atom_site_fract_x
_atom_site_fract_y
_atom_site_fract_z
_atom_type_partial_charge
C0 C 0.25626 0.07138 0.35776 0.0
C1 C 0.25156 0.06714 0.37068 0.0
N2 N 0.30455 0.07436 0.37573 0.0
N3 N 0.31189 0.08188 0.35459 0.0
C4 C 0.3407 0.08232 0.36576 0.0
H5 H 0.22128 0.06711 0.35104 0.0
Co6 Co 0.33542 0.09065 0.33763 0.0
C7 C 0.41132 0.19181 0.33763 0.0
O8 O 0.38036 0.20996 0.32802 0.0
N9 N 0.35921 0.0943 0.32017 0.0
C10 C 0.42069 0.08145 0.30407 0.0
C11 C 0.41503 0.09906 0.31639 0.0
C12 C 0.33233 0.07156 0.30984 0.0
N13 N 0.36861 0.06401 0.29983 0.0
O14 O 0.38257 0.02461 0.33935 0.0
H15 H 0.45115 0.1081 0.32256 0.0
H16 H 0.28834 0.05557 0.31 0.0
O17 O 0.40031 0.14264 0.34266 0.0
C18 C 0.35283 0.98298 0.33506 0.0
O19 O 0.30006 0.99304 0.33099 0.0
N20 N 0.28443 0.15471 0.33625 0.0
C21 C 0.20757 0.24746 0.33598 0.0
C22 C 0.24751 0.24116 0.34578 0.0
C23 C 0.28508 0.19465 0.34578 0.0
C24 C 0.24327 0.15817 0.32703 0.0
C25 C 0.20516 0.20508 0.32654 0.0
H26 H 0.3157 0.19142 0.35345 0.0
H27 H 0.23942 0.12487 0.32002 0.0
H28 H 0.38704 0.08851 0.36657 0.0
H29 H 0.21236 0.05783 0.37594 0.0
H30 H 0.46148 0.07616 0.29915 0.0
H31 H 0.25185 0.27354 0.3531 0.0
H32 H 0.1748 0.20871 0.3188 0.0
C33 C 0.16867 0.99308 0.61138 0.0
C34 C 0.17017 -0.00601 0.62437 0.0
N35 N 0.15353 0.04647 0.62837 0.0
N36 N 0.15003 0.04439 0.60705 0.0
C37 C 0.14217 0.0767 0.61766 0.0
H38 H 0.17946 0.9568 0.6054 0.0
Co39 Co 0.1392 0.05752 0.58948 0.0
C40 C 0.0261 0.11512 0.588 0.0
O41 O 0.01288 0.077 0.57927 0.0
N42 N 0.13395 0.07129 0.5714 0.0
C43 C 0.13101 0.12094 0.55328 0.0
C44 C 0.11527 0.1203 0.56582 0.0
C45 C 0.16382 0.0444 0.5619 0.0
N46 N 0.16176 0.07317 0.55073 0.0
O47 O 0.19635 0.11571 0.59014 0.0
H48 H 0.09632 0.15652 0.57071 0.0
H49 H 0.18977 0.0062 0.56333 0.0
O50 O 0.07692 0.11456 0.59295 0.0
C51 C 0.24347 0.09285 0.58657 0.0
O52 O 0.24442 0.03745 0.58407 0.0
N53 N 0.08299 -0.00299 0.58913 0.0
C54 C 0.986 0.92641 0.58735 0.0
C55 C 0.99549 0.95919 0.59821 0.0
C56 C 0.04364 -0.00529 0.59884 0.0
C57 C 0.07934 0.95791 0.5795 0.0
C58 C 0.03014 0.92297 0.57824 0.0
H59 H 0.04564 0.02466 0.60663 0.0
H60 H 0.11218 0.95604 0.57228 0.0
H61 H 0.12728 0.12088 0.61756 0.0
H62 H 0.18321 0.95886 0.63045 0.0
H63 H 0.12475 0.15651 0.54682 0.0
H64 H 0.96223 0.96344 0.60541 0.0
H65 H 0.02434 0.89753 0.56975 0.0
C66 C 0.24977 0.89672 0.86362 0.0
C67 C 0.25499 0.90231 0.87649 0.0
N68 N 0.20647 0.92712 0.88099 0.0
N69 N 0.19731 0.91614 0.85993 0.0
C70 C 0.17291 0.93648 0.87071 0.0
H71 H 0.28243 0.87953 0.85731 0.0
Co72 Co 0.17276 0.9191 0.84284 0.0
C73 C 0.06527 0.86164 0.85523 0.0
O74 O 0.08404 0.86015 0.86692 0.0
N75 N 0.1505 0.92412 0.82559 0.0
C76 C 0.11892 0.90002 0.80645 0.0
C77 C 0.12475 0.88227 0.81878 0.0
C78 C 0.15923 0.96735 0.81713 0.0
N79 N 0.13988 0.95412 0.80533 0.0
O80 O 0.14217 -0.00472 0.84567 0.0
H81 H 0.11285 0.84041 0.82244 0.0
H82 H 0.17984 0.00767 0.81961 0.0
O83 O 0.09645 0.88399 0.84647 0.0
C84 C 0.17935 0.0339 0.84839 0.0
O85 O 0.23446 0.01977 0.84869 0.0
N86 N 0.20423 0.84436 0.84004 0.0
C87 C 0.24558 0.73351 0.83555 0.0
C88 C 0.21042 0.7448 0.84598 0.0
C89 C 0.19032 0.80032 0.84806 0.0
C90 C 0.24158 0.83474 0.83021 0.0
C91 C 0.26203 0.77902 0.82763 0.0
H92 H 0.16431 0.80771 0.85633 0.0
H93 H 0.25417 0.86996 0.82411 0.0
H94 H 0.13074 0.95674 0.87099 0.0
H95 H 0.29199 0.88965 0.88211 0.0
H96 H 0.10278 0.87339 0.79885 0.0
H97 H 0.19725 0.71049 0.8523 0.0
H98 H 0.28919 0.77135 0.81943 0.0
C99 C 0.45092 0.8873 0.10682 0.0
C100 C 0.4499 0.89248 0.11981 0.0
N101 N 0.39759 0.87525 0.12409 0.0
N102 N 0.3991 0.86788 0.10276 0.0
C103 C 0.36843 0.85901 0.11355 0.0
H104 H 0.48705 0.8979 0.10072 0.0
Co105 Co 0.37666 0.85301 0.08577 0.0
C106 C 0.36158 0.73832 0.09657 0.0
O107 O 0.32389 0.69872 0.09994 0.0
N108 N 0.35297 0.83653 0.06899 0.0
C109 C 0.32863 0.78632 0.05187 0.0
C110 C 0.35736 0.78486 0.06322 0.0
C111 C 0.32051 0.8686 0.06093 0.0
N112 N 0.30488 0.8388 0.05043 0.0
O113 O 0.30258 0.89055 0.08782 0.0
H114 H 0.37701 0.74699 0.06726 0.0
H115 H 0.3075 0.91247 0.06288 0.0
O116 O 0.34197 0.78345 0.09123 0.0
C117 C 0.27273 0.92375 0.09485 0.0
O118 O 0.29478 0.9465 0.10513 0.0
N119 N 0.41362 0.92152 0.08032 0.0
C120 C 0.50012 0.00469 0.07857 0.0
C121 C 0.50331 0.95413 0.07135 0.0
C122 C 0.4593 0.9131 0.07235 0.0
C123 C 0.40601 0.97399 0.08596 0.0
C124 C 0.44896 0.01626 0.08522 0.0
H125 H 0.46449 0.87233 0.0676 0.0
H126 H 0.37039 0.98177 0.0922 0.0
H127 H 0.32524 0.84094 0.1136 0.0
H128 H 0.48456 0.90937 0.12561 0.0
H129 H 0.3231 0.75038 0.04546 0.0
H130 H 0.542 0.94368 0.066 0.0
H131 H 0.44455 0.0553 0.09075 0.0
C132 C 0.2866 0.96749 0.19121 0.0
C133 C 0.29043 0.96316 0.17829 0.0
N134 N 0.32373 0.91746 0.1754 0.0
N135 N 0.31805 0.92542 0.19666 0.0
C136 C 0.34001 0.89523 0.1867 0.0
H137 H 0.26186 -0.00049 0.19628 0.0
Co138 Co 0.32026 0.91715 0.21454 0.0
C139 C 0.43952 0.87188 0.2084 0.0
O140 O 0.45286 0.91103 0.19992 0.0
N141 N 0.32186 0.90946 0.2329 0.0
C142 C 0.30747 0.88037 0.25283 0.0
C143 C 0.30124 0.86632 0.24023 0.0
C144 C 0.34259 0.94782 0.24153 0.0
N145 N 0.33315 0.93233 0.25372 0.0
O146 O 0.36084 0.98864 0.21574 0.0
H147 H 0.28218 0.82684 0.23678 0.0
H148 H 0.36368 0.98709 0.23893 0.0
O149 O 0.39102 0.87359 0.21413 0.0
C150 C 0.32344 0.02675 0.21868 0.0
O151 O 0.26932 0.01077 0.2204 0.0
N152 N 0.27594 0.8505 0.21296 0.0
C153 C 0.20063 0.75779 0.21065 0.0
C154 C 0.25884 0.75258 0.20704 0.0
C155 C 0.29593 0.79946 0.20827 0.0
C156 C 0.21878 0.85723 0.21593 0.0
C157 C 0.18037 0.81083 0.21511 0.0
H158 H 0.3405 0.79415 0.20543 0.0
H159 H 0.20347 0.89849 0.21931 0.0
H160 H 0.3665 0.8571 0.18762 0.0
H161 H 0.27089 0.99221 0.17155 0.0
H162 H 0.29378 0.85406 0.26073 0.0
H163 H 0.27612 0.71185 0.20375 0.0
H164 H 0.13574 0.81598 0.2181 0.0
C165 C 0.34119 0.96552 0.44457 0.0
C166 C 0.34288 0.96838 0.4316 0.0
N167 N 0.33917 0.02398 0.42816 0.0
N168 N 0.33735 0.01918 0.44942 0.0
C169 C 0.33561 0.05405 0.43914 0.0
H170 H 0.34248 0.92657 0.45016 0.0
Co171 Co 0.3347 0.03519 0.467 0.0
C172 C 0.38543 0.15483 0.46697 0.0
O173 O 0.34257 0.17664 0.47362 0.0
N174 N 0.33115 0.05004 0.48469 0.0
C175 C 0.35537 0.07029 0.50458 0.0
C176 C 0.37494 0.06684 0.49227 0.0
C177 C 0.28537 0.04333 0.49269 0.0
N178 N 0.2988 0.05568 0.50492 0.0
O179 O 0.26689 0.08073 0.46467 0.0
H180 H 0.41864 0.0755 0.48907 0.0
H181 H 0.24337 0.02823 0.4896 0.0
O182 O 0.38515 0.10143 0.46422 0.0
C183 C 0.22407 0.04949 0.46148 0.0
O184 O 0.23158 0.99366 0.46032 0.0
N185 N 0.3993 0.9875 0.46926 0.0
C186 C 0.4894 0.90785 0.46994 0.0
C187 C 0.49418 0.95843 0.46282 0.0
C188 C 0.44877 -0.00277 0.46253 0.0
C189 C 0.39336 0.9386 0.47629 0.0
C190 C 0.43836 0.89808 0.47685 0.0
H191 H 0.45267 0.03371 0.45637 0.0
H192 H 0.35316 0.93044 0.48126 0.0
H193 H 0.33195 0.10044 0.4397 0.0
H194 H 0.34503 0.93218 0.42516 0.0
H195 H 0.38089 0.08323 0.51268 0.0
H196 H 0.53316 0.9684 0.45752 0.0
H197 H 0.43313 0.85955 0.48249 0.0
C198 C 0.24046 0.08398 0.69776 0.0
C199 C 0.23876 0.08195 0.68481 0.0
N200 N 0.18347 0.0882 0.68112 0.0
N201 N 0.18659 0.09225 0.70242 0.0
C202 C 0.15222 0.09364 0.69197 0.0
H203 H 0.27898 0.08045 0.70351 0.0
Co204 Co 0.17708 0.10071 0.72022 0.0
C205 C 0.0559 0.14917 0.71679 0.0
O206 O 0.02986 0.09937 0.71521 0.0
N207 N 0.16931 0.10782 0.73826 0.0
C208 C 0.16361 0.14384 0.75787 0.0
C209 C 0.16747 0.15693 0.74515 0.0
C210 C 0.16567 0.06561 0.74713 0.0
N211 N 0.16206 0.08625 0.75908 0.0
O212 O 0.131 0.03272 0.72049 0.0
H213 H 0.16932 0.1998 0.74121 0.0
H214 H 0.16629 0.02029 0.74503 0.0
O215 O 0.11046 0.15074 0.71843 0.0
C216 C 0.16683 0.99133 0.7212 0.0
O217 O 0.22242 0.00302 0.72201 0.0
N218 N 0.22558 0.16538 0.71956 0.0
C219 C 0.30317 0.2558 0.71609 0.0
C220 C 0.25079 0.25397 0.70947 0.0
C221 C 0.21306 0.20832 0.71122 0.0
C222 C 0.27665 0.16567 0.72604 0.0
C223 C 0.31596 0.21129 0.72459 0.0
H224 H 0.17424 0.20694 0.70555 0.0
H225 H 0.28703 0.1303 0.73228 0.0
H226 H 0.10572 0.0994 0.69228 0.0
H227 H 0.27537 0.07568 0.67853 0.0
H228 H 0.16109 0.17427 0.76561 0.0
H229 H 0.23834 0.28822 0.70308 0.0
H230 H 0.35578 0.21173 0.72999 0.0
C231 C 0.15158 0.01242 0.95213 0.0
C232 C 0.16111 0.02037 0.93946 0.0
N233 N 0.16098 0.9685 0.93377 0.0
N234 N 0.14467 0.95583 0.95456 0.0
C235 C 0.15288 0.92987 0.94322 0.0
H236 H 0.15053 0.04593 0.95924 0.0
Co237 Co 0.1345 0.9304 0.97134 0.0
C238 C 0.05025 0.84268 0.95833 0.0
O239 O 0.04881 0.86273 0.94674 0.0
N240 N 0.12793 0.90734 0.98845 0.0
C241 C 0.09774 0.8769 1.00737 0.0
C242 C 0.08158 0.88779 0.995 0.0
C243 C 0.17117 0.90854 0.99706 0.0
N244 N 0.15429 0.88995 1.00857 0.0
O245 O 0.199 0.88028 0.96927 0.0
H246 H 0.03885 0.88154 0.99104 0.0
H247 H 0.2144 0.92347 0.99506 0.0
O248 O 0.08122 0.86739 0.96679 0.0
C249 C 0.24629 0.90732 0.9707 0.0
O250 O 0.24487 0.96276 0.97317 0.0
N251 N 0.07174 0.9814 0.97332 0.0
C252 C 0.97738 0.05493 0.97588 0.0
C253 C 0.98316 0.01968 0.96525 0.0
C254 C 0.03026 0.98328 0.96418 0.0
C255 C 0.06934 0.01854 0.98334 0.0
C256 C 0.0216 0.05516 0.98495 0.0
H257 H 0.03341 0.95705 0.95586 0.0
H258 H 0.10363 0.01879 0.99029 0.0
H259 H 0.15374 0.88368 0.94192 0.0
H260 H 0.1695 0.0612 0.93489 0.0
H261 H 0.07061 0.85913 1.01476 0.0
H262 H 0.94975 0.01769 0.95807 0.0
H263 H 0.01836 0.08183 0.99333 0.0
C264 C 0.75077 0.96525 0.69664 0.0
C265 C 0.74767 0.97167 0.68374 0.0
N266 N 0.69498 0.95418 0.67992 0.0
N267 N 0.70064 0.94272 0.70098 0.0
C268 C 0.66661 0.93787 0.69056 0.0
H269 H 0.78796 0.97458 0.7025 0.0
Co270 Co 0.69091 0.9226 0.71815 0.0
C271 C 0.62648 0.81347 0.71684 0.0
O272 O 0.66551 0.79078 0.72432 0.0
N273 N 0.68102 0.90909 0.73591 0.0
C274 C 0.63529 0.90662 0.75453 0.0
C275 C 0.63333 0.88989 0.74204 0.0
C276 C 0.71065 0.93822 0.74502 0.0
N277 N 0.68353 0.93809 0.75642 0.0
O278 O 0.63488 0.98172 0.71957 0.0
H279 H 0.5959 0.87097 0.73757 0.0
H280 H 0.7499 0.96203 0.74306 0.0
O281 O 0.6293 0.8668 0.7138 0.0
C282 C 0.6576 0.02757 0.72373 0.0
O283 O 0.71385 0.02925 0.72554 0.0
N284 N 0.74892 0.86283 0.71642 0.0
C285 C 0.81018 0.75956 0.71426 0.0
C286 C 0.78518 0.78498 0.70365 0.0
C287 C 0.75204 0.83417 0.70509 0.0
C288 C 0.78332 0.84471 0.72618 0.0
C289 C 0.81261 0.79176 0.72547 0.0
H290 H 0.7247 0.84494 0.69724 0.0
H291 H 0.78451 0.86781 0.73499 0.0
H292 H 0.62305 0.92057 0.69068 0.0
H293 H 0.78165 0.98762 0.67759 0.0
H294 H 0.60081 0.90087 0.76138 0.0
H295 H 0.78345 0.76222 0.6947 0.0
H296 H 0.83214 0.77414 0.73392 0.0
C297 C 0.77762 0.97093 0.44731 0.0
C298 C 0.77322 0.97061 0.4344 0.0
N299 N 0.8123 0.9333 0.42978 0.0
N300 N 0.81986 0.93459 0.45104 0.0
C301 C 0.83951 0.91107 0.44002 0.0
H302 H 0.75067 -0.00443 0.45371 0.0
Co303 Co 0.8273 0.92219 0.46875 0.0
C304 C 0.93221 0.85508 0.46065 0.0
O305 O 0.95297 0.89912 0.45429 0.0
N306 N 0.82922 0.91031 0.48649 0.0
C307 C 0.82469 0.86518 0.50499 0.0
C308 C 0.8431 0.8614 0.49264 0.0
C309 C 0.80287 0.94334 0.4954 0.0
N310 N 0.79832 0.91634 0.50672 0.0
O311 O 0.76454 0.86871 0.46776 0.0
H312 H 0.86131 0.8235 0.48826 0.0
H313 H 0.78441 0.98507 0.49336 0.0
O314 O 0.88285 0.85926 0.46615 0.0
C315 C 0.71789 0.89 0.47209 0.0
O316 O 0.71717 0.94423 0.47559 0.0
N317 N 0.88839 0.97678 0.47001 0.0
C318 C 0.98633 0.04622 0.46861 0.0
C319 C 0.93577 0.06193 0.46226 0.0
C320 C 0.8865 0.02728 0.46339 0.0
C321 C 0.93544 0.96485 0.47739 0.0
C322 C 0.98493 -0.00097 0.4768 0.0
H323 H 0.84798 0.03993 0.45842 0.0
H324 H 0.93701 0.92608 0.483 0.0
H325 H 0.87 0.87594 0.43942 0.0
H326 H 0.74244 -0.00525 0.42881 0.0
H327 H 0.82646 0.83087 0.5119 0.0
H328 H 0.93534 0.09873 0.45598 0.0
H329 H 0.02348 0.98562 0.48183 0.0
C330 C 0.73376 0.09259 0.195 0.0
C331 C 0.73088 0.08801 0.18209 0.0
N332 N 0.78406 0.07546 0.17765 0.0
N333 N 0.78879 0.08418 0.1989 0.0
C334 C 0.8178 0.07055 0.18809 0.0
H335 H 0.69755 0.10176 0.20119 0.0
Co336 Co 0.80954 0.08887 0.21634 0.0
C337 C 0.90729 0.16308 0.20429 0.0
O338 O 0.88792 0.16255 0.19265 0.0
N339 N 0.82781 0.09122 0.23391 0.0
C340 C 0.8628 0.11737 0.2527 0.0
C341 C 0.85555 0.13349 0.24025 0.0
C342 C 0.8172 0.05068 0.24289 0.0
N343 N 0.8392 0.06479 0.25434 0.0
O344 O 0.85313 0.01969 0.21477 0.0
H345 H 0.86965 0.17369 0.23611 0.0
H346 H 0.79415 0.01119 0.24108 0.0
O347 O 0.87981 0.13603 0.21302 0.0
C348 C 0.81861 0.97775 0.21644 0.0
O349 O 0.76315 0.98845 0.21801 0.0
N350 N 0.76348 0.15508 0.21818 0.0
C351 C 0.68549 0.2464 0.22009 0.0
C352 C 0.73289 0.24909 0.21181 0.0
C353 C 0.77093 0.20301 0.21093 0.0
C354 C 0.71699 0.15093 0.22614 0.0
C355 C 0.67738 0.19632 0.22728 0.0
H356 H 0.80488 0.20561 0.20404 0.0
H357 H 0.71012 0.11183 0.23148 0.0
H358 H 0.86319 0.05886 0.18784 0.0
H359 H 0.69221 0.09286 0.17643 0.0
H360 H 0.88343 0.14281 0.25999 0.0
H361 H 0.74124 0.28706 0.20615 0.0
H362 H 0.64094 0.19224 0.23368 0.0
C363 C 0.65784 0.97715 0.94626 0.0
C364 C 0.66368 0.97938 0.93337 0.0
N365 N 0.65323 0.03359 0.92955 0.0
N366 N 0.64302 0.02946 0.95077 0.0
C367 C 0.64087 0.06336 0.9403 0.0
H368 H 0.66448 0.9395 0.95208 0.0
Co369 Co 0.63229 0.03811 0.96843 0.0
C370 C 0.58619 0.15564 0.96311 0.0
O371 O 0.63771 0.17561 0.96013 0.0
N372 N 0.62343 0.04501 0.98667 0.0
C373 C 0.60019 0.02681 1.00688 0.0
C374 C 0.5832 0.02114 0.99442 0.0
C375 C 0.6622 0.06828 0.99493 0.0
N376 N 0.6502 0.05639 1.00715 0.0
O377 O 0.69937 0.08516 0.96914 0.0
H378 H 0.54451 -0.00099 0.99137 0.0
H379 H 0.70024 0.09204 0.99219 0.0
O380 O 0.5805 0.10353 0.96655 0.0
C381 C 0.74164 0.05182 0.97147 0.0
O382 O 0.73169 -0.00372 0.97246 0.0
N383 N 0.56944 0.98789 0.96724 0.0
C384 C 0.47926 0.90955 0.96493 0.0
C385 C 0.47678 0.96298 0.95885 0.0
C386 C 0.52241 0.00138 0.96004 0.0
C387 C 0.57546 0.93387 0.97213 0.0
C388 C 0.53004 0.89412 0.97133 0.0
H389 H 0.51961 0.04186 0.95509 0.0
H390 H 0.61473 0.92256 0.97711 0.0
H391 H 0.6303 0.10863 0.94048 0.0
H392 H 0.6765 0.94409 0.92728 0.0
H393 H 0.57812 0.00944 1.01507 0.0
H394 H 0.43836 0.9765 0.95379 0.0
H395 H 0.53352 0.85297 0.97607 0.0
C396 C 0.77602 0.105 0.86304 0.0
C397 C 0.76997 0.09951 0.87589 0.0
N398 N 0.71386 0.08942 0.8785 0.0
N399 N 0.7237 0.10045 0.85741 0.0
C400 C 0.68698 0.08787 0.86711 0.0
H401 H 0.81643 0.11221 0.85808 0.0
Co402 Co 0.71444 0.10609 0.8395 0.0
C403 C 0.61888 0.19026 0.84842 0.0
O404 O 0.62951 0.1878 0.86058 0.0
N405 N 0.7068 0.1084 0.82155 0.0
C406 C 0.68745 0.13567 0.80179 0.0
C407 C 0.68889 0.15274 0.8143 0.0
C408 C 0.71649 0.06517 0.81315 0.0
N409 N 0.7048 0.08038 0.80107 0.0
O410 O 0.66439 0.04111 0.83988 0.0
H411 H 0.67686 0.19473 0.81787 0.0
H412 H 0.73225 0.02319 0.81575 0.0
O413 O 0.6479 0.15936 0.84062 0.0
C414 C 0.69497 -0.00426 0.8395 0.0
O415 O 0.75171 0.00059 0.83945 0.0
N416 N 0.76623 0.16928 0.83902 0.0
C417 C 0.84283 0.26218 0.83858 0.0
C418 C 0.79738 0.26007 0.84732 0.0
C419 C 0.75976 0.21369 0.84736 0.0
C420 C 0.81206 0.16893 0.83081 0.0
C421 C 0.85039 0.2158 0.83024 0.0
H422 H 0.72638 0.21319 0.8544 0.0
H423 H 0.8184 0.1328 0.8245 0.0
H424 H 0.64131 0.07882 0.86589 0.0
H425 H 0.80442 0.10174 0.88281 0.0
H426 H 0.67279 0.16144 0.79391 0.0
H427 H 0.78905 0.29546 0.85377 0.0
H428 H 0.8846 0.21643 0.82321 0.0
C429 C 0.64304 0.03883 0.61042 0.0
C430 C 0.64592 0.03969 0.62337 0.0
N431 N 0.64499 0.98509 0.62756 0.0
N432 N 0.6392 0.98396 0.60628 0.0
C433 C 0.64134 0.95187 0.61702 0.0
H434 H 0.64344 0.07617 0.60432 0.0
Co435 Co 0.63252 0.96897 0.58871 0.0
C436 C 0.59212 0.85031 0.59536 0.0
O437 O 0.64487 0.83442 0.5984 0.0
N438 N 0.6273 0.95602 0.57105 0.0
C439 C 0.59837 0.93294 0.55157 0.0
C440 C 0.58209 0.93673 0.56414 0.0
C441 C 0.66994 0.9642 0.56242 0.0
N442 N 0.65393 0.95014 0.55056 0.0
O443 O 0.70208 0.92473 0.5891 0.0
H444 H 0.54014 0.92552 0.568 0.0
H445 H 0.71214 0.98043 0.56468 0.0
O446 O 0.58307 0.90141 0.59149 0.0
C447 C 0.74555 0.95801 0.58797 0.0
O448 O 0.7367 0.0139 0.58766 0.0
N449 N 0.56718 0.01561 0.58824 0.0
C450 C 0.4748 0.09201 0.58867 0.0
C451 C 0.47521 0.04363 0.59658 0.0
C452 C 0.52178 0.00598 0.59623 0.0
C453 C 0.56872 0.0634 0.58077 0.0
C454 C 0.52224 0.10197 0.58068 0.0
H455 H 0.5217 0.96952 0.60257 0.0
H456 H 0.60602 0.07143 0.57481 0.0
H457 H 0.63986 0.9054 0.61719 0.0
H458 H 0.64978 0.07759 0.62928 0.0
H459 H 0.57214 0.91685 0.54386 0.0
H460 H 0.43866 0.03355 0.60264 0.0
H461 H 0.52281 0.13845 0.57431 0.0
C462 C 0.75875 0.94021 0.35811 0.0
C463 C 0.75383 0.94213 0.371 0.0
N464 N 0.80262 0.92071 0.37611 0.0
N465 N 0.81037 0.91749 0.35486 0.0
C466 C 0.83681 0.90651 0.3661 0.0
H467 H 0.72582 0.953 0.35142 0.0
Co468 Co 0.82495 0.90536 0.33743 0.0
C469 C 0.93917 0.8506 0.34436 0.0
O470 O 0.9648 0.89924 0.34736 0.0
N471 N 0.83776 0.8967 0.31966 0.0
C472 C 0.87738 0.87675 0.30088 0.0
C473 C 0.87401 0.86074 0.31343 0.0
C474 C 0.81862 0.93315 0.31052 0.0
N475 N 0.84235 0.92223 0.29907 0.0
O476 O 0.87687 0.96839 0.33739 0.0
H477 H 0.89907 0.82687 0.31777 0.0
H478 H 0.79009 0.96911 0.31228 0.0
O479 O 0.8866 0.851 0.34077 0.0
C480 C 0.84789 0.01337 0.33504 0.0
O481 O 0.79135 0.00954 0.33394 0.0
N482 N 0.77203 0.84406 0.33755 0.0
C483 C 0.6969 0.75051 0.33816 0.0
C484 C 0.73935 0.75723 0.34743 0.0
C485 C 0.77675 0.80375 0.34688 0.0
C486 C 0.72831 0.84059 0.32892 0.0
C487 C 0.69083 0.79308 0.32886 0.0
H488 H 0.81071 0.80627 0.35385 0.0
H489 H 0.7235 0.87362 0.32181 0.0
H490 H 0.87869 0.88606 0.36695 0.0
H491 H 0.7166 0.95747 0.37627 0.0
H492 H 0.90554 0.85818 0.29376 0.0
H493 H 0.74661 0.72439 0.35452 0.0
H494 H 0.65905 0.78848 0.32141 0.0
C495 C 0.84454 0.98835 0.10723 0.0
C496 C 0.8395 0.9851 0.12014 0.0
N497 N 0.83386 0.03879 0.1248 0.0
N498 N 0.84278 0.04391 0.10357 0.0
C499 C 0.83569 0.07385 0.11451 0.0
H500 H 0.84913 0.95231 0.10082 0.0
Co501 Co 0.84726 0.06381 0.08618 0.0
C502 C 0.89585 0.18733 0.09368 0.0
O503 O 0.8532 0.21554 0.09912 0.0
N504 N 0.84707 0.08131 0.06862 0.0
C505 C 0.85397 0.12436 0.04986 0.0
C506 C 0.87626 0.1213 0.06191 0.0
C507 C 0.80705 0.06091 0.06033 0.0
N508 N 0.80916 0.08728 0.04891 0.0
O509 O 0.77144 0.09661 0.08724 0.0
H510 H 0.90913 0.14941 0.0656 0.0
H511 H 0.7747 0.02933 0.06288 0.0
O512 O 0.88703 0.13616 0.08977 0.0
C513 C 0.73395 0.0564 0.08721 0.0
O514 O 0.75167 0.0027 0.08695 0.0
N515 N 0.92214 0.03026 0.08525 0.0
C516 C 0.03599 0.98942 0.08513 0.0
C517 C 0.01443 0.02064 0.09539 0.0
C518 C 0.95849 0.04151 0.09515 0.0
C519 C 0.94095 -0.00301 0.0754 0.0
C520 C -0.0016 0.97671 0.07505 0.0
H521 H 0.94532 0.0686 0.10293 0.0
H522 H 0.91211 0.98719 0.06765 0.0
H523 H 0.83265 0.12026 0.11489 0.0
H524 H 0.83871 0.94591 0.12566 0.0
H525 H 0.86938 0.15285 0.04252 0.0
H526 H 0.04123 0.0305 0.10351 0.0
H527 H 0.01343 0.95272 0.0669 0.0
C528 C 0.73172 0.57348 0.86053 0.0
C529 C 0.72474 0.56416 0.87321 0.0
N530 N 0.77614 0.57189 0.87897 0.0
N531 N 0.78701 0.58861 0.8581 0.0
C532 C 0.81349 0.58714 0.86958 0.0
H533 H 0.69839 0.56951 0.85341 0.0
Co534 Co 0.80862 0.60146 0.84109 0.0
C535 C 0.87639 0.70821 0.84068 0.0
O536 O 0.84165 0.72356 0.83146 0.0
N537 N 0.8295 0.60838 0.82353 0.0
C538 C 0.88625 0.60497 0.80638 0.0
C539 C 0.88287 0.62055 0.81889 0.0
C540 C 0.80245 0.58262 0.81359 0.0
N541 N 0.83569 0.58073 0.80302 0.0
O542 O 0.8622 0.53953 0.84215 0.0
H543 H 0.91962 0.63389 0.82448 0.0
H544 H 0.76109 0.56095 0.81437 0.0
O545 O 0.86951 0.65858 0.8459 0.0
C546 C 0.83824 0.49486 0.83761 0.0
O547 O 0.78366 0.49765 0.83417 0.0
N548 N 0.75272 0.66183 0.84026 0.0
C549 C 0.68037 0.75784 0.8394 0.0
C550 C 0.71592 0.74814 0.84985 0.0
C551 C 0.75156 0.70021 0.8501 0.0
C552 C 0.71369 0.66722 0.83065 0.0
C553 C 0.67792 0.71582 0.82988 0.0
H554 H 0.78113 0.69606 0.85795 0.0
H555 H 0.71121 0.6353 0.8233 0.0
H556 H 0.85921 0.59533 0.87097 0.0
H557 H 0.68465 0.55216 0.87785 0.0
H558 H 0.92504 0.60585 0.8006 0.0
H559 H 0.72029 0.77994 0.8573 0.0
H560 H 0.65079 0.72191 0.82165 0.0
C561 C 0.69779 0.4901 0.11244 0.0
C562 C 0.7077 0.4953 0.12515 0.0
N563 N 0.66826 0.5317 0.12995 0.0
N564 N 0.65221 0.52336 0.10905 0.0
C565 C 0.63506 0.54828 0.12009 0.0
H566 H 0.72244 0.46317 0.10608 0.0
Co567 Co 0.6279 0.5327 0.09183 0.0
C568 C 0.56689 0.61408 0.09804 0.0
O569 O 0.54023 0.5642 0.09913 0.0
N570 N 0.60819 0.5454 0.07447 0.0
C571 C 0.56264 0.54992 0.05587 0.0
C572 C 0.55588 0.54221 0.06879 0.0
C573 C 0.64541 0.55697 0.06482 0.0
N574 N 0.61936 0.55807 0.05344 0.0
O575 O 0.71053 0.53875 0.08758 0.0
H576 H 0.51571 0.53294 0.07367 0.0
H577 H 0.69124 0.56432 0.06591 0.0
O578 O 0.62016 0.61418 0.09453 0.0
C579 C 0.74759 0.50398 0.08283 0.0
O580 O 0.73244 0.45151 0.07971 0.0
N581 N 0.62122 0.44966 0.08961 0.0
C582 C 0.52931 0.37426 0.08514 0.0
C583 C 0.54709 0.38584 0.09748 0.0
C584 C 0.5929 0.42367 0.09952 0.0
C585 C 0.61389 0.42634 0.07778 0.0
C586 C 0.56709 0.38951 0.07528 0.0
H587 H 0.59669 0.43876 0.10908 0.0
H588 H 0.63706 0.44319 0.06973 0.0
H589 H 0.60031 0.5792 0.12094 0.0
H590 H 0.7418 0.47456 0.13048 0.0
H591 H 0.52888 0.54778 0.0488 0.0
H592 H 0.52007 0.37457 0.10549 0.0
H593 H 0.55602 0.37999 0.06555 0.0
C594 C 0.7834 0.40953 0.36117 0.0
C595 C 0.78761 0.41229 0.37407 0.0
N596 N 0.73377 0.41127 0.379 0.0
N597 N 0.72723 0.40558 0.35782 0.0
C598 C 0.69772 0.40672 0.36894 0.0
H599 H 0.81926 0.41008 0.35457 0.0
Co600 Co 0.70702 0.40127 0.34065 0.0
C601 C 0.58762 0.36284 0.34788 0.0
O602 O 0.57168 0.41563 0.35067 0.0
N603 N 0.68854 0.39818 0.3233 0.0
C604 C 0.65736 0.37254 0.30417 0.0
C605 C 0.66342 0.35536 0.3166 0.0
C606 C 0.698 0.44022 0.31471 0.0
N607 N 0.67878 0.4262 0.30309 0.0
O608 O 0.66378 0.47055 0.34214 0.0
H609 H 0.64979 0.31451 0.32052 0.0
H610 H 0.71903 0.48043 0.31681 0.0
O611 O 0.63942 0.35315 0.34423 0.0
C612 C 0.69785 0.51303 0.34075 0.0
O613 O 0.75361 0.50316 0.33942 0.0
N614 N 0.75293 0.33621 0.33898 0.0
C615 C 0.82894 0.24415 0.33717 0.0
C616 C 0.78323 0.24335 0.34593 0.0
C617 C 0.74591 0.29 0.34675 0.0
C618 C 0.79834 0.33892 0.33072 0.0
C619 C 0.83683 0.29284 0.32956 0.0
H620 H 0.71209 0.28954 0.35382 0.0
H621 H 0.80475 0.37707 0.32503 0.0
H622 H 0.65099 0.40563 0.36967 0.0
H623 H 0.82747 0.41467 0.37941 0.0
H624 H 0.63712 0.34836 0.29661 0.0
H625 H 0.77537 0.20624 0.35189 0.0
H626 H 0.87187 0.29494 0.32275 0.0
C627 C 0.82592 0.49546 0.61213 0.0
C628 C 0.82347 0.49695 0.62511 0.0
N629 N 0.82019 0.4425 0.62942 0.0
N630 N 0.82482 0.44031 0.60817 0.0
C631 C 0.82086 0.40883 0.61893 0.0
H632 H 0.8289 0.53229 0.60591 0.0
Co633 Co 0.83016 0.41968 0.59106 0.0
C634 C 0.8529 0.29536 0.59277 0.0
O635 O 0.80314 0.28561 0.58715 0.0
N636 N 0.83442 0.39979 0.5737 0.0
C637 C 0.86205 0.36487 0.55499 0.0
C638 C 0.87746 0.37213 0.56749 0.0
C639 C 0.79394 0.40953 0.56471 0.0
N640 N 0.80912 0.3879 0.55333 0.0
O641 O 0.75417 0.38669 0.59181 0.0
H642 H 0.91732 0.35765 0.57181 0.0
H643 H 0.75411 0.43264 0.56634 0.0
O644 O 0.86732 0.34702 0.59538 0.0
C645 C 0.71577 0.42456 0.58962 0.0
O646 O 0.73223 0.47864 0.5888 0.0
N647 N 0.9031 0.45513 0.5901 0.0
C648 C 0.01191 0.50512 0.58734 0.0
C649 C 0.00062 0.46743 0.59736 0.0
C650 C 0.94573 0.443 0.59861 0.0
C651 C 0.9122 0.49478 0.5808 0.0
C652 C 0.96684 0.51952 0.57908 0.0
H653 H 0.93754 0.414 0.60637 0.0
H654 H 0.8774 0.50593 0.57443 0.0
H655 H 0.81958 0.36226 0.61906 0.0
H656 H 0.82319 0.53527 0.63095 0.0
H657 H 0.88707 0.34302 0.54777 0.0
H658 H 0.03453 0.45517 0.60389 0.0
H659 H 0.97414 0.54877 0.57127 0.0
C660 C 0.72224 0.40692 0.69921 0.0
C661 C 0.72159 0.40562 0.68624 0.0
N662 N 0.77668 0.40376 0.68206 0.0
N663 N 0.7775 0.40547 0.70333 0.0
C664 C 0.80998 0.40452 0.69262 0.0
H665 H 0.68462 0.40897 0.70531 0.0
Co666 Co 0.79572 0.40579 0.72076 0.0
C667 C 0.91542 0.3589 0.72084 0.0
O668 O 0.93452 0.40469 0.72683 0.0
N669 N 0.81227 0.40744 0.73831 0.0
C670 C 0.833 0.38282 0.75815 0.0
C671 C 0.82839 0.36342 0.74585 0.0
C672 C 0.80715 0.45294 0.74629 0.0
N673 N 0.81997 0.43933 0.75839 0.0
O674 O 0.83971 0.47422 0.71843 0.0
H675 H 0.83566 0.31978 0.74263 0.0
H676 H 0.7927 0.49511 0.74341 0.0
O677 O 0.86222 0.35621 0.71771 0.0
C678 C 0.80049 0.51261 0.71845 0.0
O679 O 0.7465 0.49652 0.72039 0.0
N680 N 0.74868 0.34149 0.72292 0.0
C681 C 0.66742 0.25344 0.72353 0.0
C682 C 0.716 0.24989 0.7156 0.0
C683 C 0.75595 0.29435 0.71539 0.0
C684 C 0.70158 0.34614 0.73068 0.0
C685 C 0.6606 0.3018 0.73131 0.0
H686 H 0.79132 0.29193 0.70873 0.0
H687 H 0.69538 0.38473 0.73626 0.0
H688 H 0.85689 0.40432 0.69254 0.0
H689 H 0.68347 0.40766 0.68031 0.0
H690 H 0.84545 0.35742 0.76627 0.0
H691 H 0.72366 0.21244 0.70971 0.0
H692 H 0.62409 0.30523 0.73772 0.0
C693 C 0.81094 0.4921 0.95107 0.0
C694 C 0.81145 0.48474 0.93822 0.0
N695 N 0.80405 0.5364 0.93266 0.0
N696 N 0.8052 0.54845 0.95384 0.0
C697 C 0.80082 0.57466 0.94238 0.0
H698 H 0.81476 0.45831 0.95804 0.0
Co699 Co 0.80042 0.573 0.97088 0.0
C700 C 0.88727 0.66314 0.97407 0.0
O701 O 0.89756 0.63632 0.98476 0.0
N702 N 0.78934 0.5964 0.98816 0.0
C703 C 0.75277 0.65419 1.00311 0.0
C704 C 0.77927 0.65184 0.99151 0.0
C705 C 0.76623 0.56584 0.99795 0.0
N706 N 0.74406 0.60014 1.00718 0.0
O707 O 0.72645 0.60776 0.96745 0.0
H708 H 0.78504 0.68854 0.98536 0.0
H709 H 0.75946 0.51977 0.99767 0.0
O710 O 0.84499 0.64554 0.9671 0.0
C711 C 0.68752 0.57175 0.97074 0.0
O712 O 0.7041 0.52019 0.97434 0.0
N713 N 0.87312 0.53472 0.97412 0.0
C714 C 0.97929 0.47702 0.97627 0.0
C715 C 0.96918 0.51476 0.96629 0.0
C716 C 0.91641 0.54302 0.96539 0.0
C717 C 0.88174 0.49684 0.98383 0.0
C718 C 0.93522 0.46838 0.98524 0.0
H719 H 0.91047 0.57186 0.9575 0.0
H720 H 0.84747 0.48794 0.99047 0.0
H721 H 0.79354 0.62038 0.94121 0.0
H722 H 0.81677 0.44408 0.93335 0.0
H723 H 0.73741 0.69272 1.00781 0.0
H724 H 0.00249 0.52336 0.9593 0.0
H725 H 0.94186 0.43959 0.99315 0.0
C726 C 0.74154 0.55286 0.20054 0.0
C727 C 0.74526 0.54899 0.18763 0.0
N728 N 0.69431 0.56579 0.18268 0.0
N729 N 0.68862 0.57233 0.2038 0.0
C730 C 0.66008 0.57878 0.1927 0.0
H731 H 0.77554 0.54288 0.2072 0.0
Co732 Co 0.67029 0.58516 0.22078 0.0
C733 C 0.59769 0.68824 0.22142 0.0
O734 O 0.63061 0.70509 0.23084 0.0
N735 N 0.65217 0.59274 0.23838 0.0
C736 C 0.59759 0.58574 0.25577 0.0
C737 C 0.59836 0.60038 0.24321 0.0
C738 C 0.6825 0.57072 0.24826 0.0
N739 N 0.65051 0.56667 0.25897 0.0
O740 O 0.6201 0.51994 0.22028 0.0
H741 H 0.56008 0.60967 0.23773 0.0
H742 H 0.72533 0.55234 0.24733 0.0
O743 O 0.60635 0.63895 0.21619 0.0
C744 C 0.64821 0.47734 0.22464 0.0
O745 O 0.70235 0.48505 0.22805 0.0
N746 N 0.72362 0.64801 0.22087 0.0
C747 C 0.8007 0.74064 0.21926 0.0
C748 C 0.75794 0.73251 0.21012 0.0
C749 C 0.72047 0.68612 0.21103 0.0
C750 C 0.76748 0.65304 0.22945 0.0
C751 C 0.80587 0.6999 0.22898 0.0
H752 H 0.68765 0.68191 0.20386 0.0
H753 H 0.77312 0.62124 0.23672 0.0
H754 H 0.61596 0.59416 0.19195 0.0
H755 H 0.78254 0.53455 0.18226 0.0
H756 H 0.5593 0.58318 0.26168 0.0
H757 H 0.75113 0.76354 0.20263 0.0
H758 H 0.83846 0.70486 0.23625 0.0
C759 C 0.66269 0.47736 0.45002 0.0
C760 C 0.67134 0.48586 0.43737 0.0
N761 N 0.67774 0.4342 0.43179 0.0
N762 N 0.66205 0.42043 0.45256 0.0
C763 C 0.6717 0.39494 0.44118 0.0
H764 H 0.65847 0.51096 0.45705 0.0
Co765 Co 0.6567 0.39555 0.46953 0.0
C766 C 0.6012 0.28347 0.45959 0.0
O767 O 0.64584 0.26106 0.45364 0.0
N768 N 0.65379 0.37309 0.4867 0.0
C769 C 0.63907 0.32685 0.50486 0.0
C770 C 0.62447 0.32959 0.49227 0.0
C771 C 0.68596 0.39596 0.49617 0.0
N772 N 0.67763 0.36889 0.50736 0.0
O773 O 0.72532 0.35125 0.46739 0.0
H774 H 0.59599 0.29989 0.48751 0.0
H775 H 0.71563 0.43152 0.49486 0.0
O776 O 0.60646 0.33155 0.46524 0.0
C777 C 0.76667 0.38634 0.46929 0.0
O778 O 0.75447 0.44037 0.47184 0.0
N779 N 0.59114 0.44165 0.47161 0.0
C780 C 0.50217 0.52189 0.47165 0.0
C781 C 0.5016 0.47576 0.46316 0.0
C782 C 0.54629 0.43612 0.46329 0.0
C783 C 0.59267 0.48646 0.47997 0.0
C784 C 0.5477 0.52682 0.48031 0.0
H785 H 0.54605 0.40264 0.45621 0.0
H786 H 0.62948 0.49192 0.48614 0.0
H787 H 0.67727 0.34911 0.43989 0.0
H788 H 0.67423 0.52712 0.43265 0.0
H789 H 0.6246 0.29429 0.51146 0.0
H790 H 0.46623 0.4698 0.45656 0.0
H791 H 0.54858 0.56154 0.48715 0.0
C792 C 0.25165 0.426 0.19746 0.0
C793 C 0.25616 0.42525 0.1845 0.0
N794 N 0.20265 0.41991 0.1796 0.0
N795 N 0.1956 0.42003 0.20084 0.0
C796 C 0.16646 0.41731 0.18973 0.0
H797 H 0.2871 0.43039 0.20406 0.0
Co798 Co 0.17153 0.41895 0.21792 0.0
C799 C 0.09178 0.32045 0.21979 0.0
O800 O 0.12084 0.30586 0.22997 0.0
N801 N 0.14747 0.42302 0.23534 0.0
C802 C 0.08685 0.44121 0.25137 0.0
C803 C 0.09172 0.4199 0.23932 0.0
C804 C 0.17509 0.44884 0.24522 0.0
N805 N 0.13913 0.46012 0.25507 0.0
O806 O 0.12597 0.48515 0.21477 0.0
H807 H 0.05522 0.40859 0.23345 0.0
H808 H 0.21895 0.46513 0.24471 0.0
O809 O 0.10578 0.36669 0.21383 0.0
C810 C 0.15646 0.52822 0.21799 0.0
O811 O 0.20887 0.51946 0.22239 0.0
N812 N 0.22055 0.35455 0.22068 0.0
C813 C 0.29676 0.26182 0.22233 0.0
C814 C 0.25584 0.26449 0.21266 0.0
C815 C 0.21847 0.31092 0.21198 0.0
C816 C 0.26227 0.35417 0.22982 0.0
C817 C 0.30021 0.30733 0.231 0.0
H818 H 0.18762 0.31165 0.20432 0.0
H819 H 0.26703 0.39012 0.23615 0.0
H820 H 0.11986 0.41331 0.18907 0.0
H821 H 0.29572 0.42969 0.17906 0.0
H822 H 0.04693 0.44655 0.25665 0.0
H823 H 0.25126 0.22977 0.20587 0.0
H824 H 0.33157 0.30652 0.2386 0.0
C825 C 0.2761 0.43793 0.94316 0.0
C826 C 0.27149 0.42707 0.93044 0.0
N827 N 0.31356 0.39007 0.92707 0.0
N828 N 0.32094 0.4079 0.94806 0.0
C829 C 0.34288 0.379 0.93791 0.0
H830 H 0.24904 0.46743 0.94839 0.0
Co831 Co 0.34152 0.40794 0.96572 0.0
C832 C 0.40333 0.32454 0.96292 0.0
O833 O 0.43065 0.37413 0.962 0.0
N834 N 0.35699 0.40423 0.98357 0.0
C835 C 0.39362 0.41387 1.00298 0.0
C836 C 0.40531 0.41757 0.99015 0.0
C837 C 0.31782 0.3898 0.99265 0.0
N838 N 0.3384 0.39617 1.00452 0.0
O839 O 0.25688 0.40802 0.96955 0.0
H840 H 0.44549 0.43201 0.98592 0.0
H841 H 0.27384 0.37674 0.99072 0.0
O842 O 0.3484 0.32521 0.96516 0.0
C843 C 0.22239 0.44858 0.97289 0.0
O844 O 0.24041 0.50197 0.97331 0.0
N845 N 0.35191 0.49125 0.96571 0.0
C846 C 0.44011 0.57344 0.96853 0.0
C847 C 0.42689 0.551 0.95664 0.0
C848 C 0.38309 0.51008 0.95544 0.0
C849 C 0.35648 0.52205 0.97676 0.0
C850 C 0.40093 0.56265 0.97842 0.0
H851 H 0.38255 0.48776 0.94654 0.0
H852 H 0.33202 0.50968 0.98505 0.0
H853 H 0.37929 0.35009 0.93842 0.0
H854 H 0.24067 0.44662 0.92406 0.0
H855 H 0.42313 0.4244 1.01058 0.0
H856 H 0.45567 0.5576 0.94867 0.0
H857 H 0.40877 0.57995 0.98778 0.0
C858 C 0.26159 0.60816 0.69513 0.0
C859 C 0.26277 0.61124 0.68218 0.0
N860 N 0.31823 0.60719 0.67838 0.0
N861 N 0.31616 0.60295 0.69956 0.0
C862 C 0.3498 0.60123 0.68904 0.0
H863 H 0.22319 0.60966 0.701 0.0
Co864 Co 0.33192 0.59977 0.717 0.0
C865 C 0.45297 0.63742 0.71089 0.0
O866 O 0.46923 0.58598 0.70714 0.0
N867 N 0.34601 0.59548 0.7344 0.0
C868 C 0.37173 0.61422 0.75423 0.0
C869 C 0.36966 0.6355 0.74208 0.0
C870 C 0.33384 0.5505 0.74209 0.0
N871 N 0.3493 0.56066 0.75419 0.0
O872 O 0.37339 0.52966 0.71479 0.0
H873 H 0.3842 0.67756 0.73906 0.0
H874 H 0.31276 0.5115 0.73894 0.0
O875 O 0.40158 0.6455 0.71492 0.0
C876 C 0.33958 0.48775 0.71262 0.0
O877 O 0.28361 0.49731 0.71188 0.0
N878 N 0.28857 0.667 0.71924 0.0
C879 C 0.21289 0.76003 0.71978 0.0
C880 C 0.26383 0.7622 0.71258 0.0
C881 C 0.30106 0.71531 0.71241 0.0
C882 C 0.23948 0.66412 0.72643 0.0
C883 C 0.20118 0.71079 0.72699 0.0
H884 H 0.33859 0.71707 0.7063 0.0
H885 H 0.22937 0.625 0.73152 0.0
H886 H 0.39623 0.59568 0.6891 0.0
H887 H 0.22562 0.61456 0.676 0.0
H888 H 0.38896 0.63616 0.76244 0.0
H889 H 0.27502 0.80013 0.70714 0.0
H890 H 0.16256 0.70818 0.7328 0.0
C891 C 0.15723 0.49624 0.44775 0.0
C892 C 0.15662 0.49707 0.43481 0.0
N893 N 0.15756 0.5522 0.43097 0.0
N894 N 0.15768 0.55062 0.45227 0.0
C895 C 0.1591 0.58414 0.44174 0.0
H896 H 0.15804 0.45801 0.45356 0.0
Co897 Co 0.15853 0.56357 0.46994 0.0
C898 C 0.07438 0.65739 0.47437 0.0
O899 O 0.05516 0.62833 0.48413 0.0
N900 N 0.16274 0.57386 0.48831 0.0
C901 C 0.14987 0.56374 0.50926 0.0
C902 C 0.12625 0.55461 0.49748 0.0
C903 C 0.20857 0.59451 0.49511 0.0
N904 N 0.20193 0.58841 0.50774 0.0
O905 O 0.23017 0.60209 0.46821 0.0
H906 H 0.08492 0.53408 0.49589 0.0
H907 H 0.24703 0.61315 0.491 0.0
O908 O 0.11659 0.63727 0.46783 0.0
C909 C 0.26863 0.56315 0.46872 0.0
O910 O 0.25218 0.50931 0.47005 0.0
N911 N 0.08945 0.52071 0.47104 0.0
C912 C -0.00276 0.44357 0.46876 0.0
C913 C 0.99465 0.49841 0.46327 0.0
C914 C 0.04152 0.53567 0.46425 0.0
C915 C 0.09373 0.46681 0.4761 0.0
C916 C 0.04774 0.42767 0.47521 0.0
H917 H 0.04012 0.57531 0.45896 0.0
H918 H 0.13369 0.45369 0.48058 0.0
H919 H 0.1615 0.63068 0.44195 0.0
H920 H 0.15752 0.45985 0.42863 0.0
H921 H 0.13137 0.55083 0.51824 0.0
H922 H 0.95671 0.51247 0.45811 0.0
H923 H 0.05217 0.38518 0.47929 0.0
C924 C 0.26488 0.57197 0.36171 0.0
C925 C 0.26346 0.57117 0.3747 0.0
N926 N 0.20865 0.58092 0.37853 0.0
N927 N 0.21132 0.58274 0.35725 0.0
C928 C 0.17765 0.58748 0.36774 0.0
H929 H 0.30289 0.56635 0.35583 0.0
Co930 Co 0.19662 0.59344 0.3399 0.0
C931 C 0.07776 0.64061 0.34017 0.0
O932 O 0.05986 0.5976 0.33311 0.0
N933 N 0.1827 0.60394 0.32224 0.0
C934 C 0.16235 0.64475 0.30371 0.0
C935 C 0.16956 0.65409 0.31648 0.0
C936 C 0.18382 0.56498 0.31265 0.0
N937 N 0.17082 0.58838 0.3013 0.0
O938 O 0.15092 0.5252 0.33977 0.0
H939 H 0.16556 0.69509 0.32126 0.0
H940 H 0.19313 0.51996 0.31388 0.0
O941 O 0.1304 0.64206 0.34376 0.0
C942 C 0.18615 0.48445 0.33746 0.0
O943 O 0.24134 0.49674 0.33594 0.0
N944 N 0.24523 0.65734 0.34008 0.0
C945 C 0.32259 0.74898 0.34025 0.0
C946 C 0.27497 0.74816 0.34851 0.0
C947 C 0.237 0.70172 0.34834 0.0
C948 C 0.29282 0.65581 0.33243 0.0
C949 C 0.33185 0.70178 0.33223 0.0
H950 H 0.20105 0.70144 0.3549 0.0
H951 H 0.2999 0.61916 0.3263 0.0
H952 H 0.13181 0.59718 0.36749 0.0
H953 H 0.29996 0.56356 0.38089 0.0
H954 H 0.15235 0.67731 0.29674 0.0
H955 H 0.26554 0.78428 0.35467 0.0
H956 H 0.36798 0.70119 0.32568 0.0
C957 C 0.18082 0.49796 0.10841 0.0
C958 C 0.18012 0.50185 0.12137 0.0
N959 N 0.17674 0.4483 0.12615 0.0
N960 N 0.17732 0.44221 0.10492 0.0
C961 C 0.17602 0.41263 0.11599 0.0
H962 H 0.1825 0.53368 0.10186 0.0
Co963 Co 0.17162 0.42053 0.08775 0.0
C964 C 0.12292 0.30115 0.08896 0.0
O965 O 0.16489 0.28018 0.08193 0.0
N966 N 0.16865 0.40041 0.07024 0.0
C967 C 0.1422 0.37038 0.05107 0.0
C968 C 0.12468 0.37776 0.06346 0.0
C969 C 0.21196 0.40714 0.06163 0.0
N970 N 0.19759 0.38838 0.04992 0.0
O971 O 0.2429 0.37875 0.08915 0.0
H972 H 0.08222 0.36788 0.06724 0.0
H973 H 0.25367 0.42546 0.06383 0.0
O974 O 0.12467 0.35388 0.09222 0.0
C975 C 0.28581 0.41244 0.08759 0.0
O976 O 0.27556 0.46782 0.08635 0.0
N977 N 0.10184 0.46298 0.0864 0.0
C978 C 0.99335 0.51412 0.08391 0.0
C979 C 0.00643 0.481 0.09452 0.0
C980 C 0.06053 0.45558 0.09555 0.0
C981 C 0.09151 0.49893 0.07645 0.0
C982 C 0.03667 0.52391 0.07484 0.0
H983 H 0.06838 0.42833 0.10361 0.0
H984 H 0.12479 0.50612 0.06941 0.0
H985 H 0.173 0.3662 0.11659 0.0
H986 H 0.18239 0.54108 0.12689 0.0
H987 H 0.11541 0.35437 0.04346 0.0
H988 H 0.97378 0.47169 0.10162 0.0
H989 H 0.02766 0.54904 0.06645 0.0
C990 C 0.37424 0.42686 0.85761 0.0
C991 C 0.38182 0.42254 0.87037 0.0
N992 N 0.35615 0.37401 0.87437 0.0
N993 N 0.34316 0.38164 0.85325 0.0
C994 C 0.33348 0.34931 0.86381 0.0
H995 H 0.39131 0.46124 0.85181 0.0
Co996 Co 0.3308 0.37669 0.83531 0.0
C997 C 0.42698 0.32913 0.83298 0.0
O998 O 0.38527 0.29057 0.83285 0.0
N999 N 0.32598 0.37526 0.8171 0.0
C1000 C 0.32716 0.34943 0.79672 0.0
C1001 C 0.32519 0.32993 0.80904 0.0
C1002 C 0.33398 0.42103 0.80931 0.0
N1003 N 0.33199 0.40722 0.79691 0.0
O1004 O 0.31665 0.46056 0.83509 0.0
H1005 H 0.3222 0.28536 0.81193 0.0
H1006 H 0.34516 0.46352 0.81262 0.0
O1007 O 0.41311 0.38246 0.83349 0.0
C1008 C 0.27218 0.48683 0.83071 0.0
O1009 O 0.23106 0.45701 0.82519 0.0
N1010 N 0.24793 0.36072 0.83753 0.0
C1011 C 0.16924 0.27679 0.84504 0.0
C1012 C 0.18451 0.32139 0.85339 0.0
C1013 C 0.22254 0.36475 0.84922 0.0
C1014 C 0.22003 0.32809 0.82865 0.0
C1015 C 0.18151 0.28496 0.83221 0.0
H1016 H 0.23671 0.39693 0.85591 0.0
H1017 H 0.22941 0.33153 0.81879 0.0
H1018 H 0.30965 0.30919 0.86382 0.0
H1019 H 0.40299 0.45393 0.87637 0.0
H1020 H 0.32511 0.32298 0.78831 0.0
H1021 H 0.17203 0.3198 0.86326 0.0
H1022 H 0.16745 0.25441 0.82511 0.0
C1023 C 0.31765 0.52415 0.60917 0.0
C1024 C 0.31397 0.52595 0.62208 0.0
N1025 N 0.35069 0.56651 0.62621 0.0
N1026 N 0.3575 0.56281 0.60504 0.0
C1027 C 0.37602 0.58897 0.61579 0.0
H1028 H 0.29358 0.49508 0.60317 0.0
Co1029 Co 0.37469 0.57386 0.5875 0.0
C1030 C 0.42977 0.66223 0.59213 0.0
O1031 O 0.4626 0.61596 0.59177 0.0
N1032 N 0.38594 0.58829 0.56981 0.0
C1033 C 0.41863 0.59017 0.54995 0.0
C1034 C 0.43362 0.58214 0.5625 0.0
C1035 C 0.34392 0.60386 0.56153 0.0
N1036 N 0.36185 0.60371 0.54936 0.0
O1037 O 0.29032 0.5698 0.58512 0.0
H1038 H 0.47554 0.56868 0.56597 0.0
H1039 H 0.29979 0.61264 0.56424 0.0
O1040 O 0.37515 0.65614 0.59016 0.0
C1041 C 0.2567 0.53496 0.57932 0.0
O1042 O 0.27823 0.49333 0.57242 0.0
N1043 N 0.38944 0.49094 0.58527 0.0
C1044 C 0.47427 0.40607 0.58148 0.0
C1045 C 0.45705 0.42121 0.59364 0.0
C1046 C 0.41723 0.4653 0.59529 0.0
C1047 C 0.39661 0.4662 0.57354 0.0
C1048 C 0.44002 0.42493 0.57139 0.0
H1049 H 0.41805 0.48348 0.6046 0.0
H1050 H 0.37582 0.48361 0.56529 0.0
H1051 H 0.40677 0.62396 0.61605 0.0
H1052 H 0.28565 0.50032 0.62801 0.0
H1053 H 0.44685 0.58428 0.54186 0.0
H1054 H 0.48239 0.40819 0.60177 0.0
H1055 H 0.45161 0.41383 0.56176 0.0
C1056 C 0.36284 0.8881 0.32519 0.0
C1057 C 0.37189 0.92319 0.33581 0.0
C1058 C 0.35497 0.8288 0.32652 0.0
C1059 C 0.35498 0.8033 0.33856 0.0
H1060 H 0.35566 0.90734 0.31599 0.0
H1061 H 0.34188 0.8043 0.31828 0.0
S1062 S 0.39029 0.87528 0.36887 0.0
N1063 N 0.391 0.92771 0.35833 0.0
N1064 N 0.37609 0.81563 0.36092 0.0
C1065 C 0.37193 0.83689 0.349 0.0
C1066 C 0.38046 0.89729 0.3476 0.0
C1067 C 0.33118 0.11957 0.57502 0.0
C1068 C 0.29804 0.12444 0.58611 0.0
C1069 C 0.39166 0.11984 0.57555 0.0
C1070 C 0.42 0.12389 0.58726 0.0
H1071 H 0.31053 0.10797 0.56618 0.0
H1072 H 0.41556 0.10816 0.5671 0.0
S1073 S 0.35209 0.15482 0.61828 0.0
N1074 N 0.29693 0.14704 0.6085 0.0
N1075 N 0.41121 0.14742 0.60958 0.0
C1076 C 0.38732 0.13911 0.59799 0.0
C1077 C 0.32573 0.13919 0.59741 0.0
C1078 C 0.12193 0.12155 0.84267 0.0
C1079 C 0.16288 0.09469 0.85049 0.0
C1080 C 0.11808 0.18195 0.84215 0.0
C1081 C 0.15506 0.21732 0.84943 0.0
H1082 H 0.09645 0.09617 0.83612 0.0
H1083 H 0.08965 0.20105 0.83519 0.0
S1084 S 0.25906 0.16618 0.87372 0.0
N1085 N 0.23264 0.1067 0.86741 0.0
N1086 N 0.22616 0.21966 0.86641 0.0
C1087 C 0.19059 0.19027 0.85847 0.0
C1088 C 0.19457 0.12902 0.85894 0.0
C1089 C 0.19549 -0.0031 0.09275 0.0
C1090 C 0.21413 0.94021 0.09084 0.0
C1091 C 0.13893 0.01319 0.08985 0.0
C1092 C 0.09813 0.97296 0.08531 0.0
H1093 H 0.22466 0.02886 0.09666 0.0
H1094 H 0.12639 0.05734 0.09171 0.0
S1095 S 0.12747 0.81982 0.0777 0.0
N1096 N 0.18991 0.84471 0.08303 0.0
N1097 N 0.08186 0.87458 0.07823 0.0
C1098 C 0.11712 0.91665 0.08275 0.0
C1099 C 0.17553 0.90041 0.08541 0.0
C1100 C 0.3563 0.18216 0.21347 0.0
C1101 C 0.32827 0.20714 0.22399 0.0
C1102 C 0.36201 0.12222 0.21242 0.0
C1103 C 0.33942 0.08617 0.22184 0.0
H1104 H 0.36771 0.20857 0.2054 0.0
H1105 H 0.37793 0.10411 0.20363 0.0
S1106 S 0.27502 0.13097 0.25246 0.0
N1107 N 0.28835 0.19193 0.24498 0.0
N1108 N 0.29766 0.07939 0.2429 0.0
C1109 C 0.31851 0.11097 0.23308 0.0
C1110 C 0.31362 0.17175 0.23423 0.0
C1111 C 0.14025 0.09516 0.4721 0.0
C1112 C 0.16472 0.07164 0.46108 0.0
C1113 C 0.0801 0.09333 0.47405 0.0
C1114 C 0.04323 0.06946 0.46487 0.0
H1115 H 0.16792 0.10893 0.47977 0.0
H1116 H 0.06283 0.10581 0.48318 0.0
S1117 S 0.08613 0.01342 0.43341 0.0
N1118 N 0.14781 0.03187 0.4402 0.0
N1119 N 0.03468 0.03015 0.44366 0.0
C1120 C 0.06688 0.05298 0.45318 0.0
C1121 C 0.12791 0.05371 0.45132 0.0
C1122 C 0.158 0.89949 0.73254 0.0
C1123 C 0.14928 0.93087 0.72135 0.0
C1124 C 0.17094 0.84064 0.73213 0.0
C1125 C 0.17626 0.81202 0.72049 0.0
H1126 H 0.16135 0.92154 0.74153 0.0
H1127 H 0.18356 0.81937 0.74081 0.0
S1128 S 0.14481 0.87247 0.68884 0.0
N1129 N 0.13685 0.92745 0.69862 0.0
N1130 N 0.16109 0.81648 0.69778 0.0
C1131 C 0.15987 0.84122 0.70943 0.0
C1132 C 0.14639 0.90099 0.70988 0.0
C1133 C 0.38753 0.87024 0.95621 0.0
C1134 C 0.42436 0.87798 0.96668 0.0
C1135 C 0.32717 0.87094 0.95773 0.0
C1136 C 0.30266 0.87895 0.96974 0.0
H1137 H 0.4052 0.87152 0.94671 0.0
H1138 H 0.3001 0.87251 0.94938 0.0
S1139 S 0.38012 0.88613 1.0003 0.0
N1140 N 0.43195 0.88153 0.98957 0.0
N1141 N 0.31873 0.88368 0.99235 0.0
C1142 C 0.33885 0.87776 0.98035 0.0
C1143 C 0.40001 0.87646 0.97884 0.0
C1144 C 0.6327 0.17186 0.73623 0.0
C1145 C 0.63039 0.20207 0.72476 0.0
C1146 C 0.63014 0.11173 0.73626 0.0
C1147 C 0.6251 0.08114 0.72486 0.0
H1148 H 0.64552 0.19362 0.74485 0.0
H1149 H 0.64008 0.08915 0.74492 0.0
S1150 S 0.59626 0.14173 0.69323 0.0
N1151 N 0.60573 0.19848 0.70245 0.0
N1152 N 0.60208 0.08491 0.70253 0.0
C1153 C 0.61082 0.11115 0.71385 0.0
C1154 C 0.61303 0.17231 0.71381 0.0
C1155 C 0.63398 0.85524 0.46019 0.0
C1156 C 0.66269 0.85914 0.47181 0.0
C1157 C 0.57355 0.86008 0.45968 0.0
C1158 C 0.54104 0.87024 0.47078 0.0
H1159 H 0.65837 0.85712 0.45142 0.0
H1160 H 0.55337 0.86467 0.4505 0.0
S1161 S 0.5955 0.85953 0.50359 0.0
N1162 N 0.65411 0.8549 0.49464 0.0
N1163 N 0.54037 0.86561 0.49375 0.0
C1164 C 0.56846 0.86225 0.48247 0.0
C1165 C 0.62983 0.85663 0.48296 0.0
C1166 C 0.82669 0.89116 0.22973 0.0
C1167 C 0.83888 0.91853 0.21818 0.0
C1168 C 0.82321 0.8312 0.23051 0.0
C1169 C 0.83077 0.79694 0.21969 0.0
H1170 H 0.81428 0.91608 0.23794 0.0
H1171 H 0.80752 0.81238 0.23924 0.0
S1172 S 0.8768 0.84762 0.18798 0.0
N1173 N 0.86869 0.90727 0.19633 0.0
N1174 N 0.86248 0.79391 0.19774 0.0
C1175 C 0.85086 0.82352 0.20853 0.0
C1176 C 0.85457 0.88472 0.20777 0.0
C1177 C 0.89208 0.10943 0.96817 0.0
C1178 C 0.91991 0.08065 0.9782 0.0
C1179 C 0.83181 0.10604 0.96669 0.0
C1180 C 0.79845 0.07403 0.97525 0.0
H1181 H 0.91759 0.12786 0.96057 0.0
H1182 H 0.81242 0.12274 0.95813 0.0
S1183 S 0.84843 0.00674 1.00504 0.0
N1184 N 0.90804 0.03161 0.99832 0.0
N1185 N 0.795 0.02462 0.99548 0.0
C1186 C 0.82464 0.05323 0.98631 0.0
C1187 C 0.8856 0.0573 0.98788 0.0
C1188 C 0.6815 0.84674 0.82679 0.0
C1189 C 0.65925 0.81711 0.8373 0.0
C1190 C 0.68733 0.90655 0.82702 0.0
C1191 C 0.66946 0.93867 0.83759 0.0
H1192 H 0.70141 0.82339 0.81904 0.0
H1193 H 0.71085 0.92695 0.81939 0.0
S1194 S 0.59602 0.88289 0.86615 0.0
N1195 N 0.60989 0.82494 0.85758 0.0
N1196 N 0.62001 0.93824 0.85784 0.0
C1197 C 0.6399 0.91061 0.84737 0.0
C1198 C 0.63466 0.84942 0.84723 0.0
C1199 C 0.8895 0.88474 0.59288 0.0
C1200 C 0.92503 0.91423 0.58417 0.0
C1201 C 0.82948 0.89481 0.59334 0.0
C1202 C 0.80406 0.93585 0.58536 0.0
H1203 H 0.90896 0.85811 0.60011 0.0
H1204 H 0.80403 0.87463 0.60073 0.0
S1205 S 0.87699 0.0178 0.55974 0.0
N1206 N 0.929 0.9793 0.56623 0.0
N1207 N 0.81751 0.00083 0.56757 0.0
C1208 C 0.83831 0.96147 0.5759 0.0
C1209 C 0.89858 0.94966 0.57514 0.0
C1210 C 0.88729 0.09968 0.34519 0.0
C1211 C 0.8744 0.07009 0.334 0.0
C1212 C 0.88149 0.15959 0.34575 0.0
C1213 C 0.86224 0.19075 0.33514 0.0
H1214 H 0.894 0.07614 0.35391 0.0
H1215 H 0.88479 0.18058 0.35487 0.0
S1216 S 0.83954 0.13305 0.30285 0.0
N1217 N 0.85496 0.07611 0.31154 0.0
N1218 N 0.84328 0.18882 0.31252 0.0
C1219 C 0.85896 0.16232 0.32344 0.0
C1220 C 0.8651 0.10151 0.3229 0.0
C1221 C 0.64873 0.06891 0.07346 0.0
C1222 C 0.67179 0.06706 0.08574 0.0
C1223 C 0.59069 0.05408 0.07121 0.0
C1224 C 0.55399 0.03743 0.08121 0.0
H1225 H 0.67695 0.07637 0.06543 0.0
H1226 H 0.5757 0.05132 0.06153 0.0
S1227 S 0.59291 0.03218 0.11522 0.0
N1228 N 0.65313 0.05257 0.10804 0.0
N1229 N 0.54387 0.02543 0.10397 0.0
C1230 C 0.57542 0.04087 0.09365 0.0
C1231 C 0.63452 0.05546 0.09587 0.0
C1232 C 0.8602 0.40747 0.82541 0.0
C1233 C 0.86795 0.43937 0.83658 0.0
C1234 C 0.86313 0.34737 0.82553 0.0
C1235 C 0.87288 0.31783 0.83689 0.0
H1236 H 0.84531 0.42859 0.8169 0.0
H1237 H 0.84934 0.32423 0.81715 0.0
S1238 S 0.91255 0.38273 0.8677 0.0
N1239 N 0.89873 0.43843 0.85848 0.0
N1240 N 0.90441 0.3249 0.85875 0.0
C1241 C 0.89069 0.34973 0.84753 0.0
C1242 C 0.88783 0.41101 0.84739 0.0
C1243 C 0.90294 0.5001 0.07182 0.0
C1244 C 0.93199 0.52863 0.08165 0.0
C1245 C 0.84247 0.49558 0.07186 0.0
C1246 C 0.80904 0.52044 0.08157 0.0
H1247 H 0.92722 0.47661 0.06471 0.0
H1248 H 0.82201 0.46956 0.06464 0.0
S1249 S 0.86433 0.60651 0.10848 0.0
N1250 N 0.92312 0.58686 0.10064 0.0
N1251 N 0.80899 0.57988 0.1005 0.0
C1252 C 0.83724 0.55374 0.09078 0.0
C1253 C 0.89896 0.55745 0.09087 0.0
C1254 C 0.69116 0.65976 0.3265 0.0
C1255 C 0.67129 0.69283 0.33673 0.0
C1256 C 0.69482 0.60002 0.32749 0.0
C1257 C 0.67633 0.57137 0.33847 0.0
H1258 H 0.71128 0.68034 0.31841 0.0
H1259 H 0.71688 0.57692 0.32001 0.0
S1260 S 0.6089 0.63767 0.36667 0.0
N1261 N 0.62465 0.69264 0.35735 0.0
N1262 N 0.62895 0.57917 0.35889 0.0
C1263 C 0.64894 0.60312 0.34801 0.0
C1264 C 0.64662 0.66434 0.34717 0.0
C1265 C 0.57007 0.43694 0.5738 0.0
C1266 C 0.53693 0.39396 0.57976 0.0
C1267 C 0.62859 0.4445 0.57669 0.0
C1268 C 0.65677 0.40866 0.58544 0.0
H1269 H 0.54943 0.46902 0.5679 0.0
H1270 H 0.65117 0.48059 0.57245 0.0
S1271 S 0.59299 0.2815 0.60136 0.0
N1272 N 0.53873 0.30927 0.59323 0.0
N1273 N 0.64996 0.32252 0.59837 0.0
C1274 C 0.62628 0.36115 0.59026 0.0
C1275 C 0.56608 0.3539 0.58745 0.0
C1276 C 0.76987 0.66393 0.70916 0.0
C1277 C 0.81591 0.69591 0.71432 0.0
C1278 C 0.76805 0.60448 0.70991 0.0
C1279 C 0.81184 0.57373 0.71602 0.0
H1280 H 0.73311 0.68508 0.70494 0.0
H1281 H 0.73053 0.58258 0.70604 0.0
S1282 S 0.94457 0.63505 0.73039 0.0
N1283 N 0.90873 0.6918 0.72514 0.0
N1284 N 0.9048 0.57812 0.72676 0.0
C1285 C 0.85974 0.60404 0.72083 0.0
C1286 C 0.86166 0.66563 0.72004 0.0
C1287 C 0.59161 0.55872 0.98094 0.0
C1288 C 0.62519 0.58645 0.97165 0.0
C1289 C 0.53108 0.56086 0.98074 0.0
C1290 C 0.50134 0.59046 0.97114 0.0
H1291 H 0.61221 0.53233 0.98808 0.0
H1292 H 0.50768 0.53462 0.9875 0.0
S1293 S 0.56939 0.67998 0.94611 0.0
N1294 N 0.62491 0.65179 0.95375 0.0
N1295 N 0.51048 0.65594 0.9533 0.0
C1296 C 0.53454 0.62334 0.96255 0.0
C1297 C 0.59662 0.62137 0.96282 0.0
C1298 C 0.63435 0.33194 0.21119 0.0
C1299 C 0.64956 0.29875 0.22184 0.0
C1300 C 0.62325 0.39105 0.21233 0.0
C1301 C 0.62659 0.41812 0.22416 0.0
H1302 H 0.63754 0.31359 0.20179 0.0
H1303 H 0.61969 0.41659 0.2038 0.0
S1304 S 0.64683 0.34779 0.25519 0.0
N1305 N 0.65438 0.29521 0.2448 0.0
N1306 N 0.63221 0.4061 0.24687 0.0
C1307 C 0.63194 0.38383 0.23499 0.0
C1308 C 0.64367 0.32387 0.23386 0.0
C1309 C 0.91379 0.40295 0.45668 0.0
C1310 C 0.94558 0.40558 0.46803 0.0
C1311 C 0.8555 0.38622 0.45668 0.0
C1312 C 0.82772 0.37073 0.46798 0.0
H1313 H 0.93227 0.41949 0.44799 0.0
H1314 H 0.83046 0.39211 0.44812 0.0
S1315 S 0.89561 0.35456 0.49941 0.0
N1316 N 0.94796 0.37994 0.49031 0.0
N1317 N 0.8385 0.34719 0.49015 0.0
C1318 C 0.86118 0.36457 0.47893 0.0
C1319 C 0.92039 0.3822 0.47899 0.0
C1320 C 0.14907 0.68492 0.22344 0.0
C1321 C 0.16492 0.70526 0.21142 0.0
C1322 C 0.13714 0.62647 0.22533 0.0
C1323 C 0.13957 0.58737 0.21521 0.0
H1324 H 0.15274 0.71268 0.23164 0.0
H1325 H 0.13231 0.61085 0.23493 0.0
S1326 S 0.16665 0.62163 0.18159 0.0
N1327 N 0.17313 0.684 0.18899 0.0
N1328 N 0.1496 0.57399 0.19258 0.0
C1329 C 0.14745 0.60855 0.20294 0.0
C1330 C 0.16047 0.66782 0.20103 0.0
C1331 C 0.07479 0.47276 0.98702 0.0
C1332 C 0.03804 0.45196 0.9775 0.0
C1333 C 0.13508 0.46641 0.98603 0.0
C1334 C 0.1605 0.43824 0.97561 0.0
H1335 H 0.05735 0.49872 0.99465 0.0
H1336 H 0.16226 0.48722 0.99302 0.0
S1337 S 0.08249 0.36902 0.94911 0.0
N1338 N 0.03066 0.39689 0.95802 0.0
N1339 N 0.14411 0.38391 0.95634 0.0
C1340 C 0.12398 0.41231 0.96669 0.0
C1341 C 0.06261 0.41952 0.96759 0.0
C1342 C 0.34969 0.34114 0.72591 0.0
C1343 C 0.33937 0.30814 0.715 0.0
C1344 C 0.35966 0.40048 0.72498 0.0
C1345 C 0.35928 0.42803 0.71317 0.0
H1346 H 0.34298 0.32271 0.7352 0.0
H1347 H 0.36069 0.42562 0.73358 0.0
S1348 S 0.35122 0.35809 0.68183 0.0
N1349 N 0.3436 0.30476 0.69203 0.0
N1350 N 0.35976 0.417 0.6904 0.0
C1351 C 0.35768 0.39432 0.70223 0.0
C1352 C 0.3486 0.33388 0.70312 0.0
C1353 C 0.41453 0.55114 0.48307 0.0
C1354 C 0.4501 0.55805 0.47243 0.0
C1355 C 0.35489 0.55955 0.48213 0.0
C1356 C 0.32961 0.57694 0.47071 0.0
H1357 H 0.43146 0.53171 0.49161 0.0
H1358 H 0.32785 0.54648 0.48995 0.0
S1359 S 0.40604 0.61348 0.44106 0.0
N1360 N 0.45782 0.59245 0.45079 0.0
N1361 N 0.34495 0.60986 0.44922 0.0
C1362 C 0.3655 0.59179 0.46056 0.0
C1363 C 0.4263 0.5823 0.46142 0.0
C1364 C 0.19067 0.33672 0.32397 0.0
C1365 C 0.17771 0.30337 0.33466 0.0
C1366 C 0.1863 0.39665 0.32443 0.0
C1367 C 0.1675 0.42485 0.33546 0.0
H1368 H 0.21109 0.31728 0.31577 0.0
H1369 H 0.2032 0.42108 0.31652 0.0
S1370 S 0.11515 0.35607 0.36485 0.0
N1371 N 0.13535 0.30175 0.35574 0.0
N1372 N 0.12643 0.41507 0.35647 0.0
C1373 C 0.1467 0.39174 0.34554 0.0
C1374 C 0.15183 0.33058 0.34515 0.0
C1375 C 0.43891 0.40934 0.07521 0.0
C1376 C 0.46599 0.3677 0.08283 0.0
C1377 C 0.3798 0.42101 0.0764 0.0
C1378 C 0.34494 0.39085 0.08506 0.0
H1379 H 0.46429 0.4372 0.06913 0.0
H1380 H 0.36189 0.45607 0.0709 0.0
S1381 S 0.39142 0.26887 0.10512 0.0
N1382 N 0.45134 0.28972 0.09784 0.0
N1383 N 0.33928 0.31134 0.0999 0.0
C1384 C 0.36963 0.34466 0.09167 0.0
C1385 C 0.43038 0.3331 0.09058 0.0
C1386 C 0.30939 0.58383 0.83757 0.0
C1387 C 0.26842 0.55074 0.83087 0.0
C1388 C 0.30412 0.644 0.83846 0.0
C1389 C 0.25845 0.673 0.83246 0.0
H1390 H 0.34469 0.56304 0.84251 0.0
H1391 H 0.33466 0.66776 0.84422 0.0
S1392 S 0.14113 0.60819 0.81339 0.0
N1393 N 0.18116 0.553 0.81785 0.0
N1394 N 0.1727 0.66569 0.81944 0.0
C1395 C 0.21854 0.6411 0.82541 0.0
C1396 C 0.22315 0.58004 0.82462 0.0
C1397 C 0.09794 0.50819 0.57321 0.0
C1398 C 0.07201 0.52366 0.58474 0.0
C1399 C 0.15753 0.51513 0.5713 0.0
C1400 C 0.19315 0.53854 0.58079 0.0
H1401 H 0.07261 0.48746 0.56589 0.0
H1402 H 0.17615 0.50001 0.56249 0.0
S1403 S 0.14448 0.59288 0.61205 0.0
N1404 N 0.08487 0.56803 0.60535 0.0
N1405 N 0.19699 0.58265 0.60165 0.0
C1406 C 0.16695 0.5582 0.59201 0.0
C1407 C 0.10631 0.55016 0.59403 0.0
C1408 C 0.48416 0.33083 0.3469 0.0
C1409 C 0.54332 0.31615 0.34725 0.0
C1410 C 0.44153 0.28928 0.34449 0.0
C1411 C 0.45599 0.2311 0.34266 0.0
H1412 H 0.47062 0.37527 0.34785 0.0
H1413 H 0.39687 0.30317 0.34364 0.0
S1414 S 0.60325 0.16835 0.34379 0.0
N1415 N 0.61345 0.23782 0.34632 0.0
N1416 N 0.5326 0.15979 0.34212 0.0
C1417 C 0.51423 0.21487 0.34374 0.0
C1418 C 0.55807 0.2574 0.34595 0.0
C1419 C 0.92413 0.1501 0.58769 0.0
C1420 C 0.98224 0.15959 0.59118 0.0
C1421 C 0.88219 0.19322 0.58894 0.0
C1422 C 0.89634 0.24803 0.59369 0.0
H1423 H 0.91094 0.10934 0.58361 0.0
H1424 H 0.83874 0.18389 0.58566 0.0
S1425 S 0.04103 0.29279 0.60565 0.0
N1426 N 0.05085 0.22609 0.60067 0.0
N1427 N 0.97203 0.30733 0.6031 0.0
C1428 C 0.9536 0.25697 0.59797 0.0
C1429 C -0.0035 0.21275 0.59671 0.0
C1430 C 0.95333 0.74103 0.85589 0.0
C1431 C 0.92376 0.74823 0.84441 0.0
C1432 C -0.00237 0.77914 0.85952 0.0
C1433 C 0.01454 0.82561 0.85175 0.0
H1434 H 0.94217 0.70579 0.86214 0.0
H1435 H 0.01973 0.77113 0.86837 0.0
S1436 S 0.95033 0.86438 0.82083 0.0
N1437 N 0.91443 0.80638 0.82531 0.0
N1438 N -0.0029 0.87751 0.83224 0.0
C1439 C 0.98493 0.83367 0.84033 0.0
C1440 C 0.93976 0.79517 0.83663 0.0
C1441 C 0.4378 0.6925 0.1096 0.0
C1442 C 0.42424 0.72748 0.09918 0.0
C1443 C 0.49035 0.66261 0.11022 0.0
C1444 C 0.53129 0.66591 0.10037 0.0
H1445 H 0.40538 0.68381 0.11678 0.0
H1446 H 0.49591 0.63149 0.11775 0.0
S1447 S 0.52495 0.7641 0.07296 0.0
N1448 N 0.46297 0.77483 0.08048 0.0
N1449 N 0.56049 0.71561 0.08129 0.0
C1450 C 0.52238 0.70703 0.09091 0.0
C1451 C 0.46896 0.73861 0.09039 0.0
C1452 C 0.51667 0.75409 0.2264 0.0
C1453 C 0.55209 0.72816 0.2172 0.0
C1454 C 0.48005 0.80001 0.22337 0.0
C1455 C 0.47879 0.82306 0.21108 0.0
H1456 H 0.51823 0.73949 0.23612 0.0
H1457 H 0.45372 0.81871 0.23081 0.0
S1458 S 0.56172 0.76902 0.18342 0.0
N1459 N 0.58207 0.72693 0.19519 0.0
N1460 N 0.51425 0.8147 0.18948 0.0
C1461 C 0.51324 0.79687 0.2017 0.0
C1462 C 0.5496 0.74896 0.20476 0.0
C1463 C 0.50262 0.26997 0.46942 0.0
C1464 C 0.54468 0.25215 0.46051 0.0
C1465 C 0.45065 0.23941 0.47118 0.0
C1466 C 0.43773 0.19022 0.46395 0.0
H1467 H 0.51018 0.30727 0.47533 0.0
H1468 H 0.42112 0.25373 0.47851 0.0
S1469 S 0.52695 0.13269 0.4375 0.0
N1470 N 0.56614 0.186 0.44331 0.0
N1471 N 0.46724 0.13076 0.44612 0.0
C1472 C 0.47733 0.17443 0.45437 0.0
C1473 C 0.53094 0.20481 0.45276 0.0
C1474 C 0.96228 0.20378 0.71443 0.0
C1475 C 0.0218 0.20392 0.71728 0.0
C1476 C 0.92883 0.25419 0.71529 0.0
C1477 C 0.95319 0.30721 0.71909 0.0
H1478 H 0.94097 0.16425 0.71161 0.0
H1479 H 0.88313 0.251 0.71318 0.0
S1480 S 0.10764 0.33187 0.72729 0.0
N1481 N 0.10395 0.26265 0.72388 0.0
N1482 N 0.04134 0.35686 0.72536 0.0
C1483 C 0.01289 0.30828 0.72176 0.0
C1484 C 0.04703 0.25693 0.72088 0.0
C1485 C 0.91962 0.74131 0.95896 0.0
C1486 C 0.92904 0.70863 0.96995 0.0
C1487 C 0.95953 0.78379 0.95508 0.0
C1488 C 0.01039 0.7952 0.96204 0.0
H1489 H 0.88102 0.73439 0.95335 0.0
H1490 H 0.94985 0.80858 0.94668 0.0
S1491 S 0.05858 0.71851 0.99088 0.0
N1492 N 0.99562 0.68904 0.98736 0.0
N1493 N 0.06978 0.76768 0.97992 0.0
C1494 C 0.02103 0.76189 0.97284 0.0
C1495 C 0.98064 0.71898 0.97682 0.0
C1496 C 0.52541 0.77895 0.71975 0.0
C1497 C 0.5777 0.77678 0.71298 0.0
C1498 C 0.48421 0.73473 0.71862 0.0
C1499 C 0.49448 0.68632 0.71086 0.0
H1500 H 0.51762 0.81338 0.72646 0.0
H1501 H 0.44528 0.73735 0.72433 0.0
S1502 S 0.62146 0.66564 0.68973 0.0
N1503 N 0.63482 0.7268 0.69717 0.0
N1504 N 0.55832 0.64289 0.69517 0.0
C1505 C 0.5453 0.68567 0.70348 0.0
C1506 C 0.58674 0.73109 0.70453 0.0
C1507 C 0.94623 0.75724 0.46996 0.0
C1508 C 0.96887 0.80331 0.46289 0.0
C1509 C 0.98082 0.71055 0.47347 0.0
C1510 C 0.03958 0.7071 0.46992 0.0
H1511 H 0.90144 0.75736 0.47302 0.0
H1512 H 0.961 0.67674 0.47905 0.0
S1513 S 0.11973 0.81397 0.45061 0.0
N1514 N 0.05387 0.84116 0.45193 0.0
N1515 N 0.11843 0.75229 0.45836 0.0
C1516 C 0.06249 0.75145 0.46239 0.0
C1517 C 0.0273 0.79973 0.45892 0.0
C1518 C 0.02542 0.23683 0.22337 0.0
C1519 C 0.04437 0.28185 0.21543 0.0
C1520 C 0.98194 0.19835 0.21961 0.0
C1521 C 0.95544 0.20288 0.20771 0.0
H1522 H 0.04415 0.23109 0.23266 0.0
H1523 H 0.96919 0.16466 0.22612 0.0
S1524 S 0.98979 0.3126 0.18319 0.0
N1525 N 0.03364 0.32825 0.195 0.0
N1526 N 0.95189 0.25616 0.18787 0.0
C1527 C 0.97427 0.24744 0.19959 0.0
C1528 C 0.01854 0.28689 0.20347 0.0
C1529 C 0.44013 0.22739 0.96991 0.0
C1530 C 0.43925 0.27224 0.961 0.0
C1531 C 0.48668 0.18787 0.97025 0.0
C1532 C 0.53411 0.19278 0.96183 0.0
H1533 H 0.40705 0.22523 0.97718 0.0
H1534 H 0.48713 0.15536 0.97758 0.0
S1535 S 0.54745 0.29678 0.93545 0.0
N1536 N 0.48629 0.31438 0.94258 0.0
N1537 N 0.57308 0.24125 0.94337 0.0
C1538 C 0.53138 0.23483 0.95237 0.0
C1539 C 0.48408 0.27418 0.95191 0.0
C1540 C 0.54961 0.22409 0.83183 0.0
C1541 C 0.5764 0.23292 0.8436 0.0
C1542 C 0.5048 0.2602 0.82772 0.0
C1543 C 0.48608 0.30732 0.83505 0.0
H1544 H 0.56092 0.18711 0.82609 0.0
H1545 H 0.48202 0.24898 0.81911 0.0
S1546 S 0.54735 0.35427 0.86568 0.0
N1547 N 0.58493 0.29619 0.86191 0.0
N1548 N 0.50107 0.36409 0.854 0.0
C1549 C 0.51554 0.31948 0.8463 0.0
C1550 C 0.56054 0.28217 0.85064 0.0
C1551 C 0.4549 0.76551 0.58714 0.0
C1552 C 0.4592 0.71742 0.59515 0.0
C1553 C 0.49627 0.81039 0.58769 0.0
C1554 C 0.54358 0.80808 0.59614 0.0
H1555 H 0.42212 0.76649 0.57984 0.0
H1556 H 0.49314 0.84524 0.58094 0.0
S1557 S 0.56827 0.6961 0.62049 0.0
N1558 N 0.51014 0.67404 0.61282 0.0
N1559 N 0.58716 0.75744 0.61378 0.0
C1560 C 0.54543 0.76239 0.60479 0.0
C1561 C 0.50341 0.71737 0.60432 0.0
C1562 C 0.06457 0.74424 0.34642 0.0
C1563 C 0.04003 0.69184 0.34231 0.0
C1564 C 0.03146 0.79479 0.34734 0.0
C1565 C 0.97222 0.79532 0.34423 0.0
H1566 H 0.11026 0.74696 0.3486 0.0
H1567 H 0.05301 0.83403 0.35027 0.0
S1568 S 0.88553 0.66834 0.334 0.0
N1569 N 0.95171 0.6429 0.33587 0.0
N1570 N 0.88956 0.7374 0.33755 0.0
C1571 C 0.94657 0.74266 0.34054 0.0
C1572 C 0.98039 0.69118 0.33958 0.0
C1573 C 0.02243 0.29212 0.09826 0.0
C1574 C 0.06775 0.26825 0.09096 0.0
C1575 C 0.96763 0.26567 0.0991 0.0
C1576 C 0.95535 0.21371 0.09275 0.0
H1577 H 0.02879 0.33228 0.10326 0.0
H1578 H 0.93453 0.28653 0.10475 0.0
S1579 S 0.05949 0.13255 0.07248 0.0
N1580 N 0.09666 0.18889 0.07738 0.0
N1581 N 0.99496 0.13894 0.07905 0.0
C1582 C 0.00094 0.18862 0.08566 0.0
C1583 C 0.05665 0.2158 0.08476 0.0
C1584 C 0.36393 0.0334 0.39298 0.0
C1585 C 0.31853 0.06935 0.389 0.0
C1586 C 0.37195 0.02071 0.40587 0.0
C1587 C 0.33565 0.04439 0.41528 0.0
H1588 H 0.39141 0.01258 0.38603 0.0
H1589 H 0.40583 0.99085 0.4085 0.0
S1590 S 0.21336 0.14454 0.40986 0.0
N1591 N 0.23897 0.13111 0.39555 0.0
N1592 N 0.25445 0.10762 0.41971 0.0
C1593 C 0.29204 0.08267 0.41146 0.0
C1594 C 0.28334 0.09496 0.39835 0.0
C1595 C 0.12547 0.02827 0.65066 0.0
C1596 C 0.15106 0.06445 0.64148 0.0
C1597 C 0.13168 0.03909 0.66372 0.0
C1598 C 0.1646 0.08594 0.6681 0.0
H1599 H 0.10245 0.98995 0.64769 0.0
H1600 H 0.11403 0.00851 0.67042 0.0
S1601 S 0.23874 0.1946 0.64811 0.0
N1602 N 0.20823 0.15047 0.63782 0.0
N1603 N 0.22114 0.16995 0.66226 0.0
C1604 C 0.1884 0.12361 0.65904 0.0
C1605 C 0.18124 0.11319 0.64577 0.0
C1606 C 0.21256 0.8993 0.90353 0.0
C1607 C 0.19299 0.93769 0.89414 0.0
C1608 C 0.201 0.90888 0.9164 0.0
C1609 C 0.16971 0.95747 0.92044 0.0
H1610 H 0.23689 0.86129 0.90089 0.0
H1611 H 0.21781 0.8787 0.92326 0.0
S1612 S 0.10729 0.0704 0.89966 0.0
N1613 N 0.14052 0.02607 0.88983 0.0
N1614 N 0.11695 0.04314 0.9139 0.0
C1615 C 0.14896 -0.00432 0.91113 0.0
C1616 C 0.16094 0.98599 0.89803 0.0
C1617 C 0.41555 0.87437 0.14731 0.0
C1618 C 0.37667 0.87909 0.13706 0.0
C1619 C 0.39754 0.88395 0.1599 0.0
C1620 C 0.34 0.89928 0.16276 0.0
H1621 H 0.46063 0.86414 0.14558 0.0
H1622 H 0.4294 0.8818 0.16738 0.0
S1623 S 0.2196 0.91275 0.13976 0.0
N1624 N 0.27669 0.89725 0.13097 0.0
N1625 N 0.24316 0.914 0.15447 0.0
C1626 C 0.30016 0.9016 0.15271 0.0
C1627 C 0.31833 0.89176 0.13993 0.0
C1628 C 0.63052 0.98966 0.66303 0.0
C1629 C 0.67532 0.95304 0.66698 0.0
C1630 C 0.61874 -0.00243 0.65009 0.0
C1631 C 0.65055 0.9683 0.64066 0.0
H1632 H 0.60687 0.01481 0.66996 0.0
H1633 H 0.58587 0.02842 0.64739 0.0
S1634 S 0.76948 0.86448 0.64625 0.0
N1635 N 0.74968 0.88521 0.66057 0.0
N1636 N 0.72666 0.89899 0.63631 0.0
C1637 C 0.69321 0.92915 0.64456 0.0
C1638 C 0.70588 0.92191 0.65771 0.0
C1639 C 0.76441 0.89458 0.39713 0.0
C1640 C 0.81146 0.91223 0.38954 0.0
C1641 C 0.76681 0.8973 0.41036 0.0
C1642 C 0.81655 0.91715 0.41663 0.0
H1643 H 0.72423 0.88112 0.39276 0.0
H1644 H 0.72835 0.88664 0.41576 0.0
S1645 S 0.95328 0.96418 0.40139 0.0
N1646 N 0.91083 0.94688 0.38939 0.0
N1647 N 0.91532 0.95141 0.41437 0.0
C1648 C 0.86533 0.93132 0.40927 0.0
C1649 C 0.86286 0.92885 0.3957 0.0
C1650 C 0.85158 0.01896 0.14753 0.0
C1651 C 0.82554 0.05298 0.13805 0.0
C1652 C 0.83955 0.02764 0.16046 0.0
C1653 C 0.80049 0.07038 0.16445 0.0
H1654 H 0.88101 0.98464 0.14493 0.0
H1655 H 0.85938 -0.00059 0.16733 0.0
S1656 S 0.72419 0.1743 0.14362 0.0
N1657 N 0.76093 0.133 0.13374 0.0
N1658 N 0.73946 0.15034 0.15791 0.0
C1659 C 0.77598 0.10625 0.15512 0.0
C1660 C 0.78828 0.09742 0.14197 0.0
C1661 C 0.65724 0.03174 0.89387 0.0
C1662 C 0.68987 0.08112 0.89101 0.0
C1663 C 0.64276 0.01811 0.90646 0.0
C1664 C 0.65953 0.05377 0.91665 0.0
H1665 H 0.64572 0.00191 0.8864 0.0
H1666 H 0.61988 0.97826 0.9083 0.0
S1667 S 0.73992 0.19147 0.91391 0.0
N1668 N 0.73433 0.16825 0.8992 0.0
N1669 N 0.70692 0.14289 0.92277 0.0
C1670 C 0.68897 0.10511 0.91379 0.0
C1671 C 0.70428 0.1186 0.901 0.0
C1672 C 0.81779 0.60106 0.89979 0.0
C1673 C 0.78701 0.56136 0.89226 0.0
C1674 C 0.82241 0.59365 0.91304 0.0
C1675 C 0.79688 0.546 0.91919 0.0
H1676 H 0.8371 0.63868 0.89545 0.0
H1677 H 0.84654 0.62496 0.9185 0.0
S1678 S 0.71208 0.42971 0.90366 0.0
N1679 N 0.73224 0.47208 0.89195 0.0
N1680 N 0.73865 0.45949 0.91658 0.0
C1681 C 0.76624 0.50618 0.91168 0.0
C1682 C 0.76196 0.51347 0.89832 0.0
C1683 C 0.62483 0.53287 0.15134 0.0
C1684 C 0.66753 0.55192 0.14279 0.0
C1685 C 0.63148 0.54111 0.16447 0.0
C1686 C 0.68123 0.56824 0.16937 0.0
H1687 H 0.58815 0.50839 0.14789 0.0
H1688 H 0.59966 0.52288 0.17086 0.0
S1689 S 0.80077 0.63288 0.15067 0.0
N1690 N 0.75757 0.60393 0.13997 0.0
N1691 N 0.76998 0.62006 0.1645 0.0
C1692 C 0.72184 0.59096 0.16079 0.0
C1693 C 0.71504 0.58256 0.14753 0.0
C1694 C 0.66365 0.38671 0.41094 0.0
C1695 C 0.69412 0.4254 0.41874 0.0
C1696 C 0.67578 0.38287 0.39787 0.0
C1697 C 0.71928 0.41706 0.39225 0.0
H1698 H 0.62939 0.36044 0.41492 0.0
H1699 H 0.65154 0.35263 0.39215 0.0
S1700 S 0.81168 0.52442 0.40869 0.0
N1701 N 0.77032 0.49728 0.41996 0.0
N1702 N 0.79199 0.49131 0.39558 0.0
C1703 C 0.75007 0.4555 0.40003 0.0
C1704 C 0.73782 0.4593 0.41322 0.0
C1705 C 0.83559 0.44672 0.66491 0.0
C1706 C 0.79427 0.40622 0.66895 0.0
C1707 C 0.84546 0.45669 0.65197 0.0
C1708 C 0.81507 0.42594 0.64256 0.0
H1709 H 0.85811 0.47297 0.6718 0.0
H1710 H 0.8761 0.48983 0.64927 0.0
S1711 S 0.70628 0.31127 0.64828 0.0
N1712 N 0.72589 0.33218 0.66258 0.0
N1713 N 0.74446 0.35082 0.63832 0.0
C1714 C 0.776 0.38311 0.64651 0.0
C1715 C 0.76555 0.37338 0.65968 0.0
C1716 C 0.22442 0.38995 0.15761 0.0
C1717 C 0.1891 0.42033 0.16625 0.0
C1718 C 0.21772 0.39621 0.14445 0.0
C1719 C 0.17627 0.43407 0.13945 0.0
H1720 H 0.2586 0.36232 0.16109 0.0
H1721 H 0.24719 0.37381 0.13817 0.0
S1722 S 0.07069 0.52082 0.15786 0.0
N1723 N 0.10889 0.48694 0.16873 0.0
N1724 N 0.09711 0.49964 0.14408 0.0
C1725 C 0.13925 0.46292 0.14795 0.0
C1726 C 0.14537 0.45576 0.16132 0.0
C1727 C 0.29075 0.3571 0.8925 0.0
C1728 C 0.34723 0.3606 0.88757 0.0
C1729 C 0.28038 0.36295 0.90557 0.0
C1730 C 0.32608 0.372 0.91422 0.0
H1731 H 0.25417 0.35456 0.88613 0.0
H1732 H 0.23595 0.36332 0.90888 0.0
S1733 S 0.48245 0.37701 0.90609 0.0
N1734 N 0.44967 0.3677 0.89237 0.0
N1735 N 0.43043 0.37874 0.91684 0.0
C1736 C 0.38301 0.37078 0.90946 0.0
C1737 C 0.39345 0.36511 0.89617 0.0
C1738 C 0.3775 0.54625 0.64822 0.0
C1739 C 0.35534 0.58451 0.63914 0.0
C1740 C 0.36936 0.55626 0.66121 0.0
C1741 C 0.33742 0.60405 0.66545 0.0
H1742 H 0.39847 0.50687 0.64519 0.0
H1743 H 0.38437 0.52444 0.66791 0.0
S1744 S 0.27361 0.71837 0.64545 0.0
N1745 N 0.30358 0.67334 0.63525 0.0
N1746 N 0.28702 0.69179 0.65963 0.0
C1747 C 0.31758 0.64393 0.65647 0.0
C1748 C 0.32684 0.63423 0.6433 0.0
C1749 C 0.21059 0.60255 0.4139 0.0
C1750 C 0.16272 0.56989 0.41793 0.0
C1751 C 0.22379 0.60827 0.40095 0.0
C1752 C 0.18914 0.58231 0.39155 0.0
H1753 H 0.24001 0.62054 0.42082 0.0
H1754 H 0.26258 0.63155 0.39827 0.0
S1755 S 0.05621 0.49645 0.39722 0.0
N1756 N 0.07857 0.51442 0.41152 0.0
N1757 N 0.10293 0.52572 0.38726 0.0
C1758 C 0.13924 0.55256 0.39546 0.0
C1759 C 0.12625 0.54615 0.40862 0.0
C1760 C 0.30968 0.95585 0.27621 0.0
C1761 C 0.34294 0.96616 0.26519 0.0
C1762 C 0.31714 0.9885 0.28734 0.0
C1763 C 0.35789 0.03359 0.28801 0.0
H1764 H 0.27709 0.92237 0.27628 0.0
H1765 H 0.29146 0.97739 0.29556 0.0
S1766 S 0.45489 0.08089 0.26192 0.0
N1767 N 0.41941 0.02547 0.256 0.0
N1768 N 0.42961 0.0891 0.2764 0.0
C1769 C 0.39042 0.04548 0.27701 0.0
C1770 C 0.38391 0.0114 0.26577 0.0
C1771 C 0.25182 0.04405 0.53931 0.0
C1772 C 0.19362 0.06222 0.53908 0.0
C1773 C 0.28526 0.04069 0.52812 0.0
C1774 C 0.26192 0.05464 0.51615 0.0
H1775 H 0.27237 0.03455 0.54825 0.0
H1776 H 0.33013 0.02766 0.52887 0.0
S1777 S 0.1103 0.10087 0.51035 0.0
N1778 N 0.11321 0.09123 0.5258 0.0
N1779 N 0.17561 0.08535 0.50493 0.0
C1780 C 0.2031 0.07077 0.51579 0.0
C1781 C 0.16924 0.07455 0.52718 0.0
C1782 C 0.18608 0.03199 0.79243 0.0
C1783 C 0.14353 0.98859 0.7938 0.0
C1784 C 0.19162 0.06411 0.78115 0.0
C1785 C 0.15564 0.05358 0.77067 0.0
H1786 H 0.2161 0.0407 0.80003 0.0
H1787 H 0.2251 0.09668 0.78052 0.0
S1788 S 0.03306 0.95079 0.76951 0.0
N1789 N 0.06058 0.94211 0.78377 0.0
N1790 N 0.0737 8e-05 0.76259 0.0
C1791 C 0.11243 0.01146 0.77192 0.0
C1792 C 0.1057 0.97966 0.78345 0.0
C1793 C 0.27926 0.83461 1.02778 0.0
C1794 C 0.26789 0.85582 0.04003 0.0
C1795 C 0.24192 0.84598 1.01764 0.0
C1796 C 0.19155 0.87906 1.01926 0.0
H1797 H 0.3173 0.80852 1.02603 0.0
H1798 H 0.25165 0.8275 1.00849 0.0
S1799 S 0.14061 0.94429 0.04927 0.0
N1800 N 0.20143 0.91125 0.05315 0.0
N1801 N 0.13163 0.93286 0.03397 0.0
C1802 C 0.17929 0.90064 0.03139 0.0
C1803 C 0.21752 0.88929 0.04178 0.0
C1804 C 0.68376 0.9869 0.79059 0.0
C1805 C 0.70499 0.04367 0.78994 0.0
C1806 C 0.67885 0.95227 0.7797 0.0
C1807 C 0.69571 0.97242 0.76765 0.0
H1808 H 0.66868 0.96984 0.79953 0.0
H1809 H 0.66074 0.90949 0.78068 0.0
S1810 S 0.75868 0.11679 0.76102 0.0
N1811 N 0.74617 0.11744 0.7764 0.0
N1812 N 0.73767 0.05276 0.75601 0.0
C1813 C 0.71935 0.02845 0.76698 0.0
C1814 C 0.7236 0.06394 0.77807 0.0
C1815 C 0.78195 0.91404 0.52985 0.0
C1816 C 0.76419 0.93209 0.51774 0.0
C1817 C 0.74652 0.92169 0.54054 0.0
C1818 C 0.69126 0.94682 0.53958 0.0
H1819 H 0.82335 0.89284 0.53102 0.0
H1820 H 0.76164 0.90598 0.54959 0.0
S1821 S 0.62597 0.00724 0.51051 0.0
N1822 N 0.68874 0.98071 0.50573 0.0
N1823 N 0.62221 -0.00589 0.52584 0.0
C1824 C 0.67362 0.96702 0.52769 0.0
C1825 C 0.7101 0.96012 0.51679 0.0
C1826 C 0.79219 0.96108 0.28015 0.0
C1827 C 0.84109 0.95898 0.28805 0.0
C1828 C 0.79183 -0.00459 0.26912 0.0
C1829 C 0.83992 0.02982 0.26574 0.0
H1830 H 0.75443 0.9354 0.28243 0.0
H1831 H 0.75345 -0.0045 0.26325 0.0
S1832 S 0.97839 0.03887 0.28349 0.0
N1833 N 0.93846 0.99357 0.29181 0.0
N1834 N 0.93805 0.05833 0.27135 0.0
C1835 C 0.88879 0.02814 0.27372 0.0
C1836 C 0.8893 0.99266 0.28478 0.0
C1837 C 0.69907 0.02116 1.02657 0.0
C1838 C 0.688 0.06574 1.01789 0.0
C1839 C 0.73865 0.02841 0.03658 0.0
C1840 C 0.76861 0.08076 0.03845 0.0
H1841 H 0.67806 0.97981 1.0254 0.0
H1842 H 0.74646 0.99229 0.04279 0.0
S1843 S 0.74937 0.21306 1.01905 0.0
N1844 N 0.70721 0.16487 1.0122 0.0
N1845 N 0.77956 0.17974 0.03112 0.0
C1846 C 0.75632 0.12626 0.02998 0.0
C1847 C 0.71662 0.11844 1.01971 0.0
C1848 C 0.80212 0.49233 0.79199 0.0
C1849 C 0.82597 0.54813 0.79154 0.0
C1850 C 0.79986 0.45723 0.78113 0.0
C1851 C 0.82009 0.47702 0.76932 0.0
H1852 H 0.787 0.47491 0.80089 0.0
H1853 H 0.78234 0.41415 0.78198 0.0
S1854 S 0.88273 0.62132 0.76293 0.0
N1855 N 0.86759 0.62241 0.7782 0.0
N1856 N 0.86284 0.55707 0.75783 0.0
C1857 C 0.84199 0.53352 0.76867 0.0
C1858 C 0.84505 0.56883 0.77975 0.0
C1859 C 0.65868 0.61482 1.02114 0.0
C1860 C 0.70984 0.58432 1.01814 0.0
C1861 C 0.62792 0.60449 0.03243 0.0
C1862 C 0.6478 0.56413 0.0413 0.0
H1863 H 0.64272 0.64753 1.01475 0.0
H1864 H 0.58959 0.62974 0.03448 0.0
S1865 S 0.77667 0.47 0.03761 0.0
N1866 N 0.77666 0.50963 1.02465 0.0
N1867 N 0.7197 0.49081 0.04594 0.0
C1868 C 0.69778 0.53209 0.03824 0.0
C1869 C 0.72848 0.54193 1.02665 0.0
C1870 C 0.69386 0.48234 0.26983 0.0
C1871 C 0.6638 0.53511 0.27039 0.0
C1872 C 0.6988 0.44677 0.28054 0.0
C1873 C 0.67547 0.46362 0.29226 0.0
H1874 H 0.71164 0.46735 0.26094 0.0
H1875 H 0.7207 0.40574 0.27968 0.0
S1876 S 0.5975 0.59959 0.29907 0.0
N1877 N 0.61361 0.60366 0.28387 0.0
N1878 N 0.62374 0.53737 0.30396 0.0
C1879 C 0.64776 0.51728 0.29309 0.0
C1880 C 0.64182 0.55292 0.28217 0.0
C1881 C 0.76716 0.39508 0.51896 0.0
C1882 C 0.70856 0.37804 0.5191 0.0
C1883 C 0.79977 0.3983 0.53015 0.0
C1884 C 0.77454 0.3864 0.54198 0.0
H1885 H 0.78839 0.40463 0.51011 0.0
H1886 H 0.84505 0.41031 0.52957 0.0
S1887 S 0.62136 0.34538 0.54777 0.0
N1888 N 0.62576 0.35304 0.53228 0.0
N1889 N 0.68682 0.3594 0.55325 0.0
C1890 C 0.71543 0.37167 0.54234 0.0
C1891 C 0.68249 0.3675 0.53093 0.0
C1892 C 0.19408 0.48089 0.27472 0.0
C1893 C 0.15019 0.49539 0.2661 0.0
C1894 C 0.2009 0.51157 0.28616 0.0
C1895 C 0.1647 0.55853 0.2893 0.0
H1896 H 0.22206 0.44452 0.27278 0.0
H1897 H 0.23469 0.49839 0.29262 0.0
S1898 S 0.04469 0.61482 0.26951 0.0
N1899 N 0.07156 0.56085 0.2612 0.0
N1900 N 0.08367 0.61786 0.28256 0.0
C1901 C 0.12158 0.57407 0.28054 0.0
C1902 C 0.11451 0.54269 0.26899 0.0
C1903 C 0.31178 0.43264 1.0259 0.0
C1904 C 0.30536 0.39156 1.01619 0.0
C1905 C 0.27683 0.43121 0.03686 0.0
C1906 C 0.23397 0.38849 0.03864 0.0
H1907 H 0.34295 0.46718 1.02485 0.0
H1908 H 0.28263 0.46468 0.04387 0.0
S1909 S 0.20519 0.26652 1.01675 0.0
N1910 N 0.25619 0.30424 1.00956 0.0
N1911 N 0.1914 0.3009 0.03009 0.0
C1912 C 0.22863 0.34603 0.02916 0.0
C1913 C 0.26401 0.34771 1.01799 0.0
C1914 C 0.36132 0.46457 0.764 0.0
C1915 C 0.34348 0.52233 0.76486 0.0
C1916 C 0.35752 0.42729 0.77446 0.0
C1917 C 0.33525 0.44618 0.78618 0.0
H1918 H 0.3797 0.44854 0.75526 0.0
H1919 H 0.37308 0.38362 0.77338 0.0
S1920 S 0.27713 0.59264 0.79278 0.0
N1921 N 0.3 0.59602 0.77801 0.0
N1922 N 0.29076 0.52633 0.79752 0.0
C1923 C 0.31578 0.50376 0.78699 0.0
C1924 C 0.32044 0.54167 0.77638 0.0
C1925 C 0.29551 0.56396 0.51785 0.0
C1926 C 0.24467 0.59732 0.51753 0.0
C1927 C 0.33497 0.56821 0.52796 0.0
C1928 C 0.32486 0.60561 0.53826 0.0
H1929 H 0.30335 0.53233 0.51055 0.0
H1930 H 0.37224 0.53994 0.528 0.0
S1931 S 0.19942 0.70489 0.54142 0.0
N1932 N 0.18726 0.67033 0.52803 0.0
N1933 N 0.26123 0.67938 0.54692 0.0
C1934 C 0.27472 0.64034 0.53782 0.0
C1935 C 0.23465 0.63579 0.52752 0.0
loop_
_geom_bond_atom_site_label_1
_geom_bond_atom_site_label_2
_geom_bond_distance
_geom_bond_site_symmetry_2
_ccdc_geom_bond_type
C0 C1 1.351 . S
C0 N3 1.368 . S
C0 H5 0.931 . S
C1 C0 1.351 . S
C1 N2 1.373 . S
C1 H29 0.930 . S
N2 C1 1.373 . S
N2 C4 1.340 . S
N3 C0 1.368 . S
N3 C4 1.321 . S
N3 Co6 2.135 . S
C4 N2 1.340 . S
C4 N3 1.321 . S
C4 H28 0.930 . S
H5 C0 0.931 . S
Co6 N3 2.135 . S
Co6 N9 2.121 . S
Co6 O14 2.055 . S
Co6 O17 2.039 . S
Co6 N20 2.140 . S
C7 O8 1.227 . S
C7 O17 1.265 . S
O8 C7 1.227 . S
N9 Co6 2.121 . S
N9 C11 1.375 . S
N9 C12 1.313 . S
C10 C11 1.338 . S
C10 N13 1.377 . S
C10 H30 0.930 . S
C11 N9 1.375 . S
C11 C10 1.338 . S
C11 H15 0.931 . S
C12 N9 1.313 . S
C12 N13 1.344 . S
C12 H16 0.930 . S
N13 C10 1.377 . S
N13 C12 1.344 . S
O14 Co6 2.055 . S
O14 C18 1.253 1_545 S
H15 C11 0.931 . S
H16 C12 0.930 . S
O17 Co6 2.039 . S
O17 C7 1.265 . S
C18 O14 1.253 1_565 S
C18 O19 1.227 1_565 S
O19 C18 1.227 1_545 S
N20 Co6 2.140 . S
N20 C23 1.346 . S
N20 C24 1.345 . S
C21 C22 1.387 . S
C21 C25 1.391 . S
C22 C21 1.387 . S
C22 C23 1.369 . S
C22 H31 0.929 . S
C23 N20 1.346 . S
C23 C22 1.369 . S
C23 H26 0.928 . S
C24 N20 1.345 . S
C24 C25 1.371 . S
C24 H27 0.931 . S
C25 C21 1.391 . S
C25 C24 1.371 . S
C25 H32 0.930 . S
H26 C23 0.928 . S
H27 C24 0.931 . S
H28 C4 0.930 . S
H29 C1 0.930 . S
H30 C10 0.930 . S
H31 C22 0.929 . S
H32 C25 0.930 . S
C33 C34 1.351 . S
C33 N36 1.368 . S
C33 H38 0.931 . S
C34 C33 1.351 . S
C34 N35 1.373 . S
C34 H62 0.930 . S
N35 C34 1.373 . S
N35 C37 1.340 . S
N36 C33 1.368 . S
N36 C37 1.321 . S
N36 Co39 2.135 . S
C37 N35 1.340 . S
C37 N36 1.321 . S
C37 H61 0.930 . S
H38 C33 0.931 . S
Co39 N36 2.135 . S
Co39 N42 2.121 . S
Co39 O47 2.055 . S
Co39 O50 2.039 . S
Co39 N53 2.140 . S
C40 O41 1.227 . S
C40 O50 1.265 . S
O41 C40 1.227 . S
N42 Co39 2.121 . S
N42 C44 1.375 . S
N42 C45 1.313 . S
C43 C44 1.338 . S
C43 N46 1.377 . S
C43 H63 0.930 . S
C44 N42 1.375 . S
C44 C43 1.338 . S
C44 H48 0.931 . S
C45 N42 1.313 . S
C45 N46 1.344 . S
C45 H49 0.930 . S
N46 C43 1.377 . S
N46 C45 1.344 . S
O47 Co39 2.055 . S
O47 C51 1.253 . S
H48 C44 0.931 . S
H49 C45 0.930 . S
O50 Co39 2.039 . S
O50 C40 1.265 . S
C51 O47 1.253 . S
C51 O52 1.227 . S
O52 C51 1.227 . S
N53 Co39 2.140 . S
N53 C56 1.346 . S
N53 C57 1.345 . S
C54 C55 1.387 1_565 S
C54 C58 1.391 1_655 S
C55 C54 1.387 1_545 S
C55 C56 1.369 1_655 S
C55 H64 0.929 . S
C56 N53 1.346 . S
C56 C55 1.369 1_455 S
C56 H59 0.928 . S
C57 N53 1.345 . S
C57 C58 1.371 1_545 S
C57 H60 0.931 . S
C58 C54 1.391 1_455 S
C58 C57 1.371 1_565 S
C58 H65 0.930 . S
H59 C56 0.928 . S
H60 C57 0.931 . S
H61 C37 0.930 . S
H62 C34 0.930 . S
H63 C43 0.930 . S
H64 C55 0.929 . S
H65 C58 0.930 . S
C66 C67 1.351 . S
C66 N69 1.368 . S
C66 H71 0.931 . S
C67 C66 1.351 . S
C67 N68 1.373 . S
C67 H95 0.930 . S
N68 C67 1.373 . S
N68 C70 1.340 . S
N69 C66 1.368 . S
N69 C70 1.321 . S
N69 Co72 2.135 . S
C70 N68 1.340 . S
C70 N69 1.321 . S
C70 H94 0.930 . S
H71 C66 0.931 . S
Co72 N69 2.135 . S
Co72 N75 2.121 . S
Co72 O80 2.055 . S
Co72 O83 2.039 . S
Co72 N86 2.140 . S
C73 O74 1.227 . S
C73 O83 1.265 . S
O74 C73 1.227 . S
N75 Co72 2.121 . S
N75 C77 1.375 . S
N75 C78 1.313 . S
C76 C77 1.338 . S
C76 N79 1.377 . S
C76 H96 0.930 . S
C77 N75 1.375 . S
C77 C76 1.338 . S
C77 H81 0.931 . S
C78 N75 1.313 . S
C78 N79 1.344 . S
C78 H82 0.930 . S
N79 C76 1.377 . S
N79 C78 1.344 . S
O80 Co72 2.055 . S
O80 C84 1.253 1_565 S
H81 C77 0.931 . S
H82 C78 0.930 . S
O83 Co72 2.039 . S
O83 C73 1.265 . S
C84 O80 1.253 1_545 S
C84 O85 1.227 1_545 S
O85 C84 1.227 1_565 S
N86 Co72 2.140 . S
N86 C89 1.346 . S
N86 C90 1.345 . S
C87 C88 1.387 . S
C87 C91 1.391 . S
C88 C87 1.387 . S
C88 C89 1.369 . S
C88 H97 0.929 . S
C89 N86 1.346 . S
C89 C88 1.369 . S
C89 H92 0.928 . S
C90 N86 1.345 . S
C90 C91 1.371 . S
C90 H93 0.931 . S
C91 C87 1.391 . S
C91 C90 1.371 . S
C91 H98 0.930 . S
H92 C89 0.928 . S
H93 C90 0.931 . S
H94 C70 0.930 . S
H95 C67 0.930 . S
H96 C76 0.930 . S
H97 C88 0.929 . S
H98 C91 0.930 . S
C99 C100 1.351 . S
C99 N102 1.368 . S
C99 H104 0.931 . S
C100 C99 1.351 . S
C100 N101 1.373 . S
C100 H128 0.930 . S
N101 C100 1.373 . S
N101 C103 1.340 . S
N102 C99 1.368 . S
N102 C103 1.321 . S
N102 Co105 2.135 . S
C103 N101 1.340 . S
C103 N102 1.321 . S
C103 H127 0.930 . S
H104 C99 0.931 . S
Co105 N102 2.135 . S
Co105 N108 2.121 . S
Co105 O113 2.055 . S
Co105 O116 2.039 . S
Co105 N119 2.140 . S
C106 O107 1.227 . S
C106 O116 1.265 . S
O107 C106 1.227 . S
N108 Co105 2.121 . S
N108 C110 1.375 . S
N108 C111 1.313 . S
C109 C110 1.338 . S
C109 N112 1.377 . S
C109 H129 0.930 . S
C110 N108 1.375 . S
C110 C109 1.338 . S
C110 H114 0.931 . S
C111 N108 1.313 . S
C111 N112 1.344 . S
C111 H115 0.930 . S
N112 C109 1.377 . S
N112 C111 1.344 . S
O113 Co105 2.055 . S
O113 C117 1.253 . S
H114 C110 0.931 . S
H115 C111 0.930 . S
O116 Co105 2.039 . S
O116 C106 1.265 . S
C117 O113 1.253 . S
C117 O118 1.227 . S
O118 C117 1.227 . S
N119 Co105 2.140 . S
N119 C122 1.346 . S
N119 C123 1.345 . S
C120 C121 1.387 1_545 S
C120 C124 1.391 . S
C121 C120 1.387 1_565 S
C121 C122 1.369 . S
C121 H130 0.929 . S
C122 N119 1.346 . S
C122 C121 1.369 . S
C122 H125 0.928 . S
C123 N119 1.345 . S
C123 C124 1.371 1_565 S
C123 H126 0.931 . S
C124 C120 1.391 . S
C124 C123 1.371 1_545 S
C124 H131 0.930 . S
H125 C122 0.928 . S
H126 C123 0.931 . S
H127 C103 0.930 . S
H128 C100 0.930 . S
H129 C109 0.930 . S
H130 C121 0.929 . S
H131 C124 0.930 . S
C132 C133 1.351 . S
C132 N135 1.368 . S
C132 H137 0.931 . S
C133 C132 1.351 . S
C133 N134 1.373 . S
C133 H161 0.930 . S
N134 C133 1.373 . S
N134 C136 1.340 . S
N135 C132 1.368 . S
N135 C136 1.321 . S
N135 Co138 2.135 . S
C136 N134 1.340 . S
C136 N135 1.321 . S
C136 H160 0.930 . S
H137 C132 0.931 . S
Co138 N135 2.135 . S
Co138 N141 2.121 . S
Co138 O146 2.055 . S
Co138 O149 2.039 . S
Co138 N152 2.140 . S
C139 O140 1.227 . S
C139 O149 1.265 . S
O140 C139 1.227 . S
N141 Co138 2.121 . S
N141 C143 1.375 . S
N141 C144 1.313 . S
C142 C143 1.338 . S
C142 N145 1.377 . S
C142 H162 0.930 . S
C143 N141 1.375 . S
C143 C142 1.338 . S
C143 H147 0.931 . S
C144 N141 1.313 . S
C144 N145 1.344 . S
C144 H148 0.930 . S
N145 C142 1.377 . S
N145 C144 1.344 . S
O146 Co138 2.055 . S
O146 C150 1.253 1_565 S
H147 C143 0.931 . S
H148 C144 0.930 . S
O149 Co138 2.039 . S
O149 C139 1.265 . S
C150 O146 1.253 1_545 S
C150 O151 1.227 1_545 S
O151 C150 1.227 1_565 S
N152 Co138 2.140 . S
N152 C155 1.346 . S
N152 C156 1.345 . S
C153 C154 1.387 . S
C153 C157 1.391 . S
C154 C153 1.387 . S
C154 C155 1.369 . S
C154 H163 0.929 . S
C155 N152 1.346 . S
C155 C154 1.369 . S
C155 H158 0.928 . S
C156 N152 1.345 . S
C156 C157 1.371 . S
C156 H159 0.931 . S
C157 C153 1.391 . S
C157 C156 1.371 . S
C157 H164 0.930 . S
H158 C155 0.928 . S
H159 C156 0.931 . S
H160 C136 0.930 . S
H161 C133 0.930 . S
H162 C142 0.930 . S
H163 C154 0.929 . S
H164 C157 0.930 . S
C165 C166 1.351 . S
C165 N168 1.368 . S
C165 H170 0.931 . S
C166 C165 1.351 . S
C166 N167 1.373 . S
C166 H194 0.930 . S
N167 C166 1.373 . S
N167 C169 1.340 . S
N168 C165 1.368 . S
N168 C169 1.321 . S
N168 Co171 2.135 . S
C169 N167 1.340 . S
C169 N168 1.321 . S
C169 H193 0.930 . S
H170 C165 0.931 . S
Co171 N168 2.135 . S
Co171 N174 2.121 . S
Co171 O179 2.055 . S
Co171 O182 2.039 . S
Co171 N185 2.140 . S
C172 O173 1.227 . S
C172 O182 1.265 . S
O173 C172 1.227 . S
N174 Co171 2.121 . S
N174 C176 1.375 . S
N174 C177 1.313 . S
C175 C176 1.338 . S
C175 N178 1.377 . S
C175 H195 0.930 . S
C176 N174 1.375 . S
C176 C175 1.338 . S
C176 H180 0.931 . S
C177 N174 1.313 . S
C177 N178 1.344 . S
C177 H181 0.930 . S
N178 C175 1.377 . S
N178 C177 1.344 . S
O179 Co171 2.055 . S
O179 C183 1.253 . S
H180 C176 0.931 . S
H181 C177 0.930 . S
O182 Co171 2.039 . S
O182 C172 1.265 . S
C183 O179 1.253 . S
C183 O184 1.227 . S
O184 C183 1.227 . S
N185 Co171 2.140 . S
N185 C188 1.346 . S
N185 C189 1.345 . S
C186 C187 1.387 1_565 S
C186 C190 1.391 . S
C187 C186 1.387 1_545 S
C187 C188 1.369 . S
C187 H196 0.929 . S
C188 N185 1.346 . S
C188 C187 1.369 . S
C188 H191 0.928 . S
C189 N185 1.345 . S
C189 C190 1.371 1_545 S
C189 H192 0.931 . S
C190 C186 1.391 . S
C190 C189 1.371 1_565 S
C190 H197 0.930 . S
H191 C188 0.928 . S
H192 C189 0.931 . S
H193 C169 0.930 . S
H194 C166 0.930 . S
H195 C175 0.930 . S
H196 C187 0.929 . S
H197 C190 0.930 . S
C198 C199 1.351 . S
C198 N201 1.368 . S
C198 H203 0.931 . S
C199 C198 1.351 . S
C199 N200 1.373 . S
C199 H227 0.930 . S
N200 C199 1.373 . S
N200 C202 1.340 . S
N201 C198 1.368 . S
N201 C202 1.321 . S
N201 Co204 2.135 . S
C202 N200 1.340 . S
C202 N201 1.321 . S
C202 H226 0.930 . S
H203 C198 0.931 . S
Co204 N201 2.135 . S
Co204 N207 2.121 . S
Co204 O212 2.055 . S
Co204 O215 2.039 . S
Co204 N218 2.140 . S
C205 O206 1.227 . S
C205 O215 1.265 . S
O206 C205 1.227 . S
N207 Co204 2.121 . S
N207 C209 1.375 . S
N207 C210 1.313 . S
C208 C209 1.338 . S
C208 N211 1.377 . S
C208 H228 0.930 . S
C209 N207 1.375 . S
C209 C208 1.338 . S
C209 H213 0.931 . S
C210 N207 1.313 . S
C210 N211 1.344 . S
C210 H214 0.930 . S
N211 C208 1.377 . S
N211 C210 1.344 . S
O212 Co204 2.055 . S
O212 C216 1.253 1_545 S
H213 C209 0.931 . S
H214 C210 0.930 . S
O215 Co204 2.039 . S
O215 C205 1.265 . S
C216 O212 1.253 1_565 S
C216 O217 1.227 1_565 S
O217 C216 1.227 1_545 S
N218 Co204 2.140 . S
N218 C221 1.346 . S
N218 C222 1.345 . S
C219 C220 1.387 . S
C219 C223 1.391 . S
C220 C219 1.387 . S
C220 C221 1.369 . S
C220 H229 0.929 . S
C221 N218 1.346 . S
C221 C220 1.369 . S
C221 H224 0.928 . S
C222 N218 1.345 . S
C222 C223 1.371 . S
C222 H225 0.931 . S
C223 C219 1.391 . S
C223 C222 1.371 . S
C223 H230 0.930 . S
H224 C221 0.928 . S
H225 C222 0.931 . S
H226 C202 0.930 . S
H227 C199 0.930 . S
H228 C208 0.930 . S
H229 C220 0.929 . S
H230 C223 0.930 . S
C231 C232 1.351 . S
C231 N234 1.368 . S
C231 H236 0.931 . S
C232 C231 1.351 . S
C232 N233 1.373 . S
C232 H260 0.930 . S
N233 C232 1.373 . S
N233 C235 1.340 . S
N234 C231 1.368 . S
N234 C235 1.321 . S
N234 Co237 2.135 . S
C235 N233 1.340 . S
C235 N234 1.321 . S
C235 H259 0.930 . S
H236 C231 0.931 . S
Co237 N234 2.135 . S
Co237 N240 2.121 . S
Co237 O245 2.055 . S
Co237 O248 2.039 . S
Co237 N251 2.140 . S
C238 O239 1.227 . S
C238 O248 1.265 . S
O239 C238 1.227 . S
N240 Co237 2.121 . S
N240 C242 1.375 . S
N240 C243 1.313 . S
C241 C242 1.338 . S
C241 N244 1.377 . S
C241 H261 0.930 . S
C242 N240 1.375 . S
C242 C241 1.338 . S
C242 H246 0.931 . S
C243 N240 1.313 . S
C243 N244 1.344 . S
C243 H247 0.930 . S
N244 C241 1.377 . S
N244 C243 1.344 . S
O245 Co237 2.055 . S
O245 C249 1.253 . S
H246 C242 0.931 . S
H247 C243 0.930 . S
O248 Co237 2.039 . S
O248 C238 1.265 . S
C249 O245 1.253 . S
C249 O250 1.227 . S
O250 C249 1.227 . S
N251 Co237 2.140 . S
N251 C254 1.346 . S
N251 C255 1.345 . S
C252 C253 1.387 1_545 S
C252 C256 1.391 1_655 S
C253 C252 1.387 1_565 S
C253 C254 1.369 1_655 S
C253 H262 0.929 . S
C254 N251 1.346 . S
C254 C253 1.369 1_455 S
C254 H257 0.928 . S
C255 N251 1.345 . S
C255 C256 1.371 1_565 S
C255 H258 0.931 . S
C256 C252 1.391 1_455 S
C256 C255 1.371 1_545 S
C256 H263 0.930 . S
H257 C254 0.928 . S
H258 C255 0.931 . S
H259 C235 0.930 . S
H260 C232 0.930 . S
H261 C241 0.930 . S
H262 C253 0.929 . S
H263 C256 0.930 . S
C264 C265 1.351 . S
C264 N267 1.368 . S
C264 H269 0.931 . S
C265 C264 1.351 . S
C265 N266 1.373 . S
C265 H293 0.930 . S
N266 C265 1.373 . S
N266 C268 1.340 . S
N267 C264 1.368 . S
N267 C268 1.321 . S
N267 Co270 2.135 . S
C268 N266 1.340 . S
C268 N267 1.321 . S
C268 H292 0.930 . S
H269 C264 0.931 . S
Co270 N267 2.135 . S
Co270 N273 2.121 . S
Co270 O278 2.055 . S
Co270 O281 2.039 . S
Co270 N284 2.140 . S
C271 O272 1.227 . S
C271 O281 1.265 . S
O272 C271 1.227 . S
N273 Co270 2.121 . S
N273 C275 1.375 . S
N273 C276 1.313 . S
C274 C275 1.338 . S
C274 N277 1.377 . S
C274 H294 0.930 . S
C275 N273 1.375 . S
C275 C274 1.338 . S
C275 H279 0.931 . S
C276 N273 1.313 . S
C276 N277 1.344 . S
C276 H280 0.930 . S
N277 C274 1.377 . S
N277 C276 1.344 . S
O278 Co270 2.055 . S
O278 C282 1.253 1_565 S
H279 C275 0.931 . S
H280 C276 0.930 . S
O281 Co270 2.039 . S
O281 C271 1.265 . S
C282 O278 1.253 1_545 S
C282 O283 1.227 1_545 S
O283 C282 1.227 1_565 S
N284 Co270 2.140 . S
N284 C287 1.346 . S
N284 C288 1.345 . S
C285 C286 1.387 . S
C285 C289 1.391 . S
C286 C285 1.387 . S
C286 C287 1.369 . S
C286 H295 0.929 . S
C287 N284 1.346 . S
C287 C286 1.369 . S
C287 H290 0.928 . S
C288 N284 1.345 . S
C288 C289 1.371 . S
C288 H291 0.931 . S
C289 C285 1.391 . S
C289 C288 1.371 . S
C289 H296 0.930 . S
H290 C287 0.928 . S
H291 C288 0.931 . S
H292 C268 0.930 . S
H293 C265 0.930 . S
H294 C274 0.930 . S
H295 C286 0.929 . S
H296 C289 0.930 . S
C297 C298 1.351 . S
C297 N300 1.368 . S
C297 H302 0.931 . S
C298 C297 1.351 . S
C298 N299 1.373 . S
C298 H326 0.930 . S
N299 C298 1.373 . S
N299 C301 1.340 . S
N300 C297 1.368 . S
N300 C301 1.321 . S
N300 Co303 2.135 . S
C301 N299 1.340 . S
C301 N300 1.321 . S
C301 H325 0.930 . S
H302 C297 0.931 . S
Co303 N300 2.135 . S
Co303 N306 2.121 . S
Co303 O311 2.055 . S
Co303 O314 2.039 . S
Co303 N317 2.140 . S
C304 O305 1.227 . S
C304 O314 1.265 . S
O305 C304 1.227 . S
N306 Co303 2.121 . S
N306 C308 1.375 . S
N306 C309 1.313 . S
C307 C308 1.338 . S
C307 N310 1.377 . S
C307 H327 0.930 . S
C308 N306 1.375 . S
C308 C307 1.338 . S
C308 H312 0.931 . S
C309 N306 1.313 . S
C309 N310 1.344 . S
C309 H313 0.930 . S
N310 C307 1.377 . S
N310 C309 1.344 . S
O311 Co303 2.055 . S
O311 C315 1.253 . S
H312 C308 0.931 . S
H313 C309 0.930 . S
O314 Co303 2.039 . S
O314 C304 1.265 . S
C315 O311 1.253 . S
C315 O316 1.227 . S
O316 C315 1.227 . S
N317 Co303 2.140 . S
N317 C320 1.346 . S
N317 C321 1.345 . S
C318 C319 1.387 1_545 S
C318 C322 1.391 1_455 S
C319 C318 1.387 1_565 S
C319 C320 1.369 1_455 S
C319 H328 0.929 . S
C320 N317 1.346 . S
C320 C319 1.369 1_655 S
C320 H323 0.928 . S
C321 N317 1.345 . S
C321 C322 1.371 1_565 S
C321 H324 0.931 . S
C322 C318 1.391 1_655 S
C322 C321 1.371 1_545 S
C322 H329 0.930 . S
H323 C320 0.928 . S
H324 C321 0.931 . S
H325 C301 0.930 . S
H326 C298 0.930 . S
H327 C307 0.930 . S
H328 C319 0.929 . S
H329 C322 0.930 . S
C330 C331 1.351 . S
C330 N333 1.368 . S
C330 H335 0.931 . S
C331 C330 1.351 . S
C331 N332 1.373 . S
C331 H359 0.930 . S
N332 C331 1.373 . S
N332 C334 1.340 . S
N333 C330 1.368 . S
N333 C334 1.321 . S
N333 Co336 2.135 . S
C334 N332 1.340 . S
C334 N333 1.321 . S
C334 H358 0.930 . S
H335 C330 0.931 . S
Co336 N333 2.135 . S
Co336 N339 2.121 . S
Co336 O344 2.055 . S
Co336 O347 2.039 . S
Co336 N350 2.140 . S
C337 O338 1.227 . S
C337 O347 1.265 . S
O338 C337 1.227 . S
N339 Co336 2.121 . S
N339 C341 1.375 . S
N339 C342 1.313 . S
C340 C341 1.338 . S
C340 N343 1.377 . S
C340 H360 0.930 . S
C341 N339 1.375 . S
C341 C340 1.338 . S
C341 H345 0.931 . S
C342 N339 1.313 . S
C342 N343 1.344 . S
C342 H346 0.930 . S
N343 C340 1.377 . S
N343 C342 1.344 . S
O344 Co336 2.055 . S
O344 C348 1.253 1_545 S
H345 C341 0.931 . S
H346 C342 0.930 . S
O347 Co336 2.039 . S
O347 C337 1.265 . S
C348 O344 1.253 1_565 S
C348 O349 1.227 1_565 S
O349 C348 1.227 1_545 S
N350 Co336 2.140 . S
N350 C353 1.346 . S
N350 C354 1.345 . S
C351 C352 1.387 . S
C351 C355 1.391 . S
C352 C351 1.387 . S
C352 C353 1.369 . S
C352 H361 0.929 . S
C353 N350 1.346 . S
C353 C352 1.369 . S
C353 H356 0.928 . S
C354 N350 1.345 . S
C354 C355 1.371 . S
C354 H357 0.931 . S
C355 C351 1.391 . S
C355 C354 1.371 . S
C355 H362 0.930 . S
H356 C353 0.928 . S
H357 C354 0.931 . S
H358 C334 0.930 . S
H359 C331 0.930 . S
H360 C340 0.930 . S
H361 C352 0.929 . S
H362 C355 0.930 . S
C363 C364 1.351 . S
C363 N366 1.368 . S
C363 H368 0.931 . S
C364 C363 1.351 . S
C364 N365 1.373 . S
C364 H392 0.930 . S
N365 C364 1.373 . S
N365 C367 1.340 . S
N366 C363 1.368 . S
N366 C367 1.321 . S
N366 Co369 2.135 . S
C367 N365 1.340 . S
C367 N366 1.321 . S
C367 H391 0.930 . S
H368 C363 0.931 . S
Co369 N366 2.135 . S
Co369 N372 2.121 . S
Co369 O377 2.055 . S
Co369 O380 2.039 . S
Co369 N383 2.140 . S
C370 O371 1.227 . S
C370 O380 1.265 . S
O371 C370 1.227 . S
N372 Co369 2.121 . S
N372 C374 1.375 . S
N372 C375 1.313 . S
C373 C374 1.338 . S
C373 N376 1.377 . S
C373 H393 0.930 . S
C374 N372 1.375 . S
C374 C373 1.338 . S
C374 H378 0.931 . S
C375 N372 1.313 . S
C375 N376 1.344 . S
C375 H379 0.930 . S
N376 C373 1.377 . S
N376 C375 1.344 . S
O377 Co369 2.055 . S
O377 C381 1.253 . S
H378 C374 0.931 . S
H379 C375 0.930 . S
O380 Co369 2.039 . S
O380 C370 1.265 . S
C381 O377 1.253 . S
C381 O382 1.227 . S
O382 C381 1.227 . S
N383 Co369 2.140 . S
N383 C386 1.346 . S
N383 C387 1.345 . S
C384 C385 1.387 1_565 S
C384 C388 1.391 . S
C385 C384 1.387 1_545 S
C385 C386 1.369 . S
C385 H394 0.929 . S
C386 N383 1.346 . S
C386 C385 1.369 . S
C386 H389 0.928 . S
C387 N383 1.345 . S
C387 C388 1.371 1_545 S
C387 H390 0.931 . S
C388 C384 1.391 . S
C388 C387 1.371 1_565 S
C388 H395 0.930 . S
H389 C386 0.928 . S
H390 C387 0.931 . S
H391 C367 0.930 . S
H392 C364 0.930 . S
H393 C373 0.930 . S
H394 C385 0.929 . S
H395 C388 0.930 . S
C396 C397 1.351 . S
C396 N399 1.368 . S
C396 H401 0.931 . S
C397 C396 1.351 . S
C397 N398 1.373 . S
C397 H425 0.930 . S
N398 C397 1.373 . S
N398 C400 1.340 . S
N399 C396 1.368 . S
N399 C400 1.321 . S
N399 Co402 2.135 . S
C400 N398 1.340 . S
C400 N399 1.321 . S
C400 H424 0.930 . S
H401 C396 0.931 . S
Co402 N399 2.135 . S
Co402 N405 2.121 . S
Co402 O410 2.055 . S
Co402 O413 2.039 . S
Co402 N416 2.140 . S
C403 O404 1.227 . S
C403 O413 1.265 . S
O404 C403 1.227 . S
N405 Co402 2.121 . S
N405 C407 1.375 . S
N405 C408 1.313 . S
C406 C407 1.338 . S
C406 N409 1.377 . S
C406 H426 0.930 . S
C407 N405 1.375 . S
C407 C406 1.338 . S
C407 H411 0.931 . S
C408 N405 1.313 . S
C408 N409 1.344 . S
C408 H412 0.930 . S
N409 C406 1.377 . S
N409 C408 1.344 . S
O410 Co402 2.055 . S
O410 C414 1.253 1_545 S
H411 C407 0.931 . S
H412 C408 0.930 . S
O413 Co402 2.039 . S
O413 C403 1.265 . S
C414 O410 1.253 1_565 S
C414 O415 1.227 1_565 S
O415 C414 1.227 1_545 S
N416 Co402 2.140 . S
N416 C419 1.346 . S
N416 C420 1.345 . S
C417 C418 1.387 . S
C417 C421 1.391 . S
C418 C417 1.387 . S
C418 C419 1.369 . S
C418 H427 0.929 . S
C419 N416 1.346 . S
C419 C418 1.369 . S
C419 H422 0.928 . S
C420 N416 1.345 . S
C420 C421 1.371 . S
C420 H423 0.931 . S
C421 C417 1.391 . S
C421 C420 1.371 . S
C421 H428 0.930 . S
H422 C419 0.928 . S
H423 C420 0.931 . S
H424 C400 0.930 . S
H425 C397 0.930 . S
H426 C406 0.930 . S
H427 C418 0.929 . S
H428 C421 0.930 . S
C429 C430 1.351 . S
C429 N432 1.368 . S
C429 H434 0.931 . S
C430 C429 1.351 . S
C430 N431 1.373 . S
C430 H458 0.930 . S
N431 C430 1.373 . S
N431 C433 1.340 . S
N432 C429 1.368 . S
N432 C433 1.321 . S
N432 Co435 2.135 . S
C433 N431 1.340 . S
C433 N432 1.321 . S
C433 H457 0.930 . S
H434 C429 0.931 . S
Co435 N432 2.135 . S
Co435 N438 2.121 . S
Co435 O443 2.055 . S
Co435 O446 2.039 . S
Co435 N449 2.140 . S
C436 O437 1.227 . S
C436 O446 1.265 . S
O437 C436 1.227 . S
N438 Co435 2.121 . S
N438 C440 1.375 . S
N438 C441 1.313 . S
C439 C440 1.338 . S
C439 N442 1.377 . S
C439 H459 0.930 . S
C440 N438 1.375 . S
C440 C439 1.338 . S
C440 H444 0.931 . S
C441 N438 1.313 . S
C441 N442 1.344 . S
C441 H445 0.930 . S
N442 C439 1.377 . S
N442 C441 1.344 . S
O443 Co435 2.055 . S
O443 C447 1.253 . S
H444 C440 0.931 . S
H445 C441 0.930 . S
O446 Co435 2.039 . S
O446 C436 1.265 . S
C447 O443 1.253 . S
C447 O448 1.227 . S
O448 C447 1.227 . S
N449 Co435 2.140 . S
N449 C452 1.346 . S
N449 C453 1.345 . S
C450 C451 1.387 1_545 S
C450 C454 1.391 . S
C451 C450 1.387 1_565 S
C451 C452 1.369 . S
C451 H460 0.929 . S
C452 N449 1.346 . S
C452 C451 1.369 . S
C452 H455 0.928 . S
C453 N449 1.345 . S
C453 C454 1.371 1_565 S
C453 H456 0.931 . S
C454 C450 1.391 . S
C454 C453 1.371 1_545 S
C454 H461 0.930 . S
H455 C452 0.928 . S
H456 C453 0.931 . S
H457 C433 0.930 . S
H458 C430 0.930 . S
H459 C439 0.930 . S
H460 C451 0.929 . S
H461 C454 0.930 . S
C462 C463 1.351 . S
C462 N465 1.368 . S
C462 H467 0.931 . S
C463 C462 1.351 . S
C463 N464 1.373 . S
C463 H491 0.930 . S
N464 C463 1.373 . S
N464 C466 1.340 . S
N465 C462 1.368 . S
N465 C466 1.321 . S
N465 Co468 2.135 . S
C466 N464 1.340 . S
C466 N465 1.321 . S
C466 H490 0.930 . S
H467 C462 0.931 . S
Co468 N465 2.135 . S
Co468 N471 2.121 . S
Co468 O476 2.055 . S
Co468 O479 2.039 . S
Co468 N482 2.140 . S
C469 O470 1.227 . S
C469 O479 1.265 . S
O470 C469 1.227 . S
N471 Co468 2.121 . S
N471 C473 1.375 . S
N471 C474 1.313 . S
C472 C473 1.338 . S
C472 N475 1.377 . S
C472 H492 0.930 . S
C473 N471 1.375 . S
C473 C472 1.338 . S
C473 H477 0.931 . S
C474 N471 1.313 . S
C474 N475 1.344 . S
C474 H478 0.930 . S
N475 C472 1.377 . S
N475 C474 1.344 . S
O476 Co468 2.055 . S
O476 C480 1.253 1_565 S
H477 C473 0.931 . S
H478 C474 0.930 . S
O479 Co468 2.039 . S
O479 C469 1.265 . S
C480 O476 1.253 1_545 S
C480 O481 1.227 1_545 S
O481 C480 1.227 1_565 S
N482 Co468 2.140 . S
N482 C485 1.346 . S
N482 C486 1.345 . S
C483 C484 1.387 . S
C483 C487 1.391 . S
C484 C483 1.387 . S
C484 C485 1.369 . S
C484 H493 0.929 . S
C485 N482 1.346 . S
C485 C484 1.369 . S
C485 H488 0.928 . S
C486 N482 1.345 . S
C486 C487 1.371 . S
C486 H489 0.931 . S
C487 C483 1.391 . S
C487 C486 1.371 . S
C487 H494 0.930 . S
H488 C485 0.928 . S
H489 C486 0.931 . S
H490 C466 0.930 . S
H491 C463 0.930 . S
H492 C472 0.930 . S
H493 C484 0.929 . S
H494 C487 0.930 . S
C495 C496 1.351 . S
C495 N498 1.368 . S
C495 H500 0.931 . S
C496 C495 1.351 . S
C496 N497 1.373 . S
C496 H524 0.930 . S
N497 C496 1.373 . S
N497 C499 1.340 . S
N498 C495 1.368 . S
N498 C499 1.321 . S
N498 Co501 2.135 . S
C499 N497 1.340 . S
C499 N498 1.321 . S
C499 H523 0.930 . S
H500 C495 0.931 . S
Co501 N498 2.135 . S
Co501 N504 2.121 . S
Co501 O509 2.055 . S
Co501 O512 2.039 . S
Co501 N515 2.140 . S
C502 O503 1.227 . S
C502 O512 1.265 . S
O503 C502 1.227 . S
N504 Co501 2.121 . S
N504 C506 1.375 . S
N504 C507 1.313 . S
C505 C506 1.338 . S
C505 N508 1.377 . S
C505 H525 0.930 . S
C506 N504 1.375 . S
C506 C505 1.338 . S
C506 H510 0.931 . S
C507 N504 1.313 . S
C507 N508 1.344 . S
C507 H511 0.930 . S
N508 C505 1.377 . S
N508 C507 1.344 . S
O509 Co501 2.055 . S
O509 C513 1.253 . S
H510 C506 0.931 . S
H511 C507 0.930 . S
O512 Co501 2.039 . S
O512 C502 1.265 . S
C513 O509 1.253 . S
C513 O514 1.227 . S
O514 C513 1.227 . S
N515 Co501 2.140 . S
N515 C518 1.346 . S
N515 C519 1.345 . S
C516 C517 1.387 1_565 S
C516 C520 1.391 1_455 S
C517 C516 1.387 1_545 S
C517 C518 1.369 1_455 S
C517 H526 0.929 . S
C518 N515 1.346 . S
C518 C517 1.369 1_655 S
C518 H521 0.928 . S
C519 N515 1.345 . S
C519 C520 1.371 1_545 S
C519 H522 0.931 . S
C520 C516 1.391 1_655 S
C520 C519 1.371 1_565 S
C520 H527 0.930 . S
H521 C518 0.928 . S
H522 C519 0.931 . S
H523 C499 0.930 . S
H524 C496 0.930 . S
H525 C505 0.930 . S
H526 C517 0.929 . S
H527 C520 0.930 . S
C528 C529 1.351 . S
C528 N531 1.368 . S
C528 H533 0.931 . S
C529 C528 1.351 . S
C529 N530 1.373 . S
C529 H557 0.930 . S
N530 C529 1.373 . S
N530 C532 1.340 . S
N531 C528 1.368 . S
N531 C532 1.321 . S
N531 Co534 2.135 . S
C532 N530 1.340 . S
C532 N531 1.321 . S
C532 H556 0.930 . S
H533 C528 0.931 . S
Co534 N531 2.135 . S
Co534 N537 2.121 . S
Co534 O542 2.055 . S
Co534 O545 2.039 . S
Co534 N548 2.140 . S
C535 O536 1.227 . S
C535 O545 1.265 . S
O536 C535 1.227 . S
N537 Co534 2.121 . S
N537 C539 1.375 . S
N537 C540 1.313 . S
C538 C539 1.338 . S
C538 N541 1.377 . S
C538 H558 0.930 . S
C539 N537 1.375 . S
C539 C538 1.338 . S
C539 H543 0.931 . S
C540 N537 1.313 . S
C540 N541 1.344 . S
C540 H544 0.930 . S
N541 C538 1.377 . S
N541 C540 1.344 . S
O542 Co534 2.055 . S
O542 C546 1.253 . S
H543 C539 0.931 . S
H544 C540 0.930 . S
O545 Co534 2.039 . S
O545 C535 1.265 . S
C546 O542 1.253 . S
C546 O547 1.227 . S
O547 C546 1.227 . S
N548 Co534 2.140 . S
N548 C551 1.346 . S
N548 C552 1.345 . S
C549 C550 1.387 . S
C549 C553 1.391 . S
C550 C549 1.387 . S
C550 C551 1.369 . S
C550 H559 0.929 . S
C551 N548 1.346 . S
C551 C550 1.369 . S
C551 H554 0.928 . S
C552 N548 1.345 . S
C552 C553 1.371 . S
C552 H555 0.931 . S
C553 C549 1.391 . S
C553 C552 1.371 . S
C553 H560 0.930 . S
H554 C551 0.928 . S
H555 C552 0.931 . S
H556 C532 0.930 . S
H557 C529 0.930 . S
H558 C538 0.930 . S
H559 C550 0.929 . S
H560 C553 0.930 . S
C561 C562 1.351 . S
C561 N564 1.368 . S
C561 H566 0.931 . S
C562 C561 1.351 . S
C562 N563 1.373 . S
C562 H590 0.930 . S
N563 C562 1.373 . S
N563 C565 1.340 . S
N564 C561 1.368 . S
N564 C565 1.321 . S
N564 Co567 2.135 . S
C565 N563 1.340 . S
C565 N564 1.321 . S
C565 H589 0.930 . S
H566 C561 0.931 . S
Co567 N564 2.135 . S
Co567 N570 2.121 . S
Co567 O575 2.055 . S
Co567 O578 2.039 . S
Co567 N581 2.140 . S
C568 O569 1.227 . S
C568 O578 1.265 . S
O569 C568 1.227 . S
N570 Co567 2.121 . S
N570 C572 1.375 . S
N570 C573 1.313 . S
C571 C572 1.338 . S
C571 N574 1.377 . S
C571 H591 0.930 . S
C572 N570 1.375 . S
C572 C571 1.338 . S
C572 H576 0.931 . S
C573 N570 1.313 . S
C573 N574 1.344 . S
C573 H577 0.930 . S
N574 C571 1.377 . S
N574 C573 1.344 . S
O575 Co567 2.055 . S
O575 C579 1.253 . S
H576 C572 0.931 . S
H577 C573 0.930 . S
O578 Co567 2.039 . S
O578 C568 1.265 . S
C579 O575 1.253 . S
C579 O580 1.227 . S
O580 C579 1.227 . S
N581 Co567 2.140 . S
N581 C584 1.346 . S
N581 C585 1.345 . S
C582 C583 1.387 . S
C582 C586 1.391 . S
C583 C582 1.387 . S
C583 C584 1.369 . S
C583 H592 0.929 . S
C584 N581 1.346 . S
C584 C583 1.369 . S
C584 H587 0.928 . S
C585 N581 1.345 . S
C585 C586 1.371 . S
C585 H588 0.931 . S
C586 C582 1.391 . S
C586 C585 1.371 . S
C586 H593 0.930 . S
H587 C584 0.928 . S
H588 C585 0.931 . S
H589 C565 0.930 . S
H590 C562 0.930 . S
H591 C571 0.930 . S
H592 C583 0.929 . S
H593 C586 0.930 . S
C594 C595 1.351 . S
C594 N597 1.368 . S
C594 H599 0.931 . S
C595 C594 1.351 . S
C595 N596 1.373 . S
C595 H623 0.930 . S
N596 C595 1.373 . S
N596 C598 1.340 . S
N597 C594 1.368 . S
N597 C598 1.321 . S
N597 Co600 2.135 . S
C598 N596 1.340 . S
C598 N597 1.321 . S
C598 H622 0.930 . S
H599 C594 0.931 . S
Co600 N597 2.135 . S
Co600 N603 2.121 . S
Co600 O608 2.055 . S
Co600 O611 2.039 . S
Co600 N614 2.140 . S
C601 O602 1.227 . S
C601 O611 1.265 . S
O602 C601 1.227 . S
N603 Co600 2.121 . S
N603 C605 1.375 . S
N603 C606 1.313 . S
C604 C605 1.338 . S
C604 N607 1.377 . S
C604 H624 0.930 . S
C605 N603 1.375 . S
C605 C604 1.338 . S
C605 H609 0.931 . S
C606 N603 1.313 . S
C606 N607 1.344 . S
C606 H610 0.930 . S
N607 C604 1.377 . S
N607 C606 1.344 . S
O608 Co600 2.055 . S
O608 C612 1.253 . S
H609 C605 0.931 . S
H610 C606 0.930 . S
O611 Co600 2.039 . S
O611 C601 1.265 . S
C612 O608 1.253 . S
C612 O613 1.227 . S
O613 C612 1.227 . S
N614 Co600 2.140 . S
N614 C617 1.346 . S
N614 C618 1.345 . S
C615 C616 1.387 . S
C615 C619 1.391 . S
C616 C615 1.387 . S
C616 C617 1.369 . S
C616 H625 0.929 . S
C617 N614 1.346 . S
C617 C616 1.369 . S
C617 H620 0.928 . S
C618 N614 1.345 . S
C618 C619 1.371 . S
C618 H621 0.931 . S
C619 C615 1.391 . S
C619 C618 1.371 . S
C619 H626 0.930 . S
H620 C617 0.928 . S
H621 C618 0.931 . S
H622 C598 0.930 . S
H623 C595 0.930 . S
H624 C604 0.930 . S
H625 C616 0.929 . S
H626 C619 0.930 . S
C627 C628 1.351 . S
C627 N630 1.368 . S
C627 H632 0.931 . S
C628 C627 1.351 . S
C628 N629 1.373 . S
C628 H656 0.930 . S
N629 C628 1.373 . S
N629 C631 1.340 . S
N630 C627 1.368 . S
N630 C631 1.321 . S
N630 Co633 2.135 . S
C631 N629 1.340 . S
C631 N630 1.321 . S
C631 H655 0.930 . S
H632 C627 0.931 . S
Co633 N630 2.135 . S
Co633 N636 2.121 . S
Co633 O641 2.055 . S
Co633 O644 2.039 . S
Co633 N647 2.140 . S
C634 O635 1.227 . S
C634 O644 1.265 . S
O635 C634 1.227 . S
N636 Co633 2.121 . S
N636 C638 1.375 . S
N636 C639 1.313 . S
C637 C638 1.338 . S
C637 N640 1.377 . S
C637 H657 0.930 . S
C638 N636 1.375 . S
C638 C637 1.338 . S
C638 H642 0.931 . S
C639 N636 1.313 . S
C639 N640 1.344 . S
C639 H643 0.930 . S
N640 C637 1.377 . S
N640 C639 1.344 . S
O641 Co633 2.055 . S
O641 C645 1.253 . S
H642 C638 0.931 . S
H643 C639 0.930 . S
O644 Co633 2.039 . S
O644 C634 1.265 . S
C645 O641 1.253 . S
C645 O646 1.227 . S
O646 C645 1.227 . S
N647 Co633 2.140 . S
N647 C650 1.346 . S
N647 C651 1.345 . S
C648 C649 1.387 . S
C648 C652 1.391 1_455 S
C649 C648 1.387 . S
C649 C650 1.369 1_455 S
C649 H658 0.929 . S
C650 N647 1.346 . S
C650 C649 1.369 1_655 S
C650 H653 0.928 . S
C651 N647 1.345 . S
C651 C652 1.371 . S
C651 H654 0.931 . S
C652 C648 1.391 1_655 S
C652 C651 1.371 . S
C652 H659 0.930 . S
H653 C650 0.928 . S
H654 C651 0.931 . S
H655 C631 0.930 . S
H656 C628 0.930 . S
H657 C637 0.930 . S
H658 C649 0.929 . S
H659 C652 0.930 . S
C660 C661 1.351 . S
C660 N663 1.368 . S
C660 H665 0.931 . S
C661 C660 1.351 . S
C661 N662 1.373 . S
C661 H689 0.930 . S
N662 C661 1.373 . S
N662 C664 1.340 . S
N663 C660 1.368 . S
N663 C664 1.321 . S
N663 Co666 2.135 . S
C664 N662 1.340 . S
C664 N663 1.321 . S
C664 H688 0.930 . S
H665 C660 0.931 . S
Co666 N663 2.135 . S
Co666 N669 2.121 . S
Co666 O674 2.055 . S
Co666 O677 2.039 . S
Co666 N680 2.140 . S
C667 O668 1.227 . S
C667 O677 1.265 . S
O668 C667 1.227 . S
N669 Co666 2.121 . S
N669 C671 1.375 . S
N669 C672 1.313 . S
C670 C671 1.338 . S
C670 N673 1.377 . S
C670 H690 0.930 . S
C671 N669 1.375 . S
C671 C670 1.338 . S
C671 H675 0.931 . S
C672 N669 1.313 . S
C672 N673 1.344 . S
C672 H676 0.930 . S
N673 C670 1.377 . S
N673 C672 1.344 . S
O674 Co666 2.055 . S
O674 C678 1.253 . S
H675 C671 0.931 . S
H676 C672 0.930 . S
O677 Co666 2.039 . S
O677 C667 1.265 . S
C678 O674 1.253 . S
C678 O679 1.227 . S
O679 C678 1.227 . S
N680 Co666 2.140 . S
N680 C683 1.346 . S
N680 C684 1.345 . S
C681 C682 1.387 . S
C681 C685 1.391 . S
C682 C681 1.387 . S
C682 C683 1.369 . S
C682 H691 0.929 . S
C683 N680 1.346 . S
C683 C682 1.369 . S
C683 H686 0.928 . S
C684 N680 1.345 . S
C684 C685 1.371 . S
C684 H687 0.931 . S
C685 C681 1.391 . S
C685 C684 1.371 . S
C685 H692 0.930 . S
H686 C683 0.928 . S
H687 C684 0.931 . S
H688 C664 0.930 . S
H689 C661 0.930 . S
H690 C670 0.930 . S
H691 C682 0.929 . S
H692 C685 0.930 . S
C693 C694 1.351 . S
C693 N696 1.368 . S
C693 H698 0.931 . S
C694 C693 1.351 . S
C694 N695 1.373 . S
C694 H722 0.930 . S
N695 C694 1.373 . S
N695 C697 1.340 . S
N696 C693 1.368 . S
N696 C697 1.321 . S
N696 Co699 2.135 . S
C697 N695 1.340 . S
C697 N696 1.321 . S
C697 H721 0.930 . S
H698 C693 0.931 . S
Co699 N696 2.135 . S
Co699 N702 2.121 . S
Co699 O707 2.055 . S
Co699 O710 2.039 . S
Co699 N713 2.140 . S
C700 O701 1.227 . S
C700 O710 1.265 . S
O701 C700 1.227 . S
N702 Co699 2.121 . S
N702 C704 1.375 . S
N702 C705 1.313 . S
C703 C704 1.338 . S
C703 N706 1.377 . S
C703 H723 0.930 . S
C704 N702 1.375 . S
C704 C703 1.338 . S
C704 H708 0.931 . S
C705 N702 1.313 . S
C705 N706 1.344 . S
C705 H709 0.930 . S
N706 C703 1.377 . S
N706 C705 1.344 . S
O707 Co699 2.055 . S
O707 C711 1.253 . S
H708 C704 0.931 . S
H709 C705 0.930 . S
O710 Co699 2.039 . S
O710 C700 1.265 . S
C711 O707 1.253 . S
C711 O712 1.227 . S
O712 C711 1.227 . S
N713 Co699 2.140 . S
N713 C716 1.346 . S
N713 C717 1.345 . S
C714 C715 1.387 . S
C714 C718 1.391 1_455 S
C715 C714 1.387 . S
C715 C716 1.369 1_455 S
C715 H724 0.929 . S
C716 N713 1.346 . S
C716 C715 1.369 1_655 S
C716 H719 0.928 . S
C717 N713 1.345 . S
C717 C718 1.371 . S
C717 H720 0.931 . S
C718 C714 1.391 1_655 S
C718 C717 1.371 . S
C718 H725 0.930 . S
H719 C716 0.928 . S
H720 C717 0.931 . S
H721 C697 0.930 . S
H722 C694 0.930 . S
H723 C703 0.930 . S
H724 C715 0.929 . S
H725 C718 0.930 . S
C726 C727 1.351 . S
C726 N729 1.368 . S
C726 H731 0.931 . S
C727 C726 1.351 . S
C727 N728 1.373 . S
C727 H755 0.930 . S
N728 C727 1.373 . S
N728 C730 1.340 . S
N729 C726 1.368 . S
N729 C730 1.321 . S
N729 Co732 2.135 . S
C730 N728 1.340 . S
C730 N729 1.321 . S
C730 H754 0.930 . S
H731 C726 0.931 . S
Co732 N729 2.135 . S
Co732 N735 2.121 . S
Co732 O740 2.055 . S
Co732 O743 2.039 . S
Co732 N746 2.140 . S
C733 O734 1.227 . S
C733 O743 1.265 . S
O734 C733 1.227 . S
N735 Co732 2.121 . S
N735 C737 1.375 . S
N735 C738 1.313 . S
C736 C737 1.338 . S
C736 N739 1.377 . S
C736 H756 0.930 . S
C737 N735 1.375 . S
C737 C736 1.338 . S
C737 H741 0.931 . S
C738 N735 1.313 . S
C738 N739 1.344 . S
C738 H742 0.930 . S
N739 C736 1.377 . S
N739 C738 1.344 . S
O740 Co732 2.055 . S
O740 C744 1.253 . S
H741 C737 0.931 . S
H742 C738 0.930 . S
O743 Co732 2.039 . S
O743 C733 1.265 . S
C744 O740 1.253 . S
C744 O745 1.227 . S
O745 C744 1.227 . S
N746 Co732 2.140 . S
N746 C749 1.346 . S
N746 C750 1.345 . S
C747 C748 1.387 . S
C747 C751 1.391 . S
C748 C747 1.387 . S
C748 C749 1.369 . S
C748 H757 0.929 . S
C749 N746 1.346 . S
C749 C748 1.369 . S
C749 H752 0.928 . S
C750 N746 1.345 . S
C750 C751 1.371 . S
C750 H753 0.931 . S
C751 C747 1.391 . S
C751 C750 1.371 . S
C751 H758 0.930 . S
H752 C749 0.928 . S
H753 C750 0.931 . S
H754 C730 0.930 . S
H755 C727 0.930 . S
H756 C736 0.930 . S
H757 C748 0.929 . S
H758 C751 0.930 . S
C759 C760 1.351 . S
C759 N762 1.368 . S
C759 H764 0.931 . S
C760 C759 1.351 . S
C760 N761 1.373 . S
C760 H788 0.930 . S
N761 C760 1.373 . S
N761 C763 1.340 . S
N762 C759 1.368 . S
N762 C763 1.321 . S
N762 Co765 2.135 . S
C763 N761 1.340 . S
C763 N762 1.321 . S
C763 H787 0.930 . S
H764 C759 0.931 . S
Co765 N762 2.135 . S
Co765 N768 2.121 . S
Co765 O773 2.055 . S
Co765 O776 2.039 . S
Co765 N779 2.140 . S
C766 O767 1.227 . S
C766 O776 1.265 . S
O767 C766 1.227 . S
N768 Co765 2.121 . S
N768 C770 1.375 . S
N768 C771 1.313 . S
C769 C770 1.338 . S
C769 N772 1.377 . S
C769 H789 0.930 . S
C770 N768 1.375 . S
C770 C769 1.338 . S
C770 H774 0.931 . S
C771 N768 1.313 . S
C771 N772 1.344 . S
C771 H775 0.930 . S
N772 C769 1.377 . S
N772 C771 1.344 . S
O773 Co765 2.055 . S
O773 C777 1.253 . S
H774 C770 0.931 . S
H775 C771 0.930 . S
O776 Co765 2.039 . S
O776 C766 1.265 . S
C777 O773 1.253 . S
C777 O778 1.227 . S
O778 C777 1.227 . S
N779 Co765 2.140 . S
N779 C782 1.346 . S
N779 C783 1.345 . S
C780 C781 1.387 . S
C780 C784 1.391 . S
C781 C780 1.387 . S
C781 C782 1.369 . S
C781 H790 0.929 . S
C782 N779 1.346 . S
C782 C781 1.369 . S
C782 H785 0.928 . S
C783 N779 1.345 . S
C783 C784 1.371 . S
C783 H786 0.931 . S
C784 C780 1.391 . S
C784 C783 1.371 . S
C784 H791 0.930 . S
H785 C782 0.928 . S
H786 C783 0.931 . S
H787 C763 0.930 . S
H788 C760 0.930 . S
H789 C769 0.930 . S
H790 C781 0.929 . S
H791 C784 0.930 . S
C792 C793 1.351 . S
C792 N795 1.368 . S
C792 H797 0.931 . S
C793 C792 1.351 . S
C793 N794 1.373 . S
C793 H821 0.930 . S
N794 C793 1.373 . S
N794 C796 1.340 . S
N795 C792 1.368 . S
N795 C796 1.321 . S
N795 Co798 2.135 . S
C796 N794 1.340 . S
C796 N795 1.321 . S
C796 H820 0.930 . S
H797 C792 0.931 . S
Co798 N795 2.135 . S
Co798 N801 2.121 . S
Co798 O806 2.055 . S
Co798 O809 2.039 . S
Co798 N812 2.140 . S
C799 O800 1.227 . S
C799 O809 1.265 . S
O800 C799 1.227 . S
N801 Co798 2.121 . S
N801 C803 1.375 . S
N801 C804 1.313 . S
C802 C803 1.338 . S
C802 N805 1.377 . S
C802 H822 0.930 . S
C803 N801 1.375 . S
C803 C802 1.338 . S
C803 H807 0.931 . S
C804 N801 1.313 . S
C804 N805 1.344 . S
C804 H808 0.930 . S
N805 C802 1.377 . S
N805 C804 1.344 . S
O806 Co798 2.055 . S
O806 C810 1.253 . S
H807 C803 0.931 . S
H808 C804 0.930 . S
O809 Co798 2.039 . S
O809 C799 1.265 . S
C810 O806 1.253 . S
C810 O811 1.227 . S
O811 C810 1.227 . S
N812 Co798 2.140 . S
N812 C815 1.346 . S
N812 C816 1.345 . S
C813 C814 1.387 . S
C813 C817 1.391 . S
C814 C813 1.387 . S
C814 C815 1.369 . S
C814 H823 0.929 . S
C815 N812 1.346 . S
C815 C814 1.369 . S
C815 H818 0.928 . S
C816 N812 1.345 . S
C816 C817 1.371 . S
C816 H819 0.931 . S
C817 C813 1.391 . S
C817 C816 1.371 . S
C817 H824 0.930 . S
H818 C815 0.928 . S
H819 C816 0.931 . S
H820 C796 0.930 . S
H821 C793 0.930 . S
H822 C802 0.930 . S
H823 C814 0.929 . S
H824 C817 0.930 . S
C825 C826 1.351 . S
C825 N828 1.368 . S
C825 H830 0.931 . S
C826 C825 1.351 . S
C826 N827 1.373 . S
C826 H854 0.930 . S
N827 C826 1.373 . S
N827 C829 1.340 . S
N828 C825 1.368 . S
N828 C829 1.321 . S
N828 Co831 2.135 . S
C829 N827 1.340 . S
C829 N828 1.321 . S
C829 H853 0.930 . S
H830 C825 0.931 . S
Co831 N828 2.135 . S
Co831 N834 2.121 . S
Co831 O839 2.055 . S
Co831 O842 2.039 . S
Co831 N845 2.140 . S
C832 O833 1.227 . S
C832 O842 1.265 . S
O833 C832 1.227 . S
N834 Co831 2.121 . S
N834 C836 1.375 . S
N834 C837 1.313 . S
C835 C836 1.338 . S
C835 N838 1.377 . S
C835 H855 0.930 . S
C836 N834 1.375 . S
C836 C835 1.338 . S
C836 H840 0.931 . S
C837 N834 1.313 . S
C837 N838 1.344 . S
C837 H841 0.930 . S
N838 C835 1.377 . S
N838 C837 1.344 . S
O839 Co831 2.055 . S
O839 C843 1.253 . S
H840 C836 0.931 . S
H841 C837 0.930 . S
O842 Co831 2.039 . S
O842 C832 1.265 . S
C843 O839 1.253 . S
C843 O844 1.227 . S
O844 C843 1.227 . S
N845 Co831 2.140 . S
N845 C848 1.346 . S
N845 C849 1.345 . S
C846 C847 1.387 . S
C846 C850 1.391 . S
C847 C846 1.387 . S
C847 C848 1.369 . S
C847 H856 0.929 . S
C848 N845 1.346 . S
C848 C847 1.369 . S
C848 H851 0.928 . S
C849 N845 1.345 . S
C849 C850 1.371 . S
C849 H852 0.931 . S
C850 C846 1.391 . S
C850 C849 1.371 . S
C850 H857 0.930 . S
H851 C848 0.928 . S
H852 C849 0.931 . S
H853 C829 0.930 . S
H854 C826 0.930 . S
H855 C835 0.930 . S
H856 C847 0.929 . S
H857 C850 0.930 . S
C858 C859 1.351 . S
C858 N861 1.368 . S
C858 H863 0.931 . S
C859 C858 1.351 . S
C859 N860 1.373 . S
C859 H887 0.930 . S
N860 C859 1.373 . S
N860 C862 1.340 . S
N861 C858 1.368 . S
N861 C862 1.321 . S
N861 Co864 2.135 . S
C862 N860 1.340 . S
C862 N861 1.321 . S
C862 H886 0.930 . S
H863 C858 0.931 . S
Co864 N861 2.135 . S
Co864 N867 2.121 . S
Co864 O872 2.055 . S
Co864 O875 2.039 . S
Co864 N878 2.140 . S
C865 O866 1.227 . S
C865 O875 1.265 . S
O866 C865 1.227 . S
N867 Co864 2.121 . S
N867 C869 1.375 . S
N867 C870 1.313 . S
C868 C869 1.338 . S
C868 N871 1.377 . S
C868 H888 0.930 . S
C869 N867 1.375 . S
C869 C868 1.338 . S
C869 H873 0.931 . S
C870 N867 1.313 . S
C870 N871 1.344 . S
C870 H874 0.930 . S
N871 C868 1.377 . S
N871 C870 1.344 . S
O872 Co864 2.055 . S
O872 C876 1.253 . S
H873 C869 0.931 . S
H874 C870 0.930 . S
O875 Co864 2.039 . S
O875 C865 1.265 . S
C876 O872 1.253 . S
C876 O877 1.227 . S
O877 C876 1.227 . S
N878 Co864 2.140 . S
N878 C881 1.346 . S
N878 C882 1.345 . S
C879 C880 1.387 . S
C879 C883 1.391 . S
C880 C879 1.387 . S
C880 C881 1.369 . S
C880 H889 0.929 . S
C881 N878 1.346 . S
C881 C880 1.369 . S
C881 H884 0.928 . S
C882 N878 1.345 . S
C882 C883 1.371 . S
C882 H885 0.931 . S
C883 C879 1.391 . S
C883 C882 1.371 . S
C883 H890 0.930 . S
H884 C881 0.928 . S
H885 C882 0.931 . S
H886 C862 0.930 . S
H887 C859 0.930 . S
H888 C868 0.930 . S
H889 C880 0.929 . S
H890 C883 0.930 . S
C891 C892 1.351 . S
C891 N894 1.368 . S
C891 H896 0.931 . S
C892 C891 1.351 . S
C892 N893 1.373 . S
C892 H920 0.930 . S
N893 C892 1.373 . S
N893 C895 1.340 . S
N894 C891 1.368 . S
N894 C895 1.321 . S
N894 Co897 2.135 . S
C895 N893 1.340 . S
C895 N894 1.321 . S
C895 H919 0.930 . S
H896 C891 0.931 . S
Co897 N894 2.135 . S
Co897 N900 2.121 . S
Co897 O905 2.055 . S
Co897 O908 2.039 . S
Co897 N911 2.140 . S
C898 O899 1.227 . S
C898 O908 1.265 . S
O899 C898 1.227 . S
N900 Co897 2.121 . S
N900 C902 1.375 . S
N900 C903 1.313 . S
C901 C902 1.338 . S
C901 N904 1.377 . S
C901 H921 0.930 . S
C902 N900 1.375 . S
C902 C901 1.338 . S
C902 H906 0.931 . S
C903 N900 1.313 . S
C903 N904 1.344 . S
C903 H907 0.930 . S
N904 C901 1.377 . S
N904 C903 1.344 . S
O905 Co897 2.055 . S
O905 C909 1.253 . S
H906 C902 0.931 . S
H907 C903 0.930 . S
O908 Co897 2.039 . S
O908 C898 1.265 . S
C909 O905 1.253 . S
C909 O910 1.227 . S
O910 C909 1.227 . S
N911 Co897 2.140 . S
N911 C914 1.346 . S
N911 C915 1.345 . S
C912 C913 1.387 . S
C912 C916 1.391 1_655 S
C913 C912 1.387 . S
C913 C914 1.369 1_655 S
C913 H922 0.929 . S
C914 N911 1.346 . S
C914 C913 1.369 1_455 S
C914 H917 0.928 . S
C915 N911 1.345 . S
C915 C916 1.371 . S
C915 H918 0.931 . S
C916 C912 1.391 1_455 S
C916 C915 1.371 . S
C916 H923 0.930 . S
H917 C914 0.928 . S
H918 C915 0.931 . S
H919 C895 0.930 . S
H920 C892 0.930 . S
H921 C901 0.930 . S
H922 C913 0.929 . S
H923 C916 0.930 . S
C924 C925 1.351 . S
C924 N927 1.368 . S
C924 H929 0.931 . S
C925 C924 1.351 . S
C925 N926 1.373 . S
C925 H953 0.930 . S
N926 C925 1.373 . S
N926 C928 1.340 . S
N927 C924 1.368 . S
N927 C928 1.321 . S
N927 Co930 2.135 . S
C928 N926 1.340 . S
C928 N927 1.321 . S
C928 H952 0.930 . S
H929 C924 0.931 . S
Co930 N927 2.135 . S
Co930 N933 2.121 . S
Co930 O938 2.055 . S
Co930 O941 2.039 . S
Co930 N944 2.140 . S
C931 O932 1.227 . S
C931 O941 1.265 . S
O932 C931 1.227 . S
N933 Co930 2.121 . S
N933 C935 1.375 . S
N933 C936 1.313 . S
C934 C935 1.338 . S
C934 N937 1.377 . S
C934 H954 0.930 . S
C935 N933 1.375 . S
C935 C934 1.338 . S
C935 H939 0.931 . S
C936 N933 1.313 . S
C936 N937 1.344 . S
C936 H940 0.930 . S
N937 C934 1.377 . S
N937 C936 1.344 . S
O938 Co930 2.055 . S
O938 C942 1.253 . S
H939 C935 0.931 . S
H940 C936 0.930 . S
O941 Co930 2.039 . S
O941 C931 1.265 . S
C942 O938 1.253 . S
C942 O943 1.227 . S
O943 C942 1.227 . S
N944 Co930 2.140 . S
N944 C947 1.346 . S
N944 C948 1.345 . S
C945 C946 1.387 . S
C945 C949 1.391 . S
C946 C945 1.387 . S
C946 C947 1.369 . S
C946 H955 0.929 . S
C947 N944 1.346 . S
C947 C946 1.369 . S
C947 H950 0.928 . S
C948 N944 1.345 . S
C948 C949 1.371 . S
C948 H951 0.931 . S
C949 C945 1.391 . S
C949 C948 1.371 . S
C949 H956 0.930 . S
H950 C947 0.928 . S
H951 C948 0.931 . S
H952 C928 0.930 . S
H953 C925 0.930 . S
H954 C934 0.930 . S
H955 C946 0.929 . S
H956 C949 0.930 . S
C957 C958 1.351 . S
C957 N960 1.368 . S
C957 H962 0.931 . S
C958 C957 1.351 . S
C958 N959 1.373 . S
C958 H986 0.930 . S
N959 C958 1.373 . S
N959 C961 1.340 . S
N960 C957 1.368 . S
N960 C961 1.321 . S
N960 Co963 2.135 . S
C961 N959 1.340 . S
C961 N960 1.321 . S
C961 H985 0.930 . S
H962 C957 0.931 . S
Co963 N960 2.135 . S
Co963 N966 2.121 . S
Co963 O971 2.055 . S
Co963 O974 2.039 . S
Co963 N977 2.140 . S
C964 O965 1.227 . S
C964 O974 1.265 . S
O965 C964 1.227 . S
N966 Co963 2.121 . S
N966 C968 1.375 . S
N966 C969 1.313 . S
C967 C968 1.338 . S
C967 N970 1.377 . S
C967 H987 0.930 . S
C968 N966 1.375 . S
C968 C967 1.338 . S
C968 H972 0.931 . S
C969 N966 1.313 . S
C969 N970 1.344 . S
C969 H973 0.930 . S
N970 C967 1.377 . S
N970 C969 1.344 . S
O971 Co963 2.055 . S
O971 C975 1.253 . S
H972 C968 0.931 . S
H973 C969 0.930 . S
O974 Co963 2.039 . S
O974 C964 1.265 . S
C975 O971 1.253 . S
C975 O976 1.227 . S
O976 C975 1.227 . S
N977 Co963 2.140 . S
N977 C980 1.346 . S
N977 C981 1.345 . S
C978 C979 1.387 . S
C978 C982 1.391 1_655 S
C979 C978 1.387 . S
C979 C980 1.369 1_655 S
C979 H988 0.929 . S
C980 N977 1.346 . S
C980 C979 1.369 1_455 S
C980 H983 0.928 . S
C981 N977 1.345 . S
C981 C982 1.371 . S
C981 H984 0.931 . S
C982 C978 1.391 1_455 S
C982 C981 1.371 . S
C982 H989 0.930 . S
H983 C980 0.928 . S
H984 C981 0.931 . S
H985 C961 0.930 . S
H986 C958 0.930 . S
H987 C967 0.930 . S
H988 C979 0.929 . S
H989 C982 0.930 . S
C990 C991 1.351 . S
C990 N993 1.368 . S
C990 H995 0.931 . S
C991 C990 1.351 . S
C991 N992 1.373 . S
C991 H1019 0.930 . S
N992 C991 1.373 . S
N992 C994 1.340 . S
N993 C990 1.368 . S
N993 C994 1.321 . S
N993 Co996 2.135 . S
C994 N992 1.340 . S
C994 N993 1.321 . S
C994 H1018 0.930 . S
H995 C990 0.931 . S
Co996 N993 2.135 . S
Co996 N999 2.121 . S
Co996 O1004 2.055 . S
Co996 O1007 2.039 . S
Co996 N1010 2.140 . S
C997 O998 1.227 . S
C997 O1007 1.265 . S
O998 C997 1.227 . S
N999 Co996 2.121 . S
N999 C1001 1.375 . S
N999 C1002 1.313 . S
C1000 C1001 1.338 . S
C1000 N1003 1.377 . S
C1000 H1020 0.930 . S
C1001 N999 1.375 . S
C1001 C1000 1.338 . S
C1001 H1005 0.931 . S
C1002 N999 1.313 . S
C1002 N1003 1.344 . S
C1002 H1006 0.930 . S
N1003 C1000 1.377 . S
N1003 C1002 1.344 . S
O1004 Co996 2.055 . S
O1004 C1008 1.253 . S
H1005 C1001 0.931 . S
H1006 C1002 0.930 . S
O1007 Co996 2.039 . S
O1007 C997 1.265 . S
C1008 O1004 1.253 . S
C1008 O1009 1.227 . S
O1009 C1008 1.227 . S
N1010 Co996 2.140 . S
N1010 C1013 1.346 . S
N1010 C1014 1.345 . S
C1011 C1012 1.387 . S
C1011 C1015 1.391 . S
C1012 C1011 1.387 . S
C1012 C1013 1.369 . S
C1012 H1021 0.929 . S
C1013 N1010 1.346 . S
C1013 C1012 1.369 . S
C1013 H1016 0.928 . S
C1014 N1010 1.345 . S
C1014 C1015 1.371 . S
C1014 H1017 0.931 . S
C1015 C1011 1.391 . S
C1015 C1014 1.371 . S
C1015 H1022 0.930 . S
H1016 C1013 0.928 . S
H1017 C1014 0.931 . S
H1018 C994 0.930 . S
H1019 C991 0.930 . S
H1020 C1000 0.930 . S
H1021 C1012 0.929 . S
H1022 C1015 0.930 . S
C1023 C1024 1.351 . S
C1023 N1026 1.368 . S
C1023 H1028 0.931 . S
C1024 C1023 1.351 . S
C1024 N1025 1.373 . S
C1024 H1052 0.930 . S
N1025 C1024 1.373 . S
N1025 C1027 1.340 . S
N1026 C1023 1.368 . S
N1026 C1027 1.321 . S
N1026 Co1029 2.135 . S
C1027 N1025 1.340 . S
C1027 N1026 1.321 . S
C1027 H1051 0.930 . S
H1028 C1023 0.931 . S
Co1029 N1026 2.135 . S
Co1029 N1032 2.121 . S
Co1029 O1037 2.055 . S
Co1029 O1040 2.039 . S
Co1029 N1043 2.140 . S
C1030 O1031 1.227 . S
C1030 O1040 1.265 . S
O1031 C1030 1.227 . S
N1032 Co1029 2.121 . S
N1032 C1034 1.375 . S
N1032 C1035 1.313 . S
C1033 C1034 1.338 . S
C1033 N1036 1.377 . S
C1033 H1053 0.930 . S
C1034 N1032 1.375 . S
C1034 C1033 1.338 . S
C1034 H1038 0.931 . S
C1035 N1032 1.313 . S
C1035 N1036 1.344 . S
C1035 H1039 0.930 . S
N1036 C1033 1.377 . S
N1036 C1035 1.344 . S
O1037 Co1029 2.055 . S
O1037 C1041 1.253 . S
H1038 C1034 0.931 . S
H1039 C1035 0.930 . S
O1040 Co1029 2.039 . S
O1040 C1030 1.265 . S
C1041 O1037 1.253 . S
C1041 O1042 1.227 . S
O1042 C1041 1.227 . S
N1043 Co1029 2.140 . S
N1043 C1046 1.346 . S
N1043 C1047 1.345 . S
C1044 C1045 1.387 . S
C1044 C1048 1.391 . S
C1045 C1044 1.387 . S
C1045 C1046 1.369 . S
C1045 H1054 0.929 . S
C1046 N1043 1.346 . S
C1046 C1045 1.369 . S
C1046 H1049 0.928 . S
C1047 N1043 1.345 . S
C1047 C1048 1.371 . S
C1047 H1050 0.931 . S
C1048 C1044 1.391 . S
C1048 C1047 1.371 . S
C1048 H1055 0.930 . S
H1049 C1046 0.928 . S
H1050 C1047 0.931 . S
H1051 C1027 0.930 . S
H1052 C1024 0.930 . S
H1053 C1033 0.930 . S
H1054 C1045 0.929 . S
H1055 C1048 0.930 . S
C1056 C1057 1.369 . S
C1056 C1058 1.419 . S
C1056 H1060 0.930 . S
C1057 C1056 1.369 . S
C1057 C1066 1.429 . S
C1058 C1056 1.419 . S
C1058 C1059 1.363 . S
C1058 H1061 0.929 . S
C1059 C1058 1.363 . S
C1059 C1065 1.428 . S
H1060 C1056 0.930 . S
H1061 C1058 0.929 . S
S1062 N1063 1.613 . S
S1062 N1064 1.610 . S
N1063 S1062 1.613 . S
N1063 C1066 1.350 . S
N1064 S1062 1.610 . S
N1064 C1065 1.351 . S
C1065 C1059 1.428 . S
C1065 N1064 1.351 . S
C1065 C1066 1.434 . S
C1066 C1057 1.429 . S
C1066 N1063 1.350 . S
C1066 C1065 1.434 . S
C1067 C1068 1.369 . S
C1067 C1069 1.419 . S
C1067 H1071 0.930 . S
C1068 C1067 1.369 . S
C1068 C1077 1.429 . S
C1069 C1067 1.419 . S
C1069 C1070 1.363 . S
C1069 H1072 0.929 . S
C1070 C1069 1.363 . S
C1070 C1076 1.428 . S
H1071 C1067 0.930 . S
H1072 C1069 0.929 . S
S1073 N1074 1.613 . S
S1073 N1075 1.610 . S
N1074 S1073 1.613 . S
N1074 C1077 1.350 . S
N1075 S1073 1.610 . S
N1075 C1076 1.351 . S
C1076 C1070 1.428 . S
C1076 N1075 1.351 . S
C1076 C1077 1.434 . S
C1077 C1068 1.429 . S
C1077 N1074 1.350 . S
C1077 C1076 1.434 . S
C1078 C1079 1.369 . S
C1078 C1080 1.419 . S
C1078 H1082 0.930 . S
C1079 C1078 1.369 . S
C1079 C1088 1.429 . S
C1080 C1078 1.419 . S
C1080 C1081 1.363 . S
C1080 H1083 0.929 . S
C1081 C1080 1.363 . S
C1081 C1087 1.428 . S
H1082 C1078 0.930 . S
H1083 C1080 0.929 . S
S1084 N1085 1.613 . S
S1084 N1086 1.610 . S
N1085 S1084 1.613 . S
N1085 C1088 1.350 . S
N1086 S1084 1.610 . S
N1086 C1087 1.351 . S
C1087 C1081 1.428 . S
C1087 N1086 1.351 . S
C1087 C1088 1.434 . S
C1088 C1079 1.429 . S
C1088 N1085 1.350 . S
C1088 C1087 1.434 . S
C1089 C1090 1.370 1_545 S
C1089 C1091 1.418 . S
C1089 H1093 0.929 . S
C1090 C1089 1.370 1_565 S
C1090 C1099 1.429 . S
C1091 C1089 1.418 . S
C1091 C1092 1.363 1_545 S
C1091 H1094 0.929 . S
C1092 C1091 1.363 1_565 S
C1092 C1098 1.428 . S
H1093 C1089 0.929 . S
H1094 C1091 0.929 . S
S1095 N1096 1.613 . S
S1095 N1097 1.610 . S
N1096 S1095 1.613 . S
N1096 C1099 1.350 . S
N1097 S1095 1.610 . S
N1097 C1098 1.351 . S
C1098 C1092 1.428 . S
C1098 N1097 1.351 . S
C1098 C1099 1.434 . S
C1099 C1090 1.429 . S
C1099 N1096 1.350 . S
C1099 C1098 1.434 . S
C1100 C1101 1.369 . S
C1100 C1102 1.419 . S
C1100 H1104 0.930 . S
C1101 C1100 1.369 . S
C1101 C1110 1.429 . S
C1102 C1100 1.419 . S
C1102 C1103 1.363 . S
C1102 H1105 0.929 . S
C1103 C1102 1.363 . S
C1103 C1109 1.428 . S
H1104 C1100 0.930 . S
H1105 C1102 0.929 . S
S1106 N1107 1.613 . S
S1106 N1108 1.610 . S
N1107 S1106 1.613 . S
N1107 C1110 1.350 . S
N1108 S1106 1.610 . S
N1108 C1109 1.351 . S
C1109 C1103 1.428 . S
C1109 N1108 1.351 . S
C1109 C1110 1.434 . S
C1110 C1101 1.429 . S
C1110 N1107 1.350 . S
C1110 C1109 1.434 . S
C1111 C1112 1.369 . S
C1111 C1113 1.419 . S
C1111 H1115 0.930 . S
C1112 C1111 1.369 . S
C1112 C1121 1.429 . S
C1113 C1111 1.419 . S
C1113 C1114 1.363 . S
C1113 H1116 0.929 . S
C1114 C1113 1.363 . S
C1114 C1120 1.428 . S
H1115 C1111 0.930 . S
H1116 C1113 0.929 . S
S1117 N1118 1.613 . S
S1117 N1119 1.610 . S
N1118 S1117 1.613 . S
N1118 C1121 1.350 1_565 S
N1119 S1117 1.610 . S
N1119 C1120 1.351 1_565 S
C1120 C1114 1.428 . S
C1120 N1119 1.351 1_545 S
C1120 C1121 1.434 . S
C1121 C1112 1.429 . S
C1121 N1118 1.350 1_545 S
C1121 C1120 1.434 . S
C1122 C1123 1.369 . S
C1122 C1124 1.419 . S
C1122 H1126 0.930 . S
C1123 C1122 1.369 . S
C1123 C1132 1.429 . S
C1124 C1122 1.419 . S
C1124 C1125 1.363 . S
C1124 H1127 0.929 . S
C1125 C1124 1.363 . S
C1125 C1131 1.428 . S
H1126 C1122 0.930 . S
H1127 C1124 0.929 . S
S1128 N1129 1.613 . S
S1128 N1130 1.610 . S
N1129 S1128 1.613 . S
N1129 C1132 1.350 . S
N1130 S1128 1.610 . S
N1130 C1131 1.351 . S
C1131 C1125 1.428 . S
C1131 N1130 1.351 . S
C1131 C1132 1.434 . S
C1132 C1123 1.429 . S
C1132 N1129 1.350 . S
C1132 C1131 1.434 . S
C1133 C1134 1.369 . S
C1133 C1135 1.419 . S
C1133 H1137 0.930 . S
C1134 C1133 1.369 . S
C1134 C1143 1.429 . S
C1135 C1133 1.419 . S
C1135 C1136 1.363 . S
C1135 H1138 0.929 . S
C1136 C1135 1.363 . S
C1136 C1142 1.428 . S
H1137 C1133 0.930 . S
H1138 C1135 0.929 . S
S1139 N1140 1.613 . S
S1139 N1141 1.610 . S
N1140 S1139 1.613 . S
N1140 C1143 1.350 . S
N1141 S1139 1.610 . S
N1141 C1142 1.351 . S
C1142 C1136 1.428 . S
C1142 N1141 1.351 . S
C1142 C1143 1.434 . S
C1143 C1134 1.429 . S
C1143 N1140 1.350 . S
C1143 C1142 1.434 . S
C1144 C1145 1.369 . S
C1144 C1146 1.419 . S
C1144 H1148 0.930 . S
C1145 C1144 1.369 . S
C1145 C1154 1.429 . S
C1146 C1144 1.419 . S
C1146 C1147 1.363 . S
C1146 H1149 0.929 . S
C1147 C1146 1.363 . S
C1147 C1153 1.428 . S
H1148 C1144 0.930 . S
H1149 C1146 0.929 . S
S1150 N1151 1.613 . S
S1150 N1152 1.610 . S
N1151 S1150 1.613 . S
N1151 C1154 1.350 . S
N1152 S1150 1.610 . S
N1152 C1153 1.351 . S
C1153 C1147 1.428 . S
C1153 N1152 1.351 . S
C1153 C1154 1.434 . S
C1154 C1145 1.429 . S
C1154 N1151 1.350 . S
C1154 C1153 1.434 . S
C1155 C1156 1.369 . S
C1155 C1157 1.419 . S
C1155 H1159 0.930 . S
C1156 C1155 1.369 . S
C1156 C1165 1.429 . S
C1157 C1155 1.419 . S
C1157 C1158 1.363 . S
C1157 H1160 0.929 . S
C1158 C1157 1.363 . S
C1158 C1164 1.428 . S
H1159 C1155 0.930 . S
H1160 C1157 0.929 . S
S1161 N1162 1.613 . S
S1161 N1163 1.610 . S
N1162 S1161 1.613 . S
N1162 C1165 1.350 . S
N1163 S1161 1.610 . S
N1163 C1164 1.351 . S
C1164 C1158 1.428 . S
C1164 N1163 1.351 . S
C1164 C1165 1.434 . S
C1165 C1156 1.429 . S
C1165 N1162 1.350 . S
C1165 C1164 1.434 . S
C1166 C1167 1.369 . S
C1166 C1168 1.419 . S
C1166 H1170 0.930 . S
C1167 C1166 1.369 . S
C1167 C1176 1.429 . S
C1168 C1166 1.419 . S
C1168 C1169 1.363 . S
C1168 H1171 0.929 . S
C1169 C1168 1.363 . S
C1169 C1175 1.428 . S
H1170 C1166 0.930 . S
H1171 C1168 0.929 . S
S1172 N1173 1.613 . S
S1172 N1174 1.610 . S
N1173 S1172 1.613 . S
N1173 C1176 1.350 . S
N1174 S1172 1.610 . S
N1174 C1175 1.351 . S
C1175 C1169 1.428 . S
C1175 N1174 1.351 . S
C1175 C1176 1.434 . S
C1176 C1167 1.429 . S
C1176 N1173 1.350 . S
C1176 C1175 1.434 . S
C1177 C1178 1.369 . S
C1177 C1179 1.419 . S
C1177 H1181 0.930 . S
C1178 C1177 1.369 . S
C1178 C1187 1.429 1_545 S
C1179 C1177 1.419 . S
C1179 C1180 1.363 . S
C1179 H1182 0.929 . S
C1180 C1179 1.363 . S
C1180 C1186 1.428 1_545 S
H1181 C1177 0.930 . S
H1182 C1179 0.929 . S
S1183 N1184 1.613 . S
S1183 N1185 1.610 . S
N1184 S1183 1.613 . S
N1184 C1187 1.350 . S
N1185 S1183 1.610 . S
N1185 C1186 1.351 . S
C1186 C1180 1.428 1_565 S
C1186 N1185 1.351 . S
C1186 C1187 1.434 . S
C1187 C1178 1.429 1_565 S
C1187 N1184 1.350 . S
C1187 C1186 1.434 . S
C1188 C1189 1.369 . S
C1188 C1190 1.419 . S
C1188 H1192 0.930 . S
C1189 C1188 1.369 . S
C1189 C1198 1.429 . S
C1190 C1188 1.419 . S
C1190 C1191 1.363 . S
C1190 H1193 0.929 . S
C1191 C1190 1.363 . S
C1191 C1197 1.428 . S
H1192 C1188 0.930 . S
H1193 C1190 0.929 . S
S1194 N1195 1.613 . S
S1194 N1196 1.610 . S
N1195 S1194 1.613 . S
N1195 C1198 1.350 . S
N1196 S1194 1.610 . S
N1196 C1197 1.351 . S
C1197 C1191 1.428 . S
C1197 N1196 1.351 . S
C1197 C1198 1.434 . S
C1198 C1189 1.429 . S
C1198 N1195 1.350 . S
C1198 C1197 1.434 . S
C1199 C1200 1.369 . S
C1199 C1201 1.419 . S
C1199 H1203 0.930 . S
C1200 C1199 1.369 . S
C1200 C1209 1.429 1_565 S
C1201 C1199 1.419 . S
C1201 C1202 1.363 . S
C1201 H1204 0.929 . S
C1202 C1201 1.363 . S
C1202 C1208 1.428 1_565 S
H1203 C1199 0.930 . S
H1204 C1201 0.929 . S
S1205 N1206 1.613 . S
S1205 N1207 1.610 . S
N1206 S1205 1.613 . S
N1206 C1209 1.350 . S
N1207 S1205 1.610 . S
N1207 C1208 1.351 . S
C1208 C1202 1.428 1_545 S
C1208 N1207 1.351 . S
C1208 C1209 1.434 . S
C1209 C1200 1.429 1_545 S
C1209 N1206 1.350 . S
C1209 C1208 1.434 . S
C1210 C1211 1.369 . S
C1210 C1212 1.419 . S
C1210 H1214 0.930 . S
C1211 C1210 1.369 . S
C1211 C1220 1.429 . S
C1212 C1210 1.419 . S
C1212 C1213 1.363 . S
C1212 H1215 0.929 . S
C1213 C1212 1.363 . S
C1213 C1219 1.428 . S
H1214 C1210 0.930 . S
H1215 C1212 0.929 . S
S1216 N1217 1.613 . S
S1216 N1218 1.610 . S
N1217 S1216 1.613 . S
N1217 C1220 1.350 . S
N1218 S1216 1.610 . S
N1218 C1219 1.351 . S
C1219 C1213 1.428 . S
C1219 N1218 1.351 . S
C1219 C1220 1.434 . S
C1220 C1211 1.429 . S
C1220 N1217 1.350 . S
C1220 C1219 1.434 . S
C1221 C1222 1.369 . S
C1221 C1223 1.419 . S
C1221 H1225 0.930 . S
C1222 C1221 1.369 . S
C1222 C1231 1.429 . S
C1223 C1221 1.419 . S
C1223 C1224 1.363 . S
C1223 H1226 0.929 . S
C1224 C1223 1.363 . S
C1224 C1230 1.428 . S
H1225 C1221 0.930 . S
H1226 C1223 0.929 . S
S1227 N1228 1.613 . S
S1227 N1229 1.610 . S
N1228 S1227 1.613 . S
N1228 C1231 1.350 1_565 S
N1229 S1227 1.610 . S
N1229 C1230 1.351 1_565 S
C1230 C1224 1.428 . S
C1230 N1229 1.351 1_545 S
C1230 C1231 1.434 . S
C1231 C1222 1.429 . S
C1231 N1228 1.350 1_545 S
C1231 C1230 1.434 . S
C1232 C1233 1.369 . S
C1232 C1234 1.419 . S
C1232 H1236 0.930 . S
C1233 C1232 1.369 . S
C1233 C1242 1.429 . S
C1234 C1232 1.419 . S
C1234 C1235 1.363 . S
C1234 H1237 0.929 . S
C1235 C1234 1.363 . S
C1235 C1241 1.428 . S
H1236 C1232 0.930 . S
H1237 C1234 0.929 . S
S1238 N1239 1.613 . S
S1238 N1240 1.610 . S
N1239 S1238 1.613 . S
N1239 C1242 1.350 . S
N1240 S1238 1.610 . S
N1240 C1241 1.351 . S
C1241 C1235 1.428 . S
C1241 N1240 1.351 . S
C1241 C1242 1.434 . S
C1242 C1233 1.429 . S
C1242 N1239 1.350 . S
C1242 C1241 1.434 . S
C1243 C1244 1.369 . S
C1243 C1245 1.419 . S
C1243 H1247 0.930 . S
C1244 C1243 1.369 . S
C1244 C1253 1.429 . S
C1245 C1243 1.419 . S
C1245 C1246 1.363 . S
C1245 H1248 0.929 . S
C1246 C1245 1.363 . S
C1246 C1252 1.428 . S
H1247 C1243 0.930 . S
H1248 C1245 0.929 . S
S1249 N1250 1.613 . S
S1249 N1251 1.610 . S
N1250 S1249 1.613 . S
N1250 C1253 1.350 . S
N1251 S1249 1.610 . S
N1251 C1252 1.351 . S
C1252 C1246 1.428 . S
C1252 N1251 1.351 . S
C1252 C1253 1.434 . S
C1253 C1244 1.429 . S
C1253 N1250 1.350 . S
C1253 C1252 1.434 . S
C1254 C1255 1.369 . S
C1254 C1256 1.419 . S
C1254 H1258 0.930 . S
C1255 C1254 1.369 . S
C1255 C1264 1.429 . S
C1256 C1254 1.419 . S
C1256 C1257 1.363 . S
C1256 H1259 0.929 . S
C1257 C1256 1.363 . S
C1257 C1263 1.428 . S
H1258 C1254 0.930 . S
H1259 C1256 0.929 . S
S1260 N1261 1.613 . S
S1260 N1262 1.610 . S
N1261 S1260 1.613 . S
N1261 C1264 1.350 . S
N1262 S1260 1.610 . S
N1262 C1263 1.351 . S
C1263 C1257 1.428 . S
C1263 N1262 1.351 . S
C1263 C1264 1.434 . S
C1264 C1255 1.429 . S
C1264 N1261 1.350 . S
C1264 C1263 1.434 . S
C1265 C1266 1.369 . S
C1265 C1267 1.419 . S
C1265 H1269 0.930 . S
C1266 C1265 1.369 . S
C1266 C1275 1.429 . S
C1267 C1265 1.419 . S
C1267 C1268 1.363 . S
C1267 H1270 0.929 . S
C1268 C1267 1.363 . S
C1268 C1274 1.428 . S
H1269 C1265 0.930 . S
H1270 C1267 0.929 . S
S1271 N1272 1.613 . S
S1271 N1273 1.610 . S
N1272 S1271 1.613 . S
N1272 C1275 1.350 . S
N1273 S1271 1.610 . S
N1273 C1274 1.351 . S
C1274 C1268 1.428 . S
C1274 N1273 1.351 . S
C1274 C1275 1.434 . S
C1275 C1266 1.429 . S
C1275 N1272 1.350 . S
C1275 C1274 1.434 . S
C1276 C1277 1.369 . S
C1276 C1278 1.419 . S
C1276 H1280 0.930 . S
C1277 C1276 1.369 . S
C1277 C1286 1.429 . S
C1278 C1276 1.419 . S
C1278 C1279 1.363 . S
C1278 H1281 0.929 . S
C1279 C1278 1.363 . S
C1279 C1285 1.428 . S
H1280 C1276 0.930 . S
H1281 C1278 0.929 . S
S1282 N1283 1.613 . S
S1282 N1284 1.610 . S
N1283 S1282 1.613 . S
N1283 C1286 1.350 . S
N1284 S1282 1.610 . S
N1284 C1285 1.351 . S
C1285 C1279 1.428 . S
C1285 N1284 1.351 . S
C1285 C1286 1.434 . S
C1286 C1277 1.429 . S
C1286 N1283 1.350 . S
C1286 C1285 1.434 . S
C1287 C1288 1.369 . S
C1287 C1289 1.419 . S
C1287 H1291 0.930 . S
C1288 C1287 1.369 . S
C1288 C1297 1.429 . S
C1289 C1287 1.419 . S
C1289 C1290 1.363 . S
C1289 H1292 0.929 . S
C1290 C1289 1.363 . S
C1290 C1296 1.428 . S
H1291 C1287 0.930 . S
H1292 C1289 0.929 . S
S1293 N1294 1.613 . S
S1293 N1295 1.610 . S
N1294 S1293 1.613 . S
N1294 C1297 1.350 . S
N1295 S1293 1.610 . S
N1295 C1296 1.351 . S
C1296 C1290 1.428 . S
C1296 N1295 1.351 . S
C1296 C1297 1.434 . S
C1297 C1288 1.429 . S
C1297 N1294 1.350 . S
C1297 C1296 1.434 . S
C1298 C1299 1.369 . S
C1298 C1300 1.419 . S
C1298 H1302 0.930 . S
C1299 C1298 1.369 . S
C1299 C1308 1.429 . S
C1300 C1298 1.419 . S
C1300 C1301 1.363 . S
C1300 H1303 0.929 . S
C1301 C1300 1.363 . S
C1301 C1307 1.428 . S
H1302 C1298 0.930 . S
H1303 C1300 0.929 . S
S1304 N1305 1.613 . S
S1304 N1306 1.610 . S
N1305 S1304 1.613 . S
N1305 C1308 1.350 . S
N1306 S1304 1.610 . S
N1306 C1307 1.351 . S
C1307 C1301 1.428 . S
C1307 N1306 1.351 . S
C1307 C1308 1.434 . S
C1308 C1299 1.429 . S
C1308 N1305 1.350 . S
C1308 C1307 1.434 . S
C1309 C1310 1.369 . S
C1309 C1311 1.419 . S
C1309 H1313 0.930 . S
C1310 C1309 1.369 . S
C1310 C1319 1.429 . S
C1311 C1309 1.419 . S
C1311 C1312 1.363 . S
C1311 H1314 0.929 . S
C1312 C1311 1.363 . S
C1312 C1318 1.428 . S
H1313 C1309 0.930 . S
H1314 C1311 0.929 . S
S1315 N1316 1.613 . S
S1315 N1317 1.610 . S
N1316 S1315 1.613 . S
N1316 C1319 1.350 . S
N1317 S1315 1.610 . S
N1317 C1318 1.351 . S
C1318 C1312 1.428 . S
C1318 N1317 1.351 . S
C1318 C1319 1.434 . S
C1319 C1310 1.429 . S
C1319 N1316 1.350 . S
C1319 C1318 1.434 . S
C1320 C1321 1.369 . S
C1320 C1322 1.419 . S
C1320 H1324 0.930 . S
C1321 C1320 1.369 . S
C1321 C1330 1.429 . S
C1322 C1320 1.419 . S
C1322 C1323 1.363 . S
C1322 H1325 0.929 . S
C1323 C1322 1.363 . S
C1323 C1329 1.428 . S
H1324 C1320 0.930 . S
H1325 C1322 0.929 . S
S1326 N1327 1.613 . S
S1326 N1328 1.610 . S
N1327 S1326 1.613 . S
N1327 C1330 1.350 . S
N1328 S1326 1.610 . S
N1328 C1329 1.351 . S
C1329 C1323 1.428 . S
C1329 N1328 1.351 . S
C1329 C1330 1.434 . S
C1330 C1321 1.429 . S
C1330 N1327 1.350 . S
C1330 C1329 1.434 . S
C1331 C1332 1.369 . S
C1331 C1333 1.419 . S
C1331 H1335 0.930 . S
C1332 C1331 1.369 . S
C1332 C1341 1.429 . S
C1333 C1331 1.419 . S
C1333 C1334 1.363 . S
C1333 H1336 0.929 . S
C1334 C1333 1.363 . S
C1334 C1340 1.428 . S
H1335 C1331 0.930 . S
H1336 C1333 0.929 . S
S1337 N1338 1.613 . S
S1337 N1339 1.610 . S
N1338 S1337 1.613 . S
N1338 C1341 1.350 . S
N1339 S1337 1.610 . S
N1339 C1340 1.351 . S
C1340 C1334 1.428 . S
C1340 N1339 1.351 . S
C1340 C1341 1.434 . S
C1341 C1332 1.429 . S
C1341 N1338 1.350 . S
C1341 C1340 1.434 . S
C1342 C1343 1.369 . S
C1342 C1344 1.419 . S
C1342 H1346 0.930 . S
C1343 C1342 1.369 . S
C1343 C1352 1.429 . S
C1344 C1342 1.419 . S
C1344 C1345 1.363 . S
C1344 H1347 0.929 . S
C1345 C1344 1.363 . S
C1345 C1351 1.428 . S
H1346 C1342 0.930 . S
H1347 C1344 0.929 . S
S1348 N1349 1.613 . S
S1348 N1350 1.610 . S
N1349 S1348 1.613 . S
N1349 C1352 1.350 . S
N1350 S1348 1.610 . S
N1350 C1351 1.351 . S
C1351 C1345 1.428 . S
C1351 N1350 1.351 . S
C1351 C1352 1.434 . S
C1352 C1343 1.429 . S
C1352 N1349 1.350 . S
C1352 C1351 1.434 . S
C1353 C1354 1.369 . S
C1353 C1355 1.419 . S
C1353 H1357 0.930 . S
C1354 C1353 1.369 . S
C1354 C1363 1.429 . S
C1355 C1353 1.419 . S
C1355 C1356 1.363 . S
C1355 H1358 0.929 . S
C1356 C1355 1.363 . S
C1356 C1362 1.428 . S
H1357 C1353 0.930 . S
H1358 C1355 0.929 . S
S1359 N1360 1.613 . S
S1359 N1361 1.610 . S
N1360 S1359 1.613 . S
N1360 C1363 1.350 . S
N1361 S1359 1.610 . S
N1361 C1362 1.351 . S
C1362 C1356 1.428 . S
C1362 N1361 1.351 . S
C1362 C1363 1.434 . S
C1363 C1354 1.429 . S
C1363 N1360 1.350 . S
C1363 C1362 1.434 . S
C1364 C1365 1.369 . S
C1364 C1366 1.419 . S
C1364 H1368 0.930 . S
C1365 C1364 1.369 . S
C1365 C1374 1.429 . S
C1366 C1364 1.419 . S
C1366 C1367 1.363 . S
C1366 H1369 0.929 . S
C1367 C1366 1.363 . S
C1367 C1373 1.428 . S
H1368 C1364 0.930 . S
H1369 C1366 0.929 . S
S1370 N1371 1.613 . S
S1370 N1372 1.610 . S
N1371 S1370 1.613 . S
N1371 C1374 1.350 . S
N1372 S1370 1.610 . S
N1372 C1373 1.351 . S
C1373 C1367 1.428 . S
C1373 N1372 1.351 . S
C1373 C1374 1.434 . S
C1374 C1365 1.429 . S
C1374 N1371 1.350 . S
C1374 C1373 1.434 . S
C1375 C1376 1.369 . S
C1375 C1377 1.419 . S
C1375 H1379 0.930 . S
C1376 C1375 1.369 . S
C1376 C1385 1.429 . S
C1377 C1375 1.419 . S
C1377 C1378 1.363 . S
C1377 H1380 0.929 . S
C1378 C1377 1.363 . S
C1378 C1384 1.428 . S
H1379 C1375 0.930 . S
H1380 C1377 0.929 . S
S1381 N1382 1.613 . S
S1381 N1383 1.610 . S
N1382 S1381 1.613 . S
N1382 C1385 1.350 . S
N1383 S1381 1.610 . S
N1383 C1384 1.351 . S
C1384 C1378 1.428 . S
C1384 N1383 1.351 . S
C1384 C1385 1.434 . S
C1385 C1376 1.429 . S
C1385 N1382 1.350 . S
C1385 C1384 1.434 . S
C1386 C1387 1.369 . S
C1386 C1388 1.419 . S
C1386 H1390 0.930 . S
C1387 C1386 1.369 . S
C1387 C1396 1.429 . S
C1388 C1386 1.419 . S
C1388 C1389 1.363 . S
C1388 H1391 0.929 . S
C1389 C1388 1.363 . S
C1389 C1395 1.428 . S
H1390 C1386 0.930 . S
H1391 C1388 0.929 . S
S1392 N1393 1.613 . S
S1392 N1394 1.610 . S
N1393 S1392 1.613 . S
N1393 C1396 1.350 . S
N1394 S1392 1.610 . S
N1394 C1395 1.351 . S
C1395 C1389 1.428 . S
C1395 N1394 1.351 . S
C1395 C1396 1.434 . S
C1396 C1387 1.429 . S
C1396 N1393 1.350 . S
C1396 C1395 1.434 . S
C1397 C1398 1.369 . S
C1397 C1399 1.419 . S
C1397 H1401 0.930 . S
C1398 C1397 1.369 . S
C1398 C1407 1.429 . S
C1399 C1397 1.419 . S
C1399 C1400 1.363 . S
C1399 H1402 0.929 . S
C1400 C1399 1.363 . S
C1400 C1406 1.428 . S
H1401 C1397 0.930 . S
H1402 C1399 0.929 . S
S1403 N1404 1.613 . S
S1403 N1405 1.610 . S
N1404 S1403 1.613 . S
N1404 C1407 1.350 . S
N1405 S1403 1.610 . S
N1405 C1406 1.351 . S
C1406 C1400 1.428 . S
C1406 N1405 1.351 . S
C1406 C1407 1.434 . S
C1407 C1398 1.429 . S
C1407 N1404 1.350 . S
C1407 C1406 1.434 . S
C1408 C1409 1.369 . S
C1408 C1410 1.419 . S
C1408 H1412 0.930 . S
C1409 C1408 1.369 . S
C1409 C1418 1.429 . S
C1410 C1408 1.419 . S
C1410 C1411 1.363 . S
C1410 H1413 0.929 . S
C1411 C1410 1.363 . S
C1411 C1417 1.428 . S
H1412 C1408 0.930 . S
H1413 C1410 0.929 . S
S1414 N1415 1.613 . S
S1414 N1416 1.610 . S
N1415 S1414 1.613 . S
N1415 C1418 1.350 . S
N1416 S1414 1.610 . S
N1416 C1417 1.351 . S
C1417 C1411 1.428 . S
C1417 N1416 1.351 . S
C1417 C1418 1.434 . S
C1418 C1409 1.429 . S
C1418 N1415 1.350 . S
C1418 C1417 1.434 . S
C1419 C1420 1.369 . S
C1419 C1421 1.419 1_455 S
C1419 H1423 0.930 . S
C1420 C1419 1.369 . S
C1420 C1429 1.429 . S
C1421 C1419 1.419 1_655 S
C1421 C1422 1.363 . S
C1421 H1424 0.929 . S
C1422 C1421 1.363 . S
C1422 C1428 1.428 . S
H1423 C1419 0.930 . S
H1424 C1421 0.929 . S
S1425 N1426 1.613 1_655 S
S1425 N1427 1.610 . S
N1426 S1425 1.613 1_455 S
N1426 C1429 1.350 . S
N1427 S1425 1.610 . S
N1427 C1428 1.351 . S
C1428 C1422 1.428 . S
C1428 N1427 1.351 . S
C1428 C1429 1.434 1_655 S
C1429 C1420 1.429 . S
C1429 N1426 1.350 . S
C1429 C1428 1.434 1_455 S
C1430 C1431 1.369 1_655 S
C1430 C1432 1.419 . S
C1430 H1434 0.930 . S
C1431 C1430 1.369 1_455 S
C1431 C1440 1.429 . S
C1432 C1430 1.419 . S
C1432 C1433 1.363 . S
C1432 H1435 0.929 . S
C1433 C1432 1.363 . S
C1433 C1439 1.428 1_655 S
H1434 C1430 0.930 . S
H1435 C1432 0.929 . S
S1436 N1437 1.613 . S
S1436 N1438 1.610 . S
N1437 S1436 1.613 . S
N1437 C1440 1.350 . S
N1438 S1436 1.610 . S
N1438 C1439 1.351 . S
C1439 C1433 1.428 1_455 S
C1439 N1438 1.351 . S
C1439 C1440 1.434 . S
C1440 C1431 1.429 . S
C1440 N1437 1.350 . S
C1440 C1439 1.434 . S
C1441 C1442 1.369 . S
C1441 C1443 1.419 . S
C1441 H1445 0.930 . S
C1442 C1441 1.369 . S
C1442 C1451 1.429 . S
C1443 C1441 1.419 . S
C1443 C1444 1.363 . S
C1443 H1446 0.929 . S
C1444 C1443 1.363 . S
C1444 C1450 1.428 . S
H1445 C1441 0.930 . S
H1446 C1443 0.929 . S
S1447 N1448 1.613 . S
S1447 N1449 1.610 . S
N1448 S1447 1.613 . S
N1448 C1451 1.350 . S
N1449 S1447 1.610 . S
N1449 C1450 1.351 . S
C1450 C1444 1.428 . S
C1450 N1449 1.351 . S
C1450 C1451 1.434 . S
C1451 C1442 1.429 . S
C1451 N1448 1.350 . S
C1451 C1450 1.434 . S
C1452 C1453 1.369 . S
C1452 C1454 1.419 . S
C1452 H1456 0.930 . S
C1453 C1452 1.369 . S
C1453 C1462 1.429 . S
C1454 C1452 1.419 . S
C1454 C1455 1.363 . S
C1454 H1457 0.929 . S
C1455 C1454 1.363 . S
C1455 C1461 1.428 . S
H1456 C1452 0.930 . S
H1457 C1454 0.929 . S
S1458 N1459 1.613 . S
S1458 N1460 1.610 . S
N1459 S1458 1.613 . S
N1459 C1462 1.350 . S
N1460 S1458 1.610 . S
N1460 C1461 1.351 . S
C1461 C1455 1.428 . S
C1461 N1460 1.351 . S
C1461 C1462 1.434 . S
C1462 C1453 1.429 . S
C1462 N1459 1.350 . S
C1462 C1461 1.434 . S
C1463 C1464 1.369 . S
C1463 C1465 1.419 . S
C1463 H1467 0.930 . S
C1464 C1463 1.369 . S
C1464 C1473 1.429 . S
C1465 C1463 1.419 . S
C1465 C1466 1.363 . S
C1465 H1468 0.929 . S
C1466 C1465 1.363 . S
C1466 C1472 1.428 . S
H1467 C1463 0.930 . S
H1468 C1465 0.929 . S
S1469 N1470 1.613 . S
S1469 N1471 1.610 . S
N1470 S1469 1.613 . S
N1470 C1473 1.350 . S
N1471 S1469 1.610 . S
N1471 C1472 1.351 . S
C1472 C1466 1.428 . S
C1472 N1471 1.351 . S
C1472 C1473 1.434 . S
C1473 C1464 1.429 . S
C1473 N1470 1.350 . S
C1473 C1472 1.434 . S
C1474 C1475 1.369 . S
C1474 C1476 1.419 . S
C1474 H1478 0.930 . S
C1475 C1474 1.369 . S
C1475 C1484 1.429 1_655 S
C1476 C1474 1.419 . S
C1476 C1477 1.363 1_655 S
C1476 H1479 0.929 . S
C1477 C1476 1.363 1_455 S
C1477 C1483 1.428 . S
H1478 C1474 0.930 . S
H1479 C1476 0.929 . S
S1480 N1481 1.613 . S
S1480 N1482 1.610 . S
N1481 S1480 1.613 . S
N1481 C1484 1.350 . S
N1482 S1480 1.610 . S
N1482 C1483 1.351 . S
C1483 C1477 1.428 . S
C1483 N1482 1.351 . S
C1483 C1484 1.434 . S
C1484 C1475 1.429 1_455 S
C1484 N1481 1.350 . S
C1484 C1483 1.434 . S
C1485 C1486 1.369 . S
C1485 C1487 1.419 1_655 S
C1485 H1489 0.930 . S
C1486 C1485 1.369 . S
C1486 C1495 1.429 . S
C1487 C1485 1.419 1_455 S
C1487 C1488 1.363 . S
C1487 H1490 0.929 . S
C1488 C1487 1.363 . S
C1488 C1494 1.428 . S
H1489 C1485 0.930 . S
H1490 C1487 0.929 . S
S1491 N1492 1.613 1_455 S
S1491 N1493 1.610 . S
N1492 S1491 1.613 1_655 S
N1492 C1495 1.350 . S
N1493 S1491 1.610 . S
N1493 C1494 1.351 . S
C1494 C1488 1.428 . S
C1494 N1493 1.351 . S
C1494 C1495 1.434 1_455 S
C1495 C1486 1.429 . S
C1495 N1492 1.350 . S
C1495 C1494 1.434 1_655 S
C1496 C1497 1.369 . S
C1496 C1498 1.419 . S
C1496 H1500 0.930 . S
C1497 C1496 1.369 . S
C1497 C1506 1.429 . S
C1498 C1496 1.419 . S
C1498 C1499 1.363 . S
C1498 H1501 0.929 . S
C1499 C1498 1.363 . S
C1499 C1505 1.428 . S
H1500 C1496 0.930 . S
H1501 C1498 0.929 . S
S1502 N1503 1.613 . S
S1502 N1504 1.610 . S
N1503 S1502 1.613 . S
N1503 C1506 1.350 . S
N1504 S1502 1.610 . S
N1504 C1505 1.351 . S
C1505 C1499 1.428 . S
C1505 N1504 1.351 . S
C1505 C1506 1.434 . S
C1506 C1497 1.429 . S
C1506 N1503 1.350 . S
C1506 C1505 1.434 . S
C1507 C1508 1.369 . S
C1507 C1509 1.419 1_655 S
C1507 H1511 0.930 . S
C1508 C1507 1.369 . S
C1508 C1517 1.429 . S
C1509 C1507 1.419 1_455 S
C1509 C1510 1.363 . S
C1509 H1512 0.929 . S
C1510 C1509 1.363 . S
C1510 C1516 1.428 . S
H1511 C1507 0.930 . S
H1512 C1509 0.929 . S
S1513 N1514 1.613 1_455 S
S1513 N1515 1.610 . S
N1514 S1513 1.613 1_655 S
N1514 C1517 1.350 . S
N1515 S1513 1.610 . S
N1515 C1516 1.351 . S
C1516 C1510 1.428 . S
C1516 N1515 1.351 . S
C1516 C1517 1.434 1_455 S
C1517 C1508 1.429 . S
C1517 N1514 1.350 . S
C1517 C1516 1.434 1_655 S
C1518 C1519 1.369 . S
C1518 C1520 1.419 . S
C1518 H1522 0.930 . S
C1519 C1518 1.369 . S
C1519 C1528 1.429 1_655 S
C1520 C1518 1.419 . S
C1520 C1521 1.363 1_655 S
C1520 H1523 0.929 . S
C1521 C1520 1.363 1_455 S
C1521 C1527 1.428 . S
H1522 C1518 0.930 . S
H1523 C1520 0.929 . S
S1524 N1525 1.613 . S
S1524 N1526 1.610 . S
N1525 S1524 1.613 . S
N1525 C1528 1.350 . S
N1526 S1524 1.610 . S
N1526 C1527 1.351 . S
C1527 C1521 1.428 . S
C1527 N1526 1.351 . S
C1527 C1528 1.434 . S
C1528 C1519 1.429 1_455 S
C1528 N1525 1.350 . S
C1528 C1527 1.434 . S
C1529 C1530 1.369 . S
C1529 C1531 1.419 . S
C1529 H1533 0.930 . S
C1530 C1529 1.369 . S
C1530 C1539 1.429 . S
C1531 C1529 1.419 . S
C1531 C1532 1.363 . S
C1531 H1534 0.929 . S
C1532 C1531 1.363 . S
C1532 C1538 1.428 . S
H1533 C1529 0.930 . S
H1534 C1531 0.929 . S
S1535 N1536 1.613 . S
S1535 N1537 1.610 . S
N1536 S1535 1.613 . S
N1536 C1539 1.350 . S
N1537 S1535 1.610 . S
N1537 C1538 1.351 . S
C1538 C1532 1.428 . S
C1538 N1537 1.351 . S
C1538 C1539 1.434 . S
C1539 C1530 1.429 . S
C1539 N1536 1.350 . S
C1539 C1538 1.434 . S
C1540 C1541 1.369 . S
C1540 C1542 1.419 . S
C1540 H1544 0.930 . S
C1541 C1540 1.369 . S
C1541 C1550 1.429 . S
C1542 C1540 1.419 . S
C1542 C1543 1.363 . S
C1542 H1545 0.929 . S
C1543 C1542 1.363 . S
C1543 C1549 1.428 . S
H1544 C1540 0.930 . S
H1545 C1542 0.929 . S
S1546 N1547 1.613 . S
S1546 N1548 1.610 . S
N1547 S1546 1.613 . S
N1547 C1550 1.350 . S
N1548 S1546 1.610 . S
N1548 C1549 1.351 . S
C1549 C1543 1.428 . S
C1549 N1548 1.351 . S
C1549 C1550 1.434 . S
C1550 C1541 1.429 . S
C1550 N1547 1.350 . S
C1550 C1549 1.434 . S
C1551 C1552 1.369 . S
C1551 C1553 1.419 . S
C1551 H1555 0.930 . S
C1552 C1551 1.369 . S
C1552 C1561 1.429 . S
C1553 C1551 1.419 . S
C1553 C1554 1.363 . S
C1553 H1556 0.929 . S
C1554 C1553 1.363 . S
C1554 C1560 1.428 . S
H1555 C1551 0.930 . S
H1556 C1553 0.929 . S
S1557 N1558 1.613 . S
S1557 N1559 1.610 . S
N1558 S1557 1.613 . S
N1558 C1561 1.350 . S
N1559 S1557 1.610 . S
N1559 C1560 1.351 . S
C1560 C1554 1.428 . S
C1560 N1559 1.351 . S
C1560 C1561 1.434 . S
C1561 C1552 1.429 . S
C1561 N1558 1.350 . S
C1561 C1560 1.434 . S
C1562 C1563 1.369 1_455 S
C1562 C1564 1.419 . S
C1562 H1566 0.930 . S
C1563 C1562 1.369 1_655 S
C1563 C1572 1.429 . S
C1564 C1562 1.419 . S
C1564 C1565 1.363 . S
C1564 H1567 0.929 . S
C1565 C1564 1.363 . S
C1565 C1571 1.428 1_455 S
H1566 C1562 0.930 . S
H1567 C1564 0.929 . S
S1568 N1569 1.613 . S
S1568 N1570 1.610 . S
N1569 S1568 1.613 . S
N1569 C1572 1.350 . S
N1570 S1568 1.610 . S
N1570 C1571 1.351 . S
C1571 C1565 1.428 1_655 S
C1571 N1570 1.351 . S
C1571 C1572 1.434 . S
C1572 C1563 1.429 . S
C1572 N1569 1.350 . S
C1572 C1571 1.434 . S
C1573 C1574 1.369 . S
C1573 C1575 1.419 1_455 S
C1573 H1577 0.930 . S
C1574 C1573 1.369 . S
C1574 C1583 1.429 . S
C1575 C1573 1.419 1_655 S
C1575 C1576 1.363 . S
C1575 H1578 0.929 . S
C1576 C1575 1.363 . S
C1576 C1582 1.428 . S
H1577 C1573 0.930 . S
H1578 C1575 0.929 . S
S1579 N1580 1.613 1_655 S
S1579 N1581 1.610 . S
N1580 S1579 1.613 1_455 S
N1580 C1583 1.350 . S
N1581 S1579 1.610 . S
N1581 C1582 1.351 . S
C1582 C1576 1.428 . S
C1582 N1581 1.351 . S
C1582 C1583 1.434 1_655 S
C1583 C1574 1.429 . S
C1583 N1580 1.350 . S
C1583 C1582 1.434 1_455 S
C1584 C1585 1.369 . S
C1584 C1586 1.419 . S
C1584 H1588 0.930 . S
C1585 C1584 1.369 . S
C1585 C1594 1.429 . S
C1586 C1584 1.419 . S
C1586 C1587 1.363 . S
C1586 H1589 0.929 . S
C1587 C1586 1.363 . S
C1587 C1593 1.428 . S
H1588 C1584 0.930 . S
H1589 C1586 0.929 . S
S1590 N1591 1.613 . S
S1590 N1592 1.610 . S
N1591 S1590 1.613 . S
N1591 C1594 1.350 . S
N1592 S1590 1.610 . S
N1592 C1593 1.351 . S
C1593 C1587 1.428 . S
C1593 N1592 1.351 . S
C1593 C1594 1.434 . S
C1594 C1585 1.429 . S
C1594 N1591 1.350 . S
C1594 C1593 1.434 . S
C1595 C1596 1.369 . S
C1595 C1597 1.419 . S
C1595 H1599 0.930 . S
C1596 C1595 1.369 . S
C1596 C1605 1.429 . S
C1597 C1595 1.419 . S
C1597 C1598 1.363 . S
C1597 H1600 0.929 . S
C1598 C1597 1.363 . S
C1598 C1604 1.428 . S
H1599 C1595 0.930 . S
H1600 C1597 0.929 . S
S1601 N1602 1.613 . S
S1601 N1603 1.610 . S
N1602 S1601 1.613 . S
N1602 C1605 1.350 . S
N1603 S1601 1.610 . S
N1603 C1604 1.351 . S
C1604 C1598 1.428 . S
C1604 N1603 1.351 . S
C1604 C1605 1.434 . S
C1605 C1596 1.429 . S
C1605 N1602 1.350 . S
C1605 C1604 1.434 . S
C1606 C1607 1.369 . S
C1606 C1608 1.419 . S
C1606 H1610 0.930 . S
C1607 C1606 1.369 . S
C1607 C1616 1.429 . S
C1608 C1606 1.419 . S
C1608 C1609 1.363 . S
C1608 H1611 0.929 . S
C1609 C1608 1.363 . S
C1609 C1615 1.428 . S
H1610 C1606 0.930 . S
H1611 C1608 0.929 . S
S1612 N1613 1.613 . S
S1612 N1614 1.610 . S
N1613 S1612 1.613 . S
N1613 C1616 1.350 . S
N1614 S1612 1.610 . S
N1614 C1615 1.351 . S
C1615 C1609 1.428 . S
C1615 N1614 1.351 . S
C1615 C1616 1.434 . S
C1616 C1607 1.429 . S
C1616 N1613 1.350 . S
C1616 C1615 1.434 . S
C1617 C1618 1.369 . S
C1617 C1619 1.419 . S
C1617 H1621 0.930 . S
C1618 C1617 1.369 . S
C1618 C1627 1.429 . S
C1619 C1617 1.419 . S
C1619 C1620 1.363 . S
C1619 H1622 0.929 . S
C1620 C1619 1.363 . S
C1620 C1626 1.428 . S
H1621 C1617 0.930 . S
H1622 C1619 0.929 . S
S1623 N1624 1.613 . S
S1623 N1625 1.610 . S
N1624 S1623 1.613 . S
N1624 C1627 1.350 . S
N1625 S1623 1.610 . S
N1625 C1626 1.351 . S
C1626 C1620 1.428 . S
C1626 N1625 1.351 . S
C1626 C1627 1.434 . S
C1627 C1618 1.429 . S
C1627 N1624 1.350 . S
C1627 C1626 1.434 . S
C1628 C1629 1.369 . S
C1628 C1630 1.419 . S
C1628 H1632 0.930 . S
C1629 C1628 1.369 . S
C1629 C1638 1.429 . S
C1630 C1628 1.419 . S
C1630 C1631 1.363 . S
C1630 H1633 0.929 . S
C1631 C1630 1.363 . S
C1631 C1637 1.428 . S
H1632 C1628 0.930 . S
H1633 C1630 0.929 . S
S1634 N1635 1.613 . S
S1634 N1636 1.610 . S
N1635 S1634 1.613 . S
N1635 C1638 1.350 . S
N1636 S1634 1.610 . S
N1636 C1637 1.351 . S
C1637 C1631 1.428 . S
C1637 N1636 1.351 . S
C1637 C1638 1.434 . S
C1638 C1629 1.429 . S
C1638 N1635 1.350 . S
C1638 C1637 1.434 . S
C1639 C1640 1.369 . S
C1639 C1641 1.419 . S
C1639 H1643 0.930 . S
C1640 C1639 1.369 . S
C1640 C1649 1.429 . S
C1641 C1639 1.419 . S
C1641 C1642 1.363 . S
C1641 H1644 0.929 . S
C1642 C1641 1.363 . S
C1642 C1648 1.428 . S
H1643 C1639 0.930 . S
H1644 C1641 0.929 . S
S1645 N1646 1.613 1_455 S
S1645 N1647 1.610 1_455 S
N1646 S1645 1.613 1_655 S
N1646 C1649 1.350 . S
N1647 S1645 1.610 1_655 S
N1647 C1648 1.351 . S
C1648 C1642 1.428 . S
C1648 N1647 1.351 . S
C1648 C1649 1.434 . S
C1649 C1640 1.429 . S
C1649 N1646 1.350 . S
C1649 C1648 1.434 . S
C1650 C1651 1.369 . S
C1650 C1652 1.419 . S
C1650 H1654 0.930 . S
C1651 C1650 1.369 . S
C1651 C1660 1.429 . S
C1652 C1650 1.419 . S
C1652 C1653 1.363 . S
C1652 H1655 0.929 . S
C1653 C1652 1.363 . S
C1653 C1659 1.428 . S
H1654 C1650 0.930 . S
H1655 C1652 0.929 . S
S1656 N1657 1.613 . S
S1656 N1658 1.610 . S
N1657 S1656 1.613 . S
N1657 C1660 1.350 . S
N1658 S1656 1.610 . S
N1658 C1659 1.351 . S
C1659 C1653 1.428 . S
C1659 N1658 1.351 . S
C1659 C1660 1.434 . S
C1660 C1651 1.429 . S
C1660 N1657 1.350 . S
C1660 C1659 1.434 . S
C1661 C1662 1.369 . S
C1661 C1663 1.419 . S
C1661 H1665 0.930 . S
C1662 C1661 1.369 . S
C1662 C1671 1.429 . S
C1663 C1661 1.419 . S
C1663 C1664 1.363 . S
C1663 H1666 0.929 . S
C1664 C1663 1.363 . S
C1664 C1670 1.428 . S
H1665 C1661 0.930 . S
H1666 C1663 0.929 . S
S1667 N1668 1.613 . S
S1667 N1669 1.610 . S
N1668 S1667 1.613 . S
N1668 C1671 1.350 . S
N1669 S1667 1.610 . S
N1669 C1670 1.351 . S
C1670 C1664 1.428 . S
C1670 N1669 1.351 . S
C1670 C1671 1.434 . S
C1671 C1662 1.429 . S
C1671 N1668 1.350 . S
C1671 C1670 1.434 . S
C1672 C1673 1.369 . S
C1672 C1674 1.419 . S
C1672 H1676 0.930 . S
C1673 C1672 1.369 . S
C1673 C1682 1.429 . S
C1674 C1672 1.419 . S
C1674 C1675 1.363 . S
C1674 H1677 0.929 . S
C1675 C1674 1.363 . S
C1675 C1681 1.428 . S
H1676 C1672 0.930 . S
H1677 C1674 0.929 . S
S1678 N1679 1.613 . S
S1678 N1680 1.610 . S
N1679 S1678 1.613 . S
N1679 C1682 1.350 . S
N1680 S1678 1.610 . S
N1680 C1681 1.351 . S
C1681 C1675 1.428 . S
C1681 N1680 1.351 . S
C1681 C1682 1.434 . S
C1682 C1673 1.429 . S
C1682 N1679 1.350 . S
C1682 C1681 1.434 . S
C1683 C1684 1.369 . S
C1683 C1685 1.419 . S
C1683 H1687 0.930 . S
C1684 C1683 1.369 . S
C1684 C1693 1.429 . S
C1685 C1683 1.419 . S
C1685 C1686 1.363 . S
C1685 H1688 0.929 . S
C1686 C1685 1.363 . S
C1686 C1692 1.428 . S
H1687 C1683 0.930 . S
H1688 C1685 0.929 . S
S1689 N1690 1.613 . S
S1689 N1691 1.610 . S
N1690 S1689 1.613 . S
N1690 C1693 1.350 . S
N1691 S1689 1.610 . S
N1691 C1692 1.351 . S
C1692 C1686 1.428 . S
C1692 N1691 1.351 . S
C1692 C1693 1.434 . S
C1693 C1684 1.429 . S
C1693 N1690 1.350 . S
C1693 C1692 1.434 . S
C1694 C1695 1.369 . S
C1694 C1696 1.419 . S
C1694 H1698 0.930 . S
C1695 C1694 1.369 . S
C1695 C1704 1.429 . S
C1696 C1694 1.419 . S
C1696 C1697 1.363 . S
C1696 H1699 0.929 . S
C1697 C1696 1.363 . S
C1697 C1703 1.428 . S
H1698 C1694 0.930 . S
H1699 C1696 0.929 . S
S1700 N1701 1.613 . S
S1700 N1702 1.610 . S
N1701 S1700 1.613 . S
N1701 C1704 1.350 . S
N1702 S1700 1.610 . S
N1702 C1703 1.351 . S
C1703 C1697 1.428 . S
C1703 N1702 1.351 . S
C1703 C1704 1.434 . S
C1704 C1695 1.429 . S
C1704 N1701 1.350 . S
C1704 C1703 1.434 . S
C1705 C1706 1.369 . S
C1705 C1707 1.419 . S
C1705 H1709 0.930 . S
C1706 C1705 1.369 . S
C1706 C1715 1.429 . S
C1707 C1705 1.419 . S
C1707 C1708 1.363 . S
C1707 H1710 0.929 . S
C1708 C1707 1.363 . S
C1708 C1714 1.428 . S
H1709 C1705 0.930 . S
H1710 C1707 0.929 . S
S1711 N1712 1.613 . S
S1711 N1713 1.610 . S
N1712 S1711 1.613 . S
N1712 C1715 1.350 . S
N1713 S1711 1.610 . S
N1713 C1714 1.351 . S
C1714 C1708 1.428 . S
C1714 N1713 1.351 . S
C1714 C1715 1.434 . S
C1715 C1706 1.429 . S
C1715 N1712 1.350 . S
C1715 C1714 1.434 . S
C1716 C1717 1.369 . S
C1716 C1718 1.419 . S
C1716 H1720 0.930 . S
C1717 C1716 1.369 . S
C1717 C1726 1.429 . S
C1718 C1716 1.419 . S
C1718 C1719 1.363 . S
C1718 H1721 0.929 . S
C1719 C1718 1.363 . S
C1719 C1725 1.428 . S
H1720 C1716 0.930 . S
H1721 C1718 0.929 . S
S1722 N1723 1.613 . S
S1722 N1724 1.610 . S
N1723 S1722 1.613 . S
N1723 C1726 1.350 . S
N1724 S1722 1.610 . S
N1724 C1725 1.351 . S
C1725 C1719 1.428 . S
C1725 N1724 1.351 . S
C1725 C1726 1.434 . S
C1726 C1717 1.429 . S
C1726 N1723 1.350 . S
C1726 C1725 1.434 . S
C1727 C1728 1.369 . S
C1727 C1729 1.419 . S
C1727 H1731 0.930 . S
C1728 C1727 1.369 . S
C1728 C1737 1.429 . S
C1729 C1727 1.419 . S
C1729 C1730 1.363 . S
C1729 H1732 0.929 . S
C1730 C1729 1.363 . S
C1730 C1736 1.428 . S
H1731 C1727 0.930 . S
H1732 C1729 0.929 . S
S1733 N1734 1.613 . S
S1733 N1735 1.610 . S
N1734 S1733 1.613 . S
N1734 C1737 1.350 . S
N1735 S1733 1.610 . S
N1735 C1736 1.351 . S
C1736 C1730 1.428 . S
C1736 N1735 1.351 . S
C1736 C1737 1.434 . S
C1737 C1728 1.429 . S
C1737 N1734 1.350 . S
C1737 C1736 1.434 . S
C1738 C1739 1.369 . S
C1738 C1740 1.419 . S
C1738 H1742 0.930 . S
C1739 C1738 1.369 . S
C1739 C1748 1.429 . S
C1740 C1738 1.419 . S
C1740 C1741 1.363 . S
C1740 H1743 0.929 . S
C1741 C1740 1.363 . S
C1741 C1747 1.428 . S
H1742 C1738 0.930 . S
H1743 C1740 0.929 . S
S1744 N1745 1.613 . S
S1744 N1746 1.610 . S
N1745 S1744 1.613 . S
N1745 C1748 1.350 . S
N1746 S1744 1.610 . S
N1746 C1747 1.351 . S
C1747 C1741 1.428 . S
C1747 N1746 1.351 . S
C1747 C1748 1.434 . S
C1748 C1739 1.429 . S
C1748 N1745 1.350 . S
C1748 C1747 1.434 . S
C1749 C1750 1.369 . S
C1749 C1751 1.419 . S
C1749 H1753 0.930 . S
C1750 C1749 1.369 . S
C1750 C1759 1.429 . S
C1751 C1749 1.419 . S
C1751 C1752 1.363 . S
C1751 H1754 0.929 . S
C1752 C1751 1.363 . S
C1752 C1758 1.428 . S
H1753 C1749 0.930 . S
H1754 C1751 0.929 . S
S1755 N1756 1.613 . S
S1755 N1757 1.610 . S
N1756 S1755 1.613 . S
N1756 C1759 1.350 . S
N1757 S1755 1.610 . S
N1757 C1758 1.351 . S
C1758 C1752 1.428 . S
C1758 N1757 1.351 . S
C1758 C1759 1.434 . S
C1759 C1750 1.429 . S
C1759 N1756 1.350 . S
C1759 C1758 1.434 . S
C1760 C1761 1.369 . S
C1760 C1762 1.419 . S
C1760 H1764 0.930 . S
C1761 C1760 1.369 . S
C1761 C1770 1.429 1_565 S
C1762 C1760 1.419 . S
C1762 C1763 1.363 1_565 S
C1762 H1765 0.929 . S
C1763 C1762 1.363 1_545 S
C1763 C1769 1.428 . S
H1764 C1760 0.930 . S
H1765 C1762 0.929 . S
S1766 N1767 1.613 . S
S1766 N1768 1.610 . S
N1767 S1766 1.613 . S
N1767 C1770 1.350 . S
N1768 S1766 1.610 . S
N1768 C1769 1.351 . S
C1769 C1763 1.428 . S
C1769 N1768 1.351 . S
C1769 C1770 1.434 . S
C1770 C1761 1.429 1_545 S
C1770 N1767 1.350 . S
C1770 C1769 1.434 . S
C1771 C1772 1.369 . S
C1771 C1773 1.419 . S
C1771 H1775 0.930 . S
C1772 C1771 1.369 . S
C1772 C1781 1.429 . S
C1773 C1771 1.419 . S
C1773 C1774 1.363 . S
C1773 H1776 0.929 . S
C1774 C1773 1.363 . S
C1774 C1780 1.428 . S
H1775 C1771 0.930 . S
H1776 C1773 0.929 . S
S1777 N1778 1.613 . S
S1777 N1779 1.610 . S
N1778 S1777 1.613 . S
N1778 C1781 1.350 . S
N1779 S1777 1.610 . S
N1779 C1780 1.351 . S
C1780 C1774 1.428 . S
C1780 N1779 1.351 . S
C1780 C1781 1.434 . S
C1781 C1772 1.429 . S
C1781 N1778 1.350 . S
C1781 C1780 1.434 . S
C1782 C1783 1.369 1_545 S
C1782 C1784 1.419 . S
C1782 H1786 0.930 . S
C1783 C1782 1.369 1_565 S
C1783 C1792 1.429 . S
C1784 C1782 1.419 . S
C1784 C1785 1.363 . S
C1784 H1787 0.929 . S
C1785 C1784 1.363 . S
C1785 C1791 1.428 1_545 S
H1786 C1782 0.930 . S
H1787 C1784 0.929 . S
S1788 N1789 1.613 . S
S1788 N1790 1.610 . S
N1789 S1788 1.613 . S
N1789 C1792 1.350 . S
N1790 S1788 1.610 . S
N1790 C1791 1.351 . S
C1791 C1785 1.428 1_565 S
C1791 N1790 1.351 . S
C1791 C1792 1.434 . S
C1792 C1783 1.429 . S
C1792 N1789 1.350 . S
C1792 C1791 1.434 . S
C1793 C1794 1.369 1_556 S
C1793 C1795 1.419 . S
C1793 H1797 0.930 . S
C1794 C1793 1.369 1_554 S
C1794 C1803 1.429 . S
C1795 C1793 1.419 . S
C1795 C1796 1.363 . S
C1795 H1798 0.929 . S
C1796 C1795 1.363 . S
C1796 C1802 1.428 1_556 S
H1797 C1793 0.930 . S
H1798 C1795 0.929 . S
S1799 N1800 1.613 . S
S1799 N1801 1.610 . S
N1800 S1799 1.613 . S
N1800 C1803 1.350 . S
N1801 S1799 1.610 . S
N1801 C1802 1.351 . S
C1802 C1796 1.428 1_554 S
C1802 N1801 1.351 . S
C1802 C1803 1.434 . S
C1803 C1794 1.429 . S
C1803 N1800 1.350 . S
C1803 C1802 1.434 . S
C1804 C1805 1.369 1_565 S
C1804 C1806 1.419 . S
C1804 H1808 0.930 . S
C1805 C1804 1.369 1_545 S
C1805 C1814 1.429 . S
C1806 C1804 1.419 . S
C1806 C1807 1.363 . S
C1806 H1809 0.929 . S
C1807 C1806 1.363 . S
C1807 C1813 1.428 1_565 S
H1808 C1804 0.930 . S
H1809 C1806 0.929 . S
S1810 N1811 1.613 . S
S1810 N1812 1.610 . S
N1811 S1810 1.613 . S
N1811 C1814 1.350 . S
N1812 S1810 1.610 . S
N1812 C1813 1.351 . S
C1813 C1807 1.428 1_545 S
C1813 N1812 1.351 . S
C1813 C1814 1.434 . S
C1814 C1805 1.429 . S
C1814 N1811 1.350 . S
C1814 C1813 1.434 . S
C1815 C1816 1.369 . S
C1815 C1817 1.419 . S
C1815 H1819 0.930 . S
C1816 C1815 1.369 . S
C1816 C1825 1.429 . S
C1817 C1815 1.419 . S
C1817 C1818 1.363 . S
C1817 H1820 0.929 . S
C1818 C1817 1.363 . S
C1818 C1824 1.428 . S
H1819 C1815 0.930 . S
H1820 C1817 0.929 . S
S1821 N1822 1.613 1_545 S
S1821 N1823 1.610 1_545 S
N1822 S1821 1.613 1_565 S
N1822 C1825 1.350 . S
N1823 S1821 1.610 1_565 S
N1823 C1824 1.351 . S
C1824 C1818 1.428 . S
C1824 N1823 1.351 . S
C1824 C1825 1.434 . S
C1825 C1816 1.429 . S
C1825 N1822 1.350 . S
C1825 C1824 1.434 . S
C1826 C1827 1.369 . S
C1826 C1828 1.419 1_565 S
C1826 H1830 0.930 . S
C1827 C1826 1.369 . S
C1827 C1836 1.429 . S
C1828 C1826 1.419 1_545 S
C1828 C1829 1.363 . S
C1828 H1831 0.929 . S
C1829 C1828 1.363 . S
C1829 C1835 1.428 . S
H1830 C1826 0.930 . S
H1831 C1828 0.929 . S
S1832 N1833 1.613 1_455 S
S1832 N1834 1.610 1_465 S
N1833 S1832 1.613 1_655 S
N1833 C1836 1.350 . S
N1834 S1832 1.610 1_645 S
N1834 C1835 1.351 . S
C1835 C1829 1.428 . S
C1835 N1834 1.351 . S
C1835 C1836 1.434 1_545 S
C1836 C1827 1.429 . S
C1836 N1833 1.350 . S
C1836 C1835 1.434 1_565 S
C1837 C1838 1.369 . S
C1837 C1839 1.419 1_556 S
C1837 H1841 0.930 . S
C1838 C1837 1.369 . S
C1838 C1847 1.429 . S
C1839 C1837 1.419 1_554 S
C1839 C1840 1.363 . S
C1839 H1842 0.929 . S
C1840 C1839 1.363 . S
C1840 C1846 1.428 . S
H1841 C1837 0.930 . S
H1842 C1839 0.929 . S
S1843 N1844 1.613 . S
S1843 N1845 1.610 1_556 S
N1844 S1843 1.613 . S
N1844 C1847 1.350 . S
N1845 S1843 1.610 1_554 S
N1845 C1846 1.351 . S
C1846 C1840 1.428 . S
C1846 N1845 1.351 . S
C1846 C1847 1.434 1_554 S
C1847 C1838 1.429 . S
C1847 N1844 1.350 . S
C1847 C1846 1.434 1_556 S
C1848 C1849 1.369 . S
C1848 C1850 1.419 . S
C1848 H1852 0.930 . S
C1849 C1848 1.369 . S
C1849 C1858 1.429 . S
C1850 C1848 1.419 . S
C1850 C1851 1.363 . S
C1850 H1853 0.929 . S
C1851 C1850 1.363 . S
C1851 C1857 1.428 . S
H1852 C1848 0.930 . S
H1853 C1850 0.929 . S
S1854 N1855 1.613 . S
S1854 N1856 1.610 . S
N1855 S1854 1.613 . S
N1855 C1858 1.350 . S
N1856 S1854 1.610 . S
N1856 C1857 1.351 . S
C1857 C1851 1.428 . S
C1857 N1856 1.351 . S
C1857 C1858 1.434 . S
C1858 C1849 1.429 . S
C1858 N1855 1.350 . S
C1858 C1857 1.434 . S
C1859 C1860 1.369 . S
C1859 C1861 1.419 . S
C1859 H1863 0.930 . S
C1860 C1859 1.369 . S
C1860 C1869 1.429 1_556 S
C1861 C1859 1.419 . S
C1861 C1862 1.363 1_556 S
C1861 H1864 0.929 . S
C1862 C1861 1.363 1_554 S
C1862 C1868 1.428 . S
H1863 C1859 0.930 . S
H1864 C1861 0.929 . S
S1865 N1866 1.613 . S
S1865 N1867 1.610 . S
N1866 S1865 1.613 . S
N1866 C1869 1.350 . S
N1867 S1865 1.610 . S
N1867 C1868 1.351 . S
C1868 C1862 1.428 . S
C1868 N1867 1.351 . S
C1868 C1869 1.434 . S
C1869 C1860 1.429 1_554 S
C1869 N1866 1.350 . S
C1869 C1868 1.434 . S
C1870 C1871 1.369 . S
C1870 C1872 1.419 . S
C1870 H1874 0.930 . S
C1871 C1870 1.369 . S
C1871 C1880 1.429 . S
C1872 C1870 1.419 . S
C1872 C1873 1.363 . S
C1872 H1875 0.929 . S
C1873 C1872 1.363 . S
C1873 C1879 1.428 . S
H1874 C1870 0.930 . S
H1875 C1872 0.929 . S
S1876 N1877 1.613 . S
S1876 N1878 1.610 . S
N1877 S1876 1.613 . S
N1877 C1880 1.350 . S
N1878 S1876 1.610 . S
N1878 C1879 1.351 . S
C1879 C1873 1.428 . S
C1879 N1878 1.351 . S
C1879 C1880 1.434 . S
C1880 C1871 1.429 . S
C1880 N1877 1.350 . S
C1880 C1879 1.434 . S
C1881 C1882 1.369 . S
C1881 C1883 1.419 . S
C1881 H1885 0.930 . S
C1882 C1881 1.369 . S
C1882 C1891 1.429 . S
C1883 C1881 1.419 . S
C1883 C1884 1.363 . S
C1883 H1886 0.929 . S
C1884 C1883 1.363 . S
C1884 C1890 1.428 . S
H1885 C1881 0.930 . S
H1886 C1883 0.929 . S
S1887 N1888 1.613 . S
S1887 N1889 1.610 . S
N1888 S1887 1.613 . S
N1888 C1891 1.350 . S
N1889 S1887 1.610 . S
N1889 C1890 1.351 . S
C1890 C1884 1.428 . S
C1890 N1889 1.351 . S
C1890 C1891 1.434 . S
C1891 C1882 1.429 . S
C1891 N1888 1.350 . S
C1891 C1890 1.434 . S
C1892 C1893 1.369 . S
C1892 C1894 1.419 . S
C1892 H1896 0.930 . S
C1893 C1892 1.369 . S
C1893 C1902 1.429 . S
C1894 C1892 1.419 . S
C1894 C1895 1.363 . S
C1894 H1897 0.929 . S
C1895 C1894 1.363 . S
C1895 C1901 1.428 . S
H1896 C1892 0.930 . S
H1897 C1894 0.929 . S
S1898 N1899 1.613 . S
S1898 N1900 1.610 . S
N1899 S1898 1.613 . S
N1899 C1902 1.350 . S
N1900 S1898 1.610 . S
N1900 C1901 1.351 . S
C1901 C1895 1.428 . S
C1901 N1900 1.351 . S
C1901 C1902 1.434 . S
C1902 C1893 1.429 . S
C1902 N1899 1.350 . S
C1902 C1901 1.434 . S
C1903 C1904 1.369 . S
C1903 C1905 1.419 1_556 S
C1903 H1907 0.930 . S
C1904 C1903 1.369 . S
C1904 C1913 1.429 . S
C1905 C1903 1.419 1_554 S
C1905 C1906 1.363 . S
C1905 H1908 0.929 . S
C1906 C1905 1.363 . S
C1906 C1912 1.428 . S
H1907 C1903 0.930 . S
H1908 C1905 0.929 . S
S1909 N1910 1.613 . S
S1909 N1911 1.610 1_556 S
N1910 S1909 1.613 . S
N1910 C1913 1.350 . S
N1911 S1909 1.610 1_554 S
N1911 C1912 1.351 . S
C1912 C1906 1.428 . S
C1912 N1911 1.351 . S
C1912 C1913 1.434 1_554 S
C1913 C1904 1.429 . S
C1913 N1910 1.350 . S
C1913 C1912 1.434 1_556 S
C1914 C1915 1.369 . S
C1914 C1916 1.419 . S
C1914 H1918 0.930 . S
C1915 C1914 1.369 . S
C1915 C1924 1.429 . S
C1916 C1914 1.419 . S
C1916 C1917 1.363 . S
C1916 H1919 0.929 . S
C1917 C1916 1.363 . S
C1917 C1923 1.428 . S
H1918 C1914 0.930 . S
H1919 C1916 0.929 . S
S1920 N1921 1.613 . S
S1920 N1922 1.610 . S
N1921 S1920 1.613 . S
N1921 C1924 1.350 . S
N1922 S1920 1.610 . S
N1922 C1923 1.351 . S
C1923 C1917 1.428 . S
C1923 N1922 1.351 . S
C1923 C1924 1.434 . S
C1924 C1915 1.429 . S
C1924 N1921 1.350 . S
C1924 C1923 1.434 . S
C1925 C1926 1.369 . S
C1925 C1927 1.419 . S
C1925 H1929 0.930 . S
C1926 C1925 1.369 . S
C1926 C1935 1.429 . S
C1927 C1925 1.419 . S
C1927 C1928 1.363 . S
C1927 H1930 0.929 . S
C1928 C1927 1.363 . S
C1928 C1934 1.428 . S
H1929 C1925 0.930 . S
H1930 C1927 0.929 . S
S1931 N1932 1.613 . S
S1931 N1933 1.610 . S
N1932 S1931 1.613 . S
N1932 C1935 1.350 . S
N1933 S1931 1.610 . S
N1933 C1934 1.351 . S
C1934 C1928 1.428 . S
C1934 N1933 1.351 . S
C1934 C1935 1.434 . S
C1935 C1926 1.429 . S
C1935 N1932 1.350 . S
C1935 C1934 1.434 . S
C1057 C18 1.329 . S
C1059 C945 1.266 . S
C1068 C51 1.328 . S
C1070 C450 1.267 . S
C1079 C84 1.331 . S
C1081 C1011 1.261 . S
C1090 C117 1.326 . S
C1092 C516 1.269 . S
C1101 C813 1.263 . S
C1103 C150 1.329 . S
C1112 C183 1.331 . S
C1114 C318 1.262 . S
C1123 C216 1.326 . S
C1125 C879 1.270 . S
C1134 C384 1.269 . S
C1136 C249 1.328 . S
C1145 C681 1.264 . S
C1147 C282 1.330 . S
C1156 C315 1.327 . S
C1158 C186 1.267 . S
C1167 C348 1.328 . S
C1169 C747 1.267 . S
C1178 C252 1.259 . S
C1180 C381 1.331 . S
C1189 C549 1.266 . S
C1191 C414 1.329 . S
C1200 C54 1.259 . S
C1202 C447 1.331 . S
C1211 C480 1.329 . S
C1213 C615 1.262 . S
C1222 C513 1.332 . S
C1224 C120 1.260 . S
C1233 C546 1.327 . S
C1235 C417 1.269 . S
C1244 C978 1.268 . S
C1246 C579 1.328 . S
C1255 C483 1.261 . S
C1257 C612 1.330 . S
C1266 C1044 1.271 . S
C1268 C645 1.327 . S
C1277 C285 1.271 . S
C1279 C678 1.327 . S
C1288 C711 1.326 . S
C1290 C846 1.270 . S
C1299 C351 1.259 . S
C1301 C744 1.331 . S
C1310 C912 1.261 . S
C1312 C777 1.330 . S
C1321 C153 1.263 . S
C1323 C810 1.330 . S
C1332 C714 1.267 . S
C1334 C843 1.329 . S
C1343 C219 1.267 . S
C1345 C876 1.329 . S
C1354 C780 1.269 . S
C1356 C909 1.328 . S
C1365 C21 1.266 . S
C1367 C942 1.329 . S
C1376 C582 1.262 . S
C1378 C975 1.331 . S
C1387 C1008 1.332 . S
C1389 C87 1.260 . S
C1398 C648 1.263 . S
C1400 C1041 1.330 . S
C1409 C601 0.937 . S
C1411 C7 0.934 . S
C1420 C40 0.945 . S
C1422 C634 0.928 . S
C1431 C535 0.945 1_455 S
C1433 C73 0.927 1_655 S
C1442 C106 0.925 . S
C1444 C568 0.943 . S
C1453 C733 0.920 . S
C1455 C139 0.944 . S
C1464 C766 0.940 . S
C1466 C172 0.927 . S
C1475 C205 0.928 1_655 S
C1477 C667 0.941 1_455 S
C1486 C700 0.945 . S
C1488 C238 0.928 . S
C1497 C271 0.925 . S
C1499 C865 0.939 . S
C1508 C304 0.945 . S
C1510 C898 0.925 . S
C1519 C799 0.924 1_655 S
C1521 C337 0.940 1_455 S
C1530 C832 0.922 . S
C1532 C370 0.942 . S
C1541 C403 0.947 . S
C1543 C997 0.923 . S
C1552 C1030 0.922 . S
C1554 C436 0.942 . S
C1563 C931 0.944 1_655 S
C1565 C469 0.927 1_455 S
C1574 C964 0.940 . S
C1576 C502 0.931 . S
C1585 N2 1.543 . S
C1587 N167 1.542 . S
C1596 N35 1.533 . S
C1598 N200 1.535 . S
C1607 N68 1.535 . S
C1609 N233 1.538 . S
C1618 N101 1.534 . S
C1620 N134 1.535 . S
C1629 N266 1.541 . S
C1631 N431 1.538 . S
C1640 N464 1.541 . S
C1642 N299 1.542 . S
C1651 N497 1.537 . S
C1653 N332 1.540 . S
C1662 N398 1.534 . S
C1664 N365 1.535 . S
C1673 N530 1.535 . S
C1675 N695 1.535 . S
C1684 N563 1.537 . S
C1686 N728 1.540 . S
C1695 N761 1.535 . S
C1697 N596 1.535 . S
C1706 N662 1.540 . S
C1708 N629 1.537 . S
C1717 N794 1.534 . S
C1719 N959 1.536 . S
C1728 N992 1.535 . S
C1730 N827 1.538 . S
C1739 N1025 1.540 . S
C1741 N860 1.541 . S
C1750 N893 1.536 . S
C1752 N926 1.535 . S
C1761 N145 1.686 . S
C1763 N13 1.688 . S
C1772 N46 1.690 . S
C1774 N178 1.688 . S
C1783 N79 1.688 . S
C1785 N211 1.686 . S
C1794 N112 1.685 . S
C1796 N244 1.688 . S
C1805 N409 1.687 . S
C1807 N277 1.685 . S
C1816 N310 1.689 . S
C1818 N442 1.689 . S
C1827 N475 1.684 . S
C1829 N343 1.685 . S
C1838 N376 1.685 . S
C1840 N508 1.687 . S
C1849 N541 1.689 . S
C1851 N673 1.686 . S
C1860 N706 1.689 . S
C1862 N574 1.687 . S
C1871 N739 1.689 . S
C1873 N607 1.687 . S
C1882 N772 1.689 . S
C1884 N640 1.686 . S
C1893 N805 1.684 . S
C1895 N937 1.686 . S
C1904 N838 1.684 . S
C1906 N970 1.686 . S
C1915 N871 1.688 . S
C1917 N1003 1.686 . S
C1926 N904 1.685 . S
C1928 N1036 1.685 . S
