# Generated by pormake.
# Topology sml, (6)-cn, num edge types: 1
# Building blocks:
#     Node 0, Type 0, BuildingBlock: CUKXOW_clean_sbu_0, # of connection points: 6
#     Node 1, Type 0, BuildingBlock: CUKXOW_clean_sbu_0, # of connection points: 6
#     Node 2, Type 0, BuildingBlock: CUKXOW_clean_sbu_0, # of connection points: 6
#     Node 3, Type 0, BuildingBlock: CUKXOW_clean_sbu_0, # of connection points: 6
#     Node 4, Type 0, BuildingBlock: CUKXOW_clean_sbu_0, # of connection points: 6
#     Node 5, Type 0, BuildingBlock: CUKXOW_clean_sbu_0, # of connection points: 6
#     Edge 6, Type (0, 0), BuildingBlock: UVAHIK_clean_linker_0, # of connection points: 2
#     Edge 7, Type (0, 0), BuildingBlock: UVAHIK_clean_linker_0, # of connection points: 2
#     Edge 8, Type (0, 0), BuildingBlock: UVAHIK_clean_linker_0, # of connection points: 2
#     Edge 9, Type (0, 0), BuildingBlock: UVAHIK_clean_linker_0, # of connection points: 2
#     Edge 10, Type (0, 0), BuildingBlock: UVAHIK_clean_linker_0, # of connection points: 2
#     Edge 11, Type (0, 0), BuildingBlock: UVAHIK_clean_linker_0, # of connection points: 2
#     Edge 12, Type (0, 0), BuildingBlock: UVAHIK_clean_linker_0, # of connection points: 2
#     Edge 13, Type (0, 0), BuildingBlock: UVAHIK_clean_linker_0, # of connection points: 2
#     Edge 14, Type (0, 0), BuildingBlock: UVAHIK_clean_linker_0, # of connection points: 2
#     Edge 15, Type (0, 0), BuildingBlock: UVAHIK_clean_linker_0, # of connection points: 2
#     Edge 16, Type (0, 0), BuildingBlock: UVAHIK_clean_linker_0, # of connection points: 2
#     Edge 17, Type (0, 0), BuildingBlock: UVAHIK_clean_linker_0, # of connection points: 2
#     Edge 18, Type (0, 0), BuildingBlock: UVAHIK_clean_linker_0, # of connection points: 2
#     Edge 19, Type (0, 0), BuildingBlock: UVAHIK_clean_linker_0, # of connection points: 2
#     Edge 20, Type (0, 0), BuildingBlock: UVAHIK_clean_linker_0, # of connection points: 2
#     Edge 21, Type (0, 0), BuildingBlock: UVAHIK_clean_linker_0, # of connection points: 2
#     Edge 22, Type (0, 0), BuildingBlock: UVAHIK_clean_linker_0, # of connection points: 2
#     Edge 23, Type (0, 0), BuildingBlock: UVAHIK_clean_linker_0, # of connection points: 2
# Relax obj value: 0.141
# Max RMSD: 0.191
# Mean RMSD: 0.191
data_MOF--net-sml--node1-CUKXOW_clean_sbu_0--edge1-UVAHIK_clean_linker_0
_symmetry_space_group_name_H-M    P1
_symmetry_Int_Tables_number       1
_symmetry_cell_setting            triclinic
loop_
_symmetry_equiv_pos_as_xyz
'x, y, z'
_cell_length_a     54.192262
_cell_length_b     54.091331
_cell_length_c     18.727706
_cell_angle_alpha  90.162662
_cell_angle_beta   89.762431
_cell_angle_gamma 120.02365
loop_
_atom_site_label
_atom_site_type_symbol
_atom_site_fract_x
_atom_site_fract_y
_atom_site_fract_z
_atom_type_partial_charge
Tb0 Tb 0.19836 0.3889 1.03053 0.0
C1 C 0.13427 0.37081 0.06417 0.0
Tb2 Tb 0.18118 0.43636 0.07542 0.0
O3 O 0.2039 0.378 0.14148 0.0
O4 O 0.19246 0.40793 0.12116 0.0
O5 O 0.15179 0.36444 1.02882 0.0
C6 C 0.17088 0.47234 0.14957 0.0
O7 O 0.14256 0.3959 0.09555 0.0
C8 C 0.18261 0.4295 0.93461 0.0
C9 C 0.24464 0.45547 1.03472 0.0
O10 O 0.154 0.45433 0.10199 0.0
O11 O 0.19343 0.46988 0.15581 0.0
O12 O 0.17664 0.44773 0.964 0.0
O13 O 0.18702 0.41713 0.98514 0.0
O14 O 0.22729 0.46153 0.07141 0.0
O15 O 0.23652 0.42991 1.00627 0.0
C16 C 0.2135 0.35656 0.95602 0.0
O17 O 0.23063 0.37942 0.99146 0.0
O18 O 0.18751 0.35166 0.96248 0.0
C19 C 0.1975 0.39583 0.17132 0.0
Tb20 Tb 0.80448 0.20519 0.36561 0.0
C21 C 0.75632 0.142 0.40024 0.0
Tb22 Tb 0.74092 0.19144 0.41047 0.0
O23 O 0.82068 0.20985 0.47655 0.0
O24 O 0.78014 0.20108 0.45615 0.0
O25 O 0.7805 0.15855 0.36479 0.0
C26 C 0.69568 0.18373 0.48501 0.0
O27 O 0.74045 0.15159 0.4309 0.0
C28 C 0.74887 0.19189 0.26972 0.0
C29 C 0.78743 0.25399 0.368 0.0
O30 O 0.6955 0.16646 0.43633 0.0
O31 O 0.7214 0.2052 0.49209 0.0
O32 O 0.72512 0.18726 0.29909 0.0
O33 O 0.76542 0.19561 0.32027 0.0
O34 O 0.76365 0.23772 0.4046 0.0
O35 O 0.80383 0.24442 0.34062 0.0
C36 C 0.85154 0.21917 0.29088 0.0
O37 O 0.84688 0.23654 0.3288 0.0
O38 O 0.82962 0.1935 0.29518 0.0
C39 C 0.79693 0.20501 0.50635 0.0
Tb40 Tb 0.59173 0.80773 0.69405 0.0
C41 C 0.60888 0.76099 0.72746 0.0
Tb42 Tb 0.54365 0.7433 0.73873 0.0
O43 O 0.60331 0.82392 0.80526 0.0
O44 O 0.57252 0.78291 0.78443 0.0
O45 O 0.61573 0.78504 0.69223 0.0
C46 C 0.50694 0.69788 0.81388 0.0
O47 O 0.5837 0.74459 0.75874 0.0
C48 C 0.55055 0.75143 0.59792 0.0
C49 C 0.52539 0.78828 0.69932 0.0
O50 O 0.52388 0.69786 0.76454 0.0
O51 O 0.51089 0.72351 0.82117 0.0
O52 O 0.53232 0.72726 0.62725 0.0
O53 O 0.56285 0.76831 0.64851 0.0
O54 O 0.51905 0.76476 0.73551 0.0
O55 O 0.55096 0.80546 0.67073 0.0
C56 C 0.62333 0.85569 0.62111 0.0
O57 O 0.60177 0.85033 0.66173 0.0
O58 O 0.62745 0.83395 0.62156 0.0
C59 C 0.5851 0.79981 0.83484 0.0
Tb60 Tb 0.78071 0.59585 1.00043 0.0
C61 C 0.84383 0.60893 1.02071 0.0
Tb62 Tb 0.79217 0.54571 0.03952 0.0
O63 O 0.79281 0.61367 0.10787 0.0
O64 O 0.77631 0.57015 0.09116 0.0
O65 O 0.82704 0.61757 0.99164 0.0
C66 C 0.79844 0.50586 0.10646 0.0
O67 O 0.83437 0.58315 0.04883 0.0
C68 C 0.79455 0.55471 0.89948 0.0
C69 C 0.72979 0.53186 1.00864 0.0
O70 O 0.81097 0.53265 0.12491 0.0
O71 O 0.78256 0.50178 0.05106 0.0
O72 O 0.79823 0.53505 0.92862 0.0
O73 O 0.79051 0.56751 0.9499 0.0
O74 O 0.74609 0.52482 0.04605 0.0
O75 O 0.73989 0.55727 0.97783 0.0
C76 C 0.76424 0.63 0.94156 0.0
O77 O 0.7516 0.61262 0.99432 0.0
O78 O 0.78638 0.62833 0.9219 0.0
C79 C 0.78789 0.58984 0.13684 0.0
Tb80 Tb 0.17258 0.78212 0.36315 0.0
C81 C 0.22034 0.84566 0.39608 0.0
Tb82 Tb 0.23656 0.79649 0.40535 0.0
O83 O 0.15773 0.77944 0.47511 0.0
O84 O 0.19799 0.78799 0.4522 0.0
O85 O 0.19549 0.82876 0.36389 0.0
C86 C 0.28204 0.80495 0.47878 0.0
O87 O 0.23702 0.83652 0.42374 0.0
C88 C 0.22791 0.7944 0.26518 0.0
C89 C 0.18933 0.73312 0.36949 0.0
O90 O 0.2821 0.82156 0.4287 0.0
O91 O 0.25632 0.78367 0.48781 0.0
O92 O 0.25206 0.80021 0.29386 0.0
O93 O 0.21118 0.79026 0.31607 0.0
O94 O 0.21371 0.75015 0.40284 0.0
O95 O 0.17226 0.74198 0.34301 0.0
C96 C 0.12369 0.76742 0.2978 0.0
O97 O 0.12678 0.75495 0.35333 0.0
O98 O 0.14839 0.78852 0.27821 0.0
C99 C 0.1817 0.78462 0.50344 0.0
Tb100 Tb 0.38427 0.17711 0.71137 0.0
C101 C 0.36526 0.22248 0.7456 0.0
Tb102 Tb 0.43095 0.24209 0.75541 0.0
O103 O 0.37346 0.16068 0.82246 0.0
O104 O 0.40309 0.2022 0.80169 0.0
O105 O 0.35911 0.19856 0.71053 0.0
C106 C 0.46605 0.28921 0.82743 0.0
O107 O 0.39026 0.23948 0.77657 0.0
C108 C 0.4241 0.23366 0.61472 0.0
C109 C 0.45108 0.19852 0.71495 0.0
O110 O 0.44771 0.28722 0.77998 0.0
O111 O 0.46441 0.26454 0.83483 0.0
O112 O 0.44204 0.25798 0.64377 0.0
O113 O 0.41199 0.21684 0.66549 0.0
O114 O 0.45674 0.22182 0.75167 0.0
O115 O 0.42563 0.18076 0.68682 0.0
C116 C 0.35285 0.12945 0.63706 0.0
O117 O 0.37516 0.13517 0.67459 0.0
O118 O 0.34795 0.15063 0.64142 0.0
C119 C 0.3911 0.18502 0.85202 0.0
C120 C 0.31446 0.2123 0.74058 0.0
C121 C 0.34373 0.23163 0.74974 0.0
C122 C 0.29461 0.22168 0.74667 0.0
C123 C 0.28945 0.28707 0.73794 0.0
H124 H 0.22928 0.2518 0.87955 0.0
C125 C 0.25184 0.35042 0.90152 0.0
C126 C 0.22273 0.3392 0.91557 0.0
C127 C 0.26138 0.33411 0.866 0.0
C128 C 0.24553 0.2615 0.83861 0.0
H129 H 0.37511 0.276 0.77044 0.0
H130 H 0.34086 0.29212 0.78034 0.0
H131 H 0.25573 0.22796 0.84345 0.0
H132 H 0.18061 0.30229 0.9032 0.0
H133 H 0.19753 0.27319 0.84187 0.0
H134 H 0.28042 0.32129 0.73574 0.0
C135 C 0.33311 0.26981 0.76853 0.0
C136 C 0.26064 0.24787 0.81795 0.0
C137 C 0.35274 0.26045 0.76357 0.0
C138 C 0.20318 0.31139 0.89275 0.0
C139 C 0.21283 0.29478 0.85797 0.0
C140 C 0.27444 0.30065 0.75853 0.0
C141 C 0.30386 0.2506 0.76038 0.0
C142 C 0.28357 0.26119 0.76977 0.0
C143 C 0.24206 0.30605 0.84434 0.0
C144 C 0.25319 0.28861 0.81133 0.0
H145 H 0.3069 0.18994 0.72999 0.0
H146 H 0.27213 0.20644 0.74039 0.0
H147 H 0.3067 0.29756 0.69973 0.0
H148 H 0.26736 0.37182 0.91852 0.0
H149 H 0.28407 0.34322 0.8573 0.0
C150 C 0.09366 0.31997 0.05878 0.0
C151 C 0.10361 0.34926 0.06865 0.0
C152 C 0.06451 0.3 0.06556 0.0
C153 C -0.00621 0.2944 0.06189 0.0
H154 H 0.97053 0.23404 0.20205 0.0
C155 C 0.8958 0.25727 0.23548 0.0
C156 C 0.87759 0.2281 0.24855 0.0
C157 C 0.92105 0.26659 0.19748 0.0
C158 C 0.9766 0.25032 0.16146 0.0
H159 H 0.09072 0.38059 0.09124 0.0
H160 H 0.04041 0.34609 0.10243 0.0
H161 H 0.02039 0.26078 0.16288 0.0
H162 H 0.8712 0.18564 0.23201 0.0
H163 H 0.91631 0.2022 0.16645 0.0
H164 H 0.95053 0.28518 0.06341 0.0
C165 C 0.05493 0.33843 0.08946 0.0
C166 C 0.0051 0.26561 0.13907 0.0
C167 C 0.08387 0.3582 0.08377 0.0
C168 C 0.88496 0.20826 0.22239 0.0
C169 C 0.91066 0.2177 0.18516 0.0
C170 C 0.96545 0.27922 0.08424 0.0
C171 C 0.0449 0.30913 0.08077 0.0
C172 C 0.01415 0.28864 0.09154 0.0
C173 C 0.92889 0.24699 0.17235 0.0
C174 C 0.95687 0.25793 0.1366 0.0
H175 H 0.1084 0.31246 0.04719 0.0
H176 H 0.0573 0.2775 0.05881 0.0
H177 H 0.00011 0.31171 1.02417 0.0
H178 H 0.89061 0.27301 0.25495 0.0
H179 H 0.93489 0.28932 0.18944 0.0
C180 C 0.71755 0.09237 0.42625 0.0
C181 C 0.74597 0.11103 0.40614 0.0
C182 C 0.70731 0.06319 0.43281 0.0
C183 C 0.72871 0.01099 0.47243 0.0
H184 H 0.65176 0.95812 0.40933 0.0
C185 C 0.66629 0.89005 0.54959 0.0
C186 C 0.63974 0.88239 0.58051 0.0
C187 C 0.6819 0.91628 0.51404 0.0
C188 C 0.67336 0.97257 0.42679 0.0
H189 H 0.78595 0.11356 0.37695 0.0
H190 H 0.76793 0.06213 0.38966 0.0
H191 H 0.67489 0.00793 0.37194 0.0
H192 H 0.60836 0.8955 0.59732 0.0
H193 H 0.63517 0.9407 0.53496 0.0
H194 H 0.72653 0.97567 0.52993 0.0
C195 C 0.75368 0.07036 0.39987 0.0
C196 C 0.68658 0.00106 0.4055 0.0
C197 C 0.76393 0.09972 0.39243 0.0
C198 C 0.62878 0.90089 0.57404 0.0
C199 C 0.64405 0.92669 0.53785 0.0
C200 C 0.71543 0.98234 0.49376 0.0
C201 C 0.7252 0.05182 0.41988 0.0
C202 C 0.7139 0.02082 0.43049 0.0
C203 C 0.67082 0.93479 0.50781 0.0
C204 C 0.68719 0.96318 0.47344 0.0
H205 H 0.70303 0.10024 0.43695 0.0
H206 H 0.68539 0.04955 0.44954 0.0
H207 H 0.74977 0.02577 0.49259 0.0
H208 H 0.67516 0.87609 0.55406 0.0
H209 H 0.70252 0.92207 0.4914 0.0
C210 C 0.62067 0.72317 0.7557 0.0
C211 C 0.62988 0.75115 0.7325 0.0
C212 C 0.63977 0.71324 0.76193 0.0
C213 C 0.71426 0.7359 0.79315 0.0
H214 H 0.68732 0.65637 0.7478 0.0
C215 C 0.77103 0.6696 0.85989 0.0
C216 C 0.75371 0.64731 0.90687 0.0
C217 C 0.76032 0.68542 0.82634 0.0
C218 C 0.69529 0.67871 0.75979 0.0
H219 H 0.66659 0.79066 0.69716 0.0
H220 H 0.70039 0.77312 0.70882 0.0
H221 H 0.66063 0.67886 0.70632 0.0
H222 H 0.71186 0.62392 0.95565 0.0
H223 H 0.69299 0.6509 0.89551 0.0
H224 H 0.74856 0.73517 0.84859 0.0
C225 C 0.67816 0.759 0.72195 0.0
C226 C 0.68001 0.69156 0.73643 0.0
C227 C 0.65883 0.76898 0.71512 0.0
C228 C 0.72565 0.64104 0.9198 0.0
C229 C 0.71484 0.65636 0.88529 0.0
C230 C 0.72979 0.72304 0.81596 0.0
C231 C 0.66871 0.73093 0.74519 0.0
C232 C 0.68857 0.71987 0.7557 0.0
C233 C 0.73202 0.67859 0.83823 0.0
C234 C 0.7197 0.69404 0.80181 0.0
H235 H 0.59857 0.7087 0.76934 0.0
H236 H 0.63186 0.69172 0.78146 0.0
H237 H 0.72132 0.75771 0.80897 0.0
H238 H 0.79277 0.67481 0.84928 0.0
H239 H 0.77388 0.70254 0.79022 0.0
C240 C 0.09464 0.76483 0.19079 0.0
C241 C 0.09622 0.75736 0.2617 0.0
C242 C 0.06834 0.75194 0.15526 0.0
C243 C -0.00074 0.68547 0.1643 0.0
H244 H 0.9716 0.72266 0.03723 0.0
C245 C 0.88524 0.65826 0.03847 0.0
C246 C 0.8747 0.62911 1.02512 0.0
C247 C 0.91409 0.67621 0.05477 0.0
C248 C 0.97906 0.71202 0.07268 0.0
H249 H 0.07171 0.73235 0.3527 0.0
H250 H 0.02612 0.71059 0.29193 0.0
H251 H 0.01827 0.75078 0.09457 0.0
H252 H 0.88622 0.59639 1.01144 0.0
H253 H 0.93653 0.62775 0.03673 0.0
H254 H 0.96012 0.64712 0.14559 0.0
C255 C 0.04503 0.7256 0.26271 0.0
C256 C 0.00584 0.72807 0.10498 0.0
C257 C 0.07113 0.73818 0.29768 0.0
C258 C 0.89374 0.61869 1.02283 0.0
C259 C 0.92253 0.63665 0.0377 0.0
C260 C 0.97269 0.66958 0.13245 0.0
C261 C 0.0434 0.73157 0.19049 0.0
C262 C 0.01596 0.71496 0.15206 0.0
C263 C 0.93286 0.66532 0.05697 0.0
C264 C 0.9621 0.68258 0.08655 0.0
H265 H 0.11379 0.7796 0.16202 0.0
H266 H 0.06772 0.75696 0.09959 0.0
H267 H 0.00664 0.6746 0.19926 0.0
H268 H 0.87091 0.66677 0.04066 0.0
H269 H 0.92127 0.69814 0.06962 0.0
C270 C 0.30924 0.09513 0.56834 0.0
C271 C 0.3363 0.103 0.59562 0.0
C272 C 0.29352 0.06924 0.5315 0.0
C273 C 0.30189 0.01488 0.43293 0.0
H274 H 0.22678 0.95988 0.50388 0.0
C275 C 0.25929 0.89552 0.41815 0.0
C276 C 0.23046 0.87657 0.40275 0.0
C277 C 0.2693 0.92456 0.427 0.0
C278 C 0.24743 0.97518 0.48224 0.0
H279 H 0.36848 0.09058 0.60476 0.0
H280 H 0.34143 0.0459 0.53995 0.0
H281 H 0.24995 0.00937 0.54616 0.0
H282 H 0.18953 0.87341 0.38375 0.0
H283 H 0.20716 0.92464 0.40029 0.0
H284 H 0.3 0.98067 0.37123 0.0
C285 C 0.33224 0.05953 0.54678 0.0
C286 C 0.26069 0.00348 0.50648 0.0
C287 C 0.34765 0.08501 0.58432 0.0
C288 C 0.21187 0.88749 0.39548 0.0
C289 C 0.22191 0.91673 0.40517 0.0
C290 C 0.28866 0.98675 0.4086 0.0
C291 C 0.30497 0.05126 0.52031 0.0
C292 C 0.28851 0.02325 0.48417 0.0
C293 C 0.25077 0.93553 0.42104 0.0
C294 C 0.26182 0.96632 0.43526 0.0
H295 H 0.30006 0.1087 0.57654 0.0
H296 H 0.27252 0.06331 0.51166 0.0
H297 H 0.32314 0.02984 0.41393 0.0
H298 H 0.2743 0.88795 0.42375 0.0
H299 H 0.29153 0.93836 0.44042 0.0
C300 C 0.19404 0.40743 0.83014 0.0
C301 C 0.18448 0.42546 0.85692 0.0
C302 C 0.19584 0.40424 0.75615 0.0
C303 C 0.19842 0.43933 0.58242 0.0
H304 H 0.17752 0.36527 0.50244 0.0
C305 C 0.1854 0.41681 0.27699 0.0
C306 C 0.19618 0.39997 0.24922 0.0
C307 C 0.18417 0.42013 0.35109 0.0
C308 C 0.1837 0.38619 0.52388 0.0
H309 H 0.16915 0.45411 0.82761 0.0
H310 H 0.17174 0.44825 0.69941 0.0
H311 H 0.17549 0.37053 0.63134 0.0
H312 H 0.21392 0.3732 0.27706 0.0
H313 H 0.21188 0.37898 0.4057 0.0
H314 H 0.20642 0.45492 0.47483 0.0
C315 C 0.17841 0.43692 0.73486 0.0
C316 C 0.1826 0.38922 0.598 0.0
C317 C 0.17671 0.44014 0.80852 0.0
C318 C 0.20549 0.38634 0.29688 0.0
C319 C 0.20417 0.38953 0.37072 0.0
C320 C 0.19941 0.43627 0.50831 0.0
C321 C 0.18808 0.41902 0.70742 0.0
C322 C 0.18988 0.41583 0.6284 0.0
C323 C 0.19348 0.40644 0.39897 0.0
C324 C 0.19207 0.40966 0.47798 0.0
H325 H 0.20036 0.39604 0.86628 0.0
H326 H 0.20371 0.39053 0.73721 0.0
H327 H 0.2047 0.46029 0.6037 0.0
H328 H 0.17753 0.42705 0.24161 0.0
H329 H 0.17543 0.433 0.37088 0.0
C330 C 0.73241 0.18641 0.14363 0.0
C331 C 0.75468 0.19339 0.19201 0.0
C332 C 0.73725 0.18787 0.06996 0.0
C333 C 0.78801 0.1898 0.93288 0.0
H334 H 0.74837 0.21615 0.81022 0.0
C335 C 0.81428 0.21216 0.63197 0.0
C336 C 0.79151 0.2038 0.58426 0.0
C337 C 0.8098 0.21095 0.70581 0.0
C338 C 0.75937 0.20843 0.84355 0.0
H339 H 0.79962 0.20769 0.20129 0.0
H340 H 0.80836 0.21059 0.07222 0.0
H341 H 0.74136 0.21467 0.93909 0.0
H342 H 0.74606 0.18684 0.57656 0.0
H343 H 0.73807 0.18497 0.70582 0.0
H344 H 0.80615 0.18375 0.83717 0.0
C345 C 0.78694 0.20349 0.09119 0.0
C346 C 0.75536 0.20757 0.91766 0.0
C347 C 0.78202 0.20193 0.16519 0.0
C348 C 0.76407 0.19404 0.61198 0.0
C349 C 0.75955 0.19291 0.68608 0.0
C350 C 0.79209 0.19075 0.85876 0.0
C351 C 0.76459 0.19653 0.04248 0.0
C352 C 0.76953 0.19814 0.96347 0.0
C353 C 0.78239 0.2013 0.73402 0.0
C354 C 0.77779 0.20004 0.81303 0.0
H355 H 0.71107 0.17965 0.16275 0.0
H356 H 0.71938 0.18183 1.03452 0.0
H357 H 0.79895 0.18198 0.96609 0.0
H358 H 0.83571 0.21978 0.61219 0.0
H359 H 0.82796 0.21794 0.74083 0.0
C360 C 0.54067 0.73453 0.47176 0.0
C361 C 0.55487 0.75717 0.52022 0.0
C362 C 0.54408 0.73931 0.39809 0.0
C363 C 0.59154 0.79141 0.26152 0.0
H364 H 0.52637 0.74878 0.13783 0.0
C365 C 0.59462 0.81716 0.96074 0.0
C366 C 0.58111 0.79424 0.91269 0.0
C367 C 0.59145 0.81258 1.03452 0.0
C368 C 0.54488 0.76063 0.17143 0.0
H369 H 0.58357 0.80267 0.52962 0.0
H370 H 0.58946 0.81128 0.40059 0.0
H371 H 0.52083 0.74167 0.2666 0.0
H372 H 0.5544 0.74843 0.90433 0.0
H373 H 0.54846 0.74023 1.03347 0.0
H374 H 0.61553 0.81049 0.1662 0.0
C375 C 0.576 0.78965 0.4195 0.0
C376 C 0.54172 0.75656 0.2455 0.0
C377 C 0.57261 0.7848 0.49347 0.0
C378 C 0.56447 0.76653 0.94002 0.0
C379 C 0.56118 0.76189 1.01405 0.0
C380 C 0.59468 0.79554 0.18744 0.0
C381 C 0.5617 0.76694 0.3707 0.0
C382 C 0.56502 0.77182 0.2917 0.0
C383 C 0.57469 0.78489 0.06235 0.0
C384 C 0.57139 0.78019 0.14132 0.0
H385 H 0.52693 0.71297 0.49081 0.0
H386 H 0.53312 0.72119 0.36259 0.0
H387 H 0.61009 0.80322 0.29503 0.0
H388 H 0.60762 0.83879 0.94126 0.0
H389 H 0.60187 0.83085 0.06979 0.0
C390 C 0.79029 0.53736 0.77447 0.0
C391 C 0.79319 0.55881 0.8219 0.0
C392 C 0.78914 0.54069 0.7008 0.0
C393 C 0.81122 0.59472 0.56088 0.0
H394 H 0.75382 0.53295 0.44653 0.0
C395 C 0.79811 0.60928 0.26078 0.0
C396 C 0.78944 0.58591 0.21454 0.0
C397 C 0.79854 0.60589 0.33462 0.0
C398 C 0.77033 0.55028 0.47726 0.0
H399 H 0.7977 0.60074 0.82953 0.0
H400 H 0.79603 0.60687 0.70013 0.0
H401 H 0.75424 0.52747 0.57562 0.0
H402 H 0.77459 0.54063 0.20927 0.0
H403 H 0.77656 0.53478 0.33814 0.0
H404 H 0.82795 0.61729 0.46297 0.0
C405 C 0.7944 0.58735 0.72021 0.0
C406 C 0.77041 0.54717 0.55144 0.0
C407 C 0.79513 0.5838 0.79421 0.0
C408 C 0.78155 0.55906 0.24362 0.0
C409 C 0.78236 0.5557 0.31767 0.0
C410 C 0.8114 0.5977 0.48662 0.0
C411 C 0.79131 0.56575 0.67273 0.0
C412 C 0.79082 0.56937 0.59409 0.0
C413 C 0.79069 0.57906 0.36437 0.0
C414 C 0.79089 0.57557 0.44361 0.0
H415 H 0.7888 0.51787 0.79435 0.0
H416 H 0.78708 0.52382 0.66565 0.0
H417 H 0.82748 0.61203 0.59222 0.0
H418 H 0.80413 0.63023 0.23998 0.0
H419 H 0.80452 0.6243 0.36838 0.0
C420 C 0.21507 0.79668 0.60782 0.0
C421 C 0.18742 0.78587 0.58094 0.0
C422 C 0.21969 0.79778 0.68178 0.0
C423 C 0.18551 0.79664 0.85583 0.0
H424 H 0.2399 0.77734 0.93339 0.0
C425 C 0.19479 0.78217 0.16028 0.0
C426 C 0.22244 0.79346 0.18758 0.0
C427 C 0.19032 0.78123 0.08629 0.0
C428 C 0.22482 0.78308 0.91264 0.0
H429 H 0.14295 0.76782 0.60998 0.0
H430 H 0.15083 0.76935 0.7381 0.0
H431 H 0.23323 0.7764 0.80452 0.0
H432 H 0.26706 0.81238 0.15919 0.0
H433 H 0.25941 0.81097 1.03086 0.0
H434 H 0.17704 0.80324 0.96399 0.0
C435 C 0.1691 0.77738 0.70276 0.0
C436 C 0.22104 0.78259 0.83859 0.0
C437 C 0.16454 0.77633 0.62917 0.0
C438 C 0.24547 0.80356 0.13968 0.0
C439 C 0.24106 0.80258 0.06601 0.0
C440 C 0.18926 0.79709 0.92987 0.0
C441 C 0.19672 0.78818 0.73026 0.0
C442 C 0.2013 0.78932 0.80913 0.0
C443 C 0.21344 0.79137 0.03817 0.0
C444 C 0.20898 0.79034 0.95931 0.0
H445 H 0.23312 0.80475 0.57189 0.0
H446 H 0.24131 0.80661 0.70098 0.0
H447 H 0.17045 0.80242 0.83516 0.0
H448 H 0.17663 0.7736 0.19589 0.0
H449 H 0.16871 0.77206 0.06676 0.0
C450 C 0.43428 0.25029 0.48851 0.0
C451 C 0.41999 0.22774 0.53712 0.0
C452 C 0.43085 0.24541 0.41491 0.0
C453 C 0.4092 0.1889 0.27792 0.0
H454 H 0.40283 0.24357 0.15716 0.0
C455 C 0.38164 0.16755 0.97772 0.0
C456 C 0.39514 0.19051 0.92986 0.0
C457 C 0.38479 0.17207 0.05151 0.0
C458 C 0.40497 0.22827 0.18984 0.0
H459 H 0.39119 0.18227 0.5469 0.0
H460 H 0.38494 0.17355 0.41781 0.0
H461 H 0.40734 0.25089 0.28597 0.0
H462 H 0.42205 0.2363 0.92177 0.0
H463 H 0.42826 0.24437 0.05081 0.0
H464 H 0.407 0.16636 0.18181 0.0
C465 C 0.39892 0.19509 0.43668 0.0
C466 C 0.40749 0.23243 0.26391 0.0
C467 C 0.4023 0.20005 0.51061 0.0
C468 C 0.41178 0.21819 0.95735 0.0
C469 C 0.41501 0.22278 1.03139 0.0
C470 C 0.40675 0.18477 0.20379 0.0
C471 C 0.41311 0.21777 0.38784 0.0
C472 C 0.40969 0.21284 0.30901 0.0
C473 C 0.40155 0.19974 0.07957 0.0
C474 C 0.4046 0.2044 0.15862 0.0
H475 H 0.44818 0.27186 0.50738 0.0
H476 H 0.44249 0.26331 0.37915 0.0
H477 H 0.41128 0.1736 0.31076 0.0
H478 H 0.36849 0.14595 0.95812 0.0
H479 H 0.37366 0.15385 0.0866 0.0
C480 C 0.18695 0.51337 0.23365 0.0
C481 C 0.16671 0.49437 0.18489 0.0
C482 C 0.18457 0.53603 0.26185 0.0
C483 C 0.15489 0.58185 0.21749 0.0
H484 H 0.17582 0.60862 0.41214 0.0
C485 C 0.15753 0.68425 0.31797 0.0
C486 C 0.18173 0.70298 0.35786 0.0
C487 C 0.1516 0.65642 0.30328 0.0
C488 C 0.17004 0.60149 0.35751 0.0
H489 H 0.12755 0.48336 0.12924 0.0
H490 H 0.1233 0.52297 0.17869 0.0
H491 H 0.17272 0.56381 0.3755 0.0
H492 H 0.21819 0.7067 0.41529 0.0
H493 H 0.20807 0.65859 0.3889 0.0
H494 H 0.15302 0.61986 0.19876 0.0
C495 C 0.14116 0.52054 0.19461 0.0
C496 C 0.16823 0.57581 0.33658 0.0
C497 C 0.14349 0.49779 0.16664 0.0
C498 C 0.19937 0.69295 0.38431 0.0
C499 C 0.19345 0.6652 0.36965 0.0
C500 C 0.15677 0.60756 0.23835 0.0
C501 C 0.16193 0.54019 0.24162 0.0
C502 C 0.16112 0.56595 0.266 0.0
C503 C 0.16969 0.64668 0.32825 0.0
C504 C 0.16486 0.61796 0.30827 0.0
H505 H 0.20506 0.51119 0.24854 0.0
H506 H 0.20109 0.55095 0.29733 0.0
H507 H 0.14972 0.57505 0.16245 0.0
H508 H 0.14339 0.69117 0.29697 0.0
H509 H 0.13293 0.64258 0.27195 0.0
C510 C 0.64286 0.15983 0.50009 0.0
C511 C 0.67023 0.18117 0.52069 0.0
C512 C 0.61869 0.15931 0.52849 0.0
C513 C 0.59731 0.20785 0.60996 0.0
H514 H 0.52654 0.13815 0.65129 0.0
C515 C 0.5018 0.21101 0.73237 0.0
C516 C 0.47501 0.1932 0.70134 0.0
C517 C 0.52503 0.20757 0.7159 0.0
C518 C 0.54611 0.15777 0.63949 0.0
H519 H 0.69395 0.21782 0.58946 0.0
H520 H 0.65183 0.21664 0.64023 0.0
H521 H 0.56851 0.13555 0.61421 0.0
H522 H 0.45149 0.1571 0.63037 0.0
H523 H 0.49226 0.15127 0.60123 0.0
H524 H 0.57502 0.23008 0.6346 0.0
C525 C 0.64894 0.20067 0.60097 0.0
C526 C 0.57015 0.15629 0.61827 0.0
C527 C 0.67306 0.20126 0.57231 0.0
C528 C 0.47181 0.17123 0.65519 0.0
C529 C 0.49514 0.16779 0.63871 0.0
C530 C 0.57338 0.20932 0.63131 0.0
C531 C 0.62147 0.18009 0.57822 0.0
C532 C 0.59603 0.18135 0.60319 0.0
C533 C 0.52212 0.18626 0.66795 0.0
C534 C 0.54751 0.18433 0.6463 0.0
H535 H 0.64013 0.14411 0.46023 0.0
H536 H 0.59791 0.1433 0.50934 0.0
H537 H 0.61666 0.22753 0.59718 0.0
H538 H 0.50506 0.22798 0.76875 0.0
H539 H 0.54541 0.22181 0.74036 0.0
C540 C 0.29264 0.47543 0.97563 0.0
C541 C 0.27414 0.47901 1.02191 0.0
C542 C 0.31977 0.4984 0.96022 0.0
C543 C 0.35848 0.57684 0.95668 0.0
H544 H 0.42604 0.56985 0.93876 0.0
C545 C 0.46742 0.67526 0.90242 0.0
C546 C 0.4842 0.67236 0.84957 0.0
C547 C 0.4437 0.65118 0.93051 0.0
C548 C 0.40731 0.57207 0.94312 0.0
H549 H 0.27028 0.50932 0.09069 0.0
H550 H 0.31744 0.54905 0.06423 0.0
H551 H 0.38072 0.5283 0.97391 0.0
H552 H 0.49029 0.64216 0.78663 0.0
H553 H 0.4485 0.59996 0.83484 0.0
H554 H 0.38465 0.62028 0.92484 0.0
C555 C 0.3108 0.52866 0.0388 0.0
C556 C 0.38138 0.54829 0.96321 0.0
C557 C 0.28376 0.50579 0.05415 0.0
C558 C 0.47765 0.64493 0.82745 0.0
C559 C 0.4538 0.62078 0.85529 0.0
C560 C 0.38428 0.60051 0.93654 0.0
C561 C 0.32894 0.52539 0.99075 0.0
C562 C 0.35669 0.55046 0.97029 0.0
C563 C 0.43616 0.62369 0.90592 0.0
C564 C 0.40904 0.59847 0.92958 0.0
H565 H 0.28595 0.45509 0.9499 0.0
H566 H 0.3332 0.49526 0.92261 0.0
H567 H 0.33974 0.57909 0.96015 0.0
H568 H 0.47218 0.6962 0.9208 0.0
H569 H 0.43093 0.65414 0.97056 0.0
C570 C 0.77809 0.29482 0.37956 0.0
C571 C 0.79506 0.2839 0.35304 0.0
C572 C 0.78387 0.32219 0.36078 0.0
C573 C 0.80679 0.38547 0.33366 0.0
H574 H 0.82051 0.40237 0.13154 0.0
C575 C 0.81815 0.48849 0.20284 0.0
C576 C 0.80198 0.4833 0.14045 0.0
C577 C 0.82133 0.46662 0.23348 0.0
C578 C 0.81679 0.39801 0.18819 0.0
H579 H 0.8323 0.29387 0.28856 0.0
H580 H 0.84239 0.34165 0.25614 0.0
H581 H 0.81916 0.35989 0.179 0.0
H582 H 0.77636 0.45143 0.06138 0.0
H583 H 0.78189 0.41353 0.11442 0.0
H584 H 0.80327 0.42316 0.34185 0.0
C585 C 0.82438 0.32883 0.29073 0.0
C586 C 0.81632 0.37382 0.21556 0.0
C587 C 0.81862 0.30146 0.30955 0.0
C588 C 0.78905 0.45605 0.10935 0.0
C589 C 0.79238 0.43439 0.13945 0.0
C590 C 0.80737 0.4098 0.30621 0.0
C591 C 0.80675 0.3393 0.31503 0.0
C592 C 0.81068 0.3669 0.28831 0.0
C593 C 0.80863 0.43941 0.20161 0.0
C594 C 0.81165 0.41589 0.23284 0.0
H595 H 0.75983 0.28198 0.41342 0.0
H596 H 0.76968 0.32946 0.37981 0.0
H597 H 0.80272 0.38088 0.39012 0.0
H598 H 0.82828 0.50935 0.22783 0.0
H599 H 0.83399 0.47106 0.28141 0.0
C600 C 0.30496 0.78855 0.56728 0.0
C601 C 0.30761 0.80788 0.51393 0.0
C602 C 0.32916 0.78932 0.5953 0.0
C603 C 0.40813 0.83296 0.60644 0.0
H604 H 0.40218 0.75885 0.62688 0.0
C605 C 0.50536 0.81597 0.63928 0.0
C606 C 0.50203 0.79445 0.68694 0.0
C607 C 0.48232 0.81995 0.62381 0.0
C608 C 0.40413 0.77972 0.6224 0.0
H609 H 0.33746 0.84387 0.44984 0.0
H610 H 0.37982 0.84495 0.49782 0.0
H611 H 0.36063 0.76167 0.59132 0.0
H612 H 0.47219 0.76124 0.75845 0.0
H613 H 0.4324 0.76833 0.7318 0.0
H614 H 0.45199 0.8509 0.63635 0.0
C615 C 0.35913 0.82942 0.51879 0.0
C616 C 0.38026 0.78135 0.60216 0.0
C617 C 0.33488 0.82873 0.49105 0.0
C618 C 0.47551 0.77778 0.72074 0.0
C619 C 0.4526 0.78176 0.70532 0.0
C620 C 0.43213 0.83133 0.62655 0.0
C621 C 0.3565 0.80931 0.57013 0.0
C622 C 0.38192 0.80796 0.59401 0.0
C623 C 0.45555 0.80247 0.65567 0.0
C624 C 0.43032 0.80465 0.63487 0.0
H625 H 0.28414 0.7724 0.58621 0.0
H626 H 0.32643 0.7739 0.63585 0.0
H627 H 0.41006 0.85379 0.60115 0.0
H628 H 0.5255 0.82922 0.61239 0.0
H629 H 0.4852 0.83601 0.58504 0.0
C630 C 0.68081 0.51567 0.95991 0.0
C631 C 0.69927 0.51013 1.00052 0.0
C632 C 0.65241 0.49435 0.94956 0.0
C633 C 0.5964 0.42342 1.01743 0.0
H634 H 0.56756 0.4127 0.82402 0.0
C635 C 0.50733 0.31586 0.90921 0.0
C636 C 0.48783 0.31603 0.8605 0.0
C637 C 0.53 0.34153 0.93433 0.0
C638 C 0.57505 0.41567 0.87862 0.0
H639 H 0.70205 0.47793 0.06348 0.0
H640 H 0.65306 0.44095 0.04449 0.0
H641 H 0.61321 0.45451 0.85279 0.0
H642 H 0.47581 0.3429 0.80208 0.0
H643 H 0.5155 0.38784 0.84596 0.0
H644 H 0.55865 0.38394 0.04241 0.0
C645 C 0.66025 0.46182 1.0215 0.0
C646 C 0.60122 0.43968 0.89516 0.0
C647 C 0.68851 0.48305 1.03188 0.0
C648 C 0.49065 0.34222 0.8395 0.0
C649 C 0.51342 0.36791 0.86429 0.0
C650 C 0.57028 0.39935 1.00079 0.0
C651 C 0.6419 0.46707 0.97965 0.0
C652 C 0.61252 0.44351 0.96438 0.0
C653 C 0.53365 0.36784 0.91089 0.0
C654 C 0.55961 0.39492 0.93086 0.0
H655 H 0.68835 0.53633 0.93527 0.0
H656 H 0.63874 0.49918 0.91762 0.0
H657 H 0.60422 0.42602 0.07163 0.0
H658 H 0.5056 0.29592 0.9262 0.0
H659 H 0.54538 0.34076 0.96966 0.0
loop_
_geom_bond_atom_site_label_1
_geom_bond_atom_site_label_2
_geom_bond_distance
_geom_bond_site_symmetry_2
_ccdc_geom_bond_type
Tb0 O3 2.453 . S
Tb0 O4 2.596 . S
Tb0 O5 2.374 . S
Tb0 O13 2.343 1_554 S
Tb0 O15 2.353 . S
Tb0 O17 2.427 1_554 S
Tb0 O18 2.513 1_554 S
C1 O5 1.251 . S
C1 O7 1.263 . S
Tb2 O4 2.343 1_556 S
Tb2 O7 2.353 1_556 S
Tb2 O10 2.427 1_556 S
Tb2 O11 2.513 1_556 S
Tb2 O12 2.453 . S
Tb2 O13 2.596 . S
Tb2 O14 2.374 . S
O3 Tb0 2.453 . S
O3 C19 1.245 . S
O4 Tb0 2.596 . S
O4 Tb2 2.343 1_554 S
O4 C19 1.259 . S
O5 Tb0 2.374 . S
O5 C1 1.251 . S
C6 O10 1.275 . S
C6 O11 1.246 . S
O7 C1 1.263 . S
O7 Tb2 2.353 1_554 S
C8 O12 1.245 . S
C8 O13 1.259 . S
C9 O14 1.250 . S
C9 O15 1.263 1_556 S
O10 Tb2 2.427 1_554 S
O10 C6 1.275 . S
O11 Tb2 2.513 1_554 S
O11 C6 1.246 . S
O12 Tb2 2.453 . S
O12 C8 1.245 . S
O13 Tb0 2.343 1_556 S
O13 Tb2 2.596 . S
O13 C8 1.259 . S
O14 Tb2 2.374 . S
O14 C9 1.250 . S
O15 Tb0 2.353 . S
O15 C9 1.263 1_554 S
C16 O17 1.275 . S
C16 O18 1.246 . S
O17 Tb0 2.427 1_556 S
O17 C16 1.275 . S
O18 Tb0 2.513 1_556 S
O18 C16 1.246 . S
C19 O3 1.245 . S
C19 O4 1.259 . S
Tb20 O23 2.453 . S
Tb20 O24 2.596 . S
Tb20 O25 2.374 . S
Tb20 O33 2.343 . S
Tb20 O35 2.353 . S
Tb20 O37 2.427 . S
Tb20 O38 2.513 . S
C21 O25 1.251 . S
C21 O27 1.263 . S
Tb22 O24 2.343 . S
Tb22 O27 2.353 . S
Tb22 O30 2.427 . S
Tb22 O31 2.513 . S
Tb22 O32 2.453 . S
Tb22 O33 2.596 . S
Tb22 O34 2.374 . S
O23 Tb20 2.453 . S
O23 C39 1.245 . S
O24 Tb20 2.596 . S
O24 Tb22 2.343 . S
O24 C39 1.259 . S
O25 Tb20 2.374 . S
O25 C21 1.251 . S
C26 O30 1.275 . S
C26 O31 1.246 . S
O27 C21 1.263 . S
O27 Tb22 2.353 . S
C28 O32 1.245 . S
C28 O33 1.259 . S
C29 O34 1.250 . S
C29 O35 1.263 . S
O30 Tb22 2.427 . S
O30 C26 1.275 . S
O31 Tb22 2.513 . S
O31 C26 1.246 . S
O32 Tb22 2.453 . S
O32 C28 1.245 . S
O33 Tb20 2.343 . S
O33 Tb22 2.596 . S
O33 C28 1.259 . S
O34 Tb22 2.374 . S
O34 C29 1.250 . S
O35 Tb20 2.353 . S
O35 C29 1.263 . S
C36 O37 1.275 . S
C36 O38 1.246 . S
O37 Tb20 2.427 . S
O37 C36 1.275 . S
O38 Tb20 2.513 . S
O38 C36 1.246 . S
C39 O23 1.245 . S
C39 O24 1.259 . S
Tb40 O43 2.453 . S
Tb40 O44 2.596 . S
Tb40 O45 2.374 . S
Tb40 O53 2.343 . S
Tb40 O55 2.353 . S
Tb40 O57 2.427 . S
Tb40 O58 2.513 . S
C41 O45 1.251 . S
C41 O47 1.263 . S
Tb42 O44 2.343 . S
Tb42 O47 2.353 . S
Tb42 O50 2.427 . S
Tb42 O51 2.513 . S
Tb42 O52 2.453 . S
Tb42 O53 2.596 . S
Tb42 O54 2.374 . S
O43 Tb40 2.453 . S
O43 C59 1.245 . S
O44 Tb40 2.596 . S
O44 Tb42 2.343 . S
O44 C59 1.259 . S
O45 Tb40 2.374 . S
O45 C41 1.251 . S
C46 O50 1.275 . S
C46 O51 1.246 . S
O47 C41 1.263 . S
O47 Tb42 2.353 . S
C48 O52 1.245 . S
C48 O53 1.259 . S
C49 O54 1.250 . S
C49 O55 1.263 . S
O50 Tb42 2.427 . S
O50 C46 1.275 . S
O51 Tb42 2.513 . S
O51 C46 1.246 . S
O52 Tb42 2.453 . S
O52 C48 1.245 . S
O53 Tb40 2.343 . S
O53 Tb42 2.596 . S
O53 C48 1.259 . S
O54 Tb42 2.374 . S
O54 C49 1.250 . S
O55 Tb40 2.353 . S
O55 C49 1.263 . S
C56 O57 1.275 . S
C56 O58 1.246 . S
O57 Tb40 2.427 . S
O57 C56 1.275 . S
O58 Tb40 2.513 . S
O58 C56 1.246 . S
C59 O43 1.245 . S
C59 O44 1.259 . S
Tb60 O63 2.453 . S
Tb60 O64 2.596 . S
Tb60 O65 2.374 . S
Tb60 O73 2.343 1_554 S
Tb60 O75 2.353 . S
Tb60 O77 2.427 1_554 S
Tb60 O78 2.513 1_554 S
C61 O65 1.251 . S
C61 O67 1.263 . S
Tb62 O64 2.343 1_556 S
Tb62 O67 2.353 1_556 S
Tb62 O70 2.427 1_556 S
Tb62 O71 2.513 1_556 S
Tb62 O72 2.453 . S
Tb62 O73 2.596 . S
Tb62 O74 2.374 . S
O63 Tb60 2.453 . S
O63 C79 1.245 . S
O64 Tb60 2.596 . S
O64 Tb62 2.343 1_554 S
O64 C79 1.259 . S
O65 Tb60 2.374 . S
O65 C61 1.251 . S
C66 O70 1.275 . S
C66 O71 1.246 . S
O67 C61 1.263 . S
O67 Tb62 2.353 1_554 S
C68 O72 1.245 . S
C68 O73 1.259 . S
C69 O74 1.250 . S
C69 O75 1.263 1_556 S
O70 Tb62 2.427 1_554 S
O70 C66 1.275 . S
O71 Tb62 2.513 1_554 S
O71 C66 1.246 . S
O72 Tb62 2.453 . S
O72 C68 1.245 . S
O73 Tb60 2.343 1_556 S
O73 Tb62 2.596 . S
O73 C68 1.259 . S
O74 Tb62 2.374 . S
O74 C69 1.250 . S
O75 Tb60 2.353 . S
O75 C69 1.263 1_554 S
C76 O77 1.275 . S
C76 O78 1.246 . S
O77 Tb60 2.427 1_556 S
O77 C76 1.275 . S
O78 Tb60 2.513 1_556 S
O78 C76 1.246 . S
C79 O63 1.245 . S
C79 O64 1.259 . S
Tb80 O83 2.453 . S
Tb80 O84 2.596 . S
Tb80 O85 2.374 . S
Tb80 O93 2.343 . S
Tb80 O95 2.353 . S
Tb80 O97 2.427 . S
Tb80 O98 2.513 . S
C81 O85 1.251 . S
C81 O87 1.263 . S
Tb82 O84 2.343 . S
Tb82 O87 2.353 . S
Tb82 O90 2.427 . S
Tb82 O91 2.513 . S
Tb82 O92 2.453 . S
Tb82 O93 2.596 . S
Tb82 O94 2.374 . S
O83 Tb80 2.453 . S
O83 C99 1.245 . S
O84 Tb80 2.596 . S
O84 Tb82 2.343 . S
O84 C99 1.259 . S
O85 Tb80 2.374 . S
O85 C81 1.251 . S
C86 O90 1.275 . S
C86 O91 1.246 . S
O87 C81 1.263 . S
O87 Tb82 2.353 . S
C88 O92 1.245 . S
C88 O93 1.259 . S
C89 O94 1.250 . S
C89 O95 1.263 . S
O90 Tb82 2.427 . S
O90 C86 1.275 . S
O91 Tb82 2.513 . S
O91 C86 1.246 . S
O92 Tb82 2.453 . S
O92 C88 1.245 . S
O93 Tb80 2.343 . S
O93 Tb82 2.596 . S
O93 C88 1.259 . S
O94 Tb82 2.374 . S
O94 C89 1.250 . S
O95 Tb80 2.353 . S
O95 C89 1.263 . S
C96 O97 1.275 . S
C96 O98 1.246 . S
O97 Tb80 2.427 . S
O97 C96 1.275 . S
O98 Tb80 2.513 . S
O98 C96 1.246 . S
C99 O83 1.245 . S
C99 O84 1.259 . S
Tb100 O103 2.453 . S
Tb100 O104 2.596 . S
Tb100 O105 2.374 . S
Tb100 O113 2.343 . S
Tb100 O115 2.353 . S
Tb100 O117 2.427 . S
Tb100 O118 2.513 . S
C101 O105 1.251 . S
C101 O107 1.263 . S
Tb102 O104 2.343 . S
Tb102 O107 2.353 . S
Tb102 O110 2.427 . S
Tb102 O111 2.513 . S
Tb102 O112 2.453 . S
Tb102 O113 2.596 . S
Tb102 O114 2.374 . S
O103 Tb100 2.453 . S
O103 C119 1.245 . S
O104 Tb100 2.596 . S
O104 Tb102 2.343 . S
O104 C119 1.259 . S
O105 Tb100 2.374 . S
O105 C101 1.251 . S
C106 O110 1.275 . S
C106 O111 1.246 . S
O107 C101 1.263 . S
O107 Tb102 2.353 . S
C108 O112 1.245 . S
C108 O113 1.259 . S
C109 O114 1.250 . S
C109 O115 1.263 . S
O110 Tb102 2.427 . S
O110 C106 1.275 . S
O111 Tb102 2.513 . S
O111 C106 1.246 . S
O112 Tb102 2.453 . S
O112 C108 1.245 . S
O113 Tb100 2.343 . S
O113 Tb102 2.596 . S
O113 C108 1.259 . S
O114 Tb102 2.374 . S
O114 C109 1.250 . S
O115 Tb100 2.353 . S
O115 C109 1.263 . S
C116 O117 1.275 . S
C116 O118 1.246 . S
O117 Tb100 2.427 . S
O117 C116 1.275 . S
O118 Tb100 2.513 . S
O118 C116 1.246 . S
C119 O103 1.245 . S
C119 O104 1.259 . S
C120 C121 1.349 . S
C120 C122 1.327 . S
C120 H145 0.950 . S
C121 C120 1.349 . S
C121 C137 1.349 . S
C122 C120 1.327 . S
C122 C141 1.429 . S
C122 H146 0.950 . S
C123 C140 1.574 . S
C123 C142 1.368 . S
C123 H147 0.949 . S
H124 C128 0.949 . S
C125 C126 1.349 . S
C125 C127 1.327 . S
C125 H148 0.950 . S
C126 C125 1.349 . S
C126 C138 1.349 . S
C127 C125 1.327 . S
C127 C143 1.429 . S
C127 H149 0.950 . S
C128 H124 0.949 . S
C128 C136 1.574 . S
C128 C144 1.368 . S
H129 C137 0.950 . S
H130 C135 0.950 . S
H131 C136 0.949 . S
H132 C138 0.950 . S
H133 C139 0.950 . S
H134 C140 0.949 . S
C135 H130 0.950 . S
C135 C137 1.327 . S
C135 C141 1.429 . S
C136 C128 1.574 . S
C136 H131 0.949 . S
C136 C142 1.368 . S
C137 C121 1.349 . S
C137 H129 0.950 . S
C137 C135 1.327 . S
C138 C126 1.349 . S
C138 H132 0.950 . S
C138 C139 1.327 . S
C139 H133 0.950 . S
C139 C138 1.327 . S
C139 C143 1.429 . S
C140 C123 1.574 . S
C140 H134 0.949 . S
C140 C144 1.368 . S
C141 C122 1.429 . S
C141 C135 1.429 . S
C141 C142 1.523 . S
C142 C123 1.368 . S
C142 C136 1.368 . S
C142 C141 1.523 . S
C143 C127 1.429 . S
C143 C139 1.429 . S
C143 C144 1.523 . S
C144 C128 1.368 . S
C144 C140 1.368 . S
C144 C143 1.523 . S
H145 C120 0.950 . S
H146 C122 0.950 . S
H147 C123 0.949 . S
H148 C125 0.950 . S
H149 C127 0.950 . S
C150 C151 1.349 . S
C150 C152 1.327 . S
C150 H175 0.950 1_554 S
C151 C150 1.349 . S
C151 C167 1.349 . S
C152 C150 1.327 . S
C152 C171 1.429 . S
C152 H176 0.950 . S
C153 C170 1.574 . S
C153 C172 1.368 . S
C153 H177 0.949 . S
H154 C158 0.949 . S
C155 C156 1.349 . S
C155 C157 1.327 . S
C155 H178 0.950 . S
C156 C155 1.349 . S
C156 C168 1.349 . S
C157 C155 1.327 . S
C157 C173 1.429 . S
C157 H179 0.950 . S
C158 H154 0.949 . S
C158 C166 1.574 1_655 S
C158 C174 1.368 . S
H159 C167 0.950 . S
H160 C165 0.950 . S
H161 C166 0.949 . S
H162 C168 0.950 . S
H163 C169 0.950 . S
H164 C170 0.949 1_655 S
C165 H160 0.950 . S
C165 C167 1.327 . S
C165 C171 1.429 . S
C166 C158 1.574 1_455 S
C166 H161 0.949 . S
C166 C172 1.368 . S
C167 C151 1.349 . S
C167 H159 0.950 . S
C167 C165 1.327 . S
C168 C156 1.349 . S
C168 H162 0.950 . S
C168 C169 1.327 . S
C169 H163 0.950 . S
C169 C168 1.327 . S
C169 C173 1.429 . S
C170 C153 1.574 . S
C170 H164 0.949 1_455 S
C170 C174 1.368 1_455 S
C171 C152 1.429 . S
C171 C165 1.429 . S
C171 C172 1.523 . S
C172 C153 1.368 . S
C172 C166 1.368 . S
C172 C171 1.523 . S
C173 C157 1.429 . S
C173 C169 1.429 . S
C173 C174 1.523 . S
C174 C158 1.368 . S
C174 C170 1.368 1_655 S
C174 C173 1.523 . S
H175 C150 0.950 1_556 S
H176 C152 0.950 . S
H177 C153 0.949 . S
H178 C155 0.950 . S
H179 C157 0.950 . S
C180 C181 1.349 . S
C180 C182 1.327 . S
C180 H205 0.950 . S
C181 C180 1.349 . S
C181 C197 1.349 . S
C182 C180 1.327 . S
C182 C201 1.429 . S
C182 H206 0.950 . S
C183 C200 1.574 1_545 S
C183 C202 1.368 . S
C183 H207 0.949 . S
H184 C188 0.949 1_565 S
C185 C186 1.349 . S
C185 C187 1.327 . S
C185 H208 0.950 . S
C186 C185 1.349 . S
C186 C198 1.349 . S
C187 C185 1.327 . S
C187 C203 1.429 . S
C187 H209 0.950 . S
C188 H184 0.949 1_545 S
C188 C196 1.574 . S
C188 C204 1.368 1_545 S
H189 C197 0.950 . S
H190 C195 0.950 . S
H191 C196 0.949 . S
H192 C198 0.950 . S
H193 C199 0.950 . S
H194 C200 0.949 . S
C195 H190 0.950 . S
C195 C197 1.327 . S
C195 C201 1.429 . S
C196 C188 1.574 . S
C196 H191 0.949 . S
C196 C202 1.368 . S
C197 C181 1.349 . S
C197 H189 0.950 . S
C197 C195 1.327 . S
C198 C186 1.349 . S
C198 H192 0.950 . S
C198 C199 1.327 . S
C199 H193 0.950 . S
C199 C198 1.327 . S
C199 C203 1.429 . S
C200 C183 1.574 1_565 S
C200 H194 0.949 . S
C200 C204 1.368 . S
C201 C182 1.429 . S
C201 C195 1.429 . S
C201 C202 1.523 . S
C202 C183 1.368 . S
C202 C196 1.368 . S
C202 C201 1.523 . S
C203 C187 1.429 . S
C203 C199 1.429 . S
C203 C204 1.523 . S
C204 C188 1.368 1_565 S
C204 C200 1.368 . S
C204 C203 1.523 . S
H205 C180 0.950 . S
H206 C182 0.950 . S
H207 C183 0.949 . S
H208 C185 0.950 . S
H209 C187 0.950 . S
C210 C211 1.349 . S
C210 C212 1.327 . S
C210 H235 0.950 . S
C211 C210 1.349 . S
C211 C227 1.349 . S
C212 C210 1.327 . S
C212 C231 1.429 . S
C212 H236 0.950 . S
C213 C230 1.574 . S
C213 C232 1.368 . S
C213 H237 0.949 . S
H214 C218 0.949 . S
C215 C216 1.349 . S
C215 C217 1.327 . S
C215 H238 0.950 . S
C216 C215 1.349 . S
C216 C228 1.349 . S
C217 C215 1.327 . S
C217 C233 1.429 . S
C217 H239 0.950 . S
C218 H214 0.949 . S
C218 C226 1.574 . S
C218 C234 1.368 . S
H219 C227 0.950 . S
H220 C225 0.950 . S
H221 C226 0.949 . S
H222 C228 0.950 . S
H223 C229 0.950 . S
H224 C230 0.949 . S
C225 H220 0.950 . S
C225 C227 1.327 . S
C225 C231 1.429 . S
C226 C218 1.574 . S
C226 H221 0.949 . S
C226 C232 1.368 . S
C227 C211 1.349 . S
C227 H219 0.950 . S
C227 C225 1.327 . S
C228 C216 1.349 . S
C228 H222 0.950 . S
C228 C229 1.327 . S
C229 H223 0.950 . S
C229 C228 1.327 . S
C229 C233 1.429 . S
C230 C213 1.574 . S
C230 H224 0.949 . S
C230 C234 1.368 . S
C231 C212 1.429 . S
C231 C225 1.429 . S
C231 C232 1.523 . S
C232 C213 1.368 . S
C232 C226 1.368 . S
C232 C231 1.523 . S
C233 C217 1.429 . S
C233 C229 1.429 . S
C233 C234 1.523 . S
C234 C218 1.368 . S
C234 C230 1.368 . S
C234 C233 1.523 . S
H235 C210 0.950 . S
H236 C212 0.950 . S
H237 C213 0.949 . S
H238 C215 0.950 . S
H239 C217 0.950 . S
C240 C241 1.349 . S
C240 C242 1.327 . S
C240 H265 0.950 . S
C241 C240 1.349 . S
C241 C257 1.349 . S
C242 C240 1.327 . S
C242 C261 1.429 . S
C242 H266 0.950 . S
C243 C260 1.574 . S
C243 C262 1.368 1_655 S
C243 H267 0.949 1_655 S
H244 C248 0.949 . S
C245 C246 1.349 . S
C245 C247 1.327 . S
C245 H268 0.950 . S
C246 C245 1.349 . S
C246 C258 1.349 . S
C247 C245 1.327 . S
C247 C263 1.429 . S
C247 H269 0.950 . S
C248 H244 0.949 . S
C248 C256 1.574 1_655 S
C248 C264 1.368 . S
H249 C257 0.950 . S
H250 C255 0.950 . S
H251 C256 0.949 . S
H252 C258 0.950 1_556 S
H253 C259 0.950 . S
H254 C260 0.949 . S
C255 H250 0.950 . S
C255 C257 1.327 . S
C255 C261 1.429 . S
C256 C248 1.574 1_455 S
C256 H251 0.949 . S
C256 C262 1.368 . S
C257 C241 1.349 . S
C257 H249 0.950 . S
C257 C255 1.327 . S
C258 C246 1.349 . S
C258 H252 0.950 1_554 S
C258 C259 1.327 . S
C259 H253 0.950 . S
C259 C258 1.327 . S
C259 C263 1.429 . S
C260 C243 1.574 . S
C260 H254 0.949 . S
C260 C264 1.368 . S
C261 C242 1.429 . S
C261 C255 1.429 . S
C261 C262 1.523 . S
C262 C243 1.368 1_455 S
C262 C256 1.368 . S
C262 C261 1.523 . S
C263 C247 1.429 . S
C263 C259 1.429 . S
C263 C264 1.523 . S
C264 C248 1.368 . S
C264 C260 1.368 . S
C264 C263 1.523 . S
H265 C240 0.950 . S
H266 C242 0.950 . S
H267 C243 0.949 1_455 S
H268 C245 0.950 . S
H269 C247 0.950 . S
C270 C271 1.349 . S
C270 C272 1.327 . S
C270 H295 0.950 . S
C271 C270 1.349 . S
C271 C287 1.349 . S
C272 C270 1.327 . S
C272 C291 1.429 . S
C272 H296 0.950 . S
C273 C290 1.574 1_545 S
C273 C292 1.368 . S
C273 H297 0.949 . S
H274 C278 0.949 . S
C275 C276 1.349 . S
C275 C277 1.327 . S
C275 H298 0.950 . S
C276 C275 1.349 . S
C276 C288 1.349 . S
C277 C275 1.327 . S
C277 C293 1.429 . S
C277 H299 0.950 . S
C278 H274 0.949 . S
C278 C286 1.571 . S
C278 C294 1.368 . S
H279 C287 0.950 . S
H280 C285 0.950 . S
H281 C286 0.951 1_545 S
H282 C288 0.950 . S
H283 C289 0.950 . S
H284 C290 0.949 . S
C285 H280 0.950 . S
C285 C287 1.327 . S
C285 C291 1.429 . S
C286 C278 1.571 . S
C286 H281 0.951 1_565 S
C286 C292 1.369 1_565 S
C287 C271 1.349 . S
C287 H279 0.950 . S
C287 C285 1.327 . S
C288 C276 1.349 . S
C288 H282 0.950 . S
C288 C289 1.327 . S
C289 H283 0.950 . S
C289 C288 1.327 . S
C289 C293 1.429 . S
C290 C273 1.574 1_565 S
C290 H284 0.949 . S
C290 C294 1.368 . S
C291 C272 1.429 . S
C291 C285 1.429 . S
C291 C292 1.523 . S
C292 C273 1.368 . S
C292 C286 1.369 1_545 S
C292 C291 1.523 . S
C293 C277 1.429 . S
C293 C289 1.429 . S
C293 C294 1.523 . S
C294 C278 1.368 . S
C294 C290 1.368 . S
C294 C293 1.523 . S
H295 C270 0.950 . S
H296 C272 0.950 . S
H297 C273 0.949 . S
H298 C275 0.950 . S
H299 C277 0.950 . S
C300 C301 1.349 . S
C300 C302 1.327 . S
C300 H325 0.950 . S
C301 C300 1.349 . S
C301 C317 1.349 . S
C302 C300 1.327 . S
C302 C321 1.429 . S
C302 H326 0.950 . S
C303 C320 1.574 . S
C303 C322 1.368 . S
C303 H327 0.949 . S
H304 C308 0.949 . S
C305 C306 1.349 . S
C305 C307 1.327 . S
C305 H328 0.950 . S
C306 C305 1.349 . S
C306 C318 1.349 . S
C307 C305 1.327 . S
C307 C323 1.429 . S
C307 H329 0.950 . S
C308 H304 0.949 . S
C308 C316 1.574 . S
C308 C324 1.368 . S
H309 C317 0.950 . S
H310 C315 0.950 . S
H311 C316 0.949 . S
H312 C318 0.950 . S
H313 C319 0.950 . S
H314 C320 0.949 . S
C315 H310 0.950 . S
C315 C317 1.327 . S
C315 C321 1.429 . S
C316 C308 1.574 . S
C316 H311 0.949 . S
C316 C322 1.368 . S
C317 C301 1.349 . S
C317 H309 0.950 . S
C317 C315 1.327 . S
C318 C306 1.349 . S
C318 H312 0.950 . S
C318 C319 1.327 . S
C319 H313 0.950 . S
C319 C318 1.327 . S
C319 C323 1.429 . S
C320 C303 1.574 . S
C320 H314 0.949 . S
C320 C324 1.368 . S
C321 C302 1.429 . S
C321 C315 1.429 . S
C321 C322 1.523 . S
C322 C303 1.368 . S
C322 C316 1.368 . S
C322 C321 1.523 . S
C323 C307 1.429 . S
C323 C319 1.429 . S
C323 C324 1.523 . S
C324 C308 1.368 . S
C324 C320 1.368 . S
C324 C323 1.523 . S
H325 C300 0.950 . S
H326 C302 0.950 . S
H327 C303 0.949 . S
H328 C305 0.950 . S
H329 C307 0.950 . S
C330 C331 1.349 . S
C330 C332 1.327 . S
C330 H355 0.950 . S
C331 C330 1.349 . S
C331 C347 1.349 . S
C332 C330 1.327 . S
C332 C351 1.429 1_554 S
C332 H356 0.950 . S
C333 C350 1.574 . S
C333 C352 1.368 . S
C333 H357 0.949 . S
H334 C338 0.949 . S
C335 C336 1.349 . S
C335 C337 1.327 . S
C335 H358 0.950 . S
C336 C335 1.349 . S
C336 C348 1.349 . S
C337 C335 1.327 . S
C337 C353 1.429 . S
C337 H359 0.950 . S
C338 H334 0.949 . S
C338 C346 1.574 . S
C338 C354 1.368 . S
H339 C347 0.950 . S
H340 C345 0.950 1_556 S
H341 C346 0.949 . S
H342 C348 0.950 . S
H343 C349 0.950 . S
H344 C350 0.949 . S
C345 H340 0.950 1_554 S
C345 C347 1.327 . S
C345 C351 1.429 1_554 S
C346 C338 1.574 . S
C346 H341 0.949 . S
C346 C352 1.368 . S
C347 C331 1.349 . S
C347 H339 0.950 . S
C347 C345 1.327 . S
C348 C336 1.349 . S
C348 H342 0.950 . S
C348 C349 1.327 . S
C349 H343 0.950 . S
C349 C348 1.327 . S
C349 C353 1.429 . S
C350 C333 1.574 . S
C350 H344 0.949 . S
C350 C354 1.368 . S
C351 C332 1.429 1_556 S
C351 C345 1.429 1_556 S
C351 C352 1.523 . S
C352 C333 1.368 . S
C352 C346 1.368 . S
C352 C351 1.523 . S
C353 C337 1.429 . S
C353 C349 1.429 . S
C353 C354 1.523 . S
C354 C338 1.368 . S
C354 C350 1.368 . S
C354 C353 1.523 . S
H355 C330 0.950 . S
H356 C332 0.950 . S
H357 C333 0.949 . S
H358 C335 0.950 . S
H359 C337 0.950 . S
C360 C361 1.349 . S
C360 C362 1.327 . S
C360 H385 0.950 . S
C361 C360 1.349 . S
C361 C377 1.349 . S
C362 C360 1.327 . S
C362 C381 1.429 . S
C362 H386 0.950 . S
C363 C380 1.574 . S
C363 C382 1.368 . S
C363 H387 0.949 . S
H364 C368 0.949 . S
C365 C366 1.349 . S
C365 C367 1.327 . S
C365 H388 0.950 . S
C366 C365 1.349 . S
C366 C378 1.349 . S
C367 C365 1.327 . S
C367 C383 1.429 1_556 S
C367 H389 0.950 1_556 S
C368 H364 0.949 . S
C368 C376 1.574 . S
C368 C384 1.368 . S
H369 C377 0.950 . S
H370 C375 0.950 . S
H371 C376 0.949 . S
H372 C378 0.950 . S
H373 C379 0.950 1_554 S
H374 C380 0.949 . S
C375 H370 0.950 . S
C375 C377 1.327 . S
C375 C381 1.429 . S
C376 C368 1.574 . S
C376 H371 0.949 . S
C376 C382 1.368 . S
C377 C361 1.349 . S
C377 H369 0.950 . S
C377 C375 1.327 . S
C378 C366 1.349 . S
C378 H372 0.950 . S
C378 C379 1.327 . S
C379 H373 0.950 1_556 S
C379 C378 1.327 . S
C379 C383 1.429 1_556 S
C380 C363 1.574 . S
C380 H374 0.949 . S
C380 C384 1.368 . S
C381 C362 1.429 . S
C381 C375 1.429 . S
C381 C382 1.523 . S
C382 C363 1.368 . S
C382 C376 1.368 . S
C382 C381 1.523 . S
C383 C367 1.429 1_554 S
C383 C379 1.429 1_554 S
C383 C384 1.523 . S
C384 C368 1.368 . S
C384 C380 1.368 . S
C384 C383 1.523 . S
H385 C360 0.950 . S
H386 C362 0.950 . S
H387 C363 0.949 . S
H388 C365 0.950 . S
H389 C367 0.950 1_554 S
C390 C391 1.349 . S
C390 C392 1.327 . S
C390 H415 0.950 . S
C391 C390 1.349 . S
C391 C407 1.349 . S
C392 C390 1.327 . S
C392 C411 1.429 . S
C392 H416 0.950 . S
C393 C410 1.574 . S
C393 C412 1.368 . S
C393 H417 0.949 . S
H394 C398 0.949 . S
C395 C396 1.349 . S
C395 C397 1.327 . S
C395 H418 0.950 . S
C396 C395 1.349 . S
C396 C408 1.349 . S
C397 C395 1.327 . S
C397 C413 1.429 . S
C397 H419 0.950 . S
C398 H394 0.949 . S
C398 C406 1.574 . S
C398 C414 1.368 . S
H399 C407 0.950 . S
H400 C405 0.950 . S
H401 C406 0.949 . S
H402 C408 0.950 . S
H403 C409 0.950 . S
H404 C410 0.949 . S
C405 H400 0.950 . S
C405 C407 1.327 . S
C405 C411 1.429 . S
C406 C398 1.574 . S
C406 H401 0.949 . S
C406 C412 1.368 . S
C407 C391 1.349 . S
C407 H399 0.950 . S
C407 C405 1.327 . S
C408 C396 1.349 . S
C408 H402 0.950 . S
C408 C409 1.327 . S
C409 H403 0.950 . S
C409 C408 1.327 . S
C409 C413 1.429 . S
C410 C393 1.574 . S
C410 H404 0.949 . S
C410 C414 1.368 . S
C411 C392 1.429 . S
C411 C405 1.429 . S
C411 C412 1.523 . S
C412 C393 1.368 . S
C412 C406 1.368 . S
C412 C411 1.523 . S
C413 C397 1.429 . S
C413 C409 1.429 . S
C413 C414 1.523 . S
C414 C398 1.368 . S
C414 C410 1.368 . S
C414 C413 1.523 . S
H415 C390 0.950 . S
H416 C392 0.950 . S
H417 C393 0.949 . S
H418 C395 0.950 . S
H419 C397 0.950 . S
C420 C421 1.349 . S
C420 C422 1.327 . S
C420 H445 0.950 . S
C421 C420 1.349 . S
C421 C437 1.349 . S
C422 C420 1.327 . S
C422 C441 1.429 . S
C422 H446 0.950 . S
C423 C440 1.574 . S
C423 C442 1.368 . S
C423 H447 0.949 . S
H424 C428 0.949 . S
C425 C426 1.349 . S
C425 C427 1.327 . S
C425 H448 0.950 . S
C426 C425 1.349 . S
C426 C438 1.349 . S
C427 C425 1.327 . S
C427 C443 1.429 1_554 S
C427 H449 0.950 1_554 S
C428 H424 0.949 . S
C428 C436 1.574 . S
C428 C444 1.368 . S
H429 C437 0.950 . S
H430 C435 0.950 . S
H431 C436 0.949 . S
H432 C438 0.950 . S
H433 C439 0.950 . S
H434 C440 0.949 . S
C435 H430 0.950 . S
C435 C437 1.327 . S
C435 C441 1.429 . S
C436 C428 1.574 . S
C436 H431 0.949 . S
C436 C442 1.368 . S
C437 C421 1.349 . S
C437 H429 0.950 . S
C437 C435 1.327 . S
C438 C426 1.349 . S
C438 H432 0.950 . S
C438 C439 1.327 . S
C439 H433 0.950 . S
C439 C438 1.327 . S
C439 C443 1.429 1_554 S
C440 C423 1.574 . S
C440 H434 0.949 . S
C440 C444 1.368 . S
C441 C422 1.429 . S
C441 C435 1.429 . S
C441 C442 1.523 . S
C442 C423 1.368 . S
C442 C436 1.368 . S
C442 C441 1.523 . S
C443 C427 1.429 1_556 S
C443 C439 1.429 1_556 S
C443 C444 1.523 . S
C444 C428 1.368 . S
C444 C440 1.368 . S
C444 C443 1.523 . S
H445 C420 0.950 . S
H446 C422 0.950 . S
H447 C423 0.949 . S
H448 C425 0.950 . S
H449 C427 0.950 1_556 S
C450 C451 1.349 . S
C450 C452 1.327 . S
C450 H475 0.950 . S
C451 C450 1.349 . S
C451 C467 1.349 . S
C452 C450 1.327 . S
C452 C471 1.429 . S
C452 H476 0.950 . S
C453 C470 1.574 . S
C453 C472 1.368 . S
C453 H477 0.949 . S
H454 C458 0.949 . S
C455 C456 1.349 . S
C455 C457 1.327 . S
C455 H478 0.950 . S
C456 C455 1.349 . S
C456 C468 1.349 . S
C457 C455 1.327 . S
C457 C473 1.429 1_556 S
C457 H479 0.950 1_556 S
C458 H454 0.949 . S
C458 C466 1.574 . S
C458 C474 1.368 . S
H459 C467 0.950 . S
H460 C465 0.950 . S
H461 C466 0.949 . S
H462 C468 0.950 . S
H463 C469 0.950 1_554 S
H464 C470 0.949 . S
C465 H460 0.950 . S
C465 C467 1.327 . S
C465 C471 1.429 . S
C466 C458 1.574 . S
C466 H461 0.949 . S
C466 C472 1.368 . S
C467 C451 1.349 . S
C467 H459 0.950 . S
C467 C465 1.327 . S
C468 C456 1.349 . S
C468 H462 0.950 . S
C468 C469 1.327 . S
C469 H463 0.950 1_556 S
C469 C468 1.327 . S
C469 C473 1.429 1_556 S
C470 C453 1.574 . S
C470 H464 0.949 . S
C470 C474 1.368 . S
C471 C452 1.429 . S
C471 C465 1.429 . S
C471 C472 1.523 . S
C472 C453 1.368 . S
C472 C466 1.368 . S
C472 C471 1.523 . S
C473 C457 1.429 1_554 S
C473 C469 1.429 1_554 S
C473 C474 1.523 . S
C474 C458 1.368 . S
C474 C470 1.368 . S
C474 C473 1.523 . S
H475 C450 0.950 . S
H476 C452 0.950 . S
H477 C453 0.949 . S
H478 C455 0.950 . S
H479 C457 0.950 1_554 S
C480 C481 1.349 . S
C480 C482 1.327 . S
C480 H505 0.950 . S
C481 C480 1.349 . S
C481 C497 1.349 . S
C482 C480 1.327 . S
C482 C501 1.429 . S
C482 H506 0.950 . S
C483 C500 1.574 . S
C483 C502 1.368 . S
C483 H507 0.949 . S
H484 C488 0.949 . S
C485 C486 1.349 . S
C485 C487 1.327 . S
C485 H508 0.950 . S
C486 C485 1.349 . S
C486 C498 1.349 . S
C487 C485 1.327 . S
C487 C503 1.429 . S
C487 H509 0.950 . S
C488 H484 0.949 . S
C488 C496 1.574 . S
C488 C504 1.368 . S
H489 C497 0.950 . S
H490 C495 0.950 . S
H491 C496 0.949 . S
H492 C498 0.950 . S
H493 C499 0.950 . S
H494 C500 0.949 . S
C495 H490 0.950 . S
C495 C497 1.327 . S
C495 C501 1.429 . S
C496 C488 1.574 . S
C496 H491 0.949 . S
C496 C502 1.368 . S
C497 C481 1.349 . S
C497 H489 0.950 . S
C497 C495 1.327 . S
C498 C486 1.349 . S
C498 H492 0.950 . S
C498 C499 1.327 . S
C499 H493 0.950 . S
C499 C498 1.327 . S
C499 C503 1.429 . S
C500 C483 1.574 . S
C500 H494 0.949 . S
C500 C504 1.368 . S
C501 C482 1.429 . S
C501 C495 1.429 . S
C501 C502 1.523 . S
C502 C483 1.368 . S
C502 C496 1.368 . S
C502 C501 1.523 . S
C503 C487 1.429 . S
C503 C499 1.429 . S
C503 C504 1.523 . S
C504 C488 1.368 . S
C504 C500 1.368 . S
C504 C503 1.523 . S
H505 C480 0.950 . S
H506 C482 0.950 . S
H507 C483 0.949 . S
H508 C485 0.950 . S
H509 C487 0.950 . S
C510 C511 1.349 . S
C510 C512 1.327 . S
C510 H535 0.950 . S
C511 C510 1.349 . S
C511 C527 1.349 . S
C512 C510 1.327 . S
C512 C531 1.429 . S
C512 H536 0.950 . S
C513 C530 1.574 . S
C513 C532 1.368 . S
C513 H537 0.949 . S
H514 C518 0.949 . S
C515 C516 1.349 . S
C515 C517 1.327 . S
C515 H538 0.950 . S
C516 C515 1.349 . S
C516 C528 1.349 . S
C517 C515 1.327 . S
C517 C533 1.429 . S
C517 H539 0.950 . S
C518 H514 0.949 . S
C518 C526 1.574 . S
C518 C534 1.368 . S
H519 C527 0.950 . S
H520 C525 0.950 . S
H521 C526 0.949 . S
H522 C528 0.950 . S
H523 C529 0.950 . S
H524 C530 0.949 . S
C525 H520 0.950 . S
C525 C527 1.327 . S
C525 C531 1.429 . S
C526 C518 1.574 . S
C526 H521 0.949 . S
C526 C532 1.368 . S
C527 C511 1.349 . S
C527 H519 0.950 . S
C527 C525 1.327 . S
C528 C516 1.349 . S
C528 H522 0.950 . S
C528 C529 1.327 . S
C529 H523 0.950 . S
C529 C528 1.327 . S
C529 C533 1.429 . S
C530 C513 1.574 . S
C530 H524 0.949 . S
C530 C534 1.368 . S
C531 C512 1.429 . S
C531 C525 1.429 . S
C531 C532 1.523 . S
C532 C513 1.368 . S
C532 C526 1.368 . S
C532 C531 1.523 . S
C533 C517 1.429 . S
C533 C529 1.429 . S
C533 C534 1.523 . S
C534 C518 1.368 . S
C534 C530 1.368 . S
C534 C533 1.523 . S
H535 C510 0.950 . S
H536 C512 0.950 . S
H537 C513 0.949 . S
H538 C515 0.950 . S
H539 C517 0.950 . S
C540 C541 1.349 . S
C540 C542 1.327 . S
C540 H565 0.950 1_556 S
C541 C540 1.349 . S
C541 C557 1.349 . S
C542 C540 1.327 . S
C542 C561 1.429 . S
C542 H566 0.950 1_556 S
C543 C560 1.574 . S
C543 C562 1.368 . S
C543 H567 0.949 . S
H544 C548 0.949 . S
C545 C546 1.349 . S
C545 C547 1.327 . S
C545 H568 0.950 . S
C546 C545 1.349 . S
C546 C558 1.349 . S
C547 C545 1.327 . S
C547 C563 1.429 . S
C547 H569 0.950 . S
C548 H544 0.949 . S
C548 C556 1.574 . S
C548 C564 1.368 . S
H549 C557 0.950 . S
H550 C555 0.950 . S
H551 C556 0.949 . S
H552 C558 0.950 . S
H553 C559 0.950 . S
H554 C560 0.949 . S
C555 H550 0.950 . S
C555 C557 1.327 . S
C555 C561 1.429 . S
C556 C548 1.574 . S
C556 H551 0.949 . S
C556 C562 1.368 . S
C557 C541 1.349 . S
C557 H549 0.950 . S
C557 C555 1.327 . S
C558 C546 1.349 . S
C558 H552 0.950 . S
C558 C559 1.327 . S
C559 H553 0.950 . S
C559 C558 1.327 . S
C559 C563 1.429 . S
C560 C543 1.574 . S
C560 H554 0.949 . S
C560 C564 1.368 . S
C561 C542 1.429 . S
C561 C555 1.429 . S
C561 C562 1.523 . S
C562 C543 1.368 . S
C562 C556 1.368 . S
C562 C561 1.523 . S
C563 C547 1.429 . S
C563 C559 1.429 . S
C563 C564 1.523 . S
C564 C548 1.368 . S
C564 C560 1.368 . S
C564 C563 1.523 . S
H565 C540 0.950 1_554 S
H566 C542 0.950 1_554 S
H567 C543 0.949 . S
H568 C545 0.950 . S
H569 C547 0.950 . S
C570 C571 1.349 . S
C570 C572 1.327 . S
C570 H595 0.950 . S
C571 C570 1.349 . S
C571 C587 1.349 . S
C572 C570 1.327 . S
C572 C591 1.429 . S
C572 H596 0.950 . S
C573 C590 1.574 . S
C573 C592 1.368 . S
C573 H597 0.949 . S
H574 C578 0.949 . S
C575 C576 1.349 . S
C575 C577 1.327 . S
C575 H598 0.950 . S
C576 C575 1.349 . S
C576 C588 1.349 . S
C577 C575 1.327 . S
C577 C593 1.429 . S
C577 H599 0.950 . S
C578 H574 0.949 . S
C578 C586 1.574 . S
C578 C594 1.368 . S
H579 C587 0.950 . S
H580 C585 0.950 . S
H581 C586 0.949 . S
H582 C588 0.950 . S
H583 C589 0.950 . S
H584 C590 0.949 . S
C585 H580 0.950 . S
C585 C587 1.327 . S
C585 C591 1.429 . S
C586 C578 1.574 . S
C586 H581 0.949 . S
C586 C592 1.368 . S
C587 C571 1.349 . S
C587 H579 0.950 . S
C587 C585 1.327 . S
C588 C576 1.349 . S
C588 H582 0.950 . S
C588 C589 1.327 . S
C589 H583 0.950 . S
C589 C588 1.327 . S
C589 C593 1.429 . S
C590 C573 1.574 . S
C590 H584 0.949 . S
C590 C594 1.368 . S
C591 C572 1.429 . S
C591 C585 1.429 . S
C591 C592 1.523 . S
C592 C573 1.368 . S
C592 C586 1.368 . S
C592 C591 1.523 . S
C593 C577 1.429 . S
C593 C589 1.429 . S
C593 C594 1.523 . S
C594 C578 1.368 . S
C594 C590 1.368 . S
C594 C593 1.523 . S
H595 C570 0.950 . S
H596 C572 0.950 . S
H597 C573 0.949 . S
H598 C575 0.950 . S
H599 C577 0.950 . S
C600 C601 1.349 . S
C600 C602 1.327 . S
C600 H625 0.950 . S
C601 C600 1.349 . S
C601 C617 1.349 . S
C602 C600 1.327 . S
C602 C621 1.429 . S
C602 H626 0.950 . S
C603 C620 1.574 . S
C603 C622 1.368 . S
C603 H627 0.949 . S
H604 C608 0.949 . S
C605 C606 1.349 . S
C605 C607 1.327 . S
C605 H628 0.950 . S
C606 C605 1.349 . S
C606 C618 1.349 . S
C607 C605 1.327 . S
C607 C623 1.429 . S
C607 H629 0.950 . S
C608 H604 0.949 . S
C608 C616 1.574 . S
C608 C624 1.368 . S
H609 C617 0.950 . S
H610 C615 0.950 . S
H611 C616 0.949 . S
H612 C618 0.950 . S
H613 C619 0.950 . S
H614 C620 0.949 . S
C615 H610 0.950 . S
C615 C617 1.327 . S
C615 C621 1.429 . S
C616 C608 1.574 . S
C616 H611 0.949 . S
C616 C622 1.368 . S
C617 C601 1.349 . S
C617 H609 0.950 . S
C617 C615 1.327 . S
C618 C606 1.349 . S
C618 H612 0.950 . S
C618 C619 1.327 . S
C619 H613 0.950 . S
C619 C618 1.327 . S
C619 C623 1.429 . S
C620 C603 1.574 . S
C620 H614 0.949 . S
C620 C624 1.368 . S
C621 C602 1.429 . S
C621 C615 1.429 . S
C621 C622 1.523 . S
C622 C603 1.368 . S
C622 C616 1.368 . S
C622 C621 1.523 . S
C623 C607 1.429 . S
C623 C619 1.429 . S
C623 C624 1.523 . S
C624 C608 1.368 . S
C624 C620 1.368 . S
C624 C623 1.523 . S
H625 C600 0.950 . S
H626 C602 0.950 . S
H627 C603 0.949 . S
H628 C605 0.950 . S
H629 C607 0.950 . S
C630 C631 1.349 . S
C630 C632 1.327 . S
C630 H655 0.950 . S
C631 C630 1.349 . S
C631 C647 1.349 . S
C632 C630 1.327 . S
C632 C651 1.429 . S
C632 H656 0.950 . S
C633 C650 1.574 . S
C633 C652 1.368 . S
C633 H657 0.949 . S
H634 C638 0.949 . S
C635 C636 1.349 . S
C635 C637 1.327 . S
C635 H658 0.950 . S
C636 C635 1.349 . S
C636 C648 1.349 . S
C637 C635 1.327 . S
C637 C653 1.429 . S
C637 H659 0.950 . S
C638 H634 0.949 . S
C638 C646 1.574 . S
C638 C654 1.368 . S
H639 C647 0.950 1_554 S
H640 C645 0.950 1_554 S
H641 C646 0.949 . S
H642 C648 0.950 . S
H643 C649 0.950 . S
H644 C650 0.949 . S
C645 H640 0.950 1_556 S
C645 C647 1.327 . S
C645 C651 1.429 . S
C646 C638 1.574 . S
C646 H641 0.949 . S
C646 C652 1.368 . S
C647 C631 1.349 . S
C647 H639 0.950 1_556 S
C647 C645 1.327 . S
C648 C636 1.349 . S
C648 H642 0.950 . S
C648 C649 1.327 . S
C649 H643 0.950 . S
C649 C648 1.327 . S
C649 C653 1.429 . S
C650 C633 1.574 . S
C650 H644 0.949 . S
C650 C654 1.368 . S
C651 C632 1.429 . S
C651 C645 1.429 . S
C651 C652 1.523 . S
C652 C633 1.368 . S
C652 C646 1.368 . S
C652 C651 1.523 . S
C653 C637 1.429 . S
C653 C649 1.429 . S
C653 C654 1.523 . S
C654 C638 1.368 . S
C654 C650 1.368 . S
C654 C653 1.523 . S
H655 C630 0.950 . S
H656 C632 0.950 . S
H657 C633 0.949 . S
H658 C635 0.950 . S
H659 C637 0.950 . S
C121 C101 1.450 . S
C126 C16 1.400 . S
C151 C1 1.450 . S
C156 C36 1.400 . S
C181 C21 1.450 . S
C186 C56 1.400 . S
C211 C41 1.450 . S
C216 C76 1.400 . S
C241 C96 1.400 . S
C246 C61 1.450 . S
C271 C116 1.400 . S
C276 C81 1.450 . S
C301 C8 1.920 . S
C306 C19 1.920 . S
C331 C28 1.920 . S
C336 C39 1.920 . S
C361 C48 1.920 . S
C366 C59 1.920 . S
C391 C68 1.920 . S
C396 C79 1.920 . S
C421 C99 1.920 . S
C426 C88 1.920 . S
C451 C108 1.920 . S
C456 C119 1.920 . S
C481 C6 1.367 . S
C486 C89 1.400 . S
C511 C26 1.366 . S
C516 C109 1.400 . S
C541 C9 1.400 . S
C546 C46 1.366 . S
C571 C29 1.400 . S
C576 C66 1.367 . S
C601 C86 1.366 . S
C606 C49 1.400 . S
C631 C69 1.400 . S
C636 C106 1.366 . S
