# Generated by pormake.
# Topology dia, (4)-cn, num edge types: 1
# Building blocks:
#     Node 0, Type 0, BuildingBlock: ICAMEG_clean_sbu_1, # of connection points: 4
#     Node 1, Type 0, BuildingBlock: ICAMEG_clean_sbu_1, # of connection points: 4
#     Node 2, Type 0, BuildingBlock: ICAMEG_clean_sbu_1, # of connection points: 4
#     Node 3, Type 0, BuildingBlock: ICAMEG_clean_sbu_1, # of connection points: 4
#     Node 4, Type 0, BuildingBlock: ICAMEG_clean_sbu_1, # of connection points: 4
#     Node 5, Type 0, BuildingBlock: ICAMEG_clean_sbu_1, # of connection points: 4
#     Node 6, Type 0, BuildingBlock: ICAMEG_clean_sbu_1, # of connection points: 4
#     Node 7, Type 0, BuildingBlock: ICAMEG_clean_sbu_1, # of connection points: 4
#     Edge 8, Type (0, 0), BuildingBlock: MIFKUJ_clean_linker_0, # of connection points: 2
#     Edge 9, Type (0, 0), BuildingBlock: MIFKUJ_clean_linker_0, # of connection points: 2
#     Edge 10, Type (0, 0), BuildingBlock: MIFKUJ_clean_linker_0, # of connection points: 2
#     Edge 11, Type (0, 0), BuildingBlock: MIFKUJ_clean_linker_0, # of connection points: 2
#     Edge 12, Type (0, 0), BuildingBlock: MIFKUJ_clean_linker_0, # of connection points: 2
#     Edge 13, Type (0, 0), BuildingBlock: MIFKUJ_clean_linker_0, # of connection points: 2
#     Edge 14, Type (0, 0), BuildingBlock: MIFKUJ_clean_linker_0, # of connection points: 2
#     Edge 15, Type (0, 0), BuildingBlock: MIFKUJ_clean_linker_0, # of connection points: 2
#     Edge 16, Type (0, 0), BuildingBlock: MIFKUJ_clean_linker_0, # of connection points: 2
#     Edge 17, Type (0, 0), BuildingBlock: MIFKUJ_clean_linker_0, # of connection points: 2
#     Edge 18, Type (0, 0), BuildingBlock: MIFKUJ_clean_linker_0, # of connection points: 2
#     Edge 19, Type (0, 0), BuildingBlock: MIFKUJ_clean_linker_0, # of connection points: 2
#     Edge 20, Type (0, 0), BuildingBlock: MIFKUJ_clean_linker_0, # of connection points: 2
#     Edge 21, Type (0, 0), BuildingBlock: MIFKUJ_clean_linker_0, # of connection points: 2
#     Edge 22, Type (0, 0), BuildingBlock: MIFKUJ_clean_linker_0, # of connection points: 2
#     Edge 23, Type (0, 0), BuildingBlock: MIFKUJ_clean_linker_0, # of connection points: 2
# Relax obj value: 0.181
# Max RMSD: 0.230
# Mean RMSD: 0.230
data_MOF--net-dia--node1-ICAMEG_clean_sbu_1--edge1-MIFKUJ_clean_linker_0
_symmetry_space_group_name_H-M    P1
_symmetry_Int_Tables_number       1
_symmetry_cell_setting            triclinic
loop_
_symmetry_equiv_pos_as_xyz
'x, y, z'
_cell_length_a     42.320643
_cell_length_b     42.41396
_cell_length_c     54.461827
_cell_angle_alpha  89.941372
_cell_angle_beta   90.02128
_cell_angle_gamma 101.74356
loop_
_atom_site_label
_atom_site_type_symbol
_atom_site_fract_x
_atom_site_fract_y
_atom_site_fract_z
_atom_type_partial_charge
Co0 Co 0.16643 0.114 0.63467 0.0
Co1 Co 0.09518 0.14121 0.63595 0.0
O2 O 0.13201 0.12892 0.65288 0.0
C3 C 0.15108 0.06371 0.67424 0.0
O4 O 0.12004 0.06156 0.67057 0.0
C5 C 0.11095 0.18901 0.67815 0.0
O6 O 0.13699 0.1784 0.684 0.0
O7 O 0.12514 0.17233 0.6148 0.0
O8 O 0.16329 0.1441 0.60691 0.0
H9 H 0.03373 0.16422 0.56134 0.0
H10 H 0.17941 0.13492 0.68625 0.0
O11 O 0.17164 0.08349 0.66182 0.0
H12 H 0.26101 0.20788 0.63708 0.0
H13 H 0.27308 0.07976 0.62582 0.0
H14 H 0.1753 0.09655 0.58278 0.0
H15 H 0.22142 0.16492 0.6171 0.0
H16 H 0.23025 0.09923 0.6483 0.0
O17 O 0.0935 0.17699 0.66003 0.0
H18 H 0.07899 0.14878 0.58361 0.0
H19 H 0.03399 0.16016 0.65184 0.0
H20 H 0.21765 0.0773 0.55956 0.0
H21 H 0.21897 0.17719 0.70705 0.0
H22 H 0.26699 0.06877 0.5811 0.0
H23 H 0.26005 0.21415 0.6824 0.0
O24 O 0.13412 0.07966 0.61829 0.0
H25 H 0.05591 0.08651 0.71556 0.0
H26 H 0.03611 0.09083 0.62656 0.0
H27 H 0.99962 0.05131 0.65205 0.0
H28 H 0.00931 0.04906 0.69694 0.0
H29 H 0.09201 0.12528 0.68935 0.0
H30 H 0.98843 0.17609 0.6303 0.0
H31 H 0.98802 0.17804 0.58471 0.0
O32 O 0.09438 0.10621 0.61114 0.0
C33 C 0.14941 0.16753 0.60254 0.0
C34 C 0.03358 0.16339 0.5812 0.0
C35 C 0.00818 0.17009 0.61991 0.0
N36 N 0.05907 0.15336 0.619 0.0
C37 C 0.05912 0.15458 0.59392 0.0
C38 C 0.03411 0.16115 0.63201 0.0
C39 C 0.00796 0.17117 0.59433 0.0
C40 C 0.19735 0.15075 0.67541 0.0
N41 N 0.19795 0.14752 0.65047 0.0
C42 C 0.21963 0.17471 0.68728 0.0
C43 C 0.24265 0.19546 0.67344 0.0
C44 C 0.24317 0.19199 0.64801 0.0
C45 C 0.22053 0.16773 0.63678 0.0
C46 C 0.25171 0.0834 0.61623 0.0
C47 C 0.19674 0.093 0.59228 0.0
C48 C 0.22732 0.09433 0.62888 0.0
N49 N 0.20032 0.09912 0.61686 0.0
C50 C 0.22062 0.08205 0.57903 0.0
C51 C 0.24828 0.07725 0.59113 0.0
C52 C 0.10803 0.08241 0.60756 0.0
C53 C 0.05129 0.0874 0.69605 0.0
C54 C 0.04058 0.09002 0.64604 0.0
C55 C 0.01976 0.06759 0.66041 0.0
C56 C 0.0252 0.06635 0.68559 0.0
N57 N 0.066 0.1108 0.65644 0.0
C58 C 0.07157 0.10953 0.6811 0.0
Co59 Co 0.89556 0.34163 0.88597 0.0
Co60 Co 0.86845 0.41221 0.89148 0.0
O61 O 0.88289 0.37949 0.87105 0.0
C62 C 0.94249 0.36013 0.84342 0.0
O63 O 0.93159 0.38631 0.83868 0.0
C64 C 0.81879 0.40176 0.85127 0.0
O65 O 0.81661 0.37051 0.85304 0.0
O66 O 0.83361 0.37866 0.90605 0.0
O67 O 0.86107 0.33925 0.91166 0.0
H68 H 0.83383 0.45688 0.97019 0.0
H69 H 0.87856 0.34157 0.83284 0.0
O70 O 0.93075 0.34156 0.86101 0.0
H71 H 0.8049 0.24747 0.86814 0.0
H72 H 0.93027 0.23479 0.88592 0.0
H73 H 0.9046 0.32191 0.93729 0.0
H74 H 0.84481 0.28254 0.89425 0.0
H75 H 0.91385 0.28172 0.86688 0.0
O76 O 0.83832 0.42086 0.86495 0.0
H77 H 0.85051 0.41589 0.94392 0.0
H78 H 0.85553 0.47782 0.88208 0.0
H79 H 0.9206 0.27523 0.95709 0.0
H80 H 0.8395 0.30683 0.806 0.0
H81 H 0.93358 0.23125 0.93135 0.0
H82 H 0.8022 0.25938 0.82361 0.0
O83 O 0.92756 0.37016 0.90738 0.0
H84 H 0.9335 0.47025 0.82192 0.0
H85 H 0.92111 0.46366 0.91192 0.0
H86 H 0.96602 0.50317 0.89381 0.0
H87 H 0.97218 0.50687 0.84857 0.0
H88 H 0.88966 0.43037 0.84071 0.0
H89 H 0.83862 0.5194 0.90766 0.0
H90 H 0.82789 0.50915 0.95209 0.0
O91 O 0.89787 0.4056 0.91892 0.0
C92 C 0.83679 0.35211 0.91583 0.0
C93 C 0.83851 0.46167 0.95086 0.0
C94 C 0.84116 0.49674 0.91576 0.0
N95 N 0.85418 0.4445 0.9115 0.0
C96 C 0.848 0.43856 0.93589 0.0
C97 C 0.85063 0.47305 0.90134 0.0
C98 C 0.83515 0.49097 0.94069 0.0
C99 C 0.86288 0.32076 0.84063 0.0
N100 N 0.86446 0.31391 0.86507 0.0
C101 C 0.84058 0.30126 0.82534 0.0
C102 C 0.81962 0.27468 0.83524 0.0
C103 C 0.82111 0.268 0.86022 0.0
C104 C 0.84374 0.28802 0.87493 0.0
C105 C 0.92464 0.25378 0.89734 0.0
C106 C 0.91006 0.3028 0.92597 0.0
C107 C 0.91542 0.28048 0.88666 0.0
N108 N 0.9081 0.30448 0.90098 0.0
C109 C 0.91917 0.27646 0.93728 0.0
C110 C 0.92648 0.2518 0.92282 0.0
C111 C 0.92204 0.3923 0.92156 0.0
C112 C 0.93096 0.46896 0.84169 0.0
C113 C 0.92385 0.46482 0.89219 0.0
C114 C 0.94918 0.48741 0.88207 0.0
C115 C 0.95268 0.48947 0.85665 0.0
N116 N 0.90277 0.44462 0.87739 0.0
C117 C 0.90606 0.44654 0.85245 0.0
Co118 Co 0.65994 0.11265 0.13819 0.0
Co119 Co 0.58948 0.1395 0.13073 0.0
O120 O 0.62162 0.12548 0.15182 0.0
C121 C 0.65855 0.04963 0.16233 0.0
O122 O 0.65694 0.0372 0.14018 0.0
C123 C 0.60033 0.19032 0.16978 0.0
O124 O 0.6316 0.1925 0.16764 0.0
O125 O 0.62361 0.17352 0.11582 0.0
O126 O 0.66328 0.14594 0.11147 0.0
H127 H 0.54574 0.17173 0.05079 0.0
H128 H 0.65865 0.12908 0.19098 0.0
O129 O 0.65786 0.07941 0.16509 0.0
H130 H 0.7514 0.20587 0.15658 0.0
H131 H 0.76785 0.0799 0.14283 0.0
H132 H 0.68149 0.1004 0.08796 0.0
H133 H 0.71826 0.16474 0.13024 0.0
H134 H 0.72005 0.09714 0.15973 0.0
O135 O 0.58089 0.17038 0.15664 0.0
H136 H 0.58639 0.15559 0.07785 0.0
H137 H 0.52409 0.1537 0.1392 0.0
H138 H 0.72904 0.0835 0.07026 0.0
H139 H 0.6914 0.1696 0.21807 0.0
H140 H 0.7726 0.07303 0.09778 0.0
H141 H 0.73811 0.20842 0.20086 0.0
O142 O 0.63205 0.08038 0.11651 0.0
H143 H 0.53157 0.07564 0.20084 0.0
H144 H 0.53697 0.08765 0.11076 0.0
H145 H 0.4967 0.04367 0.12927 0.0
H146 H 0.49366 0.03769 0.17455 0.0
H147 H 0.57195 0.11873 0.18164 0.0
H148 H 0.4829 0.17021 0.11284 0.0
H149 H 0.4935 0.17906 0.06825 0.0
O150 O 0.59618 0.10919 0.10404 0.0
C151 C 0.65034 0.16995 0.10646 0.0
C152 C 0.5408 0.16788 0.07018 0.0
C153 C 0.50556 0.16706 0.10501 0.0
N154 N 0.55756 0.1535 0.11006 0.0
C155 C 0.56372 0.15868 0.0856 0.0
C156 C 0.52903 0.15784 0.11987 0.0
C157 C 0.51151 0.17201 0.07999 0.0
C158 C 0.67913 0.14568 0.18342 0.0
N159 N 0.68661 0.14441 0.15909 0.0
C160 C 0.6975 0.16866 0.19882 0.0
C161 C 0.72367 0.19047 0.18915 0.0
C162 C 0.73113 0.18907 0.1643 0.0
C163 C 0.7122 0.16579 0.14945 0.0
C164 C 0.74905 0.08441 0.13065 0.0
C165 C 0.7004 0.09602 0.10005 0.0
C166 C 0.72191 0.09415 0.14011 0.0
N167 N 0.69798 0.09978 0.12484 0.0
C168 C 0.72726 0.08642 0.08992 0.0
C169 C 0.75169 0.08055 0.10537 0.0
C170 C 0.61002 0.08535 0.10192 0.0
C171 C 0.53255 0.07813 0.18106 0.0
C172 C 0.53593 0.08506 0.13051 0.0
C173 C 0.51299 0.06022 0.14086 0.0
C174 C 0.51131 0.05683 0.1663 0.0
N175 N 0.55667 0.10588 0.14513 0.0
C176 C 0.55527 0.10258 0.17009 0.0
Co177 Co 0.90203 0.84402 0.3833 0.0
Co178 Co 0.87207 0.91329 0.38547 0.0
O179 O 0.88821 0.8802 0.36662 0.0
C180 C 0.94881 0.86094 0.34047 0.0
O181 O 0.93776 0.88684 0.33509 0.0
C182 C 0.82247 0.89837 0.34527 0.0
O183 O 0.82087 0.86739 0.34843 0.0
O184 O 0.83826 0.87953 0.40095 0.0
O185 O 0.86754 0.84227 0.40884 0.0
H186 H 0.83213 0.95958 0.46154 0.0
H187 H 0.88464 0.84001 0.33024 0.0
O188 O 0.9373 0.84315 0.35855 0.0
H189 H 0.81355 0.74671 0.36886 0.0
H190 H 0.94039 0.73919 0.38826 0.0
H191 H 0.91223 0.82875 0.43545 0.0
H192 H 0.85312 0.78413 0.39365 0.0
H193 H 0.92205 0.78364 0.36705 0.0
O194 O 0.84162 0.91876 0.35826 0.0
H195 H 0.85348 0.91938 0.43746 0.0
H196 H 0.85535 0.97666 0.37324 0.0
H197 H 0.93021 0.78465 0.45739 0.0
H198 H 0.84578 0.80298 0.30471 0.0
H199 H 0.94444 0.73945 0.43376 0.0
H200 H 0.80978 0.75592 0.32401 0.0
O201 O 0.93314 0.87488 0.40369 0.0
H202 H 0.93599 0.96937 0.3146 0.0
H203 H 0.92096 0.96908 0.40436 0.0
H204 H 0.9635 0.01025 0.38543 0.0
H205 H 0.97119 0.01064 0.34021 0.0
H206 H 0.89401 0.92832 0.33436 0.0
H207 H 0.8338 0.01739 0.3966 0.0
H208 H 0.82214 0.00903 0.4411 0.0
O209 O 0.90225 0.91008 0.41331 0.0
C210 C 0.84245 0.85416 0.412 0.0
C211 C 0.83717 0.96354 0.44217 0.0
C212 C 0.83807 0.99595 0.40571 0.0
N213 N 0.85577 0.94569 0.40398 0.0
C214 C 0.84932 0.94088 0.42844 0.0
C215 C 0.85019 0.97275 0.39257 0.0
C216 C 0.83155 0.99126 0.43068 0.0
C217 C 0.8695 0.81939 0.33876 0.0
N218 N 0.87158 0.81409 0.36341 0.0
C219 C 0.84734 0.79858 0.32421 0.0
C220 C 0.8271 0.77222 0.33505 0.0
C221 C 0.82919 0.76705 0.36021 0.0
C222 C 0.85162 0.78839 0.37418 0.0
C223 C 0.93421 0.75873 0.39876 0.0
C224 C 0.91822 0.80909 0.42503 0.0
C225 C 0.92389 0.78401 0.38685 0.0
N226 N 0.91587 0.80869 0.4 0.0
C227 C 0.92845 0.78422 0.43756 0.0
C228 C 0.93646 0.75888 0.42429 0.0
C229 C 0.92725 0.89811 0.41659 0.0
C230 C 0.9329 0.96944 0.33432 0.0
C231 C 0.92437 0.96882 0.38471 0.0
C232 C 0.94839 0.99234 0.37407 0.0
C233 C 0.95266 0.99257 0.3487 0.0
N234 N 0.90515 0.94614 0.37049 0.0
C235 C 0.90912 0.94631 0.34561 0.0
Co236 Co 0.17169 0.61404 0.1327 0.0
Co237 Co 0.10173 0.64474 0.13664 0.0
O238 O 0.13844 0.6298 0.15193 0.0
C239 C 0.154 0.56386 0.17249 0.0
O240 O 0.12445 0.56888 0.17352 0.0
C241 C 0.12314 0.6923 0.17838 0.0
O242 O 0.14733 0.67885 0.18447 0.0
O243 O 0.13139 0.67396 0.11396 0.0
O244 O 0.17121 0.6475 0.10709 0.0
H245 H 0.03714 0.67121 0.06488 0.0
H246 H 0.18463 0.62903 0.18537 0.0
O247 O 0.17442 0.57973 0.1576 0.0
H248 H 0.27131 0.70167 0.14051 0.0
H249 H 0.27427 0.57278 0.12121 0.0
H250 H 0.18065 0.60202 0.07978 0.0
H251 H 0.22961 0.66343 0.11809 0.0
H252 H 0.23297 0.59281 0.14509 0.0
O253 O 0.10484 0.68169 0.16036 0.0
H254 H 0.0818 0.65196 0.08517 0.0
H255 H 0.04488 0.66977 0.15522 0.0
H256 H 0.22152 0.58229 0.05519 0.0
H257 H 0.22622 0.66647 0.20855 0.0
H258 H 0.26876 0.5675 0.07591 0.0
H259 H 0.26989 0.70326 0.18609 0.0
O260 O 0.13805 0.58322 0.11436 0.0
H261 H 0.06538 0.59428 0.2184 0.0
H262 H 0.03828 0.59968 0.13074 0.0
H263 H 1.00105 0.56369 0.15818 0.0
H264 H 0.01438 0.56099 0.20245 0.0
H265 H 0.10218 0.62923 0.19022 0.0
H266 H 1.00014 0.68961 0.13566 0.0
H267 H 0.99593 0.69024 0.09019 0.0
O268 O 0.09629 0.60849 0.11233 0.0
C269 C 0.1567 0.67035 0.10253 0.0
C270 C 0.03864 0.67092 0.08472 0.0
C271 C 0.0179 0.68129 0.12445 0.0
N272 N 0.06585 0.65947 0.12134 0.0
C273 C 0.0638 0.65994 0.09631 0.0
C274 C 0.04338 0.67013 0.13541 0.0
C275 C 0.01555 0.68164 0.09893 0.0
C276 C 0.20371 0.64474 0.17546 0.0
N277 N 0.20464 0.64401 0.1504 0.0
C278 C 0.22712 0.666 0.18869 0.0
C279 C 0.25159 0.68665 0.17608 0.0
C280 C 0.25238 0.6858 0.15051 0.0
C281 C 0.22857 0.6642 0.1379 0.0
C282 C 0.25382 0.57917 0.11196 0.0
C283 C 0.20119 0.59574 0.08893 0.0
C284 C 0.23029 0.59045 0.12539 0.0
N285 N 0.20444 0.59869 0.11383 0.0
C286 C 0.22423 0.58454 0.07491 0.0
C287 C 0.25071 0.57622 0.08655 0.0
C288 C 0.11033 0.58567 0.10631 0.0
C289 C 0.05921 0.59534 0.19917 0.0
C290 C 0.04451 0.59834 0.14986 0.0
C291 C 0.0232 0.57807 0.16537 0.0
C292 C 0.03066 0.57661 0.1902 0.0
N293 N 0.07247 0.61676 0.15876 0.0
C294 C 0.07992 0.61535 0.1831 0.0
Co295 Co 0.39589 0.34262 0.38821 0.0
Co296 Co 0.36586 0.41206 0.38693 0.0
O297 O 0.38145 0.37721 0.36977 0.0
C298 C 0.44572 0.35931 0.3479 0.0
O299 O 0.44198 0.38925 0.34726 0.0
C300 C 0.32359 0.3982 0.34131 0.0
O301 O 0.3367 0.37389 0.33507 0.0
O302 O 0.33319 0.37979 0.40487 0.0
O303 O 0.36294 0.34359 0.41451 0.0
H304 H 0.33104 0.46608 0.46136 0.0
H305 H 0.37934 0.33131 0.33561 0.0
O306 O 0.42937 0.33919 0.36276 0.0
H307 H 0.30524 0.2456 0.38025 0.0
H308 H 0.43319 0.23776 0.39764 0.0
H309 H 0.40907 0.33228 0.44077 0.0
H310 H 0.34527 0.28555 0.40266 0.0
H311 H 0.4143 0.28049 0.37466 0.0
O312 O 0.33261 0.41437 0.36071 0.0
H313 H 0.35103 0.42358 0.43896 0.0
H314 H 0.3468 0.4733 0.37166 0.0
H315 H 0.42768 0.28995 0.46448 0.0
H316 H 0.34015 0.29138 0.31239 0.0
H317 H 0.43988 0.24226 0.4429 0.0
H318 H 0.3026 0.24822 0.33474 0.0
O319 O 0.42797 0.37519 0.40635 0.0
H320 H 0.42797 0.46112 0.31257 0.0
H321 H 0.41399 0.47038 0.40193 0.0
H322 H 0.45544 0.5101 0.3806 0.0
H323 H 0.46255 0.50577 0.33555 0.0
H324 H 0.38736 0.42153 0.3347 0.0
H325 H 0.32651 0.51619 0.39333 0.0
H326 H 0.31864 0.51281 0.43852 0.0
O327 O 0.39804 0.41195 0.41403 0.0
C328 C 0.33791 0.35565 0.41725 0.0
C329 C 0.33446 0.46787 0.44168 0.0
C330 C 0.33188 0.49597 0.40349 0.0
N331 N 0.3503 0.44603 0.40406 0.0
C332 C 0.34584 0.44391 0.4289 0.0
C333 C 0.3433 0.47156 0.39132 0.0
C334 C 0.32748 0.49407 0.42885 0.0
C335 C 0.36326 0.31249 0.34546 0.0
N336 N 0.36454 0.31093 0.37048 0.0
C337 C 0.34103 0.29 0.33221 0.0
C338 C 0.31996 0.2658 0.34477 0.0
C339 C 0.32139 0.26435 0.37029 0.0
C340 C 0.34399 0.28721 0.38291 0.0
C341 C 0.42791 0.2584 0.40726 0.0
C342 C 0.41419 0.31154 0.43125 0.0
C343 C 0.41727 0.28273 0.39434 0.0
N344 N 0.4104 0.3088 0.40638 0.0
C345 C 0.42478 0.28768 0.44477 0.0
C346 C 0.43165 0.26094 0.43265 0.0
C347 C 0.42285 0.39982 0.41788 0.0
C348 C 0.42497 0.4634 0.33218 0.0
C349 C 0.41697 0.46814 0.38235 0.0
C350 C 0.44046 0.49082 0.37036 0.0
C351 C 0.44441 0.48839 0.34509 0.0
N352 N 0.39786 0.44371 0.36958 0.0
C353 C 0.40174 0.44114 0.34481 0.0
Co354 Co 0.39959 0.83639 0.88484 0.0
Co355 Co 0.36994 0.90677 0.87904 0.0
O356 O 0.38511 0.86967 0.86502 0.0
C357 C 0.4506 0.85341 0.84526 0.0
O358 O 0.4422 0.88101 0.84104 0.0
C359 C 0.305 0.90172 0.85667 0.0
O360 O 0.29325 0.89992 0.87906 0.0
O361 O 0.34004 0.87814 0.9021 0.0
O362 O 0.36365 0.83608 0.90838 0.0
H363 H 0.34005 0.97414 0.9477 0.0
H364 H 0.38688 0.82666 0.83151 0.0
O365 O 0.43641 0.83446 0.86181 0.0
H366 H 0.31498 0.73545 0.87208 0.0
H367 H 0.44133 0.73464 0.8988 0.0
H368 H 0.4061 0.82623 0.93829 0.0
H369 H 0.35139 0.77639 0.89652 0.0
H370 H 0.42326 0.77609 0.87374 0.0
O371 O 0.33493 0.90195 0.8533 0.0
H372 H 0.35894 0.92805 0.92951 0.0
H373 H 0.34917 0.96459 0.85787 0.0
H374 H 0.42361 0.78511 0.96403 0.0
H375 H 0.35117 0.78607 0.80632 0.0
H376 H 0.44144 0.73891 0.94428 0.0
H377 H 0.31482 0.74006 0.82661 0.0
O378 O 0.42853 0.86979 0.90491 0.0
H379 H 0.41913 0.94023 0.79666 0.0
H380 H 0.41852 0.96825 0.8844 0.0
H381 H 0.45576 1.00326 0.8563 0.0
H382 H 0.45608 0.98941 0.81201 0.0
H383 H 0.38292 0.90548 0.82558 0.0
H384 H 0.33006 0.01099 0.87528 0.0
H385 H 0.32543 0.01601 0.92051 0.0
O386 O 0.4049 0.91278 0.90444 0.0
C387 C 0.34173 0.85182 0.91291 0.0
C388 C 0.34198 0.97223 0.92796 0.0
C389 C 0.33637 0.99292 0.88732 0.0
N390 N 0.35518 0.9436 0.89266 0.0
C391 C 0.35269 0.9462 0.91756 0.0
C392 C 0.34718 0.96657 0.87757 0.0
C393 C 0.33378 0.99571 0.9127 0.0
C394 C 0.37136 0.8066 0.84048 0.0
N395 N 0.37143 0.80383 0.86548 0.0
C396 C 0.35108 0.78374 0.82612 0.0
C397 C 0.33067 0.75795 0.83751 0.0
C398 C 0.33073 0.75537 0.86302 0.0
C399 C 0.35133 0.7787 0.87678 0.0
C400 C 0.43361 0.75465 0.90761 0.0
C401 C 0.41367 0.80612 0.92955 0.0
C402 C 0.42346 0.77828 0.89352 0.0
N403 N 0.41352 0.80354 0.90453 0.0
C404 C 0.42363 0.78295 0.94423 0.0
C405 C 0.43365 0.75705 0.93314 0.0
C406 C 0.42644 0.89796 0.9121 0.0
C407 C 0.41926 0.94651 0.81592 0.0
C408 C 0.41905 0.96169 0.86531 0.0
C409 C 0.43993 0.98179 0.84941 0.0
C410 C 0.44003 0.97405 0.82455 0.0
N411 N 0.39888 0.93461 0.85676 0.0
C412 C 0.39871 0.92699 0.83238 0.0
Co413 Co 0.67381 0.61244 0.63287 0.0
Co414 Co 0.60516 0.64451 0.63532 0.0
O415 O 0.64036 0.62832 0.65169 0.0
C416 C 0.65555 0.5623 0.67275 0.0
O417 O 0.62583 0.56692 0.67333 0.0
C418 C 0.6241 0.68968 0.67869 0.0
O419 O 0.64963 0.67765 0.6835 0.0
O420 O 0.63692 0.67541 0.61544 0.0
O421 O 0.67378 0.64589 0.60691 0.0
H422 H 0.54744 0.67776 0.56208 0.0
H423 H 0.68625 0.6276 0.68556 0.0
O424 O 0.67612 0.57832 0.65803 0.0
H425 H 0.7741 0.69922 0.64111 0.0
H426 H 0.77637 0.57089 0.62232 0.0
H427 H 0.68304 0.59964 0.58012 0.0
H428 H 0.73218 0.66147 0.6185 0.0
H429 H 0.73493 0.59123 0.64579 0.0
O430 O 0.60563 0.67908 0.66076 0.0
H431 H 0.5906 0.65737 0.58345 0.0
H432 H 0.54586 0.66626 0.65222 0.0
H433 H 0.7241 0.57965 0.55592 0.0
H434 H 0.72809 0.66447 0.70893 0.0
H435 H 0.77118 0.5651 0.57703 0.0
H436 H 0.77236 0.70074 0.68668 0.0
O437 O 0.64017 0.58159 0.61454 0.0
H438 H 0.55938 0.58968 0.7133 0.0
H439 H 0.54476 0.59689 0.6238 0.0
H440 H 0.50511 0.55867 0.64799 0.0
H441 H 0.51213 0.55506 0.69312 0.0
H442 H 0.59885 0.62691 0.68834 0.0
H443 H 0.50237 0.687 0.63159 0.0
H444 H 0.50291 0.69274 0.58619 0.0
O445 O 0.6024 0.61105 0.60904 0.0
C446 C 0.66119 0.67039 0.60332 0.0
C447 C 0.54689 0.67528 0.58187 0.0
C448 C 0.52162 0.6805 0.62088 0.0
N449 N 0.57067 0.6604 0.61904 0.0
C450 C 0.57122 0.66367 0.59407 0.0
C451 C 0.54636 0.66881 0.63246 0.0
C452 C 0.52192 0.68371 0.5954 0.0
C453 C 0.70556 0.64311 0.67574 0.0
N454 N 0.70668 0.64238 0.65068 0.0
C455 C 0.72912 0.66404 0.68907 0.0
C456 C 0.75393 0.6844 0.67658 0.0
C457 C 0.75489 0.6836 0.65101 0.0
C458 C 0.73094 0.66231 0.63829 0.0
C459 C 0.75599 0.57718 0.6129 0.0
C460 C 0.70353 0.59351 0.58944 0.0
C461 C 0.73239 0.58865 0.62611 0.0
N462 N 0.70664 0.59679 0.61433 0.0
C463 C 0.72667 0.58213 0.57564 0.0
C464 C 0.75307 0.57395 0.5875 0.0
C465 C 0.61469 0.58672 0.60411 0.0
C466 C 0.55596 0.59114 0.69366 0.0
C467 C 0.54821 0.59528 0.64338 0.0
C468 C 0.52556 0.57367 0.65701 0.0
C469 C 0.52949 0.57168 0.68233 0.0
N470 N 0.57403 0.61446 0.65464 0.0
C471 C 0.57815 0.61242 0.67943 0.0
H472 H 0.34018 0.30367 0.44628 0.0
H473 H 0.30015 0.27682 0.47537 0.0
H474 H 0.24066 0.34587 0.46041 0.0
H475 H 0.28091 0.37325 0.43073 0.0
H476 H 0.2468 0.33003 0.51235 0.0
H477 H 0.21758 0.27731 0.43568 0.0
H478 H 0.22857 0.25189 0.39678 0.0
H479 H 0.26206 0.17773 0.43671 0.0
H480 H 0.25188 0.20304 0.47588 0.0
H481 H 0.12915 0.22186 0.58585 0.0
H482 H 0.15268 0.25788 0.55228 0.0
H483 H 0.22318 0.19913 0.53976 0.0
H484 H 0.19985 0.16316 0.57248 0.0
H485 H 0.20044 0.21446 0.4975 0.0
H486 H 0.24031 0.27119 0.57227 0.0
H487 H 0.23437 0.29708 0.61206 0.0
H488 H 0.18428 0.36307 0.57667 0.0
H489 H 0.18958 0.33725 0.53668 0.0
C490 C 0.31866 0.31335 0.449 0.0
C491 C 0.31368 0.34049 0.43579 0.0
C492 C 0.29576 0.29789 0.46574 0.0
C493 C 0.26725 0.30909 0.46984 0.0
C494 C 0.26247 0.33678 0.45741 0.0
C495 C 0.28544 0.35228 0.4404 0.0
C496 C 0.24248 0.29084 0.48668 0.0
C497 C 0.23595 0.30498 0.5089 0.0
C498 C 0.22875 0.25804 0.48228 0.0
C499 C 0.23405 0.24218 0.45875 0.0
C500 C 0.22742 0.25566 0.43618 0.0
C501 C 0.23352 0.24127 0.41407 0.0
C502 C 0.24601 0.21322 0.41427 0.0
C503 C 0.25236 0.19945 0.43659 0.0
C504 C 0.24639 0.21379 0.45875 0.0
C505 C 0.14961 0.21662 0.57589 0.0
C506 C 0.16264 0.18963 0.58208 0.0
C507 C 0.16309 0.23727 0.55673 0.0
C508 C 0.18987 0.23135 0.54353 0.0
C509 C 0.20248 0.20422 0.54953 0.0
C510 C 0.18911 0.18368 0.56847 0.0
C511 C 0.2056 0.25324 0.52367 0.0
C512 C 0.21048 0.23974 0.50078 0.0
C513 C 0.21805 0.28649 0.5276 0.0
C514 C 0.21496 0.30204 0.55157 0.0
C515 C 0.2278 0.29105 0.57302 0.0
C516 C 0.22459 0.30574 0.59559 0.0
C517 C 0.20886 0.33163 0.59691 0.0
C518 C 0.19639 0.34296 0.57563 0.0
C519 C 0.19949 0.32831 0.55301 0.0
H520 H 0.2064 0.34298 0.6144 0.0
H521 H 0.25075 0.20214 0.39714 0.0
H522 H 0.62921 0.5401 0.71733 0.0
H523 H 0.65292 0.50941 0.74816 0.0
H524 H 0.73049 0.50322 0.69823 0.0
H525 H 0.70761 0.53439 0.66787 0.0
H526 H 0.66992 0.45138 0.75232 0.0
H527 H 0.80079 0.51513 0.72811 0.0
H528 H 0.8289 0.56653 0.70992 0.0
H529 H 0.75293 0.6124 0.73427 0.0
H530 H 0.72469 0.56147 0.75301 0.0
H531 H 0.78223 0.37157 0.81286 0.0
H532 H 0.75082 0.39581 0.783 0.0
H533 H 0.77776 0.48723 0.82003 0.0
H534 H 0.80972 0.46356 0.84925 0.0
H535 H 0.78373 0.49769 0.77415 0.0
H536 H 0.70006 0.43746 0.82429 0.0
H537 H 0.66904 0.38937 0.84516 0.0
H538 H 0.64664 0.34271 0.77554 0.0
H539 H 0.6779 0.39039 0.75427 0.0
C540 C 0.65108 0.53181 0.71286 0.0
C541 C 0.66678 0.54012 0.69031 0.0
C542 C 0.66459 0.51422 0.73047 0.0
C543 C 0.69388 0.50453 0.72574 0.0
C544 C 0.70831 0.51102 0.70258 0.0
C545 C 0.69514 0.52885 0.6852 0.0
C546 C 0.71077 0.48974 0.74537 0.0
C547 C 0.69481 0.46145 0.7571 0.0
C548 C 0.74303 0.50327 0.75211 0.0
C549 C 0.7605 0.53437 0.74176 0.0
C550 C 0.79022 0.53624 0.72975 0.0
C551 C 0.80615 0.56529 0.71932 0.0
C552 C 0.79266 0.59268 0.72088 0.0
C553 C 0.76332 0.59115 0.73303 0.0
C554 C 0.74735 0.5622 0.74356 0.0
C555 C 0.78133 0.3968 0.81467 0.0
C556 C 0.79862 0.41558 0.83345 0.0
C557 C 0.76322 0.41064 0.79764 0.0
C558 C 0.7616 0.44341 0.79927 0.0
C559 C 0.77863 0.46199 0.81819 0.0
C560 C 0.79693 0.44833 0.83498 0.0
C561 C 0.74314 0.45887 0.78098 0.0
C562 C 0.75886 0.48743 0.76944 0.0
C563 C 0.71042 0.44606 0.775 0.0
C564 C 0.69158 0.41737 0.78771 0.0
C565 C 0.68872 0.41685 0.81345 0.0
C566 C 0.67106 0.38968 0.82534 0.0
C567 C 0.65595 0.36297 0.81169 0.0
C568 C 0.6584 0.3634 0.7861 0.0
C569 C 0.67606 0.3905 0.77411 0.0
H570 H 0.64229 0.34196 0.82093 0.0
H571 H 0.80496 0.61511 0.7127 0.0
H572 H 0.59443 0.10149 0.05614 0.0
H573 H 0.56843 0.06572 0.02378 0.0
H574 H 0.57375 0.98323 0.06881 0.0
H575 H 0.60109 0.0193 0.10119 0.0
H576 H 0.58276 0.9721 0.01885 0.0
H577 H 0.50449 0.01327 0.06852 0.0
H578 H 0.48341 0.05726 0.08812 0.0
H579 H 0.47687 0.10118 0.01783 0.0
H580 H 0.49778 0.05748 0.99774 0.0
H581 H 0.45928 0.87079 0.94726 0.0
H582 H 0.49375 0.89851 0.98005 0.0
H583 H 0.48144 0.99011 0.95123 0.0
H584 H 0.44567 0.96258 0.91974 0.0
H585 H 0.4751 0.9926 0.99646 0.0
H586 H 0.55444 0.95718 0.94598 0.0
H587 H 0.57926 0.91771 0.92382 0.0
H588 H 0.58821 0.86806 0.99142 0.0
H589 H 0.56307 0.90704 0.01394 0.0
C590 C 0.59058 0.07571 0.059 0.0
C591 C 0.5994 0.06313 0.08127 0.0
C592 C 0.57562 0.05528 0.04052 0.0
C593 C 0.56829 0.02181 0.04412 0.0
C594 C 0.57894 0.009 0.06572 0.0
C595 C 0.59456 0.02956 0.08417 0.0
C596 C 0.54737 1.00083 0.02612 0.0
C597 C 0.559 0.97619 0.01415 0.0
C598 C 0.51664 0.00662 0.01961 0.0
C599 C 0.50281 0.03216 0.03164 0.0
C600 C 0.49854 0.03231 0.05724 0.0
C601 C 0.48668 0.0572 0.06844 0.0
C602 C 0.47901 0.08206 0.05427 0.0
C603 C 0.48285 0.08192 0.0288 0.0
C604 C 0.49457 0.05703 0.01748 0.0
C605 C 0.46416 0.89685 0.94785 0.0
C606 C 0.44966 0.91443 0.93078 0.0
C607 C 0.48405 0.91274 0.96657 0.0
C608 C 0.49063 0.94659 0.96815 0.0
C609 C 0.47673 0.96403 0.95068 0.0
C610 C 0.4563 0.9482 0.93247 0.0
C611 C 0.51071 0.96421 0.98839 0.0
C612 C 0.49876 0.98819 1.00105 0.0
C613 C 0.54137 0.95819 0.99508 0.0
C614 C 0.55654 0.9348 0.98159 0.0
C615 C 0.56149 0.93771 0.95609 0.0
C616 C 0.57565 0.91545 0.94347 0.0
C617 C 0.58521 0.89034 0.95619 0.0
C618 C 0.58073 0.88749 0.98158 0.0
C619 C 0.56655 0.90967 0.99429 0.0
H620 H 0.59617 0.87313 0.94639 0.0
H621 H 0.47001 0.10138 0.06302 0.0
H622 H 0.98701 0.81806 0.35113 0.0
H623 H 0.02181 0.79548 0.32318 0.0
H624 H 0.99756 0.85438 0.26436 0.0
H625 H 0.96299 0.87759 0.29239 0.0
H626 H 0.9897 0.78662 0.25331 0.0
H627 H 0.06963 0.8736 0.28638 0.0
H628 H 0.09967 0.90599 0.31965 0.0
H629 H 0.13261 0.82287 0.34611 0.0
H630 H 0.10237 0.78985 0.31319 0.0
H631 H 0.09039 0.73868 0.16537 0.0
H632 H 0.06662 0.77333 0.19249 0.0
H633 H 0.10717 0.73379 0.25533 0.0
H634 H 0.13243 0.70018 0.22802 0.0
H635 H 0.1074 0.79391 0.26413 0.0
H636 H 0.02749 0.70583 0.23523 0.0
H637 H 0.99644 0.66973 0.20437 0.0
H638 H 0.96106 0.74915 0.17362 0.0
H639 H 0.99243 0.78589 0.20401 0.0
C640 C 0.98937 0.82656 0.33233 0.0
C641 C 0.97223 0.84969 0.324 0.0
C642 C 0.00934 0.81365 0.31639 0.0
C643 C 0.01234 0.82328 0.2917 0.0
C644 C 0.99562 0.84666 0.28336 0.0
C645 C 0.97602 0.86001 0.29943 0.0
C646 C 0.03166 0.80768 0.2744 0.0
C647 C 0.01554 0.78868 0.25537 0.0
C648 C 0.06514 0.80933 0.27773 0.0
C649 C 0.08349 0.82919 0.29744 0.0
C650 C 0.08305 0.86216 0.29941 0.0
C651 C 0.10016 0.88065 0.31818 0.0
C652 C 0.11797 0.86648 0.33502 0.0
C653 C 0.11878 0.83381 0.33307 0.0
C654 C 0.10169 0.81521 0.31434 0.0
C655 C 0.09476 0.73783 0.18495 0.0
C656 C 0.11313 0.71657 0.19458 0.0
C657 C 0.08094 0.75748 0.20048 0.0
C658 C 0.08422 0.75558 0.2261 0.0
C659 C 0.10406 0.73563 0.23568 0.0
C660 C 0.11854 0.71643 0.22005 0.0
C661 C 0.06551 0.77292 0.24279 0.0
C662 C 0.08162 0.79203 0.26186 0.0
C663 C 0.0318 0.77078 0.23988 0.0
C664 C 0.01255 0.74868 0.22177 0.0
C665 C 0.01325 0.71564 0.22179 0.0
C666 C 0.9956 0.69506 0.20439 0.0
C667 C 0.9768 0.70715 0.18705 0.0
C668 C 0.97564 0.73984 0.18706 0.0
C669 C 0.99336 0.76056 0.20437 0.0
H670 H 0.96308 0.69116 0.17363 0.0
H671 H 0.1312 0.88083 0.34954 0.0
H672 H 0.23991 0.90029 0.85569 0.0
H673 H 0.20973 0.92334 0.82433 0.0
H674 H 0.29591 0.94828 0.78037 0.0
H675 H 0.32616 0.92514 0.81142 0.0
H676 H 0.26584 1.00003 0.78904 0.0
H677 H 0.23672 0.88977 0.76186 0.0
H678 H 0.21452 0.83169 0.76674 0.0
H679 H 0.12252 0.8518 0.78678 0.0
H680 H 0.14432 0.91008 0.78235 0.0
H681 H 0.21234 0.05388 0.67906 0.0
H682 H 0.23362 0.02248 0.70995 0.0
H683 H 0.13924 0.99569 0.7428 0.0
H684 H 0.11732 0.02685 0.71124 0.0
H685 H 0.16951 0.94506 0.74247 0.0
H686 H 0.19643 0.05417 0.76863 0.0
H687 H 0.21732 0.11257 0.7644 0.0
H688 H 0.3118 0.09552 0.74855 0.0
H689 H 0.29135 0.03695 0.75228 0.0
C690 C 0.25231 0.91011 0.83913 0.0
C691 C 0.2855 0.91085 0.83612 0.0
C692 C 0.235 0.92328 0.82121 0.0
C693 C 0.25057 0.93763 0.80002 0.0
C694 C 0.28341 0.9374 0.79659 0.0
C695 C 0.30063 0.92394 0.81433 0.0
C696 C 0.23337 0.95482 0.78221 0.0
C697 C 0.24501 0.98792 0.77864 0.0
C698 C 0.20539 0.93932 0.76939 0.0
C699 C 0.19226 0.90431 0.77205 0.0
C700 C 0.21185 0.88183 0.76754 0.0
C701 C 0.19932 0.84887 0.77017 0.0
C702 C 0.16716 0.83807 0.77714 0.0
C703 C 0.14744 0.86021 0.78142 0.0
C704 C 0.15986 0.89321 0.77884 0.0
C705 C 0.19594 0.04137 0.69279 0.0
C706 C 0.16312 0.04326 0.69279 0.0
C707 C 0.20824 0.0234 0.71053 0.0
C708 C 0.18825 0.00722 0.72907 0.0
C709 C 0.1552 0.00813 0.72877 0.0
C710 C 0.14272 0.026 0.71077 0.0
C711 C 0.20246 0.99016 0.74889 0.0
C712 C 0.19022 0.95721 0.75296 0.0
C713 C 0.22973 0.00585 0.76247 0.0
C714 C 0.24228 0.04112 0.76055 0.0
C715 C 0.22162 0.06285 0.76409 0.0
C716 C 0.23338 0.09599 0.76179 0.0
C717 C 0.26585 0.10774 0.75616 0.0
C718 C 0.28664 0.08638 0.75289 0.0
C719 C 0.27499 0.0532 0.75512 0.0
H720 H 0.27491 0.13341 0.75437 0.0
H721 H 0.1575 0.81253 0.77915 0.0
H722 H 0.90537 0.41004 0.96661 0.0
H723 H 0.94084 0.43766 0.99856 0.0
H724 H 0.02401 0.43046 0.95479 0.0
H725 H 0.98824 0.40148 0.92287 0.0
H726 H 0.03483 0.42379 1.00485 0.0
H727 H 0.99285 0.49964 0.95291 0.0
H728 H 0.94851 0.5198 0.93279 0.0
H729 H 0.905 0.52883 1.00285 0.0
H730 H 0.94905 0.5089 0.02346 0.0
H731 H 0.13693 0.55038 0.07264 0.0
H732 H 0.10863 0.51406 0.04116 0.0
H733 H 0.01732 0.52852 0.06937 0.0
H734 H 0.04548 0.5661 0.09952 0.0
H735 H 0.01407 0.53204 0.02411 0.0
H736 H 0.04994 0.45571 0.07702 0.0
H737 H 0.08944 0.43191 0.10016 0.0
H738 H 0.13877 0.41914 0.03315 0.0
H739 H 0.09978 0.44324 1.00964 0.0
C740 C 0.93124 0.41381 0.96396 0.0
C741 C 0.94409 0.40392 0.94216 0.0
C742 C 0.9515 0.42973 0.9822 0.0
C743 C 0.98508 0.43698 0.9788 0.0
C744 C 0.99816 0.42535 0.95773 0.0
C745 C 0.97776 0.40877 0.93954 0.0
C746 C 1.00592 0.45866 0.99644 0.0
C747 C 0.03069 0.44766 1.00886 0.0
C748 C 0.99999 0.48952 1.00212 0.0
C749 C 0.97419 0.50266 0.98971 0.0
C750 C 0.97383 0.50593 0.96402 0.0
C751 C 0.94874 0.51726 0.95253 0.0
C752 C 0.9239 0.52538 0.9665 0.0
C753 C 0.92424 0.5225 0.99204 0.0
C754 C 0.94933 0.51133 1.00365 0.0
C755 C 0.11081 0.54561 0.07219 0.0
C756 C 0.09349 0.56131 0.0886 0.0
C757 C 0.09458 0.52465 0.05423 0.0
C758 C 0.06064 0.51815 0.05284 0.0
C759 C 0.04346 0.53317 0.06976 0.0
C760 C 0.05964 0.55468 0.08718 0.0
C761 C 0.04271 0.49701 0.03328 0.0
C762 C 0.01853 0.50825 0.02022 0.0
C763 C 0.04873 0.46613 0.02753 0.0
C764 C 0.07217 0.45161 0.04161 0.0
C765 C 0.06936 0.44805 0.06724 0.0
C766 C 0.09163 0.43447 0.08042 0.0
C767 C 0.11666 0.42412 0.06814 0.0
C768 C 0.11941 0.42723 0.04264 0.0
C769 C 0.09722 0.44083 0.02938 0.0
H770 H 0.13387 0.41361 0.07838 0.0
H771 H 0.90444 0.53398 0.95753 0.0
H772 H 0.4665 0.38388 0.30256 0.0
H773 H 0.49601 0.35894 0.27171 0.0
H774 H 0.50382 0.28339 0.32305 0.0
H775 H 0.47361 0.30741 0.35339 0.0
H776 H 0.55334 0.34203 0.26654 0.0
H777 H 0.49213 0.21219 0.29507 0.0
H778 H 0.44175 0.18443 0.31501 0.0
H779 H 0.39354 0.25839 0.29009 0.0
H780 H 0.44343 0.28626 0.26961 0.0
H781 H 0.63187 0.22857 0.20677 0.0
H782 H 0.60851 0.26081 0.23646 0.0
H783 H 0.51535 0.23139 0.202 0.0
H784 H 0.5382 0.19863 0.17294 0.0
H785 H 0.50713 0.22732 0.24828 0.0
H786 H 0.5639 0.30893 0.19493 0.0
H787 H 0.61064 0.33945 0.17217 0.0
H788 H 0.66086 0.36558 0.24001 0.0
H789 H 0.61456 0.33484 0.26317 0.0
C790 C 0.47489 0.36218 0.30731 0.0
C791 C 0.46729 0.34736 0.33027 0.0
C792 C 0.49179 0.34796 0.28969 0.0
C793 C 0.50156 0.31885 0.29483 0.0
C794 C 0.49588 0.30536 0.31837 0.0
C795 C 0.47862 0.31919 0.33575 0.0
C796 C 0.51568 0.30127 0.2753 0.0
C797 C 0.54329 0.31695 0.26255 0.0
C798 C 0.50214 0.26873 0.26957 0.0
C799 C 0.47163 0.25144 0.28099 0.0
C800 C 0.47071 0.22239 0.29368 0.0
C801 C 0.44225 0.20666 0.3051 0.0
C802 C 0.41449 0.21969 0.30388 0.0
C803 C 0.41507 0.24836 0.29107 0.0
C804 C 0.44343 0.26412 0.27954 0.0
C805 C 0.60644 0.2291 0.20549 0.0
C806 C 0.58695 0.21091 0.18747 0.0
C807 C 0.59311 0.24768 0.22241 0.0
C808 C 0.56011 0.24884 0.22145 0.0
C809 C 0.54079 0.23089 0.20331 0.0
C810 C 0.55398 0.21214 0.1866 0.0
C811 C 0.54525 0.26784 0.23966 0.0
C812 C 0.51736 0.25239 0.25221 0.0
C813 C 0.55801 0.3008 0.24461 0.0
C814 C 0.58589 0.31932 0.23076 0.0
C815 C 0.58501 0.32098 0.20498 0.0
C816 C 0.6114 0.33835 0.19201 0.0
C817 C 0.63874 0.35437 0.20463 0.0
C818 C 0.63969 0.35312 0.23026 0.0
C819 C 0.61337 0.33574 0.24332 0.0
H820 H 0.65915 0.36782 0.19456 0.0
H821 H 0.39253 0.20754 0.31282 0.0
H822 H 0.78813 0.87383 0.42927 0.0
H823 H 0.74949 0.84673 0.46008 0.0
H824 H 0.80333 0.77103 0.46642 0.0
H825 H 0.84171 0.7976 0.43612 0.0
H826 H 0.73855 0.74701 0.46342 0.0
H827 H 0.81167 0.83088 0.50815 0.0
H828 H 0.8378 0.88738 0.51628 0.0
H829 H 0.7451 0.91113 0.5282 0.0
H830 H 0.71839 0.85482 0.51977 0.0
H831 H 0.71328 0.66741 0.57453 0.0
H832 H 0.73583 0.70283 0.54118 0.0
H833 H 0.66435 0.76059 0.55294 0.0
H834 H 0.64141 0.72506 0.58699 0.0
H835 H 0.72655 0.79777 0.54402 0.0
H836 H 0.65413 0.71132 0.50586 0.0
H837 H 0.62861 0.65456 0.49825 0.0
H838 H 0.71929 0.63559 0.47362 0.0
H839 H 0.7455 0.69213 0.48146 0.0
C840 C 0.7916 0.85131 0.43713 0.0
C841 C 0.81805 0.83791 0.43004 0.0
C842 C 0.76955 0.83591 0.45479 0.0
C843 C 0.77352 0.80683 0.46558 0.0
C844 C 0.79961 0.79331 0.45826 0.0
C845 C 0.82164 0.80868 0.44087 0.0
C846 C 0.75128 0.79031 0.48491 0.0
C847 C 0.7359 0.75813 0.48103 0.0
C848 C 0.74695 0.80509 0.50763 0.0
C849 C 0.76303 0.83877 0.51304 0.0
C850 C 0.79685 0.84821 0.51232 0.0
C851 C 0.81177 0.88019 0.51701 0.0
C852 C 0.79311 0.90285 0.52267 0.0
C853 C 0.75951 0.89356 0.52376 0.0
C854 C 0.74447 0.86162 0.51903 0.0
C855 C 0.70223 0.68766 0.57028 0.0
C856 C 0.67532 0.69319 0.58353 0.0
C857 C 0.71519 0.70789 0.55103 0.0
C858 C 0.70152 0.73411 0.54429 0.0
C859 C 0.6752 0.74041 0.55779 0.0
C860 C 0.6621 0.72003 0.5772 0.0
C861 C 0.71483 0.75414 0.52277 0.0
C862 C 0.72851 0.78689 0.52622 0.0
C863 C 0.71757 0.73993 0.49955 0.0
C864 C 0.70181 0.70599 0.49435 0.0
C865 C 0.66868 0.69502 0.49894 0.0
C866 C 0.65408 0.66287 0.49458 0.0
C867 C 0.67232 0.64147 0.48548 0.0
C868 C 0.70519 0.6522 0.48066 0.0
C869 C 0.71991 0.68432 0.48502 0.0
H870 H 0.66099 0.61659 0.48214 0.0
H871 H 0.8047 0.9276 0.52627 0.0
H872 H 0.131 0.54502 0.21853 0.0
H873 H 0.15417 0.51211 0.2481 0.0
H874 H 0.22506 0.4985 0.19445 0.0
H875 H 0.20265 0.53179 0.16516 0.0
H876 H 0.19537 0.44073 0.22254 0.0
H877 H 0.24819 0.55298 0.23295 0.0
H878 H 0.24787 0.61023 0.24052 0.0
H879 H 0.20167 0.58585 0.31014 0.0
H880 H 0.20118 0.52834 0.30275 0.0
H881 H 0.31919 0.39172 0.29137 0.0
H882 H 0.28551 0.41577 0.26345 0.0
H883 H 0.242 0.45403 0.32542 0.0
H884 H 0.2772 0.43173 0.35321 0.0
H885 H 0.2527 0.49767 0.29426 0.0
H886 H 0.20206 0.38679 0.28692 0.0
H887 H 0.19855 0.32872 0.28004 0.0
H888 H 0.23515 0.34802 0.20686 0.0
H889 H 0.23928 0.40626 0.2134 0.0
C890 C 0.15121 0.53461 0.21296 0.0
C891 C 0.16509 0.5411 0.18957 0.0
C892 C 0.16446 0.5159 0.22986 0.0
C893 C 0.19138 0.50293 0.22346 0.0
C894 C 0.20426 0.50818 0.19975 0.0
C895 C 0.19149 0.52734 0.18308 0.0
C896 C 0.20768 0.48575 0.24184 0.0
C897 C 0.20805 0.45309 0.23821 0.0
C898 C 0.2235 0.50173 0.26256 0.0
C899 C 0.2243 0.53634 0.26717 0.0
C900 C 0.23771 0.5598 0.24978 0.0
C901 C 0.23772 0.5923 0.25404 0.0
C902 C 0.22468 0.60167 0.27577 0.0
C903 C 0.21171 0.57855 0.2933 0.0
C904 C 0.21156 0.54601 0.28908 0.0
C905 C 0.30214 0.40492 0.29903 0.0
C906 C 0.30075 0.4097 0.32449 0.0
C907 C 0.28268 0.41857 0.28303 0.0
C908 C 0.26057 0.43641 0.29218 0.0
C909 C 0.25875 0.44051 0.31773 0.0
C910 C 0.27879 0.42759 0.33366 0.0
C911 C 0.24064 0.4522 0.27517 0.0
C912 C 0.2397 0.48483 0.27892 0.0
C913 C 0.2238 0.43595 0.25478 0.0
C914 C 0.22122 0.40092 0.25073 0.0
C915 C 0.20956 0.37867 0.26941 0.0
C916 C 0.20743 0.34572 0.26556 0.0
C917 C 0.21668 0.3347 0.24304 0.0
C918 C 0.22801 0.3566 0.2243 0.0
C919 C 0.23021 0.38958 0.22806 0.0
H920 H 0.21503 0.30918 0.24011 0.0
H921 H 0.2247 0.62683 0.27904 0.0
H922 H 0.78367 0.3727 0.93441 0.0
H923 H 0.74536 0.34571 0.96541 0.0
H924 H 0.7968 0.26789 0.96914 0.0
H925 H 0.83464 0.29419 0.93838 0.0
H926 H 0.73318 0.24482 0.96863 0.0
H927 H 0.80761 0.32852 0.0118 0.0
H928 H 0.83493 0.38482 0.01928 0.0
H929 H 0.7434 0.41065 0.0323 0.0
H930 H 0.71548 0.35455 0.02449 0.0
H931 H 0.70631 0.16886 0.08182 0.0
H932 H 0.73112 0.20418 0.04896 0.0
H933 H 0.65669 0.25961 0.0551 0.0
H934 H 0.63121 0.224 0.08829 0.0
H935 H 0.72219 0.2976 0.04859 0.0
H936 H 0.64873 0.2108 0.01084 0.0
H937 H 0.6231 0.15377 1.00459 0.0
H938 H 0.71395 0.13334 0.98179 0.0
H939 H 0.74028 0.19015 0.98837 0.0
C940 C 0.78666 0.34972 0.9417 0.0
C941 C 0.81233 0.3357 0.93379 0.0
C942 C 0.7648 0.33438 0.9595 0.0
C943 C 0.76827 0.3048 0.96974 0.0
C944 C 0.79347 0.29058 0.96149 0.0
C945 C 0.81524 0.30582 0.94385 0.0
C946 C 0.74649 0.28862 0.98952 0.0
C947 C 0.73082 0.25641 0.98609 0.0
C948 C 0.74265 0.3039 0.01215 0.0
C949 C 0.75944 0.33745 0.01727 0.0
C950 C 0.7933 0.34626 0.01609 0.0
C951 C 0.80889 0.37812 0.0204 0.0
C952 C 0.7909 0.40132 0.02618 0.0
C953 C 0.75729 0.39266 0.02776 0.0
C954 C 0.74157 0.36084 0.0234 0.0
C955 C 0.69514 0.18863 0.07644 0.0
C956 C 0.66651 0.19334 0.08771 0.0
C957 C 0.70945 0.20884 0.05757 0.0
C958 C 0.6956 0.23433 0.0494 0.0
C959 C 0.66774 0.24003 0.06112 0.0
C960 C 0.65319 0.2196 0.08004 0.0
C961 C 0.70977 0.25365 0.02782 0.0
C962 C 0.724 0.28631 0.03092 0.0
C963 C 0.71242 0.2388 1.00486 0.0
C964 C 0.69653 0.20474 1.00024 0.0
C965 C 0.66329 0.19412 1.00462 0.0
C966 C 0.64863 0.16183 1.00102 0.0
C967 C 0.66689 0.13994 0.99282 0.0
C968 C 0.69983 0.15033 0.98814 0.0
C969 C 0.71464 0.18259 0.99178 0.0
H970 H 0.6555 0.11493 0.99007 0.0
H971 H 0.80302 0.42598 0.02949 0.0
H972 H 0.81378 0.95996 0.33966 0.0
H973 H 0.78072 0.98075 0.30957 0.0
H974 H 0.75125 0.88583 0.27855 0.0
H975 H 0.78458 0.86454 0.30891 0.0
H976 H 0.7695 0.93442 0.24305 0.0
H977 H 0.69891 0.91488 0.31272 0.0
H978 H 0.68417 0.91816 0.35631 0.0
H979 H 0.70203 0.02132 0.35148 0.0
H980 H 0.71732 0.0187 0.30794 0.0
H981 H 0.65665 0.98482 0.16441 0.0
H982 H 0.6787 0.95511 0.19643 0.0
H983 H 0.7046 0.04212 0.23917 0.0
H984 H 0.6818 0.07181 0.2075 0.0
H985 H 0.6847 0.9929 0.2688 0.0
H986 H 0.75959 0.01447 0.20193 0.0
H987 H 0.77704 0.01404 0.15876 0.0
H988 H 0.75479 0.91063 0.15875 0.0
H989 H 0.73667 0.91046 0.20183 0.0
C990 C 0.8003 0.94332 0.32652 0.0
C991 C 0.80186 0.91047 0.3268 0.0
C992 C 0.78123 0.95531 0.30935 0.0
C993 C 0.76319 0.93484 0.29194 0.0
C994 C 0.76487 0.90206 0.29189 0.0
C995 C 0.78385 0.88991 0.30929 0.0
C996 C 0.74315 0.94814 0.27367 0.0
C997 C 0.75049 0.94662 0.24863 0.0
C998 C 0.719 0.96494 0.28098 0.0
C999 C 0.70948 0.96659 0.3071 0.0
C1000 C 0.6999 0.93828 0.32099 0.0
C1001 C 0.69142 0.94002 0.34569 0.0
C1002 C 0.69222 0.96993 0.35667 0.0
C1003 C 0.70143 0.99817 0.34295 0.0
C1004 C 0.70996 0.99656 0.31825 0.0
C1005 C 0.66658 0.99756 0.1808 0.0
C1006 C 0.66761 0.03077 0.18328 0.0
C1007 C 0.67939 0.98056 0.19905 0.0
C1008 C 0.69403 0.99646 0.22003 0.0
C1009 C 0.69359 0.02927 0.22314 0.0
C1010 C 0.68049 0.04625 0.20499 0.0
C1011 C 0.71114 0.97938 0.23812 0.0
C1012 C 0.70338 0.98033 0.26315 0.0
C1013 C 0.73525 0.96244 0.23083 0.0
C1014 C 0.74644 0.96246 0.20502 0.0
C1015 C 0.7582 0.99164 0.19267 0.0
C1016 C 0.76823 0.99151 0.16822 0.0
C1017 C 0.76695 0.96233 0.156 0.0
C1018 C 0.75572 0.93322 0.16823 0.0
C1019 C 0.74556 0.93322 0.19266 0.0
H1020 H 0.77473 0.96226 0.13708 0.0
H1021 H 0.68566 0.97123 0.37579 0.0
H1022 H 0.98521 0.88254 0.43025 0.0
H1023 H 0.02305 0.90899 0.46184 0.0
H1024 H 0.95839 0.9724 0.47897 0.0
H1025 H 0.92085 0.94648 0.44796 0.0
H1026 H 0.0203 0.00528 0.47251 0.0
H1027 H 0.96394 0.90966 0.51568 0.0
H1028 H 0.94691 0.85099 0.52152 0.0
H1029 H 0.04606 0.84194 0.52475 0.0
H1030 H 0.06368 0.90056 0.51857 0.0
H1031 H 0.0496 0.07733 0.58515 0.0
H1032 H 0.02639 0.0409 0.55266 0.0
H1033 H 0.10915 0.99613 0.55421 0.0
H1034 H 0.13267 0.03249 0.5876 0.0
H1035 H 0.05006 0.95142 0.5475 0.0
H1036 H 0.1062 0.04852 0.51049 0.0
H1037 H 0.1227 0.10739 0.50576 0.0
H1038 H 0.02464 0.11374 0.49051 0.0
H1039 H 0.00744 0.05495 0.49553 0.0
C1040 C 0.97904 0.90203 0.44083 0.0
C1041 C 0.95002 0.91246 0.43633 0.0
C1042 C 1.00067 0.91708 0.45889 0.0
C1043 C 0.99361 0.94279 0.4727 0.0
C1044 C 0.96452 0.95283 0.46842 0.0
C1045 C 0.94298 0.93783 0.45062 0.0
C1046 C 0.01626 0.96005 0.49146 0.0
C1047 C 0.02682 0.99347 0.48889 0.0
C1048 C 0.02573 0.94454 0.51245 0.0
C1049 C 0.01512 0.9094 0.51635 0.0
C1050 C 0.98211 0.89512 0.51743 0.0
C1051 C 0.97234 0.86188 0.52084 0.0
C1052 C 0.99539 0.84273 0.52342 0.0
C1053 C 0.02824 0.8568 0.52269 0.0
C1054 C 0.03813 0.89002 0.51924 0.0
C1055 C 0.06291 0.05958 0.57896 0.0
C1056 C 0.0932 0.05808 0.58904 0.0
C1057 C 0.04956 0.03876 0.56022 0.0
C1058 C 0.06626 0.01615 0.55068 0.0
C1059 C 0.09591 0.01351 0.56124 0.0
C1060 C 0.10932 0.03435 0.58028 0.0
C1061 C 0.0529 0.99676 0.52891 0.0
C1062 C 0.0442 0.96308 0.53086 0.0
C1063 C 0.04517 0.01197 0.5072 0.0
C1064 C 0.05552 0.04729 0.50347 0.0
C1065 C 0.08813 0.06247 0.50621 0.0
C1066 C 0.09761 0.09584 0.50349 0.0
C1067 C 0.07473 0.1143 0.49786 0.0
C1068 C 0.04234 0.09941 0.49486 0.0
C1069 C 0.03272 0.06604 0.4976 0.0
H1070 H 0.08211 0.14014 0.4958 0.0
H1071 H 0.98778 0.81701 0.52606 0.0
H1072 H 0.95384 0.3756 0.79486 0.0
H1073 H 0.98705 0.35182 0.76608 0.0
H1074 H 0.01669 0.2965 0.82506 0.0
H1075 H 0.98301 0.31948 0.85377 0.0
H1076 H 0.0682 0.32673 0.78974 0.0
H1077 H 0.96082 0.2593 0.79392 0.0
H1078 H 0.90148 0.25041 0.79161 0.0
H1079 H 0.90777 0.2835 0.71688 0.0
H1080 H 0.96724 0.29321 0.71893 0.0
H1081 H 0.12501 0.20232 0.72667 0.0
H1082 H 0.10045 0.23619 0.75403 0.0
H1083 H 0.04589 0.26292 0.69322 0.0
H1084 H 0.06916 0.2278 0.66616 0.0
H1085 H 0.00778 0.25067 0.72882 0.0
H1086 H 0.11349 0.31597 0.72215 0.0
H1087 H 0.17297 0.32884 0.72342 0.0
H1088 H 0.17107 0.30465 0.80005 0.0
H1089 H 0.11155 0.29122 0.79918 0.0
C1090 C 0.96786 0.3588 0.80177 0.0
C1091 C 0.96572 0.34935 0.82657 0.0
C1092 C 0.98676 0.34519 0.7853 0.0
C1093 C 1.00428 0.32236 0.79345 0.0
C1094 C 1.00347 0.31415 0.81842 0.0
C1095 C 0.98411 0.32722 0.83477 0.0
C1096 C 0.02133 0.30507 0.7757 0.0
C1097 C 0.05511 0.30991 0.77649 0.0
C1098 C 1.00422 0.28378 0.75807 0.0
C1099 C 0.96847 0.27733 0.75667 0.0
C1100 C 0.94956 0.26494 0.77707 0.0
C1101 C 0.91591 0.25973 0.7758 0.0
C1102 C 0.90086 0.26647 0.75413 0.0
C1103 C 0.91946 0.27835 0.73367 0.0
C1104 C 0.95314 0.28371 0.73487 0.0
C1105 C 0.10812 0.21577 0.71908 0.0
C1106 C 0.0991 0.21239 0.69422 0.0
C1107 C 0.09412 0.23531 0.73474 0.0
C1108 C 0.07146 0.25262 0.72576 0.0
C1109 C 0.06316 0.24985 0.70075 0.0
C1110 C 0.07662 0.22984 0.68522 0.0
C1111 C 0.0551 0.27219 0.74258 0.0
C1112 C 0.02123 0.26769 0.74177 0.0
C1113 C 0.07227 0.2942 0.75992 0.0
C1114 C 0.10806 0.30231 0.76054 0.0
C1115 C 0.12576 0.31317 0.73924 0.0
C1116 C 0.15948 0.32061 0.73989 0.0
C1117 C 0.17579 0.31749 0.76179 0.0
C1118 C 0.1584 0.30702 0.7831 0.0
C1119 C 0.12467 0.29952 0.78254 0.0
H1120 H 0.2019 0.32326 0.76225 0.0
H1121 H 0.8748 0.26243 0.75318 0.0
H1122 H 0.63837 0.69865 0.72765 0.0
H1123 H 0.61451 0.73126 0.75682 0.0
H1124 H 0.56223 0.76508 0.69775 0.0
H1125 H 0.58531 0.73207 0.66863 0.0
H1126 H 0.5915 0.81421 0.7346 0.0
H1127 H 0.52319 0.70782 0.72705 0.0
H1128 H 0.51378 0.64851 0.72791 0.0
H1129 H 0.5441 0.65119 0.80326 0.0
H1130 H 0.55435 0.7106 0.80268 0.0
H1131 H 0.46603 0.8701 0.79747 0.0
H1132 H 0.50043 0.84638 0.76992 0.0
H1133 H 0.52388 0.78798 0.82953 0.0
H1134 H 0.48807 0.81029 0.85664 0.0
H1135 H 0.51267 0.75203 0.793 0.0
H1136 H 0.57899 0.8568 0.80286 0.0
H1137 H 0.59243 0.91618 0.80297 0.0
H1138 H 0.57056 0.91759 0.72604 0.0
H1139 H 0.55657 0.85822 0.72553 0.0
C1140 C 0.62227 0.71349 0.72082 0.0
C1141 C 0.61364 0.7127 0.69586 0.0
C1142 C 0.60861 0.73204 0.7375 0.0
C1143 C 0.58655 0.75052 0.72944 0.0
C1144 C 0.57928 0.7511 0.70434 0.0
C1145 C 0.5924 0.73212 0.68776 0.0
C1146 C 0.56889 0.767 0.74731 0.0
C1147 C 0.57409 0.80074 0.74732 0.0
C1148 C 0.54677 0.74937 0.76422 0.0
C1149 C 0.53988 0.71365 0.76474 0.0
C1150 C 0.5281 0.69577 0.74374 0.0
C1151 C 0.52259 0.66214 0.74418 0.0
C1152 C 0.52841 0.64609 0.76561 0.0
C1153 C 0.53965 0.66365 0.78667 0.0
C1154 C 0.54533 0.6973 0.78629 0.0
C1155 C 0.47889 0.85253 0.80475 0.0
C1156 C 0.47439 0.84213 0.82924 0.0
C1157 C 0.49873 0.83902 0.78899 0.0
C1158 C 0.5153 0.81553 0.79757 0.0
C1159 C 0.51141 0.80589 0.82228 0.0
C1160 C 0.49102 0.8188 0.83785 0.0
C1161 C 0.5352 0.7997 0.78063 0.0
C1162 C 0.53029 0.76586 0.78062 0.0
C1163 C 0.55798 0.81735 0.764 0.0
C1164 C 0.56646 0.85306 0.76421 0.0
C1165 C 0.57683 0.86978 0.786 0.0
C1166 C 0.58458 0.90344 0.78613 0.0
C1167 C 0.58228 0.92065 0.76454 0.0
C1168 C 0.5723 0.90423 0.74275 0.0
C1169 C 0.56449 0.87058 0.74253 0.0
H1170 H 0.58828 0.9467 0.76468 0.0
H1171 H 0.52414 0.62005 0.76591 0.0
H1172 H 0.13994 0.72796 0.08956 0.0
H1173 H 0.16666 0.76728 0.05904 0.0
H1174 H 0.23213 0.70486 0.04139 0.0
H1175 H 0.2063 0.66616 0.07163 0.0
H1176 H 0.2644 0.76478 0.04819 0.0
H1177 H 0.1673 0.71269 1.00424 0.0
H1178 H 0.10835 0.69736 0.99846 0.0
H1179 H 0.10172 0.79705 0.99892 0.0
H1180 H 0.16062 0.81293 1.00503 0.0
H1181 H 0.33417 0.79323 0.93518 0.0
H1182 H 0.29769 0.77144 0.96796 0.0
H1183 H 0.25828 0.8575 0.96835 0.0
H1184 H 0.29474 0.87968 0.93448 0.0
H1185 H 0.21073 0.79928 0.97477 0.0
H1186 H 0.31027 0.85079 0.0115 0.0
H1187 H 0.36957 0.86453 0.01515 0.0
H1188 H 0.37178 0.76508 0.02786 0.0
H1189 H 0.31254 0.75065 0.02392 0.0
C1190 C 0.15994 0.7226 0.07907 0.0
C1191 C 0.17101 0.69389 0.08325 0.0
C1192 C 0.17515 0.74508 0.06161 0.0
C1193 C 0.20152 0.7391 0.04793 0.0
C1194 C 0.21208 0.71023 0.05183 0.0
C1195 C 0.1971 0.68799 0.06918 0.0
C1196 C 0.21899 0.76261 0.02973 0.0
C1197 C 0.25259 0.77234 0.03218 0.0
C1198 C 0.20356 0.77354 1.00924 0.0
C1199 C 0.16826 0.76397 1.0054 0.0
C1200 C 0.15323 0.73132 1.0033 0.0
C1201 C 0.11984 0.72253 0.99993 0.0
C1202 C 0.10129 0.74621 0.99841 0.0
C1203 C 0.1161 0.77873 1.00016 0.0
C1204 C 0.14948 0.78764 1.00357 0.0
C1205 C 0.31764 0.80765 0.94185 0.0
C1206 C 0.31766 0.83842 0.9321 0.0
C1207 C 0.29676 0.79507 0.96078 0.0
C1208 C 0.27563 0.81302 0.97093 0.0
C1209 C 0.27453 0.84329 0.96083 0.0
C1210 C 0.29543 0.85595 0.94154 0.0
C1211 C 0.25617 0.80003 0.9928 0.0
C1212 C 0.22236 0.79242 0.99111 0.0
C1213 C 0.27134 0.79092 0.01409 0.0
C1214 C 0.30692 0.79964 0.01737 0.0
C1215 C 0.3234 0.83183 0.01503 0.0
C1216 C 0.35701 0.83974 0.01712 0.0
C1217 C 0.37443 0.81569 0.02172 0.0
C1218 C 0.35825 0.78369 0.02433 0.0
C1219 C 0.32464 0.77564 0.02222 0.0
H1220 H 0.40046 0.82184 0.02326 0.0
H1221 H 0.07544 0.73937 0.99581 0.0
H1222 H 0.41842 0.45135 0.44673 0.0
H1223 H 0.45685 0.47854 0.47677 0.0
H1224 H 0.51883 0.41148 0.46289 0.0
H1225 H 0.48004 0.38357 0.4325 0.0
H1226 H 0.51302 0.42528 0.5134 0.0
H1227 H 0.5389 0.4833 0.43856 0.0
H1228 H 0.52661 0.51035 0.40069 0.0
H1229 H 0.49019 0.58009 0.44349 0.0
H1230 H 0.50165 0.5531 0.48163 0.0
H1231 H 0.63339 0.53297 0.58503 0.0
H1232 H 0.60696 0.49763 0.55213 0.0
H1233 H 0.53352 0.55443 0.54658 0.0
H1234 H 0.55966 0.58978 0.57884 0.0
H1235 H 0.55422 0.54257 0.50223 0.0
H1236 H 0.52032 0.48059 0.57585 0.0
H1237 H 0.52917 0.45264 0.6142 0.0
H1238 H 0.57909 0.39059 0.57408 0.0
H1239 H 0.57089 0.41849 0.53552 0.0
C1240 C 0.44015 0.44217 0.44991 0.0
C1241 C 0.44621 0.41538 0.43685 0.0
C1242 C 0.46217 0.45786 0.46717 0.0
C1243 C 0.49096 0.44738 0.47183 0.0
C1244 C 0.49682 0.42007 0.45948 0.0
C1245 C 0.47468 0.40424 0.44206 0.0
C1246 C 0.51489 0.46582 0.48923 0.0
C1247 C 0.52265 0.45078 0.51074 0.0
C1248 C 0.52714 0.49918 0.48589 0.0
C1249 C 0.52102 0.51605 0.46298 0.0
C1250 C 0.52813 0.50432 0.43991 0.0
C1251 C 0.5213 0.51963 0.41839 0.0
C1252 C 0.50761 0.5469 0.41968 0.0
C1253 C 0.5008 0.55897 0.44251 0.0
C1254 C 0.5075 0.54368 0.4641 0.0
C1255 C 0.61153 0.53783 0.57687 0.0
C1256 C 0.59868 0.56424 0.58476 0.0
C1257 C 0.59642 0.51757 0.55807 0.0
C1258 C 0.56814 0.52327 0.54689 0.0
C1259 C 0.55536 0.54956 0.55479 0.0
C1260 C 0.57036 0.56973 0.57343 0.0
C1261 C 0.55151 0.50233 0.52686 0.0
C1262 C 0.54517 0.51694 0.50474 0.0
C1263 C 0.5405 0.46867 0.52973 0.0
C1264 C 0.54536 0.45188 0.55287 0.0
C1265 C 0.53342 0.46116 0.57525 0.0
C1266 C 0.53828 0.4453 0.59701 0.0
C1267 C 0.55478 0.41993 0.59659 0.0
C1268 C 0.56638 0.4103 0.57439 0.0
C1269 C 0.56163 0.42612 0.55257 0.0
H1270 H 0.5585 0.40767 0.61346 0.0
H1271 H 0.5023 0.5587 0.403 0.0
loop_
_geom_bond_atom_site_label_1
_geom_bond_atom_site_label_2
_geom_bond_distance
_geom_bond_site_symmetry_2
_ccdc_geom_bond_type
Co0 O2 2.143 . S
Co0 O8 2.074 . S
Co0 O11 2.093 . S
Co0 O24 2.097 . S
Co0 N41 2.151 . S
Co0 N49 2.214 . S
Co1 O2 2.160 . S
Co1 O7 2.058 . S
Co1 O17 2.057 . S
Co1 O32 2.037 . S
Co1 N36 2.145 . S
Co1 N57 2.257 . S
O2 Co0 2.143 . S
O2 Co1 2.160 . S
C3 O4 1.278 . S
C3 O11 1.224 . S
O4 C3 1.278 . S
C5 O6 1.245 . S
C5 O17 1.232 . S
O6 C5 1.245 . S
O7 Co1 2.058 . S
O7 C33 1.269 . S
O8 Co0 2.074 . S
O8 C33 1.257 . S
H9 C34 0.930 . S
H10 C40 0.930 . S
O11 Co0 2.093 . S
O11 C3 1.224 . S
H12 C44 0.929 . S
H13 C46 0.930 . S
H14 C47 0.930 . S
H15 C45 0.929 . S
H16 C48 0.928 . S
O17 Co1 2.057 . S
O17 C5 1.232 . S
H18 C37 0.929 . S
H19 C38 0.929 . S
H20 C50 0.931 . S
H21 C42 0.929 . S
H22 C51 0.930 . S
H23 C43 0.931 . S
O24 Co0 2.097 . S
O24 C52 1.214 . S
H25 C53 0.929 . S
H26 C54 0.929 . S
H27 C55 0.930 1_655 S
H28 C56 0.919 1_655 S
H29 C58 0.930 . S
H30 C35 0.930 1_655 S
H31 C39 0.930 . S
O32 Co1 2.037 . S
O32 C52 1.234 . S
C33 O7 1.269 . S
C33 O8 1.257 . S
C34 H9 0.930 . S
C34 C37 1.388 . S
C34 C39 1.418 1_455 S
C35 H30 0.930 1_455 S
C35 C38 1.404 . S
C35 C39 1.353 1_455 S
N36 Co1 2.145 . S
N36 C37 1.397 . S
N36 C38 1.334 . S
C37 H18 0.929 . S
C37 C34 1.388 . S
C37 N36 1.397 . S
C38 H19 0.929 . S
C38 C35 1.404 . S
C38 N36 1.334 . S
C39 H31 0.930 . S
C39 C34 1.418 1_655 S
C39 C35 1.353 1_655 S
C40 H10 0.930 . S
C40 N41 1.330 . S
C40 C42 1.446 . S
N41 Co0 2.151 . S
N41 C40 1.330 . S
N41 C45 1.418 . S
C42 H21 0.929 . S
C42 C40 1.446 . S
C42 C43 1.332 . S
C43 H23 0.931 . S
C43 C42 1.332 . S
C43 C44 1.267 . S
C44 H12 0.929 . S
C44 C43 1.267 . S
C44 C45 1.251 . S
C45 H15 0.929 . S
C45 N41 1.418 . S
C45 C44 1.251 . S
C46 H13 0.930 . S
C46 C48 1.406 . S
C46 C51 1.261 . S
C47 H14 0.930 . S
C47 N49 1.325 . S
C47 C50 1.357 . S
C48 H16 0.928 . S
C48 C46 1.406 . S
C48 N49 1.261 . S
N49 Co0 2.214 . S
N49 C47 1.325 . S
N49 C48 1.261 . S
C50 H20 0.931 . S
C50 C47 1.357 . S
C50 C51 1.312 . S
C51 H22 0.930 . S
C51 C46 1.261 . S
C51 C50 1.312 . S
C52 O24 1.214 . S
C52 O32 1.234 . S
C53 H25 0.929 . S
C53 C56 1.391 . S
C53 C58 1.391 . S
C54 H26 0.929 . S
C54 C55 1.390 . S
C54 N57 1.391 . S
C55 H27 0.930 1_455 S
C55 C54 1.390 . S
C55 C56 1.392 . S
C56 H28 0.919 1_455 S
C56 C53 1.391 . S
C56 C55 1.392 . S
N57 Co1 2.257 . S
N57 C54 1.391 . S
N57 C58 1.388 . S
C58 H29 0.930 . S
C58 C53 1.391 . S
C58 N57 1.388 . S
Co59 O61 2.143 . S
Co59 O67 2.074 . S
Co59 O70 2.093 . S
Co59 O83 2.097 . S
Co59 N100 2.151 . S
Co59 N108 2.214 . S
Co60 O61 2.160 . S
Co60 O66 2.058 . S
Co60 O76 2.057 . S
Co60 O91 2.037 . S
Co60 N95 2.145 . S
Co60 N116 2.257 . S
O61 Co59 2.143 . S
O61 Co60 2.160 . S
C62 O63 1.278 . S
C62 O70 1.224 . S
O63 C62 1.278 . S
C64 O65 1.245 . S
C64 O76 1.232 . S
O65 C64 1.245 . S
O66 Co60 2.058 . S
O66 C92 1.269 . S
O67 Co59 2.074 . S
O67 C92 1.257 . S
H68 C93 0.930 . S
H69 C99 0.930 . S
O70 Co59 2.093 . S
O70 C62 1.224 . S
H71 C103 0.929 . S
H72 C105 0.930 . S
H73 C106 0.930 . S
H74 C104 0.929 . S
H75 C107 0.928 . S
O76 Co60 2.057 . S
O76 C64 1.232 . S
H77 C96 0.929 . S
H78 C97 0.929 . S
H79 C109 0.931 . S
H80 C101 0.929 . S
H81 C110 0.930 . S
H82 C102 0.931 . S
O83 Co59 2.097 . S
O83 C111 1.214 . S
H84 C112 0.929 . S
H85 C113 0.929 . S
H86 C114 0.930 . S
H87 C115 0.929 . S
H88 C117 0.930 . S
H89 C94 0.930 . S
H90 C98 0.930 . S
O91 Co60 2.037 . S
O91 C111 1.234 . S
C92 O66 1.269 . S
C92 O67 1.257 . S
C93 H68 0.930 . S
C93 C96 1.388 . S
C93 C98 1.418 . S
C94 H89 0.930 . S
C94 C97 1.404 . S
C94 C98 1.353 . S
N95 Co60 2.145 . S
N95 C96 1.397 . S
N95 C97 1.334 . S
C96 H77 0.929 . S
C96 C93 1.388 . S
C96 N95 1.397 . S
C97 H78 0.929 . S
C97 C94 1.404 . S
C97 N95 1.334 . S
C98 H90 0.930 . S
C98 C93 1.418 . S
C98 C94 1.353 . S
C99 H69 0.930 . S
C99 N100 1.330 . S
C99 C101 1.446 . S
N100 Co59 2.151 . S
N100 C99 1.330 . S
N100 C104 1.418 . S
C101 H80 0.929 . S
C101 C99 1.446 . S
C101 C102 1.332 . S
C102 H82 0.931 . S
C102 C101 1.332 . S
C102 C103 1.267 . S
C103 H71 0.929 . S
C103 C102 1.267 . S
C103 C104 1.251 . S
C104 H74 0.929 . S
C104 N100 1.418 . S
C104 C103 1.251 . S
C105 H72 0.930 . S
C105 C107 1.406 . S
C105 C110 1.261 . S
C106 H73 0.930 . S
C106 N108 1.325 . S
C106 C109 1.357 . S
C107 H75 0.928 . S
C107 C105 1.406 . S
C107 N108 1.261 . S
N108 Co59 2.214 . S
N108 C106 1.325 . S
N108 C107 1.261 . S
C109 H79 0.931 . S
C109 C106 1.357 . S
C109 C110 1.312 . S
C110 H81 0.930 . S
C110 C105 1.261 . S
C110 C109 1.312 . S
C111 O83 1.214 . S
C111 O91 1.234 . S
C112 H84 0.929 . S
C112 C115 1.391 . S
C112 C117 1.391 . S
C113 H85 0.929 . S
C113 C114 1.390 . S
C113 N116 1.391 . S
C114 H86 0.930 . S
C114 C113 1.390 . S
C114 C115 1.392 . S
C115 H87 0.929 . S
C115 C112 1.391 . S
C115 C114 1.392 . S
N116 Co60 2.257 . S
N116 C113 1.391 . S
N116 C117 1.388 . S
C117 H88 0.930 . S
C117 C112 1.391 . S
C117 N116 1.388 . S
Co118 O120 2.143 . S
Co118 O126 2.074 . S
Co118 O129 2.093 . S
Co118 O142 2.097 . S
Co118 N159 2.151 . S
Co118 N167 2.214 . S
Co119 O120 2.160 . S
Co119 O125 2.058 . S
Co119 O135 2.057 . S
Co119 O150 2.037 . S
Co119 N154 2.145 . S
Co119 N175 2.257 . S
O120 Co118 2.143 . S
O120 Co119 2.160 . S
C121 O122 1.278 . S
C121 O129 1.224 . S
O122 C121 1.278 . S
C123 O124 1.245 . S
C123 O135 1.232 . S
O124 C123 1.245 . S
O125 Co119 2.058 . S
O125 C151 1.269 . S
O126 Co118 2.074 . S
O126 C151 1.257 . S
H127 C152 0.930 . S
H128 C158 0.930 . S
O129 Co118 2.093 . S
O129 C121 1.224 . S
H130 C162 0.929 . S
H131 C164 0.930 . S
H132 C165 0.930 . S
H133 C163 0.929 . S
H134 C166 0.928 . S
O135 Co119 2.057 . S
O135 C123 1.232 . S
H136 C155 0.929 . S
H137 C156 0.929 . S
H138 C168 0.931 . S
H139 C160 0.929 . S
H140 C169 0.930 . S
H141 C161 0.931 . S
O142 Co118 2.097 . S
O142 C170 1.214 . S
H143 C171 0.929 . S
H144 C172 0.929 . S
H145 C173 0.930 . S
H146 C174 0.929 . S
H147 C176 0.930 . S
H148 C153 0.930 . S
H149 C157 0.930 . S
O150 Co119 2.037 . S
O150 C170 1.234 . S
C151 O125 1.269 . S
C151 O126 1.257 . S
C152 H127 0.930 . S
C152 C155 1.388 . S
C152 C157 1.418 . S
C153 H148 0.930 . S
C153 C156 1.404 . S
C153 C157 1.353 . S
N154 Co119 2.145 . S
N154 C155 1.397 . S
N154 C156 1.334 . S
C155 H136 0.929 . S
C155 C152 1.388 . S
C155 N154 1.397 . S
C156 H137 0.929 . S
C156 C153 1.404 . S
C156 N154 1.334 . S
C157 H149 0.930 . S
C157 C152 1.418 . S
C157 C153 1.353 . S
C158 H128 0.930 . S
C158 N159 1.330 . S
C158 C160 1.446 . S
N159 Co118 2.151 . S
N159 C158 1.330 . S
N159 C163 1.418 . S
C160 H139 0.929 . S
C160 C158 1.446 . S
C160 C161 1.332 . S
C161 H141 0.931 . S
C161 C160 1.332 . S
C161 C162 1.267 . S
C162 H130 0.929 . S
C162 C161 1.267 . S
C162 C163 1.251 . S
C163 H133 0.929 . S
C163 N159 1.418 . S
C163 C162 1.251 . S
C164 H131 0.930 . S
C164 C166 1.406 . S
C164 C169 1.261 . S
C165 H132 0.930 . S
C165 N167 1.325 . S
C165 C168 1.357 . S
C166 H134 0.928 . S
C166 C164 1.406 . S
C166 N167 1.261 . S
N167 Co118 2.214 . S
N167 C165 1.325 . S
N167 C166 1.261 . S
C168 H138 0.931 . S
C168 C165 1.357 . S
C168 C169 1.312 . S
C169 H140 0.930 . S
C169 C164 1.261 . S
C169 C168 1.312 . S
C170 O142 1.214 . S
C170 O150 1.234 . S
C171 H143 0.929 . S
C171 C174 1.391 . S
C171 C176 1.391 . S
C172 H144 0.929 . S
C172 C173 1.390 . S
C172 N175 1.391 . S
C173 H145 0.930 . S
C173 C172 1.390 . S
C173 C174 1.392 . S
C174 H146 0.929 . S
C174 C171 1.391 . S
C174 C173 1.392 . S
N175 Co119 2.257 . S
N175 C172 1.391 . S
N175 C176 1.388 . S
C176 H147 0.930 . S
C176 C171 1.391 . S
C176 N175 1.388 . S
Co177 O179 2.143 . S
Co177 O185 2.074 . S
Co177 O188 2.093 . S
Co177 O201 2.097 . S
Co177 N218 2.151 . S
Co177 N226 2.214 . S
Co178 O179 2.160 . S
Co178 O184 2.058 . S
Co178 O194 2.057 . S
Co178 O209 2.037 . S
Co178 N213 2.145 . S
Co178 N234 2.257 . S
O179 Co177 2.143 . S
O179 Co178 2.160 . S
C180 O181 1.278 . S
C180 O188 1.224 . S
O181 C180 1.278 . S
C182 O183 1.245 . S
C182 O194 1.232 . S
O183 C182 1.245 . S
O184 Co178 2.058 . S
O184 C210 1.269 . S
O185 Co177 2.074 . S
O185 C210 1.257 . S
H186 C211 0.930 . S
H187 C217 0.930 . S
O188 Co177 2.093 . S
O188 C180 1.224 . S
H189 C221 0.929 . S
H190 C223 0.930 . S
H191 C224 0.930 . S
H192 C222 0.929 . S
H193 C225 0.928 . S
O194 Co178 2.057 . S
O194 C182 1.232 . S
H195 C214 0.929 . S
H196 C215 0.929 . S
H197 C227 0.931 . S
H198 C219 0.929 . S
H199 C228 0.930 . S
H200 C220 0.931 . S
O201 Co177 2.097 . S
O201 C229 1.214 . S
H202 C230 0.929 . S
H203 C231 0.929 . S
H204 C232 0.930 1_545 S
H205 C233 0.919 1_545 S
H206 C235 0.930 . S
H207 C212 0.930 1_545 S
H208 C216 0.930 . S
O209 Co178 2.037 . S
O209 C229 1.234 . S
C210 O184 1.269 . S
C210 O185 1.257 . S
C211 H186 0.930 . S
C211 C214 1.388 . S
C211 C216 1.418 1_565 S
C212 H207 0.930 1_565 S
C212 C215 1.404 . S
C212 C216 1.353 1_565 S
N213 Co178 2.145 . S
N213 C214 1.397 . S
N213 C215 1.334 . S
C214 H195 0.929 . S
C214 C211 1.388 . S
C214 N213 1.397 . S
C215 H196 0.929 . S
C215 C212 1.404 . S
C215 N213 1.334 . S
C216 H208 0.930 . S
C216 C211 1.418 1_545 S
C216 C212 1.353 1_545 S
C217 H187 0.930 . S
C217 N218 1.330 . S
C217 C219 1.446 . S
N218 Co177 2.151 . S
N218 C217 1.330 . S
N218 C222 1.418 . S
C219 H198 0.929 . S
C219 C217 1.446 . S
C219 C220 1.332 . S
C220 H200 0.931 . S
C220 C219 1.332 . S
C220 C221 1.267 . S
C221 H189 0.929 . S
C221 C220 1.267 . S
C221 C222 1.251 . S
C222 H192 0.929 . S
C222 N218 1.418 . S
C222 C221 1.251 . S
C223 H190 0.930 . S
C223 C225 1.406 . S
C223 C228 1.261 . S
C224 H191 0.930 . S
C224 N226 1.325 . S
C224 C227 1.357 . S
C225 H193 0.928 . S
C225 C223 1.406 . S
C225 N226 1.261 . S
N226 Co177 2.214 . S
N226 C224 1.325 . S
N226 C225 1.261 . S
C227 H197 0.931 . S
C227 C224 1.357 . S
C227 C228 1.312 . S
C228 H199 0.930 . S
C228 C223 1.261 . S
C228 C227 1.312 . S
C229 O201 1.214 . S
C229 O209 1.234 . S
C230 H202 0.929 . S
C230 C233 1.391 . S
C230 C235 1.391 . S
C231 H203 0.929 . S
C231 C232 1.390 . S
C231 N234 1.391 . S
C232 H204 0.930 1_565 S
C232 C231 1.390 . S
C232 C233 1.392 . S
C233 H205 0.919 1_565 S
C233 C230 1.391 . S
C233 C232 1.392 . S
N234 Co178 2.257 . S
N234 C231 1.391 . S
N234 C235 1.388 . S
C235 H206 0.930 . S
C235 C230 1.391 . S
C235 N234 1.388 . S
Co236 O238 2.143 . S
Co236 O244 2.074 . S
Co236 O247 2.093 . S
Co236 O260 2.097 . S
Co236 N277 2.151 . S
Co236 N285 2.214 . S
Co237 O238 2.160 . S
Co237 O243 2.058 . S
Co237 O253 2.057 . S
Co237 O268 2.037 . S
Co237 N272 2.145 . S
Co237 N293 2.257 . S
O238 Co236 2.143 . S
O238 Co237 2.160 . S
C239 O240 1.278 . S
C239 O247 1.224 . S
O240 C239 1.278 . S
C241 O242 1.245 . S
C241 O253 1.232 . S
O242 C241 1.245 . S
O243 Co237 2.058 . S
O243 C269 1.269 . S
O244 Co236 2.074 . S
O244 C269 1.257 . S
H245 C270 0.930 . S
H246 C276 0.930 . S
O247 Co236 2.093 . S
O247 C239 1.224 . S
H248 C280 0.929 . S
H249 C282 0.930 . S
H250 C283 0.930 . S
H251 C281 0.929 . S
H252 C284 0.928 . S
O253 Co237 2.057 . S
O253 C241 1.232 . S
H254 C273 0.929 . S
H255 C274 0.929 . S
H256 C286 0.931 . S
H257 C278 0.929 . S
H258 C287 0.930 . S
H259 C279 0.931 . S
O260 Co236 2.097 . S
O260 C288 1.214 . S
H261 C289 0.929 . S
H262 C290 0.929 . S
H263 C291 0.930 1_655 S
H264 C292 0.919 1_655 S
H265 C294 0.930 . S
H266 C271 0.930 1_655 S
H267 C275 0.930 . S
O268 Co237 2.037 . S
O268 C288 1.234 . S
C269 O243 1.269 . S
C269 O244 1.257 . S
C270 H245 0.930 . S
C270 C273 1.388 . S
C270 C275 1.418 1_455 S
C271 H266 0.930 1_455 S
C271 C274 1.404 . S
C271 C275 1.353 1_455 S
N272 Co237 2.145 . S
N272 C273 1.397 . S
N272 C274 1.334 . S
C273 H254 0.929 . S
C273 C270 1.388 . S
C273 N272 1.397 . S
C274 H255 0.929 . S
C274 C271 1.404 . S
C274 N272 1.334 . S
C275 H267 0.930 . S
C275 C270 1.418 1_655 S
C275 C271 1.353 1_655 S
C276 H246 0.930 . S
C276 N277 1.330 . S
C276 C278 1.446 . S
N277 Co236 2.151 . S
N277 C276 1.330 . S
N277 C281 1.418 . S
C278 H257 0.929 . S
C278 C276 1.446 . S
C278 C279 1.332 . S
C279 H259 0.931 . S
C279 C278 1.332 . S
C279 C280 1.267 . S
C280 H248 0.929 . S
C280 C279 1.267 . S
C280 C281 1.251 . S
C281 H251 0.929 . S
C281 N277 1.418 . S
C281 C280 1.251 . S
C282 H249 0.930 . S
C282 C284 1.406 . S
C282 C287 1.261 . S
C283 H250 0.930 . S
C283 N285 1.325 . S
C283 C286 1.357 . S
C284 H252 0.928 . S
C284 C282 1.406 . S
C284 N285 1.261 . S
N285 Co236 2.214 . S
N285 C283 1.325 . S
N285 C284 1.261 . S
C286 H256 0.931 . S
C286 C283 1.357 . S
C286 C287 1.312 . S
C287 H258 0.930 . S
C287 C282 1.261 . S
C287 C286 1.312 . S
C288 O260 1.214 . S
C288 O268 1.234 . S
C289 H261 0.929 . S
C289 C292 1.391 . S
C289 C294 1.391 . S
C290 H262 0.929 . S
C290 C291 1.390 . S
C290 N293 1.391 . S
C291 H263 0.930 1_455 S
C291 C290 1.390 . S
C291 C292 1.392 . S
C292 H264 0.919 1_455 S
C292 C289 1.391 . S
C292 C291 1.392 . S
N293 Co237 2.257 . S
N293 C290 1.391 . S
N293 C294 1.388 . S
C294 H265 0.930 . S
C294 C289 1.391 . S
C294 N293 1.388 . S
Co295 O297 2.143 . S
Co295 O303 2.074 . S
Co295 O306 2.093 . S
Co295 O319 2.097 . S
Co295 N336 2.151 . S
Co295 N344 2.214 . S
Co296 O297 2.160 . S
Co296 O302 2.058 . S
Co296 O312 2.057 . S
Co296 O327 2.037 . S
Co296 N331 2.145 . S
Co296 N352 2.257 . S
O297 Co295 2.143 . S
O297 Co296 2.160 . S
C298 O299 1.278 . S
C298 O306 1.224 . S
O299 C298 1.278 . S
C300 O301 1.245 . S
C300 O312 1.232 . S
O301 C300 1.245 . S
O302 Co296 2.058 . S
O302 C328 1.269 . S
O303 Co295 2.074 . S
O303 C328 1.257 . S
H304 C329 0.930 . S
H305 C335 0.930 . S
O306 Co295 2.093 . S
O306 C298 1.224 . S
H307 C339 0.929 . S
H308 C341 0.930 . S
H309 C342 0.930 . S
H310 C340 0.929 . S
H311 C343 0.928 . S
O312 Co296 2.057 . S
O312 C300 1.232 . S
H313 C332 0.929 . S
H314 C333 0.929 . S
H315 C345 0.931 . S
H316 C337 0.929 . S
H317 C346 0.930 . S
H318 C338 0.931 . S
O319 Co295 2.097 . S
O319 C347 1.214 . S
H320 C348 0.929 . S
H321 C349 0.929 . S
H322 C350 0.930 . S
H323 C351 0.929 . S
H324 C353 0.930 . S
H325 C330 0.930 . S
H326 C334 0.930 . S
O327 Co296 2.037 . S
O327 C347 1.234 . S
C328 O302 1.269 . S
C328 O303 1.257 . S
C329 H304 0.930 . S
C329 C332 1.388 . S
C329 C334 1.418 . S
C330 H325 0.930 . S
C330 C333 1.404 . S
C330 C334 1.353 . S
N331 Co296 2.145 . S
N331 C332 1.397 . S
N331 C333 1.334 . S
C332 H313 0.929 . S
C332 C329 1.388 . S
C332 N331 1.397 . S
C333 H314 0.929 . S
C333 C330 1.404 . S
C333 N331 1.334 . S
C334 H326 0.930 . S
C334 C329 1.418 . S
C334 C330 1.353 . S
C335 H305 0.930 . S
C335 N336 1.330 . S
C335 C337 1.446 . S
N336 Co295 2.151 . S
N336 C335 1.330 . S
N336 C340 1.418 . S
C337 H316 0.929 . S
C337 C335 1.446 . S
C337 C338 1.332 . S
C338 H318 0.931 . S
C338 C337 1.332 . S
C338 C339 1.267 . S
C339 H307 0.929 . S
C339 C338 1.267 . S
C339 C340 1.251 . S
C340 H310 0.929 . S
C340 N336 1.418 . S
C340 C339 1.251 . S
C341 H308 0.930 . S
C341 C343 1.406 . S
C341 C346 1.261 . S
C342 H309 0.930 . S
C342 N344 1.325 . S
C342 C345 1.357 . S
C343 H311 0.928 . S
C343 C341 1.406 . S
C343 N344 1.261 . S
N344 Co295 2.214 . S
N344 C342 1.325 . S
N344 C343 1.261 . S
C345 H315 0.931 . S
C345 C342 1.357 . S
C345 C346 1.312 . S
C346 H317 0.930 . S
C346 C341 1.261 . S
C346 C345 1.312 . S
C347 O319 1.214 . S
C347 O327 1.234 . S
C348 H320 0.929 . S
C348 C351 1.391 . S
C348 C353 1.391 . S
C349 H321 0.929 . S
C349 C350 1.390 . S
C349 N352 1.391 . S
C350 H322 0.930 . S
C350 C349 1.390 . S
C350 C351 1.392 . S
C351 H323 0.929 . S
C351 C348 1.391 . S
C351 C350 1.392 . S
N352 Co296 2.257 . S
N352 C349 1.391 . S
N352 C353 1.388 . S
C353 H324 0.930 . S
C353 C348 1.391 . S
C353 N352 1.388 . S
Co354 O356 2.143 . S
Co354 O362 2.074 . S
Co354 O365 2.093 . S
Co354 O378 2.097 . S
Co354 N395 2.151 . S
Co354 N403 2.214 . S
Co355 O356 2.160 . S
Co355 O361 2.058 . S
Co355 O371 2.057 . S
Co355 O386 2.037 . S
Co355 N390 2.145 . S
Co355 N411 2.257 . S
O356 Co354 2.143 . S
O356 Co355 2.160 . S
C357 O358 1.278 . S
C357 O365 1.224 . S
O358 C357 1.278 . S
C359 O360 1.245 . S
C359 O371 1.232 . S
O360 C359 1.245 . S
O361 Co355 2.058 . S
O361 C387 1.269 . S
O362 Co354 2.074 . S
O362 C387 1.257 . S
H363 C388 0.930 . S
H364 C394 0.930 . S
O365 Co354 2.093 . S
O365 C357 1.224 . S
H366 C398 0.929 . S
H367 C400 0.930 . S
H368 C401 0.930 . S
H369 C399 0.929 . S
H370 C402 0.928 . S
O371 Co355 2.057 . S
O371 C359 1.232 . S
H372 C391 0.929 . S
H373 C392 0.929 . S
H374 C404 0.931 . S
H375 C396 0.929 . S
H376 C405 0.930 . S
H377 C397 0.931 . S
O378 Co354 2.097 . S
O378 C406 1.214 . S
H379 C407 0.929 . S
H380 C408 0.929 . S
H381 C409 0.930 1_545 S
H382 C410 0.919 1_545 S
H383 C412 0.930 . S
H384 C389 0.930 1_545 S
H385 C393 0.930 . S
O386 Co355 2.037 . S
O386 C406 1.234 . S
C387 O361 1.269 . S
C387 O362 1.257 . S
C388 H363 0.930 . S
C388 C391 1.388 . S
C388 C393 1.418 1_565 S
C389 H384 0.930 1_565 S
C389 C392 1.404 . S
C389 C393 1.353 1_565 S
N390 Co355 2.145 . S
N390 C391 1.397 . S
N390 C392 1.334 . S
C391 H372 0.929 . S
C391 C388 1.388 . S
C391 N390 1.397 . S
C392 H373 0.929 . S
C392 C389 1.404 . S
C392 N390 1.334 . S
C393 H385 0.930 . S
C393 C388 1.418 1_545 S
C393 C389 1.353 1_545 S
C394 H364 0.930 . S
C394 N395 1.330 . S
C394 C396 1.446 . S
N395 Co354 2.151 . S
N395 C394 1.330 . S
N395 C399 1.418 . S
C396 H375 0.929 . S
C396 C394 1.446 . S
C396 C397 1.332 . S
C397 H377 0.931 . S
C397 C396 1.332 . S
C397 C398 1.267 . S
C398 H366 0.929 . S
C398 C397 1.267 . S
C398 C399 1.251 . S
C399 H369 0.929 . S
C399 N395 1.418 . S
C399 C398 1.251 . S
C400 H367 0.930 . S
C400 C402 1.406 . S
C400 C405 1.261 . S
C401 H368 0.930 . S
C401 N403 1.325 . S
C401 C404 1.357 . S
C402 H370 0.928 . S
C402 C400 1.406 . S
C402 N403 1.261 . S
N403 Co354 2.214 . S
N403 C401 1.325 . S
N403 C402 1.261 . S
C404 H374 0.931 . S
C404 C401 1.357 . S
C404 C405 1.312 . S
C405 H376 0.930 . S
C405 C400 1.261 . S
C405 C404 1.312 . S
C406 O378 1.214 . S
C406 O386 1.234 . S
C407 H379 0.929 . S
C407 C410 1.391 . S
C407 C412 1.391 . S
C408 H380 0.929 . S
C408 C409 1.390 . S
C408 N411 1.391 . S
C409 H381 0.930 1_565 S
C409 C408 1.390 . S
C409 C410 1.392 . S
C410 H382 0.919 1_565 S
C410 C407 1.391 . S
C410 C409 1.392 . S
N411 Co355 2.257 . S
N411 C408 1.391 . S
N411 C412 1.388 . S
C412 H383 0.930 . S
C412 C407 1.391 . S
C412 N411 1.388 . S
Co413 O415 2.143 . S
Co413 O421 2.074 . S
Co413 O424 2.093 . S
Co413 O437 2.097 . S
Co413 N454 2.151 . S
Co413 N462 2.214 . S
Co414 O415 2.160 . S
Co414 O420 2.058 . S
Co414 O430 2.057 . S
Co414 O445 2.037 . S
Co414 N449 2.145 . S
Co414 N470 2.257 . S
O415 Co413 2.143 . S
O415 Co414 2.160 . S
C416 O417 1.278 . S
C416 O424 1.224 . S
O417 C416 1.278 . S
C418 O419 1.245 . S
C418 O430 1.232 . S
O419 C418 1.245 . S
O420 Co414 2.058 . S
O420 C446 1.269 . S
O421 Co413 2.074 . S
O421 C446 1.257 . S
H422 C447 0.930 . S
H423 C453 0.930 . S
O424 Co413 2.093 . S
O424 C416 1.224 . S
H425 C457 0.929 . S
H426 C459 0.930 . S
H427 C460 0.930 . S
H428 C458 0.929 . S
H429 C461 0.928 . S
O430 Co414 2.057 . S
O430 C418 1.232 . S
H431 C450 0.929 . S
H432 C451 0.929 . S
H433 C463 0.931 . S
H434 C455 0.929 . S
H435 C464 0.930 . S
H436 C456 0.931 . S
O437 Co413 2.097 . S
O437 C465 1.214 . S
H438 C466 0.929 . S
H439 C467 0.929 . S
H440 C468 0.930 . S
H441 C469 0.929 . S
H442 C471 0.930 . S
H443 C448 0.930 . S
H444 C452 0.930 . S
O445 Co414 2.037 . S
O445 C465 1.234 . S
C446 O420 1.269 . S
C446 O421 1.257 . S
C447 H422 0.930 . S
C447 C450 1.388 . S
C447 C452 1.418 . S
C448 H443 0.930 . S
C448 C451 1.404 . S
C448 C452 1.353 . S
N449 Co414 2.145 . S
N449 C450 1.397 . S
N449 C451 1.334 . S
C450 H431 0.929 . S
C450 C447 1.388 . S
C450 N449 1.397 . S
C451 H432 0.929 . S
C451 C448 1.404 . S
C451 N449 1.334 . S
C452 H444 0.930 . S
C452 C447 1.418 . S
C452 C448 1.353 . S
C453 H423 0.930 . S
C453 N454 1.330 . S
C453 C455 1.446 . S
N454 Co413 2.151 . S
N454 C453 1.330 . S
N454 C458 1.418 . S
C455 H434 0.929 . S
C455 C453 1.446 . S
C455 C456 1.332 . S
C456 H436 0.931 . S
C456 C455 1.332 . S
C456 C457 1.267 . S
C457 H425 0.929 . S
C457 C456 1.267 . S
C457 C458 1.251 . S
C458 H428 0.929 . S
C458 N454 1.418 . S
C458 C457 1.251 . S
C459 H426 0.930 . S
C459 C461 1.406 . S
C459 C464 1.261 . S
C460 H427 0.930 . S
C460 N462 1.325 . S
C460 C463 1.357 . S
C461 H429 0.928 . S
C461 C459 1.406 . S
C461 N462 1.261 . S
N462 Co413 2.214 . S
N462 C460 1.325 . S
N462 C461 1.261 . S
C463 H433 0.931 . S
C463 C460 1.357 . S
C463 C464 1.312 . S
C464 H435 0.930 . S
C464 C459 1.261 . S
C464 C463 1.312 . S
C465 O437 1.214 . S
C465 O445 1.234 . S
C466 H438 0.929 . S
C466 C469 1.391 . S
C466 C471 1.391 . S
C467 H439 0.929 . S
C467 C468 1.390 . S
C467 N470 1.391 . S
C468 H440 0.930 . S
C468 C467 1.390 . S
C468 C469 1.392 . S
C469 H441 0.929 . S
C469 C466 1.391 . S
C469 C468 1.392 . S
N470 Co414 2.257 . S
N470 C467 1.391 . S
N470 C471 1.388 . S
C471 H442 0.930 . S
C471 C466 1.391 . S
C471 N470 1.388 . S
H472 C490 0.951 . S
H473 C492 0.951 . S
H474 C494 0.950 . S
H475 C495 0.950 . S
H476 C497 0.950 . S
H477 C500 0.950 . S
H478 C501 0.950 . S
H479 C503 0.950 . S
H480 C504 0.950 . S
H481 C505 0.951 . S
H482 C507 0.951 . S
H483 C509 0.950 . S
H484 C510 0.950 . S
H485 C512 0.950 . S
H486 C515 0.950 . S
H487 C516 0.950 . S
H488 C518 0.950 . S
H489 C519 0.950 . S
C490 H472 0.951 . S
C490 C491 1.366 . S
C490 C492 1.388 . S
C491 C490 1.366 . S
C491 C495 1.385 . S
C492 H473 0.951 . S
C492 C490 1.388 . S
C492 C493 1.366 . S
C493 C492 1.366 . S
C493 C494 1.414 . S
C493 C496 1.499 . S
C494 H474 0.950 . S
C494 C493 1.414 . S
C494 C495 1.374 . S
C495 H475 0.950 . S
C495 C491 1.385 . S
C495 C494 1.374 . S
C496 C493 1.499 . S
C496 C497 1.373 . S
C496 C498 1.389 . S
C497 H476 0.950 . S
C497 C496 1.373 . S
C497 C513 1.377 . S
C498 C496 1.389 . S
C498 C499 1.524 . S
C498 C512 1.377 . S
C499 C498 1.524 . S
C499 C500 1.397 . S
C499 C504 1.363 . S
C500 H477 0.950 . S
C500 C499 1.397 . S
C500 C501 1.334 . S
C501 H478 0.950 . S
C501 C500 1.334 . S
C501 C502 1.287 . S
C502 C501 1.287 . S
C502 C503 1.524 . S
C502 H521 0.913 . S
C503 H479 0.950 . S
C503 C502 1.524 . S
C503 C504 1.415 . S
C504 H480 0.950 . S
C504 C499 1.363 . S
C504 C503 1.415 . S
C505 H481 0.951 . S
C505 C506 1.366 . S
C505 C507 1.388 . S
C506 C505 1.366 . S
C506 C510 1.385 . S
C507 H482 0.951 . S
C507 C505 1.388 . S
C507 C508 1.366 . S
C508 C507 1.366 . S
C508 C509 1.414 . S
C508 C511 1.499 . S
C509 H483 0.950 . S
C509 C508 1.414 . S
C509 C510 1.374 . S
C510 H484 0.950 . S
C510 C506 1.385 . S
C510 C509 1.374 . S
C511 C508 1.499 . S
C511 C512 1.373 . S
C511 C513 1.389 . S
C512 H485 0.950 . S
C512 C498 1.377 . S
C512 C511 1.373 . S
C513 C497 1.377 . S
C513 C511 1.389 . S
C513 C514 1.524 . S
C514 C513 1.524 . S
C514 C515 1.397 . S
C514 C519 1.363 . S
C515 H486 0.950 . S
C515 C514 1.397 . S
C515 C516 1.334 . S
C516 H487 0.950 . S
C516 C515 1.334 . S
C516 C517 1.287 . S
C517 C516 1.287 . S
C517 C518 1.524 . S
C517 H520 0.999 . S
C518 H488 0.950 . S
C518 C517 1.524 . S
C518 C519 1.415 . S
C519 H489 0.950 . S
C519 C514 1.363 . S
C519 C518 1.415 . S
H520 C517 0.999 . S
H521 C502 0.913 . S
H522 C540 0.951 . S
H523 C542 0.951 . S
H524 C544 0.950 . S
H525 C545 0.950 . S
H526 C547 0.950 . S
H527 C550 0.950 . S
H528 C551 0.950 . S
H529 C553 0.950 . S
H530 C554 0.950 . S
H531 C555 0.951 . S
H532 C557 0.951 . S
H533 C559 0.950 . S
H534 C560 0.950 . S
H535 C562 0.950 . S
H536 C565 0.950 . S
H537 C566 0.950 . S
H538 C568 0.950 . S
H539 C569 0.950 . S
C540 H522 0.951 . S
C540 C541 1.366 . S
C540 C542 1.388 . S
C541 C540 1.366 . S
C541 C545 1.385 . S
C542 H523 0.951 . S
C542 C540 1.388 . S
C542 C543 1.366 . S
C543 C542 1.366 . S
C543 C544 1.414 . S
C543 C546 1.499 . S
C544 H524 0.950 . S
C544 C543 1.414 . S
C544 C545 1.374 . S
C545 H525 0.950 . S
C545 C541 1.385 . S
C545 C544 1.374 . S
C546 C543 1.499 . S
C546 C547 1.373 . S
C546 C548 1.389 . S
C547 H526 0.950 . S
C547 C546 1.373 . S
C547 C563 1.377 . S
C548 C546 1.389 . S
C548 C549 1.524 . S
C548 C562 1.377 . S
C549 C548 1.524 . S
C549 C550 1.397 . S
C549 C554 1.363 . S
C550 H527 0.950 . S
C550 C549 1.397 . S
C550 C551 1.334 . S
C551 H528 0.950 . S
C551 C550 1.334 . S
C551 C552 1.287 . S
C552 C551 1.287 . S
C552 C553 1.524 . S
C552 H571 0.913 . S
C553 H529 0.950 . S
C553 C552 1.524 . S
C553 C554 1.415 . S
C554 H530 0.950 . S
C554 C549 1.363 . S
C554 C553 1.415 . S
C555 H531 0.951 . S
C555 C556 1.366 . S
C555 C557 1.388 . S
C556 C555 1.366 . S
C556 C560 1.385 . S
C557 H532 0.951 . S
C557 C555 1.388 . S
C557 C558 1.366 . S
C558 C557 1.366 . S
C558 C559 1.414 . S
C558 C561 1.499 . S
C559 H533 0.950 . S
C559 C558 1.414 . S
C559 C560 1.374 . S
C560 H534 0.950 . S
C560 C556 1.385 . S
C560 C559 1.374 . S
C561 C558 1.499 . S
C561 C562 1.373 . S
C561 C563 1.389 . S
C562 H535 0.950 . S
C562 C548 1.377 . S
C562 C561 1.373 . S
C563 C547 1.377 . S
C563 C561 1.389 . S
C563 C564 1.524 . S
C564 C563 1.524 . S
C564 C565 1.397 . S
C564 C569 1.363 . S
C565 H536 0.950 . S
C565 C564 1.397 . S
C565 C566 1.334 . S
C566 H537 0.950 . S
C566 C565 1.334 . S
C566 C567 1.287 . S
C567 C566 1.287 . S
C567 C568 1.524 . S
C567 H570 0.999 . S
C568 H538 0.950 . S
C568 C567 1.524 . S
C568 C569 1.415 . S
C569 H539 0.950 . S
C569 C564 1.363 . S
C569 C568 1.415 . S
H570 C567 0.999 . S
H571 C552 0.913 . S
H572 C590 0.951 . S
H573 C592 0.951 . S
H574 C594 0.950 1_565 S
H575 C595 0.950 . S
H576 C597 0.950 . S
H577 C600 0.950 . S
H578 C601 0.950 . S
H579 C603 0.950 1_556 S
H580 C604 0.950 . S
H581 C605 0.951 . S
H582 C607 0.951 . S
H583 C609 0.950 . S
H584 C610 0.950 . S
H585 C612 0.950 1_545 S
H586 C615 0.950 . S
H587 C616 0.950 . S
H588 C618 0.950 1_554 S
H589 C619 0.950 . S
C590 H572 0.951 . S
C590 C591 1.366 . S
C590 C592 1.388 . S
C591 C590 1.366 . S
C591 C595 1.385 . S
C592 H573 0.951 . S
C592 C590 1.388 . S
C592 C593 1.366 . S
C593 C592 1.366 . S
C593 C594 1.414 . S
C593 C596 1.499 . S
C594 H574 0.950 1_545 S
C594 C593 1.414 . S
C594 C595 1.374 . S
C595 H575 0.950 . S
C595 C591 1.385 . S
C595 C594 1.374 . S
C596 C593 1.499 . S
C596 C597 1.373 1_545 S
C596 C598 1.389 . S
C597 H576 0.950 . S
C597 C596 1.373 1_565 S
C597 C613 1.377 1_554 S
C598 C596 1.389 . S
C598 C599 1.524 . S
C598 C612 1.377 1_544 S
C599 C598 1.524 . S
C599 C600 1.397 . S
C599 C604 1.363 1_554 S
C600 H577 0.950 . S
C600 C599 1.397 . S
C600 C601 1.334 . S
C601 H578 0.950 . S
C601 C600 1.334 . S
C601 C602 1.287 . S
C602 C601 1.287 . S
C602 C603 1.524 . S
C602 H621 0.913 . S
C603 H579 0.950 1_554 S
C603 C602 1.524 . S
C603 C604 1.415 1_554 S
C604 H580 0.950 . S
C604 C599 1.363 1_556 S
C604 C603 1.415 1_556 S
C605 H581 0.951 . S
C605 C606 1.366 . S
C605 C607 1.388 . S
C606 C605 1.366 . S
C606 C610 1.385 . S
C607 H582 0.951 . S
C607 C605 1.388 . S
C607 C608 1.366 . S
C608 C607 1.366 . S
C608 C609 1.414 . S
C608 C611 1.499 . S
C609 H583 0.950 . S
C609 C608 1.414 . S
C609 C610 1.374 . S
C610 H584 0.950 . S
C610 C606 1.385 . S
C610 C609 1.374 . S
C611 C608 1.499 . S
C611 C612 1.373 . S
C611 C613 1.389 . S
C612 H585 0.950 1_565 S
C612 C598 1.377 1_566 S
C612 C611 1.373 . S
C613 C597 1.377 1_556 S
C613 C611 1.389 . S
C613 C614 1.524 . S
C614 C613 1.524 . S
C614 C615 1.397 . S
C614 C619 1.363 1_556 S
C615 H586 0.950 . S
C615 C614 1.397 . S
C615 C616 1.334 . S
C616 H587 0.950 . S
C616 C615 1.334 . S
C616 C617 1.287 . S
C617 C616 1.287 . S
C617 C618 1.524 . S
C617 H620 0.999 . S
C618 H588 0.950 1_556 S
C618 C617 1.524 . S
C618 C619 1.415 1_556 S
C619 H589 0.950 . S
C619 C614 1.363 1_554 S
C619 C618 1.415 1_554 S
H620 C617 0.999 . S
H621 C602 0.913 . S
H622 C640 0.951 . S
H623 C642 0.951 . S
H624 C644 0.950 . S
H625 C645 0.950 . S
H626 C647 0.950 . S
H627 C650 0.950 . S
H628 C651 0.950 . S
H629 C653 0.950 . S
H630 C654 0.950 . S
H631 C655 0.951 . S
H632 C657 0.951 . S
H633 C659 0.950 . S
H634 C660 0.950 . S
H635 C662 0.950 . S
H636 C665 0.950 . S
H637 C666 0.950 . S
H638 C668 0.950 . S
H639 C669 0.950 . S
C640 H622 0.951 . S
C640 C641 1.366 . S
C640 C642 1.388 . S
C641 C640 1.366 . S
C641 C645 1.385 . S
C642 H623 0.951 . S
C642 C640 1.388 . S
C642 C643 1.366 . S
C643 C642 1.366 . S
C643 C644 1.414 . S
C643 C646 1.499 1_655 S
C644 H624 0.950 . S
C644 C643 1.414 . S
C644 C645 1.374 . S
C645 H625 0.950 . S
C645 C641 1.385 . S
C645 C644 1.374 . S
C646 C643 1.499 1_455 S
C646 C647 1.373 1_455 S
C646 C648 1.389 . S
C647 H626 0.950 . S
C647 C646 1.373 1_655 S
C647 C663 1.377 1_655 S
C648 C646 1.389 . S
C648 C649 1.524 . S
C648 C662 1.377 . S
C649 C648 1.524 . S
C649 C650 1.397 . S
C649 C654 1.363 . S
C650 H627 0.950 . S
C650 C649 1.397 . S
C650 C651 1.334 . S
C651 H628 0.950 . S
C651 C650 1.334 . S
C651 C652 1.287 . S
C652 C651 1.287 . S
C652 C653 1.524 . S
C652 H671 0.913 . S
C653 H629 0.950 . S
C653 C652 1.524 . S
C653 C654 1.415 . S
C654 H630 0.950 . S
C654 C649 1.363 . S
C654 C653 1.415 . S
C655 H631 0.951 . S
C655 C656 1.366 . S
C655 C657 1.388 . S
C656 C655 1.366 . S
C656 C660 1.385 . S
C657 H632 0.951 . S
C657 C655 1.388 . S
C657 C658 1.366 . S
C658 C657 1.366 . S
C658 C659 1.414 . S
C658 C661 1.499 . S
C659 H633 0.950 . S
C659 C658 1.414 . S
C659 C660 1.374 . S
C660 H634 0.950 . S
C660 C656 1.385 . S
C660 C659 1.374 . S
C661 C658 1.499 . S
C661 C662 1.373 . S
C661 C663 1.389 . S
C662 H635 0.950 . S
C662 C648 1.377 . S
C662 C661 1.373 . S
C663 C647 1.377 1_455 S
C663 C661 1.389 . S
C663 C664 1.524 . S
C664 C663 1.524 . S
C664 C665 1.397 1_455 S
C664 C669 1.363 . S
C665 H636 0.950 . S
C665 C664 1.397 1_655 S
C665 C666 1.334 . S
C666 H637 0.950 . S
C666 C665 1.334 . S
C666 C667 1.287 . S
C667 C666 1.287 . S
C667 C668 1.524 . S
C667 H670 0.999 . S
C668 H638 0.950 . S
C668 C667 1.524 . S
C668 C669 1.415 1_655 S
C669 H639 0.950 . S
C669 C664 1.363 . S
C669 C668 1.415 1_455 S
H670 C667 0.999 . S
H671 C652 0.913 . S
H672 C690 0.951 . S
H673 C692 0.951 . S
H674 C694 0.950 . S
H675 C695 0.950 . S
H676 C697 0.938 1_545 S
H677 C700 0.950 . S
H678 C701 0.950 . S
H679 C703 0.950 . S
H680 C704 0.950 . S
H681 C705 0.951 . S
H682 C707 0.951 . S
H683 C709 0.950 1_565 S
H684 C710 0.950 . S
H685 C712 0.950 . S
H686 C715 0.950 . S
H687 C716 0.950 . S
H688 C718 0.950 . S
H689 C719 0.950 . S
C690 H672 0.951 . S
C690 C691 1.366 . S
C690 C692 1.388 . S
C691 C690 1.366 . S
C691 C695 1.385 . S
C692 H673 0.951 . S
C692 C690 1.388 . S
C692 C693 1.366 . S
C693 C692 1.366 . S
C693 C694 1.414 . S
C693 C696 1.499 . S
C694 H674 0.950 . S
C694 C693 1.414 . S
C694 C695 1.374 . S
C695 H675 0.950 . S
C695 C691 1.385 . S
C695 C694 1.374 . S
C696 C693 1.499 . S
C696 C697 1.410 . S
C696 C698 1.389 . S
C697 H676 0.938 1_565 S
C697 C696 1.410 . S
C697 C713 1.353 1_565 S
C698 C696 1.389 . S
C698 C699 1.524 . S
C698 C712 1.377 . S
C699 C698 1.524 . S
C699 C700 1.397 . S
C699 C704 1.363 . S
C700 H677 0.950 . S
C700 C699 1.397 . S
C700 C701 1.334 . S
C701 H678 0.950 . S
C701 C700 1.334 . S
C701 C702 1.287 . S
C702 C701 1.287 . S
C702 C703 1.524 . S
C702 H721 0.913 . S
C703 H679 0.950 . S
C703 C702 1.524 . S
C703 C704 1.415 . S
C704 H680 0.950 . S
C704 C699 1.363 . S
C704 C703 1.415 . S
C705 H681 0.951 . S
C705 C706 1.366 . S
C705 C707 1.388 . S
C706 C705 1.366 . S
C706 C710 1.385 . S
C707 H682 0.951 . S
C707 C705 1.388 . S
C707 C708 1.366 . S
C708 C707 1.366 . S
C708 C709 1.414 . S
C708 C711 1.509 . S
C709 H683 0.950 1_545 S
C709 C708 1.414 . S
C709 C710 1.374 . S
C710 H684 0.950 . S
C710 C706 1.385 . S
C710 C709 1.374 . S
C711 C708 1.509 . S
C711 C712 1.357 1_545 S
C711 C713 1.395 . S
C712 H685 0.950 . S
C712 C698 1.377 . S
C712 C711 1.357 1_565 S
C713 C697 1.353 1_545 S
C713 C711 1.395 . S
C713 C714 1.524 . S
C714 C713 1.524 . S
C714 C715 1.397 . S
C714 C719 1.363 . S
C715 H686 0.950 . S
C715 C714 1.397 . S
C715 C716 1.334 . S
C716 H687 0.950 . S
C716 C715 1.334 . S
C716 C717 1.287 . S
C717 C716 1.287 . S
C717 C718 1.524 . S
C717 H720 0.999 . S
C718 H688 0.950 . S
C718 C717 1.524 . S
C718 C719 1.415 . S
C719 H689 0.950 . S
C719 C714 1.363 . S
C719 C718 1.415 . S
H720 C717 0.999 . S
H721 C702 0.913 . S
H722 C740 0.951 . S
H723 C742 0.951 . S
H724 C744 0.950 1_455 S
H725 C745 0.950 . S
H726 C747 0.950 . S
H727 C750 0.950 . S
H728 C751 0.950 . S
H729 C753 0.950 . S
H730 C754 0.950 . S
H731 C755 0.951 . S
H732 C757 0.951 . S
H733 C759 0.950 . S
H734 C760 0.950 . S
H735 C762 0.950 . S
H736 C765 0.950 . S
H737 C766 0.950 . S
H738 C768 0.950 . S
H739 C769 0.950 . S
C740 H722 0.951 . S
C740 C741 1.366 . S
C740 C742 1.388 . S
C741 C740 1.366 . S
C741 C745 1.385 . S
C742 H723 0.951 . S
C742 C740 1.388 . S
C742 C743 1.366 . S
C743 C742 1.366 . S
C743 C744 1.414 . S
C743 C746 1.499 . S
C744 H724 0.950 1_655 S
C744 C743 1.414 . S
C744 C745 1.374 . S
C745 H725 0.950 . S
C745 C741 1.385 . S
C745 C744 1.374 . S
C746 C743 1.499 . S
C746 C747 1.373 1_655 S
C746 C748 1.389 . S
C747 H726 0.950 . S
C747 C746 1.373 1_455 S
C747 C763 1.377 1_556 S
C748 C746 1.389 . S
C748 C749 1.524 . S
C748 C762 1.377 1_556 S
C749 C748 1.524 . S
C749 C750 1.397 . S
C749 C754 1.363 1_556 S
C750 H727 0.950 . S
C750 C749 1.397 . S
C750 C751 1.334 . S
C751 H728 0.950 . S
C751 C750 1.334 . S
C751 C752 1.287 . S
C752 C751 1.287 . S
C752 C753 1.524 1_556 S
C752 H771 0.913 . S
C753 H729 0.950 . S
C753 C752 1.524 1_554 S
C753 C754 1.415 . S
C754 H730 0.950 . S
C754 C749 1.363 1_554 S
C754 C753 1.415 . S
C755 H731 0.951 . S
C755 C756 1.366 . S
C755 C757 1.388 . S
C756 C755 1.366 . S
C756 C760 1.385 . S
C757 H732 0.951 . S
C757 C755 1.388 . S
C757 C758 1.366 . S
C758 C757 1.366 . S
C758 C759 1.414 . S
C758 C761 1.499 . S
C759 H733 0.950 . S
C759 C758 1.414 . S
C759 C760 1.374 . S
C760 H734 0.950 . S
C760 C756 1.385 . S
C760 C759 1.374 . S
C761 C758 1.499 . S
C761 C762 1.373 1_455 S
C761 C763 1.389 . S
C762 H735 0.950 . S
C762 C748 1.377 1_554 S
C762 C761 1.373 1_655 S
C763 C747 1.377 1_554 S
C763 C761 1.389 . S
C763 C764 1.524 . S
C764 C763 1.524 . S
C764 C765 1.397 . S
C764 C769 1.363 1_554 S
C765 H736 0.950 . S
C765 C764 1.397 . S
C765 C766 1.334 . S
C766 H737 0.950 . S
C766 C765 1.334 . S
C766 C767 1.287 . S
C767 C766 1.287 . S
C767 C768 1.524 1_554 S
C767 H770 0.999 . S
C768 H738 0.950 . S
C768 C767 1.524 1_556 S
C768 C769 1.415 . S
C769 H739 0.950 . S
C769 C764 1.363 1_556 S
C769 C768 1.415 . S
H770 C767 0.999 . S
H771 C752 0.913 . S
H772 C790 0.951 . S
H773 C792 0.951 . S
H774 C794 0.950 . S
H775 C795 0.950 . S
H776 C797 0.950 . S
H777 C800 0.950 . S
H778 C801 0.950 . S
H779 C803 0.950 . S
H780 C804 0.950 . S
H781 C805 0.951 . S
H782 C807 0.951 . S
H783 C809 0.950 . S
H784 C810 0.950 . S
H785 C812 0.950 . S
H786 C815 0.950 . S
H787 C816 0.950 . S
H788 C818 0.950 . S
H789 C819 0.950 . S
C790 H772 0.951 . S
C790 C791 1.366 . S
C790 C792 1.388 . S
C791 C790 1.366 . S
C791 C795 1.385 . S
C792 H773 0.951 . S
C792 C790 1.388 . S
C792 C793 1.366 . S
C793 C792 1.366 . S
C793 C794 1.414 . S
C793 C796 1.499 . S
C794 H774 0.950 . S
C794 C793 1.414 . S
C794 C795 1.374 . S
C795 H775 0.950 . S
C795 C791 1.385 . S
C795 C794 1.374 . S
C796 C793 1.499 . S
C796 C797 1.373 . S
C796 C798 1.389 . S
C797 H776 0.950 . S
C797 C796 1.373 . S
C797 C813 1.377 . S
C798 C796 1.389 . S
C798 C799 1.524 . S
C798 C812 1.377 . S
C799 C798 1.524 . S
C799 C800 1.397 . S
C799 C804 1.363 . S
C800 H777 0.950 . S
C800 C799 1.397 . S
C800 C801 1.334 . S
C801 H778 0.950 . S
C801 C800 1.334 . S
C801 C802 1.287 . S
C802 C801 1.287 . S
C802 C803 1.524 . S
C802 H821 0.913 . S
C803 H779 0.950 . S
C803 C802 1.524 . S
C803 C804 1.415 . S
C804 H780 0.950 . S
C804 C799 1.363 . S
C804 C803 1.415 . S
C805 H781 0.951 . S
C805 C806 1.366 . S
C805 C807 1.388 . S
C806 C805 1.366 . S
C806 C810 1.385 . S
C807 H782 0.951 . S
C807 C805 1.388 . S
C807 C808 1.366 . S
C808 C807 1.366 . S
C808 C809 1.414 . S
C808 C811 1.499 . S
C809 H783 0.950 . S
C809 C808 1.414 . S
C809 C810 1.374 . S
C810 H784 0.950 . S
C810 C806 1.385 . S
C810 C809 1.374 . S
C811 C808 1.499 . S
C811 C812 1.373 . S
C811 C813 1.389 . S
C812 H785 0.950 . S
C812 C798 1.377 . S
C812 C811 1.373 . S
C813 C797 1.377 . S
C813 C811 1.389 . S
C813 C814 1.524 . S
C814 C813 1.524 . S
C814 C815 1.397 . S
C814 C819 1.363 . S
C815 H786 0.950 . S
C815 C814 1.397 . S
C815 C816 1.334 . S
C816 H787 0.950 . S
C816 C815 1.334 . S
C816 C817 1.287 . S
C817 C816 1.287 . S
C817 C818 1.524 . S
C817 H820 0.999 . S
C818 H788 0.950 . S
C818 C817 1.524 . S
C818 C819 1.415 . S
C819 H789 0.950 . S
C819 C814 1.363 . S
C819 C818 1.415 . S
H820 C817 0.999 . S
H821 C802 0.913 . S
H822 C840 0.951 . S
H823 C842 0.951 . S
H824 C844 0.950 . S
H825 C845 0.950 . S
H826 C847 0.950 . S
H827 C850 0.950 . S
H828 C851 0.950 . S
H829 C853 0.950 . S
H830 C854 0.950 . S
H831 C855 0.951 . S
H832 C857 0.951 . S
H833 C859 0.950 . S
H834 C860 0.950 . S
H835 C862 0.950 . S
H836 C865 0.950 . S
H837 C866 0.950 . S
H838 C868 0.950 . S
H839 C869 0.950 . S
C840 H822 0.951 . S
C840 C841 1.366 . S
C840 C842 1.388 . S
C841 C840 1.366 . S
C841 C845 1.385 . S
C842 H823 0.951 . S
C842 C840 1.388 . S
C842 C843 1.366 . S
C843 C842 1.366 . S
C843 C844 1.414 . S
C843 C846 1.499 . S
C844 H824 0.950 . S
C844 C843 1.414 . S
C844 C845 1.374 . S
C845 H825 0.950 . S
C845 C841 1.385 . S
C845 C844 1.374 . S
C846 C843 1.499 . S
C846 C847 1.373 . S
C846 C848 1.389 . S
C847 H826 0.950 . S
C847 C846 1.373 . S
C847 C863 1.377 . S
C848 C846 1.389 . S
C848 C849 1.524 . S
C848 C862 1.377 . S
C849 C848 1.524 . S
C849 C850 1.397 . S
C849 C854 1.363 . S
C850 H827 0.950 . S
C850 C849 1.397 . S
C850 C851 1.334 . S
C851 H828 0.950 . S
C851 C850 1.334 . S
C851 C852 1.287 . S
C852 C851 1.287 . S
C852 C853 1.524 . S
C852 H871 0.913 . S
C853 H829 0.950 . S
C853 C852 1.524 . S
C853 C854 1.415 . S
C854 H830 0.950 . S
C854 C849 1.363 . S
C854 C853 1.415 . S
C855 H831 0.951 . S
C855 C856 1.366 . S
C855 C857 1.388 . S
C856 C855 1.366 . S
C856 C860 1.385 . S
C857 H832 0.951 . S
C857 C855 1.388 . S
C857 C858 1.366 . S
C858 C857 1.366 . S
C858 C859 1.414 . S
C858 C861 1.499 . S
C859 H833 0.950 . S
C859 C858 1.414 . S
C859 C860 1.374 . S
C860 H834 0.950 . S
C860 C856 1.385 . S
C860 C859 1.374 . S
C861 C858 1.499 . S
C861 C862 1.373 . S
C861 C863 1.389 . S
C862 H835 0.950 . S
C862 C848 1.377 . S
C862 C861 1.373 . S
C863 C847 1.377 . S
C863 C861 1.389 . S
C863 C864 1.524 . S
C864 C863 1.524 . S
C864 C865 1.397 . S
C864 C869 1.363 . S
C865 H836 0.950 . S
C865 C864 1.397 . S
C865 C866 1.334 . S
C866 H837 0.950 . S
C866 C865 1.334 . S
C866 C867 1.287 . S
C867 C866 1.287 . S
C867 C868 1.524 . S
C867 H870 0.999 . S
C868 H838 0.950 . S
C868 C867 1.524 . S
C868 C869 1.415 . S
C869 H839 0.950 . S
C869 C864 1.363 . S
C869 C868 1.415 . S
H870 C867 0.999 . S
H871 C852 0.913 . S
H872 C890 0.951 . S
H873 C892 0.951 . S
H874 C894 0.950 . S
H875 C895 0.950 . S
H876 C897 0.950 . S
H877 C900 0.950 . S
H878 C901 0.950 . S
H879 C903 0.950 . S
H880 C904 0.950 . S
H881 C905 0.951 . S
H882 C907 0.951 . S
H883 C909 0.950 . S
H884 C910 0.950 . S
H885 C912 0.950 . S
H886 C915 0.950 . S
H887 C916 0.950 . S
H888 C918 0.950 . S
H889 C919 0.950 . S
C890 H872 0.951 . S
C890 C891 1.366 . S
C890 C892 1.388 . S
C891 C890 1.366 . S
C891 C895 1.385 . S
C892 H873 0.951 . S
C892 C890 1.388 . S
C892 C893 1.366 . S
C893 C892 1.366 . S
C893 C894 1.414 . S
C893 C896 1.499 . S
C894 H874 0.950 . S
C894 C893 1.414 . S
C894 C895 1.374 . S
C895 H875 0.950 . S
C895 C891 1.385 . S
C895 C894 1.374 . S
C896 C893 1.499 . S
C896 C897 1.373 . S
C896 C898 1.389 . S
C897 H876 0.950 . S
C897 C896 1.373 . S
C897 C913 1.377 . S
C898 C896 1.389 . S
C898 C899 1.524 . S
C898 C912 1.377 . S
C899 C898 1.524 . S
C899 C900 1.397 . S
C899 C904 1.363 . S
C900 H877 0.950 . S
C900 C899 1.397 . S
C900 C901 1.334 . S
C901 H878 0.950 . S
C901 C900 1.334 . S
C901 C902 1.287 . S
C902 C901 1.287 . S
C902 C903 1.524 . S
C902 H921 0.913 . S
C903 H879 0.950 . S
C903 C902 1.524 . S
C903 C904 1.415 . S
C904 H880 0.950 . S
C904 C899 1.363 . S
C904 C903 1.415 . S
C905 H881 0.951 . S
C905 C906 1.366 . S
C905 C907 1.388 . S
C906 C905 1.366 . S
C906 C910 1.385 . S
C907 H882 0.951 . S
C907 C905 1.388 . S
C907 C908 1.366 . S
C908 C907 1.366 . S
C908 C909 1.414 . S
C908 C911 1.499 . S
C909 H883 0.950 . S
C909 C908 1.414 . S
C909 C910 1.374 . S
C910 H884 0.950 . S
C910 C906 1.385 . S
C910 C909 1.374 . S
C911 C908 1.499 . S
C911 C912 1.373 . S
C911 C913 1.389 . S
C912 H885 0.950 . S
C912 C898 1.377 . S
C912 C911 1.373 . S
C913 C897 1.377 . S
C913 C911 1.389 . S
C913 C914 1.524 . S
C914 C913 1.524 . S
C914 C915 1.397 . S
C914 C919 1.363 . S
C915 H886 0.950 . S
C915 C914 1.397 . S
C915 C916 1.334 . S
C916 H887 0.950 . S
C916 C915 1.334 . S
C916 C917 1.287 . S
C917 C916 1.287 . S
C917 C918 1.524 . S
C917 H920 0.999 . S
C918 H888 0.950 . S
C918 C917 1.524 . S
C918 C919 1.415 . S
C919 H889 0.950 . S
C919 C914 1.363 . S
C919 C918 1.415 . S
H920 C917 0.999 . S
H921 C902 0.913 . S
H922 C940 0.951 . S
H923 C942 0.951 . S
H924 C944 0.950 . S
H925 C945 0.950 . S
H926 C947 0.950 . S
H927 C950 0.950 1_556 S
H928 C951 0.950 . S
H929 C953 0.950 . S
H930 C954 0.950 . S
H931 C955 0.951 . S
H932 C957 0.951 . S
H933 C959 0.950 . S
H934 C960 0.950 . S
H935 C962 0.950 . S
H936 C965 0.950 1_554 S
H937 C966 0.950 . S
H938 C968 0.950 . S
H939 C969 0.950 . S
C940 H922 0.951 . S
C940 C941 1.366 . S
C940 C942 1.388 . S
C941 C940 1.366 . S
C941 C945 1.385 . S
C942 H923 0.951 . S
C942 C940 1.388 . S
C942 C943 1.366 . S
C943 C942 1.366 . S
C943 C944 1.414 . S
C943 C946 1.499 . S
C944 H924 0.950 . S
C944 C943 1.414 . S
C944 C945 1.374 . S
C945 H925 0.950 . S
C945 C941 1.385 . S
C945 C944 1.374 . S
C946 C943 1.499 . S
C946 C947 1.373 . S
C946 C948 1.389 1_556 S
C947 H926 0.950 . S
C947 C946 1.373 . S
C947 C963 1.377 . S
C948 C946 1.389 1_554 S
C948 C949 1.524 . S
C948 C962 1.377 . S
C949 C948 1.524 . S
C949 C950 1.397 . S
C949 C954 1.363 . S
C950 H927 0.950 1_554 S
C950 C949 1.397 . S
C950 C951 1.334 . S
C951 H928 0.950 . S
C951 C950 1.334 . S
C951 C952 1.287 . S
C952 C951 1.287 . S
C952 C953 1.524 . S
C952 H971 0.913 . S
C953 H929 0.950 . S
C953 C952 1.524 . S
C953 C954 1.415 . S
C954 H930 0.950 . S
C954 C949 1.363 . S
C954 C953 1.415 . S
C955 H931 0.951 . S
C955 C956 1.366 . S
C955 C957 1.388 . S
C956 C955 1.366 . S
C956 C960 1.385 . S
C957 H932 0.951 . S
C957 C955 1.388 . S
C957 C958 1.366 . S
C958 C957 1.366 . S
C958 C959 1.414 . S
C958 C961 1.499 . S
C959 H933 0.950 . S
C959 C958 1.414 . S
C959 C960 1.374 . S
C960 H934 0.950 . S
C960 C956 1.385 . S
C960 C959 1.374 . S
C961 C958 1.499 . S
C961 C962 1.373 . S
C961 C963 1.389 1_554 S
C962 H935 0.950 . S
C962 C948 1.377 . S
C962 C961 1.373 . S
C963 C947 1.377 . S
C963 C961 1.389 1_556 S
C963 C964 1.524 . S
C964 C963 1.524 . S
C964 C965 1.397 . S
C964 C969 1.363 . S
C965 H936 0.950 1_556 S
C965 C964 1.397 . S
C965 C966 1.334 . S
C966 H937 0.950 . S
C966 C965 1.334 . S
C966 C967 1.287 . S
C967 C966 1.287 . S
C967 C968 1.524 . S
C967 H970 0.999 . S
C968 H938 0.950 . S
C968 C967 1.524 . S
C968 C969 1.415 . S
C969 H939 0.950 . S
C969 C964 1.363 . S
C969 C968 1.415 . S
H970 C967 0.999 . S
H971 C952 0.913 . S
H972 C990 0.951 . S
H973 C992 0.951 . S
H974 C994 0.950 . S
H975 C995 0.950 . S
H976 C997 0.950 . S
H977 C1000 0.950 . S
H978 C1001 0.950 . S
H979 C1003 0.950 . S
H980 C1004 0.950 . S
H981 C1005 0.951 . S
H982 C1007 0.951 1_565 S
H983 C1009 0.950 . S
H984 C1010 0.950 . S
H985 C1012 0.950 . S
H986 C1015 0.950 1_545 S
H987 C1016 0.950 . S
H988 C1018 0.950 . S
H989 C1019 0.950 . S
C990 H972 0.951 . S
C990 C991 1.366 . S
C990 C992 1.388 . S
C991 C990 1.366 . S
C991 C995 1.385 . S
C992 H973 0.951 . S
C992 C990 1.388 . S
C992 C993 1.366 . S
C993 C992 1.366 . S
C993 C994 1.414 . S
C993 C996 1.499 . S
C994 H974 0.950 . S
C994 C993 1.414 . S
C994 C995 1.374 . S
C995 H975 0.950 . S
C995 C991 1.385 . S
C995 C994 1.374 . S
C996 C993 1.499 . S
C996 C997 1.373 . S
C996 C998 1.389 . S
C997 H976 0.950 . S
C997 C996 1.373 . S
C997 C1013 1.377 . S
C998 C996 1.389 . S
C998 C999 1.524 1_565 S
C998 C1012 1.377 1_565 S
C999 C998 1.524 1_545 S
C999 C1000 1.397 1_545 S
C999 C1004 1.363 . S
C1000 H977 0.950 . S
C1000 C999 1.397 1_565 S
C1000 C1001 1.334 . S
C1001 H978 0.950 . S
C1001 C1000 1.334 . S
C1001 C1002 1.287 1_565 S
C1002 C1001 1.287 1_545 S
C1002 C1003 1.524 . S
C1002 H1021 0.913 . S
C1003 H979 0.950 . S
C1003 C1002 1.524 . S
C1003 C1004 1.415 . S
C1004 H980 0.950 . S
C1004 C999 1.363 . S
C1004 C1003 1.415 . S
C1005 H981 0.951 . S
C1005 C1006 1.366 . S
C1005 C1007 1.388 . S
C1006 C1005 1.366 . S
C1006 C1010 1.385 . S
C1007 H982 0.951 1_545 S
C1007 C1005 1.388 . S
C1007 C1008 1.366 . S
C1008 C1007 1.366 . S
C1008 C1009 1.414 . S
C1008 C1011 1.520 . S
C1009 H983 0.950 . S
C1009 C1008 1.414 . S
C1009 C1010 1.374 . S
C1010 H984 0.950 . S
C1010 C1006 1.385 . S
C1010 C1009 1.374 . S
C1011 C1008 1.520 . S
C1011 C1012 1.383 . S
C1011 C1013 1.358 1_545 S
C1012 H985 0.950 . S
C1012 C998 1.377 1_545 S
C1012 C1011 1.383 . S
C1013 C997 1.377 . S
C1013 C1011 1.358 1_565 S
C1013 C1014 1.524 . S
C1014 C1013 1.524 . S
C1014 C1015 1.397 . S
C1014 C1019 1.363 . S
C1015 H986 0.950 1_565 S
C1015 C1014 1.397 . S
C1015 C1016 1.334 . S
C1016 H987 0.950 . S
C1016 C1015 1.334 . S
C1016 C1017 1.287 . S
C1017 C1016 1.287 . S
C1017 C1018 1.524 . S
C1017 H1020 0.999 . S
C1018 H988 0.950 . S
C1018 C1017 1.524 . S
C1018 C1019 1.415 . S
C1019 H989 0.950 . S
C1019 C1014 1.363 . S
C1019 C1018 1.415 . S
H1020 C1017 0.999 . S
H1021 C1002 0.913 . S
H1022 C1040 0.951 . S
H1023 C1042 0.951 1_455 S
H1024 C1044 0.950 . S
H1025 C1045 0.950 . S
H1026 C1047 0.950 1_545 S
H1027 C1050 0.950 1_655 S
H1028 C1051 0.950 1_655 S
H1029 C1053 0.950 . S
H1030 C1054 0.950 . S
H1031 C1055 0.951 . S
H1032 C1057 0.951 . S
H1033 C1059 0.950 . S
H1034 C1060 0.950 . S
H1035 C1062 0.950 . S
H1036 C1065 0.950 . S
H1037 C1066 0.950 . S
H1038 C1068 0.950 . S
H1039 C1069 0.950 . S
C1040 H1022 0.951 . S
C1040 C1041 1.366 . S
C1040 C1042 1.388 . S
C1041 C1040 1.366 . S
C1041 C1045 1.385 . S
C1042 H1023 0.951 1_655 S
C1042 C1040 1.388 . S
C1042 C1043 1.366 . S
C1043 C1042 1.366 . S
C1043 C1044 1.414 . S
C1043 C1046 1.499 . S
C1044 H1024 0.950 . S
C1044 C1043 1.414 . S
C1044 C1045 1.374 . S
C1045 H1025 0.950 . S
C1045 C1041 1.385 . S
C1045 C1044 1.374 . S
C1046 C1043 1.499 . S
C1046 C1047 1.373 . S
C1046 C1048 1.389 1_655 S
C1047 H1026 0.950 1_565 S
C1047 C1046 1.373 . S
C1047 C1063 1.377 1_665 S
C1048 C1046 1.389 1_455 S
C1048 C1049 1.524 . S
C1048 C1062 1.377 . S
C1049 C1048 1.524 . S
C1049 C1050 1.397 . S
C1049 C1054 1.363 . S
C1050 H1027 0.950 1_455 S
C1050 C1049 1.397 . S
C1050 C1051 1.334 . S
C1051 H1028 0.950 1_455 S
C1051 C1050 1.334 . S
C1051 C1052 1.287 . S
C1052 C1051 1.287 . S
C1052 C1053 1.524 . S
C1052 H1071 0.913 . S
C1053 H1029 0.950 . S
C1053 C1052 1.524 . S
C1053 C1054 1.415 . S
C1054 H1030 0.950 . S
C1054 C1049 1.363 . S
C1054 C1053 1.415 . S
C1055 H1031 0.951 . S
C1055 C1056 1.366 . S
C1055 C1057 1.388 . S
C1056 C1055 1.366 . S
C1056 C1060 1.385 . S
C1057 H1032 0.951 . S
C1057 C1055 1.388 . S
C1057 C1058 1.366 . S
C1058 C1057 1.366 . S
C1058 C1059 1.414 . S
C1058 C1061 1.499 . S
C1059 H1033 0.950 . S
C1059 C1058 1.414 . S
C1059 C1060 1.374 . S
C1060 H1034 0.950 . S
C1060 C1056 1.385 . S
C1060 C1059 1.374 . S
C1061 C1058 1.499 . S
C1061 C1062 1.373 1_545 S
C1061 C1063 1.389 . S
C1062 H1035 0.950 . S
C1062 C1048 1.377 . S
C1062 C1061 1.373 1_565 S
C1063 C1047 1.377 1_445 S
C1063 C1061 1.389 . S
C1063 C1064 1.524 1_455 S
C1064 C1063 1.524 1_655 S
C1064 C1065 1.397 1_655 S
C1064 C1069 1.363 . S
C1065 H1036 0.950 . S
C1065 C1064 1.397 1_455 S
C1065 C1066 1.334 . S
C1066 H1037 0.950 . S
C1066 C1065 1.334 . S
C1066 C1067 1.287 1_455 S
C1067 C1066 1.287 1_655 S
C1067 C1068 1.524 . S
C1067 H1070 0.999 . S
C1068 H1038 0.950 . S
C1068 C1067 1.524 . S
C1068 C1069 1.415 . S
C1069 H1039 0.950 . S
C1069 C1064 1.363 . S
C1069 C1068 1.415 . S
H1070 C1067 0.999 . S
H1071 C1052 0.913 . S
H1072 C1090 0.951 . S
H1073 C1092 0.951 . S
H1074 C1094 0.950 . S
H1075 C1095 0.950 . S
H1076 C1097 0.950 . S
H1077 C1100 0.950 . S
H1078 C1101 0.950 . S
H1079 C1103 0.950 . S
H1080 C1104 0.950 . S
H1081 C1105 0.951 . S
H1082 C1107 0.951 . S
H1083 C1109 0.950 . S
H1084 C1110 0.950 . S
H1085 C1112 0.950 1_655 S
H1086 C1115 0.950 . S
H1087 C1116 0.950 . S
H1088 C1118 0.950 . S
H1089 C1119 0.950 . S
C1090 H1072 0.951 . S
C1090 C1091 1.366 . S
C1090 C1092 1.388 . S
C1091 C1090 1.366 . S
C1091 C1095 1.385 . S
C1092 H1073 0.951 . S
C1092 C1090 1.388 . S
C1092 C1093 1.366 . S
C1093 C1092 1.366 . S
C1093 C1094 1.414 . S
C1093 C1096 1.499 . S
C1094 H1074 0.950 . S
C1094 C1093 1.414 . S
C1094 C1095 1.374 . S
C1095 H1075 0.950 . S
C1095 C1091 1.385 . S
C1095 C1094 1.374 . S
C1096 C1093 1.499 . S
C1096 C1097 1.373 1_655 S
C1096 C1098 1.389 . S
C1097 H1076 0.950 . S
C1097 C1096 1.373 1_455 S
C1097 C1113 1.377 . S
C1098 C1096 1.389 . S
C1098 C1099 1.524 . S
C1098 C1112 1.377 1_655 S
C1099 C1098 1.524 . S
C1099 C1100 1.397 . S
C1099 C1104 1.363 . S
C1100 H1077 0.950 . S
C1100 C1099 1.397 . S
C1100 C1101 1.334 . S
C1101 H1078 0.950 . S
C1101 C1100 1.334 . S
C1101 C1102 1.287 . S
C1102 C1101 1.287 . S
C1102 C1103 1.524 . S
C1102 H1121 0.913 . S
C1103 H1079 0.950 . S
C1103 C1102 1.524 . S
C1103 C1104 1.415 . S
C1104 H1080 0.950 . S
C1104 C1099 1.363 . S
C1104 C1103 1.415 . S
C1105 H1081 0.951 . S
C1105 C1106 1.366 . S
C1105 C1107 1.388 . S
C1106 C1105 1.366 . S
C1106 C1110 1.385 . S
C1107 H1082 0.951 . S
C1107 C1105 1.388 . S
C1107 C1108 1.366 . S
C1108 C1107 1.366 . S
C1108 C1109 1.414 . S
C1108 C1111 1.499 . S
C1109 H1083 0.950 . S
C1109 C1108 1.414 . S
C1109 C1110 1.374 . S
C1110 H1084 0.950 . S
C1110 C1106 1.385 . S
C1110 C1109 1.374 . S
C1111 C1108 1.499 . S
C1111 C1112 1.373 . S
C1111 C1113 1.389 . S
C1112 H1085 0.950 1_455 S
C1112 C1098 1.377 1_455 S
C1112 C1111 1.373 . S
C1113 C1097 1.377 . S
C1113 C1111 1.389 . S
C1113 C1114 1.524 . S
C1114 C1113 1.524 . S
C1114 C1115 1.397 . S
C1114 C1119 1.363 . S
C1115 H1086 0.950 . S
C1115 C1114 1.397 . S
C1115 C1116 1.334 . S
C1116 H1087 0.950 . S
C1116 C1115 1.334 . S
C1116 C1117 1.287 . S
C1117 C1116 1.287 . S
C1117 C1118 1.524 . S
C1117 H1120 0.999 . S
C1118 H1088 0.950 . S
C1118 C1117 1.524 . S
C1118 C1119 1.415 . S
C1119 H1089 0.950 . S
C1119 C1114 1.363 . S
C1119 C1118 1.415 . S
H1120 C1117 0.999 . S
H1121 C1102 0.913 . S
H1122 C1140 0.951 . S
H1123 C1142 0.951 . S
H1124 C1144 0.950 . S
H1125 C1145 0.950 . S
H1126 C1147 0.950 . S
H1127 C1150 0.950 . S
H1128 C1151 0.950 . S
H1129 C1153 0.950 . S
H1130 C1154 0.950 . S
H1131 C1155 0.951 . S
H1132 C1157 0.951 . S
H1133 C1159 0.950 . S
H1134 C1160 0.950 . S
H1135 C1162 0.950 . S
H1136 C1165 0.950 . S
H1137 C1166 0.950 . S
H1138 C1168 0.950 . S
H1139 C1169 0.950 . S
C1140 H1122 0.951 . S
C1140 C1141 1.366 . S
C1140 C1142 1.388 . S
C1141 C1140 1.366 . S
C1141 C1145 1.385 . S
C1142 H1123 0.951 . S
C1142 C1140 1.388 . S
C1142 C1143 1.366 . S
C1143 C1142 1.366 . S
C1143 C1144 1.414 . S
C1143 C1146 1.499 . S
C1144 H1124 0.950 . S
C1144 C1143 1.414 . S
C1144 C1145 1.374 . S
C1145 H1125 0.950 . S
C1145 C1141 1.385 . S
C1145 C1144 1.374 . S
C1146 C1143 1.499 . S
C1146 C1147 1.373 . S
C1146 C1148 1.389 . S
C1147 H1126 0.950 . S
C1147 C1146 1.373 . S
C1147 C1163 1.377 . S
C1148 C1146 1.389 . S
C1148 C1149 1.524 . S
C1148 C1162 1.377 . S
C1149 C1148 1.524 . S
C1149 C1150 1.397 . S
C1149 C1154 1.363 . S
C1150 H1127 0.950 . S
C1150 C1149 1.397 . S
C1150 C1151 1.334 . S
C1151 H1128 0.950 . S
C1151 C1150 1.334 . S
C1151 C1152 1.287 . S
C1152 C1151 1.287 . S
C1152 C1153 1.524 . S
C1152 H1171 0.913 . S
C1153 H1129 0.950 . S
C1153 C1152 1.524 . S
C1153 C1154 1.415 . S
C1154 H1130 0.950 . S
C1154 C1149 1.363 . S
C1154 C1153 1.415 . S
C1155 H1131 0.951 . S
C1155 C1156 1.366 . S
C1155 C1157 1.388 . S
C1156 C1155 1.366 . S
C1156 C1160 1.385 . S
C1157 H1132 0.951 . S
C1157 C1155 1.388 . S
C1157 C1158 1.366 . S
C1158 C1157 1.366 . S
C1158 C1159 1.414 . S
C1158 C1161 1.499 . S
C1159 H1133 0.950 . S
C1159 C1158 1.414 . S
C1159 C1160 1.374 . S
C1160 H1134 0.950 . S
C1160 C1156 1.385 . S
C1160 C1159 1.374 . S
C1161 C1158 1.499 . S
C1161 C1162 1.373 . S
C1161 C1163 1.389 . S
C1162 H1135 0.950 . S
C1162 C1148 1.377 . S
C1162 C1161 1.373 . S
C1163 C1147 1.377 . S
C1163 C1161 1.389 . S
C1163 C1164 1.524 . S
C1164 C1163 1.524 . S
C1164 C1165 1.397 . S
C1164 C1169 1.363 . S
C1165 H1136 0.950 . S
C1165 C1164 1.397 . S
C1165 C1166 1.334 . S
C1166 H1137 0.950 . S
C1166 C1165 1.334 . S
C1166 C1167 1.287 . S
C1167 C1166 1.287 . S
C1167 C1168 1.524 . S
C1167 H1170 0.999 . S
C1168 H1138 0.950 . S
C1168 C1167 1.524 . S
C1168 C1169 1.415 . S
C1169 H1139 0.950 . S
C1169 C1164 1.363 . S
C1169 C1168 1.415 . S
H1170 C1167 0.999 . S
H1171 C1152 0.913 . S
H1172 C1190 0.951 . S
H1173 C1192 0.951 . S
H1174 C1194 0.950 . S
H1175 C1195 0.950 . S
H1176 C1197 0.950 . S
H1177 C1200 0.950 . S
H1178 C1201 0.950 . S
H1179 C1203 0.950 . S
H1180 C1204 0.950 . S
H1181 C1205 0.951 . S
H1182 C1207 0.951 . S
H1183 C1209 0.950 . S
H1184 C1210 0.950 . S
H1185 C1212 0.950 . S
H1186 C1215 0.950 . S
H1187 C1216 0.950 . S
H1188 C1218 0.950 . S
H1189 C1219 0.950 . S
C1190 H1172 0.951 . S
C1190 C1191 1.366 . S
C1190 C1192 1.388 . S
C1191 C1190 1.366 . S
C1191 C1195 1.385 . S
C1192 H1173 0.951 . S
C1192 C1190 1.388 . S
C1192 C1193 1.366 . S
C1193 C1192 1.366 . S
C1193 C1194 1.414 . S
C1193 C1196 1.499 . S
C1194 H1174 0.950 . S
C1194 C1193 1.414 . S
C1194 C1195 1.374 . S
C1195 H1175 0.950 . S
C1195 C1191 1.385 . S
C1195 C1194 1.374 . S
C1196 C1193 1.499 . S
C1196 C1197 1.373 . S
C1196 C1198 1.389 . S
C1197 H1176 0.950 . S
C1197 C1196 1.373 . S
C1197 C1213 1.377 1_554 S
C1198 C1196 1.389 . S
C1198 C1199 1.524 . S
C1198 C1212 1.377 1_554 S
C1199 C1198 1.524 . S
C1199 C1200 1.397 . S
C1199 C1204 1.363 . S
C1200 H1177 0.950 . S
C1200 C1199 1.397 . S
C1200 C1201 1.334 . S
C1201 H1178 0.950 . S
C1201 C1200 1.334 . S
C1201 C1202 1.287 . S
C1202 C1201 1.287 . S
C1202 C1203 1.524 . S
C1202 H1221 0.913 . S
C1203 H1179 0.950 . S
C1203 C1202 1.524 . S
C1203 C1204 1.415 . S
C1204 H1180 0.950 . S
C1204 C1199 1.363 . S
C1204 C1203 1.415 . S
C1205 H1181 0.951 . S
C1205 C1206 1.366 . S
C1205 C1207 1.388 . S
C1206 C1205 1.366 . S
C1206 C1210 1.385 . S
C1207 H1182 0.951 . S
C1207 C1205 1.388 . S
C1207 C1208 1.366 . S
C1208 C1207 1.366 . S
C1208 C1209 1.414 . S
C1208 C1211 1.499 . S
C1209 H1183 0.950 . S
C1209 C1208 1.414 . S
C1209 C1210 1.374 . S
C1210 H1184 0.950 . S
C1210 C1206 1.385 . S
C1210 C1209 1.374 . S
C1211 C1208 1.499 . S
C1211 C1212 1.373 . S
C1211 C1213 1.389 . S
C1212 H1185 0.950 . S
C1212 C1198 1.377 1_556 S
C1212 C1211 1.373 . S
C1213 C1197 1.377 1_556 S
C1213 C1211 1.389 . S
C1213 C1214 1.524 . S
C1214 C1213 1.524 . S
C1214 C1215 1.397 . S
C1214 C1219 1.363 . S
C1215 H1186 0.950 . S
C1215 C1214 1.397 . S
C1215 C1216 1.334 . S
C1216 H1187 0.950 . S
C1216 C1215 1.334 . S
C1216 C1217 1.287 . S
C1217 C1216 1.287 . S
C1217 C1218 1.524 . S
C1217 H1220 0.999 . S
C1218 H1188 0.950 . S
C1218 C1217 1.524 . S
C1218 C1219 1.415 . S
C1219 H1189 0.950 . S
C1219 C1214 1.363 . S
C1219 C1218 1.415 . S
H1220 C1217 0.999 . S
H1221 C1202 0.913 . S
H1222 C1240 0.951 . S
H1223 C1242 0.951 . S
H1224 C1244 0.950 . S
H1225 C1245 0.950 . S
H1226 C1247 0.950 . S
H1227 C1250 0.950 . S
H1228 C1251 0.950 . S
H1229 C1253 0.950 . S
H1230 C1254 0.950 . S
H1231 C1255 0.951 . S
H1232 C1257 0.951 . S
H1233 C1259 0.950 . S
H1234 C1260 0.950 . S
H1235 C1262 0.950 . S
H1236 C1265 0.950 . S
H1237 C1266 0.950 . S
H1238 C1268 0.950 . S
H1239 C1269 0.950 . S
C1240 H1222 0.951 . S
C1240 C1241 1.366 . S
C1240 C1242 1.388 . S
C1241 C1240 1.366 . S
C1241 C1245 1.385 . S
C1242 H1223 0.951 . S
C1242 C1240 1.388 . S
C1242 C1243 1.366 . S
C1243 C1242 1.366 . S
C1243 C1244 1.414 . S
C1243 C1246 1.499 . S
C1244 H1224 0.950 . S
C1244 C1243 1.414 . S
C1244 C1245 1.374 . S
C1245 H1225 0.950 . S
C1245 C1241 1.385 . S
C1245 C1244 1.374 . S
C1246 C1243 1.499 . S
C1246 C1247 1.373 . S
C1246 C1248 1.389 . S
C1247 H1226 0.950 . S
C1247 C1246 1.373 . S
C1247 C1263 1.377 . S
C1248 C1246 1.389 . S
C1248 C1249 1.524 . S
C1248 C1262 1.377 . S
C1249 C1248 1.524 . S
C1249 C1250 1.397 . S
C1249 C1254 1.363 . S
C1250 H1227 0.950 . S
C1250 C1249 1.397 . S
C1250 C1251 1.334 . S
C1251 H1228 0.950 . S
C1251 C1250 1.334 . S
C1251 C1252 1.287 . S
C1252 C1251 1.287 . S
C1252 C1253 1.524 . S
C1252 H1271 0.913 . S
C1253 H1229 0.950 . S
C1253 C1252 1.524 . S
C1253 C1254 1.415 . S
C1254 H1230 0.950 . S
C1254 C1249 1.363 . S
C1254 C1253 1.415 . S
C1255 H1231 0.951 . S
C1255 C1256 1.366 . S
C1255 C1257 1.388 . S
C1256 C1255 1.366 . S
C1256 C1260 1.385 . S
C1257 H1232 0.951 . S
C1257 C1255 1.388 . S
C1257 C1258 1.366 . S
C1258 C1257 1.366 . S
C1258 C1259 1.414 . S
C1258 C1261 1.499 . S
C1259 H1233 0.950 . S
C1259 C1258 1.414 . S
C1259 C1260 1.374 . S
C1260 H1234 0.950 . S
C1260 C1256 1.385 . S
C1260 C1259 1.374 . S
C1261 C1258 1.499 . S
C1261 C1262 1.373 . S
C1261 C1263 1.389 . S
C1262 H1235 0.950 . S
C1262 C1248 1.377 . S
C1262 C1261 1.373 . S
C1263 C1247 1.377 . S
C1263 C1261 1.389 . S
C1263 C1264 1.524 . S
C1264 C1263 1.524 . S
C1264 C1265 1.397 . S
C1264 C1269 1.363 . S
C1265 H1236 0.950 . S
C1265 C1264 1.397 . S
C1265 C1266 1.334 . S
C1266 H1237 0.950 . S
C1266 C1265 1.334 . S
C1266 C1267 1.287 . S
C1267 C1266 1.287 . S
C1267 C1268 1.524 . S
C1267 H1270 0.999 . S
C1268 H1238 0.950 . S
C1268 C1267 1.524 . S
C1268 C1269 1.415 . S
C1269 H1239 0.950 . S
C1269 C1264 1.363 . S
C1269 C1268 1.415 . S
H1270 C1267 0.999 . S
H1271 C1252 0.913 . S
C491 C328 1.591 . S
C506 C33 1.591 . S
C541 C416 1.586 . S
C556 C64 1.591 . S
C591 C170 1.593 . S
C606 C406 1.592 . S
C641 C180 1.586 . S
C656 C241 1.592 . S
C691 C359 1.591 . S
C706 C3 1.585 . S
C741 C111 1.593 . S
C756 C288 1.592 . S
C791 C298 1.586 . S
C806 C123 1.591 . S
C841 C210 1.591 . S
C856 C446 1.591 . S
C891 C239 1.585 . S
C906 C300 1.591 . S
C941 C92 1.591 . S
C956 C151 1.591 . S
C991 C182 1.592 . S
C1006 C121 1.586 . S
C1041 C229 1.592 . S
C1056 C52 1.593 . S
C1091 C62 1.585 . S
C1106 C5 1.591 . S
C1141 C418 1.592 . S
C1156 C357 1.585 . S
C1191 C269 1.591 . S
C1206 C387 1.591 . S
C1241 C347 1.593 . S
C1256 C465 1.592 . S
