# Generated by pormake.
# Topology xbj, (5)-cn, num edge types: 1
# Building blocks:
#     Node 0, Type 0, BuildingBlock: XOMCOT_clean_sbu_1, # of connection points: 5
#     Node 1, Type 0, BuildingBlock: XOMCOT_clean_sbu_1, # of connection points: 5
#     Node 2, Type 0, BuildingBlock: XOMCOT_clean_sbu_1, # of connection points: 5
#     Node 3, Type 0, BuildingBlock: XOMCOT_clean_sbu_1, # of connection points: 5
#     Node 4, Type 0, BuildingBlock: XOMCOT_clean_sbu_1, # of connection points: 5
#     Node 5, Type 0, BuildingBlock: XOMCOT_clean_sbu_1, # of connection points: 5
#     Node 6, Type 0, BuildingBlock: XOMCOT_clean_sbu_1, # of connection points: 5
#     Node 7, Type 0, BuildingBlock: XOMCOT_clean_sbu_1, # of connection points: 5
#     Edge 8, Type (0, 0), BuildingBlock: EZIPEK_clean_linker_0, # of connection points: 2
#     Edge 9, Type (0, 0), BuildingBlock: EZIPEK_clean_linker_0, # of connection points: 2
#     Edge 10, Type (0, 0), BuildingBlock: EZIPEK_clean_linker_0, # of connection points: 2
#     Edge 11, Type (0, 0), BuildingBlock: EZIPEK_clean_linker_0, # of connection points: 2
#     Edge 12, Type (0, 0), BuildingBlock: EZIPEK_clean_linker_0, # of connection points: 2
#     Edge 13, Type (0, 0), BuildingBlock: EZIPEK_clean_linker_0, # of connection points: 2
#     Edge 14, Type (0, 0), BuildingBlock: EZIPEK_clean_linker_0, # of connection points: 2
#     Edge 15, Type (0, 0), BuildingBlock: EZIPEK_clean_linker_0, # of connection points: 2
#     Edge 16, Type (0, 0), BuildingBlock: EZIPEK_clean_linker_0, # of connection points: 2
#     Edge 17, Type (0, 0), BuildingBlock: EZIPEK_clean_linker_0, # of connection points: 2
#     Edge 18, Type (0, 0), BuildingBlock: EZIPEK_clean_linker_0, # of connection points: 2
#     Edge 19, Type (0, 0), BuildingBlock: EZIPEK_clean_linker_0, # of connection points: 2
#     Edge 20, Type (0, 0), BuildingBlock: EZIPEK_clean_linker_0, # of connection points: 2
#     Edge 21, Type (0, 0), BuildingBlock: EZIPEK_clean_linker_0, # of connection points: 2
#     Edge 22, Type (0, 0), BuildingBlock: EZIPEK_clean_linker_0, # of connection points: 2
#     Edge 23, Type (0, 0), BuildingBlock: EZIPEK_clean_linker_0, # of connection points: 2
#     Edge 24, Type (0, 0), BuildingBlock: EZIPEK_clean_linker_0, # of connection points: 2
#     Edge 25, Type (0, 0), BuildingBlock: EZIPEK_clean_linker_0, # of connection points: 2
#     Edge 26, Type (0, 0), BuildingBlock: EZIPEK_clean_linker_0, # of connection points: 2
#     Edge 27, Type (0, 0), BuildingBlock: EZIPEK_clean_linker_0, # of connection points: 2
# Relax obj value: 0.175
# Max RMSD: 0.161
# Mean RMSD: 0.154
data_MOF--net-xbj--node1-XOMCOT_clean_sbu_1--edge1-EZIPEK_clean_linker_0
_symmetry_space_group_name_H-M    P1
_symmetry_Int_Tables_number       1
_symmetry_cell_setting            triclinic
loop_
_symmetry_equiv_pos_as_xyz
'x, y, z'
_cell_length_a     13.684832
_cell_length_b     13.707116
_cell_length_c     79.849206
_cell_angle_alpha  95.332769
_cell_angle_beta   96.054129
_cell_angle_gamma 90.870271
loop_
_atom_site_label
_atom_site_type_symbol
_atom_site_fract_x
_atom_site_fract_y
_atom_site_fract_z
_atom_type_partial_charge
C0 C 0.24663 0.91424 0.06603 0.0
C1 C 0.34694 0.91265 0.06634 0.0
N2 N 0.36999 0.85609 0.05266 0.0
N3 N 0.20472 0.8626 0.05179 0.0
C4 C 0.28208 0.82426 0.04431 0.0
H5 H 0.2071 0.95889 0.07475 0.0
Co6 Co 0.06867 0.86855 0.04372 0.0
C7 C 0.07684 0.7292 0.02279 0.0
O8 O 0.10391 0.81136 0.01718 0.0
N9 N 0.93164 0.86925 0.03586 0.0
C10 C 0.79184 0.90291 0.02089 0.0
C11 C 0.89254 0.90322 0.02136 0.0
C12 C 0.8523 0.83986 0.04312 0.0
N13 N 0.76577 0.86182 0.03452 0.0
O14 O 0.04205 0.85525 0.06715 0.0
H15 H 0.93485 0.93069 0.01204 0.0
H16 H 0.8575 0.80424 0.05463 0.0
O17 O 0.06172 0.73004 0.03833 0.0
C18 C 1.00088 0.90274 0.07891 0.0
O19 O 0.95715 0.98495 0.07623 0.0
N20 N 0.07699 1.01207 0.04584 0.0
C21 C 0.04768 0.12645 0.01899 0.0
C22 C 0.14317 0.10546 0.02534 0.0
C23 C 0.15638 0.04733 0.0388 0.0
C24 C 0.99174 0.06291 0.0437 0.0
C25 C 0.97295 0.11512 0.02946 0.0
H26 H 0.2285 1.01826 0.04091 0.0
H27 H 0.92833 0.0439 0.04974 0.0
H28 H 0.27466 0.77861 0.03244 0.0
H29 H 0.39905 0.95449 0.07551 0.0
H30 H 0.74165 0.9319 0.01128 0.0
H31 H 0.20474 0.11955 0.01833 0.0
H32 H 0.89798 0.13413 0.02557 0.0
C33 C 0.48562 0.80346 0.30165 0.0
C34 C 0.4803 0.90321 0.30109 0.0
N35 N 0.57193 0.94184 0.30425 0.0
N36 N 0.58029 0.77884 0.30503 0.0
C37 C 0.63139 0.86533 0.30676 0.0
H38 H 0.42388 0.7521 0.30004 0.0
Co39 Co 0.61705 0.64954 0.30767 0.0
C40 C 0.81264 0.62477 0.29518 0.0
O41 O 0.78668 0.53214 0.2914 0.0
N42 N 0.65005 0.51791 0.31111 0.0
C43 C 0.72941 0.39436 0.32235 0.0
C44 C 0.72639 0.49425 0.32208 0.0
C45 C 0.60636 0.43007 0.30512 0.0
N46 N 0.65412 0.35417 0.31169 0.0
O47 O 0.65365 0.68644 0.33133 0.0
H48 H 0.77788 0.5467 0.32933 0.0
H49 H 0.5403 0.42128 0.29638 0.0
O50 O 0.75284 0.68048 0.30269 0.0
C51 C 0.59512 0.66697 0.34203 0.0
O52 O 0.51148 0.62016 0.33675 0.0
N53 N 0.57515 0.61749 0.28422 0.0
C54 C 0.47923 0.6316 0.25193 0.0
C55 C 0.57906 0.65498 0.25544 0.0
C56 C 0.62336 0.65378 0.27184 0.0
C57 C 0.48042 0.5831 0.28038 0.0
C58 C 0.43006 0.59126 0.26432 0.0
H59 H 0.69069 0.69543 0.27459 0.0
H60 H 0.44005 0.56033 0.29035 0.0
H61 H 0.70964 0.87277 0.31035 0.0
H62 H 0.41419 0.94471 0.29897 0.0
H63 H 0.78185 0.35413 0.32998 0.0
H64 H 0.61808 0.68956 0.24634 0.0
H65 H 0.35195 0.5743 0.26209 0.0
C66 C 0.69341 0.14454 0.55832 0.0
C67 C 0.79449 0.14133 0.55992 0.0
N68 N 0.82687 0.18537 0.54714 0.0
N69 N 0.66141 0.19157 0.54469 0.0
C70 C 0.74537 0.21556 0.53815 0.0
H71 H 0.64606 0.11468 0.5667 0.0
Co72 Co 0.52648 0.2166 0.53837 0.0
C73 C 0.49622 1.02301 0.52628 0.0
O74 O 0.47556 0.92943 0.52663 0.0
N75 N 0.38975 0.24055 0.53242 0.0
C76 C 0.24873 0.29941 0.52114 0.0
C77 C 0.34939 0.30065 0.52119 0.0
C78 C 0.31061 0.20242 0.53881 0.0
N79 N 0.22433 0.23815 0.5323 0.0
O80 O 0.51162 0.24615 0.56232 0.0
H81 H 0.3895 0.34398 0.51349 0.0
H82 H 0.31627 0.15098 0.54833 0.0
O83 O 0.49438 0.08167 0.53966 0.0
C84 C 0.45944 0.30219 0.57121 0.0
O85 O 0.39693 0.36138 0.56402 0.0
N86 N 0.56051 0.34519 0.53501 0.0
C87 C 0.59833 0.51197 0.51941 0.0
C88 C 0.59939 0.41984 0.51057 0.0
C89 C 0.58018 0.33807 0.51864 0.0
C90 C 0.56586 0.43408 0.54438 0.0
C91 C 0.58406 0.5197 0.53666 0.0
H92 H 0.57701 0.26755 0.5117 0.0
H93 H 0.55409 0.44042 0.55754 0.0
H94 H 0.74786 0.25508 0.52712 0.0
H95 H 0.84077 0.10862 0.56962 0.0
H96 H 0.19731 0.34176 0.51372 0.0
H97 H 0.61035 0.41138 0.49726 0.0
H98 H 0.58362 0.59077 0.54381 0.0
C99 C 0.95777 0.28509 0.78365 0.0
C100 C 0.95238 0.38487 0.78308 0.0
N101 N 0.04163 0.42496 0.78851 0.0
N102 N 0.05022 0.26203 0.78929 0.0
C103 C 0.09968 0.34935 0.79235 0.0
H104 H 0.89777 0.23237 0.78023 0.0
Co105 Co 0.08711 0.1327 0.79184 0.0
C106 C 0.28886 0.11371 0.78278 0.0
O107 O 0.26109 1.02536 0.77593 0.0
N108 N 0.12066 1.00062 0.79512 0.0
C109 C 0.1981 0.8779 0.80703 0.0
C110 C 0.19452 0.97771 0.80665 0.0
C111 C 0.07913 0.91221 0.78886 0.0
N112 N 0.12573 0.83695 0.79583 0.0
O113 O 0.10954 0.16516 0.81582 0.0
H114 H 0.24297 1.03077 0.81444 0.0
H115 H 1.01484 0.90231 0.77976 0.0
O116 O 0.22575 0.16673 0.7899 0.0
C117 C 0.0469 0.14262 0.8256 0.0
O118 O 0.96541 0.09498 0.81924 0.0
N119 N 0.06068 0.10572 0.76792 0.0
C120 C 0.98581 0.11652 0.7342 0.0
C121 C 0.07809 0.15714 0.74031 0.0
C122 C 0.11221 0.15446 0.75728 0.0
C123 C 0.97238 0.06123 0.76186 0.0
C124 C 0.93346 0.06556 0.74496 0.0
H125 H 0.17459 0.20151 0.76194 0.0
H126 H 0.92713 1.03103 0.77051 0.0
H127 H 0.17577 0.35785 0.79752 0.0
H128 H 0.88782 0.42523 0.77919 0.0
H129 H 0.24842 0.83831 0.81516 0.0
H130 H 0.11849 0.20025 0.7325 0.0
H131 H 0.86022 0.03607 0.74072 0.0
C132 C 0.87464 0.29124 0.90637 0.0
C133 C 0.77417 0.28981 0.9059 0.0
N134 N 0.75103 0.32953 0.92089 0.0
N135 N 0.91615 0.33312 0.92158 0.0
C136 C 0.83738 0.35499 0.93017 0.0
H137 H 0.91337 0.2575 0.89638 0.0
Co138 Co 0.05507 0.33666 0.92972 0.0
C139 C 1.00705 0.24247 0.95226 0.0
O140 O 1.00623 0.33783 0.95613 0.0
N141 N 0.19353 0.3276 0.93737 0.0
C142 C 0.33191 0.29495 0.95328 0.0
C143 C 0.23144 0.29885 0.95247 0.0
C144 C 0.27424 0.33546 0.92893 0.0
N145 N 0.35851 0.31844 0.93848 0.0
O146 O 0.08113 0.28182 0.90707 0.0
H147 H 0.18976 0.28049 0.9625 0.0
H148 H 0.27244 0.3542 0.91608 0.0
O149 O 1.03347 0.21173 0.93777 0.0
C150 C 0.10727 0.32278 0.89441 0.0
O151 O 0.13434 0.41571 0.89598 0.0
N152 N 0.07086 0.47347 0.92489 0.0
C153 C 0.0611 0.57488 0.95611 0.0
C154 C 0.97581 0.55637 0.94464 0.0
C155 C 0.98616 0.5194 0.928 0.0
C156 C 0.15391 0.52084 0.93294 0.0
C157 C 0.15183 0.56824 0.94926 0.0
H158 H 0.92196 0.51028 0.91882 0.0
H159 H 0.22288 0.51433 0.92758 0.0
H160 H 0.84267 0.38742 0.94309 0.0
H161 H 0.72212 0.25691 0.89571 0.0
H162 H 0.38165 0.27493 0.9638 0.0
H163 H 0.90286 0.56775 0.94841 0.0
H164 H 0.21983 0.59328 0.95671 0.0
C165 C 0.90542 0.64335 0.17497 0.0
C166 C 0.89357 0.54304 0.17439 0.0
N167 N 0.98242 0.50491 0.17796 0.0
N168 N 1.00122 0.66892 0.17894 0.0
C169 C 0.04662 0.58236 0.18054 0.0
H170 H 0.84729 0.69513 0.17314 0.0
Co171 Co 0.04183 0.80211 0.18282 0.0
C172 C 0.23604 0.80797 0.20236 0.0
O173 O 0.20159 0.88205 0.21148 0.0
N174 N 0.07766 0.93945 0.18572 0.0
C175 C 0.16177 0.07666 0.18253 0.0
C176 C 0.16542 0.97687 0.18257 0.0
C177 C 1.02038 1.01972 0.18687 0.0
N178 N 0.07065 0.10381 0.18518 0.0
O179 O 0.06918 0.80054 0.15959 0.0
H180 H 0.22716 0.93386 0.1792 0.0
H181 H 0.94203 1.01625 0.18762 0.0
O182 O 0.18014 0.76643 0.18968 0.0
C183 C 1.00384 0.83125 0.14889 0.0
O184 O 0.91954 0.85962 0.1539 0.0
N185 N 1.01119 0.80007 0.20568 0.0
C186 C 0.95666 0.77254 0.23781 0.0
C187 C 0.03661 0.7245 0.23172 0.0
C188 C 0.05771 0.73382 0.2154 0.0
C189 C 0.93419 0.85035 0.21153 0.0
C190 C 0.90463 0.83665 0.22757 0.0
H191 H 0.11062 0.68436 0.21059 0.0
H192 H 0.89172 0.89662 0.20345 0.0
H193 H 0.1241 0.57595 0.1842 0.0
H194 H 0.82489 0.50137 0.17199 0.0
H195 H 0.21965 0.12508 0.17963 0.0
H196 H 0.07726 0.67252 0.239 0.0
H197 H 0.84027 0.87286 0.23166 0.0
C198 C 0.44367 0.81334 0.42413 0.0
C199 C 0.34345 0.81032 0.42449 0.0
N200 N 0.32305 0.85969 0.43895 0.0
N201 N 0.48711 0.86582 0.43826 0.0
C202 C 0.4107 0.89185 0.44716 0.0
H203 H 0.48131 0.77802 0.4141 0.0
Co204 Co 0.6252 0.89052 0.4447 0.0
C205 C 0.60663 0.79551 0.47089 0.0
O206 O 0.58807 0.88701 0.47566 0.0
N207 N 0.76304 0.90697 0.45194 0.0
C208 C 0.89938 0.94656 0.46941 0.0
C209 C 0.79834 0.94611 0.46764 0.0
C210 C 0.84519 0.88144 0.44457 0.0
N211 N 0.92845 0.90587 0.45488 0.0
O212 O 0.65094 0.82129 0.42307 0.0
H213 H 0.7534 0.97323 0.47725 0.0
H214 H 0.84523 0.84558 0.43198 0.0
O215 O 0.62686 0.77321 0.45575 0.0
C216 C 0.68469 0.85204 0.41011 0.0
O217 O 0.72393 0.9405 0.4109 0.0
N218 N 0.6204 1.01738 0.43522 0.0
C219 C 0.58823 0.14068 0.46288 0.0
C220 C 0.5093 0.11014 0.45043 0.0
C221 C 0.53 0.05686 0.43548 0.0
C222 C 0.69522 0.07981 0.44214 0.0
C223 C 0.68263 0.13791 0.45708 0.0
H224 H 0.47003 1.0291 0.42629 0.0
H225 H 0.76847 0.07024 0.43845 0.0
H226 H 0.41879 0.93491 0.4593 0.0
H227 H 0.28954 0.77416 0.41493 0.0
H228 H 0.94786 0.97454 0.48047 0.0
H229 H 0.43302 0.11622 0.45256 0.0
H230 H 0.7475 0.17244 0.46394 0.0
C231 C 0.41625 0.12788 0.67704 0.0
C232 C 0.41276 1.02765 0.67701 0.0
N233 N 0.50023 0.99246 0.67338 0.0
N234 N 0.50654 0.15746 0.67399 0.0
C235 C 0.55521 0.07282 0.67128 0.0
H236 H 0.35782 0.17657 0.68 0.0
Co237 Co 0.5488 0.29026 0.67746 0.0
C238 C 0.76053 0.22804 0.67515 0.0
O239 O 0.76672 0.22475 0.65881 0.0
N240 N 0.58916 0.42494 0.6813 0.0
C241 C 0.64069 0.56653 0.69574 0.0
C242 C 0.64092 0.46646 0.6956 0.0
C243 C 0.56185 0.50265 0.67262 0.0
N244 N 0.59145 0.59015 0.68123 0.0
O245 O 0.56039 0.29012 0.65383 0.0
H246 H 0.67392 0.42725 0.70577 0.0
H247 H 0.51748 0.49589 0.66053 0.0
O248 O 0.68186 0.25282 0.68135 0.0
C249 C 0.48397 0.30891 0.64428 0.0
O250 O 0.40322 0.33175 0.65116 0.0
N251 N 0.53384 0.28806 0.70073 0.0
C252 C 0.48735 0.26138 0.73312 0.0
C253 C 0.58252 0.2453 0.72885 0.0
C254 C 0.60332 0.2554 0.71243 0.0
C255 C 0.44379 0.31386 0.70526 0.0
C256 C 0.41798 0.29881 0.72134 0.0
H257 H 0.67515 0.23447 0.70934 0.0
H258 H 0.38977 0.34043 0.69599 0.0
H259 H 0.63096 0.06989 0.66868 0.0
H260 H 0.3514 0.98398 0.67998 0.0
H261 H 0.67271 0.61842 0.70597 0.0
H262 H 0.63799 0.2172 0.73774 0.0
H263 H 0.34373 0.31264 0.72432 0.0
C264 C 0.06943 0.93755 0.10935 0.0
C265 C 1.01511 0.87384 0.0965 0.0
C266 C 0.96544 0.77206 0.11808 0.0
C267 C 1.02028 0.83562 0.13083 0.0
N268 N 0.1484 0.95922 0.13801 0.0
N269 N 0.93272 0.71712 0.08821 0.0
C270 C 0.07992 0.91213 0.12627 0.0
C271 C 0.97017 0.78649 0.10072 0.0
N272 N 0.10993 1.02349 0.10551 0.0
N273 N 0.9075 0.6989 0.12261 0.0
H274 H 0.93592 0.72451 0.07543 0.0
H275 H 0.90704 0.64822 0.09048 0.0
H276 H 0.90758 0.68219 0.1351 0.0
H277 H 0.85609 0.65789 0.11415 0.0
H278 H 0.13814 0.07873 0.11466 0.0
H279 H 0.11013 0.04298 0.09322 0.0
H280 H 0.20036 1.00976 0.13519 0.0
H281 H 0.16093 0.93862 0.1502 0.0
C282 C 0.58118 0.83618 0.38224 0.0
C283 C 0.65734 0.79889 0.3932 0.0
C284 C 0.68066 0.66513 0.37147 0.0
C285 C 0.61373 0.70964 0.35985 0.0
N286 N 0.50132 0.83842 0.35367 0.0
N287 N 0.78375 0.68172 0.39831 0.0
C288 C 0.56375 0.79513 0.36514 0.0
C289 C 0.70797 0.71402 0.38787 0.0
N290 N 0.5238 0.9093 0.38835 0.0
N291 N 0.71468 0.57418 0.36704 0.0
H292 H 0.80307 0.71361 0.41061 0.0
H293 H 0.83124 0.62742 0.3945 0.0
H294 H 0.69281 0.53521 0.35539 0.0
H295 H 0.75647 0.53337 0.37539 0.0
H296 H 0.46013 0.93236 0.38172 0.0
H297 H 0.53488 0.942 0.40074 0.0
H298 H 0.46984 0.90607 0.3562 0.0
H299 H 0.48526 0.80977 0.3411 0.0
C300 C 0.39085 0.26021 0.59767 0.0
C301 C 0.46895 0.29983 0.58985 0.0
C302 C 0.55807 0.34778 0.6178 0.0
C303 C 0.48323 0.30139 0.62554 0.0
N304 N 0.34397 0.18828 0.62227 0.0
N305 N 0.63655 0.3621 0.5923 0.0
C306 C 0.40388 0.25049 0.61531 0.0
C307 C 0.5559 0.33695 0.59986 0.0
N308 N 0.30396 0.23171 0.58832 0.0
N309 N 0.62807 0.40695 0.6274 0.0
H310 H 0.63767 0.35795 0.57924 0.0
H311 H 0.70511 0.37896 0.59902 0.0
H312 H 0.63153 0.41956 0.64051 0.0
H313 H 0.67732 0.45117 0.62223 0.0
H314 H 0.24107 0.21303 0.59374 0.0
H315 H 0.29209 0.23397 0.57527 0.0
H316 H 0.2909 0.14219 0.6151 0.0
H317 H 0.35483 0.1739 0.63492 0.0
C318 C 0.14203 0.18804 0.87232 0.0
C319 C 0.08822 0.27179 0.87714 0.0
C320 C 1.00688 0.26983 0.84819 0.0
C321 C 0.05815 0.18416 0.84351 0.0
N322 N 0.15797 0.04959 0.85158 0.0
N323 N 0.95503 0.38083 0.87079 0.0
C324 C 0.12102 0.13963 0.85572 0.0
C325 C 1.01644 0.3094 0.86539 0.0
N326 N 0.21557 0.15703 0.88339 0.0
N327 N 0.95097 0.31495 0.83608 0.0
H328 H 0.95933 0.41227 0.88325 0.0
H329 H 0.89382 0.40308 0.86336 0.0
H330 H 0.94061 0.2875 0.82337 0.0
H331 H 0.91997 0.38314 0.83833 0.0
H332 H 0.2648 0.10332 0.88004 0.0
H333 H 0.23213 0.19007 0.89568 0.0
H334 H 0.19664 1.00866 0.86029 0.0
H335 H 0.14193 1.01158 0.83965 0.0
C336 C 0.12432 0.58777 0.0044 0.0
C337 C 0.04905 0.64738 0.00986 0.0
C338 C 0.98242 0.66032 0.98082 0.0
C339 C 0.05573 0.59796 0.97481 0.0
N340 N 0.17294 0.47367 0.98228 0.0
N341 N 0.8825 0.69404 0.00376 0.0
C342 C 0.11979 0.5525 0.98703 0.0
C343 C 0.96903 0.66595 -0.00184 0.0
N344 N 0.20188 0.56828 0.01566 0.0
N345 N 0.9319 0.72105 0.9706 0.0
H346 H 0.87221 0.69387 0.01653 0.0
H347 H 0.82016 0.70533 -0.00447 0.0
H348 H 0.94911 0.73006 0.95841 0.0
H349 H 0.88244 0.77164 0.97512 0.0
H350 H 0.26511 0.53452 0.01203 0.0
H351 H 0.20337 0.59038 0.02857 0.0
H352 H 0.21453 0.43391 -0.00914 0.0
H353 H 0.16478 0.44144 0.96999 0.0
C354 C 0.91015 0.60454 0.2707 0.0
C355 C 0.88213 0.66755 0.28426 0.0
C356 C 0.92159 0.80735 0.26858 0.0
C357 C 0.92236 0.74147 0.2537 0.0
N358 N 0.89157 0.57611 0.24044 0.0
N359 N 0.88357 0.83191 0.2978 0.0
C360 C 0.90863 0.6396 0.25472 0.0
C361 C 0.89468 0.77048 0.28374 0.0
N362 N 0.93905 0.51162 0.27309 0.0
N363 N 0.94992 0.90316 0.26839 0.0
H364 H 0.8795 0.80563 0.30957 0.0
H365 H 0.87892 0.90766 0.29782 0.0
H366 H 0.97084 0.93152 0.2576 0.0
H367 H 0.95889 0.95305 0.27911 0.0
H368 H 0.9647 0.46503 0.2635 0.0
H369 H 0.94915 0.48724 0.28515 0.0
H370 H 0.87535 0.50182 0.24088 0.0
H371 H 0.88247 0.5998 0.22834 0.0
C372 C 0.51538 0.70494 0.49046 0.0
C373 C 0.60453 0.72263 0.48342 0.0
C374 C 0.69315 0.62422 0.50396 0.0
C375 C 0.60242 0.59775 0.50955 0.0
N376 N 0.42543 0.60322 0.50709 0.0
N377 N 0.77812 0.69587 0.48272 0.0
C378 C 0.51313 0.63642 0.50268 0.0
C379 C 0.69354 0.68126 0.48995 0.0
N380 N 0.43242 0.75357 0.4855 0.0
N381 N 0.77879 0.59542 0.51229 0.0
H382 H 0.78222 0.73968 0.47283 0.0
H383 H 0.84301 0.65965 0.48569 0.0
H384 H 0.77991 0.55417 0.52266 0.0
H385 H 0.84834 0.61895 0.50999 0.0
H386 H 0.36965 0.7545 0.49183 0.0
H387 H 0.4277 0.79762 0.47556 0.0
H388 H 0.35748 0.61789 0.50078 0.0
H389 H 0.42022 0.55547 0.5164 0.0
C390 C 0.91036 0.24376 0.71669 0.0
C391 C 0.93776 0.14479 0.71782 0.0
C392 C 0.87008 0.10316 0.68823 0.0
C393 C 0.84329 0.20232 0.6873 0.0
N394 N 0.86678 0.37085 0.69831 0.0
N395 N 0.96203 0.98449 0.70402 0.0
C396 C 0.87383 0.27383 0.70079 0.0
C397 C 0.92362 0.07565 0.70333 0.0
N398 N 0.91364 0.3078 0.73095 0.0
N399 N 0.841 0.03505 0.67498 0.0
H400 H 1.00016 0.96221 0.71497 0.0
H401 H 0.96222 0.93337 0.69354 0.0
H402 H 0.80608 0.05381 0.66353 0.0
H403 H 0.8484 0.9599 0.67545 0.0
H404 H 0.88459 0.37762 0.73102 0.0
H405 H 0.93648 0.28838 0.74304 0.0
H406 H 0.89539 0.42713 0.70723 0.0
H407 H 0.84115 0.3941 0.68658 0.0
C408 C 0.43438 0.09662 0.76694 0.0
C409 C 0.37685 0.15897 0.77667 0.0
C410 C 0.42497 0.29709 0.76171 0.0
C411 C 0.45818 0.22854 0.74914 0.0
N412 N 0.48603 0.05911 0.73927 0.0
N413 N 0.36004 0.3228 0.78908 0.0
C414 C 0.46315 0.12736 0.75178 0.0
C415 C 0.38514 0.26137 0.77587 0.0
N416 N 0.45903 1.00731 0.77211 0.0
N417 N 0.43011 0.39511 0.75986 0.0
H418 H 0.3432 0.29593 0.80027 0.0
H419 H 0.36462 0.39886 0.78975 0.0
H420 H 0.46461 0.42304 0.75022 0.0
H421 H 0.39979 0.44892 0.76764 0.0
H422 H 0.50713 0.961 0.76613 0.0
H423 H 0.43969 0.98583 0.78357 0.0
H424 H 0.48101 0.98392 0.74022 0.0
H425 H 0.49965 0.07603 0.72727 0.0
C426 C 0.38419 0.82013 0.22291 0.0
C427 C 0.32578 0.76164 0.2101 0.0
C428 C 0.3838 0.61371 0.22276 0.0
C429 C 0.42489 0.6741 0.23732 0.0
N430 N 0.45215 0.8366 0.2521 0.0
N431 N 0.31064 0.6062 0.19348 0.0
C432 C 0.42314 0.77798 0.23754 0.0
C433 C 0.33701 0.65871 0.20867 0.0
N434 N 0.40199 0.91643 0.22092 0.0
N435 N 0.38778 0.51412 0.22263 0.0
H436 H 0.28933 0.64057 0.1826 0.0
H437 H 0.3206 0.53131 0.1911 0.0
H438 H 0.42442 0.47986 0.23252 0.0
H439 H 0.35101 0.46535 0.21321 0.0
H440 H 0.45088 0.96152 0.22922 0.0
H441 H 0.37606 0.94705 0.20984 0.0
H442 H 0.44316 0.91219 0.25325 0.0
H443 H 0.47544 0.80932 0.26357 0.0
C444 C 0.64668 0.11828 0.49364 0.0
C445 C 0.57256 0.14879 0.48154 0.0
C446 C 0.44802 0.102 0.49949 0.0
C447 C 0.52139 0.06038 0.51031 0.0
N448 N 0.68896 1.01043 0.51538 0.0
N449 N 0.41305 0.21929 0.47891 0.0
C450 C 0.62016 0.06256 0.50665 0.0
C451 C 0.47564 0.15524 0.48622 0.0
N452 N 0.73936 0.15758 0.49474 0.0
N453 N 0.35144 0.08467 0.50114 0.0
H454 H 0.43601 0.2648 0.4702 0.0
H455 H 0.34397 0.23411 0.48277 0.0
H456 H 0.3301 0.03978 0.51002 0.0
H457 H 0.29431 0.10583 0.49265 0.0
H458 H 0.79618 0.13954 0.50359 0.0
H459 H 0.75265 0.22208 0.4893 0.0
H460 H 0.75885 1.0002 0.51153 0.0
H461 H 0.67295 0.97012 0.52525 0.0
C462 C 0.96105 0.21792 -0.00423 0.0
C463 C 1.02495 0.14309 0.00069 0.0
C464 C 0.05727 0.10674 0.97095 0.0
C465 C 0.99213 0.18127 0.9663 0.0
N466 N 0.8479 0.26814 0.9731 0.0
N467 N 0.09886 0.99036 -0.00874 0.0
C468 C 0.93179 0.22245 0.97837 0.0
C469 C 0.06261 0.07927 0.98778 0.0
N470 N 0.93308 0.28852 0.00739 0.0
N471 N 0.11592 0.06365 0.95975 0.0
H472 H 0.0971 0.96388 0.00299 0.0
H473 H 0.11889 0.93826 0.98196 0.0
H474 H 0.10832 0.0736 0.94694 0.0
H475 H 0.17408 1.01934 0.96344 0.0
H476 H 0.89242 0.34859 0.00392 0.0
H477 H 0.95994 0.29324 0.02016 0.0
H478 H 0.79883 0.29569 0.98141 0.0
H479 H 0.82255 0.26592 0.96029 0.0
C480 C 0.58576 0.82929 0.02639 0.0
C481 C 0.6662 0.84946 0.03911 0.0
C482 C 0.5495 0.83863 0.06013 0.0
C483 C 0.46863 0.84424 0.0476 0.0
N484 N 0.41938 0.87439 0.01841 0.0
N485 N 0.71266 0.9039 0.06873 0.0
C486 C 0.48874 0.84712 0.03051 0.0
C487 C 0.64538 0.86186 0.05626 0.0
N488 N 0.60074 0.79087 0.01053 0.0
N489 N 0.53548 0.81093 0.07568 0.0
H490 H 0.77671 0.93854 0.06614 0.0
H491 H 0.697 0.918 0.08122 0.0
H492 H 0.46721 0.78602 0.07849 0.0
H493 H 0.59401 0.80132 0.08482 0.0
H494 H 0.54266 0.77068 0.00124 0.0
H495 H 0.66935 0.76722 0.00753 0.0
H496 H 0.43498 0.88208 0.00608 0.0
H497 H 0.35233 0.90312 0.02116 0.0
C498 C 0.65038 0.19395 0.29439 0.0
C499 C 0.62805 0.25097 0.30918 0.0
C500 C 0.58128 0.10165 0.32142 0.0
C501 C 0.59724 0.04521 0.30623 0.0
N502 N 0.63627 0.03581 0.27755 0.0
N503 N 0.5594 0.26296 0.33571 0.0
C504 C 0.62893 0.09099 0.29249 0.0
C505 C 0.58978 0.20566 0.32241 0.0
N506 N 0.69515 0.23817 0.28249 0.0
N507 N 0.56039 0.05479 0.33501 0.0
H508 H 0.56375 0.33937 0.33654 0.0
H509 H 0.52273 0.23578 0.34513 0.0
H510 H 0.55525 0.97865 0.3345 0.0
H511 H 0.55632 0.09 0.34703 0.0
H512 H 0.72231 0.20011 0.27215 0.0
H513 H 0.71062 0.31341 0.28358 0.0
H514 H 0.6496 0.06521 0.26642 0.0
H515 H 0.62318 0.96012 0.27608 0.0
C516 C 0.07393 0.13286 0.53161 0.0
C517 C 0.12624 0.22219 0.53705 0.0
C518 C 0.97835 0.28899 0.54858 0.0
C519 C 0.92825 0.19767 0.54391 0.0
N520 N 0.93344 1.02702 0.534 0.0
N521 N 0.13436 0.38012 0.55296 0.0
C522 C 0.97784 0.11779 0.53638 0.0
C523 C 0.07991 0.29897 0.54617 0.0
N524 N 0.11438 0.06433 0.52113 0.0
N525 N 0.92828 0.36608 0.55525 0.0
H526 H 0.20879 0.38844 0.5515 0.0
H527 H 0.10853 0.43534 0.56107 0.0
H528 H 0.85555 0.3592 0.55789 0.0
H529 H 0.9565 0.43762 0.55731 0.0
H530 H 0.07652 1.00211 0.51513 0.0
H531 H 0.18363 0.0748 0.5173 0.0
H532 H 0.969 0.96359 0.53011 0.0
H533 H 0.8631 1.01387 0.5373 0.0
C534 C 0.04759 0.69137 0.80531 0.0
C535 C 0.09992 0.73375 0.79331 0.0
C536 C 0.11353 0.57136 0.77797 0.0
C537 C 0.06629 0.52848 0.79055 0.0
N538 N 0.99864 0.54327 0.81713 0.0
N539 N 0.19195 0.71638 0.76929 0.0
C540 C 0.03602 0.58755 0.80449 0.0
C541 C 0.13531 0.67423 0.77988 0.0
N542 N 1.00765 0.7513 0.81729 0.0
N543 N 0.13499 0.51354 0.76403 0.0
H544 H 0.2069 0.79173 0.77031 0.0
H545 H 0.22845 0.6769 0.76019 0.0
H546 H 0.12094 0.43799 0.76255 0.0
H547 H 0.16124 0.54047 0.75355 0.0
H548 H 0.96121 0.72677 0.8256 0.0
H549 H 1.01551 0.82751 0.8181 0.0
H550 H 0.98279 0.58016 0.82847 0.0
H551 H 0.99026 0.46737 0.81672 0.0
C552 C 0.60955 0.23782 0.92887 0.0
C553 C 0.65444 0.32856 0.9265 0.0
C554 C 0.50561 0.41392 0.93338 0.0
C555 C 0.45749 0.32215 0.93393 0.0
N556 N 0.45765 0.14635 0.93008 0.0
N557 N 0.64479 0.50212 0.92483 0.0
C558 C 0.508 0.23384 0.93111 0.0
C559 C 0.60239 0.41665 0.92836 0.0
N560 N 0.6653 0.15618 0.92947 0.0
N561 N 0.45972 0.49799 0.93824 0.0
H562 H 0.71602 0.50576 0.92134 0.0
H563 H 0.60757 0.56761 0.92429 0.0
H564 H 0.3895 0.49746 0.9422 0.0
H565 H 0.49377 0.56714 0.93965 0.0
H566 H 0.63947 0.08933 0.93269 0.0
H567 H 0.7405 0.15796 0.92829 0.0
H568 H 0.48766 0.07928 0.92647 0.0
H569 H 0.38279 0.14178 0.93146 0.0
C570 C 0.04045 0.27017 0.19813 0.0
C571 C 0.03483 0.20166 0.18361 0.0
C572 C 0.99898 0.33462 0.16536 0.0
C573 C 1.00187 0.40277 0.1799 0.0
N574 N 1.01075 0.43555 0.2101 0.0
N575 N 0.99783 0.16382 0.15367 0.0
C576 C 1.01851 0.37043 0.19631 0.0
C577 C 1.01025 0.2327 0.16728 0.0
N578 N 0.07004 0.23914 0.21358 0.0
N579 N 0.98893 0.36863 0.14973 0.0
H580 H 1.00626 0.08919 0.15488 0.0
H581 H 0.9729 0.17893 0.14145 0.0
H582 H 0.98145 0.4429 0.1481 0.0
H583 H 0.99429 0.32516 0.13849 0.0
H584 H 0.08616 0.286 0.22458 0.0
H585 H 0.08317 0.1656 0.21519 0.0
H586 H 1.01318 0.41602 0.22241 0.0
H587 H 0.99528 0.50913 0.20905 0.0
C588 C 0.08077 0.81088 0.45565 0.0
C589 C 1.02874 0.89473 0.45111 0.0
C590 C 0.17562 0.96076 0.4404 0.0
C591 C 0.22613 0.87465 0.44417 0.0
N592 N 0.22969 0.71621 0.45463 0.0
N593 N 1.02206 0.04897 0.43918 0.0
C594 C 0.17945 0.79936 0.45168 0.0
C595 C 0.07525 0.96986 0.44353 0.0
N596 N 0.03526 0.74329 0.46392 0.0
N597 N 0.22452 0.03328 0.43379 0.0
H598 H 0.9494 0.05777 0.44175 0.0
H599 H 0.04753 0.1045 0.43262 0.0
H600 H 0.29676 1.0263 0.43091 0.0
H601 H 0.19606 0.10141 0.43165 0.0
H602 H 0.06978 0.68373 0.46891 0.0
H603 H 0.96222 0.74929 0.46644 0.0
H604 H 0.1992 0.65426 0.45885 0.0
H605 H 0.30282 0.70792 0.45228 0.0
C606 C 0.61871 0.86432 0.6823 0.0
C607 C 0.52879 0.89061 0.67348 0.0
C608 C 0.47653 0.71698 0.67023 0.0
C609 C 0.57148 0.68968 0.677 0.0
N610 N 0.74201 0.7404 0.68378 0.0
N611 N 0.38668 0.8348 0.65431 0.0
C612 C 0.64565 0.76439 0.68116 0.0
C613 C 0.4625 0.8145 0.66585 0.0
N614 N 0.67507 0.93201 0.69284 0.0
N615 N 0.39769 0.65383 0.66921 0.0
H616 H 0.3781 0.90415 0.65004 0.0
H617 H 0.3404 0.78019 0.64759 0.0
H618 H 0.40108 0.5865 0.67425 0.0
H619 H 0.32625 0.67441 0.66545 0.0
H620 H 0.73737 0.91305 0.70043 0.0
H621 H 0.65332 1.00359 0.69566 0.0
H622 H 0.79882 0.79316 0.68589 0.0
H623 H 0.76504 0.66846 0.68174 0.0
loop_
_geom_bond_atom_site_label_1
_geom_bond_atom_site_label_2
_geom_bond_distance
_geom_bond_site_symmetry_2
_ccdc_geom_bond_type
C0 C1 1.351 . S
C0 N3 1.368 . S
C0 H5 0.931 . S
C1 C0 1.351 . S
C1 N2 1.373 . S
C1 H29 0.930 . S
N2 C1 1.373 . S
N2 C4 1.340 . S
N3 C0 1.368 . S
N3 C4 1.321 . S
N3 Co6 2.135 . S
C4 N2 1.340 . S
C4 N3 1.321 . S
C4 H28 0.930 . S
H5 C0 0.931 . S
Co6 N3 2.135 . S
Co6 N9 2.121 1_455 S
Co6 O14 2.055 . S
Co6 O17 2.039 . S
Co6 N20 2.140 . S
C7 O8 1.227 . S
C7 O17 1.265 . S
O8 C7 1.227 . S
N9 Co6 2.121 1_655 S
N9 C11 1.375 . S
N9 C12 1.313 . S
C10 C11 1.338 . S
C10 N13 1.377 . S
C10 H30 0.930 . S
C11 N9 1.375 . S
C11 C10 1.338 . S
C11 H15 0.931 . S
C12 N9 1.313 . S
C12 N13 1.344 . S
C12 H16 0.930 . S
N13 C10 1.377 . S
N13 C12 1.344 . S
O14 Co6 2.055 . S
O14 C18 1.253 . S
H15 C11 0.931 . S
H16 C12 0.930 . S
O17 Co6 2.039 . S
O17 C7 1.265 . S
C18 O14 1.253 . S
C18 O19 1.227 . S
O19 C18 1.227 . S
N20 Co6 2.140 . S
N20 C23 1.346 . S
N20 C24 1.345 1_455 S
C21 C22 1.387 1_545 S
C21 C25 1.393 1_455 S
C22 C21 1.387 1_565 S
C22 C23 1.369 . S
C22 H31 0.929 . S
C23 N20 1.346 . S
C23 C22 1.369 . S
C23 H26 0.928 . S
C24 N20 1.345 1_655 S
C24 C25 1.360 1_565 S
C24 H27 0.931 . S
C25 C21 1.393 1_655 S
C25 C24 1.360 1_545 S
C25 H32 0.939 . S
H26 C23 0.928 . S
H27 C24 0.931 . S
H28 C4 0.930 . S
H29 C1 0.930 . S
H30 C10 0.930 . S
H31 C22 0.929 . S
H32 C25 0.939 . S
C33 C34 1.351 1_565 S
C33 N36 1.368 . S
C33 H38 0.931 . S
C34 C33 1.351 1_545 S
C34 N35 1.373 . S
C34 H62 0.930 . S
N35 C34 1.373 . S
N35 C37 1.340 1_545 S
N36 C33 1.368 . S
N36 C37 1.321 . S
N36 Co39 2.135 . S
C37 N35 1.340 1_565 S
C37 N36 1.321 . S
C37 H61 0.930 . S
H38 C33 0.931 . S
Co39 N36 2.135 . S
Co39 N42 2.121 . S
Co39 O47 2.055 . S
Co39 O50 2.039 . S
Co39 N53 2.140 . S
C40 O41 1.227 . S
C40 O50 1.265 . S
O41 C40 1.227 . S
N42 Co39 2.121 . S
N42 C44 1.375 . S
N42 C45 1.313 . S
C43 C44 1.338 . S
C43 N46 1.377 . S
C43 H63 0.930 . S
C44 N42 1.375 . S
C44 C43 1.338 . S
C44 H48 0.931 . S
C45 N42 1.313 . S
C45 N46 1.344 . S
C45 H49 0.930 . S
N46 C43 1.377 . S
N46 C45 1.344 . S
O47 Co39 2.055 . S
O47 C51 1.253 . S
H48 C44 0.931 . S
H49 C45 0.930 . S
O50 Co39 2.039 . S
O50 C40 1.265 . S
C51 O47 1.253 . S
C51 O52 1.227 . S
O52 C51 1.227 . S
N53 Co39 2.140 . S
N53 C56 1.346 . S
N53 C57 1.345 . S
C54 C55 1.387 . S
C54 C58 1.391 . S
C55 C54 1.387 . S
C55 C56 1.369 . S
C55 H64 0.929 . S
C56 N53 1.346 . S
C56 C55 1.369 . S
C56 H59 0.928 . S
C57 N53 1.345 . S
C57 C58 1.371 . S
C57 H60 0.931 . S
C58 C54 1.391 . S
C58 C57 1.371 . S
C58 H65 0.930 . S
H59 C56 0.928 . S
H60 C57 0.931 . S
H61 C37 0.930 . S
H62 C34 0.930 . S
H63 C43 0.930 . S
H64 C55 0.929 . S
H65 C58 0.930 . S
C66 C67 1.351 . S
C66 N69 1.368 . S
C66 H71 0.931 . S
C67 C66 1.351 . S
C67 N68 1.373 . S
C67 H95 0.930 . S
N68 C67 1.373 . S
N68 C70 1.340 . S
N69 C66 1.368 . S
N69 C70 1.321 . S
N69 Co72 2.135 . S
C70 N68 1.340 . S
C70 N69 1.321 . S
C70 H94 0.930 . S
H71 C66 0.931 . S
Co72 N69 2.135 . S
Co72 N75 2.121 . S
Co72 O80 2.055 . S
Co72 O83 2.039 . S
Co72 N86 2.140 . S
C73 O74 1.227 . S
C73 O83 1.265 . S
O74 C73 1.227 . S
N75 Co72 2.121 . S
N75 C77 1.375 . S
N75 C78 1.313 . S
C76 C77 1.338 . S
C76 N79 1.377 . S
C76 H96 0.930 . S
C77 N75 1.375 . S
C77 C76 1.338 . S
C77 H81 0.931 . S
C78 N75 1.313 . S
C78 N79 1.344 . S
C78 H82 0.930 . S
N79 C76 1.377 . S
N79 C78 1.344 . S
O80 Co72 2.055 . S
O80 C84 1.253 . S
H81 C77 0.931 . S
H82 C78 0.930 . S
O83 Co72 2.039 . S
O83 C73 1.265 . S
C84 O80 1.253 . S
C84 O85 1.227 . S
O85 C84 1.227 . S
N86 Co72 2.140 . S
N86 C89 1.346 . S
N86 C90 1.345 . S
C87 C88 1.387 . S
C87 C91 1.391 . S
C88 C87 1.387 . S
C88 C89 1.369 . S
C88 H97 0.929 . S
C89 N86 1.346 . S
C89 C88 1.369 . S
C89 H92 0.928 . S
C90 N86 1.345 . S
C90 C91 1.371 . S
C90 H93 0.931 . S
C91 C87 1.391 . S
C91 C90 1.371 . S
C91 H98 0.930 . S
H92 C89 0.928 . S
H93 C90 0.931 . S
H94 C70 0.930 . S
H95 C67 0.930 . S
H96 C76 0.930 . S
H97 C88 0.929 . S
H98 C91 0.930 . S
C99 C100 1.351 . S
C99 N102 1.368 . S
C99 H104 0.931 . S
C100 C99 1.351 . S
C100 N101 1.373 . S
C100 H128 0.930 . S
N101 C100 1.373 . S
N101 C103 1.340 . S
N102 C99 1.368 . S
N102 C103 1.321 . S
N102 Co105 2.135 . S
C103 N101 1.340 . S
C103 N102 1.321 . S
C103 H127 0.930 . S
H104 C99 0.931 . S
Co105 N102 2.135 . S
Co105 N108 2.121 . S
Co105 O113 2.055 . S
Co105 O116 2.039 . S
Co105 N119 2.140 1_455 S
C106 O107 1.227 . S
C106 O116 1.265 . S
O107 C106 1.227 . S
N108 Co105 2.121 . S
N108 C110 1.375 . S
N108 C111 1.313 . S
C109 C110 1.338 1_565 S
C109 N112 1.377 . S
C109 H129 0.930 . S
C110 N108 1.375 . S
C110 C109 1.338 1_545 S
C110 H114 0.931 . S
C111 N108 1.313 . S
C111 N112 1.344 1_545 S
C111 H115 0.930 . S
N112 C109 1.377 . S
N112 C111 1.344 1_565 S
O113 Co105 2.055 . S
O113 C117 1.253 . S
H114 C110 0.931 . S
H115 C111 0.930 . S
O116 Co105 2.039 . S
O116 C106 1.265 . S
C117 O113 1.253 . S
C117 O118 1.227 . S
O118 C117 1.227 . S
N119 Co105 2.140 1_655 S
N119 C122 1.346 . S
N119 C123 1.345 . S
C120 C121 1.387 . S
C120 C124 1.391 . S
C121 C120 1.387 . S
C121 C122 1.369 . S
C121 H130 0.929 . S
C122 N119 1.346 . S
C122 C121 1.369 . S
C122 H125 0.928 1_655 S
C123 N119 1.345 . S
C123 C124 1.371 . S
C123 H126 0.931 . S
C124 C120 1.391 . S
C124 C123 1.371 . S
C124 H131 0.930 . S
H125 C122 0.928 1_455 S
H126 C123 0.931 . S
H127 C103 0.930 . S
H128 C100 0.930 . S
H129 C109 0.930 . S
H130 C121 0.929 . S
H131 C124 0.930 . S
C132 C133 1.351 . S
C132 N135 1.368 . S
C132 H137 0.931 . S
C133 C132 1.351 . S
C133 N134 1.373 . S
C133 H161 0.930 . S
N134 C133 1.373 . S
N134 C136 1.340 . S
N135 C132 1.368 . S
N135 C136 1.321 . S
N135 Co138 2.135 1_655 S
C136 N134 1.340 . S
C136 N135 1.321 . S
C136 H160 0.930 . S
H137 C132 0.931 . S
Co138 N135 2.135 1_455 S
Co138 N141 2.121 . S
Co138 O146 2.055 . S
Co138 O149 2.039 . S
Co138 N152 2.140 . S
C139 O140 1.227 . S
C139 O149 1.265 . S
O140 C139 1.227 . S
N141 Co138 2.121 . S
N141 C143 1.375 . S
N141 C144 1.313 . S
C142 C143 1.338 . S
C142 N145 1.377 . S
C142 H162 0.930 . S
C143 N141 1.375 . S
C143 C142 1.338 . S
C143 H147 0.931 . S
C144 N141 1.313 . S
C144 N145 1.344 . S
C144 H148 0.930 . S
N145 C142 1.377 . S
N145 C144 1.344 . S
O146 Co138 2.055 . S
O146 C150 1.253 . S
H147 C143 0.931 . S
H148 C144 0.930 . S
O149 Co138 2.039 . S
O149 C139 1.265 . S
C150 O146 1.253 . S
C150 O151 1.227 . S
O151 C150 1.227 . S
N152 Co138 2.140 . S
N152 C155 1.346 1_455 S
N152 C156 1.345 . S
C153 C154 1.387 1_455 S
C153 C157 1.391 . S
C154 C153 1.387 1_655 S
C154 C155 1.369 . S
C154 H163 0.929 . S
C155 N152 1.346 1_655 S
C155 C154 1.369 . S
C155 H158 0.928 . S
C156 N152 1.345 . S
C156 C157 1.371 . S
C156 H159 0.931 . S
C157 C153 1.391 . S
C157 C156 1.371 . S
C157 H164 0.930 . S
H158 C155 0.928 . S
H159 C156 0.931 . S
H160 C136 0.930 . S
H161 C133 0.930 . S
H162 C142 0.930 . S
H163 C154 0.929 . S
H164 C157 0.930 . S
C165 C166 1.351 . S
C165 N168 1.368 1_655 S
C165 H170 0.931 . S
C166 C165 1.351 . S
C166 N167 1.373 1_655 S
C166 H194 0.930 . S
N167 C166 1.373 1_455 S
N167 C169 1.340 . S
N168 C165 1.368 1_455 S
N168 C169 1.321 . S
N168 Co171 2.135 . S
C169 N167 1.340 . S
C169 N168 1.321 . S
C169 H193 0.930 . S
H170 C165 0.931 . S
Co171 N168 2.135 . S
Co171 N174 2.121 . S
Co171 O179 2.055 . S
Co171 O182 2.039 . S
Co171 N185 2.140 1_455 S
C172 O173 1.227 . S
C172 O182 1.265 . S
O173 C172 1.227 . S
N174 Co171 2.121 . S
N174 C176 1.375 . S
N174 C177 1.313 . S
C175 C176 1.338 1_545 S
C175 N178 1.377 . S
C175 H195 0.930 . S
C176 N174 1.375 . S
C176 C175 1.338 1_565 S
C176 H180 0.931 . S
C177 N174 1.313 . S
C177 N178 1.344 1_565 S
C177 H181 0.930 . S
N178 C175 1.377 . S
N178 C177 1.344 1_545 S
O179 Co171 2.055 . S
O179 C183 1.253 1_455 S
H180 C176 0.931 . S
H181 C177 0.930 . S
O182 Co171 2.039 . S
O182 C172 1.265 . S
C183 O179 1.253 1_655 S
C183 O184 1.227 . S
O184 C183 1.227 . S
N185 Co171 2.140 1_655 S
N185 C188 1.346 . S
N185 C189 1.345 . S
C186 C187 1.387 . S
C186 C190 1.391 . S
C187 C186 1.387 . S
C187 C188 1.369 . S
C187 H196 0.929 . S
C188 N185 1.346 . S
C188 C187 1.369 . S
C188 H191 0.928 . S
C189 N185 1.345 . S
C189 C190 1.371 . S
C189 H192 0.931 . S
C190 C186 1.391 . S
C190 C189 1.371 . S
C190 H197 0.930 . S
H191 C188 0.928 . S
H192 C189 0.931 . S
H193 C169 0.930 . S
H194 C166 0.930 . S
H195 C175 0.930 . S
H196 C187 0.929 . S
H197 C190 0.930 . S
C198 C199 1.351 . S
C198 N201 1.368 . S
C198 H203 0.931 . S
C199 C198 1.351 . S
C199 N200 1.373 . S
C199 H227 0.930 . S
N200 C199 1.373 . S
N200 C202 1.340 . S
N201 C198 1.368 . S
N201 C202 1.321 . S
N201 Co204 2.135 . S
C202 N200 1.340 . S
C202 N201 1.321 . S
C202 H226 0.930 . S
H203 C198 0.931 . S
Co204 N201 2.135 . S
Co204 N207 2.121 . S
Co204 O212 2.055 . S
Co204 O215 2.039 . S
Co204 N218 2.140 . S
C205 O206 1.227 . S
C205 O215 1.265 . S
O206 C205 1.227 . S
N207 Co204 2.121 . S
N207 C209 1.375 . S
N207 C210 1.313 . S
C208 C209 1.338 . S
C208 N211 1.377 . S
C208 H228 0.930 . S
C209 N207 1.375 . S
C209 C208 1.338 . S
C209 H213 0.931 . S
C210 N207 1.313 . S
C210 N211 1.344 . S
C210 H214 0.930 . S
N211 C208 1.377 . S
N211 C210 1.344 . S
O212 Co204 2.055 . S
O212 C216 1.253 . S
H213 C209 0.931 . S
H214 C210 0.930 . S
O215 Co204 2.039 . S
O215 C205 1.265 . S
C216 O212 1.253 . S
C216 O217 1.227 . S
O217 C216 1.227 . S
N218 Co204 2.140 . S
N218 C221 1.346 . S
N218 C222 1.345 . S
C219 C220 1.387 . S
C219 C223 1.391 . S
C220 C219 1.387 . S
C220 C221 1.369 . S
C220 H229 0.929 . S
C221 N218 1.346 . S
C221 C220 1.369 . S
C221 H224 0.928 . S
C222 N218 1.345 . S
C222 C223 1.371 . S
C222 H225 0.931 . S
C223 C219 1.391 . S
C223 C222 1.371 . S
C223 H230 0.930 . S
H224 C221 0.928 . S
H225 C222 0.931 . S
H226 C202 0.930 . S
H227 C199 0.930 . S
H228 C208 0.930 . S
H229 C220 0.929 . S
H230 C223 0.930 . S
C231 C232 1.351 1_545 S
C231 N234 1.368 . S
C231 H236 0.931 . S
C232 C231 1.351 1_565 S
C232 N233 1.373 . S
C232 H260 0.930 . S
N233 C232 1.373 . S
N233 C235 1.340 1_565 S
N234 C231 1.368 . S
N234 C235 1.321 . S
N234 Co237 2.135 . S
C235 N233 1.340 1_545 S
C235 N234 1.321 . S
C235 H259 0.930 . S
H236 C231 0.931 . S
Co237 N234 2.135 . S
Co237 N240 2.121 . S
Co237 O245 2.055 . S
Co237 O248 2.039 . S
Co237 N251 2.140 . S
C238 O239 1.227 . S
C238 O248 1.265 . S
O239 C238 1.227 . S
N240 Co237 2.121 . S
N240 C242 1.375 . S
N240 C243 1.313 . S
C241 C242 1.338 . S
C241 N244 1.377 . S
C241 H261 0.930 . S
C242 N240 1.375 . S
C242 C241 1.338 . S
C242 H246 0.931 . S
C243 N240 1.313 . S
C243 N244 1.344 . S
C243 H247 0.930 . S
N244 C241 1.377 . S
N244 C243 1.344 . S
O245 Co237 2.055 . S
O245 C249 1.253 . S
H246 C242 0.931 . S
H247 C243 0.930 . S
O248 Co237 2.039 . S
O248 C238 1.265 . S
C249 O245 1.253 . S
C249 O250 1.227 . S
O250 C249 1.227 . S
N251 Co237 2.140 . S
N251 C254 1.346 . S
N251 C255 1.345 . S
C252 C253 1.387 . S
C252 C256 1.391 . S
C253 C252 1.387 . S
C253 C254 1.369 . S
C253 H262 0.929 . S
C254 N251 1.346 . S
C254 C253 1.369 . S
C254 H257 0.928 . S
C255 N251 1.345 . S
C255 C256 1.371 . S
C255 H258 0.931 . S
C256 C252 1.391 . S
C256 C255 1.371 . S
C256 H263 0.930 . S
H257 C254 0.928 . S
H258 C255 0.931 . S
H259 C235 0.930 . S
H260 C232 0.930 . S
H261 C241 0.930 . S
H262 C253 0.929 . S
H263 C256 0.930 . S
C264 C265 1.363 . S
C264 C270 1.379 . S
C264 N272 1.356 . S
C265 C264 1.363 . S
C265 C271 1.363 1_455 S
C266 C267 1.368 . S
C266 C271 1.379 . S
C266 N273 1.356 . S
C267 C266 1.368 . S
C267 C270 1.355 1_655 S
N268 C270 1.356 . S
N268 H280 0.984 . S
N268 H281 0.985 . S
N269 C271 1.356 . S
N269 H274 0.984 . S
N269 H275 0.985 . S
C270 C264 1.379 . S
C270 C267 1.355 1_455 S
C270 N268 1.356 . S
C271 C265 1.363 1_655 S
C271 C266 1.379 . S
C271 N269 1.356 . S
N272 C264 1.356 . S
N272 H278 0.984 . S
N272 H279 0.984 . S
N273 C266 1.356 . S
N273 H276 0.984 . S
N273 H277 0.985 . S
H274 N269 0.984 . S
H275 N269 0.985 . S
H276 N273 0.984 . S
H277 N273 0.985 . S
H278 N272 0.984 . S
H279 N272 0.984 . S
H280 N268 0.984 . S
H281 N268 0.985 . S
C282 C283 1.363 . S
C282 C288 1.379 . S
C282 N290 1.356 . S
C283 C282 1.363 . S
C283 C289 1.363 . S
C284 C285 1.363 . S
C284 C289 1.379 . S
C284 N291 1.356 . S
C285 C284 1.363 . S
C285 C288 1.363 . S
N286 C288 1.356 . S
N286 H298 0.984 . S
N286 H299 0.985 . S
N287 C289 1.356 . S
N287 H292 0.984 . S
N287 H293 0.985 . S
C288 C282 1.379 . S
C288 C285 1.363 . S
C288 N286 1.356 . S
C289 C283 1.363 . S
C289 C284 1.379 . S
C289 N287 1.356 . S
N290 C282 1.356 . S
N290 H296 0.984 . S
N290 H297 0.984 . S
N291 C284 1.356 . S
N291 H294 0.984 . S
N291 H295 0.985 . S
H292 N287 0.984 . S
H293 N287 0.985 . S
H294 N291 0.984 . S
H295 N291 0.985 . S
H296 N290 0.984 . S
H297 N290 0.984 . S
H298 N286 0.984 . S
H299 N286 0.985 . S
C300 C301 1.363 . S
C300 C306 1.379 . S
C300 N308 1.356 . S
C301 C300 1.363 . S
C301 C307 1.363 . S
C302 C303 1.363 . S
C302 C307 1.379 . S
C302 N309 1.356 . S
C303 C302 1.363 . S
C303 C306 1.363 . S
N304 C306 1.356 . S
N304 H316 0.984 . S
N304 H317 0.985 . S
N305 C307 1.356 . S
N305 H310 0.984 . S
N305 H311 0.985 . S
C306 C300 1.379 . S
C306 C303 1.363 . S
C306 N304 1.356 . S
C307 C301 1.363 . S
C307 C302 1.379 . S
C307 N305 1.356 . S
N308 C300 1.356 . S
N308 H314 0.984 . S
N308 H315 0.984 . S
N309 C302 1.356 . S
N309 H312 0.984 . S
N309 H313 0.985 . S
H310 N305 0.984 . S
H311 N305 0.985 . S
H312 N309 0.984 . S
H313 N309 0.985 . S
H314 N308 0.984 . S
H315 N308 0.984 . S
H316 N304 0.984 . S
H317 N304 0.985 . S
C318 C319 1.363 . S
C318 C324 1.379 . S
C318 N326 1.356 . S
C319 C318 1.363 . S
C319 C325 1.363 . S
C320 C321 1.363 . S
C320 C325 1.379 . S
C320 N327 1.359 . S
C321 C320 1.363 . S
C321 C324 1.363 . S
N322 C324 1.356 . S
N322 H334 0.984 . S
N322 H335 0.985 . S
N323 C325 1.356 1_655 S
N323 H328 0.984 . S
N323 H329 0.985 . S
C324 C318 1.379 . S
C324 C321 1.363 . S
C324 N322 1.356 . S
C325 C319 1.363 . S
C325 C320 1.379 . S
C325 N323 1.356 1_455 S
N326 C318 1.356 . S
N326 H332 0.984 . S
N326 H333 0.984 . S
N327 C320 1.359 . S
N327 H330 0.988 . S
N327 H331 0.978 1_455 S
H328 N323 0.984 . S
H329 N323 0.985 . S
H330 N327 0.988 . S
H331 N327 0.978 1_655 S
H332 N326 0.984 . S
H333 N326 0.984 . S
H334 N322 0.984 . S
H335 N322 0.985 . S
C336 C337 1.363 . S
C336 C342 1.379 1_554 S
C336 N344 1.356 . S
C337 C336 1.363 . S
C337 C343 1.363 . S
C338 C339 1.363 . S
C338 C343 1.379 1_556 S
C338 N345 1.356 1_455 S
C339 C338 1.363 . S
C339 C342 1.363 . S
N340 C342 1.356 . S
N340 H352 0.984 . S
N340 H353 0.985 . S
N341 C343 1.356 1_655 S
N341 H346 0.984 . S
N341 H347 0.985 . S
C342 C336 1.379 1_556 S
C342 C339 1.363 . S
C342 N340 1.356 . S
C343 C337 1.363 . S
C343 C338 1.379 1_554 S
C343 N341 1.356 1_455 S
N344 C336 1.356 . S
N344 H350 0.984 . S
N344 H351 0.984 . S
N345 C338 1.356 1_655 S
N345 H348 0.984 . S
N345 H349 0.985 . S
H346 N341 0.984 . S
H347 N341 0.985 . S
H348 N345 0.984 . S
H349 N345 0.985 . S
H350 N344 0.984 . S
H351 N344 0.984 . S
H352 N340 0.984 . S
H353 N340 0.985 . S
C354 C355 1.363 . S
C354 C360 1.379 . S
C354 N362 1.356 . S
C355 C354 1.363 . S
C355 C361 1.363 . S
C356 C357 1.363 . S
C356 C361 1.379 . S
C356 N363 1.356 . S
C357 C356 1.363 . S
C357 C360 1.363 . S
N358 C360 1.356 . S
N358 H370 0.984 . S
N358 H371 0.985 . S
N359 C361 1.356 . S
N359 H364 0.984 . S
N359 H365 0.985 . S
C360 C354 1.379 . S
C360 C357 1.363 . S
C360 N358 1.356 . S
C361 C355 1.363 . S
C361 C356 1.379 . S
C361 N359 1.356 . S
N362 C354 1.356 . S
N362 H368 0.984 . S
N362 H369 0.984 . S
N363 C356 1.356 . S
N363 H366 0.984 . S
N363 H367 0.985 . S
H364 N359 0.984 . S
H365 N359 0.985 . S
H366 N363 0.984 . S
H367 N363 0.985 . S
H368 N362 0.984 . S
H369 N362 0.984 . S
H370 N358 0.984 . S
H371 N358 0.985 . S
C372 C373 1.363 . S
C372 C378 1.379 . S
C372 N380 1.356 . S
C373 C372 1.363 . S
C373 C379 1.363 . S
C374 C375 1.363 . S
C374 C379 1.379 . S
C374 N381 1.356 . S
C375 C374 1.363 . S
C375 C378 1.363 . S
N376 C378 1.356 . S
N376 H388 0.984 . S
N376 H389 0.985 . S
N377 C379 1.356 . S
N377 H382 0.984 . S
N377 H383 0.985 . S
C378 C372 1.379 . S
C378 C375 1.363 . S
C378 N376 1.356 . S
C379 C373 1.363 . S
C379 C374 1.379 . S
C379 N377 1.356 . S
N380 C372 1.356 . S
N380 H386 0.984 . S
N380 H387 0.984 . S
N381 C374 1.356 . S
N381 H384 0.984 . S
N381 H385 0.985 . S
H382 N377 0.984 . S
H383 N377 0.985 . S
H384 N381 0.984 . S
H385 N381 0.985 . S
H386 N380 0.984 . S
H387 N380 0.984 . S
H388 N376 0.984 . S
H389 N376 0.985 . S
C390 C391 1.363 . S
C390 C396 1.379 . S
C390 N398 1.356 . S
C391 C390 1.363 . S
C391 C397 1.363 . S
C392 C393 1.363 . S
C392 C397 1.379 . S
C392 N399 1.356 . S
C393 C392 1.363 . S
C393 C396 1.363 . S
N394 C396 1.356 . S
N394 H406 0.984 . S
N394 H407 0.985 . S
N395 C397 1.356 . S
N395 H400 0.984 . S
N395 H401 0.985 . S
C396 C390 1.379 . S
C396 C393 1.363 . S
C396 N394 1.356 . S
C397 C391 1.363 . S
C397 C392 1.379 . S
C397 N395 1.356 . S
N398 C390 1.356 . S
N398 H404 0.984 . S
N398 H405 0.984 . S
N399 C392 1.356 . S
N399 H402 0.984 . S
N399 H403 0.985 . S
H400 N395 0.984 . S
H401 N395 0.985 . S
H402 N399 0.984 . S
H403 N399 0.985 . S
H404 N398 0.984 . S
H405 N398 0.984 . S
H406 N394 0.984 . S
H407 N394 0.985 . S
C408 C409 1.363 . S
C408 C414 1.379 . S
C408 N416 1.356 . S
C409 C408 1.363 . S
C409 C415 1.363 . S
C410 C411 1.363 . S
C410 C415 1.379 . S
C410 N417 1.356 . S
C411 C410 1.363 . S
C411 C414 1.363 . S
N412 C414 1.356 . S
N412 H424 0.984 . S
N412 H425 0.985 . S
N413 C415 1.356 . S
N413 H418 0.984 . S
N413 H419 0.985 . S
C414 C408 1.379 . S
C414 C411 1.363 . S
C414 N412 1.356 . S
C415 C409 1.363 . S
C415 C410 1.379 . S
C415 N413 1.356 . S
N416 C408 1.356 . S
N416 H422 0.984 . S
N416 H423 0.984 . S
N417 C410 1.356 . S
N417 H420 0.984 . S
N417 H421 0.985 . S
H418 N413 0.984 . S
H419 N413 0.985 . S
H420 N417 0.984 . S
H421 N417 0.985 . S
H422 N416 0.984 . S
H423 N416 0.984 . S
H424 N412 0.984 . S
H425 N412 0.985 . S
C426 C427 1.363 . S
C426 C432 1.379 . S
C426 N434 1.356 . S
C427 C426 1.363 . S
C427 C433 1.363 . S
C428 C429 1.363 . S
C428 C433 1.379 . S
C428 N435 1.356 . S
C429 C428 1.363 . S
C429 C432 1.363 . S
N430 C432 1.356 . S
N430 H442 0.984 . S
N430 H443 0.985 . S
N431 C433 1.356 . S
N431 H436 0.984 . S
N431 H437 0.985 . S
C432 C426 1.379 . S
C432 C429 1.363 . S
C432 N430 1.356 . S
C433 C427 1.363 . S
C433 C428 1.379 . S
C433 N431 1.356 . S
N434 C426 1.356 . S
N434 H440 0.984 . S
N434 H441 0.984 . S
N435 C428 1.356 . S
N435 H438 0.984 . S
N435 H439 0.985 . S
H436 N431 0.984 . S
H437 N431 0.985 . S
H438 N435 0.984 . S
H439 N435 0.985 . S
H440 N434 0.984 . S
H441 N434 0.984 . S
H442 N430 0.984 . S
H443 N430 0.985 . S
C444 C445 1.363 . S
C444 C450 1.379 . S
C444 N452 1.356 . S
C445 C444 1.363 . S
C445 C451 1.363 1_545 S
C446 C447 1.363 1_565 S
C446 C451 1.379 . S
C446 N453 1.356 . S
C447 C446 1.363 1_545 S
C447 C450 1.363 . S
N448 C450 1.356 . S
N448 H460 0.984 . S
N448 H461 0.985 . S
N449 C451 1.356 . S
N449 H454 0.984 . S
N449 H455 0.985 . S
C450 C444 1.379 . S
C450 C447 1.363 . S
C450 N448 1.356 . S
C451 C445 1.363 1_565 S
C451 C446 1.379 . S
C451 N449 1.356 . S
N452 C444 1.356 . S
N452 H458 0.984 . S
N452 H459 0.984 . S
N453 C446 1.356 . S
N453 H456 0.984 . S
N453 H457 0.985 . S
H454 N449 0.984 . S
H455 N449 0.985 . S
H456 N453 0.984 . S
H457 N453 0.985 . S
H458 N452 0.984 . S
H459 N452 0.984 . S
H460 N448 0.984 . S
H461 N448 0.985 . S
C462 C463 1.363 1_655 S
C462 C468 1.379 1_554 S
C462 N470 1.356 . S
C463 C462 1.363 1_455 S
C463 C469 1.363 1_545 S
C464 C465 1.363 1_565 S
C464 C469 1.379 1_556 S
C464 N471 1.356 . S
C465 C464 1.363 1_545 S
C465 C468 1.363 1_455 S
N466 C468 1.356 . S
N466 H478 0.984 . S
N466 H479 0.985 . S
N467 C469 1.356 . S
N467 H472 0.984 . S
N467 H473 0.985 . S
C468 C462 1.379 1_556 S
C468 C465 1.363 1_655 S
C468 N466 1.356 . S
C469 C463 1.363 1_565 S
C469 C464 1.379 1_554 S
C469 N467 1.356 . S
N470 C462 1.356 . S
N470 H476 0.984 . S
N470 H477 0.984 . S
N471 C464 1.356 . S
N471 H474 0.984 . S
N471 H475 0.985 . S
H472 N467 0.984 . S
H473 N467 0.985 . S
H474 N471 0.984 . S
H475 N471 0.985 . S
H476 N470 0.984 . S
H477 N470 0.984 . S
H478 N466 0.984 . S
H479 N466 0.985 . S
C480 C481 1.363 . S
C480 C486 1.379 . S
C480 N488 1.356 . S
C481 C480 1.363 . S
C481 C487 1.363 . S
C482 C483 1.363 . S
C482 C487 1.379 . S
C482 N489 1.356 . S
C483 C482 1.363 . S
C483 C486 1.363 . S
N484 C486 1.356 . S
N484 H496 0.984 . S
N484 H497 0.985 . S
N485 C487 1.356 . S
N485 H490 0.984 . S
N485 H491 0.985 . S
C486 C480 1.379 . S
C486 C483 1.363 . S
C486 N484 1.356 . S
C487 C481 1.363 . S
C487 C482 1.379 . S
C487 N485 1.356 . S
N488 C480 1.356 . S
N488 H494 0.984 . S
N488 H495 0.984 . S
N489 C482 1.356 . S
N489 H492 0.984 . S
N489 H493 0.985 . S
H490 N485 0.984 . S
H491 N485 0.985 . S
H492 N489 0.984 . S
H493 N489 0.985 . S
H494 N488 0.984 . S
H495 N488 0.984 . S
H496 N484 0.984 . S
H497 N484 0.985 . S
C498 C499 1.363 . S
C498 C504 1.379 . S
C498 N506 1.356 . S
C499 C498 1.363 . S
C499 C505 1.363 . S
C500 C501 1.363 . S
C500 C505 1.379 . S
C500 N507 1.356 . S
C501 C500 1.363 . S
C501 C504 1.363 . S
N502 C504 1.356 . S
N502 H514 0.984 . S
N502 H515 0.985 . S
N503 C505 1.356 . S
N503 H508 0.984 . S
N503 H509 0.985 . S
C504 C498 1.379 . S
C504 C501 1.363 . S
C504 N502 1.356 . S
C505 C499 1.363 . S
C505 C500 1.379 . S
C505 N503 1.356 . S
N506 C498 1.356 . S
N506 H512 0.984 . S
N506 H513 0.984 . S
N507 C500 1.356 . S
N507 H510 0.984 . S
N507 H511 0.985 . S
H508 N503 0.984 . S
H509 N503 0.985 . S
H510 N507 0.984 . S
H511 N507 0.985 . S
H512 N506 0.984 . S
H513 N506 0.984 . S
H514 N502 0.984 . S
H515 N502 0.985 . S
C516 C517 1.363 . S
C516 C522 1.379 1_455 S
C516 N524 1.356 . S
C517 C516 1.363 . S
C517 C523 1.363 . S
C518 C519 1.363 . S
C518 C523 1.379 1_655 S
C518 N525 1.356 . S
C519 C518 1.363 . S
C519 C522 1.363 . S
N520 C522 1.356 . S
N520 H532 0.984 . S
N520 H533 0.985 . S
N521 C523 1.356 . S
N521 H526 0.984 . S
N521 H527 0.985 . S
C522 C516 1.379 1_655 S
C522 C519 1.363 . S
C522 N520 1.356 . S
C523 C517 1.363 . S
C523 C518 1.379 1_455 S
C523 N521 1.356 . S
N524 C516 1.356 . S
N524 H530 0.984 . S
N524 H531 0.984 . S
N525 C518 1.356 . S
N525 H528 0.984 . S
N525 H529 0.985 . S
H526 N521 0.984 . S
H527 N521 0.985 . S
H528 N525 0.984 . S
H529 N525 0.985 . S
H530 N524 0.984 . S
H531 N524 0.984 . S
H532 N520 0.984 . S
H533 N520 0.985 . S
C534 C535 1.363 . S
C534 C540 1.379 . S
C534 N542 1.356 . S
C535 C534 1.363 . S
C535 C541 1.363 . S
C536 C537 1.363 . S
C536 C541 1.379 . S
C536 N543 1.356 . S
C537 C536 1.363 . S
C537 C540 1.363 . S
N538 C540 1.356 . S
N538 H550 0.984 . S
N538 H551 0.985 . S
N539 C541 1.356 . S
N539 H544 0.984 . S
N539 H545 0.985 1_455 S
C540 C534 1.379 . S
C540 C537 1.363 . S
C540 N538 1.356 . S
C541 C535 1.363 . S
C541 C536 1.379 . S
C541 N539 1.356 . S
N542 C534 1.356 . S
N542 H548 0.984 . S
N542 H549 0.984 . S
N543 C536 1.356 . S
N543 H546 0.984 . S
N543 H547 0.985 1_455 S
H544 N539 0.984 . S
H545 N539 0.985 1_655 S
H546 N543 0.984 . S
H547 N543 0.985 1_655 S
H548 N542 0.984 . S
H549 N542 0.984 . S
H550 N538 0.984 . S
H551 N538 0.985 . S
C552 C553 1.363 . S
C552 C558 1.379 . S
C552 N560 1.356 . S
C553 C552 1.363 . S
C553 C559 1.363 . S
C554 C555 1.363 . S
C554 C559 1.379 . S
C554 N561 1.356 . S
C555 C554 1.363 . S
C555 C558 1.363 . S
N556 C558 1.356 . S
N556 H568 0.984 1_545 S
N556 H569 0.985 . S
N557 C559 1.356 . S
N557 H562 0.984 . S
N557 H563 0.985 . S
C558 C552 1.379 . S
C558 C555 1.363 . S
C558 N556 1.356 . S
C559 C553 1.363 . S
C559 C554 1.379 . S
C559 N557 1.356 . S
N560 C552 1.356 . S
N560 H566 0.984 1_545 S
N560 H567 0.984 . S
N561 C554 1.356 . S
N561 H564 0.984 . S
N561 H565 0.985 . S
H562 N557 0.984 . S
H563 N557 0.985 . S
H564 N561 0.984 . S
H565 N561 0.985 . S
H566 N560 0.984 1_565 S
H567 N560 0.984 . S
H568 N556 0.984 1_565 S
H569 N556 0.985 . S
C570 C571 1.363 . S
C570 C576 1.379 . S
C570 N578 1.356 1_455 S
C571 C570 1.363 . S
C571 C577 1.363 . S
C572 C573 1.363 . S
C572 C577 1.379 . S
C572 N579 1.356 . S
C573 C572 1.363 . S
C573 C576 1.363 . S
N574 C576 1.356 1_655 S
N574 H586 0.984 . S
N574 H587 0.985 1_655 S
N575 C577 1.356 . S
N575 H580 0.984 . S
N575 H581 0.985 . S
C576 C570 1.379 . S
C576 C573 1.363 . S
C576 N574 1.356 1_455 S
C577 C571 1.363 . S
C577 C572 1.379 . S
C577 N575 1.356 . S
N578 C570 1.356 1_655 S
N578 H584 0.984 . S
N578 H585 0.984 . S
N579 C572 1.356 . S
N579 H582 0.984 . S
N579 H583 0.985 . S
H580 N575 0.984 . S
H581 N575 0.985 . S
H582 N579 0.984 . S
H583 N579 0.985 . S
H584 N578 0.984 . S
H585 N578 0.984 . S
H586 N574 0.984 . S
H587 N574 0.985 1_455 S
C588 C589 1.363 1_455 S
C588 C594 1.379 . S
C588 N596 1.356 1_455 S
C589 C588 1.363 1_655 S
C589 C595 1.369 . S
C590 C591 1.363 . S
C590 C595 1.369 1_455 S
C590 N597 1.356 . S
C591 C590 1.363 . S
C591 C594 1.363 . S
N592 C594 1.356 . S
N592 H604 0.984 . S
N592 H605 0.985 . S
N593 C595 1.363 . S
N593 H598 0.984 . S
N593 H599 0.985 . S
C594 C588 1.379 . S
C594 C591 1.363 . S
C594 N592 1.356 . S
C595 C589 1.369 . S
C595 C590 1.369 1_655 S
C595 N593 1.363 . S
N596 C588 1.356 1_655 S
N596 H602 0.984 . S
N596 H603 0.984 . S
N597 C590 1.356 . S
N597 H600 0.984 . S
N597 H601 0.985 . S
H598 N593 0.984 . S
H599 N593 0.985 . S
H600 N597 0.984 . S
H601 N597 0.985 . S
H602 N596 0.984 . S
H603 N596 0.984 . S
H604 N592 0.984 . S
H605 N592 0.985 . S
C606 C607 1.363 . S
C606 C612 1.379 . S
C606 N614 1.356 . S
C607 C606 1.363 . S
C607 C613 1.363 . S
C608 C609 1.363 . S
C608 C613 1.379 . S
C608 N615 1.356 . S
C609 C608 1.363 . S
C609 C612 1.363 . S
N610 C612 1.356 . S
N610 H622 0.984 . S
N610 H623 0.985 . S
N611 C613 1.356 . S
N611 H616 0.984 . S
N611 H617 0.985 . S
C612 C606 1.379 . S
C612 C609 1.363 . S
C612 N610 1.356 . S
C613 C607 1.363 . S
C613 C608 1.379 . S
C613 N611 1.356 . S
N614 C606 1.356 . S
N614 H620 0.984 . S
N614 H621 0.984 . S
N615 C608 1.356 . S
N615 H618 0.984 . S
N615 H619 0.985 . S
H616 N611 0.984 . S
H617 N611 0.985 . S
H618 N615 0.984 . S
H619 N615 0.985 . S
H620 N614 0.984 . S
H621 N614 0.984 . S
H622 N610 0.984 . S
H623 N610 0.985 . S
C265 C18 1.372 . S
C267 C183 1.374 . S
C283 C216 1.368 . S
C285 C51 1.368 . S
C301 C84 1.372 . S
C303 C249 1.372 . S
C319 C150 1.368 . S
C321 C117 1.368 . S
C337 C7 0.856 . S
C339 C153 0.866 . S
C355 C40 1.029 . S
C357 C186 1.056 . S
C373 C205 1.029 . S
C375 C87 1.057 . S
C391 C120 0.866 . S
C393 C238 0.856 . S
C409 C106 1.029 . S
C411 C252 1.056 . S
C427 C172 0.856 . S
C429 C54 0.866 . S
C445 C219 0.866 1_545 S
C447 C73 0.856 . S
C463 C21 1.056 . S
C465 C139 1.029 . S
C481 N13 1.716 . S
C483 N2 1.713 . S
C499 N46 1.716 . S
C501 N35 1.713 . S
C517 N79 1.716 . S
C519 N68 1.713 . S
C535 N112 1.716 . S
C537 N101 1.713 . S
C553 N134 1.713 . S
C555 N145 1.716 . S
C571 N178 1.716 . S
C573 N167 1.713 . S
C589 N211 1.716 . S
C591 N200 1.713 . S
C607 N233 1.713 . S
C609 N244 1.716 . S
