# Generated by pormake.
# Topology zfh, (5)-cn, num edge types: 1
# Building blocks:
#     Node 0, Type 0, BuildingBlock: XOMCOT_clean_sbu_1, # of connection points: 5
#     Node 1, Type 0, BuildingBlock: XOMCOT_clean_sbu_1, # of connection points: 5
#     Node 2, Type 0, BuildingBlock: XOMCOT_clean_sbu_1, # of connection points: 5
#     Node 3, Type 0, BuildingBlock: XOMCOT_clean_sbu_1, # of connection points: 5
#     Node 4, Type 0, BuildingBlock: XOMCOT_clean_sbu_1, # of connection points: 5
#     Node 5, Type 0, BuildingBlock: XOMCOT_clean_sbu_1, # of connection points: 5
#     Node 6, Type 0, BuildingBlock: XOMCOT_clean_sbu_1, # of connection points: 5
#     Node 7, Type 0, BuildingBlock: XOMCOT_clean_sbu_1, # of connection points: 5
#     Node 8, Type 0, BuildingBlock: XOMCOT_clean_sbu_1, # of connection points: 5
#     Node 9, Type 0, BuildingBlock: XOMCOT_clean_sbu_1, # of connection points: 5
#     Node 10, Type 0, BuildingBlock: XOMCOT_clean_sbu_1, # of connection points: 5
#     Node 11, Type 0, BuildingBlock: XOMCOT_clean_sbu_1, # of connection points: 5
#     Node 12, Type 0, BuildingBlock: XOMCOT_clean_sbu_1, # of connection points: 5
#     Node 13, Type 0, BuildingBlock: XOMCOT_clean_sbu_1, # of connection points: 5
#     Node 14, Type 0, BuildingBlock: XOMCOT_clean_sbu_1, # of connection points: 5
#     Node 15, Type 0, BuildingBlock: XOMCOT_clean_sbu_1, # of connection points: 5
#     Edge 16, Type (0, 0), BuildingBlock: EZIPEK_clean_linker_0, # of connection points: 2
#     Edge 17, Type (0, 0), BuildingBlock: EZIPEK_clean_linker_0, # of connection points: 2
#     Edge 18, Type (0, 0), BuildingBlock: EZIPEK_clean_linker_0, # of connection points: 2
#     Edge 19, Type (0, 0), BuildingBlock: EZIPEK_clean_linker_0, # of connection points: 2
#     Edge 20, Type (0, 0), BuildingBlock: EZIPEK_clean_linker_0, # of connection points: 2
#     Edge 21, Type (0, 0), BuildingBlock: EZIPEK_clean_linker_0, # of connection points: 2
#     Edge 22, Type (0, 0), BuildingBlock: EZIPEK_clean_linker_0, # of connection points: 2
#     Edge 23, Type (0, 0), BuildingBlock: EZIPEK_clean_linker_0, # of connection points: 2
#     Edge 24, Type (0, 0), BuildingBlock: EZIPEK_clean_linker_0, # of connection points: 2
#     Edge 25, Type (0, 0), BuildingBlock: EZIPEK_clean_linker_0, # of connection points: 2
#     Edge 26, Type (0, 0), BuildingBlock: EZIPEK_clean_linker_0, # of connection points: 2
#     Edge 27, Type (0, 0), BuildingBlock: EZIPEK_clean_linker_0, # of connection points: 2
#     Edge 28, Type (0, 0), BuildingBlock: EZIPEK_clean_linker_0, # of connection points: 2
#     Edge 29, Type (0, 0), BuildingBlock: EZIPEK_clean_linker_0, # of connection points: 2
#     Edge 30, Type (0, 0), BuildingBlock: EZIPEK_clean_linker_0, # of connection points: 2
#     Edge 31, Type (0, 0), BuildingBlock: EZIPEK_clean_linker_0, # of connection points: 2
#     Edge 32, Type (0, 0), BuildingBlock: EZIPEK_clean_linker_0, # of connection points: 2
#     Edge 33, Type (0, 0), BuildingBlock: EZIPEK_clean_linker_0, # of connection points: 2
#     Edge 34, Type (0, 0), BuildingBlock: EZIPEK_clean_linker_0, # of connection points: 2
#     Edge 35, Type (0, 0), BuildingBlock: EZIPEK_clean_linker_0, # of connection points: 2
#     Edge 36, Type (0, 0), BuildingBlock: EZIPEK_clean_linker_0, # of connection points: 2
#     Edge 37, Type (0, 0), BuildingBlock: EZIPEK_clean_linker_0, # of connection points: 2
#     Edge 38, Type (0, 0), BuildingBlock: EZIPEK_clean_linker_0, # of connection points: 2
#     Edge 39, Type (0, 0), BuildingBlock: EZIPEK_clean_linker_0, # of connection points: 2
#     Edge 40, Type (0, 0), BuildingBlock: EZIPEK_clean_linker_0, # of connection points: 2
#     Edge 41, Type (0, 0), BuildingBlock: EZIPEK_clean_linker_0, # of connection points: 2
#     Edge 42, Type (0, 0), BuildingBlock: EZIPEK_clean_linker_0, # of connection points: 2
#     Edge 43, Type (0, 0), BuildingBlock: EZIPEK_clean_linker_0, # of connection points: 2
#     Edge 44, Type (0, 0), BuildingBlock: EZIPEK_clean_linker_0, # of connection points: 2
#     Edge 45, Type (0, 0), BuildingBlock: EZIPEK_clean_linker_0, # of connection points: 2
#     Edge 46, Type (0, 0), BuildingBlock: EZIPEK_clean_linker_0, # of connection points: 2
#     Edge 47, Type (0, 0), BuildingBlock: EZIPEK_clean_linker_0, # of connection points: 2
#     Edge 48, Type (0, 0), BuildingBlock: EZIPEK_clean_linker_0, # of connection points: 2
#     Edge 49, Type (0, 0), BuildingBlock: EZIPEK_clean_linker_0, # of connection points: 2
#     Edge 50, Type (0, 0), BuildingBlock: EZIPEK_clean_linker_0, # of connection points: 2
#     Edge 51, Type (0, 0), BuildingBlock: EZIPEK_clean_linker_0, # of connection points: 2
#     Edge 52, Type (0, 0), BuildingBlock: EZIPEK_clean_linker_0, # of connection points: 2
#     Edge 53, Type (0, 0), BuildingBlock: EZIPEK_clean_linker_0, # of connection points: 2
#     Edge 54, Type (0, 0), BuildingBlock: EZIPEK_clean_linker_0, # of connection points: 2
#     Edge 55, Type (0, 0), BuildingBlock: EZIPEK_clean_linker_0, # of connection points: 2
# Relax obj value: 0.225
# Max RMSD: 0.217
# Mean RMSD: 0.217
data_MOF--net-zfh--node1-XOMCOT_clean_sbu_1--edge1-EZIPEK_clean_linker_0
_symmetry_space_group_name_H-M    P1
_symmetry_Int_Tables_number       1
_symmetry_cell_setting            triclinic
loop_
_symmetry_equiv_pos_as_xyz
'x, y, z'
_cell_length_a     30.003097
_cell_length_b     29.979587
_cell_length_c     40.471329
_cell_angle_alpha  89.855426
_cell_angle_beta   90.026072
_cell_angle_gamma 90.152657
loop_
_atom_site_label
_atom_site_type_symbol
_atom_site_fract_x
_atom_site_fract_y
_atom_site_fract_z
_atom_type_partial_charge
C0 C 0.49221 0.27529 0.34887 0.0
C1 C 0.4663 0.31277 0.35237 0.0
N2 N 0.45983 0.31982 0.38477 0.0
N3 N 0.50248 0.2586 0.37904 0.0
C4 C 0.48171 0.28656 0.40038 0.0
H5 H 0.5023 0.2616 0.32546 0.0
Co6 Co 0.53625 0.20784 0.39179 0.0
C7 C 0.46551 0.16647 0.40525 0.0
O8 O 0.47753 0.15651 0.37495 0.0
N9 N 0.56921 0.15695 0.40474 0.0
C10 C 0.60588 0.09251 0.40032 0.0
C11 C 0.5784 0.12235 0.38446 0.0
C12 C 0.58992 0.14617 0.43335 0.0
N13 N 0.6137 0.10809 0.43085 0.0
O14 O 0.56469 0.24657 0.42441 0.0
H15 H 0.56643 0.11912 0.35941 0.0
H16 H 0.58772 0.16552 0.45575 0.0
O17 O 0.49042 0.19232 0.4221 0.0
C18 C 0.5977 0.25618 0.44299 0.0
O19 O 0.63375 0.23148 0.44339 0.0
N20 N 0.57859 0.21874 0.35888 0.0
C21 C 0.63575 0.19759 0.30729 0.0
C22 C 0.59015 0.18956 0.30455 0.0
C23 C 0.56235 0.20006 0.33067 0.0
C24 C 0.62279 0.22928 0.36142 0.0
C25 C 0.65217 0.2193 0.33548 0.0
H26 H 0.52799 0.18935 0.32957 0.0
H27 H 0.63639 0.2423 0.3839 0.0
H28 H 0.48267 0.28274 0.42698 0.0
H29 H 0.45302 0.33329 0.33266 0.0
H30 H 0.61988 0.06231 0.39009 0.0
H31 H 0.57648 0.17264 0.28317 0.0
H32 H 0.68749 0.22589 0.33817 0.0
C33 C 0.22653 0.53056 0.37102 0.0
C34 C 0.19103 0.50211 0.36562 0.0
N35 N 0.19198 0.46995 0.38889 0.0
N36 N 0.24964 0.51621 0.39758 0.0
C37 C 0.2279 0.47902 0.40773 0.0
H38 H 0.23319 0.56132 0.35788 0.0
Co39 Co 0.2937 0.54618 0.42158 0.0
C40 C 0.3686 0.48059 0.41814 0.0
O41 O 0.39561 0.51377 0.41079 0.0
N42 N 0.33697 0.57603 0.44744 0.0
C43 C 0.38513 0.58996 0.4883 0.0
C44 C 0.36433 0.55732 0.47017 0.0
C45 C 0.33982 0.62024 0.45389 0.0
N46 N 0.36931 0.62944 0.4781 0.0
O47 O 0.26065 0.53461 0.46224 0.0
H48 H 0.36577 0.52219 0.47584 0.0
H49 H 0.31762 0.64498 0.44365 0.0
O50 O 0.32753 0.48887 0.42469 0.0
C51 C 0.22641 0.55991 0.46454 0.0
O52 O 0.21689 0.58641 0.43962 0.0
N53 N 0.32301 0.563 0.38117 0.0
C54 C 0.36431 0.59785 0.32441 0.0
C55 C 0.36045 0.55158 0.32909 0.0
C56 C 0.33846 0.53484 0.35718 0.0
C57 C 0.32326 0.60787 0.37529 0.0
C58 C 0.3444 0.62602 0.34755 0.0
H59 H 0.33408 0.49929 0.35953 0.0
H60 H 0.30589 0.62996 0.39172 0.0
H61 H 0.23652 0.46056 0.42981 0.0
H62 H 0.16481 0.50642 0.34752 0.0
H63 H 0.40628 0.58497 0.50967 0.0
H64 H 0.37381 0.52868 0.31099 0.0
H65 H 0.34477 0.66185 0.344 0.0
C66 C 0.98379 0.22016 0.36035 0.0
C67 C 0.01488 0.18631 0.36152 0.0
N68 N 0.0428 0.19471 0.38677 0.0
N69 N 0.9924 0.24961 0.38475 0.0
C70 C 0.02865 0.23309 0.40038 0.0
H71 H 0.95612 0.22263 0.34331 0.0
Co72 Co 0.96037 0.30022 0.39732 0.0
C73 C 0.03585 0.36719 0.39217 0.0
O74 O 0.01536 0.38949 0.36892 0.0
N75 N 0.92784 0.35273 0.41095 0.0
C76 C 0.89603 0.42034 0.41053 0.0
C77 C 0.92488 0.39239 0.39471 0.0
C78 C 0.89957 0.35805 0.43685 0.0
N79 N 0.88011 0.39864 0.43687 0.0
O80 O 0.95928 0.27639 0.44167 0.0
H81 H 0.93928 0.40012 0.37106 0.0
H82 H 0.89203 0.33256 0.45488 0.0
O83 O 0.01804 0.3323 0.40516 0.0
C84 C 0.92484 0.25108 0.44313 0.0
O85 O 0.89548 0.25376 0.41908 0.0
N86 N 0.95598 0.31753 0.35295 0.0
C87 C 0.935 0.34532 0.28938 0.0
C88 C 0.97901 0.3335 0.2974 0.0
C89 C 0.98889 0.31943 0.32964 0.0
C90 C 0.91253 0.32233 0.34385 0.0
C91 C 0.90149 0.33855 0.31288 0.0
H92 H 0.02279 0.31091 0.33608 0.0
H93 H 0.88626 0.31606 0.36158 0.0
H94 H 0.04396 0.24845 0.42175 0.0
H95 H 0.01657 0.15753 0.34548 0.0
H96 H 0.88586 0.45328 0.40256 0.0
H97 H 1.0054 0.3363 0.27926 0.0
H98 H 0.86691 0.34574 0.30732 0.0
C99 C 0.29328 0.99279 0.39216 0.0
C100 C 0.32855 0.02225 0.39157 0.0
N101 N 0.32041 0.0547 0.41363 0.0
N102 N 0.26272 1.00714 0.41416 0.0
C103 C 0.28056 0.04488 0.42699 0.0
H104 H 0.29094 0.96247 0.37795 0.0
Co105 Co 0.21071 0.97929 0.42942 0.0
C106 C 0.18175 0.07096 0.41071 0.0
O107 O 0.20658 0.06807 0.38404 0.0
N108 N 0.15984 0.9516 0.44532 0.0
C109 C 0.08992 0.93188 0.45665 0.0
C110 C 0.11665 0.96361 0.44193 0.0
C111 C 0.15864 0.9127 0.46198 0.0
N112 N 0.11667 0.9002 0.46916 0.0
O113 O 0.23238 0.98762 0.47391 0.0
H114 H 0.10512 0.99329 0.42942 0.0
H115 H 0.18788 0.89375 0.46877 0.0
O116 O 0.17963 0.03719 0.43006 0.0
C117 C 0.26114 0.95754 0.48073 0.0
O118 O 0.26924 0.9265 0.45869 0.0
N119 N 0.19186 0.96553 0.38619 0.0
C120 C 0.17161 0.92859 0.32379 0.0
C121 C 0.14849 0.96609 0.33626 0.0
C122 C 0.15917 0.98411 0.36722 0.0
C123 C 0.20963 0.92579 0.37708 0.0
C124 C 0.19929 0.90638 0.34677 0.0
H125 H 0.13967 1.01168 0.37614 0.0
H126 H 0.23147 0.90842 0.39403 0.0
H127 H 0.26472 0.06473 0.44593 0.0
H128 H 0.35796 0.02013 0.37618 0.0
H129 H 0.05393 0.93216 0.45843 0.0
H130 H 0.12092 0.98094 0.32312 0.0
H131 H 0.21225 0.8734 0.3427 0.0
C132 C 0.04222 0.70931 0.1389 0.0
C133 C 1.00927 0.67704 0.13895 0.0
N134 N 0.98041 0.68664 0.1145 0.0
N135 N 0.03339 0.73961 0.11504 0.0
C136 C 0.99553 0.72472 0.10061 0.0
H137 H 0.07123 0.71013 0.15476 0.0
Co138 Co 0.06791 0.78821 0.10084 0.0
C139 C 0.99591 0.85793 0.112 0.0
O140 O 0.01579 0.87644 0.13733 0.0
N141 N 0.1028 0.83669 0.08529 0.0
C142 C 0.13504 0.90263 0.07531 0.0
C143 C 0.10336 0.88045 0.09365 0.0
C144 C 0.1354 0.83322 0.06243 0.0
N145 N 0.15468 0.87268 0.05561 0.0
O146 O 0.06013 0.76881 0.05563 0.0
H147 H 0.08329 0.89575 0.11234 0.0
H148 H 0.14527 0.8024 0.05087 0.0
O149 O 0.01313 0.82455 0.09705 0.0
C150 C 0.08628 0.73703 0.0479 0.0
O151 O 0.11209 0.7201 0.07095 0.0
N152 N 0.0797 0.80478 0.14537 0.0
C153 C 0.10699 0.83788 0.20646 0.0
C154 C 0.06277 0.82376 0.20176 0.0
C155 C 0.04987 0.80653 0.17091 0.0
C156 C 0.12381 0.81247 0.1514 0.0
C157 C 0.13791 0.8304 0.18128 0.0
H158 H 0.01554 0.79685 0.16702 0.0
H159 H 0.14833 0.80644 0.13238 0.0
H160 H 0.97993 0.74078 0.0796 0.0
H161 H 1.00741 0.64802 0.15487 0.0
H162 H 0.1426 0.93795 0.07591 0.0
H163 H 0.03833 0.82757 0.22122 0.0
H164 H 0.17271 0.83919 0.18447 0.0
C165 C 0.833 0.04036 0.12777 0.0
C166 C 0.8655 1.00823 0.12899 0.0
N167 N 0.8551 0.9765 0.10691 0.0
N168 N 0.80202 0.02877 0.10512 0.0
C169 C 0.81656 0.98951 0.0927 0.0
H170 H 0.8331 0.07095 0.14179 0.0
Co171 Co 0.75308 0.06271 0.09176 0.0
C172 C 0.67631 0.99501 0.0909 0.0
O173 O 0.64648 0.02587 0.09655 0.0
N174 N 0.70318 0.09882 0.07817 0.0
C175 C 0.6423 0.14201 0.07978 0.0
C176 C 0.66972 0.11452 0.09757 0.0
C177 C 0.69518 0.11864 0.04857 0.0
N178 N 0.65863 0.14488 0.0491 0.0
O179 O 0.77476 0.05834 0.04668 0.0
H180 H 0.66451 0.10653 0.12325 0.0
H181 H 0.71578 0.11482 0.02697 0.0
O182 O 0.7176 1.00586 0.08802 0.0
C183 C 0.80047 0.09194 0.04173 0.0
O184 O 0.80157 0.12336 0.06429 0.0
N185 N 0.73811 0.07206 0.13597 0.0
C186 C 0.71659 0.10951 0.19656 0.0
C187 C 0.70204 0.0662 0.18863 0.0
C188 C 0.71401 0.04748 0.15814 0.0
C189 C 0.75468 0.11284 0.14444 0.0
C190 C 0.74496 0.13189 0.17478 0.0
H191 H 0.70212 0.01463 0.15201 0.0
H192 H 0.77434 0.13146 0.12676 0.0
H193 H 0.79996 0.97144 0.0731 0.0
H194 H 0.89513 1.00857 0.14426 0.0
H195 H 0.61298 0.15914 0.08872 0.0
H196 H 0.68046 0.04785 0.20528 0.0
H197 H 0.75716 0.1651 0.18033 0.0
C198 C 0.51086 0.81712 0.1394 0.0
C199 C 0.54149 0.85131 0.13714 0.0
N200 N 0.57146 0.84101 0.11367 0.0
N201 N 0.52137 0.78488 0.1176 0.0
C202 C 0.55884 0.80027 0.10239 0.0
H203 H 0.48116 0.81719 0.1545 0.0
Co204 Co 0.4826 0.738 0.10529 0.0
C205 C 0.54301 0.65756 0.0976 0.0
O206 O 0.51148 0.62982 0.10655 0.0
N207 N 0.4413 0.69135 0.09226 0.0
C208 C 0.39564 0.63189 0.0934 0.0
C209 C 0.42542 0.65716 0.11102 0.0
C210 C 0.41892 0.68619 0.06329 0.0
N211 N 0.39139 0.65034 0.06343 0.0
O212 O 0.48514 0.76052 0.0605 0.0
H213 H 0.43593 0.64925 0.13577 0.0
H214 H 0.42226 0.70804 0.04231 0.0
O215 O 0.53533 0.69959 0.09636 0.0
C216 C 0.45702 0.79141 0.05451 0.0
O217 O 0.42794 0.80148 0.07757 0.0
N218 N 0.47729 0.71964 0.1502 0.0
C219 C 0.44769 0.6836 0.21024 0.0
C220 C 0.49055 0.67399 0.19823 0.0
C221 C 0.50514 0.69309 0.16834 0.0
C222 C 0.43737 0.73258 0.16317 0.0
C223 C 0.42184 0.71483 0.19303 0.0
H224 H 0.53776 0.68466 0.15931 0.0
H225 H 0.41595 0.75433 0.14893 0.0
H226 H 0.57472 0.78347 0.08191 0.0
H227 H 0.54064 0.88245 0.15062 0.0
H228 H 0.37894 0.60182 0.10168 0.0
H229 H 0.51188 0.65076 0.21126 0.0
H230 H 0.3889 0.72365 0.20176 0.0
C231 C 0.73162 0.48709 0.11605 0.0
C232 C 0.69359 0.51245 0.1196 0.0
N233 N 0.69243 0.5426 0.09491 0.0
N234 N 0.75458 0.50146 0.08937 0.0
C235 C 0.72935 0.53495 0.07677 0.0
H236 H 0.7417 0.45978 0.13186 0.0
Co237 Co 0.80785 0.47843 0.07149 0.0
C238 C 0.83082 0.5769 0.08348 0.0
O239 O 0.79803 0.58317 0.10439 0.0
N240 N 0.86159 0.45592 0.05335 0.0
C241 C 0.93456 0.44259 0.04958 0.0
C242 C 0.90245 0.46818 0.06436 0.0
C243 C 0.86993 0.42246 0.03177 0.0
N244 N 0.91401 0.41385 0.02927 0.0
O245 O 0.78229 0.48538 0.02831 0.0
H246 H 0.90851 0.49305 0.08314 0.0
H247 H 0.84451 0.40401 0.01865 0.0
O248 O 0.83593 0.53819 0.07074 0.0
C249 C 0.76094 0.44901 0.02317 0.0
O250 O 0.76626 0.41597 0.04422 0.0
N251 N 0.82994 0.4651 0.1136 0.0
C252 C 0.86648 0.42793 0.1705 0.0
C253 C 0.85756 0.47387 0.16881 0.0
C254 C 0.83992 0.49209 0.13971 0.0
C255 C 0.83587 0.42013 0.1159 0.0
C256 C 0.85585 0.40116 0.1434 0.0
H257 H 0.83421 0.52737 0.13858 0.0
H258 H 0.82642 0.39887 0.09551 0.0
H259 H 0.73829 0.55401 0.055 0.0
H260 H 0.66892 0.5094 0.13898 0.0
H261 H 0.97019 0.44447 0.05362 0.0
H262 H 0.86476 0.49542 0.18959 0.0
H263 H 0.86201 0.36556 0.1438 0.0
C264 C 0.45802 0.71734 0.60868 0.0
C265 C 0.48774 0.68301 0.6055 0.0
N266 N 0.52898 0.70032 0.60593 0.0
N267 N 0.48012 0.75659 0.61155 0.0
C268 C 0.5238 0.74486 0.60969 0.0
H269 H 0.42216 0.71376 0.60822 0.0
Co270 Co 0.44947 0.81212 0.61239 0.0
C271 C 0.52302 0.85465 0.61011 0.0
O272 O 0.51745 0.83826 0.64001 0.0
N273 N 0.4182 0.86639 0.61204 0.0
C274 C 0.37032 0.92055 0.62426 0.0
C275 C 0.39785 0.88794 0.6371 0.0
C276 C 0.40494 0.88838 0.58469 0.0
N277 N 0.37355 0.91928 0.59107 0.0
O278 O 0.4182 0.79005 0.57288 0.0
H279 H 0.40002 0.87839 0.66282 0.0
H280 H 0.41556 0.87954 0.56003 0.0
O281 O 0.4963 0.84115 0.58752 0.0
C282 C 0.38691 0.79177 0.55141 0.0
O283 O 0.35699 0.82361 0.55205 0.0
N284 N 0.40647 0.78787 0.64095 0.0
C285 C 0.34715 0.78311 0.69365 0.0
C286 C 0.39322 0.78516 0.6992 0.0
C287 C 0.42233 0.78698 0.67245 0.0
C288 C 0.3621 0.78173 0.63493 0.0
C289 C 0.33183 0.77768 0.66115 0.0
H290 H 0.45747 0.79233 0.67689 0.0
H291 H 0.34933 0.78379 0.6103 0.0
H292 H 0.55139 0.76804 0.61085 0.0
H293 H 0.47983 0.64789 0.60327 0.0
H294 H 0.3467 0.94053 0.63795 0.0
H295 H 0.40645 0.78878 0.72397 0.0
H296 H 0.29647 0.77523 0.65601 0.0
C297 C 0.78658 0.47659 0.60553 0.0
C298 C 0.82514 0.50085 0.60833 0.0
N299 N 0.81584 0.54406 0.60264 0.0
N300 N 0.75216 0.5039 0.59826 0.0
C301 C 0.77153 0.54503 0.59643 0.0
H302 H 0.78521 0.44062 0.60532 0.0
Co303 Co 0.69919 0.48243 0.57773 0.0
C304 C 0.66894 0.56965 0.60407 0.0
O305 O 0.69262 0.56129 0.63068 0.0
N306 N 0.64913 0.45998 0.55529 0.0
C307 C 0.58771 0.45118 0.52493 0.0
C308 C 0.61232 0.48074 0.54364 0.0
C309 C 0.64618 0.41815 0.54319 0.0
N310 N 0.60989 0.41227 0.52408 0.0
O311 O 0.72844 0.49193 0.53577 0.0
H312 H 0.60453 0.51557 0.54728 0.0
H313 H 0.67123 0.3928 0.54692 0.0
O314 O 0.6715 0.54302 0.5792 0.0
C315 C 0.75025 0.45634 0.52916 0.0
O316 O 0.74803 0.42261 0.5498 0.0
N317 N 0.67134 0.46772 0.61868 0.0
C318 C 0.62723 0.43482 0.67443 0.0
C319 C 0.6712 0.42245 0.66784 0.0
C320 C 0.69233 0.43862 0.63946 0.0
C321 C 0.6279 0.47917 0.6247 0.0
C322 C 0.60533 0.46322 0.65248 0.0
H323 H 0.72482 0.42602 0.63366 0.0
H324 H 0.60982 0.50039 0.60789 0.0
H325 H 0.75442 0.57476 0.58835 0.0
H326 H 0.85811 0.4875 0.61276 0.0
H327 H 0.55769 0.45853 0.51112 0.0
H328 H 0.68853 0.39939 0.68397 0.0
H329 H 0.571 0.47277 0.65668 0.0
C330 C 0.02416 0.79713 0.63767 0.0
C331 C 0.99596 0.83311 0.63612 0.0
N332 N 0.9624 0.82297 0.61557 0.0
N333 N 1.00838 0.76349 0.61854 0.0
C334 C 0.97059 0.78097 0.60511 0.0
H335 H 0.05489 0.79676 0.6515 0.0
Co336 Co 0.03691 0.70747 0.60817 0.0
C337 C 0.95761 0.67392 0.60841 0.0
O338 O 0.96631 0.68597 0.63896 0.0
N339 N 0.06535 0.6529 0.59714 0.0
C340 C 0.10761 0.59225 0.60321 0.0
C341 C 0.08173 0.62333 0.61927 0.0
C342 C 0.07943 0.63713 0.5676 0.0
N343 N 0.10663 0.6014 0.57068 0.0
O344 O 0.05929 0.73919 0.56949 0.0
H345 H 0.07786 0.62592 0.64573 0.0
H346 H 0.07202 0.65283 0.5442 0.0
O347 O 0.98448 0.68655 0.58565 0.0
C348 C 0.0888 0.74386 0.54703 0.0
O349 O 0.12218 0.71597 0.54449 0.0
N350 N 0.08638 0.72221 0.63442 0.0
C351 C 0.15277 0.70879 0.68135 0.0
C352 C 0.10784 0.70622 0.6902 0.0
C353 C 0.07524 0.71287 0.66634 0.0
C354 C 0.13005 0.72823 0.62578 0.0
C355 C 0.16401 0.72218 0.6492 0.0
H356 H 0.04074 0.70691 0.67269 0.0
H357 H 0.13948 0.73467 0.6007 0.0
H358 H 0.94939 0.76365 0.58779 0.0
H359 H 0.99959 0.86434 0.64924 0.0
H360 H 0.12869 0.56746 0.61477 0.0
H361 H 0.09803 0.69608 0.71487 0.0
H362 H 0.1986 0.72467 0.64173 0.0
C363 C 0.70687 0.04363 0.62456 0.0
C364 C 0.66586 0.02335 0.62775 0.0
N365 N 0.66562 0.98541 0.60982 0.0
N366 N 0.73276 0.01906 0.60447 0.0
C367 C 0.70636 0.98426 0.59548 0.0
H368 H 0.71615 0.07582 0.63446 0.0
Co369 Co 0.78498 0.04071 0.58402 0.0
C370 C 0.81221 0.94215 0.60002 0.0
O371 O 0.77431 0.92972 0.61325 0.0
N372 N 0.83598 0.0636 0.56258 0.0
C373 C 0.90621 0.0789 0.54842 0.0
C374 C 0.87886 0.05057 0.56612 0.0
C375 C 0.83821 0.1 0.54278 0.0
N376 N 0.88046 0.11007 0.53412 0.0
O377 O 0.75819 0.02731 0.54181 0.0
H378 H 0.88987 0.02296 0.58128 0.0
H379 H 0.8096 0.11934 0.5352 0.0
O380 O 0.81671 0.98178 0.58818 0.0
C381 C 0.73243 0.0603 0.53536 0.0
O382 O 0.73154 0.09394 0.5561 0.0
N383 N 0.80872 0.05948 0.62489 0.0
C384 C 0.8495 0.09499 0.68105 0.0
C385 C 0.83478 0.05046 0.68066 0.0
C386 C 0.81444 0.0333 0.65215 0.0
C387 C 0.81978 0.10365 0.62596 0.0
C388 C 0.84136 0.12172 0.65332 0.0
H389 H 0.80272 0.99944 0.65209 0.0
H390 H 0.81256 0.12505 0.60514 0.0
H391 H 0.7161 0.9596 0.57742 0.0
H392 H 0.63787 0.03608 0.64169 0.0
H393 H 0.94212 0.077 0.5463 0.0
H394 H 0.83934 0.02918 0.70206 0.0
H395 H 0.85131 0.15648 0.65295 0.0
C396 C 1.00477 0.31467 0.85081 0.0
C397 C 0.03136 0.35148 0.84576 0.0
N398 N 0.07107 0.34601 0.86135 0.0
N399 N 0.02597 0.28586 0.87068 0.0
C400 C 0.06506 0.30669 0.87788 0.0
H401 H 0.97066 0.31074 0.84263 0.0
Co402 Co 0.99922 0.23534 0.89101 0.0
C403 C 0.09282 0.19952 0.87305 0.0
O404 O 0.10268 0.231 0.85172 0.0
N405 N 0.97276 0.18516 0.9123 0.0
C406 C 0.95461 0.11459 0.92392 0.0
C407 C 0.98206 0.14196 0.90561 0.0
C408 C 0.93927 0.18304 0.93477 0.0
N409 N 0.92779 0.14051 0.94217 0.0
O410 O 0.01293 0.26111 0.93346 0.0
H411 H 1.0066 0.13089 0.8879 0.0
H412 H 0.92297 0.21193 0.94512 0.0
O413 O 0.05577 0.20032 0.88892 0.0
C414 C 0.98072 0.28828 0.93837 0.0
O415 O 0.9491 0.29097 0.91599 0.0
N416 N 0.97934 0.21309 0.84952 0.0
C417 C 0.94009 0.17676 0.79289 0.0
C418 C 0.98437 0.19198 0.79229 0.0
C419 C 1.00332 0.21033 0.82094 0.0
C420 C 0.93507 0.20218 0.84927 0.0
C421 C 0.91529 0.18256 0.82177 0.0
H422 H 0.03648 0.2236 0.81965 0.0
H423 H 0.91468 0.20822 0.87077 0.0
H424 H 0.08692 0.29455 0.89711 0.0
H425 H 0.0195 0.38131 0.83377 0.0
H426 H 0.95447 0.07848 0.92405 0.0
H427 H 1.004 0.18975 0.7699 0.0
H428 H 0.88058 0.1726 0.82289 0.0
C429 C 0.22108 0.97357 0.8738 0.0
C430 C 0.18833 1.00514 0.87095 0.0
N431 N 0.20602 0.04475 0.87887 0.0
N432 N 0.25983 0.99276 0.88363 0.0
C433 C 0.24933 0.03672 0.88597 0.0
H434 H 0.21592 0.93864 0.86919 0.0
Co435 Co 0.31334 0.96195 0.89552 0.0
C436 C 0.35895 0.03575 0.90312 0.0
O437 O 0.36415 0.02315 0.87231 0.0
N438 N 0.36616 0.93164 0.90778 0.0
C439 C 0.42792 0.89044 0.90703 0.0
C440 C 0.39746 0.91338 0.88801 0.0
C441 C 0.37998 0.92143 0.93872 0.0
N442 N 0.41598 0.89453 0.93892 0.0
O443 O 0.28046 0.93658 0.93351 0.0
H444 H 0.39764 0.91519 0.86137 0.0
H445 H 0.36287 0.93208 0.96077 0.0
O446 O 0.33329 1.01252 0.92169 0.0
C447 C 0.27925 0.89978 0.94971 0.0
O448 O 0.30481 0.86619 0.94118 0.0
N449 N 0.2983 0.9148 0.86629 0.0
C450 C 0.29107 0.85633 0.81277 0.0
C451 C 0.31372 0.89701 0.80972 0.0
C452 C 0.31606 0.92595 0.83644 0.0
C453 C 0.27503 0.87564 0.86971 0.0
C454 C 0.27033 0.84626 0.84293 0.0
H455 H 0.33351 0.95733 0.83369 0.0
H456 H 0.2584 0.86717 0.89228 0.0
H457 H 0.27258 0.06253 0.89264 0.0
H458 H 0.15406 0.99954 0.86364 0.0
H459 H 0.45507 0.87007 0.89808 0.0
H460 H 0.32956 0.90646 0.78667 0.0
H461 H 0.25107 0.81589 0.84581 0.0
C462 C 0.51956 0.21969 0.85862 0.0
C463 C 0.49266 0.18246 0.86055 0.0
N464 N 0.47163 0.18277 0.88992 0.0
N465 N 0.51539 0.24381 0.88657 0.0
C466 C 0.48602 0.22019 0.90528 0.0
H467 H 0.54151 0.22798 0.83833 0.0
Co468 Co 0.54643 0.29651 0.89783 0.0
C469 C 0.47654 0.3462 0.9336 0.0
O470 O 0.50487 0.35294 0.95782 0.0
N471 N 0.57735 0.34964 0.90915 0.0
C472 C 0.59583 0.42169 0.91296 0.0
C473 C 0.56589 0.39156 0.89999 0.0
C474 C 0.61478 0.35535 0.92739 0.0
N475 N 0.62646 0.39868 0.93011 0.0
O476 O 0.55392 0.27348 0.9416 0.0
H477 H 0.53678 0.39995 0.88553 0.0
H478 H 0.63282 0.3287 0.93932 0.0
O479 O 0.48997 0.32451 0.90845 0.0
C480 C 0.58965 0.25048 0.94227 0.0
O481 O 0.61483 0.24959 0.9157 0.0
N482 N 0.54352 0.31667 0.85434 0.0
C483 C 0.55722 0.35359 0.79229 0.0
C484 C 0.51496 0.35547 0.80702 0.0
C485 C 0.50857 0.33624 0.83826 0.0
C486 C 0.58406 0.3129 0.83954 0.0
C487 C 0.59166 0.33112 0.80844 0.0
H488 H 0.47628 0.33866 0.84984 0.0
H489 H 0.61115 0.29706 0.8527 0.0
H490 H 0.47613 0.22967 0.93 0.0
H491 H 0.48979 0.15632 0.84226 0.0
H492 H 0.59416 0.45768 0.91127 0.0
H493 H 0.48774 0.37265 0.79491 0.0
H494 H 0.62461 0.32919 0.79759 0.0
C495 C 0.33316 0.53753 0.86931 0.0
C496 C 0.3648 0.50502 0.87455 0.0
N497 N 0.35099 0.47902 0.89965 0.0
N498 N 0.29918 0.53189 0.89086 0.0
C499 C 0.31137 0.49592 0.90917 0.0
H500 H 0.33575 0.56414 0.8514 0.0
Co501 Co 0.24955 0.5694 0.89852 0.0
C502 C 0.20831 0.47908 0.88352 0.0
O503 O 0.24244 0.46908 0.86469 0.0
N504 N 0.19972 0.60764 0.9071 0.0
C505 C 0.13411 0.64277 0.90295 0.0
C506 C 0.16407 0.61543 0.88729 0.0
C507 C 0.19023 0.63136 0.93474 0.0
N508 N 0.15077 0.65265 0.93274 0.0
O509 O 0.26142 0.56361 0.94521 0.0
H510 H 0.15878 0.60148 0.86315 0.0
H511 H 0.21084 0.63243 0.95651 0.0
O512 O 0.20716 0.51713 0.89811 0.0
C513 C 0.28935 0.59495 0.95136 0.0
O514 O 0.29763 0.62427 0.92796 0.0
N515 N 0.24364 0.58112 0.85289 0.0
C516 C 0.23333 0.62386 0.79209 0.0
C517 C 0.21208 0.5829 0.79843 0.0
C518 C 0.21835 0.56147 0.82887 0.0
C519 C 0.26658 0.61945 0.84614 0.0
C520 C 0.26297 0.64067 0.81562 0.0
H521 H 0.19976 0.53153 0.83363 0.0
H522 H 0.28682 0.63457 0.86515 0.0
H523 H 0.29181 0.48263 0.92941 0.0
H524 H 0.39577 0.50096 0.8612 0.0
H525 H 0.1019 0.65326 0.89375 0.0
H526 H 0.18926 0.56865 0.78057 0.0
H527 H 0.28057 0.67175 0.81138 0.0
C528 C 0.34969 0.1265 0.39391 0.0
C529 C 0.3475 0.09368 0.4189 0.0
C530 C 0.41693 0.12094 0.44326 0.0
C531 C 0.42125 0.15101 0.41639 0.0
N532 N 0.38545 0.19388 0.37369 0.0
N533 N 0.36725 0.07229 0.47411 0.0
C534 C 0.38507 0.15786 0.39442 0.0
C535 C 0.37724 0.09521 0.44599 0.0
N536 N 0.31909 0.12602 0.36896 0.0
N537 N 0.45156 0.11469 0.46465 0.0
H538 H 0.33681 0.05595 0.47694 0.0
H539 H 0.38625 0.07409 0.49561 0.0
H540 H 0.48069 0.13368 0.46374 0.0
H541 H 0.45219 0.08927 0.48224 0.0
H542 H 0.32142 0.14586 0.34788 0.0
H543 H 0.29198 0.10414 0.36895 0.0
H544 H 0.35872 0.20275 0.35867 0.0
H545 H 0.41131 0.21723 0.37399 0.0
C546 C 0.36547 0.39991 0.39775 0.0
C547 C 0.38684 0.43409 0.41651 0.0
C548 C 0.45579 0.38971 0.41737 0.0
C549 C 0.43433 0.35579 0.39902 0.0
N550 N 0.36622 0.3225 0.38021 0.0
N551 N 0.44741 0.45378 0.45304 0.0
C552 C 0.38823 0.35899 0.39209 0.0
C553 C 0.43043 0.42635 0.42924 0.0
N554 N 0.32498 0.40708 0.38327 0.0
N555 N 0.50088 0.38835 0.42181 0.0
H556 H 0.42922 0.48001 0.46309 0.0
H557 H 0.47728 0.44752 0.46532 0.0
H558 H 0.52061 0.36257 0.41279 0.0
H559 H 0.51913 0.41462 0.43188 0.0
H560 H 0.31119 0.38559 0.36583 0.0
H561 H 0.3062 0.43569 0.38661 0.0
H562 H 0.33169 0.32091 0.37774 0.0
H563 H 0.38231 0.29225 0.37607 0.0
C564 C 0.11886 0.36779 0.38608 0.0
C565 C 0.08027 0.38429 0.40211 0.0
C566 C 0.11891 0.45431 0.41476 0.0
C567 C 0.15633 0.43925 0.39658 0.0
N568 N 0.19667 0.37976 0.37101 0.0
N569 N 0.04685 0.43662 0.43922 0.0
C570 C 0.15791 0.39502 0.38448 0.0
C571 C 0.08167 0.4254 0.41917 0.0
N572 N 0.11705 0.32716 0.37095 0.0
N573 N 0.11842 0.49704 0.4264 0.0
H574 H 0.01955 0.41542 0.4427 0.0
H575 H 0.04656 0.46453 0.45445 0.0
H576 H 0.14576 0.51841 0.42426 0.0
H577 H 0.0907 0.51203 0.43702 0.0
H578 H 0.142 0.31458 0.35579 0.0
H579 H 0.08952 0.30608 0.3733 0.0
H580 H 0.20181 0.34693 0.36372 0.0
H581 H 0.22498 0.39987 0.36894 0.0
C582 C 0.15887 0.1486 0.3944 0.0
C583 C 0.15055 0.10994 0.41381 0.0
C584 C 0.07317 0.13407 0.42159 0.0
C585 C 0.07981 0.16782 0.39752 0.0
N586 N 0.12805 0.20817 0.36078 0.0
N587 N 0.10686 0.08074 0.45913 0.0
C588 C 0.12263 0.17576 0.3842 0.0
C589 C 0.10968 0.10675 0.43146 0.0
N590 N 0.20186 0.16069 0.38769 0.0
N591 N 0.03152 0.12759 0.43428 0.0
H592 H 0.13473 0.06641 0.47016 0.0
H593 H 0.07866 0.07871 0.47402 0.0
H594 H 1.005 0.14852 0.42844 0.0
H595 H 0.02264 0.10038 0.4489 0.0
H596 H 0.2107 0.19016 0.37569 0.0
H597 H 0.22888 0.14382 0.39804 0.0
H598 H 0.15734 0.21273 0.34739 0.0
H599 H 0.10194 0.22867 0.35314 0.0
C600 C 0.87877 0.90035 0.1205 0.0
C601 C 0.88213 0.93817 0.09973 0.0
C602 C 0.95226 0.91026 0.07672 0.0
C603 C 0.95269 0.87696 0.1016 0.0
N604 N 0.91487 0.83449 0.14348 0.0
N605 N 0.91741 0.97779 0.0554 0.0
C606 C 0.9149 0.8697 0.12196 0.0
C607 C 0.91709 0.94209 0.07642 0.0
N608 N 0.84142 0.89513 0.1394 0.0
N609 N 0.98613 0.91179 0.05417 0.0
H610 H 0.89091 1.00016 0.05419 0.0
H611 H 0.94352 0.98577 0.03956 0.0
H612 H 1.01196 0.88854 0.05412 0.0
H613 H 0.98748 0.93387 0.03434 0.0
H614 H 0.8353 0.86801 0.1548 0.0
H615 H 0.81502 0.91769 0.13835 0.0
H616 H 0.89003 0.8281 0.16076 0.0
H617 H 0.94042 0.81096 0.14377 0.0
C618 C 0.64333 0.88015 0.12263 0.0
C619 C 0.60632 0.8709 0.10194 0.0
C620 C 0.62528 0.93616 0.06759 0.0
C621 C 0.66023 0.94748 0.08985 0.0
N622 N 0.71103 0.92299 0.13234 0.0
N623 N 0.56941 0.88223 0.04994 0.0
C624 C 0.67224 0.9169 0.11525 0.0
C625 C 0.59991 0.89628 0.07269 0.0
N626 N 0.64961 0.85442 0.15012 0.0
N627 N 0.61562 0.96453 0.04208 0.0
H628 H 0.55081 0.85319 0.05304 0.0
H629 H 0.56501 0.89691 0.02686 0.0
H630 H 0.63576 0.99187 0.03621 0.0
H631 H 0.58732 0.96194 0.02733 0.0
H632 H 0.67233 0.86193 0.16874 0.0
H633 H 0.63039 0.82603 0.15482 0.0
H634 H 0.72351 0.9002 0.14941 0.0
H635 H 0.73321 0.94881 0.12719 0.0
C636 C 0.59 0.60396 0.06576 0.0
C637 C 0.58761 0.63815 0.08994 0.0
C638 C 0.65961 0.61435 0.11277 0.0
C639 C 0.65994 0.57776 0.09061 0.0
N640 N 0.63146 0.54223 0.04186 0.0
N641 N 0.62575 0.68433 0.12962 0.0
C642 C 0.62712 0.57429 0.06554 0.0
C643 C 0.62439 0.64622 0.11119 0.0
N644 N 0.55601 0.59972 0.04346 0.0
N645 N 0.69258 0.61765 0.13594 0.0
H646 H 0.60124 0.70876 0.12829 0.0
H647 H 0.65293 0.69405 0.14386 0.0
H648 H 0.71991 0.59626 0.13636 0.0
H649 H 0.69225 0.64015 0.15546 0.0
H650 H 0.55235 0.57325 0.02713 0.0
H651 H 0.53078 0.62346 0.0414 0.0
H652 H 0.61052 0.53871 0.02157 0.0
H653 H 0.65806 0.52008 0.04155 0.0
C654 C 0.89877 0.6776 0.10918 0.0
C655 C 0.94231 0.66088 0.10384 0.0
C656 C 0.91107 0.59903 0.07173 0.0
C657 C 0.86766 0.6111 0.08206 0.0
N658 N 0.81991 0.67259 0.09591 0.0
N659 N 0.98995 0.60265 0.08323 0.0
C660 C 0.86131 0.65375 0.09653 0.0
C661 C 0.9485 0.62081 0.08592 0.0
N662 N 0.89336 0.71493 0.128 0.0
N663 N 0.91652 0.57007 0.0461 0.0
H664 H 0.01832 0.61759 0.09312 0.0
H665 H 0.99547 0.57095 0.07355 0.0
H666 H 0.88972 0.55889 0.03191 0.0
H667 H 0.94749 0.56264 0.03589 0.0
H668 H 0.86252 0.72679 0.13574 0.0
H669 H 0.92027 0.73207 0.13827 0.0
H670 H 0.81318 0.70485 0.10387 0.0
H671 H 0.79328 0.6578 0.08342 0.0
C672 C 0.56355 0.92012 0.63356 0.0
C673 C 0.55626 0.8918 0.60599 0.0
C674 C 0.61669 0.9321 0.57748 0.0
C675 C 0.62946 0.95291 0.60782 0.0
N676 N 0.62109 0.95211 0.66725 0.0
N677 N 0.58191 0.8673 0.55238 0.0
C678 C 0.60462 0.94271 0.63662 0.0
C679 C 0.58441 0.89675 0.57796 0.0
N680 N 0.53097 0.9266 0.65658 0.0
N681 N 0.63333 0.94703 0.54812 0.0
H682 H 0.55967 0.84059 0.55196 0.0
H683 H 0.6048 0.86724 0.53301 0.0
H684 H 0.65439 0.97448 0.54628 0.0
H685 H 0.62196 0.93536 0.52538 0.0
H686 H 0.53464 0.94915 0.676 0.0
H687 H 0.49866 0.91422 0.65366 0.0
H688 H 0.60462 0.94252 0.68885 0.0
H689 H 0.65354 0.96352 0.67101 0.0
C690 C 0.62912 0.63509 0.57703 0.0
C691 C 0.63552 0.60682 0.60498 0.0
C692 C 0.58051 0.65145 0.6356 0.0
C693 C 0.5693 0.67431 0.60638 0.0
N694 N 0.57956 0.68633 0.54832 0.0
N695 N 0.60948 0.58419 0.65964 0.0
C696 C 0.59282 0.66583 0.57679 0.0
C697 C 0.60953 0.61422 0.63414 0.0
N698 N 0.65863 0.63401 0.55134 0.0
N699 N 0.56264 0.66519 0.66488 0.0
H700 H 0.62782 0.55495 0.65997 0.0
H701 H 0.58721 0.58575 0.67934 0.0
H702 H 0.54068 0.69205 0.66637 0.0
H703 H 0.57302 0.65303 0.68776 0.0
H704 H 0.65775 0.6565 0.5317 0.0
H705 H 0.6868 0.61374 0.5513 0.0
H706 H 0.59193 0.67799 0.5251 0.0
H707 H 0.55396 0.70984 0.54789 0.0
C708 C 0.85407 0.61098 0.57688 0.0
C709 C 0.84824 0.58012 0.60355 0.0
C710 C 0.91909 0.60473 0.62691 0.0
C711 C 0.92222 0.63963 0.6033 0.0
N712 N 0.88836 0.68013 0.55829 0.0
N713 N 0.86861 0.55975 0.65911 0.0
C714 C 0.88855 0.64397 0.57885 0.0
C715 C 0.87876 0.5809 0.63016 0.0
N716 N 0.82828 0.60826 0.5492 0.0
N717 N 0.95522 0.59296 0.64554 0.0
H718 H 0.83771 0.54465 0.66319 0.0
H719 H 0.88857 0.56219 0.68014 0.0
H720 H 0.98668 0.60713 0.64211 0.0
H721 H 0.9551 0.56536 0.66128 0.0
H722 H 0.83508 0.62622 0.52771 0.0
H723 H 0.80205 0.586 0.54654 0.0
H724 H 0.86176 0.68772 0.54271 0.0
H725 H 0.91323 0.70441 0.55857 0.0
C726 C 0.8802 0.90275 0.57591 0.0
C727 C 0.85152 0.91136 0.60324 0.0
C728 C 0.89196 0.85464 0.63561 0.0
C729 C 0.9233 0.85002 0.60992 0.0
N730 N 0.95134 0.87313 0.55711 0.0
N731 N 0.83794 0.90181 0.66204 0.0
C732 C 0.91856 0.87508 0.58042 0.0
C733 C 0.85939 0.88887 0.63387 0.0
N734 N 0.86985 0.91918 0.54535 0.0
N735 N 0.89314 0.82572 0.66172 0.0
H736 H 0.81534 0.92793 0.66298 0.0
H737 H 0.84624 0.88982 0.68542 0.0
H738 H 0.91669 0.80028 0.66357 0.0
H739 H 0.86826 0.82411 0.67965 0.0
H740 H 0.88709 0.91055 0.52399 0.0
H741 H 0.84152 0.93825 0.54072 0.0
H742 H 0.95258 0.89407 0.53656 0.0
H743 H 0.97912 0.85252 0.55971 0.0
C744 C 0.16942 0.10421 0.84726 0.0
C745 C 0.18247 0.08663 0.87811 0.0
C746 C 0.14037 0.14567 0.90628 0.0
C747 C 0.123 0.16 0.87532 0.0
N748 N 0.11442 0.14591 0.81675 0.0
N749 N 0.17694 0.08652 0.93727 0.0
C750 C 0.13598 0.13757 0.84585 0.0
C751 C 0.16714 0.10636 0.90777 0.0
N752 N 0.18939 0.08887 0.8192 0.0
N753 N 0.13266 0.17036 0.93402 0.0
H754 H 0.19696 0.05821 0.93897 0.0
H755 H 0.16286 0.09619 0.95964 0.0
H756 H 0.11382 0.19954 0.93382 0.0
H757 H 0.14802 0.16407 0.95663 0.0
H758 H 0.18475 0.10336 0.79604 0.0
H759 H 0.21406 0.0644 0.81975 0.0
H760 H 0.11938 0.12726 0.79539 0.0
H761 H 0.088 0.16806 0.81471 0.0
C762 C 0.36985 0.11656 0.91616 0.0
C763 C 0.38768 0.07301 0.91504 0.0
C764 C 0.46277 0.10479 0.90918 0.0
C765 C 0.44378 0.14725 0.90291 0.0
N766 N 0.37893 0.194 0.89976 0.0
N767 N 0.4514 0.02487 0.91485 0.0
C768 C 0.39724 0.15353 0.90692 0.0
C769 C 0.43447 0.06707 0.9136 0.0
N770 N 0.32689 0.12225 0.92617 0.0
N771 N 0.50797 0.1008 0.91059 0.0
H772 H 0.43139 0.99734 0.92024 0.0
H773 H 0.48448 0.01693 0.90993 0.0
H774 H 0.52894 0.12787 0.90641 0.0
H775 H 0.52452 0.07202 0.91803 0.0
H776 H 0.31221 0.15337 0.92941 0.0
H777 H 0.30807 0.09553 0.93514 0.0
H778 H 0.34473 0.1997 0.89901 0.0
H779 H 0.39814 0.2211 0.8921 0.0
C780 C 0.42385 0.40697 0.954 0.0
C781 C 0.43343 0.37198 0.93151 0.0
C782 C 0.37631 0.40109 0.89368 0.0
C783 C 0.37402 0.44055 0.91274 0.0
N784 N 0.39322 0.48094 0.96196 0.0
N785 N 0.4008 0.32416 0.89039 0.0
C786 C 0.39654 0.44313 0.94348 0.0
C787 C 0.40422 0.36547 0.90428 0.0
N788 N 0.43758 0.40379 0.98609 0.0
N789 N 0.3525 0.39837 0.86499 0.0
H790 H 0.41687 0.29654 0.90052 0.0
H791 H 0.37813 0.31597 0.87189 0.0
H792 H 0.32967 0.42279 0.8579 0.0
H793 H 0.35664 0.37309 0.84769 0.0
H794 H 0.42931 0.42688 0.00423 0.0
H795 H 0.45129 0.37462 0.99572 0.0
H796 H 0.41334 0.48768 0.98233 0.0
H797 H 0.37159 0.50669 0.95579 0.0
C798 C 0.13111 0.4573 0.86469 0.0
C799 C 0.16962 0.44714 0.88348 0.0
C800 C 0.1484 0.36751 0.88155 0.0
C801 C 0.10816 0.37836 0.86456 0.0
N802 N 0.08484 0.42867 0.82136 0.0
N803 N 0.21169 0.39296 0.9141 0.0
C804 C 0.10516 0.42214 0.85109 0.0
C805 C 0.17711 0.40228 0.89326 0.0
N806 N 0.11938 0.50052 0.85909 0.0
N807 N 0.16317 0.32454 0.88137 0.0
H808 H 0.23291 0.41777 0.92312 0.0
H809 H 0.21646 0.3618 0.92496 0.0
H810 H 0.14855 0.30053 0.86628 0.0
H811 H 0.19368 0.31454 0.89111 0.0
H812 H 0.08976 0.50925 0.84724 0.0
H813 H 0.1364 0.52707 0.86976 0.0
H814 H 0.08434 0.4595 0.80937 0.0
H815 H 0.07681 0.40192 0.80602 0.0
C816 C 0.66067 0.19844 0.24884 0.0
C817 C 0.66506 0.18008 0.28087 0.0
C818 C 0.71005 0.11911 0.2583 0.0
C819 C 0.69923 0.13363 0.22589 0.0
N820 N 0.65719 0.18316 0.19037 0.0
N821 N 0.68977 0.11992 0.31622 0.0
C822 C 0.67288 0.17247 0.22112 0.0
C823 C 0.68903 0.13977 0.28578 0.0
N824 N 0.64438 0.24065 0.24501 0.0
N825 N 0.74096 0.08628 0.26287 0.0
H826 H 0.67521 0.13404 0.33709 0.0
H827 H 0.70215 0.08795 0.32029 0.0
H828 H 0.75717 0.07062 0.24329 0.0
H829 H 0.7534 0.07748 0.28601 0.0
H830 H 0.64416 0.25742 0.22243 0.0
H831 H 0.63539 0.26048 0.2651 0.0
H832 H 0.63423 0.20855 0.18616 0.0
H833 H 0.66334 0.16388 0.16948 0.0
C834 C 0.36834 0.61293 0.26293 0.0
C835 C 0.38747 0.61726 0.29485 0.0
C836 C 0.44557 0.66653 0.27174 0.0
C837 C 0.42843 0.65933 0.23946 0.0
N838 N 0.37947 0.61726 0.20379 0.0
N839 N 0.4493 0.64097 0.32865 0.0
C840 C 0.39157 0.63 0.23492 0.0
C841 C 0.42764 0.64193 0.29894 0.0
N842 N 0.32699 0.59427 0.25941 0.0
N843 N 0.47769 0.69822 0.27671 0.0
H844 H 0.43743 0.62305 0.34897 0.0
H845 H 0.48095 0.65444 0.33226 0.0
H846 H 0.49139 0.7171 0.25755 0.0
H847 H 0.48802 0.70848 0.30006 0.0
H848 H 0.30923 0.59484 0.2373 0.0
H849 H 0.30855 0.5818 0.27924 0.0
H850 H 0.35605 0.59237 0.19909 0.0
H851 H 0.39598 0.62833 0.18267 0.0
C852 C 0.86392 0.36954 0.21504 0.0
C853 C 0.88566 0.40693 0.20065 0.0
C854 C 0.94121 0.40478 0.24493 0.0
C855 C 0.92246 0.3641 0.25663 0.0
N856 N 0.8744 0.30113 0.24548 0.0
N857 N 0.95257 0.45196 0.19714 0.0
C858 C 0.88661 0.34424 0.23918 0.0
C859 C 0.9267 0.42216 0.21409 0.0
N860 N 0.82085 0.35934 0.20701 0.0
N861 N 0.97087 0.42825 0.26375 0.0
H862 H 0.94425 0.46391 0.17373 0.0
H863 H 0.98455 0.46087 0.20483 0.0
H864 H 0.98092 0.41818 0.28724 0.0
H865 H 0.98192 0.4601 0.25731 0.0
H866 H 0.80279 0.33439 0.21907 0.0
H867 H 0.80162 0.37906 0.19127 0.0
H868 H 0.85047 0.28434 0.23151 0.0
H869 H 0.89171 0.28089 0.2621 0.0
C870 C 0.18019 0.86823 0.279 0.0
C871 C 0.16235 0.90971 0.28933 0.0
C872 C 0.11167 0.90728 0.2415 0.0
C873 C 0.12224 0.86149 0.23684 0.0
N874 N 0.16502 0.79718 0.25369 0.0
N875 N 0.13756 0.97761 0.26355 0.0
C876 C 0.15583 0.84156 0.25654 0.0
C877 C 0.1349 0.93227 0.26605 0.0
N878 N 0.22382 0.85849 0.28496 0.0
N879 N 0.08006 0.9273 0.22225 0.0
H880 H 0.16112 0.99587 0.27689 0.0
H881 H 0.12175 0.99605 0.24514 0.0
H882 H 0.0642 0.91132 0.20265 0.0
H883 H 0.06751 0.95895 0.22724 0.0
H884 H 0.23945 0.83029 0.2754 0.0
H885 H 0.2456 0.88223 0.2948 0.0
H886 H 0.18731 0.78098 0.26943 0.0
H887 H 0.14738 0.77615 0.23782 0.0
C888 C 0.31179 0.78536 0.78218 0.0
C889 C 0.28867 0.82662 0.78326 0.0
C890 C 0.29108 0.83216 0.7231 0.0
C891 C 0.31656 0.79218 0.72194 0.0
N892 N 0.33503 0.72275 0.74833 0.0
N893 N 0.23979 0.87723 0.75497 0.0
C894 C 0.32086 0.76581 0.7509 0.0
C895 C 0.2721 0.84533 0.75361 0.0
N896 N 0.3282 0.76663 0.81043 0.0
N897 N 0.28852 0.86006 0.69641 0.0
H898 H 0.22578 0.88729 0.77736 0.0
H899 H 0.22395 0.88973 0.73398 0.0
H900 H 0.30335 0.85367 0.67373 0.0
H901 H 0.27461 0.89182 0.69768 0.0
H902 H 0.3496 0.73932 0.81044 0.0
H903 H 0.32268 0.77986 0.83382 0.0
H904 H 0.33577 0.70069 0.76826 0.0
H905 H 0.34159 0.70813 0.72545 0.0
C906 C 0.56345 0.35493 0.73062 0.0
C907 C 0.56736 0.37765 0.76114 0.0
C908 C 0.60253 0.44149 0.73335 0.0
C909 C 0.60365 0.41645 0.70367 0.0
N910 N 0.58591 0.34983 0.67308 0.0
N911 N 0.59079 0.44165 0.79269 0.0
C912 C 0.5839 0.37341 0.70194 0.0
C913 C 0.58644 0.42098 0.76275 0.0
N914 N 0.53996 0.31582 0.72921 0.0
N915 N 0.61672 0.4849 0.73329 0.0
H916 H 0.57746 0.42863 0.8145 0.0
H917 H 0.60933 0.47058 0.79643 0.0
H918 H 0.63023 0.50046 0.7125 0.0
H919 H 0.61243 0.5066 0.75305 0.0
H920 H 0.53218 0.29932 0.70737 0.0
H921 H 0.52514 0.30134 0.74996 0.0
H922 H 0.57688 0.31644 0.67093 0.0
H923 H 0.59875 0.36312 0.65121 0.0
C924 C 0.1909 0.71692 0.73551 0.0
C925 C 0.18643 0.69306 0.70564 0.0
C926 C 0.22756 0.63079 0.73027 0.0
C927 C 0.2221 0.65026 0.76192 0.0
N928 N 0.19287 0.71107 0.7949 0.0
N929 N 0.19888 0.62543 0.67456 0.0
C930 C 0.20307 0.6936 0.76467 0.0
C931 C 0.20506 0.64974 0.70272 0.0
N932 N 0.18209 0.76155 0.73605 0.0
N933 N 0.25432 0.59437 0.72656 0.0
H934 H 0.18297 0.63793 0.65363 0.0
H935 H 0.207 0.59176 0.67279 0.0
H936 H 0.27197 0.58037 0.74623 0.0
H937 H 0.26256 0.58114 0.70358 0.0
H938 H 0.18844 0.78159 0.75654 0.0
H939 H 0.17301 0.77906 0.71475 0.0
H940 H 0.17522 0.74069 0.7978 0.0
H941 H 0.19757 0.69405 0.81708 0.0
C942 C 0.9344 0.11537 0.75017 0.0
C943 C 0.91852 0.15628 0.76328 0.0
C944 C 0.85387 0.15223 0.72635 0.0
C945 C 0.87254 0.11453 0.7104 0.0
N946 N 0.93596 0.06604 0.70292 0.0
N947 N 0.86865 0.21899 0.75791 0.0
C948 C 0.91437 0.09765 0.72111 0.0
C949 C 0.87984 0.17632 0.74959 0.0
N950 N 0.96736 0.09241 0.76609 0.0
N951 N 0.81072 0.1642 0.72022 0.0
H952 H 0.88787 0.23848 0.77383 0.0
H953 H 0.84313 0.23656 0.74627 0.0
H954 H 0.78991 0.14629 0.70439 0.0
H955 H 0.79427 0.18889 0.73354 0.0
H956 H 0.97686 0.06025 0.75942 0.0
H957 H 0.98224 0.10355 0.78784 0.0
H958 H 0.96852 0.056 0.70787 0.0
H959 H 0.92317 0.05302 0.68101 0.0
C960 C 0.62552 0.07442 0.48563 0.0
C961 C 0.64327 0.08943 0.45534 0.0
C962 C 0.7187 0.0702 0.47451 0.0
C963 C 0.70148 0.06189 0.50659 0.0
N964 N 0.63821 0.06183 0.54369 0.0
N965 N 0.70714 0.10722 0.42177 0.0
C966 C 0.65472 0.06527 0.51237 0.0
C967 C 0.68999 0.08823 0.44974 0.0
N968 N 0.58056 0.06844 0.48862 0.0
N969 N 0.76261 0.06218 0.468 0.0
H970 H 0.68727 0.12234 0.40385 0.0
H971 H 0.74112 0.11163 0.41768 0.0
H972 H 0.7846 0.05002 0.4858 0.0
H973 H 0.77631 0.06386 0.44439 0.0
H974 H 0.56571 0.05335 0.50907 0.0
H975 H 0.55855 0.0746 0.46916 0.0
H976 H 0.60542 0.06947 0.54991 0.0
H977 H 0.65802 0.05386 0.56387 0.0
C978 C 0.40567 0.70256 0.4859 0.0
C979 C 0.37324 0.67088 0.49564 0.0
C980 C 0.34433 0.72242 0.53698 0.0
C981 C 0.37984 0.75245 0.52991 0.0
N982 N 0.44672 0.77006 0.49943 0.0
N983 N 0.31837 0.64611 0.53491 0.0
C984 C 0.41133 0.74219 0.50485 0.0
C985 C 0.34452 0.6795 0.52249 0.0
N986 N 0.43066 0.69463 0.45836 0.0
N987 N 0.30975 0.7349 0.55686 0.0
H988 H 0.31651 0.61451 0.52431 0.0
H989 H 0.30108 0.64873 0.55714 0.0
H990 H 0.30673 0.76646 0.56711 0.0
H991 H 0.28126 0.71552 0.56017 0.0
H992 H 0.45209 0.71804 0.44784 0.0
H993 H 0.42765 0.66522 0.44478 0.0
H994 H 0.47341 0.76214 0.48413 0.0
H995 H 0.4505 0.80048 0.5116 0.0
C996 C 0.80109 0.40516 0.45277 0.0
C997 C 0.84645 0.41538 0.45873 0.0
C998 C 0.82527 0.46567 0.5035 0.0
C999 C 0.78036 0.45142 0.50032 0.0
N1000 N 0.72472 0.4076 0.47244 0.0
N1001 N 0.9031 0.45309 0.48977 0.0
C1002 C 0.76799 0.42144 0.4748 0.0
C1003 C 0.85887 0.44538 0.48397 0.0
N1004 N 0.78992 0.38051 0.42564 0.0
N1005 N 0.83548 0.4986 0.52537 0.0
H1006 H 0.9282 0.4385 0.47563 0.0
H1007 H 0.91521 0.47134 0.50969 0.0
H1008 H 0.81092 0.51372 0.5394 0.0
H1009 H 0.86674 0.5134 0.52762 0.0
H1010 H 0.75729 0.37519 0.41782 0.0
H1011 H 0.81377 0.3675 0.40961 0.0
H1012 H 0.71399 0.38173 0.45726 0.0
H1013 H 0.69953 0.42161 0.48672 0.0
C1014 C 0.09928 0.86624 0.52279 0.0
C1015 C 0.10387 0.86196 0.48825 0.0
C1016 C 0.08909 0.78181 0.49197 0.0
C1017 C 0.08977 0.78513 0.52694 0.0
N1018 N 0.10042 0.82992 0.57609 0.0
N1019 N 0.10563 0.81723 0.43927 0.0
C1020 C 0.09547 0.8273 0.54257 0.0
C1021 C 0.0992 0.82013 0.4726 0.0
N1022 N 0.09905 0.9078 0.53658 0.0
N1023 N 0.07772 0.74225 0.47742 0.0
H1024 H 0.11147 0.84525 0.42453 0.0
H1025 H 0.10762 0.7872 0.4265 0.0
H1026 H 0.06955 0.71376 0.49101 0.0
H1027 H 0.07276 0.73848 0.45213 0.0
H1028 H 0.09071 0.91389 0.56112 0.0
H1029 H 0.10397 0.93679 0.52275 0.0
H1030 H 0.11 0.85882 0.58843 0.0
H1031 H 0.09838 0.8025 0.59173 0.0
C1032 C 0.26301 0.88105 0.00932 0.0
C1033 C 0.24725 0.89388 0.97747 0.0
C1034 C 0.1707 0.89676 -0.00119 0.0
C1035 C 0.18619 0.88134 0.02973 0.0
N1036 N 0.24484 0.85416 0.06447 0.0
N1037 N 0.18502 0.9052 0.94046 0.0
C1038 C 0.23178 0.87212 0.03496 0.0
C1039 C 0.20079 0.89982 0.97187 0.0
N1040 N 0.30779 0.87889 0.01543 0.0
N1041 N 0.12686 0.90809 0.99523 0.0
H1042 H 0.20562 0.90568 0.91992 0.0
H1043 H 0.15134 0.90477 0.93428 0.0
H1044 H 0.10331 0.90328 0.01382 0.0
H1045 H 0.11432 0.92483 0.97467 0.0
H1046 H 0.32143 0.87466 0.03887 0.0
H1047 H 0.33187 0.88427 0.99741 0.0
H1048 H 0.27659 0.84157 0.06893 0.0
H1049 H 0.22281 0.84938 0.0841 0.0
C1050 C 0.6385 0.21838 0.02565 0.0
C1051 C 0.64049 0.17133 0.02259 0.0
C1052 C 0.60852 0.17625 0.96719 0.0
C1053 C 0.60289 0.22308 0.97122 0.0
N1054 N 0.60629 0.28791 0.0065 0.0
N1055 N 0.6187 0.10465 0.994 0.0
C1056 C 0.61557 0.24388 0.00129 0.0
C1057 C 0.62309 0.15002 0.99432 0.0
N1058 N 0.66063 0.23875 0.05098 0.0
N1059 N 0.60072 0.15674 0.93728 0.0
H1060 H 0.62812 0.08458 0.01387 0.0
H1061 H 0.60183 0.08737 0.97549 0.0
H1062 H 0.58738 0.1738 0.91715 0.0
H1063 H 0.60996 0.12409 0.93185 0.0
H1064 H 0.66435 0.2732 0.05292 0.0
H1065 H 0.67914 0.221 0.06838 0.0
H1066 H 0.61093 0.30368 0.02915 0.0
H1067 H 0.59047 0.308 0.98909 0.0
C1068 C 0.29372 0.60935 0.01269 0.0
C1069 C 0.31542 0.59882 0.98256 0.0
C1070 C 0.38786 0.61485 0.00854 0.0
C1071 C 0.36567 0.63247 0.03635 0.0
N1072 N 0.29744 0.65072 0.06418 0.0
N1073 N 0.38383 0.59367 0.9511 0.0
C1074 C 0.31852 0.63046 0.0384 0.0
C1075 C 0.36275 0.602 0.98037 0.0
N1076 N 0.24964 0.59939 0.01677 0.0
N1077 N 0.43294 0.60883 0.00962 0.0
H1078 H 0.36757 0.58035 0.93059 0.0
H1079 H 0.41718 0.60144 0.94679 0.0
H1080 H 0.45193 0.61685 0.03034 0.0
H1081 H 0.45072 0.59187 0.99149 0.0
H1082 H 0.23285 0.60313 0.0391 0.0
H1083 H 0.23097 0.5829 -0.00115 0.0
H1084 H 0.263 0.65454 0.06557 0.0
H1085 H 0.31476 0.66732 0.08284 0.0
C1086 C 0.95696 0.3964 0.9793 0.0
C1087 C 0.93573 0.38166 0.0085 0.0
C1088 C 0.95777 0.30443 0.99671 0.0
C1089 C 0.97779 0.31921 0.96689 0.0
N1090 N 1.00834 0.37949 0.935 0.0
N1091 N 0.92251 0.32438 0.04885 0.0
C1092 C 0.98123 0.36544 0.95998 0.0
C1093 C 0.93831 0.33637 0.01846 0.0
N1094 N 0.95222 0.43975 0.96944 0.0
N1095 N 0.95622 0.25983 0.00349 0.0
H1096 H 0.90771 0.34729 0.0648 0.0
H1097 H 0.9263 0.29275 0.05909 0.0
H1098 H 0.97343 0.23659 0.98924 0.0
H1099 H 0.93772 0.24582 0.02264 0.0
H1100 H 0.96296 0.45181 0.94664 0.0
H1101 H 0.93433 0.46308 0.98312 0.0
H1102 H 0.0153 0.41282 0.92985 0.0
H1103 H 0.02789 0.35711 0.92193 0.0
C1104 C 0.33499 0.96383 0.50973 0.0
C1105 C 0.28804 0.95762 0.5116 0.0
C1106 C 0.2968 0.92689 0.5674 0.0
C1107 C 0.34321 0.93722 0.56659 0.0
N1108 N 0.40368 0.97554 0.54 0.0
N1109 N 0.22328 0.94142 0.54478 0.0
C1110 C 0.36121 0.95925 0.53872 0.0
C1111 C 0.26858 0.94266 0.54155 0.0
N1112 N 0.35508 0.97175 0.48002 0.0
N1113 N 0.28021 0.89836 0.59075 0.0
H1114 H 0.2017 0.95131 0.52595 0.0
H1115 H 0.2074 0.93444 0.56711 0.0
H1116 H 0.29995 0.88232 0.60822 0.0
H1117 H 0.2476 0.88635 0.59035 0.0
H1118 H 0.38954 0.97109 0.47682 0.0
H1119 H 0.33735 0.97668 0.45819 0.0
H1120 H 0.41749 0.99522 0.52134 0.0
H1121 H 0.42325 0.97308 0.56126 0.0
C1122 C 0.58528 0.2944 0.49724 0.0
C1123 C 0.59616 0.29732 0.46319 0.0
C1124 C 0.60853 0.37801 0.4684 0.0
C1125 C 0.60159 0.37436 0.50303 0.0
N1126 N 0.58336 0.33077 0.55093 0.0
N1127 N 0.61803 0.34069 0.41569 0.0
C1128 C 0.58974 0.33294 0.51753 0.0
C1129 C 0.60715 0.33895 0.44849 0.0
N1130 N 0.56968 0.25495 0.50983 0.0
N1131 N 0.61694 0.41887 0.45465 0.0
H1132 H 0.61476 0.31347 0.39995 0.0
H1133 H 0.63187 0.36839 0.40402 0.0
H1134 H 0.62288 0.44742 0.46853 0.0
H1135 H 0.61658 0.42523 0.42938 0.0
H1136 H 0.55756 0.251 0.53373 0.0
H1137 H 0.56606 0.22626 0.49554 0.0
H1138 H 0.57938 0.30121 0.56414 0.0
H1139 H 0.58352 0.35907 0.56587 0.0
C1140 C 0.20393 0.60767 0.51258 0.0
C1141 C 0.20103 0.56604 0.49594 0.0
C1142 C 0.13551 0.54663 0.52984 0.0
C1143 C 0.13982 0.58758 0.54691 0.0
N1144 N 0.18673 0.64927 0.56204 0.0
N1145 N 0.16952 0.49216 0.49325 0.0
C1146 C 0.17675 0.61566 0.54058 0.0
C1147 C 0.16865 0.53413 0.50617 0.0
N1148 N 0.23149 0.6405 0.50102 0.0
N1149 N 0.09898 0.52056 0.53559 0.0
H1150 H 0.19339 0.48235 0.47609 0.0
H1151 H 0.14904 0.46627 0.50135 0.0
H1152 H 0.07498 0.52902 0.55315 0.0
H1153 H 0.09105 0.49244 0.52171 0.0
H1154 H 0.23027 0.67327 0.50952 0.0
H1155 H 0.25398 0.63568 0.48178 0.0
H1156 H 0.21573 0.66828 0.56042 0.0
H1157 H 0.16814 0.65524 0.58332 0.0
C1158 C 0.91013 0.17037 0.45564 0.0
C1159 C 0.91976 0.21405 0.4677 0.0
C1160 C 0.90898 0.18668 0.52456 0.0
C1161 C 0.89481 0.14494 0.51194 0.0
N1162 N 0.87803 0.09731 0.46613 0.0
N1163 N 0.9253 0.26484 0.51367 0.0
C1164 C 0.89438 0.13693 0.47764 0.0
C1165 C 0.91897 0.22243 0.50227 0.0
N1166 N 0.91774 0.16026 0.42321 0.0
N1167 N 0.91274 0.19184 0.55796 0.0
H1168 H 0.93313 0.29161 0.49826 0.0
H1169 H 0.92031 0.27422 0.53812 0.0
H1170 H 0.90393 0.16666 0.57459 0.0
H1171 H 0.92705 0.21965 0.56912 0.0
H1172 H 0.91582 0.12814 0.41362 0.0
H1173 H 0.93093 0.18304 0.40646 0.0
H1174 H 0.87105 0.09122 0.44134 0.0
H1175 H 0.86849 0.07128 0.48176 0.0
C1176 C 0.82027 0.09996 0.98106 0.0
C1177 C 0.83404 0.09458 0.01442 0.0
C1178 C 0.91098 0.11484 -0.00128 0.0
C1179 C 0.89602 0.12515 0.96649 0.0
N1180 N 0.83771 0.12886 0.92614 0.0
N1181 N 0.8929 0.09403 0.05509 0.0
C1182 C 0.85099 0.11776 0.95737 0.0
C1183 C 0.87972 0.10082 0.02312 0.0
N1184 N 0.7781 0.08772 0.97208 0.0
N1185 N 0.95547 0.11814 0.00568 0.0
H1186 H 0.8722 0.07951 0.07275 0.0
H1187 H 0.92384 0.1032 0.0645 0.0
H1188 H 0.97862 0.13044 0.98871 0.0
H1189 H 0.97012 0.10686 0.02743 0.0
H1190 H 0.76643 0.08798 0.94789 0.0
H1191 H 0.75566 0.07337 0.98862 0.0
H1192 H 0.80475 0.12853 0.91819 0.0
H1193 H 0.85994 0.14097 0.9084 0.0
C1194 C 0.44842 0.89041 0.99515 0.0
C1195 C 0.43194 0.86859 0.9667 0.0
C1196 C 0.44836 0.79622 0.99244 0.0
C1197 C 0.45677 0.81769 0.02303 0.0
N1198 N 0.46443 0.88638 0.05375 0.0
N1199 N 0.40701 0.80017 0.9413 0.0
C1200 C 0.45676 0.86522 0.02442 0.0
C1201 C 0.42971 0.82129 0.966 0.0
N1202 N 0.45717 0.93508 0.9938 0.0
N1203 N 0.45816 0.75217 0.98832 0.0
H1204 H 0.38994 0.81726 0.92279 0.0
H1205 H 0.40068 0.76597 0.94144 0.0
H1206 H 0.47453 0.73334 0.00618 0.0
H1207 H 0.45541 0.73605 0.96562 0.0
H1208 H 0.47331 0.95246 0.0126 0.0
H1209 H 0.452 0.95391 0.97244 0.0
H1210 H 0.45919 0.92037 0.05725 0.0
H1211 H 0.47489 0.86966 0.075 0.0
C1212 C 0.73488 0.4442 0.9639 0.0
C1213 C 0.72472 0.4448 0.99819 0.0
C1214 C 0.64744 0.42245 0.98604 0.0
C1215 C 0.65902 0.41688 0.95253 0.0
N1216 N 0.71224 0.42116 0.90857 0.0
N1217 N 0.67164 0.4327 0.0424 0.0
C1218 C 0.70227 0.42794 0.94109 0.0
C1219 C 0.68094 0.43376 0.00933 0.0
N1220 N 0.77586 0.45827 0.95336 0.0
N1221 N 0.60391 0.41762 0.99539 0.0
H1222 H 0.69336 0.44486 0.06029 0.0
H1223 H 0.64292 0.41851 0.05236 0.0
H1224 H 0.57881 0.40822 0.97897 0.0
H1225 H 0.59186 0.42623 0.01862 0.0
H1226 H 0.78458 0.46202 0.92864 0.0
H1227 H 0.80076 0.46888 0.96953 0.0
H1228 H 0.74399 0.42448 0.89856 0.0
H1229 H 0.68851 0.40994 0.89163 0.0
C1230 C 0.0837 0.67207 0.00986 0.0
C1231 C 0.0898 0.7186 0.01388 0.0
C1232 C 0.12988 0.7224 0.9611 0.0
C1233 C 0.12779 0.6753 0.959 0.0
N1234 N 0.10189 0.60464 0.97943 0.0
N1235 N 0.1053 0.78988 0.98881 0.0
C1236 C 0.10383 0.64998 0.98264 0.0
C1237 C 0.10865 0.74449 0.98799 0.0
N1238 N 0.05729 0.6497 0.03182 0.0
N1239 N 0.154 0.74549 0.93808 0.0
H1240 H 0.08738 0.80646 0.00703 0.0
H1241 H 0.11606 0.81091 0.96994 0.0
H1242 H 0.1692 0.72984 0.91804 0.0
H1243 H 0.16115 0.7794 0.93962 0.0
H1244 H 0.04876 0.61619 0.02989 0.0
H1245 H 0.0406 0.6663 0.05073 0.0
H1246 H 0.08876 0.58314 0.99713 0.0
H1247 H 0.1151 0.58799 0.95907 0.0
loop_
_geom_bond_atom_site_label_1
_geom_bond_atom_site_label_2
_geom_bond_distance
_geom_bond_site_symmetry_2
_ccdc_geom_bond_type
C0 C1 1.351 . S
C0 N3 1.368 . S
C0 H5 0.931 . S
C1 C0 1.351 . S
C1 N2 1.373 . S
C1 H29 0.930 . S
N2 C1 1.373 . S
N2 C4 1.340 . S
N3 C0 1.368 . S
N3 C4 1.321 . S
N3 Co6 2.135 . S
C4 N2 1.340 . S
C4 N3 1.321 . S
C4 H28 0.930 . S
H5 C0 0.931 . S
Co6 N3 2.135 . S
Co6 N9 2.121 . S
Co6 O14 2.055 . S
Co6 O17 2.039 . S
Co6 N20 2.140 . S
C7 O8 1.227 . S
C7 O17 1.265 . S
O8 C7 1.227 . S
N9 Co6 2.121 . S
N9 C11 1.375 . S
N9 C12 1.313 . S
C10 C11 1.338 . S
C10 N13 1.377 . S
C10 H30 0.930 . S
C11 N9 1.375 . S
C11 C10 1.338 . S
C11 H15 0.931 . S
C12 N9 1.313 . S
C12 N13 1.344 . S
C12 H16 0.930 . S
N13 C10 1.377 . S
N13 C12 1.344 . S
O14 Co6 2.055 . S
O14 C18 1.253 . S
H15 C11 0.931 . S
H16 C12 0.930 . S
O17 Co6 2.039 . S
O17 C7 1.265 . S
C18 O14 1.253 . S
C18 O19 1.227 . S
O19 C18 1.227 . S
N20 Co6 2.140 . S
N20 C23 1.346 . S
N20 C24 1.345 . S
C21 C22 1.387 . S
C21 C25 1.391 . S
C22 C21 1.387 . S
C22 C23 1.369 . S
C22 H31 0.929 . S
C23 N20 1.346 . S
C23 C22 1.369 . S
C23 H26 0.928 . S
C24 N20 1.345 . S
C24 C25 1.371 . S
C24 H27 0.931 . S
C25 C21 1.391 . S
C25 C24 1.371 . S
C25 H32 0.930 . S
H26 C23 0.928 . S
H27 C24 0.931 . S
H28 C4 0.930 . S
H29 C1 0.930 . S
H30 C10 0.930 . S
H31 C22 0.929 . S
H32 C25 0.930 . S
C33 C34 1.351 . S
C33 N36 1.368 . S
C33 H38 0.931 . S
C34 C33 1.351 . S
C34 N35 1.373 . S
C34 H62 0.930 . S
N35 C34 1.373 . S
N35 C37 1.340 . S
N36 C33 1.368 . S
N36 C37 1.321 . S
N36 Co39 2.135 . S
C37 N35 1.340 . S
C37 N36 1.321 . S
C37 H61 0.930 . S
H38 C33 0.931 . S
Co39 N36 2.135 . S
Co39 N42 2.121 . S
Co39 O47 2.055 . S
Co39 O50 2.039 . S
Co39 N53 2.140 . S
C40 O41 1.227 . S
C40 O50 1.265 . S
O41 C40 1.227 . S
N42 Co39 2.121 . S
N42 C44 1.375 . S
N42 C45 1.313 . S
C43 C44 1.338 . S
C43 N46 1.377 . S
C43 H63 0.930 . S
C44 N42 1.375 . S
C44 C43 1.338 . S
C44 H48 0.931 . S
C45 N42 1.313 . S
C45 N46 1.344 . S
C45 H49 0.930 . S
N46 C43 1.377 . S
N46 C45 1.344 . S
O47 Co39 2.055 . S
O47 C51 1.253 . S
H48 C44 0.931 . S
H49 C45 0.930 . S
O50 Co39 2.039 . S
O50 C40 1.265 . S
C51 O47 1.253 . S
C51 O52 1.227 . S
O52 C51 1.227 . S
N53 Co39 2.140 . S
N53 C56 1.346 . S
N53 C57 1.345 . S
C54 C55 1.387 . S
C54 C58 1.391 . S
C55 C54 1.387 . S
C55 C56 1.369 . S
C55 H64 0.929 . S
C56 N53 1.346 . S
C56 C55 1.369 . S
C56 H59 0.928 . S
C57 N53 1.345 . S
C57 C58 1.371 . S
C57 H60 0.931 . S
C58 C54 1.391 . S
C58 C57 1.371 . S
C58 H65 0.930 . S
H59 C56 0.928 . S
H60 C57 0.931 . S
H61 C37 0.930 . S
H62 C34 0.930 . S
H63 C43 0.930 . S
H64 C55 0.929 . S
H65 C58 0.930 . S
C66 C67 1.351 1_655 S
C66 N69 1.368 1_655 S
C66 H71 0.931 . S
C67 C66 1.351 1_455 S
C67 N68 1.373 . S
C67 H95 0.930 . S
N68 C67 1.373 . S
N68 C70 1.340 . S
N69 C66 1.368 1_455 S
N69 C70 1.321 . S
N69 Co72 2.135 1_455 S
C70 N68 1.340 . S
C70 N69 1.321 . S
C70 H94 0.930 . S
H71 C66 0.931 . S
Co72 N69 2.135 1_655 S
Co72 N75 2.121 . S
Co72 O80 2.055 . S
Co72 O83 2.039 1_655 S
Co72 N86 2.140 . S
C73 O74 1.227 . S
C73 O83 1.265 . S
O74 C73 1.227 . S
N75 Co72 2.121 . S
N75 C77 1.375 . S
N75 C78 1.313 . S
C76 C77 1.338 . S
C76 N79 1.377 . S
C76 H96 0.930 . S
C77 N75 1.375 . S
C77 C76 1.338 . S
C77 H81 0.931 . S
C78 N75 1.313 . S
C78 N79 1.344 . S
C78 H82 0.930 . S
N79 C76 1.377 . S
N79 C78 1.344 . S
O80 Co72 2.055 . S
O80 C84 1.253 . S
H81 C77 0.931 . S
H82 C78 0.930 . S
O83 Co72 2.039 1_455 S
O83 C73 1.265 . S
C84 O80 1.253 . S
C84 O85 1.227 . S
O85 C84 1.227 . S
N86 Co72 2.140 . S
N86 C89 1.346 . S
N86 C90 1.345 . S
C87 C88 1.387 . S
C87 C91 1.391 . S
C88 C87 1.387 . S
C88 C89 1.369 . S
C88 H97 0.929 . S
C89 N86 1.346 . S
C89 C88 1.369 . S
C89 H92 0.928 . S
C90 N86 1.345 . S
C90 C91 1.371 . S
C90 H93 0.931 . S
C91 C87 1.391 . S
C91 C90 1.371 . S
C91 H98 0.930 . S
H92 C89 0.928 . S
H93 C90 0.931 . S
H94 C70 0.930 . S
H95 C67 0.930 . S
H96 C76 0.930 . S
H97 C88 0.929 . S
H98 C91 0.930 . S
C99 C100 1.351 1_565 S
C99 N102 1.368 1_565 S
C99 H104 0.931 . S
C100 C99 1.351 1_545 S
C100 N101 1.373 . S
C100 H128 0.930 . S
N101 C100 1.373 . S
N101 C103 1.340 . S
N102 C99 1.368 1_545 S
N102 C103 1.321 . S
N102 Co105 2.135 1_545 S
C103 N101 1.340 . S
C103 N102 1.321 . S
C103 H127 0.930 . S
H104 C99 0.931 . S
Co105 N102 2.135 1_565 S
Co105 N108 2.121 . S
Co105 O113 2.055 . S
Co105 O116 2.039 1_565 S
Co105 N119 2.140 . S
C106 O107 1.227 . S
C106 O116 1.265 . S
O107 C106 1.227 . S
N108 Co105 2.121 . S
N108 C110 1.375 . S
N108 C111 1.313 . S
C109 C110 1.338 . S
C109 N112 1.377 . S
C109 H129 0.930 . S
C110 N108 1.375 . S
C110 C109 1.338 . S
C110 H114 0.931 . S
C111 N108 1.313 . S
C111 N112 1.344 . S
C111 H115 0.930 . S
N112 C109 1.377 . S
N112 C111 1.344 . S
O113 Co105 2.055 . S
O113 C117 1.253 . S
H114 C110 0.931 . S
H115 C111 0.930 . S
O116 Co105 2.039 1_545 S
O116 C106 1.265 . S
C117 O113 1.253 . S
C117 O118 1.227 . S
O118 C117 1.227 . S
N119 Co105 2.140 . S
N119 C122 1.346 . S
N119 C123 1.345 . S
C120 C121 1.387 . S
C120 C124 1.391 . S
C121 C120 1.387 . S
C121 C122 1.369 . S
C121 H130 0.929 . S
C122 N119 1.346 . S
C122 C121 1.369 . S
C122 H125 0.928 . S
C123 N119 1.345 . S
C123 C124 1.371 . S
C123 H126 0.931 . S
C124 C120 1.391 . S
C124 C123 1.371 . S
C124 H131 0.930 . S
H125 C122 0.928 . S
H126 C123 0.931 . S
H127 C103 0.930 . S
H128 C100 0.930 . S
H129 C109 0.930 . S
H130 C121 0.929 . S
H131 C124 0.930 . S
C132 C133 1.351 1_455 S
C132 N135 1.368 1_455 S
C132 H137 0.931 . S
C133 C132 1.351 1_655 S
C133 N134 1.373 . S
C133 H161 0.930 . S
N134 C133 1.373 . S
N134 C136 1.340 . S
N135 C132 1.368 1_655 S
N135 C136 1.321 . S
N135 Co138 2.135 1_655 S
C136 N134 1.340 . S
C136 N135 1.321 . S
C136 H160 0.930 . S
H137 C132 0.931 . S
Co138 N135 2.135 1_455 S
Co138 N141 2.121 . S
Co138 O146 2.055 . S
Co138 O149 2.039 1_455 S
Co138 N152 2.140 . S
C139 O140 1.227 . S
C139 O149 1.265 . S
O140 C139 1.227 . S
N141 Co138 2.121 . S
N141 C143 1.375 . S
N141 C144 1.313 . S
C142 C143 1.338 . S
C142 N145 1.377 . S
C142 H162 0.930 . S
C143 N141 1.375 . S
C143 C142 1.338 . S
C143 H147 0.931 . S
C144 N141 1.313 . S
C144 N145 1.344 . S
C144 H148 0.930 . S
N145 C142 1.377 . S
N145 C144 1.344 . S
O146 Co138 2.055 . S
O146 C150 1.253 . S
H147 C143 0.931 . S
H148 C144 0.930 . S
O149 Co138 2.039 1_655 S
O149 C139 1.265 . S
C150 O146 1.253 . S
C150 O151 1.227 . S
O151 C150 1.227 . S
N152 Co138 2.140 . S
N152 C155 1.346 . S
N152 C156 1.345 . S
C153 C154 1.387 . S
C153 C157 1.391 . S
C154 C153 1.387 . S
C154 C155 1.369 . S
C154 H163 0.929 . S
C155 N152 1.346 . S
C155 C154 1.369 . S
C155 H158 0.928 . S
C156 N152 1.345 . S
C156 C157 1.371 . S
C156 H159 0.931 . S
C157 C153 1.391 . S
C157 C156 1.371 . S
C157 H164 0.930 . S
H158 C155 0.928 . S
H159 C156 0.931 . S
H160 C136 0.930 . S
H161 C133 0.930 . S
H162 C142 0.930 . S
H163 C154 0.929 . S
H164 C157 0.930 . S
C165 C166 1.351 1_545 S
C165 N168 1.368 1_545 S
C165 H170 0.931 . S
C166 C165 1.351 1_565 S
C166 N167 1.373 . S
C166 H194 0.930 . S
N167 C166 1.373 . S
N167 C169 1.340 . S
N168 C165 1.368 1_565 S
N168 C169 1.321 . S
N168 Co171 2.135 1_565 S
C169 N167 1.340 . S
C169 N168 1.321 . S
C169 H193 0.930 . S
H170 C165 0.931 . S
Co171 N168 2.135 1_545 S
Co171 N174 2.121 . S
Co171 O179 2.055 . S
Co171 O182 2.039 1_545 S
Co171 N185 2.140 . S
C172 O173 1.227 . S
C172 O182 1.265 . S
O173 C172 1.227 . S
N174 Co171 2.121 . S
N174 C176 1.375 . S
N174 C177 1.313 . S
C175 C176 1.338 . S
C175 N178 1.377 . S
C175 H195 0.930 . S
C176 N174 1.375 . S
C176 C175 1.338 . S
C176 H180 0.931 . S
C177 N174 1.313 . S
C177 N178 1.344 . S
C177 H181 0.930 . S
N178 C175 1.377 . S
N178 C177 1.344 . S
O179 Co171 2.055 . S
O179 C183 1.253 . S
H180 C176 0.931 . S
H181 C177 0.930 . S
O182 Co171 2.039 1_565 S
O182 C172 1.265 . S
C183 O179 1.253 . S
C183 O184 1.227 . S
O184 C183 1.227 . S
N185 Co171 2.140 . S
N185 C188 1.346 . S
N185 C189 1.345 . S
C186 C187 1.387 . S
C186 C190 1.391 . S
C187 C186 1.387 . S
C187 C188 1.369 . S
C187 H196 0.929 . S
C188 N185 1.346 . S
C188 C187 1.369 . S
C188 H191 0.928 . S
C189 N185 1.345 . S
C189 C190 1.371 . S
C189 H192 0.931 . S
C190 C186 1.391 . S
C190 C189 1.371 . S
C190 H197 0.930 . S
H191 C188 0.928 . S
H192 C189 0.931 . S
H193 C169 0.930 . S
H194 C166 0.930 . S
H195 C175 0.930 . S
H196 C187 0.929 . S
H197 C190 0.930 . S
C198 C199 1.351 . S
C198 N201 1.368 . S
C198 H203 0.931 . S
C199 C198 1.351 . S
C199 N200 1.373 . S
C199 H227 0.930 . S
N200 C199 1.373 . S
N200 C202 1.340 . S
N201 C198 1.368 . S
N201 C202 1.321 . S
N201 Co204 2.135 . S
C202 N200 1.340 . S
C202 N201 1.321 . S
C202 H226 0.930 . S
H203 C198 0.931 . S
Co204 N201 2.135 . S
Co204 N207 2.121 . S
Co204 O212 2.055 . S
Co204 O215 2.039 . S
Co204 N218 2.140 . S
C205 O206 1.227 . S
C205 O215 1.265 . S
O206 C205 1.227 . S
N207 Co204 2.121 . S
N207 C209 1.375 . S
N207 C210 1.313 . S
C208 C209 1.338 . S
C208 N211 1.377 . S
C208 H228 0.930 . S
C209 N207 1.375 . S
C209 C208 1.338 . S
C209 H213 0.931 . S
C210 N207 1.313 . S
C210 N211 1.344 . S
C210 H214 0.930 . S
N211 C208 1.377 . S
N211 C210 1.344 . S
O212 Co204 2.055 . S
O212 C216 1.253 . S
H213 C209 0.931 . S
H214 C210 0.930 . S
O215 Co204 2.039 . S
O215 C205 1.265 . S
C216 O212 1.253 . S
C216 O217 1.227 . S
O217 C216 1.227 . S
N218 Co204 2.140 . S
N218 C221 1.346 . S
N218 C222 1.345 . S
C219 C220 1.387 . S
C219 C223 1.391 . S
C220 C219 1.387 . S
C220 C221 1.369 . S
C220 H229 0.929 . S
C221 N218 1.346 . S
C221 C220 1.369 . S
C221 H224 0.928 . S
C222 N218 1.345 . S
C222 C223 1.371 . S
C222 H225 0.931 . S
C223 C219 1.391 . S
C223 C222 1.371 . S
C223 H230 0.930 . S
H224 C221 0.928 . S
H225 C222 0.931 . S
H226 C202 0.930 . S
H227 C199 0.930 . S
H228 C208 0.930 . S
H229 C220 0.929 . S
H230 C223 0.930 . S
C231 C232 1.351 . S
C231 N234 1.368 . S
C231 H236 0.931 . S
C232 C231 1.351 . S
C232 N233 1.373 . S
C232 H260 0.930 . S
N233 C232 1.373 . S
N233 C235 1.340 . S
N234 C231 1.368 . S
N234 C235 1.321 . S
N234 Co237 2.135 . S
C235 N233 1.340 . S
C235 N234 1.321 . S
C235 H259 0.930 . S
H236 C231 0.931 . S
Co237 N234 2.135 . S
Co237 N240 2.121 . S
Co237 O245 2.055 . S
Co237 O248 2.039 . S
Co237 N251 2.140 . S
C238 O239 1.227 . S
C238 O248 1.265 . S
O239 C238 1.227 . S
N240 Co237 2.121 . S
N240 C242 1.375 . S
N240 C243 1.313 . S
C241 C242 1.338 . S
C241 N244 1.377 . S
C241 H261 0.930 . S
C242 N240 1.375 . S
C242 C241 1.338 . S
C242 H246 0.931 . S
C243 N240 1.313 . S
C243 N244 1.344 . S
C243 H247 0.930 . S
N244 C241 1.377 . S
N244 C243 1.344 . S
O245 Co237 2.055 . S
O245 C249 1.253 . S
H246 C242 0.931 . S
H247 C243 0.930 . S
O248 Co237 2.039 . S
O248 C238 1.265 . S
C249 O245 1.253 . S
C249 O250 1.227 . S
O250 C249 1.227 . S
N251 Co237 2.140 . S
N251 C254 1.346 . S
N251 C255 1.345 . S
C252 C253 1.387 . S
C252 C256 1.391 . S
C253 C252 1.387 . S
C253 C254 1.369 . S
C253 H262 0.929 . S
C254 N251 1.346 . S
C254 C253 1.369 . S
C254 H257 0.928 . S
C255 N251 1.345 . S
C255 C256 1.371 . S
C255 H258 0.931 . S
C256 C252 1.391 . S
C256 C255 1.371 . S
C256 H263 0.930 . S
H257 C254 0.928 . S
H258 C255 0.931 . S
H259 C235 0.930 . S
H260 C232 0.930 . S
H261 C241 0.930 . S
H262 C253 0.929 . S
H263 C256 0.930 . S
C264 C265 1.351 . S
C264 N267 1.368 . S
C264 H269 0.931 . S
C265 C264 1.351 . S
C265 N266 1.373 . S
C265 H293 0.930 . S
N266 C265 1.373 . S
N266 C268 1.340 . S
N267 C264 1.368 . S
N267 C268 1.321 . S
N267 Co270 2.135 . S
C268 N266 1.340 . S
C268 N267 1.321 . S
C268 H292 0.930 . S
H269 C264 0.931 . S
Co270 N267 2.135 . S
Co270 N273 2.121 . S
Co270 O278 2.055 . S
Co270 O281 2.039 . S
Co270 N284 2.140 . S
C271 O272 1.227 . S
C271 O281 1.265 . S
O272 C271 1.227 . S
N273 Co270 2.121 . S
N273 C275 1.375 . S
N273 C276 1.313 . S
C274 C275 1.338 . S
C274 N277 1.377 . S
C274 H294 0.930 . S
C275 N273 1.375 . S
C275 C274 1.338 . S
C275 H279 0.931 . S
C276 N273 1.313 . S
C276 N277 1.344 . S
C276 H280 0.930 . S
N277 C274 1.377 . S
N277 C276 1.344 . S
O278 Co270 2.055 . S
O278 C282 1.253 . S
H279 C275 0.931 . S
H280 C276 0.930 . S
O281 Co270 2.039 . S
O281 C271 1.265 . S
C282 O278 1.253 . S
C282 O283 1.227 . S
O283 C282 1.227 . S
N284 Co270 2.140 . S
N284 C287 1.346 . S
N284 C288 1.345 . S
C285 C286 1.387 . S
C285 C289 1.391 . S
C286 C285 1.387 . S
C286 C287 1.369 . S
C286 H295 0.929 . S
C287 N284 1.346 . S
C287 C286 1.369 . S
C287 H290 0.928 . S
C288 N284 1.345 . S
C288 C289 1.371 . S
C288 H291 0.931 . S
C289 C285 1.391 . S
C289 C288 1.371 . S
C289 H296 0.930 . S
H290 C287 0.928 . S
H291 C288 0.931 . S
H292 C268 0.930 . S
H293 C265 0.930 . S
H294 C274 0.930 . S
H295 C286 0.929 . S
H296 C289 0.930 . S
C297 C298 1.351 . S
C297 N300 1.368 . S
C297 H302 0.931 . S
C298 C297 1.351 . S
C298 N299 1.373 . S
C298 H326 0.930 . S
N299 C298 1.373 . S
N299 C301 1.340 . S
N300 C297 1.368 . S
N300 C301 1.321 . S
N300 Co303 2.135 . S
C301 N299 1.340 . S
C301 N300 1.321 . S
C301 H325 0.930 . S
H302 C297 0.931 . S
Co303 N300 2.135 . S
Co303 N306 2.121 . S
Co303 O311 2.055 . S
Co303 O314 2.039 . S
Co303 N317 2.140 . S
C304 O305 1.227 . S
C304 O314 1.265 . S
O305 C304 1.227 . S
N306 Co303 2.121 . S
N306 C308 1.375 . S
N306 C309 1.313 . S
C307 C308 1.338 . S
C307 N310 1.377 . S
C307 H327 0.930 . S
C308 N306 1.375 . S
C308 C307 1.338 . S
C308 H312 0.931 . S
C309 N306 1.313 . S
C309 N310 1.344 . S
C309 H313 0.930 . S
N310 C307 1.377 . S
N310 C309 1.344 . S
O311 Co303 2.055 . S
O311 C315 1.253 . S
H312 C308 0.931 . S
H313 C309 0.930 . S
O314 Co303 2.039 . S
O314 C304 1.265 . S
C315 O311 1.253 . S
C315 O316 1.227 . S
O316 C315 1.227 . S
N317 Co303 2.140 . S
N317 C320 1.346 . S
N317 C321 1.345 . S
C318 C319 1.387 . S
C318 C322 1.391 . S
C319 C318 1.387 . S
C319 C320 1.369 . S
C319 H328 0.929 . S
C320 N317 1.346 . S
C320 C319 1.369 . S
C320 H323 0.928 . S
C321 N317 1.345 . S
C321 C322 1.371 . S
C321 H324 0.931 . S
C322 C318 1.391 . S
C322 C321 1.371 . S
C322 H329 0.930 . S
H323 C320 0.928 . S
H324 C321 0.931 . S
H325 C301 0.930 . S
H326 C298 0.930 . S
H327 C307 0.930 . S
H328 C319 0.929 . S
H329 C322 0.930 . S
C330 C331 1.351 1_455 S
C330 N333 1.368 1_455 S
C330 H335 0.931 . S
C331 C330 1.351 1_655 S
C331 N332 1.373 . S
C331 H359 0.930 . S
N332 C331 1.373 . S
N332 C334 1.340 . S
N333 C330 1.368 1_655 S
N333 C334 1.321 . S
N333 Co336 2.135 1_655 S
C334 N332 1.340 . S
C334 N333 1.321 . S
C334 H358 0.930 . S
H335 C330 0.931 . S
Co336 N333 2.135 1_455 S
Co336 N339 2.121 . S
Co336 O344 2.055 . S
Co336 O347 2.039 1_455 S
Co336 N350 2.140 . S
C337 O338 1.227 . S
C337 O347 1.265 . S
O338 C337 1.227 . S
N339 Co336 2.121 . S
N339 C341 1.375 . S
N339 C342 1.313 . S
C340 C341 1.338 . S
C340 N343 1.377 . S
C340 H360 0.930 . S
C341 N339 1.375 . S
C341 C340 1.338 . S
C341 H345 0.931 . S
C342 N339 1.313 . S
C342 N343 1.344 . S
C342 H346 0.930 . S
N343 C340 1.377 . S
N343 C342 1.344 . S
O344 Co336 2.055 . S
O344 C348 1.253 . S
H345 C341 0.931 . S
H346 C342 0.930 . S
O347 Co336 2.039 1_655 S
O347 C337 1.265 . S
C348 O344 1.253 . S
C348 O349 1.227 . S
O349 C348 1.227 . S
N350 Co336 2.140 . S
N350 C353 1.346 . S
N350 C354 1.345 . S
C351 C352 1.387 . S
C351 C355 1.391 . S
C352 C351 1.387 . S
C352 C353 1.369 . S
C352 H361 0.929 . S
C353 N350 1.346 . S
C353 C352 1.369 . S
C353 H356 0.928 . S
C354 N350 1.345 . S
C354 C355 1.371 . S
C354 H357 0.931 . S
C355 C351 1.391 . S
C355 C354 1.371 . S
C355 H362 0.930 . S
H356 C353 0.928 . S
H357 C354 0.931 . S
H358 C334 0.930 . S
H359 C331 0.930 . S
H360 C340 0.930 . S
H361 C352 0.929 . S
H362 C355 0.930 . S
C363 C364 1.351 1_545 S
C363 N366 1.368 1_545 S
C363 H368 0.931 . S
C364 C363 1.351 1_565 S
C364 N365 1.373 . S
C364 H392 0.930 . S
N365 C364 1.373 . S
N365 C367 1.340 . S
N366 C363 1.368 1_565 S
N366 C367 1.321 . S
N366 Co369 2.135 1_565 S
C367 N365 1.340 . S
C367 N366 1.321 . S
C367 H391 0.930 . S
H368 C363 0.931 . S
Co369 N366 2.135 1_545 S
Co369 N372 2.121 . S
Co369 O377 2.055 . S
Co369 O380 2.039 1_545 S
Co369 N383 2.140 . S
C370 O371 1.227 . S
C370 O380 1.265 . S
O371 C370 1.227 . S
N372 Co369 2.121 . S
N372 C374 1.375 . S
N372 C375 1.313 . S
C373 C374 1.338 . S
C373 N376 1.377 . S
C373 H393 0.930 . S
C374 N372 1.375 . S
C374 C373 1.338 . S
C374 H378 0.931 . S
C375 N372 1.313 . S
C375 N376 1.344 . S
C375 H379 0.930 . S
N376 C373 1.377 . S
N376 C375 1.344 . S
O377 Co369 2.055 . S
O377 C381 1.253 . S
H378 C374 0.931 . S
H379 C375 0.930 . S
O380 Co369 2.039 1_565 S
O380 C370 1.265 . S
C381 O377 1.253 . S
C381 O382 1.227 . S
O382 C381 1.227 . S
N383 Co369 2.140 . S
N383 C386 1.346 . S
N383 C387 1.345 . S
C384 C385 1.387 . S
C384 C388 1.391 . S
C385 C384 1.387 . S
C385 C386 1.369 . S
C385 H394 0.929 . S
C386 N383 1.346 . S
C386 C385 1.369 . S
C386 H389 0.928 . S
C387 N383 1.345 . S
C387 C388 1.371 . S
C387 H390 0.931 . S
C388 C384 1.391 . S
C388 C387 1.371 . S
C388 H395 0.930 . S
H389 C386 0.928 . S
H390 C387 0.931 . S
H391 C367 0.930 . S
H392 C364 0.930 . S
H393 C373 0.930 . S
H394 C385 0.929 . S
H395 C388 0.930 . S
C396 C397 1.351 1_655 S
C396 N399 1.368 1_655 S
C396 H401 0.931 . S
C397 C396 1.351 1_455 S
C397 N398 1.373 . S
C397 H425 0.930 . S
N398 C397 1.373 . S
N398 C400 1.340 . S
N399 C396 1.368 1_455 S
N399 C400 1.321 . S
N399 Co402 2.135 1_455 S
C400 N398 1.340 . S
C400 N399 1.321 . S
C400 H424 0.930 . S
H401 C396 0.931 . S
Co402 N399 2.135 1_655 S
Co402 N405 2.121 . S
Co402 O410 2.055 . S
Co402 O413 2.039 1_655 S
Co402 N416 2.140 . S
C403 O404 1.227 . S
C403 O413 1.265 . S
O404 C403 1.227 . S
N405 Co402 2.121 . S
N405 C407 1.375 . S
N405 C408 1.313 . S
C406 C407 1.338 . S
C406 N409 1.377 . S
C406 H426 0.930 . S
C407 N405 1.375 . S
C407 C406 1.338 . S
C407 H411 0.931 . S
C408 N405 1.313 . S
C408 N409 1.344 . S
C408 H412 0.930 . S
N409 C406 1.377 . S
N409 C408 1.344 . S
O410 Co402 2.055 . S
O410 C414 1.253 . S
H411 C407 0.931 . S
H412 C408 0.930 . S
O413 Co402 2.039 1_455 S
O413 C403 1.265 . S
C414 O410 1.253 . S
C414 O415 1.227 . S
O415 C414 1.227 . S
N416 Co402 2.140 . S
N416 C419 1.346 . S
N416 C420 1.345 . S
C417 C418 1.387 . S
C417 C421 1.391 . S
C418 C417 1.387 . S
C418 C419 1.369 . S
C418 H427 0.929 . S
C419 N416 1.346 . S
C419 C418 1.369 . S
C419 H422 0.928 . S
C420 N416 1.345 . S
C420 C421 1.371 . S
C420 H423 0.931 . S
C421 C417 1.391 . S
C421 C420 1.371 . S
C421 H428 0.930 . S
H422 C419 0.928 . S
H423 C420 0.931 . S
H424 C400 0.930 . S
H425 C397 0.930 . S
H426 C406 0.930 . S
H427 C418 0.929 . S
H428 C421 0.930 . S
C429 C430 1.351 1_565 S
C429 N432 1.368 1_565 S
C429 H434 0.931 . S
C430 C429 1.351 1_545 S
C430 N431 1.373 . S
C430 H458 0.930 . S
N431 C430 1.373 . S
N431 C433 1.340 . S
N432 C429 1.368 1_545 S
N432 C433 1.321 . S
N432 Co435 2.135 1_545 S
C433 N431 1.340 . S
C433 N432 1.321 . S
C433 H457 0.930 . S
H434 C429 0.931 . S
Co435 N432 2.135 1_565 S
Co435 N438 2.121 . S
Co435 O443 2.055 . S
Co435 O446 2.039 1_565 S
Co435 N449 2.140 . S
C436 O437 1.227 . S
C436 O446 1.265 . S
O437 C436 1.227 . S
N438 Co435 2.121 . S
N438 C440 1.375 . S
N438 C441 1.313 . S
C439 C440 1.338 . S
C439 N442 1.377 . S
C439 H459 0.930 . S
C440 N438 1.375 . S
C440 C439 1.338 . S
C440 H444 0.931 . S
C441 N438 1.313 . S
C441 N442 1.344 . S
C441 H445 0.930 . S
N442 C439 1.377 . S
N442 C441 1.344 . S
O443 Co435 2.055 . S
O443 C447 1.253 . S
H444 C440 0.931 . S
H445 C441 0.930 . S
O446 Co435 2.039 1_545 S
O446 C436 1.265 . S
C447 O443 1.253 . S
C447 O448 1.227 . S
O448 C447 1.227 . S
N449 Co435 2.140 . S
N449 C452 1.346 . S
N449 C453 1.345 . S
C450 C451 1.387 . S
C450 C454 1.391 . S
C451 C450 1.387 . S
C451 C452 1.369 . S
C451 H460 0.929 . S
C452 N449 1.346 . S
C452 C451 1.369 . S
C452 H455 0.928 . S
C453 N449 1.345 . S
C453 C454 1.371 . S
C453 H456 0.931 . S
C454 C450 1.391 . S
C454 C453 1.371 . S
C454 H461 0.930 . S
H455 C452 0.928 . S
H456 C453 0.931 . S
H457 C433 0.930 . S
H458 C430 0.930 . S
H459 C439 0.930 . S
H460 C451 0.929 . S
H461 C454 0.930 . S
C462 C463 1.351 . S
C462 N465 1.368 . S
C462 H467 0.931 . S
C463 C462 1.351 . S
C463 N464 1.373 . S
C463 H491 0.930 . S
N464 C463 1.373 . S
N464 C466 1.340 . S
N465 C462 1.368 . S
N465 C466 1.321 . S
N465 Co468 2.135 . S
C466 N464 1.340 . S
C466 N465 1.321 . S
C466 H490 0.930 . S
H467 C462 0.931 . S
Co468 N465 2.135 . S
Co468 N471 2.121 . S
Co468 O476 2.055 . S
Co468 O479 2.039 . S
Co468 N482 2.140 . S
C469 O470 1.227 . S
C469 O479 1.265 . S
O470 C469 1.227 . S
N471 Co468 2.121 . S
N471 C473 1.375 . S
N471 C474 1.313 . S
C472 C473 1.338 . S
C472 N475 1.377 . S
C472 H492 0.930 . S
C473 N471 1.375 . S
C473 C472 1.338 . S
C473 H477 0.931 . S
C474 N471 1.313 . S
C474 N475 1.344 . S
C474 H478 0.930 . S
N475 C472 1.377 . S
N475 C474 1.344 . S
O476 Co468 2.055 . S
O476 C480 1.253 . S
H477 C473 0.931 . S
H478 C474 0.930 . S
O479 Co468 2.039 . S
O479 C469 1.265 . S
C480 O476 1.253 . S
C480 O481 1.227 . S
O481 C480 1.227 . S
N482 Co468 2.140 . S
N482 C485 1.346 . S
N482 C486 1.345 . S
C483 C484 1.387 . S
C483 C487 1.391 . S
C484 C483 1.387 . S
C484 C485 1.369 . S
C484 H493 0.929 . S
C485 N482 1.346 . S
C485 C484 1.369 . S
C485 H488 0.928 . S
C486 N482 1.345 . S
C486 C487 1.371 . S
C486 H489 0.931 . S
C487 C483 1.391 . S
C487 C486 1.371 . S
C487 H494 0.930 . S
H488 C485 0.928 . S
H489 C486 0.931 . S
H490 C466 0.930 . S
H491 C463 0.930 . S
H492 C472 0.930 . S
H493 C484 0.929 . S
H494 C487 0.930 . S
C495 C496 1.351 . S
C495 N498 1.368 . S
C495 H500 0.931 . S
C496 C495 1.351 . S
C496 N497 1.373 . S
C496 H524 0.930 . S
N497 C496 1.373 . S
N497 C499 1.340 . S
N498 C495 1.368 . S
N498 C499 1.321 . S
N498 Co501 2.135 . S
C499 N497 1.340 . S
C499 N498 1.321 . S
C499 H523 0.930 . S
H500 C495 0.931 . S
Co501 N498 2.135 . S
Co501 N504 2.121 . S
Co501 O509 2.055 . S
Co501 O512 2.039 . S
Co501 N515 2.140 . S
C502 O503 1.227 . S
C502 O512 1.265 . S
O503 C502 1.227 . S
N504 Co501 2.121 . S
N504 C506 1.375 . S
N504 C507 1.313 . S
C505 C506 1.338 . S
C505 N508 1.377 . S
C505 H525 0.930 . S
C506 N504 1.375 . S
C506 C505 1.338 . S
C506 H510 0.931 . S
C507 N504 1.313 . S
C507 N508 1.344 . S
C507 H511 0.930 . S
N508 C505 1.377 . S
N508 C507 1.344 . S
O509 Co501 2.055 . S
O509 C513 1.253 . S
H510 C506 0.931 . S
H511 C507 0.930 . S
O512 Co501 2.039 . S
O512 C502 1.265 . S
C513 O509 1.253 . S
C513 O514 1.227 . S
O514 C513 1.227 . S
N515 Co501 2.140 . S
N515 C518 1.346 . S
N515 C519 1.345 . S
C516 C517 1.387 . S
C516 C520 1.391 . S
C517 C516 1.387 . S
C517 C518 1.369 . S
C517 H526 0.929 . S
C518 N515 1.346 . S
C518 C517 1.369 . S
C518 H521 0.928 . S
C519 N515 1.345 . S
C519 C520 1.371 . S
C519 H522 0.931 . S
C520 C516 1.391 . S
C520 C519 1.371 . S
C520 H527 0.930 . S
H521 C518 0.928 . S
H522 C519 0.931 . S
H523 C499 0.930 . S
H524 C496 0.930 . S
H525 C505 0.930 . S
H526 C517 0.929 . S
H527 C520 0.930 . S
C528 C529 1.363 . S
C528 C534 1.379 . S
C528 N536 1.356 . S
C529 C528 1.363 . S
C529 C535 1.363 . S
C530 C531 1.363 . S
C530 C535 1.379 . S
C530 N537 1.356 . S
C531 C530 1.363 . S
C531 C534 1.363 . S
N532 C534 1.356 . S
N532 H544 0.984 . S
N532 H545 0.985 . S
N533 C535 1.356 . S
N533 H538 0.984 . S
N533 H539 0.985 . S
C534 C528 1.379 . S
C534 C531 1.363 . S
C534 N532 1.356 . S
C535 C529 1.363 . S
C535 C530 1.379 . S
C535 N533 1.356 . S
N536 C528 1.356 . S
N536 H542 0.984 . S
N536 H543 0.984 . S
N537 C530 1.356 . S
N537 H540 0.984 . S
N537 H541 0.985 . S
H538 N533 0.984 . S
H539 N533 0.985 . S
H540 N537 0.984 . S
H541 N537 0.985 . S
H542 N536 0.984 . S
H543 N536 0.984 . S
H544 N532 0.984 . S
H545 N532 0.985 . S
C546 C547 1.363 . S
C546 C552 1.379 . S
C546 N554 1.356 . S
C547 C546 1.363 . S
C547 C553 1.363 . S
C548 C549 1.363 . S
C548 C553 1.379 . S
C548 N555 1.356 . S
C549 C548 1.363 . S
C549 C552 1.363 . S
N550 C552 1.356 . S
N550 H562 0.984 . S
N550 H563 0.985 . S
N551 C553 1.356 . S
N551 H556 0.984 . S
N551 H557 0.985 . S
C552 C546 1.379 . S
C552 C549 1.363 . S
C552 N550 1.356 . S
C553 C547 1.363 . S
C553 C548 1.379 . S
C553 N551 1.356 . S
N554 C546 1.356 . S
N554 H560 0.984 . S
N554 H561 0.984 . S
N555 C548 1.356 . S
N555 H558 0.984 . S
N555 H559 0.985 . S
H556 N551 0.984 . S
H557 N551 0.985 . S
H558 N555 0.984 . S
H559 N555 0.985 . S
H560 N554 0.984 . S
H561 N554 0.984 . S
H562 N550 0.984 . S
H563 N550 0.985 . S
C564 C565 1.363 . S
C564 C570 1.379 . S
C564 N572 1.356 . S
C565 C564 1.363 . S
C565 C571 1.363 . S
C566 C567 1.363 . S
C566 C571 1.379 . S
C566 N573 1.356 . S
C567 C566 1.363 . S
C567 C570 1.363 . S
N568 C570 1.356 . S
N568 H580 0.984 . S
N568 H581 0.985 . S
N569 C571 1.356 . S
N569 H574 0.984 . S
N569 H575 0.985 . S
C570 C564 1.379 . S
C570 C567 1.363 . S
C570 N568 1.356 . S
C571 C565 1.363 . S
C571 C566 1.379 . S
C571 N569 1.356 . S
N572 C564 1.356 . S
N572 H578 0.984 . S
N572 H579 0.984 . S
N573 C566 1.356 . S
N573 H576 0.984 . S
N573 H577 0.985 . S
H574 N569 0.984 . S
H575 N569 0.985 . S
H576 N573 0.984 . S
H577 N573 0.985 . S
H578 N572 0.984 . S
H579 N572 0.984 . S
H580 N568 0.984 . S
H581 N568 0.985 . S
C582 C583 1.363 . S
C582 C588 1.379 . S
C582 N590 1.356 . S
C583 C582 1.363 . S
C583 C589 1.363 . S
C584 C585 1.363 . S
C584 C589 1.379 . S
C584 N591 1.356 . S
C585 C584 1.363 . S
C585 C588 1.363 . S
N586 C588 1.356 . S
N586 H598 0.984 . S
N586 H599 0.985 . S
N587 C589 1.356 . S
N587 H592 0.984 . S
N587 H593 0.985 . S
C588 C582 1.379 . S
C588 C585 1.363 . S
C588 N586 1.356 . S
C589 C583 1.363 . S
C589 C584 1.379 . S
C589 N587 1.356 . S
N590 C582 1.356 . S
N590 H596 0.984 . S
N590 H597 0.984 . S
N591 C584 1.356 . S
N591 H594 0.984 . S
N591 H595 0.985 . S
H592 N587 0.984 . S
H593 N587 0.985 . S
H594 N591 0.984 . S
H595 N591 0.985 . S
H596 N590 0.984 . S
H597 N590 0.984 . S
H598 N586 0.984 . S
H599 N586 0.985 . S
C600 C601 1.363 . S
C600 C606 1.379 . S
C600 N608 1.356 . S
C601 C600 1.363 . S
C601 C607 1.363 . S
C602 C603 1.363 . S
C602 C607 1.379 . S
C602 N609 1.356 . S
C603 C602 1.363 . S
C603 C606 1.363 . S
N604 C606 1.356 . S
N604 H616 0.984 . S
N604 H617 0.985 . S
N605 C607 1.356 . S
N605 H610 0.984 . S
N605 H611 0.985 . S
C606 C600 1.379 . S
C606 C603 1.363 . S
C606 N604 1.356 . S
C607 C601 1.363 . S
C607 C602 1.379 . S
C607 N605 1.356 . S
N608 C600 1.356 . S
N608 H614 0.984 . S
N608 H615 0.984 . S
N609 C602 1.356 . S
N609 H612 0.984 . S
N609 H613 0.985 . S
H610 N605 0.984 . S
H611 N605 0.985 . S
H612 N609 0.984 . S
H613 N609 0.985 . S
H614 N608 0.984 . S
H615 N608 0.984 . S
H616 N604 0.984 . S
H617 N604 0.985 . S
C618 C619 1.363 . S
C618 C624 1.379 . S
C618 N626 1.356 . S
C619 C618 1.363 . S
C619 C625 1.363 . S
C620 C621 1.363 . S
C620 C625 1.379 . S
C620 N627 1.356 . S
C621 C620 1.363 . S
C621 C624 1.363 . S
N622 C624 1.356 . S
N622 H634 0.984 . S
N622 H635 0.985 . S
N623 C625 1.356 . S
N623 H628 0.984 . S
N623 H629 0.985 . S
C624 C618 1.379 . S
C624 C621 1.363 . S
C624 N622 1.356 . S
C625 C619 1.363 . S
C625 C620 1.379 . S
C625 N623 1.356 . S
N626 C618 1.356 . S
N626 H632 0.984 . S
N626 H633 0.984 . S
N627 C620 1.356 . S
N627 H630 0.984 . S
N627 H631 0.985 . S
H628 N623 0.984 . S
H629 N623 0.985 . S
H630 N627 0.984 . S
H631 N627 0.985 . S
H632 N626 0.984 . S
H633 N626 0.984 . S
H634 N622 0.984 . S
H635 N622 0.985 . S
C636 C637 1.363 . S
C636 C642 1.379 . S
C636 N644 1.356 . S
C637 C636 1.363 . S
C637 C643 1.363 . S
C638 C639 1.363 . S
C638 C643 1.379 . S
C638 N645 1.356 . S
C639 C638 1.363 . S
C639 C642 1.363 . S
N640 C642 1.356 . S
N640 H652 0.984 . S
N640 H653 0.985 . S
N641 C643 1.356 . S
N641 H646 0.984 . S
N641 H647 0.985 . S
C642 C636 1.379 . S
C642 C639 1.363 . S
C642 N640 1.356 . S
C643 C637 1.363 . S
C643 C638 1.379 . S
C643 N641 1.356 . S
N644 C636 1.356 . S
N644 H650 0.984 . S
N644 H651 0.984 . S
N645 C638 1.356 . S
N645 H648 0.984 . S
N645 H649 0.985 . S
H646 N641 0.984 . S
H647 N641 0.985 . S
H648 N645 0.984 . S
H649 N645 0.985 . S
H650 N644 0.984 . S
H651 N644 0.984 . S
H652 N640 0.984 . S
H653 N640 0.985 . S
C654 C655 1.363 . S
C654 C660 1.379 . S
C654 N662 1.356 . S
C655 C654 1.363 . S
C655 C661 1.363 . S
C656 C657 1.363 . S
C656 C661 1.379 . S
C656 N663 1.356 . S
C657 C656 1.363 . S
C657 C660 1.363 . S
N658 C660 1.356 . S
N658 H670 0.984 . S
N658 H671 0.985 . S
N659 C661 1.356 . S
N659 H664 0.984 . S
N659 H665 0.985 . S
C660 C654 1.379 . S
C660 C657 1.363 . S
C660 N658 1.356 . S
C661 C655 1.363 . S
C661 C656 1.379 . S
C661 N659 1.356 . S
N662 C654 1.356 . S
N662 H668 0.984 . S
N662 H669 0.984 . S
N663 C656 1.356 . S
N663 H666 0.984 . S
N663 H667 0.985 . S
H664 N659 0.984 . S
H665 N659 0.985 . S
H666 N663 0.984 . S
H667 N663 0.985 . S
H668 N662 0.984 . S
H669 N662 0.984 . S
H670 N658 0.984 . S
H671 N658 0.985 . S
C672 C673 1.363 . S
C672 C678 1.379 . S
C672 N680 1.356 . S
C673 C672 1.363 . S
C673 C679 1.363 . S
C674 C675 1.363 . S
C674 C679 1.379 . S
C674 N681 1.356 . S
C675 C674 1.363 . S
C675 C678 1.363 . S
N676 C678 1.356 . S
N676 H688 0.984 . S
N676 H689 0.985 . S
N677 C679 1.356 . S
N677 H682 0.984 . S
N677 H683 0.985 . S
C678 C672 1.379 . S
C678 C675 1.363 . S
C678 N676 1.356 . S
C679 C673 1.363 . S
C679 C674 1.379 . S
C679 N677 1.356 . S
N680 C672 1.356 . S
N680 H686 0.984 . S
N680 H687 0.984 . S
N681 C674 1.356 . S
N681 H684 0.984 . S
N681 H685 0.985 . S
H682 N677 0.984 . S
H683 N677 0.985 . S
H684 N681 0.984 . S
H685 N681 0.985 . S
H686 N680 0.984 . S
H687 N680 0.984 . S
H688 N676 0.984 . S
H689 N676 0.985 . S
C690 C691 1.363 . S
C690 C696 1.379 . S
C690 N698 1.356 . S
C691 C690 1.363 . S
C691 C697 1.363 . S
C692 C693 1.363 . S
C692 C697 1.379 . S
C692 N699 1.356 . S
C693 C692 1.363 . S
C693 C696 1.363 . S
N694 C696 1.356 . S
N694 H706 0.984 . S
N694 H707 0.985 . S
N695 C697 1.356 . S
N695 H700 0.984 . S
N695 H701 0.985 . S
C696 C690 1.379 . S
C696 C693 1.363 . S
C696 N694 1.356 . S
C697 C691 1.363 . S
C697 C692 1.379 . S
C697 N695 1.356 . S
N698 C690 1.356 . S
N698 H704 0.984 . S
N698 H705 0.984 . S
N699 C692 1.356 . S
N699 H702 0.984 . S
N699 H703 0.985 . S
H700 N695 0.984 . S
H701 N695 0.985 . S
H702 N699 0.984 . S
H703 N699 0.985 . S
H704 N698 0.984 . S
H705 N698 0.984 . S
H706 N694 0.984 . S
H707 N694 0.985 . S
C708 C709 1.363 . S
C708 C714 1.379 . S
C708 N716 1.356 . S
C709 C708 1.363 . S
C709 C715 1.363 . S
C710 C711 1.363 . S
C710 C715 1.379 . S
C710 N717 1.356 . S
C711 C710 1.363 . S
C711 C714 1.363 . S
N712 C714 1.356 . S
N712 H724 0.984 . S
N712 H725 0.985 . S
N713 C715 1.356 . S
N713 H718 0.984 . S
N713 H719 0.985 . S
C714 C708 1.379 . S
C714 C711 1.363 . S
C714 N712 1.356 . S
C715 C709 1.363 . S
C715 C710 1.379 . S
C715 N713 1.356 . S
N716 C708 1.356 . S
N716 H722 0.984 . S
N716 H723 0.984 . S
N717 C710 1.356 . S
N717 H720 0.984 . S
N717 H721 0.985 . S
H718 N713 0.984 . S
H719 N713 0.985 . S
H720 N717 0.984 . S
H721 N717 0.985 . S
H722 N716 0.984 . S
H723 N716 0.984 . S
H724 N712 0.984 . S
H725 N712 0.985 . S
C726 C727 1.363 . S
C726 C732 1.379 . S
C726 N734 1.356 . S
C727 C726 1.363 . S
C727 C733 1.363 . S
C728 C729 1.363 . S
C728 C733 1.379 . S
C728 N735 1.356 . S
C729 C728 1.363 . S
C729 C732 1.363 . S
N730 C732 1.356 . S
N730 H742 0.984 . S
N730 H743 0.985 . S
N731 C733 1.356 . S
N731 H736 0.984 . S
N731 H737 0.985 . S
C732 C726 1.379 . S
C732 C729 1.363 . S
C732 N730 1.356 . S
C733 C727 1.363 . S
C733 C728 1.379 . S
C733 N731 1.356 . S
N734 C726 1.356 . S
N734 H740 0.984 . S
N734 H741 0.984 . S
N735 C728 1.356 . S
N735 H738 0.984 . S
N735 H739 0.985 . S
H736 N731 0.984 . S
H737 N731 0.985 . S
H738 N735 0.984 . S
H739 N735 0.985 . S
H740 N734 0.984 . S
H741 N734 0.984 . S
H742 N730 0.984 . S
H743 N730 0.985 . S
C744 C745 1.363 . S
C744 C750 1.379 . S
C744 N752 1.356 . S
C745 C744 1.363 . S
C745 C751 1.363 . S
C746 C747 1.363 . S
C746 C751 1.379 . S
C746 N753 1.356 . S
C747 C746 1.363 . S
C747 C750 1.363 . S
N748 C750 1.356 . S
N748 H760 0.984 . S
N748 H761 0.985 . S
N749 C751 1.356 . S
N749 H754 0.984 . S
N749 H755 0.985 . S
C750 C744 1.379 . S
C750 C747 1.363 . S
C750 N748 1.356 . S
C751 C745 1.363 . S
C751 C746 1.379 . S
C751 N749 1.356 . S
N752 C744 1.356 . S
N752 H758 0.984 . S
N752 H759 0.984 . S
N753 C746 1.356 . S
N753 H756 0.984 . S
N753 H757 0.985 . S
H754 N749 0.984 . S
H755 N749 0.985 . S
H756 N753 0.984 . S
H757 N753 0.985 . S
H758 N752 0.984 . S
H759 N752 0.984 . S
H760 N748 0.984 . S
H761 N748 0.985 . S
C762 C763 1.363 . S
C762 C768 1.379 . S
C762 N770 1.356 . S
C763 C762 1.363 . S
C763 C769 1.363 . S
C764 C765 1.363 . S
C764 C769 1.379 . S
C764 N771 1.356 . S
C765 C764 1.363 . S
C765 C768 1.363 . S
N766 C768 1.356 . S
N766 H778 0.984 . S
N766 H779 0.985 . S
N767 C769 1.356 . S
N767 H772 0.984 . S
N767 H773 0.985 . S
C768 C762 1.379 . S
C768 C765 1.363 . S
C768 N766 1.356 . S
C769 C763 1.363 . S
C769 C764 1.379 . S
C769 N767 1.356 . S
N770 C762 1.356 . S
N770 H776 0.984 . S
N770 H777 0.984 . S
N771 C764 1.356 . S
N771 H774 0.984 . S
N771 H775 0.985 . S
H772 N767 0.984 . S
H773 N767 0.985 . S
H774 N771 0.984 . S
H775 N771 0.985 . S
H776 N770 0.984 . S
H777 N770 0.984 . S
H778 N766 0.984 . S
H779 N766 0.985 . S
C780 C781 1.363 . S
C780 C786 1.379 . S
C780 N788 1.356 . S
C781 C780 1.363 . S
C781 C787 1.363 . S
C782 C783 1.363 . S
C782 C787 1.379 . S
C782 N789 1.356 . S
C783 C782 1.363 . S
C783 C786 1.363 . S
N784 C786 1.356 . S
N784 H796 0.984 . S
N784 H797 0.985 . S
N785 C787 1.356 . S
N785 H790 0.984 . S
N785 H791 0.985 . S
C786 C780 1.379 . S
C786 C783 1.363 . S
C786 N784 1.356 . S
C787 C781 1.363 . S
C787 C782 1.379 . S
C787 N785 1.356 . S
N788 C780 1.356 . S
N788 H794 0.984 . S
N788 H795 0.984 . S
N789 C782 1.356 . S
N789 H792 0.984 . S
N789 H793 0.985 . S
H790 N785 0.984 . S
H791 N785 0.985 . S
H792 N789 0.984 . S
H793 N789 0.985 . S
H794 N788 0.984 . S
H795 N788 0.984 . S
H796 N784 0.984 . S
H797 N784 0.985 . S
C798 C799 1.363 . S
C798 C804 1.379 . S
C798 N806 1.356 . S
C799 C798 1.363 . S
C799 C805 1.363 . S
C800 C801 1.363 . S
C800 C805 1.379 . S
C800 N807 1.356 . S
C801 C800 1.363 . S
C801 C804 1.363 . S
N802 C804 1.356 . S
N802 H814 0.984 . S
N802 H815 0.985 . S
N803 C805 1.356 . S
N803 H808 0.984 . S
N803 H809 0.985 . S
C804 C798 1.379 . S
C804 C801 1.363 . S
C804 N802 1.356 . S
C805 C799 1.363 . S
C805 C800 1.379 . S
C805 N803 1.356 . S
N806 C798 1.356 . S
N806 H812 0.984 . S
N806 H813 0.984 . S
N807 C800 1.356 . S
N807 H810 0.984 . S
N807 H811 0.985 . S
H808 N803 0.984 . S
H809 N803 0.985 . S
H810 N807 0.984 . S
H811 N807 0.985 . S
H812 N806 0.984 . S
H813 N806 0.984 . S
H814 N802 0.984 . S
H815 N802 0.985 . S
C816 C817 1.363 . S
C816 C822 1.379 . S
C816 N824 1.356 . S
C817 C816 1.363 . S
C817 C823 1.363 . S
C818 C819 1.363 . S
C818 C823 1.379 . S
C818 N825 1.356 . S
C819 C818 1.363 . S
C819 C822 1.363 . S
N820 C822 1.356 . S
N820 H832 0.984 . S
N820 H833 0.985 . S
N821 C823 1.356 . S
N821 H826 0.984 . S
N821 H827 0.985 . S
C822 C816 1.379 . S
C822 C819 1.363 . S
C822 N820 1.356 . S
C823 C817 1.363 . S
C823 C818 1.379 . S
C823 N821 1.356 . S
N824 C816 1.356 . S
N824 H830 0.984 . S
N824 H831 0.984 . S
N825 C818 1.356 . S
N825 H828 0.984 . S
N825 H829 0.985 . S
H826 N821 0.984 . S
H827 N821 0.985 . S
H828 N825 0.984 . S
H829 N825 0.985 . S
H830 N824 0.984 . S
H831 N824 0.984 . S
H832 N820 0.984 . S
H833 N820 0.985 . S
C834 C835 1.363 . S
C834 C840 1.379 . S
C834 N842 1.356 . S
C835 C834 1.363 . S
C835 C841 1.363 . S
C836 C837 1.363 . S
C836 C841 1.379 . S
C836 N843 1.356 . S
C837 C836 1.363 . S
C837 C840 1.363 . S
N838 C840 1.356 . S
N838 H850 0.984 . S
N838 H851 0.985 . S
N839 C841 1.356 . S
N839 H844 0.984 . S
N839 H845 0.985 . S
C840 C834 1.379 . S
C840 C837 1.363 . S
C840 N838 1.356 . S
C841 C835 1.363 . S
C841 C836 1.379 . S
C841 N839 1.356 . S
N842 C834 1.356 . S
N842 H848 0.984 . S
N842 H849 0.984 . S
N843 C836 1.356 . S
N843 H846 0.984 . S
N843 H847 0.985 . S
H844 N839 0.984 . S
H845 N839 0.985 . S
H846 N843 0.984 . S
H847 N843 0.985 . S
H848 N842 0.984 . S
H849 N842 0.984 . S
H850 N838 0.984 . S
H851 N838 0.985 . S
C852 C853 1.363 . S
C852 C858 1.379 . S
C852 N860 1.356 . S
C853 C852 1.363 . S
C853 C859 1.363 . S
C854 C855 1.363 . S
C854 C859 1.379 . S
C854 N861 1.356 . S
C855 C854 1.363 . S
C855 C858 1.363 . S
N856 C858 1.356 . S
N856 H868 0.984 . S
N856 H869 0.985 . S
N857 C859 1.356 . S
N857 H862 0.984 . S
N857 H863 0.985 . S
C858 C852 1.379 . S
C858 C855 1.363 . S
C858 N856 1.356 . S
C859 C853 1.363 . S
C859 C854 1.379 . S
C859 N857 1.356 . S
N860 C852 1.356 . S
N860 H866 0.984 . S
N860 H867 0.984 . S
N861 C854 1.356 . S
N861 H864 0.984 . S
N861 H865 0.985 . S
H862 N857 0.984 . S
H863 N857 0.985 . S
H864 N861 0.984 . S
H865 N861 0.985 . S
H866 N860 0.984 . S
H867 N860 0.984 . S
H868 N856 0.984 . S
H869 N856 0.985 . S
C870 C871 1.363 . S
C870 C876 1.379 . S
C870 N878 1.356 . S
C871 C870 1.363 . S
C871 C877 1.363 . S
C872 C873 1.363 . S
C872 C877 1.379 . S
C872 N879 1.356 . S
C873 C872 1.363 . S
C873 C876 1.363 . S
N874 C876 1.356 . S
N874 H886 0.984 . S
N874 H887 0.985 . S
N875 C877 1.356 . S
N875 H880 0.984 . S
N875 H881 0.985 . S
C876 C870 1.379 . S
C876 C873 1.363 . S
C876 N874 1.356 . S
C877 C871 1.363 . S
C877 C872 1.379 . S
C877 N875 1.356 . S
N878 C870 1.356 . S
N878 H884 0.984 . S
N878 H885 0.984 . S
N879 C872 1.356 . S
N879 H882 0.984 . S
N879 H883 0.985 . S
H880 N875 0.984 . S
H881 N875 0.985 . S
H882 N879 0.984 . S
H883 N879 0.985 . S
H884 N878 0.984 . S
H885 N878 0.984 . S
H886 N874 0.984 . S
H887 N874 0.985 . S
C888 C889 1.363 . S
C888 C894 1.379 . S
C888 N896 1.356 . S
C889 C888 1.363 . S
C889 C895 1.363 . S
C890 C891 1.363 . S
C890 C895 1.379 . S
C890 N897 1.356 . S
C891 C890 1.363 . S
C891 C894 1.363 . S
N892 C894 1.356 . S
N892 H904 0.984 . S
N892 H905 0.985 . S
N893 C895 1.356 . S
N893 H898 0.984 . S
N893 H899 0.985 . S
C894 C888 1.379 . S
C894 C891 1.363 . S
C894 N892 1.356 . S
C895 C889 1.363 . S
C895 C890 1.379 . S
C895 N893 1.356 . S
N896 C888 1.356 . S
N896 H902 0.984 . S
N896 H903 0.984 . S
N897 C890 1.356 . S
N897 H900 0.984 . S
N897 H901 0.985 . S
H898 N893 0.984 . S
H899 N893 0.985 . S
H900 N897 0.984 . S
H901 N897 0.985 . S
H902 N896 0.984 . S
H903 N896 0.984 . S
H904 N892 0.984 . S
H905 N892 0.985 . S
C906 C907 1.363 . S
C906 C912 1.379 . S
C906 N914 1.356 . S
C907 C906 1.363 . S
C907 C913 1.363 . S
C908 C909 1.363 . S
C908 C913 1.379 . S
C908 N915 1.356 . S
C909 C908 1.363 . S
C909 C912 1.363 . S
N910 C912 1.356 . S
N910 H922 0.984 . S
N910 H923 0.985 . S
N911 C913 1.356 . S
N911 H916 0.984 . S
N911 H917 0.985 . S
C912 C906 1.379 . S
C912 C909 1.363 . S
C912 N910 1.356 . S
C913 C907 1.363 . S
C913 C908 1.379 . S
C913 N911 1.356 . S
N914 C906 1.356 . S
N914 H920 0.984 . S
N914 H921 0.984 . S
N915 C908 1.356 . S
N915 H918 0.984 . S
N915 H919 0.985 . S
H916 N911 0.984 . S
H917 N911 0.985 . S
H918 N915 0.984 . S
H919 N915 0.985 . S
H920 N914 0.984 . S
H921 N914 0.984 . S
H922 N910 0.984 . S
H923 N910 0.985 . S
C924 C925 1.363 . S
C924 C930 1.379 . S
C924 N932 1.356 . S
C925 C924 1.363 . S
C925 C931 1.363 . S
C926 C927 1.363 . S
C926 C931 1.379 . S
C926 N933 1.356 . S
C927 C926 1.363 . S
C927 C930 1.363 . S
N928 C930 1.356 . S
N928 H940 0.984 . S
N928 H941 0.985 . S
N929 C931 1.356 . S
N929 H934 0.984 . S
N929 H935 0.985 . S
C930 C924 1.379 . S
C930 C927 1.363 . S
C930 N928 1.356 . S
C931 C925 1.363 . S
C931 C926 1.379 . S
C931 N929 1.356 . S
N932 C924 1.356 . S
N932 H938 0.984 . S
N932 H939 0.984 . S
N933 C926 1.356 . S
N933 H936 0.984 . S
N933 H937 0.985 . S
H934 N929 0.984 . S
H935 N929 0.985 . S
H936 N933 0.984 . S
H937 N933 0.985 . S
H938 N932 0.984 . S
H939 N932 0.984 . S
H940 N928 0.984 . S
H941 N928 0.985 . S
C942 C943 1.363 . S
C942 C948 1.379 . S
C942 N950 1.356 . S
C943 C942 1.363 . S
C943 C949 1.363 . S
C944 C945 1.363 . S
C944 C949 1.379 . S
C944 N951 1.356 . S
C945 C944 1.363 . S
C945 C948 1.363 . S
N946 C948 1.356 . S
N946 H958 0.984 . S
N946 H959 0.985 . S
N947 C949 1.356 . S
N947 H952 0.984 . S
N947 H953 0.985 . S
C948 C942 1.379 . S
C948 C945 1.363 . S
C948 N946 1.356 . S
C949 C943 1.363 . S
C949 C944 1.379 . S
C949 N947 1.356 . S
N950 C942 1.356 . S
N950 H956 0.984 . S
N950 H957 0.984 . S
N951 C944 1.356 . S
N951 H954 0.984 . S
N951 H955 0.985 . S
H952 N947 0.984 . S
H953 N947 0.985 . S
H954 N951 0.984 . S
H955 N951 0.985 . S
H956 N950 0.984 . S
H957 N950 0.984 . S
H958 N946 0.984 . S
H959 N946 0.985 . S
C960 C961 1.363 . S
C960 C966 1.379 . S
C960 N968 1.356 . S
C961 C960 1.363 . S
C961 C967 1.363 . S
C962 C963 1.363 . S
C962 C967 1.379 . S
C962 N969 1.356 . S
C963 C962 1.363 . S
C963 C966 1.363 . S
N964 C966 1.356 . S
N964 H976 0.984 . S
N964 H977 0.985 . S
N965 C967 1.356 . S
N965 H970 0.984 . S
N965 H971 0.985 . S
C966 C960 1.379 . S
C966 C963 1.363 . S
C966 N964 1.356 . S
C967 C961 1.363 . S
C967 C962 1.379 . S
C967 N965 1.356 . S
N968 C960 1.356 . S
N968 H974 0.984 . S
N968 H975 0.984 . S
N969 C962 1.356 . S
N969 H972 0.984 . S
N969 H973 0.985 . S
H970 N965 0.984 . S
H971 N965 0.985 . S
H972 N969 0.984 . S
H973 N969 0.985 . S
H974 N968 0.984 . S
H975 N968 0.984 . S
H976 N964 0.984 . S
H977 N964 0.985 . S
C978 C979 1.363 . S
C978 C984 1.379 . S
C978 N986 1.356 . S
C979 C978 1.363 . S
C979 C985 1.363 . S
C980 C981 1.363 . S
C980 C985 1.379 . S
C980 N987 1.356 . S
C981 C980 1.363 . S
C981 C984 1.363 . S
N982 C984 1.356 . S
N982 H994 0.984 . S
N982 H995 0.985 . S
N983 C985 1.356 . S
N983 H988 0.984 . S
N983 H989 0.985 . S
C984 C978 1.379 . S
C984 C981 1.363 . S
C984 N982 1.356 . S
C985 C979 1.363 . S
C985 C980 1.379 . S
C985 N983 1.356 . S
N986 C978 1.356 . S
N986 H992 0.984 . S
N986 H993 0.984 . S
N987 C980 1.356 . S
N987 H990 0.984 . S
N987 H991 0.985 . S
H988 N983 0.984 . S
H989 N983 0.985 . S
H990 N987 0.984 . S
H991 N987 0.985 . S
H992 N986 0.984 . S
H993 N986 0.984 . S
H994 N982 0.984 . S
H995 N982 0.985 . S
C996 C997 1.363 . S
C996 C1002 1.379 . S
C996 N1004 1.356 . S
C997 C996 1.363 . S
C997 C1003 1.363 . S
C998 C999 1.363 . S
C998 C1003 1.379 . S
C998 N1005 1.356 . S
C999 C998 1.363 . S
C999 C1002 1.363 . S
N1000 C1002 1.356 . S
N1000 H1012 0.984 . S
N1000 H1013 0.985 . S
N1001 C1003 1.356 . S
N1001 H1006 0.984 . S
N1001 H1007 0.985 . S
C1002 C996 1.379 . S
C1002 C999 1.363 . S
C1002 N1000 1.356 . S
C1003 C997 1.363 . S
C1003 C998 1.379 . S
C1003 N1001 1.356 . S
N1004 C996 1.356 . S
N1004 H1010 0.984 . S
N1004 H1011 0.984 . S
N1005 C998 1.356 . S
N1005 H1008 0.984 . S
N1005 H1009 0.985 . S
H1006 N1001 0.984 . S
H1007 N1001 0.985 . S
H1008 N1005 0.984 . S
H1009 N1005 0.985 . S
H1010 N1004 0.984 . S
H1011 N1004 0.984 . S
H1012 N1000 0.984 . S
H1013 N1000 0.985 . S
C1014 C1015 1.363 . S
C1014 C1020 1.379 . S
C1014 N1022 1.356 . S
C1015 C1014 1.363 . S
C1015 C1021 1.363 . S
C1016 C1017 1.363 . S
C1016 C1021 1.379 . S
C1016 N1023 1.356 . S
C1017 C1016 1.363 . S
C1017 C1020 1.363 . S
N1018 C1020 1.356 . S
N1018 H1030 0.984 . S
N1018 H1031 0.985 . S
N1019 C1021 1.356 . S
N1019 H1024 0.984 . S
N1019 H1025 0.985 . S
C1020 C1014 1.379 . S
C1020 C1017 1.363 . S
C1020 N1018 1.356 . S
C1021 C1015 1.363 . S
C1021 C1016 1.379 . S
C1021 N1019 1.356 . S
N1022 C1014 1.356 . S
N1022 H1028 0.984 . S
N1022 H1029 0.984 . S
N1023 C1016 1.356 . S
N1023 H1026 0.984 . S
N1023 H1027 0.985 . S
H1024 N1019 0.984 . S
H1025 N1019 0.985 . S
H1026 N1023 0.984 . S
H1027 N1023 0.985 . S
H1028 N1022 0.984 . S
H1029 N1022 0.984 . S
H1030 N1018 0.984 . S
H1031 N1018 0.985 . S
C1032 C1033 1.363 . S
C1032 C1038 1.379 1_556 S
C1032 N1040 1.356 . S
C1033 C1032 1.363 . S
C1033 C1039 1.363 . S
C1034 C1035 1.363 1_556 S
C1034 C1039 1.379 . S
C1034 N1041 1.356 1_556 S
C1035 C1034 1.363 1_554 S
C1035 C1038 1.363 . S
N1036 C1038 1.356 . S
N1036 H1048 0.984 . S
N1036 H1049 0.985 . S
N1037 C1039 1.356 . S
N1037 H1042 0.984 . S
N1037 H1043 0.985 . S
C1038 C1032 1.379 1_554 S
C1038 C1035 1.363 . S
C1038 N1036 1.356 . S
C1039 C1033 1.363 . S
C1039 C1034 1.379 . S
C1039 N1037 1.356 . S
N1040 C1032 1.356 . S
N1040 H1046 0.984 1_556 S
N1040 H1047 0.984 . S
N1041 C1034 1.356 1_554 S
N1041 H1044 0.984 . S
N1041 H1045 0.985 1_554 S
H1042 N1037 0.984 . S
H1043 N1037 0.985 . S
H1044 N1041 0.984 . S
H1045 N1041 0.985 1_556 S
H1046 N1040 0.984 1_554 S
H1047 N1040 0.984 . S
H1048 N1036 0.984 . S
H1049 N1036 0.985 . S
C1050 C1051 1.363 . S
C1050 C1056 1.404 . S
C1050 N1058 1.356 . S
C1051 C1050 1.363 . S
C1051 C1057 1.363 1_554 S
C1052 C1053 1.363 . S
C1052 C1057 1.379 . S
C1052 N1059 1.356 . S
C1053 C1052 1.363 . S
C1053 C1056 1.333 1_556 S
N1054 C1056 1.351 1_556 S
N1054 H1066 0.984 1_556 S
N1054 H1067 0.985 . S
N1055 C1057 1.356 . S
N1055 H1060 0.984 1_556 S
N1055 H1061 0.985 . S
C1056 C1050 1.404 . S
C1056 C1053 1.333 1_554 S
C1056 N1054 1.351 1_554 S
C1057 C1051 1.363 1_556 S
C1057 C1052 1.379 . S
C1057 N1055 1.356 . S
N1058 C1050 1.356 . S
N1058 H1064 0.984 . S
N1058 H1065 0.984 . S
N1059 C1052 1.356 . S
N1059 H1062 0.984 . S
N1059 H1063 0.985 . S
H1060 N1055 0.984 1_554 S
H1061 N1055 0.985 . S
H1062 N1059 0.984 . S
H1063 N1059 0.985 . S
H1064 N1058 0.984 . S
H1065 N1058 0.984 . S
H1066 N1054 0.984 1_554 S
H1067 N1054 0.985 . S
C1068 C1069 1.363 . S
C1068 C1074 1.379 1_556 S
C1068 N1076 1.356 . S
C1069 C1068 1.363 . S
C1069 C1075 1.363 . S
C1070 C1071 1.363 1_556 S
C1070 C1075 1.379 . S
C1070 N1077 1.356 1_556 S
C1071 C1070 1.363 1_554 S
C1071 C1074 1.363 . S
N1072 C1074 1.356 . S
N1072 H1084 0.984 . S
N1072 H1085 0.985 . S
N1073 C1075 1.356 . S
N1073 H1078 0.984 . S
N1073 H1079 0.985 . S
C1074 C1068 1.379 1_554 S
C1074 C1071 1.363 . S
C1074 N1072 1.356 . S
C1075 C1069 1.363 . S
C1075 C1070 1.379 . S
C1075 N1073 1.356 . S
N1076 C1068 1.356 . S
N1076 H1082 0.984 1_556 S
N1076 H1083 0.984 . S
N1077 C1070 1.356 1_554 S
N1077 H1080 0.984 . S
N1077 H1081 0.985 1_554 S
H1078 N1073 0.984 . S
H1079 N1073 0.985 . S
H1080 N1077 0.984 . S
H1081 N1077 0.985 1_556 S
H1082 N1076 0.984 1_554 S
H1083 N1076 0.984 . S
H1084 N1072 0.984 . S
H1085 N1072 0.985 . S
C1086 C1087 1.363 1_556 S
C1086 C1092 1.379 . S
C1086 N1094 1.356 . S
C1087 C1086 1.363 1_554 S
C1087 C1093 1.363 . S
C1088 C1089 1.363 1_554 S
C1088 C1093 1.379 . S
C1088 N1095 1.356 1_554 S
C1089 C1088 1.363 1_556 S
C1089 C1092 1.363 . S
N1090 C1092 1.356 . S
N1090 H1102 0.984 . S
N1090 H1103 0.985 . S
N1091 C1093 1.356 . S
N1091 H1096 0.984 . S
N1091 H1097 0.985 . S
C1092 C1086 1.379 . S
C1092 C1089 1.363 . S
C1092 N1090 1.356 . S
C1093 C1087 1.363 . S
C1093 C1088 1.379 . S
C1093 N1091 1.356 . S
N1094 C1086 1.356 . S
N1094 H1100 0.984 . S
N1094 H1101 0.984 1_556 S
N1095 C1088 1.356 1_556 S
N1095 H1098 0.984 . S
N1095 H1099 0.985 1_556 S
H1096 N1091 0.984 . S
H1097 N1091 0.985 . S
H1098 N1095 0.984 . S
H1099 N1095 0.985 1_554 S
H1100 N1094 0.984 . S
H1101 N1094 0.984 1_554 S
H1102 N1090 0.984 . S
H1103 N1090 0.985 . S
C1104 C1105 1.363 . S
C1104 C1110 1.379 . S
C1104 N1112 1.356 . S
C1105 C1104 1.363 . S
C1105 C1111 1.363 . S
C1106 C1107 1.363 . S
C1106 C1111 1.379 . S
C1106 N1113 1.356 . S
C1107 C1106 1.363 . S
C1107 C1110 1.363 . S
N1108 C1110 1.356 . S
N1108 H1120 0.984 . S
N1108 H1121 0.985 . S
N1109 C1111 1.356 . S
N1109 H1114 0.984 . S
N1109 H1115 0.985 . S
C1110 C1104 1.379 . S
C1110 C1107 1.363 . S
C1110 N1108 1.356 . S
C1111 C1105 1.363 . S
C1111 C1106 1.379 . S
C1111 N1109 1.356 . S
N1112 C1104 1.356 . S
N1112 H1118 0.984 . S
N1112 H1119 0.984 . S
N1113 C1106 1.356 . S
N1113 H1116 0.984 . S
N1113 H1117 0.985 . S
H1114 N1109 0.984 . S
H1115 N1109 0.985 . S
H1116 N1113 0.984 . S
H1117 N1113 0.985 . S
H1118 N1112 0.984 . S
H1119 N1112 0.984 . S
H1120 N1108 0.984 . S
H1121 N1108 0.985 . S
C1122 C1123 1.363 . S
C1122 C1128 1.379 . S
C1122 N1130 1.356 . S
C1123 C1122 1.363 . S
C1123 C1129 1.363 . S
C1124 C1125 1.363 . S
C1124 C1129 1.379 . S
C1124 N1131 1.356 . S
C1125 C1124 1.363 . S
C1125 C1128 1.363 . S
N1126 C1128 1.356 . S
N1126 H1138 0.984 . S
N1126 H1139 0.985 . S
N1127 C1129 1.356 . S
N1127 H1132 0.984 . S
N1127 H1133 0.985 . S
C1128 C1122 1.379 . S
C1128 C1125 1.363 . S
C1128 N1126 1.356 . S
C1129 C1123 1.363 . S
C1129 C1124 1.379 . S
C1129 N1127 1.356 . S
N1130 C1122 1.356 . S
N1130 H1136 0.984 . S
N1130 H1137 0.984 . S
N1131 C1124 1.356 . S
N1131 H1134 0.984 . S
N1131 H1135 0.985 . S
H1132 N1127 0.984 . S
H1133 N1127 0.985 . S
H1134 N1131 0.984 . S
H1135 N1131 0.985 . S
H1136 N1130 0.984 . S
H1137 N1130 0.984 . S
H1138 N1126 0.984 . S
H1139 N1126 0.985 . S
C1140 C1141 1.363 . S
C1140 C1146 1.379 . S
C1140 N1148 1.356 . S
C1141 C1140 1.363 . S
C1141 C1147 1.363 . S
C1142 C1143 1.363 . S
C1142 C1147 1.379 . S
C1142 N1149 1.356 . S
C1143 C1142 1.363 . S
C1143 C1146 1.363 . S
N1144 C1146 1.356 . S
N1144 H1156 0.984 . S
N1144 H1157 0.985 . S
N1145 C1147 1.356 . S
N1145 H1150 0.984 . S
N1145 H1151 0.985 . S
C1146 C1140 1.379 . S
C1146 C1143 1.363 . S
C1146 N1144 1.356 . S
C1147 C1141 1.363 . S
C1147 C1142 1.379 . S
C1147 N1145 1.356 . S
N1148 C1140 1.356 . S
N1148 H1154 0.984 . S
N1148 H1155 0.984 . S
N1149 C1142 1.356 . S
N1149 H1152 0.984 . S
N1149 H1153 0.985 . S
H1150 N1145 0.984 . S
H1151 N1145 0.985 . S
H1152 N1149 0.984 . S
H1153 N1149 0.985 . S
H1154 N1148 0.984 . S
H1155 N1148 0.984 . S
H1156 N1144 0.984 . S
H1157 N1144 0.985 . S
C1158 C1159 1.363 . S
C1158 C1164 1.379 . S
C1158 N1166 1.356 . S
C1159 C1158 1.363 . S
C1159 C1165 1.363 . S
C1160 C1161 1.363 . S
C1160 C1165 1.379 . S
C1160 N1167 1.356 . S
C1161 C1160 1.363 . S
C1161 C1164 1.363 . S
N1162 C1164 1.356 . S
N1162 H1174 0.984 . S
N1162 H1175 0.985 . S
N1163 C1165 1.356 . S
N1163 H1168 0.984 . S
N1163 H1169 0.985 . S
C1164 C1158 1.379 . S
C1164 C1161 1.363 . S
C1164 N1162 1.356 . S
C1165 C1159 1.363 . S
C1165 C1160 1.379 . S
C1165 N1163 1.356 . S
N1166 C1158 1.356 . S
N1166 H1172 0.984 . S
N1166 H1173 0.984 . S
N1167 C1160 1.356 . S
N1167 H1170 0.984 . S
N1167 H1171 0.985 . S
H1168 N1163 0.984 . S
H1169 N1163 0.985 . S
H1170 N1167 0.984 . S
H1171 N1167 0.985 . S
H1172 N1166 0.984 . S
H1173 N1166 0.984 . S
H1174 N1162 0.984 . S
H1175 N1162 0.985 . S
C1176 C1177 1.363 1_556 S
C1176 C1182 1.379 . S
C1176 N1184 1.356 1_556 S
C1177 C1176 1.363 1_554 S
C1177 C1183 1.363 . S
C1178 C1179 1.363 1_554 S
C1178 C1183 1.379 . S
C1178 N1185 1.356 . S
C1179 C1178 1.363 1_556 S
C1179 C1182 1.363 . S
N1180 C1182 1.356 . S
N1180 H1192 0.984 . S
N1180 H1193 0.985 . S
N1181 C1183 1.356 . S
N1181 H1186 0.984 . S
N1181 H1187 0.985 . S
C1182 C1176 1.379 . S
C1182 C1179 1.363 . S
C1182 N1180 1.356 . S
C1183 C1177 1.363 . S
C1183 C1178 1.379 . S
C1183 N1181 1.356 . S
N1184 C1176 1.356 1_554 S
N1184 H1190 0.984 1_554 S
N1184 H1191 0.984 . S
N1185 C1178 1.356 . S
N1185 H1188 0.984 1_554 S
N1185 H1189 0.985 . S
H1186 N1181 0.984 . S
H1187 N1181 0.985 . S
H1188 N1185 0.984 1_556 S
H1189 N1185 0.985 . S
H1190 N1184 0.984 1_556 S
H1191 N1184 0.984 . S
H1192 N1180 0.984 . S
H1193 N1180 0.985 . S
C1194 C1195 1.363 1_554 S
C1194 C1200 1.379 . S
C1194 N1202 1.356 1_554 S
C1195 C1194 1.363 1_556 S
C1195 C1201 1.363 . S
C1196 C1197 1.363 . S
C1196 C1201 1.379 1_554 S
C1196 N1203 1.356 . S
C1197 C1196 1.363 . S
C1197 C1200 1.363 . S
N1198 C1200 1.356 . S
N1198 H1210 0.984 . S
N1198 H1211 0.985 . S
N1199 C1201 1.356 . S
N1199 H1204 0.984 . S
N1199 H1205 0.985 . S
C1200 C1194 1.379 . S
C1200 C1197 1.363 . S
C1200 N1198 1.356 . S
C1201 C1195 1.363 . S
C1201 C1196 1.379 1_556 S
C1201 N1199 1.356 . S
N1202 C1194 1.356 1_556 S
N1202 H1208 0.984 1_556 S
N1202 H1209 0.984 . S
N1203 C1196 1.356 . S
N1203 H1206 0.984 . S
N1203 H1207 0.985 1_554 S
H1204 N1199 0.984 . S
H1205 N1199 0.985 . S
H1206 N1203 0.984 . S
H1207 N1203 0.985 1_556 S
H1208 N1202 0.984 1_554 S
H1209 N1202 0.984 . S
H1210 N1198 0.984 . S
H1211 N1198 0.985 . S
C1212 C1213 1.363 . S
C1212 C1218 1.379 1_554 S
C1212 N1220 1.356 . S
C1213 C1212 1.363 . S
C1213 C1219 1.363 . S
C1214 C1215 1.363 1_554 S
C1214 C1219 1.379 . S
C1214 N1221 1.356 1_554 S
C1215 C1214 1.363 1_556 S
C1215 C1218 1.363 . S
N1216 C1218 1.356 . S
N1216 H1228 0.984 . S
N1216 H1229 0.985 . S
N1217 C1219 1.356 . S
N1217 H1222 0.984 . S
N1217 H1223 0.985 . S
C1218 C1212 1.379 1_556 S
C1218 C1215 1.363 . S
C1218 N1216 1.356 . S
C1219 C1213 1.363 . S
C1219 C1214 1.379 . S
C1219 N1217 1.356 . S
N1220 C1212 1.356 . S
N1220 H1226 0.984 1_554 S
N1220 H1227 0.984 . S
N1221 C1214 1.356 1_556 S
N1221 H1224 0.984 . S
N1221 H1225 0.985 1_556 S
H1222 N1217 0.984 . S
H1223 N1217 0.985 . S
H1224 N1221 0.984 . S
H1225 N1221 0.985 1_554 S
H1226 N1220 0.984 1_556 S
H1227 N1220 0.984 . S
H1228 N1216 0.984 . S
H1229 N1216 0.985 . S
C1230 C1231 1.363 . S
C1230 C1236 1.379 . S
C1230 N1238 1.356 . S
C1231 C1230 1.363 . S
C1231 C1237 1.334 1_554 S
C1232 C1233 1.363 . S
C1232 C1237 1.404 . S
C1232 N1239 1.356 . S
C1233 C1232 1.363 . S
C1233 C1236 1.363 1_556 S
N1234 C1236 1.356 . S
N1234 H1246 0.984 . S
N1234 H1247 0.985 1_554 S
N1235 C1237 1.351 1_554 S
N1235 H1240 0.984 . S
N1235 H1241 0.985 1_554 S
C1236 C1230 1.379 . S
C1236 C1233 1.363 1_554 S
C1236 N1234 1.356 . S
C1237 C1231 1.334 1_556 S
C1237 C1232 1.404 . S
C1237 N1235 1.351 1_556 S
N1238 C1230 1.356 . S
N1238 H1244 0.984 . S
N1238 H1245 0.984 . S
N1239 C1232 1.356 . S
N1239 H1242 0.984 . S
N1239 H1243 0.985 . S
H1240 N1235 0.984 . S
H1241 N1235 0.985 1_556 S
H1242 N1239 0.984 . S
H1243 N1239 0.985 . S
H1244 N1238 0.984 . S
H1245 N1238 0.984 . S
H1246 N1234 0.984 . S
H1247 N1234 0.985 1_556 S
C529 N101 1.509 . S
C531 C7 1.681 . S
C547 C40 1.681 . S
C549 N2 1.509 . S
C565 C73 1.681 . S
C567 N35 1.509 . S
C583 C106 1.681 . S
C585 N68 1.509 . S
C601 N167 1.509 . S
C603 C139 1.681 . S
C619 N200 1.509 . S
C621 C172 1.681 . S
C637 C205 1.681 . S
C639 N233 1.509 . S
C655 N134 1.509 . S
C657 C238 1.681 . S
C673 C271 1.681 . S
C675 N365 1.509 . S
C691 C304 1.681 . S
C693 N266 1.509 . S
C709 N299 1.509 . S
C711 C337 1.681 . S
C727 C370 1.681 . S
C729 N332 1.509 . S
C745 N431 1.509 . S
C747 C403 1.681 . S
C763 C436 1.681 . S
C765 N464 1.509 . S
C781 C469 1.681 . S
C783 N497 1.509 . S
C799 C502 1.681 . S
C801 N398 1.509 . S
C817 C21 1.646 . S
C819 C186 1.646 . S
C835 C54 1.646 . S
C837 C219 1.646 . S
C853 C252 1.646 . S
C855 C87 1.646 . S
C871 C120 1.646 . S
C873 C153 1.646 . S
C889 C450 1.646 . S
C891 C285 1.646 . S
C907 C483 1.646 . S
C909 C318 1.646 . S
C925 C351 1.646 . S
C927 C516 1.646 . S
C943 C417 1.646 . S
C945 C384 1.646 . S
C961 N13 1.254 . S
C963 C381 1.265 . S
C979 N46 1.254 . S
C981 C282 1.265 . S
C997 N79 1.254 . S
C999 C315 1.265 . S
C1015 N112 1.254 . S
C1017 C348 1.265 . S
C1033 C447 1.265 . S
C1035 N145 1.254 . S
C1051 N178 1.254 . S
C1053 C480 1.265 . S
C1069 C513 1.265 . S
C1071 N211 1.254 . S
C1087 N244 1.254 . S
C1089 C414 1.265 . S
C1105 C117 1.265 . S
C1107 N277 1.254 . S
C1123 C18 1.265 . S
C1125 N310 1.254 . S
C1141 C51 1.265 . S
C1143 N343 1.254 . S
C1159 C84 1.265 . S
C1161 N376 1.254 . S
C1177 C183 1.265 . S
C1179 N409 1.254 . S
C1195 N442 1.254 . S
C1197 C216 1.265 . S
C1213 C249 1.265 . S
C1215 N475 1.254 . S
C1231 C150 1.265 . S
C1233 N508 1.254 . S
