# Generated by pormake.
# Topology uni, (4)-cn, num edge types: 1
# Building blocks:
#     Node 0, Type 0, BuildingBlock: QUQFOY_clean_sbu_3, # of connection points: 4
#     Node 1, Type 0, BuildingBlock: QUQFOY_clean_sbu_3, # of connection points: 4
#     Node 2, Type 0, BuildingBlock: QUQFOY_clean_sbu_3, # of connection points: 4
#     Node 3, Type 0, BuildingBlock: QUQFOY_clean_sbu_3, # of connection points: 4
#     Node 4, Type 0, BuildingBlock: QUQFOY_clean_sbu_3, # of connection points: 4
#     Node 5, Type 0, BuildingBlock: QUQFOY_clean_sbu_3, # of connection points: 4
#     Edge 6, Type (0, 0), BuildingBlock: ZUJKAS_clean_linker_0, # of connection points: 2
#     Edge 7, Type (0, 0), BuildingBlock: ZUJKAS_clean_linker_0, # of connection points: 2
#     Edge 8, Type (0, 0), BuildingBlock: ZUJKAS_clean_linker_0, # of connection points: 2
#     Edge 9, Type (0, 0), BuildingBlock: ZUJKAS_clean_linker_0, # of connection points: 2
#     Edge 10, Type (0, 0), BuildingBlock: ZUJKAS_clean_linker_0, # of connection points: 2
#     Edge 11, Type (0, 0), BuildingBlock: ZUJKAS_clean_linker_0, # of connection points: 2
#     Edge 12, Type (0, 0), BuildingBlock: ZUJKAS_clean_linker_0, # of connection points: 2
#     Edge 13, Type (0, 0), BuildingBlock: ZUJKAS_clean_linker_0, # of connection points: 2
#     Edge 14, Type (0, 0), BuildingBlock: ZUJKAS_clean_linker_0, # of connection points: 2
#     Edge 15, Type (0, 0), BuildingBlock: ZUJKAS_clean_linker_0, # of connection points: 2
#     Edge 16, Type (0, 0), BuildingBlock: ZUJKAS_clean_linker_0, # of connection points: 2
#     Edge 17, Type (0, 0), BuildingBlock: ZUJKAS_clean_linker_0, # of connection points: 2
# Relax obj value: 0.063
# Max RMSD: 0.095
# Mean RMSD: 0.087
data_MOF--net-uni--node1-QUQFOY_clean_sbu_3--edge1-ZUJKAS_clean_linker_0
_symmetry_space_group_name_H-M    P1
_symmetry_Int_Tables_number       1
_symmetry_cell_setting            triclinic
loop_
_symmetry_equiv_pos_as_xyz
'x, y, z'
_cell_length_a     51.522499
_cell_length_b     52.975255
_cell_length_c     30.347959
_cell_angle_alpha  90.0157
_cell_angle_beta   90.057816
_cell_angle_gamma 119.88788
loop_
_atom_site_label
_atom_site_type_symbol
_atom_site_fract_x
_atom_site_fract_y
_atom_site_fract_z
_atom_type_partial_charge
C0 C 0.70077 0.09332 0.09757 0.0
O1 O 0.68695 0.10327 0.11971 0.0
Cd2 Cd 0.63679 0.07534 0.14615 0.0
O3 O 0.68878 0.06607 0.09012 0.0
Cd4 Cd 0.64118 0.02108 0.11085 0.0
C5 C 0.60061 0.04239 0.0495 0.0
O6 O 0.63279 0.03434 0.18459 0.0
O7 O 0.59488 -0.00201 0.15377 0.0
O8 O 0.6662 -0.00585 0.13307 0.0
C9 C 0.60598 0.01371 0.18773 0.0
O10 O 0.60503 0.06035 0.08047 0.0
C11 C 0.65256 0.97348 0.10574 0.0
O12 O 0.61256 0.02634 0.05073 0.0
O13 O 0.63432 0.97542 0.07968 0.0
C14 C 0.69407 0.62748 0.16307 0.0
O15 O 0.68117 0.60384 0.14139 0.0
Cd16 Cd 0.63239 0.58288 0.10928 0.0
O17 O 0.68177 0.64313 0.16717 0.0
Cd18 Cd 0.6349 0.64146 0.14109 0.0
C19 C 0.59266 0.58087 0.20175 0.0
O20 O 0.62923 0.61955 0.06816 0.0
O21 O 0.59021 0.61916 0.09461 0.0
O22 O 0.66089 0.69246 0.11825 0.0
C23 C 0.60247 0.6139 0.06243 0.0
O24 O 0.59826 0.56725 0.17204 0.0
C25 C 0.64631 0.70017 0.14322 0.0
O26 O 0.60446 0.60849 0.20028 0.0
O27 O 0.62694 0.68073 0.16832 0.0
C28 C 0.9212 0.62175 0.41793 0.0
O29 O 0.91023 0.59712 0.43671 0.0
Cd30 Cd 0.9385 0.57696 0.469 0.0
O31 O 0.94946 0.63858 0.41619 0.0
Cd32 Cd -0.00523 0.63756 0.44207 0.0
C33 C 0.97937 0.5793 0.37826 0.0
O34 O 0.97724 0.61308 0.5137 0.0
O35 O 0.01814 0.61698 0.48826 0.0
O36 O 0.01765 0.68836 0.46537 0.0
C37 C -0.00049 0.60937 0.51957 0.0
O38 O 0.96017 0.5642 0.40756 0.0
C39 C 0.04197 0.69685 0.44453 0.0
O40 O -0.00631 0.60704 0.3803 0.0
O41 O 0.04381 0.678 0.4209 0.0
C42 C 0.31643 0.9357 0.59635 0.0
O43 O 0.33191 0.92661 0.61626 0.0
Cd44 Cd 0.38103 0.95613 0.64658 0.0
O45 O 0.32643 0.96292 0.59149 0.0
Cd46 Cd 0.37281 0.00897 0.61182 0.0
C47 C 0.41734 -0.00856 0.55201 0.0
O48 O 0.38084 -0.00493 0.68544 0.0
O49 O 0.41696 0.03476 0.65885 0.0
O50 O 0.343 0.03207 0.6288 0.0
C51 C 0.40644 0.01731 0.69103 0.0
O52 O 0.41459 0.97438 0.5835 0.0
C53 C 0.35816 0.0543 0.60479 0.0
O54 O 0.40279 0.0051 0.55204 0.0
O55 O 0.37944 0.05491 0.58283 0.0
C56 C 0.31843 0.40099 0.66395 0.0
O57 O 0.33187 0.42465 0.64241 0.0
Cd58 Cd 0.37958 0.4439 0.60695 0.0
O59 O 0.32964 0.38434 0.667 0.0
Cd60 Cd 0.37502 0.38376 0.63993 0.0
C61 C 0.42023 0.44523 0.69783 0.0
O62 O 0.3793 0.4052 0.56706 0.0
O63 O 0.41733 0.402 0.58898 0.0
O64 O 0.34485 0.3317 0.6239 0.0
C65 C 0.40511 0.40899 0.55876 0.0
O66 O 0.41554 0.45904 0.66739 0.0
C67 C 0.36132 0.32448 0.64538 0.0
O68 O 0.40668 0.41746 0.69798 0.0
O69 O 0.38368 0.34475 0.6654 0.0
C70 C 0.09223 0.40766 0.92004 0.0
O71 O 0.10335 0.43218 0.93922 0.0
Cd72 Cd 0.07474 0.4528 0.96803 0.0
O73 O 0.06392 0.39138 0.91708 0.0
Cd74 Cd 0.01857 0.39288 0.94158 0.0
C75 C 0.03499 0.45012 0.87524 0.0
O76 O 0.03498 0.41786 0.0129 0.0
O77 O -0.00414 0.41598 0.98363 0.0
O78 O -0.00579 0.34343 0.97066 0.0
C79 C 0.01331 0.42273 0.01645 0.0
O80 O 0.05488 0.46528 0.90379 0.0
C81 C 0.97148 0.33352 0.94559 0.0
O82 O 0.01936 0.42253 0.87906 0.0
O83 O 0.97101 0.35103 0.91742 0.0
H84 H 0.62423 0.04206 0.26669 0.0
H85 H 0.59293 0.03814 0.32989 0.0
H86 H 0.5143 0.97603 0.2586 0.0
H87 H 0.54547 0.97915 0.19595 0.0
H88 H 0.54859 0.05087 0.33595 0.0
H89 H 0.50372 0.93407 0.37348 0.0
H90 H 0.53466 0.95391 0.3363 0.0
H91 H 0.49677 0.94006 0.3176 0.0
C92 C 0.6003 0.02735 0.26468 0.0
C93 C 0.58733 0.01076 0.22648 0.0
C94 C 0.58245 0.0252 0.30074 0.0
C95 C 0.55133 0.00646 0.29923 0.0
C96 C 0.53833 -0.00994 0.26097 0.0
H97 H 0.42078 0.01584 0.47095 0.0
H98 H 0.45363 0.02031 0.40961 0.0
C99 C 0.55617 -0.00801 0.22508 0.0
C100 C 0.53238 0.00473 0.33714 0.0
H101 H 0.47976 0.95715 0.40885 0.0
C102 C 0.53366 0.03041 0.3521 0.0
C103 C 0.51319 0.97808 0.35852 0.0
C104 C 0.51218 0.95003 0.34597 0.0
C105 C 0.51597 0.03013 0.38748 0.0
C106 C 0.49589 0.00329 0.40766 0.0
C107 C 0.49491 0.97768 0.39304 0.0
C108 C 0.47624 0.00123 0.44481 0.0
C109 C 0.51948 0.05865 0.40342 0.0
C110 C 0.47747 0.98836 0.48457 0.0
C111 C 0.4584 0.98531 0.5193 0.0
C112 C 0.43774 -0.0048 0.51512 0.0
C113 C 0.43661 0.00823 0.47534 0.0
C114 C 0.45552 0.01098 0.44035 0.0
H115 H 0.54137 0.07739 0.39339 0.0
H116 H 0.50157 0.06181 0.38873 0.0
H117 H 0.51762 0.05888 0.43985 0.0
H118 H 0.49322 0.98063 0.48874 0.0
H119 H 0.45995 0.97526 0.54952 0.0
H120 H 0.56729 0.52263 0.21817 0.0
H121 H 0.5334 0.49482 0.27779 0.0
H122 H 0.53704 0.57282 0.32736 0.0
H123 H 0.57157 0.60112 0.26804 0.0
H124 H 0.54368 0.5407 0.39253 0.0
H125 H 0.44528 0.46969 0.28909 0.0
H126 H 0.47826 0.46873 0.27288 0.0
H127 H 0.47728 0.5021 0.26797 0.0
C128 C 0.56085 0.53395 0.24157 0.0
C129 C 0.57207 0.56413 0.23815 0.0
C130 C 0.54127 0.51793 0.27549 0.0
C131 C 0.53221 0.53163 0.30645 0.0
C132 C 0.54358 0.56179 0.30354 0.0
H133 H 0.38872 0.43573 0.49646 0.0
H134 H 0.41912 0.4665 0.43547 0.0
C135 C 0.56331 0.57792 0.26964 0.0
C136 C 0.51172 0.51453 0.34272 0.0
H137 H 0.44381 0.45466 0.36387 0.0
C138 C 0.52173 0.52205 0.38631 0.0
C139 C 0.48291 0.49046 0.33455 0.0
C140 C 0.47014 0.48242 0.2886 0.0
C141 C 0.50411 0.50554 0.42193 0.0
C142 C 0.47601 0.48052 0.41361 0.0
C143 C 0.46555 0.4736 0.37012 0.0
C144 C 0.45727 0.46112 0.44962 0.0
C145 C 0.51568 0.51519 0.46814 0.0
C146 C 0.46834 0.44729 0.477 0.0
C147 C 0.45109 0.4298 0.51188 0.0
C148 C 0.42231 0.42558 0.51974 0.0
C149 C 0.41083 0.4386 0.49129 0.0
C150 C 0.42818 0.45622 0.45649 0.0
H151 H 0.53279 0.5387 0.46934 0.0
H152 H 0.49723 0.51118 0.49106 0.0
H153 H 0.52636 0.50271 0.48001 0.0
H154 H 0.49042 0.45016 0.47155 0.0
H155 H 0.46046 0.41986 0.53298 0.0
H156 H -0.00952 0.42663 0.81281 0.0
H157 H 0.98148 0.45221 0.75275 0.0
H158 H 0.05878 0.53274 0.79288 0.0
H159 H 0.06765 0.50763 0.85328 0.0
H160 H 0.00956 0.53871 0.77726 0.0
H161 H 0.02871 0.48155 0.6384 0.0
H162 H 0.00079 0.45804 0.67719 0.0
H163 H 0.03918 0.47926 0.69438 0.0
C164 C 0.00567 0.44975 0.80869 0.0
C165 C 0.02984 0.46505 0.83781 0.0
C166 C 0.00054 0.4643 0.77426 0.0
C167 C 0.01967 0.4943 0.76808 0.0
C168 C 0.04377 0.50957 0.79706 0.0
H169 H 0.04597 0.601 0.54104 0.0
H170 H 0.04917 0.57299 0.60256 0.0
C171 C 0.04882 0.49513 0.83153 0.0
C172 C 0.01453 0.51011 0.73194 0.0
H173 H 0.01249 0.51483 0.61997 0.0
C174 C 0.0101 0.53346 0.74284 0.0
C175 C 0.01555 0.50336 0.68712 0.0
C176 C 0.02157 0.47937 0.67339 0.0
C177 C 0.00692 0.55043 0.7101 0.0
C178 C 0.00761 0.54348 0.66528 0.0
C179 C 0.01177 0.51997 0.6544 0.0
C180 C 0.00559 0.56116 0.62904 0.0
C181 C 0.00383 0.5762 0.72375 0.0
C182 C 0.98002 0.56387 0.62359 0.0
C183 C 0.9782 0.58009 0.58855 0.0
C184 C 0.00181 0.59357 0.55815 0.0
C185 C 0.0274 0.59087 0.56387 0.0
C186 C 0.02925 0.57481 0.59894 0.0
H187 H 0.01091 0.58267 0.75847 0.0
H188 H 0.01735 0.59523 0.70214 0.0
H189 H 0.98003 0.57043 0.72081 0.0
H190 H 0.96128 0.55306 0.64598 0.0
H191 H 0.95811 0.5816 0.58479 0.0
H192 H 0.5805 0.00254 0.98213 0.0
H193 H 0.54698 -0.00188 0.92175 0.0
H194 H 0.54305 0.07239 0.97156 0.0
H195 H 0.57599 0.07666 0.03244 0.0
H196 H 0.48776 0.02715 0.9505 0.0
H197 H 0.56743 0.04952 0.81323 0.0
H198 H 0.56229 0.0201 0.84831 0.0
H199 H 0.57919 0.05647 0.8701 0.0
C200 C 0.57265 0.01805 0.98012 0.0
C201 C 0.58103 0.04002 0.01207 0.0
C202 C 0.5536 0.01556 0.94546 0.0
C203 C 0.54287 0.03519 0.94184 0.0
C204 C 0.55114 0.05707 0.97369 0.0
H205 H 0.46092 0.06354 0.71223 0.0
H206 H 0.49293 0.06791 0.77465 0.0
C207 C 0.57003 0.05949 0.00844 0.0
C208 C 0.52247 0.03262 0.90548 0.0
H209 H 0.51701 0.03358 0.79348 0.0
C210 C 0.49415 0.02861 0.91615 0.0
C211 C 0.53103 0.0349 0.86074 0.0
C212 C 0.56174 0.04076 0.84729 0.0
C213 C 0.47402 0.02658 0.88326 0.0
C214 C 0.48226 0.02802 0.83849 0.0
C215 C 0.51067 0.03226 0.82784 0.0
C216 C 0.462 0.0257 0.80206 0.0
C217 C 0.44443 0.02356 0.89679 0.0
C218 C 0.43394 0.00054 0.79683 0.0
C219 C 0.41548 -0.00193 0.76134 0.0
C220 C 0.42496 0.02059 0.73018 0.0
C221 C 0.45299 0.04582 0.73568 0.0
C222 C 0.47133 0.04833 0.77127 0.0
H223 H 0.44499 0.03077 0.93134 0.0
H224 H 0.43813 0.03643 0.87486 0.0
H225 H 0.42674 0.00035 0.89445 0.0
H226 H 0.42656 0.98256 0.81967 0.0
H227 H 0.39411 0.97827 0.75779 0.0
H228 H 0.6233 0.60281 0.98626 0.0
H229 H 0.59397 0.57507 0.92222 0.0
H230 H 0.51294 0.55997 0.98691 0.0
H231 H 0.54212 0.58838 0.05025 0.0
H232 H 0.55087 0.51904 0.91571 0.0
H233 H 0.50415 0.58946 0.86914 0.0
H234 H 0.5342 0.60073 0.90848 0.0
H235 H 0.49596 0.57736 0.92519 0.0
C236 C 0.59926 0.59381 0.9866 0.0
C237 C 0.58504 0.59796 0.02313 0.0
C238 C 0.58253 0.57791 0.95007 0.0
C239 C 0.55131 0.56584 0.94946 0.0
C240 C 0.53707 0.56973 0.98611 0.0
H241 H 0.42529 0.42567 0.77928 0.0
H242 H 0.45809 0.45452 0.83989 0.0
C243 C 0.55378 0.58586 0.02241 0.0
C244 C 0.53352 0.54848 0.91108 0.0
H245 H 0.48158 0.5425 0.83569 0.0
C246 C 0.53587 0.52427 0.89796 0.0
C247 C 0.51426 0.55556 0.88759 0.0
C248 C 0.51219 0.58237 0.898 0.0
C249 C 0.5191 0.50664 0.86247 0.0
C250 C 0.49884 0.51297 0.84027 0.0
C251 C 0.49687 0.53745 0.85299 0.0
C252 C 0.4798 0.49494 0.80321 0.0
C253 C 0.52372 0.4818 0.84865 0.0
C254 C 0.48062 0.50813 0.76275 0.0
C255 C 0.46153 0.49185 0.72845 0.0
C256 C 0.4413 0.46194 0.73376 0.0
C257 C 0.44081 0.4486 0.77404 0.0
C258 C 0.45969 0.46504 0.80862 0.0
H259 H 0.54583 0.48526 0.85968 0.0
H260 H 0.50618 0.46136 0.86398 0.0
H261 H 0.52215 0.47893 0.81232 0.0
H262 H 0.49591 0.53116 0.75781 0.0
H263 H 0.46258 0.50277 0.69778 0.0
H264 H 0.04319 0.43502 0.09514 0.0
H265 H 0.03818 0.46136 0.15797 0.0
H266 H 0.9732 0.47365 0.08562 0.0
H267 H 0.97731 0.44659 0.02353 0.0
H268 H 0.04908 0.51635 0.16538 0.0
H269 H 0.92916 0.44027 0.19884 0.0
H270 H 0.9508 0.43128 0.16199 0.0
H271 H 0.93549 0.45343 0.14325 0.0
C272 C 0.02768 0.44317 0.09282 0.0
C273 C 0.01043 0.4385 0.0546 0.0
C274 C 0.02489 0.45826 0.12865 0.0
C275 C 0.0049 0.46901 0.12681 0.0
C276 C -0.01187 0.46486 0.0883 0.0
H277 H 0.00678 0.60184 0.29902 0.0
H278 H 0.01408 0.57567 0.23811 0.0
C279 C -0.00937 0.4495 0.05273 0.0
C280 C 0.00192 0.48502 0.16478 0.0
H281 H 0.95076 0.48647 0.23445 0.0
C282 C 0.02762 0.50973 0.18072 0.0
C283 C 0.97398 0.47612 0.18515 0.0
C284 C 0.94586 0.44865 0.17174 0.0
C285 C 0.02608 0.52606 0.21605 0.0
C286 C -0.00209 0.51789 0.23512 0.0
C287 C 0.9723 0.49294 0.21952 0.0
C288 C -0.00561 0.53426 0.27213 0.0
C289 C 0.05472 0.55148 0.23313 0.0
C290 C 0.98021 0.51957 0.31102 0.0
C291 C 0.97546 0.53429 0.34538 0.0
C292 C -0.01502 0.56412 0.34175 0.0
C293 C -0.00058 0.57892 0.30294 0.0
C294 C 0.00381 0.56403 0.26824 0.0
H295 H 0.07454 0.54952 0.22414 0.0
H296 H 0.05767 0.57188 0.21829 0.0
H297 H 0.05416 0.55333 0.26952 0.0
H298 H 0.97271 0.49661 0.31478 0.0
H299 H 0.9644 0.52225 0.3749 0.0
H300 H 0.62264 0.72456 0.19795 0.0
H301 H 0.62689 0.77252 0.19119 0.0
H302 H 0.68278 0.79051 0.07648 0.0
H303 H 0.67939 0.74299 0.08381 0.0
H304 H 0.70361 0.83752 0.12926 0.0
H305 H 0.58204 0.7921 0.10114 0.0
H306 H 0.59014 0.78043 0.15224 0.0
H307 H 0.59935 0.76974 0.10092 0.0
C308 C 0.63599 0.73881 0.17145 0.0
C309 C 0.6505 0.7299 0.14122 0.0
C310 C 0.63822 0.76613 0.16743 0.0
C311 C 0.65457 0.78483 0.13269 0.0
C312 C 0.66988 0.77636 0.10336 0.0
H313 H 0.63084 0.92868 0.04636 0.0
H314 H 0.6338 0.88406 0.0505 0.0
C315 C 0.6679 0.74918 0.1076 0.0
C316 C 0.65545 0.81306 0.12651 0.0
H317 H 0.61092 0.84323 0.11223 0.0
C318 C 0.68336 0.83878 0.12537 0.0
C319 C 0.62904 0.81466 0.12053 0.0
C320 C 0.59848 0.78775 0.11829 0.0
C321 C 0.68556 0.86607 0.11926 0.0
C322 C 0.65908 0.86776 0.11526 0.0
C323 C 0.63122 0.84199 0.11565 0.0
C324 C 0.65956 0.89593 0.11097 0.0
C325 C 0.71625 0.89272 0.11631 0.0
C326 C 0.67321 0.91756 0.1434 0.0
C327 C 0.67184 0.94323 0.14082 0.0
C328 C 0.65635 0.94755 0.10615 0.0
C329 C 0.64297 0.92602 0.07345 0.0
C330 C 0.6446 0.90048 0.07583 0.0
H331 H 0.73337 0.887 0.10601 0.0
H332 H 0.71651 0.90882 0.09262 0.0
H333 H 0.7228 0.90317 0.14923 0.0
H334 H 0.6842 0.91428 0.17144 0.0
H335 H 0.68213 0.95927 0.16678 0.0
H336 H 0.86039 0.58932 0.41008 0.0
H337 H 0.82736 0.60086 0.368 0.0
H338 H 0.90236 0.68454 0.3338 0.0
H339 H 0.93592 0.67291 0.37522 0.0
H340 H 0.81409 0.64504 0.37399 0.0
H341 H 0.86833 0.6489 0.21368 0.0
H342 H 0.87608 0.63499 0.2632 0.0
H343 H 0.89238 0.67357 0.25538 0.0
C344 C 0.86996 0.61028 0.39388 0.0
C345 C 0.90091 0.63006 0.39568 0.0
C346 C 0.85098 0.61687 0.36988 0.0
C347 C 0.86246 0.64335 0.34719 0.0
C348 C 0.89313 0.66371 0.35033 0.0
H349 H 0.72729 0.67469 0.21688 0.0
H350 H 0.77149 0.68463 0.26051 0.0
C351 C 0.91224 0.65708 0.37422 0.0
C352 C 0.84215 0.64874 0.31907 0.0
H353 H 0.82603 0.65462 0.21167 0.0
C354 C 0.81686 0.64754 0.33854 0.0
C355 C 0.84579 0.65181 0.2728 0.0
C356 C 0.87195 0.65219 0.24981 0.0
C357 C 0.79445 0.64808 0.31289 0.0
C358 C 0.79777 0.6505 0.26654 0.0
C359 C 0.82368 0.65296 0.24723 0.0
C360 C 0.77304 0.64678 0.23724 0.0
C361 C 0.76663 0.64434 0.33542 0.0
C362 C 0.76007 0.62295 0.20834 0.0
C363 C 0.73512 0.61739 0.18315 0.0
C364 C 0.72251 0.63553 0.18629 0.0
C365 C 0.7363 0.66016 0.21389 0.0
C366 C 0.76145 0.66578 0.23906 0.0
H367 H 0.76521 0.63735 0.37027 0.0
H368 H 0.76685 0.66539 0.3351 0.0
H369 H 0.74621 0.62802 0.31779 0.0
H370 H 0.7687 0.60805 0.2063 0.0
H371 H 0.72524 0.59832 0.16212 0.0
H372 H 0.0991 0.71817 0.41442 0.0
H373 H 0.14348 0.76377 0.43584 0.0
H374 H 0.08819 0.78803 0.51075 0.0
H375 H 0.04371 0.74215 0.49028 0.0
H376 H 0.16194 0.82306 0.42928 0.0
H377 H 0.14452 0.78579 0.60356 0.0
H378 H 0.12392 0.76189 0.55856 0.0
H379 H 0.11378 0.78764 0.57904 0.0
C380 C 0.0963 0.73339 0.43489 0.0
C381 C 0.06794 0.72637 0.45118 0.0
C382 C 0.1217 0.75946 0.44706 0.0
C383 C 0.11918 0.77897 0.47562 0.0
C384 C 0.09068 0.77296 0.48945 0.0
H385 H 0.27558 0.94617 0.55375 0.0
H386 H 0.22681 0.91011 0.52356 0.0
C387 C 0.06528 0.7468 0.47754 0.0
C388 C 0.14657 0.80432 0.49351 0.0
H389 H 0.18598 0.83185 0.58885 0.0
C390 C 0.16715 0.82517 0.46419 0.0
C391 C 0.15343 0.80674 0.53904 0.0
C392 C 0.13293 0.78424 0.57192 0.0
C393 C 0.19463 0.84822 0.47915 0.0
C394 C 0.20142 0.85061 0.52468 0.0
C395 C 0.1806 0.83004 0.55401 0.0
C396 C 0.23089 0.87284 0.54241 0.0
C397 C 0.21664 0.86911 0.44598 0.0
C398 C 0.24903 0.86383 0.56381 0.0
C399 C 0.27666 0.88425 0.58139 0.0
C400 C 0.2868 0.91424 0.57804 0.0
C401 C 0.26851 0.92326 0.55676 0.0
C402 C 0.24072 0.90271 0.53922 0.0
H403 H 0.21062 0.86078 0.41173 0.0
H404 H 0.21689 0.89015 0.44795 0.0
H405 H 0.23961 0.87335 0.45315 0.0
H406 H 0.24183 0.84088 0.56673 0.0
H407 H 0.2901 0.87646 0.59748 0.0
H408 H 0.31392 0.27641 0.60871 0.0
H409 H 0.3067 0.2272 0.60344 0.0
H410 H 0.38942 0.2553 0.67387 0.0
H411 H 0.39643 0.30428 0.68018 0.0
H412 H 0.34182 0.21056 0.562 0.0
H413 H 0.33398 0.18109 0.73825 0.0
H414 H 0.3311 0.2119 0.71933 0.0
H415 H 0.36725 0.21492 0.72657 0.0
C416 C 0.33035 0.27199 0.62365 0.0
C417 C 0.3557 0.29422 0.64501 0.0
C418 C 0.32621 0.24387 0.62053 0.0
C419 C 0.34729 0.23743 0.63878 0.0
C420 C 0.37246 0.25953 0.6605 0.0
H421 H 0.39129 0.10701 0.56457 0.0
H422 H 0.38524 0.14973 0.57085 0.0
C423 C 0.37653 0.28759 0.66385 0.0
C424 C 0.34405 0.20818 0.63268 0.0
H425 H 0.34468 0.15242 0.68805 0.0
C426 C 0.34208 0.19767 0.5896 0.0
C427 C 0.34387 0.19113 0.66867 0.0
C428 C 0.34384 0.20019 0.7158 0.0
C429 C 0.34116 0.17115 0.58147 0.0
C430 C 0.34294 0.15502 0.61734 0.0
C431 C 0.34368 0.16495 0.66049 0.0
C432 C 0.34525 0.12841 0.61095 0.0
C433 C 0.33823 0.16067 0.53451 0.0
C434 C 0.32504 0.10226 0.63189 0.0
C435 C 0.32865 0.07785 0.62878 0.0
C436 C 0.35262 0.07917 0.60472 0.0
C437 C 0.37245 0.10519 0.58304 0.0
C438 C 0.36892 0.12962 0.58638 0.0
H439 H 0.32741 0.1699 0.51333 0.0
H440 H 0.36087 0.16793 0.52095 0.0
H441 H 0.32499 0.13655 0.53254 0.0
H442 H 0.30669 0.10087 0.65119 0.0
H443 H 0.31303 0.05814 0.64594 0.0
H444 H 0.15326 0.43871 0.916 0.0
H445 H 0.18629 0.4273 0.87377 0.0
H446 H 0.11061 0.34573 0.83304 0.0
H447 H 0.07708 0.35726 0.87462 0.0
H448 H 0.19805 0.38191 0.87612 0.0
H449 H 0.14713 0.38526 0.71594 0.0
H450 H 0.13915 0.39785 0.76661 0.0
H451 H 0.12202 0.35952 0.75559 0.0
C452 C 0.14354 0.41821 0.89838 0.0
C453 C 0.11243 0.39906 0.89832 0.0
C454 C 0.16252 0.41169 0.87431 0.0
C455 C 0.15086 0.38591 0.84966 0.0
C456 C 0.11999 0.36604 0.85111 0.0
H457 H 0.28361 0.35313 0.71547 0.0
H458 H 0.23985 0.34392 0.7594 0.0
C459 C 0.1009 0.3726 0.8751 0.0
C460 C 0.17119 0.38089 0.82108 0.0
H461 H 0.18861 0.37827 0.71326 0.0
C462 C 0.19583 0.3807 0.84052 0.0
C463 C 0.16828 0.37956 0.77463 0.0
C464 C 0.14289 0.38077 0.75175 0.0
C465 C 0.21828 0.38039 0.81475 0.0
C466 C 0.21567 0.37965 0.76827 0.0
C467 C 0.19042 0.37865 0.7489 0.0
C468 C 0.24044 0.38338 0.73918 0.0
C469 C 0.24539 0.3825 0.83741 0.0
C470 C 0.25453 0.40799 0.71199 0.0
C471 C 0.27926 0.41317 0.68662 0.0
C472 C 0.2905 0.39383 0.68788 0.0
C473 C 0.27568 0.36858 0.71396 0.0
C474 C 0.25077 0.36335 0.73929 0.0
H475 H 0.24654 0.38846 0.87275 0.0
H476 H 0.24441 0.36113 0.83546 0.0
H477 H 0.26629 0.39893 0.82097 0.0
H478 H 0.24687 0.42369 0.71131 0.0
H479 H 0.28999 0.43278 0.66684 0.0
H480 H 0.96168 0.29623 0.01355 0.0
H481 H 0.9165 0.25008 0.02857 0.0
H482 H 0.87803 0.25692 0.90589 0.0
H483 H 0.9229 0.30388 0.8915 0.0
H484 H 0.84044 0.24596 0.96922 0.0
H485 H 0.88183 0.16851 0.98654 0.0
H486 H 0.90245 0.19914 0.02214 0.0
H487 H 0.90453 0.20432 0.96324 0.0
C488 C 0.94385 0.28767 0.98932 0.0
C489 C 0.94582 0.30375 0.95139 0.0
C490 C 0.91807 0.26107 -0.00222 0.0
C491 C 0.89397 0.24966 0.96804 0.0
C492 C 0.89638 0.26518 0.92924 0.0
H493 H 0.731 0.08371 0.03107 0.0
H494 H 0.77744 0.11993 -0.00485 0.0
C495 C 0.92203 0.29201 0.92104 0.0
C496 C 0.86513 0.22351 0.98008 0.0
H497 H 0.83497 0.15519 0.02389 0.0
C498 C 0.83921 0.22595 0.98039 0.0
C499 C 0.86321 0.1971 0.994 0.0
C500 C 0.88947 0.19201 0.99097 0.0
C501 C 0.81195 0.20344 -0.00358 0.0
C502 C 0.81072 0.17812 0.01398 0.0
C503 C 0.8361 0.17489 0.01133 0.0
C504 C 0.78369 0.1556 0.03707 0.0
C505 C 0.78477 0.20719 -0.00533 0.0
C506 C 0.77242 0.16341 0.07346 0.0
C507 C 0.74592 0.14294 0.09372 0.0
C508 C 0.73033 0.11403 0.07852 0.0
C509 C 0.74245 0.10582 0.04349 0.0
C510 C 0.76894 0.12648 0.02289 0.0
H511 H 0.78673 0.22233 0.96789 0.0
H512 H 0.76395 0.18603 0.98943 0.0
H513 H 0.78278 0.21661 0.02629 0.0
H514 H 0.78393 0.18553 0.08584 0.0
H515 H 0.73746 0.14991 0.12101 0.0
loop_
_geom_bond_atom_site_label_1
_geom_bond_atom_site_label_2
_geom_bond_distance
_geom_bond_site_symmetry_2
_ccdc_geom_bond_type
C0 O1 1.306 . S
C0 O3 1.160 . S
O1 C0 1.306 . S
O1 Cd2 2.228 . S
Cd2 O1 2.228 . S
Cd2 O6 2.273 . S
Cd2 O10 2.277 . S
O3 C0 1.160 . S
O3 Cd4 2.203 . S
Cd4 O3 2.203 . S
Cd4 O6 2.411 . S
Cd4 O7 2.333 1_545 S
Cd4 O8 2.352 1_545 S
Cd4 O12 2.277 1_554 S
Cd4 O13 2.356 1_545 S
C5 O10 1.209 1_556 S
C5 O12 1.226 . S
O6 Cd2 2.273 . S
O6 Cd4 2.411 . S
O6 C9 1.320 . S
O7 Cd4 2.333 1_565 S
O7 C9 1.214 1_565 S
O8 Cd4 2.352 1_565 S
O8 C11 1.258 . S
C9 O6 1.320 . S
C9 O7 1.214 1_545 S
O10 Cd2 2.277 . S
O10 C5 1.209 1_554 S
C11 O8 1.258 . S
C11 O13 1.282 . S
O12 Cd4 2.277 1_556 S
O12 C5 1.226 . S
O13 Cd4 2.356 1_565 S
O13 C11 1.282 . S
C14 O15 1.306 . S
C14 O17 1.160 . S
O15 C14 1.306 . S
O15 Cd16 2.228 . S
Cd16 O15 2.228 . S
Cd16 O20 2.273 . S
Cd16 O24 2.277 . S
O17 C14 1.160 . S
O17 Cd18 2.203 . S
Cd18 O17 2.203 . S
Cd18 O20 2.411 . S
Cd18 O21 2.333 . S
Cd18 O22 2.352 . S
Cd18 O26 2.277 . S
Cd18 O27 2.356 . S
C19 O24 1.209 . S
C19 O26 1.226 . S
O20 Cd16 2.273 . S
O20 Cd18 2.411 . S
O20 C23 1.320 . S
O21 Cd18 2.333 . S
O21 C23 1.214 . S
O22 Cd18 2.352 . S
O22 C25 1.258 . S
C23 O20 1.320 . S
C23 O21 1.214 . S
O24 Cd16 2.277 . S
O24 C19 1.209 . S
C25 O22 1.258 . S
C25 O27 1.282 . S
O26 Cd18 2.277 . S
O26 C19 1.226 . S
O27 Cd18 2.356 . S
O27 C25 1.282 . S
C28 O29 1.306 . S
C28 O31 1.151 1_655 S
O29 C28 1.306 . S
O29 Cd30 2.228 . S
Cd30 O29 2.228 . S
Cd30 O34 2.273 1_655 S
Cd30 O38 2.277 . S
O31 C28 1.151 1_455 S
O31 Cd32 2.213 . S
Cd32 O31 2.213 . S
Cd32 O34 2.411 . S
Cd32 O35 2.333 . S
Cd32 O36 2.352 . S
Cd32 O40 2.277 . S
Cd32 O41 2.356 . S
C33 O38 1.209 1_455 S
C33 O40 1.226 . S
O34 Cd30 2.273 1_455 S
O34 Cd32 2.411 . S
O34 C37 1.320 . S
O35 Cd32 2.333 . S
O35 C37 1.214 . S
O36 Cd32 2.352 . S
O36 C39 1.258 . S
C37 O34 1.320 . S
C37 O35 1.214 . S
O38 Cd30 2.277 . S
O38 C33 1.209 1_655 S
C39 O36 1.258 . S
C39 O41 1.282 . S
O40 Cd32 2.277 . S
O40 C33 1.226 . S
O41 Cd32 2.356 . S
O41 C39 1.282 . S
C42 O43 1.306 . S
C42 O45 1.160 1_565 S
O43 C42 1.306 . S
O43 Cd44 2.228 . S
Cd44 O43 2.228 . S
Cd44 O48 2.273 1_565 S
Cd44 O52 2.277 1_565 S
O45 C42 1.160 1_545 S
O45 Cd46 2.203 . S
Cd46 O45 2.203 . S
Cd46 O48 2.411 . S
Cd46 O49 2.333 . S
Cd46 O50 2.352 . S
Cd46 O54 2.277 . S
Cd46 O55 2.356 . S
C47 O52 1.209 . S
C47 O54 1.226 . S
O48 Cd44 2.273 1_545 S
O48 Cd46 2.411 . S
O48 C51 1.320 . S
O49 Cd46 2.333 . S
O49 C51 1.214 . S
O50 Cd46 2.352 . S
O50 C53 1.258 . S
C51 O48 1.320 . S
C51 O49 1.214 . S
O52 Cd44 2.277 1_545 S
O52 C47 1.209 . S
C53 O50 1.258 . S
C53 O55 1.282 . S
O54 Cd46 2.277 . S
O54 C47 1.226 . S
O55 Cd46 2.356 . S
O55 C53 1.282 . S
C56 O57 1.306 . S
C56 O59 1.160 . S
O57 C56 1.306 . S
O57 Cd58 2.228 . S
Cd58 O57 2.228 . S
Cd58 O62 2.273 . S
Cd58 O66 2.277 . S
O59 C56 1.160 . S
O59 Cd60 2.203 . S
Cd60 O59 2.203 . S
Cd60 O62 2.411 . S
Cd60 O63 2.333 . S
Cd60 O64 2.352 . S
Cd60 O68 2.277 . S
Cd60 O69 2.356 . S
C61 O66 1.209 . S
C61 O68 1.226 . S
O62 Cd58 2.273 . S
O62 Cd60 2.411 . S
O62 C65 1.320 . S
O63 Cd60 2.333 . S
O63 C65 1.214 . S
O64 Cd60 2.352 . S
O64 C67 1.258 . S
C65 O62 1.320 . S
C65 O63 1.214 . S
O66 Cd58 2.277 . S
O66 C61 1.209 . S
C67 O64 1.258 . S
C67 O69 1.282 . S
O68 Cd60 2.277 . S
O68 C61 1.226 . S
O69 Cd60 2.356 . S
O69 C67 1.282 . S
C70 O71 1.306 . S
C70 O73 1.160 . S
O71 C70 1.306 . S
O71 Cd72 2.228 . S
Cd72 O71 2.228 . S
Cd72 O76 2.273 . S
Cd72 O80 2.277 . S
O73 C70 1.160 . S
O73 Cd74 2.203 . S
Cd74 O73 2.203 . S
Cd74 O76 2.411 . S
Cd74 O77 2.333 1_455 S
Cd74 O78 2.352 1_455 S
Cd74 O82 2.277 . S
Cd74 O83 2.356 1_455 S
C75 O80 1.209 . S
C75 O82 1.226 . S
O76 Cd72 2.273 . S
O76 Cd74 2.411 . S
O76 C79 1.320 . S
O77 Cd74 2.333 1_655 S
O77 C79 1.214 1_655 S
O78 Cd74 2.352 1_655 S
O78 C81 1.258 . S
C79 O76 1.320 . S
C79 O77 1.214 1_455 S
O80 Cd72 2.277 . S
O80 C75 1.209 . S
C81 O78 1.258 . S
C81 O83 1.282 . S
O82 Cd74 2.277 . S
O82 C75 1.226 . S
O83 Cd74 2.356 1_655 S
O83 C81 1.282 . S
H84 C92 0.929 . S
H85 C94 0.930 . S
H86 C96 0.930 . S
H87 C99 0.929 . S
H88 C102 0.930 . S
H89 C104 0.960 . S
H90 C104 0.960 . S
H91 C104 0.960 . S
C92 H84 0.929 . S
C92 C93 1.377 . S
C92 C94 1.384 . S
C93 C92 1.377 . S
C93 C99 1.390 . S
C94 H85 0.930 . S
C94 C92 1.384 . S
C94 C95 1.372 . S
C95 C94 1.372 . S
C95 C96 1.400 . S
C95 C100 1.490 . S
C96 H86 0.930 . S
C96 C95 1.400 . S
C96 C99 1.386 . S
H97 C113 0.930 . S
H98 C114 0.931 . S
C99 H87 0.929 . S
C99 C93 1.390 . S
C99 C96 1.386 . S
C100 C95 1.490 . S
C100 C102 1.395 . S
C100 C103 1.403 . S
H101 C107 0.930 1_565 S
C102 H88 0.930 . S
C102 C100 1.395 . S
C102 C105 1.403 . S
C103 C100 1.403 . S
C103 C104 1.524 1_545 S
C103 C107 1.400 . S
C104 H89 0.960 . S
C104 H90 0.960 . S
C104 H91 0.960 . S
C104 C103 1.524 1_565 S
C105 C102 1.403 . S
C105 C106 1.392 . S
C105 C109 1.495 . S
C106 C105 1.392 . S
C106 C107 1.385 . S
C106 C108 1.478 . S
C107 H101 0.930 1_545 S
C107 C103 1.400 . S
C107 C106 1.385 . S
C108 C106 1.478 . S
C108 C110 1.381 . S
C108 C114 1.383 . S
C109 C105 1.495 . S
C109 H115 0.959 . S
C109 H116 0.961 . S
C109 H117 0.960 . S
C110 C108 1.381 . S
C110 C111 1.394 . S
C110 H118 0.930 . S
C111 C110 1.394 . S
C111 C112 1.383 . S
C111 H119 0.931 1_545 S
C112 C111 1.383 . S
C112 C113 1.377 . S
C113 H97 0.930 . S
C113 C112 1.377 . S
C113 C114 1.379 . S
C114 H98 0.931 . S
C114 C108 1.383 . S
C114 C113 1.379 . S
H115 C109 0.959 . S
H116 C109 0.961 . S
H117 C109 0.960 . S
H118 C110 0.930 . S
H119 C111 0.931 1_565 S
H120 C128 0.929 . S
H121 C130 0.930 . S
H122 C132 0.930 . S
H123 C135 0.929 . S
H124 C138 0.930 . S
H125 C140 0.960 . S
H126 C140 0.960 . S
H127 C140 0.960 . S
C128 H120 0.929 . S
C128 C129 1.377 . S
C128 C130 1.384 . S
C129 C128 1.377 . S
C129 C135 1.390 . S
C130 H121 0.930 . S
C130 C128 1.384 . S
C130 C131 1.372 . S
C131 C130 1.372 . S
C131 C132 1.400 . S
C131 C136 1.490 . S
C132 H122 0.930 . S
C132 C131 1.400 . S
C132 C135 1.386 . S
H133 C149 0.930 . S
H134 C150 0.931 . S
C135 H123 0.929 . S
C135 C129 1.390 . S
C135 C132 1.386 . S
C136 C131 1.490 . S
C136 C138 1.395 . S
C136 C139 1.403 . S
H137 C143 0.930 . S
C138 H124 0.930 . S
C138 C136 1.395 . S
C138 C141 1.403 . S
C139 C136 1.403 . S
C139 C140 1.524 . S
C139 C143 1.400 . S
C140 H125 0.960 . S
C140 H126 0.960 . S
C140 H127 0.960 . S
C140 C139 1.524 . S
C141 C138 1.403 . S
C141 C142 1.392 . S
C141 C145 1.495 . S
C142 C141 1.392 . S
C142 C143 1.385 . S
C142 C144 1.478 . S
C143 H137 0.930 . S
C143 C139 1.400 . S
C143 C142 1.385 . S
C144 C142 1.478 . S
C144 C146 1.381 . S
C144 C150 1.383 . S
C145 C141 1.495 . S
C145 H151 0.959 . S
C145 H152 0.961 . S
C145 H153 0.960 . S
C146 C144 1.381 . S
C146 C147 1.394 . S
C146 H154 0.930 . S
C147 C146 1.394 . S
C147 C148 1.383 . S
C147 H155 0.929 . S
C148 C147 1.383 . S
C148 C149 1.377 . S
C149 H133 0.930 . S
C149 C148 1.377 . S
C149 C150 1.379 . S
C150 H134 0.931 . S
C150 C144 1.383 . S
C150 C149 1.379 . S
H151 C145 0.959 . S
H152 C145 0.961 . S
H153 C145 0.960 . S
H154 C146 0.930 . S
H155 C147 0.929 . S
H156 C164 0.929 1_655 S
H157 C166 0.930 1_655 S
H158 C168 0.930 . S
H159 C171 0.929 . S
H160 C174 0.930 . S
H161 C176 0.960 . S
H162 C176 0.960 1_655 S
H163 C176 0.960 . S
C164 H156 0.929 1_455 S
C164 C165 1.377 . S
C164 C166 1.384 . S
C165 C164 1.377 . S
C165 C171 1.390 . S
C166 H157 0.930 1_455 S
C166 C164 1.384 . S
C166 C167 1.372 . S
C167 C166 1.372 . S
C167 C168 1.400 . S
C167 C172 1.490 . S
C168 H158 0.930 . S
C168 C167 1.400 . S
C168 C171 1.386 . S
H169 C185 0.930 . S
H170 C186 0.931 . S
C171 H159 0.929 . S
C171 C165 1.390 . S
C171 C168 1.386 . S
C172 C167 1.490 . S
C172 C174 1.395 . S
C172 C175 1.403 . S
H173 C179 0.930 . S
C174 H160 0.930 . S
C174 C172 1.395 . S
C174 C177 1.403 . S
C175 C172 1.403 . S
C175 C176 1.524 . S
C175 C179 1.400 . S
C176 H161 0.960 . S
C176 H162 0.960 1_455 S
C176 H163 0.960 . S
C176 C175 1.524 . S
C177 C174 1.403 . S
C177 C178 1.392 . S
C177 C181 1.495 . S
C178 C177 1.392 . S
C178 C179 1.385 . S
C178 C180 1.478 . S
C179 H173 0.930 . S
C179 C175 1.400 . S
C179 C178 1.385 . S
C180 C178 1.478 . S
C180 C182 1.381 . S
C180 C186 1.383 . S
C181 C177 1.495 . S
C181 H187 0.959 . S
C181 H188 0.961 . S
C181 H189 0.960 . S
C182 C180 1.381 . S
C182 C183 1.394 . S
C182 H190 0.930 1_455 S
C183 C182 1.394 . S
C183 C184 1.383 . S
C183 H191 0.929 1_455 S
C184 C183 1.383 . S
C184 C185 1.377 . S
C185 H169 0.930 . S
C185 C184 1.377 . S
C185 C186 1.379 . S
C186 H170 0.931 . S
C186 C180 1.383 . S
C186 C185 1.379 . S
H187 C181 0.959 . S
H188 C181 0.961 . S
H189 C181 0.960 . S
H190 C182 0.930 1_655 S
H191 C183 0.929 1_655 S
H192 C200 0.929 1_565 S
H193 C202 0.930 1_565 S
H194 C204 0.930 . S
H195 C207 0.929 . S
H196 C210 0.930 . S
H197 C212 0.960 . S
H198 C212 0.960 . S
H199 C212 0.960 . S
C200 H192 0.929 1_545 S
C200 C201 1.377 . S
C200 C202 1.384 . S
C201 C200 1.377 . S
C201 C207 1.390 . S
C202 H193 0.930 1_545 S
C202 C200 1.384 . S
C202 C203 1.372 . S
C203 C202 1.372 . S
C203 C204 1.400 . S
C203 C208 1.490 . S
C204 H194 0.930 . S
C204 C203 1.400 . S
C204 C207 1.386 . S
H205 C221 0.930 . S
H206 C222 0.931 . S
C207 H195 0.929 . S
C207 C201 1.390 . S
C207 C204 1.386 . S
C208 C203 1.490 . S
C208 C210 1.395 . S
C208 C211 1.403 . S
H209 C215 0.930 . S
C210 H196 0.930 . S
C210 C208 1.395 . S
C210 C213 1.403 . S
C211 C208 1.403 . S
C211 C212 1.524 . S
C211 C215 1.400 . S
C212 H197 0.960 . S
C212 H198 0.960 . S
C212 H199 0.960 . S
C212 C211 1.524 . S
C213 C210 1.403 . S
C213 C214 1.392 . S
C213 C217 1.495 . S
C214 C213 1.392 . S
C214 C215 1.385 . S
C214 C216 1.478 . S
C215 H209 0.930 . S
C215 C211 1.400 . S
C215 C214 1.385 . S
C216 C214 1.478 . S
C216 C218 1.381 . S
C216 C222 1.383 . S
C217 C213 1.495 . S
C217 H223 0.959 . S
C217 H224 0.961 . S
C217 H225 0.960 1_545 S
C218 C216 1.381 . S
C218 C219 1.394 . S
C218 H226 0.930 1_545 S
C219 C218 1.394 . S
C219 C220 1.383 . S
C219 H227 0.929 1_545 S
C220 C219 1.383 . S
C220 C221 1.377 . S
C221 H205 0.930 . S
C221 C220 1.377 . S
C221 C222 1.379 . S
C222 H206 0.931 . S
C222 C216 1.383 . S
C222 C221 1.379 . S
H223 C217 0.959 . S
H224 C217 0.961 . S
H225 C217 0.960 1_565 S
H226 C218 0.930 1_565 S
H227 C219 0.929 1_565 S
H228 C236 0.929 . S
H229 C238 0.930 . S
H230 C240 0.930 . S
H231 C243 0.929 . S
H232 C246 0.930 . S
H233 C248 0.960 1_556 S
H234 C248 0.960 1_556 S
H235 C248 0.960 . S
C236 H228 0.929 . S
C236 C237 1.377 . S
C236 C238 1.384 . S
C237 C236 1.377 . S
C237 C243 1.390 . S
C238 H229 0.930 . S
C238 C236 1.384 . S
C238 C239 1.372 . S
C239 C238 1.372 . S
C239 C240 1.400 . S
C239 C244 1.490 . S
C240 H230 0.930 . S
C240 C239 1.400 . S
C240 C243 1.386 . S
H241 C257 0.930 . S
H242 C258 0.931 . S
C243 H231 0.929 . S
C243 C237 1.390 . S
C243 C240 1.386 . S
C244 C239 1.490 . S
C244 C246 1.395 . S
C244 C247 1.403 1_554 S
H245 C251 0.930 . S
C246 H232 0.930 . S
C246 C244 1.395 . S
C246 C249 1.403 1_554 S
C247 C244 1.403 1_556 S
C247 C248 1.524 1_556 S
C247 C251 1.400 . S
C248 H233 0.960 1_554 S
C248 H234 0.960 1_554 S
C248 H235 0.960 . S
C248 C247 1.524 1_554 S
C249 C246 1.403 1_556 S
C249 C250 1.392 . S
C249 C253 1.495 . S
C250 C249 1.392 . S
C250 C251 1.385 . S
C250 C252 1.478 . S
C251 H245 0.930 . S
C251 C247 1.400 . S
C251 C250 1.385 . S
C252 C250 1.478 . S
C252 C254 1.381 . S
C252 C258 1.383 . S
C253 C249 1.495 . S
C253 H259 0.959 . S
C253 H260 0.961 . S
C253 H261 0.960 . S
C254 C252 1.381 . S
C254 C255 1.394 . S
C254 H262 0.930 . S
C255 C254 1.394 . S
C255 C256 1.383 . S
C255 H263 0.929 . S
C256 C255 1.383 . S
C256 C257 1.377 . S
C257 H241 0.930 . S
C257 C256 1.377 . S
C257 C258 1.379 . S
C258 H242 0.931 . S
C258 C252 1.383 . S
C258 C257 1.379 . S
H259 C253 0.959 . S
H260 C253 0.961 . S
H261 C253 0.960 . S
H262 C254 0.930 . S
H263 C255 0.929 . S
H264 C272 0.929 . S
H265 C274 0.930 . S
H266 C276 0.930 . S
H267 C279 0.929 1_556 S
H268 C282 0.930 . S
H269 C284 0.960 . S
H270 C284 0.960 . S
H271 C284 0.960 . S
C272 H264 0.929 . S
C272 C273 1.377 . S
C272 C274 1.384 . S
C273 C272 1.377 . S
C273 C279 1.390 1_455 S
C274 H265 0.930 . S
C274 C272 1.384 . S
C274 C275 1.372 . S
C275 C274 1.372 . S
C275 C276 1.400 1_455 S
C275 C280 1.490 . S
C276 H266 0.930 . S
C276 C275 1.400 1_655 S
C276 C279 1.386 . S
H277 C293 0.930 1_655 S
H278 C294 0.931 1_655 S
C279 H267 0.929 1_554 S
C279 C273 1.390 1_655 S
C279 C276 1.386 . S
C280 C275 1.490 . S
C280 C282 1.395 . S
C280 C283 1.403 1_455 S
H281 C287 0.930 . S
C282 H268 0.930 . S
C282 C280 1.395 . S
C282 C285 1.403 . S
C283 C280 1.403 1_655 S
C283 C284 1.524 . S
C283 C287 1.400 . S
C284 H269 0.960 . S
C284 H270 0.960 . S
C284 H271 0.960 . S
C284 C283 1.524 . S
C285 C282 1.403 . S
C285 C286 1.392 . S
C285 C289 1.495 . S
C286 C285 1.392 . S
C286 C287 1.385 1_455 S
C286 C288 1.478 . S
C287 H281 0.930 . S
C287 C283 1.400 . S
C287 C286 1.385 1_655 S
C288 C286 1.478 . S
C288 C290 1.381 . S
C288 C294 1.383 . S
C289 C285 1.495 . S
C289 H295 0.959 . S
C289 H296 0.961 . S
C289 H297 0.960 . S
C290 C288 1.381 . S
C290 C291 1.394 . S
C290 H298 0.930 . S
C291 C290 1.394 . S
C291 C292 1.383 . S
C291 H299 0.929 . S
C292 C291 1.383 . S
C292 C293 1.377 . S
C293 H277 0.930 1_455 S
C293 C292 1.377 . S
C293 C294 1.379 . S
C294 H278 0.931 1_455 S
C294 C288 1.383 . S
C294 C293 1.379 . S
H295 C289 0.959 . S
H296 C289 0.961 . S
H297 C289 0.960 . S
H298 C290 0.930 . S
H299 C291 0.929 . S
H300 C308 0.929 . S
H301 C310 0.930 . S
H302 C312 0.930 . S
H303 C315 0.929 . S
H304 C318 0.930 . S
H305 C320 0.960 . S
H306 C320 0.960 . S
H307 C320 0.960 . S
C308 H300 0.929 . S
C308 C309 1.377 . S
C308 C310 1.384 . S
C309 C308 1.377 . S
C309 C315 1.390 . S
C310 H301 0.930 . S
C310 C308 1.384 . S
C310 C311 1.372 . S
C311 C310 1.372 . S
C311 C312 1.400 . S
C311 C316 1.490 . S
C312 H302 0.930 . S
C312 C311 1.400 . S
C312 C315 1.386 . S
H313 C329 0.930 . S
H314 C330 0.931 . S
C315 H303 0.929 . S
C315 C309 1.390 . S
C315 C312 1.386 . S
C316 C311 1.490 . S
C316 C318 1.395 . S
C316 C319 1.403 . S
H317 C323 0.930 . S
C318 H304 0.930 . S
C318 C316 1.395 . S
C318 C321 1.403 . S
C319 C316 1.403 . S
C319 C320 1.524 . S
C319 C323 1.400 . S
C320 H305 0.960 . S
C320 H306 0.960 . S
C320 H307 0.960 . S
C320 C319 1.524 . S
C321 C318 1.403 . S
C321 C322 1.392 . S
C321 C325 1.495 . S
C322 C321 1.392 . S
C322 C323 1.385 . S
C322 C324 1.478 . S
C323 H317 0.930 . S
C323 C319 1.400 . S
C323 C322 1.385 . S
C324 C322 1.478 . S
C324 C326 1.381 . S
C324 C330 1.383 . S
C325 C321 1.495 . S
C325 H331 0.959 . S
C325 H332 0.961 . S
C325 H333 0.960 . S
C326 C324 1.381 . S
C326 C327 1.394 . S
C326 H334 0.930 . S
C327 C326 1.394 . S
C327 C328 1.383 . S
C327 H335 0.929 . S
C328 C327 1.383 . S
C328 C329 1.377 . S
C329 H313 0.930 . S
C329 C328 1.377 . S
C329 C330 1.379 . S
C330 H314 0.931 . S
C330 C324 1.383 . S
C330 C329 1.379 . S
H331 C325 0.959 . S
H332 C325 0.961 . S
H333 C325 0.960 . S
H334 C326 0.930 . S
H335 C327 0.929 . S
H336 C344 0.929 . S
H337 C346 0.930 . S
H338 C348 0.930 . S
H339 C351 0.929 . S
H340 C354 0.930 . S
H341 C356 0.960 . S
H342 C356 0.960 . S
H343 C356 0.960 . S
C344 H336 0.929 . S
C344 C345 1.377 . S
C344 C346 1.384 . S
C345 C344 1.377 . S
C345 C351 1.390 . S
C346 H337 0.930 . S
C346 C344 1.384 . S
C346 C347 1.372 . S
C347 C346 1.372 . S
C347 C348 1.400 . S
C347 C352 1.490 . S
C348 H338 0.930 . S
C348 C347 1.400 . S
C348 C351 1.386 . S
H349 C365 0.930 . S
H350 C366 0.931 . S
C351 H339 0.929 . S
C351 C345 1.390 . S
C351 C348 1.386 . S
C352 C347 1.490 . S
C352 C354 1.395 . S
C352 C355 1.403 . S
H353 C359 0.930 . S
C354 H340 0.930 . S
C354 C352 1.395 . S
C354 C357 1.403 . S
C355 C352 1.403 . S
C355 C356 1.524 . S
C355 C359 1.400 . S
C356 H341 0.960 . S
C356 H342 0.960 . S
C356 H343 0.960 . S
C356 C355 1.524 . S
C357 C354 1.403 . S
C357 C358 1.392 . S
C357 C361 1.495 . S
C358 C357 1.392 . S
C358 C359 1.385 . S
C358 C360 1.478 . S
C359 H353 0.930 . S
C359 C355 1.400 . S
C359 C358 1.385 . S
C360 C358 1.478 . S
C360 C362 1.381 . S
C360 C366 1.383 . S
C361 C357 1.495 . S
C361 H367 0.959 . S
C361 H368 0.961 . S
C361 H369 0.960 . S
C362 C360 1.381 . S
C362 C363 1.394 . S
C362 H370 0.930 . S
C363 C362 1.394 . S
C363 C364 1.383 . S
C363 H371 0.929 . S
C364 C363 1.383 . S
C364 C365 1.377 . S
C365 H349 0.930 . S
C365 C364 1.377 . S
C365 C366 1.379 . S
C366 H350 0.931 . S
C366 C360 1.383 . S
C366 C365 1.379 . S
H367 C361 0.959 . S
H368 C361 0.961 . S
H369 C361 0.960 . S
H370 C362 0.930 . S
H371 C363 0.929 . S
H372 C380 0.929 . S
H373 C382 0.930 . S
H374 C384 0.930 . S
H375 C387 0.929 . S
H376 C390 0.930 . S
H377 C392 0.960 . S
H378 C392 0.960 . S
H379 C392 0.960 . S
C380 H372 0.929 . S
C380 C381 1.377 . S
C380 C382 1.384 . S
C381 C380 1.377 . S
C381 C387 1.390 . S
C382 H373 0.930 . S
C382 C380 1.384 . S
C382 C383 1.372 . S
C383 C382 1.372 . S
C383 C384 1.400 . S
C383 C388 1.490 . S
C384 H374 0.930 . S
C384 C383 1.400 . S
C384 C387 1.386 . S
H385 C401 0.930 . S
H386 C402 0.931 . S
C387 H375 0.929 . S
C387 C381 1.390 . S
C387 C384 1.386 . S
C388 C383 1.490 . S
C388 C390 1.395 . S
C388 C391 1.403 . S
H389 C395 0.930 . S
C390 H376 0.930 . S
C390 C388 1.395 . S
C390 C393 1.403 . S
C391 C388 1.403 . S
C391 C392 1.524 . S
C391 C395 1.400 . S
C392 H377 0.960 . S
C392 H378 0.960 . S
C392 H379 0.960 . S
C392 C391 1.524 . S
C393 C390 1.403 . S
C393 C394 1.392 . S
C393 C397 1.495 . S
C394 C393 1.392 . S
C394 C395 1.385 . S
C394 C396 1.478 . S
C395 H389 0.930 . S
C395 C391 1.400 . S
C395 C394 1.385 . S
C396 C394 1.478 . S
C396 C398 1.381 . S
C396 C402 1.383 . S
C397 C393 1.495 . S
C397 H403 0.959 . S
C397 H404 0.961 . S
C397 H405 0.960 . S
C398 C396 1.381 . S
C398 C399 1.394 . S
C398 H406 0.930 . S
C399 C398 1.394 . S
C399 C400 1.383 . S
C399 H407 0.929 . S
C400 C399 1.383 . S
C400 C401 1.377 . S
C401 H385 0.930 . S
C401 C400 1.377 . S
C401 C402 1.379 . S
C402 H386 0.931 . S
C402 C396 1.383 . S
C402 C401 1.379 . S
H403 C397 0.959 . S
H404 C397 0.961 . S
H405 C397 0.960 . S
H406 C398 0.930 . S
H407 C399 0.929 . S
H408 C416 0.929 . S
H409 C418 0.930 . S
H410 C420 0.930 . S
H411 C423 0.929 . S
H412 C426 0.930 . S
H413 C428 0.960 . S
H414 C428 0.960 . S
H415 C428 0.960 . S
C416 H408 0.929 . S
C416 C417 1.377 . S
C416 C418 1.384 . S
C417 C416 1.377 . S
C417 C423 1.390 . S
C418 H409 0.930 . S
C418 C416 1.384 . S
C418 C419 1.372 . S
C419 C418 1.372 . S
C419 C420 1.400 . S
C419 C424 1.490 . S
C420 H410 0.930 . S
C420 C419 1.400 . S
C420 C423 1.386 . S
H421 C437 0.930 . S
H422 C438 0.931 . S
C423 H411 0.929 . S
C423 C417 1.390 . S
C423 C420 1.386 . S
C424 C419 1.490 . S
C424 C426 1.395 . S
C424 C427 1.403 . S
H425 C431 0.930 . S
C426 H412 0.930 . S
C426 C424 1.395 . S
C426 C429 1.403 . S
C427 C424 1.403 . S
C427 C428 1.524 . S
C427 C431 1.400 . S
C428 H413 0.960 . S
C428 H414 0.960 . S
C428 H415 0.960 . S
C428 C427 1.524 . S
C429 C426 1.403 . S
C429 C430 1.392 . S
C429 C433 1.495 . S
C430 C429 1.392 . S
C430 C431 1.385 . S
C430 C432 1.478 . S
C431 H425 0.930 . S
C431 C427 1.400 . S
C431 C430 1.385 . S
C432 C430 1.478 . S
C432 C434 1.381 . S
C432 C438 1.383 . S
C433 C429 1.495 . S
C433 H439 0.959 . S
C433 H440 0.961 . S
C433 H441 0.960 . S
C434 C432 1.381 . S
C434 C435 1.394 . S
C434 H442 0.930 . S
C435 C434 1.394 . S
C435 C436 1.383 . S
C435 H443 0.929 . S
C436 C435 1.383 . S
C436 C437 1.377 . S
C437 H421 0.930 . S
C437 C436 1.377 . S
C437 C438 1.379 . S
C438 H422 0.931 . S
C438 C432 1.383 . S
C438 C437 1.379 . S
H439 C433 0.959 . S
H440 C433 0.961 . S
H441 C433 0.960 . S
H442 C434 0.930 . S
H443 C435 0.929 . S
H444 C452 0.929 . S
H445 C454 0.930 . S
H446 C456 0.930 . S
H447 C459 0.929 . S
H448 C462 0.930 . S
H449 C464 0.960 . S
H450 C464 0.960 . S
H451 C464 0.960 . S
C452 H444 0.929 . S
C452 C453 1.377 . S
C452 C454 1.384 . S
C453 C452 1.377 . S
C453 C459 1.390 . S
C454 H445 0.930 . S
C454 C452 1.384 . S
C454 C455 1.372 . S
C455 C454 1.372 . S
C455 C456 1.400 . S
C455 C460 1.490 . S
C456 H446 0.930 . S
C456 C455 1.400 . S
C456 C459 1.386 . S
H457 C473 0.930 . S
H458 C474 0.931 . S
C459 H447 0.929 . S
C459 C453 1.390 . S
C459 C456 1.386 . S
C460 C455 1.490 . S
C460 C462 1.395 . S
C460 C463 1.403 . S
H461 C467 0.930 . S
C462 H448 0.930 . S
C462 C460 1.395 . S
C462 C465 1.403 . S
C463 C460 1.403 . S
C463 C464 1.524 . S
C463 C467 1.400 . S
C464 H449 0.960 . S
C464 H450 0.960 . S
C464 H451 0.960 . S
C464 C463 1.524 . S
C465 C462 1.403 . S
C465 C466 1.392 . S
C465 C469 1.495 . S
C466 C465 1.392 . S
C466 C467 1.385 . S
C466 C468 1.478 . S
C467 H461 0.930 . S
C467 C463 1.400 . S
C467 C466 1.385 . S
C468 C466 1.478 . S
C468 C470 1.381 . S
C468 C474 1.383 . S
C469 C465 1.495 . S
C469 H475 0.959 . S
C469 H476 0.961 . S
C469 H477 0.960 . S
C470 C468 1.381 . S
C470 C471 1.394 . S
C470 H478 0.930 . S
C471 C470 1.394 . S
C471 C472 1.383 . S
C471 H479 0.929 . S
C472 C471 1.383 . S
C472 C473 1.377 . S
C473 H457 0.930 . S
C473 C472 1.377 . S
C473 C474 1.379 . S
C474 H458 0.931 . S
C474 C468 1.383 . S
C474 C473 1.379 . S
H475 C469 0.959 . S
H476 C469 0.961 . S
H477 C469 0.960 . S
H478 C470 0.930 . S
H479 C471 0.929 . S
H480 C488 0.929 . S
H481 C490 0.930 1_554 S
H482 C492 0.930 . S
H483 C495 0.929 . S
H484 C498 0.930 . S
H485 C500 0.960 . S
H486 C500 0.960 1_554 S
H487 C500 0.960 . S
C488 H480 0.929 . S
C488 C489 1.377 . S
C488 C490 1.384 . S
C489 C488 1.377 . S
C489 C495 1.390 . S
C490 H481 0.930 1_556 S
C490 C488 1.384 . S
C490 C491 1.372 . S
C491 C490 1.372 . S
C491 C492 1.400 . S
C491 C496 1.490 . S
C492 H482 0.930 . S
C492 C491 1.400 . S
C492 C495 1.386 . S
H493 C509 0.930 . S
H494 C510 0.931 . S
C495 H483 0.929 . S
C495 C489 1.390 . S
C495 C492 1.386 . S
C496 C491 1.490 . S
C496 C498 1.395 . S
C496 C499 1.403 . S
H497 C503 0.931 . S
C498 H484 0.930 . S
C498 C496 1.395 . S
C498 C501 1.403 . S
C499 C496 1.403 . S
C499 C500 1.524 . S
C499 C503 1.400 . S
C500 H485 0.960 . S
C500 H486 0.960 1_556 S
C500 H487 0.960 . S
C500 C499 1.524 . S
C501 C498 1.403 . S
C501 C502 1.392 . S
C501 C505 1.495 . S
C502 C501 1.392 . S
C502 C503 1.385 . S
C502 C504 1.478 1_556 S
C503 H497 0.931 . S
C503 C499 1.400 . S
C503 C502 1.385 . S
C504 C502 1.478 1_554 S
C504 C506 1.381 . S
C504 C510 1.383 1_554 S
C505 C501 1.495 . S
C505 H511 0.959 . S
C505 H512 0.961 . S
C505 H513 0.960 1_556 S
C506 C504 1.381 . S
C506 C507 1.394 . S
C506 H514 0.930 . S
C507 C506 1.394 . S
C507 C508 1.383 . S
C507 H515 0.929 . S
C508 C507 1.383 . S
C508 C509 1.377 1_554 S
C509 H493 0.930 . S
C509 C508 1.377 1_556 S
C509 C510 1.379 . S
C510 H494 0.931 . S
C510 C504 1.383 1_556 S
C510 C509 1.379 . S
H511 C505 0.959 . S
H512 C505 0.961 . S
H513 C505 0.960 1_554 S
H514 C506 0.930 . S
H515 C507 0.929 . S
C93 C9 1.672 . S
C112 C47 1.669 . S
C129 C19 1.706 . S
C148 C65 1.698 . S
C165 C75 1.737 . S
C184 C37 1.730 . S
C201 C5 1.675 . S
C220 C51 1.670 . S
C237 C23 1.703 . S
C256 C61 1.702 . S
C273 C79 1.735 1_554 S
C292 C33 1.734 . S
C309 C25 1.296 . S
C328 C11 1.309 . S
C345 C28 1.358 . S
C364 C14 1.353 . S
C381 C39 1.332 . S
C400 C42 1.306 . S
C417 C67 1.300 . S
C436 C53 1.290 . S
C453 C70 1.357 . S
C472 C56 1.364 . S
C489 C81 1.334 . S
C508 C0 1.300 . S
