# Generated by pormake.
# Topology lcv, (4)-cn, num edge types: 1
# Building blocks:
#     Node 0, Type 0, BuildingBlock: ESEHIV_clean_sbu_0, # of connection points: 4
#     Node 1, Type 0, BuildingBlock: ESEHIV_clean_sbu_0, # of connection points: 4
#     Node 2, Type 0, BuildingBlock: ESEHIV_clean_sbu_0, # of connection points: 4
#     Node 3, Type 0, BuildingBlock: ESEHIV_clean_sbu_0, # of connection points: 4
#     Node 4, Type 0, BuildingBlock: ESEHIV_clean_sbu_0, # of connection points: 4
#     Node 5, Type 0, BuildingBlock: ESEHIV_clean_sbu_0, # of connection points: 4
#     Node 6, Type 0, BuildingBlock: ESEHIV_clean_sbu_0, # of connection points: 4
#     Node 7, Type 0, BuildingBlock: ESEHIV_clean_sbu_0, # of connection points: 4
#     Node 8, Type 0, BuildingBlock: ESEHIV_clean_sbu_0, # of connection points: 4
#     Node 9, Type 0, BuildingBlock: ESEHIV_clean_sbu_0, # of connection points: 4
#     Node 10, Type 0, BuildingBlock: ESEHIV_clean_sbu_0, # of connection points: 4
#     Node 11, Type 0, BuildingBlock: ESEHIV_clean_sbu_0, # of connection points: 4
#     Edge 12, Type (0, 0), BuildingBlock: ZUJKAS_clean_linker_0, # of connection points: 2
#     Edge 13, Type (0, 0), BuildingBlock: ZUJKAS_clean_linker_0, # of connection points: 2
#     Edge 14, Type (0, 0), BuildingBlock: ZUJKAS_clean_linker_0, # of connection points: 2
#     Edge 15, Type (0, 0), BuildingBlock: ZUJKAS_clean_linker_0, # of connection points: 2
#     Edge 16, Type (0, 0), BuildingBlock: ZUJKAS_clean_linker_0, # of connection points: 2
#     Edge 17, Type (0, 0), BuildingBlock: ZUJKAS_clean_linker_0, # of connection points: 2
#     Edge 18, Type (0, 0), BuildingBlock: ZUJKAS_clean_linker_0, # of connection points: 2
#     Edge 19, Type (0, 0), BuildingBlock: ZUJKAS_clean_linker_0, # of connection points: 2
#     Edge 20, Type (0, 0), BuildingBlock: ZUJKAS_clean_linker_0, # of connection points: 2
#     Edge 21, Type (0, 0), BuildingBlock: ZUJKAS_clean_linker_0, # of connection points: 2
#     Edge 22, Type (0, 0), BuildingBlock: ZUJKAS_clean_linker_0, # of connection points: 2
#     Edge 23, Type (0, 0), BuildingBlock: ZUJKAS_clean_linker_0, # of connection points: 2
#     Edge 24, Type (0, 0), BuildingBlock: ZUJKAS_clean_linker_0, # of connection points: 2
#     Edge 25, Type (0, 0), BuildingBlock: ZUJKAS_clean_linker_0, # of connection points: 2
#     Edge 26, Type (0, 0), BuildingBlock: ZUJKAS_clean_linker_0, # of connection points: 2
#     Edge 27, Type (0, 0), BuildingBlock: ZUJKAS_clean_linker_0, # of connection points: 2
#     Edge 28, Type (0, 0), BuildingBlock: ZUJKAS_clean_linker_0, # of connection points: 2
#     Edge 29, Type (0, 0), BuildingBlock: ZUJKAS_clean_linker_0, # of connection points: 2
#     Edge 30, Type (0, 0), BuildingBlock: ZUJKAS_clean_linker_0, # of connection points: 2
#     Edge 31, Type (0, 0), BuildingBlock: ZUJKAS_clean_linker_0, # of connection points: 2
#     Edge 32, Type (0, 0), BuildingBlock: ZUJKAS_clean_linker_0, # of connection points: 2
#     Edge 33, Type (0, 0), BuildingBlock: ZUJKAS_clean_linker_0, # of connection points: 2
#     Edge 34, Type (0, 0), BuildingBlock: ZUJKAS_clean_linker_0, # of connection points: 2
#     Edge 35, Type (0, 0), BuildingBlock: ZUJKAS_clean_linker_0, # of connection points: 2
# Relax obj value: 0.155
# Max RMSD: 0.299
# Mean RMSD: 0.278
data_MOF--net-lcv--node1-ESEHIV_clean_sbu_0--edge1-ZUJKAS_clean_linker_0
_symmetry_space_group_name_H-M    P1
_symmetry_Int_Tables_number       1
_symmetry_cell_setting            triclinic
loop_
_symmetry_equiv_pos_as_xyz
'x, y, z'
_cell_length_a     63.696425
_cell_length_b     62.12543
_cell_length_c     62.895067
_cell_angle_alpha  94.284585
_cell_angle_beta   89.976401
_cell_angle_gamma 98.549605
loop_
_atom_site_label
_atom_site_type_symbol
_atom_site_fract_x
_atom_site_fract_y
_atom_site_fract_z
_atom_type_partial_charge
Cu0 Cu 0.04429 0.23642 0.21461 0.0
N1 N 0.04355 0.20959 0.22613 0.0
N2 N 0.05417 0.17848 0.23442 0.0
C3 C 0.05883 0.19681 0.22398 0.0
C4 C 0.03508 0.17984 0.24339 0.0
C5 C 0.02858 0.19907 0.23825 0.0
O6 O 0.06818 0.23939 0.19535 0.0
C7 C 0.05555 0.27907 0.23296 0.0
O8 O 0.06151 0.28275 0.2134 0.0
H9 H 0.07303 0.20096 0.21482 0.0
H10 H 0.0141 0.20507 0.24315 0.0
N11 N 0.01868 0.23763 0.20076 0.0
N12 N 0.98844 0.24941 0.19245 0.0
C13 C 0.00632 0.25324 0.20453 0.0
C14 C 0.00836 0.22334 0.18581 0.0
C15 C 0.9897 0.23061 0.18058 0.0
C16 C 0.06881 0.24748 0.17733 0.0
O17 O 0.05218 0.2552 0.17037 0.0
H18 H 0.01051 0.26723 0.21583 0.0
H19 H 0.01395 0.20863 0.17931 0.0
O20 O 0.04814 0.25972 0.23718 0.0
H21 H 0.02659 0.16809 0.25337 0.0
H22 H 0.97785 0.22244 0.16921 0.0
Cu23 Cu 0.14115 0.81739 0.48768 0.0
N24 N 0.13535 0.83946 0.47116 0.0
N25 N 0.13915 0.86972 0.4536 0.0
C26 C 0.14862 0.85736 0.46634 0.0
C27 C 0.11916 0.85916 0.45039 0.0
C28 C 0.11687 0.84054 0.46129 0.0
O29 O 0.17151 0.82134 0.49333 0.0
C30 C 0.13073 0.77145 0.48068 0.0
O31 O 0.13706 0.77156 0.50056 0.0
H32 H 0.165 0.86095 0.4717 0.0
H33 H 0.10276 0.82853 0.46192 0.0
N34 N 0.12607 0.81934 0.51298 0.0
N35 N 0.10068 0.81302 0.53725 0.0
C36 C 0.10735 0.80751 0.51745 0.0
C37 C 0.13139 0.83298 0.53037 0.0
C38 C 0.11581 0.82909 0.5454 0.0
C39 C 0.1798 0.81487 0.50966 0.0
O40 O 0.16753 0.80434 0.52346 0.0
H41 H 0.09875 0.79528 0.50624 0.0
H42 H 0.14569 0.84481 0.53203 0.0
O43 O 0.13165 0.78946 0.47209 0.0
H44 H 0.10701 0.86456 0.44095 0.0
H45 H 0.11587 0.83724 0.56122 0.0
Cu46 Cu 0.69179 0.88203 0.71972 0.0
N47 N 0.7185 0.88485 0.73259 0.0
N48 N 0.74184 0.87358 0.75426 0.0
C49 C 0.72124 0.87473 0.7503 0.0
C50 C 0.75257 0.88363 0.73832 0.0
C51 C 0.7381 0.89048 0.72489 0.0
O52 O 0.68394 0.85054 0.71636 0.0
C53 C 0.68006 0.91477 0.74796 0.0
O54 O 0.70056 0.9217 0.74762 0.0
H55 H 0.70806 0.86635 0.75877 0.0
H56 H 0.74153 0.89734 0.70976 0.0
N57 N 0.69153 0.89426 0.69354 0.0
N58 N 0.67689 0.90352 0.6639 0.0
C59 C 0.6752 0.8897 0.67957 0.0
C60 C 0.70401 0.91169 0.68659 0.0
C61 C 0.69503 0.91742 0.66823 0.0
C62 C 0.69171 0.84031 0.70067 0.0
O63 O 0.69972 0.85137 0.68481 0.0
H64 H 0.66159 0.87743 0.68178 0.0
H65 H 0.71788 0.92045 0.69496 0.0
O66 O 0.67275 0.8967 0.73781 0.0
H67 H 0.76949 0.88478 0.73575 0.0
H68 H 0.70095 0.93124 0.65928 0.0
Cu69 Cu 0.60792 0.33984 0.95114 0.0
N70 N 0.60871 0.35963 0.93023 0.0
N71 N 0.61759 0.39026 0.91379 0.0
C72 C 0.62233 0.37833 0.92971 0.0
C73 C 0.60027 0.3786 0.90393 0.0
C74 C 0.59483 0.35967 0.91412 0.0
O75 O 0.6357 0.34275 0.96461 0.0
C76 C 0.6028 0.3016 0.9218 0.0
O77 O 0.61602 0.3131 0.90946 0.0
H78 H 0.63491 0.3835 0.94137 0.0
H79 H 0.5814 0.34709 0.91044 0.0
N80 N 0.58865 0.34704 0.9717 0.0
N81 N 0.55965 0.34495 0.99185 0.0
C82 C 0.56969 0.33539 0.97563 0.0
C83 C 0.59072 0.36461 0.98579 0.0
C84 C 0.57286 0.36335 0.99831 0.0
C85 C 0.65282 0.34265 0.95419 0.0
O86 O 0.65188 0.33925 0.93332 0.0
H87 H 0.56364 0.31998 0.96703 0.0
H88 H 0.60431 0.37736 0.9869 0.0
O89 O 0.598 0.31011 0.93983 0.0
H90 H 0.59202 0.38349 0.89047 0.0
H91 H 0.56979 0.37514 0.01105 0.0
Cu92 Cu 0.2537 0.03398 0.2948 0.0
N93 N 0.22896 0.0245 0.27887 0.0
N94 N 0.19865 0.02852 0.26276 0.0
C95 C 0.21828 0.03812 0.26909 0.0
C96 C 0.19707 0.00783 0.26854 0.0
C97 C 0.21583 0.00539 0.27851 0.0
O98 O 0.26834 0.05933 0.28173 0.0
C99 C 0.22746 0.04054 0.33076 0.0
O100 O 0.21341 0.0449 0.31706 0.0
H101 H 0.22408 0.05536 0.2686 0.0
H102 H 0.21904 0.99126 0.28629 0.0
N103 N 0.27128 0.01258 0.29534 0.0
N104 N 0.29583 0.99495 0.30865 0.0
C105 C 0.28701 0.01344 0.30974 0.0
C106 C 0.26999 0.99285 0.28461 0.0
C107 C 0.28517 0.9819 0.29283 0.0
C108 C 0.278 0.05539 0.26446 0.0
O109 O 0.27871 0.03498 0.25775 0.0
H110 H 0.29106 0.02697 0.3216 0.0
H111 H 0.25842 0.98661 0.27224 0.0
O112 O 0.24622 0.03904 0.32449 0.0
H113 H 0.18301 0.99567 0.26677 0.0
H114 H 0.28782 0.96548 0.28784 0.0
Cu115 Cu 0.43376 0.93285 0.537 0.0
N116 N 0.43586 0.95001 0.51384 0.0
N117 N 0.4278 0.96213 0.48274 0.0
C118 C 0.42236 0.94721 0.49709 0.0
C119 C 0.44546 0.97483 0.49087 0.0
C120 C 0.45044 0.96725 0.51006 0.0
O121 O 0.40702 0.91352 0.53391 0.0
C122 C 0.4269 0.9682 0.5666 0.0
O123 O 0.4177 0.97554 0.55049 0.0
H124 H 0.40859 0.93467 0.49571 0.0
H125 H 0.46368 0.97383 0.52053 0.0
N126 N 0.45633 0.91698 0.53687 0.0
N127 N 0.48784 0.90763 0.54461 0.0
C128 C 0.47503 0.9231 0.54715 0.0
C129 C 0.45727 0.89702 0.52742 0.0
C130 C 0.4767 0.89117 0.5322 0.0
C131 C 0.3983 0.90256 0.54865 0.0
O132 O 0.40802 0.90352 0.5672 0.0
H133 H 0.47888 0.93837 0.55678 0.0
H134 H 0.44461 0.88733 0.51793 0.0
O135 O 0.43456 0.95044 0.56386 0.0
H136 H 0.45429 0.98847 0.48342 0.0
H137 H 0.48217 0.87599 0.52692 0.0
Cu138 Cu 0.49483 0.09581 0.80771 0.0
N139 N 0.52291 0.09692 0.79915 0.0
N140 N 0.55272 0.08336 0.79104 0.0
C141 C 0.5345 0.08096 0.80209 0.0
C142 C 0.55256 0.10154 0.78059 0.0
C143 C 0.53408 0.10987 0.78561 0.0
O144 O 0.47779 0.08009 0.78435 0.0
C145 C 0.49514 0.08776 0.85224 0.0
O146 O 0.48954 0.07557 0.86807 0.0
H147 H 0.52896 0.06705 0.81107 0.0
H148 H 0.52861 0.12354 0.7788 0.0
N149 N 0.48618 0.12289 0.81413 0.0
N150 N 0.46749 0.14661 0.83082 0.0
C151 C 0.46917 0.12542 0.82618 0.0
C152 C 0.49547 0.14321 0.81062 0.0
C153 C 0.48388 0.15791 0.8209 0.0
C154 C 0.47406 0.08981 0.76796 0.0
O155 O 0.4805 0.11089 0.76782 0.0
H156 H 0.4591 0.11195 0.8327 0.0
H157 H 0.51001 0.1471 0.80194 0.0
O158 O 0.49076 0.07983 0.83317 0.0
H159 H 0.56452 0.10786 0.76951 0.0
H160 H 0.48741 0.17551 0.82141 0.0
Cu161 Cu 0.32052 0.22102 0.06124 0.0
N162 N 0.32313 0.20164 0.03765 0.0
N163 N 0.33558 0.18777 0.00723 0.0
C164 C 0.33772 0.20466 0.02226 0.0
C165 C 0.31896 0.17359 0.01344 0.0
C166 C 0.31123 0.18226 0.03217 0.0
O167 O 0.34508 0.24362 0.06142 0.0
C168 C 0.32586 0.18869 0.09004 0.0
O169 O 0.33632 0.18007 0.07439 0.0
H170 H 0.34984 0.21885 0.02227 0.0
H171 H 0.29792 0.17498 0.04121 0.0
N172 N 0.29581 0.23311 0.05802 0.0
N173 N 0.2635 0.24193 0.06444 0.0
C174 C 0.27995 0.23326 0.07213 0.0
C175 C 0.28933 0.24198 0.04079 0.0
C176 C 0.26942 0.24748 0.0447 0.0
C177 C 0.36258 0.24116 0.06995 0.0
O178 O 0.36346 0.22386 0.08051 0.0
H179 H 0.28053 0.22697 0.08766 0.0
H180 H 0.29827 0.24382 0.02624 0.0
O181 O 0.31839 0.20624 0.08757 0.0
H182 H 0.31267 0.1582 0.00492 0.0
H183 H 0.25985 0.25442 0.03357 0.0
Cu184 Cu 0.84538 0.4451 0.12369 0.0
N185 N 0.8287 0.46736 0.12326 0.0
N186 N 0.81383 0.49293 0.10815 0.0
C187 C 0.82244 0.47443 0.10494 0.0
C188 C 0.81455 0.49768 0.12947 0.0
C189 C 0.82367 0.48176 0.1388 0.0
O190 O 0.83901 0.42738 0.09695 0.0
C191 C 0.88186 0.47718 0.13271 0.0
O192 O 0.87003 0.49158 0.12743 0.0
H193 H 0.82567 0.46701 0.08938 0.0
H194 H 0.82762 0.48156 0.15549 0.0
N195 N 0.83952 0.42714 0.14606 0.0
N196 N 0.84541 0.40016 0.16583 0.0
C197 C 0.84746 0.40833 0.14656 0.0
C198 C 0.83207 0.43118 0.16576 0.0
C199 C 0.8357 0.41449 0.17804 0.0
C200 C 0.82169 0.41409 0.09646 0.0
O201 O 0.81049 0.41226 0.11394 0.0
H202 H 0.85621 0.40177 0.13347 0.0
H203 H 0.82578 0.44582 0.17121 0.0
O204 O 0.87516 0.45695 0.12858 0.0
H205 H 0.80965 0.51204 0.13764 0.0
H206 H 0.83236 0.41352 0.19485 0.0
Cu207 Cu 0.00959 0.52647 0.37136 0.0
N208 N 0.02589 0.50418 0.3728 0.0
N209 N 0.03748 0.47228 0.3655 0.0
C210 C 0.02229 0.48458 0.36176 0.0
C211 C 0.05114 0.48466 0.37949 0.0
C212 C 0.04389 0.50434 0.38402 0.0
O213 O 0.9988 0.52492 0.34225 0.0
C214 C 0.0196 0.5721 0.37886 0.0
O215 O 0.99974 0.57159 0.37298 0.0
H216 H 0.00914 0.47977 0.35068 0.0
H217 H 0.05135 0.51794 0.39449 0.0
N218 N 0.98773 0.5223 0.39105 0.0
N219 N 0.96871 0.52662 0.42053 0.0
C220 C 0.9858 0.53463 0.40927 0.0
C221 C 0.97141 0.50584 0.39075 0.0
C222 C 0.95961 0.50847 0.40891 0.0
C223 C 0.98061 0.52907 0.33701 0.0
O224 O 0.968 0.53567 0.35186 0.0
H225 H 0.99705 0.54889 0.41439 0.0
H226 H 0.96843 0.49278 0.37826 0.0
O227 O 0.02718 0.55428 0.37879 0.0
H228 H 0.06536 0.47989 0.38594 0.0
H229 H 0.94538 0.49791 0.41311 0.0
Cu230 Cu 0.87305 0.68261 0.63388 0.0
N231 N 0.8831 0.65585 0.63043 0.0
N232 N 0.89747 0.62927 0.61258 0.0
C233 C 0.89214 0.64944 0.6122 0.0
C234 C 0.8915 0.62264 0.63193 0.0
C235 C 0.88275 0.63918 0.64301 0.0
O236 O 0.89569 0.70402 0.62448 0.0
C237 C 0.82916 0.6761 0.61904 0.0
O238 O 0.81467 0.67854 0.60494 0.0
H239 H 0.89413 0.65924 0.59861 0.0
H240 H 0.87609 0.63874 0.65879 0.0
N241 N 0.86565 0.69125 0.66164 0.0
N242 N 0.84768 0.70845 0.68645 0.0
C243 C 0.85331 0.70677 0.66578 0.0
C244 C 0.86863 0.6832 0.68051 0.0
C245 C 0.85742 0.69372 0.69587 0.0
C246 C 0.91312 0.70812 0.63487 0.0
O247 O 0.91496 0.69861 0.65261 0.0
H248 H 0.8472 0.71541 0.6534 0.0
H249 H 0.87757 0.67008 0.68286 0.0
O250 O 0.84871 0.68177 0.61481 0.0
H251 H 0.89322 0.60697 0.63762 0.0
H252 H 0.85599 0.6903 0.71247 0.0
Cu253 Cu 0.76873 0.63043 0.87487 0.0
N254 N 0.75954 0.65757 0.87881 0.0
N255 N 0.75678 0.69205 0.8728 0.0
C256 C 0.76233 0.67298 0.86471 0.0
C257 C 0.75015 0.68845 0.89279 0.0
C258 C 0.75207 0.66721 0.89653 0.0
O259 O 0.7831 0.63027 0.84751 0.0
C260 C 0.73146 0.60372 0.88888 0.0
O261 O 0.73137 0.61889 0.90456 0.0
H262 H 0.76883 0.67036 0.849 0.0
H263 H 0.74922 0.65973 0.91143 0.0
N264 N 0.7871 0.62762 0.89724 0.0
N265 N 0.79894 0.61644 0.9274 0.0
C266 C 0.78405 0.61259 0.91174 0.0
C267 C 0.80454 0.64144 0.90386 0.0
C268 C 0.8119 0.63459 0.92247 0.0
C269 C 0.77537 0.61812 0.83133 0.0
O270 O 0.75848 0.60359 0.83364 0.0
H271 H 0.77065 0.59964 0.91129 0.0
H272 H 0.81104 0.65586 0.89604 0.0
O273 O 0.74551 0.60624 0.87454 0.0
H274 H 0.74526 0.70059 0.90423 0.0
H275 H 0.82558 0.6425 0.93174 0.0
H276 H 0.04157 0.1366 0.24438 0.0
H277 H 0.06417 0.10852 0.24836 0.0
H278 H 0.11889 0.15335 0.23151 0.0
H279 H 0.09678 0.18167 0.22838 0.0
H280 H 0.09048 0.08951 0.21942 0.0
H281 H 0.13729 0.13356 0.28777 0.0
H282 H 0.11283 0.14144 0.27879 0.0
H283 H 0.13729 0.14967 0.26527 0.0
C284 C 0.05843 0.1406 0.24175 0.0
C285 C 0.06728 0.16157 0.23619 0.0
C286 C 0.07131 0.12445 0.24387 0.0
C287 C 0.09326 0.12895 0.24058 0.0
C288 C 0.10205 0.14963 0.23454 0.0
H289 H 0.20313 0.06444 0.24043 0.0
H290 H 0.17587 0.08704 0.23378 0.0
C291 C 0.08926 0.16578 0.2325 0.0
C292 C 0.10715 0.11219 0.24348 0.0
H293 H 0.15134 0.10346 0.27029 0.0
C294 C 0.10366 0.09243 0.23069 0.0
C295 C 0.12424 0.11597 0.25832 0.0
C296 C 0.12803 0.13621 0.27348 0.0
C297 C 0.11735 0.07673 0.23179 0.0
C298 C 0.13484 0.08094 0.24607 0.0
C299 C 0.13801 0.10042 0.25919 0.0
C300 C 0.15042 0.06563 0.24752 0.0
C301 C 0.11347 0.05604 0.21731 0.0
C302 C 0.14501 0.04589 0.25708 0.0
C303 C 0.16063 0.033 0.26109 0.0
C304 C 0.18193 0.03973 0.25568 0.0
C305 C 0.18698 0.05897 0.24511 0.0
C306 C 0.17141 0.07185 0.2412 0.0
H307 H 0.10094 0.05655 0.20515 0.0
H308 H 0.12834 0.05316 0.20908 0.0
H309 H 0.10843 0.04199 0.22699 0.0
H310 H 0.12893 0.04095 0.2623 0.0
H311 H 0.1562 0.01843 0.26944 0.0
H312 H 0.37341 0.89934 0.51289 0.0
H313 H 0.33708 0.88069 0.50778 0.0
H314 H 0.33802 0.85831 0.571 0.0
H315 H 0.37438 0.87732 0.57645 0.0
H316 H 0.31971 0.83715 0.50919 0.0
H317 H 0.28572 0.88921 0.57202 0.0
H318 H 0.31227 0.89614 0.56211 0.0
H319 H 0.30677 0.87561 0.58084 0.0
C320 C 0.36596 0.89042 0.52573 0.0
C321 C 0.37676 0.88999 0.54518 0.0
C322 C 0.34518 0.87972 0.52275 0.0
C323 C 0.33472 0.86841 0.53912 0.0
C324 C 0.34565 0.86733 0.55831 0.0
H325 H 0.20222 0.80691 0.54463 0.0
H326 H 0.24023 0.81761 0.55196 0.0
C327 C 0.36647 0.87811 0.56136 0.0
C328 C 0.31226 0.85817 0.53605 0.0
H329 H 0.26207 0.86089 0.55409 0.0
C330 C 0.30711 0.84226 0.51906 0.0
C331 C 0.29585 0.86487 0.54896 0.0
C332 C 0.30031 0.88252 0.5669 0.0
C333 C 0.28597 0.83299 0.51453 0.0
C334 C 0.26956 0.84003 0.52717 0.0
C335 C 0.27473 0.85552 0.54447 0.0
C336 C 0.24683 0.83234 0.52212 0.0
C337 C 0.28136 0.81574 0.49628 0.0
C338 C 0.23796 0.83714 0.50294 0.0
C339 C 0.21626 0.83113 0.49871 0.0
C340 C 0.20298 0.82024 0.51365 0.0
C341 C 0.21198 0.81523 0.53276 0.0
C342 C 0.23369 0.82133 0.537 0.0
H343 H 0.29558 0.80801 0.49199 0.0
H344 H 0.26824 0.80284 0.50025 0.0
H345 H 0.27644 0.82339 0.48206 0.0
H346 H 0.24776 0.846 0.49142 0.0
H347 H 0.20985 0.83532 0.48388 0.0
H348 H 0.56404 0.05856 0.82128 0.0
H349 H 0.58666 0.02998 0.81682 0.0
H350 H 0.59637 0.04367 0.75098 0.0
H351 H 0.57416 0.07258 0.75557 0.0
H352 H 0.58067 0.99328 0.79163 0.0
H353 H 0.65624 0.04249 0.76991 0.0
H354 H 0.63413 0.05478 0.78052 0.0
H355 H 0.63474 0.04581 0.75266 0.0
C356 C 0.57121 0.05559 0.80593 0.0
C357 C 0.56744 0.06785 0.78881 0.0
C358 C 0.58411 0.03928 0.80339 0.0
C359 C 0.59345 0.03482 0.78364 0.0
C360 C 0.58982 0.04716 0.76653 0.0
H361 H 0.63809 0.91446 0.73838 0.0
H362 H 0.61649 0.94284 0.74883 0.0
C363 C 0.5771 0.06368 0.76915 0.0
C364 C 0.60611 0.01658 0.78071 0.0
H365 H 0.65382 0.00385 0.76331 0.0
C366 C 0.59674 0.99563 0.78561 0.0
C367 C 0.62719 0.01966 0.77315 0.0
C368 C 0.63875 0.04194 0.76897 0.0
C369 C 0.60769 0.97761 0.78274 0.0
C370 C 0.62838 0.9805 0.77419 0.0
C371 C 0.63789 1.00155 0.7697 0.0
C372 C 0.64052 0.96205 0.76956 0.0
C373 C 0.59706 0.95576 0.78924 0.0
C374 C 0.66125 0.96336 0.77764 0.0
C375 C 0.67373 0.94736 0.77139 0.0
C376 C 0.6657 0.92962 0.75704 0.0
C377 C 0.64463 0.92778 0.74968 0.0
C378 C 0.63223 0.94398 0.75571 0.0
H379 H 0.58481 0.95766 0.80153 0.0
H380 H 0.58902 0.94626 0.77512 0.0
H381 H 0.60877 0.94624 0.7956 0.0
H382 H 0.66801 0.97711 0.78835 0.0
H383 H 0.68991 0.94922 0.77735 0.0
H384 H 0.54639 0.35258 0.03238 0.0
H385 H 0.51257 0.33731 0.04768 0.0
H386 H 0.49305 0.30372 0.98682 0.0
H387 H 0.52674 0.31892 0.97141 0.0
H388 H 0.47041 0.34001 0.03652 0.0
H389 H 0.48689 0.2546 0.02733 0.0
H390 H 0.50722 0.27776 0.02463 0.0
H391 H 0.489 0.26808 0.00298 0.0
C392 C 0.53483 0.34211 0.02219 0.0
C393 C 0.53938 0.33679 1.00071 0.0
C394 C 0.51554 0.33335 0.03098 0.0
C395 C 0.50048 0.31909 0.01848 0.0
C396 C 0.50467 0.31429 0.99688 0.0
H397 H 0.3681 0.27342 0.04218 0.0
H398 H 0.40166 0.29403 0.0315 0.0
C399 C 0.52396 0.32297 0.9881 0.0
C400 C 0.4805 0.30894 0.02805 0.0
H401 H 0.45184 0.25963 0.03709 0.0
C402 C 0.46636 0.32244 0.03677 0.0
C403 C 0.47543 0.28604 0.02863 0.0
C404 C 0.49051 0.27076 0.02059 0.0
C405 C 0.447 0.31359 0.0456 0.0
C406 C 0.44157 0.29065 0.04542 0.0
C407 C 0.45595 0.27721 0.03711 0.0
C408 C 0.42101 0.28005 0.05349 0.0
C409 C 0.43266 0.32887 0.05526 0.0
C410 C 0.4207 0.2653 0.06938 0.0
C411 C 0.40157 0.25334 0.07538 0.0
C412 C 0.38235 0.25586 0.06556 0.0
C413 C 0.3826 0.27121 0.05017 0.0
C414 C 0.40178 0.2831 0.04411 0.0
H415 H 0.44156 0.34538 0.05966 0.0
H416 H 0.42022 0.33061 0.04343 0.0
H417 H 0.4247 0.32243 0.06968 0.0
H418 H 0.43537 0.26265 0.07678 0.0
H419 H 0.40195 0.24168 0.08729 0.0
H420 H 0.25126 0.02433 0.36034 0.0
H421 H 0.23788 0.99931 0.3871 0.0
H422 H 0.17378 0.00846 0.37282 0.0
H423 H 0.18693 0.0336 0.34607 0.0
H424 H 0.18372 0.00297 0.4185 0.0
H425 H 0.20649 0.93908 0.35975 0.0
H426 H 0.227 0.96131 0.36786 0.0
H427 H 0.20458 0.96637 0.35273 0.0
C428 C 0.23436 0.02158 0.3633 0.0
C429 C 0.22013 0.03068 0.35074 0.0
C430 C 0.22675 0.0072 0.37858 0.0
C431 C 0.20485 1.00175 0.38159 0.0
C432 C 0.19076 0.01241 0.37062 0.0
H433 H 0.12862 0.88447 0.4162 0.0
H434 H 0.14499 0.91765 0.40053 0.0
C435 C 0.19833 0.02679 0.35532 0.0
C436 C 0.19649 0.98292 0.39384 0.0
H437 H 0.19045 0.92724 0.39131 0.0
C438 C 0.18533 0.98641 0.41272 0.0
C439 C 0.1984 0.96135 0.38602 0.0
C440 C 0.20962 0.95664 0.36541 0.0
C441 C 0.17598 0.96877 0.424 0.0
C442 C 0.17788 0.94724 0.41611 0.0
C443 C 0.18914 0.94381 0.39732 0.0
C444 C 0.1674 0.92787 0.42645 0.0
C445 C 0.1636 0.97316 0.44389 0.0
C446 C 0.17466 0.92262 0.44619 0.0
C447 C 0.16534 0.90359 0.45519 0.0
C448 C 0.14856 0.88956 0.44461 0.0
C449 C 0.14128 0.89504 0.4249 0.0
C450 C 0.15068 0.91395 0.41588 0.0
H451 H 0.16107 0.99049 0.44621 0.0
H452 H 0.14792 0.96256 0.44323 0.0
H453 H 0.1724 0.96921 0.45797 0.0
H454 H 0.18773 0.93306 0.45446 0.0
H455 H 0.1712 0.89992 0.47045 0.0
H456 H 0.5063 0.87315 0.55504 0.0
H457 H 0.54078 0.87437 0.57252 0.0
H458 H 0.55112 0.94459 0.57297 0.0
H459 H 0.51661 0.9435 0.55556 0.0
H460 H 0.58158 0.89094 0.56057 0.0
H461 H 0.55926 0.93479 0.63548 0.0
H462 H 0.53993 0.9227 0.61543 0.0
H463 H 0.55599 0.9485 0.61184 0.0
C464 C 0.51597 0.88884 0.55868 0.0
C465 C 0.50859 0.90824 0.55406 0.0
C466 C 0.53566 0.88952 0.56874 0.0
C467 C 0.54836 0.90959 0.5744 0.0
C468 C 0.54135 0.92895 0.56923 0.0
H469 H 0.66754 0.93997 0.64699 0.0
H470 H 0.63786 0.94229 0.62289 0.0
C471 C 0.52162 0.9283 0.55927 0.0
C472 C 0.5688 0.91019 0.58593 0.0
H473 H 0.59483 0.92843 0.6328 0.0
C474 C 0.5845 0.89916 0.57635 0.0
C475 C 0.5726 0.92095 0.60651 0.0
C476 C 0.55601 0.93225 0.61805 0.0
C477 C 0.60388 0.8986 0.58681 0.0
C478 C 0.60753 0.90913 0.60748 0.0
C479 C 0.59201 0.92048 0.61689 0.0
C480 C 0.62676 0.90754 0.62019 0.0
C481 C 0.62032 0.88683 0.57564 0.0
C482 C 0.63044 0.88723 0.62653 0.0
C483 C 0.64735 0.88588 0.64026 0.0
C484 C 0.6609 0.90481 0.648 0.0
C485 C 0.65756 0.92507 0.64113 0.0
C486 C 0.64054 0.92644 0.62746 0.0
H487 H 0.61767 0.88493 0.5581 0.0
H488 H 0.63658 0.89565 0.57906 0.0
H489 H 0.61935 0.87029 0.58147 0.0
H490 H 0.61982 0.87249 0.62139 0.0
H491 H 0.64961 0.87003 0.64515 0.0
H492 H 0.57038 0.27606 0.94053 0.0
H493 H 0.55297 0.23967 0.92795 0.0
H494 H 0.59515 0.23965 0.87428 0.0
H495 H 0.61233 0.27641 0.88647 0.0
H496 H 0.55465 0.22608 0.86218 0.0
H497 H 0.57264 0.18151 0.93134 0.0
H498 H 0.55938 0.20439 0.93891 0.0
H499 H 0.5855 0.20885 0.92758 0.0
C500 C 0.57611 0.26827 0.92614 0.0
C501 C 0.59283 0.27914 0.91455 0.0
C502 C 0.56621 0.24736 0.91905 0.0
C503 C 0.57302 0.23669 0.90041 0.0
C504 C 0.58972 0.24749 0.8888 0.0
H505 H 0.53398 0.10644 0.83923 0.0
H506 H 0.55226 0.14341 0.84892 0.0
C507 C 0.59953 0.2685 0.89579 0.0
C508 C 0.56201 0.21476 0.89245 0.0
H509 H 0.54612 0.16288 0.90681 0.0
C510 C 0.55311 0.21218 0.87182 0.0
C511 C 0.55979 0.19663 0.90509 0.0
C512 C 0.57002 0.19789 0.92687 0.0
C513 C 0.5418 0.19213 0.86364 0.0
C514 C 0.53902 0.17426 0.87653 0.0
C515 C 0.54806 0.17672 0.89706 0.0
C516 C 0.52704 0.15274 0.86899 0.0
C517 C 0.53182 0.1907 0.84179 0.0
C518 C 0.50686 0.14571 0.87712 0.0
C519 C 0.4963 0.12468 0.8713 0.0
C520 C 0.50567 0.11044 0.8571 0.0
C521 C 0.52589 0.11748 0.84911 0.0
C522 C 0.53647 0.13848 0.85493 0.0
H523 H 0.53931 0.20399 0.83215 0.0
H524 H 0.53284 0.1748 0.83291 0.0
H525 H 0.51485 0.19239 0.84374 0.0
H526 H 0.49944 0.1564 0.8882 0.0
H527 H 0.48083 0.11949 0.87793 0.0
H528 H 0.24605 0.21963 0.09737 0.0
H529 H 0.21257 0.22337 0.11498 0.0
H530 H 0.20142 0.272 0.07266 0.0
H531 H 0.23526 0.26889 0.05519 0.0
H532 H 0.20032 0.26522 0.13444 0.0
H533 H 0.14647 0.2238 0.06916 0.0
H534 H 0.17378 0.21941 0.07134 0.0
H535 H 0.16775 0.24451 0.0623 0.0
C536 C 0.23671 0.23132 0.09186 0.0
C537 C 0.24354 0.24399 0.0748 0.0
C538 C 0.21746 0.23331 0.10189 0.0
C539 C 0.2045 0.24781 0.09498 0.0
C540 C 0.21112 0.2605 0.07802 0.0
H541 H 0.07796 0.26755 0.14028 0.0
H542 H 0.11098 0.26948 0.11996 0.0
C543 C 0.23047 0.25864 0.06802 0.0
C544 C 0.18425 0.24986 0.10593 0.0
H545 H 0.13046 0.23667 0.10039 0.0
C546 C 0.18502 0.25909 0.12699 0.0
C547 C 0.16439 0.24203 0.09605 0.0
C548 C 0.16286 0.23175 0.07349 0.0
C549 C 0.16639 0.26049 0.13859 0.0
C550 C 0.1465 0.25187 0.12902 0.0
C551 C 0.14572 0.24319 0.10772 0.0
C552 C 0.12646 0.25077 0.1412 0.0
C553 C 0.16821 0.27131 0.16094 0.0
C554 C 0.12408 0.23927 0.15963 0.0
C555 C 0.10536 0.23823 0.17129 0.0
C556 C 0.08847 0.24845 0.16462 0.0
C557 C 0.09069 0.25957 0.14588 0.0
C558 C 0.10953 0.26069 0.13425 0.0
H559 H 0.18322 0.28291 0.1633 0.0
H560 H 0.15465 0.28027 0.16467 0.0
H561 H 0.16825 0.25864 0.17247 0.0
H562 H 0.1367 0.23098 0.16496 0.0
H563 H 0.10412 0.22931 0.1855 0.0
H564 H 0.26854 0.09728 0.26549 0.0
H565 H 0.27735 0.12351 0.23824 0.0
H566 H 0.31375 0.07894 0.20446 0.0
H567 H 0.30497 0.05276 0.23128 0.0
H568 H 0.3179 0.14332 0.22023 0.0
H569 H 0.2666 0.08807 0.16171 0.0
H570 H 0.26519 0.08529 0.19007 0.0
H571 H 0.28593 0.07512 0.17472 0.0
C572 C 0.27874 0.09328 0.25246 0.0
C573 C 0.28586 0.07285 0.25039 0.0
C574 C 0.2837 0.10824 0.2369 0.0
C575 C 0.29584 0.10293 0.21915 0.0
C576 C 0.30403 0.08315 0.21783 0.0
H577 H 0.3383 0.15033 0.0998 0.0
H578 H 0.33104 0.13137 0.13228 0.0
C579 C 0.29903 0.06824 0.23322 0.0
C580 C 0.29903 0.11723 0.20124 0.0
H581 H 0.28953 0.11738 0.14784 0.0
C582 C 0.31153 0.13782 0.20443 0.0
C583 C 0.29058 0.11 0.1807 0.0
C584 C 0.27615 0.0885 0.17656 0.0
C585 C 0.31657 0.15098 0.18734 0.0
C586 C 0.30869 0.14338 0.16668 0.0
C587 C 0.2957 0.12307 0.16367 0.0
C588 C 0.31413 0.15583 0.14772 0.0
C589 C 0.33088 0.17254 0.19131 0.0
C590 C 0.30701 0.17589 0.14564 0.0
C591 C 0.31108 0.18678 0.12704 0.0
C592 C 0.32231 0.17774 0.11016 0.0
C593 C 0.32963 0.15777 0.11246 0.0
C594 C 0.3255 0.1469 0.13102 0.0
H595 H 0.33889 0.17411 0.20716 0.0
H596 H 0.34316 0.17458 0.17879 0.0
H597 H 0.32129 0.18601 0.1907 0.0
H598 H 0.29789 0.18288 0.1582 0.0
H599 H 0.30516 0.2021 0.12576 0.0
H600 H 0.40297 0.92996 0.45886 0.0
H601 H 0.3827 0.93372 0.42675 0.0
H602 H 0.40689 0.00251 0.42988 0.0
H603 H 0.42717 0.99891 0.4621 0.0
H604 H 0.35133 0.95943 0.42316 0.0
H605 H 0.41696 0.98327 0.3677 0.0
H606 H 0.42109 0.9716 0.39254 0.0
H607 H 0.41852 1.00002 0.39235 0.0
C608 C 0.404 0.94591 0.45276 0.0
C609 C 0.41669 0.96416 0.46315 0.0
C610 C 0.39249 0.94799 0.43431 0.0
C611 C 0.39349 0.96832 0.42574 0.0
C612 C 0.40627 0.98655 0.43592 0.0
H613 H 0.32662 0.02333 0.32963 0.0
H614 H 0.35078 0.0153 0.35713 0.0
C615 C 0.41783 0.98447 0.45438 0.0
C616 C 0.38019 0.97067 0.40692 0.0
H617 H 0.38216 0.98749 0.35637 0.0
C618 C 0.35807 0.96535 0.40847 0.0
C619 C 0.38903 0.97842 0.38779 0.0
C620 C 0.41271 0.98347 0.38485 0.0
C621 C 0.34449 0.9682 0.39166 0.0
C622 C 0.35331 0.97623 0.37263 0.0
C623 C 0.37545 0.98128 0.37096 0.0
C624 C 0.33972 0.98056 0.35476 0.0
C625 C 0.3208 0.96332 0.39469 0.0
C626 C 0.32589 0.96359 0.34388 0.0
C627 C 0.31194 0.96816 0.32819 0.0
C628 C 0.31161 0.98979 0.32312 0.0
C629 C 0.32618 0.00657 0.33343 0.0
C630 C 0.3401 0.00199 0.34906 0.0
H631 H 0.3166 0.96188 0.41173 0.0
H632 H 0.31272 0.97627 0.38849 0.0
H633 H 0.31456 0.94762 0.38572 0.0
H634 H 0.3256 0.94687 0.3478 0.0
H635 H 0.30092 0.95487 0.32063 0.0
H636 H 0.46831 0.04549 0.75892 0.0
H637 H 0.45729 0.0254 0.72482 0.0
H638 H 0.44774 0.08547 0.69866 0.0
H639 H 0.45931 0.10575 0.73246 0.0
H640 H 0.42134 0.02024 0.70029 0.0
H641 H 0.48905 0.06309 0.65688 0.0
H642 H 0.48744 0.0654 0.68556 0.0
H643 H 0.47269 0.08115 0.66983 0.0
C644 C 0.46369 0.05441 0.74596 0.0
C645 C 0.46493 0.07726 0.74832 0.0
C646 C 0.45741 0.0429 0.72648 0.0
C647 C 0.45219 0.054 0.70903 0.0
C648 C 0.45229 0.07665 0.71171 0.0
H649 H 0.41824 0.00961 0.57679 0.0
H650 H 0.42275 0.03046 0.61157 0.0
C651 C 0.45877 0.0882 0.7311 0.0
C652 C 0.44724 0.04194 0.68791 0.0
H653 H 0.46326 0.03921 0.63603 0.0
C654 C 0.43051 0.02438 0.68625 0.0
C655 C 0.45929 0.04729 0.66959 0.0
C656 C 0.47825 0.06511 0.67052 0.0
C657 C 0.42543 0.01216 0.66674 0.0
C658 C 0.43744 0.01759 0.64849 0.0
C659 C 0.454 0.03523 0.65006 0.0
C660 C 0.43367 0.00461 0.62777 0.0
C661 C 0.40719 0.99359 0.6657 0.0
C662 C 0.43846 0.98326 0.6254 0.0
C663 C 0.43608 0.97138 0.60557 0.0
C664 C 0.42881 0.98063 0.58772 0.0
C665 C 0.42381 0.00198 0.59022 0.0
C666 C 0.42637 0.01392 0.61005 0.0
H667 H 0.39682 0.99436 0.67986 0.0
H668 H 0.39743 0.99369 0.65109 0.0
H669 H 0.41356 0.97787 0.66504 0.0
H670 H 0.4444 0.97592 0.63883 0.0
H671 H 0.44007 0.95499 0.60421 0.0
H672 H 0.42674 0.12976 0.83741 0.0
H673 H 0.40402 0.1407 0.86647 0.0
H674 H 0.45371 0.19244 0.88858 0.0
H675 H 0.47654 0.18146 0.85952 0.0
H676 H 0.43641 0.16299 0.92008 0.0
H677 H 0.37368 0.19568 0.87648 0.0
H678 H 0.37972 0.16972 0.86564 0.0
H679 H 0.39952 0.19352 0.86534 0.0
C680 C 0.43266 0.14367 0.84829 0.0
C681 C 0.45333 0.15484 0.84617 0.0
C682 C 0.41966 0.14997 0.86478 0.0
C683 C 0.42712 0.1675 0.87952 0.0
C684 C 0.4476 0.179 0.87722 0.0
H685 H 0.35586 0.22012 0.98481 0.0
H686 H 0.37864 0.21611 0.9538 0.0
C687 C 0.46055 0.17283 0.86056 0.0
C688 C 0.41412 0.17261 0.89823 0.0
H689 H 0.36672 0.18849 0.91271 0.0
C690 C 0.42126 0.16876 0.91851 0.0
C691 C 0.39442 0.18018 0.89611 0.0
C692 C 0.38639 0.18522 0.87476 0.0
C693 C 0.40889 0.17168 0.93668 0.0
C694 C 0.38888 0.17854 0.93446 0.0
C695 C 0.38201 0.18304 0.91429 0.0
C696 C 0.3748 0.18089 0.95294 0.0
C697 C 0.41721 0.16732 0.95815 0.0
C698 C 0.36493 0.16238 0.9625 0.0
C699 C 0.35187 0.1646 0.98016 0.0
C700 C 0.34855 0.18541 0.98864 0.0
C701 C 0.35833 0.20391 0.97885 0.0
C702 C 0.37124 0.20165 0.96107 0.0
H703 H 0.43443 0.16606 0.95776 0.0
H704 H 0.41453 0.18047 0.97036 0.0
H705 H 0.40852 0.15171 0.96315 0.0
H706 H 0.3674 0.14621 0.95633 0.0
H707 H 0.34471 0.15007 0.98743 0.0
H708 H 0.79402 0.37657 0.09174 0.0
H709 H 0.77192 0.36281 0.06065 0.0
H710 H 0.8046 0.41383 0.02468 0.0
H711 H 0.8269 0.42783 0.05605 0.0
H712 H 0.76114 0.41316 0.02586 0.0
H713 H 0.77854 0.33006 0.00315 0.0
H714 H 0.77441 0.33413 0.03128 0.0
H715 H 0.7966 0.35 0.01921 0.0
C716 C 0.79695 0.38449 0.07702 0.0
C717 C 0.81216 0.40327 0.0763 0.0
C718 C 0.78439 0.3765 0.05919 0.0
C719 C 0.78673 0.38713 0.04025 0.0
C720 C 0.80269 0.40525 0.03909 0.0
H721 H 0.69252 0.34238 0.93733 0.0
H722 H 0.72684 0.35372 0.9556 0.0
C723 C 0.81548 0.41316 0.05696 0.0
C724 C 0.77044 0.38112 0.02312 0.0
H725 H 0.7433 0.33714 0.99392 0.0
C726 C 0.75755 0.39667 0.01849 0.0
C727 C 0.76579 0.35964 0.0134 0.0
C728 C 0.77972 0.34257 0.01685 0.0
C729 C 0.73934 0.39093 0.00556 0.0
C730 C 0.73379 0.36906 0.99721 0.0
C731 C 0.74743 0.35384 1.00062 0.0
C732 C 0.71318 0.36147 0.98619 0.0
C733 C 0.72581 0.40819 1.00142 0.0
C734 C 0.69421 0.36162 0.99749 0.0
C735 C 0.67463 0.35505 0.98719 0.0
C736 C 0.67364 0.34821 0.96534 0.0
C737 C 0.69272 0.34762 0.95415 0.0
C738 C 0.71234 0.35409 0.96454 0.0
H739 H 0.7349 0.42489 0.00405 0.0
H740 H 0.71938 0.4059 0.98486 0.0
H741 H 0.7122 0.4069 0.01252 0.0
H742 H 0.69455 0.36696 0.0143 0.0
H743 H 0.66028 0.35568 0.99632 0.0
H744 H 0.00537 0.44099 0.35124 0.0
H745 H 0.00848 0.40597 0.33196 0.0
H746 H 0.07671 0.42042 0.33735 0.0
H747 H 0.07368 0.45539 0.35679 0.0
H748 H 0.02731 0.40023 0.29411 0.0
H749 H 0.06592 0.35818 0.35448 0.0
H750 H 0.05389 0.38231 0.36123 0.0
H751 H 0.08011 0.38466 0.35015 0.0
C752 C 0.02103 0.43666 0.34843 0.0
C753 C 0.03929 0.451 0.3555 0.0
C754 C 0.02279 0.4166 0.3375 0.0
C755 C 0.04282 0.41044 0.33344 0.0
C756 C 0.06107 0.42456 0.34077 0.0
H757 H 0.07256 0.32162 0.2296 0.0
H758 H 0.06976 0.35282 0.25489 0.0
C759 C 0.05932 0.44459 0.35183 0.0
C760 C 0.04461 0.39009 0.32008 0.0
H761 H 0.06576 0.34257 0.3185 0.0
C762 C 0.03559 0.38756 0.29952 0.0
C763 C 0.05519 0.37344 0.32723 0.0
C764 C 0.06415 0.37463 0.34956 0.0
C765 C 0.03727 0.36911 0.28574 0.0
C766 C 0.04871 0.35296 0.29251 0.0
C767 C 0.05726 0.35515 0.31326 0.0
C768 C 0.05196 0.33377 0.27813 0.0
C769 C 0.0266 0.36701 0.26409 0.0
C770 C 0.04369 0.31259 0.28324 0.0
C771 C 0.04542 0.29464 0.26887 0.0
C772 C 0.05549 0.29761 0.24917 0.0
C773 C 0.06452 0.31878 0.24453 0.0
C774 C 0.06285 0.33665 0.25892 0.0
H775 H 0.01387 0.37741 0.26365 0.0
H776 H 0.03855 0.37232 0.25198 0.0
H777 H 0.0196 0.34982 0.25956 0.0
H778 H 0.03534 0.31002 0.29806 0.0
H779 H 0.03834 0.27854 0.27294 0.0
H780 H 0.95151 0.72247 0.65436 0.0
H781 H 0.98302 0.74282 0.63909 0.0
H782 H 0.94869 0.74428 0.58025 0.0
H783 H 0.91696 0.72439 0.59555 0.0
H784 H 0.00502 0.72996 0.60516 0.0
H785 H 0.976 0.80724 0.59011 0.0
H786 H 0.96194 0.78755 0.60674 0.0
H787 H 0.95932 0.78361 0.57817 0.0
C788 C 0.95056 0.72738 0.63827 0.0
C789 C 0.93169 0.72185 0.6262 0.0
C790 C 0.96861 0.73899 0.62955 0.0
C791 C 0.96817 0.74533 0.60862 0.0
C792 C 0.94928 0.74004 0.5966 0.0
H793 H 0.07731 0.77314 0.52755 0.0
H794 H 0.04516 0.75724 0.54505 0.0
C795 C 0.93117 0.72855 0.60535 0.0
C796 C 0.98782 0.75621 0.59893 0.0
H797 H 0.00845 0.80105 0.57331 0.0
C798 C 0.00581 0.74558 0.59833 0.0
C799 C 0.98893 0.77671 0.59025 0.0
C800 C 0.97059 0.78956 0.59152 0.0
C801 C 0.02473 0.75466 0.5889 0.0
C802 C 0.02554 0.77469 0.57937 0.0
C803 C 0.00772 0.78557 0.58039 0.0
C804 C 0.04477 0.78464 0.56834 0.0
C805 C 0.04376 0.74284 0.58954 0.0
C806 C 0.05487 0.80566 0.57512 0.0
C807 C 0.07311 0.815 0.56489 0.0
C808 C 0.08162 0.80354 0.5476 0.0
C809 C 0.07122 0.78258 0.54067 0.0
C810 C 0.05294 0.7733 0.55085 0.0
H811 H 0.04251 0.73152 0.6025 0.0
H812 H 0.04474 0.73301 0.57419 0.0
H813 H 0.05871 0.75451 0.59187 0.0
H814 H 0.04873 0.81478 0.58848 0.0
H815 H 0.08041 0.83128 0.57047 0.0
H816 H 0.00746 0.61258 0.38286 0.0
H817 H 0.02788 0.64659 0.39827 0.0
H818 H 0.08089 0.61289 0.40934 0.0
H819 H 0.06067 0.57879 0.39375 0.0
H820 H 0.04424 0.65414 0.43971 0.0
H821 H 0.10833 0.66696 0.38007 0.0
H822 H 0.084 0.64834 0.37473 0.0
H823 H 0.10476 0.64051 0.39046 0.0
C824 C 0.02355 0.61241 0.38835 0.0
C825 C 0.03244 0.59295 0.38703 0.0
C826 C 0.03518 0.63188 0.39718 0.0
C827 C 0.05597 0.63233 0.40473 0.0
C828 C 0.06501 0.613 0.40324 0.0
H829 H 0.12427 0.73059 0.49518 0.0
H830 H 0.10674 0.69677 0.47647 0.0
C831 C 0.05338 0.5935 0.39442 0.0
C832 C 0.06772 0.65277 0.41521 0.0
H833 H 0.11244 0.69025 0.41202 0.0
C834 C 0.05913 0.66207 0.43364 0.0
C835 C 0.08704 0.66317 0.40713 0.0
C836 C 0.09653 0.65439 0.3869 0.0
C837 C 0.06947 0.68135 0.44438 0.0
C838 C 0.08906 0.69144 0.43663 0.0
C839 C 0.09752 0.68234 0.41802 0.0
C840 C 0.10078 0.71167 0.4475 0.0
C841 C 0.05916 0.69095 0.46375 0.0
C842 C 0.1038 0.73112 0.43717 0.0
C843 C 0.11387 0.7505 0.44779 0.0
C844 C 0.12122 0.75073 0.46891 0.0
C845 C 0.11871 0.73104 0.47897 0.0
C846 C 0.10861 0.7117 0.46835 0.0
H847 H 0.04204 0.68423 0.46462 0.0
H848 H 0.06715 0.68702 0.47834 0.0
H849 H 0.06076 0.70899 0.46372 0.0
H850 H 0.09794 0.73141 0.42103 0.0
H851 H 0.11561 0.76535 0.43954 0.0
H852 H 0.69772 0.59351 0.91515 0.0
H853 H 0.6762 0.55778 0.91784 0.0
H854 H 0.71171 0.53045 0.86686 0.0
H855 H 0.73284 0.56619 0.86362 0.0
H856 H 0.66993 0.51482 0.86311 0.0
H857 H 0.69759 0.50866 0.94576 0.0
H858 H 0.6849 0.5322 0.94279 0.0
H859 H 0.70947 0.5297 0.92936 0.0
C860 C 0.70083 0.57994 0.90439 0.0
C861 C 0.71713 0.58267 0.8893 0.0
C862 C 0.68861 0.55948 0.90605 0.0
C863 C 0.69268 0.54131 0.8929 0.0
C864 C 0.70837 0.5442 0.87727 0.0
H865 H 0.65927 0.40592 0.91935 0.0
H866 H 0.67704 0.44256 0.91314 0.0
C867 C 0.72045 0.56467 0.87545 0.0
C868 C 0.68103 0.51917 0.8957 0.0
H869 H 0.67063 0.48077 0.93191 0.0
C870 C 0.67007 0.50735 0.87815 0.0
C871 C 0.68154 0.5093 0.91523 0.0
C872 C 0.69417 0.52051 0.9343 0.0
C873 C 0.65952 0.48598 0.87961 0.0
C874 C 0.6595 0.47637 0.89932 0.0
C875 C 0.67051 0.48819 0.91685 0.0
C876 C 0.64869 0.45388 0.9021 0.0
C877 C 0.64907 0.47373 0.85984 0.0
C878 C 0.62683 0.448 0.89798 0.0
C879 C 0.6167 0.42697 0.90135 0.0
C880 C 0.62815 0.41156 0.90928 0.0
C881 C 0.65001 0.4175 0.91342 0.0
C882 C 0.66017 0.43841 0.90982 0.0
H883 H 0.65569 0.48076 0.84509 0.0
H884 H 0.65102 0.45622 0.8591 0.0
H885 H 0.63184 0.47481 0.86009 0.0
H886 H 0.61751 0.45979 0.89257 0.0
H887 H 0.59978 0.42299 0.89836 0.0
H888 H 0.77781 0.85449 0.752 0.0
H889 H 0.78687 0.82671 0.77451 0.0
H890 H 0.73199 0.83362 0.81314 0.0
H891 H 0.72331 0.86193 0.7913 0.0
H892 H 0.76674 0.82728 0.83707 0.0
H893 H 0.75273 0.76574 0.76762 0.0
H894 H 0.77329 0.78837 0.76447 0.0
H895 H 0.74615 0.79292 0.767 0.0
C896 C 0.76794 0.85053 0.76556 0.0
C897 C 0.74947 0.8601 0.76945 0.0
C898 C 0.77303 0.83444 0.77831 0.0
C899 C 0.75975 0.82764 0.79514 0.0
C900 C 0.74231 0.83837 0.80006 0.0
H901 H 0.7329 0.72449 0.87946 0.0
H902 H 0.73612 0.75848 0.86159 0.0
C903 C 0.73726 0.85446 0.78741 0.0
C904 C 0.76294 0.80844 0.80681 0.0
H905 H 0.76065 0.75306 0.80044 0.0
C906 C 0.7656 0.81107 0.82906 0.0
C907 C 0.76147 0.78727 0.79634 0.0
C908 C 0.75809 0.78324 0.77256 0.0
C909 C 0.76655 0.79308 0.84114 0.0
C910 C 0.76428 0.77186 0.83072 0.0
C911 C 0.7623 0.76932 0.80842 0.0
C912 C 0.76311 0.7519 0.84255 0.0
C913 C 0.77004 0.79704 0.86492 0.0
C914 C 0.77684 0.73663 0.83746 0.0
C915 C 0.77484 0.71708 0.84745 0.0
C916 C 0.75903 0.71237 0.86275 0.0
C917 C 0.7454 0.72777 0.86796 0.0
C918 C 0.74731 0.74726 0.85784 0.0
H919 H 0.77817 0.81387 0.86933 0.0
H920 H 0.75444 0.79507 0.87296 0.0
H921 H 0.77964 0.78526 0.87104 0.0
H922 H 0.78908 0.73979 0.82565 0.0
H923 H 0.7858 0.70574 0.84328 0.0
H924 H 0.97795 0.2776 0.22448 0.0
H925 H 0.95054 0.30115 0.22369 0.0
H926 H 0.93325 0.27517 0.15957 0.0
H927 H 0.96076 0.25168 0.16012 0.0
H928 H 0.94777 0.3331 0.1958 0.0
H929 H 0.87579 0.27063 0.18928 0.0
H930 H 0.90138 0.26452 0.19722 0.0
H931 H 0.89537 0.26625 0.16952 0.0
C932 C 0.96839 0.27688 0.21016 0.0
C933 C 0.97166 0.26271 0.19232 0.0
C934 C 0.95261 0.29027 0.20981 0.0
C935 C 0.93964 0.28969 0.1917 0.0
C936 C 0.94273 0.27551 0.17391 0.0
H937 H 0.85148 0.36404 0.14145 0.0
H938 H 0.87318 0.33661 0.15036 0.0
C939 C 0.95852 0.2621 0.17424 0.0
C940 C 0.92377 0.30486 0.19092 0.0
H941 H 0.87121 0.30688 0.18204 0.0
C942 C 0.93098 0.3274 0.19307 0.0
C943 C 0.90188 0.29736 0.18737 0.0
C944 C 0.89307 0.27337 0.18591 0.0
C945 C 0.91706 0.34264 0.19088 0.0
C946 C 0.89523 0.33513 0.18685 0.0
C947 C 0.88793 0.3126 0.1852 0.0
C948 C 0.88013 0.35039 0.18264 0.0
C949 C 0.92599 0.36661 0.19197 0.0
C950 C 0.87618 0.36678 0.19809 0.0
C951 C 0.86384 0.38259 0.19298 0.0
C952 C 0.85523 0.38221 0.17234 0.0
C953 C 0.8582 0.36497 0.15736 0.0
C954 C 0.87049 0.34922 0.16247 0.0
H955 H 0.94358 0.36933 0.1907 0.0
H956 H 0.91922 0.37479 0.17903 0.0
H957 H 0.92175 0.37453 0.20745 0.0
H958 H 0.88316 0.36773 0.21389 0.0
H959 H 0.86191 0.39567 0.20485 0.0
H960 H 0.82067 0.69848 0.71912 0.0
H961 H 0.79018 0.71663 0.72965 0.0
H962 H 0.80743 0.76363 0.68315 0.0
H963 H 0.83811 0.74615 0.67316 0.0
H964 H 0.79503 0.78251 0.72058 0.0
H965 H 0.73638 0.71019 0.6928 0.0
H966 H 0.75525 0.70612 0.71281 0.0
H967 H 0.76423 0.71219 0.68658 0.0
C968 C 0.81823 0.71298 0.71151 0.0
C969 C 0.83167 0.7207 0.69506 0.0
C970 C 0.80061 0.72314 0.71732 0.0
C971 C 0.79624 0.74119 0.70683 0.0
C972 C 0.81035 0.7496 0.69133 0.0
H973 H 0.70461 0.81244 0.66966 0.0
H974 H 0.72643 0.78408 0.6749 0.0
C975 C 0.82785 0.73952 0.68554 0.0
C976 C 0.77679 0.75125 0.71115 0.0
H977 H 0.72299 0.74273 0.70286 0.0
C978 C 0.77923 0.7737 0.71718 0.0
C979 C 0.75619 0.73976 0.70641 0.0
C980 C 0.75271 0.71577 0.69914 0.0
C981 C 0.76186 0.78517 0.71762 0.0
C982 C 0.74139 0.77384 0.71234 0.0
C983 C 0.7387 0.75123 0.7072 0.0
C984 C 0.72351 0.78604 0.7092 0.0
C985 C 0.76568 0.80964 0.72221 0.0
C986 C 0.71363 0.79557 0.72669 0.0
C987 C 0.70113 0.81188 0.72376 0.0
C988 C 0.69844 0.81884 0.70328 0.0
C989 C 0.70651 0.80755 0.68564 0.0
C990 C 0.71896 0.79129 0.68859 0.0
H991 H 0.78235 0.81585 0.7272 0.0
H992 H 0.76197 0.8176 0.70773 0.0
H993 H 0.75498 0.81455 0.73498 0.0
H994 H 0.71686 0.7916 0.74271 0.0
H995 H 0.6952 0.82027 0.7377 0.0
H996 H 0.76541 0.59262 0.79447 0.0
H997 H 0.77542 0.60103 0.75819 0.0
H998 H 0.81247 0.66167 0.78252 0.0
H999 H 0.80288 0.65315 0.81897 0.0
H1000 H 0.76617 0.63525 0.7376 0.0
H1001 H 0.85344 0.63736 0.74122 0.0
H1002 H 0.83601 0.62605 0.76153 0.0
H1003 H 0.84356 0.65512 0.76141 0.0
C1004 C 0.77597 0.60759 0.79216 0.0
C1005 C 0.78341 0.62217 0.80964 0.0
C1006 C 0.78163 0.61241 0.77138 0.0
C1007 C 0.79483 0.63189 0.7676 0.0
C1008 C 0.80262 0.64632 0.78505 0.0
H1009 H 0.80164 0.69239 0.64658 0.0
H1010 H 0.79221 0.68098 0.68218 0.0
C1011 C 0.79708 0.64144 0.80589 0.0
C1012 C 0.7994 0.63756 0.74535 0.0
H1013 H 0.83954 0.65029 0.71044 0.0
C1014 C 0.78222 0.63851 0.73163 0.0
C1015 C 0.82031 0.64156 0.7375 0.0
C1016 C 0.83939 0.63978 0.7511 0.0
C1017 C 0.78536 0.64352 0.71034 0.0
C1018 C 0.80632 0.64823 0.70265 0.0
C1019 C 0.82348 0.64698 0.71633 0.0
C1020 C 0.81093 0.65448 0.68053 0.0
C1021 C 0.76609 0.64311 0.69626 0.0
C1022 C 0.82467 0.64354 0.66765 0.0
C1023 C 0.83026 0.6503 0.64743 0.0
C1024 C 0.82242 0.66821 0.63983 0.0
C1025 C 0.80798 0.67859 0.65223 0.0
C1026 C 0.80252 0.67198 0.67253 0.0
H1027 H 0.75216 0.63228 0.7021 0.0
H1028 H 0.76184 0.65982 0.69649 0.0
H1029 H 0.76912 0.63745 0.67954 0.0
H1030 H 0.83118 0.62984 0.67329 0.0
H1031 H 0.84056 0.64148 0.63763 0.0
H1032 H 0.8154 0.632 0.96635 0.0
H1033 H 0.8166 0.61155 0.99805 0.0
H1034 H 0.78533 0.55342 0.96287 0.0
H1035 H 0.78437 0.57361 0.93103 0.0
H1036 H 0.78068 0.58686 0.01933 0.0
H1037 H 0.84016 0.53565 0.98852 0.0
H1038 H 0.83643 0.56069 0.97717 0.0
H1039 H 0.81792 0.53624 0.9711 0.0
C1040 C 0.80899 0.61481 0.96527 0.0
C1041 C 0.79989 0.60442 0.94608 0.0
C1042 C 0.80954 0.60321 0.98345 0.0
C1043 C 0.80121 0.58095 0.98274 0.0
C1044 C 0.79203 0.57054 0.96369 0.0
H1045 H 0.79715 0.47873 0.06931 0.0
H1046 H 0.7924 0.5009 0.03963 0.0
C1047 C 0.79136 0.58215 0.94555 0.0
C1048 C 0.8021 0.56856 1.0019 0.0
H1049 H 0.82383 0.5268 0.0211 0.0
C1050 C 0.79016 0.57377 0.01981 0.0
C1051 C 0.81446 0.55151 1.00241 0.0
C1052 C 0.82814 0.54572 0.98387 0.0
C1053 C 0.78986 0.56199 0.03809 0.0
C1054 C 0.80221 0.54487 0.0386 0.0
C1055 C 0.81428 0.53984 0.0207 0.0
C1056 C 0.80293 0.53182 0.0574 0.0
C1057 C 0.77588 0.5676 0.05643 0.0
C1058 C 0.8101 0.5418 0.0774 0.0
C1059 C 0.81268 0.52912 0.09446 0.0
C1060 C 0.80845 0.50621 0.0917 0.0
C1061 C 0.8007 0.49633 0.07184 0.0
C1062 C 0.79797 0.50898 0.05489 0.0
H1063 H 0.76313 0.57655 0.05127 0.0
H1064 H 0.76843 0.55268 0.06382 0.0
H1065 H 0.78566 0.57826 0.06878 0.0
H1066 H 0.81449 0.55935 0.07962 0.0
H1067 H 0.81898 0.53718 0.10945 0.0
H1068 H 0.90618 0.45099 0.15181 0.0
H1069 H 0.92774 0.46053 0.18424 0.0
H1070 H 0.91738 0.52747 0.18343 0.0
H1071 H 0.89607 0.51823 0.15084 0.0
H1072 H 0.95868 0.5228 0.1977 0.0
H1073 H 0.89502 0.47155 0.23955 0.0
H1074 H 0.90667 0.45761 0.21755 0.0
H1075 H 0.89169 0.47914 0.21277 0.0
C1076 C 0.90892 0.46787 0.15818 0.0
C1077 C 0.89907 0.48378 0.14886 0.0
C1078 C 0.92114 0.47325 0.17682 0.0
C1079 C 0.92368 0.49458 0.18654 0.0
C1080 C 0.91545 0.51086 0.17629 0.0
H1081 H 0.94264 0.53576 0.32029 0.0
H1082 H 0.93011 0.5282 0.28336 0.0
C1083 C 0.90327 0.50553 0.15762 0.0
C1084 C 0.93309 0.49953 0.20827 0.0
H1085 H 0.92481 0.48804 0.26016 0.0
C1086 C 0.95137 0.51514 0.21137 0.0
C1087 C 0.92327 0.4898 0.22612 0.0
C1088 C 0.90298 0.47373 0.22397 0.0
C1089 C 0.96018 0.52118 0.23185 0.0
C1090 C 0.95054 0.51117 0.24962 0.0
C1091 C 0.93223 0.49561 0.2465 0.0
C1092 C 0.95882 0.51684 0.27173 0.0
C1093 C 0.97938 0.53861 0.23436 0.0
C1094 C 0.97913 0.51295 0.27748 0.0
C1095 C 0.98636 0.51728 0.2986 0.0
C1096 C 0.97336 0.52547 0.31442 0.0
C1097 C 0.95309 0.5295 0.30854 0.0
C1098 C 0.94588 0.52517 0.28743 0.0
H1099 H 0.98168 0.54832 0.22018 0.0
H1100 H 0.978 0.54986 0.24869 0.0
H1101 H 0.99375 0.53079 0.23636 0.0
H1102 H 0.98922 0.50612 0.26574 0.0
H1103 H 1.00202 0.51387 0.30258 0.0
H1104 H 0.97589 0.5689 0.43638 0.0
H1105 H 0.96424 0.58402 0.47059 0.0
H1106 H 0.9336 0.52009 0.48465 0.0
H1107 H 0.94567 0.50469 0.45065 0.0
H1108 H 0.92178 0.58245 0.48431 0.0
H1109 H 0.96947 0.54186 0.53885 0.0
H1110 H 0.9755 0.54359 0.51091 0.0
H1111 H 0.95384 0.5241 0.51903 0.0
C1112 C 0.96695 0.55797 0.44684 0.0
C1113 C 0.96181 0.53554 0.44076 0.0
C1114 C 0.96019 0.56667 0.46635 0.0
C1115 C 0.9483 0.55314 0.48028 0.0
C1116 C 0.94307 0.53077 0.4743 0.0
H1117 H 0.89133 0.58533 0.60333 0.0
H1118 H 0.90367 0.56564 0.57153 0.0
C1119 C 0.94977 0.52204 0.45473 0.0
C1120 C 0.94068 0.56272 0.50063 0.0
H1121 H 0.9451 0.56325 0.55484 0.0
C1122 C 0.92688 0.57825 0.49973 0.0
C1123 C 0.94722 0.55707 0.52071 0.0
C1124 C 0.96245 0.54087 0.52257 0.0
C1125 C 0.91948 0.58836 0.51836 0.0
C1126 C 0.92641 0.58313 0.53846 0.0
C1127 C 0.93987 0.56726 0.53941 0.0
C1128 C 0.92035 0.59459 0.55855 0.0
C1129 C 0.90412 0.60444 0.51635 0.0
C1130 C 0.92627 0.61723 0.56213 0.0
C1131 C 0.91929 0.62845 0.58019 0.0
C1132 C 0.90635 0.61725 0.59517 0.0
C1133 C 0.90131 0.5944 0.59211 0.0
C1134 C 0.90827 0.58315 0.57393 0.0
H1135 H 0.89592 0.60208 0.50058 0.0
H1136 H 0.89197 0.60293 0.52903 0.0
H1137 H 0.91298 0.62127 0.518 0.0
H1138 H 0.93605 0.6263 0.55074 0.0
H1139 H 0.92386 0.64597 0.58233 0.0
loop_
_geom_bond_atom_site_label_1
_geom_bond_atom_site_label_2
_geom_bond_distance
_geom_bond_site_symmetry_2
_ccdc_geom_bond_type
Cu0 N1 1.999 . S
Cu0 O6 1.974 . S
Cu0 N11 1.985 . S
Cu0 O20 1.959 . S
N1 Cu0 1.999 . S
N1 C3 1.263 . S
N1 C5 1.389 . S
N2 C3 1.358 . S
N2 C4 1.400 . S
C3 N1 1.263 . S
C3 N2 1.358 . S
C3 H9 0.930 . S
C4 N2 1.400 . S
C4 C5 1.351 . S
C4 H21 0.930 . S
C5 N1 1.389 . S
C5 C4 1.351 . S
C5 H10 0.930 . S
O6 Cu0 1.974 . S
O6 C16 1.282 . S
C7 O8 1.261 . S
C7 O20 1.251 . S
O8 C7 1.261 . S
H9 C3 0.930 . S
H10 C5 0.930 . S
N11 Cu0 1.985 . S
N11 C13 1.335 1_455 S
N11 C14 1.390 . S
N12 C13 1.345 . S
N12 C15 1.336 1_655 S
C13 N11 1.335 1_655 S
C13 N12 1.345 . S
C13 H18 0.930 . S
C14 N11 1.390 . S
C14 C15 1.346 . S
C14 H19 0.930 . S
C15 N12 1.336 1_455 S
C15 C14 1.346 . S
C15 H22 0.929 . S
C16 O6 1.282 . S
C16 O17 1.216 . S
O17 C16 1.216 . S
H18 C13 0.930 . S
H19 C14 0.930 . S
O20 Cu0 1.959 . S
O20 C7 1.251 . S
H21 C4 0.930 . S
H22 C15 0.929 . S
Cu23 N24 1.999 . S
Cu23 O29 1.974 . S
Cu23 N34 1.985 . S
Cu23 O43 1.959 . S
N24 Cu23 1.999 . S
N24 C26 1.263 . S
N24 C28 1.389 . S
N25 C26 1.358 . S
N25 C27 1.400 . S
C26 N24 1.263 . S
C26 N25 1.358 . S
C26 H32 0.930 . S
C27 N25 1.400 . S
C27 C28 1.351 . S
C27 H44 0.930 . S
C28 N24 1.389 . S
C28 C27 1.351 . S
C28 H33 0.930 . S
O29 Cu23 1.974 . S
O29 C39 1.282 . S
C30 O31 1.261 . S
C30 O43 1.251 . S
O31 C30 1.261 . S
H32 C26 0.930 . S
H33 C28 0.930 . S
N34 Cu23 1.985 . S
N34 C36 1.335 . S
N34 C37 1.390 . S
N35 C36 1.345 . S
N35 C38 1.336 . S
C36 N34 1.335 . S
C36 N35 1.345 . S
C36 H41 0.930 . S
C37 N34 1.390 . S
C37 C38 1.346 . S
C37 H42 0.930 . S
C38 N35 1.336 . S
C38 C37 1.346 . S
C38 H45 0.929 . S
C39 O29 1.282 . S
C39 O40 1.216 . S
O40 C39 1.216 . S
H41 C36 0.930 . S
H42 C37 0.930 . S
O43 Cu23 1.959 . S
O43 C30 1.251 . S
H44 C27 0.930 . S
H45 C38 0.929 . S
Cu46 N47 1.999 . S
Cu46 O52 1.974 . S
Cu46 N57 1.985 . S
Cu46 O66 1.959 . S
N47 Cu46 1.999 . S
N47 C49 1.263 . S
N47 C51 1.389 . S
N48 C49 1.358 . S
N48 C50 1.400 . S
C49 N47 1.263 . S
C49 N48 1.358 . S
C49 H55 0.930 . S
C50 N48 1.400 . S
C50 C51 1.351 . S
C50 H67 0.930 . S
C51 N47 1.389 . S
C51 C50 1.351 . S
C51 H56 0.930 . S
O52 Cu46 1.974 . S
O52 C62 1.282 . S
C53 O54 1.261 . S
C53 O66 1.251 . S
O54 C53 1.261 . S
H55 C49 0.930 . S
H56 C51 0.930 . S
N57 Cu46 1.985 . S
N57 C59 1.335 . S
N57 C60 1.390 . S
N58 C59 1.345 . S
N58 C61 1.336 . S
C59 N57 1.335 . S
C59 N58 1.345 . S
C59 H64 0.930 . S
C60 N57 1.390 . S
C60 C61 1.346 . S
C60 H65 0.930 . S
C61 N58 1.336 . S
C61 C60 1.346 . S
C61 H68 0.929 . S
C62 O52 1.282 . S
C62 O63 1.216 . S
O63 C62 1.216 . S
H64 C59 0.930 . S
H65 C60 0.930 . S
O66 Cu46 1.959 . S
O66 C53 1.251 . S
H67 C50 0.930 . S
H68 C61 0.929 . S
Cu69 N70 1.999 . S
Cu69 O75 1.974 . S
Cu69 N80 1.985 . S
Cu69 O89 1.959 . S
N70 Cu69 1.999 . S
N70 C72 1.263 . S
N70 C74 1.389 . S
N71 C72 1.358 . S
N71 C73 1.400 . S
C72 N70 1.263 . S
C72 N71 1.358 . S
C72 H78 0.930 . S
C73 N71 1.400 . S
C73 C74 1.351 . S
C73 H90 0.930 . S
C74 N70 1.389 . S
C74 C73 1.351 . S
C74 H79 0.930 . S
O75 Cu69 1.974 . S
O75 C85 1.282 1_556 S
C76 O77 1.261 . S
C76 O89 1.251 . S
O77 C76 1.261 . S
H78 C72 0.930 . S
H79 C74 0.930 . S
N80 Cu69 1.985 . S
N80 C82 1.335 . S
N80 C83 1.390 1_556 S
N81 C82 1.345 . S
N81 C84 1.336 1_556 S
C82 N80 1.335 . S
C82 N81 1.345 . S
C82 H87 0.930 . S
C83 N80 1.390 1_554 S
C83 C84 1.346 . S
C83 H88 0.930 . S
C84 N81 1.336 1_554 S
C84 C83 1.346 . S
C84 H91 0.929 . S
C85 O75 1.282 1_554 S
C85 O86 1.216 1_554 S
O86 C85 1.216 1_556 S
H87 C82 0.930 . S
H88 C83 0.930 . S
O89 Cu69 1.959 . S
O89 C76 1.251 . S
H90 C73 0.930 . S
H91 C84 0.929 . S
Cu92 N93 1.999 . S
Cu92 O98 1.974 . S
Cu92 N103 1.985 1_545 S
Cu92 O112 1.959 1_545 S
N93 Cu92 1.999 . S
N93 C95 1.263 . S
N93 C97 1.389 . S
N94 C95 1.358 . S
N94 C96 1.400 . S
C95 N93 1.263 . S
C95 N94 1.358 . S
C95 H101 0.930 . S
C96 N94 1.400 . S
C96 C97 1.351 . S
C96 H113 0.930 . S
C97 N93 1.389 . S
C97 C96 1.351 . S
C97 H102 0.930 . S
O98 Cu92 1.974 . S
O98 C108 1.282 . S
C99 O100 1.261 . S
C99 O112 1.251 . S
O100 C99 1.261 . S
H101 C95 0.930 . S
H102 C97 0.930 . S
N103 Cu92 1.985 1_565 S
N103 C105 1.335 . S
N103 C106 1.390 1_565 S
N104 C105 1.345 . S
N104 C107 1.336 . S
C105 N103 1.335 . S
C105 N104 1.345 . S
C105 H110 0.930 . S
C106 N103 1.390 1_545 S
C106 C107 1.336 1_545 S
C106 H111 0.939 . S
C107 N104 1.336 . S
C107 C106 1.336 1_565 S
C107 H114 0.929 . S
C108 O98 1.282 . S
C108 O109 1.216 . S
O109 C108 1.216 . S
H110 C105 0.930 . S
H111 C106 0.939 . S
O112 Cu92 1.959 1_565 S
O112 C99 1.251 . S
H113 C96 0.930 . S
H114 C107 0.929 . S
Cu115 N116 1.999 . S
Cu115 O121 1.974 . S
Cu115 N126 1.985 . S
Cu115 O135 1.959 . S
N116 Cu115 1.999 . S
N116 C118 1.263 . S
N116 C120 1.389 . S
N117 C118 1.358 . S
N117 C119 1.400 . S
C118 N116 1.263 . S
C118 N117 1.358 . S
C118 H124 0.930 . S
C119 N117 1.400 . S
C119 C120 1.351 . S
C119 H136 0.930 1_565 S
C120 N116 1.389 . S
C120 C119 1.351 . S
C120 H125 0.930 . S
O121 Cu115 1.974 . S
O121 C131 1.282 . S
C122 O123 1.261 . S
C122 O135 1.251 . S
O123 C122 1.261 . S
H124 C118 0.930 . S
H125 C120 0.930 . S
N126 Cu115 1.985 . S
N126 C128 1.335 . S
N126 C129 1.390 . S
N127 C128 1.345 . S
N127 C130 1.336 . S
C128 N126 1.335 . S
C128 N127 1.345 . S
C128 H133 0.930 . S
C129 N126 1.390 . S
C129 C130 1.346 . S
C129 H134 0.930 . S
C130 N127 1.336 . S
C130 C129 1.346 . S
C130 H137 0.929 . S
C131 O121 1.282 . S
C131 O132 1.216 . S
O132 C131 1.216 . S
H133 C128 0.930 . S
H134 C129 0.930 . S
O135 Cu115 1.959 . S
O135 C122 1.251 . S
H136 C119 0.930 1_545 S
H137 C130 0.929 . S
Cu138 N139 1.999 . S
Cu138 O144 1.974 . S
Cu138 N149 1.985 . S
Cu138 O158 1.959 . S
N139 Cu138 1.999 . S
N139 C141 1.263 . S
N139 C143 1.389 . S
N140 C141 1.358 . S
N140 C142 1.400 . S
C141 N139 1.263 . S
C141 N140 1.358 . S
C141 H147 0.930 . S
C142 N140 1.400 . S
C142 C143 1.351 . S
C142 H159 0.930 . S
C143 N139 1.389 . S
C143 C142 1.351 . S
C143 H148 0.930 . S
O144 Cu138 1.974 . S
O144 C154 1.282 . S
C145 O146 1.261 . S
C145 O158 1.251 . S
O146 C145 1.261 . S
H147 C141 0.930 . S
H148 C143 0.930 . S
N149 Cu138 1.985 . S
N149 C151 1.335 . S
N149 C152 1.390 . S
N150 C151 1.345 . S
N150 C153 1.336 . S
C151 N149 1.335 . S
C151 N150 1.345 . S
C151 H156 0.930 . S
C152 N149 1.390 . S
C152 C153 1.346 . S
C152 H157 0.930 . S
C153 N150 1.336 . S
C153 C152 1.346 . S
C153 H160 0.929 . S
C154 O144 1.282 . S
C154 O155 1.216 . S
O155 C154 1.216 . S
H156 C151 0.930 . S
H157 C152 0.930 . S
O158 Cu138 1.959 . S
O158 C145 1.251 . S
H159 C142 0.930 . S
H160 C153 0.929 . S
Cu161 N162 1.999 1_554 S
Cu161 O167 1.974 . S
Cu161 N172 1.985 . S
Cu161 O181 1.959 . S
N162 Cu161 1.999 1_556 S
N162 C164 1.263 . S
N162 C166 1.389 . S
N163 C164 1.358 . S
N163 C165 1.400 . S
C164 N162 1.263 . S
C164 N163 1.358 . S
C164 H170 0.930 . S
C165 N163 1.400 . S
C165 C166 1.351 . S
C165 H182 0.930 . S
C166 N162 1.389 . S
C166 C165 1.351 . S
C166 H171 0.930 . S
O167 Cu161 1.974 . S
O167 C177 1.282 . S
C168 O169 1.261 . S
C168 O181 1.251 . S
O169 C168 1.261 . S
H170 C164 0.930 . S
H171 C166 0.930 . S
N172 Cu161 1.985 . S
N172 C174 1.335 . S
N172 C175 1.390 . S
N173 C174 1.345 . S
N173 C176 1.336 . S
C174 N172 1.335 . S
C174 N173 1.345 . S
C174 H179 0.930 . S
C175 N172 1.390 . S
C175 C176 1.346 . S
C175 H180 0.930 . S
C176 N173 1.336 . S
C176 C175 1.346 . S
C176 H183 0.929 . S
C177 O167 1.282 . S
C177 O178 1.216 . S
O178 C177 1.216 . S
H179 C174 0.930 . S
H180 C175 0.930 . S
O181 Cu161 1.959 . S
O181 C168 1.251 . S
H182 C165 0.930 . S
H183 C176 0.929 . S
Cu184 N185 1.999 . S
Cu184 O190 1.974 . S
Cu184 N195 1.985 . S
Cu184 O204 1.959 . S
N185 Cu184 1.999 . S
N185 C187 1.263 . S
N185 C189 1.389 . S
N186 C187 1.358 . S
N186 C188 1.400 . S
C187 N185 1.263 . S
C187 N186 1.358 . S
C187 H193 0.930 . S
C188 N186 1.400 . S
C188 C189 1.351 . S
C188 H205 0.930 . S
C189 N185 1.389 . S
C189 C188 1.351 . S
C189 H194 0.930 . S
O190 Cu184 1.974 . S
O190 C200 1.282 . S
C191 O192 1.261 . S
C191 O204 1.251 . S
O192 C191 1.261 . S
H193 C187 0.930 . S
H194 C189 0.930 . S
N195 Cu184 1.985 . S
N195 C197 1.335 . S
N195 C198 1.390 . S
N196 C197 1.345 . S
N196 C199 1.336 . S
C197 N195 1.335 . S
C197 N196 1.345 . S
C197 H202 0.930 . S
C198 N195 1.390 . S
C198 C199 1.346 . S
C198 H203 0.930 . S
C199 N196 1.336 . S
C199 C198 1.346 . S
C199 H206 0.929 . S
C200 O190 1.282 . S
C200 O201 1.216 . S
O201 C200 1.216 . S
H202 C197 0.930 . S
H203 C198 0.930 . S
O204 Cu184 1.959 . S
O204 C191 1.251 . S
H205 C188 0.930 . S
H206 C199 0.929 . S
Cu207 N208 1.968 1_655 S
Cu207 O213 1.974 . S
Cu207 N218 1.985 . S
Cu207 O227 1.959 1_655 S
N208 Cu207 1.968 1_455 S
N208 C210 1.258 1_455 S
N208 C212 1.434 . S
N209 C210 1.358 1_455 S
N209 C211 1.400 . S
C210 N208 1.258 1_655 S
C210 N209 1.358 1_655 S
C210 H216 0.930 . S
C211 N209 1.400 . S
C211 C212 1.351 . S
C211 H228 0.930 . S
C212 N208 1.434 . S
C212 C211 1.351 . S
C212 H217 0.930 . S
O213 Cu207 1.974 . S
O213 C223 1.282 . S
C214 O215 1.261 . S
C214 O227 1.251 . S
O215 C214 1.261 . S
H216 C210 0.930 . S
H217 C212 0.930 . S
N218 Cu207 1.985 . S
N218 C220 1.335 . S
N218 C221 1.390 . S
N219 C220 1.345 . S
N219 C222 1.336 . S
C220 N218 1.335 . S
C220 N219 1.345 . S
C220 H225 0.930 . S
C221 N218 1.390 . S
C221 C222 1.346 . S
C221 H226 0.930 . S
C222 N219 1.336 . S
C222 C221 1.346 . S
C222 H229 0.929 . S
C223 O213 1.282 . S
C223 O224 1.216 . S
O224 C223 1.216 . S
H225 C220 0.930 . S
H226 C221 0.930 . S
O227 Cu207 1.959 1_455 S
O227 C214 1.251 . S
H228 C211 0.930 . S
H229 C222 0.929 . S
Cu230 N231 1.999 . S
Cu230 O236 1.974 . S
Cu230 N241 1.985 . S
Cu230 O250 1.959 . S
N231 Cu230 1.999 . S
N231 C233 1.263 . S
N231 C235 1.389 . S
N232 C233 1.358 . S
N232 C234 1.400 . S
C233 N231 1.263 . S
C233 N232 1.358 . S
C233 H239 0.930 . S
C234 N232 1.400 . S
C234 C235 1.351 . S
C234 H251 0.930 . S
C235 N231 1.389 . S
C235 C234 1.351 . S
C235 H240 0.930 . S
O236 Cu230 1.974 . S
O236 C246 1.282 . S
C237 O238 1.261 . S
C237 O250 1.251 . S
O238 C237 1.261 . S
H239 C233 0.930 . S
H240 C235 0.930 . S
N241 Cu230 1.985 . S
N241 C243 1.335 . S
N241 C244 1.390 . S
N242 C243 1.345 . S
N242 C245 1.336 . S
C243 N241 1.335 . S
C243 N242 1.345 . S
C243 H248 0.930 . S
C244 N241 1.390 . S
C244 C245 1.346 . S
C244 H249 0.930 . S
C245 N242 1.336 . S
C245 C244 1.346 . S
C245 H252 0.929 . S
C246 O236 1.282 . S
C246 O247 1.216 . S
O247 C246 1.216 . S
H248 C243 0.930 . S
H249 C244 0.930 . S
O250 Cu230 1.959 . S
O250 C237 1.251 . S
H251 C234 0.930 . S
H252 C245 0.929 . S
Cu253 N254 1.999 . S
Cu253 O259 1.974 . S
Cu253 N264 1.985 . S
Cu253 O273 1.959 . S
N254 Cu253 1.999 . S
N254 C256 1.263 . S
N254 C258 1.389 . S
N255 C256 1.358 . S
N255 C257 1.400 . S
C256 N254 1.263 . S
C256 N255 1.358 . S
C256 H262 0.930 . S
C257 N255 1.400 . S
C257 C258 1.351 . S
C257 H274 0.930 . S
C258 N254 1.389 . S
C258 C257 1.351 . S
C258 H263 0.930 . S
O259 Cu253 1.974 . S
O259 C269 1.282 . S
C260 O261 1.261 . S
C260 O273 1.251 . S
O261 C260 1.261 . S
H262 C256 0.930 . S
H263 C258 0.930 . S
N264 Cu253 1.985 . S
N264 C266 1.335 . S
N264 C267 1.390 . S
N265 C266 1.345 . S
N265 C268 1.336 . S
C266 N264 1.335 . S
C266 N265 1.345 . S
C266 H271 0.930 . S
C267 N264 1.390 . S
C267 C268 1.346 . S
C267 H272 0.930 . S
C268 N265 1.336 . S
C268 C267 1.346 . S
C268 H275 0.929 . S
C269 O259 1.282 . S
C269 O270 1.216 . S
O270 C269 1.216 . S
H271 C266 0.930 . S
H272 C267 0.930 . S
O273 Cu253 1.959 . S
O273 C260 1.251 . S
H274 C257 0.930 . S
H275 C268 0.929 . S
H276 C284 0.929 . S
H277 C286 0.930 . S
H278 C288 0.930 . S
H279 C291 0.929 . S
H280 C294 0.930 . S
H281 C296 0.960 . S
H282 C296 0.960 . S
H283 C296 0.960 . S
C284 H276 0.929 . S
C284 C285 1.377 . S
C284 C286 1.384 . S
C285 C284 1.377 . S
C285 C291 1.390 . S
C286 H277 0.930 . S
C286 C284 1.384 . S
C286 C287 1.372 . S
C287 C286 1.372 . S
C287 C288 1.400 . S
C287 C292 1.490 . S
C288 H278 0.930 . S
C288 C287 1.400 . S
C288 C291 1.386 . S
H289 C305 0.930 . S
H290 C306 0.931 . S
C291 H279 0.929 . S
C291 C285 1.390 . S
C291 C288 1.386 . S
C292 C287 1.490 . S
C292 C294 1.395 . S
C292 C295 1.403 . S
H293 C299 0.930 . S
C294 H280 0.930 . S
C294 C292 1.395 . S
C294 C297 1.403 . S
C295 C292 1.403 . S
C295 C296 1.524 . S
C295 C299 1.400 . S
C296 H281 0.960 . S
C296 H282 0.960 . S
C296 H283 0.960 . S
C296 C295 1.524 . S
C297 C294 1.403 . S
C297 C298 1.392 . S
C297 C301 1.495 . S
C298 C297 1.392 . S
C298 C299 1.385 . S
C298 C300 1.478 . S
C299 H293 0.930 . S
C299 C295 1.400 . S
C299 C298 1.385 . S
C300 C298 1.478 . S
C300 C302 1.381 . S
C300 C306 1.383 . S
C301 C297 1.495 . S
C301 H307 0.959 . S
C301 H308 0.961 . S
C301 H309 0.960 . S
C302 C300 1.381 . S
C302 C303 1.394 . S
C302 H310 0.930 . S
C303 C302 1.394 . S
C303 C304 1.383 . S
C303 H311 0.929 . S
C304 C303 1.383 . S
C304 C305 1.377 . S
C305 H289 0.930 . S
C305 C304 1.377 . S
C305 C306 1.379 . S
C306 H290 0.931 . S
C306 C300 1.383 . S
C306 C305 1.379 . S
H307 C301 0.959 . S
H308 C301 0.961 . S
H309 C301 0.960 . S
H310 C302 0.930 . S
H311 C303 0.929 . S
H312 C320 0.929 . S
H313 C322 0.930 . S
H314 C324 0.930 . S
H315 C327 0.929 . S
H316 C330 0.930 . S
H317 C332 0.960 . S
H318 C332 0.960 . S
H319 C332 0.960 . S
C320 H312 0.929 . S
C320 C321 1.377 . S
C320 C322 1.384 . S
C321 C320 1.377 . S
C321 C327 1.390 . S
C322 H313 0.930 . S
C322 C320 1.384 . S
C322 C323 1.372 . S
C323 C322 1.372 . S
C323 C324 1.400 . S
C323 C328 1.490 . S
C324 H314 0.930 . S
C324 C323 1.400 . S
C324 C327 1.386 . S
H325 C341 0.930 . S
H326 C342 0.931 . S
C327 H315 0.929 . S
C327 C321 1.390 . S
C327 C324 1.386 . S
C328 C323 1.490 . S
C328 C330 1.395 . S
C328 C331 1.403 . S
H329 C335 0.930 . S
C330 H316 0.930 . S
C330 C328 1.395 . S
C330 C333 1.403 . S
C331 C328 1.403 . S
C331 C332 1.524 . S
C331 C335 1.400 . S
C332 H317 0.960 . S
C332 H318 0.960 . S
C332 H319 0.960 . S
C332 C331 1.524 . S
C333 C330 1.403 . S
C333 C334 1.392 . S
C333 C337 1.495 . S
C334 C333 1.392 . S
C334 C335 1.385 . S
C334 C336 1.478 . S
C335 H329 0.930 . S
C335 C331 1.400 . S
C335 C334 1.385 . S
C336 C334 1.478 . S
C336 C338 1.381 . S
C336 C342 1.383 . S
C337 C333 1.495 . S
C337 H343 0.959 . S
C337 H344 0.961 . S
C337 H345 0.960 . S
C338 C336 1.381 . S
C338 C339 1.394 . S
C338 H346 0.930 . S
C339 C338 1.394 . S
C339 C340 1.383 . S
C339 H347 0.929 . S
C340 C339 1.383 . S
C340 C341 1.377 . S
C341 H325 0.930 . S
C341 C340 1.377 . S
C341 C342 1.379 . S
C342 H326 0.931 . S
C342 C336 1.383 . S
C342 C341 1.379 . S
H343 C337 0.959 . S
H344 C337 0.961 . S
H345 C337 0.960 . S
H346 C338 0.930 . S
H347 C339 0.929 . S
H348 C356 0.929 . S
H349 C358 0.930 . S
H350 C360 0.930 . S
H351 C363 0.929 . S
H352 C366 0.930 . S
H353 C368 0.960 . S
H354 C368 0.960 . S
H355 C368 0.960 . S
C356 H348 0.929 . S
C356 C357 1.377 . S
C356 C358 1.384 . S
C357 C356 1.377 . S
C357 C363 1.390 . S
C358 H349 0.930 . S
C358 C356 1.384 . S
C358 C359 1.372 . S
C359 C358 1.372 . S
C359 C360 1.400 . S
C359 C364 1.490 . S
C360 H350 0.930 . S
C360 C359 1.400 . S
C360 C363 1.386 . S
H361 C377 0.930 . S
H362 C378 0.931 . S
C363 H351 0.929 . S
C363 C357 1.390 . S
C363 C360 1.386 . S
C364 C359 1.490 . S
C364 C366 1.395 . S
C364 C367 1.403 . S
H365 C371 0.930 . S
C366 H352 0.930 . S
C366 C364 1.395 . S
C366 C369 1.403 1_545 S
C367 C364 1.403 . S
C367 C368 1.524 . S
C367 C371 1.400 . S
C368 H353 0.960 . S
C368 H354 0.960 . S
C368 H355 0.960 . S
C368 C367 1.524 . S
C369 C366 1.403 1_565 S
C369 C370 1.392 . S
C369 C373 1.495 . S
C370 C369 1.392 . S
C370 C371 1.385 1_565 S
C370 C372 1.478 . S
C371 H365 0.930 . S
C371 C367 1.400 . S
C371 C370 1.385 1_545 S
C372 C370 1.478 . S
C372 C374 1.381 . S
C372 C378 1.383 . S
C373 C369 1.495 . S
C373 H379 0.959 . S
C373 H380 0.961 . S
C373 H381 0.960 . S
C374 C372 1.381 . S
C374 C375 1.394 . S
C374 H382 0.930 . S
C375 C374 1.394 . S
C375 C376 1.383 . S
C375 H383 0.929 . S
C376 C375 1.383 . S
C376 C377 1.377 . S
C377 H361 0.930 . S
C377 C376 1.377 . S
C377 C378 1.379 . S
C378 H362 0.931 . S
C378 C372 1.383 . S
C378 C377 1.379 . S
H379 C373 0.959 . S
H380 C373 0.961 . S
H381 C373 0.960 . S
H382 C374 0.930 . S
H383 C375 0.929 . S
H384 C392 0.929 . S
H385 C394 0.930 . S
H386 C396 0.930 . S
H387 C399 0.929 . S
H388 C402 0.930 . S
H389 C404 0.960 . S
H390 C404 0.960 . S
H391 C404 0.960 . S
C392 H384 0.929 . S
C392 C393 1.377 1_554 S
C392 C394 1.384 . S
C393 C392 1.377 1_556 S
C393 C399 1.390 . S
C394 H385 0.930 . S
C394 C392 1.384 . S
C394 C395 1.372 1_554 S
C395 C394 1.372 1_556 S
C395 C396 1.400 . S
C395 C400 1.489 1_556 S
C396 H386 0.930 . S
C396 C395 1.400 . S
C396 C399 1.386 . S
H397 C413 0.930 . S
H398 C414 0.931 . S
C399 H387 0.929 . S
C399 C393 1.390 . S
C399 C396 1.386 . S
C400 C395 1.489 1_554 S
C400 C402 1.403 . S
C400 C403 1.396 1_554 S
H401 C407 0.930 . S
C402 H388 0.930 . S
C402 C400 1.403 . S
C402 C405 1.403 . S
C403 C400 1.396 1_556 S
C403 C404 1.524 . S
C403 C407 1.400 . S
C404 H389 0.960 . S
C404 H390 0.960 . S
C404 H391 0.960 . S
C404 C403 1.524 . S
C405 C402 1.403 . S
C405 C406 1.392 . S
C405 C409 1.495 . S
C406 C405 1.392 . S
C406 C407 1.385 1_554 S
C406 C408 1.478 . S
C407 H401 0.930 . S
C407 C403 1.400 . S
C407 C406 1.385 1_556 S
C408 C406 1.478 . S
C408 C410 1.381 . S
C408 C414 1.383 1_554 S
C409 C405 1.495 . S
C409 H415 0.959 . S
C409 H416 0.961 . S
C409 H417 0.960 . S
C410 C408 1.381 . S
C410 C411 1.394 . S
C410 H418 0.930 . S
C411 C410 1.394 . S
C411 C412 1.383 . S
C411 H419 0.929 . S
C412 C411 1.383 . S
C412 C413 1.377 1_554 S
C413 H397 0.930 . S
C413 C412 1.377 1_556 S
C413 C414 1.379 . S
C414 H398 0.931 . S
C414 C408 1.383 1_556 S
C414 C413 1.379 . S
H415 C409 0.959 . S
H416 C409 0.961 . S
H417 C409 0.960 . S
H418 C410 0.930 . S
H419 C411 0.929 . S
H420 C428 0.929 . S
H421 C430 0.930 . S
H422 C432 0.930 . S
H423 C435 0.929 . S
H424 C438 0.930 . S
H425 C440 0.960 . S
H426 C440 0.960 . S
H427 C440 0.960 . S
C428 H420 0.929 . S
C428 C429 1.377 . S
C428 C430 1.384 . S
C429 C428 1.377 . S
C429 C435 1.390 . S
C430 H421 0.930 . S
C430 C428 1.384 . S
C430 C431 1.372 . S
C431 C430 1.372 . S
C431 C432 1.400 . S
C431 C436 1.490 . S
C432 H422 0.930 . S
C432 C431 1.400 . S
C432 C435 1.386 . S
H433 C449 0.930 . S
H434 C450 0.931 . S
C435 H423 0.929 . S
C435 C429 1.390 . S
C435 C432 1.386 . S
C436 C431 1.490 . S
C436 C438 1.395 . S
C436 C439 1.403 . S
H437 C443 0.930 . S
C438 H424 0.930 . S
C438 C436 1.395 . S
C438 C441 1.403 . S
C439 C436 1.403 . S
C439 C440 1.524 . S
C439 C443 1.400 . S
C440 H425 0.960 . S
C440 H426 0.960 . S
C440 H427 0.960 . S
C440 C439 1.524 . S
C441 C438 1.403 . S
C441 C442 1.392 . S
C441 C445 1.495 . S
C442 C441 1.392 . S
C442 C443 1.385 . S
C442 C444 1.478 . S
C443 H437 0.930 . S
C443 C439 1.400 . S
C443 C442 1.385 . S
C444 C442 1.478 . S
C444 C446 1.381 . S
C444 C450 1.383 . S
C445 C441 1.495 . S
C445 H451 0.959 . S
C445 H452 0.961 . S
C445 H453 0.960 . S
C446 C444 1.381 . S
C446 C447 1.394 . S
C446 H454 0.930 . S
C447 C446 1.394 . S
C447 C448 1.383 . S
C447 H455 0.929 . S
C448 C447 1.383 . S
C448 C449 1.377 . S
C449 H433 0.930 . S
C449 C448 1.377 . S
C449 C450 1.379 . S
C450 H434 0.931 . S
C450 C444 1.383 . S
C450 C449 1.379 . S
H451 C445 0.959 . S
H452 C445 0.961 . S
H453 C445 0.960 . S
H454 C446 0.930 . S
H455 C447 0.929 . S
H456 C464 0.929 . S
H457 C466 0.930 . S
H458 C468 0.930 . S
H459 C471 0.929 . S
H460 C474 0.930 . S
H461 C476 0.960 . S
H462 C476 0.960 . S
H463 C476 0.960 . S
C464 H456 0.929 . S
C464 C465 1.377 . S
C464 C466 1.384 . S
C465 C464 1.377 . S
C465 C471 1.390 . S
C466 H457 0.930 . S
C466 C464 1.384 . S
C466 C467 1.372 . S
C467 C466 1.372 . S
C467 C468 1.400 . S
C467 C472 1.490 . S
C468 H458 0.930 . S
C468 C467 1.400 . S
C468 C471 1.386 . S
H469 C485 0.930 . S
H470 C486 0.931 . S
C471 H459 0.929 . S
C471 C465 1.390 . S
C471 C468 1.386 . S
C472 C467 1.490 . S
C472 C474 1.395 . S
C472 C475 1.403 . S
H473 C479 0.930 . S
C474 H460 0.930 . S
C474 C472 1.395 . S
C474 C477 1.403 . S
C475 C472 1.403 . S
C475 C476 1.524 . S
C475 C479 1.400 . S
C476 H461 0.960 . S
C476 H462 0.960 . S
C476 H463 0.960 . S
C476 C475 1.524 . S
C477 C474 1.403 . S
C477 C478 1.392 . S
C477 C481 1.495 . S
C478 C477 1.392 . S
C478 C479 1.385 . S
C478 C480 1.478 . S
C479 H473 0.930 . S
C479 C475 1.400 . S
C479 C478 1.385 . S
C480 C478 1.478 . S
C480 C482 1.381 . S
C480 C486 1.383 . S
C481 C477 1.495 . S
C481 H487 0.959 . S
C481 H488 0.961 . S
C481 H489 0.960 . S
C482 C480 1.381 . S
C482 C483 1.394 . S
C482 H490 0.930 . S
C483 C482 1.394 . S
C483 C484 1.383 . S
C483 H491 0.929 . S
C484 C483 1.383 . S
C484 C485 1.377 . S
C485 H469 0.930 . S
C485 C484 1.377 . S
C485 C486 1.379 . S
C486 H470 0.931 . S
C486 C480 1.383 . S
C486 C485 1.379 . S
H487 C481 0.959 . S
H488 C481 0.961 . S
H489 C481 0.960 . S
H490 C482 0.930 . S
H491 C483 0.929 . S
H492 C500 0.929 . S
H493 C502 0.930 . S
H494 C504 0.930 . S
H495 C507 0.929 . S
H496 C510 0.930 . S
H497 C512 0.960 . S
H498 C512 0.960 . S
H499 C512 0.960 . S
C500 H492 0.929 . S
C500 C501 1.377 . S
C500 C502 1.384 . S
C501 C500 1.377 . S
C501 C507 1.390 . S
C502 H493 0.930 . S
C502 C500 1.384 . S
C502 C503 1.372 . S
C503 C502 1.372 . S
C503 C504 1.400 . S
C503 C508 1.490 . S
C504 H494 0.930 . S
C504 C503 1.400 . S
C504 C507 1.386 . S
H505 C521 0.930 . S
H506 C522 0.931 . S
C507 H495 0.929 . S
C507 C501 1.390 . S
C507 C504 1.386 . S
C508 C503 1.490 . S
C508 C510 1.395 . S
C508 C511 1.403 . S
H509 C515 0.930 . S
C510 H496 0.930 . S
C510 C508 1.395 . S
C510 C513 1.403 . S
C511 C508 1.403 . S
C511 C512 1.524 . S
C511 C515 1.400 . S
C512 H497 0.960 . S
C512 H498 0.960 . S
C512 H499 0.960 . S
C512 C511 1.524 . S
C513 C510 1.403 . S
C513 C514 1.392 . S
C513 C517 1.495 . S
C514 C513 1.392 . S
C514 C515 1.385 . S
C514 C516 1.478 . S
C515 H509 0.930 . S
C515 C511 1.400 . S
C515 C514 1.385 . S
C516 C514 1.478 . S
C516 C518 1.381 . S
C516 C522 1.383 . S
C517 C513 1.495 . S
C517 H523 0.959 . S
C517 H524 0.961 . S
C517 H525 0.960 . S
C518 C516 1.381 . S
C518 C519 1.394 . S
C518 H526 0.930 . S
C519 C518 1.394 . S
C519 C520 1.383 . S
C519 H527 0.929 . S
C520 C519 1.383 . S
C520 C521 1.377 . S
C521 H505 0.930 . S
C521 C520 1.377 . S
C521 C522 1.379 . S
C522 H506 0.931 . S
C522 C516 1.383 . S
C522 C521 1.379 . S
H523 C517 0.959 . S
H524 C517 0.961 . S
H525 C517 0.960 . S
H526 C518 0.930 . S
H527 C519 0.929 . S
H528 C536 0.929 . S
H529 C538 0.930 . S
H530 C540 0.930 . S
H531 C543 0.929 . S
H532 C546 0.930 . S
H533 C548 0.960 . S
H534 C548 0.960 . S
H535 C548 0.960 . S
C536 H528 0.929 . S
C536 C537 1.377 . S
C536 C538 1.384 . S
C537 C536 1.377 . S
C537 C543 1.390 . S
C538 H529 0.930 . S
C538 C536 1.384 . S
C538 C539 1.372 . S
C539 C538 1.372 . S
C539 C540 1.400 . S
C539 C544 1.490 . S
C540 H530 0.930 . S
C540 C539 1.400 . S
C540 C543 1.386 . S
H541 C557 0.930 . S
H542 C558 0.931 . S
C543 H531 0.929 . S
C543 C537 1.390 . S
C543 C540 1.386 . S
C544 C539 1.490 . S
C544 C546 1.395 . S
C544 C547 1.403 . S
H545 C551 0.930 . S
C546 H532 0.930 . S
C546 C544 1.395 . S
C546 C549 1.403 . S
C547 C544 1.403 . S
C547 C548 1.524 . S
C547 C551 1.400 . S
C548 H533 0.960 . S
C548 H534 0.960 . S
C548 H535 0.960 . S
C548 C547 1.524 . S
C549 C546 1.403 . S
C549 C550 1.392 . S
C549 C553 1.495 . S
C550 C549 1.392 . S
C550 C551 1.385 . S
C550 C552 1.478 . S
C551 H545 0.930 . S
C551 C547 1.400 . S
C551 C550 1.385 . S
C552 C550 1.478 . S
C552 C554 1.381 . S
C552 C558 1.383 . S
C553 C549 1.495 . S
C553 H559 0.959 . S
C553 H560 0.961 . S
C553 H561 0.960 . S
C554 C552 1.381 . S
C554 C555 1.394 . S
C554 H562 0.930 . S
C555 C554 1.394 . S
C555 C556 1.383 . S
C555 H563 0.929 . S
C556 C555 1.383 . S
C556 C557 1.377 . S
C557 H541 0.930 . S
C557 C556 1.377 . S
C557 C558 1.379 . S
C558 H542 0.931 . S
C558 C552 1.383 . S
C558 C557 1.379 . S
H559 C553 0.959 . S
H560 C553 0.961 . S
H561 C553 0.960 . S
H562 C554 0.930 . S
H563 C555 0.929 . S
H564 C572 0.929 . S
H565 C574 0.930 . S
H566 C576 0.930 . S
H567 C579 0.929 . S
H568 C582 0.930 . S
H569 C584 0.960 . S
H570 C584 0.960 . S
H571 C584 0.960 . S
C572 H564 0.929 . S
C572 C573 1.377 . S
C572 C574 1.384 . S
C573 C572 1.377 . S
C573 C579 1.390 . S
C574 H565 0.930 . S
C574 C572 1.384 . S
C574 C575 1.372 . S
C575 C574 1.372 . S
C575 C576 1.400 . S
C575 C580 1.490 . S
C576 H566 0.930 . S
C576 C575 1.400 . S
C576 C579 1.386 . S
H577 C593 0.930 . S
H578 C594 0.931 . S
C579 H567 0.929 . S
C579 C573 1.390 . S
C579 C576 1.386 . S
C580 C575 1.490 . S
C580 C582 1.395 . S
C580 C583 1.403 . S
H581 C587 0.930 . S
C582 H568 0.930 . S
C582 C580 1.395 . S
C582 C585 1.403 . S
C583 C580 1.403 . S
C583 C584 1.524 . S
C583 C587 1.400 . S
C584 H569 0.960 . S
C584 H570 0.960 . S
C584 H571 0.960 . S
C584 C583 1.524 . S
C585 C582 1.403 . S
C585 C586 1.392 . S
C585 C589 1.495 . S
C586 C585 1.392 . S
C586 C587 1.385 . S
C586 C588 1.478 . S
C587 H581 0.930 . S
C587 C583 1.400 . S
C587 C586 1.385 . S
C588 C586 1.478 . S
C588 C590 1.381 . S
C588 C594 1.383 . S
C589 C585 1.495 . S
C589 H595 0.959 . S
C589 H596 0.961 . S
C589 H597 0.960 . S
C590 C588 1.381 . S
C590 C591 1.394 . S
C590 H598 0.930 . S
C591 C590 1.394 . S
C591 C592 1.383 . S
C591 H599 0.929 . S
C592 C591 1.383 . S
C592 C593 1.377 . S
C593 H577 0.930 . S
C593 C592 1.377 . S
C593 C594 1.379 . S
C594 H578 0.931 . S
C594 C588 1.383 . S
C594 C593 1.379 . S
H595 C589 0.959 . S
H596 C589 0.961 . S
H597 C589 0.960 . S
H598 C590 0.930 . S
H599 C591 0.929 . S
H600 C608 0.929 . S
H601 C610 0.930 . S
H602 C612 0.930 1_545 S
H603 C615 0.929 1_545 S
H604 C618 0.930 . S
H605 C620 0.960 . S
H606 C620 0.960 . S
H607 C620 0.960 . S
C608 H600 0.929 . S
C608 C609 1.377 . S
C608 C610 1.384 . S
C609 C608 1.377 . S
C609 C615 1.390 . S
C610 H601 0.930 . S
C610 C608 1.384 . S
C610 C611 1.372 . S
C611 C610 1.372 . S
C611 C612 1.400 . S
C611 C616 1.490 . S
C612 H602 0.930 1_565 S
C612 C611 1.400 . S
C612 C615 1.386 . S
H613 C629 0.930 1_545 S
H614 C630 0.931 1_545 S
C615 H603 0.929 1_565 S
C615 C609 1.390 . S
C615 C612 1.386 . S
C616 C611 1.490 . S
C616 C618 1.395 . S
C616 C619 1.403 . S
H617 C623 0.930 1_545 S
C618 H604 0.930 . S
C618 C616 1.395 . S
C618 C621 1.403 . S
C619 C616 1.403 . S
C619 C620 1.524 1_565 S
C619 C623 1.400 . S
C620 H605 0.960 . S
C620 H606 0.960 . S
C620 H607 0.960 . S
C620 C619 1.524 1_545 S
C621 C618 1.403 . S
C621 C622 1.392 . S
C621 C625 1.495 . S
C622 C621 1.392 . S
C622 C623 1.385 . S
C622 C624 1.478 . S
C623 H617 0.930 1_565 S
C623 C619 1.400 . S
C623 C622 1.385 . S
C624 C622 1.478 . S
C624 C626 1.381 . S
C624 C630 1.383 . S
C625 C621 1.495 . S
C625 H631 0.959 . S
C625 H632 0.961 . S
C625 H633 0.960 . S
C626 C624 1.381 . S
C626 C627 1.394 . S
C626 H634 0.930 . S
C627 C626 1.394 . S
C627 C628 1.383 . S
C627 H635 0.929 . S
C628 C627 1.383 . S
C628 C629 1.377 . S
C629 H613 0.930 1_565 S
C629 C628 1.377 . S
C629 C630 1.379 . S
C630 H614 0.931 1_565 S
C630 C624 1.383 . S
C630 C629 1.379 . S
H631 C625 0.959 . S
H632 C625 0.961 . S
H633 C625 0.960 . S
H634 C626 0.930 . S
H635 C627 0.929 . S
H636 C644 0.929 . S
H637 C646 0.930 . S
H638 C648 0.930 . S
H639 C651 0.929 . S
H640 C654 0.930 . S
H641 C656 0.960 . S
H642 C656 0.960 . S
H643 C656 0.960 . S
C644 H636 0.929 . S
C644 C645 1.377 . S
C644 C646 1.384 . S
C645 C644 1.377 . S
C645 C651 1.390 . S
C646 H637 0.930 . S
C646 C644 1.384 . S
C646 C647 1.372 . S
C647 C646 1.372 . S
C647 C648 1.400 . S
C647 C652 1.490 . S
C648 H638 0.930 . S
C648 C647 1.400 . S
C648 C651 1.386 . S
H649 C665 0.930 . S
H650 C666 0.931 . S
C651 H639 0.929 . S
C651 C645 1.390 . S
C651 C648 1.386 . S
C652 C647 1.490 . S
C652 C654 1.395 . S
C652 C655 1.403 . S
H653 C659 0.930 . S
C654 H640 0.930 . S
C654 C652 1.395 . S
C654 C657 1.403 . S
C655 C652 1.403 . S
C655 C656 1.524 . S
C655 C659 1.400 . S
C656 H641 0.960 . S
C656 H642 0.960 . S
C656 H643 0.960 . S
C656 C655 1.524 . S
C657 C654 1.403 . S
C657 C658 1.392 . S
C657 C661 1.495 1_545 S
C658 C657 1.392 . S
C658 C659 1.385 . S
C658 C660 1.478 . S
C659 H653 0.930 . S
C659 C655 1.400 . S
C659 C658 1.385 . S
C660 C658 1.478 . S
C660 C662 1.386 . S
C660 C666 1.383 . S
C661 C657 1.495 1_565 S
C661 H667 0.959 . S
C661 H668 0.961 . S
C661 H669 0.960 . S
C662 C660 1.386 . S
C662 C663 1.392 1_545 S
C662 H670 0.928 1_545 S
C663 C662 1.392 1_565 S
C663 C664 1.383 . S
C663 H671 0.929 . S
C664 C663 1.383 . S
C664 C665 1.377 1_565 S
C665 H649 0.930 . S
C665 C664 1.377 1_545 S
C665 C666 1.379 . S
C666 H650 0.931 . S
C666 C660 1.383 . S
C666 C665 1.379 . S
H667 C661 0.959 . S
H668 C661 0.961 . S
H669 C661 0.960 . S
H670 C662 0.928 1_565 S
H671 C663 0.929 . S
H672 C680 0.929 . S
H673 C682 0.930 . S
H674 C684 0.930 . S
H675 C687 0.929 . S
H676 C690 0.930 . S
H677 C692 0.960 . S
H678 C692 0.960 . S
H679 C692 0.960 . S
C680 H672 0.929 . S
C680 C681 1.377 . S
C680 C682 1.384 . S
C681 C680 1.377 . S
C681 C687 1.390 . S
C682 H673 0.930 . S
C682 C680 1.384 . S
C682 C683 1.372 . S
C683 C682 1.372 . S
C683 C684 1.400 . S
C683 C688 1.490 . S
C684 H674 0.930 . S
C684 C683 1.400 . S
C684 C687 1.386 . S
H685 C701 0.930 . S
H686 C702 0.931 . S
C687 H675 0.929 . S
C687 C681 1.390 . S
C687 C684 1.386 . S
C688 C683 1.490 . S
C688 C690 1.395 . S
C688 C691 1.403 . S
H689 C695 0.930 . S
C690 H676 0.930 . S
C690 C688 1.395 . S
C690 C693 1.403 . S
C691 C688 1.403 . S
C691 C692 1.524 . S
C691 C695 1.400 . S
C692 H677 0.960 . S
C692 H678 0.960 . S
C692 H679 0.960 . S
C692 C691 1.524 . S
C693 C690 1.403 . S
C693 C694 1.392 . S
C693 C697 1.495 . S
C694 C693 1.392 . S
C694 C695 1.385 . S
C694 C696 1.478 . S
C695 H689 0.930 . S
C695 C691 1.400 . S
C695 C694 1.385 . S
C696 C694 1.478 . S
C696 C698 1.381 . S
C696 C702 1.383 . S
C697 C693 1.495 . S
C697 H703 0.959 . S
C697 H704 0.961 . S
C697 H705 0.960 . S
C698 C696 1.381 . S
C698 C699 1.394 . S
C698 H706 0.930 . S
C699 C698 1.394 . S
C699 C700 1.383 . S
C699 H707 0.929 . S
C700 C699 1.383 . S
C700 C701 1.377 . S
C701 H685 0.930 . S
C701 C700 1.377 . S
C701 C702 1.379 . S
C702 H686 0.931 . S
C702 C696 1.383 . S
C702 C701 1.379 . S
H703 C697 0.959 . S
H704 C697 0.961 . S
H705 C697 0.960 . S
H706 C698 0.930 . S
H707 C699 0.929 . S
H708 C716 0.929 . S
H709 C718 0.930 . S
H710 C720 0.930 . S
H711 C723 0.929 . S
H712 C726 0.930 . S
H713 C728 0.960 . S
H714 C728 0.960 . S
H715 C728 0.960 . S
C716 H708 0.929 . S
C716 C717 1.377 . S
C716 C718 1.384 . S
C717 C716 1.377 . S
C717 C723 1.390 . S
C718 H709 0.930 . S
C718 C716 1.384 . S
C718 C719 1.372 . S
C719 C718 1.372 . S
C719 C720 1.400 . S
C719 C724 1.490 . S
C720 H710 0.930 . S
C720 C719 1.400 . S
C720 C723 1.386 . S
H721 C737 0.930 1_556 S
H722 C738 0.931 . S
C723 H711 0.929 . S
C723 C717 1.390 . S
C723 C720 1.386 . S
C724 C719 1.490 . S
C724 C726 1.395 . S
C724 C727 1.403 . S
H725 C731 0.930 . S
C726 H712 0.930 . S
C726 C724 1.395 . S
C726 C729 1.403 . S
C727 C724 1.403 . S
C727 C728 1.524 . S
C727 C731 1.400 . S
C728 H713 0.960 . S
C728 H714 0.960 . S
C728 H715 0.960 . S
C728 C727 1.524 . S
C729 C726 1.403 . S
C729 C730 1.392 . S
C729 C733 1.495 . S
C730 C729 1.392 . S
C730 C731 1.385 . S
C730 C732 1.478 . S
C731 H725 0.930 . S
C731 C727 1.400 . S
C731 C730 1.385 . S
C732 C730 1.478 . S
C732 C734 1.381 . S
C732 C738 1.383 . S
C733 C729 1.495 . S
C733 H739 0.959 . S
C733 H740 0.961 . S
C733 H741 0.960 . S
C734 C732 1.381 . S
C734 C735 1.394 . S
C734 H742 0.930 . S
C735 C734 1.394 . S
C735 C736 1.383 . S
C735 H743 0.929 . S
C736 C735 1.383 . S
C736 C737 1.377 . S
C737 H721 0.930 1_554 S
C737 C736 1.377 . S
C737 C738 1.379 . S
C738 H722 0.931 . S
C738 C732 1.383 . S
C738 C737 1.379 . S
H739 C733 0.959 . S
H740 C733 0.961 . S
H741 C733 0.960 . S
H742 C734 0.930 . S
H743 C735 0.929 . S
H744 C752 0.929 . S
H745 C754 0.930 . S
H746 C756 0.930 . S
H747 C759 0.929 . S
H748 C762 0.930 . S
H749 C764 0.960 . S
H750 C764 0.960 . S
H751 C764 0.960 . S
C752 H744 0.929 . S
C752 C753 1.377 1_655 S
C752 C754 1.384 . S
C753 C752 1.377 1_455 S
C753 C759 1.390 . S
C754 H745 0.930 . S
C754 C752 1.384 . S
C754 C755 1.372 1_655 S
C755 C754 1.372 1_455 S
C755 C756 1.400 . S
C755 C760 1.490 . S
C756 H746 0.930 . S
C756 C755 1.400 . S
C756 C759 1.386 . S
H757 C773 0.930 . S
H758 C774 0.931 . S
C759 H747 0.929 . S
C759 C753 1.390 . S
C759 C756 1.386 . S
C760 C755 1.490 . S
C760 C762 1.395 . S
C760 C763 1.403 . S
H761 C767 0.930 . S
C762 H748 0.930 . S
C762 C760 1.395 . S
C762 C765 1.403 . S
C763 C760 1.403 . S
C763 C764 1.524 . S
C763 C767 1.400 . S
C764 H749 0.960 . S
C764 H750 0.960 . S
C764 H751 0.960 . S
C764 C763 1.524 . S
C765 C762 1.403 . S
C765 C766 1.392 . S
C765 C769 1.497 1_455 S
C766 C765 1.392 . S
C766 C767 1.385 . S
C766 C768 1.478 . S
C767 H761 0.930 . S
C767 C763 1.400 . S
C767 C766 1.385 . S
C768 C766 1.478 . S
C768 C770 1.381 1_455 S
C768 C774 1.383 . S
C769 C765 1.497 1_655 S
C769 H775 0.957 . S
C769 H776 0.965 1_655 S
C769 H777 0.956 . S
C770 C768 1.381 1_655 S
C770 C771 1.394 . S
C770 H778 0.930 . S
C771 C770 1.394 . S
C771 C772 1.383 1_655 S
C771 H779 0.929 . S
C772 C771 1.383 1_455 S
C772 C773 1.377 . S
C773 H757 0.930 . S
C773 C772 1.377 . S
C773 C774 1.379 . S
C774 H758 0.931 . S
C774 C768 1.383 . S
C774 C773 1.379 . S
H775 C769 0.957 . S
H776 C769 0.965 1_455 S
H777 C769 0.956 . S
H778 C770 0.930 . S
H779 C771 0.929 . S
H780 C788 0.929 . S
H781 C790 0.930 . S
H782 C792 0.931 . S
H783 C795 0.929 . S
H784 C798 0.930 . S
H785 C800 0.960 . S
H786 C800 0.960 . S
H787 C800 0.960 . S
C788 H780 0.929 . S
C788 C789 1.377 . S
C788 C790 1.384 1_655 S
C789 C788 1.377 . S
C789 C795 1.390 . S
C790 H781 0.930 . S
C790 C788 1.384 1_455 S
C790 C791 1.372 . S
C791 C790 1.372 . S
C791 C792 1.405 . S
C791 C796 1.490 . S
C792 H782 0.931 . S
C792 C791 1.405 . S
C792 C795 1.379 1_455 S
H793 C809 0.930 . S
H794 C810 0.931 . S
C795 H783 0.929 . S
C795 C789 1.390 . S
C795 C792 1.379 1_655 S
C796 C791 1.490 . S
C796 C798 1.395 . S
C796 C799 1.403 . S
H797 C803 0.930 . S
C798 H784 0.930 . S
C798 C796 1.395 . S
C798 C801 1.403 . S
C799 C796 1.403 . S
C799 C800 1.524 . S
C799 C803 1.400 . S
C800 H785 0.960 . S
C800 H786 0.960 . S
C800 H787 0.960 . S
C800 C799 1.524 . S
C801 C798 1.403 . S
C801 C802 1.392 . S
C801 C805 1.495 . S
C802 C801 1.392 . S
C802 C803 1.385 . S
C802 C804 1.478 . S
C803 H797 0.930 . S
C803 C799 1.400 . S
C803 C802 1.385 . S
C804 C802 1.478 . S
C804 C806 1.381 . S
C804 C810 1.383 . S
C805 C801 1.495 . S
C805 H811 0.959 . S
C805 H812 0.961 . S
C805 H813 0.960 . S
C806 C804 1.381 . S
C806 C807 1.394 . S
C806 H814 0.930 . S
C807 C806 1.394 . S
C807 C808 1.383 . S
C807 H815 0.929 . S
C808 C807 1.383 . S
C808 C809 1.377 . S
C809 H793 0.930 . S
C809 C808 1.377 . S
C809 C810 1.379 . S
C810 H794 0.931 . S
C810 C804 1.383 . S
C810 C809 1.379 . S
H811 C805 0.959 . S
H812 C805 0.961 . S
H813 C805 0.960 . S
H814 C806 0.930 . S
H815 C807 0.929 . S
H816 C824 0.929 . S
H817 C826 0.930 . S
H818 C828 0.930 . S
H819 C831 0.929 . S
H820 C834 0.930 . S
H821 C836 0.960 . S
H822 C836 0.960 . S
H823 C836 0.960 . S
C824 H816 0.929 . S
C824 C825 1.377 . S
C824 C826 1.384 . S
C825 C824 1.377 . S
C825 C831 1.390 . S
C826 H817 0.930 . S
C826 C824 1.384 . S
C826 C827 1.372 . S
C827 C826 1.372 . S
C827 C828 1.400 . S
C827 C832 1.490 . S
C828 H818 0.930 . S
C828 C827 1.400 . S
C828 C831 1.386 . S
H829 C845 0.930 . S
H830 C846 0.931 . S
C831 H819 0.929 . S
C831 C825 1.390 . S
C831 C828 1.386 . S
C832 C827 1.490 . S
C832 C834 1.395 . S
C832 C835 1.403 . S
H833 C839 0.930 . S
C834 H820 0.930 . S
C834 C832 1.395 . S
C834 C837 1.403 . S
C835 C832 1.403 . S
C835 C836 1.524 . S
C835 C839 1.400 . S
C836 H821 0.960 . S
C836 H822 0.960 . S
C836 H823 0.960 . S
C836 C835 1.524 . S
C837 C834 1.403 . S
C837 C838 1.392 . S
C837 C841 1.495 . S
C838 C837 1.392 . S
C838 C839 1.385 . S
C838 C840 1.478 . S
C839 H833 0.930 . S
C839 C835 1.400 . S
C839 C838 1.385 . S
C840 C838 1.478 . S
C840 C842 1.381 . S
C840 C846 1.383 . S
C841 C837 1.495 . S
C841 H847 0.959 . S
C841 H848 0.961 . S
C841 H849 0.960 . S
C842 C840 1.381 . S
C842 C843 1.394 . S
C842 H850 0.930 . S
C843 C842 1.394 . S
C843 C844 1.383 . S
C843 H851 0.929 . S
C844 C843 1.383 . S
C844 C845 1.377 . S
C845 H829 0.930 . S
C845 C844 1.377 . S
C845 C846 1.379 . S
C846 H830 0.931 . S
C846 C840 1.383 . S
C846 C845 1.379 . S
H847 C841 0.959 . S
H848 C841 0.961 . S
H849 C841 0.960 . S
H850 C842 0.930 . S
H851 C843 0.929 . S
H852 C860 0.929 . S
H853 C862 0.930 . S
H854 C864 0.930 . S
H855 C867 0.929 . S
H856 C870 0.930 . S
H857 C872 0.960 . S
H858 C872 0.960 . S
H859 C872 0.960 . S
C860 H852 0.929 . S
C860 C861 1.377 . S
C860 C862 1.384 . S
C861 C860 1.377 . S
C861 C867 1.390 . S
C862 H853 0.930 . S
C862 C860 1.384 . S
C862 C863 1.372 . S
C863 C862 1.372 . S
C863 C864 1.400 . S
C863 C868 1.490 . S
C864 H854 0.930 . S
C864 C863 1.400 . S
C864 C867 1.386 . S
H865 C881 0.930 . S
H866 C882 0.931 . S
C867 H855 0.929 . S
C867 C861 1.390 . S
C867 C864 1.386 . S
C868 C863 1.490 . S
C868 C870 1.395 . S
C868 C871 1.403 . S
H869 C875 0.930 . S
C870 H856 0.930 . S
C870 C868 1.395 . S
C870 C873 1.403 . S
C871 C868 1.403 . S
C871 C872 1.524 . S
C871 C875 1.400 . S
C872 H857 0.960 . S
C872 H858 0.960 . S
C872 H859 0.960 . S
C872 C871 1.524 . S
C873 C870 1.403 . S
C873 C874 1.392 . S
C873 C877 1.495 . S
C874 C873 1.392 . S
C874 C875 1.385 . S
C874 C876 1.478 . S
C875 H869 0.930 . S
C875 C871 1.400 . S
C875 C874 1.385 . S
C876 C874 1.478 . S
C876 C878 1.381 . S
C876 C882 1.383 . S
C877 C873 1.495 . S
C877 H883 0.959 . S
C877 H884 0.961 . S
C877 H885 0.960 . S
C878 C876 1.381 . S
C878 C879 1.394 . S
C878 H886 0.930 . S
C879 C878 1.394 . S
C879 C880 1.383 . S
C879 H887 0.929 . S
C880 C879 1.383 . S
C880 C881 1.377 . S
C881 H865 0.930 . S
C881 C880 1.377 . S
C881 C882 1.379 . S
C882 H866 0.931 . S
C882 C876 1.383 . S
C882 C881 1.379 . S
H883 C877 0.959 . S
H884 C877 0.961 . S
H885 C877 0.960 . S
H886 C878 0.930 . S
H887 C879 0.929 . S
H888 C896 0.929 . S
H889 C898 0.930 . S
H890 C900 0.930 . S
H891 C903 0.929 . S
H892 C906 0.930 . S
H893 C908 0.960 . S
H894 C908 0.960 . S
H895 C908 0.960 . S
C896 H888 0.929 . S
C896 C897 1.377 . S
C896 C898 1.384 . S
C897 C896 1.377 . S
C897 C903 1.390 . S
C898 H889 0.930 . S
C898 C896 1.384 . S
C898 C899 1.372 . S
C899 C898 1.372 . S
C899 C900 1.400 . S
C899 C904 1.490 . S
C900 H890 0.930 . S
C900 C899 1.400 . S
C900 C903 1.386 . S
H901 C917 0.930 . S
H902 C918 0.931 . S
C903 H891 0.929 . S
C903 C897 1.390 . S
C903 C900 1.386 . S
C904 C899 1.490 . S
C904 C906 1.395 . S
C904 C907 1.403 . S
H905 C911 0.930 . S
C906 H892 0.930 . S
C906 C904 1.395 . S
C906 C909 1.403 . S
C907 C904 1.403 . S
C907 C908 1.524 . S
C907 C911 1.400 . S
C908 H893 0.960 . S
C908 H894 0.960 . S
C908 H895 0.960 . S
C908 C907 1.524 . S
C909 C906 1.403 . S
C909 C910 1.392 . S
C909 C913 1.495 . S
C910 C909 1.392 . S
C910 C911 1.385 . S
C910 C912 1.478 . S
C911 H905 0.930 . S
C911 C907 1.400 . S
C911 C910 1.385 . S
C912 C910 1.478 . S
C912 C914 1.381 . S
C912 C918 1.383 . S
C913 C909 1.495 . S
C913 H919 0.959 . S
C913 H920 0.961 . S
C913 H921 0.960 . S
C914 C912 1.381 . S
C914 C915 1.394 . S
C914 H922 0.930 . S
C915 C914 1.394 . S
C915 C916 1.383 . S
C915 H923 0.929 . S
C916 C915 1.383 . S
C916 C917 1.377 . S
C917 H901 0.930 . S
C917 C916 1.377 . S
C917 C918 1.379 . S
C918 H902 0.931 . S
C918 C912 1.383 . S
C918 C917 1.379 . S
H919 C913 0.959 . S
H920 C913 0.961 . S
H921 C913 0.960 . S
H922 C914 0.930 . S
H923 C915 0.929 . S
H924 C932 0.929 . S
H925 C934 0.930 . S
H926 C936 0.930 . S
H927 C939 0.929 . S
H928 C942 0.930 . S
H929 C944 0.960 . S
H930 C944 0.960 . S
H931 C944 0.960 . S
C932 H924 0.929 . S
C932 C933 1.377 . S
C932 C934 1.384 . S
C933 C932 1.377 . S
C933 C939 1.390 . S
C934 H925 0.930 . S
C934 C932 1.384 . S
C934 C935 1.372 . S
C935 C934 1.372 . S
C935 C936 1.400 . S
C935 C940 1.490 . S
C936 H926 0.930 . S
C936 C935 1.400 . S
C936 C939 1.386 . S
H937 C953 0.930 . S
H938 C954 0.931 . S
C939 H927 0.929 . S
C939 C933 1.390 . S
C939 C936 1.386 . S
C940 C935 1.490 . S
C940 C942 1.395 . S
C940 C943 1.403 . S
H941 C947 0.930 . S
C942 H928 0.930 . S
C942 C940 1.395 . S
C942 C945 1.403 . S
C943 C940 1.403 . S
C943 C944 1.524 . S
C943 C947 1.400 . S
C944 H929 0.960 . S
C944 H930 0.960 . S
C944 H931 0.960 . S
C944 C943 1.524 . S
C945 C942 1.403 . S
C945 C946 1.392 . S
C945 C949 1.495 . S
C946 C945 1.392 . S
C946 C947 1.385 . S
C946 C948 1.478 . S
C947 H941 0.930 . S
C947 C943 1.400 . S
C947 C946 1.385 . S
C948 C946 1.478 . S
C948 C950 1.381 . S
C948 C954 1.383 . S
C949 C945 1.495 . S
C949 H955 0.959 . S
C949 H956 0.961 . S
C949 H957 0.960 . S
C950 C948 1.381 . S
C950 C951 1.394 . S
C950 H958 0.930 . S
C951 C950 1.394 . S
C951 C952 1.383 . S
C951 H959 0.929 . S
C952 C951 1.383 . S
C952 C953 1.377 . S
C953 H937 0.930 . S
C953 C952 1.377 . S
C953 C954 1.379 . S
C954 H938 0.931 . S
C954 C948 1.383 . S
C954 C953 1.379 . S
H955 C949 0.959 . S
H956 C949 0.961 . S
H957 C949 0.960 . S
H958 C950 0.930 . S
H959 C951 0.929 . S
H960 C968 0.929 . S
H961 C970 0.930 . S
H962 C972 0.930 . S
H963 C975 0.929 . S
H964 C978 0.930 . S
H965 C980 0.960 . S
H966 C980 0.960 . S
H967 C980 0.960 . S
C968 H960 0.929 . S
C968 C969 1.377 . S
C968 C970 1.384 . S
C969 C968 1.377 . S
C969 C975 1.390 . S
C970 H961 0.930 . S
C970 C968 1.384 . S
C970 C971 1.372 . S
C971 C970 1.372 . S
C971 C972 1.400 . S
C971 C976 1.490 . S
C972 H962 0.930 . S
C972 C971 1.400 . S
C972 C975 1.386 . S
H973 C989 0.930 . S
H974 C990 0.931 . S
C975 H963 0.929 . S
C975 C969 1.390 . S
C975 C972 1.386 . S
C976 C971 1.490 . S
C976 C978 1.395 . S
C976 C979 1.403 . S
H977 C983 0.930 . S
C978 H964 0.930 . S
C978 C976 1.395 . S
C978 C981 1.403 . S
C979 C976 1.403 . S
C979 C980 1.524 . S
C979 C983 1.400 . S
C980 H965 0.960 . S
C980 H966 0.960 . S
C980 H967 0.960 . S
C980 C979 1.524 . S
C981 C978 1.403 . S
C981 C982 1.392 . S
C981 C985 1.495 . S
C982 C981 1.392 . S
C982 C983 1.385 . S
C982 C984 1.478 . S
C983 H977 0.930 . S
C983 C979 1.400 . S
C983 C982 1.385 . S
C984 C982 1.478 . S
C984 C986 1.381 . S
C984 C990 1.383 . S
C985 C981 1.495 . S
C985 H991 0.959 . S
C985 H992 0.961 . S
C985 H993 0.960 . S
C986 C984 1.381 . S
C986 C987 1.394 . S
C986 H994 0.930 . S
C987 C986 1.394 . S
C987 C988 1.383 . S
C987 H995 0.929 . S
C988 C987 1.383 . S
C988 C989 1.377 . S
C989 H973 0.930 . S
C989 C988 1.377 . S
C989 C990 1.379 . S
C990 H974 0.931 . S
C990 C984 1.383 . S
C990 C989 1.379 . S
H991 C985 0.959 . S
H992 C985 0.961 . S
H993 C985 0.960 . S
H994 C986 0.930 . S
H995 C987 0.929 . S
H996 C1004 0.929 . S
H997 C1006 0.930 . S
H998 C1008 0.930 . S
H999 C1011 0.929 . S
H1000 C1014 0.930 . S
H1001 C1016 0.960 . S
H1002 C1016 0.960 . S
H1003 C1016 0.960 . S
C1004 H996 0.929 . S
C1004 C1005 1.377 . S
C1004 C1006 1.384 . S
C1005 C1004 1.377 . S
C1005 C1011 1.390 . S
C1006 H997 0.930 . S
C1006 C1004 1.384 . S
C1006 C1007 1.372 . S
C1007 C1006 1.372 . S
C1007 C1008 1.400 . S
C1007 C1012 1.490 . S
C1008 H998 0.930 . S
C1008 C1007 1.400 . S
C1008 C1011 1.386 . S
H1009 C1025 0.930 . S
H1010 C1026 0.931 . S
C1011 H999 0.929 . S
C1011 C1005 1.390 . S
C1011 C1008 1.386 . S
C1012 C1007 1.490 . S
C1012 C1014 1.395 . S
C1012 C1015 1.403 . S
H1013 C1019 0.930 . S
C1014 H1000 0.930 . S
C1014 C1012 1.395 . S
C1014 C1017 1.403 . S
C1015 C1012 1.403 . S
C1015 C1016 1.524 . S
C1015 C1019 1.400 . S
C1016 H1001 0.960 . S
C1016 H1002 0.960 . S
C1016 H1003 0.960 . S
C1016 C1015 1.524 . S
C1017 C1014 1.403 . S
C1017 C1018 1.392 . S
C1017 C1021 1.495 . S
C1018 C1017 1.392 . S
C1018 C1019 1.385 . S
C1018 C1020 1.478 . S
C1019 H1013 0.930 . S
C1019 C1015 1.400 . S
C1019 C1018 1.385 . S
C1020 C1018 1.478 . S
C1020 C1022 1.381 . S
C1020 C1026 1.383 . S
C1021 C1017 1.495 . S
C1021 H1027 0.959 . S
C1021 H1028 0.961 . S
C1021 H1029 0.960 . S
C1022 C1020 1.381 . S
C1022 C1023 1.394 . S
C1022 H1030 0.930 . S
C1023 C1022 1.394 . S
C1023 C1024 1.383 . S
C1023 H1031 0.929 . S
C1024 C1023 1.383 . S
C1024 C1025 1.377 . S
C1025 H1009 0.930 . S
C1025 C1024 1.377 . S
C1025 C1026 1.379 . S
C1026 H1010 0.931 . S
C1026 C1020 1.383 . S
C1026 C1025 1.379 . S
H1027 C1021 0.959 . S
H1028 C1021 0.961 . S
H1029 C1021 0.960 . S
H1030 C1022 0.930 . S
H1031 C1023 0.929 . S
H1032 C1040 0.929 . S
H1033 C1042 0.930 . S
H1034 C1044 0.930 . S
H1035 C1047 0.929 . S
H1036 C1050 0.930 . S
H1037 C1052 0.960 . S
H1038 C1052 0.960 . S
H1039 C1052 0.960 1_556 S
C1040 H1032 0.929 . S
C1040 C1041 1.377 . S
C1040 C1042 1.384 1_556 S
C1041 C1040 1.377 . S
C1041 C1047 1.390 . S
C1042 H1033 0.930 . S
C1042 C1040 1.384 1_554 S
C1042 C1043 1.372 . S
C1043 C1042 1.372 . S
C1043 C1044 1.400 1_554 S
C1043 C1048 1.490 . S
C1044 H1034 0.930 . S
C1044 C1043 1.400 1_556 S
C1044 C1047 1.386 . S
H1045 C1061 0.930 . S
H1046 C1062 0.931 . S
C1047 H1035 0.929 . S
C1047 C1041 1.390 . S
C1047 C1044 1.386 . S
C1048 C1043 1.490 . S
C1048 C1050 1.395 . S
C1048 C1051 1.403 . S
H1049 C1055 0.930 . S
C1050 H1036 0.930 . S
C1050 C1048 1.395 . S
C1050 C1053 1.403 . S
C1051 C1048 1.403 . S
C1051 C1052 1.524 . S
C1051 C1055 1.400 . S
C1052 H1037 0.960 . S
C1052 H1038 0.960 . S
C1052 H1039 0.960 1_554 S
C1052 C1051 1.524 . S
C1053 C1050 1.403 . S
C1053 C1054 1.392 . S
C1053 C1057 1.495 . S
C1054 C1053 1.392 . S
C1054 C1055 1.385 . S
C1054 C1056 1.478 . S
C1055 H1049 0.930 . S
C1055 C1051 1.400 . S
C1055 C1054 1.385 . S
C1056 C1054 1.478 . S
C1056 C1058 1.381 . S
C1056 C1062 1.383 . S
C1057 C1053 1.495 . S
C1057 H1063 0.959 . S
C1057 H1064 0.961 . S
C1057 H1065 0.960 . S
C1058 C1056 1.381 . S
C1058 C1059 1.394 . S
C1058 H1066 0.930 . S
C1059 C1058 1.394 . S
C1059 C1060 1.383 . S
C1059 H1067 0.929 . S
C1060 C1059 1.383 . S
C1060 C1061 1.377 . S
C1061 H1045 0.930 . S
C1061 C1060 1.377 . S
C1061 C1062 1.379 . S
C1062 H1046 0.931 . S
C1062 C1056 1.383 . S
C1062 C1061 1.379 . S
H1063 C1057 0.959 . S
H1064 C1057 0.961 . S
H1065 C1057 0.960 . S
H1066 C1058 0.930 . S
H1067 C1059 0.929 . S
H1068 C1076 0.929 . S
H1069 C1078 0.930 . S
H1070 C1080 0.930 . S
H1071 C1083 0.929 . S
H1072 C1086 0.930 . S
H1073 C1088 0.960 . S
H1074 C1088 0.960 . S
H1075 C1088 0.960 . S
C1076 H1068 0.929 . S
C1076 C1077 1.377 . S
C1076 C1078 1.384 . S
C1077 C1076 1.377 . S
C1077 C1083 1.390 . S
C1078 H1069 0.930 . S
C1078 C1076 1.384 . S
C1078 C1079 1.372 . S
C1079 C1078 1.372 . S
C1079 C1080 1.400 . S
C1079 C1084 1.490 . S
C1080 H1070 0.930 . S
C1080 C1079 1.400 . S
C1080 C1083 1.386 . S
H1081 C1097 0.930 . S
H1082 C1098 0.931 . S
C1083 H1071 0.929 . S
C1083 C1077 1.390 . S
C1083 C1080 1.386 . S
C1084 C1079 1.490 . S
C1084 C1086 1.395 . S
C1084 C1087 1.403 . S
H1085 C1091 0.930 . S
C1086 H1072 0.930 . S
C1086 C1084 1.395 . S
C1086 C1089 1.403 . S
C1087 C1084 1.403 . S
C1087 C1088 1.524 . S
C1087 C1091 1.400 . S
C1088 H1073 0.960 . S
C1088 H1074 0.960 . S
C1088 H1075 0.960 . S
C1088 C1087 1.524 . S
C1089 C1086 1.403 . S
C1089 C1090 1.392 . S
C1089 C1093 1.495 . S
C1090 C1089 1.392 . S
C1090 C1091 1.385 . S
C1090 C1092 1.478 . S
C1091 H1085 0.930 . S
C1091 C1087 1.400 . S
C1091 C1090 1.385 . S
C1092 C1090 1.478 . S
C1092 C1094 1.381 . S
C1092 C1098 1.383 . S
C1093 C1089 1.495 . S
C1093 H1099 0.959 . S
C1093 H1100 0.961 . S
C1093 H1101 0.960 . S
C1094 C1092 1.381 . S
C1094 C1095 1.394 . S
C1094 H1102 0.930 . S
C1095 C1094 1.394 . S
C1095 C1096 1.383 . S
C1095 H1103 0.929 . S
C1096 C1095 1.383 . S
C1096 C1097 1.377 . S
C1097 H1081 0.930 . S
C1097 C1096 1.377 . S
C1097 C1098 1.379 . S
C1098 H1082 0.931 . S
C1098 C1092 1.383 . S
C1098 C1097 1.379 . S
H1099 C1093 0.959 . S
H1100 C1093 0.961 . S
H1101 C1093 0.960 . S
H1102 C1094 0.930 . S
H1103 C1095 0.929 . S
H1104 C1112 0.929 . S
H1105 C1114 0.930 . S
H1106 C1116 0.930 . S
H1107 C1119 0.929 . S
H1108 C1122 0.930 . S
H1109 C1124 0.960 . S
H1110 C1124 0.960 . S
H1111 C1124 0.960 . S
C1112 H1104 0.929 . S
C1112 C1113 1.377 . S
C1112 C1114 1.384 . S
C1113 C1112 1.377 . S
C1113 C1119 1.390 . S
C1114 H1105 0.930 . S
C1114 C1112 1.384 . S
C1114 C1115 1.372 . S
C1115 C1114 1.372 . S
C1115 C1116 1.400 . S
C1115 C1120 1.490 . S
C1116 H1106 0.930 . S
C1116 C1115 1.400 . S
C1116 C1119 1.386 . S
H1117 C1133 0.930 . S
H1118 C1134 0.931 . S
C1119 H1107 0.929 . S
C1119 C1113 1.390 . S
C1119 C1116 1.386 . S
C1120 C1115 1.490 . S
C1120 C1122 1.395 . S
C1120 C1123 1.403 . S
H1121 C1127 0.930 . S
C1122 H1108 0.930 . S
C1122 C1120 1.395 . S
C1122 C1125 1.403 . S
C1123 C1120 1.403 . S
C1123 C1124 1.524 . S
C1123 C1127 1.400 . S
C1124 H1109 0.960 . S
C1124 H1110 0.960 . S
C1124 H1111 0.960 . S
C1124 C1123 1.524 . S
C1125 C1122 1.403 . S
C1125 C1126 1.392 . S
C1125 C1129 1.495 . S
C1126 C1125 1.392 . S
C1126 C1127 1.385 . S
C1126 C1128 1.478 . S
C1127 H1121 0.930 . S
C1127 C1123 1.400 . S
C1127 C1126 1.385 . S
C1128 C1126 1.478 . S
C1128 C1130 1.381 . S
C1128 C1134 1.383 . S
C1129 C1125 1.495 . S
C1129 H1135 0.959 . S
C1129 H1136 0.961 . S
C1129 H1137 0.960 . S
C1130 C1128 1.381 . S
C1130 C1131 1.394 . S
C1130 H1138 0.930 . S
C1131 C1130 1.394 . S
C1131 C1132 1.383 . S
C1131 H1139 0.929 . S
C1132 C1131 1.383 . S
C1132 C1133 1.377 . S
C1133 H1117 0.930 . S
C1133 C1132 1.377 . S
C1133 C1134 1.379 . S
C1134 H1118 0.931 . S
C1134 C1128 1.383 . S
C1134 C1133 1.379 . S
H1135 C1129 0.959 . S
H1136 C1129 0.961 . S
H1137 C1129 0.960 . S
H1138 C1130 0.930 . S
H1139 C1131 0.929 . S
C285 N2 1.224 . S
C304 N94 1.190 . S
C321 C131 1.508 . S
C340 C39 1.573 . S
C357 N140 1.237 . S
C376 C53 1.373 . S
C393 N81 1.468 . S
C412 C177 1.343 . S
C429 C99 1.442 . S
C448 N25 1.263 . S
C465 N127 1.345 . S
C484 N58 1.283 . S
C501 C76 1.536 . S
C520 C145 1.581 . S
C537 N173 1.410 . S
C556 C16 1.277 . S
C573 C108 1.485 . S
C592 C168 1.436 . S
C609 N117 1.259 . S
C628 N104 1.298 . S
C645 C154 1.566 . S
C664 C122 1.498 . S
C681 N150 1.298 . S
C700 N163 1.312 . S
C717 C200 1.510 . S
C736 C85 1.447 . S
C753 N209 1.418 . S
C772 C7 1.397 . S
C789 C246 1.451 . S
C808 N35 1.451 . S
C825 C214 1.554 . S
C844 C30 1.626 . S
C861 C260 1.452 . S
C880 N71 1.441 . S
C897 N48 1.193 . S
C916 N255 1.237 . S
C933 N12 1.229 . S
C952 N196 1.223 . S
C969 N242 1.356 . S
C988 C62 1.345 . S
C1005 C269 1.442 . S
C1024 C237 1.555 . S
C1041 N265 1.289 . S
C1060 N186 1.211 . S
C1077 C191 1.566 . S
C1096 C223 1.415 . S
C1113 N219 1.374 . S
C1132 N232 1.190 . S
