# Generated by pormake.
# Topology teo, (8)-cn, num edge types: 1
# Building blocks:
#     Node 0, Type 0, BuildingBlock: LIZSOE_clean_sbu_0, # of connection points: 8
#     Node 1, Type 0, BuildingBlock: LIZSOE_clean_sbu_0, # of connection points: 8
#     Node 2, Type 0, BuildingBlock: LIZSOE_clean_sbu_0, # of connection points: 8
#     Node 3, Type 0, BuildingBlock: LIZSOE_clean_sbu_0, # of connection points: 8
#     Node 4, Type 0, BuildingBlock: LIZSOE_clean_sbu_0, # of connection points: 8
#     Node 5, Type 0, BuildingBlock: LIZSOE_clean_sbu_0, # of connection points: 8
#     Node 6, Type 0, BuildingBlock: LIZSOE_clean_sbu_0, # of connection points: 8
#     Node 7, Type 0, BuildingBlock: LIZSOE_clean_sbu_0, # of connection points: 8
#     Node 8, Type 0, BuildingBlock: LIZSOE_clean_sbu_0, # of connection points: 8
#     Node 9, Type 0, BuildingBlock: LIZSOE_clean_sbu_0, # of connection points: 8
#     Node 10, Type 0, BuildingBlock: LIZSOE_clean_sbu_0, # of connection points: 8
#     Node 11, Type 0, BuildingBlock: LIZSOE_clean_sbu_0, # of connection points: 8
#     Node 12, Type 0, BuildingBlock: LIZSOE_clean_sbu_0, # of connection points: 8
#     Node 13, Type 0, BuildingBlock: LIZSOE_clean_sbu_0, # of connection points: 8
#     Node 14, Type 0, BuildingBlock: LIZSOE_clean_sbu_0, # of connection points: 8
#     Node 15, Type 0, BuildingBlock: LIZSOE_clean_sbu_0, # of connection points: 8
#     Node 16, Type 0, BuildingBlock: LIZSOE_clean_sbu_0, # of connection points: 8
#     Node 17, Type 0, BuildingBlock: LIZSOE_clean_sbu_0, # of connection points: 8
#     Node 18, Type 0, BuildingBlock: LIZSOE_clean_sbu_0, # of connection points: 8
#     Node 19, Type 0, BuildingBlock: LIZSOE_clean_sbu_0, # of connection points: 8
#     Node 20, Type 0, BuildingBlock: LIZSOE_clean_sbu_0, # of connection points: 8
#     Node 21, Type 0, BuildingBlock: LIZSOE_clean_sbu_0, # of connection points: 8
#     Node 22, Type 0, BuildingBlock: LIZSOE_clean_sbu_0, # of connection points: 8
#     Node 23, Type 0, BuildingBlock: LIZSOE_clean_sbu_0, # of connection points: 8
#     Edge 24, Type (0, 0), BuildingBlock: OJICUG_clean_linker_0, # of connection points: 2
#     Edge 25, Type (0, 0), BuildingBlock: OJICUG_clean_linker_0, # of connection points: 2
#     Edge 26, Type (0, 0), BuildingBlock: OJICUG_clean_linker_0, # of connection points: 2
#     Edge 27, Type (0, 0), BuildingBlock: OJICUG_clean_linker_0, # of connection points: 2
#     Edge 28, Type (0, 0), BuildingBlock: OJICUG_clean_linker_0, # of connection points: 2
#     Edge 29, Type (0, 0), BuildingBlock: OJICUG_clean_linker_0, # of connection points: 2
#     Edge 30, Type (0, 0), BuildingBlock: OJICUG_clean_linker_0, # of connection points: 2
#     Edge 31, Type (0, 0), BuildingBlock: OJICUG_clean_linker_0, # of connection points: 2
#     Edge 32, Type (0, 0), BuildingBlock: OJICUG_clean_linker_0, # of connection points: 2
#     Edge 33, Type (0, 0), BuildingBlock: OJICUG_clean_linker_0, # of connection points: 2
#     Edge 34, Type (0, 0), BuildingBlock: OJICUG_clean_linker_0, # of connection points: 2
#     Edge 35, Type (0, 0), BuildingBlock: OJICUG_clean_linker_0, # of connection points: 2
#     Edge 36, Type (0, 0), BuildingBlock: OJICUG_clean_linker_0, # of connection points: 2
#     Edge 37, Type (0, 0), BuildingBlock: OJICUG_clean_linker_0, # of connection points: 2
#     Edge 38, Type (0, 0), BuildingBlock: OJICUG_clean_linker_0, # of connection points: 2
#     Edge 39, Type (0, 0), BuildingBlock: OJICUG_clean_linker_0, # of connection points: 2
#     Edge 40, Type (0, 0), BuildingBlock: OJICUG_clean_linker_0, # of connection points: 2
#     Edge 41, Type (0, 0), BuildingBlock: OJICUG_clean_linker_0, # of connection points: 2
#     Edge 42, Type (0, 0), BuildingBlock: OJICUG_clean_linker_0, # of connection points: 2
#     Edge 43, Type (0, 0), BuildingBlock: OJICUG_clean_linker_0, # of connection points: 2
#     Edge 44, Type (0, 0), BuildingBlock: OJICUG_clean_linker_0, # of connection points: 2
#     Edge 45, Type (0, 0), BuildingBlock: OJICUG_clean_linker_0, # of connection points: 2
#     Edge 46, Type (0, 0), BuildingBlock: OJICUG_clean_linker_0, # of connection points: 2
#     Edge 47, Type (0, 0), BuildingBlock: OJICUG_clean_linker_0, # of connection points: 2
#     Edge 48, Type (0, 0), BuildingBlock: OJICUG_clean_linker_0, # of connection points: 2
#     Edge 49, Type (0, 0), BuildingBlock: OJICUG_clean_linker_0, # of connection points: 2
#     Edge 50, Type (0, 0), BuildingBlock: OJICUG_clean_linker_0, # of connection points: 2
#     Edge 51, Type (0, 0), BuildingBlock: OJICUG_clean_linker_0, # of connection points: 2
#     Edge 52, Type (0, 0), BuildingBlock: OJICUG_clean_linker_0, # of connection points: 2
#     Edge 53, Type (0, 0), BuildingBlock: OJICUG_clean_linker_0, # of connection points: 2
#     Edge 54, Type (0, 0), BuildingBlock: OJICUG_clean_linker_0, # of connection points: 2
#     Edge 55, Type (0, 0), BuildingBlock: OJICUG_clean_linker_0, # of connection points: 2
#     Edge 56, Type (0, 0), BuildingBlock: OJICUG_clean_linker_0, # of connection points: 2
#     Edge 57, Type (0, 0), BuildingBlock: OJICUG_clean_linker_0, # of connection points: 2
#     Edge 58, Type (0, 0), BuildingBlock: OJICUG_clean_linker_0, # of connection points: 2
#     Edge 59, Type (0, 0), BuildingBlock: OJICUG_clean_linker_0, # of connection points: 2
#     Edge 60, Type (0, 0), BuildingBlock: OJICUG_clean_linker_0, # of connection points: 2
#     Edge 61, Type (0, 0), BuildingBlock: OJICUG_clean_linker_0, # of connection points: 2
#     Edge 62, Type (0, 0), BuildingBlock: OJICUG_clean_linker_0, # of connection points: 2
#     Edge 63, Type (0, 0), BuildingBlock: OJICUG_clean_linker_0, # of connection points: 2
#     Edge 64, Type (0, 0), BuildingBlock: OJICUG_clean_linker_0, # of connection points: 2
#     Edge 65, Type (0, 0), BuildingBlock: OJICUG_clean_linker_0, # of connection points: 2
#     Edge 66, Type (0, 0), BuildingBlock: OJICUG_clean_linker_0, # of connection points: 2
#     Edge 67, Type (0, 0), BuildingBlock: OJICUG_clean_linker_0, # of connection points: 2
#     Edge 68, Type (0, 0), BuildingBlock: OJICUG_clean_linker_0, # of connection points: 2
#     Edge 69, Type (0, 0), BuildingBlock: OJICUG_clean_linker_0, # of connection points: 2
#     Edge 70, Type (0, 0), BuildingBlock: OJICUG_clean_linker_0, # of connection points: 2
#     Edge 71, Type (0, 0), BuildingBlock: OJICUG_clean_linker_0, # of connection points: 2
#     Edge 72, Type (0, 0), BuildingBlock: OJICUG_clean_linker_0, # of connection points: 2
#     Edge 73, Type (0, 0), BuildingBlock: OJICUG_clean_linker_0, # of connection points: 2
#     Edge 74, Type (0, 0), BuildingBlock: OJICUG_clean_linker_0, # of connection points: 2
#     Edge 75, Type (0, 0), BuildingBlock: OJICUG_clean_linker_0, # of connection points: 2
#     Edge 76, Type (0, 0), BuildingBlock: OJICUG_clean_linker_0, # of connection points: 2
#     Edge 77, Type (0, 0), BuildingBlock: OJICUG_clean_linker_0, # of connection points: 2
#     Edge 78, Type (0, 0), BuildingBlock: OJICUG_clean_linker_0, # of connection points: 2
#     Edge 79, Type (0, 0), BuildingBlock: OJICUG_clean_linker_0, # of connection points: 2
#     Edge 80, Type (0, 0), BuildingBlock: OJICUG_clean_linker_0, # of connection points: 2
#     Edge 81, Type (0, 0), BuildingBlock: OJICUG_clean_linker_0, # of connection points: 2
#     Edge 82, Type (0, 0), BuildingBlock: OJICUG_clean_linker_0, # of connection points: 2
#     Edge 83, Type (0, 0), BuildingBlock: OJICUG_clean_linker_0, # of connection points: 2
#     Edge 84, Type (0, 0), BuildingBlock: OJICUG_clean_linker_0, # of connection points: 2
#     Edge 85, Type (0, 0), BuildingBlock: OJICUG_clean_linker_0, # of connection points: 2
#     Edge 86, Type (0, 0), BuildingBlock: OJICUG_clean_linker_0, # of connection points: 2
#     Edge 87, Type (0, 0), BuildingBlock: OJICUG_clean_linker_0, # of connection points: 2
#     Edge 88, Type (0, 0), BuildingBlock: OJICUG_clean_linker_0, # of connection points: 2
#     Edge 89, Type (0, 0), BuildingBlock: OJICUG_clean_linker_0, # of connection points: 2
#     Edge 90, Type (0, 0), BuildingBlock: OJICUG_clean_linker_0, # of connection points: 2
#     Edge 91, Type (0, 0), BuildingBlock: OJICUG_clean_linker_0, # of connection points: 2
#     Edge 92, Type (0, 0), BuildingBlock: OJICUG_clean_linker_0, # of connection points: 2
#     Edge 93, Type (0, 0), BuildingBlock: OJICUG_clean_linker_0, # of connection points: 2
#     Edge 94, Type (0, 0), BuildingBlock: OJICUG_clean_linker_0, # of connection points: 2
#     Edge 95, Type (0, 0), BuildingBlock: OJICUG_clean_linker_0, # of connection points: 2
#     Edge 96, Type (0, 0), BuildingBlock: OJICUG_clean_linker_0, # of connection points: 2
#     Edge 97, Type (0, 0), BuildingBlock: OJICUG_clean_linker_0, # of connection points: 2
#     Edge 98, Type (0, 0), BuildingBlock: OJICUG_clean_linker_0, # of connection points: 2
#     Edge 99, Type (0, 0), BuildingBlock: OJICUG_clean_linker_0, # of connection points: 2
#     Edge 100, Type (0, 0), BuildingBlock: OJICUG_clean_linker_0, # of connection points: 2
#     Edge 101, Type (0, 0), BuildingBlock: OJICUG_clean_linker_0, # of connection points: 2
#     Edge 102, Type (0, 0), BuildingBlock: OJICUG_clean_linker_0, # of connection points: 2
#     Edge 103, Type (0, 0), BuildingBlock: OJICUG_clean_linker_0, # of connection points: 2
#     Edge 104, Type (0, 0), BuildingBlock: OJICUG_clean_linker_0, # of connection points: 2
#     Edge 105, Type (0, 0), BuildingBlock: OJICUG_clean_linker_0, # of connection points: 2
#     Edge 106, Type (0, 0), BuildingBlock: OJICUG_clean_linker_0, # of connection points: 2
#     Edge 107, Type (0, 0), BuildingBlock: OJICUG_clean_linker_0, # of connection points: 2
#     Edge 108, Type (0, 0), BuildingBlock: OJICUG_clean_linker_0, # of connection points: 2
#     Edge 109, Type (0, 0), BuildingBlock: OJICUG_clean_linker_0, # of connection points: 2
#     Edge 110, Type (0, 0), BuildingBlock: OJICUG_clean_linker_0, # of connection points: 2
#     Edge 111, Type (0, 0), BuildingBlock: OJICUG_clean_linker_0, # of connection points: 2
#     Edge 112, Type (0, 0), BuildingBlock: OJICUG_clean_linker_0, # of connection points: 2
#     Edge 113, Type (0, 0), BuildingBlock: OJICUG_clean_linker_0, # of connection points: 2
#     Edge 114, Type (0, 0), BuildingBlock: OJICUG_clean_linker_0, # of connection points: 2
#     Edge 115, Type (0, 0), BuildingBlock: OJICUG_clean_linker_0, # of connection points: 2
#     Edge 116, Type (0, 0), BuildingBlock: OJICUG_clean_linker_0, # of connection points: 2
#     Edge 117, Type (0, 0), BuildingBlock: OJICUG_clean_linker_0, # of connection points: 2
#     Edge 118, Type (0, 0), BuildingBlock: OJICUG_clean_linker_0, # of connection points: 2
#     Edge 119, Type (0, 0), BuildingBlock: OJICUG_clean_linker_0, # of connection points: 2
# Relax obj value: 0.318
# Max RMSD: 0.243
# Mean RMSD: 0.243
data_MOF--net-teo--node1-LIZSOE_clean_sbu_0--edge1-OJICUG_clean_linker_0
_symmetry_space_group_name_H-M    P1
_symmetry_Int_Tables_number       1
_symmetry_cell_setting            triclinic
loop_
_symmetry_equiv_pos_as_xyz
'x, y, z'
_cell_length_a     34.547559
_cell_length_b     34.562889
_cell_length_c     34.496056
_cell_angle_alpha  89.978362
_cell_angle_beta   89.94209
_cell_angle_gamma 89.934052
loop_
_atom_site_label
_atom_site_type_symbol
_atom_site_fract_x
_atom_site_fract_y
_atom_site_fract_z
_atom_type_partial_charge
Co0 Co 1.00693 0.37563 0.36299 0.0
N1 N 0.96873 0.41069 0.34878 0.0
C2 C 0.97871 0.44648 0.33693 0.0
N3 N 0.91693 0.44 0.3221 0.0
C4 C 0.93079 0.40712 0.33839 0.0
C5 C 0.94693 0.46466 0.32133 0.0
Co6 Co 0.07243 0.20071 0.36508 0.0
N7 N 0.11107 0.16588 0.35151 0.0
N8 N 0.16298 0.14221 0.31955 0.0
C9 C 0.13154 0.12168 0.30949 0.0
C10 C 0.10013 0.13572 0.32945 0.0
C11 C 0.14978 0.16967 0.34445 0.0
Co12 Co 0.03951 0.2884 0.38182 0.0
C13 C 1.02486 0.20013 0.39981 0.0
H14 H 0.07039 0.12685 0.32536 0.0
O15 O 0.04552 0.34629 0.37679 0.0
O16 O 0.08272 0.28278 0.42292 0.0
O17 O 0.9972 0.29527 0.42405 0.0
O18 O 0.99858 0.28597 0.34088 0.0
O19 O 0.98961 0.3459 0.32181 0.0
O20 O 0.10544 0.22558 0.40158 0.0
O21 O 1.03387 0.23022 0.37848 0.0
O22 O 0.08851 0.22932 0.32265 0.0
O23 O 0.97401 0.35212 0.40194 0.0
O24 O 1.02797 0.40292 0.40178 0.0
O25 O 0.0789 0.28989 0.33897 0.0
O26 O 0.05217 0.17441 0.4051 0.0
C27 C 0.97256 0.32383 0.4259 0.0
C28 C 0.17334 0.20431 0.35624 0.0
H29 H 0.19994 0.20719 0.33851 0.0
H30 H 0.18175 0.20143 0.38707 0.0
H31 H 0.15666 0.23139 0.35282 0.0
C32 C 0.10734 0.25431 0.42468 0.0
C33 C 0.98547 0.31025 0.31683 0.0
H34 H 1.0076 0.45834 0.339 0.0
H35 H 0.8777 0.37834 0.3536 0.0
H36 H 0.9035 0.35742 0.31368 0.0
H37 H 0.92006 0.34924 0.36183 0.0
C38 C 0.90699 0.37096 0.34259 0.0
C39 C 0.05487 0.3767 0.39748 0.0
C40 C 0.09163 0.26478 0.31547 0.0
H41 H 0.94569 0.49382 0.3102 0.0
H42 H 0.1311 0.09866 0.28824 0.0
Co43 Co 0.95238 0.75468 0.60923 0.0
N44 N 0.91764 0.71576 0.59519 0.0
C45 C 0.88245 0.72536 0.58136 0.0
N46 N 0.88932 0.6629 0.5693 0.0
C47 C 0.92147 0.67735 0.58666 0.0
C48 C 0.8649 0.69308 0.56614 0.0
Co49 Co 0.12716 0.82058 0.61021 0.0
N50 N 0.16304 0.85851 0.59664 0.0
N51 N 0.19184 0.90998 0.56867 0.0
C52 C 0.21484 0.87896 0.56404 0.0
C53 C 0.19721 0.8476 0.58115 0.0
C54 C 0.16018 0.89692 0.58787 0.0
Co55 Co 0.03947 0.78818 0.62753 0.0
C56 C 0.12753 0.77155 0.64334 0.0
H57 H 0.20771 0.8181 0.58063 0.0
O58 O 0.98143 0.79373 0.62296 0.0
O59 O 0.04556 0.83066 0.66955 0.0
O60 O 1.03361 0.74518 0.66902 0.0
O61 O 0.04181 0.74897 0.58518 0.0
O62 O 0.98187 0.73835 0.56753 0.0
O63 O 0.10333 0.85351 0.64926 0.0
O64 O 0.09731 0.78244 0.6232 0.0
O65 O 0.09777 0.83852 0.56893 0.0
O66 O 0.97688 0.72175 0.64737 0.0
O67 O 0.92524 0.77561 0.64842 0.0
O68 O 1.03745 0.82828 0.5859 0.0
O69 O 0.1541 0.79787 0.64875 0.0
C70 C 1.00537 0.72033 0.67102 0.0
C71 C 0.12462 0.92131 0.59399 0.0
H72 H 0.0987 0.90408 0.60096 0.0
H73 H 0.11873 0.93866 0.56756 0.0
H74 H 0.12978 0.94197 0.61797 0.0
C75 C 0.07432 0.85492 0.67246 0.0
C76 C 1.01754 0.73617 0.56101 0.0
H77 H 0.87063 0.75436 0.58168 0.0
H78 H 0.96602 0.65744 0.62578 0.0
H79 H 0.95204 0.62233 0.59115 0.0
H80 H 0.98116 0.66286 0.57636 0.0
C81 C 0.95701 0.65366 0.59537 0.0
C82 C 0.95092 0.80289 0.64363 0.0
C83 C 0.06214 0.84146 0.56227 0.0
H84 H 0.83639 0.69183 0.55341 0.0
H85 H 0.24223 0.87894 0.54883 0.0
Co86 Co 0.50296 0.87569 0.86114 0.0
N87 N 0.4638 0.91017 0.84746 0.0
C88 C 0.47281 0.94596 0.83488 0.0
N89 N 0.411 0.93784 0.82073 0.0
C90 C 0.4258 0.90562 0.83751 0.0
C91 C 0.44045 0.96317 0.8193 0.0
Co92 Co 0.57598 0.70273 0.86306 0.0
N93 N 0.61492 0.66825 0.84903 0.0
N94 N 0.66797 0.64662 0.817 0.0
C95 C 0.63584 0.63361 0.79916 0.0
C96 C 0.60394 0.64616 0.81896 0.0
C97 C 0.65439 0.66796 0.84747 0.0
Co98 Co 0.53839 0.78928 0.8795 0.0
C99 C 0.52778 0.70065 0.8977 0.0
H100 H 0.57424 0.6428 0.80963 0.0
O101 O 0.54172 0.84697 0.87423 0.0
O102 O 0.58286 0.7858 0.91962 0.0
O103 O 0.49676 0.7951 0.92264 0.0
O104 O 0.49652 0.78511 0.83955 0.0
O105 O 0.48406 0.84492 0.82202 0.0
O106 O 0.60768 0.7289 0.8994 0.0
O107 O 0.53613 0.73105 0.87653 0.0
O108 O 0.59311 0.73274 0.82149 0.0
O109 O 0.47215 0.85215 0.90182 0.0
O110 O 0.52628 0.90445 0.89807 0.0
O111 O 0.57596 0.79226 0.83571 0.0
O112 O 0.5556 0.6754 0.90243 0.0
C113 C 0.47188 0.8235 0.92549 0.0
C114 C 0.67937 0.68912 0.87585 0.0
H115 H 0.68372 0.71927 0.8657 0.0
H116 H 0.70782 0.67488 0.87946 0.0
H117 H 0.66535 0.68978 0.90456 0.0
C118 C 0.60857 0.75828 0.92176 0.0
C119 C 0.48089 0.80923 0.81684 0.0
H120 H 0.50147 0.95846 0.8363 0.0
H121 H 0.37319 0.87631 0.85339 0.0
H122 H 0.3998 0.85439 0.8146 0.0
H123 H 0.4162 0.84872 0.86339 0.0
C124 C 0.40275 0.86915 0.84297 0.0
C125 C 0.55232 0.87729 0.8942 0.0
C126 C 0.59349 0.76837 0.8143 0.0
H127 H 0.43861 0.99203 0.80754 0.0
H128 H 0.63521 0.61703 0.77257 0.0
Co129 Co 0.62506 0.33352 0.12368 0.0
N130 N 0.65332 0.38007 0.11975 0.0
C131 C 0.64649 0.40971 0.14419 0.0
N132 N 0.66798 0.43702 0.09072 0.0
C133 C 0.66773 0.39772 0.08739 0.0
C134 C 0.65333 0.44373 0.1262 0.0
Co135 Co 0.45492 0.24603 0.12135 0.0
N136 N 0.42565 0.20068 0.11548 0.0
N137 N 0.4137 0.14179 0.08975 0.0
C138 C 0.41851 0.1384 0.12824 0.0
C139 C 0.42351 0.17418 0.14402 0.0
C140 C 0.4181 0.18024 0.08251 0.0
Co141 Co 0.54002 0.28932 0.13636 0.0
C142 C 0.44911 0.2973 0.15034 0.0
H143 H 0.4288 0.17978 0.17436 0.0
O144 O 0.59916 0.29002 0.13116 0.0
O145 O 0.53936 0.24538 0.17803 0.0
O146 O 0.53967 0.33068 0.18064 0.0
O147 O 0.5363 0.32995 0.09595 0.0
O148 O 0.59443 0.35358 0.08414 0.0
O149 O 0.48284 0.22161 0.15972 0.0
O150 O 0.48057 0.2894 0.13024 0.0
O151 O 0.48695 0.22751 0.08248 0.0
O152 O 0.59589 0.35533 0.16311 0.0
O153 O 0.6537 0.30865 0.16005 0.0
O154 O 0.54534 0.25134 0.09264 0.0
O155 O 0.42613 0.26825 0.15819 0.0
C156 C 0.56697 0.35598 0.1852 0.0
C157 C 0.41984 0.1977 0.04265 0.0
H158 H 0.42553 0.22926 0.04409 0.0
H159 H 0.39204 0.19372 1.02732 0.0
H160 H 0.4427 0.18305 1.02541 0.0
C161 C 0.5118 0.22019 0.18163 0.0
C162 C 0.55918 0.3506 0.07584 0.0
H163 H 0.63492 0.40771 0.17298 0.0
H164 H 0.66295 0.38077 1.02787 0.0
H165 H 0.71156 0.38624 0.04498 0.0
H166 H 0.68331 0.34425 0.05927 0.0
C167 C 0.68226 0.37575 0.05296 0.0
C168 C 0.62928 0.28071 0.15217 0.0
C169 C 0.52198 0.23067 0.07329 0.0
H170 H 0.64739 0.47177 0.13859 0.0
H171 H 0.41879 0.11161 0.14412 0.0
Co172 Co 0.07246 0.87665 0.21169 0.0
N173 N 0.11065 0.91231 0.22533 0.0
C174 C 0.09937 0.93584 0.25426 0.0
N175 N 0.16338 0.93713 0.25538 0.0
C176 C 0.15013 0.91369 0.22639 0.0
C177 C 0.1311 0.95093 0.27241 0.0
Co178 Co 1.00254 0.70191 0.21282 0.0
N179 N 0.96311 0.66765 0.2263 0.0
N180 N 0.91097 0.64428 0.25821 0.0
C181 C 0.94208 0.62286 0.26744 0.0
C182 C 0.97363 0.63679 0.24765 0.0
C183 C 0.92444 0.67186 0.23352 0.0
Co184 Co 1.0379 0.7889 0.19513 0.0
C185 C 0.05027 0.70031 0.17797 0.0
H186 H 1.00321 0.62717 0.25128 0.0
O187 O 1.03364 0.84706 0.19886 0.0
O188 O 0.99524 0.78333 0.1535 0.0
O189 O 0.0808 0.79446 0.15341 0.0
O190 O 0.07825 0.78682 0.23666 0.0
O191 O 0.09118 0.8472 0.25242 0.0
O192 O 0.97023 0.72737 0.17584 0.0
O193 O 0.04206 0.73061 0.19938 0.0
O194 O 0.98635 0.73124 0.25483 0.0
O195 O 0.10452 0.85173 0.17415 0.0
O196 O 0.0504 0.90353 0.17294 0.0
O197 O 0.99774 0.79134 0.23711 0.0
O198 O 1.02257 0.675 0.17321 0.0
C199 C 0.10568 0.82276 0.15113 0.0
C200 C 0.90102 0.70643 0.22121 0.0
H201 H 0.91778 0.73345 0.22443 0.0
H202 H 0.87419 0.70943 0.23859 0.0
H203 H 0.893 0.70328 0.19028 0.0
C204 C 0.96974 0.75566 0.15204 0.0
C205 C 0.09386 0.81155 0.25871 0.0
H206 H 0.06967 0.93907 0.26373 0.0
H207 H 0.20472 0.90501 0.19659 0.0
H208 H 0.17788 0.86147 0.20784 0.0
H209 H 0.16266 0.89299 0.16915 0.0
C210 C 0.17548 0.89211 0.19852 0.0
C211 C 1.02369 0.87722 0.17801 0.0
C212 C 0.98374 0.76696 0.26068 0.0
H213 H 0.13044 0.96882 0.29807 0.0
H214 H 0.94206 0.59926 0.28801 0.0
Co215 Co 0.62529 0.75246 0.46473 0.0
N216 N 0.6589 0.71243 0.4781 0.0
C217 C 0.68986 0.72247 0.49947 0.0
N218 N 0.68199 0.65979 0.5094 0.0
C219 C 0.65443 0.67376 0.48494 0.0
C220 C 0.7037 0.69061 0.51879 0.0
Co221 Co 0.45138 0.82549 0.45991 0.0
N222 N 0.41496 0.86312 0.472 0.0
N223 N 0.39102 0.91421 0.50548 0.0
C224 C 0.37665 0.88118 0.52033 0.0
C225 C 0.39066 0.85046 0.49965 0.0
C226 C 0.41475 0.9024 0.47604 0.0
Co227 Co 0.53921 0.79108 0.44611 0.0
C228 C 0.45152 0.77571 0.42869 0.0
H229 H 0.38681 0.8203 0.50711 0.0
O230 O 0.59742 0.79321 0.45122 0.0
O231 O 0.53472 0.83266 0.40294 0.0
O232 O 0.54413 0.74677 0.40575 0.0
O233 O 0.5352 0.75401 0.48995 0.0
O234 O 0.59393 0.73457 0.50488 0.0
O235 O 0.47656 0.85639 0.42169 0.0
O236 O 0.48131 0.78754 0.44888 0.0
O237 O 0.48038 0.84553 0.50034 0.0
O238 O 0.60085 0.72186 0.42633 0.0
O239 O 0.65392 0.77386 0.42691 0.0
O240 O 0.54126 0.83266 0.48666 0.0
O241 O 0.4248 0.80163 0.42177 0.0
C242 C 0.57194 0.72137 0.40342 0.0
C243 C 0.43877 0.92897 0.45155 0.0
H244 H 0.44263 0.91698 0.42222 0.0
H245 H 0.4677 0.93257 0.46501 0.0
H246 H 0.42477 0.95761 0.44829 0.0
C247 C 0.50616 0.85722 0.39938 0.0
C248 C 0.55825 0.73599 0.51189 0.0
H249 H 0.69972 0.75192 0.50332 0.0
H250 H 0.62458 0.64042 0.44215 0.0
H251 H 0.61518 0.62524 0.49118 0.0
H252 H 0.59312 0.66832 0.47269 0.0
C253 C 0.61983 0.65072 0.47221 0.0
C254 C 0.62819 0.80142 0.4305 0.0
C255 C 0.51582 0.84829 0.50809 0.0
H256 H 0.72745 0.69022 0.53916 0.0
H257 H 0.35832 0.87916 0.54568 0.0
Co258 Co 0.57286 0.37409 0.71501 0.0
N259 N 0.61167 0.40952 0.72835 0.0
C260 C 0.60137 0.43314 0.75757 0.0
N261 N 0.66553 0.43318 0.75762 0.0
C262 C 0.65121 0.41024 0.72867 0.0
C263 C 0.63372 0.4476 0.77521 0.0
Co264 Co 0.50238 0.19949 0.71606 0.0
N265 N 0.46293 0.16513 0.72896 0.0
N266 N 0.41032 0.14157 0.76001 0.0
C267 C 0.4416 0.1209 0.77051 0.0
C268 C 0.47338 0.13489 0.75118 0.0
C269 C 0.42406 0.16902 0.7353 0.0
Co270 Co 0.53812 0.28646 0.69899 0.0
C271 C 0.55148 0.19779 0.68295 0.0
H272 H 0.50301 0.12584 0.75575 0.0
O273 O 0.53406 0.34461 0.70264 0.0
O274 O 0.49517 0.28113 0.65723 0.0
O275 O 0.58105 0.29151 0.65714 0.0
O276 O 0.57779 0.28421 0.74127 0.0
O277 O 0.5912 0.34464 0.75576 0.0
O278 O 0.47115 0.22411 0.67788 0.0
O279 O 0.54192 0.22827 0.70344 0.0
O280 O 0.48455 0.22944 0.75675 0.0
O281 O 0.60445 0.34905 0.67716 0.0
O282 O 0.55004 0.40114 0.67651 0.0
O283 O 0.49867 0.28934 0.74114 0.0
O284 O 0.52432 0.17196 0.67768 0.0
C285 C 0.60573 0.31992 0.65439 0.0
C286 C 0.40074 0.20358 0.72275 0.0
H287 H 0.41782 0.23052 0.72466 0.0
H288 H 0.37457 0.20737 0.74096 0.0
H289 H 0.39157 0.19966 0.69225 0.0
C290 C 0.47019 0.25296 0.65483 0.0
C291 C 0.59273 0.30918 0.76358 0.0
H292 H 0.5719 0.43697 0.76752 0.0
H293 H 0.67857 0.35829 0.70875 0.0
H294 H 0.66156 0.3899 0.67085 0.0
H295 H 0.70451 0.40204 0.69635 0.0
C296 C 0.67552 0.38894 0.69965 0.0
C297 C 0.52343 0.37479 0.68226 0.0
C298 C 0.48318 0.26506 0.76377 0.0
H299 H 0.63358 0.46584 0.80071 0.0
H300 H 0.44164 0.09776 0.79163 0.0
Co301 Co 0.9497 0.32247 0.96405 0.0
N302 N 0.9141 0.36086 0.97739 0.0
C303 C 0.88072 0.35001 0.99449 0.0
N304 N 0.88622 0.41254 1.00611 0.0
C305 C 0.91714 0.39937 0.98572 0.0
C306 C 0.86369 0.38144 1.0121 0.0
Co307 Co 0.1251 0.25512 0.96424 0.0
N308 N 0.16106 0.21724 0.97893 0.0
N309 N 0.18756 0.16494 1.00857 0.0
C310 C 0.20144 0.19749 1.025 0.0
C311 C 0.18518 0.22894 1.00717 0.0
C312 C 0.16316 0.17781 0.98012 0.0
Co313 Co 1.0373 0.28897 0.94726 0.0
C314 C 0.1249 0.30275 0.92845 0.0
H315 H 0.18849 0.25875 1.01615 0.0
O316 O 0.97937 0.28384 0.95176 0.0
O317 O 0.04284 0.24524 0.90655 0.0
O318 O 1.03104 0.33092 0.90438 0.0
O319 O 0.03974 0.32994 0.98847 0.0
O320 O 0.97919 0.34102 1.00424 0.0
O321 O 0.10002 0.22174 0.92773 0.0
O322 O 0.09529 0.29357 0.95032 0.0
O323 O 0.09597 0.23809 1.00613 0.0
O324 O 0.97338 0.35456 0.9242 0.0
O325 O 0.92248 0.29931 0.92625 0.0
O326 O 1.03556 0.25028 0.99054 0.0
O327 O 0.15161 0.27616 0.92447 0.0
C328 C 1.00238 0.35536 0.90096 0.0
C329 C 0.14161 0.15215 0.95255 0.0
H330 H 0.11114 0.14929 0.9623 0.0
H331 H 0.15494 0.12313 0.95027 0.0
H332 H 0.14189 0.16495 0.92318 0.0
C333 C 0.07107 0.22025 0.90469 0.0
C334 C 1.01466 0.34417 1.01119 0.0
H335 H 0.87057 0.32044 0.99597 0.0
H336 H 0.9469 0.44397 0.9543 0.0
H337 H 0.95906 0.44129 1.00449 0.0
H338 H 0.97832 0.40623 0.97113 0.0
C339 C 0.95256 0.42361 0.97845 0.0
C340 C 0.94912 0.27301 0.93164 0.0
C341 C 0.06041 0.23621 1.01359 0.0
H342 H 0.83707 0.38137 1.0287 0.0
H343 H 0.22064 0.19866 0.04976 0.0
Co344 Co 0.36297 0.99954 0.37499 0.0
N345 N 0.3512 0.96001 0.40963 0.0
C346 C 0.32704 0.97102 0.43814 0.0
N347 N 0.32042 0.90752 0.43378 0.0
C348 C 0.34682 0.92083 0.40757 0.0
C349 C 0.30815 0.93936 0.45265 0.0
Co350 Co 0.36033 0.07362 0.20168 0.0
N351 N 0.34636 0.11223 0.16648 0.0
N352 N 0.31913 0.16373 0.13688 0.0
C353 C 0.31906 0.13373 0.11219 0.0
C354 C 0.33501 0.10218 0.1305 0.0
C355 C 0.33539 0.15006 0.16991 0.0
Co356 Co 0.37799 0.03801 0.28847 0.0
C357 C 0.39397 1.0246 0.2004 0.0
H358 H 0.33742 0.0733 0.11866 0.0
O359 O 0.37451 0.04007 0.34671 0.0
O360 O 0.41961 0.08113 0.28332 0.0
O361 O 0.42015 0.99537 0.29198 0.0
O362 O 0.33595 0.99868 0.28514 0.0
O363 O 0.32243 0.98033 0.34462 0.0
O364 O 0.39999 0.10523 0.22556 0.0
O365 O 0.37362 1.03502 0.23063 0.0
O366 O 0.32063 0.09188 0.23233 0.0
O367 O 0.40138 0.96986 0.34913 0.0
O368 O 0.40093 1.02192 0.40257 0.0
O369 O 0.33559 0.07763 0.2925 0.0
O370 O 0.39791 0.05074 0.17334 0.0
C371 C 0.42376 0.96998 0.31968 0.0
C372 C 0.33891 0.17379 0.20616 0.0
H373 H 0.3099 0.17657 0.21971 0.0
H374 H 0.34905 0.20336 0.19882 0.0
H375 H 0.35877 0.1608 0.22752 0.0
C376 C 0.42295 0.1058 0.25478 0.0
C377 C 0.31529 0.98004 0.30886 0.0
H378 H 0.3209 1.00084 0.44546 0.0
H379 H 0.398 0.90638 0.37507 0.0
H380 H 0.37117 0.8656 0.39032 0.0
H381 H 0.35316 0.89566 0.35115 0.0
C382 C 0.36838 0.89563 0.37947 0.0
C383 C 0.39553 0.04926 0.37696 0.0
C384 C 0.31323 0.09322 0.26792 0.0
H385 H 0.28575 0.94 0.47457 0.0
H386 H 0.30781 0.13466 0.08305 0.0
Co387 Co 0.25471 0.11088 0.4512 0.0
N388 N 0.2165 0.09653 0.41572 0.0
C389 C 0.22754 0.06734 0.39241 0.0
N390 N 0.16355 0.06788 0.38978 0.0
C391 C 0.17704 0.09651 0.41349 0.0
C392 C 0.19567 0.04999 0.37667 0.0
Co393 Co 0.32206 0.11053 0.62658 0.0
N394 N 0.35949 0.09698 0.66285 0.0
N395 N 0.41197 0.06835 0.68963 0.0
C396 C 0.37964 0.05115 0.70315 0.0
C397 C 0.34803 0.06842 0.68672 0.0
C398 C 0.39886 0.09668 0.66532 0.0
Co399 Co 0.2886 0.12764 0.53879 0.0
C400 C 0.27266 0.14328 0.6269 0.0
H401 H 0.31837 0.05881 0.6896 0.0
O402 O 0.29312 0.12447 0.48068 0.0
O403 O 0.33098 0.16966 0.54507 0.0
O404 O 0.24543 0.16869 0.53359 0.0
O405 O 0.24966 0.08482 0.54063 0.0
O406 O 0.23846 0.06858 0.48018 0.0
O407 O 0.35397 0.14881 0.60266 0.0
O408 O 0.28375 0.12312 0.59669 0.0
O409 O 0.34179 0.07031 0.59646 0.0
O410 O 0.22138 0.14699 0.47689 0.0
O411 O 0.27539 0.15082 0.42465 0.0
O412 O 0.32892 0.08634 0.53611 0.0
O413 O 0.29874 0.14848 0.65384 0.0
C414 C 0.2202 0.1703 0.50564 0.0
C415 C 0.42414 0.125 0.64427 0.0
H416 H 0.41058 0.15397 0.64452 0.0
H417 H 0.42777 0.11558 0.61374 0.0
H418 H 0.45287 0.12794 0.65809 0.0
C419 C 0.35542 0.17196 0.57378 0.0
C420 C 0.23659 0.06124 0.51581 0.0
H421 H 0.25709 0.05732 0.38957 0.0
H422 H 0.12307 0.12785 0.42086 0.0
H423 H 0.14849 0.11587 0.46506 0.0
H424 H 0.16554 0.154 0.43384 0.0
C425 C 0.15193 0.12507 0.43444 0.0
C426 C 0.3024 0.1459 0.45079 0.0
C427 C 0.34485 0.06434 0.56062 0.0
H428 H 0.19606 1.02444 0.35863 0.0
H429 H 0.3788 1.0262 0.72212 0.0
Co430 Co 0.20902 0.99323 0.70477 0.0
N431 N 0.21355 0.94743 0.67548 0.0
C432 C 0.18544 0.92042 0.67566 0.0
N433 N 0.23892 0.88885 0.66105 0.0
C434 C 0.24588 0.92746 0.66476 0.0
C435 C 0.20108 0.88492 0.66894 0.0
Co436 Co 0.21082 0.07327 0.8761 0.0
N437 N 0.22346 0.1123 0.91 0.0
N438 N 0.25513 0.16451 0.93241 0.0
C439 C 0.26525 0.13359 0.95377 0.0
C440 C 0.24546 0.10194 0.94044 0.0
C441 C 0.23025 0.15084 0.9053 0.0
Co442 Co 0.19474 1.03696 0.78983 0.0
C443 C 0.1784 1.02464 0.8784 0.0
H444 H 0.24967 0.07238 0.9499 0.0
O445 O 0.2005 1.03719 0.73074 0.0
O446 O 0.15323 0.08045 0.79349 0.0
O447 O 0.15154 0.99464 0.78883 0.0
O448 O 0.23686 0.99827 0.79423 0.0
O449 O 0.24856 0.97348 0.73662 0.0
O450 O 0.17297 0.10426 0.85104 0.0
O451 O 0.19852 1.03479 0.84788 0.0
O452 O 0.25181 0.09045 0.84589 0.0
O453 O 0.17039 0.96977 0.73298 0.0
O454 O 0.1724 1.01713 0.67616 0.0
O455 O 0.23727 0.07649 0.78548 0.0
O456 O 0.17227 0.05178 0.9041 0.0
C457 C 0.14805 0.96901 0.76165 0.0
C458 C 0.21791 0.17378 0.87032 0.0
H459 H 0.21983 0.15645 0.84351 0.0
H460 H 0.23623 0.19975 0.86613 0.0
H461 H 0.18749 0.18319 0.87413 0.0
C462 C 0.15041 0.10537 0.82182 0.0
C463 C 0.2571 0.97752 0.77188 0.0
H464 H 0.15549 0.92546 0.68288 0.0
H465 H 0.3074 0.9275 0.67456 0.0
H466 H 0.29207 0.94863 0.6295 0.0
H467 H 0.28522 0.97539 0.67329 0.0
C468 C 0.28494 0.94586 0.66073 0.0
C469 C 0.17931 0.04551 0.70035 0.0
C470 C 0.25963 0.09173 0.8103 0.0
H471 H 0.18551 0.85797 0.66997 0.0
H472 H 0.28649 0.13369 0.9768 0.0
Co473 Co 0.3314 0.95891 0.95377 0.0
N474 N 0.37592 0.96286 0.92301 0.0
C475 C 0.40238 0.93423 0.92244 0.0
N476 N 0.43527 0.98801 0.91245 0.0
C477 C 0.39671 0.99546 0.9152 0.0
C478 C 0.43841 0.94973 0.91842 0.0
Co479 Co 0.25095 0.96459 0.12547 0.0
N480 N 0.2116 0.97781 0.15908 0.0
N481 N 0.15976 1.00949 0.18273 0.0
C482 C 0.19101 1.01905 0.20382 0.0
C483 C 0.22241 0.99932 0.18969 0.0
C484 C 0.17301 0.9848 0.15509 0.0
Co485 Co 0.29011 0.94729 0.03994 0.0
C486 C 0.29941 0.93064 0.12858 0.0
H487 H 0.25209 1.00307 0.19894 0.0
O488 O 0.28919 0.95179 0.98097 0.0
O489 O 0.24546 0.90713 0.04328 0.0
O490 O 0.33125 0.90295 0.03908 0.0
O491 O 0.33147 0.98774 0.044 0.0
O492 O 0.35229 0.99775 0.9845 0.0
O493 O 0.22018 0.9267 0.10036 0.0
O494 O 0.2909 0.95148 0.098 0.0
O495 O 0.23362 1.00519 0.09415 0.0
O496 O 0.35543 0.92006 0.98208 0.0
O497 O 0.30645 0.9225 0.92603 0.0
O498 O 0.25261 0.99126 1.03485 0.0
O499 O 0.27177 0.92634 0.15408 0.0
C500 C 0.3563 0.8984 1.01139 0.0
C501 C 0.14956 0.97249 0.12054 0.0
H502 H 0.16682 0.97373 0.09358 0.0
H503 H 0.12379 0.9912 0.11655 0.0
H504 H 0.13975 0.94227 0.12479 0.0
C505 C 0.21989 0.90427 0.071 0.0
C506 C 0.35162 1.00653 1.01978 0.0
H507 H 0.39654 0.90412 0.92843 0.0
H508 H 0.3944 0.05339 0.9377 0.0
H509 H 0.3831 0.04965 0.88724 0.0
H510 H 0.34788 1.03431 0.92185 0.0
C511 C 0.37941 1.03539 0.91571 0.0
C512 C 0.27914 0.9307 0.95109 0.0
C513 C 0.23424 1.01251 0.05841 0.0
H514 H 0.46517 0.9338 0.92002 0.0
H515 H 0.19132 0.03984 0.22727 0.0
Co516 Co 0.19575 0.36027 0.07135 0.0
N517 N 0.16141 0.3469 0.11093 0.0
C518 C 0.13061 0.32523 0.10111 0.0
N519 N 0.13714 0.31778 0.16439 0.0
C520 C 0.16532 0.34123 0.1499 0.0
C521 C 0.1153 0.30814 0.13356 0.0
Co522 Co 0.3694 0.36106 1.00284 0.0
N523 N 0.40491 0.34631 0.96471 0.0
N524 N 0.43148 0.31722 0.91259 0.0
C525 C 0.45018 0.30493 0.94435 0.0
C526 C 0.43321 0.32181 0.97602 0.0
C527 C 0.40326 0.34139 0.92547 0.0
Co528 Co 0.28241 0.37855 1.03481 0.0
C529 C 0.3698 0.39373 0.05235 0.0
H530 H 0.43962 0.315 1.00595 0.0
O531 O 0.22449 0.37409 1.03117 0.0
O532 O 0.28901 0.42168 0.99306 0.0
O533 O 0.27721 0.41893 0.07888 0.0
O534 O 0.2853 0.33515 0.0721 0.0
O535 O 0.22656 0.31944 0.09006 0.0
O536 O 0.34615 0.4 0.96987 0.0
O537 O 0.3398 0.37399 0.04067 0.0
O538 O 0.34036 0.3209 0.98481 0.0
O539 O 0.21974 0.39901 0.10255 0.0
O540 O 0.16763 0.39829 0.04881 0.0
O541 O 0.27995 0.33799 0.99337 0.0
O542 O 0.39615 0.3999 1.02607 0.0
C543 C 0.24885 0.4217 0.10362 0.0
C544 C 0.36918 0.35301 0.90093 0.0
H545 H 0.37352 0.34559 0.86998 0.0
H546 H 0.36361 0.38432 0.90305 0.0
H547 H 0.34286 0.33789 0.9112 0.0
C548 C 0.31793 0.42408 0.96867 0.0
C549 C 0.26231 0.31269 0.08934 0.0
H550 H 0.12142 0.32012 0.07158 0.0
H551 H 0.1956 0.3841 0.18265 0.0
H552 H 0.20492 0.33516 0.19839 0.0
H553 H 0.22683 0.35284 0.15518 0.0
C554 C 0.20013 0.35388 0.17276 0.0
C555 C 0.19434 0.39516 1.02207 0.0
C556 C 0.30498 0.3145 0.98058 0.0
H557 H 0.09061 0.2889 0.13417 0.0
H558 H 0.47336 0.28384 0.94463 0.0
Co559 Co 0.70096 0.21513 1.00536 0.0
N560 N 0.66623 0.22945 0.96681 0.0
C561 C 0.63296 0.2469 0.97743 0.0
N562 N 0.63936 0.25851 0.91488 0.0
C563 C 0.66987 0.23778 0.9283 0.0
C564 C 0.61651 0.26471 0.94581 0.0
Co565 Co 0.87378 0.20569 0.08242 0.0
N566 N 0.9039 0.20887 0.12784 0.0
N567 N 0.91874 0.23735 0.18499 0.0
C568 C 0.90656 0.20105 0.19149 0.0
C569 C 0.89955 0.18337 0.15708 0.0
C570 C 0.91743 0.24133 0.14569 0.0
Co571 Co 0.78733 0.19565 0.04076 0.0
C572 C 0.87625 0.17737 1.02953 0.0
H573 H 0.88955 0.15402 0.15433 0.0
O574 O 0.72968 0.20174 0.04377 0.0
O575 O 0.78718 0.15214 0.08261 0.0
O576 O 0.78178 0.15468 0.99704 0.0
O577 O 0.79228 0.23791 1.00137 0.0
O578 O 0.73239 0.25365 0.98615 0.0
O579 O 0.84478 0.16742 0.1055 0.0
O580 O 0.84662 0.19907 0.03923 0.0
O581 O 0.8439 0.24532 0.10367 0.0
O582 O 0.72375 0.1744 0.97395 0.0
O583 O 0.67169 0.17889 1.02921 0.0
O584 O 0.78525 0.23724 0.0804 0.0
O585 O 0.90081 0.16882 0.05719 0.0
C586 C 0.75293 0.15141 0.9728 0.0
C587 C 0.92743 0.27755 0.12401 0.0
H588 H 0.91179 0.27885 0.09596 0.0
H589 H 0.95889 0.27724 0.11747 0.0
H590 H 0.92114 0.30362 0.14167 0.0
C591 C 0.81508 0.14661 0.10696 0.0
C592 C 0.76808 0.25995 0.98484 0.0
H593 H 0.62244 0.24835 1.00695 0.0
H594 H 0.73048 0.22052 0.92174 0.0
H595 H 0.69929 0.2077 0.88238 0.0
H596 H 0.71367 0.25688 0.88842 0.0
C597 C 0.70552 0.23019 0.90436 0.0
C598 C 0.69884 0.18298 0.0552 0.0
C599 C 0.80897 0.25544 0.10146 0.0
H600 H 0.59003 0.2815 0.94561 0.0
H601 H 0.90299 0.1878 0.21947 0.0
Co602 Co 0.11028 0.45292 0.25247 0.0
N603 N 0.0962 0.41885 0.21328 0.0
C604 C 0.07544 0.38758 0.22355 0.0
N605 N 0.06716 0.39372 0.16042 0.0
C606 C 0.09001 0.42252 0.17441 0.0
C607 C 0.05848 0.37171 0.19137 0.0
Co608 Co 0.11457 0.62695 0.32174 0.0
N609 N 0.10231 0.66277 0.35989 0.0
N610 N 0.07373 0.69122 0.41119 0.0
C611 C 0.069 0.71414 0.38015 0.0
C612 C 0.0864 0.69667 0.34883 0.0
C613 C 0.09349 0.65988 0.39834 0.0
Co614 Co 0.12953 0.53949 0.28791 0.0
C615 C 0.14716 0.62682 0.27223 0.0
H616 H 0.08563 0.70696 0.31922 0.0
O617 O 0.12454 0.48142 0.29199 0.0
O618 O 0.17284 0.54437 0.3293 0.0
O619 O 0.16955 0.53375 0.24345 0.0
O620 O 0.08577 0.54331 0.25009 0.0
O621 O 0.06945 0.4837 0.23545 0.0
O622 O 0.15394 0.60217 0.35358 0.0
O623 O 0.1263 0.59722 0.28326 0.0
O624 O 0.07355 0.59818 0.34104 0.0
O625 O 0.14793 0.47683 0.22034 0.0
O626 O 0.14883 0.4248 0.27327 0.0
O627 O 0.08966 0.53767 0.33004 0.0
O628 O 0.15293 0.65345 0.29836 0.0
C629 C 0.17112 0.50543 0.21861 0.0
C630 C 0.1002 0.62462 0.42302 0.0
H631 H 0.07367 0.61802 0.43995 0.0
H632 H 0.12357 0.63066 0.44415 0.0
H633 H 0.10828 0.59883 0.40605 0.0
C634 C 0.17665 0.57274 0.35401 0.0
C635 C 0.06326 0.51949 0.23396 0.0
H636 H 0.07118 0.37818 0.25316 0.0
H637 H 0.08252 0.46158 0.12571 0.0
H638 H 0.10062 0.48412 0.16848 0.0
H639 H 0.13181 0.45314 0.14062 0.0
C640 C 0.10173 0.45734 0.15107 0.0
C641 C 0.14554 0.45095 0.30047 0.0
C642 C 0.06742 0.56265 0.34496 0.0
H643 H 0.04026 0.34632 0.19076 0.0
H644 H 0.05348 0.74134 0.38018 0.0
Co645 Co 0.69681 0.86643 0.57257 0.0
N646 N 0.66048 0.85322 0.61008 0.0
C647 C 0.63565 0.82577 0.59816 0.0
N648 N 0.63486 0.82277 0.6622 0.0
C649 C 0.65934 0.85112 0.6495 0.0
C650 C 0.61986 0.80746 0.62955 0.0
Co651 Co 0.87049 0.86969 0.49593 0.0
N652 N 0.90117 0.86545 0.45113 0.0
N653 N 0.91734 0.83916 0.39338 0.0
C654 C 0.90871 0.87673 0.38847 0.0
C655 C 0.90101 0.89301 0.4235 0.0
C656 C 0.91292 0.83294 0.43212 0.0
Co657 Co 0.78416 0.8825 0.53732 0.0
C658 C 0.87348 0.89849 0.5483 0.0
H659 H 0.89292 0.92286 0.42766 0.0
O660 O 0.72653 0.87875 0.5346 0.0
O661 O 0.78555 0.92539 0.49465 0.0
O662 O 0.77937 0.92405 0.58034 0.0
O663 O 0.78743 0.84098 0.57762 0.0
O664 O 0.72708 0.82673 0.59307 0.0
O665 O 0.84257 0.90804 0.47163 0.0
O666 O 0.8433 0.8774 0.53905 0.0
O667 O 0.83974 0.83013 0.4754 0.0
O668 O 0.7211 0.90509 0.60382 0.0
O669 O 0.66926 0.90401 0.54851 0.0
O670 O 0.78111 0.83971 0.4987 0.0
O671 O 0.89788 0.90651 0.52035 0.0
C672 C 0.7507 0.92735 0.60484 0.0
C673 C 0.91654 0.79425 0.45143 0.0
H674 H 0.90362 0.79465 0.48088 0.0
H675 H 0.94763 0.78699 0.45472 0.0
H676 H 0.90276 0.77154 0.43339 0.0
C677 C 0.81346 0.92967 0.46997 0.0
C678 C 0.76281 0.81991 0.59483 0.0
H679 H 0.63179 0.81741 0.56819 0.0
H680 H 0.66929 0.87945 0.70471 0.0
H681 H 0.71232 0.86776 0.67701 0.0
H682 H 0.68152 0.90744 0.6631 0.0
C683 C 0.68186 0.8778 0.67525 0.0
C684 C 0.69678 0.89909 0.52296 0.0
C685 C 0.80457 0.82093 0.47772 0.0
H686 H 0.60042 0.78294 0.62822 0.0
H687 H 0.90764 0.89164 0.36113 0.0
Co688 Co 0.96476 0.95247 0.32325 0.0
N689 N 0.97903 0.91751 0.36153 0.0
C690 C 0.99467 0.88345 0.35059 0.0
N691 N 1.00766 0.88925 0.41284 0.0
C692 C 0.98805 0.92065 0.39986 0.0
C693 C 1.01212 0.86609 0.38191 0.0
Co694 Co 0.96329 0.1261 0.25434 0.0
N695 N 0.9775 0.16094 0.21554 0.0
N696 N 1.00773 0.18734 0.16386 0.0
C697 C 1.01382 0.21004 0.19486 0.0
C698 C 0.99534 0.1939 0.2263 0.0
C699 C 0.98633 0.15719 0.1771 0.0
Co700 Co 0.94636 0.03909 0.28867 0.0
C701 C 0.92935 0.12723 0.30302 0.0
H702 H 0.99671 0.20434 0.25583 0.0
O703 O 0.951 0.98126 0.28416 0.0
O704 O 0.90464 0.04418 0.24594 0.0
O705 O 0.90474 1.03328 0.33167 0.0
O706 O 0.98841 0.04264 0.32829 0.0
O707 O 1.00563 0.98281 0.34064 0.0
O708 O 0.92465 0.10157 0.22178 0.0
O709 O 0.94994 0.09702 0.29306 0.0
O710 O 1.00409 0.09663 0.23717 0.0
O711 O 0.92586 0.97639 0.35603 0.0
O712 O 0.92639 0.92472 0.30187 0.0
O713 O 0.98822 1.03638 0.24857 0.0
O714 O 0.92473 0.15359 0.27628 0.0
C715 C 0.90225 1.00504 0.35666 0.0
C716 C 0.97846 0.12172 0.15311 0.0
H717 H 0.973 0.09579 0.17091 0.0
H718 H 1.00335 0.11579 0.13362 0.0
H719 H 0.95284 0.1268 0.1345 0.0
C720 C 0.90168 0.07244 0.22106 0.0
C721 C 1.01132 1.01856 0.34346 0.0
H722 H 0.99492 0.8728 0.3211 0.0
H723 H 0.97419 0.98192 0.40684 0.0
H724 H 0.95742 0.95068 0.44481 0.0
H725 H 1.00767 0.96236 0.44167 0.0
C726 C 0.98144 0.95613 0.42421 0.0
C727 C 0.93035 0.95086 0.27488 0.0
C728 C 1.01115 0.06118 0.23451 0.0
H729 H 1.02737 0.83873 0.382 0.0
H730 H 1.03098 0.23623 0.19485 0.0
Co731 Co 0.20693 0.70564 0.49106 0.0
N732 N 0.17848 0.70998 0.44518 0.0
C733 C 0.18115 0.68388 0.41633 0.0
N734 N 0.16448 0.73864 0.38805 0.0
C735 C 0.16683 0.74305 0.4272 0.0
C736 C 0.17456 0.7016 0.38179 0.0
Co737 Co 0.3755 0.70601 0.58035 0.0
N738 N 0.40506 0.71094 0.62528 0.0
N739 N 0.416 0.73762 0.68391 0.0
C740 C 0.40982 0.69946 0.68807 0.0
C741 C 0.40544 0.68302 0.65249 0.0
C742 C 0.41293 0.74408 0.64514 0.0
Co743 Co 0.29087 0.69309 0.53674 0.0
C744 C 0.38034 0.67814 0.52817 0.0
H745 H 0.39936 0.6528 0.64749 0.0
O746 O 0.23203 0.6982 0.53492 0.0
O747 O 0.2906 0.65008 0.57928 0.0
O748 O 0.29177 0.65028 0.49372 0.0
O749 O 0.29636 0.73584 0.49849 0.0
O750 O 0.23962 0.74343 0.47035 0.0
O751 O 0.34755 0.66672 0.60375 0.0
O752 O 0.34964 0.69827 0.53782 0.0
O753 O 0.34335 0.74401 0.6006 0.0
O754 O 0.2348 0.66612 0.4692 0.0
O755 O 0.17717 0.67038 0.51576 0.0
O756 O 0.28503 0.73512 0.57639 0.0
O757 O 0.4048 0.67026 0.55604 0.0
C758 C 0.2642 0.64481 0.4688 0.0
C759 C 0.41112 0.78357 0.62684 0.0
H760 H 0.40504 0.78148 0.59533 0.0
H761 H 0.43887 0.79908 0.63003 0.0
H762 H 0.38846 0.80113 0.64142 0.0
C763 C 0.31818 0.64525 0.60436 0.0
C764 C 0.27434 0.7533 0.47498 0.0
H765 H 0.18968 0.65406 0.41949 0.0
H766 H 0.17327 0.80496 0.43081 0.0
H767 H 0.13026 0.78565 0.45316 0.0
H768 H 0.17566 0.77976 0.47714 0.0
C769 C 0.1616 0.78063 0.44826 0.0
C770 C 0.20139 0.67776 0.544 0.0
C771 C 0.30838 0.75346 0.59791 0.0
H772 H 0.17688 0.68787 0.35393 0.0
H773 H 0.40841 0.6842 0.71522 0.0
Co774 Co 0.46569 0.62535 0.75319 0.0
N775 N 0.48024 0.65991 0.71465 0.0
C776 C 0.49305 0.69519 0.72509 0.0
N777 N 0.50774 0.68911 0.66311 0.0
C778 C 0.49062 0.6565 0.67662 0.0
C779 C 0.50922 0.71326 0.69355 0.0
Co780 Co 0.45991 0.45455 0.83323 0.0
N781 N 0.46343 0.42601 0.87936 0.0
N782 N 0.48611 0.41411 0.93984 0.0
C783 C 0.44794 0.42239 0.94114 0.0
C784 C 0.4341 0.42701 0.90485 0.0
C785 C 0.49488 0.41647 0.90129 0.0
Co786 Co 0.44736 0.53944 0.78962 0.0
C787 C 0.43064 0.45028 0.78082 0.0
H788 H 0.40457 0.43435 0.89822 0.0
O789 O 0.45215 0.59708 0.79164 0.0
O790 O 0.40358 0.53961 0.83167 0.0
O791 O 0.40623 0.54393 0.74591 0.0
O792 O 0.48962 0.53415 0.75019 0.0
O793 O 0.50444 0.59395 0.73465 0.0
O794 O 0.42142 0.48377 0.85617 0.0
O795 O 0.45226 0.4803 0.78908 0.0
O796 O 0.50012 0.48519 0.85276 0.0
O797 O 0.42562 0.6018 0.72198 0.0
O798 O 0.42881 0.65463 0.77613 0.0
O799 O 0.48977 0.54311 0.82841 0.0
O800 O 0.42281 0.4266 0.80943 0.0
C801 C 0.40289 0.57246 0.72122 0.0
C802 C 0.53416 0.41012 0.88407 0.0
H803 H 0.53224 0.40802 0.852 0.0
H804 H 0.5471 0.38315 0.8958 0.0
H805 H 0.55323 0.43479 0.89164 0.0
C806 C 0.39935 0.51251 0.85719 0.0
C807 C 0.51158 0.55837 0.73362 0.0
H808 H 0.49141 0.7067 0.75421 0.0
H809 H 0.46349 0.60093 0.66465 0.0
H810 H 0.477 0.62857 0.62254 0.0
H811 H 0.51336 0.60491 0.65112 0.0
C812 C 0.48541 0.62067 0.65257 0.0
C813 C 0.43268 0.62774 0.8024 0.0
C814 C 0.50924 0.52023 0.84933 0.0
H815 H 0.52138 0.74197 0.69287 0.0
H816 H 0.43049 0.42615 0.96678 0.0
Co817 Co 0.86917 0.49324 0.87 0.0
N818 N 0.86558 0.44799 0.89939 0.0
C819 C 0.89268 0.41998 0.89775 0.0
N820 N 0.83878 0.39054 0.91471 0.0
C821 C 0.83305 0.42934 0.91133 0.0
C822 C 0.87606 0.38513 0.90511 0.0
Co823 Co 0.86716 0.58339 0.70132 0.0
N824 N 0.86225 0.62859 0.67193 0.0
N825 N 0.83577 0.68688 0.65879 0.0
C826 C 0.87383 0.69114 0.66531 0.0
C827 C 0.89013 0.65577 0.67132 0.0
C828 C 0.82921 0.64832 0.66314 0.0
Co829 Co 0.88075 0.53802 0.78543 0.0
C830 C 0.89482 0.53049 0.69597 0.0
H831 H 0.92021 0.65103 0.67818 0.0
O832 O 0.8763 0.5363 0.84414 0.0
O833 O 0.92396 0.58068 0.78515 0.0
O834 O 0.92386 0.49501 0.78445 0.0
O835 O 0.83783 0.49934 0.78039 0.0
O836 O 0.83077 0.4721 0.83778 0.0
O837 O 0.90765 0.60552 0.72807 0.0
O838 O 0.87505 0.54023 0.72685 0.0
O839 O 0.83058 0.60473 0.73493 0.0
O840 O 0.90832 0.47102 0.84187 0.0
O841 O 0.90481 0.51848 0.89909 0.0
O842 O 0.83832 0.57687 0.7918 0.0
O843 O 0.90142 0.55804 0.67073 0.0
C844 C 0.92946 0.47026 0.81232 0.0
C845 C 0.78971 0.63027 0.66475 0.0
H846 H 0.79157 0.59918 0.67262 0.0
H847 H 0.77529 0.63228 0.6362 0.0
H848 H 0.77148 0.64599 0.68608 0.0
C849 C 0.92937 0.6055 0.75729 0.0
C850 C 0.82057 0.47604 0.80293 0.0
H851 H 0.92244 0.4239 0.8893 0.0
H852 H 0.77119 0.43106 0.90384 0.0
H853 H 0.78898 0.45379 0.94725 0.0
H854 H 0.7949 0.4781 0.90193 0.0
C855 C 0.79473 0.44921 0.91595 0.0
C856 C 0.8972 0.54607 0.87419 0.0
C857 C 0.82115 0.60076 0.76992 0.0
H858 H 0.89064 0.35766 0.90353 0.0
H859 H 0.88902 0.71826 0.6661 0.0
Co860 Co 0.75453 0.61449 0.94673 0.0
N861 N 0.71521 0.60269 0.91164 0.0
C862 C 0.72618 0.58114 0.88112 0.0
N863 N 0.66312 0.57141 0.88712 0.0
C864 C 0.67627 0.59626 0.91478 0.0
C865 C 0.69472 0.56208 0.86631 0.0
Co866 Co 0.82192 0.6138 0.12267 0.0
N867 N 0.85933 0.59915 0.15907 0.0
N868 N 0.91136 0.57026 0.18682 0.0
C869 C 0.87869 0.55336 0.1999 0.0
C870 C 0.8474 0.57081 0.18297 0.0
C871 C 0.8987 0.59865 0.16224 0.0
Co872 Co 0.78943 0.63148 1.03415 0.0
C873 C 0.77419 0.6482 0.12325 0.0
H874 H 0.81762 0.56149 0.1856 0.0
O875 O 0.79418 0.62641 0.97609 0.0
O876 O 0.83378 0.67106 0.04007 0.0
O877 O 0.7488 0.67482 1.02821 0.0
O878 O 0.74774 0.59267 1.03518 0.0
O879 O 0.73588 0.57274 0.97595 0.0
O880 O 0.85581 0.6496 0.09768 0.0
O881 O 0.78371 0.62767 0.09261 0.0
O882 O 0.83854 0.57158 0.09358 0.0
O883 O 0.72361 0.65301 0.97211 0.0
O884 O 0.77738 0.653 0.91985 0.0
O885 O 0.82703 0.58727 1.03283 0.0
O886 O 0.80152 0.65377 0.14886 0.0
C887 C 0.72343 0.67683 1.00047 0.0
C888 C 0.9244 0.62715 0.142 0.0
H889 H 0.91073 0.65611 0.14217 0.0
H890 H 0.92876 0.61796 0.11149 0.0
H891 H 0.9528 0.62998 0.15649 0.0
C892 C 0.85819 0.67253 0.06872 0.0
C893 C 0.7337 0.56809 1.01196 0.0
H894 H 0.75595 0.5769 0.87232 0.0
H895 H 0.65907 0.64368 0.9515 0.0
H896 H 0.62029 0.61345 0.93771 0.0
H897 H 0.65508 0.59669 0.97322 0.0
C898 C 0.65124 0.61335 0.946 0.0
C899 C 0.80431 0.64683 0.94579 0.0
C900 C 0.84036 0.56399 0.05793 0.0
H901 H 0.6953 0.54152 0.84285 0.0
H902 H 0.87736 0.52848 0.21892 0.0
Co903 Co 0.71797 0.49957 0.20791 0.0
N904 N 0.7329 0.4591 0.17544 0.0
C905 C 0.7601 0.46809 0.14878 0.0
N906 N 0.76133 0.40483 0.15316 0.0
C907 C 0.7355 0.41986 0.17873 0.0
C908 C 0.77667 0.43511 0.13435 0.0
Co909 Co 0.71386 0.57487 0.37964 0.0
N910 N 0.72665 0.6131 0.41541 0.0
N911 N 0.75615 0.66641 0.43939 0.0
C912 C 0.77272 0.63455 0.45472 0.0
C913 C 0.75496 0.60242 0.43994 0.0
C914 C 0.72765 0.65252 0.41577 0.0
Co915 Co 0.69885 0.53944 0.29259 0.0
C916 C 0.68123 0.52525 0.37995 0.0
H917 H 0.76429 0.57283 0.44418 0.0
O918 O 0.70425 0.54111 0.23457 0.0
O919 O 0.65632 0.58151 0.29649 0.0
O920 O 0.65771 0.49545 0.28827 0.0
O921 O 0.74236 0.50224 0.29774 0.0
O922 O 0.75727 0.48205 0.23948 0.0
O923 O 0.67559 0.60588 0.35425 0.0
O924 O 0.70175 0.53672 0.35029 0.0
O925 O 0.75457 0.59432 0.34972 0.0
O926 O 0.67841 0.46886 0.23235 0.0
O927 O 0.68039 0.52092 0.17868 0.0
O928 O 0.7397 0.58041 0.28941 0.0
O929 O 0.6757 0.5511 0.40708 0.0
C930 C 0.65486 0.46947 0.26096 0.0
C931 C 0.69968 0.67717 0.39354 0.0
H932 H 0.67047 0.66413 0.39455 0.0
H933 H 0.70911 0.67909 0.36284 0.0
H934 H 0.69727 0.7066 0.40592 0.0
C935 C 0.65313 0.60647 0.32473 0.0
C936 C 0.76424 0.48385 0.27502 0.0
H937 H 0.76885 0.49734 0.1418 0.0
H938 H 0.68768 0.39691 0.21132 0.0
H939 H 0.73007 0.36692 0.21238 0.0
H940 H 0.72817 0.41106 0.24002 0.0
C941 C 0.71957 0.39724 0.21236 0.0
C942 C 0.68422 0.54916 0.20336 0.0
C943 C 0.76183 0.5962 0.314 0.0
H944 H 0.79938 0.43347 0.11278 0.0
H945 H 0.79766 0.63428 0.4737 0.0
Co946 Co 0.83111 0.46125 0.45552 0.0
N947 N 0.87616 0.46695 0.4257 0.0
C948 C 0.90283 0.43855 0.42365 0.0
N949 N 0.93481 0.49273 0.41274 0.0
C950 C 0.89633 0.49985 0.41752 0.0
C951 C 0.93849 0.45438 0.41806 0.0
Co952 Co 0.7513 0.46118 0.62704 0.0
N953 N 0.71244 0.47307 0.66162 0.0
N954 N 0.66043 0.50433 0.68541 0.0
C955 C 0.69147 0.51339 0.70699 0.0
C956 C 0.72304 0.49402 0.69267 0.0
C957 C 0.67385 0.48015 0.65748 0.0
Co958 Co 0.7875 0.44618 0.54049 0.0
C959 C 0.80072 0.42931 0.62827 0.0
H960 H 0.75266 0.49774 0.70209 0.0
O961 O 0.78744 0.45209 0.48157 0.0
O962 O 0.74477 0.40391 0.54411 0.0
O963 O 0.83082 0.40376 0.53905 0.0
O964 O 0.82498 0.48936 0.54528 0.0
O965 O 0.85101 0.49995 0.48813 0.0
O966 O 0.72074 0.42276 0.60208 0.0
O967 O 0.78947 0.4495 0.5983 0.0
O968 O 0.73285 0.50195 0.59704 0.0
O969 O 0.85545 0.42217 0.48276 0.0
O970 O 0.80753 0.42514 0.42636 0.0
O971 O 0.74703 0.48781 0.53652 0.0
O972 O 0.77443 0.4231 0.65486 0.0
C973 C 0.85624 0.39999 0.51159 0.0
C974 C 0.65039 0.46837 0.62269 0.0
H975 H 0.63971 0.43845 0.6269 0.0
H976 H 0.66769 0.46911 0.59578 0.0
H977 H 0.62511 0.4877 0.61852 0.0
C978 C 0.71998 0.40045 0.57259 0.0
C979 C 0.84647 0.509 0.52316 0.0
H980 H 0.89749 0.40827 0.42924 0.0
H981 H 0.89619 0.55943 0.43581 0.0
H982 H 0.87751 0.55164 0.38826 0.0
H983 H 0.84816 0.53877 0.42852 0.0
C984 C 0.87845 0.53956 0.41793 0.0
C985 C 0.77919 0.43141 0.45082 0.0
C986 C 0.73137 0.50982 0.56146 0.0
H987 H 0.96541 0.43857 0.41814 0.0
H988 H 0.69149 0.53362 0.73083 0.0
Co989 Co 0.6198 0.12356 0.83365 0.0
N990 N 0.61703 0.15363 0.87899 0.0
C991 C 0.64451 0.15133 0.90661 0.0
N992 N 0.59111 0.16763 0.93751 0.0
C993 C 0.58482 0.16531 0.89863 0.0
C994 C 0.62841 0.15776 0.94202 0.0
Co995 Co 0.61201 0.95296 0.75072 0.0
N996 N 0.59839 0.92027 0.7104 0.0
N997 N 0.56651 0.89834 0.65779 0.0
C998 C 0.5571 0.87629 0.68848 0.0
C999 C 0.57687 0.8894 0.72032 0.0
C1000 C 0.59131 0.92542 0.67185 0.0
Co1001 Co 0.6301 1.03776 0.79127 0.0
C1002 C 0.64613 0.9489 0.79911 0.0
H1003 H 0.57317 0.87919 0.74974 0.0
O1004 O 0.62599 0.09665 0.79101 0.0
O1005 O 0.66979 1.03484 0.74615 0.0
O1006 O 0.67493 1.03768 0.83191 0.0
O1007 O 0.5901 1.03396 0.83314 0.0
O1008 O 0.58091 0.09326 0.85512 0.0
O1009 O 0.6499 0.97831 0.7203 0.0
O1010 O 0.62544 0.97972 0.79123 0.0
O1011 O 0.57191 0.98471 0.73415 0.0
O1012 O 0.65863 0.09463 0.85626 0.0
O1013 O 0.65606 0.15112 0.80767 0.0
O1014 O 0.58575 0.04349 0.75445 0.0
O1015 O 0.65005 0.92378 0.77105 0.0
C1016 C 0.68004 0.06524 0.85691 0.0
C1017 C 0.60404 0.96034 0.64922 0.0
H1018 H 0.60301 0.98683 0.66711 0.0
H1019 H 0.58545 0.96516 0.62348 0.0
H1020 H 0.63427 0.95594 0.63935 0.0
C1021 C 0.67236 1.00755 0.7202 0.0
C1022 C 0.57189 0.05807 0.854 0.0
H1023 H 0.67415 0.14277 0.90203 0.0
H1024 H 0.52325 0.15623 0.89727 0.0
H1025 H 0.53933 0.20171 0.87779 0.0
H1026 H 0.54625 0.15868 0.84975 0.0
C1027 C 0.54612 0.1704 0.87969 0.0
C1028 C 0.64737 0.12608 0.78051 0.0
C1029 C 0.5646 1.02031 0.73562 0.0
H1030 H 0.6433 0.15518 0.96929 0.0
H1031 H 0.53639 0.85286 0.68807 0.0
C1032 C 0.14769 0.39426 0.34584 0.0
C1033 C 0.14299 0.43457 0.34071 0.0
H1034 H 0.12249 0.34249 0.36926 0.0
C1035 C 0.12262 0.45456 0.36968 0.0
H1036 H 0.16606 0.37797 0.32632 0.0
C1037 C 0.09911 0.43413 0.39582 0.0
C1038 C 0.09453 0.39364 0.39214 0.0
H1039 H 0.12081 0.48573 0.3691 0.0
H1040 H 0.07998 0.45054 0.41445 0.0
C1041 C 0.12281 0.37373 0.37071 0.0
C1042 C 0.89272 0.84649 0.6412 0.0
C1043 C 0.93325 0.84219 0.63745 0.0
H1044 H 0.84089 0.8695 0.61604 0.0
C1045 C 0.95293 0.87052 0.61591 0.0
H1046 H 0.87642 0.82708 0.6596 0.0
C1047 C 0.93227 0.89556 0.59128 0.0
C1048 C 0.89172 0.89197 0.58729 0.0
H1049 H 0.98417 0.87029 0.61436 0.0
H1050 H 0.9486 0.91371 0.57159 0.0
C1051 C 0.87209 0.87081 0.61595 0.0
C1052 C 0.48485 0.64204 0.89504 0.0
C1053 C 0.4885 0.68276 0.89282 0.0
H1054 H 0.46072 0.59122 0.86922 0.0
C1055 C 0.45894 0.703 0.87358 0.0
H1056 H 0.50529 0.62499 0.91164 0.0
C1057 C 0.43325 0.68311 0.84916 0.0
C1058 C 0.43759 0.64296 0.84287 0.0
H1059 H 0.45853 0.73423 0.87354 0.0
H1060 H 0.41412 0.69985 0.83089 0.0
C1061 C 0.45952 0.62232 0.87015 0.0
C1062 C 0.64373 0.18628 0.10241 0.0
C1063 C 0.68395 0.18913 0.09575 0.0
H1064 H 0.5938 0.21273 0.12795 0.0
C1065 C 0.70553 0.21018 0.12302 0.0
H1066 H 0.6261 0.16792 0.08425 0.0
C1067 C 0.68684 0.23614 0.14832 0.0
C1068 C 0.64633 0.24113 0.14655 0.0
H1069 H 0.73666 0.21005 0.12195 0.0
H1070 H 0.70449 0.25577 0.16517 0.0
C1071 C 0.62501 0.21232 0.1274 0.0
C1072 C 0.1189 0.70281 0.20212 0.0
C1073 C 0.08957 0.68248 0.18272 0.0
H1074 H 0.16373 0.69991 0.24461 0.0
C1075 C 0.09338 0.64177 0.18038 0.0
H1076 H 0.11869 0.73408 0.20278 0.0
C1077 C 0.11875 0.622 0.20522 0.0
C1078 C 0.14102 0.64265 0.2322 0.0
H1079 H 0.07289 0.62475 0.16386 0.0
H1080 H 0.11715 0.59084 0.20657 0.0
C1081 C 0.14489 0.68295 0.22623 0.0
C1082 C 0.70449 0.87231 0.45562 0.0
C1083 C 0.68298 0.89458 0.48195 0.0
H1084 H 0.70331 0.82498 0.41585 0.0
C1085 C 0.64302 0.89859 0.47435 0.0
H1086 H 0.73561 0.87171 0.45712 0.0
C1087 C 0.62389 0.87134 0.45099 0.0
C1088 C 0.64499 0.8413 0.43346 0.0
H1089 H 0.6257 0.91853 0.49125 0.0
H1090 H 0.59262 0.87104 0.45076 0.0
C1091 C 0.68564 0.84573 0.43142 0.0
C1092 C 0.43292 0.39106 0.73839 0.0
C1093 C 0.43566 0.43169 0.74175 0.0
H1094 H 0.45764 0.33972 0.71385 0.0
C1095 C 0.45434 0.45152 0.71148 0.0
H1096 H 0.41649 0.37447 0.75933 0.0
C1097 C 0.47741 0.43116 0.68473 0.0
C1098 C 0.48351 0.39099 0.68909 0.0
H1099 H 0.45477 0.48277 0.71099 0.0
H1100 H 0.4948 0.44759 0.66446 0.0
C1101 C 0.45684 0.37086 0.71231 0.0
C1102 C 0.87307 0.2032 0.96128 0.0
C1103 C 0.8937 0.18324 0.99008 0.0
H1104 H 0.87558 0.24596 0.91657 0.0
C1105 C 0.93425 0.18057 0.98548 0.0
H1106 H 0.84182 0.20362 0.96163 0.0
C1107 C 0.95386 0.20582 0.96021 0.0
C1108 C 0.93304 0.23319 0.93849 0.0
H1109 H 0.95131 0.16311 1.00518 0.0
H1110 H 0.98507 0.20695 0.9613 0.0
C1111 C 0.89266 0.2275 0.93522 0.0
C1112 C 0.3714 0.11819 0.3738 0.0
C1113 C 0.391 0.08891 0.39414 0.0
H1114 H 0.32948 0.1638 0.37719 0.0
C1115 C 0.39426 0.09331 0.43478 0.0
H1116 H 0.37044 0.11785 0.3425 0.0
C1117 C 0.36993 0.11904 0.45472 0.0
C1118 C 0.34236 0.14089 0.43432 0.0
H1119 H 0.4111 0.07304 0.4518 0.0
H1120 H 0.36923 0.11781 0.48597 0.0
C1121 C 0.34783 0.14464 0.3939 0.0
C1122 C 0.18121 0.08868 0.64168 0.0
C1123 C 0.18381 0.08483 0.68235 0.0
H1124 H 0.20705 0.11284 0.59057 0.0
C1125 C 0.20245 0.11472 0.7026 0.0
H1126 H 0.16452 0.06819 0.62486 0.0
C1127 C 0.22586 0.14133 0.6826 0.0
C1128 C 0.23242 0.13706 0.64239 0.0
H1129 H 0.20269 0.11493 0.73391 0.0
H1130 H 0.24328 0.1612 0.6994 0.0
C1131 C 0.20575 0.11436 0.62177 0.0
C1132 C 0.20764 0.95791 0.87471 0.0
C1133 C 0.18635 0.98554 0.89566 0.0
H1134 H 0.25412 0.91706 0.87619 0.0
C1135 C 0.18476 0.98103 0.93638 0.0
H1136 H 0.20715 0.95791 0.84347 0.0
C1137 C 0.21121 0.95681 0.95549 0.0
C1138 C 0.23958 0.93676 0.9343 0.0
H1139 H 0.16702 1.00006 0.95393 0.0
H1140 H 0.21224 0.9575 0.98674 0.0
C1141 C 0.23433 0.93389 0.89379 0.0
C1142 C 0.36836 0.95674 0.2063 0.0
C1143 C 0.39004 0.98405 0.18547 0.0
H1144 H 0.32258 0.91538 0.20381 0.0
C1145 C 0.39443 0.97763 0.14528 0.0
H1146 H 0.36711 0.95786 0.23749 0.0
C1147 C 0.36862 0.95333 0.12547 0.0
C1148 C 0.33902 0.93439 0.1459 0.0
H1149 H 0.41346 0.9959 0.12846 0.0
H1150 H 0.36892 0.95334 0.0942 0.0
C1151 C 0.343 0.93189 0.18665 0.0
C1152 C 0.36648 0.36001 0.11736 0.0
C1153 C 0.38618 0.38489 0.09192 0.0
H1154 H 0.37083 0.31311 0.15738 0.0
C1155 C 0.42606 0.39083 0.09914 0.0
H1156 H 0.33557 0.35666 0.1154 0.0
C1157 C 0.44683 0.36574 0.12378 0.0
C1158 C 0.42807 0.33459 0.14192 0.0
H1159 H 0.44225 0.41149 0.08199 0.0
H1160 H 0.478 0.36819 0.12512 0.0
C1161 C 0.3871 0.33508 0.14201 0.0
C1162 C 0.97832 0.93406 0.17952 0.0
C1163 C 0.98376 0.89367 0.18342 0.0
H1164 H 0.95587 0.98551 0.20628 0.0
C1165 C 0.95608 0.87343 0.20521 0.0
H1166 H 0.99679 0.95068 0.16039 0.0
C1167 C 0.93115 0.89357 0.23027 0.0
C1168 C 0.93469 0.93407 0.23494 0.0
H1169 H 0.95682 0.84224 0.20663 0.0
H1170 H 0.91355 0.87692 0.25012 0.0
C1171 C 0.95467 0.95428 0.20585 0.0
C1172 C 0.12319 0.70484 0.61355 0.0
C1173 C 0.14378 0.73181 0.63592 0.0
H1174 H 0.12605 0.66356 0.56732 0.0
C1175 C 0.1841 0.726 0.63933 0.0
H1176 H 0.09199 0.70577 0.61253 0.0
C1177 C 0.2039 0.70212 0.61297 0.0
C1178 C 0.18357 0.68304 0.58342 0.0
H1179 H 0.20093 0.74395 0.65861 0.0
H1180 H 0.23509 0.70201 0.6133 0.0
C1181 C 0.14298 0.68038 0.58762 0.0
C1182 C 0.62418 0.95157 0.86867 0.0
C1183 C 0.64266 0.93124 0.83866 0.0
H1184 H 0.58172 0.94876 0.91377 0.0
C1185 C 0.64471 0.89052 0.84221 0.0
H1186 H 0.62451 0.98277 0.86921 0.0
C1187 C 0.61984 0.87095 0.8677 0.0
C1188 C 0.59295 0.89187 0.88992 0.0
H1189 H 0.6608 0.87342 0.82137 0.0
H1190 H 0.61822 0.83986 0.86597 0.0
C1191 C 0.59977 0.93186 0.89454 0.0
C1192 C 0.95608 0.12266 0.37078 0.0
C1193 C 0.93493 0.14349 0.34298 0.0
H1194 H 1.00087 0.12485 0.41334 0.0
C1195 C 0.93161 0.1839 0.34845 0.0
H1196 H 0.95711 0.09148 0.36981 0.0
C1197 C 0.957 0.20343 0.37342 0.0
C1198 C 0.98551 0.18277 0.39381 0.0
H1199 H 0.91363 0.20106 0.32935 0.0
H1200 H 0.95745 0.23468 0.37282 0.0
C1201 C 0.98111 0.14213 0.39617 0.0
C1202 C 0.61945 0.20175 0.70938 0.0
C1203 C 0.59102 0.18082 0.6892 0.0
H1204 H 0.66323 0.19977 0.75332 0.0
C1205 C 0.59574 0.14023 0.68716 0.0
H1206 H 0.61892 0.233 0.70949 0.0
C1207 C 0.62084 0.12112 0.71277 0.0
C1208 C 0.64171 0.14224 0.74052 0.0
H1209 H 0.57619 0.12272 0.67003 0.0
H1210 H 0.62022 0.08996 0.71383 0.0
C1211 C 0.645 0.1825 0.7346 0.0
C1212 C 0.20018 0.3735 0.95262 0.0
C1213 C 0.17938 0.3936 0.98125 0.0
H1214 H 0.19744 0.33039 0.90812 0.0
C1215 C 0.13924 0.39801 0.9751 0.0
H1216 H 0.23139 0.37246 0.95344 0.0
C1217 C 0.11947 0.37194 0.95092 0.0
C1218 C 0.14024 0.34332 0.93076 0.0
H1219 H 0.12252 0.41696 0.99364 0.0
H1220 H 0.08823 0.3711 0.95207 0.0
C1221 C 0.18049 0.3492 0.92663 0.0
C1222 C 0.45759 0.7096 0.45907 0.0
C1223 C 0.43598 0.73595 0.43684 0.0
H1224 H 0.45669 0.66891 0.50572 0.0
C1225 C 0.39568 0.72938 0.43405 0.0
H1226 H 0.48873 0.71121 0.45961 0.0
C1227 C 0.37701 0.70423 0.45998 0.0
C1228 C 0.39818 0.68539 0.48916 0.0
H1229 H 0.37779 0.74736 0.41559 0.0
H1230 H 0.34583 0.70301 0.45981 0.0
C1231 C 0.43891 0.68473 0.48528 0.0
C1232 C 0.87341 0.61491 0.86948 0.0
C1233 C 0.89269 0.58603 0.89065 0.0
H1234 H 0.83044 0.65945 0.8709 0.0
C1235 C 0.89561 0.59138 0.93108 0.0
H1236 H 0.8737 0.61452 0.83828 0.0
C1237 C 0.87105 0.61764 0.95022 0.0
C1238 C 0.84372 0.63916 0.92905 0.0
H1239 H 0.91266 0.57166 0.94851 0.0
H1240 H 0.87011 0.61725 0.98152 0.0
C1241 C 0.84901 0.64131 0.88849 0.0
C1242 C 0.7077 0.61757 0.12265 0.0
C1243 C 0.73528 0.64056 0.14162 0.0
H1244 H 0.6673 0.57098 0.128 0.0
C1245 C 0.73104 0.64468 0.18222 0.0
H1246 H 0.70734 0.61596 0.0914 0.0
C1247 C 0.70847 0.61831 0.20361 0.0
C1248 C 0.68877 0.5883 0.18463 0.0
H1249 H 0.74934 0.66459 0.19802 0.0
H1250 H 0.71005 0.61886 0.23487 0.0
C1251 C 0.68447 0.59175 0.14397 0.0
C1252 C 0.70955 0.4585 0.37299 0.0
C1253 C 0.68667 0.48453 0.39427 0.0
H1254 H 0.75748 0.4194 0.37459 0.0
C1255 C 0.68248 0.47699 0.43426 0.0
H1256 H 0.71025 0.45987 0.34183 0.0
C1257 C 0.70955 0.45353 0.45364 0.0
C1258 C 0.73993 0.43608 0.43287 0.0
H1259 H 0.66221 0.4937 0.45139 0.0
H1260 H 0.70926 0.45285 0.48494 0.0
C1261 C 0.73634 0.43464 0.39209 0.0
C1262 C 0.86747 0.45762 0.62139 0.0
C1263 C 0.84073 0.43644 0.64356 0.0
H1264 H 0.90711 0.5051 0.62091 0.0
C1265 C 0.84705 0.43489 0.68397 0.0
H1266 H 0.86656 0.45655 0.59021 0.0
C1267 C 0.87179 0.46161 0.70188 0.0
C1268 C 0.88993 0.49054 0.6798 0.0
H1269 H 0.82903 0.41695 0.70233 0.0
H1270 H 0.87301 0.46231 0.73305 0.0
C1271 C 0.89147 0.48505 0.63928 0.0
C1272 C 0.15281 0.19905 0.50722 0.0
C1273 C 0.19263 0.20371 0.49978 0.0
H1274 H 0.09447 0.21329 0.49061 0.0
C1275 C 0.20314 0.23311 0.47325 0.0
H1276 H 0.14322 0.17568 0.52581 0.0
C1277 C 0.17498 0.25458 0.45251 0.0
C1278 C 0.13512 0.24784 0.45779 0.0
H1279 H 0.23327 0.23652 0.46521 0.0
H1280 H 0.18451 0.27346 0.42932 0.0
C1281 C 0.12466 0.22086 0.48682 0.0
C1282 C 0.08636 0.95011 0.72832 0.0
C1283 C 0.11522 0.94055 0.75596 0.0
H1284 H 0.0506 0.93126 0.68049 0.0
C1285 C 0.12311 0.90068 0.76049 0.0
H1286 H 0.08068 0.98029 0.722 0.0
C1287 C 0.10566 0.8723 0.73643 0.0
C1288 C 0.07944 0.88233 0.70659 0.0
H1289 H 0.1464 0.89173 0.77951 0.0
H1290 H 0.11576 0.8427 0.73867 0.0
C1291 C 0.06919 0.92175 0.70391 0.0
C1292 C 0.45376 0.85581 0.98867 0.0
C1293 C 0.4444 0.82862 0.95954 0.0
H1294 H 0.43335 0.89784 1.03009 0.0
C1295 C 0.40507 0.81813 0.95655 0.0
H1296 H 0.48324 0.86621 0.99095 0.0
C1297 C 0.37618 0.83599 0.9799 0.0
C1298 C 0.38513 0.86569 1.00676 0.0
H1299 H 0.39605 0.79888 0.93351 0.0
H1300 H 0.34613 0.82999 0.97328 0.0
C1301 C 0.42486 0.87392 1.01169 0.0
C1302 C 0.47945 0.20046 0.24371 0.0
C1303 C 0.50638 0.19116 0.21407 0.0
H1304 H 0.43223 0.1814 0.2802 0.0
C1305 C 0.51042 0.15144 0.20537 0.0
H1306 H 0.47353 0.23059 0.25005 0.0
C1307 C 0.48654 0.12298 0.22291 0.0
C1308 C 0.45735 0.13278 0.24997 0.0
H1309 H 0.52886 0.14276 0.18148 0.0
H1310 H 0.48828 0.09357 0.21219 0.0
C1311 C 0.45519 0.17202 0.26098 0.0
C1312 C 0.12359 0.8559 0.08899 0.0
C1313 C 0.13342 0.82841 0.11775 0.0
H1314 H 0.14317 0.90084 0.0503 0.0
C1315 C 0.17311 0.82028 0.12252 0.0
H1316 H 0.09362 0.86451 0.08557 0.0
C1317 C 0.20176 0.84098 0.10163 0.0
C1318 C 0.19197 0.871 0.07549 0.0
H1319 H 0.18224 0.80097 0.1455 0.0
H1320 H 0.23181 0.83663 0.10947 0.0
C1321 C 0.15224 0.87693 0.06847 0.0
C1322 C 0.50832 0.92465 0.37146 0.0
C1323 C 0.50141 0.88487 0.36583 0.0
H1324 H 0.49029 0.98306 0.3595 0.0
C1325 C 0.47505 0.87486 0.33612 0.0
H1326 H 0.52676 0.93386 0.39509 0.0
C1327 C 0.45364 0.90332 0.31569 0.0
C1328 C 0.45791 0.94301 0.32399 0.0
H1329 H 0.46741 0.84476 0.33193 0.0
H1330 H 0.43047 0.89397 0.29676 0.0
C1331 C 0.48711 0.95311 0.35085 0.0
C1332 C 0.45181 0.2209 0.59216 0.0
C1333 C 0.44209 0.24757 0.62173 0.0
H1334 H 0.43218 0.17674 0.55259 0.0
C1335 C 0.40235 0.25481 0.62754 0.0
H1336 H 0.48184 0.21287 0.58794 0.0
C1337 C 0.37364 0.23413 0.60678 0.0
C1338 C 0.38339 0.20507 0.57959 0.0
H1339 H 0.39332 0.27341 0.65115 0.0
H1340 H 0.34367 0.23784 0.61529 0.0
C1341 C 0.42309 0.19995 0.57164 0.0
C1342 C 0.12295 0.17312 0.82017 0.0
C1343 C 0.11725 0.13339 0.82738 0.0
H1344 H 0.11136 0.23178 0.83783 0.0
C1345 C 0.08836 0.12375 0.85488 0.0
H1346 H 0.1461 0.18212 0.80099 0.0
C1347 C 0.06864 0.15246 0.87669 0.0
C1348 C 0.07656 0.19211 0.87153 0.0
H1349 H 0.08427 0.09373 0.86292 0.0
H1350 H 0.05018 0.14337 0.9004 0.0
C1351 C 0.10291 0.20184 0.84167 0.0
C1352 C 0.19766 0.50629 0.15045 0.0
C1353 C 0.20373 0.49923 0.1902 0.0
H1354 H 0.2088 0.48841 0.09171 0.0
C1355 C 0.23269 0.47191 0.19985 0.0
H1356 H 0.17446 0.52544 0.14155 0.0
C1357 C 0.25219 0.45005 0.17108 0.0
C1358 C 0.24389 0.45502 0.13143 0.0
H1359 H 0.23705 0.4641 0.22996 0.0
H1360 H 0.27074 0.42644 0.18014 0.0
C1361 C 0.21748 0.48475 0.12166 0.0
C1362 C 0.74208 0.09706 0.87674 0.0
C1363 C 0.71288 0.0696 0.88558 0.0
H1364 H 0.7779 0.14425 0.89676 0.0
C1365 C 0.70469 0.0643 0.92535 0.0
H1366 H 0.74805 0.10389 0.84667 0.0
C1367 C 0.72198 0.08775 0.95435 0.0
C1368 C 0.74838 0.11759 0.94503 0.0
H1369 H 0.68118 0.04534 0.93377 0.0
H1370 H 0.71153 0.08511 0.98385 0.0
C1371 C 0.75914 0.12081 0.90572 0.0
C1372 C 0.84602 0.99182 0.45145 0.0
C1373 C 0.81899 0.9626 0.44154 0.0
H1374 H 0.89332 1.02841 0.43303 0.0
C1375 C 0.81478 0.95491 0.40157 0.0
H1376 H 0.85203 0.99739 0.48176 0.0
C1377 C 0.83862 0.97302 0.37336 0.0
C1378 C 0.86794 0.99961 0.38372 0.0
H1379 H 0.79623 0.93139 0.39239 0.0
H1380 H 0.83675 0.9631 0.34363 0.0
C1381 C 0.87026 1.00959 0.42328 0.0
C1382 C 0.814 0.12061 0.17494 0.0
C1383 C 0.81958 0.11336 0.13505 0.0
H1384 H 0.83473 0.11251 0.23329 0.0
C1385 C 0.84722 0.08449 0.12559 0.0
H1386 H 0.7948 0.14379 0.18379 0.0
C1387 C 0.8711 0.06704 0.15417 0.0
C1388 C 0.86768 0.07694 0.19365 0.0
H1389 H 0.85411 0.0792 0.09541 0.0
H1390 H 0.89478 0.04869 0.14485 0.0
C1391 C 0.83749 0.10278 0.20357 0.0
C1392 C 0.37275 0.56583 0.65415 0.0
C1393 C 0.36917 0.57674 0.69337 0.0
H1394 H 0.35663 0.57696 0.59489 0.0
C1395 C 0.33954 0.60357 0.70226 0.0
H1396 H 0.39613 0.54678 0.64553 0.0
C1397 C 0.31667 0.62112 0.67297 0.0
C1398 C 0.32232 0.61267 0.63332 0.0
H1399 H 0.33674 0.61418 0.73168 0.0
H1400 H 0.29787 0.6449 0.68107 0.0
C1401 C 0.34955 0.58312 0.62486 0.0
C1402 C 0.26516 0.61936 0.40059 0.0
C1403 C 0.25976 0.61166 0.44047 0.0
H1404 H 0.24401 0.61246 0.34221 0.0
C1405 C 0.23184 0.58298 0.44957 0.0
H1406 H 0.2845 0.64246 0.39194 0.0
C1407 C 0.20763 0.56622 0.42081 0.0
C1408 C 0.21089 0.57661 0.38141 0.0
H1409 H 0.22498 0.57735 0.47969 0.0
H1410 H 0.18384 0.548 0.43001 0.0
C1411 C 0.24129 0.60228 0.37179 0.0
C1412 C 0.37213 0.51032 0.92526 0.0
C1413 C 0.36555 0.50668 0.88498 0.0
H1414 H 0.3615 0.48848 0.98288 0.0
C1415 C 0.33593 0.48035 0.8742 0.0
H1416 H 0.39588 0.52814 0.93526 0.0
C1417 C 0.31642 0.45665 0.90184 0.0
C1418 C 0.32503 0.45855 0.94182 0.0
H1419 H 0.33112 0.47455 0.84373 0.0
H1420 H 0.29723 0.43421 0.8914 0.0
C1421 C 0.35236 0.48698 0.95289 0.0
C1422 C 0.67679 0.76035 0.94747 0.0
C1423 C 0.63713 0.75385 0.95447 0.0
H1424 H 0.73542 0.742 0.95791 0.0
C1425 C 0.62775 0.72796 0.98481 0.0
H1426 H 0.68544 0.77844 0.92333 0.0
C1427 C 0.65661 0.70654 1.00459 0.0
C1428 C 0.69606 0.71046 0.99504 0.0
H1429 H 0.5977 0.72066 0.99005 0.0
H1430 H 0.64767 0.6838 1.02426 0.0
C1431 C 0.70567 0.73912 0.96742 0.0
C1432 C 0.5899 0.45213 0.23137 0.0
C1433 C 0.62058 0.44202 0.25662 0.0
H1434 H 0.54678 0.43302 0.19041 0.0
C1435 C 0.62442 0.40228 0.26524 0.0
H1436 H 0.5867 0.482 0.22238 0.0
C1437 C 0.60072 0.37388 0.24715 0.0
C1438 C 0.57241 0.38365 0.21902 0.0
H1439 H 0.64843 0.39267 0.28298 0.0
H1440 H 0.60809 0.34372 0.25153 0.0
C1441 C 0.56641 0.4237 0.21304 0.0
C1442 C 0.95381 0.35689 0.48866 0.0
C1443 C 0.94446 0.32982 0.45938 0.0
H1444 H 0.93345 0.39892 0.53015 0.0
C1445 C 0.90502 0.31987 0.45595 0.0
H1446 H 0.98339 0.3669 0.4913 0.0
C1447 C 0.8761 0.33791 0.47916 0.0
C1448 C 0.88511 0.3673 0.50638 0.0
H1449 H 0.89601 0.30075 0.43279 0.0
H1450 H 0.84605 0.33221 0.47231 0.0
C1451 C 0.92488 0.37521 0.51152 0.0
C1452 C 0.99179 0.62438 0.7252 0.0
C1453 C 0.96261 0.6337 0.75264 0.0
H1454 H 1.02852 0.64374 0.67825 0.0
C1455 C 0.95505 0.67356 0.75777 0.0
H1456 H 0.99727 0.59427 0.7184 0.0
C1457 C 0.97315 0.7022 0.73443 0.0
C1458 C 0.99975 0.69249 0.70478 0.0
H1459 H 0.93154 0.6824 0.7766 0.0
H1460 H 0.96325 0.73184 0.73702 0.0
C1461 C 1.00967 0.65302 0.70158 0.0
C1462 C 0.70179 0.33748 0.60404 0.0
C1463 C 0.69201 0.36719 0.5775 0.0
H1464 H 0.68238 0.29806 0.64853 0.0
C1465 C 0.65222 0.37317 0.57074 0.0
H1466 H 0.73186 0.33312 0.61176 0.0
C1467 C 0.6236 0.35257 0.59179 0.0
C1468 C 0.63345 0.32536 0.62082 0.0
H1469 H 0.64312 0.39688 0.55232 0.0
H1470 H 0.59365 0.36128 0.58844 0.0
C1471 C 0.67316 0.31715 0.62539 0.0
C1472 C 0.97117 0.37308 0.83676 0.0
C1473 C 0.9976 0.3827 0.86655 0.0
H1474 H 0.93055 0.39304 0.79373 0.0
C1475 C 1.00844 0.42197 0.86894 0.0
H1476 H 0.96061 0.34366 0.83468 0.0
C1477 C 0.99157 0.45057 0.84445 0.0
C1478 C 0.96238 0.44151 0.81697 0.0
H1479 H 1.02725 0.43126 0.89224 0.0
H1480 H 0.9977 0.48065 0.85071 0.0
C1481 C 0.95407 0.4017 0.81257 0.0
C1482 C 0.87491 0.73504 0.10152 0.0
C1483 C 0.88586 0.70566 0.07515 0.0
H1484 H 0.89275 0.77508 0.14596 0.0
C1485 C 0.9258 0.70073 0.06854 0.0
H1486 H 0.84463 0.73862 0.10892 0.0
C1487 C 0.9536 0.72233 0.08956 0.0
C1488 C 0.94262 0.74929 0.11841 0.0
H1489 H 0.93568 0.67734 0.05012 0.0
H1490 H 0.98384 0.71461 0.08638 0.0
C1491 C 0.90269 0.75623 0.12292 0.0
C1492 C 0.59035 0.62467 0.35628 0.0
C1493 C 0.61965 0.63415 0.32926 0.0
H1494 H 0.55087 0.64484 0.4003 0.0
C1495 C 0.62466 0.6737 0.32071 0.0
H1496 H 0.58671 0.59482 0.36516 0.0
C1497 C 0.6035 0.70261 0.34075 0.0
C1498 C 0.57685 0.69319 0.37043 0.0
H1499 H 0.64801 0.68254 0.30171 0.0
H1500 H 0.61151 0.73258 0.33624 0.0
C1501 C 0.56952 0.65358 0.37661 0.0
C1502 C 0.75498 0.95569 0.67215 0.0
C1503 C 0.74612 0.96068 0.63262 0.0
H1504 H 0.73986 0.9688 0.73123 0.0
C1505 C 0.71907 0.98995 0.62327 0.0
H1506 H 0.77406 0.93238 0.68088 0.0
C1507 C 0.69894 1.01074 0.65235 0.0
C1508 C 0.70536 1.00335 0.69198 0.0
H1509 H 0.71002 0.99359 0.59342 0.0
H1510 H 0.67517 1.02931 0.64376 0.0
C1511 C 0.73517 0.97683 0.70123 0.0
C1512 C 0.13669 0.32631 0.23603 0.0
C1513 C 0.13176 0.30271 0.20326 0.0
H1514 H 0.12582 0.33358 0.29673 0.0
C1515 C 0.1177 0.26493 0.20876 0.0
H1516 H 0.14763 0.35543 0.23305 0.0
C1517 C 0.10659 0.25198 0.24555 0.0
C1518 C 0.10849 0.27684 0.27775 0.0
H1519 H 0.11453 0.24561 0.18435 0.0
H1520 H 0.09475 0.2231 0.24838 0.0
C1521 C 0.12425 0.31386 0.27265 0.0
C1522 C 0.997 0.88035 0.48286 0.0
C1523 C 1.02225 0.88151 0.45111 0.0
H1524 H 0.98936 0.86499 0.5423 0.0
C1525 C 0.06135 0.87192 0.4566 0.0
H1526 H 0.96684 0.88752 0.47927 0.0
C1527 C 0.07482 0.86098 0.49328 0.0
C1528 C 0.04908 0.85811 0.52485 0.0
H1529 H 0.08127 0.87246 0.43235 0.0
H1530 H 0.10503 0.85317 0.49647 0.0
C1531 C 1.01005 0.86792 0.51909 0.0
C1532 C 0.41066 0.75575 0.75284 0.0
C1533 C 0.42601 0.76302 0.71564 0.0
H1534 H 0.41618 0.76491 0.81423 0.0
C1535 C 0.45668 0.78954 0.71222 0.0
H1536 H 0.3867 0.73592 0.7565 0.0
C1537 C 0.47325 0.80604 0.7453 0.0
C1538 C 0.46006 0.79568 0.78233 0.0
H1539 H 0.47047 0.79487 0.68469 0.0
H1540 H 0.49804 0.82493 0.74211 0.0
C1541 C 0.42775 0.77169 0.78588 0.0
C1542 C 0.52772 0.2284 1.00128 0.0
C1543 C 0.53523 0.21157 1.03757 0.0
H1544 H 0.53902 0.22707 0.94022 0.0
C1545 C 0.55538 0.17657 0.03936 0.0
H1546 H 0.51158 0.25523 0.99943 0.0
C1547 C 0.57077 0.16027 1.00562 0.0
C1548 C 0.56613 0.17856 0.96936 0.0
H1549 H 0.56004 0.16241 0.06697 0.0
H1550 H 0.58801 0.13421 1.00807 0.0
C1551 C 0.54285 0.21189 0.96734 0.0
C1552 C 0.10288 0.80691 0.33025 0.0
C1553 C 0.11583 0.79836 0.29265 0.0
H1554 H 0.10792 0.7943 0.39068 0.0
C1555 C 0.14895 0.7757 0.28769 0.0
H1556 H 0.07743 0.82472 0.33444 0.0
C1557 C 0.1674 0.75954 0.31981 0.0
C1558 C 0.15243 0.76472 0.35752 0.0
H1559 H 0.16 0.7698 0.25889 0.0
H1560 H 0.19222 0.74103 0.31489 0.0
C1561 C 0.12088 0.79004 0.36251 0.0
C1562 C 0.56507 0.88069 0.55065 0.0
C1563 C 0.52734 0.8669 0.54507 0.0
H1564 H 0.60633 0.90413 0.59051 0.0
C1565 C 0.50132 0.86795 0.57647 0.0
H1566 H 0.58578 0.87957 0.52734 0.0
C1567 C 0.51368 0.88009 0.6131 0.0
C1568 C 0.55195 0.8926 0.61895 0.0
H1569 H 0.47198 0.85735 0.57332 0.0
H1570 H 0.4936 0.87865 0.63718 0.0
C1571 C 0.57689 0.89445 0.58691 0.0
C1572 C 0.44139 0.26444 0.86552 0.0
C1573 C 0.43942 0.30413 0.87381 0.0
H1574 H 0.45546 0.22085 0.82372 0.0
C1575 C 0.44935 0.33077 0.84493 0.0
H1576 H 0.43405 0.24337 0.88758 0.0
C1577 C 0.46293 0.31817 0.80897 0.0
C1578 C 0.46536 0.27848 0.80052 0.0
H1579 H 0.44813 0.36128 0.85079 0.0
H1580 H 0.47276 0.33955 0.78834 0.0
C1581 C 0.45367 0.25169 0.82901 0.0
C1582 C 0.07399 0.21557 0.08226 0.0
C1583 C 0.04774 0.21946 0.05125 0.0
H1584 H 0.08142 0.20239 0.14274 0.0
C1585 C 1.00881 0.20976 0.05761 0.0
H1586 H 0.10422 0.22307 0.07863 0.0
C1587 C 0.99639 0.19638 0.09379 0.0
C1588 C 1.02198 0.19471 0.12522 0.0
H1589 H 0.98774 0.2134 1.0349 0.0
H1590 H 0.96644 0.18885 0.09756 0.0
C1591 C 0.06106 0.20392 0.119 0.0
C1592 C 0.23355 0.13609 0.33065 0.0
C1593 C 0.20176 0.13528 0.30536 0.0
H1594 H 0.29308 0.12113 0.33946 0.0
C1595 C 0.20784 0.12369 0.2668 0.0
H1596 H 0.22983 0.14536 0.36028 0.0
C1597 C 0.24454 0.11195 0.25429 0.0
C1598 C 0.27582 0.11035 0.28038 0.0
H1599 H 0.18399 0.12311 0.24649 0.0
H1600 H 0.24792 0.10243 0.22455 0.0
C1601 C 0.2699 0.12269 0.31864 0.0
C1602 C 0.21907 0.99184 0.50246 0.0
C1603 C 0.22153 1.02304 0.52864 0.0
H1604 H 0.20857 0.9309 0.49516 0.0
C1605 C 0.21262 1.01632 0.56778 0.0
H1606 H 0.22641 0.99569 0.47216 0.0
C1607 C 0.20085 0.97974 0.58037 0.0
C1608 C 0.19977 0.94844 0.55463 0.0
H1609 H 0.21559 0.03911 0.58887 0.0
H1610 H 0.19385 0.97563 0.61049 0.0
C1611 C 0.20899 0.95475 0.51551 0.0
C1612 C 0.35175 0.92189 0.78294 0.0
C1613 C 0.37167 0.94583 0.8092 0.0
H1614 H 0.29948 0.91316 0.75003 0.0
C1615 C 0.35324 0.97905 0.82324 0.0
H1616 H 0.36581 0.89672 0.7707 0.0
C1617 C 0.31533 0.98772 0.81266 0.0
C1618 C 0.2953 0.96426 0.78615 0.0
H1619 H 0.36849 0.99862 0.8421 0.0
H1620 H 0.30234 1.01393 0.82402 0.0
C1621 C 0.31396 0.93133 0.77107 0.0
C1622 C 0.37347 0.11198 1.03813 0.0
C1623 C 0.40435 0.10962 0.06459 0.0
H1624 H 0.33238 0.0807 1.00348 0.0
C1625 C 0.42067 0.07295 0.0721 0.0
H1626 H 0.35915 0.13918 1.03254 0.0
C1627 C 0.40461 0.03938 0.05616 0.0
C1628 C 0.37199 0.04177 1.03237 0.0
H1629 H 0.44467 0.07013 0.09207 0.0
H1630 H 0.41699 1.01147 0.06315 0.0
C1631 C 0.35751 0.07833 1.02209 0.0
C1632 C 0.20962 0.98307 0.28444 0.0
C1633 C 0.20232 0.94634 0.26845 0.0
H1634 H 0.251 1.02241 0.30832 0.0
C1635 C 0.23294 0.91924 0.26791 0.0
H1636 H 0.18695 1.00451 0.28603 0.0
C1637 C 0.27012 0.92964 0.28112 0.0
C1638 C 0.27691 0.96696 0.29572 0.0
H1639 H 0.22818 0.88993 0.25811 0.0
H1640 H 0.29339 0.90863 0.28009 0.0
C1641 C 0.24636 0.99341 0.29729 0.0
C1642 C 0.39603 1.02051 0.53273 0.0
C1643 C 0.35862 1.02631 0.54746 0.0
H1644 H 0.43697 0.97972 0.51019 0.0
C1645 C 0.333 0.99511 0.5494 0.0
H1646 H 0.41643 0.04426 0.53169 0.0
C1647 C 0.34406 0.95878 0.53595 0.0
C1648 C 0.38105 0.95249 0.51981 0.0
H1649 H 0.30405 0.99895 0.56095 0.0
H1650 H 0.32303 0.93571 0.53755 0.0
C1651 C 0.40743 0.98366 0.51964 0.0
C1652 C 0.30321 0.12226 0.76021 0.0
C1653 C 0.29717 0.10897 0.79817 0.0
H1654 H 0.34339 0.14572 0.71906 0.0
C1655 C 0.32838 0.1101 0.82436 0.0
H1656 H 0.28006 0.12123 0.73933 0.0
C1657 C 0.36508 0.12223 0.81223 0.0
C1658 C 0.37136 0.13469 0.77392 0.0
H1659 H 0.32492 0.09993 0.85388 0.0
H1660 H 0.38883 0.12118 0.83267 0.0
C1661 C 0.3396 0.13598 0.74855 0.0
C1662 C 0.17144 0.09478 1.02011 0.0
C1663 C 0.19774 0.12603 1.02125 0.0
H1664 H 0.16247 1.03377 1.03035 0.0
C1665 C 0.23478 0.11911 1.03685 0.0
H1666 H 0.14181 0.09915 1.01108 0.0
C1667 C 0.24625 0.08207 0.04814 0.0
C1668 C 0.22073 0.05087 0.04534 0.0
H1669 H 0.25561 0.14232 0.03905 0.0
H1670 H 0.27532 0.07764 0.05901 0.0
C1671 C 0.183 0.0574 1.0317 0.0
C1672 C 0.30905 0.2581 0.08495 0.0
C1673 C 0.27781 0.27557 0.10438 0.0
H1674 H 0.34504 0.20814 0.07932 0.0
C1675 C 0.2608 0.25597 0.13587 0.0
H1676 H 0.32233 0.27194 0.06009 0.0
C1677 C 0.27524 0.21976 0.14779 0.0
C1678 C 0.30607 0.20227 0.12766 0.0
H1679 H 0.2364 0.26854 0.15108 0.0
H1680 H 0.26158 0.20484 0.17175 0.0
C1681 C 0.32235 0.22164 0.09598 0.0
C1682 C 0.81876 0.3223 0.9114 0.0
C1683 C 0.81347 0.35963 0.92701 0.0
H1684 H 0.80849 0.26136 0.91781 0.0
C1685 C 0.78904 0.364 0.95934 0.0
H1686 H 0.83676 0.31801 0.88605 0.0
C1687 C 0.77313 0.33142 0.97749 0.0
C1688 C 0.78159 0.29416 0.96366 0.0
H1689 H 0.78486 0.39196 0.97266 0.0
H1690 H 0.75597 0.33518 1.00353 0.0
C1691 C 0.80316 0.28987 0.92971 0.0
C1692 C 0.98191 0.55997 0.1715 0.0
C1693 C 0.95021 0.55767 0.19731 0.0
H1694 H 0.04314 0.55042 0.16302 0.0
C1695 C 0.95663 0.54082 0.23397 0.0
H1696 H 0.97802 0.57001 0.14209 0.0
C1697 C 0.99354 0.52917 0.24546 0.0
C1698 C 1.0251 0.53296 0.22042 0.0
H1699 H 0.93316 0.53773 0.25451 0.0
H1700 H 0.99771 0.51738 0.27422 0.0
C1701 C 1.01917 0.54818 0.18317 0.0
C1702 C 0.76774 0.73534 0.41909 0.0
C1703 C 0.76895 0.70568 0.44725 0.0
H1704 H 0.77763 0.79578 0.40664 0.0
C1705 C 0.78477 0.7145 0.48376 0.0
H1706 H 0.75841 0.72934 0.38981 0.0
C1707 C 0.79625 0.75198 0.49298 0.0
C1708 C 0.79319 0.78174 0.46566 0.0
H1709 H 0.78723 0.69247 0.50584 0.0
H1710 H 0.80736 0.75784 0.52176 0.0
C1711 C 0.77939 0.77325 0.42839 0.0
C1712 C 0.11566 0.06231 0.20193 0.0
C1713 C 0.12119 1.02399 0.18955 0.0
H1714 H 0.07642 0.10432 0.22496 0.0
C1715 C 0.08922 0.99904 0.18858 0.0
H1716 H 0.13971 0.08235 0.20258 0.0
C1717 C 0.05329 1.01105 0.20291 0.0
C1718 C 0.04803 0.04895 0.2164 0.0
H1719 H 0.09255 0.96958 0.17878 0.0
H1720 H 1.02997 0.99045 0.20442 0.0
C1721 C 0.07938 0.07484 0.21469 0.0
C1722 C 0.28914 0.8591 0.61883 0.0
C1723 C 0.26373 0.85674 0.6506 0.0
H1724 H 0.32311 0.82754 0.57719 0.0
C1725 C 0.25723 0.82018 0.66761 0.0
H1726 H 0.29437 0.88639 0.60449 0.0
C1727 C 0.27287 0.78659 0.65132 0.0
C1728 C 0.2954 0.78885 0.61778 0.0
H1729 H 0.23835 0.81742 0.69253 0.0
H1730 H 0.26669 0.75877 0.66433 0.0
C1731 C 0.30494 0.82535 0.60267 0.0
C1732 C 1.03692 0.52521 0.39862 0.0
C1733 C 1.03308 0.55003 0.36687 0.0
H1734 H 1.008 0.48908 0.43978 0.0
C1735 C 0.99596 0.56122 0.3548 0.0
H1736 H 0.06535 0.5174 0.40918 0.0
C1737 C 0.96299 0.54496 0.37199 0.0
C1738 C 0.96669 0.51772 0.40209 0.0
H1739 H 0.99261 0.58059 0.33038 0.0
H1740 H 0.93517 0.55119 0.35923 0.0
C1741 C 1.00407 0.50951 0.4163 0.0
C1742 C 0.59847 0.54615 0.90872 0.0
C1743 C 0.62441 0.55725 0.87909 0.0
H1744 H 0.54111 0.52557 0.92274 0.0
C1745 C 0.61256 0.55271 0.84042 0.0
H1746 H 0.60744 0.5465 0.93875 0.0
C1747 C 0.57492 0.54152 0.83145 0.0
C1748 C 0.54845 0.53252 0.86087 0.0
H1749 H 0.63237 0.55826 0.81684 0.0
H1750 H 0.56665 0.53924 0.80126 0.0
C1751 C 0.56071 0.53376 0.89964 0.0
C1752 C 0.64354 0.79534 0.76844 0.0
C1753 C 0.6061 0.78138 0.77572 0.0
H1754 H 0.6831 0.81763 0.726 0.0
C1755 C 0.57931 0.78003 0.74548 0.0
H1756 H 0.66486 0.79592 0.79143 0.0
C1757 C 0.58924 0.79313 0.70861 0.0
C1758 C 0.62606 0.80879 0.70096 0.0
H1759 H 0.5504 0.76908 0.75062 0.0
H1760 H 0.56751 0.79195 0.68613 0.0
C1761 C 0.65364 0.80847 0.73114 0.0
C1762 C 0.48668 0.38591 1.00467 0.0
C1763 C 0.50776 0.40105 0.97364 0.0
H1764 H 0.48494 0.35534 0.05703 0.0
C1765 C 0.54842 0.40247 0.9777 0.0
H1766 H 0.45624 0.38477 1.00414 0.0
C1767 C 0.56616 0.38745 1.01163 0.0
C1768 C 0.54343 0.37027 0.04114 0.0
H1769 H 0.56646 0.41535 0.95566 0.0
H1770 H 0.59728 0.38851 1.01428 0.0
C1771 C 0.50365 0.36955 1.03648 0.0
C1772 C 0.93066 0.27579 0.28547 0.0
C1773 C 0.96509 0.29662 0.28202 0.0
H1774 H 0.88735 0.24276 0.25647 0.0
C1775 C 0.98079 0.3032 0.24507 0.0
H1776 H 0.91758 0.2713 0.31366 0.0
C1777 C 0.96382 0.28662 0.21208 0.0
C1778 C 0.93068 0.26327 0.21572 0.0
H1779 H 1.00748 0.31925 0.24219 0.0
H1780 H 0.97848 0.28954 0.18454 0.0
C1781 C 0.91336 0.25977 0.25264 0.0
C1782 C 1.00545 0.71629 0.49194 0.0
C1783 C 1.03121 0.72071 0.52328 0.0
H1784 H 0.99933 0.70428 0.43104 0.0
C1785 C 0.07072 0.71352 0.51709 0.0
H1786 H 0.97484 0.72217 0.49543 0.0
C1787 C 0.08416 0.70161 0.48088 0.0
C1788 C 0.05886 0.69875 0.44939 0.0
H1789 H 0.09147 0.71816 0.53992 0.0
H1790 H 0.11456 0.69611 0.4771 0.0
C1791 C 1.01932 0.70612 0.45513 0.0
C1792 C 0.6313 0.24628 0.84493 0.0
C1793 C 0.63203 0.27223 0.87612 0.0
H1794 H 0.61619 0.23704 0.78561 0.0
C1795 C 0.62221 0.31108 0.86951 0.0
H1796 H 0.63875 0.21637 0.84919 0.0
C1797 C 0.61152 0.32355 0.83239 0.0
C1798 C 0.60904 0.29703 0.80146 0.0
H1799 H 0.6224 0.33162 0.89322 0.0
H1800 H 0.60353 0.35361 0.82837 0.0
C1801 C 0.61894 0.25828 0.8083 0.0
C1802 C 0.0756 0.39204 0.08902 0.0
C1803 C 0.05199 0.38765 0.12186 0.0
H1804 H 0.08318 0.37913 1.02878 0.0
C1805 C 1.01435 0.37299 0.1169 0.0
H1806 H 0.10468 0.40309 0.09189 0.0
C1807 C 1.00156 0.36097 0.08043 0.0
C1808 C 1.02651 0.36229 0.04822 0.0
H1809 H 0.99514 0.36982 0.14151 0.0
H1810 H 0.97282 0.34872 0.07795 0.0
C1811 C 0.06337 0.37845 0.05282 0.0
C1812 C 0.97714 0.77158 0.33265 0.0
C1813 C 0.96317 0.78057 0.29551 0.0
H1814 H 0.97386 0.78356 0.39347 0.0
C1815 C 0.93016 0.80365 0.2919 0.0
H1816 H 1.00241 0.75336 0.33585 0.0
C1817 C 0.91295 0.81986 0.32476 0.0
C1818 C 0.92876 0.81385 0.36196 0.0
H1819 H 0.91812 0.80962 0.26356 0.0
H1820 H 0.88827 0.83879 0.32088 0.0
C1821 C 0.96026 0.78829 0.36569 0.0
C1822 C 0.51771 0.74441 0.57054 0.0
C1823 C 0.54367 0.72141 0.54936 0.0
H1824 H 0.48837 0.75291 0.6243 0.0
C1825 C 0.55768 0.68698 0.56599 0.0
H1826 H 0.50733 0.77166 0.55896 0.0
C1827 C 0.54514 0.67546 0.603 0.0
C1828 C 0.51941 0.69887 0.6242 0.0
H1829 H 0.57837 0.66917 0.55052 0.0
H1830 H 0.5565 0.6491 0.61554 0.0
C1831 C 0.50659 0.73368 0.60783 0.0
C1832 C 0.77641 0.65115 0.79855 0.0
C1833 C 0.78265 0.61473 0.7817 0.0
H1834 H 0.73465 0.69133 0.82089 0.0
C1835 C 0.751 0.5907 0.77447 0.0
H1836 H 0.80043 0.67074 0.803 0.0
C1837 C 0.71393 0.60161 0.78583 0.0
C1838 C 0.70711 0.63716 0.80458 0.0
H1839 H 0.75507 0.56311 0.76013 0.0
H1840 H 0.69062 0.58142 0.78086 0.0
C1841 C 0.73876 0.66256 0.80941 0.0
C1842 C 0.71835 0.52921 0.06906 0.0
C1843 C 0.71616 0.53288 1.02896 0.0
H1844 H 0.70239 0.49904 0.11829 0.0
C1845 C 0.69906 0.5025 1.00744 0.0
H1846 H 0.73261 0.55047 0.08702 0.0
C1847 C 0.68393 0.46954 1.02678 0.0
C1848 C 0.68538 0.46742 0.06761 0.0
H1849 H 0.69733 0.50425 0.97615 0.0
H1850 H 0.6702 0.44694 1.0101 0.0
C1851 C 0.70206 0.49827 0.08753 0.0
C1852 C 0.86083 0.48338 0.32477 0.0
C1853 C 0.87786 0.44931 0.31094 0.0
H1854 H 0.81087 0.51983 0.32609 0.0
C1855 C 0.85682 0.42579 0.28527 0.0
H1856 H 0.87727 0.50281 0.34266 0.0
C1857 C 0.81921 0.43627 0.2741 0.0
C1858 C 0.80187 0.46982 0.28932 0.0
H1859 H 0.86989 0.40021 0.27281 0.0
H1860 H 0.80389 0.41848 0.25332 0.0
C1861 C 0.82295 0.49307 0.31503 0.0
C1862 C 0.90468 0.60189 0.53403 0.0
C1863 C 0.88033 0.62354 0.55857 0.0
H1864 H 0.9135 0.548 0.50392 0.0
C1865 C 0.8457 0.60685 0.57143 0.0
H1866 H 0.93101 0.61458 0.52272 0.0
C1867 C 0.83613 0.56894 0.56159 0.0
C1868 C 0.86024 0.54714 0.53705 0.0
H1869 H 0.82574 0.62349 0.58876 0.0
H1870 H 0.80888 0.55729 0.57187 0.0
C1871 C 0.89461 0.564 0.52319 0.0
C1872 C 0.77413 0.42601 0.77594 0.0
C1873 C 0.78149 0.46265 0.7919 0.0
H1874 H 0.7312 0.38651 0.7547 0.0
C1875 C 0.75043 0.48773 0.79849 0.0
H1876 H 0.79761 0.40563 0.7718 0.0
C1877 C 0.71297 0.47757 0.78756 0.0
C1878 C 0.70506 0.44184 0.76965 0.0
H1879 H 0.75531 0.51558 0.81196 0.0
H1880 H 0.69019 0.49853 0.79197 0.0
C1881 C 0.7361 0.41543 0.76545 0.0
C1882 C 0.85842 0.49473 0.07178 0.0
C1883 C 0.85584 0.52579 0.04541 0.0
H1884 H 0.86951 0.43394 0.07954 0.0
C1885 C 0.86524 0.51898 1.00639 0.0
H1886 H 0.85082 0.49868 0.10201 0.0
C1887 C 0.87733 0.48237 0.99407 0.0
C1888 C 0.87845 0.45115 1.01997 0.0
H1889 H 0.86244 0.54174 0.98519 0.0
H1890 H 0.88442 0.47812 0.96398 0.0
C1891 C 0.86899 0.45766 0.05903 0.0
C1892 C 0.84025 0.6379 0.24875 0.0
C1893 C 0.87244 0.63812 0.27346 0.0
H1894 H 0.78078 0.62255 0.24163 0.0
C1895 C 0.86709 0.62781 0.31256 0.0
H1896 H 0.84347 0.64583 0.21863 0.0
C1897 C 0.83062 0.61645 0.32626 0.0
C1898 C 0.79887 0.61389 0.30085 0.0
H1899 H 0.89139 0.62775 0.33236 0.0
H1900 H 0.82781 0.60777 0.35632 0.0
C1901 C 0.80419 0.62498 0.26203 0.0
C1902 C 0.70058 0.61524 0.56248 0.0
C1903 C 0.68818 0.62103 0.52407 0.0
H1904 H 0.7228 0.5755 0.60464 0.0
C1905 C 0.68664 0.58896 0.49922 0.0
H1906 H 0.70187 0.63932 0.58251 0.0
C1907 C 0.70037 0.55276 0.51131 0.0
C1908 C 0.71366 0.54713 0.54929 0.0
H1909 H 0.67699 0.59248 0.46971 0.0
H1910 H 0.70165 0.52945 0.49068 0.0
C1911 C 0.71254 0.57862 0.57513 0.0
C1912 C 0.76711 0.74825 0.60119 0.0
C1913 C 0.77616 0.78514 0.61551 0.0
H1914 H 0.77971 0.68771 0.60307 0.0
C1915 C 0.80022 0.78845 0.64787 0.0
H1916 H 0.74864 0.74532 0.57604 0.0
C1917 C 0.81686 0.75545 0.66437 0.0
C1918 C 0.81034 0.71848 0.6484 0.0
H1919 H 0.80686 0.81666 0.65977 0.0
H1920 H 0.83659 0.75902 0.68846 0.0
C1921 C 0.78433 0.71517 0.61723 0.0
C1922 C 0.30271 0.84003 0.41342 0.0
C1923 C 0.30746 0.86852 0.44236 0.0
H1924 H 0.2888 0.78042 0.40093 0.0
C1925 C 0.298 0.85872 0.48076 0.0
H1926 H 0.30662 0.84708 0.38314 0.0
C1927 C 0.28808 0.82104 0.49073 0.0
C1928 C 0.28581 0.79224 0.4624 0.0
H1929 H 0.29913 0.88005 0.50356 0.0
H1930 H 0.28162 0.81442 0.52073 0.0
C1931 C 0.29201 0.80203 0.42342 0.0
C1932 C 0.48225 0.05842 0.67344 0.0
C1933 C 0.45098 0.05629 0.69973 0.0
H1934 H 0.54344 0.04939 0.66442 0.0
C1935 C 0.45794 0.04025 0.73658 0.0
H1936 H 0.47782 0.06773 0.64387 0.0
C1937 C 0.49507 1.02946 0.74799 0.0
C1938 C 0.52629 1.03339 0.72252 0.0
H1939 H 0.43465 1.0373 0.75731 0.0
H1940 H 0.49949 1.01797 0.77688 0.0
C1941 C 0.51976 0.04741 0.68492 0.0
C1942 C 0.25536 0.27137 0.94987 0.0
C1943 C 0.29322 0.27732 0.96303 0.0
H1944 H 0.21429 0.23104 0.9272 0.0
C1945 C 0.31953 0.24619 0.96206 0.0
H1946 H 0.23441 0.29446 0.95099 0.0
C1947 C 0.30746 0.20949 0.95041 0.0
C1948 C 0.26916 0.2033 0.9384 0.0
H1949 H 0.34903 0.24966 0.97213 0.0
H1950 H 0.32782 0.18568 0.95165 0.0
C1951 C 0.24378 0.23496 0.93666 0.0
C1952 C 0.55368 0.50735 0.70358 0.0
C1953 C 0.5485 0.54556 0.71606 0.0
H1954 H 0.59298 0.4651 0.68093 0.0
C1955 C 0.58014 0.57112 0.71451 0.0
H1956 H 0.53015 0.48703 0.70515 0.0
C1957 C 0.61663 0.55793 0.70303 0.0
C1958 C 0.62195 0.51932 0.69152 0.0
H1959 H 0.57722 0.60082 0.72411 0.0
H1960 H 0.64092 0.57767 0.70393 0.0
C1961 C 0.58975 0.49472 0.69024 0.0
C1962 C 0.75704 0.30295 0.11869 0.0
C1963 C 0.79605 0.29162 0.12064 0.0
H1964 H 0.71549 0.34701 0.13032 0.0
C1965 C 0.82291 0.31718 0.13748 0.0
H1966 H 0.73567 0.28479 0.10486 0.0
C1967 C 0.8113 0.354 0.1498 0.0
C1968 C 0.7724 0.36526 0.14694 0.0
H1969 H 0.85314 0.30959 0.13936 0.0
H1970 H 0.83275 0.37413 0.16058 0.0
C1971 C 0.74533 0.3389 0.13271 0.0
C1972 C 0.50019 0.0555 0.85782 0.0
C1973 C 0.53627 0.04564 0.87364 0.0
H1974 H 0.43946 0.04444 0.85729 0.0
C1975 C 0.53782 1.02175 0.90628 0.0
H1976 H 0.49856 0.074 0.83251 0.0
C1977 C 0.50384 1.00564 0.9213 0.0
C1978 C 0.46772 1.01291 0.90373 0.0
H1979 H 0.5654 1.01472 0.9194 0.0
H1980 H 0.50599 0.98576 0.94546 0.0
C1981 C 0.46618 0.03914 0.87259 0.0
C1982 C 0.08068 1.02891 0.33124 0.0
C1983 C 0.04947 1.03196 0.35683 0.0
H1984 H 0.14077 0.03801 0.3217 0.0
C1985 C 0.05575 0.0465 0.3943 0.0
H1986 H 0.07643 1.01778 0.30217 0.0
C1987 C 0.09312 0.0581 0.40577 0.0
C1988 C 0.12447 0.05614 0.37954 0.0
H1989 H 1.03201 0.04832 0.41475 0.0
H1990 H 0.09743 0.06766 0.43528 0.0
C1991 C 0.1176 0.04034 0.34259 0.0
loop_
_geom_bond_atom_site_label_1
_geom_bond_atom_site_label_2
_geom_bond_distance
_geom_bond_site_symmetry_2
_ccdc_geom_bond_type
Co0 N1 2.034 . S
Co0 O15 2.262 . S
Co0 O19 1.958 . S
Co0 O23 1.950 . S
Co0 O24 2.057 . S
N1 Co0 2.034 . S
N1 C2 1.366 . S
N1 C4 1.332 . S
C2 N1 1.366 . S
C2 C5 1.377 . S
C2 H34 0.931 . S
N3 C4 1.346 . S
N3 C5 1.337 . S
C4 N1 1.332 . S
C4 N3 1.346 . S
C4 C38 1.361 . S
C5 C2 1.377 . S
C5 N3 1.337 . S
C5 H41 0.930 . S
Co6 N7 2.034 . S
Co6 O20 1.950 . S
Co6 O21 2.262 . S
Co6 O22 1.958 . S
Co6 O26 2.057 . S
N7 Co6 2.034 . S
N7 C10 1.366 . S
N7 C11 1.332 . S
N8 C9 1.337 . S
N8 C11 1.346 . S
C9 N8 1.337 . S
C9 C10 1.377 . S
C9 H42 0.930 . S
C10 N7 1.366 . S
C10 C9 1.377 . S
C10 H14 0.931 . S
C11 N7 1.332 . S
C11 N8 1.346 . S
C11 C28 1.361 . S
Co12 O15 2.096 1_455 S
Co12 O16 2.070 . S
Co12 O17 2.061 1_455 S
Co12 O18 2.037 1_455 S
Co12 O21 2.098 . S
Co12 O25 2.046 . S
C13 O21 1.253 . S
C13 O26 1.264 . S
H14 C10 0.931 . S
O15 Co0 2.262 . S
O15 Co12 2.096 1_655 S
O15 C39 1.251 1_655 S
O16 Co12 2.070 . S
O16 C32 1.221 . S
O17 Co12 2.061 1_655 S
O17 C27 1.221 . S
O18 Co12 2.037 1_655 S
O18 C33 1.237 . S
O19 Co0 1.958 . S
O19 C33 1.278 . S
O20 Co6 1.950 . S
O20 C32 1.277 . S
O21 Co6 2.262 . S
O21 Co12 2.098 . S
O21 C13 1.253 . S
O22 Co6 1.958 . S
O22 C40 1.278 . S
O23 Co0 1.950 . S
O23 C27 1.277 . S
O24 Co0 2.057 . S
O24 C39 1.254 1_655 S
O25 Co12 2.046 . S
O25 C40 1.237 . S
O26 Co6 2.057 . S
O26 C13 1.264 . S
C27 O17 1.221 . S
C27 O23 1.277 . S
C28 C11 1.361 . S
C28 H29 0.960 . S
C28 H30 0.961 . S
C28 H31 0.961 . S
H29 C28 0.960 . S
H30 C28 0.961 . S
H31 C28 0.961 . S
C32 O16 1.221 . S
C32 O20 1.277 . S
C33 O18 1.237 . S
C33 O19 1.278 . S
H34 C2 0.931 . S
H35 C38 0.961 . S
H36 C38 0.961 . S
H37 C38 0.960 . S
C38 C4 1.361 . S
C38 H35 0.961 . S
C38 H36 0.961 . S
C38 H37 0.960 . S
C39 O15 1.251 1_455 S
C39 O24 1.254 1_455 S
C40 O22 1.278 . S
C40 O25 1.237 . S
H41 C5 0.930 . S
H42 C9 0.930 . S
Co43 N44 2.034 . S
Co43 O58 2.262 . S
Co43 O62 1.958 . S
Co43 O66 1.950 . S
Co43 O67 2.057 . S
N44 Co43 2.034 . S
N44 C45 1.366 . S
N44 C47 1.332 . S
C45 N44 1.366 . S
C45 C48 1.377 . S
C45 H77 0.931 . S
N46 C47 1.346 . S
N46 C48 1.337 . S
C47 N44 1.332 . S
C47 N46 1.346 . S
C47 C81 1.361 . S
C48 C45 1.377 . S
C48 N46 1.337 . S
C48 H84 0.930 . S
Co49 N50 2.034 . S
Co49 O63 1.950 . S
Co49 O64 2.262 . S
Co49 O65 1.958 . S
Co49 O69 2.057 . S
N50 Co49 2.034 . S
N50 C53 1.366 . S
N50 C54 1.332 . S
N51 C52 1.337 . S
N51 C54 1.346 . S
C52 N51 1.337 . S
C52 C53 1.377 . S
C52 H85 0.930 . S
C53 N50 1.366 . S
C53 C52 1.377 . S
C53 H57 0.931 . S
C54 N50 1.332 . S
C54 N51 1.346 . S
C54 C71 1.361 . S
Co55 O58 2.091 1_455 S
Co55 O59 2.065 1_455 S
Co55 O60 2.066 . S
Co55 O61 2.042 . S
Co55 O64 2.103 . S
Co55 O68 2.041 1_455 S
C56 O64 1.253 . S
C56 O69 1.263 . S
H57 C53 0.931 . S
O58 Co43 2.262 . S
O58 Co55 2.091 1_655 S
O58 C82 1.253 . S
O59 Co55 2.065 1_655 S
O59 C75 1.221 1_655 S
O60 Co55 2.066 . S
O60 C70 1.221 1_455 S
O61 Co55 2.042 . S
O61 C76 1.237 1_455 S
O62 Co43 1.958 . S
O62 C76 1.278 . S
O63 Co49 1.950 . S
O63 C75 1.277 . S
O64 Co49 2.262 . S
O64 Co55 2.103 . S
O64 C56 1.253 . S
O65 Co49 1.958 . S
O65 C83 1.278 . S
O66 Co43 1.950 . S
O66 C70 1.277 . S
O67 Co43 2.057 . S
O67 C82 1.263 . S
O68 Co55 2.041 1_655 S
O68 C83 1.237 1_655 S
O69 Co49 2.057 . S
O69 C56 1.263 . S
C70 O60 1.221 1_655 S
C70 O66 1.277 . S
C71 C54 1.361 . S
C71 H72 0.960 . S
C71 H73 0.961 . S
C71 H74 0.961 . S
H72 C71 0.960 . S
H73 C71 0.961 . S
H74 C71 0.961 . S
C75 O59 1.221 1_455 S
C75 O63 1.277 . S
C76 O61 1.237 1_655 S
C76 O62 1.278 . S
H77 C45 0.931 . S
H78 C81 0.961 . S
H79 C81 0.961 . S
H80 C81 0.960 . S
C81 C47 1.361 . S
C81 H78 0.961 . S
C81 H79 0.961 . S
C81 H80 0.960 . S
C82 O58 1.253 . S
C82 O67 1.263 . S
C83 O65 1.278 . S
C83 O68 1.237 1_455 S
H84 C48 0.930 . S
H85 C52 0.930 . S
Co86 N87 2.034 . S
Co86 O101 2.262 . S
Co86 O105 1.958 . S
Co86 O109 1.950 . S
Co86 O110 2.057 . S
N87 Co86 2.034 . S
N87 C88 1.366 . S
N87 C90 1.332 . S
C88 N87 1.366 . S
C88 C91 1.377 . S
C88 H120 0.931 . S
N89 C90 1.346 . S
N89 C91 1.337 . S
C90 N87 1.332 . S
C90 N89 1.346 . S
C90 C124 1.361 . S
C91 C88 1.377 . S
C91 N89 1.337 . S
C91 H127 0.930 . S
Co92 N93 2.034 . S
Co92 O106 1.950 . S
Co92 O107 2.262 . S
Co92 O108 1.958 . S
Co92 O112 2.057 . S
N93 Co92 2.034 . S
N93 C96 1.366 . S
N93 C97 1.332 . S
N94 C95 1.337 . S
N94 C97 1.346 . S
C95 N94 1.337 . S
C95 C96 1.377 . S
C95 H128 0.930 . S
C96 N93 1.366 . S
C96 C95 1.377 . S
C96 H100 0.931 . S
C97 N93 1.332 . S
C97 N94 1.346 . S
C97 C114 1.361 . S
Co98 O101 2.097 . S
Co98 O102 2.065 . S
Co98 O103 2.065 . S
Co98 O104 2.042 . S
Co98 O107 2.097 . S
Co98 O111 2.042 . S
C99 O107 1.253 . S
C99 O112 1.263 . S
H100 C96 0.931 . S
O101 Co86 2.262 . S
O101 Co98 2.097 . S
O101 C125 1.253 . S
O102 Co98 2.065 . S
O102 C118 1.221 . S
O103 Co98 2.065 . S
O103 C113 1.221 . S
O104 Co98 2.042 . S
O104 C119 1.237 . S
O105 Co86 1.958 . S
O105 C119 1.278 . S
O106 Co92 1.950 . S
O106 C118 1.277 . S
O107 Co92 2.262 . S
O107 Co98 2.097 . S
O107 C99 1.253 . S
O108 Co92 1.958 . S
O108 C126 1.278 . S
O109 Co86 1.950 . S
O109 C113 1.277 . S
O110 Co86 2.057 . S
O110 C125 1.263 . S
O111 Co98 2.042 . S
O111 C126 1.237 . S
O112 Co92 2.057 . S
O112 C99 1.263 . S
C113 O103 1.221 . S
C113 O109 1.277 . S
C114 C97 1.361 . S
C114 H115 0.960 . S
C114 H116 0.961 . S
C114 H117 0.961 . S
H115 C114 0.960 . S
H116 C114 0.961 . S
H117 C114 0.961 . S
C118 O102 1.221 . S
C118 O106 1.277 . S
C119 O104 1.237 . S
C119 O105 1.278 . S
H120 C88 0.931 . S
H121 C124 0.961 . S
H122 C124 0.961 . S
H123 C124 0.960 . S
C124 C90 1.361 . S
C124 H121 0.961 . S
C124 H122 0.961 . S
C124 H123 0.960 . S
C125 O101 1.253 . S
C125 O110 1.263 . S
C126 O108 1.278 . S
C126 O111 1.237 . S
H127 C91 0.930 . S
H128 C95 0.930 . S
Co129 N130 2.034 . S
Co129 O144 2.262 . S
Co129 O148 1.958 . S
Co129 O152 1.950 . S
Co129 O153 2.057 . S
N130 Co129 2.034 . S
N130 C131 1.366 . S
N130 C133 1.332 . S
C131 N130 1.366 . S
C131 C134 1.377 . S
C131 H163 0.931 . S
N132 C133 1.346 . S
N132 C134 1.337 . S
C133 N130 1.332 . S
C133 N132 1.346 . S
C133 C167 1.361 . S
C134 C131 1.377 . S
C134 N132 1.337 . S
C134 H170 0.930 . S
Co135 N136 2.034 . S
Co135 O149 1.950 . S
Co135 O150 2.262 . S
Co135 O151 1.958 . S
Co135 O155 2.057 . S
N136 Co135 2.034 . S
N136 C139 1.366 . S
N136 C140 1.332 . S
N137 C138 1.337 . S
N137 C140 1.346 . S
C138 N137 1.337 . S
C138 C139 1.377 . S
C138 H171 0.930 . S
C139 N136 1.366 . S
C139 C138 1.377 . S
C139 H143 0.931 . S
C140 N136 1.332 . S
C140 N137 1.346 . S
C140 C157 1.361 . S
Co141 O144 2.097 . S
Co141 O145 2.065 . S
Co141 O146 2.065 . S
Co141 O147 2.042 . S
Co141 O150 2.097 . S
Co141 O154 2.042 . S
C142 O150 1.253 . S
C142 O155 1.263 . S
H143 C139 0.931 . S
O144 Co129 2.262 . S
O144 Co141 2.097 . S
O144 C168 1.253 . S
O145 Co141 2.065 . S
O145 C161 1.221 . S
O146 Co141 2.065 . S
O146 C156 1.221 . S
O147 Co141 2.042 . S
O147 C162 1.237 . S
O148 Co129 1.958 . S
O148 C162 1.278 . S
O149 Co135 1.950 . S
O149 C161 1.277 . S
O150 Co135 2.262 . S
O150 Co141 2.097 . S
O150 C142 1.253 . S
O151 Co135 1.958 . S
O151 C169 1.278 . S
O152 Co129 1.950 . S
O152 C156 1.277 . S
O153 Co129 2.057 . S
O153 C168 1.263 . S
O154 Co141 2.042 . S
O154 C169 1.237 . S
O155 Co135 2.057 . S
O155 C142 1.263 . S
C156 O146 1.221 . S
C156 O152 1.277 . S
C157 C140 1.361 . S
C157 H158 0.960 . S
C157 H159 0.961 . S
C157 H160 0.961 . S
H158 C157 0.960 . S
H159 C157 0.961 . S
H160 C157 0.961 . S
C161 O145 1.221 . S
C161 O149 1.277 . S
C162 O147 1.237 . S
C162 O148 1.278 . S
H163 C131 0.931 . S
H164 C167 0.961 . S
H165 C167 0.961 . S
H166 C167 0.960 . S
C167 C133 1.361 . S
C167 H164 0.961 . S
C167 H165 0.961 . S
C167 H166 0.960 . S
C168 O144 1.253 . S
C168 O153 1.263 . S
C169 O151 1.278 . S
C169 O154 1.237 . S
H170 C134 0.930 . S
H171 C138 0.930 . S
Co172 N173 2.034 . S
Co172 O187 2.262 . S
Co172 O191 1.958 . S
Co172 O195 1.950 . S
Co172 O196 2.057 . S
N173 Co172 2.034 . S
N173 C174 1.366 . S
N173 C176 1.332 . S
C174 N173 1.366 . S
C174 C177 1.377 . S
C174 H206 0.931 . S
N175 C176 1.346 . S
N175 C177 1.337 . S
C176 N173 1.332 . S
C176 N175 1.346 . S
C176 C210 1.361 . S
C177 C174 1.377 . S
C177 N175 1.337 . S
C177 H213 0.930 . S
Co178 N179 2.034 . S
Co178 O192 1.950 . S
Co178 O193 2.262 . S
Co178 O194 1.958 . S
Co178 O198 2.057 . S
N179 Co178 2.034 . S
N179 C182 1.366 . S
N179 C183 1.332 . S
N180 C181 1.337 . S
N180 C183 1.346 . S
C181 N180 1.337 . S
C181 C182 1.377 . S
C181 H214 0.930 . S
C182 N179 1.366 . S
C182 C181 1.377 . S
C182 H186 0.931 . S
C183 N179 1.332 . S
C183 N180 1.346 . S
C183 C200 1.361 . S
Co184 O187 2.098 . S
Co184 O188 2.061 1_455 S
Co184 O189 2.070 . S
Co184 O190 2.046 . S
Co184 O193 2.096 1_455 S
Co184 O197 2.037 1_455 S
C185 O193 1.251 1_455 S
C185 O198 1.255 1_455 S
H186 C182 0.931 . S
O187 Co172 2.262 . S
O187 Co184 2.098 . S
O187 C211 1.253 . S
O188 Co184 2.061 1_655 S
O188 C204 1.221 . S
O189 Co184 2.070 . S
O189 C199 1.221 . S
O190 Co184 2.046 . S
O190 C205 1.237 . S
O191 Co172 1.958 . S
O191 C205 1.278 . S
O192 Co178 1.950 . S
O192 C204 1.277 . S
O193 Co178 2.262 . S
O193 Co184 2.096 1_655 S
O193 C185 1.251 1_655 S
O194 Co178 1.958 . S
O194 C212 1.278 . S
O195 Co172 1.950 . S
O195 C199 1.277 . S
O196 Co172 2.057 . S
O196 C211 1.264 . S
O197 Co184 2.037 1_655 S
O197 C212 1.237 . S
O198 Co178 2.057 . S
O198 C185 1.255 1_655 S
C199 O189 1.221 . S
C199 O195 1.277 . S
C200 C183 1.361 . S
C200 H201 0.960 . S
C200 H202 0.961 . S
C200 H203 0.961 . S
H201 C200 0.960 . S
H202 C200 0.961 . S
H203 C200 0.961 . S
C204 O188 1.221 . S
C204 O192 1.277 . S
C205 O190 1.237 . S
C205 O191 1.278 . S
H206 C174 0.931 . S
H207 C210 0.961 . S
H208 C210 0.961 . S
H209 C210 0.960 . S
C210 C176 1.361 . S
C210 H207 0.961 . S
C210 H208 0.961 . S
C210 H209 0.960 . S
C211 O187 1.253 . S
C211 O196 1.264 . S
C212 O194 1.278 . S
C212 O197 1.237 . S
H213 C177 0.930 . S
H214 C181 0.930 . S
Co215 N216 2.034 . S
Co215 O230 2.262 . S
Co215 O234 1.958 . S
Co215 O238 1.950 . S
Co215 O239 2.057 . S
N216 Co215 2.034 . S
N216 C217 1.366 . S
N216 C219 1.332 . S
C217 N216 1.366 . S
C217 C220 1.377 . S
C217 H249 0.931 . S
N218 C219 1.346 . S
N218 C220 1.337 . S
C219 N216 1.332 . S
C219 N218 1.346 . S
C219 C253 1.361 . S
C220 C217 1.377 . S
C220 N218 1.337 . S
C220 H256 0.930 . S
Co221 N222 2.034 . S
Co221 O235 1.950 . S
Co221 O236 2.262 . S
Co221 O237 1.958 . S
Co221 O241 2.057 . S
N222 Co221 2.034 . S
N222 C225 1.366 . S
N222 C226 1.332 . S
N223 C224 1.337 . S
N223 C226 1.346 . S
C224 N223 1.337 . S
C224 C225 1.377 . S
C224 H257 0.930 . S
C225 N222 1.366 . S
C225 C224 1.377 . S
C225 H229 0.931 . S
C226 N222 1.332 . S
C226 N223 1.346 . S
C226 C243 1.361 . S
Co227 O230 2.097 . S
Co227 O231 2.065 . S
Co227 O232 2.065 . S
Co227 O233 2.042 . S
Co227 O236 2.097 . S
Co227 O240 2.042 . S
C228 O236 1.253 . S
C228 O241 1.263 . S
H229 C225 0.931 . S
O230 Co215 2.262 . S
O230 Co227 2.097 . S
O230 C254 1.253 . S
O231 Co227 2.065 . S
O231 C247 1.221 . S
O232 Co227 2.065 . S
O232 C242 1.221 . S
O233 Co227 2.042 . S
O233 C248 1.237 . S
O234 Co215 1.958 . S
O234 C248 1.278 . S
O235 Co221 1.950 . S
O235 C247 1.277 . S
O236 Co221 2.262 . S
O236 Co227 2.097 . S
O236 C228 1.253 . S
O237 Co221 1.958 . S
O237 C255 1.278 . S
O238 Co215 1.950 . S
O238 C242 1.277 . S
O239 Co215 2.057 . S
O239 C254 1.263 . S
O240 Co227 2.042 . S
O240 C255 1.237 . S
O241 Co221 2.057 . S
O241 C228 1.263 . S
C242 O232 1.221 . S
C242 O238 1.277 . S
C243 C226 1.361 . S
C243 H244 0.960 . S
C243 H245 0.961 . S
C243 H246 0.961 . S
H244 C243 0.960 . S
H245 C243 0.961 . S
H246 C243 0.961 . S
C247 O231 1.221 . S
C247 O235 1.277 . S
C248 O233 1.237 . S
C248 O234 1.278 . S
H249 C217 0.931 . S
H250 C253 0.961 . S
H251 C253 0.961 . S
H252 C253 0.960 . S
C253 C219 1.361 . S
C253 H250 0.961 . S
C253 H251 0.961 . S
C253 H252 0.960 . S
C254 O230 1.253 . S
C254 O239 1.263 . S
C255 O237 1.278 . S
C255 O240 1.237 . S
H256 C220 0.930 . S
H257 C224 0.930 . S
Co258 N259 2.034 . S
Co258 O273 2.262 . S
Co258 O277 1.958 . S
Co258 O281 1.950 . S
Co258 O282 2.057 . S
N259 Co258 2.034 . S
N259 C260 1.366 . S
N259 C262 1.332 . S
C260 N259 1.366 . S
C260 C263 1.377 . S
C260 H292 0.931 . S
N261 C262 1.346 . S
N261 C263 1.337 . S
C262 N259 1.332 . S
C262 N261 1.346 . S
C262 C296 1.361 . S
C263 C260 1.377 . S
C263 N261 1.337 . S
C263 H299 0.930 . S
Co264 N265 2.034 . S
Co264 O278 1.950 . S
Co264 O279 2.262 . S
Co264 O280 1.958 . S
Co264 O284 2.057 . S
N265 Co264 2.034 . S
N265 C268 1.366 . S
N265 C269 1.332 . S
N266 C267 1.337 . S
N266 C269 1.346 . S
C267 N266 1.337 . S
C267 C268 1.377 . S
C267 H300 0.930 . S
C268 N265 1.366 . S
C268 C267 1.377 . S
C268 H272 0.931 . S
C269 N265 1.332 . S
C269 N266 1.346 . S
C269 C286 1.361 . S
Co270 O273 2.097 . S
Co270 O274 2.065 . S
Co270 O275 2.065 . S
Co270 O276 2.042 . S
Co270 O279 2.097 . S
Co270 O283 2.042 . S
C271 O279 1.253 . S
C271 O284 1.263 . S
H272 C268 0.931 . S
O273 Co258 2.262 . S
O273 Co270 2.097 . S
O273 C297 1.253 . S
O274 Co270 2.065 . S
O274 C290 1.221 . S
O275 Co270 2.065 . S
O275 C285 1.221 . S
O276 Co270 2.042 . S
O276 C291 1.237 . S
O277 Co258 1.958 . S
O277 C291 1.278 . S
O278 Co264 1.950 . S
O278 C290 1.277 . S
O279 Co264 2.262 . S
O279 Co270 2.097 . S
O279 C271 1.253 . S
O280 Co264 1.958 . S
O280 C298 1.278 . S
O281 Co258 1.950 . S
O281 C285 1.277 . S
O282 Co258 2.057 . S
O282 C297 1.263 . S
O283 Co270 2.042 . S
O283 C298 1.237 . S
O284 Co264 2.057 . S
O284 C271 1.263 . S
C285 O275 1.221 . S
C285 O281 1.277 . S
C286 C269 1.361 . S
C286 H287 0.960 . S
C286 H288 0.961 . S
C286 H289 0.961 . S
H287 C286 0.960 . S
H288 C286 0.961 . S
H289 C286 0.961 . S
C290 O274 1.221 . S
C290 O278 1.277 . S
C291 O276 1.237 . S
C291 O277 1.278 . S
H292 C260 0.931 . S
H293 C296 0.961 . S
H294 C296 0.961 . S
H295 C296 0.960 . S
C296 C262 1.361 . S
C296 H293 0.961 . S
C296 H294 0.961 . S
C296 H295 0.960 . S
C297 O273 1.253 . S
C297 O282 1.263 . S
C298 O280 1.278 . S
C298 O283 1.237 . S
H299 C263 0.930 . S
H300 C267 0.930 . S
Co301 N302 2.034 . S
Co301 O316 2.262 . S
Co301 O320 1.958 . S
Co301 O324 1.950 . S
Co301 O325 2.057 . S
N302 Co301 2.034 . S
N302 C303 1.366 . S
N302 C305 1.332 . S
C303 N302 1.366 . S
C303 C306 1.377 . S
C303 H335 0.931 . S
N304 C305 1.346 . S
N304 C306 1.337 . S
C305 N302 1.332 . S
C305 N304 1.346 . S
C305 C339 1.361 . S
C306 C303 1.377 . S
C306 N304 1.337 . S
C306 H342 0.930 . S
Co307 N308 2.034 . S
Co307 O321 1.950 . S
Co307 O322 2.262 . S
Co307 O323 1.958 . S
Co307 O327 2.057 . S
N308 Co307 2.034 . S
N308 C311 1.366 . S
N308 C312 1.332 . S
N309 C310 1.337 . S
N309 C312 1.346 . S
C310 N309 1.337 . S
C310 C311 1.377 . S
C310 H343 0.930 . S
C311 N308 1.366 . S
C311 C310 1.377 . S
C311 H315 0.931 . S
C312 N308 1.332 . S
C312 N309 1.346 . S
C312 C329 1.361 . S
Co313 O316 2.091 1_455 S
Co313 O317 2.065 1_455 S
Co313 O318 2.066 . S
Co313 O319 2.042 . S
Co313 O322 2.103 . S
Co313 O326 2.041 1_455 S
C314 O322 1.253 . S
C314 O327 1.263 . S
H315 C311 0.931 . S
O316 Co301 2.262 . S
O316 Co313 2.091 1_655 S
O316 C340 1.253 . S
O317 Co313 2.065 1_655 S
O317 C333 1.221 1_655 S
O318 Co313 2.066 . S
O318 C328 1.221 1_455 S
O319 Co313 2.042 . S
O319 C334 1.237 1_455 S
O320 Co301 1.958 . S
O320 C334 1.278 . S
O321 Co307 1.950 . S
O321 C333 1.277 . S
O322 Co307 2.262 . S
O322 Co313 2.103 . S
O322 C314 1.253 . S
O323 Co307 1.958 . S
O323 C341 1.278 . S
O324 Co301 1.950 . S
O324 C328 1.277 . S
O325 Co301 2.057 . S
O325 C340 1.263 . S
O326 Co313 2.041 1_655 S
O326 C341 1.237 1_655 S
O327 Co307 2.057 . S
O327 C314 1.263 . S
C328 O318 1.221 1_655 S
C328 O324 1.277 . S
C329 C312 1.361 . S
C329 H330 0.960 . S
C329 H331 0.961 . S
C329 H332 0.961 . S
H330 C329 0.960 . S
H331 C329 0.961 . S
H332 C329 0.961 . S
C333 O317 1.221 1_455 S
C333 O321 1.277 . S
C334 O319 1.237 1_655 S
C334 O320 1.278 . S
H335 C303 0.931 . S
H336 C339 0.961 . S
H337 C339 0.961 . S
H338 C339 0.960 . S
C339 C305 1.361 . S
C339 H336 0.961 . S
C339 H337 0.961 . S
C339 H338 0.960 . S
C340 O316 1.253 . S
C340 O325 1.263 . S
C341 O323 1.278 . S
C341 O326 1.237 1_455 S
H342 C306 0.930 . S
H343 C310 0.930 . S
Co344 N345 2.034 . S
Co344 O359 2.262 . S
Co344 O363 1.958 . S
Co344 O367 1.950 . S
Co344 O368 2.057 . S
N345 Co344 2.034 . S
N345 C346 1.366 . S
N345 C348 1.332 . S
C346 N345 1.366 . S
C346 C349 1.377 . S
C346 H378 0.931 . S
N347 C348 1.346 . S
N347 C349 1.337 . S
C348 N345 1.332 . S
C348 N347 1.346 . S
C348 C382 1.361 . S
C349 C346 1.377 . S
C349 N347 1.337 . S
C349 H385 0.930 . S
Co350 N351 2.034 . S
Co350 O364 1.950 . S
Co350 O365 2.262 . S
Co350 O366 1.958 . S
Co350 O370 2.057 . S
N351 Co350 2.034 . S
N351 C354 1.366 . S
N351 C355 1.332 . S
N352 C353 1.337 . S
N352 C355 1.346 . S
C353 N352 1.337 . S
C353 C354 1.377 . S
C353 H386 0.930 . S
C354 N351 1.366 . S
C354 C353 1.377 . S
C354 H358 0.931 . S
C355 N351 1.332 . S
C355 N352 1.346 . S
C355 C372 1.361 . S
Co356 O359 2.096 1_545 S
Co356 O360 2.070 . S
Co356 O361 2.061 1_545 S
Co356 O362 2.037 1_545 S
Co356 O365 2.098 . S
Co356 O369 2.046 . S
C357 O365 1.253 . S
C357 O370 1.264 . S
H358 C354 0.931 . S
O359 Co344 2.262 . S
O359 Co356 2.096 1_565 S
O359 C383 1.251 1_565 S
O360 Co356 2.070 . S
O360 C376 1.221 . S
O361 Co356 2.061 1_565 S
O361 C371 1.221 . S
O362 Co356 2.037 1_565 S
O362 C377 1.237 . S
O363 Co344 1.958 . S
O363 C377 1.278 . S
O364 Co350 1.950 . S
O364 C376 1.277 . S
O365 Co350 2.262 . S
O365 Co356 2.098 . S
O365 C357 1.253 . S
O366 Co350 1.958 . S
O366 C384 1.278 . S
O367 Co344 1.950 . S
O367 C371 1.277 . S
O368 Co344 2.057 . S
O368 C383 1.254 1_565 S
O369 Co356 2.046 . S
O369 C384 1.237 . S
O370 Co350 2.057 . S
O370 C357 1.264 . S
C371 O361 1.221 . S
C371 O367 1.277 . S
C372 C355 1.361 . S
C372 H373 0.960 . S
C372 H374 0.961 . S
C372 H375 0.961 . S
H373 C372 0.960 . S
H374 C372 0.961 . S
H375 C372 0.961 . S
C376 O360 1.221 . S
C376 O364 1.277 . S
C377 O362 1.237 . S
C377 O363 1.278 . S
H378 C346 0.931 . S
H379 C382 0.961 . S
H380 C382 0.961 . S
H381 C382 0.960 . S
C382 C348 1.361 . S
C382 H379 0.961 . S
C382 H380 0.961 . S
C382 H381 0.960 . S
C383 O359 1.251 1_545 S
C383 O368 1.254 1_545 S
C384 O366 1.278 . S
C384 O369 1.237 . S
H385 C349 0.930 . S
H386 C353 0.930 . S
Co387 N388 2.034 . S
Co387 O402 2.262 . S
Co387 O406 1.958 . S
Co387 O410 1.950 . S
Co387 O411 2.057 . S
N388 Co387 2.034 . S
N388 C389 1.366 . S
N388 C391 1.332 . S
C389 N388 1.366 . S
C389 C392 1.377 . S
C389 H421 0.931 . S
N390 C391 1.346 . S
N390 C392 1.337 . S
C391 N388 1.332 . S
C391 N390 1.346 . S
C391 C425 1.361 . S
C392 C389 1.377 . S
C392 N390 1.337 . S
C392 H428 0.930 . S
Co393 N394 2.034 . S
Co393 O407 1.950 . S
Co393 O408 2.262 . S
Co393 O409 1.958 . S
Co393 O413 2.057 . S
N394 Co393 2.034 . S
N394 C397 1.366 . S
N394 C398 1.332 . S
N395 C396 1.337 . S
N395 C398 1.346 . S
C396 N395 1.337 . S
C396 C397 1.377 . S
C396 H429 0.930 . S
C397 N394 1.366 . S
C397 C396 1.377 . S
C397 H401 0.931 . S
C398 N394 1.332 . S
C398 N395 1.346 . S
C398 C415 1.361 . S
Co399 O402 2.097 . S
Co399 O403 2.065 . S
Co399 O404 2.065 . S
Co399 O405 2.042 . S
Co399 O408 2.097 . S
Co399 O412 2.042 . S
C400 O408 1.253 . S
C400 O413 1.263 . S
H401 C397 0.931 . S
O402 Co387 2.262 . S
O402 Co399 2.097 . S
O402 C426 1.253 . S
O403 Co399 2.065 . S
O403 C419 1.221 . S
O404 Co399 2.065 . S
O404 C414 1.221 . S
O405 Co399 2.042 . S
O405 C420 1.237 . S
O406 Co387 1.958 . S
O406 C420 1.278 . S
O407 Co393 1.950 . S
O407 C419 1.277 . S
O408 Co393 2.262 . S
O408 Co399 2.097 . S
O408 C400 1.253 . S
O409 Co393 1.958 . S
O409 C427 1.278 . S
O410 Co387 1.950 . S
O410 C414 1.277 . S
O411 Co387 2.057 . S
O411 C426 1.263 . S
O412 Co399 2.042 . S
O412 C427 1.237 . S
O413 Co393 2.057 . S
O413 C400 1.263 . S
C414 O404 1.221 . S
C414 O410 1.277 . S
C415 C398 1.361 . S
C415 H416 0.960 . S
C415 H417 0.961 . S
C415 H418 0.961 . S
H416 C415 0.960 . S
H417 C415 0.961 . S
H418 C415 0.961 . S
C419 O403 1.221 . S
C419 O407 1.277 . S
C420 O405 1.237 . S
C420 O406 1.278 . S
H421 C389 0.931 . S
H422 C425 0.961 . S
H423 C425 0.961 . S
H424 C425 0.960 . S
C425 C391 1.361 . S
C425 H422 0.961 . S
C425 H423 0.961 . S
C425 H424 0.960 . S
C426 O402 1.253 . S
C426 O411 1.263 . S
C427 O409 1.278 . S
C427 O412 1.237 . S
H428 C392 0.930 . S
H429 C396 0.930 . S
Co430 N431 2.034 . S
Co430 O445 2.262 . S
Co430 O449 1.958 . S
Co430 O453 1.950 . S
Co430 O454 2.057 . S
N431 Co430 2.034 . S
N431 C432 1.366 . S
N431 C434 1.332 . S
C432 N431 1.366 . S
C432 C435 1.377 . S
C432 H464 0.931 . S
N433 C434 1.346 . S
N433 C435 1.337 . S
C434 N431 1.332 . S
C434 N433 1.346 . S
C434 C468 1.361 . S
C435 C432 1.377 . S
C435 N433 1.337 . S
C435 H471 0.930 . S
Co436 N437 2.034 . S
Co436 O450 1.950 . S
Co436 O451 2.262 . S
Co436 O452 1.958 . S
Co436 O456 2.057 . S
N437 Co436 2.034 . S
N437 C440 1.366 . S
N437 C441 1.332 . S
N438 C439 1.337 . S
N438 C441 1.346 . S
C439 N438 1.337 . S
C439 C440 1.377 . S
C439 H472 0.930 . S
C440 N437 1.366 . S
C440 C439 1.377 . S
C440 H444 0.931 . S
C441 N437 1.332 . S
C441 N438 1.346 . S
C441 C458 1.361 . S
Co442 O445 2.096 1_545 S
Co442 O446 2.070 . S
Co442 O447 2.061 1_545 S
Co442 O448 2.037 1_545 S
Co442 O451 2.098 . S
Co442 O455 2.046 . S
C443 O451 1.253 . S
C443 O456 1.264 . S
H444 C440 0.931 . S
O445 Co430 2.262 . S
O445 Co442 2.096 1_565 S
O445 C469 1.251 1_565 S
O446 Co442 2.070 . S
O446 C462 1.221 . S
O447 Co442 2.061 1_565 S
O447 C457 1.221 . S
O448 Co442 2.037 1_565 S
O448 C463 1.237 . S
O449 Co430 1.958 . S
O449 C463 1.278 . S
O450 Co436 1.950 . S
O450 C462 1.277 . S
O451 Co436 2.262 . S
O451 Co442 2.098 . S
O451 C443 1.253 . S
O452 Co436 1.958 . S
O452 C470 1.278 . S
O453 Co430 1.950 . S
O453 C457 1.277 . S
O454 Co430 2.057 . S
O454 C469 1.255 1_565 S
O455 Co442 2.046 . S
O455 C470 1.237 . S
O456 Co436 2.057 . S
O456 C443 1.264 . S
C457 O447 1.221 . S
C457 O453 1.277 . S
C458 C441 1.361 . S
C458 H459 0.960 . S
C458 H460 0.961 . S
C458 H461 0.961 . S
H459 C458 0.960 . S
H460 C458 0.961 . S
H461 C458 0.961 . S
C462 O446 1.221 . S
C462 O450 1.277 . S
C463 O448 1.237 . S
C463 O449 1.278 . S
H464 C432 0.931 . S
H465 C468 0.961 . S
H466 C468 0.961 . S
H467 C468 0.960 . S
C468 C434 1.361 . S
C468 H465 0.961 . S
C468 H466 0.961 . S
C468 H467 0.960 . S
C469 O445 1.251 1_545 S
C469 O454 1.255 1_545 S
C470 O452 1.278 . S
C470 O455 1.237 . S
H471 C435 0.930 . S
H472 C439 0.930 . S
Co473 N474 2.034 . S
Co473 O488 2.262 . S
Co473 O492 1.958 . S
Co473 O496 1.950 . S
Co473 O497 2.057 . S
N474 Co473 2.034 . S
N474 C475 1.366 . S
N474 C477 1.332 . S
C475 N474 1.366 . S
C475 C478 1.377 . S
C475 H507 0.931 . S
N476 C477 1.346 . S
N476 C478 1.337 . S
C477 N474 1.332 . S
C477 N476 1.346 . S
C477 C511 1.361 . S
C478 C475 1.377 . S
C478 N476 1.337 . S
C478 H514 0.930 . S
Co479 N480 2.034 . S
Co479 O493 1.950 . S
Co479 O494 2.262 . S
Co479 O495 1.958 . S
Co479 O499 2.057 . S
N480 Co479 2.034 . S
N480 C483 1.366 . S
N480 C484 1.332 . S
N481 C482 1.337 . S
N481 C484 1.346 . S
C482 N481 1.337 . S
C482 C483 1.377 . S
C482 H515 0.930 . S
C483 N480 1.366 . S
C483 C482 1.377 . S
C483 H487 0.931 . S
C484 N480 1.332 . S
C484 N481 1.346 . S
C484 C501 1.361 . S
Co485 O488 2.091 1_554 S
Co485 O489 2.065 1_554 S
Co485 O490 2.066 . S
Co485 O491 2.042 . S
Co485 O494 2.103 . S
Co485 O498 2.041 1_554 S
C486 O494 1.253 . S
C486 O499 1.263 . S
H487 C483 0.931 . S
O488 Co473 2.262 . S
O488 Co485 2.091 1_556 S
O488 C512 1.253 . S
O489 Co485 2.065 1_556 S
O489 C505 1.221 1_556 S
O490 Co485 2.066 . S
O490 C500 1.221 1_554 S
O491 Co485 2.042 . S
O491 C506 1.237 1_554 S
O492 Co473 1.958 . S
O492 C506 1.278 . S
O493 Co479 1.950 . S
O493 C505 1.277 . S
O494 Co479 2.262 . S
O494 Co485 2.103 . S
O494 C486 1.253 . S
O495 Co479 1.958 . S
O495 C513 1.278 . S
O496 Co473 1.950 . S
O496 C500 1.277 . S
O497 Co473 2.057 . S
O497 C512 1.263 . S
O498 Co485 2.041 1_556 S
O498 C513 1.237 1_556 S
O499 Co479 2.057 . S
O499 C486 1.263 . S
C500 O490 1.221 1_556 S
C500 O496 1.277 . S
C501 C484 1.361 . S
C501 H502 0.960 . S
C501 H503 0.961 . S
C501 H504 0.961 . S
H502 C501 0.960 . S
H503 C501 0.961 . S
H504 C501 0.961 . S
C505 O489 1.221 1_554 S
C505 O493 1.277 . S
C506 O491 1.237 1_556 S
C506 O492 1.278 . S
H507 C475 0.931 . S
H508 C511 0.961 . S
H509 C511 0.961 . S
H510 C511 0.960 . S
C511 C477 1.361 . S
C511 H508 0.961 . S
C511 H509 0.961 . S
C511 H510 0.960 . S
C512 O488 1.253 . S
C512 O497 1.263 . S
C513 O495 1.278 . S
C513 O498 1.237 1_554 S
H514 C478 0.930 . S
H515 C482 0.930 . S
Co516 N517 2.034 . S
Co516 O531 2.262 . S
Co516 O535 1.958 . S
Co516 O539 1.950 . S
Co516 O540 2.057 . S
N517 Co516 2.034 . S
N517 C518 1.366 . S
N517 C520 1.332 . S
C518 N517 1.366 . S
C518 C521 1.377 . S
C518 H550 0.931 . S
N519 C520 1.346 . S
N519 C521 1.337 . S
C520 N517 1.332 . S
C520 N519 1.346 . S
C520 C554 1.361 . S
C521 C518 1.377 . S
C521 N519 1.337 . S
C521 H557 0.930 . S
Co522 N523 2.034 . S
Co522 O536 1.950 . S
Co522 O537 2.262 . S
Co522 O538 1.958 . S
Co522 O542 2.057 . S
N523 Co522 2.034 . S
N523 C526 1.366 . S
N523 C527 1.332 . S
N524 C525 1.337 . S
N524 C527 1.346 . S
C525 N524 1.337 . S
C525 C526 1.377 . S
C525 H558 0.930 . S
C526 N523 1.366 . S
C526 C525 1.377 . S
C526 H530 0.931 . S
C527 N523 1.332 . S
C527 N524 1.346 . S
C527 C544 1.361 . S
Co528 O531 2.098 . S
Co528 O532 2.061 1_554 S
Co528 O533 2.070 . S
Co528 O534 2.046 . S
Co528 O537 2.096 1_554 S
Co528 O541 2.037 1_554 S
C529 O537 1.251 1_554 S
C529 O542 1.254 1_554 S
H530 C526 0.931 . S
O531 Co516 2.262 . S
O531 Co528 2.098 . S
O531 C555 1.253 . S
O532 Co528 2.061 1_556 S
O532 C548 1.221 . S
O533 Co528 2.070 . S
O533 C543 1.221 . S
O534 Co528 2.046 . S
O534 C549 1.237 . S
O535 Co516 1.958 . S
O535 C549 1.278 . S
O536 Co522 1.950 . S
O536 C548 1.277 . S
O537 Co522 2.262 . S
O537 Co528 2.096 1_556 S
O537 C529 1.251 1_556 S
O538 Co522 1.958 . S
O538 C556 1.278 . S
O539 Co516 1.950 . S
O539 C543 1.277 . S
O540 Co516 2.057 . S
O540 C555 1.264 . S
O541 Co528 2.037 1_556 S
O541 C556 1.237 . S
O542 Co522 2.057 . S
O542 C529 1.254 1_556 S
C543 O533 1.221 . S
C543 O539 1.277 . S
C544 C527 1.361 . S
C544 H545 0.960 . S
C544 H546 0.961 . S
C544 H547 0.961 . S
H545 C544 0.960 . S
H546 C544 0.961 . S
H547 C544 0.961 . S
C548 O532 1.221 . S
C548 O536 1.277 . S
C549 O534 1.237 . S
C549 O535 1.278 . S
H550 C518 0.931 . S
H551 C554 0.961 . S
H552 C554 0.961 . S
H553 C554 0.960 . S
C554 C520 1.361 . S
C554 H551 0.961 . S
C554 H552 0.961 . S
C554 H553 0.960 . S
C555 O531 1.253 . S
C555 O540 1.264 . S
C556 O538 1.278 . S
C556 O541 1.237 . S
H557 C521 0.930 . S
H558 C525 0.930 . S
Co559 N560 2.034 . S
Co559 O574 2.262 . S
Co559 O578 1.958 . S
Co559 O582 1.950 . S
Co559 O583 2.057 . S
N560 Co559 2.034 . S
N560 C561 1.366 . S
N560 C563 1.332 . S
C561 N560 1.366 . S
C561 C564 1.377 . S
C561 H593 0.931 . S
N562 C563 1.346 . S
N562 C564 1.337 . S
C563 N560 1.332 . S
C563 N562 1.346 . S
C563 C597 1.361 . S
C564 C561 1.377 . S
C564 N562 1.337 . S
C564 H600 0.930 . S
Co565 N566 2.034 . S
Co565 O579 1.950 . S
Co565 O580 2.262 . S
Co565 O581 1.958 . S
Co565 O585 2.057 . S
N566 Co565 2.034 . S
N566 C569 1.366 . S
N566 C570 1.332 . S
N567 C568 1.337 . S
N567 C570 1.346 . S
C568 N567 1.337 . S
C568 C569 1.377 . S
C568 H601 0.930 . S
C569 N566 1.366 . S
C569 C568 1.377 . S
C569 H573 0.931 . S
C570 N566 1.332 . S
C570 N567 1.346 . S
C570 C587 1.361 . S
Co571 O574 2.096 1_554 S
Co571 O575 2.070 . S
Co571 O576 2.061 1_554 S
Co571 O577 2.037 1_554 S
Co571 O580 2.098 . S
Co571 O584 2.046 . S
C572 O580 1.253 . S
C572 O585 1.264 . S
H573 C569 0.931 . S
O574 Co559 2.262 . S
O574 Co571 2.096 1_556 S
O574 C598 1.251 1_556 S
O575 Co571 2.070 . S
O575 C591 1.221 . S
O576 Co571 2.061 1_556 S
O576 C586 1.221 . S
O577 Co571 2.037 1_556 S
O577 C592 1.237 . S
O578 Co559 1.958 . S
O578 C592 1.278 . S
O579 Co565 1.950 . S
O579 C591 1.277 . S
O580 Co565 2.262 . S
O580 Co571 2.098 . S
O580 C572 1.253 . S
O581 Co565 1.958 . S
O581 C599 1.278 . S
O582 Co559 1.950 . S
O582 C586 1.277 . S
O583 Co559 2.057 . S
O583 C598 1.255 1_556 S
O584 Co571 2.046 . S
O584 C599 1.237 . S
O585 Co565 2.057 . S
O585 C572 1.264 . S
C586 O576 1.221 . S
C586 O582 1.277 . S
C587 C570 1.361 . S
C587 H588 0.960 . S
C587 H589 0.961 . S
C587 H590 0.961 . S
H588 C587 0.960 . S
H589 C587 0.961 . S
H590 C587 0.961 . S
C591 O575 1.221 . S
C591 O579 1.277 . S
C592 O577 1.237 . S
C592 O578 1.278 . S
H593 C561 0.931 . S
H594 C597 0.961 . S
H595 C597 0.961 . S
H596 C597 0.960 . S
C597 C563 1.361 . S
C597 H594 0.961 . S
C597 H595 0.961 . S
C597 H596 0.960 . S
C598 O574 1.251 1_554 S
C598 O583 1.255 1_554 S
C599 O581 1.278 . S
C599 O584 1.237 . S
H600 C564 0.930 . S
H601 C568 0.930 . S
Co602 N603 2.034 . S
Co602 O617 2.262 . S
Co602 O621 1.958 . S
Co602 O625 1.950 . S
Co602 O626 2.057 . S
N603 Co602 2.034 . S
N603 C604 1.366 . S
N603 C606 1.332 . S
C604 N603 1.366 . S
C604 C607 1.377 . S
C604 H636 0.931 . S
N605 C606 1.346 . S
N605 C607 1.337 . S
C606 N603 1.332 . S
C606 N605 1.346 . S
C606 C640 1.361 . S
C607 C604 1.377 . S
C607 N605 1.337 . S
C607 H643 0.930 . S
Co608 N609 2.034 . S
Co608 O622 1.950 . S
Co608 O623 2.262 . S
Co608 O624 1.958 . S
Co608 O628 2.057 . S
N609 Co608 2.034 . S
N609 C612 1.366 . S
N609 C613 1.332 . S
N610 C611 1.337 . S
N610 C613 1.346 . S
C611 N610 1.337 . S
C611 C612 1.377 . S
C611 H644 0.930 . S
C612 N609 1.366 . S
C612 C611 1.377 . S
C612 H616 0.931 . S
C613 N609 1.332 . S
C613 N610 1.346 . S
C613 C630 1.361 . S
Co614 O617 2.097 . S
Co614 O618 2.065 . S
Co614 O619 2.065 . S
Co614 O620 2.042 . S
Co614 O623 2.097 . S
Co614 O627 2.042 . S
C615 O623 1.253 . S
C615 O628 1.263 . S
H616 C612 0.931 . S
O617 Co602 2.262 . S
O617 Co614 2.097 . S
O617 C641 1.253 . S
O618 Co614 2.065 . S
O618 C634 1.221 . S
O619 Co614 2.065 . S
O619 C629 1.221 . S
O620 Co614 2.042 . S
O620 C635 1.237 . S
O621 Co602 1.958 . S
O621 C635 1.278 . S
O622 Co608 1.950 . S
O622 C634 1.277 . S
O623 Co608 2.262 . S
O623 Co614 2.097 . S
O623 C615 1.253 . S
O624 Co608 1.958 . S
O624 C642 1.278 . S
O625 Co602 1.950 . S
O625 C629 1.277 . S
O626 Co602 2.057 . S
O626 C641 1.263 . S
O627 Co614 2.042 . S
O627 C642 1.237 . S
O628 Co608 2.057 . S
O628 C615 1.263 . S
C629 O619 1.221 . S
C629 O625 1.277 . S
C630 C613 1.361 . S
C630 H631 0.960 . S
C630 H632 0.961 . S
C630 H633 0.961 . S
H631 C630 0.960 . S
H632 C630 0.961 . S
H633 C630 0.961 . S
C634 O618 1.221 . S
C634 O622 1.277 . S
C635 O620 1.237 . S
C635 O621 1.278 . S
H636 C604 0.931 . S
H637 C640 0.961 . S
H638 C640 0.961 . S
H639 C640 0.960 . S
C640 C606 1.361 . S
C640 H637 0.961 . S
C640 H638 0.961 . S
C640 H639 0.960 . S
C641 O617 1.253 . S
C641 O626 1.263 . S
C642 O624 1.278 . S
C642 O627 1.237 . S
H643 C607 0.930 . S
H644 C611 0.930 . S
Co645 N646 2.034 . S
Co645 O660 2.262 . S
Co645 O664 1.958 . S
Co645 O668 1.950 . S
Co645 O669 2.057 . S
N646 Co645 2.034 . S
N646 C647 1.366 . S
N646 C649 1.332 . S
C647 N646 1.366 . S
C647 C650 1.377 . S
C647 H679 0.931 . S
N648 C649 1.346 . S
N648 C650 1.337 . S
C649 N646 1.332 . S
C649 N648 1.346 . S
C649 C683 1.361 . S
C650 C647 1.377 . S
C650 N648 1.337 . S
C650 H686 0.930 . S
Co651 N652 2.034 . S
Co651 O665 1.950 . S
Co651 O666 2.262 . S
Co651 O667 1.958 . S
Co651 O671 2.057 . S
N652 Co651 2.034 . S
N652 C655 1.366 . S
N652 C656 1.332 . S
N653 C654 1.337 . S
N653 C656 1.346 . S
C654 N653 1.337 . S
C654 C655 1.377 . S
C654 H687 0.930 . S
C655 N652 1.366 . S
C655 C654 1.377 . S
C655 H659 0.931 . S
C656 N652 1.332 . S
C656 N653 1.346 . S
C656 C673 1.361 . S
Co657 O660 2.097 . S
Co657 O661 2.065 . S
Co657 O662 2.065 . S
Co657 O663 2.042 . S
Co657 O666 2.097 . S
Co657 O670 2.042 . S
C658 O666 1.253 . S
C658 O671 1.263 . S
H659 C655 0.931 . S
O660 Co645 2.262 . S
O660 Co657 2.097 . S
O660 C684 1.253 . S
O661 Co657 2.065 . S
O661 C677 1.221 . S
O662 Co657 2.065 . S
O662 C672 1.221 . S
O663 Co657 2.042 . S
O663 C678 1.237 . S
O664 Co645 1.958 . S
O664 C678 1.278 . S
O665 Co651 1.950 . S
O665 C677 1.277 . S
O666 Co651 2.262 . S
O666 Co657 2.097 . S
O666 C658 1.253 . S
O667 Co651 1.958 . S
O667 C685 1.278 . S
O668 Co645 1.950 . S
O668 C672 1.277 . S
O669 Co645 2.057 . S
O669 C684 1.263 . S
O670 Co657 2.042 . S
O670 C685 1.237 . S
O671 Co651 2.057 . S
O671 C658 1.263 . S
C672 O662 1.221 . S
C672 O668 1.277 . S
C673 C656 1.361 . S
C673 H674 0.960 . S
C673 H675 0.961 . S
C673 H676 0.961 . S
H674 C673 0.960 . S
H675 C673 0.961 . S
H676 C673 0.961 . S
C677 O661 1.221 . S
C677 O665 1.277 . S
C678 O663 1.237 . S
C678 O664 1.278 . S
H679 C647 0.931 . S
H680 C683 0.961 . S
H681 C683 0.961 . S
H682 C683 0.960 . S
C683 C649 1.361 . S
C683 H680 0.961 . S
C683 H681 0.961 . S
C683 H682 0.960 . S
C684 O660 1.253 . S
C684 O669 1.263 . S
C685 O667 1.278 . S
C685 O670 1.237 . S
H686 C650 0.930 . S
H687 C654 0.930 . S
Co688 N689 2.034 . S
Co688 O703 2.262 . S
Co688 O707 1.958 . S
Co688 O711 1.950 . S
Co688 O712 2.057 . S
N689 Co688 2.034 . S
N689 C690 1.366 . S
N689 C692 1.332 . S
C690 N689 1.366 . S
C690 C693 1.377 . S
C690 H722 0.931 . S
N691 C692 1.346 . S
N691 C693 1.337 . S
C692 N689 1.332 . S
C692 N691 1.346 . S
C692 C726 1.361 . S
C693 C690 1.377 . S
C693 N691 1.337 . S
C693 H729 0.930 . S
Co694 N695 2.034 . S
Co694 O708 1.950 . S
Co694 O709 2.262 . S
Co694 O710 1.958 . S
Co694 O714 2.057 . S
N695 Co694 2.034 . S
N695 C698 1.366 . S
N695 C699 1.332 . S
N696 C697 1.337 . S
N696 C699 1.346 . S
C697 N696 1.337 . S
C697 C698 1.377 . S
C697 H730 0.930 . S
C698 N695 1.366 . S
C698 C697 1.377 . S
C698 H702 0.931 . S
C699 N695 1.332 . S
C699 N696 1.346 . S
C699 C716 1.361 . S
Co700 O703 2.091 1_545 S
Co700 O704 2.065 1_545 S
Co700 O705 2.066 . S
Co700 O706 2.042 . S
Co700 O709 2.103 . S
Co700 O713 2.041 1_545 S
C701 O709 1.253 . S
C701 O714 1.263 . S
H702 C698 0.931 . S
O703 Co688 2.262 . S
O703 Co700 2.091 1_565 S
O703 C727 1.253 . S
O704 Co700 2.065 1_565 S
O704 C720 1.221 1_565 S
O705 Co700 2.066 . S
O705 C715 1.221 1_545 S
O706 Co700 2.042 . S
O706 C721 1.237 1_545 S
O707 Co688 1.958 . S
O707 C721 1.278 . S
O708 Co694 1.950 . S
O708 C720 1.277 . S
O709 Co694 2.262 . S
O709 Co700 2.103 . S
O709 C701 1.253 . S
O710 Co694 1.958 . S
O710 C728 1.278 . S
O711 Co688 1.950 . S
O711 C715 1.277 . S
O712 Co688 2.057 . S
O712 C727 1.263 . S
O713 Co700 2.041 1_565 S
O713 C728 1.237 1_565 S
O714 Co694 2.057 . S
O714 C701 1.263 . S
C715 O705 1.221 1_565 S
C715 O711 1.277 . S
C716 C699 1.361 . S
C716 H717 0.960 . S
C716 H718 0.961 . S
C716 H719 0.961 . S
H717 C716 0.960 . S
H718 C716 0.961 . S
H719 C716 0.961 . S
C720 O704 1.221 1_545 S
C720 O708 1.277 . S
C721 O706 1.237 1_565 S
C721 O707 1.278 . S
H722 C690 0.931 . S
H723 C726 0.961 . S
H724 C726 0.961 . S
H725 C726 0.960 . S
C726 C692 1.361 . S
C726 H723 0.961 . S
C726 H724 0.961 . S
C726 H725 0.960 . S
C727 O703 1.253 . S
C727 O712 1.263 . S
C728 O710 1.278 . S
C728 O713 1.237 1_545 S
H729 C693 0.930 . S
H730 C697 0.930 . S
Co731 N732 2.034 . S
Co731 O746 2.262 . S
Co731 O750 1.958 . S
Co731 O754 1.950 . S
Co731 O755 2.057 . S
N732 Co731 2.034 . S
N732 C733 1.366 . S
N732 C735 1.332 . S
C733 N732 1.366 . S
C733 C736 1.377 . S
C733 H765 0.931 . S
N734 C735 1.346 . S
N734 C736 1.337 . S
C735 N732 1.332 . S
C735 N734 1.346 . S
C735 C769 1.361 . S
C736 C733 1.377 . S
C736 N734 1.337 . S
C736 H772 0.930 . S
Co737 N738 2.034 . S
Co737 O751 1.950 . S
Co737 O752 2.262 . S
Co737 O753 1.958 . S
Co737 O757 2.057 . S
N738 Co737 2.034 . S
N738 C741 1.366 . S
N738 C742 1.332 . S
N739 C740 1.337 . S
N739 C742 1.346 . S
C740 N739 1.337 . S
C740 C741 1.377 . S
C740 H773 0.930 . S
C741 N738 1.366 . S
C741 C740 1.377 . S
C741 H745 0.931 . S
C742 N738 1.332 . S
C742 N739 1.346 . S
C742 C759 1.361 . S
Co743 O746 2.097 . S
Co743 O747 2.065 . S
Co743 O748 2.065 . S
Co743 O749 2.042 . S
Co743 O752 2.097 . S
Co743 O756 2.042 . S
C744 O752 1.253 . S
C744 O757 1.263 . S
H745 C741 0.931 . S
O746 Co731 2.262 . S
O746 Co743 2.097 . S
O746 C770 1.253 . S
O747 Co743 2.065 . S
O747 C763 1.221 . S
O748 Co743 2.065 . S
O748 C758 1.221 . S
O749 Co743 2.042 . S
O749 C764 1.237 . S
O750 Co731 1.958 . S
O750 C764 1.278 . S
O751 Co737 1.950 . S
O751 C763 1.277 . S
O752 Co737 2.262 . S
O752 Co743 2.097 . S
O752 C744 1.253 . S
O753 Co737 1.958 . S
O753 C771 1.278 . S
O754 Co731 1.950 . S
O754 C758 1.277 . S
O755 Co731 2.057 . S
O755 C770 1.263 . S
O756 Co743 2.042 . S
O756 C771 1.237 . S
O757 Co737 2.057 . S
O757 C744 1.263 . S
C758 O748 1.221 . S
C758 O754 1.277 . S
C759 C742 1.361 . S
C759 H760 0.960 . S
C759 H761 0.961 . S
C759 H762 0.961 . S
H760 C759 0.960 . S
H761 C759 0.961 . S
H762 C759 0.961 . S
C763 O747 1.221 . S
C763 O751 1.277 . S
C764 O749 1.237 . S
C764 O750 1.278 . S
H765 C733 0.931 . S
H766 C769 0.961 . S
H767 C769 0.961 . S
H768 C769 0.960 . S
C769 C735 1.361 . S
C769 H766 0.961 . S
C769 H767 0.961 . S
C769 H768 0.960 . S
C770 O746 1.253 . S
C770 O755 1.263 . S
C771 O753 1.278 . S
C771 O756 1.237 . S
H772 C736 0.930 . S
H773 C740 0.930 . S
Co774 N775 2.034 . S
Co774 O789 2.262 . S
Co774 O793 1.958 . S
Co774 O797 1.950 . S
Co774 O798 2.057 . S
N775 Co774 2.034 . S
N775 C776 1.366 . S
N775 C778 1.332 . S
C776 N775 1.366 . S
C776 C779 1.377 . S
C776 H808 0.931 . S
N777 C778 1.346 . S
N777 C779 1.337 . S
C778 N775 1.332 . S
C778 N777 1.346 . S
C778 C812 1.361 . S
C779 C776 1.377 . S
C779 N777 1.337 . S
C779 H815 0.930 . S
Co780 N781 2.034 . S
Co780 O794 1.950 . S
Co780 O795 2.262 . S
Co780 O796 1.958 . S
Co780 O800 2.057 . S
N781 Co780 2.034 . S
N781 C784 1.366 . S
N781 C785 1.332 . S
N782 C783 1.337 . S
N782 C785 1.346 . S
C783 N782 1.337 . S
C783 C784 1.377 . S
C783 H816 0.930 . S
C784 N781 1.366 . S
C784 C783 1.377 . S
C784 H788 0.931 . S
C785 N781 1.332 . S
C785 N782 1.346 . S
C785 C802 1.361 . S
Co786 O789 2.097 . S
Co786 O790 2.065 . S
Co786 O791 2.065 . S
Co786 O792 2.042 . S
Co786 O795 2.097 . S
Co786 O799 2.042 . S
C787 O795 1.253 . S
C787 O800 1.263 . S
H788 C784 0.931 . S
O789 Co774 2.262 . S
O789 Co786 2.097 . S
O789 C813 1.253 . S
O790 Co786 2.065 . S
O790 C806 1.221 . S
O791 Co786 2.065 . S
O791 C801 1.221 . S
O792 Co786 2.042 . S
O792 C807 1.237 . S
O793 Co774 1.958 . S
O793 C807 1.278 . S
O794 Co780 1.950 . S
O794 C806 1.277 . S
O795 Co780 2.262 . S
O795 Co786 2.097 . S
O795 C787 1.253 . S
O796 Co780 1.958 . S
O796 C814 1.278 . S
O797 Co774 1.950 . S
O797 C801 1.277 . S
O798 Co774 2.057 . S
O798 C813 1.263 . S
O799 Co786 2.042 . S
O799 C814 1.237 . S
O800 Co780 2.057 . S
O800 C787 1.263 . S
C801 O791 1.221 . S
C801 O797 1.277 . S
C802 C785 1.361 . S
C802 H803 0.960 . S
C802 H804 0.961 . S
C802 H805 0.961 . S
H803 C802 0.960 . S
H804 C802 0.961 . S
H805 C802 0.961 . S
C806 O790 1.221 . S
C806 O794 1.277 . S
C807 O792 1.237 . S
C807 O793 1.278 . S
H808 C776 0.931 . S
H809 C812 0.961 . S
H810 C812 0.961 . S
H811 C812 0.960 . S
C812 C778 1.361 . S
C812 H809 0.961 . S
C812 H810 0.961 . S
C812 H811 0.960 . S
C813 O789 1.253 . S
C813 O798 1.263 . S
C814 O796 1.278 . S
C814 O799 1.237 . S
H815 C779 0.930 . S
H816 C783 0.930 . S
Co817 N818 2.034 . S
Co817 O832 2.262 . S
Co817 O836 1.958 . S
Co817 O840 1.950 . S
Co817 O841 2.057 . S
N818 Co817 2.034 . S
N818 C819 1.366 . S
N818 C821 1.332 . S
C819 N818 1.366 . S
C819 C822 1.377 . S
C819 H851 0.931 . S
N820 C821 1.346 . S
N820 C822 1.337 . S
C821 N818 1.332 . S
C821 N820 1.346 . S
C821 C855 1.361 . S
C822 C819 1.377 . S
C822 N820 1.337 . S
C822 H858 0.930 . S
Co823 N824 2.034 . S
Co823 O837 1.950 . S
Co823 O838 2.262 . S
Co823 O839 1.958 . S
Co823 O843 2.057 . S
N824 Co823 2.034 . S
N824 C827 1.366 . S
N824 C828 1.332 . S
N825 C826 1.337 . S
N825 C828 1.346 . S
C826 N825 1.337 . S
C826 C827 1.377 . S
C826 H859 0.930 . S
C827 N824 1.366 . S
C827 C826 1.377 . S
C827 H831 0.931 . S
C828 N824 1.332 . S
C828 N825 1.346 . S
C828 C845 1.361 . S
Co829 O832 2.097 . S
Co829 O833 2.065 . S
Co829 O834 2.065 . S
Co829 O835 2.042 . S
Co829 O838 2.097 . S
Co829 O842 2.042 . S
C830 O838 1.253 . S
C830 O843 1.263 . S
H831 C827 0.931 . S
O832 Co817 2.262 . S
O832 Co829 2.097 . S
O832 C856 1.253 . S
O833 Co829 2.065 . S
O833 C849 1.221 . S
O834 Co829 2.065 . S
O834 C844 1.221 . S
O835 Co829 2.042 . S
O835 C850 1.237 . S
O836 Co817 1.958 . S
O836 C850 1.278 . S
O837 Co823 1.950 . S
O837 C849 1.277 . S
O838 Co823 2.262 . S
O838 Co829 2.097 . S
O838 C830 1.253 . S
O839 Co823 1.958 . S
O839 C857 1.278 . S
O840 Co817 1.950 . S
O840 C844 1.277 . S
O841 Co817 2.057 . S
O841 C856 1.263 . S
O842 Co829 2.042 . S
O842 C857 1.237 . S
O843 Co823 2.057 . S
O843 C830 1.263 . S
C844 O834 1.221 . S
C844 O840 1.277 . S
C845 C828 1.361 . S
C845 H846 0.960 . S
C845 H847 0.961 . S
C845 H848 0.961 . S
H846 C845 0.960 . S
H847 C845 0.961 . S
H848 C845 0.961 . S
C849 O833 1.221 . S
C849 O837 1.277 . S
C850 O835 1.237 . S
C850 O836 1.278 . S
H851 C819 0.931 . S
H852 C855 0.961 . S
H853 C855 0.961 . S
H854 C855 0.960 . S
C855 C821 1.361 . S
C855 H852 0.961 . S
C855 H853 0.961 . S
C855 H854 0.960 . S
C856 O832 1.253 . S
C856 O841 1.263 . S
C857 O839 1.278 . S
C857 O842 1.237 . S
H858 C822 0.930 . S
H859 C826 0.930 . S
Co860 N861 2.034 . S
Co860 O875 2.262 . S
Co860 O879 1.958 . S
Co860 O883 1.950 . S
Co860 O884 2.057 . S
N861 Co860 2.034 . S
N861 C862 1.366 . S
N861 C864 1.332 . S
C862 N861 1.366 . S
C862 C865 1.377 . S
C862 H894 0.931 . S
N863 C864 1.346 . S
N863 C865 1.337 . S
C864 N861 1.332 . S
C864 N863 1.346 . S
C864 C898 1.361 . S
C865 C862 1.377 . S
C865 N863 1.337 . S
C865 H901 0.930 . S
Co866 N867 2.034 . S
Co866 O880 1.950 . S
Co866 O881 2.262 . S
Co866 O882 1.958 . S
Co866 O886 2.057 . S
N867 Co866 2.034 . S
N867 C870 1.366 . S
N867 C871 1.332 . S
N868 C869 1.337 . S
N868 C871 1.346 . S
C869 N868 1.337 . S
C869 C870 1.377 . S
C869 H902 0.930 . S
C870 N867 1.366 . S
C870 C869 1.377 . S
C870 H874 0.931 . S
C871 N867 1.332 . S
C871 N868 1.346 . S
C871 C888 1.361 . S
Co872 O875 2.091 1_554 S
Co872 O876 2.065 1_554 S
Co872 O877 2.066 . S
Co872 O878 2.042 . S
Co872 O881 2.103 . S
Co872 O885 2.041 1_554 S
C873 O881 1.253 . S
C873 O886 1.263 . S
H874 C870 0.931 . S
O875 Co860 2.262 . S
O875 Co872 2.091 1_556 S
O875 C899 1.253 . S
O876 Co872 2.065 1_556 S
O876 C892 1.221 1_556 S
O877 Co872 2.066 . S
O877 C887 1.221 1_554 S
O878 Co872 2.042 . S
O878 C893 1.237 1_554 S
O879 Co860 1.958 . S
O879 C893 1.278 . S
O880 Co866 1.950 . S
O880 C892 1.277 . S
O881 Co866 2.262 . S
O881 Co872 2.103 . S
O881 C873 1.253 . S
O882 Co866 1.958 . S
O882 C900 1.278 . S
O883 Co860 1.950 . S
O883 C887 1.277 . S
O884 Co860 2.057 . S
O884 C899 1.263 . S
O885 Co872 2.041 1_556 S
O885 C900 1.237 1_556 S
O886 Co866 2.057 . S
O886 C873 1.263 . S
C887 O877 1.221 1_556 S
C887 O883 1.277 . S
C888 C871 1.361 . S
C888 H889 0.960 . S
C888 H890 0.961 . S
C888 H891 0.961 . S
H889 C888 0.960 . S
H890 C888 0.961 . S
H891 C888 0.961 . S
C892 O876 1.221 1_554 S
C892 O880 1.277 . S
C893 O878 1.237 1_556 S
C893 O879 1.278 . S
H894 C862 0.931 . S
H895 C898 0.961 . S
H896 C898 0.961 . S
H897 C898 0.960 . S
C898 C864 1.361 . S
C898 H895 0.961 . S
C898 H896 0.961 . S
C898 H897 0.960 . S
C899 O875 1.253 . S
C899 O884 1.263 . S
C900 O882 1.278 . S
C900 O885 1.237 1_554 S
H901 C865 0.930 . S
H902 C869 0.930 . S
Co903 N904 2.034 . S
Co903 O918 2.262 . S
Co903 O922 1.958 . S
Co903 O926 1.950 . S
Co903 O927 2.057 . S
N904 Co903 2.034 . S
N904 C905 1.366 . S
N904 C907 1.332 . S
C905 N904 1.366 . S
C905 C908 1.377 . S
C905 H937 0.931 . S
N906 C907 1.346 . S
N906 C908 1.337 . S
C907 N904 1.332 . S
C907 N906 1.346 . S
C907 C941 1.361 . S
C908 C905 1.377 . S
C908 N906 1.337 . S
C908 H944 0.930 . S
Co909 N910 2.034 . S
Co909 O923 1.950 . S
Co909 O924 2.262 . S
Co909 O925 1.958 . S
Co909 O929 2.057 . S
N910 Co909 2.034 . S
N910 C913 1.366 . S
N910 C914 1.332 . S
N911 C912 1.337 . S
N911 C914 1.346 . S
C912 N911 1.337 . S
C912 C913 1.377 . S
C912 H945 0.930 . S
C913 N910 1.366 . S
C913 C912 1.377 . S
C913 H917 0.931 . S
C914 N910 1.332 . S
C914 N911 1.346 . S
C914 C931 1.361 . S
Co915 O918 2.097 . S
Co915 O919 2.065 . S
Co915 O920 2.065 . S
Co915 O921 2.042 . S
Co915 O924 2.097 . S
Co915 O928 2.042 . S
C916 O924 1.253 . S
C916 O929 1.263 . S
H917 C913 0.931 . S
O918 Co903 2.262 . S
O918 Co915 2.097 . S
O918 C942 1.253 . S
O919 Co915 2.065 . S
O919 C935 1.221 . S
O920 Co915 2.065 . S
O920 C930 1.221 . S
O921 Co915 2.042 . S
O921 C936 1.237 . S
O922 Co903 1.958 . S
O922 C936 1.278 . S
O923 Co909 1.950 . S
O923 C935 1.277 . S
O924 Co909 2.262 . S
O924 Co915 2.097 . S
O924 C916 1.253 . S
O925 Co909 1.958 . S
O925 C943 1.278 . S
O926 Co903 1.950 . S
O926 C930 1.277 . S
O927 Co903 2.057 . S
O927 C942 1.263 . S
O928 Co915 2.042 . S
O928 C943 1.237 . S
O929 Co909 2.057 . S
O929 C916 1.263 . S
C930 O920 1.221 . S
C930 O926 1.277 . S
C931 C914 1.361 . S
C931 H932 0.960 . S
C931 H933 0.961 . S
C931 H934 0.961 . S
H932 C931 0.960 . S
H933 C931 0.961 . S
H934 C931 0.961 . S
C935 O919 1.221 . S
C935 O923 1.277 . S
C936 O921 1.237 . S
C936 O922 1.278 . S
H937 C905 0.931 . S
H938 C941 0.961 . S
H939 C941 0.961 . S
H940 C941 0.960 . S
C941 C907 1.361 . S
C941 H938 0.961 . S
C941 H939 0.961 . S
C941 H940 0.960 . S
C942 O918 1.253 . S
C942 O927 1.263 . S
C943 O925 1.278 . S
C943 O928 1.237 . S
H944 C908 0.930 . S
H945 C912 0.930 . S
Co946 N947 2.034 . S
Co946 O961 2.262 . S
Co946 O965 1.958 . S
Co946 O969 1.950 . S
Co946 O970 2.057 . S
N947 Co946 2.034 . S
N947 C948 1.366 . S
N947 C950 1.332 . S
C948 N947 1.366 . S
C948 C951 1.377 . S
C948 H980 0.931 . S
N949 C950 1.346 . S
N949 C951 1.337 . S
C950 N947 1.332 . S
C950 N949 1.346 . S
C950 C984 1.361 . S
C951 C948 1.377 . S
C951 N949 1.337 . S
C951 H987 0.930 . S
Co952 N953 2.034 . S
Co952 O966 1.950 . S
Co952 O967 2.262 . S
Co952 O968 1.958 . S
Co952 O972 2.057 . S
N953 Co952 2.034 . S
N953 C956 1.366 . S
N953 C957 1.332 . S
N954 C955 1.337 . S
N954 C957 1.346 . S
C955 N954 1.337 . S
C955 C956 1.377 . S
C955 H988 0.930 . S
C956 N953 1.366 . S
C956 C955 1.377 . S
C956 H960 0.931 . S
C957 N953 1.332 . S
C957 N954 1.346 . S
C957 C974 1.361 . S
Co958 O961 2.097 . S
Co958 O962 2.065 . S
Co958 O963 2.065 . S
Co958 O964 2.042 . S
Co958 O967 2.097 . S
Co958 O971 2.042 . S
C959 O967 1.253 . S
C959 O972 1.263 . S
H960 C956 0.931 . S
O961 Co946 2.262 . S
O961 Co958 2.097 . S
O961 C985 1.253 . S
O962 Co958 2.065 . S
O962 C978 1.221 . S
O963 Co958 2.065 . S
O963 C973 1.221 . S
O964 Co958 2.042 . S
O964 C979 1.237 . S
O965 Co946 1.958 . S
O965 C979 1.278 . S
O966 Co952 1.950 . S
O966 C978 1.277 . S
O967 Co952 2.262 . S
O967 Co958 2.097 . S
O967 C959 1.253 . S
O968 Co952 1.958 . S
O968 C986 1.278 . S
O969 Co946 1.950 . S
O969 C973 1.277 . S
O970 Co946 2.057 . S
O970 C985 1.263 . S
O971 Co958 2.042 . S
O971 C986 1.237 . S
O972 Co952 2.057 . S
O972 C959 1.263 . S
C973 O963 1.221 . S
C973 O969 1.277 . S
C974 C957 1.361 . S
C974 H975 0.960 . S
C974 H976 0.961 . S
C974 H977 0.961 . S
H975 C974 0.960 . S
H976 C974 0.961 . S
H977 C974 0.961 . S
C978 O962 1.221 . S
C978 O966 1.277 . S
C979 O964 1.237 . S
C979 O965 1.278 . S
H980 C948 0.931 . S
H981 C984 0.961 . S
H982 C984 0.961 . S
H983 C984 0.960 . S
C984 C950 1.361 . S
C984 H981 0.961 . S
C984 H982 0.961 . S
C984 H983 0.960 . S
C985 O961 1.253 . S
C985 O970 1.263 . S
C986 O968 1.278 . S
C986 O971 1.237 . S
H987 C951 0.930 . S
H988 C955 0.930 . S
Co989 N990 2.034 . S
Co989 O1004 2.262 . S
Co989 O1008 1.958 . S
Co989 O1012 1.950 . S
Co989 O1013 2.057 . S
N990 Co989 2.034 . S
N990 C991 1.366 . S
N990 C993 1.332 . S
C991 N990 1.366 . S
C991 C994 1.377 . S
C991 H1023 0.931 . S
N992 C993 1.346 . S
N992 C994 1.337 . S
C993 N990 1.332 . S
C993 N992 1.346 . S
C993 C1027 1.361 . S
C994 C991 1.377 . S
C994 N992 1.337 . S
C994 H1030 0.930 . S
Co995 N996 2.034 . S
Co995 O1009 1.950 . S
Co995 O1010 2.262 . S
Co995 O1011 1.958 . S
Co995 O1015 2.057 . S
N996 Co995 2.034 . S
N996 C999 1.366 . S
N996 C1000 1.332 . S
N997 C998 1.337 . S
N997 C1000 1.346 . S
C998 N997 1.337 . S
C998 C999 1.377 . S
C998 H1031 0.930 . S
C999 N996 1.366 . S
C999 C998 1.377 . S
C999 H1003 0.931 . S
C1000 N996 1.332 . S
C1000 N997 1.346 . S
C1000 C1017 1.361 . S
Co1001 O1004 2.103 . S
Co1001 O1005 2.066 . S
Co1001 O1006 2.065 1_545 S
Co1001 O1007 2.041 1_545 S
Co1001 O1010 2.091 1_545 S
Co1001 O1014 2.042 . S
C1002 O1010 1.253 . S
C1002 O1015 1.263 . S
H1003 C999 0.931 . S
O1004 Co989 2.262 . S
O1004 Co1001 2.103 . S
O1004 C1028 1.253 . S
O1005 Co1001 2.066 . S
O1005 C1021 1.221 1_545 S
O1006 Co1001 2.065 1_565 S
O1006 C1016 1.221 1_565 S
O1007 Co1001 2.041 1_565 S
O1007 C1022 1.237 1_565 S
O1008 Co989 1.958 . S
O1008 C1022 1.278 . S
O1009 Co995 1.950 . S
O1009 C1021 1.277 . S
O1010 Co995 2.262 . S
O1010 Co1001 2.091 1_565 S
O1010 C1002 1.253 . S
O1011 Co995 1.958 . S
O1011 C1029 1.278 . S
O1012 Co989 1.950 . S
O1012 C1016 1.277 . S
O1013 Co989 2.057 . S
O1013 C1028 1.263 . S
O1014 Co1001 2.042 . S
O1014 C1029 1.237 1_545 S
O1015 Co995 2.057 . S
O1015 C1002 1.263 . S
C1016 O1006 1.221 1_545 S
C1016 O1012 1.277 . S
C1017 C1000 1.361 . S
C1017 H1018 0.960 . S
C1017 H1019 0.961 . S
C1017 H1020 0.961 . S
H1018 C1017 0.960 . S
H1019 C1017 0.961 . S
H1020 C1017 0.961 . S
C1021 O1005 1.221 1_565 S
C1021 O1009 1.277 . S
C1022 O1007 1.237 1_545 S
C1022 O1008 1.278 . S
H1023 C991 0.931 . S
H1024 C1027 0.961 . S
H1025 C1027 0.961 . S
H1026 C1027 0.960 . S
C1027 C993 1.361 . S
C1027 H1024 0.961 . S
C1027 H1025 0.961 . S
C1027 H1026 0.960 . S
C1028 O1004 1.253 . S
C1028 O1013 1.263 . S
C1029 O1011 1.278 . S
C1029 O1014 1.237 1_565 S
H1030 C994 0.930 . S
H1031 C998 0.930 . S
C1032 C1033 1.387 . S
C1032 H1036 0.950 . S
C1032 C1041 1.390 . S
C1033 C1032 1.387 . S
C1033 C1035 1.387 . S
H1034 C1041 0.950 . S
C1035 C1033 1.387 . S
C1035 C1037 1.390 . S
C1035 H1039 0.950 . S
H1036 C1032 0.950 . S
C1037 C1035 1.390 . S
C1037 C1038 1.387 . S
C1037 H1040 0.950 1_455 S
C1038 C1037 1.387 . S
C1038 C1041 1.387 . S
H1039 C1035 0.950 . S
H1040 C1037 0.950 1_655 S
C1041 C1032 1.390 . S
C1041 H1034 0.950 . S
C1041 C1038 1.387 . S
C1042 C1043 1.387 . S
C1042 H1046 0.950 . S
C1042 C1051 1.390 . S
C1043 C1042 1.387 . S
C1043 C1045 1.387 . S
H1044 C1051 0.950 . S
C1045 C1043 1.387 . S
C1045 C1047 1.390 . S
C1045 H1049 0.950 . S
H1046 C1042 0.950 . S
C1047 C1045 1.390 . S
C1047 C1048 1.387 . S
C1047 H1050 0.950 . S
C1048 C1047 1.387 . S
C1048 C1051 1.387 . S
H1049 C1045 0.950 . S
H1050 C1047 0.950 . S
C1051 C1042 1.390 . S
C1051 H1044 0.950 . S
C1051 C1048 1.387 . S
C1052 C1053 1.387 . S
C1052 H1056 0.950 . S
C1052 C1061 1.390 . S
C1053 C1052 1.387 . S
C1053 C1055 1.387 . S
H1054 C1061 0.950 . S
C1055 C1053 1.387 . S
C1055 C1057 1.390 . S
C1055 H1059 0.950 . S
H1056 C1052 0.950 . S
C1057 C1055 1.390 . S
C1057 C1058 1.387 . S
C1057 H1060 0.950 . S
C1058 C1057 1.387 . S
C1058 C1061 1.387 . S
H1059 C1055 0.950 . S
H1060 C1057 0.950 . S
C1061 C1052 1.390 . S
C1061 H1054 0.950 . S
C1061 C1058 1.387 . S
C1062 C1063 1.387 . S
C1062 H1066 0.950 1_554 S
C1062 C1071 1.390 . S
C1063 C1062 1.387 . S
C1063 C1065 1.387 . S
H1064 C1071 0.950 . S
C1065 C1063 1.387 . S
C1065 C1067 1.390 . S
C1065 H1069 0.950 . S
H1066 C1062 0.950 1_556 S
C1067 C1065 1.390 . S
C1067 C1068 1.387 . S
C1067 H1070 0.950 . S
C1068 C1067 1.387 . S
C1068 C1071 1.387 . S
H1069 C1065 0.950 . S
H1070 C1067 0.950 . S
C1071 C1062 1.390 . S
C1071 H1064 0.950 . S
C1071 C1068 1.387 . S
C1072 C1073 1.387 . S
C1072 H1076 0.950 . S
C1072 C1081 1.390 . S
C1073 C1072 1.387 . S
C1073 C1075 1.387 . S
H1074 C1081 0.950 . S
C1075 C1073 1.387 . S
C1075 C1077 1.390 . S
C1075 H1079 0.950 . S
H1076 C1072 0.950 . S
C1077 C1075 1.390 . S
C1077 C1078 1.387 . S
C1077 H1080 0.950 . S
C1078 C1077 1.387 . S
C1078 C1081 1.387 . S
H1079 C1075 0.950 . S
H1080 C1077 0.950 . S
C1081 C1072 1.390 . S
C1081 H1074 0.950 . S
C1081 C1078 1.387 . S
C1082 C1083 1.387 . S
C1082 H1086 0.950 . S
C1082 C1091 1.390 . S
C1083 C1082 1.387 . S
C1083 C1085 1.387 . S
H1084 C1091 0.950 . S
C1085 C1083 1.387 . S
C1085 C1087 1.390 . S
C1085 H1089 0.950 . S
H1086 C1082 0.950 . S
C1087 C1085 1.390 . S
C1087 C1088 1.387 . S
C1087 H1090 0.950 . S
C1088 C1087 1.387 . S
C1088 C1091 1.387 . S
H1089 C1085 0.950 . S
H1090 C1087 0.950 . S
C1091 C1082 1.390 . S
C1091 H1084 0.950 . S
C1091 C1088 1.387 . S
C1092 C1093 1.387 . S
C1092 H1096 0.950 . S
C1092 C1101 1.390 . S
C1093 C1092 1.387 . S
C1093 C1095 1.387 . S
H1094 C1101 0.950 . S
C1095 C1093 1.387 . S
C1095 C1097 1.390 . S
C1095 H1099 0.950 . S
H1096 C1092 0.950 . S
C1097 C1095 1.390 . S
C1097 C1098 1.387 . S
C1097 H1100 0.950 . S
C1098 C1097 1.387 . S
C1098 C1101 1.387 . S
H1099 C1095 0.950 . S
H1100 C1097 0.950 . S
C1101 C1092 1.390 . S
C1101 H1094 0.950 . S
C1101 C1098 1.387 . S
C1102 C1103 1.387 . S
C1102 H1106 0.951 . S
C1102 C1111 1.390 . S
C1103 C1102 1.387 . S
C1103 C1105 1.387 . S
H1104 C1111 0.950 . S
C1105 C1103 1.387 . S
C1105 C1107 1.390 . S
C1105 H1109 0.950 . S
H1106 C1102 0.951 . S
C1107 C1105 1.390 . S
C1107 C1108 1.387 . S
C1107 H1110 0.950 . S
C1108 C1107 1.387 . S
C1108 C1111 1.387 . S
H1109 C1105 0.950 . S
H1110 C1107 0.950 . S
C1111 C1102 1.390 . S
C1111 H1104 0.950 . S
C1111 C1108 1.387 . S
C1112 C1113 1.387 . S
C1112 H1116 0.950 . S
C1112 C1121 1.390 . S
C1113 C1112 1.387 . S
C1113 C1115 1.387 . S
H1114 C1121 0.950 . S
C1115 C1113 1.387 . S
C1115 C1117 1.390 . S
C1115 H1119 0.950 1_545 S
H1116 C1112 0.950 . S
C1117 C1115 1.390 . S
C1117 C1118 1.387 . S
C1117 H1120 0.950 . S
C1118 C1117 1.387 . S
C1118 C1121 1.387 . S
H1119 C1115 0.950 1_565 S
H1120 C1117 0.950 . S
C1121 C1112 1.390 . S
C1121 H1114 0.950 . S
C1121 C1118 1.387 . S
C1122 C1123 1.387 . S
C1122 H1126 0.950 1_545 S
C1122 C1131 1.390 . S
C1123 C1122 1.387 . S
C1123 C1125 1.387 . S
H1124 C1131 0.950 . S
C1125 C1123 1.387 . S
C1125 C1127 1.390 . S
C1125 H1129 0.950 . S
H1126 C1122 0.950 1_565 S
C1127 C1125 1.390 . S
C1127 C1128 1.387 . S
C1127 H1130 0.950 . S
C1128 C1127 1.387 . S
C1128 C1131 1.387 . S
H1129 C1125 0.950 . S
H1130 C1127 0.950 . S
C1131 C1122 1.390 . S
C1131 H1124 0.950 . S
C1131 C1128 1.387 . S
C1132 C1133 1.387 . S
C1132 H1136 0.950 . S
C1132 C1141 1.390 . S
C1133 C1132 1.387 . S
C1133 C1135 1.387 . S
H1134 C1141 0.950 . S
C1135 C1133 1.387 . S
C1135 C1137 1.390 . S
C1135 H1139 0.950 1_565 S
H1136 C1132 0.950 . S
C1137 C1135 1.390 . S
C1137 C1138 1.387 . S
C1137 H1140 0.950 . S
C1138 C1137 1.387 . S
C1138 C1141 1.387 . S
H1139 C1135 0.950 1_545 S
H1140 C1137 0.950 . S
C1141 C1132 1.390 . S
C1141 H1134 0.950 . S
C1141 C1138 1.387 . S
C1142 C1143 1.387 . S
C1142 H1146 0.950 . S
C1142 C1151 1.390 . S
C1143 C1142 1.387 . S
C1143 C1145 1.387 . S
H1144 C1151 0.950 . S
C1145 C1143 1.387 . S
C1145 C1147 1.390 . S
C1145 H1149 0.950 1_565 S
H1146 C1142 0.950 . S
C1147 C1145 1.390 . S
C1147 C1148 1.387 . S
C1147 H1150 0.950 . S
C1148 C1147 1.387 . S
C1148 C1151 1.387 . S
H1149 C1145 0.950 1_545 S
H1150 C1147 0.950 . S
C1151 C1142 1.390 . S
C1151 H1144 0.950 . S
C1151 C1148 1.387 . S
C1152 C1153 1.387 . S
C1152 H1156 0.950 . S
C1152 C1161 1.390 . S
C1153 C1152 1.387 . S
C1153 C1155 1.387 . S
H1154 C1161 0.950 . S
C1155 C1153 1.387 . S
C1155 C1157 1.390 . S
C1155 H1159 0.950 . S
H1156 C1152 0.950 . S
C1157 C1155 1.390 . S
C1157 C1158 1.387 . S
C1157 H1160 0.950 . S
C1158 C1157 1.387 . S
C1158 C1161 1.387 . S
H1159 C1155 0.950 . S
H1160 C1157 0.950 . S
C1161 C1152 1.390 . S
C1161 H1154 0.950 . S
C1161 C1158 1.387 . S
C1162 C1163 1.387 . S
C1162 H1166 0.950 . S
C1162 C1171 1.390 . S
C1163 C1162 1.387 . S
C1163 C1165 1.387 . S
H1164 C1171 0.950 . S
C1165 C1163 1.387 . S
C1165 C1167 1.390 . S
C1165 H1169 0.950 . S
H1166 C1162 0.950 . S
C1167 C1165 1.390 . S
C1167 C1168 1.387 . S
C1167 H1170 0.950 . S
C1168 C1167 1.387 . S
C1168 C1171 1.387 . S
H1169 C1165 0.950 . S
H1170 C1167 0.950 . S
C1171 C1162 1.390 . S
C1171 H1164 0.950 . S
C1171 C1168 1.387 . S
C1172 C1173 1.387 . S
C1172 H1176 0.950 . S
C1172 C1181 1.390 . S
C1173 C1172 1.387 . S
C1173 C1175 1.387 . S
H1174 C1181 0.950 . S
C1175 C1173 1.387 . S
C1175 C1177 1.390 . S
C1175 H1179 0.950 . S
H1176 C1172 0.950 . S
C1177 C1175 1.390 . S
C1177 C1178 1.387 . S
C1177 H1180 0.950 . S
C1178 C1177 1.387 . S
C1178 C1181 1.387 . S
H1179 C1175 0.950 . S
H1180 C1177 0.950 . S
C1181 C1172 1.390 . S
C1181 H1174 0.950 . S
C1181 C1178 1.387 . S
C1182 C1183 1.387 . S
C1182 H1186 0.950 . S
C1182 C1191 1.390 . S
C1183 C1182 1.387 . S
C1183 C1185 1.387 . S
H1184 C1191 0.950 . S
C1185 C1183 1.387 . S
C1185 C1187 1.390 . S
C1185 H1189 0.950 . S
H1186 C1182 0.950 . S
C1187 C1185 1.390 . S
C1187 C1188 1.387 . S
C1187 H1190 0.950 . S
C1188 C1187 1.387 . S
C1188 C1191 1.387 . S
H1189 C1185 0.950 . S
H1190 C1187 0.950 . S
C1191 C1182 1.390 . S
C1191 H1184 0.950 . S
C1191 C1188 1.387 . S
C1192 C1193 1.387 . S
C1192 H1196 0.950 . S
C1192 C1201 1.390 . S
C1193 C1192 1.387 . S
C1193 C1195 1.387 . S
H1194 C1201 0.950 . S
C1195 C1193 1.387 . S
C1195 C1197 1.390 . S
C1195 H1199 0.950 . S
H1196 C1192 0.950 . S
C1197 C1195 1.390 . S
C1197 C1198 1.387 . S
C1197 H1200 0.950 . S
C1198 C1197 1.387 . S
C1198 C1201 1.387 . S
H1199 C1195 0.950 . S
H1200 C1197 0.950 . S
C1201 C1192 1.390 . S
C1201 H1194 0.950 . S
C1201 C1198 1.387 . S
C1202 C1203 1.387 . S
C1202 H1206 0.950 . S
C1202 C1211 1.390 . S
C1203 C1202 1.387 . S
C1203 C1205 1.387 . S
H1204 C1211 0.950 . S
C1205 C1203 1.387 . S
C1205 C1207 1.390 . S
C1205 H1209 0.950 . S
H1206 C1202 0.950 . S
C1207 C1205 1.390 . S
C1207 C1208 1.387 . S
C1207 H1210 0.950 . S
C1208 C1207 1.387 . S
C1208 C1211 1.387 . S
H1209 C1205 0.950 . S
H1210 C1207 0.950 . S
C1211 C1202 1.390 . S
C1211 H1204 0.950 . S
C1211 C1208 1.387 . S
C1212 C1213 1.387 . S
C1212 H1216 0.950 . S
C1212 C1221 1.390 . S
C1213 C1212 1.387 . S
C1213 C1215 1.387 . S
H1214 C1221 0.950 . S
C1215 C1213 1.387 . S
C1215 C1217 1.390 . S
C1215 H1219 0.950 1_556 S
H1216 C1212 0.950 . S
C1217 C1215 1.390 . S
C1217 C1218 1.387 . S
C1217 H1220 0.950 . S
C1218 C1217 1.387 . S
C1218 C1221 1.387 . S
H1219 C1215 0.950 1_554 S
H1220 C1217 0.950 . S
C1221 C1212 1.390 . S
C1221 H1214 0.950 . S
C1221 C1218 1.387 . S
C1222 C1223 1.387 . S
C1222 H1226 0.950 . S
C1222 C1231 1.390 . S
C1223 C1222 1.387 . S
C1223 C1225 1.387 . S
H1224 C1231 0.950 . S
C1225 C1223 1.387 . S
C1225 C1227 1.390 . S
C1225 H1229 0.950 . S
H1226 C1222 0.950 . S
C1227 C1225 1.390 . S
C1227 C1228 1.387 . S
C1227 H1230 0.950 . S
C1228 C1227 1.387 . S
C1228 C1231 1.387 . S
H1229 C1225 0.950 . S
H1230 C1227 0.950 . S
C1231 C1222 1.390 . S
C1231 H1224 0.950 . S
C1231 C1228 1.387 . S
C1232 C1233 1.387 . S
C1232 H1236 0.950 . S
C1232 C1241 1.390 . S
C1233 C1232 1.387 . S
C1233 C1235 1.387 . S
H1234 C1241 0.950 . S
C1235 C1233 1.387 . S
C1235 C1237 1.390 . S
C1235 H1239 0.950 . S
H1236 C1232 0.950 . S
C1237 C1235 1.390 . S
C1237 C1238 1.387 . S
C1237 H1240 0.950 . S
C1238 C1237 1.387 . S
C1238 C1241 1.387 . S
H1239 C1235 0.950 . S
H1240 C1237 0.950 . S
C1241 C1232 1.390 . S
C1241 H1234 0.950 . S
C1241 C1238 1.387 . S
C1242 C1243 1.387 . S
C1242 H1246 0.950 . S
C1242 C1251 1.390 . S
C1243 C1242 1.387 . S
C1243 C1245 1.387 . S
H1244 C1251 0.950 . S
C1245 C1243 1.387 . S
C1245 C1247 1.390 . S
C1245 H1249 0.950 . S
H1246 C1242 0.950 . S
C1247 C1245 1.390 . S
C1247 C1248 1.387 . S
C1247 H1250 0.950 . S
C1248 C1247 1.387 . S
C1248 C1251 1.387 . S
H1249 C1245 0.950 . S
H1250 C1247 0.950 . S
C1251 C1242 1.390 . S
C1251 H1244 0.950 . S
C1251 C1248 1.387 . S
C1252 C1253 1.387 . S
C1252 H1256 0.950 . S
C1252 C1261 1.390 . S
C1253 C1252 1.387 . S
C1253 C1255 1.387 . S
H1254 C1261 0.950 . S
C1255 C1253 1.387 . S
C1255 C1257 1.390 . S
C1255 H1259 0.950 . S
H1256 C1252 0.950 . S
C1257 C1255 1.390 . S
C1257 C1258 1.387 . S
C1257 H1260 0.950 . S
C1258 C1257 1.387 . S
C1258 C1261 1.387 . S
H1259 C1255 0.950 . S
H1260 C1257 0.950 . S
C1261 C1252 1.390 . S
C1261 H1254 0.950 . S
C1261 C1258 1.387 . S
C1262 C1263 1.387 . S
C1262 H1266 0.950 . S
C1262 C1271 1.390 . S
C1263 C1262 1.387 . S
C1263 C1265 1.387 . S
H1264 C1271 0.950 . S
C1265 C1263 1.387 . S
C1265 C1267 1.390 . S
C1265 H1269 0.950 . S
H1266 C1262 0.950 . S
C1267 C1265 1.390 . S
C1267 C1268 1.387 . S
C1267 H1270 0.950 . S
C1268 C1267 1.387 . S
C1268 C1271 1.387 . S
H1269 C1265 0.950 . S
H1270 C1267 0.950 . S
C1271 C1262 1.390 . S
C1271 H1264 0.950 . S
C1271 C1268 1.387 . S
C1272 C1273 1.387 . S
C1272 H1276 0.950 . S
C1272 C1281 1.390 . S
C1273 C1272 1.387 . S
C1273 C1275 1.387 . S
H1274 C1281 0.950 . S
C1275 C1273 1.387 . S
C1275 C1277 1.390 . S
C1275 H1279 0.950 . S
H1276 C1272 0.950 . S
C1277 C1275 1.390 . S
C1277 C1278 1.387 . S
C1277 H1280 0.950 . S
C1278 C1277 1.387 . S
C1278 C1281 1.387 . S
H1279 C1275 0.950 . S
H1280 C1277 0.950 . S
C1281 C1272 1.390 . S
C1281 H1274 0.950 . S
C1281 C1278 1.387 . S
C1282 C1283 1.387 . S
C1282 H1286 0.950 . S
C1282 C1291 1.390 . S
C1283 C1282 1.387 . S
C1283 C1285 1.387 . S
H1284 C1291 0.950 . S
C1285 C1283 1.387 . S
C1285 C1287 1.390 . S
C1285 H1289 0.950 . S
H1286 C1282 0.950 . S
C1287 C1285 1.390 . S
C1287 C1288 1.387 . S
C1287 H1290 0.950 . S
C1288 C1287 1.387 . S
C1288 C1291 1.387 . S
H1289 C1285 0.950 . S
H1290 C1287 0.950 . S
C1291 C1282 1.390 . S
C1291 H1284 0.950 . S
C1291 C1288 1.387 . S
C1292 C1293 1.387 . S
C1292 H1296 0.950 . S
C1292 C1301 1.390 . S
C1293 C1292 1.387 . S
C1293 C1295 1.387 . S
H1294 C1301 0.950 . S
C1295 C1293 1.387 . S
C1295 C1297 1.390 . S
C1295 H1299 0.950 . S
H1296 C1292 0.950 . S
C1297 C1295 1.390 . S
C1297 C1298 1.387 . S
C1297 H1300 0.950 . S
C1298 C1297 1.387 . S
C1298 C1301 1.387 . S
H1299 C1295 0.950 . S
H1300 C1297 0.950 . S
C1301 C1292 1.390 . S
C1301 H1294 0.950 . S
C1301 C1298 1.387 . S
C1302 C1303 1.387 . S
C1302 H1306 0.950 . S
C1302 C1311 1.390 . S
C1303 C1302 1.387 . S
C1303 C1305 1.387 . S
H1304 C1311 0.950 . S
C1305 C1303 1.387 . S
C1305 C1307 1.390 . S
C1305 H1309 0.950 . S
H1306 C1302 0.950 . S
C1307 C1305 1.390 . S
C1307 C1308 1.387 . S
C1307 H1310 0.950 . S
C1308 C1307 1.387 . S
C1308 C1311 1.387 . S
H1309 C1305 0.950 . S
H1310 C1307 0.950 . S
C1311 C1302 1.390 . S
C1311 H1304 0.950 . S
C1311 C1308 1.387 . S
C1312 C1313 1.387 . S
C1312 H1316 0.950 . S
C1312 C1321 1.390 . S
C1313 C1312 1.387 . S
C1313 C1315 1.387 . S
H1314 C1321 0.950 . S
C1315 C1313 1.387 . S
C1315 C1317 1.390 . S
C1315 H1319 0.950 . S
H1316 C1312 0.950 . S
C1317 C1315 1.390 . S
C1317 C1318 1.387 . S
C1317 H1320 0.950 . S
C1318 C1317 1.387 . S
C1318 C1321 1.387 . S
H1319 C1315 0.950 . S
H1320 C1317 0.950 . S
C1321 C1312 1.390 . S
C1321 H1314 0.950 . S
C1321 C1318 1.387 . S
C1322 C1323 1.387 . S
C1322 H1326 0.950 . S
C1322 C1331 1.390 . S
C1323 C1322 1.387 . S
C1323 C1325 1.387 . S
H1324 C1331 0.950 . S
C1325 C1323 1.387 . S
C1325 C1327 1.390 . S
C1325 H1329 0.950 . S
H1326 C1322 0.950 . S
C1327 C1325 1.390 . S
C1327 C1328 1.387 . S
C1327 H1330 0.950 . S
C1328 C1327 1.387 . S
C1328 C1331 1.387 . S
H1329 C1325 0.950 . S
H1330 C1327 0.950 . S
C1331 C1322 1.390 . S
C1331 H1324 0.950 . S
C1331 C1328 1.387 . S
C1332 C1333 1.387 . S
C1332 H1336 0.950 . S
C1332 C1341 1.390 . S
C1333 C1332 1.387 . S
C1333 C1335 1.387 . S
H1334 C1341 0.950 . S
C1335 C1333 1.387 . S
C1335 C1337 1.390 . S
C1335 H1339 0.950 . S
H1336 C1332 0.950 . S
C1337 C1335 1.390 . S
C1337 C1338 1.387 . S
C1337 H1340 0.950 . S
C1338 C1337 1.387 . S
C1338 C1341 1.387 . S
H1339 C1335 0.950 . S
H1340 C1337 0.950 . S
C1341 C1332 1.390 . S
C1341 H1334 0.950 . S
C1341 C1338 1.387 . S
C1342 C1343 1.387 . S
C1342 H1346 0.950 . S
C1342 C1351 1.390 . S
C1343 C1342 1.387 . S
C1343 C1345 1.387 . S
H1344 C1351 0.950 . S
C1345 C1343 1.387 . S
C1345 C1347 1.390 . S
C1345 H1349 0.950 . S
H1346 C1342 0.950 . S
C1347 C1345 1.390 . S
C1347 C1348 1.387 . S
C1347 H1350 0.950 1_455 S
C1348 C1347 1.387 . S
C1348 C1351 1.387 . S
H1349 C1345 0.950 . S
H1350 C1347 0.950 1_655 S
C1351 C1342 1.390 . S
C1351 H1344 0.950 . S
C1351 C1348 1.387 . S
C1352 C1353 1.387 . S
C1352 H1356 0.950 . S
C1352 C1361 1.390 . S
C1353 C1352 1.387 . S
C1353 C1355 1.387 . S
H1354 C1361 0.950 . S
C1355 C1353 1.387 . S
C1355 C1357 1.390 . S
C1355 H1359 0.950 . S
H1356 C1352 0.950 . S
C1357 C1355 1.390 . S
C1357 C1358 1.387 . S
C1357 H1360 0.950 . S
C1358 C1357 1.387 . S
C1358 C1361 1.387 . S
H1359 C1355 0.950 . S
H1360 C1357 0.950 . S
C1361 C1352 1.390 . S
C1361 H1354 0.950 . S
C1361 C1358 1.387 . S
C1362 C1363 1.387 . S
C1362 H1366 0.950 . S
C1362 C1371 1.390 . S
C1363 C1362 1.387 . S
C1363 C1365 1.387 . S
H1364 C1371 0.950 . S
C1365 C1363 1.387 . S
C1365 C1367 1.390 . S
C1365 H1369 0.950 . S
H1366 C1362 0.950 . S
C1367 C1365 1.390 . S
C1367 C1368 1.387 . S
C1367 H1370 0.950 . S
C1368 C1367 1.387 . S
C1368 C1371 1.387 . S
H1369 C1365 0.950 . S
H1370 C1367 0.950 . S
C1371 C1362 1.390 . S
C1371 H1364 0.950 . S
C1371 C1368 1.387 . S
C1372 C1373 1.387 . S
C1372 H1376 0.950 . S
C1372 C1381 1.390 . S
C1373 C1372 1.387 . S
C1373 C1375 1.387 . S
H1374 C1381 0.950 . S
C1375 C1373 1.387 . S
C1375 C1377 1.390 . S
C1375 H1379 0.950 . S
H1376 C1372 0.950 . S
C1377 C1375 1.390 . S
C1377 C1378 1.387 . S
C1377 H1380 0.950 . S
C1378 C1377 1.387 . S
C1378 C1381 1.387 . S
H1379 C1375 0.950 . S
H1380 C1377 0.950 . S
C1381 C1372 1.390 . S
C1381 H1374 0.950 . S
C1381 C1378 1.387 . S
C1382 C1383 1.387 . S
C1382 H1386 0.950 . S
C1382 C1391 1.390 . S
C1383 C1382 1.387 . S
C1383 C1385 1.387 . S
H1384 C1391 0.950 . S
C1385 C1383 1.387 . S
C1385 C1387 1.390 . S
C1385 H1389 0.950 . S
H1386 C1382 0.950 . S
C1387 C1385 1.390 . S
C1387 C1388 1.387 . S
C1387 H1390 0.950 1_545 S
C1388 C1387 1.387 . S
C1388 C1391 1.387 . S
H1389 C1385 0.950 . S
H1390 C1387 0.950 1_565 S
C1391 C1382 1.390 . S
C1391 H1384 0.950 . S
C1391 C1388 1.387 . S
C1392 C1393 1.387 . S
C1392 H1396 0.950 . S
C1392 C1401 1.390 . S
C1393 C1392 1.387 . S
C1393 C1395 1.387 . S
H1394 C1401 0.950 . S
C1395 C1393 1.387 . S
C1395 C1397 1.390 . S
C1395 H1399 0.950 . S
H1396 C1392 0.950 . S
C1397 C1395 1.390 . S
C1397 C1398 1.387 . S
C1397 H1400 0.950 . S
C1398 C1397 1.387 . S
C1398 C1401 1.387 . S
H1399 C1395 0.950 . S
H1400 C1397 0.950 . S
C1401 C1392 1.390 . S
C1401 H1394 0.950 . S
C1401 C1398 1.387 . S
C1402 C1403 1.387 . S
C1402 H1406 0.950 . S
C1402 C1411 1.390 . S
C1403 C1402 1.387 . S
C1403 C1405 1.387 . S
H1404 C1411 0.950 . S
C1405 C1403 1.387 . S
C1405 C1407 1.390 . S
C1405 H1409 0.950 . S
H1406 C1402 0.950 . S
C1407 C1405 1.390 . S
C1407 C1408 1.387 . S
C1407 H1410 0.950 . S
C1408 C1407 1.387 . S
C1408 C1411 1.387 . S
H1409 C1405 0.950 . S
H1410 C1407 0.950 . S
C1411 C1402 1.390 . S
C1411 H1404 0.950 . S
C1411 C1408 1.387 . S
C1412 C1413 1.387 . S
C1412 H1416 0.950 . S
C1412 C1421 1.390 . S
C1413 C1412 1.387 . S
C1413 C1415 1.387 . S
H1414 C1421 0.950 . S
C1415 C1413 1.387 . S
C1415 C1417 1.390 . S
C1415 H1419 0.950 . S
H1416 C1412 0.950 . S
C1417 C1415 1.390 . S
C1417 C1418 1.387 . S
C1417 H1420 0.950 . S
C1418 C1417 1.387 . S
C1418 C1421 1.387 . S
H1419 C1415 0.950 . S
H1420 C1417 0.950 . S
C1421 C1412 1.390 . S
C1421 H1414 0.950 . S
C1421 C1418 1.387 . S
C1422 C1423 1.387 . S
C1422 H1426 0.950 . S
C1422 C1431 1.390 . S
C1423 C1422 1.387 . S
C1423 C1425 1.387 . S
H1424 C1431 0.950 . S
C1425 C1423 1.387 . S
C1425 C1427 1.390 . S
C1425 H1429 0.950 . S
H1426 C1422 0.950 . S
C1427 C1425 1.390 . S
C1427 C1428 1.387 . S
C1427 H1430 0.950 . S
C1428 C1427 1.387 . S
C1428 C1431 1.387 . S
H1429 C1425 0.950 . S
H1430 C1427 0.950 . S
C1431 C1422 1.390 . S
C1431 H1424 0.950 . S
C1431 C1428 1.387 . S
C1432 C1433 1.387 . S
C1432 H1436 0.950 . S
C1432 C1441 1.390 . S
C1433 C1432 1.387 . S
C1433 C1435 1.387 . S
H1434 C1441 0.950 . S
C1435 C1433 1.387 . S
C1435 C1437 1.390 . S
C1435 H1439 0.950 . S
H1436 C1432 0.950 . S
C1437 C1435 1.390 . S
C1437 C1438 1.387 . S
C1437 H1440 0.950 . S
C1438 C1437 1.387 . S
C1438 C1441 1.387 . S
H1439 C1435 0.950 . S
H1440 C1437 0.950 . S
C1441 C1432 1.390 . S
C1441 H1434 0.950 . S
C1441 C1438 1.387 . S
C1442 C1443 1.387 . S
C1442 H1446 0.950 . S
C1442 C1451 1.390 . S
C1443 C1442 1.387 . S
C1443 C1445 1.387 . S
H1444 C1451 0.950 . S
C1445 C1443 1.387 . S
C1445 C1447 1.390 . S
C1445 H1449 0.950 . S
H1446 C1442 0.950 . S
C1447 C1445 1.390 . S
C1447 C1448 1.387 . S
C1447 H1450 0.950 . S
C1448 C1447 1.387 . S
C1448 C1451 1.387 . S
H1449 C1445 0.950 . S
H1450 C1447 0.950 . S
C1451 C1442 1.390 . S
C1451 H1444 0.950 . S
C1451 C1448 1.387 . S
C1452 C1453 1.387 . S
C1452 H1456 0.950 . S
C1452 C1461 1.390 . S
C1453 C1452 1.387 . S
C1453 C1455 1.387 . S
H1454 C1461 0.950 . S
C1455 C1453 1.387 . S
C1455 C1457 1.390 . S
C1455 H1459 0.950 . S
H1456 C1452 0.950 . S
C1457 C1455 1.390 . S
C1457 C1458 1.387 . S
C1457 H1460 0.950 . S
C1458 C1457 1.387 . S
C1458 C1461 1.387 . S
H1459 C1455 0.950 . S
H1460 C1457 0.950 . S
C1461 C1452 1.390 . S
C1461 H1454 0.950 . S
C1461 C1458 1.387 . S
C1462 C1463 1.387 . S
C1462 H1466 0.950 . S
C1462 C1471 1.390 . S
C1463 C1462 1.387 . S
C1463 C1465 1.387 . S
H1464 C1471 0.950 . S
C1465 C1463 1.387 . S
C1465 C1467 1.390 . S
C1465 H1469 0.950 . S
H1466 C1462 0.950 . S
C1467 C1465 1.390 . S
C1467 C1468 1.387 . S
C1467 H1470 0.950 . S
C1468 C1467 1.387 . S
C1468 C1471 1.387 . S
H1469 C1465 0.950 . S
H1470 C1467 0.950 . S
C1471 C1462 1.390 . S
C1471 H1464 0.950 . S
C1471 C1468 1.387 . S
C1472 C1473 1.387 . S
C1472 H1476 0.950 . S
C1472 C1481 1.390 . S
C1473 C1472 1.387 . S
C1473 C1475 1.387 . S
H1474 C1481 0.950 . S
C1475 C1473 1.387 . S
C1475 C1477 1.390 . S
C1475 H1479 0.950 . S
H1476 C1472 0.950 . S
C1477 C1475 1.390 . S
C1477 C1478 1.387 . S
C1477 H1480 0.950 . S
C1478 C1477 1.387 . S
C1478 C1481 1.387 . S
H1479 C1475 0.950 . S
H1480 C1477 0.950 . S
C1481 C1472 1.390 . S
C1481 H1474 0.950 . S
C1481 C1478 1.387 . S
C1482 C1483 1.387 . S
C1482 H1486 0.950 . S
C1482 C1491 1.390 . S
C1483 C1482 1.387 . S
C1483 C1485 1.387 . S
H1484 C1491 0.950 . S
C1485 C1483 1.387 . S
C1485 C1487 1.390 . S
C1485 H1489 0.950 . S
H1486 C1482 0.950 . S
C1487 C1485 1.390 . S
C1487 C1488 1.387 . S
C1487 H1490 0.950 . S
C1488 C1487 1.387 . S
C1488 C1491 1.387 . S
H1489 C1485 0.950 . S
H1490 C1487 0.950 . S
C1491 C1482 1.390 . S
C1491 H1484 0.950 . S
C1491 C1488 1.387 . S
C1492 C1493 1.387 . S
C1492 H1496 0.950 . S
C1492 C1501 1.390 . S
C1493 C1492 1.387 . S
C1493 C1495 1.387 . S
H1494 C1501 0.950 . S
C1495 C1493 1.387 . S
C1495 C1497 1.390 . S
C1495 H1499 0.950 . S
H1496 C1492 0.950 . S
C1497 C1495 1.390 . S
C1497 C1498 1.387 . S
C1497 H1500 0.950 . S
C1498 C1497 1.387 . S
C1498 C1501 1.387 . S
H1499 C1495 0.950 . S
H1500 C1497 0.950 . S
C1501 C1492 1.390 . S
C1501 H1494 0.950 . S
C1501 C1498 1.387 . S
C1502 C1503 1.387 . S
C1502 H1506 0.950 . S
C1502 C1511 1.390 . S
C1503 C1502 1.387 . S
C1503 C1505 1.387 . S
H1504 C1511 0.950 . S
C1505 C1503 1.387 . S
C1505 C1507 1.390 . S
C1505 H1509 0.950 . S
H1506 C1502 0.950 . S
C1507 C1505 1.390 . S
C1507 C1508 1.387 . S
C1507 H1510 0.950 . S
C1508 C1507 1.387 . S
C1508 C1511 1.387 . S
H1509 C1505 0.950 . S
H1510 C1507 0.950 . S
C1511 C1502 1.390 . S
C1511 H1504 0.950 . S
C1511 C1508 1.387 . S
C1512 C1513 1.387 . S
C1512 H1516 0.950 . S
C1512 C1521 1.390 . S
C1513 C1512 1.387 . S
C1513 C1515 1.387 . S
H1514 C1521 0.950 . S
C1515 C1513 1.387 . S
C1515 C1517 1.390 . S
C1515 H1519 0.950 . S
H1516 C1512 0.950 . S
C1517 C1515 1.390 . S
C1517 C1518 1.387 . S
C1517 H1520 0.950 . S
C1518 C1517 1.387 . S
C1518 C1521 1.387 . S
H1519 C1515 0.950 . S
H1520 C1517 0.950 . S
C1521 C1512 1.390 . S
C1521 H1514 0.950 . S
C1521 C1518 1.387 . S
C1522 C1523 1.387 . S
C1522 H1526 0.950 . S
C1522 C1531 1.390 . S
C1523 C1522 1.387 . S
C1523 C1525 1.387 . S
H1524 C1531 0.950 . S
C1525 C1523 1.387 . S
C1525 C1527 1.390 . S
C1525 H1529 0.950 . S
H1526 C1522 0.950 . S
C1527 C1525 1.390 . S
C1527 C1528 1.387 . S
C1527 H1530 0.950 . S
C1528 C1527 1.387 . S
C1528 C1531 1.387 . S
H1529 C1525 0.950 . S
H1530 C1527 0.950 . S
C1531 C1522 1.390 . S
C1531 H1524 0.950 . S
C1531 C1528 1.387 . S
C1532 C1533 1.387 . S
C1532 H1536 0.950 . S
C1532 C1541 1.390 . S
C1533 C1532 1.387 . S
C1533 C1535 1.387 . S
H1534 C1541 0.950 . S
C1535 C1533 1.387 . S
C1535 C1537 1.390 . S
C1535 H1539 0.950 . S
H1536 C1532 0.950 . S
C1537 C1535 1.390 . S
C1537 C1538 1.387 . S
C1537 H1540 0.950 . S
C1538 C1537 1.387 . S
C1538 C1541 1.387 . S
H1539 C1535 0.950 . S
H1540 C1537 0.950 . S
C1541 C1532 1.390 . S
C1541 H1534 0.950 . S
C1541 C1538 1.387 . S
C1542 C1543 1.387 . S
C1542 H1546 0.950 . S
C1542 C1551 1.390 . S
C1543 C1542 1.387 . S
C1543 C1545 1.387 . S
H1544 C1551 0.950 . S
C1545 C1543 1.387 . S
C1545 C1547 1.390 . S
C1545 H1549 0.950 . S
H1546 C1542 0.950 . S
C1547 C1545 1.390 . S
C1547 C1548 1.387 . S
C1547 H1550 0.950 . S
C1548 C1547 1.387 . S
C1548 C1551 1.387 . S
H1549 C1545 0.950 . S
H1550 C1547 0.950 . S
C1551 C1542 1.390 . S
C1551 H1544 0.950 . S
C1551 C1548 1.387 . S
C1552 C1553 1.387 . S
C1552 H1556 0.950 . S
C1552 C1561 1.390 . S
C1553 C1552 1.387 . S
C1553 C1555 1.387 . S
H1554 C1561 0.950 . S
C1555 C1553 1.387 . S
C1555 C1557 1.390 . S
C1555 H1559 0.950 . S
H1556 C1552 0.950 . S
C1557 C1555 1.390 . S
C1557 C1558 1.387 . S
C1557 H1560 0.950 . S
C1558 C1557 1.387 . S
C1558 C1561 1.387 . S
H1559 C1555 0.950 . S
H1560 C1557 0.950 . S
C1561 C1552 1.390 . S
C1561 H1554 0.950 . S
C1561 C1558 1.387 . S
C1562 C1563 1.387 . S
C1562 H1566 0.950 . S
C1562 C1571 1.390 . S
C1563 C1562 1.387 . S
C1563 C1565 1.387 . S
H1564 C1571 0.950 . S
C1565 C1563 1.387 . S
C1565 C1567 1.390 . S
C1565 H1569 0.950 . S
H1566 C1562 0.950 . S
C1567 C1565 1.390 . S
C1567 C1568 1.387 . S
C1567 H1570 0.950 . S
C1568 C1567 1.387 . S
C1568 C1571 1.387 . S
H1569 C1565 0.950 . S
H1570 C1567 0.950 . S
C1571 C1562 1.390 . S
C1571 H1564 0.950 . S
C1571 C1568 1.387 . S
C1572 C1573 1.387 . S
C1572 H1576 0.950 . S
C1572 C1581 1.390 . S
C1573 C1572 1.387 . S
C1573 C1575 1.387 . S
H1574 C1581 0.950 . S
C1575 C1573 1.387 . S
C1575 C1577 1.390 . S
C1575 H1579 0.950 . S
H1576 C1572 0.950 . S
C1577 C1575 1.390 . S
C1577 C1578 1.387 . S
C1577 H1580 0.950 . S
C1578 C1577 1.387 . S
C1578 C1581 1.387 . S
H1579 C1575 0.950 . S
H1580 C1577 0.950 . S
C1581 C1572 1.390 . S
C1581 H1574 0.950 . S
C1581 C1578 1.387 . S
C1582 C1583 1.387 . S
C1582 H1586 0.950 . S
C1582 C1591 1.390 . S
C1583 C1582 1.387 . S
C1583 C1585 1.387 . S
H1584 C1591 0.950 . S
C1585 C1583 1.387 . S
C1585 C1587 1.390 . S
C1585 H1589 0.950 . S
H1586 C1582 0.950 . S
C1587 C1585 1.390 . S
C1587 C1588 1.387 . S
C1587 H1590 0.950 . S
C1588 C1587 1.387 . S
C1588 C1591 1.387 . S
H1589 C1585 0.950 . S
H1590 C1587 0.950 . S
C1591 C1582 1.390 . S
C1591 H1584 0.950 . S
C1591 C1588 1.387 . S
C1592 C1593 1.387 . S
C1592 H1596 0.950 . S
C1592 C1601 1.390 . S
C1593 C1592 1.387 . S
C1593 C1595 1.387 . S
H1594 C1601 0.950 . S
C1595 C1593 1.387 . S
C1595 C1597 1.390 . S
C1595 H1599 0.950 . S
H1596 C1592 0.950 . S
C1597 C1595 1.390 . S
C1597 C1598 1.387 . S
C1597 H1600 0.950 . S
C1598 C1597 1.387 . S
C1598 C1601 1.387 . S
H1599 C1595 0.950 . S
H1600 C1597 0.950 . S
C1601 C1592 1.390 . S
C1601 H1594 0.950 . S
C1601 C1598 1.387 . S
C1602 C1603 1.387 . S
C1602 H1606 0.950 . S
C1602 C1611 1.390 . S
C1603 C1602 1.387 . S
C1603 C1605 1.387 . S
H1604 C1611 0.950 . S
C1605 C1603 1.387 . S
C1605 C1607 1.390 . S
C1605 H1609 0.950 . S
H1606 C1602 0.950 . S
C1607 C1605 1.390 . S
C1607 C1608 1.387 . S
C1607 H1610 0.950 . S
C1608 C1607 1.387 . S
C1608 C1611 1.387 . S
H1609 C1605 0.950 . S
H1610 C1607 0.950 . S
C1611 C1602 1.390 . S
C1611 H1604 0.950 . S
C1611 C1608 1.387 . S
C1612 C1613 1.387 . S
C1612 H1616 0.950 . S
C1612 C1621 1.390 . S
C1613 C1612 1.387 . S
C1613 C1615 1.387 . S
H1614 C1621 0.950 . S
C1615 C1613 1.387 . S
C1615 C1617 1.390 . S
C1615 H1619 0.950 . S
H1616 C1612 0.950 . S
C1617 C1615 1.390 . S
C1617 C1618 1.387 . S
C1617 H1620 0.950 . S
C1618 C1617 1.387 . S
C1618 C1621 1.387 . S
H1619 C1615 0.950 . S
H1620 C1617 0.950 . S
C1621 C1612 1.390 . S
C1621 H1614 0.950 . S
C1621 C1618 1.387 . S
C1622 C1623 1.387 . S
C1622 H1626 0.950 . S
C1622 C1631 1.390 . S
C1623 C1622 1.387 . S
C1623 C1625 1.387 . S
H1624 C1631 0.950 1_556 S
C1625 C1623 1.387 . S
C1625 C1627 1.390 . S
C1625 H1629 0.950 . S
H1626 C1622 0.950 . S
C1627 C1625 1.390 . S
C1627 C1628 1.387 . S
C1627 H1630 0.932 1_545 S
C1628 C1627 1.387 . S
C1628 C1631 1.387 . S
H1629 C1625 0.950 . S
H1630 C1627 0.932 1_565 S
C1631 C1622 1.390 . S
C1631 H1624 0.950 1_554 S
C1631 C1628 1.387 . S
C1632 C1633 1.387 . S
C1632 H1636 0.950 . S
C1632 C1641 1.390 . S
C1633 C1632 1.387 . S
C1633 C1635 1.387 . S
H1634 C1641 0.950 . S
C1635 C1633 1.387 . S
C1635 C1637 1.390 . S
C1635 H1639 0.950 . S
H1636 C1632 0.950 . S
C1637 C1635 1.390 . S
C1637 C1638 1.387 . S
C1637 H1640 0.950 . S
C1638 C1637 1.387 . S
C1638 C1641 1.387 . S
H1639 C1635 0.950 . S
H1640 C1637 0.950 . S
C1641 C1632 1.390 . S
C1641 H1634 0.950 . S
C1641 C1638 1.387 . S
C1642 C1643 1.387 . S
C1642 H1646 0.950 1_565 S
C1642 C1651 1.390 . S
C1643 C1642 1.387 . S
C1643 C1645 1.387 . S
H1644 C1651 0.950 . S
C1645 C1643 1.387 . S
C1645 C1647 1.390 . S
C1645 H1649 0.950 . S
H1646 C1642 0.950 1_545 S
C1647 C1645 1.390 . S
C1647 C1648 1.387 . S
C1647 H1650 0.950 . S
C1648 C1647 1.387 . S
C1648 C1651 1.387 . S
H1649 C1645 0.950 . S
H1650 C1647 0.950 . S
C1651 C1642 1.390 . S
C1651 H1644 0.950 . S
C1651 C1648 1.387 . S
C1652 C1653 1.387 . S
C1652 H1656 0.950 . S
C1652 C1661 1.390 . S
C1653 C1652 1.387 . S
C1653 C1655 1.387 . S
H1654 C1661 0.950 . S
C1655 C1653 1.387 . S
C1655 C1657 1.390 . S
C1655 H1659 0.950 . S
H1656 C1652 0.950 . S
C1657 C1655 1.390 . S
C1657 C1658 1.387 . S
C1657 H1660 0.950 . S
C1658 C1657 1.387 . S
C1658 C1661 1.387 . S
H1659 C1655 0.950 . S
H1660 C1657 0.950 . S
C1661 C1652 1.390 . S
C1661 H1654 0.950 . S
C1661 C1658 1.387 . S
C1662 C1663 1.387 . S
C1662 H1666 0.950 . S
C1662 C1671 1.390 . S
C1663 C1662 1.387 . S
C1663 C1665 1.387 . S
H1664 C1671 0.950 1_565 S
C1665 C1663 1.387 . S
C1665 C1667 1.390 . S
C1665 H1669 0.950 . S
H1666 C1662 0.950 . S
C1667 C1665 1.390 . S
C1667 C1668 1.387 . S
C1667 H1670 0.950 1_556 S
C1668 C1667 1.387 . S
C1668 C1671 1.387 . S
H1669 C1665 0.950 . S
H1670 C1667 0.950 1_554 S
C1671 C1662 1.390 . S
C1671 H1664 0.950 1_545 S
C1671 C1668 1.387 . S
C1672 C1673 1.387 . S
C1672 H1676 0.950 . S
C1672 C1681 1.390 . S
C1673 C1672 1.387 . S
C1673 C1675 1.387 . S
H1674 C1681 0.950 . S
C1675 C1673 1.387 . S
C1675 C1677 1.390 . S
C1675 H1679 0.950 . S
H1676 C1672 0.950 . S
C1677 C1675 1.390 . S
C1677 C1678 1.387 . S
C1677 H1680 0.950 . S
C1678 C1677 1.387 . S
C1678 C1681 1.387 . S
H1679 C1675 0.950 . S
H1680 C1677 0.950 . S
C1681 C1672 1.390 . S
C1681 H1674 0.950 . S
C1681 C1678 1.387 . S
C1682 C1683 1.387 . S
C1682 H1686 0.950 . S
C1682 C1691 1.390 . S
C1683 C1682 1.387 . S
C1683 C1685 1.387 . S
H1684 C1691 0.950 . S
C1685 C1683 1.387 . S
C1685 C1687 1.390 . S
C1685 H1689 0.950 . S
H1686 C1682 0.950 . S
C1687 C1685 1.390 . S
C1687 C1688 1.387 . S
C1687 H1690 0.950 . S
C1688 C1687 1.387 . S
C1688 C1691 1.387 . S
H1689 C1685 0.950 . S
H1690 C1687 0.950 . S
C1691 C1682 1.390 . S
C1691 H1684 0.950 . S
C1691 C1688 1.387 . S
C1692 C1693 1.387 . S
C1692 H1696 0.950 . S
C1692 C1701 1.390 . S
C1693 C1692 1.387 . S
C1693 C1695 1.387 . S
H1694 C1701 0.950 . S
C1695 C1693 1.387 . S
C1695 C1697 1.390 . S
C1695 H1699 0.950 . S
H1696 C1692 0.950 . S
C1697 C1695 1.390 . S
C1697 C1698 1.387 . S
C1697 H1700 0.950 . S
C1698 C1697 1.387 . S
C1698 C1701 1.387 . S
H1699 C1695 0.950 . S
H1700 C1697 0.950 . S
C1701 C1692 1.390 . S
C1701 H1694 0.950 . S
C1701 C1698 1.387 . S
C1702 C1703 1.387 . S
C1702 H1706 0.950 . S
C1702 C1711 1.390 . S
C1703 C1702 1.387 . S
C1703 C1705 1.387 . S
H1704 C1711 0.950 . S
C1705 C1703 1.387 . S
C1705 C1707 1.390 . S
C1705 H1709 0.950 . S
H1706 C1702 0.950 . S
C1707 C1705 1.390 . S
C1707 C1708 1.387 . S
C1707 H1710 0.950 . S
C1708 C1707 1.387 . S
C1708 C1711 1.387 . S
H1709 C1705 0.950 . S
H1710 C1707 0.950 . S
C1711 C1702 1.390 . S
C1711 H1704 0.950 . S
C1711 C1708 1.387 . S
C1712 C1713 1.387 . S
C1712 H1716 0.950 . S
C1712 C1721 1.390 . S
C1713 C1712 1.387 . S
C1713 C1715 1.387 . S
H1714 C1721 0.950 1_545 S
C1715 C1713 1.387 . S
C1715 C1717 1.390 . S
C1715 H1719 0.950 . S
H1716 C1712 0.950 . S
C1717 C1715 1.390 . S
C1717 C1718 1.387 . S
C1717 H1720 0.950 . S
C1718 C1717 1.387 . S
C1718 C1721 1.387 . S
H1719 C1715 0.950 . S
H1720 C1717 0.950 . S
C1721 C1712 1.390 . S
C1721 H1714 0.950 1_565 S
C1721 C1718 1.387 . S
C1722 C1723 1.387 . S
C1722 H1726 0.950 . S
C1722 C1731 1.390 . S
C1723 C1722 1.387 . S
C1723 C1725 1.387 . S
H1724 C1731 0.950 . S
C1725 C1723 1.387 . S
C1725 C1727 1.390 . S
C1725 H1729 0.950 . S
H1726 C1722 0.950 . S
C1727 C1725 1.390 . S
C1727 C1728 1.387 . S
C1727 H1730 0.950 . S
C1728 C1727 1.387 . S
C1728 C1731 1.387 . S
H1729 C1725 0.950 . S
H1730 C1727 0.950 . S
C1731 C1722 1.390 . S
C1731 H1724 0.950 . S
C1731 C1728 1.387 . S
C1732 C1733 1.387 . S
C1732 H1736 0.950 . S
C1732 C1741 1.390 . S
C1733 C1732 1.387 . S
C1733 C1735 1.387 . S
H1734 C1741 0.950 . S
C1735 C1733 1.387 . S
C1735 C1737 1.390 . S
C1735 H1739 0.950 . S
H1736 C1732 0.950 . S
C1737 C1735 1.390 . S
C1737 C1738 1.387 . S
C1737 H1740 0.950 . S
C1738 C1737 1.387 . S
C1738 C1741 1.387 . S
H1739 C1735 0.950 . S
H1740 C1737 0.950 . S
C1741 C1732 1.390 . S
C1741 H1734 0.950 . S
C1741 C1738 1.387 . S
C1742 C1743 1.387 . S
C1742 H1746 0.950 . S
C1742 C1751 1.390 . S
C1743 C1742 1.387 . S
C1743 C1745 1.387 . S
H1744 C1751 0.950 . S
C1745 C1743 1.387 . S
C1745 C1747 1.390 . S
C1745 H1749 0.950 . S
H1746 C1742 0.950 . S
C1747 C1745 1.390 . S
C1747 C1748 1.387 . S
C1747 H1750 0.950 . S
C1748 C1747 1.387 . S
C1748 C1751 1.387 . S
H1749 C1745 0.950 . S
H1750 C1747 0.950 . S
C1751 C1742 1.390 . S
C1751 H1744 0.950 . S
C1751 C1748 1.387 . S
C1752 C1753 1.387 . S
C1752 H1756 0.950 . S
C1752 C1761 1.390 . S
C1753 C1752 1.387 . S
C1753 C1755 1.387 . S
H1754 C1761 0.950 . S
C1755 C1753 1.387 . S
C1755 C1757 1.390 . S
C1755 H1759 0.950 . S
H1756 C1752 0.950 . S
C1757 C1755 1.390 . S
C1757 C1758 1.387 . S
C1757 H1760 0.950 . S
C1758 C1757 1.387 . S
C1758 C1761 1.387 . S
H1759 C1755 0.950 . S
H1760 C1757 0.950 . S
C1761 C1752 1.390 . S
C1761 H1754 0.950 . S
C1761 C1758 1.387 . S
C1762 C1763 1.387 . S
C1762 H1766 0.950 . S
C1762 C1771 1.390 . S
C1763 C1762 1.387 . S
C1763 C1765 1.387 . S
H1764 C1771 0.950 . S
C1765 C1763 1.387 . S
C1765 C1767 1.390 . S
C1765 H1769 0.950 . S
H1766 C1762 0.950 . S
C1767 C1765 1.390 . S
C1767 C1768 1.387 . S
C1767 H1770 0.950 . S
C1768 C1767 1.387 . S
C1768 C1771 1.387 . S
H1769 C1765 0.950 . S
H1770 C1767 0.950 . S
C1771 C1762 1.390 . S
C1771 H1764 0.950 . S
C1771 C1768 1.387 . S
C1772 C1773 1.387 . S
C1772 H1776 0.950 . S
C1772 C1781 1.390 . S
C1773 C1772 1.387 . S
C1773 C1775 1.387 . S
H1774 C1781 0.950 . S
C1775 C1773 1.387 . S
C1775 C1777 1.390 . S
C1775 H1779 0.950 . S
H1776 C1772 0.950 . S
C1777 C1775 1.390 . S
C1777 C1778 1.387 . S
C1777 H1780 0.950 . S
C1778 C1777 1.387 . S
C1778 C1781 1.387 . S
H1779 C1775 0.950 . S
H1780 C1777 0.950 . S
C1781 C1772 1.390 . S
C1781 H1774 0.950 . S
C1781 C1778 1.387 . S
C1782 C1783 1.387 . S
C1782 H1786 0.950 . S
C1782 C1791 1.390 . S
C1783 C1782 1.387 . S
C1783 C1785 1.387 . S
H1784 C1791 0.950 . S
C1785 C1783 1.387 . S
C1785 C1787 1.390 . S
C1785 H1789 0.950 . S
H1786 C1782 0.950 . S
C1787 C1785 1.390 . S
C1787 C1788 1.387 . S
C1787 H1790 0.950 . S
C1788 C1787 1.387 . S
C1788 C1791 1.387 . S
H1789 C1785 0.950 . S
H1790 C1787 0.950 . S
C1791 C1782 1.390 . S
C1791 H1784 0.950 . S
C1791 C1788 1.387 . S
C1792 C1793 1.387 . S
C1792 H1796 0.950 . S
C1792 C1801 1.390 . S
C1793 C1792 1.387 . S
C1793 C1795 1.387 . S
H1794 C1801 0.950 . S
C1795 C1793 1.387 . S
C1795 C1797 1.390 . S
C1795 H1799 0.950 . S
H1796 C1792 0.950 . S
C1797 C1795 1.390 . S
C1797 C1798 1.387 . S
C1797 H1800 0.950 . S
C1798 C1797 1.387 . S
C1798 C1801 1.387 . S
H1799 C1795 0.950 . S
H1800 C1797 0.950 . S
C1801 C1792 1.390 . S
C1801 H1794 0.950 . S
C1801 C1798 1.387 . S
C1802 C1803 1.387 . S
C1802 H1806 0.950 . S
C1802 C1811 1.390 . S
C1803 C1802 1.387 . S
C1803 C1805 1.387 . S
H1804 C1811 0.950 . S
C1805 C1803 1.387 . S
C1805 C1807 1.390 . S
C1805 H1809 0.950 . S
H1806 C1802 0.950 . S
C1807 C1805 1.390 . S
C1807 C1808 1.387 . S
C1807 H1810 0.950 . S
C1808 C1807 1.387 . S
C1808 C1811 1.387 . S
H1809 C1805 0.950 . S
H1810 C1807 0.950 . S
C1811 C1802 1.390 . S
C1811 H1804 0.950 . S
C1811 C1808 1.387 . S
C1812 C1813 1.387 . S
C1812 H1816 0.950 . S
C1812 C1821 1.390 . S
C1813 C1812 1.387 . S
C1813 C1815 1.387 . S
H1814 C1821 0.950 . S
C1815 C1813 1.387 . S
C1815 C1817 1.390 . S
C1815 H1819 0.950 . S
H1816 C1812 0.950 . S
C1817 C1815 1.390 . S
C1817 C1818 1.387 . S
C1817 H1820 0.950 . S
C1818 C1817 1.387 . S
C1818 C1821 1.387 . S
H1819 C1815 0.950 . S
H1820 C1817 0.950 . S
C1821 C1812 1.390 . S
C1821 H1814 0.950 . S
C1821 C1818 1.387 . S
C1822 C1823 1.387 . S
C1822 H1826 0.950 . S
C1822 C1831 1.390 . S
C1823 C1822 1.387 . S
C1823 C1825 1.387 . S
H1824 C1831 0.950 . S
C1825 C1823 1.387 . S
C1825 C1827 1.390 . S
C1825 H1829 0.950 . S
H1826 C1822 0.950 . S
C1827 C1825 1.390 . S
C1827 C1828 1.387 . S
C1827 H1830 0.950 . S
C1828 C1827 1.387 . S
C1828 C1831 1.387 . S
H1829 C1825 0.950 . S
H1830 C1827 0.950 . S
C1831 C1822 1.390 . S
C1831 H1824 0.950 . S
C1831 C1828 1.387 . S
C1832 C1833 1.387 . S
C1832 H1836 0.950 . S
C1832 C1841 1.390 . S
C1833 C1832 1.387 . S
C1833 C1835 1.387 . S
H1834 C1841 0.950 . S
C1835 C1833 1.387 . S
C1835 C1837 1.390 . S
C1835 H1839 0.950 . S
H1836 C1832 0.950 . S
C1837 C1835 1.390 . S
C1837 C1838 1.387 . S
C1837 H1840 0.950 . S
C1838 C1837 1.387 . S
C1838 C1841 1.387 . S
H1839 C1835 0.950 . S
H1840 C1837 0.950 . S
C1841 C1832 1.390 . S
C1841 H1834 0.950 . S
C1841 C1838 1.387 . S
C1842 C1843 1.387 . S
C1842 H1846 0.950 . S
C1842 C1851 1.390 . S
C1843 C1842 1.387 . S
C1843 C1845 1.387 . S
H1844 C1851 0.950 . S
C1845 C1843 1.387 . S
C1845 C1847 1.390 . S
C1845 H1849 0.950 1_554 S
H1846 C1842 0.950 . S
C1847 C1845 1.390 . S
C1847 C1848 1.387 . S
C1847 H1850 0.950 . S
C1848 C1847 1.387 . S
C1848 C1851 1.387 . S
H1849 C1845 0.950 1_556 S
H1850 C1847 0.950 . S
C1851 C1842 1.390 . S
C1851 H1844 0.950 . S
C1851 C1848 1.387 . S
C1852 C1853 1.387 . S
C1852 H1856 0.950 . S
C1852 C1861 1.390 . S
C1853 C1852 1.387 . S
C1853 C1855 1.387 . S
H1854 C1861 0.950 . S
C1855 C1853 1.387 . S
C1855 C1857 1.390 . S
C1855 H1859 0.950 . S
H1856 C1852 0.950 . S
C1857 C1855 1.390 . S
C1857 C1858 1.387 . S
C1857 H1860 0.950 . S
C1858 C1857 1.387 . S
C1858 C1861 1.387 . S
H1859 C1855 0.950 . S
H1860 C1857 0.950 . S
C1861 C1852 1.390 . S
C1861 H1854 0.950 . S
C1861 C1858 1.387 . S
C1862 C1863 1.387 . S
C1862 H1866 0.950 . S
C1862 C1871 1.390 . S
C1863 C1862 1.387 . S
C1863 C1865 1.387 . S
H1864 C1871 0.950 . S
C1865 C1863 1.387 . S
C1865 C1867 1.390 . S
C1865 H1869 0.950 . S
H1866 C1862 0.950 . S
C1867 C1865 1.390 . S
C1867 C1868 1.387 . S
C1867 H1870 0.950 . S
C1868 C1867 1.387 . S
C1868 C1871 1.387 . S
H1869 C1865 0.950 . S
H1870 C1867 0.950 . S
C1871 C1862 1.390 . S
C1871 H1864 0.950 . S
C1871 C1868 1.387 . S
C1872 C1873 1.387 . S
C1872 H1876 0.950 . S
C1872 C1881 1.390 . S
C1873 C1872 1.387 . S
C1873 C1875 1.387 . S
H1874 C1881 0.950 . S
C1875 C1873 1.387 . S
C1875 C1877 1.390 . S
C1875 H1879 0.950 . S
H1876 C1872 0.950 . S
C1877 C1875 1.390 . S
C1877 C1878 1.387 . S
C1877 H1880 0.950 . S
C1878 C1877 1.387 . S
C1878 C1881 1.387 . S
H1879 C1875 0.950 . S
H1880 C1877 0.950 . S
C1881 C1872 1.390 . S
C1881 H1874 0.950 . S
C1881 C1878 1.387 . S
C1882 C1883 1.387 . S
C1882 H1886 0.967 . S
C1882 C1891 1.390 . S
C1883 C1882 1.387 . S
C1883 C1885 1.387 . S
H1884 C1891 0.950 . S
C1885 C1883 1.387 . S
C1885 C1887 1.390 . S
C1885 H1889 0.950 . S
H1886 C1882 0.967 . S
C1887 C1885 1.390 . S
C1887 C1888 1.387 . S
C1887 H1890 0.950 . S
C1888 C1887 1.387 . S
C1888 C1891 1.387 . S
H1889 C1885 0.950 . S
H1890 C1887 0.950 . S
C1891 C1882 1.390 . S
C1891 H1884 0.950 . S
C1891 C1888 1.387 . S
C1892 C1893 1.387 . S
C1892 H1896 0.950 . S
C1892 C1901 1.390 . S
C1893 C1892 1.387 . S
C1893 C1895 1.387 . S
H1894 C1901 0.950 . S
C1895 C1893 1.387 . S
C1895 C1897 1.390 . S
C1895 H1899 0.950 . S
H1896 C1892 0.950 . S
C1897 C1895 1.390 . S
C1897 C1898 1.387 . S
C1897 H1900 0.950 . S
C1898 C1897 1.387 . S
C1898 C1901 1.387 . S
H1899 C1895 0.950 . S
H1900 C1897 0.950 . S
C1901 C1892 1.390 . S
C1901 H1894 0.950 . S
C1901 C1898 1.387 . S
C1902 C1903 1.387 . S
C1902 H1906 0.950 . S
C1902 C1911 1.390 . S
C1903 C1902 1.387 . S
C1903 C1905 1.387 . S
H1904 C1911 0.950 . S
C1905 C1903 1.387 . S
C1905 C1907 1.390 . S
C1905 H1909 0.950 . S
H1906 C1902 0.950 . S
C1907 C1905 1.390 . S
C1907 C1908 1.387 . S
C1907 H1910 0.950 . S
C1908 C1907 1.387 . S
C1908 C1911 1.387 . S
H1909 C1905 0.950 . S
H1910 C1907 0.950 . S
C1911 C1902 1.390 . S
C1911 H1904 0.950 . S
C1911 C1908 1.387 . S
C1912 C1913 1.387 . S
C1912 H1916 0.950 . S
C1912 C1921 1.390 . S
C1913 C1912 1.387 . S
C1913 C1915 1.387 . S
H1914 C1921 0.950 . S
C1915 C1913 1.387 . S
C1915 C1917 1.390 . S
C1915 H1919 0.950 . S
H1916 C1912 0.950 . S
C1917 C1915 1.390 . S
C1917 C1918 1.387 . S
C1917 H1920 0.950 . S
C1918 C1917 1.387 . S
C1918 C1921 1.387 . S
H1919 C1915 0.950 . S
H1920 C1917 0.950 . S
C1921 C1912 1.390 . S
C1921 H1914 0.950 . S
C1921 C1918 1.387 . S
C1922 C1923 1.387 . S
C1922 H1926 0.950 . S
C1922 C1931 1.390 . S
C1923 C1922 1.387 . S
C1923 C1925 1.387 . S
H1924 C1931 0.950 . S
C1925 C1923 1.387 . S
C1925 C1927 1.390 . S
C1925 H1929 0.950 . S
H1926 C1922 0.950 . S
C1927 C1925 1.390 . S
C1927 C1928 1.387 . S
C1927 H1930 0.950 . S
C1928 C1927 1.387 . S
C1928 C1931 1.387 . S
H1929 C1925 0.950 . S
H1930 C1927 0.950 . S
C1931 C1922 1.390 . S
C1931 H1924 0.950 . S
C1931 C1928 1.387 . S
C1932 C1933 1.387 . S
C1932 H1936 0.950 . S
C1932 C1941 1.390 . S
C1933 C1932 1.387 . S
C1933 C1935 1.387 . S
H1934 C1941 0.950 . S
C1935 C1933 1.387 . S
C1935 C1937 1.390 . S
C1935 H1939 0.950 . S
H1936 C1932 0.950 . S
C1937 C1935 1.390 . S
C1937 C1938 1.387 . S
C1937 H1940 0.950 . S
C1938 C1937 1.387 . S
C1938 C1941 1.387 . S
H1939 C1935 0.950 . S
H1940 C1937 0.950 . S
C1941 C1932 1.390 . S
C1941 H1934 0.950 . S
C1941 C1938 1.387 . S
C1942 C1943 1.387 . S
C1942 H1946 0.950 . S
C1942 C1951 1.390 . S
C1943 C1942 1.387 . S
C1943 C1945 1.387 . S
H1944 C1951 0.950 . S
C1945 C1943 1.387 . S
C1945 C1947 1.390 . S
C1945 H1949 0.950 . S
H1946 C1942 0.950 . S
C1947 C1945 1.390 . S
C1947 C1948 1.387 . S
C1947 H1950 0.950 . S
C1948 C1947 1.387 . S
C1948 C1951 1.387 . S
H1949 C1945 0.950 . S
H1950 C1947 0.950 . S
C1951 C1942 1.390 . S
C1951 H1944 0.950 . S
C1951 C1948 1.387 . S
C1952 C1953 1.387 . S
C1952 H1956 0.950 . S
C1952 C1961 1.390 . S
C1953 C1952 1.387 . S
C1953 C1955 1.387 . S
H1954 C1961 0.950 . S
C1955 C1953 1.387 . S
C1955 C1957 1.390 . S
C1955 H1959 0.950 . S
H1956 C1952 0.950 . S
C1957 C1955 1.390 . S
C1957 C1958 1.387 . S
C1957 H1960 0.950 . S
C1958 C1957 1.387 . S
C1958 C1961 1.387 . S
H1959 C1955 0.950 . S
H1960 C1957 0.950 . S
C1961 C1952 1.390 . S
C1961 H1954 0.950 . S
C1961 C1958 1.387 . S
C1962 C1963 1.387 . S
C1962 H1966 0.950 . S
C1962 C1971 1.390 . S
C1963 C1962 1.387 . S
C1963 C1965 1.387 . S
H1964 C1971 0.950 . S
C1965 C1963 1.387 . S
C1965 C1967 1.390 . S
C1965 H1969 0.950 . S
H1966 C1962 0.950 . S
C1967 C1965 1.390 . S
C1967 C1968 1.387 . S
C1967 H1970 0.950 . S
C1968 C1967 1.387 . S
C1968 C1971 1.387 . S
H1969 C1965 0.950 . S
H1970 C1967 0.950 . S
C1971 C1962 1.390 . S
C1971 H1964 0.950 . S
C1971 C1968 1.387 . S
C1972 C1973 1.387 . S
C1972 H1976 0.950 1_565 S
C1972 C1981 1.390 . S
C1973 C1972 1.387 . S
C1973 C1975 1.387 . S
H1974 C1981 0.950 . S
C1975 C1973 1.387 . S
C1975 C1977 1.390 . S
C1975 H1979 0.950 . S
H1976 C1972 0.950 1_545 S
C1977 C1975 1.390 . S
C1977 C1978 1.387 . S
C1977 H1980 0.950 . S
C1978 C1977 1.387 . S
C1978 C1981 1.387 . S
H1979 C1975 0.950 . S
H1980 C1977 0.950 . S
C1981 C1972 1.390 . S
C1981 H1974 0.950 . S
C1981 C1978 1.387 . S
C1982 C1983 1.387 . S
C1982 H1986 0.950 . S
C1982 C1991 1.390 . S
C1983 C1982 1.387 . S
C1983 C1985 1.387 . S
H1984 C1991 0.950 . S
C1985 C1983 1.387 . S
C1985 C1987 1.390 . S
C1985 H1989 0.950 1_545 S
H1986 C1982 0.950 . S
C1987 C1985 1.390 . S
C1987 C1988 1.387 . S
C1987 H1990 0.950 . S
C1988 C1987 1.387 . S
C1988 C1991 1.387 . S
H1989 C1985 0.950 1_565 S
H1990 C1987 0.950 . S
C1991 C1982 1.390 . S
C1991 H1984 0.950 . S
C1991 C1988 1.387 . S
C1033 C641 0.979 . S
C1038 C39 0.992 . S
C1043 C82 0.979 . S
C1048 C658 0.983 . S
C1053 C99 0.978 . S
C1058 C813 0.984 . S
C1063 C598 0.991 . S
C1068 C168 0.982 . S
C1073 C185 0.993 . S
C1078 C615 0.980 . S
C1083 C684 0.984 . S
C1088 C254 0.979 . S
C1093 C787 0.979 . S
C1098 C297 0.984 . S
C1103 C572 0.982 1_556 S
C1108 C340 0.980 . S
C1113 C383 0.994 . S
C1118 C426 0.978 . S
C1123 C469 0.990 . S
C1128 C400 0.983 . S
C1133 C443 0.983 1_565 S
C1138 C512 0.978 . S
C1143 C357 0.983 1_565 S
C1148 C486 0.978 . S
C1153 C529 0.993 . S
C1158 C142 0.980 . S
C1163 C211 0.978 1_655 S
C1168 C727 0.983 . S
C1173 C56 0.981 . S
C1178 C770 0.981 . S
C1183 C1002 0.984 . S
C1188 C125 0.978 . S
C1193 C701 0.984 . S
C1198 C13 0.977 1_655 S
C1203 C271 0.984 . S
C1208 C1028 0.978 . S
C1213 C555 0.981 1_556 S
C1218 C314 0.980 . S
C1223 C228 0.982 . S
C1228 C744 0.982 . S
C1233 C856 0.984 . S
C1238 C899 0.978 . S
C1243 C873 0.984 . S
C1248 C942 0.978 . S
C1253 C916 0.984 . S
C1258 C985 0.978 . S
C1263 C959 0.984 . S
C1268 C830 0.979 . S
C1273 C414 2.546 . S
C1278 C32 2.547 . S
C1283 C457 2.547 . S
C1288 C75 2.545 . S
C1293 C113 2.547 . S
C1298 C500 2.546 . S
C1303 C161 2.546 . S
C1308 C376 2.546 . S
C1313 C199 2.547 . S
C1318 C505 2.545 . S
C1323 C247 2.546 . S
C1328 C371 2.547 . S
C1333 C290 2.547 . S
C1338 C419 2.545 . S
C1343 C462 2.545 . S
C1348 C333 2.547 . S
C1353 C629 2.545 . S
C1358 C543 2.547 . S
C1363 C1016 2.548 . S
C1368 C586 2.545 . S
C1373 C677 2.547 . S
C1378 C715 2.545 . S
C1383 C591 2.546 . S
C1388 C720 2.547 . S
C1393 C801 2.545 . S
C1398 C763 2.547 . S
C1403 C758 2.545 . S
C1408 C634 2.548 . S
C1413 C806 2.545 . S
C1418 C548 2.547 . S
C1423 C118 2.546 . S
C1428 C887 2.546 . S
C1433 C930 2.547 . S
C1438 C156 2.545 . S
C1443 C27 2.546 . S
C1448 C973 2.546 . S
C1453 C849 2.547 . S
C1458 C70 2.545 . S
C1463 C978 2.547 . S
C1468 C285 2.545 . S
C1473 C328 2.547 . S
C1478 C844 2.545 . S
C1483 C892 2.546 . S
C1488 C204 2.546 . S
C1493 C935 2.547 . S
C1498 C242 2.545 . S
C1503 C672 2.545 . S
C1508 C1021 2.548 . S
C1513 N519 1.296 . S
C1518 C40 1.645 . S
C1523 N691 1.298 . S
C1528 C83 1.645 1_655 S
C1533 N739 1.293 . S
C1538 C119 1.644 . S
C1543 C169 1.645 1_556 S
C1548 N992 1.295 . S
C1553 C205 1.645 . S
C1558 N734 1.298 . S
C1563 C255 1.645 . S
C1568 N997 1.296 . S
C1573 N524 1.293 . S
C1578 C298 1.644 . S
C1583 C341 1.644 1_654 S
C1588 N696 1.295 . S
C1593 N8 1.297 . S
C1598 C384 1.645 . S
C1603 C420 1.644 1_565 S
C1608 N51 1.294 . S
C1613 N89 1.295 . S
C1618 C463 1.644 . S
C1623 N137 1.300 . S
C1628 C506 1.646 1_544 S
C1633 N175 1.298 . S
C1638 C377 1.645 . S
C1643 C427 1.644 1_565 S
C1648 N223 1.293 . S
C1653 C470 1.645 . S
C1658 N266 1.298 . S
C1663 N309 1.293 . S
C1668 C513 1.644 1_546 S
C1673 C549 1.646 . S
C1678 N352 1.299 . S
C1683 N820 1.293 . S
C1688 C592 1.643 . S
C1693 N868 1.295 . S
C1698 C635 1.644 1_655 S
C1703 N911 1.295 . S
C1708 C685 1.644 . S
C1713 N481 1.296 . S
C1718 C728 1.644 1_465 S
C1723 N433 1.299 . S
C1728 C771 1.646 . S
C1733 C642 1.644 1_655 S
C1738 N949 1.295 . S
C1743 N863 1.295 . S
C1748 C814 1.644 . S
C1753 C126 1.644 . S
C1758 N648 1.295 . S
C1763 N782 1.294 . S
C1768 C162 1.644 1_556 S
C1773 C33 1.645 . S
C1778 N567 1.295 . S
C1783 C76 1.644 1_455 S
C1788 N610 1.295 . S
C1793 N562 1.295 . S
C1798 C291 1.645 . S
C1803 N605 1.298 . S
C1808 C334 1.646 1_454 S
C1813 C212 1.646 . S
C1818 N653 1.299 . S
C1823 C248 1.645 . S
C1828 N777 1.298 . S
C1833 C857 1.644 . S
C1838 N94 1.295 . S
C1843 C893 1.644 1_554 S
C1848 N132 1.294 . S
C1853 N3 1.297 . S
C1858 C936 1.645 . S
C1863 N46 1.293 . S
C1868 C979 1.644 . S
C1873 C850 1.644 . S
C1878 N261 1.297 . S
C1883 C900 1.644 1_556 S
C1888 N304 1.296 . S
C1893 N180 1.296 . S
C1898 C943 1.645 . S
C1903 N218 1.295 . S
C1908 C986 1.644 . S
C1913 C678 1.646 . S
C1918 N825 1.298 . S
C1923 N347 1.295 . S
C1928 C764 1.644 . S
C1933 N395 1.295 . S
C1938 C1029 1.644 1_545 S
C1943 C556 1.645 . S
C1948 N438 1.298 . S
C1953 C807 1.645 . S
C1958 N954 1.298 . S
C1963 C599 1.646 . S
C1968 N906 1.298 . S
C1973 C1022 1.644 1_565 S
C1978 N476 1.297 . S
C1983 C721 1.645 1_445 S
C1988 N390 1.296 . S
