# Generated by pormake.
# Topology wlu, (5)-cn, num edge types: 1
# Building blocks:
#     Node 0, Type 0, BuildingBlock: BEQFEK_clean_sbu_0, # of connection points: 5
#     Node 1, Type 0, BuildingBlock: BEQFEK_clean_sbu_0, # of connection points: 5
#     Node 2, Type 0, BuildingBlock: BEQFEK_clean_sbu_0, # of connection points: 5
#     Node 3, Type 0, BuildingBlock: BEQFEK_clean_sbu_0, # of connection points: 5
#     Node 4, Type 0, BuildingBlock: BEQFEK_clean_sbu_0, # of connection points: 5
#     Node 5, Type 0, BuildingBlock: BEQFEK_clean_sbu_0, # of connection points: 5
#     Node 6, Type 0, BuildingBlock: BEQFEK_clean_sbu_0, # of connection points: 5
#     Node 7, Type 0, BuildingBlock: BEQFEK_clean_sbu_0, # of connection points: 5
#     Node 8, Type 0, BuildingBlock: BEQFEK_clean_sbu_0, # of connection points: 5
#     Node 9, Type 0, BuildingBlock: BEQFEK_clean_sbu_0, # of connection points: 5
#     Node 10, Type 0, BuildingBlock: BEQFEK_clean_sbu_0, # of connection points: 5
#     Node 11, Type 0, BuildingBlock: BEQFEK_clean_sbu_0, # of connection points: 5
#     Node 12, Type 0, BuildingBlock: BEQFEK_clean_sbu_0, # of connection points: 5
#     Node 13, Type 0, BuildingBlock: BEQFEK_clean_sbu_0, # of connection points: 5
#     Node 14, Type 0, BuildingBlock: BEQFEK_clean_sbu_0, # of connection points: 5
#     Node 15, Type 0, BuildingBlock: BEQFEK_clean_sbu_0, # of connection points: 5
#     Node 16, Type 0, BuildingBlock: BEQFEK_clean_sbu_0, # of connection points: 5
#     Node 17, Type 0, BuildingBlock: BEQFEK_clean_sbu_0, # of connection points: 5
#     Node 18, Type 0, BuildingBlock: BEQFEK_clean_sbu_0, # of connection points: 5
#     Node 19, Type 0, BuildingBlock: BEQFEK_clean_sbu_0, # of connection points: 5
#     Node 20, Type 0, BuildingBlock: BEQFEK_clean_sbu_0, # of connection points: 5
#     Node 21, Type 0, BuildingBlock: BEQFEK_clean_sbu_0, # of connection points: 5
#     Node 22, Type 0, BuildingBlock: BEQFEK_clean_sbu_0, # of connection points: 5
#     Node 23, Type 0, BuildingBlock: BEQFEK_clean_sbu_0, # of connection points: 5
#     Node 24, Type 0, BuildingBlock: BEQFEK_clean_sbu_0, # of connection points: 5
#     Node 25, Type 0, BuildingBlock: BEQFEK_clean_sbu_0, # of connection points: 5
#     Node 26, Type 0, BuildingBlock: BEQFEK_clean_sbu_0, # of connection points: 5
#     Node 27, Type 0, BuildingBlock: BEQFEK_clean_sbu_0, # of connection points: 5
#     Node 28, Type 0, BuildingBlock: BEQFEK_clean_sbu_0, # of connection points: 5
#     Node 29, Type 0, BuildingBlock: BEQFEK_clean_sbu_0, # of connection points: 5
#     Node 30, Type 0, BuildingBlock: BEQFEK_clean_sbu_0, # of connection points: 5
#     Node 31, Type 0, BuildingBlock: BEQFEK_clean_sbu_0, # of connection points: 5
#     Node 32, Type 0, BuildingBlock: BEQFEK_clean_sbu_0, # of connection points: 5
#     Node 33, Type 0, BuildingBlock: BEQFEK_clean_sbu_0, # of connection points: 5
#     Node 34, Type 0, BuildingBlock: BEQFEK_clean_sbu_0, # of connection points: 5
#     Node 35, Type 0, BuildingBlock: BEQFEK_clean_sbu_0, # of connection points: 5
#     Edge 36, Type (0, 0), BuildingBlock: KIFKEQ_clean_linker_1, # of connection points: 2
#     Edge 37, Type (0, 0), BuildingBlock: KIFKEQ_clean_linker_1, # of connection points: 2
#     Edge 38, Type (0, 0), BuildingBlock: KIFKEQ_clean_linker_1, # of connection points: 2
#     Edge 39, Type (0, 0), BuildingBlock: KIFKEQ_clean_linker_1, # of connection points: 2
#     Edge 40, Type (0, 0), BuildingBlock: KIFKEQ_clean_linker_1, # of connection points: 2
#     Edge 41, Type (0, 0), BuildingBlock: KIFKEQ_clean_linker_1, # of connection points: 2
#     Edge 42, Type (0, 0), BuildingBlock: KIFKEQ_clean_linker_1, # of connection points: 2
#     Edge 43, Type (0, 0), BuildingBlock: KIFKEQ_clean_linker_1, # of connection points: 2
#     Edge 44, Type (0, 0), BuildingBlock: KIFKEQ_clean_linker_1, # of connection points: 2
#     Edge 45, Type (0, 0), BuildingBlock: KIFKEQ_clean_linker_1, # of connection points: 2
#     Edge 46, Type (0, 0), BuildingBlock: KIFKEQ_clean_linker_1, # of connection points: 2
#     Edge 47, Type (0, 0), BuildingBlock: KIFKEQ_clean_linker_1, # of connection points: 2
#     Edge 48, Type (0, 0), BuildingBlock: KIFKEQ_clean_linker_1, # of connection points: 2
#     Edge 49, Type (0, 0), BuildingBlock: KIFKEQ_clean_linker_1, # of connection points: 2
#     Edge 50, Type (0, 0), BuildingBlock: KIFKEQ_clean_linker_1, # of connection points: 2
#     Edge 51, Type (0, 0), BuildingBlock: KIFKEQ_clean_linker_1, # of connection points: 2
#     Edge 52, Type (0, 0), BuildingBlock: KIFKEQ_clean_linker_1, # of connection points: 2
#     Edge 53, Type (0, 0), BuildingBlock: KIFKEQ_clean_linker_1, # of connection points: 2
#     Edge 54, Type (0, 0), BuildingBlock: KIFKEQ_clean_linker_1, # of connection points: 2
#     Edge 55, Type (0, 0), BuildingBlock: KIFKEQ_clean_linker_1, # of connection points: 2
#     Edge 56, Type (0, 0), BuildingBlock: KIFKEQ_clean_linker_1, # of connection points: 2
#     Edge 57, Type (0, 0), BuildingBlock: KIFKEQ_clean_linker_1, # of connection points: 2
#     Edge 58, Type (0, 0), BuildingBlock: KIFKEQ_clean_linker_1, # of connection points: 2
#     Edge 59, Type (0, 0), BuildingBlock: KIFKEQ_clean_linker_1, # of connection points: 2
#     Edge 60, Type (0, 0), BuildingBlock: KIFKEQ_clean_linker_1, # of connection points: 2
#     Edge 61, Type (0, 0), BuildingBlock: KIFKEQ_clean_linker_1, # of connection points: 2
#     Edge 62, Type (0, 0), BuildingBlock: KIFKEQ_clean_linker_1, # of connection points: 2
#     Edge 63, Type (0, 0), BuildingBlock: KIFKEQ_clean_linker_1, # of connection points: 2
#     Edge 64, Type (0, 0), BuildingBlock: KIFKEQ_clean_linker_1, # of connection points: 2
#     Edge 65, Type (0, 0), BuildingBlock: KIFKEQ_clean_linker_1, # of connection points: 2
#     Edge 66, Type (0, 0), BuildingBlock: KIFKEQ_clean_linker_1, # of connection points: 2
#     Edge 67, Type (0, 0), BuildingBlock: KIFKEQ_clean_linker_1, # of connection points: 2
#     Edge 68, Type (0, 0), BuildingBlock: KIFKEQ_clean_linker_1, # of connection points: 2
#     Edge 69, Type (0, 0), BuildingBlock: KIFKEQ_clean_linker_1, # of connection points: 2
#     Edge 70, Type (0, 0), BuildingBlock: KIFKEQ_clean_linker_1, # of connection points: 2
#     Edge 71, Type (0, 0), BuildingBlock: KIFKEQ_clean_linker_1, # of connection points: 2
#     Edge 72, Type (0, 0), BuildingBlock: KIFKEQ_clean_linker_1, # of connection points: 2
#     Edge 73, Type (0, 0), BuildingBlock: KIFKEQ_clean_linker_1, # of connection points: 2
#     Edge 74, Type (0, 0), BuildingBlock: KIFKEQ_clean_linker_1, # of connection points: 2
#     Edge 75, Type (0, 0), BuildingBlock: KIFKEQ_clean_linker_1, # of connection points: 2
#     Edge 76, Type (0, 0), BuildingBlock: KIFKEQ_clean_linker_1, # of connection points: 2
#     Edge 77, Type (0, 0), BuildingBlock: KIFKEQ_clean_linker_1, # of connection points: 2
#     Edge 78, Type (0, 0), BuildingBlock: KIFKEQ_clean_linker_1, # of connection points: 2
#     Edge 79, Type (0, 0), BuildingBlock: KIFKEQ_clean_linker_1, # of connection points: 2
#     Edge 80, Type (0, 0), BuildingBlock: KIFKEQ_clean_linker_1, # of connection points: 2
#     Edge 81, Type (0, 0), BuildingBlock: KIFKEQ_clean_linker_1, # of connection points: 2
#     Edge 82, Type (0, 0), BuildingBlock: KIFKEQ_clean_linker_1, # of connection points: 2
#     Edge 83, Type (0, 0), BuildingBlock: KIFKEQ_clean_linker_1, # of connection points: 2
#     Edge 84, Type (0, 0), BuildingBlock: KIFKEQ_clean_linker_1, # of connection points: 2
#     Edge 85, Type (0, 0), BuildingBlock: KIFKEQ_clean_linker_1, # of connection points: 2
#     Edge 86, Type (0, 0), BuildingBlock: KIFKEQ_clean_linker_1, # of connection points: 2
#     Edge 87, Type (0, 0), BuildingBlock: KIFKEQ_clean_linker_1, # of connection points: 2
#     Edge 88, Type (0, 0), BuildingBlock: KIFKEQ_clean_linker_1, # of connection points: 2
#     Edge 89, Type (0, 0), BuildingBlock: KIFKEQ_clean_linker_1, # of connection points: 2
#     Edge 90, Type (0, 0), BuildingBlock: KIFKEQ_clean_linker_1, # of connection points: 2
#     Edge 91, Type (0, 0), BuildingBlock: KIFKEQ_clean_linker_1, # of connection points: 2
#     Edge 92, Type (0, 0), BuildingBlock: KIFKEQ_clean_linker_1, # of connection points: 2
#     Edge 93, Type (0, 0), BuildingBlock: KIFKEQ_clean_linker_1, # of connection points: 2
#     Edge 94, Type (0, 0), BuildingBlock: KIFKEQ_clean_linker_1, # of connection points: 2
#     Edge 95, Type (0, 0), BuildingBlock: KIFKEQ_clean_linker_1, # of connection points: 2
#     Edge 96, Type (0, 0), BuildingBlock: KIFKEQ_clean_linker_1, # of connection points: 2
#     Edge 97, Type (0, 0), BuildingBlock: KIFKEQ_clean_linker_1, # of connection points: 2
#     Edge 98, Type (0, 0), BuildingBlock: KIFKEQ_clean_linker_1, # of connection points: 2
#     Edge 99, Type (0, 0), BuildingBlock: KIFKEQ_clean_linker_1, # of connection points: 2
#     Edge 100, Type (0, 0), BuildingBlock: KIFKEQ_clean_linker_1, # of connection points: 2
#     Edge 101, Type (0, 0), BuildingBlock: KIFKEQ_clean_linker_1, # of connection points: 2
#     Edge 102, Type (0, 0), BuildingBlock: KIFKEQ_clean_linker_1, # of connection points: 2
#     Edge 103, Type (0, 0), BuildingBlock: KIFKEQ_clean_linker_1, # of connection points: 2
#     Edge 104, Type (0, 0), BuildingBlock: KIFKEQ_clean_linker_1, # of connection points: 2
#     Edge 105, Type (0, 0), BuildingBlock: KIFKEQ_clean_linker_1, # of connection points: 2
#     Edge 106, Type (0, 0), BuildingBlock: KIFKEQ_clean_linker_1, # of connection points: 2
#     Edge 107, Type (0, 0), BuildingBlock: KIFKEQ_clean_linker_1, # of connection points: 2
#     Edge 108, Type (0, 0), BuildingBlock: KIFKEQ_clean_linker_1, # of connection points: 2
#     Edge 109, Type (0, 0), BuildingBlock: KIFKEQ_clean_linker_1, # of connection points: 2
#     Edge 110, Type (0, 0), BuildingBlock: KIFKEQ_clean_linker_1, # of connection points: 2
#     Edge 111, Type (0, 0), BuildingBlock: KIFKEQ_clean_linker_1, # of connection points: 2
#     Edge 112, Type (0, 0), BuildingBlock: KIFKEQ_clean_linker_1, # of connection points: 2
#     Edge 113, Type (0, 0), BuildingBlock: KIFKEQ_clean_linker_1, # of connection points: 2
#     Edge 114, Type (0, 0), BuildingBlock: KIFKEQ_clean_linker_1, # of connection points: 2
#     Edge 115, Type (0, 0), BuildingBlock: KIFKEQ_clean_linker_1, # of connection points: 2
#     Edge 116, Type (0, 0), BuildingBlock: KIFKEQ_clean_linker_1, # of connection points: 2
#     Edge 117, Type (0, 0), BuildingBlock: KIFKEQ_clean_linker_1, # of connection points: 2
#     Edge 118, Type (0, 0), BuildingBlock: KIFKEQ_clean_linker_1, # of connection points: 2
#     Edge 119, Type (0, 0), BuildingBlock: KIFKEQ_clean_linker_1, # of connection points: 2
#     Edge 120, Type (0, 0), BuildingBlock: KIFKEQ_clean_linker_1, # of connection points: 2
#     Edge 121, Type (0, 0), BuildingBlock: KIFKEQ_clean_linker_1, # of connection points: 2
#     Edge 122, Type (0, 0), BuildingBlock: KIFKEQ_clean_linker_1, # of connection points: 2
#     Edge 123, Type (0, 0), BuildingBlock: KIFKEQ_clean_linker_1, # of connection points: 2
#     Edge 124, Type (0, 0), BuildingBlock: KIFKEQ_clean_linker_1, # of connection points: 2
#     Edge 125, Type (0, 0), BuildingBlock: KIFKEQ_clean_linker_1, # of connection points: 2
# Relax obj value: 0.084
# Max RMSD: 0.146
# Mean RMSD: 0.146
data_MOF--net-wlu--node1-BEQFEK_clean_sbu_0--edge1-KIFKEQ_clean_linker_1
_symmetry_space_group_name_H-M    P1
_symmetry_Int_Tables_number       1
_symmetry_cell_setting            triclinic
loop_
_symmetry_equiv_pos_as_xyz
'x, y, z'
_cell_length_a     69.499172
_cell_length_b     69.49832
_cell_length_c     58.194829
_cell_angle_alpha  90.004121
_cell_angle_beta   89.997976
_cell_angle_gamma 119.99863
loop_
_atom_site_label
_atom_site_type_symbol
_atom_site_fract_x
_atom_site_fract_y
_atom_site_fract_z
_atom_type_partial_charge
Co0 Co 0.29751 0.21391 0.04099 0.0
Co1 Co 0.26604 0.16342 0.03087 0.0
C2 C 0.30211 0.19275 0.99805 0.0
O3 O 0.30832 0.2096 0.01105 0.0
O4 O 0.28609 0.1737 0.00368 0.0
C5 C 0.33834 0.25582 0.04883 0.0
O6 O 0.3483 0.24808 0.03569 0.0
C7 C 0.25109 0.11683 0.0196 0.0
C8 C 0.21664 0.09997 0.03269 0.0
C9 C 0.23194 0.09613 0.02134 0.0
N10 N 0.24709 0.13206 0.02923 0.0
N11 N 0.22649 0.12188 0.03705 0.0
C12 C 0.27326 0.12212 0.01026 0.0
H13 H 0.28666 0.13729 0.01858 0.0
H14 H 0.27626 0.10804 0.01306 0.0
H15 H 0.2737 0.12531 0.99153 0.0
C16 C 0.30559 0.19561 0.08336 0.0
N17 N 0.2954 0.19297 0.06298 0.0
N18 N 0.28261 0.17163 0.05877 0.0
C19 C 0.28458 0.15999 0.0763 0.0
C20 C 0.29913 0.17487 0.09243 0.0
C21 C 0.32186 0.21761 0.09358 0.0
H22 H 0.33694 0.22562 0.08265 0.0
H23 H 0.32677 0.21583 0.11124 0.0
H24 H 0.31446 0.22852 0.09399 0.0
O25 O 0.26862 0.21208 0.03623 0.0
O26 O 0.24616 0.17638 0.02876 0.0
H27 H 0.27659 0.12942 0.09382 0.0
H28 H 0.27802 0.12871 0.0628 0.0
C29 C 0.27284 0.13519 0.07753 0.0
H30 H 0.25467 0.12847 0.07618 0.0
H31 H 0.21912 0.12993 0.04523 0.0
O32 O 0.3176 0.24407 0.05251 0.0
C33 C 0.24949 0.19603 0.03116 0.0
Co34 Co 0.78398 0.08462 0.04162 0.0
Co35 Co 0.83479 0.10407 0.0328 0.0
C36 C 0.80566 0.1097 0.99855 0.0
O37 O 0.78858 0.099 0.01124 0.0
O38 O 0.82473 0.11322 0.00486 0.0
C39 C 0.74116 0.08231 0.04786 0.0
O40 O 0.74841 0.09948 0.03402 0.0
C41 C 0.8815 0.13544 0.02155 0.0
C42 C 0.89836 0.11872 0.03688 0.0
C43 C 0.90221 0.13718 0.02418 0.0
N44 N 0.86623 0.11671 0.03195 0.0
N45 N 0.87642 0.10682 0.04112 0.0
C46 C 0.87623 0.15174 0.01062 0.0
H47 H 0.86112 0.15052 0.01852 0.0
H48 H 0.89034 0.16895 0.0125 0.0
H49 H 0.87294 0.14784 0.99206 0.0
C50 C 0.8013 0.11257 0.08317 0.0
N51 N 0.80442 0.10432 0.06349 0.0
N52 N 0.82584 0.11255 0.06012 0.0
C53 C 0.83706 0.1263 0.0777 0.0
C54 C 0.82183 0.12683 0.09279 0.0
C55 C 0.779 0.1064 0.09289 0.0
H56 H 0.76831 0.08806 0.09307 0.0
H57 H 0.77101 0.11339 0.08181 0.0
H58 H 0.78028 0.11273 0.11065 0.0
O59 O 0.78643 0.05772 0.03808 0.0
O60 O 0.82231 0.07138 0.0313 0.0
H61 H 0.86847 0.12784 0.0801 0.0
H62 H 0.86739 0.15024 0.09482 0.0
C63 C 0.86184 0.13941 0.0794 0.0
H64 H 0.86869 0.14983 0.06381 0.0
H65 H 0.86834 0.09183 0.05011 0.0
O66 O 0.7535 0.07416 0.05244 0.0
C67 C 0.80276 0.05489 0.03365 0.0
Co68 Co 0.91283 0.6982 0.04128 0.0
Co69 Co 0.89471 0.73058 0.03159 0.0
C70 C 0.88775 0.69465 0.99821 0.0
O71 O 0.89817 0.68805 0.01106 0.0
O72 O 0.8849 0.71072 0.00415 0.0
C73 C 0.9146 0.65739 0.04805 0.0
O74 O 0.89823 0.64779 0.03322 0.0
C75 C 0.86405 0.74669 0.01992 0.0
C76 C 0.88182 0.78078 0.03401 0.0
C77 C 0.86293 0.76606 0.02191 0.0
N78 N 0.88282 0.75001 0.03011 0.0
N79 N 0.89334 0.77039 0.03853 0.0
C80 C 0.84714 0.72493 0.00981 0.0
H81 H 0.8482 0.7111 0.01808 0.0
H82 H 0.83013 0.72231 0.01199 0.0
H83 H 0.85053 0.72486 0.9912 0.0
C84 C 0.88499 0.68898 0.08271 0.0
N85 N 0.89354 0.70002 0.06293 0.0
N86 N 0.88599 0.71375 0.05926 0.0
C87 C 0.87247 0.71196 0.07679 0.0
C88 C 0.87134 0.69611 0.09213 0.0
C89 C 0.89015 0.67218 0.0926 0.0
H90 H 0.90841 0.67939 0.09358 0.0
H91 H 0.88333 0.65748 0.08113 0.0
H92 H 0.883 0.66681 0.11004 0.0
O93 O 0.94024 0.72712 0.03713 0.0
O94 O 0.92748 0.75002 0.02988 0.0
H95 H 0.87218 0.74254 0.07802 0.0
H96 H 0.84989 0.72018 0.09407 0.0
C97 C 0.86014 0.72444 0.07825 0.0
H98 H 0.84922 0.72049 0.06301 0.0
H99 H 0.90849 0.77727 0.0472 0.0
O100 O 0.92254 0.67779 0.05293 0.0
C101 C 0.94361 0.74642 0.03234 0.0
Co102 Co 0.21308 0.29686 0.46079 0.0
Co103 Co 0.16217 0.26714 0.47065 0.0
C104 C 0.19214 0.30199 0.5039 0.0
O105 O 0.20892 0.30741 0.49101 0.0
O106 O 0.17274 0.28676 0.4981 0.0
C107 C 0.25469 0.33754 0.45205 0.0
O108 O 0.24556 0.34795 0.46209 0.0
C109 C 0.11552 0.25096 0.48371 0.0
C110 C 0.09826 0.21928 0.46452 0.0
C111 C 0.09475 0.23253 0.47974 0.0
N112 N 0.13059 0.2487 0.4713 0.0
N113 N 0.12015 0.22979 0.4598 0.0
C114 C 0.1215 0.26928 0.50065 0.0
H115 H 0.13087 0.26727 0.51498 0.0
H116 H 0.13254 0.28553 0.49233 0.0
H117 H 0.10671 0.26915 0.50791 0.0
C118 C 0.19584 0.30666 0.41864 0.0
N119 N 0.1927 0.29604 0.43882 0.0
N120 N 0.1713 0.28448 0.44326 0.0
C121 C 0.16013 0.28799 0.42633 0.0
C122 C 0.17536 0.30223 0.41013 0.0
C123 C 0.21795 0.31966 0.40707 0.0
H124 H 0.22806 0.31163 0.41008 0.0
H125 H 0.22686 0.33669 0.41434 0.0
H126 H 0.21608 0.3208 0.38827 0.0
O127 O 0.20998 0.26746 0.46474 0.0
O128 O 0.1741 0.2463 0.47234 0.0
H129 H 0.12685 0.2614 0.42183 0.0
H130 H 0.13074 0.28844 0.41467 0.0
C131 C 0.1356 0.27922 0.4267 0.0
H132 H 0.13031 0.28058 0.44431 0.0
H133 H 0.12805 0.22387 0.44904 0.0
O134 O 0.24375 0.31652 0.45024 0.0
C135 C 0.19337 0.24866 0.46966 0.0
Co136 Co 0.69768 0.91273 0.46173 0.0
Co137 Co 0.72928 0.89313 0.46861 0.0
C138 C 0.69481 0.88646 0.50363 0.0
O139 O 0.68745 0.89661 0.49141 0.0
O140 O 0.71103 0.8842 0.49696 0.0
C141 C 0.65666 0.91369 0.45386 0.0
O142 O 0.64606 0.89362 0.46272 0.0
C143 C 0.74719 0.86409 0.48156 0.0
C144 C 0.77394 0.87366 0.45593 0.0
C145 C 0.7637 0.85977 0.47447 0.0
N146 N 0.74772 0.87997 0.46792 0.0
N147 N 0.76384 0.8857 0.45274 0.0
C148 C 0.73017 0.85227 0.49988 0.0
H149 H 0.71355 0.84833 0.4935 0.0
H150 H 0.72958 0.83666 0.50521 0.0
H151 H 0.73428 0.86334 0.51502 0.0
C152 C 0.68775 0.88708 0.41848 0.0
N153 N 0.69867 0.89417 0.43857 0.0
N154 N 0.71078 0.88472 0.44194 0.0
C155 C 0.7072 0.87055 0.42444 0.0
C156 C 0.69251 0.87162 0.40891 0.0
C157 C 0.67426 0.89614 0.40791 0.0
H158 H 0.68196 0.91413 0.41165 0.0
H159 H 0.65728 0.88741 0.41531 0.0
H160 H 0.67304 0.89381 0.389 0.0
O161 O 0.72702 0.93932 0.46604 0.0
O162 O 0.74978 0.92587 0.47014 0.0
H163 H 0.73339 0.86403 0.41648 0.0
H164 H 0.70593 0.84048 0.41248 0.0
C165 C 0.71628 0.85506 0.42355 0.0
H166 H 0.71692 0.84916 0.44107 0.0
H167 H 0.7678 0.8977 0.44002 0.0
O168 O 0.67772 0.92385 0.45246 0.0
C169 C 0.7464 0.94226 0.46921 0.0
Co170 Co 0.08276 0.78152 0.46201 0.0
Co171 Co 0.1021 0.83249 0.47058 0.0
C172 C 0.10922 0.80415 0.5043 0.0
O173 O 0.09827 0.78695 0.49184 0.0
O174 O 0.11234 0.82309 0.49806 0.0
C175 C 0.08398 0.74108 0.45234 0.0
O176 O 0.10498 0.75229 0.45843 0.0
C177 C 0.13366 0.8795 0.48063 0.0
C178 C 0.11523 0.89568 0.46796 0.0
C179 C 0.13464 0.89991 0.47892 0.0
N180 N 0.11452 0.86396 0.47109 0.0
N181 N 0.10368 0.87378 0.46337 0.0
C182 C 0.1491 0.87417 0.49341 0.0
H183 H 0.14958 0.86007 0.48502 0.0
H184 H 0.16611 0.88863 0.49452 0.0
H185 H 0.14273 0.86911 0.51115 0.0
C186 C 0.10872 0.79897 0.4188 0.0
N187 N 0.1014 0.80186 0.43925 0.0
N188 N 0.1098 0.82329 0.44294 0.0
C189 C 0.1229 0.83467 0.42502 0.0
C190 C 0.12264 0.81959 0.40926 0.0
C191 C 0.1022 0.77695 0.40817 0.0
H192 H 0.08433 0.76516 0.41126 0.0
H193 H 0.11213 0.7702 0.41603 0.0
H194 H 0.10541 0.77855 0.38938 0.0
O195 O 0.0558 0.78369 0.46663 0.0
O196 O 0.0694 0.81962 0.47315 0.0
H197 H 0.1241 0.86597 0.4238 0.0
H198 H 0.14562 0.86501 0.40719 0.0
C199 C 0.13576 0.85945 0.42329 0.0
H200 H 0.14708 0.86634 0.43825 0.0
H201 H 0.0881 0.8654 0.45553 0.0
O202 O 0.07233 0.75051 0.45268 0.0
C203 C 0.05295 0.79998 0.47127 0.0
Co204 Co 0.69871 0.78512 0.96052 0.0
Co205 Co 0.73116 0.83586 0.96885 0.0
C206 C 0.69546 0.80755 0.00288 0.0
O207 O 0.68798 0.79024 0.99031 0.0
O208 O 0.71204 0.82599 0.99665 0.0
C209 C 0.65865 0.74145 0.95435 0.0
O210 O 0.64883 0.74711 0.97006 0.0
C211 C 0.74742 0.8825 0.98121 0.0
C212 C 0.78037 0.89931 0.96448 0.0
C213 C 0.76642 0.90315 0.97835 0.0
N214 N 0.75024 0.86727 0.96982 0.0
N215 N 0.76994 0.87743 0.95981 0.0
C216 C 0.72632 0.8773 0.99323 0.0
H217 H 0.71199 0.86277 0.98507 0.0
H218 H 0.72362 0.89174 0.99272 0.0
H219 H 0.72728 0.87307 0.01142 0.0
C220 C 0.68952 0.80258 0.91823 0.0
N221 N 0.70058 0.80568 0.93812 0.0
N222 N 0.7136 0.82709 0.94165 0.0
C223 C 0.71093 0.83837 0.92423 0.0
C224 C 0.69546 0.82316 0.90882 0.0
C225 C 0.67441 0.78022 0.90794 0.0
H226 H 0.68246 0.76992 0.90878 0.0
H227 H 0.65876 0.77181 0.91799 0.0
H228 H 0.67049 0.78143 0.88972 0.0
O229 O 0.72769 0.78695 0.96527 0.0
O230 O 0.75094 0.82292 0.97034 0.0
H231 H 0.73994 0.87022 0.92013 0.0
H232 H 0.71475 0.86879 0.90957 0.0
C233 C 0.7219 0.86316 0.92327 0.0
H234 H 0.71993 0.86953 0.94004 0.0
H235 H 0.77635 0.86936 0.94999 0.0
O236 O 0.67876 0.75481 0.94906 0.0
C237 C 0.74717 0.80305 0.96899 0.0
Co238 Co 0.21411 0.91219 0.9623 0.0
Co239 Co 0.16336 0.89482 0.96998 0.0
C240 C 0.19117 0.88687 0.0044 0.0
O241 O 0.20862 0.89638 0.99202 0.0
O242 O 0.17296 0.88541 0.99791 0.0
C243 C 0.25668 0.91373 0.95493 0.0
O244 O 0.24914 0.89583 0.96774 0.0
C245 C 0.11661 0.86375 0.98124 0.0
C246 C 0.10002 0.88128 0.96716 0.0
C247 C 0.09608 0.86247 0.97921 0.0
N248 N 0.13191 0.88245 0.9708 0.0
N249 N 0.12187 0.89277 0.96229 0.0
C250 C 0.1223 0.84902 0.99491 0.0
H251 H 0.13024 0.85752 0.01124 0.0
H252 H 0.13449 0.84625 0.98528 0.0
H253 H 0.10748 0.83288 0.99916 0.0
C254 C 0.19651 0.88517 0.92012 0.0
N255 N 0.19358 0.89354 0.93982 0.0
N256 N 0.17224 0.88613 0.94283 0.0
C257 C 0.1609 0.8728 0.92504 0.0
C258 C 0.17594 0.87171 0.91015 0.0
C259 C 0.21867 0.8904 0.91075 0.0
H260 H 0.23003 0.90864 0.91078 0.0
H261 H 0.22588 0.88269 0.92192 0.0
H262 H 0.21736 0.88415 0.89295 0.0
O263 O 0.21245 0.93958 0.96691 0.0
O264 O 0.17651 0.92743 0.97143 0.0
H265 H 0.13013 0.8726 0.92252 0.0
H266 H 0.13041 0.84995 0.90742 0.0
C267 C 0.13612 0.86051 0.92304 0.0
H268 H 0.12882 0.8499 0.93843 0.0
H269 H 0.13004 0.90794 0.95364 0.0
O270 O 0.24463 0.92242 0.95143 0.0
C271 C 0.19651 0.94329 0.97032 0.0
Co272 Co 0.0843 0.30236 0.96176 0.0
Co273 Co 0.10341 0.27045 0.9699 0.0
C274 C 0.11094 0.30588 0.00382 0.0
O275 O 0.09993 0.31215 0.9915 0.0
O276 O 0.11401 0.29006 0.99747 0.0
C277 C 0.08575 0.34421 0.95253 0.0
O278 O 0.10683 0.35394 0.95829 0.0
C279 C 0.13402 0.25379 0.98019 0.0
C280 C 0.11606 0.22012 0.96503 0.0
C281 C 0.13492 0.23439 0.97737 0.0
N282 N 0.11548 0.25105 0.96992 0.0
N283 N 0.10492 0.23096 0.96077 0.0
C284 C 0.14883 0.27359 0.99459 0.0
H285 H 0.14032 0.27231 0.01111 0.0
H286 H 0.1517 0.28898 0.9858 0.0
H287 H 0.16493 0.27465 0.99846 0.0
C288 C 0.10993 0.31086 0.9184 0.0
N289 N 0.10273 0.30062 0.93884 0.0
N290 N 0.11103 0.28746 0.9423 0.0
C291 C 0.12393 0.28912 0.92421 0.0
C292 C 0.12366 0.30405 0.9086 0.0
C293 C 0.10333 0.32637 0.90794 0.0
H294 H 0.08552 0.32036 0.91132 0.0
H295 H 0.11341 0.34307 0.9157 0.0
H296 H 0.10626 0.32789 0.88911 0.0
O297 O 0.05724 0.27333 0.96623 0.0
O298 O 0.07068 0.25085 0.97264 0.0
H299 H 0.12489 0.25897 0.92169 0.0
H300 H 0.14717 0.28212 0.90655 0.0
C301 C 0.13669 0.27712 0.92224 0.0
H302 H 0.14737 0.28065 0.93762 0.0
H303 H 0.0898 0.22445 0.95207 0.0
O304 O 0.07403 0.32315 0.95286 0.0
C305 C 0.0543 0.25415 0.9708 0.0
Co306 Co 0.78373 0.69672 0.53904 0.0
Co307 Co 0.83429 0.73138 0.53335 0.0
C308 C 0.80815 0.69544 0.49807 0.0
O309 O 0.79044 0.68653 0.51007 0.0
O310 O 0.82568 0.71275 0.50496 0.0
C311 C 0.74144 0.65536 0.54623 0.0
O312 O 0.75006 0.64472 0.53567 0.0
C313 C 0.88122 0.74717 0.52351 0.0
C314 C 0.89749 0.78144 0.53716 0.0
C315 C 0.90168 0.76646 0.52569 0.0
N316 N 0.86571 0.75064 0.53332 0.0
N317 N 0.87555 0.77108 0.54159 0.0
C318 C 0.87582 0.72664 0.51019 0.0
H319 H 0.86879 0.72735 0.49331 0.0
H320 H 0.86301 0.71178 0.51948 0.0
H321 H 0.89063 0.72498 0.50702 0.0
C322 C 0.80029 0.68769 0.58229 0.0
N323 N 0.8036 0.69909 0.56258 0.0
N324 N 0.82493 0.71346 0.56031 0.0
C325 C 0.83588 0.71164 0.57858 0.0
C326 C 0.8206 0.69514 0.59302 0.0
C327 C 0.77802 0.6703 0.59094 0.0
H328 H 0.76614 0.67651 0.58983 0.0
H329 H 0.77178 0.65526 0.58003 0.0
H330 H 0.77882 0.66572 0.60903 0.0
O331 O 0.78499 0.72537 0.53318 0.0
O332 O 0.82081 0.75061 0.53162 0.0
H333 H 0.86621 0.74256 0.58172 0.0
H334 H 0.866 0.71991 0.59734 0.0
C335 C 0.86058 0.72455 0.58138 0.0
H336 H 0.8685 0.72142 0.5664 0.0
H337 H 0.86718 0.77815 0.54973 0.0
O338 O 0.7529 0.6763 0.5487 0.0
C339 C 0.80048 0.74543 0.53092 0.0
Co340 Co 0.2986 0.0839 0.5409 0.0
Co341 Co 0.26572 0.10146 0.53127 0.0
C342 C 0.30212 0.10936 0.49811 0.0
O343 O 0.30882 0.099 0.51091 0.0
O344 O 0.2858 0.11185 0.50395 0.0
C345 C 0.33988 0.08319 0.54862 0.0
O346 O 0.34982 0.10068 0.53519 0.0
C347 C 0.24834 0.13107 0.51943 0.0
C348 C 0.21474 0.11314 0.53469 0.0
C349 C 0.22879 0.13176 0.52189 0.0
N350 N 0.24577 0.11276 0.53003 0.0
N351 N 0.22568 0.10214 0.53914 0.0
C352 C 0.2696 0.14802 0.50848 0.0
H353 H 0.28392 0.14784 0.5167 0.0
H354 H 0.2717 0.16489 0.50992 0.0
H355 H 0.26933 0.1439 0.49002 0.0
C356 C 0.30701 0.11112 0.58273 0.0
N357 N 0.29626 0.10273 0.56276 0.0
N358 N 0.28237 0.11008 0.55906 0.0
C359 C 0.28378 0.12332 0.57673 0.0
C360 C 0.29951 0.12443 0.5922 0.0
C361 C 0.324 0.10629 0.59268 0.0
H362 H 0.31718 0.08806 0.59333 0.0
H363 H 0.33888 0.11363 0.58145 0.0
H364 H 0.32901 0.11321 0.61025 0.0
O365 O 0.26993 0.0563 0.53635 0.0
O366 O 0.24672 0.06868 0.5292 0.0
H367 H 0.25292 0.12299 0.5785 0.0
H368 H 0.27536 0.14574 0.59398 0.0
C369 C 0.27095 0.13529 0.5783 0.0
H370 H 0.27439 0.14592 0.56289 0.0
H371 H 0.21937 0.08726 0.54826 0.0
O372 O 0.31917 0.07435 0.55243 0.0
C373 C 0.25057 0.05271 0.53149 0.0
Co374 Co 0.91202 0.21286 0.54146 0.0
Co375 Co 0.89311 0.16214 0.5322 0.0
C376 C 0.88711 0.19117 0.49823 0.0
O377 O 0.89772 0.2082 0.51102 0.0
O378 O 0.88371 0.17211 0.50438 0.0
C379 C 0.91346 0.25525 0.54822 0.0
O380 O 0.8958 0.24752 0.53502 0.0
C381 C 0.86275 0.11526 0.52034 0.0
C382 C 0.8798 0.09899 0.53628 0.0
C383 C 0.86153 0.09477 0.52303 0.0
N384 N 0.88103 0.13076 0.53123 0.0
N385 N 0.8911 0.12091 0.54076 0.0
C386 C 0.84636 0.12008 0.50888 0.0
H387 H 0.85076 0.12369 0.49044 0.0
H388 H 0.84688 0.13486 0.51679 0.0
H389 H 0.82928 0.10562 0.51023 0.0
C390 C 0.88401 0.19497 0.58289 0.0
N391 N 0.8924 0.19213 0.56317 0.0
N392 N 0.88437 0.17076 0.55958 0.0
C393 C 0.87056 0.15929 0.57703 0.0
C394 C 0.86982 0.1743 0.59228 0.0
C395 C 0.89004 0.21713 0.5929 0.0
H396 H 0.90834 0.22804 0.59278 0.0
H397 H 0.88266 0.22499 0.58219 0.0
H398 H 0.88397 0.21564 0.6108 0.0
O399 O 0.93915 0.21083 0.53807 0.0
O400 O 0.92587 0.17511 0.53072 0.0
H401 H 0.86922 0.128 0.57963 0.0
H402 H 0.84624 0.1287 0.59345 0.0
C403 C 0.85757 0.13449 0.57841 0.0
H404 H 0.84768 0.12774 0.56247 0.0
H405 H 0.90584 0.12922 0.55014 0.0
O406 O 0.92215 0.2433 0.55234 0.0
C407 C 0.9422 0.19469 0.5334 0.0
Co408 Co 0.96648 0.54865 0.37078 0.0
Co409 Co 0.93336 0.49779 0.36368 0.0
C410 C 0.96915 0.52445 0.32947 0.0
O411 O 0.97681 0.54202 0.34162 0.0
O412 O 0.95232 0.50632 0.33591 0.0
C413 C 0.00847 0.58896 0.38035 0.0
O414 O 0.01818 0.57747 0.37509 0.0
C415 C 0.91713 0.45077 0.3536 0.0
C416 C 0.88338 0.43465 0.36852 0.0
C417 C 0.89789 0.43029 0.35628 0.0
N418 N 0.91394 0.46642 0.36353 0.0
N419 N 0.89376 0.45668 0.37246 0.0
C420 C 0.93868 0.4555 0.34301 0.0
H421 H 0.9527 0.47023 0.35129 0.0
H422 H 0.94118 0.441 0.34477 0.0
H423 H 0.93857 0.45923 0.32449 0.0
C424 C 0.97357 0.53181 0.41518 0.0
N425 N 0.9638 0.52867 0.39444 0.0
N426 N 0.95073 0.5072 0.391 0.0
C427 C 0.95234 0.49603 0.40917 0.0
C428 C 0.96679 0.51128 0.42505 0.0
C429 C 0.98942 0.55401 0.42528 0.0
H430 H 0.00604 0.5602 0.41747 0.0
H431 H 0.99105 0.55294 0.44413 0.0
H432 H 0.9837 0.56599 0.42158 0.0
O433 O 0.93773 0.54723 0.36538 0.0
O434 O 0.9141 0.5112 0.36118 0.0
H435 H 0.94441 0.46584 0.42754 0.0
H436 H 0.94406 0.46393 0.39649 0.0
C437 C 0.94007 0.47127 0.41138 0.0
H438 H 0.92195 0.46506 0.41112 0.0
H439 H 0.88699 0.46511 0.38103 0.0
O440 O 0.98743 0.57974 0.37956 0.0
C441 C 0.91816 0.5312 0.36184 0.0
Co442 Co 0.45034 0.41693 0.37479 0.0
Co443 Co 0.50105 0.43636 0.36497 0.0
C444 C 0.47184 0.44377 0.33255 0.0
O445 O 0.45488 0.4328 0.34532 0.0
O446 O 0.49084 0.44665 0.33815 0.0
C447 C 0.408 0.41503 0.38266 0.0
O448 O 0.41583 0.43322 0.37027 0.0
C449 C 0.54777 0.46882 0.35485 0.0
C450 C 0.56438 0.44991 0.36448 0.0
C451 C 0.56827 0.4699 0.35521 0.0
N452 N 0.53251 0.44907 0.36351 0.0
N453 N 0.54258 0.43795 0.36943 0.0
C454 C 0.54212 0.48495 0.34413 0.0
H455 H 0.53883 0.48104 0.32557 0.0
H456 H 0.52694 0.48342 0.35219 0.0
H457 H 0.55593 0.50228 0.34573 0.0
C458 C 0.46825 0.4422 0.41782 0.0
N459 N 0.47109 0.43524 0.39717 0.0
N460 N 0.49247 0.44395 0.39309 0.0
C461 C 0.50395 0.45708 0.41095 0.0
C462 C 0.48894 0.45628 0.42721 0.0
C463 C 0.44612 0.43634 0.42776 0.0
H464 H 0.4381 0.44324 0.41661 0.0
H465 H 0.4476 0.44307 0.44535 0.0
H466 H 0.43532 0.41801 0.42818 0.0
O467 O 0.45245 0.39015 0.36916 0.0
O468 O 0.48825 0.40358 0.36205 0.0
H469 H 0.53444 0.47863 0.42922 0.0
H470 H 0.53541 0.48233 0.39838 0.0
C471 C 0.52875 0.46995 0.41248 0.0
H472 H 0.53539 0.45851 0.41021 0.0
H473 H 0.53444 0.42192 0.37626 0.0
O474 O 0.41993 0.40619 0.38608 0.0
C475 C 0.46856 0.3872 0.36403 0.0
Co476 Co 0.57928 0.03141 0.37505 0.0
Co477 Co 0.56018 0.063 0.36512 0.0
C478 C 0.55434 0.02744 0.33178 0.0
O479 O 0.56484 0.02106 0.34478 0.0
O480 O 0.55109 0.04328 0.33762 0.0
C481 C 0.58091 0.99074 0.38303 0.0
O482 O 0.56304 0.98049 0.37015 0.0
C483 C 0.52836 0.07778 0.3536 0.0
C484 C 0.54636 0.11262 0.36567 0.0
C485 C 0.52712 0.09711 0.35467 0.0
N486 N 0.54747 0.08177 0.36353 0.0
N487 N 0.55805 0.10255 0.37087 0.0
C488 C 0.51313 0.05671 0.34116 0.0
H489 H 0.51346 0.04248 0.34943 0.0
H490 H 0.49587 0.05352 0.34065 0.0
H491 H 0.51904 0.05811 0.32321 0.0
C492 C 0.55126 0.02179 0.41644 0.0
N493 N 0.55965 0.03277 0.39659 0.0
N494 N 0.55159 0.04603 0.39271 0.0
C495 C 0.5378 0.04392 0.41009 0.0
C496 C 0.53708 0.02839 0.4256 0.0
C497 C 0.55719 0.0057 0.42676 0.0
H498 H 0.57549 0.01306 0.42678 0.0
H499 H 0.54983 0.99038 0.41617 0.0
H500 H 0.551 0.00125 0.44464 0.0
O501 O 0.60624 0.06064 0.371 0.0
O502 O 0.59289 0.08305 0.3637 0.0
H503 H 0.53638 0.07393 0.41088 0.0
H504 H 0.51433 0.05124 0.42684 0.0
C505 C 0.52478 0.05573 0.41116 0.0
H506 H 0.51397 0.05136 0.39579 0.0
H507 H 0.57354 0.11002 0.37891 0.0
O508 O 0.5897 0.01149 0.38653 0.0
C509 C 0.60926 0.07982 0.36626 0.0
Co510 Co 0.87914 0.6316 0.79354 0.0
Co511 Co 0.82851 0.6002 0.80342 0.0
C512 C 0.85777 0.63617 0.83639 0.0
O513 O 0.87467 0.64231 0.82347 0.0
O514 O 0.83871 0.62023 0.83067 0.0
C515 C 0.92126 0.6723 0.78564 0.0
O516 O 0.91308 0.68262 0.79756 0.0
C517 C 0.78181 0.5848 0.81494 0.0
C518 C 0.76509 0.5507 0.80087 0.0
C519 C 0.76118 0.56562 0.81291 0.0
N520 N 0.79711 0.58119 0.80482 0.0
N521 N 0.787 0.5608 0.79642 0.0
C522 C 0.78696 0.60665 0.82507 0.0
H523 H 0.80189 0.62036 0.81672 0.0
H524 H 0.77268 0.60946 0.823 0.0
H525 H 0.79051 0.6067 0.84366 0.0
C526 C 0.86107 0.63963 0.75094 0.0
N527 N 0.85832 0.62961 0.77144 0.0
N528 N 0.83696 0.61686 0.77556 0.0
C529 C 0.8254 0.6187 0.75788 0.0
C530 C 0.84034 0.63311 0.74168 0.0
C531 C 0.88318 0.65596 0.74098 0.0
H532 H 0.894 0.64846 0.74045 0.0
H533 H 0.89119 0.67084 0.75218 0.0
H534 H 0.88166 0.66129 0.72344 0.0
O535 O 0.87709 0.60262 0.79827 0.0
O536 O 0.84135 0.58022 0.80557 0.0
H537 H 0.79421 0.58844 0.75736 0.0
H538 H 0.7948 0.6104 0.74016 0.0
C539 C 0.8006 0.60658 0.75638 0.0
H540 H 0.79377 0.61125 0.77122 0.0
H541 H 0.79511 0.55372 0.7878 0.0
O542 O 0.90957 0.65148 0.78243 0.0
C543 C 0.86098 0.58349 0.80322 0.0
Co544 Co 0.36564 0.24873 0.79329 0.0
Co545 Co 0.39527 0.22739 0.80234 0.0
C546 C 0.36092 0.22255 0.83622 0.0
O547 O 0.3554 0.23399 0.82357 0.0
O548 O 0.37599 0.2183 0.83004 0.0
C549 C 0.32492 0.24962 0.78482 0.0
O550 O 0.31448 0.22965 0.79391 0.0
C551 C 0.4103 0.19579 0.81393 0.0
C552 C 0.44343 0.21173 0.79752 0.0
C553 C 0.42904 0.19381 0.81095 0.0
N554 N 0.41348 0.21406 0.80271 0.0
N555 N 0.43323 0.2234 0.7928 0.0
C556 C 0.39072 0.18212 0.82908 0.0
H557 H 0.37534 0.17988 0.8208 0.0
H558 H 0.38888 0.16571 0.83309 0.0
H559 H 0.39304 0.19118 0.84547 0.0
C560 C 0.3555 0.22207 0.75074 0.0
N561 N 0.36611 0.22924 0.77097 0.0
N562 N 0.37775 0.21941 0.77502 0.0
C563 C 0.37431 0.20505 0.75776 0.0
C564 C 0.36001 0.20623 0.74176 0.0
C565 C 0.34252 0.23136 0.73949 0.0
H566 H 0.35048 0.24943 0.74291 0.0
H567 H 0.32543 0.22303 0.74663 0.0
H568 H 0.3415 0.22874 0.72062 0.0
O569 O 0.39515 0.27496 0.79696 0.0
O570 O 0.41629 0.26015 0.80427 0.0
H571 H 0.40134 0.19897 0.75352 0.0
H572 H 0.37473 0.17602 0.74477 0.0
C573 C 0.38333 0.18949 0.75756 0.0
H574 H 0.38135 0.18198 0.77482 0.0
H575 H 0.43998 0.23808 0.78329 0.0
O576 O 0.34598 0.25992 0.78339 0.0
C577 C 0.41396 0.27709 0.80171 0.0
Co578 Co 0.74931 0.11638 0.79395 0.0
Co579 Co 0.76939 0.16719 0.80358 0.0
C580 C 0.77622 0.13794 0.83635 0.0
O581 O 0.76497 0.12097 0.82365 0.0
O582 O 0.7796 0.15709 0.83059 0.0
C583 C 0.74812 0.07449 0.78559 0.0
O584 O 0.76694 0.08297 0.79698 0.0
C585 C 0.80092 0.21405 0.81437 0.0
C586 C 0.783 0.23049 0.80092 0.0
C587 C 0.80212 0.23454 0.8124 0.0
N588 N 0.78195 0.19864 0.80446 0.0
N589 N 0.7714 0.2086 0.79632 0.0
C590 C 0.81596 0.20852 0.82765 0.0
H591 H 0.80827 0.20177 0.84461 0.0
H592 H 0.81771 0.19546 0.81849 0.0
H593 H 0.83253 0.22323 0.83061 0.0
C594 C 0.77462 0.13398 0.75077 0.0
N595 N 0.76786 0.13694 0.77149 0.0
N596 N 0.77691 0.15835 0.77561 0.0
C597 C 0.79015 0.16972 0.75776 0.0
C598 C 0.789 0.15461 0.74142 0.0
C599 C 0.76817 0.11178 0.74059 0.0
H600 H 0.74984 0.10104 0.74103 0.0
H601 H 0.77555 0.10377 0.75104 0.0
H602 H 0.77408 0.11318 0.72265 0.0
O603 O 0.7226 0.11874 0.79912 0.0
O604 O 0.73668 0.1546 0.80637 0.0
H605 H 0.79193 0.20129 0.757 0.0
H606 H 0.81322 0.20013 0.74021 0.0
C607 C 0.80336 0.19451 0.7563 0.0
H608 H 0.81467 0.2011 0.77131 0.0
H609 H 0.75602 0.20034 0.78808 0.0
O610 O 0.73858 0.08588 0.78294 0.0
C611 C 0.72004 0.13511 0.80424 0.0
Co612 Co 0.36247 0.11618 0.29321 0.0
Co613 Co 0.39562 0.16675 0.30229 0.0
C614 C 0.35948 0.13805 0.33601 0.0
O615 O 0.35242 0.12093 0.32324 0.0
O616 O 0.37582 0.15675 0.32993 0.0
C617 C 0.32239 0.0726 0.28828 0.0
O618 O 0.31376 0.07822 0.30529 0.0
C619 C 0.41192 0.21448 0.31099 0.0
C620 C 0.44782 0.22867 0.30441 0.0
C621 C 0.43221 0.23423 0.31157 0.0
N622 N 0.41551 0.19811 0.30388 0.0
N623 N 0.43697 0.20679 0.29976 0.0
C624 C 0.38976 0.21086 0.31855 0.0
H625 H 0.37777 0.19297 0.32099 0.0
H626 H 0.38302 0.21718 0.30511 0.0
H627 H 0.39148 0.22008 0.33471 0.0
C628 C 0.35377 0.13453 0.25143 0.0
N629 N 0.36459 0.1373 0.27141 0.0
N630 N 0.37882 0.15854 0.27451 0.0
C631 C 0.3778 0.16998 0.25623 0.0
C632 C 0.3619 0.15509 0.24093 0.0
C633 C 0.33482 0.11273 0.24357 0.0
H634 H 0.3232 0.10461 0.25808 0.0
H635 H 0.32544 0.11471 0.22924 0.0
H636 H 0.34128 0.10175 0.23803 0.0
O637 O 0.39125 0.11736 0.2975 0.0
O638 O 0.41469 0.15303 0.30402 0.0
H639 H 0.39248 0.1995 0.23498 0.0
H640 H 0.38649 0.20332 0.2643 0.0
C641 C 0.39247 0.19449 0.25308 0.0
H642 H 0.4097 0.19951 0.25827 0.0
H643 H 0.44433 0.19764 0.29439 0.0
O644 O 0.342 0.08607 0.2815 0.0
C645 C 0.41072 0.13315 0.30193 0.0
Co646 Co 0.87967 0.24745 0.29389 0.0
Co647 Co 0.82906 0.22821 0.30385 0.0
C648 C 0.85819 0.22099 0.33647 0.0
O649 O 0.87512 0.23192 0.32364 0.0
O650 O 0.83914 0.21796 0.33083 0.0
C651 C 0.92191 0.24902 0.28634 0.0
O652 O 0.91436 0.23146 0.29967 0.0
C653 C 0.78227 0.19726 0.31534 0.0
C654 C 0.76587 0.21494 0.30125 0.0
C655 C 0.76176 0.19606 0.31331 0.0
N656 N 0.79771 0.21608 0.30521 0.0
N657 N 0.78779 0.22655 0.29679 0.0
C658 C 0.78718 0.18039 0.32547 0.0
H659 H 0.80198 0.18137 0.31708 0.0
H660 H 0.77275 0.16338 0.32347 0.0
H661 H 0.79082 0.18392 0.34405 0.0
C662 C 0.86154 0.22185 0.25105 0.0
N663 N 0.8588 0.22892 0.27167 0.0
N664 N 0.83744 0.22026 0.27583 0.0
C665 C 0.82588 0.20704 0.25804 0.0
C666 C 0.84082 0.20775 0.24174 0.0
C667 C 0.88364 0.22772 0.24099 0.0
H668 H 0.89434 0.24605 0.24031 0.0
H669 H 0.89183 0.22105 0.25222 0.0
H670 H 0.88207 0.22077 0.22349 0.0
O671 O 0.87785 0.2745 0.29901 0.0
O672 O 0.84209 0.26099 0.3064 0.0
H673 H 0.79466 0.20604 0.25747 0.0
H674 H 0.79528 0.1846 0.2404 0.0
C675 C 0.80108 0.19431 0.25658 0.0
H676 H 0.79429 0.1829 0.27148 0.0
H677 H 0.79604 0.24173 0.28818 0.0
O678 O 0.90992 0.2577 0.28242 0.0
C679 C 0.8617 0.27741 0.30415 0.0
Co680 Co 0.75242 0.63623 0.29522 0.0
Co681 Co 0.76916 0.60242 0.30238 0.0
C682 C 0.77886 0.6388 0.33655 0.0
O683 O 0.76924 0.64684 0.32446 0.0
O684 O 0.77974 0.62175 0.33 0.0
C685 C 0.75086 0.67734 0.28842 0.0
O686 O 0.76838 0.68755 0.30177 0.0
C687 C 0.80014 0.58653 0.31231 0.0
C688 C 0.78182 0.55208 0.29927 0.0
C689 C 0.80121 0.56715 0.31041 0.0
N690 N 0.78092 0.58291 0.303 0.0
N691 N 0.77006 0.56231 0.29518 0.0
C692 C 0.81739 0.60858 0.32158 0.0
H693 H 0.81616 0.62216 0.31295 0.0
H694 H 0.83432 0.61106 0.31906 0.0
H695 H 0.8145 0.6093 0.34023 0.0
C696 C 0.77713 0.64375 0.25162 0.0
N697 N 0.7699 0.63339 0.27198 0.0
N698 N 0.77745 0.61958 0.27499 0.0
C699 C 0.79001 0.62095 0.25669 0.0
C700 C 0.7901 0.63624 0.24127 0.0
C701 C 0.77258 0.66133 0.24283 0.0
H702 H 0.75437 0.65451 0.2417 0.0
H703 H 0.77946 0.67542 0.2551 0.0
H704 H 0.78016 0.66762 0.22572 0.0
O705 O 0.7248 0.60761 0.30077 0.0
O706 O 0.7365 0.58342 0.30473 0.0
H707 H 0.78883 0.58964 0.25546 0.0
H708 H 0.80973 0.61061 0.23698 0.0
C709 C 0.80128 0.60755 0.25387 0.0
H710 H 0.81366 0.61185 0.2678 0.0
H711 H 0.75451 0.55517 0.28729 0.0
O712 O 0.74244 0.6567 0.28446 0.0
C713 C 0.72084 0.58788 0.30419 0.0
Co714 Co 0.4501 0.03068 0.87293 0.0
Co715 Co 0.50073 0.06479 0.86596 0.0
C716 C 0.47394 0.029 0.83122 0.0
O717 O 0.45632 0.02076 0.84335 0.0
O718 O 0.4919 0.04592 0.83792 0.0
C719 C 0.40811 0.98911 0.88086 0.0
O720 O 0.41688 0.97853 0.87047 0.0
C721 C 0.54762 0.08119 0.85528 0.0
C722 C 0.56383 0.11494 0.8702 0.0
C723 C 0.5681 0.10046 0.85776 0.0
N724 N 0.53206 0.08433 0.86549 0.0
N725 N 0.54186 0.10451 0.87442 0.0
C726 C 0.54283 0.05964 0.84463 0.0
H727 H 0.52824 0.04561 0.85309 0.0
H728 H 0.55738 0.0572 0.84612 0.0
H729 H 0.53883 0.05969 0.82618 0.0
C730 C 0.46751 0.02175 0.91566 0.0
N731 N 0.47044 0.03285 0.89581 0.0
N732 N 0.49174 0.04721 0.89311 0.0
C733 C 0.503 0.04574 0.91128 0.0
C734 C 0.48798 0.02948 0.92604 0.0
C735 C 0.44545 0.0044 0.92481 0.0
H736 H 0.43357 0.01064 0.92419 0.0
H737 H 0.43892 0.98935 0.91388 0.0
H738 H 0.44672 -0.00018 0.94278 0.0
O739 O 0.45131 0.05952 0.86827 0.0
O740 O 0.48716 0.0838 0.8641 0.0
H741 H 0.53298 0.077 0.91415 0.0
H742 H 0.53327 0.05474 0.93003 0.0
C743 C 0.52768 0.05907 0.91397 0.0
H744 H 0.53572 0.05602 0.89905 0.0
H745 H 0.53349 0.11123 0.88319 0.0
O746 O 0.41938 0.01009 0.88303 0.0
C747 C 0.46704 0.0793 0.86496 0.0
Co748 Co 0.96716 0.41826 0.87187 0.0
Co749 Co 0.93464 0.43648 0.86295 0.0
C750 C 0.97028 0.44402 0.82925 0.0
O751 O 0.97683 0.43345 0.84191 0.0
O752 O 0.95424 0.44684 0.83534 0.0
C753 C 0.00923 0.4202 0.88163 0.0
O754 O 0.01892 0.44122 0.87562 0.0
C755 C 0.91785 0.4669 0.85245 0.0
C756 C 0.88381 0.44846 0.86668 0.0
C757 C 0.89832 0.46761 0.85489 0.0
N758 N 0.91496 0.44819 0.86243 0.0
N759 N 0.89464 0.43732 0.87101 0.0
C760 C 0.93802 0.48213 0.83874 0.0
H761 H 0.95317 0.48466 0.84778 0.0
H762 H 0.93923 0.49837 0.83535 0.0
H763 H 0.93714 0.47416 0.82197 0.0
C764 C 0.97539 0.44462 0.91469 0.0
N765 N 0.96513 0.43691 0.89434 0.0
N766 N 0.95167 0.44479 0.89056 0.0
C767 C 0.95312 0.4579 0.90836 0.0
C768 C 0.96825 0.45824 0.9241 0.0
C769 C 0.99122 0.43859 0.92544 0.0
H770 H 0.98548 0.42077 0.92246 0.0
H771 H 0.00786 0.44874 0.91757 0.0
H772 H 0.99275 0.44189 0.94421 0.0
O773 O 0.93832 0.3909 0.8677 0.0
O774 O 0.91536 0.40367 0.86084 0.0
H775 H 0.92262 0.4583 0.91002 0.0
H776 H 0.94522 0.48066 0.92571 0.0
C777 C 0.94073 0.47031 0.90994 0.0
H778 H 0.9445 0.48111 0.89463 0.0
H779 H 0.88801 0.42205 0.8794 0.0
O780 O 0.98817 0.40842 0.88125 0.0
C781 C 0.919 0.38754 0.86307 0.0
Co782 Co 0.57843 0.54732 0.87517 0.0
Co783 Co 0.55955 0.49662 0.86499 0.0
C784 C 0.55315 0.52568 0.83178 0.0
O785 O 0.56385 0.54255 0.84476 0.0
O786 O 0.54978 0.50654 0.83756 0.0
C787 C 0.59093 0.59392 0.87425 0.0
O788 O 0.59041 0.59204 0.85176 0.0
C789 C 0.53079 0.44969 0.85185 0.0
C790 C 0.54618 0.43344 0.87116 0.0
C791 C 0.52918 0.42924 0.85598 0.0
N792 N 0.54789 0.46521 0.86417 0.0
N793 N 0.55698 0.45537 0.87569 0.0
C794 C 0.51793 0.45499 0.83489 0.0
H795 H 0.52936 0.46544 0.82106 0.0
H796 H 0.51135 0.46478 0.84348 0.0
H797 H 0.50416 0.43994 0.82689 0.0
C798 C 0.55126 0.5288 0.91675 0.0
N799 N 0.55927 0.52612 0.89672 0.0
N800 N 0.55049 0.5048 0.89237 0.0
C801 C 0.53608 0.49315 0.90935 0.0
C802 C 0.53605 0.50804 0.92536 0.0
C803 C 0.5591 0.5509 0.92795 0.0
H804 H 0.57748 0.56086 0.92695 0.0
H805 H 0.55211 0.55994 0.91862 0.0
H806 H 0.55417 0.54919 0.94628 0.0
O807 O 0.60592 0.54612 0.87136 0.0
O808 O 0.59253 0.51041 0.8635 0.0
H809 H 0.53184 0.46076 0.91369 0.0
H810 H 0.50782 0.4628 0.92185 0.0
C811 C 0.52162 0.46841 0.90931 0.0
H812 H 0.51461 0.46268 0.89189 0.0
H813 H 0.57074 0.46371 0.88646 0.0
O814 O 0.58654 0.57718 0.88663 0.0
C815 C 0.60891 0.53 0.86627 0.0
Co816 Co 0.63273 0.87992 0.70606 0.0
Co817 Co 0.59915 0.82931 0.69861 0.0
C818 C 0.63527 0.85673 0.66433 0.0
O819 O 0.64326 0.87422 0.67665 0.0
O820 O 0.61836 0.83864 0.67077 0.0
C821 C 0.6737 0.92237 0.71344 0.0
O822 O 0.68422 0.91447 0.70143 0.0
C823 C 0.5836 0.78256 0.6879 0.0
C824 C 0.5491 0.76611 0.70095 0.0
C825 C 0.56424 0.7621 0.68956 0.0
N826 N 0.58 0.79791 0.69791 0.0
N827 N 0.55942 0.78796 0.70582 0.0
C828 C 0.60433 0.78818 0.67486 0.0
H829 H 0.60396 0.79566 0.65814 0.0
H830 H 0.61905 0.80072 0.68455 0.0
H831 H 0.60594 0.7734 0.67137 0.0
C832 C 0.64144 0.86255 0.74884 0.0
N833 N 0.63053 0.85956 0.72886 0.0
N834 N 0.61646 0.83823 0.72595 0.0
C835 C 0.61797 0.82698 0.74412 0.0
C836 C 0.63388 0.84207 0.75912 0.0
C837 C 0.6588 0.88461 0.75796 0.0
H838 H 0.65216 0.89617 0.75833 0.0
H839 H 0.67341 0.89165 0.74635 0.0
H840 H 0.6642 0.88319 0.77552 0.0
O841 O 0.60384 0.87843 0.70097 0.0
O842 O 0.57978 0.84254 0.69665 0.0
H843 H 0.58683 0.79676 0.74622 0.0
H844 H 0.60874 0.79683 0.76317 0.0
C845 C 0.60481 0.80229 0.74677 0.0
H846 H 0.60849 0.79436 0.73218 0.0
H847 H 0.55225 0.7962 0.714 0.0
O848 O 0.6529 0.91046 0.71666 0.0
C849 C 0.58414 0.86262 0.69749 0.0
Co850 Co 0.11695 0.75036 0.70911 0.0
Co851 Co 0.16766 0.76985 0.69952 0.0
C852 C 0.1386 0.7768 0.6666 0.0
O853 O 0.1216 0.76584 0.67933 0.0
O854 O 0.15765 0.77995 0.67242 0.0
C855 C 0.0747 0.74875 0.7166 0.0
O856 O 0.08276 0.76702 0.70431 0.0
C857 C 0.21438 0.80146 0.6887 0.0
C858 C 0.23102 0.78369 0.70194 0.0
C859 C 0.23501 0.80287 0.69056 0.0
N860 N 0.19904 0.78226 0.69828 0.0
N861 N 0.20909 0.77175 0.7062 0.0
C862 C 0.20926 0.81841 0.67924 0.0
H863 H 0.19418 0.81683 0.68759 0.0
H864 H 0.22345 0.83545 0.6819 0.0
H865 H 0.20597 0.81553 0.66054 0.0
C866 C 0.13471 0.77601 0.75199 0.0
N867 N 0.13761 0.76897 0.73142 0.0
N868 N 0.15901 0.77767 0.72743 0.0
C869 C 0.17044 0.79086 0.74527 0.0
C870 C 0.15537 0.79012 0.76143 0.0
C871 C 0.11254 0.77014 0.76183 0.0
H872 H 0.10177 0.75181 0.76234 0.0
H873 H 0.10451 0.77694 0.75056 0.0
H874 H 0.11395 0.77696 0.77936 0.0
O875 O 0.11907 0.72349 0.70411 0.0
O876 O 0.15489 0.73715 0.69695 0.0
H877 H 0.20166 0.79185 0.74549 0.0
H878 H 0.2009 0.81268 0.76348 0.0
C879 C 0.19523 0.80353 0.74697 0.0
H880 H 0.20213 0.81547 0.7325 0.0
H881 H 0.20093 0.7563 0.71433 0.0
O882 O 0.08647 0.73976 0.72013 0.0
C883 C 0.1353 0.72068 0.69911 0.0
Co884 Co 0.2478 0.36781 0.70822 0.0
Co885 Co 0.2276 0.39828 0.69804 0.0
C886 C 0.22233 0.3632 0.66484 0.0
O887 O 0.23321 0.35735 0.67792 0.0
O888 O 0.2186 0.37876 0.67052 0.0
C889 C 0.24868 0.32693 0.71628 0.0
O890 O 0.23024 0.31679 0.70425 0.0
C891 C 0.19709 0.41437 0.68519 0.0
C892 C 0.2127 0.44698 0.70262 0.0
C893 C 0.1952 0.43321 0.68835 0.0
N894 N 0.21501 0.41712 0.69683 0.0
N895 N 0.22422 0.43662 0.70723 0.0
C896 C 0.18148 0.39347 0.67272 0.0
H897 H 0.1819 0.37907 0.6804 0.0
H898 H 0.16424 0.39049 0.67335 0.0
H899 H 0.18674 0.39498 0.6545 0.0
C900 C 0.22062 0.35849 0.75016 0.0
N901 N 0.2283 0.36905 0.72998 0.0
N902 N 0.21894 0.38105 0.72552 0.0
C903 C 0.20445 0.378 0.7425 0.0
C904 C 0.20498 0.36351 0.7587 0.0
C905 C 0.22918 0.34497 0.76166 0.0
H906 H 0.24739 0.35296 0.75922 0.0
H907 H 0.22119 0.32818 0.75381 0.0
H908 H 0.22562 0.34328 0.78036 0.0
O909 O 0.27452 0.39697 0.70425 0.0
O910 O 0.26042 0.41865 0.69655 0.0
H911 H 0.1992 0.40559 0.74633 0.0
H912 H 0.17569 0.37928 0.75489 0.0
C913 C 0.18939 0.3876 0.74228 0.0
H914 H 0.18218 0.38581 0.7249 0.0
H915 H 0.23851 0.44292 0.71735 0.0
O916 O 0.25816 0.3478 0.71926 0.0
C917 C 0.27709 0.41591 0.69928 0.0
Co918 Co 0.54691 0.96419 0.12689 0.0
Co919 Co 0.49596 0.93426 0.13629 0.0
C920 C 0.52547 0.96902 0.1698 0.0
O921 O 0.54237 0.97457 0.15706 0.0
O922 O 0.50616 0.95376 0.16382 0.0
C923 C 0.58806 0.00511 0.11758 0.0
O924 O 0.57812 0.01544 0.12593 0.0
C925 C 0.44921 0.91801 0.14871 0.0
C926 C 0.43225 0.88599 0.13011 0.0
C927 C 0.42855 0.89941 0.14488 0.0
N928 N 0.46443 0.91568 0.13667 0.0
N929 N 0.45416 0.89657 0.1255 0.0
C930 C 0.45497 0.93659 0.16526 0.0
H931 H 0.46376 0.93455 0.18014 0.0
H932 H 0.46645 0.9527 0.15692 0.0
H933 H 0.4401 0.9368 0.17175 0.0
C934 C 0.5299 0.97373 0.08433 0.0
N935 N 0.52668 0.96326 0.10462 0.0
N936 N 0.50526 0.95164 0.10892 0.0
C937 C 0.49415 0.955 0.09181 0.0
C938 C 0.50944 0.96917 0.07562 0.0
C939 C 0.55203 0.98658 0.07277 0.0
H940 H 0.56231 0.97884 0.07639 0.0
H941 H 0.56073 0.00384 0.07945 0.0
H942 H 0.55017 0.98713 0.05388 0.0
O943 O 0.54394 0.93486 0.13093 0.0
O944 O 0.50803 0.91354 0.13825 0.0
H945 H 0.46096 0.92827 0.0872 0.0
H946 H 0.46475 0.95522 0.0798 0.0
C947 C 0.4696 0.94611 0.09198 0.0
H948 H 0.46418 0.94752 0.1095 0.0
H949 H 0.46221 0.89055 0.11509 0.0
O950 O 0.5777 0.98402 0.11682 0.0
C951 C 0.52735 0.91602 0.13577 0.0
Co952 Co 0.03176 0.5805 0.12707 0.0
Co953 Co 0.06337 0.56108 0.1341 0.0
C954 C 0.02876 0.55406 0.16892 0.0
O955 O 0.02148 0.5643 0.15673 0.0
O956 O 0.04499 0.55183 0.16228 0.0
C957 C 0.99045 0.58052 0.11857 0.0
O958 O 0.98015 0.55991 0.12602 0.0
C959 C 0.07951 0.53051 0.14566 0.0
C960 C 0.11176 0.54588 0.12753 0.0
C961 C 0.09823 0.52852 0.14207 0.0
N962 N 0.08211 0.54837 0.13406 0.0
N963 N 0.10137 0.55744 0.1232 0.0
C964 C 0.05883 0.51506 0.15856 0.0
H965 H 0.04424 0.515 0.15074 0.0
H966 H 0.05607 0.49789 0.15854 0.0
H967 H 0.0604 0.52087 0.17659 0.0
C968 C 0.02233 0.55504 0.0836 0.0
N969 N 0.033 0.56208 0.10383 0.0
N970 N 0.0453 0.55284 0.10724 0.0
C971 C 0.04224 0.53898 0.08961 0.0
C972 C 0.02752 0.53989 0.07399 0.0
C973 C 0.00871 0.56388 0.07292 0.0
H974 H 0.01599 0.58176 0.07701 0.0
H975 H 0.99158 0.55471 0.07989 0.0
H976 H 0.00794 0.5619 0.05397 0.0
O977 O 0.06102 0.6073 0.13153 0.0
O978 O 0.08362 0.5937 0.1359 0.0
H979 H 0.06984 0.53411 0.08378 0.0
H980 H 0.04329 0.51044 0.07613 0.0
C981 C 0.05207 0.52413 0.08867 0.0
H982 H 0.05111 0.51687 0.10586 0.0
H983 H 0.10755 0.57171 0.11307 0.0
O984 O 0.01155 0.59137 0.118 0.0
C985 C 0.08034 0.61014 0.13491 0.0
Co986 Co 0.4167 0.44985 0.12832 0.0
Co987 Co 0.43543 0.50056 0.13685 0.0
C988 C 0.44252 0.47207 0.1707 0.0
O989 O 0.43192 0.45487 0.15817 0.0
O990 O 0.44536 0.4909 0.16447 0.0
C991 C 0.41587 0.40802 0.12032 0.0
O992 O 0.43519 0.41686 0.13076 0.0
C993 C 0.46756 0.54737 0.14638 0.0
C994 C 0.44842 0.56364 0.13636 0.0
C995 C 0.46841 0.56775 0.1458 0.0
N996 N 0.44791 0.53194 0.13769 0.0
N997 N 0.43666 0.54181 0.13151 0.0
C998 C 0.48378 0.54199 0.15735 0.0
H999 H 0.48193 0.52641 0.15003 0.0
H1000 H 0.5011 0.5556 0.155 0.0
H1001 H 0.48036 0.53963 0.17606 0.0
C1002 C 0.44305 0.46723 0.08569 0.0
N1003 N 0.43549 0.47023 0.10591 0.0
N1004 N 0.44341 0.49162 0.10925 0.0
C1005 C 0.45626 0.50291 0.09115 0.0
C1006 C 0.45646 0.48777 0.07576 0.0
C1007 C 0.43729 0.4451 0.07585 0.0
H1008 H 0.41905 0.43381 0.07653 0.0
H1009 H 0.44534 0.43774 0.08629 0.0
H1010 H 0.443 0.44655 0.05779 0.0
O1011 O 0.38969 0.45191 0.13278 0.0
O1012 O 0.40277 0.48777 0.13903 0.0
H1013 H 0.45638 0.53372 0.09041 0.0
H1014 H 0.47716 0.53308 0.07213 0.0
C1015 C 0.46836 0.52765 0.08885 0.0
H1016 H 0.48058 0.5351 0.10302 0.0
H1017 H 0.42064 0.5335 0.12464 0.0
O1018 O 0.40614 0.41925 0.11799 0.0
C1019 C 0.38652 0.46803 0.13716 0.0
Co1020 Co 0.03147 0.45093 0.62421 0.0
Co1021 Co 0.06286 0.50171 0.63341 0.0
C1022 C 0.02755 0.47275 0.66705 0.0
O1023 O 0.02136 0.4557 0.65436 0.0
O1024 O 0.04327 0.4918 0.66098 0.0
C1025 C 0.99035 0.40924 0.61602 0.0
O1026 O 0.98001 0.41838 0.62615 0.0
C1027 C 0.07911 0.54848 0.64532 0.0
C1028 C 0.11237 0.565 0.62922 0.0
C1029 C 0.09826 0.56903 0.64261 0.0
N1030 N 0.08199 0.5331 0.63431 0.0
N1031 N 0.10187 0.54309 0.62468 0.0
C1032 C 0.05791 0.54351 0.65692 0.0
H1033 H 0.04365 0.5288 0.64891 0.0
H1034 H 0.05526 0.55796 0.65584 0.0
H1035 H 0.05875 0.53971 0.67528 0.0
C1036 C 0.02175 0.46867 0.58224 0.0
N1037 N 0.03273 0.47151 0.60214 0.0
N1038 N 0.04578 0.4929 0.6059 0.0
C1039 C 0.04342 0.50437 0.58847 0.0
C1040 C 0.02802 0.48935 0.57299 0.0
C1041 C 0.00602 0.44655 0.57189 0.0
H1042 H 0.01302 0.43535 0.57334 0.0
H1043 H 0.99006 0.43905 0.58139 0.0
H1044 H 0.00277 0.4481 0.55351 0.0
O1045 O 0.06067 0.45316 0.62825 0.0
O1046 O 0.08281 0.48898 0.63535 0.0
H1047 H 0.07294 0.53605 0.58596 0.0
H1048 H 0.04888 0.53495 0.57265 0.0
C1049 C 0.05475 0.52917 0.58743 0.0
H1050 H 0.05155 0.53557 0.60358 0.0
H1051 H 0.10836 0.53489 0.61521 0.0
O1052 O 0.01135 0.42025 0.61386 0.0
C1053 C 0.07976 0.46944 0.63298 0.0
Co1054 Co 0.54742 0.58029 0.62645 0.0
Co1055 Co 0.49669 0.56163 0.63546 0.0
C1056 C 0.52543 0.555 0.66935 0.0
O1057 O 0.54254 0.56551 0.65664 0.0
O1058 O 0.5065 0.55198 0.66319 0.0
C1059 C 0.58942 0.58112 0.61872 0.0
O1060 O 0.58131 0.56281 0.63096 0.0
C1061 C 0.44976 0.53164 0.64738 0.0
C1062 C 0.43366 0.54865 0.63097 0.0
C1063 C 0.42935 0.53053 0.64452 0.0
N1064 N 0.46533 0.54973 0.63631 0.0
N1065 N 0.45559 0.55978 0.6265 0.0
C1066 C 0.45441 0.51529 0.65921 0.0
H1067 H 0.46903 0.51546 0.65132 0.0
H1068 H 0.43981 0.49827 0.6582 0.0
H1069 H 0.4582 0.52003 0.67755 0.0
C1070 C 0.5295 0.55269 0.5847 0.0
N1071 N 0.5267 0.56104 0.60447 0.0
N1072 N 0.50533 0.55305 0.60804 0.0
C1073 C 0.49384 0.53928 0.59057 0.0
C1074 C 0.50883 0.53856 0.5753 0.0
C1075 C 0.55161 0.55854 0.57469 0.0
H1076 H 0.55918 0.5507 0.58514 0.0
H1077 H 0.55009 0.55277 0.55666 0.0
H1078 H 0.56277 0.5768 0.57515 0.0
O1079 O 0.54559 0.60749 0.63047 0.0
O1080 O 0.50979 0.59436 0.63719 0.0
H1081 H 0.46325 0.51484 0.57425 0.0
H1082 H 0.46232 0.51647 0.60522 0.0
C1083 C 0.46904 0.52625 0.58922 0.0
H1084 H 0.46252 0.53788 0.58788 0.0
H1085 H 0.46398 0.5744 0.61693 0.0
O1086 O 0.57785 0.59039 0.61557 0.0
C1087 C 0.52947 0.61064 0.63499 0.0
Co1088 Co 0.41852 0.96773 0.62883 0.0
Co1089 Co 0.4362 0.93464 0.63612 0.0
C1090 C 0.4452 0.97078 0.67019 0.0
O1091 O 0.43535 0.9785 0.65802 0.0
O1092 O 0.44647 0.95393 0.66374 0.0
C1093 C 0.41766 0.00891 0.62084 0.0
O1094 O 0.43716 0.01954 0.63093 0.0
C1095 C 0.46756 0.9191 0.64609 0.0
C1096 C 0.44905 0.88442 0.6336 0.0
C1097 C 0.46849 0.89964 0.6445 0.0
N1098 N 0.44843 0.91547 0.63653 0.0
N1099 N 0.43753 0.89479 0.62893 0.0
C1100 C 0.48305 0.93997 0.65872 0.0
H1101 H 0.47587 0.93963 0.67584 0.0
H1102 H 0.48472 0.95458 0.64922 0.0
H1103 H 0.49963 0.94173 0.66133 0.0
C1104 C 0.44295 0.97527 0.58498 0.0
N1105 N 0.43606 0.96516 0.60551 0.0
N1106 N 0.44415 0.95181 0.60872 0.0
C1107 C 0.45683 0.95337 0.59047 0.0
C1108 C 0.45636 0.9682 0.57483 0.0
C1109 C 0.4375 0.99208 0.5757 0.0
H1110 H 0.41929 0.98529 0.57638 0.0
H1111 H 0.44562 0.00718 0.58658 0.0
H1112 H 0.44336 0.99684 0.55777 0.0
O1113 O 0.3913 0.93892 0.6344 0.0
O1114 O 0.40357 0.9152 0.6386 0.0
H1115 H 0.45673 0.92261 0.58897 0.0
H1116 H 0.47793 0.94436 0.5714 0.0
C1117 C 0.46884 0.94066 0.58796 0.0
H1118 H 0.48075 0.94494 0.60237 0.0
H1119 H 0.42193 0.88757 0.62113 0.0
O1120 O 0.40794 0.98792 0.61875 0.0
C1121 C 0.38768 0.91933 0.63795 0.0
Co1122 Co 0.11674 0.3659 0.20854 0.0
Co1123 Co 0.16758 0.39754 0.20003 0.0
C1124 C 0.13914 0.36185 0.16636 0.0
O1125 O 0.12192 0.3556 0.17878 0.0
O1126 O 0.15806 0.37772 0.17259 0.0
C1127 C 0.07487 0.3249 0.21636 0.0
O1128 O 0.08389 0.31449 0.20608 0.0
C1129 C 0.21454 0.41309 0.19002 0.0
C1130 C 0.2306 0.44775 0.20255 0.0
C1131 C 0.23488 0.43259 0.19165 0.0
N1132 N 0.19898 0.41664 0.19956 0.0
N1133 N 0.2087 0.4373 0.2072 0.0
C1134 C 0.20928 0.3923 0.17732 0.0
H1135 H 0.19511 0.37774 0.18565 0.0
H1136 H 0.22373 0.38971 0.1764 0.0
H1137 H 0.20436 0.39359 0.15951 0.0
C1138 C 0.13398 0.35669 0.25117 0.0
N1139 N 0.13703 0.36743 0.23106 0.0
N1140 N 0.15845 0.38078 0.22773 0.0
C1141 C 0.16969 0.37899 0.24573 0.0
C1142 C 0.15451 0.3636 0.26106 0.0
C1143 C 0.1118 0.34034 0.26094 0.0
H1144 H 0.10047 0.34723 0.26001 0.0
H1145 H 0.10455 0.32486 0.25064 0.0
H1146 H 0.11317 0.33626 0.27909 0.0
O1147 O 0.11893 0.39504 0.20394 0.0
O1148 O 0.15482 0.41737 0.19731 0.0
H1149 H 0.20081 0.40928 0.24724 0.0
H1150 H 0.19995 0.38685 0.26391 0.0
C1151 C 0.19445 0.39113 0.24774 0.0
H1152 H 0.20159 0.38686 0.23287 0.0
H1153 H 0.20027 0.44447 0.215 0.0
O1154 O 0.08602 0.34587 0.21871 0.0
C1155 C 0.13519 0.41417 0.19923 0.0
Co1156 Co 0.63332 0.7525 0.2055 0.0
Co1157 Co 0.59897 0.76858 0.19773 0.0
C1158 C 0.63516 0.77762 0.16343 0.0
O1159 O 0.64343 0.76848 0.17591 0.0
O1160 O 0.61809 0.77854 0.16979 0.0
C1161 C 0.67505 0.75272 0.21412 0.0
O1162 O 0.68551 0.77212 0.20381 0.0
C1163 C 0.58178 0.79842 0.18665 0.0
C1164 C 0.548 0.7803 0.20155 0.0
C1165 C 0.56229 0.79917 0.18924 0.0
N1166 N 0.5791 0.77999 0.19709 0.0
N1167 N 0.55892 0.76929 0.20603 0.0
C1168 C 0.60179 0.8134 0.17256 0.0
H1169 H 0.60183 0.80438 0.15685 0.0
H1170 H 0.61708 0.81764 0.18241 0.0
H1171 H 0.60199 0.82877 0.16716 0.0
C1172 C 0.64155 0.77889 0.24811 0.0
N1173 N 0.63074 0.77065 0.22813 0.0
N1174 N 0.61634 0.77747 0.22504 0.0
C1175 C 0.6175 0.79022 0.24308 0.0
C1176 C 0.63358 0.79157 0.25818 0.0
C1177 C 0.65886 0.77433 0.25768 0.0
H1178 H 0.65276 0.75623 0.25708 0.0
H1179 H 0.67408 0.78297 0.24703 0.0
H1180 H 0.66311 0.78017 0.2757 0.0
O1181 O 0.60468 0.72468 0.20069 0.0
O1182 O 0.58022 0.73596 0.19618 0.0
H1183 H 0.58612 0.78871 0.24572 0.0
H1184 H 0.60832 0.81164 0.26124 0.0
C1185 C 0.60402 0.80145 0.24538 0.0
H1186 H 0.60693 0.81223 0.23022 0.0
H1187 H 0.55246 0.75423 0.21482 0.0
O1188 O 0.65403 0.74273 0.21601 0.0
C1189 C 0.58487 0.72046 0.19724 0.0
Co1190 Co 0.24587 0.87957 0.20747 0.0
Co1191 Co 0.22736 0.82875 0.19978 0.0
C1192 C 0.22001 0.8564 0.16526 0.0
O1193 O 0.22992 0.87378 0.17769 0.0
O1194 O 0.21804 0.83798 0.17168 0.0
C1195 C 0.24524 0.92051 0.21659 0.0
O1196 O 0.22452 0.91002 0.2095 0.0
C1197 C 0.19726 0.78204 0.18779 0.0
C1198 C 0.21325 0.7654 0.20516 0.0
C1199 C 0.19566 0.76145 0.19092 0.0
N1200 N 0.21512 0.79736 0.19936 0.0
N1201 N 0.22456 0.7873 0.20976 0.0
C1202 C 0.18146 0.78712 0.17534 0.0
H1203 H 0.18139 0.80156 0.18338 0.0
H1204 H 0.16437 0.7726 0.17559 0.0
H1205 H 0.18697 0.79142 0.15724 0.0
C1206 C 0.21997 0.86266 0.25059 0.0
N1207 N 0.22742 0.85946 0.2304 0.0
N1208 N 0.21867 0.838 0.2268 0.0
C1209 C 0.20479 0.82682 0.2443 0.0
C1210 C 0.20511 0.84212 0.25998 0.0
C1211 C 0.2281 0.88495 0.26144 0.0
H1212 H 0.24597 0.89597 0.25764 0.0
H1213 H 0.21863 0.89256 0.25437 0.0
H1214 H 0.22583 0.88352 0.28036 0.0
O1215 O 0.27298 0.87766 0.20312 0.0
O1216 O 0.26008 0.84164 0.19818 0.0
H1217 H 0.20098 0.79467 0.24935 0.0
H1218 H 0.17704 0.79668 0.25798 0.0
C1219 C 0.19051 0.80207 0.24508 0.0
H1220 H 0.18297 0.7958 0.22797 0.0
H1221 H 0.23891 0.79546 0.21977 0.0
O1222 O 0.25631 0.91049 0.2168 0.0
C1223 C 0.27624 0.86148 0.19951 0.0
H1224 H 0.36218 0.19216 0.86542 0.0
H1225 H 0.33706 0.23767 0.85951 0.0
H1226 H 0.34852 0.18382 0.90501 0.0
H1227 H 0.32361 0.22937 0.89893 0.0
H1228 H 0.33048 0.23193 0.97694 0.0
H1229 H 0.34413 0.23749 0.93761 0.0
H1230 H 0.3108 0.16652 0.9274 0.0
H1231 H 0.29685 0.16077 0.9669 0.0
C1232 C 0.35365 0.20027 0.87248 0.0
C1233 C 0.35087 0.2157 0.85935 0.0
C1234 C 0.34578 0.19542 0.89509 0.0
C1235 C 0.33528 0.20617 0.90505 0.0
C1236 C 0.33195 0.2211 0.89174 0.0
C1237 C 0.33952 0.22571 0.86911 0.0
C1238 C 0.3262 0.21745 0.96647 0.0
C1239 C 0.31242 0.19589 0.97505 0.0
C1240 C 0.33392 0.22067 0.94389 0.0
C1241 C 0.32828 0.20244 0.92944 0.0
C1242 C 0.31537 0.18085 0.93823 0.0
C1243 C 0.30737 0.17759 0.9608 0.0
H1244 H 0.76675 0.09718 0.97606 0.0
H1245 H 0.838 0.13715 0.96803 0.0
H1246 H 0.76174 0.10497 0.93645 0.0
H1247 H 0.8328 0.1451 0.92821 0.0
H1248 H 0.80555 0.16993 0.86605 0.0
H1249 H 0.81417 0.16457 0.90552 0.0
H1250 H 0.77198 0.09368 0.89793 0.0
H1251 H 0.76345 0.09885 0.85862 0.0
C1252 C 0.78136 0.10784 0.96596 0.0
C1253 C 0.8028 0.11644 0.97522 0.0
C1254 C 0.77846 0.11216 0.94321 0.0
C1255 C 0.79689 0.12541 0.92925 0.0
C1256 C 0.81833 0.13481 0.93866 0.0
C1257 C 0.82127 0.13022 0.96141 0.0
C1258 C 0.79831 0.1532 0.87271 0.0
C1259 C 0.78366 0.13485 0.85922 0.0
C1260 C 0.80331 0.15016 0.89526 0.0
C1261 C 0.7935 0.12875 0.90479 0.0
C1262 C 0.77951 0.11039 0.89106 0.0
C1263 C 0.77476 0.11338 0.8685 0.0
H1264 H 0.89692 0.66304 0.85827 0.0
H1265 H 0.82576 0.63239 0.86674 0.0
H1266 H 0.90228 0.6766 0.89764 0.0
H1267 H 0.83133 0.64635 0.90627 0.0
H1268 H 0.85974 0.69908 0.96811 0.0
H1269 H 0.85109 0.68536 0.92851 0.0
H1270 H 0.89131 0.65451 0.93638 0.0
H1271 H 0.89977 0.66782 0.97582 0.0
C1272 C 0.88241 0.65943 0.86839 0.0
C1273 C 0.86088 0.64648 0.85938 0.0
C1274 C 0.88551 0.6671 0.89099 0.0
C1275 C 0.8672 0.66229 0.90499 0.0
C1276 C 0.8457 0.65024 0.89577 0.0
C1277 C 0.84255 0.64224 0.87319 0.0
C1278 C 0.86653 0.68916 0.96147 0.0
C1279 C 0.88055 0.68466 0.9751 0.0
C1280 C 0.86153 0.6813 0.93885 0.0
C1281 C 0.87077 0.66913 0.92941 0.0
C1282 C 0.88423 0.6641 0.94321 0.0
C1283 C 0.88894 0.67163 0.96584 0.0
H1284 H 0.23147 0.32667 0.52635 0.0
H1285 H 0.16082 0.30087 0.53351 0.0
H1286 H 0.23719 0.34094 0.56546 0.0
H1287 H 0.1667 0.31528 0.5728 0.0
H1288 H 0.19487 0.36734 0.63378 0.0
H1289 H 0.18658 0.35296 0.59447 0.0
H1290 H 0.22619 0.32168 0.60452 0.0
H1291 H 0.23444 0.33584 0.64367 0.0
C1292 C 0.21716 0.32421 0.53616 0.0
C1293 C 0.19564 0.31244 0.52685 0.0
C1294 C 0.22045 0.33226 0.55862 0.0
C1295 C 0.20235 0.32896 0.5722 0.0
C1296 C 0.18092 0.31801 0.56267 0.0
C1297 C 0.17757 0.30969 0.54023 0.0
C1298 C 0.20164 0.35723 0.62767 0.0
C1299 C 0.21544 0.35287 0.64184 0.0
C1300 C 0.19684 0.34897 0.60521 0.0
C1301 C 0.20597 0.33646 0.59643 0.0
C1302 C 0.21921 0.33158 0.61077 0.0
C1303 C 0.2238 0.33958 0.63325 0.0
H1304 H 0.61517 0.82942 0.62767 0.0
H1305 H 0.67663 0.88704 0.64878 0.0
H1306 H 0.6293 0.83397 0.58839 0.0
H1307 H 0.69081 0.89125 0.60955 0.0
H1308 H 0.71444 0.87843 0.54012 0.0
H1309 H 0.70023 0.86866 0.57934 0.0
H1310 H 0.63964 0.86668 0.55867 0.0
H1311 H 0.65391 0.8768 0.51946 0.0
C1312 C 0.63182 0.84281 0.62403 0.0
C1313 C 0.64477 0.85795 0.64129 0.0
C1314 C 0.63982 0.84544 0.60154 0.0
C1315 C 0.66107 0.86297 0.59602 0.0
C1316 C 0.6744 0.87752 0.61345 0.0
C1317 C 0.66625 0.87516 0.63583 0.0
C1318 C 0.69797 0.87562 0.54384 0.0
C1319 C 0.6853 0.87844 0.52672 0.0
C1320 C 0.68992 0.87015 0.5663 0.0
C1321 C 0.6689 0.86696 0.57194 0.0
C1322 C 0.65586 0.86891 0.55467 0.0
C1323 C 0.66406 0.8748 0.5323 0.0
H1324 H 0.09665 0.76553 0.52736 0.0
H1325 H 0.13801 0.83681 0.53376 0.0
H1326 H 0.105 0.7611 0.56696 0.0
H1327 H 0.14651 0.83217 0.57355 0.0
H1328 H 0.17084 0.80458 0.63622 0.0
H1329 H 0.1655 0.81274 0.59654 0.0
H1330 H 0.09446 0.77319 0.60522 0.0
H1331 H 0.09959 0.76519 0.64474 0.0
C1332 C 0.10776 0.78026 0.53708 0.0
C1333 C 0.11653 0.80156 0.52742 0.0
C1334 C 0.1124 0.77769 0.55981 0.0
C1335 C 0.12615 0.79632 0.57331 0.0
C1336 C 0.13582 0.81757 0.56345 0.0
C1337 C 0.1309 0.82019 0.54073 0.0
C1338 C 0.15408 0.79788 0.62976 0.0
C1339 C 0.13565 0.7841 0.64361 0.0
C1340 C 0.15107 0.80259 0.60709 0.0
C1341 C 0.1296 0.79333 0.59783 0.0
C1342 C 0.1112 0.78026 0.6119 0.0
C1343 C 0.11417 0.77582 0.63458 0.0
H1344 H 0.65479 0.77555 0.01863 0.0
H1345 H 0.71418 0.83565 0.03928 0.0
H1346 H 0.64019 0.77123 0.0577 0.0
H1347 H 0.69966 0.83099 0.07837 0.0
H1348 H 0.67684 0.78963 0.14813 0.0
H1349 H 0.69104 0.79946 0.1089 0.0
H1350 H 0.62873 0.79299 0.08707 0.0
H1351 H 0.61456 0.78354 0.12637 0.0
C1352 C 0.66463 0.78792 0.03143 0.0
C1353 C 0.68567 0.80589 0.02588 0.0
C1354 C 0.65623 0.78549 0.05373 0.0
C1355 C 0.66887 0.80075 0.07098 0.0
C1356 C 0.68967 0.81897 0.06536 0.0
C1357 C 0.6979 0.82164 0.04298 0.0
C1358 C 0.66628 0.7906 0.13504 0.0
C1359 C 0.64458 0.78577 0.14032 0.0
C1360 C 0.67443 0.79631 0.11264 0.0
C1361 C 0.66091 0.79688 0.09503 0.0
C1362 C 0.63941 0.79255 0.10037 0.0
C1363 C 0.63139 0.78727 0.12286 0.0
H1364 H 0.1639 0.87986 0.04102 0.0
H1365 H 0.22158 0.87602 0.02015 0.0
H1366 H 0.16828 0.87019 0.08032 0.0
H1367 H 0.22561 0.86594 0.05941 0.0
H1368 H 0.2116 0.82864 0.12874 0.0
H1369 H 0.20229 0.83349 0.08945 0.0
H1370 H 0.20113 0.89251 0.1102 0.0
H1371 H 0.21087 0.88802 0.14945 0.0
C1372 C 0.17728 0.87659 0.04472 0.0
C1373 C 0.19247 0.87878 0.02752 0.0
C1374 C 0.17981 0.87117 0.06721 0.0
C1375 C 0.19727 0.86738 0.0728 0.0
C1376 C 0.21192 0.86867 0.05545 0.0
C1377 C 0.20967 0.87452 0.03305 0.0
C1378 C 0.2091 0.84251 0.12501 0.0
C1379 C 0.21208 0.85803 0.14216 0.0
C1380 C 0.20388 0.8453 0.10252 0.0
C1381 C 0.20106 0.86337 0.09689 0.0
C1382 C 0.20311 0.87837 0.11419 0.0
C1383 C 0.20877 0.87584 0.13659 0.0
H1384 H 0.13984 0.30207 0.03326 0.0
H1385 H 0.09843 0.33194 0.02692 0.0
H1386 H 0.14826 0.31512 0.07311 0.0
H1387 H 0.10671 0.34463 0.06652 0.0
H1388 H 0.10048 0.33419 0.1441 0.0
H1389 H 0.09585 0.32132 0.10453 0.0
H1390 H 0.16701 0.35375 0.09643 0.0
H1391 H 0.17185 0.36699 0.1362 0.0
C1392 C 0.1327 0.31154 0.04024 0.0
C1393 C 0.11831 0.31578 0.02694 0.0
C1394 C 0.13758 0.31903 0.06299 0.0
C1395 C 0.12786 0.33057 0.07287 0.0
C1396 C 0.11415 0.33548 0.05936 0.0
C1397 C 0.10954 0.32831 0.03662 0.0
C1398 C 0.11521 0.33842 0.13407 0.0
C1399 C 0.13657 0.35183 0.14329 0.0
C1400 C 0.11251 0.33113 0.11136 0.0
C1401 C 0.13108 0.3368 0.09744 0.0
C1402 C 0.15245 0.34921 0.10687 0.0
C1403 C 0.15518 0.35681 0.12959 0.0
H1404 H 0.83542 0.71719 0.46181 0.0
H1405 H 0.77955 0.6539 0.48169 0.0
H1406 H 0.83162 0.70408 0.42215 0.0
H1407 H 0.77609 0.64077 0.44213 0.0
H1408 H 0.78888 0.61949 0.37191 0.0
H1409 H 0.79911 0.63323 0.4112 0.0
H1410 H 0.79894 0.69323 0.39256 0.0
H1411 H 0.78833 0.67943 0.35328 0.0
C1412 C 0.82261 0.70036 0.45782 0.0
C1413 C 0.8077 0.6866 0.47485 0.0
C1414 C 0.82039 0.69294 0.43512 0.0
C1415 C 0.80354 0.67147 0.42915 0.0
C1416 C 0.78931 0.65736 0.44635 0.0
C1417 C 0.79124 0.6649 0.46894 0.0
C1418 C 0.79131 0.63575 0.37607 0.0
C1419 C 0.78763 0.64832 0.35951 0.0
C1420 C 0.79708 0.64353 0.39858 0.0
C1421 C 0.79973 0.66422 0.40485 0.0
C1422 C 0.79712 0.67727 0.38808 0.0
C1423 C 0.79095 0.66932 0.36566 0.0
H1424 H 0.29756 0.13735 0.46804 0.0
H1425 H 0.32953 0.09801 0.47591 0.0
H1426 H 0.3114 0.14616 0.42845 0.0
H1427 H 0.3429 0.10657 0.4365 0.0
H1428 H 0.33206 0.09945 0.35842 0.0
H1429 H 0.3191 0.09485 0.39796 0.0
H1430 H 0.3515 0.166 0.406 0.0
H1431 H 0.36496 0.17084 0.36624 0.0
C1432 C 0.30767 0.13077 0.46145 0.0
C1433 C 0.3123 0.11685 0.4751 0.0
C1434 C 0.31561 0.13587 0.43886 0.0
C1435 C 0.32796 0.12682 0.42948 0.0
C1436 C 0.33319 0.11355 0.44332 0.0
C1437 C 0.3256 0.10875 0.46592 0.0
C1438 C 0.3363 0.11418 0.36844 0.0
C1439 C 0.3497 0.13553 0.35919 0.0
C1440 C 0.32895 0.1115 0.39112 0.0
C1441 C 0.33452 0.13007 0.40499 0.0
C1442 C 0.34703 0.15145 0.39558 0.0
C1443 C 0.35474 0.15417 0.37289 0.0
H1444 H 0.85887 0.15894 0.46804 0.0
H1445 H 0.90016 0.23011 0.47561 0.0
H1446 H 0.85062 0.1642 0.42834 0.0
H1447 H 0.89208 0.23516 0.4361 0.0
H1448 H 0.89728 0.23249 0.35813 0.0
H1449 H 0.90254 0.22385 0.39736 0.0
H1450 H 0.83154 0.18395 0.4061 0.0
H1451 H 0.82607 0.19275 0.36671 0.0
C1452 C 0.86604 0.17566 0.46134 0.0
C1453 C 0.88027 0.1941 0.47497 0.0
C1454 C 0.86127 0.17864 0.43866 0.0
C1455 C 0.87094 0.20006 0.42917 0.0
C1456 C 0.88466 0.21846 0.44296 0.0
C1457 C 0.88915 0.21554 0.46564 0.0
C1458 C 0.88274 0.22166 0.36824 0.0
C1459 C 0.86123 0.21346 0.35931 0.0
C1460 C 0.88579 0.21684 0.39075 0.0
C1461 C 0.86744 0.20346 0.40476 0.0
C1462 C 0.84594 0.19432 0.3956 0.0
C1463 C 0.84285 0.19941 0.3731 0.0
H1464 H 0.94944 0.49672 0.29303 0.0
H1465 H 0.01042 0.55504 0.31391 0.0
H1466 H 0.96362 0.50126 0.25376 0.0
H1467 H 0.02468 0.55918 0.2747 0.0
H1468 H 0.04817 0.54542 0.20518 0.0
H1469 H 0.03405 0.53577 0.24447 0.0
H1470 H 0.97384 0.53473 0.22416 0.0
H1471 H 0.98805 0.54487 0.18493 0.0
C1472 C 0.96601 0.51026 0.28935 0.0
C1473 C 0.97879 0.52562 0.30652 0.0
C1474 C 0.97403 0.51287 0.26688 0.0
C1475 C 0.99516 0.53057 0.26131 0.0
C1476 C 0.00836 0.54533 0.27866 0.0
C1477 C 0.00017 0.543 0.30103 0.0
C1478 C 0.0318 0.54288 0.20901 0.0
C1479 C 0.01924 0.546 0.192 0.0
C1480 C 0.02381 0.53745 0.23149 0.0
C1481 C 0.00292 0.53455 0.23722 0.0
C1482 C 0.98996 0.53676 0.22006 0.0
C1483 C 0.99813 0.54265 0.19768 0.0
H1484 H 0.43077 0.43349 0.19345 0.0
H1485 H 0.4704 0.50488 0.20057 0.0
H1486 H 0.43908 0.42904 0.23305 0.0
H1487 H 0.47892 0.50021 0.24038 0.0
H1488 H 0.50406 0.47213 0.30249 0.0
H1489 H 0.49872 0.48078 0.26299 0.0
H1490 H 0.42769 0.4408 0.27148 0.0
H1491 H 0.43282 0.43234 0.31083 0.0
C1492 C 0.4415 0.44825 0.20333 0.0
C1493 C 0.4498 0.46957 0.19387 0.0
C1494 C 0.44612 0.44566 0.22605 0.0
C1495 C 0.4594 0.4643 0.23974 0.0
C1496 C 0.46859 0.48561 0.23011 0.0
C1497 C 0.46368 0.48824 0.20738 0.0
C1498 C 0.48731 0.46545 0.29603 0.0
C1499 C 0.46888 0.4514 0.30976 0.0
C1500 C 0.48429 0.47044 0.27348 0.0
C1501 C 0.46283 0.4612 0.26423 0.0
C1502 C 0.44442 0.44789 0.27819 0.0
C1503 C 0.4474 0.44317 0.30076 0.0
H1504 H 0.49389 0.9677 0.19915 0.0
H1505 H 0.56456 0.99328 0.19277 0.0
H1506 H 0.49935 0.98142 0.23871 0.0
H1507 H 0.56987 0.00685 0.23214 0.0
H1508 H 0.56593 -0.00015 0.31022 0.0
H1509 H 0.55798 0.98645 0.27078 0.0
H1510 H 0.51944 0.01893 0.26116 0.0
H1511 H 0.52748 0.03258 0.30075 0.0
C1512 C 0.51056 0.97634 0.2061 0.0
C1513 C 0.52875 0.97922 0.19285 0.0
C1514 C 0.51367 0.98426 0.22869 0.0
C1515 C 0.53498 0.99492 0.23851 0.0
C1516 C 0.55321 0.99838 0.22506 0.0
C1517 C 0.55016 0.99075 0.20246 0.0
C1518 C 0.55558 0.00401 0.29984 0.0
C1519 C 0.54746 0.01744 0.30863 0.0
C1520 C 0.55116 0.99644 0.2772 0.0
C1521 C 0.53833 0.00189 0.2629 0.0
C1522 C 0.5294 0.01451 0.27187 0.0
C1523 C 0.53405 0.02235 0.29449 0.0
H1524 H 0.45378 0.95119 0.70634 0.0
H1525 H 0.45534 0.01182 0.68614 0.0
H1526 H 0.46349 0.96518 0.74562 0.0
H1527 H 0.46546 0.02587 0.72542 0.0
H1528 H 0.50185 0.04954 0.79507 0.0
H1529 H 0.49791 0.0359 0.75562 0.0
H1530 H 0.44026 0.97418 0.77558 0.0
H1531 H 0.44383 0.98786 0.81495 0.0
C1532 C 0.45659 0.96765 0.71016 0.0
C1533 C 0.45369 0.98037 0.69316 0.0
C1534 C 0.46204 0.97557 0.73266 0.0
C1535 C 0.46514 0.99653 0.73847 0.0
C1536 C 0.46327 0.00969 0.72129 0.0
C1537 C 0.4574 0.00161 0.69888 0.0
C1538 C 0.4885 0.03295 0.79112 0.0
C1539 C 0.47306 0.0198 0.80808 0.0
C1540 C 0.48622 0.02523 0.76855 0.0
C1541 C 0.46878 0.00406 0.76265 0.0
C1542 C 0.45393 0.99053 0.77978 0.0
C1543 C 0.45593 0.9984 0.80225 0.0
H1544 H 0.00113 0.43385 0.68953 0.0
H1545 H 0.03145 0.50507 0.69702 0.0
H1546 H 0.9879 0.42893 0.72899 0.0
H1547 H 0.01785 0.49994 0.73667 0.0
H1548 H 0.9657 0.47195 0.79909 0.0
H1549 H 0.97915 0.48034 0.75938 0.0
H1550 H 0.01033 0.44044 0.7674 0.0
H1551 H 0.99723 0.43219 0.80689 0.0
C1552 C 0.00475 0.44846 0.69946 0.0
C1553 C 0.01752 0.46989 0.69014 0.0
C1554 C 0.99726 0.44562 0.7221 0.0
C1555 C 0.0021 0.46407 0.73587 0.0
C1556 C 0.01395 0.48546 0.72635 0.0
C1557 C 0.02176 0.48837 0.70372 0.0
C1558 C 0.97561 0.46517 0.79245 0.0
C1559 C 0.98023 0.45126 0.80613 0.0
C1560 C 0.98333 0.47003 0.76978 0.0
C1561 C 0.99549 0.46078 0.76034 0.0
C1562 C 0.00071 0.44751 0.77422 0.0
C1563 C 0.99331 0.44292 0.79688 0.0
H1564 H 0.52349 0.49394 0.8021 0.0
H1565 H 0.5675 0.56477 0.80901 0.0
H1566 H 0.51548 0.49941 0.76242 0.0
H1567 H 0.55952 0.57007 0.76953 0.0
H1568 H 0.56421 0.56632 0.69157 0.0
H1569 H 0.56903 0.55815 0.73111 0.0
H1570 H 0.49788 0.51966 0.7396 0.0
H1571 H 0.49288 0.52795 0.69986 0.0
C1572 C 0.53133 0.51065 0.79525 0.0
C1573 C 0.54629 0.52889 0.80867 0.0
C1574 C 0.52666 0.51376 0.77259 0.0
C1575 C 0.53711 0.53512 0.7629 0.0
C1576 C 0.55149 0.55339 0.77652 0.0
C1577 C 0.55592 0.55034 0.79919 0.0
C1578 C 0.54953 0.55592 0.7017 0.0
C1579 C 0.52813 0.54792 0.69256 0.0
C1580 C 0.55233 0.55138 0.72441 0.0
C1581 C 0.53382 0.53851 0.73843 0.0
C1582 C 0.51241 0.52965 0.7291 0.0
C1583 C 0.50958 0.53444 0.7064 0.0
H1584 H 0.37551 0.38527 0.09967 0.0
H1585 H 0.43301 0.37996 0.11789 0.0
H1586 H 0.35821 0.34851 0.08274 0.0
H1587 H 0.41531 0.34266 0.10096 0.0
H1588 H 0.38256 0.28694 0.04396 0.0
H1589 H 0.40254 0.32372 0.06197 0.0
H1590 H 0.34257 0.31037 0.09756 0.0
H1591 H 0.32266 0.27409 0.07957 0.0
C1592 C 0.38447 0.37623 0.10015 0.0
C1593 C 0.40561 0.3855 0.11027 0.0
C1594 C 0.37447 0.3551 0.09051 0.0
C1595 C 0.38533 0.34266 0.09072 0.0
C1596 C 0.40662 0.35196 0.10051 0.0
C1597 C 0.41666 0.37321 0.11031 0.0
C1598 C 0.37371 0.29189 0.05568 0.0
C1599 C 0.35097 0.27773 0.0601 0.0
C1600 C 0.38517 0.31285 0.06608 0.0
C1601 C 0.37403 0.31995 0.08097 0.0
C1602 C 0.35149 0.3055 0.08583 0.0
C1603 C 0.3401 0.28468 0.07552 0.0
H1604 H 0.72389 0.04977 0.08022 0.0
H1605 H 0.70856 0.09304 0.04059 0.0
H1606 H 0.68736 0.0327 0.09771 0.0
H1607 H 0.67152 0.0755 0.05806 0.0
H1608 H 0.61446 0.0503 0.11252 0.0
H1609 H 0.65188 0.0704 0.09599 0.0
H1610 H 0.64963 0.00803 0.0836 0.0
H1611 H 0.61274 0.9881 0.10023 0.0
C1612 C 0.7127 0.05563 0.07517 0.0
C1613 C 0.71905 0.07261 0.05879 0.0
C1614 C 0.69172 0.04578 0.08519 0.0
C1615 C 0.6765 0.05259 0.07906 0.0
C1616 C 0.68298 0.06999 0.06316 0.0
C1617 C 0.7041 0.07992 0.05308 0.0
C1618 C 0.62204 0.04094 0.10633 0.0
C1619 C 0.6107 0.01762 0.10784 0.0
C1620 C 0.64336 0.05243 0.09675 0.0
C1621 C 0.65371 0.04078 0.08867 0.0
C1622 C 0.64225 0.01749 0.09004 0.0
C1623 C 0.62103 0.00606 0.0995 0.0
H1624 H 0.94472 0.67156 0.08285 0.0
H1625 H 0.90505 0.61459 0.0396 0.0
H1626 H 0.96124 0.65185 0.10104 0.0
H1627 H 0.92204 0.59489 0.05775 0.0
H1628 H 0.94544 0.56121 0.11151 0.0
H1629 H 0.92543 0.57873 0.09524 0.0
H1630 H 0.98746 0.64041 0.08806 0.0
H1631 H 0.00728 0.62323 0.10443 0.0
C1632 C 0.93953 0.65481 0.07717 0.0
C1633 C 0.92376 0.64474 0.05955 0.0
C1634 C 0.94906 0.64354 0.08759 0.0
C1635 C 0.94313 0.62193 0.08064 0.0
C1636 C 0.92684 0.61151 0.06353 0.0
C1637 C 0.91723 0.62283 0.05306 0.0
C1638 C 0.95473 0.57854 0.10657 0.0
C1639 C 0.97793 0.59085 0.10936 0.0
C1640 C 0.9433 0.5885 0.09712 0.0
C1641 C 0.95487 0.61096 0.09051 0.0
C1642 C 0.97803 0.62318 0.09333 0.0
C1643 C 0.9894 0.61326 0.10263 0.0
H1644 H 0.28339 0.38265 0.45194 0.0
H1645 H 0.27668 0.32047 0.42876 0.0
H1646 H 0.32073 0.40259 0.43523 0.0
H1647 H 0.31351 0.34029 0.41197 0.0
H1648 H 0.38828 0.37831 0.40982 0.0
H1649 H 0.35154 0.36094 0.42689 0.0
H1650 H 0.3402 0.41124 0.39682 0.0
H1651 H 0.37742 0.42902 0.37979 0.0
C1652 C 0.28982 0.37326 0.44327 0.0
C1653 C 0.27715 0.34997 0.44188 0.0
C1654 C 0.31111 0.38468 0.4336 0.0
C1655 C 0.32008 0.37297 0.42248 0.0
C1656 C 0.30722 0.34974 0.4208 0.0
C1657 C 0.28605 0.33839 0.43038 0.0
C1658 C 0.37803 0.38575 0.40679 0.0
C1659 C 0.38572 0.40495 0.39325 0.0
C1660 C 0.35692 0.37572 0.41654 0.0
C1661 C 0.34292 0.3846 0.413 0.0
C1662 C 0.35071 0.4041 0.3999 0.0
C1663 C 0.37193 0.41417 0.39005 0.0
H1664 H 0.61148 0.89669 0.45159 0.0
H1665 H 0.67429 0.9543 0.43366 0.0
H1666 H 0.59188 0.91446 0.4349 0.0
H1667 H 0.65484 0.97167 0.41685 0.0
H1668 H 0.61585 0.00712 0.41264 0.0
H1669 H 0.63267 0.98759 0.43054 0.0
H1670 H 0.58508 0.92686 0.39675 0.0
H1671 H 0.56781 0.94645 0.37893 0.0
C1672 C 0.62109 0.91309 0.44412 0.0
C1673 C 0.64444 0.92414 0.44411 0.0
C1674 C 0.60987 0.92318 0.43445 0.0
C1675 C 0.62183 0.94451 0.42472 0.0
C1676 C 0.64514 0.95539 0.42458 0.0
C1677 C 0.6563 0.94536 0.43416 0.0
C1678 C 0.60889 0.9896 0.40897 0.0
C1679 C 0.59061 0.97839 0.39415 0.0
C1680 C 0.6186 0.97842 0.41921 0.0
C1681 C 0.61034 0.95575 0.41487 0.0
C1682 C 0.59172 0.94433 0.4005 0.0
C1683 C 0.58194 0.95557 0.39019 0.0
H1684 H 0.99671 0.62072 0.37978 0.0
H1685 H 0.04927 0.60872 0.4012 0.0
H1686 H 0.01618 0.65744 0.39696 0.0
H1687 H 0.06846 0.64529 0.4195 0.0
H1688 H 0.1054 0.72112 0.43276 0.0
H1689 H 0.08839 0.68464 0.41429 0.0
H1690 H 0.0234 0.67311 0.43376 0.0
H1691 H 0.04032 0.70974 0.4511 0.0
C1692 C 0.01246 0.62596 0.38825 0.0
C1693 C 0.02143 0.61184 0.38927 0.0
C1694 C 0.02355 0.64696 0.3983 0.0
C1695 C 0.04372 0.65423 0.41006 0.0
C1696 C 0.05304 0.64032 0.41049 0.0
C1697 C 0.04205 0.61935 0.40006 0.0
C1698 C 0.08749 0.71065 0.43317 0.0
C1699 C 0.07416 0.7183 0.44317 0.0
C1700 C 0.07773 0.68974 0.42264 0.0
C1701 C 0.05447 0.67601 0.42219 0.0
C1702 C 0.0413 0.68344 0.43311 0.0
C1703 C 0.05101 0.70439 0.44325 0.0
H1704 H 0.60666 0.63445 0.85358 0.0
H1705 H 0.59034 0.60229 0.92001 0.0
H1706 H 0.62044 0.67042 0.87235 0.0
H1707 H 0.60429 0.63818 0.93865 0.0
H1708 H 0.61736 0.70602 0.96394 0.0
H1709 H 0.59814 0.6704 0.94362 0.0
H1710 H 0.65342 0.69318 0.89667 0.0
H1711 H 0.67247 0.72851 0.91667 0.0
C1712 C 0.60584 0.63501 0.87214 0.0
C1713 C 0.59764 0.61554 0.8853 0.0
C1714 C 0.61378 0.65561 0.88288 0.0
C1715 C 0.61355 0.65711 0.90697 0.0
C1716 C 0.60451 0.63754 0.92006 0.0
C1717 C 0.59668 0.61699 0.90935 0.0
C1718 C 0.62531 0.70342 0.94921 0.0
C1719 C 0.64648 0.72004 0.94202 0.0
C1720 C 0.61434 0.68305 0.93762 0.0
C1721 C 0.62426 0.67906 0.91851 0.0
C1722 C 0.64521 0.69586 0.91111 0.0
C1723 C 0.65621 0.71606 0.92275 0.0
H1724 H 0.2747 0.9483 0.92486 0.0
H1725 H 0.28817 0.90099 0.95891 0.0
H1726 H 0.31075 0.96498 0.90634 0.0
H1727 H 0.32475 0.91812 0.94042 0.0
H1728 H 0.38011 0.94391 0.88387 0.0
H1729 H 0.34316 0.92441 0.90157 0.0
H1730 H 0.34913 0.98747 0.91951 0.0
H1731 H 0.38553 0.00682 0.90176 0.0
C1732 C 0.28539 0.94148 0.92849 0.0
C1733 C 0.27863 0.92343 0.94358 0.0
C1734 C 0.30611 0.95111 0.91788 0.0
C1735 C 0.32067 0.94301 0.9221 0.0
C1736 C 0.3138 0.92463 0.93676 0.0
C1737 C 0.29295 0.91493 0.94745 0.0
C1738 C 0.37345 0.95356 0.89153 0.0
C1739 C 0.3857 0.97691 0.89126 0.0
C1740 C 0.35239 0.9424 0.90179 0.0
C1741 C 0.3432 0.95442 0.91178 0.0
C1742 C 0.35558 0.97773 0.91162 0.0
C1743 C 0.37653 0.98883 0.90151 0.0
H1744 H 0.10693 0.38544 0.9326 0.0
H1745 H 0.04218 0.33218 0.95253 0.0
H1746 H 0.08964 0.40485 0.91456 0.0
H1747 H 0.02501 0.35184 0.93563 0.0
H1748 H 0.99739 0.37669 0.88178 0.0
H1749 H 0.01713 0.35969 0.89884 0.0
H1750 H 0.06984 0.42444 0.92003 0.0
H1751 H 0.05034 0.44157 0.90183 0.0
C1752 C 0.08905 0.3781 0.93346 0.0
C1753 C 0.07586 0.35723 0.94374 0.0
C1754 C 0.07913 0.38922 0.92318 0.0
C1755 C 0.05587 0.37976 0.92328 0.0
C1756 C 0.04289 0.35933 0.93455 0.0
C1757 C 0.05274 0.34812 0.94444 0.0
C1758 C 0.01328 0.38731 0.88994 0.0
C1759 C 0.02229 0.41042 0.89061 0.0
C1760 C 0.02454 0.37756 0.89993 0.0
C1761 C 0.04491 0.39063 0.91126 0.0
C1762 C 0.05426 0.41387 0.91136 0.0
C1763 C 0.04309 0.4237 0.90098 0.0
H1764 H 0.61969 0.56669 0.62153 0.0
H1765 H 0.60884 0.61696 0.59036 0.0
H1766 H 0.65644 0.58351 0.60345 0.0
H1767 H 0.64505 0.63333 0.57224 0.0
H1768 H 0.71987 0.67321 0.5689 0.0
H1769 H 0.68333 0.65406 0.58629 0.0
H1770 H 0.6752 0.59099 0.56457 0.0
H1771 H 0.71232 0.61027 0.54722 0.0
C1772 C 0.62508 0.58123 0.6108 0.0
C1773 C 0.61145 0.59063 0.60762 0.0
C1774 C 0.64602 0.59074 0.60034 0.0
C1775 C 0.65367 0.60984 0.58662 0.0
C1776 C 0.63979 0.61886 0.58307 0.0
C1777 C 0.61898 0.60941 0.59344 0.0
C1778 C 0.71037 0.65526 0.56772 0.0
C1779 C 0.71898 0.64328 0.5565 0.0
C1780 C 0.68935 0.64429 0.57765 0.0
C1781 C 0.67632 0.62105 0.57662 0.0
C1782 C 0.68495 0.60893 0.5657 0.0
C1783 C 0.7061 0.61997 0.55565 0.0
H1784 H 0.43482 0.05408 0.61771 0.0
H1785 H 0.37697 0.99107 0.60083 0.0
H1786 H 0.41701 0.0735 0.60061 0.0
H1787 H 0.35955 0.01034 0.58371 0.0
H1788 H 0.32422 0.04946 0.57965 0.0
H1789 H 0.34408 0.03312 0.59781 0.0
H1790 H 0.40398 0.07929 0.56184 0.0
H1791 H 0.38405 0.09606 0.54368 0.0
C1792 C 0.41836 0.04439 0.6104 0.0
C1793 C 0.40726 0.02104 0.61078 0.0
C1794 C 0.40826 0.0555 0.6005 0.0
C1795 C 0.38684 0.04342 0.59099 0.0
C1796 C 0.37591 0.02011 0.59124 0.0
C1797 C 0.38597 0.00907 0.60099 0.0
C1798 C 0.34163 0.05622 0.57555 0.0
C1799 C 0.35249 0.07392 0.55999 0.0
C1800 C 0.353 0.04679 0.58595 0.0
C1801 C 0.37551 0.05476 0.58105 0.0
C1802 C 0.38664 0.07287 0.56599 0.0
C1803 C 0.3752 0.08236 0.55551 0.0
H1804 H 0.9451 0.38156 0.61365 0.0
H1805 H 0.00754 0.38573 0.59611 0.0
H1806 H 0.92512 0.34395 0.59753 0.0
H1807 H 0.9877 0.34862 0.57996 0.0
H1808 H 0.94787 0.27401 0.57843 0.0
H1809 H 0.96494 0.31082 0.59533 0.0
H1810 H 0.91843 0.32402 0.5593 0.0
H1811 H 0.90094 0.28673 0.54241 0.0
C1812 C 0.95455 0.37449 0.60638 0.0
C1813 C 0.97791 0.38657 0.60631 0.0
C1814 C 0.94311 0.35305 0.59703 0.0
C1815 C 0.95487 0.34332 0.58766 0.0
C1816 C 0.97819 0.35554 0.58741 0.0
C1817 C 0.98955 0.37687 0.5966 0.0
C1818 C 0.94119 0.28468 0.57406 0.0
C1819 C 0.92318 0.27751 0.55885 0.0
C1820 C 0.95104 0.30582 0.58372 0.0
C1821 C 0.94317 0.32037 0.57844 0.0
C1822 C 0.92477 0.31308 0.56374 0.0
C1823 C 0.91486 0.29182 0.55398 0.0
H1824 H 0.94239 0.65513 0.76098 0.0
H1825 H 0.95071 0.71724 0.78662 0.0
H1826 H 0.97926 0.67472 0.74421 0.0
H1827 H 0.98804 0.73693 0.76983 0.0
H1828 H 0.04468 0.76347 0.71408 0.0
H1829 H 0.00738 0.74597 0.73093 0.0
H1830 H 0.01739 0.69441 0.75983 0.0
H1831 H 0.05423 0.71153 0.74299 0.0
C1832 C 0.9521 0.67299 0.76309 0.0
C1833 C 0.94366 0.68461 0.77531 0.0
C1834 C 0.97328 0.6842 0.75353 0.0
C1835 C 0.98658 0.70732 0.75589 0.0
C1836 C 0.97807 0.7191 0.76768 0.0
C1837 C 0.95679 0.70782 0.77739 0.0
C1838 C 0.03888 0.74841 0.72404 0.0
C1839 C 0.05234 0.73878 0.72701 0.0
C1840 C 0.01762 0.7385 0.73379 0.0
C1841 C 0.00946 0.71874 0.74651 0.0
C1842 C 0.0231 0.70942 0.74978 0.0
C1843 C 0.04426 0.7193 0.74017 0.0
H1844 H 0.2797 0.23225 0.78261 0.0
H1845 H 0.34225 0.29022 0.76473 0.0
H1846 H 0.25984 0.24995 0.7664 0.0
H1847 H 0.32254 0.30752 0.7484 0.0
H1848 H 0.28342 0.34279 0.74602 0.0
H1849 H 0.30028 0.32301 0.76324 0.0
H1850 H 0.25283 0.26286 0.72848 0.0
H1851 H 0.2355 0.2827 0.71134 0.0
C1852 C 0.28919 0.2487 0.77524 0.0
C1853 C 0.31254 0.2599 0.77513 0.0
C1854 C 0.27782 0.25875 0.76585 0.0
C1855 C 0.28965 0.28018 0.75632 0.0
C1856 C 0.31296 0.29116 0.756 0.0
C1857 C 0.32426 0.28118 0.7653 0.0
C1858 C 0.27651 0.32535 0.74199 0.0
C1859 C 0.25827 0.31437 0.72708 0.0
C1860 C 0.28623 0.31403 0.75184 0.0
C1861 C 0.27804 0.29146 0.74699 0.0
C1862 C 0.25942 0.28024 0.73258 0.0
C1863 C 0.2496 0.29162 0.72269 0.0
H1864 H 0.76406 0.0454 0.7861 0.0
H1865 H 0.71018 0.05352 0.76034 0.0
H1866 H 0.7471 0.0085 0.76838 0.0
H1867 H 0.69361 0.01711 0.74259 0.0
H1868 H 0.65616 0.94226 0.73952 0.0
H1869 H 0.67525 0.97878 0.75704 0.0
H1870 H 0.73762 0.98981 0.72932 0.0
H1871 H 0.71843 0.95276 0.7118 0.0
C1872 C 0.74868 0.03937 0.77665 0.0
C1873 C 0.73836 0.0523 0.77483 0.0
C1874 C 0.73907 0.01834 0.7664 0.0
C1875 C 0.71896 0.00989 0.75428 0.0
C1876 C 0.70892 0.02302 0.75216 0.0
C1877 C 0.71848 0.04394 0.7623 0.0
C1878 C 0.67395 0.95239 0.73708 0.0
C1879 C 0.68575 0.94465 0.72408 0.0
C1880 C 0.68487 0.97338 0.74708 0.0
C1881 C 0.70788 0.98722 0.74436 0.0
C1882 C 0.71986 0.97942 0.73176 0.0
C1883 C 0.70887 0.9583 0.72163 0.0
H1884 H 0.33472 0.05817 0.25063 0.0
H1885 H 0.28092 0.03807 0.29921 0.0
H1886 H 0.31479 0.0221 0.23212 0.0
H1887 H 0.261 0.00159 0.28064 0.0
H1888 H 0.22512 0.94494 0.22669 0.0
H1889 H 0.24259 0.98238 0.24325 0.0
H1890 H 0.30579 0.98456 0.24427 0.0
H1891 H 0.28862 0.94762 0.22768 0.0
C1892 C 0.31862 0.04606 0.25739 0.0
C1893 C 0.30953 0.0509 0.2766 0.0
C1894 C 0.30723 0.02536 0.24677 0.0
C1895 C 0.28646 0.00897 0.25508 0.0
C1896 C 0.27695 0.01398 0.27381 0.0
C1897 C 0.28841 0.03479 0.28451 0.0
C1898 C 0.24277 0.95352 0.23032 0.0
C1899 C 0.2555 0.94335 0.22581 0.0
C1900 C 0.25271 0.97485 0.23993 0.0
C1901 C 0.27556 0.98639 0.24493 0.0
C1902 C 0.28822 0.97621 0.24029 0.0
C1903 C 0.27832 0.95496 0.23088 0.0
H1904 H 0.04707 0.27968 0.21883 0.0
H1905 H 0.05159 0.34228 0.23632 0.0
H1906 H 0.0096 0.25986 0.23533 0.0
H1907 H 0.01464 0.32261 0.25284 0.0
H1908 H 0.94014 0.28301 0.25562 0.0
H1909 H 0.97661 0.29977 0.23798 0.0
H1910 H 0.99031 0.25358 0.27396 0.0
H1911 H 0.95337 0.23642 0.29161 0.0
C1912 C 0.0401 0.28919 0.22615 0.0
C1913 C 0.05224 0.31254 0.22613 0.0
C1914 C 0.01875 0.27785 0.23571 0.0
C1915 C 0.00918 0.28971 0.24521 0.0
C1916 C 0.02144 0.31302 0.24531 0.0
C1917 C 0.04268 0.32429 0.23591 0.0
C1918 C 0.95085 0.27634 0.25983 0.0
C1919 C 0.94394 0.25853 0.27525 0.0
C1920 C 0.97178 0.286 0.24972 0.0
C1921 C 0.98638 0.27813 0.25479 0.0
C1922 C 0.97933 0.25991 0.26969 0.0
C1923 C 0.95827 0.2502 0.27988 0.0
H1924 H 0.76304 0.72139 0.29317 0.0
H1925 H 0.717 0.66107 0.25753 0.0
H1926 H 0.74587 0.74081 0.27467 0.0
H1927 H 0.70029 0.68041 0.23905 0.0
H1928 H 0.65758 0.71237 0.2348 0.0
H1929 H 0.67714 0.69559 0.25266 0.0
H1930 H 0.74001 0.75333 0.23556 0.0
H1931 H 0.72029 0.7705 0.21772 0.0
C1932 C 0.74937 0.71232 0.28136 0.0
C1933 C 0.74122 0.68963 0.27705 0.0
C1934 C 0.73966 0.72346 0.27068 0.0
C1935 C 0.72162 0.71205 0.2556 0.0
C1936 C 0.7139 0.68954 0.25092 0.0
C1937 C 0.72354 0.67847 0.26151 0.0
C1938 C 0.67558 0.72157 0.23476 0.0
C1939 C 0.68738 0.74274 0.22468 0.0
C1940 C 0.68678 0.71188 0.24494 0.0
C1941 C 0.7101 0.72307 0.24534 0.0
C1942 C 0.72201 0.74438 0.23557 0.0
C1943 C 0.71074 0.75412 0.22524 0.0
H1944 H 0.287 0.17767 0.13596 0.0
H1945 H 0.33046 0.16279 0.09665 0.0
H1946 H 0.30313 0.1735 0.17165 0.0
H1947 H 0.34753 0.15959 0.13212 0.0
H1948 H 0.35775 0.13379 0.20054 0.0
H1949 H 0.34193 0.13759 0.16469 0.0
H1950 H 0.33555 0.19119 0.19441 0.0
H1951 H 0.35013 0.18624 0.23079 0.0
C1952 C 0.29995 0.17334 0.13511 0.0
C1953 C 0.30737 0.17021 0.11382 0.0
C1954 C 0.30945 0.17127 0.15547 0.0
C1955 C 0.32681 0.16637 0.15487 0.0
C1956 C 0.33401 0.16305 0.13335 0.0
C1957 C 0.3243 0.16487 0.11302 0.0
C1958 C 0.35292 0.14636 0.19934 0.0
C1959 C 0.35491 0.15956 0.21845 0.0
C1960 C 0.34404 0.14871 0.17872 0.0
C1961 C 0.33724 0.16459 0.17658 0.0
C1962 C 0.34013 0.17844 0.19552 0.0
C1963 C 0.3488 0.17588 0.21627 0.0
H1964 H 0.8106 0.15829 0.10111 0.0
H1965 H 0.84186 0.12448 0.13203 0.0
H1966 H 0.81444 0.17802 0.13723 0.0
H1967 H 0.84561 0.14407 0.16836 0.0
H1968 H 0.82237 0.1633 0.23504 0.0
H1969 H 0.81844 0.14404 0.19845 0.0
H1970 H 0.84566 0.20664 0.16247 0.0
H1971 H 0.84972 0.22575 0.1991 0.0
C1972 C 0.81849 0.15531 0.11565 0.0
C1973 C 0.82605 0.14005 0.11395 0.0
C1974 C 0.82069 0.16654 0.13626 0.0
C1975 C 0.8302 0.16246 0.15561 0.0
C1976 C 0.83801 0.14734 0.15377 0.0
C1977 C 0.83607 0.13632 0.13302 0.0
C1978 C 0.82722 0.17278 0.21921 0.0
C1979 C 0.8362 0.19587 0.21965 0.0
C1980 C 0.8252 0.16187 0.19838 0.0
C1981 C 0.83187 0.17389 0.17767 0.0
C1982 C 0.84029 0.19696 0.17815 0.0
C1983 C 0.84259 0.20787 0.19901 0.0
H1984 H 0.83466 0.65899 0.23386 0.0
H1985 H 0.77153 0.63045 0.19906 0.0
H1986 H 0.85392 0.67402 0.19721 0.0
H1987 H 0.79065 0.64517 0.16236 0.0
H1988 H 0.83727 0.65452 0.09994 0.0
H1989 H 0.81719 0.63935 0.13608 0.0
H1990 H 0.85625 0.70353 0.1682 0.0
H1991 H 0.8761 0.7187 0.13182 0.0
C1992 C 0.825 0.65576 0.21827 0.0
C1993 C 0.80173 0.64358 0.21905 0.0
C1994 C 0.83594 0.66448 0.19741 0.0
C1995 C 0.82374 0.66084 0.17701 0.0
C1996 C 0.80044 0.64814 0.17781 0.0
C1997 C 0.78952 0.63973 0.19871 0.0
C1998 C 0.84127 0.66537 0.1147 0.0
C1999 C 0.85802 0.68772 0.11328 0.0
C2000 C 0.82985 0.65674 0.13531 0.0
C2001 C 0.83528 0.67025 0.15493 0.0
C2002 C 0.85191 0.69273 0.15337 0.0
C2003 C 0.86309 0.70144 0.13262 0.0
H2004 H 0.14393 0.28029 0.37701 0.0
H2005 H 0.19756 0.34519 0.39569 0.0
H2006 H 0.13847 0.29556 0.34144 0.0
H2007 H 0.19351 0.36018 0.35947 0.0
H2008 H 0.16849 0.38568 0.30152 0.0
H2009 H 0.17213 0.37087 0.33833 0.0
H2010 H 0.15421 0.30828 0.3053 0.0
H2011 H 0.14938 0.32297 0.26899 0.0
C2012 C 0.15452 0.29784 0.37349 0.0
C2013 C 0.17123 0.31153 0.38902 0.0
C2014 C 0.15167 0.30656 0.35293 0.0
C2015 C 0.16571 0.32913 0.34732 0.0
C2016 C 0.18219 0.34282 0.36317 0.0
C2017 C 0.18475 0.33417 0.38384 0.0
C2018 C 0.16552 0.36883 0.3023 0.0
C2019 C 0.15883 0.35542 0.28265 0.0
C2020 C 0.16764 0.3603 0.32331 0.0
C2021 C 0.16343 0.33828 0.32494 0.0
C2022 C 0.15714 0.32511 0.30494 0.0
C2023 C 0.15466 0.33355 0.28406 0.0
H2024 H 0.715 0.86373 0.37511 0.0
H2025 H 0.64962 0.85099 0.39395 0.0
H2026 H 0.70024 0.84385 0.33909 0.0
H2027 H 0.6351 0.8328 0.35721 0.0
H2028 H 0.61092 0.78289 0.29836 0.0
H2029 H 0.62504 0.80123 0.33537 0.0
H2030 H 0.68761 0.84712 0.30309 0.0
H2031 H 0.67365 0.82773 0.2666 0.0
C2032 C 0.69746 0.85666 0.37152 0.0
C2033 C 0.68349 0.85899 0.38727 0.0
C2034 C 0.68902 0.84557 0.35068 0.0
C2035 C 0.66645 0.83685 0.34496 0.0
C2036 C 0.65248 0.83902 0.36098 0.0
C2037 C 0.66086 0.84976 0.38194 0.0
C2038 C 0.62761 0.79702 0.29934 0.0
C2039 C 0.64124 0.80407 0.27986 0.0
C2040 C 0.63574 0.80761 0.32047 0.0
C2041 C 0.65758 0.8257 0.32239 0.0
C2042 C 0.67093 0.83299 0.30252 0.0
C2043 C 0.6629 0.82213 0.28153 0.0
H2044 H 0.11226 0.83006 0.36799 0.0
H2045 H 0.16045 0.81837 0.40212 0.0
H2046 H 0.13118 0.83434 0.33132 0.0
H2047 H 0.18027 0.82374 0.36586 0.0
H2048 H 0.19889 0.81283 0.29449 0.0
H2049 H 0.17829 0.80702 0.33023 0.0
H2050 H 0.16289 0.85772 0.31002 0.0
H2051 H 0.18201 0.86216 0.27373 0.0
C2052 C 0.12719 0.82882 0.36756 0.0
C2053 C 0.13513 0.8241 0.38763 0.0
C2054 C 0.1381 0.83133 0.34665 0.0
C2055 C 0.15732 0.82937 0.34551 0.0
C2056 C 0.16533 0.82494 0.3659 0.0
C2057 C 0.15421 0.82215 0.38672 0.0
C2058 C 0.19072 0.82239 0.29759 0.0
C2059 C 0.19205 0.83795 0.28139 0.0
C2060 C 0.1792 0.81935 0.31823 0.0
C2061 C 0.169 0.83202 0.32322 0.0
C2062 C 0.17023 0.84744 0.30677 0.0
C2063 C 0.18147 0.85022 0.28606 0.0
H2064 H 0.67106 0.83957 0.76599 0.0
H2065 H 0.6148 0.836 0.80105 0.0
H2066 H 0.68597 0.83556 0.80262 0.0
H2067 H 0.62992 0.83295 0.83795 0.0
H2068 H 0.65204 0.80543 0.89719 0.0
H2069 H 0.63671 0.80908 0.8609 0.0
H2070 H 0.70308 0.85512 0.83687 0.0
H2071 H 0.71834 0.85027 0.87285 0.0
C2072 C 0.66189 0.83777 0.78166 0.0
C2073 C 0.64174 0.83774 0.78093 0.0
C2074 C 0.67051 0.83579 0.80266 0.0
C2075 C 0.65925 0.83406 0.82336 0.0
C2076 C 0.63891 0.83391 0.8224 0.0
C2077 C 0.63022 0.83567 0.80135 0.0
C2078 C 0.6633 0.81629 0.88407 0.0
C2079 C 0.68635 0.82743 0.88767 0.0
C2080 C 0.65453 0.81857 0.86334 0.0
C2081 C 0.66862 0.83231 0.84579 0.0
C2082 C 0.69172 0.84405 0.84978 0.0
C2083 C 0.70049 0.84156 0.87049 0.0
H2084 H 0.15687 0.87516 0.87071 0.0
H2085 H 0.18557 0.83908 0.90205 0.0
H2086 H 0.15254 0.85532 0.83442 0.0
H2087 H 0.18118 0.81914 0.86596 0.0
H2088 H 0.1453 0.77207 0.80403 0.0
H2089 H 0.14965 0.79137 0.84058 0.0
H2090 H 0.17921 0.85412 0.80462 0.0
H2091 H 0.17493 0.83467 0.76809 0.0
C2092 C 0.16198 0.86278 0.86981 0.0
C2093 C 0.17146 0.85849 0.88898 0.0
C2094 C 0.15972 0.85162 0.8491 0.0
C2095 C 0.16664 0.8358 0.84739 0.0
C2096 C 0.17561 0.83117 0.86684 0.0
C2097 C 0.17813 0.84253 0.88741 0.0
C2098 C 0.15295 0.79001 0.8041 0.0
C2099 C 0.15989 0.80201 0.78349 0.0
C2100 C 0.15543 0.80103 0.82492 0.0
C2101 C 0.16463 0.82421 0.82538 0.0
C2102 C 0.17184 0.83622 0.80469 0.0
C2103 C 0.16961 0.82519 0.7839 0.0
H2104 H 0.18291 0.32052 0.77301 0.0
H2105 H 0.19691 0.38625 0.79211 0.0
H2106 H 0.16393 0.30596 0.80936 0.0
H2107 H 0.17628 0.37149 0.82782 0.0
H2108 H 0.15979 0.34411 0.90033 0.0
H2109 H 0.179 0.35836 0.86379 0.0
H2110 H 0.1324 0.29635 0.83101 0.0
H2111 H 0.11425 0.28193 0.86804 0.0
C2112 C 0.1817 0.33182 0.78497 0.0
C2113 C 0.19156 0.35454 0.77988 0.0
C2114 C 0.17054 0.32342 0.80572 0.0
C2115 C 0.16856 0.3375 0.82175 0.0
C2116 C 0.17783 0.36018 0.81621 0.0
C2117 C 0.18935 0.36862 0.79557 0.0
C2118 C 0.15398 0.33356 0.88526 0.0
C2119 C 0.13585 0.31194 0.8868 0.0
C2120 C 0.16474 0.34176 0.86425 0.0
C2121 C 0.15724 0.32862 0.84424 0.0
C2122 C 0.13896 0.30687 0.84601 0.0
C2123 C 0.12847 0.29857 0.86715 0.0
H2124 H 0.82085 0.65823 0.73528 0.0
H2125 H 0.85012 0.62514 0.69893 0.0
H2126 H 0.81656 0.6736 0.69888 0.0
H2127 H 0.8458 0.6403 0.66253 0.0
H2128 H 0.81094 0.65285 0.60095 0.0
H2129 H 0.81487 0.637 0.63702 0.0
H2130 H 0.84283 0.70148 0.66921 0.0
H2131 H 0.83888 0.71727 0.63294 0.0
C2132 C 0.82608 0.65408 0.71941 0.0
C2133 C 0.8357 0.64052 0.71969 0.0
C2134 C 0.82385 0.66299 0.69868 0.0
C2135 C 0.83097 0.65823 0.67791 0.0
C2136 C 0.84006 0.64415 0.67824 0.0
C2137 C 0.84252 0.63548 0.69898 0.0
C2138 C 0.81809 0.66359 0.61574 0.0
C2139 C 0.8247 0.68622 0.61432 0.0
C2140 C 0.82036 0.65458 0.63631 0.0
C2141 C 0.82905 0.66799 0.65594 0.0
C2142 C 0.83586 0.69072 0.65441 0.0
C2143 C 0.83383 0.69979 0.6337 0.0
H2144 H 0.31707 0.18548 0.72725 0.0
H2145 H 0.38222 0.19782 0.708 0.0
H2146 H 0.30218 0.1669 0.69077 0.0
H2147 H 0.36709 0.17761 0.67214 0.0
H2148 H 0.33959 0.16085 0.5999 0.0
H2149 H 0.35402 0.18061 0.63615 0.0
H2150 H 0.29187 0.13501 0.66933 0.0
H2151 H 0.2773 0.11627 0.63259 0.0
C2152 C 0.32817 0.18403 0.71522 0.0
C2153 C 0.35083 0.19324 0.72035 0.0
C2154 C 0.31958 0.1731 0.69439 0.0
C2155 C 0.33337 0.17073 0.67831 0.0
C2156 C 0.35599 0.17946 0.68381 0.0
C2157 C 0.36464 0.19073 0.70454 0.0
C2158 C 0.32902 0.15541 0.61497 0.0
C2159 C 0.30736 0.13732 0.61364 0.0
C2160 C 0.33733 0.16648 0.63582 0.0
C2161 C 0.32424 0.15937 0.65588 0.0
C2162 C 0.30237 0.14126 0.65428 0.0
C2163 C 0.29398 0.13045 0.63331 0.0
H2164 H 0.83862 0.18579 0.60105 0.0
H2165 H 0.87165 0.1533 0.631 0.0
H2166 H 0.81885 0.18156 0.63721 0.0
H2167 H 0.85197 0.1491 0.66737 0.0
H2168 H 0.83329 0.17197 0.73468 0.0
H2169 H 0.85241 0.17588 0.69801 0.0
H2170 H 0.78996 0.15042 0.66208 0.0
H2171 H 0.77098 0.14642 0.69879 0.0
C2172 C 0.84141 0.17754 0.61539 0.0
C2173 C 0.8565 0.16978 0.6134 0.0
C2174 C 0.83014 0.17511 0.63601 0.0
C2175 C 0.83399 0.16513 0.65511 0.0
C2176 C 0.84888 0.15707 0.65297 0.0
C2177 C 0.85995 0.15926 0.6322 0.0
C2178 C 0.82382 0.16747 0.71885 0.0
C2179 C 0.80081 0.15902 0.71932 0.0
C2180 C 0.83464 0.16948 0.69797 0.0
C2181 C 0.82262 0.16332 0.67724 0.0
C2182 C 0.79964 0.15539 0.67778 0.0
C2183 C 0.7888 0.15312 0.69868 0.0
H2184 H 0.98502 0.47625 0.56362 0.0
H2185 H 0.05104 0.51228 0.5351 0.0
H2186 H 0.96962 0.4813 0.52777 0.0
H2187 H 0.03571 0.51733 0.49907 0.0
H2188 H 0.95603 0.51766 0.46805 0.0
H2189 H 0.97102 0.51305 0.5045 0.0
H2190 H 0.01058 0.49137 0.46728 0.0
H2191 H 0.99535 0.49585 0.43091 0.0
C2192 C 0.99619 0.48539 0.54966 0.0
C2193 C 0.01914 0.49394 0.55196 0.0
C2194 C 0.98743 0.48833 0.52923 0.0
C2195 C 0.00148 0.49962 0.51063 0.0
C2196 C 0.02451 0.50838 0.51307 0.0
C2197 C 0.03329 0.50568 0.53366 0.0
C2198 C 0.96775 0.51169 0.46783 0.0
C2199 C 0.97454 0.50696 0.44694 0.0
C2200 C 0.97632 0.50907 0.48857 0.0
C2201 C 0.99205 0.50198 0.48867 0.0
C2202 C -0.00133 0.4971 0.46767 0.0
C2203 C 0.98987 0.49945 0.44695 0.0
H2204 H 0.48826 0.5404 0.53625 0.0
H2205 H 0.51986 0.50694 0.56722 0.0
H2206 H 0.48411 0.52039 0.50011 0.0
H2207 H 0.51561 0.48679 0.53131 0.0
H2208 H 0.47989 0.43852 0.46996 0.0
H2209 H 0.48399 0.4579 0.50642 0.0
H2210 H 0.51135 0.52026 0.46999 0.0
H2211 H 0.5074 0.50075 0.43356 0.0
C2212 C 0.49402 0.52853 0.53532 0.0
C2213 C 0.50429 0.52504 0.55433 0.0
C2214 C 0.49186 0.51727 0.51469 0.0
C2215 C 0.49966 0.50215 0.51292 0.0
C2216 C 0.50937 0.49827 0.53223 0.0
C2217 C 0.5118 0.50975 0.55271 0.0
C2218 C 0.48705 0.45641 0.46991 0.0
C2219 C 0.49348 0.46828 0.4492 0.0
C2220 C 0.48937 0.46746 0.49067 0.0
C2221 C 0.49784 0.49054 0.49097 0.0
C2222 C 0.50454 0.50243 0.47018 0.0
C2223 C 0.5025 0.49138 0.44945 0.0
H2224 H 0.53964 0.05144 0.46434 0.0
H2225 H 0.50513 0.986 0.43429 0.0
H2226 H 0.51987 0.03628 0.50073 0.0
H2227 H 0.48519 0.97079 0.47047 0.0
H2228 H 0.43789 0.95964 0.5324 0.0
H2229 H 0.45682 0.97443 0.4956 0.0
H2230 H 0.51977 0.00902 0.53104 0.0
H2231 H 0.50072 0.99393 0.56778 0.0
C2232 C 0.52759 0.03388 0.46552 0.0
C2233 C 0.52373 0.01982 0.4467 0.0
C2234 C 0.51646 0.02518 0.4863 0.0
C2235 C 0.5011 0.00235 0.4884 0.0
C2236 C 0.49685 0.98845 0.46928 0.0
C2237 C 0.50821 0.9971 0.44865 0.0
C2238 C 0.4558 0.9702 0.53215 0.0
C2239 C 0.46799 0.97564 0.55266 0.0
C2240 C 0.4666 0.97865 0.51121 0.0
C2241 C 0.48972 0.99296 0.51054 0.0
C2242 C 0.5019 0.99821 0.53114 0.0
C2243 C 0.49111 0.98948 0.55204 0.0
H2244 H 0.53176 0.01199 0.06073 0.0
H2245 H 0.47808 0.94696 0.0425 0.0
H2246 H 0.52767 0.02671 0.02435 0.0
H2247 H 0.47256 0.96197 0.0068 0.0
H2248 H 0.48294 0.9889 0.93422 0.0
H2249 H 0.48806 0.97447 0.97056 0.0
H2250 H 0.50622 0.03728 0.0032 0.0
H2251 H 0.50228 0.05183 0.96636 0.0
C2252 C 0.51894 0.00088 0.04895 0.0
C2253 C 0.50539 0.97829 0.05432 0.0
C2254 C 0.51635 0.00938 0.02818 0.0
C2255 C 0.49981 0.99558 0.01243 0.0
C2256 C 0.48579 0.97306 0.01821 0.0
C2257 C 0.48867 0.96448 0.03885 0.0
C2258 C 0.48831 -0.00042 0.94921 0.0
C2259 C 0.49244 0.02144 0.94768 0.0
C2260 C 0.49097 0.99129 0.9701 0.0
C2261 C 0.49741 0.0046 0.99002 0.0
C2262 C 0.50162 0.02661 0.98826 0.0
C2263 C 0.49932 0.03498 0.96723 0.0
H2264 H 0.00822 0.49466 0.93195 0.0
H2265 H 0.94603 0.44962 0.96453 0.0
H2266 H 0.02237 0.51458 0.96816 0.0
H2267 H 0.96036 0.46845 0.00127 0.0
H2268 H 0.9846 0.51859 0.05925 0.0
H2269 H 0.97007 0.50006 0.0227 0.0
H2270 H 0.03556 0.51237 0.00411 0.0
H2271 H 0.05031 0.53268 0.03993 0.0
C2272 C 0.99764 0.48912 0.94701 0.0
C2273 C 0.97606 0.4709 0.94565 0.0
C2274 C 0.00578 0.50029 0.96784 0.0
C2275 C 0.99263 0.49311 0.98786 0.0
C2276 C 0.97089 0.47478 0.98625 0.0
C2277 C 0.96264 0.4639 0.96528 0.0
C2278 C 0.99592 0.51757 0.04718 0.0
C2279 C 0.01861 0.52723 0.05235 0.0
C2280 C 0.98753 0.50663 0.02632 0.0
C2281 C 0.00157 0.50464 0.01025 0.0
C2282 C 0.02425 0.51389 0.01576 0.0
C2283 C 0.0327 0.52522 0.03648 0.0
H2284 H 0.49474 0.48769 0.06785 0.0
H2285 H 0.44426 0.4964 0.03457 0.0
H2286 H 0.51321 0.49184 0.03093 0.0
H2287 H 0.4619 0.49952 0.99732 0.0
H2288 H 0.5118 0.52699 0.93835 0.0
H2289 H 0.49294 0.52282 0.97478 0.0
H2290 H 0.50975 0.47333 0.9958 0.0
H2291 H 0.5299 0.47873 0.95975 0.0
C2292 C 0.48774 0.49062 0.05251 0.0
C2293 C 0.4684 0.49208 0.05383 0.0
C2294 C 0.49807 0.49268 0.03133 0.0
C2295 C 0.48901 0.49588 0.01102 0.0
C2296 C 0.46958 0.49742 0.01257 0.0
C2297 C 0.45943 0.49562 0.03382 0.0
C2298 C 0.51148 0.51528 0.95083 0.0
C2299 C 0.52249 0.50337 0.94641 0.0
C2300 C 0.50047 0.51269 0.97164 0.0
C2301 C 0.4999 0.49784 0.98841 0.0
C2302 C 0.51023 0.48526 0.98353 0.0
C2303 C 0.52149 0.48808 0.96276 0.0
H2304 H 0.20483 0.05593 0.0406 0.0
H2305 H 0.24802 0.08653 0.9823 0.0
H2306 H 0.19601 0.0194 0.02648 0.0
H2307 H 0.23949 0.05002 0.96841 0.0
H2308 H 0.23691 0.98158 0.96834 0.0
H2309 H 0.24559 0.01885 0.97965 0.0
H2310 H 0.17619 0.99449 0.99386 0.0
H2311 H 0.16745 0.95717 0.98279 0.0
C2312 C 0.21255 0.05487 0.02484 0.0
C2313 C 0.22756 0.0742 0.01291 0.0
C2314 C 0.20741 0.03395 0.01669 0.0
C2315 C 0.21708 0.03185 0.99634 0.0
C2316 C 0.23206 0.05115 0.98434 0.0
C2317 C 0.23713 0.07211 0.99245 0.0
C2318 C 0.22345 0.98418 0.97366 0.0
C2319 C 0.20149 0.96632 0.97481 0.0
C2320 C 0.22844 0.00557 0.98006 0.0
C2321 C 0.2116 0.00954 0.98786 0.0
C2322 C 0.18956 0.99185 0.98828 0.0
C2323 C 0.18455 0.9705 0.98178 0.0
H2324 H 0.94241 0.15183 0.04423 0.0
H2325 H 0.91179 0.16019 0.98335 0.0
H2326 H 0.97891 0.17911 0.02955 0.0
H2327 H 0.94822 0.18769 0.96886 0.0
H2328 H 0.01525 0.25446 0.96658 0.0
H2329 H 0.97831 0.2257 0.97844 0.0
H2330 H 0.0047 0.18351 0.99813 0.0
H2331 H 0.04177 0.21235 0.98652 0.0
C2332 C 0.94346 0.15957 0.02776 0.0
C2333 C 0.92414 0.15428 0.01527 0.0
C2334 C 0.96436 0.17509 0.0193 0.0
C2335 C 0.96642 0.18559 0.99807 0.0
C2336 C 0.94712 0.18016 0.98546 0.0
C2337 C 0.9262 0.16455 0.9939 0.0
C2338 C 0.01319 0.23898 0.97323 0.0
C2339 C 0.03153 0.23579 0.97574 0.0
C2340 C 0.99198 0.22246 0.97994 0.0
C2341 C 0.98864 0.20242 0.98938 0.0
C2342 C 0.00683 0.19893 0.99123 0.0
C2343 C 0.02804 0.21541 0.98442 0.0
H2344 H 0.78963 0.83212 0.98312 0.0
H2345 H 0.74578 0.76311 0.96571 0.0
H2346 H 0.81819 0.82341 0.9945 0.0
H2347 H 0.77426 0.75445 0.97735 0.0
H2348 H 0.83888 0.75168 0.98175 0.0
H2349 H 0.81168 0.76102 0.96722 0.0
H2350 H 0.82276 0.80271 0.02649 0.0
H2351 H 0.84972 0.7931 0.04121 0.0
C2352 C 0.78613 0.81514 0.98151 0.0
C2353 C 0.76534 0.79829 0.97363 0.0
C2354 C 0.80245 0.81013 0.9882 0.0
C2355 C 0.79839 0.78821 0.98703 0.0
C2356 C 0.77794 0.77152 0.97833 0.0
C2357 C 0.76158 0.77649 0.97175 0.0
C2358 C 0.83513 0.76237 0.99199 0.0
C2359 C 0.84601 0.77115 0.01298 0.0
C2360 C 0.8197 0.76791 0.98352 0.0
C2361 C 0.81505 0.78258 0.99571 0.0
C2362 C 0.82616 0.79157 0.01655 0.0
C2363 C 0.8415 0.78596 0.02505 0.0
H2364 H 0.98122 0.23284 0.54252 0.0
H2365 H 0.95502 0.16689 0.51425 0.0
H2366 H 0.0186 0.24167 0.53177 0.0
H2367 H 0.99231 0.17597 0.50282 0.0
H2368 H 0.06454 0.19361 0.49938 0.0
H2369 H 0.02824 0.18391 0.51526 0.0
H2370 H 0.03959 0.24912 0.49711 0.0
H2371 H 0.076 0.25878 0.48176 0.0
C2372 C 0.98344 0.22018 0.53411 0.0
C2373 C 0.9651 0.1992 0.52912 0.0
C2374 C 0.00487 0.22531 0.52779 0.0
C2375 C 0.00848 0.20964 0.51617 0.0
C2376 C 0.99021 0.18838 0.51194 0.0
C2377 C 0.96878 0.18319 0.51843 0.0
C2378 C 0.05924 0.20585 0.499 0.0
C2379 C 0.07315 0.22706 0.48983 0.0
C2380 C 0.03844 0.2003 0.50798 0.0
C2381 C 0.03101 0.21577 0.50761 0.0
C2382 C 0.04498 0.23698 0.49822 0.0
C2383 C 0.06583 0.24255 0.48941 0.0
H2384 H 0.76183 0.73913 0.5123 0.0
H2385 H 0.826 0.79055 0.53641 0.0
H2386 H 0.75325 0.76746 0.49946 0.0
H2387 H 0.81696 0.81889 0.52401 0.0
H2388 H 0.77197 0.85453 0.51914 0.0
H2389 H 0.78123 0.82721 0.53458 0.0
H2390 H 0.77694 0.80109 0.46633 0.0
H2391 H 0.76829 0.82873 0.45083 0.0
C2392 C 0.77395 0.75645 0.51522 0.0
C2393 C 0.79462 0.76263 0.52534 0.0
C2394 C 0.76905 0.7726 0.50776 0.0
C2395 C 0.78449 0.79521 0.51074 0.0
C2396 C 0.80482 0.80148 0.52162 0.0
C2397 C 0.80996 0.78531 0.52864 0.0
C2398 C 0.77301 0.8429 0.50752 0.0
C2399 C 0.76924 0.84347 0.48389 0.0
C2400 C 0.7784 0.82745 0.5163 0.0
C2401 C 0.77965 0.81212 0.50158 0.0
C2402 C 0.77593 0.81273 0.47796 0.0
C2403 C 0.77106 0.8285 0.46913 0.0
H2404 H 0.208 0.03876 0.51738 0.0
H2405 H 0.2526 0.01445 0.53453 0.0
H2406 H 0.17985 0.00146 0.50584 0.0
H2407 H 0.22424 0.97707 0.52344 0.0
H2408 H 0.17963 0.9212 0.473 0.0
H2409 H 0.20715 0.95758 0.48787 0.0
H2410 H 0.15472 0.96437 0.51986 0.0
H2411 H 0.12728 0.92797 0.50486 0.0
C2412 C 0.21171 0.02543 0.519 0.0
C2413 C 0.23264 0.02967 0.52675 0.0
C2414 C 0.19551 0.004 0.51247 0.0
C2415 C 0.19984 0.9863 0.51356 0.0
C2416 C 0.22051 0.99041 0.522 0.0
C2417 C 0.23672 0.01183 0.52852 0.0
C2418 C 0.1741 0.93028 0.48366 0.0
C2419 C 0.15145 0.92162 0.4883 0.0
C2420 C 0.18982 0.95114 0.49211 0.0
C2421 C 0.18316 0.96382 0.50522 0.0
C2422 C 0.16041 0.95512 0.50969 0.0
C2423 C 0.14471 0.93428 0.5012 0.0
H2424 H 0.76388 0.01563 0.0394 0.0
H2425 H 0.83197 0.04257 0.01728 0.0
H2426 H 0.7557 0.9787 0.02747 0.0
H2427 H 0.82375 0.00552 0.00556 0.0
H2428 H 0.79154 0.94359 0.95861 0.0
H2429 H 0.80137 0.97994 0.97423 0.0
H2430 H 0.7642 0.94864 0.03586 0.0
H2431 H 0.75471 0.91233 0.02043 0.0
C2432 C 0.77719 0.01366 0.03229 0.0
C2433 C 0.79855 0.03212 0.02913 0.0
C2434 C 0.7725 0.99245 0.02554 0.0
C2435 C 0.78903 0.98926 0.01538 0.0
C2436 C 0.81059 0.00755 0.01302 0.0
C2437 C 0.81533 0.02875 0.0199 0.0
C2438 C 0.78546 0.94447 0.9755 0.0
C2439 C 0.77181 0.92502 0.98798 0.0
C2440 C 0.79121 0.96529 0.9845 0.0
C2441 C 0.78349 0.96713 0.00625 0.0
C2442 C 0.77007 0.94771 0.01889 0.0
C2443 C 0.76442 0.92687 0.00992 0.0
H2444 H 0.95708 0.78853 0.01699 0.0
H2445 H 0.98222 0.74527 0.03693 0.0
H2446 H 0.99431 0.8168 0.00543 0.0
H2447 H 0.01954 0.77378 0.02588 0.0
H2448 H 0.07562 0.81735 0.97535 0.0
H2449 H 0.0393 0.78994 0.99043 0.0
H2450 H 0.03112 0.84283 0.01899 0.0
H2451 H 0.06741 0.87016 0.00366 0.0
C2452 C 0.97058 0.78516 0.01925 0.0
C2453 C 0.96659 0.76454 0.02775 0.0
C2454 C 0.99198 0.80143 0.0127 0.0
C2455 C 0.0099 0.79749 0.01456 0.0
C2456 C 0.00604 0.77718 0.02382 0.0
C2457 C 0.98464 0.7609 0.03032 0.0
C2458 C 0.06621 0.82302 0.98527 0.0
C2459 C 0.07445 0.84577 0.98883 0.0
C2460 C 0.0454 0.80736 0.99387 0.0
C2461 C 0.03235 0.81417 0.00609 0.0
C2462 C 0.04064 0.83702 0.00951 0.0
C2463 C 0.06143 0.85265 0.00084 0.0
H2464 H 0.25006 0.23536 0.0367 0.0
H2465 H 0.20791 0.16758 0.01416 0.0
H2466 H 0.22181 0.2443 0.02508 0.0
H2467 H 0.17983 0.17671 0.00208 0.0
H2468 H 0.1264 0.19695 1.00029 0.0
H2469 H 0.15321 0.18714 0.01539 0.0
H2470 H 0.20698 0.24887 0.98908 0.0
H2471 H 0.18011 0.25857 0.97413 0.0
C2472 C 0.23472 0.22231 0.02938 0.0
C2473 C 0.23133 0.20076 0.02624 0.0
C2474 C 0.21859 0.2275 0.02256 0.0
C2475 C 0.19867 0.2113 0.0124 0.0
C2476 C 0.19492 0.18955 0.01 0.0
C2477 C 0.21106 0.18433 0.01687 0.0
C2478 C 0.14398 0.20841 0.99787 0.0
C2479 C 0.15127 0.22877 0.98662 0.0
C2480 C 0.15932 0.20278 0.00642 0.0
C2481 C 0.18226 0.21732 0.00366 0.0
C2482 C 0.18946 0.23755 0.99204 0.0
C2483 C 0.17411 0.24317 0.98354 0.0
H2484 H 0.93049 0.80241 0.50077 0.0
H2485 H 0.92224 0.74204 0.5309 0.0
H2486 H 0.96665 0.81084 0.48545 0.0
H2487 H 0.95837 0.75037 0.51577 0.0
H2488 H 0.01387 0.76054 0.46799 0.0
H2489 H 0.97703 0.75265 0.47976 0.0
H2490 H 0.00375 0.82151 0.49859 0.0
H2491 H 0.04056 0.82957 0.48634 0.0
C2492 C 0.93645 0.79094 0.50403 0.0
C2493 C 0.92343 0.77132 0.51647 0.0
C2494 C 0.95715 0.79577 0.49535 0.0
C2495 C 0.96531 0.78117 0.49918 0.0
C2496 C 0.95233 0.76169 0.51199 0.0
C2497 C 0.93163 0.75686 0.52061 0.0
C2498 C 0.01189 0.77407 0.47442 0.0
C2499 C 0.03023 0.79568 0.47633 0.0
C2500 C 0.99077 0.7695 0.48133 0.0
C2501 C 0.98748 0.78639 0.49035 0.0
C2502 C 0.00567 0.80815 0.49155 0.0
C2503 C 0.02681 0.81274 0.48459 0.0
H2504 H 0.24065 0.15362 0.48047 0.0
H2505 H 0.20279 0.14583 0.54208 0.0
H2506 H 0.23081 0.1804 0.46577 0.0
H2507 H 0.19282 0.17256 0.52734 0.0
H2508 H 0.16365 0.20728 0.48627 0.0
H2509 H 0.17121 0.17777 0.49722 0.0
H2510 H 0.23917 0.21812 0.47459 0.0
H2511 H 0.23161 0.24734 0.4633 0.0
C2512 C 0.2306 0.15795 0.49109 0.0
C2513 C 0.22304 0.14812 0.51275 0.0
C2514 C 0.22477 0.17314 0.48256 0.0
C2515 C 0.21111 0.17869 0.49542 0.0
C2516 C 0.20316 0.16847 0.51688 0.0
C2517 C 0.209 0.15329 0.52539 0.0
C2518 C 0.18012 0.20972 0.48335 0.0
C2519 C 0.19705 0.22974 0.47404 0.0
C2520 C 0.18449 0.19289 0.48978 0.0
C2521 C 0.20584 0.19568 0.48694 0.0
C2522 C 0.2225 0.21535 0.47683 0.0
C2523 C 0.21817 0.23217 0.47047 0.0
H2524 H 0.78833 0.95492 0.48475 0.0
H2525 H 0.74621 0.98124 0.46422 0.0
H2526 H 0.81714 0.99214 0.49619 0.0
H2527 H 0.77488 0.01826 0.47587 0.0
H2528 H 0.84747 0.05452 0.54276 0.0
H2529 H 0.82107 0.01793 0.52757 0.0
H2530 H 0.81283 0.04851 0.46661 0.0
H2531 H 0.83948 0.08504 0.4816 0.0
C2532 C 0.7853 0.96865 0.48243 0.0
C2533 C 0.7649 0.96506 0.4737 0.0
C2534 C 0.80174 0.98993 0.48914 0.0
C2535 C 0.79819 0.00808 0.48711 0.0
C2536 C 0.77817 0.00464 0.47751 0.0
C2537 C 0.7617 0.98338 0.47094 0.0
C2538 C 0.84001 0.05343 0.52611 0.0
C2539 C 0.84509 0.07274 0.51371 0.0
C2540 C 0.82501 0.03246 0.51735 0.0
C2541 C 0.81481 0.03034 0.49592 0.0
C2542 C 0.82012 0.04964 0.48335 0.0
C2543 C 0.83522 0.07062 0.49208 0.0
H2544 H 0.90103 0.31641 0.29959 0.0
H2545 H 0.83265 0.29005 0.32037 0.0
H2546 H 0.90937 0.35342 0.31128 0.0
H2547 H 0.84102 0.32723 0.33178 0.0
H2548 H 0.87197 0.39034 0.37674 0.0
H2549 H 0.86245 0.35358 0.36255 0.0
H2550 H 0.90168 0.3834 0.30161 0.0
H2551 H 0.91097 0.42007 0.31566 0.0
C2552 C 0.8877 0.31852 0.3064 0.0
C2553 C 0.86619 0.3002 0.30916 0.0
C2554 C 0.89249 0.33979 0.31301 0.0
C2555 C 0.8759 0.34323 0.3226 0.0
C2556 C 0.85424 0.32504 0.32477 0.0
C2557 C 0.84942 0.30377 0.31807 0.0
C2558 C 0.87859 0.38903 0.36033 0.0
C2559 C 0.89273 0.40817 0.34765 0.0
C2560 C 0.87302 0.36798 0.35214 0.0
C2561 C 0.88139 0.36559 0.33099 0.0
C2562 C 0.89532 0.38473 0.31817 0.0
C2563 C 0.90083 0.40578 0.32634 0.0
H2564 H 0.59566 0.46421 0.32649 0.0
H2565 H 0.58974 0.51448 0.36409 0.0
H2566 H 0.6319 0.49245 0.31197 0.0
H2567 H 0.62599 0.54282 0.34972 0.0
H2568 H 0.68307 0.59099 0.30445 0.0
H2569 H 0.64562 0.56239 0.31511 0.0
H2570 H 0.66903 0.51608 0.32633 0.0
H2571 H 0.70634 0.54446 0.3152 0.0
C2572 C 0.60211 0.48137 0.3315 0.0
C2573 C 0.58974 0.4873 0.34593 0.0
C2574 C 0.62287 0.49752 0.32329 0.0
C2575 C 0.63181 0.51993 0.32958 0.0
C2576 C 0.61937 0.5258 0.3441 0.0
C2577 C 0.59857 0.50962 0.35226 0.0
C2578 C 0.68021 0.57465 0.30899 0.0
C2579 C 0.69777 0.57007 0.30903 0.0
C2580 C 0.65876 0.5583 0.31525 0.0
C2581 C 0.65434 0.53698 0.32171 0.0
C2582 C 0.67178 0.53224 0.32121 0.0
C2583 C 0.69323 0.54858 0.31492 0.0
H2584 H 0.45353 0.16184 0.31529 0.0
H2585 H 0.40852 0.09276 0.29917 0.0
H2586 H 0.48175 0.15272 0.32657 0.0
H2587 H 0.43698 0.08377 0.30999 0.0
H2588 H 0.48212 0.07317 0.3605 0.0
H2589 H 0.45446 0.08169 0.34534 0.0
H2590 H 0.50664 0.14054 0.31259 0.0
H2591 H 0.53423 0.13193 0.32788 0.0
C2592 C 0.44974 0.14476 0.31382 0.0
C2593 C 0.42868 0.12802 0.30645 0.0
C2594 C 0.46598 0.13954 0.32021 0.0
C2595 C 0.46158 0.11748 0.31933 0.0
C2596 C 0.44077 0.10086 0.31125 0.0
C2597 C 0.42451 0.10607 0.30489 0.0
C2598 C 0.48756 0.08759 0.34957 0.0
C2599 C 0.5102 0.10161 0.34486 0.0
C2600 C 0.47176 0.09255 0.34096 0.0
C2601 C 0.47832 0.11173 0.32761 0.0
C2602 C 0.50104 0.12575 0.32296 0.0
C2603 C 0.51682 0.12079 0.33162 0.0
H2604 H 0.64784 0.56952 0.87053 0.0
H2605 H 0.62179 0.50082 0.85113 0.0
H2606 H 0.68485 0.57791 0.85871 0.0
H2607 H 0.65894 0.50924 0.83964 0.0
H2608 H 0.7518 0.57995 0.85326 0.0
H2609 H 0.71539 0.57091 0.86794 0.0
H2610 H 0.68442 0.53009 0.8082 0.0
H2611 H 0.72087 0.53934 0.79341 0.0
C2612 C 0.65003 0.55613 0.86404 0.0
C2613 C 0.63177 0.53451 0.86162 0.0
C2614 C 0.67129 0.56094 0.85735 0.0
C2615 C 0.67478 0.54429 0.84804 0.0
C2616 C 0.6567 0.52252 0.84638 0.0
C2617 C 0.63544 0.51767 0.85314 0.0
C2618 C 0.73731 0.56951 0.84297 0.0
C2619 C 0.73927 0.56084 0.82185 0.0
C2620 C 0.7164 0.56414 0.85151 0.0
C2621 C 0.69702 0.54979 0.83924 0.0
C2622 C 0.69901 0.54097 0.81823 0.0
C2623 C 0.71989 0.54638 0.80968 0.0
H2624 H 0.46566 0.20199 0.8351 0.0
H2625 H 0.40404 0.14871 0.80848 0.0
H2626 H 0.47473 0.17496 0.851 0.0
H2627 H 0.41317 0.12154 0.82381 0.0
H2628 H 0.4268 0.07719 0.86926 0.0
H2629 H 0.41741 0.10535 0.85836 0.0
H2630 H 0.48559 0.1493 0.83821 0.0
H2631 H 0.49512 0.12151 0.84981 0.0
C2632 C 0.45406 0.18443 0.83274 0.0
C2633 C 0.43401 0.17733 0.82099 0.0
C2634 C 0.45926 0.16895 0.84172 0.0
C2635 C 0.44465 0.14603 0.83877 0.0
C2636 C 0.42458 0.13901 0.82689 0.0
C2637 C 0.41932 0.15452 0.81808 0.0
C2638 C 0.43984 0.09296 0.86274 0.0
C2639 C 0.46169 0.09705 0.86032 0.0
C2640 C 0.43441 0.10905 0.85633 0.0
C2641 C 0.45069 0.12954 0.84721 0.0
C2642 C 0.47267 0.13384 0.84543 0.0
C2643 C 0.47813 0.11783 0.85199 0.0
H2644 H 0.84712 0.25509 0.80727 0.0
H2645 H 0.79492 0.26336 0.83718 0.0
H2646 H 0.87482 0.29161 0.82165 0.0
H2647 H 0.82255 0.29989 0.85174 0.0
H2648 H 0.8767 0.37398 0.84827 0.0
H2649 H 0.84824 0.33661 0.83726 0.0
H2650 H 0.89163 0.31161 0.85695 0.0
H2651 H 0.9203 0.34902 0.86748 0.0
C2652 C 0.84166 0.26454 0.81741 0.0
C2653 C 0.819 0.25627 0.82163 0.0
C2654 C 0.85748 0.28548 0.82559 0.0
C2655 C 0.85091 0.29861 0.83802 0.0
C2656 C 0.82816 0.29029 0.84209 0.0
C2657 C 0.81236 0.26938 0.83386 0.0
C2658 C 0.88011 0.3605 0.85046 0.0
C2659 C 0.90086 0.36456 0.85861 0.0
C2660 C 0.86374 0.33904 0.84423 0.0
C2661 C 0.86773 0.32115 0.84606 0.0
C2662 C 0.88819 0.3251 0.85493 0.0
C2663 C 0.90457 0.34654 0.86112 0.0
H2664 H 0.46866 0.26358 0.33558 0.0
H2665 H 0.40807 0.25545 0.30597 0.0
H2666 H 0.47782 0.30019 0.34982 0.0
H2667 H 0.41714 0.29197 0.32022 0.0
H2668 H 0.42894 0.34845 0.36778 0.0
H2669 H 0.42035 0.31141 0.35605 0.0
H2670 H 0.48871 0.33718 0.33576 0.0
H2671 H 0.49748 0.37428 0.34792 0.0
C2672 C 0.45727 0.2696 0.33214 0.0
C2673 C 0.43739 0.25639 0.32009 0.0
C2674 C 0.46255 0.2906 0.34024 0.0
C2675 C 0.44813 0.29894 0.33633 0.0
C2676 C 0.42836 0.28581 0.32402 0.0
C2677 C 0.42307 0.26479 0.31594 0.0
C2678 C 0.44222 0.34624 0.361 0.0
C2679 C 0.4639 0.3644 0.35871 0.0
C2680 C 0.43723 0.325 0.35411 0.0
C2681 C 0.45378 0.32136 0.34475 0.0
C2682 C 0.47561 0.33938 0.34306 0.0
C2683 C 0.48062 0.36067 0.34998 0.0
H2684 H 0.72151 0.18236 0.2938 0.0
H2685 H 0.7522 0.17245 0.35372 0.0
H2686 H 0.68497 0.15536 0.3086 0.0
H2687 H 0.71571 0.14529 0.3684 0.0
H2688 H 0.64814 0.0792 0.37066 0.0
H2689 H 0.68518 0.10783 0.35902 0.0
H2690 H 0.6594 0.1507 0.33998 0.0
H2691 H 0.6222 0.12195 0.3513 0.0
C2692 C 0.72045 0.17434 0.31009 0.0
C2693 C 0.73979 0.17911 0.32227 0.0
C2694 C 0.69953 0.15899 0.31864 0.0
C2695 C 0.69745 0.14815 0.33965 0.0
C2696 C 0.71679 0.15308 0.35196 0.0
C2697 C 0.73774 0.16849 0.34342 0.0
C2698 C 0.65036 0.09481 0.36422 0.0
C2699 C 0.63213 0.09819 0.36176 0.0
C2700 C 0.67164 0.11126 0.35764 0.0
C2701 C 0.67519 0.13145 0.34839 0.0
C2702 C 0.65712 0.13516 0.3467 0.0
C2703 C 0.63583 0.11874 0.35335 0.0
H2704 H 0.81393 0.53979 0.29092 0.0
H2705 H 0.82651 0.58247 0.34967 0.0
H2706 H 0.84147 0.53064 0.30493 0.0
H2707 H 0.85427 0.57361 0.36346 0.0
H2708 H 0.92004 0.57146 0.36367 0.0
H2709 H 0.89144 0.58 0.35212 0.0
H2710 H 0.84685 0.51065 0.33721 0.0
H2711 H 0.87548 0.50204 0.34851 0.0
C2712 C 0.82266 0.54732 0.30676 0.0
C2713 C 0.81847 0.56234 0.31883 0.0
C2714 C 0.83834 0.54198 0.31484 0.0
C2715 C 0.85009 0.55147 0.33526 0.0
C2716 C 0.84576 0.56636 0.34745 0.0
C2717 C 0.83 0.57161 0.3394 0.0
C2718 C 0.90409 0.55798 0.35811 0.0
C2719 C 0.90012 0.53607 0.35689 0.0
C2720 C 0.88767 0.56289 0.35159 0.0
C2721 C 0.86697 0.54603 0.34359 0.0
C2722 C 0.86277 0.52404 0.34297 0.0
C2723 C 0.87914 0.5191 0.3496 0.0
H2724 H 0.60828 0.12628 0.87783 0.0
H2725 H 0.57782 0.08752 0.81681 0.0
H2726 H 0.64484 0.1356 0.8632 0.0
H2727 H 0.61429 0.09661 0.8023 0.0
H2728 H 0.68068 0.09617 0.79968 0.0
H2729 H 0.64392 0.08839 0.81161 0.0
H2730 H 0.67116 0.15682 0.83233 0.0
H2731 H 0.70811 0.16464 0.82069 0.0
C2732 C 0.60939 0.11969 0.86133 0.0
C2733 C 0.59011 0.10564 0.8488 0.0
C2734 C 0.63033 0.12513 0.85288 0.0
C2735 C 0.63245 0.11675 0.83164 0.0
C2736 C 0.61317 0.10297 0.81893 0.0
C2737 C 0.59223 0.09758 0.82737 0.0
C2738 C 0.67886 0.10964 0.80659 0.0
C2739 C 0.69741 0.13101 0.80935 0.0
C2740 C 0.65773 0.10518 0.81333 0.0
C2741 C 0.65466 0.12195 0.82305 0.0
C2742 C 0.67307 0.14347 0.82521 0.0
C2743 C 0.69421 0.14798 0.81838 0.0
H2744 H 0.83222 0.54161 0.81934 0.0
H2745 H 0.90038 0.58413 0.79812 0.0
H2746 H 0.84111 0.51322 0.83093 0.0
H2747 H 0.90907 0.55561 0.80927 0.0
H2748 H 0.92235 0.51269 0.85952 0.0
H2749 H 0.91292 0.53993 0.84515 0.0
H2750 H 0.85179 0.48689 0.81688 0.0
H2751 H 0.86137 0.45969 0.83136 0.0
C2752 C 0.84901 0.54479 0.81684 0.0
C2753 C 0.86561 0.56524 0.80796 0.0
C2754 C 0.85409 0.52848 0.82342 0.0
C2755 C 0.87586 0.53224 0.82123 0.0
C2756 C 0.89225 0.55236 0.8116 0.0
C2757 C 0.8872 0.56866 0.80506 0.0
C2758 C 0.90717 0.50694 0.84979 0.0
C2759 C 0.89287 0.48419 0.84596 0.0
C2760 C 0.90169 0.5225 0.84163 0.0
C2761 C 0.8817 0.5156 0.82963 0.0
C2762 C 0.86725 0.49275 0.82614 0.0
C2763 C 0.87275 0.4772 0.83433 0.0
H2764 H 0.45375 0.28858 0.82241 0.0
H2765 H 0.4168 0.31672 0.79147 0.0
H2766 H 0.48241 0.32562 0.83441 0.0
H2767 H 0.44565 0.35367 0.80288 0.0
H2768 H 0.48418 0.41017 0.85378 0.0
H2769 H 0.45765 0.37367 0.83854 0.0
H2770 H 0.51161 0.36189 0.82235 0.0
H2771 H 0.5381 0.39847 0.83794 0.0
C2772 C 0.45194 0.30269 0.81778 0.0
C2773 C 0.43287 0.29965 0.8062 0.0
C2774 C 0.46841 0.32395 0.82462 0.0
C2775 C 0.46618 0.3426 0.81989 0.0
C2776 C 0.44763 0.33962 0.8073 0.0
C2777 C 0.43115 0.31842 0.80061 0.0
C2778 C 0.49034 0.39991 0.84656 0.0
C2779 C 0.51316 0.40728 0.84645 0.0
C2780 C 0.47518 0.37899 0.83785 0.0
C2781 C 0.48251 0.36494 0.82892 0.0
C2782 C 0.50539 0.37224 0.82918 0.0
C2783 C 0.52055 0.39318 0.83799 0.0
H2784 H 0.50024 0.62365 0.64956 0.0
H2785 H 0.56917 0.64942 0.63139 0.0
H2786 H 0.50875 0.66066 0.66153 0.0
H2787 H 0.57753 0.68648 0.64289 0.0
H2788 H 0.58845 0.74127 0.69447 0.0
H2789 H 0.57993 0.70522 0.67895 0.0
H2790 H 0.51995 0.69784 0.64829 0.0
H2791 H 0.52856 0.73391 0.66398 0.0
C2792 C 0.51714 0.63725 0.64777 0.0
C2793 C 0.53405 0.6335 0.63967 0.0
C2794 C 0.522 0.6585 0.65457 0.0
C2795 C 0.54386 0.67649 0.65336 0.0
C2796 C 0.5606 0.6729 0.64445 0.0
C2797 C 0.55576 0.65166 0.63769 0.0
C2798 C 0.57371 0.73211 0.684 0.0
C2799 C 0.55942 0.74052 0.67991 0.0
C2800 C 0.56878 0.71145 0.67515 0.0
C2801 C 0.54935 0.69873 0.66218 0.0
C2802 C 0.53496 0.70714 0.65832 0.0
C2803 C 0.5399 0.72779 0.66721 0.0
H2804 H 0.3494 0.92139 0.63613 0.0
H2805 H 0.37402 0.87667 0.65148 0.0
H2806 H 0.31226 0.893 0.64796 0.0
H2807 H 0.33677 0.84825 0.66307 0.0
H2808 H 0.27521 0.81593 0.70986 0.0
H2809 H 0.31178 0.84337 0.69552 0.0
H2810 H 0.28119 0.85577 0.63711 0.0
H2811 H 0.24466 0.82809 0.65122 0.0
C2812 C 0.34687 0.90544 0.64179 0.0
C2813 C 0.36475 0.90137 0.64299 0.0
C2814 C 0.32555 0.88915 0.64848 0.0
C2815 C 0.32165 0.86847 0.65662 0.0
C2816 C 0.33936 0.86416 0.6572 0.0
C2817 C 0.36066 0.8804 0.6504 0.0
C2818 C 0.27629 0.82456 0.69398 0.0
C2819 C 0.25698 0.82023 0.68201 0.0
C2820 C 0.29724 0.84017 0.68571 0.0
C2821 C 0.29935 0.85175 0.66521 0.0
C2822 C 0.28005 0.84737 0.65316 0.0
C2823 C 0.25908 0.83166 0.6614 0.0
H2824 H 0.12103 0.49851 0.65001 0.0
H2825 H 0.08026 0.43064 0.62702 0.0
H2826 H 0.14981 0.49027 0.66183 0.0
H2827 H 0.109 0.42246 0.63903 0.0
H2828 H 0.17476 0.42205 0.64601 0.0
H2829 H 0.14784 0.43145 0.6307 0.0
H2830 H 0.15273 0.46744 0.69296 0.0
H2831 H 0.17932 0.45768 0.70848 0.0
C2832 C 0.11828 0.48191 0.64723 0.0
C2833 C 0.09825 0.46519 0.63771 0.0
C2834 C 0.13472 0.47717 0.65416 0.0
C2835 C 0.13156 0.45567 0.65156 0.0
C2836 C 0.11196 0.43921 0.64115 0.0
C2837 C 0.09546 0.4439 0.63435 0.0
C2838 C 0.1697 0.43148 0.65669 0.0
C2839 C 0.17869 0.43856 0.67877 0.0
C2840 C 0.15445 0.43707 0.64779 0.0
C2841 C 0.14815 0.45014 0.66064 0.0
C2842 C 0.15745 0.45755 0.68254 0.0
C2843 C 0.17257 0.45185 0.69148 0.0
H2844 H 0.31512 0.90024 0.20693 0.0
H2845 H 0.28915 0.83335 0.18144 0.0
H2846 H 0.35242 0.90913 0.19579 0.0
H2847 H 0.32635 0.84245 0.16958 0.0
H2848 H 0.39888 0.86095 0.16568 0.0
H2849 H 0.36263 0.85131 0.18167 0.0
H2850 H 0.37282 0.9155 0.16092 0.0
H2851 H 0.4092 0.92513 0.1455 0.0
C2852 C 0.31738 0.88739 0.19903 0.0
C2853 C 0.29913 0.86612 0.19496 0.0
C2854 C 0.33876 0.89254 0.19248 0.0
C2855 C 0.34239 0.87661 0.18152 0.0
C2856 C 0.32423 0.85509 0.17818 0.0
C2857 C 0.30286 0.84987 0.18491 0.0
C2858 C 0.39333 0.87298 0.16474 0.0
C2859 C 0.4069 0.89392 0.15484 0.0
C2860 C 0.37256 0.86746 0.17378 0.0
C2861 C 0.36483 0.88268 0.17274 0.0
C2862 C 0.37845 0.90358 0.16257 0.0
C2863 C 0.39927 0.90913 0.15371 0.0
H2864 H 0.08816 0.50921 0.18492 0.0
H2865 H 0.12208 0.51203 0.12172 0.0
H2866 H 0.09771 0.48249 0.20049 0.0
H2867 H 0.13206 0.48566 0.13752 0.0
H2868 H 0.09644 0.41474 0.20519 0.0
H2869 H 0.08812 0.44324 0.19259 0.0
H2870 H 0.15561 0.48351 0.16868 0.0
H2871 H 0.16401 0.45499 0.18113 0.0
C2872 C 0.09723 0.50379 0.17415 0.0
C2873 C 0.10376 0.5122 0.15178 0.0
C2874 C 0.10292 0.48867 0.18319 0.0
C2875 C 0.11556 0.48195 0.1702 0.0
C2876 C 0.12247 0.4907 0.14802 0.0
C2877 C 0.11666 0.5057 0.13893 0.0
C2878 C 0.1096 0.42977 0.19748 0.0
C2879 C 0.13086 0.43251 0.19403 0.0
C2880 C 0.10483 0.44612 0.19035 0.0
C2881 C 0.12117 0.46549 0.17948 0.0
C2882 C 0.14262 0.46859 0.17672 0.0
C2883 C 0.14745 0.45231 0.18401 0.0
H2884 H 0.58841 0.68293 0.19765 0.0
H2885 H 0.54135 0.70548 0.18642 0.0
H2886 H 0.56008 0.64532 0.18709 0.0
H2887 H 0.51328 0.66804 0.17539 0.0
H2888 H 0.46204 0.59461 0.17462 0.0
H2889 H 0.4899 0.6308 0.18963 0.0
H2890 H 0.54098 0.62588 0.15216 0.0
H2891 H 0.51303 0.58967 0.13731 0.0
C2892 C 0.57201 0.67987 0.19306 0.0
C2893 C 0.5672 0.69727 0.19279 0.0
C2894 C 0.55582 0.65833 0.18685 0.0
C2895 C 0.53447 0.65371 0.18025 0.0
C2896 C 0.52948 0.67097 0.18063 0.0
C2897 C 0.54564 0.69249 0.18686 0.0
C2898 C 0.47928 0.60127 0.16977 0.0
C2899 C 0.48553 0.58922 0.15527 0.0
C2900 C 0.4952 0.62199 0.17827 0.0
C2901 C 0.51768 0.63118 0.17219 0.0
C2902 C 0.52389 0.61905 0.15761 0.0
C2903 C 0.50793 0.59828 0.14917 0.0
H2904 H 0.09624 0.68152 0.70419 0.0
H2905 H 0.1643 0.7084 0.68195 0.0
H2906 H 0.08785 0.64471 0.69169 0.0
H2907 H 0.15587 0.67141 0.6697 0.0
H2908 H 0.12369 0.60943 0.62288 0.0
H2909 H 0.13364 0.64583 0.63847 0.0
H2910 H 0.096 0.6146 0.6999 0.0
H2911 H 0.08634 0.57827 0.68448 0.0
C2912 C 0.1095 0.67955 0.6969 0.0
C2913 C 0.13092 0.69797 0.69393 0.0
C2914 C 0.10469 0.65841 0.68983 0.0
C2915 C 0.12115 0.6552 0.67954 0.0
C2916 C 0.14275 0.67345 0.67726 0.0
C2917 C 0.14761 0.6946 0.68444 0.0
C2918 C 0.11752 0.61035 0.63971 0.0
C2919 C 0.1037 0.59092 0.65214 0.0
C2920 C 0.12333 0.63119 0.6487 0.0
C2921 C 0.11553 0.63307 0.67038 0.0
C2922 C 0.10194 0.61365 0.68296 0.0
C2923 C 0.0962 0.5928 0.674 0.0
H2924 H 0.28928 0.45716 0.68199 0.0
H2925 H 0.31639 0.41666 0.70582 0.0
H2926 H 0.32641 0.48599 0.67038 0.0
H2927 H 0.35329 0.44529 0.69393 0.0
H2928 H 0.41968 0.5097 0.68657 0.0
H2929 H 0.38317 0.48336 0.70188 0.0
H2930 H 0.35254 0.48962 0.63989 0.0
H2931 H 0.38911 0.5158 0.62449 0.0
C2932 C 0.30315 0.45449 0.68499 0.0
C2933 C 0.29981 0.43452 0.6947 0.0
C2934 C 0.32439 0.47094 0.67817 0.0
C2935 C 0.34274 0.46782 0.68104 0.0
C2936 C 0.33953 0.44827 0.69162 0.0
C2937 C 0.31832 0.4318 0.69835 0.0
C2938 C 0.40523 0.50508 0.67598 0.0
C2939 C 0.40733 0.51432 0.65401 0.0
C2940 C 0.38428 0.49016 0.68486 0.0
C2941 C 0.36497 0.48436 0.67208 0.0
C2942 C 0.36707 0.49395 0.65029 0.0
C2943 C 0.38802 0.50881 0.6414 0.0
H2944 H 0.58672 0.9032 0.69951 0.0
H2945 H 0.5413 0.83401 0.68426 0.0
H2946 H 0.55844 0.91232 0.68838 0.0
H2947 H 0.51327 0.84325 0.67258 0.0
H2948 H 0.46114 0.86451 0.67089 0.0
H2949 H 0.48857 0.85564 0.68606 0.0
H2950 H 0.54094 0.91435 0.65325 0.0
H2951 H 0.51342 0.9232 0.63836 0.0
C2952 C 0.57068 0.88991 0.69389 0.0
C2953 C 0.56633 0.86787 0.69269 0.0
C2954 C 0.55452 0.89518 0.68734 0.0
C2955 C 0.53365 0.87856 0.6794 0.0
C2956 C 0.52908 0.85644 0.67884 0.0
C2957 C 0.54521 0.85114 0.68546 0.0
C2958 C 0.47856 0.87554 0.66709 0.0
C2959 C 0.48529 0.89478 0.65393 0.0
C2960 C 0.49425 0.87044 0.67567 0.0
C2961 C 0.51699 0.88436 0.67101 0.0
C2962 C 0.52363 0.90356 0.65764 0.0
C2963 C 0.50792 0.90868 0.64915 0.0
H2964 H 0.2564 0.40917 0.19765 0.0
H2965 H 0.26258 0.46787 0.16535 0.0
H2966 H 0.29254 0.41788 0.18222 0.0
H2967 H 0.29879 0.47671 0.14982 0.0
H2968 H 0.37333 0.49729 0.15124 0.0
H2969 H 0.33628 0.48866 0.16328 0.0
H2970 H 0.31088 0.41967 0.14591 0.0
H2971 H 0.34793 0.42813 0.1343 0.0
C2972 C 0.26531 0.42366 0.18679 0.0
C2973 C 0.25654 0.43755 0.18215 0.0
C2974 C 0.28603 0.42872 0.17803 0.0
C2975 C 0.29845 0.44788 0.16459 0.0
C2976 C 0.28971 0.4619 0.16021 0.0
C2977 C 0.26899 0.45683 0.169 0.0
C2978 C 0.35981 0.48031 0.14975 0.0
C2979 C 0.36366 0.46338 0.14197 0.0
C2980 C 0.33854 0.47539 0.15659 0.0
C2981 C 0.32068 0.45344 0.15575 0.0
C2982 C 0.32438 0.43667 0.14717 0.0
C2983 C 0.34562 0.44157 0.14036 0.0
H2984 H 0.52473 0.79108 0.16678 0.0
H2985 H 0.58688 0.84427 0.19257 0.0
H2986 H 0.51537 0.81828 0.15173 0.0
H2987 H 0.57768 0.87148 0.1776 0.0
H2988 H 0.56558 0.91474 0.12921 0.0
H2989 H 0.57338 0.88575 0.14083 0.0
H2990 H 0.50595 0.84597 0.16521 0.0
H2991 H 0.49793 0.87489 0.15318 0.0
C2992 C 0.5364 0.80862 0.16912 0.0
C2993 C 0.5568 0.81567 0.1802 0.0
C2994 C 0.53103 0.82416 0.1606 0.0
C2995 C 0.54591 0.84704 0.16319 0.0
C2996 C 0.56612 0.854 0.17475 0.0
C2997 C 0.57145 0.83846 0.18326 0.0
C2998 C 0.5523 0.89974 0.13683 0.0
C2999 C 0.53116 0.89724 0.14043 0.0
C3000 C 0.55685 0.88317 0.14363 0.0
C3001 C 0.54039 0.86371 0.15424 0.0
C3002 C 0.51897 0.86075 0.15699 0.0
C3003 C 0.51439 0.87734 0.15013 0.0
H3004 H 0.08085 0.64948 0.12968 0.0
H3005 H 0.12176 0.62211 0.1513 0.0
H3006 H 0.10977 0.6863 0.14175 0.0
H3007 H 0.15072 0.65904 0.16325 0.0
H3008 H 0.18011 0.72099 0.21073 0.0
H3009 H 0.15369 0.68466 0.19495 0.0
H3010 H 0.14877 0.71603 0.13292 0.0
H3011 H 0.17557 0.75229 0.14844 0.0
C3012 C 0.09611 0.65134 0.13674 0.0
C3013 C 0.09892 0.63281 0.13967 0.0
C3014 C 0.11271 0.67247 0.14356 0.0
C3015 C 0.13241 0.67549 0.15361 0.0
C3016 C 0.13556 0.65712 0.15583 0.0
C3017 C 0.11904 0.63601 0.14883 0.0
C3018 C 0.17341 0.72012 0.19372 0.0
C3019 C 0.17942 0.73958 0.18115 0.0
C3020 C 0.15838 0.69932 0.18464 0.0
C3021 C 0.14909 0.69753 0.16275 0.0
C3022 C 0.15537 0.71695 0.15001 0.0
C3023 C 0.17053 0.73775 0.15903 0.0
loop_
_geom_bond_atom_site_label_1
_geom_bond_atom_site_label_2
_geom_bond_distance
_geom_bond_site_symmetry_2
_ccdc_geom_bond_type
Co0 O3 1.970 . S
Co0 N17 1.989 . S
Co0 O25 1.967 . S
Co0 O32 1.920 . S
Co1 O4 1.966 . S
Co1 N10 2.022 . S
Co1 N18 1.993 . S
Co1 O26 1.941 . S
C2 O3 1.258 1_556 S
C2 O4 1.263 1_556 S
O3 Co0 1.970 . S
O3 C2 1.258 1_554 S
O4 Co1 1.966 . S
O4 C2 1.263 1_554 S
C5 O6 1.235 . S
C5 O32 1.289 . S
O6 C5 1.235 . S
C7 C9 1.400 . S
C7 N10 1.351 . S
C7 C12 1.501 1_554 S
C8 C9 1.387 . S
C8 N11 1.341 . S
C9 C7 1.400 . S
C9 C8 1.387 . S
N10 Co1 2.022 . S
N10 C7 1.351 . S
N10 N11 1.365 . S
N11 C8 1.341 . S
N11 N10 1.365 . S
N11 H31 0.862 . S
C12 C7 1.501 1_556 S
C12 H13 0.961 . S
C12 H14 0.962 . S
C12 H15 0.960 . S
H13 C12 0.961 . S
H14 C12 0.962 . S
H15 C12 0.960 . S
C16 N17 1.342 . S
C16 C20 1.401 . S
C16 C21 1.499 . S
N17 Co0 1.989 . S
N17 C16 1.342 . S
N17 N18 1.388 . S
N18 Co1 1.993 . S
N18 N17 1.388 . S
N18 C19 1.346 . S
C19 N18 1.346 . S
C19 C20 1.396 . S
C19 C29 1.510 . S
C20 C16 1.401 . S
C20 C19 1.396 . S
C21 C16 1.499 . S
C21 H22 0.959 . S
C21 H23 0.960 . S
C21 H24 0.961 . S
H22 C21 0.959 . S
H23 C21 0.960 . S
H24 C21 0.961 . S
O25 Co0 1.967 . S
O25 C33 1.258 . S
O26 Co1 1.941 . S
O26 C33 1.266 . S
H27 C29 0.959 . S
H28 C29 0.961 . S
C29 C19 1.510 . S
C29 H27 0.959 . S
C29 H28 0.961 . S
C29 H30 0.960 . S
H30 C29 0.960 . S
H31 N11 0.862 . S
O32 Co0 1.920 . S
O32 C5 1.289 . S
C33 O25 1.258 . S
C33 O26 1.266 . S
Co34 O37 1.970 . S
Co34 N51 1.989 . S
Co34 O59 1.967 . S
Co34 O66 1.920 . S
Co35 O38 1.966 . S
Co35 N44 2.022 . S
Co35 N52 1.993 . S
Co35 O60 1.941 . S
C36 O37 1.258 1_556 S
C36 O38 1.263 1_556 S
O37 Co34 1.970 . S
O37 C36 1.258 1_554 S
O38 Co35 1.966 . S
O38 C36 1.263 1_554 S
C39 O40 1.235 . S
C39 O66 1.289 . S
O40 C39 1.235 . S
C41 C43 1.400 . S
C41 N44 1.351 . S
C41 C46 1.501 1_554 S
C42 C43 1.387 . S
C42 N45 1.341 . S
C43 C41 1.400 . S
C43 C42 1.387 . S
N44 Co35 2.022 . S
N44 C41 1.351 . S
N44 N45 1.365 . S
N45 C42 1.341 . S
N45 N44 1.365 . S
N45 H65 0.862 . S
C46 C41 1.501 1_556 S
C46 H47 0.961 . S
C46 H48 0.962 . S
C46 H49 0.960 . S
H47 C46 0.961 . S
H48 C46 0.962 . S
H49 C46 0.960 . S
C50 N51 1.342 . S
C50 C54 1.401 . S
C50 C55 1.499 . S
N51 Co34 1.989 . S
N51 C50 1.342 . S
N51 N52 1.388 . S
N52 Co35 1.993 . S
N52 N51 1.388 . S
N52 C53 1.346 . S
C53 N52 1.346 . S
C53 C54 1.396 . S
C53 C63 1.510 . S
C54 C50 1.401 . S
C54 C53 1.396 . S
C55 C50 1.499 . S
C55 H56 0.959 . S
C55 H57 0.960 . S
C55 H58 0.961 . S
H56 C55 0.959 . S
H57 C55 0.960 . S
H58 C55 0.961 . S
O59 Co34 1.967 . S
O59 C67 1.258 . S
O60 Co35 1.941 . S
O60 C67 1.266 . S
H61 C63 0.959 . S
H62 C63 0.961 . S
C63 C53 1.510 . S
C63 H61 0.959 . S
C63 H62 0.961 . S
C63 H64 0.960 . S
H64 C63 0.960 . S
H65 N45 0.862 . S
O66 Co34 1.920 . S
O66 C39 1.289 . S
C67 O59 1.258 . S
C67 O60 1.266 . S
Co68 O71 1.970 . S
Co68 N85 1.989 . S
Co68 O93 1.967 . S
Co68 O100 1.920 . S
Co69 O72 1.966 . S
Co69 N78 2.022 . S
Co69 N86 1.993 . S
Co69 O94 1.941 . S
C70 O71 1.258 1_556 S
C70 O72 1.263 1_556 S
O71 Co68 1.970 . S
O71 C70 1.258 1_554 S
O72 Co69 1.966 . S
O72 C70 1.263 1_554 S
C73 O74 1.235 . S
C73 O100 1.289 . S
O74 C73 1.235 . S
C75 C77 1.400 . S
C75 N78 1.351 . S
C75 C80 1.501 1_554 S
C76 C77 1.387 . S
C76 N79 1.341 . S
C77 C75 1.400 . S
C77 C76 1.387 . S
N78 Co69 2.022 . S
N78 C75 1.351 . S
N78 N79 1.365 . S
N79 C76 1.341 . S
N79 N78 1.365 . S
N79 H99 0.862 . S
C80 C75 1.501 1_556 S
C80 H81 0.961 . S
C80 H82 0.962 . S
C80 H83 0.960 . S
H81 C80 0.961 . S
H82 C80 0.962 . S
H83 C80 0.960 . S
C84 N85 1.342 . S
C84 C88 1.401 . S
C84 C89 1.499 . S
N85 Co68 1.989 . S
N85 C84 1.342 . S
N85 N86 1.388 . S
N86 Co69 1.993 . S
N86 N85 1.388 . S
N86 C87 1.346 . S
C87 N86 1.346 . S
C87 C88 1.396 . S
C87 C97 1.510 . S
C88 C84 1.401 . S
C88 C87 1.396 . S
C89 C84 1.499 . S
C89 H90 0.959 . S
C89 H91 0.960 . S
C89 H92 0.961 . S
H90 C89 0.959 . S
H91 C89 0.960 . S
H92 C89 0.961 . S
O93 Co68 1.967 . S
O93 C101 1.258 . S
O94 Co69 1.941 . S
O94 C101 1.266 . S
H95 C97 0.959 . S
H96 C97 0.961 . S
C97 C87 1.510 . S
C97 H95 0.959 . S
C97 H96 0.961 . S
C97 H98 0.960 . S
H98 C97 0.960 . S
H99 N79 0.862 . S
O100 Co68 1.920 . S
O100 C73 1.289 . S
C101 O93 1.258 . S
C101 O94 1.266 . S
Co102 O105 1.970 . S
Co102 N119 1.989 . S
Co102 O127 1.967 . S
Co102 O134 1.920 . S
Co103 O106 1.966 . S
Co103 N112 2.022 . S
Co103 N120 1.993 . S
Co103 O128 1.941 . S
C104 O105 1.258 . S
C104 O106 1.263 . S
O105 Co102 1.970 . S
O105 C104 1.258 . S
O106 Co103 1.966 . S
O106 C104 1.263 . S
C107 O108 1.235 . S
C107 O134 1.289 . S
O108 C107 1.235 . S
C109 C111 1.400 . S
C109 N112 1.351 . S
C109 C114 1.501 . S
C110 C111 1.387 . S
C110 N113 1.341 . S
C111 C109 1.400 . S
C111 C110 1.387 . S
N112 Co103 2.022 . S
N112 C109 1.351 . S
N112 N113 1.365 . S
N113 C110 1.341 . S
N113 N112 1.365 . S
N113 H133 0.862 . S
C114 C109 1.501 . S
C114 H115 0.961 . S
C114 H116 0.961 . S
C114 H117 0.960 . S
H115 C114 0.961 . S
H116 C114 0.961 . S
H117 C114 0.960 . S
C118 N119 1.342 . S
C118 C122 1.401 . S
C118 C123 1.499 . S
N119 Co102 1.989 . S
N119 C118 1.342 . S
N119 N120 1.388 . S
N120 Co103 1.993 . S
N120 N119 1.388 . S
N120 C121 1.346 . S
C121 N120 1.346 . S
C121 C122 1.396 . S
C121 C131 1.510 . S
C122 C118 1.401 . S
C122 C121 1.396 . S
C123 C118 1.499 . S
C123 H124 0.959 . S
C123 H125 0.960 . S
C123 H126 0.961 . S
H124 C123 0.959 . S
H125 C123 0.960 . S
H126 C123 0.961 . S
O127 Co102 1.967 . S
O127 C135 1.258 . S
O128 Co103 1.941 . S
O128 C135 1.266 . S
H129 C131 0.959 . S
H130 C131 0.961 . S
C131 C121 1.510 . S
C131 H129 0.959 . S
C131 H130 0.961 . S
C131 H132 0.960 . S
H132 C131 0.960 . S
H133 N113 0.862 . S
O134 Co102 1.920 . S
O134 C107 1.289 . S
C135 O127 1.258 . S
C135 O128 1.266 . S
Co136 O139 1.970 . S
Co136 N153 1.989 . S
Co136 O161 1.967 . S
Co136 O168 1.920 . S
Co137 O140 1.966 . S
Co137 N146 2.022 . S
Co137 N154 1.993 . S
Co137 O162 1.941 . S
C138 O139 1.258 . S
C138 O140 1.263 . S
O139 Co136 1.970 . S
O139 C138 1.258 . S
O140 Co137 1.966 . S
O140 C138 1.263 . S
C141 O142 1.235 . S
C141 O168 1.289 . S
O142 C141 1.235 . S
C143 C145 1.400 . S
C143 N146 1.351 . S
C143 C148 1.501 . S
C144 C145 1.387 . S
C144 N147 1.341 . S
C145 C143 1.400 . S
C145 C144 1.387 . S
N146 Co137 2.022 . S
N146 C143 1.351 . S
N146 N147 1.365 . S
N147 C144 1.341 . S
N147 N146 1.365 . S
N147 H167 0.862 . S
C148 C143 1.501 . S
C148 H149 0.961 . S
C148 H150 0.961 . S
C148 H151 0.960 . S
H149 C148 0.961 . S
H150 C148 0.961 . S
H151 C148 0.960 . S
C152 N153 1.342 . S
C152 C156 1.401 . S
C152 C157 1.499 . S
N153 Co136 1.989 . S
N153 C152 1.342 . S
N153 N154 1.388 . S
N154 Co137 1.993 . S
N154 N153 1.388 . S
N154 C155 1.346 . S
C155 N154 1.346 . S
C155 C156 1.396 . S
C155 C165 1.510 . S
C156 C152 1.401 . S
C156 C155 1.396 . S
C157 C152 1.499 . S
C157 H158 0.959 . S
C157 H159 0.960 . S
C157 H160 0.961 . S
H158 C157 0.959 . S
H159 C157 0.960 . S
H160 C157 0.961 . S
O161 Co136 1.967 . S
O161 C169 1.258 . S
O162 Co137 1.941 . S
O162 C169 1.266 . S
H163 C165 0.959 . S
H164 C165 0.961 . S
C165 C155 1.510 . S
C165 H163 0.959 . S
C165 H164 0.961 . S
C165 H166 0.960 . S
H166 C165 0.960 . S
H167 N147 0.862 . S
O168 Co136 1.920 . S
O168 C141 1.289 . S
C169 O161 1.258 . S
C169 O162 1.266 . S
Co170 O173 1.970 . S
Co170 N187 1.989 . S
Co170 O195 1.967 . S
Co170 O202 1.920 . S
Co171 O174 1.966 . S
Co171 N180 2.022 . S
Co171 N188 1.993 . S
Co171 O196 1.941 . S
C172 O173 1.258 . S
C172 O174 1.263 . S
O173 Co170 1.970 . S
O173 C172 1.258 . S
O174 Co171 1.966 . S
O174 C172 1.263 . S
C175 O176 1.235 . S
C175 O202 1.289 . S
O176 C175 1.235 . S
C177 C179 1.400 . S
C177 N180 1.351 . S
C177 C182 1.501 . S
C178 C179 1.387 . S
C178 N181 1.341 . S
C179 C177 1.400 . S
C179 C178 1.387 . S
N180 Co171 2.022 . S
N180 C177 1.351 . S
N180 N181 1.365 . S
N181 C178 1.341 . S
N181 N180 1.365 . S
N181 H201 0.862 . S
C182 C177 1.501 . S
C182 H183 0.961 . S
C182 H184 0.961 . S
C182 H185 0.960 . S
H183 C182 0.961 . S
H184 C182 0.961 . S
H185 C182 0.960 . S
C186 N187 1.342 . S
C186 C190 1.401 . S
C186 C191 1.499 . S
N187 Co170 1.989 . S
N187 C186 1.342 . S
N187 N188 1.388 . S
N188 Co171 1.993 . S
N188 N187 1.388 . S
N188 C189 1.346 . S
C189 N188 1.346 . S
C189 C190 1.396 . S
C189 C199 1.510 . S
C190 C186 1.401 . S
C190 C189 1.396 . S
C191 C186 1.499 . S
C191 H192 0.959 . S
C191 H193 0.960 . S
C191 H194 0.961 . S
H192 C191 0.959 . S
H193 C191 0.960 . S
H194 C191 0.961 . S
O195 Co170 1.967 . S
O195 C203 1.258 . S
O196 Co171 1.941 . S
O196 C203 1.266 . S
H197 C199 0.959 . S
H198 C199 0.961 . S
C199 C189 1.510 . S
C199 H197 0.959 . S
C199 H198 0.961 . S
C199 H200 0.960 . S
H200 C199 0.960 . S
H201 N181 0.862 . S
O202 Co170 1.920 . S
O202 C175 1.289 . S
C203 O195 1.258 . S
C203 O196 1.266 . S
Co204 O207 1.970 . S
Co204 N221 1.989 . S
Co204 O229 1.967 . S
Co204 O236 1.920 . S
Co205 O208 1.966 . S
Co205 N214 2.022 . S
Co205 N222 1.993 . S
Co205 O230 1.941 . S
C206 O207 1.258 1_554 S
C206 O208 1.263 1_554 S
O207 Co204 1.970 . S
O207 C206 1.258 1_556 S
O208 Co205 1.966 . S
O208 C206 1.263 1_556 S
C209 O210 1.235 . S
C209 O236 1.289 . S
O210 C209 1.235 . S
C211 C213 1.400 . S
C211 N214 1.351 . S
C211 C216 1.501 1_556 S
C212 C213 1.387 . S
C212 N215 1.341 . S
C213 C211 1.400 . S
C213 C212 1.387 . S
N214 Co205 2.022 . S
N214 C211 1.351 . S
N214 N215 1.365 . S
N215 C212 1.341 . S
N215 N214 1.365 . S
N215 H235 0.862 . S
C216 C211 1.501 1_554 S
C216 H217 0.961 . S
C216 H218 0.962 . S
C216 H219 0.960 . S
H217 C216 0.961 . S
H218 C216 0.962 . S
H219 C216 0.960 . S
C220 N221 1.342 . S
C220 C224 1.401 . S
C220 C225 1.499 . S
N221 Co204 1.989 . S
N221 C220 1.342 . S
N221 N222 1.388 . S
N222 Co205 1.993 . S
N222 N221 1.388 . S
N222 C223 1.346 . S
C223 N222 1.346 . S
C223 C224 1.396 . S
C223 C233 1.510 . S
C224 C220 1.401 . S
C224 C223 1.396 . S
C225 C220 1.499 . S
C225 H226 0.959 . S
C225 H227 0.960 . S
C225 H228 0.961 . S
H226 C225 0.959 . S
H227 C225 0.960 . S
H228 C225 0.961 . S
O229 Co204 1.967 . S
O229 C237 1.258 . S
O230 Co205 1.941 . S
O230 C237 1.266 . S
H231 C233 0.959 . S
H232 C233 0.961 . S
C233 C223 1.510 . S
C233 H231 0.959 . S
C233 H232 0.961 . S
C233 H234 0.960 . S
H234 C233 0.960 . S
H235 N215 0.862 . S
O236 Co204 1.920 . S
O236 C209 1.289 . S
C237 O229 1.258 . S
C237 O230 1.266 . S
Co238 O241 1.970 . S
Co238 N255 1.989 . S
Co238 O263 1.967 . S
Co238 O270 1.920 . S
Co239 O242 1.966 . S
Co239 N248 2.022 . S
Co239 N256 1.993 . S
Co239 O264 1.941 . S
C240 O241 1.258 1_554 S
C240 O242 1.263 1_554 S
O241 Co238 1.970 . S
O241 C240 1.258 1_556 S
O242 Co239 1.966 . S
O242 C240 1.263 1_556 S
C243 O244 1.235 . S
C243 O270 1.289 . S
O244 C243 1.235 . S
C245 C247 1.400 . S
C245 N248 1.351 . S
C245 C250 1.501 1_556 S
C246 C247 1.387 . S
C246 N249 1.341 . S
C247 C245 1.400 . S
C247 C246 1.387 . S
N248 Co239 2.022 . S
N248 C245 1.351 . S
N248 N249 1.365 . S
N249 C246 1.341 . S
N249 N248 1.365 . S
N249 H269 0.862 . S
C250 C245 1.501 1_554 S
C250 H251 0.961 . S
C250 H252 0.962 . S
C250 H253 0.960 . S
H251 C250 0.961 . S
H252 C250 0.962 . S
H253 C250 0.960 . S
C254 N255 1.342 . S
C254 C258 1.401 . S
C254 C259 1.499 . S
N255 Co238 1.989 . S
N255 C254 1.342 . S
N255 N256 1.388 . S
N256 Co239 1.993 . S
N256 N255 1.388 . S
N256 C257 1.346 . S
C257 N256 1.346 . S
C257 C258 1.396 . S
C257 C267 1.510 . S
C258 C254 1.401 . S
C258 C257 1.396 . S
C259 C254 1.499 . S
C259 H260 0.959 . S
C259 H261 0.960 . S
C259 H262 0.961 . S
H260 C259 0.959 . S
H261 C259 0.960 . S
H262 C259 0.961 . S
O263 Co238 1.967 . S
O263 C271 1.258 . S
O264 Co239 1.941 . S
O264 C271 1.266 . S
H265 C267 0.959 . S
H266 C267 0.961 . S
C267 C257 1.510 . S
C267 H265 0.959 . S
C267 H266 0.961 . S
C267 H268 0.960 . S
H268 C267 0.960 . S
H269 N249 0.862 . S
O270 Co238 1.920 . S
O270 C243 1.289 . S
C271 O263 1.258 . S
C271 O264 1.266 . S
Co272 O275 1.970 . S
Co272 N289 1.989 . S
Co272 O297 1.967 . S
Co272 O304 1.920 . S
Co273 O276 1.966 . S
Co273 N282 2.022 . S
Co273 N290 1.993 . S
Co273 O298 1.941 . S
C274 O275 1.258 1_554 S
C274 O276 1.263 1_554 S
O275 Co272 1.970 . S
O275 C274 1.258 1_556 S
O276 Co273 1.966 . S
O276 C274 1.263 1_556 S
C277 O278 1.235 . S
C277 O304 1.289 . S
O278 C277 1.235 . S
C279 C281 1.400 . S
C279 N282 1.351 . S
C279 C284 1.501 1_556 S
C280 C281 1.387 . S
C280 N283 1.341 . S
C281 C279 1.400 . S
C281 C280 1.387 . S
N282 Co273 2.022 . S
N282 C279 1.351 . S
N282 N283 1.365 . S
N283 C280 1.341 . S
N283 N282 1.365 . S
N283 H303 0.862 . S
C284 C279 1.501 1_554 S
C284 H285 0.961 . S
C284 H286 0.962 . S
C284 H287 0.960 . S
H285 C284 0.961 . S
H286 C284 0.962 . S
H287 C284 0.960 . S
C288 N289 1.342 . S
C288 C292 1.401 . S
C288 C293 1.499 . S
N289 Co272 1.989 . S
N289 C288 1.342 . S
N289 N290 1.388 . S
N290 Co273 1.993 . S
N290 N289 1.388 . S
N290 C291 1.346 . S
C291 N290 1.346 . S
C291 C292 1.396 . S
C291 C301 1.510 . S
C292 C288 1.401 . S
C292 C291 1.396 . S
C293 C288 1.499 . S
C293 H294 0.959 . S
C293 H295 0.960 . S
C293 H296 0.961 . S
H294 C293 0.959 . S
H295 C293 0.960 . S
H296 C293 0.961 . S
O297 Co272 1.967 . S
O297 C305 1.258 . S
O298 Co273 1.941 . S
O298 C305 1.266 . S
H299 C301 0.959 . S
H300 C301 0.961 . S
C301 C291 1.510 . S
C301 H299 0.959 . S
C301 H300 0.961 . S
C301 H302 0.960 . S
H302 C301 0.960 . S
H303 N283 0.862 . S
O304 Co272 1.920 . S
O304 C277 1.289 . S
C305 O297 1.258 . S
C305 O298 1.266 . S
Co306 O309 1.970 . S
Co306 N323 1.989 . S
Co306 O331 1.967 . S
Co306 O338 1.920 . S
Co307 O310 1.966 . S
Co307 N316 2.022 . S
Co307 N324 1.993 . S
Co307 O332 1.941 . S
C308 O309 1.258 . S
C308 O310 1.263 . S
O309 Co306 1.970 . S
O309 C308 1.258 . S
O310 Co307 1.966 . S
O310 C308 1.263 . S
C311 O312 1.235 . S
C311 O338 1.289 . S
O312 C311 1.235 . S
C313 C315 1.400 . S
C313 N316 1.351 . S
C313 C318 1.501 . S
C314 C315 1.387 . S
C314 N317 1.341 . S
C315 C313 1.400 . S
C315 C314 1.387 . S
N316 Co307 2.022 . S
N316 C313 1.351 . S
N316 N317 1.365 . S
N317 C314 1.341 . S
N317 N316 1.365 . S
N317 H337 0.862 . S
C318 C313 1.501 . S
C318 H319 0.961 . S
C318 H320 0.961 . S
C318 H321 0.960 . S
H319 C318 0.961 . S
H320 C318 0.961 . S
H321 C318 0.960 . S
C322 N323 1.342 . S
C322 C326 1.401 . S
C322 C327 1.499 . S
N323 Co306 1.989 . S
N323 C322 1.342 . S
N323 N324 1.388 . S
N324 Co307 1.993 . S
N324 N323 1.388 . S
N324 C325 1.346 . S
C325 N324 1.346 . S
C325 C326 1.396 . S
C325 C335 1.510 . S
C326 C322 1.401 . S
C326 C325 1.396 . S
C327 C322 1.499 . S
C327 H328 0.959 . S
C327 H329 0.960 . S
C327 H330 0.961 . S
H328 C327 0.959 . S
H329 C327 0.960 . S
H330 C327 0.961 . S
O331 Co306 1.967 . S
O331 C339 1.258 . S
O332 Co307 1.941 . S
O332 C339 1.266 . S
H333 C335 0.959 . S
H334 C335 0.961 . S
C335 C325 1.510 . S
C335 H333 0.959 . S
C335 H334 0.961 . S
C335 H336 0.960 . S
H336 C335 0.960 . S
H337 N317 0.862 . S
O338 Co306 1.920 . S
O338 C311 1.289 . S
C339 O331 1.258 . S
C339 O332 1.266 . S
Co340 O343 1.970 . S
Co340 N357 1.989 . S
Co340 O365 1.967 . S
Co340 O372 1.920 . S
Co341 O344 1.966 . S
Co341 N350 2.022 . S
Co341 N358 1.993 . S
Co341 O366 1.941 . S
C342 O343 1.258 . S
C342 O344 1.263 . S
O343 Co340 1.970 . S
O343 C342 1.258 . S
O344 Co341 1.966 . S
O344 C342 1.263 . S
C345 O346 1.235 . S
C345 O372 1.289 . S
O346 C345 1.235 . S
C347 C349 1.400 . S
C347 N350 1.351 . S
C347 C352 1.501 . S
C348 C349 1.387 . S
C348 N351 1.341 . S
C349 C347 1.400 . S
C349 C348 1.387 . S
N350 Co341 2.022 . S
N350 C347 1.351 . S
N350 N351 1.365 . S
N351 C348 1.341 . S
N351 N350 1.365 . S
N351 H371 0.862 . S
C352 C347 1.501 . S
C352 H353 0.961 . S
C352 H354 0.961 . S
C352 H355 0.960 . S
H353 C352 0.961 . S
H354 C352 0.961 . S
H355 C352 0.960 . S
C356 N357 1.342 . S
C356 C360 1.401 . S
C356 C361 1.499 . S
N357 Co340 1.989 . S
N357 C356 1.342 . S
N357 N358 1.388 . S
N358 Co341 1.993 . S
N358 N357 1.388 . S
N358 C359 1.346 . S
C359 N358 1.346 . S
C359 C360 1.396 . S
C359 C369 1.510 . S
C360 C356 1.401 . S
C360 C359 1.396 . S
C361 C356 1.499 . S
C361 H362 0.959 . S
C361 H363 0.960 . S
C361 H364 0.961 . S
H362 C361 0.959 . S
H363 C361 0.960 . S
H364 C361 0.961 . S
O365 Co340 1.967 . S
O365 C373 1.258 . S
O366 Co341 1.941 . S
O366 C373 1.266 . S
H367 C369 0.959 . S
H368 C369 0.961 . S
C369 C359 1.510 . S
C369 H367 0.959 . S
C369 H368 0.961 . S
C369 H370 0.960 . S
H370 C369 0.960 . S
H371 N351 0.862 . S
O372 Co340 1.920 . S
O372 C345 1.289 . S
C373 O365 1.258 . S
C373 O366 1.266 . S
Co374 O377 1.970 . S
Co374 N391 1.989 . S
Co374 O399 1.967 . S
Co374 O406 1.920 . S
Co375 O378 1.966 . S
Co375 N384 2.022 . S
Co375 N392 1.993 . S
Co375 O400 1.941 . S
C376 O377 1.258 . S
C376 O378 1.263 . S
O377 Co374 1.970 . S
O377 C376 1.258 . S
O378 Co375 1.966 . S
O378 C376 1.263 . S
C379 O380 1.235 . S
C379 O406 1.289 . S
O380 C379 1.235 . S
C381 C383 1.400 . S
C381 N384 1.351 . S
C381 C386 1.501 . S
C382 C383 1.387 . S
C382 N385 1.341 . S
C383 C381 1.400 . S
C383 C382 1.387 . S
N384 Co375 2.022 . S
N384 C381 1.351 . S
N384 N385 1.365 . S
N385 C382 1.341 . S
N385 N384 1.365 . S
N385 H405 0.862 . S
C386 C381 1.501 . S
C386 H387 0.961 . S
C386 H388 0.961 . S
C386 H389 0.960 . S
H387 C386 0.961 . S
H388 C386 0.961 . S
H389 C386 0.960 . S
C390 N391 1.342 . S
C390 C394 1.401 . S
C390 C395 1.499 . S
N391 Co374 1.989 . S
N391 C390 1.342 . S
N391 N392 1.388 . S
N392 Co375 1.993 . S
N392 N391 1.388 . S
N392 C393 1.346 . S
C393 N392 1.346 . S
C393 C394 1.396 . S
C393 C403 1.510 . S
C394 C390 1.401 . S
C394 C393 1.396 . S
C395 C390 1.499 . S
C395 H396 0.959 . S
C395 H397 0.960 . S
C395 H398 0.961 . S
H396 C395 0.959 . S
H397 C395 0.960 . S
H398 C395 0.961 . S
O399 Co374 1.967 . S
O399 C407 1.258 . S
O400 Co375 1.941 . S
O400 C407 1.266 . S
H401 C403 0.959 . S
H402 C403 0.961 . S
C403 C393 1.510 . S
C403 H401 0.959 . S
C403 H402 0.961 . S
C403 H404 0.960 . S
H404 C403 0.960 . S
H405 N385 0.862 . S
O406 Co374 1.920 . S
O406 C379 1.289 . S
C407 O399 1.258 . S
C407 O400 1.266 . S
Co408 O411 1.970 . S
Co408 N425 1.989 . S
Co408 O433 1.967 . S
Co408 O440 1.920 . S
Co409 O412 1.966 . S
Co409 N418 2.022 . S
Co409 N426 1.993 . S
Co409 O434 1.941 . S
C410 O411 1.258 . S
C410 O412 1.263 . S
O411 Co408 1.970 . S
O411 C410 1.258 . S
O412 Co409 1.966 . S
O412 C410 1.263 . S
C413 O414 1.234 1_655 S
C413 O440 1.290 . S
O414 C413 1.234 1_455 S
C415 C417 1.400 . S
C415 N418 1.351 . S
C415 C420 1.501 . S
C416 C417 1.387 . S
C416 N419 1.341 . S
C417 C415 1.400 . S
C417 C416 1.387 . S
N418 Co409 2.022 . S
N418 C415 1.351 . S
N418 N419 1.365 . S
N419 C416 1.341 . S
N419 N418 1.365 . S
N419 H439 0.862 . S
C420 C415 1.501 . S
C420 H421 0.961 . S
C420 H422 0.961 . S
C420 H423 0.960 . S
H421 C420 0.961 . S
H422 C420 0.961 . S
H423 C420 0.960 . S
C424 N425 1.342 . S
C424 C428 1.401 . S
C424 C429 1.499 . S
N425 Co408 1.989 . S
N425 C424 1.342 . S
N425 N426 1.388 . S
N426 Co409 1.993 . S
N426 N425 1.388 . S
N426 C427 1.346 . S
C427 N426 1.346 . S
C427 C428 1.396 . S
C427 C437 1.510 . S
C428 C424 1.401 . S
C428 C427 1.396 . S
C429 C424 1.499 . S
C429 H430 0.959 . S
C429 H431 0.960 . S
C429 H432 0.961 . S
H430 C429 0.959 . S
H431 C429 0.960 . S
H432 C429 0.961 . S
O433 Co408 1.967 . S
O433 C441 1.258 . S
O434 Co409 1.941 . S
O434 C441 1.266 . S
H435 C437 0.959 . S
H436 C437 0.961 . S
C437 C427 1.510 . S
C437 H435 0.959 . S
C437 H436 0.961 . S
C437 H438 0.960 . S
H438 C437 0.960 . S
H439 N419 0.862 . S
O440 Co408 1.920 . S
O440 C413 1.290 . S
C441 O433 1.258 . S
C441 O434 1.266 . S
Co442 O445 1.970 . S
Co442 N459 1.989 . S
Co442 O467 1.967 . S
Co442 O474 1.920 . S
Co443 O446 1.966 . S
Co443 N452 2.022 . S
Co443 N460 1.993 . S
Co443 O468 1.941 . S
C444 O445 1.258 . S
C444 O446 1.263 . S
O445 Co442 1.970 . S
O445 C444 1.258 . S
O446 Co443 1.966 . S
O446 C444 1.263 . S
C447 O448 1.235 . S
C447 O474 1.289 . S
O448 C447 1.235 . S
C449 C451 1.400 . S
C449 N452 1.351 . S
C449 C454 1.501 . S
C450 C451 1.387 . S
C450 N453 1.341 . S
C451 C449 1.400 . S
C451 C450 1.387 . S
N452 Co443 2.022 . S
N452 C449 1.351 . S
N452 N453 1.365 . S
N453 C450 1.341 . S
N453 N452 1.365 . S
N453 H473 0.862 . S
C454 C449 1.501 . S
C454 H455 0.961 . S
C454 H456 0.961 . S
C454 H457 0.960 . S
H455 C454 0.961 . S
H456 C454 0.961 . S
H457 C454 0.960 . S
C458 N459 1.342 . S
C458 C462 1.401 . S
C458 C463 1.499 . S
N459 Co442 1.989 . S
N459 C458 1.342 . S
N459 N460 1.388 . S
N460 Co443 1.993 . S
N460 N459 1.388 . S
N460 C461 1.346 . S
C461 N460 1.346 . S
C461 C462 1.396 . S
C461 C471 1.510 . S
C462 C458 1.401 . S
C462 C461 1.396 . S
C463 C458 1.499 . S
C463 H464 0.959 . S
C463 H465 0.960 . S
C463 H466 0.961 . S
H464 C463 0.959 . S
H465 C463 0.960 . S
H466 C463 0.961 . S
O467 Co442 1.967 . S
O467 C475 1.258 . S
O468 Co443 1.941 . S
O468 C475 1.266 . S
H469 C471 0.959 . S
H470 C471 0.961 . S
C471 C461 1.510 . S
C471 H469 0.959 . S
C471 H470 0.961 . S
C471 H472 0.960 . S
H472 C471 0.960 . S
H473 N453 0.862 . S
O474 Co442 1.920 . S
O474 C447 1.289 . S
C475 O467 1.258 . S
C475 O468 1.266 . S
Co476 O479 1.970 . S
Co476 N493 1.989 . S
Co476 O501 1.967 . S
Co476 O508 1.920 . S
Co477 O480 1.966 . S
Co477 N486 2.022 . S
Co477 N494 1.993 . S
Co477 O502 1.941 . S
C478 O479 1.258 . S
C478 O480 1.263 . S
O479 Co476 1.970 . S
O479 C478 1.258 . S
O480 Co477 1.966 . S
O480 C478 1.263 . S
C481 O482 1.235 1_545 S
C481 O508 1.289 . S
O482 C481 1.235 1_565 S
C483 C485 1.400 . S
C483 N486 1.351 . S
C483 C488 1.501 . S
C484 C485 1.387 . S
C484 N487 1.341 . S
C485 C483 1.400 . S
C485 C484 1.387 . S
N486 Co477 2.022 . S
N486 C483 1.351 . S
N486 N487 1.365 . S
N487 C484 1.341 . S
N487 N486 1.365 . S
N487 H507 0.862 . S
C488 C483 1.501 . S
C488 H489 0.961 . S
C488 H490 0.961 . S
C488 H491 0.960 . S
H489 C488 0.961 . S
H490 C488 0.961 . S
H491 C488 0.960 . S
C492 N493 1.342 . S
C492 C496 1.401 . S
C492 C497 1.499 . S
N493 Co476 1.989 . S
N493 C492 1.342 . S
N493 N494 1.388 . S
N494 Co477 1.993 . S
N494 N493 1.388 . S
N494 C495 1.346 . S
C495 N494 1.346 . S
C495 C496 1.396 . S
C495 C505 1.510 . S
C496 C492 1.401 . S
C496 C495 1.396 . S
C497 C492 1.499 . S
C497 H498 0.959 . S
C497 H499 0.960 . S
C497 H500 0.961 . S
H498 C497 0.959 . S
H499 C497 0.960 . S
H500 C497 0.961 . S
O501 Co476 1.967 . S
O501 C509 1.258 . S
O502 Co477 1.941 . S
O502 C509 1.266 . S
H503 C505 0.959 . S
H504 C505 0.961 . S
C505 C495 1.510 . S
C505 H503 0.959 . S
C505 H504 0.961 . S
C505 H506 0.960 . S
H506 C505 0.960 . S
H507 N487 0.862 . S
O508 Co476 1.920 . S
O508 C481 1.289 . S
C509 O501 1.258 . S
C509 O502 1.266 . S
Co510 O513 1.970 . S
Co510 N527 1.989 . S
Co510 O535 1.967 . S
Co510 O542 1.920 . S
Co511 O514 1.966 . S
Co511 N520 2.022 . S
Co511 N528 1.993 . S
Co511 O536 1.941 . S
C512 O513 1.258 . S
C512 O514 1.263 . S
O513 Co510 1.970 . S
O513 C512 1.258 . S
O514 Co511 1.966 . S
O514 C512 1.263 . S
C515 O516 1.235 . S
C515 O542 1.289 . S
O516 C515 1.235 . S
C517 C519 1.400 . S
C517 N520 1.351 . S
C517 C522 1.501 . S
C518 C519 1.387 . S
C518 N521 1.341 . S
C519 C517 1.400 . S
C519 C518 1.387 . S
N520 Co511 2.022 . S
N520 C517 1.351 . S
N520 N521 1.365 . S
N521 C518 1.341 . S
N521 N520 1.365 . S
N521 H541 0.862 . S
C522 C517 1.501 . S
C522 H523 0.961 . S
C522 H524 0.961 . S
C522 H525 0.960 . S
H523 C522 0.961 . S
H524 C522 0.961 . S
H525 C522 0.960 . S
C526 N527 1.342 . S
C526 C530 1.401 . S
C526 C531 1.499 . S
N527 Co510 1.989 . S
N527 C526 1.342 . S
N527 N528 1.388 . S
N528 Co511 1.993 . S
N528 N527 1.388 . S
N528 C529 1.346 . S
C529 N528 1.346 . S
C529 C530 1.396 . S
C529 C539 1.510 . S
C530 C526 1.401 . S
C530 C529 1.396 . S
C531 C526 1.499 . S
C531 H532 0.959 . S
C531 H533 0.960 . S
C531 H534 0.961 . S
H532 C531 0.959 . S
H533 C531 0.960 . S
H534 C531 0.961 . S
O535 Co510 1.967 . S
O535 C543 1.258 . S
O536 Co511 1.941 . S
O536 C543 1.266 . S
H537 C539 0.959 . S
H538 C539 0.961 . S
C539 C529 1.510 . S
C539 H537 0.959 . S
C539 H538 0.961 . S
C539 H540 0.960 . S
H540 C539 0.960 . S
H541 N521 0.862 . S
O542 Co510 1.920 . S
O542 C515 1.289 . S
C543 O535 1.258 . S
C543 O536 1.266 . S
Co544 O547 1.970 . S
Co544 N561 1.989 . S
Co544 O569 1.967 . S
Co544 O576 1.920 . S
Co545 O548 1.966 . S
Co545 N554 2.022 . S
Co545 N562 1.993 . S
Co545 O570 1.941 . S
C546 O547 1.258 . S
C546 O548 1.263 . S
O547 Co544 1.970 . S
O547 C546 1.258 . S
O548 Co545 1.966 . S
O548 C546 1.263 . S
C549 O550 1.235 . S
C549 O576 1.289 . S
O550 C549 1.235 . S
C551 C553 1.400 . S
C551 N554 1.351 . S
C551 C556 1.501 . S
C552 C553 1.387 . S
C552 N555 1.341 . S
C553 C551 1.400 . S
C553 C552 1.387 . S
N554 Co545 2.022 . S
N554 C551 1.351 . S
N554 N555 1.365 . S
N555 C552 1.341 . S
N555 N554 1.365 . S
N555 H575 0.862 . S
C556 C551 1.501 . S
C556 H557 0.961 . S
C556 H558 0.961 . S
C556 H559 0.960 . S
H557 C556 0.961 . S
H558 C556 0.961 . S
H559 C556 0.960 . S
C560 N561 1.342 . S
C560 C564 1.401 . S
C560 C565 1.499 . S
N561 Co544 1.989 . S
N561 C560 1.342 . S
N561 N562 1.388 . S
N562 Co545 1.993 . S
N562 N561 1.388 . S
N562 C563 1.346 . S
C563 N562 1.346 . S
C563 C564 1.396 . S
C563 C573 1.510 . S
C564 C560 1.401 . S
C564 C563 1.396 . S
C565 C560 1.499 . S
C565 H566 0.959 . S
C565 H567 0.960 . S
C565 H568 0.961 . S
H566 C565 0.959 . S
H567 C565 0.960 . S
H568 C565 0.961 . S
O569 Co544 1.967 . S
O569 C577 1.258 . S
O570 Co545 1.941 . S
O570 C577 1.266 . S
H571 C573 0.959 . S
H572 C573 0.961 . S
C573 C563 1.510 . S
C573 H571 0.959 . S
C573 H572 0.961 . S
C573 H574 0.960 . S
H574 C573 0.960 . S
H575 N555 0.862 . S
O576 Co544 1.920 . S
O576 C549 1.289 . S
C577 O569 1.258 . S
C577 O570 1.266 . S
Co578 O581 1.970 . S
Co578 N595 1.989 . S
Co578 O603 1.967 . S
Co578 O610 1.920 . S
Co579 O582 1.966 . S
Co579 N588 2.022 . S
Co579 N596 1.993 . S
Co579 O604 1.941 . S
C580 O581 1.258 . S
C580 O582 1.263 . S
O581 Co578 1.970 . S
O581 C580 1.258 . S
O582 Co579 1.966 . S
O582 C580 1.263 . S
C583 O584 1.235 . S
C583 O610 1.289 . S
O584 C583 1.235 . S
C585 C587 1.400 . S
C585 N588 1.351 . S
C585 C590 1.501 . S
C586 C587 1.387 . S
C586 N589 1.341 . S
C587 C585 1.400 . S
C587 C586 1.387 . S
N588 Co579 2.022 . S
N588 C585 1.351 . S
N588 N589 1.365 . S
N589 C586 1.341 . S
N589 N588 1.365 . S
N589 H609 0.862 . S
C590 C585 1.501 . S
C590 H591 0.961 . S
C590 H592 0.961 . S
C590 H593 0.960 . S
H591 C590 0.961 . S
H592 C590 0.961 . S
H593 C590 0.960 . S
C594 N595 1.342 . S
C594 C598 1.401 . S
C594 C599 1.499 . S
N595 Co578 1.989 . S
N595 C594 1.342 . S
N595 N596 1.388 . S
N596 Co579 1.993 . S
N596 N595 1.388 . S
N596 C597 1.346 . S
C597 N596 1.346 . S
C597 C598 1.396 . S
C597 C607 1.510 . S
C598 C594 1.401 . S
C598 C597 1.396 . S
C599 C594 1.499 . S
C599 H600 0.959 . S
C599 H601 0.960 . S
C599 H602 0.961 . S
H600 C599 0.959 . S
H601 C599 0.960 . S
H602 C599 0.961 . S
O603 Co578 1.967 . S
O603 C611 1.258 . S
O604 Co579 1.941 . S
O604 C611 1.266 . S
H605 C607 0.959 . S
H606 C607 0.961 . S
C607 C597 1.510 . S
C607 H605 0.959 . S
C607 H606 0.961 . S
C607 H608 0.960 . S
H608 C607 0.960 . S
H609 N589 0.862 . S
O610 Co578 1.920 . S
O610 C583 1.289 . S
C611 O603 1.258 . S
C611 O604 1.266 . S
Co612 O615 1.970 . S
Co612 N629 1.989 . S
Co612 O637 1.967 . S
Co612 O644 1.920 . S
Co613 O616 1.966 . S
Co613 N622 2.022 . S
Co613 N630 1.993 . S
Co613 O638 1.941 . S
C614 O615 1.258 . S
C614 O616 1.263 . S
O615 Co612 1.970 . S
O615 C614 1.258 . S
O616 Co613 1.966 . S
O616 C614 1.263 . S
C617 O618 1.235 . S
C617 O644 1.289 . S
O618 C617 1.235 . S
C619 C621 1.400 . S
C619 N622 1.351 . S
C619 C624 1.501 . S
C620 C621 1.387 . S
C620 N623 1.341 . S
C621 C619 1.400 . S
C621 C620 1.387 . S
N622 Co613 2.022 . S
N622 C619 1.351 . S
N622 N623 1.365 . S
N623 C620 1.341 . S
N623 N622 1.365 . S
N623 H643 0.862 . S
C624 C619 1.501 . S
C624 H625 0.961 . S
C624 H626 0.961 . S
C624 H627 0.960 . S
H625 C624 0.961 . S
H626 C624 0.961 . S
H627 C624 0.960 . S
C628 N629 1.342 . S
C628 C632 1.401 . S
C628 C633 1.499 . S
N629 Co612 1.989 . S
N629 C628 1.342 . S
N629 N630 1.388 . S
N630 Co613 1.993 . S
N630 N629 1.388 . S
N630 C631 1.346 . S
C631 N630 1.346 . S
C631 C632 1.396 . S
C631 C641 1.510 . S
C632 C628 1.401 . S
C632 C631 1.396 . S
C633 C628 1.499 . S
C633 H634 0.959 . S
C633 H635 0.960 . S
C633 H636 0.961 . S
H634 C633 0.959 . S
H635 C633 0.960 . S
H636 C633 0.961 . S
O637 Co612 1.967 . S
O637 C645 1.258 . S
O638 Co613 1.941 . S
O638 C645 1.266 . S
H639 C641 0.959 . S
H640 C641 0.961 . S
C641 C631 1.510 . S
C641 H639 0.959 . S
C641 H640 0.961 . S
C641 H642 0.960 . S
H642 C641 0.960 . S
H643 N623 0.862 . S
O644 Co612 1.920 . S
O644 C617 1.289 . S
C645 O637 1.258 . S
C645 O638 1.266 . S
Co646 O649 1.970 . S
Co646 N663 1.989 . S
Co646 O671 1.967 . S
Co646 O678 1.920 . S
Co647 O650 1.966 . S
Co647 N656 2.022 . S
Co647 N664 1.993 . S
Co647 O672 1.941 . S
C648 O649 1.258 . S
C648 O650 1.263 . S
O649 Co646 1.970 . S
O649 C648 1.258 . S
O650 Co647 1.966 . S
O650 C648 1.263 . S
C651 O652 1.235 . S
C651 O678 1.289 . S
O652 C651 1.235 . S
C653 C655 1.400 . S
C653 N656 1.351 . S
C653 C658 1.501 . S
C654 C655 1.387 . S
C654 N657 1.341 . S
C655 C653 1.400 . S
C655 C654 1.387 . S
N656 Co647 2.022 . S
N656 C653 1.351 . S
N656 N657 1.365 . S
N657 C654 1.341 . S
N657 N656 1.365 . S
N657 H677 0.862 . S
C658 C653 1.501 . S
C658 H659 0.961 . S
C658 H660 0.961 . S
C658 H661 0.960 . S
H659 C658 0.961 . S
H660 C658 0.961 . S
H661 C658 0.960 . S
C662 N663 1.342 . S
C662 C666 1.401 . S
C662 C667 1.499 . S
N663 Co646 1.989 . S
N663 C662 1.342 . S
N663 N664 1.388 . S
N664 Co647 1.993 . S
N664 N663 1.388 . S
N664 C665 1.346 . S
C665 N664 1.346 . S
C665 C666 1.396 . S
C665 C675 1.510 . S
C666 C662 1.401 . S
C666 C665 1.396 . S
C667 C662 1.499 . S
C667 H668 0.959 . S
C667 H669 0.960 . S
C667 H670 0.961 . S
H668 C667 0.959 . S
H669 C667 0.960 . S
H670 C667 0.961 . S
O671 Co646 1.967 . S
O671 C679 1.258 . S
O672 Co647 1.941 . S
O672 C679 1.266 . S
H673 C675 0.959 . S
H674 C675 0.961 . S
C675 C665 1.510 . S
C675 H673 0.959 . S
C675 H674 0.961 . S
C675 H676 0.960 . S
H676 C675 0.960 . S
H677 N657 0.862 . S
O678 Co646 1.920 . S
O678 C651 1.289 . S
C679 O671 1.258 . S
C679 O672 1.266 . S
Co680 O683 1.970 . S
Co680 N697 1.989 . S
Co680 O705 1.967 . S
Co680 O712 1.920 . S
Co681 O684 1.966 . S
Co681 N690 2.022 . S
Co681 N698 1.993 . S
Co681 O706 1.941 . S
C682 O683 1.258 . S
C682 O684 1.263 . S
O683 Co680 1.970 . S
O683 C682 1.258 . S
O684 Co681 1.966 . S
O684 C682 1.263 . S
C685 O686 1.235 . S
C685 O712 1.289 . S
O686 C685 1.235 . S
C687 C689 1.400 . S
C687 N690 1.351 . S
C687 C692 1.501 . S
C688 C689 1.387 . S
C688 N691 1.341 . S
C689 C687 1.400 . S
C689 C688 1.387 . S
N690 Co681 2.022 . S
N690 C687 1.351 . S
N690 N691 1.365 . S
N691 C688 1.341 . S
N691 N690 1.365 . S
N691 H711 0.862 . S
C692 C687 1.501 . S
C692 H693 0.961 . S
C692 H694 0.961 . S
C692 H695 0.960 . S
H693 C692 0.961 . S
H694 C692 0.961 . S
H695 C692 0.960 . S
C696 N697 1.342 . S
C696 C700 1.401 . S
C696 C701 1.499 . S
N697 Co680 1.989 . S
N697 C696 1.342 . S
N697 N698 1.388 . S
N698 Co681 1.993 . S
N698 N697 1.388 . S
N698 C699 1.346 . S
C699 N698 1.346 . S
C699 C700 1.396 . S
C699 C709 1.510 . S
C700 C696 1.401 . S
C700 C699 1.396 . S
C701 C696 1.499 . S
C701 H702 0.959 . S
C701 H703 0.960 . S
C701 H704 0.961 . S
H702 C701 0.959 . S
H703 C701 0.960 . S
H704 C701 0.961 . S
O705 Co680 1.967 . S
O705 C713 1.258 . S
O706 Co681 1.941 . S
O706 C713 1.266 . S
H707 C709 0.959 . S
H708 C709 0.961 . S
C709 C699 1.510 . S
C709 H707 0.959 . S
C709 H708 0.961 . S
C709 H710 0.960 . S
H710 C709 0.960 . S
H711 N691 0.862 . S
O712 Co680 1.920 . S
O712 C685 1.289 . S
C713 O705 1.258 . S
C713 O706 1.266 . S
Co714 O717 1.970 . S
Co714 N731 1.989 . S
Co714 O739 1.967 . S
Co714 O746 1.920 . S
Co715 O718 1.966 . S
Co715 N724 2.022 . S
Co715 N732 1.993 . S
Co715 O740 1.941 . S
C716 O717 1.258 . S
C716 O718 1.263 . S
O717 Co714 1.970 . S
O717 C716 1.258 . S
O718 Co715 1.966 . S
O718 C716 1.263 . S
C719 O720 1.234 1_545 S
C719 O746 1.290 . S
O720 C719 1.234 1_565 S
C721 C723 1.400 . S
C721 N724 1.351 . S
C721 C726 1.501 . S
C722 C723 1.387 . S
C722 N725 1.341 . S
C723 C721 1.400 . S
C723 C722 1.387 . S
N724 Co715 2.022 . S
N724 C721 1.351 . S
N724 N725 1.365 . S
N725 C722 1.341 . S
N725 N724 1.365 . S
N725 H745 0.862 . S
C726 C721 1.501 . S
C726 H727 0.961 . S
C726 H728 0.961 . S
C726 H729 0.960 . S
H727 C726 0.961 . S
H728 C726 0.961 . S
H729 C726 0.960 . S
C730 N731 1.342 . S
C730 C734 1.401 . S
C730 C735 1.499 . S
N731 Co714 1.989 . S
N731 C730 1.342 . S
N731 N732 1.388 . S
N732 Co715 1.993 . S
N732 N731 1.388 . S
N732 C733 1.346 . S
C733 N732 1.346 . S
C733 C734 1.396 . S
C733 C743 1.510 . S
C734 C730 1.401 . S
C734 C733 1.396 . S
C735 C730 1.499 . S
C735 H736 0.959 . S
C735 H737 0.960 . S
C735 H738 0.961 . S
H736 C735 0.959 . S
H737 C735 0.960 . S
H738 C735 0.961 . S
O739 Co714 1.967 . S
O739 C747 1.258 . S
O740 Co715 1.941 . S
O740 C747 1.266 . S
H741 C743 0.959 . S
H742 C743 0.961 . S
C743 C733 1.510 . S
C743 H741 0.959 . S
C743 H742 0.961 . S
C743 H744 0.960 . S
H744 C743 0.960 . S
H745 N725 0.862 . S
O746 Co714 1.920 . S
O746 C719 1.290 . S
C747 O739 1.258 . S
C747 O740 1.266 . S
Co748 O751 1.970 . S
Co748 N765 1.989 . S
Co748 O773 1.967 . S
Co748 O780 1.920 . S
Co749 O752 1.966 . S
Co749 N758 2.022 . S
Co749 N766 1.993 . S
Co749 O774 1.941 . S
C750 O751 1.258 . S
C750 O752 1.263 . S
O751 Co748 1.970 . S
O751 C750 1.258 . S
O752 Co749 1.966 . S
O752 C750 1.263 . S
C753 O754 1.235 1_655 S
C753 O780 1.289 . S
O754 C753 1.235 1_455 S
C755 C757 1.400 . S
C755 N758 1.351 . S
C755 C760 1.501 . S
C756 C757 1.387 . S
C756 N759 1.341 . S
C757 C755 1.400 . S
C757 C756 1.387 . S
N758 Co749 2.022 . S
N758 C755 1.351 . S
N758 N759 1.365 . S
N759 C756 1.341 . S
N759 N758 1.365 . S
N759 H779 0.862 . S
C760 C755 1.501 . S
C760 H761 0.961 . S
C760 H762 0.961 . S
C760 H763 0.960 . S
H761 C760 0.961 . S
H762 C760 0.961 . S
H763 C760 0.960 . S
C764 N765 1.342 . S
C764 C768 1.401 . S
C764 C769 1.499 . S
N765 Co748 1.989 . S
N765 C764 1.342 . S
N765 N766 1.388 . S
N766 Co749 1.993 . S
N766 N765 1.388 . S
N766 C767 1.346 . S
C767 N766 1.346 . S
C767 C768 1.396 . S
C767 C777 1.510 . S
C768 C764 1.401 . S
C768 C767 1.396 . S
C769 C764 1.499 . S
C769 H770 0.959 . S
C769 H771 0.960 . S
C769 H772 0.961 . S
H770 C769 0.959 . S
H771 C769 0.960 . S
H772 C769 0.961 . S
O773 Co748 1.967 . S
O773 C781 1.258 . S
O774 Co749 1.941 . S
O774 C781 1.266 . S
H775 C777 0.959 . S
H776 C777 0.961 . S
C777 C767 1.510 . S
C777 H775 0.959 . S
C777 H776 0.961 . S
C777 H778 0.960 . S
H778 C777 0.960 . S
H779 N759 0.862 . S
O780 Co748 1.920 . S
O780 C753 1.289 . S
C781 O773 1.258 . S
C781 O774 1.266 . S
Co782 O785 1.970 . S
Co782 N799 1.989 . S
Co782 O807 1.967 . S
Co782 O814 1.920 . S
Co783 O786 1.966 . S
Co783 N792 2.022 . S
Co783 N800 1.993 . S
Co783 O808 1.941 . S
C784 O785 1.258 . S
C784 O786 1.263 . S
O785 Co782 1.970 . S
O785 C784 1.258 . S
O786 Co783 1.966 . S
O786 C784 1.263 . S
C787 O788 1.235 . S
C787 O814 1.289 . S
O788 C787 1.235 . S
C789 C791 1.400 . S
C789 N792 1.351 . S
C789 C794 1.501 . S
C790 C791 1.387 . S
C790 N793 1.341 . S
C791 C789 1.400 . S
C791 C790 1.387 . S
N792 Co783 2.022 . S
N792 C789 1.351 . S
N792 N793 1.365 . S
N793 C790 1.341 . S
N793 N792 1.365 . S
N793 H813 0.862 . S
C794 C789 1.501 . S
C794 H795 0.961 . S
C794 H796 0.961 . S
C794 H797 0.960 . S
H795 C794 0.961 . S
H796 C794 0.961 . S
H797 C794 0.960 . S
C798 N799 1.342 . S
C798 C802 1.401 . S
C798 C803 1.499 . S
N799 Co782 1.989 . S
N799 C798 1.342 . S
N799 N800 1.388 . S
N800 Co783 1.993 . S
N800 N799 1.388 . S
N800 C801 1.346 . S
C801 N800 1.346 . S
C801 C802 1.396 . S
C801 C811 1.510 . S
C802 C798 1.401 . S
C802 C801 1.396 . S
C803 C798 1.499 . S
C803 H804 0.959 . S
C803 H805 0.960 . S
C803 H806 0.961 . S
H804 C803 0.959 . S
H805 C803 0.960 . S
H806 C803 0.961 . S
O807 Co782 1.967 . S
O807 C815 1.258 . S
O808 Co783 1.941 . S
O808 C815 1.266 . S
H809 C811 0.959 . S
H810 C811 0.961 . S
C811 C801 1.510 . S
C811 H809 0.959 . S
C811 H810 0.961 . S
C811 H812 0.960 . S
H812 C811 0.960 . S
H813 N793 0.862 . S
O814 Co782 1.920 . S
O814 C787 1.289 . S
C815 O807 1.258 . S
C815 O808 1.266 . S
Co816 O819 1.970 . S
Co816 N833 1.989 . S
Co816 O841 1.967 . S
Co816 O848 1.920 . S
Co817 O820 1.966 . S
Co817 N826 2.022 . S
Co817 N834 1.993 . S
Co817 O842 1.941 . S
C818 O819 1.258 . S
C818 O820 1.263 . S
O819 Co816 1.970 . S
O819 C818 1.258 . S
O820 Co817 1.966 . S
O820 C818 1.263 . S
C821 O822 1.235 . S
C821 O848 1.289 . S
O822 C821 1.235 . S
C823 C825 1.400 . S
C823 N826 1.351 . S
C823 C828 1.501 . S
C824 C825 1.387 . S
C824 N827 1.341 . S
C825 C823 1.400 . S
C825 C824 1.387 . S
N826 Co817 2.022 . S
N826 C823 1.351 . S
N826 N827 1.365 . S
N827 C824 1.341 . S
N827 N826 1.365 . S
N827 H847 0.862 . S
C828 C823 1.501 . S
C828 H829 0.961 . S
C828 H830 0.961 . S
C828 H831 0.960 . S
H829 C828 0.961 . S
H830 C828 0.961 . S
H831 C828 0.960 . S
C832 N833 1.342 . S
C832 C836 1.401 . S
C832 C837 1.499 . S
N833 Co816 1.989 . S
N833 C832 1.342 . S
N833 N834 1.388 . S
N834 Co817 1.993 . S
N834 N833 1.388 . S
N834 C835 1.346 . S
C835 N834 1.346 . S
C835 C836 1.396 . S
C835 C845 1.510 . S
C836 C832 1.401 . S
C836 C835 1.396 . S
C837 C832 1.499 . S
C837 H838 0.959 . S
C837 H839 0.960 . S
C837 H840 0.961 . S
H838 C837 0.959 . S
H839 C837 0.960 . S
H840 C837 0.961 . S
O841 Co816 1.967 . S
O841 C849 1.258 . S
O842 Co817 1.941 . S
O842 C849 1.266 . S
H843 C845 0.959 . S
H844 C845 0.961 . S
C845 C835 1.510 . S
C845 H843 0.959 . S
C845 H844 0.961 . S
C845 H846 0.960 . S
H846 C845 0.960 . S
H847 N827 0.862 . S
O848 Co816 1.920 . S
O848 C821 1.289 . S
C849 O841 1.258 . S
C849 O842 1.266 . S
Co850 O853 1.970 . S
Co850 N867 1.989 . S
Co850 O875 1.967 . S
Co850 O882 1.920 . S
Co851 O854 1.966 . S
Co851 N860 2.022 . S
Co851 N868 1.993 . S
Co851 O876 1.941 . S
C852 O853 1.258 . S
C852 O854 1.263 . S
O853 Co850 1.970 . S
O853 C852 1.258 . S
O854 Co851 1.966 . S
O854 C852 1.263 . S
C855 O856 1.235 . S
C855 O882 1.289 . S
O856 C855 1.235 . S
C857 C859 1.400 . S
C857 N860 1.351 . S
C857 C862 1.501 . S
C858 C859 1.387 . S
C858 N861 1.341 . S
C859 C857 1.400 . S
C859 C858 1.387 . S
N860 Co851 2.022 . S
N860 C857 1.351 . S
N860 N861 1.365 . S
N861 C858 1.341 . S
N861 N860 1.365 . S
N861 H881 0.862 . S
C862 C857 1.501 . S
C862 H863 0.961 . S
C862 H864 0.961 . S
C862 H865 0.960 . S
H863 C862 0.961 . S
H864 C862 0.961 . S
H865 C862 0.960 . S
C866 N867 1.342 . S
C866 C870 1.401 . S
C866 C871 1.499 . S
N867 Co850 1.989 . S
N867 C866 1.342 . S
N867 N868 1.388 . S
N868 Co851 1.993 . S
N868 N867 1.388 . S
N868 C869 1.346 . S
C869 N868 1.346 . S
C869 C870 1.396 . S
C869 C879 1.510 . S
C870 C866 1.401 . S
C870 C869 1.396 . S
C871 C866 1.499 . S
C871 H872 0.959 . S
C871 H873 0.960 . S
C871 H874 0.961 . S
H872 C871 0.959 . S
H873 C871 0.960 . S
H874 C871 0.961 . S
O875 Co850 1.967 . S
O875 C883 1.258 . S
O876 Co851 1.941 . S
O876 C883 1.266 . S
H877 C879 0.959 . S
H878 C879 0.961 . S
C879 C869 1.510 . S
C879 H877 0.959 . S
C879 H878 0.961 . S
C879 H880 0.960 . S
H880 C879 0.960 . S
H881 N861 0.862 . S
O882 Co850 1.920 . S
O882 C855 1.289 . S
C883 O875 1.258 . S
C883 O876 1.266 . S
Co884 O887 1.970 . S
Co884 N901 1.989 . S
Co884 O909 1.967 . S
Co884 O916 1.920 . S
Co885 O888 1.966 . S
Co885 N894 2.022 . S
Co885 N902 1.993 . S
Co885 O910 1.941 . S
C886 O887 1.258 . S
C886 O888 1.263 . S
O887 Co884 1.970 . S
O887 C886 1.258 . S
O888 Co885 1.966 . S
O888 C886 1.263 . S
C889 O890 1.235 . S
C889 O916 1.289 . S
O890 C889 1.235 . S
C891 C893 1.400 . S
C891 N894 1.351 . S
C891 C896 1.501 . S
C892 C893 1.387 . S
C892 N895 1.341 . S
C893 C891 1.400 . S
C893 C892 1.387 . S
N894 Co885 2.022 . S
N894 C891 1.351 . S
N894 N895 1.365 . S
N895 C892 1.341 . S
N895 N894 1.365 . S
N895 H915 0.862 . S
C896 C891 1.501 . S
C896 H897 0.961 . S
C896 H898 0.961 . S
C896 H899 0.960 . S
H897 C896 0.961 . S
H898 C896 0.961 . S
H899 C896 0.960 . S
C900 N901 1.342 . S
C900 C904 1.401 . S
C900 C905 1.499 . S
N901 Co884 1.989 . S
N901 C900 1.342 . S
N901 N902 1.388 . S
N902 Co885 1.993 . S
N902 N901 1.388 . S
N902 C903 1.346 . S
C903 N902 1.346 . S
C903 C904 1.396 . S
C903 C913 1.510 . S
C904 C900 1.401 . S
C904 C903 1.396 . S
C905 C900 1.499 . S
C905 H906 0.959 . S
C905 H907 0.960 . S
C905 H908 0.961 . S
H906 C905 0.959 . S
H907 C905 0.960 . S
H908 C905 0.961 . S
O909 Co884 1.967 . S
O909 C917 1.258 . S
O910 Co885 1.941 . S
O910 C917 1.266 . S
H911 C913 0.959 . S
H912 C913 0.961 . S
C913 C903 1.510 . S
C913 H911 0.959 . S
C913 H912 0.961 . S
C913 H914 0.960 . S
H914 C913 0.960 . S
H915 N895 0.862 . S
O916 Co884 1.920 . S
O916 C889 1.289 . S
C917 O909 1.258 . S
C917 O910 1.266 . S
Co918 O921 1.970 . S
Co918 N935 1.989 . S
Co918 O943 1.967 . S
Co918 O950 1.920 . S
Co919 O922 1.966 . S
Co919 N928 2.022 . S
Co919 N936 1.993 . S
Co919 O944 1.941 . S
C920 O921 1.258 . S
C920 O922 1.263 . S
O921 Co918 1.970 . S
O921 C920 1.258 . S
O922 Co919 1.966 . S
O922 C920 1.263 . S
C923 O924 1.234 1_565 S
C923 O950 1.290 . S
O924 C923 1.234 1_545 S
C925 C927 1.400 . S
C925 N928 1.351 . S
C925 C930 1.501 . S
C926 C927 1.387 . S
C926 N929 1.341 . S
C927 C925 1.400 . S
C927 C926 1.387 . S
N928 Co919 2.022 . S
N928 C925 1.351 . S
N928 N929 1.365 . S
N929 C926 1.341 . S
N929 N928 1.365 . S
N929 H949 0.862 . S
C930 C925 1.501 . S
C930 H931 0.961 . S
C930 H932 0.961 . S
C930 H933 0.960 . S
H931 C930 0.961 . S
H932 C930 0.961 . S
H933 C930 0.960 . S
C934 N935 1.342 . S
C934 C938 1.401 . S
C934 C939 1.499 . S
N935 Co918 1.989 . S
N935 C934 1.342 . S
N935 N936 1.388 . S
N936 Co919 1.993 . S
N936 N935 1.388 . S
N936 C937 1.346 . S
C937 N936 1.346 . S
C937 C938 1.396 . S
C937 C947 1.510 . S
C938 C934 1.401 . S
C938 C937 1.396 . S
C939 C934 1.499 . S
C939 H940 0.959 . S
C939 H941 0.960 . S
C939 H942 0.961 . S
H940 C939 0.959 . S
H941 C939 0.960 . S
H942 C939 0.961 . S
O943 Co918 1.967 . S
O943 C951 1.258 . S
O944 Co919 1.941 . S
O944 C951 1.266 . S
H945 C947 0.959 . S
H946 C947 0.961 . S
C947 C937 1.510 . S
C947 H945 0.959 . S
C947 H946 0.961 . S
C947 H948 0.960 . S
H948 C947 0.960 . S
H949 N929 0.862 . S
O950 Co918 1.920 . S
O950 C923 1.290 . S
C951 O943 1.258 . S
C951 O944 1.266 . S
Co952 O955 1.970 . S
Co952 N969 1.989 . S
Co952 O977 1.967 . S
Co952 O984 1.920 . S
Co953 O956 1.966 . S
Co953 N962 2.022 . S
Co953 N970 1.993 . S
Co953 O978 1.941 . S
C954 O955 1.258 . S
C954 O956 1.263 . S
O955 Co952 1.970 . S
O955 C954 1.258 . S
O956 Co953 1.966 . S
O956 C954 1.263 . S
C957 O958 1.235 1_455 S
C957 O984 1.289 . S
O958 C957 1.235 1_655 S
C959 C961 1.400 . S
C959 N962 1.351 . S
C959 C964 1.501 . S
C960 C961 1.387 . S
C960 N963 1.341 . S
C961 C959 1.400 . S
C961 C960 1.387 . S
N962 Co953 2.022 . S
N962 C959 1.351 . S
N962 N963 1.365 . S
N963 C960 1.341 . S
N963 N962 1.365 . S
N963 H983 0.862 . S
C964 C959 1.501 . S
C964 H965 0.961 . S
C964 H966 0.961 . S
C964 H967 0.960 . S
H965 C964 0.961 . S
H966 C964 0.961 . S
H967 C964 0.960 . S
C968 N969 1.342 . S
C968 C972 1.401 . S
C968 C973 1.499 . S
N969 Co952 1.989 . S
N969 C968 1.342 . S
N969 N970 1.388 . S
N970 Co953 1.993 . S
N970 N969 1.388 . S
N970 C971 1.346 . S
C971 N970 1.346 . S
C971 C972 1.396 . S
C971 C981 1.510 . S
C972 C968 1.401 . S
C972 C971 1.396 . S
C973 C968 1.499 . S
C973 H974 0.959 . S
C973 H975 0.960 . S
C973 H976 0.961 . S
H974 C973 0.959 . S
H975 C973 0.960 . S
H976 C973 0.961 . S
O977 Co952 1.967 . S
O977 C985 1.258 . S
O978 Co953 1.941 . S
O978 C985 1.266 . S
H979 C981 0.959 . S
H980 C981 0.961 . S
C981 C971 1.510 . S
C981 H979 0.959 . S
C981 H980 0.961 . S
C981 H982 0.960 . S
H982 C981 0.960 . S
H983 N963 0.862 . S
O984 Co952 1.920 . S
O984 C957 1.289 . S
C985 O977 1.258 . S
C985 O978 1.266 . S
Co986 O989 1.970 . S
Co986 N1003 1.989 . S
Co986 O1011 1.967 . S
Co986 O1018 1.920 . S
Co987 O990 1.966 . S
Co987 N996 2.022 . S
Co987 N1004 1.993 . S
Co987 O1012 1.941 . S
C988 O989 1.258 . S
C988 O990 1.263 . S
O989 Co986 1.970 . S
O989 C988 1.258 . S
O990 Co987 1.966 . S
O990 C988 1.263 . S
C991 O992 1.235 . S
C991 O1018 1.289 . S
O992 C991 1.235 . S
C993 C995 1.400 . S
C993 N996 1.351 . S
C993 C998 1.501 . S
C994 C995 1.387 . S
C994 N997 1.341 . S
C995 C993 1.400 . S
C995 C994 1.387 . S
N996 Co987 2.022 . S
N996 C993 1.351 . S
N996 N997 1.365 . S
N997 C994 1.341 . S
N997 N996 1.365 . S
N997 H1017 0.862 . S
C998 C993 1.501 . S
C998 H999 0.961 . S
C998 H1000 0.961 . S
C998 H1001 0.960 . S
H999 C998 0.961 . S
H1000 C998 0.961 . S
H1001 C998 0.960 . S
C1002 N1003 1.342 . S
C1002 C1006 1.401 . S
C1002 C1007 1.499 . S
N1003 Co986 1.989 . S
N1003 C1002 1.342 . S
N1003 N1004 1.388 . S
N1004 Co987 1.993 . S
N1004 N1003 1.388 . S
N1004 C1005 1.346 . S
C1005 N1004 1.346 . S
C1005 C1006 1.396 . S
C1005 C1015 1.510 . S
C1006 C1002 1.401 . S
C1006 C1005 1.396 . S
C1007 C1002 1.499 . S
C1007 H1008 0.959 . S
C1007 H1009 0.960 . S
C1007 H1010 0.961 . S
H1008 C1007 0.959 . S
H1009 C1007 0.960 . S
H1010 C1007 0.961 . S
O1011 Co986 1.967 . S
O1011 C1019 1.258 . S
O1012 Co987 1.941 . S
O1012 C1019 1.266 . S
H1013 C1015 0.959 . S
H1014 C1015 0.961 . S
C1015 C1005 1.510 . S
C1015 H1013 0.959 . S
C1015 H1014 0.961 . S
C1015 H1016 0.960 . S
H1016 C1015 0.960 . S
H1017 N997 0.862 . S
O1018 Co986 1.920 . S
O1018 C991 1.289 . S
C1019 O1011 1.258 . S
C1019 O1012 1.266 . S
Co1020 O1023 1.970 . S
Co1020 N1037 1.989 . S
Co1020 O1045 1.967 . S
Co1020 O1052 1.920 . S
Co1021 O1024 1.966 . S
Co1021 N1030 2.022 . S
Co1021 N1038 1.993 . S
Co1021 O1046 1.941 . S
C1022 O1023 1.258 . S
C1022 O1024 1.263 . S
O1023 Co1020 1.970 . S
O1023 C1022 1.258 . S
O1024 Co1021 1.966 . S
O1024 C1022 1.263 . S
C1025 O1026 1.234 1_455 S
C1025 O1052 1.290 . S
O1026 C1025 1.234 1_655 S
C1027 C1029 1.400 . S
C1027 N1030 1.351 . S
C1027 C1032 1.501 . S
C1028 C1029 1.387 . S
C1028 N1031 1.341 . S
C1029 C1027 1.400 . S
C1029 C1028 1.387 . S
N1030 Co1021 2.022 . S
N1030 C1027 1.351 . S
N1030 N1031 1.365 . S
N1031 C1028 1.341 . S
N1031 N1030 1.365 . S
N1031 H1051 0.862 . S
C1032 C1027 1.501 . S
C1032 H1033 0.961 . S
C1032 H1034 0.961 . S
C1032 H1035 0.960 . S
H1033 C1032 0.961 . S
H1034 C1032 0.961 . S
H1035 C1032 0.960 . S
C1036 N1037 1.342 . S
C1036 C1040 1.401 . S
C1036 C1041 1.499 . S
N1037 Co1020 1.989 . S
N1037 C1036 1.342 . S
N1037 N1038 1.388 . S
N1038 Co1021 1.993 . S
N1038 N1037 1.388 . S
N1038 C1039 1.346 . S
C1039 N1038 1.346 . S
C1039 C1040 1.396 . S
C1039 C1049 1.510 . S
C1040 C1036 1.401 . S
C1040 C1039 1.396 . S
C1041 C1036 1.499 . S
C1041 H1042 0.959 . S
C1041 H1043 0.960 . S
C1041 H1044 0.961 . S
H1042 C1041 0.959 . S
H1043 C1041 0.960 . S
H1044 C1041 0.961 . S
O1045 Co1020 1.967 . S
O1045 C1053 1.258 . S
O1046 Co1021 1.941 . S
O1046 C1053 1.266 . S
H1047 C1049 0.959 . S
H1048 C1049 0.961 . S
C1049 C1039 1.510 . S
C1049 H1047 0.959 . S
C1049 H1048 0.961 . S
C1049 H1050 0.960 . S
H1050 C1049 0.960 . S
H1051 N1031 0.862 . S
O1052 Co1020 1.920 . S
O1052 C1025 1.290 . S
C1053 O1045 1.258 . S
C1053 O1046 1.266 . S
Co1054 O1057 1.970 . S
Co1054 N1071 1.989 . S
Co1054 O1079 1.967 . S
Co1054 O1086 1.920 . S
Co1055 O1058 1.966 . S
Co1055 N1064 2.022 . S
Co1055 N1072 1.993 . S
Co1055 O1080 1.941 . S
C1056 O1057 1.258 . S
C1056 O1058 1.263 . S
O1057 Co1054 1.970 . S
O1057 C1056 1.258 . S
O1058 Co1055 1.966 . S
O1058 C1056 1.263 . S
C1059 O1060 1.235 . S
C1059 O1086 1.289 . S
O1060 C1059 1.235 . S
C1061 C1063 1.400 . S
C1061 N1064 1.351 . S
C1061 C1066 1.501 . S
C1062 C1063 1.387 . S
C1062 N1065 1.341 . S
C1063 C1061 1.400 . S
C1063 C1062 1.387 . S
N1064 Co1055 2.022 . S
N1064 C1061 1.351 . S
N1064 N1065 1.365 . S
N1065 C1062 1.341 . S
N1065 N1064 1.365 . S
N1065 H1085 0.862 . S
C1066 C1061 1.501 . S
C1066 H1067 0.961 . S
C1066 H1068 0.961 . S
C1066 H1069 0.960 . S
H1067 C1066 0.961 . S
H1068 C1066 0.961 . S
H1069 C1066 0.960 . S
C1070 N1071 1.342 . S
C1070 C1074 1.401 . S
C1070 C1075 1.499 . S
N1071 Co1054 1.989 . S
N1071 C1070 1.342 . S
N1071 N1072 1.388 . S
N1072 Co1055 1.993 . S
N1072 N1071 1.388 . S
N1072 C1073 1.346 . S
C1073 N1072 1.346 . S
C1073 C1074 1.396 . S
C1073 C1083 1.510 . S
C1074 C1070 1.401 . S
C1074 C1073 1.396 . S
C1075 C1070 1.499 . S
C1075 H1076 0.959 . S
C1075 H1077 0.960 . S
C1075 H1078 0.961 . S
H1076 C1075 0.959 . S
H1077 C1075 0.960 . S
H1078 C1075 0.961 . S
O1079 Co1054 1.967 . S
O1079 C1087 1.258 . S
O1080 Co1055 1.941 . S
O1080 C1087 1.266 . S
H1081 C1083 0.959 . S
H1082 C1083 0.961 . S
C1083 C1073 1.510 . S
C1083 H1081 0.959 . S
C1083 H1082 0.961 . S
C1083 H1084 0.960 . S
H1084 C1083 0.960 . S
H1085 N1065 0.862 . S
O1086 Co1054 1.920 . S
O1086 C1059 1.289 . S
C1087 O1079 1.258 . S
C1087 O1080 1.266 . S
Co1088 O1091 1.970 . S
Co1088 N1105 1.989 . S
Co1088 O1113 1.967 . S
Co1088 O1120 1.920 . S
Co1089 O1092 1.966 . S
Co1089 N1098 2.022 . S
Co1089 N1106 1.993 . S
Co1089 O1114 1.941 . S
C1090 O1091 1.258 . S
C1090 O1092 1.263 . S
O1091 Co1088 1.970 . S
O1091 C1090 1.258 . S
O1092 Co1089 1.966 . S
O1092 C1090 1.263 . S
C1093 O1094 1.235 1_565 S
C1093 O1120 1.289 . S
O1094 C1093 1.235 1_545 S
C1095 C1097 1.400 . S
C1095 N1098 1.351 . S
C1095 C1100 1.501 . S
C1096 C1097 1.387 . S
C1096 N1099 1.341 . S
C1097 C1095 1.400 . S
C1097 C1096 1.387 . S
N1098 Co1089 2.022 . S
N1098 C1095 1.351 . S
N1098 N1099 1.365 . S
N1099 C1096 1.341 . S
N1099 N1098 1.365 . S
N1099 H1119 0.862 . S
C1100 C1095 1.501 . S
C1100 H1101 0.961 . S
C1100 H1102 0.961 . S
C1100 H1103 0.960 . S
H1101 C1100 0.961 . S
H1102 C1100 0.961 . S
H1103 C1100 0.960 . S
C1104 N1105 1.342 . S
C1104 C1108 1.401 . S
C1104 C1109 1.499 . S
N1105 Co1088 1.989 . S
N1105 C1104 1.342 . S
N1105 N1106 1.388 . S
N1106 Co1089 1.993 . S
N1106 N1105 1.388 . S
N1106 C1107 1.346 . S
C1107 N1106 1.346 . S
C1107 C1108 1.396 . S
C1107 C1117 1.510 . S
C1108 C1104 1.401 . S
C1108 C1107 1.396 . S
C1109 C1104 1.499 . S
C1109 H1110 0.959 . S
C1109 H1111 0.960 . S
C1109 H1112 0.961 . S
H1110 C1109 0.959 . S
H1111 C1109 0.960 . S
H1112 C1109 0.961 . S
O1113 Co1088 1.967 . S
O1113 C1121 1.258 . S
O1114 Co1089 1.941 . S
O1114 C1121 1.266 . S
H1115 C1117 0.959 . S
H1116 C1117 0.961 . S
C1117 C1107 1.510 . S
C1117 H1115 0.959 . S
C1117 H1116 0.961 . S
C1117 H1118 0.960 . S
H1118 C1117 0.960 . S
H1119 N1099 0.862 . S
O1120 Co1088 1.920 . S
O1120 C1093 1.289 . S
C1121 O1113 1.258 . S
C1121 O1114 1.266 . S
Co1122 O1125 1.970 . S
Co1122 N1139 1.989 . S
Co1122 O1147 1.967 . S
Co1122 O1154 1.920 . S
Co1123 O1126 1.966 . S
Co1123 N1132 2.022 . S
Co1123 N1140 1.993 . S
Co1123 O1148 1.941 . S
C1124 O1125 1.258 . S
C1124 O1126 1.263 . S
O1125 Co1122 1.970 . S
O1125 C1124 1.258 . S
O1126 Co1123 1.966 . S
O1126 C1124 1.263 . S
C1127 O1128 1.235 . S
C1127 O1154 1.289 . S
O1128 C1127 1.235 . S
C1129 C1131 1.400 . S
C1129 N1132 1.351 . S
C1129 C1134 1.501 . S
C1130 C1131 1.387 . S
C1130 N1133 1.341 . S
C1131 C1129 1.400 . S
C1131 C1130 1.387 . S
N1132 Co1123 2.022 . S
N1132 C1129 1.351 . S
N1132 N1133 1.365 . S
N1133 C1130 1.341 . S
N1133 N1132 1.365 . S
N1133 H1153 0.862 . S
C1134 C1129 1.501 . S
C1134 H1135 0.961 . S
C1134 H1136 0.961 . S
C1134 H1137 0.960 . S
H1135 C1134 0.961 . S
H1136 C1134 0.961 . S
H1137 C1134 0.960 . S
C1138 N1139 1.342 . S
C1138 C1142 1.401 . S
C1138 C1143 1.499 . S
N1139 Co1122 1.989 . S
N1139 C1138 1.342 . S
N1139 N1140 1.388 . S
N1140 Co1123 1.993 . S
N1140 N1139 1.388 . S
N1140 C1141 1.346 . S
C1141 N1140 1.346 . S
C1141 C1142 1.396 . S
C1141 C1151 1.510 . S
C1142 C1138 1.401 . S
C1142 C1141 1.396 . S
C1143 C1138 1.499 . S
C1143 H1144 0.959 . S
C1143 H1145 0.960 . S
C1143 H1146 0.961 . S
H1144 C1143 0.959 . S
H1145 C1143 0.960 . S
H1146 C1143 0.961 . S
O1147 Co1122 1.967 . S
O1147 C1155 1.258 . S
O1148 Co1123 1.941 . S
O1148 C1155 1.266 . S
H1149 C1151 0.959 . S
H1150 C1151 0.961 . S
C1151 C1141 1.510 . S
C1151 H1149 0.959 . S
C1151 H1150 0.961 . S
C1151 H1152 0.960 . S
H1152 C1151 0.960 . S
H1153 N1133 0.862 . S
O1154 Co1122 1.920 . S
O1154 C1127 1.289 . S
C1155 O1147 1.258 . S
C1155 O1148 1.266 . S
Co1156 O1159 1.970 . S
Co1156 N1173 1.989 . S
Co1156 O1181 1.967 . S
Co1156 O1188 1.920 . S
Co1157 O1160 1.966 . S
Co1157 N1166 2.022 . S
Co1157 N1174 1.993 . S
Co1157 O1182 1.941 . S
C1158 O1159 1.258 . S
C1158 O1160 1.263 . S
O1159 Co1156 1.970 . S
O1159 C1158 1.258 . S
O1160 Co1157 1.966 . S
O1160 C1158 1.263 . S
C1161 O1162 1.235 . S
C1161 O1188 1.289 . S
O1162 C1161 1.235 . S
C1163 C1165 1.400 . S
C1163 N1166 1.351 . S
C1163 C1168 1.501 . S
C1164 C1165 1.387 . S
C1164 N1167 1.341 . S
C1165 C1163 1.400 . S
C1165 C1164 1.387 . S
N1166 Co1157 2.022 . S
N1166 C1163 1.351 . S
N1166 N1167 1.365 . S
N1167 C1164 1.341 . S
N1167 N1166 1.365 . S
N1167 H1187 0.862 . S
C1168 C1163 1.501 . S
C1168 H1169 0.961 . S
C1168 H1170 0.961 . S
C1168 H1171 0.960 . S
H1169 C1168 0.961 . S
H1170 C1168 0.961 . S
H1171 C1168 0.960 . S
C1172 N1173 1.342 . S
C1172 C1176 1.401 . S
C1172 C1177 1.499 . S
N1173 Co1156 1.989 . S
N1173 C1172 1.342 . S
N1173 N1174 1.388 . S
N1174 Co1157 1.993 . S
N1174 N1173 1.388 . S
N1174 C1175 1.346 . S
C1175 N1174 1.346 . S
C1175 C1176 1.396 . S
C1175 C1185 1.510 . S
C1176 C1172 1.401 . S
C1176 C1175 1.396 . S
C1177 C1172 1.499 . S
C1177 H1178 0.959 . S
C1177 H1179 0.960 . S
C1177 H1180 0.961 . S
H1178 C1177 0.959 . S
H1179 C1177 0.960 . S
H1180 C1177 0.961 . S
O1181 Co1156 1.967 . S
O1181 C1189 1.258 . S
O1182 Co1157 1.941 . S
O1182 C1189 1.266 . S
H1183 C1185 0.959 . S
H1184 C1185 0.961 . S
C1185 C1175 1.510 . S
C1185 H1183 0.959 . S
C1185 H1184 0.961 . S
C1185 H1186 0.960 . S
H1186 C1185 0.960 . S
H1187 N1167 0.862 . S
O1188 Co1156 1.920 . S
O1188 C1161 1.289 . S
C1189 O1181 1.258 . S
C1189 O1182 1.266 . S
Co1190 O1193 1.970 . S
Co1190 N1207 1.989 . S
Co1190 O1215 1.967 . S
Co1190 O1222 1.920 . S
Co1191 O1194 1.966 . S
Co1191 N1200 2.022 . S
Co1191 N1208 1.993 . S
Co1191 O1216 1.941 . S
C1192 O1193 1.258 . S
C1192 O1194 1.263 . S
O1193 Co1190 1.970 . S
O1193 C1192 1.258 . S
O1194 Co1191 1.966 . S
O1194 C1192 1.263 . S
C1195 O1196 1.235 . S
C1195 O1222 1.289 . S
O1196 C1195 1.235 . S
C1197 C1199 1.400 . S
C1197 N1200 1.351 . S
C1197 C1202 1.501 . S
C1198 C1199 1.387 . S
C1198 N1201 1.341 . S
C1199 C1197 1.400 . S
C1199 C1198 1.387 . S
N1200 Co1191 2.022 . S
N1200 C1197 1.351 . S
N1200 N1201 1.365 . S
N1201 C1198 1.341 . S
N1201 N1200 1.365 . S
N1201 H1221 0.862 . S
C1202 C1197 1.501 . S
C1202 H1203 0.961 . S
C1202 H1204 0.961 . S
C1202 H1205 0.960 . S
H1203 C1202 0.961 . S
H1204 C1202 0.961 . S
H1205 C1202 0.960 . S
C1206 N1207 1.342 . S
C1206 C1210 1.401 . S
C1206 C1211 1.499 . S
N1207 Co1190 1.989 . S
N1207 C1206 1.342 . S
N1207 N1208 1.388 . S
N1208 Co1191 1.993 . S
N1208 N1207 1.388 . S
N1208 C1209 1.346 . S
C1209 N1208 1.346 . S
C1209 C1210 1.396 . S
C1209 C1219 1.510 . S
C1210 C1206 1.401 . S
C1210 C1209 1.396 . S
C1211 C1206 1.499 . S
C1211 H1212 0.959 . S
C1211 H1213 0.960 . S
C1211 H1214 0.961 . S
H1212 C1211 0.959 . S
H1213 C1211 0.960 . S
H1214 C1211 0.961 . S
O1215 Co1190 1.967 . S
O1215 C1223 1.258 . S
O1216 Co1191 1.941 . S
O1216 C1223 1.266 . S
H1217 C1219 0.959 . S
H1218 C1219 0.961 . S
C1219 C1209 1.510 . S
C1219 H1217 0.959 . S
C1219 H1218 0.961 . S
C1219 H1220 0.960 . S
H1220 C1219 0.960 . S
H1221 N1201 0.862 . S
O1222 Co1190 1.920 . S
O1222 C1195 1.289 . S
C1223 O1215 1.258 . S
C1223 O1216 1.266 . S
H1224 C1232 0.950 . S
H1225 C1237 0.950 . S
H1226 C1234 0.950 . S
H1227 C1236 0.950 . S
H1228 C1238 0.950 . S
H1229 C1240 0.950 . S
H1230 C1242 0.950 . S
H1231 C1243 0.950 . S
C1232 H1224 0.950 . S
C1232 C1233 1.386 . S
C1232 C1234 1.391 . S
C1233 C1232 1.386 . S
C1233 C1237 1.393 . S
C1234 H1226 0.950 . S
C1234 C1232 1.391 . S
C1234 C1235 1.400 . S
C1235 C1234 1.400 . S
C1235 C1236 1.398 . S
C1235 C1241 1.491 . S
C1236 H1227 0.950 . S
C1236 C1235 1.398 . S
C1236 C1237 1.391 . S
C1237 H1225 0.950 . S
C1237 C1233 1.393 . S
C1237 C1236 1.391 . S
C1238 H1228 0.950 . S
C1238 C1239 1.386 . S
C1238 C1240 1.391 . S
C1239 C1238 1.386 . S
C1239 C1243 1.393 . S
C1240 H1229 0.950 . S
C1240 C1238 1.391 . S
C1240 C1241 1.400 . S
C1241 C1235 1.491 . S
C1241 C1240 1.400 . S
C1241 C1242 1.398 . S
C1242 H1230 0.950 . S
C1242 C1241 1.398 . S
C1242 C1243 1.391 . S
C1243 H1231 0.950 . S
C1243 C1239 1.393 . S
C1243 C1242 1.391 . S
H1244 C1252 0.950 . S
H1245 C1257 0.950 . S
H1246 C1254 0.950 . S
H1247 C1256 0.950 . S
H1248 C1258 0.950 . S
H1249 C1260 0.950 . S
H1250 C1262 0.950 . S
H1251 C1263 0.950 . S
C1252 H1244 0.950 . S
C1252 C1253 1.386 . S
C1252 C1254 1.391 . S
C1253 C1252 1.386 . S
C1253 C1257 1.393 . S
C1254 H1246 0.950 . S
C1254 C1252 1.391 . S
C1254 C1255 1.400 . S
C1255 C1254 1.400 . S
C1255 C1256 1.398 . S
C1255 C1261 1.491 . S
C1256 H1247 0.950 . S
C1256 C1255 1.398 . S
C1256 C1257 1.391 . S
C1257 H1245 0.950 . S
C1257 C1253 1.393 . S
C1257 C1256 1.391 . S
C1258 H1248 0.950 . S
C1258 C1259 1.386 . S
C1258 C1260 1.391 . S
C1259 C1258 1.386 . S
C1259 C1263 1.393 . S
C1260 H1249 0.950 . S
C1260 C1258 1.391 . S
C1260 C1261 1.400 . S
C1261 C1255 1.491 . S
C1261 C1260 1.400 . S
C1261 C1262 1.398 . S
C1262 H1250 0.950 . S
C1262 C1261 1.398 . S
C1262 C1263 1.391 . S
C1263 H1251 0.950 . S
C1263 C1259 1.393 . S
C1263 C1262 1.391 . S
H1264 C1272 0.950 . S
H1265 C1277 0.950 . S
H1266 C1274 0.950 . S
H1267 C1276 0.950 . S
H1268 C1278 0.950 . S
H1269 C1280 0.950 . S
H1270 C1282 0.950 . S
H1271 C1283 0.950 . S
C1272 H1264 0.950 . S
C1272 C1273 1.386 . S
C1272 C1274 1.391 . S
C1273 C1272 1.386 . S
C1273 C1277 1.393 . S
C1274 H1266 0.950 . S
C1274 C1272 1.391 . S
C1274 C1275 1.400 . S
C1275 C1274 1.400 . S
C1275 C1276 1.398 . S
C1275 C1281 1.491 . S
C1276 H1267 0.950 . S
C1276 C1275 1.398 . S
C1276 C1277 1.391 . S
C1277 H1265 0.950 . S
C1277 C1273 1.393 . S
C1277 C1276 1.391 . S
C1278 H1268 0.950 . S
C1278 C1279 1.386 . S
C1278 C1280 1.391 . S
C1279 C1278 1.386 . S
C1279 C1283 1.393 . S
C1280 H1269 0.950 . S
C1280 C1278 1.391 . S
C1280 C1281 1.400 . S
C1281 C1275 1.491 . S
C1281 C1280 1.400 . S
C1281 C1282 1.398 . S
C1282 H1270 0.950 . S
C1282 C1281 1.398 . S
C1282 C1283 1.391 . S
C1283 H1271 0.950 . S
C1283 C1279 1.393 . S
C1283 C1282 1.391 . S
H1284 C1292 0.950 . S
H1285 C1297 0.950 . S
H1286 C1294 0.950 . S
H1287 C1296 0.950 . S
H1288 C1298 0.950 . S
H1289 C1300 0.950 . S
H1290 C1302 0.950 . S
H1291 C1303 0.950 . S
C1292 H1284 0.950 . S
C1292 C1293 1.386 . S
C1292 C1294 1.391 . S
C1293 C1292 1.386 . S
C1293 C1297 1.393 . S
C1294 H1286 0.950 . S
C1294 C1292 1.391 . S
C1294 C1295 1.400 . S
C1295 C1294 1.400 . S
C1295 C1296 1.398 . S
C1295 C1301 1.491 . S
C1296 H1287 0.950 . S
C1296 C1295 1.398 . S
C1296 C1297 1.391 . S
C1297 H1285 0.950 . S
C1297 C1293 1.393 . S
C1297 C1296 1.391 . S
C1298 H1288 0.950 . S
C1298 C1299 1.386 . S
C1298 C1300 1.391 . S
C1299 C1298 1.386 . S
C1299 C1303 1.393 . S
C1300 H1289 0.950 . S
C1300 C1298 1.391 . S
C1300 C1301 1.400 . S
C1301 C1295 1.491 . S
C1301 C1300 1.400 . S
C1301 C1302 1.398 . S
C1302 H1290 0.950 . S
C1302 C1301 1.398 . S
C1302 C1303 1.391 . S
C1303 H1291 0.950 . S
C1303 C1299 1.393 . S
C1303 C1302 1.391 . S
H1304 C1312 0.950 . S
H1305 C1317 0.950 . S
H1306 C1314 0.950 . S
H1307 C1316 0.950 . S
H1308 C1318 0.950 . S
H1309 C1320 0.950 . S
H1310 C1322 0.950 . S
H1311 C1323 0.950 . S
C1312 H1304 0.950 . S
C1312 C1313 1.386 . S
C1312 C1314 1.391 . S
C1313 C1312 1.386 . S
C1313 C1317 1.393 . S
C1314 H1306 0.950 . S
C1314 C1312 1.391 . S
C1314 C1315 1.400 . S
C1315 C1314 1.400 . S
C1315 C1316 1.398 . S
C1315 C1321 1.491 . S
C1316 H1307 0.950 . S
C1316 C1315 1.398 . S
C1316 C1317 1.391 . S
C1317 H1305 0.950 . S
C1317 C1313 1.393 . S
C1317 C1316 1.391 . S
C1318 H1308 0.950 . S
C1318 C1319 1.386 . S
C1318 C1320 1.391 . S
C1319 C1318 1.386 . S
C1319 C1323 1.393 . S
C1320 H1309 0.950 . S
C1320 C1318 1.391 . S
C1320 C1321 1.400 . S
C1321 C1315 1.491 . S
C1321 C1320 1.400 . S
C1321 C1322 1.398 . S
C1322 H1310 0.950 . S
C1322 C1321 1.398 . S
C1322 C1323 1.391 . S
C1323 H1311 0.950 . S
C1323 C1319 1.393 . S
C1323 C1322 1.391 . S
H1324 C1332 0.950 . S
H1325 C1337 0.950 . S
H1326 C1334 0.950 . S
H1327 C1336 0.950 . S
H1328 C1338 0.950 . S
H1329 C1340 0.950 . S
H1330 C1342 0.950 . S
H1331 C1343 0.950 . S
C1332 H1324 0.950 . S
C1332 C1333 1.386 . S
C1332 C1334 1.391 . S
C1333 C1332 1.386 . S
C1333 C1337 1.393 . S
C1334 H1326 0.950 . S
C1334 C1332 1.391 . S
C1334 C1335 1.400 . S
C1335 C1334 1.400 . S
C1335 C1336 1.398 . S
C1335 C1341 1.491 . S
C1336 H1327 0.950 . S
C1336 C1335 1.398 . S
C1336 C1337 1.391 . S
C1337 H1325 0.950 . S
C1337 C1333 1.393 . S
C1337 C1336 1.391 . S
C1338 H1328 0.950 . S
C1338 C1339 1.386 . S
C1338 C1340 1.391 . S
C1339 C1338 1.386 . S
C1339 C1343 1.393 . S
C1340 H1329 0.950 . S
C1340 C1338 1.391 . S
C1340 C1341 1.400 . S
C1341 C1335 1.491 . S
C1341 C1340 1.400 . S
C1341 C1342 1.398 . S
C1342 H1330 0.950 . S
C1342 C1341 1.398 . S
C1342 C1343 1.391 . S
C1343 H1331 0.950 . S
C1343 C1339 1.393 . S
C1343 C1342 1.391 . S
H1344 C1352 0.950 . S
H1345 C1357 0.950 . S
H1346 C1354 0.950 . S
H1347 C1356 0.950 . S
H1348 C1358 0.950 . S
H1349 C1360 0.950 . S
H1350 C1362 0.950 . S
H1351 C1363 0.950 . S
C1352 H1344 0.950 . S
C1352 C1353 1.386 . S
C1352 C1354 1.391 . S
C1353 C1352 1.386 . S
C1353 C1357 1.393 . S
C1354 H1346 0.950 . S
C1354 C1352 1.391 . S
C1354 C1355 1.400 . S
C1355 C1354 1.400 . S
C1355 C1356 1.398 . S
C1355 C1361 1.491 . S
C1356 H1347 0.950 . S
C1356 C1355 1.398 . S
C1356 C1357 1.391 . S
C1357 H1345 0.950 . S
C1357 C1353 1.393 . S
C1357 C1356 1.391 . S
C1358 H1348 0.950 . S
C1358 C1359 1.386 . S
C1358 C1360 1.391 . S
C1359 C1358 1.386 . S
C1359 C1363 1.393 . S
C1360 H1349 0.950 . S
C1360 C1358 1.391 . S
C1360 C1361 1.400 . S
C1361 C1355 1.491 . S
C1361 C1360 1.400 . S
C1361 C1362 1.398 . S
C1362 H1350 0.950 . S
C1362 C1361 1.398 . S
C1362 C1363 1.391 . S
C1363 H1351 0.950 . S
C1363 C1359 1.393 . S
C1363 C1362 1.391 . S
H1364 C1372 0.950 . S
H1365 C1377 0.950 . S
H1366 C1374 0.950 . S
H1367 C1376 0.950 . S
H1368 C1378 0.950 . S
H1369 C1380 0.950 . S
H1370 C1382 0.950 . S
H1371 C1383 0.950 . S
C1372 H1364 0.950 . S
C1372 C1373 1.386 . S
C1372 C1374 1.391 . S
C1373 C1372 1.386 . S
C1373 C1377 1.393 . S
C1374 H1366 0.950 . S
C1374 C1372 1.391 . S
C1374 C1375 1.400 . S
C1375 C1374 1.400 . S
C1375 C1376 1.398 . S
C1375 C1381 1.491 . S
C1376 H1367 0.950 . S
C1376 C1375 1.398 . S
C1376 C1377 1.391 . S
C1377 H1365 0.950 . S
C1377 C1373 1.393 . S
C1377 C1376 1.391 . S
C1378 H1368 0.950 . S
C1378 C1379 1.386 . S
C1378 C1380 1.391 . S
C1379 C1378 1.386 . S
C1379 C1383 1.393 . S
C1380 H1369 0.950 . S
C1380 C1378 1.391 . S
C1380 C1381 1.400 . S
C1381 C1375 1.491 . S
C1381 C1380 1.400 . S
C1381 C1382 1.398 . S
C1382 H1370 0.950 . S
C1382 C1381 1.398 . S
C1382 C1383 1.391 . S
C1383 H1371 0.950 . S
C1383 C1379 1.393 . S
C1383 C1382 1.391 . S
H1384 C1392 0.950 . S
H1385 C1397 0.950 . S
H1386 C1394 0.950 . S
H1387 C1396 0.950 . S
H1388 C1398 0.950 . S
H1389 C1400 0.950 . S
H1390 C1402 0.950 . S
H1391 C1403 0.950 . S
C1392 H1384 0.950 . S
C1392 C1393 1.386 . S
C1392 C1394 1.391 . S
C1393 C1392 1.386 . S
C1393 C1397 1.393 . S
C1394 H1386 0.950 . S
C1394 C1392 1.391 . S
C1394 C1395 1.400 . S
C1395 C1394 1.400 . S
C1395 C1396 1.398 . S
C1395 C1401 1.491 . S
C1396 H1387 0.950 . S
C1396 C1395 1.398 . S
C1396 C1397 1.391 . S
C1397 H1385 0.950 . S
C1397 C1393 1.393 . S
C1397 C1396 1.391 . S
C1398 H1388 0.950 . S
C1398 C1399 1.386 . S
C1398 C1400 1.391 . S
C1399 C1398 1.386 . S
C1399 C1403 1.393 . S
C1400 H1389 0.950 . S
C1400 C1398 1.391 . S
C1400 C1401 1.400 . S
C1401 C1395 1.491 . S
C1401 C1400 1.400 . S
C1401 C1402 1.398 . S
C1402 H1390 0.950 . S
C1402 C1401 1.398 . S
C1402 C1403 1.391 . S
C1403 H1391 0.950 . S
C1403 C1399 1.393 . S
C1403 C1402 1.391 . S
H1404 C1412 0.950 . S
H1405 C1417 0.950 . S
H1406 C1414 0.950 . S
H1407 C1416 0.950 . S
H1408 C1418 0.950 . S
H1409 C1420 0.950 . S
H1410 C1422 0.950 . S
H1411 C1423 0.950 . S
C1412 H1404 0.950 . S
C1412 C1413 1.386 . S
C1412 C1414 1.391 . S
C1413 C1412 1.386 . S
C1413 C1417 1.393 . S
C1414 H1406 0.950 . S
C1414 C1412 1.391 . S
C1414 C1415 1.400 . S
C1415 C1414 1.400 . S
C1415 C1416 1.398 . S
C1415 C1421 1.491 . S
C1416 H1407 0.950 . S
C1416 C1415 1.398 . S
C1416 C1417 1.391 . S
C1417 H1405 0.950 . S
C1417 C1413 1.393 . S
C1417 C1416 1.391 . S
C1418 H1408 0.950 . S
C1418 C1419 1.386 . S
C1418 C1420 1.391 . S
C1419 C1418 1.386 . S
C1419 C1423 1.393 . S
C1420 H1409 0.950 . S
C1420 C1418 1.391 . S
C1420 C1421 1.400 . S
C1421 C1415 1.491 . S
C1421 C1420 1.400 . S
C1421 C1422 1.398 . S
C1422 H1410 0.950 . S
C1422 C1421 1.398 . S
C1422 C1423 1.391 . S
C1423 H1411 0.950 . S
C1423 C1419 1.393 . S
C1423 C1422 1.391 . S
H1424 C1432 0.950 . S
H1425 C1437 0.950 . S
H1426 C1434 0.950 . S
H1427 C1436 0.950 . S
H1428 C1438 0.950 . S
H1429 C1440 0.950 . S
H1430 C1442 0.950 . S
H1431 C1443 0.950 . S
C1432 H1424 0.950 . S
C1432 C1433 1.386 . S
C1432 C1434 1.391 . S
C1433 C1432 1.386 . S
C1433 C1437 1.393 . S
C1434 H1426 0.950 . S
C1434 C1432 1.391 . S
C1434 C1435 1.400 . S
C1435 C1434 1.400 . S
C1435 C1436 1.398 . S
C1435 C1441 1.491 . S
C1436 H1427 0.950 . S
C1436 C1435 1.398 . S
C1436 C1437 1.391 . S
C1437 H1425 0.950 . S
C1437 C1433 1.393 . S
C1437 C1436 1.391 . S
C1438 H1428 0.950 . S
C1438 C1439 1.386 . S
C1438 C1440 1.391 . S
C1439 C1438 1.386 . S
C1439 C1443 1.393 . S
C1440 H1429 0.950 . S
C1440 C1438 1.391 . S
C1440 C1441 1.400 . S
C1441 C1435 1.491 . S
C1441 C1440 1.400 . S
C1441 C1442 1.398 . S
C1442 H1430 0.950 . S
C1442 C1441 1.398 . S
C1442 C1443 1.391 . S
C1443 H1431 0.950 . S
C1443 C1439 1.393 . S
C1443 C1442 1.391 . S
H1444 C1452 0.950 . S
H1445 C1457 0.950 . S
H1446 C1454 0.950 . S
H1447 C1456 0.950 . S
H1448 C1458 0.950 . S
H1449 C1460 0.950 . S
H1450 C1462 0.950 . S
H1451 C1463 0.950 . S
C1452 H1444 0.950 . S
C1452 C1453 1.386 . S
C1452 C1454 1.391 . S
C1453 C1452 1.386 . S
C1453 C1457 1.393 . S
C1454 H1446 0.950 . S
C1454 C1452 1.391 . S
C1454 C1455 1.400 . S
C1455 C1454 1.400 . S
C1455 C1456 1.398 . S
C1455 C1461 1.491 . S
C1456 H1447 0.950 . S
C1456 C1455 1.398 . S
C1456 C1457 1.391 . S
C1457 H1445 0.950 . S
C1457 C1453 1.393 . S
C1457 C1456 1.391 . S
C1458 H1448 0.950 . S
C1458 C1459 1.386 . S
C1458 C1460 1.391 . S
C1459 C1458 1.386 . S
C1459 C1463 1.393 . S
C1460 H1449 0.950 . S
C1460 C1458 1.391 . S
C1460 C1461 1.400 . S
C1461 C1455 1.491 . S
C1461 C1460 1.400 . S
C1461 C1462 1.398 . S
C1462 H1450 0.950 . S
C1462 C1461 1.398 . S
C1462 C1463 1.391 . S
C1463 H1451 0.950 . S
C1463 C1459 1.393 . S
C1463 C1462 1.391 . S
H1464 C1472 0.950 . S
H1465 C1477 0.958 . S
H1466 C1474 0.950 . S
H1467 C1476 0.950 . S
H1468 C1478 0.950 . S
H1469 C1480 0.950 . S
H1470 C1482 0.950 . S
H1471 C1483 0.959 . S
C1472 H1464 0.950 . S
C1472 C1473 1.386 . S
C1472 C1474 1.391 . S
C1473 C1472 1.386 . S
C1473 C1477 1.379 1_655 S
C1474 H1466 0.950 . S
C1474 C1472 1.391 . S
C1474 C1475 1.400 . S
C1475 C1474 1.400 . S
C1475 C1476 1.398 1_655 S
C1475 C1481 1.491 1_655 S
C1476 H1467 0.950 . S
C1476 C1475 1.398 1_455 S
C1476 C1477 1.396 . S
C1477 H1465 0.958 . S
C1477 C1473 1.379 1_455 S
C1477 C1476 1.396 . S
C1478 H1468 0.950 . S
C1478 C1479 1.386 . S
C1478 C1480 1.391 . S
C1479 C1478 1.386 . S
C1479 C1483 1.379 1_455 S
C1480 H1469 0.950 . S
C1480 C1478 1.391 . S
C1480 C1481 1.400 . S
C1481 C1475 1.491 1_455 S
C1481 C1480 1.400 . S
C1481 C1482 1.398 1_455 S
C1482 H1470 0.950 . S
C1482 C1481 1.398 1_655 S
C1482 C1483 1.396 . S
C1483 H1471 0.959 . S
C1483 C1479 1.379 1_655 S
C1483 C1482 1.396 . S
H1484 C1492 0.950 . S
H1485 C1497 0.950 . S
H1486 C1494 0.950 . S
H1487 C1496 0.950 . S
H1488 C1498 0.950 . S
H1489 C1500 0.950 . S
H1490 C1502 0.950 . S
H1491 C1503 0.950 . S
C1492 H1484 0.950 . S
C1492 C1493 1.386 . S
C1492 C1494 1.391 . S
C1493 C1492 1.386 . S
C1493 C1497 1.393 . S
C1494 H1486 0.950 . S
C1494 C1492 1.391 . S
C1494 C1495 1.400 . S
C1495 C1494 1.400 . S
C1495 C1496 1.398 . S
C1495 C1501 1.491 . S
C1496 H1487 0.950 . S
C1496 C1495 1.398 . S
C1496 C1497 1.391 . S
C1497 H1485 0.950 . S
C1497 C1493 1.393 . S
C1497 C1496 1.391 . S
C1498 H1488 0.950 . S
C1498 C1499 1.386 . S
C1498 C1500 1.391 . S
C1499 C1498 1.386 . S
C1499 C1503 1.393 . S
C1500 H1489 0.950 . S
C1500 C1498 1.391 . S
C1500 C1501 1.400 . S
C1501 C1495 1.491 . S
C1501 C1500 1.400 . S
C1501 C1502 1.398 . S
C1502 H1490 0.950 . S
C1502 C1501 1.398 . S
C1502 C1503 1.391 . S
C1503 H1491 0.950 . S
C1503 C1499 1.393 . S
C1503 C1502 1.391 . S
H1504 C1512 0.950 . S
H1505 C1517 0.950 . S
H1506 C1514 0.950 1_545 S
H1507 C1516 0.950 . S
H1508 C1518 0.950 . S
H1509 C1520 0.895 1_565 S
H1510 C1522 0.950 . S
H1511 C1523 0.950 . S
C1512 H1504 0.950 . S
C1512 C1513 1.386 . S
C1512 C1514 1.391 . S
C1513 C1512 1.386 . S
C1513 C1517 1.393 . S
C1514 H1506 0.950 1_565 S
C1514 C1512 1.391 . S
C1514 C1515 1.400 . S
C1515 C1514 1.400 . S
C1515 C1516 1.398 . S
C1515 C1521 1.491 1_565 S
C1516 H1507 0.950 . S
C1516 C1515 1.398 . S
C1516 C1517 1.391 . S
C1517 H1505 0.950 . S
C1517 C1513 1.393 . S
C1517 C1516 1.391 . S
C1518 H1508 0.950 . S
C1518 C1519 1.386 . S
C1518 C1520 1.414 . S
C1519 C1518 1.386 . S
C1519 C1523 1.393 . S
C1520 H1509 0.895 1_545 S
C1520 C1518 1.414 . S
C1520 C1521 1.434 . S
C1521 C1515 1.491 1_545 S
C1521 C1520 1.434 . S
C1521 C1522 1.398 . S
C1522 H1510 0.950 . S
C1522 C1521 1.398 . S
C1522 C1523 1.391 . S
C1523 H1511 0.950 . S
C1523 C1519 1.393 . S
C1523 C1522 1.391 . S
H1524 C1532 0.950 . S
H1525 C1537 0.950 1_545 S
H1526 C1534 0.950 . S
H1527 C1536 0.950 . S
H1528 C1538 0.950 . S
H1529 C1540 0.950 . S
H1530 C1542 0.950 . S
H1531 C1543 0.950 1_565 S
C1532 H1524 0.950 . S
C1532 C1533 1.386 . S
C1532 C1534 1.391 . S
C1533 C1532 1.386 . S
C1533 C1537 1.393 . S
C1534 H1526 0.950 . S
C1534 C1532 1.391 . S
C1534 C1535 1.400 . S
C1535 C1534 1.400 . S
C1535 C1536 1.398 1_565 S
C1535 C1541 1.491 1_565 S
C1536 H1527 0.950 . S
C1536 C1535 1.398 1_545 S
C1536 C1537 1.391 1_545 S
C1537 H1525 0.950 1_565 S
C1537 C1533 1.393 . S
C1537 C1536 1.391 1_565 S
C1538 H1528 0.950 . S
C1538 C1539 1.386 . S
C1538 C1540 1.391 . S
C1539 C1538 1.386 . S
C1539 C1543 1.393 . S
C1540 H1529 0.950 . S
C1540 C1538 1.391 . S
C1540 C1541 1.400 . S
C1541 C1535 1.491 1_545 S
C1541 C1540 1.400 . S
C1541 C1542 1.398 1_545 S
C1542 H1530 0.950 . S
C1542 C1541 1.398 1_565 S
C1542 C1543 1.391 1_565 S
C1543 H1531 0.950 1_545 S
C1543 C1539 1.393 . S
C1543 C1542 1.391 1_545 S
H1544 C1552 0.950 . S
H1545 C1557 0.950 . S
H1546 C1554 0.950 . S
H1547 C1556 0.950 . S
H1548 C1558 0.950 . S
H1549 C1560 0.950 . S
H1550 C1562 0.950 . S
H1551 C1563 0.950 . S
C1552 H1544 0.950 . S
C1552 C1553 1.386 . S
C1552 C1554 1.391 . S
C1553 C1552 1.386 . S
C1553 C1557 1.393 . S
C1554 H1546 0.950 . S
C1554 C1552 1.391 . S
C1554 C1555 1.400 . S
C1555 C1554 1.400 . S
C1555 C1556 1.398 1_455 S
C1555 C1561 1.491 1_455 S
C1556 H1547 0.950 . S
C1556 C1555 1.398 1_655 S
C1556 C1557 1.391 1_655 S
C1557 H1545 0.950 . S
C1557 C1553 1.393 . S
C1557 C1556 1.391 1_455 S
C1558 H1548 0.950 . S
C1558 C1559 1.386 . S
C1558 C1560 1.391 . S
C1559 C1558 1.386 . S
C1559 C1563 1.393 . S
C1560 H1549 0.950 . S
C1560 C1558 1.391 . S
C1560 C1561 1.400 . S
C1561 C1555 1.491 1_655 S
C1561 C1560 1.400 . S
C1561 C1562 1.398 1_655 S
C1562 H1550 0.950 . S
C1562 C1561 1.398 1_455 S
C1562 C1563 1.391 1_455 S
C1563 H1551 0.950 . S
C1563 C1559 1.393 . S
C1563 C1562 1.391 1_655 S
H1564 C1572 0.950 . S
H1565 C1577 0.950 . S
H1566 C1574 0.950 . S
H1567 C1576 0.950 . S
H1568 C1578 0.950 . S
H1569 C1580 0.950 . S
H1570 C1582 0.950 . S
H1571 C1583 0.950 . S
C1572 H1564 0.950 . S
C1572 C1573 1.386 . S
C1572 C1574 1.391 . S
C1573 C1572 1.386 . S
C1573 C1577 1.393 . S
C1574 H1566 0.950 . S
C1574 C1572 1.391 . S
C1574 C1575 1.400 . S
C1575 C1574 1.400 . S
C1575 C1576 1.398 . S
C1575 C1581 1.491 . S
C1576 H1567 0.950 . S
C1576 C1575 1.398 . S
C1576 C1577 1.391 . S
C1577 H1565 0.950 . S
C1577 C1573 1.393 . S
C1577 C1576 1.391 . S
C1578 H1568 0.950 . S
C1578 C1579 1.386 . S
C1578 C1580 1.391 . S
C1579 C1578 1.386 . S
C1579 C1583 1.393 . S
C1580 H1569 0.950 . S
C1580 C1578 1.391 . S
C1580 C1581 1.400 . S
C1581 C1575 1.491 . S
C1581 C1580 1.400 . S
C1581 C1582 1.398 . S
C1582 H1570 0.950 . S
C1582 C1581 1.398 . S
C1582 C1583 1.391 . S
C1583 H1571 0.950 . S
C1583 C1579 1.393 . S
C1583 C1582 1.391 . S
H1584 C1592 0.950 . S
H1585 C1597 0.950 . S
H1586 C1594 0.950 . S
H1587 C1596 0.950 . S
H1588 C1598 0.950 . S
H1589 C1600 0.950 . S
H1590 C1602 0.950 . S
H1591 C1603 0.950 . S
C1592 H1584 0.950 . S
C1592 C1593 1.386 . S
C1592 C1594 1.391 . S
C1593 C1592 1.386 . S
C1593 C1597 1.393 . S
C1594 H1586 0.950 . S
C1594 C1592 1.391 . S
C1594 C1595 1.400 . S
C1595 C1594 1.400 . S
C1595 C1596 1.398 . S
C1595 C1601 1.491 . S
C1596 H1587 0.950 . S
C1596 C1595 1.398 . S
C1596 C1597 1.391 . S
C1597 H1585 0.950 . S
C1597 C1593 1.393 . S
C1597 C1596 1.391 . S
C1598 H1588 0.950 . S
C1598 C1599 1.386 . S
C1598 C1600 1.391 . S
C1599 C1598 1.386 . S
C1599 C1603 1.393 . S
C1600 H1589 0.950 . S
C1600 C1598 1.391 . S
C1600 C1601 1.400 . S
C1601 C1595 1.491 . S
C1601 C1600 1.400 . S
C1601 C1602 1.398 . S
C1602 H1590 0.950 . S
C1602 C1601 1.398 . S
C1602 C1603 1.391 . S
C1603 H1591 0.950 . S
C1603 C1599 1.393 . S
C1603 C1602 1.391 . S
H1604 C1612 0.950 . S
H1605 C1617 0.950 . S
H1606 C1614 0.950 . S
H1607 C1616 0.950 . S
H1608 C1618 0.950 . S
H1609 C1620 0.950 . S
H1610 C1622 0.950 . S
H1611 C1623 0.950 1_565 S
C1612 H1604 0.950 . S
C1612 C1613 1.386 . S
C1612 C1614 1.391 . S
C1613 C1612 1.386 . S
C1613 C1617 1.393 . S
C1614 H1606 0.950 . S
C1614 C1612 1.391 . S
C1614 C1615 1.400 . S
C1615 C1614 1.400 . S
C1615 C1616 1.398 . S
C1615 C1621 1.491 . S
C1616 H1607 0.950 . S
C1616 C1615 1.398 . S
C1616 C1617 1.391 . S
C1617 H1605 0.950 . S
C1617 C1613 1.393 . S
C1617 C1616 1.391 . S
C1618 H1608 0.950 . S
C1618 C1619 1.386 . S
C1618 C1620 1.391 . S
C1619 C1618 1.386 . S
C1619 C1623 1.393 . S
C1620 H1609 0.950 . S
C1620 C1618 1.391 . S
C1620 C1621 1.400 . S
C1621 C1615 1.491 . S
C1621 C1620 1.400 . S
C1621 C1622 1.398 . S
C1622 H1610 0.950 . S
C1622 C1621 1.398 . S
C1622 C1623 1.391 . S
C1623 H1611 0.950 1_545 S
C1623 C1619 1.393 . S
C1623 C1622 1.391 . S
H1624 C1632 0.950 . S
H1625 C1637 0.950 . S
H1626 C1634 0.950 . S
H1627 C1636 0.950 . S
H1628 C1638 0.950 . S
H1629 C1640 0.950 . S
H1630 C1642 0.950 . S
H1631 C1643 0.950 1_455 S
C1632 H1624 0.950 . S
C1632 C1633 1.386 . S
C1632 C1634 1.391 . S
C1633 C1632 1.386 . S
C1633 C1637 1.393 . S
C1634 H1626 0.950 . S
C1634 C1632 1.391 . S
C1634 C1635 1.400 . S
C1635 C1634 1.400 . S
C1635 C1636 1.398 . S
C1635 C1641 1.491 . S
C1636 H1627 0.950 . S
C1636 C1635 1.398 . S
C1636 C1637 1.391 . S
C1637 H1625 0.950 . S
C1637 C1633 1.393 . S
C1637 C1636 1.391 . S
C1638 H1628 0.950 . S
C1638 C1639 1.386 . S
C1638 C1640 1.391 . S
C1639 C1638 1.386 . S
C1639 C1643 1.393 . S
C1640 H1629 0.950 . S
C1640 C1638 1.391 . S
C1640 C1641 1.400 . S
C1641 C1635 1.491 . S
C1641 C1640 1.400 . S
C1641 C1642 1.398 . S
C1642 H1630 0.950 . S
C1642 C1641 1.398 . S
C1642 C1643 1.391 . S
C1643 H1631 0.950 1_655 S
C1643 C1639 1.393 . S
C1643 C1642 1.391 . S
H1644 C1652 0.950 . S
H1645 C1657 0.950 . S
H1646 C1654 0.950 . S
H1647 C1656 0.950 . S
H1648 C1658 0.950 . S
H1649 C1660 0.950 . S
H1650 C1662 0.950 . S
H1651 C1663 0.950 . S
C1652 H1644 0.950 . S
C1652 C1653 1.386 . S
C1652 C1654 1.391 . S
C1653 C1652 1.386 . S
C1653 C1657 1.393 . S
C1654 H1646 0.950 . S
C1654 C1652 1.391 . S
C1654 C1655 1.400 . S
C1655 C1654 1.400 . S
C1655 C1656 1.398 . S
C1655 C1661 1.491 . S
C1656 H1647 0.950 . S
C1656 C1655 1.398 . S
C1656 C1657 1.391 . S
C1657 H1645 0.950 . S
C1657 C1653 1.393 . S
C1657 C1656 1.391 . S
C1658 H1648 0.950 . S
C1658 C1659 1.386 . S
C1658 C1660 1.391 . S
C1659 C1658 1.386 . S
C1659 C1663 1.393 . S
C1660 H1649 0.950 . S
C1660 C1658 1.391 . S
C1660 C1661 1.400 . S
C1661 C1655 1.491 . S
C1661 C1660 1.400 . S
C1661 C1662 1.398 . S
C1662 H1650 0.950 . S
C1662 C1661 1.398 . S
C1662 C1663 1.391 . S
C1663 H1651 0.950 . S
C1663 C1659 1.393 . S
C1663 C1662 1.391 . S
H1664 C1672 0.950 . S
H1665 C1677 0.950 . S
H1666 C1674 0.950 . S
H1667 C1676 0.950 . S
H1668 C1678 0.982 . S
H1669 C1680 0.950 . S
H1670 C1682 0.950 . S
H1671 C1683 0.950 . S
C1672 H1664 0.950 . S
C1672 C1673 1.386 . S
C1672 C1674 1.391 . S
C1673 C1672 1.386 . S
C1673 C1677 1.393 . S
C1674 H1666 0.950 . S
C1674 C1672 1.391 . S
C1674 C1675 1.400 . S
C1675 C1674 1.400 . S
C1675 C1676 1.398 . S
C1675 C1681 1.491 . S
C1676 H1667 0.950 . S
C1676 C1675 1.398 . S
C1676 C1677 1.391 . S
C1677 H1665 0.950 . S
C1677 C1673 1.393 . S
C1677 C1676 1.391 . S
C1678 H1668 0.982 . S
C1678 C1679 1.390 1_545 S
C1678 C1680 1.356 1_545 S
C1679 C1678 1.390 1_565 S
C1679 C1683 1.393 . S
C1680 H1669 0.950 . S
C1680 C1678 1.356 1_565 S
C1680 C1681 1.400 . S
C1681 C1675 1.491 . S
C1681 C1680 1.400 . S
C1681 C1682 1.398 . S
C1682 H1670 0.950 . S
C1682 C1681 1.398 . S
C1682 C1683 1.391 . S
C1683 H1671 0.950 . S
C1683 C1679 1.393 . S
C1683 C1682 1.391 . S
H1684 C1692 0.950 . S
H1685 C1697 0.950 . S
H1686 C1694 0.950 . S
H1687 C1696 0.950 . S
H1688 C1698 0.950 . S
H1689 C1700 0.950 . S
H1690 C1702 0.950 . S
H1691 C1703 0.950 . S
C1692 H1684 0.950 . S
C1692 C1693 1.386 1_655 S
C1692 C1694 1.391 1_655 S
C1693 C1692 1.386 1_455 S
C1693 C1697 1.393 . S
C1694 H1686 0.950 . S
C1694 C1692 1.391 1_455 S
C1694 C1695 1.400 . S
C1695 C1694 1.400 . S
C1695 C1696 1.398 . S
C1695 C1701 1.491 . S
C1696 H1687 0.950 . S
C1696 C1695 1.398 . S
C1696 C1697 1.391 . S
C1697 H1685 0.950 . S
C1697 C1693 1.393 . S
C1697 C1696 1.391 . S
C1698 H1688 0.950 . S
C1698 C1699 1.386 . S
C1698 C1700 1.391 . S
C1699 C1698 1.386 . S
C1699 C1703 1.393 . S
C1700 H1689 0.950 . S
C1700 C1698 1.391 . S
C1700 C1701 1.400 . S
C1701 C1695 1.491 . S
C1701 C1700 1.400 . S
C1701 C1702 1.398 . S
C1702 H1690 0.950 . S
C1702 C1701 1.398 . S
C1702 C1703 1.391 . S
C1703 H1691 0.950 . S
C1703 C1699 1.393 . S
C1703 C1702 1.391 . S
H1704 C1712 0.950 . S
H1705 C1717 0.950 . S
H1706 C1714 0.950 . S
H1707 C1716 0.950 . S
H1708 C1718 0.950 . S
H1709 C1720 0.950 . S
H1710 C1722 0.950 . S
H1711 C1723 0.950 . S
C1712 H1704 0.950 . S
C1712 C1713 1.386 . S
C1712 C1714 1.391 . S
C1713 C1712 1.386 . S
C1713 C1717 1.393 . S
C1714 H1706 0.950 . S
C1714 C1712 1.391 . S
C1714 C1715 1.400 . S
C1715 C1714 1.400 . S
C1715 C1716 1.398 . S
C1715 C1721 1.491 . S
C1716 H1707 0.950 . S
C1716 C1715 1.398 . S
C1716 C1717 1.391 . S
C1717 H1705 0.950 . S
C1717 C1713 1.393 . S
C1717 C1716 1.391 . S
C1718 H1708 0.950 . S
C1718 C1719 1.386 . S
C1718 C1720 1.391 . S
C1719 C1718 1.386 . S
C1719 C1723 1.393 . S
C1720 H1709 0.950 . S
C1720 C1718 1.391 . S
C1720 C1721 1.400 . S
C1721 C1715 1.491 . S
C1721 C1720 1.400 . S
C1721 C1722 1.398 . S
C1722 H1710 0.950 . S
C1722 C1721 1.398 . S
C1722 C1723 1.391 . S
C1723 H1711 0.950 . S
C1723 C1719 1.393 . S
C1723 C1722 1.391 . S
H1724 C1732 0.950 . S
H1725 C1737 0.950 . S
H1726 C1734 0.950 . S
H1727 C1736 0.950 . S
H1728 C1738 0.950 . S
H1729 C1740 0.950 . S
H1730 C1742 0.950 . S
H1731 C1743 0.950 . S
C1732 H1724 0.950 . S
C1732 C1733 1.386 . S
C1732 C1734 1.391 . S
C1733 C1732 1.386 . S
C1733 C1737 1.393 . S
C1734 H1726 0.950 . S
C1734 C1732 1.391 . S
C1734 C1735 1.400 . S
C1735 C1734 1.400 . S
C1735 C1736 1.398 . S
C1735 C1741 1.491 . S
C1736 H1727 0.950 . S
C1736 C1735 1.398 . S
C1736 C1737 1.391 . S
C1737 H1725 0.950 . S
C1737 C1733 1.393 . S
C1737 C1736 1.391 . S
C1738 H1728 0.950 . S
C1738 C1739 1.386 . S
C1738 C1740 1.391 . S
C1739 C1738 1.386 . S
C1739 C1743 1.393 . S
C1740 H1729 0.950 . S
C1740 C1738 1.391 . S
C1740 C1741 1.400 . S
C1741 C1735 1.491 . S
C1741 C1740 1.400 . S
C1741 C1742 1.398 . S
C1742 H1730 0.950 . S
C1742 C1741 1.398 . S
C1742 C1743 1.391 . S
C1743 H1731 0.950 . S
C1743 C1739 1.393 . S
C1743 C1742 1.391 . S
H1744 C1752 0.950 . S
H1745 C1757 0.950 . S
H1746 C1754 0.950 . S
H1747 C1756 0.950 . S
H1748 C1758 0.950 . S
H1749 C1760 0.950 . S
H1750 C1762 0.950 . S
H1751 C1763 0.950 . S
C1752 H1744 0.950 . S
C1752 C1753 1.386 . S
C1752 C1754 1.391 . S
C1753 C1752 1.386 . S
C1753 C1757 1.393 . S
C1754 H1746 0.950 . S
C1754 C1752 1.391 . S
C1754 C1755 1.400 . S
C1755 C1754 1.400 . S
C1755 C1756 1.398 . S
C1755 C1761 1.491 . S
C1756 H1747 0.950 . S
C1756 C1755 1.398 . S
C1756 C1757 1.391 . S
C1757 H1745 0.950 . S
C1757 C1753 1.393 . S
C1757 C1756 1.391 . S
C1758 H1748 0.950 . S
C1758 C1759 1.386 . S
C1758 C1760 1.391 . S
C1759 C1758 1.386 . S
C1759 C1763 1.393 . S
C1760 H1749 0.950 . S
C1760 C1758 1.391 . S
C1760 C1761 1.400 . S
C1761 C1755 1.491 . S
C1761 C1760 1.400 . S
C1761 C1762 1.398 . S
C1762 H1750 0.950 . S
C1762 C1761 1.398 . S
C1762 C1763 1.391 . S
C1763 H1751 0.950 . S
C1763 C1759 1.393 . S
C1763 C1762 1.391 . S
H1764 C1772 0.950 . S
H1765 C1777 0.950 . S
H1766 C1774 0.950 . S
H1767 C1776 0.950 . S
H1768 C1778 0.950 . S
H1769 C1780 0.950 . S
H1770 C1782 0.950 . S
H1771 C1783 0.950 . S
C1772 H1764 0.950 . S
C1772 C1773 1.386 . S
C1772 C1774 1.391 . S
C1773 C1772 1.386 . S
C1773 C1777 1.393 . S
C1774 H1766 0.950 . S
C1774 C1772 1.391 . S
C1774 C1775 1.400 . S
C1775 C1774 1.400 . S
C1775 C1776 1.398 . S
C1775 C1781 1.491 . S
C1776 H1767 0.950 . S
C1776 C1775 1.398 . S
C1776 C1777 1.391 . S
C1777 H1765 0.950 . S
C1777 C1773 1.393 . S
C1777 C1776 1.391 . S
C1778 H1768 0.950 . S
C1778 C1779 1.386 . S
C1778 C1780 1.391 . S
C1779 C1778 1.386 . S
C1779 C1783 1.393 . S
C1780 H1769 0.950 . S
C1780 C1778 1.391 . S
C1780 C1781 1.400 . S
C1781 C1775 1.491 . S
C1781 C1780 1.400 . S
C1781 C1782 1.398 . S
C1782 H1770 0.950 . S
C1782 C1781 1.398 . S
C1782 C1783 1.391 . S
C1783 H1771 0.950 . S
C1783 C1779 1.393 . S
C1783 C1782 1.391 . S
H1784 C1792 0.950 . S
H1785 C1797 0.950 1_565 S
H1786 C1794 0.950 . S
H1787 C1796 0.950 . S
H1788 C1798 0.950 . S
H1789 C1800 0.950 . S
H1790 C1802 0.950 . S
H1791 C1803 0.950 . S
C1792 H1784 0.950 . S
C1792 C1793 1.386 . S
C1792 C1794 1.391 . S
C1793 C1792 1.386 . S
C1793 C1797 1.393 . S
C1794 H1786 0.950 . S
C1794 C1792 1.391 . S
C1794 C1795 1.400 . S
C1795 C1794 1.400 . S
C1795 C1796 1.398 . S
C1795 C1801 1.491 . S
C1796 H1787 0.950 . S
C1796 C1795 1.398 . S
C1796 C1797 1.391 . S
C1797 H1785 0.950 1_545 S
C1797 C1793 1.393 . S
C1797 C1796 1.391 . S
C1798 H1788 0.950 . S
C1798 C1799 1.386 . S
C1798 C1800 1.391 . S
C1799 C1798 1.386 . S
C1799 C1803 1.393 . S
C1800 H1789 0.950 . S
C1800 C1798 1.391 . S
C1800 C1801 1.400 . S
C1801 C1795 1.491 . S
C1801 C1800 1.400 . S
C1801 C1802 1.398 . S
C1802 H1790 0.950 . S
C1802 C1801 1.398 . S
C1802 C1803 1.391 . S
C1803 H1791 0.950 . S
C1803 C1799 1.393 . S
C1803 C1802 1.391 . S
H1804 C1812 0.950 . S
H1805 C1817 0.950 1_455 S
H1806 C1814 0.950 . S
H1807 C1816 0.950 . S
H1808 C1818 0.950 . S
H1809 C1820 0.950 . S
H1810 C1822 0.950 . S
H1811 C1823 0.950 . S
C1812 H1804 0.950 . S
C1812 C1813 1.386 . S
C1812 C1814 1.391 . S
C1813 C1812 1.386 . S
C1813 C1817 1.393 . S
C1814 H1806 0.950 . S
C1814 C1812 1.391 . S
C1814 C1815 1.400 . S
C1815 C1814 1.400 . S
C1815 C1816 1.398 . S
C1815 C1821 1.491 . S
C1816 H1807 0.950 . S
C1816 C1815 1.398 . S
C1816 C1817 1.391 . S
C1817 H1805 0.950 1_655 S
C1817 C1813 1.393 . S
C1817 C1816 1.391 . S
C1818 H1808 0.950 . S
C1818 C1819 1.386 . S
C1818 C1820 1.391 . S
C1819 C1818 1.386 . S
C1819 C1823 1.393 . S
C1820 H1809 0.950 . S
C1820 C1818 1.391 . S
C1820 C1821 1.400 . S
C1821 C1815 1.491 . S
C1821 C1820 1.400 . S
C1821 C1822 1.398 . S
C1822 H1810 0.950 . S
C1822 C1821 1.398 . S
C1822 C1823 1.391 . S
C1823 H1811 0.950 . S
C1823 C1819 1.393 . S
C1823 C1822 1.391 . S
H1824 C1832 0.950 . S
H1825 C1837 0.950 . S
H1826 C1834 0.950 . S
H1827 C1836 0.950 . S
H1828 C1838 0.950 . S
H1829 C1840 0.950 . S
H1830 C1842 0.950 . S
H1831 C1843 0.950 . S
C1832 H1824 0.950 . S
C1832 C1833 1.386 . S
C1832 C1834 1.391 . S
C1833 C1832 1.386 . S
C1833 C1837 1.393 . S
C1834 H1826 0.950 . S
C1834 C1832 1.391 . S
C1834 C1835 1.400 . S
C1835 C1834 1.400 . S
C1835 C1836 1.398 . S
C1835 C1841 1.491 1_655 S
C1836 H1827 0.950 . S
C1836 C1835 1.398 . S
C1836 C1837 1.391 . S
C1837 H1825 0.950 . S
C1837 C1833 1.393 . S
C1837 C1836 1.391 . S
C1838 H1828 0.950 . S
C1838 C1839 1.386 . S
C1838 C1840 1.391 . S
C1839 C1838 1.386 . S
C1839 C1843 1.393 . S
C1840 H1829 0.950 . S
C1840 C1838 1.391 . S
C1840 C1841 1.400 . S
C1841 C1835 1.491 1_455 S
C1841 C1840 1.400 . S
C1841 C1842 1.398 . S
C1842 H1830 0.950 . S
C1842 C1841 1.398 . S
C1842 C1843 1.391 . S
C1843 H1831 0.950 . S
C1843 C1839 1.393 . S
C1843 C1842 1.391 . S
H1844 C1852 0.950 . S
H1845 C1857 0.950 . S
H1846 C1854 0.950 . S
H1847 C1856 0.950 . S
H1848 C1858 0.950 . S
H1849 C1860 0.950 . S
H1850 C1862 0.950 . S
H1851 C1863 0.950 . S
C1852 H1844 0.950 . S
C1852 C1853 1.386 . S
C1852 C1854 1.391 . S
C1853 C1852 1.386 . S
C1853 C1857 1.393 . S
C1854 H1846 0.950 . S
C1854 C1852 1.391 . S
C1854 C1855 1.400 . S
C1855 C1854 1.400 . S
C1855 C1856 1.398 . S
C1855 C1861 1.491 . S
C1856 H1847 0.950 . S
C1856 C1855 1.398 . S
C1856 C1857 1.391 . S
C1857 H1845 0.950 . S
C1857 C1853 1.393 . S
C1857 C1856 1.391 . S
C1858 H1848 0.950 . S
C1858 C1859 1.386 . S
C1858 C1860 1.391 . S
C1859 C1858 1.386 . S
C1859 C1863 1.393 . S
C1860 H1849 0.950 . S
C1860 C1858 1.391 . S
C1860 C1861 1.400 . S
C1861 C1855 1.491 . S
C1861 C1860 1.400 . S
C1861 C1862 1.398 . S
C1862 H1850 0.950 . S
C1862 C1861 1.398 . S
C1862 C1863 1.391 . S
C1863 H1851 0.950 . S
C1863 C1859 1.393 . S
C1863 C1862 1.391 . S
H1864 C1872 0.950 . S
H1865 C1877 0.950 . S
H1866 C1874 0.950 . S
H1867 C1876 0.950 . S
H1868 C1878 0.950 . S
H1869 C1880 0.950 . S
H1870 C1882 0.950 . S
H1871 C1883 0.950 . S
C1872 H1864 0.950 . S
C1872 C1873 1.386 . S
C1872 C1874 1.391 . S
C1873 C1872 1.386 . S
C1873 C1877 1.393 . S
C1874 H1866 0.950 . S
C1874 C1872 1.391 . S
C1874 C1875 1.400 . S
C1875 C1874 1.400 . S
C1875 C1876 1.398 . S
C1875 C1881 1.491 1_545 S
C1876 H1867 0.950 . S
C1876 C1875 1.398 . S
C1876 C1877 1.391 . S
C1877 H1865 0.950 . S
C1877 C1873 1.393 . S
C1877 C1876 1.391 . S
C1878 H1868 0.950 . S
C1878 C1879 1.386 . S
C1878 C1880 1.391 . S
C1879 C1878 1.386 . S
C1879 C1883 1.393 . S
C1880 H1869 0.950 . S
C1880 C1878 1.391 . S
C1880 C1881 1.400 . S
C1881 C1875 1.491 1_565 S
C1881 C1880 1.400 . S
C1881 C1882 1.398 . S
C1882 H1870 0.950 . S
C1882 C1881 1.398 . S
C1882 C1883 1.391 . S
C1883 H1871 0.950 . S
C1883 C1879 1.393 . S
C1883 C1882 1.391 . S
H1884 C1892 0.950 . S
H1885 C1897 0.950 . S
H1886 C1894 0.950 . S
H1887 C1896 0.950 . S
H1888 C1898 0.950 . S
H1889 C1900 0.950 . S
H1890 C1902 0.950 . S
H1891 C1903 0.950 . S
C1892 H1884 0.950 . S
C1892 C1893 1.386 . S
C1892 C1894 1.391 . S
C1893 C1892 1.386 . S
C1893 C1897 1.393 . S
C1894 H1886 0.950 . S
C1894 C1892 1.391 . S
C1894 C1895 1.400 . S
C1895 C1894 1.400 . S
C1895 C1896 1.398 . S
C1895 C1901 1.491 1_545 S
C1896 H1887 0.950 . S
C1896 C1895 1.398 . S
C1896 C1897 1.391 . S
C1897 H1885 0.950 . S
C1897 C1893 1.393 . S
C1897 C1896 1.391 . S
C1898 H1888 0.950 . S
C1898 C1899 1.386 . S
C1898 C1900 1.391 . S
C1899 C1898 1.386 . S
C1899 C1903 1.393 . S
C1900 H1889 0.950 . S
C1900 C1898 1.391 . S
C1900 C1901 1.400 . S
C1901 C1895 1.491 1_565 S
C1901 C1900 1.400 . S
C1901 C1902 1.398 . S
C1902 H1890 0.950 . S
C1902 C1901 1.398 . S
C1902 C1903 1.391 . S
C1903 H1891 0.950 . S
C1903 C1899 1.393 . S
C1903 C1902 1.391 . S
H1904 C1912 0.950 . S
H1905 C1917 0.950 . S
H1906 C1914 0.950 . S
H1907 C1916 0.950 . S
H1908 C1918 0.950 . S
H1909 C1920 0.950 . S
H1910 C1922 0.950 . S
H1911 C1923 0.950 . S
C1912 H1904 0.950 . S
C1912 C1913 1.386 . S
C1912 C1914 1.391 . S
C1913 C1912 1.386 . S
C1913 C1917 1.393 . S
C1914 H1906 0.950 . S
C1914 C1912 1.391 . S
C1914 C1915 1.400 . S
C1915 C1914 1.400 . S
C1915 C1916 1.398 . S
C1915 C1921 1.491 1_455 S
C1916 H1907 0.950 . S
C1916 C1915 1.398 . S
C1916 C1917 1.391 . S
C1917 H1905 0.950 . S
C1917 C1913 1.393 . S
C1917 C1916 1.391 . S
C1918 H1908 0.950 . S
C1918 C1919 1.386 . S
C1918 C1920 1.391 . S
C1919 C1918 1.386 . S
C1919 C1923 1.393 . S
C1920 H1909 0.950 . S
C1920 C1918 1.391 . S
C1920 C1921 1.400 . S
C1921 C1915 1.491 1_655 S
C1921 C1920 1.400 . S
C1921 C1922 1.398 . S
C1922 H1910 0.950 . S
C1922 C1921 1.398 . S
C1922 C1923 1.391 . S
C1923 H1911 0.950 . S
C1923 C1919 1.393 . S
C1923 C1922 1.391 . S
H1924 C1932 0.950 . S
H1925 C1937 0.950 . S
H1926 C1934 0.950 . S
H1927 C1936 0.950 . S
H1928 C1938 0.950 . S
H1929 C1940 0.950 . S
H1930 C1942 0.950 . S
H1931 C1943 0.950 . S
C1932 H1924 0.950 . S
C1932 C1933 1.386 . S
C1932 C1934 1.391 . S
C1933 C1932 1.386 . S
C1933 C1937 1.393 . S
C1934 H1926 0.950 . S
C1934 C1932 1.391 . S
C1934 C1935 1.400 . S
C1935 C1934 1.400 . S
C1935 C1936 1.398 . S
C1935 C1941 1.491 . S
C1936 H1927 0.950 . S
C1936 C1935 1.398 . S
C1936 C1937 1.391 . S
C1937 H1925 0.950 . S
C1937 C1933 1.393 . S
C1937 C1936 1.391 . S
C1938 H1928 0.950 . S
C1938 C1939 1.386 . S
C1938 C1940 1.391 . S
C1939 C1938 1.386 . S
C1939 C1943 1.393 . S
C1940 H1929 0.950 . S
C1940 C1938 1.391 . S
C1940 C1941 1.400 . S
C1941 C1935 1.491 . S
C1941 C1940 1.400 . S
C1941 C1942 1.398 . S
C1942 H1930 0.950 . S
C1942 C1941 1.398 . S
C1942 C1943 1.391 . S
C1943 H1931 0.950 . S
C1943 C1939 1.393 . S
C1943 C1942 1.391 . S
H1944 C1952 0.950 . S
H1945 C1957 0.950 . S
H1946 C1954 0.950 . S
H1947 C1956 0.950 . S
H1948 C1958 0.950 . S
H1949 C1960 0.950 . S
H1950 C1962 0.950 . S
H1951 C1963 0.950 . S
C1952 H1944 0.950 . S
C1952 C1953 1.386 . S
C1952 C1954 1.391 . S
C1953 C1952 1.386 . S
C1953 C1957 1.393 . S
C1954 H1946 0.950 . S
C1954 C1952 1.391 . S
C1954 C1955 1.400 . S
C1955 C1954 1.400 . S
C1955 C1956 1.398 . S
C1955 C1961 1.491 . S
C1956 H1947 0.950 . S
C1956 C1955 1.398 . S
C1956 C1957 1.391 . S
C1957 H1945 0.950 . S
C1957 C1953 1.393 . S
C1957 C1956 1.391 . S
C1958 H1948 0.950 . S
C1958 C1959 1.386 . S
C1958 C1960 1.391 . S
C1959 C1958 1.386 . S
C1959 C1963 1.393 . S
C1960 H1949 0.950 . S
C1960 C1958 1.391 . S
C1960 C1961 1.400 . S
C1961 C1955 1.491 . S
C1961 C1960 1.400 . S
C1961 C1962 1.398 . S
C1962 H1950 0.950 . S
C1962 C1961 1.398 . S
C1962 C1963 1.391 . S
C1963 H1951 0.950 . S
C1963 C1959 1.393 . S
C1963 C1962 1.391 . S
H1964 C1972 0.950 . S
H1965 C1977 0.950 . S
H1966 C1974 0.950 . S
H1967 C1976 0.950 . S
H1968 C1978 0.950 . S
H1969 C1980 0.950 . S
H1970 C1982 0.950 . S
H1971 C1983 0.950 . S
C1972 H1964 0.950 . S
C1972 C1973 1.386 . S
C1972 C1974 1.391 . S
C1973 C1972 1.386 . S
C1973 C1977 1.393 . S
C1974 H1966 0.950 . S
C1974 C1972 1.391 . S
C1974 C1975 1.400 . S
C1975 C1974 1.400 . S
C1975 C1976 1.398 . S
C1975 C1981 1.491 . S
C1976 H1967 0.950 . S
C1976 C1975 1.398 . S
C1976 C1977 1.391 . S
C1977 H1965 0.950 . S
C1977 C1973 1.393 . S
C1977 C1976 1.391 . S
C1978 H1968 0.950 . S
C1978 C1979 1.386 . S
C1978 C1980 1.391 . S
C1979 C1978 1.386 . S
C1979 C1983 1.393 . S
C1980 H1969 0.950 . S
C1980 C1978 1.391 . S
C1980 C1981 1.400 . S
C1981 C1975 1.491 . S
C1981 C1980 1.400 . S
C1981 C1982 1.398 . S
C1982 H1970 0.950 . S
C1982 C1981 1.398 . S
C1982 C1983 1.391 . S
C1983 H1971 0.950 . S
C1983 C1979 1.393 . S
C1983 C1982 1.391 . S
H1984 C1992 0.950 . S
H1985 C1997 0.950 . S
H1986 C1994 0.950 . S
H1987 C1996 0.950 . S
H1988 C1998 0.950 . S
H1989 C2000 0.950 . S
H1990 C2002 0.950 . S
H1991 C2003 0.950 . S
C1992 H1984 0.950 . S
C1992 C1993 1.386 . S
C1992 C1994 1.391 . S
C1993 C1992 1.386 . S
C1993 C1997 1.393 . S
C1994 H1986 0.950 . S
C1994 C1992 1.391 . S
C1994 C1995 1.400 . S
C1995 C1994 1.400 . S
C1995 C1996 1.398 . S
C1995 C2001 1.491 . S
C1996 H1987 0.950 . S
C1996 C1995 1.398 . S
C1996 C1997 1.391 . S
C1997 H1985 0.950 . S
C1997 C1993 1.393 . S
C1997 C1996 1.391 . S
C1998 H1988 0.950 . S
C1998 C1999 1.386 . S
C1998 C2000 1.391 . S
C1999 C1998 1.386 . S
C1999 C2003 1.393 . S
C2000 H1989 0.950 . S
C2000 C1998 1.391 . S
C2000 C2001 1.400 . S
C2001 C1995 1.491 . S
C2001 C2000 1.400 . S
C2001 C2002 1.398 . S
C2002 H1990 0.950 . S
C2002 C2001 1.398 . S
C2002 C2003 1.391 . S
C2003 H1991 0.950 . S
C2003 C1999 1.393 . S
C2003 C2002 1.391 . S
H2004 C2012 0.950 . S
H2005 C2017 0.950 . S
H2006 C2014 0.950 . S
H2007 C2016 0.950 . S
H2008 C2018 0.950 . S
H2009 C2020 0.950 . S
H2010 C2022 0.950 . S
H2011 C2023 0.950 . S
C2012 H2004 0.950 . S
C2012 C2013 1.386 . S
C2012 C2014 1.391 . S
C2013 C2012 1.386 . S
C2013 C2017 1.393 . S
C2014 H2006 0.950 . S
C2014 C2012 1.391 . S
C2014 C2015 1.400 . S
C2015 C2014 1.400 . S
C2015 C2016 1.398 . S
C2015 C2021 1.491 . S
C2016 H2007 0.950 . S
C2016 C2015 1.398 . S
C2016 C2017 1.391 . S
C2017 H2005 0.950 . S
C2017 C2013 1.393 . S
C2017 C2016 1.391 . S
C2018 H2008 0.950 . S
C2018 C2019 1.386 . S
C2018 C2020 1.391 . S
C2019 C2018 1.386 . S
C2019 C2023 1.393 . S
C2020 H2009 0.950 . S
C2020 C2018 1.391 . S
C2020 C2021 1.400 . S
C2021 C2015 1.491 . S
C2021 C2020 1.400 . S
C2021 C2022 1.398 . S
C2022 H2010 0.950 . S
C2022 C2021 1.398 . S
C2022 C2023 1.391 . S
C2023 H2011 0.950 . S
C2023 C2019 1.393 . S
C2023 C2022 1.391 . S
H2024 C2032 0.950 . S
H2025 C2037 0.950 . S
H2026 C2034 0.950 . S
H2027 C2036 0.950 . S
H2028 C2038 0.950 . S
H2029 C2040 0.950 . S
H2030 C2042 0.950 . S
H2031 C2043 0.950 . S
C2032 H2024 0.950 . S
C2032 C2033 1.386 . S
C2032 C2034 1.391 . S
C2033 C2032 1.386 . S
C2033 C2037 1.393 . S
C2034 H2026 0.950 . S
C2034 C2032 1.391 . S
C2034 C2035 1.400 . S
C2035 C2034 1.400 . S
C2035 C2036 1.398 . S
C2035 C2041 1.491 . S
C2036 H2027 0.950 . S
C2036 C2035 1.398 . S
C2036 C2037 1.391 . S
C2037 H2025 0.950 . S
C2037 C2033 1.393 . S
C2037 C2036 1.391 . S
C2038 H2028 0.950 . S
C2038 C2039 1.386 . S
C2038 C2040 1.391 . S
C2039 C2038 1.386 . S
C2039 C2043 1.393 . S
C2040 H2029 0.950 . S
C2040 C2038 1.391 . S
C2040 C2041 1.400 . S
C2041 C2035 1.491 . S
C2041 C2040 1.400 . S
C2041 C2042 1.398 . S
C2042 H2030 0.950 . S
C2042 C2041 1.398 . S
C2042 C2043 1.391 . S
C2043 H2031 0.950 . S
C2043 C2039 1.393 . S
C2043 C2042 1.391 . S
H2044 C2052 0.950 . S
H2045 C2057 0.950 . S
H2046 C2054 0.950 . S
H2047 C2056 0.950 . S
H2048 C2058 0.950 . S
H2049 C2060 0.950 . S
H2050 C2062 0.950 . S
H2051 C2063 0.950 . S
C2052 H2044 0.950 . S
C2052 C2053 1.386 . S
C2052 C2054 1.391 . S
C2053 C2052 1.386 . S
C2053 C2057 1.393 . S
C2054 H2046 0.950 . S
C2054 C2052 1.391 . S
C2054 C2055 1.400 . S
C2055 C2054 1.400 . S
C2055 C2056 1.398 . S
C2055 C2061 1.491 . S
C2056 H2047 0.950 . S
C2056 C2055 1.398 . S
C2056 C2057 1.391 . S
C2057 H2045 0.950 . S
C2057 C2053 1.393 . S
C2057 C2056 1.391 . S
C2058 H2048 0.950 . S
C2058 C2059 1.386 . S
C2058 C2060 1.391 . S
C2059 C2058 1.386 . S
C2059 C2063 1.393 . S
C2060 H2049 0.950 . S
C2060 C2058 1.391 . S
C2060 C2061 1.400 . S
C2061 C2055 1.491 . S
C2061 C2060 1.400 . S
C2061 C2062 1.398 . S
C2062 H2050 0.950 . S
C2062 C2061 1.398 . S
C2062 C2063 1.391 . S
C2063 H2051 0.950 . S
C2063 C2059 1.393 . S
C2063 C2062 1.391 . S
H2064 C2072 0.950 . S
H2065 C2077 0.950 . S
H2066 C2074 0.950 . S
H2067 C2076 0.950 . S
H2068 C2078 0.950 . S
H2069 C2080 0.950 . S
H2070 C2082 0.950 . S
H2071 C2083 0.950 . S
C2072 H2064 0.950 . S
C2072 C2073 1.386 . S
C2072 C2074 1.391 . S
C2073 C2072 1.386 . S
C2073 C2077 1.393 . S
C2074 H2066 0.950 . S
C2074 C2072 1.391 . S
C2074 C2075 1.400 . S
C2075 C2074 1.400 . S
C2075 C2076 1.398 . S
C2075 C2081 1.491 . S
C2076 H2067 0.950 . S
C2076 C2075 1.398 . S
C2076 C2077 1.391 . S
C2077 H2065 0.950 . S
C2077 C2073 1.393 . S
C2077 C2076 1.391 . S
C2078 H2068 0.950 . S
C2078 C2079 1.386 . S
C2078 C2080 1.391 . S
C2079 C2078 1.386 . S
C2079 C2083 1.393 . S
C2080 H2069 0.950 . S
C2080 C2078 1.391 . S
C2080 C2081 1.400 . S
C2081 C2075 1.491 . S
C2081 C2080 1.400 . S
C2081 C2082 1.398 . S
C2082 H2070 0.950 . S
C2082 C2081 1.398 . S
C2082 C2083 1.391 . S
C2083 H2071 0.950 . S
C2083 C2079 1.393 . S
C2083 C2082 1.391 . S
H2084 C2092 0.950 . S
H2085 C2097 0.950 . S
H2086 C2094 0.950 . S
H2087 C2096 0.950 . S
H2088 C2098 0.950 . S
H2089 C2100 0.950 . S
H2090 C2102 0.950 . S
H2091 C2103 0.950 . S
C2092 H2084 0.950 . S
C2092 C2093 1.386 . S
C2092 C2094 1.391 . S
C2093 C2092 1.386 . S
C2093 C2097 1.393 . S
C2094 H2086 0.950 . S
C2094 C2092 1.391 . S
C2094 C2095 1.400 . S
C2095 C2094 1.400 . S
C2095 C2096 1.398 . S
C2095 C2101 1.491 . S
C2096 H2087 0.950 . S
C2096 C2095 1.398 . S
C2096 C2097 1.391 . S
C2097 H2085 0.950 . S
C2097 C2093 1.393 . S
C2097 C2096 1.391 . S
C2098 H2088 0.950 . S
C2098 C2099 1.386 . S
C2098 C2100 1.391 . S
C2099 C2098 1.386 . S
C2099 C2103 1.393 . S
C2100 H2089 0.950 . S
C2100 C2098 1.391 . S
C2100 C2101 1.400 . S
C2101 C2095 1.491 . S
C2101 C2100 1.400 . S
C2101 C2102 1.398 . S
C2102 H2090 0.950 . S
C2102 C2101 1.398 . S
C2102 C2103 1.391 . S
C2103 H2091 0.950 . S
C2103 C2099 1.393 . S
C2103 C2102 1.391 . S
H2104 C2112 0.950 . S
H2105 C2117 0.950 . S
H2106 C2114 0.950 . S
H2107 C2116 0.950 . S
H2108 C2118 0.950 . S
H2109 C2120 0.950 . S
H2110 C2122 0.950 . S
H2111 C2123 0.950 . S
C2112 H2104 0.950 . S
C2112 C2113 1.386 . S
C2112 C2114 1.391 . S
C2113 C2112 1.386 . S
C2113 C2117 1.393 . S
C2114 H2106 0.950 . S
C2114 C2112 1.391 . S
C2114 C2115 1.400 . S
C2115 C2114 1.400 . S
C2115 C2116 1.398 . S
C2115 C2121 1.491 . S
C2116 H2107 0.950 . S
C2116 C2115 1.398 . S
C2116 C2117 1.391 . S
C2117 H2105 0.950 . S
C2117 C2113 1.393 . S
C2117 C2116 1.391 . S
C2118 H2108 0.950 . S
C2118 C2119 1.386 . S
C2118 C2120 1.391 . S
C2119 C2118 1.386 . S
C2119 C2123 1.393 . S
C2120 H2109 0.950 . S
C2120 C2118 1.391 . S
C2120 C2121 1.400 . S
C2121 C2115 1.491 . S
C2121 C2120 1.400 . S
C2121 C2122 1.398 . S
C2122 H2110 0.950 . S
C2122 C2121 1.398 . S
C2122 C2123 1.391 . S
C2123 H2111 0.950 . S
C2123 C2119 1.393 . S
C2123 C2122 1.391 . S
H2124 C2132 0.950 . S
H2125 C2137 0.950 . S
H2126 C2134 0.950 . S
H2127 C2136 0.950 . S
H2128 C2138 0.950 . S
H2129 C2140 0.950 . S
H2130 C2142 0.950 . S
H2131 C2143 0.950 . S
C2132 H2124 0.950 . S
C2132 C2133 1.386 . S
C2132 C2134 1.391 . S
C2133 C2132 1.386 . S
C2133 C2137 1.393 . S
C2134 H2126 0.950 . S
C2134 C2132 1.391 . S
C2134 C2135 1.400 . S
C2135 C2134 1.400 . S
C2135 C2136 1.398 . S
C2135 C2141 1.491 . S
C2136 H2127 0.950 . S
C2136 C2135 1.398 . S
C2136 C2137 1.391 . S
C2137 H2125 0.950 . S
C2137 C2133 1.393 . S
C2137 C2136 1.391 . S
C2138 H2128 0.950 . S
C2138 C2139 1.386 . S
C2138 C2140 1.391 . S
C2139 C2138 1.386 . S
C2139 C2143 1.393 . S
C2140 H2129 0.950 . S
C2140 C2138 1.391 . S
C2140 C2141 1.400 . S
C2141 C2135 1.491 . S
C2141 C2140 1.400 . S
C2141 C2142 1.398 . S
C2142 H2130 0.950 . S
C2142 C2141 1.398 . S
C2142 C2143 1.391 . S
C2143 H2131 0.950 . S
C2143 C2139 1.393 . S
C2143 C2142 1.391 . S
H2144 C2152 0.950 . S
H2145 C2157 0.950 . S
H2146 C2154 0.950 . S
H2147 C2156 0.950 . S
H2148 C2158 0.950 . S
H2149 C2160 0.950 . S
H2150 C2162 0.950 . S
H2151 C2163 0.950 . S
C2152 H2144 0.950 . S
C2152 C2153 1.386 . S
C2152 C2154 1.391 . S
C2153 C2152 1.386 . S
C2153 C2157 1.393 . S
C2154 H2146 0.950 . S
C2154 C2152 1.391 . S
C2154 C2155 1.400 . S
C2155 C2154 1.400 . S
C2155 C2156 1.398 . S
C2155 C2161 1.491 . S
C2156 H2147 0.950 . S
C2156 C2155 1.398 . S
C2156 C2157 1.391 . S
C2157 H2145 0.950 . S
C2157 C2153 1.393 . S
C2157 C2156 1.391 . S
C2158 H2148 0.950 . S
C2158 C2159 1.386 . S
C2158 C2160 1.391 . S
C2159 C2158 1.386 . S
C2159 C2163 1.393 . S
C2160 H2149 0.950 . S
C2160 C2158 1.391 . S
C2160 C2161 1.400 . S
C2161 C2155 1.491 . S
C2161 C2160 1.400 . S
C2161 C2162 1.398 . S
C2162 H2150 0.950 . S
C2162 C2161 1.398 . S
C2162 C2163 1.391 . S
C2163 H2151 0.950 . S
C2163 C2159 1.393 . S
C2163 C2162 1.391 . S
H2164 C2172 0.950 . S
H2165 C2177 0.950 . S
H2166 C2174 0.950 . S
H2167 C2176 0.950 . S
H2168 C2178 0.950 . S
H2169 C2180 0.950 . S
H2170 C2182 0.950 . S
H2171 C2183 0.950 . S
C2172 H2164 0.950 . S
C2172 C2173 1.386 . S
C2172 C2174 1.391 . S
C2173 C2172 1.386 . S
C2173 C2177 1.393 . S
C2174 H2166 0.950 . S
C2174 C2172 1.391 . S
C2174 C2175 1.400 . S
C2175 C2174 1.400 . S
C2175 C2176 1.398 . S
C2175 C2181 1.491 . S
C2176 H2167 0.950 . S
C2176 C2175 1.398 . S
C2176 C2177 1.391 . S
C2177 H2165 0.950 . S
C2177 C2173 1.393 . S
C2177 C2176 1.391 . S
C2178 H2168 0.950 . S
C2178 C2179 1.386 . S
C2178 C2180 1.391 . S
C2179 C2178 1.386 . S
C2179 C2183 1.393 . S
C2180 H2169 0.950 . S
C2180 C2178 1.391 . S
C2180 C2181 1.400 . S
C2181 C2175 1.491 . S
C2181 C2180 1.400 . S
C2181 C2182 1.398 . S
C2182 H2170 0.950 . S
C2182 C2181 1.398 . S
C2182 C2183 1.391 . S
C2183 H2171 0.950 . S
C2183 C2179 1.393 . S
C2183 C2182 1.391 . S
H2184 C2192 0.950 . S
H2185 C2197 0.950 . S
H2186 C2194 0.950 1_655 S
H2187 C2196 0.950 . S
H2188 C2198 0.950 . S
H2189 C2200 0.950 1_455 S
H2190 C2202 0.950 . S
H2191 C2203 0.950 . S
C2192 H2184 0.950 . S
C2192 C2193 1.386 . S
C2192 C2194 1.391 . S
C2193 C2192 1.386 . S
C2193 C2197 1.393 . S
C2194 H2186 0.950 1_455 S
C2194 C2192 1.391 . S
C2194 C2195 1.400 . S
C2195 C2194 1.400 . S
C2195 C2196 1.398 . S
C2195 C2201 1.491 1_455 S
C2196 H2187 0.950 . S
C2196 C2195 1.398 . S
C2196 C2197 1.391 . S
C2197 H2185 0.950 . S
C2197 C2193 1.393 . S
C2197 C2196 1.391 . S
C2198 H2188 0.950 . S
C2198 C2199 1.386 . S
C2198 C2200 1.391 . S
C2199 C2198 1.386 . S
C2199 C2203 1.393 . S
C2200 H2189 0.950 1_655 S
C2200 C2198 1.391 . S
C2200 C2201 1.400 . S
C2201 C2195 1.491 1_655 S
C2201 C2200 1.400 . S
C2201 C2202 1.398 . S
C2202 H2190 0.950 . S
C2202 C2201 1.398 . S
C2202 C2203 1.391 . S
C2203 H2191 0.950 . S
C2203 C2199 1.393 . S
C2203 C2202 1.391 . S
H2204 C2212 0.950 . S
H2205 C2217 0.950 . S
H2206 C2214 0.950 . S
H2207 C2216 0.950 . S
H2208 C2218 0.950 . S
H2209 C2220 0.950 . S
H2210 C2222 0.950 . S
H2211 C2223 0.950 . S
C2212 H2204 0.950 . S
C2212 C2213 1.386 . S
C2212 C2214 1.391 . S
C2213 C2212 1.386 . S
C2213 C2217 1.393 . S
C2214 H2206 0.950 . S
C2214 C2212 1.391 . S
C2214 C2215 1.400 . S
C2215 C2214 1.400 . S
C2215 C2216 1.398 . S
C2215 C2221 1.491 . S
C2216 H2207 0.950 . S
C2216 C2215 1.398 . S
C2216 C2217 1.391 . S
C2217 H2205 0.950 . S
C2217 C2213 1.393 . S
C2217 C2216 1.391 . S
C2218 H2208 0.950 . S
C2218 C2219 1.386 . S
C2218 C2220 1.391 . S
C2219 C2218 1.386 . S
C2219 C2223 1.393 . S
C2220 H2209 0.950 . S
C2220 C2218 1.391 . S
C2220 C2221 1.400 . S
C2221 C2215 1.491 . S
C2221 C2220 1.400 . S
C2221 C2222 1.398 . S
C2222 H2210 0.950 . S
C2222 C2221 1.398 . S
C2222 C2223 1.391 . S
C2223 H2211 0.950 . S
C2223 C2219 1.393 . S
C2223 C2222 1.391 . S
H2224 C2232 0.950 . S
H2225 C2237 0.950 . S
H2226 C2234 0.950 . S
H2227 C2236 0.950 . S
H2228 C2238 0.950 . S
H2229 C2240 0.950 . S
H2230 C2242 0.950 . S
H2231 C2243 0.950 . S
C2232 H2224 0.950 . S
C2232 C2233 1.386 . S
C2232 C2234 1.391 . S
C2233 C2232 1.386 . S
C2233 C2237 1.393 . S
C2234 H2226 0.950 . S
C2234 C2232 1.391 . S
C2234 C2235 1.400 . S
C2235 C2234 1.400 . S
C2235 C2236 1.398 1_545 S
C2235 C2241 1.491 1_545 S
C2236 H2227 0.950 . S
C2236 C2235 1.398 1_565 S
C2236 C2237 1.391 1_565 S
C2237 H2225 0.950 . S
C2237 C2233 1.393 . S
C2237 C2236 1.391 1_545 S
C2238 H2228 0.950 . S
C2238 C2239 1.386 . S
C2238 C2240 1.391 . S
C2239 C2238 1.386 . S
C2239 C2243 1.393 . S
C2240 H2229 0.950 . S
C2240 C2238 1.391 . S
C2240 C2241 1.400 . S
C2241 C2235 1.491 1_565 S
C2241 C2240 1.400 . S
C2241 C2242 1.398 1_565 S
C2242 H2230 0.950 . S
C2242 C2241 1.398 1_545 S
C2242 C2243 1.391 1_545 S
C2243 H2231 0.950 . S
C2243 C2239 1.393 . S
C2243 C2242 1.391 1_565 S
H2244 C2252 0.947 1_545 S
H2245 C2257 0.950 . S
H2246 C2254 0.950 . S
H2247 C2256 0.950 . S
H2248 C2258 0.947 1_565 S
H2249 C2260 0.950 . S
H2250 C2262 0.950 . S
H2251 C2263 0.950 . S
C2252 H2244 0.947 1_565 S
C2252 C2253 1.386 . S
C2252 C2254 1.391 1_565 S
C2253 C2252 1.386 . S
C2253 C2257 1.393 . S
C2254 H2246 0.950 . S
C2254 C2252 1.391 1_545 S
C2254 C2255 1.400 1_545 S
C2255 C2254 1.400 1_565 S
C2255 C2256 1.398 . S
C2255 C2261 1.491 1_564 S
C2256 H2247 0.950 . S
C2256 C2255 1.398 . S
C2256 C2257 1.391 . S
C2257 H2245 0.950 . S
C2257 C2253 1.393 . S
C2257 C2256 1.391 . S
C2258 H2248 0.947 1_545 S
C2258 C2259 1.386 . S
C2258 C2260 1.391 1_545 S
C2259 C2258 1.386 . S
C2259 C2263 1.393 . S
C2260 H2249 0.950 . S
C2260 C2258 1.391 1_565 S
C2260 C2261 1.400 1_565 S
C2261 C2255 1.491 1_546 S
C2261 C2260 1.400 1_545 S
C2261 C2262 1.398 . S
C2262 H2250 0.950 . S
C2262 C2261 1.398 . S
C2262 C2263 1.391 . S
C2263 H2251 0.950 . S
C2263 C2259 1.393 . S
C2263 C2262 1.391 . S
H2264 C2272 0.950 . S
H2265 C2277 0.950 . S
H2266 C2274 0.958 . S
H2267 C2276 0.950 . S
H2268 C2278 0.950 . S
H2269 C2280 0.958 . S
H2270 C2282 0.950 . S
H2271 C2283 0.950 . S
C2272 H2264 0.950 . S
C2272 C2273 1.386 . S
C2272 C2274 1.389 1_655 S
C2273 C2272 1.386 . S
C2273 C2277 1.393 . S
C2274 H2266 0.958 . S
C2274 C2272 1.389 1_455 S
C2274 C2275 1.394 1_455 S
C2275 C2274 1.394 1_655 S
C2275 C2276 1.398 . S
C2275 C2281 1.491 1_656 S
C2276 H2267 0.950 . S
C2276 C2275 1.398 . S
C2276 C2277 1.391 . S
C2277 H2265 0.950 . S
C2277 C2273 1.393 . S
C2277 C2276 1.391 . S
C2278 H2268 0.950 . S
C2278 C2279 1.386 . S
C2278 C2280 1.389 1_455 S
C2279 C2278 1.386 . S
C2279 C2283 1.393 . S
C2280 H2269 0.958 . S
C2280 C2278 1.389 1_655 S
C2280 C2281 1.394 1_655 S
C2281 C2275 1.491 1_454 S
C2281 C2280 1.394 1_455 S
C2281 C2282 1.398 . S
C2282 H2270 0.950 . S
C2282 C2281 1.398 . S
C2282 C2283 1.391 . S
C2283 H2271 0.950 . S
C2283 C2279 1.393 . S
C2283 C2282 1.391 . S
H2284 C2292 0.950 . S
H2285 C2297 0.950 . S
H2286 C2294 0.950 . S
H2287 C2296 0.950 1_556 S
H2288 C2298 0.950 . S
H2289 C2300 0.950 . S
H2290 C2302 0.950 1_554 S
H2291 C2303 0.950 . S
C2292 H2284 0.950 . S
C2292 C2293 1.386 . S
C2292 C2294 1.391 . S
C2293 C2292 1.386 . S
C2293 C2297 1.393 . S
C2294 H2286 0.950 . S
C2294 C2292 1.391 . S
C2294 C2295 1.400 . S
C2295 C2294 1.400 . S
C2295 C2296 1.398 . S
C2295 C2301 1.491 1_554 S
C2296 H2287 0.950 1_554 S
C2296 C2295 1.398 . S
C2296 C2297 1.391 . S
C2297 H2285 0.950 . S
C2297 C2293 1.393 . S
C2297 C2296 1.391 . S
C2298 H2288 0.950 . S
C2298 C2299 1.386 . S
C2298 C2300 1.391 . S
C2299 C2298 1.386 . S
C2299 C2303 1.393 . S
C2300 H2289 0.950 . S
C2300 C2298 1.391 . S
C2300 C2301 1.400 . S
C2301 C2295 1.491 1_556 S
C2301 C2300 1.400 . S
C2301 C2302 1.398 . S
C2302 H2290 0.950 1_556 S
C2302 C2301 1.398 . S
C2302 C2303 1.391 . S
C2303 H2291 0.950 . S
C2303 C2299 1.393 . S
C2303 C2302 1.391 . S
H2304 C2312 0.950 . S
H2305 C2317 0.950 . S
H2306 C2314 0.950 . S
H2307 C2316 0.950 . S
H2308 C2318 0.950 . S
H2309 C2320 0.950 . S
H2310 C2322 0.983 . S
H2311 C2323 0.949 1_554 S
C2312 H2304 0.950 . S
C2312 C2313 1.386 . S
C2312 C2314 1.391 . S
C2313 C2312 1.386 . S
C2313 C2317 1.393 1_554 S
C2314 H2306 0.950 . S
C2314 C2312 1.391 . S
C2314 C2315 1.400 1_554 S
C2315 C2314 1.400 1_556 S
C2315 C2316 1.398 . S
C2315 C2321 1.491 . S
C2316 H2307 0.950 . S
C2316 C2315 1.398 . S
C2316 C2317 1.391 . S
C2317 H2305 0.950 . S
C2317 C2313 1.393 1_556 S
C2317 C2316 1.391 . S
C2318 H2308 0.950 . S
C2318 C2319 1.386 . S
C2318 C2320 1.391 1_565 S
C2319 C2318 1.386 . S
C2319 C2323 1.393 . S
C2320 H2309 0.950 . S
C2320 C2318 1.391 1_545 S
C2320 C2321 1.400 . S
C2321 C2315 1.491 . S
C2321 C2320 1.400 . S
C2321 C2322 1.381 1_546 S
C2322 H2310 0.983 . S
C2322 C2321 1.381 1_564 S
C2322 C2323 1.378 1_554 S
C2323 H2311 0.949 1_556 S
C2323 C2319 1.393 . S
C2323 C2322 1.378 1_556 S
H2324 C2332 0.950 . S
H2325 C2337 0.950 . S
H2326 C2334 0.950 . S
H2327 C2336 0.950 . S
H2328 C2338 0.950 . S
H2329 C2340 0.950 . S
H2330 C2342 0.968 . S
H2331 C2343 0.958 . S
C2332 H2324 0.950 . S
C2332 C2333 1.386 . S
C2332 C2334 1.391 . S
C2333 C2332 1.386 . S
C2333 C2337 1.393 1_554 S
C2334 H2326 0.950 . S
C2334 C2332 1.391 . S
C2334 C2335 1.400 1_554 S
C2335 C2334 1.400 1_556 S
C2335 C2336 1.398 . S
C2335 C2341 1.491 . S
C2336 H2327 0.950 . S
C2336 C2335 1.398 . S
C2336 C2337 1.391 . S
C2337 H2325 0.950 . S
C2337 C2333 1.393 1_556 S
C2337 C2336 1.391 . S
C2338 H2328 0.950 . S
C2338 C2339 1.386 . S
C2338 C2340 1.391 1_455 S
C2339 C2338 1.386 . S
C2339 C2343 1.393 . S
C2340 H2329 0.950 . S
C2340 C2338 1.391 1_655 S
C2340 C2341 1.400 . S
C2341 C2335 1.491 . S
C2341 C2340 1.400 . S
C2341 C2342 1.389 1_656 S
C2342 H2330 0.968 . S
C2342 C2341 1.389 1_454 S
C2342 C2343 1.383 1_554 S
C2343 H2331 0.958 . S
C2343 C2339 1.393 . S
C2343 C2342 1.383 1_556 S
H2344 C2352 0.950 1_554 S
H2345 C2357 0.950 . S
H2346 C2354 0.950 . S
H2347 C2356 0.950 . S
H2348 C2358 0.950 . S
H2349 C2360 0.950 . S
H2350 C2362 0.950 . S
H2351 C2363 0.950 . S
C2352 H2344 0.950 1_556 S
C2352 C2353 1.386 . S
C2352 C2354 1.391 1_556 S
C2353 C2352 1.386 . S
C2353 C2357 1.393 . S
C2354 H2346 0.950 . S
C2354 C2352 1.391 1_554 S
C2354 C2355 1.400 1_554 S
C2355 C2354 1.400 1_556 S
C2355 C2356 1.398 . S
C2355 C2361 1.491 . S
C2356 H2347 0.950 . S
C2356 C2355 1.398 . S
C2356 C2357 1.391 . S
C2357 H2345 0.950 . S
C2357 C2353 1.393 . S
C2357 C2356 1.391 . S
C2358 H2348 0.950 . S
C2358 C2359 1.386 1_556 S
C2358 C2360 1.391 . S
C2359 C2358 1.386 1_554 S
C2359 C2363 1.393 . S
C2360 H2349 0.950 . S
C2360 C2358 1.391 . S
C2360 C2361 1.400 . S
C2361 C2355 1.491 . S
C2361 C2360 1.400 . S
C2361 C2362 1.398 1_556 S
C2362 H2350 0.950 . S
C2362 C2361 1.398 1_554 S
C2362 C2363 1.391 . S
C2363 H2351 0.950 . S
C2363 C2359 1.393 . S
C2363 C2362 1.391 . S
H2364 C2372 0.950 . S
H2365 C2377 0.950 . S
H2366 C2374 0.950 . S
H2367 C2376 0.919 1_455 S
H2368 C2378 0.950 . S
H2369 C2380 0.950 . S
H2370 C2382 0.950 . S
H2371 C2383 0.950 . S
C2372 H2364 0.950 . S
C2372 C2373 1.386 . S
C2372 C2374 1.391 1_655 S
C2373 C2372 1.386 . S
C2373 C2377 1.393 . S
C2374 H2366 0.950 . S
C2374 C2372 1.391 1_455 S
C2374 C2375 1.400 . S
C2375 C2374 1.400 . S
C2375 C2376 1.398 1_455 S
C2375 C2381 1.491 . S
C2376 H2367 0.919 1_655 S
C2376 C2375 1.398 1_655 S
C2376 C2377 1.391 . S
C2377 H2365 0.950 . S
C2377 C2373 1.393 . S
C2377 C2376 1.391 . S
C2378 H2368 0.950 . S
C2378 C2379 1.386 . S
C2378 C2380 1.391 . S
C2379 C2378 1.386 . S
C2379 C2383 1.393 . S
C2380 H2369 0.950 . S
C2380 C2378 1.391 . S
C2380 C2381 1.400 . S
C2381 C2375 1.491 . S
C2381 C2380 1.400 . S
C2381 C2382 1.398 . S
C2382 H2370 0.950 . S
C2382 C2381 1.398 . S
C2382 C2383 1.391 . S
C2383 H2371 0.950 . S
C2383 C2379 1.393 . S
C2383 C2382 1.391 . S
H2384 C2392 0.950 . S
H2385 C2397 0.950 . S
H2386 C2394 0.950 . S
H2387 C2396 0.950 . S
H2388 C2398 0.950 . S
H2389 C2400 0.950 . S
H2390 C2402 0.950 . S
H2391 C2403 0.950 . S
C2392 H2384 0.950 . S
C2392 C2393 1.386 . S
C2392 C2394 1.391 . S
C2393 C2392 1.386 . S
C2393 C2397 1.393 . S
C2394 H2386 0.950 . S
C2394 C2392 1.391 . S
C2394 C2395 1.400 . S
C2395 C2394 1.400 . S
C2395 C2396 1.398 . S
C2395 C2401 1.491 . S
C2396 H2387 0.950 . S
C2396 C2395 1.398 . S
C2396 C2397 1.391 . S
C2397 H2385 0.950 . S
C2397 C2393 1.393 . S
C2397 C2396 1.391 . S
C2398 H2388 0.950 . S
C2398 C2399 1.386 . S
C2398 C2400 1.391 . S
C2399 C2398 1.386 . S
C2399 C2403 1.393 . S
C2400 H2389 0.950 . S
C2400 C2398 1.391 . S
C2400 C2401 1.400 . S
C2401 C2395 1.491 . S
C2401 C2400 1.400 . S
C2401 C2402 1.398 . S
C2402 H2390 0.950 . S
C2402 C2401 1.398 . S
C2402 C2403 1.391 . S
C2403 H2391 0.950 . S
C2403 C2399 1.393 . S
C2403 C2402 1.391 . S
H2404 C2412 0.950 . S
H2405 C2417 0.950 . S
H2406 C2414 0.950 1_565 S
H2407 C2416 0.950 1_565 S
H2408 C2418 0.950 . S
H2409 C2420 0.950 . S
H2410 C2422 0.950 . S
H2411 C2423 0.950 . S
C2412 H2404 0.950 . S
C2412 C2413 1.386 . S
C2412 C2414 1.391 . S
C2413 C2412 1.386 . S
C2413 C2417 1.393 . S
C2414 H2406 0.950 1_545 S
C2414 C2412 1.391 . S
C2414 C2415 1.400 1_545 S
C2415 C2414 1.400 1_565 S
C2415 C2416 1.398 1_565 S
C2415 C2421 1.491 . S
C2416 H2407 0.950 1_545 S
C2416 C2415 1.398 1_545 S
C2416 C2417 1.391 . S
C2417 H2405 0.950 . S
C2417 C2413 1.393 . S
C2417 C2416 1.391 . S
C2418 H2408 0.950 . S
C2418 C2419 1.386 . S
C2418 C2420 1.391 . S
C2419 C2418 1.386 . S
C2419 C2423 1.393 . S
C2420 H2409 0.950 . S
C2420 C2418 1.391 . S
C2420 C2421 1.400 . S
C2421 C2415 1.491 . S
C2421 C2420 1.400 . S
C2421 C2422 1.398 . S
C2422 H2410 0.950 . S
C2422 C2421 1.398 . S
C2422 C2423 1.391 . S
C2423 H2411 0.950 . S
C2423 C2419 1.393 . S
C2423 C2422 1.391 . S
H2424 C2432 0.950 . S
H2425 C2437 0.947 . S
H2426 C2434 0.950 . S
H2427 C2436 0.950 . S
H2428 C2438 0.950 . S
H2429 C2440 0.950 . S
H2430 C2442 0.950 . S
H2431 C2443 0.950 . S
C2432 H2424 0.950 . S
C2432 C2433 1.386 . S
C2432 C2434 1.391 1_545 S
C2433 C2432 1.386 . S
C2433 C2437 1.396 1_554 S
C2434 H2426 0.950 . S
C2434 C2432 1.391 1_565 S
C2434 C2435 1.400 . S
C2435 C2434 1.400 . S
C2435 C2436 1.398 1_564 S
C2435 C2441 1.491 . S
C2436 H2427 0.950 . S
C2436 C2435 1.398 1_546 S
C2436 C2437 1.390 . S
C2437 H2425 0.947 . S
C2437 C2433 1.396 1_556 S
C2437 C2436 1.390 . S
C2438 H2428 0.950 . S
C2438 C2439 1.386 . S
C2438 C2440 1.391 . S
C2439 C2438 1.386 . S
C2439 C2443 1.393 1_556 S
C2440 H2429 0.950 . S
C2440 C2438 1.391 . S
C2440 C2441 1.400 1_556 S
C2441 C2435 1.491 . S
C2441 C2440 1.400 1_554 S
C2441 C2442 1.398 . S
C2442 H2430 0.950 . S
C2442 C2441 1.398 . S
C2442 C2443 1.391 . S
C2443 H2431 0.950 . S
C2443 C2439 1.393 1_554 S
C2443 C2442 1.391 . S
H2444 C2452 0.950 . S
H2445 C2457 0.950 . S
H2446 C2454 0.950 1_455 S
H2447 C2456 0.989 . S
H2448 C2458 0.950 . S
H2449 C2460 0.958 . S
H2450 C2462 0.950 . S
H2451 C2463 0.950 . S
C2452 H2444 0.950 . S
C2452 C2453 1.386 . S
C2452 C2454 1.391 . S
C2453 C2452 1.386 . S
C2453 C2457 1.393 . S
C2454 H2446 0.950 1_655 S
C2454 C2452 1.391 . S
C2454 C2455 1.400 1_655 S
C2455 C2454 1.400 1_455 S
C2455 C2456 1.394 . S
C2455 C2461 1.491 . S
C2456 H2447 0.989 . S
C2456 C2455 1.394 . S
C2456 C2457 1.358 1_455 S
C2457 H2445 0.950 . S
C2457 C2453 1.393 . S
C2457 C2456 1.358 1_655 S
C2458 H2448 0.950 . S
C2458 C2459 1.386 . S
C2458 C2460 1.391 . S
C2459 C2458 1.386 . S
C2459 C2463 1.393 . S
C2460 H2449 0.958 . S
C2460 C2458 1.391 . S
C2460 C2461 1.400 1_556 S
C2461 C2455 1.491 . S
C2461 C2460 1.400 1_554 S
C2461 C2462 1.398 1_554 S
C2462 H2450 0.950 . S
C2462 C2461 1.398 1_556 S
C2462 C2463 1.391 . S
C2463 H2451 0.950 . S
C2463 C2459 1.393 . S
C2463 C2462 1.391 . S
H2464 C2472 0.950 . S
H2465 C2477 0.950 . S
H2466 C2474 0.950 . S
H2467 C2476 0.950 1_556 S
H2468 C2478 0.950 . S
H2469 C2480 0.950 . S
H2470 C2482 0.950 . S
H2471 C2483 0.950 . S
C2472 H2464 0.950 . S
C2472 C2473 1.386 . S
C2472 C2474 1.391 . S
C2473 C2472 1.386 . S
C2473 C2477 1.393 . S
C2474 H2466 0.950 . S
C2474 C2472 1.391 . S
C2474 C2475 1.400 . S
C2475 C2474 1.400 . S
C2475 C2476 1.398 . S
C2475 C2481 1.491 . S
C2476 H2467 0.950 1_554 S
C2476 C2475 1.398 . S
C2476 C2477 1.391 . S
C2477 H2465 0.950 . S
C2477 C2473 1.393 . S
C2477 C2476 1.391 . S
C2478 H2468 0.950 . S
C2478 C2479 1.386 . S
C2478 C2480 1.391 . S
C2479 C2478 1.386 . S
C2479 C2483 1.393 1_556 S
C2480 H2469 0.950 . S
C2480 C2478 1.391 . S
C2480 C2481 1.400 1_556 S
C2481 C2475 1.491 . S
C2481 C2480 1.400 1_554 S
C2481 C2482 1.398 . S
C2482 H2470 0.950 . S
C2482 C2481 1.398 . S
C2482 C2483 1.391 . S
C2483 H2471 0.950 . S
C2483 C2479 1.393 1_554 S
C2483 C2482 1.391 . S
H2484 C2492 0.950 . S
H2485 C2497 0.950 . S
H2486 C2494 0.950 . S
H2487 C2496 0.950 . S
H2488 C2498 0.950 . S
H2489 C2500 0.950 . S
H2490 C2502 0.950 1_655 S
H2491 C2503 0.950 . S
C2492 H2484 0.950 . S
C2492 C2493 1.386 . S
C2492 C2494 1.391 . S
C2493 C2492 1.386 . S
C2493 C2497 1.393 . S
C2494 H2486 0.950 . S
C2494 C2492 1.391 . S
C2494 C2495 1.400 . S
C2495 C2494 1.400 . S
C2495 C2496 1.398 . S
C2495 C2501 1.491 . S
C2496 H2487 0.950 . S
C2496 C2495 1.398 . S
C2496 C2497 1.391 . S
C2497 H2485 0.950 . S
C2497 C2493 1.393 . S
C2497 C2496 1.391 . S
C2498 H2488 0.950 . S
C2498 C2499 1.386 . S
C2498 C2500 1.391 1_455 S
C2499 C2498 1.386 . S
C2499 C2503 1.393 . S
C2500 H2489 0.950 . S
C2500 C2498 1.391 1_655 S
C2500 C2501 1.400 . S
C2501 C2495 1.491 . S
C2501 C2500 1.400 . S
C2501 C2502 1.398 1_655 S
C2502 H2490 0.950 1_455 S
C2502 C2501 1.398 1_455 S
C2502 C2503 1.391 . S
C2503 H2491 0.950 . S
C2503 C2499 1.393 . S
C2503 C2502 1.391 . S
H2504 C2512 0.950 . S
H2505 C2517 0.950 . S
H2506 C2514 0.950 . S
H2507 C2516 0.950 . S
H2508 C2518 0.950 . S
H2509 C2520 0.950 . S
H2510 C2522 0.950 . S
H2511 C2523 0.950 . S
C2512 H2504 0.950 . S
C2512 C2513 1.386 . S
C2512 C2514 1.391 . S
C2513 C2512 1.386 . S
C2513 C2517 1.393 . S
C2514 H2506 0.950 . S
C2514 C2512 1.391 . S
C2514 C2515 1.400 . S
C2515 C2514 1.400 . S
C2515 C2516 1.398 . S
C2515 C2521 1.491 . S
C2516 H2507 0.950 . S
C2516 C2515 1.398 . S
C2516 C2517 1.391 . S
C2517 H2505 0.950 . S
C2517 C2513 1.393 . S
C2517 C2516 1.391 . S
C2518 H2508 0.950 . S
C2518 C2519 1.386 . S
C2518 C2520 1.391 . S
C2519 C2518 1.386 . S
C2519 C2523 1.393 . S
C2520 H2509 0.950 . S
C2520 C2518 1.391 . S
C2520 C2521 1.400 . S
C2521 C2515 1.491 . S
C2521 C2520 1.400 . S
C2521 C2522 1.398 . S
C2522 H2510 0.950 . S
C2522 C2521 1.398 . S
C2522 C2523 1.391 . S
C2523 H2511 0.950 . S
C2523 C2519 1.393 . S
C2523 C2522 1.391 . S
H2524 C2532 0.950 . S
H2525 C2537 0.950 . S
H2526 C2534 0.950 . S
H2527 C2536 0.945 1_545 S
H2528 C2538 0.950 . S
H2529 C2540 0.950 . S
H2530 C2542 0.950 . S
H2531 C2543 0.950 . S
C2532 H2524 0.950 . S
C2532 C2533 1.386 . S
C2532 C2534 1.391 1_565 S
C2533 C2532 1.386 . S
C2533 C2537 1.393 . S
C2534 H2526 0.950 . S
C2534 C2532 1.391 1_545 S
C2534 C2535 1.400 . S
C2535 C2534 1.400 . S
C2535 C2536 1.398 1_545 S
C2535 C2541 1.491 . S
C2536 H2527 0.945 1_565 S
C2536 C2535 1.398 1_565 S
C2536 C2537 1.391 . S
C2537 H2525 0.950 . S
C2537 C2533 1.393 . S
C2537 C2536 1.391 . S
C2538 H2528 0.950 . S
C2538 C2539 1.386 . S
C2538 C2540 1.391 . S
C2539 C2538 1.386 . S
C2539 C2543 1.393 . S
C2540 H2529 0.950 . S
C2540 C2538 1.391 . S
C2540 C2541 1.400 . S
C2541 C2535 1.491 . S
C2541 C2540 1.400 . S
C2541 C2542 1.398 . S
C2542 H2530 0.950 . S
C2542 C2541 1.398 . S
C2542 C2543 1.391 . S
C2543 H2531 0.950 . S
C2543 C2539 1.393 . S
C2543 C2542 1.391 . S
H2544 C2552 0.950 . S
H2545 C2557 0.950 . S
H2546 C2554 0.950 . S
H2547 C2556 0.950 . S
H2548 C2558 0.950 . S
H2549 C2560 0.950 . S
H2550 C2562 0.950 . S
H2551 C2563 0.950 . S
C2552 H2544 0.950 . S
C2552 C2553 1.386 . S
C2552 C2554 1.391 . S
C2553 C2552 1.386 . S
C2553 C2557 1.393 . S
C2554 H2546 0.950 . S
C2554 C2552 1.391 . S
C2554 C2555 1.400 . S
C2555 C2554 1.400 . S
C2555 C2556 1.398 . S
C2555 C2561 1.491 . S
C2556 H2547 0.950 . S
C2556 C2555 1.398 . S
C2556 C2557 1.391 . S
C2557 H2545 0.950 . S
C2557 C2553 1.393 . S
C2557 C2556 1.391 . S
C2558 H2548 0.950 . S
C2558 C2559 1.386 . S
C2558 C2560 1.391 . S
C2559 C2558 1.386 . S
C2559 C2563 1.393 . S
C2560 H2549 0.950 . S
C2560 C2558 1.391 . S
C2560 C2561 1.400 . S
C2561 C2555 1.491 . S
C2561 C2560 1.400 . S
C2561 C2562 1.398 . S
C2562 H2550 0.950 . S
C2562 C2561 1.398 . S
C2562 C2563 1.391 . S
C2563 H2551 0.950 . S
C2563 C2559 1.393 . S
C2563 C2562 1.391 . S
H2564 C2572 0.950 . S
H2565 C2577 0.950 . S
H2566 C2574 0.950 . S
H2567 C2576 0.950 . S
H2568 C2578 0.950 . S
H2569 C2580 0.950 . S
H2570 C2582 0.950 . S
H2571 C2583 0.950 . S
C2572 H2564 0.950 . S
C2572 C2573 1.386 . S
C2572 C2574 1.391 . S
C2573 C2572 1.386 . S
C2573 C2577 1.393 . S
C2574 H2566 0.950 . S
C2574 C2572 1.391 . S
C2574 C2575 1.400 . S
C2575 C2574 1.400 . S
C2575 C2576 1.398 . S
C2575 C2581 1.491 . S
C2576 H2567 0.950 . S
C2576 C2575 1.398 . S
C2576 C2577 1.391 . S
C2577 H2565 0.950 . S
C2577 C2573 1.393 . S
C2577 C2576 1.391 . S
C2578 H2568 0.950 . S
C2578 C2579 1.386 . S
C2578 C2580 1.391 . S
C2579 C2578 1.386 . S
C2579 C2583 1.393 . S
C2580 H2569 0.950 . S
C2580 C2578 1.391 . S
C2580 C2581 1.400 . S
C2581 C2575 1.491 . S
C2581 C2580 1.400 . S
C2581 C2582 1.398 . S
C2582 H2570 0.950 . S
C2582 C2581 1.398 . S
C2582 C2583 1.391 . S
C2583 H2571 0.950 . S
C2583 C2579 1.393 . S
C2583 C2582 1.391 . S
H2584 C2592 0.950 . S
H2585 C2597 0.950 . S
H2586 C2594 0.950 . S
H2587 C2596 0.950 . S
H2588 C2598 0.950 . S
H2589 C2600 0.950 . S
H2590 C2602 0.950 . S
H2591 C2603 0.950 . S
C2592 H2584 0.950 . S
C2592 C2593 1.386 . S
C2592 C2594 1.391 . S
C2593 C2592 1.386 . S
C2593 C2597 1.393 . S
C2594 H2586 0.950 . S
C2594 C2592 1.391 . S
C2594 C2595 1.400 . S
C2595 C2594 1.400 . S
C2595 C2596 1.398 . S
C2595 C2601 1.491 . S
C2596 H2587 0.950 . S
C2596 C2595 1.398 . S
C2596 C2597 1.391 . S
C2597 H2585 0.950 . S
C2597 C2593 1.393 . S
C2597 C2596 1.391 . S
C2598 H2588 0.950 . S
C2598 C2599 1.386 . S
C2598 C2600 1.391 . S
C2599 C2598 1.386 . S
C2599 C2603 1.393 . S
C2600 H2589 0.950 . S
C2600 C2598 1.391 . S
C2600 C2601 1.400 . S
C2601 C2595 1.491 . S
C2601 C2600 1.400 . S
C2601 C2602 1.398 . S
C2602 H2590 0.950 . S
C2602 C2601 1.398 . S
C2602 C2603 1.391 . S
C2603 H2591 0.950 . S
C2603 C2599 1.393 . S
C2603 C2602 1.391 . S
H2604 C2612 0.950 . S
H2605 C2617 0.950 . S
H2606 C2614 0.950 . S
H2607 C2616 0.950 . S
H2608 C2618 0.950 . S
H2609 C2620 0.950 . S
H2610 C2622 0.950 . S
H2611 C2623 0.950 . S
C2612 H2604 0.950 . S
C2612 C2613 1.386 . S
C2612 C2614 1.391 . S
C2613 C2612 1.386 . S
C2613 C2617 1.393 . S
C2614 H2606 0.950 . S
C2614 C2612 1.391 . S
C2614 C2615 1.400 . S
C2615 C2614 1.400 . S
C2615 C2616 1.398 . S
C2615 C2621 1.491 . S
C2616 H2607 0.950 . S
C2616 C2615 1.398 . S
C2616 C2617 1.391 . S
C2617 H2605 0.950 . S
C2617 C2613 1.393 . S
C2617 C2616 1.391 . S
C2618 H2608 0.950 . S
C2618 C2619 1.386 . S
C2618 C2620 1.391 . S
C2619 C2618 1.386 . S
C2619 C2623 1.393 . S
C2620 H2609 0.950 . S
C2620 C2618 1.391 . S
C2620 C2621 1.400 . S
C2621 C2615 1.491 . S
C2621 C2620 1.400 . S
C2621 C2622 1.398 . S
C2622 H2610 0.950 . S
C2622 C2621 1.398 . S
C2622 C2623 1.391 . S
C2623 H2611 0.950 . S
C2623 C2619 1.393 . S
C2623 C2622 1.391 . S
H2624 C2632 0.950 . S
H2625 C2637 0.950 . S
H2626 C2634 0.950 . S
H2627 C2636 0.950 . S
H2628 C2638 0.950 . S
H2629 C2640 0.950 . S
H2630 C2642 0.950 . S
H2631 C2643 0.950 . S
C2632 H2624 0.950 . S
C2632 C2633 1.386 . S
C2632 C2634 1.391 . S
C2633 C2632 1.386 . S
C2633 C2637 1.393 . S
C2634 H2626 0.950 . S
C2634 C2632 1.391 . S
C2634 C2635 1.400 . S
C2635 C2634 1.400 . S
C2635 C2636 1.398 . S
C2635 C2641 1.491 . S
C2636 H2627 0.950 . S
C2636 C2635 1.398 . S
C2636 C2637 1.391 . S
C2637 H2625 0.950 . S
C2637 C2633 1.393 . S
C2637 C2636 1.391 . S
C2638 H2628 0.950 . S
C2638 C2639 1.386 . S
C2638 C2640 1.391 . S
C2639 C2638 1.386 . S
C2639 C2643 1.393 . S
C2640 H2629 0.950 . S
C2640 C2638 1.391 . S
C2640 C2641 1.400 . S
C2641 C2635 1.491 . S
C2641 C2640 1.400 . S
C2641 C2642 1.398 . S
C2642 H2630 0.950 . S
C2642 C2641 1.398 . S
C2642 C2643 1.391 . S
C2643 H2631 0.950 . S
C2643 C2639 1.393 . S
C2643 C2642 1.391 . S
H2644 C2652 0.950 . S
H2645 C2657 0.950 . S
H2646 C2654 0.950 . S
H2647 C2656 0.950 . S
H2648 C2658 0.950 . S
H2649 C2660 0.950 . S
H2650 C2662 0.950 . S
H2651 C2663 0.950 . S
C2652 H2644 0.950 . S
C2652 C2653 1.386 . S
C2652 C2654 1.391 . S
C2653 C2652 1.386 . S
C2653 C2657 1.393 . S
C2654 H2646 0.950 . S
C2654 C2652 1.391 . S
C2654 C2655 1.400 . S
C2655 C2654 1.400 . S
C2655 C2656 1.398 . S
C2655 C2661 1.491 . S
C2656 H2647 0.950 . S
C2656 C2655 1.398 . S
C2656 C2657 1.391 . S
C2657 H2645 0.950 . S
C2657 C2653 1.393 . S
C2657 C2656 1.391 . S
C2658 H2648 0.950 . S
C2658 C2659 1.386 . S
C2658 C2660 1.391 . S
C2659 C2658 1.386 . S
C2659 C2663 1.393 . S
C2660 H2649 0.950 . S
C2660 C2658 1.391 . S
C2660 C2661 1.400 . S
C2661 C2655 1.491 . S
C2661 C2660 1.400 . S
C2661 C2662 1.398 . S
C2662 H2650 0.950 . S
C2662 C2661 1.398 . S
C2662 C2663 1.391 . S
C2663 H2651 0.950 . S
C2663 C2659 1.393 . S
C2663 C2662 1.391 . S
H2664 C2672 0.950 . S
H2665 C2677 0.950 . S
H2666 C2674 0.950 . S
H2667 C2676 0.950 . S
H2668 C2678 0.950 . S
H2669 C2680 0.950 . S
H2670 C2682 0.950 . S
H2671 C2683 0.950 . S
C2672 H2664 0.950 . S
C2672 C2673 1.386 . S
C2672 C2674 1.391 . S
C2673 C2672 1.386 . S
C2673 C2677 1.393 . S
C2674 H2666 0.950 . S
C2674 C2672 1.391 . S
C2674 C2675 1.400 . S
C2675 C2674 1.400 . S
C2675 C2676 1.398 . S
C2675 C2681 1.491 . S
C2676 H2667 0.950 . S
C2676 C2675 1.398 . S
C2676 C2677 1.391 . S
C2677 H2665 0.950 . S
C2677 C2673 1.393 . S
C2677 C2676 1.391 . S
C2678 H2668 0.950 . S
C2678 C2679 1.386 . S
C2678 C2680 1.391 . S
C2679 C2678 1.386 . S
C2679 C2683 1.393 . S
C2680 H2669 0.950 . S
C2680 C2678 1.391 . S
C2680 C2681 1.400 . S
C2681 C2675 1.491 . S
C2681 C2680 1.400 . S
C2681 C2682 1.398 . S
C2682 H2670 0.950 . S
C2682 C2681 1.398 . S
C2682 C2683 1.391 . S
C2683 H2671 0.950 . S
C2683 C2679 1.393 . S
C2683 C2682 1.391 . S
H2684 C2692 0.950 . S
H2685 C2697 0.950 . S
H2686 C2694 0.950 . S
H2687 C2696 0.950 . S
H2688 C2698 0.950 . S
H2689 C2700 0.950 . S
H2690 C2702 0.950 . S
H2691 C2703 0.950 . S
C2692 H2684 0.950 . S
C2692 C2693 1.386 . S
C2692 C2694 1.391 . S
C2693 C2692 1.386 . S
C2693 C2697 1.393 . S
C2694 H2686 0.950 . S
C2694 C2692 1.391 . S
C2694 C2695 1.400 . S
C2695 C2694 1.400 . S
C2695 C2696 1.398 . S
C2695 C2701 1.491 . S
C2696 H2687 0.950 . S
C2696 C2695 1.398 . S
C2696 C2697 1.391 . S
C2697 H2685 0.950 . S
C2697 C2693 1.393 . S
C2697 C2696 1.391 . S
C2698 H2688 0.950 . S
C2698 C2699 1.386 . S
C2698 C2700 1.391 . S
C2699 C2698 1.386 . S
C2699 C2703 1.393 . S
C2700 H2689 0.950 . S
C2700 C2698 1.391 . S
C2700 C2701 1.400 . S
C2701 C2695 1.491 . S
C2701 C2700 1.400 . S
C2701 C2702 1.398 . S
C2702 H2690 0.950 . S
C2702 C2701 1.398 . S
C2702 C2703 1.391 . S
C2703 H2691 0.950 . S
C2703 C2699 1.393 . S
C2703 C2702 1.391 . S
H2704 C2712 0.950 . S
H2705 C2717 0.950 . S
H2706 C2714 0.950 . S
H2707 C2716 0.950 . S
H2708 C2718 0.950 . S
H2709 C2720 0.950 . S
H2710 C2722 0.950 . S
H2711 C2723 0.950 . S
C2712 H2704 0.950 . S
C2712 C2713 1.386 . S
C2712 C2714 1.391 . S
C2713 C2712 1.386 . S
C2713 C2717 1.393 . S
C2714 H2706 0.950 . S
C2714 C2712 1.391 . S
C2714 C2715 1.400 . S
C2715 C2714 1.400 . S
C2715 C2716 1.398 . S
C2715 C2721 1.491 . S
C2716 H2707 0.950 . S
C2716 C2715 1.398 . S
C2716 C2717 1.391 . S
C2717 H2705 0.950 . S
C2717 C2713 1.393 . S
C2717 C2716 1.391 . S
C2718 H2708 0.950 . S
C2718 C2719 1.386 . S
C2718 C2720 1.391 . S
C2719 C2718 1.386 . S
C2719 C2723 1.393 . S
C2720 H2709 0.950 . S
C2720 C2718 1.391 . S
C2720 C2721 1.400 . S
C2721 C2715 1.491 . S
C2721 C2720 1.400 . S
C2721 C2722 1.398 . S
C2722 H2710 0.950 . S
C2722 C2721 1.398 . S
C2722 C2723 1.391 . S
C2723 H2711 0.950 . S
C2723 C2719 1.393 . S
C2723 C2722 1.391 . S
H2724 C2732 0.950 . S
H2725 C2737 0.950 . S
H2726 C2734 0.950 . S
H2727 C2736 0.950 . S
H2728 C2738 0.950 . S
H2729 C2740 0.950 . S
H2730 C2742 0.950 . S
H2731 C2743 0.950 . S
C2732 H2724 0.950 . S
C2732 C2733 1.386 . S
C2732 C2734 1.391 . S
C2733 C2732 1.386 . S
C2733 C2737 1.393 . S
C2734 H2726 0.950 . S
C2734 C2732 1.391 . S
C2734 C2735 1.400 . S
C2735 C2734 1.400 . S
C2735 C2736 1.398 . S
C2735 C2741 1.491 . S
C2736 H2727 0.950 . S
C2736 C2735 1.398 . S
C2736 C2737 1.391 . S
C2737 H2725 0.950 . S
C2737 C2733 1.393 . S
C2737 C2736 1.391 . S
C2738 H2728 0.950 . S
C2738 C2739 1.386 . S
C2738 C2740 1.391 . S
C2739 C2738 1.386 . S
C2739 C2743 1.393 . S
C2740 H2729 0.950 . S
C2740 C2738 1.391 . S
C2740 C2741 1.400 . S
C2741 C2735 1.491 . S
C2741 C2740 1.400 . S
C2741 C2742 1.398 . S
C2742 H2730 0.950 . S
C2742 C2741 1.398 . S
C2742 C2743 1.391 . S
C2743 H2731 0.950 . S
C2743 C2739 1.393 . S
C2743 C2742 1.391 . S
H2744 C2752 0.950 . S
H2745 C2757 0.950 . S
H2746 C2754 0.950 . S
H2747 C2756 0.950 . S
H2748 C2758 0.950 . S
H2749 C2760 0.950 . S
H2750 C2762 0.950 . S
H2751 C2763 0.950 . S
C2752 H2744 0.950 . S
C2752 C2753 1.386 . S
C2752 C2754 1.391 . S
C2753 C2752 1.386 . S
C2753 C2757 1.393 . S
C2754 H2746 0.950 . S
C2754 C2752 1.391 . S
C2754 C2755 1.400 . S
C2755 C2754 1.400 . S
C2755 C2756 1.398 . S
C2755 C2761 1.491 . S
C2756 H2747 0.950 . S
C2756 C2755 1.398 . S
C2756 C2757 1.391 . S
C2757 H2745 0.950 . S
C2757 C2753 1.393 . S
C2757 C2756 1.391 . S
C2758 H2748 0.950 . S
C2758 C2759 1.386 . S
C2758 C2760 1.391 . S
C2759 C2758 1.386 . S
C2759 C2763 1.393 . S
C2760 H2749 0.950 . S
C2760 C2758 1.391 . S
C2760 C2761 1.400 . S
C2761 C2755 1.491 . S
C2761 C2760 1.400 . S
C2761 C2762 1.398 . S
C2762 H2750 0.950 . S
C2762 C2761 1.398 . S
C2762 C2763 1.391 . S
C2763 H2751 0.950 . S
C2763 C2759 1.393 . S
C2763 C2762 1.391 . S
H2764 C2772 0.950 . S
H2765 C2777 0.950 . S
H2766 C2774 0.950 . S
H2767 C2776 0.950 . S
H2768 C2778 0.950 . S
H2769 C2780 0.950 . S
H2770 C2782 0.950 . S
H2771 C2783 0.950 . S
C2772 H2764 0.950 . S
C2772 C2773 1.386 . S
C2772 C2774 1.391 . S
C2773 C2772 1.386 . S
C2773 C2777 1.393 . S
C2774 H2766 0.950 . S
C2774 C2772 1.391 . S
C2774 C2775 1.400 . S
C2775 C2774 1.400 . S
C2775 C2776 1.398 . S
C2775 C2781 1.491 . S
C2776 H2767 0.950 . S
C2776 C2775 1.398 . S
C2776 C2777 1.391 . S
C2777 H2765 0.950 . S
C2777 C2773 1.393 . S
C2777 C2776 1.391 . S
C2778 H2768 0.950 . S
C2778 C2779 1.386 . S
C2778 C2780 1.391 . S
C2779 C2778 1.386 . S
C2779 C2783 1.393 . S
C2780 H2769 0.950 . S
C2780 C2778 1.391 . S
C2780 C2781 1.400 . S
C2781 C2775 1.491 . S
C2781 C2780 1.400 . S
C2781 C2782 1.398 . S
C2782 H2770 0.950 . S
C2782 C2781 1.398 . S
C2782 C2783 1.391 . S
C2783 H2771 0.950 . S
C2783 C2779 1.393 . S
C2783 C2782 1.391 . S
H2784 C2792 0.950 . S
H2785 C2797 0.950 . S
H2786 C2794 0.950 . S
H2787 C2796 0.950 . S
H2788 C2798 0.950 . S
H2789 C2800 0.950 . S
H2790 C2802 0.950 . S
H2791 C2803 0.950 . S
C2792 H2784 0.950 . S
C2792 C2793 1.386 . S
C2792 C2794 1.391 . S
C2793 C2792 1.386 . S
C2793 C2797 1.393 . S
C2794 H2786 0.950 . S
C2794 C2792 1.391 . S
C2794 C2795 1.400 . S
C2795 C2794 1.400 . S
C2795 C2796 1.398 . S
C2795 C2801 1.491 . S
C2796 H2787 0.950 . S
C2796 C2795 1.398 . S
C2796 C2797 1.391 . S
C2797 H2785 0.950 . S
C2797 C2793 1.393 . S
C2797 C2796 1.391 . S
C2798 H2788 0.950 . S
C2798 C2799 1.386 . S
C2798 C2800 1.391 . S
C2799 C2798 1.386 . S
C2799 C2803 1.393 . S
C2800 H2789 0.950 . S
C2800 C2798 1.391 . S
C2800 C2801 1.400 . S
C2801 C2795 1.491 . S
C2801 C2800 1.400 . S
C2801 C2802 1.398 . S
C2802 H2790 0.950 . S
C2802 C2801 1.398 . S
C2802 C2803 1.391 . S
C2803 H2791 0.950 . S
C2803 C2799 1.393 . S
C2803 C2802 1.391 . S
H2804 C2812 0.950 . S
H2805 C2817 0.950 . S
H2806 C2814 0.950 . S
H2807 C2816 0.950 . S
H2808 C2818 0.950 . S
H2809 C2820 0.950 . S
H2810 C2822 0.950 . S
H2811 C2823 0.950 . S
C2812 H2804 0.950 . S
C2812 C2813 1.386 . S
C2812 C2814 1.391 . S
C2813 C2812 1.386 . S
C2813 C2817 1.393 . S
C2814 H2806 0.950 . S
C2814 C2812 1.391 . S
C2814 C2815 1.400 . S
C2815 C2814 1.400 . S
C2815 C2816 1.398 . S
C2815 C2821 1.491 . S
C2816 H2807 0.950 . S
C2816 C2815 1.398 . S
C2816 C2817 1.391 . S
C2817 H2805 0.950 . S
C2817 C2813 1.393 . S
C2817 C2816 1.391 . S
C2818 H2808 0.950 . S
C2818 C2819 1.386 . S
C2818 C2820 1.391 . S
C2819 C2818 1.386 . S
C2819 C2823 1.393 . S
C2820 H2809 0.950 . S
C2820 C2818 1.391 . S
C2820 C2821 1.400 . S
C2821 C2815 1.491 . S
C2821 C2820 1.400 . S
C2821 C2822 1.398 . S
C2822 H2810 0.950 . S
C2822 C2821 1.398 . S
C2822 C2823 1.391 . S
C2823 H2811 0.950 . S
C2823 C2819 1.393 . S
C2823 C2822 1.391 . S
H2824 C2832 0.950 . S
H2825 C2837 0.950 . S
H2826 C2834 0.950 . S
H2827 C2836 0.950 . S
H2828 C2838 0.950 . S
H2829 C2840 0.950 . S
H2830 C2842 0.950 . S
H2831 C2843 0.950 . S
C2832 H2824 0.950 . S
C2832 C2833 1.386 . S
C2832 C2834 1.391 . S
C2833 C2832 1.386 . S
C2833 C2837 1.393 . S
C2834 H2826 0.950 . S
C2834 C2832 1.391 . S
C2834 C2835 1.400 . S
C2835 C2834 1.400 . S
C2835 C2836 1.398 . S
C2835 C2841 1.491 . S
C2836 H2827 0.950 . S
C2836 C2835 1.398 . S
C2836 C2837 1.391 . S
C2837 H2825 0.950 . S
C2837 C2833 1.393 . S
C2837 C2836 1.391 . S
C2838 H2828 0.950 . S
C2838 C2839 1.386 . S
C2838 C2840 1.391 . S
C2839 C2838 1.386 . S
C2839 C2843 1.393 . S
C2840 H2829 0.950 . S
C2840 C2838 1.391 . S
C2840 C2841 1.400 . S
C2841 C2835 1.491 . S
C2841 C2840 1.400 . S
C2841 C2842 1.398 . S
C2842 H2830 0.950 . S
C2842 C2841 1.398 . S
C2842 C2843 1.391 . S
C2843 H2831 0.950 . S
C2843 C2839 1.393 . S
C2843 C2842 1.391 . S
H2844 C2852 0.950 . S
H2845 C2857 0.950 . S
H2846 C2854 0.950 . S
H2847 C2856 0.950 . S
H2848 C2858 0.950 . S
H2849 C2860 0.950 . S
H2850 C2862 0.950 . S
H2851 C2863 0.950 . S
C2852 H2844 0.950 . S
C2852 C2853 1.386 . S
C2852 C2854 1.391 . S
C2853 C2852 1.386 . S
C2853 C2857 1.393 . S
C2854 H2846 0.950 . S
C2854 C2852 1.391 . S
C2854 C2855 1.400 . S
C2855 C2854 1.400 . S
C2855 C2856 1.398 . S
C2855 C2861 1.491 . S
C2856 H2847 0.950 . S
C2856 C2855 1.398 . S
C2856 C2857 1.391 . S
C2857 H2845 0.950 . S
C2857 C2853 1.393 . S
C2857 C2856 1.391 . S
C2858 H2848 0.950 . S
C2858 C2859 1.386 . S
C2858 C2860 1.391 . S
C2859 C2858 1.386 . S
C2859 C2863 1.393 . S
C2860 H2849 0.950 . S
C2860 C2858 1.391 . S
C2860 C2861 1.400 . S
C2861 C2855 1.491 . S
C2861 C2860 1.400 . S
C2861 C2862 1.398 . S
C2862 H2850 0.950 . S
C2862 C2861 1.398 . S
C2862 C2863 1.391 . S
C2863 H2851 0.950 . S
C2863 C2859 1.393 . S
C2863 C2862 1.391 . S
H2864 C2872 0.950 . S
H2865 C2877 0.950 . S
H2866 C2874 0.950 . S
H2867 C2876 0.950 . S
H2868 C2878 0.950 . S
H2869 C2880 0.950 . S
H2870 C2882 0.950 . S
H2871 C2883 0.950 . S
C2872 H2864 0.950 . S
C2872 C2873 1.386 . S
C2872 C2874 1.391 . S
C2873 C2872 1.386 . S
C2873 C2877 1.393 . S
C2874 H2866 0.950 . S
C2874 C2872 1.391 . S
C2874 C2875 1.400 . S
C2875 C2874 1.400 . S
C2875 C2876 1.398 . S
C2875 C2881 1.491 . S
C2876 H2867 0.950 . S
C2876 C2875 1.398 . S
C2876 C2877 1.391 . S
C2877 H2865 0.950 . S
C2877 C2873 1.393 . S
C2877 C2876 1.391 . S
C2878 H2868 0.950 . S
C2878 C2879 1.386 . S
C2878 C2880 1.391 . S
C2879 C2878 1.386 . S
C2879 C2883 1.393 . S
C2880 H2869 0.950 . S
C2880 C2878 1.391 . S
C2880 C2881 1.400 . S
C2881 C2875 1.491 . S
C2881 C2880 1.400 . S
C2881 C2882 1.398 . S
C2882 H2870 0.950 . S
C2882 C2881 1.398 . S
C2882 C2883 1.391 . S
C2883 H2871 0.950 . S
C2883 C2879 1.393 . S
C2883 C2882 1.391 . S
H2884 C2892 0.950 . S
H2885 C2897 0.950 . S
H2886 C2894 0.950 . S
H2887 C2896 0.950 . S
H2888 C2898 0.950 . S
H2889 C2900 0.950 . S
H2890 C2902 0.950 . S
H2891 C2903 0.950 . S
C2892 H2884 0.950 . S
C2892 C2893 1.386 . S
C2892 C2894 1.391 . S
C2893 C2892 1.386 . S
C2893 C2897 1.393 . S
C2894 H2886 0.950 . S
C2894 C2892 1.391 . S
C2894 C2895 1.400 . S
C2895 C2894 1.400 . S
C2895 C2896 1.398 . S
C2895 C2901 1.491 . S
C2896 H2887 0.950 . S
C2896 C2895 1.398 . S
C2896 C2897 1.391 . S
C2897 H2885 0.950 . S
C2897 C2893 1.393 . S
C2897 C2896 1.391 . S
C2898 H2888 0.950 . S
C2898 C2899 1.386 . S
C2898 C2900 1.391 . S
C2899 C2898 1.386 . S
C2899 C2903 1.393 . S
C2900 H2889 0.950 . S
C2900 C2898 1.391 . S
C2900 C2901 1.400 . S
C2901 C2895 1.491 . S
C2901 C2900 1.400 . S
C2901 C2902 1.398 . S
C2902 H2890 0.950 . S
C2902 C2901 1.398 . S
C2902 C2903 1.391 . S
C2903 H2891 0.950 . S
C2903 C2899 1.393 . S
C2903 C2902 1.391 . S
H2904 C2912 0.950 . S
H2905 C2917 0.950 . S
H2906 C2914 0.950 . S
H2907 C2916 0.950 . S
H2908 C2918 0.950 . S
H2909 C2920 0.950 . S
H2910 C2922 0.950 . S
H2911 C2923 0.950 . S
C2912 H2904 0.950 . S
C2912 C2913 1.386 . S
C2912 C2914 1.391 . S
C2913 C2912 1.386 . S
C2913 C2917 1.393 . S
C2914 H2906 0.950 . S
C2914 C2912 1.391 . S
C2914 C2915 1.400 . S
C2915 C2914 1.400 . S
C2915 C2916 1.398 . S
C2915 C2921 1.491 . S
C2916 H2907 0.950 . S
C2916 C2915 1.398 . S
C2916 C2917 1.391 . S
C2917 H2905 0.950 . S
C2917 C2913 1.393 . S
C2917 C2916 1.391 . S
C2918 H2908 0.950 . S
C2918 C2919 1.386 . S
C2918 C2920 1.391 . S
C2919 C2918 1.386 . S
C2919 C2923 1.393 . S
C2920 H2909 0.950 . S
C2920 C2918 1.391 . S
C2920 C2921 1.400 . S
C2921 C2915 1.491 . S
C2921 C2920 1.400 . S
C2921 C2922 1.398 . S
C2922 H2910 0.950 . S
C2922 C2921 1.398 . S
C2922 C2923 1.391 . S
C2923 H2911 0.950 . S
C2923 C2919 1.393 . S
C2923 C2922 1.391 . S
H2924 C2932 0.950 . S
H2925 C2937 0.950 . S
H2926 C2934 0.950 . S
H2927 C2936 0.950 . S
H2928 C2938 0.950 . S
H2929 C2940 0.950 . S
H2930 C2942 0.950 . S
H2931 C2943 0.950 . S
C2932 H2924 0.950 . S
C2932 C2933 1.386 . S
C2932 C2934 1.391 . S
C2933 C2932 1.386 . S
C2933 C2937 1.393 . S
C2934 H2926 0.950 . S
C2934 C2932 1.391 . S
C2934 C2935 1.400 . S
C2935 C2934 1.400 . S
C2935 C2936 1.398 . S
C2935 C2941 1.491 . S
C2936 H2927 0.950 . S
C2936 C2935 1.398 . S
C2936 C2937 1.391 . S
C2937 H2925 0.950 . S
C2937 C2933 1.393 . S
C2937 C2936 1.391 . S
C2938 H2928 0.950 . S
C2938 C2939 1.386 . S
C2938 C2940 1.391 . S
C2939 C2938 1.386 . S
C2939 C2943 1.393 . S
C2940 H2929 0.950 . S
C2940 C2938 1.391 . S
C2940 C2941 1.400 . S
C2941 C2935 1.491 . S
C2941 C2940 1.400 . S
C2941 C2942 1.398 . S
C2942 H2930 0.950 . S
C2942 C2941 1.398 . S
C2942 C2943 1.391 . S
C2943 H2931 0.950 . S
C2943 C2939 1.393 . S
C2943 C2942 1.391 . S
H2944 C2952 0.950 . S
H2945 C2957 0.950 . S
H2946 C2954 0.950 . S
H2947 C2956 0.950 . S
H2948 C2958 0.950 . S
H2949 C2960 0.950 . S
H2950 C2962 0.950 . S
H2951 C2963 0.950 . S
C2952 H2944 0.950 . S
C2952 C2953 1.386 . S
C2952 C2954 1.391 . S
C2953 C2952 1.386 . S
C2953 C2957 1.393 . S
C2954 H2946 0.950 . S
C2954 C2952 1.391 . S
C2954 C2955 1.400 . S
C2955 C2954 1.400 . S
C2955 C2956 1.398 . S
C2955 C2961 1.491 . S
C2956 H2947 0.950 . S
C2956 C2955 1.398 . S
C2956 C2957 1.391 . S
C2957 H2945 0.950 . S
C2957 C2953 1.393 . S
C2957 C2956 1.391 . S
C2958 H2948 0.950 . S
C2958 C2959 1.386 . S
C2958 C2960 1.391 . S
C2959 C2958 1.386 . S
C2959 C2963 1.393 . S
C2960 H2949 0.950 . S
C2960 C2958 1.391 . S
C2960 C2961 1.400 . S
C2961 C2955 1.491 . S
C2961 C2960 1.400 . S
C2961 C2962 1.398 . S
C2962 H2950 0.950 . S
C2962 C2961 1.398 . S
C2962 C2963 1.391 . S
C2963 H2951 0.950 . S
C2963 C2959 1.393 . S
C2963 C2962 1.391 . S
H2964 C2972 0.950 . S
H2965 C2977 0.950 . S
H2966 C2974 0.950 . S
H2967 C2976 0.950 . S
H2968 C2978 0.950 . S
H2969 C2980 0.950 . S
H2970 C2982 0.950 . S
H2971 C2983 0.950 . S
C2972 H2964 0.950 . S
C2972 C2973 1.386 . S
C2972 C2974 1.391 . S
C2973 C2972 1.386 . S
C2973 C2977 1.393 . S
C2974 H2966 0.950 . S
C2974 C2972 1.391 . S
C2974 C2975 1.400 . S
C2975 C2974 1.400 . S
C2975 C2976 1.398 . S
C2975 C2981 1.491 . S
C2976 H2967 0.950 . S
C2976 C2975 1.398 . S
C2976 C2977 1.391 . S
C2977 H2965 0.950 . S
C2977 C2973 1.393 . S
C2977 C2976 1.391 . S
C2978 H2968 0.950 . S
C2978 C2979 1.386 . S
C2978 C2980 1.391 . S
C2979 C2978 1.386 . S
C2979 C2983 1.393 . S
C2980 H2969 0.950 . S
C2980 C2978 1.391 . S
C2980 C2981 1.400 . S
C2981 C2975 1.491 . S
C2981 C2980 1.400 . S
C2981 C2982 1.398 . S
C2982 H2970 0.950 . S
C2982 C2981 1.398 . S
C2982 C2983 1.391 . S
C2983 H2971 0.950 . S
C2983 C2979 1.393 . S
C2983 C2982 1.391 . S
H2984 C2992 0.950 . S
H2985 C2997 0.950 . S
H2986 C2994 0.950 . S
H2987 C2996 0.950 . S
H2988 C2998 0.950 . S
H2989 C3000 0.950 . S
H2990 C3002 0.950 . S
H2991 C3003 0.950 . S
C2992 H2984 0.950 . S
C2992 C2993 1.386 . S
C2992 C2994 1.391 . S
C2993 C2992 1.386 . S
C2993 C2997 1.393 . S
C2994 H2986 0.950 . S
C2994 C2992 1.391 . S
C2994 C2995 1.400 . S
C2995 C2994 1.400 . S
C2995 C2996 1.398 . S
C2995 C3001 1.491 . S
C2996 H2987 0.950 . S
C2996 C2995 1.398 . S
C2996 C2997 1.391 . S
C2997 H2985 0.950 . S
C2997 C2993 1.393 . S
C2997 C2996 1.391 . S
C2998 H2988 0.950 . S
C2998 C2999 1.386 . S
C2998 C3000 1.391 . S
C2999 C2998 1.386 . S
C2999 C3003 1.393 . S
C3000 H2989 0.950 . S
C3000 C2998 1.391 . S
C3000 C3001 1.400 . S
C3001 C2995 1.491 . S
C3001 C3000 1.400 . S
C3001 C3002 1.398 . S
C3002 H2990 0.950 . S
C3002 C3001 1.398 . S
C3002 C3003 1.391 . S
C3003 H2991 0.950 . S
C3003 C2999 1.393 . S
C3003 C3002 1.391 . S
H3004 C3012 0.950 . S
H3005 C3017 0.950 . S
H3006 C3014 0.950 . S
H3007 C3016 0.950 . S
H3008 C3018 0.950 . S
H3009 C3020 0.950 . S
H3010 C3022 0.950 . S
H3011 C3023 0.950 . S
C3012 H3004 0.950 . S
C3012 C3013 1.386 . S
C3012 C3014 1.391 . S
C3013 C3012 1.386 . S
C3013 C3017 1.393 . S
C3014 H3006 0.950 . S
C3014 C3012 1.391 . S
C3014 C3015 1.400 . S
C3015 C3014 1.400 . S
C3015 C3016 1.398 . S
C3015 C3021 1.491 . S
C3016 H3007 0.950 . S
C3016 C3015 1.398 . S
C3016 C3017 1.391 . S
C3017 H3005 0.950 . S
C3017 C3013 1.393 . S
C3017 C3016 1.391 . S
C3018 H3008 0.950 . S
C3018 C3019 1.386 . S
C3018 C3020 1.391 . S
C3019 C3018 1.386 . S
C3019 C3023 1.393 . S
C3020 H3009 0.950 . S
C3020 C3018 1.391 . S
C3020 C3021 1.400 . S
C3021 C3015 1.491 . S
C3021 C3020 1.400 . S
C3021 C3022 1.398 . S
C3022 H3010 0.950 . S
C3022 C3021 1.398 . S
C3022 C3023 1.391 . S
C3023 H3011 0.950 . S
C3023 C3019 1.393 . S
C3023 C3022 1.391 . S
C1233 C546 1.484 . S
C1239 C2 1.483 . S
C1253 C36 1.482 . S
C1259 C580 1.482 . S
C1273 C512 1.483 . S
C1279 C70 1.482 . S
C1293 C104 1.482 . S
C1299 C886 1.482 . S
C1313 C818 1.482 . S
C1319 C138 1.484 . S
C1333 C172 1.482 . S
C1339 C852 1.482 . S
C1353 C206 1.482 . S
C1359 C1158 1.484 . S
C1373 C240 1.484 . S
C1379 C1192 1.482 . S
C1393 C274 1.483 . S
C1399 C1124 1.482 . S
C1413 C308 1.483 . S
C1419 C682 1.482 . S
C1433 C342 1.482 . S
C1439 C614 1.482 . S
C1453 C376 1.482 . S
C1459 C648 1.482 . S
C1473 C410 1.482 . S
C1479 C954 1.484 . S
C1493 C988 1.483 . S
C1499 C444 1.482 . S
C1513 C920 1.484 . S
C1519 C478 1.484 . S
C1533 C1090 1.483 . S
C1539 C716 1.482 . S
C1553 C1022 1.484 . S
C1559 C750 1.483 . S
C1573 C784 1.482 . S
C1579 C1056 1.483 . S
C1593 C991 1.317 . S
C1599 C5 1.313 . S
C1613 C39 1.313 . S
C1619 C923 1.318 1_545 S
C1633 C73 1.313 . S
C1639 C957 1.319 1_655 S
C1653 C107 1.323 . S
C1659 C447 1.315 . S
C1673 C141 1.323 . S
C1679 C481 1.319 1_565 S
C1693 C413 1.313 1_455 S
C1699 C175 1.319 . S
C1713 C787 1.315 . S
C1719 C209 1.322 . S
C1733 C243 1.323 . S
C1739 C719 1.317 1_565 S
C1753 C277 1.313 . S
C1759 C753 1.320 1_455 S
C1773 C1059 1.315 . S
C1779 C311 1.314 . S
C1793 C1093 1.319 1_545 S
C1799 C345 1.313 . S
C1813 C1025 1.320 1_655 S
C1819 C379 1.313 . S
C1833 C515 1.315 . S
C1839 C855 1.314 . S
C1853 C549 1.319 . S
C1859 C889 1.323 . S
C1873 C583 1.322 . S
C1879 C821 1.321 . S
C1893 C617 1.323 . S
C1899 C1195 1.319 . S
C1913 C1127 1.318 . S
C1919 C651 1.313 . S
C1933 C685 1.313 . S
C1939 C1161 1.317 . S
C1953 C20 1.596 . S
C1959 C632 1.596 . S
C1973 C54 1.580 . S
C1979 C666 1.580 . S
C1993 C700 1.594 . S
C1999 C88 1.594 . S
C2013 C122 1.581 . S
C2019 C1142 1.581 . S
C2033 C156 1.586 . S
C2039 C1176 1.586 . S
C2053 C190 1.576 . S
C2059 C1210 1.576 . S
C2073 C836 1.591 . S
C2079 C224 1.591 . S
C2093 C258 1.579 . S
C2099 C870 1.579 . S
C2113 C904 1.587 . S
C2119 C292 1.587 . S
C2133 C530 1.581 . S
C2139 C326 1.581 . S
C2153 C564 1.589 . S
C2159 C360 1.589 . S
C2173 C394 1.591 . S
C2179 C598 1.591 . S
C2193 C1040 1.577 . S
C2199 C428 1.577 . S
C2213 C1074 1.577 . S
C2219 C462 1.577 . S
C2233 C496 1.589 . S
C2239 C1108 1.589 . S
C2253 C938 1.591 . S
C2259 C734 1.591 . S
C2273 C768 1.579 . S
C2279 C972 1.579 . S
C2293 C1006 1.590 . S
C2299 C802 1.590 . S
C2313 C9 1.293 . S
C2319 C271 1.330 . S
C2333 C43 1.293 . S
C2339 C305 1.330 . S
C2353 C237 1.330 . S
C2359 C77 1.287 . S
C2373 C407 1.344 . S
C2379 C111 1.302 . S
C2393 C339 1.335 . S
C2399 C145 1.286 . S
C2413 C373 1.333 . S
C2419 C179 1.302 . S
C2433 C67 1.330 . S
C2439 C213 1.285 . S
C2453 C101 1.341 . S
C2459 C247 1.295 . S
C2473 C33 1.330 . S
C2479 C281 1.295 . S
C2493 C315 1.301 . S
C2499 C203 1.344 . S
C2513 C349 1.284 . S
C2519 C135 1.332 . S
C2533 C169 1.335 . S
C2539 C383 1.285 . S
C2553 C679 1.345 . S
C2559 C417 1.312 . S
C2573 C451 1.300 . S
C2579 C713 1.332 . S
C2593 C645 1.332 . S
C2599 C485 1.300 . S
C2613 C815 1.334 . S
C2619 C519 1.285 . S
C2633 C553 1.308 . S
C2639 C747 1.336 . S
C2653 C587 1.297 . S
C2659 C781 1.342 . S
C2673 C621 1.297 . S
C2679 C475 1.342 . S
C2693 C655 1.312 . S
C2699 C509 1.345 . S
C2713 C689 1.312 . S
C2719 C441 1.345 . S
C2733 C723 1.308 . S
C2739 C611 1.345 . S
C2753 C543 1.340 . S
C2759 C757 1.293 . S
C2773 C577 1.341 . S
C2779 C791 1.295 . S
C2793 C1087 1.331 . S
C2799 C825 1.298 . S
C2813 C1121 1.345 . S
C2819 C859 1.310 . S
C2833 C1053 1.332 . S
C2839 C893 1.284 . S
C2853 C1223 1.343 . S
C2859 C927 1.300 . S
C2873 C961 1.313 . S
C2879 C1155 1.340 . S
C2893 C1189 1.342 . S
C2899 C995 1.295 . S
C2913 C883 1.330 . S
C2919 C1029 1.291 . S
C2933 C917 1.343 . S
C2939 C1063 1.314 . S
C2953 C849 1.331 . S
C2959 C1097 1.296 . S
C2973 C1131 1.306 . S
C2979 C1019 1.334 . S
C2993 C1165 1.303 . S
C2999 C951 1.344 . S
C3013 C985 1.330 . S
C3019 C1199 1.289 . S
