# Generated by pormake.
# Topology whw, (6)-cn, num edge types: 1
# Building blocks:
#     Node 0, Type 0, BuildingBlock: UKALOJ_clean_sbu_0, # of connection points: 6
#     Node 1, Type 0, BuildingBlock: UKALOJ_clean_sbu_0, # of connection points: 6
#     Node 2, Type 0, BuildingBlock: UKALOJ_clean_sbu_0, # of connection points: 6
#     Node 3, Type 0, BuildingBlock: UKALOJ_clean_sbu_0, # of connection points: 6
#     Node 4, Type 0, BuildingBlock: UKALOJ_clean_sbu_0, # of connection points: 6
#     Node 5, Type 0, BuildingBlock: UKALOJ_clean_sbu_0, # of connection points: 6
#     Node 6, Type 0, BuildingBlock: UKALOJ_clean_sbu_0, # of connection points: 6
#     Node 7, Type 0, BuildingBlock: UKALOJ_clean_sbu_0, # of connection points: 6
#     Node 8, Type 0, BuildingBlock: UKALOJ_clean_sbu_0, # of connection points: 6
#     Node 9, Type 0, BuildingBlock: UKALOJ_clean_sbu_0, # of connection points: 6
#     Node 10, Type 0, BuildingBlock: UKALOJ_clean_sbu_0, # of connection points: 6
#     Node 11, Type 0, BuildingBlock: UKALOJ_clean_sbu_0, # of connection points: 6
#     Node 12, Type 0, BuildingBlock: UKALOJ_clean_sbu_0, # of connection points: 6
#     Node 13, Type 0, BuildingBlock: UKALOJ_clean_sbu_0, # of connection points: 6
#     Node 14, Type 0, BuildingBlock: UKALOJ_clean_sbu_0, # of connection points: 6
#     Node 15, Type 0, BuildingBlock: UKALOJ_clean_sbu_0, # of connection points: 6
#     Edge 16, Type (0, 0), BuildingBlock: MIFKUJ_clean_linker_0, # of connection points: 2
#     Edge 17, Type (0, 0), BuildingBlock: MIFKUJ_clean_linker_0, # of connection points: 2
#     Edge 18, Type (0, 0), BuildingBlock: MIFKUJ_clean_linker_0, # of connection points: 2
#     Edge 19, Type (0, 0), BuildingBlock: MIFKUJ_clean_linker_0, # of connection points: 2
#     Edge 20, Type (0, 0), BuildingBlock: MIFKUJ_clean_linker_0, # of connection points: 2
#     Edge 21, Type (0, 0), BuildingBlock: MIFKUJ_clean_linker_0, # of connection points: 2
#     Edge 22, Type (0, 0), BuildingBlock: MIFKUJ_clean_linker_0, # of connection points: 2
#     Edge 23, Type (0, 0), BuildingBlock: MIFKUJ_clean_linker_0, # of connection points: 2
#     Edge 24, Type (0, 0), BuildingBlock: MIFKUJ_clean_linker_0, # of connection points: 2
#     Edge 25, Type (0, 0), BuildingBlock: MIFKUJ_clean_linker_0, # of connection points: 2
#     Edge 26, Type (0, 0), BuildingBlock: MIFKUJ_clean_linker_0, # of connection points: 2
#     Edge 27, Type (0, 0), BuildingBlock: MIFKUJ_clean_linker_0, # of connection points: 2
#     Edge 28, Type (0, 0), BuildingBlock: MIFKUJ_clean_linker_0, # of connection points: 2
#     Edge 29, Type (0, 0), BuildingBlock: MIFKUJ_clean_linker_0, # of connection points: 2
#     Edge 30, Type (0, 0), BuildingBlock: MIFKUJ_clean_linker_0, # of connection points: 2
#     Edge 31, Type (0, 0), BuildingBlock: MIFKUJ_clean_linker_0, # of connection points: 2
#     Edge 32, Type (0, 0), BuildingBlock: MIFKUJ_clean_linker_0, # of connection points: 2
#     Edge 33, Type (0, 0), BuildingBlock: MIFKUJ_clean_linker_0, # of connection points: 2
#     Edge 34, Type (0, 0), BuildingBlock: MIFKUJ_clean_linker_0, # of connection points: 2
#     Edge 35, Type (0, 0), BuildingBlock: MIFKUJ_clean_linker_0, # of connection points: 2
#     Edge 36, Type (0, 0), BuildingBlock: MIFKUJ_clean_linker_0, # of connection points: 2
#     Edge 37, Type (0, 0), BuildingBlock: MIFKUJ_clean_linker_0, # of connection points: 2
#     Edge 38, Type (0, 0), BuildingBlock: MIFKUJ_clean_linker_0, # of connection points: 2
#     Edge 39, Type (0, 0), BuildingBlock: MIFKUJ_clean_linker_0, # of connection points: 2
#     Edge 40, Type (0, 0), BuildingBlock: MIFKUJ_clean_linker_0, # of connection points: 2
#     Edge 41, Type (0, 0), BuildingBlock: MIFKUJ_clean_linker_0, # of connection points: 2
#     Edge 42, Type (0, 0), BuildingBlock: MIFKUJ_clean_linker_0, # of connection points: 2
#     Edge 43, Type (0, 0), BuildingBlock: MIFKUJ_clean_linker_0, # of connection points: 2
#     Edge 44, Type (0, 0), BuildingBlock: MIFKUJ_clean_linker_0, # of connection points: 2
#     Edge 45, Type (0, 0), BuildingBlock: MIFKUJ_clean_linker_0, # of connection points: 2
#     Edge 46, Type (0, 0), BuildingBlock: MIFKUJ_clean_linker_0, # of connection points: 2
#     Edge 47, Type (0, 0), BuildingBlock: MIFKUJ_clean_linker_0, # of connection points: 2
#     Edge 48, Type (0, 0), BuildingBlock: MIFKUJ_clean_linker_0, # of connection points: 2
#     Edge 49, Type (0, 0), BuildingBlock: MIFKUJ_clean_linker_0, # of connection points: 2
#     Edge 50, Type (0, 0), BuildingBlock: MIFKUJ_clean_linker_0, # of connection points: 2
#     Edge 51, Type (0, 0), BuildingBlock: MIFKUJ_clean_linker_0, # of connection points: 2
#     Edge 52, Type (0, 0), BuildingBlock: MIFKUJ_clean_linker_0, # of connection points: 2
#     Edge 53, Type (0, 0), BuildingBlock: MIFKUJ_clean_linker_0, # of connection points: 2
#     Edge 54, Type (0, 0), BuildingBlock: MIFKUJ_clean_linker_0, # of connection points: 2
#     Edge 55, Type (0, 0), BuildingBlock: MIFKUJ_clean_linker_0, # of connection points: 2
#     Edge 56, Type (0, 0), BuildingBlock: MIFKUJ_clean_linker_0, # of connection points: 2
#     Edge 57, Type (0, 0), BuildingBlock: MIFKUJ_clean_linker_0, # of connection points: 2
#     Edge 58, Type (0, 0), BuildingBlock: MIFKUJ_clean_linker_0, # of connection points: 2
#     Edge 59, Type (0, 0), BuildingBlock: MIFKUJ_clean_linker_0, # of connection points: 2
#     Edge 60, Type (0, 0), BuildingBlock: MIFKUJ_clean_linker_0, # of connection points: 2
#     Edge 61, Type (0, 0), BuildingBlock: MIFKUJ_clean_linker_0, # of connection points: 2
#     Edge 62, Type (0, 0), BuildingBlock: MIFKUJ_clean_linker_0, # of connection points: 2
#     Edge 63, Type (0, 0), BuildingBlock: MIFKUJ_clean_linker_0, # of connection points: 2
# Relax obj value: 0.811
# Max RMSD: 0.237
# Mean RMSD: 0.237
data_MOF--net-whw--node1-UKALOJ_clean_sbu_0--edge1-MIFKUJ_clean_linker_0
_symmetry_space_group_name_H-M    P1
_symmetry_Int_Tables_number       1
_symmetry_cell_setting            triclinic
loop_
_symmetry_equiv_pos_as_xyz
'x, y, z'
_cell_length_a     81.010859
_cell_length_b     80.964689
_cell_length_c     28.8551
_cell_angle_alpha  90.045902
_cell_angle_beta   90.108685
_cell_angle_gamma 90.032548
loop_
_atom_site_label
_atom_site_type_symbol
_atom_site_fract_x
_atom_site_fract_y
_atom_site_fract_z
_atom_type_partial_charge
Zn0 Zn 0.02386 0.13116 0.1255 0.0
O1 O 0.00529 0.13791 0.07375 0.0
C2 C 0.05043 0.14115 0.05876 0.0
Zn3 Zn 0.02903 0.15824 0.12862 0.0
C4 C 0.00329 0.15286 0.06047 0.0
O5 O 0.01232 0.16426 0.07723 0.0
C6 C 0.04943 0.13839 0.1958 0.0
O7 O 0.01015 0.16143 0.1773 0.0
O8 O 0.00542 0.13483 0.18115 0.0
N9 N 0.03747 0.18188 0.13708 0.0
C10 C 0.03838 0.18805 0.18037 0.0
C11 C 0.06191 0.19186 0.14936 0.0
N12 N 0.05203 0.18469 0.1176 0.0
N13 N 0.05378 0.19348 0.18966 0.0
C14 C 0.01795 0.09501 0.08698 0.0
C15 C 0.01235 0.08205 0.14913 0.0
N16 N 0.01801 0.10621 0.12184 0.0
N17 N 0.01448 0.09806 0.16031 0.0
N18 N 0.01455 0.07964 0.10329 0.0
H19 H 0.01666 0.11239 0.03057 0.0
H20 H 0.01306 0.09111 0.01429 0.0
H21 H 0.03362 0.09817 0.02813 0.0
C22 C 0.02036 0.09943 0.03704 0.0
C23 C 0.02351 0.19184 0.20954 0.0
H24 H 0.02172 0.18201 0.23579 0.0
H25 H 0.01229 0.1927 0.18755 0.0
H26 H 0.02519 0.20375 0.2281 0.0
O27 O 0.04547 0.15249 0.18107 0.0
O28 O 0.04265 0.12566 0.17813 0.0
C29 C 0.00215 0.1495 0.19472 0.0
O30 O 0.04214 0.12842 0.0703 0.0
O31 O 0.04758 0.15476 0.07869 0.0
Zn32 Zn 0.1401 0.75392 0.38878 0.0
O33 O 0.13179 0.73591 0.33638 0.0
C34 C 0.12928 0.78116 0.32396 0.0
Zn35 Zn 0.11359 0.76054 0.39547 0.0
C36 C 0.11648 0.73443 0.32584 0.0
O37 O 0.1059 0.74344 0.34627 0.0
C38 C 0.13534 0.78069 0.45781 0.0
O39 O 0.11102 0.74211 0.44781 0.0
O40 O 0.1371 0.73504 0.44256 0.0
N41 N 0.09046 0.76973 0.40522 0.0
C42 C 0.08429 0.7766 0.44404 0.0
C43 C 0.06878 0.78387 0.38811 0.0
N44 N 0.08091 0.7744 0.37038 0.0
N45 N 0.07082 0.78591 0.43423 0.0
C46 C 0.17489 0.74632 0.3442 0.0
C47 C 0.18965 0.74404 0.40503 0.0
N48 N 0.16464 0.74756 0.38101 0.0
N49 N 0.17388 0.74599 0.41864 0.0
N50 N 0.19068 0.74417 0.35845 0.0
H51 H 0.15613 0.75024 0.29181 0.0
H52 H 0.17308 0.73741 0.27445 0.0
H53 H 0.17617 0.75924 0.27959 0.0
C54 C 0.16963 0.74849 0.29478 0.0
C55 C 0.09149 0.77393 0.49153 0.0
H56 H 0.08173 0.77077 0.51653 0.0
H57 H 0.09772 0.78537 0.50334 0.0
H58 H 0.10056 0.76385 0.49251 0.0
O59 O 0.12112 0.77785 0.44232 0.0
O60 O 0.14736 0.77209 0.44281 0.0
C61 C 0.12294 0.73307 0.46103 0.0
O62 O 0.14223 0.77301 0.33454 0.0
O63 O 0.11594 0.77805 0.34463 0.0
Zn64 Zn 0.50945 0.86465 0.62996 0.0
O65 O 0.52563 0.85592 0.57447 0.0
C66 C 0.48023 0.85996 0.56735 0.0
Zn67 Zn 0.49934 0.83906 0.63192 0.0
C68 C 0.52495 0.84105 0.55942 0.0
O69 O 0.51469 0.831 0.5775 0.0
C70 C 0.48342 0.86095 0.70191 0.0
O71 O 0.51763 0.83263 0.68071 0.0
O72 O 0.52815 0.8576 0.68082 0.0
N73 N 0.4866 0.81728 0.63747 0.0
C74 C 0.48183 0.81027 0.67761 0.0
C75 C 0.46373 0.804 0.62684 0.0
N76 N 0.4753 0.81338 0.60603 0.0
N77 N 0.46716 0.80236 0.6723 0.0
C78 C 0.51894 0.89984 0.59371 0.0
C79 C 0.52784 0.91135 0.65524 0.0
N80 N 0.51881 0.8883 0.6275 0.0
N81 N 0.52442 0.8955 0.66561 0.0
N82 N 0.52439 0.91451 0.61039 0.0
H83 H 0.51705 0.88328 0.53541 0.0
H84 H 0.52179 0.90445 0.52055 0.0
H85 H 0.50126 0.89879 0.53856 0.0
C86 C 0.51459 0.89638 0.54412 0.0
C87 C 0.49255 0.80995 0.72034 0.0
H88 H 0.50569 0.80954 0.71083 0.0
H89 H 0.49086 0.79867 0.74108 0.0
H90 H 0.49011 0.82099 0.74205 0.0
O91 O 0.48414 0.84675 0.68429 0.0
O92 O 0.49297 0.87223 0.68683 0.0
C93 C 0.5282 0.84283 0.6961 0.0
O94 O 0.49049 0.87115 0.57879 0.0
O95 O 0.48162 0.84576 0.5848 0.0
Zn96 Zn 0.40299 0.24632 0.90582 0.0
O97 O 0.40859 0.26432 0.85186 0.0
C98 C 0.42354 0.22031 0.85468 0.0
Zn99 Zn 0.42966 0.24527 0.92457 0.0
C100 C 0.42374 0.26768 0.84371 0.0
O101 O 0.4349 0.26138 0.8693 0.0
C102 C 0.41048 0.22291 0.98437 0.0
O103 O 0.42472 0.26531 0.96693 0.0
O104 O 0.39791 0.2662 0.95544 0.0
N105 N 0.45319 0.2463 0.94809 0.0
C106 C 0.46298 0.23219 0.97899 0.0
C107 C 0.48095 0.26104 0.97489 0.0
N108 N 0.46328 0.26266 0.94588 0.0
N109 N 0.48105 0.24135 0.99353 0.0
C110 C 0.36659 0.25357 0.86608 0.0
C111 C 0.35563 0.2302 0.88026 0.0
N112 N 0.37834 0.24407 0.88624 0.0
N113 N 0.37139 0.22959 0.89473 0.0
N114 N 0.35216 0.2451 0.86197 0.0
H115 H 0.37867 0.27698 0.87529 0.0
H116 H 0.35742 0.27826 0.8554 0.0
H117 H 0.37353 0.27177 0.81641 0.0
C118 C 0.36915 0.27124 0.85278 0.0
C119 C 0.45763 0.215 0.9901 0.0
H120 H 0.44912 0.21538 0.0201 0.0
H121 H 0.46845 0.20737 0.99991 0.0
H122 H 0.45108 0.20956 0.95995 0.0
O123 O 0.42456 0.22914 0.97783 0.0
O124 O 0.39842 0.22766 0.95946 0.0
C125 C 0.41086 0.27187 0.9752 0.0
O126 O 0.40927 0.22694 0.85697 0.0
O127 O 0.43494 0.22525 0.88158 0.0
Zn128 Zn 0.02663 0.83747 0.87356 0.0
O129 O 0.00743 0.8361 0.82438 0.0
C130 C 0.04944 0.85616 0.8104 0.0
Zn131 Zn 0.0236 0.86475 0.87921 0.0
C132 C 0.00075 0.84894 0.80774 0.0
O133 O 0.00512 0.86309 0.82305 0.0
C134 C 0.04942 0.85187 0.94392 0.0
O135 O 0.00459 0.8592 0.93173 0.0
O136 O 0.00925 0.83247 0.92432 0.0
N137 N 0.01982 0.8901 0.88373 0.0
C138 C 0.0184 0.9012 0.91865 0.0
C139 C 0.01873 0.91476 0.85545 0.0
N140 N 0.01991 0.89864 0.84464 0.0
N141 N 0.01776 0.91685 0.90172 0.0
C142 C 0.03677 0.80551 0.82559 0.0
C143 C 0.04243 0.78926 0.88143 0.0
N144 N 0.03246 0.81326 0.86507 0.0
N145 N 0.03612 0.80323 0.89984 0.0
N146 N 0.04345 0.79061 0.83494 0.0
H147 H 0.0261 0.82326 0.7767 0.0
H148 H 0.02749 0.80255 0.75609 0.0
H149 H 0.04564 0.81531 0.76103 0.0
C150 C 0.03372 0.81209 0.77748 0.0
C151 C 0.01843 0.89672 0.96899 0.0
H152 H 0.02262 0.88387 0.97441 0.0
H153 H 0.00568 0.8977 0.98261 0.0
H154 H 0.0264 0.90537 0.9888 0.0
O155 O 0.04222 0.8654 0.9338 0.0
O156 O 0.04518 0.83873 0.92325 0.0
C157 C 0.00145 0.84426 0.94343 0.0
O158 O 0.04431 0.84225 0.82364 0.0
O159 O 0.04299 0.86915 0.82739 0.0
Zn160 Zn 0.42868 0.76202 0.13785 0.0
O161 O 0.434 0.74487 0.08467 0.0
C162 C 0.40996 0.78385 0.0708 0.0
Zn163 Zn 0.40215 0.75563 0.13064 0.0
C164 C 0.42333 0.73649 0.06255 0.0
O165 O 0.40816 0.73792 0.07416 0.0
C166 C 0.40934 0.78163 0.20333 0.0
O167 O 0.40803 0.73669 0.18326 0.0
O168 O 0.43427 0.74389 0.18647 0.0
N169 N 0.37744 0.74891 0.1294 0.0
C170 C 0.3658 0.74868 0.16296 0.0
C171 C 0.35382 0.74248 0.09957 0.0
N172 N 0.36993 0.74501 0.0901 0.0
N173 N 0.3508 0.74482 0.14506 0.0
C174 C 0.46161 0.7749 0.10084 0.0
C175 C 0.47478 0.78142 0.16192 0.0
N176 N 0.45202 0.77094 0.13721 0.0
N177 N 0.46003 0.77539 0.17519 0.0
N178 N 0.47614 0.78144 0.11523 0.0
H179 H 0.46525 0.7625 0.03558 0.0
H180 H 0.45822 0.78357 0.03098 0.0
H181 H 0.4442 0.76783 0.04583 0.0
C182 C 0.45697 0.77194 0.05086 0.0
C183 C 0.36939 0.75132 0.21341 0.0
H184 H 0.38226 0.7478 0.2218 0.0
H185 H 0.36082 0.74399 0.23519 0.0
H186 H 0.3678 0.76459 0.22192 0.0
O187 O 0.3972 0.77384 0.18556 0.0
O188 O 0.42381 0.77851 0.18978 0.0
C189 C 0.42254 0.7347 0.20003 0.0
O190 O 0.42326 0.78041 0.09134 0.0
O191 O 0.39734 0.77486 0.07842 0.0
Zn192 Zn 0.51325 0.12879 0.39418 0.0
O193 O 0.53169 0.13599 0.44506 0.0
C194 C 0.48813 0.14052 0.4625 0.0
Zn195 Zn 0.50819 0.15573 0.38811 0.0
C196 C 0.53476 0.1511 0.45472 0.0
O197 O 0.52671 0.16255 0.4347 0.0
C198 C 0.48609 0.13467 0.32845 0.0
O199 O 0.52558 0.15767 0.33426 0.0
O200 O 0.53143 0.13126 0.33904 0.0
N201 N 0.50023 0.17937 0.37769 0.0
C202 C 0.49349 0.18564 0.3387 0.0
C203 C 0.4888 0.2028 0.39303 0.0
N204 N 0.49721 0.19 0.41154 0.0
N205 N 0.48585 0.2001 0.34763 0.0
C206 C 0.51933 0.09332 0.43557 0.0
C207 C 0.52405 0.07971 0.3737 0.0
N208 N 0.5191 0.10417 0.40004 0.0
N209 N 0.52214 0.09566 0.36178 0.0
N210 N 0.52239 0.07788 0.41982 0.0
H211 H 0.51873 0.11055 0.4924 0.0
H212 H 0.52103 0.08917 0.50948 0.0
H213 H 0.50147 0.09658 0.48901 0.0
C214 C 0.51503 0.09766 0.48454 0.0
C215 C 0.4947 0.17786 0.29137 0.0
H216 H 0.50464 0.1687 0.28875 0.0
H217 H 0.49693 0.18741 0.26476 0.0
H218 H 0.4829 0.17161 0.28279 0.0
O219 O 0.48966 0.14884 0.34333 0.0
O220 O 0.49439 0.12233 0.34258 0.0
C221 C 0.5338 0.14532 0.3204 0.0
O222 O 0.49522 0.12722 0.44974 0.0
O223 O 0.49148 0.15392 0.44202 0.0
Zn224 Zn 0.11292 0.2407 0.61591 0.0
O225 O 0.11131 0.26036 0.56899 0.0
C226 C 0.13184 0.2201 0.54702 0.0
Zn227 Zn 0.14018 0.24445 0.62026 0.0
C228 C 0.12356 0.26858 0.55427 0.0
O229 O 0.13801 0.26457 0.56822 0.0
C230 C 0.12774 0.21708 0.68276 0.0
O231 O 0.13416 0.26221 0.67475 0.0
O232 O 0.10746 0.25672 0.67007 0.0
N233 N 0.16545 0.24878 0.62638 0.0
C234 C 0.17625 0.24869 0.66227 0.0
C235 C 0.19001 0.25382 0.60122 0.0
N236 N 0.1741 0.25197 0.58861 0.0
N237 N 0.19189 0.25177 0.64734 0.0
C238 C 0.08012 0.23807 0.56797 0.0
C239 C 0.07561 0.21238 0.57797 0.0
N240 N 0.08908 0.23345 0.60495 0.0
N241 N 0.08606 0.2175 0.61143 0.0
N242 N 0.07218 0.22502 0.54947 0.0
H243 H 0.08381 0.25883 0.52347 0.0
H244 H 0.08013 0.26404 0.58395 0.0
H245 H 0.06345 0.25726 0.54672 0.0
C246 C 0.07674 0.25564 0.55503 0.0
C247 C 0.17119 0.24629 0.71172 0.0
H248 H 0.15797 0.24922 0.71655 0.0
H249 H 0.17872 0.25419 0.73504 0.0
H250 H 0.17305 0.23317 0.72142 0.0
O251 O 0.14129 0.22438 0.67302 0.0
O252 O 0.11469 0.22172 0.66262 0.0
C253 C 0.11936 0.26453 0.68876 0.0
O254 O 0.118 0.22451 0.56255 0.0
O255 O 0.14489 0.22643 0.56432 0.0
Zn256 Zn 0.92561 0.25474 0.63526 0.0
O257 O 0.92999 0.23633 0.58561 0.0
C258 C 0.91028 0.27681 0.56276 0.0
Zn259 Zn 0.89819 0.25258 0.63137 0.0
C260 C 0.91779 0.22934 0.56594 0.0
O261 O 0.90305 0.23339 0.57763 0.0
C262 C 0.90817 0.27835 0.69867 0.0
O263 O 0.90073 0.23421 0.68579 0.0
O264 O 0.92768 0.23717 0.68706 0.0
N265 N 0.87272 0.24919 0.62873 0.0
C266 C 0.86154 0.24688 0.66292 0.0
C267 C 0.84807 0.25021 0.60016 0.0
N268 N 0.86428 0.25123 0.58981 0.0
N269 N 0.84594 0.24763 0.64591 0.0
C270 C 0.96016 0.26803 0.61452 0.0
C271 C 0.97182 0.26774 0.68081 0.0
N272 N 0.94982 0.26039 0.64375 0.0
N273 N 0.957 0.2603 0.68507 0.0
N274 N 0.97385 0.2732 0.63712 0.0
H275 H 0.94834 0.25998 0.55127 0.0
H276 H 0.96874 0.2679 0.54381 0.0
H277 H 0.95226 0.28195 0.55538 0.0
C278 C 0.95717 0.26948 0.56336 0.0
C279 C 0.8661 0.24231 0.71173 0.0
H280 H 0.87189 0.22992 0.71149 0.0
H281 H 0.85533 0.24149 0.73507 0.0
H282 H 0.87517 0.25125 0.72587 0.0
O283 O 0.89478 0.27197 0.68391 0.0
O284 O 0.92171 0.2729 0.68351 0.0
C285 C 0.91478 0.23024 0.70223 0.0
O286 O 0.9234 0.27222 0.58267 0.0
O287 O 0.89652 0.27095 0.57625 0.0
Zn288 Zn 0.60939 0.73013 0.13302 0.0
O289 O 0.60254 0.74526 0.07519 0.0
C290 C 0.62922 0.7104 0.06669 0.0
Zn291 Zn 0.63498 0.73986 0.12925 0.0
C292 C 0.6127 0.75554 0.05764 0.0
O293 O 0.62723 0.75666 0.07473 0.0
C294 C 0.63082 0.71437 0.20304 0.0
O295 O 0.62811 0.75847 0.1823 0.0
O296 O 0.60284 0.74888 0.17837 0.0
N297 N 0.65931 0.74787 0.12583 0.0
C298 C 0.67112 0.74907 0.15891 0.0
C299 C 0.68293 0.75234 0.09378 0.0
N300 N 0.66672 0.74998 0.08545 0.0
N301 N 0.68619 0.75165 0.13964 0.0
C302 C 0.57751 0.71076 0.11155 0.0
C303 C 0.56637 0.70904 0.17817 0.0
N304 N 0.58671 0.71983 0.14086 0.0
N305 N 0.57987 0.71864 0.18235 0.0
N306 N 0.56478 0.70353 0.13427 0.0
H307 H 0.58931 0.71962 0.04896 0.0
H308 H 0.56902 0.71157 0.04131 0.0
H309 H 0.58592 0.69769 0.05145 0.0
C310 C 0.58066 0.70992 0.06046 0.0
C311 C 0.66761 0.7484 0.20989 0.0
H312 H 0.65477 0.75213 0.21731 0.0
H313 H 0.67611 0.75666 0.22923 0.0
H314 H 0.66923 0.73557 0.22248 0.0
O315 O 0.64215 0.72268 0.18354 0.0
O316 O 0.61614 0.71568 0.18889 0.0
C317 C 0.61307 0.75901 0.19572 0.0
O318 O 0.61573 0.71111 0.08853 0.0
O319 O 0.64031 0.72119 0.07528 0.0
Zn320 Zn 0.63579 0.25052 0.88816 0.0
O321 O 0.63443 0.23028 0.83822 0.0
C322 C 0.62667 0.27137 0.80817 0.0
Zn323 Zn 0.60869 0.25279 0.88101 0.0
C324 C 0.62039 0.22465 0.82613 0.0
O325 O 0.60747 0.23145 0.84146 0.0
C326 C 0.62264 0.27882 0.94335 0.0
O327 O 0.60419 0.23883 0.9393 0.0
O328 O 0.63068 0.23298 0.94546 0.0
N329 N 0.58437 0.25619 0.86819 0.0
C330 C 0.57622 0.26989 0.85448 0.0
C331 C 0.5611 0.24912 0.83776 0.0
N332 N 0.57492 0.24333 0.85796 0.0
N333 N 0.5618 0.26568 0.83463 0.0
C334 C 0.6729 0.24788 0.85895 0.0
C335 C 0.6856 0.24463 0.92292 0.0
N336 N 0.66132 0.24754 0.89277 0.0
N337 N 0.66929 0.24548 0.93247 0.0
N338 N 0.68825 0.24625 0.877 0.0
H339 H 0.65681 0.24407 0.79974 0.0
H340 H 0.67844 0.24193 0.78767 0.0
H341 H 0.6696 0.26206 0.79702 0.0
C342 C 0.66918 0.24894 0.80803 0.0
C343 C 0.58246 0.28729 0.85891 0.0
H344 H 0.59589 0.28809 0.85292 0.0
H345 H 0.57999 0.29168 0.89466 0.0
H346 H 0.57605 0.29565 0.83433 0.0
O347 O 0.60977 0.27424 0.9217 0.0
O348 O 0.63605 0.27075 0.93809 0.0
C349 C 0.61576 0.23097 0.95925 0.0
O350 O 0.63951 0.26812 0.83179 0.0
O351 O 0.61292 0.26591 0.82157 0.0
Zn352 Zn 0.8984 0.74206 0.38342 0.0
O353 O 0.90662 0.7589 0.32833 0.0
C354 C 0.9099 0.7133 0.32657 0.0
Zn355 Zn 0.92504 0.73673 0.39374 0.0
C356 C 0.92183 0.7601 0.31683 0.0
O357 O 0.93255 0.75154 0.33833 0.0
C358 C 0.90338 0.71873 0.46146 0.0
O359 O 0.92732 0.75761 0.43718 0.0
O360 O 0.90064 0.76215 0.43445 0.0
N361 N 0.94839 0.72881 0.40783 0.0
C362 C 0.95524 0.7252 0.44925 0.0
C363 C 0.97101 0.71542 0.39714 0.0
N364 N 0.95811 0.72256 0.37549 0.0
N365 N 0.96938 0.7165 0.44362 0.0
C366 C 0.86358 0.74728 0.33613 0.0
C367 C 0.84933 0.75526 0.39389 0.0
N368 N 0.87383 0.74793 0.37315 0.0
N369 N 0.8649 0.75291 0.40887 0.0
N370 N 0.84803 0.75176 0.34833 0.0
H371 H 0.88235 0.74608 0.28339 0.0
H372 H 0.86172 0.74995 0.26195 0.0
H373 H 0.86747 0.72966 0.2821 0.0
C374 C 0.86911 0.74311 0.28802 0.0
C375 C 0.94793 0.73015 0.49513 0.0
H376 H 0.9427 0.71908 0.51224 0.0
H377 H 0.93798 0.73928 0.49181 0.0
H378 H 0.95742 0.73557 0.51811 0.0
O379 O 0.9178 0.7221 0.44841 0.0
O380 O 0.8912 0.72498 0.43968 0.0
C381 C 0.91491 0.76599 0.4499 0.0
O382 O 0.89707 0.72215 0.33251 0.0
O383 O 0.92283 0.71653 0.34954 0.0
Zn384 Zn 0.52831 0.63107 0.62929 0.0
O385 O 0.51047 0.63822 0.57624 0.0
C386 C 0.55315 0.63832 0.55361 0.0
Zn387 Zn 0.53728 0.65662 0.62702 0.0
C388 C 0.50808 0.65344 0.56654 0.0
O389 O 0.51696 0.66438 0.58623 0.0
C390 C 0.5581 0.63522 0.68771 0.0
O391 O 0.52305 0.6608 0.68833 0.0
O392 O 0.51032 0.63702 0.68353 0.0
N393 N 0.54627 0.68012 0.63197 0.0
C394 C 0.55327 0.68749 0.66906 0.0
C395 C 0.54523 0.70645 0.62397 0.0
N396 N 0.54183 0.69196 0.60304 0.0
N397 N 0.55207 0.70405 0.66616 0.0
C398 C 0.52053 0.59505 0.59467 0.0
C399 C 0.51177 0.58364 0.65638 0.0
N400 N 0.52046 0.60675 0.62811 0.0
N401 N 0.51496 0.5996 0.66634 0.0
N402 N 0.51525 0.58039 0.61165 0.0
H403 H 0.52169 0.61116 0.53538 0.0
H404 H 0.51805 0.58965 0.52176 0.0
H405 H 0.53823 0.5964 0.53995 0.0
C406 C 0.52478 0.59827 0.54498 0.0
C407 C 0.55917 0.67876 0.71207 0.0
H408 H 0.56212 0.68758 0.74036 0.0
H409 H 0.57076 0.67211 0.70403 0.0
H410 H 0.54983 0.66988 0.72473 0.0
O411 O 0.55755 0.64851 0.66495 0.0
O412 O 0.54639 0.62486 0.68298 0.0
C413 C 0.51202 0.651 0.70339 0.0
O414 O 0.54653 0.62621 0.57489 0.0
O415 O 0.55059 0.65293 0.56744 0.0
Zn416 Zn 0.01228 0.3375 0.12939 0.0
O417 O 0.03228 0.33514 0.17617 0.0
C418 C 0.99241 0.35459 0.20085 0.0
Zn419 Zn 0.01627 0.36478 0.12571 0.0
C420 C 0.04011 0.3476 0.19149 0.0
O421 O 0.03628 0.362 0.17684 0.0
C422 C 0.98854 0.3535 0.06447 0.0
O423 O 0.03396 0.36066 0.06976 0.0
O424 O 0.02856 0.33407 0.07489 0.0
N425 N 0.01942 0.39027 0.12397 0.0
C426 C 0.02081 0.40147 0.08935 0.0
C427 C 0.01864 0.41497 0.15243 0.0
N428 N 0.01816 0.39877 0.16304 0.0
N429 N 0.02033 0.41707 0.10637 0.0
C430 C 0.0034 0.30324 0.16767 0.0
C431 C 0.99726 0.28959 0.10682 0.0
N432 N 0.00681 0.31295 0.13111 0.0
N433 N 0.00289 0.30451 0.0933 0.0
N434 N 0.99701 0.28865 0.15344 0.0
H435 H 0.01487 0.31879 0.2203 0.0
H436 H 0.01356 0.29744 0.23497 0.0
H437 H 0.99543 0.31038 0.23569 0.0
C438 C 0.00712 0.30774 0.21722 0.0
C439 C 0.0216 0.39719 0.0389 0.0
H440 H 0.03464 0.39783 0.02735 0.0
H441 H 0.01437 0.4062 0.01819 0.0
H442 H 0.01696 0.38454 0.03232 0.0
O443 O 0.99644 0.36658 0.07501 0.0
O444 O 0.99257 0.33993 0.08297 0.0
C445 C 0.03648 0.34585 0.05616 0.0
O446 O 0.99634 0.34076 0.18404 0.0
O447 O -0.00164 0.36771 0.18296 0.0
Zn448 Zn 0.52825 0.33871 0.38411 0.0
O449 O 0.50888 0.33915 0.334 0.0
C450 C 0.5489 0.35771 0.31772 0.0
Zn451 Zn 0.52299 0.36557 0.38903 0.0
C452 C 0.49978 0.35121 0.32275 0.0
O453 O 0.50231 0.36523 0.34139 0.0
C454 C 0.55095 0.35199 0.45038 0.0
O455 O 0.50624 0.35971 0.44679 0.0
O456 O 0.51085 0.33318 0.43522 0.0
N457 N 0.52119 0.39107 0.39643 0.0
C458 C 0.51465 0.40198 0.42688 0.0
C459 C 0.5274 0.41594 0.3756 0.0
N460 N 0.52901 0.3999 0.36473 0.0
N461 N 0.51851 0.41772 0.41462 0.0
C462 C 0.53307 0.30868 0.32265 0.0
C463 C 0.53124 0.28805 0.36775 0.0
N464 N 0.53169 0.31464 0.36622 0.0
N465 N 0.53078 0.30178 0.39441 0.0
N466 N 0.53308 0.2921 0.32268 0.0
H467 H 0.5299 0.33181 0.28236 0.0
H468 H 0.52204 0.3138 0.25619 0.0
H469 H 0.54389 0.31689 0.25906 0.0
C470 C 0.53217 0.31857 0.27832 0.0
C471 C 0.50357 0.39716 0.46606 0.0
H472 H 0.49415 0.38829 0.45337 0.0
H473 H 0.49707 0.40796 0.48098 0.0
H474 H 0.51097 0.39095 0.49336 0.0
O475 O 0.54367 0.36523 0.43766 0.0
O476 O 0.54661 0.33817 0.43357 0.0
C477 C 0.50368 0.3446 0.4579 0.0
O478 O 0.54658 0.34401 0.33709 0.0
O479 O 0.54 0.3699 0.32989 0.0
Zn480 Zn 0.01573 0.63182 0.88513 0.0
O481 O 0.03336 0.63628 0.94253 0.0
C482 C 0.98749 0.64196 0.94399 0.0
Zn483 Zn 0.01237 0.6589 0.88346 0.0
C484 C 0.03428 0.65068 0.96077 0.0
O485 O 0.02612 0.66245 0.94292 0.0
C486 C 0.99341 0.64217 0.8075 0.0
O487 O 0.03376 0.66241 0.84277 0.0
O488 O 0.03549 0.63553 0.83375 0.0
N489 N 0.00581 0.68304 0.88114 0.0
C490 C 0.00446 0.69209 0.84239 0.0
C491 C 0.98694 0.70161 0.89069 0.0
N492 N 0.99504 0.68906 0.91135 0.0
N493 N 0.9924 0.70338 0.84705 0.0
C494 C 0.01877 0.59488 0.91991 0.0
C495 C 0.02688 0.58254 0.8589 0.0
N496 N 0.02023 0.60647 0.88633 0.0
N497 N 0.02528 0.5987 0.84854 0.0
N498 N 0.02278 0.57971 0.90346 0.0
H499 H 0.02034 0.5897 0.99312 0.0
H500 H 0.00082 0.59775 0.97344 0.0
H501 H 0.01829 0.61132 0.9787 0.0
C502 C 0.0144 0.59864 0.96923 0.0
C503 C 0.01574 0.69065 0.8013 0.0
H504 H 0.02874 0.69142 0.81321 0.0
H505 H 0.01367 0.70071 0.77597 0.0
H506 H 0.01404 0.67862 0.78381 0.0
O507 O -0.00152 0.65571 0.82392 0.0
O508 O 0.99771 0.62875 0.82744 0.0
C509 C 0.0407 0.65003 0.82397 0.0
O510 O 0.99607 0.62913 0.93582 0.0
O511 O 0.99126 0.65534 0.92408 0.0
H512 H 0.04393 0.13802 0.96687 0.0
H513 H 0.06211 0.14613 0.90319 0.0
H514 H 0.10206 0.15334 1.0004 0.0
H515 H 0.08345 0.14624 0.06423 0.0
H516 H 0.10099 0.17849 0.9494 0.0
H517 H 0.1002 0.1206 0.91083 0.0
H518 H 0.08708 0.09373 0.89416 0.0
H519 H 0.06156 0.11494 0.77805 0.0
H520 H 0.07436 0.14197 0.79433 0.0
H521 H 0.14786 0.20959 0.75846 0.0
H522 H 0.1408 0.19097 0.82311 0.0
H523 H 0.09571 0.17737 0.75274 0.0
H524 H 0.1031 0.1948 0.68825 0.0
H525 H 0.10497 0.1522 0.79472 0.0
H526 H 0.10007 0.21017 0.84227 0.0
H527 H 0.11137 0.23794 0.85806 0.0
H528 H 0.14571 0.21725 0.95557 0.0
H529 H 0.1347 0.18935 0.93999 0.0
C530 C 0.05677 0.14073 0.97428 0.0
C531 C 0.06242 0.1411 0.02026 0.0
C532 C 0.06722 0.14541 0.93782 0.0
C533 C 0.08369 0.15019 0.94645 0.0
C534 C 0.08949 0.14973 0.99244 0.0
C535 C 0.07893 0.14545 0.02893 0.0
C536 C 0.09428 0.15718 0.90854 0.0
C537 C 0.10211 0.1725 0.91591 0.0
C538 C 0.09566 0.14969 0.86427 0.0
C539 C 0.08821 0.13333 0.85394 0.0
C540 C 0.09176 0.11954 0.88184 0.0
C541 C 0.08437 0.10429 0.87245 0.0
C542 C 0.07348 0.10264 0.8351 0.0
C543 C 0.07 0.11623 0.80695 0.0
C544 C 0.07735 0.13151 0.81618 0.0
C545 C 0.13672 0.20223 0.75643 0.0
C546 C 0.12597 0.20389 0.71839 0.0
C547 C 0.13254 0.19175 0.79367 0.0
C548 C 0.11743 0.18299 0.79373 0.0
C549 C 0.10738 0.18391 0.7542 0.0
C550 C 0.11162 0.19407 0.71717 0.0
C551 C 0.11112 0.17373 0.83517 0.0
C552 C 0.10411 0.15798 0.82855 0.0
C553 C 0.11026 0.18092 0.8799 0.0
C554 C 0.1167 0.19769 0.88963 0.0
C555 C 0.11007 0.21156 0.86694 0.0
C556 C 0.11642 0.22731 0.87585 0.0
C557 C 0.12928 0.22935 0.9077 0.0
C558 C 0.13577 0.21565 0.93085 0.0
C559 C 0.12948 0.19987 0.92202 0.0
H560 H 0.13419 0.24155 0.91452 0.0
H561 H 0.06775 0.09082 0.82796 0.0
H562 H 0.14062 0.77882 0.23457 0.0
H563 H 0.13112 0.79586 0.16922 0.0
H564 H 0.10582 0.82814 0.26458 0.0
H565 H 0.115 0.81104 0.32925 0.0
H566 H 0.08509 0.81717 0.20134 0.0
H567 H 0.13902 0.84153 0.19917 0.0
H568 H 0.16944 0.8416 0.19688 0.0
H569 H 0.16842 0.81701 0.06501 0.0
H570 H 0.13798 0.81658 0.06679 0.0
H571 H 0.05144 0.8687 0.0266 0.0
H572 H 0.06948 0.86172 0.09253 0.0
H573 H 0.0938 0.8248 0.00924 0.0
H574 H 0.07587 0.83161 0.94398 0.0
H575 H 0.11572 0.84066 0.06811 0.0
H576 H 0.06273 0.81367 0.07355 0.0
H577 H 0.0323 0.81299 0.0739 0.0
H578 H 0.03168 0.84153 0.19934 0.0
H579 H 0.06214 0.84269 0.19919 0.0
C580 C 0.13365 0.78995 0.24153 0.0
C581 C 0.12865 0.79371 0.28689 0.0
C582 C 0.12809 0.79964 0.20419 0.0
C583 C 0.11762 0.81327 0.21187 0.0
C584 C 0.11375 0.81766 0.25761 0.0
C585 C 0.11916 0.80797 0.29461 0.0
C586 C 0.10921 0.82189 0.17268 0.0
C587 C 0.09186 0.82261 0.17275 0.0
C588 C 0.11792 0.82861 0.1346 0.0
C589 C 0.13622 0.8289 0.13331 0.0
C590 C 0.14528 0.83602 0.16984 0.0
C591 C 0.16253 0.83615 0.16861 0.0
C592 C 0.17086 0.82928 0.13087 0.0
C593 C 0.16195 0.82231 0.09423 0.0
C594 C 0.1447 0.82214 0.09531 0.0
C595 C 0.06097 0.85946 0.02212 0.0
C596 C 0.06222 0.85063 0.98037 0.0
C597 C 0.0712 0.85541 0.05978 0.0
C598 C 0.08289 0.8426 0.05593 0.0
C599 C 0.08492 0.83471 0.01308 0.0
C600 C 0.07461 0.83858 0.97586 0.0
C601 C 0.09172 0.83604 0.09727 0.0
C602 C 0.10906 0.83551 0.0973 0.0
C603 C 0.08302 0.82937 0.13541 0.0
C604 C 0.06471 0.82845 0.13603 0.0
C605 C 0.0561 0.81992 0.10101 0.0
C606 C 0.03885 0.81943 0.10119 0.0
C607 C 0.03005 0.82724 0.13655 0.0
C608 C 0.03851 0.83552 0.1719 0.0
C609 C 0.05577 0.83611 0.17177 0.0
H610 H 0.0167 0.82686 0.1366 0.0
H611 H 0.18421 0.82939 0.12998 0.0
H612 H 0.39659 0.7807 0.29148 0.0
H613 H 0.40296 0.80095 0.35292 0.0
H614 H 0.42594 0.83265 0.25181 0.0
H615 H 0.41953 0.81268 0.19097 0.0
H616 H 0.44703 0.82037 0.32477 0.0
H617 H 0.39431 0.84713 0.30206 0.0
H618 H 0.36392 0.84791 0.29784 0.0
H619 H 0.36082 0.8314 0.43893 0.0
H620 H 0.3912 0.83028 0.44379 0.0
H621 H 0.48284 0.87441 0.48171 0.0
H622 H 0.46479 0.86807 0.41546 0.0
H623 H 0.43125 0.8425 0.50667 0.0
H624 H 0.44894 0.84913 0.57238 0.0
H625 H 0.41434 0.85379 0.43568 0.0
H626 H 0.46375 0.82249 0.45893 0.0
H627 H 0.49366 0.81827 0.46915 0.0
H628 H 0.50258 0.83854 0.33401 0.0
H629 H 0.47268 0.84316 0.32333 0.0
C630 C 0.40224 0.79237 0.28227 0.0
C631 C 0.40746 0.79526 0.23663 0.0
C632 C 0.406 0.80386 0.31731 0.0
C633 C 0.41503 0.81824 0.30685 0.0
C634 C 0.41898 0.82166 0.26061 0.0
C635 C 0.41521 0.8103 0.22587 0.0
C636 C 0.42265 0.82839 0.34405 0.0
C637 C 0.4399 0.82795 0.34843 0.0
C638 C 0.4133 0.83773 0.37596 0.0
C639 C 0.39504 0.83848 0.37314 0.0
C640 C 0.38715 0.84352 0.33206 0.0
C641 C 0.36993 0.84406 0.32958 0.0
C642 C 0.36044 0.83967 0.36806 0.0
C643 C 0.36818 0.83478 0.40914 0.0
C644 C 0.3854 0.83421 0.41178 0.0
C645 C 0.47118 0.86822 0.48777 0.0
C646 C 0.46729 0.86216 0.53194 0.0
C647 C 0.46096 0.86441 0.4499 0.0
C648 C 0.44688 0.85439 0.45591 0.0
C649 C 0.44204 0.85014 0.50095 0.0
C650 C 0.45218 0.85395 0.53857 0.0
C651 C 0.43879 0.84602 0.41587 0.0
C652 C 0.42149 0.84653 0.41133 0.0
C653 C 0.44804 0.83625 0.3845 0.0
C654 C 0.46601 0.83339 0.39059 0.0
C655 C 0.4721 0.82617 0.43154 0.0
C656 C 0.48905 0.8237 0.43741 0.0
C657 C 0.50003 0.82819 0.40231 0.0
C658 C 0.49406 0.83512 0.36122 0.0
C659 C 0.47712 0.83768 0.35524 0.0
H660 H 0.51315 0.82626 0.40687 0.0
H661 H 0.34711 0.84009 0.36607 0.0
H662 H 0.41049 0.21786 0.76785 0.0
H663 H 0.41942 0.1996 0.70537 0.0
H664 H 0.45393 0.17605 0.79847 0.0
H665 H 0.44586 0.19521 0.85997 0.0
H666 H 0.46874 0.18046 0.72401 0.0
H667 H 0.41547 0.15731 0.75502 0.0
H668 H 0.38535 0.15771 0.76727 0.0
H669 H 0.37812 0.17653 0.62965 0.0
H670 H 0.40821 0.17644 0.61675 0.0
H671 H 0.4912 0.12435 0.54561 0.0
H672 H 0.4775 0.13221 0.61844 0.0
H673 H 0.44743 0.16726 0.54384 0.0
H674 H 0.461 0.1595 0.47171 0.0
H675 H 0.43027 0.15275 0.61489 0.0
H676 H 0.48413 0.17822 0.58908 0.0
H677 H 0.51426 0.17696 0.57715 0.0
H678 H 0.52016 0.15256 0.70818 0.0
H679 H 0.49003 0.15334 0.72042 0.0
C680 C 0.4198 0.20861 0.77509 0.0
C681 C 0.42738 0.20785 0.81882 0.0
C682 C 0.42487 0.19807 0.73938 0.0
C683 C 0.43717 0.1861 0.74713 0.0
C684 C 0.44443 0.18511 0.79135 0.0
C685 C 0.43973 0.19599 0.82663 0.0
C686 C 0.44316 0.17533 0.70854 0.0
C687 C 0.46027 0.17411 0.70092 0.0
C688 C 0.43224 0.16714 0.67764 0.0
C689 C 0.41411 0.16694 0.68503 0.0
C690 C 0.40746 0.16159 0.72743 0.0
C691 C 0.39039 0.16176 0.73449 0.0
C692 C 0.37983 0.16716 0.69929 0.0
C693 C 0.38631 0.17235 0.65688 0.0
C694 C 0.40337 0.17221 0.64965 0.0
C695 C 0.48123 0.13325 0.54469 0.0
C696 C 0.47716 0.14136 0.50319 0.0
C697 C 0.47352 0.13786 0.58628 0.0
C698 C 0.46163 0.15053 0.58666 0.0
C699 C 0.45658 0.1575 0.54449 0.0
C700 C 0.46434 0.15305 0.50326 0.0
C701 C 0.45569 0.15803 0.63064 0.0
C702 C 0.43865 0.15878 0.63893 0.0
C703 C 0.46666 0.16566 0.66238 0.0
C704 C 0.48481 0.16561 0.65536 0.0
C705 C 0.49184 0.17247 0.61519 0.0
C706 C 0.50892 0.17185 0.60837 0.0
C707 C 0.5191 0.16461 0.64181 0.0
C708 C 0.51225 0.15809 0.68225 0.0
C709 C 0.49518 0.15861 0.68911 0.0
H710 H 0.5323 0.16407 0.63649 0.0
H711 H 0.36662 0.16731 0.70485 0.0
H712 H 0.95282 0.77208 0.30282 0.0
H713 H 0.96282 0.78917 0.23912 0.0
H714 H 0.91391 0.79027 0.18025 0.0
H715 H 0.90361 0.77344 0.24503 0.0
H716 H 0.95873 0.77886 0.13996 0.0
H717 H 0.90993 0.81927 0.16032 0.0
H718 H 0.89281 0.83549 0.21451 0.0
H719 H 0.93656 0.85429 0.28032 0.0
H720 H 0.95389 0.83791 0.22693 0.0
H721 H 0.9777 0.821 0.93673 0.0
H722 H 0.96073 0.80967 0.99891 0.0
H723 H 0.98121 0.84531 0.09423 0.0
H724 H 0.99774 0.85724 0.03091 0.0
H725 H 0.94954 0.83891 0.11693 0.0
H726 H 0.99751 0.8059 0.08379 0.0
H727 H 0.01643 0.79008 0.03367 0.0
H728 H 0.97719 0.75673 0.99812 0.0
H729 H 0.95796 0.77247 0.04748 0.0
C730 C 0.94409 0.77608 0.27666 0.0
C731 C 0.92738 0.77135 0.27909 0.0
C732 C 0.94985 0.78592 0.24029 0.0
C733 C 0.9391 0.79125 0.20522 0.0
C734 C 0.92236 0.7867 0.20755 0.0
C735 C 0.9165 0.77698 0.24444 0.0
C736 C 0.94594 0.80039 0.1647 0.0
C737 C 0.95648 0.79192 0.13439 0.0
C738 C 0.94347 0.81752 0.15821 0.0
C739 C 0.93313 0.82721 0.19029 0.0
C740 C 0.91586 0.82672 0.18673 0.0
C741 C 0.90613 0.83596 0.21719 0.0
C742 C 0.91359 0.84586 0.25097 0.0
C743 C 0.9308 0.84655 0.25429 0.0
C744 C 0.94057 0.83728 0.22402 0.0
C745 C 0.97825 0.82671 0.97068 0.0
C746 C 0.98902 0.83999 0.97905 0.0
C747 C 0.96863 0.82014 0.00635 0.0
C748 C 0.96997 0.8263 0.05174 0.0
C749 C 0.97998 0.84027 0.05963 0.0
C750 C 0.98939 0.84712 0.02345 0.0
C751 C 0.96202 0.81726 0.09107 0.0
C752 C 0.95154 0.82577 0.1217 0.0
C753 C 0.96462 0.8001 0.09804 0.0
C754 C 0.97626 0.79045 0.06903 0.0
C755 C 0.9929 0.79524 0.06512 0.0
C756 C 0.00368 0.78629 0.03686 0.0
C757 C -0.00199 0.77244 0.01267 0.0
C758 C 0.98156 0.76747 0.01683 0.0
C759 C 0.97072 0.77639 0.04497 0.0
H760 H 0.00637 0.76554 0.99077 0.0
H761 H 0.90605 0.85303 0.27446 0.0
H762 H 0.90579 0.23372 0.79224 0.0
H763 H 0.91616 0.21716 0.85746 0.0
H764 H 0.93911 0.18347 0.76135 0.0
H765 H 0.92916 0.20026 0.69636 0.0
H766 H 0.92527 0.16826 0.84742 0.0
H767 H 0.96096 0.2123 0.79181 0.0
H768 H 0.96712 0.2412 0.77136 0.0
H769 H 0.95648 0.25634 0.91078 0.0
H770 H 0.94972 0.22757 0.93167 0.0
H771 H 0.99304 0.13649 0.98195 0.0
H772 H 0.97358 0.14677 0.92319 0.0
H773 H 0.96407 0.18972 0.00791 0.0
H774 H 0.98408 0.17996 0.06471 0.0
H775 H 0.96939 0.19975 0.92776 0.0
H776 H 0.93495 0.15666 0.98721 0.0
H777 H 0.92753 0.12827 0.01005 0.0
H778 H 0.93451 0.11177 0.87 0.0
H779 H 0.94218 0.14003 0.84642 0.0
C780 C 0.91247 0.2224 0.78521 0.0
C781 C 0.91656 0.21808 0.73959 0.0
C782 C 0.91844 0.21301 0.82235 0.0
C783 C 0.92843 0.19911 0.81414 0.0
C784 C 0.93132 0.19404 0.76838 0.0
C785 C 0.92564 0.20361 0.73135 0.0
C786 C 0.938 0.19151 0.85242 0.0
C787 C 0.93496 0.17505 0.86506 0.0
C788 C 0.95047 0.20051 0.87569 0.0
C789 C 0.95459 0.21781 0.86312 0.0
C790 C 0.95971 0.22182 0.81795 0.0
C791 C 0.96332 0.23818 0.80628 0.0
C792 C 0.96213 0.25062 0.8397 0.0
C793 C 0.95738 0.2467 0.88491 0.0
C794 C 0.95358 0.23038 0.89662 0.0
C795 C 0.98659 0.148 0.98804 0.0
C796 C 0.99013 0.15752 0.02752 0.0
C797 C 0.9754 0.15386 0.95463 0.0
C798 C 0.96724 0.16907 0.96097 0.0
C799 C 0.97027 0.17807 1.00173 0.0
C800 C 0.98169 0.17246 0.03429 0.0
C801 C 0.95657 0.1764 0.92408 0.0
C802 C 0.95955 0.19287 0.91104 0.0
C803 C 0.94391 0.16744 0.90112 0.0
C804 C 0.93929 0.15044 0.91515 0.0
C805 C 0.93502 0.14696 0.96135 0.0
C806 C 0.93075 0.13089 0.97442 0.0
C807 C 0.93059 0.11822 0.94153 0.0
C808 C 0.93466 0.12159 0.89546 0.0
C809 C 0.93895 0.13764 0.88221 0.0
H810 H 0.92728 0.10579 0.95171 0.0
H811 H 0.96492 0.26328 0.83061 0.0
H812 H 0.60007 0.19819 0.82899 0.0
H813 H 0.59044 0.18198 0.76252 0.0
H814 H 0.62494 0.20749 0.67432 0.0
H815 H 0.63501 0.2234 0.74133 0.0
H816 H 0.58843 0.2102 0.65415 0.0
H817 H 0.63143 0.17015 0.68089 0.0
H818 H 0.64742 0.15067 0.72884 0.0
H819 H 0.60352 0.12249 0.75526 0.0
H820 H 0.58721 0.14195 0.70803 0.0
H821 H 0.55727 0.17579 0.44974 0.0
H822 H 0.5763 0.18507 0.51015 0.0
H823 H 0.55837 0.14669 0.60096 0.0
H824 H 0.54013 0.13668 0.53898 0.0
H825 H 0.58861 0.15024 0.61872 0.0
H826 H 0.54487 0.18927 0.60535 0.0
H827 H 0.52592 0.20877 0.56691 0.0
H828 H 0.56704 0.23907 0.52707 0.0
H829 H 0.58624 0.21959 0.5648 0.0
C830 C 0.6061 0.19979 0.7958 0.0
C831 C 0.61842 0.21185 0.79026 0.0
C832 C 0.60054 0.19059 0.75787 0.0
C833 C 0.60696 0.19357 0.71357 0.0
C834 C 0.61993 0.20496 0.70835 0.0
C835 C 0.62578 0.2139 0.74664 0.0
C836 C 0.5985 0.18652 0.67243 0.0
C837 C 0.58875 0.19715 0.64559 0.0
C838 C 0.59826 0.16939 0.6631 0.0
C839 C 0.60808 0.15759 0.69119 0.0
C840 C 0.62516 0.15988 0.69724 0.0
C841 C 0.63428 0.14882 0.72422 0.0
C842 C 0.62648 0.13537 0.74516 0.0
C843 C 0.60954 0.13292 0.73904 0.0
C844 C 0.60036 0.14395 0.71211 0.0
C845 C 0.55759 0.16922 0.48243 0.0
C846 C 0.54724 0.15558 0.48988 0.0
C847 C 0.56835 0.17461 0.51716 0.0
C848 C 0.56848 0.16696 0.5609 0.0
C849 C 0.55852 0.1529 0.56773 0.0
C850 C 0.54809 0.14718 0.53236 0.0
C851 C 0.57853 0.17396 0.5997 0.0
C852 C 0.58843 0.16334 0.62656 0.0
C853 C 0.57848 0.19109 0.61022 0.0
C854 C 0.56699 0.20285 0.5874 0.0
C855 C 0.54987 0.20001 0.58806 0.0
C856 C 0.53908 0.21107 0.56645 0.0
C857 C 0.54528 0.22512 0.5444 0.0
C858 C 0.56226 0.22816 0.54406 0.0
C859 C 0.5731 0.21711 0.56557 0.0
H860 H 0.53691 0.23368 0.5277 0.0
H861 H 0.63357 0.12682 0.76605 0.0
H862 H 0.52181 0.81299 0.50792 0.0
H863 H 0.5402 0.80236 0.44847 0.0
H864 H 0.57216 0.84452 0.46624 0.0
H865 H 0.5532 0.85571 0.52489 0.0
H866 H 0.57144 0.83674 0.37763 0.0
H867 H 0.58205 0.80599 0.51355 0.0
H868 H 0.57561 0.78983 0.58356 0.0
H869 H 0.55377 0.75182 0.49955 0.0
H870 H 0.55986 0.76788 0.42902 0.0
H871 H 0.62953 0.78456 0.24168 0.0
H872 H 0.61869 0.80172 0.30572 0.0
H873 H 0.5724 0.77558 0.29855 0.0
H874 H 0.58275 0.7589 0.23533 0.0
H875 H 0.58682 0.7776 0.38974 0.0
H876 H 0.57425 0.8122 0.25438 0.0
H877 H 0.58257 0.82893 0.1869 0.0
H878 H 0.61179 0.86011 0.27529 0.0
H879 H 0.60381 0.84341 0.34321 0.0
C880 C 0.5327 0.8201 0.49919 0.0
C881 C 0.53606 0.83516 0.52166 0.0
C882 C 0.54332 0.81392 0.46523 0.0
C883 C 0.55792 0.82234 0.45349 0.0
C884 C 0.56109 0.83767 0.47477 0.0
C885 C 0.55025 0.84405 0.50843 0.0
C886 C 0.56977 0.81478 0.41965 0.0
C887 C 0.57505 0.8239 0.38085 0.0
C888 C 0.57482 0.79806 0.4237 0.0
C889 C 0.57134 0.7882 0.46597 0.0
C890 C 0.5758 0.79422 0.51 0.0
C891 C 0.57221 0.78507 0.5498 0.0
C892 C 0.56426 0.76981 0.54602 0.0
C893 C 0.55993 0.76364 0.50242 0.0
C894 C 0.56347 0.77275 0.46251 0.0
C895 C 0.61702 0.7826 0.25361 0.0
C896 C 0.60708 0.77029 0.23311 0.0
C897 C 0.61083 0.7924 0.29018 0.0
C898 C 0.59472 0.78988 0.30711 0.0
C899 C 0.58487 0.77773 0.28637 0.0
C900 C 0.59087 0.76819 0.24988 0.0
C901 C 0.58779 0.79933 0.34704 0.0
C902 C 0.58347 0.79054 0.38713 0.0
C903 C 0.58398 0.81637 0.34454 0.0
C904 C 0.5886 0.82645 0.30375 0.0
C905 C 0.58257 0.82253 0.25935 0.0
C906 C 0.58719 0.83203 0.22104 0.0
C907 C 0.59774 0.84554 0.22678 0.0
C908 C 0.60364 0.84962 0.27087 0.0
C909 C 0.59907 0.84016 0.30928 0.0
H910 H 0.60131 0.85287 0.19709 0.0
H911 H 0.56146 0.76274 0.57684 0.0
H912 H 0.64183 0.68265 0.20491 0.0
H913 H 0.63574 0.66282 0.26696 0.0
H914 H 0.61773 0.70267 0.35245 0.0
H915 H 0.62426 0.72235 0.29121 0.0
H916 H 0.62917 0.67945 0.40646 0.0
H917 H 0.59313 0.68247 0.27274 0.0
H918 H 0.58672 0.68035 0.18932 0.0
H919 H 0.60038 0.62915 0.19037 0.0
H920 H 0.60729 0.63106 0.27359 0.0
H921 H 0.54544 0.64847 0.46796 0.0
H922 H 0.56496 0.6543 0.40582 0.0
H923 H 0.60373 0.63074 0.48434 0.0
H924 H 0.58403 0.62503 0.54713 0.0
H925 H 0.58649 0.64063 0.34799 0.0
H926 H 0.63717 0.65659 0.48006 0.0
H927 H 0.63993 0.6626 0.56367 0.0
H928 H 0.59057 0.68191 0.56609 0.0
H929 H 0.58765 0.67625 0.48246 0.0
C930 C 0.63748 0.68719 0.23803 0.0
C931 C 0.63373 0.70398 0.24382 0.0
C932 C 0.63378 0.67586 0.27323 0.0
C933 C 0.62592 0.68119 0.31405 0.0
C934 C 0.62378 0.69821 0.32142 0.0
C935 C 0.6276 0.70949 0.2865 0.0
C936 C 0.61751 0.66932 0.34559 0.0
C937 C 0.62012 0.67069 0.39357 0.0
C938 C 0.60532 0.65816 0.32903 0.0
C939 C 0.60095 0.65696 0.2792 0.0
C940 C 0.59487 0.67079 0.25511 0.0
C941 C 0.59114 0.66963 0.20789 0.0
C942 C 0.59315 0.65464 0.18457 0.0
C943 C 0.59887 0.64076 0.20845 0.0
C944 C 0.60273 0.64188 0.25562 0.0
C945 C 0.55797 0.64388 0.47096 0.0
C946 C 0.56327 0.6362 0.5119 0.0
C947 C 0.56914 0.64724 0.43548 0.0
C948 C 0.58589 0.6432 0.44064 0.0
C949 C 0.59089 0.63409 0.47978 0.0
C950 C 0.57963 0.63067 0.51539 0.0
C951 C 0.59811 0.65085 0.40875 0.0
C952 C 0.59608 0.64882 0.36076 0.0
C953 C 0.61034 0.66192 0.42528 0.0
C954 C 0.61214 0.66578 0.47525 0.0
C955 C 0.62695 0.66217 0.49846 0.0
C956 C 0.62854 0.66552 0.54583 0.0
C957 C 0.61541 0.67257 0.57021 0.0
C958 C 0.60071 0.6764 0.54722 0.0
C959 C 0.59909 0.67313 0.49985 0.0
H960 H 0.61665 0.6751 0.60689 0.0
H961 H 0.59024 0.65378 0.14802 0.0
H962 H 0.64501 0.29907 0.78526 0.0
H963 H 0.6397 0.3174 0.7185 0.0
H964 H 0.60253 0.28341 0.66893 0.0
H965 H 0.60809 0.26524 0.73358 0.0
H966 H 0.61677 0.29551 0.59888 0.0
H967 H 0.59351 0.31703 0.74092 0.0
H968 H 0.59495 0.32766 0.82098 0.0
H969 H 0.62597 0.36755 0.77587 0.0
H970 H 0.62489 0.35699 0.69559 0.0
H971 H 0.54678 0.35359 0.54314 0.0
H972 H 0.56697 0.34501 0.60167 0.0
H973 H 0.60432 0.3413 0.49565 0.0
H974 H 0.58387 0.34922 0.43697 0.0
H975 H 0.59598 0.3513 0.63944 0.0
H976 H 0.62438 0.30515 0.50786 0.0
H977 H 0.61668 0.29114 0.43487 0.0
H978 H 0.56536 0.29545 0.46984 0.0
H979 H 0.57277 0.30921 0.54328 0.0
C980 C 0.63614 0.29537 0.7591 0.0
C981 C 0.62686 0.28085 0.76461 0.0
C982 C 0.63298 0.30588 0.72131 0.0
C983 C 0.62052 0.30192 0.68894 0.0
C984 C 0.61221 0.28681 0.6931 0.0
C985 C 0.61535 0.27643 0.73034 0.0
C986 C 0.61472 0.31375 0.65295 0.0
C987 C 0.61259 0.30786 0.60755 0.0
C988 C 0.60876 0.32969 0.66441 0.0
C989 C 0.60931 0.33612 0.71246 0.0
C990 C 0.60072 0.32801 0.74816 0.0
C991 C 0.60146 0.33402 0.79355 0.0
C992 C 0.61059 0.34824 0.80353 0.0
C993 C 0.61895 0.35651 0.7681 0.0
C994 C 0.61829 0.35052 0.72266 0.0
C995 C 0.55948 0.35156 0.53282 0.0
C996 C 0.56391 0.35213 0.48592 0.0
C997 C 0.57102 0.34665 0.5662 0.0
C998 C 0.58712 0.34223 0.55299 0.0
C999 C 0.59192 0.34443 0.50659 0.0
C1000 C 0.58031 0.34906 0.47315 0.0
C1001 C 0.59778 0.33286 0.58579 0.0
C1002 C 0.60077 0.33921 0.63035 0.0
C1003 C 0.60367 0.31688 0.57452 0.0
C1004 C 0.59914 0.30845 0.53062 0.0
C1005 C 0.61146 0.30308 0.49994 0.0
C1006 C 0.60715 0.29517 0.45854 0.0
C1007 C 0.59054 0.29248 0.44763 0.0
C1008 C 0.57821 0.2976 0.47822 0.0
C1009 C 0.58247 0.30545 0.51972 0.0
H1010 H 0.58723 0.28638 0.41553 0.0
H1011 H 0.61115 0.35288 0.83868 0.0
H1012 H 0.99242 0.35797 0.97212 0.0
H1013 H 0.97285 0.35009 0.91135 0.0
H1014 H 0.93602 0.33971 0.01537 0.0
H1015 H 0.95609 0.34658 0.07613 0.0
H1016 H 0.9367 0.3155 0.96034 0.0
H1017 H 0.93407 0.37405 0.93154 0.0
H1018 H 0.94567 0.40175 0.91703 0.0
H1019 H 0.96886 0.38402 0.7929 0.0
H1020 H 0.95757 0.35619 0.80692 0.0
H1021 H 0.88768 0.28521 0.77345 0.0
H1022 H 0.89425 0.30413 0.83804 0.0
H1023 H 0.93815 0.31995 0.76589 0.0
H1024 H 0.93127 0.30203 0.70168 0.0
H1025 H 0.92762 0.34453 0.81132 0.0
H1026 H 0.93531 0.28587 0.84666 0.0
H1027 H 0.92455 0.25765 0.85822 0.0
H1028 H 0.89386 0.2749 0.96927 0.0
H1029 H 0.9039 0.30336 0.95706 0.0
C1030 C 0.97995 0.35457 0.98174 0.0
C1031 C 0.97558 0.35325 0.02858 0.0
C1032 C 0.96871 0.35004 0.94699 0.0
C1033 C 0.95272 0.34452 0.95838 0.0
C1034 C 0.94819 0.34395 0.0054 0.0
C1035 C 0.95958 0.34807 0.04013 0.0
C1036 C 0.94138 0.33786 0.92182 0.0
C1037 C 0.93444 0.32207 0.92819 0.0
C1038 C 0.9385 0.34617 0.87935 0.0
C1039 C 0.94499 0.36302 0.87039 0.0
C1040 C 0.94167 0.37605 0.90122 0.0
C1041 C 0.9482 0.39178 0.89307 0.0
C1042 C 0.958 0.39464 0.85409 0.0
C1043 C 0.96125 0.3818 0.82306 0.0
C1044 C 0.95476 0.36606 0.83103 0.0
C1045 C 0.89837 0.29319 0.77095 0.0
C1046 C 0.90907 0.29197 0.73286 0.0
C1047 C 0.90225 0.30387 0.80803 0.0
C1048 C 0.91698 0.31321 0.80756 0.0
C1049 C 0.92679 0.3129 0.76761 0.0
C1050 C 0.92286 0.30251 0.73083 0.0
C1051 C 0.92349 0.32203 0.84933 0.0
C1052 C 0.92954 0.3382 0.84401 0.0
C1053 C 0.92579 0.31397 0.89246 0.0
C1054 C 0.9202 0.29677 0.90058 0.0
C1055 C 0.92621 0.28366 0.87338 0.0
C1056 C 0.92022 0.26763 0.87999 0.0
C1057 C 0.90859 0.26448 0.91456 0.0
C1058 C 0.90286 0.27736 0.94249 0.0
C1059 C 0.90863 0.29345 0.93559 0.0
H1060 H 0.90401 0.25205 0.9197 0.0
H1061 H 0.96307 0.40681 0.84791 0.0
H1062 H 0.92638 0.68431 0.33154 0.0
H1063 H 0.93514 0.66706 0.2667 0.0
H1064 H 0.90635 0.69698 0.17302 0.0
H1065 H 0.89707 0.71403 0.23855 0.0
H1066 H 0.90742 0.66512 0.14302 0.0
H1067 H 0.94638 0.7057 0.19268 0.0
H1068 H 0.96383 0.72073 0.24869 0.0
H1069 H 0.9909 0.6763 0.27729 0.0
H1070 H 0.97335 0.66091 0.22214 0.0
H1071 H 0.95969 0.66054 0.94363 0.0
H1072 H 0.94223 0.66726 0.00991 0.0
H1073 H 0.9694 0.63269 0.09418 0.0
H1074 H 0.98688 0.62572 0.02731 0.0
H1075 H 0.96851 0.66486 0.13028 0.0
H1076 H 0.9298 0.62518 0.07184 0.0
H1077 H 0.91234 0.612 0.0123 0.0
H1078 H 0.88536 0.6572 0.99468 0.0
H1079 H 0.90281 0.67073 0.05366 0.0
C1080 C 0.92145 0.68686 0.29734 0.0
C1081 C 0.91108 0.70053 0.29002 0.0
C1082 C 0.92657 0.67707 0.26021 0.0
C1083 C 0.9218 0.68098 0.21472 0.0
C1084 C 0.91029 0.69376 0.20775 0.0
C1085 C 0.90491 0.70346 0.24522 0.0
C1086 C 0.93022 0.67292 0.17466 0.0
C1087 C 0.92077 0.66515 0.14008 0.0
C1088 C 0.94769 0.67283 0.17084 0.0
C1089 C 0.95841 0.6821 0.20367 0.0
C1090 C 0.95596 0.6991 0.21119 0.0
C1091 C 0.96587 0.70768 0.24278 0.0
C1092 C 0.97843 0.69946 0.26665 0.0
C1093 C 0.98113 0.68264 0.25887 0.0
C1094 C 0.9712 0.67397 0.22747 0.0
C1095 C 0.96159 0.65394 0.97587 0.0
C1096 C 0.97459 0.64253 0.98025 0.0
C1097 C 0.9516 0.65782 0.01378 0.0
C1098 C 0.95448 0.6505 0.05711 0.0
C1099 C 0.96692 0.63845 0.06103 0.0
C1100 C 0.97679 0.63435 0.02274 0.0
C1101 C 0.94575 0.65686 0.0989 0.0
C1102 C 0.95518 0.66455 0.13361 0.0
C1103 C 0.9283 0.65714 0.10224 0.0
C1104 C 0.9177 0.64901 0.06697 0.0
C1105 C 0.92023 0.63235 0.05503 0.0
C1106 C 0.91031 0.62481 0.02142 0.0
C1107 C 0.89777 0.63376 0.99966 0.0
C1108 C 0.89508 0.65028 0.01155 0.0
C1109 C 0.90497 0.65788 0.04512 0.0
H1110 H 0.89011 0.6279 0.97364 0.0
H1111 H 0.9861 0.70613 0.29108 0.0
H1112 H 0.50862 0.31849 0.51427 0.0
H1113 H 0.49169 0.30876 0.57801 0.0
H1114 H 0.45821 0.34955 0.55763 0.0
H1115 H 0.47591 0.35993 0.49438 0.0
H1116 H 0.45963 0.34309 0.64687 0.0
H1117 H 0.44871 0.31004 0.51695 0.0
H1118 H 0.45422 0.29314 0.44758 0.0
H1119 H 0.47904 0.25706 0.53149 0.0
H1120 H 0.47391 0.27387 0.60132 0.0
H1121 H 0.40551 0.29032 0.79279 0.0
H1122 H 0.41492 0.30639 0.72505 0.0
H1123 H 0.46275 0.28331 0.7348 0.0
H1124 H 0.45355 0.26744 0.80148 0.0
H1125 H 0.44764 0.28302 0.64395 0.0
H1126 H 0.45339 0.31942 0.77807 0.0
H1127 H 0.44318 0.33757 0.83977 0.0
H1128 H 0.42029 0.36893 0.7385 0.0
H1129 H 0.43013 0.35077 0.67589 0.0
C1130 C 0.49769 0.32548 0.52331 0.0
C1131 C 0.49347 0.33983 0.49863 0.0
C1132 C 0.48793 0.31984 0.55982 0.0
C1133 C 0.47327 0.32803 0.57196 0.0
C1134 C 0.46933 0.34285 0.54875 0.0
C1135 C 0.47942 0.34877 0.51254 0.0
C1136 C 0.46213 0.32055 0.6078 0.0
C1137 C 0.45673 0.33002 0.64582 0.0
C1138 C 0.4579 0.30355 0.60622 0.0
C1139 C 0.461 0.29328 0.56439 0.0
C1140 C 0.45543 0.29855 0.5206 0.0
C1141 C 0.45848 0.28898 0.48118 0.0
C1142 C 0.467 0.27405 0.48512 0.0
C1143 C 0.47245 0.26864 0.5285 0.0
C1144 C 0.46945 0.27817 0.56803 0.0
C1145 C 0.41803 0.28876 0.78046 0.0
C1146 C 0.42885 0.27777 0.80303 0.0
C1147 C 0.42339 0.29795 0.74185 0.0
C1148 C 0.43959 0.29612 0.72496 0.0
C1149 C 0.45024 0.285 0.74721 0.0
C1150 C 0.44499 0.27604 0.78573 0.0
C1151 C 0.44579 0.30537 0.68384 0.0
C1152 C 0.45027 0.29616 0.64464 0.0
C1153 C 0.44836 0.32272 0.68365 0.0
C1154 C 0.44247 0.33356 0.72194 0.0
C1155 C 0.44606 0.33005 0.76866 0.0
C1156 C 0.44035 0.34039 0.80396 0.0
C1157 C 0.43107 0.35439 0.7931 0.0
C1158 C 0.42749 0.35808 0.7469 0.0
C1159 C 0.43316 0.34776 0.71147 0.0
H1160 H 0.42667 0.3624 0.82048 0.0
H1161 H 0.46934 0.26666 0.45456 0.0
H1162 H 0.49114 0.6825 0.5614 0.0
H1163 H 0.47323 0.69223 0.49853 0.0
H1164 H 0.48042 0.6463 0.4258 0.0
H1165 H 0.49795 0.63622 0.48956 0.0
H1166 H 0.48719 0.6786 0.37427 0.0
H1167 H 0.44574 0.64953 0.4597 0.0
H1168 H 0.42983 0.64172 0.52905 0.0
H1169 H 0.41375 0.69191 0.54542 0.0
H1170 H 0.42979 0.70008 0.47653 0.0
H1171 H 0.43614 0.70424 0.18953 0.0
H1172 H 0.44728 0.68644 0.2509 0.0
H1173 H 0.42975 0.72081 0.3541 0.0
H1174 H 0.41803 0.73817 0.29264 0.0
H1175 H 0.42744 0.6911 0.38812 0.0
H1176 H 0.47051 0.7211 0.31043 0.0
H1177 H 0.48665 0.73025 0.24273 0.0
H1178 H 0.50042 0.68006 0.21424 0.0
H1179 H 0.48415 0.67058 0.28149 0.0
C1180 C 0.48871 0.67436 0.53237 0.0
C1181 C 0.49592 0.65856 0.53058 0.0
C1182 C 0.47847 0.67994 0.49646 0.0
C1183 C 0.47549 0.67001 0.4574 0.0
C1184 C 0.48252 0.65415 0.45564 0.0
C1185 C 0.49245 0.64838 0.4922 0.0
C1186 C 0.46572 0.67667 0.41769 0.0
C1187 C 0.47405 0.68102 0.37687 0.0
C1188 C 0.44869 0.68028 0.42158 0.0
C1189 C 0.43913 0.67545 0.46324 0.0
C1190 C 0.43897 0.65895 0.47839 0.0
C1191 C 0.42989 0.65444 0.51755 0.0
C1192 C 0.42083 0.66632 0.54172 0.0
C1193 C 0.42081 0.68272 0.52671 0.0
C1194 C 0.42988 0.6873 0.48759 0.0
C1195 C 0.43423 0.70766 0.22543 0.0
C1196 C 0.42604 0.7224 0.23653 0.0
C1197 C 0.44078 0.69761 0.26053 0.0
C1198 C 0.43974 0.7024 0.30739 0.0
C1199 C 0.43079 0.71677 0.31843 0.0
C1200 C 0.42403 0.72668 0.28333 0.0
C1201 C 0.4489 0.6932 0.34451 0.0
C1202 C 0.44052 0.68848 0.38507 0.0
C1203 C 0.46597 0.68945 0.34065 0.0
C1204 C 0.47598 0.69512 0.30069 0.0
C1205 C 0.47691 0.71201 0.28959 0.0
C1206 C 0.48608 0.71725 0.25132 0.0
C1207 C 0.49451 0.70574 0.22416 0.0
C1208 C 0.49385 0.68895 0.2353 0.0
C1209 C 0.48467 0.68364 0.2735 0.0
H1210 H 0.50159 0.70984 0.19458 0.0
H1211 H 0.41379 0.6628 0.57199 0.0
H1212 H 0.08682 0.73463 0.28206 0.0
H1213 H 0.07603 0.71516 0.22572 0.0
H1214 H 0.12143 0.68743 0.23168 0.0
H1215 H 0.13268 0.70749 0.28781 0.0
H1216 H 0.11072 0.68878 0.14454 0.0
H1217 H 0.08569 0.6734 0.28629 0.0
H1218 H 0.07109 0.67711 0.3605 0.0
H1219 H 0.02853 0.69541 0.28808 0.0
H1220 H 0.04296 0.69213 0.21352 0.0
H1221 H 0.06158 0.63409 0.99615 0.0
H1222 H 0.07856 0.64243 0.06349 0.0
H1223 H 0.04606 0.68374 0.08734 0.0
H1224 H 0.02938 0.67566 0.02122 0.0
H1225 H 0.05386 0.66765 0.16799 0.0
H1226 H 0.0824 0.68824 0.02925 0.0
H1227 H 0.09713 0.68402 0.9554 0.0
H1228 H 0.13315 0.65397 0.02481 0.0
H1229 H 0.11851 0.65786 0.09897 0.0
C1230 C 0.0946 0.7244 0.27162 0.0
C1231 C 0.11059 0.72255 0.28999 0.0
C1232 C 0.08833 0.71317 0.23942 0.0
C1233 C 0.09768 0.69947 0.22525 0.0
C1234 C 0.11388 0.69777 0.2424 0.0
C1235 C 0.1203 0.70924 0.27448 0.0
C1236 C 0.09029 0.68728 0.19214 0.0
C1237 C 0.09844 0.68384 0.15023 0.0
C1238 C 0.07427 0.68065 0.19932 0.0
C1239 C 0.06547 0.68256 0.24421 0.0
C1240 C 0.07326 0.67831 0.28617 0.0
C1241 C 0.06501 0.68034 0.32833 0.0
C1242 C 0.0489 0.6865 0.32898 0.0
C1243 C 0.041 0.69063 0.28751 0.0
C1244 C 0.04921 0.68867 0.24528 0.0
C1245 C 0.05803 0.64483 0.01616 0.0
C1246 C 0.0442 0.65427 1.00306 0.0
C1247 C 0.06776 0.64964 0.05446 0.0
C1248 C 0.06363 0.66379 0.08044 0.0
C1249 C 0.04953 0.67278 0.06806 0.0
C1250 C 0.04002 0.66816 0.02992 0.0
C1251 C 0.07393 0.66995 0.11978 0.0
C1252 C 0.06632 0.67222 0.16298 0.0
C1253 C 0.09043 0.67534 0.11392 0.0
C1254 C 0.09927 0.67317 0.06946 0.0
C1255 C 0.0934 0.68064 0.02866 0.0
C1256 C 0.10174 0.67832 0.98677 0.0
C1257 C 0.11604 0.66869 0.98538 0.0
C1258 C 0.12206 0.6614 0.02591 0.0
C1259 C 0.11375 0.66366 0.06787 0.0
H1260 H 0.12247 0.6669 0.95292 0.0
H1261 H 0.04253 0.68806 0.36161 0.0
H1262 H 0.11973 0.29826 0.69087 0.0
H1263 H 0.10835 0.31599 0.7523 0.0
H1264 H 0.09911 0.2728 0.83607 0.0
H1265 H 0.10985 0.25522 0.77412 0.0
H1266 H 0.07253 0.29025 0.83077 0.0
H1267 H 0.12984 0.30311 0.86108 0.0
H1268 H 0.15774 0.31305 0.84134 0.0
H1269 H 0.1379 0.36053 0.80541 0.0
H1270 H 0.10985 0.35079 0.82437 0.0
H1271 H 0.05355 0.31742 0.04884 0.0
H1272 H 0.07058 0.30801 0.98482 0.0
H1273 H 0.06403 0.35482 0.91604 0.0
H1274 H 0.04691 0.36456 0.98137 0.0
H1275 H 0.09733 0.33944 0.90643 0.0
H1276 H 0.0401 0.32657 0.88173 0.0
H1277 H 0.01268 0.31646 0.9056 0.0
H1278 H 0.03306 0.26847 0.93266 0.0
H1279 H 0.06065 0.27837 0.90968 0.0
C1280 C 0.11563 0.2927 0.72298 0.0
C1281 C 0.11574 0.27546 0.72823 0.0
C1282 C 0.10912 0.3028 0.75805 0.0
C1283 C 0.10285 0.29578 0.79904 0.0
C1284 C 0.10376 0.27856 0.80481 0.0
C1285 C 0.11 0.2685 0.76962 0.0
C1286 C 0.094 0.30596 0.83431 0.0
C1287 C 0.07809 0.30092 0.84743 0.0
C1288 C 0.10087 0.32031 0.85499 0.0
C1289 C 0.11772 0.32616 0.84362 0.0
C1290 C 0.13141 0.31562 0.84858 0.0
C1291 C 0.14725 0.32123 0.83761 0.0
C1292 C 0.14958 0.33739 0.82199 0.0
C1293 C 0.13608 0.348 0.81743 0.0
C1294 C 0.12021 0.34245 0.82831 0.0
C1295 C 0.05587 0.32586 0.02046 0.0
C1296 C 0.04866 0.34165 0.01976 0.0
C1297 C 0.06568 0.32046 0.98392 0.0
C1298 C 0.06836 0.33059 0.94531 0.0
C1299 C 0.06207 0.34679 0.94554 0.0
C1300 C 0.05229 0.35233 0.98272 0.0
C1301 C 0.07625 0.32329 0.90355 0.0
C1302 C 0.09182 0.32889 0.88914 0.0
C1303 C 0.06914 0.30937 0.88152 0.0
C1304 C 0.05246 0.30325 0.89416 0.0
C1305 C 0.03875 0.31388 0.89296 0.0
C1306 C 0.02317 0.30819 0.90634 0.0
C1307 C 0.02113 0.29183 0.92067 0.0
C1308 C 0.03465 0.28113 0.92152 0.0
C1309 C 0.05026 0.28677 0.90826 0.0
H1310 H 0.00907 0.28745 0.93108 0.0
H1311 H 0.16186 0.34171 0.81352 0.0
H1312 H 0.00596 0.25742 0.13225 0.0
H1313 H 0.01514 0.23808 0.19141 0.0
H1314 H 0.99402 0.26957 0.29648 0.0
H1315 H 0.98165 0.28639 0.23691 0.0
H1316 H 0.03544 0.26463 0.24303 0.0
H1317 H 0.99363 0.25317 0.35669 0.0
H1318 H 0.96589 0.24292 0.37631 0.0
H1319 H 0.98035 0.19412 0.33574 0.0
H1320 H 0.00736 0.20437 0.3107 0.0
H1321 H 0.07918 0.21515 0.20366 0.0
H1322 H 0.0835 0.23024 0.27622 0.0
H1323 H 0.04993 0.19927 0.34655 0.0
H1324 H 0.0467 0.18233 0.27713 0.0
H1325 H 0.03199 0.21904 0.35596 0.0
H1326 H 0.05856 0.25172 0.19292 0.0
H1327 H 0.08331 0.26605 0.16379 0.0
H1328 H 0.09928 0.27498 0.30322 0.0
H1329 H 0.07525 0.2596 0.33331 0.0
C1330 C 0.00196 0.25929 0.16765 0.0
C1331 C 0.9944 0.27411 0.18096 0.0
C1332 C 0.00725 0.24826 0.20164 0.0
C1333 C 0.00571 0.25253 0.24871 0.0
C1334 C 0.99523 0.26557 0.26097 0.0
C1335 C 0.98867 0.27567 0.22659 0.0
C1336 C 0.01954 0.248 0.27936 0.0
C1337 C 0.03491 0.25444 0.26748 0.0
C1338 C 0.0185 0.23604 0.31425 0.0
C1339 C 0.00231 0.22972 0.33001 0.0
C1340 C 0.99058 0.24042 0.34966 0.0
C1341 C 0.97498 0.23456 0.36203 0.0
C1342 C 0.97118 0.21787 0.35654 0.0
C1343 C 0.98304 0.20706 0.33892 0.0
C1344 C -0.00152 0.21291 0.32526 0.0
C1345 C 0.07232 0.21169 0.23432 0.0
C1346 C 0.06031 0.19926 0.23297 0.0
C1347 C 0.07429 0.22068 0.27528 0.0
C1348 C 0.06196 0.2194 0.30956 0.0
C1349 C 0.05615 0.20309 0.3152 0.0
C1350 C 0.05408 0.19344 0.27541 0.0
C1351 C 0.04883 0.23282 0.31149 0.0
C1352 C 0.03317 0.22886 0.33085 0.0
C1353 C 0.04957 0.24724 0.28301 0.0
C1354 C 0.06496 0.25484 0.26545 0.0
C1355 C 0.06745 0.25662 0.21741 0.0
C1356 C 0.08145 0.26475 0.20074 0.0
C1357 C 0.09291 0.27139 0.23176 0.0
C1358 C 0.09052 0.26965 0.2794 0.0
C1359 C 0.07679 0.2611 0.29631 0.0
H1360 H 0.10364 0.2779 0.21892 0.0
H1361 H 0.95916 0.21331 0.36653 0.0
H1362 H 0.9668 0.70814 0.53677 0.0
H1363 H 0.98559 0.721 0.59228 0.0
H1364 H 0.02194 0.72579 0.48406 0.0
H1365 H 0.00223 0.71593 0.42773 0.0
H1366 H 0.03559 0.72698 0.56828 0.0
H1367 H 0.00102 0.7532 0.47218 0.0
H1368 H 0.97717 0.76197 0.42568 0.0
H1369 H 0.9511 0.77461 0.55012 0.0
H1370 H 0.97509 0.76625 0.59688 0.0
H1371 H 0.03779 0.78835 0.41998 0.0
H1372 H 0.01902 0.78087 0.48142 0.0
H1373 H 0.05752 0.78882 0.58244 0.0
H1374 H 0.07501 0.80029 0.52107 0.0
H1375 H 0.00784 0.78129 0.57145 0.0
H1376 H 0.06942 0.7417 0.58062 0.0
H1377 H 0.08861 0.72863 0.52674 0.0
H1378 H 0.05761 0.74163 0.41205 0.0
H1379 H 0.0376 0.7538 0.46583 0.0
C1380 C 0.97874 0.71211 0.52479 0.0
C1381 C 0.98226 0.71339 0.47712 0.0
C1382 C 0.98965 0.71897 0.55699 0.0
C1383 C 0.00474 0.72526 0.54161 0.0
C1384 C 0.01007 0.72154 0.49644 0.0
C1385 C -0.00127 0.71585 0.46392 0.0
C1386 C 0.0125 0.73949 0.56507 0.0
C1387 C 0.02959 0.73895 0.57019 0.0
C1388 C 0.00457 0.75513 0.56497 0.0
C1389 C 0.98927 0.75796 0.5384 0.0
C1390 C 0.98991 0.75719 0.4897 0.0
C1391 C 0.97657 0.7625 0.46313 0.0
C1392 C 0.96264 0.76888 0.48488 0.0
C1393 C 0.9619 0.76973 0.53322 0.0
C1394 C 0.97531 0.76456 0.5599 0.0
C1395 C 0.04189 0.78988 0.45545 0.0
C1396 C 0.05863 0.79233 0.46589 0.0
C1397 C 0.03114 0.78546 0.49089 0.0
C1398 C 0.03749 0.78285 0.53566 0.0
C1399 C 0.05273 0.7898 0.54747 0.0
C1400 C 0.06284 0.79586 0.5122 0.0
C1401 C 0.03081 0.76879 0.56199 0.0
C1402 C 0.01399 0.76937 0.57235 0.0
C1403 C 0.03867 0.7531 0.55935 0.0
C1404 C 0.05251 0.74974 0.52736 0.0
C1405 C 0.06697 0.74234 0.54396 0.0
C1406 C 0.07792 0.73482 0.51327 0.0
C1407 C 0.07459 0.73454 0.46577 0.0
C1408 C 0.06037 0.74207 0.44874 0.0
C1409 C 0.04927 0.74943 0.47936 0.0
H1410 H 0.08278 0.72815 0.44227 0.0
H1411 H 0.95257 0.77325 0.46397 0.0
H1412 H 0.56412 0.73336 0.69811 0.0
H1413 H 0.54951 0.75153 0.7532 0.0
H1414 H 0.51272 0.71368 0.77343 0.0
H1415 H 0.52684 0.69626 0.7193 0.0
H1416 H 0.52105 0.75544 0.70604 0.0
H1417 H 0.48481 0.72172 0.84952 0.0
H1418 H 0.49252 0.69966 0.9038 0.0
H1419 H 0.54154 0.71948 0.91253 0.0
H1420 H 0.53375 0.74246 0.86209 0.0
H1421 H 0.45095 0.77338 0.65487 0.0
H1422 H 0.45711 0.75023 0.7064 0.0
H1423 H 0.47193 0.7842 0.81266 0.0
H1424 H 0.46209 0.80713 0.76563 0.0
H1425 H 0.48084 0.75141 0.83447 0.0
H1426 H 0.5076 0.78421 0.6722 0.0
H1427 H 0.50307 0.78826 0.5885 0.0
H1428 H 0.47455 0.74362 0.58319 0.0
H1429 H 0.47926 0.73932 0.66671 0.0
C1430 C 0.55332 0.72886 0.71619 0.0
C1431 C 0.54648 0.71351 0.70494 0.0
C1432 C 0.54517 0.73905 0.74806 0.0
C1433 C 0.52995 0.73405 0.76713 0.0
C1434 C 0.52456 0.71782 0.7604 0.0
C1435 C 0.53253 0.70784 0.72885 0.0
C1436 C 0.51678 0.7463 0.77477 0.0
C1437 C 0.51239 0.75487 0.73472 0.0
C1438 C 0.50523 0.74479 0.81133 0.0
C1439 C 0.5087 0.73379 0.85136 0.0
C1440 C 0.49701 0.72184 0.86471 0.0
C1441 C 0.50145 0.70906 0.89469 0.0
C1442 C 0.51768 0.70785 0.91053 0.0
C1443 C 0.52909 0.72016 0.89955 0.0
C1444 C 0.52457 0.73328 0.87103 0.0
C1445 C 0.45419 0.77592 0.69059 0.0
C1446 C 0.45866 0.79189 0.70475 0.0
C1447 C 0.45817 0.76268 0.7196 0.0
C1448 C 0.46784 0.76597 0.75888 0.0
C1449 C 0.46596 0.78149 0.77988 0.0
C1450 C 0.46054 0.79468 0.75255 0.0
C1451 C 0.48433 0.75813 0.76294 0.0
C1452 C 0.48945 0.75179 0.80594 0.0
C1453 C 0.49608 0.75922 0.72631 0.0
C1454 C 0.49206 0.76256 0.67694 0.0
C1455 C 0.49959 0.7758 0.65369 0.0
C1456 C 0.49736 0.77792 0.606 0.0
C1457 C 0.48797 0.76655 0.5808 0.0
C1458 C 0.48131 0.75276 0.60299 0.0
C1459 C 0.48371 0.75054 0.65057 0.0
H1460 H 0.48624 0.76819 0.54389 0.0
H1461 H 0.52138 0.69744 0.93159 0.0
H1462 H 0.55245 0.26594 0.74525 0.0
H1463 H 0.52535 0.27498 0.71805 0.0
H1464 H 0.51637 0.29662 0.85302 0.0
H1465 H 0.54351 0.28837 0.87789 0.0
H1466 H 0.50461 0.25736 0.74331 0.0
H1467 H 0.4831 0.30795 0.8888 0.0
H1468 H 0.48011 0.33796 0.88708 0.0
H1469 H 0.48803 0.33822 0.74013 0.0
H1470 H 0.49039 0.30801 0.73998 0.0
H1471 H 0.51937 0.24399 0.97774 0.0
H1472 H 0.51622 0.25987 0.90057 0.0
H1473 H 0.46178 0.25348 1.00375 0.0
H1474 H 0.48238 0.21513 0.92618 0.0
H1475 H 0.47689 0.28181 0.87916 0.0
H1476 H 0.4716 0.22671 0.819 0.0
H1477 H 0.47831 0.19695 0.81782 0.0
H1478 H 0.52923 0.20828 0.79194 0.0
H1479 H 0.52289 0.23806 0.79339 0.0
C1480 C 0.54482 0.27338 0.76786 0.0
C1481 C 0.54946 0.27592 0.8141 0.0
C1482 C 0.52935 0.27866 0.75238 0.0
C1483 C 0.51799 0.28526 0.78432 0.0
C1484 C 0.52424 0.29089 0.82742 0.0
C1485 C 0.53986 0.28605 0.84234 0.0
C1486 C 0.50031 0.27983 0.78199 0.0
C1487 C 0.4983 0.2629 0.77251 0.0
C1488 C 0.48913 0.28698 0.81378 0.0
C1489 C 0.48685 0.30532 0.81431 0.0
C1490 C 0.48386 0.31412 0.85569 0.0
C1491 C 0.48237 0.33133 0.85513 0.0
C1492 C 0.48396 0.34 0.81361 0.0
C1493 C 0.48695 0.3315 0.77239 0.0
C1494 C 0.48829 0.31429 0.7726 0.0
C1495 C 0.5085 0.24272 0.9562 0.0
C1496 C 0.49465 0.23283 0.97021 0.0
C1497 C 0.50637 0.25234 0.91463 0.0
C1498 C 0.49017 0.25142 0.89344 0.0
C1499 C 0.47778 0.2419 0.91864 0.0
C1500 C 0.48753 0.22744 0.9289 0.0
C1501 C 0.48689 0.25973 0.8491 0.0
C1502 C 0.48307 0.27666 0.84936 0.0
C1503 C 0.49295 0.25249 0.80813 0.0
C1504 C 0.49671 0.23458 0.80573 0.0
C1505 C 0.4842 0.22283 0.8128 0.0
C1506 C 0.48794 0.20597 0.81215 0.0
C1507 C 0.50415 0.20073 0.80451 0.0
C1508 C 0.51666 0.21234 0.79754 0.0
C1509 C 0.513 0.22921 0.79811 0.0
H1510 H 0.50702 0.18767 0.80415 0.0
H1511 H 0.4828 0.35332 0.81333 0.0
H1512 H 0.03314 0.75921 0.84205 0.0
H1513 H 0.02531 0.74289 0.775 0.0
H1514 H 0.05072 0.77709 0.68529 0.0
H1515 H 0.06079 0.79201 0.75385 0.0
H1516 H 0.01271 0.77784 0.68917 0.0
H1517 H 0.05516 0.74632 0.65174 0.0
H1518 H 0.08047 0.72991 0.65788 0.0
H1519 H 0.05236 0.6884 0.70569 0.0
H1520 H 0.02715 0.70454 0.70271 0.0
H1521 H 0.97858 0.69362 0.76684 0.0
H1522 H 0.97812 0.71043 0.69636 0.0
H1523 H 0.99264 0.75277 0.7787 0.0
H1524 H 0.99215 0.73619 0.84759 0.0
H1525 H 0.00635 0.71765 0.67084 0.0
H1526 H 0.99451 0.78401 0.7483 0.0
H1527 H 0.97024 0.79941 0.77375 0.0
H1528 H 0.93923 0.77016 0.68513 0.0
H1529 H 0.96326 0.75357 0.66159 0.0
C1530 C 0.0381 0.76255 0.80852 0.0
C1531 C 0.04636 0.77755 0.80231 0.0
C1532 C 0.03349 0.75333 0.76999 0.0
C1533 C 0.03679 0.75934 0.72523 0.0
C1534 C 0.04772 0.77254 0.71957 0.0
C1535 C 0.05322 0.78114 0.75863 0.0
C1536 C 0.02524 0.7545 0.68823 0.0
C1537 C 0.01124 0.76466 0.68456 0.0
C1538 C 0.02383 0.73759 0.67761 0.0
C1539 C 0.03892 0.72693 0.67698 0.0
C1540 C 0.05427 0.73372 0.66396 0.0
C1541 C 0.06874 0.72446 0.66724 0.0
C1542 C 0.0681 0.70822 0.68281 0.0
C1543 C 0.05296 0.70107 0.69422 0.0
C1544 C 0.03848 0.71035 0.69173 0.0
C1545 C 0.98058 0.70682 0.76956 0.0
C1546 C 0.9858 0.71377 0.81173 0.0
C1547 C 0.98025 0.71643 0.72943 0.0
C1548 C 0.9856 0.73291 0.73129 0.0
C1549 C 0.9881 0.74028 0.77523 0.0
C1550 C 0.9881 0.73074 0.81519 0.0
C1551 C 0.99438 0.74023 0.69104 0.0
C1552 C 0.00786 0.73082 0.67526 0.0
C1553 C 0.99544 0.75762 0.68808 0.0
C1554 C 0.98097 0.76802 0.70098 0.0
C1555 C 0.98264 0.78102 0.73314 0.0
C1556 C 0.96882 0.78984 0.74792 0.0
C1557 C 0.95323 0.78615 0.72999 0.0
C1558 C 0.95136 0.77321 0.69843 0.0
C1559 C 0.96507 0.76394 0.68478 0.0
H1560 H 0.94257 0.79314 0.74113 0.0
H1561 H 0.0794 0.70129 0.68618 0.0
H1562 H 0.53341 0.70691 0.16415 0.0
H1563 H 0.51022 0.70665 0.11173 0.0
H1564 H 0.53952 0.68195 0.00866 0.0
H1565 H 0.56272 0.68104 0.0629 0.0
H1566 H 0.54415 0.71706 0.01453 0.0
H1567 H 0.49755 0.68305 0.98156 0.0
H1568 H 0.47578 0.66309 1.00209 0.0
H1569 H 0.45534 0.69771 0.09907 0.0
H1570 H 0.47722 0.71772 0.08002 0.0
H1571 H 0.48439 0.79209 0.02738 0.0
H1572 H 0.49766 0.77161 0.97658 0.0
H1573 H 0.51821 0.74779 0.09726 0.0
H1574 H 0.50374 0.76681 0.14705 0.0
H1575 H 0.48591 0.73468 0.01114 0.0
H1576 H 0.5519 0.73946 0.0712 0.0
H1577 H 0.57041 0.76311 0.08485 0.0
H1578 H 0.55183 0.78678 0.96214 0.0
H1579 H 0.53314 0.76337 0.94809 0.0
C1580 C 0.53471 0.70049 0.13144 0.0
C1581 C 0.55032 0.69572 0.11519 0.0
C1582 C 0.52124 0.70004 0.10142 0.0
C1583 C 0.52383 0.69592 0.05469 0.0
C1584 C 0.53773 0.68635 0.04373 0.0
C1585 C 0.55116 0.68633 0.07424 0.0
C1586 C 0.51892 0.70907 0.02193 0.0
C1587 C 0.53139 0.72051 0.01092 0.0
C1588 C 0.50226 0.71382 0.01752 0.0
C1589 C 0.48887 0.702 0.0287 0.0
C1590 C 0.4884 0.68642 0.00721 0.0
C1591 C 0.47608 0.67506 0.01876 0.0
C1592 C 0.46411 0.67917 0.0516 0.0
C1593 C 0.46456 0.69457 0.07343 0.0
C1594 C 0.47692 0.70594 0.06225 0.0
C1595 C 0.49205 0.78262 0.04271 0.0
C1596 C 0.49147 0.77961 0.09077 0.0
C1597 C 0.4996 0.77103 0.01369 0.0
C1598 C 0.50801 0.75774 0.03364 0.0
C1599 C 0.51122 0.75772 0.08144 0.0
C1600 C 0.50314 0.76883 0.10999 0.0
C1601 C 0.51132 0.74235 0.00839 0.0
C1602 C 0.49861 0.73053 0.00914 0.0
C1603 C 0.52782 0.73721 0.00512 0.0
C1604 C 0.54124 0.7496 0.00827 0.0
C1605 C 0.55205 0.74954 0.0465 0.0
C1606 C 0.56234 0.76306 0.05489 0.0
C1607 C 0.56204 0.77663 0.02507 0.0
C1608 C 0.55182 0.77648 0.98595 0.0
C1609 C 0.54144 0.76305 0.97756 0.0
H1610 H 0.57003 0.78706 0.03177 0.0
H1611 H 0.45453 0.67039 0.06025 0.0
H1612 H 0.46543 0.19374 0.27424 0.0
H1613 H 0.46782 0.20913 0.20141 0.0
H1614 H 0.49065 0.24923 0.27593 0.0
H1615 H 0.49083 0.23289 0.34618 0.0
H1616 H 0.46672 0.25311 0.1741 0.0
H1617 H 0.52168 0.23328 0.26 0.0
H1618 H 0.53709 0.20992 0.29383 0.0
H1619 H 0.52145 0.17874 0.1815 0.0
H1620 H 0.50561 0.20191 0.14764 0.0
H1621 H 0.50214 0.28459 0.30604 0.0
H1622 H 0.49048 0.27512 0.23345 0.0
H1623 H 0.53965 0.27056 0.17639 0.0
H1624 H 0.551 0.28137 0.24975 0.0
H1625 H 0.52675 0.244 0.16051 0.0
H1626 H 0.49907 0.29625 0.15372 0.0
H1627 H 0.48671 0.3189 0.10903 0.0
H1628 H 0.45276 0.28522 0.04552 0.0
H1629 H 0.46435 0.26234 0.09041 0.0
C1630 C 0.47081 0.20595 0.27483 0.0
C1631 C 0.47931 0.21161 0.31443 0.0
C1632 C 0.47178 0.21484 0.23345 0.0
C1633 C 0.47971 0.23016 0.23312 0.0
C1634 C 0.48465 0.23733 0.27529 0.0
C1635 C 0.48469 0.22801 0.31574 0.0
C1636 C 0.487 0.23685 0.19042 0.0
C1637 C 0.47979 0.2508 0.17006 0.0
C1638 C 0.50377 0.23337 0.1807 0.0
C1639 C 0.51238 0.21916 0.20172 0.0
C1640 C 0.52142 0.22137 0.24285 0.0
C1641 C 0.53023 0.20821 0.26197 0.0
C1642 C 0.53027 0.19289 0.23982 0.0
C1643 C 0.52141 0.19064 0.19859 0.0
C1644 C 0.51238 0.20373 0.17964 0.0
C1645 C 0.51032 0.28115 0.27808 0.0
C1646 C 0.52734 0.28271 0.28392 0.0
C1647 C 0.50374 0.27623 0.23584 0.0
C1648 C 0.5141 0.27187 0.19859 0.0
C1649 C 0.53129 0.27374 0.20427 0.0
C1650 C 0.53783 0.27935 0.24647 0.0
C1651 C 0.50717 0.26184 0.15962 0.0
C1652 C 0.5135 0.24576 0.16073 0.0
C1653 C 0.49001 0.26304 0.1507 0.0
C1654 C 0.4826 0.27737 0.12611 0.0
C1655 C 0.48891 0.29352 0.1307 0.0
C1656 C 0.48198 0.3065 0.10539 0.0
C1657 C 0.46903 0.30354 0.07465 0.0
C1658 C 0.46268 0.28761 0.06971 0.0
C1659 C 0.46932 0.27463 0.09548 0.0
H1660 H 0.46406 0.31362 0.05451 0.0
H1661 H 0.53714 0.1828 0.25483 0.0
H1662 H 0.08144 0.23765 0.46726 0.0
H1663 H 0.06218 0.24649 0.40706 0.0
H1664 H 0.02378 0.21839 0.47497 0.0
H1665 H 0.043 0.21004 0.53398 0.0
H1666 H 0.00676 0.23387 0.43269 0.0
H1667 H 0.06498 0.27707 0.44926 0.0
H1668 H 0.08153 0.29313 0.39374 0.0
H1669 H 0.04201 0.29128 0.29473 0.0
H1670 H 0.02546 0.27451 0.34908 0.0
H1671 H 0.00478 0.26202 0.65148 0.0
H1672 H 0.02406 0.25991 0.58675 0.0
H1673 H 0.99466 0.29449 0.50889 0.0
H1674 H 0.97688 0.29852 0.57632 0.0
H1675 H 0.03226 0.28655 0.48133 0.0
H1676 H 0.97479 0.24912 0.45388 0.0
H1677 H 0.95308 0.23272 0.49163 0.0
H1678 H 0.98571 0.22207 0.605 0.0
H1679 H 0.00808 0.23687 0.56527 0.0
C1680 C 0.06882 0.23333 0.4683 0.0
C1681 C 0.06308 0.22459 0.50698 0.0
C1682 C 0.05776 0.23845 0.43415 0.0
C1683 C 0.04081 0.23548 0.44013 0.0
C1684 C 0.03635 0.22267 0.47143 0.0
C1685 C 0.04736 0.21765 0.50569 0.0
C1686 C 0.02853 0.24887 0.42895 0.0
C1687 C 0.01237 0.24546 0.44312 0.0
C1688 C 0.03379 0.26541 0.4358 0.0
C1689 C 0.0443 0.2741 0.40231 0.0
C1690 C 0.05995 0.27993 0.41538 0.0
C1691 C 0.06926 0.28926 0.38432 0.0
C1692 C 0.06282 0.29332 0.34086 0.0
C1693 C 0.04702 0.28803 0.32829 0.0
C1694 C 0.0378 0.27836 0.35885 0.0
C1695 C 0.00323 0.27018 0.62209 0.0
C1696 C 0.9887 0.27936 0.61662 0.0
C1697 C 0.01403 0.26874 0.58478 0.0
C1698 C 0.0097 0.27592 0.54232 0.0
C1699 C 0.99765 0.28827 0.54106 0.0
C1700 C 0.98754 0.29054 0.57954 0.0
C1701 C 0.01463 0.26772 0.49926 0.0
C1702 C 0.02736 0.27444 0.47295 0.0
C1703 C 0.00634 0.25339 0.48274 0.0
C1704 C 0.99278 0.24512 0.50806 0.0
C1705 C 0.9773 0.24328 0.48682 0.0
C1706 C 0.96494 0.23399 0.50823 0.0
C1707 C 0.96786 0.22661 0.55123 0.0
C1708 C 0.98329 0.22817 0.57234 0.0
C1709 C 0.99585 0.23698 0.55024 0.0
H1710 H 0.95829 0.21944 0.56785 0.0
H1711 H 0.07018 0.30024 0.31649 0.0
H1712 H 0.03353 0.06855 0.03115 0.0
H1713 H 0.03315 0.04098 0.99654 0.0
H1714 H 0.99517 0.02611 0.09221 0.0
H1715 H 0.99502 0.0539 0.12575 0.0
H1716 H 0.02096 0.00337 0.08682 0.0
H1717 H 0.98496 0.03258 0.98307 0.0
H1718 H 0.97709 0.05513 0.9301 0.0
H1719 H 0.01733 0.04264 0.84002 0.0
H1720 H 0.0256 0.02015 0.89286 0.0
H1721 H 0.00031 0.92619 0.97861 0.0
H1722 H -0.00036 0.95372 0.01398 0.0
H1723 H 0.03371 0.97146 0.9107 0.0
H1724 H 0.03455 0.94397 0.87577 0.0
H1725 H 0.00933 0.99283 0.92058 0.0
H1726 H 0.04596 0.96433 0.02296 0.0
H1727 H 0.05489 0.9421 0.07567 0.0
H1728 H 0.01493 0.95347 0.16789 0.0
H1729 H 0.00561 0.97563 0.11533 0.0
C1730 C 0.02467 0.05967 0.04379 0.0
C1731 C 0.0139 0.06371 0.08036 0.0
C1732 C 0.02463 0.04377 0.02436 0.0
C1733 C 0.01404 0.03144 0.0415 0.0
C1734 C 0.00343 0.03537 0.07829 0.0
C1735 C 0.00333 0.05129 0.09733 0.0
C1736 C 0.0142 0.0144 0.02164 0.0
C1737 C 0.01819 0.00103 0.05061 0.0
C1738 C 0.01099 0.01134 0.97416 0.0
C1739 C 0.00599 0.02479 0.94218 0.0
C1740 C 0.99222 0.03473 0.95217 0.0
C1741 C 0.98767 0.04748 0.92213 0.0
C1742 C 0.99673 0.05035 0.88178 0.0
C1743 C 0.01034 0.04042 0.87132 0.0
C1744 C 0.01495 0.02766 0.90129 0.0
C1745 C 0.008 0.9358 0.96421 0.0
C1746 C 0.01778 0.93273 0.92491 0.0
C1747 C 0.0075 0.95163 0.98423 0.0
C1748 C 0.01674 0.96473 0.96533 0.0
C1749 C 0.02644 0.96165 0.92602 0.0
C1750 C 0.02695 0.94589 0.90612 0.0
C1751 C 0.01614 0.98173 0.98572 0.0
C1752 C 0.01207 0.99512 0.95684 0.0
C1753 C 0.01941 0.98481 0.03322 0.0
C1754 C 0.02498 0.97151 0.06493 0.0
C1755 C 0.03899 0.962 0.05427 0.0
C1756 C 0.04414 0.94942 0.08415 0.0
C1757 C 0.03545 0.94634 0.12503 0.0
C1758 C 0.02163 0.95586 0.13616 0.0
C1759 C 0.01641 0.96843 0.10635 0.0
H1760 H 0.03946 0.93661 0.14814 0.0
H1761 H 0.99319 0.06023 0.85856 0.0
H1762 H 0.19906 0.72536 0.28399 0.0
H1763 H 0.22569 0.72536 0.2433 0.0
H1764 H 0.2436 0.76324 0.33585 0.0
H1765 H 0.21691 0.76346 0.37563 0.0
H1766 H 0.25258 0.76961 0.24733 0.0
H1767 H 0.25406 0.72293 0.35132 0.0
H1768 H 0.24388 0.69671 0.384 0.0
H1769 H 0.24845 0.67347 0.25083 0.0
H1770 H 0.25846 0.69964 0.21721 0.0
H1771 H 0.33854 0.76516 0.21207 0.0
H1772 H 0.31103 0.76436 0.24619 0.0
H1773 H 0.29812 0.72344 0.15737 0.0
H1774 H 0.32609 0.72361 0.1251 0.0
H1775 H 0.28573 0.71818 0.23952 0.0
H1776 H 0.28526 0.76417 0.13554 0.0
H1777 H 0.29495 0.79036 0.10152 0.0
H1778 H 0.28788 0.81489 0.23197 0.0
H1779 H 0.27835 0.78879 0.26694 0.0
C1780 C 0.20855 0.73394 0.29479 0.0
C1781 C 0.20586 0.74461 0.33243 0.0
C1782 C 0.22384 0.73379 0.27199 0.0
C1783 C 0.23673 0.74425 0.28665 0.0
C1784 C 0.23389 0.75509 0.32377 0.0
C1785 C 0.21868 0.75518 0.34658 0.0
C1786 C 0.25332 0.74374 0.2643 0.0
C1787 C 0.25989 0.75839 0.246 0.0
C1788 C 0.26273 0.72904 0.26142 0.0
C1789 C 0.25684 0.71328 0.28166 0.0
C1790 C 0.25278 0.71226 0.32894 0.0
C1791 C 0.24706 0.6974 0.34764 0.0
C1792 C 0.24548 0.68344 0.31948 0.0
C1793 C 0.24966 0.6843 0.27258 0.0
C1794 C 0.25536 0.69914 0.25369 0.0
C1795 C 0.33007 0.75565 0.20081 0.0
C1796 C 0.33472 0.74413 0.16673 0.0
C1797 C 0.31415 0.75542 0.21968 0.0
C1798 C 0.30231 0.74397 0.20405 0.0
C1799 C 0.30696 0.7324 0.17016 0.0
C1800 C 0.32294 0.73254 0.15159 0.0
C1801 C 0.28512 0.74412 0.22284 0.0
C1802 C 0.27841 0.7294 0.24051 0.0
C1803 C 0.27553 0.75875 0.2249 0.0
C1804 C 0.28124 0.77448 0.20395 0.0
C1805 C 0.28589 0.77512 0.15706 0.0
C1806 C 0.29133 0.78996 0.13759 0.0
C1807 C 0.29207 0.80427 0.1646 0.0
C1808 C 0.28732 0.80379 0.2111 0.0
C1809 C 0.28188 0.78898 0.23075 0.0
H1810 H 0.29629 0.81575 0.14946 0.0
H1811 H 0.24105 0.67195 0.33402 0.0
H1812 H 0.50284 0.05217 0.39965 0.0
H1813 H 0.50341 0.02465 0.43506 0.0
H1814 H 0.54217 0.04063 0.52758 0.0
H1815 H 0.54165 0.06819 0.4915 0.0
H1816 H 0.54884 0.01051 0.48606 0.0
H1817 H 0.50377 0.03539 0.56852 0.0
H1818 H 0.47743 0.05041 0.57556 0.0
H1819 H 0.45265 0.01208 0.49951 0.0
H1820 H 0.47891 0.99694 0.49142 0.0
H1821 H 0.54679 0.93841 0.62693 0.0
H1822 H 0.54671 0.96666 0.59688 0.0
H1823 H 0.50322 0.95557 0.51606 0.0
H1824 H 0.50265 0.92779 0.54849 0.0
H1825 H 0.49935 0.98392 0.55424 0.0
H1826 H 0.54343 0.95957 0.46747 0.0
H1827 H 0.56947 0.94439 0.45579 0.0
H1828 H 0.5957 0.98114 0.5341 0.0
H1829 H 0.56977 0.99644 0.54677 0.0
C1830 C 0.51131 0.04979 0.42796 0.0
C1831 C 0.52195 0.0623 0.44365 0.0
C1832 C 0.51163 0.03413 0.4482 0.0
C1833 C 0.5227 0.03062 0.48438 0.0
C1834 C 0.53344 0.0431 0.49997 0.0
C1835 C 0.53303 0.05885 0.47982 0.0
C1836 C 0.52334 0.01375 0.5047 0.0
C1837 C 0.53811 0.00477 0.50171 0.0
C1838 C 0.50919 0.00609 0.52376 0.0
C1839 C 0.49334 0.01509 0.52906 0.0
C1840 C 0.49273 0.03021 0.55302 0.0
C1841 C 0.47781 0.03874 0.55724 0.0
C1842 C 0.46338 0.03222 0.53792 0.0
C1843 C 0.46384 0.01712 0.51444 0.0
C1844 C 0.47874 0.00855 0.51008 0.0
C1845 C 0.53732 0.94198 0.60238 0.0
C1846 C 0.52507 0.93062 0.58894 0.0
C1847 C 0.53733 0.95811 0.58498 0.0
C1848 C 0.52516 0.96324 0.55332 0.0
C1849 C 0.51286 0.95192 0.54 0.0
C1850 C 0.51274 0.93586 0.55787 0.0
C1851 C 0.52486 0.98052 0.53538 0.0
C1852 C 0.51014 0.98962 0.53879 0.0
C1853 C 0.53901 0.98821 0.51614 0.0
C1854 C 0.55463 0.97906 0.50846 0.0
C1855 C 0.55473 0.96435 0.48249 0.0
C1856 C 0.56948 0.95573 0.47564 0.0
C1857 C 0.58423 0.96177 0.4943 0.0
C1858 C 0.58427 0.97646 0.51973 0.0
C1859 C 0.56955 0.98512 0.52672 0.0
H1860 H 0.59563 0.95508 0.48896 0.0
H1861 H 0.45184 0.03884 0.5412 0.0
H1862 H 0.32263 0.23714 0.89754 0.0
H1863 H 0.29558 0.24036 0.86113 0.0
H1864 H 0.31814 0.26565 0.74606 0.0
H1865 H 0.34543 0.26232 0.78264 0.0
H1866 H 0.28767 0.27966 0.77205 0.0
H1867 H 0.30878 0.2259 0.73496 0.0
H1868 H 0.32093 0.19866 0.7522 0.0
H1869 H 0.27904 0.18642 0.83647 0.0
H1870 H 0.26675 0.21369 0.82026 0.0
H1871 H 0.21835 0.26997 0.62252 0.0
H1872 H 0.24561 0.27048 0.65828 0.0
H1873 H 0.22873 0.23674 0.76368 0.0
H1874 H 0.20195 0.23501 0.72549 0.0
H1875 H 0.2572 0.22768 0.7404 0.0
H1876 H 0.23616 0.28145 0.78002 0.0
H1877 H 0.22398 0.30881 0.76446 0.0
H1878 H 0.26522 0.32126 0.67797 0.0
H1879 H 0.27755 0.2939 0.69258 0.0
C1880 C 0.32181 0.24363 0.86481 0.0
C1881 C 0.33619 0.24958 0.84323 0.0
C1882 C 0.30633 0.2454 0.8439 0.0
C1883 C 0.30478 0.25303 0.80044 0.0
C1884 C 0.319 0.25971 0.77961 0.0
C1885 C 0.33459 0.25793 0.8007 0.0
C1886 C 0.28842 0.25316 0.77623 0.0
C1887 C 0.28108 0.2683 0.76454 0.0
C1888 C 0.27961 0.23836 0.76724 0.0
C1889 C 0.28691 0.2219 0.7767 0.0
C1890 C 0.30221 0.21744 0.75743 0.0
C1891 C 0.30912 0.20199 0.76698 0.0
C1892 C 0.30078 0.19083 0.79549 0.0
C1893 C 0.28549 0.19509 0.81442 0.0
C1894 C 0.27854 0.21053 0.80503 0.0
C1895 C 0.22037 0.26271 0.65351 0.0
C1896 C 0.20757 0.25288 0.67175 0.0
C1897 C 0.23601 0.26316 0.67434 0.0
C1898 C 0.2393 0.25404 0.71477 0.0
C1899 C 0.22658 0.24412 0.73297 0.0
C1900 C 0.21101 0.24341 0.71152 0.0
C1901 C 0.25613 0.25425 0.7368 0.0
C1902 C 0.26366 0.23911 0.74794 0.0
C1903 C 0.26503 0.26907 0.74553 0.0
C1904 C 0.25771 0.28558 0.73709 0.0
C1905 C 0.24258 0.28999 0.75749 0.0
C1906 C 0.23566 0.3055 0.74886 0.0
C1907 C 0.2438 0.31675 0.72017 0.0
C1908 C 0.25892 0.31253 0.70016 0.0
C1909 C 0.26589 0.29704 0.70865 0.0
H1910 H 0.23841 0.32875 0.7135 0.0
H1911 H 0.30614 0.17888 0.80286 0.0
H1912 H 0.71466 0.22707 0.89645 0.0
H1913 H 0.7417 0.22738 0.85819 0.0
H1914 H 0.72467 0.2659 0.76663 0.0
H1915 H 0.69824 0.26638 0.80684 0.0
H1916 H 0.75194 0.22062 0.77555 0.0
H1917 H 0.75555 0.29032 0.7317 0.0
H1918 H 0.74583 0.31696 0.76293 0.0
H1919 H 0.74366 0.29614 0.8996 0.0
H1920 H 0.75357 0.26944 0.86929 0.0
H1921 H 0.81817 0.2322 0.61749 0.0
H1922 H 0.79115 0.23226 0.65559 0.0
H1923 H 0.81111 0.26239 0.76576 0.0
H1924 H 0.83758 0.26352 0.72539 0.0
H1925 H 0.78272 0.27279 0.75009 0.0
H1926 H 0.80336 0.21769 0.77343 0.0
H1927 H 0.81458 0.19074 0.749 0.0
H1928 H 0.77109 0.18165 0.66753 0.0
H1929 H 0.75971 0.20863 0.69107 0.0
C1930 C 0.71677 0.23565 0.86831 0.0
C1931 C 0.70413 0.24639 0.85398 0.0
C1932 C 0.73219 0.23575 0.84621 0.0
C1933 C 0.73537 0.24671 0.80945 0.0
C1934 C 0.72271 0.25744 0.79514 0.0
C1935 C 0.70741 0.25748 0.81762 0.0
C1936 C 0.7519 0.24696 0.78626 0.0
C1937 C 0.75867 0.23204 0.77011 0.0
C1938 C 0.7609 0.26178 0.77941 0.0
C1939 C 0.75515 0.27784 0.79811 0.0
C1940 C 0.75306 0.29145 0.76844 0.0
C1941 C 0.74751 0.30656 0.78598 0.0
C1942 C 0.74408 0.30823 0.83319 0.0
C1943 C 0.74626 0.29481 0.86301 0.0
C1944 C 0.75183 0.27968 0.84566 0.0
C1945 C 0.81674 0.23876 0.64995 0.0
C1946 C 0.83023 0.24719 0.66959 0.0
C1947 C 0.80133 0.23869 0.67199 0.0
C1948 C 0.79908 0.24686 0.71462 0.0
C1949 C 0.81245 0.25574 0.73341 0.0
C1950 C 0.82774 0.25611 0.71081 0.0
C1951 C 0.78282 0.24644 0.73937 0.0
C1952 C 0.77604 0.26134 0.75561 0.0
C1953 C 0.77403 0.23155 0.74737 0.0
C1954 C 0.78075 0.21523 0.73374 0.0
C1955 C 0.79623 0.20997 0.75016 0.0
C1956 C 0.80261 0.19469 0.73648 0.0
C1957 C 0.79357 0.1845 0.70667 0.0
C1958 C 0.77809 0.18955 0.6906 0.0
C1959 C 0.77166 0.20483 0.70414 0.0
H1960 H 0.79854 0.17268 0.69607 0.0
H1961 H 0.73976 0.31993 0.84668 0.0
H1962 H 0.82338 0.77362 0.35962 0.0
H1963 H 0.7964 0.77363 0.32182 0.0
H1964 H 0.81105 0.73176 0.23896 0.0
H1965 H 0.83764 0.73107 0.27904 0.0
H1966 H 0.78511 0.77833 0.24109 0.0
H1967 H 0.7781 0.70762 0.21338 0.0
H1968 H 0.78715 0.68157 0.24977 0.0
H1969 H 0.79296 0.70642 0.38031 0.0
H1970 H 0.78375 0.73255 0.34486 0.0
H1971 H 0.71303 0.76714 0.105 0.0
H1972 H 0.74112 0.7669 0.13554 0.0
H1973 H 0.72486 0.73764 0.25175 0.0
H1974 H 0.69749 0.73606 0.21831 0.0
H1975 H 0.75197 0.72692 0.23231 0.0
H1976 H 0.73414 0.78294 0.25342 0.0
H1977 H 0.72305 0.81006 0.22996 0.0
H1978 H 0.76344 0.81652 0.13553 0.0
H1979 H 0.77466 0.78936 0.15806 0.0
C1980 C 0.82088 0.76446 0.33317 0.0
C1981 C 0.83285 0.75255 0.32187 0.0
C1982 C 0.80544 0.76452 0.31135 0.0
C1983 C 0.80151 0.75263 0.27759 0.0
C1984 C 0.81362 0.74096 0.26526 0.0
C1985 C 0.82902 0.74078 0.28758 0.0
C1986 C 0.78462 0.75231 0.25648 0.0
C1987 C 0.77789 0.76706 0.23913 0.0
C1988 C 0.77492 0.73775 0.25465 0.0
C1989 C 0.78044 0.72207 0.27628 0.0
C1990 C 0.78128 0.70751 0.24986 0.0
C1991 C 0.78644 0.69273 0.27032 0.0
C1992 C 0.79069 0.69235 0.31727 0.0
C1993 C 0.78974 0.70674 0.3439 0.0
C1994 C 0.78457 0.72154 0.32362 0.0
C1995 C 0.71542 0.76069 0.13716 0.0
C1996 C 0.70258 0.7523 0.16012 0.0
C1997 C 0.73153 0.7607 0.15496 0.0
C1998 C 0.73522 0.75274 0.19706 0.0
C1999 C 0.72247 0.74413 0.21962 0.0
C2000 C 0.7065 0.74364 0.20099 0.0
C2001 C 0.75231 0.75302 0.21722 0.0
C2002 C 0.75915 0.73822 0.23415 0.0
C2003 C 0.76183 0.7677 0.22054 0.0
C2004 C 0.75514 0.78406 0.2071 0.0
C2005 C 0.7406 0.79011 0.22747 0.0
C2006 C 0.73429 0.80549 0.21436 0.0
C2007 C 0.74251 0.81498 0.18119 0.0
C2008 C 0.75707 0.80914 0.16117 0.0
C2009 C 0.76342 0.79377 0.17412 0.0
H2010 H 0.73761 0.82688 0.17107 0.0
H2011 H 0.79468 0.6809 0.33304 0.0
H2012 H 0.49089 0.558 0.62055 0.0
H2013 H 0.49011 0.5299 0.58845 0.0
H2014 H 0.53726 0.53816 0.52328 0.0
H2015 H 0.53813 0.56611 0.5559 0.0
H2016 H 0.49069 0.5184 0.49826 0.0
H2017 H 0.55887 0.50393 0.5281 0.0
H2018 H 0.58142 0.51132 0.58199 0.0
H2019 H 0.54622 0.51912 0.69091 0.0
H2020 H 0.52349 0.5118 0.6376 0.0
H2021 H 0.512 0.4464 0.37167 0.0
H2022 H 0.51043 0.47385 0.40632 0.0
H2023 H 0.51675 0.45247 0.54212 0.0
H2024 H 0.51945 0.42502 0.50692 0.0
H2025 H 0.53522 0.47852 0.5358 0.0
H2026 H 0.47796 0.46814 0.49874 0.0
H2027 H 0.45478 0.46065 0.44725 0.0
H2028 H 0.46618 0.50165 0.35857 0.0
H2029 H 0.48954 0.50926 0.40922 0.0
C2030 C 0.50099 0.55382 0.59902 0.0
C2031 C 0.51439 0.56435 0.58993 0.0
C2032 C 0.50054 0.5378 0.58065 0.0
C2033 C 0.51364 0.53188 0.55355 0.0
C2034 C 0.52703 0.54241 0.54424 0.0
C2035 C 0.52742 0.55847 0.56235 0.0
C2036 C 0.51339 0.51462 0.53557 0.0
C2037 C 0.5004 0.50966 0.50647 0.0
C2038 C 0.52595 0.50314 0.54661 0.0
C2039 C 0.53953 0.5074 0.57888 0.0
C2040 C 0.55598 0.50717 0.5636 0.0
C2041 C 0.56877 0.51138 0.59399 0.0
C2042 C 0.56525 0.51571 0.63982 0.0
C2043 C 0.54892 0.51583 0.65536 0.0
C2044 C 0.53608 0.51171 0.62505 0.0
C2045 C 0.51282 0.44754 0.409 0.0
C2046 C 0.51533 0.43344 0.43661 0.0
C2047 C 0.51184 0.46325 0.42886 0.0
C2048 C 0.51308 0.46531 0.47708 0.0
C2049 C 0.51555 0.45124 0.50489 0.0
C2050 C 0.51677 0.43548 0.48485 0.0
C2051 C 0.51251 0.48219 0.49807 0.0
C2052 C 0.52541 0.48715 0.52762 0.0
C2053 C 0.49976 0.49363 0.48767 0.0
C2054 C 0.48555 0.48921 0.45765 0.0
C2055 C 0.47556 0.47551 0.46816 0.0
C2056 C 0.46239 0.47125 0.43913 0.0
C2057 C 0.45902 0.48065 0.39964 0.0
C2058 C 0.46879 0.49438 0.38917 0.0
C2059 C 0.48198 0.49869 0.41807 0.0
H2060 H 0.44884 0.47732 0.37717 0.0
H2061 H 0.57518 0.51894 0.66331 0.0
H2062 H 0.04539 0.55556 0.89354 0.0
H2063 H 0.04483 0.52782 0.92734 0.0
H2064 H -0.00095 0.53944 0.99608 0.0
H2065 H -0.00034 0.56721 0.96231 0.0
H2066 H 0.01871 0.52288 0.0534 0.0
H2067 H 0.00059 0.51508 0.89644 0.0
H2068 H 0.00235 0.51718 0.81133 0.0
H2069 H 0.04745 0.48934 0.81264 0.0
H2070 H 0.04607 0.48726 0.89785 0.0
H2071 H -0.00187 0.44133 0.11848 0.0
H2072 H -0.00198 0.46871 0.08259 0.0
H2073 H 0.04213 0.45613 0.00673 0.0
H2074 H 0.04173 0.4284 0.04143 0.0
H2075 H 0.02329 0.47333 0.95302 0.0
H2076 H 0.04159 0.48136 0.11025 0.0
H2077 H 0.03976 0.47923 0.19536 0.0
H2078 H 0.99445 0.50672 0.19372 0.0
H2079 H 0.9959 0.50884 0.10853 0.0
C2080 C 0.03527 0.55221 0.91609 0.0
C2081 C 0.02274 0.56371 0.92588 0.0
C2082 C 0.03489 0.5363 0.93522 0.0
C2083 C 0.0218 0.53136 0.96398 0.0
C2084 C 0.00934 0.5429 0.97422 0.0
C2085 C 0.00976 0.55886 0.9552 0.0
C2086 C 0.02108 0.51418 0.98324 0.0
C2087 C 0.01949 0.51205 0.03133 0.0
C2088 C 0.02249 0.49996 0.9548 0.0
C2089 C 0.02331 0.50115 0.90356 0.0
C2090 C 0.01095 0.50951 0.87861 0.0
C2091 C 0.01186 0.51068 0.83035 0.0
C2092 C 0.02502 0.50344 0.80661 0.0
C2093 C 0.03727 0.49497 0.83108 0.0
C2094 C 0.03642 0.49377 0.87935 0.0
C2095 C 0.00771 0.44442 0.09386 0.0
C2096 C 0.0199 0.43275 0.0826 0.0
C2097 C 0.00775 0.46013 0.07359 0.0
C2098 C 0.02031 0.4648 0.04265 0.0
C2099 C 0.03232 0.45296 0.03055 0.0
C2100 C 0.03208 0.43709 0.05023 0.0
C2101 C 0.02097 0.48199 0.02329 0.0
C2102 C 0.02254 0.48414 0.97516 0.0
C2103 C 0.01958 0.49625 0.05173 0.0
C2104 C 0.01879 0.49514 0.10299 0.0
C2105 C 0.03119 0.48687 0.12803 0.0
C2106 C 0.03023 0.48568 0.17628 0.0
C2107 C 0.01698 0.49281 0.19992 0.0
C2108 C 0.0047 0.5012 0.17536 0.0
C2109 C 0.00559 0.50241 0.12711 0.0
H2110 H 0.01625 0.49186 0.23727 0.0
H2111 H 0.02571 0.50436 0.76924 0.0
H2112 H 0.08213 0.12978 0.19742 0.0
H2113 H 0.10227 0.1393 0.25595 0.0
H2114 H 0.06244 0.15826 0.33922 0.0
H2115 H 0.04247 0.14851 0.28176 0.0
H2116 H 0.09059 0.18169 0.30089 0.0
H2117 H 0.07777 0.1305 0.3864 0.0
H2118 H 0.07723 0.10012 0.39253 0.0
H2119 H 0.1295 0.09834 0.36842 0.0
H2120 H 0.13027 0.12872 0.36146 0.0
H2121 H 0.11527 0.19158 0.55169 0.0
H2122 H 0.1074 0.17363 0.48783 0.0
H2123 H 0.13908 0.2012 0.39596 0.0
H2124 H 0.14668 0.21969 0.46059 0.0
H2125 H 0.12026 0.15301 0.42793 0.0
H2126 H 0.12199 0.20032 0.2892 0.0
H2127 H 0.12422 0.23039 0.27646 0.0
H2128 H 0.09603 0.23949 0.39925 0.0
H2129 H 0.09358 0.20935 0.41316 0.0
C2130 C 0.0777 0.13513 0.22948 0.0
C2131 C 0.06073 0.13796 0.23585 0.0
C2132 C 0.08919 0.14079 0.2625 0.0
C2133 C 0.08382 0.14952 0.30183 0.0
C2134 C 0.06684 0.15147 0.3093 0.0
C2135 C 0.05543 0.14569 0.27678 0.0
C2136 C 0.09563 0.15822 0.33288 0.0
C2137 C 0.09721 0.17539 0.32845 0.0
C2138 C 0.10455 0.15002 0.36809 0.0
C2139 C 0.10404 0.13183 0.37284 0.0
C2140 C 0.08911 0.12362 0.38194 0.0
C2141 C 0.08877 0.1064 0.38568 0.0
C2142 C 0.10331 0.0973 0.38071 0.0
C2143 C 0.11824 0.1054 0.37218 0.0
C2144 C 0.11863 0.12261 0.36836 0.0
C2145 C 0.12099 0.19352 0.51819 0.0
C2146 C 0.13169 0.20697 0.51123 0.0
C2147 C 0.11643 0.18324 0.48152 0.0
C2148 C 0.12235 0.18613 0.43659 0.0
C2149 C 0.13408 0.19883 0.43007 0.0
C2150 C 0.13866 0.20925 0.46714 0.0
C2151 C 0.11483 0.17668 0.39716 0.0
C2152 C 0.11397 0.15932 0.39988 0.0
C2153 C 0.10674 0.18467 0.3598 0.0
C2154 C 0.1078 0.20268 0.35241 0.0
C2155 C 0.11628 0.20874 0.31357 0.0
C2156 C 0.11762 0.22573 0.3063 0.0
C2157 C 0.11036 0.23672 0.33742 0.0
C2158 C 0.10168 0.23081 0.37571 0.0
C2159 C 0.10035 0.21381 0.38334 0.0
H2160 H 0.11131 0.24981 0.33161 0.0
H2161 H 0.10303 0.08398 0.38359 0.0
H2162 H 0.14936 0.77882 0.54486 0.0
H2163 H 0.14145 0.79624 0.61109 0.0
H2164 H 0.11341 0.82759 0.51921 0.0
H2165 H 0.12208 0.81094 0.4536 0.0
H2166 H 0.12336 0.84583 0.58491 0.0
H2167 H 0.09225 0.79228 0.58893 0.0
H2168 H 0.09146 0.76175 0.59037 0.0
H2169 H 0.12501 0.76129 0.70541 0.0
H2170 H 0.1259 0.79181 0.7049 0.0
H2171 H 0.05136 0.86694 0.72022 0.0
H2172 H 0.07247 0.85842 0.66375 0.0
H2173 H 0.10025 0.83517 0.77342 0.0
H2174 H 0.07923 0.84354 0.82925 0.0
H2175 H 0.09408 0.81379 0.70588 0.0
H2176 H 0.11579 0.8685 0.71551 0.0
H2177 H 0.11485 0.89892 0.71396 0.0
H2178 H 0.0986 0.89774 0.57228 0.0
H2179 H 0.09921 0.86728 0.57316 0.0
C2180 C 0.14226 0.78993 0.53873 0.0
C2181 C 0.13648 0.7936 0.49401 0.0
C2182 C 0.13733 0.79967 0.57673 0.0
C2183 C 0.12626 0.81297 0.57068 0.0
C2184 C 0.12184 0.81744 0.52534 0.0
C2185 C 0.12693 0.80793 0.48761 0.0
C2186 C 0.118 0.82142 0.61071 0.0
C2187 C 0.11695 0.8388 0.61131 0.0
C2188 C 0.10979 0.81245 0.646 0.0
C2189 C 0.10929 0.79421 0.64644 0.0
C2190 C 0.0995 0.78562 0.61429 0.0
C2191 C 0.09899 0.76836 0.61505 0.0
C2192 C 0.10821 0.7596 0.64773 0.0
C2193 C 0.11788 0.76809 0.68007 0.0
C2194 C 0.11835 0.78536 0.67971 0.0
C2195 C 0.06236 0.86069 0.73238 0.0
C2196 C 0.06386 0.8562 0.77917 0.0
C2197 C 0.07437 0.85568 0.7001 0.0
C2198 C 0.088 0.84608 0.71423 0.0
C2199 C 0.0899 0.84251 0.76152 0.0
C2200 C 0.07797 0.84748 0.79351 0.0
C2201 C 0.09925 0.83818 0.67969 0.0
C2202 C 0.10073 0.82089 0.68004 0.0
C2203 C 0.10775 0.84727 0.64531 0.0
C2204 C 0.10742 0.86559 0.64454 0.0
C2205 C 0.11189 0.87471 0.68413 0.0
C2206 C 0.11144 0.89197 0.68335 0.0
C2207 C 0.10664 0.90026 0.64308 0.0
C2208 C 0.10231 0.8913 0.60346 0.0
C2209 C 0.10272 0.87404 0.60406 0.0
H2210 H 0.10629 0.91362 0.64255 0.0
H2211 H 0.10784 0.74624 0.64805 0.0
H2212 H 0.389 0.79125 0.99693 0.0
H2213 H 0.39458 0.81152 0.93514 0.0
H2214 H 0.43834 0.82752 0.00802 0.0
H2215 H 0.43235 0.80845 0.06995 0.0
H2216 H 0.42717 0.85241 0.96272 0.0
H2217 H 0.43695 0.79422 0.9273 0.0
H2218 H 0.42478 0.76632 0.92361 0.0
H2219 H 0.39221 0.78201 0.81465 0.0
H2220 H 0.40358 0.81026 0.81946 0.0
H2221 H 0.49013 0.86639 0.79325 0.0
H2222 H 0.47188 0.85862 0.85744 0.0
H2223 H 0.43219 0.8501 0.76041 0.0
H2224 H 0.4505 0.85761 0.69653 0.0
H2225 H 0.43643 0.82373 0.81304 0.0
H2226 H 0.43058 0.88186 0.84215 0.0
H2227 H 0.44053 0.91027 0.85531 0.0
H2228 H 0.46649 0.89439 0.97724 0.0
H2229 H 0.45688 0.86583 0.96448 0.0
C2230 C 0.39945 0.7995 1.0003 0.0
C2231 C 0.41043 0.79792 0.03778 0.0
C2232 C 0.40273 0.81102 0.96488 0.0
C2233 C 0.41722 0.82075 0.96606 0.0
C2234 C 0.42719 0.82016 0.0057 0.0
C2235 C 0.42379 0.80902 0.04108 0.0
C2236 C 0.42356 0.82981 0.92458 0.0
C2237 C 0.42914 0.84616 0.92993 0.0
C2238 C 0.4261 0.82176 0.88151 0.0
C2239 C 0.42095 0.80438 0.87413 0.0
C2240 C 0.42723 0.79169 0.90241 0.0
C2241 C 0.42032 0.77589 0.9006 0.0
C2242 C 0.4076 0.77245 0.86925 0.0
C2243 C 0.40194 0.78475 0.83922 0.0
C2244 C 0.40855 0.80069 0.84166 0.0
C2245 C 0.47726 0.86375 0.78604 0.0
C2246 C 0.47157 0.8631 0.74011 0.0
C2247 C 0.46686 0.85908 0.82266 0.0
C2248 C 0.45058 0.85374 0.8139 0.0
C2249 C 0.44465 0.85414 0.7682 0.0
C2250 C 0.45503 0.85873 0.73177 0.0
C2251 C 0.4403 0.84631 0.85146 0.0
C2252 C 0.43416 0.83017 0.8454 0.0
C2253 C 0.43745 0.85448 0.8941 0.0
C2254 C 0.44307 0.87169 0.9022 0.0
C2255 C 0.43848 0.88441 0.87163 0.0
C2256 C 0.44405 0.90054 0.87904 0.0
C2257 C 0.45415 0.90413 0.91705 0.0
C2258 C 0.45867 0.8916 0.94781 0.0
C2259 C 0.45313 0.87544 0.94056 0.0
H2260 H 0.45847 0.91663 0.92269 0.0
H2261 H 0.4023 0.76019 0.86781 0.0
H2262 H 0.45467 0.14366 0.34247 0.0
H2263 H 0.43574 0.15367 0.28281 0.0
H2264 H 0.46885 0.13612 0.17683 0.0
H2265 H 0.48792 0.12612 0.23697 0.0
H2266 H 0.44649 0.1783 0.22455 0.0
H2267 H 0.44498 0.13096 0.07555 0.0
H2268 H 0.44564 0.10076 0.06434 0.0
H2269 H 0.42421 0.09368 0.19886 0.0
H2270 H 0.4232 0.12383 0.21062 0.0
H2271 H 0.42448 0.19339 0.97072 0.0
H2272 H 0.43161 0.17324 0.03022 0.0
H2273 H 0.40197 0.2 0.12919 0.0
H2274 H 0.39558 0.22078 0.06962 0.0
H2275 H 0.4201 0.15202 0.08799 0.0
H2276 H 0.42198 0.20141 0.23332 0.0
H2277 H 0.42353 0.23175 0.24075 0.0
H2278 H 0.44834 0.2348 0.10963 0.0
H2279 H 0.44729 0.20448 0.10204 0.0
C2280 C 0.45747 0.14113 0.30644 0.0
C2281 C 0.47256 0.13375 0.29433 0.0
C2282 C 0.44676 0.14708 0.27235 0.0
C2283 C 0.45087 0.14575 0.2253 0.0
C2284 C 0.46531 0.13714 0.2129 0.0
C2285 C 0.47611 0.1312 0.24724 0.0
C2286 C 0.44126 0.15527 0.19022 0.0
C2287 C 0.44045 0.17251 0.19518 0.0
C2288 C 0.43385 0.14781 0.15102 0.0
C2289 C 0.43416 0.12966 0.1441 0.0
C2290 C 0.44034 0.12296 0.10265 0.0
C2291 C 0.44079 0.10585 0.09621 0.0
C2292 C 0.43501 0.09531 0.13092 0.0
C2293 C 0.42873 0.10186 0.17207 0.0
C2294 C 0.42825 0.11896 0.17868 0.0
C2295 C 0.41907 0.19466 0.00487 0.0
C2296 C 0.40951 0.2086 0.01574 0.0
C2297 C 0.42315 0.18312 0.03893 0.0
C2298 C 0.4177 0.18524 0.08469 0.0
C2299 C 0.40666 0.19827 0.09441 0.0
C2300 C 0.40279 0.21002 0.06029 0.0
C2301 C 0.42526 0.17509 0.12247 0.0
C2302 C 0.42589 0.15779 0.11781 0.0
C2303 C 0.43292 0.18252 0.16152 0.0
C2304 C 0.43423 0.20071 0.16669 0.0
C2305 C 0.42781 0.20856 0.20619 0.0
C2306 C 0.42862 0.22575 0.21044 0.0
C2307 C 0.43586 0.23521 0.17546 0.0
C2308 C 0.44258 0.22748 0.13651 0.0
C2309 C 0.4419 0.2103 0.13223 0.0
H2310 H 0.43634 0.24852 0.17868 0.0
H2311 H 0.43538 0.08207 0.12588 0.0
H2312 H 0.90666 0.76736 0.54162 0.0
H2313 H 0.91774 0.78669 0.59961 0.0
H2314 H 0.94163 0.81431 0.49096 0.0
H2315 H 0.93038 0.7951 0.43321 0.0
H2316 H 0.96343 0.80546 0.55578 0.0
H2317 H 0.91094 0.83185 0.55612 0.0
H2318 H 0.88062 0.83374 0.56081 0.0
H2319 H 0.8819 0.81393 0.69877 0.0
H2320 H 0.91224 0.8117 0.69466 0.0
H2321 H 0.00222 0.85995 0.71788 0.0
H2322 H 0.98474 0.8508 0.6528 0.0
H2323 H 0.95419 0.82353 0.74815 0.0
H2324 H 0.97189 0.8322 0.81244 0.0
H2325 H 0.93548 0.83447 0.68485 0.0
H2326 H 0.98924 0.80914 0.68359 0.0
H2327 H 0.0194 0.80691 0.67566 0.0
H2328 H 0.01624 0.82409 0.53543 0.0
H2329 H 0.98608 0.82696 0.54286 0.0
C2330 C 0.91369 0.77797 0.53008 0.0
C2331 C 0.91755 0.77983 0.48291 0.0
C2332 C 0.9201 0.78901 0.56326 0.0
C2333 C 0.93063 0.80203 0.54991 0.0
C2334 C 0.9336 0.80442 0.50237 0.0
C2335 C 0.92704 0.79351 0.46928 0.0
C2336 C 0.93997 0.8119 0.58543 0.0
C2337 C 0.95732 0.81206 0.58359 0.0
C2338 C 0.93209 0.82025 0.62234 0.0
C2339 C 0.91385 0.82147 0.62492 0.0
C2340 C 0.90475 0.82776 0.58731 0.0
C2341 C 0.88756 0.82892 0.58989 0.0
C2342 C 0.87933 0.82392 0.63003 0.0
C2343 C 0.88829 0.81778 0.66769 0.0
C2344 C 0.90548 0.81658 0.66527 0.0
C2345 C 0.99153 0.8523 0.72487 0.0
C2346 C 0.98835 0.84683 0.77022 0.0
C2347 C 0.98165 0.84689 0.68759 0.0
C2348 C 0.96841 0.83587 0.69501 0.0
C2349 C 0.96452 0.83161 0.74095 0.0
C2350 C 0.97456 0.8367 0.77789 0.0
C2351 C 0.95907 0.82798 0.65563 0.0
C2352 C 0.94168 0.82804 0.65688 0.0
C2353 C 0.967 0.81982 0.61804 0.0
C2354 C 0.98529 0.81845 0.61411 0.0
C2355 C 0.99492 0.81257 0.6512 0.0
C2356 C 0.01205 0.81122 0.64681 0.0
C2357 C 0.01973 0.8154 0.60519 0.0
C2358 C 0.01029 0.82095 0.56779 0.0
C2359 C 0.99317 0.8225 0.57216 0.0
H2360 H 0.03299 0.81433 0.60191 0.0
H2361 H 0.86602 0.82485 0.63197 0.0
H2362 H 0.92844 0.19752 0.57408 0.0
H2363 H 0.93875 0.17944 0.51257 0.0
H2364 H 0.92794 0.21722 0.41148 0.0
H2365 H 0.91634 0.23461 0.47281 0.0
H2366 H 0.92278 0.19135 0.37078 0.0
H2367 H 0.97832 0.20402 0.44533 0.0
H2368 H -0.00143 0.20528 0.50904 0.0
H2369 H 0.98173 0.1584 0.55967 0.0
H2370 H 0.96215 0.15634 0.49412 0.0
H2371 H 0.98383 0.1774 0.20151 0.0
H2372 H 0.96517 0.18573 0.26305 0.0
H2373 H 0.97288 0.13906 0.33174 0.0
H2374 H 0.99164 0.13051 0.26894 0.0
H2375 H 0.97703 0.16402 0.39109 0.0
H2376 H 0.93407 0.15058 0.28349 0.0
H2377 H 0.92007 0.15082 0.20754 0.0
H2378 H 0.91586 0.20363 0.21421 0.0
H2379 H 0.93004 0.20374 0.28991 0.0
C2380 C 0.92787 0.20171 0.53847 0.0
C2381 C 0.92126 0.21733 0.52815 0.0
C2382 C 0.93424 0.19154 0.50323 0.0
C2383 C 0.93484 0.19697 0.45682 0.0
C2384 C 0.92774 0.21248 0.44656 0.0
C2385 C 0.92095 0.22245 0.48167 0.0
C2386 C 0.94263 0.18665 0.41892 0.0
C2387 C 0.93472 0.18553 0.37545 0.0
C2388 C 0.95802 0.17843 0.42419 0.0
C2389 C 0.96844 0.18028 0.46585 0.0
C2390 C 0.97879 0.1941 0.47039 0.0
C2391 C 0.99027 0.19488 0.50652 0.0
C2392 C 0.99118 0.18214 0.53905 0.0
C2393 C 0.98088 0.16837 0.5348 0.0
C2394 C 0.96973 0.16729 0.49787 0.0
C2395 C 0.98138 0.16874 0.22926 0.0
C2396 C 0.98929 0.15326 0.2302 0.0
C2397 C 0.97052 0.17349 0.26448 0.0
C2398 C 0.96735 0.16304 0.30235 0.0
C2399 C 0.97498 0.14738 0.30296 0.0
C2400 C 0.98567 0.14245 0.26696 0.0
C2401 C 0.95747 0.1693 0.34289 0.0
C2402 C 0.96493 0.16958 0.38684 0.0
C2403 C 0.94196 0.17721 0.3375 0.0
C2404 C 0.93314 0.17715 0.29239 0.0
C2405 C 0.93021 0.16225 0.26871 0.0
C2406 C 0.92224 0.16232 0.22569 0.0
C2407 C 0.91708 0.17723 0.20607 0.0
C2408 C 0.91984 0.19209 0.22948 0.0
C2409 C 0.92781 0.19208 0.2725 0.0
H2410 H 0.91093 0.17726 0.17273 0.0
H2411 H 0.0 0.18285 0.56719 0.0
H2412 H 0.58668 0.21503 0.96706 0.0
H2413 H 0.57683 0.19776 0.02981 0.0
H2414 H 0.62373 0.20257 0.09942 0.0
H2415 H 0.634 0.21987 0.03499 0.0
H2416 H 0.61012 0.17071 0.10894 0.0
H2417 H 0.59195 0.22612 0.13639 0.0
H2418 H 0.57971 0.25308 0.11629 0.0
H2419 H 0.53403 0.22926 0.08077 0.0
H2420 H 0.54594 0.20219 0.10099 0.0
H2421 H 0.56662 0.15198 0.32767 0.0
H2422 H 0.58454 0.16303 0.26622 0.0
H2423 H 0.54514 0.15671 0.16714 0.0
H2424 H 0.52731 0.14563 0.22841 0.0
H2425 H 0.55782 0.19015 0.17939 0.0
H2426 H 0.57632 0.13467 0.15095 0.0
H2427 H 0.58854 0.1078 0.17173 0.0
H2428 H 0.63366 0.13188 0.21121 0.0
H2429 H 0.62161 0.15896 0.19134 0.0
C2430 C 0.59503 0.2124 0.99549 0.0
C2431 C 0.61107 0.21909 0.99632 0.0
C2432 C 0.58933 0.20249 0.0315 0.0
C2433 C 0.59934 0.19917 0.07006 0.0
C2434 C 0.61571 0.20508 0.0702 0.0
C2435 C 0.62157 0.21496 0.03345 0.0
C2436 C 0.59206 0.19023 0.11044 0.0
C2437 C 0.59886 0.17512 0.12504 0.0
C2438 C 0.57722 0.1958 0.13122 0.0
C2439 C 0.5699 0.21211 0.11983 0.0
C2440 C 0.57931 0.22663 0.12416 0.0
C2441 C 0.57241 0.24194 0.11288 0.0
C2442 C 0.55611 0.24288 0.09719 0.0
C2443 C 0.54665 0.22852 0.09292 0.0
C2444 C 0.55344 0.2132 0.10455 0.0
C2445 C 0.56207 0.15236 0.29236 0.0
C2446 C 0.54573 0.14772 0.28243 0.0
C2447 C 0.57226 0.15873 0.25736 0.0
C2448 C 0.56617 0.16072 0.21208 0.0
C2449 C 0.55012 0.15522 0.20175 0.0
C2450 C 0.53998 0.14878 0.23662 0.0
C2451 C 0.57557 0.17045 0.17711 0.0
C2452 C 0.56915 0.1858 0.16374 0.0
C2453 C 0.59075 0.16511 0.15803 0.0
C2454 C 0.59798 0.14887 0.17026 0.0
C2455 C 0.58878 0.13427 0.16461 0.0
C2456 C 0.59569 0.11899 0.17608 0.0
C2457 C 0.61184 0.11814 0.19295 0.0
C2458 C 0.62113 0.13257 0.19825 0.0
C2459 C 0.61427 0.14789 0.18686 0.0
H2460 H 0.61718 0.1063 0.20177 0.0
H2461 H 0.55079 0.25474 0.08848 0.0
H2462 H 0.56214 0.84289 0.69715 0.0
H2463 H 0.58027 0.83039 0.75641 0.0
H2464 H 0.53764 0.81827 0.83881 0.0
H2465 H 0.51958 0.83006 0.77909 0.0
H2466 H 0.56802 0.83318 0.88847 0.0
H2467 H 0.54919 0.79069 0.78044 0.0
H2468 H 0.54652 0.77912 0.70181 0.0
H2469 H 0.59928 0.77685 0.68978 0.0
H2470 H 0.60228 0.78917 0.7676 0.0
H2471 H 0.58951 0.74816 0.99243 0.0
H2472 H 0.57976 0.76522 0.92824 0.0
H2473 H 0.61522 0.80277 0.96474 0.0
H2474 H 0.62481 0.78577 0.02963 0.0
H2475 H 0.59146 0.77802 0.8529 0.0
H2476 H 0.60749 0.83213 0.94438 0.0
H2477 H 0.61027 0.84596 0.02036 0.0
H2478 H 0.56329 0.82646 0.06213 0.0
H2479 H 0.56025 0.81277 0.98622 0.0
C2480 C 0.55673 0.83778 0.72829 0.0
C2481 C 0.53949 0.83747 0.7337 0.0
C2482 C 0.56706 0.83062 0.76203 0.0
C2483 C 0.56031 0.82342 0.80216 0.0
C2484 C 0.54313 0.82382 0.80836 0.0
C2485 C 0.53283 0.83051 0.77417 0.0
C2486 C 0.57085 0.81441 0.8363 0.0
C2487 C 0.57328 0.82118 0.88056 0.0
C2488 C 0.57783 0.7988 0.82605 0.0
C2489 C 0.57597 0.79113 0.77961 0.0
C2490 C 0.56023 0.78803 0.76075 0.0
C2491 C 0.55866 0.78136 0.71626 0.0
C2492 C 0.57272 0.77727 0.6908 0.0
C2493 C 0.5884 0.78002 0.70956 0.0
C2494 C 0.59004 0.78693 0.75376 0.0
C2495 C 0.5952 0.7601 0.9869 0.0
C2496 C 0.60762 0.76577 0.01704 0.0
C2497 C 0.58962 0.7699 0.94999 0.0
C2498 C 0.59601 0.78586 0.94274 0.0
C2499 C 0.6092 0.7911 0.97108 0.0
C2500 C 0.61491 0.7812 0.00785 0.0
C2501 C 0.58863 0.79668 0.90571 0.0
C2502 C 0.58655 0.79017 0.86075 0.0
C2503 C 0.58222 0.81268 0.91501 0.0
C2504 C 0.58402 0.82076 0.96067 0.0
C2505 C 0.59787 0.83066 0.97008 0.0
C2506 C 0.59946 0.83854 0.01301 0.0
C2507 C 0.58708 0.83689 0.04636 0.0
C2508 C 0.573 0.82752 0.03659 0.0
C2509 C 0.57138 0.81962 0.99371 0.0
H2510 H 0.58831 0.843 0.07956 0.0
H2511 H 0.57148 0.77189 0.65667 0.0
H2512 H 0.59067 0.64239 0.67995 0.0
H2513 H 0.60905 0.65051 0.74346 0.0
H2514 H 0.57207 0.6357 0.84228 0.0
H2515 H 0.55372 0.62734 0.77867 0.0
H2516 H 0.581 0.66962 0.8446 0.0
H2517 H 0.60808 0.61631 0.84106 0.0
H2518 H 0.62329 0.59373 0.80287 0.0
H2519 H 0.6627 0.62715 0.76958 0.0
H2520 H 0.6476 0.65 0.80698 0.0
H2521 H 0.61413 0.68067 0.0626 0.0
H2522 H 0.60861 0.66425 0.99356 0.0
H2523 H 0.64049 0.69587 0.9137 0.0
H2524 H 0.64587 0.71279 0.98327 0.0
H2525 H 0.63749 0.65441 0.89592 0.0
H2526 H 0.61092 0.7078 0.88809 0.0
H2527 H 0.59574 0.73189 0.91812 0.0
H2528 H 0.55632 0.70003 0.96176 0.0
H2529 H 0.57144 0.67587 0.9334 0.0
C2530 C 0.58681 0.64007 0.7153 0.0
C2531 C 0.57083 0.63404 0.7244 0.0
C2532 C 0.5973 0.64482 0.75159 0.0
C2533 C 0.59195 0.64377 0.7977 0.0
C2534 C 0.5765 0.63654 0.80696 0.0
C2535 C 0.56608 0.63157 0.77062 0.0
C2536 C 0.60111 0.6526 0.83517 0.0
C2537 C 0.5933 0.66613 0.85598 0.0
C2538 C 0.61751 0.64868 0.84845 0.0
C2539 C 0.62664 0.6349 0.82647 0.0
C2540 C 0.61993 0.61888 0.82527 0.0
C2541 C 0.62854 0.60603 0.80383 0.0
C2542 C 0.64393 0.60901 0.78372 0.0
C2543 C 0.65077 0.62485 0.78514 0.0
C2544 C 0.6422 0.63776 0.80651 0.0
C2545 C 0.62043 0.68389 0.03075 0.0
C2546 C 0.63038 0.69813 0.02844 0.0
C2547 C 0.61727 0.67443 0.99126 0.0
C2548 C 0.62407 0.67883 0.94842 0.0
C2549 C 0.6352 0.69217 0.94654 0.0
C2550 C 0.63833 0.7018 0.98635 0.0
C2551 C 0.61714 0.67113 0.90568 0.0
C2552 C 0.62527 0.6579 0.88403 0.0
C2553 C 0.60119 0.67555 0.89026 0.0
C2554 C 0.59242 0.69003 0.90936 0.0
C2555 C 0.59916 0.70595 0.90505 0.0
C2556 C 0.59053 0.71965 0.92174 0.0
C2557 C 0.5751 0.71756 0.94244 0.0
C2558 C 0.56831 0.70174 0.94638 0.0
C2559 C 0.5769 0.68803 0.93005 0.0
H2560 H 0.56837 0.72817 0.95517 0.0
H2561 H 0.65058 0.59905 0.76711 0.0
H2562 H 0.54591 0.37235 0.23184 0.0
H2563 H 0.56229 0.36531 0.1628 0.0
H2564 H 0.59429 0.33509 0.24699 0.0
H2565 H 0.57836 0.34242 0.31548 0.0
H2566 H 0.61189 0.34907 0.17957 0.0
H2567 H 0.56126 0.3122 0.17675 0.0
H2568 H 0.53099 0.30843 0.17941 0.0
H2569 H 0.52465 0.3471 0.07952 0.0
H2570 H 0.55492 0.35056 0.0745 0.0
H2571 H 0.63619 0.28199 0.03032 0.0
H2572 H 0.62766 0.30176 0.09032 0.0
H2573 H 0.59671 0.32668 0.9906 0.0
H2574 H 0.60483 0.30675 0.93144 0.0
H2575 H 0.57918 0.31902 0.06109 0.0
H2576 H 0.6315 0.34532 0.04341 0.0
H2577 H 0.66181 0.34758 0.03935 0.0
H2578 H 0.66588 0.32987 0.17912 0.0
H2579 H 0.6356 0.32728 0.18383 0.0
C2580 C 0.55684 0.36478 0.23573 0.0
C2581 C 0.56091 0.35801 0.27906 0.0
C2582 C 0.56602 0.36047 0.19616 0.0
C2583 C 0.57933 0.34929 0.19935 0.0
C2584 C 0.58411 0.34366 0.24331 0.0
C2585 C 0.575 0.34792 0.28257 0.0
C2586 C 0.58745 0.34219 0.15729 0.0
C2587 C 0.60476 0.34252 0.15353 0.0
C2588 C 0.57827 0.33379 0.12284 0.0
C2589 C 0.56021 0.33184 0.12592 0.0
C2590 C 0.55337 0.31992 0.15551 0.0
C2591 C 0.53627 0.3178 0.15732 0.0
C2592 C 0.52594 0.32776 0.13051 0.0
C2593 C 0.53268 0.33952 0.10064 0.0
C2594 C 0.54979 0.34146 0.09793 0.0
C2595 C 0.62798 0.29201 0.02101 0.0
C2596 C 0.62109 0.29278 0.97633 0.0
C2597 C 0.62308 0.30333 0.05532 0.0
C2598 C 0.61143 0.31576 0.04524 0.0
C2599 C 0.60557 0.31718 0.99957 0.0
C2600 C 0.61026 0.30579 0.96567 0.0
C2601 C 0.60374 0.32589 0.08283 0.0
C2602 C 0.58643 0.3259 0.0862 0.0
C2603 C 0.61303 0.3346 0.11664 0.0
C2604 C 0.63126 0.33596 0.1138 0.0
C2605 C 0.63886 0.34175 0.07314 0.0
C2606 C 0.65604 0.34313 0.07075 0.0
C2607 C 0.66577 0.33883 0.10891 0.0
C2608 C 0.65833 0.33317 0.14956 0.0
C2609 C 0.64115 0.33176 0.15212 0.0
H2610 H 0.67907 0.33993 0.10702 0.0
H2611 H 0.51273 0.32632 0.13284 0.0
H2612 H -0.00113 0.33796 0.27892 0.0
H2613 H 0.97918 0.32992 0.3387 0.0
H2614 H 0.94256 0.36189 0.27791 0.0
H2615 H 0.96228 0.36956 0.21627 0.0
H2616 H 0.95406 0.35353 0.40088 0.0
H2617 H 0.92683 0.33747 0.25181 0.0
H2618 H 0.92842 0.32609 0.17261 0.0
H2619 H 0.95121 0.28208 0.22531 0.0
H2620 H 0.95045 0.29354 0.30459 0.0
H2621 H 0.89792 0.30789 0.54445 0.0
H2622 H 0.90656 0.32616 0.48044 0.0
H2623 H 0.93638 0.28678 0.42439 0.0
H2624 H 0.92766 0.26874 0.48731 0.0
H2625 H 0.92293 0.30323 0.35568 0.0
H2626 H 0.95297 0.3163 0.49506 0.0
H2627 H 0.95594 0.32477 0.57676 0.0
H2628 H 0.93208 0.3709 0.54671 0.0
H2629 H 0.92876 0.36259 0.46485 0.0
C2630 C 0.98675 0.34361 0.2789 0.0
C2631 C 0.98209 0.35438 0.24302 0.0
C2632 C 0.97551 0.33897 0.31305 0.0
C2633 C 0.95934 0.34507 0.31232 0.0
C2634 C 0.95496 0.3569 0.27874 0.0
C2635 C 0.96626 0.36147 0.24397 0.0
C2636 C 0.94703 0.33766 0.34437 0.0
C2637 C 0.94674 0.34289 0.39075 0.0
C2638 C 0.93815 0.32329 0.33165 0.0
C2639 C 0.93885 0.31651 0.28396 0.0
C2640 C 0.9325 0.32553 0.24637 0.0
C2641 C 0.93324 0.31906 0.20148 0.0
C2642 C 0.94007 0.30344 0.19388 0.0
C2643 C 0.94612 0.29425 0.23119 0.0
C2644 C 0.94558 0.30076 0.27607 0.0
C2645 C 0.90588 0.30309 0.51753 0.0
C2646 C 0.91204 0.28692 0.52047 0.0
C2647 C 0.91097 0.31354 0.48128 0.0
C2648 C 0.92227 0.30793 0.44766 0.0
C2649 C 0.92762 0.29146 0.44955 0.0
C2650 C 0.92264 0.28113 0.48558 0.0
C2651 C 0.92966 0.31922 0.41237 0.0
C2652 C 0.92946 0.3144 0.36559 0.0
C2653 C 0.93841 0.33373 0.42499 0.0
C2654 C 0.94041 0.33875 0.47405 0.0
C2655 C 0.94823 0.3282 0.50597 0.0
C2656 C 0.95 0.33297 0.55228 0.0
C2657 C 0.94415 0.34834 0.56695 0.0
C2658 C 0.93656 0.35898 0.53531 0.0
C2659 C 0.93473 0.35425 0.48896 0.0
H2660 H 0.94553 0.35202 0.60282 0.0
H2661 H 0.94056 0.29841 0.15915 0.0
H2662 H 0.99692 0.66278 0.73498 0.0
H2663 H 0.97625 0.67044 0.67762 0.0
H2664 H 0.94406 0.63211 0.7281 0.0
H2665 H 0.96481 0.62462 0.78741 0.0
H2666 H 0.95534 0.64736 0.60724 0.0
H2667 H 0.92396 0.65274 0.75973 0.0
H2668 H 0.92531 0.66104 0.84202 0.0
H2669 H 0.94482 0.70833 0.80281 0.0
H2670 H 0.94392 0.70012 0.72039 0.0
H2671 H 0.89554 0.68592 0.4678 0.0
H2672 H 0.90532 0.66753 0.52968 0.0
H2673 H 0.92131 0.70998 0.60847 0.0
H2674 H 0.91071 0.72813 0.54817 0.0
H2675 H 0.91506 0.68826 0.66701 0.0
H2676 H 0.9457 0.68827 0.52656 0.0
H2677 H 0.95103 0.68464 0.44308 0.0
H2678 H 0.94009 0.6329 0.45461 0.0
H2679 H 0.93451 0.63632 0.53816 0.0
C2680 C 0.98559 0.65572 0.73349 0.0
C2681 C 0.98251 0.64312 0.76602 0.0
C2682 C 0.97377 0.66013 0.7005 0.0
C2683 C 0.95851 0.65203 0.69886 0.0
C2684 C 0.95573 0.63863 0.72903 0.0
C2685 C 0.96765 0.63421 0.76253 0.0
C2686 C 0.94531 0.65882 0.66817 0.0
C2687 C 0.94609 0.65585 0.6203 0.0
C2688 C 0.93399 0.6707 0.68483 0.0
C2689 C 0.93401 0.67576 0.73412 0.0
C2690 C 0.92865 0.66485 0.76876 0.0
C2691 C 0.92934 0.66954 0.81539 0.0
C2692 C 0.93522 0.68518 0.82765 0.0
C2693 C 0.94031 0.6962 0.79328 0.0
C2694 C 0.93972 0.69153 0.74664 0.0
C2695 C 0.90019 0.69128 0.49966 0.0
C2696 C 0.90201 0.70848 0.50362 0.0
C2697 C 0.90617 0.68076 0.53466 0.0
C2698 C 0.91458 0.68724 0.57351 0.0
C2699 C 0.91495 0.70449 0.5792 0.0
C2700 C 0.9087 0.71495 0.54477 0.0
C2701 C 0.92454 0.67646 0.60547 0.0
C2702 C 0.92359 0.67911 0.65363 0.0
C2703 C 0.93617 0.66472 0.58871 0.0
C2704 C 0.9395 0.6626 0.53849 0.0
C2705 C 0.94438 0.67615 0.51124 0.0
C2706 C 0.94744 0.67413 0.46392 0.0
C2707 C 0.94586 0.65855 0.44351 0.0
C2708 C 0.94126 0.64497 0.47044 0.0
C2709 C 0.93814 0.64695 0.51779 0.0
H2710 H 0.94823 0.65701 0.40686 0.0
H2711 H 0.93577 0.68878 0.86375 0.0
H2712 H 0.46663 0.34768 0.33675 0.0
H2713 H 0.44598 0.33797 0.28008 0.0
H2714 H 0.48336 0.3376 0.17386 0.0
H2715 H 0.50395 0.34688 0.23054 0.0
H2716 H 0.45319 0.35125 0.14405 0.0
H2717 H 0.47161 0.30178 0.23137 0.0
H2718 H 0.47401 0.28497 0.30266 0.0
H2719 H 0.42175 0.28781 0.32324 0.0
H2720 H 0.41893 0.3047 0.25257 0.0
H2721 H 0.42873 0.29929 0.96398 0.0
H2722 H 0.43793 0.31769 0.02409 0.0
H2723 H 0.4034 0.29545 0.11964 0.0
H2724 H 0.39481 0.27613 0.05852 0.0
H2725 H 0.42816 0.29583 0.16263 0.0
H2726 H 0.40648 0.34147 0.08042 0.0
H2727 H 0.40003 0.35937 0.01368 0.0
H2728 H 0.45175 0.36752 0.99069 0.0
H2729 H 0.45853 0.34952 0.05691 0.0
C2730 C 0.47027 0.34587 0.301 0.0
C2731 C 0.48675 0.34841 0.28762 0.0
C2732 C 0.45854 0.34014 0.26878 0.0
C2733 C 0.4631 0.33688 0.22262 0.0
C2734 C 0.47949 0.33994 0.20913 0.0
C2735 C 0.49123 0.34541 0.24141 0.0
C2736 C 0.45107 0.33003 0.18821 0.0
C2737 C 0.44768 0.33912 0.1479 0.0
C2738 C 0.44315 0.31459 0.19424 0.0
C2739 C 0.44509 0.30467 0.23703 0.0
C2740 C 0.46066 0.29895 0.25135 0.0
C2741 C 0.4621 0.28938 0.29153 0.0
C2742 C 0.44811 0.2854 0.31744 0.0
C2743 C 0.43259 0.29093 0.30322 0.0
C2744 C 0.43106 0.30049 0.26313 0.0
C2745 C 0.42259 0.29878 0.99731 0.0
C2746 C 0.41097 0.28635 0.0064 0.0
C2747 C 0.42788 0.30945 0.03226 0.0
C2748 C 0.42164 0.30818 0.07763 0.0
C2749 C 0.40878 0.2967 0.0855 0.0
C2750 C 0.40357 0.2858 0.05029 0.0
C2751 C 0.43015 0.31695 0.11725 0.0
C2752 C 0.43312 0.30818 0.15859 0.0
C2753 C 0.43701 0.33307 0.11312 0.0
C2754 C 0.433 0.34411 0.07362 0.0
C2755 C 0.41648 0.34704 0.06105 0.0
C2756 C 0.41277 0.35721 0.0233 0.0
C2757 C 0.42547 0.36457 0.99796 0.0
C2758 C 0.44192 0.36183 0.01039 0.0
C2759 C 0.4457 0.35168 0.04812 0.0
H2760 H 0.42257 0.37241 0.96869 0.0
H2761 H 0.4493 0.27799 0.34848 0.0
H2762 H 0.45467 0.73365 0.02994 0.0
H2763 H 0.46504 0.7172 0.96587 0.0
H2764 H 0.41611 0.69889 0.93876 0.0
H2765 H 0.40537 0.71545 1.00422 0.0
H2766 H 0.45046 0.67504 0.95049 0.0
H2767 H 0.43008 0.71033 0.79747 0.0
H2768 H 0.42125 0.73766 0.76887 0.0
H2769 H 0.4525 0.76133 0.8692 0.0
H2770 H 0.46179 0.73425 0.8975 0.0
H2771 H 0.48145 0.63877 0.73091 0.0
H2772 H 0.46273 0.65066 0.78958 0.0
H2773 H 0.4988 0.68822 0.82004 0.0
H2774 H 0.51775 0.67582 0.76492 0.0
H2775 H 0.46516 0.70035 0.79971 0.0
H2776 H 0.49468 0.66041 0.89632 0.0
H2777 H 0.5035 0.63218 0.91693 0.0
H2778 H 0.45284 0.61682 0.9251 0.0
H2779 H 0.44374 0.64492 0.904 0.0
C2780 C 0.44595 0.72619 0.01068 0.0
C2781 C 0.42909 0.72595 0.02283 0.0
C2782 C 0.45198 0.71678 0.97374 0.0
C2783 C 0.44141 0.70696 0.94697 0.0
C2784 C 0.42453 0.70652 0.95863 0.0
C2785 C 0.41841 0.71597 0.99615 0.0
C2786 C 0.4486 0.69688 0.90841 0.0
C2787 C 0.45353 0.68054 0.91738 0.0
C2788 C 0.45244 0.70381 0.8647 0.0
C2789 C 0.44628 0.72023 0.85046 0.0
C2790 C 0.43491 0.72139 0.81376 0.0
C2791 C 0.4299 0.73683 0.79739 0.0
C2792 C 0.43624 0.7512 0.81738 0.0
C2793 C 0.44745 0.75017 0.85411 0.0
C2794 C 0.45254 0.73476 0.8705 0.0
C2795 C 0.48547 0.6494 0.75073 0.0
C2796 C 0.501 0.65663 0.74204 0.0
C2797 C 0.47471 0.65625 0.7841 0.0
C2798 C 0.4792 0.67055 0.80901 0.0
C2799 C 0.49486 0.67738 0.80117 0.0
C2800 C 0.50567 0.67037 0.76894 0.0
C2801 C 0.46773 0.67879 0.84267 0.0
C2802 C 0.46195 0.69475 0.83263 0.0
C2803 C 0.46308 0.67148 0.88526 0.0
C2804 C 0.46855 0.65466 0.89796 0.0
C2805 C 0.48544 0.65096 0.90203 0.0
C2806 C 0.49048 0.635 0.91395 0.0
C2807 C 0.47874 0.6227 0.92214 0.0
C2808 C 0.46192 0.62635 0.91865 0.0
C2809 C 0.45682 0.64228 0.90675 0.0
H2810 H 0.48266 0.61035 0.93132 0.0
H2811 H 0.4326 0.76315 0.80408 0.0
H2812 H 0.11249 0.70147 0.44742 0.0
H2813 H 0.10289 0.68177 0.50589 0.0
H2814 H 0.11478 0.7168 0.61375 0.0
H2815 H 0.12527 0.73608 0.55512 0.0
H2816 H 0.12115 0.68824 0.64572 0.0
H2817 H 0.0666 0.70714 0.57457 0.0
H2818 H 0.04829 0.7113 0.50682 0.0
H2819 H 0.05912 0.66235 0.45885 0.0
H2820 H 0.0773 0.65785 0.52656 0.0
H2821 H 0.0632 0.67502 0.82244 0.0
H2822 H 0.08208 0.68251 0.76023 0.0
H2823 H 0.06645 0.63984 0.682 0.0
H2824 H 0.04769 0.63207 0.74531 0.0
H2825 H 0.06447 0.66585 0.62922 0.0
H2826 H 0.10761 0.64457 0.72082 0.0
H2827 H 0.12424 0.63942 0.79095 0.0
H2828 H 0.13564 0.6911 0.80076 0.0
H2829 H 0.11888 0.69662 0.73105 0.0
C2830 C 0.11342 0.70475 0.48374 0.0
C2831 C 0.11985 0.7202 0.49674 0.0
C2832 C 0.10755 0.69361 0.51729 0.0
C2833 C 0.10747 0.69783 0.56472 0.0
C2834 C 0.11457 0.71308 0.57769 0.0
C2835 C 0.1207 0.72411 0.54415 0.0
C2836 C 0.09993 0.68664 0.60086 0.0
C2837 C 0.10871 0.68347 0.64211 0.0
C2838 C 0.08399 0.67949 0.596 0.0
C2839 C 0.07354 0.68234 0.5548 0.0
C2840 C 0.06519 0.69737 0.54923 0.0
C2841 C 0.05476 0.69974 0.51112 0.0
C2842 C 0.05265 0.68718 0.47845 0.0
C2843 C 0.06083 0.67212 0.48405 0.0
C2844 C 0.07113 0.66962 0.52235 0.0
C2845 C 0.06408 0.66697 0.79252 0.0
C2846 C 0.05393 0.65293 0.78895 0.0
C2847 C 0.07504 0.6712 0.75691 0.0
C2848 C 0.07589 0.66176 0.71598 0.0
C2849 C 0.06613 0.64737 0.71301 0.0
C2850 C 0.05543 0.64289 0.74934 0.0
C2851 C 0.08541 0.66811 0.6749 0.0
C2852 C 0.07705 0.67032 0.63263 0.0
C2853 C 0.10178 0.67422 0.67879 0.0
C2854 C 0.11192 0.67102 0.72074 0.0
C2855 C 0.11357 0.65486 0.73809 0.0
C2856 C 0.12304 0.65187 0.77776 0.0
C2857 C 0.13098 0.66493 0.80033 0.0
C2858 C 0.12949 0.681 0.78322 0.0
C2859 C 0.12003 0.68406 0.74357 0.0
H2860 H 0.1383 0.66259 0.83105 0.0
H2861 H 0.04459 0.68908 0.449 0.0
H2862 H 0.03391 0.334 0.27484 0.0
H2863 H 0.05333 0.32721 0.33655 0.0
H2864 H 0.09329 0.34737 0.25577 0.0
H2865 H 0.07346 0.35477 0.19394 0.0
H2866 H 0.10198 0.31728 0.2931 0.0
H2867 H 0.08029 0.36753 0.35354 0.0
H2868 H 0.05844 0.38743 0.37391 0.0
H2869 H 0.03705 0.35216 0.46727 0.0
H2870 H 0.05865 0.33196 0.447 0.0
H2871 H 0.14503 0.2852 0.49416 0.0
H2872 H 0.13742 0.30606 0.43555 0.0
H2873 H 0.08672 0.30327 0.48086 0.0
H2874 H 0.09466 0.28477 0.54195 0.0
H2875 H 0.09062 0.33171 0.45686 0.0
H2876 H 0.11181 0.27993 0.38787 0.0
H2877 H 0.13498 0.26138 0.36906 0.0
H2878 H 0.15743 0.29946 0.28733 0.0
H2879 H 0.13513 0.31871 0.30864 0.0
C2880 C 0.0468 0.3372 0.27044 0.0
C2881 C 0.05214 0.34506 0.22979 0.0
C2882 C 0.05796 0.33328 0.3058 0.0
C2883 C 0.07492 0.3367 0.30119 0.0
C2884 C 0.08032 0.34457 0.26039 0.0
C2885 C 0.06899 0.34892 0.22523 0.0
C2886 C 0.08671 0.33161 0.33892 0.0
C2887 C 0.09971 0.32065 0.32891 0.0
C2888 C 0.08393 0.33602 0.38574 0.0
C2889 C 0.0711 0.34824 0.39873 0.0
C2890 C 0.0709 0.36401 0.37833 0.0
C2891 C 0.05856 0.37534 0.38984 0.0
C2892 C 0.04637 0.37106 0.42187 0.0
C2893 C 0.04652 0.35546 0.44253 0.0
C2894 C 0.05884 0.34408 0.43113 0.0
C2895 C 0.13235 0.28934 0.49198 0.0
C2896 C 0.12029 0.28255 0.52148 0.0
C2897 C 0.12793 0.30117 0.45806 0.0
C2898 C 0.11126 0.3059 0.45179 0.0
C2899 C 0.09961 0.29984 0.48354 0.0
C2900 C 0.10412 0.28874 0.51816 0.0
C2901 C 0.10515 0.31626 0.41177 0.0
C2902 C 0.09319 0.32845 0.42113 0.0
C2903 C 0.1089 0.31283 0.3645 0.0
C2904 C 0.12193 0.30091 0.35068 0.0
C2905 C 0.1218 0.28446 0.36646 0.0
C2906 C 0.13479 0.27382 0.35539 0.0
C2907 C 0.14759 0.27919 0.32677 0.0
C2908 C 0.14752 0.29531 0.30956 0.0
C2909 C 0.1348 0.30615 0.32155 0.0
H2910 H 0.15755 0.27088 0.31796 0.0
H2911 H 0.03681 0.37985 0.43069 0.0
loop_
_geom_bond_atom_site_label_1
_geom_bond_atom_site_label_2
_geom_bond_distance
_geom_bond_site_symmetry_2
_ccdc_geom_bond_type
Zn0 O1 2.055 . S
Zn0 O8 2.046 . S
Zn0 N16 2.036 . S
Zn0 O28 2.053 . S
Zn0 O30 2.066 . S
O1 Zn0 2.055 . S
O1 C4 1.259 1_455 S
C2 O30 1.256 . S
C2 O31 1.244 . S
Zn3 O5 2.046 . S
Zn3 O7 2.055 . S
Zn3 N9 2.036 . S
Zn3 O27 2.066 . S
Zn3 O31 2.053 . S
C4 O1 1.259 1_655 S
C4 O5 1.254 1_655 S
O5 Zn3 2.046 . S
O5 C4 1.254 1_455 S
C6 O27 1.256 . S
C6 O28 1.244 . S
O7 Zn3 2.055 . S
O7 C29 1.259 1_455 S
O8 Zn0 2.046 . S
O8 C29 1.254 1_455 S
N9 Zn3 2.036 . S
N9 C10 1.298 . S
N9 N12 1.398 . S
C10 N9 1.298 . S
C10 N13 1.367 . S
C10 C23 1.481 . S
C11 N12 1.299 . S
C11 N13 1.379 . S
N12 N9 1.398 . S
N12 C11 1.299 . S
N13 C10 1.367 . S
N13 C11 1.379 . S
C14 N16 1.298 . S
C14 N18 1.367 . S
C14 C22 1.481 . S
C15 N17 1.299 . S
C15 N18 1.379 . S
N16 Zn0 2.036 . S
N16 C14 1.298 . S
N16 N17 1.398 . S
N17 C15 1.299 . S
N17 N16 1.398 . S
N18 C14 1.367 . S
N18 C15 1.379 . S
H19 C22 0.980 . S
H20 C22 0.981 . S
H21 C22 0.981 . S
C22 C14 1.481 . S
C22 H19 0.980 . S
C22 H20 0.981 . S
C22 H21 0.981 . S
C23 C10 1.481 . S
C23 H24 0.980 . S
C23 H25 0.981 . S
C23 H26 0.981 . S
H24 C23 0.980 . S
H25 C23 0.981 . S
H26 C23 0.981 . S
O27 Zn3 2.066 . S
O27 C6 1.256 . S
O28 Zn0 2.053 . S
O28 C6 1.244 . S
C29 O7 1.259 1_655 S
C29 O8 1.254 1_655 S
O30 Zn0 2.066 . S
O30 C2 1.256 . S
O31 C2 1.244 . S
O31 Zn3 2.053 . S
Zn32 O33 2.055 . S
Zn32 O40 2.046 . S
Zn32 N48 2.036 . S
Zn32 O60 2.053 . S
Zn32 O62 2.066 . S
O33 Zn32 2.055 . S
O33 C36 1.259 . S
C34 O62 1.256 . S
C34 O63 1.244 . S
Zn35 O37 2.046 . S
Zn35 O39 2.055 . S
Zn35 N41 2.036 . S
Zn35 O59 2.066 . S
Zn35 O63 2.053 . S
C36 O33 1.259 . S
C36 O37 1.254 . S
O37 Zn35 2.046 . S
O37 C36 1.254 . S
C38 O59 1.256 . S
C38 O60 1.244 . S
O39 Zn35 2.055 . S
O39 C61 1.259 . S
O40 Zn32 2.046 . S
O40 C61 1.254 . S
N41 Zn35 2.036 . S
N41 C42 1.298 . S
N41 N44 1.398 . S
C42 N41 1.298 . S
C42 N45 1.367 . S
C42 C55 1.481 . S
C43 N44 1.299 . S
C43 N45 1.379 . S
N44 N41 1.398 . S
N44 C43 1.299 . S
N45 C42 1.367 . S
N45 C43 1.379 . S
C46 N48 1.298 . S
C46 N50 1.367 . S
C46 C54 1.481 . S
C47 N49 1.299 . S
C47 N50 1.379 . S
N48 Zn32 2.036 . S
N48 C46 1.298 . S
N48 N49 1.398 . S
N49 C47 1.299 . S
N49 N48 1.398 . S
N50 C46 1.367 . S
N50 C47 1.379 . S
H51 C54 0.980 . S
H52 C54 0.981 . S
H53 C54 0.981 . S
C54 C46 1.481 . S
C54 H51 0.980 . S
C54 H52 0.981 . S
C54 H53 0.981 . S
C55 C42 1.481 . S
C55 H56 0.980 . S
C55 H57 0.981 . S
C55 H58 0.981 . S
H56 C55 0.980 . S
H57 C55 0.981 . S
H58 C55 0.981 . S
O59 Zn35 2.066 . S
O59 C38 1.256 . S
O60 Zn32 2.053 . S
O60 C38 1.244 . S
C61 O39 1.259 . S
C61 O40 1.254 . S
O62 Zn32 2.066 . S
O62 C34 1.256 . S
O63 C34 1.244 . S
O63 Zn35 2.053 . S
Zn64 O65 2.055 . S
Zn64 O72 2.046 . S
Zn64 N80 2.036 . S
Zn64 O92 2.053 . S
Zn64 O94 2.066 . S
O65 Zn64 2.055 . S
O65 C68 1.259 . S
C66 O94 1.256 . S
C66 O95 1.244 . S
Zn67 O69 2.046 . S
Zn67 O71 2.055 . S
Zn67 N73 2.036 . S
Zn67 O91 2.066 . S
Zn67 O95 2.053 . S
C68 O65 1.259 . S
C68 O69 1.254 . S
O69 Zn67 2.046 . S
O69 C68 1.254 . S
C70 O91 1.256 . S
C70 O92 1.244 . S
O71 Zn67 2.055 . S
O71 C93 1.259 . S
O72 Zn64 2.046 . S
O72 C93 1.254 . S
N73 Zn67 2.036 . S
N73 C74 1.298 . S
N73 N76 1.398 . S
C74 N73 1.298 . S
C74 N77 1.367 . S
C74 C87 1.481 . S
C75 N76 1.299 . S
C75 N77 1.379 . S
N76 N73 1.398 . S
N76 C75 1.299 . S
N77 C74 1.367 . S
N77 C75 1.379 . S
C78 N80 1.298 . S
C78 N82 1.367 . S
C78 C86 1.481 . S
C79 N81 1.299 . S
C79 N82 1.379 . S
N80 Zn64 2.036 . S
N80 C78 1.298 . S
N80 N81 1.398 . S
N81 C79 1.299 . S
N81 N80 1.398 . S
N82 C78 1.367 . S
N82 C79 1.379 . S
H83 C86 0.980 . S
H84 C86 0.981 . S
H85 C86 0.981 . S
C86 C78 1.481 . S
C86 H83 0.980 . S
C86 H84 0.981 . S
C86 H85 0.981 . S
C87 C74 1.481 . S
C87 H88 0.980 . S
C87 H89 0.981 . S
C87 H90 0.981 . S
H88 C87 0.980 . S
H89 C87 0.981 . S
H90 C87 0.981 . S
O91 Zn67 2.066 . S
O91 C70 1.256 . S
O92 Zn64 2.053 . S
O92 C70 1.244 . S
C93 O71 1.259 . S
C93 O72 1.254 . S
O94 Zn64 2.066 . S
O94 C66 1.256 . S
O95 C66 1.244 . S
O95 Zn67 2.053 . S
Zn96 O97 2.055 . S
Zn96 O104 2.046 . S
Zn96 N112 2.036 . S
Zn96 O124 2.053 . S
Zn96 O126 2.066 . S
O97 Zn96 2.055 . S
O97 C100 1.259 . S
C98 O126 1.256 . S
C98 O127 1.244 . S
Zn99 O101 2.046 . S
Zn99 O103 2.055 . S
Zn99 N105 2.036 . S
Zn99 O123 2.066 . S
Zn99 O127 2.053 . S
C100 O97 1.259 . S
C100 O101 1.254 . S
O101 Zn99 2.046 . S
O101 C100 1.254 . S
C102 O123 1.256 . S
C102 O124 1.244 . S
O103 Zn99 2.055 . S
O103 C125 1.259 . S
O104 Zn96 2.046 . S
O104 C125 1.254 . S
N105 Zn99 2.036 . S
N105 C106 1.298 . S
N105 N108 1.398 . S
C106 N105 1.298 . S
C106 N109 1.367 . S
C106 C119 1.481 . S
C107 N108 1.299 . S
C107 N109 1.379 . S
N108 N105 1.398 . S
N108 C107 1.299 . S
N109 C106 1.367 . S
N109 C107 1.379 . S
C110 N112 1.298 . S
C110 N114 1.367 . S
C110 C118 1.481 . S
C111 N113 1.299 . S
C111 N114 1.379 . S
N112 Zn96 2.036 . S
N112 C110 1.298 . S
N112 N113 1.398 . S
N113 C111 1.299 . S
N113 N112 1.398 . S
N114 C110 1.367 . S
N114 C111 1.379 . S
H115 C118 0.980 . S
H116 C118 0.981 . S
H117 C118 0.981 . S
C118 C110 1.481 . S
C118 H115 0.980 . S
C118 H116 0.981 . S
C118 H117 0.981 . S
C119 C106 1.481 . S
C119 H120 0.980 . S
C119 H121 0.981 . S
C119 H122 0.981 . S
H120 C119 0.980 . S
H121 C119 0.981 . S
H122 C119 0.981 . S
O123 Zn99 2.066 . S
O123 C102 1.256 . S
O124 Zn96 2.053 . S
O124 C102 1.244 . S
C125 O103 1.259 . S
C125 O104 1.254 . S
O126 Zn96 2.066 . S
O126 C98 1.256 . S
O127 C98 1.244 . S
O127 Zn99 2.053 . S
Zn128 O129 2.055 . S
Zn128 O136 2.046 . S
Zn128 N144 2.036 . S
Zn128 O156 2.053 . S
Zn128 O158 2.066 . S
O129 Zn128 2.055 . S
O129 C132 1.259 1_455 S
C130 O158 1.256 . S
C130 O159 1.244 . S
Zn131 O133 2.046 . S
Zn131 O135 2.055 . S
Zn131 N137 2.036 . S
Zn131 O155 2.066 . S
Zn131 O159 2.053 . S
C132 O129 1.259 1_655 S
C132 O133 1.254 1_655 S
O133 Zn131 2.046 . S
O133 C132 1.254 1_455 S
C134 O155 1.256 . S
C134 O156 1.244 . S
O135 Zn131 2.055 . S
O135 C157 1.259 1_455 S
O136 Zn128 2.046 . S
O136 C157 1.254 1_455 S
N137 Zn131 2.036 . S
N137 C138 1.298 . S
N137 N140 1.398 . S
C138 N137 1.298 . S
C138 N141 1.367 . S
C138 C151 1.481 . S
C139 N140 1.299 . S
C139 N141 1.379 . S
N140 N137 1.398 . S
N140 C139 1.299 . S
N141 C138 1.367 . S
N141 C139 1.379 . S
C142 N144 1.298 . S
C142 N146 1.367 . S
C142 C150 1.481 . S
C143 N145 1.299 . S
C143 N146 1.379 . S
N144 Zn128 2.036 . S
N144 C142 1.298 . S
N144 N145 1.398 . S
N145 C143 1.299 . S
N145 N144 1.398 . S
N146 C142 1.367 . S
N146 C143 1.379 . S
H147 C150 0.980 . S
H148 C150 0.981 . S
H149 C150 0.981 . S
C150 C142 1.481 . S
C150 H147 0.980 . S
C150 H148 0.981 . S
C150 H149 0.981 . S
C151 C138 1.481 . S
C151 H152 0.980 . S
C151 H153 0.981 . S
C151 H154 0.981 . S
H152 C151 0.980 . S
H153 C151 0.981 . S
H154 C151 0.981 . S
O155 Zn131 2.066 . S
O155 C134 1.256 . S
O156 Zn128 2.053 . S
O156 C134 1.244 . S
C157 O135 1.259 1_655 S
C157 O136 1.254 1_655 S
O158 Zn128 2.066 . S
O158 C130 1.256 . S
O159 C130 1.244 . S
O159 Zn131 2.053 . S
Zn160 O161 2.055 . S
Zn160 O168 2.046 . S
Zn160 N176 2.036 . S
Zn160 O188 2.053 . S
Zn160 O190 2.066 . S
O161 Zn160 2.055 . S
O161 C164 1.259 . S
C162 O190 1.256 . S
C162 O191 1.244 . S
Zn163 O165 2.046 . S
Zn163 O167 2.055 . S
Zn163 N169 2.036 . S
Zn163 O187 2.066 . S
Zn163 O191 2.053 . S
C164 O161 1.259 . S
C164 O165 1.254 . S
O165 Zn163 2.046 . S
O165 C164 1.254 . S
C166 O187 1.256 . S
C166 O188 1.244 . S
O167 Zn163 2.055 . S
O167 C189 1.259 . S
O168 Zn160 2.046 . S
O168 C189 1.254 . S
N169 Zn163 2.036 . S
N169 C170 1.298 . S
N169 N172 1.398 . S
C170 N169 1.298 . S
C170 N173 1.367 . S
C170 C183 1.481 . S
C171 N172 1.299 . S
C171 N173 1.379 . S
N172 N169 1.398 . S
N172 C171 1.299 . S
N173 C170 1.367 . S
N173 C171 1.379 . S
C174 N176 1.298 . S
C174 N178 1.367 . S
C174 C182 1.481 . S
C175 N177 1.299 . S
C175 N178 1.379 . S
N176 Zn160 2.036 . S
N176 C174 1.298 . S
N176 N177 1.398 . S
N177 C175 1.299 . S
N177 N176 1.398 . S
N178 C174 1.367 . S
N178 C175 1.379 . S
H179 C182 0.980 . S
H180 C182 0.981 . S
H181 C182 0.981 . S
C182 C174 1.481 . S
C182 H179 0.980 . S
C182 H180 0.981 . S
C182 H181 0.981 . S
C183 C170 1.481 . S
C183 H184 0.980 . S
C183 H185 0.981 . S
C183 H186 0.981 . S
H184 C183 0.980 . S
H185 C183 0.981 . S
H186 C183 0.981 . S
O187 Zn163 2.066 . S
O187 C166 1.256 . S
O188 Zn160 2.053 . S
O188 C166 1.244 . S
C189 O167 1.259 . S
C189 O168 1.254 . S
O190 Zn160 2.066 . S
O190 C162 1.256 . S
O191 C162 1.244 . S
O191 Zn163 2.053 . S
Zn192 O193 2.055 . S
Zn192 O200 2.046 . S
Zn192 N208 2.036 . S
Zn192 O220 2.053 . S
Zn192 O222 2.066 . S
O193 Zn192 2.055 . S
O193 C196 1.259 . S
C194 O222 1.256 . S
C194 O223 1.244 . S
Zn195 O197 2.046 . S
Zn195 O199 2.055 . S
Zn195 N201 2.036 . S
Zn195 O219 2.066 . S
Zn195 O223 2.053 . S
C196 O193 1.259 . S
C196 O197 1.254 . S
O197 Zn195 2.046 . S
O197 C196 1.254 . S
C198 O219 1.256 . S
C198 O220 1.244 . S
O199 Zn195 2.055 . S
O199 C221 1.259 . S
O200 Zn192 2.046 . S
O200 C221 1.254 . S
N201 Zn195 2.036 . S
N201 C202 1.298 . S
N201 N204 1.398 . S
C202 N201 1.298 . S
C202 N205 1.367 . S
C202 C215 1.481 . S
C203 N204 1.299 . S
C203 N205 1.379 . S
N204 N201 1.398 . S
N204 C203 1.299 . S
N205 C202 1.367 . S
N205 C203 1.379 . S
C206 N208 1.298 . S
C206 N210 1.367 . S
C206 C214 1.481 . S
C207 N209 1.299 . S
C207 N210 1.379 . S
N208 Zn192 2.036 . S
N208 C206 1.298 . S
N208 N209 1.398 . S
N209 C207 1.299 . S
N209 N208 1.398 . S
N210 C206 1.367 . S
N210 C207 1.379 . S
H211 C214 0.980 . S
H212 C214 0.981 . S
H213 C214 0.981 . S
C214 C206 1.481 . S
C214 H211 0.980 . S
C214 H212 0.981 . S
C214 H213 0.981 . S
C215 C202 1.481 . S
C215 H216 0.980 . S
C215 H217 0.981 . S
C215 H218 0.981 . S
H216 C215 0.980 . S
H217 C215 0.981 . S
H218 C215 0.981 . S
O219 Zn195 2.066 . S
O219 C198 1.256 . S
O220 Zn192 2.053 . S
O220 C198 1.244 . S
C221 O199 1.259 . S
C221 O200 1.254 . S
O222 Zn192 2.066 . S
O222 C194 1.256 . S
O223 C194 1.244 . S
O223 Zn195 2.053 . S
Zn224 O225 2.055 . S
Zn224 O232 2.046 . S
Zn224 N240 2.036 . S
Zn224 O252 2.053 . S
Zn224 O254 2.066 . S
O225 Zn224 2.055 . S
O225 C228 1.259 . S
C226 O254 1.256 . S
C226 O255 1.244 . S
Zn227 O229 2.046 . S
Zn227 O231 2.055 . S
Zn227 N233 2.036 . S
Zn227 O251 2.066 . S
Zn227 O255 2.053 . S
C228 O225 1.259 . S
C228 O229 1.254 . S
O229 Zn227 2.046 . S
O229 C228 1.254 . S
C230 O251 1.256 . S
C230 O252 1.244 . S
O231 Zn227 2.055 . S
O231 C253 1.259 . S
O232 Zn224 2.046 . S
O232 C253 1.254 . S
N233 Zn227 2.036 . S
N233 C234 1.298 . S
N233 N236 1.398 . S
C234 N233 1.298 . S
C234 N237 1.367 . S
C234 C247 1.481 . S
C235 N236 1.299 . S
C235 N237 1.379 . S
N236 N233 1.398 . S
N236 C235 1.299 . S
N237 C234 1.367 . S
N237 C235 1.379 . S
C238 N240 1.298 . S
C238 N242 1.367 . S
C238 C246 1.481 . S
C239 N241 1.299 . S
C239 N242 1.379 . S
N240 Zn224 2.036 . S
N240 C238 1.298 . S
N240 N241 1.398 . S
N241 C239 1.299 . S
N241 N240 1.398 . S
N242 C238 1.367 . S
N242 C239 1.379 . S
H243 C246 0.980 . S
H244 C246 0.981 . S
H245 C246 0.981 . S
C246 C238 1.481 . S
C246 H243 0.980 . S
C246 H244 0.981 . S
C246 H245 0.981 . S
C247 C234 1.481 . S
C247 H248 0.980 . S
C247 H249 0.981 . S
C247 H250 0.981 . S
H248 C247 0.980 . S
H249 C247 0.981 . S
H250 C247 0.981 . S
O251 Zn227 2.066 . S
O251 C230 1.256 . S
O252 Zn224 2.053 . S
O252 C230 1.244 . S
C253 O231 1.259 . S
C253 O232 1.254 . S
O254 Zn224 2.066 . S
O254 C226 1.256 . S
O255 C226 1.244 . S
O255 Zn227 2.053 . S
Zn256 O257 2.055 . S
Zn256 O264 2.046 . S
Zn256 N272 2.036 . S
Zn256 O284 2.053 . S
Zn256 O286 2.066 . S
O257 Zn256 2.055 . S
O257 C260 1.259 . S
C258 O286 1.256 . S
C258 O287 1.244 . S
Zn259 O261 2.046 . S
Zn259 O263 2.055 . S
Zn259 N265 2.036 . S
Zn259 O283 2.066 . S
Zn259 O287 2.053 . S
C260 O257 1.259 . S
C260 O261 1.254 . S
O261 Zn259 2.046 . S
O261 C260 1.254 . S
C262 O283 1.256 . S
C262 O284 1.244 . S
O263 Zn259 2.055 . S
O263 C285 1.259 . S
O264 Zn256 2.046 . S
O264 C285 1.254 . S
N265 Zn259 2.036 . S
N265 C266 1.298 . S
N265 N268 1.398 . S
C266 N265 1.298 . S
C266 N269 1.367 . S
C266 C279 1.481 . S
C267 N268 1.299 . S
C267 N269 1.379 . S
N268 N265 1.398 . S
N268 C267 1.299 . S
N269 C266 1.367 . S
N269 C267 1.379 . S
C270 N272 1.298 . S
C270 N274 1.367 . S
C270 C278 1.481 . S
C271 N273 1.299 . S
C271 N274 1.379 . S
N272 Zn256 2.036 . S
N272 C270 1.298 . S
N272 N273 1.398 . S
N273 C271 1.299 . S
N273 N272 1.398 . S
N274 C270 1.367 . S
N274 C271 1.379 . S
H275 C278 0.980 . S
H276 C278 0.981 . S
H277 C278 0.981 . S
C278 C270 1.481 . S
C278 H275 0.980 . S
C278 H276 0.981 . S
C278 H277 0.981 . S
C279 C266 1.481 . S
C279 H280 0.980 . S
C279 H281 0.981 . S
C279 H282 0.981 . S
H280 C279 0.980 . S
H281 C279 0.981 . S
H282 C279 0.981 . S
O283 Zn259 2.066 . S
O283 C262 1.256 . S
O284 Zn256 2.053 . S
O284 C262 1.244 . S
C285 O263 1.259 . S
C285 O264 1.254 . S
O286 Zn256 2.066 . S
O286 C258 1.256 . S
O287 C258 1.244 . S
O287 Zn259 2.053 . S
Zn288 O289 2.055 . S
Zn288 O296 2.046 . S
Zn288 N304 2.036 . S
Zn288 O316 2.053 . S
Zn288 O318 2.066 . S
O289 Zn288 2.055 . S
O289 C292 1.259 . S
C290 O318 1.256 . S
C290 O319 1.244 . S
Zn291 O293 2.046 . S
Zn291 O295 2.055 . S
Zn291 N297 2.036 . S
Zn291 O315 2.066 . S
Zn291 O319 2.053 . S
C292 O289 1.259 . S
C292 O293 1.254 . S
O293 Zn291 2.046 . S
O293 C292 1.254 . S
C294 O315 1.256 . S
C294 O316 1.244 . S
O295 Zn291 2.055 . S
O295 C317 1.259 . S
O296 Zn288 2.046 . S
O296 C317 1.254 . S
N297 Zn291 2.036 . S
N297 C298 1.298 . S
N297 N300 1.398 . S
C298 N297 1.298 . S
C298 N301 1.367 . S
C298 C311 1.481 . S
C299 N300 1.299 . S
C299 N301 1.379 . S
N300 N297 1.398 . S
N300 C299 1.299 . S
N301 C298 1.367 . S
N301 C299 1.379 . S
C302 N304 1.298 . S
C302 N306 1.367 . S
C302 C310 1.481 . S
C303 N305 1.299 . S
C303 N306 1.379 . S
N304 Zn288 2.036 . S
N304 C302 1.298 . S
N304 N305 1.398 . S
N305 C303 1.299 . S
N305 N304 1.398 . S
N306 C302 1.367 . S
N306 C303 1.379 . S
H307 C310 0.980 . S
H308 C310 0.981 . S
H309 C310 0.981 . S
C310 C302 1.481 . S
C310 H307 0.980 . S
C310 H308 0.981 . S
C310 H309 0.981 . S
C311 C298 1.481 . S
C311 H312 0.980 . S
C311 H313 0.981 . S
C311 H314 0.981 . S
H312 C311 0.980 . S
H313 C311 0.981 . S
H314 C311 0.981 . S
O315 Zn291 2.066 . S
O315 C294 1.256 . S
O316 Zn288 2.053 . S
O316 C294 1.244 . S
C317 O295 1.259 . S
C317 O296 1.254 . S
O318 Zn288 2.066 . S
O318 C290 1.256 . S
O319 C290 1.244 . S
O319 Zn291 2.053 . S
Zn320 O321 2.055 . S
Zn320 O328 2.046 . S
Zn320 N336 2.036 . S
Zn320 O348 2.053 . S
Zn320 O350 2.066 . S
O321 Zn320 2.055 . S
O321 C324 1.259 . S
C322 O350 1.256 . S
C322 O351 1.244 . S
Zn323 O325 2.046 . S
Zn323 O327 2.055 . S
Zn323 N329 2.036 . S
Zn323 O347 2.066 . S
Zn323 O351 2.053 . S
C324 O321 1.259 . S
C324 O325 1.254 . S
O325 Zn323 2.046 . S
O325 C324 1.254 . S
C326 O347 1.256 . S
C326 O348 1.244 . S
O327 Zn323 2.055 . S
O327 C349 1.259 . S
O328 Zn320 2.046 . S
O328 C349 1.254 . S
N329 Zn323 2.036 . S
N329 C330 1.298 . S
N329 N332 1.398 . S
C330 N329 1.298 . S
C330 N333 1.367 . S
C330 C343 1.481 . S
C331 N332 1.299 . S
C331 N333 1.379 . S
N332 N329 1.398 . S
N332 C331 1.299 . S
N333 C330 1.367 . S
N333 C331 1.379 . S
C334 N336 1.298 . S
C334 N338 1.367 . S
C334 C342 1.481 . S
C335 N337 1.299 . S
C335 N338 1.379 . S
N336 Zn320 2.036 . S
N336 C334 1.298 . S
N336 N337 1.398 . S
N337 C335 1.299 . S
N337 N336 1.398 . S
N338 C334 1.367 . S
N338 C335 1.379 . S
H339 C342 0.980 . S
H340 C342 0.981 . S
H341 C342 0.981 . S
C342 C334 1.481 . S
C342 H339 0.980 . S
C342 H340 0.981 . S
C342 H341 0.981 . S
C343 C330 1.481 . S
C343 H344 0.980 . S
C343 H345 0.981 . S
C343 H346 0.981 . S
H344 C343 0.980 . S
H345 C343 0.981 . S
H346 C343 0.981 . S
O347 Zn323 2.066 . S
O347 C326 1.256 . S
O348 Zn320 2.053 . S
O348 C326 1.244 . S
C349 O327 1.259 . S
C349 O328 1.254 . S
O350 Zn320 2.066 . S
O350 C322 1.256 . S
O351 C322 1.244 . S
O351 Zn323 2.053 . S
Zn352 O353 2.055 . S
Zn352 O360 2.046 . S
Zn352 N368 2.036 . S
Zn352 O380 2.053 . S
Zn352 O382 2.066 . S
O353 Zn352 2.055 . S
O353 C356 1.259 . S
C354 O382 1.256 . S
C354 O383 1.244 . S
Zn355 O357 2.046 . S
Zn355 O359 2.055 . S
Zn355 N361 2.036 . S
Zn355 O379 2.066 . S
Zn355 O383 2.053 . S
C356 O353 1.259 . S
C356 O357 1.254 . S
O357 Zn355 2.046 . S
O357 C356 1.254 . S
C358 O379 1.256 . S
C358 O380 1.244 . S
O359 Zn355 2.055 . S
O359 C381 1.259 . S
O360 Zn352 2.046 . S
O360 C381 1.254 . S
N361 Zn355 2.036 . S
N361 C362 1.298 . S
N361 N364 1.398 . S
C362 N361 1.298 . S
C362 N365 1.367 . S
C362 C375 1.481 . S
C363 N364 1.299 . S
C363 N365 1.379 . S
N364 N361 1.398 . S
N364 C363 1.299 . S
N365 C362 1.367 . S
N365 C363 1.379 . S
C366 N368 1.298 . S
C366 N370 1.367 . S
C366 C374 1.481 . S
C367 N369 1.299 . S
C367 N370 1.379 . S
N368 Zn352 2.036 . S
N368 C366 1.298 . S
N368 N369 1.398 . S
N369 C367 1.299 . S
N369 N368 1.398 . S
N370 C366 1.367 . S
N370 C367 1.379 . S
H371 C374 0.980 . S
H372 C374 0.981 . S
H373 C374 0.981 . S
C374 C366 1.481 . S
C374 H371 0.980 . S
C374 H372 0.981 . S
C374 H373 0.981 . S
C375 C362 1.481 . S
C375 H376 0.980 . S
C375 H377 0.981 . S
C375 H378 0.981 . S
H376 C375 0.980 . S
H377 C375 0.981 . S
H378 C375 0.981 . S
O379 Zn355 2.066 . S
O379 C358 1.256 . S
O380 Zn352 2.053 . S
O380 C358 1.244 . S
C381 O359 1.259 . S
C381 O360 1.254 . S
O382 Zn352 2.066 . S
O382 C354 1.256 . S
O383 C354 1.244 . S
O383 Zn355 2.053 . S
Zn384 O385 2.055 . S
Zn384 O392 2.046 . S
Zn384 N400 2.036 . S
Zn384 O412 2.053 . S
Zn384 O414 2.066 . S
O385 Zn384 2.055 . S
O385 C388 1.259 . S
C386 O414 1.256 . S
C386 O415 1.244 . S
Zn387 O389 2.046 . S
Zn387 O391 2.055 . S
Zn387 N393 2.036 . S
Zn387 O411 2.066 . S
Zn387 O415 2.053 . S
C388 O385 1.259 . S
C388 O389 1.254 . S
O389 Zn387 2.046 . S
O389 C388 1.254 . S
C390 O411 1.256 . S
C390 O412 1.244 . S
O391 Zn387 2.055 . S
O391 C413 1.259 . S
O392 Zn384 2.046 . S
O392 C413 1.254 . S
N393 Zn387 2.036 . S
N393 C394 1.298 . S
N393 N396 1.398 . S
C394 N393 1.298 . S
C394 N397 1.367 . S
C394 C407 1.481 . S
C395 N396 1.299 . S
C395 N397 1.379 . S
N396 N393 1.398 . S
N396 C395 1.299 . S
N397 C394 1.367 . S
N397 C395 1.379 . S
C398 N400 1.298 . S
C398 N402 1.367 . S
C398 C406 1.481 . S
C399 N401 1.299 . S
C399 N402 1.379 . S
N400 Zn384 2.036 . S
N400 C398 1.298 . S
N400 N401 1.398 . S
N401 C399 1.299 . S
N401 N400 1.398 . S
N402 C398 1.367 . S
N402 C399 1.379 . S
H403 C406 0.980 . S
H404 C406 0.981 . S
H405 C406 0.981 . S
C406 C398 1.481 . S
C406 H403 0.980 . S
C406 H404 0.981 . S
C406 H405 0.981 . S
C407 C394 1.481 . S
C407 H408 0.980 . S
C407 H409 0.981 . S
C407 H410 0.981 . S
H408 C407 0.980 . S
H409 C407 0.981 . S
H410 C407 0.981 . S
O411 Zn387 2.066 . S
O411 C390 1.256 . S
O412 Zn384 2.053 . S
O412 C390 1.244 . S
C413 O391 1.259 . S
C413 O392 1.254 . S
O414 Zn384 2.066 . S
O414 C386 1.256 . S
O415 C386 1.244 . S
O415 Zn387 2.053 . S
Zn416 O417 2.055 . S
Zn416 O424 2.046 . S
Zn416 N432 2.036 . S
Zn416 O444 2.053 . S
Zn416 O446 2.066 . S
O417 Zn416 2.055 . S
O417 C420 1.259 . S
C418 O446 1.250 1_655 S
C418 O447 1.235 1_655 S
Zn419 O421 2.046 . S
Zn419 O423 2.055 . S
Zn419 N425 2.036 . S
Zn419 O443 2.066 . S
Zn419 O447 2.053 . S
C420 O417 1.259 . S
C420 O421 1.254 . S
O421 Zn419 2.046 . S
O421 C420 1.254 . S
C422 O443 1.249 1_655 S
C422 O444 1.235 1_655 S
O423 Zn419 2.055 . S
O423 C445 1.259 . S
O424 Zn416 2.046 . S
O424 C445 1.254 . S
N425 Zn419 2.036 . S
N425 C426 1.298 . S
N425 N428 1.398 . S
C426 N425 1.298 . S
C426 N429 1.367 . S
C426 C439 1.481 . S
C427 N428 1.299 . S
C427 N429 1.379 . S
N428 N425 1.398 . S
N428 C427 1.299 . S
N429 C426 1.367 . S
N429 C427 1.379 . S
C430 N432 1.298 . S
C430 N434 1.367 . S
C430 C438 1.481 . S
C431 N433 1.299 . S
C431 N434 1.379 . S
N432 Zn416 2.036 . S
N432 C430 1.298 . S
N432 N433 1.398 . S
N433 C431 1.299 . S
N433 N432 1.398 . S
N434 C430 1.367 . S
N434 C431 1.379 . S
H435 C438 0.980 . S
H436 C438 0.981 . S
H437 C438 0.981 . S
C438 C430 1.481 . S
C438 H435 0.980 . S
C438 H436 0.981 . S
C438 H437 0.981 . S
C439 C426 1.481 . S
C439 H440 0.980 . S
C439 H441 0.981 . S
C439 H442 0.981 . S
H440 C439 0.980 . S
H441 C439 0.981 . S
H442 C439 0.981 . S
O443 Zn419 2.066 . S
O443 C422 1.249 1_455 S
O444 Zn416 2.053 . S
O444 C422 1.235 1_455 S
C445 O423 1.259 . S
C445 O424 1.254 . S
O446 Zn416 2.066 . S
O446 C418 1.250 1_455 S
O447 C418 1.235 1_455 S
O447 Zn419 2.053 . S
Zn448 O449 2.055 . S
Zn448 O456 2.046 . S
Zn448 N464 2.036 . S
Zn448 O476 2.053 . S
Zn448 O478 2.066 . S
O449 Zn448 2.055 . S
O449 C452 1.259 . S
C450 O478 1.256 . S
C450 O479 1.244 . S
Zn451 O453 2.046 . S
Zn451 O455 2.055 . S
Zn451 N457 2.036 . S
Zn451 O475 2.066 . S
Zn451 O479 2.053 . S
C452 O449 1.259 . S
C452 O453 1.254 . S
O453 Zn451 2.046 . S
O453 C452 1.254 . S
C454 O475 1.256 . S
C454 O476 1.244 . S
O455 Zn451 2.055 . S
O455 C477 1.259 . S
O456 Zn448 2.046 . S
O456 C477 1.254 . S
N457 Zn451 2.036 . S
N457 C458 1.298 . S
N457 N460 1.398 . S
C458 N457 1.298 . S
C458 N461 1.367 . S
C458 C471 1.481 . S
C459 N460 1.299 . S
C459 N461 1.379 . S
N460 N457 1.398 . S
N460 C459 1.299 . S
N461 C458 1.367 . S
N461 C459 1.379 . S
C462 N464 1.298 . S
C462 N466 1.367 . S
C462 C470 1.481 . S
C463 N465 1.299 . S
C463 N466 1.379 . S
N464 Zn448 2.036 . S
N464 C462 1.298 . S
N464 N465 1.398 . S
N465 C463 1.299 . S
N465 N464 1.398 . S
N466 C462 1.367 . S
N466 C463 1.379 . S
H467 C470 0.980 . S
H468 C470 0.981 . S
H469 C470 0.981 . S
C470 C462 1.481 . S
C470 H467 0.980 . S
C470 H468 0.981 . S
C470 H469 0.981 . S
C471 C458 1.481 . S
C471 H472 0.980 . S
C471 H473 0.981 . S
C471 H474 0.981 . S
H472 C471 0.980 . S
H473 C471 0.981 . S
H474 C471 0.981 . S
O475 Zn451 2.066 . S
O475 C454 1.256 . S
O476 Zn448 2.053 . S
O476 C454 1.244 . S
C477 O455 1.259 . S
C477 O456 1.254 . S
O478 Zn448 2.066 . S
O478 C450 1.256 . S
O479 C450 1.244 . S
O479 Zn451 2.053 . S
Zn480 O481 2.055 . S
Zn480 O488 2.046 . S
Zn480 N496 2.036 . S
Zn480 O508 2.053 . S
Zn480 O510 2.066 . S
O481 Zn480 2.055 . S
O481 C484 1.259 . S
C482 O510 1.249 1_655 S
C482 O511 1.235 1_655 S
Zn483 O485 2.046 . S
Zn483 O487 2.055 . S
Zn483 N489 2.036 . S
Zn483 O507 2.066 . S
Zn483 O511 2.053 . S
C484 O481 1.259 . S
C484 O485 1.254 . S
O485 Zn483 2.046 . S
O485 C484 1.254 . S
C486 O507 1.250 1_655 S
C486 O508 1.235 1_655 S
O487 Zn483 2.055 . S
O487 C509 1.259 . S
O488 Zn480 2.046 . S
O488 C509 1.254 . S
N489 Zn483 2.036 . S
N489 C490 1.298 . S
N489 N492 1.398 . S
C490 N489 1.298 . S
C490 N493 1.367 . S
C490 C503 1.481 . S
C491 N492 1.299 . S
C491 N493 1.379 . S
N492 N489 1.398 . S
N492 C491 1.299 . S
N493 C490 1.367 . S
N493 C491 1.379 . S
C494 N496 1.298 . S
C494 N498 1.367 . S
C494 C502 1.481 . S
C495 N497 1.299 . S
C495 N498 1.379 . S
N496 Zn480 2.036 . S
N496 C494 1.298 . S
N496 N497 1.398 . S
N497 C495 1.299 . S
N497 N496 1.398 . S
N498 C494 1.367 . S
N498 C495 1.379 . S
H499 C502 0.980 . S
H500 C502 0.981 . S
H501 C502 0.981 . S
C502 C494 1.481 . S
C502 H499 0.980 . S
C502 H500 0.981 . S
C502 H501 0.981 . S
C503 C490 1.481 . S
C503 H504 0.980 . S
C503 H505 0.981 . S
C503 H506 0.981 . S
H504 C503 0.980 . S
H505 C503 0.981 . S
H506 C503 0.981 . S
O507 Zn483 2.066 . S
O507 C486 1.250 1_455 S
O508 Zn480 2.053 . S
O508 C486 1.235 1_455 S
C509 O487 1.259 . S
C509 O488 1.254 . S
O510 Zn480 2.066 . S
O510 C482 1.249 1_455 S
O511 C482 1.235 1_455 S
O511 Zn483 2.053 . S
H512 C530 0.951 . S
H513 C532 0.951 . S
H514 C534 0.950 . S
H515 C535 0.950 . S
H516 C537 0.950 . S
H517 C540 0.950 . S
H518 C541 0.950 . S
H519 C543 0.950 . S
H520 C544 0.950 . S
H521 C545 0.951 . S
H522 C547 0.951 . S
H523 C549 0.950 . S
H524 C550 0.950 . S
H525 C552 0.950 . S
H526 C555 0.950 . S
H527 C556 0.950 . S
H528 C558 0.950 . S
H529 C559 0.950 . S
C530 H512 0.951 . S
C530 C531 1.366 1_556 S
C530 C532 1.388 . S
C531 C530 1.366 1_554 S
C531 C535 1.385 . S
C532 H513 0.951 . S
C532 C530 1.388 . S
C532 C533 1.366 . S
C533 C532 1.366 . S
C533 C534 1.414 . S
C533 C536 1.499 . S
C534 H514 0.950 . S
C534 C533 1.414 . S
C534 C535 1.374 1_556 S
C535 H515 0.950 . S
C535 C531 1.385 . S
C535 C534 1.374 1_554 S
C536 C533 1.499 . S
C536 C537 1.373 . S
C536 C538 1.389 . S
C537 H516 0.950 . S
C537 C536 1.373 . S
C537 C553 1.377 . S
C538 C536 1.389 . S
C538 C539 1.524 . S
C538 C552 1.377 . S
C539 C538 1.524 . S
C539 C540 1.397 . S
C539 C544 1.363 . S
C540 H517 0.950 . S
C540 C539 1.397 . S
C540 C541 1.334 . S
C541 H518 0.950 . S
C541 C540 1.334 . S
C541 C542 1.287 . S
C542 C541 1.287 . S
C542 C543 1.524 . S
C542 H561 0.913 . S
C543 H519 0.950 . S
C543 C542 1.524 . S
C543 C544 1.415 . S
C544 H520 0.950 . S
C544 C539 1.363 . S
C544 C543 1.415 . S
C545 H521 0.951 . S
C545 C546 1.366 . S
C545 C547 1.388 . S
C546 C545 1.366 . S
C546 C550 1.385 . S
C547 H522 0.951 . S
C547 C545 1.388 . S
C547 C548 1.366 . S
C548 C547 1.366 . S
C548 C549 1.414 . S
C548 C551 1.499 . S
C549 H523 0.950 . S
C549 C548 1.414 . S
C549 C550 1.374 . S
C550 H524 0.950 . S
C550 C546 1.385 . S
C550 C549 1.374 . S
C551 C548 1.499 . S
C551 C552 1.373 . S
C551 C553 1.389 . S
C552 H525 0.950 . S
C552 C538 1.377 . S
C552 C551 1.373 . S
C553 C537 1.377 . S
C553 C551 1.389 . S
C553 C554 1.524 . S
C554 C553 1.524 . S
C554 C555 1.397 . S
C554 C559 1.363 . S
C555 H526 0.950 . S
C555 C554 1.397 . S
C555 C556 1.334 . S
C556 H527 0.950 . S
C556 C555 1.334 . S
C556 C557 1.287 . S
C557 C556 1.287 . S
C557 C558 1.524 . S
C557 H560 0.999 . S
C558 H528 0.950 . S
C558 C557 1.524 . S
C558 C559 1.415 . S
C559 H529 0.950 . S
C559 C554 1.363 . S
C559 C558 1.415 . S
H560 C557 0.999 . S
H561 C542 0.913 . S
H562 C580 0.951 . S
H563 C582 0.951 . S
H564 C584 0.950 . S
H565 C585 0.950 . S
H566 C587 0.950 . S
H567 C590 0.950 . S
H568 C591 0.950 . S
H569 C593 0.950 . S
H570 C594 0.950 . S
H571 C595 0.951 . S
H572 C597 0.951 . S
H573 C599 0.950 1_556 S
H574 C600 0.950 . S
H575 C602 0.950 . S
H576 C605 0.950 . S
H577 C606 0.950 . S
H578 C608 0.950 . S
H579 C609 0.950 . S
C580 H562 0.951 . S
C580 C581 1.366 . S
C580 C582 1.388 . S
C581 C580 1.366 . S
C581 C585 1.385 . S
C582 H563 0.951 . S
C582 C580 1.388 . S
C582 C583 1.366 . S
C583 C582 1.366 . S
C583 C584 1.414 . S
C583 C586 1.499 . S
C584 H564 0.950 . S
C584 C583 1.414 . S
C584 C585 1.374 . S
C585 H565 0.950 . S
C585 C581 1.385 . S
C585 C584 1.374 . S
C586 C583 1.499 . S
C586 C587 1.373 . S
C586 C588 1.389 . S
C587 H566 0.950 . S
C587 C586 1.373 . S
C587 C603 1.377 . S
C588 C586 1.389 . S
C588 C589 1.524 . S
C588 C602 1.377 . S
C589 C588 1.524 . S
C589 C590 1.397 . S
C589 C594 1.363 . S
C590 H567 0.950 . S
C590 C589 1.397 . S
C590 C591 1.334 . S
C591 H568 0.950 . S
C591 C590 1.334 . S
C591 C592 1.287 . S
C592 C591 1.287 . S
C592 C593 1.524 . S
C592 H611 0.913 . S
C593 H569 0.950 . S
C593 C592 1.524 . S
C593 C594 1.415 . S
C594 H570 0.950 . S
C594 C589 1.363 . S
C594 C593 1.415 . S
C595 H571 0.951 . S
C595 C596 1.366 1_554 S
C595 C597 1.388 . S
C596 C595 1.366 1_556 S
C596 C600 1.385 . S
C597 H572 0.951 . S
C597 C595 1.388 . S
C597 C598 1.366 . S
C598 C597 1.366 . S
C598 C599 1.414 . S
C598 C601 1.499 . S
C599 H573 0.950 1_554 S
C599 C598 1.414 . S
C599 C600 1.374 1_554 S
C600 H574 0.950 . S
C600 C596 1.385 . S
C600 C599 1.374 1_556 S
C601 C598 1.499 . S
C601 C602 1.373 . S
C601 C603 1.389 . S
C602 H575 0.950 . S
C602 C588 1.377 . S
C602 C601 1.373 . S
C603 C587 1.377 . S
C603 C601 1.389 . S
C603 C604 1.524 . S
C604 C603 1.524 . S
C604 C605 1.397 . S
C604 C609 1.363 . S
C605 H576 0.950 . S
C605 C604 1.397 . S
C605 C606 1.334 . S
C606 H577 0.950 . S
C606 C605 1.334 . S
C606 C607 1.287 . S
C607 C606 1.287 . S
C607 C608 1.524 . S
C607 H610 0.999 . S
C608 H578 0.950 . S
C608 C607 1.524 . S
C608 C609 1.415 . S
C609 H579 0.950 . S
C609 C604 1.363 . S
C609 C608 1.415 . S
H610 C607 0.999 . S
H611 C592 0.913 . S
H612 C630 0.951 . S
H613 C632 0.951 . S
H614 C634 0.950 . S
H615 C635 0.950 . S
H616 C637 0.950 . S
H617 C640 0.950 . S
H618 C641 0.950 . S
H619 C643 0.950 . S
H620 C644 0.950 . S
H621 C645 0.951 . S
H622 C647 0.951 . S
H623 C649 0.950 . S
H624 C650 0.950 . S
H625 C652 0.950 . S
H626 C655 0.950 . S
H627 C656 0.950 . S
H628 C658 0.950 . S
H629 C659 0.950 . S
C630 H612 0.951 . S
C630 C631 1.366 . S
C630 C632 1.388 . S
C631 C630 1.366 . S
C631 C635 1.385 . S
C632 H613 0.951 . S
C632 C630 1.388 . S
C632 C633 1.366 . S
C633 C632 1.366 . S
C633 C634 1.414 . S
C633 C636 1.499 . S
C634 H614 0.950 . S
C634 C633 1.414 . S
C634 C635 1.374 . S
C635 H615 0.950 . S
C635 C631 1.385 . S
C635 C634 1.374 . S
C636 C633 1.499 . S
C636 C637 1.373 . S
C636 C638 1.389 . S
C637 H616 0.950 . S
C637 C636 1.373 . S
C637 C653 1.377 . S
C638 C636 1.389 . S
C638 C639 1.524 . S
C638 C652 1.377 . S
C639 C638 1.524 . S
C639 C640 1.397 . S
C639 C644 1.363 . S
C640 H617 0.950 . S
C640 C639 1.397 . S
C640 C641 1.334 . S
C641 H618 0.950 . S
C641 C640 1.334 . S
C641 C642 1.287 . S
C642 C641 1.287 . S
C642 C643 1.524 . S
C642 H661 0.913 . S
C643 H619 0.950 . S
C643 C642 1.524 . S
C643 C644 1.415 . S
C644 H620 0.950 . S
C644 C639 1.363 . S
C644 C643 1.415 . S
C645 H621 0.951 . S
C645 C646 1.366 . S
C645 C647 1.388 . S
C646 C645 1.366 . S
C646 C650 1.385 . S
C647 H622 0.951 . S
C647 C645 1.388 . S
C647 C648 1.366 . S
C648 C647 1.366 . S
C648 C649 1.414 . S
C648 C651 1.499 . S
C649 H623 0.950 . S
C649 C648 1.414 . S
C649 C650 1.374 . S
C650 H624 0.950 . S
C650 C646 1.385 . S
C650 C649 1.374 . S
C651 C648 1.499 . S
C651 C652 1.373 . S
C651 C653 1.389 . S
C652 H625 0.950 . S
C652 C638 1.377 . S
C652 C651 1.373 . S
C653 C637 1.377 . S
C653 C651 1.389 . S
C653 C654 1.524 . S
C654 C653 1.524 . S
C654 C655 1.397 . S
C654 C659 1.363 . S
C655 H626 0.950 . S
C655 C654 1.397 . S
C655 C656 1.334 . S
C656 H627 0.950 . S
C656 C655 1.334 . S
C656 C657 1.287 . S
C657 C656 1.287 . S
C657 C658 1.524 . S
C657 H660 0.999 . S
C658 H628 0.950 . S
C658 C657 1.524 . S
C658 C659 1.415 . S
C659 H629 0.950 . S
C659 C654 1.363 . S
C659 C658 1.415 . S
H660 C657 0.999 . S
H661 C642 0.913 . S
H662 C680 0.951 . S
H663 C682 0.951 . S
H664 C684 0.950 . S
H665 C685 0.950 . S
H666 C687 0.950 . S
H667 C690 0.950 . S
H668 C691 0.950 . S
H669 C693 0.950 . S
H670 C694 0.950 . S
H671 C695 0.951 . S
H672 C697 0.951 . S
H673 C699 0.950 . S
H674 C700 0.950 . S
H675 C702 0.950 . S
H676 C705 0.950 . S
H677 C706 0.950 . S
H678 C708 0.950 . S
H679 C709 0.950 . S
C680 H662 0.951 . S
C680 C681 1.366 . S
C680 C682 1.388 . S
C681 C680 1.366 . S
C681 C685 1.385 . S
C682 H663 0.951 . S
C682 C680 1.388 . S
C682 C683 1.366 . S
C683 C682 1.366 . S
C683 C684 1.414 . S
C683 C686 1.499 . S
C684 H664 0.950 . S
C684 C683 1.414 . S
C684 C685 1.374 . S
C685 H665 0.950 . S
C685 C681 1.385 . S
C685 C684 1.374 . S
C686 C683 1.499 . S
C686 C687 1.373 . S
C686 C688 1.389 . S
C687 H666 0.950 . S
C687 C686 1.373 . S
C687 C703 1.377 . S
C688 C686 1.389 . S
C688 C689 1.524 . S
C688 C702 1.377 . S
C689 C688 1.524 . S
C689 C690 1.397 . S
C689 C694 1.363 . S
C690 H667 0.950 . S
C690 C689 1.397 . S
C690 C691 1.334 . S
C691 H668 0.950 . S
C691 C690 1.334 . S
C691 C692 1.287 . S
C692 C691 1.287 . S
C692 C693 1.524 . S
C692 H711 0.913 . S
C693 H669 0.950 . S
C693 C692 1.524 . S
C693 C694 1.415 . S
C694 H670 0.950 . S
C694 C689 1.363 . S
C694 C693 1.415 . S
C695 H671 0.951 . S
C695 C696 1.366 . S
C695 C697 1.388 . S
C696 C695 1.366 . S
C696 C700 1.385 . S
C697 H672 0.951 . S
C697 C695 1.388 . S
C697 C698 1.366 . S
C698 C697 1.366 . S
C698 C699 1.414 . S
C698 C701 1.499 . S
C699 H673 0.950 . S
C699 C698 1.414 . S
C699 C700 1.374 . S
C700 H674 0.950 . S
C700 C696 1.385 . S
C700 C699 1.374 . S
C701 C698 1.499 . S
C701 C702 1.373 . S
C701 C703 1.389 . S
C702 H675 0.950 . S
C702 C688 1.377 . S
C702 C701 1.373 . S
C703 C687 1.377 . S
C703 C701 1.389 . S
C703 C704 1.524 . S
C704 C703 1.524 . S
C704 C705 1.397 . S
C704 C709 1.363 . S
C705 H676 0.950 . S
C705 C704 1.397 . S
C705 C706 1.334 . S
C706 H677 0.950 . S
C706 C705 1.334 . S
C706 C707 1.287 . S
C707 C706 1.287 . S
C707 C708 1.524 . S
C707 H710 0.999 . S
C708 H678 0.950 . S
C708 C707 1.524 . S
C708 C709 1.415 . S
C709 H679 0.950 . S
C709 C704 1.363 . S
C709 C708 1.415 . S
H710 C707 0.999 . S
H711 C692 0.913 . S
H712 C730 0.951 . S
H713 C732 0.951 . S
H714 C734 0.950 . S
H715 C735 0.950 . S
H716 C737 0.950 . S
H717 C740 0.950 . S
H718 C741 0.950 . S
H719 C743 0.950 . S
H720 C744 0.950 . S
H721 C745 0.951 . S
H722 C747 0.951 . S
H723 C749 0.950 . S
H724 C750 0.950 . S
H725 C752 0.950 . S
H726 C755 0.950 . S
H727 C756 0.950 . S
H728 C758 0.950 . S
H729 C759 0.950 . S
C730 H712 0.951 . S
C730 C731 1.366 . S
C730 C732 1.388 . S
C731 C730 1.366 . S
C731 C735 1.385 . S
C732 H713 0.951 . S
C732 C730 1.388 . S
C732 C733 1.366 . S
C733 C732 1.366 . S
C733 C734 1.414 . S
C733 C736 1.499 . S
C734 H714 0.950 . S
C734 C733 1.414 . S
C734 C735 1.374 . S
C735 H715 0.950 . S
C735 C731 1.385 . S
C735 C734 1.374 . S
C736 C733 1.499 . S
C736 C737 1.373 . S
C736 C738 1.389 . S
C737 H716 0.950 . S
C737 C736 1.373 . S
C737 C753 1.377 . S
C738 C736 1.389 . S
C738 C739 1.524 . S
C738 C752 1.377 . S
C739 C738 1.524 . S
C739 C740 1.397 . S
C739 C744 1.363 . S
C740 H717 0.950 . S
C740 C739 1.397 . S
C740 C741 1.334 . S
C741 H718 0.950 . S
C741 C740 1.334 . S
C741 C742 1.287 . S
C742 C741 1.287 . S
C742 C743 1.524 . S
C742 H761 0.913 . S
C743 H719 0.950 . S
C743 C742 1.524 . S
C743 C744 1.415 . S
C744 H720 0.950 . S
C744 C739 1.363 . S
C744 C743 1.415 . S
C745 H721 0.951 . S
C745 C746 1.366 . S
C745 C747 1.388 1_556 S
C746 C745 1.366 . S
C746 C750 1.385 1_556 S
C747 H722 0.951 . S
C747 C745 1.388 1_554 S
C747 C748 1.366 . S
C748 C747 1.366 . S
C748 C749 1.414 . S
C748 C751 1.499 . S
C749 H723 0.950 . S
C749 C748 1.414 . S
C749 C750 1.374 . S
C750 H724 0.950 . S
C750 C746 1.385 1_554 S
C750 C749 1.374 . S
C751 C748 1.499 . S
C751 C752 1.373 . S
C751 C753 1.389 . S
C752 H725 0.950 . S
C752 C738 1.377 . S
C752 C751 1.373 . S
C753 C737 1.377 . S
C753 C751 1.389 . S
C753 C754 1.524 . S
C754 C753 1.524 . S
C754 C755 1.397 . S
C754 C759 1.363 . S
C755 H726 0.950 . S
C755 C754 1.397 . S
C755 C756 1.334 1_655 S
C756 H727 0.950 . S
C756 C755 1.334 1_455 S
C756 C757 1.287 . S
C757 C756 1.287 . S
C757 C758 1.524 1_455 S
C757 H760 0.999 . S
C758 H728 0.950 . S
C758 C757 1.524 1_655 S
C758 C759 1.415 . S
C759 H729 0.950 . S
C759 C754 1.363 . S
C759 C758 1.415 . S
H760 C757 0.999 . S
H761 C742 0.913 . S
H762 C780 0.951 . S
H763 C782 0.951 . S
H764 C784 0.950 . S
H765 C785 0.950 . S
H766 C787 0.950 . S
H767 C790 0.950 . S
H768 C791 0.950 . S
H769 C793 0.950 . S
H770 C794 0.950 . S
H771 C795 0.951 . S
H772 C797 0.951 . S
H773 C799 0.952 . S
H774 C800 0.950 . S
H775 C802 0.950 . S
H776 C805 0.950 . S
H777 C806 0.950 . S
H778 C808 0.950 . S
H779 C809 0.950 . S
C780 H762 0.951 . S
C780 C781 1.366 . S
C780 C782 1.388 . S
C781 C780 1.366 . S
C781 C785 1.385 . S
C782 H763 0.951 . S
C782 C780 1.388 . S
C782 C783 1.366 . S
C783 C782 1.366 . S
C783 C784 1.414 . S
C783 C786 1.499 . S
C784 H764 0.950 . S
C784 C783 1.414 . S
C784 C785 1.374 . S
C785 H765 0.950 . S
C785 C781 1.385 . S
C785 C784 1.374 . S
C786 C783 1.499 . S
C786 C787 1.373 . S
C786 C788 1.389 . S
C787 H766 0.950 . S
C787 C786 1.373 . S
C787 C803 1.377 . S
C788 C786 1.389 . S
C788 C789 1.524 . S
C788 C802 1.377 . S
C789 C788 1.524 . S
C789 C790 1.397 . S
C789 C794 1.363 . S
C790 H767 0.950 . S
C790 C789 1.397 . S
C790 C791 1.334 . S
C791 H768 0.950 . S
C791 C790 1.334 . S
C791 C792 1.287 . S
C792 C791 1.287 . S
C792 C793 1.524 . S
C792 H811 0.913 . S
C793 H769 0.950 . S
C793 C792 1.524 . S
C793 C794 1.415 . S
C794 H770 0.950 . S
C794 C789 1.363 . S
C794 C793 1.415 . S
C795 H771 0.951 . S
C795 C796 1.366 1_556 S
C795 C797 1.388 . S
C796 C795 1.366 1_554 S
C796 C800 1.385 . S
C797 H772 0.951 . S
C797 C795 1.388 . S
C797 C798 1.366 . S
C798 C797 1.366 . S
C798 C799 1.414 . S
C798 C801 1.499 . S
C799 H773 0.952 . S
C799 C798 1.414 . S
C799 C800 1.374 1_556 S
C800 H774 0.950 . S
C800 C796 1.385 . S
C800 C799 1.374 1_554 S
C801 C798 1.499 . S
C801 C802 1.373 . S
C801 C803 1.389 . S
C802 H775 0.950 . S
C802 C788 1.377 . S
C802 C801 1.373 . S
C803 C787 1.377 . S
C803 C801 1.389 . S
C803 C804 1.524 . S
C804 C803 1.524 . S
C804 C805 1.397 . S
C804 C809 1.363 . S
C805 H776 0.950 . S
C805 C804 1.397 . S
C805 C806 1.334 . S
C806 H777 0.950 . S
C806 C805 1.334 . S
C806 C807 1.287 . S
C807 C806 1.287 . S
C807 C808 1.524 . S
C807 H810 0.999 . S
C808 H778 0.950 . S
C808 C807 1.524 . S
C808 C809 1.415 . S
C809 H779 0.950 . S
C809 C804 1.363 . S
C809 C808 1.415 . S
H810 C807 0.999 . S
H811 C792 0.913 . S
H812 C830 0.951 . S
H813 C832 0.951 . S
H814 C834 0.950 . S
H815 C835 0.950 . S
H816 C837 0.950 . S
H817 C840 0.950 . S
H818 C841 0.950 . S
H819 C843 0.950 . S
H820 C844 0.950 . S
H821 C845 0.951 . S
H822 C847 0.951 . S
H823 C849 0.950 . S
H824 C850 0.950 . S
H825 C852 0.950 . S
H826 C855 0.950 . S
H827 C856 0.950 . S
H828 C858 0.950 . S
H829 C859 0.950 . S
C830 H812 0.951 . S
C830 C831 1.366 . S
C830 C832 1.388 . S
C831 C830 1.366 . S
C831 C835 1.385 . S
C832 H813 0.951 . S
C832 C830 1.388 . S
C832 C833 1.366 . S
C833 C832 1.366 . S
C833 C834 1.414 . S
C833 C836 1.499 . S
C834 H814 0.950 . S
C834 C833 1.414 . S
C834 C835 1.374 . S
C835 H815 0.950 . S
C835 C831 1.385 . S
C835 C834 1.374 . S
C836 C833 1.499 . S
C836 C837 1.373 . S
C836 C838 1.389 . S
C837 H816 0.950 . S
C837 C836 1.373 . S
C837 C853 1.377 . S
C838 C836 1.389 . S
C838 C839 1.524 . S
C838 C852 1.377 . S
C839 C838 1.524 . S
C839 C840 1.397 . S
C839 C844 1.363 . S
C840 H817 0.950 . S
C840 C839 1.397 . S
C840 C841 1.334 . S
C841 H818 0.950 . S
C841 C840 1.334 . S
C841 C842 1.287 . S
C842 C841 1.287 . S
C842 C843 1.524 . S
C842 H861 0.913 . S
C843 H819 0.950 . S
C843 C842 1.524 . S
C843 C844 1.415 . S
C844 H820 0.950 . S
C844 C839 1.363 . S
C844 C843 1.415 . S
C845 H821 0.951 . S
C845 C846 1.366 . S
C845 C847 1.388 . S
C846 C845 1.366 . S
C846 C850 1.385 . S
C847 H822 0.951 . S
C847 C845 1.388 . S
C847 C848 1.366 . S
C848 C847 1.366 . S
C848 C849 1.414 . S
C848 C851 1.499 . S
C849 H823 0.950 . S
C849 C848 1.414 . S
C849 C850 1.374 . S
C850 H824 0.950 . S
C850 C846 1.385 . S
C850 C849 1.374 . S
C851 C848 1.499 . S
C851 C852 1.373 . S
C851 C853 1.389 . S
C852 H825 0.950 . S
C852 C838 1.377 . S
C852 C851 1.373 . S
C853 C837 1.377 . S
C853 C851 1.389 . S
C853 C854 1.524 . S
C854 C853 1.524 . S
C854 C855 1.397 . S
C854 C859 1.363 . S
C855 H826 0.950 . S
C855 C854 1.397 . S
C855 C856 1.334 . S
C856 H827 0.950 . S
C856 C855 1.334 . S
C856 C857 1.287 . S
C857 C856 1.287 . S
C857 C858 1.524 . S
C857 H860 0.999 . S
C858 H828 0.950 . S
C858 C857 1.524 . S
C858 C859 1.415 . S
C859 H829 0.950 . S
C859 C854 1.363 . S
C859 C858 1.415 . S
H860 C857 0.999 . S
H861 C842 0.913 . S
H862 C880 0.951 . S
H863 C882 0.951 . S
H864 C884 0.950 . S
H865 C885 0.950 . S
H866 C887 0.950 . S
H867 C890 0.950 . S
H868 C891 0.950 . S
H869 C893 0.950 . S
H870 C894 0.950 . S
H871 C895 0.951 . S
H872 C897 0.951 . S
H873 C899 0.950 . S
H874 C900 0.950 . S
H875 C902 0.950 . S
H876 C905 0.950 . S
H877 C906 0.950 . S
H878 C908 0.950 . S
H879 C909 0.950 . S
C880 H862 0.951 . S
C880 C881 1.366 . S
C880 C882 1.388 . S
C881 C880 1.366 . S
C881 C885 1.385 . S
C882 H863 0.951 . S
C882 C880 1.388 . S
C882 C883 1.366 . S
C883 C882 1.366 . S
C883 C884 1.414 . S
C883 C886 1.499 . S
C884 H864 0.950 . S
C884 C883 1.414 . S
C884 C885 1.374 . S
C885 H865 0.950 . S
C885 C881 1.385 . S
C885 C884 1.374 . S
C886 C883 1.499 . S
C886 C887 1.373 . S
C886 C888 1.389 . S
C887 H866 0.950 . S
C887 C886 1.373 . S
C887 C903 1.377 . S
C888 C886 1.389 . S
C888 C889 1.524 . S
C888 C902 1.377 . S
C889 C888 1.524 . S
C889 C890 1.397 . S
C889 C894 1.363 . S
C890 H867 0.950 . S
C890 C889 1.397 . S
C890 C891 1.334 . S
C891 H868 0.950 . S
C891 C890 1.334 . S
C891 C892 1.287 . S
C892 C891 1.287 . S
C892 C893 1.524 . S
C892 H911 0.913 . S
C893 H869 0.950 . S
C893 C892 1.524 . S
C893 C894 1.415 . S
C894 H870 0.950 . S
C894 C889 1.363 . S
C894 C893 1.415 . S
C895 H871 0.951 . S
C895 C896 1.366 . S
C895 C897 1.388 . S
C896 C895 1.366 . S
C896 C900 1.385 . S
C897 H872 0.951 . S
C897 C895 1.388 . S
C897 C898 1.366 . S
C898 C897 1.366 . S
C898 C899 1.414 . S
C898 C901 1.499 . S
C899 H873 0.950 . S
C899 C898 1.414 . S
C899 C900 1.374 . S
C900 H874 0.950 . S
C900 C896 1.385 . S
C900 C899 1.374 . S
C901 C898 1.499 . S
C901 C902 1.373 . S
C901 C903 1.389 . S
C902 H875 0.950 . S
C902 C888 1.377 . S
C902 C901 1.373 . S
C903 C887 1.377 . S
C903 C901 1.389 . S
C903 C904 1.524 . S
C904 C903 1.524 . S
C904 C905 1.397 . S
C904 C909 1.363 . S
C905 H876 0.950 . S
C905 C904 1.397 . S
C905 C906 1.334 . S
C906 H877 0.950 . S
C906 C905 1.334 . S
C906 C907 1.287 . S
C907 C906 1.287 . S
C907 C908 1.524 . S
C907 H910 0.999 . S
C908 H878 0.950 . S
C908 C907 1.524 . S
C908 C909 1.415 . S
C909 H879 0.950 . S
C909 C904 1.363 . S
C909 C908 1.415 . S
H910 C907 0.999 . S
H911 C892 0.913 . S
H912 C930 0.951 . S
H913 C932 0.951 . S
H914 C934 0.950 . S
H915 C935 0.950 . S
H916 C937 0.950 . S
H917 C940 0.950 . S
H918 C941 0.950 . S
H919 C943 0.950 . S
H920 C944 0.950 . S
H921 C945 0.951 . S
H922 C947 0.951 . S
H923 C949 0.950 . S
H924 C950 0.950 . S
H925 C952 0.950 . S
H926 C955 0.950 . S
H927 C956 0.950 . S
H928 C958 0.950 . S
H929 C959 0.950 . S
C930 H912 0.951 . S
C930 C931 1.366 . S
C930 C932 1.388 . S
C931 C930 1.366 . S
C931 C935 1.385 . S
C932 H913 0.951 . S
C932 C930 1.388 . S
C932 C933 1.366 . S
C933 C932 1.366 . S
C933 C934 1.414 . S
C933 C936 1.499 . S
C934 H914 0.950 . S
C934 C933 1.414 . S
C934 C935 1.374 . S
C935 H915 0.950 . S
C935 C931 1.385 . S
C935 C934 1.374 . S
C936 C933 1.499 . S
C936 C937 1.373 . S
C936 C938 1.389 . S
C937 H916 0.950 . S
C937 C936 1.373 . S
C937 C953 1.377 . S
C938 C936 1.389 . S
C938 C939 1.524 . S
C938 C952 1.377 . S
C939 C938 1.524 . S
C939 C940 1.397 . S
C939 C944 1.363 . S
C940 H917 0.950 . S
C940 C939 1.397 . S
C940 C941 1.334 . S
C941 H918 0.950 . S
C941 C940 1.334 . S
C941 C942 1.287 . S
C942 C941 1.287 . S
C942 C943 1.524 . S
C942 H961 0.913 . S
C943 H919 0.950 . S
C943 C942 1.524 . S
C943 C944 1.415 . S
C944 H920 0.950 . S
C944 C939 1.363 . S
C944 C943 1.415 . S
C945 H921 0.951 . S
C945 C946 1.366 . S
C945 C947 1.388 . S
C946 C945 1.366 . S
C946 C950 1.385 . S
C947 H922 0.951 . S
C947 C945 1.388 . S
C947 C948 1.366 . S
C948 C947 1.366 . S
C948 C949 1.414 . S
C948 C951 1.499 . S
C949 H923 0.950 . S
C949 C948 1.414 . S
C949 C950 1.374 . S
C950 H924 0.950 . S
C950 C946 1.385 . S
C950 C949 1.374 . S
C951 C948 1.499 . S
C951 C952 1.373 . S
C951 C953 1.389 . S
C952 H925 0.950 . S
C952 C938 1.377 . S
C952 C951 1.373 . S
C953 C937 1.377 . S
C953 C951 1.389 . S
C953 C954 1.524 . S
C954 C953 1.524 . S
C954 C955 1.397 . S
C954 C959 1.363 . S
C955 H926 0.950 . S
C955 C954 1.397 . S
C955 C956 1.334 . S
C956 H927 0.950 . S
C956 C955 1.334 . S
C956 C957 1.287 . S
C957 C956 1.287 . S
C957 C958 1.524 . S
C957 H960 0.999 . S
C958 H928 0.950 . S
C958 C957 1.524 . S
C958 C959 1.415 . S
C959 H929 0.950 . S
C959 C954 1.363 . S
C959 C958 1.415 . S
H960 C957 0.999 . S
H961 C942 0.913 . S
H962 C980 0.951 . S
H963 C982 0.951 . S
H964 C984 0.950 . S
H965 C985 0.950 . S
H966 C987 0.950 . S
H967 C990 0.950 . S
H968 C991 0.950 . S
H969 C993 0.950 . S
H970 C994 0.950 . S
H971 C995 0.951 . S
H972 C997 0.951 . S
H973 C999 0.950 . S
H974 C1000 0.950 . S
H975 C1002 0.950 . S
H976 C1005 0.950 . S
H977 C1006 0.950 . S
H978 C1008 0.950 . S
H979 C1009 0.950 . S
C980 H962 0.951 . S
C980 C981 1.366 . S
C980 C982 1.388 . S
C981 C980 1.366 . S
C981 C985 1.385 . S
C982 H963 0.951 . S
C982 C980 1.388 . S
C982 C983 1.366 . S
C983 C982 1.366 . S
C983 C984 1.414 . S
C983 C986 1.499 . S
C984 H964 0.950 . S
C984 C983 1.414 . S
C984 C985 1.374 . S
C985 H965 0.950 . S
C985 C981 1.385 . S
C985 C984 1.374 . S
C986 C983 1.499 . S
C986 C987 1.373 . S
C986 C988 1.389 . S
C987 H966 0.950 . S
C987 C986 1.373 . S
C987 C1003 1.377 . S
C988 C986 1.389 . S
C988 C989 1.524 . S
C988 C1002 1.377 . S
C989 C988 1.524 . S
C989 C990 1.397 . S
C989 C994 1.363 . S
C990 H967 0.950 . S
C990 C989 1.397 . S
C990 C991 1.334 . S
C991 H968 0.950 . S
C991 C990 1.334 . S
C991 C992 1.287 . S
C992 C991 1.287 . S
C992 C993 1.524 . S
C992 H1011 0.913 . S
C993 H969 0.950 . S
C993 C992 1.524 . S
C993 C994 1.415 . S
C994 H970 0.950 . S
C994 C989 1.363 . S
C994 C993 1.415 . S
C995 H971 0.951 . S
C995 C996 1.366 . S
C995 C997 1.388 . S
C996 C995 1.366 . S
C996 C1000 1.385 . S
C997 H972 0.951 . S
C997 C995 1.388 . S
C997 C998 1.366 . S
C998 C997 1.366 . S
C998 C999 1.414 . S
C998 C1001 1.499 . S
C999 H973 0.950 . S
C999 C998 1.414 . S
C999 C1000 1.374 . S
C1000 H974 0.950 . S
C1000 C996 1.385 . S
C1000 C999 1.374 . S
C1001 C998 1.499 . S
C1001 C1002 1.373 . S
C1001 C1003 1.389 . S
C1002 H975 0.950 . S
C1002 C988 1.377 . S
C1002 C1001 1.373 . S
C1003 C987 1.377 . S
C1003 C1001 1.389 . S
C1003 C1004 1.524 . S
C1004 C1003 1.524 . S
C1004 C1005 1.397 . S
C1004 C1009 1.363 . S
C1005 H976 0.950 . S
C1005 C1004 1.397 . S
C1005 C1006 1.334 . S
C1006 H977 0.950 . S
C1006 C1005 1.334 . S
C1006 C1007 1.287 . S
C1007 C1006 1.287 . S
C1007 C1008 1.524 . S
C1007 H1010 0.999 . S
C1008 H978 0.950 . S
C1008 C1007 1.524 . S
C1008 C1009 1.415 . S
C1009 H979 0.950 . S
C1009 C1004 1.363 . S
C1009 C1008 1.415 . S
H1010 C1007 0.999 . S
H1011 C992 0.913 . S
H1012 C1030 0.951 1_455 S
H1013 C1032 0.951 . S
H1014 C1034 0.950 . S
H1015 C1035 0.950 . S
H1016 C1037 0.950 . S
H1017 C1040 0.950 . S
H1018 C1041 0.950 . S
H1019 C1043 0.966 . S
H1020 C1044 0.950 . S
H1021 C1045 0.951 . S
H1022 C1047 0.951 . S
H1023 C1049 0.950 . S
H1024 C1050 0.950 . S
H1025 C1052 0.950 . S
H1026 C1055 0.950 . S
H1027 C1056 0.950 . S
H1028 C1058 0.950 . S
H1029 C1059 0.950 . S
C1030 H1012 0.951 1_655 S
C1030 C1031 1.366 1_556 S
C1030 C1032 1.388 . S
C1031 C1030 1.366 1_554 S
C1031 C1035 1.385 . S
C1032 H1013 0.951 . S
C1032 C1030 1.388 . S
C1032 C1033 1.366 . S
C1033 C1032 1.366 . S
C1033 C1034 1.414 . S
C1033 C1036 1.499 . S
C1034 H1014 0.950 . S
C1034 C1033 1.414 . S
C1034 C1035 1.374 1_556 S
C1035 H1015 0.950 . S
C1035 C1031 1.385 . S
C1035 C1034 1.374 1_554 S
C1036 C1033 1.499 . S
C1036 C1037 1.373 . S
C1036 C1038 1.389 . S
C1037 H1016 0.950 . S
C1037 C1036 1.373 . S
C1037 C1053 1.377 . S
C1038 C1036 1.389 . S
C1038 C1039 1.524 . S
C1038 C1052 1.377 . S
C1039 C1038 1.524 . S
C1039 C1040 1.397 . S
C1039 C1044 1.363 . S
C1040 H1017 0.950 . S
C1040 C1039 1.397 . S
C1040 C1041 1.334 . S
C1041 H1018 0.950 . S
C1041 C1040 1.334 . S
C1041 C1042 1.287 . S
C1042 C1041 1.287 . S
C1042 C1043 1.519 1_655 S
C1042 H1061 0.913 1_655 S
C1043 H1019 0.966 . S
C1043 C1042 1.519 1_455 S
C1043 C1044 1.402 1_455 S
C1044 H1020 0.950 . S
C1044 C1039 1.363 . S
C1044 C1043 1.402 1_655 S
C1045 H1021 0.951 . S
C1045 C1046 1.366 . S
C1045 C1047 1.388 . S
C1046 C1045 1.366 . S
C1046 C1050 1.385 . S
C1047 H1022 0.951 . S
C1047 C1045 1.388 . S
C1047 C1048 1.366 . S
C1048 C1047 1.366 . S
C1048 C1049 1.414 . S
C1048 C1051 1.499 . S
C1049 H1023 0.950 . S
C1049 C1048 1.414 . S
C1049 C1050 1.374 . S
C1050 H1024 0.950 . S
C1050 C1046 1.385 . S
C1050 C1049 1.374 . S
C1051 C1048 1.499 . S
C1051 C1052 1.373 . S
C1051 C1053 1.389 . S
C1052 H1025 0.950 . S
C1052 C1038 1.377 . S
C1052 C1051 1.373 . S
C1053 C1037 1.377 . S
C1053 C1051 1.389 . S
C1053 C1054 1.524 . S
C1054 C1053 1.524 . S
C1054 C1055 1.397 . S
C1054 C1059 1.363 . S
C1055 H1026 0.950 . S
C1055 C1054 1.397 . S
C1055 C1056 1.334 . S
C1056 H1027 0.950 . S
C1056 C1055 1.334 . S
C1056 C1057 1.287 . S
C1057 C1056 1.287 . S
C1057 C1058 1.524 . S
C1057 H1060 0.999 . S
C1058 H1028 0.950 . S
C1058 C1057 1.524 . S
C1058 C1059 1.415 . S
C1059 H1029 0.950 . S
C1059 C1054 1.363 . S
C1059 C1058 1.415 . S
H1060 C1057 0.999 . S
H1061 C1042 0.913 1_455 S
H1062 C1080 0.951 . S
H1063 C1082 0.951 . S
H1064 C1084 0.950 . S
H1065 C1085 0.950 . S
H1066 C1087 0.950 . S
H1067 C1090 0.950 . S
H1068 C1091 0.950 . S
H1069 C1093 0.950 1_455 S
H1070 C1094 0.950 . S
H1071 C1095 0.951 . S
H1072 C1097 0.950 1_556 S
H1073 C1099 0.950 . S
H1074 C1100 0.950 1_455 S
H1075 C1102 0.950 . S
H1076 C1105 0.950 . S
H1077 C1106 0.950 . S
H1078 C1108 0.950 1_556 S
H1079 C1109 0.950 . S
C1080 H1062 0.951 . S
C1080 C1081 1.366 . S
C1080 C1082 1.388 . S
C1081 C1080 1.366 . S
C1081 C1085 1.385 . S
C1082 H1063 0.951 . S
C1082 C1080 1.388 . S
C1082 C1083 1.366 . S
C1083 C1082 1.366 . S
C1083 C1084 1.414 . S
C1083 C1086 1.499 . S
C1084 H1064 0.950 . S
C1084 C1083 1.414 . S
C1084 C1085 1.374 . S
C1085 H1065 0.950 . S
C1085 C1081 1.385 . S
C1085 C1084 1.374 . S
C1086 C1083 1.499 . S
C1086 C1087 1.373 . S
C1086 C1088 1.389 . S
C1087 H1066 0.950 . S
C1087 C1086 1.373 . S
C1087 C1103 1.377 . S
C1088 C1086 1.389 . S
C1088 C1089 1.524 . S
C1088 C1102 1.377 . S
C1089 C1088 1.524 . S
C1089 C1090 1.397 . S
C1089 C1094 1.363 . S
C1090 H1067 0.950 . S
C1090 C1089 1.397 . S
C1090 C1091 1.334 . S
C1091 H1068 0.950 . S
C1091 C1090 1.334 . S
C1091 C1092 1.287 . S
C1092 C1091 1.287 . S
C1092 C1093 1.524 . S
C1092 H1111 0.919 . S
C1093 H1069 0.950 1_655 S
C1093 C1092 1.524 . S
C1093 C1094 1.415 . S
C1094 H1070 0.950 . S
C1094 C1089 1.363 . S
C1094 C1093 1.415 . S
C1095 H1071 0.951 . S
C1095 C1096 1.366 . S
C1095 C1097 1.388 1_556 S
C1096 C1095 1.366 . S
C1096 C1100 1.385 1_556 S
C1097 H1072 0.950 1_554 S
C1097 C1095 1.388 1_554 S
C1097 C1098 1.366 . S
C1098 C1097 1.366 . S
C1098 C1099 1.414 . S
C1098 C1101 1.499 . S
C1099 H1073 0.950 . S
C1099 C1098 1.414 . S
C1099 C1100 1.374 . S
C1100 H1074 0.950 1_655 S
C1100 C1096 1.385 1_554 S
C1100 C1099 1.374 . S
C1101 C1098 1.499 . S
C1101 C1102 1.373 . S
C1101 C1103 1.389 . S
C1102 H1075 0.950 . S
C1102 C1088 1.377 . S
C1102 C1101 1.373 . S
C1103 C1087 1.377 . S
C1103 C1101 1.389 . S
C1103 C1104 1.524 . S
C1104 C1103 1.524 . S
C1104 C1105 1.397 . S
C1104 C1109 1.363 . S
C1105 H1076 0.950 . S
C1105 C1104 1.397 . S
C1105 C1106 1.334 . S
C1106 H1077 0.950 . S
C1106 C1105 1.334 . S
C1106 C1107 1.287 . S
C1107 C1106 1.287 . S
C1107 C1108 1.524 . S
C1107 H1110 0.999 1_554 S
C1108 H1078 0.950 1_554 S
C1108 C1107 1.524 . S
C1108 C1109 1.415 . S
C1109 H1079 0.950 . S
C1109 C1104 1.363 . S
C1109 C1108 1.415 . S
H1110 C1107 0.999 1_556 S
H1111 C1092 0.919 . S
H1112 C1130 0.951 . S
H1113 C1132 0.951 . S
H1114 C1134 0.950 . S
H1115 C1135 0.950 . S
H1116 C1137 0.950 . S
H1117 C1140 0.950 . S
H1118 C1141 0.950 . S
H1119 C1143 0.950 . S
H1120 C1144 0.950 . S
H1121 C1145 0.951 . S
H1122 C1147 0.951 . S
H1123 C1149 0.950 . S
H1124 C1150 0.950 . S
H1125 C1152 0.950 . S
H1126 C1155 0.950 . S
H1127 C1156 0.950 . S
H1128 C1158 0.950 . S
H1129 C1159 0.950 . S
C1130 H1112 0.951 . S
C1130 C1131 1.366 . S
C1130 C1132 1.388 . S
C1131 C1130 1.366 . S
C1131 C1135 1.385 . S
C1132 H1113 0.951 . S
C1132 C1130 1.388 . S
C1132 C1133 1.366 . S
C1133 C1132 1.366 . S
C1133 C1134 1.414 . S
C1133 C1136 1.499 . S
C1134 H1114 0.950 . S
C1134 C1133 1.414 . S
C1134 C1135 1.374 . S
C1135 H1115 0.950 . S
C1135 C1131 1.385 . S
C1135 C1134 1.374 . S
C1136 C1133 1.499 . S
C1136 C1137 1.373 . S
C1136 C1138 1.389 . S
C1137 H1116 0.950 . S
C1137 C1136 1.373 . S
C1137 C1153 1.377 . S
C1138 C1136 1.389 . S
C1138 C1139 1.524 . S
C1138 C1152 1.377 . S
C1139 C1138 1.524 . S
C1139 C1140 1.397 . S
C1139 C1144 1.363 . S
C1140 H1117 0.950 . S
C1140 C1139 1.397 . S
C1140 C1141 1.334 . S
C1141 H1118 0.950 . S
C1141 C1140 1.334 . S
C1141 C1142 1.287 . S
C1142 C1141 1.287 . S
C1142 C1143 1.524 . S
C1142 H1161 0.913 . S
C1143 H1119 0.950 . S
C1143 C1142 1.524 . S
C1143 C1144 1.415 . S
C1144 H1120 0.950 . S
C1144 C1139 1.363 . S
C1144 C1143 1.415 . S
C1145 H1121 0.951 . S
C1145 C1146 1.366 . S
C1145 C1147 1.388 . S
C1146 C1145 1.366 . S
C1146 C1150 1.385 . S
C1147 H1122 0.951 . S
C1147 C1145 1.388 . S
C1147 C1148 1.366 . S
C1148 C1147 1.366 . S
C1148 C1149 1.414 . S
C1148 C1151 1.499 . S
C1149 H1123 0.950 . S
C1149 C1148 1.414 . S
C1149 C1150 1.374 . S
C1150 H1124 0.950 . S
C1150 C1146 1.385 . S
C1150 C1149 1.374 . S
C1151 C1148 1.499 . S
C1151 C1152 1.373 . S
C1151 C1153 1.389 . S
C1152 H1125 0.950 . S
C1152 C1138 1.377 . S
C1152 C1151 1.373 . S
C1153 C1137 1.377 . S
C1153 C1151 1.389 . S
C1153 C1154 1.524 . S
C1154 C1153 1.524 . S
C1154 C1155 1.397 . S
C1154 C1159 1.363 . S
C1155 H1126 0.950 . S
C1155 C1154 1.397 . S
C1155 C1156 1.334 . S
C1156 H1127 0.950 . S
C1156 C1155 1.334 . S
C1156 C1157 1.287 . S
C1157 C1156 1.287 . S
C1157 C1158 1.524 . S
C1157 H1160 0.999 . S
C1158 H1128 0.950 . S
C1158 C1157 1.524 . S
C1158 C1159 1.415 . S
C1159 H1129 0.950 . S
C1159 C1154 1.363 . S
C1159 C1158 1.415 . S
H1160 C1157 0.999 . S
H1161 C1142 0.913 . S
H1162 C1180 0.951 . S
H1163 C1182 0.951 . S
H1164 C1184 0.950 . S
H1165 C1185 0.950 . S
H1166 C1187 0.950 . S
H1167 C1190 0.950 . S
H1168 C1191 0.950 . S
H1169 C1193 0.950 . S
H1170 C1194 0.950 . S
H1171 C1195 0.951 . S
H1172 C1197 0.951 . S
H1173 C1199 0.950 . S
H1174 C1200 0.950 . S
H1175 C1202 0.950 . S
H1176 C1205 0.950 . S
H1177 C1206 0.950 . S
H1178 C1208 0.950 . S
H1179 C1209 0.950 . S
C1180 H1162 0.951 . S
C1180 C1181 1.366 . S
C1180 C1182 1.388 . S
C1181 C1180 1.366 . S
C1181 C1185 1.385 . S
C1182 H1163 0.951 . S
C1182 C1180 1.388 . S
C1182 C1183 1.366 . S
C1183 C1182 1.366 . S
C1183 C1184 1.414 . S
C1183 C1186 1.499 . S
C1184 H1164 0.950 . S
C1184 C1183 1.414 . S
C1184 C1185 1.374 . S
C1185 H1165 0.950 . S
C1185 C1181 1.385 . S
C1185 C1184 1.374 . S
C1186 C1183 1.499 . S
C1186 C1187 1.373 . S
C1186 C1188 1.389 . S
C1187 H1166 0.950 . S
C1187 C1186 1.373 . S
C1187 C1203 1.377 . S
C1188 C1186 1.389 . S
C1188 C1189 1.524 . S
C1188 C1202 1.377 . S
C1189 C1188 1.524 . S
C1189 C1190 1.397 . S
C1189 C1194 1.363 . S
C1190 H1167 0.950 . S
C1190 C1189 1.397 . S
C1190 C1191 1.334 . S
C1191 H1168 0.950 . S
C1191 C1190 1.334 . S
C1191 C1192 1.287 . S
C1192 C1191 1.287 . S
C1192 C1193 1.524 . S
C1192 H1211 0.913 . S
C1193 H1169 0.950 . S
C1193 C1192 1.524 . S
C1193 C1194 1.415 . S
C1194 H1170 0.950 . S
C1194 C1189 1.363 . S
C1194 C1193 1.415 . S
C1195 H1171 0.951 . S
C1195 C1196 1.366 . S
C1195 C1197 1.388 . S
C1196 C1195 1.366 . S
C1196 C1200 1.385 . S
C1197 H1172 0.951 . S
C1197 C1195 1.388 . S
C1197 C1198 1.366 . S
C1198 C1197 1.366 . S
C1198 C1199 1.414 . S
C1198 C1201 1.499 . S
C1199 H1173 0.950 . S
C1199 C1198 1.414 . S
C1199 C1200 1.374 . S
C1200 H1174 0.950 . S
C1200 C1196 1.385 . S
C1200 C1199 1.374 . S
C1201 C1198 1.499 . S
C1201 C1202 1.373 . S
C1201 C1203 1.389 . S
C1202 H1175 0.950 . S
C1202 C1188 1.377 . S
C1202 C1201 1.373 . S
C1203 C1187 1.377 . S
C1203 C1201 1.389 . S
C1203 C1204 1.524 . S
C1204 C1203 1.524 . S
C1204 C1205 1.397 . S
C1204 C1209 1.363 . S
C1205 H1176 0.950 . S
C1205 C1204 1.397 . S
C1205 C1206 1.334 . S
C1206 H1177 0.950 . S
C1206 C1205 1.334 . S
C1206 C1207 1.287 . S
C1207 C1206 1.287 . S
C1207 C1208 1.524 . S
C1207 H1210 0.999 . S
C1208 H1178 0.950 . S
C1208 C1207 1.524 . S
C1208 C1209 1.415 . S
C1209 H1179 0.950 . S
C1209 C1204 1.363 . S
C1209 C1208 1.415 . S
H1210 C1207 0.999 . S
H1211 C1192 0.913 . S
H1212 C1230 0.951 . S
H1213 C1232 0.951 . S
H1214 C1234 0.950 . S
H1215 C1235 0.950 . S
H1216 C1237 0.950 . S
H1217 C1240 0.950 . S
H1218 C1241 0.950 . S
H1219 C1243 0.950 . S
H1220 C1244 0.950 . S
H1221 C1245 0.951 1_556 S
H1222 C1247 0.951 . S
H1223 C1249 0.950 . S
H1224 C1250 0.950 . S
H1225 C1252 0.950 . S
H1226 C1255 0.950 . S
H1227 C1256 0.950 . S
H1228 C1258 0.950 . S
H1229 C1259 0.950 . S
C1230 H1212 0.951 . S
C1230 C1231 1.366 . S
C1230 C1232 1.388 . S
C1231 C1230 1.366 . S
C1231 C1235 1.385 . S
C1232 H1213 0.951 . S
C1232 C1230 1.388 . S
C1232 C1233 1.366 . S
C1233 C1232 1.366 . S
C1233 C1234 1.414 . S
C1233 C1236 1.499 . S
C1234 H1214 0.950 . S
C1234 C1233 1.414 . S
C1234 C1235 1.374 . S
C1235 H1215 0.950 . S
C1235 C1231 1.385 . S
C1235 C1234 1.374 . S
C1236 C1233 1.499 . S
C1236 C1237 1.373 . S
C1236 C1238 1.389 . S
C1237 H1216 0.950 . S
C1237 C1236 1.373 . S
C1237 C1253 1.377 . S
C1238 C1236 1.389 . S
C1238 C1239 1.524 . S
C1238 C1252 1.377 . S
C1239 C1238 1.524 . S
C1239 C1240 1.397 . S
C1239 C1244 1.363 . S
C1240 H1217 0.950 . S
C1240 C1239 1.397 . S
C1240 C1241 1.334 . S
C1241 H1218 0.950 . S
C1241 C1240 1.334 . S
C1241 C1242 1.287 . S
C1242 C1241 1.287 . S
C1242 C1243 1.524 . S
C1242 H1261 0.913 . S
C1243 H1219 0.950 . S
C1243 C1242 1.524 . S
C1243 C1244 1.415 . S
C1244 H1220 0.950 . S
C1244 C1239 1.363 . S
C1244 C1243 1.415 . S
C1245 H1221 0.951 1_554 S
C1245 C1246 1.366 1_554 S
C1245 C1247 1.388 . S
C1246 C1245 1.366 1_556 S
C1246 C1250 1.385 . S
C1247 H1222 0.951 . S
C1247 C1245 1.388 . S
C1247 C1248 1.366 . S
C1248 C1247 1.366 . S
C1248 C1249 1.414 . S
C1248 C1251 1.499 . S
C1249 H1223 0.950 . S
C1249 C1248 1.414 . S
C1249 C1250 1.374 1_554 S
C1250 H1224 0.950 . S
C1250 C1246 1.385 . S
C1250 C1249 1.374 1_556 S
C1251 C1248 1.499 . S
C1251 C1252 1.373 . S
C1251 C1253 1.389 . S
C1252 H1225 0.950 . S
C1252 C1238 1.377 . S
C1252 C1251 1.373 . S
C1253 C1237 1.377 . S
C1253 C1251 1.389 . S
C1253 C1254 1.524 . S
C1254 C1253 1.524 . S
C1254 C1255 1.397 . S
C1254 C1259 1.363 . S
C1255 H1226 0.950 . S
C1255 C1254 1.397 . S
C1255 C1256 1.334 1_554 S
C1256 H1227 0.950 . S
C1256 C1255 1.334 1_556 S
C1256 C1257 1.287 . S
C1257 C1256 1.287 . S
C1257 C1258 1.524 1_556 S
C1257 H1260 0.999 . S
C1258 H1228 0.950 . S
C1258 C1257 1.524 1_554 S
C1258 C1259 1.415 . S
C1259 H1229 0.950 . S
C1259 C1254 1.363 . S
C1259 C1258 1.415 . S
H1260 C1257 0.999 . S
H1261 C1242 0.913 . S
H1262 C1280 0.951 . S
H1263 C1282 0.951 . S
H1264 C1284 0.950 . S
H1265 C1285 0.950 . S
H1266 C1287 0.950 . S
H1267 C1290 0.950 . S
H1268 C1291 0.950 . S
H1269 C1293 0.950 . S
H1270 C1294 0.950 . S
H1271 C1295 0.951 . S
H1272 C1297 0.951 . S
H1273 C1299 0.950 . S
H1274 C1300 0.950 . S
H1275 C1302 0.950 . S
H1276 C1305 0.950 . S
H1277 C1306 0.950 . S
H1278 C1308 0.950 . S
H1279 C1309 0.950 . S
C1280 H1262 0.951 . S
C1280 C1281 1.366 . S
C1280 C1282 1.388 . S
C1281 C1280 1.366 . S
C1281 C1285 1.385 . S
C1282 H1263 0.951 . S
C1282 C1280 1.388 . S
C1282 C1283 1.366 . S
C1283 C1282 1.366 . S
C1283 C1284 1.414 . S
C1283 C1286 1.499 . S
C1284 H1264 0.950 . S
C1284 C1283 1.414 . S
C1284 C1285 1.374 . S
C1285 H1265 0.950 . S
C1285 C1281 1.385 . S
C1285 C1284 1.374 . S
C1286 C1283 1.499 . S
C1286 C1287 1.373 . S
C1286 C1288 1.389 . S
C1287 H1266 0.950 . S
C1287 C1286 1.373 . S
C1287 C1303 1.377 . S
C1288 C1286 1.389 . S
C1288 C1289 1.524 . S
C1288 C1302 1.377 . S
C1289 C1288 1.524 . S
C1289 C1290 1.397 . S
C1289 C1294 1.363 . S
C1290 H1267 0.950 . S
C1290 C1289 1.397 . S
C1290 C1291 1.334 . S
C1291 H1268 0.950 . S
C1291 C1290 1.334 . S
C1291 C1292 1.287 . S
C1292 C1291 1.287 . S
C1292 C1293 1.524 . S
C1292 H1311 0.913 . S
C1293 H1269 0.950 . S
C1293 C1292 1.524 . S
C1293 C1294 1.415 . S
C1294 H1270 0.950 . S
C1294 C1289 1.363 . S
C1294 C1293 1.415 . S
C1295 H1271 0.951 . S
C1295 C1296 1.366 . S
C1295 C1297 1.388 1_554 S
C1296 C1295 1.366 . S
C1296 C1300 1.385 1_554 S
C1297 H1272 0.951 . S
C1297 C1295 1.388 1_556 S
C1297 C1298 1.366 . S
C1298 C1297 1.366 . S
C1298 C1299 1.414 . S
C1298 C1301 1.499 . S
C1299 H1273 0.950 . S
C1299 C1298 1.414 . S
C1299 C1300 1.374 . S
C1300 H1274 0.950 . S
C1300 C1296 1.385 1_556 S
C1300 C1299 1.374 . S
C1301 C1298 1.499 . S
C1301 C1302 1.373 . S
C1301 C1303 1.389 . S
C1302 H1275 0.950 . S
C1302 C1288 1.377 . S
C1302 C1301 1.373 . S
C1303 C1287 1.377 . S
C1303 C1301 1.389 . S
C1303 C1304 1.524 . S
C1304 C1303 1.524 . S
C1304 C1305 1.397 . S
C1304 C1309 1.363 . S
C1305 H1276 0.950 . S
C1305 C1304 1.397 . S
C1305 C1306 1.334 . S
C1306 H1277 0.950 . S
C1306 C1305 1.334 . S
C1306 C1307 1.287 . S
C1307 C1306 1.287 . S
C1307 C1308 1.524 . S
C1307 H1310 0.999 . S
C1308 H1278 0.950 . S
C1308 C1307 1.524 . S
C1308 C1309 1.415 . S
C1309 H1279 0.950 . S
C1309 C1304 1.363 . S
C1309 C1308 1.415 . S
H1310 C1307 0.999 . S
H1311 C1292 0.913 . S
H1312 C1330 0.951 . S
H1313 C1332 0.951 . S
H1314 C1334 0.950 . S
H1315 C1335 0.950 . S
H1316 C1337 0.950 . S
H1317 C1340 0.950 . S
H1318 C1341 0.950 . S
H1319 C1343 0.950 . S
H1320 C1344 0.950 . S
H1321 C1345 0.951 . S
H1322 C1347 0.951 . S
H1323 C1349 0.950 . S
H1324 C1350 0.950 . S
H1325 C1352 0.991 . S
H1326 C1355 0.950 . S
H1327 C1356 0.950 . S
H1328 C1358 0.950 . S
H1329 C1359 0.950 . S
C1330 H1312 0.951 . S
C1330 C1331 1.366 1_655 S
C1330 C1332 1.388 . S
C1331 C1330 1.366 1_455 S
C1331 C1335 1.385 . S
C1332 H1313 0.951 . S
C1332 C1330 1.388 . S
C1332 C1333 1.366 1_655 S
C1333 C1332 1.366 1_455 S
C1333 C1334 1.414 . S
C1333 C1336 1.499 . S
C1334 H1314 0.950 . S
C1334 C1333 1.414 . S
C1334 C1335 1.374 . S
C1335 H1315 0.950 . S
C1335 C1331 1.385 . S
C1335 C1334 1.374 . S
C1336 C1333 1.499 . S
C1336 C1337 1.373 . S
C1336 C1338 1.389 . S
C1337 H1316 0.950 . S
C1337 C1336 1.373 . S
C1337 C1353 1.377 . S
C1338 C1336 1.389 . S
C1338 C1339 1.524 1_455 S
C1338 C1352 1.377 . S
C1339 C1338 1.524 1_655 S
C1339 C1340 1.397 . S
C1339 C1344 1.363 . S
C1340 H1317 0.950 . S
C1340 C1339 1.397 . S
C1340 C1341 1.334 . S
C1341 H1318 0.950 . S
C1341 C1340 1.334 . S
C1341 C1342 1.287 . S
C1342 C1341 1.287 . S
C1342 C1343 1.524 . S
C1342 H1361 0.913 . S
C1343 H1319 0.950 . S
C1343 C1342 1.524 . S
C1343 C1344 1.415 . S
C1344 H1320 0.950 . S
C1344 C1339 1.363 . S
C1344 C1343 1.415 . S
C1345 H1321 0.951 . S
C1345 C1346 1.366 . S
C1345 C1347 1.388 . S
C1346 C1345 1.366 . S
C1346 C1350 1.385 . S
C1347 H1322 0.951 . S
C1347 C1345 1.388 . S
C1347 C1348 1.366 . S
C1348 C1347 1.366 . S
C1348 C1349 1.414 . S
C1348 C1351 1.499 . S
C1349 H1323 0.950 . S
C1349 C1348 1.414 . S
C1349 C1350 1.374 . S
C1350 H1324 0.950 . S
C1350 C1346 1.385 . S
C1350 C1349 1.374 . S
C1351 C1348 1.499 . S
C1351 C1352 1.373 . S
C1351 C1353 1.389 . S
C1352 H1325 0.991 . S
C1352 C1338 1.377 . S
C1352 C1351 1.373 . S
C1353 C1337 1.377 . S
C1353 C1351 1.389 . S
C1353 C1354 1.524 . S
C1354 C1353 1.524 . S
C1354 C1355 1.397 . S
C1354 C1359 1.363 . S
C1355 H1326 0.950 . S
C1355 C1354 1.397 . S
C1355 C1356 1.334 . S
C1356 H1327 0.950 . S
C1356 C1355 1.334 . S
C1356 C1357 1.287 . S
C1357 C1356 1.287 . S
C1357 C1358 1.524 . S
C1357 H1360 0.999 . S
C1358 H1328 0.950 . S
C1358 C1357 1.524 . S
C1358 C1359 1.415 . S
C1359 H1329 0.950 . S
C1359 C1354 1.363 . S
C1359 C1358 1.415 . S
H1360 C1357 0.999 . S
H1361 C1342 0.913 . S
H1362 C1380 0.951 . S
H1363 C1382 0.951 . S
H1364 C1384 0.950 . S
H1365 C1385 0.950 . S
H1366 C1387 0.950 . S
H1367 C1390 0.950 . S
H1368 C1391 0.950 . S
H1369 C1393 0.950 . S
H1370 C1394 0.950 1_455 S
H1371 C1395 0.951 . S
H1372 C1397 0.951 . S
H1373 C1399 0.950 . S
H1374 C1400 0.950 . S
H1375 C1402 0.950 . S
H1376 C1405 0.950 . S
H1377 C1406 0.950 . S
H1378 C1408 0.950 . S
H1379 C1409 0.950 . S
C1380 H1362 0.951 . S
C1380 C1381 1.366 . S
C1380 C1382 1.388 . S
C1381 C1380 1.366 . S
C1381 C1385 1.385 . S
C1382 H1363 0.951 . S
C1382 C1380 1.388 . S
C1382 C1383 1.366 . S
C1383 C1382 1.366 . S
C1383 C1384 1.414 . S
C1383 C1386 1.499 1_655 S
C1384 H1364 0.950 . S
C1384 C1383 1.414 . S
C1384 C1385 1.374 . S
C1385 H1365 0.950 . S
C1385 C1381 1.385 . S
C1385 C1384 1.374 . S
C1386 C1383 1.499 1_455 S
C1386 C1387 1.373 . S
C1386 C1388 1.389 . S
C1387 H1366 0.950 . S
C1387 C1386 1.373 . S
C1387 C1403 1.377 . S
C1388 C1386 1.389 . S
C1388 C1389 1.524 1_455 S
C1388 C1402 1.377 . S
C1389 C1388 1.524 1_655 S
C1389 C1390 1.397 . S
C1389 C1394 1.363 . S
C1390 H1367 0.950 . S
C1390 C1389 1.397 . S
C1390 C1391 1.334 . S
C1391 H1368 0.950 . S
C1391 C1390 1.334 . S
C1391 C1392 1.287 . S
C1392 C1391 1.287 . S
C1392 C1393 1.524 . S
C1392 H1411 0.913 . S
C1393 H1369 0.950 . S
C1393 C1392 1.524 . S
C1393 C1394 1.415 . S
C1394 H1370 0.950 1_655 S
C1394 C1389 1.363 . S
C1394 C1393 1.415 . S
C1395 H1371 0.951 . S
C1395 C1396 1.366 . S
C1395 C1397 1.388 . S
C1396 C1395 1.366 . S
C1396 C1400 1.385 . S
C1397 H1372 0.951 . S
C1397 C1395 1.388 . S
C1397 C1398 1.366 . S
C1398 C1397 1.366 . S
C1398 C1399 1.414 . S
C1398 C1401 1.499 . S
C1399 H1373 0.950 . S
C1399 C1398 1.414 . S
C1399 C1400 1.374 . S
C1400 H1374 0.950 . S
C1400 C1396 1.385 . S
C1400 C1399 1.374 . S
C1401 C1398 1.499 . S
C1401 C1402 1.373 . S
C1401 C1403 1.389 . S
C1402 H1375 0.950 . S
C1402 C1388 1.377 . S
C1402 C1401 1.373 . S
C1403 C1387 1.377 . S
C1403 C1401 1.389 . S
C1403 C1404 1.524 . S
C1404 C1403 1.524 . S
C1404 C1405 1.397 . S
C1404 C1409 1.363 . S
C1405 H1376 0.950 . S
C1405 C1404 1.397 . S
C1405 C1406 1.334 . S
C1406 H1377 0.950 . S
C1406 C1405 1.334 . S
C1406 C1407 1.287 . S
C1407 C1406 1.287 . S
C1407 C1408 1.524 . S
C1407 H1410 0.999 . S
C1408 H1378 0.950 . S
C1408 C1407 1.524 . S
C1408 C1409 1.415 . S
C1409 H1379 0.950 . S
C1409 C1404 1.363 . S
C1409 C1408 1.415 . S
H1410 C1407 0.999 . S
H1411 C1392 0.913 . S
H1412 C1430 0.951 . S
H1413 C1432 0.951 . S
H1414 C1434 0.950 . S
H1415 C1435 0.950 . S
H1416 C1437 0.950 . S
H1417 C1440 0.950 . S
H1418 C1441 0.950 . S
H1419 C1443 0.950 . S
H1420 C1444 0.950 . S
H1421 C1445 0.951 . S
H1422 C1447 0.951 . S
H1423 C1449 0.950 . S
H1424 C1450 0.950 . S
H1425 C1452 0.950 . S
H1426 C1455 0.950 . S
H1427 C1456 0.950 . S
H1428 C1458 0.950 . S
H1429 C1459 0.950 . S
C1430 H1412 0.951 . S
C1430 C1431 1.366 . S
C1430 C1432 1.388 . S
C1431 C1430 1.366 . S
C1431 C1435 1.385 . S
C1432 H1413 0.951 . S
C1432 C1430 1.388 . S
C1432 C1433 1.366 . S
C1433 C1432 1.366 . S
C1433 C1434 1.414 . S
C1433 C1436 1.499 . S
C1434 H1414 0.950 . S
C1434 C1433 1.414 . S
C1434 C1435 1.374 . S
C1435 H1415 0.950 . S
C1435 C1431 1.385 . S
C1435 C1434 1.374 . S
C1436 C1433 1.499 . S
C1436 C1437 1.373 . S
C1436 C1438 1.389 . S
C1437 H1416 0.950 . S
C1437 C1436 1.373 . S
C1437 C1453 1.377 . S
C1438 C1436 1.389 . S
C1438 C1439 1.524 . S
C1438 C1452 1.377 . S
C1439 C1438 1.524 . S
C1439 C1440 1.397 . S
C1439 C1444 1.363 . S
C1440 H1417 0.950 . S
C1440 C1439 1.397 . S
C1440 C1441 1.334 . S
C1441 H1418 0.950 . S
C1441 C1440 1.334 . S
C1441 C1442 1.287 . S
C1442 C1441 1.287 . S
C1442 C1443 1.524 . S
C1442 H1461 0.913 . S
C1443 H1419 0.950 . S
C1443 C1442 1.524 . S
C1443 C1444 1.415 . S
C1444 H1420 0.950 . S
C1444 C1439 1.363 . S
C1444 C1443 1.415 . S
C1445 H1421 0.951 . S
C1445 C1446 1.366 . S
C1445 C1447 1.388 . S
C1446 C1445 1.366 . S
C1446 C1450 1.385 . S
C1447 H1422 0.951 . S
C1447 C1445 1.388 . S
C1447 C1448 1.366 . S
C1448 C1447 1.366 . S
C1448 C1449 1.414 . S
C1448 C1451 1.499 . S
C1449 H1423 0.950 . S
C1449 C1448 1.414 . S
C1449 C1450 1.374 . S
C1450 H1424 0.950 . S
C1450 C1446 1.385 . S
C1450 C1449 1.374 . S
C1451 C1448 1.499 . S
C1451 C1452 1.373 . S
C1451 C1453 1.389 . S
C1452 H1425 0.950 . S
C1452 C1438 1.377 . S
C1452 C1451 1.373 . S
C1453 C1437 1.377 . S
C1453 C1451 1.389 . S
C1453 C1454 1.524 . S
C1454 C1453 1.524 . S
C1454 C1455 1.397 . S
C1454 C1459 1.363 . S
C1455 H1426 0.950 . S
C1455 C1454 1.397 . S
C1455 C1456 1.334 . S
C1456 H1427 0.950 . S
C1456 C1455 1.334 . S
C1456 C1457 1.287 . S
C1457 C1456 1.287 . S
C1457 C1458 1.524 . S
C1457 H1460 0.999 . S
C1458 H1428 0.950 . S
C1458 C1457 1.524 . S
C1458 C1459 1.415 . S
C1459 H1429 0.950 . S
C1459 C1454 1.363 . S
C1459 C1458 1.415 . S
H1460 C1457 0.999 . S
H1461 C1442 0.913 . S
H1462 C1480 0.951 . S
H1463 C1482 0.951 . S
H1464 C1484 0.950 . S
H1465 C1485 0.950 . S
H1466 C1487 0.950 . S
H1467 C1490 0.950 . S
H1468 C1491 0.950 . S
H1469 C1493 0.950 . S
H1470 C1494 0.950 . S
H1471 C1495 0.951 . S
H1472 C1497 0.951 . S
H1473 C1499 0.950 . S
H1474 C1500 0.950 . S
H1475 C1502 0.950 . S
H1476 C1505 0.950 . S
H1477 C1506 0.950 . S
H1478 C1508 0.950 1_554 S
H1479 C1509 0.950 1_554 S
C1480 H1462 0.951 . S
C1480 C1481 1.366 . S
C1480 C1482 1.388 . S
C1481 C1480 1.366 . S
C1481 C1485 1.385 . S
C1482 H1463 0.951 . S
C1482 C1480 1.388 . S
C1482 C1483 1.366 . S
C1483 C1482 1.366 . S
C1483 C1484 1.414 . S
C1483 C1486 1.499 . S
C1484 H1464 0.950 . S
C1484 C1483 1.414 . S
C1484 C1485 1.374 . S
C1485 H1465 0.950 . S
C1485 C1481 1.385 . S
C1485 C1484 1.374 . S
C1486 C1483 1.499 . S
C1486 C1487 1.373 . S
C1486 C1488 1.389 . S
C1487 H1466 0.950 . S
C1487 C1486 1.373 . S
C1487 C1503 1.377 . S
C1488 C1486 1.389 . S
C1488 C1489 1.524 . S
C1488 C1502 1.377 . S
C1489 C1488 1.524 . S
C1489 C1490 1.397 . S
C1489 C1494 1.363 . S
C1490 H1467 0.950 . S
C1490 C1489 1.397 . S
C1490 C1491 1.334 . S
C1491 H1468 0.950 . S
C1491 C1490 1.334 . S
C1491 C1492 1.287 . S
C1492 C1491 1.287 . S
C1492 C1493 1.524 . S
C1492 H1511 0.913 . S
C1493 H1469 0.950 . S
C1493 C1492 1.524 . S
C1493 C1494 1.415 . S
C1494 H1470 0.950 . S
C1494 C1489 1.363 . S
C1494 C1493 1.415 . S
C1495 H1471 0.951 . S
C1495 C1496 1.366 . S
C1495 C1497 1.388 . S
C1496 C1495 1.366 . S
C1496 C1500 1.385 . S
C1497 H1472 0.951 . S
C1497 C1495 1.388 . S
C1497 C1498 1.366 . S
C1498 C1497 1.366 . S
C1498 C1499 1.414 . S
C1498 C1501 1.499 . S
C1499 H1473 0.950 . S
C1499 C1498 1.414 . S
C1499 C1500 1.374 . S
C1500 H1474 0.950 . S
C1500 C1496 1.385 . S
C1500 C1499 1.374 . S
C1501 C1498 1.499 . S
C1501 C1502 1.373 . S
C1501 C1503 1.389 . S
C1502 H1475 0.950 . S
C1502 C1488 1.377 . S
C1502 C1501 1.373 . S
C1503 C1487 1.377 . S
C1503 C1501 1.389 . S
C1503 C1504 1.524 . S
C1504 C1503 1.524 . S
C1504 C1505 1.397 . S
C1504 C1509 1.363 . S
C1505 H1476 0.950 . S
C1505 C1504 1.397 . S
C1505 C1506 1.334 . S
C1506 H1477 0.950 . S
C1506 C1505 1.334 . S
C1506 C1507 1.287 . S
C1507 C1506 1.287 . S
C1507 C1508 1.524 . S
C1507 H1510 0.999 . S
C1508 H1478 0.950 1_556 S
C1508 C1507 1.524 . S
C1508 C1509 1.415 . S
C1509 H1479 0.950 1_556 S
C1509 C1504 1.363 . S
C1509 C1508 1.415 . S
H1510 C1507 0.999 . S
H1511 C1492 0.913 . S
H1512 C1530 0.951 . S
H1513 C1532 0.951 . S
H1514 C1534 0.950 . S
H1515 C1535 0.950 . S
H1516 C1537 0.950 . S
H1517 C1540 0.950 . S
H1518 C1541 0.950 . S
H1519 C1543 0.950 . S
H1520 C1544 0.950 . S
H1521 C1545 0.951 . S
H1522 C1547 0.951 . S
H1523 C1549 0.950 . S
H1524 C1550 0.950 . S
H1525 C1552 0.950 . S
H1526 C1555 0.950 . S
H1527 C1556 0.950 . S
H1528 C1558 0.950 . S
H1529 C1559 0.950 . S
C1530 H1512 0.951 . S
C1530 C1531 1.366 . S
C1530 C1532 1.388 . S
C1531 C1530 1.366 . S
C1531 C1535 1.385 . S
C1532 H1513 0.951 . S
C1532 C1530 1.388 . S
C1532 C1533 1.366 . S
C1533 C1532 1.366 . S
C1533 C1534 1.414 . S
C1533 C1536 1.499 . S
C1534 H1514 0.950 . S
C1534 C1533 1.414 . S
C1534 C1535 1.374 . S
C1535 H1515 0.950 . S
C1535 C1531 1.385 . S
C1535 C1534 1.374 . S
C1536 C1533 1.499 . S
C1536 C1537 1.373 . S
C1536 C1538 1.389 . S
C1537 H1516 0.950 . S
C1537 C1536 1.373 . S
C1537 C1553 1.377 . S
C1538 C1536 1.389 . S
C1538 C1539 1.524 . S
C1538 C1552 1.377 . S
C1539 C1538 1.524 . S
C1539 C1540 1.397 . S
C1539 C1544 1.363 . S
C1540 H1517 0.950 . S
C1540 C1539 1.397 . S
C1540 C1541 1.334 . S
C1541 H1518 0.950 . S
C1541 C1540 1.334 . S
C1541 C1542 1.287 . S
C1542 C1541 1.287 . S
C1542 C1543 1.524 . S
C1542 H1561 0.913 . S
C1543 H1519 0.950 . S
C1543 C1542 1.524 . S
C1543 C1544 1.415 . S
C1544 H1520 0.950 . S
C1544 C1539 1.363 . S
C1544 C1543 1.415 . S
C1545 H1521 0.951 . S
C1545 C1546 1.366 1_655 S
C1545 C1547 1.388 . S
C1546 C1545 1.366 1_455 S
C1546 C1550 1.385 . S
C1547 H1522 0.951 . S
C1547 C1545 1.388 . S
C1547 C1548 1.366 1_655 S
C1548 C1547 1.366 1_455 S
C1548 C1549 1.414 . S
C1548 C1551 1.499 . S
C1549 H1523 0.950 . S
C1549 C1548 1.414 . S
C1549 C1550 1.374 . S
C1550 H1524 0.950 . S
C1550 C1546 1.385 . S
C1550 C1549 1.374 . S
C1551 C1548 1.499 . S
C1551 C1552 1.373 . S
C1551 C1553 1.389 . S
C1552 H1525 0.950 . S
C1552 C1538 1.377 . S
C1552 C1551 1.373 . S
C1553 C1537 1.377 . S
C1553 C1551 1.389 . S
C1553 C1554 1.524 1_455 S
C1554 C1553 1.524 1_655 S
C1554 C1555 1.397 . S
C1554 C1559 1.363 . S
C1555 H1526 0.950 . S
C1555 C1554 1.397 . S
C1555 C1556 1.334 . S
C1556 H1527 0.950 . S
C1556 C1555 1.334 . S
C1556 C1557 1.287 . S
C1557 C1556 1.287 . S
C1557 C1558 1.524 . S
C1557 H1560 0.999 . S
C1558 H1528 0.950 . S
C1558 C1557 1.524 . S
C1558 C1559 1.415 . S
C1559 H1529 0.950 . S
C1559 C1554 1.363 . S
C1559 C1558 1.415 . S
H1560 C1557 0.999 . S
H1561 C1542 0.913 . S
H1562 C1580 0.951 . S
H1563 C1582 0.951 . S
H1564 C1584 0.950 . S
H1565 C1585 0.950 . S
H1566 C1587 0.950 . S
H1567 C1590 0.950 . S
H1568 C1591 0.950 . S
H1569 C1593 0.950 . S
H1570 C1594 0.950 . S
H1571 C1595 0.951 . S
H1572 C1597 0.951 . S
H1573 C1599 0.950 . S
H1574 C1600 0.950 . S
H1575 C1602 0.950 . S
H1576 C1605 0.950 . S
H1577 C1606 0.950 . S
H1578 C1608 0.950 . S
H1579 C1609 0.950 . S
C1580 H1562 0.951 . S
C1580 C1581 1.366 . S
C1580 C1582 1.388 . S
C1581 C1580 1.366 . S
C1581 C1585 1.385 . S
C1582 H1563 0.951 . S
C1582 C1580 1.388 . S
C1582 C1583 1.366 . S
C1583 C1582 1.366 . S
C1583 C1584 1.414 . S
C1583 C1586 1.499 . S
C1584 H1564 0.950 . S
C1584 C1583 1.414 . S
C1584 C1585 1.374 . S
C1585 H1565 0.950 . S
C1585 C1581 1.385 . S
C1585 C1584 1.374 . S
C1586 C1583 1.499 . S
C1586 C1587 1.373 . S
C1586 C1588 1.389 . S
C1587 H1566 0.950 . S
C1587 C1586 1.373 . S
C1587 C1603 1.377 . S
C1588 C1586 1.389 . S
C1588 C1589 1.524 . S
C1588 C1602 1.377 . S
C1589 C1588 1.524 . S
C1589 C1590 1.397 1_554 S
C1589 C1594 1.363 . S
C1590 H1567 0.950 . S
C1590 C1589 1.397 1_556 S
C1590 C1591 1.334 . S
C1591 H1568 0.950 . S
C1591 C1590 1.334 . S
C1591 C1592 1.287 . S
C1592 C1591 1.287 . S
C1592 C1593 1.524 1_556 S
C1592 H1611 0.913 . S
C1593 H1569 0.950 . S
C1593 C1592 1.524 1_554 S
C1593 C1594 1.415 . S
C1594 H1570 0.950 . S
C1594 C1589 1.363 . S
C1594 C1593 1.415 . S
C1595 H1571 0.951 . S
C1595 C1596 1.366 . S
C1595 C1597 1.388 . S
C1596 C1595 1.366 . S
C1596 C1600 1.385 . S
C1597 H1572 0.951 . S
C1597 C1595 1.388 . S
C1597 C1598 1.366 . S
C1598 C1597 1.366 . S
C1598 C1599 1.414 . S
C1598 C1601 1.499 . S
C1599 H1573 0.950 . S
C1599 C1598 1.414 . S
C1599 C1600 1.374 . S
C1600 H1574 0.950 . S
C1600 C1596 1.385 . S
C1600 C1599 1.374 . S
C1601 C1598 1.499 . S
C1601 C1602 1.373 . S
C1601 C1603 1.389 . S
C1602 H1575 0.950 . S
C1602 C1588 1.377 . S
C1602 C1601 1.373 . S
C1603 C1587 1.377 . S
C1603 C1601 1.389 . S
C1603 C1604 1.524 . S
C1604 C1603 1.524 . S
C1604 C1605 1.397 . S
C1604 C1609 1.363 . S
C1605 H1576 0.950 . S
C1605 C1604 1.397 . S
C1605 C1606 1.334 . S
C1606 H1577 0.950 . S
C1606 C1605 1.334 . S
C1606 C1607 1.287 . S
C1607 C1606 1.287 . S
C1607 C1608 1.524 . S
C1607 H1610 0.999 . S
C1608 H1578 0.950 . S
C1608 C1607 1.524 . S
C1608 C1609 1.415 . S
C1609 H1579 0.950 . S
C1609 C1604 1.363 . S
C1609 C1608 1.415 . S
H1610 C1607 0.999 . S
H1611 C1592 0.913 . S
H1612 C1630 0.951 . S
H1613 C1632 0.951 . S
H1614 C1634 0.950 . S
H1615 C1635 0.950 . S
H1616 C1637 0.950 . S
H1617 C1640 0.950 . S
H1618 C1641 0.950 . S
H1619 C1643 0.950 . S
H1620 C1644 0.950 . S
H1621 C1645 0.951 . S
H1622 C1647 0.951 . S
H1623 C1649 0.950 . S
H1624 C1650 0.950 . S
H1625 C1652 0.950 . S
H1626 C1655 0.950 . S
H1627 C1656 0.950 . S
H1628 C1658 0.950 . S
H1629 C1659 0.950 . S
C1630 H1612 0.951 . S
C1630 C1631 1.366 . S
C1630 C1632 1.388 . S
C1631 C1630 1.366 . S
C1631 C1635 1.385 . S
C1632 H1613 0.951 . S
C1632 C1630 1.388 . S
C1632 C1633 1.366 . S
C1633 C1632 1.366 . S
C1633 C1634 1.414 . S
C1633 C1636 1.499 . S
C1634 H1614 0.950 . S
C1634 C1633 1.414 . S
C1634 C1635 1.374 . S
C1635 H1615 0.950 . S
C1635 C1631 1.385 . S
C1635 C1634 1.374 . S
C1636 C1633 1.499 . S
C1636 C1637 1.373 . S
C1636 C1638 1.389 . S
C1637 H1616 0.950 . S
C1637 C1636 1.373 . S
C1637 C1653 1.377 . S
C1638 C1636 1.389 . S
C1638 C1639 1.524 . S
C1638 C1652 1.377 . S
C1639 C1638 1.524 . S
C1639 C1640 1.397 . S
C1639 C1644 1.363 . S
C1640 H1617 0.950 . S
C1640 C1639 1.397 . S
C1640 C1641 1.334 . S
C1641 H1618 0.950 . S
C1641 C1640 1.334 . S
C1641 C1642 1.287 . S
C1642 C1641 1.287 . S
C1642 C1643 1.524 . S
C1642 H1661 0.913 . S
C1643 H1619 0.950 . S
C1643 C1642 1.524 . S
C1643 C1644 1.415 . S
C1644 H1620 0.950 . S
C1644 C1639 1.363 . S
C1644 C1643 1.415 . S
C1645 H1621 0.951 . S
C1645 C1646 1.366 . S
C1645 C1647 1.388 . S
C1646 C1645 1.366 . S
C1646 C1650 1.385 . S
C1647 H1622 0.951 . S
C1647 C1645 1.388 . S
C1647 C1648 1.366 . S
C1648 C1647 1.366 . S
C1648 C1649 1.414 . S
C1648 C1651 1.499 . S
C1649 H1623 0.950 . S
C1649 C1648 1.414 . S
C1649 C1650 1.374 . S
C1650 H1624 0.950 . S
C1650 C1646 1.385 . S
C1650 C1649 1.374 . S
C1651 C1648 1.499 . S
C1651 C1652 1.373 . S
C1651 C1653 1.389 . S
C1652 H1625 0.950 . S
C1652 C1638 1.377 . S
C1652 C1651 1.373 . S
C1653 C1637 1.377 . S
C1653 C1651 1.389 . S
C1653 C1654 1.524 . S
C1654 C1653 1.524 . S
C1654 C1655 1.397 . S
C1654 C1659 1.363 . S
C1655 H1626 0.950 . S
C1655 C1654 1.397 . S
C1655 C1656 1.334 . S
C1656 H1627 0.950 . S
C1656 C1655 1.334 . S
C1656 C1657 1.287 . S
C1657 C1656 1.287 . S
C1657 C1658 1.524 . S
C1657 H1660 0.999 . S
C1658 H1628 0.950 . S
C1658 C1657 1.524 . S
C1658 C1659 1.415 . S
C1659 H1629 0.950 . S
C1659 C1654 1.363 . S
C1659 C1658 1.415 . S
H1660 C1657 0.999 . S
H1661 C1642 0.913 . S
H1662 C1680 0.951 . S
H1663 C1682 0.951 . S
H1664 C1684 0.950 . S
H1665 C1685 0.950 . S
H1666 C1687 0.950 . S
H1667 C1690 0.950 . S
H1668 C1691 0.950 . S
H1669 C1693 0.950 . S
H1670 C1694 0.950 . S
H1671 C1695 0.951 . S
H1672 C1697 0.951 . S
H1673 C1699 0.950 . S
H1674 C1700 0.950 . S
H1675 C1702 0.950 . S
H1676 C1705 0.950 . S
H1677 C1706 0.950 . S
H1678 C1708 0.950 . S
H1679 C1709 0.950 . S
C1680 H1662 0.951 . S
C1680 C1681 1.366 . S
C1680 C1682 1.388 . S
C1681 C1680 1.366 . S
C1681 C1685 1.385 . S
C1682 H1663 0.951 . S
C1682 C1680 1.388 . S
C1682 C1683 1.366 . S
C1683 C1682 1.366 . S
C1683 C1684 1.414 . S
C1683 C1686 1.499 . S
C1684 H1664 0.950 . S
C1684 C1683 1.414 . S
C1684 C1685 1.374 . S
C1685 H1665 0.950 . S
C1685 C1681 1.385 . S
C1685 C1684 1.374 . S
C1686 C1683 1.499 . S
C1686 C1687 1.373 . S
C1686 C1688 1.389 . S
C1687 H1666 0.950 . S
C1687 C1686 1.373 . S
C1687 C1703 1.377 . S
C1688 C1686 1.389 . S
C1688 C1689 1.524 . S
C1688 C1702 1.377 . S
C1689 C1688 1.524 . S
C1689 C1690 1.397 . S
C1689 C1694 1.363 . S
C1690 H1667 0.950 . S
C1690 C1689 1.397 . S
C1690 C1691 1.334 . S
C1691 H1668 0.950 . S
C1691 C1690 1.334 . S
C1691 C1692 1.287 . S
C1692 C1691 1.287 . S
C1692 C1693 1.524 . S
C1692 H1711 0.913 . S
C1693 H1669 0.950 . S
C1693 C1692 1.524 . S
C1693 C1694 1.415 . S
C1694 H1670 0.950 . S
C1694 C1689 1.363 . S
C1694 C1693 1.415 . S
C1695 H1671 0.951 . S
C1695 C1696 1.366 . S
C1695 C1697 1.388 . S
C1696 C1695 1.366 . S
C1696 C1700 1.385 . S
C1697 H1672 0.951 . S
C1697 C1695 1.388 . S
C1697 C1698 1.366 . S
C1698 C1697 1.366 . S
C1698 C1699 1.414 . S
C1698 C1701 1.499 1_655 S
C1699 H1673 0.950 . S
C1699 C1698 1.414 . S
C1699 C1700 1.374 . S
C1700 H1674 0.950 . S
C1700 C1696 1.385 . S
C1700 C1699 1.374 . S
C1701 C1698 1.499 1_455 S
C1701 C1702 1.373 . S
C1701 C1703 1.389 . S
C1702 H1675 0.950 . S
C1702 C1688 1.377 . S
C1702 C1701 1.373 . S
C1703 C1687 1.377 . S
C1703 C1701 1.389 . S
C1703 C1704 1.524 1_455 S
C1704 C1703 1.524 1_655 S
C1704 C1705 1.397 . S
C1704 C1709 1.363 1_655 S
C1705 H1676 0.950 . S
C1705 C1704 1.397 . S
C1705 C1706 1.334 . S
C1706 H1677 0.950 . S
C1706 C1705 1.334 . S
C1706 C1707 1.287 . S
C1707 C1706 1.287 . S
C1707 C1708 1.524 . S
C1707 H1710 0.999 . S
C1708 H1678 0.950 . S
C1708 C1707 1.524 . S
C1708 C1709 1.415 1_655 S
C1709 H1679 0.950 . S
C1709 C1704 1.363 1_455 S
C1709 C1708 1.415 1_455 S
H1710 C1707 0.999 . S
H1711 C1692 0.913 . S
H1712 C1730 0.951 . S
H1713 C1732 0.951 1_556 S
H1714 C1734 0.950 . S
H1715 C1735 0.950 . S
H1716 C1737 0.950 . S
H1717 C1740 0.950 1_554 S
H1718 C1741 0.950 . S
H1719 C1743 0.950 . S
H1720 C1744 0.950 . S
H1721 C1745 0.951 . S
H1722 C1747 0.951 1_554 S
H1723 C1749 0.950 . S
H1724 C1750 0.950 . S
H1725 C1752 0.950 . S
H1726 C1755 0.950 1_556 S
H1727 C1756 0.950 . S
H1728 C1758 0.950 . S
H1729 C1759 0.950 . S
C1730 H1712 0.951 . S
C1730 C1731 1.366 . S
C1730 C1732 1.388 . S
C1731 C1730 1.366 . S
C1731 C1735 1.385 . S
C1732 H1713 0.951 1_554 S
C1732 C1730 1.388 . S
C1732 C1733 1.366 . S
C1733 C1732 1.366 . S
C1733 C1734 1.414 . S
C1733 C1736 1.499 . S
C1734 H1714 0.950 . S
C1734 C1733 1.414 . S
C1734 C1735 1.374 . S
C1735 H1715 0.950 . S
C1735 C1731 1.385 . S
C1735 C1734 1.374 . S
C1736 C1733 1.499 . S
C1736 C1737 1.373 . S
C1736 C1738 1.389 1_554 S
C1737 H1716 0.950 . S
C1737 C1736 1.373 . S
C1737 C1753 1.377 1_545 S
C1738 C1736 1.389 1_556 S
C1738 C1739 1.524 . S
C1738 C1752 1.377 1_545 S
C1739 C1738 1.524 . S
C1739 C1740 1.397 1_455 S
C1739 C1744 1.363 . S
C1740 H1717 0.950 1_556 S
C1740 C1739 1.397 1_655 S
C1740 C1741 1.334 . S
C1741 H1718 0.950 . S
C1741 C1740 1.334 . S
C1741 C1742 1.287 . S
C1742 C1741 1.287 . S
C1742 C1743 1.524 1_655 S
C1742 H1761 0.913 . S
C1743 H1719 0.950 . S
C1743 C1742 1.524 1_455 S
C1743 C1744 1.415 . S
C1744 H1720 0.950 . S
C1744 C1739 1.363 . S
C1744 C1743 1.415 . S
C1745 H1721 0.951 . S
C1745 C1746 1.366 . S
C1745 C1747 1.388 . S
C1746 C1745 1.366 . S
C1746 C1750 1.385 . S
C1747 H1722 0.951 1_556 S
C1747 C1745 1.388 . S
C1747 C1748 1.366 . S
C1748 C1747 1.366 . S
C1748 C1749 1.414 . S
C1748 C1751 1.499 . S
C1749 H1723 0.950 . S
C1749 C1748 1.414 . S
C1749 C1750 1.374 . S
C1750 H1724 0.950 . S
C1750 C1746 1.385 . S
C1750 C1749 1.374 . S
C1751 C1748 1.499 . S
C1751 C1752 1.373 . S
C1751 C1753 1.389 1_556 S
C1752 H1725 0.950 . S
C1752 C1738 1.377 1_565 S
C1752 C1751 1.373 . S
C1753 C1737 1.377 1_565 S
C1753 C1751 1.389 1_554 S
C1753 C1754 1.524 . S
C1754 C1753 1.524 . S
C1754 C1755 1.397 . S
C1754 C1759 1.363 . S
C1755 H1726 0.950 1_554 S
C1755 C1754 1.397 . S
C1755 C1756 1.334 . S
C1756 H1727 0.950 . S
C1756 C1755 1.334 . S
C1756 C1757 1.287 . S
C1757 C1756 1.287 . S
C1757 C1758 1.524 . S
C1757 H1760 0.999 . S
C1758 H1728 0.950 . S
C1758 C1757 1.524 . S
C1758 C1759 1.415 . S
C1759 H1729 0.950 . S
C1759 C1754 1.363 . S
C1759 C1758 1.415 . S
H1760 C1757 0.999 . S
H1761 C1742 0.913 . S
H1762 C1780 0.951 . S
H1763 C1782 0.951 . S
H1764 C1784 0.950 . S
H1765 C1785 0.950 . S
H1766 C1787 0.950 . S
H1767 C1790 0.950 . S
H1768 C1791 0.950 . S
H1769 C1793 0.950 . S
H1770 C1794 0.950 . S
H1771 C1795 0.951 . S
H1772 C1797 0.951 . S
H1773 C1799 0.950 . S
H1774 C1800 0.950 . S
H1775 C1802 0.950 . S
H1776 C1805 0.950 . S
H1777 C1806 0.950 . S
H1778 C1808 0.950 . S
H1779 C1809 0.950 . S
C1780 H1762 0.951 . S
C1780 C1781 1.366 . S
C1780 C1782 1.388 . S
C1781 C1780 1.366 . S
C1781 C1785 1.385 . S
C1782 H1763 0.951 . S
C1782 C1780 1.388 . S
C1782 C1783 1.366 . S
C1783 C1782 1.366 . S
C1783 C1784 1.414 . S
C1783 C1786 1.499 . S
C1784 H1764 0.950 . S
C1784 C1783 1.414 . S
C1784 C1785 1.374 . S
C1785 H1765 0.950 . S
C1785 C1781 1.385 . S
C1785 C1784 1.374 . S
C1786 C1783 1.499 . S
C1786 C1787 1.373 . S
C1786 C1788 1.389 . S
C1787 H1766 0.950 . S
C1787 C1786 1.373 . S
C1787 C1803 1.377 . S
C1788 C1786 1.389 . S
C1788 C1789 1.524 . S
C1788 C1802 1.377 . S
C1789 C1788 1.524 . S
C1789 C1790 1.397 . S
C1789 C1794 1.363 . S
C1790 H1767 0.950 . S
C1790 C1789 1.397 . S
C1790 C1791 1.334 . S
C1791 H1768 0.950 . S
C1791 C1790 1.334 . S
C1791 C1792 1.287 . S
C1792 C1791 1.287 . S
C1792 C1793 1.524 . S
C1792 H1811 0.913 . S
C1793 H1769 0.950 . S
C1793 C1792 1.524 . S
C1793 C1794 1.415 . S
C1794 H1770 0.950 . S
C1794 C1789 1.363 . S
C1794 C1793 1.415 . S
C1795 H1771 0.951 . S
C1795 C1796 1.366 . S
C1795 C1797 1.388 . S
C1796 C1795 1.366 . S
C1796 C1800 1.385 . S
C1797 H1772 0.951 . S
C1797 C1795 1.388 . S
C1797 C1798 1.366 . S
C1798 C1797 1.366 . S
C1798 C1799 1.414 . S
C1798 C1801 1.499 . S
C1799 H1773 0.950 . S
C1799 C1798 1.414 . S
C1799 C1800 1.374 . S
C1800 H1774 0.950 . S
C1800 C1796 1.385 . S
C1800 C1799 1.374 . S
C1801 C1798 1.499 . S
C1801 C1802 1.373 . S
C1801 C1803 1.389 . S
C1802 H1775 0.950 . S
C1802 C1788 1.377 . S
C1802 C1801 1.373 . S
C1803 C1787 1.377 . S
C1803 C1801 1.389 . S
C1803 C1804 1.524 . S
C1804 C1803 1.524 . S
C1804 C1805 1.397 . S
C1804 C1809 1.363 . S
C1805 H1776 0.950 . S
C1805 C1804 1.397 . S
C1805 C1806 1.334 . S
C1806 H1777 0.950 . S
C1806 C1805 1.334 . S
C1806 C1807 1.287 . S
C1807 C1806 1.287 . S
C1807 C1808 1.524 . S
C1807 H1810 0.999 . S
C1808 H1778 0.950 . S
C1808 C1807 1.524 . S
C1808 C1809 1.415 . S
C1809 H1779 0.950 . S
C1809 C1804 1.363 . S
C1809 C1808 1.415 . S
H1810 C1807 0.999 . S
H1811 C1792 0.913 . S
H1812 C1830 0.951 . S
H1813 C1832 0.951 . S
H1814 C1834 0.950 . S
H1815 C1835 0.950 . S
H1816 C1837 0.950 . S
H1817 C1840 0.950 . S
H1818 C1841 0.950 . S
H1819 C1843 0.950 . S
H1820 C1844 0.950 1_565 S
H1821 C1845 0.951 . S
H1822 C1847 0.951 . S
H1823 C1849 0.950 . S
H1824 C1850 0.950 . S
H1825 C1852 0.950 . S
H1826 C1855 0.950 . S
H1827 C1856 0.950 . S
H1828 C1858 0.950 . S
H1829 C1859 0.950 1_545 S
C1830 H1812 0.951 . S
C1830 C1831 1.366 . S
C1830 C1832 1.388 . S
C1831 C1830 1.366 . S
C1831 C1835 1.385 . S
C1832 H1813 0.951 . S
C1832 C1830 1.388 . S
C1832 C1833 1.366 . S
C1833 C1832 1.366 . S
C1833 C1834 1.414 . S
C1833 C1836 1.499 . S
C1834 H1814 0.950 . S
C1834 C1833 1.414 . S
C1834 C1835 1.374 . S
C1835 H1815 0.950 . S
C1835 C1831 1.385 . S
C1835 C1834 1.374 . S
C1836 C1833 1.499 . S
C1836 C1837 1.373 . S
C1836 C1838 1.389 . S
C1837 H1816 0.950 . S
C1837 C1836 1.373 . S
C1837 C1853 1.377 1_545 S
C1838 C1836 1.389 . S
C1838 C1839 1.524 . S
C1838 C1852 1.377 1_545 S
C1839 C1838 1.524 . S
C1839 C1840 1.397 . S
C1839 C1844 1.363 . S
C1840 H1817 0.950 . S
C1840 C1839 1.397 . S
C1840 C1841 1.334 . S
C1841 H1818 0.950 . S
C1841 C1840 1.334 . S
C1841 C1842 1.287 . S
C1842 C1841 1.287 . S
C1842 C1843 1.524 . S
C1842 H1861 0.913 . S
C1843 H1819 0.950 . S
C1843 C1842 1.524 . S
C1843 C1844 1.415 . S
C1844 H1820 0.950 1_545 S
C1844 C1839 1.363 . S
C1844 C1843 1.415 . S
C1845 H1821 0.951 . S
C1845 C1846 1.366 . S
C1845 C1847 1.388 . S
C1846 C1845 1.366 . S
C1846 C1850 1.385 . S
C1847 H1822 0.951 . S
C1847 C1845 1.388 . S
C1847 C1848 1.366 . S
C1848 C1847 1.366 . S
C1848 C1849 1.414 . S
C1848 C1851 1.499 . S
C1849 H1823 0.950 . S
C1849 C1848 1.414 . S
C1849 C1850 1.374 . S
C1850 H1824 0.950 . S
C1850 C1846 1.385 . S
C1850 C1849 1.374 . S
C1851 C1848 1.499 . S
C1851 C1852 1.373 . S
C1851 C1853 1.389 . S
C1852 H1825 0.950 . S
C1852 C1838 1.377 1_565 S
C1852 C1851 1.373 . S
C1853 C1837 1.377 1_565 S
C1853 C1851 1.389 . S
C1853 C1854 1.524 . S
C1854 C1853 1.524 . S
C1854 C1855 1.397 . S
C1854 C1859 1.363 . S
C1855 H1826 0.950 . S
C1855 C1854 1.397 . S
C1855 C1856 1.334 . S
C1856 H1827 0.950 . S
C1856 C1855 1.334 . S
C1856 C1857 1.287 . S
C1857 C1856 1.287 . S
C1857 C1858 1.524 . S
C1857 H1860 0.999 . S
C1858 H1828 0.950 . S
C1858 C1857 1.524 . S
C1858 C1859 1.415 . S
C1859 H1829 0.950 1_565 S
C1859 C1854 1.363 . S
C1859 C1858 1.415 . S
H1860 C1857 0.999 . S
H1861 C1842 0.913 . S
H1862 C1880 0.951 . S
H1863 C1882 0.951 . S
H1864 C1884 0.950 . S
H1865 C1885 0.950 . S
H1866 C1887 0.950 . S
H1867 C1890 0.950 . S
H1868 C1891 0.950 . S
H1869 C1893 0.950 . S
H1870 C1894 0.950 . S
H1871 C1895 0.951 . S
H1872 C1897 0.951 . S
H1873 C1899 0.950 . S
H1874 C1900 0.950 . S
H1875 C1902 0.950 . S
H1876 C1905 0.950 . S
H1877 C1906 0.950 . S
H1878 C1908 0.950 . S
H1879 C1909 0.950 . S
C1880 H1862 0.951 . S
C1880 C1881 1.366 . S
C1880 C1882 1.388 . S
C1881 C1880 1.366 . S
C1881 C1885 1.385 . S
C1882 H1863 0.951 . S
C1882 C1880 1.388 . S
C1882 C1883 1.366 . S
C1883 C1882 1.366 . S
C1883 C1884 1.414 . S
C1883 C1886 1.499 . S
C1884 H1864 0.950 . S
C1884 C1883 1.414 . S
C1884 C1885 1.374 . S
C1885 H1865 0.950 . S
C1885 C1881 1.385 . S
C1885 C1884 1.374 . S
C1886 C1883 1.499 . S
C1886 C1887 1.373 . S
C1886 C1888 1.389 . S
C1887 H1866 0.950 . S
C1887 C1886 1.373 . S
C1887 C1903 1.377 . S
C1888 C1886 1.389 . S
C1888 C1889 1.524 . S
C1888 C1902 1.377 . S
C1889 C1888 1.524 . S
C1889 C1890 1.397 . S
C1889 C1894 1.363 . S
C1890 H1867 0.950 . S
C1890 C1889 1.397 . S
C1890 C1891 1.334 . S
C1891 H1868 0.950 . S
C1891 C1890 1.334 . S
C1891 C1892 1.287 . S
C1892 C1891 1.287 . S
C1892 C1893 1.524 . S
C1892 H1911 0.913 . S
C1893 H1869 0.950 . S
C1893 C1892 1.524 . S
C1893 C1894 1.415 . S
C1894 H1870 0.950 . S
C1894 C1889 1.363 . S
C1894 C1893 1.415 . S
C1895 H1871 0.951 . S
C1895 C1896 1.366 . S
C1895 C1897 1.388 . S
C1896 C1895 1.366 . S
C1896 C1900 1.385 . S
C1897 H1872 0.951 . S
C1897 C1895 1.388 . S
C1897 C1898 1.366 . S
C1898 C1897 1.366 . S
C1898 C1899 1.414 . S
C1898 C1901 1.499 . S
C1899 H1873 0.950 . S
C1899 C1898 1.414 . S
C1899 C1900 1.374 . S
C1900 H1874 0.950 . S
C1900 C1896 1.385 . S
C1900 C1899 1.374 . S
C1901 C1898 1.499 . S
C1901 C1902 1.373 . S
C1901 C1903 1.389 . S
C1902 H1875 0.950 . S
C1902 C1888 1.377 . S
C1902 C1901 1.373 . S
C1903 C1887 1.377 . S
C1903 C1901 1.389 . S
C1903 C1904 1.524 . S
C1904 C1903 1.524 . S
C1904 C1905 1.397 . S
C1904 C1909 1.363 . S
C1905 H1876 0.950 . S
C1905 C1904 1.397 . S
C1905 C1906 1.334 . S
C1906 H1877 0.950 . S
C1906 C1905 1.334 . S
C1906 C1907 1.287 . S
C1907 C1906 1.287 . S
C1907 C1908 1.524 . S
C1907 H1910 0.999 . S
C1908 H1878 0.950 . S
C1908 C1907 1.524 . S
C1908 C1909 1.415 . S
C1909 H1879 0.950 . S
C1909 C1904 1.363 . S
C1909 C1908 1.415 . S
H1910 C1907 0.999 . S
H1911 C1892 0.913 . S
H1912 C1930 0.951 . S
H1913 C1932 0.951 . S
H1914 C1934 0.950 . S
H1915 C1935 0.950 . S
H1916 C1937 0.950 . S
H1917 C1940 0.950 . S
H1918 C1941 0.950 . S
H1919 C1943 0.950 . S
H1920 C1944 0.950 . S
H1921 C1945 0.951 . S
H1922 C1947 0.951 . S
H1923 C1949 0.950 . S
H1924 C1950 0.950 . S
H1925 C1952 0.950 . S
H1926 C1955 0.950 . S
H1927 C1956 0.950 . S
H1928 C1958 0.950 . S
H1929 C1959 0.950 . S
C1930 H1912 0.951 . S
C1930 C1931 1.366 . S
C1930 C1932 1.388 . S
C1931 C1930 1.366 . S
C1931 C1935 1.385 . S
C1932 H1913 0.951 . S
C1932 C1930 1.388 . S
C1932 C1933 1.366 . S
C1933 C1932 1.366 . S
C1933 C1934 1.414 . S
C1933 C1936 1.499 . S
C1934 H1914 0.950 . S
C1934 C1933 1.414 . S
C1934 C1935 1.374 . S
C1935 H1915 0.950 . S
C1935 C1931 1.385 . S
C1935 C1934 1.374 . S
C1936 C1933 1.499 . S
C1936 C1937 1.373 . S
C1936 C1938 1.389 . S
C1937 H1916 0.950 . S
C1937 C1936 1.373 . S
C1937 C1953 1.377 . S
C1938 C1936 1.389 . S
C1938 C1939 1.524 . S
C1938 C1952 1.377 . S
C1939 C1938 1.524 . S
C1939 C1940 1.397 . S
C1939 C1944 1.363 . S
C1940 H1917 0.950 . S
C1940 C1939 1.397 . S
C1940 C1941 1.334 . S
C1941 H1918 0.950 . S
C1941 C1940 1.334 . S
C1941 C1942 1.287 . S
C1942 C1941 1.287 . S
C1942 C1943 1.524 . S
C1942 H1961 0.913 . S
C1943 H1919 0.950 . S
C1943 C1942 1.524 . S
C1943 C1944 1.415 . S
C1944 H1920 0.950 . S
C1944 C1939 1.363 . S
C1944 C1943 1.415 . S
C1945 H1921 0.951 . S
C1945 C1946 1.366 . S
C1945 C1947 1.388 . S
C1946 C1945 1.366 . S
C1946 C1950 1.385 . S
C1947 H1922 0.951 . S
C1947 C1945 1.388 . S
C1947 C1948 1.366 . S
C1948 C1947 1.366 . S
C1948 C1949 1.414 . S
C1948 C1951 1.499 . S
C1949 H1923 0.950 . S
C1949 C1948 1.414 . S
C1949 C1950 1.374 . S
C1950 H1924 0.950 . S
C1950 C1946 1.385 . S
C1950 C1949 1.374 . S
C1951 C1948 1.499 . S
C1951 C1952 1.373 . S
C1951 C1953 1.389 . S
C1952 H1925 0.950 . S
C1952 C1938 1.377 . S
C1952 C1951 1.373 . S
C1953 C1937 1.377 . S
C1953 C1951 1.389 . S
C1953 C1954 1.524 . S
C1954 C1953 1.524 . S
C1954 C1955 1.397 . S
C1954 C1959 1.363 . S
C1955 H1926 0.950 . S
C1955 C1954 1.397 . S
C1955 C1956 1.334 . S
C1956 H1927 0.950 . S
C1956 C1955 1.334 . S
C1956 C1957 1.287 . S
C1957 C1956 1.287 . S
C1957 C1958 1.524 . S
C1957 H1960 0.999 . S
C1958 H1928 0.950 . S
C1958 C1957 1.524 . S
C1958 C1959 1.415 . S
C1959 H1929 0.950 . S
C1959 C1954 1.363 . S
C1959 C1958 1.415 . S
H1960 C1957 0.999 . S
H1961 C1942 0.913 . S
H1962 C1980 0.951 . S
H1963 C1982 0.951 . S
H1964 C1984 0.950 . S
H1965 C1985 0.950 . S
H1966 C1987 0.950 . S
H1967 C1990 0.950 . S
H1968 C1991 0.950 . S
H1969 C1993 0.950 . S
H1970 C1994 0.950 . S
H1971 C1995 0.951 . S
H1972 C1997 0.951 . S
H1973 C1999 0.950 . S
H1974 C2000 0.950 . S
H1975 C2002 0.950 . S
H1976 C2005 0.950 . S
H1977 C2006 0.950 . S
H1978 C2008 0.950 . S
H1979 C2009 0.950 . S
C1980 H1962 0.951 . S
C1980 C1981 1.366 . S
C1980 C1982 1.388 . S
C1981 C1980 1.366 . S
C1981 C1985 1.385 . S
C1982 H1963 0.951 . S
C1982 C1980 1.388 . S
C1982 C1983 1.366 . S
C1983 C1982 1.366 . S
C1983 C1984 1.414 . S
C1983 C1986 1.499 . S
C1984 H1964 0.950 . S
C1984 C1983 1.414 . S
C1984 C1985 1.374 . S
C1985 H1965 0.950 . S
C1985 C1981 1.385 . S
C1985 C1984 1.374 . S
C1986 C1983 1.499 . S
C1986 C1987 1.373 . S
C1986 C1988 1.389 . S
C1987 H1966 0.950 . S
C1987 C1986 1.373 . S
C1987 C2003 1.377 . S
C1988 C1986 1.389 . S
C1988 C1989 1.524 . S
C1988 C2002 1.377 . S
C1989 C1988 1.524 . S
C1989 C1990 1.397 . S
C1989 C1994 1.363 . S
C1990 H1967 0.950 . S
C1990 C1989 1.397 . S
C1990 C1991 1.334 . S
C1991 H1968 0.950 . S
C1991 C1990 1.334 . S
C1991 C1992 1.287 . S
C1992 C1991 1.287 . S
C1992 C1993 1.524 . S
C1992 H2011 0.913 . S
C1993 H1969 0.950 . S
C1993 C1992 1.524 . S
C1993 C1994 1.415 . S
C1994 H1970 0.950 . S
C1994 C1989 1.363 . S
C1994 C1993 1.415 . S
C1995 H1971 0.951 . S
C1995 C1996 1.366 . S
C1995 C1997 1.388 . S
C1996 C1995 1.366 . S
C1996 C2000 1.385 . S
C1997 H1972 0.951 . S
C1997 C1995 1.388 . S
C1997 C1998 1.366 . S
C1998 C1997 1.366 . S
C1998 C1999 1.414 . S
C1998 C2001 1.499 . S
C1999 H1973 0.950 . S
C1999 C1998 1.414 . S
C1999 C2000 1.374 . S
C2000 H1974 0.950 . S
C2000 C1996 1.385 . S
C2000 C1999 1.374 . S
C2001 C1998 1.499 . S
C2001 C2002 1.373 . S
C2001 C2003 1.389 . S
C2002 H1975 0.950 . S
C2002 C1988 1.377 . S
C2002 C2001 1.373 . S
C2003 C1987 1.377 . S
C2003 C2001 1.389 . S
C2003 C2004 1.524 . S
C2004 C2003 1.524 . S
C2004 C2005 1.397 . S
C2004 C2009 1.363 . S
C2005 H1976 0.950 . S
C2005 C2004 1.397 . S
C2005 C2006 1.334 . S
C2006 H1977 0.950 . S
C2006 C2005 1.334 . S
C2006 C2007 1.287 . S
C2007 C2006 1.287 . S
C2007 C2008 1.524 . S
C2007 H2010 0.999 . S
C2008 H1978 0.950 . S
C2008 C2007 1.524 . S
C2008 C2009 1.415 . S
C2009 H1979 0.950 . S
C2009 C2004 1.363 . S
C2009 C2008 1.415 . S
H2010 C2007 0.999 . S
H2011 C1992 0.913 . S
H2012 C2030 0.951 . S
H2013 C2032 0.951 . S
H2014 C2034 0.950 . S
H2015 C2035 0.950 . S
H2016 C2037 0.950 . S
H2017 C2040 0.950 . S
H2018 C2041 0.950 . S
H2019 C2043 0.950 . S
H2020 C2044 0.950 . S
H2021 C2045 0.951 . S
H2022 C2047 0.951 . S
H2023 C2049 0.950 . S
H2024 C2050 0.950 . S
H2025 C2052 0.950 . S
H2026 C2055 0.950 . S
H2027 C2056 0.950 . S
H2028 C2058 0.950 . S
H2029 C2059 0.950 . S
C2030 H2012 0.951 . S
C2030 C2031 1.366 . S
C2030 C2032 1.388 . S
C2031 C2030 1.366 . S
C2031 C2035 1.385 . S
C2032 H2013 0.951 . S
C2032 C2030 1.388 . S
C2032 C2033 1.366 . S
C2033 C2032 1.366 . S
C2033 C2034 1.414 . S
C2033 C2036 1.499 . S
C2034 H2014 0.950 . S
C2034 C2033 1.414 . S
C2034 C2035 1.374 . S
C2035 H2015 0.950 . S
C2035 C2031 1.385 . S
C2035 C2034 1.374 . S
C2036 C2033 1.499 . S
C2036 C2037 1.373 . S
C2036 C2038 1.389 . S
C2037 H2016 0.950 . S
C2037 C2036 1.373 . S
C2037 C2053 1.377 . S
C2038 C2036 1.389 . S
C2038 C2039 1.524 . S
C2038 C2052 1.377 . S
C2039 C2038 1.524 . S
C2039 C2040 1.397 . S
C2039 C2044 1.363 . S
C2040 H2017 0.950 . S
C2040 C2039 1.397 . S
C2040 C2041 1.334 . S
C2041 H2018 0.950 . S
C2041 C2040 1.334 . S
C2041 C2042 1.287 . S
C2042 C2041 1.287 . S
C2042 C2043 1.524 . S
C2042 H2061 0.913 . S
C2043 H2019 0.950 . S
C2043 C2042 1.524 . S
C2043 C2044 1.415 . S
C2044 H2020 0.950 . S
C2044 C2039 1.363 . S
C2044 C2043 1.415 . S
C2045 H2021 0.951 . S
C2045 C2046 1.366 . S
C2045 C2047 1.388 . S
C2046 C2045 1.366 . S
C2046 C2050 1.385 . S
C2047 H2022 0.951 . S
C2047 C2045 1.388 . S
C2047 C2048 1.366 . S
C2048 C2047 1.366 . S
C2048 C2049 1.414 . S
C2048 C2051 1.499 . S
C2049 H2023 0.950 . S
C2049 C2048 1.414 . S
C2049 C2050 1.374 . S
C2050 H2024 0.950 . S
C2050 C2046 1.385 . S
C2050 C2049 1.374 . S
C2051 C2048 1.499 . S
C2051 C2052 1.373 . S
C2051 C2053 1.389 . S
C2052 H2025 0.950 . S
C2052 C2038 1.377 . S
C2052 C2051 1.373 . S
C2053 C2037 1.377 . S
C2053 C2051 1.389 . S
C2053 C2054 1.524 . S
C2054 C2053 1.524 . S
C2054 C2055 1.397 . S
C2054 C2059 1.363 . S
C2055 H2026 0.950 . S
C2055 C2054 1.397 . S
C2055 C2056 1.334 . S
C2056 H2027 0.950 . S
C2056 C2055 1.334 . S
C2056 C2057 1.287 . S
C2057 C2056 1.287 . S
C2057 C2058 1.524 . S
C2057 H2060 0.999 . S
C2058 H2028 0.950 . S
C2058 C2057 1.524 . S
C2058 C2059 1.415 . S
C2059 H2029 0.950 . S
C2059 C2054 1.363 . S
C2059 C2058 1.415 . S
H2060 C2057 0.999 . S
H2061 C2042 0.913 . S
H2062 C2080 0.951 . S
H2063 C2082 0.951 . S
H2064 C2084 1.007 . S
H2065 C2085 0.990 . S
H2066 C2087 0.950 . S
H2067 C2090 0.950 . S
H2068 C2091 0.950 . S
H2069 C2093 0.950 . S
H2070 C2094 0.950 . S
H2071 C2095 0.961 . S
H2072 C2097 0.950 . S
H2073 C2099 0.950 . S
H2074 C2100 0.950 . S
H2075 C2102 0.950 . S
H2076 C2105 0.950 . S
H2077 C2106 0.950 . S
H2078 C2108 0.950 . S
H2079 C2109 0.950 . S
C2080 H2062 0.951 . S
C2080 C2081 1.366 . S
C2080 C2082 1.388 . S
C2081 C2080 1.366 . S
C2081 C2085 1.345 1_455 S
C2082 H2063 0.951 . S
C2082 C2080 1.388 . S
C2082 C2083 1.366 . S
C2083 C2082 1.366 . S
C2083 C2084 1.360 1_455 S
C2083 C2086 1.499 . S
C2084 H2064 1.007 . S
C2084 C2083 1.360 1_655 S
C2084 C2085 1.374 . S
C2085 H2065 0.990 . S
C2085 C2081 1.345 1_655 S
C2085 C2084 1.374 . S
C2086 C2083 1.499 . S
C2086 C2087 1.373 1_556 S
C2086 C2088 1.389 . S
C2087 H2066 0.950 . S
C2087 C2086 1.373 1_554 S
C2087 C2103 1.377 . S
C2088 C2086 1.389 . S
C2088 C2089 1.524 . S
C2088 C2102 1.377 . S
C2089 C2088 1.524 . S
C2089 C2090 1.397 . S
C2089 C2094 1.363 . S
C2090 H2067 0.950 . S
C2090 C2089 1.397 . S
C2090 C2091 1.334 . S
C2091 H2068 0.950 . S
C2091 C2090 1.334 . S
C2091 C2092 1.287 . S
C2092 C2091 1.287 . S
C2092 C2093 1.524 . S
C2092 H2111 0.913 . S
C2093 H2069 0.950 . S
C2093 C2092 1.524 . S
C2093 C2094 1.415 . S
C2094 H2070 0.950 . S
C2094 C2089 1.363 . S
C2094 C2093 1.415 . S
C2095 H2071 0.961 . S
C2095 C2096 1.356 1_655 S
C2095 C2097 1.388 . S
C2096 C2095 1.356 1_455 S
C2096 C2100 1.385 . S
C2097 H2072 0.950 . S
C2097 C2095 1.388 . S
C2097 C2098 1.366 1_655 S
C2098 C2097 1.366 1_455 S
C2098 C2099 1.414 . S
C2098 C2101 1.499 . S
C2099 H2073 0.950 . S
C2099 C2098 1.414 . S
C2099 C2100 1.374 . S
C2100 H2074 0.950 . S
C2100 C2096 1.385 . S
C2100 C2099 1.374 . S
C2101 C2098 1.499 . S
C2101 C2102 1.373 1_554 S
C2101 C2103 1.389 . S
C2102 H2075 0.950 . S
C2102 C2088 1.377 . S
C2102 C2101 1.373 1_556 S
C2103 C2087 1.377 . S
C2103 C2101 1.389 . S
C2103 C2104 1.524 . S
C2104 C2103 1.524 . S
C2104 C2105 1.397 . S
C2104 C2109 1.363 1_455 S
C2105 H2076 0.950 . S
C2105 C2104 1.397 . S
C2105 C2106 1.334 . S
C2106 H2077 0.950 . S
C2106 C2105 1.334 . S
C2106 C2107 1.287 1_455 S
C2107 C2106 1.287 1_655 S
C2107 C2108 1.524 . S
C2107 H2110 0.999 . S
C2108 H2078 0.950 . S
C2108 C2107 1.524 . S
C2108 C2109 1.415 . S
C2109 H2079 0.950 . S
C2109 C2104 1.363 1_655 S
C2109 C2108 1.415 . S
H2110 C2107 0.999 . S
H2111 C2092 0.913 . S
H2112 C2130 0.951 . S
H2113 C2132 0.951 . S
H2114 C2134 0.950 . S
H2115 C2135 0.950 . S
H2116 C2137 0.950 . S
H2117 C2140 0.950 . S
H2118 C2141 0.950 . S
H2119 C2143 0.950 . S
H2120 C2144 0.950 . S
H2121 C2145 0.951 . S
H2122 C2147 0.951 . S
H2123 C2149 0.950 . S
H2124 C2150 0.950 . S
H2125 C2152 0.950 . S
H2126 C2155 0.950 . S
H2127 C2156 0.950 . S
H2128 C2158 0.950 . S
H2129 C2159 0.950 . S
C2130 H2112 0.951 . S
C2130 C2131 1.366 . S
C2130 C2132 1.388 . S
C2131 C2130 1.366 . S
C2131 C2135 1.385 . S
C2132 H2113 0.951 . S
C2132 C2130 1.388 . S
C2132 C2133 1.366 . S
C2133 C2132 1.366 . S
C2133 C2134 1.414 . S
C2133 C2136 1.499 . S
C2134 H2114 0.950 . S
C2134 C2133 1.414 . S
C2134 C2135 1.374 . S
C2135 H2115 0.950 . S
C2135 C2131 1.385 . S
C2135 C2134 1.374 . S
C2136 C2133 1.499 . S
C2136 C2137 1.373 . S
C2136 C2138 1.389 . S
C2137 H2116 0.950 . S
C2137 C2136 1.373 . S
C2137 C2153 1.377 . S
C2138 C2136 1.389 . S
C2138 C2139 1.524 . S
C2138 C2152 1.377 . S
C2139 C2138 1.524 . S
C2139 C2140 1.397 . S
C2139 C2144 1.363 . S
C2140 H2117 0.950 . S
C2140 C2139 1.397 . S
C2140 C2141 1.334 . S
C2141 H2118 0.950 . S
C2141 C2140 1.334 . S
C2141 C2142 1.287 . S
C2142 C2141 1.287 . S
C2142 C2143 1.524 . S
C2142 H2161 0.913 . S
C2143 H2119 0.950 . S
C2143 C2142 1.524 . S
C2143 C2144 1.415 . S
C2144 H2120 0.950 . S
C2144 C2139 1.363 . S
C2144 C2143 1.415 . S
C2145 H2121 0.951 . S
C2145 C2146 1.366 . S
C2145 C2147 1.388 . S
C2146 C2145 1.366 . S
C2146 C2150 1.385 . S
C2147 H2122 0.951 . S
C2147 C2145 1.388 . S
C2147 C2148 1.366 . S
C2148 C2147 1.366 . S
C2148 C2149 1.414 . S
C2148 C2151 1.499 . S
C2149 H2123 0.950 . S
C2149 C2148 1.414 . S
C2149 C2150 1.374 . S
C2150 H2124 0.950 . S
C2150 C2146 1.385 . S
C2150 C2149 1.374 . S
C2151 C2148 1.499 . S
C2151 C2152 1.373 . S
C2151 C2153 1.389 . S
C2152 H2125 0.950 . S
C2152 C2138 1.377 . S
C2152 C2151 1.373 . S
C2153 C2137 1.377 . S
C2153 C2151 1.389 . S
C2153 C2154 1.524 . S
C2154 C2153 1.524 . S
C2154 C2155 1.397 . S
C2154 C2159 1.363 . S
C2155 H2126 0.950 . S
C2155 C2154 1.397 . S
C2155 C2156 1.334 . S
C2156 H2127 0.950 . S
C2156 C2155 1.334 . S
C2156 C2157 1.287 . S
C2157 C2156 1.287 . S
C2157 C2158 1.524 . S
C2157 H2160 0.999 . S
C2158 H2128 0.950 . S
C2158 C2157 1.524 . S
C2158 C2159 1.415 . S
C2159 H2129 0.950 . S
C2159 C2154 1.363 . S
C2159 C2158 1.415 . S
H2160 C2157 0.999 . S
H2161 C2142 0.913 . S
H2162 C2180 0.951 . S
H2163 C2182 0.951 . S
H2164 C2184 0.950 . S
H2165 C2185 0.950 . S
H2166 C2187 0.950 . S
H2167 C2190 0.950 . S
H2168 C2191 0.950 . S
H2169 C2193 0.950 . S
H2170 C2194 0.950 . S
H2171 C2195 0.951 . S
H2172 C2197 0.951 . S
H2173 C2199 0.950 . S
H2174 C2200 0.950 . S
H2175 C2202 0.950 . S
H2176 C2205 0.950 . S
H2177 C2206 0.950 . S
H2178 C2208 0.950 . S
H2179 C2209 0.950 . S
C2180 H2162 0.951 . S
C2180 C2181 1.366 . S
C2180 C2182 1.388 . S
C2181 C2180 1.366 . S
C2181 C2185 1.385 . S
C2182 H2163 0.951 . S
C2182 C2180 1.388 . S
C2182 C2183 1.366 . S
C2183 C2182 1.366 . S
C2183 C2184 1.414 . S
C2183 C2186 1.499 . S
C2184 H2164 0.950 . S
C2184 C2183 1.414 . S
C2184 C2185 1.374 . S
C2185 H2165 0.950 . S
C2185 C2181 1.385 . S
C2185 C2184 1.374 . S
C2186 C2183 1.499 . S
C2186 C2187 1.373 . S
C2186 C2188 1.389 . S
C2187 H2166 0.950 . S
C2187 C2186 1.373 . S
C2187 C2203 1.377 . S
C2188 C2186 1.389 . S
C2188 C2189 1.524 . S
C2188 C2202 1.377 . S
C2189 C2188 1.524 . S
C2189 C2190 1.397 . S
C2189 C2194 1.363 . S
C2190 H2167 0.950 . S
C2190 C2189 1.397 . S
C2190 C2191 1.334 . S
C2191 H2168 0.950 . S
C2191 C2190 1.334 . S
C2191 C2192 1.287 . S
C2192 C2191 1.287 . S
C2192 C2193 1.524 . S
C2192 H2211 0.913 . S
C2193 H2169 0.950 . S
C2193 C2192 1.524 . S
C2193 C2194 1.415 . S
C2194 H2170 0.950 . S
C2194 C2189 1.363 . S
C2194 C2193 1.415 . S
C2195 H2171 0.951 . S
C2195 C2196 1.366 . S
C2195 C2197 1.388 . S
C2196 C2195 1.366 . S
C2196 C2200 1.385 . S
C2197 H2172 0.951 . S
C2197 C2195 1.388 . S
C2197 C2198 1.366 . S
C2198 C2197 1.366 . S
C2198 C2199 1.414 . S
C2198 C2201 1.499 . S
C2199 H2173 0.950 . S
C2199 C2198 1.414 . S
C2199 C2200 1.374 . S
C2200 H2174 0.950 . S
C2200 C2196 1.385 . S
C2200 C2199 1.374 . S
C2201 C2198 1.499 . S
C2201 C2202 1.373 . S
C2201 C2203 1.389 . S
C2202 H2175 0.950 . S
C2202 C2188 1.377 . S
C2202 C2201 1.373 . S
C2203 C2187 1.377 . S
C2203 C2201 1.389 . S
C2203 C2204 1.524 . S
C2204 C2203 1.524 . S
C2204 C2205 1.397 . S
C2204 C2209 1.363 . S
C2205 H2176 0.950 . S
C2205 C2204 1.397 . S
C2205 C2206 1.334 . S
C2206 H2177 0.950 . S
C2206 C2205 1.334 . S
C2206 C2207 1.287 . S
C2207 C2206 1.287 . S
C2207 C2208 1.524 . S
C2207 H2210 0.999 . S
C2208 H2178 0.950 . S
C2208 C2207 1.524 . S
C2208 C2209 1.415 . S
C2209 H2179 0.950 . S
C2209 C2204 1.363 . S
C2209 C2208 1.415 . S
H2210 C2207 0.999 . S
H2211 C2192 0.913 . S
H2212 C2230 0.951 . S
H2213 C2232 0.951 . S
H2214 C2234 0.950 . S
H2215 C2235 0.950 . S
H2216 C2237 0.950 . S
H2217 C2240 0.950 . S
H2218 C2241 0.950 . S
H2219 C2243 0.950 . S
H2220 C2244 0.950 . S
H2221 C2245 0.951 . S
H2222 C2247 0.951 . S
H2223 C2249 0.950 . S
H2224 C2250 0.950 . S
H2225 C2252 0.950 . S
H2226 C2255 0.950 . S
H2227 C2256 0.950 . S
H2228 C2258 0.950 . S
H2229 C2259 0.950 . S
C2230 H2212 0.951 . S
C2230 C2231 1.366 1_556 S
C2230 C2232 1.388 . S
C2231 C2230 1.366 1_554 S
C2231 C2235 1.385 . S
C2232 H2213 0.951 . S
C2232 C2230 1.388 . S
C2232 C2233 1.366 . S
C2233 C2232 1.366 . S
C2233 C2234 1.414 . S
C2233 C2236 1.499 . S
C2234 H2214 0.950 . S
C2234 C2233 1.414 . S
C2234 C2235 1.374 1_556 S
C2235 H2215 0.950 . S
C2235 C2231 1.385 . S
C2235 C2234 1.374 1_554 S
C2236 C2233 1.499 . S
C2236 C2237 1.373 . S
C2236 C2238 1.389 . S
C2237 H2216 0.950 . S
C2237 C2236 1.373 . S
C2237 C2253 1.377 . S
C2238 C2236 1.389 . S
C2238 C2239 1.524 . S
C2238 C2252 1.377 . S
C2239 C2238 1.524 . S
C2239 C2240 1.397 . S
C2239 C2244 1.363 . S
C2240 H2217 0.950 . S
C2240 C2239 1.397 . S
C2240 C2241 1.334 . S
C2241 H2218 0.950 . S
C2241 C2240 1.334 . S
C2241 C2242 1.287 . S
C2242 C2241 1.287 . S
C2242 C2243 1.524 . S
C2242 H2261 0.913 . S
C2243 H2219 0.950 . S
C2243 C2242 1.524 . S
C2243 C2244 1.415 . S
C2244 H2220 0.950 . S
C2244 C2239 1.363 . S
C2244 C2243 1.415 . S
C2245 H2221 0.951 . S
C2245 C2246 1.366 . S
C2245 C2247 1.388 . S
C2246 C2245 1.366 . S
C2246 C2250 1.385 . S
C2247 H2222 0.951 . S
C2247 C2245 1.388 . S
C2247 C2248 1.366 . S
C2248 C2247 1.366 . S
C2248 C2249 1.414 . S
C2248 C2251 1.499 . S
C2249 H2223 0.950 . S
C2249 C2248 1.414 . S
C2249 C2250 1.374 . S
C2250 H2224 0.950 . S
C2250 C2246 1.385 . S
C2250 C2249 1.374 . S
C2251 C2248 1.499 . S
C2251 C2252 1.373 . S
C2251 C2253 1.389 . S
C2252 H2225 0.950 . S
C2252 C2238 1.377 . S
C2252 C2251 1.373 . S
C2253 C2237 1.377 . S
C2253 C2251 1.389 . S
C2253 C2254 1.524 . S
C2254 C2253 1.524 . S
C2254 C2255 1.397 . S
C2254 C2259 1.363 . S
C2255 H2226 0.950 . S
C2255 C2254 1.397 . S
C2255 C2256 1.334 . S
C2256 H2227 0.950 . S
C2256 C2255 1.334 . S
C2256 C2257 1.287 . S
C2257 C2256 1.287 . S
C2257 C2258 1.524 . S
C2257 H2260 0.999 . S
C2258 H2228 0.950 . S
C2258 C2257 1.524 . S
C2258 C2259 1.415 . S
C2259 H2229 0.950 . S
C2259 C2254 1.363 . S
C2259 C2258 1.415 . S
H2260 C2257 0.999 . S
H2261 C2242 0.913 . S
H2262 C2280 0.951 . S
H2263 C2282 0.951 . S
H2264 C2284 0.950 . S
H2265 C2285 0.950 . S
H2266 C2287 0.950 . S
H2267 C2290 0.950 . S
H2268 C2291 0.950 . S
H2269 C2293 0.950 . S
H2270 C2294 0.950 . S
H2271 C2295 0.951 . S
H2272 C2297 0.951 . S
H2273 C2299 0.950 . S
H2274 C2300 0.950 . S
H2275 C2302 0.950 . S
H2276 C2305 0.950 . S
H2277 C2306 0.950 . S
H2278 C2308 0.950 . S
H2279 C2309 0.950 . S
C2280 H2262 0.951 . S
C2280 C2281 1.366 . S
C2280 C2282 1.388 . S
C2281 C2280 1.366 . S
C2281 C2285 1.385 . S
C2282 H2263 0.951 . S
C2282 C2280 1.388 . S
C2282 C2283 1.366 . S
C2283 C2282 1.366 . S
C2283 C2284 1.414 . S
C2283 C2286 1.499 . S
C2284 H2264 0.950 . S
C2284 C2283 1.414 . S
C2284 C2285 1.374 . S
C2285 H2265 0.950 . S
C2285 C2281 1.385 . S
C2285 C2284 1.374 . S
C2286 C2283 1.499 . S
C2286 C2287 1.373 . S
C2286 C2288 1.389 . S
C2287 H2266 0.950 . S
C2287 C2286 1.373 . S
C2287 C2303 1.377 . S
C2288 C2286 1.389 . S
C2288 C2289 1.524 . S
C2288 C2302 1.377 . S
C2289 C2288 1.524 . S
C2289 C2290 1.397 . S
C2289 C2294 1.363 . S
C2290 H2267 0.950 . S
C2290 C2289 1.397 . S
C2290 C2291 1.334 . S
C2291 H2268 0.950 . S
C2291 C2290 1.334 . S
C2291 C2292 1.287 . S
C2292 C2291 1.287 . S
C2292 C2293 1.524 . S
C2292 H2311 0.913 . S
C2293 H2269 0.950 . S
C2293 C2292 1.524 . S
C2293 C2294 1.415 . S
C2294 H2270 0.950 . S
C2294 C2289 1.363 . S
C2294 C2293 1.415 . S
C2295 H2271 0.951 . S
C2295 C2296 1.366 . S
C2295 C2297 1.388 1_556 S
C2296 C2295 1.366 . S
C2296 C2300 1.385 1_556 S
C2297 H2272 0.951 . S
C2297 C2295 1.388 1_554 S
C2297 C2298 1.366 . S
C2298 C2297 1.366 . S
C2298 C2299 1.414 . S
C2298 C2301 1.499 . S
C2299 H2273 0.950 . S
C2299 C2298 1.414 . S
C2299 C2300 1.374 . S
C2300 H2274 0.950 . S
C2300 C2296 1.385 1_554 S
C2300 C2299 1.374 . S
C2301 C2298 1.499 . S
C2301 C2302 1.373 . S
C2301 C2303 1.389 . S
C2302 H2275 0.950 . S
C2302 C2288 1.377 . S
C2302 C2301 1.373 . S
C2303 C2287 1.377 . S
C2303 C2301 1.389 . S
C2303 C2304 1.524 . S
C2304 C2303 1.524 . S
C2304 C2305 1.397 . S
C2304 C2309 1.363 . S
C2305 H2276 0.950 . S
C2305 C2304 1.397 . S
C2305 C2306 1.334 . S
C2306 H2277 0.950 . S
C2306 C2305 1.334 . S
C2306 C2307 1.287 . S
C2307 C2306 1.287 . S
C2307 C2308 1.524 . S
C2307 H2310 0.999 . S
C2308 H2278 0.950 . S
C2308 C2307 1.524 . S
C2308 C2309 1.415 . S
C2309 H2279 0.950 . S
C2309 C2304 1.363 . S
C2309 C2308 1.415 . S
H2310 C2307 0.999 . S
H2311 C2292 0.913 . S
H2312 C2330 0.951 . S
H2313 C2332 0.951 . S
H2314 C2334 0.950 . S
H2315 C2335 0.950 . S
H2316 C2337 0.950 . S
H2317 C2340 0.950 . S
H2318 C2341 0.950 . S
H2319 C2343 0.950 . S
H2320 C2344 0.950 . S
H2321 C2345 0.951 1_455 S
H2322 C2347 0.951 . S
H2323 C2349 0.950 . S
H2324 C2350 0.950 . S
H2325 C2352 0.950 . S
H2326 C2355 0.950 . S
H2327 C2356 0.950 . S
H2328 C2358 0.950 . S
H2329 C2359 0.950 . S
C2330 H2312 0.951 . S
C2330 C2331 1.366 . S
C2330 C2332 1.388 . S
C2331 C2330 1.366 . S
C2331 C2335 1.385 . S
C2332 H2313 0.951 . S
C2332 C2330 1.388 . S
C2332 C2333 1.366 . S
C2333 C2332 1.366 . S
C2333 C2334 1.414 . S
C2333 C2336 1.499 . S
C2334 H2314 0.950 . S
C2334 C2333 1.414 . S
C2334 C2335 1.374 . S
C2335 H2315 0.950 . S
C2335 C2331 1.385 . S
C2335 C2334 1.374 . S
C2336 C2333 1.499 . S
C2336 C2337 1.373 . S
C2336 C2338 1.389 . S
C2337 H2316 0.950 . S
C2337 C2336 1.373 . S
C2337 C2353 1.377 . S
C2338 C2336 1.389 . S
C2338 C2339 1.524 . S
C2338 C2352 1.377 . S
C2339 C2338 1.524 . S
C2339 C2340 1.397 . S
C2339 C2344 1.363 . S
C2340 H2317 0.950 . S
C2340 C2339 1.397 . S
C2340 C2341 1.334 . S
C2341 H2318 0.950 . S
C2341 C2340 1.334 . S
C2341 C2342 1.287 . S
C2342 C2341 1.287 . S
C2342 C2343 1.524 . S
C2342 H2361 0.913 . S
C2343 H2319 0.950 . S
C2343 C2342 1.524 . S
C2343 C2344 1.415 . S
C2344 H2320 0.950 . S
C2344 C2339 1.363 . S
C2344 C2343 1.415 . S
C2345 H2321 0.951 1_655 S
C2345 C2346 1.366 . S
C2345 C2347 1.388 . S
C2346 C2345 1.366 . S
C2346 C2350 1.385 . S
C2347 H2322 0.951 . S
C2347 C2345 1.388 . S
C2347 C2348 1.366 . S
C2348 C2347 1.366 . S
C2348 C2349 1.414 . S
C2348 C2351 1.499 . S
C2349 H2323 0.950 . S
C2349 C2348 1.414 . S
C2349 C2350 1.374 . S
C2350 H2324 0.950 . S
C2350 C2346 1.385 . S
C2350 C2349 1.374 . S
C2351 C2348 1.499 . S
C2351 C2352 1.373 . S
C2351 C2353 1.389 . S
C2352 H2325 0.950 . S
C2352 C2338 1.377 . S
C2352 C2351 1.373 . S
C2353 C2337 1.377 . S
C2353 C2351 1.389 . S
C2353 C2354 1.524 . S
C2354 C2353 1.524 . S
C2354 C2355 1.397 . S
C2354 C2359 1.363 . S
C2355 H2326 0.950 . S
C2355 C2354 1.397 . S
C2355 C2356 1.334 . S
C2356 H2327 0.950 . S
C2356 C2355 1.334 . S
C2356 C2357 1.287 1_655 S
C2357 C2356 1.287 1_455 S
C2357 C2358 1.524 . S
C2357 H2360 0.999 . S
C2358 H2328 0.950 . S
C2358 C2357 1.524 . S
C2358 C2359 1.415 1_455 S
C2359 H2329 0.950 . S
C2359 C2354 1.363 . S
C2359 C2358 1.415 1_655 S
H2360 C2357 0.999 . S
H2361 C2342 0.913 . S
H2362 C2380 0.951 . S
H2363 C2382 0.951 . S
H2364 C2384 0.950 . S
H2365 C2385 0.950 . S
H2366 C2387 0.950 . S
H2367 C2390 0.950 . S
H2368 C2391 0.950 . S
H2369 C2393 0.950 . S
H2370 C2394 0.950 . S
H2371 C2395 0.951 . S
H2372 C2397 0.951 . S
H2373 C2399 0.950 . S
H2374 C2400 0.950 . S
H2375 C2402 0.950 . S
H2376 C2405 0.950 . S
H2377 C2406 0.950 . S
H2378 C2408 0.950 . S
H2379 C2409 0.950 . S
C2380 H2362 0.951 . S
C2380 C2381 1.366 . S
C2380 C2382 1.388 . S
C2381 C2380 1.366 . S
C2381 C2385 1.385 . S
C2382 H2363 0.951 . S
C2382 C2380 1.388 . S
C2382 C2383 1.366 . S
C2383 C2382 1.366 . S
C2383 C2384 1.414 . S
C2383 C2386 1.499 . S
C2384 H2364 0.950 . S
C2384 C2383 1.414 . S
C2384 C2385 1.374 . S
C2385 H2365 0.950 . S
C2385 C2381 1.385 . S
C2385 C2384 1.374 . S
C2386 C2383 1.499 . S
C2386 C2387 1.373 . S
C2386 C2388 1.389 . S
C2387 H2366 0.950 . S
C2387 C2386 1.373 . S
C2387 C2403 1.377 . S
C2388 C2386 1.389 . S
C2388 C2389 1.524 . S
C2388 C2402 1.377 . S
C2389 C2388 1.524 . S
C2389 C2390 1.397 . S
C2389 C2394 1.363 . S
C2390 H2367 0.950 . S
C2390 C2389 1.397 . S
C2390 C2391 1.334 . S
C2391 H2368 0.950 . S
C2391 C2390 1.334 . S
C2391 C2392 1.287 . S
C2392 C2391 1.287 . S
C2392 C2393 1.524 . S
C2392 H2411 0.913 . S
C2393 H2369 0.950 . S
C2393 C2392 1.524 . S
C2393 C2394 1.415 . S
C2394 H2370 0.950 . S
C2394 C2389 1.363 . S
C2394 C2393 1.415 . S
C2395 H2371 0.951 . S
C2395 C2396 1.366 . S
C2395 C2397 1.388 . S
C2396 C2395 1.366 . S
C2396 C2400 1.385 . S
C2397 H2372 0.951 . S
C2397 C2395 1.388 . S
C2397 C2398 1.366 . S
C2398 C2397 1.366 . S
C2398 C2399 1.414 . S
C2398 C2401 1.499 . S
C2399 H2373 0.950 . S
C2399 C2398 1.414 . S
C2399 C2400 1.374 . S
C2400 H2374 0.950 . S
C2400 C2396 1.385 . S
C2400 C2399 1.374 . S
C2401 C2398 1.499 . S
C2401 C2402 1.373 . S
C2401 C2403 1.389 . S
C2402 H2375 0.950 . S
C2402 C2388 1.377 . S
C2402 C2401 1.373 . S
C2403 C2387 1.377 . S
C2403 C2401 1.389 . S
C2403 C2404 1.524 . S
C2404 C2403 1.524 . S
C2404 C2405 1.397 . S
C2404 C2409 1.363 . S
C2405 H2376 0.950 . S
C2405 C2404 1.397 . S
C2405 C2406 1.334 . S
C2406 H2377 0.950 . S
C2406 C2405 1.334 . S
C2406 C2407 1.287 . S
C2407 C2406 1.287 . S
C2407 C2408 1.524 . S
C2407 H2410 0.999 . S
C2408 H2378 0.950 . S
C2408 C2407 1.524 . S
C2408 C2409 1.415 . S
C2409 H2379 0.950 . S
C2409 C2404 1.363 . S
C2409 C2408 1.415 . S
H2410 C2407 0.999 . S
H2411 C2392 0.913 . S
H2412 C2430 0.951 . S
H2413 C2432 0.951 . S
H2414 C2434 0.950 . S
H2415 C2435 0.950 . S
H2416 C2437 0.950 . S
H2417 C2440 0.950 . S
H2418 C2441 0.950 . S
H2419 C2443 0.950 . S
H2420 C2444 0.950 . S
H2421 C2445 0.951 . S
H2422 C2447 0.951 . S
H2423 C2449 0.950 . S
H2424 C2450 0.950 . S
H2425 C2452 0.950 . S
H2426 C2455 0.950 . S
H2427 C2456 0.950 . S
H2428 C2458 0.950 . S
H2429 C2459 0.950 . S
C2430 H2412 0.951 . S
C2430 C2431 1.366 . S
C2430 C2432 1.388 1_556 S
C2431 C2430 1.366 . S
C2431 C2435 1.385 1_556 S
C2432 H2413 0.951 . S
C2432 C2430 1.388 1_554 S
C2432 C2433 1.366 . S
C2433 C2432 1.366 . S
C2433 C2434 1.414 . S
C2433 C2436 1.499 . S
C2434 H2414 0.950 . S
C2434 C2433 1.414 . S
C2434 C2435 1.374 . S
C2435 H2415 0.950 . S
C2435 C2431 1.385 1_554 S
C2435 C2434 1.374 . S
C2436 C2433 1.499 . S
C2436 C2437 1.373 . S
C2436 C2438 1.389 . S
C2437 H2416 0.950 . S
C2437 C2436 1.373 . S
C2437 C2453 1.377 . S
C2438 C2436 1.389 . S
C2438 C2439 1.524 . S
C2438 C2452 1.377 . S
C2439 C2438 1.524 . S
C2439 C2440 1.397 . S
C2439 C2444 1.363 . S
C2440 H2417 0.950 . S
C2440 C2439 1.397 . S
C2440 C2441 1.334 . S
C2441 H2418 0.950 . S
C2441 C2440 1.334 . S
C2441 C2442 1.287 . S
C2442 C2441 1.287 . S
C2442 C2443 1.524 . S
C2442 H2461 0.913 . S
C2443 H2419 0.950 . S
C2443 C2442 1.524 . S
C2443 C2444 1.415 . S
C2444 H2420 0.950 . S
C2444 C2439 1.363 . S
C2444 C2443 1.415 . S
C2445 H2421 0.951 . S
C2445 C2446 1.366 . S
C2445 C2447 1.388 . S
C2446 C2445 1.366 . S
C2446 C2450 1.385 . S
C2447 H2422 0.951 . S
C2447 C2445 1.388 . S
C2447 C2448 1.366 . S
C2448 C2447 1.366 . S
C2448 C2449 1.414 . S
C2448 C2451 1.499 . S
C2449 H2423 0.950 . S
C2449 C2448 1.414 . S
C2449 C2450 1.374 . S
C2450 H2424 0.950 . S
C2450 C2446 1.385 . S
C2450 C2449 1.374 . S
C2451 C2448 1.499 . S
C2451 C2452 1.373 . S
C2451 C2453 1.389 . S
C2452 H2425 0.950 . S
C2452 C2438 1.377 . S
C2452 C2451 1.373 . S
C2453 C2437 1.377 . S
C2453 C2451 1.389 . S
C2453 C2454 1.524 . S
C2454 C2453 1.524 . S
C2454 C2455 1.397 . S
C2454 C2459 1.363 . S
C2455 H2426 0.950 . S
C2455 C2454 1.397 . S
C2455 C2456 1.334 . S
C2456 H2427 0.950 . S
C2456 C2455 1.334 . S
C2456 C2457 1.287 . S
C2457 C2456 1.287 . S
C2457 C2458 1.524 . S
C2457 H2460 0.999 . S
C2458 H2428 0.950 . S
C2458 C2457 1.524 . S
C2458 C2459 1.415 . S
C2459 H2429 0.950 . S
C2459 C2454 1.363 . S
C2459 C2458 1.415 . S
H2460 C2457 0.999 . S
H2461 C2442 0.913 . S
H2462 C2480 0.951 . S
H2463 C2482 0.951 . S
H2464 C2484 0.950 . S
H2465 C2485 0.950 . S
H2466 C2487 0.950 . S
H2467 C2490 0.950 . S
H2468 C2491 0.950 . S
H2469 C2493 0.950 . S
H2470 C2494 0.950 . S
H2471 C2495 0.951 . S
H2472 C2497 0.951 . S
H2473 C2499 0.950 . S
H2474 C2500 0.950 . S
H2475 C2502 0.950 . S
H2476 C2505 0.950 . S
H2477 C2506 0.950 . S
H2478 C2508 0.950 . S
H2479 C2509 0.950 . S
C2480 H2462 0.951 . S
C2480 C2481 1.366 . S
C2480 C2482 1.388 . S
C2481 C2480 1.366 . S
C2481 C2485 1.385 . S
C2482 H2463 0.951 . S
C2482 C2480 1.388 . S
C2482 C2483 1.366 . S
C2483 C2482 1.366 . S
C2483 C2484 1.414 . S
C2483 C2486 1.499 . S
C2484 H2464 0.950 . S
C2484 C2483 1.414 . S
C2484 C2485 1.374 . S
C2485 H2465 0.950 . S
C2485 C2481 1.385 . S
C2485 C2484 1.374 . S
C2486 C2483 1.499 . S
C2486 C2487 1.373 . S
C2486 C2488 1.389 . S
C2487 H2466 0.950 . S
C2487 C2486 1.373 . S
C2487 C2503 1.377 . S
C2488 C2486 1.389 . S
C2488 C2489 1.524 . S
C2488 C2502 1.377 . S
C2489 C2488 1.524 . S
C2489 C2490 1.397 . S
C2489 C2494 1.363 . S
C2490 H2467 0.950 . S
C2490 C2489 1.397 . S
C2490 C2491 1.334 . S
C2491 H2468 0.950 . S
C2491 C2490 1.334 . S
C2491 C2492 1.287 . S
C2492 C2491 1.287 . S
C2492 C2493 1.524 . S
C2492 H2511 0.913 . S
C2493 H2469 0.950 . S
C2493 C2492 1.524 . S
C2493 C2494 1.415 . S
C2494 H2470 0.950 . S
C2494 C2489 1.363 . S
C2494 C2493 1.415 . S
C2495 H2471 0.951 . S
C2495 C2496 1.366 . S
C2495 C2497 1.388 1_554 S
C2496 C2495 1.366 . S
C2496 C2500 1.385 1_554 S
C2497 H2472 0.951 . S
C2497 C2495 1.388 1_556 S
C2497 C2498 1.366 . S
C2498 C2497 1.366 . S
C2498 C2499 1.414 . S
C2498 C2501 1.499 . S
C2499 H2473 0.950 . S
C2499 C2498 1.414 . S
C2499 C2500 1.374 . S
C2500 H2474 0.950 . S
C2500 C2496 1.385 1_556 S
C2500 C2499 1.374 . S
C2501 C2498 1.499 . S
C2501 C2502 1.373 . S
C2501 C2503 1.389 . S
C2502 H2475 0.950 . S
C2502 C2488 1.377 . S
C2502 C2501 1.373 . S
C2503 C2487 1.377 . S
C2503 C2501 1.389 . S
C2503 C2504 1.524 . S
C2504 C2503 1.524 . S
C2504 C2505 1.397 . S
C2504 C2509 1.363 . S
C2505 H2476 0.950 . S
C2505 C2504 1.397 . S
C2505 C2506 1.334 1_556 S
C2506 H2477 0.950 . S
C2506 C2505 1.334 1_554 S
C2506 C2507 1.287 . S
C2507 C2506 1.287 . S
C2507 C2508 1.524 . S
C2507 H2510 0.999 . S
C2508 H2478 0.950 . S
C2508 C2507 1.524 . S
C2508 C2509 1.415 1_554 S
C2509 H2479 0.950 . S
C2509 C2504 1.363 . S
C2509 C2508 1.415 1_556 S
H2510 C2507 0.999 . S
H2511 C2492 0.913 . S
H2512 C2530 0.951 . S
H2513 C2532 0.951 . S
H2514 C2534 0.950 . S
H2515 C2535 0.950 . S
H2516 C2537 0.950 . S
H2517 C2540 0.950 . S
H2518 C2541 0.950 . S
H2519 C2543 0.950 . S
H2520 C2544 0.950 . S
H2521 C2545 0.951 . S
H2522 C2547 0.951 . S
H2523 C2549 0.950 . S
H2524 C2550 0.950 . S
H2525 C2552 0.950 . S
H2526 C2555 0.950 . S
H2527 C2556 0.950 . S
H2528 C2558 0.950 1_554 S
H2529 C2559 0.950 . S
C2530 H2512 0.951 . S
C2530 C2531 1.366 . S
C2530 C2532 1.388 . S
C2531 C2530 1.366 . S
C2531 C2535 1.385 . S
C2532 H2513 0.951 . S
C2532 C2530 1.388 . S
C2532 C2533 1.366 . S
C2533 C2532 1.366 . S
C2533 C2534 1.414 . S
C2533 C2536 1.499 . S
C2534 H2514 0.950 . S
C2534 C2533 1.414 . S
C2534 C2535 1.374 . S
C2535 H2515 0.950 . S
C2535 C2531 1.385 . S
C2535 C2534 1.374 . S
C2536 C2533 1.499 . S
C2536 C2537 1.373 . S
C2536 C2538 1.389 . S
C2537 H2516 0.950 . S
C2537 C2536 1.373 . S
C2537 C2553 1.377 . S
C2538 C2536 1.389 . S
C2538 C2539 1.524 . S
C2538 C2552 1.377 . S
C2539 C2538 1.524 . S
C2539 C2540 1.397 . S
C2539 C2544 1.363 . S
C2540 H2517 0.950 . S
C2540 C2539 1.397 . S
C2540 C2541 1.334 . S
C2541 H2518 0.950 . S
C2541 C2540 1.334 . S
C2541 C2542 1.287 . S
C2542 C2541 1.287 . S
C2542 C2543 1.524 . S
C2542 H2561 0.913 . S
C2543 H2519 0.950 . S
C2543 C2542 1.524 . S
C2543 C2544 1.415 . S
C2544 H2520 0.950 . S
C2544 C2539 1.363 . S
C2544 C2543 1.415 . S
C2545 H2521 0.951 . S
C2545 C2546 1.366 . S
C2545 C2547 1.388 1_554 S
C2546 C2545 1.366 . S
C2546 C2550 1.385 1_554 S
C2547 H2522 0.951 . S
C2547 C2545 1.388 1_556 S
C2547 C2548 1.366 . S
C2548 C2547 1.366 . S
C2548 C2549 1.414 . S
C2548 C2551 1.499 . S
C2549 H2523 0.950 . S
C2549 C2548 1.414 . S
C2549 C2550 1.374 . S
C2550 H2524 0.950 . S
C2550 C2546 1.385 1_556 S
C2550 C2549 1.374 . S
C2551 C2548 1.499 . S
C2551 C2552 1.373 . S
C2551 C2553 1.389 . S
C2552 H2525 0.950 . S
C2552 C2538 1.377 . S
C2552 C2551 1.373 . S
C2553 C2537 1.377 . S
C2553 C2551 1.389 . S
C2553 C2554 1.524 . S
C2554 C2553 1.524 . S
C2554 C2555 1.397 . S
C2554 C2559 1.363 . S
C2555 H2526 0.950 . S
C2555 C2554 1.397 . S
C2555 C2556 1.334 . S
C2556 H2527 0.950 . S
C2556 C2555 1.334 . S
C2556 C2557 1.287 . S
C2557 C2556 1.287 . S
C2557 C2558 1.524 . S
C2557 H2560 0.999 1_556 S
C2558 H2528 0.950 1_556 S
C2558 C2557 1.524 . S
C2558 C2559 1.415 . S
C2559 H2529 0.950 . S
C2559 C2554 1.363 . S
C2559 C2558 1.415 . S
H2560 C2557 0.999 1_554 S
H2561 C2542 0.913 . S
H2562 C2580 0.951 . S
H2563 C2582 0.951 . S
H2564 C2584 0.950 . S
H2565 C2585 0.950 . S
H2566 C2587 0.950 . S
H2567 C2590 0.950 . S
H2568 C2591 0.950 . S
H2569 C2593 0.950 . S
H2570 C2594 0.950 . S
H2571 C2595 0.951 . S
H2572 C2597 0.951 . S
H2573 C2599 0.950 . S
H2574 C2600 0.950 . S
H2575 C2602 0.950 . S
H2576 C2605 0.950 . S
H2577 C2606 0.950 1_556 S
H2578 C2608 0.950 . S
H2579 C2609 0.950 . S
C2580 H2562 0.951 . S
C2580 C2581 1.366 . S
C2580 C2582 1.388 . S
C2581 C2580 1.366 . S
C2581 C2585 1.385 . S
C2582 H2563 0.951 . S
C2582 C2580 1.388 . S
C2582 C2583 1.366 . S
C2583 C2582 1.366 . S
C2583 C2584 1.414 . S
C2583 C2586 1.499 . S
C2584 H2564 0.950 . S
C2584 C2583 1.414 . S
C2584 C2585 1.374 . S
C2585 H2565 0.950 . S
C2585 C2581 1.385 . S
C2585 C2584 1.374 . S
C2586 C2583 1.499 . S
C2586 C2587 1.373 . S
C2586 C2588 1.389 . S
C2587 H2566 0.950 . S
C2587 C2586 1.373 . S
C2587 C2603 1.377 . S
C2588 C2586 1.389 . S
C2588 C2589 1.524 . S
C2588 C2602 1.377 . S
C2589 C2588 1.524 . S
C2589 C2590 1.397 . S
C2589 C2594 1.363 . S
C2590 H2567 0.950 . S
C2590 C2589 1.397 . S
C2590 C2591 1.334 . S
C2591 H2568 0.950 . S
C2591 C2590 1.334 . S
C2591 C2592 1.287 . S
C2592 C2591 1.287 . S
C2592 C2593 1.524 . S
C2592 H2611 0.913 . S
C2593 H2569 0.950 . S
C2593 C2592 1.524 . S
C2593 C2594 1.415 . S
C2594 H2570 0.950 . S
C2594 C2589 1.363 . S
C2594 C2593 1.415 . S
C2595 H2571 0.951 . S
C2595 C2596 1.366 1_554 S
C2595 C2597 1.388 . S
C2596 C2595 1.366 1_556 S
C2596 C2600 1.385 . S
C2597 H2572 0.951 . S
C2597 C2595 1.388 . S
C2597 C2598 1.366 . S
C2598 C2597 1.366 . S
C2598 C2599 1.414 . S
C2598 C2601 1.499 . S
C2599 H2573 0.950 . S
C2599 C2598 1.414 . S
C2599 C2600 1.374 1_554 S
C2600 H2574 0.950 . S
C2600 C2596 1.385 . S
C2600 C2599 1.374 1_556 S
C2601 C2598 1.499 . S
C2601 C2602 1.373 . S
C2601 C2603 1.389 . S
C2602 H2575 0.950 . S
C2602 C2588 1.377 . S
C2602 C2601 1.373 . S
C2603 C2587 1.377 . S
C2603 C2601 1.389 . S
C2603 C2604 1.524 . S
C2604 C2603 1.524 . S
C2604 C2605 1.397 . S
C2604 C2609 1.363 . S
C2605 H2576 0.950 . S
C2605 C2604 1.397 . S
C2605 C2606 1.334 . S
C2606 H2577 0.950 1_554 S
C2606 C2605 1.334 . S
C2606 C2607 1.287 . S
C2607 C2606 1.287 . S
C2607 C2608 1.524 . S
C2607 H2610 0.999 . S
C2608 H2578 0.950 . S
C2608 C2607 1.524 . S
C2608 C2609 1.415 . S
C2609 H2579 0.950 . S
C2609 C2604 1.363 . S
C2609 C2608 1.415 . S
H2610 C2607 0.999 . S
H2611 C2592 0.913 . S
H2612 C2630 0.951 1_455 S
H2613 C2632 0.951 . S
H2614 C2634 0.950 . S
H2615 C2635 0.950 . S
H2616 C2637 0.950 . S
H2617 C2640 0.950 . S
H2618 C2641 0.950 . S
H2619 C2643 0.950 . S
H2620 C2644 0.950 . S
H2621 C2645 0.951 . S
H2622 C2647 0.951 . S
H2623 C2649 0.950 . S
H2624 C2650 0.950 . S
H2625 C2652 0.950 . S
H2626 C2655 0.950 . S
H2627 C2656 0.950 . S
H2628 C2658 0.950 . S
H2629 C2659 0.950 . S
C2630 H2612 0.951 1_655 S
C2630 C2631 1.366 . S
C2630 C2632 1.388 . S
C2631 C2630 1.366 . S
C2631 C2635 1.385 . S
C2632 H2613 0.951 . S
C2632 C2630 1.388 . S
C2632 C2633 1.366 . S
C2633 C2632 1.366 . S
C2633 C2634 1.414 . S
C2633 C2636 1.499 . S
C2634 H2614 0.950 . S
C2634 C2633 1.414 . S
C2634 C2635 1.374 . S
C2635 H2615 0.950 . S
C2635 C2631 1.385 . S
C2635 C2634 1.374 . S
C2636 C2633 1.499 . S
C2636 C2637 1.373 . S
C2636 C2638 1.389 . S
C2637 H2616 0.950 . S
C2637 C2636 1.373 . S
C2637 C2653 1.377 . S
C2638 C2636 1.389 . S
C2638 C2639 1.524 . S
C2638 C2652 1.377 . S
C2639 C2638 1.524 . S
C2639 C2640 1.397 . S
C2639 C2644 1.363 . S
C2640 H2617 0.950 . S
C2640 C2639 1.397 . S
C2640 C2641 1.334 . S
C2641 H2618 0.950 . S
C2641 C2640 1.334 . S
C2641 C2642 1.287 . S
C2642 C2641 1.287 . S
C2642 C2643 1.524 . S
C2642 H2661 0.913 . S
C2643 H2619 0.950 . S
C2643 C2642 1.524 . S
C2643 C2644 1.415 . S
C2644 H2620 0.950 . S
C2644 C2639 1.363 . S
C2644 C2643 1.415 . S
C2645 H2621 0.951 . S
C2645 C2646 1.366 . S
C2645 C2647 1.388 . S
C2646 C2645 1.366 . S
C2646 C2650 1.385 . S
C2647 H2622 0.951 . S
C2647 C2645 1.388 . S
C2647 C2648 1.366 . S
C2648 C2647 1.366 . S
C2648 C2649 1.414 . S
C2648 C2651 1.499 . S
C2649 H2623 0.950 . S
C2649 C2648 1.414 . S
C2649 C2650 1.374 . S
C2650 H2624 0.950 . S
C2650 C2646 1.385 . S
C2650 C2649 1.374 . S
C2651 C2648 1.499 . S
C2651 C2652 1.373 . S
C2651 C2653 1.389 . S
C2652 H2625 0.950 . S
C2652 C2638 1.377 . S
C2652 C2651 1.373 . S
C2653 C2637 1.377 . S
C2653 C2651 1.389 . S
C2653 C2654 1.524 . S
C2654 C2653 1.524 . S
C2654 C2655 1.397 . S
C2654 C2659 1.363 . S
C2655 H2626 0.950 . S
C2655 C2654 1.397 . S
C2655 C2656 1.334 . S
C2656 H2627 0.950 . S
C2656 C2655 1.334 . S
C2656 C2657 1.287 . S
C2657 C2656 1.287 . S
C2657 C2658 1.524 . S
C2657 H2660 0.999 . S
C2658 H2628 0.950 . S
C2658 C2657 1.524 . S
C2658 C2659 1.415 . S
C2659 H2629 0.950 . S
C2659 C2654 1.363 . S
C2659 C2658 1.415 . S
H2660 C2657 0.999 . S
H2661 C2642 0.913 . S
H2662 C2680 0.951 . S
H2663 C2682 0.951 . S
H2664 C2684 0.950 . S
H2665 C2685 0.950 . S
H2666 C2687 0.950 . S
H2667 C2690 0.950 . S
H2668 C2691 0.950 . S
H2669 C2693 0.950 . S
H2670 C2694 0.950 . S
H2671 C2695 0.951 . S
H2672 C2697 0.951 . S
H2673 C2699 0.950 . S
H2674 C2700 0.950 . S
H2675 C2702 0.950 . S
H2676 C2705 0.950 . S
H2677 C2706 0.950 . S
H2678 C2708 0.950 . S
H2679 C2709 0.950 . S
C2680 H2662 0.951 . S
C2680 C2681 1.366 . S
C2680 C2682 1.388 . S
C2681 C2680 1.366 . S
C2681 C2685 1.385 . S
C2682 H2663 0.951 . S
C2682 C2680 1.388 . S
C2682 C2683 1.366 . S
C2683 C2682 1.366 . S
C2683 C2684 1.414 . S
C2683 C2686 1.499 . S
C2684 H2664 0.950 . S
C2684 C2683 1.414 . S
C2684 C2685 1.374 . S
C2685 H2665 0.950 . S
C2685 C2681 1.385 . S
C2685 C2684 1.374 . S
C2686 C2683 1.499 . S
C2686 C2687 1.373 . S
C2686 C2688 1.389 . S
C2687 H2666 0.950 . S
C2687 C2686 1.373 . S
C2687 C2703 1.377 . S
C2688 C2686 1.389 . S
C2688 C2689 1.524 . S
C2688 C2702 1.377 . S
C2689 C2688 1.524 . S
C2689 C2690 1.397 . S
C2689 C2694 1.363 . S
C2690 H2667 0.950 . S
C2690 C2689 1.397 . S
C2690 C2691 1.334 . S
C2691 H2668 0.950 . S
C2691 C2690 1.334 . S
C2691 C2692 1.287 . S
C2692 C2691 1.287 . S
C2692 C2693 1.524 . S
C2692 H2711 0.913 . S
C2693 H2669 0.950 . S
C2693 C2692 1.524 . S
C2693 C2694 1.415 . S
C2694 H2670 0.950 . S
C2694 C2689 1.363 . S
C2694 C2693 1.415 . S
C2695 H2671 0.951 . S
C2695 C2696 1.366 . S
C2695 C2697 1.388 . S
C2696 C2695 1.366 . S
C2696 C2700 1.385 . S
C2697 H2672 0.951 . S
C2697 C2695 1.388 . S
C2697 C2698 1.366 . S
C2698 C2697 1.366 . S
C2698 C2699 1.414 . S
C2698 C2701 1.499 . S
C2699 H2673 0.950 . S
C2699 C2698 1.414 . S
C2699 C2700 1.374 . S
C2700 H2674 0.950 . S
C2700 C2696 1.385 . S
C2700 C2699 1.374 . S
C2701 C2698 1.499 . S
C2701 C2702 1.373 . S
C2701 C2703 1.389 . S
C2702 H2675 0.950 . S
C2702 C2688 1.377 . S
C2702 C2701 1.373 . S
C2703 C2687 1.377 . S
C2703 C2701 1.389 . S
C2703 C2704 1.524 . S
C2704 C2703 1.524 . S
C2704 C2705 1.397 . S
C2704 C2709 1.363 . S
C2705 H2676 0.950 . S
C2705 C2704 1.397 . S
C2705 C2706 1.334 . S
C2706 H2677 0.950 . S
C2706 C2705 1.334 . S
C2706 C2707 1.287 . S
C2707 C2706 1.287 . S
C2707 C2708 1.524 . S
C2707 H2710 0.999 . S
C2708 H2678 0.950 . S
C2708 C2707 1.524 . S
C2708 C2709 1.415 . S
C2709 H2679 0.950 . S
C2709 C2704 1.363 . S
C2709 C2708 1.415 . S
H2710 C2707 0.999 . S
H2711 C2692 0.913 . S
H2712 C2730 0.951 . S
H2713 C2732 0.951 . S
H2714 C2734 0.950 . S
H2715 C2735 0.950 . S
H2716 C2737 0.950 . S
H2717 C2740 0.950 . S
H2718 C2741 0.950 . S
H2719 C2743 0.950 . S
H2720 C2744 0.950 . S
H2721 C2745 0.951 . S
H2722 C2747 0.951 . S
H2723 C2749 0.950 . S
H2724 C2750 0.950 . S
H2725 C2752 0.950 . S
H2726 C2755 0.950 . S
H2727 C2756 0.950 . S
H2728 C2758 0.950 . S
H2729 C2759 0.950 . S
C2730 H2712 0.951 . S
C2730 C2731 1.366 . S
C2730 C2732 1.388 . S
C2731 C2730 1.366 . S
C2731 C2735 1.385 . S
C2732 H2713 0.951 . S
C2732 C2730 1.388 . S
C2732 C2733 1.366 . S
C2733 C2732 1.366 . S
C2733 C2734 1.414 . S
C2733 C2736 1.499 . S
C2734 H2714 0.950 . S
C2734 C2733 1.414 . S
C2734 C2735 1.374 . S
C2735 H2715 0.950 . S
C2735 C2731 1.385 . S
C2735 C2734 1.374 . S
C2736 C2733 1.499 . S
C2736 C2737 1.373 . S
C2736 C2738 1.389 . S
C2737 H2716 0.950 . S
C2737 C2736 1.373 . S
C2737 C2753 1.377 . S
C2738 C2736 1.389 . S
C2738 C2739 1.524 . S
C2738 C2752 1.377 . S
C2739 C2738 1.524 . S
C2739 C2740 1.397 . S
C2739 C2744 1.363 . S
C2740 H2717 0.950 . S
C2740 C2739 1.397 . S
C2740 C2741 1.334 . S
C2741 H2718 0.950 . S
C2741 C2740 1.334 . S
C2741 C2742 1.287 . S
C2742 C2741 1.287 . S
C2742 C2743 1.524 . S
C2742 H2761 0.913 . S
C2743 H2719 0.950 . S
C2743 C2742 1.524 . S
C2743 C2744 1.415 . S
C2744 H2720 0.950 . S
C2744 C2739 1.363 . S
C2744 C2743 1.415 . S
C2745 H2721 0.951 . S
C2745 C2746 1.366 . S
C2745 C2747 1.388 1_556 S
C2746 C2745 1.366 . S
C2746 C2750 1.385 1_556 S
C2747 H2722 0.951 . S
C2747 C2745 1.388 1_554 S
C2747 C2748 1.366 . S
C2748 C2747 1.366 . S
C2748 C2749 1.414 . S
C2748 C2751 1.499 . S
C2749 H2723 0.950 . S
C2749 C2748 1.414 . S
C2749 C2750 1.374 . S
C2750 H2724 0.950 . S
C2750 C2746 1.385 1_554 S
C2750 C2749 1.374 . S
C2751 C2748 1.499 . S
C2751 C2752 1.373 . S
C2751 C2753 1.389 . S
C2752 H2725 0.950 . S
C2752 C2738 1.377 . S
C2752 C2751 1.373 . S
C2753 C2737 1.377 . S
C2753 C2751 1.389 . S
C2753 C2754 1.524 . S
C2754 C2753 1.524 . S
C2754 C2755 1.397 . S
C2754 C2759 1.363 . S
C2755 H2726 0.950 . S
C2755 C2754 1.397 . S
C2755 C2756 1.334 1_554 S
C2756 H2727 0.950 . S
C2756 C2755 1.334 1_556 S
C2756 C2757 1.287 . S
C2757 C2756 1.287 . S
C2757 C2758 1.524 . S
C2757 H2760 0.999 . S
C2758 H2728 0.950 . S
C2758 C2757 1.524 . S
C2758 C2759 1.415 1_556 S
C2759 H2729 0.950 . S
C2759 C2754 1.363 . S
C2759 C2758 1.415 1_554 S
H2760 C2757 0.999 . S
H2761 C2742 0.913 . S
H2762 C2780 0.955 . S
H2763 C2782 0.951 . S
H2764 C2784 0.950 . S
H2765 C2785 0.950 . S
H2766 C2787 0.950 . S
H2767 C2790 0.950 . S
H2768 C2791 0.950 . S
H2769 C2793 0.950 . S
H2770 C2794 0.950 . S
H2771 C2795 0.951 . S
H2772 C2797 0.951 . S
H2773 C2799 0.950 . S
H2774 C2800 0.950 . S
H2775 C2802 0.950 . S
H2776 C2805 0.950 . S
H2777 C2806 0.950 . S
H2778 C2808 0.950 . S
H2779 C2809 0.950 . S
C2780 H2762 0.955 . S
C2780 C2781 1.367 . S
C2780 C2782 1.383 1_554 S
C2781 C2780 1.367 . S
C2781 C2785 1.385 1_554 S
C2782 H2763 0.951 . S
C2782 C2780 1.383 1_556 S
C2782 C2783 1.366 . S
C2783 C2782 1.366 . S
C2783 C2784 1.414 . S
C2783 C2786 1.499 . S
C2784 H2764 0.950 . S
C2784 C2783 1.414 . S
C2784 C2785 1.374 . S
C2785 H2765 0.950 . S
C2785 C2781 1.385 1_556 S
C2785 C2784 1.374 . S
C2786 C2783 1.499 . S
C2786 C2787 1.373 . S
C2786 C2788 1.389 . S
C2787 H2766 0.950 . S
C2787 C2786 1.373 . S
C2787 C2803 1.377 . S
C2788 C2786 1.389 . S
C2788 C2789 1.524 . S
C2788 C2802 1.377 . S
C2789 C2788 1.524 . S
C2789 C2790 1.397 . S
C2789 C2794 1.363 . S
C2790 H2767 0.950 . S
C2790 C2789 1.397 . S
C2790 C2791 1.334 . S
C2791 H2768 0.950 . S
C2791 C2790 1.334 . S
C2791 C2792 1.287 . S
C2792 C2791 1.287 . S
C2792 C2793 1.524 . S
C2792 H2811 0.913 . S
C2793 H2769 0.950 . S
C2793 C2792 1.524 . S
C2793 C2794 1.415 . S
C2794 H2770 0.950 . S
C2794 C2789 1.363 . S
C2794 C2793 1.415 . S
C2795 H2771 0.951 . S
C2795 C2796 1.366 . S
C2795 C2797 1.388 . S
C2796 C2795 1.366 . S
C2796 C2800 1.385 . S
C2797 H2772 0.951 . S
C2797 C2795 1.388 . S
C2797 C2798 1.366 . S
C2798 C2797 1.366 . S
C2798 C2799 1.414 . S
C2798 C2801 1.499 . S
C2799 H2773 0.950 . S
C2799 C2798 1.414 . S
C2799 C2800 1.374 . S
C2800 H2774 0.950 . S
C2800 C2796 1.385 . S
C2800 C2799 1.374 . S
C2801 C2798 1.499 . S
C2801 C2802 1.373 . S
C2801 C2803 1.389 . S
C2802 H2775 0.950 . S
C2802 C2788 1.377 . S
C2802 C2801 1.373 . S
C2803 C2787 1.377 . S
C2803 C2801 1.389 . S
C2803 C2804 1.524 . S
C2804 C2803 1.524 . S
C2804 C2805 1.397 . S
C2804 C2809 1.363 . S
C2805 H2776 0.950 . S
C2805 C2804 1.397 . S
C2805 C2806 1.334 . S
C2806 H2777 0.950 . S
C2806 C2805 1.334 . S
C2806 C2807 1.287 . S
C2807 C2806 1.287 . S
C2807 C2808 1.524 . S
C2807 H2810 0.999 . S
C2808 H2778 0.950 . S
C2808 C2807 1.524 . S
C2808 C2809 1.415 . S
C2809 H2779 0.950 . S
C2809 C2804 1.363 . S
C2809 C2808 1.415 . S
H2810 C2807 0.999 . S
H2811 C2792 0.913 . S
H2812 C2830 0.951 . S
H2813 C2832 0.951 . S
H2814 C2834 0.950 . S
H2815 C2835 0.950 . S
H2816 C2837 0.950 . S
H2817 C2840 0.950 . S
H2818 C2841 0.950 . S
H2819 C2843 0.950 . S
H2820 C2844 0.950 . S
H2821 C2845 0.951 . S
H2822 C2847 0.951 . S
H2823 C2849 0.950 . S
H2824 C2850 0.950 . S
H2825 C2852 0.950 . S
H2826 C2855 0.950 . S
H2827 C2856 0.950 . S
H2828 C2858 0.950 . S
H2829 C2859 0.950 . S
C2830 H2812 0.951 . S
C2830 C2831 1.366 . S
C2830 C2832 1.388 . S
C2831 C2830 1.366 . S
C2831 C2835 1.385 . S
C2832 H2813 0.951 . S
C2832 C2830 1.388 . S
C2832 C2833 1.366 . S
C2833 C2832 1.366 . S
C2833 C2834 1.414 . S
C2833 C2836 1.499 . S
C2834 H2814 0.950 . S
C2834 C2833 1.414 . S
C2834 C2835 1.374 . S
C2835 H2815 0.950 . S
C2835 C2831 1.385 . S
C2835 C2834 1.374 . S
C2836 C2833 1.499 . S
C2836 C2837 1.373 . S
C2836 C2838 1.389 . S
C2837 H2816 0.950 . S
C2837 C2836 1.373 . S
C2837 C2853 1.377 . S
C2838 C2836 1.389 . S
C2838 C2839 1.524 . S
C2838 C2852 1.377 . S
C2839 C2838 1.524 . S
C2839 C2840 1.397 . S
C2839 C2844 1.363 . S
C2840 H2817 0.950 . S
C2840 C2839 1.397 . S
C2840 C2841 1.334 . S
C2841 H2818 0.950 . S
C2841 C2840 1.334 . S
C2841 C2842 1.287 . S
C2842 C2841 1.287 . S
C2842 C2843 1.524 . S
C2842 H2861 0.913 . S
C2843 H2819 0.950 . S
C2843 C2842 1.524 . S
C2843 C2844 1.415 . S
C2844 H2820 0.950 . S
C2844 C2839 1.363 . S
C2844 C2843 1.415 . S
C2845 H2821 0.951 . S
C2845 C2846 1.366 . S
C2845 C2847 1.388 . S
C2846 C2845 1.366 . S
C2846 C2850 1.385 . S
C2847 H2822 0.951 . S
C2847 C2845 1.388 . S
C2847 C2848 1.366 . S
C2848 C2847 1.366 . S
C2848 C2849 1.414 . S
C2848 C2851 1.499 . S
C2849 H2823 0.950 . S
C2849 C2848 1.414 . S
C2849 C2850 1.374 . S
C2850 H2824 0.950 . S
C2850 C2846 1.385 . S
C2850 C2849 1.374 . S
C2851 C2848 1.499 . S
C2851 C2852 1.373 . S
C2851 C2853 1.389 . S
C2852 H2825 0.950 . S
C2852 C2838 1.377 . S
C2852 C2851 1.373 . S
C2853 C2837 1.377 . S
C2853 C2851 1.389 . S
C2853 C2854 1.524 . S
C2854 C2853 1.524 . S
C2854 C2855 1.397 . S
C2854 C2859 1.363 . S
C2855 H2826 0.950 . S
C2855 C2854 1.397 . S
C2855 C2856 1.334 . S
C2856 H2827 0.950 . S
C2856 C2855 1.334 . S
C2856 C2857 1.287 . S
C2857 C2856 1.287 . S
C2857 C2858 1.524 . S
C2857 H2860 0.999 . S
C2858 H2828 0.950 . S
C2858 C2857 1.524 . S
C2858 C2859 1.415 . S
C2859 H2829 0.950 . S
C2859 C2854 1.363 . S
C2859 C2858 1.415 . S
H2860 C2857 0.999 . S
H2861 C2842 0.913 . S
H2862 C2880 0.951 . S
H2863 C2882 0.951 . S
H2864 C2884 0.950 . S
H2865 C2885 0.950 . S
H2866 C2887 0.950 . S
H2867 C2890 0.950 . S
H2868 C2891 0.950 . S
H2869 C2893 0.950 . S
H2870 C2894 0.950 . S
H2871 C2895 0.951 . S
H2872 C2897 0.951 . S
H2873 C2899 0.950 . S
H2874 C2900 0.950 . S
H2875 C2902 0.950 . S
H2876 C2905 0.950 . S
H2877 C2906 0.950 . S
H2878 C2908 0.950 . S
H2879 C2909 0.950 . S
C2880 H2862 0.951 . S
C2880 C2881 1.366 . S
C2880 C2882 1.388 . S
C2881 C2880 1.366 . S
C2881 C2885 1.385 . S
C2882 H2863 0.951 . S
C2882 C2880 1.388 . S
C2882 C2883 1.366 . S
C2883 C2882 1.366 . S
C2883 C2884 1.414 . S
C2883 C2886 1.499 . S
C2884 H2864 0.950 . S
C2884 C2883 1.414 . S
C2884 C2885 1.374 . S
C2885 H2865 0.950 . S
C2885 C2881 1.385 . S
C2885 C2884 1.374 . S
C2886 C2883 1.499 . S
C2886 C2887 1.373 . S
C2886 C2888 1.389 . S
C2887 H2866 0.950 . S
C2887 C2886 1.373 . S
C2887 C2903 1.377 . S
C2888 C2886 1.389 . S
C2888 C2889 1.524 . S
C2888 C2902 1.377 . S
C2889 C2888 1.524 . S
C2889 C2890 1.397 . S
C2889 C2894 1.363 . S
C2890 H2867 0.950 . S
C2890 C2889 1.397 . S
C2890 C2891 1.334 . S
C2891 H2868 0.950 . S
C2891 C2890 1.334 . S
C2891 C2892 1.287 . S
C2892 C2891 1.287 . S
C2892 C2893 1.524 . S
C2892 H2911 0.913 . S
C2893 H2869 0.950 . S
C2893 C2892 1.524 . S
C2893 C2894 1.415 . S
C2894 H2870 0.950 . S
C2894 C2889 1.363 . S
C2894 C2893 1.415 . S
C2895 H2871 0.951 . S
C2895 C2896 1.366 . S
C2895 C2897 1.388 . S
C2896 C2895 1.366 . S
C2896 C2900 1.385 . S
C2897 H2872 0.951 . S
C2897 C2895 1.388 . S
C2897 C2898 1.366 . S
C2898 C2897 1.366 . S
C2898 C2899 1.414 . S
C2898 C2901 1.499 . S
C2899 H2873 0.950 . S
C2899 C2898 1.414 . S
C2899 C2900 1.374 . S
C2900 H2874 0.950 . S
C2900 C2896 1.385 . S
C2900 C2899 1.374 . S
C2901 C2898 1.499 . S
C2901 C2902 1.373 . S
C2901 C2903 1.389 . S
C2902 H2875 0.950 . S
C2902 C2888 1.377 . S
C2902 C2901 1.373 . S
C2903 C2887 1.377 . S
C2903 C2901 1.389 . S
C2903 C2904 1.524 . S
C2904 C2903 1.524 . S
C2904 C2905 1.397 . S
C2904 C2909 1.363 . S
C2905 H2876 0.950 . S
C2905 C2904 1.397 . S
C2905 C2906 1.334 . S
C2906 H2877 0.950 . S
C2906 C2905 1.334 . S
C2906 C2907 1.287 . S
C2907 C2906 1.287 . S
C2907 C2908 1.524 . S
C2907 H2910 0.999 . S
C2908 H2878 0.950 . S
C2908 C2907 1.524 . S
C2908 C2909 1.415 . S
C2909 H2879 0.950 . S
C2909 C2904 1.363 . S
C2909 C2908 1.415 . S
H2910 C2907 0.999 . S
H2911 C2892 0.913 . S
C531 C2 1.957 . S
C546 C230 1.957 . S
C581 C34 1.956 . S
C596 C134 1.957 . S
C631 C166 1.956 . S
C646 C66 1.957 . S
C681 C98 1.956 . S
C696 C194 1.957 . S
C731 C356 1.765 . S
C746 C157 1.765 . S
C781 C285 1.765 . S
C796 C4 1.765 . S
C831 C324 1.765 . S
C846 C196 1.765 . S
C881 C68 1.765 . S
C896 C317 1.765 . S
C931 C294 1.957 . S
C946 C386 1.957 . S
C981 C322 1.957 . S
C996 C454 1.957 . S
C1031 C422 1.973 . S
C1046 C262 1.957 . S
C1081 C354 1.957 . S
C1096 C482 1.973 . S
C1131 C477 1.765 . S
C1146 C100 1.765 . S
C1181 C388 1.765 . S
C1196 C189 1.765 . S
C1231 C36 1.765 . S
C1246 C484 1.765 . S
C1281 C253 1.765 . S
C1296 C445 1.765 . S
C1331 N434 2.662 . S
C1346 N13 2.663 . S
C1381 N365 2.663 . S
C1396 N45 2.662 . S
C1431 N397 2.662 . S
C1446 N77 2.663 . S
C1481 N333 2.662 . S
C1496 N109 2.662 . S
C1531 N146 2.662 . S
C1546 N493 2.663 . S
C1581 N306 2.662 . S
C1596 N178 2.663 . S
C1631 N205 2.663 . S
C1646 N466 2.662 . S
C1681 N242 2.663 . S
C1696 N274 2.663 . S
C1731 N18 1.142 . S
C1746 N141 1.142 . S
C1781 N50 1.142 . S
C1796 N173 1.142 . S
C1831 N210 1.142 . S
C1846 N82 1.142 . S
C1881 N114 1.142 . S
C1896 N237 1.142 . S
C1931 N338 1.141 . S
C1946 N269 1.142 . S
C1981 N370 1.141 . S
C1996 N301 1.142 . S
C2031 N402 1.142 . S
C2046 N461 1.142 . S
C2081 N498 1.142 . S
C2096 N429 1.142 . S
C2131 C6 1.381 . S
C2146 C226 1.382 . S
C2181 C38 1.382 . S
C2196 C130 1.381 . S
C2231 C162 1.382 . S
C2246 C70 1.381 . S
C2281 C198 1.381 . S
C2296 C102 1.382 . S
C2331 C381 1.399 . S
C2346 C132 1.400 . S
C2381 C260 1.400 . S
C2396 C29 1.399 . S
C2431 C349 1.400 . S
C2446 C221 1.399 . S
C2481 C93 1.400 . S
C2496 C292 1.399 . S
C2531 C390 1.382 . S
C2546 C290 1.383 . S
C2581 C450 1.383 . S
C2596 C326 1.382 . S
C2631 C418 1.400 . S
C2646 C258 1.382 . S
C2681 C486 1.399 . S
C2696 C358 1.382 . S
C2731 C452 1.400 . S
C2746 C125 1.400 . S
C2781 C164 1.399 . S
C2796 C413 1.399 . S
C2831 C61 1.400 . S
C2846 C509 1.399 . S
C2881 C420 1.399 . S
C2896 C228 1.399 . S
