# Generated by pormake.
# Topology unc, (4)-cn, num edge types: 1
# Building blocks:
#     Node 0, Type 0, BuildingBlock: GALJAG_clean_sbu_0, # of connection points: 4
#     Node 1, Type 0, BuildingBlock: GALJAG_clean_sbu_0, # of connection points: 4
#     Node 2, Type 0, BuildingBlock: GALJAG_clean_sbu_0, # of connection points: 4
#     Node 3, Type 0, BuildingBlock: GALJAG_clean_sbu_0, # of connection points: 4
#     Edge 4, Type (0, 0), BuildingBlock: UVAHIK_clean_linker_0, # of connection points: 2
#     Edge 5, Type (0, 0), BuildingBlock: UVAHIK_clean_linker_0, # of connection points: 2
#     Edge 6, Type (0, 0), BuildingBlock: UVAHIK_clean_linker_0, # of connection points: 2
#     Edge 7, Type (0, 0), BuildingBlock: UVAHIK_clean_linker_0, # of connection points: 2
#     Edge 8, Type (0, 0), BuildingBlock: UVAHIK_clean_linker_0, # of connection points: 2
#     Edge 9, Type (0, 0), BuildingBlock: UVAHIK_clean_linker_0, # of connection points: 2
#     Edge 10, Type (0, 0), BuildingBlock: UVAHIK_clean_linker_0, # of connection points: 2
#     Edge 11, Type (0, 0), BuildingBlock: UVAHIK_clean_linker_0, # of connection points: 2
# Relax obj value: 0.013
# Max RMSD: 0.034
# Mean RMSD: 0.034
data_MOF--net-unc--node1-GALJAG_clean_sbu_0--edge1-UVAHIK_clean_linker_0
_symmetry_space_group_name_H-M    P1
_symmetry_Int_Tables_number       1
_symmetry_cell_setting            triclinic
loop_
_symmetry_equiv_pos_as_xyz
'x, y, z'
_cell_length_a     41.037072
_cell_length_b     41.040439
_cell_length_c     26.206334
_cell_angle_alpha  90.066818
_cell_angle_beta   89.970607
_cell_angle_gamma 90.005964
loop_
_atom_site_label
_atom_site_type_symbol
_atom_site_fract_x
_atom_site_fract_y
_atom_site_fract_z
_atom_type_partial_charge
In0 In -0.00242 0.67468 -0.00329 0.0
O1 O 0.04287 0.70623 0.98345 0.0
O2 O 0.02202 0.70571 0.05764 0.0
C3 C 0.00499 0.63025 0.92183 0.0
C4 C 0.95099 0.71663 0.96547 0.0
C5 C 0.98976 0.62969 0.07049 0.0
O6 O 0.02878 0.64646 0.93904 0.0
O7 O 0.9778 0.63716 0.9415 0.0
O8 O 0.96624 0.64661 0.05421 0.0
O9 O 0.01696 0.63616 0.05046 0.0
C10 C 0.04413 0.71649 0.02885 0.0
O11 O 0.9521 0.70586 0.01055 0.0
O12 O 0.97331 0.70635 0.93659 0.0
In13 In 0.31844 -0.00249 0.24697 0.0
O14 O 0.28776 0.95148 0.25895 0.0
O15 O 0.28568 0.97486 0.18672 0.0
C16 C 0.36249 0.98913 0.32208 0.0
C17 C 0.27608 0.04346 0.2793 0.0
C18 C 0.36246 0.00569 0.17167 0.0
O19 O 0.34732 0.96544 0.30245 0.0
O20 O 0.35502 0.01667 0.30431 0.0
O21 O 0.3477 0.02949 0.19178 0.0
O22 O 0.35463 0.97816 0.18912 0.0
C23 C 0.2761 0.95163 0.21435 0.0
O24 O 0.28762 0.04335 0.23462 0.0
O25 O 0.28583 0.02048 0.30727 0.0
In26 In 0.9952 0.31845 0.49597 0.0
O27 O 0.04081 0.28726 0.50867 0.0
O28 O 0.01828 0.28597 0.43571 0.0
C29 C 0.00422 0.36257 0.57095 0.0
C30 C 0.94909 0.27619 0.52795 0.0
C31 C 0.98659 0.36232 0.42069 0.0
O32 O 0.02776 0.34755 0.55061 0.0
O33 O 0.97652 0.35493 0.55391 0.0
O34 O 0.96288 0.34789 0.44155 0.0
O35 O 0.01424 0.35426 0.43742 0.0
C36 C 0.04107 0.27595 0.46383 0.0
O37 O 0.94959 0.28733 0.48307 0.0
O38 O 0.97176 0.28628 0.5563 0.0
In39 In 0.67505 0.99537 0.74686 0.0
O40 O 0.70549 0.94912 0.73557 0.0
O41 O 0.70704 0.97253 0.80789 0.0
C42 C 0.63056 0.9883 0.6721 0.0
C43 C 0.71727 0.04119 0.7138 0.0
C44 C 0.63019 0.00305 0.821 0.0
O45 O 0.64661 0.96439 0.68921 0.0
O46 O 0.63764 0.01543 0.69184 0.0
O47 O 0.64688 0.02668 0.80442 0.0
O48 O 0.63682 0.97586 0.80106 0.0
C49 C 0.71674 0.94923 0.78042 0.0
O50 O 0.7057 0.04145 0.75847 0.0
O51 O 0.70766 0.01789 0.68628 0.0
C52 C 0.95498 0.59426 0.1265 0.0
C53 C 0.98584 0.60289 0.10756 0.0
C54 C 0.95145 0.56729 0.15875 0.0
C55 C 0.99305 0.49067 0.19285 0.0
H56 H 0.94086 0.4937 0.31616 0.0
C57 C 0.01029 0.3997 0.35576 0.0
C58 C 0.98268 0.38742 0.38087 0.0
C59 C 0.00726 0.42437 0.31958 0.0
C60 C 0.9551 0.49232 0.28141 0.0
H61 H 0.03726 0.59069 0.10858 0.0
H62 H 0.03119 0.54409 0.16494 0.0
H63 H 0.94193 0.54082 0.259 0.0
H64 H 0.93017 0.39116 0.38763 0.0
H65 H 0.92485 0.43469 0.32412 0.0
H66 H 0.00676 0.44256 0.21553 0.0
C67 C 0.00961 0.55769 0.15432 0.0
C68 C 0.95574 0.51929 0.24875 0.0
C69 C 0.01313 0.58457 0.12233 0.0
C70 C 0.95185 0.40014 0.36873 0.0
C71 C 0.94883 0.42513 0.33266 0.0
C72 C 0.99243 0.46382 0.22539 0.0
C73 C 0.97871 0.54844 0.17233 0.0
C74 C 0.97535 0.51899 0.20474 0.0
C75 C 0.97656 0.4375 0.30779 0.0
C76 C 0.97405 0.46461 0.2706 0.0
H77 H 0.93351 0.60794 0.11565 0.0
H78 H 0.92733 0.5607 0.17196 0.0
H79 H 0.00777 0.48939 0.15857 0.0
H80 H 0.03439 0.39043 0.36436 0.0
H81 H 0.02914 0.43371 0.30164 0.0
C82 C 0.40148 0.01298 0.38461 0.0
C83 C 0.38783 0.98526 0.3616 0.0
C84 C 0.42636 0.00989 0.42047 0.0
C85 C 0.49222 0.95576 0.46144 0.0
H86 H 0.49224 0.01174 0.58076 0.0
C87 C 0.59391 0.95417 0.61694 0.0
C88 C 0.60399 0.98494 0.63446 0.0
C89 C 0.56697 0.95133 0.58441 0.0
C90 C 0.49271 -0.0039 0.54745 0.0
H91 H 0.38934 0.9325 0.35822 0.0
H92 H 0.43316 0.92707 0.42123 0.0
H93 H 0.44528 0.01157 0.52404 0.0
H94 H 0.59454 0.03687 0.63041 0.0
H95 H 0.54805 0.03198 0.57351 0.0
H96 H 0.54004 0.94075 0.48462 0.0
C97 C 0.42456 0.95119 0.41125 0.0
C98 C 0.46579 -0.00404 0.51503 0.0
C99 C 0.3994 0.95428 0.37548 0.0
C100 C 0.58725 0.0128 0.61783 0.0
C101 C 0.56043 0.00998 0.58552 0.0
C102 C 0.51927 0.95592 0.49398 0.0
C103 C 0.4383 0.97901 0.43406 0.0
C104 C 0.4655 0.97633 0.4711 0.0
C105 C 0.54963 0.97922 0.56908 0.0
C106 C 0.52006 0.97665 0.53671 0.0
H107 H 0.39315 0.03719 0.3746 0.0
H108 H 0.43676 0.03182 0.43677 0.0
H109 H 0.49277 0.94053 0.42768 0.0
H110 H 0.60635 0.93227 0.62923 0.0
H111 H 0.55917 0.9273 0.57243 0.0
C112 C 0.98088 0.58642 0.86803 0.0
C113 C 0.00856 0.60368 0.88417 0.0
C114 C 0.98394 0.55961 0.83572 0.0
C115 C 0.03778 0.5194 0.74299 0.0
H116 H 0.98387 0.4444 0.77447 0.0
C117 C 0.03942 0.39978 0.6234 0.0
C118 C 0.00839 0.38787 0.61051 0.0
C119 C 0.04275 0.42488 0.65931 0.0
C120 C -0.001 0.46518 0.76507 0.0
H121 H 0.06114 0.60698 0.87806 0.0
H122 H 0.06653 0.55981 0.82116 0.0
H123 H 0.98363 0.49131 0.83141 0.0
H124 H 0.9566 0.3925 0.62541 0.0
H125 H 0.96237 0.43599 0.68781 0.0
H126 H 0.0527 0.49324 0.67603 0.0
C127 C 0.04245 0.56719 0.83358 0.0
C128 C -0.00117 0.49207 0.79762 0.0
C129 C 0.03938 0.59412 0.86616 0.0
C130 C 0.98085 0.40111 0.63463 0.0
C131 C 0.98418 0.42592 0.67063 0.0
C132 C 0.03796 0.49238 0.7103 0.0
C133 C 0.01477 0.54934 0.81876 0.0
C134 C 0.01759 0.51979 0.78635 0.0
C135 C 0.01511 0.43819 0.68325 0.0
C136 C 0.01798 0.46531 0.72046 0.0
H137 H 0.95677 0.59329 0.881 0.0
H138 H 0.96208 0.5468 0.82411 0.0
H139 H 0.05242 0.54045 0.73324 0.0
H140 H 0.06106 0.39004 0.60527 0.0
H141 H 0.0669 0.43376 0.6685 0.0
C142 C 0.4006 0.98164 0.10803 0.0
C143 C 0.38768 0.00941 0.13191 0.0
C144 C 0.42537 0.98454 0.07191 0.0
C145 C 0.49235 0.03746 0.03178 0.0
H146 H 0.49074 0.98277 0.91103 0.0
C147 C 0.59421 0.03771 0.87646 0.0
C148 C 0.60348 0.00683 0.85832 0.0
C149 C 0.56724 0.04102 0.90885 0.0
C150 C 0.49166 -0.00195 0.94473 0.0
H151 H 0.39038 0.06208 0.13656 0.0
H152 H 0.43404 0.06718 0.07313 0.0
H153 H 0.44386 0.9836 0.968 0.0
H154 H 0.59248 0.95516 0.86104 0.0
H155 H 0.54593 0.96087 0.9177 0.0
H156 H 0.54054 0.0514 0.00878 0.0
C157 C 0.42493 0.04316 0.08261 0.0
C158 C 0.46478 -0.00143 0.97729 0.0
C159 C 0.39986 0.04027 0.11863 0.0
C160 C 0.58584 0.97931 0.87412 0.0
C161 C 0.55899 0.98261 0.90628 0.0
C162 C 0.51936 0.03692 -0.00089 0.0
C163 C 0.43794 0.01528 0.05895 0.0
C164 C 0.46509 0.01771 0.02174 0.0
C165 C 0.54905 0.01351 0.92342 0.0
C166 C 0.51955 0.01662 0.95586 0.0
H167 H 0.39176 0.95752 0.11755 0.0
H168 H 0.4352 0.96256 0.05493 0.0
H169 H 0.49336 0.05231 0.06594 0.0
H170 H 0.60736 0.05935 0.86481 0.0
H171 H 0.56012 0.06515 0.92136 0.0
C172 C 0.23831 0.90462 0.22917 0.0
C173 C 0.25321 0.92662 0.19547 0.0
C174 C 0.21628 0.88134 0.21095 0.0
C175 C 0.16419 0.86244 0.0984 0.0
H176 H 0.16068 0.77648 0.15941 0.0
C177 C 0.08939 0.7561 0.01256 0.0
C178 C 0.06928 0.73942 0.04716 0.0
C179 C 0.11254 0.77846 0.03021 0.0
C180 C 0.16133 0.80046 0.1422 0.0
H181 H 0.25731 0.94116 0.11623 0.0
H182 H 0.21986 0.90003 0.08421 0.0
H183 H 0.19994 0.81632 0.19103 0.0
H184 H 0.05793 0.73256 0.12727 0.0
H185 H 0.09868 0.77123 0.15805 0.0
H186 H 0.12593 0.84618 0.04893 0.0
C187 C 0.2243 0.9012 0.12489 0.0
C188 C 0.18369 0.82338 0.16044 0.0
C189 C 0.24598 0.92468 0.14319 0.0
C190 C 0.07307 0.74511 0.09971 0.0
C191 C 0.09649 0.7671 0.11736 0.0
C192 C 0.14213 0.83939 0.07977 0.0
C193 C 0.20896 0.87933 0.15852 0.0
C194 C 0.18534 0.85474 0.13892 0.0
C195 C 0.11629 0.78416 0.08279 0.0
C196 C 0.14038 0.80824 0.10163 0.0
H197 H 0.24334 0.90567 0.26971 0.0
H198 H 0.2046 0.86528 0.23813 0.0
H199 H 0.16424 0.8865 0.08148 0.0
H200 H 0.08698 0.75219 0.97186 0.0
H201 H 0.12766 0.79114 0.00278 0.0
C202 C 0.24612 0.07111 0.35012 0.0
C203 C 0.25298 0.06842 0.29774 0.0
C204 C 0.22411 0.09448 0.36786 0.0
C205 C 0.15345 0.1421 0.32914 0.0
H206 H 0.17543 0.19766 0.44388 0.0
C207 C 0.06881 0.2464 0.3928 0.0
C208 C 0.06607 0.25295 0.44522 0.0
C209 C 0.09225 0.22459 0.37475 0.0
C210 C 0.16866 0.18204 0.4123 0.0
H211 H 0.24223 0.08799 0.22284 0.0
H212 H 0.20318 0.12856 0.25388 0.0
H213 H 0.21513 0.15818 0.41249 0.0
H214 H 0.08553 0.24173 0.51997 0.0
H215 H 0.1258 0.20273 0.48878 0.0
H216 H 0.10673 0.16502 0.32959 0.0
C217 C 0.21499 0.11262 0.28111 0.0
C218 C 0.19151 0.15955 0.39419 0.0
C219 C 0.2374 0.08954 0.26341 0.0
C220 C 0.08722 0.23724 0.47932 0.0
C221 C 0.11044 0.21505 0.46133 0.0
C222 C 0.13045 0.16426 0.34762 0.0
C223 C 0.20818 0.11532 0.33352 0.0
C224 C 0.18414 0.13944 0.35237 0.0
C225 C 0.11325 0.20841 0.40875 0.0
C226 C 0.13776 0.18462 0.38937 0.0
H227 H 0.25783 0.05518 0.37747 0.0
H228 H 0.2191 0.09586 0.4084 0.0
H229 H 0.14699 0.12655 0.29728 0.0
H230 H 0.053 0.25837 0.36555 0.0
H231 H 0.09407 0.22069 0.33398 0.0
C232 C 0.747 0.06826 0.64238 0.0
C233 C 0.74012 0.06617 0.69476 0.0
C234 C 0.76864 0.09173 0.62396 0.0
C235 C 0.80997 0.16918 0.65997 0.0
H236 H 0.86666 0.14671 0.54678 0.0
C237 C 0.92088 0.2468 0.59868 0.0
C238 C 0.92407 0.25313 0.54624 0.0
C239 C 0.89747 0.22482 0.61631 0.0
C240 C 0.85077 0.1534 0.57811 0.0
H241 H 0.75059 0.08682 0.76907 0.0
H242 H 0.7893 0.12713 0.73729 0.0
H243 H 0.82832 0.10644 0.57935 0.0
H244 H 0.90536 0.24146 0.47108 0.0
H245 H 0.86471 0.20245 0.50195 0.0
H246 H 0.83337 0.21589 0.65942 0.0
C247 C 0.77735 0.11123 0.71011 0.0
C248 C 0.82868 0.13038 0.59674 0.0
C249 C 0.75534 0.08799 0.72845 0.0
C250 C 0.9034 0.23705 0.51171 0.0
C251 C 0.88028 0.21467 0.52931 0.0
C252 C 0.83238 0.19204 0.64173 0.0
C253 C 0.78431 0.11341 0.65758 0.0
C254 C 0.80792 0.13797 0.63787 0.0
C255 C 0.87709 0.20838 0.5818 0.0
C256 C 0.85295 0.18437 0.60059 0.0
H257 H 0.73541 0.05192 0.61544 0.0
H258 H 0.7728 0.09303 0.58322 0.0
H259 H 0.79402 0.17617 0.69102 0.0
H260 H 0.93644 0.25889 0.62619 0.0
H261 H 0.89569 0.22021 0.65692 0.0
C262 C 0.75485 0.90243 0.76606 0.0
C263 C 0.73947 0.92421 0.79965 0.0
C264 C 0.77692 0.8793 0.78452 0.0
C265 C 0.82834 0.86078 0.89787 0.0
H266 H 0.83392 0.77527 0.8354 0.0
C267 C 0.90505 0.75538 0.98232 0.0
C268 C 0.92562 0.7394 0.94752 0.0
C269 C 0.88152 0.77741 0.96498 0.0
C270 C 0.83269 0.79913 0.85303 0.0
H271 H 0.73447 0.93845 0.87894 0.0
H272 H 0.77198 0.89754 0.91137 0.0
H273 H 0.79404 0.81448 0.80393 0.0
H274 H 0.93746 0.7335 0.86737 0.0
H275 H 0.89607 0.7716 0.83714 0.0
H276 H 0.86665 0.84501 0.94756 0.0
C277 C 0.7679 0.89879 0.87061 0.0
C278 C 0.80997 0.82168 0.83488 0.0
C279 C 0.74618 0.92214 0.85207 0.0
C280 C 0.92197 0.74551 0.89509 0.0
C281 C 0.89818 0.76716 0.87774 0.0
C282 C 0.85075 0.83807 0.9164 0.0
C283 C 0.78378 0.87721 0.83708 0.0
C284 C 0.8076 0.8529 0.85687 0.0
C285 C 0.87786 0.78347 0.91251 0.0
C286 C 0.85328 0.80711 0.89397 0.0
H287 H 0.75023 0.90359 0.72541 0.0
H288 H 0.78902 0.86347 0.75741 0.0
H289 H 0.82773 0.88474 0.91518 0.0
H290 H 0.90735 0.75113 0.02294 0.0
H291 H 0.86601 0.78953 0.99256 0.0
loop_
_geom_bond_atom_site_label_1
_geom_bond_atom_site_label_2
_geom_bond_distance
_geom_bond_site_symmetry_2
_ccdc_geom_bond_type
In0 O1 2.294 1_554 S
In0 O2 2.326 . S
In0 O6 2.266 1_554 S
In0 O7 2.326 1_454 S
In0 O8 2.266 1_455 S
In0 O9 2.326 . S
In0 O11 2.294 1_455 S
In0 O12 2.326 1_454 S
O1 In0 2.294 1_556 S
O1 C10 1.240 1_556 S
O2 In0 2.326 . S
O2 C10 1.252 . S
C3 O6 1.254 . S
C3 O7 1.258 1_455 S
C4 O11 1.240 1_556 S
C4 O12 1.252 . S
C5 O8 1.254 1_455 S
C5 O9 1.258 . S
O6 In0 2.266 1_556 S
O6 C3 1.254 . S
O7 In0 2.326 1_656 S
O7 C3 1.258 1_655 S
O8 In0 2.266 1_655 S
O8 C5 1.254 1_655 S
O9 In0 2.326 . S
O9 C5 1.258 . S
C10 O1 1.240 1_554 S
C10 O2 1.252 . S
O11 In0 2.294 1_655 S
O11 C4 1.240 1_554 S
O12 In0 2.326 1_656 S
O12 C4 1.252 . S
In13 O14 2.294 1_545 S
In13 O15 2.326 1_545 S
In13 O19 2.266 1_545 S
In13 O20 2.326 . S
In13 O21 2.266 . S
In13 O22 2.326 1_545 S
In13 O24 2.294 . S
In13 O25 2.326 . S
O14 In13 2.294 1_565 S
O14 C23 1.240 . S
O15 In13 2.326 1_565 S
O15 C23 1.252 . S
C16 O19 1.254 1_545 S
C16 O20 1.258 . S
C17 O24 1.240 . S
C17 O25 1.252 . S
C18 O21 1.254 . S
C18 O22 1.258 1_545 S
O19 In13 2.266 1_565 S
O19 C16 1.254 1_565 S
O20 In13 2.326 . S
O20 C16 1.258 . S
O21 In13 2.266 . S
O21 C18 1.254 . S
O22 In13 2.326 1_565 S
O22 C18 1.258 1_565 S
C23 O14 1.240 . S
C23 O15 1.252 . S
O24 In13 2.294 . S
O24 C17 1.240 . S
O25 In13 2.326 . S
O25 C17 1.252 . S
In26 O27 2.294 . S
In26 O28 2.326 . S
In26 O32 2.266 . S
In26 O33 2.326 1_455 S
In26 O34 2.266 1_455 S
In26 O35 2.326 . S
In26 O37 2.294 1_455 S
In26 O38 2.326 1_455 S
O27 In26 2.294 . S
O27 C36 1.240 . S
O28 In26 2.326 . S
O28 C36 1.252 . S
C29 O32 1.254 . S
C29 O33 1.258 1_455 S
C30 O37 1.240 . S
C30 O38 1.252 . S
C31 O34 1.254 1_455 S
C31 O35 1.258 . S
O32 In26 2.266 . S
O32 C29 1.254 . S
O33 In26 2.326 1_655 S
O33 C29 1.258 1_655 S
O34 In26 2.266 1_655 S
O34 C31 1.254 1_655 S
O35 In26 2.326 . S
O35 C31 1.258 . S
C36 O27 1.240 . S
C36 O28 1.252 . S
O37 In26 2.294 1_655 S
O37 C30 1.240 . S
O38 In26 2.326 1_655 S
O38 C30 1.252 . S
In39 O40 2.294 1_545 S
In39 O41 2.326 1_545 S
In39 O45 2.266 1_545 S
In39 O46 2.326 . S
In39 O47 2.266 . S
In39 O48 2.326 1_545 S
In39 O50 2.294 . S
In39 O51 2.326 . S
O40 In39 2.294 1_565 S
O40 C49 1.240 . S
O41 In39 2.326 1_565 S
O41 C49 1.252 . S
C42 O45 1.254 1_545 S
C42 O46 1.258 . S
C43 O50 1.240 . S
C43 O51 1.252 . S
C44 O47 1.254 . S
C44 O48 1.258 1_545 S
O45 In39 2.266 1_565 S
O45 C42 1.254 1_565 S
O46 In39 2.326 . S
O46 C42 1.258 . S
O47 In39 2.266 . S
O47 C44 1.254 . S
O48 In39 2.326 1_565 S
O48 C44 1.258 1_565 S
C49 O40 1.240 . S
C49 O41 1.252 . S
O50 In39 2.294 . S
O50 C43 1.240 . S
O51 In39 2.326 . S
O51 C43 1.252 . S
C52 C53 1.359 . S
C52 C54 1.327 . S
C52 H77 0.950 . S
C53 C52 1.359 . S
C53 C69 1.339 1_655 S
C54 C52 1.327 . S
C54 C73 1.438 . S
C54 H78 0.950 . S
C55 C72 1.574 . S
C55 C74 1.358 1_455 S
C55 H79 0.949 . S
H56 C60 0.949 . S
C57 C58 1.339 1_455 S
C57 C59 1.327 . S
C57 H80 0.950 . S
C58 C57 1.339 1_655 S
C58 C70 1.359 . S
C59 C57 1.327 . S
C59 C75 1.419 1_455 S
C59 H81 0.950 . S
C60 H56 0.949 . S
C60 C68 1.574 . S
C60 C76 1.379 . S
H61 C69 0.950 . S
H62 C67 0.950 . S
H63 C68 0.949 . S
H64 C70 0.950 . S
H65 C71 0.950 . S
H66 C72 0.949 . S
C67 H62 0.950 . S
C67 C69 1.327 . S
C67 C73 1.419 1_455 S
C68 C60 1.574 . S
C68 H63 0.949 . S
C68 C74 1.379 . S
C69 C53 1.339 1_455 S
C69 H61 0.950 . S
C69 C67 1.327 . S
C70 C58 1.359 . S
C70 H64 0.950 . S
C70 C71 1.327 . S
C71 H65 0.950 . S
C71 C70 1.327 . S
C71 C75 1.438 . S
C72 C55 1.574 . S
C72 H66 0.949 . S
C72 C76 1.358 1_455 S
C73 C54 1.438 . S
C73 C67 1.419 1_655 S
C73 C74 1.523 . S
C74 C55 1.358 1_655 S
C74 C68 1.379 . S
C74 C73 1.523 . S
C75 C59 1.419 1_655 S
C75 C71 1.438 . S
C75 C76 1.523 . S
C76 C60 1.379 . S
C76 C72 1.358 1_655 S
C76 C75 1.523 . S
H77 C52 0.950 . S
H78 C54 0.950 . S
H79 C55 0.949 . S
H80 C57 0.950 . S
H81 C59 0.950 . S
C82 C83 1.332 1_545 S
C82 C84 1.327 . S
C82 H107 0.950 . S
C83 C82 1.332 1_565 S
C83 C99 1.366 . S
C84 C82 1.327 . S
C84 C103 1.413 1_545 S
C84 H108 0.950 . S
C85 C102 1.574 . S
C85 C104 1.386 . S
C85 H109 0.949 . S
H86 C90 0.949 . S
C87 C88 1.366 . S
C87 C89 1.327 . S
C87 H110 0.950 . S
C88 C87 1.366 . S
C88 C100 1.332 1_565 S
C89 C87 1.327 . S
C89 C105 1.445 . S
C89 H111 0.950 . S
C90 H86 0.949 . S
C90 C98 1.574 . S
C90 C106 1.351 1_545 S
H91 C99 0.950 . S
H92 C97 0.950 . S
H93 C98 0.949 . S
H94 C100 0.950 . S
H95 C101 0.950 . S
H96 C102 0.949 . S
C97 H92 0.950 . S
C97 C99 1.327 . S
C97 C103 1.445 . S
C98 C90 1.574 . S
C98 H93 0.949 . S
C98 C104 1.351 1_545 S
C99 C83 1.366 . S
C99 H91 0.950 . S
C99 C97 1.327 . S
C100 C88 1.332 1_545 S
C100 H94 0.950 . S
C100 C101 1.327 . S
C101 H95 0.950 . S
C101 C100 1.327 . S
C101 C105 1.413 1_545 S
C102 C85 1.574 . S
C102 H96 0.949 . S
C102 C106 1.386 . S
C103 C84 1.413 1_565 S
C103 C97 1.445 . S
C103 C104 1.523 . S
C104 C85 1.386 . S
C104 C98 1.351 1_565 S
C104 C103 1.523 . S
C105 C89 1.445 . S
C105 C101 1.413 1_565 S
C105 C106 1.523 . S
C106 C90 1.351 1_565 S
C106 C102 1.386 . S
C106 C105 1.523 . S
H107 C82 0.950 . S
H108 C84 0.950 . S
H109 C85 0.949 . S
H110 C87 0.950 . S
H111 C89 0.950 . S
C112 C113 1.328 1_655 S
C112 C114 1.327 . S
C112 H137 0.950 . S
C113 C112 1.328 1_455 S
C113 C129 1.370 . S
C114 C112 1.327 . S
C114 C133 1.408 1_655 S
C114 H138 0.950 . S
C115 C132 1.574 . S
C115 C134 1.391 . S
C115 H139 0.949 . S
H116 C120 0.949 . S
C117 C118 1.370 . S
C117 C119 1.327 . S
C117 H140 0.950 . S
C118 C117 1.370 . S
C118 C130 1.328 1_455 S
C119 C117 1.327 . S
C119 C135 1.449 . S
C119 H141 0.950 . S
C120 H116 0.949 . S
C120 C128 1.574 . S
C120 C136 1.346 1_655 S
H121 C129 0.950 . S
H122 C127 0.950 . S
H123 C128 0.949 . S
H124 C130 0.950 . S
H125 C131 0.950 . S
H126 C132 0.949 . S
C127 H122 0.950 . S
C127 C129 1.327 . S
C127 C133 1.449 . S
C128 C120 1.574 . S
C128 H123 0.949 . S
C128 C134 1.346 1_655 S
C129 C113 1.370 . S
C129 H121 0.950 . S
C129 C127 1.327 . S
C130 C118 1.328 1_655 S
C130 H124 0.950 . S
C130 C131 1.327 . S
C131 H125 0.950 . S
C131 C130 1.327 . S
C131 C135 1.408 1_655 S
C132 C115 1.574 . S
C132 H126 0.949 . S
C132 C136 1.391 . S
C133 C114 1.408 1_455 S
C133 C127 1.449 . S
C133 C134 1.523 . S
C134 C115 1.391 . S
C134 C128 1.346 1_455 S
C134 C133 1.523 . S
C135 C119 1.449 . S
C135 C131 1.408 1_455 S
C135 C136 1.523 . S
C136 C120 1.346 1_455 S
C136 C132 1.391 . S
C136 C135 1.523 . S
H137 C112 0.950 . S
H138 C114 0.950 . S
H139 C115 0.949 . S
H140 C117 0.950 . S
H141 C119 0.950 . S
C142 C143 1.327 1_565 S
C142 C144 1.327 . S
C142 H167 0.950 . S
C143 C142 1.327 1_545 S
C143 C159 1.371 . S
C144 C142 1.327 . S
C144 C163 1.407 1_565 S
C144 H168 0.950 . S
C145 C162 1.574 . S
C145 C164 1.392 . S
C145 H169 0.949 . S
H146 C150 0.949 . S
C147 C148 1.371 . S
C147 C149 1.327 . S
C147 H170 0.950 . S
C148 C147 1.371 . S
C148 C160 1.327 1_545 S
C149 C147 1.327 . S
C149 C165 1.450 . S
C149 H171 0.950 . S
C150 H146 0.949 . S
C150 C158 1.574 . S
C150 C166 1.345 1_565 S
H151 C159 0.950 . S
H152 C157 0.950 . S
H153 C158 0.949 . S
H154 C160 0.950 . S
H155 C161 0.950 . S
H156 C162 0.949 . S
C157 H152 0.950 . S
C157 C159 1.327 . S
C157 C163 1.450 . S
C158 C150 1.574 . S
C158 H153 0.949 . S
C158 C164 1.345 1_566 S
C159 C143 1.371 . S
C159 H151 0.950 . S
C159 C157 1.327 . S
C160 C148 1.327 1_565 S
C160 H154 0.950 . S
C160 C161 1.327 . S
C161 H155 0.950 . S
C161 C160 1.327 . S
C161 C165 1.407 1_565 S
C162 C145 1.574 . S
C162 H156 0.949 . S
C162 C166 1.392 1_554 S
C163 C144 1.407 1_545 S
C163 C157 1.450 . S
C163 C164 1.523 . S
C164 C145 1.392 . S
C164 C158 1.345 1_544 S
C164 C163 1.523 . S
C165 C149 1.450 . S
C165 C161 1.407 1_545 S
C165 C166 1.523 . S
C166 C150 1.345 1_545 S
C166 C162 1.392 1_556 S
C166 C165 1.523 . S
H167 C142 0.950 . S
H168 C144 0.950 . S
H169 C145 0.949 . S
H170 C147 0.950 . S
H171 C149 0.950 . S
C172 C173 1.349 . S
C172 C174 1.327 . S
C172 H197 0.950 . S
C173 C172 1.349 . S
C173 C189 1.349 . S
C174 C172 1.327 . S
C174 C193 1.429 . S
C174 H198 0.950 . S
C175 C192 1.574 . S
C175 C194 1.368 . S
C175 H199 0.949 . S
H176 C180 0.949 . S
C177 C178 1.349 . S
C177 C179 1.327 . S
C177 H200 0.950 1_554 S
C178 C177 1.349 . S
C178 C190 1.349 . S
C179 C177 1.327 . S
C179 C195 1.429 . S
C179 H201 0.950 . S
C180 H176 0.949 . S
C180 C188 1.574 . S
C180 C196 1.368 . S
H181 C189 0.950 . S
H182 C187 0.950 . S
H183 C188 0.949 . S
H184 C190 0.950 . S
H185 C191 0.950 . S
H186 C192 0.949 . S
C187 H182 0.950 . S
C187 C189 1.327 . S
C187 C193 1.429 . S
C188 C180 1.574 . S
C188 H183 0.949 . S
C188 C194 1.368 . S
C189 C173 1.349 . S
C189 H181 0.950 . S
C189 C187 1.327 . S
C190 C178 1.349 . S
C190 H184 0.950 . S
C190 C191 1.327 . S
C191 H185 0.950 . S
C191 C190 1.327 . S
C191 C195 1.429 . S
C192 C175 1.574 . S
C192 H186 0.949 . S
C192 C196 1.368 . S
C193 C174 1.429 . S
C193 C187 1.429 . S
C193 C194 1.523 . S
C194 C175 1.368 . S
C194 C188 1.368 . S
C194 C193 1.523 . S
C195 C179 1.429 . S
C195 C191 1.429 . S
C195 C196 1.523 . S
C196 C180 1.368 . S
C196 C192 1.368 . S
C196 C195 1.523 . S
H197 C172 0.950 . S
H198 C174 0.950 . S
H199 C175 0.949 . S
H200 C177 0.950 1_556 S
H201 C179 0.950 . S
C202 C203 1.349 . S
C202 C204 1.327 . S
C202 H227 0.950 . S
C203 C202 1.349 . S
C203 C219 1.349 . S
C204 C202 1.327 . S
C204 C223 1.429 . S
C204 H228 0.950 . S
C205 C222 1.574 . S
C205 C224 1.368 . S
C205 H229 0.949 . S
H206 C210 0.949 . S
C207 C208 1.349 . S
C207 C209 1.327 . S
C207 H230 0.950 . S
C208 C207 1.349 . S
C208 C220 1.349 . S
C209 C207 1.327 . S
C209 C225 1.429 . S
C209 H231 0.950 . S
C210 H206 0.949 . S
C210 C218 1.574 . S
C210 C226 1.368 . S
H211 C219 0.950 . S
H212 C217 0.950 . S
H213 C218 0.949 . S
H214 C220 0.950 . S
H215 C221 0.950 . S
H216 C222 0.949 . S
C217 H212 0.950 . S
C217 C219 1.327 . S
C217 C223 1.429 . S
C218 C210 1.574 . S
C218 H213 0.949 . S
C218 C224 1.368 . S
C219 C203 1.349 . S
C219 H211 0.950 . S
C219 C217 1.327 . S
C220 C208 1.349 . S
C220 H214 0.950 . S
C220 C221 1.327 . S
C221 H215 0.950 . S
C221 C220 1.327 . S
C221 C225 1.429 . S
C222 C205 1.574 . S
C222 H216 0.949 . S
C222 C226 1.368 . S
C223 C204 1.429 . S
C223 C217 1.429 . S
C223 C224 1.523 . S
C224 C205 1.368 . S
C224 C218 1.368 . S
C224 C223 1.523 . S
C225 C209 1.429 . S
C225 C221 1.429 . S
C225 C226 1.523 . S
C226 C210 1.368 . S
C226 C222 1.368 . S
C226 C225 1.523 . S
H227 C202 0.950 . S
H228 C204 0.950 . S
H229 C205 0.949 . S
H230 C207 0.950 . S
H231 C209 0.950 . S
C232 C233 1.349 . S
C232 C234 1.327 . S
C232 H257 0.950 . S
C233 C232 1.349 . S
C233 C249 1.349 . S
C234 C232 1.327 . S
C234 C253 1.429 . S
C234 H258 0.950 . S
C235 C252 1.574 . S
C235 C254 1.368 . S
C235 H259 0.949 . S
H236 C240 0.949 . S
C237 C238 1.349 . S
C237 C239 1.327 . S
C237 H260 0.950 . S
C238 C237 1.349 . S
C238 C250 1.349 . S
C239 C237 1.327 . S
C239 C255 1.429 . S
C239 H261 0.950 . S
C240 H236 0.949 . S
C240 C248 1.574 . S
C240 C256 1.368 . S
H241 C249 0.950 . S
H242 C247 0.950 . S
H243 C248 0.949 . S
H244 C250 0.950 . S
H245 C251 0.950 . S
H246 C252 0.949 . S
C247 H242 0.950 . S
C247 C249 1.327 . S
C247 C253 1.429 . S
C248 C240 1.574 . S
C248 H243 0.949 . S
C248 C254 1.368 . S
C249 C233 1.349 . S
C249 H241 0.950 . S
C249 C247 1.327 . S
C250 C238 1.349 . S
C250 H244 0.950 . S
C250 C251 1.327 . S
C251 H245 0.950 . S
C251 C250 1.327 . S
C251 C255 1.429 . S
C252 C235 1.574 . S
C252 H246 0.949 . S
C252 C256 1.368 . S
C253 C234 1.429 . S
C253 C247 1.429 . S
C253 C254 1.523 . S
C254 C235 1.368 . S
C254 C248 1.368 . S
C254 C253 1.523 . S
C255 C239 1.429 . S
C255 C251 1.429 . S
C255 C256 1.523 . S
C256 C240 1.368 . S
C256 C252 1.368 . S
C256 C255 1.523 . S
H257 C232 0.950 . S
H258 C234 0.950 . S
H259 C235 0.949 . S
H260 C237 0.950 . S
H261 C239 0.950 . S
C262 C263 1.349 . S
C262 C264 1.327 . S
C262 H287 0.950 . S
C263 C262 1.349 . S
C263 C279 1.349 . S
C264 C262 1.327 . S
C264 C283 1.429 . S
C264 H288 0.950 . S
C265 C282 1.574 . S
C265 C284 1.368 . S
C265 H289 0.949 . S
H266 C270 0.949 . S
C267 C268 1.349 . S
C267 C269 1.327 . S
C267 H290 0.950 1_556 S
C268 C267 1.349 . S
C268 C280 1.349 . S
C269 C267 1.327 . S
C269 C285 1.429 . S
C269 H291 0.950 . S
C270 H266 0.949 . S
C270 C278 1.574 . S
C270 C286 1.368 . S
H271 C279 0.950 . S
H272 C277 0.950 . S
H273 C278 0.949 . S
H274 C280 0.950 . S
H275 C281 0.950 . S
H276 C282 0.949 . S
C277 H272 0.950 . S
C277 C279 1.327 . S
C277 C283 1.429 . S
C278 C270 1.574 . S
C278 H273 0.949 . S
C278 C284 1.368 . S
C279 C263 1.349 . S
C279 H271 0.950 . S
C279 C277 1.327 . S
C280 C268 1.349 . S
C280 H274 0.950 . S
C280 C281 1.327 . S
C281 H275 0.950 . S
C281 C280 1.327 . S
C281 C285 1.429 . S
C282 C265 1.574 . S
C282 H276 0.949 . S
C282 C286 1.368 . S
C283 C264 1.429 . S
C283 C277 1.429 . S
C283 C284 1.523 . S
C284 C265 1.368 . S
C284 C278 1.368 . S
C284 C283 1.523 . S
C285 C269 1.429 . S
C285 C281 1.429 . S
C285 C286 1.523 . S
C286 C270 1.368 . S
C286 C282 1.368 . S
C286 C285 1.523 . S
H287 C262 0.950 . S
H288 C264 0.950 . S
H289 C265 0.949 . S
H290 C267 0.950 1_554 S
H291 C269 0.950 . S
C53 C5 1.453 1_655 S
C58 C31 1.451 1_655 S
C83 C16 1.453 1_565 S
C88 C42 1.453 1_565 S
C113 C3 1.453 . S
C118 C29 1.455 . S
C143 C18 1.453 . S
C148 C44 1.453 . S
C173 C23 1.568 . S
C178 C10 1.567 . S
C203 C17 1.568 . S
C208 C36 1.563 . S
C233 C43 1.568 . S
C238 C30 1.568 . S
C263 C49 1.568 . S
C268 C4 1.574 . S
