# Generated by pormake.
# Topology svf, (7)-cn, num edge types: 1
# Building blocks:
#     Node 0, Type 0, BuildingBlock: HICVOG_clean_sbu_0, # of connection points: 7
#     Node 1, Type 0, BuildingBlock: HICVOG_clean_sbu_0, # of connection points: 7
#     Node 2, Type 0, BuildingBlock: HICVOG_clean_sbu_0, # of connection points: 7
#     Node 3, Type 0, BuildingBlock: HICVOG_clean_sbu_0, # of connection points: 7
#     Node 4, Type 0, BuildingBlock: HICVOG_clean_sbu_0, # of connection points: 7
#     Node 5, Type 0, BuildingBlock: HICVOG_clean_sbu_0, # of connection points: 7
#     Node 6, Type 0, BuildingBlock: HICVOG_clean_sbu_0, # of connection points: 7
#     Node 7, Type 0, BuildingBlock: HICVOG_clean_sbu_0, # of connection points: 7
#     Edge 8, Type (0, 0), BuildingBlock: KIFKEQ_clean_linker_1, # of connection points: 2
#     Edge 9, Type (0, 0), BuildingBlock: KIFKEQ_clean_linker_1, # of connection points: 2
#     Edge 10, Type (0, 0), BuildingBlock: KIFKEQ_clean_linker_1, # of connection points: 2
#     Edge 11, Type (0, 0), BuildingBlock: KIFKEQ_clean_linker_1, # of connection points: 2
#     Edge 12, Type (0, 0), BuildingBlock: KIFKEQ_clean_linker_1, # of connection points: 2
#     Edge 13, Type (0, 0), BuildingBlock: KIFKEQ_clean_linker_1, # of connection points: 2
#     Edge 14, Type (0, 0), BuildingBlock: KIFKEQ_clean_linker_1, # of connection points: 2
#     Edge 15, Type (0, 0), BuildingBlock: KIFKEQ_clean_linker_1, # of connection points: 2
#     Edge 16, Type (0, 0), BuildingBlock: KIFKEQ_clean_linker_1, # of connection points: 2
#     Edge 17, Type (0, 0), BuildingBlock: KIFKEQ_clean_linker_1, # of connection points: 2
#     Edge 18, Type (0, 0), BuildingBlock: KIFKEQ_clean_linker_1, # of connection points: 2
#     Edge 19, Type (0, 0), BuildingBlock: KIFKEQ_clean_linker_1, # of connection points: 2
#     Edge 20, Type (0, 0), BuildingBlock: KIFKEQ_clean_linker_1, # of connection points: 2
#     Edge 21, Type (0, 0), BuildingBlock: KIFKEQ_clean_linker_1, # of connection points: 2
#     Edge 22, Type (0, 0), BuildingBlock: KIFKEQ_clean_linker_1, # of connection points: 2
#     Edge 23, Type (0, 0), BuildingBlock: KIFKEQ_clean_linker_1, # of connection points: 2
#     Edge 24, Type (0, 0), BuildingBlock: KIFKEQ_clean_linker_1, # of connection points: 2
#     Edge 25, Type (0, 0), BuildingBlock: KIFKEQ_clean_linker_1, # of connection points: 2
#     Edge 26, Type (0, 0), BuildingBlock: KIFKEQ_clean_linker_1, # of connection points: 2
#     Edge 27, Type (0, 0), BuildingBlock: KIFKEQ_clean_linker_1, # of connection points: 2
#     Edge 28, Type (0, 0), BuildingBlock: KIFKEQ_clean_linker_1, # of connection points: 2
#     Edge 29, Type (0, 0), BuildingBlock: KIFKEQ_clean_linker_1, # of connection points: 2
#     Edge 30, Type (0, 0), BuildingBlock: KIFKEQ_clean_linker_1, # of connection points: 2
#     Edge 31, Type (0, 0), BuildingBlock: KIFKEQ_clean_linker_1, # of connection points: 2
#     Edge 32, Type (0, 0), BuildingBlock: KIFKEQ_clean_linker_1, # of connection points: 2
#     Edge 33, Type (0, 0), BuildingBlock: KIFKEQ_clean_linker_1, # of connection points: 2
#     Edge 34, Type (0, 0), BuildingBlock: KIFKEQ_clean_linker_1, # of connection points: 2
#     Edge 35, Type (0, 0), BuildingBlock: KIFKEQ_clean_linker_1, # of connection points: 2
# Relax obj value: 0.347
# Max RMSD: 0.192
# Mean RMSD: 0.192
data_MOF--net-svf--node1-HICVOG_clean_sbu_0--edge1-KIFKEQ_clean_linker_1
_symmetry_space_group_name_H-M    P1
_symmetry_Int_Tables_number       1
_symmetry_cell_setting            triclinic
loop_
_symmetry_equiv_pos_as_xyz
'x, y, z'
_cell_length_a     34.374125
_cell_length_b     33.862917
_cell_length_c     23.702846
_cell_angle_alpha  89.420782
_cell_angle_beta   89.700603
_cell_angle_gamma 89.846174
loop_
_atom_site_label
_atom_site_type_symbol
_atom_site_fract_x
_atom_site_fract_y
_atom_site_fract_z
_atom_type_partial_charge
Zn0 Zn 0.19285 0.38168 1.01244 0.0
C1 C 0.21976 0.29476 0.12137 0.0
N2 N 0.23141 0.27441 1.07544 0.0
C3 C 0.22159 0.29907 1.03233 0.0
N4 N 0.2045 0.33263 1.05162 0.0
N5 N 0.20282 0.32941 0.10702 0.0
C6 C 0.22536 0.42131 0.19493 0.0
O7 O 0.22263 0.43315 0.1423 0.0
O8 O 0.17529 0.36643 0.93432 0.0
Zn9 Zn 0.17237 0.361 0.15884 0.0
N10 N 0.24039 0.41241 1.02034 0.0
C11 C 0.30671 0.41391 1.04972 0.0
C12 C 0.27384 0.39287 1.03399 0.0
C13 C 0.23845 0.45241 1.02359 0.0
N14 N 0.30472 0.45376 1.05305 0.0
C15 C 0.27127 0.47366 1.04141 0.0
O16 O 0.13122 0.40001 0.12876 0.0
C17 C 0.12455 0.4196 1.0836 0.0
O18 O 0.14614 0.41497 1.04024 0.0
H19 H 0.27499 0.36106 1.0346 0.0
H20 H 0.21131 0.46723 1.01402 0.0
C21 C 0.15297 0.32006 0.25916 0.0
C22 C 0.14039 0.28706 0.29002 0.0
C23 C 0.11345 0.26033 0.20672 0.0
C24 C 0.12622 0.29319 0.17611 0.0
N25 N 0.146 0.32208 0.20299 0.0
N26 N 0.12091 0.25795 0.26284 0.0
H27 H 0.16967 0.34307 0.27895 0.0
C28 C 0.14805 0.3413 0.9409 0.0
O29 O 0.13682 0.33191 0.99237 0.0
O30 O 0.20672 0.39092 0.21083 0.0
H31 H 0.12203 0.29495 0.13095 0.0
H32 H 0.33341 0.39862 1.06029 0.0
H33 H 0.09819 0.23669 0.18602 0.0
Zn34 Zn 0.66159 0.16461 0.18147 0.0
C35 C 0.72634 0.21695 1.05724 0.0
N36 N 0.74723 0.22966 0.10191 0.0
C37 C 0.72671 0.21604 0.14694 0.0
N38 N 0.69511 0.19536 0.13077 0.0
N39 N 0.69455 0.19592 1.07496 0.0
C40 C 0.6891 0.11845 0.98018 0.0
O41 O 0.69649 0.11332 1.03411 0.0
O42 O 0.62289 0.19822 0.22357 0.0
Zn43 Zn 0.64945 0.17817 1.03238 0.0
N44 N 0.69703 0.13824 0.23042 0.0
C45 C 0.73182 0.12502 0.31457 0.0
C46 C 0.70409 0.14704 0.28512 0.0
C47 C 0.71591 0.10847 0.204 0.0
N48 N 0.74966 0.09414 0.28872 0.0
C49 C 0.74214 0.08474 0.23399 0.0
O50 O 0.61266 0.13498 1.06322 0.0
C51 C 0.60876 0.11255 0.1063 0.0
O52 O 0.62823 0.11912 0.15075 0.0
H53 H 0.68858 0.17088 0.30534 0.0
H54 H 0.70963 0.10336 0.16007 0.0
C55 C 0.60872 0.23678 0.96512 0.0
C56 C 0.59645 0.27571 0.95433 0.0
C57 C 0.60485 0.29089 1.05077 0.0
C58 C 0.61961 0.25312 1.06042 0.0
N59 N 0.62078 0.22659 1.01767 0.0
N60 N 0.59401 0.30151 0.99784 0.0
H61 H 0.61095 0.21537 0.93165 0.0
C62 C 0.59153 0.2048 0.19672 0.0
O63 O 0.58904 0.19302 0.14437 0.0
O64 O 0.66911 0.14832 0.9649 0.0
H65 H 0.63147 0.24557 0.10121 0.0
H66 H 0.73839 0.13171 0.35801 0.0
H67 H 0.60347 0.31211 1.08454 0.0
Zn68 Zn 0.8269 0.65297 1.01528 0.0
C69 C 0.7851 0.72974 0.1292 0.0
N70 N 0.7649 0.74461 1.08486 0.0
C71 C 0.78021 0.72564 1.03987 0.0
N72 N 0.80828 0.69955 1.0564 0.0
N73 N 0.81268 0.70355 0.11156 0.0
C74 C 0.8288 0.62427 0.20802 0.0
O75 O 0.81919 0.61993 0.15486 0.0
O76 O 0.84424 0.66963 0.9371 0.0
Zn77 Zn 0.86033 0.6873 0.15145 0.0
N78 N 0.78444 0.61519 1.02355 0.0
C79 C 0.71855 0.60223 1.04949 0.0
C80 C 0.74743 0.62841 1.03213 0.0
C81 C 0.79365 0.5766 1.03288 0.0
N82 N 0.72778 0.56381 1.05866 0.0
C83 C 0.76469 0.55008 1.05146 0.0
O84 O 0.89793 0.64658 0.11833 0.0
C85 C 0.90138 0.62267 1.07775 0.0
O86 O 0.876 0.62242 1.03906 0.0
H87 H 0.74025 0.65921 1.02757 0.0
H88 H 0.8233 0.56697 1.02625 0.0
C89 C 0.93119 0.73123 0.15071 0.0
C90 C 0.95446 0.76479 0.14061 0.0
C91 C 0.89799 0.80504 0.14366 0.0
C92 C 0.8751 0.77169 0.15203 0.0
N93 N 0.89196 0.73529 0.15609 0.0
N94 N 0.93697 0.80085 0.13805 0.0
H95 H 0.94387 0.70206 0.15365 0.0
C96 C 0.86599 0.69996 0.93854 0.0
O97 O 0.87153 0.71728 0.98718 0.0
O98 O 0.84626 0.65581 0.22215 0.0
H99 H 0.84409 0.77525 0.15311 0.0
H100 H 0.68908 0.61245 1.05639 0.0
H101 H 0.88481 0.83402 0.14053 0.0
Zn102 Zn 0.34714 0.85126 1.01546 0.0
C103 C 0.27804 0.79785 0.13321 0.0
N104 N 0.26251 0.77894 0.08878 0.0
C105 C 0.27996 0.79646 1.04376 0.0
N106 N 0.30624 0.82407 1.06036 0.0
N107 N 0.30418 0.82555 0.116 0.0
C108 C 0.35958 0.82594 0.23472 0.0
O109 O 0.36618 0.80878 0.18612 0.0
O110 O 0.32726 0.89865 0.96916 0.0
Zn111 Zn 0.32127 0.87172 0.15659 0.0
N112 N 0.3652 0.80954 0.96791 0.0
C113 C 0.37515 0.74035 0.96124 0.0
C114 C 0.3712 0.77407 0.99373 0.0
C115 C 0.3644 0.81314 0.91092 0.0
N116 N 0.37263 0.74356 0.90433 0.0
C117 C 0.367 0.779 0.87773 0.0
O118 O 0.37195 0.89957 0.13273 0.0
C119 C 0.39938 0.89692 0.09658 0.0
O120 O 0.39577 0.87442 1.05408 0.0
H121 H 0.37098 0.77186 1.03929 0.0
H122 H 0.35973 0.84211 0.89282 0.0
C123 C 0.25611 0.92337 0.18852 0.0
C124 C 0.21956 0.94052 0.17684 0.0
C125 C 0.22829 0.92703 1.07991 0.0
C126 C 0.26319 0.90808 0.09213 0.0
N127 N 0.27684 0.90687 0.14594 0.0
N128 N 0.20708 0.94251 0.12255 0.0
H129 H 0.26737 0.92159 0.23101 0.0
C130 C 0.32776 0.93311 0.99027 0.0
O131 O 0.33844 0.93738 1.04278 0.0
O132 O 0.33655 0.85548 0.23596 0.0
H133 H 0.27854 0.8932 1.05896 0.0
H134 H 0.37928 0.71173 0.98101 0.0
H135 H 0.21751 0.92829 1.03713 0.0
Zn136 Zn 0.16364 0.66798 0.66637 0.0
C137 C 0.21247 0.73608 0.54627 0.0
N138 N 0.22656 0.75616 0.59082 0.0
C139 C 0.20949 0.73744 0.63524 0.0
N140 N 0.18635 0.70757 0.61826 0.0
N141 N 0.18847 0.70657 0.56285 0.0
C142 C 0.21797 0.61555 0.48429 0.0
O143 O 0.22052 0.6081 0.53862 0.0
O144 O 0.12176 0.6928 0.71259 0.0
Zn145 Zn 0.15848 0.67414 0.51362 0.0
N146 N 0.20666 0.6517 0.71155 0.0
C147 C 0.27443 0.63776 0.71354 0.0
C148 C 0.23994 0.64219 0.68362 0.0
C149 C 0.2062 0.65689 0.76817 0.0
N150 N 0.27403 0.6426 0.77026 0.0
C151 C 0.24078 0.65195 0.79869 0.0
O152 O 0.11741 0.63577 0.54609 0.0
C153 C 0.11407 0.61405 0.59022 0.0
O154 O 0.13502 0.62015 0.63357 0.0
H155 H 0.23994 0.63991 0.63818 0.0
H156 H 0.1795 0.6661 0.78854 0.0
C157 C 0.14248 0.70883 0.40765 0.0
C158 C 0.13291 0.74046 0.37193 0.0
C159 C 0.10832 0.77574 0.45054 0.0
C160 C 0.11793 0.74416 0.48596 0.0
N161 N 0.13501 0.71157 0.46375 0.0
N162 N 0.11603 0.77319 0.39446 0.0
H163 H 0.15691 0.68288 0.39139 0.0
C164 C 0.09205 0.70424 0.68516 0.0
O165 O 0.09222 0.70145 0.62993 0.0
O166 O 0.1943 0.64165 0.46674 0.0
H167 H 0.11358 0.74628 0.53106 0.0
H168 H 0.30132 0.63077 0.69191 0.0
H169 H 0.09526 0.80222 0.46746 0.0
Zn170 Zn 0.3179 0.15289 0.51263 0.0
C171 C 0.28098 0.23286 0.62177 0.0
N172 N 0.25773 0.24515 0.5791 0.0
C173 C 0.27193 0.22514 0.5343 0.0
N174 N 0.30173 0.20106 0.54975 0.0
N175 N 0.30851 0.20726 0.60359 0.0
C176 C 0.3323 0.15382 0.71859 0.0
O177 O 0.32612 0.13697 0.66995 0.0
O178 O 0.33691 0.16838 0.43469 0.0
Zn179 Zn 0.35952 0.19941 0.6368 0.0
N180 N 0.27165 0.1202 0.52235 0.0
C181 C 0.22131 0.10291 0.58778 0.0
C182 C 0.2569 0.12058 0.57574 0.0
C183 C 0.25162 0.10297 0.48008 0.0
N184 N 0.20078 0.08672 0.54534 0.0
C185 C 0.21456 0.08695 0.49149 0.0
O186 O 0.39459 0.15329 0.60987 0.0
C187 C 0.39346 0.12456 0.57555 0.0
O188 O 0.36517 0.12129 0.54139 0.0
H189 H 0.27182 0.13595 0.60846 0.0
H190 H 0.26385 0.10313 0.43791 0.0
C191 C 0.42316 0.25324 0.64238 0.0
C192 C 0.44434 0.28741 0.62811 0.0
C193 C 0.39222 0.30943 0.57097 0.0
C194 C 0.37144 0.27542 0.58498 0.0
N195 N 0.38715 0.2481 0.62087 0.0
N196 N 0.42805 0.31485 0.59318 0.0
H197 H 0.43468 0.23111 0.67107 0.0
C198 C 0.3621 0.19557 0.44049 0.0
O199 O 0.3696 0.20818 0.49148 0.0
O200 O 0.35054 0.18643 0.71916 0.0
H201 H 0.34319 0.27095 0.56667 0.0
H202 H 0.20954 0.10309 0.6302 0.0
H203 H 0.37994 0.33139 0.54274 0.0
Zn204 Zn 0.87086 0.3298 0.53048 0.0
C205 C 0.79376 0.28832 0.64458 0.0
N206 N 0.77362 0.27537 0.59949 0.0
C207 C 0.79426 0.28979 0.55485 0.0
N208 N 0.82548 0.31109 0.57257 0.0
N209 N 0.82467 0.31043 0.62843 0.0
C210 C 0.92735 0.30131 0.69258 0.0
O211 O 0.92826 0.31029 0.63872 0.0
O212 O 0.85452 0.35886 0.45892 0.0
Zn213 Zn 0.85598 0.34144 0.68064 0.0
N214 N 0.90452 0.28369 0.52328 0.0
C215 C 0.91242 0.21442 0.53802 0.0
C216 C 0.88854 0.24729 0.53149 0.0
C217 C 0.94378 0.28839 0.52191 0.0
N218 N 0.95149 0.21924 0.53794 0.0
C219 C 0.96814 0.25539 0.53086 0.0
O220 O 0.88691 0.38982 0.6518 0.0
C221 C 0.90682 0.39634 0.60715 0.0
O222 O 0.90327 0.37409 0.56456 0.0
H223 H 0.85752 0.24364 0.53501 0.0
H224 H 0.95545 0.31775 0.51607 0.0
C225 C 0.82628 0.35394 0.79169 0.0
C226 C 0.79654 0.36166 0.83071 0.0
C227 C 0.75478 0.38053 0.75561 0.0
C228 C 0.78457 0.37333 0.71704 0.0
N229 N 0.81936 0.35947 0.73582 0.0
N230 N 0.76145 0.3746 0.81141 0.0
H231 H 0.85429 0.34288 0.80533 0.0
C232 C 0.834 0.389 0.4712 0.0
O233 O 0.82312 0.39366 0.52396 0.0
O234 O 0.89656 0.30867 0.72031 0.0
H235 H 0.77956 0.37701 0.67228 0.0
H236 H 0.90003 0.18539 0.54454 0.0
H237 H 0.72659 0.39068 0.74141 0.0
Zn238 Zn 0.66051 0.8564 0.49884 0.0
C239 C 0.71286 0.79705 0.62905 0.0
N240 N 0.73355 0.7816 0.58559 0.0
C241 C 0.71566 0.79675 0.53949 0.0
N242 N 0.68598 0.82105 0.55377 0.0
N243 N 0.68387 0.82116 0.60956 0.0
C244 C 0.68421 0.89638 0.71008 0.0
O245 O 0.69697 0.90054 0.65799 0.0
O246 O 0.62151 0.82725 0.45183 0.0
Zn247 Zn 0.64031 0.84488 0.64915 0.0
N248 N 0.7037 0.87454 0.45421 0.0
C249 C 0.76946 0.89549 0.45885 0.0
C250 C 0.73391 0.88824 0.48502 0.0
C251 C 0.70711 0.86858 0.39775 0.0
N252 N 0.77296 0.88983 0.40256 0.0
C253 C 0.74279 0.87674 0.37073 0.0
O254 O 0.61253 0.89214 0.61314 0.0
C255 C 0.60938 0.91373 0.56921 0.0
O256 O 0.62847 0.90525 0.52464 0.0
H257 H 0.73076 0.89179 0.53012 0.0
H258 H 0.68267 0.85681 0.37487 0.0
C259 C 0.56405 0.81426 0.64913 0.0
C260 C 0.53586 0.7853 0.63855 0.0
C261 C 0.585 0.73598 0.6439 0.0
C262 C 0.61287 0.76494 0.6527 0.0
N263 N 0.60184 0.80351 0.65552 0.0
N264 N 0.54735 0.7468 0.63676 0.0
H265 H 0.55692 0.84532 0.6483 0.0
C266 C 0.5906 0.81976 0.47949 0.0
O267 O 0.59005 0.8271 0.53363 0.0
O268 O 0.6585 0.87034 0.72055 0.0
H269 H 0.64315 0.75667 0.65452 0.0
H270 H 0.79405 0.90568 0.48292 0.0
H271 H 0.59332 0.70522 0.64134 0.0
H272 H 0.07755 0.4447 0.17104 0.0
H273 H 0.09607 0.46191 0.99231 0.0
H274 H 0.02473 0.49304 0.16876 0.0
H275 H 0.04331 0.51048 0.99008 0.0
H276 H 0.92017 0.56732 0.99689 0.0
H277 H 0.97306 0.51883 0.99775 0.0
H278 H 0.01144 0.56299 0.1582 0.0
H279 H 0.95856 0.61123 0.15748 0.0
C280 C 0.07044 0.4587 0.13112 0.0
C281 C 0.09146 0.44902 1.08187 0.0
C282 C 0.04012 0.48681 0.12987 0.0
C283 C 0.02938 0.50614 1.07924 0.0
C284 C 0.05018 0.49618 1.02987 0.0
C285 C 0.08076 0.4683 1.03121 0.0
C286 C 0.93993 0.56688 1.03232 0.0
C287 C 0.93471 0.59354 1.0771 0.0
C288 C 0.97054 0.53901 1.03272 0.0
C289 C 0.99688 0.53651 1.07814 0.0
C290 C 0.99169 0.56332 0.12276 0.0
C291 C 0.96131 0.59135 0.12216 0.0
H292 H 0.45661 0.91235 1.01692 0.0
H293 H 0.41927 0.94609 0.18373 0.0
H294 H 0.50796 0.96212 1.01954 0.0
H295 H 0.4702 0.99606 0.18611 0.0
H296 H 0.56554 0.08574 1.01671 0.0
H297 H 0.51773 0.03257 1.01537 0.0
H298 H 0.53881 1.00904 0.19188 0.0
H299 H 0.58632 0.06255 0.19334 0.0
C300 C 0.45949 0.93003 1.05448 0.0
C301 C 0.4335 0.92475 0.10016 0.0
C302 C 0.48886 0.95904 1.05577 0.0
C303 C 0.49353 0.9837 0.10294 0.0
C304 C 0.46813 0.97767 0.14916 0.0
C305 C 0.43863 0.94888 0.14771 0.0
C306 C 0.56012 0.06925 1.05533 0.0
C307 C 0.58005 0.0789 0.10518 0.0
C308 C 0.53271 0.03836 1.05447 0.0
C309 C 0.52396 0.01605 0.10351 0.0
C310 C 0.5441 0.02559 0.15329 0.0
C311 C 0.57171 0.05632 0.15407 0.0
H312 H 0.09519 0.56404 0.67879 0.0
H313 H 0.06359 0.59095 0.50664 0.0
H314 H 0.04537 0.5129 0.68292 0.0
H315 H 0.01326 0.54033 0.51108 0.0
H316 H 0.9528 0.41959 0.51761 0.0
H317 H 1.0021 0.47101 0.51377 0.0
H318 H 0.97679 0.50055 0.6869 0.0
H319 H 0.92778 0.44836 0.69104 0.0
C320 C 0.07768 0.55915 0.64168 0.0
C321 C 0.08388 0.58186 0.59225 0.0
C322 C 0.04868 0.52986 0.64424 0.0
C323 C 0.02482 0.52209 0.59741 0.0
C324 C 0.03114 0.54476 0.54792 0.0
C325 C 0.06008 0.57412 0.54541 0.0
C326 C 0.9575 0.43707 0.55496 0.0
C327 C 0.9359 0.42952 0.60466 0.0
C328 C 0.98585 0.46693 0.55263 0.0
C329 C 0.99385 0.4904 0.59995 0.0
C330 C 0.9721 0.48299 0.64965 0.0
C331 C 0.94359 0.45312 0.65194 0.0
H332 H 0.57166 0.94638 0.66024 0.0
H333 H 0.58019 0.95718 0.47909 0.0
H334 H 0.52115 0.99708 0.6613 0.0
H335 H 0.52953 1.00823 0.48017 0.0
H336 H 0.40695 0.06538 0.49852 0.0
H337 H 0.45975 0.01695 0.49634 0.0
H338 H 0.50759 0.06695 0.64753 0.0
H339 H 0.45468 0.11534 0.64983 0.0
C340 C 0.56311 0.95979 0.62051 0.0
C341 C 0.5805 0.94743 0.56956 0.0
C342 C 0.53402 0.98918 0.62117 0.0
C343 C 0.52077 1.00713 0.57085 0.0
C344 C 0.53841 0.99503 0.51987 0.0
C345 C 0.56788 0.96587 0.51926 0.0
C346 C 0.42865 0.06615 0.53145 0.0
C347 C 0.42608 0.09456 0.57449 0.0
C348 C 0.4593 0.03838 0.52993 0.0
C349 C 0.48839 0.03765 0.5717 0.0
C350 C 0.48576 0.06602 0.61482 0.0
C351 C 0.45532 0.09406 0.61602 0.0
H352 H 0.22086 0.62657 0.37065 0.0
H353 H 0.26083 0.54829 0.50345 0.0
H354 H 0.23975 0.57872 0.30079 0.0
H355 H 0.28162 0.50059 0.43277 0.0
H356 H 0.22739 0.40945 0.30866 0.0
H357 H 0.24267 0.4579 0.37931 0.0
H358 H 0.28228 0.53857 0.2486 0.0
H359 H 0.26511 0.49033 0.17728 0.0
C360 C 0.2347 0.59948 0.38487 0.0
C361 C 0.23813 0.59057 0.44264 0.0
C362 C 0.24611 0.57211 0.34457 0.0
C363 C 0.26155 0.53529 0.36108 0.0
C364 C 0.2689 0.52825 0.41871 0.0
C365 C 0.25714 0.55562 0.45922 0.0
C366 C 0.2401 0.4372 0.29495 0.0
C367 C 0.24379 0.44664 0.23734 0.0
C368 C 0.24936 0.46497 0.33568 0.0
C369 C 0.26293 0.50262 0.31969 0.0
C370 C 0.27085 0.51026 0.26227 0.0
C371 C 0.26113 0.48259 0.22139 0.0
H372 H 0.37253 0.1615 0.33699 0.0
H373 H 0.40932 0.2595 0.43907 0.0
H374 H 0.42578 0.17511 0.27095 0.0
H375 H 0.46222 0.27307 0.37315 0.0
H376 H 0.58295 0.22382 0.30807 0.0
H377 H 0.5218 0.23178 0.35923 0.0
H378 H 0.45824 0.22249 0.20323 0.0
H379 H 0.5193 0.21456 0.1519 0.0
C380 C 0.39122 0.1866 0.34439 0.0
C381 C 0.38736 0.20886 0.3937 0.0
C382 C 0.42166 0.19449 0.30658 0.0
C383 C 0.4485 0.22474 0.31762 0.0
C384 C 0.44238 0.24914 0.36426 0.0
C385 C 0.41204 0.24134 0.40186 0.0
C386 C 0.55603 0.22446 0.28452 0.0
C387 C 0.55593 0.2179 0.22617 0.0
C388 C 0.52099 0.22917 0.31374 0.0
C389 C 0.48527 0.2273 0.28514 0.0
C390 C 0.48534 0.22352 0.22631 0.0
C391 C 0.52036 0.21911 0.19703 0.0
H392 H 0.85504 0.39245 0.35911 0.0
H393 H 0.79872 0.45969 0.49047 0.0
H394 H 0.85044 0.44967 0.29549 0.0
H395 H 0.79422 0.51645 0.42713 0.0
H396 H 0.84428 0.62143 0.32158 0.0
H397 H 0.84209 0.56338 0.38381 0.0
H398 H 0.80158 0.49252 0.24563 0.0
H399 H 0.80368 0.55019 0.18358 0.0
C400 C 0.84126 0.41917 0.37418 0.0
C401 C 0.82745 0.4215 0.42994 0.0
C402 C 0.83858 0.45192 0.33777 0.0
C403 C 0.8223 0.48769 0.35657 0.0
C404 C 0.80745 0.48953 0.41172 0.0
C405 C 0.80981 0.45682 0.44785 0.0
C406 C 0.83452 0.59357 0.3047 0.0
C407 C 0.82422 0.59049 0.24767 0.0
C408 C 0.83318 0.56034 0.34031 0.0
C409 C 0.82185 0.52333 0.31947 0.0
C410 C 0.81087 0.52048 0.26273 0.0
C411 C 0.81183 0.55369 0.22734 0.0
H412 H 0.51729 0.82258 0.52304 0.0
H413 H 0.58091 0.79703 0.37 0.0
H414 H 0.45604 0.81593 0.47281 0.0
H415 H 0.51954 0.79092 0.31947 0.0
H416 H 0.40536 0.76093 0.24618 0.0
H417 H 0.45846 0.75142 0.31252 0.0
H418 H 0.42502 0.8584 0.39795 0.0
H419 H 0.37162 0.86799 0.33147 0.0
C420 C 0.5182 0.81464 0.47897 0.0
C421 C 0.55394 0.81027 0.45045 0.0
C422 C 0.48309 0.81122 0.45014 0.0
C423 C 0.48299 0.80308 0.39224 0.0
C424 C 0.51869 0.79681 0.36429 0.0
C425 C 0.55385 0.80051 0.39308 0.0
C426 C 0.40876 0.78202 0.27986 0.0
C427 C 0.38478 0.81565 0.28298 0.0
C428 C 0.43929 0.77659 0.31766 0.0
C429 C 0.44633 0.80455 0.35962 0.0
C430 C 0.42025 0.83633 0.36598 0.0
C431 C 0.38967 0.84185 0.32792 0.0
H432 H 0.7487 0.33467 0.91462 0.0
H433 H 0.86012 0.38957 0.88489 0.0
H434 H 0.74807 0.35991 1.01041 0.0
H435 H 0.85816 0.4177 0.97742 0.0
H436 H 0.83283 0.51157 1.08271 0.0
H437 H 0.84785 0.44241 1.06527 0.0
H438 H 0.72776 0.42324 1.01859 0.0
H439 H 0.7131 0.4909 1.03742 0.0
C440 C 0.77367 0.35102 0.92932 0.0
C441 C 0.80366 0.36163 0.89188 0.0
C442 C 0.77326 0.36582 0.98407 0.0
C443 C 0.8013 0.39377 1.00016 0.0
C444 C 0.83507 0.39757 0.9665 0.0
C445 C 0.83623 0.38149 0.91263 0.0
C446 C 0.80964 0.49223 1.06947 0.0
C447 C 0.77235 0.50721 1.05755 0.0
C448 C 0.81815 0.45243 1.05995 0.0
C449 C 0.78977 0.42741 1.03696 0.0
C450 C 0.75104 0.44118 1.03488 0.0
C451 C 0.74249 0.48062 1.04511 0.0
H452 H 0.47977 0.74106 0.58802 0.0
H453 H 0.49597 0.85214 0.67345 0.0
H454 H 0.41059 0.74401 0.60982 0.0
H455 H 0.42812 0.85506 0.69396 0.0
H456 H 0.34195 0.83991 0.80526 0.0
H457 H 0.35923 0.84657 0.7065 0.0
H458 H 0.40219 0.72653 0.70764 0.0
H459 H 0.38573 0.71988 0.80559 0.0
C460 C 0.46857 0.76672 0.60974 0.0
C461 C 0.49397 0.79488 0.63243 0.0
C462 C 0.42877 0.76871 0.62133 0.0
C463 C 0.41436 0.79824 0.65709 0.0
C464 C 0.43827 0.83092 0.6681 0.0
C465 C 0.47796 0.82897 0.65674 0.0
C466 C 0.35504 0.81479 0.78477 0.0
C467 C 0.36601 0.78052 0.81511 0.0
C468 C 0.36386 0.81835 0.72739 0.0
C469 C 0.38439 0.78809 0.70007 0.0
C470 C 0.38761 0.75118 0.72748 0.0
C471 C 0.37889 0.74757 0.78462 0.0
H472 H 0.21358 0.52282 1.08079 0.0
H473 H 0.32931 0.52263 1.00956 0.0
H474 H 0.20705 0.59287 1.05758 0.0
H475 H 0.3225 0.59105 0.98354 0.0
H476 H 0.30003 0.67549 0.86683 0.0
H477 H 0.30849 0.65586 0.96524 0.0
H478 H 0.1912 0.60953 0.96734 0.0
H479 H 0.18261 0.63026 0.8717 0.0
C480 C 0.2378 0.538 1.06084 0.0
C481 C 0.27097 0.51708 1.04344 0.0
C482 C 0.23425 0.57816 1.04785 0.0
C483 C 0.26297 0.59712 1.01479 0.0
C484 C 0.29895 0.57769 1.00732 0.0
C485 C 0.30285 0.53792 1.02159 0.0
C486 C 0.27578 0.66215 0.88928 0.0
C487 C 0.24136 0.65263 0.86085 0.0
C488 C 0.2805 0.65106 0.94574 0.0
C489 C 0.25166 0.62838 0.97324 0.0
C490 C 0.21481 0.62576 0.94775 0.0
C491 C 0.20982 0.63748 0.89188 0.0
H492 H 0.47072 0.35791 0.66554 0.0
H493 H 0.503 0.23511 0.65015 0.0
H494 H 0.52318 0.36736 0.73307 0.0
H495 H 0.5542 0.244 0.7186 0.0
H496 H 0.6333 0.25646 0.85572 0.0
H497 H 0.61165 0.2718 0.76026 0.0
H498 H 0.51738 0.34166 0.82872 0.0
H499 H 0.53968 0.32701 0.92369 0.0
C500 C 0.4898 0.33328 0.67528 0.0
C501 C 0.48195 0.2954 0.65485 0.0
C502 C 0.51971 0.33866 0.71397 0.0
C503 C 0.54197 0.3062 0.73241 0.0
C504 C 0.53747 0.26965 0.70563 0.0
C505 C 0.50768 0.26431 0.66706 0.0
C506 C 0.60822 0.27541 0.85016 0.0
C507 C 0.58706 0.28924 0.89686 0.0
C508 C 0.59613 0.28456 0.79558 0.0
C509 C 0.56245 0.30732 0.78697 0.0
C510 C 0.54364 0.32426 0.83375 0.0
C511 C 0.55602 0.31544 0.88828 0.0
H512 H 0.7278 0.96264 0.69438 0.0
H513 H 0.66438 0.89682 0.82205 0.0
H514 H 0.73705 0.01637 0.7605 0.0
H515 H 0.67374 0.95078 0.88817 0.0
H516 H 0.71779 0.04524 1.00462 0.0
H517 H 0.72461 0.98969 0.94071 0.0
H518 H 0.68802 0.06404 0.80161 0.0
H519 H 0.68113 0.11979 0.86545 0.0
C520 C 0.71638 0.95932 0.73683 0.0
C521 C 0.6949 0.9257 0.75285 0.0
C522 C 0.72157 0.99019 0.77452 0.0
C523 C 0.7058 0.98785 0.82912 0.0
C524 C 0.68638 0.95324 0.84632 0.0
C525 C 0.68086 0.92245 0.80843 0.0
C526 C 0.7118 0.04997 0.96024 0.0
C527 C 0.69854 0.0868 0.94006 0.0
C528 C 0.71555 0.01808 0.92381 0.0
C529 C 0.70658 0.02254 0.86644 0.0
C530 C 0.69538 0.05989 0.84566 0.0
C531 C 0.69125 0.09173 0.8822 0.0
H532 H 0.08411 0.72343 0.79594 0.0
H533 H 0.01861 0.70888 0.64239 0.0
H534 H 0.02363 0.73176 0.84853 0.0
H535 H 0.95797 0.71723 0.69528 0.0
H536 H 0.87455 0.66174 0.83782 0.0
H537 H 0.92635 0.67252 0.76853 0.0
H538 H 0.96465 0.77475 0.86024 0.0
H539 H 0.91317 0.76402 0.92954 0.0
C540 C 0.05681 0.72271 0.7733 0.0
C541 C 0.05604 0.71513 0.71524 0.0
C542 C 0.02219 0.72777 0.80329 0.0
C543 C 0.98613 0.72503 0.77589 0.0
C544 C 0.98539 0.71925 0.71737 0.0
C545 C 0.02009 0.71464 0.68719 0.0
C546 C 0.89335 0.68713 0.84232 0.0
C547 C 0.89042 0.71145 0.88978 0.0
C548 C 0.92291 0.69339 0.80255 0.0
C549 C 0.94989 0.72406 0.80974 0.0
C550 C 0.94465 0.75048 0.85435 0.0
C551 C 0.91512 0.74431 0.89391 0.0
H552 H 0.36998 0.15122 0.82012 0.0
H553 H 0.27053 0.106 0.73123 0.0
H554 H 0.36127 0.10009 0.89292 0.0
H555 H 0.26142 0.05553 0.80392 0.0
H556 H 0.30947 0.93728 0.87812 0.0
H557 H 0.3028 0.99688 0.82036 0.0
H558 H 0.31997 0.06886 0.96758 0.0
H559 H 0.32694 1.00942 1.02531 0.0
C560 C 0.34545 0.13132 0.81739 0.0
C561 C 0.32133 0.13193 0.76993 0.0
C562 C 0.34047 0.10201 0.85884 0.0
C563 C 0.31118 0.0733 0.85321 0.0
C564 C 0.28478 0.07666 0.80854 0.0
C565 C 0.28987 0.10566 0.76722 0.0
C566 C 0.31123 0.96579 0.89826 0.0
C567 C 0.31908 0.96862 0.95606 0.0
C568 C 0.30721 0.99995 0.86532 0.0
C569 C 0.31097 0.03753 0.88959 0.0
C570 C 0.31733 0.04032 0.94775 0.0
C571 C 0.3212 1.00621 0.98071 0.0
H572 H 0.93699 0.28318 0.80436 0.0
H573 H 1.00061 0.30126 0.64895 0.0
H574 H 0.99789 0.28349 0.85636 0.0
H575 H 0.06169 0.30144 0.70075 0.0
H576 H 0.1369 0.37312 0.83528 0.0
H577 H 0.08763 0.35221 0.76761 0.0
H578 H 0.06155 0.25057 0.87258 0.0
H579 H 0.11024 0.27161 0.94006 0.0
C580 C 0.96405 0.28616 0.78108 0.0
C581 C 0.96401 0.29263 0.72252 0.0
C582 C 0.999 0.28619 0.81081 0.0
C583 C 0.03455 0.29286 0.78257 0.0
C584 C 0.03472 0.29667 0.72363 0.0
C585 C 0.99977 0.29628 0.69392 0.0
C586 C 0.12145 0.34572 0.84284 0.0
C587 C 0.12658 0.32448 0.89334 0.0
C588 C 0.0933 0.33367 0.80417 0.0
C589 C 0.07023 0.30017 0.81558 0.0
C590 C 0.07831 0.27693 0.86338 0.0
C591 C 0.1062 0.28899 0.9019 0.0
H592 H 0.21182 0.91416 0.28601 0.0
H593 H 0.16911 1.00221 0.16828 0.0
H594 H 0.1843 0.95088 0.36343 0.0
H595 H 0.13957 0.03825 0.24603 0.0
H596 H 0.2075 0.11296 0.3826 0.0
H597 H 0.18242 0.07539 0.3048 0.0
H598 H 0.13922 0.98664 0.42167 0.0
H599 H 0.16607 0.0239 0.4999 0.0
C600 C 0.19594 0.94109 0.27664 0.0
C601 C 0.19485 0.9569 0.22177 0.0
C602 C 0.1791 0.96166 0.32096 0.0
C603 C 0.16086 0.99829 0.31094 0.0
C604 C 0.15441 1.01065 0.25502 0.0
C605 C 0.17153 0.99015 0.21063 0.0
C606 C 0.19227 0.08564 0.39172 0.0
C607 C 0.19084 0.06989 0.44659 0.0
C608 C 0.1769 0.0645 0.34719 0.0
C609 C 0.15994 0.02728 0.35703 0.0
C610 C 0.15307 0.01475 0.41287 0.0
C611 C 0.16862 0.03593 0.45752 0.0
H612 H 0.13434 0.34688 0.36574 0.0
H613 H 0.15848 0.22216 0.35402 0.0
H614 H 0.11679 0.3389 0.46268 0.0
H615 H 0.14461 0.21425 0.45399 0.0
H616 H 0.01968 0.19666 0.5094 0.0
H617 H 0.08696 0.20287 0.48691 0.0
H618 H 0.08388 0.32546 0.53802 0.0
H619 H 0.01506 0.31965 0.55576 0.0
C620 C 0.1374 0.31781 0.38471 0.0
C621 C 0.14498 0.28462 0.35161 0.0
C622 C 0.12729 0.31296 0.44127 0.0
C623 C 0.12399 0.27466 0.46499 0.0
C624 C 0.14199 0.24347 0.43555 0.0
C625 C 0.15042 0.24792 0.37823 0.0
C626 C 0.0333 0.22504 0.51596 0.0
C627 C 0.01114 0.25831 0.53028 0.0
C628 C 0.07272 0.22873 0.50355 0.0
C629 C 0.09103 0.266 0.505 0.0
C630 C 0.07045 0.29715 0.53077 0.0
C631 C 0.0306 0.29382 0.54126 0.0
H632 H 0.80629 0.04384 0.26789 0.0
H633 H 0.71285 0.03937 0.14645 0.0
H634 H 0.817 0.97404 0.25636 0.0
H635 H 0.72473 0.96987 0.13344 0.0
H636 H 0.68651 0.89025 0.29026 0.0
H637 H 0.69958 0.9295 0.20784 0.0
H638 H 0.82262 0.90659 0.225 0.0
H639 H 0.80933 0.86656 0.30869 0.0
C640 C 0.78904 0.02842 0.23701 0.0
C641 C 0.75752 0.04717 0.21054 0.0
C642 C 0.79559 0.98816 0.22951 0.0
C643 C 0.77033 0.96575 0.19584 0.0
C644 C 0.74382 0.98602 0.16112 0.0
C645 C 0.73703 0.02629 0.16889 0.0
C646 C 0.71622 0.89139 0.27508 0.0
C647 C 0.74725 0.87801 0.30855 0.0
C648 C 0.7239 0.9141 0.22693 0.0
C649 C 0.76257 0.92408 0.21297 0.0
C650 C 0.7926 0.90134 0.23699 0.0
C651 C 0.78497 0.87855 0.28522 0.0
H652 H 0.1575 0.797 0.29703 0.0
H653 H 0.11616 0.67695 0.30724 0.0
H654 H 0.1373 0.80088 0.19876 0.0
H655 H 0.09335 0.68147 0.21195 0.0
H656 H 1.00148 0.70312 0.10391 0.0
H657 H 0.07045 0.69522 0.12398 0.0
H658 H 0.07301 0.81448 0.18817 0.0
H659 H 1.00553 0.82234 0.16686 0.0
C660 C 0.14518 0.77106 0.27765 0.0
C661 C 0.13644 0.73743 0.31022 0.0
C662 C 0.13345 0.77322 0.2214 0.0
C663 C 0.11033 0.74291 0.19897 0.0
C664 C 0.10943 0.70634 0.22794 0.0
C665 C 0.12239 0.70368 0.28341 0.0
C666 C 0.01706 0.72774 0.12173 0.0
C667 C 0.99746 0.76243 0.13764 0.0
C668 C 0.05679 0.72337 0.13268 0.0
C669 C 0.07714 0.75317 0.16115 0.0
C670 C 0.05877 0.79014 0.16759 0.0
C671 C 0.01939 0.79464 0.156 0.0
H672 H 0.26586 0.17429 0.4449 0.0
H673 H 0.2499 0.29605 0.4878 0.0
H674 H 0.25527 0.18955 0.34606 0.0
H675 H 0.23698 0.31193 0.38882 0.0
H676 H 0.25731 0.33676 0.20124 0.0
H677 H 0.26745 0.31999 0.30044 0.0
H678 H 0.21235 0.20707 0.27432 0.0
H679 H 0.20251 0.22446 0.17482 0.0
C680 C 0.26008 0.20431 0.43331 0.0
C681 C 0.26003 0.23369 0.47453 0.0
C682 C 0.25344 0.21328 0.37621 0.0
C683 C 0.24591 0.2523 0.35825 0.0
C684 C 0.24391 0.28167 0.40009 0.0
C685 C 0.25073 0.27246 0.45728 0.0
C686 C 0.24675 0.30869 0.21714 0.0
C687 C 0.22799 0.28251 0.18073 0.0
C688 C 0.2527 0.29887 0.27414 0.0
C689 C 0.24028 0.26227 0.29655 0.0
C690 C 0.22271 0.23542 0.25918 0.0
C691 C 0.21688 0.24534 0.20197 0.0
H692 H 0.79638 0.20727 0.20159 0.0
H693 H 0.67927 0.24876 0.22697 0.0
H694 H 0.81225 0.22392 0.29898 0.0
H695 H 0.69491 0.26671 0.32388 0.0
H696 H 0.7244 0.26476 0.5126 0.0
H697 H 0.70801 0.24601 0.41648 0.0
H698 H 0.82515 0.27353 0.36287 0.0
H699 H 0.8417 0.28938 0.459 0.0
C700 C 0.77398 0.22002 0.22812 0.0
C701 C 0.7363 0.22581 0.20682 0.0
C702 C 0.7831 0.22995 0.28416 0.0
C703 C 0.755 0.24683 0.32054 0.0
C704 C 0.71735 0.25307 0.29844 0.0
C705 C 0.7082 0.24267 0.24262 0.0
C706 C 0.74674 0.26691 0.48033 0.0
C707 C 0.7844 0.27989 0.49439 0.0
C708 C 0.73719 0.25636 0.42462 0.0
C709 C 0.765 0.25827 0.38058 0.0
C710 C 0.80267 0.27112 0.39483 0.0
C711 C 0.81213 0.28138 0.45053 0.0
H712 H 0.66867 0.77008 0.45563 0.0
H713 H 0.78794 0.79908 0.48958 0.0
H714 H 0.68538 0.75581 0.35762 0.0
H715 H 0.80519 0.78539 0.39131 0.0
H716 H 0.83152 0.72377 0.22527 0.0
H717 H 0.81492 0.73779 0.3223 0.0
H718 H 0.70292 0.78161 0.26852 0.0
H719 H 0.71887 0.7643 0.17143 0.0
C720 C 0.69839 0.77423 0.44168 0.0
C721 C 0.72669 0.78676 0.48008 0.0
C722 C 0.70816 0.76587 0.38529 0.0
C723 C 0.74676 0.76964 0.36532 0.0
C724 C 0.77524 0.78151 0.40447 0.0
C725 C 0.76539 0.78957 0.46104 0.0
C726 C 0.80286 0.73476 0.23387 0.0
C727 C 0.77628 0.74097 0.18969 0.0
C728 C 0.79353 0.74409 0.29008 0.0
C729 C 0.75718 0.7606 0.30453 0.0
C730 C 0.73086 0.76803 0.2601 0.0
C731 C 0.74024 0.75838 0.20387 0.0
H732 H 0.26164 0.72604 0.18181 0.0
H733 H 0.26454 0.84956 0.21971 0.0
H734 H 0.24404 0.71112 0.27978 0.0
H735 H 0.25023 0.83547 0.31812 0.0
H736 H 0.19463 0.80316 0.48678 0.0
H737 H 0.20699 0.81759 0.38711 0.0
H738 H 0.26651 0.70549 0.37143 0.0
H739 H 0.25293 0.6913 0.47077 0.0
C740 C 0.25905 0.75015 0.21129 0.0
C741 C 0.26615 0.78918 0.19312 0.0
C742 C 0.24936 0.74158 0.26795 0.0
C743 C 0.2464 0.77184 0.30841 0.0
C744 C 0.25205 0.81099 0.28926 0.0
C745 C 0.26115 0.81934 0.23255 0.0
C746 C 0.21041 0.78174 0.46181 0.0
C747 C 0.22201 0.74569 0.48623 0.0
C748 C 0.21779 0.79002 0.40444 0.0
C749 C 0.23778 0.76276 0.36992 0.0
C750 C 0.25013 0.72699 0.39533 0.0
C751 C 0.24235 0.71867 0.45253 0.0
H752 H 0.66486 0.80086 0.72457 0.0
H753 H 0.78017 0.7661 0.67315 0.0
H754 H 0.68093 0.78632 0.82262 0.0
H755 H 0.79512 0.74807 0.77112 0.0
H756 H 0.77547 0.67624 0.94624 0.0
H757 H 0.7617 0.69423 0.84841 0.0
H758 H 0.73706 0.81347 0.8991 0.0
H759 H 0.75432 0.79621 0.99666 0.0
C760 C 0.69398 0.79136 0.73385 0.0
C761 C 0.72154 0.78683 0.69015 0.0
C762 C 0.703 0.78213 0.79043 0.0
C763 C 0.73949 0.76633 0.80515 0.0
C764 C 0.76676 0.76034 0.76151 0.0
C765 C 0.75806 0.77072 0.70514 0.0
C766 C 0.76882 0.70663 0.9367 0.0
C767 C 0.76823 0.73497 0.97979 0.0
C768 C 0.76018 0.71685 0.88033 0.0
C769 C 0.74879 0.75549 0.86544 0.0
C770 C 0.74602 0.78349 0.90881 0.0
C771 C 0.75584 0.77346 0.96493 0.0
H772 H 0.28056 0.74224 0.68558 0.0
H773 H 0.15824 0.75521 0.72078 0.0
H774 H 0.29487 0.75541 0.78488 0.0
H775 H 0.17268 0.76723 0.82073 0.0
H776 H 0.23613 0.73455 1.00457 0.0
H777 H 0.21439 0.72237 0.9079 0.0
H778 H 0.27504 0.82615 0.8501 0.0
H779 H 0.29175 0.84123 0.94758 0.0
C780 C 0.25673 0.74789 0.7145 0.0
C781 C 0.21811 0.74658 0.69549 0.0
C782 C 0.26501 0.7556 0.77135 0.0
C783 C 0.23509 0.7626 0.81071 0.0
C784 C 0.19642 0.76148 0.79171 0.0
C785 C 0.1881 0.75403 0.73463 0.0
C786 C 0.24496 0.75488 0.97138 0.0
C787 C 0.26804 0.78805 0.98396 0.0
C788 C 0.23268 0.7476 0.91579 0.0
C789 C 0.24465 0.77211 0.87075 0.0
C790 C 0.26646 0.80584 0.88345 0.0
C791 C 0.27678 0.81421 0.93939 0.0
H792 H 0.24973 0.3484 0.9472 0.0
H793 H 0.2135 0.22848 0.97922 0.0
H794 H 0.26568 0.33181 0.85002 0.0
H795 H 0.2282 0.21212 0.88069 0.0
H796 H 0.21521 0.21886 0.68194 0.0
H797 H 0.20138 0.23392 0.78107 0.0
H798 H 0.31545 0.2853 0.79669 0.0
H799 H 0.3295 0.26935 0.6976 0.0
C800 C 0.24518 0.31847 0.9339 0.0
C801 C 0.23027 0.28988 0.97169 0.0
C802 C 0.2544 0.30892 0.8778 0.0
C803 C 0.24835 0.2706 0.85736 0.0
C804 C 0.23313 0.24198 0.89489 0.0
C805 C 0.22478 0.25136 0.95142 0.0
C806 C 0.23737 0.23328 0.70665 0.0
C807 C 0.27352 0.24274 0.68204 0.0
C808 C 0.22952 0.24171 0.76352 0.0
C809 C 0.25729 0.26075 0.79702 0.0
C810 C 0.29335 0.27072 0.77209 0.0
C811 C 0.3015 0.26147 0.71541 0.0
H812 H 0.72315 0.29223 0.69891 0.0
H813 H 0.84232 0.25843 0.72593 0.0
H814 H 0.70812 0.27738 0.79762 0.0
H815 H 0.82766 0.24227 0.82451 0.0
H816 H 0.79652 0.24422 1.01418 0.0
H817 H 0.81332 0.26202 0.91668 0.0
H818 H 0.69753 0.23008 0.86492 0.0
H819 H 0.68094 0.21637 0.96179 0.0
C820 C 0.74615 0.28127 0.72598 0.0
C821 C 0.78417 0.27744 0.70466 0.0
C822 C 0.73758 0.27246 0.78296 0.0
C823 C 0.76655 0.25836 0.82044 0.0
C824 C 0.80449 0.25378 0.79829 0.0
C825 C 0.81308 0.26314 0.74146 0.0
C826 C 0.77454 0.24114 0.98197 0.0
C827 C 0.73701 0.22746 0.99669 0.0
C828 C 0.78435 0.25107 0.92547 0.0
C829 C 0.75691 0.24776 0.88146 0.0
C830 C 0.71959 0.23419 0.89662 0.0
C831 C 0.70997 0.225 0.95287 0.0
loop_
_geom_bond_atom_site_label_1
_geom_bond_atom_site_label_2
_geom_bond_distance
_geom_bond_site_symmetry_2
_ccdc_geom_bond_type
Zn0 N4 2.020 . S
Zn0 O8 2.019 . S
Zn0 N10 2.119 . S
Zn0 O18 1.975 . S
C1 N2 1.334 . S
C1 N5 1.336 . S
N2 C1 1.334 . S
N2 C3 1.334 1_554 S
C3 N2 1.334 1_556 S
C3 N4 1.336 . S
N4 Zn0 2.020 . S
N4 C3 1.336 . S
N4 N5 1.354 1_556 S
N5 C1 1.336 . S
N5 N4 1.354 1_554 S
N5 Zn9 2.020 . S
C6 O7 1.244 . S
C6 O30 1.257 . S
O7 C6 1.244 . S
O8 Zn0 2.019 . S
O8 C28 1.257 . S
Zn9 N5 2.020 . S
Zn9 O16 1.975 . S
Zn9 N25 2.119 . S
Zn9 O30 2.019 . S
N10 Zn0 2.119 . S
N10 C12 1.334 . S
N10 C13 1.328 . S
C11 C12 1.391 . S
C11 N14 1.329 . S
C11 H32 0.930 . S
C12 N10 1.334 . S
C12 C11 1.391 . S
C12 H19 0.930 . S
C13 N10 1.328 . S
C13 C15 1.392 . S
C13 H20 0.930 . S
N14 C11 1.329 . S
N14 C15 1.331 . S
C15 C13 1.392 . S
C15 N14 1.331 . S
O16 Zn9 1.975 . S
O16 C17 1.252 . S
C17 O16 1.252 . S
C17 O18 1.252 1_554 S
O18 Zn0 1.975 . S
O18 C17 1.252 1_556 S
H19 C12 0.930 . S
H20 C13 0.930 . S
C21 C22 1.392 . S
C21 N25 1.328 . S
C21 H27 0.930 . S
C22 C21 1.392 . S
C22 N26 1.331 . S
C23 C24 1.391 . S
C23 N26 1.329 . S
C23 H33 0.930 . S
C24 C23 1.391 . S
C24 N25 1.334 . S
C24 H31 0.930 . S
N25 Zn9 2.119 . S
N25 C21 1.328 . S
N25 C24 1.334 . S
N26 C22 1.331 . S
N26 C23 1.329 . S
H27 C21 0.930 . S
C28 O8 1.257 . S
C28 O29 1.244 . S
O29 C28 1.244 . S
O30 C6 1.257 . S
O30 Zn9 2.019 . S
H31 C24 0.930 . S
H32 C11 0.930 . S
H33 C23 0.930 . S
Zn34 N38 2.020 . S
Zn34 O42 2.019 . S
Zn34 N44 2.119 . S
Zn34 O52 1.975 . S
C35 N36 1.334 1_556 S
C35 N39 1.336 . S
N36 C35 1.334 1_554 S
N36 C37 1.334 . S
C37 N36 1.334 . S
C37 N38 1.336 . S
N38 Zn34 2.020 . S
N38 C37 1.336 . S
N38 N39 1.354 1_554 S
N39 C35 1.336 . S
N39 N38 1.354 1_556 S
N39 Zn43 2.020 . S
C40 O41 1.244 . S
C40 O64 1.257 . S
O41 C40 1.244 . S
O42 Zn34 2.019 . S
O42 C62 1.257 . S
Zn43 N39 2.020 . S
Zn43 O50 1.975 . S
Zn43 N59 2.119 . S
Zn43 O64 2.019 . S
N44 Zn34 2.119 . S
N44 C46 1.334 . S
N44 C47 1.328 . S
C45 C46 1.391 . S
C45 N48 1.329 . S
C45 H66 0.930 . S
C46 N44 1.334 . S
C46 C45 1.391 . S
C46 H53 0.930 . S
C47 N44 1.328 . S
C47 C49 1.392 . S
C47 H54 0.930 . S
N48 C45 1.329 . S
N48 C49 1.331 . S
C49 C47 1.392 . S
C49 N48 1.331 . S
O50 Zn43 1.975 . S
O50 C51 1.252 1_556 S
C51 O50 1.252 1_554 S
C51 O52 1.252 . S
O52 Zn34 1.975 . S
O52 C51 1.252 . S
H53 C46 0.930 . S
H54 C47 0.930 . S
C55 C56 1.392 . S
C55 N59 1.328 . S
C55 H61 0.930 . S
C56 C55 1.392 . S
C56 N60 1.331 . S
C57 C58 1.391 . S
C57 N60 1.329 . S
C57 H67 0.930 . S
C58 C57 1.391 . S
C58 N59 1.334 . S
C58 H65 0.930 . S
N59 Zn43 2.119 . S
N59 C55 1.328 . S
N59 C58 1.334 . S
N60 C56 1.331 . S
N60 C57 1.329 . S
H61 C55 0.930 . S
C62 O42 1.257 . S
C62 O63 1.244 . S
O63 C62 1.244 . S
O64 C40 1.257 . S
O64 Zn43 2.019 . S
H65 C58 0.930 . S
H66 C45 0.930 . S
H67 C57 0.930 . S
Zn68 N72 2.020 . S
Zn68 O76 2.019 . S
Zn68 N78 2.119 . S
Zn68 O86 1.975 . S
C69 N70 1.334 . S
C69 N73 1.336 . S
N70 C69 1.334 . S
N70 C71 1.334 1_554 S
C71 N70 1.334 1_556 S
C71 N72 1.336 . S
N72 Zn68 2.020 . S
N72 C71 1.336 . S
N72 N73 1.354 1_556 S
N73 C69 1.336 . S
N73 N72 1.354 1_554 S
N73 Zn77 2.020 . S
C74 O75 1.244 . S
C74 O98 1.257 . S
O75 C74 1.244 . S
O76 Zn68 2.019 . S
O76 C96 1.257 . S
Zn77 N73 2.020 . S
Zn77 O84 1.975 . S
Zn77 N93 2.119 . S
Zn77 O98 2.019 . S
N78 Zn68 2.119 . S
N78 C80 1.334 . S
N78 C81 1.328 . S
C79 C80 1.391 . S
C79 N82 1.329 . S
C79 H100 0.930 . S
C80 N78 1.334 . S
C80 C79 1.391 . S
C80 H87 0.930 . S
C81 N78 1.328 . S
C81 C83 1.392 . S
C81 H88 0.930 . S
N82 C79 1.329 . S
N82 C83 1.331 . S
C83 C81 1.392 . S
C83 N82 1.331 . S
O84 Zn77 1.975 . S
O84 C85 1.252 . S
C85 O84 1.252 . S
C85 O86 1.252 1_554 S
O86 Zn68 1.975 . S
O86 C85 1.252 1_556 S
H87 C80 0.930 . S
H88 C81 0.930 . S
C89 C90 1.392 . S
C89 N93 1.328 . S
C89 H95 0.930 . S
C90 C89 1.392 . S
C90 N94 1.331 . S
C91 C92 1.391 . S
C91 N94 1.329 . S
C91 H101 0.930 . S
C92 C91 1.391 . S
C92 N93 1.334 . S
C92 H99 0.930 . S
N93 Zn77 2.119 . S
N93 C89 1.328 . S
N93 C92 1.334 . S
N94 C90 1.331 . S
N94 C91 1.329 . S
H95 C89 0.930 . S
C96 O76 1.257 . S
C96 O97 1.244 . S
O97 C96 1.244 . S
O98 C74 1.257 . S
O98 Zn77 2.019 . S
H99 C92 0.930 . S
H100 C79 0.930 . S
H101 C91 0.930 . S
Zn102 N106 2.020 . S
Zn102 O110 2.019 . S
Zn102 N112 2.119 . S
Zn102 O120 1.975 . S
C103 N104 1.334 . S
C103 N107 1.336 . S
N104 C103 1.334 . S
N104 C105 1.334 1_554 S
C105 N104 1.334 1_556 S
C105 N106 1.336 . S
N106 Zn102 2.020 . S
N106 C105 1.336 . S
N106 N107 1.354 1_556 S
N107 C103 1.336 . S
N107 N106 1.354 1_554 S
N107 Zn111 2.020 . S
C108 O109 1.244 . S
C108 O132 1.257 . S
O109 C108 1.244 . S
O110 Zn102 2.019 . S
O110 C130 1.257 . S
Zn111 N107 2.020 . S
Zn111 O118 1.975 . S
Zn111 N127 2.119 . S
Zn111 O132 2.019 . S
N112 Zn102 2.119 . S
N112 C114 1.334 . S
N112 C115 1.328 . S
C113 C114 1.391 . S
C113 N116 1.329 . S
C113 H134 0.930 . S
C114 N112 1.334 . S
C114 C113 1.391 . S
C114 H121 0.930 . S
C115 N112 1.328 . S
C115 C117 1.392 . S
C115 H122 0.930 . S
N116 C113 1.329 . S
N116 C117 1.331 . S
C117 C115 1.392 . S
C117 N116 1.331 . S
O118 Zn111 1.975 . S
O118 C119 1.252 . S
C119 O118 1.252 . S
C119 O120 1.252 1_554 S
O120 Zn102 1.975 . S
O120 C119 1.252 1_556 S
H121 C114 0.930 . S
H122 C115 0.930 . S
C123 C124 1.392 . S
C123 N127 1.328 . S
C123 H129 0.930 . S
C124 C123 1.392 . S
C124 N128 1.331 . S
C125 C126 1.391 . S
C125 N128 1.329 . S
C125 H135 0.930 . S
C126 C125 1.391 . S
C126 N127 1.334 . S
C126 H133 0.930 . S
N127 Zn111 2.119 . S
N127 C123 1.328 . S
N127 C126 1.334 . S
N128 C124 1.331 . S
N128 C125 1.329 . S
H129 C123 0.930 . S
C130 O110 1.257 . S
C130 O131 1.244 . S
O131 C130 1.244 . S
O132 C108 1.257 . S
O132 Zn111 2.019 . S
H133 C126 0.930 . S
H134 C113 0.930 . S
H135 C125 0.930 . S
Zn136 N140 2.020 . S
Zn136 O144 2.019 . S
Zn136 N146 2.119 . S
Zn136 O154 1.975 . S
C137 N138 1.334 . S
C137 N141 1.336 . S
N138 C137 1.334 . S
N138 C139 1.334 . S
C139 N138 1.334 . S
C139 N140 1.336 . S
N140 Zn136 2.020 . S
N140 C139 1.336 . S
N140 N141 1.354 . S
N141 C137 1.336 . S
N141 N140 1.354 . S
N141 Zn145 2.020 . S
C142 O143 1.244 . S
C142 O166 1.257 . S
O143 C142 1.244 . S
O144 Zn136 2.019 . S
O144 C164 1.257 . S
Zn145 N141 2.020 . S
Zn145 O152 1.975 . S
Zn145 N161 2.119 . S
Zn145 O166 2.019 . S
N146 Zn136 2.119 . S
N146 C148 1.334 . S
N146 C149 1.328 . S
C147 C148 1.391 . S
C147 N150 1.329 . S
C147 H168 0.930 . S
C148 N146 1.334 . S
C148 C147 1.391 . S
C148 H155 0.930 . S
C149 N146 1.328 . S
C149 C151 1.392 . S
C149 H156 0.930 . S
N150 C147 1.329 . S
N150 C151 1.331 . S
C151 C149 1.392 . S
C151 N150 1.331 . S
O152 Zn145 1.975 . S
O152 C153 1.252 . S
C153 O152 1.252 . S
C153 O154 1.252 . S
O154 Zn136 1.975 . S
O154 C153 1.252 . S
H155 C148 0.930 . S
H156 C149 0.930 . S
C157 C158 1.392 . S
C157 N161 1.328 . S
C157 H163 0.930 . S
C158 C157 1.392 . S
C158 N162 1.331 . S
C159 C160 1.391 . S
C159 N162 1.329 . S
C159 H169 0.930 . S
C160 C159 1.391 . S
C160 N161 1.334 . S
C160 H167 0.930 . S
N161 Zn145 2.119 . S
N161 C157 1.328 . S
N161 C160 1.334 . S
N162 C158 1.331 . S
N162 C159 1.329 . S
H163 C157 0.930 . S
C164 O144 1.257 . S
C164 O165 1.244 . S
O165 C164 1.244 . S
O166 C142 1.257 . S
O166 Zn145 2.019 . S
H167 C160 0.930 . S
H168 C147 0.930 . S
H169 C159 0.930 . S
Zn170 N174 2.020 . S
Zn170 O178 2.019 . S
Zn170 N180 2.119 . S
Zn170 O188 1.975 . S
C171 N172 1.334 . S
C171 N175 1.336 . S
N172 C171 1.334 . S
N172 C173 1.334 . S
C173 N172 1.334 . S
C173 N174 1.336 . S
N174 Zn170 2.020 . S
N174 C173 1.336 . S
N174 N175 1.354 . S
N175 C171 1.336 . S
N175 N174 1.354 . S
N175 Zn179 2.020 . S
C176 O177 1.244 . S
C176 O200 1.257 . S
O177 C176 1.244 . S
O178 Zn170 2.019 . S
O178 C198 1.257 . S
Zn179 N175 2.020 . S
Zn179 O186 1.975 . S
Zn179 N195 2.119 . S
Zn179 O200 2.019 . S
N180 Zn170 2.119 . S
N180 C182 1.334 . S
N180 C183 1.328 . S
C181 C182 1.391 . S
C181 N184 1.329 . S
C181 H202 0.930 . S
C182 N180 1.334 . S
C182 C181 1.391 . S
C182 H189 0.930 . S
C183 N180 1.328 . S
C183 C185 1.392 . S
C183 H190 0.930 . S
N184 C181 1.329 . S
N184 C185 1.331 . S
C185 C183 1.392 . S
C185 N184 1.331 . S
O186 Zn179 1.975 . S
O186 C187 1.252 . S
C187 O186 1.252 . S
C187 O188 1.252 . S
O188 Zn170 1.975 . S
O188 C187 1.252 . S
H189 C182 0.930 . S
H190 C183 0.930 . S
C191 C192 1.392 . S
C191 N195 1.328 . S
C191 H197 0.930 . S
C192 C191 1.392 . S
C192 N196 1.331 . S
C193 C194 1.391 . S
C193 N196 1.329 . S
C193 H203 0.930 . S
C194 C193 1.391 . S
C194 N195 1.334 . S
C194 H201 0.930 . S
N195 Zn179 2.119 . S
N195 C191 1.328 . S
N195 C194 1.334 . S
N196 C192 1.331 . S
N196 C193 1.329 . S
H197 C191 0.930 . S
C198 O178 1.257 . S
C198 O199 1.244 . S
O199 C198 1.244 . S
O200 C176 1.257 . S
O200 Zn179 2.019 . S
H201 C194 0.930 . S
H202 C181 0.930 . S
H203 C193 0.930 . S
Zn204 N208 2.020 . S
Zn204 O212 2.019 . S
Zn204 N214 2.119 . S
Zn204 O222 1.975 . S
C205 N206 1.334 . S
C205 N209 1.336 . S
N206 C205 1.334 . S
N206 C207 1.334 . S
C207 N206 1.334 . S
C207 N208 1.336 . S
N208 Zn204 2.020 . S
N208 C207 1.336 . S
N208 N209 1.354 . S
N209 C205 1.336 . S
N209 N208 1.354 . S
N209 Zn213 2.020 . S
C210 O211 1.244 . S
C210 O234 1.257 . S
O211 C210 1.244 . S
O212 Zn204 2.019 . S
O212 C232 1.257 . S
Zn213 N209 2.020 . S
Zn213 O220 1.975 . S
Zn213 N229 2.119 . S
Zn213 O234 2.019 . S
N214 Zn204 2.119 . S
N214 C216 1.334 . S
N214 C217 1.328 . S
C215 C216 1.391 . S
C215 N218 1.329 . S
C215 H236 0.930 . S
C216 N214 1.334 . S
C216 C215 1.391 . S
C216 H223 0.930 . S
C217 N214 1.328 . S
C217 C219 1.392 . S
C217 H224 0.930 . S
N218 C215 1.329 . S
N218 C219 1.331 . S
C219 C217 1.392 . S
C219 N218 1.331 . S
O220 Zn213 1.975 . S
O220 C221 1.252 . S
C221 O220 1.252 . S
C221 O222 1.252 . S
O222 Zn204 1.975 . S
O222 C221 1.252 . S
H223 C216 0.930 . S
H224 C217 0.930 . S
C225 C226 1.392 . S
C225 N229 1.328 . S
C225 H231 0.930 . S
C226 C225 1.392 . S
C226 N230 1.331 . S
C227 C228 1.391 . S
C227 N230 1.329 . S
C227 H237 0.930 . S
C228 C227 1.391 . S
C228 N229 1.334 . S
C228 H235 0.930 . S
N229 Zn213 2.119 . S
N229 C225 1.328 . S
N229 C228 1.334 . S
N230 C226 1.331 . S
N230 C227 1.329 . S
H231 C225 0.930 . S
C232 O212 1.257 . S
C232 O233 1.244 . S
O233 C232 1.244 . S
O234 C210 1.257 . S
O234 Zn213 2.019 . S
H235 C228 0.930 . S
H236 C215 0.930 . S
H237 C227 0.930 . S
Zn238 N242 2.020 . S
Zn238 O246 2.019 . S
Zn238 N248 2.119 . S
Zn238 O256 1.975 . S
C239 N240 1.334 . S
C239 N243 1.336 . S
N240 C239 1.334 . S
N240 C241 1.334 . S
C241 N240 1.334 . S
C241 N242 1.336 . S
N242 Zn238 2.020 . S
N242 C241 1.336 . S
N242 N243 1.354 . S
N243 C239 1.336 . S
N243 N242 1.354 . S
N243 Zn247 2.020 . S
C244 O245 1.244 . S
C244 O268 1.257 . S
O245 C244 1.244 . S
O246 Zn238 2.019 . S
O246 C266 1.257 . S
Zn247 N243 2.020 . S
Zn247 O254 1.975 . S
Zn247 N263 2.119 . S
Zn247 O268 2.019 . S
N248 Zn238 2.119 . S
N248 C250 1.334 . S
N248 C251 1.328 . S
C249 C250 1.391 . S
C249 N252 1.329 . S
C249 H270 0.930 . S
C250 N248 1.334 . S
C250 C249 1.391 . S
C250 H257 0.930 . S
C251 N248 1.328 . S
C251 C253 1.392 . S
C251 H258 0.930 . S
N252 C249 1.329 . S
N252 C253 1.331 . S
C253 C251 1.392 . S
C253 N252 1.331 . S
O254 Zn247 1.975 . S
O254 C255 1.252 . S
C255 O254 1.252 . S
C255 O256 1.252 . S
O256 Zn238 1.975 . S
O256 C255 1.252 . S
H257 C250 0.930 . S
H258 C251 0.930 . S
C259 C260 1.392 . S
C259 N263 1.328 . S
C259 H265 0.930 . S
C260 C259 1.392 . S
C260 N264 1.331 . S
C261 C262 1.391 . S
C261 N264 1.329 . S
C261 H271 0.930 . S
C262 C261 1.391 . S
C262 N263 1.334 . S
C262 H269 0.930 . S
N263 Zn247 2.119 . S
N263 C259 1.328 . S
N263 C262 1.334 . S
N264 C260 1.331 . S
N264 C261 1.329 . S
H265 C259 0.930 . S
C266 O246 1.257 . S
C266 O267 1.244 . S
O267 C266 1.244 . S
O268 C244 1.257 . S
O268 Zn247 2.019 . S
H269 C262 0.930 . S
H270 C249 0.930 . S
H271 C261 0.930 . S
H272 C280 0.950 . S
H273 C285 0.950 . S
H274 C282 0.950 1_655 S
H275 C284 0.950 . S
H276 C286 0.950 . S
H277 C288 0.950 1_455 S
H278 C290 0.950 . S
H279 C291 0.950 . S
C280 H272 0.950 . S
C280 C281 1.386 . S
C280 C282 1.391 . S
C281 C280 1.386 . S
C281 C285 1.393 1_554 S
C282 H274 0.950 1_455 S
C282 C280 1.391 . S
C282 C283 1.409 . S
C283 C282 1.409 . S
C283 C284 1.391 1_554 S
C283 C289 1.490 1_454 S
C284 H275 0.950 . S
C284 C283 1.391 1_556 S
C284 C285 1.391 . S
C285 H273 0.950 . S
C285 C281 1.393 1_556 S
C285 C284 1.391 . S
C286 H276 0.950 . S
C286 C287 1.386 . S
C286 C288 1.391 . S
C287 C286 1.386 . S
C287 C291 1.393 1_556 S
C288 H277 0.950 1_655 S
C288 C286 1.391 . S
C288 C289 1.406 . S
C289 C283 1.490 1_656 S
C289 C288 1.406 . S
C289 C290 1.393 1_556 S
C290 H278 0.950 . S
C290 C289 1.393 1_554 S
C290 C291 1.391 . S
C291 H279 0.950 . S
C291 C287 1.393 1_554 S
C291 C290 1.391 . S
H292 C300 0.950 . S
H293 C305 0.950 . S
H294 C302 0.950 1_545 S
H295 C304 0.950 . S
H296 C306 0.950 . S
H297 C308 0.950 1_565 S
H298 C310 0.950 . S
H299 C311 0.950 . S
C300 H292 0.950 . S
C300 C301 1.386 . S
C300 C302 1.391 . S
C301 C300 1.386 . S
C301 C305 1.393 1_554 S
C302 H294 0.950 1_565 S
C302 C300 1.391 . S
C302 C303 1.408 . S
C303 C302 1.408 . S
C303 C304 1.392 1_554 S
C303 C309 1.490 1_564 S
C304 H295 0.950 . S
C304 C303 1.392 1_556 S
C304 C305 1.391 . S
C305 H293 0.950 . S
C305 C301 1.393 1_556 S
C305 C304 1.391 . S
C306 H296 0.950 . S
C306 C307 1.386 . S
C306 C308 1.391 . S
C307 C306 1.386 . S
C307 C311 1.393 1_556 S
C308 H297 0.950 1_545 S
C308 C306 1.391 . S
C308 C309 1.406 . S
C309 C303 1.490 1_546 S
C309 C308 1.406 . S
C309 C310 1.394 1_556 S
C310 H298 0.950 . S
C310 C309 1.394 1_554 S
C310 C311 1.391 . S
C311 H299 0.950 . S
C311 C307 1.393 1_554 S
C311 C310 1.391 . S
H312 C320 0.950 . S
H313 C325 0.950 . S
H314 C322 0.950 1_655 S
H315 C324 0.950 . S
H316 C326 0.950 . S
H317 C328 0.950 1_455 S
H318 C330 0.950 . S
H319 C331 0.950 . S
C320 H312 0.950 . S
C320 C321 1.386 . S
C320 C322 1.391 . S
C321 C320 1.386 . S
C321 C325 1.393 . S
C322 H314 0.950 1_455 S
C322 C320 1.391 . S
C322 C323 1.400 . S
C323 C322 1.400 . S
C323 C324 1.398 . S
C323 C329 1.491 1_455 S
C324 H315 0.950 . S
C324 C323 1.398 . S
C324 C325 1.391 . S
C325 H313 0.950 . S
C325 C321 1.393 . S
C325 C324 1.391 . S
C326 H316 0.950 . S
C326 C327 1.386 . S
C326 C328 1.391 . S
C327 C326 1.386 . S
C327 C331 1.393 . S
C328 H317 0.950 1_655 S
C328 C326 1.391 . S
C328 C329 1.400 . S
C329 C323 1.491 1_655 S
C329 C328 1.400 . S
C329 C330 1.398 . S
C330 H318 0.950 . S
C330 C329 1.398 . S
C330 C331 1.391 . S
C331 H319 0.950 . S
C331 C327 1.393 . S
C331 C330 1.391 . S
H332 C340 0.950 . S
H333 C345 0.950 . S
H334 C342 0.950 . S
H335 C344 0.950 1_545 S
H336 C346 0.950 . S
H337 C348 0.950 . S
H338 C350 0.950 1_565 S
H339 C351 0.950 . S
C340 H332 0.950 . S
C340 C341 1.386 . S
C340 C342 1.391 . S
C341 C340 1.386 . S
C341 C345 1.393 . S
C342 H334 0.950 . S
C342 C340 1.391 . S
C342 C343 1.400 . S
C343 C342 1.400 . S
C343 C344 1.398 . S
C343 C349 1.491 1_565 S
C344 H335 0.950 1_565 S
C344 C343 1.398 . S
C344 C345 1.391 . S
C345 H333 0.950 . S
C345 C341 1.393 . S
C345 C344 1.391 . S
C346 H336 0.950 . S
C346 C347 1.386 . S
C346 C348 1.391 . S
C347 C346 1.386 . S
C347 C351 1.393 . S
C348 H337 0.950 . S
C348 C346 1.391 . S
C348 C349 1.400 . S
C349 C343 1.491 1_545 S
C349 C348 1.400 . S
C349 C350 1.398 . S
C350 H338 0.950 1_545 S
C350 C349 1.398 . S
C350 C351 1.391 . S
C351 H339 0.950 . S
C351 C347 1.393 . S
C351 C350 1.391 . S
H352 C360 0.950 . S
H353 C365 0.950 . S
H354 C362 0.950 . S
H355 C364 0.950 . S
H356 C366 0.950 . S
H357 C368 0.950 . S
H358 C370 0.950 . S
H359 C371 0.950 . S
C360 H352 0.950 . S
C360 C361 1.386 . S
C360 C362 1.391 . S
C361 C360 1.386 . S
C361 C365 1.393 . S
C362 H354 0.950 . S
C362 C360 1.391 . S
C362 C363 1.400 . S
C363 C362 1.400 . S
C363 C364 1.398 . S
C363 C369 1.491 . S
C364 H355 0.950 . S
C364 C363 1.398 . S
C364 C365 1.391 . S
C365 H353 0.950 . S
C365 C361 1.393 . S
C365 C364 1.391 . S
C366 H356 0.950 . S
C366 C367 1.386 . S
C366 C368 1.391 . S
C367 C366 1.386 . S
C367 C371 1.393 . S
C368 H357 0.950 . S
C368 C366 1.391 . S
C368 C369 1.400 . S
C369 C363 1.491 . S
C369 C368 1.400 . S
C369 C370 1.398 . S
C370 H358 0.950 . S
C370 C369 1.398 . S
C370 C371 1.391 . S
C371 H359 0.950 . S
C371 C367 1.393 . S
C371 C370 1.391 . S
H372 C380 0.950 . S
H373 C385 0.950 . S
H374 C382 0.950 . S
H375 C384 0.950 . S
H376 C386 0.950 . S
H377 C388 0.950 . S
H378 C390 0.950 . S
H379 C391 0.950 . S
C380 H372 0.950 . S
C380 C381 1.386 . S
C380 C382 1.391 . S
C381 C380 1.386 . S
C381 C385 1.393 . S
C382 H374 0.950 . S
C382 C380 1.391 . S
C382 C383 1.400 . S
C383 C382 1.400 . S
C383 C384 1.398 . S
C383 C389 1.491 . S
C384 H375 0.950 . S
C384 C383 1.398 . S
C384 C385 1.391 . S
C385 H373 0.950 . S
C385 C381 1.393 . S
C385 C384 1.391 . S
C386 H376 0.950 . S
C386 C387 1.386 . S
C386 C388 1.391 . S
C387 C386 1.386 . S
C387 C391 1.393 . S
C388 H377 0.950 . S
C388 C386 1.391 . S
C388 C389 1.400 . S
C389 C383 1.491 . S
C389 C388 1.400 . S
C389 C390 1.398 . S
C390 H378 0.950 . S
C390 C389 1.398 . S
C390 C391 1.391 . S
C391 H379 0.950 . S
C391 C387 1.393 . S
C391 C390 1.391 . S
H392 C400 0.950 . S
H393 C405 0.950 . S
H394 C402 0.950 . S
H395 C404 0.950 . S
H396 C406 0.950 . S
H397 C408 0.950 . S
H398 C410 0.950 . S
H399 C411 0.950 . S
C400 H392 0.950 . S
C400 C401 1.386 . S
C400 C402 1.391 . S
C401 C400 1.386 . S
C401 C405 1.393 . S
C402 H394 0.950 . S
C402 C400 1.391 . S
C402 C403 1.400 . S
C403 C402 1.400 . S
C403 C404 1.398 . S
C403 C409 1.491 . S
C404 H395 0.950 . S
C404 C403 1.398 . S
C404 C405 1.391 . S
C405 H393 0.950 . S
C405 C401 1.393 . S
C405 C404 1.391 . S
C406 H396 0.950 . S
C406 C407 1.386 . S
C406 C408 1.391 . S
C407 C406 1.386 . S
C407 C411 1.393 . S
C408 H397 0.950 . S
C408 C406 1.391 . S
C408 C409 1.400 . S
C409 C403 1.491 . S
C409 C408 1.400 . S
C409 C410 1.398 . S
C410 H398 0.950 . S
C410 C409 1.398 . S
C410 C411 1.391 . S
C411 H399 0.950 . S
C411 C407 1.393 . S
C411 C410 1.391 . S
H412 C420 0.950 . S
H413 C425 0.950 . S
H414 C422 0.950 . S
H415 C424 0.950 . S
H416 C426 0.950 . S
H417 C428 0.950 . S
H418 C430 0.950 . S
H419 C431 0.950 . S
C420 H412 0.950 . S
C420 C421 1.386 . S
C420 C422 1.391 . S
C421 C420 1.386 . S
C421 C425 1.393 . S
C422 H414 0.950 . S
C422 C420 1.391 . S
C422 C423 1.400 . S
C423 C422 1.400 . S
C423 C424 1.398 . S
C423 C429 1.491 . S
C424 H415 0.950 . S
C424 C423 1.398 . S
C424 C425 1.391 . S
C425 H413 0.950 . S
C425 C421 1.393 . S
C425 C424 1.391 . S
C426 H416 0.950 . S
C426 C427 1.386 . S
C426 C428 1.391 . S
C427 C426 1.386 . S
C427 C431 1.393 . S
C428 H417 0.950 . S
C428 C426 1.391 . S
C428 C429 1.400 . S
C429 C423 1.491 . S
C429 C428 1.400 . S
C429 C430 1.398 . S
C430 H418 0.950 . S
C430 C429 1.398 . S
C430 C431 1.391 . S
C431 H419 0.950 . S
C431 C427 1.393 . S
C431 C430 1.391 . S
H432 C440 0.950 . S
H433 C445 0.950 . S
H434 C442 0.950 . S
H435 C444 0.950 . S
H436 C446 0.950 . S
H437 C448 0.950 . S
H438 C450 0.950 . S
H439 C451 0.950 . S
C440 H432 0.950 . S
C440 C441 1.386 . S
C440 C442 1.391 . S
C441 C440 1.386 . S
C441 C445 1.393 . S
C442 H434 0.950 . S
C442 C440 1.391 . S
C442 C443 1.400 . S
C443 C442 1.400 . S
C443 C444 1.398 . S
C443 C449 1.491 . S
C444 H435 0.950 . S
C444 C443 1.398 . S
C444 C445 1.391 . S
C445 H433 0.950 . S
C445 C441 1.393 . S
C445 C444 1.391 . S
C446 H436 0.950 . S
C446 C447 1.386 . S
C446 C448 1.391 . S
C447 C446 1.386 . S
C447 C451 1.393 . S
C448 H437 0.950 . S
C448 C446 1.391 . S
C448 C449 1.400 . S
C449 C443 1.491 . S
C449 C448 1.400 . S
C449 C450 1.398 . S
C450 H438 0.950 . S
C450 C449 1.398 . S
C450 C451 1.391 . S
C451 H439 0.950 . S
C451 C447 1.393 . S
C451 C450 1.391 . S
H452 C460 0.950 . S
H453 C465 0.950 . S
H454 C462 0.950 . S
H455 C464 0.950 . S
H456 C466 0.950 . S
H457 C468 0.950 . S
H458 C470 0.950 . S
H459 C471 0.950 . S
C460 H452 0.950 . S
C460 C461 1.386 . S
C460 C462 1.391 . S
C461 C460 1.386 . S
C461 C465 1.393 . S
C462 H454 0.950 . S
C462 C460 1.391 . S
C462 C463 1.400 . S
C463 C462 1.400 . S
C463 C464 1.398 . S
C463 C469 1.491 . S
C464 H455 0.950 . S
C464 C463 1.398 . S
C464 C465 1.391 . S
C465 H453 0.950 . S
C465 C461 1.393 . S
C465 C464 1.391 . S
C466 H456 0.950 . S
C466 C467 1.386 . S
C466 C468 1.391 . S
C467 C466 1.386 . S
C467 C471 1.393 . S
C468 H457 0.950 . S
C468 C466 1.391 . S
C468 C469 1.400 . S
C469 C463 1.491 . S
C469 C468 1.400 . S
C469 C470 1.398 . S
C470 H458 0.950 . S
C470 C469 1.398 . S
C470 C471 1.391 . S
C471 H459 0.950 . S
C471 C467 1.393 . S
C471 C470 1.391 . S
H472 C480 0.950 . S
H473 C485 0.950 . S
H474 C482 0.950 . S
H475 C484 0.950 . S
H476 C486 0.950 . S
H477 C488 0.950 . S
H478 C490 0.950 . S
H479 C491 0.950 . S
C480 H472 0.950 . S
C480 C481 1.386 . S
C480 C482 1.391 . S
C481 C480 1.386 . S
C481 C485 1.393 . S
C482 H474 0.950 . S
C482 C480 1.391 . S
C482 C483 1.400 . S
C483 C482 1.400 . S
C483 C484 1.398 . S
C483 C489 1.491 . S
C484 H475 0.950 . S
C484 C483 1.398 . S
C484 C485 1.391 . S
C485 H473 0.950 . S
C485 C481 1.393 . S
C485 C484 1.391 . S
C486 H476 0.950 . S
C486 C487 1.386 . S
C486 C488 1.391 . S
C487 C486 1.386 . S
C487 C491 1.393 . S
C488 H477 0.950 . S
C488 C486 1.391 . S
C488 C489 1.400 . S
C489 C483 1.491 . S
C489 C488 1.400 . S
C489 C490 1.398 . S
C490 H478 0.950 . S
C490 C489 1.398 . S
C490 C491 1.391 . S
C491 H479 0.950 . S
C491 C487 1.393 . S
C491 C490 1.391 . S
H492 C500 0.950 . S
H493 C505 0.950 . S
H494 C502 0.950 . S
H495 C504 0.950 . S
H496 C506 0.950 . S
H497 C508 0.950 . S
H498 C510 0.950 . S
H499 C511 0.950 . S
C500 H492 0.950 . S
C500 C501 1.386 . S
C500 C502 1.391 . S
C501 C500 1.386 . S
C501 C505 1.393 . S
C502 H494 0.950 . S
C502 C500 1.391 . S
C502 C503 1.400 . S
C503 C502 1.400 . S
C503 C504 1.398 . S
C503 C509 1.491 . S
C504 H495 0.950 . S
C504 C503 1.398 . S
C504 C505 1.391 . S
C505 H493 0.950 . S
C505 C501 1.393 . S
C505 C504 1.391 . S
C506 H496 0.950 . S
C506 C507 1.386 . S
C506 C508 1.391 . S
C507 C506 1.386 . S
C507 C511 1.393 . S
C508 H497 0.950 . S
C508 C506 1.391 . S
C508 C509 1.400 . S
C509 C503 1.491 . S
C509 C508 1.400 . S
C509 C510 1.398 . S
C510 H498 0.950 . S
C510 C509 1.398 . S
C510 C511 1.391 . S
C511 H499 0.950 . S
C511 C507 1.393 . S
C511 C510 1.391 . S
H512 C520 0.950 . S
H513 C525 0.950 . S
H514 C522 0.950 1_545 S
H515 C524 0.950 . S
H516 C526 0.950 . S
H517 C528 0.950 1_565 S
H518 C530 0.950 . S
H519 C531 0.950 . S
C520 H512 0.950 . S
C520 C521 1.386 . S
C520 C522 1.391 . S
C521 C520 1.386 . S
C521 C525 1.393 . S
C522 H514 0.950 1_565 S
C522 C520 1.391 . S
C522 C523 1.400 . S
C523 C522 1.400 . S
C523 C524 1.398 . S
C523 C529 1.491 1_565 S
C524 H515 0.950 . S
C524 C523 1.398 . S
C524 C525 1.391 . S
C525 H513 0.950 . S
C525 C521 1.393 . S
C525 C524 1.391 . S
C526 H516 0.950 . S
C526 C527 1.386 . S
C526 C528 1.391 . S
C527 C526 1.386 . S
C527 C531 1.393 . S
C528 H517 0.950 1_545 S
C528 C526 1.391 . S
C528 C529 1.400 . S
C529 C523 1.491 1_545 S
C529 C528 1.400 . S
C529 C530 1.398 . S
C530 H518 0.950 . S
C530 C529 1.398 . S
C530 C531 1.391 . S
C531 H519 0.950 . S
C531 C527 1.393 . S
C531 C530 1.391 . S
H532 C540 0.950 . S
H533 C545 0.950 . S
H534 C542 0.950 . S
H535 C544 0.950 1_655 S
H536 C546 0.950 . S
H537 C548 0.950 . S
H538 C550 0.950 1_455 S
H539 C551 0.950 . S
C540 H532 0.950 . S
C540 C541 1.386 . S
C540 C542 1.391 . S
C541 C540 1.386 . S
C541 C545 1.393 . S
C542 H534 0.950 . S
C542 C540 1.391 . S
C542 C543 1.400 . S
C543 C542 1.400 . S
C543 C544 1.398 . S
C543 C549 1.491 1_455 S
C544 H535 0.950 1_455 S
C544 C543 1.398 . S
C544 C545 1.391 . S
C545 H533 0.950 . S
C545 C541 1.393 . S
C545 C544 1.391 . S
C546 H536 0.950 . S
C546 C547 1.386 . S
C546 C548 1.391 . S
C547 C546 1.386 . S
C547 C551 1.393 . S
C548 H537 0.950 . S
C548 C546 1.391 . S
C548 C549 1.400 . S
C549 C543 1.491 1_655 S
C549 C548 1.400 . S
C549 C550 1.398 . S
C550 H538 0.950 1_655 S
C550 C549 1.398 . S
C550 C551 1.391 . S
C551 H539 0.950 . S
C551 C547 1.393 . S
C551 C550 1.391 . S
H552 C560 0.950 . S
H553 C565 0.950 . S
H554 C562 0.950 . S
H555 C564 0.950 1_565 S
H556 C566 0.950 . S
H557 C568 0.950 . S
H558 C570 0.950 1_545 S
H559 C571 0.950 . S
C560 H552 0.950 . S
C560 C561 1.386 . S
C560 C562 1.391 . S
C561 C560 1.386 . S
C561 C565 1.393 . S
C562 H554 0.950 . S
C562 C560 1.391 . S
C562 C563 1.400 . S
C563 C562 1.400 . S
C563 C564 1.398 . S
C563 C569 1.491 1_545 S
C564 H555 0.950 1_545 S
C564 C563 1.398 . S
C564 C565 1.391 . S
C565 H553 0.950 . S
C565 C561 1.393 . S
C565 C564 1.391 . S
C566 H556 0.950 . S
C566 C567 1.386 . S
C566 C568 1.391 . S
C567 C566 1.386 . S
C567 C571 1.393 . S
C568 H557 0.950 . S
C568 C566 1.391 . S
C568 C569 1.400 . S
C569 C563 1.491 1_565 S
C569 C568 1.400 . S
C569 C570 1.398 . S
C570 H558 0.950 1_565 S
C570 C569 1.398 . S
C570 C571 1.391 . S
C571 H559 0.950 . S
C571 C567 1.393 . S
C571 C570 1.391 . S
H572 C580 0.950 . S
H573 C585 0.950 . S
H574 C582 0.950 . S
H575 C584 0.950 1_455 S
H576 C586 0.950 . S
H577 C588 0.950 . S
H578 C590 0.950 1_655 S
H579 C591 0.950 . S
C580 H572 0.950 . S
C580 C581 1.386 . S
C580 C582 1.391 . S
C581 C580 1.386 . S
C581 C585 1.393 . S
C582 H574 0.950 . S
C582 C580 1.391 . S
C582 C583 1.400 . S
C583 C582 1.400 . S
C583 C584 1.398 . S
C583 C589 1.491 1_655 S
C584 H575 0.950 1_655 S
C584 C583 1.398 . S
C584 C585 1.391 . S
C585 H573 0.950 . S
C585 C581 1.393 . S
C585 C584 1.391 . S
C586 H576 0.950 . S
C586 C587 1.386 . S
C586 C588 1.391 . S
C587 C586 1.386 . S
C587 C591 1.393 . S
C588 H577 0.950 . S
C588 C586 1.391 . S
C588 C589 1.400 . S
C589 C583 1.491 1_455 S
C589 C588 1.400 . S
C589 C590 1.398 . S
C590 H578 0.950 1_455 S
C590 C589 1.398 . S
C590 C591 1.391 . S
C591 H579 0.950 . S
C591 C587 1.393 . S
C591 C590 1.391 . S
H592 C600 0.950 . S
H593 C605 0.950 . S
H594 C602 0.950 . S
H595 C604 0.950 1_545 S
H596 C606 0.950 . S
H597 C608 0.950 . S
H598 C610 0.950 1_565 S
H599 C611 0.950 . S
C600 H592 0.950 . S
C600 C601 1.386 . S
C600 C602 1.391 . S
C601 C600 1.386 . S
C601 C605 1.393 . S
C602 H594 0.950 . S
C602 C600 1.391 . S
C602 C603 1.400 . S
C603 C602 1.400 . S
C603 C604 1.398 . S
C603 C609 1.491 1_565 S
C604 H595 0.950 1_565 S
C604 C603 1.398 . S
C604 C605 1.391 . S
C605 H593 0.950 . S
C605 C601 1.393 . S
C605 C604 1.391 . S
C606 H596 0.950 . S
C606 C607 1.386 . S
C606 C608 1.391 . S
C607 C606 1.386 . S
C607 C611 1.393 . S
C608 H597 0.950 . S
C608 C606 1.391 . S
C608 C609 1.400 . S
C609 C603 1.491 1_545 S
C609 C608 1.400 . S
C609 C610 1.398 . S
C610 H598 0.950 1_545 S
C610 C609 1.398 . S
C610 C611 1.391 . S
C611 H599 0.950 . S
C611 C607 1.393 . S
C611 C610 1.391 . S
H612 C620 0.950 . S
H613 C625 0.950 . S
H614 C622 0.950 . S
H615 C624 0.950 . S
H616 C626 0.950 . S
H617 C628 0.950 . S
H618 C630 0.950 . S
H619 C631 0.950 . S
C620 H612 0.950 . S
C620 C621 1.386 . S
C620 C622 1.391 . S
C621 C620 1.386 . S
C621 C625 1.393 . S
C622 H614 0.950 . S
C622 C620 1.391 . S
C622 C623 1.400 . S
C623 C622 1.400 . S
C623 C624 1.398 . S
C623 C629 1.491 1_455 S
C624 H615 0.950 . S
C624 C623 1.398 . S
C624 C625 1.391 . S
C625 H613 0.950 . S
C625 C621 1.393 . S
C625 C624 1.391 . S
C626 H616 0.950 . S
C626 C627 1.386 . S
C626 C628 1.391 . S
C627 C626 1.386 . S
C627 C631 1.393 . S
C628 H617 0.950 . S
C628 C626 1.391 . S
C628 C629 1.400 . S
C629 C623 1.491 1_655 S
C629 C628 1.400 . S
C629 C630 1.398 . S
C630 H618 0.950 . S
C630 C629 1.398 . S
C630 C631 1.391 . S
C631 H619 0.950 . S
C631 C627 1.393 . S
C631 C630 1.391 . S
H632 C640 0.950 . S
H633 C645 0.950 . S
H634 C642 0.950 . S
H635 C644 0.950 . S
H636 C646 0.950 . S
H637 C648 0.950 . S
H638 C650 0.950 . S
H639 C651 0.950 . S
C640 H632 0.950 . S
C640 C641 1.386 . S
C640 C642 1.391 . S
C641 C640 1.386 . S
C641 C645 1.393 . S
C642 H634 0.950 . S
C642 C640 1.391 . S
C642 C643 1.400 . S
C643 C642 1.400 . S
C643 C644 1.398 . S
C643 C649 1.491 1_545 S
C644 H635 0.950 . S
C644 C643 1.398 . S
C644 C645 1.391 . S
C645 H633 0.950 . S
C645 C641 1.393 . S
C645 C644 1.391 . S
C646 H636 0.950 . S
C646 C647 1.386 . S
C646 C648 1.391 . S
C647 C646 1.386 . S
C647 C651 1.393 . S
C648 H637 0.950 . S
C648 C646 1.391 . S
C648 C649 1.400 . S
C649 C643 1.491 1_565 S
C649 C648 1.400 . S
C649 C650 1.398 . S
C650 H638 0.950 . S
C650 C649 1.398 . S
C650 C651 1.391 . S
C651 H639 0.950 . S
C651 C647 1.393 . S
C651 C650 1.391 . S
H652 C660 0.950 . S
H653 C665 0.950 . S
H654 C662 0.950 . S
H655 C664 0.950 . S
H656 C666 0.950 . S
H657 C668 0.950 . S
H658 C670 0.950 . S
H659 C671 0.950 . S
C660 H652 0.950 . S
C660 C661 1.386 . S
C660 C662 1.391 . S
C661 C660 1.386 . S
C661 C665 1.393 . S
C662 H654 0.950 . S
C662 C660 1.391 . S
C662 C663 1.400 . S
C663 C662 1.400 . S
C663 C664 1.398 . S
C663 C669 1.491 1_455 S
C664 H655 0.950 . S
C664 C663 1.398 . S
C664 C665 1.391 . S
C665 H653 0.950 . S
C665 C661 1.393 . S
C665 C664 1.391 . S
C666 H656 0.950 . S
C666 C667 1.386 . S
C666 C668 1.391 . S
C667 C666 1.386 . S
C667 C671 1.393 . S
C668 H657 0.950 . S
C668 C666 1.391 . S
C668 C669 1.400 . S
C669 C663 1.491 1_655 S
C669 C668 1.400 . S
C669 C670 1.398 . S
C670 H658 0.950 . S
C670 C669 1.398 . S
C670 C671 1.391 . S
C671 H659 0.950 . S
C671 C667 1.393 . S
C671 C670 1.391 . S
H672 C680 0.950 . S
H673 C685 0.950 . S
H674 C682 0.950 . S
H675 C684 0.950 . S
H676 C686 0.950 . S
H677 C688 0.950 . S
H678 C690 0.950 . S
H679 C691 0.950 . S
C680 H672 0.950 . S
C680 C681 1.386 . S
C680 C682 1.391 . S
C681 C680 1.386 . S
C681 C685 1.393 . S
C682 H674 0.950 . S
C682 C680 1.391 . S
C682 C683 1.400 . S
C683 C682 1.400 . S
C683 C684 1.398 . S
C683 C689 1.491 . S
C684 H675 0.950 . S
C684 C683 1.398 . S
C684 C685 1.391 . S
C685 H673 0.950 . S
C685 C681 1.393 . S
C685 C684 1.391 . S
C686 H676 0.950 . S
C686 C687 1.386 . S
C686 C688 1.391 . S
C687 C686 1.386 . S
C687 C691 1.393 . S
C688 H677 0.950 . S
C688 C686 1.391 . S
C688 C689 1.400 . S
C689 C683 1.491 . S
C689 C688 1.400 . S
C689 C690 1.398 . S
C690 H678 0.950 . S
C690 C689 1.398 . S
C690 C691 1.391 . S
C691 H679 0.950 . S
C691 C687 1.393 . S
C691 C690 1.391 . S
H692 C700 0.950 . S
H693 C705 0.950 . S
H694 C702 0.950 . S
H695 C704 0.950 . S
H696 C706 0.950 . S
H697 C708 0.950 . S
H698 C710 0.950 . S
H699 C711 0.950 . S
C700 H692 0.950 . S
C700 C701 1.386 . S
C700 C702 1.391 . S
C701 C700 1.386 . S
C701 C705 1.393 . S
C702 H694 0.950 . S
C702 C700 1.391 . S
C702 C703 1.400 . S
C703 C702 1.400 . S
C703 C704 1.398 . S
C703 C709 1.491 . S
C704 H695 0.950 . S
C704 C703 1.398 . S
C704 C705 1.391 . S
C705 H693 0.950 . S
C705 C701 1.393 . S
C705 C704 1.391 . S
C706 H696 0.950 . S
C706 C707 1.386 . S
C706 C708 1.391 . S
C707 C706 1.386 . S
C707 C711 1.393 . S
C708 H697 0.950 . S
C708 C706 1.391 . S
C708 C709 1.400 . S
C709 C703 1.491 . S
C709 C708 1.400 . S
C709 C710 1.398 . S
C710 H698 0.950 . S
C710 C709 1.398 . S
C710 C711 1.391 . S
C711 H699 0.950 . S
C711 C707 1.393 . S
C711 C710 1.391 . S
H712 C720 0.950 . S
H713 C725 0.950 . S
H714 C722 0.950 . S
H715 C724 0.950 . S
H716 C726 0.950 . S
H717 C728 0.950 . S
H718 C730 0.950 . S
H719 C731 0.950 . S
C720 H712 0.950 . S
C720 C721 1.386 . S
C720 C722 1.391 . S
C721 C720 1.386 . S
C721 C725 1.393 . S
C722 H714 0.950 . S
C722 C720 1.391 . S
C722 C723 1.400 . S
C723 C722 1.400 . S
C723 C724 1.398 . S
C723 C729 1.491 . S
C724 H715 0.950 . S
C724 C723 1.398 . S
C724 C725 1.391 . S
C725 H713 0.950 . S
C725 C721 1.393 . S
C725 C724 1.391 . S
C726 H716 0.950 . S
C726 C727 1.386 . S
C726 C728 1.391 . S
C727 C726 1.386 . S
C727 C731 1.393 . S
C728 H717 0.950 . S
C728 C726 1.391 . S
C728 C729 1.400 . S
C729 C723 1.491 . S
C729 C728 1.400 . S
C729 C730 1.398 . S
C730 H718 0.950 . S
C730 C729 1.398 . S
C730 C731 1.391 . S
C731 H719 0.950 . S
C731 C727 1.393 . S
C731 C730 1.391 . S
H732 C740 0.950 . S
H733 C745 0.950 . S
H734 C742 0.950 . S
H735 C744 0.950 . S
H736 C746 0.950 . S
H737 C748 0.950 . S
H738 C750 0.950 . S
H739 C751 0.950 . S
C740 H732 0.950 . S
C740 C741 1.386 . S
C740 C742 1.391 . S
C741 C740 1.386 . S
C741 C745 1.393 . S
C742 H734 0.950 . S
C742 C740 1.391 . S
C742 C743 1.400 . S
C743 C742 1.400 . S
C743 C744 1.398 . S
C743 C749 1.491 . S
C744 H735 0.950 . S
C744 C743 1.398 . S
C744 C745 1.391 . S
C745 H733 0.950 . S
C745 C741 1.393 . S
C745 C744 1.391 . S
C746 H736 0.950 . S
C746 C747 1.386 . S
C746 C748 1.391 . S
C747 C746 1.386 . S
C747 C751 1.393 . S
C748 H737 0.950 . S
C748 C746 1.391 . S
C748 C749 1.400 . S
C749 C743 1.491 . S
C749 C748 1.400 . S
C749 C750 1.398 . S
C750 H738 0.950 . S
C750 C749 1.398 . S
C750 C751 1.391 . S
C751 H739 0.950 . S
C751 C747 1.393 . S
C751 C750 1.391 . S
H752 C760 0.950 . S
H753 C765 0.950 . S
H754 C762 0.950 . S
H755 C764 0.950 . S
H756 C766 0.950 . S
H757 C768 0.950 . S
H758 C770 0.950 . S
H759 C771 0.950 . S
C760 H752 0.950 . S
C760 C761 1.386 . S
C760 C762 1.391 . S
C761 C760 1.386 . S
C761 C765 1.393 . S
C762 H754 0.950 . S
C762 C760 1.391 . S
C762 C763 1.400 . S
C763 C762 1.400 . S
C763 C764 1.398 . S
C763 C769 1.491 . S
C764 H755 0.950 . S
C764 C763 1.398 . S
C764 C765 1.391 . S
C765 H753 0.950 . S
C765 C761 1.393 . S
C765 C764 1.391 . S
C766 H756 0.950 . S
C766 C767 1.386 . S
C766 C768 1.391 . S
C767 C766 1.386 . S
C767 C771 1.393 . S
C768 H757 0.950 . S
C768 C766 1.391 . S
C768 C769 1.400 . S
C769 C763 1.491 . S
C769 C768 1.400 . S
C769 C770 1.398 . S
C770 H758 0.950 . S
C770 C769 1.398 . S
C770 C771 1.391 . S
C771 H759 0.950 . S
C771 C767 1.393 . S
C771 C770 1.391 . S
H772 C780 0.950 . S
H773 C785 0.950 . S
H774 C782 0.950 . S
H775 C784 0.950 . S
H776 C786 0.950 . S
H777 C788 0.950 . S
H778 C790 0.950 . S
H779 C791 0.950 . S
C780 H772 0.950 . S
C780 C781 1.386 . S
C780 C782 1.391 . S
C781 C780 1.386 . S
C781 C785 1.393 . S
C782 H774 0.950 . S
C782 C780 1.391 . S
C782 C783 1.400 . S
C783 C782 1.400 . S
C783 C784 1.398 . S
C783 C789 1.491 . S
C784 H775 0.950 . S
C784 C783 1.398 . S
C784 C785 1.391 . S
C785 H773 0.950 . S
C785 C781 1.393 . S
C785 C784 1.391 . S
C786 H776 0.950 . S
C786 C787 1.386 . S
C786 C788 1.391 . S
C787 C786 1.386 . S
C787 C791 1.393 . S
C788 H777 0.950 . S
C788 C786 1.391 . S
C788 C789 1.400 . S
C789 C783 1.491 . S
C789 C788 1.400 . S
C789 C790 1.398 . S
C790 H778 0.950 . S
C790 C789 1.398 . S
C790 C791 1.391 . S
C791 H779 0.950 . S
C791 C787 1.393 . S
C791 C790 1.391 . S
H792 C800 0.950 . S
H793 C805 0.950 . S
H794 C802 0.950 . S
H795 C804 0.950 . S
H796 C806 0.950 . S
H797 C808 0.950 . S
H798 C810 0.950 . S
H799 C811 0.950 . S
C800 H792 0.950 . S
C800 C801 1.386 . S
C800 C802 1.391 . S
C801 C800 1.386 . S
C801 C805 1.393 . S
C802 H794 0.950 . S
C802 C800 1.391 . S
C802 C803 1.400 . S
C803 C802 1.400 . S
C803 C804 1.398 . S
C803 C809 1.491 . S
C804 H795 0.950 . S
C804 C803 1.398 . S
C804 C805 1.391 . S
C805 H793 0.950 . S
C805 C801 1.393 . S
C805 C804 1.391 . S
C806 H796 0.950 . S
C806 C807 1.386 . S
C806 C808 1.391 . S
C807 C806 1.386 . S
C807 C811 1.393 . S
C808 H797 0.950 . S
C808 C806 1.391 . S
C808 C809 1.400 . S
C809 C803 1.491 . S
C809 C808 1.400 . S
C809 C810 1.398 . S
C810 H798 0.950 . S
C810 C809 1.398 . S
C810 C811 1.391 . S
C811 H799 0.950 . S
C811 C807 1.393 . S
C811 C810 1.391 . S
H812 C820 0.950 . S
H813 C825 0.950 . S
H814 C822 0.950 . S
H815 C824 0.950 . S
H816 C826 0.950 . S
H817 C828 0.950 . S
H818 C830 0.950 . S
H819 C831 0.950 . S
C820 H812 0.950 . S
C820 C821 1.386 . S
C820 C822 1.391 . S
C821 C820 1.386 . S
C821 C825 1.393 . S
C822 H814 0.950 . S
C822 C820 1.391 . S
C822 C823 1.400 . S
C823 C822 1.400 . S
C823 C824 1.398 . S
C823 C829 1.491 . S
C824 H815 0.950 . S
C824 C823 1.398 . S
C824 C825 1.391 . S
C825 H813 0.950 . S
C825 C821 1.393 . S
C825 C824 1.391 . S
C826 H816 0.950 . S
C826 C827 1.386 . S
C826 C828 1.391 . S
C827 C826 1.386 . S
C827 C831 1.393 . S
C828 H817 0.950 . S
C828 C826 1.391 . S
C828 C829 1.400 . S
C829 C823 1.491 . S
C829 C828 1.400 . S
C829 C830 1.398 . S
C830 H818 0.950 . S
C830 C829 1.398 . S
C830 C831 1.391 . S
C831 H819 0.950 . S
C831 C827 1.393 . S
C831 C830 1.391 . S
C281 C17 1.123 . S
C287 C85 1.123 1_556 S
C301 C119 1.123 . S
C307 C51 1.123 1_556 S
C321 C153 1.123 . S
C327 C221 1.123 . S
C341 C255 1.123 . S
C347 C187 1.123 . S
C361 C142 1.049 . S
C367 C6 1.025 . S
C381 C198 1.050 . S
C387 C62 1.025 . S
C401 C232 1.056 . S
C407 C74 1.031 . S
C421 C266 1.034 . S
C427 C108 1.054 . S
C441 C226 0.550 . S
C447 C83 0.552 . S
C461 C260 0.542 . S
C467 C117 0.550 . S
C481 C15 0.474 . S
C487 C151 0.466 . S
C501 C192 0.551 . S
C507 C56 0.552 . S
C521 C244 1.029 . S
C527 C40 1.055 . S
C541 C164 1.056 . S
C547 C96 1.036 . S
C561 C176 1.053 . S
C567 C130 1.031 . S
C581 C210 1.051 . S
C587 C28 1.029 . S
C601 C124 0.476 . S
C607 C185 0.488 . S
C621 C22 0.461 . S
C627 C219 0.463 . S
C641 C49 0.540 . S
C647 C253 0.547 . S
C661 C158 0.550 . S
C667 C90 0.543 . S
C681 C173 2.910 . S
C687 C1 2.908 . S
C701 C37 2.911 . S
C707 C207 2.908 . S
C721 C241 2.913 . S
C727 C69 2.912 . S
C741 C103 2.914 . S
C747 C137 2.910 . S
C761 C239 2.910 . S
C767 C71 2.915 . S
C781 C139 2.912 . S
C787 C105 2.912 . S
C801 C3 2.912 . S
C807 C171 2.912 . S
C821 C205 2.911 . S
C827 C35 2.912 . S
