# Generated by pormake.
# Topology lcy, (6)-cn, num edge types: 1
# Building blocks:
#     Node 0, Type 0, BuildingBlock: UKALOJ_clean_sbu_0, # of connection points: 6
#     Node 1, Type 0, BuildingBlock: UKALOJ_clean_sbu_0, # of connection points: 6
#     Node 2, Type 0, BuildingBlock: UKALOJ_clean_sbu_0, # of connection points: 6
#     Node 3, Type 0, BuildingBlock: UKALOJ_clean_sbu_0, # of connection points: 6
#     Edge 4, Type (0, 0), BuildingBlock: FUNLAD_clean_linker_0, # of connection points: 2
#     Edge 5, Type (0, 0), BuildingBlock: FUNLAD_clean_linker_0, # of connection points: 2
#     Edge 6, Type (0, 0), BuildingBlock: FUNLAD_clean_linker_0, # of connection points: 2
#     Edge 7, Type (0, 0), BuildingBlock: FUNLAD_clean_linker_0, # of connection points: 2
#     Edge 8, Type (0, 0), BuildingBlock: FUNLAD_clean_linker_0, # of connection points: 2
#     Edge 9, Type (0, 0), BuildingBlock: FUNLAD_clean_linker_0, # of connection points: 2
#     Edge 10, Type (0, 0), BuildingBlock: FUNLAD_clean_linker_0, # of connection points: 2
#     Edge 11, Type (0, 0), BuildingBlock: FUNLAD_clean_linker_0, # of connection points: 2
#     Edge 12, Type (0, 0), BuildingBlock: FUNLAD_clean_linker_0, # of connection points: 2
#     Edge 13, Type (0, 0), BuildingBlock: FUNLAD_clean_linker_0, # of connection points: 2
#     Edge 14, Type (0, 0), BuildingBlock: FUNLAD_clean_linker_0, # of connection points: 2
#     Edge 15, Type (0, 0), BuildingBlock: FUNLAD_clean_linker_0, # of connection points: 2
# Relax obj value: 0.332
# Max RMSD: 0.289
# Mean RMSD: 0.262
data_MOF--net-lcy--node1-UKALOJ_clean_sbu_0--edge1-FUNLAD_clean_linker_0
_symmetry_space_group_name_H-M    P1
_symmetry_Int_Tables_number       1
_symmetry_cell_setting            triclinic
loop_
_symmetry_equiv_pos_as_xyz
'x, y, z'
_cell_length_a     30.064462
_cell_length_b     31.635584
_cell_length_c     30.643711
_cell_angle_alpha  89.853779
_cell_angle_beta   98.311226
_cell_angle_gamma 97.953014
loop_
_atom_site_label
_atom_site_type_symbol
_atom_site_fract_x
_atom_site_fract_y
_atom_site_fract_z
_atom_type_partial_charge
Zn0 Zn 0.3603 0.4197 0.32882 0.0
O1 O 0.33743 0.46429 0.36862 0.0
C2 C 0.43929 0.48416 0.32288 0.0
Zn3 Zn 0.4168 0.41253 0.38265 0.0
C4 C 0.35629 0.47155 0.40836 0.0
O5 O 0.39038 0.4533 0.42342 0.0
C6 C 0.41957 0.36038 0.30295 0.0
O7 O 0.37667 0.35917 0.4076 0.0
O8 O 0.32059 0.37088 0.35677 0.0
N9 N 0.47141 0.40712 0.43009 0.0
C10 C 0.49631 0.37482 0.43797 0.0
C11 C 0.53195 0.4286 0.47585 0.0
N12 N 0.4935 0.44044 0.45393 0.0
N13 N 0.53471 0.38765 0.466 0.0
C14 C 0.29869 0.45199 0.24837 0.0
C15 C 0.25266 0.39542 0.2296 0.0
N16 N 0.30759 0.42257 0.27911 0.0
N17 N 0.27862 0.38759 0.26753 0.0
N18 N 0.26482 0.43552 0.21666 0.0
H19 H 0.33146 0.50825 0.28548 0.0
H20 H 0.29817 0.51851 0.2334 0.0
H21 H 0.35196 0.49971 0.23414 0.0
C22 C 0.3213 0.49735 0.25063 0.0
C23 C 0.48223 0.33018 0.41992 0.0
H24 H 0.44494 0.32296 0.41141 0.0
H25 H 0.49444 0.30682 0.44431 0.0
H26 H 0.49763 0.32632 0.38976 0.0
O27 O 0.44195 0.37216 0.34026 0.0
O28 O 0.38284 0.375 0.29003 0.0
C29 C 0.33547 0.35009 0.38988 0.0
O30 O 0.40095 0.46875 0.30205 0.0
O31 O 0.45473 0.4669 0.35831 0.0
Zn32 Zn 0.91326 0.13141 0.629 0.0
O33 O 0.8756 0.17743 0.59398 0.0
C34 C 0.93472 0.19003 0.70645 0.0
Zn35 Zn 0.86186 0.11697 0.67417 0.0
C36 C 0.84049 0.18521 0.60957 0.0
O37 O 0.82826 0.16431 0.64218 0.0
C38 C 0.93335 0.0612 0.6934 0.0
O39 O 0.82248 0.06987 0.62796 0.0
O40 O 0.87659 0.08347 0.58675 0.0
N41 N 0.81416 0.11008 0.71599 0.0
C42 C 0.79784 0.07766 0.74043 0.0
C43 C 0.7687 0.13229 0.75642 0.0
N44 N 0.79576 0.14388 0.72585 0.0
N45 N 0.76952 0.09091 0.76639 0.0
C46 C 0.99015 0.17239 0.57733 0.0
C47 C 0.011 0.11661 0.55238 0.0
N48 N 0.96218 0.1385 0.58885 0.0
N49 N 0.9751 0.10395 0.57314 0.0
N50 N 0.02161 0.15943 0.55482 0.0
H51 H 0.94976 0.22086 0.591 0.0
H52 H 0.99466 0.23854 0.5591 0.0
H53 H 0.0074 0.22914 0.61729 0.0
C54 C 0.985 0.21784 0.58646 0.0
C55 C 0.80788 0.03285 0.73707 0.0
H56 H 0.77893 0.00972 0.74481 0.0
H57 H 0.8382 0.02893 0.76115 0.0
H58 H 0.81504 0.02597 0.70351 0.0
O59 O 0.89676 0.06859 0.70627 0.0
O60 O 0.9489 0.08437 0.66356 0.0
C61 C 0.83888 0.06274 0.59299 0.0
O62 O 0.94941 0.18086 0.67131 0.0
O63 O 0.90056 0.16634 0.71769 0.0
Zn64 Zn 0.07577 0.64054 0.85219 0.0
O65 O 0.12324 0.68813 0.89078 0.0
C66 C 0.04909 0.706 0.78802 0.0
Zn67 Zn 0.11931 0.64551 0.7993 0.0
C68 C 0.15848 0.70432 0.87479 0.0
O69 O 0.16341 0.69323 0.83624 0.0
C70 C 0.04104 0.57633 0.77939 0.0
O71 O 0.15915 0.59967 0.83118 0.0
O72 O 0.11243 0.59407 0.88038 0.0
N73 N 0.15912 0.65415 0.75066 0.0
C74 C 0.17225 0.62706 0.72279 0.0
C75 C 0.20311 0.68974 0.70967 0.0
N76 N 0.17829 0.69305 0.74239 0.0
N77 N 0.19967 0.64869 0.69659 0.0
C78 C 0.01299 0.65753 0.9207 0.0
C79 C -0.00141 0.59547 0.94695 0.0
N80 N 0.0363 0.63153 0.9011 0.0
N81 N 0.02747 0.59305 0.91762 0.0
N82 N 0.98881 0.63557 0.94936 0.0
H83 H 0.04936 0.71773 0.90444 0.0
H84 H 0.01025 0.72142 0.94352 0.0
H85 H 0.9892 0.71063 0.88609 0.0
C86 C 0.01585 0.70463 0.91345 0.0
C87 C 0.16033 0.57945 0.72295 0.0
H88 H 0.15132 0.56832 0.75518 0.0
H89 H 0.18905 0.56368 0.71512 0.0
H90 H 0.13067 0.56976 0.69733 0.0
O91 O 0.07504 0.59503 0.76318 0.0
O92 O 0.03134 0.59116 0.81485 0.0
C93 C 0.14629 0.58268 0.86573 0.0
O94 O 0.03864 0.68804 0.82298 0.0
O95 O 0.08044 0.6933 0.76971 0.0
Zn96 Zn 0.60977 0.85994 0.15526 0.0
O97 O 0.5576 0.83304 0.10283 0.0
C98 C 0.63565 0.93301 0.09952 0.0
Zn99 Zn 0.57129 0.91324 0.1649 0.0
C100 C 0.5229 0.85222 0.09396 0.0
O101 O 0.52135 0.88631 0.1149 0.0
C102 C 0.65501 0.92006 0.22942 0.0
O103 O 0.53657 0.87699 0.21184 0.0
O104 O 0.57558 0.82502 0.20037 0.0
N105 N 0.53468 0.96185 0.16813 0.0
C106 C 0.52995 0.98845 0.2008 0.0
C107 C 0.49466 0.00979 0.14123 0.0
N108 N 0.51246 0.97497 0.13123 0.0
N109 N 0.50531 0.01907 0.18465 0.0
C110 C 0.66672 0.8002 0.11506 0.0
C111 C 0.69148 0.76508 0.17062 0.0
N112 N 0.64726 0.81172 0.14929 0.0
N113 N 0.66238 0.7896 0.18373 0.0
N114 N 0.69498 0.77141 0.12771 0.0
H115 H 0.62226 0.82467 0.06211 0.0
H116 H 0.66049 0.79095 0.04465 0.0
H117 H 0.68146 0.84443 0.06426 0.0
C118 C 0.65691 0.81584 0.06886 0.0
C119 C 0.54745 0.98306 0.24848 0.0
H120 H 0.54979 0.94904 0.25574 0.0
H121 H 0.52508 0.99539 0.2698 0.0
H122 H 0.58181 0.00139 0.25627 0.0
O123 O 0.62156 0.93975 0.21641 0.0
O124 O 0.65931 0.8863 0.20885 0.0
C125 C 0.54665 0.83978 0.22012 0.0
O126 O 0.64479 0.89621 0.11048 0.0
O127 O 0.60568 0.94864 0.11715 0.0
C128 C 0.14676 0.51814 0.91078 0.0
C129 C 0.17148 0.55253 0.89195 0.0
C130 C 0.16722 0.4971 0.94655 0.0
C131 C 0.21256 0.51082 0.96477 0.0
C132 C 0.23863 0.54206 0.94286 0.0
C133 C 0.21813 0.56295 0.90655 0.0
C134 C 0.23175 0.49584 0.00851 0.0
C135 C 0.20584 0.48789 0.0409 0.0
C136 C 0.22259 0.4756 0.0865 0.0
C137 C 0.19063 0.45718 0.11274 0.0
C138 C 0.20444 0.44507 0.15587 0.0
C139 C 0.25042 0.45187 0.17396 0.0
H140 H 0.29443 0.49766 0.08624 0.0
C141 C 0.28247 0.47079 0.14809 0.0
C142 C 0.26874 0.48277 0.10484 0.0
H143 H 0.31831 0.47509 0.16078 0.0
H144 H 0.11075 0.5094 0.89968 0.0
H145 H 0.14674 0.4717 0.96135 0.0
H146 H 0.27387 0.55262 0.95587 0.0
H147 H 0.23768 0.58965 0.89264 0.0
H148 H 0.26792 0.49433 0.01466 0.0
H149 H 0.16994 0.49086 0.03399 0.0
H150 H 0.15482 0.45153 0.09962 0.0
H151 H 0.17929 0.43006 0.17511 0.0
C152 C 0.67916 0.96983 0.2946 0.0
C153 C 0.68482 0.93309 0.27146 0.0
C154 C 0.70212 0.97889 0.33722 0.0
C155 C 0.73159 0.95151 0.35766 0.0
C156 C 0.73925 0.91611 0.33369 0.0
C157 C 0.71587 0.90676 0.29115 0.0
C158 C 0.75625 0.96032 0.40306 0.0
C159 C 0.73919 0.98043 0.43436 0.0
C160 C 0.76534 0.99452 0.47819 0.0
C161 C 0.74203 0.00642 0.51187 0.0
C162 C 0.76581 0.02584 0.55109 0.0
C163 C 0.81339 0.03418 0.55701 0.0
H164 H 0.83264 0.99282 0.46045 0.0
C165 C 0.8367 0.02009 0.52444 0.0
C166 C 0.81309 0.00061 0.48552 0.0
H167 H 0.87344 0.026 0.52806 0.0
H168 H 0.65637 0.99132 0.28013 0.0
H169 H 0.69688 0.00752 0.35392 0.0
H170 H 0.7625 0.89498 0.34835 0.0
H171 H 0.72117 0.87824 0.27427 0.0
H172 H 0.78888 0.949 0.41083 0.0
H173 H 0.70463 0.98776 0.4274 0.0
H174 H 0.70526 0.00224 0.50713 0.0
H175 H 0.74692 0.0366 0.57546 0.0
C176 C 0.19854 0.60294 0.63131 0.0
C177 C 0.22211 0.63292 0.66302 0.0
C178 C 0.22069 0.58747 0.59897 0.0
C179 C 0.26684 0.60221 0.59744 0.0
C180 C 0.29018 0.63255 0.62899 0.0
C181 C 0.26791 0.64807 0.66123 0.0
C182 C 0.29227 0.58477 0.56523 0.0
C183 C 0.27226 0.56713 0.5261 0.0
C184 C 0.29681 0.54586 0.49572 0.0
C185 C 0.27775 0.5401 0.45119 0.0
C186 C 0.29781 0.51711 0.42237 0.0
C187 C 0.33722 0.49905 0.43766 0.0
H188 H 0.35189 0.53097 0.5451 0.0
C189 C 0.35682 0.50549 0.48203 0.0
C190 C 0.33678 0.52846 0.51081 0.0
H191 H 0.38703 0.49179 0.49494 0.0
H192 H 0.16291 0.59161 0.6314 0.0
H193 H 0.20174 0.56333 0.57599 0.0
H194 H 0.32578 0.64419 0.62878 0.0
H195 H 0.28662 0.67135 0.68534 0.0
H196 H 0.32885 0.58732 0.57404 0.0
H197 H 0.23644 0.56848 0.51546 0.0
H198 H 0.24681 0.55288 0.43877 0.0
H199 H 0.28181 0.51267 0.38837 0.0
C200 C 0.63726 0.98682 0.03942 0.0
C201 C 0.65793 0.95579 0.06465 0.0
C202 C 0.65621 0.00488 0.00338 0.0
C203 C 0.69639 0.99241 0.99226 0.0
C204 C 0.71809 0.96299 0.01884 0.0
C205 C 0.69888 0.94455 0.05441 0.0
C206 C 0.71691 0.0095 0.95348 0.0
C207 C 0.69216 0.02058 0.91603 0.0
C208 C 0.71226 0.03633 0.87639 0.0
C209 C 0.6874 0.06037 0.84571 0.0
C210 C 0.70569 0.0771 0.80886 0.0
C211 C 0.74894 0.06954 0.80149 0.0
H212 H 0.77501 0.00838 0.89022 0.0
C213 C 0.77341 0.0446 0.83148 0.0
C214 C 0.75516 0.02781 0.86832 0.0
H215 H 0.80735 0.03929 0.82746 0.0
H216 H 0.60577 0.9962 0.0467 0.0
H217 H 0.63938 0.02854 0.98444 0.0
H218 H 0.74939 0.95332 0.01136 0.0
H219 H 0.71592 0.92115 0.07364 0.0
H220 H 0.75345 0.01123 0.9557 0.0
H221 H 0.65558 0.01854 0.91425 0.0
H222 H 0.65414 0.06712 0.85079 0.0
H223 H 0.68635 0.09652 0.78633 0.0
C224 C 0.07571 0.16818 0.50118 0.0
C225 C 0.06005 0.18327 0.53851 0.0
C226 C 0.11386 0.19001 0.48577 0.0
C227 C 0.13678 0.22763 0.50722 0.0
C228 C 0.12158 0.24259 0.54462 0.0
C229 C 0.08426 0.22009 0.56076 0.0
C230 C 0.17418 0.25356 0.48898 0.0
C231 C 0.20666 0.23651 0.47206 0.0
C232 C 0.24014 0.26373 0.44975 0.0
C233 C 0.28665 0.26061 0.45934 0.0
C234 C 0.31822 0.28839 0.4397 0.0
C235 C 0.30333 0.31863 0.4093 0.0
H236 H 0.18954 0.29566 0.41012 0.0
C237 C 0.25654 0.3202 0.39851 0.0
C238 C 0.22535 0.29328 0.41871 0.0
H239 H 0.24386 0.34308 0.37522 0.0
H240 H 0.05812 0.13963 0.48365 0.0
H241 H 0.12451 0.17821 0.45634 0.0
H242 H 0.13901 0.27147 0.56172 0.0
H243 H 0.0752 0.23131 0.59105 0.0
H244 H 0.17511 0.28806 0.48973 0.0
H245 H 0.20889 0.2026 0.47493 0.0
H246 H 0.29857 0.23766 0.48295 0.0
H247 H 0.35409 0.2864 0.44842 0.0
C248 C 0.05023 0.77374 0.74465 0.0
C249 C 0.02867 0.74449 0.77224 0.0
C250 C 0.03446 0.81293 0.73492 0.0
C251 C 0.9966 0.82369 0.7525 0.0
C252 C 0.97386 0.79348 0.77824 0.0
C253 C 0.9898 0.75456 0.78824 0.0
C254 C 0.97926 0.86554 0.74457 0.0
C255 C 0.00481 0.90176 0.73421 0.0
C256 C 0.98732 0.94363 0.72689 0.0
C257 C 0.00959 0.97432 0.70127 0.0
C258 C 0.99326 0.01324 0.69196 0.0
C259 C 0.95441 0.02275 0.70848 0.0
H260 H 0.93241 0.93205 0.76639 0.0
C261 C 0.93341 0.99293 0.73591 0.0
C262 C 0.94962 0.95391 0.74506 0.0
H263 H 0.90368 -0.00083 0.7495 0.0
H264 H 0.08022 0.767 0.73169 0.0
H265 H 0.05211 0.83454 0.71369 0.0
H266 H 0.94422 0.80045 0.79171 0.0
H267 H 0.97207 0.73265 0.8092 0.0
H268 H 0.94414 0.86641 0.74864 0.0
H269 H 0.0399 0.90092 0.72999 0.0
H270 H 0.03909 0.96771 0.68733 0.0
H271 H 0.01044 0.03537 0.67077 0.0
C272 C 0.23683 0.74451 0.88408 0.0
C273 C 0.19686 0.73089 0.90212 0.0
C274 C 0.27609 0.76327 0.91078 0.0
C275 C 0.27634 0.7691 0.95621 0.0
C276 C 0.23576 0.75801 0.97388 0.0
C277 C 0.19641 0.73872 0.94717 0.0
C278 C 0.31832 0.78731 0.98551 0.0
C279 C 0.36017 0.78066 0.97851 0.0
C280 C 0.4023 0.79959 0.00723 0.0
C281 C 0.44087 0.77843 0.01207 0.0
C282 C 0.4807 0.79558 0.03955 0.0
C283 C 0.48276 0.83458 0.06209 0.0
H284 H 0.37657 0.85718 0.02457 0.0
C285 C 0.44459 0.85636 0.05579 0.0
C286 C 0.40494 0.83915 0.02877 0.0
H287 H 0.44497 0.88672 0.07223 0.0
H288 H 0.23839 0.73941 0.84942 0.0
H289 H 0.30626 0.77297 0.89574 0.0
H290 H 0.23492 0.76291 0.00871 0.0
H291 H 0.16621 0.72868 0.96207 0.0
H292 H 0.31433 0.80488 0.01478 0.0
H293 H 0.36373 0.75931 0.95191 0.0
H294 H 0.43988 0.74816 0.99525 0.0
H295 H 0.50952 0.77811 0.04358 0.0
C296 C 0.47591 0.31292 0.28906 0.0
C297 C 0.43324 0.32629 0.2774 0.0
C298 C 0.48565 0.27573 0.27044 0.0
C299 C 0.45277 0.25137 0.2398 0.0
C300 C 0.41176 0.26681 0.22525 0.0
C301 C 0.40194 0.30392 0.24401 0.0
C302 C 0.45919 0.20889 0.22396 0.0
C303 C 0.48323 0.1827 0.24923 0.0
C304 C 0.487 0.13905 0.23474 0.0
C305 C 0.5272 0.12204 0.24866 0.0
C306 C 0.53279 0.08185 0.23355 0.0
C307 C 0.49771 0.05756 0.2052 0.0
H308 H 0.41924 0.12584 0.19741 0.0
C309 C 0.45678 0.07388 0.19273 0.0
C310 C 0.4513 0.11421 0.2075 0.0
H311 H 0.42938 0.05564 0.17081 0.0
H312 H 0.50131 0.33047 0.31349 0.0
H313 H 0.51852 0.26577 0.28075 0.0
H314 H 0.38627 0.24894 0.20106 0.0
H315 H 0.36891 0.31374 0.23396 0.0
H316 H 0.44119 0.19795 0.19178 0.0
H317 H 0.50131 0.19345 0.28142 0.0
H318 H 0.55504 0.1406 0.26982 0.0
H319 H 0.56533 0.07088 0.24233 0.0
C320 C 0.80505 0.22707 0.54713 0.0
C321 C 0.81439 0.21938 0.59244 0.0
C322 C 0.77524 0.25615 0.53191 0.0
C323 C 0.75518 0.27839 0.56199 0.0
C324 C 0.76691 0.27236 0.60727 0.0
C325 C 0.79567 0.24283 0.6223 0.0
C326 C 0.72091 0.30716 0.54797 0.0
C327 C 0.69004 0.29998 0.51137 0.0
C328 C 0.65107 0.32448 0.50055 0.0
C329 C 0.62918 0.32368 0.45683 0.0
C330 C 0.59117 0.34448 0.4455 0.0
C331 C 0.57361 0.36592 0.47781 0.0
H332 H 0.64852 0.34699 0.56723 0.0
C333 C 0.59561 0.3673 0.52145 0.0
C334 C 0.63372 0.3465 0.53289 0.0
H335 H 0.58272 0.38385 0.54679 0.0
H336 H 0.81925 0.20943 0.52354 0.0
H337 H 0.76775 0.26093 0.49677 0.0
H338 H 0.75235 0.28935 0.63113 0.0
H339 H 0.80277 0.23784 0.65749 0.0
H340 H 0.71888 0.3328 0.57072 0.0
H341 H 0.69237 0.2742 0.48883 0.0
H342 H 0.64168 0.30707 0.43124 0.0
H343 H 0.57599 0.34437 0.41128 0.0
C344 C 0.99152 0.507 0.7883 0.0
C345 C 0.0196 0.53297 0.76299 0.0
C346 C 0.97973 0.46321 0.77881 0.0
C347 C 0.99578 0.44425 0.74367 0.0
C348 C 0.02107 0.47086 0.71656 0.0
C349 C 0.03295 0.51457 0.72612 0.0
C350 C 0.98794 0.39719 0.73431 0.0
C351 C 0.97431 0.36707 0.76283 0.0
C352 C 0.96833 0.32039 0.75236 0.0
C353 C 0.93473 0.29284 0.76978 0.0
C354 C 0.92584 0.24946 0.75754 0.0
C355 C 0.95091 0.23255 0.72805 0.0
H356 H 0.0231 0.32265 0.71298 0.0
C357 C 0.98701 0.25948 0.71362 0.0
C358 C 0.99553 0.30286 0.72544 0.0
H359 H 0.00767 0.24745 0.69169 0.0
H360 H 0.98042 0.52002 0.8169 0.0
H361 H 0.95878 0.44451 0.7997 0.0
H362 H 0.03331 0.4575 0.68878 0.0
H363 H 0.05433 0.53351 0.70571 0.0
H364 H 0.99502 0.38691 0.70253 0.0
H365 H 0.96596 0.37634 0.79437 0.0
H366 H 0.91385 0.30528 0.79132 0.0
H367 H 0.89778 0.22976 0.76937 0.0
C368 C 0.92275 0.67283 0.95289 0.0
C369 C 0.95553 0.64892 0.97349 0.0
C370 C 0.88883 0.68379 0.97551 0.0
C371 C 0.88711 0.67115 0.0194 0.0
C372 C 0.91934 0.64635 0.03959 0.0
C373 C 0.95323 0.63528 0.0168 0.0
C374 C 0.85147 0.6823 0.04442 0.0
C375 C 0.83088 0.71718 0.03573 0.0
C376 C 0.79581 0.72982 0.06053 0.0
C377 C 0.78883 0.77274 0.05978 0.0
C378 C 0.75583 0.78628 0.08186 0.0
C379 C 0.72837 0.75701 0.10444 0.0
H380 H 0.77223 0.66688 0.08413 0.0
C381 C 0.73536 0.71409 0.10566 0.0
C382 C 0.76861 0.70043 0.0836 0.0
H383 H 0.71466 0.69116 0.12322 0.0
H384 H 0.92248 0.68189 0.9188 0.0
H385 H 0.86344 0.7012 0.958 0.0
H386 H 0.91843 0.63568 0.07311 0.0
H387 H 0.97775 0.61611 0.03293 0.0
H388 H 0.84395 0.66248 0.07213 0.0
H389 H 0.84179 0.73905 0.01075 0.0
H390 H 0.80939 0.79608 0.04248 0.0
H391 H 0.75239 0.81986 0.08197 0.0
C392 C 0.48346 0.78601 0.23413 0.0
C393 C 0.52413 0.81176 0.25049 0.0
C394 C 0.47073 0.74785 0.25484 0.0
C395 C 0.4986 0.73529 0.29211 0.0
C396 C 0.53635 0.76354 0.31133 0.0
C397 C 0.54948 0.80141 0.29019 0.0
C398 C 0.49244 0.69088 0.30731 0.0
C399 C 0.48711 0.65827 0.278 0.0
C400 C 0.48154 0.61257 0.28965 0.0
C401 C 0.46128 0.58257 0.25652 0.0
C402 C 0.45083 0.53972 0.26664 0.0
C403 C 0.46083 0.52602 0.31006 0.0
H404 H 0.51237 0.62007 0.35846 0.0
C405 C 0.48473 0.55521 0.34249 0.0
C406 C 0.49497 0.59824 0.33243 0.0
H407 H 0.49295 0.54539 0.37626 0.0
H408 H 0.46402 0.79322 0.20307 0.0
H409 H 0.44094 0.72674 0.23996 0.0
H410 H 0.55806 0.75445 0.34018 0.0
H411 H 0.58146 0.82065 0.30269 0.0
H412 H 0.49554 0.68546 0.34251 0.0
H413 H 0.48533 0.66544 0.24309 0.0
H414 H 0.45154 0.59259 0.22306 0.0
H415 H 0.43313 0.51765 0.24087 0.0
loop_
_geom_bond_atom_site_label_1
_geom_bond_atom_site_label_2
_geom_bond_distance
_geom_bond_site_symmetry_2
_ccdc_geom_bond_type
Zn0 O1 2.055 . S
Zn0 O8 2.046 . S
Zn0 N16 2.036 . S
Zn0 O28 2.053 . S
Zn0 O30 2.066 . S
O1 Zn0 2.055 . S
O1 C4 1.259 . S
C2 O30 1.256 . S
C2 O31 1.244 . S
Zn3 O5 2.046 . S
Zn3 O7 2.055 . S
Zn3 N9 2.036 . S
Zn3 O27 2.066 . S
Zn3 O31 2.053 . S
C4 O1 1.259 . S
C4 O5 1.254 . S
O5 Zn3 2.046 . S
O5 C4 1.254 . S
C6 O27 1.256 . S
C6 O28 1.244 . S
O7 Zn3 2.055 . S
O7 C29 1.259 . S
O8 Zn0 2.046 . S
O8 C29 1.254 . S
N9 Zn3 2.036 . S
N9 C10 1.298 . S
N9 N12 1.398 . S
C10 N9 1.298 . S
C10 N13 1.367 . S
C10 C23 1.481 . S
C11 N12 1.299 . S
C11 N13 1.379 . S
N12 N9 1.398 . S
N12 C11 1.299 . S
N13 C10 1.367 . S
N13 C11 1.379 . S
C14 N16 1.298 . S
C14 N18 1.367 . S
C14 C22 1.481 . S
C15 N17 1.299 . S
C15 N18 1.379 . S
N16 Zn0 2.036 . S
N16 C14 1.298 . S
N16 N17 1.398 . S
N17 C15 1.299 . S
N17 N16 1.398 . S
N18 C14 1.367 . S
N18 C15 1.379 . S
H19 C22 0.980 . S
H20 C22 0.981 . S
H21 C22 0.981 . S
C22 C14 1.481 . S
C22 H19 0.980 . S
C22 H20 0.981 . S
C22 H21 0.981 . S
C23 C10 1.481 . S
C23 H24 0.980 . S
C23 H25 0.981 . S
C23 H26 0.981 . S
H24 C23 0.980 . S
H25 C23 0.981 . S
H26 C23 0.981 . S
O27 Zn3 2.066 . S
O27 C6 1.256 . S
O28 Zn0 2.053 . S
O28 C6 1.244 . S
C29 O7 1.259 . S
C29 O8 1.254 . S
O30 Zn0 2.066 . S
O30 C2 1.256 . S
O31 C2 1.244 . S
O31 Zn3 2.053 . S
Zn32 O33 2.055 . S
Zn32 O40 2.046 . S
Zn32 N48 2.036 . S
Zn32 O60 2.053 . S
Zn32 O62 2.066 . S
O33 Zn32 2.055 . S
O33 C36 1.259 . S
C34 O62 1.256 . S
C34 O63 1.244 . S
Zn35 O37 2.046 . S
Zn35 O39 2.055 . S
Zn35 N41 2.036 . S
Zn35 O59 2.066 . S
Zn35 O63 2.053 . S
C36 O33 1.259 . S
C36 O37 1.254 . S
O37 Zn35 2.046 . S
O37 C36 1.254 . S
C38 O59 1.256 . S
C38 O60 1.244 . S
O39 Zn35 2.055 . S
O39 C61 1.259 . S
O40 Zn32 2.046 . S
O40 C61 1.254 . S
N41 Zn35 2.036 . S
N41 C42 1.298 . S
N41 N44 1.398 . S
C42 N41 1.298 . S
C42 N45 1.367 . S
C42 C55 1.481 . S
C43 N44 1.299 . S
C43 N45 1.379 . S
N44 N41 1.398 . S
N44 C43 1.299 . S
N45 C42 1.367 . S
N45 C43 1.379 . S
C46 N48 1.298 . S
C46 N50 1.367 1_655 S
C46 C54 1.481 . S
C47 N49 1.299 1_455 S
C47 N50 1.379 . S
N48 Zn32 2.036 . S
N48 C46 1.298 . S
N48 N49 1.398 . S
N49 C47 1.299 1_655 S
N49 N48 1.398 . S
N50 C46 1.367 1_455 S
N50 C47 1.379 . S
H51 C54 0.980 . S
H52 C54 0.981 . S
H53 C54 0.981 . S
C54 C46 1.481 . S
C54 H51 0.980 . S
C54 H52 0.981 . S
C54 H53 0.981 . S
C55 C42 1.481 . S
C55 H56 0.980 . S
C55 H57 0.981 1_545 S
C55 H58 0.981 1_545 S
H56 C55 0.980 . S
H57 C55 0.981 1_565 S
H58 C55 0.981 1_565 S
O59 Zn35 2.066 . S
O59 C38 1.256 . S
O60 Zn32 2.053 . S
O60 C38 1.244 . S
C61 O39 1.259 . S
C61 O40 1.254 . S
O62 Zn32 2.066 . S
O62 C34 1.256 . S
O63 C34 1.244 . S
O63 Zn35 2.053 . S
Zn64 O65 2.055 . S
Zn64 O72 2.046 . S
Zn64 N80 2.036 . S
Zn64 O92 2.053 . S
Zn64 O94 2.066 . S
O65 Zn64 2.055 . S
O65 C68 1.259 . S
C66 O94 1.256 . S
C66 O95 1.244 . S
Zn67 O69 2.046 . S
Zn67 O71 2.055 . S
Zn67 N73 2.036 . S
Zn67 O91 2.066 . S
Zn67 O95 2.053 . S
C68 O65 1.259 . S
C68 O69 1.254 . S
O69 Zn67 2.046 . S
O69 C68 1.254 . S
C70 O91 1.256 . S
C70 O92 1.244 . S
O71 Zn67 2.055 . S
O71 C93 1.259 . S
O72 Zn64 2.046 . S
O72 C93 1.254 . S
N73 Zn67 2.036 . S
N73 C74 1.298 . S
N73 N76 1.398 . S
C74 N73 1.298 . S
C74 N77 1.367 . S
C74 C87 1.481 . S
C75 N76 1.299 . S
C75 N77 1.379 . S
N76 N73 1.398 . S
N76 C75 1.299 . S
N77 C74 1.367 . S
N77 C75 1.379 . S
C78 N80 1.298 . S
C78 N82 1.359 1_455 S
C78 C86 1.481 . S
C79 N81 1.299 1_655 S
C79 N82 1.380 . S
N80 Zn64 2.036 . S
N80 C78 1.298 . S
N80 N81 1.398 . S
N81 C79 1.299 1_455 S
N81 N80 1.398 . S
N82 C78 1.359 1_655 S
N82 C79 1.380 . S
H83 C86 0.980 . S
H84 C86 0.981 . S
H85 C86 0.981 . S
C86 C78 1.481 . S
C86 H83 0.980 . S
C86 H84 0.981 . S
C86 H85 0.981 . S
C87 C74 1.481 . S
C87 H88 0.980 . S
C87 H89 0.981 . S
C87 H90 0.981 . S
H88 C87 0.980 . S
H89 C87 0.981 . S
H90 C87 0.981 . S
O91 Zn67 2.066 . S
O91 C70 1.256 . S
O92 Zn64 2.053 . S
O92 C70 1.244 . S
C93 O71 1.259 . S
C93 O72 1.254 . S
O94 Zn64 2.066 . S
O94 C66 1.256 . S
O95 C66 1.244 . S
O95 Zn67 2.053 . S
Zn96 O97 2.055 . S
Zn96 O104 2.046 . S
Zn96 N112 2.036 . S
Zn96 O124 2.053 . S
Zn96 O126 2.066 . S
O97 Zn96 2.055 . S
O97 C100 1.259 . S
C98 O126 1.256 . S
C98 O127 1.244 . S
Zn99 O101 2.046 . S
Zn99 O103 2.055 . S
Zn99 N105 2.036 . S
Zn99 O123 2.066 . S
Zn99 O127 2.053 . S
C100 O97 1.259 . S
C100 O101 1.254 . S
O101 Zn99 2.046 . S
O101 C100 1.254 . S
C102 O123 1.256 . S
C102 O124 1.244 . S
O103 Zn99 2.055 . S
O103 C125 1.259 . S
O104 Zn96 2.046 . S
O104 C125 1.254 . S
N105 Zn99 2.036 . S
N105 C106 1.298 . S
N105 N108 1.398 . S
C106 N105 1.298 . S
C106 N109 1.367 1_565 S
C106 C119 1.481 . S
C107 N108 1.299 1_545 S
C107 N109 1.379 . S
N108 N105 1.398 . S
N108 C107 1.299 1_565 S
N109 C106 1.367 1_545 S
N109 C107 1.379 . S
C110 N112 1.298 . S
C110 N114 1.367 . S
C110 C118 1.481 . S
C111 N113 1.299 . S
C111 N114 1.379 . S
N112 Zn96 2.036 . S
N112 C110 1.298 . S
N112 N113 1.398 . S
N113 C111 1.299 . S
N113 N112 1.398 . S
N114 C110 1.367 . S
N114 C111 1.379 . S
H115 C118 0.980 . S
H116 C118 0.981 . S
H117 C118 0.981 . S
C118 C110 1.481 . S
C118 H115 0.980 . S
C118 H116 0.981 . S
C118 H117 0.981 . S
C119 C106 1.481 . S
C119 H120 0.980 . S
C119 H121 0.981 . S
C119 H122 0.981 . S
H120 C119 0.980 . S
H121 C119 0.981 . S
H122 C119 0.981 . S
O123 Zn99 2.066 . S
O123 C102 1.256 . S
O124 Zn96 2.053 . S
O124 C102 1.244 . S
C125 O103 1.259 . S
C125 O104 1.254 . S
O126 Zn96 2.066 . S
O126 C98 1.256 . S
O127 C98 1.244 . S
O127 Zn99 2.053 . S
C128 C129 1.386 . S
C128 C130 1.383 . S
C128 H144 0.951 . S
C129 C128 1.386 . S
C129 C133 1.383 . S
C130 C128 1.383 . S
C130 C131 1.402 1_556 S
C130 H145 0.951 . S
C131 C130 1.402 1_554 S
C131 C132 1.375 1_554 S
C131 C134 1.481 . S
C132 C131 1.375 1_556 S
C132 C133 1.367 . S
C132 H146 0.951 . S
C133 C129 1.383 . S
C133 C132 1.367 . S
C133 H147 0.950 . S
C134 C131 1.481 . S
C134 C135 1.297 . S
C134 H148 0.950 . S
C135 C134 1.297 . S
C135 C136 1.479 . S
C135 H149 0.950 . S
C136 C135 1.479 . S
C136 C137 1.375 . S
C136 C142 1.404 . S
C137 C136 1.375 . S
C137 C138 1.369 . S
C137 H150 0.950 . S
C138 C137 1.369 . S
C138 C139 1.392 . S
C138 H151 0.951 . S
C139 C138 1.392 . S
C139 C141 1.384 . S
H140 C142 0.949 . S
C141 C139 1.384 . S
C141 C142 1.385 . S
C141 H143 0.950 . S
C142 C136 1.404 . S
C142 H140 0.949 . S
C142 C141 1.385 . S
H143 C141 0.950 . S
H144 C128 0.951 . S
H145 C130 0.951 . S
H146 C132 0.951 . S
H147 C133 0.950 . S
H148 C134 0.950 . S
H149 C135 0.950 . S
H150 C137 0.950 . S
H151 C138 0.951 . S
C152 C153 1.386 . S
C152 C154 1.383 . S
C152 H168 0.951 . S
C153 C152 1.386 . S
C153 C157 1.383 . S
C154 C152 1.383 . S
C154 C155 1.402 . S
C154 H169 0.951 . S
C155 C154 1.402 . S
C155 C156 1.375 . S
C155 C158 1.481 . S
C156 C155 1.375 . S
C156 C157 1.367 . S
C156 H170 0.951 . S
C157 C153 1.383 . S
C157 C156 1.367 . S
C157 H171 0.950 . S
C158 C155 1.481 . S
C158 C159 1.297 . S
C158 H172 0.950 . S
C159 C158 1.297 . S
C159 C160 1.479 . S
C159 H173 0.950 . S
C160 C159 1.479 . S
C160 C161 1.375 1_565 S
C160 C166 1.404 . S
C161 C160 1.375 1_545 S
C161 C162 1.369 . S
C161 H174 0.950 . S
C162 C161 1.369 . S
C162 C163 1.392 . S
C162 H175 0.951 . S
C163 C162 1.392 . S
C163 C165 1.384 1_545 S
H164 C166 0.949 . S
C165 C163 1.384 1_565 S
C165 C166 1.385 . S
C165 H167 0.950 . S
C166 C160 1.404 . S
C166 H164 0.949 . S
C166 C165 1.385 . S
H167 C165 0.950 . S
H168 C152 0.951 . S
H169 C154 0.951 . S
H170 C156 0.951 . S
H171 C157 0.950 . S
H172 C158 0.950 . S
H173 C159 0.950 . S
H174 C161 0.950 . S
H175 C162 0.951 . S
C176 C177 1.386 . S
C176 C178 1.383 . S
C176 H192 0.951 . S
C177 C176 1.386 . S
C177 C181 1.383 . S
C178 C176 1.383 . S
C178 C179 1.402 . S
C178 H193 0.951 . S
C179 C178 1.402 . S
C179 C180 1.375 . S
C179 C182 1.481 . S
C180 C179 1.375 . S
C180 C181 1.367 . S
C180 H194 0.951 . S
C181 C177 1.383 . S
C181 C180 1.367 . S
C181 H195 0.950 . S
C182 C179 1.481 . S
C182 C183 1.297 . S
C182 H196 0.950 . S
C183 C182 1.297 . S
C183 C184 1.479 . S
C183 H197 0.950 . S
C184 C183 1.479 . S
C184 C185 1.375 . S
C184 C190 1.404 . S
C185 C184 1.375 . S
C185 C186 1.369 . S
C185 H198 0.950 . S
C186 C185 1.369 . S
C186 C187 1.392 . S
C186 H199 0.951 . S
C187 C186 1.392 . S
C187 C189 1.384 . S
H188 C190 0.949 . S
C189 C187 1.384 . S
C189 C190 1.385 . S
C189 H191 0.950 . S
C190 C184 1.404 . S
C190 H188 0.949 . S
C190 C189 1.385 . S
H191 C189 0.950 . S
H192 C176 0.951 . S
H193 C178 0.951 . S
H194 C180 0.951 . S
H195 C181 0.950 . S
H196 C182 0.950 . S
H197 C183 0.950 . S
H198 C185 0.950 . S
H199 C186 0.951 . S
C200 C201 1.386 . S
C200 C202 1.383 1_554 S
C200 H216 0.951 . S
C201 C200 1.386 . S
C201 C205 1.383 . S
C202 C200 1.383 1_556 S
C202 C203 1.402 . S
C202 H217 0.951 . S
C203 C202 1.402 . S
C203 C204 1.375 1_556 S
C203 C206 1.481 1_565 S
C204 C203 1.375 1_554 S
C204 C205 1.367 . S
C204 H218 0.951 . S
C205 C201 1.383 . S
C205 C204 1.367 . S
C205 H219 0.950 . S
C206 C203 1.481 1_545 S
C206 C207 1.297 . S
C206 H220 0.950 . S
C207 C206 1.297 . S
C207 C208 1.479 . S
C207 H221 0.950 . S
C208 C207 1.479 . S
C208 C209 1.375 . S
C208 C214 1.404 . S
C209 C208 1.375 . S
C209 C210 1.369 . S
C209 H222 0.950 . S
C210 C209 1.369 . S
C210 C211 1.392 . S
C210 H223 0.951 . S
C211 C210 1.392 . S
C211 C213 1.384 . S
H212 C214 0.949 . S
C213 C211 1.384 . S
C213 C214 1.385 . S
C213 H215 0.950 . S
C214 C208 1.404 . S
C214 H212 0.949 . S
C214 C213 1.385 . S
H215 C213 0.950 . S
H216 C200 0.951 . S
H217 C202 0.951 . S
H218 C204 0.951 . S
H219 C205 0.950 . S
H220 C206 0.950 . S
H221 C207 0.950 . S
H222 C209 0.950 . S
H223 C210 0.951 . S
C224 C225 1.386 . S
C224 C226 1.383 . S
C224 H240 0.951 . S
C225 C224 1.386 . S
C225 C229 1.383 . S
C226 C224 1.383 . S
C226 C227 1.402 . S
C226 H241 0.951 . S
C227 C226 1.402 . S
C227 C228 1.375 . S
C227 C230 1.481 . S
C228 C227 1.375 . S
C228 C229 1.367 . S
C228 H242 0.951 . S
C229 C225 1.383 . S
C229 C228 1.367 . S
C229 H243 0.950 . S
C230 C227 1.481 . S
C230 C231 1.297 . S
C230 H244 0.950 . S
C231 C230 1.297 . S
C231 C232 1.479 . S
C231 H245 0.950 . S
C232 C231 1.479 . S
C232 C233 1.375 . S
C232 C238 1.404 . S
C233 C232 1.375 . S
C233 C234 1.369 . S
C233 H246 0.950 . S
C234 C233 1.369 . S
C234 C235 1.392 . S
C234 H247 0.951 . S
C235 C234 1.392 . S
C235 C237 1.384 . S
H236 C238 0.949 . S
C237 C235 1.384 . S
C237 C238 1.385 . S
C237 H239 0.950 . S
C238 C232 1.404 . S
C238 H236 0.949 . S
C238 C237 1.385 . S
H239 C237 0.950 . S
H240 C224 0.951 . S
H241 C226 0.951 . S
H242 C228 0.951 . S
H243 C229 0.950 . S
H244 C230 0.950 . S
H245 C231 0.950 . S
H246 C233 0.950 . S
H247 C234 0.951 . S
C248 C249 1.386 . S
C248 C250 1.383 . S
C248 H264 0.951 . S
C249 C248 1.386 . S
C249 C253 1.383 . S
C250 C248 1.383 . S
C250 C251 1.402 . S
C250 H265 0.951 . S
C251 C250 1.402 . S
C251 C252 1.375 . S
C251 C254 1.481 . S
C252 C251 1.375 . S
C252 C253 1.367 . S
C252 H266 0.951 . S
C253 C249 1.383 . S
C253 C252 1.367 . S
C253 H267 0.950 . S
C254 C251 1.481 . S
C254 C255 1.297 1_455 S
C254 H268 0.950 . S
C255 C254 1.297 1_655 S
C255 C256 1.479 . S
C255 H269 0.950 . S
C256 C255 1.479 . S
C256 C257 1.375 . S
C256 C262 1.404 . S
C257 C256 1.375 . S
C257 C258 1.369 . S
C257 H270 0.950 . S
C258 C257 1.369 . S
C258 C259 1.392 1_565 S
C258 H271 0.951 . S
C259 C258 1.392 1_545 S
C259 C261 1.377 1_545 S
H260 C262 0.949 . S
C261 C259 1.377 1_565 S
C261 C262 1.407 . S
C261 H263 0.935 1_565 S
C262 C256 1.404 . S
C262 H260 0.949 . S
C262 C261 1.407 . S
H263 C261 0.935 1_545 S
H264 C248 0.951 . S
H265 C250 0.951 . S
H266 C252 0.951 . S
H267 C253 0.950 . S
H268 C254 0.950 . S
H269 C255 0.950 . S
H270 C257 0.950 . S
H271 C258 0.951 . S
C272 C273 1.386 . S
C272 C274 1.383 . S
C272 H288 0.951 . S
C273 C272 1.386 . S
C273 C277 1.383 . S
C274 C272 1.383 . S
C274 C275 1.402 . S
C274 H289 0.951 . S
C275 C274 1.402 . S
C275 C276 1.375 . S
C275 C278 1.481 . S
C276 C275 1.375 . S
C276 C277 1.367 . S
C276 H290 0.951 . S
C277 C273 1.383 . S
C277 C276 1.367 . S
C277 H291 0.950 . S
C278 C275 1.481 . S
C278 C279 1.297 . S
C278 H292 0.950 1_556 S
C279 C278 1.297 . S
C279 C280 1.479 1_556 S
C279 H293 0.950 . S
C280 C279 1.479 1_554 S
C280 C281 1.375 1_554 S
C280 C286 1.404 . S
C281 C280 1.375 1_556 S
C281 C282 1.369 1_556 S
C281 H294 0.950 . S
C282 C281 1.369 1_554 S
C282 C283 1.392 . S
C282 H295 0.951 . S
C283 C282 1.392 . S
C283 C285 1.384 . S
H284 C286 0.949 . S
C285 C283 1.384 . S
C285 C286 1.385 . S
C285 H287 0.950 . S
C286 C280 1.404 . S
C286 H284 0.949 . S
C286 C285 1.385 . S
H287 C285 0.950 . S
H288 C272 0.951 . S
H289 C274 0.951 . S
H290 C276 0.951 . S
H291 C277 0.950 . S
H292 C278 0.950 1_554 S
H293 C279 0.950 . S
H294 C281 0.950 . S
H295 C282 0.951 . S
C296 C297 1.386 . S
C296 C298 1.383 . S
C296 H312 0.951 . S
C297 C296 1.386 . S
C297 C301 1.383 . S
C298 C296 1.383 . S
C298 C299 1.402 . S
C298 H313 0.951 . S
C299 C298 1.402 . S
C299 C300 1.375 . S
C299 C302 1.481 . S
C300 C299 1.375 . S
C300 C301 1.367 . S
C300 H314 0.951 . S
C301 C297 1.383 . S
C301 C300 1.367 . S
C301 H315 0.950 . S
C302 C299 1.481 . S
C302 C303 1.297 . S
C302 H316 0.950 . S
C303 C302 1.297 . S
C303 C304 1.479 . S
C303 H317 0.950 . S
C304 C303 1.479 . S
C304 C305 1.375 . S
C304 C310 1.404 . S
C305 C304 1.375 . S
C305 C306 1.369 . S
C305 H318 0.950 . S
C306 C305 1.369 . S
C306 C307 1.392 . S
C306 H319 0.951 . S
C307 C306 1.392 . S
C307 C309 1.384 . S
H308 C310 0.949 . S
C309 C307 1.384 . S
C309 C310 1.385 . S
C309 H311 0.950 . S
C310 C304 1.404 . S
C310 H308 0.949 . S
C310 C309 1.385 . S
H311 C309 0.950 . S
H312 C296 0.951 . S
H313 C298 0.951 . S
H314 C300 0.951 . S
H315 C301 0.950 . S
H316 C302 0.950 . S
H317 C303 0.950 . S
H318 C305 0.950 . S
H319 C306 0.951 . S
C320 C321 1.386 . S
C320 C322 1.383 . S
C320 H336 0.951 . S
C321 C320 1.386 . S
C321 C325 1.383 . S
C322 C320 1.383 . S
C322 C323 1.402 . S
C322 H337 0.951 . S
C323 C322 1.402 . S
C323 C324 1.375 . S
C323 C326 1.481 . S
C324 C323 1.375 . S
C324 C325 1.367 . S
C324 H338 0.951 . S
C325 C321 1.383 . S
C325 C324 1.367 . S
C325 H339 0.950 . S
C326 C323 1.481 . S
C326 C327 1.297 . S
C326 H340 0.950 . S
C327 C326 1.297 . S
C327 C328 1.479 . S
C327 H341 0.950 . S
C328 C327 1.479 . S
C328 C329 1.375 . S
C328 C334 1.404 . S
C329 C328 1.375 . S
C329 C330 1.369 . S
C329 H342 0.950 . S
C330 C329 1.369 . S
C330 C331 1.392 . S
C330 H343 0.951 . S
C331 C330 1.392 . S
C331 C333 1.384 . S
H332 C334 0.949 . S
C333 C331 1.384 . S
C333 C334 1.385 . S
C333 H335 0.950 . S
C334 C328 1.404 . S
C334 H332 0.949 . S
C334 C333 1.385 . S
H335 C333 0.950 . S
H336 C320 0.951 . S
H337 C322 0.951 . S
H338 C324 0.951 . S
H339 C325 0.950 . S
H340 C326 0.950 . S
H341 C327 0.950 . S
H342 C329 0.950 . S
H343 C330 0.951 . S
C344 C345 1.386 . S
C344 C346 1.383 1_455 S
C344 H360 0.951 1_455 S
C345 C344 1.386 . S
C345 C349 1.383 . S
C346 C344 1.383 1_655 S
C346 C347 1.402 1_655 S
C346 H361 0.951 . S
C347 C346 1.402 1_455 S
C347 C348 1.375 . S
C347 C350 1.481 . S
C348 C347 1.375 . S
C348 C349 1.367 . S
C348 H362 0.951 . S
C349 C345 1.383 . S
C349 C348 1.367 . S
C349 H363 0.950 . S
C350 C347 1.481 . S
C350 C351 1.297 1_455 S
C350 H364 0.950 . S
C351 C350 1.297 1_655 S
C351 C352 1.479 . S
C351 H365 0.950 . S
C352 C351 1.479 . S
C352 C353 1.375 . S
C352 C358 1.404 1_655 S
C353 C352 1.375 . S
C353 C354 1.369 . S
C353 H366 0.950 . S
C354 C353 1.369 . S
C354 C355 1.392 . S
C354 H367 0.951 . S
C355 C354 1.392 . S
C355 C357 1.384 . S
H356 C358 0.949 . S
C357 C355 1.384 . S
C357 C358 1.385 1_655 S
C357 H359 0.950 1_655 S
C358 C352 1.404 1_455 S
C358 H356 0.949 . S
C358 C357 1.385 1_455 S
H359 C357 0.950 1_455 S
H360 C344 0.951 1_655 S
H361 C346 0.951 . S
H362 C348 0.951 . S
H363 C349 0.950 . S
H364 C350 0.950 . S
H365 C351 0.950 . S
H366 C353 0.950 . S
H367 C354 0.951 . S
C368 C369 1.386 . S
C368 C370 1.383 . S
C368 H384 0.951 . S
C369 C368 1.386 . S
C369 C373 1.383 . S
C370 C368 1.383 . S
C370 C371 1.402 . S
C370 H385 0.951 . S
C371 C370 1.402 . S
C371 C372 1.375 . S
C371 C374 1.481 1_556 S
C372 C371 1.375 . S
C372 C373 1.367 . S
C372 H386 0.951 1_556 S
C373 C369 1.383 . S
C373 C372 1.367 . S
C373 H387 0.950 . S
C374 C371 1.481 1_554 S
C374 C375 1.297 1_554 S
C374 H388 0.950 . S
C375 C374 1.297 1_556 S
C375 C376 1.479 1_556 S
C375 H389 0.950 . S
C376 C375 1.479 1_554 S
C376 C377 1.375 . S
C376 C382 1.404 . S
C377 C376 1.375 . S
C377 C378 1.369 . S
C377 H390 0.960 . S
C378 C377 1.369 . S
C378 C379 1.392 . S
C378 H391 0.951 . S
C379 C378 1.392 . S
C379 C381 1.384 . S
H380 C382 0.949 . S
C381 C379 1.384 . S
C381 C382 1.385 . S
C381 H383 0.950 . S
C382 C376 1.404 . S
C382 H380 0.949 . S
C382 C381 1.385 . S
H383 C381 0.950 . S
H384 C368 0.951 . S
H385 C370 0.951 . S
H386 C372 0.951 1_554 S
H387 C373 0.950 . S
H388 C374 0.950 . S
H389 C375 0.950 . S
H390 C377 0.960 . S
H391 C378 0.951 . S
C392 C393 1.386 . S
C392 C394 1.383 . S
C392 H408 0.951 . S
C393 C392 1.386 . S
C393 C397 1.383 . S
C394 C392 1.383 . S
C394 C395 1.402 . S
C394 H409 0.951 . S
C395 C394 1.402 . S
C395 C396 1.375 . S
C395 C398 1.481 . S
C396 C395 1.375 . S
C396 C397 1.367 . S
C396 H410 0.951 . S
C397 C393 1.383 . S
C397 C396 1.367 . S
C397 H411 0.950 . S
C398 C395 1.481 . S
C398 C399 1.297 . S
C398 H412 0.950 . S
C399 C398 1.297 . S
C399 C400 1.479 . S
C399 H413 0.950 . S
C400 C399 1.479 . S
C400 C401 1.375 . S
C400 C406 1.404 . S
C401 C400 1.375 . S
C401 C402 1.369 . S
C401 H414 0.950 . S
C402 C401 1.369 . S
C402 C403 1.392 . S
C402 H415 0.951 . S
C403 C402 1.392 . S
C403 C405 1.384 . S
H404 C406 0.949 . S
C405 C403 1.384 . S
C405 C406 1.385 . S
C405 H407 0.950 . S
C406 C400 1.404 . S
C406 H404 0.949 . S
C406 C405 1.385 . S
H407 C405 0.950 . S
H408 C392 0.951 . S
H409 C394 0.951 . S
H410 C396 0.951 . S
H411 C397 0.950 . S
H412 C398 0.950 . S
H413 C399 0.950 . S
H414 C401 0.950 . S
H415 C402 0.951 . S
C129 C93 1.210 . S
C139 N18 1.141 . S
C153 C102 1.579 . S
C163 C61 1.532 . S
C177 N77 0.880 . S
C187 C4 0.962 . S
C201 C98 1.469 . S
C211 N45 1.352 . S
C225 N50 1.107 . S
C235 C29 1.053 . S
C249 C66 1.826 . S
C259 C38 1.846 . S
C273 C68 1.117 . S
C283 C100 1.138 . S
C297 C6 1.504 . S
C307 N109 1.480 . S
C321 C36 1.092 . S
C331 N13 1.148 . S
C345 C70 2.181 . S
C355 C34 2.146 . S
C369 N82 0.921 . S
C379 N114 1.033 . S
C393 C125 1.499 . S
C403 C2 1.539 . S
