# Generated by pormake.
# Topology tzs, (4)-cn, num edge types: 1
# Building blocks:
#     Node 0, Type 0, BuildingBlock: ICAMEG_clean_sbu_1, # of connection points: 4
#     Node 1, Type 0, BuildingBlock: ICAMEG_clean_sbu_1, # of connection points: 4
#     Node 2, Type 0, BuildingBlock: ICAMEG_clean_sbu_1, # of connection points: 4
#     Node 3, Type 0, BuildingBlock: ICAMEG_clean_sbu_1, # of connection points: 4
#     Node 4, Type 0, BuildingBlock: ICAMEG_clean_sbu_1, # of connection points: 4
#     Node 5, Type 0, BuildingBlock: ICAMEG_clean_sbu_1, # of connection points: 4
#     Node 6, Type 0, BuildingBlock: ICAMEG_clean_sbu_1, # of connection points: 4
#     Node 7, Type 0, BuildingBlock: ICAMEG_clean_sbu_1, # of connection points: 4
#     Node 8, Type 0, BuildingBlock: ICAMEG_clean_sbu_1, # of connection points: 4
#     Node 9, Type 0, BuildingBlock: ICAMEG_clean_sbu_1, # of connection points: 4
#     Node 10, Type 0, BuildingBlock: ICAMEG_clean_sbu_1, # of connection points: 4
#     Node 11, Type 0, BuildingBlock: ICAMEG_clean_sbu_1, # of connection points: 4
#     Node 12, Type 0, BuildingBlock: ICAMEG_clean_sbu_1, # of connection points: 4
#     Node 13, Type 0, BuildingBlock: ICAMEG_clean_sbu_1, # of connection points: 4
#     Node 14, Type 0, BuildingBlock: ICAMEG_clean_sbu_1, # of connection points: 4
#     Node 15, Type 0, BuildingBlock: ICAMEG_clean_sbu_1, # of connection points: 4
#     Edge 16, Type (0, 0), BuildingBlock: TEMPAE_clean_linker_10, # of connection points: 2
#     Edge 17, Type (0, 0), BuildingBlock: TEMPAE_clean_linker_10, # of connection points: 2
#     Edge 18, Type (0, 0), BuildingBlock: TEMPAE_clean_linker_10, # of connection points: 2
#     Edge 19, Type (0, 0), BuildingBlock: TEMPAE_clean_linker_10, # of connection points: 2
#     Edge 20, Type (0, 0), BuildingBlock: TEMPAE_clean_linker_10, # of connection points: 2
#     Edge 21, Type (0, 0), BuildingBlock: TEMPAE_clean_linker_10, # of connection points: 2
#     Edge 22, Type (0, 0), BuildingBlock: TEMPAE_clean_linker_10, # of connection points: 2
#     Edge 23, Type (0, 0), BuildingBlock: TEMPAE_clean_linker_10, # of connection points: 2
#     Edge 24, Type (0, 0), BuildingBlock: TEMPAE_clean_linker_10, # of connection points: 2
#     Edge 25, Type (0, 0), BuildingBlock: TEMPAE_clean_linker_10, # of connection points: 2
#     Edge 26, Type (0, 0), BuildingBlock: TEMPAE_clean_linker_10, # of connection points: 2
#     Edge 27, Type (0, 0), BuildingBlock: TEMPAE_clean_linker_10, # of connection points: 2
#     Edge 28, Type (0, 0), BuildingBlock: TEMPAE_clean_linker_10, # of connection points: 2
#     Edge 29, Type (0, 0), BuildingBlock: TEMPAE_clean_linker_10, # of connection points: 2
#     Edge 30, Type (0, 0), BuildingBlock: TEMPAE_clean_linker_10, # of connection points: 2
#     Edge 31, Type (0, 0), BuildingBlock: TEMPAE_clean_linker_10, # of connection points: 2
#     Edge 32, Type (0, 0), BuildingBlock: TEMPAE_clean_linker_10, # of connection points: 2
#     Edge 33, Type (0, 0), BuildingBlock: TEMPAE_clean_linker_10, # of connection points: 2
#     Edge 34, Type (0, 0), BuildingBlock: TEMPAE_clean_linker_10, # of connection points: 2
#     Edge 35, Type (0, 0), BuildingBlock: TEMPAE_clean_linker_10, # of connection points: 2
#     Edge 36, Type (0, 0), BuildingBlock: TEMPAE_clean_linker_10, # of connection points: 2
#     Edge 37, Type (0, 0), BuildingBlock: TEMPAE_clean_linker_10, # of connection points: 2
#     Edge 38, Type (0, 0), BuildingBlock: TEMPAE_clean_linker_10, # of connection points: 2
#     Edge 39, Type (0, 0), BuildingBlock: TEMPAE_clean_linker_10, # of connection points: 2
#     Edge 40, Type (0, 0), BuildingBlock: TEMPAE_clean_linker_10, # of connection points: 2
#     Edge 41, Type (0, 0), BuildingBlock: TEMPAE_clean_linker_10, # of connection points: 2
#     Edge 42, Type (0, 0), BuildingBlock: TEMPAE_clean_linker_10, # of connection points: 2
#     Edge 43, Type (0, 0), BuildingBlock: TEMPAE_clean_linker_10, # of connection points: 2
#     Edge 44, Type (0, 0), BuildingBlock: TEMPAE_clean_linker_10, # of connection points: 2
#     Edge 45, Type (0, 0), BuildingBlock: TEMPAE_clean_linker_10, # of connection points: 2
#     Edge 46, Type (0, 0), BuildingBlock: TEMPAE_clean_linker_10, # of connection points: 2
#     Edge 47, Type (0, 0), BuildingBlock: TEMPAE_clean_linker_10, # of connection points: 2
# Relax obj value: 0.144
# Max RMSD: 0.172
# Mean RMSD: 0.172
data_MOF--net-tzs--node1-ICAMEG_clean_sbu_1--edge1-TEMPAE_clean_linker_10
_symmetry_space_group_name_H-M    P1
_symmetry_Int_Tables_number       1
_symmetry_cell_setting            triclinic
loop_
_symmetry_equiv_pos_as_xyz
'x, y, z'
_cell_length_a     50.453307
_cell_length_b     50.476022
_cell_length_c     45.239563
_cell_angle_alpha  90.014675
_cell_angle_beta   89.951704
_cell_angle_gamma 90.002497
loop_
_atom_site_label
_atom_site_type_symbol
_atom_site_fract_x
_atom_site_fract_y
_atom_site_fract_z
_atom_type_partial_charge
Co0 Co 0.12733 0.39445 0.17772 0.0
Co1 Co 0.14709 0.35745 0.23722 0.0
O2 O 0.14774 0.36441 0.19424 0.0
C3 C 0.13045 0.354 0.12818 0.0
O4 O 0.14384 0.33723 0.14455 0.0
C5 C 0.20235 0.33972 0.21772 0.0
O6 O 0.19814 0.34577 0.18993 0.0
O7 O 0.16147 0.39357 0.24379 0.0
O8 O 0.13357 0.4159 0.21439 0.0
H9 H 0.12733 0.38183 0.34265 0.0
H10 H 0.17641 0.3731 0.14787 0.0
O11 O 0.12067 0.37499 0.13945 0.0
H12 H 0.18859 0.46972 0.15154 0.0
H13 H 0.09475 0.45638 0.09808 0.0
H14 H 0.08729 0.43109 0.20302 0.0
H15 H 0.14891 0.44926 0.17327 0.0
H16 H 0.12193 0.42012 0.11822 0.0
O17 O 0.18452 0.34352 0.2372 0.0
H18 H 0.12791 0.38838 0.28863 0.0
H19 H 0.16615 0.31411 0.27702 0.0
H20 H 0.06001 0.46771 0.18381 0.0
H21 H 0.21634 0.39267 0.12617 0.0
H22 H 0.06363 0.48059 0.13098 0.0
H23 H 0.22275 0.44142 0.12775 0.0
O24 O 0.09427 0.37943 0.1951 0.0
H25 H 0.14207 0.26929 0.18522 0.0
H26 H 0.10399 0.32482 0.26408 0.0
H27 H 0.08539 0.28052 0.25489 0.0
H28 H 0.10454 0.25229 0.21528 0.0
H29 H 0.15972 0.31381 0.1949 0.0
H30 H 0.16628 0.30693 0.33091 0.0
H31 H 0.14662 0.34086 0.36412 0.0
O32 O 0.10954 0.37081 0.24044 0.0
C33 C 0.15143 0.41503 0.23426 0.0
C34 C 0.13587 0.36685 0.3284 0.0
C35 C 0.15776 0.32483 0.32182 0.0
N36 N 0.14683 0.35156 0.27964 0.0
C37 C 0.13618 0.37042 0.29779 0.0
C38 C 0.1577 0.32906 0.29131 0.0
C39 C 0.14672 0.34388 0.34044 0.0
C40 C 0.1786 0.39422 0.14848 0.0
N41 N 0.15963 0.40986 0.16116 0.0
C42 C 0.2015 0.40526 0.13624 0.0
C43 C 0.2051 0.43259 0.13715 0.0
C44 C 0.18594 0.44847 0.15045 0.0
C45 C 0.16337 0.4367 0.16259 0.0
C46 C 0.09299 0.45096 0.12114 0.0
C47 C 0.08912 0.43663 0.18004 0.0
C48 C 0.10824 0.43031 0.13267 0.0
N49 N 0.10631 0.42347 0.16186 0.0
C50 C 0.07355 0.45736 0.16927 0.0
C51 C 0.07556 0.46455 0.13962 0.0
C52 C 0.09043 0.37496 0.22254 0.0
C53 C 0.13361 0.28135 0.20262 0.0
C54 C 0.11235 0.31283 0.24668 0.0
C55 C 0.10178 0.28766 0.24165 0.0
C56 C 0.11253 0.27184 0.21945 0.0
N57 N 0.13313 0.32203 0.23019 0.0
C58 C 0.14365 0.30663 0.2083 0.0
Co59 Co 0.6027 0.12741 0.16829 0.0
Co60 Co 0.65223 0.13981 0.21797 0.0
O61 O 0.63727 0.14361 0.17802 0.0
C62 C 0.63594 0.11982 0.11291 0.0
O63 O 0.65801 0.11745 0.12802 0.0
C64 C 0.65964 0.19871 0.21263 0.0
O65 O 0.63471 0.20171 0.20499 0.0
O66 O 0.61979 0.15649 0.23478 0.0
O67 O 0.58932 0.13365 0.20933 0.0
H68 H 0.64792 0.11647 0.32581 0.0
H69 H 0.62503 0.17245 0.1344 0.0
O70 O 0.61376 0.12175 0.12614 0.0
H71 H 0.53432 0.19994 0.16069 0.0
H72 H 0.52271 0.10839 0.10472 0.0
H73 H 0.56694 0.0902 0.19969 0.0
H74 H 0.55189 0.15698 0.17766 0.0
H75 H 0.56558 0.12917 0.11648 0.0
O76 O 0.66944 0.17561 0.21578 0.0
H77 H 0.63055 0.1211 0.27513 0.0
H78 H 0.70482 0.15078 0.24586 0.0
H79 H 0.52387 0.06938 0.18901 0.0
H80 H 0.60861 0.21602 0.11813 0.0
H81 H 0.50141 0.07842 0.14123 0.0
H82 H 0.56286 0.22997 0.13116 0.0
O83 O 0.61626 0.09178 0.18036 0.0
H84 H 0.72756 0.13498 0.14566 0.0
H85 H 0.68484 0.09147 0.23075 0.0
H86 H 0.72435 0.07109 0.20819 0.0
H87 H 0.74608 0.09294 0.16536 0.0
H88 H 0.68766 0.15438 0.16865 0.0
H89 H 0.72289 0.14684 0.29628 0.0
H90 H 0.6944 0.12944 0.33666 0.0
O91 O 0.63631 0.10356 0.22246 0.0
C92 C 0.59597 0.14944 0.22996 0.0
C93 C 0.66053 0.12408 0.3084 0.0
C94 C 0.7026 0.14114 0.29185 0.0
N95 N 0.66663 0.13625 0.25756 0.0
C96 C 0.65081 0.12672 0.27966 0.0
C97 C 0.69222 0.14345 0.26336 0.0
C98 C 0.68661 0.13137 0.31448 0.0
C99 C 0.60522 0.17846 0.14049 0.0
N100 N 0.58943 0.16207 0.15687 0.0
C101 C 0.596 0.20316 0.13113 0.0
C102 C 0.57035 0.21098 0.13845 0.0
C103 C 0.55436 0.19417 0.15514 0.0
C104 C 0.56438 0.1698 0.16453 0.0
C105 C 0.53231 0.10427 0.12561 0.0
C106 C 0.55733 0.09434 0.17887 0.0
C107 C 0.55673 0.11583 0.13231 0.0
N108 N 0.56887 0.11097 0.15878 0.0
C109 C 0.53292 0.08242 0.17293 0.0
C110 C 0.52035 0.08749 0.14611 0.0
C111 C 0.62606 0.08606 0.20561 0.0
C112 C 0.71827 0.12524 0.16429 0.0
C113 C 0.69389 0.10086 0.21188 0.0
C114 C 0.71641 0.08935 0.19932 0.0
C115 C 0.72862 0.10164 0.17533 0.0
N116 N 0.68378 0.12395 0.20087 0.0
C117 C 0.69572 0.13617 0.17745 0.0
Co118 Co 0.88059 0.60418 0.16208 0.0
Co119 Co 0.85606 0.64153 0.21878 0.0
O120 O 0.85772 0.63317 0.1764 0.0
C121 C 0.87505 0.6423 0.11087 0.0
O122 O 0.86028 0.65844 0.12654 0.0
C123 C 0.79845 0.6476 0.22965 0.0
O124 O 0.80012 0.62683 0.24703 0.0
O125 O 0.84327 0.60476 0.22563 0.0
O126 O 0.87421 0.58338 0.19923 0.0
H127 H 0.86965 0.62091 0.32632 0.0
H128 H 0.8295 0.62155 0.13304 0.0
O129 O 0.88717 0.62305 0.12323 0.0
H130 H 0.82639 0.52415 0.13396 0.0
H131 H 0.92126 0.54313 0.08614 0.0
H132 H 0.92168 0.57085 0.19065 0.0
H133 H 0.86375 0.54768 0.15672 0.0
H134 H 0.89057 0.57766 0.1037 0.0
O135 O 0.81845 0.65451 0.21407 0.0
H136 H 0.872 0.61247 0.27268 0.0
H137 H 0.83572 0.68677 0.25536 0.0
H138 H 0.95245 0.53601 0.17404 0.0
H139 H 0.79189 0.59881 0.11021 0.0
H140 H 0.9524 0.52192 0.12143 0.0
H141 H 0.79007 0.54966 0.11034 0.0
O142 O 0.91186 0.62186 0.18074 0.0
H143 H 0.85669 0.72805 0.16404 0.0
H144 H 0.89767 0.67702 0.24478 0.0
H145 H 0.9141 0.72187 0.23368 0.0
H146 H 0.89348 0.7478 0.19309 0.0
H147 H 0.84117 0.68291 0.17569 0.0
H148 H 0.83274 0.69591 0.30877 0.0
H149 H 0.84986 0.66287 0.34468 0.0
O150 O 0.8938 0.62981 0.22504 0.0
C151 C 0.85493 0.58362 0.21746 0.0
C152 C 0.86212 0.63546 0.3109 0.0
C153 C 0.8414 0.67755 0.30105 0.0
N154 N 0.85398 0.64907 0.26087 0.0
C155 C 0.8634 0.6308 0.2805 0.0
C156 C 0.84309 0.67223 0.27082 0.0
C157 C 0.85101 0.65901 0.32118 0.0
C158 C 0.82954 0.60028 0.13266 0.0
N159 N 0.84996 0.58618 0.14477 0.0
C160 C 0.80784 0.58743 0.11993 0.0
C161 C 0.80679 0.55988 0.12005 0.0
C162 C 0.82718 0.54556 0.13321 0.0
C163 C 0.8485 0.5591 0.14581 0.0
C164 C 0.92148 0.54911 0.10912 0.0
C165 C 0.92138 0.56477 0.16776 0.0
C166 C 0.90424 0.56879 0.11919 0.0
N167 N 0.90422 0.5763 0.14826 0.0
C168 C 0.93893 0.54505 0.15846 0.0
C169 C 0.93892 0.53719 0.12894 0.0
C170 C 0.91403 0.62677 0.20837 0.0
C171 C 0.86588 0.71694 0.18173 0.0
C172 C 0.88889 0.68794 0.22682 0.0
C173 C 0.89813 0.71345 0.22077 0.0
C174 C 0.88653 0.728 0.19803 0.0
N175 N 0.86867 0.67718 0.21071 0.0
C176 C 0.85718 0.69136 0.18842 0.0
Co177 Co 0.40094 0.87801 0.16486 0.0
Co178 Co 0.35435 0.85882 0.21554 0.0
O179 O 0.36877 0.8575 0.17513 0.0
C180 C 0.36632 0.88061 0.10995 0.0
O181 O 0.34415 0.88032 0.12514 0.0
C182 C 0.34654 0.80274 0.23158 0.0
O183 O 0.36378 0.80728 0.25272 0.0
O184 O 0.38924 0.84602 0.23015 0.0
O185 O 0.41566 0.87386 0.20569 0.0
H186 H 0.35898 0.88109 0.32362 0.0
H187 H 0.38436 0.82998 0.13187 0.0
O188 O 0.38861 0.88191 0.12298 0.0
H189 H 0.47877 0.816 0.15488 0.0
H190 H 0.47568 0.90835 0.09872 0.0
H191 H 0.43258 0.91916 0.19579 0.0
H192 H 0.45559 0.8559 0.17271 0.0
H193 H 0.43655 0.88168 0.11178 0.0
O194 O 0.3418 0.8208 0.21239 0.0
H195 H 0.37529 0.87905 0.27224 0.0
H196 H 0.30415 0.84117 0.24517 0.0
H197 H 0.47184 0.946 0.18369 0.0
H198 H 0.40652 0.78927 0.1148 0.0
H199 H 0.49372 0.9407 0.13485 0.0
H200 H 0.45415 0.78215 0.12613 0.0
O201 O 0.38294 0.91136 0.17743 0.0
H202 H 0.27695 0.85524 0.14607 0.0
H203 H 0.31633 0.90247 0.23064 0.0
H204 H 0.27388 0.91799 0.21007 0.0
H205 H 0.25382 0.89421 0.16752 0.0
H206 H 0.31968 0.84076 0.16707 0.0
H207 H 0.28716 0.84264 0.29626 0.0
H208 H 0.31462 0.86276 0.3359 0.0
O209 O 0.36578 0.8969 0.22022 0.0
C210 C 0.41186 0.85602 0.22505 0.0
C211 C 0.34681 0.8723 0.30654 0.0
C212 C 0.3065 0.85073 0.29119 0.0
N213 N 0.34068 0.8601 0.25571 0.0
C214 C 0.35593 0.87112 0.27741 0.0
C215 C 0.31624 0.84995 0.2623 0.0
C216 C 0.32192 0.86201 0.31341 0.0
C217 C 0.40497 0.8269 0.13728 0.0
N218 N 0.41865 0.84545 0.15314 0.0
C219 C 0.41745 0.80383 0.12744 0.0
C220 C 0.44417 0.79985 0.13378 0.0
C221 C 0.45798 0.81881 0.14999 0.0
C222 C 0.44476 0.84144 0.15987 0.0
C223 C 0.4663 0.91087 0.12006 0.0
C224 C 0.44194 0.91663 0.1745 0.0
C225 C 0.44398 0.89593 0.12753 0.0
N226 N 0.43212 0.89882 0.15455 0.0
C227 C 0.4642 0.93195 0.16776 0.0
C228 C 0.47644 0.92899 0.14035 0.0
C229 C 0.37339 0.91566 0.20318 0.0
C230 C 0.28549 0.86579 0.1646 0.0
C231 C 0.30798 0.89231 0.21188 0.0
C232 C 0.28381 0.90105 0.20044 0.0
C233 C 0.27254 0.88767 0.17662 0.0
N234 N 0.32059 0.87086 0.19995 0.0
C235 C 0.30963 0.85763 0.17663 0.0
Co236 Co 0.13591 0.61013 0.34541 0.0
Co237 Co 0.15036 0.65862 0.2932 0.0
O238 O 0.15326 0.64366 0.33348 0.0
C239 C 0.13226 0.64513 0.40035 0.0
O240 O 0.14177 0.66587 0.38645 0.0
C241 C 0.20574 0.66628 0.27406 0.0
O242 O 0.1999 0.64994 0.25244 0.0
O243 O 0.16182 0.62417 0.27573 0.0
O244 O 0.14417 0.59417 0.30655 0.0
H245 H 0.12251 0.65732 0.18659 0.0
H246 H 0.18108 0.63389 0.37928 0.0
O247 O 0.12736 0.6238 0.38626 0.0
H248 H 0.20786 0.54191 0.35861 0.0
H249 H 0.11362 0.53445 0.41395 0.0
H250 H 0.10004 0.57253 0.31478 0.0
H251 H 0.16499 0.5588 0.34085 0.0
H252 H 0.13547 0.57622 0.39981 0.0
O253 O 0.18863 0.67076 0.29441 0.0
H254 H 0.12696 0.6395 0.2371 0.0
H255 H 0.16709 0.70936 0.26427 0.0
H256 H 0.07827 0.53042 0.32778 0.0
H257 H 0.22395 0.61773 0.39755 0.0
H258 H 0.08493 0.51112 0.37772 0.0
H259 H 0.23768 0.57139 0.38729 0.0
O260 O 0.10085 0.6228 0.32999 0.0
H261 H 0.15819 0.73468 0.36419 0.0
H262 H 0.10604 0.69684 0.2824 0.0
H263 H 0.09175 0.73885 0.30514 0.0
H264 H 0.118 0.75813 0.3463 0.0
H265 H 0.17142 0.69242 0.34109 0.0
H266 H 0.16321 0.72785 0.21402 0.0
H267 H 0.14075 0.70178 0.17477 0.0
O268 O 0.1124 0.64727 0.29053 0.0
C269 C 0.15617 0.60051 0.28295 0.0
C270 C 0.13232 0.66888 0.20351 0.0
C271 C 0.15516 0.70846 0.2189 0.0
N272 N 0.1472 0.67337 0.25365 0.0
C273 C 0.13487 0.6589 0.23216 0.0
C274 C 0.15729 0.69788 0.24731 0.0
C275 C 0.14256 0.69382 0.19689 0.0
C276 C 0.18651 0.61361 0.37507 0.0
N277 N 0.16998 0.59719 0.35969 0.0
C278 C 0.21102 0.6046 0.38532 0.0
C279 C 0.21874 0.57862 0.37952 0.0
C280 C 0.20201 0.56208 0.36345 0.0
C281 C 0.17768 0.57178 0.35353 0.0
C282 C 0.11043 0.54273 0.39218 0.0
C283 C 0.10303 0.56432 0.33657 0.0
C284 C 0.12254 0.56655 0.38415 0.0
N285 N 0.11878 0.57708 0.35661 0.0
C286 C 0.09064 0.54044 0.34381 0.0
C287 C 0.09438 0.52963 0.37183 0.0
C288 C 0.09516 0.63507 0.30606 0.0
C289 C 0.14655 0.72647 0.34632 0.0
C290 C 0.11725 0.70482 0.30061 0.0
C291 C 0.10921 0.72876 0.31325 0.0
C292 C 0.12398 0.73959 0.3363 0.0
N293 N 0.13935 0.69201 0.31061 0.0
C294 C 0.15398 0.70257 0.33311 0.0
Co295 Co 0.39916 0.13481 0.33987 0.0
Co296 Co 0.35489 0.1556 0.28719 0.0
O297 O 0.36719 0.155 0.32851 0.0
C298 C 0.36186 0.13012 0.39249 0.0
O299 O 0.3405 0.13425 0.37666 0.0
C300 C 0.34663 0.2129 0.276 0.0
O301 O 0.36583 0.21128 0.25649 0.0
O302 O 0.3902 0.16952 0.27498 0.0
O303 O 0.41642 0.14247 0.30108 0.0
H304 H 0.36502 0.1397 0.17815 0.0
H305 H 0.37851 0.18049 0.37436 0.0
O306 O 0.3844 0.1274 0.38022 0.0
H307 H 0.47388 0.19823 0.36186 0.0
H308 H 0.47083 0.1021 0.40874 0.0
H309 H 0.43376 0.09673 0.30813 0.0
H310 H 0.45354 0.15877 0.33918 0.0
H311 H 0.43162 0.12839 0.39515 0.0
O312 O 0.34124 0.19297 0.29243 0.0
H313 H 0.37879 0.13887 0.23044 0.0
H314 H 0.30582 0.17403 0.25599 0.0
H315 H 0.47329 0.07047 0.3207 0.0
H316 H 0.39792 0.22057 0.39647 0.0
H317 H 0.49211 0.07302 0.37133 0.0
H318 H 0.44601 0.22959 0.39047 0.0
O319 O 0.38319 0.10186 0.32319 0.0
H320 H 0.27403 0.15406 0.35195 0.0
H321 H 0.31853 0.1123 0.26691 0.0
H322 H 0.27547 0.09492 0.28375 0.0
H323 H 0.25282 0.11595 0.32652 0.0
H324 H 0.31742 0.17041 0.33466 0.0
H325 H 0.29136 0.1755 0.204 0.0
H326 H 0.32103 0.15817 0.16464 0.0
O327 O 0.36729 0.11809 0.28059 0.0
C328 C 0.4128 0.15991 0.28123 0.0
C329 C 0.35191 0.14731 0.1951 0.0
C330 C 0.31058 0.1674 0.20959 0.0
N331 N 0.34316 0.15641 0.24627 0.0
C332 C 0.35959 0.14687 0.22475 0.0
C333 C 0.3189 0.16658 0.23901 0.0
C334 C 0.32723 0.15768 0.18753 0.0
C335 C 0.39938 0.18431 0.37133 0.0
N336 N 0.41486 0.16702 0.35574 0.0
C337 C 0.41029 0.20707 0.384 0.0
C338 C 0.43726 0.21212 0.38064 0.0
C339 C 0.4529 0.19454 0.36453 0.0
C340 C 0.44126 0.17213 0.35191 0.0
C341 C 0.4628 0.1008 0.38661 0.0
C342 C 0.44184 0.09811 0.33019 0.0
C343 C 0.44043 0.11553 0.37882 0.0
N344 N 0.4303 0.11422 0.35081 0.0
C345 C 0.46422 0.0831 0.33719 0.0
C346 C 0.47476 0.08452 0.3656 0.0
C347 C 0.37474 0.0987 0.29678 0.0
C348 C 0.28371 0.14469 0.33332 0.0
C349 C 0.30909 0.12121 0.28582 0.0
C350 C 0.28456 0.11145 0.29512 0.0
C351 C 0.27184 0.12329 0.31908 0.0
N352 N 0.32067 0.14215 0.29996 0.0
C353 C 0.30825 0.1539 0.32339 0.0
Co354 Co 0.85587 0.3882 0.33447 0.0
Co355 Co 0.84975 0.34061 0.27941 0.0
O356 O 0.84212 0.35396 0.31969 0.0
C357 C 0.85735 0.3521 0.38866 0.0
O358 O 0.84988 0.3312 0.37356 0.0
C359 C 0.79029 0.33565 0.27971 0.0
O360 O 0.78754 0.35874 0.29273 0.0
O361 O 0.83745 0.37456 0.26134 0.0
O362 O 0.84973 0.40458 0.29534 0.0
H363 H 0.88781 0.34687 0.17699 0.0
H364 H 0.80976 0.36023 0.36236 0.0
O365 O 0.86197 0.37398 0.37555 0.0
H366 H 0.77829 0.4507 0.34176 0.0
H367 H 0.86709 0.46302 0.40743 0.0
H368 H 0.8915 0.42892 0.30896 0.0
H369 H 0.82377 0.43755 0.32877 0.0
H370 H 0.84937 0.42038 0.38974 0.0
O371 O 0.81315 0.3259 0.27502 0.0
H372 H 0.87801 0.36254 0.22746 0.0
H373 H 0.8374 0.29076 0.24632 0.0
H374 H 0.90923 0.47191 0.32554 0.0
H375 H 0.76431 0.37265 0.37595 0.0
H376 H 0.8971 0.48922 0.37514 0.0
H377 H 0.74817 0.41819 0.36567 0.0
O378 O 0.89301 0.37848 0.3227 0.0
H379 H 0.84105 0.26267 0.34764 0.0
H380 H 0.8963 0.30464 0.27101 0.0
H381 H 0.91124 0.26293 0.2939 0.0
H382 H 0.88344 0.24159 0.3325 0.0
H383 H 0.82721 0.30468 0.32442 0.0
H384 H 0.84645 0.2745 0.19593 0.0
H385 H 0.87195 0.30257 0.16091 0.0
O386 O 0.88686 0.35424 0.28167 0.0
C387 C 0.84065 0.3983 0.27012 0.0
C388 C 0.87675 0.33442 0.19207 0.0
C389 C 0.85351 0.29382 0.20269 0.0
N390 N 0.85731 0.32753 0.23992 0.0
C391 C 0.87121 0.34315 0.22072 0.0
C392 C 0.84839 0.30318 0.23118 0.0
C393 C 0.86783 0.30957 0.18306 0.0
C394 C 0.80328 0.38021 0.35828 0.0
N395 N 0.81988 0.39826 0.34545 0.0
C396 C 0.77732 0.38709 0.36583 0.0
C397 C 0.76826 0.41262 0.36 0.0
C398 C 0.78514 0.43086 0.34662 0.0
C399 C 0.81095 0.42327 0.33938 0.0
C400 C 0.87261 0.45565 0.38581 0.0
C401 C 0.88608 0.4363 0.33056 0.0
C402 C 0.86282 0.43138 0.37577 0.0
N403 N 0.86955 0.42199 0.34842 0.0
C404 C 0.89622 0.46066 0.33984 0.0
C405 C 0.88941 0.47035 0.36767 0.0
C406 C 0.90174 0.36699 0.29945 0.0
C407 C 0.85342 0.27184 0.33097 0.0
C408 C 0.88446 0.29582 0.28821 0.0
C409 C 0.89284 0.27203 0.30089 0.0
C410 C 0.87721 0.26003 0.32248 0.0
N411 N 0.86124 0.3074 0.29682 0.0
C412 C 0.84568 0.29562 0.31775 0.0
Co413 Co 0.60773 0.8591 0.33034 0.0
Co414 Co 0.65313 0.84476 0.27551 0.0
O415 O 0.64132 0.84235 0.31722 0.0
C416 C 0.64495 0.86757 0.38278 0.0
O417 O 0.66669 0.86694 0.36686 0.0
C418 C 0.6703 0.78902 0.29419 0.0
O419 O 0.66143 0.79156 0.32131 0.0
O420 O 0.61891 0.82925 0.26213 0.0
O421 O 0.59065 0.85099 0.29173 0.0
H422 H 0.64126 0.86854 0.1685 0.0
H423 H 0.63295 0.81579 0.36452 0.0
O424 O 0.62225 0.86677 0.37064 0.0
H425 H 0.54076 0.78678 0.34902 0.0
H426 H 0.53393 0.88157 0.40164 0.0
H427 H 0.5693 0.89495 0.30114 0.0
H428 H 0.55639 0.82933 0.32868 0.0
H429 H 0.57537 0.85983 0.38621 0.0
O430 O 0.66831 0.80789 0.27566 0.0
H431 H 0.62811 0.86525 0.22088 0.0
H432 H 0.70171 0.82896 0.24183 0.0
H433 H 0.52762 0.91678 0.31558 0.0
H434 H 0.61826 0.77298 0.38483 0.0
H435 H 0.50962 0.91015 0.36615 0.0
H436 H 0.57181 0.75822 0.37718 0.0
O437 O 0.6199 0.89417 0.31499 0.0
H438 H 0.73386 0.85025 0.34069 0.0
H439 H 0.68697 0.89009 0.25624 0.0
H440 H 0.72901 0.90966 0.27307 0.0
H441 H 0.7529 0.88962 0.31552 0.0
H442 H 0.69154 0.83173 0.32349 0.0
H443 H 0.71549 0.83155 0.18962 0.0
H444 H 0.68523 0.8516 0.15256 0.0
O445 O 0.63858 0.88169 0.27226 0.0
C446 C 0.59565 0.83613 0.26973 0.0
C447 C 0.65465 0.85985 0.18445 0.0
C448 C 0.6963 0.83905 0.1963 0.0
N449 N 0.66418 0.84714 0.23446 0.0
C450 C 0.64735 0.858 0.21416 0.0
C451 C 0.68834 0.83756 0.22582 0.0
C452 C 0.67932 0.85031 0.17552 0.0
C453 C 0.61279 0.80945 0.36082 0.0
N454 N 0.59565 0.82504 0.34523 0.0
C455 C 0.60455 0.7852 0.37248 0.0
C456 C 0.5785 0.77694 0.3682 0.0
C457 C 0.56108 0.79295 0.35237 0.0
C458 C 0.57006 0.81703 0.34091 0.0
C459 C 0.54159 0.88463 0.37955 0.0
C460 C 0.56163 0.89186 0.32318 0.0
C461 C 0.56518 0.87249 0.37072 0.0
N462 N 0.57488 0.87604 0.34276 0.0
C463 C 0.53801 0.90435 0.33124 0.0
C464 C 0.52794 0.90064 0.35962 0.0
C465 C 0.62873 0.89939 0.28916 0.0
C466 C 0.72372 0.8591 0.32208 0.0
C467 C 0.69704 0.88137 0.27485 0.0
C468 C 0.72096 0.89248 0.28421 0.0
C469 C 0.73436 0.88121 0.308 0.0
N470 N 0.68673 0.85958 0.28866 0.0
C471 C 0.69975 0.84854 0.31208 0.0
Co472 Co 0.88196 0.63763 0.84089 0.0
Co473 Co 0.85002 0.65373 0.77521 0.0
O474 O 0.85349 0.65568 0.81865 0.0
C475 C 0.85535 0.61111 0.89166 0.0
O476 O 0.86526 0.58836 0.88287 0.0
C477 C 0.83613 0.7108 0.7905 0.0
O478 O 0.84065 0.70702 0.8187 0.0
O479 O 0.88788 0.66424 0.7702 0.0
O480 O 0.90814 0.64523 0.80907 0.0
H481 H 0.87948 0.62546 0.6739 0.0
H482 H 0.85094 0.68079 0.86897 0.0
O483 O 0.85643 0.63111 0.87442 0.0
H484 H 0.9442 0.70916 0.87617 0.0
H485 H 0.93786 0.61603 0.93064 0.0
H486 H 0.92305 0.59853 0.82473 0.0
H487 H 0.93261 0.6665 0.85306 0.0
H488 H 0.90248 0.63922 0.90363 0.0
O489 O 0.83965 0.69218 0.7719 0.0
H490 H 0.88199 0.62823 0.72825 0.0
H491 H 0.81218 0.67529 0.73018 0.0
H492 H 0.95887 0.57504 0.85084 0.0
H493 H 0.86163 0.72342 0.89273 0.0
H494 H 0.96641 0.58364 0.90423 0.0
H495 H 0.90856 0.73793 0.89637 0.0
O496 O 0.87267 0.60289 0.82161 0.0
H497 H 0.75891 0.65825 0.82084 0.0
H498 H 0.8148 0.61402 0.74634 0.0
H499 H 0.76828 0.60026 0.75223 0.0
H500 H 0.73989 0.62255 0.78959 0.0
H501 H 0.80556 0.67104 0.81457 0.0
H502 H 0.80915 0.67331 0.67586 0.0
H503 H 0.84286 0.64813 0.64734 0.0
O504 O 0.8596 0.6153 0.77608 0.0
C505 C 0.90855 0.65775 0.78464 0.0
C506 C 0.86462 0.63642 0.68608 0.0
C507 C 0.82518 0.66332 0.68718 0.0
N508 N 0.84717 0.65173 0.73243 0.0
C509 C 0.86588 0.63799 0.71687 0.0
C510 C 0.82707 0.66446 0.71795 0.0
C511 C 0.84409 0.64917 0.67119 0.0
C512 C 0.8714 0.68698 0.87037 0.0
N513 N 0.89107 0.67131 0.85918 0.0
C514 C 0.87734 0.71114 0.8839 0.0
C515 C 0.90366 0.71926 0.88594 0.0
C516 C 0.92365 0.70316 0.87459 0.0
C517 C 0.91694 0.67911 0.86127 0.0
C518 C 0.93466 0.61194 0.90742 0.0
C519 C 0.92602 0.60222 0.848 0.0
C520 C 0.9145 0.62491 0.89202 0.0
N521 N 0.91016 0.61979 0.8627 0.0
C522 C 0.94643 0.58894 0.86266 0.0
C523 C 0.95068 0.5938 0.8926 0.0
C524 C 0.86606 0.59765 0.79492 0.0
C525 C 0.77103 0.64848 0.80436 0.0
C526 C 0.80267 0.62378 0.76273 0.0
C527 C 0.77628 0.61593 0.76591 0.0
C528 C 0.76037 0.62843 0.78687 0.0
N529 N 0.813 0.6436 0.77982 0.0
C530 C 0.79752 0.65578 0.80057 0.0
Co531 Co 0.37428 0.89427 0.83362 0.0
Co532 Co 0.35874 0.8485 0.77975 0.0
O533 O 0.35693 0.86078 0.82124 0.0
C534 C 0.37744 0.85849 0.88785 0.0
O535 O 0.36781 0.83802 0.87356 0.0
C536 C 0.30305 0.83241 0.79959 0.0
O537 O 0.3062 0.84123 0.82663 0.0
O538 O 0.34333 0.8827 0.76652 0.0
O539 O 0.36654 0.91092 0.7946 0.0
H540 H 0.38118 0.85947 0.67224 0.0
H541 H 0.32915 0.87102 0.86796 0.0
O542 O 0.3825 0.88 0.87421 0.0
H543 H 0.30376 0.96363 0.84903 0.0
H544 H 0.39754 0.96853 0.90368 0.0
H545 H 0.41086 0.9318 0.80378 0.0
H546 H 0.34587 0.94603 0.82979 0.0
H547 H 0.37507 0.92734 0.88867 0.0
O548 O 0.32167 0.83389 0.78067 0.0
H549 H 0.37885 0.8729 0.7246 0.0
H550 H 0.34178 0.79997 0.74674 0.0
H551 H 0.4333 0.97329 0.81771 0.0
H552 H 0.28677 0.88768 0.88713 0.0
H553 H 0.42675 0.99193 0.868 0.0
H554 H 0.27376 0.93438 0.87779 0.0
O555 O 0.40903 0.88123 0.81828 0.0
H556 H 0.364 0.76821 0.84562 0.0
H557 H 0.4031 0.8137 0.75975 0.0
H558 H 0.42239 0.77158 0.77669 0.0
H559 H 0.40273 0.7484 0.81988 0.0
H560 H 0.34574 0.81055 0.8282 0.0
H561 H 0.3434 0.78592 0.69456 0.0
H562 H 0.36336 0.8157 0.65693 0.0
O563 O 0.39593 0.8625 0.7758 0.0
C564 C 0.35086 0.9059 0.77336 0.0
C565 C 0.37253 0.84628 0.68845 0.0
C566 C 0.35129 0.80502 0.70097 0.0
N567 N 0.36043 0.83716 0.73876 0.0
C568 C 0.37124 0.85374 0.71815 0.0
C569 C 0.35036 0.81313 0.73047 0.0
C570 C 0.3625 0.82173 0.67987 0.0
C571 C 0.32387 0.89132 0.86382 0.0
N572 N 0.34038 0.90752 0.8481 0.0
C573 C 0.2997 0.90067 0.87469 0.0
C574 C 0.29239 0.92685 0.86942 0.0
C575 C 0.30919 0.94325 0.85324 0.0
C576 C 0.3331 0.93314 0.8425 0.0
C577 C 0.40063 0.96056 0.88173 0.0
C578 C 0.40785 0.93974 0.8257 0.0
C579 C 0.38814 0.93709 0.87318 0.0
N580 N 0.39178 0.92696 0.84542 0.0
C581 C 0.42065 0.96327 0.83347 0.0
C582 C 0.41698 0.9737 0.86169 0.0
C583 C 0.41393 0.87213 0.79249 0.0
C584 C 0.37274 0.77808 0.82674 0.0
C585 C 0.39464 0.804 0.77875 0.0
C586 C 0.40555 0.78001 0.78814 0.0
C587 C 0.39448 0.767 0.81234 0.0
N588 N 0.37328 0.81479 0.79294 0.0
C589 C 0.36237 0.8021 0.81668 0.0
Co590 Co 0.12132 0.36821 0.85511 0.0
Co591 Co 0.1527 0.35121 0.79052 0.0
O592 O 0.14846 0.34793 0.83348 0.0
C593 C 0.14901 0.38602 0.90968 0.0
O594 O 0.14343 0.41064 0.90259 0.0
C595 C 0.16416 0.29326 0.80366 0.0
O596 O 0.15984 0.29643 0.83203 0.0
O597 O 0.11427 0.343 0.78509 0.0
O598 O 0.09705 0.36847 0.82056 0.0
H599 H 0.12587 0.38489 0.69046 0.0
H600 H 0.14251 0.31881 0.88185 0.0
O601 O 0.1448 0.36755 0.89103 0.0
H602 H 0.04633 0.30393 0.87238 0.0
H603 H 0.06362 0.39004 0.94317 0.0
H604 H 0.08679 0.41391 0.84074 0.0
H605 H 0.06621 0.34618 0.8567 0.0
H606 H 0.09717 0.3645 0.91574 0.0
O607 O 0.16098 0.31242 0.78569 0.0
H608 H 0.12286 0.38042 0.74464 0.0
H609 H 0.18924 0.32861 0.74463 0.0
H610 H 0.05308 0.44001 0.86731 0.0
H611 H 0.12337 0.2764 0.89834 0.0
H612 H 0.04132 0.42817 0.91898 0.0
H613 H 0.07494 0.26868 0.89355 0.0
O614 O 0.13713 0.40225 0.84031 0.0
H615 H 0.24238 0.34111 0.83846 0.0
H616 H 0.19134 0.38819 0.76206 0.0
H617 H 0.23841 0.39903 0.7692 0.0
H618 H 0.2644 0.37526 0.80751 0.0
H619 H 0.19522 0.33134 0.83103 0.0
H620 H 0.19266 0.3322 0.69044 0.0
H621 H 0.16095 0.36066 0.66299 0.0
O622 O 0.14536 0.39031 0.79318 0.0
C623 C 0.09459 0.35418 0.7976 0.0
C624 C 0.13987 0.37252 0.70218 0.0
C625 C 0.17731 0.34289 0.70217 0.0
N626 N 0.15597 0.35447 0.74786 0.0
C627 C 0.13833 0.36999 0.73288 0.0
C628 C 0.17518 0.34084 0.73286 0.0
C629 C 0.15953 0.35888 0.68678 0.0
C630 C 0.12142 0.31568 0.87976 0.0
N631 N 0.10559 0.33499 0.86813 0.0
C632 C 0.11069 0.29158 0.88912 0.0
C633 C 0.08353 0.28726 0.88641 0.0
C634 C 0.06747 0.307 0.8745 0.0
C635 C 0.0789 0.33086 0.86545 0.0
C636 C 0.06874 0.39557 0.92076 0.0
C637 C 0.08212 0.40888 0.86334 0.0
C638 C 0.08786 0.38126 0.90515 0.0
N639 N 0.0946 0.38817 0.87688 0.0
C640 C 0.06285 0.42362 0.87822 0.0
C641 C 0.05622 0.41693 0.90717 0.0
C642 C 0.14255 0.40792 0.81332 0.0
C643 C 0.2313 0.35154 0.8216 0.0
C644 C 0.2023 0.37794 0.77898 0.0
C645 C 0.22907 0.38407 0.78282 0.0
C646 C 0.24364 0.37073 0.80428 0.0
N647 N 0.19027 0.35897 0.79591 0.0
C648 C 0.20448 0.34596 0.81714 0.0
Co649 Co 0.63428 0.11021 0.83366 0.0
Co650 Co 0.64669 0.15991 0.78336 0.0
O651 O 0.65046 0.1446 0.82323 0.0
C652 C 0.63137 0.14287 0.8903 0.0
O653 O 0.64015 0.16428 0.87709 0.0
C654 C 0.70619 0.16617 0.78253 0.0
O655 O 0.70937 0.14035 0.78251 0.0
O656 O 0.66172 0.12707 0.76559 0.0
O657 O 0.64145 0.09622 0.79328 0.0
H658 H 0.62125 0.15786 0.67603 0.0
H659 H 0.68012 0.13329 0.86677 0.0
O660 O 0.62683 0.12186 0.87549 0.0
H661 H 0.70741 0.04251 0.84092 0.0
H662 H 0.61488 0.03138 0.89877 0.0
H663 H 0.59782 0.07361 0.80238 0.0
H664 H 0.66387 0.05951 0.82538 0.0
H665 H 0.63576 0.07405 0.88619 0.0
O666 O 0.68313 0.1762 0.78564 0.0
H667 H 0.62572 0.13983 0.72643 0.0
H668 H 0.66043 0.2119 0.7556 0.0
H669 H 0.57698 0.03068 0.81384 0.0
H670 H 0.72383 0.11714 0.88245 0.0
H671 H 0.58542 0.00928 0.86236 0.0
H672 H 0.73779 0.07139 0.86961 0.0
O673 O 0.59873 0.12316 0.82059 0.0
H674 H 0.64492 0.23508 0.85606 0.0
H675 H 0.59932 0.19396 0.77142 0.0
H676 H 0.58035 0.23399 0.79432 0.0
H677 H 0.60326 0.25491 0.83695 0.0
H678 H 0.66294 0.19476 0.83266 0.0
H679 H 0.65669 0.23056 0.70544 0.0
H680 H 0.63685 0.20353 0.66525 0.0
O681 O 0.60991 0.14509 0.77936 0.0
C682 C 0.65529 0.1032 0.77112 0.0
C683 C 0.62989 0.16985 0.69336 0.0
C684 C 0.64981 0.21064 0.70986 0.0
N685 N 0.64325 0.1748 0.74399 0.0
C686 C 0.63242 0.15977 0.72197 0.0
C687 C 0.65198 0.19992 0.73821 0.0
C688 C 0.63867 0.19547 0.68733 0.0
C689 C 0.68575 0.1133 0.86132 0.0
N690 N 0.66896 0.09722 0.84581 0.0
C691 C 0.71069 0.10429 0.87014 0.0
C692 C 0.71853 0.07864 0.86289 0.0
C693 C 0.7015 0.06244 0.84679 0.0
C694 C 0.67677 0.07217 0.83819 0.0
C695 C 0.611 0.04053 0.87757 0.0
C696 C 0.60169 0.06442 0.82351 0.0
C697 C 0.62261 0.06482 0.87041 0.0
N698 N 0.61798 0.07643 0.84359 0.0
C699 C 0.58977 0.04011 0.8299 0.0
C700 C 0.5945 0.02813 0.85713 0.0
C701 C 0.59274 0.13383 0.79586 0.0
C702 C 0.63471 0.22612 0.83756 0.0
C703 C 0.60914 0.20265 0.79021 0.0
C704 C 0.59844 0.22547 0.80297 0.0
C705 C 0.61132 0.23722 0.82684 0.0
N706 N 0.63201 0.1918 0.80093 0.0
C707 C 0.64483 0.2033 0.82421 0.0
Co708 Co 0.88588 0.3774 0.66061 0.0
Co709 Co 0.85162 0.35649 0.7211 0.0
O710 O 0.85759 0.35508 0.678 0.0
C711 C 0.84534 0.37111 0.6108 0.0
O712 O 0.82628 0.36279 0.62824 0.0
C713 C 0.83781 0.29906 0.70519 0.0
O714 O 0.8432 0.30209 0.67701 0.0
O715 O 0.88929 0.34575 0.72751 0.0
O716 O 0.90693 0.37605 0.69779 0.0
H717 H 0.87628 0.3825 0.8247 0.0
H718 H 0.86871 0.32682 0.63255 0.0
O719 O 0.86728 0.37926 0.62135 0.0
H720 H 0.96548 0.31881 0.64381 0.0
H721 H 0.94796 0.4093 0.58058 0.0
H722 H 0.9172 0.42307 0.68288 0.0
H723 H 0.94233 0.35921 0.65999 0.0
H724 H 0.91377 0.38034 0.60206 0.0
O725 O 0.84096 0.31812 0.7233 0.0
H726 H 0.88162 0.38054 0.77056 0.0
H727 H 0.81103 0.33512 0.76315 0.0
H728 H 0.9516 0.45232 0.66233 0.0
H729 H 0.89107 0.28623 0.61572 0.0
H730 H 0.96725 0.44557 0.6108 0.0
H731 H 0.93985 0.28197 0.62129 0.0
O732 O 0.86751 0.40991 0.67578 0.0
H733 H 0.7624 0.35162 0.67142 0.0
H734 H 0.81568 0.39738 0.74701 0.0
H735 H 0.76957 0.4113 0.73852 0.0
H736 H 0.74247 0.38824 0.70059 0.0
H737 H 0.80866 0.33866 0.68033 0.0
H738 H 0.80515 0.33629 0.81722 0.0
H739 H 0.83784 0.36023 0.84838 0.0
O740 O 0.86144 0.39508 0.72192 0.0
C741 C 0.90925 0.35843 0.71766 0.0
C742 C 0.86186 0.37206 0.81135 0.0
C743 C 0.82196 0.3461 0.80716 0.0
N744 N 0.84659 0.35788 0.76365 0.0
C745 C 0.86475 0.37094 0.78067 0.0
C746 C 0.82546 0.34543 0.77654 0.0
C747 C 0.8403 0.35954 0.82463 0.0
C748 C 0.88991 0.3253 0.63494 0.0
N749 N 0.90412 0.34561 0.64706 0.0
C750 C 0.90249 0.30217 0.6254 0.0
C751 C 0.92984 0.29978 0.62855 0.0
C752 C 0.94422 0.32044 0.64118 0.0
C753 C 0.93097 0.34328 0.65038 0.0
C754 C 0.94128 0.41248 0.60305 0.0
C755 C 0.92383 0.41992 0.66045 0.0
C756 C 0.92178 0.3962 0.61531 0.0
N757 N 0.91333 0.39994 0.64374 0.0
C758 C 0.94336 0.43659 0.64892 0.0
C759 C 0.95212 0.4328 0.62002 0.0
C760 C 0.86325 0.41404 0.70332 0.0
C761 C 0.77393 0.36171 0.68814 0.0
C762 C 0.80415 0.38728 0.7304 0.0
C763 C 0.77797 0.39523 0.72573 0.0
C764 C 0.76278 0.38229 0.70447 0.0
N765 N 0.81493 0.3669 0.71449 0.0
C766 C 0.80018 0.35431 0.69343 0.0
Co767 Co 0.63405 0.90202 0.65665 0.0
Co768 Co 0.65502 0.8612 0.7127 0.0
O769 O 0.65461 0.87128 0.67071 0.0
C770 C 0.63369 0.86249 0.60595 0.0
O771 O 0.64512 0.84421 0.6221 0.0
C772 C 0.71243 0.85433 0.72449 0.0
O773 O 0.71061 0.87434 0.74293 0.0
O774 O 0.66815 0.89731 0.7227 0.0
O775 O 0.64156 0.92185 0.69394 0.0
H776 H 0.63824 0.87653 0.82084 0.0
H777 H 0.68131 0.88036 0.62445 0.0
O778 O 0.62627 0.88429 0.61761 0.0
H779 H 0.69699 0.97641 0.63215 0.0
H780 H 0.60112 0.96844 0.58185 0.0
H781 H 0.59491 0.93774 0.68507 0.0
H782 H 0.65701 0.95649 0.65397 0.0
H783 H 0.62825 0.93096 0.59914 0.0
O784 O 0.69258 0.84801 0.70843 0.0
H785 H 0.63751 0.88764 0.76775 0.0
H786 H 0.67416 0.81419 0.74708 0.0
H787 H 0.56776 0.97559 0.66882 0.0
H788 H 0.72151 0.89946 0.60251 0.0
H789 H 0.57072 0.99117 0.61684 0.0
H790 H 0.72963 0.94787 0.60615 0.0
O791 O 0.6012 0.8868 0.67461 0.0
H792 H 0.65542 0.77692 0.65363 0.0
H793 H 0.61209 0.82533 0.73493 0.0
H794 H 0.59547 0.78122 0.72085 0.0
H795 H 0.61727 0.75661 0.67995 0.0
H796 H 0.67104 0.82133 0.66818 0.0
H797 H 0.67555 0.8024 0.79992 0.0
H798 H 0.65741 0.83366 0.83723 0.0
O799 O 0.61732 0.87329 0.71826 0.0
C800 C 0.65846 0.91942 0.71463 0.0
C801 C 0.6462 0.86274 0.8048 0.0
C802 C 0.66714 0.82114 0.79306 0.0
N803 N 0.65579 0.85161 0.75431 0.0
C804 C 0.64582 0.86891 0.7747 0.0
C805 C 0.66636 0.82796 0.76316 0.0
C806 C 0.65696 0.83868 0.81398 0.0
C807 C 0.68431 0.90144 0.62588 0.0
N808 N 0.66618 0.91728 0.63976 0.0
C809 C 0.70731 0.91216 0.61353 0.0
C810 C 0.71188 0.9393 0.61561 0.0
C811 C 0.69357 0.95532 0.63015 0.0
C812 C 0.67084 0.94389 0.64233 0.0
C813 C 0.5996 0.9618 0.60453 0.0
C814 C 0.59641 0.94441 0.66244 0.0
C815 C 0.61477 0.94042 0.6144 0.0
N816 N 0.61312 0.93201 0.64309 0.0
C817 C 0.58093 0.96585 0.65335 0.0
C818 C 0.58258 0.97457 0.62419 0.0
C819 C 0.59796 0.87968 0.7015 0.0
C820 C 0.64568 0.78748 0.67141 0.0
C821 C 0.62131 0.81504 0.71678 0.0
C822 C 0.61199 0.78992 0.70906 0.0
C823 C 0.62427 0.7761 0.68617 0.0
N824 N 0.64223 0.82614 0.70211 0.0
C825 C 0.65444 0.81264 0.67975 0.0
Co826 Co 0.10956 0.62423 0.67828 0.0
Co827 Co 0.1547 0.64787 0.72768 0.0
O828 O 0.1406 0.64676 0.68722 0.0
C829 C 0.14359 0.62257 0.62276 0.0
O830 O 0.1658 0.62479 0.63762 0.0
C831 C 0.16024 0.7054 0.73921 0.0
O832 O 0.14162 0.70264 0.75926 0.0
O833 O 0.11911 0.65981 0.74145 0.0
O834 O 0.09517 0.62851 0.7192 0.0
H835 H 0.14964 0.63107 0.83697 0.0
H836 H 0.12262 0.672 0.64285 0.0
O837 O 0.12156 0.61994 0.63619 0.0
H838 H 0.02897 0.68301 0.67142 0.0
H839 H 0.03541 0.58869 0.61483 0.0
H840 H 0.08095 0.58185 0.71088 0.0
H841 H 0.05418 0.64384 0.68771 0.0
H842 H 0.07326 0.61769 0.62634 0.0
O843 O 0.16607 0.68597 0.72222 0.0
H844 H 0.13395 0.62967 0.78537 0.0
H845 H 0.20401 0.66855 0.75664 0.0
H846 H 0.04304 0.55266 0.70034 0.0
H847 H 0.09821 0.71163 0.62647 0.0
H848 H 0.01994 0.55595 0.65202 0.0
H849 H 0.051 0.71732 0.64074 0.0
O850 O 0.12968 0.5924 0.69194 0.0
H851 H 0.23254 0.65086 0.65861 0.0
H852 H 0.19419 0.60654 0.74574 0.0
H853 H 0.23742 0.59169 0.72653 0.0
H854 H 0.25696 0.61401 0.68271 0.0
H855 H 0.1891 0.66473 0.67831 0.0
H856 H 0.22032 0.67068 0.80791 0.0
H857 H 0.19309 0.65176 0.84852 0.0
O858 O 0.14475 0.60966 0.73442 0.0
C859 C 0.09745 0.64749 0.73746 0.0
C860 C 0.16168 0.6394 0.81948 0.0
C861 C 0.20134 0.66163 0.80318 0.0
N862 N 0.16797 0.64911 0.768 0.0
C863 C 0.1529 0.63866 0.79022 0.0
C864 C 0.19196 0.66045 0.77418 0.0
C865 C 0.18606 0.65101 0.82594 0.0
C866 C 0.10211 0.67431 0.64922 0.0
N867 N 0.08985 0.65546 0.66604 0.0
C868 C 0.08838 0.69681 0.63986 0.0
C869 C 0.0619 0.7 0.64787 0.0
C870 C 0.04953 0.68076 0.6651 0.0
C871 C 0.06392 0.65858 0.67418 0.0
C872 C 0.04534 0.58702 0.63595 0.0
C873 C 0.07107 0.58348 0.68979 0.0
C874 C 0.06693 0.6033 0.64254 0.0
N875 N 0.07948 0.60148 0.66925 0.0
C876 C 0.04958 0.56685 0.68395 0.0
C877 C 0.03665 0.56869 0.65683 0.0
C878 C 0.13884 0.58975 0.71818 0.0
C879 C 0.22424 0.64097 0.67771 0.0
C880 C 0.20234 0.61607 0.72645 0.0
C881 C 0.22694 0.60772 0.71577 0.0
C882 C 0.23791 0.62028 0.69122 0.0
N883 N 0.18903 0.63638 0.71308 0.0
C884 C 0.19969 0.64879 0.68902 0.0
Co885 Co 0.3693 0.10588 0.66746 0.0
Co886 Co 0.3499 0.14881 0.72247 0.0
O887 O 0.34969 0.13757 0.68077 0.0
C888 C 0.37089 0.14391 0.61525 0.0
O889 O 0.35988 0.1631 0.63049 0.0
C890 C 0.2925 0.15559 0.73471 0.0
O891 O 0.29463 0.13578 0.75335 0.0
O892 O 0.33652 0.11323 0.73406 0.0
O893 O 0.36169 0.08722 0.70537 0.0
H894 H 0.36818 0.13652 0.83075 0.0
H895 H 0.32267 0.12811 0.63491 0.0
O896 O 0.37735 0.12225 0.62784 0.0
H897 H 0.3039 0.03288 0.6458 0.0
H898 H 0.39903 0.03602 0.59481 0.0
H899 H 0.4079 0.07002 0.6965 0.0
H900 H 0.34454 0.05208 0.66691 0.0
H901 H 0.37335 0.0749 0.61108 0.0
O902 O 0.31229 0.1622 0.7186 0.0
H903 H 0.36812 0.12387 0.77807 0.0
H904 H 0.33144 0.19683 0.7555 0.0
H905 H 0.43354 0.03077 0.68132 0.0
H906 H 0.28176 0.10976 0.61386 0.0
H907 H 0.42925 0.01352 0.63012 0.0
H908 H 0.27211 0.06175 0.61912 0.0
O909 O 0.40269 0.12063 0.68446 0.0
H910 H 0.3496 0.23139 0.66059 0.0
H911 H 0.39373 0.18457 0.74245 0.0
H912 H 0.41061 0.22811 0.72658 0.0
H913 H 0.38841 0.2519 0.68541 0.0
H914 H 0.33368 0.18757 0.67694 0.0
H915 H 0.33084 0.21015 0.80792 0.0
H916 H 0.34939 0.17992 0.84597 0.0
O917 O 0.38756 0.13642 0.72766 0.0
C918 C 0.34543 0.0907 0.72649 0.0
C919 C 0.36006 0.14987 0.81438 0.0
C920 C 0.33909 0.19118 0.80158 0.0
N921 N 0.34981 0.15958 0.76372 0.0
C922 C 0.36 0.14283 0.78452 0.0
C923 C 0.33943 0.1835 0.77192 0.0
C924 C 0.3495 0.17422 0.8229 0.0
C925 C 0.31895 0.1072 0.63712 0.0
N926 N 0.33659 0.09116 0.65144 0.0
C927 C 0.29556 0.09691 0.62525 0.0
C928 C 0.29013 0.07 0.62824 0.0
C929 C 0.30796 0.0538 0.64321 0.0
C930 C 0.33106 0.06481 0.65496 0.0
C931 C 0.40115 0.04339 0.61715 0.0
C932 C 0.40584 0.06264 0.67419 0.0
C933 C 0.38683 0.06557 0.62642 0.0
N934 N 0.38921 0.07491 0.65468 0.0
C935 C 0.42046 0.0404 0.66572 0.0
C936 C 0.41806 0.03075 0.63699 0.0
C937 C 0.40648 0.12875 0.71089 0.0
C938 C 0.35948 0.2212 0.67851 0.0
C939 C 0.38426 0.19455 0.72424 0.0
C940 C 0.39376 0.21933 0.71548 0.0
C941 C 0.38127 0.23269 0.69242 0.0
N942 N 0.36293 0.18337 0.71044 0.0
C943 C 0.35054 0.1964 0.68789 0.0
C944 C 0.33498 0.25903 0.26036 0.0
C945 C 0.32733 0.23496 0.27332 0.0
C946 C 0.31611 0.2784 0.25285 0.0
C947 C 0.28883 0.27324 0.25755 0.0
C948 C 0.28109 0.24937 0.27162 0.0
C949 C 0.30046 0.23074 0.27979 0.0
C950 C 0.32531 0.30397 0.23893 0.0
C951 C 0.25222 0.2428 0.27655 0.0
C952 C 0.23629 0.32738 0.25547 0.0
C953 C 0.22646 0.32496 0.22659 0.0
C954 C 0.25735 0.3115 0.26546 0.0
C955 C 0.26827 0.29208 0.24643 0.0
C956 C 0.2587 0.28987 0.21705 0.0
C957 C 0.23817 0.30662 0.20735 0.0
C958 C 0.26748 0.31512 0.29659 0.0
C959 C 0.26935 0.26904 0.19624 0.0
H960 H 0.35573 0.26246 0.25541 0.0
H961 H 0.29432 0.21214 0.28963 0.0
H962 H 0.31914 0.30454 0.21541 0.0
H963 H 0.31596 0.32116 0.25014 0.0
H964 H 0.34719 0.30625 0.23994 0.0
H965 H 0.24951 0.2238 0.28857 0.0
H966 H 0.24239 0.2588 0.28929 0.0
H967 H 0.24195 0.24137 0.25492 0.0
H968 H 0.22731 0.3416 0.27041 0.0
H969 H 0.2304 0.30444 0.18514 0.0
H970 H 0.28938 0.31724 0.29648 0.0
H971 H 0.26267 0.29736 0.30999 0.0
H972 H 0.25869 0.33276 0.30755 0.0
H973 H 0.29109 0.27134 0.19363 0.0
H974 H 0.26001 0.27005 0.17405 0.0
H975 H 0.26578 0.24904 0.20564 0.0
C976 C 0.74336 0.31905 0.28379 0.0
C977 C 0.76717 0.32098 0.26799 0.0
C978 C 0.72299 0.30198 0.27411 0.0
C979 C 0.72642 0.28706 0.24777 0.0
C980 C 0.74972 0.29053 0.23078 0.0
C981 C 0.76986 0.30717 0.24125 0.0
C982 C 0.69862 0.29861 0.29308 0.0
C983 C 0.75414 0.27545 0.20234 0.0
C984 C 0.69766 0.218 0.2405 0.0
C985 C 0.67603 0.22187 0.22149 0.0
C986 C 0.71337 0.23919 0.25007 0.0
C987 C 0.70779 0.26513 0.24 0.0
C988 C 0.68584 0.26938 0.22099 0.0
C989 C 0.67001 0.2477 0.21219 0.0
C990 C 0.73631 0.23366 0.27064 0.0
C991 C 0.67952 0.29666 0.20937 0.0
H992 H 0.74126 0.32972 0.30446 0.0
H993 H 0.78808 0.30899 0.22869 0.0
H994 H 0.68043 0.29932 0.27936 0.0
H995 H 0.6992 0.27888 0.30389 0.0
H996 H 0.69726 0.31403 0.31053 0.0
H997 H 0.77159 0.28294 0.18988 0.0
H998 H 0.75744 0.25419 0.20738 0.0
H999 H 0.7364 0.27679 0.18796 0.0
H1000 H 0.70226 0.19828 0.24831 0.0
H1001 H 0.65327 0.2509 0.19762 0.0
H1002 H 0.73519 0.24674 0.29032 0.0
H1003 H 0.75529 0.238 0.25922 0.0
H1004 H 0.73672 0.21273 0.27823 0.0
H1005 H 0.67775 0.31093 0.22792 0.0
H1006 H 0.66086 0.297 0.19637 0.0
H1007 H 0.69597 0.30363 0.19505 0.0
C1008 C 0.75236 0.65819 0.24684 0.0
C1009 C 0.77635 0.66663 0.23426 0.0
C1010 C 0.73289 0.67655 0.25565 0.0
C1011 C 0.73787 0.70405 0.25272 0.0
C1012 C 0.76177 0.71263 0.23931 0.0
C1013 C 0.78048 0.69384 0.22979 0.0
C1014 C 0.70728 0.66652 0.2688 0.0
C1015 C 0.76818 0.74173 0.23626 0.0
C1016 C 0.68347 0.75621 0.25568 0.0
C1017 C 0.68522 0.76514 0.28498 0.0
C1018 C 0.69954 0.73546 0.2453 0.0
C1019 C 0.71855 0.72395 0.26438 0.0
C1020 C 0.72006 0.73258 0.2942 0.0
C1021 C 0.70307 0.7528 0.30427 0.0
C1022 C 0.69663 0.72636 0.21367 0.0
C1023 C 0.74049 0.72133 0.31507 0.0
H1024 H 0.749 0.63721 0.2503 0.0
H1025 H 0.79901 0.7006 0.2203 0.0
H1026 H 0.70625 0.67198 0.29252 0.0
H1027 H 0.69011 0.67594 0.25765 0.0
H1028 H 0.70535 0.64466 0.26689 0.0
H1029 H 0.78755 0.74515 0.22519 0.0
H1030 H 0.75251 0.75192 0.2234 0.0
H1031 H 0.76875 0.75108 0.25846 0.0
H1032 H 0.66962 0.7657 0.24072 0.0
H1033 H 0.7047 0.7599 0.32682 0.0
H1034 H 0.69484 0.70447 0.21275 0.0
H1035 H 0.71455 0.73191 0.20088 0.0
H1036 H 0.67906 0.73527 0.20273 0.0
H1037 H 0.73847 0.69949 0.31642 0.0
H1038 H 0.73874 0.7297 0.3377 0.0
H1039 H 0.76068 0.7256 0.30653 0.0
C1040 C 0.30419 0.77873 0.2198 0.0
C1041 C 0.32857 0.77958 0.23467 0.0
C1042 C 0.28524 0.75915 0.22646 0.0
C1043 C 0.29081 0.7399 0.24842 0.0
C1044 C 0.31581 0.74 0.26257 0.0
C1045 C 0.33434 0.75979 0.25553 0.0
C1046 C 0.25887 0.75962 0.21072 0.0
C1047 C 0.32267 0.71975 0.28591 0.0
C1048 C 0.23169 0.70735 0.28644 0.0
C1049 C 0.22946 0.68349 0.27073 0.0
C1050 C 0.25186 0.72568 0.27979 0.0
C1051 C 0.27031 0.71997 0.25699 0.0
C1052 C 0.26881 0.69544 0.24194 0.0
C1053 C 0.24845 0.67755 0.24898 0.0
C1054 C 0.25289 0.75155 0.29648 0.0
C1055 C 0.28817 0.68846 0.21769 0.0
H1056 H 0.29944 0.79401 0.20382 0.0
H1057 H 0.35313 0.7602 0.26712 0.0
H1058 H 0.25494 0.74011 0.2003 0.0
H1059 H 0.24275 0.76328 0.22691 0.0
H1060 H 0.258 0.77518 0.19338 0.0
H1061 H 0.34345 0.72168 0.29371 0.0
H1062 H 0.30922 0.72208 0.30515 0.0
H1063 H 0.31975 0.69942 0.27716 0.0
H1064 H 0.21703 0.71222 0.30311 0.0
H1065 H 0.24698 0.65914 0.23676 0.0
H1066 H 0.24945 0.76826 0.28102 0.0
H1067 H 0.27282 0.7544 0.30633 0.0
H1068 H 0.23784 0.75253 0.31439 0.0
H1069 H 0.28591 0.70253 0.19902 0.0
H1070 H 0.28519 0.66802 0.20921 0.0
H1071 H 0.30882 0.6903 0.22583 0.0
C1072 C 0.7585 0.84334 0.74113 0.0
C1073 C 0.73458 0.83527 0.72815 0.0
C1074 C 0.77785 0.82473 0.74945 0.0
C1075 C 0.77278 0.79734 0.7456 0.0
C1076 C 0.7491 0.78917 0.73146 0.0
C1077 C 0.73052 0.80825 0.72245 0.0
C1078 C 0.80325 0.83432 0.76343 0.0
C1079 C 0.74259 0.76018 0.72745 0.0
C1080 C 0.82596 0.74408 0.75119 0.0
C1081 C 0.82257 0.73516 0.78031 0.0
C1082 C 0.81086 0.76523 0.74002 0.0
C1083 C 0.79124 0.77711 0.75808 0.0
C1084 C 0.78816 0.76852 0.78773 0.0
C1085 C 0.80416 0.74792 0.79862 0.0
C1086 C 0.81538 0.77432 0.70863 0.0
C1087 C 0.76705 0.78018 0.80753 0.0
H1088 H 0.76181 0.8642 0.74547 0.0
H1089 H 0.71204 0.80179 0.71258 0.0
H1090 H 0.80336 0.82912 0.78725 0.0
H1091 H 0.82058 0.82444 0.75308 0.0
H1092 H 0.80568 0.85612 0.76135 0.0
H1093 H 0.72381 0.75713 0.7151 0.0
H1094 H 0.75882 0.74998 0.71545 0.0
H1095 H 0.74073 0.75056 0.74941 0.0
H1096 H 0.84022 0.73426 0.73698 0.0
H1097 H 0.80124 0.74085 0.82102 0.0
H1098 H 0.81742 0.79621 0.70785 0.0
H1099 H 0.79805 0.76895 0.69481 0.0
H1100 H 0.83337 0.76524 0.69873 0.0
H1101 H 0.76956 0.80195 0.80918 0.0
H1102 H 0.76753 0.77166 0.83017 0.0
H1103 H 0.74719 0.77646 0.79784 0.0
C1104 C 0.20574 0.72475 0.73486 0.0
C1105 C 0.17889 0.72798 0.74214 0.0
C1106 C 0.22477 0.74349 0.74364 0.0
C1107 C 0.21667 0.76657 0.75905 0.0
C1108 C 0.18935 0.77089 0.76443 0.0
C1109 C 0.17085 0.75134 0.75638 0.0
C1110 C 0.25372 0.7378 0.73795 0.0
C1111 C 0.17974 0.79571 0.77967 0.0
C1112 C 0.26753 0.79905 0.80975 0.0
C1113 C 0.27875 0.81801 0.79095 0.0
C1114 C 0.24701 0.7824 0.79978 0.0
C1115 C 0.23694 0.78545 0.77069 0.0
C1116 C 0.24731 0.80562 0.75226 0.0
C1117 C 0.26843 0.82129 0.76241 0.0
C1118 C 0.23701 0.76071 0.81987 0.0
C1119 C 0.23657 0.81021 0.72155 0.0
H1120 H 0.21217 0.70676 0.72393 0.0
H1121 H 0.15011 0.75403 0.76193 0.0
H1122 H 0.26296 0.75441 0.72567 0.0
H1123 H 0.26434 0.73596 0.75933 0.0
H1124 H 0.25671 0.71925 0.72514 0.0
H1125 H 0.15781 0.79758 0.77893 0.0
H1126 H 0.18605 0.79549 0.80315 0.0
H1127 H 0.18866 0.81351 0.76924 0.0
H1128 H 0.27576 0.79627 0.83165 0.0
H1129 H 0.27713 0.836 0.74787 0.0
H1130 H 0.24083 0.74111 0.80959 0.0
H1131 H 0.21527 0.76251 0.82292 0.0
H1132 H 0.24663 0.76118 0.84194 0.0
H1133 H 0.24178 0.79321 0.70712 0.0
H1134 H 0.24463 0.82857 0.71141 0.0
H1135 H 0.21463 0.81159 0.72212 0.0
C1136 C 0.17516 0.26145 0.76311 0.0
C1137 C 0.17792 0.26929 0.79271 0.0
C1138 C 0.19098 0.24118 0.75114 0.0
C1139 C 0.21065 0.2291 0.76891 0.0
C1140 C 0.213 0.23647 0.79905 0.0
C1141 C 0.19633 0.2562 0.81069 0.0
C1142 C 0.18723 0.23334 0.71922 0.0
C1143 C 0.23407 0.22451 0.81864 0.0
C1144 C 0.24566 0.16462 0.74972 0.0
C1145 C 0.26969 0.17385 0.73799 0.0
C1146 C 0.22552 0.18232 0.75818 0.0
C1147 C 0.22988 0.20995 0.75577 0.0
C1148 C 0.25365 0.21932 0.74272 0.0
C1149 C 0.27307 0.20114 0.73352 0.0
C1150 C 0.20008 0.17148 0.77093 0.0
C1151 C 0.25936 0.24861 0.74022 0.0
H1152 H 0.16093 0.27154 0.74913 0.0
H1153 H 0.1988 0.26245 0.83345 0.0
H1154 H 0.20452 0.24 0.70601 0.0
H1155 H 0.18606 0.21146 0.71716 0.0
H1156 H 0.16903 0.24217 0.70954 0.0
H1157 H 0.23295 0.23198 0.84171 0.0
H1158 H 0.23216 0.20263 0.81901 0.0
H1159 H 0.25399 0.22922 0.80961 0.0
H1160 H 0.24288 0.14353 0.75307 0.0
H1161 H 0.29163 0.20844 0.72461 0.0
H1162 H 0.18272 0.18139 0.76074 0.0
H1163 H 0.19936 0.17554 0.79502 0.0
H1164 H 0.19827 0.14976 0.76753 0.0
H1165 H 0.24301 0.25881 0.72848 0.0
H1166 H 0.27821 0.25266 0.72834 0.0
H1167 H 0.26066 0.2574 0.76267 0.0
C1168 C 0.72432 0.21132 0.77131 0.0
C1169 C 0.72862 0.18396 0.77435 0.0
C1170 C 0.74404 0.22815 0.76001 0.0
C1171 C 0.76901 0.21756 0.7519 0.0
C1172 C 0.7739 0.19015 0.75591 0.0
C1173 C 0.75363 0.17365 0.76694 0.0
C1174 C 0.73789 0.25723 0.7561 0.0
C1175 C 0.80038 0.17817 0.74802 0.0
C1176 C 0.80801 0.25978 0.69708 0.0
C1177 C 0.82368 0.27513 0.71609 0.0
C1178 C 0.79093 0.2401 0.70829 0.0
C1179 C 0.78977 0.23542 0.7392 0.0
C1180 C 0.80681 0.24975 0.75823 0.0
C1181 C 0.82337 0.26949 0.74649 0.0
C1182 C 0.77296 0.22543 0.68724 0.0
C1183 C 0.80657 0.24521 0.79122 0.0
H1184 H 0.7052 0.21964 0.77707 0.0
H1185 H 0.75723 0.15258 0.76917 0.0
H1186 H 0.75216 0.26939 0.76888 0.0
H1187 H 0.74006 0.26281 0.73249 0.0
H1188 H 0.71749 0.26234 0.7634 0.0
H1189 H 0.80153 0.15682 0.75386 0.0
H1190 H 0.80399 0.1803 0.72395 0.0
H1191 H 0.81653 0.18887 0.75961 0.0
H1192 H 0.80797 0.2641 0.67361 0.0
H1193 H 0.83555 0.28115 0.76135 0.0
H1194 H 0.75209 0.23135 0.69132 0.0
H1195 H 0.7743 0.20376 0.69105 0.0
H1196 H 0.77786 0.22959 0.66375 0.0
H1197 H 0.78759 0.25247 0.80061 0.0
H1198 H 0.8231 0.25565 0.80251 0.0
H1199 H 0.80797 0.22374 0.79622 0.0
C1200 C 0.15827 0.39772 0.9628 0.0
C1201 C 0.15189 0.37865 0.94141 0.0
C1202 C 0.15663 0.39183 0.9932 0.0
C1203 C 0.14754 0.36655 1.00245 0.0
C1204 C 0.14192 0.34699 0.98096 0.0
C1205 C 0.14467 0.3531 0.95084 0.0
C1206 C 0.16371 0.41298 0.01542 0.0
C1207 C 0.13145 0.32006 0.98966 0.0
C1208 C 0.15701 0.34501 0.0826 0.0
C1209 C 0.13311 0.35324 0.09556 0.0
C1210 C 0.16199 0.34912 0.05233 0.0
C1211 C 0.14234 0.3611 0.03442 0.0
C1212 C 0.11768 0.36828 0.04717 0.0
C1213 C 0.11355 0.36467 0.07765 0.0
C1214 C 0.18877 0.34181 0.03985 0.0
C1215 C 0.09587 0.3804 0.02877 0.0
H1216 H 0.16394 0.41746 0.95581 0.0
H1217 H 0.1395 0.33818 0.93466 0.0
H1218 H 0.14554 0.41981 0.02695 0.0
H1219 H 0.17727 0.40484 0.03246 0.0
H1220 H 0.17332 0.43039 0.00487 0.0
H1221 H 0.12918 0.30663 0.97036 0.0
H1222 H 0.14485 0.31054 0.00591 0.0
H1223 H 0.11183 0.32234 1.00049 0.0
H1224 H 0.17246 0.33676 0.09646 0.0
H1225 H 0.09516 0.3713 0.08764 0.0
H1226 H 0.19902 0.35997 0.03204 0.0
H1227 H 0.18646 0.32856 0.02047 0.0
H1228 H 0.20157 0.3318 0.0564 0.0
H1229 H 0.10219 0.40013 0.02061 0.0
H1230 H 0.07717 0.38284 0.04148 0.0
H1231 H 0.09181 0.36787 0.00913 0.0
C1232 C 0.62177 0.11793 0.93703 0.0
C1233 C 0.63087 0.14114 0.92318 0.0
C1234 C 0.62368 0.11451 0.96775 0.0
C1235 C 0.63464 0.13491 0.98538 0.0
C1236 C 0.64335 0.15865 0.97172 0.0
C1237 C 0.64142 0.16147 0.9408 0.0
C1238 C 0.61403 0.08892 0.98133 0.0
C1239 C 0.65484 0.18102 0.98977 0.0
C1240 C 0.61424 0.13499 0.06625 0.0
C1241 C 0.6363 0.12353 0.08026 0.0
C1242 C 0.61373 0.13925 0.03563 0.0
C1243 C 0.63578 0.13175 0.01823 0.0
C1244 C 0.65828 0.12038 0.03214 0.0
C1245 C 0.65836 0.11656 0.06304 0.0
C1246 C 0.58943 0.15167 0.02189 0.0
C1247 C 0.68211 0.11194 0.0143 0.0
H1248 H 0.61339 0.10214 0.92379 0.0
H1249 H 0.64862 0.17943 0.93041 0.0
H1250 H 0.63024 0.07948 0.99411 0.0
H1251 H 0.59762 0.09304 0.99701 0.0
H1252 H 0.60687 0.07462 0.96446 0.0
H1253 H 0.66073 0.19818 0.97587 0.0
H1254 H 0.64014 0.18783 0.00636 0.0
H1255 H 0.67248 0.17397 1.00209 0.0
H1256 H 0.59729 0.14105 0.07929 0.0
H1257 H 0.67553 0.10785 0.07364 0.0
H1258 H 0.58026 0.13763 0.00605 0.0
H1259 H 0.59508 0.16965 0.00927 0.0
H1260 H 0.57433 0.15728 0.03865 0.0
H1261 H 0.67624 0.09645 0.99817 0.0
H1262 H 0.69827 0.104 0.02841 0.0
H1263 H 0.68988 0.12898 1.00145 0.0
C1264 C 0.85129 0.59514 0.9443 0.0
C1265 C 0.85188 0.61613 0.92397 0.0
C1266 C 0.85316 0.59983 0.97496 0.0
C1267 C 0.85671 0.62606 0.98553 0.0
C1268 C 0.85642 0.64735 0.9652 0.0
C1269 C 0.85331 0.64218 0.9349 0.0
C1270 C 0.8522 0.57663 0.99596 0.0
C1271 C 0.86095 0.67555 0.9752 0.0
C1272 C 0.84561 0.64346 0.06666 0.0
C1273 C 0.87121 0.64096 0.07842 0.0
C1274 C 0.84052 0.63819 0.03667 0.0
C1275 C 0.86171 0.63125 0.01763 0.0
C1276 C 0.88779 0.62957 0.02923 0.0
C1277 C 0.89211 0.63383 0.05963 0.0
C1278 C 0.81231 0.63916 0.02559 0.0
C1279 C 0.91111 0.62313 0.00957 0.0
H1280 H 0.85008 0.57495 0.93622 0.0
H1281 H 0.85377 0.65864 0.91963 0.0
H1282 H 0.87207 0.57344 0.0058 0.0
H1283 H 0.83825 0.58075 0.01439 0.0
H1284 H 0.84599 0.55806 0.98474 0.0
H1285 H 0.85996 0.68991 0.95663 0.0
H1286 H 0.84604 0.68126 0.99204 0.0
H1287 H 0.88075 0.67718 0.98573 0.0
H1288 H 0.82925 0.64826 0.08126 0.0
H1289 H 0.91185 0.63155 0.06875 0.0
H1290 H 0.80676 0.61965 0.01612 0.0
H1291 H 0.81044 0.654 0.00766 0.0
H1292 H 0.79798 0.64423 0.04338 0.0
H1293 H 0.90901 0.60278 1.00063 0.0
H1294 H 0.93028 0.62447 0.02154 0.0
H1295 H 0.91165 0.63688 0.99044 0.0
C1296 C 0.34501 0.88264 0.05947 0.0
C1297 C 0.3665 0.87579 0.07753 0.0
C1298 C 0.34608 0.87856 0.02863 0.0
C1299 C 0.36891 0.86682 0.01573 0.0
C1300 C 0.39019 0.85904 0.03409 0.0
C1301 C 0.38881 0.8638 0.06458 0.0
C1302 C 0.32312 0.88746 0.00973 0.0
C1303 C 0.41471 0.84604 0.0215 0.0
C1304 C 0.36563 0.8387 0.93735 0.0
C1305 C 0.3774 0.85908 0.9208 0.0
C1306 C 0.3627 0.84088 0.96825 0.0
C1307 C 0.37145 0.86411 0.98293 0.0
C1308 C 0.38374 0.8845 0.9664 0.0
C1309 C 0.38682 0.8816 0.93573 0.0
C1310 C 0.35002 0.81844 0.98517 0.0
C1311 C 0.39339 0.90961 0.98105 0.0
H1312 H 0.32769 0.89179 0.06933 0.0
H1313 H 0.40532 0.85786 0.07838 0.0
H1314 H 0.32982 0.90318 0.9943 0.0
H1315 H 0.3158 0.87072 0.9961 0.0
H1316 H 0.30642 0.89529 0.02315 0.0
H1317 H 0.42864 0.83943 0.03901 0.0
H1318 H 0.40913 0.82865 0.00786 0.0
H1319 H 0.42524 0.86016 0.00684 0.0
H1320 H 0.35821 0.82124 0.92612 0.0
H1321 H 0.39625 0.89737 0.92337 0.0
H1322 H 0.3318 0.82555 0.99638 0.0
H1323 H 0.3637 0.81129 1.00262 0.0
H1324 H 0.34472 0.8015 0.97064 0.0
H1325 H 0.37689 0.91917 0.99328 0.0
H1326 H 0.40151 0.92406 0.96488 0.0
H1327 H 0.40907 0.90485 0.99737 0.0
C1328 C 0.11971 0.63727 0.5773 0.0
C1329 C 0.14284 0.62697 0.59024 0.0
C1330 C 0.11807 0.64206 0.5468 0.0
C1331 C 0.1399 0.63592 0.52839 0.0
C1332 C 0.16343 0.62569 0.54126 0.0
C1333 C 0.16475 0.62165 0.57211 0.0
C1334 C 0.09279 0.65351 0.53428 0.0
C1335 C 0.18699 0.61845 0.52235 0.0
C1336 C 0.12366 0.62103 0.44791 0.0
C1337 C 0.13201 0.64417 0.43334 0.0
C1338 C 0.12655 0.618 0.47859 0.0
C1339 C 0.13739 0.6389 0.49558 0.0
C1340 C 0.14493 0.66275 0.48128 0.0
C1341 C 0.14235 0.66503 0.45034 0.0
C1342 C 0.11831 0.59217 0.49277 0.0
C1343 C 0.15595 0.68576 0.49866 0.0
H1344 H 0.10282 0.642 0.59113 0.0
H1345 H 0.1827 0.61381 0.58194 0.0
H1346 H 0.09725 0.67143 0.52098 0.0
H1347 H 0.08333 0.63891 0.5193 0.0
H1348 H 0.07834 0.65892 0.55181 0.0
H1349 H 0.20401 0.61131 0.5357 0.0
H1350 H 0.18129 0.60269 0.50646 0.0
H1351 H 0.19346 0.63584 0.5092 0.0
H1352 H 0.11527 0.60488 0.43525 0.0
H1353 H 0.14888 0.683 0.43944 0.0
H1354 H 0.10221 0.59576 0.50899 0.0
H1355 H 0.13525 0.5835 0.50503 0.0
H1356 H 0.11125 0.57744 0.4763 0.0
H1357 H 0.14171 0.69173 0.51615 0.0
H1358 H 0.16016 0.70322 0.48446 0.0
H1359 H 0.17455 0.67976 0.50987 0.0
C1360 C 0.35866 0.16539 0.56681 0.0
C1361 C 0.37094 0.14467 0.58233 0.0
C1362 C 0.35588 0.16441 0.53583 0.0
C1363 C 0.3652 0.142 0.52004 0.0
C1364 C 0.37795 0.12127 0.53555 0.0
C1365 C 0.381 0.12305 0.5663 0.0
C1366 C 0.34283 0.18726 0.52001 0.0
C1367 C 0.38817 0.09697 0.51969 0.0
C1368 C 0.33983 0.12606 0.44241 0.0
C1369 C 0.36149 0.13376 0.42504 0.0
C1370 C 0.34047 0.129 0.47343 0.0
C1371 C 0.36298 0.1406 0.48715 0.0
C1372 C 0.38435 0.14937 0.46946 0.0
C1373 C 0.38346 0.14558 0.43881 0.0
C1374 C 0.31748 0.11898 0.49161 0.0
C1375 C 0.40846 0.16239 0.48292 0.0
H1376 H 0.35079 0.18219 0.57889 0.0
H1377 H 0.39089 0.10708 0.57783 0.0
H1378 H 0.35646 0.19539 0.50302 0.0
H1379 H 0.32482 0.18025 0.50834 0.0
H1380 H 0.33712 0.20347 0.53536 0.0
H1381 H 0.39632 0.08195 0.53517 0.0
H1382 H 0.37197 0.0877 0.50672 0.0
H1383 H 0.40398 0.10267 0.50388 0.0
H1384 H 0.32277 0.11706 0.43187 0.0
H1385 H 0.40004 0.15221 0.42551 0.0
H1386 H 0.30975 0.13502 0.50599 0.0
H1387 H 0.32431 0.10276 0.50631 0.0
H1388 H 0.30105 0.11142 0.47762 0.0
H1389 H 0.4024 0.17899 0.49751 0.0
H1390 H 0.42231 0.17014 0.46589 0.0
H1391 H 0.41929 0.14787 0.4968 0.0
C1392 C 0.84563 0.33061 0.43739 0.0
C1393 C 0.85599 0.35222 0.42161 0.0
C1394 C 0.84201 0.33189 0.46828 0.0
C1395 C 0.84862 0.35542 0.48376 0.0
C1396 C 0.85923 0.37717 0.46795 0.0
C1397 C 0.86304 0.3752 0.4373 0.0
C1398 C 0.83117 0.30805 0.48439 0.0
C1399 C 0.8666 0.40265 0.48343 0.0
C1400 C 0.82212 0.37047 0.56131 0.0
C1401 C 0.8446 0.36551 0.57859 0.0
C1402 C 0.82278 0.36662 0.53038 0.0
C1403 C 0.84623 0.35697 0.51669 0.0
C1404 C 0.86843 0.3507 0.53441 0.0
C1405 C 0.86739 0.35524 0.56494 0.0
C1406 C 0.79879 0.37383 0.51222 0.0
C1407 C 0.89368 0.33989 0.52105 0.0
H1408 H 0.84002 0.31279 0.42558 0.0
H1409 H 0.87133 0.39196 0.42557 0.0
H1410 H 0.84563 0.30127 0.50123 0.0
H1411 H 0.81271 0.31347 0.49628 0.0
H1412 H 0.82682 0.29131 0.46921 0.0
H1413 H 0.87309 0.41829 0.46772 0.0
H1414 H 0.84944 0.41023 0.49625 0.0
H1415 H 0.88291 0.39893 0.49933 0.0
H1416 H 0.80443 0.37826 0.57179 0.0
H1417 H 0.88461 0.35064 0.57823 0.0
H1418 H 0.79303 0.35702 0.49778 0.0
H1419 H 0.80366 0.39079 0.49758 0.0
H1420 H 0.78156 0.37936 0.52622 0.0
H1421 H 0.88925 0.32259 0.50675 0.0
H1422 H 0.90822 0.33374 0.53816 0.0
H1423 H 0.90303 0.35522 0.50692 0.0
C1424 C 0.62301 0.88079 0.55584 0.0
C1425 C 0.63443 0.86068 0.57309 0.0
C1426 C 0.62645 0.88155 0.52505 0.0
C1427 C 0.64134 0.86145 0.51086 0.0
C1428 C 0.65235 0.84067 0.52796 0.0
C1429 C 0.64884 0.84057 0.55886 0.0
C1430 C 0.61422 0.904 0.50771 0.0
C1431 C 0.66798 0.81863 0.51363 0.0
C1432 C 0.62513 0.85137 0.42979 0.0
C1433 C 0.64574 0.86504 0.41548 0.0
C1434 C 0.62402 0.84937 0.46063 0.0
C1435 C 0.64392 0.86149 0.47794 0.0
C1436 C 0.66527 0.87471 0.46372 0.0
C1437 C 0.66606 0.87613 0.43255 0.0
C1438 C 0.60112 0.83472 0.47468 0.0
C1439 C 0.68679 0.88802 0.48145 0.0
H1440 H 0.61164 0.89632 0.56644 0.0
H1441 H 0.65788 0.825 0.5719 0.0
H1442 H 0.6297 0.91434 0.49464 0.0
H1443 H 0.59947 0.89606 0.49185 0.0
H1444 H 0.60422 0.91871 0.52219 0.0
H1445 H 0.6753 0.80394 0.52998 0.0
H1446 H 0.65546 0.8082 0.49717 0.0
H1447 H 0.68521 0.82697 0.50156 0.0
H1448 H 0.60971 0.84207 0.41679 0.0
H1449 H 0.68208 0.88658 0.42162 0.0
H1450 H 0.58888 0.84872 0.48777 0.0
H1451 H 0.6086 0.81939 0.49013 0.0
H1452 H 0.58818 0.82499 0.45804 0.0
H1453 H 0.67812 0.90433 0.49478 0.0
H1454 H 0.70268 0.89632 0.46719 0.0
H1455 H 0.69576 0.87372 0.49713 0.0
C1456 C 0.18733 0.56377 0.27871 0.0
C1457 C 0.16659 0.57819 0.26598 0.0
C1458 C 0.19028 0.53667 0.27299 0.0
C1459 C 0.17277 0.52424 0.25293 0.0
C1460 C 0.15427 0.53971 0.23684 0.0
C1461 C 0.15094 0.56655 0.24411 0.0
C1462 C 0.20974 0.52099 0.29131 0.0
C1463 C 0.13617 0.52737 0.21414 0.0
C1464 C 0.1823 0.45258 0.23012 0.0
C1465 C 0.16125 0.44049 0.24506 0.0
C1466 C 0.18688 0.47987 0.23287 0.0
C1467 C 0.17076 0.49491 0.2522 0.0
C1468 C 0.15118 0.48209 0.26961 0.0
C1469 C 0.14618 0.45505 0.26522 0.0
C1470 C 0.20736 0.49283 0.2133 0.0
C1471 C 0.13448 0.49722 0.29163 0.0
H1472 H 0.19936 0.573 0.29569 0.0
H1473 H 0.13471 0.57773 0.23456 0.0
H1474 H 0.1989 0.51119 0.30966 0.0
H1475 H 0.21945 0.50525 0.2781 0.0
H1476 H 0.22528 0.5339 0.30106 0.0
H1477 H 0.12687 0.54259 0.19975 0.0
H1478 H 0.14722 0.51312 0.20007 0.0
H1479 H 0.12015 0.51627 0.22551 0.0
H1480 H 0.19391 0.44105 0.21458 0.0
H1481 H 0.12977 0.44555 0.27653 0.0
H1482 H 0.21987 0.50678 0.2261 0.0
H1483 H 0.19714 0.50453 0.19595 0.0
H1484 H 0.22039 0.47805 0.20233 0.0
H1485 H 0.14715 0.51008 0.30564 0.0
H1486 H 0.12292 0.48379 0.30622 0.0
H1487 H 0.12037 0.51024 0.27971 0.0
C1488 C 0.56313 0.18498 0.23503 0.0
C1489 C 0.57407 0.16158 0.24627 0.0
C1490 C 0.53637 0.19116 0.23996 0.0
C1491 C 0.52088 0.17417 0.25786 0.0
C1492 C 0.53306 0.15257 0.27261 0.0
C1493 C 0.55941 0.14607 0.26594 0.0
C1494 C 0.52405 0.21405 0.22346 0.0
C1495 C 0.51759 0.13485 0.29328 0.0
C1496 C 0.451 0.18992 0.28271 0.0
C1497 C 0.43682 0.17044 0.2674 0.0
C1498 C 0.47847 0.19253 0.27894 0.0
C1499 C 0.49151 0.17633 0.25797 0.0
C1500 C 0.47646 0.15928 0.23952 0.0
C1501 C 0.4493 0.15595 0.24508 0.0
C1502 C 0.49371 0.2101 0.2999 0.0
C1503 C 0.48943 0.1428 0.21568 0.0
H1504 H 0.57463 0.19681 0.21966 0.0
H1505 H 0.56792 0.12784 0.27437 0.0
H1506 H 0.50945 0.20633 0.20727 0.0
H1507 H 0.51309 0.2272 0.23878 0.0
H1508 H 0.53907 0.22605 0.21148 0.0
H1509 H 0.5309 0.12248 0.30714 0.0
H1510 H 0.50462 0.14678 0.308 0.0
H1511 H 0.50469 0.12144 0.28023 0.0
H1512 H 0.44108 0.20117 0.29987 0.0
H1513 H 0.43826 0.14074 0.23343 0.0
H1514 H 0.5099 0.22079 0.28848 0.0
H1515 H 0.50303 0.19756 0.31715 0.0
H1516 H 0.48062 0.22478 0.31095 0.0
H1517 H 0.50386 0.15487 0.20295 0.0
H1518 H 0.47462 0.13437 0.20013 0.0
H1519 H 0.50046 0.12615 0.22592 0.0
C1520 C 0.82407 0.54616 0.21162 0.0
C1521 C 0.84496 0.55784 0.22722 0.0
C1522 C 0.81874 0.519 0.21437 0.0
C1523 C 0.83384 0.50366 0.2344 0.0
C1524 C 0.85352 0.51603 0.25205 0.0
C1525 C 0.85936 0.54292 0.24762 0.0
C1526 C 0.79826 0.50646 0.19449 0.0
C1527 C 0.86915 0.50065 0.27478 0.0
C1528 C 0.81219 0.43697 0.26326 0.0
C1529 C 0.83223 0.42073 0.25189 0.0
C1530 C 0.81125 0.46398 0.25639 0.0
C1531 C 0.83003 0.47452 0.23637 0.0
C1532 C 0.84781 0.45727 0.22151 0.0
C1533 C 0.84911 0.4305 0.22996 0.0
C1534 C 0.79247 0.48152 0.27352 0.0
C1535 C 0.86718 0.46755 0.19882 0.0
H1536 H 0.81311 0.55793 0.19574 0.0
H1537 H 0.87566 0.55209 0.25942 0.0
H1538 H 0.80829 0.49295 0.17868 0.0
H1539 H 0.78415 0.49432 0.20752 0.0
H1540 H 0.78691 0.52144 0.18172 0.0
H1541 H 0.8813 0.51381 0.28905 0.0
H1542 H 0.8556 0.48895 0.28906 0.0
H1543 H 0.88258 0.48648 0.26351 0.0
H1544 H 0.79899 0.42913 0.28 0.0
H1545 H 0.86476 0.41793 0.22137 0.0
H1546 H 0.78422 0.4975 0.25948 0.0
H1547 H 0.80349 0.49105 0.29189 0.0
H1548 H 0.77581 0.47001 0.28319 0.0
H1549 H 0.85746 0.48207 0.18393 0.0
H1550 H 0.87567 0.45125 0.18528 0.0
H1551 H 0.88371 0.47787 0.21017 0.0
C1552 C 0.56109 0.84054 0.23153 0.0
C1553 C 0.57239 0.82572 0.25432 0.0
C1554 C 0.5338 0.83883 0.22583 0.0
C1555 C 0.51754 0.82328 0.2447 0.0
C1556 C 0.52944 0.80629 0.26569 0.0
C1557 C 0.557 0.80699 0.26931 0.0
C1558 C 0.52207 0.85574 0.20164 0.0
C1559 C 0.5133 0.79027 0.28737 0.0
C1560 C 0.45267 0.85938 0.25506 0.0
C1561 C 0.4356 0.844 0.23789 0.0
C1562 C 0.47888 0.85128 0.2599 0.0
C1563 C 0.48854 0.82828 0.24542 0.0
C1564 C 0.47084 0.81188 0.2295 0.0
C1565 C 0.44423 0.81959 0.22673 0.0
C1566 C 0.49664 0.86824 0.27899 0.0
C1567 C 0.48038 0.78736 0.21358 0.0
H1568 H 0.57305 0.85506 0.21994 0.0
H1569 H 0.56608 0.79514 0.28648 0.0
H1570 H 0.50589 0.84502 0.19013 0.0
H1571 H 0.51351 0.87402 0.21138 0.0
H1572 H 0.53729 0.86166 0.18516 0.0
H1573 H 0.52423 0.77225 0.29445 0.0
H1574 H 0.50961 0.80256 0.30731 0.0
H1575 H 0.49379 0.78429 0.27841 0.0
H1576 H 0.44587 0.87829 0.26355 0.0
H1577 H 0.43087 0.80791 0.21321 0.0
H1578 H 0.51009 0.88008 0.26478 0.0
H1579 H 0.50913 0.85568 0.29354 0.0
H1580 H 0.48505 0.88213 0.293 0.0
H1581 H 0.4974 0.79233 0.19904 0.0
H1582 H 0.46455 0.77813 0.19998 0.0
H1583 H 0.48746 0.77247 0.22975 0.0
C1584 C 0.88771 0.55333 0.7866 0.0
C1585 C 0.86545 0.56981 0.78433 0.0
C1586 C 0.88824 0.5283 0.77265 0.0
C1587 C 0.86583 0.51943 0.75644 0.0
C1588 C 0.8431 0.5358 0.75485 0.0
C1589 C 0.84328 0.56073 0.76866 0.0
C1590 C 0.91292 0.51155 0.7748 0.0
C1591 C 0.81851 0.52703 0.73853 0.0
C1592 C 0.87147 0.46354 0.69931 0.0
C1593 C 0.863 0.44151 0.71574 0.0
C1594 C 0.87295 0.48896 0.71233 0.0
C1595 C 0.86547 0.49253 0.74235 0.0
C1596 C 0.85664 0.47044 0.75883 0.0
C1597 C 0.8557 0.44537 0.74548 0.0
C1598 C 0.88271 0.51197 0.69404 0.0
C1599 C 0.84807 0.47323 0.79069 0.0
H1600 H 0.90504 0.56037 0.79833 0.0
H1601 H 0.82591 0.57318 0.76721 0.0
H1602 H 0.90819 0.49228 0.78533 0.0
H1603 H 0.92059 0.50721 0.75231 0.0
H1604 H 0.9288 0.52139 0.78778 0.0
H1605 H 0.80253 0.54216 0.73925 0.0
H1606 H 0.82339 0.52286 0.71507 0.0
H1607 H 0.81084 0.50838 0.74829 0.0
H1608 H 0.87743 0.46086 0.67648 0.0
H1609 H 0.84932 0.42866 0.75868 0.0
H1610 H 0.89999 0.52137 0.705 0.0
H1611 H 0.86697 0.52724 0.69236 0.0
H1612 H 0.88859 0.50585 0.67138 0.0
H1613 H 0.86459 0.48128 0.80414 0.0
H1614 H 0.84169 0.45408 0.80048 0.0
H1615 H 0.83138 0.48747 0.79233 0.0
C1616 C 0.56602 0.86578 0.74117 0.0
C1617 C 0.57083 0.87954 0.71469 0.0
C1618 C 0.54071 0.86507 0.75409 0.0
C1619 C 0.51971 0.87957 0.74115 0.0
C1620 C 0.52456 0.89434 0.71501 0.0
C1621 C 0.54988 0.89373 0.70178 0.0
C1622 C 0.53635 0.84829 0.78132 0.0
C1623 C 0.50302 0.91089 0.70108 0.0
C1624 C 0.4488 0.85759 0.75637 0.0
C1625 C 0.44136 0.87378 0.78025 0.0
C1626 C 0.4742 0.85911 0.74376 0.0
C1627 C 0.49248 0.87815 0.75428 0.0
C1628 C 0.48499 0.89505 0.77793 0.0
C1629 C 0.45975 0.8923 0.79102 0.0
C1630 C 0.48154 0.84002 0.71936 0.0
C1631 C 0.5035 0.91627 0.78916 0.0
H1632 H 0.582 0.8552 0.75183 0.0
H1633 H 0.55337 0.90479 0.68163 0.0
H1634 H 0.52967 0.86086 0.79998 0.0
H1635 H 0.52049 0.83354 0.77706 0.0
H1636 H 0.55457 0.83756 0.78817 0.0
H1637 H 0.51056 0.92315 0.6825 0.0
H1638 H 0.48705 0.89785 0.69261 0.0
H1639 H 0.494 0.92416 0.71787 0.0
H1640 H 0.43481 0.84348 0.74749 0.0
H1641 H 0.4542 0.90514 0.80918 0.0
H1642 H 0.49962 0.82882 0.72559 0.0
H1643 H 0.48615 0.85108 0.69882 0.0
H1644 H 0.46543 0.82565 0.71454 0.0
H1645 H 0.52137 0.90704 0.79902 0.0
H1646 H 0.494 0.9291 0.80607 0.0
H1647 H 0.51028 0.92887 0.77052 0.0
C1648 C 0.16141 0.4428 0.78027 0.0
C1649 C 0.14419 0.43605 0.80345 0.0
C1650 C 0.16104 0.46801 0.76723 0.0
C1651 C 0.14237 0.48702 0.77694 0.0
C1652 C 0.12529 0.48069 0.80087 0.0
C1653 C 0.12676 0.45544 0.81422 0.0
C1654 C 0.1804 0.4741 0.74265 0.0
C1655 C 0.10476 0.50019 0.81159 0.0
C1656 C 0.15505 0.55951 0.75829 0.0
C1657 C 0.14042 0.56299 0.73212 0.0
C1658 C 0.15592 0.535 0.77295 0.0
C1659 C 0.14098 0.51344 0.76195 0.0
C1660 C 0.1258 0.51682 0.73581 0.0
C1661 C 0.12607 0.54138 0.72093 0.0
C1662 C 0.17314 0.53214 0.80006 0.0
C1663 C 0.10907 0.49455 0.7237 0.0
H1664 H 0.17516 0.42823 0.77199 0.0
H1665 H 0.11344 0.45059 0.83216 0.0
H1666 H 0.1695 0.47746 0.72171 0.0
H1667 H 0.19148 0.49254 0.74771 0.0
H1668 H 0.19487 0.45781 0.73911 0.0
H1669 H 0.09298 0.49232 0.83041 0.0
H1670 H 0.11442 0.51889 0.8186 0.0
H1671 H 0.09104 0.50517 0.79324 0.0
H1672 H 0.16597 0.57601 0.7675 0.0
H1673 H 0.11449 0.54381 0.70096 0.0
H1674 H 0.18786 0.5161 0.79656 0.0
H1675 H 0.16087 0.52643 0.81938 0.0
H1676 H 0.18392 0.5507 0.8055 0.0
H1677 H 0.12199 0.47794 0.71659 0.0
H1678 H 0.09686 0.5009 0.70454 0.0
H1679 H 0.09573 0.48682 0.7412 0.0
C1680 C 0.4394 0.1426 0.74958 0.0
C1681 C 0.43381 0.12852 0.72351 0.0
C1682 C 0.46493 0.14282 0.76195 0.0
C1683 C 0.4854 0.12776 0.74867 0.0
C1684 C 0.47976 0.11279 0.72288 0.0
C1685 C 0.4542 0.11368 0.71035 0.0
C1686 C 0.47013 0.15969 0.78891 0.0
C1687 C 0.50077 0.09583 0.70849 0.0
C1688 C 0.55693 0.14887 0.76126 0.0
C1689 C 0.56495 0.13242 0.78467 0.0
C1690 C 0.53116 0.1477 0.74967 0.0
C1691 C 0.51295 0.1289 0.76089 0.0
C1692 C 0.52096 0.11181 0.78414 0.0
C1693 C 0.5467 0.11405 0.79605 0.0
C1694 C 0.52337 0.16682 0.72549 0.0
C1695 C 0.50243 0.09096 0.79617 0.0
H1696 H 0.42385 0.15381 0.76032 0.0
H1697 H 0.45012 0.10241 0.69048 0.0
H1698 H 0.47747 0.14719 0.80732 0.0
H1699 H 0.4858 0.17446 0.78392 0.0
H1700 H 0.45212 0.17039 0.7965 0.0
H1701 H 0.49268 0.08361 0.69017 0.0
H1702 H 0.51678 0.10858 0.69956 0.0
H1703 H 0.50989 0.08248 0.72512 0.0
H1704 H 0.57081 0.16288 0.75186 0.0
H1705 H 0.5527 0.10097 0.81383 0.0
H1706 H 0.50572 0.17838 0.73242 0.0
H1707 H 0.51789 0.15575 0.70522 0.0
H1708 H 0.53957 0.18087 0.7199 0.0
H1709 H 0.4848 0.10052 0.80623 0.0
H1710 H 0.51208 0.07829 0.81311 0.0
H1711 H 0.49524 0.07815 0.77792 0.0
C1712 C 0.6884 0.06823 0.76489 0.0
C1713 C 0.66617 0.0814 0.75366 0.0
C1714 C 0.69275 0.04138 0.75861 0.0
C1715 C 0.67502 0.02795 0.7396 0.0
C1716 C 0.65461 0.04226 0.72514 0.0
C1717 C 0.65001 0.06878 0.73293 0.0
C1718 C 0.71438 0.02682 0.77494 0.0
C1719 C 0.63609 0.02894 0.70355 0.0
C1720 C 0.68778 0.95819 0.7121 0.0
C1721 C 0.66826 0.94414 0.72749 0.0
C1722 C 0.6911 0.98548 0.71648 0.0
C1723 C 0.67533 0.99856 0.73783 0.0
C1724 C 0.65768 0.98368 0.75579 0.0
C1725 C 0.65386 0.95665 0.74986 0.0
C1726 C 0.70947 1.00055 0.69619 0.0
C1727 C 0.64143 0.99667 0.77983 0.0
H1728 H 0.70072 0.07813 0.78112 0.0
H1729 H 0.63261 0.07895 0.72461 0.0
H1730 H 0.70529 0.01432 0.7924 0.0
H1731 H 0.72542 0.01344 0.7599 0.0
H1732 H 0.72862 0.04065 0.78555 0.0
H1733 H 0.62462 0.0436 0.69046 0.0
H1734 H 0.64731 0.016 0.68815 0.0
H1735 H 0.62187 0.01626 0.7158 0.0
H1736 H 0.69895 0.94825 0.6949 0.0
H1737 H 0.63859 0.94569 0.76151 0.0
H1738 H 0.72053 0.01612 0.70828 0.0
H1739 H 0.6975 0.01055 0.6789 0.0
H1740 H 0.72388 0.98721 0.68507 0.0
H1741 H 0.654 0.01002 0.79338 0.0
H1742 H 0.63196 0.98185 0.79461 0.0
H1743 H 0.62559 0.00892 0.76972 0.0
C1744 C 0.95083 0.6813 0.79203 0.0
C1745 C 0.93484 0.66563 0.77381 0.0
C1746 C 0.97822 0.68288 0.78755 0.0
C1747 C 0.98963 0.66934 0.76335 0.0
C1748 C 0.97305 0.65593 0.74287 0.0
C1749 C 0.94572 0.65389 0.7486 0.0
C1750 C 0.99501 0.69678 0.81041 0.0
C1751 C 0.98442 0.64213 0.7161 0.0
C1752 C 0.06171 0.6805 0.74246 0.0
C1753 C 0.07297 0.65652 0.75159 0.0
C1754 C 0.03455 0.68537 0.74658 0.0
C1755 C 0.01887 0.66631 0.76147 0.0
C1756 C 0.03091 0.64327 0.77329 0.0
C1757 C 0.05773 0.63834 0.76752 0.0
C1758 C 0.02232 0.70984 0.73311 0.0
C1759 C 0.01513 0.62301 0.79046 0.0
H1760 H 0.9421 0.69124 0.81079 0.0
H1761 H 0.93326 0.64183 0.73445 0.0
H1762 H 0.00487 0.6817 0.82446 0.0
H1763 H 0.0108 0.70878 0.79989 0.0
H1764 H 0.98298 0.70984 0.82494 0.0
H1765 H 0.96876 0.63659 0.69999 0.0
H1766 H 0.99915 0.65499 0.70489 0.0
H1767 H 0.99483 0.62382 0.72311 0.0
H1768 H 0.07354 0.69421 0.72953 0.0
H1769 H 0.06652 0.61965 0.77417 0.0
H1770 H 0.0128 0.72204 0.7505 0.0
H1771 H 0.00656 0.70404 0.71727 0.0
H1772 H 0.03714 0.72222 0.7213 0.0
H1773 H 0.00284 0.63287 0.80759 0.0
H1774 H 0.02809 0.60816 0.80138 0.0
H1775 H 0.0015 0.6124 0.7753 0.0
C1776 C 0.31467 0.05318 0.72526 0.0
C1777 C 0.33496 0.06662 0.74005 0.0
C1778 C 0.31123 0.02584 0.72899 0.0
C1779 C 0.32766 0.01217 0.74918 0.0
C1780 C 0.34581 0.0265 0.76703 0.0
C1781 C 0.34975 0.05358 0.76166 0.0
C1782 C 0.29229 0.01133 0.70887 0.0
C1783 C 0.36274 0.01281 0.78992 0.0
C1784 C 0.31717 0.94082 0.77173 0.0
C1785 C 0.33937 0.92897 0.75871 0.0
C1786 C 0.312 0.96786 0.76765 0.0
C1787 C 0.32878 0.9828 0.74896 0.0
C1788 C 0.34915 0.96994 0.73277 0.0
C1789 C 0.35466 0.9432 0.73846 0.0
C1790 C 0.29055 0.98089 0.78583 0.0
C1791 C 0.36665 0.98495 0.71146 0.0
H1792 H 0.30325 0.06355 0.70861 0.0
H1793 H 0.36558 0.06408 0.77287 0.0
H1794 H 0.30378 0.0015 0.69105 0.0
H1795 H 0.28135 0.99565 0.7209 0.0
H1796 H 0.27777 0.02501 0.69849 0.0
H1797 H 0.37212 0.02719 0.80529 0.0
H1798 H 0.35075 0.99856 0.80298 0.0
H1799 H 0.3787 0.00145 0.77875 0.0
H1800 H 0.30551 0.9296 0.78751 0.0
H1801 H 0.372 0.93396 0.7287 0.0
H1802 H 0.27835 0.99434 0.77206 0.0
H1803 H 0.29987 0.99317 0.80333 0.0
H1804 H 0.27732 0.96614 0.79654 0.0
H1805 H 0.35463 0.99835 0.69737 0.0
H1806 H 0.37815 0.97138 0.69698 0.0
H1807 H 0.38086 0.99738 0.72402 0.0
C1808 C 0.06189 0.334 0.76195 0.0
C1809 C 0.0674 0.35103 0.78566 0.0
C1810 C 0.03585 0.33122 0.75123 0.0
C1811 C 0.01502 0.34581 0.76457 0.0
C1812 C 0.02041 0.36243 0.78895 0.0
C1813 C 0.04643 0.36494 0.79902 0.0
C1814 C 0.03075 0.31341 0.72506 0.0
C1815 C 0.99887 0.37856 0.80369 0.0
C1816 C 0.95698 0.3705 0.72017 0.0
C1817 C 0.93615 0.35422 0.72996 0.0
C1818 C 0.9829 0.36691 0.7301 0.0
C1819 C 0.9883 0.34681 0.75094 0.0
C1820 C 0.96757 0.33004 0.76087 0.0
C1821 C 0.94164 0.3339 0.75019 0.0
C1822 C 0.00433 0.38535 0.71897 0.0
C1823 C 0.9727 0.30853 0.78328 0.0
H1824 H 0.07789 0.32303 0.75163 0.0
H1825 H 0.05028 0.3782 0.81735 0.0
H1826 H 0.01384 0.29997 0.7297 0.0
H1827 H 0.02526 0.3256 0.7056 0.0
H1828 H 0.04837 0.30129 0.71923 0.0
H1829 H 0.00591 0.38851 0.82414 0.0
H1830 H 0.99165 0.39398 0.78819 0.0
H1831 H 0.98174 0.36577 0.8094 0.0
H1832 H 0.95314 0.38637 0.70464 0.0
H1833 H 0.92574 0.32114 0.75773 0.0
H1834 H 0.02155 0.37382 0.71075 0.0
H1835 H 0.01145 0.39801 0.73738 0.0
H1836 H 0.99725 0.39843 0.70088 0.0
H1837 H 0.9896 0.29601 0.77611 0.0
H1838 H 0.95509 0.29569 0.78676 0.0
H1839 H 0.97825 0.31759 0.80475 0.0
C1840 C 0.35964 0.06668 0.25775 0.0
C1841 C 0.37464 0.07169 0.28332 0.0
C1842 C 0.3593 0.04156 0.24438 0.0
C1843 C 0.37535 0.02103 0.25591 0.0
C1844 C 0.39116 0.02607 0.28122 0.0
C1845 C 0.39022 0.05114 0.29495 0.0
C1846 C 0.34142 0.03692 0.21812 0.0
C1847 C 0.40928 0.00505 0.29364 0.0
C1848 C 0.3572 0.94916 0.24003 0.0
C1849 C 0.37306 0.94314 0.21537 0.0
C1850 C 0.35743 0.97445 0.25299 0.0
C1851 C 0.37484 0.9941 0.24199 0.0
C1852 C 0.39123 0.98813 0.21737 0.0
C1853 C 0.38972 0.96295 0.20397 0.0
C1854 C 0.33889 0.98013 0.27845 0.0
C1855 C 0.41074 0.00817 0.20554 0.0
H1856 H 0.34788 0.08237 0.24813 0.0
H1857 H 0.40218 0.05479 0.31441 0.0
H1858 H 0.3534 0.03145 0.19849 0.0
H1859 H 0.32782 0.02014 0.22273 0.0
H1860 H 0.32937 0.05466 0.21257 0.0
H1861 H 0.4218 0.01269 0.31194 0.0
H1862 H 0.3974 0.98818 0.30206 0.0
H1863 H 0.42239 0.99725 0.27595 0.0
H1864 H 0.34448 0.93407 0.24936 0.0
H1865 H 0.40221 0.95857 0.18512 0.0
H1866 H 0.32654 0.99775 0.27337 0.0
H1867 H 0.35045 0.98476 0.29863 0.0
H1868 H 0.32555 0.96317 0.28335 0.0
H1869 H 0.40002 0.02571 0.19691 0.0
H1870 H 0.42327 0.99992 0.18755 0.0
H1871 H 0.42384 0.01518 0.22363 0.0
C1872 C 0.94587 0.39079 0.29981 0.0
C1873 C 0.93035 0.36898 0.29135 0.0
C1874 C 0.97205 0.39382 0.28924 0.0
C1875 C 0.98323 0.37421 0.27049 0.0
C1876 C 0.96789 0.35183 0.2627 0.0
C1877 C 0.94168 0.34975 0.27279 0.0
C1878 C 0.98751 0.41832 0.29749 0.0
C1879 C 0.97909 0.33003 0.24349 0.0
C1880 C 0.04181 0.38638 0.21869 0.0
C1881 C 0.063 0.37575 0.23491 0.0
C1882 C 0.01599 0.38728 0.2306 0.0
C1883 C 0.01101 0.37662 0.25908 0.0
C1884 C 0.03236 0.36614 0.27564 0.0
C1885 C 0.05804 0.36626 0.26361 0.0
C1886 C 0.99394 0.39927 0.21248 0.0
C1887 C 0.02797 0.35392 0.30572 0.0
H1888 H 0.93728 0.40594 0.31381 0.0
H1889 H 0.93002 0.33293 0.26588 0.0
H1890 H 0.00607 0.41272 0.30902 0.0
H1891 H 0.99327 0.42923 0.27718 0.0
H1892 H 0.97598 0.43184 0.31201 0.0
H1893 H 0.96501 0.31329 0.24067 0.0
H1894 H 0.98408 0.33799 0.22133 0.0
H1895 H 0.99768 0.32227 0.25331 0.0
H1896 H 0.04539 0.39419 0.19673 0.0
H1897 H 0.0742 0.35843 0.27668 0.0
H1898 H 0.98267 0.41382 0.22591 0.0
H1899 H 0.97986 0.38355 0.20564 0.0
H1900 H 0.00148 0.40933 0.19231 0.0
H1901 H 0.01799 0.36825 0.32062 0.0
H1902 H 0.04679 0.34745 0.31622 0.0
H1903 H 0.01473 0.33646 0.30363 0.0
C1904 C 0.6417 0.93412 0.2522 0.0
C1905 C 0.62682 0.92689 0.27722 0.0
C1906 C 0.64029 0.95971 0.24016 0.0
C1907 C 0.62279 0.97855 0.25264 0.0
C1908 C 0.60703 0.97124 0.27733 0.0
C1909 C 0.60953 0.94567 0.28961 0.0
C1910 C 0.65805 0.96673 0.21443 0.0
C1911 C 0.58755 0.99046 0.2908 0.0
C1912 C 0.63993 0.05131 0.24203 0.0
C1913 C 0.62482 0.05836 0.21713 0.0
C1914 C 0.63937 0.02556 0.25369 0.0
C1915 C 0.62247 0.00632 0.24099 0.0
C1916 C 0.60647 0.0134 0.21644 0.0
C1917 C 0.60812 0.0392 0.20451 0.0
C1918 C 0.65734 0.01885 0.27933 0.0
C1919 C 0.58757 0.99372 0.20281 0.0
H1920 H 0.65481 0.91982 0.24203 0.0
H1921 H 0.5976 0.94026 0.30861 0.0
H1922 H 0.64597 0.97335 0.19534 0.0
H1923 H 0.67121 0.98346 0.22064 0.0
H1924 H 0.67059 0.94981 0.20727 0.0
H1925 H 0.57499 0.98102 0.30802 0.0
H1926 H 0.59837 0.00727 0.30098 0.0
H1927 H 0.5745 0.9988 0.27339 0.0
H1928 H 0.65252 0.0659 0.25251 0.0
H1929 H 0.59601 0.04446 0.18563 0.0
H1930 H 0.67075 0.00234 0.27309 0.0
H1931 H 0.64542 0.01208 0.29849 0.0
H1932 H 0.66962 0.03599 0.28641 0.0
H1933 H 0.59885 0.97714 0.19277 0.0
H1934 H 0.57495 0.00285 0.18546 0.0
H1935 H 0.57457 0.98512 0.22012 0.0
C1936 C 0.05066 0.61271 0.30047 0.0
C1937 C 0.0676 0.63405 0.29414 0.0
C1938 C 0.02587 0.61019 0.28632 0.0
C1939 C 0.01736 0.62993 0.26611 0.0
C1940 C 0.03402 0.6519 0.26041 0.0
C1941 C 0.05898 0.65343 0.27403 0.0
C1942 C 0.00905 0.58608 0.29246 0.0
C1943 C 0.02551 0.67389 0.23986 0.0
C1944 C 0.96329 0.61729 0.20849 0.0
C1945 C 0.94071 0.62749 0.22266 0.0
C1946 C 0.98817 0.61711 0.22271 0.0
C1947 C 0.9908 0.62815 0.25143 0.0
C1948 C 0.96813 0.63862 0.26569 0.0
C1949 C 0.94343 0.63766 0.25145 0.0
C1950 C 0.01166 0.60503 0.20705 0.0
C1951 C 0.97001 0.6513 0.29586 0.0
H1952 H 0.05713 0.59748 0.31569 0.0
H1953 H 0.07181 0.66991 0.26874 0.0
H1954 H 0.9898 0.59214 0.30217 0.0
H1955 H 0.00468 0.57559 0.27146 0.0
H1956 H 0.01888 0.57203 0.30785 0.0
H1957 H 0.04028 0.69019 0.23877 0.0
H1958 H 0.02256 0.66596 0.21724 0.0
H1959 H 0.00626 0.68223 0.24727 0.0
H1960 H 0.96145 0.60901 0.18648 0.0
H1961 H 0.9262 0.64516 0.263 0.0
H1962 H 0.02126 0.59005 0.22145 0.0
H1963 H 0.02663 0.62055 0.20233 0.0
H1964 H 0.00599 0.59542 0.18588 0.0
H1965 H 0.97757 0.63678 0.3122 0.0
H1966 H 0.9506 0.65892 0.30376 0.0
H1967 H 0.9843 0.66801 0.2952 0.0
loop_
_geom_bond_atom_site_label_1
_geom_bond_atom_site_label_2
_geom_bond_distance
_geom_bond_site_symmetry_2
_ccdc_geom_bond_type
Co0 O2 2.143 . S
Co0 O8 2.074 . S
Co0 O11 2.093 . S
Co0 O24 2.097 . S
Co0 N41 2.151 . S
Co0 N49 2.214 . S
Co1 O2 2.160 . S
Co1 O7 2.058 . S
Co1 O17 2.057 . S
Co1 O32 2.037 . S
Co1 N36 2.145 . S
Co1 N57 2.257 . S
O2 Co0 2.143 . S
O2 Co1 2.160 . S
C3 O4 1.278 . S
C3 O11 1.224 . S
O4 C3 1.278 . S
C5 O6 1.245 . S
C5 O17 1.232 . S
O6 C5 1.245 . S
O7 Co1 2.058 . S
O7 C33 1.269 . S
O8 Co0 2.074 . S
O8 C33 1.257 . S
H9 C34 0.930 . S
H10 C40 0.930 . S
O11 Co0 2.093 . S
O11 C3 1.224 . S
H12 C44 0.929 . S
H13 C46 0.930 . S
H14 C47 0.930 . S
H15 C45 0.929 . S
H16 C48 0.928 . S
O17 Co1 2.057 . S
O17 C5 1.232 . S
H18 C37 0.929 . S
H19 C38 0.929 . S
H20 C50 0.931 . S
H21 C42 0.929 . S
H22 C51 0.930 . S
H23 C43 0.931 . S
O24 Co0 2.097 . S
O24 C52 1.214 . S
H25 C53 0.929 . S
H26 C54 0.929 . S
H27 C55 0.930 . S
H28 C56 0.929 . S
H29 C58 0.930 . S
H30 C35 0.930 . S
H31 C39 0.930 . S
O32 Co1 2.037 . S
O32 C52 1.234 . S
C33 O7 1.269 . S
C33 O8 1.257 . S
C34 H9 0.930 . S
C34 C37 1.388 . S
C34 C39 1.418 . S
C35 H30 0.930 . S
C35 C38 1.404 . S
C35 C39 1.353 . S
N36 Co1 2.145 . S
N36 C37 1.397 . S
N36 C38 1.334 . S
C37 H18 0.929 . S
C37 C34 1.388 . S
C37 N36 1.397 . S
C38 H19 0.929 . S
C38 C35 1.404 . S
C38 N36 1.334 . S
C39 H31 0.930 . S
C39 C34 1.418 . S
C39 C35 1.353 . S
C40 H10 0.930 . S
C40 N41 1.330 . S
C40 C42 1.446 . S
N41 Co0 2.151 . S
N41 C40 1.330 . S
N41 C45 1.418 . S
C42 H21 0.929 . S
C42 C40 1.446 . S
C42 C43 1.332 . S
C43 H23 0.931 . S
C43 C42 1.332 . S
C43 C44 1.267 . S
C44 H12 0.929 . S
C44 C43 1.267 . S
C44 C45 1.251 . S
C45 H15 0.929 . S
C45 N41 1.418 . S
C45 C44 1.251 . S
C46 H13 0.930 . S
C46 C48 1.406 . S
C46 C51 1.261 . S
C47 H14 0.930 . S
C47 N49 1.325 . S
C47 C50 1.357 . S
C48 H16 0.928 . S
C48 C46 1.406 . S
C48 N49 1.261 . S
N49 Co0 2.214 . S
N49 C47 1.325 . S
N49 C48 1.261 . S
C50 H20 0.931 . S
C50 C47 1.357 . S
C50 C51 1.312 . S
C51 H22 0.930 . S
C51 C46 1.261 . S
C51 C50 1.312 . S
C52 O24 1.214 . S
C52 O32 1.234 . S
C53 H25 0.929 . S
C53 C56 1.391 . S
C53 C58 1.391 . S
C54 H26 0.929 . S
C54 C55 1.390 . S
C54 N57 1.391 . S
C55 H27 0.930 . S
C55 C54 1.390 . S
C55 C56 1.392 . S
C56 H28 0.929 . S
C56 C53 1.391 . S
C56 C55 1.392 . S
N57 Co1 2.257 . S
N57 C54 1.391 . S
N57 C58 1.388 . S
C58 H29 0.930 . S
C58 C53 1.391 . S
C58 N57 1.388 . S
Co59 O61 2.143 . S
Co59 O67 2.074 . S
Co59 O70 2.093 . S
Co59 O83 2.097 . S
Co59 N100 2.151 . S
Co59 N108 2.214 . S
Co60 O61 2.160 . S
Co60 O66 2.058 . S
Co60 O76 2.057 . S
Co60 O91 2.037 . S
Co60 N95 2.145 . S
Co60 N116 2.257 . S
O61 Co59 2.143 . S
O61 Co60 2.160 . S
C62 O63 1.278 . S
C62 O70 1.224 . S
O63 C62 1.278 . S
C64 O65 1.245 . S
C64 O76 1.232 . S
O65 C64 1.245 . S
O66 Co60 2.058 . S
O66 C92 1.269 . S
O67 Co59 2.074 . S
O67 C92 1.257 . S
H68 C93 0.930 . S
H69 C99 0.930 . S
O70 Co59 2.093 . S
O70 C62 1.224 . S
H71 C103 0.929 . S
H72 C105 0.930 . S
H73 C106 0.930 . S
H74 C104 0.929 . S
H75 C107 0.928 . S
O76 Co60 2.057 . S
O76 C64 1.232 . S
H77 C96 0.929 . S
H78 C97 0.929 . S
H79 C109 0.931 . S
H80 C101 0.929 . S
H81 C110 0.930 . S
H82 C102 0.931 . S
O83 Co59 2.097 . S
O83 C111 1.214 . S
H84 C112 0.929 . S
H85 C113 0.929 . S
H86 C114 0.930 . S
H87 C115 0.929 . S
H88 C117 0.930 . S
H89 C94 0.930 . S
H90 C98 0.930 . S
O91 Co60 2.037 . S
O91 C111 1.234 . S
C92 O66 1.269 . S
C92 O67 1.257 . S
C93 H68 0.930 . S
C93 C96 1.388 . S
C93 C98 1.418 . S
C94 H89 0.930 . S
C94 C97 1.404 . S
C94 C98 1.353 . S
N95 Co60 2.145 . S
N95 C96 1.397 . S
N95 C97 1.334 . S
C96 H77 0.929 . S
C96 C93 1.388 . S
C96 N95 1.397 . S
C97 H78 0.929 . S
C97 C94 1.404 . S
C97 N95 1.334 . S
C98 H90 0.930 . S
C98 C93 1.418 . S
C98 C94 1.353 . S
C99 H69 0.930 . S
C99 N100 1.330 . S
C99 C101 1.446 . S
N100 Co59 2.151 . S
N100 C99 1.330 . S
N100 C104 1.418 . S
C101 H80 0.929 . S
C101 C99 1.446 . S
C101 C102 1.332 . S
C102 H82 0.931 . S
C102 C101 1.332 . S
C102 C103 1.267 . S
C103 H71 0.929 . S
C103 C102 1.267 . S
C103 C104 1.251 . S
C104 H74 0.929 . S
C104 N100 1.418 . S
C104 C103 1.251 . S
C105 H72 0.930 . S
C105 C107 1.406 . S
C105 C110 1.261 . S
C106 H73 0.930 . S
C106 N108 1.325 . S
C106 C109 1.357 . S
C107 H75 0.928 . S
C107 C105 1.406 . S
C107 N108 1.261 . S
N108 Co59 2.214 . S
N108 C106 1.325 . S
N108 C107 1.261 . S
C109 H79 0.931 . S
C109 C106 1.357 . S
C109 C110 1.312 . S
C110 H81 0.930 . S
C110 C105 1.261 . S
C110 C109 1.312 . S
C111 O83 1.214 . S
C111 O91 1.234 . S
C112 H84 0.929 . S
C112 C115 1.391 . S
C112 C117 1.391 . S
C113 H85 0.929 . S
C113 C114 1.390 . S
C113 N116 1.391 . S
C114 H86 0.930 . S
C114 C113 1.390 . S
C114 C115 1.392 . S
C115 H87 0.929 . S
C115 C112 1.391 . S
C115 C114 1.392 . S
N116 Co60 2.257 . S
N116 C113 1.391 . S
N116 C117 1.388 . S
C117 H88 0.930 . S
C117 C112 1.391 . S
C117 N116 1.388 . S
Co118 O120 2.143 . S
Co118 O126 2.074 . S
Co118 O129 2.093 . S
Co118 O142 2.097 . S
Co118 N159 2.151 . S
Co118 N167 2.214 . S
Co119 O120 2.160 . S
Co119 O125 2.058 . S
Co119 O135 2.057 . S
Co119 O150 2.037 . S
Co119 N154 2.145 . S
Co119 N175 2.257 . S
O120 Co118 2.143 . S
O120 Co119 2.160 . S
C121 O122 1.278 . S
C121 O129 1.224 . S
O122 C121 1.278 . S
C123 O124 1.245 . S
C123 O135 1.232 . S
O124 C123 1.245 . S
O125 Co119 2.058 . S
O125 C151 1.269 . S
O126 Co118 2.074 . S
O126 C151 1.257 . S
H127 C152 0.930 . S
H128 C158 0.930 . S
O129 Co118 2.093 . S
O129 C121 1.224 . S
H130 C162 0.929 . S
H131 C164 0.930 . S
H132 C165 0.930 . S
H133 C163 0.929 . S
H134 C166 0.928 . S
O135 Co119 2.057 . S
O135 C123 1.232 . S
H136 C155 0.929 . S
H137 C156 0.929 . S
H138 C168 0.931 . S
H139 C160 0.929 . S
H140 C169 0.930 . S
H141 C161 0.931 . S
O142 Co118 2.097 . S
O142 C170 1.214 . S
H143 C171 0.929 . S
H144 C172 0.929 . S
H145 C173 0.930 . S
H146 C174 0.929 . S
H147 C176 0.930 . S
H148 C153 0.930 . S
H149 C157 0.930 . S
O150 Co119 2.037 . S
O150 C170 1.234 . S
C151 O125 1.269 . S
C151 O126 1.257 . S
C152 H127 0.930 . S
C152 C155 1.388 . S
C152 C157 1.418 . S
C153 H148 0.930 . S
C153 C156 1.404 . S
C153 C157 1.353 . S
N154 Co119 2.145 . S
N154 C155 1.397 . S
N154 C156 1.334 . S
C155 H136 0.929 . S
C155 C152 1.388 . S
C155 N154 1.397 . S
C156 H137 0.929 . S
C156 C153 1.404 . S
C156 N154 1.334 . S
C157 H149 0.930 . S
C157 C152 1.418 . S
C157 C153 1.353 . S
C158 H128 0.930 . S
C158 N159 1.330 . S
C158 C160 1.446 . S
N159 Co118 2.151 . S
N159 C158 1.330 . S
N159 C163 1.418 . S
C160 H139 0.929 . S
C160 C158 1.446 . S
C160 C161 1.332 . S
C161 H141 0.931 . S
C161 C160 1.332 . S
C161 C162 1.267 . S
C162 H130 0.929 . S
C162 C161 1.267 . S
C162 C163 1.251 . S
C163 H133 0.929 . S
C163 N159 1.418 . S
C163 C162 1.251 . S
C164 H131 0.930 . S
C164 C166 1.406 . S
C164 C169 1.261 . S
C165 H132 0.930 . S
C165 N167 1.325 . S
C165 C168 1.357 . S
C166 H134 0.928 . S
C166 C164 1.406 . S
C166 N167 1.261 . S
N167 Co118 2.214 . S
N167 C165 1.325 . S
N167 C166 1.261 . S
C168 H138 0.931 . S
C168 C165 1.357 . S
C168 C169 1.312 . S
C169 H140 0.930 . S
C169 C164 1.261 . S
C169 C168 1.312 . S
C170 O142 1.214 . S
C170 O150 1.234 . S
C171 H143 0.929 . S
C171 C174 1.391 . S
C171 C176 1.391 . S
C172 H144 0.929 . S
C172 C173 1.390 . S
C172 N175 1.391 . S
C173 H145 0.930 . S
C173 C172 1.390 . S
C173 C174 1.392 . S
C174 H146 0.929 . S
C174 C171 1.391 . S
C174 C173 1.392 . S
N175 Co119 2.257 . S
N175 C172 1.391 . S
N175 C176 1.388 . S
C176 H147 0.930 . S
C176 C171 1.391 . S
C176 N175 1.388 . S
Co177 O179 2.143 . S
Co177 O185 2.074 . S
Co177 O188 2.093 . S
Co177 O201 2.097 . S
Co177 N218 2.151 . S
Co177 N226 2.214 . S
Co178 O179 2.160 . S
Co178 O184 2.058 . S
Co178 O194 2.057 . S
Co178 O209 2.037 . S
Co178 N213 2.145 . S
Co178 N234 2.257 . S
O179 Co177 2.143 . S
O179 Co178 2.160 . S
C180 O181 1.278 . S
C180 O188 1.224 . S
O181 C180 1.278 . S
C182 O183 1.245 . S
C182 O194 1.232 . S
O183 C182 1.245 . S
O184 Co178 2.058 . S
O184 C210 1.269 . S
O185 Co177 2.074 . S
O185 C210 1.257 . S
H186 C211 0.930 . S
H187 C217 0.930 . S
O188 Co177 2.093 . S
O188 C180 1.224 . S
H189 C221 0.929 . S
H190 C223 0.930 . S
H191 C224 0.930 . S
H192 C222 0.929 . S
H193 C225 0.928 . S
O194 Co178 2.057 . S
O194 C182 1.232 . S
H195 C214 0.929 . S
H196 C215 0.929 . S
H197 C227 0.931 . S
H198 C219 0.929 . S
H199 C228 0.930 . S
H200 C220 0.931 . S
O201 Co177 2.097 . S
O201 C229 1.214 . S
H202 C230 0.929 . S
H203 C231 0.929 . S
H204 C232 0.930 . S
H205 C233 0.929 . S
H206 C235 0.930 . S
H207 C212 0.930 . S
H208 C216 0.930 . S
O209 Co178 2.037 . S
O209 C229 1.234 . S
C210 O184 1.269 . S
C210 O185 1.257 . S
C211 H186 0.930 . S
C211 C214 1.388 . S
C211 C216 1.418 . S
C212 H207 0.930 . S
C212 C215 1.404 . S
C212 C216 1.353 . S
N213 Co178 2.145 . S
N213 C214 1.397 . S
N213 C215 1.334 . S
C214 H195 0.929 . S
C214 C211 1.388 . S
C214 N213 1.397 . S
C215 H196 0.929 . S
C215 C212 1.404 . S
C215 N213 1.334 . S
C216 H208 0.930 . S
C216 C211 1.418 . S
C216 C212 1.353 . S
C217 H187 0.930 . S
C217 N218 1.330 . S
C217 C219 1.446 . S
N218 Co177 2.151 . S
N218 C217 1.330 . S
N218 C222 1.418 . S
C219 H198 0.929 . S
C219 C217 1.446 . S
C219 C220 1.332 . S
C220 H200 0.931 . S
C220 C219 1.332 . S
C220 C221 1.267 . S
C221 H189 0.929 . S
C221 C220 1.267 . S
C221 C222 1.251 . S
C222 H192 0.929 . S
C222 N218 1.418 . S
C222 C221 1.251 . S
C223 H190 0.930 . S
C223 C225 1.406 . S
C223 C228 1.261 . S
C224 H191 0.930 . S
C224 N226 1.325 . S
C224 C227 1.357 . S
C225 H193 0.928 . S
C225 C223 1.406 . S
C225 N226 1.261 . S
N226 Co177 2.214 . S
N226 C224 1.325 . S
N226 C225 1.261 . S
C227 H197 0.931 . S
C227 C224 1.357 . S
C227 C228 1.312 . S
C228 H199 0.930 . S
C228 C223 1.261 . S
C228 C227 1.312 . S
C229 O201 1.214 . S
C229 O209 1.234 . S
C230 H202 0.929 . S
C230 C233 1.391 . S
C230 C235 1.391 . S
C231 H203 0.929 . S
C231 C232 1.390 . S
C231 N234 1.391 . S
C232 H204 0.930 . S
C232 C231 1.390 . S
C232 C233 1.392 . S
C233 H205 0.929 . S
C233 C230 1.391 . S
C233 C232 1.392 . S
N234 Co178 2.257 . S
N234 C231 1.391 . S
N234 C235 1.388 . S
C235 H206 0.930 . S
C235 C230 1.391 . S
C235 N234 1.388 . S
Co236 O238 2.143 . S
Co236 O244 2.074 . S
Co236 O247 2.093 . S
Co236 O260 2.097 . S
Co236 N277 2.151 . S
Co236 N285 2.214 . S
Co237 O238 2.160 . S
Co237 O243 2.058 . S
Co237 O253 2.057 . S
Co237 O268 2.037 . S
Co237 N272 2.145 . S
Co237 N293 2.257 . S
O238 Co236 2.143 . S
O238 Co237 2.160 . S
C239 O240 1.278 . S
C239 O247 1.224 . S
O240 C239 1.278 . S
C241 O242 1.245 . S
C241 O253 1.232 . S
O242 C241 1.245 . S
O243 Co237 2.058 . S
O243 C269 1.269 . S
O244 Co236 2.074 . S
O244 C269 1.257 . S
H245 C270 0.930 . S
H246 C276 0.930 . S
O247 Co236 2.093 . S
O247 C239 1.224 . S
H248 C280 0.929 . S
H249 C282 0.930 . S
H250 C283 0.930 . S
H251 C281 0.929 . S
H252 C284 0.928 . S
O253 Co237 2.057 . S
O253 C241 1.232 . S
H254 C273 0.929 . S
H255 C274 0.929 . S
H256 C286 0.931 . S
H257 C278 0.929 . S
H258 C287 0.930 . S
H259 C279 0.931 . S
O260 Co236 2.097 . S
O260 C288 1.214 . S
H261 C289 0.929 . S
H262 C290 0.929 . S
H263 C291 0.930 . S
H264 C292 0.929 . S
H265 C294 0.930 . S
H266 C271 0.930 . S
H267 C275 0.930 . S
O268 Co237 2.037 . S
O268 C288 1.234 . S
C269 O243 1.269 . S
C269 O244 1.257 . S
C270 H245 0.930 . S
C270 C273 1.388 . S
C270 C275 1.418 . S
C271 H266 0.930 . S
C271 C274 1.404 . S
C271 C275 1.353 . S
N272 Co237 2.145 . S
N272 C273 1.397 . S
N272 C274 1.334 . S
C273 H254 0.929 . S
C273 C270 1.388 . S
C273 N272 1.397 . S
C274 H255 0.929 . S
C274 C271 1.404 . S
C274 N272 1.334 . S
C275 H267 0.930 . S
C275 C270 1.418 . S
C275 C271 1.353 . S
C276 H246 0.930 . S
C276 N277 1.330 . S
C276 C278 1.446 . S
N277 Co236 2.151 . S
N277 C276 1.330 . S
N277 C281 1.418 . S
C278 H257 0.929 . S
C278 C276 1.446 . S
C278 C279 1.332 . S
C279 H259 0.931 . S
C279 C278 1.332 . S
C279 C280 1.267 . S
C280 H248 0.929 . S
C280 C279 1.267 . S
C280 C281 1.251 . S
C281 H251 0.929 . S
C281 N277 1.418 . S
C281 C280 1.251 . S
C282 H249 0.930 . S
C282 C284 1.406 . S
C282 C287 1.261 . S
C283 H250 0.930 . S
C283 N285 1.325 . S
C283 C286 1.357 . S
C284 H252 0.928 . S
C284 C282 1.406 . S
C284 N285 1.261 . S
N285 Co236 2.214 . S
N285 C283 1.325 . S
N285 C284 1.261 . S
C286 H256 0.931 . S
C286 C283 1.357 . S
C286 C287 1.312 . S
C287 H258 0.930 . S
C287 C282 1.261 . S
C287 C286 1.312 . S
C288 O260 1.214 . S
C288 O268 1.234 . S
C289 H261 0.929 . S
C289 C292 1.391 . S
C289 C294 1.391 . S
C290 H262 0.929 . S
C290 C291 1.390 . S
C290 N293 1.391 . S
C291 H263 0.930 . S
C291 C290 1.390 . S
C291 C292 1.392 . S
C292 H264 0.929 . S
C292 C289 1.391 . S
C292 C291 1.392 . S
N293 Co237 2.257 . S
N293 C290 1.391 . S
N293 C294 1.388 . S
C294 H265 0.930 . S
C294 C289 1.391 . S
C294 N293 1.388 . S
Co295 O297 2.143 . S
Co295 O303 2.074 . S
Co295 O306 2.093 . S
Co295 O319 2.097 . S
Co295 N336 2.151 . S
Co295 N344 2.214 . S
Co296 O297 2.160 . S
Co296 O302 2.058 . S
Co296 O312 2.057 . S
Co296 O327 2.037 . S
Co296 N331 2.145 . S
Co296 N352 2.257 . S
O297 Co295 2.143 . S
O297 Co296 2.160 . S
C298 O299 1.278 . S
C298 O306 1.224 . S
O299 C298 1.278 . S
C300 O301 1.245 . S
C300 O312 1.232 . S
O301 C300 1.245 . S
O302 Co296 2.058 . S
O302 C328 1.269 . S
O303 Co295 2.074 . S
O303 C328 1.257 . S
H304 C329 0.930 . S
H305 C335 0.930 . S
O306 Co295 2.093 . S
O306 C298 1.224 . S
H307 C339 0.929 . S
H308 C341 0.930 . S
H309 C342 0.930 . S
H310 C340 0.929 . S
H311 C343 0.928 . S
O312 Co296 2.057 . S
O312 C300 1.232 . S
H313 C332 0.929 . S
H314 C333 0.929 . S
H315 C345 0.931 . S
H316 C337 0.929 . S
H317 C346 0.930 . S
H318 C338 0.931 . S
O319 Co295 2.097 . S
O319 C347 1.214 . S
H320 C348 0.929 . S
H321 C349 0.929 . S
H322 C350 0.930 . S
H323 C351 0.929 . S
H324 C353 0.930 . S
H325 C330 0.930 . S
H326 C334 0.930 . S
O327 Co296 2.037 . S
O327 C347 1.234 . S
C328 O302 1.269 . S
C328 O303 1.257 . S
C329 H304 0.930 . S
C329 C332 1.388 . S
C329 C334 1.418 . S
C330 H325 0.930 . S
C330 C333 1.404 . S
C330 C334 1.353 . S
N331 Co296 2.145 . S
N331 C332 1.397 . S
N331 C333 1.334 . S
C332 H313 0.929 . S
C332 C329 1.388 . S
C332 N331 1.397 . S
C333 H314 0.929 . S
C333 C330 1.404 . S
C333 N331 1.334 . S
C334 H326 0.930 . S
C334 C329 1.418 . S
C334 C330 1.353 . S
C335 H305 0.930 . S
C335 N336 1.330 . S
C335 C337 1.446 . S
N336 Co295 2.151 . S
N336 C335 1.330 . S
N336 C340 1.418 . S
C337 H316 0.929 . S
C337 C335 1.446 . S
C337 C338 1.332 . S
C338 H318 0.931 . S
C338 C337 1.332 . S
C338 C339 1.267 . S
C339 H307 0.929 . S
C339 C338 1.267 . S
C339 C340 1.251 . S
C340 H310 0.929 . S
C340 N336 1.418 . S
C340 C339 1.251 . S
C341 H308 0.930 . S
C341 C343 1.406 . S
C341 C346 1.261 . S
C342 H309 0.930 . S
C342 N344 1.325 . S
C342 C345 1.357 . S
C343 H311 0.928 . S
C343 C341 1.406 . S
C343 N344 1.261 . S
N344 Co295 2.214 . S
N344 C342 1.325 . S
N344 C343 1.261 . S
C345 H315 0.931 . S
C345 C342 1.357 . S
C345 C346 1.312 . S
C346 H317 0.930 . S
C346 C341 1.261 . S
C346 C345 1.312 . S
C347 O319 1.214 . S
C347 O327 1.234 . S
C348 H320 0.929 . S
C348 C351 1.391 . S
C348 C353 1.391 . S
C349 H321 0.929 . S
C349 C350 1.390 . S
C349 N352 1.391 . S
C350 H322 0.930 . S
C350 C349 1.390 . S
C350 C351 1.392 . S
C351 H323 0.929 . S
C351 C348 1.391 . S
C351 C350 1.392 . S
N352 Co296 2.257 . S
N352 C349 1.391 . S
N352 C353 1.388 . S
C353 H324 0.930 . S
C353 C348 1.391 . S
C353 N352 1.388 . S
Co354 O356 2.143 . S
Co354 O362 2.074 . S
Co354 O365 2.093 . S
Co354 O378 2.097 . S
Co354 N395 2.151 . S
Co354 N403 2.214 . S
Co355 O356 2.160 . S
Co355 O361 2.058 . S
Co355 O371 2.057 . S
Co355 O386 2.037 . S
Co355 N390 2.145 . S
Co355 N411 2.257 . S
O356 Co354 2.143 . S
O356 Co355 2.160 . S
C357 O358 1.278 . S
C357 O365 1.224 . S
O358 C357 1.278 . S
C359 O360 1.245 . S
C359 O371 1.232 . S
O360 C359 1.245 . S
O361 Co355 2.058 . S
O361 C387 1.269 . S
O362 Co354 2.074 . S
O362 C387 1.257 . S
H363 C388 0.930 . S
H364 C394 0.930 . S
O365 Co354 2.093 . S
O365 C357 1.224 . S
H366 C398 0.929 . S
H367 C400 0.930 . S
H368 C401 0.930 . S
H369 C399 0.929 . S
H370 C402 0.928 . S
O371 Co355 2.057 . S
O371 C359 1.232 . S
H372 C391 0.929 . S
H373 C392 0.929 . S
H374 C404 0.931 . S
H375 C396 0.929 . S
H376 C405 0.930 . S
H377 C397 0.931 . S
O378 Co354 2.097 . S
O378 C406 1.214 . S
H379 C407 0.929 . S
H380 C408 0.929 . S
H381 C409 0.930 . S
H382 C410 0.929 . S
H383 C412 0.930 . S
H384 C389 0.930 . S
H385 C393 0.930 . S
O386 Co355 2.037 . S
O386 C406 1.234 . S
C387 O361 1.269 . S
C387 O362 1.257 . S
C388 H363 0.930 . S
C388 C391 1.388 . S
C388 C393 1.418 . S
C389 H384 0.930 . S
C389 C392 1.404 . S
C389 C393 1.353 . S
N390 Co355 2.145 . S
N390 C391 1.397 . S
N390 C392 1.334 . S
C391 H372 0.929 . S
C391 C388 1.388 . S
C391 N390 1.397 . S
C392 H373 0.929 . S
C392 C389 1.404 . S
C392 N390 1.334 . S
C393 H385 0.930 . S
C393 C388 1.418 . S
C393 C389 1.353 . S
C394 H364 0.930 . S
C394 N395 1.330 . S
C394 C396 1.446 . S
N395 Co354 2.151 . S
N395 C394 1.330 . S
N395 C399 1.418 . S
C396 H375 0.929 . S
C396 C394 1.446 . S
C396 C397 1.332 . S
C397 H377 0.931 . S
C397 C396 1.332 . S
C397 C398 1.267 . S
C398 H366 0.929 . S
C398 C397 1.267 . S
C398 C399 1.251 . S
C399 H369 0.929 . S
C399 N395 1.418 . S
C399 C398 1.251 . S
C400 H367 0.930 . S
C400 C402 1.406 . S
C400 C405 1.261 . S
C401 H368 0.930 . S
C401 N403 1.325 . S
C401 C404 1.357 . S
C402 H370 0.928 . S
C402 C400 1.406 . S
C402 N403 1.261 . S
N403 Co354 2.214 . S
N403 C401 1.325 . S
N403 C402 1.261 . S
C404 H374 0.931 . S
C404 C401 1.357 . S
C404 C405 1.312 . S
C405 H376 0.930 . S
C405 C400 1.261 . S
C405 C404 1.312 . S
C406 O378 1.214 . S
C406 O386 1.234 . S
C407 H379 0.929 . S
C407 C410 1.391 . S
C407 C412 1.391 . S
C408 H380 0.929 . S
C408 C409 1.390 . S
C408 N411 1.391 . S
C409 H381 0.930 . S
C409 C408 1.390 . S
C409 C410 1.392 . S
C410 H382 0.929 . S
C410 C407 1.391 . S
C410 C409 1.392 . S
N411 Co355 2.257 . S
N411 C408 1.391 . S
N411 C412 1.388 . S
C412 H383 0.930 . S
C412 C407 1.391 . S
C412 N411 1.388 . S
Co413 O415 2.143 . S
Co413 O421 2.074 . S
Co413 O424 2.093 . S
Co413 O437 2.097 . S
Co413 N454 2.151 . S
Co413 N462 2.214 . S
Co414 O415 2.160 . S
Co414 O420 2.058 . S
Co414 O430 2.057 . S
Co414 O445 2.037 . S
Co414 N449 2.145 . S
Co414 N470 2.257 . S
O415 Co413 2.143 . S
O415 Co414 2.160 . S
C416 O417 1.278 . S
C416 O424 1.224 . S
O417 C416 1.278 . S
C418 O419 1.245 . S
C418 O430 1.232 . S
O419 C418 1.245 . S
O420 Co414 2.058 . S
O420 C446 1.269 . S
O421 Co413 2.074 . S
O421 C446 1.257 . S
H422 C447 0.930 . S
H423 C453 0.930 . S
O424 Co413 2.093 . S
O424 C416 1.224 . S
H425 C457 0.929 . S
H426 C459 0.930 . S
H427 C460 0.930 . S
H428 C458 0.929 . S
H429 C461 0.928 . S
O430 Co414 2.057 . S
O430 C418 1.232 . S
H431 C450 0.929 . S
H432 C451 0.929 . S
H433 C463 0.931 . S
H434 C455 0.929 . S
H435 C464 0.930 . S
H436 C456 0.931 . S
O437 Co413 2.097 . S
O437 C465 1.214 . S
H438 C466 0.929 . S
H439 C467 0.929 . S
H440 C468 0.930 . S
H441 C469 0.929 . S
H442 C471 0.930 . S
H443 C448 0.930 . S
H444 C452 0.930 . S
O445 Co414 2.037 . S
O445 C465 1.234 . S
C446 O420 1.269 . S
C446 O421 1.257 . S
C447 H422 0.930 . S
C447 C450 1.388 . S
C447 C452 1.418 . S
C448 H443 0.930 . S
C448 C451 1.404 . S
C448 C452 1.353 . S
N449 Co414 2.145 . S
N449 C450 1.397 . S
N449 C451 1.334 . S
C450 H431 0.929 . S
C450 C447 1.388 . S
C450 N449 1.397 . S
C451 H432 0.929 . S
C451 C448 1.404 . S
C451 N449 1.334 . S
C452 H444 0.930 . S
C452 C447 1.418 . S
C452 C448 1.353 . S
C453 H423 0.930 . S
C453 N454 1.330 . S
C453 C455 1.446 . S
N454 Co413 2.151 . S
N454 C453 1.330 . S
N454 C458 1.418 . S
C455 H434 0.929 . S
C455 C453 1.446 . S
C455 C456 1.332 . S
C456 H436 0.931 . S
C456 C455 1.332 . S
C456 C457 1.267 . S
C457 H425 0.929 . S
C457 C456 1.267 . S
C457 C458 1.251 . S
C458 H428 0.929 . S
C458 N454 1.418 . S
C458 C457 1.251 . S
C459 H426 0.930 . S
C459 C461 1.406 . S
C459 C464 1.261 . S
C460 H427 0.930 . S
C460 N462 1.325 . S
C460 C463 1.357 . S
C461 H429 0.928 . S
C461 C459 1.406 . S
C461 N462 1.261 . S
N462 Co413 2.214 . S
N462 C460 1.325 . S
N462 C461 1.261 . S
C463 H433 0.931 . S
C463 C460 1.357 . S
C463 C464 1.312 . S
C464 H435 0.930 . S
C464 C459 1.261 . S
C464 C463 1.312 . S
C465 O437 1.214 . S
C465 O445 1.234 . S
C466 H438 0.929 . S
C466 C469 1.391 . S
C466 C471 1.391 . S
C467 H439 0.929 . S
C467 C468 1.390 . S
C467 N470 1.391 . S
C468 H440 0.930 . S
C468 C467 1.390 . S
C468 C469 1.392 . S
C469 H441 0.929 . S
C469 C466 1.391 . S
C469 C468 1.392 . S
N470 Co414 2.257 . S
N470 C467 1.391 . S
N470 C471 1.388 . S
C471 H442 0.930 . S
C471 C466 1.391 . S
C471 N470 1.388 . S
Co472 O474 2.143 . S
Co472 O480 2.074 . S
Co472 O483 2.093 . S
Co472 O496 2.097 . S
Co472 N513 2.151 . S
Co472 N521 2.214 . S
Co473 O474 2.160 . S
Co473 O479 2.058 . S
Co473 O489 2.057 . S
Co473 O504 2.037 . S
Co473 N508 2.145 . S
Co473 N529 2.257 . S
O474 Co472 2.143 . S
O474 Co473 2.160 . S
C475 O476 1.278 . S
C475 O483 1.224 . S
O476 C475 1.278 . S
C477 O478 1.245 . S
C477 O489 1.232 . S
O478 C477 1.245 . S
O479 Co473 2.058 . S
O479 C505 1.269 . S
O480 Co472 2.074 . S
O480 C505 1.257 . S
H481 C506 0.930 . S
H482 C512 0.930 . S
O483 Co472 2.093 . S
O483 C475 1.224 . S
H484 C516 0.929 . S
H485 C518 0.930 . S
H486 C519 0.930 . S
H487 C517 0.929 . S
H488 C520 0.928 . S
O489 Co473 2.057 . S
O489 C477 1.232 . S
H490 C509 0.929 . S
H491 C510 0.929 . S
H492 C522 0.931 . S
H493 C514 0.929 . S
H494 C523 0.930 . S
H495 C515 0.931 . S
O496 Co472 2.097 . S
O496 C524 1.214 . S
H497 C525 0.929 . S
H498 C526 0.929 . S
H499 C527 0.930 . S
H500 C528 0.929 . S
H501 C530 0.930 . S
H502 C507 0.930 . S
H503 C511 0.930 . S
O504 Co473 2.037 . S
O504 C524 1.234 . S
C505 O479 1.269 . S
C505 O480 1.257 . S
C506 H481 0.930 . S
C506 C509 1.388 . S
C506 C511 1.418 . S
C507 H502 0.930 . S
C507 C510 1.404 . S
C507 C511 1.353 . S
N508 Co473 2.145 . S
N508 C509 1.397 . S
N508 C510 1.334 . S
C509 H490 0.929 . S
C509 C506 1.388 . S
C509 N508 1.397 . S
C510 H491 0.929 . S
C510 C507 1.404 . S
C510 N508 1.334 . S
C511 H503 0.930 . S
C511 C506 1.418 . S
C511 C507 1.353 . S
C512 H482 0.930 . S
C512 N513 1.330 . S
C512 C514 1.446 . S
N513 Co472 2.151 . S
N513 C512 1.330 . S
N513 C517 1.418 . S
C514 H493 0.929 . S
C514 C512 1.446 . S
C514 C515 1.332 . S
C515 H495 0.931 . S
C515 C514 1.332 . S
C515 C516 1.267 . S
C516 H484 0.929 . S
C516 C515 1.267 . S
C516 C517 1.251 . S
C517 H487 0.929 . S
C517 N513 1.418 . S
C517 C516 1.251 . S
C518 H485 0.930 . S
C518 C520 1.406 . S
C518 C523 1.261 . S
C519 H486 0.930 . S
C519 N521 1.325 . S
C519 C522 1.357 . S
C520 H488 0.928 . S
C520 C518 1.406 . S
C520 N521 1.261 . S
N521 Co472 2.214 . S
N521 C519 1.325 . S
N521 C520 1.261 . S
C522 H492 0.931 . S
C522 C519 1.357 . S
C522 C523 1.312 . S
C523 H494 0.930 . S
C523 C518 1.261 . S
C523 C522 1.312 . S
C524 O496 1.214 . S
C524 O504 1.234 . S
C525 H497 0.929 . S
C525 C528 1.391 . S
C525 C530 1.391 . S
C526 H498 0.929 . S
C526 C527 1.390 . S
C526 N529 1.391 . S
C527 H499 0.930 . S
C527 C526 1.390 . S
C527 C528 1.392 . S
C528 H500 0.929 . S
C528 C525 1.391 . S
C528 C527 1.392 . S
N529 Co473 2.257 . S
N529 C526 1.391 . S
N529 C530 1.388 . S
C530 H501 0.930 . S
C530 C525 1.391 . S
C530 N529 1.388 . S
Co531 O533 2.143 . S
Co531 O539 2.074 . S
Co531 O542 2.093 . S
Co531 O555 2.097 . S
Co531 N572 2.151 . S
Co531 N580 2.214 . S
Co532 O533 2.160 . S
Co532 O538 2.058 . S
Co532 O548 2.057 . S
Co532 O563 2.037 . S
Co532 N567 2.145 . S
Co532 N588 2.257 . S
O533 Co531 2.143 . S
O533 Co532 2.160 . S
C534 O535 1.278 . S
C534 O542 1.224 . S
O535 C534 1.278 . S
C536 O537 1.245 . S
C536 O548 1.232 . S
O537 C536 1.245 . S
O538 Co532 2.058 . S
O538 C564 1.269 . S
O539 Co531 2.074 . S
O539 C564 1.257 . S
H540 C565 0.930 . S
H541 C571 0.930 . S
O542 Co531 2.093 . S
O542 C534 1.224 . S
H543 C575 0.929 . S
H544 C577 0.930 . S
H545 C578 0.930 . S
H546 C576 0.929 . S
H547 C579 0.928 . S
O548 Co532 2.057 . S
O548 C536 1.232 . S
H549 C568 0.929 . S
H550 C569 0.929 . S
H551 C581 0.931 . S
H552 C573 0.929 . S
H553 C582 0.930 . S
H554 C574 0.931 . S
O555 Co531 2.097 . S
O555 C583 1.214 . S
H556 C584 0.929 . S
H557 C585 0.929 . S
H558 C586 0.930 . S
H559 C587 0.929 . S
H560 C589 0.930 . S
H561 C566 0.930 . S
H562 C570 0.930 . S
O563 Co532 2.037 . S
O563 C583 1.234 . S
C564 O538 1.269 . S
C564 O539 1.257 . S
C565 H540 0.930 . S
C565 C568 1.388 . S
C565 C570 1.418 . S
C566 H561 0.930 . S
C566 C569 1.404 . S
C566 C570 1.353 . S
N567 Co532 2.145 . S
N567 C568 1.397 . S
N567 C569 1.334 . S
C568 H549 0.929 . S
C568 C565 1.388 . S
C568 N567 1.397 . S
C569 H550 0.929 . S
C569 C566 1.404 . S
C569 N567 1.334 . S
C570 H562 0.930 . S
C570 C565 1.418 . S
C570 C566 1.353 . S
C571 H541 0.930 . S
C571 N572 1.330 . S
C571 C573 1.446 . S
N572 Co531 2.151 . S
N572 C571 1.330 . S
N572 C576 1.418 . S
C573 H552 0.929 . S
C573 C571 1.446 . S
C573 C574 1.332 . S
C574 H554 0.931 . S
C574 C573 1.332 . S
C574 C575 1.267 . S
C575 H543 0.929 . S
C575 C574 1.267 . S
C575 C576 1.251 . S
C576 H546 0.929 . S
C576 N572 1.418 . S
C576 C575 1.251 . S
C577 H544 0.930 . S
C577 C579 1.406 . S
C577 C582 1.261 . S
C578 H545 0.930 . S
C578 N580 1.325 . S
C578 C581 1.357 . S
C579 H547 0.928 . S
C579 C577 1.406 . S
C579 N580 1.261 . S
N580 Co531 2.214 . S
N580 C578 1.325 . S
N580 C579 1.261 . S
C581 H551 0.931 . S
C581 C578 1.357 . S
C581 C582 1.312 . S
C582 H553 0.930 . S
C582 C577 1.261 . S
C582 C581 1.312 . S
C583 O555 1.214 . S
C583 O563 1.234 . S
C584 H556 0.929 . S
C584 C587 1.391 . S
C584 C589 1.391 . S
C585 H557 0.929 . S
C585 C586 1.390 . S
C585 N588 1.391 . S
C586 H558 0.930 . S
C586 C585 1.390 . S
C586 C587 1.392 . S
C587 H559 0.929 . S
C587 C584 1.391 . S
C587 C586 1.392 . S
N588 Co532 2.257 . S
N588 C585 1.391 . S
N588 C589 1.388 . S
C589 H560 0.930 . S
C589 C584 1.391 . S
C589 N588 1.388 . S
Co590 O592 2.143 . S
Co590 O598 2.074 . S
Co590 O601 2.093 . S
Co590 O614 2.097 . S
Co590 N631 2.151 . S
Co590 N639 2.214 . S
Co591 O592 2.160 . S
Co591 O597 2.058 . S
Co591 O607 2.057 . S
Co591 O622 2.037 . S
Co591 N626 2.145 . S
Co591 N647 2.257 . S
O592 Co590 2.143 . S
O592 Co591 2.160 . S
C593 O594 1.278 . S
C593 O601 1.224 . S
O594 C593 1.278 . S
C595 O596 1.245 . S
C595 O607 1.232 . S
O596 C595 1.245 . S
O597 Co591 2.058 . S
O597 C623 1.269 . S
O598 Co590 2.074 . S
O598 C623 1.257 . S
H599 C624 0.930 . S
H600 C630 0.930 . S
O601 Co590 2.093 . S
O601 C593 1.224 . S
H602 C634 0.929 . S
H603 C636 0.930 . S
H604 C637 0.930 . S
H605 C635 0.929 . S
H606 C638 0.928 . S
O607 Co591 2.057 . S
O607 C595 1.232 . S
H608 C627 0.929 . S
H609 C628 0.929 . S
H610 C640 0.931 . S
H611 C632 0.929 . S
H612 C641 0.930 . S
H613 C633 0.931 . S
O614 Co590 2.097 . S
O614 C642 1.214 . S
H615 C643 0.929 . S
H616 C644 0.929 . S
H617 C645 0.930 . S
H618 C646 0.929 . S
H619 C648 0.930 . S
H620 C625 0.930 . S
H621 C629 0.930 . S
O622 Co591 2.037 . S
O622 C642 1.234 . S
C623 O597 1.269 . S
C623 O598 1.257 . S
C624 H599 0.930 . S
C624 C627 1.388 . S
C624 C629 1.418 . S
C625 H620 0.930 . S
C625 C628 1.404 . S
C625 C629 1.353 . S
N626 Co591 2.145 . S
N626 C627 1.397 . S
N626 C628 1.334 . S
C627 H608 0.929 . S
C627 C624 1.388 . S
C627 N626 1.397 . S
C628 H609 0.929 . S
C628 C625 1.404 . S
C628 N626 1.334 . S
C629 H621 0.930 . S
C629 C624 1.418 . S
C629 C625 1.353 . S
C630 H600 0.930 . S
C630 N631 1.330 . S
C630 C632 1.446 . S
N631 Co590 2.151 . S
N631 C630 1.330 . S
N631 C635 1.418 . S
C632 H611 0.929 . S
C632 C630 1.446 . S
C632 C633 1.332 . S
C633 H613 0.931 . S
C633 C632 1.332 . S
C633 C634 1.267 . S
C634 H602 0.929 . S
C634 C633 1.267 . S
C634 C635 1.251 . S
C635 H605 0.929 . S
C635 N631 1.418 . S
C635 C634 1.251 . S
C636 H603 0.930 . S
C636 C638 1.406 . S
C636 C641 1.261 . S
C637 H604 0.930 . S
C637 N639 1.325 . S
C637 C640 1.357 . S
C638 H606 0.928 . S
C638 C636 1.406 . S
C638 N639 1.261 . S
N639 Co590 2.214 . S
N639 C637 1.325 . S
N639 C638 1.261 . S
C640 H610 0.931 . S
C640 C637 1.357 . S
C640 C641 1.312 . S
C641 H612 0.930 . S
C641 C636 1.261 . S
C641 C640 1.312 . S
C642 O614 1.214 . S
C642 O622 1.234 . S
C643 H615 0.929 . S
C643 C646 1.391 . S
C643 C648 1.391 . S
C644 H616 0.929 . S
C644 C645 1.390 . S
C644 N647 1.391 . S
C645 H617 0.930 . S
C645 C644 1.390 . S
C645 C646 1.392 . S
C646 H618 0.929 . S
C646 C643 1.391 . S
C646 C645 1.392 . S
N647 Co591 2.257 . S
N647 C644 1.391 . S
N647 C648 1.388 . S
C648 H619 0.930 . S
C648 C643 1.391 . S
C648 N647 1.388 . S
Co649 O651 2.143 . S
Co649 O657 2.074 . S
Co649 O660 2.093 . S
Co649 O673 2.097 . S
Co649 N690 2.151 . S
Co649 N698 2.214 . S
Co650 O651 2.160 . S
Co650 O656 2.058 . S
Co650 O666 2.057 . S
Co650 O681 2.037 . S
Co650 N685 2.145 . S
Co650 N706 2.257 . S
O651 Co649 2.143 . S
O651 Co650 2.160 . S
C652 O653 1.278 . S
C652 O660 1.224 . S
O653 C652 1.278 . S
C654 O655 1.245 . S
C654 O666 1.232 . S
O655 C654 1.245 . S
O656 Co650 2.058 . S
O656 C682 1.269 . S
O657 Co649 2.074 . S
O657 C682 1.257 . S
H658 C683 0.930 . S
H659 C689 0.930 . S
O660 Co649 2.093 . S
O660 C652 1.224 . S
H661 C693 0.929 . S
H662 C695 0.930 . S
H663 C696 0.930 . S
H664 C694 0.929 . S
H665 C697 0.928 . S
O666 Co650 2.057 . S
O666 C654 1.232 . S
H667 C686 0.929 . S
H668 C687 0.929 . S
H669 C699 0.931 . S
H670 C691 0.929 . S
H671 C700 0.930 . S
H672 C692 0.931 . S
O673 Co649 2.097 . S
O673 C701 1.214 . S
H674 C702 0.929 . S
H675 C703 0.929 . S
H676 C704 0.930 . S
H677 C705 0.929 . S
H678 C707 0.930 . S
H679 C684 0.930 . S
H680 C688 0.930 . S
O681 Co650 2.037 . S
O681 C701 1.234 . S
C682 O656 1.269 . S
C682 O657 1.257 . S
C683 H658 0.930 . S
C683 C686 1.388 . S
C683 C688 1.418 . S
C684 H679 0.930 . S
C684 C687 1.404 . S
C684 C688 1.353 . S
N685 Co650 2.145 . S
N685 C686 1.397 . S
N685 C687 1.334 . S
C686 H667 0.929 . S
C686 C683 1.388 . S
C686 N685 1.397 . S
C687 H668 0.929 . S
C687 C684 1.404 . S
C687 N685 1.334 . S
C688 H680 0.930 . S
C688 C683 1.418 . S
C688 C684 1.353 . S
C689 H659 0.930 . S
C689 N690 1.330 . S
C689 C691 1.446 . S
N690 Co649 2.151 . S
N690 C689 1.330 . S
N690 C694 1.418 . S
C691 H670 0.929 . S
C691 C689 1.446 . S
C691 C692 1.332 . S
C692 H672 0.931 . S
C692 C691 1.332 . S
C692 C693 1.267 . S
C693 H661 0.929 . S
C693 C692 1.267 . S
C693 C694 1.251 . S
C694 H664 0.929 . S
C694 N690 1.418 . S
C694 C693 1.251 . S
C695 H662 0.930 . S
C695 C697 1.406 . S
C695 C700 1.261 . S
C696 H663 0.930 . S
C696 N698 1.325 . S
C696 C699 1.357 . S
C697 H665 0.928 . S
C697 C695 1.406 . S
C697 N698 1.261 . S
N698 Co649 2.214 . S
N698 C696 1.325 . S
N698 C697 1.261 . S
C699 H669 0.931 . S
C699 C696 1.357 . S
C699 C700 1.312 . S
C700 H671 0.930 . S
C700 C695 1.261 . S
C700 C699 1.312 . S
C701 O673 1.214 . S
C701 O681 1.234 . S
C702 H674 0.929 . S
C702 C705 1.391 . S
C702 C707 1.391 . S
C703 H675 0.929 . S
C703 C704 1.390 . S
C703 N706 1.391 . S
C704 H676 0.930 . S
C704 C703 1.390 . S
C704 C705 1.392 . S
C705 H677 0.929 . S
C705 C702 1.391 . S
C705 C704 1.392 . S
N706 Co650 2.257 . S
N706 C703 1.391 . S
N706 C707 1.388 . S
C707 H678 0.930 . S
C707 C702 1.391 . S
C707 N706 1.388 . S
Co708 O710 2.143 . S
Co708 O716 2.074 . S
Co708 O719 2.093 . S
Co708 O732 2.097 . S
Co708 N749 2.151 . S
Co708 N757 2.214 . S
Co709 O710 2.160 . S
Co709 O715 2.058 . S
Co709 O725 2.057 . S
Co709 O740 2.037 . S
Co709 N744 2.145 . S
Co709 N765 2.257 . S
O710 Co708 2.143 . S
O710 Co709 2.160 . S
C711 O712 1.278 . S
C711 O719 1.224 . S
O712 C711 1.278 . S
C713 O714 1.245 . S
C713 O725 1.232 . S
O714 C713 1.245 . S
O715 Co709 2.058 . S
O715 C741 1.269 . S
O716 Co708 2.074 . S
O716 C741 1.257 . S
H717 C742 0.930 . S
H718 C748 0.930 . S
O719 Co708 2.093 . S
O719 C711 1.224 . S
H720 C752 0.929 . S
H721 C754 0.930 . S
H722 C755 0.930 . S
H723 C753 0.929 . S
H724 C756 0.928 . S
O725 Co709 2.057 . S
O725 C713 1.232 . S
H726 C745 0.929 . S
H727 C746 0.929 . S
H728 C758 0.931 . S
H729 C750 0.929 . S
H730 C759 0.930 . S
H731 C751 0.931 . S
O732 Co708 2.097 . S
O732 C760 1.214 . S
H733 C761 0.929 . S
H734 C762 0.929 . S
H735 C763 0.930 . S
H736 C764 0.929 . S
H737 C766 0.930 . S
H738 C743 0.930 . S
H739 C747 0.930 . S
O740 Co709 2.037 . S
O740 C760 1.234 . S
C741 O715 1.269 . S
C741 O716 1.257 . S
C742 H717 0.930 . S
C742 C745 1.388 . S
C742 C747 1.418 . S
C743 H738 0.930 . S
C743 C746 1.404 . S
C743 C747 1.353 . S
N744 Co709 2.145 . S
N744 C745 1.397 . S
N744 C746 1.334 . S
C745 H726 0.929 . S
C745 C742 1.388 . S
C745 N744 1.397 . S
C746 H727 0.929 . S
C746 C743 1.404 . S
C746 N744 1.334 . S
C747 H739 0.930 . S
C747 C742 1.418 . S
C747 C743 1.353 . S
C748 H718 0.930 . S
C748 N749 1.330 . S
C748 C750 1.446 . S
N749 Co708 2.151 . S
N749 C748 1.330 . S
N749 C753 1.418 . S
C750 H729 0.929 . S
C750 C748 1.446 . S
C750 C751 1.332 . S
C751 H731 0.931 . S
C751 C750 1.332 . S
C751 C752 1.267 . S
C752 H720 0.929 . S
C752 C751 1.267 . S
C752 C753 1.251 . S
C753 H723 0.929 . S
C753 N749 1.418 . S
C753 C752 1.251 . S
C754 H721 0.930 . S
C754 C756 1.406 . S
C754 C759 1.261 . S
C755 H722 0.930 . S
C755 N757 1.325 . S
C755 C758 1.357 . S
C756 H724 0.928 . S
C756 C754 1.406 . S
C756 N757 1.261 . S
N757 Co708 2.214 . S
N757 C755 1.325 . S
N757 C756 1.261 . S
C758 H728 0.931 . S
C758 C755 1.357 . S
C758 C759 1.312 . S
C759 H730 0.930 . S
C759 C754 1.261 . S
C759 C758 1.312 . S
C760 O732 1.214 . S
C760 O740 1.234 . S
C761 H733 0.929 . S
C761 C764 1.391 . S
C761 C766 1.391 . S
C762 H734 0.929 . S
C762 C763 1.390 . S
C762 N765 1.391 . S
C763 H735 0.930 . S
C763 C762 1.390 . S
C763 C764 1.392 . S
C764 H736 0.929 . S
C764 C761 1.391 . S
C764 C763 1.392 . S
N765 Co709 2.257 . S
N765 C762 1.391 . S
N765 C766 1.388 . S
C766 H737 0.930 . S
C766 C761 1.391 . S
C766 N765 1.388 . S
Co767 O769 2.143 . S
Co767 O775 2.074 . S
Co767 O778 2.093 . S
Co767 O791 2.097 . S
Co767 N808 2.151 . S
Co767 N816 2.214 . S
Co768 O769 2.160 . S
Co768 O774 2.058 . S
Co768 O784 2.057 . S
Co768 O799 2.037 . S
Co768 N803 2.145 . S
Co768 N824 2.257 . S
O769 Co767 2.143 . S
O769 Co768 2.160 . S
C770 O771 1.278 . S
C770 O778 1.224 . S
O771 C770 1.278 . S
C772 O773 1.245 . S
C772 O784 1.232 . S
O773 C772 1.245 . S
O774 Co768 2.058 . S
O774 C800 1.269 . S
O775 Co767 2.074 . S
O775 C800 1.257 . S
H776 C801 0.930 . S
H777 C807 0.930 . S
O778 Co767 2.093 . S
O778 C770 1.224 . S
H779 C811 0.929 . S
H780 C813 0.930 . S
H781 C814 0.930 . S
H782 C812 0.929 . S
H783 C815 0.928 . S
O784 Co768 2.057 . S
O784 C772 1.232 . S
H785 C804 0.929 . S
H786 C805 0.929 . S
H787 C817 0.931 . S
H788 C809 0.929 . S
H789 C818 0.930 . S
H790 C810 0.931 . S
O791 Co767 2.097 . S
O791 C819 1.214 . S
H792 C820 0.929 . S
H793 C821 0.929 . S
H794 C822 0.930 . S
H795 C823 0.929 . S
H796 C825 0.930 . S
H797 C802 0.930 . S
H798 C806 0.930 . S
O799 Co768 2.037 . S
O799 C819 1.234 . S
C800 O774 1.269 . S
C800 O775 1.257 . S
C801 H776 0.930 . S
C801 C804 1.388 . S
C801 C806 1.418 . S
C802 H797 0.930 . S
C802 C805 1.404 . S
C802 C806 1.353 . S
N803 Co768 2.145 . S
N803 C804 1.397 . S
N803 C805 1.334 . S
C804 H785 0.929 . S
C804 C801 1.388 . S
C804 N803 1.397 . S
C805 H786 0.929 . S
C805 C802 1.404 . S
C805 N803 1.334 . S
C806 H798 0.930 . S
C806 C801 1.418 . S
C806 C802 1.353 . S
C807 H777 0.930 . S
C807 N808 1.330 . S
C807 C809 1.446 . S
N808 Co767 2.151 . S
N808 C807 1.330 . S
N808 C812 1.418 . S
C809 H788 0.929 . S
C809 C807 1.446 . S
C809 C810 1.332 . S
C810 H790 0.931 . S
C810 C809 1.332 . S
C810 C811 1.267 . S
C811 H779 0.929 . S
C811 C810 1.267 . S
C811 C812 1.251 . S
C812 H782 0.929 . S
C812 N808 1.418 . S
C812 C811 1.251 . S
C813 H780 0.930 . S
C813 C815 1.406 . S
C813 C818 1.261 . S
C814 H781 0.930 . S
C814 N816 1.325 . S
C814 C817 1.357 . S
C815 H783 0.928 . S
C815 C813 1.406 . S
C815 N816 1.261 . S
N816 Co767 2.214 . S
N816 C814 1.325 . S
N816 C815 1.261 . S
C817 H787 0.931 . S
C817 C814 1.357 . S
C817 C818 1.312 . S
C818 H789 0.930 . S
C818 C813 1.261 . S
C818 C817 1.312 . S
C819 O791 1.214 . S
C819 O799 1.234 . S
C820 H792 0.929 . S
C820 C823 1.391 . S
C820 C825 1.391 . S
C821 H793 0.929 . S
C821 C822 1.390 . S
C821 N824 1.391 . S
C822 H794 0.930 . S
C822 C821 1.390 . S
C822 C823 1.392 . S
C823 H795 0.929 . S
C823 C820 1.391 . S
C823 C822 1.392 . S
N824 Co768 2.257 . S
N824 C821 1.391 . S
N824 C825 1.388 . S
C825 H796 0.930 . S
C825 C820 1.391 . S
C825 N824 1.388 . S
Co826 O828 2.143 . S
Co826 O834 2.074 . S
Co826 O837 2.093 . S
Co826 O850 2.097 . S
Co826 N867 2.151 . S
Co826 N875 2.214 . S
Co827 O828 2.160 . S
Co827 O833 2.058 . S
Co827 O843 2.057 . S
Co827 O858 2.037 . S
Co827 N862 2.145 . S
Co827 N883 2.257 . S
O828 Co826 2.143 . S
O828 Co827 2.160 . S
C829 O830 1.278 . S
C829 O837 1.224 . S
O830 C829 1.278 . S
C831 O832 1.245 . S
C831 O843 1.232 . S
O832 C831 1.245 . S
O833 Co827 2.058 . S
O833 C859 1.269 . S
O834 Co826 2.074 . S
O834 C859 1.257 . S
H835 C860 0.930 . S
H836 C866 0.930 . S
O837 Co826 2.093 . S
O837 C829 1.224 . S
H838 C870 0.929 . S
H839 C872 0.930 . S
H840 C873 0.930 . S
H841 C871 0.929 . S
H842 C874 0.928 . S
O843 Co827 2.057 . S
O843 C831 1.232 . S
H844 C863 0.929 . S
H845 C864 0.929 . S
H846 C876 0.931 . S
H847 C868 0.929 . S
H848 C877 0.930 . S
H849 C869 0.931 . S
O850 Co826 2.097 . S
O850 C878 1.214 . S
H851 C879 0.929 . S
H852 C880 0.929 . S
H853 C881 0.930 . S
H854 C882 0.929 . S
H855 C884 0.930 . S
H856 C861 0.930 . S
H857 C865 0.930 . S
O858 Co827 2.037 . S
O858 C878 1.234 . S
C859 O833 1.269 . S
C859 O834 1.257 . S
C860 H835 0.930 . S
C860 C863 1.388 . S
C860 C865 1.418 . S
C861 H856 0.930 . S
C861 C864 1.404 . S
C861 C865 1.353 . S
N862 Co827 2.145 . S
N862 C863 1.397 . S
N862 C864 1.334 . S
C863 H844 0.929 . S
C863 C860 1.388 . S
C863 N862 1.397 . S
C864 H845 0.929 . S
C864 C861 1.404 . S
C864 N862 1.334 . S
C865 H857 0.930 . S
C865 C860 1.418 . S
C865 C861 1.353 . S
C866 H836 0.930 . S
C866 N867 1.330 . S
C866 C868 1.446 . S
N867 Co826 2.151 . S
N867 C866 1.330 . S
N867 C871 1.418 . S
C868 H847 0.929 . S
C868 C866 1.446 . S
C868 C869 1.332 . S
C869 H849 0.931 . S
C869 C868 1.332 . S
C869 C870 1.267 . S
C870 H838 0.929 . S
C870 C869 1.267 . S
C870 C871 1.251 . S
C871 H841 0.929 . S
C871 N867 1.418 . S
C871 C870 1.251 . S
C872 H839 0.930 . S
C872 C874 1.406 . S
C872 C877 1.261 . S
C873 H840 0.930 . S
C873 N875 1.325 . S
C873 C876 1.357 . S
C874 H842 0.928 . S
C874 C872 1.406 . S
C874 N875 1.261 . S
N875 Co826 2.214 . S
N875 C873 1.325 . S
N875 C874 1.261 . S
C876 H846 0.931 . S
C876 C873 1.357 . S
C876 C877 1.312 . S
C877 H848 0.930 . S
C877 C872 1.261 . S
C877 C876 1.312 . S
C878 O850 1.214 . S
C878 O858 1.234 . S
C879 H851 0.929 . S
C879 C882 1.391 . S
C879 C884 1.391 . S
C880 H852 0.929 . S
C880 C881 1.390 . S
C880 N883 1.391 . S
C881 H853 0.930 . S
C881 C880 1.390 . S
C881 C882 1.392 . S
C882 H854 0.929 . S
C882 C879 1.391 . S
C882 C881 1.392 . S
N883 Co827 2.257 . S
N883 C880 1.391 . S
N883 C884 1.388 . S
C884 H855 0.930 . S
C884 C879 1.391 . S
C884 N883 1.388 . S
Co885 O887 2.143 . S
Co885 O893 2.074 . S
Co885 O896 2.093 . S
Co885 O909 2.097 . S
Co885 N926 2.151 . S
Co885 N934 2.214 . S
Co886 O887 2.160 . S
Co886 O892 2.058 . S
Co886 O902 2.057 . S
Co886 O917 2.037 . S
Co886 N921 2.145 . S
Co886 N942 2.257 . S
O887 Co885 2.143 . S
O887 Co886 2.160 . S
C888 O889 1.278 . S
C888 O896 1.224 . S
O889 C888 1.278 . S
C890 O891 1.245 . S
C890 O902 1.232 . S
O891 C890 1.245 . S
O892 Co886 2.058 . S
O892 C918 1.269 . S
O893 Co885 2.074 . S
O893 C918 1.257 . S
H894 C919 0.930 . S
H895 C925 0.930 . S
O896 Co885 2.093 . S
O896 C888 1.224 . S
H897 C929 0.929 . S
H898 C931 0.930 . S
H899 C932 0.930 . S
H900 C930 0.929 . S
H901 C933 0.928 . S
O902 Co886 2.057 . S
O902 C890 1.232 . S
H903 C922 0.929 . S
H904 C923 0.929 . S
H905 C935 0.931 . S
H906 C927 0.929 . S
H907 C936 0.930 . S
H908 C928 0.931 . S
O909 Co885 2.097 . S
O909 C937 1.214 . S
H910 C938 0.929 . S
H911 C939 0.929 . S
H912 C940 0.930 . S
H913 C941 0.929 . S
H914 C943 0.930 . S
H915 C920 0.930 . S
H916 C924 0.930 . S
O917 Co886 2.037 . S
O917 C937 1.234 . S
C918 O892 1.269 . S
C918 O893 1.257 . S
C919 H894 0.930 . S
C919 C922 1.388 . S
C919 C924 1.418 . S
C920 H915 0.930 . S
C920 C923 1.404 . S
C920 C924 1.353 . S
N921 Co886 2.145 . S
N921 C922 1.397 . S
N921 C923 1.334 . S
C922 H903 0.929 . S
C922 C919 1.388 . S
C922 N921 1.397 . S
C923 H904 0.929 . S
C923 C920 1.404 . S
C923 N921 1.334 . S
C924 H916 0.930 . S
C924 C919 1.418 . S
C924 C920 1.353 . S
C925 H895 0.930 . S
C925 N926 1.330 . S
C925 C927 1.446 . S
N926 Co885 2.151 . S
N926 C925 1.330 . S
N926 C930 1.418 . S
C927 H906 0.929 . S
C927 C925 1.446 . S
C927 C928 1.332 . S
C928 H908 0.931 . S
C928 C927 1.332 . S
C928 C929 1.267 . S
C929 H897 0.929 . S
C929 C928 1.267 . S
C929 C930 1.251 . S
C930 H900 0.929 . S
C930 N926 1.418 . S
C930 C929 1.251 . S
C931 H898 0.930 . S
C931 C933 1.406 . S
C931 C936 1.261 . S
C932 H899 0.930 . S
C932 N934 1.325 . S
C932 C935 1.357 . S
C933 H901 0.928 . S
C933 C931 1.406 . S
C933 N934 1.261 . S
N934 Co885 2.214 . S
N934 C932 1.325 . S
N934 C933 1.261 . S
C935 H905 0.931 . S
C935 C932 1.357 . S
C935 C936 1.312 . S
C936 H907 0.930 . S
C936 C931 1.261 . S
C936 C935 1.312 . S
C937 O909 1.214 . S
C937 O917 1.234 . S
C938 H910 0.929 . S
C938 C941 1.391 . S
C938 C943 1.391 . S
C939 H911 0.929 . S
C939 C940 1.390 . S
C939 N942 1.391 . S
C940 H912 0.930 . S
C940 C939 1.390 . S
C940 C941 1.392 . S
C941 H913 0.929 . S
C941 C938 1.391 . S
C941 C940 1.392 . S
N942 Co886 2.257 . S
N942 C939 1.391 . S
N942 C943 1.388 . S
C943 H914 0.930 . S
C943 C938 1.391 . S
C943 N942 1.388 . S
C944 C945 1.391 . S
C944 C946 1.394 . S
C944 H960 0.931 . S
C945 C944 1.391 . S
C945 C949 1.376 . S
C946 C944 1.394 . S
C946 C947 1.369 . S
C946 C950 1.531 . S
C947 C946 1.369 . S
C947 C948 1.410 . S
C947 C955 1.503 . S
C948 C947 1.410 . S
C948 C949 1.392 . S
C948 C951 1.511 . S
C949 C945 1.376 . S
C949 C948 1.392 . S
C949 H961 0.929 . S
C950 C946 1.531 . S
C950 H962 0.960 . S
C950 H963 0.962 . S
C950 H964 0.960 . S
C951 C948 1.511 . S
C951 H965 0.961 . S
C951 H966 0.961 . S
C951 H967 0.961 . S
C952 C953 1.370 . S
C952 C954 1.363 . S
C952 H968 0.931 . S
C953 C952 1.370 . S
C953 C957 1.408 . S
C954 C952 1.363 . S
C954 C955 1.370 . S
C954 C958 1.524 . S
C955 C947 1.503 . S
C955 C954 1.370 . S
C955 C956 1.403 . S
C956 C955 1.403 . S
C956 C957 1.404 . S
C956 C959 1.539 . S
C957 C953 1.408 . S
C957 C956 1.404 . S
C957 H969 0.930 . S
C958 C954 1.524 . S
C958 H970 0.956 . S
C958 H971 0.961 . S
C958 H972 0.961 . S
C959 C956 1.539 . S
C959 H973 0.958 . S
C959 H974 0.961 . S
C959 H975 0.960 . S
H960 C944 0.931 . S
H961 C949 0.929 . S
H962 C950 0.960 . S
H963 C950 0.962 . S
H964 C950 0.960 . S
H965 C951 0.961 . S
H966 C951 0.961 . S
H967 C951 0.961 . S
H968 C952 0.931 . S
H969 C957 0.930 . S
H970 C958 0.956 . S
H971 C958 0.961 . S
H972 C958 0.961 . S
H973 C959 0.958 . S
H974 C959 0.961 . S
H975 C959 0.960 . S
C976 C977 1.391 . S
C976 C978 1.394 . S
C976 H992 0.931 . S
C977 C976 1.391 . S
C977 C981 1.376 . S
C978 C976 1.394 . S
C978 C979 1.369 . S
C978 C982 1.531 . S
C979 C978 1.369 . S
C979 C980 1.410 . S
C979 C987 1.503 . S
C980 C979 1.410 . S
C980 C981 1.392 . S
C980 C983 1.511 . S
C981 C977 1.376 . S
C981 C980 1.392 . S
C981 H993 0.929 . S
C982 C978 1.531 . S
C982 H994 0.960 . S
C982 H995 0.962 . S
C982 H996 0.960 . S
C983 C980 1.511 . S
C983 H997 0.961 . S
C983 H998 0.961 . S
C983 H999 0.961 . S
C984 C985 1.370 . S
C984 C986 1.363 . S
C984 H1000 0.931 . S
C985 C984 1.370 . S
C985 C989 1.408 . S
C986 C984 1.363 . S
C986 C987 1.370 . S
C986 C990 1.524 . S
C987 C979 1.503 . S
C987 C986 1.370 . S
C987 C988 1.403 . S
C988 C987 1.403 . S
C988 C989 1.404 . S
C988 C991 1.539 . S
C989 C985 1.408 . S
C989 C988 1.404 . S
C989 H1001 0.930 . S
C990 C986 1.524 . S
C990 H1002 0.956 . S
C990 H1003 0.961 . S
C990 H1004 0.961 . S
C991 C988 1.539 . S
C991 H1005 0.958 . S
C991 H1006 0.961 . S
C991 H1007 0.960 . S
H992 C976 0.931 . S
H993 C981 0.929 . S
H994 C982 0.960 . S
H995 C982 0.962 . S
H996 C982 0.960 . S
H997 C983 0.961 . S
H998 C983 0.961 . S
H999 C983 0.961 . S
H1000 C984 0.931 . S
H1001 C989 0.930 . S
H1002 C990 0.956 . S
H1003 C990 0.961 . S
H1004 C990 0.961 . S
H1005 C991 0.958 . S
H1006 C991 0.961 . S
H1007 C991 0.960 . S
C1008 C1009 1.391 . S
C1008 C1010 1.394 . S
C1008 H1024 0.931 . S
C1009 C1008 1.391 . S
C1009 C1013 1.376 . S
C1010 C1008 1.394 . S
C1010 C1011 1.369 . S
C1010 C1014 1.531 . S
C1011 C1010 1.369 . S
C1011 C1012 1.410 . S
C1011 C1019 1.503 . S
C1012 C1011 1.410 . S
C1012 C1013 1.392 . S
C1012 C1015 1.511 . S
C1013 C1009 1.376 . S
C1013 C1012 1.392 . S
C1013 H1025 0.929 . S
C1014 C1010 1.531 . S
C1014 H1026 0.960 . S
C1014 H1027 0.962 . S
C1014 H1028 0.960 . S
C1015 C1012 1.511 . S
C1015 H1029 0.961 . S
C1015 H1030 0.961 . S
C1015 H1031 0.961 . S
C1016 C1017 1.370 . S
C1016 C1018 1.363 . S
C1016 H1032 0.931 . S
C1017 C1016 1.370 . S
C1017 C1021 1.408 . S
C1018 C1016 1.363 . S
C1018 C1019 1.370 . S
C1018 C1022 1.524 . S
C1019 C1011 1.503 . S
C1019 C1018 1.370 . S
C1019 C1020 1.403 . S
C1020 C1019 1.403 . S
C1020 C1021 1.404 . S
C1020 C1023 1.539 . S
C1021 C1017 1.408 . S
C1021 C1020 1.404 . S
C1021 H1033 0.930 . S
C1022 C1018 1.524 . S
C1022 H1034 0.956 . S
C1022 H1035 0.961 . S
C1022 H1036 0.961 . S
C1023 C1020 1.539 . S
C1023 H1037 0.958 . S
C1023 H1038 0.961 . S
C1023 H1039 0.960 . S
H1024 C1008 0.931 . S
H1025 C1013 0.929 . S
H1026 C1014 0.960 . S
H1027 C1014 0.962 . S
H1028 C1014 0.960 . S
H1029 C1015 0.961 . S
H1030 C1015 0.961 . S
H1031 C1015 0.961 . S
H1032 C1016 0.931 . S
H1033 C1021 0.930 . S
H1034 C1022 0.956 . S
H1035 C1022 0.961 . S
H1036 C1022 0.961 . S
H1037 C1023 0.958 . S
H1038 C1023 0.961 . S
H1039 C1023 0.960 . S
C1040 C1041 1.391 . S
C1040 C1042 1.394 . S
C1040 H1056 0.931 . S
C1041 C1040 1.391 . S
C1041 C1045 1.376 . S
C1042 C1040 1.394 . S
C1042 C1043 1.369 . S
C1042 C1046 1.531 . S
C1043 C1042 1.369 . S
C1043 C1044 1.410 . S
C1043 C1051 1.503 . S
C1044 C1043 1.410 . S
C1044 C1045 1.392 . S
C1044 C1047 1.511 . S
C1045 C1041 1.376 . S
C1045 C1044 1.392 . S
C1045 H1057 0.929 . S
C1046 C1042 1.531 . S
C1046 H1058 0.960 . S
C1046 H1059 0.962 . S
C1046 H1060 0.960 . S
C1047 C1044 1.511 . S
C1047 H1061 0.961 . S
C1047 H1062 0.961 . S
C1047 H1063 0.961 . S
C1048 C1049 1.370 . S
C1048 C1050 1.363 . S
C1048 H1064 0.931 . S
C1049 C1048 1.370 . S
C1049 C1053 1.408 . S
C1050 C1048 1.363 . S
C1050 C1051 1.370 . S
C1050 C1054 1.524 . S
C1051 C1043 1.503 . S
C1051 C1050 1.370 . S
C1051 C1052 1.403 . S
C1052 C1051 1.403 . S
C1052 C1053 1.404 . S
C1052 C1055 1.539 . S
C1053 C1049 1.408 . S
C1053 C1052 1.404 . S
C1053 H1065 0.930 . S
C1054 C1050 1.524 . S
C1054 H1066 0.956 . S
C1054 H1067 0.961 . S
C1054 H1068 0.961 . S
C1055 C1052 1.539 . S
C1055 H1069 0.958 . S
C1055 H1070 0.961 . S
C1055 H1071 0.960 . S
H1056 C1040 0.931 . S
H1057 C1045 0.929 . S
H1058 C1046 0.960 . S
H1059 C1046 0.962 . S
H1060 C1046 0.960 . S
H1061 C1047 0.961 . S
H1062 C1047 0.961 . S
H1063 C1047 0.961 . S
H1064 C1048 0.931 . S
H1065 C1053 0.930 . S
H1066 C1054 0.956 . S
H1067 C1054 0.961 . S
H1068 C1054 0.961 . S
H1069 C1055 0.958 . S
H1070 C1055 0.961 . S
H1071 C1055 0.960 . S
C1072 C1073 1.391 . S
C1072 C1074 1.394 . S
C1072 H1088 0.931 . S
C1073 C1072 1.391 . S
C1073 C1077 1.376 . S
C1074 C1072 1.394 . S
C1074 C1075 1.369 . S
C1074 C1078 1.531 . S
C1075 C1074 1.369 . S
C1075 C1076 1.410 . S
C1075 C1083 1.503 . S
C1076 C1075 1.410 . S
C1076 C1077 1.392 . S
C1076 C1079 1.511 . S
C1077 C1073 1.376 . S
C1077 C1076 1.392 . S
C1077 H1089 0.929 . S
C1078 C1074 1.531 . S
C1078 H1090 0.960 . S
C1078 H1091 0.962 . S
C1078 H1092 0.960 . S
C1079 C1076 1.511 . S
C1079 H1093 0.961 . S
C1079 H1094 0.961 . S
C1079 H1095 0.961 . S
C1080 C1081 1.370 . S
C1080 C1082 1.363 . S
C1080 H1096 0.931 . S
C1081 C1080 1.370 . S
C1081 C1085 1.408 . S
C1082 C1080 1.363 . S
C1082 C1083 1.370 . S
C1082 C1086 1.524 . S
C1083 C1075 1.503 . S
C1083 C1082 1.370 . S
C1083 C1084 1.403 . S
C1084 C1083 1.403 . S
C1084 C1085 1.404 . S
C1084 C1087 1.539 . S
C1085 C1081 1.408 . S
C1085 C1084 1.404 . S
C1085 H1097 0.930 . S
C1086 C1082 1.524 . S
C1086 H1098 0.956 . S
C1086 H1099 0.961 . S
C1086 H1100 0.961 . S
C1087 C1084 1.539 . S
C1087 H1101 0.958 . S
C1087 H1102 0.961 . S
C1087 H1103 0.960 . S
H1088 C1072 0.931 . S
H1089 C1077 0.929 . S
H1090 C1078 0.960 . S
H1091 C1078 0.962 . S
H1092 C1078 0.960 . S
H1093 C1079 0.961 . S
H1094 C1079 0.961 . S
H1095 C1079 0.961 . S
H1096 C1080 0.931 . S
H1097 C1085 0.930 . S
H1098 C1086 0.956 . S
H1099 C1086 0.961 . S
H1100 C1086 0.961 . S
H1101 C1087 0.958 . S
H1102 C1087 0.961 . S
H1103 C1087 0.960 . S
C1104 C1105 1.391 . S
C1104 C1106 1.394 . S
C1104 H1120 0.931 . S
C1105 C1104 1.391 . S
C1105 C1109 1.376 . S
C1106 C1104 1.394 . S
C1106 C1107 1.369 . S
C1106 C1110 1.531 . S
C1107 C1106 1.369 . S
C1107 C1108 1.410 . S
C1107 C1115 1.503 . S
C1108 C1107 1.410 . S
C1108 C1109 1.392 . S
C1108 C1111 1.511 . S
C1109 C1105 1.376 . S
C1109 C1108 1.392 . S
C1109 H1121 0.929 . S
C1110 C1106 1.531 . S
C1110 H1122 0.960 . S
C1110 H1123 0.962 . S
C1110 H1124 0.960 . S
C1111 C1108 1.511 . S
C1111 H1125 0.961 . S
C1111 H1126 0.961 . S
C1111 H1127 0.961 . S
C1112 C1113 1.370 . S
C1112 C1114 1.363 . S
C1112 H1128 0.931 . S
C1113 C1112 1.370 . S
C1113 C1117 1.408 . S
C1114 C1112 1.363 . S
C1114 C1115 1.370 . S
C1114 C1118 1.524 . S
C1115 C1107 1.503 . S
C1115 C1114 1.370 . S
C1115 C1116 1.403 . S
C1116 C1115 1.403 . S
C1116 C1117 1.404 . S
C1116 C1119 1.539 . S
C1117 C1113 1.408 . S
C1117 C1116 1.404 . S
C1117 H1129 0.930 . S
C1118 C1114 1.524 . S
C1118 H1130 0.956 . S
C1118 H1131 0.961 . S
C1118 H1132 0.961 . S
C1119 C1116 1.539 . S
C1119 H1133 0.958 . S
C1119 H1134 0.961 . S
C1119 H1135 0.960 . S
H1120 C1104 0.931 . S
H1121 C1109 0.929 . S
H1122 C1110 0.960 . S
H1123 C1110 0.962 . S
H1124 C1110 0.960 . S
H1125 C1111 0.961 . S
H1126 C1111 0.961 . S
H1127 C1111 0.961 . S
H1128 C1112 0.931 . S
H1129 C1117 0.930 . S
H1130 C1118 0.956 . S
H1131 C1118 0.961 . S
H1132 C1118 0.961 . S
H1133 C1119 0.958 . S
H1134 C1119 0.961 . S
H1135 C1119 0.960 . S
C1136 C1137 1.391 . S
C1136 C1138 1.394 . S
C1136 H1152 0.931 . S
C1137 C1136 1.391 . S
C1137 C1141 1.376 . S
C1138 C1136 1.394 . S
C1138 C1139 1.369 . S
C1138 C1142 1.531 . S
C1139 C1138 1.369 . S
C1139 C1140 1.410 . S
C1139 C1147 1.503 . S
C1140 C1139 1.410 . S
C1140 C1141 1.392 . S
C1140 C1143 1.511 . S
C1141 C1137 1.376 . S
C1141 C1140 1.392 . S
C1141 H1153 0.929 . S
C1142 C1138 1.531 . S
C1142 H1154 0.960 . S
C1142 H1155 0.962 . S
C1142 H1156 0.960 . S
C1143 C1140 1.511 . S
C1143 H1157 0.961 . S
C1143 H1158 0.961 . S
C1143 H1159 0.961 . S
C1144 C1145 1.370 . S
C1144 C1146 1.363 . S
C1144 H1160 0.931 . S
C1145 C1144 1.370 . S
C1145 C1149 1.408 . S
C1146 C1144 1.363 . S
C1146 C1147 1.370 . S
C1146 C1150 1.524 . S
C1147 C1139 1.503 . S
C1147 C1146 1.370 . S
C1147 C1148 1.403 . S
C1148 C1147 1.403 . S
C1148 C1149 1.404 . S
C1148 C1151 1.539 . S
C1149 C1145 1.408 . S
C1149 C1148 1.404 . S
C1149 H1161 0.930 . S
C1150 C1146 1.524 . S
C1150 H1162 0.956 . S
C1150 H1163 0.961 . S
C1150 H1164 0.961 . S
C1151 C1148 1.539 . S
C1151 H1165 0.958 . S
C1151 H1166 0.961 . S
C1151 H1167 0.960 . S
H1152 C1136 0.931 . S
H1153 C1141 0.929 . S
H1154 C1142 0.960 . S
H1155 C1142 0.962 . S
H1156 C1142 0.960 . S
H1157 C1143 0.961 . S
H1158 C1143 0.961 . S
H1159 C1143 0.961 . S
H1160 C1144 0.931 . S
H1161 C1149 0.930 . S
H1162 C1150 0.956 . S
H1163 C1150 0.961 . S
H1164 C1150 0.961 . S
H1165 C1151 0.958 . S
H1166 C1151 0.961 . S
H1167 C1151 0.960 . S
C1168 C1169 1.391 . S
C1168 C1170 1.394 . S
C1168 H1184 0.931 . S
C1169 C1168 1.391 . S
C1169 C1173 1.376 . S
C1170 C1168 1.394 . S
C1170 C1171 1.369 . S
C1170 C1174 1.531 . S
C1171 C1170 1.369 . S
C1171 C1172 1.410 . S
C1171 C1179 1.503 . S
C1172 C1171 1.410 . S
C1172 C1173 1.392 . S
C1172 C1175 1.511 . S
C1173 C1169 1.376 . S
C1173 C1172 1.392 . S
C1173 H1185 0.929 . S
C1174 C1170 1.531 . S
C1174 H1186 0.960 . S
C1174 H1187 0.962 . S
C1174 H1188 0.960 . S
C1175 C1172 1.511 . S
C1175 H1189 0.961 . S
C1175 H1190 0.961 . S
C1175 H1191 0.961 . S
C1176 C1177 1.370 . S
C1176 C1178 1.363 . S
C1176 H1192 0.931 . S
C1177 C1176 1.370 . S
C1177 C1181 1.408 . S
C1178 C1176 1.363 . S
C1178 C1179 1.370 . S
C1178 C1182 1.524 . S
C1179 C1171 1.503 . S
C1179 C1178 1.370 . S
C1179 C1180 1.403 . S
C1180 C1179 1.403 . S
C1180 C1181 1.404 . S
C1180 C1183 1.539 . S
C1181 C1177 1.408 . S
C1181 C1180 1.404 . S
C1181 H1193 0.930 . S
C1182 C1178 1.524 . S
C1182 H1194 0.956 . S
C1182 H1195 0.961 . S
C1182 H1196 0.961 . S
C1183 C1180 1.539 . S
C1183 H1197 0.958 . S
C1183 H1198 0.961 . S
C1183 H1199 0.960 . S
H1184 C1168 0.931 . S
H1185 C1173 0.929 . S
H1186 C1174 0.960 . S
H1187 C1174 0.962 . S
H1188 C1174 0.960 . S
H1189 C1175 0.961 . S
H1190 C1175 0.961 . S
H1191 C1175 0.961 . S
H1192 C1176 0.931 . S
H1193 C1181 0.930 . S
H1194 C1182 0.956 . S
H1195 C1182 0.961 . S
H1196 C1182 0.961 . S
H1197 C1183 0.958 . S
H1198 C1183 0.961 . S
H1199 C1183 0.960 . S
C1200 C1201 1.391 . S
C1200 C1202 1.394 . S
C1200 H1216 0.931 . S
C1201 C1200 1.391 . S
C1201 C1205 1.376 . S
C1202 C1200 1.394 . S
C1202 C1203 1.369 . S
C1202 C1206 1.531 . S
C1203 C1202 1.369 . S
C1203 C1204 1.410 . S
C1203 C1211 1.503 1_556 S
C1204 C1203 1.410 . S
C1204 C1205 1.392 . S
C1204 C1207 1.511 . S
C1205 C1201 1.376 . S
C1205 C1204 1.392 . S
C1205 H1217 0.929 . S
C1206 C1202 1.531 . S
C1206 H1218 0.967 . S
C1206 H1219 0.962 . S
C1206 H1220 0.960 . S
C1207 C1204 1.511 . S
C1207 H1221 0.961 . S
C1207 H1222 0.961 1_556 S
C1207 H1223 0.961 . S
C1208 C1209 1.370 . S
C1208 C1210 1.363 . S
C1208 H1224 0.931 . S
C1209 C1208 1.370 . S
C1209 C1213 1.408 . S
C1210 C1208 1.363 . S
C1210 C1211 1.370 . S
C1210 C1214 1.524 . S
C1211 C1203 1.503 1_554 S
C1211 C1210 1.370 . S
C1211 C1212 1.403 . S
C1212 C1211 1.403 . S
C1212 C1213 1.404 . S
C1212 C1215 1.539 . S
C1213 C1209 1.408 . S
C1213 C1212 1.404 . S
C1213 H1225 0.930 . S
C1214 C1210 1.524 . S
C1214 H1226 0.956 . S
C1214 H1227 0.980 . S
C1214 H1228 0.961 . S
C1215 C1212 1.539 . S
C1215 H1229 0.958 . S
C1215 H1230 0.961 . S
C1215 H1231 0.960 1_554 S
H1216 C1200 0.931 . S
H1217 C1205 0.929 . S
H1218 C1206 0.967 . S
H1219 C1206 0.962 . S
H1220 C1206 0.960 . S
H1221 C1207 0.961 . S
H1222 C1207 0.961 1_554 S
H1223 C1207 0.961 . S
H1224 C1208 0.931 . S
H1225 C1213 0.930 . S
H1226 C1214 0.956 . S
H1227 C1214 0.980 . S
H1228 C1214 0.961 . S
H1229 C1215 0.958 . S
H1230 C1215 0.961 . S
H1231 C1215 0.960 1_556 S
C1232 C1233 1.391 . S
C1232 C1234 1.394 . S
C1232 H1248 0.931 . S
C1233 C1232 1.391 . S
C1233 C1237 1.376 . S
C1234 C1232 1.394 . S
C1234 C1235 1.369 . S
C1234 C1238 1.531 . S
C1235 C1234 1.369 . S
C1235 C1236 1.410 . S
C1235 C1243 1.503 1_556 S
C1236 C1235 1.410 . S
C1236 C1237 1.392 . S
C1236 C1239 1.511 . S
C1237 C1233 1.376 . S
C1237 C1236 1.392 . S
C1237 H1249 0.929 . S
C1238 C1234 1.531 . S
C1238 H1250 0.960 1_556 S
C1238 H1251 0.962 . S
C1238 H1252 0.960 . S
C1239 C1236 1.511 . S
C1239 H1253 0.961 . S
C1239 H1254 0.961 1_556 S
C1239 H1255 0.961 . S
C1240 C1241 1.370 . S
C1240 C1242 1.363 . S
C1240 H1256 0.931 . S
C1241 C1240 1.370 . S
C1241 C1245 1.408 . S
C1242 C1240 1.363 . S
C1242 C1243 1.370 . S
C1242 C1246 1.524 . S
C1243 C1235 1.503 1_554 S
C1243 C1242 1.370 . S
C1243 C1244 1.403 . S
C1244 C1243 1.403 . S
C1244 C1245 1.404 . S
C1244 C1247 1.539 . S
C1245 C1241 1.408 . S
C1245 C1244 1.404 . S
C1245 H1257 0.930 . S
C1246 C1242 1.524 . S
C1246 H1258 0.956 1_554 S
C1246 H1259 0.961 1_554 S
C1246 H1260 0.961 . S
C1247 C1244 1.539 . S
C1247 H1261 0.958 . S
C1247 H1262 0.961 . S
C1247 H1263 0.960 . S
H1248 C1232 0.931 . S
H1249 C1237 0.929 . S
H1250 C1238 0.960 1_554 S
H1251 C1238 0.962 . S
H1252 C1238 0.960 . S
H1253 C1239 0.961 . S
H1254 C1239 0.961 1_554 S
H1255 C1239 0.961 . S
H1256 C1240 0.931 . S
H1257 C1245 0.930 . S
H1258 C1246 0.956 1_556 S
H1259 C1246 0.961 1_556 S
H1260 C1246 0.961 . S
H1261 C1247 0.958 . S
H1262 C1247 0.961 . S
H1263 C1247 0.960 . S
C1264 C1265 1.391 . S
C1264 C1266 1.394 . S
C1264 H1280 0.931 . S
C1265 C1264 1.391 . S
C1265 C1269 1.376 . S
C1266 C1264 1.394 . S
C1266 C1267 1.369 . S
C1266 C1270 1.531 . S
C1267 C1266 1.369 . S
C1267 C1268 1.410 . S
C1267 C1275 1.503 1_556 S
C1268 C1267 1.410 . S
C1268 C1269 1.392 . S
C1268 C1271 1.511 . S
C1269 C1265 1.376 . S
C1269 C1268 1.392 . S
C1269 H1281 0.929 . S
C1270 C1266 1.531 . S
C1270 H1282 0.962 1_556 S
C1270 H1283 0.962 . S
C1270 H1284 0.960 . S
C1271 C1268 1.511 . S
C1271 H1285 0.961 . S
C1271 H1286 0.961 1_556 S
C1271 H1287 0.961 . S
C1272 C1273 1.370 . S
C1272 C1274 1.363 . S
C1272 H1288 0.931 . S
C1273 C1272 1.370 . S
C1273 C1277 1.408 . S
C1274 C1272 1.363 . S
C1274 C1275 1.370 . S
C1274 C1278 1.524 . S
C1275 C1267 1.503 1_554 S
C1275 C1274 1.370 . S
C1275 C1276 1.403 . S
C1276 C1275 1.403 . S
C1276 C1277 1.404 . S
C1276 C1279 1.539 . S
C1277 C1273 1.408 . S
C1277 C1276 1.404 . S
C1277 H1289 0.930 . S
C1278 C1274 1.524 . S
C1278 H1290 0.948 1_554 S
C1278 H1291 0.961 1_554 S
C1278 H1292 0.961 . S
C1279 C1276 1.539 . S
C1279 H1293 0.958 . S
C1279 H1294 0.961 . S
C1279 H1295 0.960 . S
H1280 C1264 0.931 . S
H1281 C1269 0.929 . S
H1282 C1270 0.962 1_554 S
H1283 C1270 0.962 . S
H1284 C1270 0.960 . S
H1285 C1271 0.961 . S
H1286 C1271 0.961 1_554 S
H1287 C1271 0.961 . S
H1288 C1272 0.931 . S
H1289 C1277 0.930 . S
H1290 C1278 0.948 1_556 S
H1291 C1278 0.961 1_556 S
H1292 C1278 0.961 . S
H1293 C1279 0.958 . S
H1294 C1279 0.961 . S
H1295 C1279 0.960 . S
C1296 C1297 1.391 . S
C1296 C1298 1.394 . S
C1296 H1312 0.931 . S
C1297 C1296 1.391 . S
C1297 C1301 1.376 . S
C1298 C1296 1.394 . S
C1298 C1299 1.369 . S
C1298 C1302 1.531 . S
C1299 C1298 1.369 . S
C1299 C1300 1.410 . S
C1299 C1307 1.503 1_554 S
C1300 C1299 1.410 . S
C1300 C1301 1.392 . S
C1300 C1303 1.511 . S
C1301 C1297 1.376 . S
C1301 C1300 1.392 . S
C1301 H1313 0.929 . S
C1302 C1298 1.531 . S
C1302 H1314 0.974 . S
C1302 H1315 0.962 . S
C1302 H1316 0.960 . S
C1303 C1300 1.511 . S
C1303 H1317 0.961 . S
C1303 H1318 0.961 1_554 S
C1303 H1319 0.961 . S
C1304 C1305 1.370 . S
C1304 C1306 1.363 . S
C1304 H1320 0.931 . S
C1305 C1304 1.370 . S
C1305 C1309 1.408 . S
C1306 C1304 1.363 . S
C1306 C1307 1.370 . S
C1306 C1310 1.524 . S
C1307 C1299 1.503 1_556 S
C1307 C1306 1.370 . S
C1307 C1308 1.403 . S
C1308 C1307 1.403 . S
C1308 C1309 1.404 . S
C1308 C1311 1.539 . S
C1309 C1305 1.408 . S
C1309 C1308 1.404 . S
C1309 H1321 0.930 . S
C1310 C1306 1.524 . S
C1310 H1322 0.974 . S
C1310 H1323 0.954 1_556 S
C1310 H1324 0.961 . S
C1311 C1308 1.539 . S
C1311 H1325 0.958 . S
C1311 H1326 0.961 . S
C1311 H1327 0.973 . S
H1312 C1296 0.931 . S
H1313 C1301 0.929 . S
H1314 C1302 0.974 . S
H1315 C1302 0.962 . S
H1316 C1302 0.960 . S
H1317 C1303 0.961 . S
H1318 C1303 0.961 1_556 S
H1319 C1303 0.961 . S
H1320 C1304 0.931 . S
H1321 C1309 0.930 . S
H1322 C1310 0.974 . S
H1323 C1310 0.954 1_554 S
H1324 C1310 0.961 . S
H1325 C1311 0.958 . S
H1326 C1311 0.961 . S
H1327 C1311 0.973 . S
C1328 C1329 1.391 . S
C1328 C1330 1.394 . S
C1328 H1344 0.931 . S
C1329 C1328 1.391 . S
C1329 C1333 1.376 . S
C1330 C1328 1.394 . S
C1330 C1331 1.369 . S
C1330 C1334 1.531 . S
C1331 C1330 1.369 . S
C1331 C1332 1.410 . S
C1331 C1339 1.503 . S
C1332 C1331 1.410 . S
C1332 C1333 1.392 . S
C1332 C1335 1.511 . S
C1333 C1329 1.376 . S
C1333 C1332 1.392 . S
C1333 H1345 0.929 . S
C1334 C1330 1.531 . S
C1334 H1346 0.960 . S
C1334 H1347 0.962 . S
C1334 H1348 0.960 . S
C1335 C1332 1.511 . S
C1335 H1349 0.961 . S
C1335 H1350 0.961 . S
C1335 H1351 0.961 . S
C1336 C1337 1.370 . S
C1336 C1338 1.363 . S
C1336 H1352 0.931 . S
C1337 C1336 1.370 . S
C1337 C1341 1.408 . S
C1338 C1336 1.363 . S
C1338 C1339 1.370 . S
C1338 C1342 1.524 . S
C1339 C1331 1.503 . S
C1339 C1338 1.370 . S
C1339 C1340 1.403 . S
C1340 C1339 1.403 . S
C1340 C1341 1.404 . S
C1340 C1343 1.539 . S
C1341 C1337 1.408 . S
C1341 C1340 1.404 . S
C1341 H1353 0.930 . S
C1342 C1338 1.524 . S
C1342 H1354 0.956 . S
C1342 H1355 0.961 . S
C1342 H1356 0.961 . S
C1343 C1340 1.539 . S
C1343 H1357 0.958 . S
C1343 H1358 0.961 . S
C1343 H1359 0.960 . S
H1344 C1328 0.931 . S
H1345 C1333 0.929 . S
H1346 C1334 0.960 . S
H1347 C1334 0.962 . S
H1348 C1334 0.960 . S
H1349 C1335 0.961 . S
H1350 C1335 0.961 . S
H1351 C1335 0.961 . S
H1352 C1336 0.931 . S
H1353 C1341 0.930 . S
H1354 C1342 0.956 . S
H1355 C1342 0.961 . S
H1356 C1342 0.961 . S
H1357 C1343 0.958 . S
H1358 C1343 0.961 . S
H1359 C1343 0.960 . S
C1360 C1361 1.391 . S
C1360 C1362 1.394 . S
C1360 H1376 0.931 . S
C1361 C1360 1.391 . S
C1361 C1365 1.376 . S
C1362 C1360 1.394 . S
C1362 C1363 1.369 . S
C1362 C1366 1.531 . S
C1363 C1362 1.369 . S
C1363 C1364 1.410 . S
C1363 C1371 1.503 . S
C1364 C1363 1.410 . S
C1364 C1365 1.392 . S
C1364 C1367 1.511 . S
C1365 C1361 1.376 . S
C1365 C1364 1.392 . S
C1365 H1377 0.929 . S
C1366 C1362 1.531 . S
C1366 H1378 0.960 . S
C1366 H1379 0.962 . S
C1366 H1380 0.960 . S
C1367 C1364 1.511 . S
C1367 H1381 0.961 . S
C1367 H1382 0.961 . S
C1367 H1383 0.961 . S
C1368 C1369 1.370 . S
C1368 C1370 1.363 . S
C1368 H1384 0.931 . S
C1369 C1368 1.370 . S
C1369 C1373 1.408 . S
C1370 C1368 1.363 . S
C1370 C1371 1.370 . S
C1370 C1374 1.524 . S
C1371 C1363 1.503 . S
C1371 C1370 1.370 . S
C1371 C1372 1.403 . S
C1372 C1371 1.403 . S
C1372 C1373 1.404 . S
C1372 C1375 1.539 . S
C1373 C1369 1.408 . S
C1373 C1372 1.404 . S
C1373 H1385 0.930 . S
C1374 C1370 1.524 . S
C1374 H1386 0.956 . S
C1374 H1387 0.961 . S
C1374 H1388 0.961 . S
C1375 C1372 1.539 . S
C1375 H1389 0.958 . S
C1375 H1390 0.961 . S
C1375 H1391 0.960 . S
H1376 C1360 0.931 . S
H1377 C1365 0.929 . S
H1378 C1366 0.960 . S
H1379 C1366 0.962 . S
H1380 C1366 0.960 . S
H1381 C1367 0.961 . S
H1382 C1367 0.961 . S
H1383 C1367 0.961 . S
H1384 C1368 0.931 . S
H1385 C1373 0.930 . S
H1386 C1374 0.956 . S
H1387 C1374 0.961 . S
H1388 C1374 0.961 . S
H1389 C1375 0.958 . S
H1390 C1375 0.961 . S
H1391 C1375 0.960 . S
C1392 C1393 1.391 . S
C1392 C1394 1.394 . S
C1392 H1408 0.931 . S
C1393 C1392 1.391 . S
C1393 C1397 1.376 . S
C1394 C1392 1.394 . S
C1394 C1395 1.369 . S
C1394 C1398 1.531 . S
C1395 C1394 1.369 . S
C1395 C1396 1.410 . S
C1395 C1403 1.503 . S
C1396 C1395 1.410 . S
C1396 C1397 1.392 . S
C1396 C1399 1.511 . S
C1397 C1393 1.376 . S
C1397 C1396 1.392 . S
C1397 H1409 0.929 . S
C1398 C1394 1.531 . S
C1398 H1410 0.960 . S
C1398 H1411 0.962 . S
C1398 H1412 0.960 . S
C1399 C1396 1.511 . S
C1399 H1413 0.961 . S
C1399 H1414 0.961 . S
C1399 H1415 0.961 . S
C1400 C1401 1.370 . S
C1400 C1402 1.363 . S
C1400 H1416 0.931 . S
C1401 C1400 1.370 . S
C1401 C1405 1.408 . S
C1402 C1400 1.363 . S
C1402 C1403 1.370 . S
C1402 C1406 1.524 . S
C1403 C1395 1.503 . S
C1403 C1402 1.370 . S
C1403 C1404 1.403 . S
C1404 C1403 1.403 . S
C1404 C1405 1.404 . S
C1404 C1407 1.539 . S
C1405 C1401 1.408 . S
C1405 C1404 1.404 . S
C1405 H1417 0.930 . S
C1406 C1402 1.524 . S
C1406 H1418 0.956 . S
C1406 H1419 0.961 . S
C1406 H1420 0.961 . S
C1407 C1404 1.539 . S
C1407 H1421 0.958 . S
C1407 H1422 0.961 . S
C1407 H1423 0.960 . S
H1408 C1392 0.931 . S
H1409 C1397 0.929 . S
H1410 C1398 0.960 . S
H1411 C1398 0.962 . S
H1412 C1398 0.960 . S
H1413 C1399 0.961 . S
H1414 C1399 0.961 . S
H1415 C1399 0.961 . S
H1416 C1400 0.931 . S
H1417 C1405 0.930 . S
H1418 C1406 0.956 . S
H1419 C1406 0.961 . S
H1420 C1406 0.961 . S
H1421 C1407 0.958 . S
H1422 C1407 0.961 . S
H1423 C1407 0.960 . S
C1424 C1425 1.391 . S
C1424 C1426 1.394 . S
C1424 H1440 0.931 . S
C1425 C1424 1.391 . S
C1425 C1429 1.376 . S
C1426 C1424 1.394 . S
C1426 C1427 1.369 . S
C1426 C1430 1.531 . S
C1427 C1426 1.369 . S
C1427 C1428 1.410 . S
C1427 C1435 1.503 . S
C1428 C1427 1.410 . S
C1428 C1429 1.392 . S
C1428 C1431 1.511 . S
C1429 C1425 1.376 . S
C1429 C1428 1.392 . S
C1429 H1441 0.929 . S
C1430 C1426 1.531 . S
C1430 H1442 0.960 . S
C1430 H1443 0.962 . S
C1430 H1444 0.960 . S
C1431 C1428 1.511 . S
C1431 H1445 0.961 . S
C1431 H1446 0.961 . S
C1431 H1447 0.961 . S
C1432 C1433 1.370 . S
C1432 C1434 1.363 . S
C1432 H1448 0.931 . S
C1433 C1432 1.370 . S
C1433 C1437 1.408 . S
C1434 C1432 1.363 . S
C1434 C1435 1.370 . S
C1434 C1438 1.524 . S
C1435 C1427 1.503 . S
C1435 C1434 1.370 . S
C1435 C1436 1.403 . S
C1436 C1435 1.403 . S
C1436 C1437 1.404 . S
C1436 C1439 1.539 . S
C1437 C1433 1.408 . S
C1437 C1436 1.404 . S
C1437 H1449 0.930 . S
C1438 C1434 1.524 . S
C1438 H1450 0.956 . S
C1438 H1451 0.961 . S
C1438 H1452 0.961 . S
C1439 C1436 1.539 . S
C1439 H1453 0.958 . S
C1439 H1454 0.961 . S
C1439 H1455 0.960 . S
H1440 C1424 0.931 . S
H1441 C1429 0.929 . S
H1442 C1430 0.960 . S
H1443 C1430 0.962 . S
H1444 C1430 0.960 . S
H1445 C1431 0.961 . S
H1446 C1431 0.961 . S
H1447 C1431 0.961 . S
H1448 C1432 0.931 . S
H1449 C1437 0.930 . S
H1450 C1438 0.956 . S
H1451 C1438 0.961 . S
H1452 C1438 0.961 . S
H1453 C1439 0.958 . S
H1454 C1439 0.961 . S
H1455 C1439 0.960 . S
C1456 C1457 1.391 . S
C1456 C1458 1.394 . S
C1456 H1472 0.931 . S
C1457 C1456 1.391 . S
C1457 C1461 1.376 . S
C1458 C1456 1.394 . S
C1458 C1459 1.369 . S
C1458 C1462 1.531 . S
C1459 C1458 1.369 . S
C1459 C1460 1.410 . S
C1459 C1467 1.503 . S
C1460 C1459 1.410 . S
C1460 C1461 1.392 . S
C1460 C1463 1.511 . S
C1461 C1457 1.376 . S
C1461 C1460 1.392 . S
C1461 H1473 0.929 . S
C1462 C1458 1.531 . S
C1462 H1474 0.960 . S
C1462 H1475 0.962 . S
C1462 H1476 0.960 . S
C1463 C1460 1.511 . S
C1463 H1477 0.961 . S
C1463 H1478 0.961 . S
C1463 H1479 0.961 . S
C1464 C1465 1.370 . S
C1464 C1466 1.363 . S
C1464 H1480 0.931 . S
C1465 C1464 1.370 . S
C1465 C1469 1.408 . S
C1466 C1464 1.363 . S
C1466 C1467 1.370 . S
C1466 C1470 1.524 . S
C1467 C1459 1.503 . S
C1467 C1466 1.370 . S
C1467 C1468 1.403 . S
C1468 C1467 1.403 . S
C1468 C1469 1.404 . S
C1468 C1471 1.539 . S
C1469 C1465 1.408 . S
C1469 C1468 1.404 . S
C1469 H1481 0.930 . S
C1470 C1466 1.524 . S
C1470 H1482 0.956 . S
C1470 H1483 0.961 . S
C1470 H1484 0.961 . S
C1471 C1468 1.539 . S
C1471 H1485 0.958 . S
C1471 H1486 0.961 . S
C1471 H1487 0.960 . S
H1472 C1456 0.931 . S
H1473 C1461 0.929 . S
H1474 C1462 0.960 . S
H1475 C1462 0.962 . S
H1476 C1462 0.960 . S
H1477 C1463 0.961 . S
H1478 C1463 0.961 . S
H1479 C1463 0.961 . S
H1480 C1464 0.931 . S
H1481 C1469 0.930 . S
H1482 C1470 0.956 . S
H1483 C1470 0.961 . S
H1484 C1470 0.961 . S
H1485 C1471 0.958 . S
H1486 C1471 0.961 . S
H1487 C1471 0.960 . S
C1488 C1489 1.391 . S
C1488 C1490 1.394 . S
C1488 H1504 0.931 . S
C1489 C1488 1.391 . S
C1489 C1493 1.376 . S
C1490 C1488 1.394 . S
C1490 C1491 1.369 . S
C1490 C1494 1.531 . S
C1491 C1490 1.369 . S
C1491 C1492 1.410 . S
C1491 C1499 1.503 . S
C1492 C1491 1.410 . S
C1492 C1493 1.392 . S
C1492 C1495 1.511 . S
C1493 C1489 1.376 . S
C1493 C1492 1.392 . S
C1493 H1505 0.929 . S
C1494 C1490 1.531 . S
C1494 H1506 0.960 . S
C1494 H1507 0.962 . S
C1494 H1508 0.960 . S
C1495 C1492 1.511 . S
C1495 H1509 0.961 . S
C1495 H1510 0.961 . S
C1495 H1511 0.961 . S
C1496 C1497 1.370 . S
C1496 C1498 1.363 . S
C1496 H1512 0.931 . S
C1497 C1496 1.370 . S
C1497 C1501 1.408 . S
C1498 C1496 1.363 . S
C1498 C1499 1.370 . S
C1498 C1502 1.524 . S
C1499 C1491 1.503 . S
C1499 C1498 1.370 . S
C1499 C1500 1.403 . S
C1500 C1499 1.403 . S
C1500 C1501 1.404 . S
C1500 C1503 1.539 . S
C1501 C1497 1.408 . S
C1501 C1500 1.404 . S
C1501 H1513 0.930 . S
C1502 C1498 1.524 . S
C1502 H1514 0.956 . S
C1502 H1515 0.961 . S
C1502 H1516 0.961 . S
C1503 C1500 1.539 . S
C1503 H1517 0.958 . S
C1503 H1518 0.961 . S
C1503 H1519 0.960 . S
H1504 C1488 0.931 . S
H1505 C1493 0.929 . S
H1506 C1494 0.960 . S
H1507 C1494 0.962 . S
H1508 C1494 0.960 . S
H1509 C1495 0.961 . S
H1510 C1495 0.961 . S
H1511 C1495 0.961 . S
H1512 C1496 0.931 . S
H1513 C1501 0.930 . S
H1514 C1502 0.956 . S
H1515 C1502 0.961 . S
H1516 C1502 0.961 . S
H1517 C1503 0.958 . S
H1518 C1503 0.961 . S
H1519 C1503 0.960 . S
C1520 C1521 1.391 . S
C1520 C1522 1.394 . S
C1520 H1536 0.931 . S
C1521 C1520 1.391 . S
C1521 C1525 1.376 . S
C1522 C1520 1.394 . S
C1522 C1523 1.369 . S
C1522 C1526 1.531 . S
C1523 C1522 1.369 . S
C1523 C1524 1.410 . S
C1523 C1531 1.503 . S
C1524 C1523 1.410 . S
C1524 C1525 1.392 . S
C1524 C1527 1.511 . S
C1525 C1521 1.376 . S
C1525 C1524 1.392 . S
C1525 H1537 0.929 . S
C1526 C1522 1.531 . S
C1526 H1538 0.960 . S
C1526 H1539 0.962 . S
C1526 H1540 0.960 . S
C1527 C1524 1.511 . S
C1527 H1541 0.961 . S
C1527 H1542 0.961 . S
C1527 H1543 0.961 . S
C1528 C1529 1.370 . S
C1528 C1530 1.363 . S
C1528 H1544 0.931 . S
C1529 C1528 1.370 . S
C1529 C1533 1.408 . S
C1530 C1528 1.363 . S
C1530 C1531 1.370 . S
C1530 C1534 1.524 . S
C1531 C1523 1.503 . S
C1531 C1530 1.370 . S
C1531 C1532 1.403 . S
C1532 C1531 1.403 . S
C1532 C1533 1.404 . S
C1532 C1535 1.539 . S
C1533 C1529 1.408 . S
C1533 C1532 1.404 . S
C1533 H1545 0.930 . S
C1534 C1530 1.524 . S
C1534 H1546 0.956 . S
C1534 H1547 0.961 . S
C1534 H1548 0.961 . S
C1535 C1532 1.539 . S
C1535 H1549 0.958 . S
C1535 H1550 0.961 . S
C1535 H1551 0.960 . S
H1536 C1520 0.931 . S
H1537 C1525 0.929 . S
H1538 C1526 0.960 . S
H1539 C1526 0.962 . S
H1540 C1526 0.960 . S
H1541 C1527 0.961 . S
H1542 C1527 0.961 . S
H1543 C1527 0.961 . S
H1544 C1528 0.931 . S
H1545 C1533 0.930 . S
H1546 C1534 0.956 . S
H1547 C1534 0.961 . S
H1548 C1534 0.961 . S
H1549 C1535 0.958 . S
H1550 C1535 0.961 . S
H1551 C1535 0.960 . S
C1552 C1553 1.391 . S
C1552 C1554 1.394 . S
C1552 H1568 0.931 . S
C1553 C1552 1.391 . S
C1553 C1557 1.376 . S
C1554 C1552 1.394 . S
C1554 C1555 1.369 . S
C1554 C1558 1.531 . S
C1555 C1554 1.369 . S
C1555 C1556 1.410 . S
C1555 C1563 1.503 . S
C1556 C1555 1.410 . S
C1556 C1557 1.392 . S
C1556 C1559 1.511 . S
C1557 C1553 1.376 . S
C1557 C1556 1.392 . S
C1557 H1569 0.929 . S
C1558 C1554 1.531 . S
C1558 H1570 0.960 . S
C1558 H1571 0.962 . S
C1558 H1572 0.960 . S
C1559 C1556 1.511 . S
C1559 H1573 0.961 . S
C1559 H1574 0.961 . S
C1559 H1575 0.961 . S
C1560 C1561 1.370 . S
C1560 C1562 1.363 . S
C1560 H1576 0.931 . S
C1561 C1560 1.370 . S
C1561 C1565 1.408 . S
C1562 C1560 1.363 . S
C1562 C1563 1.370 . S
C1562 C1566 1.524 . S
C1563 C1555 1.503 . S
C1563 C1562 1.370 . S
C1563 C1564 1.403 . S
C1564 C1563 1.403 . S
C1564 C1565 1.404 . S
C1564 C1567 1.539 . S
C1565 C1561 1.408 . S
C1565 C1564 1.404 . S
C1565 H1577 0.930 . S
C1566 C1562 1.524 . S
C1566 H1578 0.956 . S
C1566 H1579 0.961 . S
C1566 H1580 0.961 . S
C1567 C1564 1.539 . S
C1567 H1581 0.958 . S
C1567 H1582 0.961 . S
C1567 H1583 0.960 . S
H1568 C1552 0.931 . S
H1569 C1557 0.929 . S
H1570 C1558 0.960 . S
H1571 C1558 0.962 . S
H1572 C1558 0.960 . S
H1573 C1559 0.961 . S
H1574 C1559 0.961 . S
H1575 C1559 0.961 . S
H1576 C1560 0.931 . S
H1577 C1565 0.930 . S
H1578 C1566 0.956 . S
H1579 C1566 0.961 . S
H1580 C1566 0.961 . S
H1581 C1567 0.958 . S
H1582 C1567 0.961 . S
H1583 C1567 0.960 . S
C1584 C1585 1.391 . S
C1584 C1586 1.394 . S
C1584 H1600 0.931 . S
C1585 C1584 1.391 . S
C1585 C1589 1.376 . S
C1586 C1584 1.394 . S
C1586 C1587 1.369 . S
C1586 C1590 1.531 . S
C1587 C1586 1.369 . S
C1587 C1588 1.410 . S
C1587 C1595 1.503 . S
C1588 C1587 1.410 . S
C1588 C1589 1.392 . S
C1588 C1591 1.511 . S
C1589 C1585 1.376 . S
C1589 C1588 1.392 . S
C1589 H1601 0.929 . S
C1590 C1586 1.531 . S
C1590 H1602 0.960 . S
C1590 H1603 0.962 . S
C1590 H1604 0.960 . S
C1591 C1588 1.511 . S
C1591 H1605 0.961 . S
C1591 H1606 0.961 . S
C1591 H1607 0.961 . S
C1592 C1593 1.370 . S
C1592 C1594 1.363 . S
C1592 H1608 0.931 . S
C1593 C1592 1.370 . S
C1593 C1597 1.408 . S
C1594 C1592 1.363 . S
C1594 C1595 1.370 . S
C1594 C1598 1.524 . S
C1595 C1587 1.503 . S
C1595 C1594 1.370 . S
C1595 C1596 1.403 . S
C1596 C1595 1.403 . S
C1596 C1597 1.404 . S
C1596 C1599 1.539 . S
C1597 C1593 1.408 . S
C1597 C1596 1.404 . S
C1597 H1609 0.930 . S
C1598 C1594 1.524 . S
C1598 H1610 0.956 . S
C1598 H1611 0.961 . S
C1598 H1612 0.961 . S
C1599 C1596 1.539 . S
C1599 H1613 0.958 . S
C1599 H1614 0.961 . S
C1599 H1615 0.960 . S
H1600 C1584 0.931 . S
H1601 C1589 0.929 . S
H1602 C1590 0.960 . S
H1603 C1590 0.962 . S
H1604 C1590 0.960 . S
H1605 C1591 0.961 . S
H1606 C1591 0.961 . S
H1607 C1591 0.961 . S
H1608 C1592 0.931 . S
H1609 C1597 0.930 . S
H1610 C1598 0.956 . S
H1611 C1598 0.961 . S
H1612 C1598 0.961 . S
H1613 C1599 0.958 . S
H1614 C1599 0.961 . S
H1615 C1599 0.960 . S
C1616 C1617 1.391 . S
C1616 C1618 1.394 . S
C1616 H1632 0.931 . S
C1617 C1616 1.391 . S
C1617 C1621 1.376 . S
C1618 C1616 1.394 . S
C1618 C1619 1.369 . S
C1618 C1622 1.531 . S
C1619 C1618 1.369 . S
C1619 C1620 1.410 . S
C1619 C1627 1.503 . S
C1620 C1619 1.410 . S
C1620 C1621 1.392 . S
C1620 C1623 1.511 . S
C1621 C1617 1.376 . S
C1621 C1620 1.392 . S
C1621 H1633 0.929 . S
C1622 C1618 1.531 . S
C1622 H1634 0.960 . S
C1622 H1635 0.962 . S
C1622 H1636 0.960 . S
C1623 C1620 1.511 . S
C1623 H1637 0.961 . S
C1623 H1638 0.961 . S
C1623 H1639 0.961 . S
C1624 C1625 1.370 . S
C1624 C1626 1.363 . S
C1624 H1640 0.931 . S
C1625 C1624 1.370 . S
C1625 C1629 1.408 . S
C1626 C1624 1.363 . S
C1626 C1627 1.370 . S
C1626 C1630 1.524 . S
C1627 C1619 1.503 . S
C1627 C1626 1.370 . S
C1627 C1628 1.403 . S
C1628 C1627 1.403 . S
C1628 C1629 1.404 . S
C1628 C1631 1.539 . S
C1629 C1625 1.408 . S
C1629 C1628 1.404 . S
C1629 H1641 0.930 . S
C1630 C1626 1.524 . S
C1630 H1642 0.956 . S
C1630 H1643 0.961 . S
C1630 H1644 0.961 . S
C1631 C1628 1.539 . S
C1631 H1645 0.958 . S
C1631 H1646 0.961 . S
C1631 H1647 0.960 . S
H1632 C1616 0.931 . S
H1633 C1621 0.929 . S
H1634 C1622 0.960 . S
H1635 C1622 0.962 . S
H1636 C1622 0.960 . S
H1637 C1623 0.961 . S
H1638 C1623 0.961 . S
H1639 C1623 0.961 . S
H1640 C1624 0.931 . S
H1641 C1629 0.930 . S
H1642 C1630 0.956 . S
H1643 C1630 0.961 . S
H1644 C1630 0.961 . S
H1645 C1631 0.958 . S
H1646 C1631 0.961 . S
H1647 C1631 0.960 . S
C1648 C1649 1.391 . S
C1648 C1650 1.394 . S
C1648 H1664 0.931 . S
C1649 C1648 1.391 . S
C1649 C1653 1.376 . S
C1650 C1648 1.394 . S
C1650 C1651 1.369 . S
C1650 C1654 1.531 . S
C1651 C1650 1.369 . S
C1651 C1652 1.410 . S
C1651 C1659 1.503 . S
C1652 C1651 1.410 . S
C1652 C1653 1.392 . S
C1652 C1655 1.511 . S
C1653 C1649 1.376 . S
C1653 C1652 1.392 . S
C1653 H1665 0.929 . S
C1654 C1650 1.531 . S
C1654 H1666 0.960 . S
C1654 H1667 0.962 . S
C1654 H1668 0.960 . S
C1655 C1652 1.511 . S
C1655 H1669 0.961 . S
C1655 H1670 0.961 . S
C1655 H1671 0.961 . S
C1656 C1657 1.370 . S
C1656 C1658 1.363 . S
C1656 H1672 0.931 . S
C1657 C1656 1.370 . S
C1657 C1661 1.408 . S
C1658 C1656 1.363 . S
C1658 C1659 1.370 . S
C1658 C1662 1.524 . S
C1659 C1651 1.503 . S
C1659 C1658 1.370 . S
C1659 C1660 1.403 . S
C1660 C1659 1.403 . S
C1660 C1661 1.404 . S
C1660 C1663 1.539 . S
C1661 C1657 1.408 . S
C1661 C1660 1.404 . S
C1661 H1673 0.930 . S
C1662 C1658 1.524 . S
C1662 H1674 0.956 . S
C1662 H1675 0.961 . S
C1662 H1676 0.961 . S
C1663 C1660 1.539 . S
C1663 H1677 0.958 . S
C1663 H1678 0.961 . S
C1663 H1679 0.960 . S
H1664 C1648 0.931 . S
H1665 C1653 0.929 . S
H1666 C1654 0.960 . S
H1667 C1654 0.962 . S
H1668 C1654 0.960 . S
H1669 C1655 0.961 . S
H1670 C1655 0.961 . S
H1671 C1655 0.961 . S
H1672 C1656 0.931 . S
H1673 C1661 0.930 . S
H1674 C1662 0.956 . S
H1675 C1662 0.961 . S
H1676 C1662 0.961 . S
H1677 C1663 0.958 . S
H1678 C1663 0.961 . S
H1679 C1663 0.960 . S
C1680 C1681 1.391 . S
C1680 C1682 1.394 . S
C1680 H1696 0.931 . S
C1681 C1680 1.391 . S
C1681 C1685 1.376 . S
C1682 C1680 1.394 . S
C1682 C1683 1.369 . S
C1682 C1686 1.531 . S
C1683 C1682 1.369 . S
C1683 C1684 1.410 . S
C1683 C1691 1.503 . S
C1684 C1683 1.410 . S
C1684 C1685 1.392 . S
C1684 C1687 1.511 . S
C1685 C1681 1.376 . S
C1685 C1684 1.392 . S
C1685 H1697 0.929 . S
C1686 C1682 1.531 . S
C1686 H1698 0.960 . S
C1686 H1699 0.962 . S
C1686 H1700 0.960 . S
C1687 C1684 1.511 . S
C1687 H1701 0.961 . S
C1687 H1702 0.961 . S
C1687 H1703 0.961 . S
C1688 C1689 1.370 . S
C1688 C1690 1.363 . S
C1688 H1704 0.931 . S
C1689 C1688 1.370 . S
C1689 C1693 1.408 . S
C1690 C1688 1.363 . S
C1690 C1691 1.370 . S
C1690 C1694 1.524 . S
C1691 C1683 1.503 . S
C1691 C1690 1.370 . S
C1691 C1692 1.403 . S
C1692 C1691 1.403 . S
C1692 C1693 1.404 . S
C1692 C1695 1.539 . S
C1693 C1689 1.408 . S
C1693 C1692 1.404 . S
C1693 H1705 0.930 . S
C1694 C1690 1.524 . S
C1694 H1706 0.956 . S
C1694 H1707 0.961 . S
C1694 H1708 0.961 . S
C1695 C1692 1.539 . S
C1695 H1709 0.958 . S
C1695 H1710 0.961 . S
C1695 H1711 0.960 . S
H1696 C1680 0.931 . S
H1697 C1685 0.929 . S
H1698 C1686 0.960 . S
H1699 C1686 0.962 . S
H1700 C1686 0.960 . S
H1701 C1687 0.961 . S
H1702 C1687 0.961 . S
H1703 C1687 0.961 . S
H1704 C1688 0.931 . S
H1705 C1693 0.930 . S
H1706 C1694 0.956 . S
H1707 C1694 0.961 . S
H1708 C1694 0.961 . S
H1709 C1695 0.958 . S
H1710 C1695 0.961 . S
H1711 C1695 0.960 . S
C1712 C1713 1.391 . S
C1712 C1714 1.394 . S
C1712 H1728 0.931 . S
C1713 C1712 1.391 . S
C1713 C1717 1.376 . S
C1714 C1712 1.394 . S
C1714 C1715 1.369 . S
C1714 C1718 1.531 . S
C1715 C1714 1.369 . S
C1715 C1716 1.410 . S
C1715 C1723 1.503 1_545 S
C1716 C1715 1.410 . S
C1716 C1717 1.392 . S
C1716 C1719 1.511 . S
C1717 C1713 1.376 . S
C1717 C1716 1.392 . S
C1717 H1729 0.929 . S
C1718 C1714 1.531 . S
C1718 H1730 0.960 1_545 S
C1718 H1731 0.962 . S
C1718 H1732 0.960 . S
C1719 C1716 1.511 . S
C1719 H1733 0.961 . S
C1719 H1734 0.961 . S
C1719 H1735 0.961 . S
C1720 C1721 1.370 . S
C1720 C1722 1.363 . S
C1720 H1736 0.931 . S
C1721 C1720 1.370 . S
C1721 C1725 1.408 . S
C1722 C1720 1.363 . S
C1722 C1723 1.370 . S
C1722 C1726 1.524 1_565 S
C1723 C1715 1.503 1_565 S
C1723 C1722 1.370 . S
C1723 C1724 1.403 . S
C1724 C1723 1.403 . S
C1724 C1725 1.404 . S
C1724 C1727 1.539 . S
C1725 C1721 1.408 . S
C1725 C1724 1.404 . S
C1725 H1737 0.930 . S
C1726 C1722 1.524 1_545 S
C1726 H1738 0.956 . S
C1726 H1739 0.961 . S
C1726 H1740 0.961 1_545 S
C1727 C1724 1.539 . S
C1727 H1741 0.958 . S
C1727 H1742 0.961 . S
C1727 H1743 0.960 . S
H1728 C1712 0.931 . S
H1729 C1717 0.929 . S
H1730 C1718 0.960 1_565 S
H1731 C1718 0.962 . S
H1732 C1718 0.960 . S
H1733 C1719 0.961 . S
H1734 C1719 0.961 . S
H1735 C1719 0.961 . S
H1736 C1720 0.931 . S
H1737 C1725 0.930 . S
H1738 C1726 0.956 . S
H1739 C1726 0.961 . S
H1740 C1726 0.961 1_565 S
H1741 C1727 0.958 . S
H1742 C1727 0.961 . S
H1743 C1727 0.960 . S
C1744 C1745 1.391 . S
C1744 C1746 1.394 . S
C1744 H1760 0.931 . S
C1745 C1744 1.391 . S
C1745 C1749 1.376 . S
C1746 C1744 1.394 . S
C1746 C1747 1.369 . S
C1746 C1750 1.531 . S
C1747 C1746 1.369 . S
C1747 C1748 1.410 . S
C1747 C1755 1.503 1_655 S
C1748 C1747 1.410 . S
C1748 C1749 1.392 . S
C1748 C1751 1.511 . S
C1749 C1745 1.376 . S
C1749 C1748 1.392 . S
C1749 H1761 0.929 . S
C1750 C1746 1.531 . S
C1750 H1762 0.960 1_655 S
C1750 H1763 0.962 . S
C1750 H1764 0.960 . S
C1751 C1748 1.511 . S
C1751 H1765 0.961 . S
C1751 H1766 0.961 1_655 S
C1751 H1767 0.958 1_655 S
C1752 C1753 1.370 . S
C1752 C1754 1.363 . S
C1752 H1768 0.931 . S
C1753 C1752 1.370 . S
C1753 C1757 1.408 . S
C1754 C1752 1.363 . S
C1754 C1755 1.370 . S
C1754 C1758 1.524 1_455 S
C1755 C1747 1.503 1_455 S
C1755 C1754 1.370 . S
C1755 C1756 1.403 . S
C1756 C1755 1.403 . S
C1756 C1757 1.404 . S
C1756 C1759 1.539 . S
C1757 C1753 1.408 . S
C1757 C1756 1.404 . S
C1757 H1769 0.930 . S
C1758 C1754 1.524 1_655 S
C1758 H1770 0.956 . S
C1758 H1771 0.961 . S
C1758 H1772 0.961 1_655 S
C1759 C1756 1.539 . S
C1759 H1773 0.958 . S
C1759 H1774 0.961 . S
C1759 H1775 0.960 . S
H1760 C1744 0.931 . S
H1761 C1749 0.929 . S
H1762 C1750 0.960 1_455 S
H1763 C1750 0.962 . S
H1764 C1750 0.960 . S
H1765 C1751 0.961 . S
H1766 C1751 0.961 1_455 S
H1767 C1751 0.958 1_455 S
H1768 C1752 0.931 . S
H1769 C1757 0.930 . S
H1770 C1758 0.956 . S
H1771 C1758 0.961 . S
H1772 C1758 0.961 1_455 S
H1773 C1759 0.958 . S
H1774 C1759 0.961 . S
H1775 C1759 0.960 . S
C1776 C1777 1.391 . S
C1776 C1778 1.394 . S
C1776 H1792 0.931 . S
C1777 C1776 1.391 . S
C1777 C1781 1.376 . S
C1778 C1776 1.394 . S
C1778 C1779 1.369 . S
C1778 C1782 1.538 . S
C1779 C1778 1.369 . S
C1779 C1780 1.410 . S
C1779 C1787 1.503 1_545 S
C1780 C1779 1.410 . S
C1780 C1781 1.392 . S
C1780 C1783 1.511 . S
C1781 C1777 1.376 . S
C1781 C1780 1.392 . S
C1781 H1793 0.929 . S
C1782 C1778 1.538 . S
C1782 H1794 0.950 1_545 S
C1782 H1795 0.960 1_545 S
C1782 H1796 0.964 . S
C1783 C1780 1.511 . S
C1783 H1797 0.961 . S
C1783 H1798 0.961 . S
C1783 H1799 0.961 . S
C1784 C1785 1.370 . S
C1784 C1786 1.363 . S
C1784 H1800 0.931 . S
C1785 C1784 1.370 . S
C1785 C1789 1.408 . S
C1786 C1784 1.363 . S
C1786 C1787 1.370 . S
C1786 C1790 1.524 . S
C1787 C1779 1.503 1_565 S
C1787 C1786 1.370 . S
C1787 C1788 1.403 . S
C1788 C1787 1.403 . S
C1788 C1789 1.404 . S
C1788 C1791 1.539 . S
C1789 C1785 1.408 . S
C1789 C1788 1.404 . S
C1789 H1801 0.930 . S
C1790 C1786 1.524 . S
C1790 H1802 0.956 1_565 S
C1790 H1803 0.961 1_565 S
C1790 H1804 0.961 . S
C1791 C1788 1.539 . S
C1791 H1805 0.958 . S
C1791 H1806 0.961 . S
C1791 H1807 0.960 . S
H1792 C1776 0.931 . S
H1793 C1781 0.929 . S
H1794 C1782 0.950 1_565 S
H1795 C1782 0.960 1_565 S
H1796 C1782 0.964 . S
H1797 C1783 0.961 . S
H1798 C1783 0.961 . S
H1799 C1783 0.961 . S
H1800 C1784 0.931 . S
H1801 C1789 0.930 . S
H1802 C1790 0.956 1_545 S
H1803 C1790 0.961 1_545 S
H1804 C1790 0.961 . S
H1805 C1791 0.958 . S
H1806 C1791 0.961 . S
H1807 C1791 0.960 . S
C1808 C1809 1.391 . S
C1808 C1810 1.394 . S
C1808 H1824 0.931 . S
C1809 C1808 1.391 . S
C1809 C1813 1.376 . S
C1810 C1808 1.394 . S
C1810 C1811 1.369 . S
C1810 C1814 1.531 . S
C1811 C1810 1.369 . S
C1811 C1812 1.410 . S
C1811 C1819 1.503 1_455 S
C1812 C1811 1.410 . S
C1812 C1813 1.392 . S
C1812 C1815 1.511 . S
C1813 C1809 1.376 . S
C1813 C1812 1.392 . S
C1813 H1825 0.929 . S
C1814 C1810 1.531 . S
C1814 H1826 0.960 . S
C1814 H1827 0.962 . S
C1814 H1828 0.960 . S
C1815 C1812 1.511 . S
C1815 H1829 0.961 . S
C1815 H1830 0.961 1_455 S
C1815 H1831 0.961 1_455 S
C1816 C1817 1.370 . S
C1816 C1818 1.363 . S
C1816 H1832 0.931 . S
C1817 C1816 1.370 . S
C1817 C1821 1.408 . S
C1818 C1816 1.363 . S
C1818 C1819 1.370 . S
C1818 C1822 1.528 . S
C1819 C1811 1.503 1_655 S
C1819 C1818 1.370 . S
C1819 C1820 1.403 . S
C1820 C1819 1.403 . S
C1820 C1821 1.404 . S
C1820 C1823 1.539 . S
C1821 C1817 1.408 . S
C1821 C1820 1.404 . S
C1821 H1833 0.930 . S
C1822 C1818 1.528 . S
C1822 H1834 0.953 1_655 S
C1822 H1835 0.958 1_655 S
C1822 H1836 0.963 . S
C1823 C1820 1.539 . S
C1823 H1837 0.958 . S
C1823 H1838 0.961 . S
C1823 H1839 0.960 . S
H1824 C1808 0.931 . S
H1825 C1813 0.929 . S
H1826 C1814 0.960 . S
H1827 C1814 0.962 . S
H1828 C1814 0.960 . S
H1829 C1815 0.961 . S
H1830 C1815 0.961 1_655 S
H1831 C1815 0.961 1_655 S
H1832 C1816 0.931 . S
H1833 C1821 0.930 . S
H1834 C1822 0.953 1_455 S
H1835 C1822 0.958 1_455 S
H1836 C1822 0.963 . S
H1837 C1823 0.958 . S
H1838 C1823 0.961 . S
H1839 C1823 0.960 . S
C1840 C1841 1.391 . S
C1840 C1842 1.394 . S
C1840 H1856 0.931 . S
C1841 C1840 1.391 . S
C1841 C1845 1.376 . S
C1842 C1840 1.394 . S
C1842 C1843 1.369 . S
C1842 C1846 1.531 . S
C1843 C1842 1.369 . S
C1843 C1844 1.410 . S
C1843 C1851 1.503 1_545 S
C1844 C1843 1.410 . S
C1844 C1845 1.392 . S
C1844 C1847 1.501 1_545 S
C1845 C1841 1.376 . S
C1845 C1844 1.392 . S
C1845 H1857 0.929 . S
C1846 C1842 1.531 . S
C1846 H1858 0.960 . S
C1846 H1859 0.962 . S
C1846 H1860 0.960 . S
C1847 C1844 1.501 1_565 S
C1847 H1861 0.959 1_565 S
C1847 H1862 0.974 . S
C1847 H1863 0.959 1_565 S
C1848 C1849 1.370 . S
C1848 C1850 1.363 . S
C1848 H1864 0.931 . S
C1849 C1848 1.370 . S
C1849 C1853 1.408 . S
C1850 C1848 1.363 . S
C1850 C1851 1.370 . S
C1850 C1854 1.524 . S
C1851 C1843 1.503 1_565 S
C1851 C1850 1.370 . S
C1851 C1852 1.403 . S
C1852 C1851 1.403 . S
C1852 C1853 1.404 . S
C1852 C1855 1.539 1_565 S
C1853 C1849 1.408 . S
C1853 C1852 1.404 . S
C1853 H1865 0.930 . S
C1854 C1850 1.524 . S
C1854 H1866 0.956 . S
C1854 H1867 0.961 . S
C1854 H1868 0.961 . S
C1855 C1852 1.539 1_545 S
C1855 H1869 0.958 . S
C1855 H1870 0.961 1_545 S
C1855 H1871 0.960 . S
H1856 C1840 0.931 . S
H1857 C1845 0.929 . S
H1858 C1846 0.960 . S
H1859 C1846 0.962 . S
H1860 C1846 0.960 . S
H1861 C1847 0.959 1_545 S
H1862 C1847 0.974 . S
H1863 C1847 0.959 1_545 S
H1864 C1848 0.931 . S
H1865 C1853 0.930 . S
H1866 C1854 0.956 . S
H1867 C1854 0.961 . S
H1868 C1854 0.961 . S
H1869 C1855 0.958 . S
H1870 C1855 0.961 1_565 S
H1871 C1855 0.960 . S
C1872 C1873 1.391 . S
C1872 C1874 1.394 . S
C1872 H1888 0.931 . S
C1873 C1872 1.391 . S
C1873 C1877 1.376 . S
C1874 C1872 1.394 . S
C1874 C1875 1.369 . S
C1874 C1878 1.531 . S
C1875 C1874 1.369 . S
C1875 C1876 1.410 . S
C1875 C1883 1.503 1_655 S
C1876 C1875 1.410 . S
C1876 C1877 1.392 . S
C1876 C1879 1.511 . S
C1877 C1873 1.376 . S
C1877 C1876 1.392 . S
C1877 H1889 0.929 . S
C1878 C1874 1.531 . S
C1878 H1890 0.960 1_655 S
C1878 H1891 0.962 . S
C1878 H1892 0.960 . S
C1879 C1876 1.511 . S
C1879 H1893 0.961 . S
C1879 H1894 0.961 1_655 S
C1879 H1895 0.961 1_655 S
C1880 C1881 1.370 . S
C1880 C1882 1.363 . S
C1880 H1896 0.931 . S
C1881 C1880 1.370 . S
C1881 C1885 1.408 . S
C1882 C1880 1.363 . S
C1882 C1883 1.370 . S
C1882 C1886 1.524 1_455 S
C1883 C1875 1.503 1_455 S
C1883 C1882 1.370 . S
C1883 C1884 1.403 . S
C1884 C1883 1.403 . S
C1884 C1885 1.404 . S
C1884 C1887 1.539 . S
C1885 C1881 1.408 . S
C1885 C1884 1.404 . S
C1885 H1897 0.930 . S
C1886 C1882 1.524 1_655 S
C1886 H1898 0.956 . S
C1886 H1899 0.961 . S
C1886 H1900 0.961 . S
C1887 C1884 1.539 . S
C1887 H1901 0.958 . S
C1887 H1902 0.961 . S
C1887 H1903 0.960 . S
H1888 C1872 0.931 . S
H1889 C1877 0.929 . S
H1890 C1878 0.960 1_455 S
H1891 C1878 0.962 . S
H1892 C1878 0.960 . S
H1893 C1879 0.961 . S
H1894 C1879 0.961 1_455 S
H1895 C1879 0.961 1_455 S
H1896 C1880 0.931 . S
H1897 C1885 0.930 . S
H1898 C1886 0.956 . S
H1899 C1886 0.961 . S
H1900 C1886 0.961 . S
H1901 C1887 0.958 . S
H1902 C1887 0.961 . S
H1903 C1887 0.960 . S
C1904 C1905 1.391 . S
C1904 C1906 1.394 . S
C1904 H1920 0.931 . S
C1905 C1904 1.391 . S
C1905 C1909 1.376 . S
C1906 C1904 1.394 . S
C1906 C1907 1.369 . S
C1906 C1910 1.531 . S
C1907 C1906 1.369 . S
C1907 C1908 1.410 . S
C1907 C1915 1.503 1_565 S
C1908 C1907 1.410 . S
C1908 C1909 1.392 . S
C1908 C1911 1.511 1_565 S
C1909 C1905 1.376 . S
C1909 C1908 1.392 . S
C1909 H1921 0.929 . S
C1910 C1906 1.531 . S
C1910 H1922 0.960 . S
C1910 H1923 0.962 . S
C1910 H1924 0.960 . S
C1911 C1908 1.511 1_545 S
C1911 H1925 0.961 . S
C1911 H1926 0.961 . S
C1911 H1927 0.961 . S
C1912 C1913 1.370 . S
C1912 C1914 1.363 . S
C1912 H1928 0.931 . S
C1913 C1912 1.370 . S
C1913 C1917 1.408 . S
C1914 C1912 1.363 . S
C1914 C1915 1.370 . S
C1914 C1918 1.524 . S
C1915 C1907 1.503 1_545 S
C1915 C1914 1.370 . S
C1915 C1916 1.403 . S
C1916 C1915 1.403 . S
C1916 C1917 1.404 . S
C1916 C1919 1.539 . S
C1917 C1913 1.408 . S
C1917 C1916 1.404 . S
C1917 H1929 0.930 . S
C1918 C1914 1.524 . S
C1918 H1930 0.956 . S
C1918 H1931 0.961 . S
C1918 H1932 0.961 . S
C1919 C1916 1.539 . S
C1919 H1933 0.958 1_545 S
C1919 H1934 0.961 . S
C1919 H1935 0.960 1_545 S
H1920 C1904 0.931 . S
H1921 C1909 0.929 . S
H1922 C1910 0.960 . S
H1923 C1910 0.962 . S
H1924 C1910 0.960 . S
H1925 C1911 0.961 . S
H1926 C1911 0.961 . S
H1927 C1911 0.961 . S
H1928 C1912 0.931 . S
H1929 C1917 0.930 . S
H1930 C1918 0.956 . S
H1931 C1918 0.961 . S
H1932 C1918 0.961 . S
H1933 C1919 0.958 1_565 S
H1934 C1919 0.961 . S
H1935 C1919 0.960 1_565 S
C1936 C1937 1.391 . S
C1936 C1938 1.394 . S
C1936 H1952 0.931 . S
C1937 C1936 1.391 . S
C1937 C1941 1.376 . S
C1938 C1936 1.394 . S
C1938 C1939 1.369 . S
C1938 C1942 1.531 . S
C1939 C1938 1.369 . S
C1939 C1940 1.410 . S
C1939 C1947 1.503 1_455 S
C1940 C1939 1.410 . S
C1940 C1941 1.392 . S
C1940 C1943 1.511 1_455 S
C1941 C1937 1.376 . S
C1941 C1940 1.392 . S
C1941 H1953 0.929 . S
C1942 C1938 1.531 . S
C1942 H1954 0.960 . S
C1942 H1955 0.962 . S
C1942 H1956 0.960 . S
C1943 C1940 1.511 1_655 S
C1943 H1957 0.961 1_655 S
C1943 H1958 0.961 . S
C1943 H1959 0.961 . S
C1944 C1945 1.370 . S
C1944 C1946 1.363 . S
C1944 H1960 0.931 . S
C1945 C1944 1.370 . S
C1945 C1949 1.408 . S
C1946 C1944 1.363 . S
C1946 C1947 1.370 . S
C1946 C1950 1.524 1_655 S
C1947 C1939 1.503 1_655 S
C1947 C1946 1.370 . S
C1947 C1948 1.403 . S
C1948 C1947 1.403 . S
C1948 C1949 1.404 . S
C1948 C1951 1.539 . S
C1949 C1945 1.408 . S
C1949 C1948 1.404 . S
C1949 H1961 0.930 . S
C1950 C1946 1.524 1_455 S
C1950 H1962 0.956 . S
C1950 H1963 0.961 . S
C1950 H1964 0.961 . S
C1951 C1948 1.539 . S
C1951 H1965 0.958 . S
C1951 H1966 0.961 . S
C1951 H1967 0.960 . S
H1952 C1936 0.931 . S
H1953 C1941 0.929 . S
H1954 C1942 0.960 . S
H1955 C1942 0.962 . S
H1956 C1942 0.960 . S
H1957 C1943 0.961 1_455 S
H1958 C1943 0.961 . S
H1959 C1943 0.961 . S
H1960 C1944 0.931 . S
H1961 C1949 0.930 . S
H1962 C1950 0.956 . S
H1963 C1950 0.961 . S
H1964 C1950 0.961 . S
H1965 C1951 0.958 . S
H1966 C1951 0.961 . S
H1967 C1951 0.960 . S
C945 C300 1.641 . S
C953 C5 1.660 . S
C977 C359 1.650 . S
C985 C64 1.662 . S
C1009 C123 1.642 . S
C1017 C418 1.660 . S
C1041 C182 1.664 . S
C1049 C241 1.657 . S
C1073 C772 1.641 . S
C1081 C477 1.660 . S
C1105 C831 1.663 . S
C1113 C536 1.653 . S
C1137 C595 1.642 . S
C1145 C890 1.655 . S
C1169 C654 1.661 . S
C1177 C713 1.652 . S
C1201 C593 1.546 . S
C1209 C3 1.553 . S
C1233 C652 1.547 . S
C1241 C62 1.560 . S
C1265 C475 1.539 . S
C1273 C121 1.555 . S
C1297 C180 1.540 . S
C1305 C534 1.553 . S
C1329 C829 1.565 . S
C1337 C239 1.567 . S
C1361 C888 1.563 . S
C1369 C298 1.559 . S
C1393 C357 1.558 . S
C1401 C711 1.557 . S
C1425 C770 1.549 . S
C1433 C416 1.561 . S
C1457 C269 0.669 . S
C1465 C33 0.717 . S
C1489 C92 0.670 . S
C1497 C328 0.706 . S
C1521 C151 0.671 . S
C1529 C387 0.705 . S
C1553 C446 0.730 . S
C1561 C210 0.722 . S
C1585 C524 2.276 . S
C1593 C760 2.279 . S
C1617 C819 2.284 . S
C1625 C583 2.281 . S
C1649 C642 2.279 . S
C1657 C878 2.284 . S
C1681 C937 2.268 . S
C1689 C701 2.283 . S
C1713 C682 0.669 . S
C1721 C800 0.717 . S
C1745 C505 0.683 . S
C1753 C859 0.724 . S
C1777 C918 0.670 . S
C1785 C564 0.706 . S
C1809 C623 0.698 . S
C1817 C741 0.726 . S
C1841 C347 2.275 . S
C1849 C229 2.285 . S
C1873 C406 2.284 . S
C1881 C52 2.279 . S
C1905 C465 2.277 . S
C1913 C111 2.285 . S
C1937 C288 2.285 . S
C1945 C170 2.280 . S
