# Generated by pormake.
# Topology yfu, (5)-cn, num edge types: 1
# Building blocks:
#     Node 0, Type 0, BuildingBlock: XOMCOT_clean_sbu_0, # of connection points: 5
#     Node 1, Type 0, BuildingBlock: XOMCOT_clean_sbu_0, # of connection points: 5
#     Node 2, Type 0, BuildingBlock: XOMCOT_clean_sbu_0, # of connection points: 5
#     Node 3, Type 0, BuildingBlock: XOMCOT_clean_sbu_0, # of connection points: 5
#     Node 4, Type 0, BuildingBlock: XOMCOT_clean_sbu_0, # of connection points: 5
#     Node 5, Type 0, BuildingBlock: XOMCOT_clean_sbu_0, # of connection points: 5
#     Node 6, Type 0, BuildingBlock: XOMCOT_clean_sbu_0, # of connection points: 5
#     Node 7, Type 0, BuildingBlock: XOMCOT_clean_sbu_0, # of connection points: 5
#     Node 8, Type 0, BuildingBlock: XOMCOT_clean_sbu_0, # of connection points: 5
#     Node 9, Type 0, BuildingBlock: XOMCOT_clean_sbu_0, # of connection points: 5
#     Node 10, Type 0, BuildingBlock: XOMCOT_clean_sbu_0, # of connection points: 5
#     Node 11, Type 0, BuildingBlock: XOMCOT_clean_sbu_0, # of connection points: 5
#     Node 12, Type 0, BuildingBlock: XOMCOT_clean_sbu_0, # of connection points: 5
#     Node 13, Type 0, BuildingBlock: XOMCOT_clean_sbu_0, # of connection points: 5
#     Node 14, Type 0, BuildingBlock: XOMCOT_clean_sbu_0, # of connection points: 5
#     Node 15, Type 0, BuildingBlock: XOMCOT_clean_sbu_0, # of connection points: 5
#     Node 16, Type 0, BuildingBlock: XOMCOT_clean_sbu_0, # of connection points: 5
#     Node 17, Type 0, BuildingBlock: XOMCOT_clean_sbu_0, # of connection points: 5
#     Node 18, Type 0, BuildingBlock: XOMCOT_clean_sbu_0, # of connection points: 5
#     Node 19, Type 0, BuildingBlock: XOMCOT_clean_sbu_0, # of connection points: 5
#     Node 20, Type 0, BuildingBlock: XOMCOT_clean_sbu_0, # of connection points: 5
#     Node 21, Type 0, BuildingBlock: XOMCOT_clean_sbu_0, # of connection points: 5
#     Node 22, Type 0, BuildingBlock: XOMCOT_clean_sbu_0, # of connection points: 5
#     Node 23, Type 0, BuildingBlock: XOMCOT_clean_sbu_0, # of connection points: 5
#     Node 24, Type 0, BuildingBlock: XOMCOT_clean_sbu_0, # of connection points: 5
#     Node 25, Type 0, BuildingBlock: XOMCOT_clean_sbu_0, # of connection points: 5
#     Node 26, Type 0, BuildingBlock: XOMCOT_clean_sbu_0, # of connection points: 5
#     Node 27, Type 0, BuildingBlock: XOMCOT_clean_sbu_0, # of connection points: 5
#     Node 28, Type 0, BuildingBlock: XOMCOT_clean_sbu_0, # of connection points: 5
#     Node 29, Type 0, BuildingBlock: XOMCOT_clean_sbu_0, # of connection points: 5
#     Node 30, Type 0, BuildingBlock: XOMCOT_clean_sbu_0, # of connection points: 5
#     Node 31, Type 0, BuildingBlock: XOMCOT_clean_sbu_0, # of connection points: 5
#     Edge 32, Type (0, 0), BuildingBlock: ZUJKAS_clean_linker_0, # of connection points: 2
#     Edge 33, Type (0, 0), BuildingBlock: ZUJKAS_clean_linker_0, # of connection points: 2
#     Edge 34, Type (0, 0), BuildingBlock: ZUJKAS_clean_linker_0, # of connection points: 2
#     Edge 35, Type (0, 0), BuildingBlock: ZUJKAS_clean_linker_0, # of connection points: 2
#     Edge 36, Type (0, 0), BuildingBlock: ZUJKAS_clean_linker_0, # of connection points: 2
#     Edge 37, Type (0, 0), BuildingBlock: ZUJKAS_clean_linker_0, # of connection points: 2
#     Edge 38, Type (0, 0), BuildingBlock: ZUJKAS_clean_linker_0, # of connection points: 2
#     Edge 39, Type (0, 0), BuildingBlock: ZUJKAS_clean_linker_0, # of connection points: 2
#     Edge 40, Type (0, 0), BuildingBlock: ZUJKAS_clean_linker_0, # of connection points: 2
#     Edge 41, Type (0, 0), BuildingBlock: ZUJKAS_clean_linker_0, # of connection points: 2
#     Edge 42, Type (0, 0), BuildingBlock: ZUJKAS_clean_linker_0, # of connection points: 2
#     Edge 43, Type (0, 0), BuildingBlock: ZUJKAS_clean_linker_0, # of connection points: 2
#     Edge 44, Type (0, 0), BuildingBlock: ZUJKAS_clean_linker_0, # of connection points: 2
#     Edge 45, Type (0, 0), BuildingBlock: ZUJKAS_clean_linker_0, # of connection points: 2
#     Edge 46, Type (0, 0), BuildingBlock: ZUJKAS_clean_linker_0, # of connection points: 2
#     Edge 47, Type (0, 0), BuildingBlock: ZUJKAS_clean_linker_0, # of connection points: 2
#     Edge 48, Type (0, 0), BuildingBlock: ZUJKAS_clean_linker_0, # of connection points: 2
#     Edge 49, Type (0, 0), BuildingBlock: ZUJKAS_clean_linker_0, # of connection points: 2
#     Edge 50, Type (0, 0), BuildingBlock: ZUJKAS_clean_linker_0, # of connection points: 2
#     Edge 51, Type (0, 0), BuildingBlock: ZUJKAS_clean_linker_0, # of connection points: 2
#     Edge 52, Type (0, 0), BuildingBlock: ZUJKAS_clean_linker_0, # of connection points: 2
#     Edge 53, Type (0, 0), BuildingBlock: ZUJKAS_clean_linker_0, # of connection points: 2
#     Edge 54, Type (0, 0), BuildingBlock: ZUJKAS_clean_linker_0, # of connection points: 2
#     Edge 55, Type (0, 0), BuildingBlock: ZUJKAS_clean_linker_0, # of connection points: 2
#     Edge 56, Type (0, 0), BuildingBlock: ZUJKAS_clean_linker_0, # of connection points: 2
#     Edge 57, Type (0, 0), BuildingBlock: ZUJKAS_clean_linker_0, # of connection points: 2
#     Edge 58, Type (0, 0), BuildingBlock: ZUJKAS_clean_linker_0, # of connection points: 2
#     Edge 59, Type (0, 0), BuildingBlock: ZUJKAS_clean_linker_0, # of connection points: 2
#     Edge 60, Type (0, 0), BuildingBlock: ZUJKAS_clean_linker_0, # of connection points: 2
#     Edge 61, Type (0, 0), BuildingBlock: ZUJKAS_clean_linker_0, # of connection points: 2
#     Edge 62, Type (0, 0), BuildingBlock: ZUJKAS_clean_linker_0, # of connection points: 2
#     Edge 63, Type (0, 0), BuildingBlock: ZUJKAS_clean_linker_0, # of connection points: 2
#     Edge 64, Type (0, 0), BuildingBlock: ZUJKAS_clean_linker_0, # of connection points: 2
#     Edge 65, Type (0, 0), BuildingBlock: ZUJKAS_clean_linker_0, # of connection points: 2
#     Edge 66, Type (0, 0), BuildingBlock: ZUJKAS_clean_linker_0, # of connection points: 2
#     Edge 67, Type (0, 0), BuildingBlock: ZUJKAS_clean_linker_0, # of connection points: 2
#     Edge 68, Type (0, 0), BuildingBlock: ZUJKAS_clean_linker_0, # of connection points: 2
#     Edge 69, Type (0, 0), BuildingBlock: ZUJKAS_clean_linker_0, # of connection points: 2
#     Edge 70, Type (0, 0), BuildingBlock: ZUJKAS_clean_linker_0, # of connection points: 2
#     Edge 71, Type (0, 0), BuildingBlock: ZUJKAS_clean_linker_0, # of connection points: 2
#     Edge 72, Type (0, 0), BuildingBlock: ZUJKAS_clean_linker_0, # of connection points: 2
#     Edge 73, Type (0, 0), BuildingBlock: ZUJKAS_clean_linker_0, # of connection points: 2
#     Edge 74, Type (0, 0), BuildingBlock: ZUJKAS_clean_linker_0, # of connection points: 2
#     Edge 75, Type (0, 0), BuildingBlock: ZUJKAS_clean_linker_0, # of connection points: 2
#     Edge 76, Type (0, 0), BuildingBlock: ZUJKAS_clean_linker_0, # of connection points: 2
#     Edge 77, Type (0, 0), BuildingBlock: ZUJKAS_clean_linker_0, # of connection points: 2
#     Edge 78, Type (0, 0), BuildingBlock: ZUJKAS_clean_linker_0, # of connection points: 2
#     Edge 79, Type (0, 0), BuildingBlock: ZUJKAS_clean_linker_0, # of connection points: 2
#     Edge 80, Type (0, 0), BuildingBlock: ZUJKAS_clean_linker_0, # of connection points: 2
#     Edge 81, Type (0, 0), BuildingBlock: ZUJKAS_clean_linker_0, # of connection points: 2
#     Edge 82, Type (0, 0), BuildingBlock: ZUJKAS_clean_linker_0, # of connection points: 2
#     Edge 83, Type (0, 0), BuildingBlock: ZUJKAS_clean_linker_0, # of connection points: 2
#     Edge 84, Type (0, 0), BuildingBlock: ZUJKAS_clean_linker_0, # of connection points: 2
#     Edge 85, Type (0, 0), BuildingBlock: ZUJKAS_clean_linker_0, # of connection points: 2
#     Edge 86, Type (0, 0), BuildingBlock: ZUJKAS_clean_linker_0, # of connection points: 2
#     Edge 87, Type (0, 0), BuildingBlock: ZUJKAS_clean_linker_0, # of connection points: 2
#     Edge 88, Type (0, 0), BuildingBlock: ZUJKAS_clean_linker_0, # of connection points: 2
#     Edge 89, Type (0, 0), BuildingBlock: ZUJKAS_clean_linker_0, # of connection points: 2
#     Edge 90, Type (0, 0), BuildingBlock: ZUJKAS_clean_linker_0, # of connection points: 2
#     Edge 91, Type (0, 0), BuildingBlock: ZUJKAS_clean_linker_0, # of connection points: 2
#     Edge 92, Type (0, 0), BuildingBlock: ZUJKAS_clean_linker_0, # of connection points: 2
#     Edge 93, Type (0, 0), BuildingBlock: ZUJKAS_clean_linker_0, # of connection points: 2
#     Edge 94, Type (0, 0), BuildingBlock: ZUJKAS_clean_linker_0, # of connection points: 2
#     Edge 95, Type (0, 0), BuildingBlock: ZUJKAS_clean_linker_0, # of connection points: 2
#     Edge 96, Type (0, 0), BuildingBlock: ZUJKAS_clean_linker_0, # of connection points: 2
#     Edge 97, Type (0, 0), BuildingBlock: ZUJKAS_clean_linker_0, # of connection points: 2
#     Edge 98, Type (0, 0), BuildingBlock: ZUJKAS_clean_linker_0, # of connection points: 2
#     Edge 99, Type (0, 0), BuildingBlock: ZUJKAS_clean_linker_0, # of connection points: 2
#     Edge 100, Type (0, 0), BuildingBlock: ZUJKAS_clean_linker_0, # of connection points: 2
#     Edge 101, Type (0, 0), BuildingBlock: ZUJKAS_clean_linker_0, # of connection points: 2
#     Edge 102, Type (0, 0), BuildingBlock: ZUJKAS_clean_linker_0, # of connection points: 2
#     Edge 103, Type (0, 0), BuildingBlock: ZUJKAS_clean_linker_0, # of connection points: 2
#     Edge 104, Type (0, 0), BuildingBlock: ZUJKAS_clean_linker_0, # of connection points: 2
#     Edge 105, Type (0, 0), BuildingBlock: ZUJKAS_clean_linker_0, # of connection points: 2
#     Edge 106, Type (0, 0), BuildingBlock: ZUJKAS_clean_linker_0, # of connection points: 2
#     Edge 107, Type (0, 0), BuildingBlock: ZUJKAS_clean_linker_0, # of connection points: 2
#     Edge 108, Type (0, 0), BuildingBlock: ZUJKAS_clean_linker_0, # of connection points: 2
#     Edge 109, Type (0, 0), BuildingBlock: ZUJKAS_clean_linker_0, # of connection points: 2
#     Edge 110, Type (0, 0), BuildingBlock: ZUJKAS_clean_linker_0, # of connection points: 2
#     Edge 111, Type (0, 0), BuildingBlock: ZUJKAS_clean_linker_0, # of connection points: 2
# Relax obj value: 0.366
# Max RMSD: 0.242
# Mean RMSD: 0.242
data_MOF--net-yfu--node1-XOMCOT_clean_sbu_0--edge1-ZUJKAS_clean_linker_0
_symmetry_space_group_name_H-M    P1
_symmetry_Int_Tables_number       1
_symmetry_cell_setting            triclinic
loop_
_symmetry_equiv_pos_as_xyz
'x, y, z'
_cell_length_a     54.946199
_cell_length_b     54.947354
_cell_length_c     123.46998
_cell_angle_alpha  90.026259
_cell_angle_beta   89.998393
_cell_angle_gamma 90.010059
loop_
_atom_site_label
_atom_site_type_symbol
_atom_site_fract_x
_atom_site_fract_y
_atom_site_fract_z
_atom_type_partial_charge
Co0 Co 0.06115 0.06672 0.34087 0.0
C1 C 0.07697 0.01713 0.34726 0.0
C2 C 0.04348 0.02724 0.35485 0.0
C3 C 0.0511 0.00555 0.35922 0.0
N4 N 0.05936 0.0343 0.34712 0.0
N5 N 0.07229 0.99928 0.35449 0.0
H6 H 0.0938 0.01856 0.34284 0.0
H7 H 0.02849 0.03805 0.35783 0.0
C8 C 0.00745 0.05586 0.33977 0.0
O9 O 0.01185 0.03479 0.33513 0.0
N10 N 0.06302 0.09923 0.3351 0.0
C11 C 0.07871 0.10748 0.32758 0.0
C12 C 0.07498 0.13208 0.32627 0.0
C13 C 0.05011 0.11876 0.33832 0.0
N14 N 0.057 0.13919 0.33304 0.0
C15 C 0.07717 0.03996 0.32211 0.0
C16 C 0.04018 0.05508 0.30853 0.0
C17 C 0.05816 0.03953 0.30439 0.0
C18 C 0.07694 0.03212 0.31134 0.0
C19 C 0.04123 0.06262 0.31931 0.0
N20 N 0.05899 0.05428 0.32611 0.0
H21 H 0.09261 0.03537 0.32704 0.0
H22 H 0.02798 0.07571 0.3221 0.0
H23 H 0.09218 0.09644 0.32349 0.0
H24 H 0.03605 0.11794 0.34444 0.0
O25 O 0.09619 0.06685 0.34275 0.0
O26 O 0.06917 0.07912 0.35495 0.0
O27 O 0.02487 0.07031 0.34214 0.0
C28 C 0.09186 0.07591 0.35232 0.0
H29 H 0.04274 0.99625 0.36599 0.0
H30 H 0.08522 0.14387 0.32094 0.0
H31 H 0.02543 0.06157 0.30348 0.0
H32 H 0.09184 0.02103 0.30842 0.0
Co33 Co 0.19396 0.79586 0.59195 0.0
C34 C 0.24296 0.81324 0.59862 0.0
C35 C 0.23248 0.78058 0.60682 0.0
C36 C 0.25357 0.78906 0.61145 0.0
N37 N 0.22599 0.79542 0.59861 0.0
N38 N 0.26006 0.80969 0.60632 0.0
H39 H 0.24157 0.82979 0.59398 0.0
H40 H 0.22165 0.76561 0.60983 0.0
C41 C 0.20899 0.74347 0.59057 0.0
O42 O 0.2307 0.75017 0.58724 0.0
N43 N 0.1618 0.79654 0.58573 0.0
C44 C 0.15402 0.81163 0.57787 0.0
C45 C 0.12984 0.80694 0.5759 0.0
C46 C 0.14229 0.78311 0.58856 0.0
N47 N 0.12249 0.78905 0.58263 0.0
C48 C 0.2188 0.81603 0.57342 0.0
C49 C 0.20636 0.77896 0.55933 0.0
C50 C 0.21798 0.79963 0.55517 0.0
C51 C 0.22457 0.8182 0.56241 0.0
C52 C 0.20069 0.77768 0.5703 0.0
N53 N 0.20725 0.79583 0.5773 0.0
H54 H 0.22208 0.83141 0.57862 0.0
H55 H 0.18956 0.76268 0.57296 0.0
H56 H 0.1651 0.82529 0.57393 0.0
H57 H 0.14261 0.76933 0.59482 0.0
O58 O 0.1916 0.83059 0.59455 0.0
O59 O 0.18027 0.80163 0.60601 0.0
O60 O 0.1925 0.7593 0.59245 0.0
C61 C 0.18228 0.82471 0.6039 0.0
H62 H 0.26262 0.78141 0.61845 0.0
H63 H 0.1184 0.81641 0.57014 0.0
H64 H 0.20086 0.76414 0.5541 0.0
H65 H 0.23288 0.83485 0.55954 0.0
Co66 Co 0.44435 0.94409 0.84098 0.0
C67 C 0.42447 0.99064 0.84884 0.0
C68 C 0.45778 0.98123 0.8569 0.0
C69 C 0.44866 0.00209 0.86153 0.0
N70 N 0.44261 0.97414 0.84896 0.0
N71 N 0.42764 0.00799 0.85649 0.0
H72 H 0.40899 0.98945 0.84345 0.0
H73 H 0.47373 0.97131 0.8595 0.0
C74 C 0.49738 0.93752 0.83573 0.0
O75 O 0.49198 0.93033 0.82587 0.0
N76 N 0.44633 0.91327 0.83326 0.0
C77 C 0.43554 0.90616 0.82396 0.0
C78 C 0.44126 0.88219 0.82201 0.0
C79 C 0.45805 0.89326 0.83691 0.0
N80 N 0.45539 0.8741 0.83016 0.0
C81 C 0.42274 0.96283 0.82159 0.0
C82 C 0.4628 0.98823 0.81422 0.0
C83 C 0.44248 0.98593 0.80741 0.0
C84 C 0.42192 0.97379 0.81142 0.0
C85 C 0.46281 0.97691 0.82437 0.0
N86 N 0.44367 0.96271 0.82754 0.0
H87 H 0.40678 0.95335 0.82445 0.0
H88 H 0.47831 0.97956 0.82958 0.0
H89 H 0.42372 0.91693 0.81895 0.0
H90 H 0.46838 0.89283 0.84437 0.0
O91 O 0.40972 0.93908 0.84314 0.0
O92 O 0.43889 0.92645 0.85418 0.0
O93 O 0.48078 0.94499 0.84214 0.0
C94 C 0.4158 0.92783 0.85202 0.0
H95 H 0.45635 0.01139 0.86846 0.0
H96 H 0.43482 0.87133 0.81528 0.0
H97 H 0.47863 0.99852 0.81171 0.0
H98 H 0.40561 0.97182 0.80658 0.0
Co99 Co 0.30371 0.19216 0.09311 0.0
C100 C 0.25533 0.17336 0.09914 0.0
C101 C 0.2609 0.20968 0.10505 0.0
C102 C 0.23862 0.20159 0.10863 0.0
N103 N 0.27132 0.19197 0.09911 0.0
N104 N 0.23518 0.17869 0.10497 0.0
H105 H 0.25891 0.15593 0.09539 0.0
H106 H 0.26915 0.22702 0.10697 0.0
C107 C 0.31258 0.24453 0.08706 0.0
O108 O 0.32181 0.23803 0.07767 0.0
N109 N 0.33669 0.1925 0.08733 0.0
C110 C 0.34656 0.17805 0.07966 0.0
C111 C 0.37071 0.18388 0.07846 0.0
C112 C 0.35539 0.20631 0.09096 0.0
N113 N 0.37625 0.20169 0.08554 0.0
C114 C 0.29081 0.16904 0.0731 0.0
C115 C 0.26788 0.20846 0.06373 0.0
C116 C 0.27194 0.18756 0.05746 0.0
C117 C 0.28275 0.16736 0.06242 0.0
C118 C 0.27634 0.20933 0.07441 0.0
N119 N 0.28946 0.19047 0.07866 0.0
H120 H 0.29859 0.15309 0.07681 0.0
H121 H 0.27234 0.22526 0.07918 0.0
H122 H 0.33749 0.16363 0.07537 0.0
H123 H 0.35367 0.21964 0.09737 0.0
O124 O 0.30714 0.15773 0.09612 0.0
O125 O 0.31677 0.18765 0.10742 0.0
O126 O 0.3036 0.22869 0.09346 0.0
C127 C 0.31551 0.16443 0.10552 0.0
H128 H 0.22614 0.21172 0.11369 0.0
H129 H 0.38341 0.17519 0.07298 0.0
H130 H 0.25881 0.22423 0.06036 0.0
H131 H 0.28505 0.15039 0.05807 0.0
Co132 Co 0.05425 0.93795 0.15616 0.0
C133 C 0.06755 0.98752 0.1489 0.0
C134 C 0.03209 0.97752 0.14333 0.0
C135 C 0.03839 0.99929 0.13861 0.0
N136 N 0.05016 0.97031 0.15002 0.0
N137 N 0.0608 0.00549 0.14207 0.0
H138 H 0.08578 0.98576 0.15205 0.0
H139 H 0.01627 0.96686 0.14124 0.0
C140 C -0.00013 0.94482 0.15898 0.0
O141 O 0.00284 0.96585 0.16387 0.0
N142 N 0.0584 0.90555 0.16184 0.0
C143 C 0.07473 0.89812 0.16925 0.0
C144 C 0.07209 0.87339 0.17067 0.0
C145 C 0.04626 0.88541 0.15876 0.0
N146 N 0.05418 0.8654 0.16405 0.0
C147 C 0.07071 0.96661 0.1743 0.0
C148 C 0.03762 0.94826 0.18905 0.0
C149 C 0.05471 0.96545 0.1926 0.0
C150 C 0.07149 0.97456 0.18505 0.0
C151 C 0.03761 0.94069 0.17826 0.0
N152 N 0.05347 0.95044 0.17092 0.0
H153 H 0.08463 0.97278 0.16883 0.0
H154 H 0.02512 0.92649 0.17588 0.0
H155 H 0.08762 0.90986 0.17332 0.0
H156 H 0.03226 0.88544 0.1526 0.0
O157 O 0.08898 0.93941 0.15327 0.0
O158 O 0.06071 0.92576 0.14194 0.0
O159 O 0.01818 0.93236 0.15587 0.0
C160 C 0.08357 0.92988 0.1439 0.0
H161 H 0.02784 0.00902 0.13261 0.0
H162 H 0.08241 0.86227 0.17625 0.0
H163 H 0.02437 0.94053 0.19455 0.0
H164 H 0.08565 0.98714 0.18748 0.0
Co165 Co 0.30028 0.79583 0.40708 0.0
C166 C 0.25616 0.81949 0.3986 0.0
C167 C 0.26294 0.78517 0.39084 0.0
C168 C 0.24281 0.79563 0.38614 0.0
N169 N 0.27118 0.80014 0.39865 0.0
N170 N 0.23859 0.81725 0.391 0.0
H171 H 0.25836 0.835 0.40391 0.0
H172 H 0.27145 0.76824 0.38847 0.0
C173 C 0.29906 0.74266 0.41333 0.0
O174 O 0.30462 0.74761 0.42343 0.0
N175 N 0.33015 0.79106 0.41546 0.0
C176 C 0.33334 0.79107 0.42632 0.0
C177 C 0.35731 0.78637 0.42864 0.0
C178 C 0.35246 0.78597 0.4114 0.0
N179 N 0.36935 0.78316 0.41925 0.0
C180 C 0.28505 0.82078 0.42618 0.0
C181 C 0.25183 0.78644 0.43316 0.0
C182 C 0.25795 0.80574 0.44011 0.0
C183 C 0.27406 0.82359 0.43628 0.0
C184 C 0.26341 0.78426 0.42312 0.0
N185 N 0.28113 0.80032 0.42015 0.0
H186 H 0.29831 0.83408 0.42361 0.0
H187 H 0.25847 0.76936 0.41786 0.0
H188 H 0.31935 0.79311 0.43236 0.0
H189 H 0.35622 0.78366 0.40287 0.0
O190 O 0.30938 0.82939 0.40436 0.0
O191 O 0.31899 0.79797 0.39394 0.0
O192 O 0.29518 0.7597 0.40654 0.0
C193 C 0.32018 0.82126 0.39569 0.0
H194 H 0.23274 0.78831 0.37934 0.0
H195 H 0.36515 0.78527 0.43666 0.0
H196 H 0.2386 0.77284 0.43553 0.0
H197 H 0.27936 0.83892 0.44127 0.0
Co198 Co 0.43697 0.05996 0.65652 0.0
C199 C 0.4221 0.01022 0.64986 0.0
C200 C 0.45444 0.02191 0.64177 0.0
C201 C 0.44703 0.0003 0.63724 0.0
N202 N 0.43914 0.02796 0.64987 0.0
N203 N 0.42654 0.99298 0.64229 0.0
H204 H 0.40579 0.01082 0.65468 0.0
H205 H 0.46885 0.03338 0.63869 0.0
C206 C 0.49092 0.05007 0.65706 0.0
O207 O 0.48714 0.0284 0.66124 0.0
N208 N 0.43466 0.09205 0.66272 0.0
C209 C 0.41965 0.0992 0.67074 0.0
C210 C 0.42373 0.12349 0.67278 0.0
C211 C 0.4474 0.112 0.65988 0.0
N212 N 0.44115 0.13149 0.66594 0.0
C213 C 0.42139 0.03279 0.67526 0.0
C214 C 0.45857 0.04818 0.6887 0.0
C215 C 0.44025 0.03334 0.69299 0.0
C216 C 0.42146 0.02562 0.68612 0.0
C217 C 0.45769 0.05506 0.67784 0.0
N218 N 0.4397 0.04679 0.67113 0.0
H219 H 0.40587 0.02816 0.67037 0.0
H220 H 0.47091 0.06812 0.67501 0.0
H221 H 0.40671 0.08753 0.67481 0.0
H222 H 0.46116 0.11213 0.6536 0.0
O223 O 0.40186 0.05966 0.65472 0.0
O224 O 0.42859 0.0731 0.64265 0.0
O225 O 0.47312 0.06433 0.65513 0.0
C226 C 0.40598 0.06948 0.64528 0.0
H227 H 0.45504 0.99177 0.63019 0.0
H228 H 0.41438 0.13449 0.67874 0.0
H229 H 0.47287 0.05542 0.69381 0.0
H230 H 0.40665 0.01456 0.68916 0.0
Co231 Co 0.18794 0.19561 0.90733 0.0
C232 C 0.23719 0.17979 0.90029 0.0
C233 C 0.22622 0.21312 0.89279 0.0
C234 C 0.24749 0.2055 0.88801 0.0
N235 N 0.21993 0.1973 0.90067 0.0
N236 N 0.2543 0.18447 0.89272 0.0
H237 H 0.23606 0.16271 0.90455 0.0
H238 H 0.21516 0.22821 0.89008 0.0
C239 C 0.20138 0.24838 0.90959 0.0
O240 O 0.22332 0.24223 0.91282 0.0
N241 N 0.15583 0.19376 0.91354 0.0
C242 C 0.14781 0.177 0.92063 0.0
C243 C 0.12362 0.18145 0.92273 0.0
C244 C 0.13654 0.20804 0.91133 0.0
N245 N 0.11654 0.20098 0.91688 0.0
C246 C 0.21428 0.17539 0.92548 0.0
C247 C 0.20083 0.21109 0.94008 0.0
C248 C 0.21457 0.19133 0.9438 0.0
C249 C 0.22145 0.17337 0.93632 0.0
C250 C 0.194 0.21233 0.92924 0.0
N251 N 0.20127 0.19502 0.92196 0.0
H252 H 0.21802 0.16043 0.92011 0.0
H253 H 0.1818 0.22673 0.92686 0.0
H254 H 0.15873 0.16241 0.92394 0.0
H255 H 0.13724 0.22326 0.90579 0.0
O256 O 0.18636 0.161 0.90425 0.0
O257 O 0.17434 0.19052 0.89322 0.0
O258 O 0.18556 0.23211 0.90737 0.0
C259 C 0.17679 0.16736 0.89501 0.0
H260 H 0.2565 0.21407 0.88122 0.0
H261 H 0.11206 0.17073 0.92798 0.0
H262 H 0.19489 0.22531 0.94555 0.0
H263 H 0.23131 0.15733 0.93891 0.0
Co264 Co 0.95168 0.94279 0.65663 0.0
C265 C 0.93351 0.9897 0.64858 0.0
C266 C 0.96997 0.98289 0.64312 0.0
C267 C 0.96193 0.00427 0.63854 0.0
N268 N 0.95211 0.97385 0.6494 0.0
N269 N 0.93893 0.00845 0.64192 0.0
H270 H 0.91596 0.98684 0.65234 0.0
H271 H 0.98728 0.97418 0.64163 0.0
C272 C 0.00297 0.93393 0.66408 0.0
O273 O 0.99493 0.92383 0.67303 0.0
N274 N 0.95127 0.91102 0.66361 0.0
C275 C 0.93798 0.90308 0.67209 0.0
C276 C 0.94262 0.87878 0.67369 0.0
C277 C 0.96339 0.89114 0.66005 0.0
N278 N 0.95858 0.87122 0.66611 0.0
C279 C 0.92634 0.95966 0.67554 0.0
C280 C 0.9654 0.98292 0.68506 0.0
C281 C 0.94396 0.97998 0.69109 0.0
C282 C 0.92391 0.96904 0.686 0.0
C283 C 0.96705 0.97308 0.67466 0.0
N284 N 0.94833 0.9598 0.67041 0.0
H285 H 0.91078 0.95108 0.67181 0.0
H286 H 0.98352 0.97614 0.67012 0.0
H287 H 0.92532 0.91358 0.6768 0.0
H288 H 0.97522 0.89131 0.65305 0.0
O289 O 0.91765 0.93868 0.65277 0.0
O290 O 0.94913 0.92674 0.64286 0.0
O291 O 0.98824 0.94325 0.65725 0.0
C292 C 0.92568 0.92815 0.64402 0.0
H293 H 0.97211 0.01553 0.63295 0.0
H294 H 0.93479 0.86763 0.68002 0.0
H295 H 0.9809 0.99254 0.68838 0.0
H296 H 0.90675 0.96675 0.69018 0.0
Co297 Co 0.80853 0.18944 0.40671 0.0
C298 C 0.75866 0.1748 0.40023 0.0
C299 C 0.7675 0.21037 0.39443 0.0
C300 C 0.7455 0.2036 0.39007 0.0
N301 N 0.77561 0.19257 0.40104 0.0
N302 N 0.74003 0.18112 0.39367 0.0
H303 H 0.76099 0.15669 0.40346 0.0
H304 H 0.77764 0.22633 0.39208 0.0
C305 C 0.80127 0.24388 0.40891 0.0
O306 O 0.78101 0.24095 0.41442 0.0
N307 N 0.84144 0.18611 0.41198 0.0
C308 C 0.84959 0.16891 0.41883 0.0
C309 C 0.87407 0.17253 0.42051 0.0
C310 C 0.86097 0.19988 0.40952 0.0
N311 N 0.88125 0.19206 0.41468 0.0
C312 C 0.78136 0.17469 0.42554 0.0
C313 C 0.80184 0.20825 0.43953 0.0
C314 C 0.785 0.19147 0.44361 0.0
C315 C 0.77476 0.17446 0.43647 0.0
C316 C 0.8081 0.20768 0.42859 0.0
N317 N 0.79739 0.1915 0.42165 0.0
H318 H 0.77422 0.16073 0.42033 0.0
H319 H 0.82214 0.21987 0.42576 0.0
H320 H 0.83848 0.15469 0.42234 0.0
H321 H 0.86023 0.21543 0.40416 0.0
O322 O 0.80753 0.15446 0.40466 0.0
O323 O 0.81936 0.18157 0.39237 0.0
O324 O 0.8135 0.22554 0.40565 0.0
C325 C 0.81589 0.15894 0.39498 0.0
H326 H 0.73511 0.21394 0.38423 0.0
H327 H 0.88568 0.16135 0.42554 0.0
H328 H 0.81079 0.22118 0.44483 0.0
H329 H 0.76194 0.16094 0.43933 0.0
Co330 Co 0.55648 0.05786 0.1543 0.0
C331 C 0.57017 0.00769 0.14793 0.0
C332 C 0.53454 0.01695 0.14233 0.0
C333 C 0.54098 0.99494 0.13788 0.0
N334 N 0.55261 0.02482 0.14886 0.0
N335 N 0.5635 0.98922 0.14135 0.0
H336 H 0.58843 0.00985 0.15102 0.0
H337 H 0.51865 0.02733 0.14008 0.0
C338 C 0.5025 0.05052 0.15754 0.0
O339 O 0.50627 0.02989 0.16265 0.0
N340 N 0.56048 0.09089 0.15929 0.0
C341 C 0.57725 0.09905 0.16635 0.0
C342 C 0.57394 0.12368 0.16774 0.0
C343 C 0.54737 0.11054 0.15638 0.0
N344 N 0.55513 0.13093 0.16146 0.0
C345 C 0.57274 0.0313 0.17314 0.0
C346 C 0.54043 0.05274 0.18742 0.0
C347 C 0.55755 0.03617 0.19146 0.0
C348 C 0.57383 0.02534 0.18414 0.0
C349 C 0.54011 0.0583 0.17641 0.0
N350 N 0.55569 0.0472 0.16934 0.0
H351 H 0.58631 0.0239 0.16779 0.0
H352 H 0.52768 0.07219 0.17364 0.0
H353 H 0.59076 0.08779 0.1703 0.0
H354 H 0.53265 0.10988 0.15057 0.0
O355 O 0.59118 0.05644 0.15154 0.0
O356 O 0.563 0.06836 0.1398 0.0
O357 O 0.52034 0.06305 0.15397 0.0
C358 C 0.58588 0.06475 0.14193 0.0
H359 H 0.53045 0.98475 0.13202 0.0
H360 H 0.58433 0.13518 0.17315 0.0
H361 H 0.52747 0.06162 0.19271 0.0
H362 H 0.58789 0.01304 0.18693 0.0
Co363 Co 0.69476 0.79815 0.90676 0.0
C364 C 0.73939 0.81869 0.89734 0.0
C365 C 0.7327 0.78251 0.89149 0.0
C366 C 0.75299 0.79156 0.88635 0.0
N367 N 0.72426 0.79955 0.89837 0.0
N368 N 0.75711 0.81438 0.88999 0.0
H369 H 0.73677 0.83578 0.90153 0.0
H370 H 0.72433 0.765 0.89005 0.0
C371 C 0.69013 0.74568 0.91353 0.0
O372 O 0.68342 0.75208 0.92334 0.0
N373 N 0.66457 0.79649 0.91495 0.0
C374 C 0.65755 0.80886 0.92388 0.0
C375 C 0.63395 0.80263 0.92634 0.0
C376 C 0.64483 0.7834 0.91201 0.0
N377 N 0.62598 0.78666 0.91887 0.0
C378 C 0.71399 0.82256 0.92544 0.0
C379 C 0.74034 0.78379 0.93346 0.0
C380 C 0.73728 0.80446 0.94 0.0
C381 C 0.72483 0.82446 0.93563 0.0
C382 C 0.72909 0.78269 0.92332 0.0
N383 N 0.71425 0.80108 0.9199 0.0
H384 H 0.70416 0.83802 0.9223 0.0
H385 H 0.73211 0.76683 0.91836 0.0
H386 H 0.66807 0.82212 0.92823 0.0
H387 H 0.64434 0.77168 0.90496 0.0
O388 O 0.6887 0.8323 0.90369 0.0
O389 O 0.67597 0.80119 0.89373 0.0
O390 O 0.69652 0.76168 0.90661 0.0
C391 C 0.67687 0.82456 0.89521 0.0
H392 H 0.76362 0.78214 0.88028 0.0
H393 H 0.6232 0.81 0.93292 0.0
H394 H 0.75101 0.76842 0.93622 0.0
H395 H 0.72237 0.84108 0.94022 0.0
Co396 Co 0.93943 0.06153 0.84068 0.0
C397 C 0.92102 0.01363 0.84755 0.0
C398 C 0.95666 0.02072 0.85394 0.0
C399 C 0.94867 0.99875 0.85793 0.0
N400 N 0.93932 0.02995 0.84743 0.0
N401 N 0.92619 0.99438 0.85396 0.0
H402 H 0.90388 0.01641 0.84342 0.0
H403 H 0.97359 0.02964 0.85597 0.0
C404 C 0.99155 0.07068 0.83435 0.0
O405 O 0.98449 0.08155 0.82541 0.0
N406 N 0.93961 0.09378 0.83419 0.0
C407 C 0.92666 0.10239 0.82572 0.0
C408 C 0.93187 0.12666 0.82437 0.0
C409 C 0.95192 0.11325 0.83804 0.0
N410 N 0.94779 0.13346 0.8321 0.0
C411 C 0.91565 0.04603 0.82119 0.0
C412 C 0.95553 0.02424 0.81164 0.0
C413 C 0.93432 0.02751 0.80549 0.0
C414 C 0.91389 0.03762 0.81056 0.0
C415 C 0.95649 0.03304 0.82226 0.0
N416 N 0.93735 0.04565 0.82657 0.0
H417 H 0.89974 0.05396 0.8249 0.0
H418 H 0.97278 0.02982 0.8269 0.0
H419 H 0.91375 0.09239 0.82093 0.0
H420 H 0.96394 0.11249 0.84498 0.0
O421 O 0.90509 0.0653 0.84385 0.0
O422 O 0.93526 0.07649 0.85467 0.0
O423 O 0.97605 0.06108 0.84076 0.0
C424 C 0.91196 0.07515 0.85294 0.0
H425 H 0.95856 0.98717 0.86348 0.0
H426 H 0.92402 0.13855 0.81832 0.0
H427 H 0.97152 0.01576 0.80818 0.0
H428 H 0.89678 0.03946 0.80628 0.0
Co429 Co 0.69372 0.19087 0.59214 0.0
C430 C 0.74192 0.17381 0.59923 0.0
C431 C 0.73349 0.20893 0.60586 0.0
C432 C 0.75551 0.20142 0.60998 0.0
N433 N 0.72506 0.19161 0.59912 0.0
N434 N 0.76073 0.17926 0.60586 0.0
H435 H 0.73983 0.15676 0.59494 0.0
H436 H 0.72398 0.22549 0.60795 0.0
C437 C 0.68264 0.24267 0.58624 0.0
O438 O 0.67343 0.2354 0.57696 0.0
N439 N 0.66169 0.19008 0.58539 0.0
C440 C 0.65394 0.17676 0.57687 0.0
C441 C 0.62962 0.18117 0.57523 0.0
C442 C 0.64161 0.20177 0.58901 0.0
N443 N 0.62188 0.19696 0.58283 0.0
C444 C 0.71097 0.16958 0.57232 0.0
C445 C 0.73351 0.21067 0.56428 0.0
C446 C 0.7317 0.19007 0.55762 0.0
C447 C 0.72096 0.16904 0.56193 0.0
C448 C 0.72309 0.21041 0.5746 0.0
N449 N 0.71027 0.19065 0.57816 0.0
H450 H 0.70312 0.15309 0.57553 0.0
H451 H 0.72554 0.22617 0.57969 0.0
H452 H 0.66457 0.16408 0.57223 0.0
H453 H 0.64158 0.21384 0.59594 0.0
O454 O 0.69119 0.15615 0.59472 0.0
O455 O 0.6787 0.18511 0.60597 0.0
O456 O 0.6924 0.22745 0.59273 0.0
C457 C 0.6811 0.16207 0.60388 0.0
H458 H 0.76653 0.21136 0.61574 0.0
H459 H 0.61834 0.17286 0.56906 0.0
H460 H 0.74288 0.22689 0.56156 0.0
H461 H 0.71955 0.15245 0.55724 0.0
Co462 Co 0.55399 0.94342 0.33989 0.0
C463 C 0.57139 0.99108 0.34751 0.0
C464 C 0.53529 0.98358 0.35325 0.0
C465 C 0.54296 0.00528 0.35766 0.0
N466 N 0.55314 0.97475 0.3469 0.0
N467 N 0.56574 0.0099 0.35411 0.0
H468 H 0.58888 0.98854 0.34365 0.0
H469 H 0.51825 0.97451 0.35493 0.0
C470 C 0.50239 0.93242 0.33346 0.0
O471 O 0.50998 0.9229 0.3243 0.0
N472 N 0.55482 0.91143 0.33313 0.0
C473 C 0.56752 0.90363 0.32443 0.0
C474 C 0.56284 0.87931 0.32284 0.0
C475 C 0.5432 0.89144 0.33687 0.0
N476 N 0.54752 0.87169 0.33065 0.0
C477 C 0.57736 0.96052 0.32061 0.0
C478 C 0.53707 0.98217 0.31134 0.0
C479 C 0.55849 0.98011 0.30524 0.0
C480 C 0.57907 0.96996 0.31016 0.0
C481 C 0.53615 0.97232 0.32178 0.0
N482 N 0.5556 0.95994 0.32594 0.0
H483 H 0.59342 0.95267 0.32422 0.0
H484 H 0.51969 0.97462 0.3264 0.0
H485 H 0.57978 0.91428 0.31958 0.0
H486 H 0.53142 0.89153 0.34389 0.0
O487 O 0.58842 0.9406 0.34305 0.0
O488 O 0.55854 0.92806 0.35374 0.0
O489 O 0.51737 0.94252 0.33997 0.0
C490 C 0.58179 0.93022 0.35205 0.0
H491 H 0.53269 0.01644 0.36325 0.0
H492 H 0.57056 0.86798 0.31654 0.0
H493 H 0.52095 0.99062 0.30798 0.0
H494 H 0.59628 0.96897 0.3059 0.0
Co495 Co 0.80403 0.80157 0.09168 0.0
C496 C 0.75489 0.81999 0.09665 0.0
C497 C 0.75887 0.78256 0.10127 0.0
C498 C 0.73637 0.79056 0.10461 0.0
N499 N 0.77046 0.80103 0.09629 0.0
N500 N 0.73396 0.81416 0.10179 0.0
H501 H 0.75939 0.83804 0.09379 0.0
H502 H 0.76655 0.76482 0.10284 0.0
C503 C 0.81517 0.75036 0.08488 0.0
O504 O 0.82697 0.75871 0.0764 0.0
N505 N 0.83817 0.80216 0.08742 0.0
C506 C 0.84992 0.8191 0.08147 0.0
C507 C 0.87447 0.81446 0.08175 0.0
C508 C 0.85604 0.78791 0.0915 0.0
N509 N 0.87831 0.79483 0.08804 0.0
C510 C 0.79616 0.82528 0.07121 0.0
C511 C 0.7743 0.78638 0.06092 0.0
C512 C 0.78022 0.8071 0.05484 0.0
C513 C 0.7905 0.82705 0.06022 0.0
C514 C 0.78038 0.7854 0.0719 0.0
N515 N 0.79299 0.80396 0.07669 0.0
H516 H 0.80313 0.84116 0.07529 0.0
H517 H 0.77502 0.76958 0.07648 0.0
H518 H 0.8418 0.83462 0.0776 0.0
H519 H 0.85287 0.77326 0.09719 0.0
O520 O 0.80639 0.8358 0.09524 0.0
O521 O 0.81399 0.80531 0.10654 0.0
O522 O 0.80431 0.76493 0.09133 0.0
C523 C 0.81317 0.82864 0.10482 0.0
H524 H 0.72316 0.77996 0.10908 0.0
H525 H 0.88846 0.82494 0.07771 0.0
H526 H 0.76559 0.77081 0.05719 0.0
H527 H 0.79412 0.84393 0.05598 0.0
Co528 Co 0.54839 0.55842 0.84379 0.0
C529 C 0.56413 0.5094 0.85125 0.0
C530 C 0.53156 0.52138 0.85912 0.0
C531 C 0.53911 0.50016 0.86397 0.0
N532 N 0.54695 0.527 0.85097 0.0
N533 N 0.55965 0.49272 0.85902 0.0
H534 H 0.58082 0.50992 0.84668 0.0
H535 H 0.51672 0.53277 0.86184 0.0
C536 C 0.49618 0.54337 0.84165 0.0
O537 O 0.50318 0.52135 0.83889 0.0
N538 N 0.54994 0.59004 0.83708 0.0
C539 C 0.56558 0.59728 0.82934 0.0
C540 C 0.56175 0.62161 0.82733 0.0
C541 C 0.53697 0.60997 0.83976 0.0
N542 N 0.54381 0.62964 0.83392 0.0
C543 C 0.5705 0.53174 0.82619 0.0
C544 C 0.53423 0.54129 0.81128 0.0
C545 C 0.55476 0.52825 0.80792 0.0
C546 C 0.57313 0.52356 0.81551 0.0
C547 C 0.53243 0.54926 0.82196 0.0
N548 N 0.54998 0.54376 0.82942 0.0
H549 H 0.58561 0.52957 0.83165 0.0
H550 H 0.51744 0.56105 0.824 0.0
H551 H 0.57905 0.58576 0.82553 0.0
H552 H 0.52339 0.61013 0.84611 0.0
O553 O 0.58282 0.56066 0.84723 0.0
O554 O 0.5525 0.57346 0.85768 0.0
O555 O 0.51184 0.56008 0.84344 0.0
C556 C 0.57578 0.57101 0.85621 0.0
H557 H 0.53078 0.49157 0.87093 0.0
H558 H 0.5715 0.63248 0.82146 0.0
H559 H 0.52014 0.54637 0.80558 0.0
H560 H 0.58962 0.51411 0.81319 0.0
Co561 Co 0.69107 0.2981 0.09274 0.0
C562 C 0.73795 0.31741 0.1004 0.0
C563 C 0.73047 0.28214 0.10709 0.0
C564 C 0.75175 0.29076 0.11155 0.0
N565 N 0.72193 0.29886 0.1001 0.0
N566 N 0.75639 0.31301 0.10738 0.0
H567 H 0.7357 0.334 0.09579 0.0
H568 H 0.72133 0.26534 0.10916 0.0
C569 C 0.68505 0.2467 0.08491 0.0
O570 O 0.67405 0.25449 0.07612 0.0
N571 N 0.65935 0.29713 0.08565 0.0
C572 C 0.65163 0.30777 0.07641 0.0
C573 C 0.62735 0.30269 0.07496 0.0
C574 C 0.63938 0.28596 0.08971 0.0
N575 N 0.61964 0.28903 0.08333 0.0
C576 C 0.70706 0.32487 0.07406 0.0
C577 C 0.73287 0.28743 0.06454 0.0
C578 C 0.72911 0.30891 0.05864 0.0
C579 C 0.71688 0.32818 0.06372 0.0
C580 C 0.72266 0.28491 0.07483 0.0
N581 N 0.7082 0.30275 0.07907 0.0
H582 H 0.69717 0.33969 0.07774 0.0
H583 H 0.72641 0.26849 0.07929 0.0
H584 H 0.66229 0.31877 0.071 0.0
H585 H 0.63937 0.2756 0.09716 0.0
O586 O 0.68548 0.33177 0.09678 0.0
O587 O 0.67471 0.2995 0.10648 0.0
O588 O 0.69344 0.26168 0.09187 0.0
C589 C 0.67522 0.32301 0.10545 0.0
H590 H 0.76226 0.2818 0.1178 0.0
H591 H 0.61608 0.30912 0.06836 0.0
H592 H 0.74341 0.27257 0.06119 0.0
H593 H 0.71389 0.3453 0.0596 0.0
Co594 Co 0.94344 0.4489 0.34372 0.0
C595 C 0.92459 0.49683 0.35016 0.0
C596 C 0.95983 0.48999 0.35702 0.0
C597 C 0.95127 0.51173 0.36103 0.0
N598 N 0.94307 0.48075 0.35021 0.0
N599 N 0.92903 0.51595 0.35677 0.0
H600 H 0.90794 0.4941 0.34565 0.0
H601 H 0.97653 0.48102 0.35935 0.0
C602 C 0.99596 0.44143 0.33741 0.0
O603 O 0.98954 0.43329 0.32782 0.0
N604 N 0.94382 0.41639 0.33747 0.0
C605 C 0.92736 0.40626 0.33072 0.0
C606 C 0.93308 0.38218 0.32922 0.0
C607 C 0.95878 0.3979 0.34029 0.0
N608 N 0.95292 0.3769 0.3352 0.0
C609 C 0.92061 0.46206 0.32369 0.0
C610 C 0.95992 0.48594 0.3147 0.0
C611 C 0.93964 0.48091 0.30817 0.0
C612 C 0.91938 0.46981 0.31296 0.0
C613 C 0.96032 0.4778 0.32543 0.0
N614 N 0.94168 0.46405 0.32946 0.0
H615 H 0.90461 0.45411 0.32728 0.0
H616 H 0.97587 0.48224 0.33039 0.0
H617 H 0.91141 0.415 0.32751 0.0
H618 H 0.97347 0.39978 0.34605 0.0
O619 O 0.90901 0.44508 0.34671 0.0
O620 O 0.93904 0.43471 0.35782 0.0
O621 O 0.98001 0.4493 0.34406 0.0
C622 C 0.9158 0.43588 0.35594 0.0
H623 H 0.96016 0.5228 0.36711 0.0
H624 H 0.92271 0.36933 0.32445 0.0
H625 H 0.97567 0.4953 0.31146 0.0
H626 H 0.90277 0.46686 0.30841 0.0
Co627 Co 0.80764 0.69365 0.59311 0.0
C628 C 0.76178 0.67412 0.60185 0.0
C629 C 0.76986 0.7094 0.6084 0.0
C630 C 0.74885 0.70093 0.61315 0.0
N631 N 0.77787 0.69258 0.60132 0.0
N632 N 0.74384 0.67866 0.60907 0.0
H633 H 0.76377 0.65737 0.59733 0.0
H634 H 0.77891 0.72639 0.61022 0.0
C635 C 0.81412 0.74631 0.58728 0.0
O636 O 0.82011 0.74028 0.57733 0.0
N637 N 0.83816 0.69503 0.58514 0.0
C638 C 0.84514 0.68357 0.57597 0.0
C639 C 0.86903 0.68927 0.57384 0.0
C640 C 0.8582 0.70707 0.58854 0.0
N641 N 0.87722 0.70401 0.58176 0.0
C642 C 0.78828 0.6725 0.57373 0.0
C643 C 0.76146 0.71227 0.56713 0.0
C644 C 0.76404 0.69251 0.56 0.0
C645 C 0.77691 0.67203 0.56364 0.0
C646 C 0.77344 0.71202 0.57712 0.0
N647 N 0.78837 0.69313 0.57987 0.0
H648 H 0.798 0.65651 0.57637 0.0
H649 H 0.77079 0.72715 0.58256 0.0
H650 H 0.83436 0.67131 0.57118 0.0
H651 H 0.85877 0.71793 0.59585 0.0
O652 O 0.81207 0.65899 0.59526 0.0
O653 O 0.82582 0.68797 0.60616 0.0
O654 O 0.8075 0.73011 0.59407 0.0
C655 C 0.82395 0.6649 0.60399 0.0
H656 H 0.7383 0.71041 0.61922 0.0
H657 H 0.87979 0.68244 0.56715 0.0
H658 H 0.75051 0.72792 0.56499 0.0
H659 H 0.77913 0.65606 0.5586 0.0
Co660 Co 0.5484 0.44333 0.65933 0.0
C661 C 0.56871 0.48961 0.65152 0.0
C662 C 0.5329 0.48325 0.64515 0.0
C663 C 0.54197 0.50423 0.64061 0.0
N664 N 0.5497 0.47417 0.65198 0.0
N665 N 0.56453 0.50813 0.64458 0.0
H666 H 0.58569 0.48659 0.65575 0.0
H667 H 0.51567 0.47475 0.64327 0.0
C668 C 0.4964 0.43675 0.66617 0.0
O669 O 0.5036 0.42705 0.67536 0.0
N670 N 0.54698 0.41176 0.66644 0.0
C671 C 0.55887 0.40361 0.67529 0.0
C672 C 0.55273 0.37968 0.67703 0.0
C673 C 0.53428 0.39235 0.66278 0.0
N674 N 0.53726 0.37264 0.66917 0.0
C675 C 0.57333 0.45972 0.67842 0.0
C676 C 0.53486 0.48499 0.68738 0.0
C677 C 0.556 0.48165 0.69357 0.0
C678 C 0.57577 0.46964 0.68878 0.0
C679 C 0.53322 0.47468 0.67706 0.0
N680 N 0.55158 0.46049 0.67309 0.0
H681 H 0.58867 0.45029 0.67493 0.0
H682 H 0.51707 0.47815 0.67236 0.0
H683 H 0.57157 0.4137 0.68016 0.0
H684 H 0.52279 0.39282 0.65566 0.0
O685 O 0.58243 0.43764 0.65604 0.0
O686 O 0.55136 0.427 0.64561 0.0
O687 O 0.51185 0.44526 0.65944 0.0
C688 C 0.57475 0.42741 0.64716 0.0
H689 H 0.53284 0.51541 0.63465 0.0
H690 H 0.55963 0.36815 0.68344 0.0
H691 H 0.51961 0.49532 0.69051 0.0
H692 H 0.59267 0.46698 0.69312 0.0
Co693 Co 0.80542 0.30848 0.90794 0.0
C694 C 0.7557 0.32432 0.90161 0.0
C695 C 0.76761 0.29314 0.89269 0.0
C696 C 0.74601 0.30106 0.88832 0.0
N697 N 0.77352 0.30742 0.90118 0.0
N698 N 0.73857 0.32082 0.89389 0.0
H699 H 0.75602 0.33982 0.90693 0.0
H700 H 0.77909 0.27898 0.88939 0.0
C701 C 0.79158 0.25552 0.90897 0.0
O702 O 0.76931 0.26133 0.91186 0.0
N703 N 0.83741 0.30973 0.91428 0.0
C704 C 0.8454 0.3259 0.92165 0.0
C705 C 0.86955 0.32123 0.92373 0.0
C706 C 0.85669 0.29558 0.91188 0.0
N707 N 0.87666 0.30216 0.91758 0.0
C708 C 0.78043 0.32887 0.92635 0.0
C709 C 0.79038 0.29097 0.94036 0.0
C710 C 0.778 0.31139 0.94433 0.0
C711 C 0.77305 0.33054 0.93716 0.0
C712 C 0.7975 0.2901 0.92953 0.0
N713 N 0.79181 0.3085 0.92253 0.0
H714 H 0.77816 0.34458 0.92124 0.0
H715 H 0.80884 0.27513 0.92702 0.0
H716 H 0.8345 0.34028 0.92515 0.0
H717 H 0.85604 0.28083 0.90609 0.0
O718 O 0.80727 0.34323 0.90523 0.0
O719 O 0.81932 0.31424 0.89392 0.0
O720 O 0.80764 0.27198 0.90749 0.0
C721 C 0.81694 0.33732 0.89595 0.0
H722 H 0.73751 0.2939 0.88109 0.0
H723 H 0.88109 0.33152 0.92916 0.0
H724 H 0.79563 0.27625 0.9457 0.0
H725 H 0.76403 0.34693 0.93993 0.0
Co726 Co 0.94435 0.55387 0.15756 0.0
C727 C 0.92632 0.50552 0.15137 0.0
C728 C 0.96145 0.51271 0.14446 0.0
C729 C 0.95307 0.49086 0.14048 0.0
N730 N 0.94464 0.52181 0.15127 0.0
N731 N 0.93088 0.48641 0.14476 0.0
H732 H 0.90967 0.50816 0.15588 0.0
H733 H 0.97801 0.52191 0.14209 0.0
C734 C 0.99552 0.56381 0.1645 0.0
O735 O 0.98728 0.57345 0.17352 0.0
N736 N 0.94407 0.58668 0.16352 0.0
C737 C 0.92927 0.59653 0.17106 0.0
C738 C 0.93435 0.62093 0.17198 0.0
C739 C 0.95741 0.60555 0.15975 0.0
N740 N 0.95206 0.62662 0.16487 0.0
C741 C 0.92105 0.54059 0.17757 0.0
C742 C 0.9607 0.51745 0.18664 0.0
C743 C 0.94028 0.52201 0.19315 0.0
C744 C 0.91985 0.53282 0.18832 0.0
C745 C 0.9611 0.52566 0.17594 0.0
N746 N 0.94225 0.53903 0.17186 0.0
H747 H 0.90507 0.54855 0.17394 0.0
H748 H 0.97676 0.52143 0.17103 0.0
H749 H 0.91512 0.58729 0.17544 0.0
H750 H 0.97045 0.60389 0.15322 0.0
O751 O 0.91005 0.55711 0.15415 0.0
O752 O 0.94057 0.56763 0.14337 0.0
O753 O 0.98094 0.55398 0.15773 0.0
C754 C 0.91724 0.56632 0.14496 0.0
H755 H 0.96204 0.4799 0.13439 0.0
H756 H 0.92556 0.63347 0.17749 0.0
H757 H 0.97636 0.50782 0.1898 0.0
H758 H 0.90335 0.53609 0.19289 0.0
Co759 Co 0.68791 0.70099 0.40902 0.0
C760 C 0.73739 0.68462 0.40251 0.0
C761 C 0.72538 0.71575 0.39357 0.0
C762 C 0.74687 0.70777 0.38915 0.0
N763 N 0.71963 0.70161 0.40213 0.0
N764 N 0.75435 0.68807 0.39472 0.0
H765 H 0.73709 0.66908 0.40781 0.0
H766 H 0.71384 0.72982 0.39025 0.0
C767 C 0.70187 0.75378 0.40941 0.0
O768 O 0.72396 0.74784 0.41252 0.0
N769 N 0.65603 0.70026 0.41545 0.0
C770 C 0.64809 0.68493 0.42318 0.0
C771 C 0.62368 0.68912 0.42485 0.0
C772 C 0.63652 0.71349 0.41247 0.0
N773 N 0.61645 0.70704 0.41809 0.0
C774 C 0.71334 0.68259 0.42772 0.0
C775 C 0.70194 0.72112 0.44118 0.0
C776 C 0.71387 0.7009 0.44561 0.0
C777 C 0.7198 0.68154 0.43867 0.0
C778 C 0.69545 0.72123 0.43028 0.0
N779 N 0.70168 0.70245 0.42356 0.0
H780 H 0.71625 0.66668 0.4228 0.0
H781 H 0.68409 0.73591 0.42749 0.0
H782 H 0.65918 0.67138 0.42718 0.0
H783 H 0.63685 0.72689 0.40605 0.0
O784 O 0.6863 0.66602 0.40702 0.0
O785 O 0.67372 0.69365 0.39519 0.0
O786 O 0.68565 0.73745 0.40796 0.0
C787 C 0.67627 0.67082 0.3977 0.0
H788 H 0.75523 0.71476 0.38185 0.0
H789 H 0.61213 0.67963 0.43056 0.0
H790 H 0.69687 0.73654 0.44615 0.0
H791 H 0.7282 0.66512 0.44176 0.0
Co792 Co 0.44457 0.44125 0.1594 0.0
C793 C 0.42387 0.48696 0.15095 0.0
C794 C 0.45935 0.47967 0.1444 0.0
C795 C 0.44996 0.49981 0.13928 0.0
N796 N 0.44297 0.47165 0.15168 0.0
N797 N 0.42764 0.50428 0.14337 0.0
H798 H 0.40701 0.48455 0.15536 0.0
H799 H 0.47639 0.47078 0.14252 0.0
C800 C 0.49681 0.43594 0.1662 0.0
O801 O 0.49021 0.42811 0.17581 0.0
N802 N 0.44665 0.41001 0.16679 0.0
C803 C 0.4362 0.40202 0.17603 0.0
C804 C 0.4426 0.37807 0.17765 0.0
C805 C 0.45894 0.39058 0.16288 0.0
N806 N 0.45682 0.37092 0.16936 0.0
C807 C 0.41956 0.45748 0.17846 0.0
C808 C 0.45737 0.48431 0.18707 0.0
C809 C 0.4367 0.48007 0.19349 0.0
C810 C 0.41721 0.46728 0.18884 0.0
C811 C 0.45902 0.47393 0.17676 0.0
N812 N 0.44105 0.459 0.17297 0.0
H813 H 0.40454 0.44727 0.17512 0.0
H814 H 0.47492 0.47773 0.17193 0.0
H815 H 0.42438 0.4122 0.18128 0.0
H816 H 0.4694 0.39094 0.15546 0.0
O817 O 0.41056 0.43508 0.156 0.0
O818 O 0.44211 0.42414 0.1459 0.0
O819 O 0.48098 0.44353 0.15945 0.0
C820 C 0.41871 0.42445 0.1473 0.0
H821 H 0.45856 0.50991 0.1328 0.0
H822 H 0.43665 0.36661 0.18427 0.0
H823 H 0.47235 0.49527 0.19003 0.0
H824 H 0.40065 0.46377 0.19332 0.0
Co825 Co 0.31056 0.69467 0.90819 0.0
C826 C 0.26147 0.67974 0.90049 0.0
C827 C 0.27433 0.71189 0.89258 0.0
C828 C 0.2532 0.70463 0.88759 0.0
N829 N 0.27932 0.69665 0.90087 0.0
N830 N 0.2452 0.68434 0.89255 0.0
H831 H 0.26161 0.66303 0.90506 0.0
H832 H 0.28617 0.7263 0.88979 0.0
C833 C 0.29832 0.7477 0.9091 0.0
O834 O 0.27625 0.74206 0.91235 0.0
N835 N 0.34202 0.69256 0.91501 0.0
C836 C 0.34855 0.67759 0.92313 0.0
C837 C 0.37279 0.68137 0.9254 0.0
C838 C 0.36227 0.70497 0.91232 0.0
N839 N 0.38138 0.69853 0.91857 0.0
C840 C 0.2816 0.67762 0.92616 0.0
C841 C 0.29526 0.71413 0.94032 0.0
C842 C 0.28014 0.69546 0.94411 0.0
C843 C 0.27328 0.67702 0.93687 0.0
C844 C 0.30318 0.71398 0.9296 0.0
N845 N 0.29582 0.69628 0.92254 0.0
H846 H 0.27766 0.66233 0.92102 0.0
H847 H 0.31633 0.72752 0.92719 0.0
H848 H 0.33656 0.66472 0.92706 0.0
H849 H 0.36295 0.71846 0.90594 0.0
O850 O 0.31102 0.65972 0.90601 0.0
O851 O 0.32526 0.68726 0.89449 0.0
O852 O 0.31411 0.73106 0.90741 0.0
C853 C 0.32155 0.66447 0.89679 0.0
H854 H 0.24509 0.71292 0.88051 0.0
H855 H 0.38341 0.67183 0.93144 0.0
H856 H 0.30192 0.72816 0.94573 0.0
H857 H 0.26202 0.66196 0.93949 0.0
Co858 Co 0.05855 0.55709 0.65753 0.0
C859 C 0.0749 0.50764 0.65081 0.0
C860 C 0.04365 0.51986 0.642 0.0
C861 C 0.05162 0.49855 0.63741 0.0
N862 N 0.05787 0.5254 0.65057 0.0
N863 N 0.07137 0.49096 0.64291 0.0
H864 H 0.09089 0.50803 0.65586 0.0
H865 H 0.02944 0.53141 0.6388 0.0
C866 C 0.00579 0.5432 0.6579 0.0
O867 O 0.01179 0.52113 0.661 0.0
N868 N 0.05933 0.589 0.664 0.0
C869 C 0.07335 0.59638 0.67233 0.0
C870 C 0.0688 0.62065 0.67423 0.0
C871 C 0.04673 0.6088 0.66084 0.0
N872 N 0.05212 0.62841 0.66699 0.0
C873 C 0.07654 0.53101 0.67614 0.0
C874 C 0.03818 0.54279 0.68963 0.0
C875 C 0.05819 0.53046 0.69402 0.0
C876 C 0.07747 0.52433 0.68707 0.0
C877 C 0.03821 0.54951 0.67876 0.0
N878 N 0.05692 0.54314 0.67203 0.0
H879 H 0.09237 0.52785 0.67121 0.0
H880 H 0.0237 0.56114 0.676 0.0
H881 H 0.08614 0.58497 0.67663 0.0
H882 H 0.03386 0.60879 0.65421 0.0
O883 O 0.09352 0.55856 0.65559 0.0
O884 O 0.066 0.57125 0.64372 0.0
O885 O 0.02209 0.55945 0.65644 0.0
C886 C 0.08881 0.56842 0.64623 0.0
H887 H 0.04418 0.49 0.63024 0.0
H888 H 0.0775 0.63185 0.68032 0.0
H889 H 0.0228 0.54798 0.6946 0.0
H890 H 0.09372 0.51557 0.69013 0.0
Co891 Co 0.19169 0.3017 0.4065 0.0
C892 C 0.23966 0.32014 0.39879 0.0
C893 C 0.22849 0.28778 0.39051 0.0
C894 C 0.2492 0.29646 0.3856 0.0
N895 N 0.2227 0.30232 0.39894 0.0
N896 N 0.25615 0.31685 0.39081 0.0
H897 H 0.23888 0.33636 0.40367 0.0
H898 H 0.21758 0.27265 0.3877 0.0
C899 C 0.20981 0.25031 0.40796 0.0
O900 O 0.23164 0.25839 0.41042 0.0
N901 N 0.16045 0.30114 0.41358 0.0
C902 C 0.1524 0.31655 0.42126 0.0
C903 C 0.12838 0.31126 0.4234 0.0
C904 C 0.14134 0.28685 0.41107 0.0
N905 N 0.1214 0.29261 0.41696 0.0
C906 C 0.2181 0.32468 0.42398 0.0
C907 C 0.2119 0.2872 0.43864 0.0
C908 C 0.22418 0.30822 0.442 0.0
C909 C 0.22713 0.32721 0.43453 0.0
C910 C 0.20315 0.28547 0.42808 0.0
N911 N 0.20708 0.30363 0.42072 0.0
H912 H 0.21891 0.34016 0.41866 0.0
H913 H 0.19208 0.26992 0.42606 0.0
H914 H 0.16304 0.33105 0.42482 0.0
H915 H 0.14202 0.2728 0.40494 0.0
O916 O 0.18726 0.33605 0.40334 0.0
O917 O 0.17557 0.30538 0.39284 0.0
O918 O 0.19215 0.2651 0.40658 0.0
C919 C 0.17671 0.3287 0.39446 0.0
H920 H 0.25787 0.28889 0.37849 0.0
H921 H 0.11674 0.32103 0.42897 0.0
H922 H 0.20808 0.27256 0.44426 0.0
H923 H 0.23593 0.34406 0.43685 0.0
Co924 Co 0.44725 0.55867 0.34417 0.0
C925 C 0.43063 0.50968 0.35127 0.0
C926 C 0.46166 0.52215 0.36016 0.0
C927 C 0.45341 0.50105 0.36488 0.0
N928 N 0.44768 0.5274 0.35149 0.0
N929 N 0.43381 0.4933 0.3593 0.0
H930 H 0.41486 0.50987 0.34608 0.0
H931 H 0.47594 0.53372 0.36329 0.0
C932 C 0.49981 0.54355 0.34355 0.0
O933 O 0.49339 0.52116 0.34114 0.0
N934 N 0.44669 0.59013 0.3373 0.0
C935 C 0.43205 0.59739 0.32918 0.0
C936 C 0.43708 0.6214 0.32688 0.0
C937 C 0.46014 0.60975 0.33996 0.0
N938 N 0.45468 0.62913 0.33369 0.0
C939 C 0.42622 0.53289 0.32613 0.0
C940 C 0.46423 0.54111 0.31194 0.0
C941 C 0.44301 0.5301 0.30799 0.0
C942 C 0.42394 0.52573 0.31529 0.0
C943 C 0.46562 0.54827 0.32276 0.0
N944 N 0.447 0.54371 0.32983 0.0
H945 H 0.41054 0.53126 0.3313 0.0
H946 H 0.48117 0.5589 0.32516 0.0
H947 H 0.41851 0.58612 0.32527 0.0
H948 H 0.47366 0.60977 0.34634 0.0
O949 O 0.41251 0.56114 0.34687 0.0
O950 O 0.44168 0.57406 0.3579 0.0
O951 O 0.48382 0.56025 0.34461 0.0
C952 C 0.41858 0.57161 0.35595 0.0
H953 H 0.46059 0.49273 0.37215 0.0
H954 H 0.42806 0.63247 0.32084 0.0
H955 H 0.47947 0.54498 0.30666 0.0
H956 H 0.40685 0.51806 0.31257 0.0
Co957 Co 0.19376 0.70587 0.09239 0.0
C958 C 0.23889 0.68159 0.09951 0.0
C959 C 0.23316 0.71557 0.10771 0.0
C960 C 0.25344 0.70459 0.11202 0.0
N961 N 0.22413 0.70115 0.09988 0.0
N962 N 0.25704 0.68314 0.10689 0.0
H963 H 0.2359 0.66634 0.09413 0.0
H964 H 0.22495 0.73237 0.11044 0.0
C965 C 0.1961 0.75923 0.08636 0.0
O966 O 0.19135 0.75469 0.07615 0.0
N967 N 0.16255 0.71113 0.08506 0.0
C968 C 0.15799 0.71402 0.07437 0.0
C969 C 0.13358 0.71829 0.07289 0.0
C970 C 0.14057 0.71406 0.08987 0.0
N971 N 0.1226 0.71833 0.08264 0.0
C972 C 0.2049 0.68281 0.07231 0.0
C973 C 0.24013 0.71538 0.06558 0.0
C974 C 0.23249 0.69702 0.05844 0.0
C975 C 0.21524 0.68009 0.06208 0.0
C976 C 0.22938 0.71732 0.0758 0.0
N977 N 0.21079 0.70219 0.07871 0.0
H978 H 0.19094 0.67018 0.07484 0.0
H979 H 0.23566 0.73129 0.08129 0.0
H980 H 0.17133 0.71409 0.06797 0.0
H981 H 0.13775 0.71385 0.09853 0.0
O982 O 0.18535 0.67214 0.09487 0.0
O983 O 0.17724 0.70267 0.10606 0.0
O984 O 0.1988 0.74199 0.09317 0.0
C985 C 0.176 0.6795 0.10399 0.0
H986 H 0.26392 0.71144 0.11878 0.0
H987 H 0.12469 0.72128 0.06518 0.0
H988 H 0.25408 0.72827 0.06323 0.0
H989 H 0.20887 0.66554 0.05688 0.0
Co990 Co 0.05466 0.44479 0.84324 0.0
C991 C 0.07352 0.49207 0.85072 0.0
C992 C 0.03863 0.48393 0.85767 0.0
C993 C 0.04706 0.50525 0.86214 0.0
N994 N 0.05523 0.47574 0.85053 0.0
N995 N 0.06904 0.51027 0.85781 0.0
H996 H 0.09029 0.48993 0.84622 0.0
H997 H 0.02203 0.47456 0.85984 0.0
C998 C 0.00251 0.43737 0.8367 0.0
O999 O 0.0095 0.42754 0.82751 0.0
N1000 N 0.05386 0.41303 0.83626 0.0
C1001 C 0.06647 0.40458 0.82765 0.0
C1002 C 0.06052 0.38057 0.82598 0.0
C1003 C 0.041 0.39368 0.83986 0.0
N1004 N 0.04449 0.37376 0.83365 0.0
C1005 C 0.078 0.46094 0.82376 0.0
C1006 C 0.03902 0.48639 0.8154 0.0
C1007 C 0.0596 0.48283 0.80884 0.0
C1008 C 0.07962 0.47063 0.81335 0.0
C1009 C 0.03809 0.47603 0.82573 0.0
N1010 N 0.05671 0.46181 0.82942 0.0
H1011 H 0.09369 0.45178 0.82708 0.0
H1012 H 0.02233 0.47954 0.83069 0.0
H1013 H 0.07959 0.41448 0.82294 0.0
H1014 H 0.02901 0.39435 0.84682 0.0
O1015 O 0.08899 0.44045 0.84621 0.0
O1016 O 0.05888 0.4287 0.85696 0.0
O1017 O 0.01809 0.44576 0.8434 0.0
C1018 C 0.08217 0.43007 0.85519 0.0
H1019 H 0.03798 0.51588 0.86832 0.0
H1020 H 0.0679 0.36885 0.81975 0.0
H1021 H 0.02364 0.49694 0.81257 0.0
H1022 H 0.09617 0.46771 0.80878 0.0
Co1023 Co 0.30771 0.29668 0.59177 0.0
C1024 C 0.25997 0.31604 0.59932 0.0
C1025 C 0.26954 0.28254 0.60703 0.0
C1026 C 0.24906 0.29158 0.61197 0.0
N1027 N 0.27615 0.29752 0.59889 0.0
N1028 N 0.24309 0.31276 0.60716 0.0
H1029 H 0.26148 0.33241 0.59459 0.0
H1030 H 0.27996 0.26704 0.60977 0.0
C1031 C 0.28969 0.24539 0.59002 0.0
O1032 O 0.26826 0.25362 0.58705 0.0
N1033 N 0.33953 0.2959 0.58521 0.0
C1034 C 0.3478 0.31027 0.57718 0.0
C1035 C 0.37193 0.30489 0.57538 0.0
C1036 C 0.35868 0.28225 0.5883 0.0
N1037 N 0.37875 0.28735 0.5824 0.0
C1038 C 0.28205 0.31873 0.5739 0.0
C1039 C 0.29167 0.28208 0.55917 0.0
C1040 C 0.2796 0.30302 0.55559 0.0
C1041 C 0.27458 0.32142 0.56313 0.0
C1042 C 0.29874 0.28011 0.56998 0.0
N1043 N 0.29344 0.29802 0.57731 0.0
H1044 H 0.28005 0.33402 0.57926 0.0
H1045 H 0.30971 0.26466 0.57226 0.0
H1046 H 0.33716 0.32402 0.57308 0.0
H1047 H 0.35794 0.26904 0.59479 0.0
O1048 O 0.3119 0.33111 0.59457 0.0
O1049 O 0.32258 0.30127 0.60571 0.0
O1050 O 0.30724 0.26006 0.59189 0.0
C1051 C 0.32149 0.3245 0.60376 0.0
H1052 H 0.24047 0.28405 0.61911 0.0
H1053 H 0.38375 0.31377 0.56958 0.0
H1054 H 0.29621 0.26752 0.55361 0.0
H1055 H 0.26608 0.33829 0.56063 0.0
H1056 H 0.24363 0.21648 0.40168 0.0
H1057 H 0.23525 0.17593 0.39414 0.0
H1058 H 0.15881 0.18551 0.40077 0.0
H1059 H 0.16691 0.22584 0.40821 0.0
H1060 H 0.18149 0.13504 0.40475 0.0
H1061 H 0.19663 0.17649 0.36403 0.0
H1062 H 0.21928 0.17999 0.37447 0.0
H1063 H 0.1906 0.19529 0.37571 0.0
C1064 C 0.22514 0.20963 0.40178 0.0
C1065 C 0.20587 0.22438 0.40541 0.0
C1066 C 0.22041 0.18654 0.39746 0.0
C1067 C 0.19641 0.17791 0.39685 0.0
C1068 C 0.17745 0.19189 0.40119 0.0
H1069 H 0.08695 0.09507 0.37246 0.0
H1070 H 0.11836 0.11334 0.38365 0.0
C1071 C 0.1821 0.21496 0.40539 0.0
C1072 C 0.19016 0.15597 0.39053 0.0
H1073 H 0.17538 0.13972 0.36472 0.0
C1074 C 0.18074 0.13566 0.39598 0.0
C1075 C 0.18948 0.15678 0.3791 0.0
C1076 C 0.19947 0.17826 0.3729 0.0
C1077 C 0.16906 0.11688 0.39029 0.0
C1078 C 0.16613 0.11894 0.37893 0.0
C1079 C 0.17749 0.13819 0.37343 0.0
C1080 C 0.14812 0.1041 0.37289 0.0
C1081 C 0.15916 0.09552 0.39656 0.0
C1082 C 0.15423 0.09295 0.36301 0.0
C1083 C 0.13608 0.08275 0.35646 0.0
C1084 C 0.11156 0.08373 0.35967 0.0
C1085 C 0.10567 0.09399 0.36975 0.0
C1086 C 0.12372 0.1042 0.37625 0.0
H1087 H 0.17098 0.09131 0.40361 0.0
H1088 H 0.14086 0.10018 0.39975 0.0
H1089 H 0.1576 0.07901 0.39141 0.0
H1090 H 0.1729 0.09292 0.36019 0.0
H1091 H 0.14114 0.07495 0.34872 0.0
H1092 H 0.02897 0.96386 0.6509 0.0
H1093 H 0.0681 0.95483 0.64233 0.0
H1094 H 0.07347 0.88867 0.66097 0.0
H1095 H 0.03465 0.89796 0.66979 0.0
H1096 H 0.11907 0.91148 0.65716 0.0
H1097 H 0.06442 0.90122 0.61945 0.0
H1098 H 0.0629 0.93062 0.62576 0.0
H1099 H 0.05053 0.90452 0.63259 0.0
C1100 C 0.03882 0.94771 0.65336 0.0
C1101 C 0.02869 0.93143 0.66089 0.0
C1102 C 0.06111 0.94256 0.64845 0.0
C1103 C 0.07332 0.9208 0.65083 0.0
C1104 C 0.06425 0.90553 0.659 0.0
H1105 H 0.16806 0.81723 0.62469 0.0
H1106 H 0.14645 0.84548 0.63645 0.0
C1107 C 0.0421 0.91086 0.66405 0.0
C1108 C 0.09363 0.91236 0.6439 0.0
H1109 H 0.10585 0.89206 0.61835 0.0
C1110 C 0.11633 0.90751 0.64864 0.0
C1111 C 0.08994 0.90717 0.63278 0.0
C1112 C 0.06561 0.91093 0.62733 0.0
C1113 C 0.13529 0.89702 0.6426 0.0
C1114 C 0.13126 0.89102 0.6316 0.0
C1115 C 0.10894 0.89688 0.62677 0.0
C1116 C 0.14841 0.87581 0.62531 0.0
C1117 C 0.1593 0.89205 0.64808 0.0
C1118 C 0.15682 0.88349 0.61512 0.0
C1119 C 0.16911 0.86724 0.60831 0.0
C1120 C 0.17283 0.84303 0.61155 0.0
C1121 C 0.1654 0.83577 0.62195 0.0
C1122 C 0.15327 0.85199 0.62875 0.0
H1123 H 0.16238 0.90474 0.65496 0.0
H1124 H 0.15918 0.87326 0.65137 0.0
H1125 H 0.17471 0.89369 0.6423 0.0
H1126 H 0.15299 0.90173 0.61227 0.0
H1127 H 0.17461 0.87331 0.60033 0.0
H1128 H 0.26692 0.78472 0.90404 0.0
H1129 H 0.2776 0.8243 0.89609 0.0
H1130 H 0.35379 0.80686 0.89913 0.0
H1131 H 0.34339 0.76741 0.90696 0.0
H1132 H 0.33487 0.8596 0.90501 0.0
H1133 H 0.31179 0.82199 0.86428 0.0
H1134 H 0.29113 0.8181 0.8755 0.0
H1135 H 0.31948 0.80199 0.87536 0.0
C1136 C 0.28594 0.78958 0.90323 0.0
C1137 C 0.30434 0.77293 0.90603 0.0
C1138 C 0.29197 0.81211 0.89868 0.0
C1139 C 0.31644 0.8183 0.89701 0.0
C1140 C 0.3348 0.80233 0.90039 0.0
H1141 H 0.42466 0.9026 0.87049 0.0
H1142 H 0.39553 0.88126 0.88185 0.0
C1143 C 0.32882 0.7798 0.90482 0.0
C1144 C 0.32334 0.84013 0.89078 0.0
H1145 H 0.3349 0.85781 0.86483 0.0
C1146 C 0.33437 0.85959 0.89623 0.0
C1147 C 0.3224 0.84008 0.87935 0.0
C1148 C 0.31061 0.81949 0.8732 0.0
C1149 C 0.34586 0.87839 0.89048 0.0
C1150 C 0.3469 0.87717 0.87904 0.0
C1151 C 0.3342 0.85866 0.8736 0.0
C1152 C 0.36387 0.89249 0.87268 0.0
C1153 C 0.35745 0.89891 0.89675 0.0
C1154 C 0.35586 0.90551 0.86356 0.0
C1155 C 0.37264 0.91754 0.85691 0.0
C1156 C 0.39766 0.91654 0.85926 0.0
C1157 C 0.40551 0.90383 0.86848 0.0
C1158 C 0.38881 0.89182 0.87507 0.0
H1159 H 0.34735 0.9025 0.90438 0.0
H1160 H 0.3763 0.89371 0.89898 0.0
H1161 H 0.35811 0.91593 0.89192 0.0
H1162 H 0.33671 0.90597 0.86149 0.0
H1163 H 0.36609 0.92719 0.84984 0.0
H1164 H 0.34002 0.12261 0.10144 0.0
H1165 H 0.36195 0.09769 0.11454 0.0
H1166 H 0.33261 0.14109 0.14065 0.0
H1167 H 0.31222 0.16717 0.12741 0.0
H1168 H 0.37683 0.1394 0.14333 0.0
H1169 H 0.3518 0.04466 0.13508 0.0
H1170 H 0.361 0.05776 0.12248 0.0
H1171 H 0.33463 0.06964 0.12946 0.0
C1172 C 0.33783 0.12639 0.11 0.0
C1173 C 0.32466 0.14679 0.11346 0.0
C1174 C 0.35013 0.11195 0.11752 0.0
C1175 C 0.34871 0.11714 0.12867 0.0
C1176 C 0.33406 0.13664 0.13213 0.0
H1177 H 0.45887 0.03132 0.16455 0.0
H1178 H 0.41779 0.04644 0.16031 0.0
C1179 C 0.32242 0.15154 0.12457 0.0
C1180 C 0.36564 0.10505 0.13638 0.0
H1181 H 0.39459 0.05109 0.14103 0.0
C1182 C 0.38009 0.11995 0.14304 0.0
C1183 C 0.36977 0.07959 0.13637 0.0
C1184 C 0.3532 0.06206 0.13055 0.0
C1185 C 0.3999 0.11049 0.14878 0.0
C1186 C 0.40608 0.0857 0.14748 0.0
C1187 C 0.39026 0.07028 0.14177 0.0
C1188 C 0.43048 0.07658 0.15054 0.0
C1189 C 0.41464 0.12748 0.1558 0.0
C1190 C 0.45107 0.08822 0.1463 0.0
C1191 C 0.47428 0.07984 0.14873 0.0
C1192 C 0.47755 0.05926 0.15533 0.0
C1193 C 0.45692 0.04728 0.15948 0.0
C1194 C 0.4335 0.05587 0.15708 0.0
H1195 H 0.40287 0.14178 0.15941 0.0
H1196 H 0.42403 0.11758 0.16244 0.0
H1197 H 0.42852 0.13679 0.15075 0.0
H1198 H 0.44919 0.10372 0.14094 0.0
H1199 H 0.48967 0.08941 0.14528 0.0
H1200 H 0.18692 0.77336 0.10693 0.0
H1201 H 0.1803 0.8142 0.11362 0.0
H1202 H 0.19877 0.84353 0.08222 0.0
H1203 H 0.20378 0.80195 0.07521 0.0
H1204 H 0.2048 0.85364 0.11634 0.0
H1205 H 0.1338 0.87277 0.08519 0.0
H1206 H 0.14746 0.84315 0.08639 0.0
H1207 H 0.16426 0.8679 0.08044 0.0
C1208 C 0.18978 0.78845 0.10143 0.0
C1209 C 0.1955 0.78444 0.09049 0.0
C1210 C 0.1861 0.81192 0.10529 0.0
C1211 C 0.18853 0.8321 0.09839 0.0
C1212 C 0.19598 0.82829 0.08762 0.0
H1213 H 0.13044 0.9468 0.14155 0.0
H1214 H 0.16126 0.93174 0.12872 0.0
C1215 C 0.19901 0.80456 0.08364 0.0
C1216 C 0.18098 0.85636 0.10256 0.0
H1217 H 0.1344 0.89712 0.10047 0.0
C1218 C 0.18964 0.86348 0.1128 0.0
C1219 C 0.1616 0.86958 0.0978 0.0
C1220 C 0.15109 0.863 0.08689 0.0
C1221 C 0.17723 0.88078 0.11909 0.0
C1222 C 0.15638 0.89229 0.11472 0.0
C1223 C 0.1501 0.88788 0.10386 0.0
C1224 C 0.13784 0.90414 0.12173 0.0
C1225 C 0.1851 0.88457 0.13068 0.0
C1226 C 0.11417 0.89451 0.12173 0.0
C1227 C 0.09656 0.90352 0.12874 0.0
C1228 C 0.10226 0.9221 0.13609 0.0
C1229 C 0.12575 0.93223 0.13602 0.0
C1230 C 0.14336 0.92355 0.12875 0.0
H1231 H 0.1995 0.87155 0.13319 0.0
H1232 H 0.19245 0.90325 0.13164 0.0
H1233 H 0.1694 0.88246 0.13627 0.0
H1234 H 0.1094 0.87942 0.11648 0.0
H1235 H 0.07865 0.89527 0.12864 0.0
H1236 H 0.47138 0.89612 0.32735 0.0
H1237 H 0.43403 0.8839 0.33661 0.0
H1238 H 0.43952 0.94657 0.35753 0.0
H1239 H 0.47719 0.95854 0.34848 0.0
H1240 H 0.4372 0.90534 0.36879 0.0
H1241 H 0.36377 0.9046 0.33816 0.0
H1242 H 0.39 0.88788 0.33376 0.0
H1243 H 0.39231 0.92018 0.336 0.0
C1244 C 0.46419 0.90772 0.33369 0.0
C1245 C 0.47727 0.92819 0.33725 0.0
C1246 C 0.44276 0.90076 0.33896 0.0
C1247 C 0.43385 0.91441 0.34773 0.0
C1248 C 0.44604 0.93579 0.35078 0.0
H1249 H 0.32901 0.8701 0.39788 0.0
H1250 H 0.35423 0.89574 0.38609 0.0
C1251 C 0.46757 0.94259 0.34561 0.0
C1252 C 0.41415 0.90458 0.35468 0.0
H1253 H 0.35691 0.88039 0.35418 0.0
C1254 C 0.41946 0.90034 0.36564 0.0
C1255 C 0.39108 0.89792 0.35054 0.0
C1256 C 0.38385 0.90311 0.33899 0.0
C1257 C 0.40277 0.88868 0.37247 0.0
C1258 C 0.38003 0.88131 0.36826 0.0
C1259 C 0.37438 0.88612 0.35738 0.0
C1260 C 0.36283 0.86682 0.37483 0.0
C1261 C 0.41002 0.88328 0.38402 0.0
C1262 C 0.3589 0.84231 0.37222 0.0
C1263 C 0.34462 0.82768 0.37891 0.0
C1264 C 0.3339 0.83734 0.38831 0.0
C1265 C 0.33715 0.86214 0.39072 0.0
C1266 C 0.35154 0.87678 0.38401 0.0
H1267 H 0.42969 0.8866 0.38548 0.0
H1268 H 0.39947 0.89514 0.38958 0.0
H1269 H 0.40583 0.86407 0.3861 0.0
H1270 H 0.36751 0.83431 0.36517 0.0
H1271 H 0.34237 0.80867 0.37681 0.0
H1272 H 0.41089 0.09276 0.62607 0.0
H1273 H 0.37926 0.11191 0.61532 0.0
H1274 H 0.32451 0.08423 0.63714 0.0
H1275 H 0.35651 0.06552 0.64828 0.0
H1276 H 0.33908 0.09703 0.6044 0.0
H1277 H 0.3132 0.15667 0.63915 0.0
H1278 H 0.33976 0.13747 0.6396 0.0
H1279 H 0.30993 0.12442 0.64101 0.0
C1280 C 0.39213 0.09049 0.62856 0.0
C1281 C 0.38621 0.07797 0.63812 0.0
C1282 C 0.37401 0.10136 0.62236 0.0
C1283 C 0.34954 0.09988 0.62551 0.0
C1284 C 0.34334 0.08606 0.63469 0.0
H1285 H 0.25557 0.21285 0.59709 0.0
H1286 H 0.26334 0.17203 0.60445 0.0
C1287 C 0.3616 0.07529 0.641 0.0
C1288 C 0.3314 0.11478 0.6196 0.0
H1289 H 0.29922 0.16764 0.62204 0.0
C1290 C 0.32982 0.11212 0.6083 0.0
C1291 C 0.31921 0.13443 0.62468 0.0
C1292 C 0.32062 0.13864 0.63676 0.0
C1293 C 0.31819 0.12969 0.60188 0.0
C1294 C 0.30781 0.15027 0.60691 0.0
C1295 C 0.30726 0.15175 0.61825 0.0
C1296 C 0.30179 0.17245 0.60072 0.0
C1297 C 0.31836 0.1269 0.58974 0.0
C1298 C 0.3208 0.18594 0.59609 0.0
C1299 C 0.31654 0.20927 0.59209 0.0
C1300 C 0.29312 0.2194 0.59253 0.0
C1301 C 0.27376 0.20533 0.59656 0.0
C1302 C 0.27814 0.18208 0.60077 0.0
H1303 H 0.32033 0.10752 0.58732 0.0
H1304 H 0.30142 0.13435 0.58612 0.0
H1305 H 0.33402 0.13715 0.58636 0.0
H1306 H 0.33926 0.17899 0.59616 0.0
H1307 H 0.33177 0.21974 0.58902 0.0
H1308 H 0.16729 0.119 0.89836 0.0
H1309 H 0.14427 0.09188 0.88632 0.0
H1310 H 0.14081 0.14872 0.86228 0.0
H1311 H 0.16379 0.17565 0.87415 0.0
H1312 H 0.09775 0.10454 0.88048 0.0
H1313 H 0.15233 0.08892 0.84354 0.0
H1314 H 0.16568 0.09897 0.85615 0.0
H1315 H 0.15133 0.1205 0.84721 0.0
C1316 C 0.16224 0.1254 0.89037 0.0
C1317 C 0.16713 0.14947 0.88721 0.0
C1318 C 0.14912 0.10992 0.88351 0.0
C1319 C 0.14107 0.11819 0.87336 0.0
C1320 C 0.14729 0.14173 0.86996 0.0
H1321 H 0.02552 0.1049 0.82904 0.0
H1322 H 0.06479 0.11145 0.83797 0.0
C1323 C 0.16022 0.15721 0.87681 0.0
C1324 C 0.12282 0.1042 0.8671 0.0
H1325 H 0.10854 0.08546 0.8415 0.0
C1326 C 0.10027 0.09976 0.87203 0.0
C1327 C 0.12612 0.09827 0.85605 0.0
C1328 C 0.15028 0.1017 0.85046 0.0
C1329 C 0.08042 0.09104 0.86606 0.0
C1330 C 0.08342 0.08599 0.85489 0.0
C1331 C 0.1063 0.08935 0.85005 0.0
C1332 C 0.06238 0.07926 0.84802 0.0
C1333 C 0.05604 0.08883 0.87163 0.0
C1334 C 0.04866 0.05837 0.85032 0.0
C1335 C 0.02612 0.05479 0.84535 0.0
C1336 C 0.01719 0.07181 0.83784 0.0
C1337 C 0.03197 0.09151 0.83479 0.0
C1338 C 0.05439 0.09526 0.83989 0.0
H1339 H 0.05574 0.09839 0.87956 0.0
H1340 H 0.0413 0.09642 0.86649 0.0
H1341 H 0.05199 0.06934 0.87312 0.0
H1342 H 0.05478 0.04551 0.85638 0.0
H1343 H 0.01525 0.03923 0.84771 0.0
H1344 H 0.819 0.76116 0.60807 0.0
H1345 H 0.82867 0.8015 0.61464 0.0
H1346 H 0.82535 0.82954 0.58201 0.0
H1347 H 0.81699 0.78833 0.57525 0.0
H1348 H 0.86294 0.84633 0.59056 0.0
H1349 H 0.79267 0.86091 0.62118 0.0
H1350 H 0.80606 0.83208 0.62424 0.0
H1351 H 0.79035 0.83638 0.6115 0.0
C1352 C 0.81985 0.77594 0.60228 0.0
C1353 C 0.81718 0.77157 0.59113 0.0
C1354 C 0.8251 0.79919 0.60608 0.0
C1355 C 0.82703 0.8189 0.59889 0.0
C1356 C 0.8237 0.81472 0.58775 0.0
H1357 H 0.878 0.93944 0.63979 0.0
H1358 H 0.85103 0.91955 0.6266 0.0
C1359 C 0.81895 0.7912 0.58388 0.0
C1360 C 0.83565 0.84281 0.60305 0.0
H1361 H 0.8336 0.87749 0.62592 0.0
C1362 C 0.85603 0.85358 0.59813 0.0
C1363 C 0.82622 0.85323 0.61267 0.0
C1364 C 0.80241 0.84514 0.61758 0.0
C1365 C 0.86877 0.8725 0.60323 0.0
C1366 C 0.8617 0.87997 0.61375 0.0
C1367 C 0.8397 0.87124 0.61804 0.0
C1368 C 0.87829 0.89402 0.62093 0.0
C1369 C 0.8901 0.88371 0.59736 0.0
C1370 C 0.90248 0.88627 0.62222 0.0
C1371 C 0.91789 0.8979 0.62953 0.0
C1372 C 0.90928 0.91702 0.636 0.0
C1373 C 0.88504 0.92471 0.63487 0.0
C1374 C 0.86968 0.91339 0.62733 0.0
H1375 H 0.88636 0.88482 0.58853 0.0
H1376 H 0.89429 0.90227 0.6004 0.0
H1377 H 0.90636 0.87197 0.59841 0.0
H1378 H 0.90935 0.87068 0.61782 0.0
H1379 H 0.93639 0.89132 0.63037 0.0
H1380 H 0.99462 0.09221 0.35349 0.0
H1381 H 0.95431 0.10271 0.35994 0.0
H1382 H 0.92309 0.04572 0.34029 0.0
H1383 H 0.96402 0.03436 0.33402 0.0
H1384 H 0.9162 0.11869 0.34879 0.0
H1385 H 0.89237 0.03195 0.36951 0.0
H1386 H 0.92281 0.03843 0.36485 0.0
H1387 H 0.89959 0.02991 0.35534 0.0
C1388 C 0.97927 0.08182 0.3505 0.0
C1389 C 0.98255 0.06241 0.34324 0.0
C1390 C 0.95616 0.08787 0.35422 0.0
C1391 C 0.93566 0.07489 0.35069 0.0
C1392 C 0.9387 0.05567 0.3433 0.0
H1393 H 0.80778 0.1549 0.37338 0.0
H1394 H 0.83054 0.1291 0.36073 0.0
C1395 C 0.96204 0.04934 0.33966 0.0
C1396 C 0.9114 0.08229 0.35479 0.0
H1397 H 0.86509 0.06455 0.37147 0.0
C1398 C 0.9048 0.1068 0.35363 0.0
C1399 C 0.89664 0.06667 0.3611 0.0
C1400 C 0.90318 0.04031 0.36287 0.0
C1401 C 0.88502 0.11667 0.35927 0.0
C1402 C 0.87049 0.10122 0.36582 0.0
C1403 C 0.87612 0.0763 0.3664 0.0
C1404 C 0.85171 0.11129 0.37323 0.0
C1405 C 0.88127 0.14391 0.3588 0.0
C1406 C 0.85417 0.10793 0.38446 0.0
C1407 C 0.84039 0.12184 0.39168 0.0
C1408 C 0.82436 0.13958 0.38774 0.0
C1409 C 0.82025 0.14139 0.37656 0.0
C1410 C 0.83341 0.12687 0.36935 0.0
H1411 H 0.89741 0.15352 0.35546 0.0
H1412 H 0.86558 0.14805 0.35346 0.0
H1413 H 0.87748 0.15143 0.36697 0.0
H1414 H 0.86804 0.09591 0.38766 0.0
H1415 H 0.84392 0.12031 0.40029 0.0
H1416 H 0.63528 0.06667 0.14502 0.0
H1417 H 0.66492 0.08732 0.13333 0.0
H1418 H 0.60847 0.10127 0.10986 0.0
H1419 H 0.57906 0.08034 0.1213 0.0
H1420 H 0.65486 0.09276 0.1004 0.0
H1421 H 0.65714 0.16162 0.1336 0.0
H1422 H 0.66634 0.1312 0.13701 0.0
H1423 H 0.63524 0.13721 0.13341 0.0
C1424 C 0.62938 0.07357 0.13723 0.0
C1425 C 0.60478 0.07237 0.13416 0.0
C1426 C 0.6463 0.08539 0.13058 0.0
C1427 C 0.63873 0.09624 0.12085 0.0
C1428 C 0.61467 0.09309 0.11736 0.0
H1429 H 0.65424 0.21117 0.07778 0.0
H1430 H 0.64986 0.17038 0.08538 0.0
C1431 C 0.59783 0.08126 0.12395 0.0
C1432 C 0.6543 0.11395 0.11508 0.0
H1433 H 0.67457 0.17236 0.11717 0.0
C1434 C 0.65969 0.11 0.1041 0.0
C1435 C 0.6605 0.13644 0.11993 0.0
C1436 C 0.65443 0.14209 0.13161 0.0
C1437 C 0.67019 0.12839 0.09772 0.0
C1438 C 0.67497 0.15136 0.10243 0.0
C1439 C 0.67096 0.15472 0.11356 0.0
C1440 C 0.68125 0.17317 0.09594 0.0
C1441 C 0.67548 0.12323 0.08596 0.0
C1442 C 0.70057 0.1882 0.09918 0.0
C1443 C 0.70276 0.21169 0.09502 0.0
C1444 C 0.68577 0.22051 0.08747 0.0
C1445 C 0.66767 0.20478 0.08354 0.0
C1446 C 0.66527 0.18136 0.08783 0.0
H1447 H 0.67964 0.10365 0.08468 0.0
H1448 H 0.65916 0.12768 0.08106 0.0
H1449 H 0.69101 0.13426 0.08296 0.0
H1450 H 0.71306 0.1823 0.10544 0.0
H1451 H 0.71706 0.22337 0.09811 0.0
H1452 H 0.63733 0.81444 0.88307 0.0
H1453 H 0.61607 0.84117 0.87057 0.0
H1454 H 0.66754 0.89858 0.87735 0.0
H1455 H 0.68817 0.87199 0.89048 0.0
H1456 H 0.62547 0.91732 0.8766 0.0
H1457 H 0.63102 0.85946 0.84056 0.0
H1458 H 0.6177 0.8415 0.85108 0.0
H1459 H 0.64841 0.85282 0.8526 0.0
C1460 C 0.64422 0.83271 0.88185 0.0
C1461 C 0.66445 0.84115 0.88767 0.0
C1462 C 0.63223 0.84792 0.87458 0.0
C1463 C 0.64069 0.87166 0.87266 0.0
C1464 C 0.66086 0.88023 0.87856 0.0
H1465 H 0.54017 0.93165 0.82446 0.0
H1466 H 0.58043 0.92249 0.83205 0.0
C1467 C 0.67258 0.86511 0.88607 0.0
C1468 C 0.62707 0.88774 0.86512 0.0
H1469 H 0.59425 0.88519 0.84173 0.0
C1470 C 0.61916 0.91056 0.86884 0.0
C1471 C 0.61958 0.87969 0.85474 0.0
C1472 C 0.62995 0.85716 0.84949 0.0
C1473 C 0.602 0.92419 0.863 0.0
C1474 C 0.59161 0.91417 0.85349 0.0
C1475 C 0.60151 0.89268 0.84919 0.0
C1476 C 0.56853 0.92359 0.84878 0.0
C1477 C 0.59486 0.9489 0.86728 0.0
C1478 C 0.54845 0.9275 0.8556 0.0
C1479 C 0.52575 0.93324 0.85131 0.0
C1480 C 0.52228 0.93444 0.84005 0.0
C1481 C 0.54233 0.93086 0.83317 0.0
C1482 C 0.56532 0.92563 0.83751 0.0
H1483 H 0.61088 0.95826 0.87086 0.0
H1484 H 0.5871 0.96067 0.86084 0.0
H1485 H 0.58124 0.94668 0.87384 0.0
H1486 H 0.54997 0.92501 0.86427 0.0
H1487 H 0.51063 0.93552 0.85685 0.0
H1488 H 0.92202 0.10024 0.8714 0.0
H1489 H 0.89346 0.12169 0.88307 0.0
H1490 H 0.83349 0.0956 0.86371 0.0
H1491 H 0.8622 0.07445 0.85177 0.0
H1492 H 0.83146 0.14346 0.86632 0.0
H1493 H 0.8468 0.1025 0.90647 0.0
H1494 H 0.8752 0.11165 0.90063 0.0
H1495 H 0.85733 0.08827 0.89414 0.0
C1496 C 0.90273 0.09867 0.86972 0.0
C1497 C 0.89435 0.08571 0.86065 0.0
C1498 C 0.88637 0.11076 0.87648 0.0
C1499 C 0.86126 0.10987 0.87441 0.0
C1500 C 0.85277 0.09633 0.86553 0.0
H1501 H 0.76108 0.21814 0.90326 0.0
H1502 H 0.77315 0.17828 0.89597 0.0
C1503 C 0.86918 0.0843 0.85871 0.0
C1504 C 0.84451 0.12559 0.88072 0.0
H1505 H 0.83245 0.14467 0.9065 0.0
C1506 C 0.83107 0.14328 0.87511 0.0
C1507 C 0.8439 0.12529 0.89218 0.0
C1508 C 0.8564 0.1057 0.89868 0.0
C1509 C 0.81873 0.16185 0.88064 0.0
C1510 C 0.81976 0.16261 0.89207 0.0
C1511 C 0.8318 0.14404 0.89772 0.0
C1512 C 0.81174 0.18446 0.89807 0.0
C1513 C 0.80616 0.18155 0.87421 0.0
C1514 C 0.82943 0.20058 0.90198 0.0
C1515 C 0.82267 0.22324 0.90606 0.0
C1516 C 0.79804 0.23011 0.90638 0.0
C1517 C 0.78018 0.21329 0.90312 0.0
C1518 C 0.78703 0.1906 0.89893 0.0
H1519 H 0.80861 0.17923 0.86534 0.0
H1520 H 0.78638 0.1813 0.87602 0.0
H1521 H 0.8133 0.1997 0.87659 0.0
H1522 H 0.8486 0.19612 0.90137 0.0
H1523 H 0.83682 0.23573 0.9086 0.0
H1524 H 0.68426 0.16174 0.62577 0.0
H1525 H 0.66219 0.13518 0.63828 0.0
H1526 H 0.63107 0.09682 0.61104 0.0
H1527 H 0.65473 0.12208 0.59865 0.0
H1528 H 0.61795 0.13567 0.64079 0.0
H1529 H 0.63787 0.04076 0.6302 0.0
H1530 H 0.65634 0.06547 0.62519 0.0
H1531 H 0.62923 0.0561 0.61802 0.0
C1532 C 0.67333 0.14702 0.62253 0.0
C1533 C 0.67114 0.14377 0.61131 0.0
C1534 C 0.66069 0.13188 0.62966 0.0
C1535 C 0.64501 0.11372 0.62568 0.0
C1536 C 0.64361 0.10999 0.61441 0.0
H1537 H 0.50294 0.08947 0.64497 0.0
H1538 H 0.54308 0.10275 0.63939 0.0
C1539 C 0.65694 0.12461 0.6073 0.0
C1540 C 0.62731 0.10163 0.63305 0.0
H1541 H 0.59616 0.04854 0.63691 0.0
C1542 C 0.61377 0.11644 0.64012 0.0
C1543 C 0.62193 0.07643 0.63251 0.0
C1544 C 0.63738 0.05882 0.62615 0.0
C1545 C 0.5939 0.10724 0.64591 0.0
C1546 C 0.58662 0.08285 0.64424 0.0
C1547 C 0.60134 0.06745 0.63796 0.0
C1548 C 0.56241 0.07412 0.64783 0.0
C1549 C 0.58046 0.12407 0.65351 0.0
C1550 C 0.55975 0.05292 0.65407 0.0
C1551 C 0.53652 0.04493 0.65716 0.0
C1552 C 0.5157 0.05806 0.65403 0.0
C1553 C 0.51855 0.07908 0.64768 0.0
C1554 C 0.54157 0.08684 0.64453 0.0
H1555 H 0.59304 0.13767 0.65712 0.0
H1556 H 0.56641 0.13424 0.6489 0.0
H1557 H 0.57143 0.1139 0.66015 0.0
H1558 H 0.5756 0.04266 0.65659 0.0
H1559 H 0.53487 0.02859 0.66201 0.0
H1560 H 0.73282 0.78999 0.40295 0.0
H1561 H 0.7213 0.83001 0.39569 0.0
H1562 H 0.64588 0.81445 0.40247 0.0
H1563 H 0.65713 0.7746 0.40958 0.0
H1564 H 0.68811 0.83228 0.37758 0.0
H1565 H 0.65474 0.88628 0.41237 0.0
H1566 H 0.67574 0.86115 0.41386 0.0
H1567 H 0.64367 0.85552 0.41233 0.0
C1568 C 0.71387 0.79543 0.40314 0.0
C1569 C 0.69583 0.77921 0.40676 0.0
C1570 C 0.70735 0.81823 0.399 0.0
C1571 C 0.6828 0.82524 0.39868 0.0
C1572 C 0.66497 0.80956 0.40284 0.0
H1573 H 0.57238 0.90204 0.36962 0.0
H1574 H 0.60167 0.88152 0.38127 0.0
C1575 C 0.6714 0.78672 0.40681 0.0
C1576 C 0.67503 0.84706 0.39262 0.0
H1577 H 0.63814 0.89668 0.39484 0.0
C1578 C 0.67776 0.84683 0.38133 0.0
C1579 C 0.66155 0.86587 0.39759 0.0
C1580 C 0.65892 0.86741 0.40972 0.0
C1581 C 0.66546 0.86366 0.37477 0.0
C1582 C 0.6506 0.88155 0.37971 0.0
C1583 C 0.64947 0.88291 0.39106 0.0
C1584 C 0.63341 0.89649 0.3733 0.0
C1585 C 0.6669 0.86082 0.36262 0.0
C1586 C 0.64152 0.91223 0.3651 0.0
C1587 C 0.62473 0.92378 0.3583 0.0
C1588 C 0.59963 0.92 0.35973 0.0
C1589 C 0.5916 0.90526 0.3683 0.0
C1590 C 0.60833 0.89358 0.37499 0.0
H1591 H 0.6757 0.84344 0.3602 0.0
H1592 H 0.64846 0.86148 0.35896 0.0
H1593 H 0.67777 0.87597 0.35918 0.0
H1594 H 0.66079 0.91513 0.3638 0.0
H1595 H 0.6314 0.93527 0.35182 0.0
H1596 H 0.98905 0.90978 0.14434 0.0
H1597 H 0.94939 0.89471 0.13907 0.0
H1598 H 0.91508 0.94337 0.16189 0.0
H1599 H 0.95531 0.95944 0.167 0.0
H1600 H 0.91644 0.87158 0.15101 0.0
H1601 H 0.87663 0.95711 0.13455 0.0
H1602 H 0.90852 0.95447 0.13782 0.0
H1603 H 0.88643 0.95761 0.14844 0.0
C1604 C 0.97315 0.91741 0.14827 0.0
C1605 C 0.97534 0.93585 0.1561 0.0
C1606 C 0.95042 0.90872 0.14524 0.0
C1607 C 0.92921 0.91797 0.15003 0.0
C1608 C 0.93118 0.93626 0.15795 0.0
H1609 H 0.81013 0.8249 0.12677 0.0
H1610 H 0.83187 0.84974 0.14015 0.0
C1611 C 0.95414 0.94532 0.1609 0.0
C1612 C 0.90546 0.90777 0.14655 0.0
H1613 H 0.85467 0.92109 0.13178 0.0
C1614 C 0.90268 0.8824 0.14694 0.0
C1615 C 0.8876 0.922 0.14128 0.0
C1616 C 0.88987 0.9493 0.1404 0.0
C1617 C 0.88384 0.87063 0.14139 0.0
C1618 C 0.86636 0.88477 0.13575 0.0
C1619 C 0.86804 0.9103 0.1361 0.0
C1620 C 0.84856 0.87339 0.12824 0.0
C1621 C 0.88424 0.84314 0.14088 0.0
C1622 C 0.84891 0.87982 0.11722 0.0
C1623 C 0.83574 0.86628 0.10965 0.0
C1624 C 0.82241 0.84584 0.11296 0.0
C1625 C 0.82061 0.84044 0.12404 0.0
C1626 C 0.83316 0.85448 0.13166 0.0
H1627 H 0.90199 0.83553 0.14354 0.0
H1628 H 0.86999 0.83572 0.14631 0.0
H1629 H 0.88064 0.8366 0.13252 0.0
H1630 H 0.86053 0.8944 0.11437 0.0
H1631 H 0.83743 0.87075 0.10114 0.0
H1632 H 0.68646 0.70413 0.9259 0.0
H1633 H 0.67866 0.66264 0.91936 0.0
H1634 H 0.67857 0.68922 0.88645 0.0
H1635 H 0.68776 0.72973 0.89282 0.0
H1636 H 0.64182 0.64588 0.91052 0.0
H1637 H 0.71298 0.62877 0.88072 0.0
H1638 H 0.71551 0.65361 0.89022 0.0
H1639 H 0.70082 0.65788 0.87724 0.0
C1640 C 0.68541 0.70086 0.91727 0.0
C1641 C 0.68785 0.72017 0.90988 0.0
C1642 C 0.68097 0.67716 0.91353 0.0
C1643 C 0.67861 0.67249 0.90236 0.0
C1644 C 0.6814 0.69185 0.89505 0.0
H1645 H 0.56764 0.6078 0.87017 0.0
H1646 H 0.5958 0.62575 0.88301 0.0
C1647 C 0.68635 0.71525 0.89874 0.0
C1648 C 0.66973 0.64862 0.89826 0.0
H1649 H 0.67126 0.61443 0.87523 0.0
C1650 C 0.64879 0.63851 0.90299 0.0
C1651 C 0.67918 0.63791 0.8887 0.0
C1652 C 0.70356 0.64502 0.88406 0.0
C1653 C 0.63546 0.6203 0.89768 0.0
C1654 C 0.64252 0.61298 0.88714 0.0
C1655 C 0.66513 0.62069 0.8831 0.0
C1656 C 0.62529 0.60061 0.87965 0.0
C1657 C 0.61345 0.60984 0.90331 0.0
C1658 C 0.63272 0.58122 0.87297 0.0
C1659 C 0.61674 0.57145 0.86525 0.0
C1660 C 0.59305 0.58075 0.86423 0.0
C1661 C 0.58566 0.59998 0.87092 0.0
C1662 C 0.60171 0.61006 0.8784 0.0
H1663 H 0.61697 0.60791 0.91213 0.0
H1664 H 0.59786 0.62251 0.9024 0.0
H1665 H 0.60834 0.59176 0.9 0.0
H1666 H 0.65092 0.57381 0.87366 0.0
H1667 H 0.62283 0.5566 0.86015 0.0
H1668 H 0.63347 0.31356 0.11602 0.0
H1669 H 0.6123 0.33938 0.129 0.0
H1670 H 0.66995 0.39263 0.1267 0.0
H1671 H 0.69026 0.36736 0.11298 0.0
H1672 H 0.62231 0.35443 0.148 0.0
H1673 H 0.61449 0.43635 0.12177 0.0
H1674 H 0.62578 0.4078 0.11669 0.0
H1675 H 0.64506 0.42716 0.12475 0.0
C1676 C 0.64153 0.33085 0.11826 0.0
C1677 C 0.66328 0.33868 0.11348 0.0
C1678 C 0.62951 0.34558 0.12572 0.0
C1679 C 0.63928 0.36821 0.12877 0.0
C1680 C 0.66159 0.37567 0.12426 0.0
H1681 H 0.53847 0.42797 0.17812 0.0
H1682 H 0.57876 0.4169 0.17104 0.0
C1683 C 0.67327 0.3612 0.11648 0.0
C1684 C 0.62543 0.38369 0.1365 0.0
H1685 H 0.59517 0.43772 0.13857 0.0
C1686 C 0.61648 0.37274 0.14598 0.0
C1687 C 0.61812 0.40773 0.13395 0.0
C1688 C 0.62617 0.42043 0.12371 0.0
C1689 C 0.59859 0.384 0.15235 0.0
C1690 C 0.59046 0.40763 0.14953 0.0
C1691 C 0.60131 0.41958 0.1407 0.0
C1692 C 0.56787 0.41828 0.15418 0.0
C1693 C 0.58721 0.36955 0.16144 0.0
C1694 C 0.54888 0.42445 0.14709 0.0
C1695 C 0.52633 0.43157 0.15109 0.0
C1696 C 0.52197 0.43226 0.1623 0.0
C1697 C 0.54125 0.4273 0.16945 0.0
C1698 C 0.56419 0.42075 0.1654 0.0
H1699 H 0.59235 0.35 0.16113 0.0
H1700 H 0.59347 0.37692 0.16933 0.0
H1701 H 0.56705 0.37077 0.16114 0.0
H1702 H 0.55113 0.42273 0.13841 0.0
H1703 H 0.51193 0.43524 0.14532 0.0
H1704 H 0.78718 0.28861 0.41689 0.0
H1705 H 0.80243 0.32874 0.41117 0.0
H1706 H 0.84831 0.29397 0.38739 0.0
H1707 H 0.83398 0.25438 0.3932 0.0
H1708 H 0.87289 0.32663 0.39926 0.0
H1709 H 0.78684 0.36729 0.38381 0.0
H1710 H 0.78685 0.35704 0.39764 0.0
H1711 H 0.78956 0.33529 0.38685 0.0
C1712 C 0.80047 0.28965 0.41043 0.0
C1713 C 0.80947 0.26834 0.40554 0.0
C1714 C 0.80904 0.31255 0.40713 0.0
C1715 C 0.82638 0.31434 0.3988 0.0
C1716 C 0.83502 0.29305 0.39387 0.0
H1717 H 0.87431 0.41137 0.35112 0.0
H1718 H 0.85035 0.38618 0.36351 0.0
C1719 C 0.82679 0.27037 0.39722 0.0
C1720 C 0.83656 0.33798 0.39522 0.0
H1721 H 0.82281 0.38963 0.38113 0.0
C1722 C 0.86194 0.34062 0.39543 0.0
C1723 C 0.82217 0.35609 0.39021 0.0
C1724 C 0.79485 0.35386 0.38951 0.0
C1725 C 0.87354 0.35986 0.39008 0.0
C1726 C 0.85922 0.37778 0.38483 0.0
C1727 C 0.83371 0.37597 0.3852 0.0
C1728 C 0.87052 0.39667 0.37786 0.0
C1729 C 0.90101 0.3596 0.38945 0.0
C1730 C 0.88899 0.41188 0.38186 0.0
C1731 C 0.90316 0.42562 0.37474 0.0
C1732 C 0.89834 0.42517 0.36358 0.0
C1733 C 0.8783 0.41198 0.35971 0.0
C1734 C 0.86461 0.39764 0.36679 0.0
H1735 H 0.90869 0.34154 0.39162 0.0
H1736 H 0.90738 0.3643 0.38117 0.0
H1737 H 0.90852 0.37314 0.39522 0.0
H1738 H 0.89331 0.41211 0.39042 0.0
H1739 H 0.91836 0.43598 0.3779 0.0
H1740 H 0.85434 0.67317 0.62092 0.0
H1741 H 0.87634 0.64324 0.63166 0.0
H1742 H 0.84174 0.58513 0.61389 0.0
H1743 H 0.82002 0.61521 0.60282 0.0
H1744 H 0.86179 0.60578 0.64493 0.0
H1745 H 0.91345 0.5708 0.60929 0.0
H1746 H 0.89532 0.59809 0.60859 0.0
H1747 H 0.88086 0.56877 0.60861 0.0
C1748 C 0.85127 0.65403 0.61932 0.0
C1749 C 0.83567 0.64652 0.61095 0.0
C1750 C 0.86379 0.63693 0.6255 0.0
C1751 C 0.86092 0.61197 0.62348 0.0
C1752 C 0.84457 0.60432 0.61543 0.0
H1753 H 0.96961 0.51217 0.65147 0.0
H1754 H 0.92931 0.52356 0.64447 0.0
C1755 C 0.83214 0.6215 0.60915 0.0
C1756 C 0.87629 0.59447 0.62951 0.0
H1757 H 0.92591 0.55777 0.62641 0.0
C1758 C 0.8755 0.59487 0.64088 0.0
C1759 C 0.89408 0.58013 0.6242 0.0
C1760 C 0.89622 0.57943 0.61201 0.0
C1761 C 0.89303 0.58264 0.64707 0.0
C1762 C 0.91176 0.56976 0.64175 0.0
C1763 C 0.91143 0.56769 0.63043 0.0
C1764 C 0.934 0.56205 0.64751 0.0
C1765 C 0.89212 0.58454 0.65925 0.0
C1766 C 0.94974 0.57993 0.65158 0.0
C1767 C 0.97273 0.57358 0.6554 0.0
C1768 C 0.98033 0.54918 0.65529 0.0
C1769 C 0.9641 0.53109 0.65171 0.0
C1770 C 0.94115 0.53754 0.64771 0.0
H1771 H 0.87339 0.58849 0.66214 0.0
H1772 H 0.89865 0.56749 0.66311 0.0
H1773 H 0.90412 0.59965 0.66191 0.0
H1774 H 0.94471 0.59899 0.6513 0.0
H1775 H 0.98486 0.58787 0.65813 0.0
H1776 H 0.70976 0.26775 0.60093 0.0
H1777 H 0.69893 0.30602 0.60983 0.0
H1778 H 0.63545 0.31202 0.58945 0.0
H1779 H 0.64662 0.27411 0.58028 0.0
H1780 H 0.65665 0.35704 0.59398 0.0
H1781 H 0.64333 0.30249 0.63145 0.0
H1782 H 0.67351 0.30111 0.62594 0.0
H1783 H 0.64841 0.28863 0.61841 0.0
C1784 C 0.69378 0.2775 0.5982 0.0
C1785 C 0.67883 0.26783 0.59003 0.0
C1786 C 0.68757 0.29929 0.60331 0.0
C1787 C 0.66604 0.31147 0.6005 0.0
C1788 C 0.65207 0.30281 0.59179 0.0
H1789 H 0.56385 0.40997 0.62712 0.0
H1790 H 0.58979 0.38558 0.61531 0.0
C1791 C 0.65848 0.28117 0.58655 0.0
C1792 C 0.65678 0.33168 0.60728 0.0
H1793 H 0.63568 0.34441 0.63266 0.0
C1794 C 0.65224 0.35438 0.60246 0.0
C1795 C 0.65092 0.32808 0.61834 0.0
C1796 C 0.65405 0.30373 0.62384 0.0
C1797 C 0.64175 0.37351 0.6084 0.0
C1798 C 0.63554 0.3697 0.61937 0.0
C1799 C 0.64072 0.34729 0.62426 0.0
C1800 C 0.62142 0.38766 0.62571 0.0
C1801 C 0.63715 0.39753 0.60287 0.0
C1802 C 0.63063 0.39697 0.63547 0.0
C1803 C 0.6158 0.41092 0.64227 0.0
C1804 C 0.59143 0.41542 0.63947 0.0
C1805 C 0.58255 0.40678 0.62951 0.0
C1806 C 0.59741 0.39302 0.6227 0.0
H1807 H 0.64894 0.39987 0.59563 0.0
H1808 H 0.61791 0.39825 0.60016 0.0
H1809 H 0.64031 0.41297 0.60851 0.0
H1810 H 0.64906 0.39278 0.63798 0.0
H1811 H 0.62311 0.41731 0.64991 0.0
H1812 H 0.97906 0.4678 0.8506 0.0
H1813 H 0.93943 0.46111 0.85911 0.0
H1814 H 0.92893 0.39697 0.8395 0.0
H1815 H 0.96826 0.40402 0.8307 0.0
H1816 H 0.88541 0.42251 0.84352 0.0
H1817 H 0.93822 0.40649 0.88133 0.0
H1818 H 0.94199 0.43609 0.87543 0.0
H1819 H 0.95266 0.40961 0.8683 0.0
C1820 C 0.96804 0.45259 0.84793 0.0
C1821 C 0.97683 0.4362 0.84011 0.0
C1822 C 0.94545 0.44877 0.85281 0.0
C1823 C 0.93158 0.4282 0.85013 0.0
C1824 C 0.93944 0.4129 0.84171 0.0
H1825 H 0.83022 0.33009 0.87503 0.0
H1826 H 0.85324 0.35768 0.8635 0.0
C1827 C 0.9619 0.41694 0.83669 0.0
C1828 C 0.91053 0.42097 0.8569 0.0
H1829 H 0.89617 0.40059 0.8822 0.0
C1830 C 0.88765 0.41799 0.85201 0.0
C1831 C 0.91353 0.41507 0.86798 0.0
C1832 C 0.93793 0.41675 0.87358 0.0
C1833 C 0.86782 0.40866 0.85787 0.0
C1834 C 0.87111 0.40195 0.86883 0.0
C1835 C 0.89366 0.40598 0.87382 0.0
C1836 C 0.85282 0.38762 0.87489 0.0
C1837 C 0.84366 0.4056 0.85224 0.0
C1838 C 0.84467 0.39535 0.88512 0.0
C1839 C 0.83152 0.37949 0.89179 0.0
C1840 C 0.82671 0.35559 0.88837 0.0
C1841 C 0.83374 0.34839 0.8779 0.0
C1842 C 0.84669 0.36424 0.87124 0.0
H1843 H 0.84168 0.41873 0.84545 0.0
H1844 H 0.84254 0.38697 0.8488 0.0
H1845 H 0.82826 0.40812 0.85796 0.0
H1846 H 0.84947 0.41324 0.88813 0.0
H1847 H 0.82638 0.38548 0.89983 0.0
H1848 H 0.8505 0.71805 0.079 0.0
H1849 H 0.8585 0.67845 0.08724 0.0
H1850 H 0.79269 0.68477 0.1061 0.0
H1851 H 0.7849 0.72463 0.09807 0.0
H1852 H 0.83175 0.67856 0.11853 0.0
H1853 H 0.83369 0.60934 0.08608 0.0
H1854 H 0.85226 0.63515 0.08281 0.0
H1855 H 0.81985 0.63888 0.08425 0.0
C1856 C 0.83733 0.71065 0.08464 0.0
C1857 C 0.8172 0.7245 0.08797 0.0
C1858 C 0.84185 0.68792 0.0893 0.0
C1859 C 0.82608 0.67853 0.09723 0.0
C1860 C 0.80506 0.69163 0.09998 0.0
H1861 H 0.86774 0.57112 0.1468 0.0
H1862 H 0.84077 0.59412 0.13471 0.0
C1863 C 0.80067 0.71443 0.09541 0.0
C1864 C 0.83361 0.65738 0.10387 0.0
H1865 H 0.85635 0.59966 0.10238 0.0
C1866 C 0.83656 0.66109 0.11505 0.0
C1867 C 0.83997 0.63466 0.0993 0.0
C1868 C 0.83604 0.62918 0.08746 0.0
C1869 C 0.84711 0.64329 0.12166 0.0
C1870 C 0.85452 0.62097 0.11701 0.0
C1871 C 0.85057 0.61678 0.10592 0.0
C1872 C 0.86915 0.6033 0.12326 0.0
C1873 C 0.85168 0.64916 0.13344 0.0
C1874 C 0.89366 0.59989 0.12052 0.0
C1875 C 0.909 0.58676 0.12735 0.0
C1876 C 0.90008 0.57677 0.13705 0.0
C1877 C 0.87515 0.57879 0.13943 0.0
C1878 C 0.85975 0.59194 0.13255 0.0
H1879 H 0.84856 0.6687 0.1353 0.0
H1880 H 0.83919 0.63825 0.13857 0.0
H1881 H 0.87064 0.64446 0.13574 0.0
H1882 H 0.90124 0.60849 0.11338 0.0
H1883 H 0.92808 0.58535 0.12524 0.0
H1884 H 0.65026 0.67682 0.3792 0.0
H1885 H 0.62972 0.64566 0.36859 0.0
H1886 H 0.65991 0.5899 0.38919 0.0
H1887 H 0.68005 0.6213 0.40015 0.0
H1888 H 0.64406 0.60601 0.35697 0.0
H1889 H 0.58768 0.57796 0.39237 0.0
H1890 H 0.60663 0.60472 0.39268 0.0
H1891 H 0.62004 0.57501 0.39388 0.0
C1892 C 0.65275 0.65793 0.38144 0.0
C1893 C 0.66649 0.65152 0.3906 0.0
C1894 C 0.64105 0.6401 0.37533 0.0
C1895 C 0.64292 0.61547 0.3782 0.0
C1896 C 0.65778 0.60884 0.38698 0.0
H1897 H 0.53507 0.51314 0.3514 0.0
H1898 H 0.575 0.52514 0.35862 0.0
C1899 C 0.66936 0.62677 0.39319 0.0
C1900 C 0.62775 0.5974 0.37237 0.0
H1901 H 0.57702 0.56219 0.37548 0.0
C1902 C 0.6297 0.59602 0.36104 0.0
C1903 C 0.60904 0.58429 0.3777 0.0
C1904 C 0.60549 0.5856 0.38981 0.0
C1905 C 0.61255 0.58319 0.35485 0.0
C1906 C 0.59303 0.57146 0.36014 0.0
C1907 C 0.59212 0.5712 0.37148 0.0
C1908 C 0.5713 0.56302 0.35416 0.0
C1909 C 0.61477 0.58318 0.34268 0.0
C1910 C 0.55625 0.58031 0.34917 0.0
C1911 C 0.53346 0.57363 0.34521 0.0
C1912 C 0.52536 0.54947 0.34609 0.0
C1913 C 0.54098 0.53184 0.35053 0.0
C1914 C 0.56372 0.53866 0.35467 0.0
H1915 H 0.63386 0.58642 0.34007 0.0
H1916 H 0.60837 0.56565 0.33921 0.0
H1917 H 0.60332 0.59799 0.33931 0.0
H1918 H 0.56159 0.59929 0.34887 0.0
H1919 H 0.52179 0.58758 0.34181 0.0
H1920 H 0.42938 0.38499 0.13528 0.0
H1921 H 0.40367 0.36437 0.12216 0.0
H1922 H 0.3464 0.41661 0.12795 0.0
H1923 H 0.37191 0.43654 0.14174 0.0
H1924 H 0.32695 0.3752 0.12649 0.0
H1925 H 0.38889 0.37969 0.09189 0.0
H1926 H 0.40566 0.36611 0.10271 0.0
H1927 H 0.39455 0.39695 0.10406 0.0
C1928 C 0.41135 0.39218 0.13371 0.0
C1929 C 0.40262 0.41241 0.13943 0.0
C1930 C 0.39675 0.38058 0.12608 0.0
C1931 C 0.37339 0.38946 0.1237 0.0
C1932 C 0.36449 0.40962 0.12951 0.0
H1933 H 0.3201 0.28625 0.0752 0.0
H1934 H 0.32781 0.32727 0.08232 0.0
C1935 C 0.37898 0.42093 0.1374 0.0
C1936 C 0.35795 0.37618 0.11577 0.0
H1937 H 0.36321 0.34257 0.0927 0.0
C1938 C 0.33462 0.36861 0.11895 0.0
C1939 C 0.36716 0.36841 0.10562 0.0
C1940 C 0.39031 0.37855 0.10085 0.0
C1941 C 0.32164 0.35133 0.11289 0.0
C1942 C 0.33284 0.34042 0.10376 0.0
C1943 C 0.35481 0.35016 0.0999 0.0
C1944 C 0.32423 0.31689 0.09918 0.0
C1945 C 0.29635 0.34452 0.11657 0.0
C1946 C 0.31944 0.29741 0.10622 0.0
C1947 C 0.31449 0.2743 0.10218 0.0
C1948 C 0.31503 0.2698 0.09098 0.0
C1949 C 0.31956 0.28922 0.08387 0.0
C1950 C 0.32395 0.31264 0.08794 0.0
H1951 H 0.28655 0.36084 0.11961 0.0
H1952 H 0.2855 0.33622 0.10995 0.0
H1953 H 0.29761 0.33148 0.12341 0.0
H1954 H 0.32063 0.29971 0.11491 0.0
H1955 H 0.31146 0.25967 0.1079 0.0
H1956 H 0.47411 0.58755 0.84211 0.0
H1957 H 0.43381 0.59704 0.84926 0.0
H1958 H 0.41975 0.52063 0.85413 0.0
H1959 H 0.46024 0.51085 0.84688 0.0
H1960 H 0.3824 0.57699 0.84406 0.0
H1961 H 0.42026 0.55662 0.88503 0.0
H1962 H 0.44015 0.56301 0.87375 0.0
H1963 H 0.42368 0.53487 0.8742 0.0
C1964 C 0.46227 0.5727 0.84448 0.0
C1965 C 0.47038 0.54848 0.84404 0.0
C1966 C 0.43923 0.57815 0.84851 0.0
C1967 C 0.42398 0.55953 0.85227 0.0
C1968 C 0.43136 0.5352 0.85126 0.0
H1969 H 0.31914 0.61499 0.89966 0.0
H1970 H 0.33734 0.58357 0.88806 0.0
C1971 C 0.45442 0.52967 0.8471 0.0
C1972 C 0.40194 0.56628 0.8584 0.0
H1973 H 0.38455 0.57964 0.88421 0.0
C1974 C 0.38245 0.57701 0.85285 0.0
C1975 C 0.402 0.566 0.86984 0.0
C1976 C 0.42259 0.55457 0.87614 0.0
C1977 C 0.36379 0.589 0.85848 0.0
C1978 C 0.36518 0.59091 0.8699 0.0
C1979 C 0.38355 0.57831 0.87546 0.0
C1980 C 0.35063 0.60898 0.87604 0.0
C1981 C 0.34331 0.60032 0.8521 0.0
C1982 C 0.35197 0.63361 0.87311 0.0
C1983 C 0.34166 0.65146 0.87968 0.0
C1984 C 0.33004 0.64511 0.88941 0.0
C1985 C 0.328 0.6204 0.89221 0.0
C1986 C 0.33832 0.60246 0.88558 0.0
H1987 H 0.33917 0.58935 0.84477 0.0
H1988 H 0.3265 0.60205 0.85704 0.0
H1989 H 0.34891 0.61871 0.84934 0.0
H1990 H 0.36203 0.63923 0.866 0.0
H1991 H 0.3436 0.67034 0.8773 0.0
H1992 H 0.1648 0.72162 0.59174 0.0
H1993 H 0.15557 0.68153 0.59918 0.0
H1994 H 0.23217 0.66743 0.60338 0.0
H1995 H 0.24169 0.70771 0.59582 0.0
H1996 H 0.1766 0.62968 0.59372 0.0
H1997 H 0.19603 0.66842 0.63462 0.0
H1998 H 0.18871 0.68815 0.6234 0.0
H1999 H 0.21733 0.67254 0.62366 0.0
C2000 C 0.17973 0.70982 0.59404 0.0
C2001 C 0.20395 0.71784 0.5933 0.0
C2002 C 0.17443 0.6869 0.59824 0.0
C2003 C 0.1932 0.67169 0.60185 0.0
C2004 C 0.21749 0.679 0.6006 0.0
H2005 H 0.13822 0.56705 0.64939 0.0
H2006 H 0.16961 0.58556 0.63788 0.0
C2007 C 0.22287 0.70194 0.59627 0.0
C2008 C 0.18668 0.64966 0.60803 0.0
H2009 H 0.17293 0.63268 0.63385 0.0
C2010 C 0.17637 0.62991 0.60251 0.0
C2011 C 0.1867 0.64997 0.61947 0.0
C2012 C 0.19774 0.67084 0.62572 0.0
C2013 C 0.1645 0.6112 0.60815 0.0
C2014 C 0.16228 0.61282 0.61956 0.0
C2015 C 0.17449 0.63149 0.62511 0.0
C2016 C 0.1443 0.59812 0.62566 0.0
C2017 C 0.15364 0.59041 0.60181 0.0
C2018 C 0.11972 0.59895 0.6226 0.0
C2019 C 0.10188 0.58844 0.62911 0.0
C2020 C 0.10818 0.57715 0.63892 0.0
C2021 C 0.13285 0.57565 0.64187 0.0
C2022 C 0.15078 0.58615 0.6353 0.0
H2023 H 0.16486 0.58627 0.59455 0.0
H2024 H 0.15203 0.57369 0.6068 0.0
H2025 H 0.13525 0.59568 0.59892 0.0
H2026 H 0.11411 0.60875 0.61542 0.0
H2027 H 0.08304 0.58997 0.62663 0.0
H2028 H 0.13862 0.31901 0.38143 0.0
H2029 H 0.11806 0.34633 0.36901 0.0
H2030 H 0.16859 0.40366 0.37721 0.0
H2031 H 0.18845 0.3764 0.39031 0.0
H2032 H 0.12686 0.42225 0.3763 0.0
H2033 H 0.13302 0.3673 0.3395 0.0
H2034 H 0.11973 0.34813 0.34958 0.0
H2035 H 0.15029 0.35966 0.35145 0.0
C2036 C 0.14554 0.33737 0.38052 0.0
C2037 C 0.16521 0.34558 0.38676 0.0
C2038 C 0.13395 0.35293 0.37328 0.0
C2039 C 0.14228 0.37686 0.3718 0.0
C2040 C 0.16201 0.38518 0.37807 0.0
H2041 H 0.03783 0.43678 0.32538 0.0
H2042 H 0.07895 0.42843 0.33223 0.0
C2043 C 0.17331 0.36967 0.38556 0.0
C2044 C 0.12866 0.39342 0.36445 0.0
H2045 H 0.09508 0.39163 0.34127 0.0
C2046 C 0.12047 0.41586 0.36849 0.0
C2047 C 0.12108 0.38595 0.354 0.0
C2048 C 0.13183 0.36408 0.34836 0.0
C2049 C 0.10281 0.42946 0.36295 0.0
C2050 C 0.09217 0.41973 0.35343 0.0
C2051 C 0.10247 0.39883 0.34876 0.0
C2052 C 0.06845 0.42863 0.34916 0.0
C2053 C 0.09537 0.45378 0.36756 0.0
C2054 C 0.04884 0.43172 0.35633 0.0
C2055 C 0.02567 0.43705 0.35245 0.0
C2056 C 0.02124 0.43859 0.34127 0.0
C2057 C 0.04076 0.43571 0.33404 0.0
C2058 C 0.06424 0.43096 0.33796 0.0
H2059 H 0.11144 0.46338 0.37098 0.0
H2060 H 0.08682 0.46564 0.36136 0.0
H2061 H 0.08235 0.45091 0.37431 0.0
H2062 H 0.05112 0.42892 0.36494 0.0
H2063 H 0.01096 0.43875 0.35825 0.0
H2064 H 0.42506 0.60816 0.37025 0.0
H2065 H 0.39541 0.62566 0.38257 0.0
H2066 H 0.34157 0.57386 0.3717 0.0
H2067 H 0.37118 0.55712 0.35875 0.0
H2068 H 0.32094 0.61455 0.37315 0.0
H2069 H 0.37138 0.60603 0.41108 0.0
H2070 H 0.3913 0.62124 0.40186 0.0
H2071 H 0.38125 0.59057 0.39896 0.0
C2072 C 0.40698 0.6003 0.37056 0.0
C2073 C 0.40041 0.58122 0.3636 0.0
C2074 C 0.39008 0.61012 0.37773 0.0
C2075 C 0.36641 0.60055 0.37841 0.0
C2076 C 0.35979 0.58136 0.37145 0.0
H2077 H 0.30038 0.69992 0.42496 0.0
H2078 H 0.30831 0.65898 0.41782 0.0
C2079 C 0.37665 0.57185 0.36405 0.0
C2080 C 0.34836 0.61247 0.38565 0.0
H2081 H 0.34614 0.64355 0.40949 0.0
C2082 C 0.32614 0.62029 0.38123 0.0
C2083 C 0.3542 0.61908 0.39643 0.0
C2084 C 0.37571 0.60844 0.40236 0.0
C2085 C 0.31128 0.63692 0.38678 0.0
C2086 C 0.31952 0.64693 0.3967 0.0
C2087 C 0.34008 0.63671 0.40171 0.0
C2088 C 0.30986 0.67032 0.40102 0.0
C2089 C 0.28735 0.64411 0.38173 0.0
C2090 C 0.30759 0.6903 0.39401 0.0
C2091 C 0.30254 0.7134 0.39803 0.0
C2092 C 0.30042 0.7174 0.40923 0.0
C2093 C 0.30196 0.6974 0.41629 0.0
C2094 C 0.3065 0.67401 0.41221 0.0
H2095 H 0.2785 0.62802 0.37795 0.0
H2096 H 0.27464 0.65211 0.38774 0.0
H2097 H 0.29068 0.65751 0.37517 0.0
H2098 H 0.31111 0.68842 0.38542 0.0
H2099 H 0.30175 0.72839 0.39234 0.0
H2100 H 0.15788 0.68981 0.12398 0.0
H2101 H 0.13414 0.66307 0.13572 0.0
H2102 H 0.14204 0.6046 0.11268 0.0
H2103 H 0.16584 0.63132 0.10083 0.0
H2104 H 0.09361 0.6162 0.11853 0.0
H2105 H 0.15156 0.6039 0.15489 0.0
H2106 H 0.1485 0.63496 0.15056 0.0
H2107 H 0.16363 0.61339 0.14194 0.0
C2108 C 0.1549 0.67115 0.12148 0.0
C2109 C 0.16361 0.66266 0.11147 0.0
C2110 C 0.14153 0.65584 0.12825 0.0
C2111 C 0.13669 0.63178 0.12513 0.0
C2112 C 0.14585 0.62305 0.11526 0.0
H2113 H 0.02219 0.53732 0.15014 0.0
H2114 H 0.06004 0.5499 0.14133 0.0
C2115 C 0.15937 0.63834 0.1085 0.0
C2116 C 0.11958 0.61689 0.13156 0.0
H2117 H 0.10927 0.59413 0.15687 0.0
C2118 C 0.09716 0.61095 0.12685 0.0
C2119 C 0.12427 0.61038 0.14243 0.0
C2120 C 0.14839 0.61578 0.14775 0.0
C2121 C 0.07879 0.5996 0.13287 0.0
C2122 C 0.08328 0.59341 0.14382 0.0
C2123 C 0.10597 0.59878 0.14846 0.0
C2124 C 0.06386 0.58299 0.15069 0.0
C2125 C 0.05431 0.59554 0.12759 0.0
C2126 C 0.05453 0.59656 0.15938 0.0
C2127 C 0.03316 0.58919 0.16456 0.0
C2128 C 0.02078 0.56826 0.16103 0.0
C2129 C 0.03126 0.55367 0.15293 0.0
C2130 C 0.05279 0.56087 0.14787 0.0
H2131 H 0.05223 0.6063 0.12003 0.0
H2132 H 0.05235 0.57601 0.12547 0.0
H2133 H 0.03929 0.6005 0.13319 0.0
H2134 H 0.06289 0.61365 0.16169 0.0
H2135 H 0.02542 0.60083 0.17075 0.0
H2136 H 0.15628 0.26834 0.9089 0.0
H2137 H 0.1452 0.30861 0.90224 0.0
H2138 H 0.22108 0.32665 0.89838 0.0
H2139 H 0.23245 0.28611 0.90512 0.0
H2140 H 0.16129 0.35974 0.90846 0.0
H2141 H 0.18787 0.3279 0.86718 0.0
H2142 H 0.18223 0.3066 0.87802 0.0
H2143 H 0.20919 0.32497 0.87819 0.0
C2144 C 0.17066 0.28101 0.90683 0.0
C2145 C 0.19522 0.27402 0.90741 0.0
C2146 C 0.16429 0.30404 0.90308 0.0
C2147 C 0.18233 0.32043 0.89975 0.0
C2148 C 0.20695 0.31413 0.9009 0.0
H2149 H 0.13192 0.43172 0.85416 0.0
H2150 H 0.16086 0.4108 0.86606 0.0
C2151 C 0.21338 0.29106 0.90477 0.0
C2152 C 0.17482 0.3427 0.89396 0.0
H2153 H 0.16411 0.36304 0.86833 0.0
C2154 C 0.16238 0.36086 0.89971 0.0
C2155 C 0.17646 0.34411 0.88256 0.0
C2156 C 0.18957 0.3249 0.87605 0.0
C2157 C 0.15032 0.37975 0.89426 0.0
C2158 C 0.15016 0.37996 0.8828 0.0
C2159 C 0.16414 0.3628 0.87712 0.0
C2160 C 0.1332 0.39549 0.87652 0.0
C2161 C 0.13729 0.39885 0.90085 0.0
C2162 C 0.10807 0.39388 0.87846 0.0
C2163 C 0.09158 0.40582 0.87172 0.0
C2164 C 0.09986 0.41933 0.8628 0.0
C2165 C 0.12502 0.4214 0.86097 0.0
C2166 C 0.14157 0.40953 0.86778 0.0
H2167 H 0.14665 0.40193 0.9087 0.0
H2168 H 0.13612 0.41643 0.89644 0.0
H2169 H 0.11857 0.39247 0.90266 0.0
H2170 H 0.1011 0.38253 0.88492 0.0
H2171 H 0.0723 0.40375 0.8733 0.0
H2172 H 0.32625 0.37379 0.6012 0.0
H2173 H 0.34791 0.40205 0.61321 0.0
H2174 H 0.36205 0.34341 0.63554 0.0
H2175 H 0.34036 0.31521 0.6237 0.0
H2176 H 0.34947 0.38997 0.64554 0.0
H2177 H 0.42333 0.39565 0.61468 0.0
H2178 H 0.39305 0.40316 0.61029 0.0
H2179 H 0.40009 0.37248 0.61418 0.0
C2180 C 0.33366 0.36703 0.60875 0.0
C2181 C 0.33191 0.34224 0.61145 0.0
C2182 C 0.34602 0.38316 0.61558 0.0
C2183 C 0.35676 0.3747 0.62518 0.0
C2184 C 0.35386 0.35027 0.62816 0.0
H2185 H 0.4631 0.40292 0.67262 0.0
H2186 H 0.42495 0.39301 0.6635 0.0
C2187 C 0.34158 0.33416 0.62135 0.0
C2188 C 0.37312 0.39039 0.63163 0.0
H2189 H 0.43019 0.4146 0.6313 0.0
C2190 C 0.36699 0.39574 0.64241 0.0
C2191 C 0.39592 0.39782 0.6275 0.0
C2192 C 0.4037 0.39192 0.61606 0.0
C2193 C 0.38341 0.40787 0.64927 0.0
C2194 C 0.40668 0.41427 0.64527 0.0
C2195 C 0.41232 0.40979 0.63436 0.0
C2196 C 0.42647 0.42343 0.65235 0.0
C2197 C 0.37577 0.41343 0.66073 0.0
C2198 C 0.43987 0.44404 0.64927 0.0
C2199 C 0.46191 0.44946 0.65435 0.0
C2200 C 0.47086 0.43443 0.66265 0.0
C2201 C 0.45652 0.41496 0.66632 0.0
C2202 C 0.4346 0.40935 0.66114 0.0
H2203 H 0.35572 0.41571 0.66132 0.0
H2204 H 0.38097 0.398 0.66604 0.0
H2205 H 0.3847 0.43019 0.66381 0.0
H2206 H 0.43397 0.45514 0.64251 0.0
H2207 H 0.47254 0.46468 0.6514 0.0
H2208 H 0.0594 0.95668 0.36395 0.0
H2209 H 0.08668 0.92469 0.37048 0.0
H2210 H 0.14856 0.96532 0.35894 0.0
H2211 H 0.12165 0.99758 0.35262 0.0
H2212 H 0.14771 0.91372 0.35342 0.0
H2213 H 0.13309 0.93233 0.39725 0.0
H2214 H 0.10612 0.9285 0.38916 0.0
H2215 H 0.12564 0.95416 0.38683 0.0
C2216 C 0.07881 0.9589 0.36285 0.0
C2217 C 0.08826 0.97979 0.35777 0.0
C2218 C 0.09434 0.94059 0.36657 0.0
C2219 C 0.11958 0.94284 0.36528 0.0
C2220 C 0.12909 0.96331 0.36001 0.0
H2221 H 0.24011 0.86616 0.39432 0.0
H2222 H 0.21027 0.89619 0.38829 0.0
C2223 C 0.1136 0.98167 0.35632 0.0
C2224 C 0.1362 0.9239 0.36946 0.0
H2225 H 0.15779 0.89854 0.3928 0.0
C2226 C 0.14989 0.91031 0.36202 0.0
C2227 C 0.13912 0.91979 0.38068 0.0
C2228 C 0.12539 0.93454 0.38899 0.0
C2229 C 0.16638 0.8925 0.36553 0.0
C2230 C 0.16905 0.88815 0.37675 0.0
C2231 C 0.1555 0.90186 0.3842 0.0
C2232 C 0.18629 0.86976 0.3809 0.0
C2233 C 0.18118 0.87877 0.35724 0.0
C2234 C 0.18233 0.84496 0.37894 0.0
C2235 C 0.19922 0.8277 0.38246 0.0
C2236 C 0.22042 0.83495 0.388 0.0
C2237 C 0.22394 0.85984 0.39019 0.0
C2238 C 0.20697 0.87707 0.3867 0.0
H2239 H 0.18044 0.88752 0.34914 0.0
H2240 H 0.20049 0.87746 0.35983 0.0
H2241 H 0.17393 0.86 0.35647 0.0
H2242 H 0.16623 0.83897 0.37463 0.0
H2243 H 0.19566 0.80869 0.38082 0.0
H2244 H 0.37799 0.98776 0.64639 0.0
H2245 H 0.35162 0.95488 0.64043 0.0
H2246 H 0.4122 0.92065 0.62429 0.0
H2247 H 0.43916 0.9528 0.63074 0.0
H2248 H 0.34004 0.9422 0.62017 0.0
H2249 H 0.384 0.86399 0.6407 0.0
H2250 H 0.3913 0.89515 0.64397 0.0
H2251 H 0.40447 0.88087 0.63223 0.0
C2252 C 0.386 0.97305 0.6418 0.0
C2253 C 0.41091 0.97304 0.63911 0.0
C2254 C 0.37074 0.95431 0.6383 0.0
C2255 C 0.37995 0.93514 0.63201 0.0
C2256 C 0.40475 0.93498 0.62931 0.0
H2257 H 0.28563 0.84021 0.59345 0.0
H2258 H 0.31586 0.8704 0.59921 0.0
C2259 C 0.42011 0.95361 0.6329 0.0
C2260 C 0.36331 0.91594 0.62793 0.0
H2261 H 0.35348 0.85458 0.62771 0.0
C2262 C 0.34295 0.92304 0.62184 0.0
C2263 C 0.367 0.89097 0.63021 0.0
C2264 C 0.38774 0.88226 0.63722 0.0
C2265 C 0.32615 0.90589 0.61795 0.0
C2266 C 0.33021 0.88086 0.61996 0.0
C2267 C 0.35056 0.87375 0.62607 0.0
C2268 C 0.3129 0.86186 0.61628 0.0
C2269 C 0.30386 0.91486 0.61203 0.0
C2270 C 0.3019 0.84643 0.62389 0.0
C2271 C 0.28494 0.82902 0.6206 0.0
C2272 C 0.27858 0.82671 0.60962 0.0
C2273 C 0.28997 0.84183 0.60197 0.0
C2274 C 0.30715 0.85912 0.60526 0.0
H2275 H 0.30022 0.93438 0.61372 0.0
H2276 H 0.30674 0.91286 0.60318 0.0
H2277 H 0.2875 0.90415 0.61431 0.0
H2278 H 0.30607 0.84821 0.63244 0.0
H2279 H 0.27629 0.81787 0.62671 0.0
H2280 H 0.28023 0.15352 0.9052 0.0
H2281 H 0.31167 0.12492 0.89915 0.0
H2282 H 0.30217 0.1496 0.86626 0.0
H2283 H 0.27118 0.1784 0.87228 0.0
H2284 H 0.3078 0.08747 0.8855 0.0
H2285 H 0.37495 0.15285 0.86906 0.0
H2286 H 0.34964 0.16228 0.87737 0.0
H2287 H 0.3454 0.1566 0.86313 0.0
C2288 C 0.28502 0.15291 0.8967 0.0
C2289 C 0.27342 0.16834 0.88924 0.0
C2290 C 0.30298 0.13663 0.89325 0.0
C2291 C 0.3096 0.13542 0.88228 0.0
C2292 C 0.29792 0.15071 0.87481 0.0
H2293 H 0.37924 0.01123 0.85177 0.0
H2294 H 0.35098 0.04261 0.85775 0.0
C2295 C 0.28015 0.16715 0.87826 0.0
C2296 C 0.32783 0.11733 0.87855 0.0
H2297 H 0.38056 0.11113 0.86418 0.0
C2298 C 0.3238 0.09266 0.8809 0.0
C2299 C 0.34888 0.12414 0.87268 0.0
C2300 C 0.35514 0.15043 0.87051 0.0
C2301 C 0.33998 0.07457 0.87737 0.0
C2302 C 0.36041 0.08127 0.87105 0.0
C2303 C 0.3647 0.10598 0.86888 0.0
C2304 C 0.37785 0.06296 0.86682 0.0
C2305 C 0.33525 0.04852 0.88063 0.0
C2306 C 0.40261 0.06459 0.86948 0.0
C2307 C 0.419 0.04694 0.86586 0.0
C2308 C 0.41098 0.02718 0.85953 0.0
C2309 C 0.38624 0.02608 0.85659 0.0
C2310 C 0.3699 0.04388 0.86014 0.0
H2311 H 0.32341 0.04744 0.88791 0.0
H2312 H 0.3258 0.03897 0.87392 0.0
H2313 H 0.35251 0.03876 0.88236 0.0
H2314 H 0.40921 0.07932 0.87452 0.0
H2315 H 0.43794 0.04878 0.8681 0.0
H2316 H 0.21994 0.13914 0.09361 0.0
H2317 H 0.18782 0.11054 0.09877 0.0
H2318 H 0.17339 0.15272 0.1275 0.0
H2319 H 0.20554 0.18111 0.12254 0.0
H2320 H 0.18613 0.08307 0.11798 0.0
H2321 H 0.10537 0.14306 0.11422 0.0
H2322 H 0.13435 0.15026 0.10809 0.0
H2323 H 0.12947 0.15572 0.12228 0.0
C2324 C 0.20994 0.14236 0.10102 0.0
C2325 C 0.21537 0.16251 0.10764 0.0
C2326 C 0.19151 0.12607 0.10392 0.0
C2327 C 0.17802 0.12973 0.11343 0.0
C2328 C 0.1832 0.14988 0.12 0.0
H2329 H 0.09869 0.02675 0.15243 0.0
H2330 H 0.12679 0.057 0.14505 0.0
C2331 C 0.20163 0.16613 0.11713 0.0
C2332 C 0.15953 0.11173 0.11687 0.0
H2333 H 0.09958 0.10556 0.12364 0.0
C2334 C 0.16717 0.08791 0.11913 0.0
C2335 C 0.13478 0.11808 0.11828 0.0
C2336 C 0.12539 0.14311 0.1155 0.0
C2337 C 0.15083 0.07042 0.12308 0.0
C2338 C 0.12631 0.07706 0.12492 0.0
C2339 C 0.11848 0.10065 0.12234 0.0
C2340 C 0.10859 0.05968 0.12956 0.0
C2341 C 0.1599 0.04495 0.12522 0.0
C2342 C 0.08865 0.05179 0.12342 0.0
C2343 C 0.07259 0.03443 0.1276 0.0
C2344 C 0.07615 0.02477 0.13804 0.0
C2345 C 0.09571 0.03343 0.1443 0.0
C2346 C 0.11176 0.05073 0.1401 0.0
H2347 H 0.17737 0.04128 0.12099 0.0
H2348 H 0.16297 0.04265 0.13405 0.0
H2349 H 0.14629 0.03121 0.12261 0.0
H2350 H 0.08588 0.05859 0.11527 0.0
H2351 H 0.05791 0.02808 0.1225 0.0
H2352 H 0.89901 0.02571 0.65237 0.0
H2353 H 0.86994 0.05577 0.64563 0.0
H2354 H 0.91271 0.0646 0.61663 0.0
H2355 H 0.94163 0.03428 0.62317 0.0
H2356 H 0.89645 0.1093 0.62662 0.0
H2357 H 0.82187 0.04249 0.62018 0.0
H2358 H 0.83538 0.04205 0.63344 0.0
H2359 H 0.85325 0.03347 0.62187 0.0
C2360 C 0.9022 0.03389 0.64453 0.0
C2361 C 0.92262 0.02736 0.63829 0.0
C2362 C 0.88558 0.05111 0.6407 0.0
C2363 C 0.88905 0.06211 0.63058 0.0
C2364 C 0.90972 0.05624 0.62446 0.0
H2365 H 0.77984 0.14224 0.59401 0.0
H2366 H 0.81225 0.11432 0.59951 0.0
C2367 C 0.92631 0.03897 0.62826 0.0
C2368 C 0.87096 0.07955 0.62629 0.0
H2369 H 0.81185 0.08418 0.61807 0.0
C2370 C 0.87797 0.10384 0.62471 0.0
C2371 C 0.847 0.07223 0.62367 0.0
C2372 C 0.83888 0.04611 0.62477 0.0
C2373 C 0.8614 0.1212 0.62081 0.0
C2374 C 0.83721 0.11404 0.61854 0.0
C2375 C 0.83038 0.08962 0.61988 0.0
C2376 C 0.81848 0.13167 0.61499 0.0
C2377 C 0.86993 0.14701 0.61908 0.0
C2378 C 0.81122 0.15057 0.6219 0.0
C2379 C 0.79261 0.16643 0.61882 0.0
C2380 C 0.78079 0.16363 0.60878 0.0
C2381 C 0.78832 0.14477 0.60184 0.0
C2382 C 0.80692 0.12888 0.60494 0.0
H2383 H 0.89008 0.14812 0.61851 0.0
H2384 H 0.8619 0.15481 0.6116 0.0
H2385 H 0.86403 0.15837 0.62603 0.0
H2386 H 0.81956 0.15271 0.62979 0.0
H2387 H 0.78705 0.1804 0.62447 0.0
H2388 H 0.72039 0.14252 0.4042 0.0
H2389 H 0.68951 0.11441 0.39728 0.0
H2390 H 0.68462 0.15611 0.3678 0.0
H2391 H 0.71565 0.18402 0.37453 0.0
H2392 H 0.6387 0.14234 0.37703 0.0
H2393 H 0.70259 0.0645 0.37265 0.0
H2394 H 0.70214 0.07859 0.38579 0.0
H2395 H 0.71289 0.09549 0.37429 0.0
C2396 C 0.71284 0.14566 0.39623 0.0
C2397 C 0.72068 0.16548 0.38991 0.0
C2398 C 0.69518 0.1296 0.3923 0.0
C2399 C 0.68507 0.13305 0.38198 0.0
C2400 C 0.69227 0.15315 0.37578 0.0
H2401 H 0.60505 0.02781 0.34341 0.0
H2402 H 0.63352 0.05878 0.34989 0.0
C2403 C 0.70994 0.16918 0.37969 0.0
C2404 C 0.66723 0.11551 0.37755 0.0
H2405 H 0.66087 0.05647 0.36943 0.0
C2406 C 0.6435 0.12356 0.37536 0.0
C2407 C 0.67372 0.09116 0.37524 0.0
C2408 C 0.69926 0.08187 0.37701 0.0
C2409 C 0.62592 0.10772 0.37107 0.0
C2410 C 0.63224 0.0832 0.36903 0.0
C2411 C 0.65608 0.07527 0.37106 0.0
C2412 C 0.61435 0.06534 0.3649 0.0
C2413 C 0.6008 0.11737 0.36864 0.0
C2414 C 0.59421 0.05876 0.37122 0.0
C2415 C 0.57801 0.04094 0.36759 0.0
C2416 C 0.58169 0.02927 0.35757 0.0
C2417 C 0.60179 0.03617 0.35121 0.0
C2418 C 0.61802 0.05395 0.35487 0.0
H2419 H 0.6006 0.13757 0.36817 0.0
H2420 H 0.59383 0.10985 0.36089 0.0
H2421 H 0.58818 0.11176 0.3752 0.0
H2422 H 0.59133 0.067 0.37909 0.0
H2423 H 0.56305 0.03586 0.37281 0.0
H2424 H 0.60165 0.96844 0.15172 0.0
H2425 H 0.62957 0.93778 0.14446 0.0
H2426 H 0.58849 0.93567 0.11473 0.0
H2427 H 0.56068 0.96635 0.12185 0.0
H2428 H 0.60114 0.88949 0.12259 0.0
H2429 H 0.68091 0.95145 0.12098 0.0
H2430 H 0.6666 0.94958 0.13403 0.0
H2431 H 0.65019 0.96236 0.1228 0.0
C2432 C 0.59861 0.96151 0.14362 0.0
C2433 C 0.57899 0.96999 0.13736 0.0
C2434 C 0.61458 0.94402 0.13949 0.0
C2435 C 0.6113 0.93478 0.12899 0.0
C2436 C 0.59136 0.94264 0.12284 0.0
H2437 H 0.72044 0.85592 0.09171 0.0
H2438 H 0.68944 0.88492 0.09775 0.0
C2439 C 0.57538 0.96011 0.12696 0.0
C2440 C 0.62873 0.91703 0.12438 0.0
H2441 H 0.68838 0.90967 0.11739 0.0
C2442 C 0.62021 0.89389 0.12142 0.0
C2443 C 0.65348 0.923 0.12269 0.0
C2444 C 0.66337 0.94801 0.12519 0.0
C2445 C 0.63594 0.87632 0.11704 0.0
C2446 C 0.66088 0.882 0.11573 0.0
C2447 C 0.66928 0.90532 0.11847 0.0
C2448 C 0.67872 0.86386 0.11176 0.0
C2449 C 0.62568 0.85194 0.11375 0.0
C2450 C 0.683 0.84249 0.11766 0.0
C2451 C 0.70072 0.82596 0.11425 0.0
C2452 C 0.71468 0.83055 0.10491 0.0
C2453 C 0.71019 0.85193 0.09898 0.0
C2454 C 0.69243 0.86846 0.10239 0.0
H2455 H 0.60569 0.85285 0.11242 0.0
H2456 H 0.63445 0.84518 0.10622 0.0
H2457 H 0.62916 0.83855 0.12029 0.0
H2458 H 0.67304 0.83886 0.12505 0.0
H2459 H 0.70397 0.80998 0.11916 0.0
H2460 H 0.77508 0.85373 0.90065 0.0
H2461 H 0.8042 0.88354 0.89373 0.0
H2462 H 0.80974 0.84343 0.86383 0.0
H2463 H 0.78033 0.81379 0.87055 0.0
H2464 H 0.85546 0.85827 0.87323 0.0
H2465 H 0.7891 0.93413 0.86949 0.0
H2466 H 0.78973 0.91935 0.88247 0.0
H2467 H 0.77984 0.90272 0.87074 0.0
C2468 C 0.7823 0.85131 0.89257 0.0
C2469 C 0.77518 0.83137 0.88615 0.0
C2470 C 0.79897 0.86836 0.88864 0.0
C2471 C 0.80883 0.8658 0.87823 0.0
C2472 C 0.80226 0.8457 0.87188 0.0
H2473 H 0.88796 0.97704 0.84232 0.0
H2474 H 0.85972 0.94476 0.84766 0.0
C2475 C 0.78553 0.82869 0.87578 0.0
C2476 C 0.82605 0.8841 0.87395 0.0
H2477 H 0.83072 0.94392 0.86681 0.0
C2478 C 0.85008 0.87698 0.87179 0.0
C2479 C 0.8188 0.90837 0.87193 0.0
C2480 C 0.79292 0.91666 0.87368 0.0
C2481 C 0.86729 0.89372 0.86791 0.0
C2482 C 0.86025 0.91819 0.86625 0.0
C2483 C 0.83606 0.92515 0.86815 0.0
C2484 C 0.87786 0.93703 0.86282 0.0
C2485 C 0.89282 0.8851 0.86557 0.0
C2486 C 0.89726 0.94342 0.86961 0.0
C2487 C 0.91329 0.96196 0.86664 0.0
C2488 C 0.91019 0.97456 0.85681 0.0
C2489 C 0.89075 0.96795 0.84999 0.0
C2490 C 0.87467 0.94942 0.85299 0.0
H2491 H 0.89365 0.865 0.86462 0.0
H2492 H 0.90004 0.89372 0.8581 0.0
H2493 H 0.90486 0.89026 0.87241 0.0
H2494 H 0.89971 0.93441 0.87734 0.0
H2495 H 0.92769 0.9668 0.8722 0.0
H2496 H 0.73348 0.36882 0.8991 0.0
H2497 H 0.70085 0.39601 0.89362 0.0
H2498 H 0.66635 0.33738 0.8762 0.0
H2499 H 0.69831 0.30957 0.88212 0.0
H2500 H 0.68909 0.40932 0.87341 0.0
H2501 H 0.6095 0.36518 0.89281 0.0
H2502 H 0.64044 0.35721 0.89618 0.0
H2503 H 0.62642 0.34509 0.88417 0.0
C2504 C 0.71875 0.36139 0.89433 0.0
C2505 C 0.71864 0.33681 0.8911 0.0
C2506 C 0.70015 0.37712 0.89112 0.0
C2507 C 0.681 0.3687 0.8846 0.0
C2508 C 0.68067 0.34419 0.88141 0.0
H2509 H 0.58955 0.46608 0.8463 0.0
H2510 H 0.61852 0.43487 0.85218 0.0
C2511 C 0.69918 0.32837 0.88469 0.0
C2512 C 0.66219 0.38597 0.88069 0.0
H2513 H 0.60101 0.39683 0.88021 0.0
C2514 C 0.66983 0.40662 0.87492 0.0
C2515 C 0.63709 0.38254 0.88276 0.0
C2516 C 0.62784 0.36144 0.88941 0.0
C2517 C 0.65309 0.42391 0.87114 0.0
C2518 C 0.62794 0.42012 0.87292 0.0
C2519 C 0.62028 0.39954 0.87874 0.0
C2520 C 0.60938 0.43782 0.86919 0.0
C2521 C 0.66261 0.4464 0.86554 0.0
C2522 C 0.59396 0.44912 0.87673 0.0
C2523 C 0.57725 0.46672 0.87337 0.0
C2524 C 0.57567 0.4734 0.86239 0.0
C2525 C 0.59066 0.46157 0.85482 0.0
C2526 C 0.60724 0.4438 0.85818 0.0
H2527 H 0.68212 0.44966 0.86741 0.0
H2528 H 0.66092 0.44404 0.85665 0.0
H2529 H 0.65206 0.46277 0.86793 0.0
H2530 H 0.59527 0.44474 0.88526 0.0
H2531 H 0.56614 0.47564 0.87942 0.0
H2532 H 0.79971 0.30123 0.1166 0.0
H2533 H 0.8309 0.32931 0.12317 0.0
H2534 H 0.78844 0.39015 0.11189 0.0
H2535 H 0.75684 0.36239 0.10555 0.0
H2536 H 0.84146 0.38989 0.10648 0.0
H2537 H 0.82017 0.37593 0.15013 0.0
H2538 H 0.82426 0.34907 0.14198 0.0
H2539 H 0.79877 0.36868 0.1395 0.0
C2540 C 0.79686 0.32056 0.11557 0.0
C2541 C 0.77558 0.32946 0.1106 0.0
C2542 C 0.81477 0.33656 0.1193 0.0
C2543 C 0.81179 0.36174 0.1181 0.0
C2544 C 0.791 0.37073 0.11288 0.0
H2545 H 0.88147 0.48628 0.14658 0.0
H2546 H 0.85356 0.45476 0.14037 0.0
C2547 C 0.77301 0.35477 0.1092 0.0
C2548 C 0.83018 0.37881 0.12242 0.0
H2549 H 0.85311 0.40187 0.14599 0.0
C2550 C 0.84413 0.39246 0.11511 0.0
C2551 C 0.83337 0.38218 0.13368 0.0
C2552 C 0.81829 0.36836 0.14183 0.0
C2553 C 0.86134 0.40944 0.11879 0.0
C2554 C 0.86462 0.41272 0.13005 0.0
C2555 C 0.85062 0.39912 0.13736 0.0
C2556 C 0.88184 0.43098 0.13437 0.0
C2557 C 0.87553 0.42417 0.11063 0.0
C2558 C 0.90701 0.42772 0.13326 0.0
C2559 C 0.92312 0.4456 0.13693 0.0
C2560 C 0.91434 0.46713 0.14174 0.0
C2561 C 0.88903 0.46994 0.14306 0.0
C2562 C 0.87297 0.45198 0.13945 0.0
H2563 H 0.86811 0.42223 0.10231 0.0
H2564 H 0.87543 0.44373 0.11289 0.0
H2565 H 0.89474 0.41794 0.11058 0.0
H2566 H 0.91416 0.41142 0.12948 0.0
H2567 H 0.94245 0.44258 0.13594 0.0
H2568 H 0.94053 0.56034 0.36495 0.0
H2569 H 0.91222 0.59133 0.37154 0.0
H2570 H 0.85157 0.54638 0.36204 0.0
H2571 H 0.8796 0.51509 0.35564 0.0
H2572 H 0.84851 0.59773 0.35606 0.0
H2573 H 0.86998 0.58226 0.39956 0.0
H2574 H 0.89553 0.58732 0.39074 0.0
H2575 H 0.87739 0.5604 0.38914 0.0
C2576 C 0.92119 0.55696 0.36429 0.0
C2577 C 0.91241 0.53508 0.35983 0.0
C2578 C 0.90506 0.57472 0.36805 0.0
C2579 C 0.87988 0.57094 0.36739 0.0
C2580 C 0.87099 0.54956 0.36263 0.0
H2581 H 0.75783 0.63945 0.39868 0.0
H2582 H 0.7896 0.61193 0.39229 0.0
C2583 C 0.88709 0.53175 0.35891 0.0
C2584 C 0.86271 0.58907 0.37183 0.0
H2585 H 0.84247 0.61401 0.39551 0.0
C2586 C 0.84722 0.6014 0.36467 0.0
C2587 C 0.86098 0.59353 0.38309 0.0
C2588 C 0.87669 0.5801 0.39113 0.0
C2589 C 0.83004 0.61824 0.36848 0.0
C2590 C 0.8285 0.6229 0.37972 0.0
C2591 C 0.84391 0.61049 0.38689 0.0
C2592 C 0.81034 0.63999 0.3842 0.0
C2593 C 0.81329 0.63054 0.36049 0.0
C2594 C 0.8119 0.66495 0.38199 0.0
C2595 C 0.79389 0.68082 0.38573 0.0
C2596 C 0.77398 0.67199 0.39172 0.0
C2597 C 0.77297 0.64701 0.39421 0.0
C2598 C 0.79104 0.63118 0.3905 0.0
H2599 H 0.81372 0.6216 0.35242 0.0
H2600 H 0.79426 0.63047 0.36353 0.0
H2601 H 0.81897 0.64978 0.35947 0.0
H2602 H 0.82691 0.67211 0.37728 0.0
H2603 H 0.79546 0.69998 0.38384 0.0
H2604 H 0.56595 0.53142 0.62521 0.0
H2605 H 0.59598 0.56125 0.61924 0.0
H2606 H 0.63219 0.55641 0.65014 0.0
H2607 H 0.60203 0.52662 0.65625 0.0
H2608 H 0.60869 0.60679 0.62835 0.0
H2609 H 0.68653 0.54217 0.62793 0.0
H2610 H 0.65527 0.53217 0.62862 0.0
H2611 H 0.67016 0.54375 0.64051 0.0
C2612 C 0.58008 0.53688 0.63081 0.0
C2613 C 0.58162 0.52654 0.64121 0.0
C2614 C 0.59732 0.55384 0.62735 0.0
C2615 C 0.61647 0.56073 0.63419 0.0
C2616 C 0.6178 0.55092 0.64466 0.0
H2617 H 0.71836 0.67965 0.62795 0.0
H2618 H 0.68651 0.65154 0.63364 0.0
C2619 C 0.60057 0.53392 0.64813 0.0
C2620 C 0.63506 0.57814 0.63031 0.0
H2621 H 0.69559 0.58367 0.62456 0.0
C2622 C 0.62769 0.60177 0.62751 0.0
C2623 C 0.65975 0.57137 0.62912 0.0
C2624 C 0.66846 0.54593 0.6316 0.0
C2625 C 0.6445 0.61898 0.6237 0.0
C2626 C 0.66923 0.61234 0.62273 0.0
C2627 C 0.67657 0.58864 0.62538 0.0
C2628 C 0.68785 0.62985 0.61905 0.0
C2629 C 0.63576 0.64406 0.62063 0.0
C2630 C 0.69916 0.62685 0.60896 0.0
C2631 C 0.71724 0.64306 0.6056 0.0
C2632 C 0.72453 0.66243 0.61233 0.0
C2633 C 0.71302 0.66529 0.62245 0.0
C2634 C 0.69485 0.64917 0.62576 0.0
H2635 H 0.6156 0.645 0.62008 0.0
H2636 H 0.64191 0.65734 0.62683 0.0
H2637 H 0.64365 0.64964 0.61273 0.0
H2638 H 0.69393 0.61198 0.60368 0.0
H2639 H 0.72539 0.64043 0.59772 0.0
H2640 H 0.2989 0.68968 0.1183 0.0
H2641 H 0.32763 0.65857 0.12396 0.0
H2642 H 0.28615 0.60413 0.10687 0.0
H2643 H 0.2564 0.63486 0.10168 0.0
H2644 H 0.29815 0.58852 0.12651 0.0
H2645 H 0.38036 0.62633 0.10687 0.0
H2646 H 0.36635 0.64793 0.11579 0.0
H2647 H 0.35021 0.63752 0.10396 0.0
C2648 C 0.29568 0.67113 0.11576 0.0
C2649 C 0.2751 0.66495 0.10954 0.0
C2650 C 0.31242 0.65336 0.11889 0.0
C2651 C 0.30931 0.62907 0.11569 0.0
C2652 C 0.28901 0.62281 0.10938 0.0
H2653 H 0.42206 0.51957 0.12274 0.0
H2654 H 0.39246 0.54904 0.116 0.0
C2655 C 0.27208 0.64053 0.10633 0.0
C2656 C 0.32666 0.61006 0.11933 0.0
H2657 H 0.38702 0.5956 0.12025 0.0
C2658 C 0.31757 0.58995 0.12506 0.0
C2659 C 0.35196 0.61176 0.11732 0.0
C2660 C 0.36276 0.63192 0.11055 0.0
C2661 C 0.33312 0.57172 0.12901 0.0
C2662 C 0.35854 0.57407 0.12747 0.0
C2663 C 0.36757 0.59396 0.12157 0.0
C2664 C 0.37613 0.55586 0.13167 0.0
C2665 C 0.32205 0.54994 0.13459 0.0
C2666 C 0.37696 0.54999 0.14274 0.0
C2667 C 0.39375 0.53292 0.14659 0.0
C2668 C 0.41035 0.52186 0.13948 0.0
C2669 C 0.4097 0.52804 0.12844 0.0
C2670 C 0.39273 0.54481 0.12457 0.0
H2671 H 0.30273 0.54729 0.1322 0.0
H2672 H 0.33227 0.53304 0.13269 0.0
H2673 H 0.32252 0.55283 0.14348 0.0
H2674 H 0.36481 0.55878 0.14843 0.0
H2675 H 0.39408 0.52866 0.15515 0.0
H2676 H 0.10347 0.53201 0.84543 0.0
H2677 H 0.13268 0.56321 0.85126 0.0
H2678 H 0.10119 0.56278 0.88322 0.0
H2679 H 0.07217 0.53156 0.87754 0.0
H2680 H 0.11716 0.61305 0.86438 0.0
H2681 H 0.18051 0.54697 0.88384 0.0
H2682 H 0.16153 0.53853 0.87249 0.0
H2683 H 0.14815 0.54301 0.88557 0.0
C2684 C 0.1028 0.53857 0.8537 0.0
C2685 C 0.0855 0.52934 0.86102 0.0
C2686 C 0.11937 0.55643 0.85698 0.0
C2687 C 0.11899 0.56513 0.86765 0.0
C2688 C 0.10164 0.55622 0.87495 0.0
H2689 H 0.21771 0.65492 0.90512 0.0
H2690 H 0.18578 0.62688 0.89908 0.0
C2691 C 0.085 0.53851 0.87166 0.0
C2692 C 0.13708 0.58317 0.8713 0.0
H2693 H 0.19022 0.58854 0.88534 0.0
C2694 C 0.1332 0.6078 0.86894 0.0
C2695 C 0.15772 0.57609 0.87731 0.0
C2696 C 0.16247 0.54972 0.87997 0.0
C2697 C 0.1495 0.62573 0.87255 0.0
C2698 C 0.17044 0.61864 0.87845 0.0
C2699 C 0.17418 0.59393 0.88082 0.0
C2700 C 0.1889 0.63646 0.88214 0.0
C2701 C 0.14385 0.65209 0.87023 0.0
C2702 C 0.20129 0.65103 0.87461 0.0
C2703 C 0.21941 0.6671 0.87805 0.0
C2704 C 0.22572 0.66865 0.88907 0.0
C2705 C 0.21331 0.654 0.89658 0.0
C2706 C 0.19506 0.63806 0.89315 0.0
H2707 H 0.12417 0.65488 0.86858 0.0
H2708 H 0.14927 0.66393 0.87711 0.0
H2709 H 0.1541 0.65795 0.86294 0.0
H2710 H 0.19733 0.64961 0.86604 0.0
H2711 H 0.22897 0.67774 0.87203 0.0
H2712 H 0.2418 0.36184 0.60379 0.0
H2713 H 0.21151 0.3904 0.61052 0.0
H2714 H 0.17286 0.33157 0.62594 0.0
H2715 H 0.2024 0.30258 0.61877 0.0
H2716 H 0.14216 0.3621 0.61596 0.0
H2717 H 0.20641 0.41517 0.64118 0.0
H2718 H 0.2156 0.41384 0.62726 0.0
H2719 H 0.21449 0.38635 0.63517 0.0
C2720 C 0.22676 0.35479 0.60848 0.0
C2721 C 0.22475 0.32977 0.61078 0.0
C2722 C 0.20961 0.37128 0.61247 0.0
C2723 C 0.19027 0.36321 0.61896 0.0
C2724 C 0.18782 0.33824 0.62105 0.0
H2725 H 0.09953 0.46393 0.65628 0.0
H2726 H 0.12757 0.43121 0.65105 0.0
C2727 C 0.20485 0.3217 0.617 0.0
C2728 C 0.17233 0.38075 0.6234 0.0
H2729 H 0.16725 0.43294 0.63824 0.0
C2730 C 0.14762 0.37749 0.6209 0.0
C2731 C 0.17939 0.40054 0.63004 0.0
C2732 C 0.20538 0.40407 0.63367 0.0
C2733 C 0.12988 0.39392 0.62457 0.0
C2734 C 0.13715 0.4145 0.63066 0.0
C2735 C 0.16174 0.41732 0.63346 0.0
C2736 C 0.11966 0.43372 0.63391 0.0
C2737 C 0.10353 0.38892 0.62194 0.0
C2738 C 0.10618 0.44616 0.62602 0.0
C2739 C 0.09014 0.46468 0.62899 0.0
C2740 C 0.08749 0.47141 0.63992 0.0
C2741 C 0.10125 0.45916 0.64781 0.0
C2742 C 0.11719 0.44046 0.64483 0.0
H2743 H 0.10032 0.36923 0.62045 0.0
H2744 H 0.09135 0.395 0.62859 0.0
H2745 H 0.09849 0.3989 0.61446 0.0
H2746 H 0.10835 0.44183 0.61752 0.0
H2747 H 0.08027 0.47413 0.62268 0.0
H2748 H 0.42427 0.47676 0.37955 0.0
H2749 H 0.39513 0.44516 0.38465 0.0
H2750 H 0.37635 0.43478 0.35107 0.0
H2751 H 0.40576 0.46629 0.34586 0.0
H2752 H 0.34282 0.4465 0.37899 0.0
H2753 H 0.39148 0.36479 0.36346 0.0
H2754 H 0.40696 0.39303 0.36645 0.0
H2755 H 0.38889 0.39032 0.35441 0.0
C2756 C 0.41427 0.4675 0.37322 0.0
C2757 C 0.41741 0.47395 0.36228 0.0
C2758 C 0.39751 0.44956 0.37616 0.0
C2759 C 0.38379 0.43755 0.36823 0.0
C2760 C 0.387 0.4437 0.35729 0.0
H2761 H 0.27305 0.32525 0.37051 0.0
H2762 H 0.30415 0.35467 0.36515 0.0
C2763 C 0.40365 0.46179 0.35434 0.0
C2764 C 0.36537 0.41932 0.37146 0.0
H2765 H 0.35198 0.35871 0.37051 0.0
C2766 C 0.3448 0.42728 0.37718 0.0
C2767 C 0.36802 0.39436 0.369 0.0
C2768 C 0.39007 0.38494 0.36305 0.0
C2769 C 0.32655 0.41093 0.38039 0.0
C2770 C 0.32934 0.38584 0.37807 0.0
C2771 C 0.34992 0.37792 0.37231 0.0
C2772 C 0.31095 0.36757 0.38144 0.0
C2773 C 0.30419 0.4208 0.38597 0.0
C2774 C 0.30476 0.3647 0.3924 0.0
C2775 C 0.2869 0.34795 0.39548 0.0
C2776 C 0.27517 0.33348 0.38767 0.0
C2777 C 0.2819 0.33593 0.37673 0.0
C2778 C 0.29961 0.35282 0.37365 0.0
H2779 H 0.30169 0.44054 0.38435 0.0
H2780 H 0.28755 0.41099 0.38333 0.0
H2781 H 0.30618 0.41844 0.39485 0.0
H2782 H 0.31375 0.37541 0.39858 0.0
H2783 H 0.28237 0.34617 0.40397 0.0
H2784 H 0.04489 0.06645 0.28661 0.0
H2785 H 0.04399 0.05349 0.26767 0.0
H2786 H 0.07067 0.98272 0.27686 0.0
H2787 H 0.07086 0.99513 0.29591 0.0
H2788 H 0.09576 0.01186 0.25804 0.0
H2789 H 0.99557 0.99759 0.25503 0.0
H2790 H 0.00635 0.02466 0.26175 0.0
H2791 H 0.01169 0.99546 0.26776 0.0
C2792 C 0.05022 0.048 0.28466 0.0
C2793 C 0.05781 0.03179 0.29283 0.0
C2794 C 0.04985 0.04071 0.27382 0.0
C2795 C 0.05717 0.01717 0.27093 0.0
C2796 C 0.06498 0.00099 0.27898 0.0
H2797 H 0.04698 0.9375 0.21069 0.0
H2798 H 0.04771 0.95043 0.22963 0.0
C2799 C 0.06519 0.00818 0.28984 0.0
C2800 C 0.0568 0.0095 0.25947 0.0
H2801 H 0.01851 0.99273 0.23901 0.0
C2802 C 0.07892 0.00768 0.25386 0.0
C2803 C 0.03476 0.00398 0.25411 0.0
C2804 C 0.01066 0.00535 0.25993 0.0
C2805 C 0.07952 0.00066 0.24292 0.0
C2806 C 0.05745 0.99537 0.23754 0.0
C2807 C 0.03536 0.99694 0.24319 0.0
C2808 C 0.05698 0.9878 0.22605 0.0
C2809 C 0.10369 0.99867 0.2372 0.0
C2810 C 0.06177 0.00465 0.2178 0.0
C2811 C 0.06101 0.99744 0.20695 0.0
C2812 C 0.05553 0.9732 0.20415 0.0
C2813 C 0.05082 0.9564 0.2125 0.0
C2814 C 0.0514 0.96368 0.22334 0.0
H2815 H 0.11926 -3e-05 0.24291 0.0
H2816 H 0.10489 0.98115 0.23274 0.0
H2817 H 0.1053 0.01359 0.23118 0.0
H2818 H 0.06586 0.02342 0.21977 0.0
H2819 H 0.06438 0.01095 0.20074 0.0
H2820 H 0.18688 0.78591 0.53898 0.0
H2821 H 0.19313 0.78857 0.51951 0.0
H2822 H 0.26219 0.82397 0.52476 0.0
H2823 H 0.25672 0.82013 0.54437 0.0
H2824 H 0.19852 0.82677 0.50627 0.0
H2825 H 0.28137 0.76907 0.50479 0.0
H2826 H 0.26267 0.77149 0.51675 0.0
H2827 H 0.28419 0.79507 0.5135 0.0
C2828 C 0.20365 0.79386 0.53604 0.0
C2829 C 0.22155 0.80234 0.54328 0.0
C2830 C 0.20704 0.79563 0.52487 0.0
C2831 C 0.22831 0.80606 0.52066 0.0
C2832 C 0.24589 0.81532 0.52783 0.0
H2833 H 0.24582 0.84557 0.45257 0.0
H2834 H 0.23788 0.84637 0.47201 0.0
C2835 C 0.24261 0.81336 0.53904 0.0
C2836 C 0.2319 0.807 0.50875 0.0
H2837 H 0.26947 0.78801 0.48843 0.0
C2838 C 0.21403 0.8183 0.50236 0.0
C2839 C 0.25196 0.79562 0.50366 0.0
C2840 C 0.27103 0.78192 0.51 0.0
C2841 C 0.21564 0.8185 0.491 0.0
C2842 C 0.23601 0.80764 0.48593 0.0
C2843 C 0.25391 0.79642 0.49233 0.0
C2844 C 0.23909 0.80724 0.47398 0.0
C2845 C 0.19516 0.82971 0.48457 0.0
C2846 C 0.24262 0.78502 0.46861 0.0
C2847 C 0.24773 0.78451 0.45753 0.0
C2848 C 0.24938 0.80626 0.45156 0.0
C2849 C 0.24498 0.82847 0.45691 0.0
C2850 C 0.24011 0.82896 0.46802 0.0
H2851 H 0.17807 0.83062 0.48937 0.0
H2852 H 0.20021 0.84858 0.48229 0.0
H2853 H 0.19156 0.81927 0.47704 0.0
H2854 H 0.24199 0.76802 0.47305 0.0
H2855 H 0.25142 0.76709 0.45378 0.0
H2856 H 0.47854 0.01927 0.70568 0.0
H2857 H 0.47855 0.01209 0.72525 0.0
H2858 H 0.40171 0.0279 0.72645 0.0
H2859 H 0.40153 0.0349 0.70689 0.0
H2860 H 0.46694 0.04408 0.74147 0.0
H2861 H 0.40535 0.96411 0.74283 0.0
H2862 H 0.41873 0.97499 0.73039 0.0
H2863 H 0.39249 0.98992 0.73602 0.0
C2864 C 0.46162 0.02107 0.71011 0.0
C2865 C 0.44 0.02749 0.70473 0.0
C2866 C 0.46165 0.01695 0.72128 0.0
C2867 C 0.44007 0.01914 0.72728 0.0
C2868 C 0.41845 0.02551 0.72194 0.0
H2869 H 0.40566 0.00753 0.7958 0.0
H2870 H 0.40545 0.01731 0.77647 0.0
C2871 C 0.41837 0.0295 0.71076 0.0
C2872 C 0.44042 0.01565 0.73919 0.0
H2873 H 0.41549 0.98224 0.7597 0.0
C2874 C 0.45577 0.03049 0.74546 0.0
C2875 C 0.4258 0.99793 0.74438 0.0
C2876 C 0.40983 0.98066 0.73806 0.0
C2877 C 0.45668 0.02828 0.75678 0.0
C2878 C 0.44201 0.01063 0.76194 0.0
C2879 C 0.4266 0.99586 0.7557 0.0
C2880 C 0.44285 0.00663 0.77379 0.0
C2881 C 0.47306 0.04503 0.76316 0.0
C2882 C 0.46402 0.99757 0.77868 0.0
C2883 C 0.46416 0.99176 0.7897 0.0
C2884 C 0.44308 0.99483 0.79604 0.0
C2885 C 0.42211 0.00462 0.79114 0.0
C2886 C 0.42197 0.01033 0.78011 0.0
H2887 H 0.47867 0.06115 0.75833 0.0
H2888 H 0.46387 0.05139 0.77065 0.0
H2889 H 0.48972 0.035 0.76556 0.0
H2890 H 0.48019 0.9942 0.7739 0.0
H2891 H 0.48048 0.98387 0.79314 0.0
H2892 H 0.2572 0.17565 0.95306 0.0
H2893 H 0.26675 0.17263 0.97241 0.0
H2894 H 0.19516 0.1995 0.98028 0.0
H2895 H 0.18515 0.20164 0.96107 0.0
H2896 H 0.26758 0.20963 0.98748 0.0
H2897 H 0.19994 0.13974 0.99939 0.0
H2898 H 0.20769 0.14569 0.98543 0.0
H2899 H 0.1866 0.16514 0.99246 0.0
C2900 C 0.24338 0.18055 0.95892 0.0
C2901 C 0.22045 0.18896 0.95551 0.0
C2902 C 0.2489 0.17894 0.96996 0.0
C2903 C 0.23154 0.18552 0.97778 0.0
C2904 C 0.20866 0.19387 0.9744 0.0
H2905 H 0.23061 0.20474 0.04754 0.0
H2906 H 0.22113 0.20428 0.02812 0.0
C2907 C 0.20311 0.19542 0.9634 0.0
C2908 C 0.23763 0.18474 0.98948 0.0
H2909 H 0.21914 0.1615 0.01378 0.0
C2910 C 0.25714 0.19894 0.99322 0.0
C2911 C 0.22391 0.17083 0.99695 0.0
C2912 C 0.20351 0.1543 0.99335 0.0
C2913 C 0.26296 0.20002 0.00428 0.0
C2914 C 0.24905 0.18636 0.01175 0.0
C2915 C 0.22965 0.17206 0.00802 0.0
C2916 C 0.25464 0.18644 0.02347 0.0
C2917 C 0.28361 0.21616 0.00793 0.0
C2918 C 0.27644 0.17629 0.02724 0.0
C2919 C 0.28188 0.17653 0.03828 0.0
C2920 C 0.26559 0.18689 0.04577 0.0
C2921 C 0.24363 0.19686 0.04197 0.0
C2922 C 0.23814 0.1965 0.0309 0.0
H2923 H 0.28902 0.22938 0.00156 0.0
H2924 H 0.27853 0.22636 0.01536 0.0
H2925 H 0.29966 0.2047 0.00987 0.0
H2926 H 0.28927 0.16821 0.02163 0.0
H2927 H 0.29906 0.16893 0.04094 0.0
H2928 H 0.90547 -0.0002 0.70235 0.0
H2929 H 0.90324 0.00831 0.72179 0.0
H2930 H 0.97767 0.98513 0.72559 0.0
H2931 H 0.97994 0.97584 0.70629 0.0
H2932 H 0.91381 0.97214 0.7392 0.0
H2933 H 0.97277 0.05445 0.74022 0.0
H2934 H 0.95794 0.04406 0.728 0.0
H2935 H 0.98449 0.02861 0.73294 0.0
C2936 C 0.92137 0.99643 0.70731 0.0
C2937 C 0.94291 0.98714 0.70271 0.0
C2938 C 0.92007 0.00141 0.7184 0.0
C2939 C 0.94034 0.99749 0.72507 0.0
C2940 C 0.96194 0.98859 0.72053 0.0
H2941 H 0.95279 0.98724 0.79515 0.0
H2942 H 0.95358 0.9793 0.77559 0.0
C2943 C 0.96322 0.98344 0.70947 0.0
C2944 C 0.93873 0.00191 0.73686 0.0
H2945 H 0.96048 0.03818 0.75711 0.0
C2946 C 0.92394 0.9866 0.74314 0.0
C2947 C 0.95193 0.02084 0.74191 0.0
C2948 C 0.96758 0.03811 0.73545 0.0
C2949 C 0.92226 0.98956 0.75441 0.0
C2950 C 0.93577 0.00825 0.75948 0.0
C2951 C 0.9503 0.02376 0.75318 0.0
C2952 C 0.93462 0.01242 0.7713 0.0
C2953 C 0.90588 0.9729 0.76083 0.0
C2954 C 0.92382 0.03369 0.7753 0.0
C2955 C 0.92332 0.03825 0.78642 0.0
C2956 C 0.93383 0.0217 0.79375 0.0
C2957 C 0.94463 0.00034 0.78971 0.0
C2958 C 0.94496 0.99572 0.77856 0.0
H2959 H 0.89356 0.96218 0.75552 0.0
H2960 H 0.91721 0.96002 0.76557 0.0
H2961 H 0.89471 0.98355 0.76664 0.0
H2962 H 0.91589 0.04685 0.76981 0.0
H2963 H 0.91523 0.05506 0.78926 0.0
H2964 H 0.75384 0.15365 0.54588 0.0
H2965 H 0.7641 0.15396 0.52659 0.0
H2966 H 0.7394 0.22817 0.52412 0.0
H2967 H 0.72829 0.22789 0.54327 0.0
H2968 H 0.72769 0.16644 0.50915 0.0
H2969 H 0.80982 0.22571 0.50995 0.0
H2970 H 0.79953 0.20899 0.5217 0.0
H2971 H 0.78372 0.23594 0.5175 0.0
C2972 C 0.75051 0.17005 0.54125 0.0
C2973 C 0.74015 0.19074 0.54616 0.0
C2974 C 0.75654 0.17021 0.53025 0.0
C2975 C 0.75263 0.19113 0.52399 0.0
C2976 C 0.74284 0.21196 0.52887 0.0
H2977 H 0.77462 0.23015 0.45673 0.0
H2978 H 0.76608 0.22956 0.47619 0.0
C2979 C 0.73662 0.21178 0.53984 0.0
C2980 C 0.75755 0.1908 0.51223 0.0
H2981 H 0.79453 0.21466 0.49275 0.0
C2982 C 0.74237 0.17685 0.50554 0.0
C2983 C 0.77655 0.20462 0.5076 0.0
C2984 C 0.79351 0.21959 0.51452 0.0
C2985 C 0.74542 0.17666 0.49425 0.0
C2986 C 0.76463 0.19029 0.48959 0.0
C2987 C 0.77984 0.20421 0.49633 0.0
C2988 C 0.76924 0.19045 0.47775 0.0
C2989 C 0.7276 0.16245 0.48743 0.0
C2990 C 0.77399 0.16868 0.47218 0.0
C2991 C 0.77866 0.16897 0.46105 0.0
C2992 C 0.77907 0.19107 0.45533 0.0
C2993 C 0.77452 0.21286 0.46094 0.0
C2994 C 0.76963 0.21254 0.47205 0.0
H2995 H 0.71024 0.15921 0.49181 0.0
H2996 H 0.7235 0.17209 0.47974 0.0
H2997 H 0.73558 0.14446 0.48542 0.0
H2998 H 0.77446 0.15149 0.47646 0.0
H2999 H 0.78257 0.15194 0.45698 0.0
H3000 H 0.55127 0.06813 0.2083 0.0
H3001 H 0.55199 0.05934 0.22769 0.0
H3002 H 0.56841 0.98417 0.22093 0.0
H3003 H 0.56691 0.99251 0.20145 0.0
H3004 H 0.52143 0.01844 0.23846 0.0
H3005 H 0.62203 0.01246 0.24334 0.0
H3006 H 0.60802 0.02973 0.23256 0.0
H3007 H 0.60837 0.99714 0.23196 0.0
C3008 C 0.55475 0.04963 0.21089 0.0
C3009 C 0.55885 0.03097 0.20328 0.0
C3010 C 0.55533 0.04473 0.22198 0.0
C3011 C 0.56034 0.02118 0.22568 0.0
C3012 C 0.56471 0.00253 0.21818 0.0
H3013 H 0.57805 0.95483 0.28841 0.0
H3014 H 0.57809 0.9657 0.26924 0.0
C3015 C 0.56395 0.00736 0.20707 0.0
C3016 C 0.56042 0.01603 0.23742 0.0
H3017 H 0.59804 0.00369 0.25868 0.0
C3018 C 0.53813 0.01527 0.24293 0.0
C3019 C 0.58227 0.01187 0.24313 0.0
C3020 C 0.60663 0.01292 0.23752 0.0
C3021 C 0.53705 0.00992 0.25403 0.0
C3022 C 0.55896 0.00591 0.25981 0.0
C3023 C 0.58128 0.00685 0.25426 0.0
C3024 C 0.55913 -0.00016 0.27151 0.0
C3025 C 0.51243 0.00784 0.25938 0.0
C3026 C 0.54876 0.0156 0.2792 0.0
C3027 C 0.54858 0.00934 0.29019 0.0
C3028 C 0.55917 0.98743 0.29368 0.0
C3029 C 0.57 0.97198 0.28598 0.0
C3030 C 0.56996 0.97812 0.27502 0.0
H3031 H 0.49773 0.00481 0.25335 0.0
H3032 H 0.5121 0.99268 0.26532 0.0
H3033 H 0.50836 0.02501 0.26375 0.0
H3034 H 0.54085 0.03276 0.27671 0.0
H3035 H 0.54038 0.02173 0.29595 0.0
H3036 H 0.74059 0.79073 0.04342 0.0
H3037 H 0.73511 0.79046 0.02371 0.0
H3038 H 0.80504 0.8249 0.0197 0.0
H3039 H 0.81086 0.82489 0.03935 0.0
H3040 H 0.73641 0.83176 0.00897 0.0
H3041 H 0.80779 0.76272 0.00028 0.0
H3042 H 0.79477 0.76678 0.0136 0.0
H3043 H 0.81709 0.78787 0.00864 0.0
C3044 C 0.75485 0.79812 0.03833 0.0
C3045 C 0.77619 0.80777 0.04294 0.0
C3046 C 0.75164 0.79806 0.0271 0.0
C3047 C 0.7698 0.8074 0.02028 0.0
C3048 C 0.79095 0.81735 0.02484 0.0
H3049 H 0.75708 0.84239 0.95163 0.0
H3050 H 0.76586 0.84347 0.97106 0.0
C3051 C 0.79412 0.81753 0.03606 0.0
C3052 C 0.7666 0.80685 0.00838 0.0
H3053 H 0.78934 0.78176 0.98517 0.0
C3054 C 0.74797 0.82087 0.00375 0.0
C3055 C 0.78162 0.79244 0.00163 0.0
C3056 C 0.80134 0.77642 0.00625 0.0
C3057 C 0.74409 0.82103 0.99251 0.0
C3058 C 0.75938 0.80695 0.98575 0.0
C3059 C 0.77785 0.79274 0.99039 0.0
C3060 C 0.75574 0.80597 0.97388 0.0
C3061 C 0.72339 0.83588 0.98796 0.0
C3062 C 0.74788 0.78432 0.969 0.0
C3063 C 0.74271 0.78365 0.95793 0.0
C3064 C 0.74547 0.80462 0.95149 0.0
C3065 C 0.75433 0.82604 0.95636 0.0
C3066 C 0.7594 0.8267 0.96746 0.0
H3067 H 0.71051 0.84186 0.99437 0.0
H3068 H 0.73083 0.85235 0.98395 0.0
H3069 H 0.71318 0.82528 0.98179 0.0
H3070 H 0.74498 0.76812 0.97384 0.0
H3071 H 0.73562 0.76693 0.95452 0.0
H3072 H 0.52025 0.50888 0.79455 0.0
H3073 H 0.52328 0.50169 0.77505 0.0
H3074 H 0.5981 0.52538 0.77555 0.0
H3075 H 0.5952 0.53267 0.79507 0.0
H3076 H 0.53416 0.53747 0.75966 0.0
H3077 H 0.60115 0.4617 0.75818 0.0
H3078 H 0.5852 0.46997 0.77043 0.0
H3079 H 0.61047 0.48794 0.76582 0.0
C3080 C 0.53741 0.51237 0.79052 0.0
C3081 C 0.55748 0.52135 0.79635 0.0
C3082 C 0.53912 0.50821 0.77939 0.0
C3083 C 0.56095 0.51284 0.77387 0.0
C3084 C 0.58122 0.52126 0.77969 0.0
H3085 H 0.59448 0.50177 0.70471 0.0
H3086 H 0.59653 0.51124 0.72408 0.0
C3087 C 0.57954 0.52538 0.79085 0.0
C3088 C 0.56186 0.51022 0.76193 0.0
H3089 H 0.58869 0.47833 0.74141 0.0
C3090 C 0.54609 0.52455 0.75567 0.0
C3091 C 0.57761 0.49352 0.75675 0.0
C3092 C 0.59446 0.47723 0.76312 0.0
C3093 C 0.54548 0.52249 0.74435 0.0
C3094 C 0.56079 0.50538 0.73918 0.0
C3095 C 0.57699 0.49145 0.74542 0.0
C3096 C 0.55932 0.50074 0.72738 0.0
C3097 C 0.52854 0.53874 0.73801 0.0
C3098 C 0.53776 0.49165 0.72285 0.0
C3099 C 0.53655 0.48611 0.71183 0.0
C3100 C 0.55696 0.48943 0.70511 0.0
C3101 C 0.5785 0.49878 0.70966 0.0
C3102 C 0.57969 0.50429 0.72072 0.0
H3103 H 0.52339 0.55521 0.7427 0.0
H3104 H 0.53697 0.54455 0.73025 0.0
H3105 H 0.51162 0.52856 0.73611 0.0
H3106 H 0.52199 0.48827 0.7279 0.0
H3107 H 0.51985 0.47844 0.70867 0.0
H3108 H 0.74882 0.34817 0.04791 0.0
H3109 H 0.75849 0.35123 0.02857 0.0
H3110 H 0.73604 0.27676 0.02395 0.0
H3111 H 0.72609 0.27359 0.04315 0.0
H3112 H 0.78069 0.28876 0.01388 0.0
H3113 H 0.70764 0.35527 0.004 0.0
H3114 H 0.72792 0.36384 0.01478 0.0
H3115 H 0.70801 0.33822 0.0165 0.0
C3116 C 0.74585 0.33248 0.04276 0.0
C3117 C 0.73665 0.31064 0.04709 0.0
C3118 C 0.75137 0.33427 0.03173 0.0
C3119 C 0.74765 0.31432 0.02482 0.0
C3120 C 0.73901 0.29238 0.02915 0.0
H3121 H 0.7596 0.27581 0.95745 0.0
H3122 H 0.75284 0.27768 0.97701 0.0
C3123 C 0.73349 0.29056 0.04015 0.0
C3124 C 0.75268 0.31608 0.01306 0.0
H3125 H 0.73352 0.34332 0.98971 0.0
C3126 C 0.77044 0.30074 0.00859 0.0
C3127 C 0.7393 0.33178 0.00621 0.0
C3128 C 0.7195 0.34811 0.01056 0.0
C3129 C 0.77513 0.30057 0.99742 0.0
C3130 C 0.76135 0.31583 0.99053 0.0
C3131 C 0.74397 0.33159 0.99502 0.0
C3132 C 0.76434 0.31517 0.97861 0.0
C3133 C 0.79492 0.28417 0.99311 0.0
C3134 C 0.77217 0.33591 0.97298 0.0
C3135 C 0.77601 0.33492 0.96179 0.0
C3136 C 0.77196 0.31317 0.95603 0.0
C3137 C 0.7633 0.29269 0.96168 0.0
C3138 C 0.75946 0.29372 0.97285 0.0
H3139 H 0.80796 0.27883 0.99956 0.0
H3140 H 0.78656 0.26732 0.98983 0.0
H3141 H 0.80514 0.29317 0.98646 0.0
H3142 H 0.77591 0.35268 0.97729 0.0
H3143 H 0.78291 0.35094 0.95771 0.0
H3144 H 0.9233 0.45167 0.29192 0.0
H3145 H 0.92427 0.45937 0.27245 0.0
H3146 H 0.95779 0.52915 0.27813 0.0
H3147 H 0.95659 0.52175 0.29774 0.0
H3148 H 0.91647 0.52827 0.2629 0.0
H3149 H 0.98775 0.45957 0.25368 0.0
H3150 H 0.96283 0.44883 0.26182 0.0
H3151 H 0.98297 0.47163 0.26713 0.0
C3152 C 0.93066 0.46879 0.28905 0.0
C3153 C 0.93982 0.48615 0.29638 0.0
C3154 C 0.93141 0.47303 0.27792 0.0
C3155 C 0.94134 0.49468 0.27388 0.0
C3156 C 0.95019 0.51226 0.28113 0.0
H3157 H 0.97833 0.5276 0.2072 0.0
H3158 H 0.97861 0.5209 0.22675 0.0
C3159 C 0.94959 0.50797 0.2923 0.0
C3160 C 0.94228 0.49888 0.26206 0.0
H3161 H 0.96731 0.47716 0.23867 0.0
C3162 C 0.92764 0.51721 0.25759 0.0
C3163 C 0.95704 0.48449 0.2552 0.0
C3164 C 0.97372 0.46513 0.25967 0.0
C3165 C 0.92698 0.52118 0.24636 0.0
C3166 C 0.94119 0.50629 0.23947 0.0
C3167 C 0.95625 0.48834 0.24398 0.0
C3168 C 0.94103 0.50941 0.22757 0.0
C3169 C 0.91127 0.54138 0.24193 0.0
C3170 C 0.91992 0.50461 0.22155 0.0
C3171 C 0.91974 0.50813 0.21033 0.0
C3172 C 0.94071 0.51651 0.20494 0.0
C3173 C 0.96196 0.52079 0.21103 0.0
C3174 C 0.96213 0.51716 0.22222 0.0
H3175 H 0.90558 0.55432 0.24837 0.0
H3176 H 0.92106 0.55161 0.23552 0.0
H3177 H 0.89463 0.53342 0.23827 0.0
H3178 H 0.90358 0.49817 0.22553 0.0
H3179 H 0.9032 0.50427 0.20589 0.0
H3180 H 0.76209 0.73228 0.54665 0.0
H3181 H 0.75056 0.73359 0.52762 0.0
H3182 H 0.73563 0.65654 0.52825 0.0
H3183 H 0.74533 0.65536 0.5475 0.0
H3184 H 0.77256 0.71201 0.51148 0.0
H3185 H 0.6771 0.67998 0.51236 0.0
H3186 H 0.69329 0.68851 0.52449 0.0
H3187 H 0.69739 0.65873 0.51866 0.0
C3188 C 0.75559 0.71572 0.54288 0.0
C3189 C 0.75468 0.6937 0.54868 0.0
C3190 C 0.74927 0.71647 0.53193 0.0
C3191 C 0.74204 0.69522 0.5265 0.0
C3192 C 0.74067 0.67329 0.53229 0.0
H3193 H 0.75277 0.68004 0.45618 0.0
H3194 H 0.75961 0.67748 0.4757 0.0
C3195 C 0.74663 0.67258 0.54329 0.0
C3196 C 0.73757 0.69577 0.51464 0.0
H3197 H 0.69649 0.68049 0.49505 0.0
C3198 C 0.75584 0.70528 0.5079 0.0
C3199 C 0.71568 0.68719 0.50996 0.0
C3200 C 0.69466 0.67827 0.51676 0.0
C3201 C 0.75289 0.70637 0.49662 0.0
C3202 C 0.73142 0.69688 0.4919 0.0
C3203 C 0.71309 0.68748 0.49865 0.0
C3204 C 0.72707 0.69748 0.48004 0.0
C3205 C 0.77255 0.71833 0.48994 0.0
C3206 C 0.70601 0.70863 0.47598 0.0
C3207 C 0.7017 0.7095 0.46486 0.0
C3208 C 0.71849 0.69948 0.45748 0.0
C3209 C 0.73942 0.68795 0.46158 0.0
C3210 C 0.74355 0.68677 0.47276 0.0
H3211 H 0.78392 0.73078 0.49491 0.0
H3212 H 0.78469 0.70409 0.48656 0.0
H3213 H 0.76468 0.72886 0.48311 0.0
H3214 H 0.6929 0.7168 0.48143 0.0
H3215 H 0.685 0.71787 0.46207 0.0
H3216 H 0.45977 0.55718 0.29089 0.0
H3217 H 0.4561 0.5485 0.27166 0.0
H3218 H 0.41491 0.48368 0.27886 0.0
H3219 H 0.41981 0.49142 0.29826 0.0
H3220 H 0.44799 0.47476 0.26375 0.0
H3221 H 0.39852 0.55847 0.25237 0.0
H3222 H 0.42657 0.56547 0.2591 0.0
H3223 H 0.40289 0.54955 0.2663 0.0
C3224 C 0.45019 0.54087 0.28845 0.0
C3225 C 0.44023 0.52491 0.2962 0.0
C3226 C 0.44771 0.53618 0.27739 0.0
C3227 C 0.43475 0.51574 0.27378 0.0
C3228 C 0.42479 0.49972 0.28146 0.0
H3229 H 0.39746 0.49626 0.20542 0.0
H3230 H 0.39587 0.5039 0.2249 0.0
C3231 C 0.42747 0.50425 0.29255 0.0
C3232 C 0.43263 0.51061 0.262 0.0
H3233 H 0.41721 0.53637 0.23778 0.0
C3234 C 0.44101 0.48814 0.25808 0.0
C3235 C 0.42312 0.52787 0.25461 0.0
C3236 C 0.41202 0.55156 0.25833 0.0
C3237 C 0.44095 0.48279 0.24697 0.0
C3238 C 0.43297 0.50069 0.23952 0.0
C3239 C 0.42375 0.52281 0.24346 0.0
C3240 C 0.43413 0.49682 0.22762 0.0
C3241 C 0.44918 0.45786 0.24335 0.0
C3242 C 0.45628 0.491 0.2226 0.0
C3243 C 0.45719 0.48618 0.2115 0.0
C3244 C 0.43601 0.48753 0.2051 0.0
C3245 C 0.41404 0.49451 0.21009 0.0
C3246 C 0.41312 0.49907 0.22123 0.0
H3247 H 0.4471 0.44422 0.24993 0.0
H3248 H 0.43874 0.45154 0.23618 0.0
H3249 H 0.46874 0.45861 0.24115 0.0
H3250 H 0.47288 0.48984 0.22729 0.0
H3251 H 0.47441 0.48066 0.20801 0.0
H3252 H 0.27901 0.65566 0.95747 0.0
H3253 H 0.27035 0.65481 0.97691 0.0
H3254 H 0.25834 0.73236 0.97659 0.0
H3255 H 0.26613 0.73326 0.95711 0.0
H3256 H 0.2958 0.67923 0.99298 0.0
H3257 H 0.1989 0.70743 0.99283 0.0
H3258 H 0.21442 0.69721 0.98077 0.0
H3259 H 0.21844 0.72787 0.98555 0.0
C3260 C 0.27396 0.67245 0.96149 0.0
C3261 C 0.27316 0.69453 0.95573 0.0
C3262 C 0.26924 0.67195 0.97261 0.0
C3263 C 0.26346 0.69347 0.97817 0.0
C3264 C 0.26235 0.71547 0.97243 0.0
H3265 H 0.23815 0.7354 0.04465 0.0
H3266 H 0.24762 0.73407 0.0253 0.0
C3267 C 0.26704 0.71599 0.96132 0.0
C3268 C 0.25976 0.69317 0.99006 0.0
H3269 H 0.21911 0.70795 0.0099 0.0
C3270 C 0.27897 0.68532 0.99669 0.0
C3271 C 0.23779 0.70115 0.99486 0.0
C3272 C 0.21612 0.70868 0.98814 0.0
C3273 C 0.27701 0.68581 0.00803 0.0
C3274 C 0.25518 0.69412 0.01282 0.0
C3275 C 0.23589 0.70175 0.00619 0.0
C3276 C 0.25178 0.69495 0.02471 0.0
C3277 C 0.29848 0.67801 0.0148 0.0
C3278 C 0.2513 0.6734 0.03079 0.0
C3279 C 0.246 0.6741 0.04186 0.0
C3280 C 0.24103 0.69638 0.04703 0.0
C3281 C 0.24224 0.71799 0.04095 0.0
C3282 C 0.24745 0.71725 0.02988 0.0
H3283 H 0.31558 0.67749 0.01 0.0
H3284 H 0.30107 0.69048 0.02179 0.0
H3285 H 0.29508 0.65947 0.01803 0.0
H3286 H 0.25428 0.65596 0.02691 0.0
H3287 H 0.24535 0.65716 0.04633 0.0
H3288 H 0.07858 0.49114 0.7045 0.0
H3289 H 0.08084 0.48392 0.72401 0.0
H3290 H 0.04212 0.55092 0.72989 0.0
H3291 H 0.04143 0.55921 0.71057 0.0
H3292 H 0.07796 0.5468 0.7436 0.0
H3293 H 0.02723 0.4596 0.74296 0.0
H3294 H 0.05418 0.45889 0.73477 0.0
H3295 H 0.02955 0.47897 0.73122 0.0
C3296 C 0.07076 0.50447 0.70994 0.0
C3297 C 0.05949 0.5256 0.70589 0.0
C3298 C 0.07175 0.50013 0.7211 0.0
C3299 C 0.06111 0.51657 0.72842 0.0
C3300 C 0.05025 0.53782 0.72441 0.0
H3301 H 0.02146 0.48333 0.79453 0.0
H3302 H 0.02223 0.49347 0.77535 0.0
C3303 C 0.04958 0.54237 0.71331 0.0
C3304 C 0.06144 0.51202 0.74028 0.0
H3305 H 0.04504 0.471 0.7597 0.0
C3306 C 0.07069 0.53025 0.74713 0.0
C3307 C 0.05163 0.49059 0.7449 0.0
C3308 C 0.03986 0.47101 0.7381 0.0
C3309 C 0.07035 0.52769 0.75844 0.0
C3310 C 0.06131 0.50589 0.76303 0.0
C3311 C 0.05212 0.48765 0.75618 0.0
C3312 C 0.06075 0.50168 0.77491 0.0
C3313 C 0.07898 0.54871 0.76531 0.0
C3314 C 0.08208 0.50322 0.78113 0.0
C3315 C 0.08157 0.4981 0.79222 0.0
C3316 C 0.05982 0.49072 0.79729 0.0
C3317 C 0.03846 0.48939 0.79102 0.0
C3318 C 0.03892 0.49489 0.77998 0.0
H3319 H 0.07786 0.56623 0.76085 0.0
H3320 H 0.06812 0.55033 0.77286 0.0
H3321 H 0.09831 0.54576 0.76755 0.0
H3322 H 0.09926 0.50789 0.77738 0.0
H3323 H 0.09834 0.49968 0.79676 0.0
H3324 H 0.22071 0.34814 0.45531 0.0
H3325 H 0.23078 0.35054 0.47461 0.0
H3326 H 0.25527 0.27602 0.47396 0.0
H3327 H 0.24562 0.27353 0.45467 0.0
H3328 H 0.2206 0.28724 0.49053 0.0
H3329 H 0.29837 0.35208 0.48985 0.0
H3330 H 0.27142 0.36137 0.48269 0.0
H3331 H 0.28852 0.33566 0.47795 0.0
C3332 C 0.22874 0.33243 0.45921 0.0
C3333 C 0.23232 0.31061 0.45344 0.0
C3334 C 0.23441 0.33382 0.47025 0.0
C3335 C 0.24384 0.31348 0.47568 0.0
C3336 C 0.24795 0.2919 0.4699 0.0
H3337 H 0.30844 0.29239 0.53821 0.0
H3338 H 0.29857 0.29641 0.51899 0.0
C3339 C 0.24235 0.2905 0.45889 0.0
C3340 C 0.24828 0.31412 0.48751 0.0
H3341 H 0.28439 0.3393 0.50704 0.0
C3342 C 0.23446 0.2987 0.49416 0.0
C3343 C 0.26646 0.32901 0.49218 0.0
C3344 C 0.28223 0.34538 0.48533 0.0
C3345 C 0.23846 0.29761 0.50538 0.0
C3346 C 0.25661 0.31252 0.51006 0.0
C3347 C 0.27035 0.32806 0.50342 0.0
C3348 C 0.26257 0.31108 0.52173 0.0
C3349 C 0.22376 0.28 0.5121 0.0
C3350 C 0.24567 0.31829 0.52964 0.0
C3351 C 0.25121 0.31591 0.54065 0.0
C3352 C 0.27372 0.30619 0.54393 0.0
C3353 C 0.29075 0.29947 0.53596 0.0
C3354 C 0.28524 0.30196 0.52498 0.0
H3355 H 0.21375 0.26668 0.507 0.0
H3356 H 0.23571 0.26988 0.51778 0.0
H3357 H 0.21026 0.29028 0.51698 0.0
H3358 H 0.22816 0.32564 0.52728 0.0
H3359 H 0.23774 0.32123 0.5466 0.0
H3360 H 0.05952 0.17671 0.31875 0.0
H3361 H 0.04356 0.21776 0.32113 0.0
H3362 H 0.01638 0.19832 0.3527 0.0
H3363 H 0.03272 0.15726 0.35053 0.0
H3364 H 0.98203 0.22199 0.33908 0.0
H3365 H 0.06934 0.27251 0.34118 0.0
H3366 H 0.06696 0.25223 0.3298 0.0
H3367 H 0.06732 0.24004 0.34331 0.0
C3368 C 0.05052 0.18115 0.32628 0.0
C3369 C 0.04755 0.16353 0.33445 0.0
C3370 C 0.04139 0.20469 0.32762 0.0
C3371 C 0.02912 0.21116 0.33715 0.0
C3372 C 0.02592 0.19369 0.3453 0.0
H3373 H 0.98114 0.3602 0.35178 0.0
H3374 H -5e-05 0.3199 0.35325 0.0
C3375 C 0.03515 0.17014 0.344 0.0
C3376 C 0.01864 0.23586 0.33835 0.0
H3377 H 0.03346 0.29623 0.33833 0.0
C3378 C 0.99327 0.23822 0.33903 0.0
C3379 C 0.03338 0.25697 0.33843 0.0
C3380 C 0.06079 0.2554 0.33824 0.0
C3381 C 0.98217 0.26121 0.33933 0.0
C3382 C 0.99685 0.28233 0.33883 0.0
C3383 C 0.02227 0.27999 0.33862 0.0
C3384 C 0.98602 0.30691 0.33792 0.0
C3385 C 0.95481 0.26274 0.34006 0.0
C3386 C 0.97247 0.31308 0.32871 0.0
C3387 C 0.96191 0.33607 0.3278 0.0
C3388 C 0.96464 0.35346 0.33608 0.0
C3389 C 0.97872 0.34737 0.34522 0.0
C3390 C 0.98939 0.32431 0.34611 0.0
H3391 H 0.94677 0.24558 0.34319 0.0
H3392 H 0.94913 0.27801 0.34539 0.0
H3393 H 0.94723 0.26607 0.33186 0.0
H3394 H 0.97012 0.30008 0.32219 0.0
H3395 H 0.95175 0.34023 0.32053 0.0
H3396 H 0.90154 0.71364 0.60039 0.0
H3397 H 0.94336 0.72898 0.60207 0.0
H3398 H 0.9496 0.73126 0.56729 0.0
H3399 H 0.90791 0.71612 0.56555 0.0
H3400 H 0.98756 0.70566 0.59173 0.0
H3401 H 0.96987 0.80098 0.5789 0.0
H3402 H 0.9463 0.7814 0.58423 0.0
H3403 H 0.95663 0.77767 0.57053 0.0
C3404 C 0.91175 0.71768 0.59312 0.0
C3405 C 0.90146 0.7137 0.58283 0.0
C3406 C 0.93563 0.72628 0.59409 0.0
C3407 C 0.94942 0.73136 0.5848 0.0
C3408 C 0.93915 0.72759 0.57454 0.0
H3409 H 0.08973 0.78443 0.56646 0.0
H3410 H 0.04792 0.7697 0.56789 0.0
C3411 C 0.91541 0.7188 0.57357 0.0
C3412 C 0.97478 0.74011 0.58572 0.0
H3413 H 0.01116 0.78869 0.57996 0.0
C3414 C 0.99279 0.72388 0.58928 0.0
C3415 C 0.98139 0.76385 0.58249 0.0
C3416 C 0.96257 0.78213 0.57889 0.0
C3417 C 0.0175 0.73049 0.58926 0.0
C3418 C 0.0242 0.75414 0.58582 0.0
C3419 C 0.00602 0.77055 0.58256 0.0
C3420 C 0.04998 0.76202 0.58506 0.0
C3421 C 0.03625 0.71178 0.59249 0.0
C3422 C 0.06509 0.76254 0.59423 0.0
C3423 C 0.08911 0.77086 0.59341 0.0
C3424 C 0.09828 0.77915 0.58343 0.0
C3425 C 0.08311 0.77845 0.57427 0.0
C3426 C 0.05924 0.76998 0.57508 0.0
H3427 H 0.02871 0.69302 0.59228 0.0
H3428 H 0.05236 0.71258 0.58707 0.0
H3429 H 0.04242 0.71553 0.60088 0.0
H3430 H 0.05819 0.757 0.60206 0.0
H3431 H 0.10026 0.77151 0.60063 0.0
H3432 H 0.46756 0.84249 0.81428 0.0
H3433 H 0.48167 0.80062 0.81643 0.0
H3434 H 0.47848 0.8084 0.85116 0.0
H3435 H 0.46451 0.8505 0.84905 0.0
H3436 H 0.51991 0.78548 0.84463 0.0
H3437 H 0.44009 0.74289 0.82491 0.0
H3438 H 0.45447 0.76509 0.8164 0.0
H3439 H 0.4405 0.77448 0.82891 0.0
C3440 C 0.46969 0.83524 0.82238 0.0
C3441 C 0.46469 0.84974 0.83149 0.0
C3442 C 0.47769 0.81128 0.82359 0.0
C3443 C 0.48057 0.80118 0.83395 0.0
C3444 C 0.4762 0.81578 0.84309 0.0
H3445 H 0.49997 0.64405 0.84193 0.0
H3446 H 0.48455 0.68567 0.84327 0.0
C3447 C 0.46833 0.83985 0.84187 0.0
C3448 C 0.48849 0.7755 0.83519 0.0
H3449 H 0.47504 0.71747 0.82729 0.0
C3450 C 0.50998 0.77057 0.84093 0.0
C3451 C 0.47528 0.75598 0.83055 0.0
C3452 C 0.45117 0.75981 0.82495 0.0
C3453 C 0.51912 0.74677 0.84179 0.0
C3454 C 0.50671 0.72748 0.83655 0.0
C3455 C 0.48472 0.73229 0.83118 0.0
C3456 C 0.51656 0.70232 0.83625 0.0
C3457 C 0.54191 0.74255 0.84834 0.0
C3458 C 0.53959 0.69778 0.83178 0.0
C3459 C 0.54858 0.67405 0.83111 0.0
C3460 C 0.53459 0.6542 0.83476 0.0
C3461 C 0.51142 0.65882 0.83918 0.0
C3462 C 0.5025 0.68262 0.83989 0.0
H3463 H 0.54451 0.75703 0.85452 0.0
H3464 H 0.54142 0.72464 0.85249 0.0
H3465 H 0.55792 0.7429 0.84286 0.0
H3466 H 0.55056 0.71259 0.82867 0.0
H3467 H 0.56656 0.67136 0.82776 0.0
H3468 H 0.39614 0.21946 0.10408 0.0
H3469 H 0.437 0.23729 0.10617 0.0
H3470 H 0.45004 0.22737 0.07202 0.0
H3471 H 0.40951 0.20977 0.06989 0.0
H3472 H 0.48383 0.21272 0.0994 0.0
H3473 H 0.46642 0.30081 0.07884 0.0
H3474 H 0.4424 0.28256 0.08469 0.0
H3475 H 0.45517 0.27449 0.07178 0.0
C3476 C 0.40767 0.22136 0.09702 0.0
C3477 C 0.39967 0.21315 0.08683 0.0
C3478 C 0.43099 0.2314 0.09823 0.0
C3479 C 0.44642 0.23376 0.08923 0.0
C3480 C 0.43833 0.22587 0.07905 0.0
H3481 H 0.58652 0.27709 0.06806 0.0
H3482 H 0.54452 0.26416 0.07095 0.0
C3483 C 0.41524 0.21566 0.07786 0.0
C3484 C 0.47135 0.24372 0.09033 0.0
H3485 H 0.50795 0.28932 0.08105 0.0
C3486 C 0.48913 0.22967 0.09557 0.0
C3487 C 0.4781 0.2658 0.08531 0.0
C3488 C 0.45952 0.28195 0.07991 0.0
C3489 C 0.51382 0.23646 0.09536 0.0
C3490 C 0.52072 0.2581 0.08994 0.0
C3491 C 0.50269 0.27266 0.08514 0.0
C3492 C 0.5466 0.26521 0.08844 0.0
C3493 C 0.53241 0.21977 0.10044 0.0
C3494 C 0.56184 0.27005 0.09733 0.0
C3495 C 0.586 0.27738 0.09568 0.0
C3496 C 0.59522 0.28029 0.08513 0.0
C3497 C 0.5799 0.27531 0.07628 0.0
C3498 C 0.5559 0.26786 0.07792 0.0
H3499 H 0.52477 0.20144 0.10214 0.0
H3500 H 0.54853 0.21769 0.09509 0.0
H3501 H 0.53861 0.22772 0.10822 0.0
H3502 H 0.55495 0.26862 0.10552 0.0
H3503 H 0.59724 0.28143 0.10265 0.0
H3504 H 0.93166 0.67055 0.16908 0.0
H3505 H 0.95089 0.71039 0.16752 0.0
H3506 H 0.01607 0.67681 0.15512 0.0
H3507 H 0.99716 0.6366 0.1569 0.0
H3508 H 0.99725 0.72266 0.17837 0.0
H3509 H 0.99866 0.73472 0.13357 0.0
H3510 H 0.9776 0.71436 0.14023 0.0
H3511 H 0.00902 0.70606 0.13894 0.0
C3512 C 0.9501 0.67151 0.16606 0.0
C3513 C 0.96289 0.65027 0.1632 0.0
C3514 C 0.96099 0.69435 0.16509 0.0
C3515 C 0.9848 0.69651 0.16115 0.0
C3516 C 0.99753 0.6755 0.15805 0.0
H3517 H 0.07808 0.82358 0.16912 0.0
H3518 H 0.06224 0.78211 0.16804 0.0
C3519 C 0.98667 0.65255 0.15906 0.0
C3520 C 0.99663 0.72071 0.16096 0.0
H3521 H 0.01627 0.76596 0.14413 0.0
C3522 C 0.00155 0.7321 0.17089 0.0
C3523 C 0.00199 0.73294 0.15118 0.0
C3524 C 0.99648 0.72158 0.14034 0.0
C3525 C 0.01166 0.75551 0.17132 0.0
C3526 C 0.01711 0.76777 0.16155 0.0
C3527 C 0.0122 0.7564 0.1516 0.0
C3528 C 0.02724 0.79273 0.16159 0.0
C3529 C 0.01595 0.76725 0.18221 0.0
C3530 C 0.01292 0.81237 0.15815 0.0
C3531 C 0.02181 0.83617 0.15886 0.0
C3532 C 0.04529 0.84077 0.16296 0.0
C3533 C 0.05978 0.82087 0.16613 0.0
C3534 C 0.05082 0.7971 0.16546 0.0
H3535 H 0.00675 0.75721 0.18886 0.0
H3536 H 0.03577 0.76756 0.18393 0.0
H3537 H 0.00934 0.78635 0.1822 0.0
H3538 H 0.99463 0.80932 0.15517 0.0
H3539 H 0.01 0.85094 0.15644 0.0
H3540 H 0.57416 0.68296 0.42145 0.0
H3541 H 0.53297 0.69918 0.41965 0.0
H3542 H 0.56225 0.76862 0.4099 0.0
H3543 H 0.60367 0.75258 0.41187 0.0
H3544 H 0.52621 0.77079 0.42652 0.0
H3545 H 0.49562 0.71564 0.39144 0.0
H3546 H 0.50906 0.69802 0.40214 0.0
H3547 H 0.52735 0.71964 0.39484 0.0
C3548 C 0.57187 0.7017 0.41896 0.0
C3549 C 0.59218 0.7165 0.41682 0.0
C3550 C 0.54832 0.71085 0.4178 0.0
C3551 C 0.5446 0.73497 0.41448 0.0
C3552 C 0.56478 0.74987 0.41237 0.0
H3553 H 0.39795 0.792 0.4017 0.0
H3554 H 0.44127 0.78238 0.39975 0.0
C3555 C 0.58839 0.74067 0.41346 0.0
C3556 C 0.5196 0.74482 0.41379 0.0
H3557 H 0.46445 0.73541 0.40176 0.0
C3558 C 0.51277 0.7633 0.42101 0.0
C3559 C 0.50222 0.73521 0.4065 0.0
C3560 C 0.50893 0.71619 0.39821 0.0
C3561 C 0.48865 0.7716 0.42151 0.0
C3562 C 0.47096 0.76096 0.41467 0.0
C3563 C 0.47804 0.74335 0.40707 0.0
C3564 C 0.44481 0.76682 0.41575 0.0
C3565 C 0.4822 0.79145 0.42945 0.0
C3566 C 0.43244 0.76082 0.42531 0.0
C3567 C 0.40772 0.76604 0.42642 0.0
C3568 C 0.39481 0.77737 0.41797 0.0
C3569 C 0.40723 0.78308 0.40832 0.0
C3570 C 0.43202 0.77774 0.40721 0.0
H3571 H 0.49849 0.80207 0.43193 0.0
H3572 H 0.46854 0.80409 0.42595 0.0
H3573 H 0.47423 0.78312 0.43683 0.0
H3574 H 0.4419 0.75188 0.4319 0.0
H3575 H 0.39872 0.76089 0.43386 0.0
H3576 H 0.45904 0.15436 0.64817 0.0
H3577 H 0.47607 0.19563 0.64734 0.0
H3578 H 0.4628 0.20468 0.68151 0.0
H3579 H 0.44594 0.16352 0.68243 0.0
H3580 H 0.45005 0.2422 0.65551 0.0
H3581 H 0.53816 0.21996 0.67537 0.0
H3582 H 0.51998 0.19736 0.66845 0.0
H3583 H 0.51111 0.20794 0.68162 0.0
C3584 C 0.45991 0.16509 0.65551 0.0
C3585 C 0.45116 0.15569 0.66537 0.0
C3586 C 0.46949 0.18867 0.65501 0.0
C3587 C 0.47075 0.20304 0.66438 0.0
C3588 C 0.46204 0.19376 0.67421 0.0
H3589 H 0.52535 0.34119 0.6851 0.0
H3590 H 0.50873 0.30024 0.68303 0.0
C3591 C 0.45228 0.17032 0.6747 0.0
C3592 C 0.48111 0.22784 0.66397 0.0
H3593 H 0.52923 0.26165 0.67279 0.0
C3594 C 0.46746 0.24653 0.65918 0.0
C3595 C 0.50376 0.23325 0.66879 0.0
C3596 C 0.51928 0.21361 0.6738 0.0
C3597 C 0.47551 0.2708 0.65946 0.0
C3598 C 0.49805 0.27631 0.66445 0.0
C3599 C 0.51193 0.25742 0.66899 0.0
C3600 C 0.5072 0.3016 0.66553 0.0
C3601 C 0.45937 0.2904 0.6548 0.0
C3602 C 0.51184 0.31604 0.65637 0.0
C3603 C 0.52126 0.33957 0.65755 0.0
C3604 C 0.52654 0.34889 0.66789 0.0
C3605 C 0.52177 0.3344 0.67702 0.0
C3606 C 0.5122 0.31103 0.67585 0.0
H3607 H 0.44032 0.28402 0.65378 0.0
H3608 H 0.45931 0.3068 0.66006 0.0
H3609 H 0.46636 0.29576 0.64672 0.0
H3610 H 0.50864 0.30895 0.64831 0.0
H3611 H 0.52506 0.35019 0.65036 0.0
H3612 H 0.09693 0.22835 0.90072 0.0
H3613 H 0.05611 0.24602 0.90019 0.0
H3614 H 0.04052 0.21526 0.93154 0.0
H3615 H 0.08135 0.1979 0.93226 0.0
H3616 H 0.00385 0.20709 0.91525 0.0
H3617 H 0.03119 0.30428 0.91874 0.0
H3618 H 0.0462 0.28696 0.90833 0.0
H3619 H 0.05132 0.27957 0.92231 0.0
C3620 C 0.08499 0.22557 0.90757 0.0
C3621 C 0.09254 0.21167 0.91654 0.0
C3622 C 0.06163 0.23565 0.90724 0.0
C3623 C 0.04541 0.23207 0.91586 0.0
C3624 C 0.05279 0.21818 0.92479 0.0
H3625 H 0.9117 0.30389 0.93306 0.0
H3626 H 0.95254 0.28661 0.93211 0.0
C3627 C 0.07613 0.20817 0.92516 0.0
C3628 C 0.02059 0.24251 0.91557 0.0
H3629 H 0.98937 0.2962 0.9161 0.0
C3630 C 0.00064 0.22657 0.9154 0.0
C3631 C 0.01656 0.26791 0.91586 0.0
C3632 C 0.03739 0.28576 0.9164 0.0
C3633 C 0.97666 0.23539 0.9155 0.0
C3634 C 0.97262 0.26079 0.9157 0.0
C3635 C 0.99258 0.27673 0.91588 0.0
C3636 C 0.9478 0.27119 0.91613 0.0
C3637 C 0.95583 0.21749 0.91566 0.0
C3638 C 0.93166 0.26838 0.90742 0.0
C3639 C 0.90829 0.27841 0.9079 0.0
C3640 C 0.90065 0.2915 0.9171 0.0
C3641 C 0.91699 0.29425 0.92579 0.0
C3642 C 0.94033 0.28429 0.92529 0.0
H3643 H 0.962 0.19878 0.91767 0.0
H3644 H 0.9418 0.22313 0.92163 0.0
H3645 H 0.94715 0.21701 0.90754 0.0
H3646 H 0.93724 0.25864 0.90021 0.0
H3647 H 0.89641 0.27624 0.90098 0.0
H3648 H 0.9387 0.82904 0.6734 0.0
H3649 H 0.95595 0.78839 0.67218 0.0
H3650 H 0.0168 0.81668 0.65407 0.0
H3651 H 0.00031 0.85782 0.65577 0.0
H3652 H 0.96632 0.75985 0.65518 0.0
H3653 H 0.05102 0.78025 0.67799 0.0
H3654 H 0.0258 0.80121 0.6774 0.0
H3655 H 0.04662 0.79884 0.6662 0.0
C3656 C 0.95592 0.82681 0.66928 0.0
C3657 C 0.96822 0.84692 0.66482 0.0
C3658 C 0.96565 0.80343 0.6685 0.0
C3659 C 0.98788 0.79949 0.66319 0.0
C3660 C -0.00011 0.81933 0.65841 0.0
H3661 H 0.03791 0.65107 0.64855 0.0
H3662 H 0.02267 0.69279 0.64685 0.0
C3663 C 0.99025 0.84285 0.65927 0.0
C3664 C 0.99832 0.77458 0.66282 0.0
H3665 H 0.04733 0.74071 0.67069 0.0
C3666 C 0.98407 0.75565 0.65854 0.0
C3667 C 0.02137 0.7691 0.66733 0.0
C3668 C 0.03703 0.78835 0.67258 0.0
C3669 C 0.99205 0.73138 0.65877 0.0
C3670 C 0.01524 0.72594 0.66314 0.0
C3671 C 0.02963 0.74491 0.66728 0.0
C3672 C 0.02446 0.70061 0.66402 0.0
C3673 C 0.97516 0.71173 0.6547 0.0
C3674 C 0.03113 0.69131 0.67419 0.0
C3675 C 0.04011 0.66763 0.67515 0.0
C3676 C 0.04253 0.6527 0.66597 0.0
C3677 C 0.03585 0.66201 0.65579 0.0
C3678 C 0.0271 0.68583 0.65481 0.0
H3679 H 0.95598 0.71808 0.65436 0.0
H3680 H 0.98065 0.70641 0.64638 0.0
H3681 H 0.97603 0.69532 0.65993 0.0
H3682 H 0.02924 0.70235 0.68141 0.0
H3683 H 0.0449 0.6609 0.6831 0.0
H3684 H 0.10182 0.26865 0.39973 0.0
H3685 H 0.06077 0.25182 0.39833 0.0
H3686 H 0.045 0.27615 0.43077 0.0
H3687 H 0.0861 0.29268 0.43234 0.0
H3688 H 0.0379 0.21636 0.41177 0.0
H3689 H 0.98888 0.3047 0.41233 0.0
H3690 H 0.02109 0.30238 0.40959 0.0
H3691 H 0.01005 0.30061 0.42327 0.0
C3692 C 0.08977 0.27026 0.40662 0.0
C3693 C 0.09734 0.28217 0.41615 0.0
C3694 C 0.06623 0.26074 0.40577 0.0
C3695 C 0.04974 0.26311 0.41437 0.0
C3696 C 0.05729 0.27462 0.42394 0.0
H3697 H 0.91765 0.18662 0.42939 0.0
H3698 H 0.95862 0.20343 0.42846 0.0
C3699 C 0.08081 0.28408 0.42482 0.0
C3700 C 0.02478 0.25309 0.41346 0.0
H3701 H 0.96471 0.26899 0.41428 0.0
C3702 C 0.02189 0.22786 0.41225 0.0
C3703 C 0.00396 0.26819 0.41395 0.0
C3704 C 0.00604 0.2955 0.41476 0.0
C3705 C 0.99866 0.21724 0.41186 0.0
C3706 C 0.97785 0.23224 0.41279 0.0
C3707 C 0.98073 0.25754 0.41365 0.0
C3708 C 0.95297 0.22191 0.41321 0.0
C3709 C 0.99652 0.19005 0.41045 0.0
C3710 C 0.93604 0.2271 0.40503 0.0
C3711 C 0.91253 0.21733 0.40548 0.0
C3712 C 0.90544 0.20236 0.41419 0.0
C3713 C 0.92248 0.19757 0.42244 0.0
C3714 C 0.94596 0.20724 0.42195 0.0
H3715 H 0.01361 0.18197 0.40724 0.0
H3716 H 0.99264 0.18157 0.41842 0.0
H3717 H 0.98135 0.18543 0.40487 0.0
H3718 H 0.94111 0.2385 0.39824 0.0
H3719 H 0.90008 0.22129 0.39893 0.0
H3720 H 0.46523 0.34879 0.15009 0.0
H3721 H 0.48081 0.3075 0.14723 0.0
H3722 H 0.48719 0.29789 0.18179 0.0
H3723 H 0.47126 0.33892 0.18467 0.0
H3724 H 0.52323 0.28626 0.15243 0.0
H3725 H 0.44835 0.23859 0.17357 0.0
H3726 H 0.44677 0.27045 0.1701 0.0
H3727 H 0.46273 0.26077 0.18209 0.0
C3728 C 0.47006 0.33789 0.15707 0.0
C3729 C 0.46683 0.347 0.16762 0.0
C3730 C 0.47887 0.31428 0.15543 0.0
C3731 C 0.48465 0.29938 0.1643 0.0
C3732 C 0.48213 0.30874 0.17483 0.0
H3733 H 0.57752 0.17357 0.16655 0.0
H3734 H 0.55983 0.21416 0.16625 0.0
C3735 C 0.4731 0.33222 0.17647 0.0
C3736 C 0.49372 0.27421 0.16259 0.0
H3737 H 0.48425 0.21518 0.1701 0.0
C3738 C 0.51458 0.27068 0.15621 0.0
C3739 C 0.48213 0.25379 0.16731 0.0
C3740 C 0.45861 0.25603 0.17355 0.0
C3741 C 0.52469 0.24742 0.15477 0.0
C3742 C 0.51402 0.22725 0.16009 0.0
C3743 C 0.49264 0.23066 0.16613 0.0
C3744 C 0.52506 0.20258 0.15982 0.0
C3745 C 0.54658 0.24471 0.14749 0.0
C3746 C 0.51124 0.18235 0.15657 0.0
C3747 C 0.52115 0.15892 0.15697 0.0
C3748 C 0.54513 0.15519 0.16065 0.0
C3749 C 0.55896 0.17558 0.16378 0.0
C3750 C 0.54898 0.19895 0.16345 0.0
H3751 H 0.54738 0.25952 0.14137 0.0
H3752 H 0.56338 0.2458 0.15246 0.0
H3753 H 0.54644 0.22695 0.1432 0.0
H3754 H 0.49265 0.18468 0.15383 0.0
H3755 H 0.50977 0.14374 0.15463 0.0
H3756 H 0.59607 0.77586 0.93554 0.0
H3757 H 0.55457 0.76007 0.93444 0.0
H3758 H 0.55962 0.75869 0.89958 0.0
H3759 H 0.60135 0.77422 0.90066 0.0
H3760 H 0.51552 0.78114 0.92496 0.0
H3761 H 0.53338 0.69137 0.90587 0.0
H3762 H 0.55733 0.70989 0.91155 0.0
H3763 H 0.54516 0.71676 0.89838 0.0
C3764 C 0.58836 0.77212 0.92764 0.0
C3765 C 0.60197 0.77626 0.91819 0.0
C3766 C 0.56468 0.76303 0.92703 0.0
C3767 C 0.55407 0.75792 0.91694 0.0
C3768 C 0.56763 0.76194 0.90746 0.0
H3769 H 0.40512 0.71497 0.90077 0.0
H3770 H 0.44705 0.73022 0.89991 0.0
C3771 C 0.59145 0.77085 0.90808 0.0
C3772 C 0.52844 0.74947 0.91642 0.0
H3773 H 0.49198 0.70286 0.90788 0.0
C3774 C 0.51041 0.764 0.92124 0.0
C3775 C 0.52177 0.72714 0.91152 0.0
C3776 C 0.54043 0.71025 0.90662 0.0
C3777 C 0.48593 0.75678 0.92133 0.0
C3778 C 0.47933 0.73441 0.91652 0.0
C3779 C 0.4972 0.72004 0.91153 0.0
C3780 C 0.45406 0.72525 0.917 0.0
C3781 C 0.46721 0.77308 0.92656 0.0
C3782 C 0.4443 0.71732 0.92688 0.0
C3783 C 0.42046 0.70858 0.92738 0.0
C3784 C 0.40591 0.70771 0.91803 0.0
C3785 C 0.41578 0.71571 0.90813 0.0
C3786 C 0.43973 0.72426 0.90761 0.0
H3787 H 0.4744 0.79168 0.92805 0.0
H3788 H 0.45071 0.77444 0.9214 0.0
H3789 H 0.46167 0.76515 0.93445 0.0
H3790 H 0.45518 0.71784 0.93419 0.0
H3791 H 0.41332 0.70276 0.93513 0.0
H3792 H 0.95691 0.16674 0.81654 0.0
H3793 H 0.97275 0.20786 0.81899 0.0
H3794 H 0.9774 0.19593 0.85345 0.0
H3795 H 0.96168 0.1545 0.85102 0.0
H3796 H 0.95264 0.2451 0.83065 0.0
H3797 H 0.04469 0.22259 0.8465 0.0
H3798 H 0.02529 0.20013 0.84023 0.0
H3799 H 0.01972 0.20969 0.85392 0.0
C3800 C 0.96127 0.17285 0.82464 0.0
C3801 C 0.95799 0.15739 0.83359 0.0
C3802 C 0.9704 0.19633 0.82603 0.0
C3803 C 0.97647 0.20492 0.83638 0.0
C3804 C 0.97332 0.18953 0.84536 0.0
H3805 H 0.0305 0.35174 0.85232 0.0
H3806 H 0.01246 0.31101 0.85416 0.0
C3807 C 0.96431 0.16588 0.84396 0.0
C3808 C 0.98533 0.23026 0.83767 0.0
H3809 H 0.03467 0.26427 0.84512 0.0
C3810 C 0.97053 0.24928 0.83388 0.0
C3811 C 0.00863 0.23571 0.84193 0.0
C3812 C 0.02564 0.21599 0.84581 0.0
C3813 C 0.9786 0.27349 0.83399 0.0
C3814 C 0.00211 0.27881 0.83795 0.0
C3815 C 0.01662 0.26002 0.84211 0.0
C3816 C 0.01263 0.30349 0.83697 0.0
C3817 C 0.9621 0.29322 0.82972 0.0
C3818 C 0.01874 0.31255 0.82672 0.0
C3819 C 0.02908 0.33562 0.82565 0.0
C3820 C 0.03343 0.35013 0.83483 0.0
C3821 C 0.02713 0.34106 0.84511 0.0
C3822 C 0.01698 0.31781 0.84618 0.0
H3823 H 0.94286 0.28707 0.82923 0.0
H3824 H 0.96306 0.30967 0.83493 0.0
H3825 H 0.96811 0.29844 0.82146 0.0
H3826 H 0.01564 0.30166 0.81953 0.0
H3827 H 0.03347 0.34219 0.81763 0.0
H3828 H 0.59906 0.21067 0.60139 0.0
H3829 H 0.55683 0.2248 0.60315 0.0
H3830 H 0.54776 0.21928 0.56855 0.0
H3831 H 0.5896 0.20508 0.56676 0.0
H3832 H 0.53294 0.26437 0.59449 0.0
H3833 H 0.49101 0.17922 0.5795 0.0
H3834 H 0.52264 0.18104 0.58336 0.0
H3835 H 0.51299 0.19114 0.57017 0.0
C3836 C 0.58806 0.21259 0.59417 0.0
C3837 C 0.59754 0.20642 0.58395 0.0
C3838 C 0.56393 0.22056 0.59519 0.0
C3839 C 0.54895 0.22247 0.58601 0.0
C3840 C 0.55871 0.21717 0.57578 0.0
H3841 H 0.41235 0.28112 0.56665 0.0
H3842 H 0.45357 0.26484 0.5687 0.0
C3843 C 0.58266 0.2091 0.57477 0.0
C3844 C 0.5232 0.23035 0.58698 0.0
H3845 H 0.46536 0.21463 0.57959 0.0
C3846 C 0.51811 0.25335 0.5914 0.0
C3847 C 0.50383 0.21586 0.58301 0.0
C3848 C 0.50784 0.19034 0.57885 0.0
C3849 C 0.4943 0.2627 0.59145 0.0
C3850 C 0.47523 0.24868 0.58698 0.0
C3851 C 0.48014 0.22538 0.58292 0.0
C3852 C 0.45026 0.25842 0.58591 0.0
C3853 C 0.4897 0.28786 0.59588 0.0
C3854 C 0.43476 0.25992 0.59491 0.0
C3855 C 0.41115 0.26912 0.59375 0.0
C3856 C 0.40276 0.27711 0.58359 0.0
C3857 C 0.41838 0.2754 0.5746 0.0
C3858 C 0.44186 0.26602 0.57574 0.0
H3859 H 0.50678 0.29714 0.59837 0.0
H3860 H 0.48035 0.29918 0.5897 0.0
H3861 H 0.47749 0.28661 0.60303 0.0
H3862 H 0.44096 0.254 0.60281 0.0
H3863 H 0.39964 0.27043 0.60084 0.0
H3864 H 0.53771 0.83945 0.31472 0.0
H3865 H 0.52214 0.79809 0.31676 0.0
H3866 H 0.51994 0.80744 0.35144 0.0
H3867 H 0.53525 0.84911 0.34941 0.0
H3868 H 0.54255 0.76001 0.32723 0.0
H3869 H 0.45249 0.78118 0.34541 0.0
H3870 H 0.47144 0.80422 0.3393 0.0
H3871 H 0.47798 0.79336 0.35272 0.0
C3872 C 0.53393 0.83271 0.32278 0.0
C3873 C 0.53773 0.84753 0.33191 0.0
C3874 C 0.52496 0.80909 0.32394 0.0
C3875 C 0.5196 0.79973 0.33424 0.0
C3876 C 0.52339 0.81445 0.34339 0.0
H3877 H 0.47196 0.65226 0.35152 0.0
H3878 H 0.48892 0.69356 0.35237 0.0
C3879 C 0.5322 0.83823 0.34223 0.0
C3880 C 0.51083 0.77428 0.33529 0.0
H3881 H 0.46298 0.73952 0.34388 0.0
C3882 C 0.52517 0.75556 0.33089 0.0
C3883 C 0.48816 0.76847 0.3401 0.0
C3884 C 0.47149 0.78785 0.34457 0.0
C3885 C 0.51734 0.73126 0.33105 0.0
C3886 C 0.49458 0.72554 0.3357 0.0
C3887 C 0.48047 0.74407 0.34035 0.0
C3888 C 0.48458 0.70058 0.33525 0.0
C3889 C 0.53335 0.71181 0.32618 0.0
C3890 C 0.47647 0.69103 0.32535 0.0
C3891 C 0.46674 0.66758 0.32485 0.0
C3892 C 0.46504 0.65319 0.33423 0.0
C3893 C 0.4733 0.6628 0.34414 0.0
C3894 C 0.48283 0.6864 0.34465 0.0
H3895 H 0.55221 0.71841 0.32479 0.0
H3896 H 0.53401 0.69559 0.33154 0.0
H3897 H 0.52562 0.70603 0.31829 0.0
H3898 H 0.47758 0.70181 0.31802 0.0
H3899 H 0.46075 0.66061 0.3171 0.0
H3900 H 0.88773 0.74705 0.0916 0.0
H3901 H 0.92799 0.72831 0.09399 0.0
H3902 H 0.96149 0.79918 0.09209 0.0
H3903 H 0.92153 0.81788 0.08989 0.0
H3904 H 0.96513 0.73094 0.07884 0.0
H3905 H 0.99661 0.76878 0.11792 0.0
H3906 H 0.96494 0.76852 0.11398 0.0
H3907 H 0.98503 0.7919 0.10905 0.0
C3908 C 0.90367 0.75862 0.09194 0.0
C3909 C 0.90151 0.78392 0.0905 0.0
C3910 C 0.92663 0.74791 0.09327 0.0
C3911 C 0.94773 0.76238 0.09337 0.0
C3912 C 0.94547 0.78769 0.09227 0.0
H3913 H 0.09087 0.74383 0.07023 0.0
H3914 H 0.04782 0.75087 0.07372 0.0
C3915 C 0.92263 0.79834 0.09087 0.0
C3916 C 0.9723 0.75116 0.09345 0.0
H3917 H 0.02799 0.75513 0.10562 0.0
C3918 C 0.97876 0.73585 0.08482 0.0
C3919 C 0.99 0.75726 0.10132 0.0
C3920 C 0.98375 0.77231 0.11115 0.0
C3921 C 0.0028 0.7278 0.08345 0.0
C3922 C 0.02092 0.73558 0.09082 0.0
C3923 C 0.01416 0.74951 0.09987 0.0
C3924 C 0.04714 0.73092 0.08882 0.0
C3925 C 0.00868 0.71144 0.07399 0.0
C3926 C 0.06129 0.71792 0.0963 0.0
C3927 C 0.08606 0.71379 0.09432 0.0
C3928 C 0.09716 0.72277 0.08484 0.0
C3929 C 0.08291 0.73615 0.07748 0.0
C3930 C 0.05824 0.74022 0.07947 0.0
H3931 H 0.99237 0.70121 0.07124 0.0
H3932 H 0.01513 0.72271 0.06711 0.0
H3933 H 0.02323 0.69824 0.0761 0.0
H3934 H 0.05311 0.71073 0.10362 0.0
H3935 H 0.0964 0.70327 0.10012 0.0
loop_
_geom_bond_atom_site_label_1
_geom_bond_atom_site_label_2
_geom_bond_distance
_geom_bond_site_symmetry_2
_ccdc_geom_bond_type
Co0 N4 2.148 . S
Co0 N10 2.128 . S
Co0 N20 2.194 . S
Co0 O25 2.351 . S
Co0 O26 2.155 . S
Co0 O27 2.096 . S
C1 N4 1.301 . S
C1 N5 1.328 . S
C1 H6 0.930 . S
C2 C3 1.333 . S
C2 N4 1.317 . S
C2 H7 0.930 . S
C3 C2 1.333 . S
C3 N5 1.350 . S
C3 H29 0.931 1_545 S
N4 Co0 2.148 . S
N4 C1 1.301 . S
N4 C2 1.317 . S
N5 C1 1.328 . S
N5 C3 1.350 . S
H6 C1 0.930 . S
H7 C2 0.930 . S
C8 O9 1.224 . S
C8 O27 1.247 . S
O9 C8 1.224 . S
N10 Co0 2.128 . S
N10 C11 1.355 . S
N10 C13 1.311 . S
C11 N10 1.355 . S
C11 C12 1.363 . S
C11 H23 0.929 . S
C12 C11 1.363 . S
C12 N14 1.375 . S
C12 H30 0.931 . S
C13 N10 1.311 . S
C13 N14 1.347 . S
C13 H24 0.929 . S
N14 C12 1.375 . S
N14 C13 1.347 . S
C15 C18 1.365 . S
C15 N20 1.328 . S
C15 H21 0.929 . S
C16 C17 1.362 . S
C16 C19 1.378 . S
C16 H31 0.929 . S
C17 C16 1.362 . S
C17 C18 1.366 . S
C18 C15 1.365 . S
C18 C17 1.366 . S
C18 H32 0.930 . S
C19 C16 1.378 . S
C19 N20 1.315 . S
C19 H22 0.930 . S
N20 Co0 2.194 . S
N20 C15 1.328 . S
N20 C19 1.315 . S
H21 C15 0.929 . S
H22 C19 0.930 . S
H23 C11 0.929 . S
H24 C13 0.929 . S
O25 Co0 2.351 . S
O25 C28 1.244 . S
O26 Co0 2.155 . S
O26 C28 1.240 . S
O27 Co0 2.096 . S
O27 C8 1.247 . S
C28 O25 1.244 . S
C28 O26 1.240 . S
H29 C3 0.931 1_565 S
H30 C12 0.931 . S
H31 C16 0.929 . S
H32 C18 0.930 . S
Co33 N37 2.148 . S
Co33 N43 2.128 . S
Co33 N53 2.194 . S
Co33 O58 2.351 . S
Co33 O59 2.155 . S
Co33 O60 2.096 . S
C34 N37 1.301 . S
C34 N38 1.328 . S
C34 H39 0.930 . S
C35 C36 1.333 . S
C35 N37 1.317 . S
C35 H40 0.930 . S
C36 C35 1.333 . S
C36 N38 1.350 . S
C36 H62 0.931 . S
N37 Co33 2.148 . S
N37 C34 1.301 . S
N37 C35 1.317 . S
N38 C34 1.328 . S
N38 C36 1.350 . S
H39 C34 0.930 . S
H40 C35 0.930 . S
C41 O42 1.224 . S
C41 O60 1.247 . S
O42 C41 1.224 . S
N43 Co33 2.128 . S
N43 C44 1.355 . S
N43 C46 1.311 . S
C44 N43 1.355 . S
C44 C45 1.363 . S
C44 H56 0.929 . S
C45 C44 1.363 . S
C45 N47 1.375 . S
C45 H63 0.931 . S
C46 N43 1.311 . S
C46 N47 1.347 . S
C46 H57 0.929 . S
N47 C45 1.375 . S
N47 C46 1.347 . S
C48 C51 1.365 . S
C48 N53 1.328 . S
C48 H54 0.929 . S
C49 C50 1.362 . S
C49 C52 1.378 . S
C49 H64 0.929 . S
C50 C49 1.362 . S
C50 C51 1.366 . S
C51 C48 1.365 . S
C51 C50 1.366 . S
C51 H65 0.930 . S
C52 C49 1.378 . S
C52 N53 1.315 . S
C52 H55 0.930 . S
N53 Co33 2.194 . S
N53 C48 1.328 . S
N53 C52 1.315 . S
H54 C48 0.929 . S
H55 C52 0.930 . S
H56 C44 0.929 . S
H57 C46 0.929 . S
O58 Co33 2.351 . S
O58 C61 1.244 . S
O59 Co33 2.155 . S
O59 C61 1.240 . S
O60 Co33 2.096 . S
O60 C41 1.247 . S
C61 O58 1.244 . S
C61 O59 1.240 . S
H62 C36 0.931 . S
H63 C45 0.931 . S
H64 C49 0.929 . S
H65 C51 0.930 . S
Co66 N70 2.148 . S
Co66 N76 2.128 . S
Co66 N86 2.194 . S
Co66 O91 2.351 . S
Co66 O92 2.155 . S
Co66 O93 2.096 . S
C67 N70 1.301 . S
C67 N71 1.328 . S
C67 H72 0.930 . S
C68 C69 1.333 . S
C68 N70 1.317 . S
C68 H73 0.930 . S
C69 C68 1.333 . S
C69 N71 1.350 . S
C69 H95 0.931 1_565 S
N70 Co66 2.148 . S
N70 C67 1.301 . S
N70 C68 1.317 . S
N71 C67 1.328 . S
N71 C69 1.350 . S
H72 C67 0.930 . S
H73 C68 0.930 . S
C74 O75 1.224 . S
C74 O93 1.247 . S
O75 C74 1.224 . S
N76 Co66 2.128 . S
N76 C77 1.355 . S
N76 C79 1.311 . S
C77 N76 1.355 . S
C77 C78 1.363 . S
C77 H89 0.929 . S
C78 C77 1.363 . S
C78 N80 1.375 . S
C78 H96 0.931 . S
C79 N76 1.311 . S
C79 N80 1.347 . S
C79 H90 0.929 . S
N80 C78 1.375 . S
N80 C79 1.347 . S
C81 C84 1.365 . S
C81 N86 1.328 . S
C81 H87 0.929 . S
C82 C83 1.362 . S
C82 C85 1.378 . S
C82 H97 0.929 . S
C83 C82 1.362 . S
C83 C84 1.366 . S
C84 C81 1.365 . S
C84 C83 1.366 . S
C84 H98 0.930 . S
C85 C82 1.378 . S
C85 N86 1.315 . S
C85 H88 0.930 . S
N86 Co66 2.194 . S
N86 C81 1.328 . S
N86 C85 1.315 . S
H87 C81 0.929 . S
H88 C85 0.930 . S
H89 C77 0.929 . S
H90 C79 0.929 . S
O91 Co66 2.351 . S
O91 C94 1.244 . S
O92 Co66 2.155 . S
O92 C94 1.240 . S
O93 Co66 2.096 . S
O93 C74 1.247 . S
C94 O91 1.244 . S
C94 O92 1.240 . S
H95 C69 0.931 1_545 S
H96 C78 0.931 . S
H97 C82 0.929 . S
H98 C84 0.930 . S
Co99 N103 2.148 . S
Co99 N109 2.128 . S
Co99 N119 2.194 . S
Co99 O124 2.351 . S
Co99 O125 2.155 . S
Co99 O126 2.096 . S
C100 N103 1.301 . S
C100 N104 1.328 . S
C100 H105 0.930 . S
C101 C102 1.333 . S
C101 N103 1.317 . S
C101 H106 0.930 . S
C102 C101 1.333 . S
C102 N104 1.350 . S
C102 H128 0.931 . S
N103 Co99 2.148 . S
N103 C100 1.301 . S
N103 C101 1.317 . S
N104 C100 1.328 . S
N104 C102 1.350 . S
H105 C100 0.930 . S
H106 C101 0.930 . S
C107 O108 1.224 . S
C107 O126 1.247 . S
O108 C107 1.224 . S
N109 Co99 2.128 . S
N109 C110 1.355 . S
N109 C112 1.311 . S
C110 N109 1.355 . S
C110 C111 1.363 . S
C110 H122 0.929 . S
C111 C110 1.363 . S
C111 N113 1.375 . S
C111 H129 0.931 . S
C112 N109 1.311 . S
C112 N113 1.347 . S
C112 H123 0.929 . S
N113 C111 1.375 . S
N113 C112 1.347 . S
C114 C117 1.365 . S
C114 N119 1.328 . S
C114 H120 0.929 . S
C115 C116 1.362 . S
C115 C118 1.378 . S
C115 H130 0.929 . S
C116 C115 1.362 . S
C116 C117 1.366 . S
C117 C114 1.365 . S
C117 C116 1.366 . S
C117 H131 0.930 . S
C118 C115 1.378 . S
C118 N119 1.315 . S
C118 H121 0.930 . S
N119 Co99 2.194 . S
N119 C114 1.328 . S
N119 C118 1.315 . S
H120 C114 0.929 . S
H121 C118 0.930 . S
H122 C110 0.929 . S
H123 C112 0.929 . S
O124 Co99 2.351 . S
O124 C127 1.244 . S
O125 Co99 2.155 . S
O125 C127 1.240 . S
O126 Co99 2.096 . S
O126 C107 1.247 . S
C127 O124 1.244 . S
C127 O125 1.240 . S
H128 C102 0.931 . S
H129 C111 0.931 . S
H130 C115 0.929 . S
H131 C117 0.930 . S
Co132 N136 2.148 . S
Co132 N142 2.128 . S
Co132 N152 2.194 . S
Co132 O157 2.351 . S
Co132 O158 2.155 . S
Co132 O159 2.096 . S
C133 N136 1.301 . S
C133 N137 1.328 . S
C133 H138 0.930 . S
C134 C135 1.333 . S
C134 N136 1.317 . S
C134 H139 0.930 . S
C135 C134 1.333 . S
C135 N137 1.350 . S
C135 H161 0.931 1_565 S
N136 Co132 2.148 . S
N136 C133 1.301 . S
N136 C134 1.317 . S
N137 C133 1.328 . S
N137 C135 1.350 . S
H138 C133 0.930 . S
H139 C134 0.930 . S
C140 O141 1.224 . S
C140 O159 1.247 . S
O141 C140 1.224 . S
N142 Co132 2.128 . S
N142 C143 1.355 . S
N142 C145 1.311 . S
C143 N142 1.355 . S
C143 C144 1.363 . S
C143 H155 0.929 . S
C144 C143 1.363 . S
C144 N146 1.375 . S
C144 H162 0.931 . S
C145 N142 1.311 . S
C145 N146 1.347 . S
C145 H156 0.929 . S
N146 C144 1.375 . S
N146 C145 1.347 . S
C147 C150 1.365 . S
C147 N152 1.328 . S
C147 H153 0.929 . S
C148 C149 1.362 . S
C148 C151 1.378 . S
C148 H163 0.929 . S
C149 C148 1.362 . S
C149 C150 1.366 . S
C150 C147 1.365 . S
C150 C149 1.366 . S
C150 H164 0.930 . S
C151 C148 1.378 . S
C151 N152 1.315 . S
C151 H154 0.930 . S
N152 Co132 2.194 . S
N152 C147 1.328 . S
N152 C151 1.315 . S
H153 C147 0.929 . S
H154 C151 0.930 . S
H155 C143 0.929 . S
H156 C145 0.929 . S
O157 Co132 2.351 . S
O157 C160 1.244 . S
O158 Co132 2.155 . S
O158 C160 1.240 . S
O159 Co132 2.096 . S
O159 C140 1.247 . S
C160 O157 1.244 . S
C160 O158 1.240 . S
H161 C135 0.931 1_545 S
H162 C144 0.931 . S
H163 C148 0.929 . S
H164 C150 0.930 . S
Co165 N169 2.148 . S
Co165 N175 2.128 . S
Co165 N185 2.194 . S
Co165 O190 2.351 . S
Co165 O191 2.155 . S
Co165 O192 2.096 . S
C166 N169 1.301 . S
C166 N170 1.328 . S
C166 H171 0.930 . S
C167 C168 1.333 . S
C167 N169 1.317 . S
C167 H172 0.930 . S
C168 C167 1.333 . S
C168 N170 1.350 . S
C168 H194 0.931 . S
N169 Co165 2.148 . S
N169 C166 1.301 . S
N169 C167 1.317 . S
N170 C166 1.328 . S
N170 C168 1.350 . S
H171 C166 0.930 . S
H172 C167 0.930 . S
C173 O174 1.224 . S
C173 O192 1.247 . S
O174 C173 1.224 . S
N175 Co165 2.128 . S
N175 C176 1.355 . S
N175 C178 1.311 . S
C176 N175 1.355 . S
C176 C177 1.363 . S
C176 H188 0.929 . S
C177 C176 1.363 . S
C177 N179 1.375 . S
C177 H195 0.931 . S
C178 N175 1.311 . S
C178 N179 1.347 . S
C178 H189 0.929 . S
N179 C177 1.375 . S
N179 C178 1.347 . S
C180 C183 1.365 . S
C180 N185 1.328 . S
C180 H186 0.929 . S
C181 C182 1.362 . S
C181 C184 1.378 . S
C181 H196 0.929 . S
C182 C181 1.362 . S
C182 C183 1.366 . S
C183 C180 1.365 . S
C183 C182 1.366 . S
C183 H197 0.930 . S
C184 C181 1.378 . S
C184 N185 1.315 . S
C184 H187 0.930 . S
N185 Co165 2.194 . S
N185 C180 1.328 . S
N185 C184 1.315 . S
H186 C180 0.929 . S
H187 C184 0.930 . S
H188 C176 0.929 . S
H189 C178 0.929 . S
O190 Co165 2.351 . S
O190 C193 1.244 . S
O191 Co165 2.155 . S
O191 C193 1.240 . S
O192 Co165 2.096 . S
O192 C173 1.247 . S
C193 O190 1.244 . S
C193 O191 1.240 . S
H194 C168 0.931 . S
H195 C177 0.931 . S
H196 C181 0.929 . S
H197 C183 0.930 . S
Co198 N202 2.148 . S
Co198 N208 2.128 . S
Co198 N218 2.194 . S
Co198 O223 2.351 . S
Co198 O224 2.155 . S
Co198 O225 2.096 . S
C199 N202 1.301 . S
C199 N203 1.328 . S
C199 H204 0.930 . S
C200 C201 1.333 . S
C200 N202 1.317 . S
C200 H205 0.930 . S
C201 C200 1.333 . S
C201 N203 1.350 . S
C201 H227 0.931 1_545 S
N202 Co198 2.148 . S
N202 C199 1.301 . S
N202 C200 1.317 . S
N203 C199 1.328 . S
N203 C201 1.350 . S
H204 C199 0.930 . S
H205 C200 0.930 . S
C206 O207 1.224 . S
C206 O225 1.247 . S
O207 C206 1.224 . S
N208 Co198 2.128 . S
N208 C209 1.355 . S
N208 C211 1.311 . S
C209 N208 1.355 . S
C209 C210 1.363 . S
C209 H221 0.929 . S
C210 C209 1.363 . S
C210 N212 1.375 . S
C210 H228 0.931 . S
C211 N208 1.311 . S
C211 N212 1.347 . S
C211 H222 0.929 . S
N212 C210 1.375 . S
N212 C211 1.347 . S
C213 C216 1.365 . S
C213 N218 1.328 . S
C213 H219 0.929 . S
C214 C215 1.362 . S
C214 C217 1.378 . S
C214 H229 0.929 . S
C215 C214 1.362 . S
C215 C216 1.366 . S
C216 C213 1.365 . S
C216 C215 1.366 . S
C216 H230 0.930 . S
C217 C214 1.378 . S
C217 N218 1.315 . S
C217 H220 0.930 . S
N218 Co198 2.194 . S
N218 C213 1.328 . S
N218 C217 1.315 . S
H219 C213 0.929 . S
H220 C217 0.930 . S
H221 C209 0.929 . S
H222 C211 0.929 . S
O223 Co198 2.351 . S
O223 C226 1.244 . S
O224 Co198 2.155 . S
O224 C226 1.240 . S
O225 Co198 2.096 . S
O225 C206 1.247 . S
C226 O223 1.244 . S
C226 O224 1.240 . S
H227 C201 0.931 1_565 S
H228 C210 0.931 . S
H229 C214 0.929 . S
H230 C216 0.930 . S
Co231 N235 2.148 . S
Co231 N241 2.128 . S
Co231 N251 2.194 . S
Co231 O256 2.351 . S
Co231 O257 2.155 . S
Co231 O258 2.096 . S
C232 N235 1.301 . S
C232 N236 1.328 . S
C232 H237 0.930 . S
C233 C234 1.333 . S
C233 N235 1.317 . S
C233 H238 0.930 . S
C234 C233 1.333 . S
C234 N236 1.350 . S
C234 H260 0.931 . S
N235 Co231 2.148 . S
N235 C232 1.301 . S
N235 C233 1.317 . S
N236 C232 1.328 . S
N236 C234 1.350 . S
H237 C232 0.930 . S
H238 C233 0.930 . S
C239 O240 1.224 . S
C239 O258 1.247 . S
O240 C239 1.224 . S
N241 Co231 2.128 . S
N241 C242 1.355 . S
N241 C244 1.311 . S
C242 N241 1.355 . S
C242 C243 1.363 . S
C242 H254 0.929 . S
C243 C242 1.363 . S
C243 N245 1.375 . S
C243 H261 0.931 . S
C244 N241 1.311 . S
C244 N245 1.347 . S
C244 H255 0.929 . S
N245 C243 1.375 . S
N245 C244 1.347 . S
C246 C249 1.365 . S
C246 N251 1.328 . S
C246 H252 0.929 . S
C247 C248 1.362 . S
C247 C250 1.378 . S
C247 H262 0.929 . S
C248 C247 1.362 . S
C248 C249 1.366 . S
C249 C246 1.365 . S
C249 C248 1.366 . S
C249 H263 0.930 . S
C250 C247 1.378 . S
C250 N251 1.315 . S
C250 H253 0.930 . S
N251 Co231 2.194 . S
N251 C246 1.328 . S
N251 C250 1.315 . S
H252 C246 0.929 . S
H253 C250 0.930 . S
H254 C242 0.929 . S
H255 C244 0.929 . S
O256 Co231 2.351 . S
O256 C259 1.244 . S
O257 Co231 2.155 . S
O257 C259 1.240 . S
O258 Co231 2.096 . S
O258 C239 1.247 . S
C259 O256 1.244 . S
C259 O257 1.240 . S
H260 C234 0.931 . S
H261 C243 0.931 . S
H262 C247 0.929 . S
H263 C249 0.930 . S
Co264 N268 2.148 . S
Co264 N274 2.128 . S
Co264 N284 2.194 . S
Co264 O289 2.351 . S
Co264 O290 2.155 . S
Co264 O291 2.096 . S
C265 N268 1.301 . S
C265 N269 1.328 . S
C265 H270 0.930 . S
C266 C267 1.333 . S
C266 N268 1.317 . S
C266 H271 0.930 . S
C267 C266 1.333 . S
C267 N269 1.350 . S
C267 H293 0.931 1_565 S
N268 Co264 2.148 . S
N268 C265 1.301 . S
N268 C266 1.317 . S
N269 C265 1.328 . S
N269 C267 1.350 . S
H270 C265 0.930 . S
H271 C266 0.930 . S
C272 O273 1.224 . S
C272 O291 1.247 . S
O273 C272 1.224 . S
N274 Co264 2.128 . S
N274 C275 1.355 . S
N274 C277 1.311 . S
C275 N274 1.355 . S
C275 C276 1.363 . S
C275 H287 0.929 . S
C276 C275 1.363 . S
C276 N278 1.375 . S
C276 H294 0.931 . S
C277 N274 1.311 . S
C277 N278 1.347 . S
C277 H288 0.929 . S
N278 C276 1.375 . S
N278 C277 1.347 . S
C279 C282 1.365 . S
C279 N284 1.328 . S
C279 H285 0.929 . S
C280 C281 1.362 . S
C280 C283 1.378 . S
C280 H295 0.929 . S
C281 C280 1.362 . S
C281 C282 1.366 . S
C282 C279 1.365 . S
C282 C281 1.366 . S
C282 H296 0.930 . S
C283 C280 1.378 . S
C283 N284 1.315 . S
C283 H286 0.930 . S
N284 Co264 2.194 . S
N284 C279 1.328 . S
N284 C283 1.315 . S
H285 C279 0.929 . S
H286 C283 0.930 . S
H287 C275 0.929 . S
H288 C277 0.929 . S
O289 Co264 2.351 . S
O289 C292 1.244 . S
O290 Co264 2.155 . S
O290 C292 1.240 . S
O291 Co264 2.096 . S
O291 C272 1.247 . S
C292 O289 1.244 . S
C292 O290 1.240 . S
H293 C267 0.931 1_545 S
H294 C276 0.931 . S
H295 C280 0.929 . S
H296 C282 0.930 . S
Co297 N301 2.148 . S
Co297 N307 2.128 . S
Co297 N317 2.194 . S
Co297 O322 2.351 . S
Co297 O323 2.155 . S
Co297 O324 2.096 . S
C298 N301 1.301 . S
C298 N302 1.328 . S
C298 H303 0.930 . S
C299 C300 1.333 . S
C299 N301 1.317 . S
C299 H304 0.930 . S
C300 C299 1.333 . S
C300 N302 1.350 . S
C300 H326 0.931 . S
N301 Co297 2.148 . S
N301 C298 1.301 . S
N301 C299 1.317 . S
N302 C298 1.328 . S
N302 C300 1.350 . S
H303 C298 0.930 . S
H304 C299 0.930 . S
C305 O306 1.224 . S
C305 O324 1.247 . S
O306 C305 1.224 . S
N307 Co297 2.128 . S
N307 C308 1.355 . S
N307 C310 1.311 . S
C308 N307 1.355 . S
C308 C309 1.363 . S
C308 H320 0.929 . S
C309 C308 1.363 . S
C309 N311 1.375 . S
C309 H327 0.931 . S
C310 N307 1.311 . S
C310 N311 1.347 . S
C310 H321 0.929 . S
N311 C309 1.375 . S
N311 C310 1.347 . S
C312 C315 1.365 . S
C312 N317 1.328 . S
C312 H318 0.929 . S
C313 C314 1.362 . S
C313 C316 1.378 . S
C313 H328 0.929 . S
C314 C313 1.362 . S
C314 C315 1.366 . S
C315 C312 1.365 . S
C315 C314 1.366 . S
C315 H329 0.930 . S
C316 C313 1.378 . S
C316 N317 1.315 . S
C316 H319 0.930 . S
N317 Co297 2.194 . S
N317 C312 1.328 . S
N317 C316 1.315 . S
H318 C312 0.929 . S
H319 C316 0.930 . S
H320 C308 0.929 . S
H321 C310 0.929 . S
O322 Co297 2.351 . S
O322 C325 1.244 . S
O323 Co297 2.155 . S
O323 C325 1.240 . S
O324 Co297 2.096 . S
O324 C305 1.247 . S
C325 O322 1.244 . S
C325 O323 1.240 . S
H326 C300 0.931 . S
H327 C309 0.931 . S
H328 C313 0.929 . S
H329 C315 0.930 . S
Co330 N334 2.148 . S
Co330 N340 2.128 . S
Co330 N350 2.194 . S
Co330 O355 2.351 . S
Co330 O356 2.155 . S
Co330 O357 2.096 . S
C331 N334 1.301 . S
C331 N335 1.328 . S
C331 H336 0.930 . S
C332 C333 1.333 . S
C332 N334 1.317 . S
C332 H337 0.930 . S
C333 C332 1.333 . S
C333 N335 1.350 . S
C333 H359 0.931 1_545 S
N334 Co330 2.148 . S
N334 C331 1.301 . S
N334 C332 1.317 . S
N335 C331 1.328 . S
N335 C333 1.350 . S
H336 C331 0.930 . S
H337 C332 0.930 . S
C338 O339 1.224 . S
C338 O357 1.247 . S
O339 C338 1.224 . S
N340 Co330 2.128 . S
N340 C341 1.355 . S
N340 C343 1.311 . S
C341 N340 1.355 . S
C341 C342 1.363 . S
C341 H353 0.929 . S
C342 C341 1.363 . S
C342 N344 1.375 . S
C342 H360 0.931 . S
C343 N340 1.311 . S
C343 N344 1.347 . S
C343 H354 0.929 . S
N344 C342 1.375 . S
N344 C343 1.347 . S
C345 C348 1.365 . S
C345 N350 1.328 . S
C345 H351 0.929 . S
C346 C347 1.362 . S
C346 C349 1.378 . S
C346 H361 0.929 . S
C347 C346 1.362 . S
C347 C348 1.366 . S
C348 C345 1.365 . S
C348 C347 1.366 . S
C348 H362 0.930 . S
C349 C346 1.378 . S
C349 N350 1.315 . S
C349 H352 0.930 . S
N350 Co330 2.194 . S
N350 C345 1.328 . S
N350 C349 1.315 . S
H351 C345 0.929 . S
H352 C349 0.930 . S
H353 C341 0.929 . S
H354 C343 0.929 . S
O355 Co330 2.351 . S
O355 C358 1.244 . S
O356 Co330 2.155 . S
O356 C358 1.240 . S
O357 Co330 2.096 . S
O357 C338 1.247 . S
C358 O355 1.244 . S
C358 O356 1.240 . S
H359 C333 0.931 1_565 S
H360 C342 0.931 . S
H361 C346 0.929 . S
H362 C348 0.930 . S
Co363 N367 2.148 . S
Co363 N373 2.128 . S
Co363 N383 2.194 . S
Co363 O388 2.351 . S
Co363 O389 2.155 . S
Co363 O390 2.096 . S
C364 N367 1.301 . S
C364 N368 1.328 . S
C364 H369 0.930 . S
C365 C366 1.333 . S
C365 N367 1.317 . S
C365 H370 0.930 . S
C366 C365 1.333 . S
C366 N368 1.350 . S
C366 H392 0.931 . S
N367 Co363 2.148 . S
N367 C364 1.301 . S
N367 C365 1.317 . S
N368 C364 1.328 . S
N368 C366 1.350 . S
H369 C364 0.930 . S
H370 C365 0.930 . S
C371 O372 1.224 . S
C371 O390 1.247 . S
O372 C371 1.224 . S
N373 Co363 2.128 . S
N373 C374 1.355 . S
N373 C376 1.311 . S
C374 N373 1.355 . S
C374 C375 1.363 . S
C374 H386 0.929 . S
C375 C374 1.363 . S
C375 N377 1.375 . S
C375 H393 0.931 . S
C376 N373 1.311 . S
C376 N377 1.347 . S
C376 H387 0.929 . S
N377 C375 1.375 . S
N377 C376 1.347 . S
C378 C381 1.365 . S
C378 N383 1.328 . S
C378 H384 0.929 . S
C379 C380 1.362 . S
C379 C382 1.378 . S
C379 H394 0.929 . S
C380 C379 1.362 . S
C380 C381 1.366 . S
C381 C378 1.365 . S
C381 C380 1.366 . S
C381 H395 0.930 . S
C382 C379 1.378 . S
C382 N383 1.315 . S
C382 H385 0.930 . S
N383 Co363 2.194 . S
N383 C378 1.328 . S
N383 C382 1.315 . S
H384 C378 0.929 . S
H385 C382 0.930 . S
H386 C374 0.929 . S
H387 C376 0.929 . S
O388 Co363 2.351 . S
O388 C391 1.244 . S
O389 Co363 2.155 . S
O389 C391 1.240 . S
O390 Co363 2.096 . S
O390 C371 1.247 . S
C391 O388 1.244 . S
C391 O389 1.240 . S
H392 C366 0.931 . S
H393 C375 0.931 . S
H394 C379 0.929 . S
H395 C381 0.930 . S
Co396 N400 2.148 . S
Co396 N406 2.128 . S
Co396 N416 2.194 . S
Co396 O421 2.351 . S
Co396 O422 2.155 . S
Co396 O423 2.096 . S
C397 N400 1.301 . S
C397 N401 1.328 . S
C397 H402 0.930 . S
C398 C399 1.333 . S
C398 N400 1.317 . S
C398 H403 0.930 . S
C399 C398 1.333 . S
C399 N401 1.350 . S
C399 H425 0.931 1_545 S
N400 Co396 2.148 . S
N400 C397 1.301 . S
N400 C398 1.317 . S
N401 C397 1.328 . S
N401 C399 1.350 . S
H402 C397 0.930 . S
H403 C398 0.930 . S
C404 O405 1.224 . S
C404 O423 1.247 . S
O405 C404 1.224 . S
N406 Co396 2.128 . S
N406 C407 1.355 . S
N406 C409 1.311 . S
C407 N406 1.355 . S
C407 C408 1.363 . S
C407 H419 0.929 . S
C408 C407 1.363 . S
C408 N410 1.375 . S
C408 H426 0.931 . S
C409 N406 1.311 . S
C409 N410 1.347 . S
C409 H420 0.929 . S
N410 C408 1.375 . S
N410 C409 1.347 . S
C411 C414 1.365 . S
C411 N416 1.328 . S
C411 H417 0.929 . S
C412 C413 1.362 . S
C412 C415 1.378 . S
C412 H427 0.929 . S
C413 C412 1.362 . S
C413 C414 1.366 . S
C414 C411 1.365 . S
C414 C413 1.366 . S
C414 H428 0.930 . S
C415 C412 1.378 . S
C415 N416 1.315 . S
C415 H418 0.930 . S
N416 Co396 2.194 . S
N416 C411 1.328 . S
N416 C415 1.315 . S
H417 C411 0.929 . S
H418 C415 0.930 . S
H419 C407 0.929 . S
H420 C409 0.929 . S
O421 Co396 2.351 . S
O421 C424 1.244 . S
O422 Co396 2.155 . S
O422 C424 1.240 . S
O423 Co396 2.096 . S
O423 C404 1.247 . S
C424 O421 1.244 . S
C424 O422 1.240 . S
H425 C399 0.931 1_565 S
H426 C408 0.931 . S
H427 C412 0.929 . S
H428 C414 0.930 . S
Co429 N433 2.148 . S
Co429 N439 2.128 . S
Co429 N449 2.194 . S
Co429 O454 2.351 . S
Co429 O455 2.155 . S
Co429 O456 2.096 . S
C430 N433 1.301 . S
C430 N434 1.328 . S
C430 H435 0.930 . S
C431 C432 1.333 . S
C431 N433 1.317 . S
C431 H436 0.930 . S
C432 C431 1.333 . S
C432 N434 1.350 . S
C432 H458 0.931 . S
N433 Co429 2.148 . S
N433 C430 1.301 . S
N433 C431 1.317 . S
N434 C430 1.328 . S
N434 C432 1.350 . S
H435 C430 0.930 . S
H436 C431 0.930 . S
C437 O438 1.224 . S
C437 O456 1.247 . S
O438 C437 1.224 . S
N439 Co429 2.128 . S
N439 C440 1.355 . S
N439 C442 1.311 . S
C440 N439 1.355 . S
C440 C441 1.363 . S
C440 H452 0.929 . S
C441 C440 1.363 . S
C441 N443 1.375 . S
C441 H459 0.931 . S
C442 N439 1.311 . S
C442 N443 1.347 . S
C442 H453 0.929 . S
N443 C441 1.375 . S
N443 C442 1.347 . S
C444 C447 1.365 . S
C444 N449 1.328 . S
C444 H450 0.929 . S
C445 C446 1.362 . S
C445 C448 1.378 . S
C445 H460 0.929 . S
C446 C445 1.362 . S
C446 C447 1.366 . S
C447 C444 1.365 . S
C447 C446 1.366 . S
C447 H461 0.930 . S
C448 C445 1.378 . S
C448 N449 1.315 . S
C448 H451 0.930 . S
N449 Co429 2.194 . S
N449 C444 1.328 . S
N449 C448 1.315 . S
H450 C444 0.929 . S
H451 C448 0.930 . S
H452 C440 0.929 . S
H453 C442 0.929 . S
O454 Co429 2.351 . S
O454 C457 1.244 . S
O455 Co429 2.155 . S
O455 C457 1.240 . S
O456 Co429 2.096 . S
O456 C437 1.247 . S
C457 O454 1.244 . S
C457 O455 1.240 . S
H458 C432 0.931 . S
H459 C441 0.931 . S
H460 C445 0.929 . S
H461 C447 0.930 . S
Co462 N466 2.148 . S
Co462 N472 2.128 . S
Co462 N482 2.194 . S
Co462 O487 2.351 . S
Co462 O488 2.155 . S
Co462 O489 2.096 . S
C463 N466 1.301 . S
C463 N467 1.328 . S
C463 H468 0.930 . S
C464 C465 1.333 . S
C464 N466 1.317 . S
C464 H469 0.930 . S
C465 C464 1.333 . S
C465 N467 1.350 . S
C465 H491 0.931 1_565 S
N466 Co462 2.148 . S
N466 C463 1.301 . S
N466 C464 1.317 . S
N467 C463 1.328 . S
N467 C465 1.350 . S
H468 C463 0.930 . S
H469 C464 0.930 . S
C470 O471 1.224 . S
C470 O489 1.247 . S
O471 C470 1.224 . S
N472 Co462 2.128 . S
N472 C473 1.355 . S
N472 C475 1.311 . S
C473 N472 1.355 . S
C473 C474 1.363 . S
C473 H485 0.929 . S
C474 C473 1.363 . S
C474 N476 1.375 . S
C474 H492 0.931 . S
C475 N472 1.311 . S
C475 N476 1.347 . S
C475 H486 0.929 . S
N476 C474 1.375 . S
N476 C475 1.347 . S
C477 C480 1.365 . S
C477 N482 1.328 . S
C477 H483 0.929 . S
C478 C479 1.362 . S
C478 C481 1.378 . S
C478 H493 0.929 . S
C479 C478 1.362 . S
C479 C480 1.366 . S
C480 C477 1.365 . S
C480 C479 1.366 . S
C480 H494 0.930 . S
C481 C478 1.378 . S
C481 N482 1.315 . S
C481 H484 0.930 . S
N482 Co462 2.194 . S
N482 C477 1.328 . S
N482 C481 1.315 . S
H483 C477 0.929 . S
H484 C481 0.930 . S
H485 C473 0.929 . S
H486 C475 0.929 . S
O487 Co462 2.351 . S
O487 C490 1.244 . S
O488 Co462 2.155 . S
O488 C490 1.240 . S
O489 Co462 2.096 . S
O489 C470 1.247 . S
C490 O487 1.244 . S
C490 O488 1.240 . S
H491 C465 0.931 1_545 S
H492 C474 0.931 . S
H493 C478 0.929 . S
H494 C480 0.930 . S
Co495 N499 2.148 . S
Co495 N505 2.128 . S
Co495 N515 2.194 . S
Co495 O520 2.351 . S
Co495 O521 2.155 . S
Co495 O522 2.096 . S
C496 N499 1.301 . S
C496 N500 1.328 . S
C496 H501 0.930 . S
C497 C498 1.333 . S
C497 N499 1.317 . S
C497 H502 0.930 . S
C498 C497 1.333 . S
C498 N500 1.350 . S
C498 H524 0.931 . S
N499 Co495 2.148 . S
N499 C496 1.301 . S
N499 C497 1.317 . S
N500 C496 1.328 . S
N500 C498 1.350 . S
H501 C496 0.930 . S
H502 C497 0.930 . S
C503 O504 1.224 . S
C503 O522 1.247 . S
O504 C503 1.224 . S
N505 Co495 2.128 . S
N505 C506 1.355 . S
N505 C508 1.311 . S
C506 N505 1.355 . S
C506 C507 1.363 . S
C506 H518 0.929 . S
C507 C506 1.363 . S
C507 N509 1.375 . S
C507 H525 0.931 . S
C508 N505 1.311 . S
C508 N509 1.347 . S
C508 H519 0.929 . S
N509 C507 1.375 . S
N509 C508 1.347 . S
C510 C513 1.365 . S
C510 N515 1.328 . S
C510 H516 0.929 . S
C511 C512 1.362 . S
C511 C514 1.378 . S
C511 H526 0.929 . S
C512 C511 1.362 . S
C512 C513 1.366 . S
C513 C510 1.365 . S
C513 C512 1.366 . S
C513 H527 0.930 . S
C514 C511 1.378 . S
C514 N515 1.315 . S
C514 H517 0.930 . S
N515 Co495 2.194 . S
N515 C510 1.328 . S
N515 C514 1.315 . S
H516 C510 0.929 . S
H517 C514 0.930 . S
H518 C506 0.929 . S
H519 C508 0.929 . S
O520 Co495 2.351 . S
O520 C523 1.244 . S
O521 Co495 2.155 . S
O521 C523 1.240 . S
O522 Co495 2.096 . S
O522 C503 1.247 . S
C523 O520 1.244 . S
C523 O521 1.240 . S
H524 C498 0.931 . S
H525 C507 0.931 . S
H526 C511 0.929 . S
H527 C513 0.930 . S
Co528 N532 2.148 . S
Co528 N538 2.128 . S
Co528 N548 2.194 . S
Co528 O553 2.351 . S
Co528 O554 2.155 . S
Co528 O555 2.096 . S
C529 N532 1.301 . S
C529 N533 1.328 . S
C529 H534 0.930 . S
C530 C531 1.333 . S
C530 N532 1.317 . S
C530 H535 0.930 . S
C531 C530 1.333 . S
C531 N533 1.350 . S
C531 H557 0.931 . S
N532 Co528 2.148 . S
N532 C529 1.301 . S
N532 C530 1.317 . S
N533 C529 1.328 . S
N533 C531 1.350 . S
H534 C529 0.930 . S
H535 C530 0.930 . S
C536 O537 1.224 . S
C536 O555 1.247 . S
O537 C536 1.224 . S
N538 Co528 2.128 . S
N538 C539 1.355 . S
N538 C541 1.311 . S
C539 N538 1.355 . S
C539 C540 1.363 . S
C539 H551 0.929 . S
C540 C539 1.363 . S
C540 N542 1.375 . S
C540 H558 0.931 . S
C541 N538 1.311 . S
C541 N542 1.347 . S
C541 H552 0.929 . S
N542 C540 1.375 . S
N542 C541 1.347 . S
C543 C546 1.365 . S
C543 N548 1.328 . S
C543 H549 0.929 . S
C544 C545 1.362 . S
C544 C547 1.378 . S
C544 H559 0.929 . S
C545 C544 1.362 . S
C545 C546 1.366 . S
C546 C543 1.365 . S
C546 C545 1.366 . S
C546 H560 0.930 . S
C547 C544 1.378 . S
C547 N548 1.315 . S
C547 H550 0.930 . S
N548 Co528 2.194 . S
N548 C543 1.328 . S
N548 C547 1.315 . S
H549 C543 0.929 . S
H550 C547 0.930 . S
H551 C539 0.929 . S
H552 C541 0.929 . S
O553 Co528 2.351 . S
O553 C556 1.244 . S
O554 Co528 2.155 . S
O554 C556 1.240 . S
O555 Co528 2.096 . S
O555 C536 1.247 . S
C556 O553 1.244 . S
C556 O554 1.240 . S
H557 C531 0.931 . S
H558 C540 0.931 . S
H559 C544 0.929 . S
H560 C546 0.930 . S
Co561 N565 2.148 . S
Co561 N571 2.128 . S
Co561 N581 2.194 . S
Co561 O586 2.351 . S
Co561 O587 2.155 . S
Co561 O588 2.096 . S
C562 N565 1.301 . S
C562 N566 1.328 . S
C562 H567 0.930 . S
C563 C564 1.333 . S
C563 N565 1.317 . S
C563 H568 0.930 . S
C564 C563 1.333 . S
C564 N566 1.350 . S
C564 H590 0.931 . S
N565 Co561 2.148 . S
N565 C562 1.301 . S
N565 C563 1.317 . S
N566 C562 1.328 . S
N566 C564 1.350 . S
H567 C562 0.930 . S
H568 C563 0.930 . S
C569 O570 1.224 . S
C569 O588 1.247 . S
O570 C569 1.224 . S
N571 Co561 2.128 . S
N571 C572 1.355 . S
N571 C574 1.311 . S
C572 N571 1.355 . S
C572 C573 1.363 . S
C572 H584 0.929 . S
C573 C572 1.363 . S
C573 N575 1.375 . S
C573 H591 0.931 . S
C574 N571 1.311 . S
C574 N575 1.347 . S
C574 H585 0.929 . S
N575 C573 1.375 . S
N575 C574 1.347 . S
C576 C579 1.365 . S
C576 N581 1.328 . S
C576 H582 0.929 . S
C577 C578 1.362 . S
C577 C580 1.378 . S
C577 H592 0.929 . S
C578 C577 1.362 . S
C578 C579 1.366 . S
C579 C576 1.365 . S
C579 C578 1.366 . S
C579 H593 0.930 . S
C580 C577 1.378 . S
C580 N581 1.315 . S
C580 H583 0.930 . S
N581 Co561 2.194 . S
N581 C576 1.328 . S
N581 C580 1.315 . S
H582 C576 0.929 . S
H583 C580 0.930 . S
H584 C572 0.929 . S
H585 C574 0.929 . S
O586 Co561 2.351 . S
O586 C589 1.244 . S
O587 Co561 2.155 . S
O587 C589 1.240 . S
O588 Co561 2.096 . S
O588 C569 1.247 . S
C589 O586 1.244 . S
C589 O587 1.240 . S
H590 C564 0.931 . S
H591 C573 0.931 . S
H592 C577 0.929 . S
H593 C579 0.930 . S
Co594 N598 2.148 . S
Co594 N604 2.128 . S
Co594 N614 2.194 . S
Co594 O619 2.351 . S
Co594 O620 2.155 . S
Co594 O621 2.096 . S
C595 N598 1.301 . S
C595 N599 1.328 . S
C595 H600 0.930 . S
C596 C597 1.333 . S
C596 N598 1.317 . S
C596 H601 0.930 . S
C597 C596 1.333 . S
C597 N599 1.350 . S
C597 H623 0.931 . S
N598 Co594 2.148 . S
N598 C595 1.301 . S
N598 C596 1.317 . S
N599 C595 1.328 . S
N599 C597 1.350 . S
H600 C595 0.930 . S
H601 C596 0.930 . S
C602 O603 1.224 . S
C602 O621 1.247 . S
O603 C602 1.224 . S
N604 Co594 2.128 . S
N604 C605 1.355 . S
N604 C607 1.311 . S
C605 N604 1.355 . S
C605 C606 1.363 . S
C605 H617 0.929 . S
C606 C605 1.363 . S
C606 N608 1.375 . S
C606 H624 0.931 . S
C607 N604 1.311 . S
C607 N608 1.347 . S
C607 H618 0.929 . S
N608 C606 1.375 . S
N608 C607 1.347 . S
C609 C612 1.365 . S
C609 N614 1.328 . S
C609 H615 0.929 . S
C610 C611 1.362 . S
C610 C613 1.378 . S
C610 H625 0.929 . S
C611 C610 1.362 . S
C611 C612 1.366 . S
C612 C609 1.365 . S
C612 C611 1.366 . S
C612 H626 0.930 . S
C613 C610 1.378 . S
C613 N614 1.315 . S
C613 H616 0.930 . S
N614 Co594 2.194 . S
N614 C609 1.328 . S
N614 C613 1.315 . S
H615 C609 0.929 . S
H616 C613 0.930 . S
H617 C605 0.929 . S
H618 C607 0.929 . S
O619 Co594 2.351 . S
O619 C622 1.244 . S
O620 Co594 2.155 . S
O620 C622 1.240 . S
O621 Co594 2.096 . S
O621 C602 1.247 . S
C622 O619 1.244 . S
C622 O620 1.240 . S
H623 C597 0.931 . S
H624 C606 0.931 . S
H625 C610 0.929 . S
H626 C612 0.930 . S
Co627 N631 2.148 . S
Co627 N637 2.128 . S
Co627 N647 2.194 . S
Co627 O652 2.351 . S
Co627 O653 2.155 . S
Co627 O654 2.096 . S
C628 N631 1.301 . S
C628 N632 1.328 . S
C628 H633 0.930 . S
C629 C630 1.333 . S
C629 N631 1.317 . S
C629 H634 0.930 . S
C630 C629 1.333 . S
C630 N632 1.350 . S
C630 H656 0.931 . S
N631 Co627 2.148 . S
N631 C628 1.301 . S
N631 C629 1.317 . S
N632 C628 1.328 . S
N632 C630 1.350 . S
H633 C628 0.930 . S
H634 C629 0.930 . S
C635 O636 1.224 . S
C635 O654 1.247 . S
O636 C635 1.224 . S
N637 Co627 2.128 . S
N637 C638 1.355 . S
N637 C640 1.311 . S
C638 N637 1.355 . S
C638 C639 1.363 . S
C638 H650 0.929 . S
C639 C638 1.363 . S
C639 N641 1.375 . S
C639 H657 0.931 . S
C640 N637 1.311 . S
C640 N641 1.347 . S
C640 H651 0.929 . S
N641 C639 1.375 . S
N641 C640 1.347 . S
C642 C645 1.365 . S
C642 N647 1.328 . S
C642 H648 0.929 . S
C643 C644 1.362 . S
C643 C646 1.378 . S
C643 H658 0.929 . S
C644 C643 1.362 . S
C644 C645 1.366 . S
C645 C642 1.365 . S
C645 C644 1.366 . S
C645 H659 0.930 . S
C646 C643 1.378 . S
C646 N647 1.315 . S
C646 H649 0.930 . S
N647 Co627 2.194 . S
N647 C642 1.328 . S
N647 C646 1.315 . S
H648 C642 0.929 . S
H649 C646 0.930 . S
H650 C638 0.929 . S
H651 C640 0.929 . S
O652 Co627 2.351 . S
O652 C655 1.244 . S
O653 Co627 2.155 . S
O653 C655 1.240 . S
O654 Co627 2.096 . S
O654 C635 1.247 . S
C655 O652 1.244 . S
C655 O653 1.240 . S
H656 C630 0.931 . S
H657 C639 0.931 . S
H658 C643 0.929 . S
H659 C645 0.930 . S
Co660 N664 2.148 . S
Co660 N670 2.128 . S
Co660 N680 2.194 . S
Co660 O685 2.351 . S
Co660 O686 2.155 . S
Co660 O687 2.096 . S
C661 N664 1.301 . S
C661 N665 1.328 . S
C661 H666 0.930 . S
C662 C663 1.333 . S
C662 N664 1.317 . S
C662 H667 0.930 . S
C663 C662 1.333 . S
C663 N665 1.350 . S
C663 H689 0.931 . S
N664 Co660 2.148 . S
N664 C661 1.301 . S
N664 C662 1.317 . S
N665 C661 1.328 . S
N665 C663 1.350 . S
H666 C661 0.930 . S
H667 C662 0.930 . S
C668 O669 1.224 . S
C668 O687 1.247 . S
O669 C668 1.224 . S
N670 Co660 2.128 . S
N670 C671 1.355 . S
N670 C673 1.311 . S
C671 N670 1.355 . S
C671 C672 1.363 . S
C671 H683 0.929 . S
C672 C671 1.363 . S
C672 N674 1.375 . S
C672 H690 0.931 . S
C673 N670 1.311 . S
C673 N674 1.347 . S
C673 H684 0.929 . S
N674 C672 1.375 . S
N674 C673 1.347 . S
C675 C678 1.365 . S
C675 N680 1.328 . S
C675 H681 0.929 . S
C676 C677 1.362 . S
C676 C679 1.378 . S
C676 H691 0.929 . S
C677 C676 1.362 . S
C677 C678 1.366 . S
C678 C675 1.365 . S
C678 C677 1.366 . S
C678 H692 0.930 . S
C679 C676 1.378 . S
C679 N680 1.315 . S
C679 H682 0.930 . S
N680 Co660 2.194 . S
N680 C675 1.328 . S
N680 C679 1.315 . S
H681 C675 0.929 . S
H682 C679 0.930 . S
H683 C671 0.929 . S
H684 C673 0.929 . S
O685 Co660 2.351 . S
O685 C688 1.244 . S
O686 Co660 2.155 . S
O686 C688 1.240 . S
O687 Co660 2.096 . S
O687 C668 1.247 . S
C688 O685 1.244 . S
C688 O686 1.240 . S
H689 C663 0.931 . S
H690 C672 0.931 . S
H691 C676 0.929 . S
H692 C678 0.930 . S
Co693 N697 2.148 . S
Co693 N703 2.128 . S
Co693 N713 2.194 . S
Co693 O718 2.351 . S
Co693 O719 2.155 . S
Co693 O720 2.096 . S
C694 N697 1.301 . S
C694 N698 1.328 . S
C694 H699 0.930 . S
C695 C696 1.333 . S
C695 N697 1.317 . S
C695 H700 0.930 . S
C696 C695 1.333 . S
C696 N698 1.350 . S
C696 H722 0.931 . S
N697 Co693 2.148 . S
N697 C694 1.301 . S
N697 C695 1.317 . S
N698 C694 1.328 . S
N698 C696 1.350 . S
H699 C694 0.930 . S
H700 C695 0.930 . S
C701 O702 1.224 . S
C701 O720 1.247 . S
O702 C701 1.224 . S
N703 Co693 2.128 . S
N703 C704 1.355 . S
N703 C706 1.311 . S
C704 N703 1.355 . S
C704 C705 1.363 . S
C704 H716 0.929 . S
C705 C704 1.363 . S
C705 N707 1.375 . S
C705 H723 0.931 . S
C706 N703 1.311 . S
C706 N707 1.347 . S
C706 H717 0.929 . S
N707 C705 1.375 . S
N707 C706 1.347 . S
C708 C711 1.365 . S
C708 N713 1.328 . S
C708 H714 0.929 . S
C709 C710 1.362 . S
C709 C712 1.378 . S
C709 H724 0.929 . S
C710 C709 1.362 . S
C710 C711 1.366 . S
C711 C708 1.365 . S
C711 C710 1.366 . S
C711 H725 0.930 . S
C712 C709 1.378 . S
C712 N713 1.315 . S
C712 H715 0.930 . S
N713 Co693 2.194 . S
N713 C708 1.328 . S
N713 C712 1.315 . S
H714 C708 0.929 . S
H715 C712 0.930 . S
H716 C704 0.929 . S
H717 C706 0.929 . S
O718 Co693 2.351 . S
O718 C721 1.244 . S
O719 Co693 2.155 . S
O719 C721 1.240 . S
O720 Co693 2.096 . S
O720 C701 1.247 . S
C721 O718 1.244 . S
C721 O719 1.240 . S
H722 C696 0.931 . S
H723 C705 0.931 . S
H724 C709 0.929 . S
H725 C711 0.930 . S
Co726 N730 2.148 . S
Co726 N736 2.128 . S
Co726 N746 2.194 . S
Co726 O751 2.351 . S
Co726 O752 2.155 . S
Co726 O753 2.096 . S
C727 N730 1.301 . S
C727 N731 1.328 . S
C727 H732 0.930 . S
C728 C729 1.333 . S
C728 N730 1.317 . S
C728 H733 0.930 . S
C729 C728 1.333 . S
C729 N731 1.350 . S
C729 H755 0.931 . S
N730 Co726 2.148 . S
N730 C727 1.301 . S
N730 C728 1.317 . S
N731 C727 1.328 . S
N731 C729 1.350 . S
H732 C727 0.930 . S
H733 C728 0.930 . S
C734 O735 1.224 . S
C734 O753 1.247 . S
O735 C734 1.224 . S
N736 Co726 2.128 . S
N736 C737 1.355 . S
N736 C739 1.311 . S
C737 N736 1.355 . S
C737 C738 1.363 . S
C737 H749 0.929 . S
C738 C737 1.363 . S
C738 N740 1.375 . S
C738 H756 0.931 . S
C739 N736 1.311 . S
C739 N740 1.347 . S
C739 H750 0.929 . S
N740 C738 1.375 . S
N740 C739 1.347 . S
C741 C744 1.365 . S
C741 N746 1.328 . S
C741 H747 0.929 . S
C742 C743 1.362 . S
C742 C745 1.378 . S
C742 H757 0.929 . S
C743 C742 1.362 . S
C743 C744 1.366 . S
C744 C741 1.365 . S
C744 C743 1.366 . S
C744 H758 0.930 . S
C745 C742 1.378 . S
C745 N746 1.315 . S
C745 H748 0.930 . S
N746 Co726 2.194 . S
N746 C741 1.328 . S
N746 C745 1.315 . S
H747 C741 0.929 . S
H748 C745 0.930 . S
H749 C737 0.929 . S
H750 C739 0.929 . S
O751 Co726 2.351 . S
O751 C754 1.244 . S
O752 Co726 2.155 . S
O752 C754 1.240 . S
O753 Co726 2.096 . S
O753 C734 1.247 . S
C754 O751 1.244 . S
C754 O752 1.240 . S
H755 C729 0.931 . S
H756 C738 0.931 . S
H757 C742 0.929 . S
H758 C744 0.930 . S
Co759 N763 2.148 . S
Co759 N769 2.128 . S
Co759 N779 2.194 . S
Co759 O784 2.351 . S
Co759 O785 2.155 . S
Co759 O786 2.096 . S
C760 N763 1.301 . S
C760 N764 1.328 . S
C760 H765 0.930 . S
C761 C762 1.333 . S
C761 N763 1.317 . S
C761 H766 0.930 . S
C762 C761 1.333 . S
C762 N764 1.350 . S
C762 H788 0.931 . S
N763 Co759 2.148 . S
N763 C760 1.301 . S
N763 C761 1.317 . S
N764 C760 1.328 . S
N764 C762 1.350 . S
H765 C760 0.930 . S
H766 C761 0.930 . S
C767 O768 1.224 . S
C767 O786 1.247 . S
O768 C767 1.224 . S
N769 Co759 2.128 . S
N769 C770 1.355 . S
N769 C772 1.311 . S
C770 N769 1.355 . S
C770 C771 1.363 . S
C770 H782 0.929 . S
C771 C770 1.363 . S
C771 N773 1.375 . S
C771 H789 0.931 . S
C772 N769 1.311 . S
C772 N773 1.347 . S
C772 H783 0.929 . S
N773 C771 1.375 . S
N773 C772 1.347 . S
C774 C777 1.365 . S
C774 N779 1.328 . S
C774 H780 0.929 . S
C775 C776 1.362 . S
C775 C778 1.378 . S
C775 H790 0.929 . S
C776 C775 1.362 . S
C776 C777 1.366 . S
C777 C774 1.365 . S
C777 C776 1.366 . S
C777 H791 0.930 . S
C778 C775 1.378 . S
C778 N779 1.315 . S
C778 H781 0.930 . S
N779 Co759 2.194 . S
N779 C774 1.328 . S
N779 C778 1.315 . S
H780 C774 0.929 . S
H781 C778 0.930 . S
H782 C770 0.929 . S
H783 C772 0.929 . S
O784 Co759 2.351 . S
O784 C787 1.244 . S
O785 Co759 2.155 . S
O785 C787 1.240 . S
O786 Co759 2.096 . S
O786 C767 1.247 . S
C787 O784 1.244 . S
C787 O785 1.240 . S
H788 C762 0.931 . S
H789 C771 0.931 . S
H790 C775 0.929 . S
H791 C777 0.930 . S
Co792 N796 2.148 . S
Co792 N802 2.128 . S
Co792 N812 2.194 . S
Co792 O817 2.351 . S
Co792 O818 2.155 . S
Co792 O819 2.096 . S
C793 N796 1.301 . S
C793 N797 1.328 . S
C793 H798 0.930 . S
C794 C795 1.333 . S
C794 N796 1.317 . S
C794 H799 0.930 . S
C795 C794 1.333 . S
C795 N797 1.350 . S
C795 H821 0.931 . S
N796 Co792 2.148 . S
N796 C793 1.301 . S
N796 C794 1.317 . S
N797 C793 1.328 . S
N797 C795 1.350 . S
H798 C793 0.930 . S
H799 C794 0.930 . S
C800 O801 1.224 . S
C800 O819 1.247 . S
O801 C800 1.224 . S
N802 Co792 2.128 . S
N802 C803 1.355 . S
N802 C805 1.311 . S
C803 N802 1.355 . S
C803 C804 1.363 . S
C803 H815 0.929 . S
C804 C803 1.363 . S
C804 N806 1.375 . S
C804 H822 0.931 . S
C805 N802 1.311 . S
C805 N806 1.347 . S
C805 H816 0.929 . S
N806 C804 1.375 . S
N806 C805 1.347 . S
C807 C810 1.365 . S
C807 N812 1.328 . S
C807 H813 0.929 . S
C808 C809 1.362 . S
C808 C811 1.378 . S
C808 H823 0.929 . S
C809 C808 1.362 . S
C809 C810 1.366 . S
C810 C807 1.365 . S
C810 C809 1.366 . S
C810 H824 0.930 . S
C811 C808 1.378 . S
C811 N812 1.315 . S
C811 H814 0.930 . S
N812 Co792 2.194 . S
N812 C807 1.328 . S
N812 C811 1.315 . S
H813 C807 0.929 . S
H814 C811 0.930 . S
H815 C803 0.929 . S
H816 C805 0.929 . S
O817 Co792 2.351 . S
O817 C820 1.244 . S
O818 Co792 2.155 . S
O818 C820 1.240 . S
O819 Co792 2.096 . S
O819 C800 1.247 . S
C820 O817 1.244 . S
C820 O818 1.240 . S
H821 C795 0.931 . S
H822 C804 0.931 . S
H823 C808 0.929 . S
H824 C810 0.930 . S
Co825 N829 2.148 . S
Co825 N835 2.128 . S
Co825 N845 2.194 . S
Co825 O850 2.351 . S
Co825 O851 2.155 . S
Co825 O852 2.096 . S
C826 N829 1.301 . S
C826 N830 1.328 . S
C826 H831 0.930 . S
C827 C828 1.333 . S
C827 N829 1.317 . S
C827 H832 0.930 . S
C828 C827 1.333 . S
C828 N830 1.350 . S
C828 H854 0.931 . S
N829 Co825 2.148 . S
N829 C826 1.301 . S
N829 C827 1.317 . S
N830 C826 1.328 . S
N830 C828 1.350 . S
H831 C826 0.930 . S
H832 C827 0.930 . S
C833 O834 1.224 . S
C833 O852 1.247 . S
O834 C833 1.224 . S
N835 Co825 2.128 . S
N835 C836 1.355 . S
N835 C838 1.311 . S
C836 N835 1.355 . S
C836 C837 1.363 . S
C836 H848 0.929 . S
C837 C836 1.363 . S
C837 N839 1.375 . S
C837 H855 0.931 . S
C838 N835 1.311 . S
C838 N839 1.347 . S
C838 H849 0.929 . S
N839 C837 1.375 . S
N839 C838 1.347 . S
C840 C843 1.365 . S
C840 N845 1.328 . S
C840 H846 0.929 . S
C841 C842 1.362 . S
C841 C844 1.378 . S
C841 H856 0.929 . S
C842 C841 1.362 . S
C842 C843 1.366 . S
C843 C840 1.365 . S
C843 C842 1.366 . S
C843 H857 0.930 . S
C844 C841 1.378 . S
C844 N845 1.315 . S
C844 H847 0.930 . S
N845 Co825 2.194 . S
N845 C840 1.328 . S
N845 C844 1.315 . S
H846 C840 0.929 . S
H847 C844 0.930 . S
H848 C836 0.929 . S
H849 C838 0.929 . S
O850 Co825 2.351 . S
O850 C853 1.244 . S
O851 Co825 2.155 . S
O851 C853 1.240 . S
O852 Co825 2.096 . S
O852 C833 1.247 . S
C853 O850 1.244 . S
C853 O851 1.240 . S
H854 C828 0.931 . S
H855 C837 0.931 . S
H856 C841 0.929 . S
H857 C843 0.930 . S
Co858 N862 2.148 . S
Co858 N868 2.128 . S
Co858 N878 2.194 . S
Co858 O883 2.351 . S
Co858 O884 2.155 . S
Co858 O885 2.096 . S
C859 N862 1.301 . S
C859 N863 1.328 . S
C859 H864 0.930 . S
C860 C861 1.333 . S
C860 N862 1.317 . S
C860 H865 0.930 . S
C861 C860 1.333 . S
C861 N863 1.350 . S
C861 H887 0.931 . S
N862 Co858 2.148 . S
N862 C859 1.301 . S
N862 C860 1.317 . S
N863 C859 1.328 . S
N863 C861 1.350 . S
H864 C859 0.930 . S
H865 C860 0.930 . S
C866 O867 1.224 . S
C866 O885 1.247 . S
O867 C866 1.224 . S
N868 Co858 2.128 . S
N868 C869 1.355 . S
N868 C871 1.311 . S
C869 N868 1.355 . S
C869 C870 1.363 . S
C869 H881 0.929 . S
C870 C869 1.363 . S
C870 N872 1.375 . S
C870 H888 0.931 . S
C871 N868 1.311 . S
C871 N872 1.347 . S
C871 H882 0.929 . S
N872 C870 1.375 . S
N872 C871 1.347 . S
C873 C876 1.365 . S
C873 N878 1.328 . S
C873 H879 0.929 . S
C874 C875 1.362 . S
C874 C877 1.378 . S
C874 H889 0.929 . S
C875 C874 1.362 . S
C875 C876 1.366 . S
C876 C873 1.365 . S
C876 C875 1.366 . S
C876 H890 0.930 . S
C877 C874 1.378 . S
C877 N878 1.315 . S
C877 H880 0.930 . S
N878 Co858 2.194 . S
N878 C873 1.328 . S
N878 C877 1.315 . S
H879 C873 0.929 . S
H880 C877 0.930 . S
H881 C869 0.929 . S
H882 C871 0.929 . S
O883 Co858 2.351 . S
O883 C886 1.244 . S
O884 Co858 2.155 . S
O884 C886 1.240 . S
O885 Co858 2.096 . S
O885 C866 1.247 . S
C886 O883 1.244 . S
C886 O884 1.240 . S
H887 C861 0.931 . S
H888 C870 0.931 . S
H889 C874 0.929 . S
H890 C876 0.930 . S
Co891 N895 2.148 . S
Co891 N901 2.128 . S
Co891 N911 2.194 . S
Co891 O916 2.351 . S
Co891 O917 2.155 . S
Co891 O918 2.096 . S
C892 N895 1.301 . S
C892 N896 1.328 . S
C892 H897 0.930 . S
C893 C894 1.333 . S
C893 N895 1.317 . S
C893 H898 0.930 . S
C894 C893 1.333 . S
C894 N896 1.350 . S
C894 H920 0.931 . S
N895 Co891 2.148 . S
N895 C892 1.301 . S
N895 C893 1.317 . S
N896 C892 1.328 . S
N896 C894 1.350 . S
H897 C892 0.930 . S
H898 C893 0.930 . S
C899 O900 1.224 . S
C899 O918 1.247 . S
O900 C899 1.224 . S
N901 Co891 2.128 . S
N901 C902 1.355 . S
N901 C904 1.311 . S
C902 N901 1.355 . S
C902 C903 1.363 . S
C902 H914 0.929 . S
C903 C902 1.363 . S
C903 N905 1.375 . S
C903 H921 0.931 . S
C904 N901 1.311 . S
C904 N905 1.347 . S
C904 H915 0.929 . S
N905 C903 1.375 . S
N905 C904 1.347 . S
C906 C909 1.365 . S
C906 N911 1.328 . S
C906 H912 0.929 . S
C907 C908 1.362 . S
C907 C910 1.378 . S
C907 H922 0.929 . S
C908 C907 1.362 . S
C908 C909 1.366 . S
C909 C906 1.365 . S
C909 C908 1.366 . S
C909 H923 0.930 . S
C910 C907 1.378 . S
C910 N911 1.315 . S
C910 H913 0.930 . S
N911 Co891 2.194 . S
N911 C906 1.328 . S
N911 C910 1.315 . S
H912 C906 0.929 . S
H913 C910 0.930 . S
H914 C902 0.929 . S
H915 C904 0.929 . S
O916 Co891 2.351 . S
O916 C919 1.244 . S
O917 Co891 2.155 . S
O917 C919 1.240 . S
O918 Co891 2.096 . S
O918 C899 1.247 . S
C919 O916 1.244 . S
C919 O917 1.240 . S
H920 C894 0.931 . S
H921 C903 0.931 . S
H922 C907 0.929 . S
H923 C909 0.930 . S
Co924 N928 2.148 . S
Co924 N934 2.128 . S
Co924 N944 2.194 . S
Co924 O949 2.351 . S
Co924 O950 2.155 . S
Co924 O951 2.096 . S
C925 N928 1.301 . S
C925 N929 1.328 . S
C925 H930 0.930 . S
C926 C927 1.333 . S
C926 N928 1.317 . S
C926 H931 0.930 . S
C927 C926 1.333 . S
C927 N929 1.350 . S
C927 H953 0.931 . S
N928 Co924 2.148 . S
N928 C925 1.301 . S
N928 C926 1.317 . S
N929 C925 1.328 . S
N929 C927 1.350 . S
H930 C925 0.930 . S
H931 C926 0.930 . S
C932 O933 1.224 . S
C932 O951 1.247 . S
O933 C932 1.224 . S
N934 Co924 2.128 . S
N934 C935 1.355 . S
N934 C937 1.311 . S
C935 N934 1.355 . S
C935 C936 1.363 . S
C935 H947 0.929 . S
C936 C935 1.363 . S
C936 N938 1.375 . S
C936 H954 0.931 . S
C937 N934 1.311 . S
C937 N938 1.347 . S
C937 H948 0.929 . S
N938 C936 1.375 . S
N938 C937 1.347 . S
C939 C942 1.365 . S
C939 N944 1.328 . S
C939 H945 0.929 . S
C940 C941 1.362 . S
C940 C943 1.378 . S
C940 H955 0.929 . S
C941 C940 1.362 . S
C941 C942 1.366 . S
C942 C939 1.365 . S
C942 C941 1.366 . S
C942 H956 0.930 . S
C943 C940 1.378 . S
C943 N944 1.315 . S
C943 H946 0.930 . S
N944 Co924 2.194 . S
N944 C939 1.328 . S
N944 C943 1.315 . S
H945 C939 0.929 . S
H946 C943 0.930 . S
H947 C935 0.929 . S
H948 C937 0.929 . S
O949 Co924 2.351 . S
O949 C952 1.244 . S
O950 Co924 2.155 . S
O950 C952 1.240 . S
O951 Co924 2.096 . S
O951 C932 1.247 . S
C952 O949 1.244 . S
C952 O950 1.240 . S
H953 C927 0.931 . S
H954 C936 0.931 . S
H955 C940 0.929 . S
H956 C942 0.930 . S
Co957 N961 2.148 . S
Co957 N967 2.128 . S
Co957 N977 2.194 . S
Co957 O982 2.351 . S
Co957 O983 2.155 . S
Co957 O984 2.096 . S
C958 N961 1.301 . S
C958 N962 1.328 . S
C958 H963 0.930 . S
C959 C960 1.333 . S
C959 N961 1.317 . S
C959 H964 0.930 . S
C960 C959 1.333 . S
C960 N962 1.350 . S
C960 H986 0.931 . S
N961 Co957 2.148 . S
N961 C958 1.301 . S
N961 C959 1.317 . S
N962 C958 1.328 . S
N962 C960 1.350 . S
H963 C958 0.930 . S
H964 C959 0.930 . S
C965 O966 1.224 . S
C965 O984 1.247 . S
O966 C965 1.224 . S
N967 Co957 2.128 . S
N967 C968 1.355 . S
N967 C970 1.311 . S
C968 N967 1.355 . S
C968 C969 1.363 . S
C968 H980 0.929 . S
C969 C968 1.363 . S
C969 N971 1.375 . S
C969 H987 0.931 . S
C970 N967 1.311 . S
C970 N971 1.347 . S
C970 H981 0.929 . S
N971 C969 1.375 . S
N971 C970 1.347 . S
C972 C975 1.365 . S
C972 N977 1.328 . S
C972 H978 0.929 . S
C973 C974 1.362 . S
C973 C976 1.378 . S
C973 H988 0.929 . S
C974 C973 1.362 . S
C974 C975 1.366 . S
C975 C972 1.365 . S
C975 C974 1.366 . S
C975 H989 0.930 . S
C976 C973 1.378 . S
C976 N977 1.315 . S
C976 H979 0.930 . S
N977 Co957 2.194 . S
N977 C972 1.328 . S
N977 C976 1.315 . S
H978 C972 0.929 . S
H979 C976 0.930 . S
H980 C968 0.929 . S
H981 C970 0.929 . S
O982 Co957 2.351 . S
O982 C985 1.244 . S
O983 Co957 2.155 . S
O983 C985 1.240 . S
O984 Co957 2.096 . S
O984 C965 1.247 . S
C985 O982 1.244 . S
C985 O983 1.240 . S
H986 C960 0.931 . S
H987 C969 0.931 . S
H988 C973 0.929 . S
H989 C975 0.930 . S
Co990 N994 2.148 . S
Co990 N1000 2.128 . S
Co990 N1010 2.194 . S
Co990 O1015 2.351 . S
Co990 O1016 2.155 . S
Co990 O1017 2.096 . S
C991 N994 1.301 . S
C991 N995 1.328 . S
C991 H996 0.930 . S
C992 C993 1.333 . S
C992 N994 1.317 . S
C992 H997 0.930 . S
C993 C992 1.333 . S
C993 N995 1.350 . S
C993 H1019 0.931 . S
N994 Co990 2.148 . S
N994 C991 1.301 . S
N994 C992 1.317 . S
N995 C991 1.328 . S
N995 C993 1.350 . S
H996 C991 0.930 . S
H997 C992 0.930 . S
C998 O999 1.224 . S
C998 O1017 1.247 . S
O999 C998 1.224 . S
N1000 Co990 2.128 . S
N1000 C1001 1.355 . S
N1000 C1003 1.311 . S
C1001 N1000 1.355 . S
C1001 C1002 1.363 . S
C1001 H1013 0.929 . S
C1002 C1001 1.363 . S
C1002 N1004 1.375 . S
C1002 H1020 0.931 . S
C1003 N1000 1.311 . S
C1003 N1004 1.347 . S
C1003 H1014 0.929 . S
N1004 C1002 1.375 . S
N1004 C1003 1.347 . S
C1005 C1008 1.365 . S
C1005 N1010 1.328 . S
C1005 H1011 0.929 . S
C1006 C1007 1.362 . S
C1006 C1009 1.378 . S
C1006 H1021 0.929 . S
C1007 C1006 1.362 . S
C1007 C1008 1.366 . S
C1008 C1005 1.365 . S
C1008 C1007 1.366 . S
C1008 H1022 0.930 . S
C1009 C1006 1.378 . S
C1009 N1010 1.315 . S
C1009 H1012 0.930 . S
N1010 Co990 2.194 . S
N1010 C1005 1.328 . S
N1010 C1009 1.315 . S
H1011 C1005 0.929 . S
H1012 C1009 0.930 . S
H1013 C1001 0.929 . S
H1014 C1003 0.929 . S
O1015 Co990 2.351 . S
O1015 C1018 1.244 . S
O1016 Co990 2.155 . S
O1016 C1018 1.240 . S
O1017 Co990 2.096 . S
O1017 C998 1.247 . S
C1018 O1015 1.244 . S
C1018 O1016 1.240 . S
H1019 C993 0.931 . S
H1020 C1002 0.931 . S
H1021 C1006 0.929 . S
H1022 C1008 0.930 . S
Co1023 N1027 2.148 . S
Co1023 N1033 2.128 . S
Co1023 N1043 2.194 . S
Co1023 O1048 2.351 . S
Co1023 O1049 2.155 . S
Co1023 O1050 2.096 . S
C1024 N1027 1.301 . S
C1024 N1028 1.328 . S
C1024 H1029 0.930 . S
C1025 C1026 1.333 . S
C1025 N1027 1.317 . S
C1025 H1030 0.930 . S
C1026 C1025 1.333 . S
C1026 N1028 1.350 . S
C1026 H1052 0.931 . S
N1027 Co1023 2.148 . S
N1027 C1024 1.301 . S
N1027 C1025 1.317 . S
N1028 C1024 1.328 . S
N1028 C1026 1.350 . S
H1029 C1024 0.930 . S
H1030 C1025 0.930 . S
C1031 O1032 1.224 . S
C1031 O1050 1.247 . S
O1032 C1031 1.224 . S
N1033 Co1023 2.128 . S
N1033 C1034 1.355 . S
N1033 C1036 1.311 . S
C1034 N1033 1.355 . S
C1034 C1035 1.363 . S
C1034 H1046 0.929 . S
C1035 C1034 1.363 . S
C1035 N1037 1.375 . S
C1035 H1053 0.931 . S
C1036 N1033 1.311 . S
C1036 N1037 1.347 . S
C1036 H1047 0.929 . S
N1037 C1035 1.375 . S
N1037 C1036 1.347 . S
C1038 C1041 1.365 . S
C1038 N1043 1.328 . S
C1038 H1044 0.929 . S
C1039 C1040 1.362 . S
C1039 C1042 1.378 . S
C1039 H1054 0.929 . S
C1040 C1039 1.362 . S
C1040 C1041 1.366 . S
C1041 C1038 1.365 . S
C1041 C1040 1.366 . S
C1041 H1055 0.930 . S
C1042 C1039 1.378 . S
C1042 N1043 1.315 . S
C1042 H1045 0.930 . S
N1043 Co1023 2.194 . S
N1043 C1038 1.328 . S
N1043 C1042 1.315 . S
H1044 C1038 0.929 . S
H1045 C1042 0.930 . S
H1046 C1034 0.929 . S
H1047 C1036 0.929 . S
O1048 Co1023 2.351 . S
O1048 C1051 1.244 . S
O1049 Co1023 2.155 . S
O1049 C1051 1.240 . S
O1050 Co1023 2.096 . S
O1050 C1031 1.247 . S
C1051 O1048 1.244 . S
C1051 O1049 1.240 . S
H1052 C1026 0.931 . S
H1053 C1035 0.931 . S
H1054 C1039 0.929 . S
H1055 C1041 0.930 . S
H1056 C1064 0.929 . S
H1057 C1066 0.930 . S
H1058 C1068 0.930 . S
H1059 C1071 0.929 . S
H1060 C1074 0.930 . S
H1061 C1076 0.960 . S
H1062 C1076 0.960 . S
H1063 C1076 0.960 . S
C1064 H1056 0.929 . S
C1064 C1065 1.377 . S
C1064 C1066 1.384 . S
C1065 C1064 1.377 . S
C1065 C1071 1.390 . S
C1066 H1057 0.930 . S
C1066 C1064 1.384 . S
C1066 C1067 1.372 . S
C1067 C1066 1.372 . S
C1067 C1068 1.400 . S
C1067 C1072 1.490 . S
C1068 H1058 0.930 . S
C1068 C1067 1.400 . S
C1068 C1071 1.386 . S
H1069 C1085 0.930 . S
H1070 C1086 0.931 . S
C1071 H1059 0.929 . S
C1071 C1065 1.390 . S
C1071 C1068 1.386 . S
C1072 C1067 1.490 . S
C1072 C1074 1.395 . S
C1072 C1075 1.403 . S
H1073 C1079 0.930 . S
C1074 H1060 0.930 . S
C1074 C1072 1.395 . S
C1074 C1077 1.403 . S
C1075 C1072 1.403 . S
C1075 C1076 1.524 . S
C1075 C1079 1.400 . S
C1076 H1061 0.960 . S
C1076 H1062 0.960 . S
C1076 H1063 0.960 . S
C1076 C1075 1.524 . S
C1077 C1074 1.403 . S
C1077 C1078 1.392 . S
C1077 C1081 1.495 . S
C1078 C1077 1.392 . S
C1078 C1079 1.385 . S
C1078 C1080 1.478 . S
C1079 H1073 0.930 . S
C1079 C1075 1.400 . S
C1079 C1078 1.385 . S
C1080 C1078 1.478 . S
C1080 C1082 1.381 . S
C1080 C1086 1.383 . S
C1081 C1077 1.495 . S
C1081 H1087 0.959 . S
C1081 H1088 0.961 . S
C1081 H1089 0.960 . S
C1082 C1080 1.381 . S
C1082 C1083 1.394 . S
C1082 H1090 0.930 . S
C1083 C1082 1.394 . S
C1083 C1084 1.383 . S
C1083 H1091 0.929 . S
C1084 C1083 1.383 . S
C1084 C1085 1.377 . S
C1085 H1069 0.930 . S
C1085 C1084 1.377 . S
C1085 C1086 1.379 . S
C1086 H1070 0.931 . S
C1086 C1080 1.383 . S
C1086 C1085 1.379 . S
H1087 C1081 0.959 . S
H1088 C1081 0.961 . S
H1089 C1081 0.960 . S
H1090 C1082 0.930 . S
H1091 C1083 0.929 . S
H1092 C1100 0.929 . S
H1093 C1102 0.930 . S
H1094 C1104 0.930 . S
H1095 C1107 0.929 1_655 S
H1096 C1110 0.930 . S
H1097 C1112 0.960 . S
H1098 C1112 0.960 . S
H1099 C1112 0.960 . S
C1100 H1092 0.929 . S
C1100 C1101 1.377 . S
C1100 C1102 1.384 . S
C1101 C1100 1.377 . S
C1101 C1107 1.390 . S
C1102 H1093 0.930 . S
C1102 C1100 1.384 . S
C1102 C1103 1.372 . S
C1103 C1102 1.372 . S
C1103 C1104 1.400 . S
C1103 C1108 1.490 . S
C1104 H1094 0.930 . S
C1104 C1103 1.400 . S
C1104 C1107 1.386 . S
H1105 C1121 0.930 . S
H1106 C1122 0.931 . S
C1107 H1095 0.929 1_455 S
C1107 C1101 1.390 . S
C1107 C1104 1.386 . S
C1108 C1103 1.490 . S
C1108 C1110 1.395 . S
C1108 C1111 1.403 . S
H1109 C1115 0.930 . S
C1110 H1096 0.930 . S
C1110 C1108 1.395 . S
C1110 C1113 1.403 . S
C1111 C1108 1.403 . S
C1111 C1112 1.524 . S
C1111 C1115 1.400 . S
C1112 H1097 0.960 . S
C1112 H1098 0.960 . S
C1112 H1099 0.960 . S
C1112 C1111 1.524 . S
C1113 C1110 1.403 . S
C1113 C1114 1.392 . S
C1113 C1117 1.495 . S
C1114 C1113 1.392 . S
C1114 C1115 1.385 . S
C1114 C1116 1.478 . S
C1115 H1109 0.930 . S
C1115 C1111 1.400 . S
C1115 C1114 1.385 . S
C1116 C1114 1.478 . S
C1116 C1118 1.381 . S
C1116 C1122 1.383 . S
C1117 C1113 1.495 . S
C1117 H1123 0.959 . S
C1117 H1124 0.961 . S
C1117 H1125 0.960 . S
C1118 C1116 1.381 . S
C1118 C1119 1.394 . S
C1118 H1126 0.930 . S
C1119 C1118 1.394 . S
C1119 C1120 1.383 . S
C1119 H1127 0.929 . S
C1120 C1119 1.383 . S
C1120 C1121 1.377 . S
C1121 H1105 0.930 . S
C1121 C1120 1.377 . S
C1121 C1122 1.379 . S
C1122 H1106 0.931 . S
C1122 C1116 1.383 . S
C1122 C1121 1.379 . S
H1123 C1117 0.959 . S
H1124 C1117 0.961 . S
H1125 C1117 0.960 . S
H1126 C1118 0.930 . S
H1127 C1119 0.929 . S
H1128 C1136 0.929 . S
H1129 C1138 0.930 . S
H1130 C1140 0.930 . S
H1131 C1143 0.929 . S
H1132 C1146 0.930 . S
H1133 C1148 0.960 . S
H1134 C1148 0.960 . S
H1135 C1148 0.960 . S
C1136 H1128 0.929 . S
C1136 C1137 1.377 . S
C1136 C1138 1.384 . S
C1137 C1136 1.377 . S
C1137 C1143 1.390 . S
C1138 H1129 0.930 . S
C1138 C1136 1.384 . S
C1138 C1139 1.372 . S
C1139 C1138 1.372 . S
C1139 C1140 1.400 . S
C1139 C1144 1.490 . S
C1140 H1130 0.930 . S
C1140 C1139 1.400 . S
C1140 C1143 1.386 . S
H1141 C1157 0.930 . S
H1142 C1158 0.931 . S
C1143 H1131 0.929 . S
C1143 C1137 1.390 . S
C1143 C1140 1.386 . S
C1144 C1139 1.490 . S
C1144 C1146 1.395 . S
C1144 C1147 1.403 . S
H1145 C1151 0.930 . S
C1146 H1132 0.930 . S
C1146 C1144 1.395 . S
C1146 C1149 1.403 . S
C1147 C1144 1.403 . S
C1147 C1148 1.524 . S
C1147 C1151 1.400 . S
C1148 H1133 0.960 . S
C1148 H1134 0.960 . S
C1148 H1135 0.960 . S
C1148 C1147 1.524 . S
C1149 C1146 1.403 . S
C1149 C1150 1.392 . S
C1149 C1153 1.495 . S
C1150 C1149 1.392 . S
C1150 C1151 1.385 . S
C1150 C1152 1.478 . S
C1151 H1145 0.930 . S
C1151 C1147 1.400 . S
C1151 C1150 1.385 . S
C1152 C1150 1.478 . S
C1152 C1154 1.381 . S
C1152 C1158 1.383 . S
C1153 C1149 1.495 . S
C1153 H1159 0.959 . S
C1153 H1160 0.961 . S
C1153 H1161 0.960 . S
C1154 C1152 1.381 . S
C1154 C1155 1.394 . S
C1154 H1162 0.930 . S
C1155 C1154 1.394 . S
C1155 C1156 1.383 . S
C1155 H1163 0.929 . S
C1156 C1155 1.383 . S
C1156 C1157 1.377 . S
C1157 H1141 0.930 . S
C1157 C1156 1.377 . S
C1157 C1158 1.379 . S
C1158 H1142 0.931 . S
C1158 C1152 1.383 . S
C1158 C1157 1.379 . S
H1159 C1153 0.959 . S
H1160 C1153 0.961 . S
H1161 C1153 0.960 . S
H1162 C1154 0.930 . S
H1163 C1155 0.929 . S
H1164 C1172 0.929 . S
H1165 C1174 0.930 . S
H1166 C1176 0.930 . S
H1167 C1179 0.929 . S
H1168 C1182 0.930 . S
H1169 C1184 0.960 . S
H1170 C1184 0.960 . S
H1171 C1184 0.960 . S
C1172 H1164 0.929 . S
C1172 C1173 1.377 . S
C1172 C1174 1.384 . S
C1173 C1172 1.377 . S
C1173 C1179 1.390 . S
C1174 H1165 0.930 . S
C1174 C1172 1.384 . S
C1174 C1175 1.372 . S
C1175 C1174 1.372 . S
C1175 C1176 1.400 . S
C1175 C1180 1.490 . S
C1176 H1166 0.930 . S
C1176 C1175 1.400 . S
C1176 C1179 1.386 . S
H1177 C1193 0.930 . S
H1178 C1194 0.931 . S
C1179 H1167 0.929 . S
C1179 C1173 1.390 . S
C1179 C1176 1.386 . S
C1180 C1175 1.490 . S
C1180 C1182 1.395 . S
C1180 C1183 1.403 . S
H1181 C1187 0.930 . S
C1182 H1168 0.930 . S
C1182 C1180 1.395 . S
C1182 C1185 1.403 . S
C1183 C1180 1.403 . S
C1183 C1184 1.524 . S
C1183 C1187 1.400 . S
C1184 H1169 0.960 . S
C1184 H1170 0.960 . S
C1184 H1171 0.960 . S
C1184 C1183 1.524 . S
C1185 C1182 1.403 . S
C1185 C1186 1.392 . S
C1185 C1189 1.495 . S
C1186 C1185 1.392 . S
C1186 C1187 1.385 . S
C1186 C1188 1.478 . S
C1187 H1181 0.930 . S
C1187 C1183 1.400 . S
C1187 C1186 1.385 . S
C1188 C1186 1.478 . S
C1188 C1190 1.381 . S
C1188 C1194 1.383 . S
C1189 C1185 1.495 . S
C1189 H1195 0.959 . S
C1189 H1196 0.961 . S
C1189 H1197 0.960 . S
C1190 C1188 1.381 . S
C1190 C1191 1.394 . S
C1190 H1198 0.930 . S
C1191 C1190 1.394 . S
C1191 C1192 1.383 . S
C1191 H1199 0.929 . S
C1192 C1191 1.383 . S
C1192 C1193 1.377 . S
C1193 H1177 0.930 . S
C1193 C1192 1.377 . S
C1193 C1194 1.379 . S
C1194 H1178 0.931 . S
C1194 C1188 1.383 . S
C1194 C1193 1.379 . S
H1195 C1189 0.959 . S
H1196 C1189 0.961 . S
H1197 C1189 0.960 . S
H1198 C1190 0.930 . S
H1199 C1191 0.929 . S
H1200 C1208 0.929 . S
H1201 C1210 0.930 . S
H1202 C1212 0.930 . S
H1203 C1215 0.929 . S
H1204 C1218 0.930 . S
H1205 C1220 0.960 . S
H1206 C1220 0.960 . S
H1207 C1220 0.960 . S
C1208 H1200 0.929 . S
C1208 C1209 1.377 . S
C1208 C1210 1.384 . S
C1209 C1208 1.377 . S
C1209 C1215 1.390 . S
C1210 H1201 0.930 . S
C1210 C1208 1.384 . S
C1210 C1211 1.372 . S
C1211 C1210 1.372 . S
C1211 C1212 1.400 . S
C1211 C1216 1.490 . S
C1212 H1202 0.930 . S
C1212 C1211 1.400 . S
C1212 C1215 1.386 . S
H1213 C1229 0.930 . S
H1214 C1230 0.931 . S
C1215 H1203 0.929 . S
C1215 C1209 1.390 . S
C1215 C1212 1.386 . S
C1216 C1211 1.490 . S
C1216 C1218 1.395 . S
C1216 C1219 1.403 . S
H1217 C1223 0.930 . S
C1218 H1204 0.930 . S
C1218 C1216 1.395 . S
C1218 C1221 1.403 . S
C1219 C1216 1.403 . S
C1219 C1220 1.524 . S
C1219 C1223 1.400 . S
C1220 H1205 0.960 . S
C1220 H1206 0.960 . S
C1220 H1207 0.960 . S
C1220 C1219 1.524 . S
C1221 C1218 1.403 . S
C1221 C1222 1.392 . S
C1221 C1225 1.495 . S
C1222 C1221 1.392 . S
C1222 C1223 1.385 . S
C1222 C1224 1.478 . S
C1223 H1217 0.930 . S
C1223 C1219 1.400 . S
C1223 C1222 1.385 . S
C1224 C1222 1.478 . S
C1224 C1226 1.381 . S
C1224 C1230 1.383 . S
C1225 C1221 1.495 . S
C1225 H1231 0.959 . S
C1225 H1232 0.961 . S
C1225 H1233 0.960 . S
C1226 C1224 1.381 . S
C1226 C1227 1.394 . S
C1226 H1234 0.930 . S
C1227 C1226 1.394 . S
C1227 C1228 1.383 . S
C1227 H1235 0.929 . S
C1228 C1227 1.383 . S
C1228 C1229 1.377 . S
C1229 H1213 0.930 . S
C1229 C1228 1.377 . S
C1229 C1230 1.379 . S
C1230 H1214 0.931 . S
C1230 C1224 1.383 . S
C1230 C1229 1.379 . S
H1231 C1225 0.959 . S
H1232 C1225 0.961 . S
H1233 C1225 0.960 . S
H1234 C1226 0.930 . S
H1235 C1227 0.929 . S
H1236 C1244 0.929 . S
H1237 C1246 0.930 . S
H1238 C1248 0.930 . S
H1239 C1251 0.929 . S
H1240 C1254 0.930 . S
H1241 C1256 0.960 . S
H1242 C1256 0.960 . S
H1243 C1256 0.960 . S
C1244 H1236 0.929 . S
C1244 C1245 1.377 . S
C1244 C1246 1.384 . S
C1245 C1244 1.377 . S
C1245 C1251 1.390 . S
C1246 H1237 0.930 . S
C1246 C1244 1.384 . S
C1246 C1247 1.372 . S
C1247 C1246 1.372 . S
C1247 C1248 1.400 . S
C1247 C1252 1.490 . S
C1248 H1238 0.930 . S
C1248 C1247 1.400 . S
C1248 C1251 1.386 . S
H1249 C1265 0.930 . S
H1250 C1266 0.931 . S
C1251 H1239 0.929 . S
C1251 C1245 1.390 . S
C1251 C1248 1.386 . S
C1252 C1247 1.490 . S
C1252 C1254 1.395 . S
C1252 C1255 1.403 . S
H1253 C1259 0.930 . S
C1254 H1240 0.930 . S
C1254 C1252 1.395 . S
C1254 C1257 1.403 . S
C1255 C1252 1.403 . S
C1255 C1256 1.524 . S
C1255 C1259 1.400 . S
C1256 H1241 0.960 . S
C1256 H1242 0.960 . S
C1256 H1243 0.960 . S
C1256 C1255 1.524 . S
C1257 C1254 1.403 . S
C1257 C1258 1.392 . S
C1257 C1261 1.495 . S
C1258 C1257 1.392 . S
C1258 C1259 1.385 . S
C1258 C1260 1.478 . S
C1259 H1253 0.930 . S
C1259 C1255 1.400 . S
C1259 C1258 1.385 . S
C1260 C1258 1.478 . S
C1260 C1262 1.381 . S
C1260 C1266 1.383 . S
C1261 C1257 1.495 . S
C1261 H1267 0.959 . S
C1261 H1268 0.961 . S
C1261 H1269 0.960 . S
C1262 C1260 1.381 . S
C1262 C1263 1.394 . S
C1262 H1270 0.930 . S
C1263 C1262 1.394 . S
C1263 C1264 1.383 . S
C1263 H1271 0.929 . S
C1264 C1263 1.383 . S
C1264 C1265 1.377 . S
C1265 H1249 0.930 . S
C1265 C1264 1.377 . S
C1265 C1266 1.379 . S
C1266 H1250 0.931 . S
C1266 C1260 1.383 . S
C1266 C1265 1.379 . S
H1267 C1261 0.959 . S
H1268 C1261 0.961 . S
H1269 C1261 0.960 . S
H1270 C1262 0.930 . S
H1271 C1263 0.929 . S
H1272 C1280 0.929 . S
H1273 C1282 0.930 . S
H1274 C1284 0.930 . S
H1275 C1287 0.929 . S
H1276 C1290 0.930 . S
H1277 C1292 0.960 . S
H1278 C1292 0.960 . S
H1279 C1292 0.960 . S
C1280 H1272 0.929 . S
C1280 C1281 1.377 . S
C1280 C1282 1.384 . S
C1281 C1280 1.377 . S
C1281 C1287 1.390 . S
C1282 H1273 0.930 . S
C1282 C1280 1.384 . S
C1282 C1283 1.372 . S
C1283 C1282 1.372 . S
C1283 C1284 1.400 . S
C1283 C1288 1.490 . S
C1284 H1274 0.930 . S
C1284 C1283 1.400 . S
C1284 C1287 1.386 . S
H1285 C1301 0.930 . S
H1286 C1302 0.931 . S
C1287 H1275 0.929 . S
C1287 C1281 1.390 . S
C1287 C1284 1.386 . S
C1288 C1283 1.490 . S
C1288 C1290 1.395 . S
C1288 C1291 1.403 . S
H1289 C1295 0.930 . S
C1290 H1276 0.930 . S
C1290 C1288 1.395 . S
C1290 C1293 1.403 . S
C1291 C1288 1.403 . S
C1291 C1292 1.524 . S
C1291 C1295 1.400 . S
C1292 H1277 0.960 . S
C1292 H1278 0.960 . S
C1292 H1279 0.960 . S
C1292 C1291 1.524 . S
C1293 C1290 1.403 . S
C1293 C1294 1.392 . S
C1293 C1297 1.495 . S
C1294 C1293 1.392 . S
C1294 C1295 1.385 . S
C1294 C1296 1.478 . S
C1295 H1289 0.930 . S
C1295 C1291 1.400 . S
C1295 C1294 1.385 . S
C1296 C1294 1.478 . S
C1296 C1298 1.381 . S
C1296 C1302 1.383 . S
C1297 C1293 1.495 . S
C1297 H1303 0.959 . S
C1297 H1304 0.961 . S
C1297 H1305 0.960 . S
C1298 C1296 1.381 . S
C1298 C1299 1.394 . S
C1298 H1306 0.930 . S
C1299 C1298 1.394 . S
C1299 C1300 1.383 . S
C1299 H1307 0.929 . S
C1300 C1299 1.383 . S
C1300 C1301 1.377 . S
C1301 H1285 0.930 . S
C1301 C1300 1.377 . S
C1301 C1302 1.379 . S
C1302 H1286 0.931 . S
C1302 C1296 1.383 . S
C1302 C1301 1.379 . S
H1303 C1297 0.959 . S
H1304 C1297 0.961 . S
H1305 C1297 0.960 . S
H1306 C1298 0.930 . S
H1307 C1299 0.929 . S
H1308 C1316 0.929 . S
H1309 C1318 0.930 . S
H1310 C1320 0.930 . S
H1311 C1323 0.929 . S
H1312 C1326 0.930 . S
H1313 C1328 0.960 . S
H1314 C1328 0.960 . S
H1315 C1328 0.960 . S
C1316 H1308 0.929 . S
C1316 C1317 1.377 . S
C1316 C1318 1.384 . S
C1317 C1316 1.377 . S
C1317 C1323 1.390 . S
C1318 H1309 0.930 . S
C1318 C1316 1.384 . S
C1318 C1319 1.372 . S
C1319 C1318 1.372 . S
C1319 C1320 1.400 . S
C1319 C1324 1.490 . S
C1320 H1310 0.930 . S
C1320 C1319 1.400 . S
C1320 C1323 1.386 . S
H1321 C1337 0.915 1_655 S
H1322 C1338 0.931 . S
C1323 H1311 0.929 . S
C1323 C1317 1.390 . S
C1323 C1320 1.386 . S
C1324 C1319 1.490 . S
C1324 C1326 1.395 . S
C1324 C1327 1.403 . S
H1325 C1331 0.930 . S
C1326 H1312 0.930 . S
C1326 C1324 1.395 . S
C1326 C1329 1.403 . S
C1327 C1324 1.403 . S
C1327 C1328 1.524 . S
C1327 C1331 1.400 . S
C1328 H1313 0.960 . S
C1328 H1314 0.960 . S
C1328 H1315 0.960 . S
C1328 C1327 1.524 . S
C1329 C1326 1.403 . S
C1329 C1330 1.392 . S
C1329 C1333 1.495 . S
C1330 C1329 1.392 . S
C1330 C1331 1.385 . S
C1330 C1332 1.478 . S
C1331 H1325 0.930 . S
C1331 C1327 1.400 . S
C1331 C1330 1.385 . S
C1332 C1330 1.478 . S
C1332 C1334 1.381 . S
C1332 C1338 1.383 . S
C1333 C1329 1.495 . S
C1333 H1339 0.959 . S
C1333 H1340 0.961 . S
C1333 H1341 0.960 . S
C1334 C1332 1.381 . S
C1334 C1335 1.394 . S
C1334 H1342 0.930 . S
C1335 C1334 1.394 . S
C1335 C1336 1.383 . S
C1335 H1343 0.929 . S
C1336 C1335 1.383 . S
C1336 C1337 1.377 . S
C1337 H1321 0.915 1_455 S
C1337 C1336 1.377 . S
C1337 C1338 1.379 . S
C1338 H1322 0.931 . S
C1338 C1332 1.383 . S
C1338 C1337 1.379 . S
H1339 C1333 0.959 . S
H1340 C1333 0.961 . S
H1341 C1333 0.960 . S
H1342 C1334 0.930 . S
H1343 C1335 0.929 . S
H1344 C1352 0.929 . S
H1345 C1354 0.930 . S
H1346 C1356 0.930 . S
H1347 C1359 0.929 . S
H1348 C1362 0.930 . S
H1349 C1364 0.960 . S
H1350 C1364 0.960 . S
H1351 C1364 0.960 . S
C1352 H1344 0.929 . S
C1352 C1353 1.377 . S
C1352 C1354 1.384 . S
C1353 C1352 1.377 . S
C1353 C1359 1.390 . S
C1354 H1345 0.930 . S
C1354 C1352 1.384 . S
C1354 C1355 1.372 . S
C1355 C1354 1.372 . S
C1355 C1356 1.400 . S
C1355 C1360 1.490 . S
C1356 H1346 0.930 . S
C1356 C1355 1.400 . S
C1356 C1359 1.386 . S
H1357 C1373 0.930 . S
H1358 C1374 0.931 . S
C1359 H1347 0.929 . S
C1359 C1353 1.390 . S
C1359 C1356 1.386 . S
C1360 C1355 1.490 . S
C1360 C1362 1.395 . S
C1360 C1363 1.403 . S
H1361 C1367 0.930 . S
C1362 H1348 0.930 . S
C1362 C1360 1.395 . S
C1362 C1365 1.403 . S
C1363 C1360 1.403 . S
C1363 C1364 1.524 . S
C1363 C1367 1.400 . S
C1364 H1349 0.960 . S
C1364 H1350 0.960 . S
C1364 H1351 0.960 . S
C1364 C1363 1.524 . S
C1365 C1362 1.403 . S
C1365 C1366 1.392 . S
C1365 C1369 1.495 . S
C1366 C1365 1.392 . S
C1366 C1367 1.385 . S
C1366 C1368 1.478 . S
C1367 H1361 0.930 . S
C1367 C1363 1.400 . S
C1367 C1366 1.385 . S
C1368 C1366 1.478 . S
C1368 C1370 1.381 . S
C1368 C1374 1.383 . S
C1369 C1365 1.495 . S
C1369 H1375 0.959 . S
C1369 H1376 0.961 . S
C1369 H1377 0.960 . S
C1370 C1368 1.381 . S
C1370 C1371 1.394 . S
C1370 H1378 0.930 . S
C1371 C1370 1.394 . S
C1371 C1372 1.383 . S
C1371 H1379 0.929 . S
C1372 C1371 1.383 . S
C1372 C1373 1.377 . S
C1373 H1357 0.930 . S
C1373 C1372 1.377 . S
C1373 C1374 1.379 . S
C1374 H1358 0.931 . S
C1374 C1368 1.383 . S
C1374 C1373 1.379 . S
H1375 C1369 0.959 . S
H1376 C1369 0.961 . S
H1377 C1369 0.960 . S
H1378 C1370 0.930 . S
H1379 C1371 0.929 . S
H1380 C1388 0.974 . S
H1381 C1390 0.930 . S
H1382 C1392 0.930 . S
H1383 C1395 0.929 . S
H1384 C1398 0.930 . S
H1385 C1400 0.960 . S
H1386 C1400 0.960 . S
H1387 C1400 0.960 . S
C1388 H1380 0.974 . S
C1388 C1389 1.368 1_455 S
C1388 C1390 1.350 1_455 S
C1389 C1388 1.368 1_655 S
C1389 C1395 1.390 . S
C1390 H1381 0.930 . S
C1390 C1388 1.350 1_655 S
C1390 C1391 1.372 . S
C1391 C1390 1.372 . S
C1391 C1392 1.400 . S
C1391 C1396 1.490 . S
C1392 H1382 0.930 . S
C1392 C1391 1.400 . S
C1392 C1395 1.386 . S
H1393 C1409 0.930 . S
H1394 C1410 0.931 . S
C1395 H1383 0.929 . S
C1395 C1389 1.390 . S
C1395 C1392 1.386 . S
C1396 C1391 1.490 . S
C1396 C1398 1.395 . S
C1396 C1399 1.403 . S
H1397 C1403 0.930 . S
C1398 H1384 0.930 . S
C1398 C1396 1.395 . S
C1398 C1401 1.403 . S
C1399 C1396 1.403 . S
C1399 C1400 1.524 . S
C1399 C1403 1.400 . S
C1400 H1385 0.960 . S
C1400 H1386 0.960 . S
C1400 H1387 0.960 . S
C1400 C1399 1.524 . S
C1401 C1398 1.403 . S
C1401 C1402 1.392 . S
C1401 C1405 1.495 . S
C1402 C1401 1.392 . S
C1402 C1403 1.385 . S
C1402 C1404 1.478 . S
C1403 H1397 0.930 . S
C1403 C1399 1.400 . S
C1403 C1402 1.385 . S
C1404 C1402 1.478 . S
C1404 C1406 1.381 . S
C1404 C1410 1.383 . S
C1405 C1401 1.495 . S
C1405 H1411 0.959 . S
C1405 H1412 0.961 . S
C1405 H1413 0.960 . S
C1406 C1404 1.381 . S
C1406 C1407 1.394 . S
C1406 H1414 0.930 . S
C1407 C1406 1.394 . S
C1407 C1408 1.383 . S
C1407 H1415 0.929 . S
C1408 C1407 1.383 . S
C1408 C1409 1.377 . S
C1409 H1393 0.930 . S
C1409 C1408 1.377 . S
C1409 C1410 1.379 . S
C1410 H1394 0.931 . S
C1410 C1404 1.383 . S
C1410 C1409 1.379 . S
H1411 C1405 0.959 . S
H1412 C1405 0.961 . S
H1413 C1405 0.960 . S
H1414 C1406 0.930 . S
H1415 C1407 0.929 . S
H1416 C1424 0.929 . S
H1417 C1426 0.930 . S
H1418 C1428 0.930 . S
H1419 C1431 0.929 . S
H1420 C1434 0.930 . S
H1421 C1436 0.960 . S
H1422 C1436 0.960 . S
H1423 C1436 0.960 . S
C1424 H1416 0.929 . S
C1424 C1425 1.377 . S
C1424 C1426 1.384 . S
C1425 C1424 1.377 . S
C1425 C1431 1.390 . S
C1426 H1417 0.930 . S
C1426 C1424 1.384 . S
C1426 C1427 1.372 . S
C1427 C1426 1.372 . S
C1427 C1428 1.400 . S
C1427 C1432 1.490 . S
C1428 H1418 0.930 . S
C1428 C1427 1.400 . S
C1428 C1431 1.386 . S
H1429 C1445 0.930 . S
H1430 C1446 0.931 . S
C1431 H1419 0.929 . S
C1431 C1425 1.390 . S
C1431 C1428 1.386 . S
C1432 C1427 1.490 . S
C1432 C1434 1.395 . S
C1432 C1435 1.403 . S
H1433 C1439 0.930 . S
C1434 H1420 0.930 . S
C1434 C1432 1.395 . S
C1434 C1437 1.403 . S
C1435 C1432 1.403 . S
C1435 C1436 1.524 . S
C1435 C1439 1.400 . S
C1436 H1421 0.960 . S
C1436 H1422 0.960 . S
C1436 H1423 0.960 . S
C1436 C1435 1.524 . S
C1437 C1434 1.403 . S
C1437 C1438 1.392 . S
C1437 C1441 1.495 . S
C1438 C1437 1.392 . S
C1438 C1439 1.385 . S
C1438 C1440 1.478 . S
C1439 H1433 0.930 . S
C1439 C1435 1.400 . S
C1439 C1438 1.385 . S
C1440 C1438 1.478 . S
C1440 C1442 1.381 . S
C1440 C1446 1.383 . S
C1441 C1437 1.495 . S
C1441 H1447 0.959 . S
C1441 H1448 0.961 . S
C1441 H1449 0.960 . S
C1442 C1440 1.381 . S
C1442 C1443 1.394 . S
C1442 H1450 0.930 . S
C1443 C1442 1.394 . S
C1443 C1444 1.383 . S
C1443 H1451 0.929 . S
C1444 C1443 1.383 . S
C1444 C1445 1.377 . S
C1445 H1429 0.930 . S
C1445 C1444 1.377 . S
C1445 C1446 1.379 . S
C1446 H1430 0.931 . S
C1446 C1440 1.383 . S
C1446 C1445 1.379 . S
H1447 C1441 0.959 . S
H1448 C1441 0.961 . S
H1449 C1441 0.960 . S
H1450 C1442 0.930 . S
H1451 C1443 0.929 . S
H1452 C1460 0.929 . S
H1453 C1462 0.930 . S
H1454 C1464 0.930 . S
H1455 C1467 0.929 . S
H1456 C1470 0.930 . S
H1457 C1472 0.960 . S
H1458 C1472 0.960 . S
H1459 C1472 0.960 . S
C1460 H1452 0.929 . S
C1460 C1461 1.377 . S
C1460 C1462 1.384 . S
C1461 C1460 1.377 . S
C1461 C1467 1.390 . S
C1462 H1453 0.930 . S
C1462 C1460 1.384 . S
C1462 C1463 1.372 . S
C1463 C1462 1.372 . S
C1463 C1464 1.400 . S
C1463 C1468 1.490 . S
C1464 H1454 0.930 . S
C1464 C1463 1.400 . S
C1464 C1467 1.386 . S
H1465 C1481 0.930 . S
H1466 C1482 0.931 . S
C1467 H1455 0.929 . S
C1467 C1461 1.390 . S
C1467 C1464 1.386 . S
C1468 C1463 1.490 . S
C1468 C1470 1.395 . S
C1468 C1471 1.403 . S
H1469 C1475 0.930 . S
C1470 H1456 0.930 . S
C1470 C1468 1.395 . S
C1470 C1473 1.403 . S
C1471 C1468 1.403 . S
C1471 C1472 1.524 . S
C1471 C1475 1.400 . S
C1472 H1457 0.960 . S
C1472 H1458 0.960 . S
C1472 H1459 0.960 . S
C1472 C1471 1.524 . S
C1473 C1470 1.403 . S
C1473 C1474 1.392 . S
C1473 C1477 1.495 . S
C1474 C1473 1.392 . S
C1474 C1475 1.385 . S
C1474 C1476 1.478 . S
C1475 H1469 0.930 . S
C1475 C1471 1.400 . S
C1475 C1474 1.385 . S
C1476 C1474 1.478 . S
C1476 C1478 1.381 . S
C1476 C1482 1.383 . S
C1477 C1473 1.495 . S
C1477 H1483 0.959 . S
C1477 H1484 0.961 . S
C1477 H1485 0.960 . S
C1478 C1476 1.381 . S
C1478 C1479 1.394 . S
C1478 H1486 0.930 . S
C1479 C1478 1.394 . S
C1479 C1480 1.383 . S
C1479 H1487 0.929 . S
C1480 C1479 1.383 . S
C1480 C1481 1.377 . S
C1481 H1465 0.930 . S
C1481 C1480 1.377 . S
C1481 C1482 1.379 . S
C1482 H1466 0.931 . S
C1482 C1476 1.383 . S
C1482 C1481 1.379 . S
H1483 C1477 0.959 . S
H1484 C1477 0.961 . S
H1485 C1477 0.960 . S
H1486 C1478 0.930 . S
H1487 C1479 0.929 . S
H1488 C1496 0.929 . S
H1489 C1498 0.930 . S
H1490 C1500 0.930 . S
H1491 C1503 0.929 . S
H1492 C1506 0.930 . S
H1493 C1508 0.960 . S
H1494 C1508 0.960 . S
H1495 C1508 0.960 . S
C1496 H1488 0.929 . S
C1496 C1497 1.377 . S
C1496 C1498 1.384 . S
C1497 C1496 1.377 . S
C1497 C1503 1.390 . S
C1498 H1489 0.930 . S
C1498 C1496 1.384 . S
C1498 C1499 1.372 . S
C1499 C1498 1.372 . S
C1499 C1500 1.400 . S
C1499 C1504 1.490 . S
C1500 H1490 0.930 . S
C1500 C1499 1.400 . S
C1500 C1503 1.386 . S
H1501 C1517 0.930 . S
H1502 C1518 0.931 . S
C1503 H1491 0.929 . S
C1503 C1497 1.390 . S
C1503 C1500 1.386 . S
C1504 C1499 1.490 . S
C1504 C1506 1.395 . S
C1504 C1507 1.403 . S
H1505 C1511 0.930 . S
C1506 H1492 0.930 . S
C1506 C1504 1.395 . S
C1506 C1509 1.403 . S
C1507 C1504 1.403 . S
C1507 C1508 1.524 . S
C1507 C1511 1.400 . S
C1508 H1493 0.960 . S
C1508 H1494 0.960 . S
C1508 H1495 0.960 . S
C1508 C1507 1.524 . S
C1509 C1506 1.403 . S
C1509 C1510 1.392 . S
C1509 C1513 1.495 . S
C1510 C1509 1.392 . S
C1510 C1511 1.385 . S
C1510 C1512 1.478 . S
C1511 H1505 0.930 . S
C1511 C1507 1.400 . S
C1511 C1510 1.385 . S
C1512 C1510 1.478 . S
C1512 C1514 1.381 . S
C1512 C1518 1.383 . S
C1513 C1509 1.495 . S
C1513 H1519 0.959 . S
C1513 H1520 0.961 . S
C1513 H1521 0.960 . S
C1514 C1512 1.381 . S
C1514 C1515 1.394 . S
C1514 H1522 0.930 . S
C1515 C1514 1.394 . S
C1515 C1516 1.383 . S
C1515 H1523 0.929 . S
C1516 C1515 1.383 . S
C1516 C1517 1.377 . S
C1517 H1501 0.930 . S
C1517 C1516 1.377 . S
C1517 C1518 1.379 . S
C1518 H1502 0.931 . S
C1518 C1512 1.383 . S
C1518 C1517 1.379 . S
H1519 C1513 0.959 . S
H1520 C1513 0.961 . S
H1521 C1513 0.960 . S
H1522 C1514 0.930 . S
H1523 C1515 0.929 . S
H1524 C1532 0.929 . S
H1525 C1534 0.930 . S
H1526 C1536 0.930 . S
H1527 C1539 0.929 . S
H1528 C1542 0.930 . S
H1529 C1544 0.960 . S
H1530 C1544 0.960 . S
H1531 C1544 0.960 . S
C1532 H1524 0.929 . S
C1532 C1533 1.377 . S
C1532 C1534 1.384 . S
C1533 C1532 1.377 . S
C1533 C1539 1.390 . S
C1534 H1525 0.930 . S
C1534 C1532 1.384 . S
C1534 C1535 1.372 . S
C1535 C1534 1.372 . S
C1535 C1536 1.400 . S
C1535 C1540 1.490 . S
C1536 H1526 0.930 . S
C1536 C1535 1.400 . S
C1536 C1539 1.386 . S
H1537 C1553 0.930 . S
H1538 C1554 0.931 . S
C1539 H1527 0.929 . S
C1539 C1533 1.390 . S
C1539 C1536 1.386 . S
C1540 C1535 1.490 . S
C1540 C1542 1.395 . S
C1540 C1543 1.403 . S
H1541 C1547 0.930 . S
C1542 H1528 0.930 . S
C1542 C1540 1.395 . S
C1542 C1545 1.403 . S
C1543 C1540 1.403 . S
C1543 C1544 1.524 . S
C1543 C1547 1.400 . S
C1544 H1529 0.960 . S
C1544 H1530 0.960 . S
C1544 H1531 0.960 . S
C1544 C1543 1.524 . S
C1545 C1542 1.403 . S
C1545 C1546 1.392 . S
C1545 C1549 1.495 . S
C1546 C1545 1.392 . S
C1546 C1547 1.385 . S
C1546 C1548 1.478 . S
C1547 H1541 0.930 . S
C1547 C1543 1.400 . S
C1547 C1546 1.385 . S
C1548 C1546 1.478 . S
C1548 C1550 1.381 . S
C1548 C1554 1.383 . S
C1549 C1545 1.495 . S
C1549 H1555 0.959 . S
C1549 H1556 0.961 . S
C1549 H1557 0.960 . S
C1550 C1548 1.381 . S
C1550 C1551 1.394 . S
C1550 H1558 0.930 . S
C1551 C1550 1.394 . S
C1551 C1552 1.383 . S
C1551 H1559 0.929 . S
C1552 C1551 1.383 . S
C1552 C1553 1.377 . S
C1553 H1537 0.930 . S
C1553 C1552 1.377 . S
C1553 C1554 1.379 . S
C1554 H1538 0.931 . S
C1554 C1548 1.383 . S
C1554 C1553 1.379 . S
H1555 C1549 0.959 . S
H1556 C1549 0.961 . S
H1557 C1549 0.960 . S
H1558 C1550 0.930 . S
H1559 C1551 0.929 . S
H1560 C1568 0.929 . S
H1561 C1570 0.930 . S
H1562 C1572 0.930 . S
H1563 C1575 0.929 . S
H1564 C1578 0.930 . S
H1565 C1580 0.960 . S
H1566 C1580 0.960 . S
H1567 C1580 0.960 . S
C1568 H1560 0.929 . S
C1568 C1569 1.377 . S
C1568 C1570 1.384 . S
C1569 C1568 1.377 . S
C1569 C1575 1.390 . S
C1570 H1561 0.930 . S
C1570 C1568 1.384 . S
C1570 C1571 1.372 . S
C1571 C1570 1.372 . S
C1571 C1572 1.400 . S
C1571 C1576 1.490 . S
C1572 H1562 0.930 . S
C1572 C1571 1.400 . S
C1572 C1575 1.386 . S
H1573 C1589 0.930 . S
H1574 C1590 0.931 . S
C1575 H1563 0.929 . S
C1575 C1569 1.390 . S
C1575 C1572 1.386 . S
C1576 C1571 1.490 . S
C1576 C1578 1.395 . S
C1576 C1579 1.403 . S
H1577 C1583 0.930 . S
C1578 H1564 0.930 . S
C1578 C1576 1.395 . S
C1578 C1581 1.403 . S
C1579 C1576 1.403 . S
C1579 C1580 1.524 . S
C1579 C1583 1.400 . S
C1580 H1565 0.960 . S
C1580 H1566 0.960 . S
C1580 H1567 0.960 . S
C1580 C1579 1.524 . S
C1581 C1578 1.403 . S
C1581 C1582 1.392 . S
C1581 C1585 1.495 . S
C1582 C1581 1.392 . S
C1582 C1583 1.385 . S
C1582 C1584 1.478 . S
C1583 H1577 0.930 . S
C1583 C1579 1.400 . S
C1583 C1582 1.385 . S
C1584 C1582 1.478 . S
C1584 C1586 1.381 . S
C1584 C1590 1.383 . S
C1585 C1581 1.495 . S
C1585 H1591 0.959 . S
C1585 H1592 0.961 . S
C1585 H1593 0.960 . S
C1586 C1584 1.381 . S
C1586 C1587 1.394 . S
C1586 H1594 0.930 . S
C1587 C1586 1.394 . S
C1587 C1588 1.383 . S
C1587 H1595 0.929 . S
C1588 C1587 1.383 . S
C1588 C1589 1.377 . S
C1589 H1573 0.930 . S
C1589 C1588 1.377 . S
C1589 C1590 1.379 . S
C1590 H1574 0.931 . S
C1590 C1584 1.383 . S
C1590 C1589 1.379 . S
H1591 C1585 0.959 . S
H1592 C1585 0.961 . S
H1593 C1585 0.960 . S
H1594 C1586 0.930 . S
H1595 C1587 0.929 . S
H1596 C1604 0.925 . S
H1597 C1606 0.930 . S
H1598 C1608 0.930 . S
H1599 C1611 0.929 . S
H1600 C1614 0.930 . S
H1601 C1616 0.960 . S
H1602 C1616 0.960 . S
H1603 C1616 0.960 . S
C1604 H1596 0.925 . S
C1604 C1605 1.378 1_455 S
C1604 C1606 1.387 1_455 S
C1605 C1604 1.378 1_655 S
C1605 C1611 1.390 . S
C1606 H1597 0.930 . S
C1606 C1604 1.387 1_655 S
C1606 C1607 1.372 . S
C1607 C1606 1.372 . S
C1607 C1608 1.400 . S
C1607 C1612 1.490 . S
C1608 H1598 0.930 . S
C1608 C1607 1.400 . S
C1608 C1611 1.386 . S
H1609 C1625 0.930 . S
H1610 C1626 0.931 . S
C1611 H1599 0.929 . S
C1611 C1605 1.390 . S
C1611 C1608 1.386 . S
C1612 C1607 1.490 . S
C1612 C1614 1.395 . S
C1612 C1615 1.403 . S
H1613 C1619 0.930 . S
C1614 H1600 0.930 . S
C1614 C1612 1.395 . S
C1614 C1617 1.403 . S
C1615 C1612 1.403 . S
C1615 C1616 1.524 . S
C1615 C1619 1.400 . S
C1616 H1601 0.960 . S
C1616 H1602 0.960 . S
C1616 H1603 0.960 . S
C1616 C1615 1.524 . S
C1617 C1614 1.403 . S
C1617 C1618 1.392 . S
C1617 C1621 1.495 . S
C1618 C1617 1.392 . S
C1618 C1619 1.385 . S
C1618 C1620 1.478 . S
C1619 H1613 0.930 . S
C1619 C1615 1.400 . S
C1619 C1618 1.385 . S
C1620 C1618 1.478 . S
C1620 C1622 1.381 . S
C1620 C1626 1.383 . S
C1621 C1617 1.495 . S
C1621 H1627 0.959 . S
C1621 H1628 0.961 . S
C1621 H1629 0.960 . S
C1622 C1620 1.381 . S
C1622 C1623 1.394 . S
C1622 H1630 0.930 . S
C1623 C1622 1.394 . S
C1623 C1624 1.383 . S
C1623 H1631 0.929 . S
C1624 C1623 1.383 . S
C1624 C1625 1.377 . S
C1625 H1609 0.930 . S
C1625 C1624 1.377 . S
C1625 C1626 1.379 . S
C1626 H1610 0.931 . S
C1626 C1620 1.383 . S
C1626 C1625 1.379 . S
H1627 C1621 0.959 . S
H1628 C1621 0.961 . S
H1629 C1621 0.960 . S
H1630 C1622 0.930 . S
H1631 C1623 0.929 . S
H1632 C1640 0.929 . S
H1633 C1642 0.930 . S
H1634 C1644 0.930 . S
H1635 C1647 0.929 . S
H1636 C1650 0.930 . S
H1637 C1652 0.960 . S
H1638 C1652 0.960 . S
H1639 C1652 0.960 . S
C1640 H1632 0.929 . S
C1640 C1641 1.377 . S
C1640 C1642 1.384 . S
C1641 C1640 1.377 . S
C1641 C1647 1.390 . S
C1642 H1633 0.930 . S
C1642 C1640 1.384 . S
C1642 C1643 1.372 . S
C1643 C1642 1.372 . S
C1643 C1644 1.400 . S
C1643 C1648 1.490 . S
C1644 H1634 0.930 . S
C1644 C1643 1.400 . S
C1644 C1647 1.386 . S
H1645 C1661 0.930 . S
H1646 C1662 0.931 . S
C1647 H1635 0.929 . S
C1647 C1641 1.390 . S
C1647 C1644 1.386 . S
C1648 C1643 1.490 . S
C1648 C1650 1.395 . S
C1648 C1651 1.403 . S
H1649 C1655 0.930 . S
C1650 H1636 0.930 . S
C1650 C1648 1.395 . S
C1650 C1653 1.403 . S
C1651 C1648 1.403 . S
C1651 C1652 1.524 . S
C1651 C1655 1.400 . S
C1652 H1637 0.960 . S
C1652 H1638 0.960 . S
C1652 H1639 0.960 . S
C1652 C1651 1.524 . S
C1653 C1650 1.403 . S
C1653 C1654 1.392 . S
C1653 C1657 1.495 . S
C1654 C1653 1.392 . S
C1654 C1655 1.385 . S
C1654 C1656 1.478 . S
C1655 H1649 0.930 . S
C1655 C1651 1.400 . S
C1655 C1654 1.385 . S
C1656 C1654 1.478 . S
C1656 C1658 1.381 . S
C1656 C1662 1.383 . S
C1657 C1653 1.495 . S
C1657 H1663 0.959 . S
C1657 H1664 0.961 . S
C1657 H1665 0.960 . S
C1658 C1656 1.381 . S
C1658 C1659 1.394 . S
C1658 H1666 0.930 . S
C1659 C1658 1.394 . S
C1659 C1660 1.383 . S
C1659 H1667 0.929 . S
C1660 C1659 1.383 . S
C1660 C1661 1.377 . S
C1661 H1645 0.930 . S
C1661 C1660 1.377 . S
C1661 C1662 1.379 . S
C1662 H1646 0.931 . S
C1662 C1656 1.383 . S
C1662 C1661 1.379 . S
H1663 C1657 0.959 . S
H1664 C1657 0.961 . S
H1665 C1657 0.960 . S
H1666 C1658 0.930 . S
H1667 C1659 0.929 . S
H1668 C1676 0.929 . S
H1669 C1678 0.930 . S
H1670 C1680 0.930 . S
H1671 C1683 0.929 . S
H1672 C1686 0.930 . S
H1673 C1688 0.960 . S
H1674 C1688 0.960 . S
H1675 C1688 0.960 . S
C1676 H1668 0.929 . S
C1676 C1677 1.377 . S
C1676 C1678 1.384 . S
C1677 C1676 1.377 . S
C1677 C1683 1.390 . S
C1678 H1669 0.930 . S
C1678 C1676 1.384 . S
C1678 C1679 1.372 . S
C1679 C1678 1.372 . S
C1679 C1680 1.400 . S
C1679 C1684 1.490 . S
C1680 H1670 0.930 . S
C1680 C1679 1.400 . S
C1680 C1683 1.386 . S
H1681 C1697 0.930 . S
H1682 C1698 0.931 . S
C1683 H1671 0.929 . S
C1683 C1677 1.390 . S
C1683 C1680 1.386 . S
C1684 C1679 1.490 . S
C1684 C1686 1.395 . S
C1684 C1687 1.403 . S
H1685 C1691 0.930 . S
C1686 H1672 0.930 . S
C1686 C1684 1.395 . S
C1686 C1689 1.403 . S
C1687 C1684 1.403 . S
C1687 C1688 1.524 . S
C1687 C1691 1.400 . S
C1688 H1673 0.960 . S
C1688 H1674 0.960 . S
C1688 H1675 0.960 . S
C1688 C1687 1.524 . S
C1689 C1686 1.403 . S
C1689 C1690 1.392 . S
C1689 C1693 1.495 . S
C1690 C1689 1.392 . S
C1690 C1691 1.385 . S
C1690 C1692 1.478 . S
C1691 H1685 0.930 . S
C1691 C1687 1.400 . S
C1691 C1690 1.385 . S
C1692 C1690 1.478 . S
C1692 C1694 1.381 . S
C1692 C1698 1.383 . S
C1693 C1689 1.495 . S
C1693 H1699 0.959 . S
C1693 H1700 0.961 . S
C1693 H1701 0.960 . S
C1694 C1692 1.381 . S
C1694 C1695 1.394 . S
C1694 H1702 0.930 . S
C1695 C1694 1.394 . S
C1695 C1696 1.383 . S
C1695 H1703 0.929 . S
C1696 C1695 1.383 . S
C1696 C1697 1.377 . S
C1697 H1681 0.930 . S
C1697 C1696 1.377 . S
C1697 C1698 1.379 . S
C1698 H1682 0.931 . S
C1698 C1692 1.383 . S
C1698 C1697 1.379 . S
H1699 C1693 0.959 . S
H1700 C1693 0.961 . S
H1701 C1693 0.960 . S
H1702 C1694 0.930 . S
H1703 C1695 0.929 . S
H1704 C1712 0.929 . S
H1705 C1714 0.930 . S
H1706 C1716 0.930 . S
H1707 C1719 0.929 . S
H1708 C1722 0.930 . S
H1709 C1724 0.960 . S
H1710 C1724 0.960 . S
H1711 C1724 0.960 . S
C1712 H1704 0.929 . S
C1712 C1713 1.377 . S
C1712 C1714 1.384 . S
C1713 C1712 1.377 . S
C1713 C1719 1.390 . S
C1714 H1705 0.930 . S
C1714 C1712 1.384 . S
C1714 C1715 1.372 . S
C1715 C1714 1.372 . S
C1715 C1716 1.400 . S
C1715 C1720 1.490 . S
C1716 H1706 0.930 . S
C1716 C1715 1.400 . S
C1716 C1719 1.386 . S
H1717 C1733 0.930 . S
H1718 C1734 0.931 . S
C1719 H1707 0.929 . S
C1719 C1713 1.390 . S
C1719 C1716 1.386 . S
C1720 C1715 1.490 . S
C1720 C1722 1.395 . S
C1720 C1723 1.403 . S
H1721 C1727 0.930 . S
C1722 H1708 0.930 . S
C1722 C1720 1.395 . S
C1722 C1725 1.403 . S
C1723 C1720 1.403 . S
C1723 C1724 1.524 . S
C1723 C1727 1.400 . S
C1724 H1709 0.960 . S
C1724 H1710 0.960 . S
C1724 H1711 0.960 . S
C1724 C1723 1.524 . S
C1725 C1722 1.403 . S
C1725 C1726 1.392 . S
C1725 C1729 1.495 . S
C1726 C1725 1.392 . S
C1726 C1727 1.385 . S
C1726 C1728 1.478 . S
C1727 H1721 0.930 . S
C1727 C1723 1.400 . S
C1727 C1726 1.385 . S
C1728 C1726 1.478 . S
C1728 C1730 1.381 . S
C1728 C1734 1.383 . S
C1729 C1725 1.495 . S
C1729 H1735 0.959 . S
C1729 H1736 0.961 . S
C1729 H1737 0.960 . S
C1730 C1728 1.381 . S
C1730 C1731 1.394 . S
C1730 H1738 0.930 . S
C1731 C1730 1.394 . S
C1731 C1732 1.383 . S
C1731 H1739 0.929 . S
C1732 C1731 1.383 . S
C1732 C1733 1.377 . S
C1733 H1717 0.930 . S
C1733 C1732 1.377 . S
C1733 C1734 1.379 . S
C1734 H1718 0.931 . S
C1734 C1728 1.383 . S
C1734 C1733 1.379 . S
H1735 C1729 0.959 . S
H1736 C1729 0.961 . S
H1737 C1729 0.960 . S
H1738 C1730 0.930 . S
H1739 C1731 0.929 . S
H1740 C1748 0.929 . S
H1741 C1750 0.930 . S
H1742 C1752 0.930 . S
H1743 C1755 0.929 . S
H1744 C1758 0.930 . S
H1745 C1760 0.960 . S
H1746 C1760 0.960 . S
H1747 C1760 0.960 . S
C1748 H1740 0.929 . S
C1748 C1749 1.377 . S
C1748 C1750 1.384 . S
C1749 C1748 1.377 . S
C1749 C1755 1.390 . S
C1750 H1741 0.930 . S
C1750 C1748 1.384 . S
C1750 C1751 1.372 . S
C1751 C1750 1.372 . S
C1751 C1752 1.400 . S
C1751 C1756 1.490 . S
C1752 H1742 0.930 . S
C1752 C1751 1.400 . S
C1752 C1755 1.386 . S
H1753 C1769 0.930 . S
H1754 C1770 0.931 . S
C1755 H1743 0.929 . S
C1755 C1749 1.390 . S
C1755 C1752 1.386 . S
C1756 C1751 1.490 . S
C1756 C1758 1.395 . S
C1756 C1759 1.403 . S
H1757 C1763 0.930 . S
C1758 H1744 0.930 . S
C1758 C1756 1.395 . S
C1758 C1761 1.403 . S
C1759 C1756 1.403 . S
C1759 C1760 1.524 . S
C1759 C1763 1.400 . S
C1760 H1745 0.960 . S
C1760 H1746 0.960 . S
C1760 H1747 0.960 . S
C1760 C1759 1.524 . S
C1761 C1758 1.403 . S
C1761 C1762 1.392 . S
C1761 C1765 1.495 . S
C1762 C1761 1.392 . S
C1762 C1763 1.385 . S
C1762 C1764 1.478 . S
C1763 H1757 0.930 . S
C1763 C1759 1.400 . S
C1763 C1762 1.385 . S
C1764 C1762 1.478 . S
C1764 C1766 1.381 . S
C1764 C1770 1.383 . S
C1765 C1761 1.495 . S
C1765 H1771 0.959 . S
C1765 H1772 0.961 . S
C1765 H1773 0.960 . S
C1766 C1764 1.381 . S
C1766 C1767 1.394 . S
C1766 H1774 0.930 . S
C1767 C1766 1.394 . S
C1767 C1768 1.383 . S
C1767 H1775 0.929 . S
C1768 C1767 1.383 . S
C1768 C1769 1.377 . S
C1769 H1753 0.930 . S
C1769 C1768 1.377 . S
C1769 C1770 1.379 . S
C1770 H1754 0.931 . S
C1770 C1764 1.383 . S
C1770 C1769 1.379 . S
H1771 C1765 0.959 . S
H1772 C1765 0.961 . S
H1773 C1765 0.960 . S
H1774 C1766 0.930 . S
H1775 C1767 0.929 . S
H1776 C1784 0.929 . S
H1777 C1786 0.930 . S
H1778 C1788 0.930 . S
H1779 C1791 0.929 . S
H1780 C1794 0.930 . S
H1781 C1796 0.960 . S
H1782 C1796 0.960 . S
H1783 C1796 0.960 . S
C1784 H1776 0.929 . S
C1784 C1785 1.377 . S
C1784 C1786 1.384 . S
C1785 C1784 1.377 . S
C1785 C1791 1.390 . S
C1786 H1777 0.930 . S
C1786 C1784 1.384 . S
C1786 C1787 1.372 . S
C1787 C1786 1.372 . S
C1787 C1788 1.400 . S
C1787 C1792 1.490 . S
C1788 H1778 0.930 . S
C1788 C1787 1.400 . S
C1788 C1791 1.386 . S
H1789 C1805 0.930 . S
H1790 C1806 0.931 . S
C1791 H1779 0.929 . S
C1791 C1785 1.390 . S
C1791 C1788 1.386 . S
C1792 C1787 1.490 . S
C1792 C1794 1.395 . S
C1792 C1795 1.403 . S
H1793 C1799 0.930 . S
C1794 H1780 0.930 . S
C1794 C1792 1.395 . S
C1794 C1797 1.403 . S
C1795 C1792 1.403 . S
C1795 C1796 1.524 . S
C1795 C1799 1.400 . S
C1796 H1781 0.960 . S
C1796 H1782 0.960 . S
C1796 H1783 0.960 . S
C1796 C1795 1.524 . S
C1797 C1794 1.403 . S
C1797 C1798 1.392 . S
C1797 C1801 1.495 . S
C1798 C1797 1.392 . S
C1798 C1799 1.385 . S
C1798 C1800 1.478 . S
C1799 H1793 0.930 . S
C1799 C1795 1.400 . S
C1799 C1798 1.385 . S
C1800 C1798 1.478 . S
C1800 C1802 1.381 . S
C1800 C1806 1.383 . S
C1801 C1797 1.495 . S
C1801 H1807 0.959 . S
C1801 H1808 0.961 . S
C1801 H1809 0.960 . S
C1802 C1800 1.381 . S
C1802 C1803 1.394 . S
C1802 H1810 0.930 . S
C1803 C1802 1.394 . S
C1803 C1804 1.383 . S
C1803 H1811 0.929 . S
C1804 C1803 1.383 . S
C1804 C1805 1.377 . S
C1805 H1789 0.930 . S
C1805 C1804 1.377 . S
C1805 C1806 1.379 . S
C1806 H1790 0.931 . S
C1806 C1800 1.383 . S
C1806 C1805 1.379 . S
H1807 C1801 0.959 . S
H1808 C1801 0.961 . S
H1809 C1801 0.960 . S
H1810 C1802 0.930 . S
H1811 C1803 0.929 . S
H1812 C1820 0.929 . S
H1813 C1822 0.930 . S
H1814 C1824 0.930 . S
H1815 C1827 0.929 1_455 S
H1816 C1830 0.930 . S
H1817 C1832 0.960 . S
H1818 C1832 0.960 . S
H1819 C1832 0.960 . S
C1820 H1812 0.929 . S
C1820 C1821 1.377 . S
C1820 C1822 1.384 . S
C1821 C1820 1.377 . S
C1821 C1827 1.390 . S
C1822 H1813 0.930 . S
C1822 C1820 1.384 . S
C1822 C1823 1.372 . S
C1823 C1822 1.372 . S
C1823 C1824 1.400 . S
C1823 C1828 1.490 . S
C1824 H1814 0.930 . S
C1824 C1823 1.400 . S
C1824 C1827 1.386 . S
H1825 C1841 0.930 . S
H1826 C1842 0.931 . S
C1827 H1815 0.929 1_655 S
C1827 C1821 1.390 . S
C1827 C1824 1.386 . S
C1828 C1823 1.490 . S
C1828 C1830 1.395 . S
C1828 C1831 1.403 . S
H1829 C1835 0.930 . S
C1830 H1816 0.930 . S
C1830 C1828 1.395 . S
C1830 C1833 1.403 . S
C1831 C1828 1.403 . S
C1831 C1832 1.524 . S
C1831 C1835 1.400 . S
C1832 H1817 0.960 . S
C1832 H1818 0.960 . S
C1832 H1819 0.960 . S
C1832 C1831 1.524 . S
C1833 C1830 1.403 . S
C1833 C1834 1.392 . S
C1833 C1837 1.495 . S
C1834 C1833 1.392 . S
C1834 C1835 1.385 . S
C1834 C1836 1.478 . S
C1835 H1829 0.930 . S
C1835 C1831 1.400 . S
C1835 C1834 1.385 . S
C1836 C1834 1.478 . S
C1836 C1838 1.381 . S
C1836 C1842 1.383 . S
C1837 C1833 1.495 . S
C1837 H1843 0.959 . S
C1837 H1844 0.961 . S
C1837 H1845 0.960 . S
C1838 C1836 1.381 . S
C1838 C1839 1.394 . S
C1838 H1846 0.930 . S
C1839 C1838 1.394 . S
C1839 C1840 1.383 . S
C1839 H1847 0.929 . S
C1840 C1839 1.383 . S
C1840 C1841 1.377 . S
C1841 H1825 0.930 . S
C1841 C1840 1.377 . S
C1841 C1842 1.379 . S
C1842 H1826 0.931 . S
C1842 C1836 1.383 . S
C1842 C1841 1.379 . S
H1843 C1837 0.959 . S
H1844 C1837 0.961 . S
H1845 C1837 0.960 . S
H1846 C1838 0.930 . S
H1847 C1839 0.929 . S
H1848 C1856 0.929 . S
H1849 C1858 0.930 . S
H1850 C1860 0.930 . S
H1851 C1863 0.929 . S
H1852 C1866 0.930 . S
H1853 C1868 0.960 . S
H1854 C1868 0.960 . S
H1855 C1868 0.960 . S
C1856 H1848 0.929 . S
C1856 C1857 1.377 . S
C1856 C1858 1.384 . S
C1857 C1856 1.377 . S
C1857 C1863 1.390 . S
C1858 H1849 0.930 . S
C1858 C1856 1.384 . S
C1858 C1859 1.372 . S
C1859 C1858 1.372 . S
C1859 C1860 1.400 . S
C1859 C1864 1.490 . S
C1860 H1850 0.930 . S
C1860 C1859 1.400 . S
C1860 C1863 1.386 . S
H1861 C1877 0.930 . S
H1862 C1878 0.931 . S
C1863 H1851 0.929 . S
C1863 C1857 1.390 . S
C1863 C1860 1.386 . S
C1864 C1859 1.490 . S
C1864 C1866 1.395 . S
C1864 C1867 1.403 . S
H1865 C1871 0.930 . S
C1866 H1852 0.930 . S
C1866 C1864 1.395 . S
C1866 C1869 1.403 . S
C1867 C1864 1.403 . S
C1867 C1868 1.524 . S
C1867 C1871 1.400 . S
C1868 H1853 0.960 . S
C1868 H1854 0.960 . S
C1868 H1855 0.960 . S
C1868 C1867 1.524 . S
C1869 C1866 1.403 . S
C1869 C1870 1.392 . S
C1869 C1873 1.495 . S
C1870 C1869 1.392 . S
C1870 C1871 1.385 . S
C1870 C1872 1.478 . S
C1871 H1865 0.930 . S
C1871 C1867 1.400 . S
C1871 C1870 1.385 . S
C1872 C1870 1.478 . S
C1872 C1874 1.381 . S
C1872 C1878 1.383 . S
C1873 C1869 1.495 . S
C1873 H1879 0.959 . S
C1873 H1880 0.961 . S
C1873 H1881 0.960 . S
C1874 C1872 1.381 . S
C1874 C1875 1.394 . S
C1874 H1882 0.930 . S
C1875 C1874 1.394 . S
C1875 C1876 1.383 . S
C1875 H1883 0.929 . S
C1876 C1875 1.383 . S
C1876 C1877 1.377 . S
C1877 H1861 0.930 . S
C1877 C1876 1.377 . S
C1877 C1878 1.379 . S
C1878 H1862 0.931 . S
C1878 C1872 1.383 . S
C1878 C1877 1.379 . S
H1879 C1873 0.959 . S
H1880 C1873 0.961 . S
H1881 C1873 0.960 . S
H1882 C1874 0.930 . S
H1883 C1875 0.929 . S
H1884 C1892 0.929 . S
H1885 C1894 0.930 . S
H1886 C1896 0.930 . S
H1887 C1899 0.929 . S
H1888 C1902 0.930 . S
H1889 C1904 0.960 . S
H1890 C1904 0.960 . S
H1891 C1904 0.960 . S
C1892 H1884 0.929 . S
C1892 C1893 1.377 . S
C1892 C1894 1.384 . S
C1893 C1892 1.377 . S
C1893 C1899 1.390 . S
C1894 H1885 0.930 . S
C1894 C1892 1.384 . S
C1894 C1895 1.372 . S
C1895 C1894 1.372 . S
C1895 C1896 1.400 . S
C1895 C1900 1.490 . S
C1896 H1886 0.930 . S
C1896 C1895 1.400 . S
C1896 C1899 1.386 . S
H1897 C1913 0.930 . S
H1898 C1914 0.931 . S
C1899 H1887 0.929 . S
C1899 C1893 1.390 . S
C1899 C1896 1.386 . S
C1900 C1895 1.490 . S
C1900 C1902 1.395 . S
C1900 C1903 1.403 . S
H1901 C1907 0.930 . S
C1902 H1888 0.930 . S
C1902 C1900 1.395 . S
C1902 C1905 1.403 . S
C1903 C1900 1.403 . S
C1903 C1904 1.524 . S
C1903 C1907 1.400 . S
C1904 H1889 0.960 . S
C1904 H1890 0.960 . S
C1904 H1891 0.960 . S
C1904 C1903 1.524 . S
C1905 C1902 1.403 . S
C1905 C1906 1.392 . S
C1905 C1909 1.495 . S
C1906 C1905 1.392 . S
C1906 C1907 1.385 . S
C1906 C1908 1.478 . S
C1907 H1901 0.930 . S
C1907 C1903 1.400 . S
C1907 C1906 1.385 . S
C1908 C1906 1.478 . S
C1908 C1910 1.381 . S
C1908 C1914 1.383 . S
C1909 C1905 1.495 . S
C1909 H1915 0.959 . S
C1909 H1916 0.961 . S
C1909 H1917 0.960 . S
C1910 C1908 1.381 . S
C1910 C1911 1.394 . S
C1910 H1918 0.930 . S
C1911 C1910 1.394 . S
C1911 C1912 1.383 . S
C1911 H1919 0.929 . S
C1912 C1911 1.383 . S
C1912 C1913 1.377 . S
C1913 H1897 0.930 . S
C1913 C1912 1.377 . S
C1913 C1914 1.379 . S
C1914 H1898 0.931 . S
C1914 C1908 1.383 . S
C1914 C1913 1.379 . S
H1915 C1909 0.959 . S
H1916 C1909 0.961 . S
H1917 C1909 0.960 . S
H1918 C1910 0.930 . S
H1919 C1911 0.929 . S
H1920 C1928 0.929 . S
H1921 C1930 0.930 . S
H1922 C1932 0.930 . S
H1923 C1935 0.929 . S
H1924 C1938 0.930 . S
H1925 C1940 0.960 . S
H1926 C1940 0.960 . S
H1927 C1940 0.960 . S
C1928 H1920 0.929 . S
C1928 C1929 1.377 . S
C1928 C1930 1.384 . S
C1929 C1928 1.377 . S
C1929 C1935 1.390 . S
C1930 H1921 0.930 . S
C1930 C1928 1.384 . S
C1930 C1931 1.372 . S
C1931 C1930 1.372 . S
C1931 C1932 1.400 . S
C1931 C1936 1.490 . S
C1932 H1922 0.930 . S
C1932 C1931 1.400 . S
C1932 C1935 1.386 . S
H1933 C1949 0.930 . S
H1934 C1950 0.931 . S
C1935 H1923 0.929 . S
C1935 C1929 1.390 . S
C1935 C1932 1.386 . S
C1936 C1931 1.490 . S
C1936 C1938 1.395 . S
C1936 C1939 1.403 . S
H1937 C1943 0.930 . S
C1938 H1924 0.930 . S
C1938 C1936 1.395 . S
C1938 C1941 1.403 . S
C1939 C1936 1.403 . S
C1939 C1940 1.524 . S
C1939 C1943 1.400 . S
C1940 H1925 0.960 . S
C1940 H1926 0.960 . S
C1940 H1927 0.960 . S
C1940 C1939 1.524 . S
C1941 C1938 1.403 . S
C1941 C1942 1.392 . S
C1941 C1945 1.495 . S
C1942 C1941 1.392 . S
C1942 C1943 1.385 . S
C1942 C1944 1.478 . S
C1943 H1937 0.930 . S
C1943 C1939 1.400 . S
C1943 C1942 1.385 . S
C1944 C1942 1.478 . S
C1944 C1946 1.381 . S
C1944 C1950 1.383 . S
C1945 C1941 1.495 . S
C1945 H1951 0.959 . S
C1945 H1952 0.961 . S
C1945 H1953 0.960 . S
C1946 C1944 1.381 . S
C1946 C1947 1.394 . S
C1946 H1954 0.930 . S
C1947 C1946 1.394 . S
C1947 C1948 1.383 . S
C1947 H1955 0.929 . S
C1948 C1947 1.383 . S
C1948 C1949 1.377 . S
C1949 H1933 0.930 . S
C1949 C1948 1.377 . S
C1949 C1950 1.379 . S
C1950 H1934 0.931 . S
C1950 C1944 1.383 . S
C1950 C1949 1.379 . S
H1951 C1945 0.959 . S
H1952 C1945 0.961 . S
H1953 C1945 0.960 . S
H1954 C1946 0.930 . S
H1955 C1947 0.929 . S
H1956 C1964 0.929 . S
H1957 C1966 0.930 . S
H1958 C1968 0.930 . S
H1959 C1971 0.929 . S
H1960 C1974 0.930 . S
H1961 C1976 0.960 . S
H1962 C1976 0.960 . S
H1963 C1976 0.960 . S
C1964 H1956 0.929 . S
C1964 C1965 1.377 . S
C1964 C1966 1.384 . S
C1965 C1964 1.377 . S
C1965 C1971 1.390 . S
C1966 H1957 0.930 . S
C1966 C1964 1.384 . S
C1966 C1967 1.372 . S
C1967 C1966 1.372 . S
C1967 C1968 1.400 . S
C1967 C1972 1.490 . S
C1968 H1958 0.930 . S
C1968 C1967 1.400 . S
C1968 C1971 1.386 . S
H1969 C1985 0.930 . S
H1970 C1986 0.931 . S
C1971 H1959 0.929 . S
C1971 C1965 1.390 . S
C1971 C1968 1.386 . S
C1972 C1967 1.490 . S
C1972 C1974 1.395 . S
C1972 C1975 1.403 . S
H1973 C1979 0.930 . S
C1974 H1960 0.930 . S
C1974 C1972 1.395 . S
C1974 C1977 1.403 . S
C1975 C1972 1.403 . S
C1975 C1976 1.524 . S
C1975 C1979 1.400 . S
C1976 H1961 0.960 . S
C1976 H1962 0.960 . S
C1976 H1963 0.960 . S
C1976 C1975 1.524 . S
C1977 C1974 1.403 . S
C1977 C1978 1.392 . S
C1977 C1981 1.495 . S
C1978 C1977 1.392 . S
C1978 C1979 1.385 . S
C1978 C1980 1.478 . S
C1979 H1973 0.930 . S
C1979 C1975 1.400 . S
C1979 C1978 1.385 . S
C1980 C1978 1.478 . S
C1980 C1982 1.381 . S
C1980 C1986 1.383 . S
C1981 C1977 1.495 . S
C1981 H1987 0.959 . S
C1981 H1988 0.961 . S
C1981 H1989 0.960 . S
C1982 C1980 1.381 . S
C1982 C1983 1.394 . S
C1982 H1990 0.930 . S
C1983 C1982 1.394 . S
C1983 C1984 1.383 . S
C1983 H1991 0.929 . S
C1984 C1983 1.383 . S
C1984 C1985 1.377 . S
C1985 H1969 0.930 . S
C1985 C1984 1.377 . S
C1985 C1986 1.379 . S
C1986 H1970 0.931 . S
C1986 C1980 1.383 . S
C1986 C1985 1.379 . S
H1987 C1981 0.959 . S
H1988 C1981 0.961 . S
H1989 C1981 0.960 . S
H1990 C1982 0.930 . S
H1991 C1983 0.929 . S
H1992 C2000 0.929 . S
H1993 C2002 0.930 . S
H1994 C2004 0.930 . S
H1995 C2007 0.929 . S
H1996 C2010 0.930 . S
H1997 C2012 0.960 . S
H1998 C2012 0.960 . S
H1999 C2012 0.960 . S
C2000 H1992 0.929 . S
C2000 C2001 1.377 . S
C2000 C2002 1.384 . S
C2001 C2000 1.377 . S
C2001 C2007 1.390 . S
C2002 H1993 0.930 . S
C2002 C2000 1.384 . S
C2002 C2003 1.372 . S
C2003 C2002 1.372 . S
C2003 C2004 1.400 . S
C2003 C2008 1.490 . S
C2004 H1994 0.930 . S
C2004 C2003 1.400 . S
C2004 C2007 1.386 . S
H2005 C2021 0.930 . S
H2006 C2022 0.931 . S
C2007 H1995 0.929 . S
C2007 C2001 1.390 . S
C2007 C2004 1.386 . S
C2008 C2003 1.490 . S
C2008 C2010 1.395 . S
C2008 C2011 1.403 . S
H2009 C2015 0.930 . S
C2010 H1996 0.930 . S
C2010 C2008 1.395 . S
C2010 C2013 1.403 . S
C2011 C2008 1.403 . S
C2011 C2012 1.524 . S
C2011 C2015 1.400 . S
C2012 H1997 0.960 . S
C2012 H1998 0.960 . S
C2012 H1999 0.960 . S
C2012 C2011 1.524 . S
C2013 C2010 1.403 . S
C2013 C2014 1.392 . S
C2013 C2017 1.495 . S
C2014 C2013 1.392 . S
C2014 C2015 1.385 . S
C2014 C2016 1.478 . S
C2015 H2009 0.930 . S
C2015 C2011 1.400 . S
C2015 C2014 1.385 . S
C2016 C2014 1.478 . S
C2016 C2018 1.381 . S
C2016 C2022 1.383 . S
C2017 C2013 1.495 . S
C2017 H2023 0.959 . S
C2017 H2024 0.961 . S
C2017 H2025 0.960 . S
C2018 C2016 1.381 . S
C2018 C2019 1.394 . S
C2018 H2026 0.930 . S
C2019 C2018 1.394 . S
C2019 C2020 1.383 . S
C2019 H2027 0.929 . S
C2020 C2019 1.383 . S
C2020 C2021 1.377 . S
C2021 H2005 0.930 . S
C2021 C2020 1.377 . S
C2021 C2022 1.379 . S
C2022 H2006 0.931 . S
C2022 C2016 1.383 . S
C2022 C2021 1.379 . S
H2023 C2017 0.959 . S
H2024 C2017 0.961 . S
H2025 C2017 0.960 . S
H2026 C2018 0.930 . S
H2027 C2019 0.929 . S
H2028 C2036 0.929 . S
H2029 C2038 0.930 . S
H2030 C2040 0.930 . S
H2031 C2043 0.929 . S
H2032 C2046 0.930 . S
H2033 C2048 0.960 . S
H2034 C2048 0.960 . S
H2035 C2048 0.960 . S
C2036 H2028 0.929 . S
C2036 C2037 1.377 . S
C2036 C2038 1.384 . S
C2037 C2036 1.377 . S
C2037 C2043 1.390 . S
C2038 H2029 0.930 . S
C2038 C2036 1.384 . S
C2038 C2039 1.372 . S
C2039 C2038 1.372 . S
C2039 C2040 1.400 . S
C2039 C2044 1.490 . S
C2040 H2030 0.930 . S
C2040 C2039 1.400 . S
C2040 C2043 1.386 . S
H2041 C2057 0.930 . S
H2042 C2058 0.931 . S
C2043 H2031 0.929 . S
C2043 C2037 1.390 . S
C2043 C2040 1.386 . S
C2044 C2039 1.490 . S
C2044 C2046 1.395 . S
C2044 C2047 1.403 . S
H2045 C2051 0.930 . S
C2046 H2032 0.930 . S
C2046 C2044 1.395 . S
C2046 C2049 1.403 . S
C2047 C2044 1.403 . S
C2047 C2048 1.524 . S
C2047 C2051 1.400 . S
C2048 H2033 0.960 . S
C2048 H2034 0.960 . S
C2048 H2035 0.960 . S
C2048 C2047 1.524 . S
C2049 C2046 1.403 . S
C2049 C2050 1.392 . S
C2049 C2053 1.495 . S
C2050 C2049 1.392 . S
C2050 C2051 1.385 . S
C2050 C2052 1.478 . S
C2051 H2045 0.930 . S
C2051 C2047 1.400 . S
C2051 C2050 1.385 . S
C2052 C2050 1.478 . S
C2052 C2054 1.381 . S
C2052 C2058 1.383 . S
C2053 C2049 1.495 . S
C2053 H2059 0.959 . S
C2053 H2060 0.961 . S
C2053 H2061 0.960 . S
C2054 C2052 1.381 . S
C2054 C2055 1.394 1_455 S
C2054 H2062 0.930 . S
C2055 C2054 1.394 1_655 S
C2055 C2056 1.383 1_655 S
C2055 H2063 0.929 . S
C2056 C2055 1.383 1_455 S
C2056 C2057 1.377 . S
C2057 H2041 0.930 . S
C2057 C2056 1.377 . S
C2057 C2058 1.379 . S
C2058 H2042 0.931 . S
C2058 C2052 1.383 . S
C2058 C2057 1.379 . S
H2059 C2053 0.959 . S
H2060 C2053 0.961 . S
H2061 C2053 0.960 . S
H2062 C2054 0.930 . S
H2063 C2055 0.929 . S
H2064 C2072 0.929 . S
H2065 C2074 0.930 . S
H2066 C2076 0.930 . S
H2067 C2079 0.929 . S
H2068 C2082 0.930 . S
H2069 C2084 0.960 . S
H2070 C2084 0.960 . S
H2071 C2084 0.960 . S
C2072 H2064 0.929 . S
C2072 C2073 1.377 . S
C2072 C2074 1.384 . S
C2073 C2072 1.377 . S
C2073 C2079 1.390 . S
C2074 H2065 0.930 . S
C2074 C2072 1.384 . S
C2074 C2075 1.372 . S
C2075 C2074 1.372 . S
C2075 C2076 1.400 . S
C2075 C2080 1.490 . S
C2076 H2066 0.930 . S
C2076 C2075 1.400 . S
C2076 C2079 1.386 . S
H2077 C2093 0.930 . S
H2078 C2094 0.931 . S
C2079 H2067 0.929 . S
C2079 C2073 1.390 . S
C2079 C2076 1.386 . S
C2080 C2075 1.490 . S
C2080 C2082 1.395 . S
C2080 C2083 1.403 . S
H2081 C2087 0.930 . S
C2082 H2068 0.930 . S
C2082 C2080 1.395 . S
C2082 C2085 1.403 . S
C2083 C2080 1.403 . S
C2083 C2084 1.524 . S
C2083 C2087 1.400 . S
C2084 H2069 0.960 . S
C2084 H2070 0.960 . S
C2084 H2071 0.960 . S
C2084 C2083 1.524 . S
C2085 C2082 1.403 . S
C2085 C2086 1.392 . S
C2085 C2089 1.495 . S
C2086 C2085 1.392 . S
C2086 C2087 1.385 . S
C2086 C2088 1.478 . S
C2087 H2081 0.930 . S
C2087 C2083 1.400 . S
C2087 C2086 1.385 . S
C2088 C2086 1.478 . S
C2088 C2090 1.381 . S
C2088 C2094 1.383 . S
C2089 C2085 1.495 . S
C2089 H2095 0.959 . S
C2089 H2096 0.961 . S
C2089 H2097 0.960 . S
C2090 C2088 1.381 . S
C2090 C2091 1.394 . S
C2090 H2098 0.930 . S
C2091 C2090 1.394 . S
C2091 C2092 1.383 . S
C2091 H2099 0.929 . S
C2092 C2091 1.383 . S
C2092 C2093 1.377 . S
C2093 H2077 0.930 . S
C2093 C2092 1.377 . S
C2093 C2094 1.379 . S
C2094 H2078 0.931 . S
C2094 C2088 1.383 . S
C2094 C2093 1.379 . S
H2095 C2089 0.959 . S
H2096 C2089 0.961 . S
H2097 C2089 0.960 . S
H2098 C2090 0.930 . S
H2099 C2091 0.929 . S
H2100 C2108 0.929 . S
H2101 C2110 0.930 . S
H2102 C2112 0.930 . S
H2103 C2115 0.929 . S
H2104 C2118 0.930 . S
H2105 C2120 0.960 . S
H2106 C2120 0.960 . S
H2107 C2120 0.960 . S
C2108 H2100 0.929 . S
C2108 C2109 1.377 . S
C2108 C2110 1.384 . S
C2109 C2108 1.377 . S
C2109 C2115 1.390 . S
C2110 H2101 0.930 . S
C2110 C2108 1.384 . S
C2110 C2111 1.372 . S
C2111 C2110 1.372 . S
C2111 C2112 1.400 . S
C2111 C2116 1.490 . S
C2112 H2102 0.930 . S
C2112 C2111 1.400 . S
C2112 C2115 1.386 . S
H2113 C2129 0.930 . S
H2114 C2130 0.931 . S
C2115 H2103 0.929 . S
C2115 C2109 1.390 . S
C2115 C2112 1.386 . S
C2116 C2111 1.490 . S
C2116 C2118 1.395 . S
C2116 C2119 1.403 . S
H2117 C2123 0.930 . S
C2118 H2104 0.930 . S
C2118 C2116 1.395 . S
C2118 C2121 1.403 . S
C2119 C2116 1.403 . S
C2119 C2120 1.524 . S
C2119 C2123 1.400 . S
C2120 H2105 0.960 . S
C2120 H2106 0.960 . S
C2120 H2107 0.960 . S
C2120 C2119 1.524 . S
C2121 C2118 1.403 . S
C2121 C2122 1.392 . S
C2121 C2125 1.495 . S
C2122 C2121 1.392 . S
C2122 C2123 1.385 . S
C2122 C2124 1.478 . S
C2123 H2117 0.930 . S
C2123 C2119 1.400 . S
C2123 C2122 1.385 . S
C2124 C2122 1.478 . S
C2124 C2126 1.381 . S
C2124 C2130 1.383 . S
C2125 C2121 1.495 . S
C2125 H2131 0.959 . S
C2125 H2132 0.961 . S
C2125 H2133 0.960 . S
C2126 C2124 1.381 . S
C2126 C2127 1.394 . S
C2126 H2134 0.930 . S
C2127 C2126 1.394 . S
C2127 C2128 1.383 . S
C2127 H2135 0.929 1_455 S
C2128 C2127 1.383 . S
C2128 C2129 1.377 . S
C2129 H2113 0.930 . S
C2129 C2128 1.377 . S
C2129 C2130 1.379 . S
C2130 H2114 0.931 . S
C2130 C2124 1.383 . S
C2130 C2129 1.379 . S
H2131 C2125 0.959 . S
H2132 C2125 0.961 . S
H2133 C2125 0.960 . S
H2134 C2126 0.930 . S
H2135 C2127 0.929 1_655 S
H2136 C2144 0.929 . S
H2137 C2146 0.930 . S
H2138 C2148 0.930 . S
H2139 C2151 0.929 . S
H2140 C2154 0.930 . S
H2141 C2156 0.960 . S
H2142 C2156 0.960 . S
H2143 C2156 0.960 . S
C2144 H2136 0.929 . S
C2144 C2145 1.377 . S
C2144 C2146 1.384 . S
C2145 C2144 1.377 . S
C2145 C2151 1.390 . S
C2146 H2137 0.930 . S
C2146 C2144 1.384 . S
C2146 C2147 1.372 . S
C2147 C2146 1.372 . S
C2147 C2148 1.400 . S
C2147 C2152 1.490 . S
C2148 H2138 0.930 . S
C2148 C2147 1.400 . S
C2148 C2151 1.386 . S
H2149 C2165 0.930 . S
H2150 C2166 0.931 . S
C2151 H2139 0.929 . S
C2151 C2145 1.390 . S
C2151 C2148 1.386 . S
C2152 C2147 1.490 . S
C2152 C2154 1.395 . S
C2152 C2155 1.403 . S
H2153 C2159 0.930 . S
C2154 H2140 0.930 . S
C2154 C2152 1.395 . S
C2154 C2157 1.403 . S
C2155 C2152 1.403 . S
C2155 C2156 1.524 . S
C2155 C2159 1.400 . S
C2156 H2141 0.960 . S
C2156 H2142 0.960 . S
C2156 H2143 0.960 . S
C2156 C2155 1.524 . S
C2157 C2154 1.403 . S
C2157 C2158 1.392 . S
C2157 C2161 1.495 . S
C2158 C2157 1.392 . S
C2158 C2159 1.385 . S
C2158 C2160 1.478 . S
C2159 H2153 0.930 . S
C2159 C2155 1.400 . S
C2159 C2158 1.385 . S
C2160 C2158 1.478 . S
C2160 C2162 1.381 . S
C2160 C2166 1.383 . S
C2161 C2157 1.495 . S
C2161 H2167 0.959 . S
C2161 H2168 0.961 . S
C2161 H2169 0.960 . S
C2162 C2160 1.381 . S
C2162 C2163 1.394 . S
C2162 H2170 0.930 . S
C2163 C2162 1.394 . S
C2163 C2164 1.383 . S
C2163 H2171 0.929 . S
C2164 C2163 1.383 . S
C2164 C2165 1.377 . S
C2165 H2149 0.930 . S
C2165 C2164 1.377 . S
C2165 C2166 1.379 . S
C2166 H2150 0.931 . S
C2166 C2160 1.383 . S
C2166 C2165 1.379 . S
H2167 C2161 0.959 . S
H2168 C2161 0.961 . S
H2169 C2161 0.960 . S
H2170 C2162 0.930 . S
H2171 C2163 0.929 . S
H2172 C2180 0.929 . S
H2173 C2182 0.930 . S
H2174 C2184 0.930 . S
H2175 C2187 0.929 . S
H2176 C2190 0.930 . S
H2177 C2192 0.960 . S
H2178 C2192 0.960 . S
H2179 C2192 0.960 . S
C2180 H2172 0.929 . S
C2180 C2181 1.377 . S
C2180 C2182 1.384 . S
C2181 C2180 1.377 . S
C2181 C2187 1.390 . S
C2182 H2173 0.930 . S
C2182 C2180 1.384 . S
C2182 C2183 1.372 . S
C2183 C2182 1.372 . S
C2183 C2184 1.400 . S
C2183 C2188 1.490 . S
C2184 H2174 0.930 . S
C2184 C2183 1.400 . S
C2184 C2187 1.386 . S
H2185 C2201 0.930 . S
H2186 C2202 0.931 . S
C2187 H2175 0.929 . S
C2187 C2181 1.390 . S
C2187 C2184 1.386 . S
C2188 C2183 1.490 . S
C2188 C2190 1.395 . S
C2188 C2191 1.403 . S
H2189 C2195 0.930 . S
C2190 H2176 0.930 . S
C2190 C2188 1.395 . S
C2190 C2193 1.403 . S
C2191 C2188 1.403 . S
C2191 C2192 1.524 . S
C2191 C2195 1.400 . S
C2192 H2177 0.960 . S
C2192 H2178 0.960 . S
C2192 H2179 0.960 . S
C2192 C2191 1.524 . S
C2193 C2190 1.403 . S
C2193 C2194 1.392 . S
C2193 C2197 1.495 . S
C2194 C2193 1.392 . S
C2194 C2195 1.385 . S
C2194 C2196 1.478 . S
C2195 H2189 0.930 . S
C2195 C2191 1.400 . S
C2195 C2194 1.385 . S
C2196 C2194 1.478 . S
C2196 C2198 1.381 . S
C2196 C2202 1.383 . S
C2197 C2193 1.495 . S
C2197 H2203 0.959 . S
C2197 H2204 0.961 . S
C2197 H2205 0.960 . S
C2198 C2196 1.381 . S
C2198 C2199 1.394 . S
C2198 H2206 0.930 . S
C2199 C2198 1.394 . S
C2199 C2200 1.383 . S
C2199 H2207 0.929 . S
C2200 C2199 1.383 . S
C2200 C2201 1.377 . S
C2201 H2185 0.930 . S
C2201 C2200 1.377 . S
C2201 C2202 1.379 . S
C2202 H2186 0.931 . S
C2202 C2196 1.383 . S
C2202 C2201 1.379 . S
H2203 C2197 0.959 . S
H2204 C2197 0.961 . S
H2205 C2197 0.960 . S
H2206 C2198 0.930 . S
H2207 C2199 0.929 . S
H2208 C2216 0.929 . S
H2209 C2218 0.930 . S
H2210 C2220 0.930 . S
H2211 C2223 0.929 1_545 S
H2212 C2226 0.930 . S
H2213 C2228 0.960 . S
H2214 C2228 0.960 . S
H2215 C2228 0.960 . S
C2216 H2208 0.929 . S
C2216 C2217 1.377 . S
C2216 C2218 1.384 . S
C2217 C2216 1.377 . S
C2217 C2223 1.390 . S
C2218 H2209 0.930 . S
C2218 C2216 1.384 . S
C2218 C2219 1.372 . S
C2219 C2218 1.372 . S
C2219 C2220 1.400 . S
C2219 C2224 1.490 . S
C2220 H2210 0.930 . S
C2220 C2219 1.400 . S
C2220 C2223 1.386 . S
H2221 C2237 0.930 . S
H2222 C2238 0.931 . S
C2223 H2211 0.929 1_565 S
C2223 C2217 1.390 . S
C2223 C2220 1.386 . S
C2224 C2219 1.490 . S
C2224 C2226 1.395 . S
C2224 C2227 1.403 . S
H2225 C2231 0.930 . S
C2226 H2212 0.930 . S
C2226 C2224 1.395 . S
C2226 C2229 1.403 . S
C2227 C2224 1.403 . S
C2227 C2228 1.524 . S
C2227 C2231 1.400 . S
C2228 H2213 0.960 . S
C2228 H2214 0.960 . S
C2228 H2215 0.960 . S
C2228 C2227 1.524 . S
C2229 C2226 1.403 . S
C2229 C2230 1.392 . S
C2229 C2233 1.495 . S
C2230 C2229 1.392 . S
C2230 C2231 1.385 . S
C2230 C2232 1.478 . S
C2231 H2225 0.930 . S
C2231 C2227 1.400 . S
C2231 C2230 1.385 . S
C2232 C2230 1.478 . S
C2232 C2234 1.381 . S
C2232 C2238 1.383 . S
C2233 C2229 1.495 . S
C2233 H2239 0.959 . S
C2233 H2240 0.961 . S
C2233 H2241 0.960 . S
C2234 C2232 1.381 . S
C2234 C2235 1.394 . S
C2234 H2242 0.930 . S
C2235 C2234 1.394 . S
C2235 C2236 1.383 . S
C2235 H2243 0.929 . S
C2236 C2235 1.383 . S
C2236 C2237 1.377 . S
C2237 H2221 0.930 . S
C2237 C2236 1.377 . S
C2237 C2238 1.379 . S
C2238 H2222 0.931 . S
C2238 C2232 1.383 . S
C2238 C2237 1.379 . S
H2239 C2233 0.959 . S
H2240 C2233 0.961 . S
H2241 C2233 0.960 . S
H2242 C2234 0.930 . S
H2243 C2235 0.929 . S
H2244 C2252 0.929 1_545 S
H2245 C2254 0.930 . S
H2246 C2256 0.930 . S
H2247 C2259 0.929 . S
H2248 C2262 0.930 . S
H2249 C2264 0.960 . S
H2250 C2264 0.960 . S
H2251 C2264 0.960 . S
C2252 H2244 0.929 1_565 S
C2252 C2253 1.377 . S
C2252 C2254 1.384 . S
C2253 C2252 1.377 . S
C2253 C2259 1.390 . S
C2254 H2245 0.930 . S
C2254 C2252 1.384 . S
C2254 C2255 1.372 . S
C2255 C2254 1.372 . S
C2255 C2256 1.400 . S
C2255 C2260 1.490 . S
C2256 H2246 0.930 . S
C2256 C2255 1.400 . S
C2256 C2259 1.386 . S
H2257 C2273 0.930 . S
H2258 C2274 0.931 . S
C2259 H2247 0.929 . S
C2259 C2253 1.390 . S
C2259 C2256 1.386 . S
C2260 C2255 1.490 . S
C2260 C2262 1.395 . S
C2260 C2263 1.403 . S
H2261 C2267 0.930 . S
C2262 H2248 0.930 . S
C2262 C2260 1.395 . S
C2262 C2265 1.403 . S
C2263 C2260 1.403 . S
C2263 C2264 1.524 . S
C2263 C2267 1.400 . S
C2264 H2249 0.960 . S
C2264 H2250 0.960 . S
C2264 H2251 0.960 . S
C2264 C2263 1.524 . S
C2265 C2262 1.403 . S
C2265 C2266 1.392 . S
C2265 C2269 1.495 . S
C2266 C2265 1.392 . S
C2266 C2267 1.385 . S
C2266 C2268 1.478 . S
C2267 H2261 0.930 . S
C2267 C2263 1.400 . S
C2267 C2266 1.385 . S
C2268 C2266 1.478 . S
C2268 C2270 1.381 . S
C2268 C2274 1.383 . S
C2269 C2265 1.495 . S
C2269 H2275 0.959 . S
C2269 H2276 0.961 . S
C2269 H2277 0.960 . S
C2270 C2268 1.381 . S
C2270 C2271 1.394 . S
C2270 H2278 0.930 . S
C2271 C2270 1.394 . S
C2271 C2272 1.383 . S
C2271 H2279 0.929 . S
C2272 C2271 1.383 . S
C2272 C2273 1.377 . S
C2273 H2257 0.930 . S
C2273 C2272 1.377 . S
C2273 C2274 1.379 . S
C2274 H2258 0.931 . S
C2274 C2268 1.383 . S
C2274 C2273 1.379 . S
H2275 C2269 0.959 . S
H2276 C2269 0.961 . S
H2277 C2269 0.960 . S
H2278 C2270 0.930 . S
H2279 C2271 0.929 . S
H2280 C2288 0.929 . S
H2281 C2290 0.930 . S
H2282 C2292 0.930 . S
H2283 C2295 0.929 . S
H2284 C2298 0.930 . S
H2285 C2300 0.960 . S
H2286 C2300 0.960 . S
H2287 C2300 0.960 . S
C2288 H2280 0.929 . S
C2288 C2289 1.377 . S
C2288 C2290 1.384 . S
C2289 C2288 1.377 . S
C2289 C2295 1.390 . S
C2290 H2281 0.930 . S
C2290 C2288 1.384 . S
C2290 C2291 1.372 . S
C2291 C2290 1.372 . S
C2291 C2292 1.400 . S
C2291 C2296 1.490 . S
C2292 H2282 0.930 . S
C2292 C2291 1.400 . S
C2292 C2295 1.386 . S
H2293 C2309 0.930 1_565 S
H2294 C2310 0.931 . S
C2295 H2283 0.929 . S
C2295 C2289 1.390 . S
C2295 C2292 1.386 . S
C2296 C2291 1.490 . S
C2296 C2298 1.395 . S
C2296 C2299 1.403 . S
H2297 C2303 0.930 . S
C2298 H2284 0.930 . S
C2298 C2296 1.395 . S
C2298 C2301 1.403 . S
C2299 C2296 1.403 . S
C2299 C2300 1.524 . S
C2299 C2303 1.400 . S
C2300 H2285 0.960 . S
C2300 H2286 0.960 . S
C2300 H2287 0.960 . S
C2300 C2299 1.524 . S
C2301 C2298 1.403 . S
C2301 C2302 1.392 . S
C2301 C2305 1.495 . S
C2302 C2301 1.392 . S
C2302 C2303 1.385 . S
C2302 C2304 1.478 . S
C2303 H2297 0.930 . S
C2303 C2299 1.400 . S
C2303 C2302 1.385 . S
C2304 C2302 1.478 . S
C2304 C2306 1.381 . S
C2304 C2310 1.383 . S
C2305 C2301 1.495 . S
C2305 H2311 0.959 . S
C2305 H2312 0.961 . S
C2305 H2313 0.960 . S
C2306 C2304 1.381 . S
C2306 C2307 1.394 . S
C2306 H2314 0.930 . S
C2307 C2306 1.394 . S
C2307 C2308 1.383 . S
C2307 H2315 0.929 . S
C2308 C2307 1.383 . S
C2308 C2309 1.377 . S
C2309 H2293 0.930 1_545 S
C2309 C2308 1.377 . S
C2309 C2310 1.379 . S
C2310 H2294 0.931 . S
C2310 C2304 1.383 . S
C2310 C2309 1.379 . S
H2311 C2305 0.959 . S
H2312 C2305 0.961 . S
H2313 C2305 0.960 . S
H2314 C2306 0.930 . S
H2315 C2307 0.929 . S
H2316 C2324 0.929 . S
H2317 C2326 0.930 . S
H2318 C2328 0.930 . S
H2319 C2331 0.929 . S
H2320 C2334 0.930 . S
H2321 C2336 0.960 . S
H2322 C2336 0.960 . S
H2323 C2336 0.960 . S
C2324 H2316 0.929 . S
C2324 C2325 1.377 . S
C2324 C2326 1.384 . S
C2325 C2324 1.377 . S
C2325 C2331 1.390 . S
C2326 H2317 0.930 . S
C2326 C2324 1.384 . S
C2326 C2327 1.372 . S
C2327 C2326 1.372 . S
C2327 C2328 1.400 . S
C2327 C2332 1.490 . S
C2328 H2318 0.930 . S
C2328 C2327 1.400 . S
C2328 C2331 1.386 . S
H2329 C2345 0.930 . S
H2330 C2346 0.931 . S
C2331 H2319 0.929 . S
C2331 C2325 1.390 . S
C2331 C2328 1.386 . S
C2332 C2327 1.490 . S
C2332 C2334 1.395 . S
C2332 C2335 1.403 . S
H2333 C2339 0.930 . S
C2334 H2320 0.930 . S
C2334 C2332 1.395 . S
C2334 C2337 1.403 . S
C2335 C2332 1.403 . S
C2335 C2336 1.524 . S
C2335 C2339 1.400 . S
C2336 H2321 0.960 . S
C2336 H2322 0.960 . S
C2336 H2323 0.960 . S
C2336 C2335 1.524 . S
C2337 C2334 1.403 . S
C2337 C2338 1.392 . S
C2337 C2341 1.495 . S
C2338 C2337 1.392 . S
C2338 C2339 1.385 . S
C2338 C2340 1.478 . S
C2339 H2333 0.930 . S
C2339 C2335 1.400 . S
C2339 C2338 1.385 . S
C2340 C2338 1.478 . S
C2340 C2342 1.381 . S
C2340 C2346 1.383 . S
C2341 C2337 1.495 . S
C2341 H2347 0.959 . S
C2341 H2348 0.961 . S
C2341 H2349 0.960 . S
C2342 C2340 1.381 . S
C2342 C2343 1.394 . S
C2342 H2350 0.930 . S
C2343 C2342 1.394 . S
C2343 C2344 1.383 . S
C2343 H2351 0.929 . S
C2344 C2343 1.383 . S
C2344 C2345 1.377 . S
C2345 H2329 0.930 . S
C2345 C2344 1.377 . S
C2345 C2346 1.379 . S
C2346 H2330 0.931 . S
C2346 C2340 1.383 . S
C2346 C2345 1.379 . S
H2347 C2341 0.959 . S
H2348 C2341 0.961 . S
H2349 C2341 0.960 . S
H2350 C2342 0.930 . S
H2351 C2343 0.929 . S
H2352 C2360 0.929 . S
H2353 C2362 0.930 . S
H2354 C2364 0.930 . S
H2355 C2367 0.929 1_565 S
H2356 C2370 0.930 . S
H2357 C2372 0.960 . S
H2358 C2372 0.960 . S
H2359 C2372 0.960 . S
C2360 H2352 0.929 . S
C2360 C2361 1.377 . S
C2360 C2362 1.384 . S
C2361 C2360 1.377 . S
C2361 C2367 1.390 . S
C2362 H2353 0.930 . S
C2362 C2360 1.384 . S
C2362 C2363 1.372 . S
C2363 C2362 1.372 . S
C2363 C2364 1.400 . S
C2363 C2368 1.490 . S
C2364 H2354 0.930 . S
C2364 C2363 1.400 . S
C2364 C2367 1.386 . S
H2365 C2381 0.930 . S
H2366 C2382 0.931 . S
C2367 H2355 0.929 1_545 S
C2367 C2361 1.390 . S
C2367 C2364 1.386 . S
C2368 C2363 1.490 . S
C2368 C2370 1.395 . S
C2368 C2371 1.403 . S
H2369 C2375 0.930 . S
C2370 H2356 0.930 . S
C2370 C2368 1.395 . S
C2370 C2373 1.403 . S
C2371 C2368 1.403 . S
C2371 C2372 1.524 . S
C2371 C2375 1.400 . S
C2372 H2357 0.960 . S
C2372 H2358 0.960 . S
C2372 H2359 0.960 . S
C2372 C2371 1.524 . S
C2373 C2370 1.403 . S
C2373 C2374 1.392 . S
C2373 C2377 1.495 . S
C2374 C2373 1.392 . S
C2374 C2375 1.385 . S
C2374 C2376 1.478 . S
C2375 H2369 0.930 . S
C2375 C2371 1.400 . S
C2375 C2374 1.385 . S
C2376 C2374 1.478 . S
C2376 C2378 1.381 . S
C2376 C2382 1.383 . S
C2377 C2373 1.495 . S
C2377 H2383 0.959 . S
C2377 H2384 0.961 . S
C2377 H2385 0.960 . S
C2378 C2376 1.381 . S
C2378 C2379 1.394 . S
C2378 H2386 0.930 . S
C2379 C2378 1.394 . S
C2379 C2380 1.383 . S
C2379 H2387 0.929 . S
C2380 C2379 1.383 . S
C2380 C2381 1.377 . S
C2381 H2365 0.930 . S
C2381 C2380 1.377 . S
C2381 C2382 1.379 . S
C2382 H2366 0.931 . S
C2382 C2376 1.383 . S
C2382 C2381 1.379 . S
H2383 C2377 0.959 . S
H2384 C2377 0.961 . S
H2385 C2377 0.960 . S
H2386 C2378 0.930 . S
H2387 C2379 0.929 . S
H2388 C2396 0.929 . S
H2389 C2398 0.930 . S
H2390 C2400 0.930 . S
H2391 C2403 0.929 . S
H2392 C2406 0.930 . S
H2393 C2408 0.960 . S
H2394 C2408 0.960 . S
H2395 C2408 0.960 . S
C2396 H2388 0.929 . S
C2396 C2397 1.377 . S
C2396 C2398 1.384 . S
C2397 C2396 1.377 . S
C2397 C2403 1.390 . S
C2398 H2389 0.930 . S
C2398 C2396 1.384 . S
C2398 C2399 1.372 . S
C2399 C2398 1.372 . S
C2399 C2400 1.400 . S
C2399 C2404 1.490 . S
C2400 H2390 0.930 . S
C2400 C2399 1.400 . S
C2400 C2403 1.386 . S
H2401 C2417 0.930 . S
H2402 C2418 0.931 . S
C2403 H2391 0.929 . S
C2403 C2397 1.390 . S
C2403 C2400 1.386 . S
C2404 C2399 1.490 . S
C2404 C2406 1.395 . S
C2404 C2407 1.403 . S
H2405 C2411 0.930 . S
C2406 H2392 0.930 . S
C2406 C2404 1.395 . S
C2406 C2409 1.403 . S
C2407 C2404 1.403 . S
C2407 C2408 1.524 . S
C2407 C2411 1.400 . S
C2408 H2393 0.960 . S
C2408 H2394 0.960 . S
C2408 H2395 0.960 . S
C2408 C2407 1.524 . S
C2409 C2406 1.403 . S
C2409 C2410 1.392 . S
C2409 C2413 1.495 . S
C2410 C2409 1.392 . S
C2410 C2411 1.385 . S
C2410 C2412 1.478 . S
C2411 H2405 0.930 . S
C2411 C2407 1.400 . S
C2411 C2410 1.385 . S
C2412 C2410 1.478 . S
C2412 C2414 1.381 . S
C2412 C2418 1.383 . S
C2413 C2409 1.495 . S
C2413 H2419 0.959 . S
C2413 H2420 0.961 . S
C2413 H2421 0.960 . S
C2414 C2412 1.381 . S
C2414 C2415 1.394 . S
C2414 H2422 0.930 . S
C2415 C2414 1.394 . S
C2415 C2416 1.383 . S
C2415 H2423 0.929 . S
C2416 C2415 1.383 . S
C2416 C2417 1.377 . S
C2417 H2401 0.930 . S
C2417 C2416 1.377 . S
C2417 C2418 1.379 . S
C2418 H2402 0.931 . S
C2418 C2412 1.383 . S
C2418 C2417 1.379 . S
H2419 C2413 0.959 . S
H2420 C2413 0.961 . S
H2421 C2413 0.960 . S
H2422 C2414 0.930 . S
H2423 C2415 0.929 . S
H2424 C2432 0.929 . S
H2425 C2434 0.930 . S
H2426 C2436 0.930 . S
H2427 C2439 0.929 1_545 S
H2428 C2442 0.930 . S
H2429 C2444 0.960 . S
H2430 C2444 0.960 . S
H2431 C2444 0.960 . S
C2432 H2424 0.929 . S
C2432 C2433 1.377 . S
C2432 C2434 1.384 . S
C2433 C2432 1.377 . S
C2433 C2439 1.390 . S
C2434 H2425 0.930 . S
C2434 C2432 1.384 . S
C2434 C2435 1.372 . S
C2435 C2434 1.372 . S
C2435 C2436 1.400 . S
C2435 C2440 1.490 . S
C2436 H2426 0.930 . S
C2436 C2435 1.400 . S
C2436 C2439 1.386 . S
H2437 C2453 0.930 . S
H2438 C2454 0.931 . S
C2439 H2427 0.929 1_565 S
C2439 C2433 1.390 . S
C2439 C2436 1.386 . S
C2440 C2435 1.490 . S
C2440 C2442 1.395 . S
C2440 C2443 1.403 . S
H2441 C2447 0.930 . S
C2442 H2428 0.930 . S
C2442 C2440 1.395 . S
C2442 C2445 1.403 . S
C2443 C2440 1.403 . S
C2443 C2444 1.524 . S
C2443 C2447 1.400 . S
C2444 H2429 0.960 . S
C2444 H2430 0.960 . S
C2444 H2431 0.960 . S
C2444 C2443 1.524 . S
C2445 C2442 1.403 . S
C2445 C2446 1.392 . S
C2445 C2449 1.495 . S
C2446 C2445 1.392 . S
C2446 C2447 1.385 . S
C2446 C2448 1.478 . S
C2447 H2441 0.930 . S
C2447 C2443 1.400 . S
C2447 C2446 1.385 . S
C2448 C2446 1.478 . S
C2448 C2450 1.381 . S
C2448 C2454 1.383 . S
C2449 C2445 1.495 . S
C2449 H2455 0.959 . S
C2449 H2456 0.961 . S
C2449 H2457 0.960 . S
C2450 C2448 1.381 . S
C2450 C2451 1.394 . S
C2450 H2458 0.930 . S
C2451 C2450 1.394 . S
C2451 C2452 1.383 . S
C2451 H2459 0.929 . S
C2452 C2451 1.383 . S
C2452 C2453 1.377 . S
C2453 H2437 0.930 . S
C2453 C2452 1.377 . S
C2453 C2454 1.379 . S
C2454 H2438 0.931 . S
C2454 C2448 1.383 . S
C2454 C2453 1.379 . S
H2455 C2449 0.959 . S
H2456 C2449 0.961 . S
H2457 C2449 0.960 . S
H2458 C2450 0.930 . S
H2459 C2451 0.929 . S
H2460 C2468 0.929 . S
H2461 C2470 0.930 . S
H2462 C2472 0.930 . S
H2463 C2475 0.929 . S
H2464 C2478 0.930 . S
H2465 C2480 0.960 . S
H2466 C2480 0.960 . S
H2467 C2480 0.960 . S
C2468 H2460 0.929 . S
C2468 C2469 1.377 . S
C2468 C2470 1.384 . S
C2469 C2468 1.377 . S
C2469 C2475 1.390 . S
C2470 H2461 0.930 . S
C2470 C2468 1.384 . S
C2470 C2471 1.372 . S
C2471 C2470 1.372 . S
C2471 C2472 1.400 . S
C2471 C2476 1.490 . S
C2472 H2462 0.930 . S
C2472 C2471 1.400 . S
C2472 C2475 1.386 . S
H2473 C2489 0.930 . S
H2474 C2490 0.931 . S
C2475 H2463 0.929 . S
C2475 C2469 1.390 . S
C2475 C2472 1.386 . S
C2476 C2471 1.490 . S
C2476 C2478 1.395 . S
C2476 C2479 1.403 . S
H2477 C2483 0.930 . S
C2478 H2464 0.930 . S
C2478 C2476 1.395 . S
C2478 C2481 1.403 . S
C2479 C2476 1.403 . S
C2479 C2480 1.524 . S
C2479 C2483 1.400 . S
C2480 H2465 0.960 . S
C2480 H2466 0.960 . S
C2480 H2467 0.960 . S
C2480 C2479 1.524 . S
C2481 C2478 1.403 . S
C2481 C2482 1.392 . S
C2481 C2485 1.495 . S
C2482 C2481 1.392 . S
C2482 C2483 1.385 . S
C2482 C2484 1.478 . S
C2483 H2477 0.930 . S
C2483 C2479 1.400 . S
C2483 C2482 1.385 . S
C2484 C2482 1.478 . S
C2484 C2486 1.381 . S
C2484 C2490 1.383 . S
C2485 C2481 1.495 . S
C2485 H2491 0.959 . S
C2485 H2492 0.961 . S
C2485 H2493 0.960 . S
C2486 C2484 1.381 . S
C2486 C2487 1.394 . S
C2486 H2494 0.930 . S
C2487 C2486 1.394 . S
C2487 C2488 1.383 . S
C2487 H2495 0.929 1_565 S
C2488 C2487 1.383 . S
C2488 C2489 1.377 . S
C2489 H2473 0.930 . S
C2489 C2488 1.377 . S
C2489 C2490 1.379 . S
C2490 H2474 0.931 . S
C2490 C2484 1.383 . S
C2490 C2489 1.379 . S
H2491 C2485 0.959 . S
H2492 C2485 0.961 . S
H2493 C2485 0.960 . S
H2494 C2486 0.930 . S
H2495 C2487 0.929 1_545 S
H2496 C2504 0.929 . S
H2497 C2506 0.930 . S
H2498 C2508 0.930 . S
H2499 C2511 0.929 . S
H2500 C2514 0.930 . S
H2501 C2516 0.960 . S
H2502 C2516 0.960 . S
H2503 C2516 0.960 . S
C2504 H2496 0.929 . S
C2504 C2505 1.377 . S
C2504 C2506 1.384 . S
C2505 C2504 1.377 . S
C2505 C2511 1.390 . S
C2506 H2497 0.930 . S
C2506 C2504 1.384 . S
C2506 C2507 1.372 . S
C2507 C2506 1.372 . S
C2507 C2508 1.400 . S
C2507 C2512 1.490 . S
C2508 H2498 0.930 . S
C2508 C2507 1.400 . S
C2508 C2511 1.386 . S
H2509 C2525 0.930 . S
H2510 C2526 0.931 . S
C2511 H2499 0.929 . S
C2511 C2505 1.390 . S
C2511 C2508 1.386 . S
C2512 C2507 1.490 . S
C2512 C2514 1.395 . S
C2512 C2515 1.403 . S
H2513 C2519 0.930 . S
C2514 H2500 0.930 . S
C2514 C2512 1.395 . S
C2514 C2517 1.403 . S
C2515 C2512 1.403 . S
C2515 C2516 1.524 . S
C2515 C2519 1.400 . S
C2516 H2501 0.960 . S
C2516 H2502 0.960 . S
C2516 H2503 0.960 . S
C2516 C2515 1.524 . S
C2517 C2514 1.403 . S
C2517 C2518 1.392 . S
C2517 C2521 1.495 . S
C2518 C2517 1.392 . S
C2518 C2519 1.385 . S
C2518 C2520 1.478 . S
C2519 H2513 0.930 . S
C2519 C2515 1.400 . S
C2519 C2518 1.385 . S
C2520 C2518 1.478 . S
C2520 C2522 1.381 . S
C2520 C2526 1.383 . S
C2521 C2517 1.495 . S
C2521 H2527 0.959 . S
C2521 H2528 0.961 . S
C2521 H2529 0.960 . S
C2522 C2520 1.381 . S
C2522 C2523 1.394 . S
C2522 H2530 0.930 . S
C2523 C2522 1.394 . S
C2523 C2524 1.383 . S
C2523 H2531 0.929 . S
C2524 C2523 1.383 . S
C2524 C2525 1.377 . S
C2525 H2509 0.930 . S
C2525 C2524 1.377 . S
C2525 C2526 1.379 . S
C2526 H2510 0.931 . S
C2526 C2520 1.383 . S
C2526 C2525 1.379 . S
H2527 C2521 0.959 . S
H2528 C2521 0.961 . S
H2529 C2521 0.960 . S
H2530 C2522 0.930 . S
H2531 C2523 0.929 . S
H2532 C2540 0.929 . S
H2533 C2542 0.930 . S
H2534 C2544 0.930 . S
H2535 C2547 0.929 . S
H2536 C2550 0.930 . S
H2537 C2552 0.960 . S
H2538 C2552 0.960 . S
H2539 C2552 0.960 . S
C2540 H2532 0.929 . S
C2540 C2541 1.377 . S
C2540 C2542 1.384 . S
C2541 C2540 1.377 . S
C2541 C2547 1.390 . S
C2542 H2533 0.930 . S
C2542 C2540 1.384 . S
C2542 C2543 1.372 . S
C2543 C2542 1.372 . S
C2543 C2544 1.400 . S
C2543 C2548 1.490 . S
C2544 H2534 0.930 . S
C2544 C2543 1.400 . S
C2544 C2547 1.386 . S
H2545 C2561 0.930 . S
H2546 C2562 0.931 . S
C2547 H2535 0.929 . S
C2547 C2541 1.390 . S
C2547 C2544 1.386 . S
C2548 C2543 1.490 . S
C2548 C2550 1.395 . S
C2548 C2551 1.403 . S
H2549 C2555 0.930 . S
C2550 H2536 0.930 . S
C2550 C2548 1.395 . S
C2550 C2553 1.403 . S
C2551 C2548 1.403 . S
C2551 C2552 1.524 . S
C2551 C2555 1.400 . S
C2552 H2537 0.960 . S
C2552 H2538 0.960 . S
C2552 H2539 0.960 . S
C2552 C2551 1.524 . S
C2553 C2550 1.403 . S
C2553 C2554 1.392 . S
C2553 C2557 1.495 . S
C2554 C2553 1.392 . S
C2554 C2555 1.385 . S
C2554 C2556 1.478 . S
C2555 H2549 0.930 . S
C2555 C2551 1.400 . S
C2555 C2554 1.385 . S
C2556 C2554 1.478 . S
C2556 C2558 1.381 . S
C2556 C2562 1.383 . S
C2557 C2553 1.495 . S
C2557 H2563 0.959 . S
C2557 H2564 0.961 . S
C2557 H2565 0.960 . S
C2558 C2556 1.381 . S
C2558 C2559 1.394 . S
C2558 H2566 0.930 . S
C2559 C2558 1.394 . S
C2559 C2560 1.383 . S
C2559 H2567 0.929 . S
C2560 C2559 1.383 . S
C2560 C2561 1.377 . S
C2561 H2545 0.930 . S
C2561 C2560 1.377 . S
C2561 C2562 1.379 . S
C2562 H2546 0.931 . S
C2562 C2556 1.383 . S
C2562 C2561 1.379 . S
H2563 C2557 0.959 . S
H2564 C2557 0.961 . S
H2565 C2557 0.960 . S
H2566 C2558 0.930 . S
H2567 C2559 0.929 . S
H2568 C2576 0.929 . S
H2569 C2578 0.930 . S
H2570 C2580 0.930 . S
H2571 C2583 0.929 . S
H2572 C2586 0.930 . S
H2573 C2588 0.960 . S
H2574 C2588 0.960 . S
H2575 C2588 0.960 . S
C2576 H2568 0.929 . S
C2576 C2577 1.377 . S
C2576 C2578 1.384 . S
C2577 C2576 1.377 . S
C2577 C2583 1.390 . S
C2578 H2569 0.930 . S
C2578 C2576 1.384 . S
C2578 C2579 1.372 . S
C2579 C2578 1.372 . S
C2579 C2580 1.400 . S
C2579 C2584 1.490 . S
C2580 H2570 0.930 . S
C2580 C2579 1.400 . S
C2580 C2583 1.386 . S
H2581 C2597 0.930 . S
H2582 C2598 0.931 . S
C2583 H2571 0.929 . S
C2583 C2577 1.390 . S
C2583 C2580 1.386 . S
C2584 C2579 1.490 . S
C2584 C2586 1.395 . S
C2584 C2587 1.403 . S
H2585 C2591 0.930 . S
C2586 H2572 0.930 . S
C2586 C2584 1.395 . S
C2586 C2589 1.403 . S
C2587 C2584 1.403 . S
C2587 C2588 1.524 . S
C2587 C2591 1.400 . S
C2588 H2573 0.960 . S
C2588 H2574 0.960 . S
C2588 H2575 0.960 . S
C2588 C2587 1.524 . S
C2589 C2586 1.403 . S
C2589 C2590 1.392 . S
C2589 C2593 1.495 . S
C2590 C2589 1.392 . S
C2590 C2591 1.385 . S
C2590 C2592 1.478 . S
C2591 H2585 0.930 . S
C2591 C2587 1.400 . S
C2591 C2590 1.385 . S
C2592 C2590 1.478 . S
C2592 C2594 1.381 . S
C2592 C2598 1.383 . S
C2593 C2589 1.495 . S
C2593 H2599 0.959 . S
C2593 H2600 0.961 . S
C2593 H2601 0.960 . S
C2594 C2592 1.381 . S
C2594 C2595 1.394 . S
C2594 H2602 0.930 . S
C2595 C2594 1.394 . S
C2595 C2596 1.383 . S
C2595 H2603 0.929 . S
C2596 C2595 1.383 . S
C2596 C2597 1.377 . S
C2597 H2581 0.930 . S
C2597 C2596 1.377 . S
C2597 C2598 1.379 . S
C2598 H2582 0.931 . S
C2598 C2592 1.383 . S
C2598 C2597 1.379 . S
H2599 C2593 0.959 . S
H2600 C2593 0.961 . S
H2601 C2593 0.960 . S
H2602 C2594 0.930 . S
H2603 C2595 0.929 . S
H2604 C2612 0.929 . S
H2605 C2614 0.930 . S
H2606 C2616 0.930 . S
H2607 C2619 0.929 . S
H2608 C2622 0.930 . S
H2609 C2624 0.960 . S
H2610 C2624 0.960 . S
H2611 C2624 0.960 . S
C2612 H2604 0.929 . S
C2612 C2613 1.377 . S
C2612 C2614 1.384 . S
C2613 C2612 1.377 . S
C2613 C2619 1.390 . S
C2614 H2605 0.930 . S
C2614 C2612 1.384 . S
C2614 C2615 1.372 . S
C2615 C2614 1.372 . S
C2615 C2616 1.400 . S
C2615 C2620 1.490 . S
C2616 H2606 0.930 . S
C2616 C2615 1.400 . S
C2616 C2619 1.386 . S
H2617 C2633 0.930 . S
H2618 C2634 0.931 . S
C2619 H2607 0.929 . S
C2619 C2613 1.390 . S
C2619 C2616 1.386 . S
C2620 C2615 1.490 . S
C2620 C2622 1.395 . S
C2620 C2623 1.403 . S
H2621 C2627 0.930 . S
C2622 H2608 0.930 . S
C2622 C2620 1.395 . S
C2622 C2625 1.403 . S
C2623 C2620 1.403 . S
C2623 C2624 1.524 . S
C2623 C2627 1.400 . S
C2624 H2609 0.960 . S
C2624 H2610 0.960 . S
C2624 H2611 0.960 . S
C2624 C2623 1.524 . S
C2625 C2622 1.403 . S
C2625 C2626 1.392 . S
C2625 C2629 1.495 . S
C2626 C2625 1.392 . S
C2626 C2627 1.385 . S
C2626 C2628 1.478 . S
C2627 H2621 0.930 . S
C2627 C2623 1.400 . S
C2627 C2626 1.385 . S
C2628 C2626 1.478 . S
C2628 C2630 1.381 . S
C2628 C2634 1.383 . S
C2629 C2625 1.495 . S
C2629 H2635 0.959 . S
C2629 H2636 0.961 . S
C2629 H2637 0.960 . S
C2630 C2628 1.381 . S
C2630 C2631 1.394 . S
C2630 H2638 0.930 . S
C2631 C2630 1.394 . S
C2631 C2632 1.383 . S
C2631 H2639 0.929 . S
C2632 C2631 1.383 . S
C2632 C2633 1.377 . S
C2633 H2617 0.930 . S
C2633 C2632 1.377 . S
C2633 C2634 1.379 . S
C2634 H2618 0.931 . S
C2634 C2628 1.383 . S
C2634 C2633 1.379 . S
H2635 C2629 0.959 . S
H2636 C2629 0.961 . S
H2637 C2629 0.960 . S
H2638 C2630 0.930 . S
H2639 C2631 0.929 . S
H2640 C2648 0.929 . S
H2641 C2650 0.930 . S
H2642 C2652 0.930 . S
H2643 C2655 0.929 . S
H2644 C2658 0.930 . S
H2645 C2660 0.960 . S
H2646 C2660 0.960 . S
H2647 C2660 0.960 . S
C2648 H2640 0.929 . S
C2648 C2649 1.377 . S
C2648 C2650 1.384 . S
C2649 C2648 1.377 . S
C2649 C2655 1.390 . S
C2650 H2641 0.930 . S
C2650 C2648 1.384 . S
C2650 C2651 1.372 . S
C2651 C2650 1.372 . S
C2651 C2652 1.400 . S
C2651 C2656 1.490 . S
C2652 H2642 0.930 . S
C2652 C2651 1.400 . S
C2652 C2655 1.386 . S
H2653 C2669 0.930 . S
H2654 C2670 0.931 . S
C2655 H2643 0.929 . S
C2655 C2649 1.390 . S
C2655 C2652 1.386 . S
C2656 C2651 1.490 . S
C2656 C2658 1.395 . S
C2656 C2659 1.403 . S
H2657 C2663 0.930 . S
C2658 H2644 0.930 . S
C2658 C2656 1.395 . S
C2658 C2661 1.403 . S
C2659 C2656 1.403 . S
C2659 C2660 1.524 . S
C2659 C2663 1.400 . S
C2660 H2645 0.960 . S
C2660 H2646 0.960 . S
C2660 H2647 0.960 . S
C2660 C2659 1.524 . S
C2661 C2658 1.403 . S
C2661 C2662 1.392 . S
C2661 C2665 1.495 . S
C2662 C2661 1.392 . S
C2662 C2663 1.385 . S
C2662 C2664 1.478 . S
C2663 H2657 0.930 . S
C2663 C2659 1.400 . S
C2663 C2662 1.385 . S
C2664 C2662 1.478 . S
C2664 C2666 1.381 . S
C2664 C2670 1.383 . S
C2665 C2661 1.495 . S
C2665 H2671 0.959 . S
C2665 H2672 0.961 . S
C2665 H2673 0.960 . S
C2666 C2664 1.381 . S
C2666 C2667 1.394 . S
C2666 H2674 0.930 . S
C2667 C2666 1.394 . S
C2667 C2668 1.383 . S
C2667 H2675 0.929 . S
C2668 C2667 1.383 . S
C2668 C2669 1.377 . S
C2669 H2653 0.930 . S
C2669 C2668 1.377 . S
C2669 C2670 1.379 . S
C2670 H2654 0.931 . S
C2670 C2664 1.383 . S
C2670 C2669 1.379 . S
H2671 C2665 0.959 . S
H2672 C2665 0.961 . S
H2673 C2665 0.960 . S
H2674 C2666 0.930 . S
H2675 C2667 0.929 . S
H2676 C2684 0.929 . S
H2677 C2686 0.930 . S
H2678 C2688 0.930 . S
H2679 C2691 0.929 . S
H2680 C2694 0.930 . S
H2681 C2696 0.960 . S
H2682 C2696 0.960 . S
H2683 C2696 0.960 . S
C2684 H2676 0.929 . S
C2684 C2685 1.377 . S
C2684 C2686 1.384 . S
C2685 C2684 1.377 . S
C2685 C2691 1.390 . S
C2686 H2677 0.930 . S
C2686 C2684 1.384 . S
C2686 C2687 1.372 . S
C2687 C2686 1.372 . S
C2687 C2688 1.400 . S
C2687 C2692 1.490 . S
C2688 H2678 0.930 . S
C2688 C2687 1.400 . S
C2688 C2691 1.386 . S
H2689 C2705 0.930 . S
H2690 C2706 0.931 . S
C2691 H2679 0.929 . S
C2691 C2685 1.390 . S
C2691 C2688 1.386 . S
C2692 C2687 1.490 . S
C2692 C2694 1.395 . S
C2692 C2695 1.403 . S
H2693 C2699 0.930 . S
C2694 H2680 0.930 . S
C2694 C2692 1.395 . S
C2694 C2697 1.403 . S
C2695 C2692 1.403 . S
C2695 C2696 1.524 . S
C2695 C2699 1.400 . S
C2696 H2681 0.960 . S
C2696 H2682 0.960 . S
C2696 H2683 0.960 . S
C2696 C2695 1.524 . S
C2697 C2694 1.403 . S
C2697 C2698 1.392 . S
C2697 C2701 1.495 . S
C2698 C2697 1.392 . S
C2698 C2699 1.385 . S
C2698 C2700 1.478 . S
C2699 H2693 0.930 . S
C2699 C2695 1.400 . S
C2699 C2698 1.385 . S
C2700 C2698 1.478 . S
C2700 C2702 1.381 . S
C2700 C2706 1.383 . S
C2701 C2697 1.495 . S
C2701 H2707 0.959 . S
C2701 H2708 0.961 . S
C2701 H2709 0.960 . S
C2702 C2700 1.381 . S
C2702 C2703 1.394 . S
C2702 H2710 0.930 . S
C2703 C2702 1.394 . S
C2703 C2704 1.383 . S
C2703 H2711 0.929 . S
C2704 C2703 1.383 . S
C2704 C2705 1.377 . S
C2705 H2689 0.930 . S
C2705 C2704 1.377 . S
C2705 C2706 1.379 . S
C2706 H2690 0.931 . S
C2706 C2700 1.383 . S
C2706 C2705 1.379 . S
H2707 C2701 0.959 . S
H2708 C2701 0.961 . S
H2709 C2701 0.960 . S
H2710 C2702 0.930 . S
H2711 C2703 0.929 . S
H2712 C2720 0.929 . S
H2713 C2722 0.930 . S
H2714 C2724 0.930 . S
H2715 C2727 0.929 . S
H2716 C2730 0.930 . S
H2717 C2732 0.960 . S
H2718 C2732 0.960 . S
H2719 C2732 0.960 . S
C2720 H2712 0.929 . S
C2720 C2721 1.377 . S
C2720 C2722 1.384 . S
C2721 C2720 1.377 . S
C2721 C2727 1.390 . S
C2722 H2713 0.930 . S
C2722 C2720 1.384 . S
C2722 C2723 1.372 . S
C2723 C2722 1.372 . S
C2723 C2724 1.400 . S
C2723 C2728 1.490 . S
C2724 H2714 0.930 . S
C2724 C2723 1.400 . S
C2724 C2727 1.386 . S
H2725 C2741 0.930 . S
H2726 C2742 0.931 . S
C2727 H2715 0.929 . S
C2727 C2721 1.390 . S
C2727 C2724 1.386 . S
C2728 C2723 1.490 . S
C2728 C2730 1.395 . S
C2728 C2731 1.403 . S
H2729 C2735 0.930 . S
C2730 H2716 0.930 . S
C2730 C2728 1.395 . S
C2730 C2733 1.403 . S
C2731 C2728 1.403 . S
C2731 C2732 1.524 . S
C2731 C2735 1.400 . S
C2732 H2717 0.960 . S
C2732 H2718 0.960 . S
C2732 H2719 0.960 . S
C2732 C2731 1.524 . S
C2733 C2730 1.403 . S
C2733 C2734 1.392 . S
C2733 C2737 1.495 . S
C2734 C2733 1.392 . S
C2734 C2735 1.385 . S
C2734 C2736 1.478 . S
C2735 H2729 0.930 . S
C2735 C2731 1.400 . S
C2735 C2734 1.385 . S
C2736 C2734 1.478 . S
C2736 C2738 1.381 . S
C2736 C2742 1.383 . S
C2737 C2733 1.495 . S
C2737 H2743 0.959 . S
C2737 H2744 0.961 . S
C2737 H2745 0.960 . S
C2738 C2736 1.381 . S
C2738 C2739 1.394 . S
C2738 H2746 0.930 . S
C2739 C2738 1.394 . S
C2739 C2740 1.383 . S
C2739 H2747 0.929 . S
C2740 C2739 1.383 . S
C2740 C2741 1.377 . S
C2741 H2725 0.930 . S
C2741 C2740 1.377 . S
C2741 C2742 1.379 . S
C2742 H2726 0.931 . S
C2742 C2736 1.383 . S
C2742 C2741 1.379 . S
H2743 C2737 0.959 . S
H2744 C2737 0.961 . S
H2745 C2737 0.960 . S
H2746 C2738 0.930 . S
H2747 C2739 0.929 . S
H2748 C2756 0.929 . S
H2749 C2758 0.930 . S
H2750 C2760 0.930 . S
H2751 C2763 0.929 . S
H2752 C2766 0.930 . S
H2753 C2768 0.960 . S
H2754 C2768 0.960 . S
H2755 C2768 0.960 . S
C2756 H2748 0.929 . S
C2756 C2757 1.377 . S
C2756 C2758 1.384 . S
C2757 C2756 1.377 . S
C2757 C2763 1.390 . S
C2758 H2749 0.930 . S
C2758 C2756 1.384 . S
C2758 C2759 1.372 . S
C2759 C2758 1.372 . S
C2759 C2760 1.400 . S
C2759 C2764 1.490 . S
C2760 H2750 0.930 . S
C2760 C2759 1.400 . S
C2760 C2763 1.386 . S
H2761 C2777 0.930 . S
H2762 C2778 0.931 . S
C2763 H2751 0.929 . S
C2763 C2757 1.390 . S
C2763 C2760 1.386 . S
C2764 C2759 1.490 . S
C2764 C2766 1.395 . S
C2764 C2767 1.403 . S
H2765 C2771 0.930 . S
C2766 H2752 0.930 . S
C2766 C2764 1.395 . S
C2766 C2769 1.403 . S
C2767 C2764 1.403 . S
C2767 C2768 1.524 . S
C2767 C2771 1.400 . S
C2768 H2753 0.960 . S
C2768 H2754 0.960 . S
C2768 H2755 0.960 . S
C2768 C2767 1.524 . S
C2769 C2766 1.403 . S
C2769 C2770 1.392 . S
C2769 C2773 1.495 . S
C2770 C2769 1.392 . S
C2770 C2771 1.385 . S
C2770 C2772 1.478 . S
C2771 H2765 0.930 . S
C2771 C2767 1.400 . S
C2771 C2770 1.385 . S
C2772 C2770 1.478 . S
C2772 C2774 1.381 . S
C2772 C2778 1.383 . S
C2773 C2769 1.495 . S
C2773 H2779 0.959 . S
C2773 H2780 0.961 . S
C2773 H2781 0.960 . S
C2774 C2772 1.381 . S
C2774 C2775 1.394 . S
C2774 H2782 0.930 . S
C2775 C2774 1.394 . S
C2775 C2776 1.383 . S
C2775 H2783 0.929 . S
C2776 C2775 1.383 . S
C2776 C2777 1.377 . S
C2777 H2761 0.930 . S
C2777 C2776 1.377 . S
C2777 C2778 1.379 . S
C2778 H2762 0.931 . S
C2778 C2772 1.383 . S
C2778 C2777 1.379 . S
H2779 C2773 0.959 . S
H2780 C2773 0.961 . S
H2781 C2773 0.960 . S
H2782 C2774 0.930 . S
H2783 C2775 0.929 . S
H2784 C2792 0.929 . S
H2785 C2794 0.930 . S
H2786 C2796 0.936 . S
H2787 C2799 0.929 1_565 S
H2788 C2802 0.930 . S
H2789 C2804 0.993 1_565 S
H2790 C2804 0.960 . S
H2791 C2804 0.960 1_565 S
C2792 H2784 0.929 . S
C2792 C2793 1.377 . S
C2792 C2794 1.384 . S
C2793 C2792 1.377 . S
C2793 C2799 1.390 . S
C2794 H2785 0.930 . S
C2794 C2792 1.384 . S
C2794 C2795 1.372 . S
C2795 C2794 1.372 . S
C2795 C2796 1.396 1_545 S
C2795 C2800 1.490 . S
C2796 H2786 0.936 . S
C2796 C2795 1.396 1_565 S
C2796 C2799 1.384 1_565 S
H2797 C2813 0.930 . S
H2798 C2814 0.931 . S
C2799 H2787 0.929 1_545 S
C2799 C2793 1.390 . S
C2799 C2796 1.384 1_545 S
C2800 C2795 1.490 . S
C2800 C2802 1.395 . S
C2800 C2803 1.403 . S
H2801 C2807 0.930 . S
C2802 H2788 0.930 . S
C2802 C2800 1.395 . S
C2802 C2805 1.403 . S
C2803 C2800 1.403 . S
C2803 C2804 1.524 . S
C2803 C2807 1.400 1_545 S
C2804 H2789 0.993 1_545 S
C2804 H2790 0.960 . S
C2804 H2791 0.960 1_545 S
C2804 C2803 1.524 . S
C2805 C2802 1.403 . S
C2805 C2806 1.392 1_545 S
C2805 C2809 1.495 . S
C2806 C2805 1.392 1_565 S
C2806 C2807 1.385 . S
C2806 C2808 1.478 . S
C2807 H2801 0.930 . S
C2807 C2803 1.400 1_565 S
C2807 C2806 1.385 . S
C2808 C2806 1.478 . S
C2808 C2810 1.381 1_565 S
C2808 C2814 1.383 . S
C2809 C2805 1.495 . S
C2809 H2815 0.959 . S
C2809 H2816 0.961 1_545 S
C2809 H2817 0.960 . S
C2810 C2808 1.381 1_545 S
C2810 C2811 1.394 1_545 S
C2810 H2818 0.930 . S
C2811 C2810 1.394 1_565 S
C2811 C2812 1.383 . S
C2811 H2819 0.929 1_565 S
C2812 C2811 1.383 . S
C2812 C2813 1.377 . S
C2813 H2797 0.930 . S
C2813 C2812 1.377 . S
C2813 C2814 1.379 . S
C2814 H2798 0.931 . S
C2814 C2808 1.383 . S
C2814 C2813 1.379 . S
H2815 C2809 0.959 . S
H2816 C2809 0.961 1_565 S
H2817 C2809 0.960 . S
H2818 C2810 0.930 . S
H2819 C2811 0.929 1_545 S
H2820 C2828 0.929 . S
H2821 C2830 0.930 . S
H2822 C2832 0.930 . S
H2823 C2835 0.929 . S
H2824 C2838 0.930 . S
H2825 C2840 0.960 . S
H2826 C2840 0.960 . S
H2827 C2840 0.960 . S
C2828 H2820 0.929 . S
C2828 C2829 1.377 . S
C2828 C2830 1.384 . S
C2829 C2828 1.377 . S
C2829 C2835 1.390 . S
C2830 H2821 0.930 . S
C2830 C2828 1.384 . S
C2830 C2831 1.372 . S
C2831 C2830 1.372 . S
C2831 C2832 1.400 . S
C2831 C2836 1.490 . S
C2832 H2822 0.930 . S
C2832 C2831 1.400 . S
C2832 C2835 1.386 . S
H2833 C2849 0.930 . S
H2834 C2850 0.931 . S
C2835 H2823 0.929 . S
C2835 C2829 1.390 . S
C2835 C2832 1.386 . S
C2836 C2831 1.490 . S
C2836 C2838 1.395 . S
C2836 C2839 1.403 . S
H2837 C2843 0.930 . S
C2838 H2824 0.930 . S
C2838 C2836 1.395 . S
C2838 C2841 1.403 . S
C2839 C2836 1.403 . S
C2839 C2840 1.524 . S
C2839 C2843 1.400 . S
C2840 H2825 0.960 . S
C2840 H2826 0.960 . S
C2840 H2827 0.960 . S
C2840 C2839 1.524 . S
C2841 C2838 1.403 . S
C2841 C2842 1.392 . S
C2841 C2845 1.495 . S
C2842 C2841 1.392 . S
C2842 C2843 1.385 . S
C2842 C2844 1.478 . S
C2843 H2837 0.930 . S
C2843 C2839 1.400 . S
C2843 C2842 1.385 . S
C2844 C2842 1.478 . S
C2844 C2846 1.381 . S
C2844 C2850 1.383 . S
C2845 C2841 1.495 . S
C2845 H2851 0.959 . S
C2845 H2852 0.961 . S
C2845 H2853 0.960 . S
C2846 C2844 1.381 . S
C2846 C2847 1.394 . S
C2846 H2854 0.930 . S
C2847 C2846 1.394 . S
C2847 C2848 1.383 . S
C2847 H2855 0.929 . S
C2848 C2847 1.383 . S
C2848 C2849 1.377 . S
C2849 H2833 0.930 . S
C2849 C2848 1.377 . S
C2849 C2850 1.379 . S
C2850 H2834 0.931 . S
C2850 C2844 1.383 . S
C2850 C2849 1.379 . S
H2851 C2845 0.959 . S
H2852 C2845 0.961 . S
H2853 C2845 0.960 . S
H2854 C2846 0.930 . S
H2855 C2847 0.929 . S
H2856 C2864 0.929 . S
H2857 C2866 0.930 . S
H2858 C2868 0.930 . S
H2859 C2871 0.929 . S
H2860 C2874 0.930 . S
H2861 C2876 0.960 . S
H2862 C2876 0.960 . S
H2863 C2876 0.960 . S
C2864 H2856 0.929 . S
C2864 C2865 1.377 . S
C2864 C2866 1.384 . S
C2865 C2864 1.377 . S
C2865 C2871 1.390 . S
C2866 H2857 0.930 . S
C2866 C2864 1.384 . S
C2866 C2867 1.372 . S
C2867 C2866 1.372 . S
C2867 C2868 1.400 . S
C2867 C2872 1.490 . S
C2868 H2858 0.930 . S
C2868 C2867 1.400 . S
C2868 C2871 1.386 . S
H2869 C2885 0.930 . S
H2870 C2886 0.931 . S
C2871 H2859 0.929 . S
C2871 C2865 1.390 . S
C2871 C2868 1.386 . S
C2872 C2867 1.490 . S
C2872 C2874 1.395 . S
C2872 C2875 1.403 1_545 S
H2873 C2879 0.930 . S
C2874 H2860 0.930 . S
C2874 C2872 1.395 . S
C2874 C2877 1.403 . S
C2875 C2872 1.403 1_565 S
C2875 C2876 1.524 . S
C2875 C2879 1.400 . S
C2876 H2861 0.960 . S
C2876 H2862 0.960 . S
C2876 H2863 0.960 . S
C2876 C2875 1.524 . S
C2877 C2874 1.403 . S
C2877 C2878 1.392 1_545 S
C2877 C2881 1.495 . S
C2878 C2877 1.392 1_565 S
C2878 C2879 1.385 . S
C2878 C2880 1.478 . S
C2879 H2873 0.930 . S
C2879 C2875 1.400 . S
C2879 C2878 1.385 . S
C2880 C2878 1.478 . S
C2880 C2882 1.381 . S
C2880 C2886 1.383 . S
C2881 C2877 1.495 . S
C2881 H2887 0.959 . S
C2881 H2888 0.961 . S
C2881 H2889 0.960 . S
C2882 C2880 1.381 . S
C2882 C2883 1.394 . S
C2882 H2890 0.930 . S
C2883 C2882 1.394 . S
C2883 C2884 1.383 . S
C2883 H2891 0.929 . S
C2884 C2883 1.383 . S
C2884 C2885 1.377 . S
C2885 H2869 0.930 . S
C2885 C2884 1.377 . S
C2885 C2886 1.379 . S
C2886 H2870 0.931 . S
C2886 C2880 1.383 . S
C2886 C2885 1.379 . S
H2887 C2881 0.959 . S
H2888 C2881 0.961 . S
H2889 C2881 0.960 . S
H2890 C2882 0.930 . S
H2891 C2883 0.929 . S
H2892 C2900 0.929 . S
H2893 C2902 0.930 . S
H2894 C2904 0.930 . S
H2895 C2907 0.929 . S
H2896 C2910 0.930 . S
H2897 C2912 1.033 . S
H2898 C2912 0.960 . S
H2899 C2912 0.960 . S
C2900 H2892 0.929 . S
C2900 C2901 1.377 . S
C2900 C2902 1.384 . S
C2901 C2900 1.377 . S
C2901 C2907 1.390 . S
C2902 H2893 0.930 . S
C2902 C2900 1.384 . S
C2902 C2903 1.372 . S
C2903 C2902 1.372 . S
C2903 C2904 1.400 . S
C2903 C2908 1.490 . S
C2904 H2894 0.930 . S
C2904 C2903 1.400 . S
C2904 C2907 1.386 . S
H2905 C2921 0.930 . S
H2906 C2922 0.931 . S
C2907 H2895 0.929 . S
C2907 C2901 1.390 . S
C2907 C2904 1.386 . S
C2908 C2903 1.490 . S
C2908 C2910 1.395 . S
C2908 C2911 1.403 . S
H2909 C2915 0.930 . S
C2910 H2896 0.930 . S
C2910 C2908 1.395 . S
C2910 C2913 1.403 1_556 S
C2911 C2908 1.403 . S
C2911 C2912 1.524 . S
C2911 C2915 1.400 1_556 S
C2912 H2897 1.033 . S
C2912 H2898 0.960 . S
C2912 H2899 0.960 . S
C2912 C2911 1.524 . S
C2913 C2910 1.403 1_554 S
C2913 C2914 1.392 . S
C2913 C2917 1.495 . S
C2914 C2913 1.392 . S
C2914 C2915 1.385 . S
C2914 C2916 1.478 . S
C2915 H2909 0.930 . S
C2915 C2911 1.400 1_554 S
C2915 C2914 1.385 . S
C2916 C2914 1.478 . S
C2916 C2918 1.381 . S
C2916 C2922 1.383 . S
C2917 C2913 1.495 . S
C2917 H2923 1.008 . S
C2917 H2924 0.961 . S
C2917 H2925 0.960 . S
C2918 C2916 1.381 . S
C2918 C2919 1.394 . S
C2918 H2926 0.930 . S
C2919 C2918 1.394 . S
C2919 C2920 1.383 . S
C2919 H2927 0.929 . S
C2920 C2919 1.383 . S
C2920 C2921 1.377 . S
C2921 H2905 0.930 . S
C2921 C2920 1.377 . S
C2921 C2922 1.379 . S
C2922 H2906 0.931 . S
C2922 C2916 1.383 . S
C2922 C2921 1.379 . S
H2923 C2917 1.008 . S
H2924 C2917 0.961 . S
H2925 C2917 0.960 . S
H2926 C2918 0.930 . S
H2927 C2919 0.929 . S
H2928 C2936 0.917 1_545 S
H2929 C2938 0.930 1_545 S
H2930 C2940 0.930 . S
H2931 C2943 0.929 . S
H2932 C2946 0.930 . S
H2933 C2948 0.960 . S
H2934 C2948 0.960 . S
H2935 C2948 0.960 1_565 S
C2936 H2928 0.917 1_565 S
C2936 C2937 1.377 . S
C2936 C2938 1.384 . S
C2937 C2936 1.377 . S
C2937 C2943 1.390 . S
C2938 H2929 0.930 1_565 S
C2938 C2936 1.384 . S
C2938 C2939 1.372 . S
C2939 C2938 1.372 . S
C2939 C2940 1.400 . S
C2939 C2944 1.490 . S
C2940 H2930 0.930 . S
C2940 C2939 1.400 . S
C2940 C2943 1.386 . S
H2941 C2957 0.930 1_565 S
H2942 C2958 0.931 . S
C2943 H2931 0.929 . S
C2943 C2937 1.390 . S
C2943 C2940 1.386 . S
C2944 C2939 1.490 . S
C2944 C2946 1.395 . S
C2944 C2947 1.396 1_565 S
H2945 C2951 0.930 . S
C2946 H2932 0.930 . S
C2946 C2944 1.395 . S
C2946 C2949 1.403 1_565 S
C2947 C2944 1.396 1_545 S
C2947 C2948 1.525 . S
C2947 C2951 1.406 . S
C2948 H2933 0.960 . S
C2948 H2934 0.960 . S
C2948 H2935 0.960 1_545 S
C2948 C2947 1.525 . S
C2949 C2946 1.403 1_545 S
C2949 C2950 1.392 . S
C2949 C2953 1.495 . S
C2950 C2949 1.392 . S
C2950 C2951 1.385 . S
C2950 C2952 1.478 . S
C2951 H2945 0.930 . S
C2951 C2947 1.406 . S
C2951 C2950 1.385 . S
C2952 C2950 1.478 . S
C2952 C2954 1.381 . S
C2952 C2958 1.383 1_545 S
C2953 C2949 1.495 . S
C2953 H2959 0.959 1_545 S
C2953 H2960 0.961 1_545 S
C2953 H2961 0.960 . S
C2954 C2952 1.381 . S
C2954 C2955 1.394 . S
C2954 H2962 0.930 . S
C2955 C2954 1.394 . S
C2955 C2956 1.383 . S
C2955 H2963 0.929 . S
C2956 C2955 1.383 . S
C2956 C2957 1.377 . S
C2957 H2941 0.930 1_545 S
C2957 C2956 1.377 . S
C2957 C2958 1.380 1_545 S
C2958 H2942 0.931 . S
C2958 C2952 1.383 1_565 S
C2958 C2957 1.380 1_565 S
H2959 C2953 0.959 1_565 S
H2960 C2953 0.961 1_565 S
H2961 C2953 0.960 . S
H2962 C2954 0.930 . S
H2963 C2955 0.929 . S
H2964 C2972 0.929 . S
H2965 C2974 0.930 . S
H2966 C2976 0.930 . S
H2967 C2979 0.929 . S
H2968 C2982 0.930 . S
H2969 C2984 0.960 . S
H2970 C2984 0.960 . S
H2971 C2984 0.960 . S
C2972 H2964 0.929 . S
C2972 C2973 1.377 . S
C2972 C2974 1.384 . S
C2973 C2972 1.377 . S
C2973 C2979 1.390 . S
C2974 H2965 0.930 . S
C2974 C2972 1.384 . S
C2974 C2975 1.372 . S
C2975 C2974 1.372 . S
C2975 C2976 1.400 . S
C2975 C2980 1.490 . S
C2976 H2966 0.930 . S
C2976 C2975 1.400 . S
C2976 C2979 1.386 . S
H2977 C2993 0.930 . S
H2978 C2994 0.931 . S
C2979 H2967 0.929 . S
C2979 C2973 1.390 . S
C2979 C2976 1.386 . S
C2980 C2975 1.490 . S
C2980 C2982 1.395 . S
C2980 C2983 1.403 . S
H2981 C2987 0.930 . S
C2982 H2968 0.930 . S
C2982 C2980 1.395 . S
C2982 C2985 1.403 . S
C2983 C2980 1.403 . S
C2983 C2984 1.524 . S
C2983 C2987 1.400 . S
C2984 H2969 0.960 . S
C2984 H2970 0.960 . S
C2984 H2971 0.960 . S
C2984 C2983 1.524 . S
C2985 C2982 1.403 . S
C2985 C2986 1.392 . S
C2985 C2989 1.495 . S
C2986 C2985 1.392 . S
C2986 C2987 1.385 . S
C2986 C2988 1.478 . S
C2987 H2981 0.930 . S
C2987 C2983 1.400 . S
C2987 C2986 1.385 . S
C2988 C2986 1.478 . S
C2988 C2990 1.381 . S
C2988 C2994 1.383 . S
C2989 C2985 1.495 . S
C2989 H2995 0.959 . S
C2989 H2996 0.961 . S
C2989 H2997 0.960 . S
C2990 C2988 1.381 . S
C2990 C2991 1.394 . S
C2990 H2998 0.930 . S
C2991 C2990 1.394 . S
C2991 C2992 1.383 . S
C2991 H2999 0.929 . S
C2992 C2991 1.383 . S
C2992 C2993 1.377 . S
C2993 H2977 0.930 . S
C2993 C2992 1.377 . S
C2993 C2994 1.379 . S
C2994 H2978 0.931 . S
C2994 C2988 1.383 . S
C2994 C2993 1.379 . S
H2995 C2989 0.959 . S
H2996 C2989 0.961 . S
H2997 C2989 0.960 . S
H2998 C2990 0.930 . S
H2999 C2991 0.929 . S
H3000 C3008 0.929 . S
H3001 C3010 0.930 . S
H3002 C3012 0.930 . S
H3003 C3015 0.929 1_565 S
H3004 C3018 0.930 . S
H3005 C3020 0.960 . S
H3006 C3020 0.960 1_545 S
H3007 C3020 0.960 . S
C3008 H3000 0.929 . S
C3008 C3009 1.377 . S
C3008 C3010 1.384 . S
C3009 C3008 1.377 . S
C3009 C3015 1.390 . S
C3010 H3001 0.930 . S
C3010 C3008 1.384 . S
C3010 C3011 1.372 . S
C3011 C3010 1.372 . S
C3011 C3012 1.400 1_545 S
C3011 C3016 1.490 . S
C3012 H3002 0.930 . S
C3012 C3011 1.400 1_565 S
C3012 C3015 1.386 1_565 S
H3013 C3029 0.930 . S
H3014 C3030 0.931 . S
C3015 H3003 0.929 1_545 S
C3015 C3009 1.390 . S
C3015 C3012 1.386 1_545 S
C3016 C3011 1.490 . S
C3016 C3018 1.395 . S
C3016 C3019 1.403 1_545 S
H3017 C3023 0.930 . S
C3018 H3004 0.930 . S
C3018 C3016 1.395 . S
C3018 C3021 1.403 . S
C3019 C3016 1.403 1_565 S
C3019 C3020 1.524 . S
C3019 C3023 1.400 . S
C3020 H3005 0.960 . S
C3020 H3006 0.960 1_565 S
C3020 H3007 0.960 . S
C3020 C3019 1.524 . S
C3021 C3018 1.403 . S
C3021 C3022 1.392 1_545 S
C3021 C3025 1.495 . S
C3022 C3021 1.392 1_565 S
C3022 C3023 1.385 . S
C3022 C3024 1.478 . S
C3023 H3017 0.930 . S
C3023 C3019 1.400 . S
C3023 C3022 1.385 . S
C3024 C3022 1.478 . S
C3024 C3026 1.381 1_565 S
C3024 C3030 1.383 . S
C3025 C3021 1.495 . S
C3025 H3031 0.959 . S
C3025 H3032 0.961 1_545 S
C3025 H3033 0.960 . S
C3026 C3024 1.381 1_545 S
C3026 C3027 1.394 1_545 S
C3026 H3034 0.930 . S
C3027 C3026 1.394 1_565 S
C3027 C3028 1.383 . S
C3027 H3035 0.929 1_565 S
C3028 C3027 1.383 . S
C3028 C3029 1.377 . S
C3029 H3013 0.930 . S
C3029 C3028 1.377 . S
C3029 C3030 1.379 . S
C3030 H3014 0.931 . S
C3030 C3024 1.383 . S
C3030 C3029 1.379 . S
H3031 C3025 0.959 . S
H3032 C3025 0.961 1_565 S
H3033 C3025 0.960 . S
H3034 C3026 0.930 . S
H3035 C3027 0.929 1_545 S
H3036 C3044 0.929 . S
H3037 C3046 0.930 . S
H3038 C3048 0.930 . S
H3039 C3051 0.929 . S
H3040 C3054 0.930 . S
H3041 C3056 0.887 1_556 S
H3042 C3056 0.960 . S
H3043 C3056 0.960 . S
C3044 H3036 0.929 . S
C3044 C3045 1.377 . S
C3044 C3046 1.384 . S
C3045 C3044 1.377 . S
C3045 C3051 1.390 . S
C3046 H3037 0.930 . S
C3046 C3044 1.384 . S
C3046 C3047 1.372 . S
C3047 C3046 1.372 . S
C3047 C3048 1.400 . S
C3047 C3052 1.490 . S
C3048 H3038 0.930 . S
C3048 C3047 1.400 . S
C3048 C3051 1.386 . S
H3049 C3065 0.930 . S
H3050 C3066 0.931 . S
C3051 H3039 0.929 . S
C3051 C3045 1.390 . S
C3051 C3048 1.386 . S
C3052 C3047 1.490 . S
C3052 C3054 1.395 . S
C3052 C3055 1.403 . S
H3053 C3059 0.930 . S
C3054 H3040 0.930 . S
C3054 C3052 1.395 . S
C3054 C3057 1.403 1_554 S
C3055 C3052 1.403 . S
C3055 C3056 1.524 . S
C3055 C3059 1.400 1_554 S
C3056 H3041 0.887 1_554 S
C3056 H3042 0.960 . S
C3056 H3043 0.960 . S
C3056 C3055 1.524 . S
C3057 C3054 1.403 1_556 S
C3057 C3058 1.392 . S
C3057 C3061 1.495 . S
C3058 C3057 1.392 . S
C3058 C3059 1.385 . S
C3058 C3060 1.478 . S
C3059 H3053 0.930 . S
C3059 C3055 1.400 1_556 S
C3059 C3058 1.385 . S
C3060 C3058 1.478 . S
C3060 C3062 1.381 . S
C3060 C3066 1.383 . S
C3061 C3057 1.495 . S
C3061 H3067 0.959 1_556 S
C3061 H3068 0.961 . S
C3061 H3069 0.960 . S
C3062 C3060 1.381 . S
C3062 C3063 1.394 . S
C3062 H3070 0.930 . S
C3063 C3062 1.394 . S
C3063 C3064 1.383 . S
C3063 H3071 0.929 . S
C3064 C3063 1.383 . S
C3064 C3065 1.377 . S
C3065 H3049 0.930 . S
C3065 C3064 1.377 . S
C3065 C3066 1.379 . S
C3066 H3050 0.931 . S
C3066 C3060 1.383 . S
C3066 C3065 1.379 . S
H3067 C3061 0.959 1_554 S
H3068 C3061 0.961 . S
H3069 C3061 0.960 . S
H3070 C3062 0.930 . S
H3071 C3063 0.929 . S
H3072 C3080 0.929 . S
H3073 C3082 0.930 . S
H3074 C3084 0.930 . S
H3075 C3087 0.929 . S
H3076 C3090 0.930 . S
H3077 C3092 0.960 . S
H3078 C3092 0.960 . S
H3079 C3092 0.960 . S
C3080 H3072 0.929 . S
C3080 C3081 1.377 . S
C3080 C3082 1.384 . S
C3081 C3080 1.377 . S
C3081 C3087 1.390 . S
C3082 H3073 0.930 . S
C3082 C3080 1.384 . S
C3082 C3083 1.372 . S
C3083 C3082 1.372 . S
C3083 C3084 1.400 . S
C3083 C3088 1.490 . S
C3084 H3074 0.930 . S
C3084 C3083 1.400 . S
C3084 C3087 1.386 . S
H3085 C3101 0.930 . S
H3086 C3102 0.931 . S
C3087 H3075 0.929 . S
C3087 C3081 1.390 . S
C3087 C3084 1.386 . S
C3088 C3083 1.490 . S
C3088 C3090 1.395 . S
C3088 C3091 1.403 . S
H3089 C3095 0.930 . S
C3090 H3076 0.930 . S
C3090 C3088 1.395 . S
C3090 C3093 1.403 . S
C3091 C3088 1.403 . S
C3091 C3092 1.524 . S
C3091 C3095 1.400 . S
C3092 H3077 0.960 . S
C3092 H3078 0.960 . S
C3092 H3079 0.960 . S
C3092 C3091 1.524 . S
C3093 C3090 1.403 . S
C3093 C3094 1.392 . S
C3093 C3097 1.495 . S
C3094 C3093 1.392 . S
C3094 C3095 1.385 . S
C3094 C3096 1.478 . S
C3095 H3089 0.930 . S
C3095 C3091 1.400 . S
C3095 C3094 1.385 . S
C3096 C3094 1.478 . S
C3096 C3098 1.381 . S
C3096 C3102 1.383 . S
C3097 C3093 1.495 . S
C3097 H3103 0.959 . S
C3097 H3104 0.961 . S
C3097 H3105 0.960 . S
C3098 C3096 1.381 . S
C3098 C3099 1.394 . S
C3098 H3106 0.930 . S
C3099 C3098 1.394 . S
C3099 C3100 1.383 . S
C3099 H3107 0.929 . S
C3100 C3099 1.383 . S
C3100 C3101 1.377 . S
C3101 H3085 0.930 . S
C3101 C3100 1.377 . S
C3101 C3102 1.379 . S
C3102 H3086 0.931 . S
C3102 C3096 1.383 . S
C3102 C3101 1.379 . S
H3103 C3097 0.959 . S
H3104 C3097 0.961 . S
H3105 C3097 0.960 . S
H3106 C3098 0.930 . S
H3107 C3099 0.929 . S
H3108 C3116 0.929 . S
H3109 C3118 0.930 . S
H3110 C3120 0.930 . S
H3111 C3123 0.929 . S
H3112 C3126 0.930 . S
H3113 C3128 0.960 1_556 S
H3114 C3128 0.960 . S
H3115 C3128 0.960 . S
C3116 H3108 0.929 . S
C3116 C3117 1.377 . S
C3116 C3118 1.384 . S
C3117 C3116 1.377 . S
C3117 C3123 1.390 . S
C3118 H3109 0.930 . S
C3118 C3116 1.384 . S
C3118 C3119 1.372 . S
C3119 C3118 1.372 . S
C3119 C3120 1.400 . S
C3119 C3124 1.490 . S
C3120 H3110 0.930 . S
C3120 C3119 1.400 . S
C3120 C3123 1.386 . S
H3121 C3137 0.930 . S
H3122 C3138 0.931 . S
C3123 H3111 0.929 . S
C3123 C3117 1.390 . S
C3123 C3120 1.386 . S
C3124 C3119 1.490 . S
C3124 C3126 1.395 . S
C3124 C3127 1.403 . S
H3125 C3131 0.930 . S
C3126 H3112 0.930 . S
C3126 C3124 1.395 . S
C3126 C3129 1.403 1_554 S
C3127 C3124 1.403 . S
C3127 C3128 1.524 . S
C3127 C3131 1.400 1_554 S
C3128 H3113 0.960 1_554 S
C3128 H3114 0.960 . S
C3128 H3115 0.960 . S
C3128 C3127 1.524 . S
C3129 C3126 1.403 1_556 S
C3129 C3130 1.392 . S
C3129 C3133 1.495 . S
C3130 C3129 1.392 . S
C3130 C3131 1.385 . S
C3130 C3132 1.478 . S
C3131 H3125 0.930 . S
C3131 C3127 1.400 1_556 S
C3131 C3130 1.385 . S
C3132 C3130 1.478 . S
C3132 C3134 1.381 . S
C3132 C3138 1.383 . S
C3133 C3129 1.495 . S
C3133 H3139 0.959 1_556 S
C3133 H3140 0.961 . S
C3133 H3141 0.960 . S
C3134 C3132 1.381 . S
C3134 C3135 1.394 . S
C3134 H3142 0.930 . S
C3135 C3134 1.394 . S
C3135 C3136 1.383 . S
C3135 H3143 0.929 . S
C3136 C3135 1.383 . S
C3136 C3137 1.377 . S
C3137 H3121 0.930 . S
C3137 C3136 1.377 . S
C3137 C3138 1.379 . S
C3138 H3122 0.931 . S
C3138 C3132 1.383 . S
C3138 C3137 1.379 . S
H3139 C3133 0.959 1_554 S
H3140 C3133 0.961 . S
H3141 C3133 0.960 . S
H3142 C3134 0.930 . S
H3143 C3135 0.929 . S
H3144 C3152 0.929 . S
H3145 C3154 0.930 . S
H3146 C3156 0.930 . S
H3147 C3159 0.929 . S
H3148 C3162 0.930 . S
H3149 C3164 0.960 . S
H3150 C3164 0.960 . S
H3151 C3164 0.960 . S
C3152 H3144 0.929 . S
C3152 C3153 1.377 . S
C3152 C3154 1.384 . S
C3153 C3152 1.377 . S
C3153 C3159 1.390 . S
C3154 H3145 0.930 . S
C3154 C3152 1.384 . S
C3154 C3155 1.372 . S
C3155 C3154 1.372 . S
C3155 C3156 1.400 . S
C3155 C3160 1.490 . S
C3156 H3146 0.930 . S
C3156 C3155 1.400 . S
C3156 C3159 1.386 . S
H3157 C3173 0.930 . S
H3158 C3174 0.931 . S
C3159 H3147 0.929 . S
C3159 C3153 1.390 . S
C3159 C3156 1.386 . S
C3160 C3155 1.490 . S
C3160 C3162 1.395 . S
C3160 C3163 1.403 . S
H3161 C3167 0.930 . S
C3162 H3148 0.930 . S
C3162 C3160 1.395 . S
C3162 C3165 1.403 . S
C3163 C3160 1.403 . S
C3163 C3164 1.524 . S
C3163 C3167 1.400 . S
C3164 H3149 0.960 . S
C3164 H3150 0.960 . S
C3164 H3151 0.960 . S
C3164 C3163 1.524 . S
C3165 C3162 1.403 . S
C3165 C3166 1.392 . S
C3165 C3169 1.495 . S
C3166 C3165 1.392 . S
C3166 C3167 1.385 . S
C3166 C3168 1.478 . S
C3167 H3161 0.930 . S
C3167 C3163 1.400 . S
C3167 C3166 1.385 . S
C3168 C3166 1.478 . S
C3168 C3170 1.381 . S
C3168 C3174 1.383 . S
C3169 C3165 1.495 . S
C3169 H3175 0.959 . S
C3169 H3176 0.961 . S
C3169 H3177 0.960 . S
C3170 C3168 1.381 . S
C3170 C3171 1.394 . S
C3170 H3178 0.930 . S
C3171 C3170 1.394 . S
C3171 C3172 1.383 . S
C3171 H3179 0.929 . S
C3172 C3171 1.383 . S
C3172 C3173 1.377 . S
C3173 H3157 0.930 . S
C3173 C3172 1.377 . S
C3173 C3174 1.379 . S
C3174 H3158 0.931 . S
C3174 C3168 1.383 . S
C3174 C3173 1.379 . S
H3175 C3169 0.959 . S
H3176 C3169 0.961 . S
H3177 C3169 0.960 . S
H3178 C3170 0.930 . S
H3179 C3171 0.929 . S
H3180 C3188 0.929 . S
H3181 C3190 0.930 . S
H3182 C3192 0.930 . S
H3183 C3195 0.929 . S
H3184 C3198 0.930 . S
H3185 C3200 0.960 . S
H3186 C3200 0.960 . S
H3187 C3200 0.960 . S
C3188 H3180 0.929 . S
C3188 C3189 1.377 . S
C3188 C3190 1.384 . S
C3189 C3188 1.377 . S
C3189 C3195 1.390 . S
C3190 H3181 0.930 . S
C3190 C3188 1.384 . S
C3190 C3191 1.372 . S
C3191 C3190 1.372 . S
C3191 C3192 1.400 . S
C3191 C3196 1.490 . S
C3192 H3182 0.930 . S
C3192 C3191 1.400 . S
C3192 C3195 1.386 . S
H3193 C3209 0.930 . S
H3194 C3210 0.931 . S
C3195 H3183 0.929 . S
C3195 C3189 1.390 . S
C3195 C3192 1.386 . S
C3196 C3191 1.490 . S
C3196 C3198 1.395 . S
C3196 C3199 1.403 . S
H3197 C3203 0.930 . S
C3198 H3184 0.930 . S
C3198 C3196 1.395 . S
C3198 C3201 1.403 . S
C3199 C3196 1.403 . S
C3199 C3200 1.524 . S
C3199 C3203 1.400 . S
C3200 H3185 0.960 . S
C3200 H3186 0.960 . S
C3200 H3187 0.960 . S
C3200 C3199 1.524 . S
C3201 C3198 1.403 . S
C3201 C3202 1.392 . S
C3201 C3205 1.495 . S
C3202 C3201 1.392 . S
C3202 C3203 1.385 . S
C3202 C3204 1.478 . S
C3203 H3197 0.930 . S
C3203 C3199 1.400 . S
C3203 C3202 1.385 . S
C3204 C3202 1.478 . S
C3204 C3206 1.381 . S
C3204 C3210 1.383 . S
C3205 C3201 1.495 . S
C3205 H3211 0.959 . S
C3205 H3212 0.961 . S
C3205 H3213 0.960 . S
C3206 C3204 1.381 . S
C3206 C3207 1.394 . S
C3206 H3214 0.930 . S
C3207 C3206 1.394 . S
C3207 C3208 1.383 . S
C3207 H3215 0.929 . S
C3208 C3207 1.383 . S
C3208 C3209 1.377 . S
C3209 H3193 0.930 . S
C3209 C3208 1.377 . S
C3209 C3210 1.379 . S
C3210 H3194 0.931 . S
C3210 C3204 1.383 . S
C3210 C3209 1.379 . S
H3211 C3205 0.959 . S
H3212 C3205 0.961 . S
H3213 C3205 0.960 . S
H3214 C3206 0.930 . S
H3215 C3207 0.929 . S
H3216 C3224 0.929 . S
H3217 C3226 0.930 . S
H3218 C3228 0.930 . S
H3219 C3231 0.929 . S
H3220 C3234 0.930 . S
H3221 C3236 0.960 . S
H3222 C3236 0.960 . S
H3223 C3236 0.960 . S
C3224 H3216 0.929 . S
C3224 C3225 1.377 . S
C3224 C3226 1.384 . S
C3225 C3224 1.377 . S
C3225 C3231 1.390 . S
C3226 H3217 0.930 . S
C3226 C3224 1.384 . S
C3226 C3227 1.372 . S
C3227 C3226 1.372 . S
C3227 C3228 1.400 . S
C3227 C3232 1.490 . S
C3228 H3218 0.930 . S
C3228 C3227 1.400 . S
C3228 C3231 1.386 . S
H3229 C3245 0.930 . S
H3230 C3246 0.931 . S
C3231 H3219 0.929 . S
C3231 C3225 1.390 . S
C3231 C3228 1.386 . S
C3232 C3227 1.490 . S
C3232 C3234 1.395 . S
C3232 C3235 1.403 . S
H3233 C3239 0.930 . S
C3234 H3220 0.930 . S
C3234 C3232 1.395 . S
C3234 C3237 1.403 . S
C3235 C3232 1.403 . S
C3235 C3236 1.524 . S
C3235 C3239 1.400 . S
C3236 H3221 0.960 . S
C3236 H3222 0.960 . S
C3236 H3223 0.960 . S
C3236 C3235 1.524 . S
C3237 C3234 1.403 . S
C3237 C3238 1.392 . S
C3237 C3241 1.495 . S
C3238 C3237 1.392 . S
C3238 C3239 1.385 . S
C3238 C3240 1.478 . S
C3239 H3233 0.930 . S
C3239 C3235 1.400 . S
C3239 C3238 1.385 . S
C3240 C3238 1.478 . S
C3240 C3242 1.381 . S
C3240 C3246 1.383 . S
C3241 C3237 1.495 . S
C3241 H3247 0.959 . S
C3241 H3248 0.961 . S
C3241 H3249 0.960 . S
C3242 C3240 1.381 . S
C3242 C3243 1.394 . S
C3242 H3250 0.930 . S
C3243 C3242 1.394 . S
C3243 C3244 1.383 . S
C3243 H3251 0.929 . S
C3244 C3243 1.383 . S
C3244 C3245 1.377 . S
C3245 H3229 0.930 . S
C3245 C3244 1.377 . S
C3245 C3246 1.379 . S
C3246 H3230 0.931 . S
C3246 C3240 1.383 . S
C3246 C3245 1.379 . S
H3247 C3241 0.959 . S
H3248 C3241 0.961 . S
H3249 C3241 0.960 . S
H3250 C3242 0.930 . S
H3251 C3243 0.929 . S
H3252 C3260 0.929 . S
H3253 C3262 0.930 . S
H3254 C3264 0.930 . S
H3255 C3267 0.929 . S
H3256 C3270 0.930 . S
H3257 C3272 0.960 . S
H3258 C3272 0.960 . S
H3259 C3272 0.960 . S
C3260 H3252 0.929 . S
C3260 C3261 1.377 . S
C3260 C3262 1.384 . S
C3261 C3260 1.377 . S
C3261 C3267 1.390 . S
C3262 H3253 0.930 . S
C3262 C3260 1.384 . S
C3262 C3263 1.372 . S
C3263 C3262 1.372 . S
C3263 C3264 1.400 . S
C3263 C3268 1.490 . S
C3264 H3254 0.930 . S
C3264 C3263 1.400 . S
C3264 C3267 1.386 . S
H3265 C3281 0.930 . S
H3266 C3282 0.931 . S
C3267 H3255 0.929 . S
C3267 C3261 1.390 . S
C3267 C3264 1.386 . S
C3268 C3263 1.490 . S
C3268 C3270 1.395 . S
C3268 C3271 1.403 . S
H3269 C3275 0.930 . S
C3270 H3256 0.930 . S
C3270 C3268 1.395 . S
C3270 C3273 1.403 1_556 S
C3271 C3268 1.403 . S
C3271 C3272 1.524 . S
C3271 C3275 1.400 1_556 S
C3272 H3257 0.960 . S
C3272 H3258 0.960 . S
C3272 H3259 0.960 . S
C3272 C3271 1.524 . S
C3273 C3270 1.403 1_554 S
C3273 C3274 1.392 . S
C3273 C3277 1.495 . S
C3274 C3273 1.392 . S
C3274 C3275 1.385 . S
C3274 C3276 1.478 . S
C3275 H3269 0.930 . S
C3275 C3271 1.400 1_554 S
C3275 C3274 1.385 . S
C3276 C3274 1.478 . S
C3276 C3278 1.381 . S
C3276 C3282 1.383 . S
C3277 C3273 1.495 . S
C3277 H3283 0.959 . S
C3277 H3284 0.961 . S
C3277 H3285 0.960 . S
C3278 C3276 1.381 . S
C3278 C3279 1.394 . S
C3278 H3286 0.930 . S
C3279 C3278 1.394 . S
C3279 C3280 1.383 . S
C3279 H3287 0.929 . S
C3280 C3279 1.383 . S
C3280 C3281 1.377 . S
C3281 H3265 0.930 . S
C3281 C3280 1.377 . S
C3281 C3282 1.379 . S
C3282 H3266 0.931 . S
C3282 C3276 1.383 . S
C3282 C3281 1.379 . S
H3283 C3277 0.959 . S
H3284 C3277 0.961 . S
H3285 C3277 0.960 . S
H3286 C3278 0.930 . S
H3287 C3279 0.929 . S
H3288 C3296 0.929 . S
H3289 C3298 0.930 . S
H3290 C3300 0.930 . S
H3291 C3303 0.929 . S
H3292 C3306 0.930 . S
H3293 C3308 0.960 . S
H3294 C3308 0.960 . S
H3295 C3308 0.960 . S
C3296 H3288 0.929 . S
C3296 C3297 1.377 . S
C3296 C3298 1.384 . S
C3297 C3296 1.377 . S
C3297 C3303 1.390 . S
C3298 H3289 0.930 . S
C3298 C3296 1.384 . S
C3298 C3299 1.372 . S
C3299 C3298 1.372 . S
C3299 C3300 1.400 . S
C3299 C3304 1.490 . S
C3300 H3290 0.930 . S
C3300 C3299 1.400 . S
C3300 C3303 1.386 . S
H3301 C3317 0.930 . S
H3302 C3318 0.931 . S
C3303 H3291 0.929 . S
C3303 C3297 1.390 . S
C3303 C3300 1.386 . S
C3304 C3299 1.490 . S
C3304 C3306 1.395 . S
C3304 C3307 1.403 . S
H3305 C3311 0.930 . S
C3306 H3292 0.930 . S
C3306 C3304 1.395 . S
C3306 C3309 1.403 . S
C3307 C3304 1.403 . S
C3307 C3308 1.524 . S
C3307 C3311 1.400 . S
C3308 H3293 0.960 . S
C3308 H3294 0.960 . S
C3308 H3295 0.960 . S
C3308 C3307 1.524 . S
C3309 C3306 1.403 . S
C3309 C3310 1.392 . S
C3309 C3313 1.495 . S
C3310 C3309 1.392 . S
C3310 C3311 1.385 . S
C3310 C3312 1.478 . S
C3311 H3305 0.930 . S
C3311 C3307 1.400 . S
C3311 C3310 1.385 . S
C3312 C3310 1.478 . S
C3312 C3314 1.381 . S
C3312 C3318 1.383 . S
C3313 C3309 1.495 . S
C3313 H3319 0.959 . S
C3313 H3320 0.961 . S
C3313 H3321 0.960 . S
C3314 C3312 1.381 . S
C3314 C3315 1.394 . S
C3314 H3322 0.930 . S
C3315 C3314 1.394 . S
C3315 C3316 1.383 . S
C3315 H3323 0.929 . S
C3316 C3315 1.383 . S
C3316 C3317 1.377 . S
C3317 H3301 0.930 . S
C3317 C3316 1.377 . S
C3317 C3318 1.379 . S
C3318 H3302 0.931 . S
C3318 C3312 1.383 . S
C3318 C3317 1.379 . S
H3319 C3313 0.959 . S
H3320 C3313 0.961 . S
H3321 C3313 0.960 . S
H3322 C3314 0.930 . S
H3323 C3315 0.929 . S
H3324 C3332 0.929 . S
H3325 C3334 0.930 . S
H3326 C3336 0.930 . S
H3327 C3339 0.929 . S
H3328 C3342 0.930 . S
H3329 C3344 0.960 . S
H3330 C3344 0.960 . S
H3331 C3344 0.960 . S
C3332 H3324 0.929 . S
C3332 C3333 1.377 . S
C3332 C3334 1.384 . S
C3333 C3332 1.377 . S
C3333 C3339 1.390 . S
C3334 H3325 0.930 . S
C3334 C3332 1.384 . S
C3334 C3335 1.372 . S
C3335 C3334 1.372 . S
C3335 C3336 1.400 . S
C3335 C3340 1.490 . S
C3336 H3326 0.930 . S
C3336 C3335 1.400 . S
C3336 C3339 1.386 . S
H3337 C3353 0.930 . S
H3338 C3354 0.931 . S
C3339 H3327 0.929 . S
C3339 C3333 1.390 . S
C3339 C3336 1.386 . S
C3340 C3335 1.490 . S
C3340 C3342 1.395 . S
C3340 C3343 1.403 . S
H3341 C3347 0.930 . S
C3342 H3328 0.930 . S
C3342 C3340 1.395 . S
C3342 C3345 1.403 . S
C3343 C3340 1.403 . S
C3343 C3344 1.524 . S
C3343 C3347 1.400 . S
C3344 H3329 0.960 . S
C3344 H3330 0.960 . S
C3344 H3331 0.960 . S
C3344 C3343 1.524 . S
C3345 C3342 1.403 . S
C3345 C3346 1.392 . S
C3345 C3349 1.495 . S
C3346 C3345 1.392 . S
C3346 C3347 1.385 . S
C3346 C3348 1.478 . S
C3347 H3341 0.930 . S
C3347 C3343 1.400 . S
C3347 C3346 1.385 . S
C3348 C3346 1.478 . S
C3348 C3350 1.381 . S
C3348 C3354 1.383 . S
C3349 C3345 1.495 . S
C3349 H3355 0.959 . S
C3349 H3356 0.961 . S
C3349 H3357 0.960 . S
C3350 C3348 1.381 . S
C3350 C3351 1.394 . S
C3350 H3358 0.930 . S
C3351 C3350 1.394 . S
C3351 C3352 1.383 . S
C3351 H3359 0.929 . S
C3352 C3351 1.383 . S
C3352 C3353 1.377 . S
C3353 H3337 0.930 . S
C3353 C3352 1.377 . S
C3353 C3354 1.379 . S
C3354 H3338 0.931 . S
C3354 C3348 1.383 . S
C3354 C3353 1.379 . S
H3355 C3349 0.959 . S
H3356 C3349 0.961 . S
H3357 C3349 0.960 . S
H3358 C3350 0.930 . S
H3359 C3351 0.929 . S
H3360 C3368 0.929 . S
H3361 C3370 0.930 . S
H3362 C3372 0.930 . S
H3363 C3375 0.929 . S
H3364 C3378 0.930 . S
H3365 C3380 0.960 . S
H3366 C3380 0.960 . S
H3367 C3380 0.960 . S
C3368 H3360 0.929 . S
C3368 C3369 1.377 . S
C3368 C3370 1.384 . S
C3369 C3368 1.377 . S
C3369 C3375 1.390 1_455 S
C3370 H3361 0.930 . S
C3370 C3368 1.384 . S
C3370 C3371 1.372 . S
C3371 C3370 1.372 . S
C3371 C3372 1.400 1_455 S
C3371 C3376 1.490 . S
C3372 H3362 0.930 . S
C3372 C3371 1.400 1_655 S
C3372 C3375 1.386 . S
H3373 C3389 0.930 . S
H3374 C3390 0.931 . S
C3375 H3363 0.929 . S
C3375 C3369 1.390 1_655 S
C3375 C3372 1.386 . S
C3376 C3371 1.490 . S
C3376 C3378 1.395 1_455 S
C3376 C3379 1.403 . S
H3377 C3383 0.930 . S
C3378 H3364 0.930 . S
C3378 C3376 1.395 1_655 S
C3378 C3381 1.403 . S
C3379 C3376 1.403 . S
C3379 C3380 1.524 . S
C3379 C3383 1.400 . S
C3380 H3365 0.960 . S
C3380 H3366 0.960 . S
C3380 H3367 0.960 . S
C3380 C3379 1.524 . S
C3381 C3378 1.403 . S
C3381 C3382 1.392 . S
C3381 C3385 1.495 . S
C3382 C3381 1.392 . S
C3382 C3383 1.385 1_655 S
C3382 C3384 1.478 . S
C3383 H3377 0.930 . S
C3383 C3379 1.400 . S
C3383 C3382 1.385 1_455 S
C3384 C3382 1.478 . S
C3384 C3386 1.381 1_655 S
C3384 C3390 1.383 . S
C3385 C3381 1.495 . S
C3385 H3391 0.959 . S
C3385 H3392 0.961 . S
C3385 H3393 0.960 . S
C3386 C3384 1.381 1_455 S
C3386 C3387 1.394 . S
C3386 H3394 0.930 . S
C3387 C3386 1.394 . S
C3387 C3388 1.383 1_455 S
C3387 H3395 0.929 . S
C3388 C3387 1.383 1_655 S
C3388 C3389 1.377 . S
C3389 H3373 0.930 . S
C3389 C3388 1.377 . S
C3389 C3390 1.379 . S
C3390 H3374 0.931 . S
C3390 C3384 1.383 . S
C3390 C3389 1.379 . S
H3391 C3385 0.959 . S
H3392 C3385 0.961 . S
H3393 C3385 0.960 . S
H3394 C3386 0.930 . S
H3395 C3387 0.929 . S
H3396 C3404 0.929 . S
H3397 C3406 0.930 . S
H3398 C3408 0.930 . S
H3399 C3411 0.929 . S
H3400 C3414 0.930 . S
H3401 C3416 0.960 . S
H3402 C3416 0.960 . S
H3403 C3416 0.960 . S
C3404 H3396 0.929 . S
C3404 C3405 1.377 . S
C3404 C3406 1.384 . S
C3405 C3404 1.377 . S
C3405 C3411 1.390 . S
C3406 H3397 0.930 . S
C3406 C3404 1.384 . S
C3406 C3407 1.372 . S
C3407 C3406 1.372 . S
C3407 C3408 1.400 . S
C3407 C3412 1.490 . S
C3408 H3398 0.930 . S
C3408 C3407 1.400 . S
C3408 C3411 1.386 . S
H3409 C3425 0.930 . S
H3410 C3426 0.931 . S
C3411 H3399 0.929 . S
C3411 C3405 1.390 . S
C3411 C3408 1.386 . S
C3412 C3407 1.490 . S
C3412 C3414 1.395 . S
C3412 C3415 1.403 . S
H3413 C3419 0.930 . S
C3414 H3400 0.930 . S
C3414 C3412 1.395 . S
C3414 C3417 1.403 1_655 S
C3415 C3412 1.403 . S
C3415 C3416 1.524 . S
C3415 C3419 1.400 1_655 S
C3416 H3401 0.960 . S
C3416 H3402 0.960 . S
C3416 H3403 0.960 . S
C3416 C3415 1.524 . S
C3417 C3414 1.403 1_455 S
C3417 C3418 1.392 . S
C3417 C3421 1.495 . S
C3418 C3417 1.392 . S
C3418 C3419 1.385 . S
C3418 C3420 1.478 . S
C3419 H3413 0.930 . S
C3419 C3415 1.400 1_455 S
C3419 C3418 1.385 . S
C3420 C3418 1.478 . S
C3420 C3422 1.381 . S
C3420 C3426 1.383 . S
C3421 C3417 1.495 . S
C3421 H3427 0.959 . S
C3421 H3428 0.961 . S
C3421 H3429 0.960 . S
C3422 C3420 1.381 . S
C3422 C3423 1.394 . S
C3422 H3430 0.930 . S
C3423 C3422 1.394 . S
C3423 C3424 1.383 . S
C3423 H3431 0.929 . S
C3424 C3423 1.383 . S
C3424 C3425 1.377 . S
C3425 H3409 0.930 . S
C3425 C3424 1.377 . S
C3425 C3426 1.379 . S
C3426 H3410 0.931 . S
C3426 C3420 1.383 . S
C3426 C3425 1.379 . S
H3427 C3421 0.959 . S
H3428 C3421 0.961 . S
H3429 C3421 0.960 . S
H3430 C3422 0.930 . S
H3431 C3423 0.929 . S
H3432 C3440 0.929 . S
H3433 C3442 0.930 . S
H3434 C3444 0.930 . S
H3435 C3447 0.929 . S
H3436 C3450 0.930 . S
H3437 C3452 0.960 . S
H3438 C3452 0.960 . S
H3439 C3452 0.960 . S
C3440 H3432 0.929 . S
C3440 C3441 1.377 . S
C3440 C3442 1.384 . S
C3441 C3440 1.377 . S
C3441 C3447 1.390 . S
C3442 H3433 0.930 . S
C3442 C3440 1.384 . S
C3442 C3443 1.372 . S
C3443 C3442 1.372 . S
C3443 C3444 1.400 . S
C3443 C3448 1.490 . S
C3444 H3434 0.930 . S
C3444 C3443 1.400 . S
C3444 C3447 1.386 . S
H3445 C3461 0.930 . S
H3446 C3462 0.931 . S
C3447 H3435 0.929 . S
C3447 C3441 1.390 . S
C3447 C3444 1.386 . S
C3448 C3443 1.490 . S
C3448 C3450 1.395 . S
C3448 C3451 1.403 . S
H3449 C3455 0.930 . S
C3450 H3436 0.930 . S
C3450 C3448 1.395 . S
C3450 C3453 1.403 . S
C3451 C3448 1.403 . S
C3451 C3452 1.524 . S
C3451 C3455 1.400 . S
C3452 H3437 0.960 . S
C3452 H3438 0.960 . S
C3452 H3439 0.960 . S
C3452 C3451 1.524 . S
C3453 C3450 1.403 . S
C3453 C3454 1.392 . S
C3453 C3457 1.495 . S
C3454 C3453 1.392 . S
C3454 C3455 1.385 . S
C3454 C3456 1.478 . S
C3455 H3449 0.930 . S
C3455 C3451 1.400 . S
C3455 C3454 1.385 . S
C3456 C3454 1.478 . S
C3456 C3458 1.381 . S
C3456 C3462 1.383 . S
C3457 C3453 1.495 . S
C3457 H3463 0.959 . S
C3457 H3464 0.961 . S
C3457 H3465 0.960 . S
C3458 C3456 1.381 . S
C3458 C3459 1.394 . S
C3458 H3466 0.930 . S
C3459 C3458 1.394 . S
C3459 C3460 1.383 . S
C3459 H3467 0.929 . S
C3460 C3459 1.383 . S
C3460 C3461 1.377 . S
C3461 H3445 0.930 . S
C3461 C3460 1.377 . S
C3461 C3462 1.379 . S
C3462 H3446 0.931 . S
C3462 C3456 1.383 . S
C3462 C3461 1.379 . S
H3463 C3457 0.959 . S
H3464 C3457 0.961 . S
H3465 C3457 0.960 . S
H3466 C3458 0.930 . S
H3467 C3459 0.929 . S
H3468 C3476 0.929 . S
H3469 C3478 0.930 . S
H3470 C3480 0.930 . S
H3471 C3483 0.929 . S
H3472 C3486 0.930 . S
H3473 C3488 0.960 . S
H3474 C3488 0.960 . S
H3475 C3488 0.960 . S
C3476 H3468 0.929 . S
C3476 C3477 1.377 . S
C3476 C3478 1.384 . S
C3477 C3476 1.377 . S
C3477 C3483 1.390 . S
C3478 H3469 0.930 . S
C3478 C3476 1.384 . S
C3478 C3479 1.372 . S
C3479 C3478 1.372 . S
C3479 C3480 1.400 . S
C3479 C3484 1.490 . S
C3480 H3470 0.930 . S
C3480 C3479 1.400 . S
C3480 C3483 1.386 . S
H3481 C3497 0.930 . S
H3482 C3498 0.931 . S
C3483 H3471 0.929 . S
C3483 C3477 1.390 . S
C3483 C3480 1.386 . S
C3484 C3479 1.490 . S
C3484 C3486 1.395 . S
C3484 C3487 1.403 . S
H3485 C3491 0.930 . S
C3486 H3472 0.930 . S
C3486 C3484 1.395 . S
C3486 C3489 1.403 . S
C3487 C3484 1.403 . S
C3487 C3488 1.524 . S
C3487 C3491 1.400 . S
C3488 H3473 0.960 . S
C3488 H3474 0.960 . S
C3488 H3475 0.960 . S
C3488 C3487 1.524 . S
C3489 C3486 1.403 . S
C3489 C3490 1.392 . S
C3489 C3493 1.495 . S
C3490 C3489 1.392 . S
C3490 C3491 1.385 . S
C3490 C3492 1.478 . S
C3491 H3485 0.930 . S
C3491 C3487 1.400 . S
C3491 C3490 1.385 . S
C3492 C3490 1.478 . S
C3492 C3494 1.381 . S
C3492 C3498 1.383 . S
C3493 C3489 1.495 . S
C3493 H3499 0.959 . S
C3493 H3500 0.961 . S
C3493 H3501 0.960 . S
C3494 C3492 1.381 . S
C3494 C3495 1.394 . S
C3494 H3502 0.930 . S
C3495 C3494 1.394 . S
C3495 C3496 1.383 . S
C3495 H3503 0.929 . S
C3496 C3495 1.383 . S
C3496 C3497 1.377 . S
C3497 H3481 0.930 . S
C3497 C3496 1.377 . S
C3497 C3498 1.379 . S
C3498 H3482 0.931 . S
C3498 C3492 1.383 . S
C3498 C3497 1.379 . S
H3499 C3493 0.959 . S
H3500 C3493 0.961 . S
H3501 C3493 0.960 . S
H3502 C3494 0.930 . S
H3503 C3495 0.929 . S
H3504 C3512 0.929 . S
H3505 C3514 0.930 . S
H3506 C3516 0.930 . S
H3507 C3519 0.929 . S
H3508 C3522 0.930 . S
H3509 C3524 0.960 . S
H3510 C3524 0.960 1_655 S
H3511 C3524 0.960 . S
C3512 H3504 0.929 . S
C3512 C3513 1.377 . S
C3512 C3514 1.384 . S
C3513 C3512 1.377 . S
C3513 C3519 1.390 1_655 S
C3514 H3505 0.930 . S
C3514 C3512 1.384 . S
C3514 C3515 1.372 . S
C3515 C3514 1.372 . S
C3515 C3516 1.400 1_655 S
C3515 C3520 1.490 . S
C3516 H3506 0.930 . S
C3516 C3515 1.400 1_455 S
C3516 C3519 1.386 . S
H3517 C3533 0.930 . S
H3518 C3534 0.931 . S
C3519 H3507 0.929 . S
C3519 C3513 1.390 1_455 S
C3519 C3516 1.386 . S
C3520 C3515 1.490 . S
C3520 C3522 1.395 . S
C3520 C3523 1.403 1_655 S
H3521 C3527 0.930 . S
C3522 H3508 0.930 . S
C3522 C3520 1.395 . S
C3522 C3525 1.403 . S
C3523 C3520 1.403 1_455 S
C3523 C3524 1.524 . S
C3523 C3527 1.400 . S
C3524 H3509 0.960 . S
C3524 H3510 0.960 1_455 S
C3524 H3511 0.960 . S
C3524 C3523 1.524 . S
C3525 C3522 1.403 . S
C3525 C3526 1.400 . S
C3525 C3529 1.495 . S
C3526 C3525 1.400 . S
C3526 C3527 1.380 1_655 S
C3526 C3528 1.476 1_655 S
C3527 H3521 0.930 . S
C3527 C3523 1.400 . S
C3527 C3526 1.380 1_455 S
C3528 C3526 1.476 1_455 S
C3528 C3530 1.381 1_455 S
C3528 C3534 1.383 . S
C3529 C3525 1.495 . S
C3529 H3535 0.959 . S
C3529 H3536 0.961 . S
C3529 H3537 0.960 . S
C3530 C3528 1.381 1_655 S
C3530 C3531 1.394 . S
C3530 H3538 0.930 . S
C3531 C3530 1.394 . S
C3531 C3532 1.383 1_655 S
C3531 H3539 0.929 . S
C3532 C3531 1.383 1_455 S
C3532 C3533 1.377 . S
C3533 H3517 0.930 . S
C3533 C3532 1.377 . S
C3533 C3534 1.379 . S
C3534 H3518 0.931 . S
C3534 C3528 1.383 . S
C3534 C3533 1.379 . S
H3535 C3529 0.959 . S
H3536 C3529 0.961 . S
H3537 C3529 0.960 . S
H3538 C3530 0.930 . S
H3539 C3531 0.929 . S
H3540 C3548 0.929 . S
H3541 C3550 0.930 . S
H3542 C3552 0.930 . S
H3543 C3555 0.929 . S
H3544 C3558 0.930 . S
H3545 C3560 0.960 . S
H3546 C3560 0.960 . S
H3547 C3560 0.960 . S
C3548 H3540 0.929 . S
C3548 C3549 1.377 . S
C3548 C3550 1.384 . S
C3549 C3548 1.377 . S
C3549 C3555 1.390 . S
C3550 H3541 0.930 . S
C3550 C3548 1.384 . S
C3550 C3551 1.372 . S
C3551 C3550 1.372 . S
C3551 C3552 1.400 . S
C3551 C3556 1.490 . S
C3552 H3542 0.930 . S
C3552 C3551 1.400 . S
C3552 C3555 1.386 . S
H3553 C3569 0.930 . S
H3554 C3570 0.931 . S
C3555 H3543 0.929 . S
C3555 C3549 1.390 . S
C3555 C3552 1.386 . S
C3556 C3551 1.490 . S
C3556 C3558 1.395 . S
C3556 C3559 1.403 . S
H3557 C3563 0.930 . S
C3558 H3544 0.930 . S
C3558 C3556 1.395 . S
C3558 C3561 1.403 . S
C3559 C3556 1.403 . S
C3559 C3560 1.524 . S
C3559 C3563 1.400 . S
C3560 H3545 0.960 . S
C3560 H3546 0.960 . S
C3560 H3547 0.960 . S
C3560 C3559 1.524 . S
C3561 C3558 1.403 . S
C3561 C3562 1.392 . S
C3561 C3565 1.495 . S
C3562 C3561 1.392 . S
C3562 C3563 1.385 . S
C3562 C3564 1.478 . S
C3563 H3557 0.930 . S
C3563 C3559 1.400 . S
C3563 C3562 1.385 . S
C3564 C3562 1.478 . S
C3564 C3566 1.381 . S
C3564 C3570 1.383 . S
C3565 C3561 1.495 . S
C3565 H3571 0.959 . S
C3565 H3572 0.961 . S
C3565 H3573 0.960 . S
C3566 C3564 1.381 . S
C3566 C3567 1.394 . S
C3566 H3574 0.930 . S
C3567 C3566 1.394 . S
C3567 C3568 1.383 . S
C3567 H3575 0.929 . S
C3568 C3567 1.383 . S
C3568 C3569 1.377 . S
C3569 H3553 0.930 . S
C3569 C3568 1.377 . S
C3569 C3570 1.379 . S
C3570 H3554 0.931 . S
C3570 C3564 1.383 . S
C3570 C3569 1.379 . S
H3571 C3565 0.959 . S
H3572 C3565 0.961 . S
H3573 C3565 0.960 . S
H3574 C3566 0.930 . S
H3575 C3567 0.929 . S
H3576 C3584 0.929 . S
H3577 C3586 0.930 . S
H3578 C3588 0.930 . S
H3579 C3591 0.929 . S
H3580 C3594 0.930 . S
H3581 C3596 0.960 . S
H3582 C3596 0.960 . S
H3583 C3596 0.960 . S
C3584 H3576 0.929 . S
C3584 C3585 1.377 . S
C3584 C3586 1.384 . S
C3585 C3584 1.377 . S
C3585 C3591 1.390 . S
C3586 H3577 0.930 . S
C3586 C3584 1.384 . S
C3586 C3587 1.372 . S
C3587 C3586 1.372 . S
C3587 C3588 1.400 . S
C3587 C3592 1.490 . S
C3588 H3578 0.930 . S
C3588 C3587 1.400 . S
C3588 C3591 1.386 . S
H3589 C3605 0.930 . S
H3590 C3606 0.931 . S
C3591 H3579 0.929 . S
C3591 C3585 1.390 . S
C3591 C3588 1.386 . S
C3592 C3587 1.490 . S
C3592 C3594 1.395 . S
C3592 C3595 1.403 . S
H3593 C3599 0.930 . S
C3594 H3580 0.930 . S
C3594 C3592 1.395 . S
C3594 C3597 1.403 . S
C3595 C3592 1.403 . S
C3595 C3596 1.524 . S
C3595 C3599 1.400 . S
C3596 H3581 0.960 . S
C3596 H3582 0.960 . S
C3596 H3583 0.960 . S
C3596 C3595 1.524 . S
C3597 C3594 1.403 . S
C3597 C3598 1.392 . S
C3597 C3601 1.495 . S
C3598 C3597 1.392 . S
C3598 C3599 1.385 . S
C3598 C3600 1.478 . S
C3599 H3593 0.930 . S
C3599 C3595 1.400 . S
C3599 C3598 1.385 . S
C3600 C3598 1.478 . S
C3600 C3602 1.381 . S
C3600 C3606 1.383 . S
C3601 C3597 1.495 . S
C3601 H3607 0.959 . S
C3601 H3608 0.961 . S
C3601 H3609 0.960 . S
C3602 C3600 1.381 . S
C3602 C3603 1.394 . S
C3602 H3610 0.930 . S
C3603 C3602 1.394 . S
C3603 C3604 1.383 . S
C3603 H3611 0.929 . S
C3604 C3603 1.383 . S
C3604 C3605 1.377 . S
C3605 H3589 0.930 . S
C3605 C3604 1.377 . S
C3605 C3606 1.379 . S
C3606 H3590 0.931 . S
C3606 C3600 1.383 . S
C3606 C3605 1.379 . S
H3607 C3601 0.959 . S
H3608 C3601 0.961 . S
H3609 C3601 0.960 . S
H3610 C3602 0.930 . S
H3611 C3603 0.929 . S
H3612 C3620 0.929 . S
H3613 C3622 0.930 . S
H3614 C3624 0.930 . S
H3615 C3627 0.929 . S
H3616 C3630 0.930 . S
H3617 C3632 0.960 . S
H3618 C3632 0.960 . S
H3619 C3632 0.960 . S
C3620 H3612 0.929 . S
C3620 C3621 1.377 . S
C3620 C3622 1.384 . S
C3621 C3620 1.377 . S
C3621 C3627 1.390 . S
C3622 H3613 0.930 . S
C3622 C3620 1.384 . S
C3622 C3623 1.372 . S
C3623 C3622 1.372 . S
C3623 C3624 1.400 . S
C3623 C3628 1.490 . S
C3624 H3614 0.930 . S
C3624 C3623 1.400 . S
C3624 C3627 1.386 . S
H3625 C3641 0.930 . S
H3626 C3642 0.931 . S
C3627 H3615 0.929 . S
C3627 C3621 1.390 . S
C3627 C3624 1.386 . S
C3628 C3623 1.490 . S
C3628 C3630 1.395 . S
C3628 C3631 1.403 . S
H3629 C3635 0.930 . S
C3630 H3616 0.930 . S
C3630 C3628 1.395 . S
C3630 C3633 1.403 1_455 S
C3631 C3628 1.403 . S
C3631 C3632 1.524 . S
C3631 C3635 1.400 1_455 S
C3632 H3617 0.960 . S
C3632 H3618 0.960 . S
C3632 H3619 0.960 . S
C3632 C3631 1.524 . S
C3633 C3630 1.403 1_655 S
C3633 C3634 1.392 . S
C3633 C3637 1.495 . S
C3634 C3633 1.392 . S
C3634 C3635 1.385 . S
C3634 C3636 1.478 . S
C3635 H3629 0.930 . S
C3635 C3631 1.400 1_655 S
C3635 C3634 1.385 . S
C3636 C3634 1.478 . S
C3636 C3638 1.381 . S
C3636 C3642 1.383 . S
C3637 C3633 1.495 . S
C3637 H3643 0.959 . S
C3637 H3644 0.961 . S
C3637 H3645 0.960 . S
C3638 C3636 1.381 . S
C3638 C3639 1.394 . S
C3638 H3646 0.930 . S
C3639 C3638 1.394 . S
C3639 C3640 1.383 . S
C3639 H3647 0.929 . S
C3640 C3639 1.383 . S
C3640 C3641 1.377 . S
C3641 H3625 0.930 . S
C3641 C3640 1.377 . S
C3641 C3642 1.379 . S
C3642 H3626 0.931 . S
C3642 C3636 1.383 . S
C3642 C3641 1.379 . S
H3643 C3637 0.959 . S
H3644 C3637 0.961 . S
H3645 C3637 0.960 . S
H3646 C3638 0.930 . S
H3647 C3639 0.929 . S
H3648 C3656 0.929 . S
H3649 C3658 0.930 . S
H3650 C3660 0.930 . S
H3651 C3663 0.929 . S
H3652 C3666 0.930 . S
H3653 C3668 0.960 . S
H3654 C3668 0.960 . S
H3655 C3668 0.960 . S
C3656 H3648 0.929 . S
C3656 C3657 1.377 . S
C3656 C3658 1.384 . S
C3657 C3656 1.377 . S
C3657 C3663 1.390 1_655 S
C3658 H3649 0.930 . S
C3658 C3656 1.384 . S
C3658 C3659 1.372 . S
C3659 C3658 1.372 . S
C3659 C3660 1.400 1_655 S
C3659 C3664 1.490 . S
C3660 H3650 0.930 . S
C3660 C3659 1.400 1_455 S
C3660 C3663 1.386 . S
H3661 C3677 0.930 . S
H3662 C3678 0.931 . S
C3663 H3651 0.929 . S
C3663 C3657 1.390 1_455 S
C3663 C3660 1.386 . S
C3664 C3659 1.490 . S
C3664 C3666 1.395 . S
C3664 C3667 1.403 1_655 S
H3665 C3671 0.930 . S
C3666 H3652 0.930 . S
C3666 C3664 1.395 . S
C3666 C3669 1.403 . S
C3667 C3664 1.403 1_455 S
C3667 C3668 1.524 . S
C3667 C3671 1.400 . S
C3668 H3653 0.960 . S
C3668 H3654 0.960 . S
C3668 H3655 0.960 . S
C3668 C3667 1.524 . S
C3669 C3666 1.403 . S
C3669 C3670 1.392 . S
C3669 C3673 1.495 . S
C3670 C3669 1.392 . S
C3670 C3671 1.385 1_655 S
C3670 C3672 1.481 . S
C3671 H3665 0.930 . S
C3671 C3667 1.400 . S
C3671 C3670 1.385 1_455 S
C3672 C3670 1.481 . S
C3672 C3674 1.398 . S
C3672 C3678 1.361 1_655 S
C3673 C3669 1.495 . S
C3673 H3679 0.959 . S
C3673 H3680 0.961 . S
C3673 H3681 0.960 . S
C3674 C3672 1.398 . S
C3674 C3675 1.394 . S
C3674 H3682 0.930 . S
C3675 C3674 1.394 . S
C3675 C3676 1.383 1_655 S
C3675 H3683 0.929 . S
C3676 C3675 1.383 1_455 S
C3676 C3677 1.377 . S
C3677 H3661 0.930 . S
C3677 C3676 1.377 . S
C3677 C3678 1.379 . S
C3678 H3662 0.931 . S
C3678 C3672 1.361 1_455 S
C3678 C3677 1.379 . S
H3679 C3673 0.959 . S
H3680 C3673 0.961 . S
H3681 C3673 0.960 . S
H3682 C3674 0.930 . S
H3683 C3675 0.929 . S
H3684 C3692 0.929 . S
H3685 C3694 0.930 . S
H3686 C3696 0.930 . S
H3687 C3699 0.929 . S
H3688 C3702 0.930 . S
H3689 C3704 0.960 . S
H3690 C3704 0.960 . S
H3691 C3704 0.960 . S
C3692 H3684 0.929 . S
C3692 C3693 1.377 . S
C3692 C3694 1.384 . S
C3693 C3692 1.377 . S
C3693 C3699 1.390 . S
C3694 H3685 0.930 . S
C3694 C3692 1.384 . S
C3694 C3695 1.372 . S
C3695 C3694 1.372 . S
C3695 C3696 1.400 . S
C3695 C3700 1.490 . S
C3696 H3686 0.930 . S
C3696 C3695 1.400 . S
C3696 C3699 1.386 . S
H3697 C3713 0.930 . S
H3698 C3714 0.931 . S
C3699 H3687 0.929 . S
C3699 C3693 1.390 . S
C3699 C3696 1.386 . S
C3700 C3695 1.490 . S
C3700 C3702 1.395 . S
C3700 C3703 1.403 . S
H3701 C3707 0.930 . S
C3702 H3688 0.930 . S
C3702 C3700 1.395 . S
C3702 C3705 1.403 1_455 S
C3703 C3700 1.403 . S
C3703 C3704 1.524 . S
C3703 C3707 1.400 1_455 S
C3704 H3689 0.960 . S
C3704 H3690 0.960 . S
C3704 H3691 0.960 . S
C3704 C3703 1.524 . S
C3705 C3702 1.403 1_655 S
C3705 C3706 1.392 . S
C3705 C3709 1.495 . S
C3706 C3705 1.392 . S
C3706 C3707 1.385 . S
C3706 C3708 1.478 . S
C3707 H3701 0.930 . S
C3707 C3703 1.400 1_655 S
C3707 C3706 1.385 . S
C3708 C3706 1.478 . S
C3708 C3710 1.381 . S
C3708 C3714 1.383 . S
C3709 C3705 1.495 . S
C3709 H3715 0.959 . S
C3709 H3716 0.961 . S
C3709 H3717 0.960 . S
C3710 C3708 1.381 . S
C3710 C3711 1.394 . S
C3710 H3718 0.930 . S
C3711 C3710 1.394 . S
C3711 C3712 1.383 . S
C3711 H3719 0.929 . S
C3712 C3711 1.383 . S
C3712 C3713 1.377 . S
C3713 H3697 0.930 . S
C3713 C3712 1.377 . S
C3713 C3714 1.379 . S
C3714 H3698 0.931 . S
C3714 C3708 1.383 . S
C3714 C3713 1.379 . S
H3715 C3709 0.959 . S
H3716 C3709 0.961 . S
H3717 C3709 0.960 . S
H3718 C3710 0.930 . S
H3719 C3711 0.929 . S
H3720 C3728 0.929 . S
H3721 C3730 0.930 . S
H3722 C3732 0.930 . S
H3723 C3735 0.929 . S
H3724 C3738 0.930 . S
H3725 C3740 0.960 . S
H3726 C3740 0.960 . S
H3727 C3740 0.960 . S
C3728 H3720 0.929 . S
C3728 C3729 1.377 . S
C3728 C3730 1.384 . S
C3729 C3728 1.377 . S
C3729 C3735 1.390 . S
C3730 H3721 0.930 . S
C3730 C3728 1.384 . S
C3730 C3731 1.372 . S
C3731 C3730 1.372 . S
C3731 C3732 1.400 . S
C3731 C3736 1.490 . S
C3732 H3722 0.930 . S
C3732 C3731 1.400 . S
C3732 C3735 1.386 . S
H3733 C3749 0.930 . S
H3734 C3750 0.931 . S
C3735 H3723 0.929 . S
C3735 C3729 1.390 . S
C3735 C3732 1.386 . S
C3736 C3731 1.490 . S
C3736 C3738 1.395 . S
C3736 C3739 1.403 . S
H3737 C3743 0.930 . S
C3738 H3724 0.930 . S
C3738 C3736 1.395 . S
C3738 C3741 1.403 . S
C3739 C3736 1.403 . S
C3739 C3740 1.524 . S
C3739 C3743 1.400 . S
C3740 H3725 0.960 . S
C3740 H3726 0.960 . S
C3740 H3727 0.960 . S
C3740 C3739 1.524 . S
C3741 C3738 1.403 . S
C3741 C3742 1.392 . S
C3741 C3745 1.495 . S
C3742 C3741 1.392 . S
C3742 C3743 1.385 . S
C3742 C3744 1.478 . S
C3743 H3737 0.930 . S
C3743 C3739 1.400 . S
C3743 C3742 1.385 . S
C3744 C3742 1.478 . S
C3744 C3746 1.381 . S
C3744 C3750 1.383 . S
C3745 C3741 1.495 . S
C3745 H3751 0.959 . S
C3745 H3752 0.961 . S
C3745 H3753 0.960 . S
C3746 C3744 1.381 . S
C3746 C3747 1.394 . S
C3746 H3754 0.930 . S
C3747 C3746 1.394 . S
C3747 C3748 1.383 . S
C3747 H3755 0.929 . S
C3748 C3747 1.383 . S
C3748 C3749 1.377 . S
C3749 H3733 0.930 . S
C3749 C3748 1.377 . S
C3749 C3750 1.379 . S
C3750 H3734 0.931 . S
C3750 C3744 1.383 . S
C3750 C3749 1.379 . S
H3751 C3745 0.959 . S
H3752 C3745 0.961 . S
H3753 C3745 0.960 . S
H3754 C3746 0.930 . S
H3755 C3747 0.929 . S
H3756 C3764 0.929 . S
H3757 C3766 0.930 . S
H3758 C3768 0.930 . S
H3759 C3771 0.929 . S
H3760 C3774 0.930 . S
H3761 C3776 0.960 . S
H3762 C3776 0.960 . S
H3763 C3776 0.960 . S
C3764 H3756 0.929 . S
C3764 C3765 1.377 . S
C3764 C3766 1.384 . S
C3765 C3764 1.377 . S
C3765 C3771 1.390 . S
C3766 H3757 0.930 . S
C3766 C3764 1.384 . S
C3766 C3767 1.372 . S
C3767 C3766 1.372 . S
C3767 C3768 1.400 . S
C3767 C3772 1.490 . S
C3768 H3758 0.930 . S
C3768 C3767 1.400 . S
C3768 C3771 1.386 . S
H3769 C3785 0.930 . S
H3770 C3786 0.931 . S
C3771 H3759 0.929 . S
C3771 C3765 1.390 . S
C3771 C3768 1.386 . S
C3772 C3767 1.490 . S
C3772 C3774 1.395 . S
C3772 C3775 1.403 . S
H3773 C3779 0.930 . S
C3774 H3760 0.930 . S
C3774 C3772 1.395 . S
C3774 C3777 1.403 . S
C3775 C3772 1.403 . S
C3775 C3776 1.524 . S
C3775 C3779 1.400 . S
C3776 H3761 0.960 . S
C3776 H3762 0.960 . S
C3776 H3763 0.960 . S
C3776 C3775 1.524 . S
C3777 C3774 1.403 . S
C3777 C3778 1.392 . S
C3777 C3781 1.495 . S
C3778 C3777 1.392 . S
C3778 C3779 1.385 . S
C3778 C3780 1.478 . S
C3779 H3773 0.930 . S
C3779 C3775 1.400 . S
C3779 C3778 1.385 . S
C3780 C3778 1.478 . S
C3780 C3782 1.381 . S
C3780 C3786 1.383 . S
C3781 C3777 1.495 . S
C3781 H3787 0.959 . S
C3781 H3788 0.961 . S
C3781 H3789 0.960 . S
C3782 C3780 1.381 . S
C3782 C3783 1.394 . S
C3782 H3790 0.930 . S
C3783 C3782 1.394 . S
C3783 C3784 1.383 . S
C3783 H3791 0.929 . S
C3784 C3783 1.383 . S
C3784 C3785 1.377 . S
C3785 H3769 0.930 . S
C3785 C3784 1.377 . S
C3785 C3786 1.379 . S
C3786 H3770 0.931 . S
C3786 C3780 1.383 . S
C3786 C3785 1.379 . S
H3787 C3781 0.959 . S
H3788 C3781 0.961 . S
H3789 C3781 0.960 . S
H3790 C3782 0.930 . S
H3791 C3783 0.929 . S
H3792 C3800 0.924 1_455 S
H3793 C3802 0.930 . S
H3794 C3804 0.930 . S
H3795 C3807 0.929 . S
H3796 C3810 0.930 . S
H3797 C3812 0.960 . S
H3798 C3812 0.960 . S
H3799 C3812 0.960 . S
C3800 H3792 0.924 1_655 S
C3800 C3801 1.385 . S
C3800 C3802 1.382 1_655 S
C3801 C3800 1.385 . S
C3801 C3807 1.390 . S
C3802 H3793 0.930 . S
C3802 C3800 1.382 1_455 S
C3802 C3803 1.372 1_455 S
C3803 C3802 1.372 1_655 S
C3803 C3804 1.400 . S
C3803 C3808 1.490 . S
C3804 H3794 0.930 . S
C3804 C3803 1.400 . S
C3804 C3807 1.386 . S
H3805 C3821 0.930 . S
H3806 C3822 0.931 . S
C3807 H3795 0.929 . S
C3807 C3801 1.390 . S
C3807 C3804 1.386 . S
C3808 C3803 1.490 . S
C3808 C3810 1.395 . S
C3808 C3811 1.403 1_655 S
H3809 C3815 0.930 . S
C3810 H3796 0.930 . S
C3810 C3808 1.395 . S
C3810 C3813 1.403 . S
C3811 C3808 1.403 1_455 S
C3811 C3812 1.524 . S
C3811 C3815 1.400 . S
C3812 H3797 0.960 . S
C3812 H3798 0.960 . S
C3812 H3799 0.960 . S
C3812 C3811 1.524 . S
C3813 C3810 1.403 . S
C3813 C3814 1.421 . S
C3813 C3817 1.495 . S
C3814 C3813 1.421 . S
C3814 C3815 1.358 1_655 S
C3814 C3816 1.475 1_655 S
C3815 H3809 0.930 . S
C3815 C3811 1.400 . S
C3815 C3814 1.358 1_455 S
C3816 C3814 1.475 1_455 S
C3816 C3818 1.392 . S
C3816 C3822 1.375 1_455 S
C3817 C3813 1.495 . S
C3817 H3823 0.959 . S
C3817 H3824 0.961 . S
C3817 H3825 0.960 . S
C3818 C3816 1.392 . S
C3818 C3819 1.394 . S
C3818 H3826 0.930 . S
C3819 C3818 1.394 . S
C3819 C3820 1.383 . S
C3819 H3827 0.929 . S
C3820 C3819 1.383 . S
C3820 C3821 1.377 1_455 S
C3821 H3805 0.930 . S
C3821 C3820 1.377 1_655 S
C3821 C3822 1.379 . S
C3822 H3806 0.931 . S
C3822 C3816 1.375 1_655 S
C3822 C3821 1.379 . S
H3823 C3817 0.959 . S
H3824 C3817 0.961 . S
H3825 C3817 0.960 . S
H3826 C3818 0.930 . S
H3827 C3819 0.929 . S
H3828 C3836 0.929 . S
H3829 C3838 0.930 . S
H3830 C3840 0.930 . S
H3831 C3843 0.929 . S
H3832 C3846 0.930 . S
H3833 C3848 0.960 . S
H3834 C3848 0.960 . S
H3835 C3848 0.960 . S
C3836 H3828 0.929 . S
C3836 C3837 1.377 . S
C3836 C3838 1.384 . S
C3837 C3836 1.377 . S
C3837 C3843 1.390 . S
C3838 H3829 0.930 . S
C3838 C3836 1.384 . S
C3838 C3839 1.372 . S
C3839 C3838 1.372 . S
C3839 C3840 1.400 . S
C3839 C3844 1.490 . S
C3840 H3830 0.930 . S
C3840 C3839 1.400 . S
C3840 C3843 1.386 . S
H3841 C3857 0.930 . S
H3842 C3858 0.931 . S
C3843 H3831 0.929 . S
C3843 C3837 1.390 . S
C3843 C3840 1.386 . S
C3844 C3839 1.490 . S
C3844 C3846 1.395 . S
C3844 C3847 1.403 . S
H3845 C3851 0.930 . S
C3846 H3832 0.930 . S
C3846 C3844 1.395 . S
C3846 C3849 1.403 . S
C3847 C3844 1.403 . S
C3847 C3848 1.524 . S
C3847 C3851 1.400 . S
C3848 H3833 0.960 . S
C3848 H3834 0.960 . S
C3848 H3835 0.960 . S
C3848 C3847 1.524 . S
C3849 C3846 1.403 . S
C3849 C3850 1.392 . S
C3849 C3853 1.495 . S
C3850 C3849 1.392 . S
C3850 C3851 1.385 . S
C3850 C3852 1.478 . S
C3851 H3845 0.930 . S
C3851 C3847 1.400 . S
C3851 C3850 1.385 . S
C3852 C3850 1.478 . S
C3852 C3854 1.381 . S
C3852 C3858 1.383 . S
C3853 C3849 1.495 . S
C3853 H3859 0.959 . S
C3853 H3860 0.961 . S
C3853 H3861 0.960 . S
C3854 C3852 1.381 . S
C3854 C3855 1.394 . S
C3854 H3862 0.930 . S
C3855 C3854 1.394 . S
C3855 C3856 1.383 . S
C3855 H3863 0.929 . S
C3856 C3855 1.383 . S
C3856 C3857 1.377 . S
C3857 H3841 0.930 . S
C3857 C3856 1.377 . S
C3857 C3858 1.379 . S
C3858 H3842 0.931 . S
C3858 C3852 1.383 . S
C3858 C3857 1.379 . S
H3859 C3853 0.959 . S
H3860 C3853 0.961 . S
H3861 C3853 0.960 . S
H3862 C3854 0.930 . S
H3863 C3855 0.929 . S
H3864 C3872 0.929 . S
H3865 C3874 0.930 . S
H3866 C3876 0.930 . S
H3867 C3879 0.929 . S
H3868 C3882 0.930 . S
H3869 C3884 0.960 . S
H3870 C3884 0.960 . S
H3871 C3884 0.960 . S
C3872 H3864 0.929 . S
C3872 C3873 1.377 . S
C3872 C3874 1.384 . S
C3873 C3872 1.377 . S
C3873 C3879 1.390 . S
C3874 H3865 0.930 . S
C3874 C3872 1.384 . S
C3874 C3875 1.372 . S
C3875 C3874 1.372 . S
C3875 C3876 1.400 . S
C3875 C3880 1.490 . S
C3876 H3866 0.930 . S
C3876 C3875 1.400 . S
C3876 C3879 1.386 . S
H3877 C3893 0.930 . S
H3878 C3894 0.931 . S
C3879 H3867 0.929 . S
C3879 C3873 1.390 . S
C3879 C3876 1.386 . S
C3880 C3875 1.490 . S
C3880 C3882 1.395 . S
C3880 C3883 1.403 . S
H3881 C3887 0.930 . S
C3882 H3868 0.930 . S
C3882 C3880 1.395 . S
C3882 C3885 1.403 . S
C3883 C3880 1.403 . S
C3883 C3884 1.524 . S
C3883 C3887 1.400 . S
C3884 H3869 0.960 . S
C3884 H3870 0.960 . S
C3884 H3871 0.960 . S
C3884 C3883 1.524 . S
C3885 C3882 1.403 . S
C3885 C3886 1.392 . S
C3885 C3889 1.495 . S
C3886 C3885 1.392 . S
C3886 C3887 1.385 . S
C3886 C3888 1.478 . S
C3887 H3881 0.930 . S
C3887 C3883 1.400 . S
C3887 C3886 1.385 . S
C3888 C3886 1.478 . S
C3888 C3890 1.381 . S
C3888 C3894 1.383 . S
C3889 C3885 1.495 . S
C3889 H3895 0.959 . S
C3889 H3896 0.961 . S
C3889 H3897 0.960 . S
C3890 C3888 1.381 . S
C3890 C3891 1.394 . S
C3890 H3898 0.930 . S
C3891 C3890 1.394 . S
C3891 C3892 1.383 . S
C3891 H3899 0.929 . S
C3892 C3891 1.383 . S
C3892 C3893 1.377 . S
C3893 H3877 0.930 . S
C3893 C3892 1.377 . S
C3893 C3894 1.379 . S
C3894 H3878 0.931 . S
C3894 C3888 1.383 . S
C3894 C3893 1.379 . S
H3895 C3889 0.959 . S
H3896 C3889 0.961 . S
H3897 C3889 0.960 . S
H3898 C3890 0.930 . S
H3899 C3891 0.929 . S
H3900 C3908 0.929 . S
H3901 C3910 0.930 . S
H3902 C3912 0.930 . S
H3903 C3915 0.929 . S
H3904 C3918 0.930 . S
H3905 C3920 0.960 . S
H3906 C3920 0.960 . S
H3907 C3920 0.960 . S
C3908 H3900 0.929 . S
C3908 C3909 1.377 . S
C3908 C3910 1.384 . S
C3909 C3908 1.377 . S
C3909 C3915 1.390 . S
C3910 H3901 0.930 . S
C3910 C3908 1.384 . S
C3910 C3911 1.372 . S
C3911 C3910 1.372 . S
C3911 C3912 1.400 . S
C3911 C3916 1.490 . S
C3912 H3902 0.930 . S
C3912 C3911 1.400 . S
C3912 C3915 1.386 . S
H3913 C3929 0.930 . S
H3914 C3930 0.931 . S
C3915 H3903 0.929 . S
C3915 C3909 1.390 . S
C3915 C3912 1.386 . S
C3916 C3911 1.490 . S
C3916 C3918 1.395 . S
C3916 C3919 1.403 . S
H3917 C3923 0.930 . S
C3918 H3904 0.930 . S
C3918 C3916 1.395 . S
C3918 C3921 1.403 1_655 S
C3919 C3916 1.403 . S
C3919 C3920 1.524 . S
C3919 C3923 1.400 1_655 S
C3920 H3905 0.960 . S
C3920 H3906 0.960 . S
C3920 H3907 0.960 . S
C3920 C3919 1.524 . S
C3921 C3918 1.403 1_455 S
C3921 C3922 1.392 . S
C3921 C3925 1.495 . S
C3922 C3921 1.392 . S
C3922 C3923 1.385 . S
C3922 C3924 1.478 . S
C3923 H3917 0.930 . S
C3923 C3919 1.400 1_455 S
C3923 C3922 1.385 . S
C3924 C3922 1.478 . S
C3924 C3926 1.381 . S
C3924 C3930 1.383 . S
C3925 C3921 1.495 . S
C3925 H3931 0.959 . S
C3925 H3932 0.961 . S
C3925 H3933 0.960 . S
C3926 C3924 1.381 . S
C3926 C3927 1.394 . S
C3926 H3934 0.930 . S
C3927 C3926 1.394 . S
C3927 C3928 1.383 . S
C3927 H3935 0.929 . S
C3928 C3927 1.383 . S
C3928 C3929 1.377 . S
C3929 H3913 0.930 . S
C3929 C3928 1.377 . S
C3929 C3930 1.379 . S
C3930 H3914 0.931 . S
C3930 C3924 1.383 . S
C3930 C3929 1.379 . S
H3931 C3925 0.959 . S
H3932 C3925 0.961 . S
H3933 C3925 0.960 . S
H3934 C3926 0.930 . S
H3935 C3927 0.929 . S
C1065 C899 0.621 . S
C1084 C28 0.703 . S
C1101 C272 0.634 1_455 S
C1120 C61 0.654 . S
C1137 C833 0.621 . S
C1156 C94 0.703 . S
C1173 C127 0.644 . S
C1192 C338 0.572 . S
C1209 C965 0.615 . S
C1228 C160 0.676 . S
C1245 C470 0.620 . S
C1264 C193 0.610 . S
C1281 C226 0.628 . S
C1300 C1031 0.680 . S
C1317 C259 0.649 . S
C1336 C404 0.625 1_455 S
C1353 C635 0.619 . S
C1372 C292 0.607 . S
C1389 C8 0.631 1_655 S
C1408 C325 0.570 . S
C1425 C358 0.644 . S
C1444 C569 0.659 . S
C1461 C391 0.624 . S
C1480 C74 0.664 . S
C1497 C424 0.641 . S
C1516 C701 0.572 . S
C1533 C457 0.650 . S
C1552 C206 0.590 . S
C1569 C767 0.634 . S
C1588 C490 0.577 . S
C1605 C140 0.633 1_655 S
C1624 C523 0.572 . S
C1641 C371 0.637 . S
C1660 C556 0.611 . S
C1677 C589 0.639 . S
C1696 C800 0.577 . S
C1713 C305 0.637 . S
C1732 C622 0.585 . S
C1749 C655 0.624 . S
C1768 C866 0.641 1_655 S
C1785 C437 0.634 . S
C1804 C688 0.653 . S
C1821 C998 0.633 1_655 S
C1840 C721 0.658 . S
C1857 C503 0.616 . S
C1876 C754 0.651 . S
C1893 C787 0.623 . S
C1912 C932 0.656 . S
C1929 C820 0.623 . S
C1948 C107 0.653 . S
C1965 C536 0.615 . S
C1984 C853 0.677 . S
C2001 C41 0.615 . S
C2020 C886 0.676 . S
C2037 C919 0.624 . S
C2056 C602 0.632 1_455 S
C2073 C952 0.623 . S
C2092 C173 0.646 . S
C2109 C985 0.629 . S
C2128 C734 0.601 1_455 S
C2145 C239 0.615 . S
C2164 C1018 0.681 . S
C2181 C1051 0.645 . S
C2200 C668 0.659 . S
C2217 N5 1.556 1_565 S
C2236 N170 1.541 . S
C2253 N203 1.562 1_565 S
C2272 N38 1.567 . S
C2289 N236 1.557 . S
C2308 N71 1.542 1_545 S
C2325 N104 1.560 . S
C2344 N137 1.553 1_545 S
C2361 N269 1.562 1_545 S
C2380 N434 1.552 . S
C2397 N302 1.562 . S
C2416 N467 1.557 1_545 S
C2433 N335 1.562 1_565 S
C2452 N500 1.556 . S
C2469 N368 1.560 . S
C2488 N401 1.543 1_565 S
C2505 N698 1.562 . S
C2524 N533 1.563 . S
C2541 N566 1.556 . S
C2560 N731 1.544 . S
C2577 N599 1.556 . S
C2596 N764 1.541 . S
C2613 N665 1.557 . S
C2632 N632 1.553 . S
C2649 N962 1.558 . S
C2668 N797 1.569 . S
C2685 N995 1.561 . S
C2704 N830 1.544 . S
C2721 N1028 1.559 . S
C2740 N863 1.542 . S
C2757 N929 1.557 . S
C2776 N896 1.566 . S
C2793 C17 1.206 . S
C2812 C149 1.205 . S
C2829 C50 1.207 . S
C2848 C182 1.205 . S
C2865 C215 1.207 . S
C2884 C83 1.205 . S
C2901 C248 1.207 . S
C2920 C116 1.203 . S
C2937 C281 1.207 . S
C2956 C413 1.205 . S
C2973 C446 1.207 . S
C2992 C314 1.205 . S
C3009 C347 1.207 . S
C3028 C479 1.204 . S
C3045 C512 1.207 . S
C3064 C380 1.204 . S
C3081 C545 1.207 . S
C3100 C677 1.204 . S
C3117 C578 1.207 . S
C3136 C710 1.203 . S
C3153 C611 1.207 . S
C3172 C743 1.205 . S
C3189 C644 1.207 . S
C3208 C776 1.205 . S
C3225 C941 1.206 . S
C3244 C809 1.203 . S
C3261 C842 1.207 . S
C3280 C974 1.206 . S
C3297 C875 1.207 . S
C3316 C1007 1.206 . S
C3333 C908 1.207 . S
C3352 C1040 1.205 . S
C3369 N14 0.886 . S
C3388 N608 0.870 . S
C3405 N641 0.906 . S
C3424 N47 0.951 . S
C3441 N80 0.903 . S
C3460 N542 0.853 . S
C3477 N113 0.903 . S
C3496 N575 0.956 . S
C3513 N740 0.889 . S
C3532 N146 0.920 . S
C3549 N773 0.886 . S
C3568 N179 0.890 . S
C3585 N212 0.910 . S
C3604 N674 0.927 . S
C3621 N245 0.903 . S
C3640 N707 0.955 . S
C3657 N278 0.902 . S
C3676 N872 0.952 . S
C3693 N905 0.889 . S
C3712 N311 0.838 . S
C3729 N806 0.889 . S
C3748 N344 0.897 . S
C3765 N377 0.911 . S
C3784 N839 0.939 . S
C3801 N410 0.910 . S
C3820 N1004 0.946 . S
C3837 N443 0.887 . S
C3856 N1037 0.846 . S
C3873 N476 0.908 . S
C3892 N938 0.955 . S
C3909 N509 0.901 . S
C3928 N971 0.861 . S
