# Generated by pormake.
# Topology smm, (6)-cn, num edge types: 1
# Building blocks:
#     Node 0, Type 0, BuildingBlock: BETDIP_clean_sbu_0, # of connection points: 6
#     Node 1, Type 0, BuildingBlock: BETDIP_clean_sbu_0, # of connection points: 6
#     Node 2, Type 0, BuildingBlock: BETDIP_clean_sbu_0, # of connection points: 6
#     Node 3, Type 0, BuildingBlock: BETDIP_clean_sbu_0, # of connection points: 6
#     Node 4, Type 0, BuildingBlock: BETDIP_clean_sbu_0, # of connection points: 6
#     Node 5, Type 0, BuildingBlock: BETDIP_clean_sbu_0, # of connection points: 6
#     Node 6, Type 0, BuildingBlock: BETDIP_clean_sbu_0, # of connection points: 6
#     Node 7, Type 0, BuildingBlock: BETDIP_clean_sbu_0, # of connection points: 6
#     Node 8, Type 0, BuildingBlock: BETDIP_clean_sbu_0, # of connection points: 6
#     Edge 9, Type (0, 0), BuildingBlock: UVAHIK_clean_linker_0, # of connection points: 2
#     Edge 10, Type (0, 0), BuildingBlock: UVAHIK_clean_linker_0, # of connection points: 2
#     Edge 11, Type (0, 0), BuildingBlock: UVAHIK_clean_linker_0, # of connection points: 2
#     Edge 12, Type (0, 0), BuildingBlock: UVAHIK_clean_linker_0, # of connection points: 2
#     Edge 13, Type (0, 0), BuildingBlock: UVAHIK_clean_linker_0, # of connection points: 2
#     Edge 14, Type (0, 0), BuildingBlock: UVAHIK_clean_linker_0, # of connection points: 2
#     Edge 15, Type (0, 0), BuildingBlock: UVAHIK_clean_linker_0, # of connection points: 2
#     Edge 16, Type (0, 0), BuildingBlock: UVAHIK_clean_linker_0, # of connection points: 2
#     Edge 17, Type (0, 0), BuildingBlock: UVAHIK_clean_linker_0, # of connection points: 2
#     Edge 18, Type (0, 0), BuildingBlock: UVAHIK_clean_linker_0, # of connection points: 2
#     Edge 19, Type (0, 0), BuildingBlock: UVAHIK_clean_linker_0, # of connection points: 2
#     Edge 20, Type (0, 0), BuildingBlock: UVAHIK_clean_linker_0, # of connection points: 2
#     Edge 21, Type (0, 0), BuildingBlock: UVAHIK_clean_linker_0, # of connection points: 2
#     Edge 22, Type (0, 0), BuildingBlock: UVAHIK_clean_linker_0, # of connection points: 2
#     Edge 23, Type (0, 0), BuildingBlock: UVAHIK_clean_linker_0, # of connection points: 2
#     Edge 24, Type (0, 0), BuildingBlock: UVAHIK_clean_linker_0, # of connection points: 2
#     Edge 25, Type (0, 0), BuildingBlock: UVAHIK_clean_linker_0, # of connection points: 2
#     Edge 26, Type (0, 0), BuildingBlock: UVAHIK_clean_linker_0, # of connection points: 2
#     Edge 27, Type (0, 0), BuildingBlock: UVAHIK_clean_linker_0, # of connection points: 2
#     Edge 28, Type (0, 0), BuildingBlock: UVAHIK_clean_linker_0, # of connection points: 2
#     Edge 29, Type (0, 0), BuildingBlock: UVAHIK_clean_linker_0, # of connection points: 2
#     Edge 30, Type (0, 0), BuildingBlock: UVAHIK_clean_linker_0, # of connection points: 2
#     Edge 31, Type (0, 0), BuildingBlock: UVAHIK_clean_linker_0, # of connection points: 2
#     Edge 32, Type (0, 0), BuildingBlock: UVAHIK_clean_linker_0, # of connection points: 2
#     Edge 33, Type (0, 0), BuildingBlock: UVAHIK_clean_linker_0, # of connection points: 2
#     Edge 34, Type (0, 0), BuildingBlock: UVAHIK_clean_linker_0, # of connection points: 2
#     Edge 35, Type (0, 0), BuildingBlock: UVAHIK_clean_linker_0, # of connection points: 2
# Relax obj value: 0.043
# Max RMSD: 0.118
# Mean RMSD: 0.118
data_MOF--net-smm--node1-BETDIP_clean_sbu_0--edge1-UVAHIK_clean_linker_0
_symmetry_space_group_name_H-M    P1
_symmetry_Int_Tables_number       1
_symmetry_cell_setting            triclinic
loop_
_symmetry_equiv_pos_as_xyz
'x, y, z'
_cell_length_a     85.519048
_cell_length_b     85.557554
_cell_length_c     18.507494
_cell_angle_alpha  89.936997
_cell_angle_beta   90.016251
_cell_angle_gamma 120.07703
loop_
_atom_site_label
_atom_site_type_symbol
_atom_site_fract_x
_atom_site_fract_y
_atom_site_fract_z
_atom_type_partial_charge
Tb0 Tb 1.0255 0.20145 0.00349 0.0
Tb1 Tb 0.05868 0.19908 0.95927 0.0
C2 C 1.00411 0.2083 0.07176 0.0
C3 C 0.99903 0.22241 0.08247 0.0
C4 C 1.00087 0.23008 0.15126 0.0
C5 C 0.99408 0.24165 0.16551 0.0
C6 C 0.98511 0.24574 0.11138 0.0
C7 C 0.98374 0.23846 0.04189 0.0
C8 C 0.9906 0.22694 0.02758 0.0
C9 C 1.02843 0.19713 0.86481 0.0
C10 C 0.06261 0.23755 0.96122 0.0
C11 C 0.08098 0.19176 0.90195 0.0
C12 C 0.08765 0.17895 0.91358 0.0
C13 C 0.08943 0.16974 0.85433 0.0
C14 C 0.09687 0.15852 0.86305 0.0
C15 C 0.10281 0.15635 0.93131 0.0
C16 C 0.10069 0.16533 -0.00911 0.0
C17 C 0.09314 0.17645 0.98222 0.0
C18 C 0.05468 0.20202 0.09893 0.0
C19 C 1.02067 0.16283 -0.01333 0.0
O20 O 1.01974 0.2115 0.09738 0.0
O21 O 1.00033 0.19996 0.00938 0.0
O22 O 0.04112 0.20635 0.90769 0.0
O23 O 1.01311 0.19165 0.89731 0.0
O24 O 0.04692 0.23027 -0.00371 0.0
O25 O 0.06845 0.22727 0.93178 0.0
O26 O 0.06429 0.18499 0.87953 0.0
O27 O 0.08526 0.20426 0.95105 0.0
O28 O 0.04251 0.19328 0.0538 0.0
O29 O 0.07016 0.20806 0.06772 0.0
O30 O 0.0369 0.17067 0.95613 0.0
O31 O 1.01442 0.17244 0.01909 0.0
H32 H 1.00708 0.22666 0.19489 0.0
H33 H 0.99523 0.24682 0.21982 0.0
H34 H 0.97716 0.24151 -0.0014 0.0
H35 H 0.98887 0.22124 0.97397 0.0
H36 H 0.08537 0.17149 0.80086 0.0
H37 H 0.09843 0.15195 0.81588 0.0
H38 H 0.10488 0.16377 0.04436 0.0
H39 H 0.09183 0.18328 0.02911 0.0
Tb40 Tb 0.86957 0.846 -0.00248 0.0
Tb41 Tb 0.87145 0.88129 0.95252 0.0
C42 C 0.86307 0.81792 0.06644 0.0
C43 C 0.84906 0.79869 0.07758 0.0
C44 C 0.84142 0.79288 0.1465 0.0
C45 C 0.8299 0.7745 0.16112 0.0
C46 C 0.82584 0.76141 0.10724 0.0
C47 C 0.83308 0.76729 0.03762 0.0
C48 C 0.84455 0.78569 0.02294 0.0
C49 C 0.87352 0.85305 0.85855 0.0
C50 C 0.83314 0.84638 0.95635 0.0
C51 C 0.87831 0.91066 0.89376 0.0
C52 C 0.89113 0.93014 0.90409 0.0
C53 C 0.89585 0.9419 0.84496 0.0
C54 C 0.90691 0.96057 0.85429 0.0
C55 C 0.91346 0.96793 0.92322 0.0
C56 C 0.90904 0.95599 0.98218 0.0
C57 C 0.89803 0.9373 0.97269 0.0
C58 C 0.86866 0.8745 0.09224 0.0
C59 C 0.90799 0.88011 0.97998 0.0
O60 O 0.85974 0.83026 0.09184 0.0
O61 O 0.87136 0.82249 0.00391 0.0
O62 O 0.86431 0.85642 0.90177 0.0
O63 O 0.87925 0.84343 0.89098 0.0
O64 O 0.84066 0.83818 -0.00885 0.0
O65 O 0.84319 0.86252 0.92652 0.0
O66 O 0.88502 0.90073 0.87114 0.0
O67 O 0.86625 0.90266 0.9447 0.0
O68 O 0.8775 0.87118 0.04721 0.0
O69 O 0.86242 0.88373 0.06084 0.0
O70 O 0.9 0.88834 0.9494 0.0
O71 O 0.89853 0.86424 0.0126 0.0
H72 H 0.84482 0.80254 0.18993 0.0
H73 H 0.82476 0.7705 0.21552 0.0
H74 H 0.83005 0.75763 -0.00547 0.0
H75 H 0.85023 0.78965 0.96924 0.0
H76 H 0.89074 0.93666 0.79152 0.0
H77 H 0.91029 0.96923 0.80733 0.0
H78 H 0.91366 0.9611 0.03614 0.0
H79 H 0.89459 0.92847 0.0192 0.0
Tb80 Tb 0.22529 0.04542 -0.00135 0.0
Tb81 Tb 0.18989 1.01205 0.95414 0.0
C82 C 0.25346 0.06697 0.06721 0.0
C83 C 0.27266 0.07212 0.07833 0.0
C84 C 0.27842 0.07022 0.14723 0.0
C85 C 0.29679 0.07704 0.16184 0.0
C86 C 0.30992 0.08608 0.10798 0.0
C87 C 0.30409 0.08752 0.03838 0.0
C88 C 0.2857 0.08064 0.02371 0.0
C89 C 0.21816 0.04237 0.85978 0.0
C90 C 0.22469 1.00855 0.95706 0.0
C91 C 0.16029 0.98963 0.89671 0.0
C92 C 0.14081 0.98297 0.90867 0.0
C93 C 0.12965 0.98082 0.84947 0.0
C94 C 0.11099 0.97347 0.85879 0.0
C95 C 0.10306 0.96798 0.92759 0.0
C96 C 0.11434 0.97046 -0.01293 0.0
C97 C 0.133 0.97794 0.97779 0.0
C98 C 0.19673 1.01605 0.0938 0.0
C99 C 0.19131 0.04987 0.98106 0.0
O100 O 0.24103 0.05133 0.09288 0.0
O101 O 0.24892 0.07068 0.00459 0.0
O102 O 0.21476 0.02976 0.90299 0.0
O103 O 0.22788 0.05772 0.89211 0.0
O104 O 0.23293 0.02421 -0.00776 0.0
O105 O 0.20857 1.00256 0.92717 0.0
O106 O 0.1702 1.00631 0.87407 0.0
O107 O 0.16856 0.98541 0.94588 0.0
O108 O 0.20009 0.02821 0.04869 0.0
O109 O 0.18744 1.00056 0.06254 0.0
O110 O 0.18305 0.03364 0.95059 0.0
O111 O 0.20718 0.05626 0.01371 0.0
H112 H 0.26873 0.06394 0.19065 0.0
H113 H 0.30075 0.07584 0.21622 0.0
H114 H 0.31378 0.09417 -0.0047 0.0
H115 H 0.28178 0.08242 0.97003 0.0
H116 H 0.13533 0.98455 0.79565 0.0
H117 H 0.10271 0.97162 0.81173 0.0
H118 H 0.10873 0.96663 0.04092 0.0
H119 H 0.14128 0.97955 0.02465 0.0
Tb120 Tb 0.6918 0.53438 0.32969 0.0
Tb121 Tb 0.72527 0.53263 0.28459 0.0
C122 C 0.6702 0.54079 0.39869 0.0
C123 C 0.66509 0.55484 0.41042 0.0
C124 C 0.66705 0.5624 0.47951 0.0
C125 C 0.66024 0.57391 0.49474 0.0
C126 C 0.65116 0.57805 0.44132 0.0
C127 C 0.64968 0.5709 0.37151 0.0
C128 C 0.65655 0.55943 0.35622 0.0
C129 C 0.69492 0.53057 0.19067 0.0
C130 C 0.72866 0.57088 0.28865 0.0
C131 C 0.7478 0.52589 0.22557 0.0
C132 C 0.75441 0.51302 0.23516 0.0
C133 C 0.76111 0.50819 0.17535 0.0
C134 C 0.76866 0.49707 0.18383 0.0
C135 C 0.76977 0.49058 0.25256 0.0
C136 C 0.76259 0.49513 0.31223 0.0
C137 C 0.75497 0.50619 0.3036 0.0
C138 C 0.72125 0.53528 0.42434 0.0
C139 C 0.68749 0.49601 0.3115 0.0
O140 O 0.68581 0.54394 0.42438 0.0
O141 O 0.66654 0.53271 0.33577 0.0
O142 O 0.70751 0.53976 0.23395 0.0
O143 O 0.67954 0.52475 0.2231 0.0
O144 O 0.71294 0.56331 0.32363 0.0
O145 O 0.73474 0.56086 0.25865 0.0
O146 O 0.73117 0.51928 0.20269 0.0
O147 O 0.75185 0.5378 0.27703 0.0
O148 O 0.70908 0.52645 0.37927 0.0
O149 O 0.73676 0.54163 0.39294 0.0
O150 O 0.70377 0.50409 0.28124 0.0
O151 O 0.68101 0.50539 0.3441 0.0
H152 H 0.67334 0.55893 0.52263 0.0
H153 H 0.66146 0.57897 0.54927 0.0
H154 H 0.643 0.57399 0.32877 0.0
H155 H 0.65474 0.55382 0.30241 0.0
H156 H 0.76075 0.51324 0.12202 0.0
H157 H 0.77368 0.4936 0.13637 0.0
H158 H 0.76332 0.49056 0.36606 0.0
H159 H 0.74984 0.50972 0.35064 0.0
Tb160 Tb 0.53677 0.1786 0.33276 0.0
Tb161 Tb 0.53868 0.21391 0.28824 0.0
C162 C 0.53023 0.15045 0.40125 0.0
C163 C 0.51621 0.13121 0.41219 0.0
C164 C 0.50863 0.12533 0.48116 0.0
C165 C 0.49712 0.10693 0.49553 0.0
C166 C 0.49298 0.0939 0.44134 0.0
C167 C 0.50017 0.09985 0.3717 0.0
C168 C 0.51164 0.11827 0.35727 0.0
C169 C 0.54099 0.18583 0.19399 0.0
C170 C 0.50039 0.17899 0.29063 0.0
C171 C 0.54574 0.24349 0.23091 0.0
C172 C 0.5585 0.26301 0.24247 0.0
C173 C 0.5677 0.27406 0.1832 0.0
C174 C 0.5789 0.29274 0.19191 0.0
C175 C 0.58106 0.30083 0.26017 0.0
C176 C 0.57207 0.28967 0.31976 0.0
C177 C 0.56097 0.27097 0.3111 0.0
C178 C 0.53586 0.20701 0.42798 0.0
C179 C 0.57519 0.21269 0.31517 0.0
O180 O 0.52694 0.16279 0.42693 0.0
O181 O 0.53851 0.15507 0.3387 0.0
O182 O 0.53166 0.18913 0.23688 0.0
O183 O 0.54666 0.17618 0.22655 0.0
O184 O 0.50786 0.1708 0.32585 0.0
O185 O 0.51051 0.19515 0.26098 0.0
O186 O 0.55258 0.23367 0.20824 0.0
O187 O 0.53328 0.23516 0.2802 0.0
O188 O 0.5447 0.20374 0.38282 0.0
O189 O 0.5296 0.21624 0.39671 0.0
O190 O 0.56717 0.22089 0.28463 0.0
O191 O 0.56575 0.19683 0.34795 0.0
H192 H 0.51208 0.13494 0.52481 0.0
H193 H 0.49202 0.10288 0.54996 0.0
H194 H 0.49709 0.09024 0.32837 0.0
H195 H 0.51726 0.12228 0.30352 0.0
H196 H 0.56597 0.26827 0.12973 0.0
H197 H 0.58548 0.30092 0.14473 0.0
H198 H 0.57362 0.29539 0.37324 0.0
H199 H 0.55415 0.2628 0.35802 0.0
Tb200 Tb 0.89242 0.38008 0.33039 0.0
Tb201 Tb 0.85717 0.34651 0.28631 0.0
C202 C 0.92035 0.40209 0.39896 0.0
C203 C 0.93944 0.40744 0.41324 0.0
C204 C 0.94556 0.41028 0.48496 0.0
C205 C 0.96391 0.41749 0.50059 0.0
C206 C 0.97666 0.42211 0.44474 0.0
C207 C 0.97041 0.41862 0.37284 0.0
C208 C 0.95199 0.41139 0.35721 0.0
C209 C 0.88508 0.37701 0.19178 0.0
C210 C 0.89223 0.34343 0.28907 0.0
C211 C 0.82765 0.32382 0.22917 0.0
C212 C 0.80813 0.31695 0.24108 0.0
C213 C 0.79696 0.31475 0.18186 0.0
C214 C 0.77828 0.30722 0.19106 0.0
C215 C 0.77033 0.30158 0.25976 0.0
C216 C 0.78161 0.3041 0.31927 0.0
C217 C 0.8003 0.31176 0.31012 0.0
C218 C 0.86406 0.35066 0.426 0.0
C219 C 0.8582 0.38416 0.31292 0.0
O220 O 0.90781 0.38668 0.42588 0.0
O221 O 0.91623 0.4052 0.33437 0.0
O222 O 0.88192 0.36439 0.23466 0.0
O223 O 0.89458 0.39238 0.2243 0.0
O224 O 0.90035 0.35909 0.3243 0.0
O225 O 0.87608 0.33731 0.25928 0.0
O226 O 0.8374 0.3405 0.20634 0.0
O227 O 0.83604 0.31977 0.27842 0.0
O228 O 0.86728 0.36275 0.38067 0.0
O229 O 0.85489 0.33513 0.39489 0.0
O230 O 0.84998 0.36787 0.28294 0.0
O231 O 0.87415 0.39073 0.34499 0.0
H232 H 0.93617 0.40738 0.52912 0.0
H233 H 0.96814 0.41964 0.55661 0.0
H234 H 0.97982 0.4221 0.32841 0.0
H235 H 0.94769 0.40938 0.30129 0.0
H236 H 0.80266 0.31859 0.12811 0.0
H237 H 0.77001 0.30535 0.14396 0.0
H238 H 0.77598 0.30016 0.37305 0.0
H239 H 0.80858 0.3134 0.35698 0.0
Tb240 Tb 0.35779 0.86705 0.66296 0.0
Tb241 Tb 0.39095 0.86471 0.6184 0.0
C242 C 0.33638 0.8738 0.7316 0.0
C243 C 0.33136 0.88792 0.74319 0.0
C244 C 0.33309 0.8953 0.81251 0.0
C245 C 0.32631 0.90684 0.82757 0.0
C246 C 0.31748 0.91119 0.77375 0.0
C247 C 0.31626 0.90423 0.70373 0.0
C248 C 0.3231 0.89273 0.6886 0.0
C249 C 0.36071 0.86285 0.52416 0.0
C250 C 0.39484 0.90319 0.62106 0.0
C251 C 0.41326 0.85739 0.56112 0.0
C252 C 0.41995 0.8446 0.57298 0.0
C253 C 0.42164 0.83527 0.51395 0.0
C254 C 0.42908 0.82405 0.52288 0.0
C255 C 0.43513 0.822 0.59111 0.0
C256 C 0.43311 0.83112 0.65047 0.0
C257 C 0.42555 0.84223 0.6416 0.0
C258 C 0.38693 0.86749 0.75819 0.0
C259 C 0.35286 0.82847 0.64516 0.0
O260 O 0.35194 0.87684 0.75738 0.0
O261 O 0.33267 0.86569 0.66874 0.0
O262 O 0.3734 0.87204 0.56706 0.0
O263 O 0.34539 0.85731 0.55674 0.0
O264 O 0.37919 0.89585 0.65642 0.0
O265 O 0.40068 0.89296 0.59121 0.0
O266 O 0.39656 0.85059 0.53878 0.0
O267 O 0.41754 0.86994 0.61002 0.0
O268 O 0.37476 0.8588 0.71296 0.0
O269 O 0.40241 0.87359 0.72695 0.0
O270 O 0.36909 0.83631 0.61451 0.0
O271 O 0.34668 0.83806 0.67812 0.0
H272 H 0.33917 0.89165 0.8559 0.0
H273 H 0.32733 0.91175 0.88226 0.0
H274 H 0.30978 0.90748 0.66069 0.0
H275 H 0.32147 0.88726 0.6346 0.0
H276 H 0.41749 0.83691 0.46048 0.0
H277 H 0.43056 0.81738 0.47586 0.0
H278 H 0.43737 0.82966 0.70393 0.0
H279 H 0.42432 0.84916 0.68834 0.0
Tb280 Tb 0.20185 0.51136 0.66752 0.0
Tb281 Tb 0.20685 0.54814 0.62197 0.0
C282 C 0.19964 0.48469 0.73489 0.0
C283 C 0.18658 0.46524 0.74801 0.0
C284 C 0.17879 0.45954 0.81682 0.0
C285 C 0.16752 0.44117 0.83224 0.0
C286 C 0.16386 0.42796 0.7794 0.0
C287 C 0.17149 0.43368 0.71021 0.0
C288 C 0.18271 0.45207 0.69469 0.0
C289 C 0.20138 0.51635 0.52787 0.0
C290 C 0.16756 0.51267 0.62033 0.0
C291 C 0.2088 0.57582 0.5654 0.0
C292 C 0.22075 0.59556 0.57368 0.0
C293 C 0.2243 0.60696 0.51398 0.0
C294 C 0.23524 0.62572 0.52119 0.0
C295 C 0.24285 0.63353 0.58849 0.0
C296 C 0.23938 0.62197 0.64809 0.0
C297 C 0.22852 0.60321 0.64071 0.0
C298 C 0.20798 0.54305 0.76138 0.0
C299 C 0.2417 0.54637 0.65558 0.0
O300 O 0.19578 0.49635 0.76358 0.0
O301 O 0.20657 0.48953 0.66998 0.0
O302 O 0.21114 0.52804 0.57368 0.0
O303 O 0.19233 0.50068 0.55895 0.0
O304 O 0.17362 0.50397 0.6603 0.0
O305 O 0.17857 0.52896 0.59312 0.0
O306 O 0.21609 0.56697 0.53675 0.0
O307 O 0.1984 0.56726 0.62062 0.0
O308 O 0.19786 0.53149 0.71603 0.0
O309 O 0.21641 0.55872 0.7307 0.0
O310 O 0.23496 0.55534 0.62203 0.0
O311 O 0.23118 0.52997 0.68328 0.0
H312 H 0.1817 0.46932 0.85937 0.0
H313 H 0.16211 0.4373 0.88636 0.0
H314 H 0.16882 0.42391 0.66792 0.0
H315 H 0.18854 0.45593 0.64118 0.0
H316 H 0.21855 0.60135 0.46166 0.0
H317 H 0.23784 0.63408 0.47374 0.0
H318 H 0.24478 0.62741 0.70094 0.0
H319 H 0.22604 0.59471 0.68766 0.0
Tb320 Tb 0.55814 0.71173 0.66442 0.0
Tb321 Tb 0.52295 0.67813 0.61994 0.0
C322 C 0.58606 0.73369 0.73325 0.0
C323 C 0.60501 0.73867 0.74911 0.0
C324 C 0.61041 0.73982 0.82146 0.0
C325 C 0.62861 0.7467 0.83925 0.0
C326 C 0.64194 0.75271 0.78507 0.0
C327 C 0.63642 0.75093 0.71233 0.0
C328 C 0.61817 0.74402 0.69452 0.0
C329 C 0.55095 0.70857 0.52564 0.0
C330 C 0.55799 0.67507 0.62382 0.0
C331 C 0.49356 0.65526 0.56237 0.0
C332 C 0.47407 0.64812 0.57506 0.0
C333 C 0.46203 0.64161 0.51665 0.0
C334 C 0.44338 0.63367 0.52797 0.0
C335 C 0.43632 0.63196 0.59819 0.0
C336 C 0.44853 0.63888 0.65652 0.0
C337 C 0.46719 0.64691 0.64506 0.0
C338 C 0.52966 0.68227 0.75965 0.0
C339 C 0.52396 0.71583 0.64539 0.0
O340 O 0.5732 0.71854 0.76074 0.0
O341 O 0.58223 0.73665 0.6679 0.0
O342 O 0.54776 0.696 0.56879 0.0
O343 O 0.56039 0.72397 0.55804 0.0
O344 O 0.56602 0.69069 0.65935 0.0
O345 O 0.54193 0.66902 0.59327 0.0
O346 O 0.50306 0.67204 0.54041 0.0
O347 O 0.50206 0.65131 0.61144 0.0
O348 O 0.53294 0.69438 0.71435 0.0
O349 O 0.52054 0.66675 0.72849 0.0
O350 O 0.51576 0.6995 0.61578 0.0
O351 O 0.5399 0.72248 0.67766 0.0
H352 H 0.60057 0.73586 0.86462 0.0
H353 H 0.63225 0.74753 0.89573 0.0
H354 H 0.64629 0.75553 0.66915 0.0
H355 H 0.61447 0.74339 0.63819 0.0
H356 H 0.46705 0.64247 0.46218 0.0
H357 H 0.4345 0.62887 0.48151 0.0
H358 H 0.44366 0.63768 0.71139 0.0
H359 H 0.47622 0.65186 0.69108 0.0
C360 C 0.08885 0.26493 0.90578 0.0
C361 C 0.07284 0.25734 0.94682 0.0
C362 C 0.09814 0.28334 0.88872 0.0
C363 C 0.10393 0.32769 0.94202 0.0
H364 H 0.12363 0.34167 0.74877 0.0
C365 C 0.1371 0.40186 0.84071 0.0
C366 C 0.15262 0.40832 0.79714 0.0
C367 C 0.12686 0.3835 0.85874 0.0
C368 C 0.11842 0.33807 0.80326 0.0
H369 H 0.05428 0.26342 0.00312 0.0
H370 H 0.07053 0.29561 0.97317 0.0
H371 H 0.10692 0.30984 0.78163 0.0
H372 H 0.1696 0.40039 0.73938 0.0
H373 H 0.15187 0.36851 0.77093 0.0
H374 H 0.11557 0.35596 0.96378 0.0
C375 C 0.07592 0.28726 0.95451 0.0
C376 C 0.1088 0.31976 0.82214 0.0
C377 C 0.06656 0.26877 0.97149 0.0
C378 C 0.15757 0.39589 0.77194 0.0
C379 C 0.14736 0.37756 0.7901 0.0
C380 C 0.11361 0.34604 0.92318 0.0
C381 C 0.09175 0.29475 0.91224 0.0
C382 C 0.10153 0.3143 0.89192 0.0
C383 C 0.13186 0.37108 0.83385 0.0
C384 C 0.1211 0.3515 0.85362 0.0
H385 H 0.09419 0.25663 0.88607 0.0
H386 H 0.11044 0.28866 0.85724 0.0
H387 H 0.0987 0.32402 -0.00353 0.0
H388 H 0.13274 0.41098 0.86033 0.0
H389 H 0.11487 0.37902 0.89155 0.0
C390 C 0.80524 0.84482 0.90445 0.0
C391 C 0.81329 0.8365 0.94303 0.0
C392 C 0.78672 0.83546 0.88921 0.0
C393 C 0.74709 0.78926 0.87375 0.0
H394 H 0.72009 0.81452 0.88336 0.0
C395 C 0.67367 0.75851 0.76433 0.0
C396 C 0.66152 0.76157 0.80473 0.0
C397 C 0.69208 0.7672 0.78237 0.0
C398 C 0.72735 0.80718 0.88089 0.0
H399 H 0.80795 0.8117 -0.0037 0.0
H400 H 0.77557 0.79542 0.97024 0.0
H401 H 0.75202 0.83031 0.91497 0.0
H402 H 0.65944 0.77645 0.89556 0.0
H403 H 0.69128 0.79124 0.92764 0.0
H404 H 0.72229 0.76604 0.84059 0.0
C405 C 0.78368 0.80916 0.95103 0.0
C406 C 0.74576 0.81633 0.89827 0.0
C407 C 0.80225 0.81856 0.96646 0.0
C408 C 0.66829 0.77353 0.86371 0.0
C409 C 0.68665 0.78223 0.88161 0.0
C410 C 0.72865 0.78011 0.85615 0.0
C411 C 0.77567 0.81748 0.91204 0.0
C412 C 0.75592 0.80753 0.89484 0.0
C413 C 0.69884 0.77927 0.84106 0.0
C414 C 0.71852 0.78895 0.85952 0.0
H415 H 0.81327 0.85858 0.88525 0.0
H416 H 0.78112 0.84225 0.85824 0.0
H417 H 0.75448 0.78208 0.86975 0.0
H418 H 0.66895 0.7493 0.7189 0.0
H419 H 0.70106 0.7647 0.74948 0.0
C420 C 0.25199 1.00474 0.97042 0.0
C421 C 0.23448 0.99854 0.94321 0.0
C422 C 0.26132 0.99555 0.95461 0.0
C423 C 0.25411 0.95119 0.88878 0.0
H424 H 0.30537 0.97831 0.8461 0.0
C425 C 0.29159 0.91724 0.76416 0.0
C426 C 0.30879 0.92213 0.79163 0.0
C427 C 0.28296 0.92686 0.78364 0.0
C428 C 0.29109 0.97051 0.85859 0.0
H429 H 0.21312 0.97769 0.87802 0.0
H430 H 0.22937 0.96194 0.84993 0.0
H431 H 0.28953 0.99432 0.87976 0.0
H432 H 0.33053 0.94134 0.86003 0.0
H433 H 0.31541 0.95805 0.89441 0.0
H434 H 0.25562 0.92741 0.86698 0.0
C435 C 0.23584 0.97372 0.88448 0.0
C436 C 0.28199 0.9797 0.87808 0.0
C437 C 0.22653 0.98286 0.90034 0.0
C438 C 0.31724 0.93709 0.83829 0.0
C439 C 0.30863 0.94678 0.85751 0.0
C440 C 0.26318 0.94203 0.86908 0.0
C441 C 0.25339 0.97992 0.9112 0.0
C442 C 0.26333 0.97017 0.89301 0.0
C443 C 0.29129 0.94168 0.83099 0.0
C444 C 0.28177 0.95155 0.85325 0.0
H445 H 0.25855 1.01675 0.00369 0.0
H446 H 0.27471 1.00062 0.97693 0.0
H447 H 0.23983 0.94333 0.90127 0.0
H448 H 0.28457 0.90569 0.72877 0.0
H449 H 0.26972 0.92267 0.76141 0.0
C450 C 0.46935 0.15143 0.30229 0.0
C451 C 0.48059 0.16908 0.27616 0.0
C452 C 0.45087 0.14192 0.28522 0.0
C453 C 0.4182 0.14081 0.15036 0.0
H454 H 0.38204 0.11182 0.29338 0.0
C455 C 0.34193 0.11193 0.09806 0.0
C456 C 0.3296 0.0947 0.12528 0.0
C457 C 0.36028 0.12038 0.11626 0.0
C458 C 0.39195 0.11964 0.25241 0.0
H459 H 0.48098 0.19061 0.21261 0.0
H460 H 0.44895 0.17416 0.18351 0.0
H461 H 0.41398 0.12763 0.32646 0.0
H462 H 0.32713 0.07275 0.19214 0.0
H463 H 0.35915 0.08741 0.22336 0.0
H464 H 0.39629 0.13283 0.07621 0.0
C465 C 0.45442 0.16753 0.21632 0.0
C466 C 0.4103 0.12874 0.27148 0.0
C467 C 0.47282 0.17704 0.23353 0.0
C468 C 0.33618 0.0861 0.17083 0.0
C469 C 0.35457 0.09454 0.18889 0.0
C470 C 0.39989 0.13168 0.13124 0.0
C471 C 0.4432 0.14979 0.24135 0.0
C472 C 0.42366 0.13958 0.22087 0.0
C473 C 0.36688 0.11185 0.16207 0.0
C474 C 0.38647 0.12107 0.18209 0.0
H475 H 0.47484 0.14485 0.33518 0.0
H476 H 0.44267 0.12824 0.30507 0.0
H477 H 0.42811 0.14873 0.10951 0.0
H478 H 0.33734 0.11913 0.06398 0.0
H479 H 0.36923 0.13383 0.09554 0.0
C480 C 0.89428 0.31783 0.23249 0.0
C481 C 0.90219 0.33359 0.27497 0.0
C482 C 0.9038 0.30895 0.21575 0.0
C483 C 0.9425 0.30367 0.27219 0.0
H484 H 0.93857 0.28542 0.0774 0.0
C485 C 0.98507 0.272 0.17381 0.0
C486 C 0.97651 0.25682 0.12828 0.0
C487 C 0.97665 0.28197 0.19139 0.0
C488 C 0.93968 0.29022 0.13231 0.0
H489 H 0.92636 0.35213 0.33415 0.0
H490 H 0.94299 0.33658 0.30488 0.0
H491 H 0.92271 0.30139 0.10974 0.0
H492 H 0.95215 0.24015 0.06657 0.0
H493 H 0.93749 0.25738 0.0973 0.0
H494 H 0.95934 0.29233 0.29494 0.0
C495 C 0.92934 0.33107 0.28479 0.0
C496 C 0.93057 0.29942 0.15088 0.0
C497 C 0.91981 0.34003 0.30137 0.0
C498 C 0.95933 0.25195 0.10063 0.0
C499 C 0.9509 0.26186 0.11835 0.0
C500 C 0.95158 0.29439 0.25367 0.0
C501 C 0.92151 0.3155 0.24111 0.0
C502 C 0.93173 0.30617 0.2212 0.0
C503 C 0.9594 0.27701 0.1641 0.0
C504 C 0.95021 0.28742 0.18354 0.0
H505 H 0.88072 0.31238 0.21136 0.0
H506 H 0.8972 0.29684 0.18308 0.0
H507 H 0.94356 0.3085 0.32703 0.0
H508 H 0.99839 0.27629 0.19546 0.0
H509 H 0.98377 0.2937 0.22583 0.0
C510 C 0.81977 0.72948 0.09729 0.0
C511 C 0.81481 0.74172 0.12455 0.0
C512 C 0.80993 0.71113 0.11547 0.0
C513 C 0.77755 0.6793 0.25158 0.0
H514 H 0.77059 0.64331 0.10854 0.0
C515 C 0.73208 0.60185 0.30092 0.0
C516 C 0.73854 0.5907 0.27466 0.0
C517 C 0.74102 0.62034 0.28409 0.0
C518 C 0.77255 0.65318 0.14944 0.0
H519 H 0.79528 0.74405 0.19149 0.0
H520 H 0.778 0.71203 0.22268 0.0
H521 H 0.78643 0.67513 0.07535 0.0
H522 H 0.75979 0.5905 0.2112 0.0
H523 H 0.77531 0.62254 0.18251 0.0
H524 H 0.76356 0.65723 0.32556 0.0
C525 C 0.78973 0.71667 0.18819 0.0
C526 C 0.78168 0.67148 0.13038 0.0
C527 C 0.79963 0.73506 0.17014 0.0
C528 C 0.75432 0.59858 0.23221 0.0
C529 C 0.76319 0.617 0.21523 0.0
C530 C 0.76835 0.66095 0.2706 0.0
C531 C 0.79478 0.70444 0.16131 0.0
C532 C 0.78445 0.68484 0.18128 0.0
C533 C 0.75659 0.62811 0.24032 0.0
C534 C 0.76587 0.64765 0.21993 0.0
H535 H 0.83158 0.73414 0.06318 0.0
H536 H 0.81447 0.70225 0.09472 0.0
H537 H 0.7796 0.68917 0.29259 0.0
H538 H 0.71996 0.59627 0.33368 0.0
H539 H 0.73548 0.62846 0.30398 0.0
C540 C 0.13597 0.48603 0.62835 0.0
C541 C 0.14795 0.50353 0.60254 0.0
C542 C 0.1176 0.47725 0.6101 0.0
C543 C 0.08163 0.48586 0.5437 0.0
H544 H 0.0563 0.43457 0.50146 0.0
C545 C 1.00386 0.44451 0.5158 0.0
C546 C 0.99641 0.43122 0.4616 0.0
C547 C 1.02234 0.45326 0.53156 0.0
C548 C 0.06318 0.44893 0.51252 0.0
H549 H 0.14983 0.52545 0.53696 0.0
H550 H 0.1179 0.51012 0.50495 0.0
H551 H 0.08844 0.44998 0.53059 0.0
H552 H 1.00276 0.41671 0.38174 0.0
H553 H 0.03509 0.43217 0.40856 0.0
H554 H 0.05646 0.48488 0.52458 0.0
C555 C 0.12266 0.50325 0.54005 0.0
C556 C 0.0816 0.45774 0.53012 0.0
C557 C 0.14103 0.51203 0.55821 0.0
C558 C 1.00802 0.42695 0.42349 0.0
C559 C 1.02654 0.43569 0.43941 0.0
C560 C 0.06322 0.47705 0.52628 0.0
C561 C 0.11068 0.48571 0.5656 0.0
C562 C 0.09108 0.47632 0.54614 0.0
C563 C 0.03397 0.44901 0.49359 0.0
C564 C 0.05371 0.45844 0.51068 0.0
H565 H 0.14076 0.47904 0.66264 0.0
H566 H 0.10877 0.46386 0.63165 0.0
H567 H 0.0884 0.50013 0.55633 0.0
H568 H 0.99543 0.44837 0.54565 0.0
H569 H 1.02749 0.46327 0.57418 0.0
C570 C 0.58547 0.67155 0.63731 0.0
C571 C 0.5679 0.66517 0.61043 0.0
C572 C 0.59489 0.66242 0.62187 0.0
C573 C 0.58783 0.61797 0.55818 0.0
H574 H 0.63895 0.64516 0.51296 0.0
C575 C 0.62514 0.58394 0.43293 0.0
C576 C 0.64246 0.58897 0.45944 0.0
C577 C 0.61652 0.59355 0.45262 0.0
C578 C 0.62471 0.63735 0.52618 0.0
H579 H 0.54652 0.64404 0.54624 0.0
H580 H 0.5629 0.6284 0.51883 0.0
H581 H 0.62306 0.66114 0.54659 0.0
H582 H 0.66441 0.60844 0.52637 0.0
H583 H 0.6493 0.62514 0.56112 0.0
H584 H 0.58942 0.5942 0.53715 0.0
C585 C 0.56937 0.64028 0.55282 0.0
C586 C 0.61559 0.64652 0.54565 0.0
C587 C 0.55998 0.64936 0.56827 0.0
C588 C 0.65102 0.60408 0.50537 0.0
C589 C 0.64242 0.61376 0.5248 0.0
C590 C 0.59692 0.60882 0.53852 0.0
C591 C 0.58697 0.64667 0.57921 0.0
C592 C 0.59697 0.63696 0.5614 0.0
C593 C 0.62497 0.60851 0.49924 0.0
C594 C 0.61546 0.61837 0.52172 0.0
H595 H 0.59201 0.68367 0.67 0.0
H596 H 0.60833 0.66765 0.64387 0.0
H597 H 0.57359 0.61009 0.57136 0.0
H598 H 0.61802 0.57228 0.39813 0.0
H599 H 0.60319 0.58924 0.4311 0.0
C600 C 0.48682 0.06193 0.43041 0.0
C601 C 0.48194 0.07419 0.45832 0.0
C602 C 0.47695 0.04356 0.44829 0.0
C603 C 0.44467 1.01166 0.58457 0.0
H604 H 0.43735 0.97571 0.44074 0.0
C605 C 0.3987 0.93433 0.63348 0.0
C606 C 0.4049 0.923 0.60674 0.0
C607 C 0.40781 0.95282 0.61667 0.0
C608 C 0.43942 0.98557 0.48186 0.0
H609 H 0.46251 0.07649 0.52605 0.0
H610 H 0.4452 0.04445 0.55672 0.0
H611 H 0.45334 1.00757 0.40799 0.0
H612 H 0.42584 0.92248 0.54229 0.0
H613 H 0.44167 0.95455 0.51362 0.0
H614 H 0.43064 0.98955 0.65833 0.0
C615 C 0.45689 0.0491 0.52196 0.0
C616 C 0.44863 1.00389 0.46305 0.0
C617 C 0.46681 0.06751 0.50422 0.0
C618 C 0.42058 0.93071 0.5637 0.0
C619 C 0.42962 0.94914 0.54675 0.0
C620 C 0.43539 0.9933 0.60333 0.0
C621 C 0.46186 0.03686 0.49448 0.0
C622 C 0.45151 1.01724 0.51422 0.0
C623 C 0.4233 0.96044 0.57245 0.0
C624 C 0.43276 0.98001 0.55236 0.0
H625 H 0.49857 0.0666 0.39603 0.0
H626 H 0.48143 0.03467 0.42705 0.0
H627 H 0.44682 0.02151 0.6258 0.0
H628 H 0.38667 0.92889 0.66668 0.0
H629 H 0.40246 0.96106 0.63701 0.0
C630 C 0.18982 0.07772 0.01405 0.0
C631 C 0.18216 0.06079 0.97977 0.0
C632 C 0.18126 0.08805 0.01096 0.0
C633 C 0.14806 0.09393 0.9028 0.0
H634 H 0.14542 0.11931 0.07152 0.0
C635 C 0.10475 0.1285 0.90383 0.0
C636 C 0.11158 0.14512 0.93986 0.0
C637 C 0.11326 0.1182 0.9104 0.0
C638 C 0.14621 0.1125 0.02356 0.0
H639 H 0.15932 0.04145 0.91586 0.0
H640 H 0.14449 0.05937 0.91083 0.0
H641 H 0.16064 0.10168 0.07974 0.0
H642 H 0.13289 0.16397 0.01072 0.0
H643 H 0.14784 0.14618 0.02155 0.0
H644 H 0.13384 0.10482 0.8463 0.0
C645 C 0.1572 0.06478 0.93947 0.0
C646 C 0.15494 0.10236 0.02836 0.0
C647 C 0.16569 0.05443 0.9428 0.0
C648 C 0.1271 0.15112 0.98303 0.0
C649 C 0.13567 0.14087 -0.0107 0.0
C650 C 0.13941 0.10411 0.89791 0.0
C651 C 0.1649 0.08177 0.97317 0.0
C652 C 0.15591 0.09287 0.96811 0.0
C653 C 0.12893 0.12429 0.95284 0.0
C654 C 0.13828 0.1135 0.95826 0.0
H655 H 0.20249 0.08307 0.04294 0.0
H656 H 0.18765 0.10114 0.03703 0.0
H657 H 0.14881 0.08706 0.85494 0.0
H658 H 0.09268 0.12333 0.871 0.0
H659 H 0.10742 0.10536 0.88262 0.0
C660 C 0.92048 0.99966 0.89459 0.0
C661 C 0.92448 0.98795 0.93364 0.0
C662 C 0.9307 1.01839 0.90424 0.0
C663 C 0.97501 0.05467 0.97291 0.0
H664 H 0.95163 0.08347 0.96449 0.0
C665 C 1.01587 0.13251 0.94946 0.0
C666 C 1.00961 0.14275 -0.01411 0.0
C667 C 1.00545 0.11365 0.9469 0.0
C668 C 0.95839 0.07566 0.96779 0.0
H669 H 0.94257 0.98705 0.01357 0.0
H670 H 0.96005 1.01963 0.03172 0.0
H671 H 0.93353 0.05073 0.95463 0.0
H672 H 0.98741 0.141 0.04886 0.0
H673 H 0.96932 0.10807 0.04528 0.0
H674 H 0.99982 0.07957 -0.01249 0.0
C675 C 0.94915 1.01432 -0.00726 0.0
C676 C 0.94801 0.05684 0.96112 0.0
C677 C 0.93895 0.99557 0.98295 0.0
C678 C 0.99266 0.13358 0.02015 0.0
C679 C 0.98222 0.11467 0.01771 0.0
C680 C 0.98538 0.07349 0.97973 0.0
C681 C 0.94518 0.02602 0.95346 0.0
C682 C 0.95618 0.04607 0.96301 0.0
C683 C 0.98846 0.10443 0.98086 0.0
C684 C 0.97725 0.08428 0.97667 0.0
H685 H 0.9093 0.99435 0.85691 0.0
H686 H 0.92734 0.0269 0.87227 0.0
H687 H 0.98186 0.04692 0.974 0.0
H688 H 1.02881 0.13904 0.92206 0.0
H689 H 1.01061 0.10633 0.91696 0.0
C690 C 0.93733 0.88176 0.01446 0.0
C691 C 0.92809 0.88932 0.97919 0.0
C692 C 0.95625 0.89037 0.01219 0.0
C693 C 0.99733 0.9348 0.97243 0.0
H694 H 1.02043 0.90594 0.95246 0.0
C695 C 0.07321 0.96601 0.90052 0.0
C696 C 0.08307 0.95931 0.93697 0.0
C697 C 0.05441 0.95765 0.90838 0.0
C698 C 1.01422 0.91421 0.95883 0.0
H699 H 0.93168 0.91196 0.9137 0.0
H700 H 0.96444 0.92671 0.90881 0.0
H701 H 0.98761 0.89106 0.96139 0.0
H702 H 0.08077 0.9384 0.00991 0.0
H703 H 0.04803 0.9239 0.02389 0.0
H704 H 1.02397 0.95795 0.96882 0.0
C705 C 0.95716 0.9143 0.93943 0.0
C706 C 0.99535 0.90566 0.96411 0.0
C707 C 0.93828 0.90574 0.94187 0.0
C708 C 0.07364 0.94404 0.98159 0.0
C709 C 0.05483 0.9356 -0.01099 0.0
C710 C 1.01618 0.94334 0.96678 0.0
C711 C 0.96644 0.90674 0.97444 0.0
C712 C 0.98662 0.91583 0.9707 0.0
C713 C 0.04496 0.94228 0.95245 0.0
C714 C 1.02488 0.93316 0.95968 0.0
H715 H 0.92996 0.86917 0.04391 0.0
H716 H 0.96288 0.88424 0.04067 0.0
H717 H 0.99117 0.94311 0.97882 0.0
H718 H 0.08004 0.97782 0.86618 0.0
H719 H 0.04724 0.96308 0.87892 0.0
C720 C 0.79426 0.48344 0.22176 0.0
C721 C 0.77875 0.47953 0.262 0.0
C722 C 0.80278 0.47322 0.23059 0.0
C723 C 0.79502 0.42904 0.29948 0.0
H724 H 0.84725 0.45256 0.28859 0.0
C725 C 0.83233 0.38849 0.27604 0.0
C726 C 0.84895 0.39498 0.31196 0.0
C727 C 0.82375 0.39877 0.27331 0.0
C728 C 0.83266 0.44576 0.29256 0.0
H729 H 0.76006 0.46156 0.34313 0.0
H730 H 0.77515 0.44405 0.3598 0.0
H731 H 0.8325 0.47054 0.27926 0.0
H732 H 0.86944 0.41741 0.37397 0.0
H733 H 0.85437 0.43521 0.3701 0.0
H734 H 0.7952 0.40431 0.31425 0.0
C735 C 0.78061 0.4549 0.32055 0.0
C736 C 0.82416 0.45607 0.28619 0.0
C737 C 0.77205 0.46511 0.3116 0.0
C738 C 0.85669 0.41198 0.34562 0.0
C739 C 0.84808 0.42226 0.343 0.0
C740 C 0.80352 0.41873 0.30598 0.0
C741 C 0.7961 0.45881 0.28014 0.0
C742 C 0.8052 0.44785 0.28906 0.0
C743 C 0.83151 0.41583 0.30656 0.0
C744 C 0.82246 0.42692 0.30213 0.0
H745 H 0.80001 0.49458 0.18381 0.0
H746 H 0.81452 0.47653 0.19777 0.0
H747 H 0.7804 0.42216 0.30132 0.0
H748 H 0.82596 0.3755 0.24916 0.0
H749 H 0.81117 0.39345 0.24378 0.0
C750 C 0.65965 0.46653 0.34419 0.0
C751 C 0.67662 0.47592 0.31005 0.0
C752 C 0.64935 0.44762 0.34092 0.0
C753 C 0.64361 0.40868 0.23245 0.0
H754 H 0.61808 0.38042 0.40085 0.0
C755 C 0.60893 0.3307 0.23267 0.0
C756 C 0.59229 0.32085 0.26875 0.0
C757 C 0.61924 0.34953 0.23936 0.0
C758 C 0.62492 0.38808 0.35297 0.0
H759 H 0.69604 0.47258 0.24619 0.0
H760 H 0.67817 0.4398 0.24082 0.0
H761 H 0.63571 0.41329 0.40939 0.0
H762 H 0.57343 0.3232 0.33978 0.0
H763 H 0.59124 0.35597 0.35081 0.0
H764 H 0.63274 0.3836 0.17569 0.0
C765 C 0.67272 0.44703 0.2695 0.0
C766 C 0.63507 0.40697 0.35795 0.0
C767 C 0.68304 0.46589 0.27303 0.0
C768 C 0.58629 0.33032 0.31205 0.0
C769 C 0.59655 0.34915 0.31844 0.0
C770 C 0.63341 0.38983 0.22736 0.0
C771 C 0.65569 0.43763 0.30307 0.0
C772 C 0.64461 0.41752 0.29783 0.0
C773 C 0.61315 0.35906 0.28196 0.0
C774 C 0.62397 0.37922 0.28759 0.0
H775 H 0.65425 0.47378 0.3731 0.0
H776 H 0.63623 0.44085 0.36689 0.0
H777 H 0.65052 0.41636 0.18467 0.0
H778 H 0.61409 0.32384 0.19972 0.0
H779 H 0.63209 0.35658 0.21155 0.0
C780 C 0.60534 0.23826 0.27579 0.0
C781 C 0.59529 0.22189 0.31357 0.0
C782 C 0.62419 0.24677 0.27198 0.0
C783 C 0.66429 0.24945 0.3605 0.0
H784 H 0.68745 0.26985 0.17697 0.0
C785 C 0.74094 0.27745 0.31332 0.0
C786 C 0.75032 0.29276 0.26893 0.0
C787 C 0.72211 0.26882 0.32021 0.0
C788 C 0.68128 0.26448 0.22897 0.0
H789 H 0.59737 0.20178 0.37773 0.0
H790 H 0.63033 0.21667 0.37105 0.0
H791 H 0.65468 0.25483 0.18668 0.0
H792 H 0.74719 0.31127 0.19854 0.0
H793 H 0.71445 0.29644 0.21125 0.0
H794 H 0.6909 0.25924 0.403 0.0
C795 C 0.62356 0.22296 0.34467 0.0
C796 C 0.66243 0.2558 0.23448 0.0
C797 C 0.60465 0.21437 0.34822 0.0
C798 C 0.74039 0.29935 0.23232 0.0
C799 C 0.72157 0.29079 0.23952 0.0
C800 C 0.68318 0.25822 0.3551 0.0
C801 C 0.63357 0.23921 0.30601 0.0
C802 C 0.65367 0.24821 0.30033 0.0
C803 C 0.71212 0.27531 0.28317 0.0
C804 C 0.69196 0.2659 0.28925 0.0
H805 H 0.59867 0.24452 0.24853 0.0
H806 H 0.63145 0.25939 0.24267 0.0
H807 H 0.65803 0.24395 0.41226 0.0
H808 H 0.74812 0.27185 0.34151 0.0
H809 H 0.71535 0.2568 0.35341 0.0
C810 C 0.52229 0.74365 0.67702 0.0
C811 C 0.51469 0.72664 0.64345 0.0
C812 C 0.51363 0.75389 0.6734 0.0
C813 C 0.48019 0.75931 0.56492 0.0
H814 H 0.47778 0.78516 0.73248 0.0
C815 C 0.437 0.79408 0.56432 0.0
C816 C 0.44389 0.81077 0.59988 0.0
C817 C 0.44549 0.78376 0.57122 0.0
C818 C 0.4785 0.77822 0.68482 0.0
H819 H 0.49185 0.70707 0.58017 0.0
H820 H 0.47685 0.72483 0.57419 0.0
H821 H 0.49301 0.76756 0.74148 0.0
H822 H 0.46528 0.82972 0.6702 0.0
H823 H 0.48018 0.8119 0.6816 0.0
H824 H 0.46589 0.77006 0.50791 0.0
C825 C 0.48959 0.73037 0.60271 0.0
C826 C 0.48724 0.7681 0.69007 0.0
C827 C 0.49818 0.72011 0.60659 0.0
C828 C 0.45944 0.81681 0.64288 0.0
C829 C 0.46799 0.80655 0.64948 0.0
C830 C 0.47153 0.76949 0.55956 0.0
C831 C 0.49722 0.74743 0.63576 0.0
C832 C 0.48814 0.75845 0.63024 0.0
C833 C 0.46118 0.78989 0.61355 0.0
C834 C 0.4705 0.77906 0.61947 0.0
H835 H 0.53499 0.74914 0.70579 0.0
H836 H 0.51999 0.76704 0.69895 0.0
H837 H 0.48088 0.75232 0.51735 0.0
H838 H 0.42491 0.78887 0.53162 0.0
H839 H 0.43961 0.77087 0.54382 0.0
C840 C 0.26937 0.66131 0.64249 0.0
C841 C 0.2542 0.65359 0.59661 0.0
C842 C 0.2799 0.68009 0.65039 0.0
C843 C 0.27903 0.72278 0.62074 0.0
H844 H 0.33101 0.74491 0.63868 0.0
C845 C 0.3249 0.79931 0.67948 0.0
C846 C 0.34165 0.8084 0.6437 0.0
C847 C 0.31425 0.78043 0.67645 0.0
C848 C 0.31653 0.73901 0.63319 0.0
H849 H 0.23822 0.65987 0.5237 0.0
H850 H 0.25685 0.69249 0.53563 0.0
H851 H 0.31256 0.71229 0.62606 0.0
H852 H 0.36027 0.8046 0.57646 0.0
H853 H 0.34169 0.77191 0.57025 0.0
H854 H 0.28307 0.74957 0.62552 0.0
C855 C 0.26048 0.68402 0.56651 0.0
C856 C 0.30588 0.72021 0.6269 0.0
C857 C 0.24991 0.66524 0.55881 0.0
C858 C 0.3475 0.79811 0.60509 0.0
C859 C 0.33686 0.77927 0.60186 0.0
C860 C 0.28969 0.7416 0.62679 0.0
C861 C 0.27563 0.69173 0.61245 0.0
C862 C 0.28697 0.71181 0.62033 0.0
C863 C 0.32005 0.77013 0.63737 0.0
C864 C 0.30861 0.75001 0.63281 0.0
H865 H 0.27327 0.65285 0.67193 0.0
H866 H 0.29132 0.68545 0.68692 0.0
H867 H 0.26452 0.71685 0.61679 0.0
H868 H 0.31996 0.80677 0.70992 0.0
H869 H 0.30153 0.7739 0.70535 0.0
C870 C 0.40899 0.62894 0.66368 0.0
C871 C 0.41634 0.62275 0.61049 0.0
C872 C 0.39028 0.62029 0.67499 0.0
C873 C 0.3472 0.57743 0.63719 0.0
H874 H 0.32551 0.60687 0.67678 0.0
C875 C 0.27009 0.546 0.691 0.0
C876 C 0.26173 0.55487 0.65901 0.0
C877 C 0.28901 0.55402 0.6911 0.0
C878 C 0.3313 0.59841 0.66538 0.0
H879 H 0.40952 0.60219 0.52854 0.0
H880 H 0.37702 0.58756 0.54648 0.0
H881 H 0.35811 0.62117 0.66334 0.0
H882 H 0.26691 0.57928 0.6025 0.0
H883 H 0.29949 0.59295 0.60181 0.0
H884 H 0.32027 0.55473 0.63652 0.0
C885 C 0.38572 0.59896 0.58036 0.0
C886 C 0.35009 0.60662 0.65859 0.0
C887 C 0.40442 0.60757 0.56925 0.0
C888 C 0.27277 0.572 0.62794 0.0
C889 C 0.29158 0.57996 0.62797 0.0
C890 C 0.32838 0.56921 0.64377 0.0
C891 C 0.37835 0.60521 0.63328 0.0
C892 C 0.35833 0.59629 0.64369 0.0
C893 C 0.3 0.5711 0.65932 0.0
C894 C 0.32014 0.57962 0.65712 0.0
H895 H 0.41766 0.64067 0.69613 0.0
H896 H 0.38519 0.6254 0.71684 0.0
H897 H 0.35303 0.56896 0.62683 0.0
H898 H 0.26205 0.53282 0.71554 0.0
H899 H 0.295 0.54686 0.71645 0.0
C900 C 0.04813 0.20438 0.75667 0.0
C901 C 0.03074 0.19585 0.78686 0.0
C902 C 0.05039 0.20404 0.68221 0.0
C903 C 1.02639 0.19865 0.51135 0.0
H904 H 0.06527 0.19327 0.43043 0.0
C905 C 0.03423 0.1917 0.20565 0.0
C906 C 0.05177 0.20158 0.17726 0.0
C907 C 0.03144 0.1907 0.28014 0.0
C908 C 0.05447 0.19496 0.45236 0.0
H909 H 1.00211 0.17985 0.76401 0.0
H910 H 1.00603 0.17907 0.63346 0.0
H911 H 0.06053 0.19115 0.56087 0.0
H912 H 0.08014 0.21824 0.2036 0.0
H913 H 0.07529 0.21655 0.33428 0.0
H914 H 1.02035 0.20246 0.40279 0.0
C915 C 1.0179 0.18626 0.66719 0.0
C916 C 0.05174 0.19373 0.52695 0.0
C917 C 1.01565 0.18662 0.74177 0.0
C918 C 0.06649 0.21053 0.22436 0.0
C919 C 0.06372 0.20947 0.29896 0.0
C920 C 1.0291 0.19983 0.43676 0.0
C921 C 0.0353 0.19514 0.63659 0.0
C922 C 0.03773 0.19565 0.55724 0.0
C923 C 0.04617 0.19949 0.32754 0.0
C924 C 0.04322 0.19809 0.40659 0.0
H925 H 0.06 0.2116 0.7904 0.0
H926 H 0.06395 0.21118 0.66023 0.0
H927 H 1.01567 0.20048 0.53318 0.0
H928 H 1.02266 0.18454 0.17039 0.0
H929 H 1.01779 0.18275 0.30067 0.0
C930 C 0.86545 0.86488 0.75075 0.0
C931 C 0.87434 0.85634 0.78042 0.0
C932 C 0.8653 0.86715 0.67624 0.0
C933 C 0.88863 0.86847 0.50789 0.0
H934 H 0.84284 0.85642 0.41905 0.0
C935 C 0.87887 0.86439 0.19936 0.0
C936 C 0.86886 0.87184 0.17052 0.0
C937 C 0.87952 0.86234 0.27386 0.0
C938 C 0.85576 0.86003 0.44313 0.0
H939 H 0.89044 0.8439 0.75647 0.0
H940 H 0.89015 0.84784 0.62558 0.0
H941 H 0.84451 0.85364 0.5495 0.0
H942 H 0.85171 0.883 0.19607 0.0
H943 H 0.85306 0.87968 0.32665 0.0
H944 H 0.89992 0.87497 0.40156 0.0
C945 C 0.88336 0.85283 0.66 0.0
C946 C 0.85672 0.85844 0.51776 0.0
C947 C 0.88347 0.8505 0.73468 0.0
C948 C 0.85946 0.87715 0.21716 0.0
C949 C 0.86016 0.87515 0.29175 0.0
C950 C 0.88769 0.87013 0.4332 0.0
C951 C 0.87408 0.86097 0.63007 0.0
C952 C 0.87316 0.86267 0.55087 0.0
C953 C 0.87026 0.86779 0.32088 0.0
C954 C 0.87125 0.86594 0.40007 0.0
H955 H 0.8584 0.86959 0.78498 0.0
H956 H 0.85829 0.87374 0.65472 0.0
H957 H 0.90152 0.87202 0.53213 0.0
H958 H 0.88631 0.86026 0.16443 0.0
H959 H 0.88721 0.85639 0.29459 0.0
C960 C 0.2061 0.02247 0.7522 0.0
C961 C 0.21482 0.03992 0.78171 0.0
C962 C 0.2038 1.02005 0.67773 0.0
C963 C 0.20275 0.04214 0.50914 0.0
H964 H 0.21453 1.00821 0.42082 0.0
C965 C 0.20691 0.03639 0.20073 0.0
C966 C 0.19937 1.01891 0.17206 0.0
C967 C 0.20894 0.0391 0.27521 0.0
C968 C 0.21099 1.01757 0.44475 0.0
H969 H 0.22751 0.06849 0.75753 0.0
H970 H 0.22352 0.06427 0.62668 0.0
H971 H 0.21727 1.01266 0.55122 0.0
H972 H 0.18803 0.99056 0.19787 0.0
H973 H 0.1913 0.99523 0.32842 0.0
H974 H 0.19637 0.04697 0.40271 0.0
C975 C 0.21842 0.05248 0.66121 0.0
C976 C 0.21257 1.02012 0.51936 0.0
C977 C 0.22078 0.05491 0.73586 0.0
C978 C 0.19395 1.00418 0.21884 0.0
C979 C 0.19592 1.00688 0.29341 0.0
C980 C 0.20111 0.03954 0.43448 0.0
C981 C 0.21012 0.03503 0.63144 0.0
C982 C 0.20844 0.0324 0.55228 0.0
C983 C 0.20337 0.02437 0.32237 0.0
C984 C 0.20521 0.02721 0.40153 0.0
H985 H 0.20128 1.01068 0.78653 0.0
H986 H 0.19709 1.00644 0.65632 0.0
H987 H 0.19929 0.05154 0.53326 0.0
H988 H 0.21113 0.04797 0.16569 0.0
H989 H 0.21496 0.05276 0.29582 0.0
C990 C 0.73311 0.54457 0.54925 0.0
C991 C 0.71839 0.53506 0.50263 0.0
C992 C 0.73041 0.54389 0.62383 0.0
C993 C 0.69788 0.51632 0.76556 0.0
H994 H 0.72444 0.55961 0.88115 0.0
C995 C 0.68241 0.52057 0.06681 0.0
C996 C 0.69739 0.52979 0.11253 0.0
C997 C 0.68484 0.52067 -0.00787 0.0
C998 C 0.71707 0.54737 0.84962 0.0
H999 H 0.68935 0.51742 0.49659 0.0
H1000 H 0.68456 0.51655 0.62673 0.0
H1001 H 0.72889 0.5612 0.75072 0.0
H1002 H 0.72662 0.54592 0.11705 0.0
H1003 H 0.73087 0.54603 -0.01319 0.0
H1004 H 0.68598 0.50253 0.86467 0.0
C1005 C 0.69821 0.52432 0.60599 0.0
C1006 C 0.71962 0.54828 0.77499 0.0
C1007 C 0.70092 0.52495 0.5315 0.0
C1008 C 0.71483 0.53879 0.08284 0.0
C1009 C 0.71726 0.53894 0.00834 0.0
C1010 C 0.69529 0.51542 0.84024 0.0
C1011 C 0.71294 0.5337 0.65299 0.0
C1012 C 0.71009 0.53276 0.73218 0.0
C1013 C 0.70229 0.53005 0.96219 0.0
C1014 C 0.7049 0.53093 0.88298 0.0
H1015 H 0.74671 0.55239 0.52814 0.0
H1016 H 0.74205 0.55109 0.65871 0.0
H1017 H 0.69054 0.50406 0.73413 0.0
H1018 H 0.66883 0.51351 0.08861 0.0
H1019 H 0.67306 0.5138 0.95774 0.0
C1020 C 0.52725 0.21015 0.55341 0.0
C1021 C 0.53636 0.20458 0.50633 0.0
C1022 C 0.52834 0.20847 0.62802 0.0
C1023 C 0.5384 0.18383 0.76593 0.0
H1024 H 0.54652 0.22375 0.88986 0.0
C1025 C 0.55163 0.18377 0.07096 0.0
C1026 C 0.54223 0.18941 0.11602 0.0
C1027 C 0.55197 0.18638 -0.00364 0.0
C1028 C 0.5441 0.21244 0.85599 0.0
H1029 H 0.55371 0.19291 0.4995 0.0
H1030 H 0.55556 0.18989 0.6298 0.0
H1031 H 0.54439 0.22635 0.7594 0.0
H1032 H 0.52616 0.20254 0.11947 0.0
H1033 H 0.52655 0.20691 -0.01072 0.0
H1034 H 0.53792 0.16983 0.86242 0.0
C1035 C 0.54746 0.1954 0.60924 0.0
C1036 C 0.54286 0.21392 0.78139 0.0
C1037 C 0.54643 0.19716 0.53475 0.0
C1038 C 0.53351 0.19806 0.08577 0.0
C1039 C 0.53383 0.20066 0.01129 0.0
C1040 C 0.53959 0.18233 0.84053 0.0
C1041 C 0.53851 0.20114 0.65663 0.0
C1042 C 0.53992 0.1996 0.73568 0.0
C1043 C 0.5429 0.19468 0.96572 0.0
C1044 C 0.54238 0.19659 0.88636 0.0
H1045 H 0.51938 0.2159 0.53263 0.0
H1046 H 0.52113 0.2128 0.66333 0.0
H1047 H 0.53592 0.17251 0.73201 0.0
H1048 H 0.55855 0.17716 0.09324 0.0
H1049 H 0.55929 0.18186 0.96267 0.0
C1050 C 0.86101 0.33896 0.55158 0.0
C1051 C 0.86636 0.3536 0.50436 0.0
C1052 C 0.8626 0.34174 0.62618 0.0
C1053 C 0.88679 0.37663 0.76372 0.0
H1054 H 0.84714 0.34425 0.88811 0.0
C1055 C 0.88683 0.38969 0.06886 0.0
C1056 C 0.88143 0.37465 0.11387 0.0
C1057 C 0.88417 0.38742 -0.0057 0.0
C1058 C 0.85838 0.35332 0.85411 0.0
H1059 H 0.8775 0.38258 0.49729 0.0
H1060 H 0.88038 0.38746 0.62756 0.0
H1061 H 0.84456 0.33953 0.75767 0.0
H1062 H 0.86868 0.34546 0.11731 0.0
H1063 H 0.86423 0.34148 -0.01281 0.0
H1064 H 0.9007 0.3903 0.86004 0.0
C1065 C 0.87512 0.37387 0.60711 0.0
C1066 C 0.85691 0.3506 0.77952 0.0
C1067 C 0.87345 0.37108 0.53264 0.0
C1068 C 0.87297 0.35728 0.08364 0.0
C1069 C 0.87032 0.35501 0.00921 0.0
C1070 C 0.88828 0.37932 0.8383 0.0
C1071 C 0.86963 0.35922 0.65463 0.0
C1072 C 0.87113 0.36218 0.73366 0.0
C1073 C 0.87606 0.37006 0.96365 0.0
C1074 C 0.87413 0.36764 0.8843 0.0
H1075 H 0.85551 0.32536 0.53091 0.0
H1076 H 0.85846 0.33023 0.66158 0.0
H1077 H 0.89804 0.38564 0.72967 0.0
H1078 H 0.89329 0.40321 0.09113 0.0
H1079 H 0.88849 0.39925 0.96064 0.0
C1080 C 0.3804 0.8701 0.41596 0.0
C1081 C 0.36302 0.86156 0.4462 0.0
C1082 C 0.38266 0.86973 0.34151 0.0
C1083 C 0.35861 0.86413 0.17055 0.0
H1084 H 0.39757 0.85884 0.08996 0.0
C1085 C 0.36648 0.85707 0.86494 0.0
C1086 C 0.38401 0.867 0.83654 0.0
C1087 C 0.36369 0.85607 0.93943 0.0
C1088 C 0.38674 0.86051 0.1118 0.0
H1089 H 0.33438 0.8455 0.42342 0.0
H1090 H 0.33829 0.84466 0.29289 0.0
H1091 H 0.39284 0.85682 0.22041 0.0
H1092 H 0.41237 0.88375 0.86289 0.0
H1093 H 0.40752 0.88206 -0.00643 0.0
H1094 H 0.35253 0.86782 0.06189 0.0
C1095 C 0.35017 0.85189 0.32657 0.0
C1096 C 0.38402 0.85933 0.18639 0.0
C1097 C 0.34792 0.85228 0.40115 0.0
C1098 C 0.39873 0.87599 0.88365 0.0
C1099 C 0.39595 0.87493 0.95826 0.0
C1100 C 0.3613 0.86526 0.09595 0.0
C1101 C 0.36756 0.86077 0.29593 0.0
C1102 C 0.36998 0.86123 0.21657 0.0
C1103 C 0.37841 0.86491 -0.01316 0.0
C1104 C 0.37545 0.86355 0.0659 0.0
H1105 H 0.39227 0.87735 0.44966 0.0
H1106 H 0.39621 0.87687 0.31951 0.0
H1107 H 0.34786 0.86594 0.19227 0.0
H1108 H 0.35491 0.84987 0.82968 0.0
H1109 H 0.35004 0.84808 0.95997 0.0
C1110 C 0.19933 0.54807 0.88336 0.0
C1111 C 0.20685 0.54019 0.83959 0.0
C1112 C 0.19834 0.54547 0.95812 0.0
C1113 C 0.18832 0.52754 0.10743 0.0
H1114 H 0.23119 0.53553 0.21079 0.0
C1115 C 0.1879 0.50662 0.40535 0.0
C1116 C 0.20147 0.51962 0.44984 0.0
C1117 C 0.18823 0.50949 0.33091 0.0
C1118 C 0.21915 0.53332 0.18259 0.0
H1119 H 0.21993 0.52414 0.83814 0.0
H1120 H 0.21827 0.51956 0.96933 0.0
H1121 H 0.23243 0.53969 0.07972 0.0
H1122 H 0.22596 0.54575 0.45224 0.0
H1123 H 0.22666 0.55068 0.32172 0.0
H1124 H 0.17501 0.52102 0.21032 0.0
C1125 C 0.21293 0.52754 0.94599 0.0
C1126 C 0.21982 0.53556 0.10769 0.0
C1127 C 0.2137 0.52996 0.87115 0.0
C1128 C 0.21531 0.53557 0.41898 0.0
C1129 C 0.21577 0.53833 0.34443 0.0
C1130 C 0.18759 0.52506 0.18225 0.0
C1131 C 0.20519 0.53523 -0.00986 0.0
C1132 C 0.20442 0.53273 0.06945 0.0
C1133 C 0.20226 0.52529 0.2997 0.0
C1134 C 0.20301 0.52799 0.22051 0.0
H1135 H 0.19413 0.55615 0.85965 0.0
H1136 H 0.1925 0.55171 -0.00896 0.0
H1137 H 0.17624 0.52517 0.0791 0.0
H1138 H 0.17707 0.49423 0.42809 0.0
H1139 H 0.17772 0.49918 0.29752 0.0
C1140 C 0.53914 0.68866 0.418 0.0
C1141 C 0.54755 0.7061 0.44761 0.0
C1142 C 0.5368 0.68624 0.34354 0.0
C1143 C 0.53496 0.70801 0.17538 0.0
H1144 H 0.54793 0.67505 0.08626 0.0
C1145 C 0.53915 0.70257 0.86672 0.0
C1146 C 0.53216 0.68516 0.83795 0.0
C1147 C 0.54111 0.70528 0.94122 0.0
C1148 C 0.54405 0.68413 0.11041 0.0
H1149 H 0.55963 0.73463 0.42367 0.0
H1150 H 0.55556 0.7304 0.29282 0.0
H1151 H 0.55066 0.67946 0.21666 0.0
H1152 H 0.52164 0.65692 0.86362 0.0
H1153 H 0.52475 0.66157 -0.00583 0.0
H1154 H 0.52823 0.7126 0.06916 0.0
C1155 C 0.55075 0.71863 0.32726 0.0
C1156 C 0.54563 0.68666 0.18502 0.0
C1157 C 0.55315 0.72106 0.4019 0.0
C1158 C 0.52715 0.67049 0.88466 0.0
C1159 C 0.52903 0.67318 0.95923 0.0
C1160 C 0.53331 0.70543 0.10071 0.0
C1161 C 0.54277 0.7012 0.29738 0.0
C1162 C 0.54107 0.6986 0.21822 0.0
C1163 C 0.536 0.69061 -0.01171 0.0
C1164 C 0.53783 0.69344 0.06747 0.0
H1165 H 0.5346 0.67689 0.45223 0.0
H1166 H 0.53035 0.67264 0.32202 0.0
H1167 H 0.53118 0.71715 0.19973 0.0
H1168 H 0.543 0.71409 0.83174 0.0
H1169 H 0.54673 0.71889 0.96189 0.0
loop_
_geom_bond_atom_site_label_1
_geom_bond_atom_site_label_2
_geom_bond_distance
_geom_bond_site_symmetry_2
_ccdc_geom_bond_type
Tb0 C2 2.809 . S
Tb0 O20 2.484 . S
Tb0 O21 2.440 1_554 S
Tb0 O22 2.658 1_654 S
Tb0 O23 2.409 1_554 S
Tb0 O24 2.378 1_654 S
Tb0 O28 2.325 1_655 S
Tb0 O31 2.341 . S
Tb1 C11 2.809 1_554 S
Tb1 O22 2.325 1_554 S
Tb1 O25 2.341 1_554 S
Tb1 O26 2.484 1_554 S
Tb1 O27 2.440 . S
Tb1 O28 2.658 . S
Tb1 O29 2.409 . S
Tb1 O30 2.378 . S
C2 Tb0 2.809 . S
C2 C3 1.514 . S
C2 O20 1.248 . S
C2 O21 1.266 1_554 S
C3 C2 1.514 . S
C3 C4 1.359 . S
C3 C8 1.348 1_554 S
C4 C3 1.359 . S
C4 C5 1.380 . S
C4 H32 0.929 . S
C5 C4 1.380 . S
C5 C6 1.347 . S
C5 H33 0.931 . S
C6 C5 1.347 . S
C6 C7 1.369 1_554 S
C7 C6 1.369 1_556 S
C7 C8 1.408 . S
C7 H34 0.930 . S
C8 C3 1.348 1_556 S
C8 C7 1.408 . S
C8 H35 0.930 . S
C9 O22 1.281 . S
C9 O23 1.254 1_455 S
C10 O24 1.236 . S
C10 O25 1.266 . S
C11 Tb1 2.809 1_556 S
C11 C12 1.514 . S
C11 O26 1.248 . S
C11 O27 1.266 1_556 S
C12 C11 1.514 . S
C12 C13 1.359 . S
C12 C17 1.348 1_556 S
C13 C12 1.359 . S
C13 C14 1.380 . S
C13 H36 0.929 . S
C14 C13 1.380 . S
C14 C15 1.347 . S
C14 H37 0.931 . S
C15 C14 1.347 . S
C15 C16 1.369 1_556 S
C16 C15 1.369 1_554 S
C16 C17 1.408 . S
C16 H38 0.930 . S
C17 C12 1.348 1_554 S
C17 C16 1.408 . S
C17 H39 0.930 . S
C18 O28 1.281 . S
C18 O29 1.254 . S
C19 O30 1.236 1_655 S
C19 O31 1.266 . S
O20 Tb0 2.484 . S
O20 C2 1.248 . S
O21 Tb0 2.440 1_556 S
O21 C2 1.266 1_556 S
O22 Tb0 2.658 1_456 S
O22 Tb1 2.325 1_556 S
O22 C9 1.281 . S
O23 Tb0 2.409 1_556 S
O23 C9 1.254 1_655 S
O24 Tb0 2.378 1_456 S
O24 C10 1.236 . S
O25 Tb1 2.341 1_556 S
O25 C10 1.266 . S
O26 Tb1 2.484 1_556 S
O26 C11 1.248 . S
O27 Tb1 2.440 . S
O27 C11 1.266 1_554 S
O28 Tb0 2.325 1_455 S
O28 Tb1 2.658 . S
O28 C18 1.281 . S
O29 Tb1 2.409 . S
O29 C18 1.254 . S
O30 Tb1 2.378 . S
O30 C19 1.236 1_455 S
O31 Tb0 2.341 . S
O31 C19 1.266 . S
H32 C4 0.929 . S
H33 C5 0.931 . S
H34 C7 0.930 . S
H35 C8 0.930 . S
H36 C13 0.929 . S
H37 C14 0.931 . S
H38 C16 0.930 . S
H39 C17 0.930 . S
Tb40 C42 2.809 . S
Tb40 O60 2.484 . S
Tb40 O61 2.440 1_554 S
Tb40 O62 2.658 1_554 S
Tb40 O63 2.409 1_554 S
Tb40 O64 2.378 1_554 S
Tb40 O68 2.325 . S
Tb40 O71 2.341 . S
Tb41 C51 2.809 1_554 S
Tb41 O62 2.325 1_554 S
Tb41 O65 2.341 1_554 S
Tb41 O66 2.484 1_554 S
Tb41 O67 2.440 . S
Tb41 O68 2.658 . S
Tb41 O69 2.409 . S
Tb41 O70 2.378 . S
C42 Tb40 2.809 . S
C42 C43 1.514 . S
C42 O60 1.248 . S
C42 O61 1.266 1_554 S
C43 C42 1.514 . S
C43 C44 1.359 . S
C43 C48 1.348 1_554 S
C44 C43 1.359 . S
C44 C45 1.380 . S
C44 H72 0.929 . S
C45 C44 1.380 . S
C45 C46 1.347 . S
C45 H73 0.931 . S
C46 C45 1.347 . S
C46 C47 1.369 1_554 S
C47 C46 1.369 1_556 S
C47 C48 1.408 . S
C47 H74 0.930 . S
C48 C43 1.348 1_556 S
C48 C47 1.408 . S
C48 H75 0.930 . S
C49 O62 1.281 . S
C49 O63 1.254 . S
C50 O64 1.236 . S
C50 O65 1.266 . S
C51 Tb41 2.809 1_556 S
C51 C52 1.514 . S
C51 O66 1.248 . S
C51 O67 1.266 1_556 S
C52 C51 1.514 . S
C52 C53 1.359 . S
C52 C57 1.348 1_556 S
C53 C52 1.359 . S
C53 C54 1.380 . S
C53 H76 0.929 . S
C54 C53 1.380 . S
C54 C55 1.347 . S
C54 H77 0.931 . S
C55 C54 1.347 . S
C55 C56 1.369 1_556 S
C56 C55 1.369 1_554 S
C56 C57 1.408 . S
C56 H78 0.930 . S
C57 C52 1.348 1_554 S
C57 C56 1.408 . S
C57 H79 0.930 . S
C58 O68 1.281 . S
C58 O69 1.254 . S
C59 O70 1.236 . S
C59 O71 1.266 . S
O60 Tb40 2.484 . S
O60 C42 1.248 . S
O61 Tb40 2.440 1_556 S
O61 C42 1.266 1_556 S
O62 Tb40 2.658 1_556 S
O62 Tb41 2.325 1_556 S
O62 C49 1.281 . S
O63 Tb40 2.409 1_556 S
O63 C49 1.254 . S
O64 Tb40 2.378 1_556 S
O64 C50 1.236 . S
O65 Tb41 2.341 1_556 S
O65 C50 1.266 . S
O66 Tb41 2.484 1_556 S
O66 C51 1.248 . S
O67 Tb41 2.440 . S
O67 C51 1.266 1_554 S
O68 Tb40 2.325 . S
O68 Tb41 2.658 . S
O68 C58 1.281 . S
O69 Tb41 2.409 . S
O69 C58 1.254 . S
O70 Tb41 2.378 . S
O70 C59 1.236 . S
O71 Tb40 2.341 . S
O71 C59 1.266 . S
H72 C44 0.929 . S
H73 C45 0.931 . S
H74 C47 0.930 . S
H75 C48 0.930 . S
H76 C53 0.929 . S
H77 C54 0.931 . S
H78 C56 0.930 . S
H79 C57 0.930 . S
Tb80 C82 2.809 . S
Tb80 O100 2.484 . S
Tb80 O101 2.440 1_554 S
Tb80 O102 2.658 1_554 S
Tb80 O103 2.409 1_554 S
Tb80 O104 2.378 1_554 S
Tb80 O108 2.325 . S
Tb80 O111 2.341 . S
Tb81 C91 2.809 1_554 S
Tb81 O102 2.325 1_564 S
Tb81 O105 2.341 1_554 S
Tb81 O106 2.484 1_554 S
Tb81 O107 2.440 . S
Tb81 O108 2.658 1_565 S
Tb81 O109 2.409 . S
Tb81 O110 2.378 1_565 S
C82 Tb80 2.809 . S
C82 C83 1.514 . S
C82 O100 1.248 . S
C82 O101 1.266 1_554 S
C83 C82 1.514 . S
C83 C84 1.359 . S
C83 C88 1.348 1_554 S
C84 C83 1.359 . S
C84 C85 1.380 . S
C84 H112 0.929 . S
C85 C84 1.380 . S
C85 C86 1.347 . S
C85 H113 0.931 . S
C86 C85 1.347 . S
C86 C87 1.369 1_554 S
C87 C86 1.369 1_556 S
C87 C88 1.408 . S
C87 H114 0.930 . S
C88 C83 1.348 1_556 S
C88 C87 1.408 . S
C88 H115 0.930 . S
C89 O102 1.281 . S
C89 O103 1.254 . S
C90 O104 1.236 1_565 S
C90 O105 1.266 . S
C91 Tb81 2.809 1_556 S
C91 C92 1.514 . S
C91 O106 1.248 . S
C91 O107 1.266 1_556 S
C92 C91 1.514 . S
C92 C93 1.359 . S
C92 C97 1.348 1_556 S
C93 C92 1.359 . S
C93 C94 1.380 . S
C93 H116 0.929 . S
C94 C93 1.380 . S
C94 C95 1.347 . S
C94 H117 0.931 . S
C95 C94 1.347 . S
C95 C96 1.369 1_556 S
C96 C95 1.369 1_554 S
C96 C97 1.408 . S
C96 H118 0.930 . S
C97 C92 1.348 1_554 S
C97 C96 1.408 . S
C97 H119 0.930 . S
C98 O108 1.281 . S
C98 O109 1.254 1_545 S
C99 O110 1.236 . S
C99 O111 1.266 . S
O100 Tb80 2.484 . S
O100 C82 1.248 . S
O101 Tb80 2.440 1_556 S
O101 C82 1.266 1_556 S
O102 Tb80 2.658 1_556 S
O102 Tb81 2.325 1_546 S
O102 C89 1.281 . S
O103 Tb80 2.409 1_556 S
O103 C89 1.254 . S
O104 Tb80 2.378 1_556 S
O104 C90 1.236 1_545 S
O105 Tb81 2.341 1_556 S
O105 C90 1.266 . S
O106 Tb81 2.484 1_556 S
O106 C91 1.248 . S
O107 Tb81 2.440 . S
O107 C91 1.266 1_554 S
O108 Tb80 2.325 . S
O108 Tb81 2.658 1_545 S
O108 C98 1.281 . S
O109 Tb81 2.409 . S
O109 C98 1.254 1_565 S
O110 Tb81 2.378 1_545 S
O110 C99 1.236 . S
O111 Tb80 2.341 . S
O111 C99 1.266 . S
H112 C84 0.929 . S
H113 C85 0.931 . S
H114 C87 0.930 . S
H115 C88 0.930 . S
H116 C93 0.929 . S
H117 C94 0.931 . S
H118 C96 0.930 . S
H119 C97 0.930 . S
Tb120 C122 2.809 . S
Tb120 O140 2.484 . S
Tb120 O141 2.440 . S
Tb120 O142 2.658 . S
Tb120 O143 2.409 . S
Tb120 O144 2.378 . S
Tb120 O148 2.325 . S
Tb120 O151 2.341 . S
Tb121 C131 2.809 . S
Tb121 O142 2.325 . S
Tb121 O145 2.341 . S
Tb121 O146 2.484 . S
Tb121 O147 2.440 . S
Tb121 O148 2.658 . S
Tb121 O149 2.409 . S
Tb121 O150 2.378 . S
C122 Tb120 2.809 . S
C122 C123 1.514 . S
C122 O140 1.248 . S
C122 O141 1.266 . S
C123 C122 1.514 . S
C123 C124 1.359 . S
C123 C128 1.348 . S
C124 C123 1.359 . S
C124 C125 1.380 . S
C124 H152 0.929 . S
C125 C124 1.380 . S
C125 C126 1.347 . S
C125 H153 0.931 . S
C126 C125 1.347 . S
C126 C127 1.369 . S
C127 C126 1.369 . S
C127 C128 1.408 . S
C127 H154 0.930 . S
C128 C123 1.348 . S
C128 C127 1.408 . S
C128 H155 0.930 . S
C129 O142 1.281 . S
C129 O143 1.254 . S
C130 O144 1.236 . S
C130 O145 1.266 . S
C131 Tb121 2.809 . S
C131 C132 1.514 . S
C131 O146 1.248 . S
C131 O147 1.266 . S
C132 C131 1.514 . S
C132 C133 1.359 . S
C132 C137 1.348 . S
C133 C132 1.359 . S
C133 C134 1.380 . S
C133 H156 0.929 . S
C134 C133 1.380 . S
C134 C135 1.347 . S
C134 H157 0.931 . S
C135 C134 1.347 . S
C135 C136 1.369 . S
C136 C135 1.369 . S
C136 C137 1.408 . S
C136 H158 0.930 . S
C137 C132 1.348 . S
C137 C136 1.408 . S
C137 H159 0.930 . S
C138 O148 1.281 . S
C138 O149 1.254 . S
C139 O150 1.236 . S
C139 O151 1.266 . S
O140 Tb120 2.484 . S
O140 C122 1.248 . S
O141 Tb120 2.440 . S
O141 C122 1.266 . S
O142 Tb120 2.658 . S
O142 Tb121 2.325 . S
O142 C129 1.281 . S
O143 Tb120 2.409 . S
O143 C129 1.254 . S
O144 Tb120 2.378 . S
O144 C130 1.236 . S
O145 Tb121 2.341 . S
O145 C130 1.266 . S
O146 Tb121 2.484 . S
O146 C131 1.248 . S
O147 Tb121 2.440 . S
O147 C131 1.266 . S
O148 Tb120 2.325 . S
O148 Tb121 2.658 . S
O148 C138 1.281 . S
O149 Tb121 2.409 . S
O149 C138 1.254 . S
O150 Tb121 2.378 . S
O150 C139 1.236 . S
O151 Tb120 2.341 . S
O151 C139 1.266 . S
H152 C124 0.929 . S
H153 C125 0.931 . S
H154 C127 0.930 . S
H155 C128 0.930 . S
H156 C133 0.929 . S
H157 C134 0.931 . S
H158 C136 0.930 . S
H159 C137 0.930 . S
Tb160 C162 2.809 . S
Tb160 O180 2.484 . S
Tb160 O181 2.440 . S
Tb160 O182 2.658 . S
Tb160 O183 2.409 . S
Tb160 O184 2.378 . S
Tb160 O188 2.325 . S
Tb160 O191 2.341 . S
Tb161 C171 2.809 . S
Tb161 O182 2.325 . S
Tb161 O185 2.341 . S
Tb161 O186 2.484 . S
Tb161 O187 2.440 . S
Tb161 O188 2.658 . S
Tb161 O189 2.409 . S
Tb161 O190 2.378 . S
C162 Tb160 2.809 . S
C162 C163 1.514 . S
C162 O180 1.248 . S
C162 O181 1.266 . S
C163 C162 1.514 . S
C163 C164 1.359 . S
C163 C168 1.348 . S
C164 C163 1.359 . S
C164 C165 1.380 . S
C164 H192 0.929 . S
C165 C164 1.380 . S
C165 C166 1.347 . S
C165 H193 0.931 . S
C166 C165 1.347 . S
C166 C167 1.369 . S
C167 C166 1.369 . S
C167 C168 1.408 . S
C167 H194 0.930 . S
C168 C163 1.348 . S
C168 C167 1.408 . S
C168 H195 0.930 . S
C169 O182 1.281 . S
C169 O183 1.254 . S
C170 O184 1.236 . S
C170 O185 1.266 . S
C171 Tb161 2.809 . S
C171 C172 1.514 . S
C171 O186 1.248 . S
C171 O187 1.266 . S
C172 C171 1.514 . S
C172 C173 1.359 . S
C172 C177 1.348 . S
C173 C172 1.359 . S
C173 C174 1.380 . S
C173 H196 0.929 . S
C174 C173 1.380 . S
C174 C175 1.347 . S
C174 H197 0.931 . S
C175 C174 1.347 . S
C175 C176 1.369 . S
C176 C175 1.369 . S
C176 C177 1.408 . S
C176 H198 0.930 . S
C177 C172 1.348 . S
C177 C176 1.408 . S
C177 H199 0.930 . S
C178 O188 1.281 . S
C178 O189 1.254 . S
C179 O190 1.236 . S
C179 O191 1.266 . S
O180 Tb160 2.484 . S
O180 C162 1.248 . S
O181 Tb160 2.440 . S
O181 C162 1.266 . S
O182 Tb160 2.658 . S
O182 Tb161 2.325 . S
O182 C169 1.281 . S
O183 Tb160 2.409 . S
O183 C169 1.254 . S
O184 Tb160 2.378 . S
O184 C170 1.236 . S
O185 Tb161 2.341 . S
O185 C170 1.266 . S
O186 Tb161 2.484 . S
O186 C171 1.248 . S
O187 Tb161 2.440 . S
O187 C171 1.266 . S
O188 Tb160 2.325 . S
O188 Tb161 2.658 . S
O188 C178 1.281 . S
O189 Tb161 2.409 . S
O189 C178 1.254 . S
O190 Tb161 2.378 . S
O190 C179 1.236 . S
O191 Tb160 2.341 . S
O191 C179 1.266 . S
H192 C164 0.929 . S
H193 C165 0.931 . S
H194 C167 0.930 . S
H195 C168 0.930 . S
H196 C173 0.929 . S
H197 C174 0.931 . S
H198 C176 0.930 . S
H199 C177 0.930 . S
Tb200 C202 2.809 . S
Tb200 O220 2.484 . S
Tb200 O221 2.440 . S
Tb200 O222 2.658 . S
Tb200 O223 2.409 . S
Tb200 O224 2.378 . S
Tb200 O228 2.325 . S
Tb200 O231 2.341 . S
Tb201 C211 2.809 . S
Tb201 O222 2.325 . S
Tb201 O225 2.341 . S
Tb201 O226 2.484 . S
Tb201 O227 2.440 . S
Tb201 O228 2.658 . S
Tb201 O229 2.409 . S
Tb201 O230 2.378 . S
C202 Tb200 2.809 . S
C202 C203 1.514 . S
C202 O220 1.248 . S
C202 O221 1.266 . S
C203 C202 1.514 . S
C203 C204 1.359 . S
C203 C208 1.348 . S
C204 C203 1.359 . S
C204 C205 1.380 . S
C204 H232 0.929 . S
C205 C204 1.380 . S
C205 C206 1.347 . S
C205 H233 0.931 . S
C206 C205 1.347 . S
C206 C207 1.369 . S
C207 C206 1.369 . S
C207 C208 1.408 . S
C207 H234 0.930 . S
C208 C203 1.348 . S
C208 C207 1.408 . S
C208 H235 0.930 . S
C209 O222 1.281 . S
C209 O223 1.254 . S
C210 O224 1.236 . S
C210 O225 1.266 . S
C211 Tb201 2.809 . S
C211 C212 1.514 . S
C211 O226 1.248 . S
C211 O227 1.266 . S
C212 C211 1.514 . S
C212 C213 1.359 . S
C212 C217 1.348 . S
C213 C212 1.359 . S
C213 C214 1.380 . S
C213 H236 0.929 . S
C214 C213 1.380 . S
C214 C215 1.347 . S
C214 H237 0.931 . S
C215 C214 1.347 . S
C215 C216 1.369 . S
C216 C215 1.369 . S
C216 C217 1.408 . S
C216 H238 0.930 . S
C217 C212 1.348 . S
C217 C216 1.408 . S
C217 H239 0.930 . S
C218 O228 1.281 . S
C218 O229 1.254 . S
C219 O230 1.236 . S
C219 O231 1.266 . S
O220 Tb200 2.484 . S
O220 C202 1.248 . S
O221 Tb200 2.440 . S
O221 C202 1.266 . S
O222 Tb200 2.658 . S
O222 Tb201 2.325 . S
O222 C209 1.281 . S
O223 Tb200 2.409 . S
O223 C209 1.254 . S
O224 Tb200 2.378 . S
O224 C210 1.236 . S
O225 Tb201 2.341 . S
O225 C210 1.266 . S
O226 Tb201 2.484 . S
O226 C211 1.248 . S
O227 Tb201 2.440 . S
O227 C211 1.266 . S
O228 Tb200 2.325 . S
O228 Tb201 2.658 . S
O228 C218 1.281 . S
O229 Tb201 2.409 . S
O229 C218 1.254 . S
O230 Tb201 2.378 . S
O230 C219 1.236 . S
O231 Tb200 2.341 . S
O231 C219 1.266 . S
H232 C204 0.929 . S
H233 C205 0.931 . S
H234 C207 0.930 . S
H235 C208 0.930 . S
H236 C213 0.929 . S
H237 C214 0.931 . S
H238 C216 0.930 . S
H239 C217 0.930 . S
Tb240 C242 2.809 . S
Tb240 O260 2.484 . S
Tb240 O261 2.440 . S
Tb240 O262 2.658 . S
Tb240 O263 2.409 . S
Tb240 O264 2.378 . S
Tb240 O268 2.325 . S
Tb240 O271 2.341 . S
Tb241 C251 2.809 . S
Tb241 O262 2.325 . S
Tb241 O265 2.341 . S
Tb241 O266 2.484 . S
Tb241 O267 2.440 . S
Tb241 O268 2.658 . S
Tb241 O269 2.409 . S
Tb241 O270 2.378 . S
C242 Tb240 2.809 . S
C242 C243 1.514 . S
C242 O260 1.248 . S
C242 O261 1.266 . S
C243 C242 1.514 . S
C243 C244 1.359 . S
C243 C248 1.348 . S
C244 C243 1.359 . S
C244 C245 1.380 . S
C244 H272 0.929 . S
C245 C244 1.380 . S
C245 C246 1.347 . S
C245 H273 0.931 . S
C246 C245 1.347 . S
C246 C247 1.369 . S
C247 C246 1.369 . S
C247 C248 1.408 . S
C247 H274 0.930 . S
C248 C243 1.348 . S
C248 C247 1.408 . S
C248 H275 0.930 . S
C249 O262 1.281 . S
C249 O263 1.254 . S
C250 O264 1.236 . S
C250 O265 1.266 . S
C251 Tb241 2.809 . S
C251 C252 1.514 . S
C251 O266 1.248 . S
C251 O267 1.266 . S
C252 C251 1.514 . S
C252 C253 1.359 . S
C252 C257 1.348 . S
C253 C252 1.359 . S
C253 C254 1.380 . S
C253 H276 0.929 . S
C254 C253 1.380 . S
C254 C255 1.347 . S
C254 H277 0.931 . S
C255 C254 1.347 . S
C255 C256 1.369 . S
C256 C255 1.369 . S
C256 C257 1.408 . S
C256 H278 0.930 . S
C257 C252 1.348 . S
C257 C256 1.408 . S
C257 H279 0.930 . S
C258 O268 1.281 . S
C258 O269 1.254 . S
C259 O270 1.236 . S
C259 O271 1.266 . S
O260 Tb240 2.484 . S
O260 C242 1.248 . S
O261 Tb240 2.440 . S
O261 C242 1.266 . S
O262 Tb240 2.658 . S
O262 Tb241 2.325 . S
O262 C249 1.281 . S
O263 Tb240 2.409 . S
O263 C249 1.254 . S
O264 Tb240 2.378 . S
O264 C250 1.236 . S
O265 Tb241 2.341 . S
O265 C250 1.266 . S
O266 Tb241 2.484 . S
O266 C251 1.248 . S
O267 Tb241 2.440 . S
O267 C251 1.266 . S
O268 Tb240 2.325 . S
O268 Tb241 2.658 . S
O268 C258 1.281 . S
O269 Tb241 2.409 . S
O269 C258 1.254 . S
O270 Tb241 2.378 . S
O270 C259 1.236 . S
O271 Tb240 2.341 . S
O271 C259 1.266 . S
H272 C244 0.929 . S
H273 C245 0.931 . S
H274 C247 0.930 . S
H275 C248 0.930 . S
H276 C253 0.929 . S
H277 C254 0.931 . S
H278 C256 0.930 . S
H279 C257 0.930 . S
Tb280 C282 2.809 . S
Tb280 O300 2.484 . S
Tb280 O301 2.440 . S
Tb280 O302 2.658 . S
Tb280 O303 2.409 . S
Tb280 O304 2.378 . S
Tb280 O308 2.325 . S
Tb280 O311 2.341 . S
Tb281 C291 2.809 . S
Tb281 O302 2.325 . S
Tb281 O305 2.341 . S
Tb281 O306 2.484 . S
Tb281 O307 2.440 . S
Tb281 O308 2.658 . S
Tb281 O309 2.409 . S
Tb281 O310 2.378 . S
C282 Tb280 2.809 . S
C282 C283 1.514 . S
C282 O300 1.248 . S
C282 O301 1.266 . S
C283 C282 1.514 . S
C283 C284 1.359 . S
C283 C288 1.348 . S
C284 C283 1.359 . S
C284 C285 1.380 . S
C284 H312 0.929 . S
C285 C284 1.380 . S
C285 C286 1.347 . S
C285 H313 0.931 . S
C286 C285 1.347 . S
C286 C287 1.369 . S
C287 C286 1.369 . S
C287 C288 1.408 . S
C287 H314 0.930 . S
C288 C283 1.348 . S
C288 C287 1.408 . S
C288 H315 0.930 . S
C289 O302 1.281 . S
C289 O303 1.254 . S
C290 O304 1.236 . S
C290 O305 1.266 . S
C291 Tb281 2.809 . S
C291 C292 1.514 . S
C291 O306 1.248 . S
C291 O307 1.266 . S
C292 C291 1.514 . S
C292 C293 1.359 . S
C292 C297 1.348 . S
C293 C292 1.359 . S
C293 C294 1.380 . S
C293 H316 0.929 . S
C294 C293 1.380 . S
C294 C295 1.347 . S
C294 H317 0.931 . S
C295 C294 1.347 . S
C295 C296 1.369 . S
C296 C295 1.369 . S
C296 C297 1.408 . S
C296 H318 0.930 . S
C297 C292 1.348 . S
C297 C296 1.408 . S
C297 H319 0.930 . S
C298 O308 1.281 . S
C298 O309 1.254 . S
C299 O310 1.236 . S
C299 O311 1.266 . S
O300 Tb280 2.484 . S
O300 C282 1.248 . S
O301 Tb280 2.440 . S
O301 C282 1.266 . S
O302 Tb280 2.658 . S
O302 Tb281 2.325 . S
O302 C289 1.281 . S
O303 Tb280 2.409 . S
O303 C289 1.254 . S
O304 Tb280 2.378 . S
O304 C290 1.236 . S
O305 Tb281 2.341 . S
O305 C290 1.266 . S
O306 Tb281 2.484 . S
O306 C291 1.248 . S
O307 Tb281 2.440 . S
O307 C291 1.266 . S
O308 Tb280 2.325 . S
O308 Tb281 2.658 . S
O308 C298 1.281 . S
O309 Tb281 2.409 . S
O309 C298 1.254 . S
O310 Tb281 2.378 . S
O310 C299 1.236 . S
O311 Tb280 2.341 . S
O311 C299 1.266 . S
H312 C284 0.929 . S
H313 C285 0.931 . S
H314 C287 0.930 . S
H315 C288 0.930 . S
H316 C293 0.929 . S
H317 C294 0.931 . S
H318 C296 0.930 . S
H319 C297 0.930 . S
Tb320 C322 2.809 . S
Tb320 O340 2.484 . S
Tb320 O341 2.440 . S
Tb320 O342 2.658 . S
Tb320 O343 2.409 . S
Tb320 O344 2.378 . S
Tb320 O348 2.325 . S
Tb320 O351 2.341 . S
Tb321 C331 2.809 . S
Tb321 O342 2.325 . S
Tb321 O345 2.341 . S
Tb321 O346 2.484 . S
Tb321 O347 2.440 . S
Tb321 O348 2.658 . S
Tb321 O349 2.409 . S
Tb321 O350 2.378 . S
C322 Tb320 2.809 . S
C322 C323 1.514 . S
C322 O340 1.248 . S
C322 O341 1.266 . S
C323 C322 1.514 . S
C323 C324 1.359 . S
C323 C328 1.348 . S
C324 C323 1.359 . S
C324 C325 1.380 . S
C324 H352 0.929 . S
C325 C324 1.380 . S
C325 C326 1.347 . S
C325 H353 0.931 . S
C326 C325 1.347 . S
C326 C327 1.369 . S
C327 C326 1.369 . S
C327 C328 1.408 . S
C327 H354 0.930 . S
C328 C323 1.348 . S
C328 C327 1.408 . S
C328 H355 0.930 . S
C329 O342 1.281 . S
C329 O343 1.254 . S
C330 O344 1.236 . S
C330 O345 1.266 . S
C331 Tb321 2.809 . S
C331 C332 1.514 . S
C331 O346 1.248 . S
C331 O347 1.266 . S
C332 C331 1.514 . S
C332 C333 1.359 . S
C332 C337 1.348 . S
C333 C332 1.359 . S
C333 C334 1.380 . S
C333 H356 0.929 . S
C334 C333 1.380 . S
C334 C335 1.347 . S
C334 H357 0.931 . S
C335 C334 1.347 . S
C335 C336 1.369 . S
C336 C335 1.369 . S
C336 C337 1.408 . S
C336 H358 0.930 . S
C337 C332 1.348 . S
C337 C336 1.408 . S
C337 H359 0.930 . S
C338 O348 1.281 . S
C338 O349 1.254 . S
C339 O350 1.236 . S
C339 O351 1.266 . S
O340 Tb320 2.484 . S
O340 C322 1.248 . S
O341 Tb320 2.440 . S
O341 C322 1.266 . S
O342 Tb320 2.658 . S
O342 Tb321 2.325 . S
O342 C329 1.281 . S
O343 Tb320 2.409 . S
O343 C329 1.254 . S
O344 Tb320 2.378 . S
O344 C330 1.236 . S
O345 Tb321 2.341 . S
O345 C330 1.266 . S
O346 Tb321 2.484 . S
O346 C331 1.248 . S
O347 Tb321 2.440 . S
O347 C331 1.266 . S
O348 Tb320 2.325 . S
O348 Tb321 2.658 . S
O348 C338 1.281 . S
O349 Tb321 2.409 . S
O349 C338 1.254 . S
O350 Tb321 2.378 . S
O350 C339 1.236 . S
O351 Tb320 2.341 . S
O351 C339 1.266 . S
H352 C324 0.929 . S
H353 C325 0.931 . S
H354 C327 0.930 . S
H355 C328 0.930 . S
H356 C333 0.929 . S
H357 C334 0.931 . S
H358 C336 0.930 . S
H359 C337 0.930 . S
C360 C361 1.349 . S
C360 C362 1.327 . S
C360 H385 0.950 . S
C361 C360 1.349 . S
C361 C377 1.349 1_556 S
C362 C360 1.327 . S
C362 C381 1.429 . S
C362 H386 0.950 . S
C363 C380 1.574 . S
C363 C382 1.368 . S
C363 H387 0.949 . S
H364 C368 0.949 . S
C365 C366 1.349 . S
C365 C367 1.327 . S
C365 H388 0.950 . S
C366 C365 1.349 . S
C366 C378 1.349 . S
C367 C365 1.327 . S
C367 C383 1.429 . S
C367 H389 0.950 . S
C368 H364 0.949 . S
C368 C376 1.574 . S
C368 C384 1.368 . S
H369 C377 0.950 . S
H370 C375 0.950 1_554 S
H371 C376 0.949 . S
H372 C378 0.950 . S
H373 C379 0.950 . S
H374 C380 0.949 . S
C375 H370 0.950 1_556 S
C375 C377 1.327 1_556 S
C375 C381 1.429 . S
C376 C368 1.574 . S
C376 H371 0.949 . S
C376 C382 1.368 . S
C377 C361 1.349 1_554 S
C377 H369 0.950 . S
C377 C375 1.327 1_554 S
C378 C366 1.349 . S
C378 H372 0.950 . S
C378 C379 1.327 . S
C379 H373 0.950 . S
C379 C378 1.327 . S
C379 C383 1.429 . S
C380 C363 1.574 . S
C380 H374 0.949 . S
C380 C384 1.368 . S
C381 C362 1.429 . S
C381 C375 1.429 . S
C381 C382 1.523 . S
C382 C363 1.368 . S
C382 C376 1.368 . S
C382 C381 1.523 . S
C383 C367 1.429 . S
C383 C379 1.429 . S
C383 C384 1.523 . S
C384 C368 1.368 . S
C384 C380 1.368 . S
C384 C383 1.523 . S
H385 C360 0.950 . S
H386 C362 0.950 . S
H387 C363 0.949 . S
H388 C365 0.950 . S
H389 C367 0.950 . S
C390 C391 1.349 . S
C390 C392 1.327 . S
C390 H415 0.950 1_556 S
C391 C390 1.349 . S
C391 C407 1.349 . S
C392 C390 1.327 . S
C392 C411 1.429 . S
C392 H416 0.950 . S
C393 C410 1.574 . S
C393 C412 1.368 . S
C393 H417 0.949 . S
H394 C398 0.949 . S
C395 C396 1.349 . S
C395 C397 1.327 . S
C395 H418 0.950 . S
C396 C395 1.349 . S
C396 C408 1.349 . S
C397 C395 1.327 . S
C397 C413 1.429 . S
C397 H419 0.950 . S
C398 H394 0.949 . S
C398 C406 1.574 . S
C398 C414 1.368 . S
H399 C407 0.950 . S
H400 C405 0.950 . S
H401 C406 0.949 . S
H402 C408 0.950 . S
H403 C409 0.950 . S
H404 C410 0.949 . S
C405 H400 0.950 . S
C405 C407 1.327 . S
C405 C411 1.429 . S
C406 C398 1.574 . S
C406 H401 0.949 . S
C406 C412 1.368 . S
C407 C391 1.349 . S
C407 H399 0.950 . S
C407 C405 1.327 . S
C408 C396 1.349 . S
C408 H402 0.950 . S
C408 C409 1.327 . S
C409 H403 0.950 . S
C409 C408 1.327 . S
C409 C413 1.429 . S
C410 C393 1.574 . S
C410 H404 0.949 . S
C410 C414 1.368 . S
C411 C392 1.429 . S
C411 C405 1.429 . S
C411 C412 1.523 . S
C412 C393 1.368 . S
C412 C406 1.368 . S
C412 C411 1.523 . S
C413 C397 1.429 . S
C413 C409 1.429 . S
C413 C414 1.523 . S
C414 C398 1.368 . S
C414 C410 1.368 . S
C414 C413 1.523 . S
H415 C390 0.950 1_554 S
H416 C392 0.950 . S
H417 C393 0.949 . S
H418 C395 0.950 . S
H419 C397 0.950 . S
C420 C421 1.349 . S
C420 C422 1.327 . S
C420 H445 0.950 1_565 S
C421 C420 1.349 . S
C421 C437 1.349 . S
C422 C420 1.327 . S
C422 C441 1.429 . S
C422 H446 0.950 . S
C423 C440 1.574 . S
C423 C442 1.368 . S
C423 H447 0.949 . S
H424 C428 0.949 . S
C425 C426 1.349 . S
C425 C427 1.327 . S
C425 H448 0.950 . S
C426 C425 1.349 . S
C426 C438 1.349 . S
C427 C425 1.327 . S
C427 C443 1.429 . S
C427 H449 0.950 . S
C428 H424 0.949 . S
C428 C436 1.574 . S
C428 C444 1.368 . S
H429 C437 0.950 . S
H430 C435 0.950 . S
H431 C436 0.949 . S
H432 C438 0.950 . S
H433 C439 0.950 . S
H434 C440 0.949 . S
C435 H430 0.950 . S
C435 C437 1.327 . S
C435 C441 1.429 . S
C436 C428 1.574 . S
C436 H431 0.949 . S
C436 C442 1.368 . S
C437 C421 1.349 . S
C437 H429 0.950 . S
C437 C435 1.327 . S
C438 C426 1.349 . S
C438 H432 0.950 . S
C438 C439 1.327 . S
C439 H433 0.950 . S
C439 C438 1.327 . S
C439 C443 1.429 . S
C440 C423 1.574 . S
C440 H434 0.949 . S
C440 C444 1.368 . S
C441 C422 1.429 . S
C441 C435 1.429 . S
C441 C442 1.523 . S
C442 C423 1.368 . S
C442 C436 1.368 . S
C442 C441 1.523 . S
C443 C427 1.429 . S
C443 C439 1.429 . S
C443 C444 1.523 . S
C444 C428 1.368 . S
C444 C440 1.368 . S
C444 C443 1.523 . S
H445 C420 0.950 1_545 S
H446 C422 0.950 . S
H447 C423 0.949 . S
H448 C425 0.950 . S
H449 C427 0.950 . S
C450 C451 1.349 . S
C450 C452 1.327 . S
C450 H475 0.950 . S
C451 C450 1.349 . S
C451 C467 1.349 . S
C452 C450 1.327 . S
C452 C471 1.429 . S
C452 H476 0.950 . S
C453 C470 1.574 . S
C453 C472 1.368 . S
C453 H477 0.949 . S
H454 C458 0.949 . S
C455 C456 1.349 . S
C455 C457 1.327 . S
C455 H478 0.950 1_554 S
C456 C455 1.349 . S
C456 C468 1.349 . S
C457 C455 1.327 . S
C457 C473 1.429 . S
C457 H479 0.950 . S
C458 H454 0.949 . S
C458 C466 1.574 . S
C458 C474 1.368 . S
H459 C467 0.950 . S
H460 C465 0.950 . S
H461 C466 0.949 . S
H462 C468 0.950 . S
H463 C469 0.950 . S
H464 C470 0.949 . S
C465 H460 0.950 . S
C465 C467 1.327 . S
C465 C471 1.429 . S
C466 C458 1.574 . S
C466 H461 0.949 . S
C466 C472 1.368 . S
C467 C451 1.349 . S
C467 H459 0.950 . S
C467 C465 1.327 . S
C468 C456 1.349 . S
C468 H462 0.950 . S
C468 C469 1.327 . S
C469 H463 0.950 . S
C469 C468 1.327 . S
C469 C473 1.429 . S
C470 C453 1.574 . S
C470 H464 0.949 . S
C470 C474 1.368 . S
C471 C452 1.429 . S
C471 C465 1.429 . S
C471 C472 1.523 . S
C472 C453 1.368 . S
C472 C466 1.368 . S
C472 C471 1.523 . S
C473 C457 1.429 . S
C473 C469 1.429 . S
C473 C474 1.523 . S
C474 C458 1.368 . S
C474 C470 1.368 . S
C474 C473 1.523 . S
H475 C450 0.950 . S
H476 C452 0.950 . S
H477 C453 0.949 . S
H478 C455 0.950 1_556 S
H479 C457 0.950 . S
C480 C481 1.349 . S
C480 C482 1.327 . S
C480 H505 0.950 . S
C481 C480 1.349 . S
C481 C497 1.349 . S
C482 C480 1.327 . S
C482 C501 1.429 . S
C482 H506 0.950 . S
C483 C500 1.574 . S
C483 C502 1.368 . S
C483 H507 0.949 . S
H484 C488 0.949 . S
C485 C486 1.349 . S
C485 C487 1.327 . S
C485 H508 0.950 . S
C486 C485 1.349 . S
C486 C498 1.349 . S
C487 C485 1.327 . S
C487 C503 1.429 . S
C487 H509 0.950 . S
C488 H484 0.949 . S
C488 C496 1.574 . S
C488 C504 1.368 . S
H489 C497 0.950 . S
H490 C495 0.950 . S
H491 C496 0.949 . S
H492 C498 0.950 1_556 S
H493 C499 0.950 . S
H494 C500 0.949 . S
C495 H490 0.950 . S
C495 C497 1.327 . S
C495 C501 1.429 . S
C496 C488 1.574 . S
C496 H491 0.949 . S
C496 C502 1.368 . S
C497 C481 1.349 . S
C497 H489 0.950 . S
C497 C495 1.327 . S
C498 C486 1.349 . S
C498 H492 0.950 1_554 S
C498 C499 1.327 . S
C499 H493 0.950 . S
C499 C498 1.327 . S
C499 C503 1.429 . S
C500 C483 1.574 . S
C500 H494 0.949 . S
C500 C504 1.368 . S
C501 C482 1.429 . S
C501 C495 1.429 . S
C501 C502 1.523 . S
C502 C483 1.368 . S
C502 C496 1.368 . S
C502 C501 1.523 . S
C503 C487 1.429 . S
C503 C499 1.429 . S
C503 C504 1.523 . S
C504 C488 1.368 . S
C504 C500 1.368 . S
C504 C503 1.523 . S
H505 C480 0.950 . S
H506 C482 0.950 . S
H507 C483 0.949 . S
H508 C485 0.950 . S
H509 C487 0.950 . S
C510 C511 1.349 . S
C510 C512 1.327 . S
C510 H535 0.950 1_554 S
C511 C510 1.349 . S
C511 C527 1.349 . S
C512 C510 1.327 . S
C512 C531 1.429 . S
C512 H536 0.950 . S
C513 C530 1.574 . S
C513 C532 1.368 . S
C513 H537 0.949 . S
H514 C518 0.949 . S
C515 C516 1.349 . S
C515 C517 1.327 . S
C515 H538 0.950 . S
C516 C515 1.349 . S
C516 C528 1.349 . S
C517 C515 1.327 . S
C517 C533 1.429 . S
C517 H539 0.950 . S
C518 H514 0.949 . S
C518 C526 1.574 . S
C518 C534 1.368 . S
H519 C527 0.950 . S
H520 C525 0.950 . S
H521 C526 0.949 . S
H522 C528 0.950 . S
H523 C529 0.950 . S
H524 C530 0.949 . S
C525 H520 0.950 . S
C525 C527 1.327 . S
C525 C531 1.429 . S
C526 C518 1.574 . S
C526 H521 0.949 . S
C526 C532 1.368 . S
C527 C511 1.349 . S
C527 H519 0.950 . S
C527 C525 1.327 . S
C528 C516 1.349 . S
C528 H522 0.950 . S
C528 C529 1.327 . S
C529 H523 0.950 . S
C529 C528 1.327 . S
C529 C533 1.429 . S
C530 C513 1.574 . S
C530 H524 0.949 . S
C530 C534 1.368 . S
C531 C512 1.429 . S
C531 C525 1.429 . S
C531 C532 1.523 . S
C532 C513 1.368 . S
C532 C526 1.368 . S
C532 C531 1.523 . S
C533 C517 1.429 . S
C533 C529 1.429 . S
C533 C534 1.523 . S
C534 C518 1.368 . S
C534 C530 1.368 . S
C534 C533 1.523 . S
H535 C510 0.950 1_556 S
H536 C512 0.950 . S
H537 C513 0.949 . S
H538 C515 0.950 . S
H539 C517 0.950 . S
C540 C541 1.349 . S
C540 C542 1.327 . S
C540 H565 0.950 . S
C541 C540 1.349 . S
C541 C557 1.349 . S
C542 C540 1.327 . S
C542 C561 1.429 . S
C542 H566 0.950 . S
C543 C560 1.574 . S
C543 C562 1.368 . S
C543 H567 0.949 . S
H544 C548 0.949 . S
C545 C546 1.349 . S
C545 C547 1.275 1_655 S
C545 H568 0.950 . S
C546 C545 1.349 . S
C546 C558 1.349 . S
C547 C545 1.275 1_455 S
C547 C563 1.493 . S
C547 H569 0.940 . S
C548 H544 0.949 . S
C548 C556 1.574 . S
C548 C564 1.368 . S
H549 C557 0.950 . S
H550 C555 0.950 . S
H551 C556 0.949 . S
H552 C558 0.950 . S
H553 C559 0.950 . S
H554 C560 0.949 . S
C555 H550 0.950 . S
C555 C557 1.327 . S
C555 C561 1.429 . S
C556 C548 1.574 . S
C556 H551 0.949 . S
C556 C562 1.368 . S
C557 C541 1.349 . S
C557 H549 0.950 . S
C557 C555 1.327 . S
C558 C546 1.349 . S
C558 H552 0.950 . S
C558 C559 1.327 1_655 S
C559 H553 0.950 . S
C559 C558 1.327 1_455 S
C559 C563 1.429 . S
C560 C543 1.574 . S
C560 H554 0.949 . S
C560 C564 1.368 . S
C561 C542 1.429 . S
C561 C555 1.429 . S
C561 C562 1.523 . S
C562 C543 1.368 . S
C562 C556 1.368 . S
C562 C561 1.523 . S
C563 C547 1.493 . S
C563 C559 1.429 . S
C563 C564 1.523 . S
C564 C548 1.368 . S
C564 C560 1.368 . S
C564 C563 1.523 . S
H565 C540 0.950 . S
H566 C542 0.950 . S
H567 C543 0.949 . S
H568 C545 0.950 . S
H569 C547 0.940 . S
C570 C571 1.349 . S
C570 C572 1.327 . S
C570 H595 0.950 . S
C571 C570 1.349 . S
C571 C587 1.349 . S
C572 C570 1.327 . S
C572 C591 1.429 . S
C572 H596 0.950 . S
C573 C590 1.574 . S
C573 C592 1.368 . S
C573 H597 0.949 . S
H574 C578 0.949 . S
C575 C576 1.349 . S
C575 C577 1.327 . S
C575 H598 0.950 . S
C576 C575 1.349 . S
C576 C588 1.349 . S
C577 C575 1.327 . S
C577 C593 1.429 . S
C577 H599 0.950 . S
C578 H574 0.949 . S
C578 C586 1.574 . S
C578 C594 1.368 . S
H579 C587 0.950 . S
H580 C585 0.950 . S
H581 C586 0.949 . S
H582 C588 0.950 . S
H583 C589 0.950 . S
H584 C590 0.949 . S
C585 H580 0.950 . S
C585 C587 1.327 . S
C585 C591 1.429 . S
C586 C578 1.574 . S
C586 H581 0.949 . S
C586 C592 1.368 . S
C587 C571 1.349 . S
C587 H579 0.950 . S
C587 C585 1.327 . S
C588 C576 1.349 . S
C588 H582 0.950 . S
C588 C589 1.327 . S
C589 H583 0.950 . S
C589 C588 1.327 . S
C589 C593 1.429 . S
C590 C573 1.574 . S
C590 H584 0.949 . S
C590 C594 1.368 . S
C591 C572 1.429 . S
C591 C585 1.429 . S
C591 C592 1.523 . S
C592 C573 1.368 . S
C592 C586 1.368 . S
C592 C591 1.523 . S
C593 C577 1.429 . S
C593 C589 1.429 . S
C593 C594 1.523 . S
C594 C578 1.368 . S
C594 C590 1.368 . S
C594 C593 1.523 . S
H595 C570 0.950 . S
H596 C572 0.950 . S
H597 C573 0.949 . S
H598 C575 0.950 . S
H599 C577 0.950 . S
C600 C601 1.349 . S
C600 C602 1.327 . S
C600 H625 0.950 . S
C601 C600 1.349 . S
C601 C617 1.349 . S
C602 C600 1.327 . S
C602 C621 1.429 . S
C602 H626 0.950 . S
C603 C620 1.574 . S
C603 C622 1.368 . S
C603 H627 0.949 . S
H604 C608 0.949 . S
C605 C606 1.349 . S
C605 C607 1.327 . S
C605 H628 0.950 . S
C606 C605 1.349 . S
C606 C618 1.349 . S
C607 C605 1.327 . S
C607 C623 1.429 . S
C607 H629 0.950 . S
C608 H604 0.949 . S
C608 C616 1.574 . S
C608 C624 1.368 . S
H609 C617 0.950 . S
H610 C615 0.950 . S
H611 C616 0.949 . S
H612 C618 0.950 . S
H613 C619 0.950 . S
H614 C620 0.949 . S
C615 H610 0.950 . S
C615 C617 1.327 . S
C615 C621 1.429 . S
C616 C608 1.574 . S
C616 H611 0.949 . S
C616 C622 1.368 . S
C617 C601 1.349 . S
C617 H609 0.950 . S
C617 C615 1.327 . S
C618 C606 1.349 . S
C618 H612 0.950 . S
C618 C619 1.327 . S
C619 H613 0.950 . S
C619 C618 1.327 . S
C619 C623 1.429 . S
C620 C603 1.574 . S
C620 H614 0.949 . S
C620 C624 1.368 . S
C621 C602 1.429 . S
C621 C615 1.429 . S
C621 C622 1.523 1_545 S
C622 C603 1.368 . S
C622 C616 1.368 . S
C622 C621 1.523 1_565 S
C623 C607 1.429 . S
C623 C619 1.429 . S
C623 C624 1.523 . S
C624 C608 1.368 . S
C624 C620 1.368 . S
C624 C623 1.523 . S
H625 C600 0.950 . S
H626 C602 0.950 . S
H627 C603 0.949 . S
H628 C605 0.950 . S
H629 C607 0.950 . S
C630 C631 1.349 . S
C630 C632 1.327 . S
C630 H655 0.950 . S
C631 C630 1.349 . S
C631 C647 1.349 1_554 S
C632 C630 1.327 . S
C632 C651 1.425 1_554 S
C632 H656 0.950 . S
C633 C650 1.574 . S
C633 C652 1.368 . S
C633 H657 0.949 . S
H634 C638 0.949 . S
C635 C636 1.349 . S
C635 C637 1.327 . S
C635 H658 0.950 . S
C636 C635 1.349 . S
C636 C648 1.349 1_556 S
C637 C635 1.327 . S
C637 C653 1.429 . S
C637 H659 0.950 . S
C638 H634 0.949 . S
C638 C646 1.574 . S
C638 C654 1.368 1_554 S
H639 C647 0.950 . S
H640 C645 0.950 . S
H641 C646 0.949 . S
H642 C648 0.950 . S
H643 C649 0.950 . S
H644 C650 0.949 . S
C645 H640 0.950 . S
C645 C647 1.327 . S
C645 C651 1.432 . S
C646 C638 1.574 . S
C646 H641 0.949 . S
C646 C652 1.368 1_554 S
C647 C631 1.349 1_556 S
C647 H639 0.950 . S
C647 C645 1.327 . S
C648 C636 1.349 1_554 S
C648 H642 0.950 . S
C648 C649 1.327 . S
C649 H643 0.950 . S
C649 C648 1.327 . S
C649 C653 1.429 1_554 S
C650 C633 1.574 . S
C650 H644 0.949 . S
C650 C654 1.368 . S
C651 C632 1.425 1_556 S
C651 C645 1.432 . S
C651 C652 1.523 . S
C652 C633 1.368 . S
C652 C646 1.368 1_556 S
C652 C651 1.523 . S
C653 C637 1.429 . S
C653 C649 1.429 1_556 S
C653 C654 1.523 . S
C654 C638 1.368 1_556 S
C654 C650 1.368 . S
C654 C653 1.523 . S
H655 C630 0.950 . S
H656 C632 0.950 . S
H657 C633 0.949 . S
H658 C635 0.950 . S
H659 C637 0.950 . S
C660 C661 1.349 . S
C660 C662 1.327 1_565 S
C660 H685 0.950 . S
C661 C660 1.349 . S
C661 C677 1.349 1_556 S
C662 C660 1.327 1_545 S
C662 C681 1.429 . S
C662 H686 0.950 . S
C663 C680 1.574 . S
C663 C682 1.368 1_554 S
C663 H687 0.949 . S
H664 C668 0.949 . S
C665 C666 1.349 . S
C665 C667 1.327 . S
C665 H688 0.950 . S
C666 C665 1.349 . S
C666 C678 1.349 1_554 S
C667 C665 1.327 . S
C667 C683 1.423 1_554 S
C667 H689 0.950 . S
C668 H664 0.949 . S
C668 C676 1.574 . S
C668 C684 1.368 . S
H669 C677 0.950 . S
H670 C675 0.962 . S
H671 C676 0.949 . S
H672 C678 0.950 . S
H673 C679 0.950 . S
H674 C680 0.949 . S
C675 H670 0.962 . S
C675 C677 1.265 1_545 S
C675 C681 1.483 1_554 S
C676 C668 1.574 . S
C676 H671 0.949 . S
C676 C682 1.368 . S
C677 C661 1.349 1_554 S
C677 H669 0.950 . S
C677 C675 1.265 1_565 S
C678 C666 1.349 1_556 S
C678 H672 0.950 . S
C678 C679 1.327 . S
C679 H673 0.950 . S
C679 C678 1.327 . S
C679 C683 1.433 . S
C680 C663 1.574 . S
C680 H674 0.949 . S
C680 C684 1.368 1_554 S
C681 C662 1.429 . S
C681 C675 1.483 1_556 S
C681 C682 1.523 . S
C682 C663 1.368 1_556 S
C682 C676 1.368 . S
C682 C681 1.523 . S
C683 C667 1.423 1_556 S
C683 C679 1.433 . S
C683 C684 1.523 . S
C684 C668 1.368 . S
C684 C680 1.368 1_556 S
C684 C683 1.523 . S
H685 C660 0.950 . S
H686 C662 0.950 . S
H687 C663 0.949 . S
H688 C665 0.950 . S
H689 C667 0.950 . S
C690 C691 1.349 . S
C690 C692 1.327 . S
C690 H715 0.950 . S
C691 C690 1.349 . S
C691 C707 1.349 . S
C692 C690 1.327 . S
C692 C711 1.428 1_554 S
C692 H716 0.950 . S
C693 C710 1.574 . S
C693 C712 1.368 . S
C693 H717 0.949 . S
H694 C698 0.949 . S
C695 C696 1.349 . S
C695 C697 1.327 . S
C695 H718 0.950 . S
C696 C695 1.349 . S
C696 C708 1.349 . S
C697 C695 1.327 . S
C697 C713 1.429 . S
C697 H719 0.950 . S
C698 H694 0.949 . S
C698 C706 1.574 . S
C698 C714 1.368 . S
H699 C707 0.950 . S
H700 C705 0.950 . S
H701 C706 0.949 . S
H702 C708 0.950 . S
H703 C709 0.950 . S
H704 C710 0.949 . S
C705 H700 0.950 . S
C705 C707 1.327 1_556 S
C705 C711 1.429 . S
C706 C698 1.574 . S
C706 H701 0.949 . S
C706 C712 1.368 . S
C707 C691 1.349 . S
C707 H699 0.950 . S
C707 C705 1.327 1_554 S
C708 C696 1.349 . S
C708 H702 0.950 . S
C708 C709 1.327 . S
C709 H703 0.950 . S
C709 C708 1.327 . S
C709 C713 1.429 . S
C710 C693 1.574 . S
C710 H704 0.949 . S
C710 C714 1.368 . S
C711 C692 1.428 1_556 S
C711 C705 1.429 . S
C711 C712 1.523 . S
C712 C693 1.368 . S
C712 C706 1.368 . S
C712 C711 1.523 . S
C713 C697 1.429 . S
C713 C709 1.429 . S
C713 C714 1.523 1_455 S
C714 C698 1.368 . S
C714 C710 1.368 . S
C714 C713 1.523 1_655 S
H715 C690 0.950 . S
H716 C692 0.950 . S
H717 C693 0.949 . S
H718 C695 0.950 . S
H719 C697 0.950 . S
C720 C721 1.349 . S
C720 C722 1.327 . S
C720 H745 0.950 . S
C721 C720 1.349 . S
C721 C737 1.349 . S
C722 C720 1.327 . S
C722 C741 1.429 . S
C722 H746 0.950 . S
C723 C740 1.574 . S
C723 C742 1.368 . S
C723 H747 0.949 . S
H724 C728 0.949 . S
C725 C726 1.349 . S
C725 C727 1.327 . S
C725 H748 0.950 . S
C726 C725 1.349 . S
C726 C738 1.349 . S
C727 C725 1.327 . S
C727 C743 1.429 . S
C727 H749 0.950 . S
C728 H724 0.949 . S
C728 C736 1.574 . S
C728 C744 1.368 . S
H729 C737 0.950 . S
H730 C735 0.950 . S
H731 C736 0.949 . S
H732 C738 0.950 . S
H733 C739 0.950 . S
H734 C740 0.949 . S
C735 H730 0.950 . S
C735 C737 1.327 . S
C735 C741 1.429 . S
C736 C728 1.574 . S
C736 H731 0.949 . S
C736 C742 1.368 . S
C737 C721 1.349 . S
C737 H729 0.950 . S
C737 C735 1.327 . S
C738 C726 1.349 . S
C738 H732 0.950 . S
C738 C739 1.327 . S
C739 H733 0.950 . S
C739 C738 1.327 . S
C739 C743 1.429 . S
C740 C723 1.574 . S
C740 H734 0.949 . S
C740 C744 1.368 . S
C741 C722 1.429 . S
C741 C735 1.429 . S
C741 C742 1.523 . S
C742 C723 1.368 . S
C742 C736 1.368 . S
C742 C741 1.523 . S
C743 C727 1.429 . S
C743 C739 1.429 . S
C743 C744 1.523 . S
C744 C728 1.368 . S
C744 C740 1.368 . S
C744 C743 1.523 . S
H745 C720 0.950 . S
H746 C722 0.950 . S
H747 C723 0.949 . S
H748 C725 0.950 . S
H749 C727 0.950 . S
C750 C751 1.349 . S
C750 C752 1.327 . S
C750 H775 0.950 . S
C751 C750 1.349 . S
C751 C767 1.349 . S
C752 C750 1.327 . S
C752 C771 1.429 . S
C752 H776 0.950 . S
C753 C770 1.574 . S
C753 C772 1.368 . S
C753 H777 0.949 . S
H754 C758 0.949 . S
C755 C756 1.349 . S
C755 C757 1.327 . S
C755 H778 0.950 . S
C756 C755 1.349 . S
C756 C768 1.349 . S
C757 C755 1.327 . S
C757 C773 1.429 . S
C757 H779 0.950 . S
C758 H754 0.949 . S
C758 C766 1.574 . S
C758 C774 1.368 . S
H759 C767 0.950 . S
H760 C765 0.950 . S
H761 C766 0.949 . S
H762 C768 0.950 . S
H763 C769 0.950 . S
H764 C770 0.949 . S
C765 H760 0.950 . S
C765 C767 1.327 . S
C765 C771 1.429 . S
C766 C758 1.574 . S
C766 H761 0.949 . S
C766 C772 1.368 . S
C767 C751 1.349 . S
C767 H759 0.950 . S
C767 C765 1.327 . S
C768 C756 1.349 . S
C768 H762 0.950 . S
C768 C769 1.327 . S
C769 H763 0.950 . S
C769 C768 1.327 . S
C769 C773 1.429 . S
C770 C753 1.574 . S
C770 H764 0.949 . S
C770 C774 1.368 . S
C771 C752 1.429 . S
C771 C765 1.429 . S
C771 C772 1.523 . S
C772 C753 1.368 . S
C772 C766 1.368 . S
C772 C771 1.523 . S
C773 C757 1.429 . S
C773 C769 1.429 . S
C773 C774 1.523 . S
C774 C758 1.368 . S
C774 C770 1.368 . S
C774 C773 1.523 . S
H775 C750 0.950 . S
H776 C752 0.950 . S
H777 C753 0.949 . S
H778 C755 0.950 . S
H779 C757 0.950 . S
C780 C781 1.349 . S
C780 C782 1.327 . S
C780 H805 0.950 . S
C781 C780 1.349 . S
C781 C797 1.349 . S
C782 C780 1.327 . S
C782 C801 1.429 . S
C782 H806 0.950 . S
C783 C800 1.574 . S
C783 C802 1.368 . S
C783 H807 0.949 . S
H784 C788 0.949 . S
C785 C786 1.349 . S
C785 C787 1.327 . S
C785 H808 0.950 . S
C786 C785 1.349 . S
C786 C798 1.349 . S
C787 C785 1.327 . S
C787 C803 1.429 . S
C787 H809 0.950 . S
C788 H784 0.949 . S
C788 C796 1.574 . S
C788 C804 1.368 . S
H789 C797 0.950 . S
H790 C795 0.950 . S
H791 C796 0.949 . S
H792 C798 0.950 . S
H793 C799 0.950 . S
H794 C800 0.949 . S
C795 H790 0.950 . S
C795 C797 1.327 . S
C795 C801 1.429 . S
C796 C788 1.574 . S
C796 H791 0.949 . S
C796 C802 1.368 . S
C797 C781 1.349 . S
C797 H789 0.950 . S
C797 C795 1.327 . S
C798 C786 1.349 . S
C798 H792 0.950 . S
C798 C799 1.327 . S
C799 H793 0.950 . S
C799 C798 1.327 . S
C799 C803 1.429 . S
C800 C783 1.574 . S
C800 H794 0.949 . S
C800 C804 1.368 . S
C801 C782 1.429 . S
C801 C795 1.429 . S
C801 C802 1.523 . S
C802 C783 1.368 . S
C802 C796 1.368 . S
C802 C801 1.523 . S
C803 C787 1.429 . S
C803 C799 1.429 . S
C803 C804 1.523 . S
C804 C788 1.368 . S
C804 C800 1.368 . S
C804 C803 1.523 . S
H805 C780 0.950 . S
H806 C782 0.950 . S
H807 C783 0.949 . S
H808 C785 0.950 . S
H809 C787 0.950 . S
C810 C811 1.349 . S
C810 C812 1.327 . S
C810 H835 0.950 . S
C811 C810 1.349 . S
C811 C827 1.349 . S
C812 C810 1.327 . S
C812 C831 1.429 . S
C812 H836 0.950 . S
C813 C830 1.574 . S
C813 C832 1.368 . S
C813 H837 0.949 . S
H814 C818 0.949 . S
C815 C816 1.349 . S
C815 C817 1.327 . S
C815 H838 0.950 . S
C816 C815 1.349 . S
C816 C828 1.349 . S
C817 C815 1.327 . S
C817 C833 1.429 . S
C817 H839 0.950 . S
C818 H814 0.949 . S
C818 C826 1.574 . S
C818 C834 1.368 . S
H819 C827 0.950 . S
H820 C825 0.950 . S
H821 C826 0.949 . S
H822 C828 0.950 . S
H823 C829 0.950 . S
H824 C830 0.949 . S
C825 H820 0.950 . S
C825 C827 1.327 . S
C825 C831 1.429 . S
C826 C818 1.574 . S
C826 H821 0.949 . S
C826 C832 1.368 . S
C827 C811 1.349 . S
C827 H819 0.950 . S
C827 C825 1.327 . S
C828 C816 1.349 . S
C828 H822 0.950 . S
C828 C829 1.327 . S
C829 H823 0.950 . S
C829 C828 1.327 . S
C829 C833 1.429 . S
C830 C813 1.574 . S
C830 H824 0.949 . S
C830 C834 1.368 . S
C831 C812 1.429 . S
C831 C825 1.429 . S
C831 C832 1.523 . S
C832 C813 1.368 . S
C832 C826 1.368 . S
C832 C831 1.523 . S
C833 C817 1.429 . S
C833 C829 1.429 . S
C833 C834 1.523 . S
C834 C818 1.368 . S
C834 C830 1.368 . S
C834 C833 1.523 . S
H835 C810 0.950 . S
H836 C812 0.950 . S
H837 C813 0.949 . S
H838 C815 0.950 . S
H839 C817 0.950 . S
C840 C841 1.349 . S
C840 C842 1.327 . S
C840 H865 0.950 . S
C841 C840 1.349 . S
C841 C857 1.349 . S
C842 C840 1.327 . S
C842 C861 1.429 . S
C842 H866 0.950 . S
C843 C860 1.574 . S
C843 C862 1.368 . S
C843 H867 0.949 . S
H844 C848 0.949 . S
C845 C846 1.349 . S
C845 C847 1.327 . S
C845 H868 0.950 . S
C846 C845 1.349 . S
C846 C858 1.349 . S
C847 C845 1.327 . S
C847 C863 1.429 . S
C847 H869 0.950 . S
C848 H844 0.949 . S
C848 C856 1.574 . S
C848 C864 1.368 . S
H849 C857 0.950 . S
H850 C855 0.950 . S
H851 C856 0.949 . S
H852 C858 0.950 . S
H853 C859 0.950 . S
H854 C860 0.949 . S
C855 H850 0.950 . S
C855 C857 1.327 . S
C855 C861 1.429 . S
C856 C848 1.574 . S
C856 H851 0.949 . S
C856 C862 1.368 . S
C857 C841 1.349 . S
C857 H849 0.950 . S
C857 C855 1.327 . S
C858 C846 1.349 . S
C858 H852 0.950 . S
C858 C859 1.327 . S
C859 H853 0.950 . S
C859 C858 1.327 . S
C859 C863 1.429 . S
C860 C843 1.574 . S
C860 H854 0.949 . S
C860 C864 1.368 . S
C861 C842 1.429 . S
C861 C855 1.429 . S
C861 C862 1.523 . S
C862 C843 1.368 . S
C862 C856 1.368 . S
C862 C861 1.523 . S
C863 C847 1.429 . S
C863 C859 1.429 . S
C863 C864 1.523 . S
C864 C848 1.368 . S
C864 C860 1.368 . S
C864 C863 1.523 . S
H865 C840 0.950 . S
H866 C842 0.950 . S
H867 C843 0.949 . S
H868 C845 0.950 . S
H869 C847 0.950 . S
C870 C871 1.349 . S
C870 C872 1.327 . S
C870 H895 0.950 . S
C871 C870 1.349 . S
C871 C887 1.349 . S
C872 C870 1.327 . S
C872 C891 1.429 . S
C872 H896 0.950 . S
C873 C890 1.574 . S
C873 C892 1.368 . S
C873 H897 0.949 . S
H874 C878 0.949 . S
C875 C876 1.349 . S
C875 C877 1.327 . S
C875 H898 0.950 . S
C876 C875 1.349 . S
C876 C888 1.349 . S
C877 C875 1.327 . S
C877 C893 1.429 . S
C877 H899 0.950 . S
C878 H874 0.949 . S
C878 C886 1.574 . S
C878 C894 1.368 . S
H879 C887 0.950 . S
H880 C885 0.950 . S
H881 C886 0.949 . S
H882 C888 0.950 . S
H883 C889 0.950 . S
H884 C890 0.949 . S
C885 H880 0.950 . S
C885 C887 1.327 . S
C885 C891 1.429 . S
C886 C878 1.574 . S
C886 H881 0.949 . S
C886 C892 1.368 . S
C887 C871 1.349 . S
C887 H879 0.950 . S
C887 C885 1.327 . S
C888 C876 1.349 . S
C888 H882 0.950 . S
C888 C889 1.327 . S
C889 H883 0.950 . S
C889 C888 1.327 . S
C889 C893 1.429 . S
C890 C873 1.574 . S
C890 H884 0.949 . S
C890 C894 1.368 . S
C891 C872 1.429 . S
C891 C885 1.429 . S
C891 C892 1.523 . S
C892 C873 1.368 . S
C892 C886 1.368 . S
C892 C891 1.523 . S
C893 C877 1.429 . S
C893 C889 1.429 . S
C893 C894 1.523 . S
C894 C878 1.368 . S
C894 C890 1.368 . S
C894 C893 1.523 . S
H895 C870 0.950 . S
H896 C872 0.950 . S
H897 C873 0.949 . S
H898 C875 0.950 . S
H899 C877 0.950 . S
C900 C901 1.349 . S
C900 C902 1.327 . S
C900 H925 0.950 . S
C901 C900 1.349 . S
C901 C917 1.349 1_455 S
C902 C900 1.327 . S
C902 C921 1.429 . S
C902 H926 0.950 . S
C903 C920 1.574 . S
C903 C922 1.368 1_655 S
C903 H927 0.949 . S
H904 C908 0.949 . S
C905 C906 1.349 1_655 S
C905 C907 1.327 . S
C905 H928 0.950 . S
C906 C905 1.349 1_455 S
C906 C918 1.349 . S
C907 C905 1.327 . S
C907 C923 1.429 1_655 S
C907 H929 0.950 . S
C908 H904 0.949 . S
C908 C916 1.574 . S
C908 C924 1.368 . S
H909 C917 0.950 . S
H910 C915 0.950 . S
H911 C916 0.949 . S
H912 C918 0.950 . S
H913 C919 0.950 . S
H914 C920 0.949 . S
C915 H910 0.950 . S
C915 C917 1.327 . S
C915 C921 1.429 1_655 S
C916 C908 1.574 . S
C916 H911 0.949 . S
C916 C922 1.368 . S
C917 C901 1.349 1_655 S
C917 H909 0.950 . S
C917 C915 1.327 . S
C918 C906 1.349 . S
C918 H912 0.950 . S
C918 C919 1.327 . S
C919 H913 0.950 . S
C919 C918 1.327 . S
C919 C923 1.429 . S
C920 C903 1.574 . S
C920 H914 0.949 . S
C920 C924 1.368 1_655 S
C921 C902 1.429 . S
C921 C915 1.429 1_455 S
C921 C922 1.523 . S
C922 C903 1.368 1_455 S
C922 C916 1.368 . S
C922 C921 1.523 . S
C923 C907 1.429 1_455 S
C923 C919 1.429 . S
C923 C924 1.523 . S
C924 C908 1.368 . S
C924 C920 1.368 1_455 S
C924 C923 1.523 . S
H925 C900 0.950 . S
H926 C902 0.950 . S
H927 C903 0.949 . S
H928 C905 0.950 . S
H929 C907 0.950 . S
C930 C931 1.349 . S
C930 C932 1.327 . S
C930 H955 0.950 . S
C931 C930 1.349 . S
C931 C947 1.349 . S
C932 C930 1.327 . S
C932 C951 1.429 . S
C932 H956 0.950 . S
C933 C950 1.574 . S
C933 C952 1.368 . S
C933 H957 0.949 . S
H934 C938 0.949 . S
C935 C936 1.349 . S
C935 C937 1.327 . S
C935 H958 0.950 . S
C936 C935 1.349 . S
C936 C948 1.349 . S
C937 C935 1.327 . S
C937 C953 1.429 . S
C937 H959 0.950 . S
C938 H934 0.949 . S
C938 C946 1.574 . S
C938 C954 1.368 . S
H939 C947 0.950 . S
H940 C945 0.950 . S
H941 C946 0.949 . S
H942 C948 0.950 . S
H943 C949 0.950 . S
H944 C950 0.949 . S
C945 H940 0.950 . S
C945 C947 1.327 . S
C945 C951 1.429 . S
C946 C938 1.574 . S
C946 H941 0.949 . S
C946 C952 1.368 . S
C947 C931 1.349 . S
C947 H939 0.950 . S
C947 C945 1.327 . S
C948 C936 1.349 . S
C948 H942 0.950 . S
C948 C949 1.327 . S
C949 H943 0.950 . S
C949 C948 1.327 . S
C949 C953 1.429 . S
C950 C933 1.574 . S
C950 H944 0.949 . S
C950 C954 1.368 . S
C951 C932 1.429 . S
C951 C945 1.429 . S
C951 C952 1.523 . S
C952 C933 1.368 . S
C952 C946 1.368 . S
C952 C951 1.523 . S
C953 C937 1.429 . S
C953 C949 1.429 . S
C953 C954 1.523 . S
C954 C938 1.368 . S
C954 C950 1.368 . S
C954 C953 1.523 . S
H955 C930 0.950 . S
H956 C932 0.950 . S
H957 C933 0.949 . S
H958 C935 0.950 . S
H959 C937 0.950 . S
C960 C961 1.333 1_565 S
C960 C962 1.329 . S
C960 H985 0.965 . S
C961 C960 1.333 1_545 S
C961 C977 1.349 . S
C962 C960 1.329 . S
C962 C981 1.429 1_565 S
C962 H986 0.950 . S
C963 C980 1.574 . S
C963 C982 1.368 . S
C963 H987 0.949 . S
H964 C968 0.949 . S
C965 C966 1.349 . S
C965 C967 1.327 . S
C965 H988 0.950 . S
C966 C965 1.349 . S
C966 C978 1.349 1_545 S
C967 C965 1.327 . S
C967 C983 1.429 . S
C967 H989 0.950 . S
C968 H964 0.949 . S
C968 C976 1.574 . S
C968 C984 1.368 1_565 S
H969 C977 0.950 . S
H970 C975 0.950 . S
H971 C976 0.949 . S
H972 C978 0.950 . S
H973 C979 0.950 . S
H974 C980 0.949 . S
C975 H970 0.950 . S
C975 C977 1.327 . S
C975 C981 1.429 . S
C976 C968 1.574 . S
C976 H971 0.949 . S
C976 C982 1.368 1_565 S
C977 C961 1.349 . S
C977 H969 0.950 . S
C977 C975 1.327 . S
C978 C966 1.349 1_565 S
C978 H972 0.950 . S
C978 C979 1.327 . S
C979 H973 0.950 . S
C979 C978 1.327 . S
C979 C983 1.429 1_565 S
C980 C963 1.574 . S
C980 H974 0.949 . S
C980 C984 1.368 . S
C981 C962 1.429 1_545 S
C981 C975 1.429 . S
C981 C982 1.523 . S
C982 C963 1.368 . S
C982 C976 1.368 1_545 S
C982 C981 1.523 . S
C983 C967 1.429 . S
C983 C979 1.429 1_545 S
C983 C984 1.523 . S
C984 C968 1.368 1_545 S
C984 C980 1.368 . S
C984 C983 1.523 . S
H985 C960 0.965 . S
H986 C962 0.950 . S
H987 C963 0.949 . S
H988 C965 0.950 . S
H989 C967 0.950 . S
C990 C991 1.349 . S
C990 C992 1.327 . S
C990 H1015 0.950 . S
C991 C990 1.349 . S
C991 C1007 1.349 . S
C992 C990 1.327 . S
C992 C1011 1.429 . S
C992 H1016 0.950 . S
C993 C1010 1.574 . S
C993 C1012 1.368 . S
C993 H1017 0.949 . S
H994 C998 0.949 . S
C995 C996 1.349 . S
C995 C997 1.327 . S
C995 H1018 0.950 . S
C996 C995 1.349 . S
C996 C1008 1.349 . S
C997 C995 1.327 . S
C997 C1013 1.429 1_554 S
C997 H1019 0.950 . S
C998 H994 0.949 . S
C998 C1006 1.574 . S
C998 C1014 1.368 . S
H999 C1007 0.950 . S
H1000 C1005 0.950 . S
H1001 C1006 0.949 . S
H1002 C1008 0.950 . S
H1003 C1009 0.950 . S
H1004 C1010 0.949 . S
C1005 H1000 0.950 . S
C1005 C1007 1.327 . S
C1005 C1011 1.429 . S
C1006 C998 1.574 . S
C1006 H1001 0.949 . S
C1006 C1012 1.368 . S
C1007 C991 1.349 . S
C1007 H999 0.950 . S
C1007 C1005 1.327 . S
C1008 C996 1.349 . S
C1008 H1002 0.950 . S
C1008 C1009 1.327 . S
C1009 H1003 0.950 . S
C1009 C1008 1.327 . S
C1009 C1013 1.429 1_554 S
C1010 C993 1.574 . S
C1010 H1004 0.949 . S
C1010 C1014 1.368 . S
C1011 C992 1.429 . S
C1011 C1005 1.429 . S
C1011 C1012 1.523 . S
C1012 C993 1.368 . S
C1012 C1006 1.368 . S
C1012 C1011 1.523 . S
C1013 C997 1.429 1_556 S
C1013 C1009 1.429 1_556 S
C1013 C1014 1.523 . S
C1014 C998 1.368 . S
C1014 C1010 1.368 . S
C1014 C1013 1.523 . S
H1015 C990 0.950 . S
H1016 C992 0.950 . S
H1017 C993 0.949 . S
H1018 C995 0.950 . S
H1019 C997 0.950 . S
C1020 C1021 1.349 . S
C1020 C1022 1.327 . S
C1020 H1045 0.950 . S
C1021 C1020 1.349 . S
C1021 C1037 1.349 . S
C1022 C1020 1.327 . S
C1022 C1041 1.429 . S
C1022 H1046 0.950 . S
C1023 C1040 1.574 . S
C1023 C1042 1.368 . S
C1023 H1047 0.949 . S
H1024 C1028 0.949 . S
C1025 C1026 1.349 . S
C1025 C1027 1.327 . S
C1025 H1048 0.950 . S
C1026 C1025 1.349 . S
C1026 C1038 1.349 . S
C1027 C1025 1.327 . S
C1027 C1043 1.429 1_554 S
C1027 H1049 0.950 . S
C1028 H1024 0.949 . S
C1028 C1036 1.574 . S
C1028 C1044 1.368 . S
H1029 C1037 0.950 . S
H1030 C1035 0.950 . S
H1031 C1036 0.949 . S
H1032 C1038 0.950 . S
H1033 C1039 0.950 . S
H1034 C1040 0.949 . S
C1035 H1030 0.950 . S
C1035 C1037 1.327 . S
C1035 C1041 1.429 . S
C1036 C1028 1.574 . S
C1036 H1031 0.949 . S
C1036 C1042 1.368 . S
C1037 C1021 1.349 . S
C1037 H1029 0.950 . S
C1037 C1035 1.327 . S
C1038 C1026 1.349 . S
C1038 H1032 0.950 . S
C1038 C1039 1.327 . S
C1039 H1033 0.950 . S
C1039 C1038 1.327 . S
C1039 C1043 1.429 1_554 S
C1040 C1023 1.574 . S
C1040 H1034 0.949 . S
C1040 C1044 1.368 . S
C1041 C1022 1.429 . S
C1041 C1035 1.429 . S
C1041 C1042 1.523 . S
C1042 C1023 1.368 . S
C1042 C1036 1.368 . S
C1042 C1041 1.523 . S
C1043 C1027 1.429 1_556 S
C1043 C1039 1.429 1_556 S
C1043 C1044 1.523 . S
C1044 C1028 1.368 . S
C1044 C1040 1.368 . S
C1044 C1043 1.523 . S
H1045 C1020 0.950 . S
H1046 C1022 0.950 . S
H1047 C1023 0.949 . S
H1048 C1025 0.950 . S
H1049 C1027 0.950 . S
C1050 C1051 1.349 . S
C1050 C1052 1.327 . S
C1050 H1075 0.950 . S
C1051 C1050 1.349 . S
C1051 C1067 1.349 . S
C1052 C1050 1.327 . S
C1052 C1071 1.429 . S
C1052 H1076 0.950 . S
C1053 C1070 1.574 . S
C1053 C1072 1.368 . S
C1053 H1077 0.949 . S
H1054 C1058 0.949 . S
C1055 C1056 1.349 . S
C1055 C1057 1.327 . S
C1055 H1078 0.950 . S
C1056 C1055 1.349 . S
C1056 C1068 1.349 . S
C1057 C1055 1.327 . S
C1057 C1073 1.429 1_554 S
C1057 H1079 0.950 . S
C1058 H1054 0.949 . S
C1058 C1066 1.574 . S
C1058 C1074 1.368 . S
H1059 C1067 0.950 . S
H1060 C1065 0.950 . S
H1061 C1066 0.949 . S
H1062 C1068 0.950 . S
H1063 C1069 0.950 . S
H1064 C1070 0.949 . S
C1065 H1060 0.950 . S
C1065 C1067 1.327 . S
C1065 C1071 1.429 . S
C1066 C1058 1.574 . S
C1066 H1061 0.949 . S
C1066 C1072 1.368 . S
C1067 C1051 1.349 . S
C1067 H1059 0.950 . S
C1067 C1065 1.327 . S
C1068 C1056 1.349 . S
C1068 H1062 0.950 . S
C1068 C1069 1.327 . S
C1069 H1063 0.950 . S
C1069 C1068 1.327 . S
C1069 C1073 1.429 1_554 S
C1070 C1053 1.574 . S
C1070 H1064 0.949 . S
C1070 C1074 1.368 . S
C1071 C1052 1.429 . S
C1071 C1065 1.429 . S
C1071 C1072 1.523 . S
C1072 C1053 1.368 . S
C1072 C1066 1.368 . S
C1072 C1071 1.523 . S
C1073 C1057 1.429 1_556 S
C1073 C1069 1.429 1_556 S
C1073 C1074 1.523 . S
C1074 C1058 1.368 . S
C1074 C1070 1.368 . S
C1074 C1073 1.523 . S
H1075 C1050 0.950 . S
H1076 C1052 0.950 . S
H1077 C1053 0.949 . S
H1078 C1055 0.950 . S
H1079 C1057 0.950 . S
C1080 C1081 1.349 . S
C1080 C1082 1.327 . S
C1080 H1105 0.950 . S
C1081 C1080 1.349 . S
C1081 C1097 1.349 . S
C1082 C1080 1.327 . S
C1082 C1101 1.429 . S
C1082 H1106 0.950 . S
C1083 C1100 1.574 . S
C1083 C1102 1.368 . S
C1083 H1107 0.949 . S
H1084 C1088 0.949 . S
C1085 C1086 1.349 . S
C1085 C1087 1.327 . S
C1085 H1108 0.950 . S
C1086 C1085 1.349 . S
C1086 C1098 1.349 . S
C1087 C1085 1.327 . S
C1087 C1103 1.429 1_556 S
C1087 H1109 0.950 . S
C1088 H1084 0.949 . S
C1088 C1096 1.574 . S
C1088 C1104 1.368 . S
H1089 C1097 0.950 . S
H1090 C1095 0.950 . S
H1091 C1096 0.949 . S
H1092 C1098 0.950 . S
H1093 C1099 0.955 . S
H1094 C1100 0.949 . S
C1095 H1090 0.950 . S
C1095 C1097 1.327 . S
C1095 C1101 1.429 . S
C1096 C1088 1.574 . S
C1096 H1091 0.949 . S
C1096 C1102 1.368 . S
C1097 C1081 1.349 . S
C1097 H1089 0.950 . S
C1097 C1095 1.327 . S
C1098 C1086 1.349 . S
C1098 H1092 0.950 . S
C1098 C1099 1.327 . S
C1099 H1093 0.955 . S
C1099 C1098 1.327 . S
C1099 C1103 1.429 1_556 S
C1100 C1083 1.574 . S
C1100 H1094 0.949 . S
C1100 C1104 1.368 . S
C1101 C1082 1.429 . S
C1101 C1095 1.429 . S
C1101 C1102 1.523 . S
C1102 C1083 1.368 . S
C1102 C1096 1.368 . S
C1102 C1101 1.523 . S
C1103 C1087 1.429 1_554 S
C1103 C1099 1.429 1_554 S
C1103 C1104 1.523 . S
C1104 C1088 1.368 . S
C1104 C1100 1.368 . S
C1104 C1103 1.523 . S
H1105 C1080 0.950 . S
H1106 C1082 0.950 . S
H1107 C1083 0.949 . S
H1108 C1085 0.950 . S
H1109 C1087 0.950 . S
C1110 C1111 1.349 . S
C1110 C1112 1.327 . S
C1110 H1135 0.950 . S
C1111 C1110 1.349 . S
C1111 C1127 1.349 . S
C1112 C1110 1.327 . S
C1112 C1131 1.429 1_556 S
C1112 H1136 0.950 . S
C1113 C1130 1.574 . S
C1113 C1132 1.368 . S
C1113 H1137 0.949 . S
H1114 C1118 0.949 . S
C1115 C1116 1.349 . S
C1115 C1117 1.327 . S
C1115 H1138 0.950 . S
C1116 C1115 1.349 . S
C1116 C1128 1.349 . S
C1117 C1115 1.327 . S
C1117 C1133 1.429 . S
C1117 H1139 0.950 . S
C1118 H1114 0.949 . S
C1118 C1126 1.574 . S
C1118 C1134 1.368 . S
H1119 C1127 0.950 . S
H1120 C1125 0.950 . S
H1121 C1126 0.949 . S
H1122 C1128 0.950 . S
H1123 C1129 0.950 . S
H1124 C1130 0.949 . S
C1125 H1120 0.950 . S
C1125 C1127 1.327 . S
C1125 C1131 1.429 1_556 S
C1126 C1118 1.574 . S
C1126 H1121 0.949 . S
C1126 C1132 1.368 . S
C1127 C1111 1.349 . S
C1127 H1119 0.950 . S
C1127 C1125 1.327 . S
C1128 C1116 1.349 . S
C1128 H1122 0.950 . S
C1128 C1129 1.327 . S
C1129 H1123 0.950 . S
C1129 C1128 1.327 . S
C1129 C1133 1.429 . S
C1130 C1113 1.574 . S
C1130 H1124 0.949 . S
C1130 C1134 1.368 . S
C1131 C1112 1.429 1_554 S
C1131 C1125 1.429 1_554 S
C1131 C1132 1.523 . S
C1132 C1113 1.368 . S
C1132 C1126 1.368 . S
C1132 C1131 1.523 . S
C1133 C1117 1.429 . S
C1133 C1129 1.429 . S
C1133 C1134 1.523 . S
C1134 C1118 1.368 . S
C1134 C1130 1.368 . S
C1134 C1133 1.523 . S
H1135 C1110 0.950 . S
H1136 C1112 0.950 . S
H1137 C1113 0.949 . S
H1138 C1115 0.950 . S
H1139 C1117 0.950 . S
C1140 C1141 1.349 . S
C1140 C1142 1.327 . S
C1140 H1165 0.950 . S
C1141 C1140 1.349 . S
C1141 C1157 1.349 . S
C1142 C1140 1.327 . S
C1142 C1161 1.429 . S
C1142 H1166 0.950 . S
C1143 C1160 1.574 . S
C1143 C1162 1.368 . S
C1143 H1167 0.949 . S
H1144 C1148 0.949 . S
C1145 C1146 1.349 . S
C1145 C1147 1.327 . S
C1145 H1168 0.950 . S
C1146 C1145 1.349 . S
C1146 C1158 1.349 . S
C1147 C1145 1.327 . S
C1147 C1163 1.429 1_556 S
C1147 H1169 0.950 . S
C1148 H1144 0.949 . S
C1148 C1156 1.574 . S
C1148 C1164 1.368 . S
H1149 C1157 0.950 . S
H1150 C1155 0.950 . S
H1151 C1156 0.949 . S
H1152 C1158 0.950 . S
H1153 C1159 0.950 . S
H1154 C1160 0.949 . S
C1155 H1150 0.950 . S
C1155 C1157 1.327 . S
C1155 C1161 1.429 . S
C1156 C1148 1.574 . S
C1156 H1151 0.949 . S
C1156 C1162 1.368 . S
C1157 C1141 1.349 . S
C1157 H1149 0.950 . S
C1157 C1155 1.327 . S
C1158 C1146 1.349 . S
C1158 H1152 0.950 . S
C1158 C1159 1.327 . S
C1159 H1153 0.950 . S
C1159 C1158 1.327 . S
C1159 C1163 1.429 1_556 S
C1160 C1143 1.574 . S
C1160 H1154 0.949 . S
C1160 C1164 1.368 . S
C1161 C1142 1.429 . S
C1161 C1155 1.429 . S
C1161 C1162 1.523 . S
C1162 C1143 1.368 . S
C1162 C1156 1.368 . S
C1162 C1161 1.523 . S
C1163 C1147 1.429 1_554 S
C1163 C1159 1.429 1_554 S
C1163 C1164 1.523 . S
C1164 C1148 1.368 . S
C1164 C1160 1.368 . S
C1164 C1163 1.523 . S
H1165 C1140 0.950 . S
H1166 C1142 0.950 . S
H1167 C1143 0.949 . S
H1168 C1145 0.950 . S
H1169 C1147 0.950 . S
C361 C10 1.915 . S
C366 C286 1.964 . S
C391 C50 1.915 . S
C396 C326 1.964 . S
C421 C90 1.915 . S
C426 C246 1.964 . S
C451 C170 1.915 . S
C456 C86 1.964 . S
C481 C210 1.915 . S
C486 C6 1.965 . S
C511 C46 1.964 . S
C516 C130 1.915 . S
C541 C290 1.915 . S
C546 C206 1.964 . S
C571 C330 1.915 . S
C576 C126 1.964 . S
C601 C166 1.964 . S
C606 C250 1.915 . S
C631 C99 1.764 . S
C636 C15 1.756 . S
C661 C55 1.756 . S
C666 C19 1.764 . S
C691 C59 1.763 . S
C696 C95 1.756 . S
C721 C135 1.756 . S
C726 C219 1.764 . S
C751 C139 1.764 . S
C756 C175 1.756 . S
C781 C179 1.764 . S
C786 C215 1.756 . S
C811 C339 1.764 . S
C816 C255 1.756 . S
C841 C295 1.756 . S
C846 C259 1.764 . S
C871 C335 1.756 . S
C876 C299 1.763 . S
C901 C9 0.920 . S
C906 C18 0.920 . S
C931 C49 0.920 . S
C936 C58 0.920 . S
C961 C89 0.920 . S
C966 C98 0.920 . S
C991 C138 0.920 . S
C996 C129 0.920 . S
C1021 C178 0.920 . S
C1026 C169 0.920 . S
C1051 C218 0.920 . S
C1056 C209 0.920 . S
C1081 C249 0.920 . S
C1086 C258 0.920 . S
C1111 C298 0.920 . S
C1116 C289 0.920 . S
C1141 C329 0.920 . S
C1146 C338 0.920 . S
