# Generated by pormake.
# Topology swi, (7)-cn, num edge types: 1
# Building blocks:
#     Node 0, Type 0, BuildingBlock: HICVOG_clean_sbu_0, # of connection points: 7
#     Node 1, Type 0, BuildingBlock: HICVOG_clean_sbu_0, # of connection points: 7
#     Node 2, Type 0, BuildingBlock: HICVOG_clean_sbu_0, # of connection points: 7
#     Node 3, Type 0, BuildingBlock: HICVOG_clean_sbu_0, # of connection points: 7
#     Node 4, Type 0, BuildingBlock: HICVOG_clean_sbu_0, # of connection points: 7
#     Node 5, Type 0, BuildingBlock: HICVOG_clean_sbu_0, # of connection points: 7
#     Node 6, Type 0, BuildingBlock: HICVOG_clean_sbu_0, # of connection points: 7
#     Node 7, Type 0, BuildingBlock: HICVOG_clean_sbu_0, # of connection points: 7
#     Node 8, Type 0, BuildingBlock: HICVOG_clean_sbu_0, # of connection points: 7
#     Node 9, Type 0, BuildingBlock: HICVOG_clean_sbu_0, # of connection points: 7
#     Node 10, Type 0, BuildingBlock: HICVOG_clean_sbu_0, # of connection points: 7
#     Node 11, Type 0, BuildingBlock: HICVOG_clean_sbu_0, # of connection points: 7
#     Edge 12, Type (0, 0), BuildingBlock: CIFDUS_clean_linker_0, # of connection points: 2
#     Edge 13, Type (0, 0), BuildingBlock: CIFDUS_clean_linker_0, # of connection points: 2
#     Edge 14, Type (0, 0), BuildingBlock: CIFDUS_clean_linker_0, # of connection points: 2
#     Edge 15, Type (0, 0), BuildingBlock: CIFDUS_clean_linker_0, # of connection points: 2
#     Edge 16, Type (0, 0), BuildingBlock: CIFDUS_clean_linker_0, # of connection points: 2
#     Edge 17, Type (0, 0), BuildingBlock: CIFDUS_clean_linker_0, # of connection points: 2
#     Edge 18, Type (0, 0), BuildingBlock: CIFDUS_clean_linker_0, # of connection points: 2
#     Edge 19, Type (0, 0), BuildingBlock: CIFDUS_clean_linker_0, # of connection points: 2
#     Edge 20, Type (0, 0), BuildingBlock: CIFDUS_clean_linker_0, # of connection points: 2
#     Edge 21, Type (0, 0), BuildingBlock: CIFDUS_clean_linker_0, # of connection points: 2
#     Edge 22, Type (0, 0), BuildingBlock: CIFDUS_clean_linker_0, # of connection points: 2
#     Edge 23, Type (0, 0), BuildingBlock: CIFDUS_clean_linker_0, # of connection points: 2
#     Edge 24, Type (0, 0), BuildingBlock: CIFDUS_clean_linker_0, # of connection points: 2
#     Edge 25, Type (0, 0), BuildingBlock: CIFDUS_clean_linker_0, # of connection points: 2
#     Edge 26, Type (0, 0), BuildingBlock: CIFDUS_clean_linker_0, # of connection points: 2
#     Edge 27, Type (0, 0), BuildingBlock: CIFDUS_clean_linker_0, # of connection points: 2
#     Edge 28, Type (0, 0), BuildingBlock: CIFDUS_clean_linker_0, # of connection points: 2
#     Edge 29, Type (0, 0), BuildingBlock: CIFDUS_clean_linker_0, # of connection points: 2
#     Edge 30, Type (0, 0), BuildingBlock: CIFDUS_clean_linker_0, # of connection points: 2
#     Edge 31, Type (0, 0), BuildingBlock: CIFDUS_clean_linker_0, # of connection points: 2
#     Edge 32, Type (0, 0), BuildingBlock: CIFDUS_clean_linker_0, # of connection points: 2
#     Edge 33, Type (0, 0), BuildingBlock: CIFDUS_clean_linker_0, # of connection points: 2
#     Edge 34, Type (0, 0), BuildingBlock: CIFDUS_clean_linker_0, # of connection points: 2
#     Edge 35, Type (0, 0), BuildingBlock: CIFDUS_clean_linker_0, # of connection points: 2
#     Edge 36, Type (0, 0), BuildingBlock: CIFDUS_clean_linker_0, # of connection points: 2
#     Edge 37, Type (0, 0), BuildingBlock: CIFDUS_clean_linker_0, # of connection points: 2
#     Edge 38, Type (0, 0), BuildingBlock: CIFDUS_clean_linker_0, # of connection points: 2
#     Edge 39, Type (0, 0), BuildingBlock: CIFDUS_clean_linker_0, # of connection points: 2
#     Edge 40, Type (0, 0), BuildingBlock: CIFDUS_clean_linker_0, # of connection points: 2
#     Edge 41, Type (0, 0), BuildingBlock: CIFDUS_clean_linker_0, # of connection points: 2
#     Edge 42, Type (0, 0), BuildingBlock: CIFDUS_clean_linker_0, # of connection points: 2
#     Edge 43, Type (0, 0), BuildingBlock: CIFDUS_clean_linker_0, # of connection points: 2
#     Edge 44, Type (0, 0), BuildingBlock: CIFDUS_clean_linker_0, # of connection points: 2
#     Edge 45, Type (0, 0), BuildingBlock: CIFDUS_clean_linker_0, # of connection points: 2
#     Edge 46, Type (0, 0), BuildingBlock: CIFDUS_clean_linker_0, # of connection points: 2
#     Edge 47, Type (0, 0), BuildingBlock: CIFDUS_clean_linker_0, # of connection points: 2
#     Edge 48, Type (0, 0), BuildingBlock: CIFDUS_clean_linker_0, # of connection points: 2
#     Edge 49, Type (0, 0), BuildingBlock: CIFDUS_clean_linker_0, # of connection points: 2
#     Edge 50, Type (0, 0), BuildingBlock: CIFDUS_clean_linker_0, # of connection points: 2
#     Edge 51, Type (0, 0), BuildingBlock: CIFDUS_clean_linker_0, # of connection points: 2
#     Edge 52, Type (0, 0), BuildingBlock: CIFDUS_clean_linker_0, # of connection points: 2
#     Edge 53, Type (0, 0), BuildingBlock: CIFDUS_clean_linker_0, # of connection points: 2
# Relax obj value: 0.317
# Max RMSD: 0.249
# Mean RMSD: 0.249
data_MOF--net-swi--node1-HICVOG_clean_sbu_0--edge1-CIFDUS_clean_linker_0
_symmetry_space_group_name_H-M    P1
_symmetry_Int_Tables_number       1
_symmetry_cell_setting            triclinic
loop_
_symmetry_equiv_pos_as_xyz
'x, y, z'
_cell_length_a     35.684135
_cell_length_b     35.726515
_cell_length_c     35.276903
_cell_angle_alpha  89.7771
_cell_angle_beta   89.889449
_cell_angle_gamma 119.55469
loop_
_atom_site_label
_atom_site_type_symbol
_atom_site_fract_x
_atom_site_fract_y
_atom_site_fract_z
_atom_type_partial_charge
Zn0 Zn 0.4061 0.10407 0.99218 0.0
C1 C 0.51764 0.15391 0.04996 0.0
N2 N 0.52674 0.12969 1.02722 0.0
C3 C 0.48978 0.10599 1.00857 0.0
N4 N 0.45944 0.11673 1.01879 0.0
N5 N 0.47674 0.14557 0.04628 0.0
C6 C 0.50721 0.25374 0.07227 0.0
O7 O 0.49437 0.24258 0.03718 0.0
O8 O 0.35765 0.04723 1.00956 0.0
Zn9 Zn 0.44904 0.16709 0.08076 0.0
N10 N 0.41341 0.102 0.93724 0.0
C11 C 0.40871 0.06116 0.88252 0.0
C12 C 0.40633 0.06435 0.92164 0.0
C13 C 0.42184 0.13658 0.91484 0.0
N14 N 0.41696 0.09543 0.86026 0.0
C15 C 0.42346 0.13336 0.87498 0.0
O16 O 0.40492 0.17801 0.0567 0.0
C17 C 0.38506 0.17232 1.02559 0.0
O18 O 0.38623 0.14808 0.99977 0.0
H19 H 0.39751 0.0365 0.93926 0.0
H20 H 0.42558 0.16548 0.92801 0.0
C21 C 0.42368 0.15584 0.15733 0.0
C22 C 0.41104 0.13565 0.19305 0.0
C23 C 0.40582 0.07229 0.16615 0.0
C24 C 0.41846 0.09267 0.13082 0.0
N25 N 0.42724 0.13405 0.1272 0.0
N26 N 0.40264 0.0942 0.19634 0.0
H27 H 0.43199 0.18909 0.15348 0.0
C28 C 0.32289 0.02782 0.99083 0.0
O29 O 0.31794 0.04622 0.96039 0.0
O30 O 0.49284 0.22537 0.09808 0.0
H31 H 0.42189 0.07597 0.10669 0.0
H32 H 0.40317 0.03136 0.86981 0.0
H33 H 0.39894 0.03941 0.16965 0.0
Zn34 Zn 0.28131 0.45427 0.06345 0.0
C35 C 0.3817 0.49303 0.98924 0.0
N36 N 0.39584 0.52913 1.00951 0.0
C37 C 0.36333 0.51989 0.0333 0.0
N38 N 0.33032 0.47978 0.02866 0.0
N39 N 0.34092 0.46292 0.99979 0.0
C40 C 0.3041 0.34393 1.02079 0.0
O41 O 0.28992 0.35864 0.0481 0.0
O42 O 0.26388 0.49853 0.07412 0.0
Zn43 Zn 0.30027 0.40958 0.97346 0.0
N44 N 0.29569 0.43872 0.11209 0.0
C45 C 0.3401 0.42 0.14838 0.0
C46 C 0.3287 0.43013 0.11366 0.0
C47 C 0.27367 0.43798 0.14407 0.0
N48 N 0.31828 0.41929 0.18021 0.0
C49 C 0.28513 0.42798 0.17949 0.0
O50 O 0.23647 0.38876 0.98322 0.0
C51 C 0.21255 0.38563 1.01131 0.0
O52 O 0.22769 0.40552 0.0422 0.0
H53 H 0.34619 0.43145 0.08815 0.0
H54 H 0.24834 0.44614 0.14177 0.0
C55 C 0.28337 0.42567 0.89567 0.0
C56 C 0.28766 0.42517 0.85583 0.0
C57 C 0.34262 0.40668 0.86422 0.0
C58 C 0.33753 0.40625 0.90334 0.0
N59 N 0.30852 0.41621 0.91849 0.0
N60 N 0.31755 0.41581 0.84154 0.0
H61 H 0.25927 0.43167 0.90844 0.0
C62 C 0.25349 0.51224 0.04504 0.0
O63 O 0.25591 0.49764 1.01151 0.0
O64 O 0.31037 0.36075 0.988 0.0
H65 H 0.3557 0.39668 0.92142 0.0
H66 H 0.3663 0.41303 0.1501 0.0
H67 H 0.36568 0.39887 0.85189 0.0
Zn68 Zn 0.88596 0.30668 0.97026 0.0
C69 C 0.86946 0.37306 0.05605 0.0
N70 N 0.89855 0.40747 0.03674 0.0
C71 C 0.91127 0.39052 1.00903 0.0
N72 N 0.89043 0.34685 1.01076 0.0
N73 N 0.86549 0.33662 0.04137 0.0
C74 C 0.74693 0.23658 0.09307 0.0
O75 O 0.75637 0.20537 0.09314 0.0
O76 O 0.94617 0.31928 0.95693 0.0
Zn77 Zn 0.83433 0.2839 0.06943 0.0
N78 N 0.85698 0.31446 0.92632 0.0
C79 C 0.82095 0.34938 0.89958 0.0
C80 C 0.84562 0.3456 0.92823 0.0
C81 C 0.84421 0.28655 0.8965 0.0
N82 N 0.80751 0.32115 0.87045 0.0
C83 C 0.81834 0.28968 0.86792 0.0
O84 O 0.82602 0.23215 0.04199 0.0
C85 C 0.83159 0.21779 1.01097 0.0
O86 O 0.85162 0.24233 0.98306 0.0
H87 H 0.85435 0.36662 0.95233 0.0
H88 H 0.85234 0.2611 0.896 0.0
C89 C 0.83973 0.26297 0.14692 0.0
C90 C 0.85974 0.26203 0.18085 0.0
C91 C 0.9273 0.3122 0.15395 0.0
C92 C 0.90715 0.31177 0.11986 0.0
N93 N 0.86368 0.28711 0.11698 0.0
N94 N 0.90328 0.28726 0.18351 0.0
H95 H 0.8053 0.24488 0.14464 0.0
C96 C 0.9644 0.30825 0.98209 0.0
O97 O 0.9427 0.28917 1.01306 0.0
O98 O 0.77524 0.27407 0.08247 0.0
H99 H 0.92594 0.3308 0.09589 0.0
H100 H 0.81157 0.37389 0.90096 0.0
H101 H 0.96186 0.33183 0.15673 0.0
Zn102 Zn 0.5496 0.82996 0.07597 0.0
C103 C 0.5139 0.90794 1.02368 0.0
N104 N 0.48087 0.88686 0.04792 0.0
C105 C 0.48773 0.85627 0.06258 0.0
N106 N 0.52443 0.8595 0.04908 0.0
N107 N 0.54026 0.89038 1.02285 0.0
C108 C 0.65997 0.97053 0.99303 0.0
O109 O 0.66262 0.94817 1.02153 0.0
O110 O 0.50357 0.76931 0.08714 0.0
Zn111 Zn 0.57961 0.89244 0.98167 0.0
N112 N 0.57401 0.85728 0.12463 0.0
C113 C 0.62125 0.9188 0.16072 0.0
C114 C 0.60111 0.9004 0.12643 0.0
C115 C 0.56594 0.83201 0.15602 0.0
N116 N 0.61462 0.89314 0.19149 0.0
C117 C 0.58782 0.84979 0.19011 0.0
O118 O 0.60952 0.85678 0.99068 0.0
C119 C 0.61425 0.83373 1.01576 0.0
O120 O 0.59421 0.82445 0.04711 0.0
H121 H 0.60737 0.92018 0.10135 0.0
H122 H 0.54287 0.79829 0.15451 0.0
C123 C 0.56121 0.84961 0.90964 0.0
C124 C 0.53882 0.83289 0.87537 0.0
C125 C 0.49107 0.8586 0.8922 0.0
C126 C 0.51298 0.87446 0.92617 0.0
N127 N 0.54773 0.8699 0.93433 0.0
N128 N 0.50438 0.83827 0.86775 0.0
H129 H 0.5894 0.84714 0.91657 0.0
C130 C 0.51312 0.7416 0.09949 0.0
O131 O 0.5538 0.75281 0.10457 0.0
O132 O 0.62706 0.95324 0.97175 0.0
H133 H 0.50224 0.89024 0.94569 0.0
H134 H 0.64284 0.95311 0.1626 0.0
H135 H 0.46349 0.86223 0.88535 0.0
Zn136 Zn 0.68427 0.58238 0.95962 0.0
C137 C 0.62626 0.49657 0.04562 0.0
N138 N 0.58969 0.49233 0.03162 0.0
C139 C 0.60288 0.52246 1.00427 0.0
N140 N 0.64674 0.54482 1.00122 0.0
N141 N 0.66065 0.52912 0.02864 0.0
C142 C 0.73624 0.48143 0.03487 0.0
O143 O 0.73741 0.4949 0.99995 0.0
O144 O 0.6721 0.63129 0.95095 0.0
Zn145 Zn 0.71619 0.54844 0.05237 0.0
N146 N 0.67395 0.54947 0.91273 0.0
C147 C 0.62715 0.493 0.87165 0.0
C148 C 0.63403 0.51641 0.90486 0.0
C149 C 0.70757 0.55981 0.8885 0.0
N150 N 0.66062 0.50315 0.84768 0.0
C151 C 0.70106 0.53584 0.85501 0.0
O152 O 0.7663 0.59224 1.02343 0.0
C153 C 0.77701 0.61345 0.99267 0.0
O154 O 0.74948 0.61083 0.96839 0.0
H155 H 0.6077 0.50805 0.92411 0.0
H156 H 0.7388 0.58667 0.89526 0.0
C157 C 0.73848 0.5662 0.13094 0.0
C158 C 0.73822 0.58245 0.16729 0.0
C159 C 0.69287 0.60845 0.14355 0.0
C160 C 0.69361 0.59258 0.10767 0.0
N161 N 0.71626 0.57171 0.10208 0.0
N162 N 0.71502 0.60302 0.17233 0.0
H163 H 0.75543 0.5487 0.1255 0.0
C164 C 0.68736 0.66192 0.9747 0.0
O165 O 0.71063 0.6605 1.00292 0.0
O166 O 0.72723 0.49904 0.06185 0.0
H167 H 0.6761 0.59659 0.08447 0.0
H168 H 0.59546 0.4667 0.86505 0.0
H169 H 0.67482 0.62498 0.14852 0.0
Zn170 Zn 0.1571 0.71168 0.06478 0.0
C171 C 0.0748 0.6042 1.00801 0.0
N172 N 0.08588 0.5869 0.03671 0.0
C173 C 0.11613 0.62109 0.05508 0.0
N174 N 0.12217 0.65787 0.03898 0.0
N175 N 0.09741 0.64783 1.00838 0.0
C176 C 0.02427 0.68976 0.97005 0.0
O177 O 0.04545 0.7155 0.99819 0.0
O178 O 0.21462 0.71952 0.08 0.0
Zn179 Zn 0.10258 0.68719 0.9666 0.0
N180 N 0.13066 0.71267 0.1128 0.0
C181 C 0.06979 0.68733 0.15365 0.0
C182 C 0.08758 0.6876 0.11832 0.0
C183 C 0.15674 0.73784 0.14117 0.0
N184 N 0.0958 0.71219 0.18201 0.0
C185 C 0.13906 0.73786 0.17697 0.0
O186 O 0.13607 0.75102 0.9789 0.0
C187 C 0.15982 0.77669 1.00456 0.0
O188 O 0.16786 0.7632 0.03511 0.0
H189 H 0.06735 0.66767 0.09559 0.0
H190 H 0.19101 0.75675 0.13595 0.0
C191 C 0.14729 0.70855 0.89367 0.0
C192 C 0.17431 0.70599 0.86578 0.0
C193 C 0.1713 0.64638 0.89853 0.0
C194 C 0.14527 0.64946 0.92638 0.0
N195 N 0.13371 0.68039 0.92365 0.0
N196 N 0.18553 0.67485 0.86926 0.0
H197 H 0.13874 0.73369 0.89245 0.0
C198 C 0.24483 0.72486 0.05779 0.0
O199 O 0.23881 0.72323 1.02097 0.0
O200 O 0.0427 0.67344 0.9507 0.0
H201 H 0.13541 0.628 0.9505 0.0
H202 H 0.03556 0.66735 0.15858 0.0
H203 H 0.18093 0.62209 0.90059 0.0
Zn204 Zn 0.82936 0.53852 0.47984 0.0
C205 C 0.89499 0.49407 0.54278 0.0
N206 N 0.88103 0.46578 0.5143 0.0
C207 C 0.85917 0.47893 0.49268 0.0
N208 N 0.85895 0.51354 0.50707 0.0
N209 N 0.88163 0.5237 0.53902 0.0
C210 C 0.97351 0.65408 0.57664 0.0
O211 O 0.9566 0.65939 0.60788 0.0
O212 O 0.76797 0.49233 0.47308 0.0
Zn213 Zn 0.89289 0.57302 0.5711 0.0
N214 N 0.85394 0.55835 0.42974 0.0
C215 C 0.91368 0.58492 0.38749 0.0
C216 C 0.89627 0.57165 0.42369 0.0
C217 C 0.82818 0.55782 0.40102 0.0
N218 N 0.88809 0.58453 0.35885 0.0
C219 C 0.84557 0.57152 0.36433 0.0
O220 O 0.85174 0.59713 0.56455 0.0
C221 C 0.8293 0.60194 0.53891 0.0
O222 O 0.82318 0.58387 0.50687 0.0
H223 H 0.91618 0.57167 0.44678 0.0
H224 H 0.79444 0.54608 0.40688 0.0
C225 C 0.85796 0.55422 0.6471 0.0
C226 C 0.85964 0.55015 0.68683 0.0
C227 C 0.9294 0.55783 0.68007 0.0
C228 C 0.92791 0.56293 0.64106 0.0
N229 N 0.89209 0.56038 0.62515 0.0
N230 N 0.89557 0.55189 0.70193 0.0
H231 H 0.83087 0.55453 0.63376 0.0
C232 C 0.74761 0.47681 0.50387 0.0
O233 O 0.76806 0.49093 0.53614 0.0
O234 O 0.95205 0.62029 0.55711 0.0
H235 H 0.95575 0.5705 0.62386 0.0
H236 H 0.94731 0.59547 0.38215 0.0
H237 H 0.95773 0.55973 0.69304 0.0
Zn238 Zn 0.31162 0.89206 0.58187 0.0
C239 C 0.3763 0.88469 0.48884 0.0
N240 N 0.41039 0.91482 0.50743 0.0
C241 C 0.39297 0.92275 0.53789 0.0
N242 N 0.34939 0.89829 0.53841 0.0
N243 N 0.33922 0.8751 0.50681 0.0
C244 C 0.2702 0.75188 0.48904 0.0
O245 O 0.26999 0.75864 0.52561 0.0
O246 O 0.32283 0.95236 0.59526 0.0
Zn247 Zn 0.28417 0.83849 0.48267 0.0
N248 N 0.3253 0.86524 0.62465 0.0
C249 C 0.36733 0.8341 0.64545 0.0
C250 C 0.35574 0.8538 0.61744 0.0
C251 C 0.30423 0.8556 0.6589 0.0
N252 N 0.34715 0.82529 0.67951 0.0
C253 C 0.31553 0.83497 0.6874 0.0
O254 O 0.23319 0.82376 0.51548 0.0
C255 C 0.2209 0.82943 0.54772 0.0
O256 O 0.24758 0.85365 0.5726 0.0
H257 H 0.37067 0.85924 0.58991 0.0
H258 H 0.27934 0.86397 0.66386 0.0
C259 C 0.25485 0.83768 0.40722 0.0
C260 C 0.25264 0.85497 0.37182 0.0
C261 C 0.29931 0.92511 0.39561 0.0
C262 C 0.30132 0.90768 0.43052 0.0
N263 N 0.27921 0.86437 0.43562 0.0
N264 N 0.27532 0.8985 0.36719 0.0
H265 H 0.23842 0.8033 0.41202 0.0
C266 C 0.29361 0.96299 0.59709 0.0
O267 O 0.25318 0.93319 0.59278 0.0
O268 O 0.27789 0.78209 0.46596 0.0
H269 H 0.32077 0.9284 0.45321 0.0
H270 H 0.39185 0.82533 0.64006 0.0
H271 H 0.31694 0.95954 0.391 0.0
Zn272 Zn 0.45447 0.27534 0.50324 0.0
C273 C 0.47705 0.38895 0.54826 0.0
N274 N 0.50561 0.40259 0.51962 0.0
C275 C 0.50194 0.36647 0.50533 0.0
N276 N 0.47149 0.33171 0.52386 0.0
N277 N 0.45587 0.34516 0.55176 0.0
C278 C 0.33545 0.3056 0.57406 0.0
O279 O 0.33634 0.28269 0.54539 0.0
O280 O 0.50593 0.26914 0.4898 0.0
Zn281 Zn 0.41627 0.30772 0.59294 0.0
N282 N 0.42217 0.26663 0.45668 0.0
C283 C 0.37241 0.27787 0.42053 0.0
C284 C 0.39516 0.28309 0.45398 0.0
C285 C 0.4273 0.2449 0.42723 0.0
N286 N 0.37752 0.2563 0.39115 0.0
C287 C 0.40425 0.23928 0.39327 0.0
O288 O 0.39256 0.24215 0.58839 0.0
C289 C 0.39788 0.21556 0.56828 0.0
O290 O 0.42078 0.22701 0.53849 0.0
H291 H 0.39161 0.30034 0.47758 0.0
H292 H 0.44971 0.23298 0.4302 0.0
C293 C 0.43191 0.28793 0.66793 0.0
C294 C 0.4547 0.2934 0.70203 0.0
C295 C 0.50563 0.36418 0.68194 0.0
C296 C 0.48379 0.35784 0.64777 0.0
N297 N 0.44706 0.32009 0.64143 0.0
N298 N 0.49085 0.33192 0.708 0.0
H299 H 0.40254 0.25834 0.66214 0.0
C300 C 0.52736 0.26523 0.51664 0.0
O301 O 0.51696 0.2682 0.55182 0.0
O302 O 0.36562 0.31897 0.59838 0.0
H303 H 0.49662 0.3826 0.62643 0.0
H304 H 0.35088 0.29093 0.41787 0.0
H305 H 0.53474 0.39422 0.68737 0.0
Zn306 Zn 0.10945 0.4217 0.57236 0.0
C307 C 0.13877 0.50751 0.4862 0.0
N308 N 0.10901 0.51494 0.50184 0.0
C309 C 0.0918 0.4856 0.52977 0.0
N310 N 0.10976 0.45964 0.53094 0.0
N311 N 0.13706 0.47224 0.50178 0.0
C312 C 0.25176 0.50471 0.4866 0.0
O313 O 0.23988 0.49122 0.52158 0.0
O314 O 0.04736 0.37701 0.58404 0.0
Zn315 Zn 0.16469 0.44497 0.47477 0.0
N316 N 0.13618 0.45565 0.61794 0.0
C317 C 0.16484 0.52124 0.65233 0.0
C318 C 0.14483 0.49713 0.6202 0.0
C319 C 0.14839 0.43784 0.64627 0.0
N320 N 0.17706 0.50357 0.68043 0.0
C321 C 0.17002 0.46255 0.67839 0.0
O322 O 0.17138 0.40111 0.50426 0.0
C323 C 0.16451 0.38298 0.5365 0.0
O324 O 0.14363 0.38967 0.56253 0.0
H325 H 0.13708 0.5118 0.59711 0.0
H326 H 0.14152 0.40493 0.64347 0.0
C327 C 0.15851 0.42577 0.39485 0.0
C328 C 0.13701 0.40782 0.36046 0.0
C329 C 0.07005 0.37956 0.39337 0.0
C330 C 0.09159 0.39725 0.42718 0.0
N331 N 0.13527 0.42004 0.4273 0.0
N332 N 0.0931 0.38527 0.36107 0.0
H333 H 0.19321 0.44471 0.39596 0.0
C334 C 0.02863 0.34384 0.56319 0.0
O335 O 0.05037 0.33946 0.53509 0.0
O336 O 0.22437 0.48953 0.46022 0.0
H337 H 0.07372 0.39306 0.45315 0.0
H338 H 0.17149 0.55415 0.65456 0.0
H339 H 0.03523 0.36142 0.39276 0.0
Zn340 Zn 0.71554 0.15999 0.48541 0.0
C341 C 0.6081 0.07689 0.54215 0.0
N342 N 0.59079 0.08827 0.51365 0.0
C343 C 0.62504 0.11895 0.49528 0.0
N344 N 0.66181 0.12447 0.51088 0.0
N345 N 0.6518 0.0998 0.54161 0.0
C346 C 0.69317 0.03163 0.57971 0.0
O347 O 0.71519 0.0524 0.54939 0.0
O348 O 0.71896 0.21623 0.47306 0.0
Zn349 Zn 0.69063 0.10914 0.58468 0.0
N350 N 0.71759 0.13331 0.43788 0.0
C351 C 0.69846 0.07127 0.40033 0.0
C352 C 0.69612 0.0898 0.43444 0.0
C353 C 0.74133 0.15892 0.40851 0.0
N354 N 0.72273 0.09698 0.37125 0.0
C355 C 0.74481 0.14063 0.37445 0.0
O356 O 0.75586 0.14664 0.57437 0.0
C357 C 0.78117 0.16828 0.54729 0.0
O358 O 0.76745 0.17266 0.51537 0.0
H359 H 0.67735 0.06973 0.45795 0.0
H360 H 0.75688 0.19325 0.41131 0.0
C361 C 0.69508 0.1458 0.66018 0.0
C362 C 0.68323 0.16695 0.68749 0.0
C363 C 0.63545 0.17094 0.64292 0.0
C364 C 0.64751 0.15056 0.61605 0.0
N365 N 0.67636 0.13754 0.62514 0.0
N366 N 0.65342 0.17853 0.67778 0.0
H367 H 0.71847 0.13581 0.66666 0.0
C368 C 0.75356 0.24902 0.46234 0.0
O369 O 0.78936 0.24713 0.46036 0.0
O370 O 0.67925 0.05028 0.60166 0.0
H371 H 0.63403 0.1456 0.58802 0.0
H372 H 0.68135 0.03668 0.39708 0.0
H373 H 0.61224 0.18106 0.63604 0.0
Zn374 Zn 0.59506 0.69317 0.58921 0.0
C375 C 0.48774 0.63347 0.52395 0.0
N376 N 0.48017 0.59809 0.54289 0.0
C377 C 0.51542 0.61139 0.56432 0.0
N378 N 0.54365 0.65424 0.55921 0.0
N379 N 0.52584 0.66737 0.533 0.0
C380 C 0.50236 0.76702 0.48326 0.0
O381 O 0.54147 0.79942 0.47803 0.0
O382 O 0.64427 0.68203 0.57821 0.0
Zn383 Zn 0.54685 0.71975 0.5034 0.0
N384 N 0.58243 0.68226 0.64324 0.0
C385 C 0.57847 0.64099 0.69772 0.0
C386 C 0.58454 0.64855 0.65887 0.0
C387 C 0.57531 0.70949 0.66525 0.0
N388 N 0.57153 0.66808 0.71966 0.0
C389 C 0.56987 0.70249 0.70482 0.0
O390 O 0.59265 0.77167 0.52859 0.0
C391 C 0.61674 0.78416 0.55751 0.0
O392 O 0.61828 0.75803 0.58132 0.0
H393 H 0.59196 0.62831 0.64145 0.0
H394 H 0.57551 0.73698 0.65211 0.0
C395 C 0.5686 0.73906 0.42424 0.0
C396 C 0.58167 0.73387 0.38788 0.0
C397 C 0.59005 0.67618 0.41196 0.0
C398 C 0.57719 0.68174 0.44793 0.0
N399 N 0.5667 0.71306 0.45345 0.0
N400 N 0.59187 0.70215 0.38289 0.0
H401 H 0.55898 0.7628 0.42899 0.0
C402 C 0.66218 0.68882 0.54585 0.0
O403 O 0.64839 0.70374 0.51832 0.0
O404 O 0.49725 0.73107 0.49487 0.0
H405 H 0.5752 0.66101 0.47118 0.0
H406 H 0.58002 0.61421 0.71049 0.0
H407 H 0.59836 0.65128 0.40712 0.0
H408 H 0.25735 0.96934 0.94731 0.0
H409 H 0.31672 0.98604 0.05713 0.0
H410 H 0.26846 0.91042 0.07209 0.0
H411 H 0.21367 0.83905 0.05246 0.0
H412 H 0.15618 0.82032 0.94154 0.0
H413 H 0.19921 0.89757 0.92876 0.0
C414 C 0.25932 0.95654 0.9747 0.0
C415 C 0.29068 0.98321 1.00101 0.0
C416 C 0.23202 0.91273 0.98286 0.0
C417 C 0.29302 0.96613 0.0363 0.0
C418 C 0.26546 0.92289 0.04489 0.0
C419 C 0.21011 0.85172 1.02554 0.0
C420 C 0.1819 0.82376 0.9979 0.0
C421 C 0.23548 0.89579 1.0181 0.0
C422 C 0.17771 0.84103 0.96331 0.0
C423 C 0.20241 0.88519 0.95594 0.0
H424 H 0.31651 0.29503 0.9689 0.0
H425 H 0.31536 0.3153 0.08936 0.0
H426 H 0.33753 0.26166 0.10145 0.0
H427 H 0.36119 0.21229 0.0777 0.0
H428 H 0.36154 0.19108 0.95732 0.0
H429 H 0.33505 0.24143 0.94535 0.0
C430 C 0.3209 0.28755 0.99782 0.0
C431 C 0.31465 0.3094 1.02819 0.0
C432 C 0.33341 0.25651 1.00457 0.0
C433 C 0.31998 0.29899 0.06549 0.0
C434 C 0.33274 0.26839 0.07242 0.0
C435 C 0.35511 0.21834 0.04882 0.0
C436 C 0.36365 0.19816 1.01843 0.0
C437 C 0.34009 0.2474 0.04216 0.0
C438 C 0.35514 0.20605 0.98124 0.0
C439 C 0.34026 0.23506 0.97437 0.0
H440 H 0.01248 0.29503 0.03402 0.0
H441 H 0.01991 0.34866 0.92261 0.0
H442 H 0.09712 0.37284 0.9197 0.0
H443 H 0.16378 0.38383 0.9513 0.0
H444 H 0.15565 0.33442 0.06453 0.0
H445 H 0.07743 0.30292 0.06404 0.0
C446 C 0.03079 0.31164 1.00888 0.0
C447 C 0.01039 0.32011 0.97864 0.0
C448 C 0.07516 0.32616 1.00775 0.0
C449 C 0.03479 0.34175 0.94635 0.0
C450 C 0.07897 0.35563 0.94468 0.0
C451 C 0.14463 0.36532 0.97543 0.0
C452 C 0.16524 0.36112 1.00783 0.0
C453 C 0.09968 0.34863 0.97549 0.0
C454 C 0.14035 0.33789 0.03929 0.0
C455 C 0.09569 0.32007 0.03908 0.0
H456 H 0.72865 0.01887 0.03803 0.0
H457 H 0.66629 0.02491 0.93531 0.0
H458 H 0.7186 0.10144 0.92851 0.0
H459 H 0.77818 0.16829 0.95509 0.0
H460 H 0.83589 0.16238 0.06051 0.0
H461 H 0.79007 0.0842 0.06254 0.0
C462 C 0.7267 0.03676 1.01392 0.0
C463 C 0.69343 0.01616 0.98735 0.0
C464 C 0.75632 0.08089 1.01059 0.0
C465 C 0.69145 0.03996 0.95631 0.0
C466 C 0.72139 0.08377 0.95236 0.0
C467 C 0.78141 0.14957 0.97785 0.0
C468 C 0.8106 0.1707 1.00736 0.0
C469 C 0.75353 0.10478 0.9797 0.0
C470 C 0.81385 0.1465 0.03733 0.0
C471 C 0.78745 0.10192 0.03865 0.0
H472 H 0.7097 0.72714 1.02442 0.0
H473 H 0.63937 0.6747 0.92078 0.0
H474 H 0.61591 0.72854 0.92107 0.0
H475 H 0.60934 0.78582 0.95461 0.0
H476 H 0.67495 0.83318 0.06082 0.0
H477 H 0.70702 0.78674 0.05541 0.0
C478 C 0.68962 0.72768 1.00163 0.0
C479 C 0.67612 0.6967 0.97277 0.0
C480 C 0.67552 0.75805 1.00243 0.0
C481 C 0.65011 0.69804 0.94346 0.0
C482 C 0.63666 0.72883 0.9436 0.0
C483 C 0.6317 0.78675 0.97586 0.0
C484 C 0.64037 0.81314 1.0078 0.0
C485 C 0.64843 0.75845 0.97338 0.0
C486 C 0.66832 0.81336 0.03584 0.0
C487 C 0.68633 0.78659 0.03289 0.0
H488 H 0.97684 0.71805 1.00776 0.0
H489 H 0.96826 0.63192 0.91851 0.0
H490 H 0.8908 0.60531 0.91328 0.0
H491 H 0.82414 0.60083 0.93928 0.0
H492 H 0.8332 0.68322 0.03175 0.0
H493 H 0.91184 0.71761 0.03015 0.0
C494 C 0.95821 0.6938 0.98683 0.0
C495 C 0.97835 0.67679 0.9638 0.0
C496 C 0.91366 0.67808 0.98453 0.0
C497 C 0.95361 0.6455 0.93672 0.0
C498 C 0.90926 0.6302 0.93375 0.0
C499 C 0.84361 0.62726 0.95816 0.0
C500 C 0.82336 0.6402 0.98517 0.0
C501 C 0.88875 0.64554 0.95812 0.0
C502 C 0.84846 0.67344 1.01038 0.0
C503 C 0.89329 0.69274 1.00969 0.0
H504 H 0.03318 0.72312 0.61649 0.0
H505 H 0.01325 0.65684 0.50994 0.0
H506 H 0.08697 0.70722 0.49081 0.0
H507 H 0.15769 0.76751 0.5052 0.0
H508 H 0.17974 0.83291 0.61245 0.0
H509 H 0.10436 0.78562 0.6302 0.0
C510 C 0.04489 0.7199 0.58899 0.0
C511 C 0.01772 0.68615 0.56476 0.0
C512 C 0.08765 0.74876 0.57826 0.0
C513 C 0.03346 0.68236 0.52925 0.0
C514 C 0.07564 0.71119 0.51823 0.0
C515 C 0.14609 0.77186 0.53237 0.0
C516 C 0.1745 0.80376 0.55745 0.0
C517 C 0.1031 0.74417 0.54265 0.0
C518 C 0.15867 0.80863 0.59256 0.0
C519 C 0.11557 0.78152 0.60278 0.0
H520 H 0.37374 0.03293 0.60402 0.0
H521 H 0.23969 0.99714 0.59452 0.0
H522 H 0.25942 0.0729 0.58936 0.0
H523 H 0.31565 0.14951 0.58067 0.0
H524 H 0.44931 0.18332 0.58583 0.0
H525 H 0.42906 0.10865 0.59949 0.0
C526 C 0.34877 0.04157 0.60094 0.0
C527 C 0.30535 0.00914 0.59898 0.0
C528 C 0.36038 0.08516 0.59704 0.0
C529 C 0.27345 0.02128 0.5958 0.0
C530 C 0.2847 0.06471 0.59273 0.0
C531 C 0.3401 0.14045 0.58563 0.0
C532 C 0.38384 0.17167 0.58245 0.0
C533 C 0.32816 0.09695 0.59235 0.0
C534 C 0.41542 0.15966 0.58828 0.0
C535 C 0.40388 0.11698 0.59595 0.0
H536 H 0.26966 0.2854 0.52481 0.0
H537 H 0.32498 0.35492 0.62814 0.0
H538 H 0.27244 0.38013 0.62884 0.0
H539 H 0.21472 0.38781 0.59667 0.0
H540 H 0.16368 0.32188 0.49119 0.0
H541 H 0.20979 0.28932 0.49511 0.0
C542 C 0.27007 0.30573 0.54774 0.0
C543 C 0.30151 0.31833 0.57627 0.0
C544 C 0.24023 0.32069 0.54762 0.0
C545 C 0.30131 0.34473 0.60572 0.0
C546 C 0.27123 0.35921 0.60613 0.0
C547 C 0.21293 0.36534 0.5752 0.0
C548 C 0.18546 0.35678 0.5439 0.0
C549 C 0.24096 0.34803 0.57686 0.0
C550 C 0.18426 0.32857 0.51569 0.0
C551 C 0.21088 0.31023 0.51778 0.0
H552 H 0.82901 0.22973 0.59905 0.0
H553 H 0.8384 0.15912 0.50423 0.0
H554 H 0.91658 0.20562 0.50251 0.0
H555 H 0.98108 0.27016 0.52384 0.0
H556 H 0.97223 0.34467 0.61588 0.0
H557 H 0.89531 0.29316 0.62282 0.0
C558 C 0.8485 0.22396 0.57881 0.0
C559 C 0.82831 0.19071 0.5522 0.0
C560 C 0.8934 0.25205 0.57702 0.0
C561 C 0.85351 0.18419 0.52528 0.0
C562 C 0.8981 0.21099 0.5241 0.0
C563 C 0.9625 0.27507 0.54566 0.0
C564 C 0.98251 0.31141 0.56917 0.0
C565 C 0.91824 0.24569 0.54914 0.0
C566 C 0.95774 0.31705 0.59732 0.0
C567 C 0.91369 0.28756 0.60131 0.0
H568 H 0.60982 0.83222 0.61361 0.0
H569 H 0.67961 0.84021 0.51135 0.0
H570 H 0.71298 0.91864 0.51137 0.0
H571 H 0.71617 0.98374 0.53635 0.0
H572 H 0.64244 0.97637 0.636 0.0
H573 H 0.61689 0.89914 0.64132 0.0
C574 C 0.63331 0.85145 0.59207 0.0
C575 C 0.643 0.8309 0.56285 0.0
C576 C 0.65103 0.8965 0.59145 0.0
C577 C 0.67238 0.85568 0.53436 0.0
C578 C 0.69112 0.9004 0.53421 0.0
C579 C 0.6949 0.96544 0.55954 0.0
C580 C 0.68108 0.98587 0.58559 0.0
C581 C 0.67972 0.92102 0.56197 0.0
C582 C 0.65356 0.9615 0.61548 0.0
C583 C 0.63886 0.91728 0.61851 0.0
H584 H 0.795 0.6336 0.48821 0.0
H585 H 0.80801 0.62057 0.60844 0.0
H586 H 0.75833 0.6478 0.62134 0.0
H587 H 0.70695 0.67004 0.59809 0.0
H588 H 0.6949 0.68308 0.47763 0.0
H589 H 0.74834 0.66087 0.46527 0.0
C590 C 0.78739 0.63714 0.51731 0.0
C591 C 0.80501 0.62476 0.5473 0.0
C592 C 0.75857 0.65235 0.52446 0.0
C593 C 0.79509 0.63001 0.58481 0.0
C594 C 0.76639 0.64525 0.59219 0.0
C595 C 0.7162 0.66825 0.56914 0.0
C596 C 0.69662 0.67788 0.53881 0.0
C597 C 0.74722 0.65563 0.56219 0.0
C598 C 0.70932 0.6758 0.50151 0.0
C599 C 0.73988 0.66305 0.49439 0.0
H600 H 0.39045 0.25007 0.31931 0.0
H601 H 0.42616 0.17479 0.39136 0.0
H602 H 0.4314 0.13683 0.33616 0.0
H603 H 0.42529 0.12421 0.26709 0.0
H604 H 0.38794 0.19865 0.19571 0.0
H605 H 0.3838 0.2372 0.25083 0.0
C606 C 0.39936 0.22534 0.3231 0.0
C607 C 0.40842 0.21602 0.35974 0.0
C608 C 0.40202 0.20324 0.29117 0.0
C609 C 0.41997 0.18376 0.36372 0.0
C610 C 0.4226 0.16158 0.33206 0.0
C611 C 0.41614 0.1488 0.26358 0.0
C612 C 0.40765 0.15877 0.22697 0.0
C613 C 0.41366 0.171 0.29561 0.0
C614 C 0.3958 0.19081 0.22316 0.0
C615 C 0.39306 0.21277 0.25483 0.0
H616 H 0.22033 0.42334 0.34795 0.0
H617 H 0.10555 0.40231 0.28907 0.0
H618 H 0.14043 0.4072 0.22841 0.0
H619 H 0.20273 0.41557 0.19169 0.0
H620 H 0.31789 0.43796 0.25075 0.0
H621 H 0.28348 0.43453 0.31125 0.0
C622 C 0.20298 0.42062 0.32203 0.0
C623 C 0.16017 0.41284 0.32361 0.0
C624 C 0.22327 0.42349 0.2869 0.0
C625 C 0.13837 0.4082 0.28916 0.0
C626 C 0.15836 0.41108 0.25424 0.0
C627 C 0.22081 0.42052 0.21757 0.0
C628 C 0.26331 0.42739 0.21609 0.0
C629 C 0.20078 0.41855 0.25269 0.0
C630 C 0.28521 0.43246 0.25056 0.0
C631 C 0.26556 0.43061 0.2854 0.0
H632 H 0.87565 0.27704 0.25634 0.0
H633 H 0.78687 0.18247 0.17797 0.0
H634 H 0.74413 0.13722 0.23057 0.0
H635 H 0.73106 0.1243 0.29905 0.0
H636 H 0.82036 0.21815 0.37758 0.0
H637 H 0.86336 0.26336 0.32498 0.0
C638 C 0.84702 0.24648 0.25078 0.0
C639 C 0.83425 0.23382 0.21313 0.0
C640 C 0.8224 0.2203 0.2813 0.0
C641 C 0.79704 0.1939 0.20653 0.0
C642 C 0.77263 0.16766 0.23667 0.0
C643 C 0.76 0.15458 0.30467 0.0
C644 C 0.77179 0.16793 0.34234 0.0
C645 C 0.78484 0.18059 0.27419 0.0
C646 C 0.80958 0.20734 0.349 0.0
C647 C 0.83454 0.2332 0.31886 0.0
H648 H 0.57042 0.71217 0.31331 0.0
H649 H 0.59894 0.81836 0.38798 0.0
H650 H 0.60199 0.86246 0.33397 0.0
H651 H 0.59756 0.87167 0.26503 0.0
H652 H 0.5711 0.76572 0.19065 0.0
H653 H 0.56621 0.72135 0.24476 0.0
C654 C 0.57736 0.74499 0.31786 0.0
C655 C 0.58378 0.76138 0.35498 0.0
C656 C 0.57933 0.77047 0.28654 0.0
C657 C 0.59273 0.80413 0.36007 0.0
C658 C 0.59487 0.82969 0.32903 0.0
C659 C 0.59059 0.83883 0.26063 0.0
C660 C 0.58383 0.82216 0.22356 0.0
C661 C 0.58822 0.81323 0.29209 0.0
C662 C 0.57512 0.77946 0.21863 0.0
C663 C 0.57277 0.75396 0.24968 0.0
H664 H 0.72056 0.5823 0.24242 0.0
H665 H 0.81123 0.57376 0.16655 0.0
H666 H 0.85048 0.56803 0.22047 0.0
H667 H 0.86059 0.56718 0.28925 0.0
H668 H 0.77173 0.57883 0.36514 0.0
H669 H 0.73067 0.58144 0.31124 0.0
C670 C 0.74889 0.57914 0.23754 0.0
C671 C 0.7622 0.57786 0.2001 0.0
C672 C 0.77187 0.57637 0.26884 0.0
C673 C 0.79914 0.57375 0.19469 0.0
C674 C 0.82205 0.57088 0.22567 0.0
C675 C 0.83222 0.57025 0.29415 0.0
C676 C 0.81927 0.57214 0.33159 0.0
C677 C 0.80883 0.57232 0.26287 0.0
C678 C 0.78226 0.57613 0.33701 0.0
C679 C 0.75881 0.57808 0.30604 0.0
H680 H 0.12413 0.7205 0.25246 0.0
H681 H 0.2145 0.8161 0.17453 0.0
H682 H 0.25723 0.85956 0.22758 0.0
H683 H 0.26872 0.87143 0.29631 0.0
H684 H 0.17786 0.77623 0.37421 0.0
H685 H 0.13599 0.73203 0.32114 0.0
C686 C 0.15318 0.75085 0.24699 0.0
C687 C 0.16606 0.76447 0.20927 0.0
C688 C 0.17774 0.77596 0.27777 0.0
C689 C 0.20398 0.80398 0.20299 0.0
C690 C 0.2284 0.82919 0.23345 0.0
C691 C 0.23975 0.84101 0.30176 0.0
C692 C 0.22701 0.82724 0.33948 0.0
C693 C 0.21556 0.81559 0.27097 0.0
C694 C 0.18931 0.78754 0.34574 0.0
C695 C 0.16499 0.76226 0.31528 0.0
H696 H 0.59083 0.71596 0.77932 0.0
H697 H 0.53386 0.75428 0.69003 0.0
H698 H 0.52166 0.79924 0.73453 0.0
H699 H 0.52446 0.82563 0.79937 0.0
H700 H 0.57918 0.78503 0.88888 0.0
H701 H 0.59498 0.7434 0.84366 0.0
C702 C 0.57573 0.73412 0.76944 0.0
C703 C 0.56361 0.73167 0.73109 0.0
C704 C 0.56838 0.75968 0.79531 0.0
C705 C 0.54437 0.75585 0.71901 0.0
C706 C 0.537 0.78142 0.74462 0.0
C707 C 0.53999 0.80781 0.80906 0.0
C708 C 0.55096 0.80914 0.84765 0.0
C709 C 0.54856 0.78331 0.78289 0.0
C710 C 0.57117 0.78577 0.85943 0.0
C711 C 0.57987 0.76144 0.83356 0.0
H712 H 0.6937 0.51685 0.77992 0.0
H713 H 0.78863 0.57276 0.86867 0.0
H714 H 0.84511 0.58305 0.82414 0.0
H715 H 0.86766 0.57427 0.76059 0.0
H716 H 0.77249 0.51581 0.67239 0.0
H717 H 0.71639 0.50858 0.71617 0.0
C718 C 0.72675 0.53141 0.78963 0.0
C719 C 0.73654 0.54442 0.82774 0.0
C720 C 0.75924 0.53673 0.76392 0.0
C721 C 0.77976 0.56328 0.83952 0.0
C722 C 0.81224 0.56882 0.81406 0.0
C723 C 0.83465 0.55986 0.75081 0.0
C724 C 0.82475 0.546 0.7129 0.0
C725 C 0.80231 0.5554 0.77628 0.0
C726 C 0.78165 0.52766 0.70096 0.0
C727 C 0.74931 0.52316 0.72617 0.0
H728 H 0.25833 0.75764 0.85109 0.0
H729 H 0.13246 0.72253 0.80832 0.0
H730 H 0.16496 0.7637 0.74976 0.0
H731 H 0.22964 0.8028 0.70778 0.0
H732 H 0.35488 0.83769 0.7532 0.0
H733 H 0.32241 0.80434 0.81353 0.0
C734 C 0.23811 0.75982 0.82924 0.0
C735 C 0.19318 0.73716 0.8339 0.0
C736 C 0.25702 0.78338 0.79588 0.0
C737 C 0.16721 0.74008 0.80544 0.0
C738 C 0.18583 0.76337 0.77186 0.0
C739 C 0.24986 0.80413 0.7312 0.0
C740 C 0.29477 0.82248 0.72562 0.0
C741 C 0.23077 0.78429 0.76628 0.0
C742 C 0.32029 0.82342 0.75638 0.0
C743 C 0.30175 0.80425 0.79101 0.0
H744 H 0.39834 0.1259 0.80155 0.0
H745 H 0.46552 0.22155 0.88761 0.0
H746 H 0.47847 0.27845 0.84232 0.0
H747 H 0.47334 0.30152 0.77749 0.0
H748 H 0.40883 0.20529 0.69118 0.0
H749 H 0.39227 0.14867 0.73744 0.0
C750 C 0.41585 0.15916 0.8106 0.0
C751 C 0.43057 0.16897 0.84831 0.0
C752 C 0.42368 0.19191 0.78426 0.0
C753 C 0.45295 0.21248 0.85922 0.0
C754 C 0.46074 0.24527 0.83313 0.0
C755 C 0.45544 0.26816 0.76874 0.0
C756 C 0.4419 0.25817 0.73073 0.0
C757 C 0.44653 0.23538 0.79549 0.0
C758 C 0.4188 0.21454 0.72018 0.0
C759 C 0.40966 0.18187 0.74665 0.0
H760 H 0.26372 0.39223 0.78536 0.0
H761 H 0.25044 0.4767 0.86473 0.0
H762 H 0.21037 0.49298 0.81758 0.0
H763 H 0.18293 0.48669 0.75244 0.0
H764 H 0.1984 0.40352 0.67298 0.0
H765 H 0.23337 0.38322 0.72162 0.0
C766 C 0.25198 0.41414 0.79251 0.0
C767 C 0.26026 0.43315 0.82873 0.0
C768 C 0.22924 0.42364 0.76516 0.0
C769 C 0.24426 0.46107 0.83743 0.0
C770 C 0.22155 0.47068 0.8103 0.0
C771 C 0.19361 0.46382 0.74579 0.0
C772 C 0.18747 0.44649 0.70895 0.0
C773 C 0.21437 0.45261 0.7739 0.0
C774 C 0.20157 0.41682 0.70106 0.0
C775 C 0.22211 0.40547 0.72886 0.0
H776 H 0.73475 0.24099 0.8516 0.0
H777 H 0.86092 0.27043 0.81308 0.0
H778 H 0.82976 0.23013 0.75433 0.0
H779 H 0.76694 0.19439 0.71072 0.0
H780 H 0.64133 0.16578 0.75147 0.0
H781 H 0.67174 0.1972 0.81255 0.0
C782 C 0.75526 0.23773 0.83064 0.0
C783 C 0.79992 0.2586 0.83642 0.0
C784 C 0.73717 0.2149 0.79715 0.0
C785 C 0.82633 0.25427 0.80924 0.0
C786 C 0.80851 0.23153 0.77557 0.0
C787 C 0.7461 0.19396 0.73331 0.0
C788 C 0.70187 0.17807 0.72625 0.0
C789 C 0.76401 0.21272 0.76869 0.0
C790 C 0.6755 0.17824 0.75587 0.0
C791 C 0.69284 0.19627 0.79088 0.0
H792 H 0.7053 0.27772 0.06769 0.0
H793 H 0.69043 0.17371 0.14012 0.0
H794 H 0.61304 0.14692 0.14471 0.0
H795 H 0.54942 0.14237 0.11438 0.0
H796 H 0.56538 0.23677 0.03068 0.0
H797 H 0.64134 0.27989 0.04604 0.0
C798 C 0.6852 0.24998 0.08537 0.0
C799 C 0.70299 0.22696 0.10272 0.0
C800 C 0.64049 0.23343 0.08614 0.0
C801 C 0.67696 0.19121 0.12573 0.0
C802 C 0.63279 0.17598 0.12845 0.0
C803 C 0.56925 0.17372 0.10136 0.0
C804 C 0.55165 0.18744 0.07266 0.0
C805 C 0.61393 0.19526 0.10686 0.0
C806 C 0.57767 0.22705 0.05454 0.0
C807 C 0.62157 0.25086 0.06234 0.0
H808 H 0.431 0.70463 0.07493 0.0
H809 H 0.51936 0.67722 0.13592 0.0
H810 H 0.46851 0.60012 0.13198 0.0
H811 H 0.40856 0.54219 0.09725 0.0
H812 H 0.33235 0.5737 1.02356 0.0
H813 H 0.36575 0.64623 0.04837 0.0
C814 C 0.43868 0.68189 0.0882 0.0
C815 C 0.47926 0.69642 0.10465 0.0
C816 C 0.41042 0.6378 0.084 0.0
C817 C 0.48864 0.66663 0.12218 0.0
C818 C 0.45955 0.62257 0.12002 0.0
C819 C 0.39776 0.56448 0.08849 0.0
C820 C 0.36626 0.55203 0.06028 0.0
C821 C 0.42153 0.60782 0.09904 0.0
C822 C 0.35379 0.58144 0.04744 0.0
C823 C 0.37439 0.6236 0.06054 0.0
H824 H 0.79195 0.34204 1.02585 0.0
H825 H 0.86902 0.41468 0.1205 0.0
H826 H 0.82582 0.45044 0.12682 0.0
H827 H 0.77956 0.47397 0.09469 0.0
H828 H 0.71396 0.41076 0.99201 0.0
H829 H 0.73885 0.35846 0.9991 0.0
C830 C 0.79764 0.36395 0.04916 0.0
C831 C 0.83318 0.37554 0.07294 0.0
C832 C 0.77575 0.38745 0.0499 0.0
C833 C 0.84128 0.40483 0.10235 0.0
C834 C 0.8172 0.42596 0.10533 0.0
C835 C 0.77 0.44808 0.07444 0.0
C836 C 0.74561 0.44637 0.04258 0.0
C837 C 0.78649 0.41969 0.07757 0.0
C838 C 0.73339 0.41295 1.01637 0.0
C839 C 0.74747 0.38303 1.0205 0.0
H840 H 0.42987 0.84114 0.11811 0.0
H841 H 0.45916 0.78132 1.02566 0.0
H842 H 0.38311 0.72857 1.01897 0.0
H843 H 0.30809 0.71186 0.02912 0.0
H844 H 0.27868 0.77233 0.12121 0.0
H845 H 0.35458 0.81192 0.13867 0.0
C846 C 0.41969 0.815 0.09802 0.0
C847 C 0.44987 0.81499 0.07252 0.0
C848 C 0.37565 0.78582 0.09334 0.0
C849 C 0.43649 0.78156 0.04602 0.0
C850 C 0.39284 0.75192 0.04161 0.0
C851 C 0.31832 0.73295 0.05353 0.0
C852 C 0.28831 0.74024 0.07315 0.0
C853 C 0.36204 0.75566 0.06343 0.0
C854 C 0.30145 0.7667 0.10535 0.0
C855 C 0.34486 0.78945 0.11532 0.0
H856 H 0.57458 0.30832 0.03013 0.0
H857 H 0.50701 0.29921 0.13407 0.0
H858 H 0.54789 0.37772 0.14087 0.0
H859 H 0.59155 0.44859 0.10923 0.0
H860 H 0.6537 0.45415 1.00298 0.0
H861 H 0.62862 0.37774 1.00612 0.0
C862 C 0.56976 0.32347 0.05484 0.0
C863 C 0.53754 0.29869 0.08111 0.0
C864 C 0.59309 0.36809 0.05838 0.0
C865 C 0.53163 0.31819 0.11331 0.0
C866 C 0.55485 0.36295 0.11711 0.0
C867 C 0.60135 0.43318 0.08804 0.0
C868 C 0.62607 0.45712 0.05683 0.0
C869 C 0.58422 0.38835 0.08879 0.0
C870 C 0.63705 0.4368 0.02842 0.0
C871 C 0.62162 0.39281 0.02963 0.0
H872 H 0.21115 0.52511 0.10332 0.0
H873 H 0.26829 0.57419 0.99352 0.0
H874 H 0.24012 0.6239 0.99376 0.0
H875 H 0.18707 0.641 1.01803 0.0
H876 H 0.12061 0.58553 0.12274 0.0
H877 H 0.16475 0.55095 0.13231 0.0
C878 C 0.21804 0.54738 0.07991 0.0
C879 C 0.24113 0.54573 0.0482 0.0
C880 C 0.19993 0.57452 0.07942 0.0
C881 C 0.24995 0.5745 1.01791 0.0
C882 C 0.234 0.60299 1.01809 0.0
C883 C 0.1844 0.62383 0.04424 0.0
C884 C 0.15207 0.61711 0.07041 0.0
C885 C 0.20743 0.60185 0.04784 0.0
C886 C 0.14641 0.59216 0.10294 0.0
C887 C 0.17107 0.57181 0.10793 0.0
H888 H 0.77732 0.42367 0.50381 0.0
H889 H 0.87951 0.4655 0.42191 0.0
H890 H 0.84867 0.39196 0.39827 0.0
H891 H 0.80572 0.31503 0.41587 0.0
H892 H 0.70487 0.27582 0.49952 0.0
H893 H 0.71986 0.34964 0.50588 0.0
C894 C 0.79012 0.41793 0.47803 0.0
C895 C 0.82993 0.44999 0.46409 0.0
C896 C 0.77312 0.37553 0.46593 0.0
C897 C 0.84844 0.44116 0.4327 0.0
C898 C 0.8313 0.39893 0.4198 0.0
C899 C 0.78625 0.32269 0.43452 0.0
C900 C 0.75503 0.29055 0.45798 0.0
C901 C 0.79577 0.3655 0.43858 0.0
C902 C 0.72915 0.30018 0.48139 0.0
C903 C 0.73795 0.34247 0.48522 0.0
H904 H 0.35357 0.80542 0.51073 0.0
H905 H 0.42006 0.89848 0.42255 0.0
H906 H 0.46399 0.86487 0.40897 0.0
H907 H 0.49396 0.82028 0.43343 0.0
H908 H 0.42708 0.72837 0.52287 0.0
H909 H 0.37121 0.74883 0.52379 0.0
C910 C 0.37481 0.8159 0.48627 0.0
C911 C 0.38269 0.85352 0.46693 0.0
C912 C 0.40098 0.79752 0.47994 0.0
C913 C 0.41284 0.86893 0.43718 0.0
C914 C 0.43857 0.85026 0.43004 0.0
C915 C 0.46661 0.80417 0.45251 0.0
C916 C 0.46498 0.77357 0.47863 0.0
C917 C 0.43479 0.81642 0.45307 0.0
C918 C 0.42907 0.75213 0.50266 0.0
C919 C 0.39722 0.76397 0.5033 0.0
H920 H 0.68849 0.45718 0.44772 0.0
H921 H 0.70514 0.41927 0.55999 0.0
H922 H 0.62788 0.37052 0.56532 0.0
H923 H 0.55619 0.35199 0.54418 0.0
H924 H 0.53727 0.39343 0.43486 0.0
H925 H 0.61487 0.42733 0.42176 0.0
C926 C 0.67517 0.4375 0.47296 0.0
C927 C 0.70216 0.44256 0.50384 0.0
C928 C 0.6304 0.41037 0.47629 0.0
C929 C 0.68478 0.41673 0.53628 0.0
C930 C 0.64066 0.38871 0.53928 0.0
C931 C 0.56868 0.36573 0.51642 0.0
C932 C 0.54111 0.36877 0.48987 0.0
C933 C 0.61312 0.38687 0.51024 0.0
C934 C 0.55791 0.38951 0.45509 0.0
C935 C 0.6023 0.40951 0.44798 0.0
H936 H 0.27869 0.68905 0.52355 0.0
H937 H 0.22886 0.71695 0.42265 0.0
H938 H 0.19057 0.64058 0.40628 0.0
H939 H 0.15939 0.56517 0.42852 0.0
H940 H 0.20654 0.53949 0.53207 0.0
H941 H 0.25853 0.61498 0.53879 0.0
C942 C 0.26024 0.67843 0.49753 0.0
C943 C 0.25567 0.70815 0.47485 0.0
C944 C 0.23803 0.63459 0.48854 0.0
C945 C 0.23247 0.6944 0.44079 0.0
C946 C 0.21043 0.65071 0.43147 0.0
C947 C 0.18294 0.57598 0.45114 0.0
C948 C 0.18032 0.54638 0.47879 0.0
C949 C 0.21137 0.62027 0.4561 0.0
C950 C 0.2096 0.56102 0.5091 0.0
C951 C 0.23859 0.60458 0.51365 0.0
H952 H 0.53086 0.21881 0.45734 0.0
H953 H 0.59732 0.28362 0.55932 0.0
H954 H 0.64355 0.25136 0.55439 0.0
H955 H 0.65459 0.19446 0.52879 0.0
H956 H 0.58147 0.12147 0.43258 0.0
H957 H 0.54937 0.16814 0.42635 0.0
C958 C 0.55631 0.22674 0.47781 0.0
C959 C 0.56045 0.253 0.50895 0.0
C960 C 0.58154 0.20657 0.47565 0.0
C961 C 0.59325 0.26296 0.53546 0.0
C962 C 0.61964 0.24454 0.53263 0.0
C963 C 0.63326 0.19016 0.50528 0.0
C964 C 0.6211 0.15535 0.48057 0.0
C965 C 0.61273 0.21487 0.50386 0.0
C966 C 0.59215 0.14889 0.45118 0.0
C967 C 0.57325 0.17507 0.44815 0.0
H968 H 0.44851 0.59661 0.4586 0.0
H969 H 0.44506 0.67045 0.55328 0.0
H970 H 0.36744 0.63958 0.54636 0.0
H971 H 0.3006 0.57716 0.52519 0.0
H972 H 0.30246 0.5032 0.42985 0.0
H973 H 0.38099 0.548 0.42525 0.0
C974 C 0.43095 0.60775 0.47608 0.0
C975 C 0.45197 0.63557 0.50631 0.0
C976 C 0.38607 0.58837 0.47289 0.0
C977 C 0.42929 0.64947 0.52946 0.0
C978 C 0.38482 0.63109 0.52605 0.0
C979 C 0.31809 0.57201 0.50255 0.0
C980 C 0.2965 0.5368 0.47839 0.0
C981 C 0.36274 0.59822 0.49975 0.0
C982 C 0.31899 0.5301 0.44898 0.0
C983 C 0.36373 0.55563 0.44638 0.0
H984 H 0.55072 0.09141 0.97865 0.0
H985 H 0.41487 0.02864 1.00344 0.0
H986 H 0.41009 0.95863 0.99692 0.0
H987 H 0.4473 0.91705 1.00112 0.0
H988 H 0.58593 0.98292 1.00081 0.0
H989 H 0.58783 0.04918 0.98024 0.0
C990 C 0.51972 0.06233 0.9814 0.0
C991 C 0.48278 0.0655 0.99067 0.0
C992 C 0.51852 0.02244 0.98288 0.0
C993 C 0.44324 0.02751 0.99473 0.0
C994 C 0.44087 0.98734 0.99201 0.0
C995 C 0.47804 0.94569 0.99563 0.0
C996 C 0.51665 0.9446 1.00144 0.0
C997 C 0.47873 0.98466 0.98858 0.0
C998 C 0.55598 0.98199 0.99447 0.0
C999 C 0.55688 0.02029 0.9838 0.0
H1000 H 0.45409 0.55392 0.95589 0.0
H1001 H 0.38598 0.41875 0.98315 0.0
H1002 H 0.45217 0.41559 0.97597 0.0
H1003 H 0.53045 0.45461 0.98056 0.0
H1004 H 0.59849 0.59311 0.97751 0.0
H1005 H 0.53313 0.59264 0.95622 0.0
C1006 C 0.45347 0.52337 0.95884 0.0
C1007 C 0.41448 0.48619 0.96924 0.0
C1008 C 0.49282 0.52329 0.96016 0.0
C1009 C 0.41451 0.44721 0.97352 0.0
C1010 C 0.45294 0.44585 0.97053 0.0
C1011 C 0.5313 0.48477 0.97415 0.0
C1012 C 0.5698 0.524 0.97988 0.0
C1013 C 0.49247 0.48419 0.96658 0.0
C1014 C 0.5703 0.56264 0.97168 0.0
C1015 C 0.53234 0.5622 0.96049 0.0
H1016 H 0.90501 0.45246 0.9722 0.0
H1017 H 0.98678 0.39628 0.98452 0.0
H1018 H 0.04934 0.46444 0.96665 0.0
H1019 H 0.08169 0.54246 0.97207 0.0
H1020 H -0.00016 0.59874 0.98277 0.0
H1021 H 0.93739 0.53044 0.9656 0.0
C1022 C 0.93636 0.45477 0.96901 0.0
C1023 C 0.94125 0.41929 0.97961 0.0
C1024 C 0.97274 0.49552 0.96393 0.0
C1025 C 0.98176 0.42241 0.97555 0.0
C1026 C 0.01786 0.46205 0.96642 0.0
C1027 C 0.05037 0.54013 0.96863 0.0
C1028 C 0.04537 0.57565 0.97857 0.0
C1029 C 0.01402 0.49935 0.96405 0.0
C1030 C 0.0049 0.57252 0.97427 0.0
C1031 C 0.96888 0.53284 0.96558 0.0
H1032 H 0.97589 0.55672 0.56297 0.0
H1033 H 0.88209 0.42347 0.58074 0.0
H1034 H 0.93909 0.40489 0.58466 0.0
H1035 H 0.01358 0.42572 0.56222 0.0
H1036 H 0.10834 0.56061 0.56025 0.0
H1037 H 0.05301 0.57964 0.57297 0.0
C1038 C 0.96785 0.52427 0.57101 0.0
C1039 C 0.92469 0.49148 0.57048 0.0
C1040 C 0.00098 0.51385 0.5749 0.0
C1041 C 0.91522 0.4494 0.58054 0.0
C1042 C 0.94783 0.43848 0.58212 0.0
C1043 C 0.02271 0.45904 0.5672 0.0
C1044 C 0.06472 0.49167 0.55845 0.0
C1045 C 0.99077 0.47016 0.57628 0.0
C1046 C 0.07579 0.53478 0.56554 0.0
C1047 C 0.04411 0.54592 0.57255 0.0
H1048 H 0.54872 0.08658 0.58007 0.0
H1049 H 0.60025 0.00091 0.56753 0.0
H1050 H 0.52965 0.93947 0.58202 0.0
H1051 H 0.45217 0.91076 0.57332 0.0
H1052 H 0.40146 -0.00251 0.56561 0.0
H1053 H 0.47084 0.05721 0.58515 0.0
C1054 C 0.54482 0.05455 0.58266 0.0
C1055 C 0.57946 0.04816 0.57226 0.0
C1056 C 0.50305 0.01921 0.58611 0.0
C1057 C 0.5744 0.00683 0.57574 0.0
C1058 C 0.53353 0.97151 0.583 0.0
C1059 C 0.45583 0.9424 0.57811 0.0
C1060 C 0.42165 0.94978 0.56841 0.0
C1061 C 0.49723 0.97721 0.58462 0.0
C1062 C 0.42666 0.99076 0.57407 0.0
C1063 C 0.46692 0.02515 0.58415 0.0
H1064 H 0.45335 0.54095 0.59844 0.0
H1065 H 0.58861 0.60478 0.5711 0.0
H1066 H 0.58875 0.53693 0.57795 0.0
H1067 H 0.54687 0.45878 0.57283 0.0
H1068 H 0.40835 0.39535 0.57748 0.0
H1069 H 0.41204 0.46207 0.59902 0.0
C1070 C 0.48327 0.54024 0.59547 0.0
C1071 C 0.52126 0.57834 0.58483 0.0
C1072 C 0.48163 0.50015 0.5943 0.0
C1073 C 0.5595 0.57678 0.58058 0.0
C1074 C 0.55914 0.53749 0.5835 0.0
C1075 C 0.51744 0.45924 0.57974 0.0
C1076 C 0.47723 0.42178 0.57401 0.0
C1077 C 0.51987 0.49881 0.58758 0.0
C1078 C 0.43951 0.42284 0.58294 0.0
C1079 C 0.4418 0.46154 0.59434 0.0
loop_
_geom_bond_atom_site_label_1
_geom_bond_atom_site_label_2
_geom_bond_distance
_geom_bond_site_symmetry_2
_ccdc_geom_bond_type
Zn0 N4 2.020 . S
Zn0 O8 2.019 . S
Zn0 N10 2.119 . S
Zn0 O18 1.975 . S
C1 N2 1.343 . S
C1 N5 1.336 . S
N2 C1 1.343 . S
N2 C3 1.325 1_554 S
C3 N2 1.325 1_556 S
C3 N4 1.336 . S
N4 Zn0 2.020 . S
N4 C3 1.336 . S
N4 N5 1.354 1_556 S
N5 C1 1.336 . S
N5 N4 1.354 1_554 S
N5 Zn9 2.020 . S
C6 O7 1.244 1_554 S
C6 O30 1.257 . S
O7 C6 1.244 1_556 S
O8 Zn0 2.019 . S
O8 C28 1.257 . S
Zn9 N5 2.020 . S
Zn9 O16 1.975 . S
Zn9 N25 2.119 . S
Zn9 O30 2.019 . S
N10 Zn0 2.119 . S
N10 C12 1.334 . S
N10 C13 1.328 . S
C11 C12 1.391 . S
C11 N14 1.329 . S
C11 H32 0.930 . S
C12 N10 1.334 . S
C12 C11 1.391 . S
C12 H19 0.930 . S
C13 N10 1.328 . S
C13 C15 1.392 . S
C13 H20 0.930 . S
N14 C11 1.329 . S
N14 C15 1.331 . S
C15 C13 1.392 . S
C15 N14 1.331 . S
O16 Zn9 1.975 . S
O16 C17 1.251 1_554 S
C17 O16 1.251 1_556 S
C17 O18 1.253 . S
O18 Zn0 1.975 . S
O18 C17 1.253 . S
H19 C12 0.930 . S
H20 C13 0.930 . S
C21 C22 1.392 . S
C21 N25 1.328 . S
C21 H27 0.930 . S
C22 C21 1.392 . S
C22 N26 1.331 . S
C23 C24 1.391 . S
C23 N26 1.329 . S
C23 H33 0.930 . S
C24 C23 1.391 . S
C24 N25 1.334 . S
C24 H31 0.930 . S
N25 Zn9 2.119 . S
N25 C21 1.328 . S
N25 C24 1.334 . S
N26 C22 1.331 . S
N26 C23 1.329 . S
H27 C21 0.930 . S
C28 O8 1.257 . S
C28 O29 1.244 1_556 S
O29 C28 1.244 1_554 S
O30 C6 1.257 . S
O30 Zn9 2.019 . S
H31 C24 0.930 . S
H32 C11 0.930 . S
H33 C23 0.930 . S
Zn34 N38 2.020 . S
Zn34 O42 2.019 . S
Zn34 N44 2.119 . S
Zn34 O52 1.975 . S
C35 N36 1.325 1_556 S
C35 N39 1.336 . S
N36 C35 1.325 1_554 S
N36 C37 1.343 . S
C37 N36 1.343 . S
C37 N38 1.336 . S
N38 Zn34 2.020 . S
N38 C37 1.336 . S
N38 N39 1.354 1_554 S
N39 C35 1.336 . S
N39 N38 1.354 1_556 S
N39 Zn43 2.020 . S
C40 O41 1.244 1_556 S
C40 O64 1.257 . S
O41 C40 1.244 1_554 S
O42 Zn34 2.019 . S
O42 C62 1.257 . S
Zn43 N39 2.020 . S
Zn43 O50 1.975 . S
Zn43 N59 2.119 . S
Zn43 O64 2.019 . S
N44 Zn34 2.119 . S
N44 C46 1.334 . S
N44 C47 1.328 . S
C45 C46 1.391 . S
C45 N48 1.329 . S
C45 H66 0.930 . S
C46 N44 1.334 . S
C46 C45 1.391 . S
C46 H53 0.930 . S
C47 N44 1.328 . S
C47 C49 1.392 . S
C47 H54 0.930 . S
N48 C45 1.329 . S
N48 C49 1.331 . S
C49 C47 1.392 . S
C49 N48 1.331 . S
O50 Zn43 1.975 . S
O50 C51 1.253 . S
C51 O50 1.253 . S
C51 O52 1.251 1_556 S
O52 Zn34 1.975 . S
O52 C51 1.251 1_554 S
H53 C46 0.930 . S
H54 C47 0.930 . S
C55 C56 1.392 . S
C55 N59 1.328 . S
C55 H61 0.930 . S
C56 C55 1.392 . S
C56 N60 1.331 . S
C57 C58 1.391 . S
C57 N60 1.329 . S
C57 H67 0.930 . S
C58 C57 1.391 . S
C58 N59 1.334 . S
C58 H65 0.930 . S
N59 Zn43 2.119 . S
N59 C55 1.328 . S
N59 C58 1.334 . S
N60 C56 1.331 . S
N60 C57 1.329 . S
H61 C55 0.930 . S
C62 O42 1.257 . S
C62 O63 1.244 1_554 S
O63 C62 1.244 1_556 S
O64 C40 1.257 . S
O64 Zn43 2.019 . S
H65 C58 0.930 . S
H66 C45 0.930 . S
H67 C57 0.930 . S
Zn68 N72 2.020 . S
Zn68 O76 2.019 . S
Zn68 N78 2.119 . S
Zn68 O86 1.975 . S
C69 N70 1.343 . S
C69 N73 1.336 . S
N70 C69 1.343 . S
N70 C71 1.325 1_554 S
C71 N70 1.325 1_556 S
C71 N72 1.336 . S
N72 Zn68 2.020 . S
N72 C71 1.336 . S
N72 N73 1.354 1_556 S
N73 C69 1.336 . S
N73 N72 1.354 1_554 S
N73 Zn77 2.020 . S
C74 O75 1.244 1_554 S
C74 O98 1.257 . S
O75 C74 1.244 1_556 S
O76 Zn68 2.019 . S
O76 C96 1.257 . S
Zn77 N73 2.020 . S
Zn77 O84 1.975 . S
Zn77 N93 2.119 . S
Zn77 O98 2.019 . S
N78 Zn68 2.119 . S
N78 C80 1.334 . S
N78 C81 1.328 . S
C79 C80 1.391 . S
C79 N82 1.329 . S
C79 H100 0.930 . S
C80 N78 1.334 . S
C80 C79 1.391 . S
C80 H87 0.930 . S
C81 N78 1.328 . S
C81 C83 1.392 . S
C81 H88 0.930 . S
N82 C79 1.329 . S
N82 C83 1.331 . S
C83 C81 1.392 . S
C83 N82 1.331 . S
O84 Zn77 1.975 . S
O84 C85 1.251 1_554 S
C85 O84 1.251 1_556 S
C85 O86 1.253 . S
O86 Zn68 1.975 . S
O86 C85 1.253 . S
H87 C80 0.930 . S
H88 C81 0.930 . S
C89 C90 1.392 . S
C89 N93 1.328 . S
C89 H95 0.930 . S
C90 C89 1.392 . S
C90 N94 1.331 . S
C91 C92 1.391 . S
C91 N94 1.329 . S
C91 H101 0.930 . S
C92 C91 1.391 . S
C92 N93 1.334 . S
C92 H99 0.930 . S
N93 Zn77 2.119 . S
N93 C89 1.328 . S
N93 C92 1.334 . S
N94 C90 1.331 . S
N94 C91 1.329 . S
H95 C89 0.930 . S
C96 O76 1.257 . S
C96 O97 1.244 1_556 S
O97 C96 1.244 1_554 S
O98 C74 1.257 . S
O98 Zn77 2.019 . S
H99 C92 0.930 . S
H100 C79 0.930 . S
H101 C91 0.930 . S
Zn102 N106 2.020 . S
Zn102 O110 2.019 . S
Zn102 N112 2.119 . S
Zn102 O120 1.975 . S
C103 N104 1.325 1_556 S
C103 N107 1.336 . S
N104 C103 1.325 1_554 S
N104 C105 1.343 . S
C105 N104 1.343 . S
C105 N106 1.336 . S
N106 Zn102 2.020 . S
N106 C105 1.336 . S
N106 N107 1.354 1_554 S
N107 C103 1.336 . S
N107 N106 1.354 1_556 S
N107 Zn111 2.020 . S
C108 O109 1.244 1_556 S
C108 O132 1.257 . S
O109 C108 1.244 1_554 S
O110 Zn102 2.019 . S
O110 C130 1.257 . S
Zn111 N107 2.020 . S
Zn111 O118 1.975 . S
Zn111 N127 2.119 . S
Zn111 O132 2.019 . S
N112 Zn102 2.119 . S
N112 C114 1.334 . S
N112 C115 1.328 . S
C113 C114 1.391 . S
C113 N116 1.329 . S
C113 H134 0.930 . S
C114 N112 1.334 . S
C114 C113 1.391 . S
C114 H121 0.930 . S
C115 N112 1.328 . S
C115 C117 1.392 . S
C115 H122 0.930 . S
N116 C113 1.329 . S
N116 C117 1.331 . S
C117 C115 1.392 . S
C117 N116 1.331 . S
O118 Zn111 1.975 . S
O118 C119 1.253 . S
C119 O118 1.253 . S
C119 O120 1.251 1_556 S
O120 Zn102 1.975 . S
O120 C119 1.251 1_554 S
H121 C114 0.930 . S
H122 C115 0.930 . S
C123 C124 1.392 . S
C123 N127 1.328 . S
C123 H129 0.930 . S
C124 C123 1.392 . S
C124 N128 1.331 . S
C125 C126 1.391 . S
C125 N128 1.329 . S
C125 H135 0.930 . S
C126 C125 1.391 . S
C126 N127 1.334 . S
C126 H133 0.930 . S
N127 Zn111 2.119 . S
N127 C123 1.328 . S
N127 C126 1.334 . S
N128 C124 1.331 . S
N128 C125 1.329 . S
H129 C123 0.930 . S
C130 O110 1.257 . S
C130 O131 1.244 1_554 S
O131 C130 1.244 1_556 S
O132 C108 1.257 . S
O132 Zn111 2.019 . S
H133 C126 0.930 . S
H134 C113 0.930 . S
H135 C125 0.930 . S
Zn136 N140 2.020 . S
Zn136 O144 2.019 . S
Zn136 N146 2.119 . S
Zn136 O154 1.975 . S
C137 N138 1.343 . S
C137 N141 1.336 . S
N138 C137 1.343 . S
N138 C139 1.325 1_554 S
C139 N138 1.325 1_556 S
C139 N140 1.336 . S
N140 Zn136 2.020 . S
N140 C139 1.336 . S
N140 N141 1.354 1_556 S
N141 C137 1.336 . S
N141 N140 1.354 1_554 S
N141 Zn145 2.020 . S
C142 O143 1.244 1_554 S
C142 O166 1.257 . S
O143 C142 1.244 1_556 S
O144 Zn136 2.019 . S
O144 C164 1.257 . S
Zn145 N141 2.020 . S
Zn145 O152 1.975 . S
Zn145 N161 2.119 . S
Zn145 O166 2.019 . S
N146 Zn136 2.119 . S
N146 C148 1.334 . S
N146 C149 1.328 . S
C147 C148 1.391 . S
C147 N150 1.329 . S
C147 H168 0.930 . S
C148 N146 1.334 . S
C148 C147 1.391 . S
C148 H155 0.930 . S
C149 N146 1.328 . S
C149 C151 1.392 . S
C149 H156 0.930 . S
N150 C147 1.329 . S
N150 C151 1.331 . S
C151 C149 1.392 . S
C151 N150 1.331 . S
O152 Zn145 1.975 . S
O152 C153 1.251 1_554 S
C153 O152 1.251 1_556 S
C153 O154 1.253 . S
O154 Zn136 1.975 . S
O154 C153 1.253 . S
H155 C148 0.930 . S
H156 C149 0.930 . S
C157 C158 1.392 . S
C157 N161 1.328 . S
C157 H163 0.930 . S
C158 C157 1.392 . S
C158 N162 1.331 . S
C159 C160 1.391 . S
C159 N162 1.329 . S
C159 H169 0.930 . S
C160 C159 1.391 . S
C160 N161 1.334 . S
C160 H167 0.930 . S
N161 Zn145 2.119 . S
N161 C157 1.328 . S
N161 C160 1.334 . S
N162 C158 1.331 . S
N162 C159 1.329 . S
H163 C157 0.930 . S
C164 O144 1.257 . S
C164 O165 1.244 1_556 S
O165 C164 1.244 1_554 S
O166 C142 1.257 . S
O166 Zn145 2.019 . S
H167 C160 0.930 . S
H168 C147 0.930 . S
H169 C159 0.930 . S
Zn170 N174 2.020 . S
Zn170 O178 2.019 . S
Zn170 N180 2.119 . S
Zn170 O188 1.975 . S
C171 N172 1.325 1_556 S
C171 N175 1.336 . S
N172 C171 1.325 1_554 S
N172 C173 1.343 . S
C173 N172 1.343 . S
C173 N174 1.336 . S
N174 Zn170 2.020 . S
N174 C173 1.336 . S
N174 N175 1.354 1_554 S
N175 C171 1.336 . S
N175 N174 1.354 1_556 S
N175 Zn179 2.020 . S
C176 O177 1.244 1_556 S
C176 O200 1.257 . S
O177 C176 1.244 1_554 S
O178 Zn170 2.019 . S
O178 C198 1.257 . S
Zn179 N175 2.020 . S
Zn179 O186 1.975 . S
Zn179 N195 2.119 . S
Zn179 O200 2.019 . S
N180 Zn170 2.119 . S
N180 C182 1.334 . S
N180 C183 1.328 . S
C181 C182 1.391 . S
C181 N184 1.329 . S
C181 H202 0.930 . S
C182 N180 1.334 . S
C182 C181 1.391 . S
C182 H189 0.930 . S
C183 N180 1.328 . S
C183 C185 1.392 . S
C183 H190 0.930 . S
N184 C181 1.329 . S
N184 C185 1.331 . S
C185 C183 1.392 . S
C185 N184 1.331 . S
O186 Zn179 1.975 . S
O186 C187 1.253 . S
C187 O186 1.253 . S
C187 O188 1.251 1_556 S
O188 Zn170 1.975 . S
O188 C187 1.251 1_554 S
H189 C182 0.930 . S
H190 C183 0.930 . S
C191 C192 1.392 . S
C191 N195 1.328 . S
C191 H197 0.930 . S
C192 C191 1.392 . S
C192 N196 1.331 . S
C193 C194 1.391 . S
C193 N196 1.329 . S
C193 H203 0.930 . S
C194 C193 1.391 . S
C194 N195 1.334 . S
C194 H201 0.930 . S
N195 Zn179 2.119 . S
N195 C191 1.328 . S
N195 C194 1.334 . S
N196 C192 1.331 . S
N196 C193 1.329 . S
H197 C191 0.930 . S
C198 O178 1.257 . S
C198 O199 1.244 1_554 S
O199 C198 1.244 1_556 S
O200 C176 1.257 . S
O200 Zn179 2.019 . S
H201 C194 0.930 . S
H202 C181 0.930 . S
H203 C193 0.930 . S
Zn204 N208 2.020 . S
Zn204 O212 2.019 . S
Zn204 N214 2.119 . S
Zn204 O222 1.975 . S
C205 N206 1.334 . S
C205 N209 1.336 . S
N206 C205 1.334 . S
N206 C207 1.334 . S
C207 N206 1.334 . S
C207 N208 1.336 . S
N208 Zn204 2.020 . S
N208 C207 1.336 . S
N208 N209 1.354 . S
N209 C205 1.336 . S
N209 N208 1.354 . S
N209 Zn213 2.020 . S
C210 O211 1.244 . S
C210 O234 1.257 . S
O211 C210 1.244 . S
O212 Zn204 2.019 . S
O212 C232 1.257 . S
Zn213 N209 2.020 . S
Zn213 O220 1.975 . S
Zn213 N229 2.119 . S
Zn213 O234 2.019 . S
N214 Zn204 2.119 . S
N214 C216 1.334 . S
N214 C217 1.328 . S
C215 C216 1.391 . S
C215 N218 1.329 . S
C215 H236 0.930 . S
C216 N214 1.334 . S
C216 C215 1.391 . S
C216 H223 0.930 . S
C217 N214 1.328 . S
C217 C219 1.392 . S
C217 H224 0.930 . S
N218 C215 1.329 . S
N218 C219 1.331 . S
C219 C217 1.392 . S
C219 N218 1.331 . S
O220 Zn213 1.975 . S
O220 C221 1.252 . S
C221 O220 1.252 . S
C221 O222 1.252 . S
O222 Zn204 1.975 . S
O222 C221 1.252 . S
H223 C216 0.930 . S
H224 C217 0.930 . S
C225 C226 1.392 . S
C225 N229 1.328 . S
C225 H231 0.930 . S
C226 C225 1.392 . S
C226 N230 1.331 . S
C227 C228 1.391 . S
C227 N230 1.329 . S
C227 H237 0.930 . S
C228 C227 1.391 . S
C228 N229 1.334 . S
C228 H235 0.930 . S
N229 Zn213 2.119 . S
N229 C225 1.328 . S
N229 C228 1.334 . S
N230 C226 1.331 . S
N230 C227 1.329 . S
H231 C225 0.930 . S
C232 O212 1.257 . S
C232 O233 1.244 . S
O233 C232 1.244 . S
O234 C210 1.257 . S
O234 Zn213 2.019 . S
H235 C228 0.930 . S
H236 C215 0.930 . S
H237 C227 0.930 . S
Zn238 N242 2.020 . S
Zn238 O246 2.019 . S
Zn238 N248 2.119 . S
Zn238 O256 1.975 . S
C239 N240 1.334 . S
C239 N243 1.336 . S
N240 C239 1.334 . S
N240 C241 1.334 . S
C241 N240 1.334 . S
C241 N242 1.336 . S
N242 Zn238 2.020 . S
N242 C241 1.336 . S
N242 N243 1.354 . S
N243 C239 1.336 . S
N243 N242 1.354 . S
N243 Zn247 2.020 . S
C244 O245 1.244 . S
C244 O268 1.257 . S
O245 C244 1.244 . S
O246 Zn238 2.019 . S
O246 C266 1.257 . S
Zn247 N243 2.020 . S
Zn247 O254 1.975 . S
Zn247 N263 2.119 . S
Zn247 O268 2.019 . S
N248 Zn238 2.119 . S
N248 C250 1.334 . S
N248 C251 1.328 . S
C249 C250 1.391 . S
C249 N252 1.329 . S
C249 H270 0.930 . S
C250 N248 1.334 . S
C250 C249 1.391 . S
C250 H257 0.930 . S
C251 N248 1.328 . S
C251 C253 1.392 . S
C251 H258 0.930 . S
N252 C249 1.329 . S
N252 C253 1.331 . S
C253 C251 1.392 . S
C253 N252 1.331 . S
O254 Zn247 1.975 . S
O254 C255 1.252 . S
C255 O254 1.252 . S
C255 O256 1.252 . S
O256 Zn238 1.975 . S
O256 C255 1.252 . S
H257 C250 0.930 . S
H258 C251 0.930 . S
C259 C260 1.392 . S
C259 N263 1.328 . S
C259 H265 0.930 . S
C260 C259 1.392 . S
C260 N264 1.331 . S
C261 C262 1.391 . S
C261 N264 1.329 . S
C261 H271 0.930 . S
C262 C261 1.391 . S
C262 N263 1.334 . S
C262 H269 0.930 . S
N263 Zn247 2.119 . S
N263 C259 1.328 . S
N263 C262 1.334 . S
N264 C260 1.331 . S
N264 C261 1.329 . S
H265 C259 0.930 . S
C266 O246 1.257 . S
C266 O267 1.244 . S
O267 C266 1.244 . S
O268 C244 1.257 . S
O268 Zn247 2.019 . S
H269 C262 0.930 . S
H270 C249 0.930 . S
H271 C261 0.930 . S
Zn272 N276 2.020 . S
Zn272 O280 2.019 . S
Zn272 N282 2.119 . S
Zn272 O290 1.975 . S
C273 N274 1.334 . S
C273 N277 1.336 . S
N274 C273 1.334 . S
N274 C275 1.334 . S
C275 N274 1.334 . S
C275 N276 1.336 . S
N276 Zn272 2.020 . S
N276 C275 1.336 . S
N276 N277 1.354 . S
N277 C273 1.336 . S
N277 N276 1.354 . S
N277 Zn281 2.020 . S
C278 O279 1.244 . S
C278 O302 1.257 . S
O279 C278 1.244 . S
O280 Zn272 2.019 . S
O280 C300 1.257 . S
Zn281 N277 2.020 . S
Zn281 O288 1.975 . S
Zn281 N297 2.119 . S
Zn281 O302 2.019 . S
N282 Zn272 2.119 . S
N282 C284 1.334 . S
N282 C285 1.328 . S
C283 C284 1.391 . S
C283 N286 1.329 . S
C283 H304 0.930 . S
C284 N282 1.334 . S
C284 C283 1.391 . S
C284 H291 0.930 . S
C285 N282 1.328 . S
C285 C287 1.392 . S
C285 H292 0.930 . S
N286 C283 1.329 . S
N286 C287 1.331 . S
C287 C285 1.392 . S
C287 N286 1.331 . S
O288 Zn281 1.975 . S
O288 C289 1.252 . S
C289 O288 1.252 . S
C289 O290 1.252 . S
O290 Zn272 1.975 . S
O290 C289 1.252 . S
H291 C284 0.930 . S
H292 C285 0.930 . S
C293 C294 1.392 . S
C293 N297 1.328 . S
C293 H299 0.930 . S
C294 C293 1.392 . S
C294 N298 1.331 . S
C295 C296 1.391 . S
C295 N298 1.329 . S
C295 H305 0.930 . S
C296 C295 1.391 . S
C296 N297 1.334 . S
C296 H303 0.930 . S
N297 Zn281 2.119 . S
N297 C293 1.328 . S
N297 C296 1.334 . S
N298 C294 1.331 . S
N298 C295 1.329 . S
H299 C293 0.930 . S
C300 O280 1.257 . S
C300 O301 1.244 . S
O301 C300 1.244 . S
O302 C278 1.257 . S
O302 Zn281 2.019 . S
H303 C296 0.930 . S
H304 C283 0.930 . S
H305 C295 0.930 . S
Zn306 N310 2.020 . S
Zn306 O314 2.019 . S
Zn306 N316 2.119 . S
Zn306 O324 1.975 . S
C307 N308 1.334 . S
C307 N311 1.336 . S
N308 C307 1.334 . S
N308 C309 1.334 . S
C309 N308 1.334 . S
C309 N310 1.336 . S
N310 Zn306 2.020 . S
N310 C309 1.336 . S
N310 N311 1.354 . S
N311 C307 1.336 . S
N311 N310 1.354 . S
N311 Zn315 2.020 . S
C312 O313 1.244 . S
C312 O336 1.257 . S
O313 C312 1.244 . S
O314 Zn306 2.019 . S
O314 C334 1.257 . S
Zn315 N311 2.020 . S
Zn315 O322 1.975 . S
Zn315 N331 2.119 . S
Zn315 O336 2.019 . S
N316 Zn306 2.119 . S
N316 C318 1.334 . S
N316 C319 1.328 . S
C317 C318 1.391 . S
C317 N320 1.329 . S
C317 H338 0.930 . S
C318 N316 1.334 . S
C318 C317 1.391 . S
C318 H325 0.930 . S
C319 N316 1.328 . S
C319 C321 1.392 . S
C319 H326 0.930 . S
N320 C317 1.329 . S
N320 C321 1.331 . S
C321 C319 1.392 . S
C321 N320 1.331 . S
O322 Zn315 1.975 . S
O322 C323 1.252 . S
C323 O322 1.252 . S
C323 O324 1.252 . S
O324 Zn306 1.975 . S
O324 C323 1.252 . S
H325 C318 0.930 . S
H326 C319 0.930 . S
C327 C328 1.392 . S
C327 N331 1.328 . S
C327 H333 0.930 . S
C328 C327 1.392 . S
C328 N332 1.331 . S
C329 C330 1.391 . S
C329 N332 1.329 . S
C329 H339 0.930 . S
C330 C329 1.391 . S
C330 N331 1.334 . S
C330 H337 0.930 . S
N331 Zn315 2.119 . S
N331 C327 1.328 . S
N331 C330 1.334 . S
N332 C328 1.331 . S
N332 C329 1.329 . S
H333 C327 0.930 . S
C334 O314 1.257 . S
C334 O335 1.244 . S
O335 C334 1.244 . S
O336 C312 1.257 . S
O336 Zn315 2.019 . S
H337 C330 0.930 . S
H338 C317 0.930 . S
H339 C329 0.930 . S
Zn340 N344 2.020 . S
Zn340 O348 2.019 . S
Zn340 N350 2.119 . S
Zn340 O358 1.975 . S
C341 N342 1.334 . S
C341 N345 1.336 . S
N342 C341 1.334 . S
N342 C343 1.334 . S
C343 N342 1.334 . S
C343 N344 1.336 . S
N344 Zn340 2.020 . S
N344 C343 1.336 . S
N344 N345 1.354 . S
N345 C341 1.336 . S
N345 N344 1.354 . S
N345 Zn349 2.020 . S
C346 O347 1.244 . S
C346 O370 1.257 . S
O347 C346 1.244 . S
O348 Zn340 2.019 . S
O348 C368 1.257 . S
Zn349 N345 2.020 . S
Zn349 O356 1.975 . S
Zn349 N365 2.119 . S
Zn349 O370 2.019 . S
N350 Zn340 2.119 . S
N350 C352 1.334 . S
N350 C353 1.328 . S
C351 C352 1.391 . S
C351 N354 1.329 . S
C351 H372 0.930 . S
C352 N350 1.334 . S
C352 C351 1.391 . S
C352 H359 0.930 . S
C353 N350 1.328 . S
C353 C355 1.392 . S
C353 H360 0.930 . S
N354 C351 1.329 . S
N354 C355 1.331 . S
C355 C353 1.392 . S
C355 N354 1.331 . S
O356 Zn349 1.975 . S
O356 C357 1.252 . S
C357 O356 1.252 . S
C357 O358 1.252 . S
O358 Zn340 1.975 . S
O358 C357 1.252 . S
H359 C352 0.930 . S
H360 C353 0.930 . S
C361 C362 1.392 . S
C361 N365 1.328 . S
C361 H367 0.930 . S
C362 C361 1.392 . S
C362 N366 1.331 . S
C363 C364 1.391 . S
C363 N366 1.329 . S
C363 H373 0.930 . S
C364 C363 1.391 . S
C364 N365 1.334 . S
C364 H371 0.930 . S
N365 Zn349 2.119 . S
N365 C361 1.328 . S
N365 C364 1.334 . S
N366 C362 1.331 . S
N366 C363 1.329 . S
H367 C361 0.930 . S
C368 O348 1.257 . S
C368 O369 1.244 . S
O369 C368 1.244 . S
O370 C346 1.257 . S
O370 Zn349 2.019 . S
H371 C364 0.930 . S
H372 C351 0.930 . S
H373 C363 0.930 . S
Zn374 N378 2.020 . S
Zn374 O382 2.019 . S
Zn374 N384 2.119 . S
Zn374 O392 1.975 . S
C375 N376 1.334 . S
C375 N379 1.336 . S
N376 C375 1.334 . S
N376 C377 1.334 . S
C377 N376 1.334 . S
C377 N378 1.336 . S
N378 Zn374 2.020 . S
N378 C377 1.336 . S
N378 N379 1.354 . S
N379 C375 1.336 . S
N379 N378 1.354 . S
N379 Zn383 2.020 . S
C380 O381 1.244 . S
C380 O404 1.257 . S
O381 C380 1.244 . S
O382 Zn374 2.019 . S
O382 C402 1.257 . S
Zn383 N379 2.020 . S
Zn383 O390 1.975 . S
Zn383 N399 2.119 . S
Zn383 O404 2.019 . S
N384 Zn374 2.119 . S
N384 C386 1.334 . S
N384 C387 1.328 . S
C385 C386 1.391 . S
C385 N388 1.329 . S
C385 H406 0.930 . S
C386 N384 1.334 . S
C386 C385 1.391 . S
C386 H393 0.930 . S
C387 N384 1.328 . S
C387 C389 1.392 . S
C387 H394 0.930 . S
N388 C385 1.329 . S
N388 C389 1.331 . S
C389 C387 1.392 . S
C389 N388 1.331 . S
O390 Zn383 1.975 . S
O390 C391 1.252 . S
C391 O390 1.252 . S
C391 O392 1.252 . S
O392 Zn374 1.975 . S
O392 C391 1.252 . S
H393 C386 0.930 . S
H394 C387 0.930 . S
C395 C396 1.392 . S
C395 N399 1.328 . S
C395 H401 0.930 . S
C396 C395 1.392 . S
C396 N400 1.331 . S
C397 C398 1.391 . S
C397 N400 1.329 . S
C397 H407 0.930 . S
C398 C397 1.391 . S
C398 N399 1.334 . S
C398 H405 0.930 . S
N399 Zn383 2.119 . S
N399 C395 1.328 . S
N399 C398 1.334 . S
N400 C396 1.331 . S
N400 C397 1.329 . S
H401 C395 0.930 . S
C402 O382 1.257 . S
C402 O403 1.244 . S
O403 C402 1.244 . S
O404 C380 1.257 . S
O404 Zn383 2.019 . S
H405 C398 0.930 . S
H406 C385 0.930 . S
H407 C397 0.930 . S
H408 C414 0.930 . S
H409 C417 0.930 1_545 S
H410 C418 0.941 . S
H411 C419 0.930 . S
H412 C422 0.930 . S
H413 C423 0.930 . S
C414 H408 0.930 . S
C414 C415 1.355 1_565 S
C414 C416 1.415 . S
C415 C414 1.355 1_545 S
C415 C417 1.419 1_545 S
C416 C414 1.415 . S
C416 C421 1.425 . S
C416 C423 1.409 . S
C417 H409 0.930 1_565 S
C417 C415 1.419 1_565 S
C417 C418 1.357 1_556 S
C418 H410 0.941 . S
C418 C417 1.357 1_554 S
C418 C421 1.405 1_554 S
C419 H411 0.930 . S
C419 C420 1.355 1_554 S
C419 C421 1.415 1_554 S
C420 C419 1.355 1_556 S
C420 C422 1.419 . S
C421 C416 1.425 . S
C421 C418 1.405 1_556 S
C421 C419 1.415 1_556 S
C422 H412 0.930 . S
C422 C420 1.419 . S
C422 C423 1.362 . S
C423 H413 0.930 . S
C423 C416 1.409 . S
C423 C422 1.362 . S
H424 C430 0.930 . S
H425 C433 0.930 . S
H426 C434 0.930 . S
H427 C435 0.930 . S
H428 C438 0.930 . S
H429 C439 0.930 . S
C430 H424 0.930 . S
C430 C431 1.355 . S
C430 C432 1.415 . S
C431 C430 1.355 . S
C431 C433 1.419 1_556 S
C432 C430 1.415 . S
C432 C437 1.425 1_556 S
C432 C439 1.409 . S
C433 H425 0.930 . S
C433 C431 1.419 1_554 S
C433 C434 1.362 . S
C434 H426 0.930 . S
C434 C433 1.362 . S
C434 C437 1.409 . S
C435 H427 0.930 . S
C435 C436 1.355 1_554 S
C435 C437 1.415 . S
C436 C435 1.355 1_556 S
C436 C438 1.419 . S
C437 C432 1.425 1_554 S
C437 C434 1.409 . S
C437 C435 1.415 . S
C438 H428 0.930 . S
C438 C436 1.419 . S
C438 C439 1.362 . S
C439 H429 0.930 . S
C439 C432 1.409 . S
C439 C438 1.362 . S
H440 C446 0.930 1_554 S
H441 C449 0.930 1_655 S
H442 C450 0.930 . S
H443 C451 0.930 . S
H444 C454 0.930 . S
H445 C455 0.930 . S
C446 H440 0.930 1_556 S
C446 C447 1.355 1_455 S
C446 C448 1.415 . S
C447 C446 1.355 1_655 S
C447 C449 1.419 1_655 S
C448 C446 1.415 . S
C448 C453 1.425 . S
C448 C455 1.409 1_556 S
C449 H441 0.930 1_455 S
C449 C447 1.419 1_455 S
C449 C450 1.362 . S
C450 H442 0.930 . S
C450 C449 1.362 . S
C450 C453 1.409 . S
C451 H443 0.930 . S
C451 C452 1.355 1_556 S
C451 C453 1.415 . S
C452 C451 1.355 1_554 S
C452 C454 1.419 . S
C453 C448 1.425 . S
C453 C450 1.409 . S
C453 C451 1.415 . S
C454 H444 0.930 . S
C454 C452 1.419 . S
C454 C455 1.362 . S
C455 H445 0.930 . S
C455 C448 1.409 1_554 S
C455 C454 1.362 . S
H456 C462 0.930 . S
H457 C465 0.930 . S
H458 C466 0.930 . S
H459 C467 0.930 . S
H460 C470 0.930 . S
H461 C471 0.930 . S
C462 H456 0.930 . S
C462 C463 1.355 1_544 S
C462 C464 1.415 . S
C463 C462 1.355 1_566 S
C463 C465 1.419 1_565 S
C464 C462 1.415 . S
C464 C469 1.425 1_554 S
C464 C471 1.409 . S
C465 H457 0.930 . S
C465 C463 1.419 1_545 S
C465 C466 1.362 . S
C466 H458 0.930 . S
C466 C465 1.362 . S
C466 C469 1.409 . S
C467 H459 0.930 . S
C467 C468 1.355 1_556 S
C467 C469 1.415 . S
C468 C467 1.355 1_554 S
C468 C470 1.419 . S
C469 C464 1.425 1_556 S
C469 C466 1.409 . S
C469 C467 1.415 . S
C470 H460 0.930 . S
C470 C468 1.419 . S
C470 C471 1.362 . S
C471 H461 0.930 . S
C471 C464 1.409 . S
C471 C470 1.362 . S
H472 C478 0.930 . S
H473 C481 0.930 . S
H474 C482 0.930 . S
H475 C483 0.930 . S
H476 C486 0.930 . S
H477 C487 0.930 . S
C478 H472 0.930 . S
C478 C479 1.355 1_554 S
C478 C480 1.415 . S
C479 C478 1.355 1_556 S
C479 C481 1.419 . S
C480 C478 1.415 . S
C480 C485 1.425 1_554 S
C480 C487 1.409 . S
C481 H473 0.930 . S
C481 C479 1.419 . S
C481 C482 1.362 . S
C482 H474 0.930 . S
C482 C481 1.362 . S
C482 C485 1.409 . S
C483 H475 0.930 . S
C483 C484 1.355 1_556 S
C483 C485 1.415 . S
C484 C483 1.355 1_554 S
C484 C486 1.419 . S
C485 C480 1.425 1_556 S
C485 C482 1.409 . S
C485 C483 1.415 . S
C486 H476 0.930 . S
C486 C484 1.419 . S
C486 C487 1.362 . S
C487 H477 0.930 . S
C487 C480 1.409 . S
C487 C486 1.362 . S
H488 C494 0.930 1_554 S
H489 C497 0.930 1_455 S
H490 C498 0.930 . S
H491 C499 0.930 . S
H492 C502 0.930 . S
H493 C503 0.930 . S
C494 H488 0.930 1_556 S
C494 C495 1.355 1_655 S
C494 C496 1.415 . S
C495 C494 1.355 1_455 S
C495 C497 1.419 1_455 S
C496 C494 1.415 . S
C496 C501 1.429 . S
C496 C503 1.405 1_556 S
C497 H489 0.930 1_655 S
C497 C495 1.419 1_655 S
C497 C498 1.362 . S
C498 H490 0.930 . S
C498 C497 1.362 . S
C498 C501 1.409 . S
C499 H491 0.930 . S
C499 C500 1.355 1_556 S
C499 C501 1.415 . S
C500 C499 1.355 1_554 S
C500 C502 1.419 . S
C501 C496 1.429 . S
C501 C498 1.409 . S
C501 C499 1.415 . S
C502 H492 0.930 . S
C502 C500 1.419 . S
C502 C503 1.362 . S
C503 H493 0.930 . S
C503 C496 1.405 1_554 S
C503 C502 1.362 . S
H504 C510 0.930 . S
H505 C513 0.930 1_655 S
H506 C514 0.930 . S
H507 C515 0.930 . S
H508 C518 0.930 . S
H509 C519 0.930 . S
C510 H504 0.930 . S
C510 C511 1.355 1_455 S
C510 C512 1.415 . S
C511 C510 1.355 1_655 S
C511 C513 1.419 1_655 S
C512 C510 1.415 . S
C512 C517 1.425 . S
C512 C519 1.409 . S
C513 H505 0.930 1_455 S
C513 C511 1.419 1_455 S
C513 C514 1.362 . S
C514 H506 0.930 . S
C514 C513 1.362 . S
C514 C517 1.409 . S
C515 H507 0.930 . S
C515 C516 1.355 . S
C515 C517 1.415 . S
C516 C515 1.355 . S
C516 C518 1.419 . S
C517 C512 1.425 . S
C517 C514 1.409 . S
C517 C515 1.415 . S
C518 H508 0.930 . S
C518 C516 1.419 . S
C518 C519 1.362 . S
C519 H509 0.930 . S
C519 C512 1.409 . S
C519 C518 1.362 . S
H520 C526 0.930 . S
H521 C529 0.930 1_565 S
H522 C530 0.930 . S
H523 C531 0.930 . S
H524 C534 0.930 . S
H525 C535 0.930 . S
C526 H520 0.930 . S
C526 C527 1.355 1_545 S
C526 C528 1.415 . S
C527 C526 1.355 1_565 S
C527 C529 1.419 1_565 S
C528 C526 1.415 . S
C528 C533 1.425 . S
C528 C535 1.409 . S
C529 H521 0.930 1_545 S
C529 C527 1.419 1_545 S
C529 C530 1.362 . S
C530 H522 0.930 . S
C530 C529 1.362 . S
C530 C533 1.409 . S
C531 H523 0.930 . S
C531 C532 1.355 . S
C531 C533 1.415 . S
C532 C531 1.355 . S
C532 C534 1.419 . S
C533 C528 1.425 . S
C533 C530 1.409 . S
C533 C531 1.415 . S
C534 H524 0.930 . S
C534 C532 1.419 . S
C534 C535 1.362 . S
C535 H525 0.930 . S
C535 C528 1.409 . S
C535 C534 1.362 . S
H536 C542 0.930 . S
H537 C545 0.930 . S
H538 C546 0.930 . S
H539 C547 0.930 . S
H540 C550 0.930 . S
H541 C551 0.930 . S
C542 H536 0.930 . S
C542 C543 1.355 . S
C542 C544 1.415 . S
C543 C542 1.355 . S
C543 C545 1.419 . S
C544 C542 1.415 . S
C544 C549 1.425 . S
C544 C551 1.409 . S
C545 H537 0.930 . S
C545 C543 1.419 . S
C545 C546 1.362 . S
C546 H538 0.930 . S
C546 C545 1.362 . S
C546 C549 1.409 . S
C547 H539 0.930 . S
C547 C548 1.355 . S
C547 C549 1.415 . S
C548 C547 1.355 . S
C548 C550 1.419 . S
C549 C544 1.425 . S
C549 C546 1.409 . S
C549 C547 1.415 . S
C550 H540 0.930 . S
C550 C548 1.419 . S
C550 C551 1.362 . S
C551 H541 0.930 . S
C551 C544 1.409 . S
C551 C550 1.362 . S
H552 C558 0.930 . S
H553 C561 0.930 . S
H554 C562 0.930 . S
H555 C563 0.930 . S
H556 C566 0.930 . S
H557 C567 0.930 . S
C558 H552 0.930 . S
C558 C559 1.355 . S
C558 C560 1.415 . S
C559 C558 1.355 . S
C559 C561 1.419 . S
C560 C558 1.415 . S
C560 C565 1.425 . S
C560 C567 1.409 . S
C561 H553 0.930 . S
C561 C559 1.419 . S
C561 C562 1.362 . S
C562 H554 0.930 . S
C562 C561 1.362 . S
C562 C565 1.409 . S
C563 H555 0.930 . S
C563 C564 1.355 1_655 S
C563 C565 1.415 . S
C564 C563 1.355 1_455 S
C564 C566 1.419 1_455 S
C565 C560 1.425 . S
C565 C562 1.409 . S
C565 C563 1.415 . S
C566 H556 0.930 . S
C566 C564 1.419 1_655 S
C566 C567 1.362 . S
C567 H557 0.930 . S
C567 C560 1.409 . S
C567 C566 1.362 . S
H568 C574 0.930 . S
H569 C577 0.930 . S
H570 C578 0.930 . S
H571 C579 0.930 . S
H572 C582 0.930 . S
H573 C583 0.930 . S
C574 H568 0.930 . S
C574 C575 1.355 . S
C574 C576 1.415 . S
C575 C574 1.355 . S
C575 C577 1.419 . S
C576 C574 1.415 . S
C576 C581 1.425 . S
C576 C583 1.409 . S
C577 H569 0.930 . S
C577 C575 1.419 . S
C577 C578 1.362 . S
C578 H570 0.930 . S
C578 C577 1.362 . S
C578 C581 1.409 . S
C579 H571 0.930 . S
C579 C580 1.355 1_565 S
C579 C581 1.415 . S
C580 C579 1.355 1_545 S
C580 C582 1.419 1_545 S
C581 C576 1.425 . S
C581 C578 1.409 . S
C581 C579 1.415 . S
C582 H572 0.930 . S
C582 C580 1.419 1_565 S
C582 C583 1.362 . S
C583 H573 0.930 . S
C583 C576 1.409 . S
C583 C582 1.362 . S
H584 C590 0.930 . S
H585 C593 0.930 . S
H586 C594 0.930 . S
H587 C595 0.930 . S
H588 C598 0.930 . S
H589 C599 0.930 . S
C590 H584 0.930 . S
C590 C591 1.355 . S
C590 C592 1.415 . S
C591 C590 1.355 . S
C591 C593 1.419 . S
C592 C590 1.415 . S
C592 C597 1.425 . S
C592 C599 1.409 . S
C593 H585 0.930 . S
C593 C591 1.419 . S
C593 C594 1.362 . S
C594 H586 0.930 . S
C594 C593 1.362 . S
C594 C597 1.409 . S
C595 H587 0.930 . S
C595 C596 1.355 . S
C595 C597 1.415 . S
C596 C595 1.355 . S
C596 C598 1.419 . S
C597 C592 1.425 . S
C597 C594 1.409 . S
C597 C595 1.415 . S
C598 H588 0.930 . S
C598 C596 1.419 . S
C598 C599 1.362 . S
C599 H589 0.930 . S
C599 C592 1.409 . S
C599 C598 1.362 . S
H600 C606 0.930 . S
H601 C609 0.930 . S
H602 C610 0.930 . S
H603 C611 0.930 . S
H604 C614 0.930 . S
H605 C615 0.930 . S
C606 H600 0.930 . S
C606 C607 1.355 . S
C606 C608 1.415 . S
C607 C606 1.355 . S
C607 C609 1.419 . S
C608 C606 1.415 . S
C608 C613 1.425 . S
C608 C615 1.409 . S
C609 H601 0.930 . S
C609 C607 1.419 . S
C609 C610 1.362 . S
C610 H602 0.930 . S
C610 C609 1.362 . S
C610 C613 1.409 . S
C611 H603 0.930 . S
C611 C612 1.355 . S
C611 C613 1.415 . S
C612 C611 1.355 . S
C612 C614 1.419 . S
C613 C608 1.425 . S
C613 C610 1.409 . S
C613 C611 1.415 . S
C614 H604 0.930 . S
C614 C612 1.419 . S
C614 C615 1.362 . S
C615 H605 0.930 . S
C615 C608 1.409 . S
C615 C614 1.362 . S
H616 C622 0.930 . S
H617 C625 0.930 . S
H618 C626 0.930 . S
H619 C627 0.930 . S
H620 C630 0.930 . S
H621 C631 0.930 . S
C622 H616 0.930 . S
C622 C623 1.355 . S
C622 C624 1.415 . S
C623 C622 1.355 . S
C623 C625 1.419 . S
C624 C622 1.415 . S
C624 C629 1.425 . S
C624 C631 1.409 . S
C625 H617 0.930 . S
C625 C623 1.419 . S
C625 C626 1.362 . S
C626 H618 0.930 . S
C626 C625 1.362 . S
C626 C629 1.409 . S
C627 H619 0.930 . S
C627 C628 1.355 . S
C627 C629 1.415 . S
C628 C627 1.355 . S
C628 C630 1.419 . S
C629 C624 1.425 . S
C629 C626 1.409 . S
C629 C627 1.415 . S
C630 H620 0.930 . S
C630 C628 1.419 . S
C630 C631 1.362 . S
C631 H621 0.930 . S
C631 C624 1.409 . S
C631 C630 1.362 . S
H632 C638 0.930 . S
H633 C641 0.930 . S
H634 C642 0.930 . S
H635 C643 0.930 . S
H636 C646 0.930 . S
H637 C647 0.930 . S
C638 H632 0.930 . S
C638 C639 1.355 . S
C638 C640 1.415 . S
C639 C638 1.355 . S
C639 C641 1.419 . S
C640 C638 1.415 . S
C640 C645 1.425 . S
C640 C647 1.409 . S
C641 H633 0.930 . S
C641 C639 1.419 . S
C641 C642 1.362 . S
C642 H634 0.930 . S
C642 C641 1.362 . S
C642 C645 1.409 . S
C643 H635 0.930 . S
C643 C644 1.355 . S
C643 C645 1.415 . S
C644 C643 1.355 . S
C644 C646 1.419 . S
C645 C640 1.425 . S
C645 C642 1.409 . S
C645 C643 1.415 . S
C646 H636 0.930 . S
C646 C644 1.419 . S
C646 C647 1.362 . S
C647 H637 0.930 . S
C647 C640 1.409 . S
C647 C646 1.362 . S
H648 C654 0.930 . S
H649 C657 0.930 . S
H650 C658 0.930 . S
H651 C659 0.930 . S
H652 C662 0.930 . S
H653 C663 0.930 . S
C654 H648 0.930 . S
C654 C655 1.355 . S
C654 C656 1.415 . S
C655 C654 1.355 . S
C655 C657 1.419 . S
C656 C654 1.415 . S
C656 C661 1.425 . S
C656 C663 1.409 . S
C657 H649 0.930 . S
C657 C655 1.419 . S
C657 C658 1.362 . S
C658 H650 0.930 . S
C658 C657 1.362 . S
C658 C661 1.409 . S
C659 H651 0.930 . S
C659 C660 1.355 . S
C659 C661 1.415 . S
C660 C659 1.355 . S
C660 C662 1.419 . S
C661 C656 1.425 . S
C661 C658 1.409 . S
C661 C659 1.415 . S
C662 H652 0.930 . S
C662 C660 1.419 . S
C662 C663 1.362 . S
C663 H653 0.930 . S
C663 C656 1.409 . S
C663 C662 1.362 . S
H664 C670 0.930 . S
H665 C673 0.930 . S
H666 C674 0.930 . S
H667 C675 0.930 . S
H668 C678 0.930 . S
H669 C679 0.930 . S
C670 H664 0.930 . S
C670 C671 1.355 . S
C670 C672 1.415 . S
C671 C670 1.355 . S
C671 C673 1.419 . S
C672 C670 1.415 . S
C672 C677 1.425 . S
C672 C679 1.409 . S
C673 H665 0.930 . S
C673 C671 1.419 . S
C673 C674 1.362 . S
C674 H666 0.930 . S
C674 C673 1.362 . S
C674 C677 1.409 . S
C675 H667 0.930 . S
C675 C676 1.355 . S
C675 C677 1.415 . S
C676 C675 1.355 . S
C676 C678 1.419 . S
C677 C672 1.425 . S
C677 C674 1.409 . S
C677 C675 1.415 . S
C678 H668 0.930 . S
C678 C676 1.419 . S
C678 C679 1.362 . S
C679 H669 0.930 . S
C679 C672 1.409 . S
C679 C678 1.362 . S
H680 C686 0.930 . S
H681 C689 0.930 . S
H682 C690 0.930 . S
H683 C691 0.930 . S
H684 C694 0.930 . S
H685 C695 0.930 . S
C686 H680 0.930 . S
C686 C687 1.355 . S
C686 C688 1.415 . S
C687 C686 1.355 . S
C687 C689 1.419 . S
C688 C686 1.415 . S
C688 C693 1.425 . S
C688 C695 1.409 . S
C689 H681 0.930 . S
C689 C687 1.419 . S
C689 C690 1.362 . S
C690 H682 0.930 . S
C690 C689 1.362 . S
C690 C693 1.409 . S
C691 H683 0.930 . S
C691 C692 1.355 . S
C691 C693 1.415 . S
C692 C691 1.355 . S
C692 C694 1.419 . S
C693 C688 1.425 . S
C693 C690 1.409 . S
C693 C691 1.415 . S
C694 H684 0.930 . S
C694 C692 1.419 . S
C694 C695 1.362 . S
C695 H685 0.930 . S
C695 C688 1.409 . S
C695 C694 1.362 . S
H696 C702 0.930 . S
H697 C705 0.930 . S
H698 C706 0.930 . S
H699 C707 0.930 . S
H700 C710 0.930 . S
H701 C711 0.930 . S
C702 H696 0.930 . S
C702 C703 1.355 . S
C702 C704 1.415 . S
C703 C702 1.355 . S
C703 C705 1.419 . S
C704 C702 1.415 . S
C704 C709 1.425 . S
C704 C711 1.409 . S
C705 H697 0.930 . S
C705 C703 1.419 . S
C705 C706 1.362 . S
C706 H698 0.930 . S
C706 C705 1.362 . S
C706 C709 1.409 . S
C707 H699 0.930 . S
C707 C708 1.355 . S
C707 C709 1.415 . S
C708 C707 1.355 . S
C708 C710 1.419 . S
C709 C704 1.425 . S
C709 C706 1.409 . S
C709 C707 1.415 . S
C710 H700 0.930 . S
C710 C708 1.419 . S
C710 C711 1.362 . S
C711 H701 0.930 . S
C711 C704 1.409 . S
C711 C710 1.362 . S
H712 C718 0.930 . S
H713 C721 0.930 . S
H714 C722 0.930 . S
H715 C723 0.930 . S
H716 C726 0.930 . S
H717 C727 0.930 . S
C718 H712 0.930 . S
C718 C719 1.355 . S
C718 C720 1.415 . S
C719 C718 1.355 . S
C719 C721 1.419 . S
C720 C718 1.415 . S
C720 C725 1.425 . S
C720 C727 1.409 . S
C721 H713 0.930 . S
C721 C719 1.419 . S
C721 C722 1.362 . S
C722 H714 0.930 . S
C722 C721 1.362 . S
C722 C725 1.409 . S
C723 H715 0.930 . S
C723 C724 1.355 . S
C723 C725 1.415 . S
C724 C723 1.355 . S
C724 C726 1.419 . S
C725 C720 1.425 . S
C725 C722 1.409 . S
C725 C723 1.415 . S
C726 H716 0.930 . S
C726 C724 1.419 . S
C726 C727 1.362 . S
C727 H717 0.930 . S
C727 C720 1.409 . S
C727 C726 1.362 . S
H728 C734 0.930 . S
H729 C737 0.930 . S
H730 C738 0.930 . S
H731 C739 0.930 . S
H732 C742 0.930 . S
H733 C743 0.930 . S
C734 H728 0.930 . S
C734 C735 1.355 . S
C734 C736 1.415 . S
C735 C734 1.355 . S
C735 C737 1.419 . S
C736 C734 1.415 . S
C736 C741 1.425 . S
C736 C743 1.409 . S
C737 H729 0.930 . S
C737 C735 1.419 . S
C737 C738 1.362 . S
C738 H730 0.930 . S
C738 C737 1.362 . S
C738 C741 1.409 . S
C739 H731 0.930 . S
C739 C740 1.355 . S
C739 C741 1.415 . S
C740 C739 1.355 . S
C740 C742 1.419 . S
C741 C736 1.425 . S
C741 C738 1.409 . S
C741 C739 1.415 . S
C742 H732 0.930 . S
C742 C740 1.419 . S
C742 C743 1.362 . S
C743 H733 0.930 . S
C743 C736 1.409 . S
C743 C742 1.362 . S
H744 C750 0.930 . S
H745 C753 0.930 . S
H746 C754 0.930 . S
H747 C755 0.930 . S
H748 C758 0.930 . S
H749 C759 0.930 . S
C750 H744 0.930 . S
C750 C751 1.355 . S
C750 C752 1.415 . S
C751 C750 1.355 . S
C751 C753 1.419 . S
C752 C750 1.415 . S
C752 C757 1.425 . S
C752 C759 1.409 . S
C753 H745 0.930 . S
C753 C751 1.419 . S
C753 C754 1.362 . S
C754 H746 0.930 . S
C754 C753 1.362 . S
C754 C757 1.409 . S
C755 H747 0.930 . S
C755 C756 1.355 . S
C755 C757 1.415 . S
C756 C755 1.355 . S
C756 C758 1.419 . S
C757 C752 1.425 . S
C757 C754 1.409 . S
C757 C755 1.415 . S
C758 H748 0.930 . S
C758 C756 1.419 . S
C758 C759 1.362 . S
C759 H749 0.930 . S
C759 C752 1.409 . S
C759 C758 1.362 . S
H760 C766 0.930 . S
H761 C769 0.930 . S
H762 C770 0.930 . S
H763 C771 0.930 . S
H764 C774 0.930 . S
H765 C775 0.930 . S
C766 H760 0.930 . S
C766 C767 1.355 . S
C766 C768 1.415 . S
C767 C766 1.355 . S
C767 C769 1.419 . S
C768 C766 1.415 . S
C768 C773 1.425 . S
C768 C775 1.409 . S
C769 H761 0.930 . S
C769 C767 1.419 . S
C769 C770 1.362 . S
C770 H762 0.930 . S
C770 C769 1.362 . S
C770 C773 1.409 . S
C771 H763 0.930 . S
C771 C772 1.355 . S
C771 C773 1.415 . S
C772 C771 1.355 . S
C772 C774 1.419 . S
C773 C768 1.425 . S
C773 C770 1.409 . S
C773 C771 1.415 . S
C774 H764 0.930 . S
C774 C772 1.419 . S
C774 C775 1.362 . S
C775 H765 0.930 . S
C775 C768 1.409 . S
C775 C774 1.362 . S
H776 C782 0.930 . S
H777 C785 0.930 . S
H778 C786 0.930 . S
H779 C787 0.930 . S
H780 C790 0.930 . S
H781 C791 0.930 . S
C782 H776 0.930 . S
C782 C783 1.355 . S
C782 C784 1.415 . S
C783 C782 1.355 . S
C783 C785 1.419 . S
C784 C782 1.415 . S
C784 C789 1.425 . S
C784 C791 1.409 . S
C785 H777 0.930 . S
C785 C783 1.419 . S
C785 C786 1.362 . S
C786 H778 0.930 . S
C786 C785 1.362 . S
C786 C789 1.409 . S
C787 H779 0.930 . S
C787 C788 1.355 . S
C787 C789 1.415 . S
C788 C787 1.355 . S
C788 C790 1.419 . S
C789 C784 1.425 . S
C789 C786 1.409 . S
C789 C787 1.415 . S
C790 H780 0.930 . S
C790 C788 1.419 . S
C790 C791 1.362 . S
C791 H781 0.930 . S
C791 C784 1.409 . S
C791 C790 1.362 . S
H792 C798 0.930 . S
H793 C801 0.930 . S
H794 C802 0.930 . S
H795 C803 0.930 . S
H796 C806 0.930 . S
H797 C807 0.930 . S
C798 H792 0.930 . S
C798 C799 1.355 . S
C798 C800 1.415 . S
C799 C798 1.355 . S
C799 C801 1.419 . S
C800 C798 1.415 . S
C800 C805 1.425 . S
C800 C807 1.409 . S
C801 H793 0.930 . S
C801 C799 1.419 . S
C801 C802 1.362 . S
C802 H794 0.930 . S
C802 C801 1.362 . S
C802 C805 1.409 . S
C803 H795 0.930 . S
C803 C804 1.355 . S
C803 C805 1.415 . S
C804 C803 1.355 . S
C804 C806 1.419 . S
C805 C800 1.425 . S
C805 C802 1.409 . S
C805 C803 1.415 . S
C806 H796 0.930 . S
C806 C804 1.419 . S
C806 C807 1.362 . S
C807 H797 0.930 . S
C807 C800 1.409 . S
C807 C806 1.362 . S
H808 C814 0.930 . S
H809 C817 0.930 . S
H810 C818 0.930 . S
H811 C819 0.930 . S
H812 C822 0.930 . S
H813 C823 0.940 . S
C814 H808 0.930 . S
C814 C815 1.355 . S
C814 C816 1.415 . S
C815 C814 1.355 . S
C815 C817 1.419 . S
C816 C814 1.415 . S
C816 C821 1.425 . S
C816 C823 1.409 . S
C817 H809 0.930 . S
C817 C815 1.419 . S
C817 C818 1.362 . S
C818 H810 0.930 . S
C818 C817 1.362 . S
C818 C821 1.409 . S
C819 H811 0.930 . S
C819 C820 1.355 . S
C819 C821 1.415 . S
C820 C819 1.355 . S
C820 C822 1.419 . S
C821 C816 1.425 . S
C821 C818 1.409 . S
C821 C819 1.415 . S
C822 H812 0.930 . S
C822 C820 1.419 . S
C822 C823 1.362 . S
C823 H813 0.940 . S
C823 C816 1.409 . S
C823 C822 1.362 . S
H824 C830 0.928 1_556 S
H825 C833 0.930 . S
H826 C834 0.930 . S
H827 C835 0.930 . S
H828 C838 0.930 . S
H829 C839 0.930 . S
C830 H824 0.928 1_554 S
C830 C831 1.355 . S
C830 C832 1.415 . S
C831 C830 1.355 . S
C831 C833 1.419 . S
C832 C830 1.415 . S
C832 C837 1.425 . S
C832 C839 1.409 1_554 S
C833 H825 0.930 . S
C833 C831 1.419 . S
C833 C834 1.362 . S
C834 H826 0.930 . S
C834 C833 1.362 . S
C834 C837 1.409 . S
C835 H827 0.930 . S
C835 C836 1.355 . S
C835 C837 1.415 . S
C836 C835 1.355 . S
C836 C838 1.419 1_554 S
C837 C832 1.425 . S
C837 C834 1.409 . S
C837 C835 1.415 . S
C838 H828 0.930 . S
C838 C836 1.419 1_556 S
C838 C839 1.362 . S
C839 H829 0.930 . S
C839 C832 1.409 1_556 S
C839 C838 1.362 . S
H840 C846 0.930 . S
H841 C849 0.930 1_556 S
H842 C850 0.930 . S
H843 C851 0.930 1_556 S
H844 C854 0.930 . S
H845 C855 0.930 . S
C846 H840 0.930 . S
C846 C847 1.355 . S
C846 C848 1.415 . S
C847 C846 1.355 . S
C847 C849 1.419 . S
C848 C846 1.415 . S
C848 C853 1.425 . S
C848 C855 1.409 . S
C849 H841 0.930 1_554 S
C849 C847 1.419 . S
C849 C850 1.362 1_554 S
C850 H842 0.930 . S
C850 C849 1.362 1_556 S
C850 C853 1.409 1_556 S
C851 H843 0.930 1_554 S
C851 C852 1.355 . S
C851 C853 1.415 . S
C852 C851 1.355 . S
C852 C854 1.419 . S
C853 C848 1.425 . S
C853 C850 1.409 1_554 S
C853 C851 1.415 . S
C854 H844 0.930 . S
C854 C852 1.419 . S
C854 C855 1.362 . S
C855 H845 0.930 . S
C855 C848 1.409 . S
C855 C854 1.362 . S
H856 C862 0.930 . S
H857 C865 0.930 . S
H858 C866 0.930 . S
H859 C867 0.930 . S
H860 C870 0.930 . S
H861 C871 0.930 1_556 S
C862 H856 0.930 . S
C862 C863 1.355 . S
C862 C864 1.415 . S
C863 C862 1.355 . S
C863 C865 1.419 . S
C864 C862 1.415 . S
C864 C869 1.425 . S
C864 C871 1.409 . S
C865 H857 0.930 . S
C865 C863 1.419 . S
C865 C866 1.362 . S
C866 H858 0.930 . S
C866 C865 1.362 . S
C866 C869 1.409 . S
C867 H859 0.930 . S
C867 C868 1.355 . S
C867 C869 1.415 . S
C868 C867 1.355 . S
C868 C870 1.419 . S
C869 C864 1.425 . S
C869 C866 1.409 . S
C869 C867 1.415 . S
C870 H860 0.930 . S
C870 C868 1.419 . S
C870 C871 1.362 . S
C871 H861 0.930 1_554 S
C871 C864 1.409 . S
C871 C870 1.362 . S
H872 C878 0.930 . S
H873 C881 0.930 1_556 S
H874 C882 0.930 1_556 S
H875 C883 0.930 . S
H876 C886 0.930 . S
H877 C887 0.930 . S
C878 H872 0.930 . S
C878 C879 1.355 . S
C878 C880 1.415 . S
C879 C878 1.355 . S
C879 C881 1.419 . S
C880 C878 1.415 . S
C880 C885 1.425 . S
C880 C887 1.409 . S
C881 H873 0.930 1_554 S
C881 C879 1.419 . S
C881 C882 1.362 . S
C882 H874 0.930 1_554 S
C882 C881 1.362 . S
C882 C885 1.409 . S
C883 H875 0.930 . S
C883 C884 1.355 . S
C883 C885 1.415 . S
C884 C883 1.355 . S
C884 C886 1.419 . S
C885 C880 1.425 . S
C885 C882 1.409 . S
C885 C883 1.415 . S
C886 H876 0.930 . S
C886 C884 1.419 . S
C886 C887 1.362 . S
C887 H877 0.930 . S
C887 C880 1.409 . S
C887 C886 1.362 . S
H888 C894 0.930 . S
H889 C897 0.930 . S
H890 C898 0.930 . S
H891 C899 0.930 . S
H892 C902 0.930 . S
H893 C903 0.930 . S
C894 H888 0.930 . S
C894 C895 1.355 . S
C894 C896 1.415 . S
C895 C894 1.355 . S
C895 C897 1.419 . S
C896 C894 1.415 . S
C896 C901 1.425 . S
C896 C903 1.409 . S
C897 H889 0.930 . S
C897 C895 1.419 . S
C897 C898 1.362 . S
C898 H890 0.930 . S
C898 C897 1.362 . S
C898 C901 1.409 . S
C899 H891 0.930 . S
C899 C900 1.355 . S
C899 C901 1.415 . S
C900 C899 1.355 . S
C900 C902 1.419 . S
C901 C896 1.425 . S
C901 C898 1.409 . S
C901 C899 1.415 . S
C902 H892 0.930 . S
C902 C900 1.419 . S
C902 C903 1.362 . S
C903 H893 0.930 . S
C903 C896 1.409 . S
C903 C902 1.362 . S
H904 C910 0.930 . S
H905 C913 0.930 . S
H906 C914 0.930 . S
H907 C915 0.930 . S
H908 C918 0.930 . S
H909 C919 0.930 . S
C910 H904 0.930 . S
C910 C911 1.355 . S
C910 C912 1.415 . S
C911 C910 1.355 . S
C911 C913 1.419 . S
C912 C910 1.415 . S
C912 C917 1.425 . S
C912 C919 1.409 . S
C913 H905 0.930 . S
C913 C911 1.419 . S
C913 C914 1.362 . S
C914 H906 0.930 . S
C914 C913 1.362 . S
C914 C917 1.409 . S
C915 H907 0.930 . S
C915 C916 1.355 . S
C915 C917 1.415 . S
C916 C915 1.355 . S
C916 C918 1.419 . S
C917 C912 1.425 . S
C917 C914 1.409 . S
C917 C915 1.415 . S
C918 H908 0.930 . S
C918 C916 1.419 . S
C918 C919 1.362 . S
C919 H909 0.930 . S
C919 C912 1.409 . S
C919 C918 1.362 . S
H920 C926 0.930 . S
H921 C929 0.930 . S
H922 C930 0.930 . S
H923 C931 0.930 . S
H924 C934 0.930 . S
H925 C935 0.930 . S
C926 H920 0.930 . S
C926 C927 1.355 . S
C926 C928 1.415 . S
C927 C926 1.355 . S
C927 C929 1.419 . S
C928 C926 1.415 . S
C928 C933 1.425 . S
C928 C935 1.409 . S
C929 H921 0.930 . S
C929 C927 1.419 . S
C929 C930 1.362 . S
C930 H922 0.930 . S
C930 C929 1.362 . S
C930 C933 1.409 . S
C931 H923 0.930 . S
C931 C932 1.355 . S
C931 C933 1.415 . S
C932 C931 1.355 . S
C932 C934 1.419 . S
C933 C928 1.425 . S
C933 C930 1.409 . S
C933 C931 1.415 . S
C934 H924 0.930 . S
C934 C932 1.419 . S
C934 C935 1.362 . S
C935 H925 0.930 . S
C935 C928 1.409 . S
C935 C934 1.362 . S
H936 C942 0.930 . S
H937 C945 0.930 . S
H938 C946 0.930 . S
H939 C947 0.930 . S
H940 C950 0.930 . S
H941 C951 0.930 . S
C942 H936 0.930 . S
C942 C943 1.355 . S
C942 C944 1.415 . S
C943 C942 1.355 . S
C943 C945 1.419 . S
C944 C942 1.415 . S
C944 C949 1.425 . S
C944 C951 1.409 . S
C945 H937 0.930 . S
C945 C943 1.419 . S
C945 C946 1.362 . S
C946 H938 0.930 . S
C946 C945 1.362 . S
C946 C949 1.409 . S
C947 H939 0.930 . S
C947 C948 1.355 . S
C947 C949 1.415 . S
C948 C947 1.355 . S
C948 C950 1.419 . S
C949 C944 1.425 . S
C949 C946 1.409 . S
C949 C947 1.415 . S
C950 H940 0.930 . S
C950 C948 1.419 . S
C950 C951 1.362 . S
C951 H941 0.930 . S
C951 C944 1.409 . S
C951 C950 1.362 . S
H952 C958 0.930 . S
H953 C961 0.930 . S
H954 C962 0.930 . S
H955 C963 0.930 . S
H956 C966 0.930 . S
H957 C967 0.930 . S
C958 H952 0.930 . S
C958 C959 1.355 . S
C958 C960 1.415 . S
C959 C958 1.355 . S
C959 C961 1.419 . S
C960 C958 1.415 . S
C960 C965 1.425 . S
C960 C967 1.409 . S
C961 H953 0.930 . S
C961 C959 1.419 . S
C961 C962 1.362 . S
C962 H954 0.930 . S
C962 C961 1.362 . S
C962 C965 1.409 . S
C963 H955 0.930 . S
C963 C964 1.355 . S
C963 C965 1.415 . S
C964 C963 1.355 . S
C964 C966 1.419 . S
C965 C960 1.425 . S
C965 C962 1.409 . S
C965 C963 1.415 . S
C966 H956 0.930 . S
C966 C964 1.419 . S
C966 C967 1.362 . S
C967 H957 0.930 . S
C967 C960 1.409 . S
C967 C966 1.362 . S
H968 C974 0.930 . S
H969 C977 0.930 . S
H970 C978 0.930 . S
H971 C979 0.930 . S
H972 C982 0.930 . S
H973 C983 0.930 . S
C974 H968 0.930 . S
C974 C975 1.355 . S
C974 C976 1.415 . S
C975 C974 1.355 . S
C975 C977 1.419 . S
C976 C974 1.415 . S
C976 C981 1.425 . S
C976 C983 1.409 . S
C977 H969 0.930 . S
C977 C975 1.419 . S
C977 C978 1.362 . S
C978 H970 0.930 . S
C978 C977 1.362 . S
C978 C981 1.409 . S
C979 H971 0.930 . S
C979 C980 1.355 . S
C979 C981 1.415 . S
C980 C979 1.355 . S
C980 C982 1.419 . S
C981 C976 1.425 . S
C981 C978 1.409 . S
C981 C979 1.415 . S
C982 H972 0.930 . S
C982 C980 1.419 . S
C982 C983 1.362 . S
C983 H973 0.930 . S
C983 C976 1.409 . S
C983 C982 1.362 . S
H984 C990 0.930 1_554 S
H985 C993 0.930 . S
H986 C994 0.930 . S
H987 C995 0.930 . S
H988 C998 0.932 . S
H989 C999 0.930 . S
C990 H984 0.930 1_556 S
C990 C991 1.355 . S
C990 C992 1.415 . S
C991 C990 1.355 . S
C991 C993 1.419 . S
C992 C990 1.415 . S
C992 C997 1.425 1_545 S
C992 C999 1.409 1_556 S
C993 H985 0.930 . S
C993 C991 1.419 . S
C993 C994 1.362 1_545 S
C994 H986 0.930 . S
C994 C993 1.362 1_565 S
C994 C997 1.409 . S
C995 H987 0.930 . S
C995 C996 1.355 . S
C995 C997 1.415 . S
C996 C995 1.355 . S
C996 C998 1.416 1_556 S
C997 C992 1.425 1_565 S
C997 C994 1.409 . S
C997 C995 1.415 . S
C998 H988 0.932 . S
C998 C996 1.416 1_554 S
C998 C999 1.363 1_565 S
C999 H989 0.930 . S
C999 C992 1.409 1_554 S
C999 C998 1.363 1_545 S
H1000 C1006 0.930 . S
H1001 C1009 0.930 . S
H1002 C1010 0.930 . S
H1003 C1011 0.930 . S
H1004 C1014 0.927 1_554 S
H1005 C1015 0.930 1_554 S
C1006 H1000 0.930 . S
C1006 C1007 1.355 . S
C1006 C1008 1.415 . S
C1007 C1006 1.355 . S
C1007 C1009 1.419 . S
C1008 C1006 1.415 . S
C1008 C1013 1.425 . S
C1008 C1015 1.409 . S
C1009 H1001 0.930 . S
C1009 C1007 1.419 . S
C1009 C1010 1.362 . S
C1010 H1002 0.930 . S
C1010 C1009 1.362 . S
C1010 C1013 1.409 . S
C1011 H1003 0.930 . S
C1011 C1012 1.355 . S
C1011 C1013 1.415 . S
C1012 C1011 1.355 . S
C1012 C1014 1.419 . S
C1013 C1008 1.425 . S
C1013 C1010 1.409 . S
C1013 C1011 1.415 . S
C1014 H1004 0.927 1_556 S
C1014 C1012 1.419 . S
C1014 C1015 1.362 . S
C1015 H1005 0.930 1_556 S
C1015 C1008 1.409 . S
C1015 C1014 1.362 . S
H1016 C1022 0.930 . S
H1017 C1025 0.930 1_455 S
H1018 C1026 0.930 . S
H1019 C1027 0.930 . S
H1020 C1030 0.930 1_654 S
H1021 C1031 0.919 1_554 S
C1022 H1016 0.930 . S
C1022 C1023 1.355 . S
C1022 C1024 1.415 . S
C1023 C1022 1.355 . S
C1023 C1025 1.419 . S
C1024 C1022 1.415 . S
C1024 C1029 1.425 1_655 S
C1024 C1031 1.418 . S
C1025 H1017 0.930 1_655 S
C1025 C1023 1.419 . S
C1025 C1026 1.362 1_655 S
C1026 H1018 0.930 . S
C1026 C1025 1.362 1_455 S
C1026 C1029 1.409 . S
C1027 H1019 0.930 . S
C1027 C1028 1.355 . S
C1027 C1029 1.415 . S
C1028 C1027 1.355 . S
C1028 C1030 1.419 . S
C1029 C1024 1.425 1_455 S
C1029 C1026 1.409 . S
C1029 C1027 1.415 . S
C1030 H1020 0.930 1_456 S
C1030 C1028 1.419 . S
C1030 C1031 1.364 1_455 S
C1031 H1021 0.919 1_556 S
C1031 C1024 1.418 . S
C1031 C1030 1.364 1_655 S
H1032 C1038 0.930 1_455 S
H1033 C1041 0.930 . S
H1034 C1042 0.930 . S
H1035 C1043 0.930 1_655 S
H1036 C1046 0.930 . S
H1037 C1047 0.930 . S
C1038 H1032 0.930 1_655 S
C1038 C1039 1.355 . S
C1038 C1040 1.415 1_655 S
C1039 C1038 1.355 . S
C1039 C1041 1.419 . S
C1040 C1038 1.415 1_455 S
C1040 C1045 1.425 1_455 S
C1040 C1047 1.409 . S
C1041 H1033 0.930 . S
C1041 C1039 1.419 . S
C1041 C1042 1.362 . S
C1042 H1034 0.930 . S
C1042 C1041 1.362 . S
C1042 C1045 1.409 . S
C1043 H1035 0.930 1_455 S
C1043 C1044 1.355 . S
C1043 C1045 1.415 1_455 S
C1044 C1043 1.355 . S
C1044 C1046 1.419 . S
C1045 C1040 1.425 1_655 S
C1045 C1042 1.409 . S
C1045 C1043 1.415 1_655 S
C1046 H1036 0.930 . S
C1046 C1044 1.419 . S
C1046 C1047 1.362 . S
C1047 H1037 0.930 . S
C1047 C1040 1.409 . S
C1047 C1046 1.362 . S
H1048 C1054 0.930 . S
H1049 C1057 0.930 . S
H1050 C1058 0.930 . S
H1051 C1059 0.930 . S
H1052 C1062 0.930 . S
H1053 C1063 0.930 . S
C1054 H1048 0.930 . S
C1054 C1055 1.355 . S
C1054 C1056 1.415 1_545 S
C1055 C1054 1.355 . S
C1055 C1057 1.419 . S
C1056 C1054 1.415 1_565 S
C1056 C1061 1.425 1_565 S
C1056 C1063 1.409 . S
C1057 H1049 0.930 . S
C1057 C1055 1.419 . S
C1057 C1058 1.362 . S
C1058 H1050 0.930 . S
C1058 C1057 1.362 . S
C1058 C1061 1.409 . S
C1059 H1051 0.930 . S
C1059 C1060 1.355 . S
C1059 C1061 1.415 1_565 S
C1060 C1059 1.355 . S
C1060 C1062 1.419 . S
C1061 C1056 1.425 1_545 S
C1061 C1058 1.409 . S
C1061 C1059 1.415 1_545 S
C1062 H1052 0.930 . S
C1062 C1060 1.419 . S
C1062 C1063 1.362 . S
C1063 H1053 0.930 . S
C1063 C1056 1.409 . S
C1063 C1062 1.362 . S
H1064 C1070 0.930 . S
H1065 C1073 0.930 . S
H1066 C1074 0.930 . S
H1067 C1075 0.930 . S
H1068 C1078 0.930 . S
H1069 C1079 0.930 . S
C1070 H1064 0.930 . S
C1070 C1071 1.355 . S
C1070 C1072 1.415 . S
C1071 C1070 1.355 . S
C1071 C1073 1.419 . S
C1072 C1070 1.415 . S
C1072 C1077 1.425 . S
C1072 C1079 1.409 . S
C1073 H1065 0.930 . S
C1073 C1071 1.419 . S
C1073 C1074 1.362 . S
C1074 H1066 0.930 . S
C1074 C1073 1.362 . S
C1074 C1077 1.409 . S
C1075 H1067 0.930 . S
C1075 C1076 1.355 . S
C1075 C1077 1.415 . S
C1076 C1075 1.355 . S
C1076 C1078 1.419 . S
C1077 C1072 1.425 . S
C1077 C1074 1.409 . S
C1077 C1075 1.415 . S
C1078 H1068 0.930 . S
C1078 C1076 1.419 . S
C1078 C1079 1.362 . S
C1079 H1069 0.930 . S
C1079 C1072 1.409 . S
C1079 C1078 1.362 . S
C415 C28 0.852 . S
C420 C187 0.918 . S
C431 C40 0.898 . S
C436 C17 0.873 . S
C447 C96 0.936 . S
C452 C51 0.886 1_554 S
C463 C108 0.890 . S
C468 C85 0.926 1_554 S
C479 C164 0.923 . S
C484 C119 0.904 1_554 S
C495 C176 0.933 . S
C500 C153 0.891 1_554 S
C511 C210 0.852 . S
C516 C255 0.917 . S
C527 C266 0.936 . S
C532 C289 0.870 . S
C543 C278 0.926 . S
C548 C323 0.902 . S
C559 C357 0.915 . S
C564 C334 0.911 . S
C575 C391 0.921 . S
C580 C346 0.903 . S
C591 C221 0.907 . S
C596 C402 0.856 . S
C607 C287 1.582 . S
C612 C22 1.627 . S
C623 C328 1.578 . S
C628 C49 1.551 . S
C639 C90 1.608 . S
C644 C355 1.620 . S
C655 C396 1.620 . S
C660 C117 1.609 . S
C671 C158 1.629 . S
C676 C219 1.579 . S
C687 C185 1.627 . S
C692 C260 1.570 . S
C703 C389 2.087 . S
C708 C124 2.126 . S
C719 C151 2.109 . S
C724 C226 2.087 . S
C735 C192 2.122 . S
C740 C253 2.088 . S
C751 C15 2.085 . S
C756 C294 2.117 . S
C767 C56 2.089 . S
C772 C321 2.131 . S
C783 C83 2.114 . S
C788 C362 2.087 . S
C799 C74 1.116 . S
C804 C1 1.054 . S
C815 C130 1.115 . S
C820 C37 1.036 . S
C831 C69 1.094 . S
C836 C142 1.112 . S
C847 C105 1.058 . S
C852 C198 1.116 . S
C863 C6 1.115 . S
C868 C137 1.030 . S
C879 C62 1.116 . S
C884 C173 1.080 . S
C895 C207 0.944 . S
C900 C368 1.102 . S
C911 C239 0.950 . S
C916 C380 1.101 . S
C927 C232 1.103 . S
C932 C275 1.033 . S
C943 C244 1.113 . S
C948 C307 1.003 . S
C959 C300 1.116 . S
C964 C343 1.082 . S
C975 C375 1.085 . S
C980 C312 1.116 . S
C991 C3 2.312 . S
C996 C103 2.276 . S
C1007 C35 2.314 . S
C1012 C139 2.284 . S
C1023 C71 2.313 . S
C1028 C171 2.281 . S
C1039 C205 2.237 . S
C1044 C309 2.256 . S
C1055 C341 2.272 . S
C1060 C241 2.238 . S
C1071 C377 2.242 . S
C1076 C273 2.282 . S
