# Generated by pormake.
# Topology wkt, (7)-cn, num edge types: 1
# Building blocks:
#     Node 0, Type 0, BuildingBlock: NUHQUE_clean_sbu_2, # of connection points: 7
#     Node 1, Type 0, BuildingBlock: NUHQUE_clean_sbu_2, # of connection points: 7
#     Node 2, Type 0, BuildingBlock: NUHQUE_clean_sbu_2, # of connection points: 7
#     Node 3, Type 0, BuildingBlock: NUHQUE_clean_sbu_2, # of connection points: 7
#     Node 4, Type 0, BuildingBlock: NUHQUE_clean_sbu_2, # of connection points: 7
#     Node 5, Type 0, BuildingBlock: NUHQUE_clean_sbu_2, # of connection points: 7
#     Node 6, Type 0, BuildingBlock: NUHQUE_clean_sbu_2, # of connection points: 7
#     Node 7, Type 0, BuildingBlock: NUHQUE_clean_sbu_2, # of connection points: 7
#     Node 8, Type 0, BuildingBlock: NUHQUE_clean_sbu_2, # of connection points: 7
#     Node 9, Type 0, BuildingBlock: NUHQUE_clean_sbu_2, # of connection points: 7
#     Node 10, Type 0, BuildingBlock: NUHQUE_clean_sbu_2, # of connection points: 7
#     Node 11, Type 0, BuildingBlock: NUHQUE_clean_sbu_2, # of connection points: 7
#     Edge 12, Type (0, 0), BuildingBlock: OJICUG_clean_linker_0, # of connection points: 2
#     Edge 13, Type (0, 0), BuildingBlock: OJICUG_clean_linker_0, # of connection points: 2
#     Edge 14, Type (0, 0), BuildingBlock: OJICUG_clean_linker_0, # of connection points: 2
#     Edge 15, Type (0, 0), BuildingBlock: OJICUG_clean_linker_0, # of connection points: 2
#     Edge 16, Type (0, 0), BuildingBlock: OJICUG_clean_linker_0, # of connection points: 2
#     Edge 17, Type (0, 0), BuildingBlock: OJICUG_clean_linker_0, # of connection points: 2
#     Edge 18, Type (0, 0), BuildingBlock: OJICUG_clean_linker_0, # of connection points: 2
#     Edge 19, Type (0, 0), BuildingBlock: OJICUG_clean_linker_0, # of connection points: 2
#     Edge 20, Type (0, 0), BuildingBlock: OJICUG_clean_linker_0, # of connection points: 2
#     Edge 21, Type (0, 0), BuildingBlock: OJICUG_clean_linker_0, # of connection points: 2
#     Edge 22, Type (0, 0), BuildingBlock: OJICUG_clean_linker_0, # of connection points: 2
#     Edge 23, Type (0, 0), BuildingBlock: OJICUG_clean_linker_0, # of connection points: 2
#     Edge 24, Type (0, 0), BuildingBlock: OJICUG_clean_linker_0, # of connection points: 2
#     Edge 25, Type (0, 0), BuildingBlock: OJICUG_clean_linker_0, # of connection points: 2
#     Edge 26, Type (0, 0), BuildingBlock: OJICUG_clean_linker_0, # of connection points: 2
#     Edge 27, Type (0, 0), BuildingBlock: OJICUG_clean_linker_0, # of connection points: 2
#     Edge 28, Type (0, 0), BuildingBlock: OJICUG_clean_linker_0, # of connection points: 2
#     Edge 29, Type (0, 0), BuildingBlock: OJICUG_clean_linker_0, # of connection points: 2
#     Edge 30, Type (0, 0), BuildingBlock: OJICUG_clean_linker_0, # of connection points: 2
#     Edge 31, Type (0, 0), BuildingBlock: OJICUG_clean_linker_0, # of connection points: 2
#     Edge 32, Type (0, 0), BuildingBlock: OJICUG_clean_linker_0, # of connection points: 2
#     Edge 33, Type (0, 0), BuildingBlock: OJICUG_clean_linker_0, # of connection points: 2
#     Edge 34, Type (0, 0), BuildingBlock: OJICUG_clean_linker_0, # of connection points: 2
#     Edge 35, Type (0, 0), BuildingBlock: OJICUG_clean_linker_0, # of connection points: 2
#     Edge 36, Type (0, 0), BuildingBlock: OJICUG_clean_linker_0, # of connection points: 2
#     Edge 37, Type (0, 0), BuildingBlock: OJICUG_clean_linker_0, # of connection points: 2
#     Edge 38, Type (0, 0), BuildingBlock: OJICUG_clean_linker_0, # of connection points: 2
#     Edge 39, Type (0, 0), BuildingBlock: OJICUG_clean_linker_0, # of connection points: 2
#     Edge 40, Type (0, 0), BuildingBlock: OJICUG_clean_linker_0, # of connection points: 2
#     Edge 41, Type (0, 0), BuildingBlock: OJICUG_clean_linker_0, # of connection points: 2
#     Edge 42, Type (0, 0), BuildingBlock: OJICUG_clean_linker_0, # of connection points: 2
#     Edge 43, Type (0, 0), BuildingBlock: OJICUG_clean_linker_0, # of connection points: 2
#     Edge 44, Type (0, 0), BuildingBlock: OJICUG_clean_linker_0, # of connection points: 2
#     Edge 45, Type (0, 0), BuildingBlock: OJICUG_clean_linker_0, # of connection points: 2
#     Edge 46, Type (0, 0), BuildingBlock: OJICUG_clean_linker_0, # of connection points: 2
#     Edge 47, Type (0, 0), BuildingBlock: OJICUG_clean_linker_0, # of connection points: 2
#     Edge 48, Type (0, 0), BuildingBlock: OJICUG_clean_linker_0, # of connection points: 2
#     Edge 49, Type (0, 0), BuildingBlock: OJICUG_clean_linker_0, # of connection points: 2
#     Edge 50, Type (0, 0), BuildingBlock: OJICUG_clean_linker_0, # of connection points: 2
#     Edge 51, Type (0, 0), BuildingBlock: OJICUG_clean_linker_0, # of connection points: 2
#     Edge 52, Type (0, 0), BuildingBlock: OJICUG_clean_linker_0, # of connection points: 2
#     Edge 53, Type (0, 0), BuildingBlock: OJICUG_clean_linker_0, # of connection points: 2
# Relax obj value: 0.312
# Max RMSD: 0.288
# Mean RMSD: 0.288
data_MOF--net-wkt--node1-NUHQUE_clean_sbu_2--edge1-OJICUG_clean_linker_0
_symmetry_space_group_name_H-M    P1
_symmetry_Int_Tables_number       1
_symmetry_cell_setting            triclinic
loop_
_symmetry_equiv_pos_as_xyz
'x, y, z'
_cell_length_a     23.119314
_cell_length_b     23.061278
_cell_length_c     58.726187
_cell_angle_alpha  90.192949
_cell_angle_beta   89.817221
_cell_angle_gamma 119.94234
loop_
_atom_site_label
_atom_site_type_symbol
_atom_site_fract_x
_atom_site_fract_y
_atom_site_fract_z
_atom_type_partial_charge
O0 O 0.43836 0.51613 0.04429 0.0
Tb1 Tb 0.47888 0.57929 0.01386 0.0
Eu2 Eu 0.43121 0.4926 0.971 0.0
C3 C 0.37698 0.49616 0.05121 0.0
O4 O 0.33556 0.5007 0.0371 0.0
C5 C 0.35005 0.56806 -0.01441 0.0
O6 O 0.45368 0.5195 0.93466 0.0
C7 C 0.37122 0.36829 -0.01831 0.0
C8 C 0.49852 0.58276 0.93239 0.0
O9 O 0.52102 0.62041 0.9507 0.0
C10 C 0.58627 0.55157 -0.014 0.0
C11 C 0.39566 0.32036 -0.01589 0.0
C12 C 0.40668 0.30355 0.0058 0.0
C13 C 0.44034 0.2676 0.00902 0.0
C14 C 0.45751 0.24255 -0.0105 0.0
C15 C 0.44285 0.2557 0.96723 0.0
C16 C 0.41369 0.29634 0.96505 0.0
O17 O 0.3887 0.58765 0.00401 0.0
O18 O 0.36057 0.53426 0.96966 0.0
O19 O 0.52559 0.64543 0.04243 0.0
O20 O 0.53159 0.68782 0.00972 0.0
C21 C 0.54884 0.70072 0.03102 0.0
O22 O 0.54152 0.52201 0.96991 0.0
O23 O 0.56966 0.57249 0.00465 0.0
O24 O 0.37016 0.38899 0.96085 0.0
O25 O 0.39331 0.41648 -0.00282 0.0
H26 H 0.38992 0.32028 0.02036 0.0
H27 H 0.48222 0.21355 -0.00841 0.0
H28 H 0.40685 0.3113 0.94828 0.0
O29 O 0.98336 0.38482 0.2075 0.0
Tb30 Tb 0.96646 0.44159 0.18089 0.0
Eu31 Eu 1.01783 0.38189 0.14543 0.0
C32 C 0.93106 0.34579 0.22028 0.0
O33 O 0.8725 0.33549 0.21358 0.0
C34 C 0.85633 0.30652 0.1538 0.0
O35 O 1.01164 0.40958 0.10973 0.0
C36 C 1.08614 0.32599 0.15559 0.0
C37 C 0.98751 0.45021 0.10817 0.0
O38 O 0.96606 0.4652 0.12679 0.0
C39 C 1.10775 0.54358 0.15533 0.0
C40 C 0.15892 0.35488 0.15823 0.0
C41 C 0.18625 0.36375 0.17999 0.0
C42 C 0.25547 0.40054 0.18345 0.0
C43 C 0.29852 0.42919 0.16444 0.0
C44 C 0.27119 0.41955 0.14222 0.0
C45 C 0.20166 0.38119 0.1395 0.0
O46 O 0.86902 0.35955 0.1665 0.0
O47 O 0.90674 0.30317 0.14468 0.0
O48 O 0.95586 0.4822 0.21312 0.0
O49 O 0.9089 0.4928 0.1837 0.0
C50 C 0.9192 0.50561 0.20537 0.0
O51 O 1.10207 0.49174 0.14393 0.0
O52 O 1.05991 0.5344 0.16987 0.0
O53 O 1.06398 0.32436 0.13473 0.0
O54 O 1.05797 0.3453 0.17126 0.0
H55 H 0.15312 0.34333 0.19456 0.0
H56 H 0.352 0.45862 0.16689 0.0
H57 H 0.18062 0.37396 0.12256 0.0
O58 O 0.67347 0.96403 0.37817 0.0
Tb59 Tb 0.61856 0.93871 0.34583 0.0
Eu60 Eu 0.6887 0.97262 0.3105 0.0
C61 C 0.7146 0.94286 0.38418 0.0
O62 O 0.73105 0.91094 0.3693 0.0
C63 C 0.62633 0.81828 0.32047 0.0
O64 O 0.65523 0.98666 0.27687 0.0
C65 C 0.81698 1.03989 0.31344 0.0
C66 C 0.59091 0.95878 0.27372 0.0
O67 O 0.54964 0.92293 0.29006 0.0
C68 C 0.60865 1.05002 0.31581 0.0
C69 C 0.8645 0.11065 0.319 0.0
C70 C 0.87844 0.13114 0.34168 0.0
C71 C 0.91674 0.19904 0.34763 0.0
C72 C 0.93937 0.24779 0.33007 0.0
C73 C 0.9266 0.22728 0.30696 0.0
C74 C 0.89088 0.15884 0.30177 0.0
O75 O 0.61522 0.83993 0.34007 0.0
O76 O 0.65079 0.86202 0.30397 0.0
O77 O 0.55366 0.94029 0.37211 0.0
O78 O 0.50985 0.88499 0.34198 0.0
C79 C 0.49767 0.90189 0.36187 0.0
O80 O 0.65023 1.03841 0.32766 0.0
O81 O 0.65083 1.03816 0.32783 0.0
O82 O 0.78498 1.02943 0.29402 0.0
O83 O 0.77845 1.00234 0.3302 0.0
H84 H 0.85746 0.09373 0.355 0.0
H85 H 0.96623 0.30059 0.33427 0.0
H86 H 0.87971 0.14341 0.2841 0.0
O87 O 0.79916 0.6368 0.53291 0.0
Tb88 Tb 0.74687 0.55462 0.50826 0.0
Eu89 Eu 0.81245 0.67922 0.48232 0.0
C90 C 0.84026 0.6317 0.54734 0.0
O91 O 0.85462 0.58402 0.5439 0.0
C92 C 0.8888 0.59048 0.48642 0.0
O93 O 0.7796 0.63832 0.44761 0.0
C94 C 0.87293 0.80645 0.48655 0.0
C95 C 0.74981 0.57312 0.44591 0.0
O96 O 0.74658 0.53787 0.46379 0.0
C97 C 0.64943 0.60034 0.48713 0.0
C98 C 0.84518 0.85128 0.48989 0.0
C99 C 0.83141 0.8642 0.51183 0.0
C100 C 0.79912 0.90099 0.51575 0.0
C101 C 0.77923 0.92508 0.49677 0.0
C102 C 0.79468 0.91383 0.47424 0.0
C103 C 0.82711 0.87641 0.47132 0.0
O104 O 0.83156 0.54251 0.49494 0.0
O105 O 0.89408 0.64914 0.48204 0.0
O106 O 0.70601 0.51235 0.54135 0.0
O107 O 0.69951 0.44745 0.51468 0.0
C108 C 0.68452 0.45056 0.53581 0.0
O109 O 0.70418 0.65957 0.48657 0.0
O110 O 0.65678 0.54835 0.49178 0.0
O111 O 0.86247 0.77708 0.46646 0.0
O112 O 0.86434 0.76627 0.50382 0.0
H113 H 0.84539 0.84461 0.52627 0.0
H114 H 0.75452 0.95393 0.49949 0.0
H115 H 0.83673 0.86499 0.45428 0.0
O116 O 0.23376 0.76395 0.70957 0.0
Tb117 Tb 0.24514 0.71332 0.67986 0.0
Eu118 Eu 0.20974 0.7534 0.63497 0.0
C119 C 0.28595 0.79467 0.72313 0.0
O120 O 0.34166 0.79671 0.717 0.0
C121 C 0.36302 0.84049 0.65104 0.0
O122 O 0.21176 0.73154 0.59847 0.0
C123 C 0.14265 0.80996 0.64665 0.0
C124 C 0.23275 0.68877 0.59579 0.0
O125 O 0.25178 0.66897 0.6138 0.0
C126 C 1.11199 0.60287 0.65288 0.0
C127 C 1.07045 0.78438 0.64991 0.0
C128 C 1.04459 0.77465 0.67195 0.0
C129 C 0.97598 0.74614 0.67588 0.0
C130 C 0.93183 0.72671 0.657 0.0
C131 C 0.95756 0.73788 0.63438 0.0
C132 C 1.02691 0.76653 0.63131 0.0
O133 O 0.34071 0.80756 0.67056 0.0
O134 O 0.32194 0.82374 0.63371 0.0
O135 O 0.26103 0.65912 0.70692 0.0
O136 O 0.30743 0.66809 0.67476 0.0
C137 C 0.29983 0.64439 0.69534 0.0
O138 O 0.13423 0.64149 0.63488 0.0
O139 O 0.14315 0.62612 0.67257 0.0
O140 O 0.16321 0.81136 0.62555 0.0
O141 O 0.17076 0.78924 0.66172 0.0
H142 H 1.07837 0.78951 0.68636 0.0
H143 H 0.87871 0.70506 0.65986 0.0
H144 H 1.0469 0.77293 0.61421 0.0
O145 O 0.55234 0.18997 0.86895 0.0
Tb146 Tb 0.63448 0.22634 0.84414 0.0
Eu147 Eu 0.51123 0.16722 0.8143 0.0
C148 C 0.53941 0.2331 0.87938 0.0
O149 O 0.56816 0.29493 0.87198 0.0
C150 C 0.60141 0.33264 0.82016 0.0
O151 O 0.55142 0.1695 0.7797 0.0
C152 C 0.38367 0.10518 0.81859 0.0
C153 C 0.61523 0.21135 0.77703 0.0
O154 O 0.64991 0.25028 0.79396 0.0
C155 C 0.59023 0.08402 0.82192 0.0
C156 C 0.3371 1.03327 0.82264 0.0
C157 C 0.32468 1.00911 0.84499 0.0
C158 C 0.29963 0.94099 0.84969 0.0
C159 C 0.2813 0.89568 0.83119 0.0
C160 C 0.28844 0.91909 0.8086 0.0
C161 C 0.31585 0.98762 0.80455 0.0
O162 O 0.64552 0.32295 0.83146 0.0
O163 O 0.54588 0.28005 0.81284 0.0
O164 O 0.6779 0.23371 0.8776 0.0
O165 O 0.74202 0.28116 0.84946 0.0
C166 C 0.73954 0.26889 0.87112 0.0
O167 O 0.531 0.0792 0.82026 0.0
O168 O 0.6414 0.14332 0.82711 0.0
O169 O 0.41335 0.12088 0.79852 0.0
O170 O 0.4246 0.13716 0.83565 0.0
H171 H 0.33804 1.04453 0.85889 0.0
H172 H 0.264 0.84322 0.83421 0.0
H173 H 0.32556 1.00566 0.78714 0.0
O174 O 0.6716 0.76602 0.75583 0.0
Tb175 Tb 0.59551 0.70743 0.78167 0.0
Eu176 Eu 0.7204 0.77245 0.81081 0.0
C177 C 0.65785 0.80447 0.74286 0.0
O178 O 0.60916 0.81434 0.74958 0.0
C179 C 0.62979 0.84646 0.80587 0.0
O180 O 0.68136 0.7435 0.84596 0.0
C181 C 0.84745 0.83227 0.80548 0.0
C182 C 0.61644 0.7061 0.84781 0.0
O183 O 0.57936 0.69404 0.82961 0.0
C184 C 0.64065 0.60861 0.80355 0.0
C185 C 0.89163 0.8042 0.80097 0.0
C186 C 0.90439 0.7942 0.77844 0.0
C187 C 0.9354 0.75696 0.77304 0.0
C188 C 0.95407 0.7287 0.79102 0.0
C189 C 0.94459 0.74152 0.81403 0.0
C190 C 0.91395 0.77972 0.81865 0.0
O191 O 0.58202 0.78848 0.79763 0.0
O192 O 0.68901 0.85313 0.81005 0.0
O193 O 0.55463 0.66688 0.74841 0.0
O194 O 0.48882 0.6618 0.77464 0.0
C195 C 0.4932 0.6476 0.75347 0.0
O196 O 0.69841 0.6632 0.80744 0.0
O197 O 0.59052 0.61556 0.79612 0.0
O198 O 0.81957 0.82116 0.82584 0.0
O199 O 0.80594 0.82424 0.78876 0.0
H200 H 0.88766 0.81368 0.76474 0.0
H201 H 0.97662 0.69836 0.78723 0.0
H202 H 0.90396 0.7869 0.83619 0.0
O203 O 0.99624 0.64752 0.91563 0.0
Tb204 Tb 0.98091 0.58287 0.94514 0.0
Eu205 Eu 1.02211 0.67601 -0.01272 0.0
C206 C 0.94697 0.62607 0.9007 0.0
O207 O 0.89005 0.57247 0.90585 0.0
C208 C 0.86515 0.5983 0.9734 0.0
O209 O 1.0144 0.64356 0.02318 0.0
C210 C 1.08527 0.80056 0.97673 0.0
C211 C 0.99618 0.57995 0.02442 0.0
O212 O 0.98238 0.545 0.00548 0.0
C213 C 0.11756 0.61476 0.97294 0.0
C214 C 0.15724 0.8466 0.97274 0.0
C215 C 0.18164 0.85948 0.95044 0.0
C216 C 0.2501 0.88709 0.94576 0.0
C217 C 0.29531 0.90651 0.96431 0.0
C218 C 0.27121 0.89746 -0.01305 0.0
C219 C 0.20247 0.86822 -0.00917 0.0
O220 O 0.88305 0.57514 0.95551 0.0
O221 O 0.91019 0.63549 -0.01139 0.0
O222 O 0.97051 0.51797 0.91682 0.0
O223 O 0.92082 0.4741 0.94794 0.0
C224 C 0.93232 0.46208 0.92723 0.0
O225 O 1.10429 0.64815 -0.01173 0.0
O226 O 1.07826 0.59007 0.95489 0.0
O227 O 1.06709 0.77979 -0.00213 0.0
O228 O 1.05593 0.75246 0.96135 0.0
H229 H 0.14619 0.84508 0.93658 0.0
H230 H 0.34801 0.92577 0.96126 0.0
H231 H 0.18409 0.85796 0.00821 0.0
O232 O 0.42262 0.95368 0.08728 0.0
Tb233 Tb 0.47712 0.93138 0.11315 0.0
Eu234 Eu 0.41562 0.98322 0.14767 0.0
C235 C 0.37487 0.90161 0.0764 0.0
O236 O 0.35382 0.84221 0.08527 0.0
C237 C 0.34466 0.8202 0.14054 0.0
O238 O 0.43996 0.98404 0.18413 0.0
C239 C 0.35203 1.04334 0.13651 0.0
C240 C 0.48669 0.96871 0.18728 0.0
O241 O 0.50954 0.95112 0.16963 0.0
C242 C 0.57806 1.07252 0.13817 0.0
C243 C 0.37925 0.11538 0.13222 0.0
C244 C 0.3917 0.13863 0.10977 0.0
C245 C 0.43638 0.20627 0.10476 0.0
C246 C 0.46491 0.25185 0.12321 0.0
C247 C 0.4479 0.22944 0.14591 0.0
C248 C 0.40504 0.16147 0.15015 0.0
O249 O 0.39604 0.83293 0.12704 0.0
O250 O 0.34212 0.87054 0.15021 0.0
O251 O 0.51377 0.92516 0.0796 0.0
O252 O 0.53177 0.87827 0.10761 0.0
C253 C 0.54156 0.89112 0.08594 0.0
O254 O 0.52471 1.0711 0.14693 0.0
O255 O 0.57006 1.02032 0.12617 0.0
O256 O 0.35477 1.0263 0.15775 0.0
O257 O 0.37031 1.01284 0.12142 0.0
H258 H 0.36835 0.10254 0.09617 0.0
H259 H 0.50116 0.30387 0.1201 0.0
H260 H 0.39603 0.1441 0.16765 0.0
O261 O 0.53734 0.37769 0.24659 0.0
Tb262 Tb 0.59616 0.42645 0.27711 0.0
Eu263 Eu 0.53622 0.3933 0.32436 0.0
C264 C 0.56106 0.34911 0.23275 0.0
O265 O 0.61451 0.34717 0.23914 0.0
C266 C 0.59276 0.30127 0.306 0.0
O267 O 0.55462 0.40872 0.36113 0.0
C268 C 0.41358 0.34023 0.31164 0.0
C269 C 0.6189 0.44223 0.36458 0.0
O270 O 0.65954 0.4588 0.34707 0.0
C271 C 0.58391 0.54019 0.30642 0.0
C272 C 0.36805 0.36677 0.30726 0.0
C273 C 0.3522 0.37312 0.28479 0.0
C274 C 0.3151 0.4044 0.27959 0.0
C275 C 0.29397 0.43065 0.29761 0.0
C276 C 0.30728 0.42199 0.32055 0.0
C277 C 0.34388 0.38968 0.32504 0.0
O278 O 0.59113 0.32778 0.28598 0.0
O279 O 0.58118 0.32564 0.32452 0.0
O280 O 0.66202 0.48278 0.24934 0.0
O281 O 0.70501 0.47499 0.28029 0.0
C282 C 0.71756 0.49938 0.25968 0.0
O283 O 0.58181 0.50624 0.32452 0.0
O284 O 0.57626 0.51066 0.28624 0.0
O285 O 0.43081 0.33948 0.33299 0.0
O286 O 0.46351 0.35927 0.29706 0.0
H287 H 0.37021 0.35462 0.27107 0.0
H288 H 0.2665 0.45619 0.29388 0.0
H289 H 0.35616 0.38535 0.34253 0.0
O290 O 0.25279 0.52676 0.4208 0.0
Tb291 Tb 0.272 0.60366 0.44663 0.0
Eu292 Eu 0.21082 0.47397 0.47294 0.0
C293 C 0.30181 0.54249 0.40604 0.0
O294 O 0.35951 0.59628 0.41024 0.0
C295 C 0.37555 0.56535 0.46899 0.0
O296 O 0.21583 0.51133 0.50815 0.0
C297 C 0.14376 0.34634 0.46899 0.0
C298 C 0.24483 0.57625 0.51082 0.0
O299 O 0.27536 0.61558 0.4935 0.0
C300 C 0.12693 0.55403 0.46791 0.0
C301 C 1.07075 0.30194 0.46753 0.0
C302 C 1.04071 0.28256 0.44616 0.0
C303 C 0.97144 0.25194 0.44371 0.0
C304 C 0.93075 0.23884 0.46321 0.0
C305 C 0.96063 0.25669 0.485 0.0
C306 C 1.03029 0.28715 0.48688 0.0
O307 O 0.36619 0.61469 0.46179 0.0
O308 O 0.32263 0.50541 0.47193 0.0
O309 O 0.27054 0.64967 0.41445 0.0
O310 O 0.33285 0.71131 0.4411 0.0
C311 C 0.3128 0.71055 0.42038 0.0
O312 O 0.12295 0.49493 0.469 0.0
O313 O 0.18554 0.60623 0.46278 0.0
O314 O 0.16706 0.37616 0.48876 0.0
O315 O 0.17123 0.38634 0.45133 0.0
H316 H 1.07166 0.29344 0.43108 0.0
H317 H 0.87715 0.21619 0.46144 0.0
H318 H 1.05308 0.30236 0.50356 0.0
O319 O 0.80649 0.19594 0.58502 0.0
Tb320 Tb 0.75107 0.2068 0.61344 0.0
Eu321 Eu 0.79592 0.16759 0.65645 0.0
C322 C 0.84521 0.25049 0.5732 0.0
O323 O 0.85342 0.30775 0.58078 0.0
C324 C 0.8791 0.32379 0.64266 0.0
O325 O 0.77421 0.17189 0.69281 0.0
C326 C 0.8502 0.0985 0.64464 0.0
C327 C 0.75441 0.21513 0.69672 0.0
O328 O 0.75485 0.25296 0.67997 0.0
C329 C 0.64225 1.07352 0.64055 0.0
C330 C 0.82342 1.02657 0.64048 0.0
C331 C 0.81681 1.00382 0.61809 0.0
C332 C 0.7828 0.93542 0.61293 0.0
C333 C 0.75473 0.88834 0.63095 0.0
C334 C 0.76347 0.91123 0.65387 0.0
C335 C 0.79832 0.98018 0.65827 0.0
O336 O 0.8365 0.30597 0.62539 0.0
O337 O 0.87275 0.27836 0.65742 0.0
O338 O 0.70459 0.22232 0.5839 0.0
O339 O 0.69754 0.26185 0.61572 0.0
C340 C 0.68088 0.25563 0.59434 0.0
O341 O 0.68348 0.09419 0.65792 0.0
O342 O 0.66313 0.10578 0.62096 0.0
O343 O 0.84998 0.11702 0.66593 0.0
O344 O 0.83132 0.12859 0.62971 0.0
H345 H 0.83718 1.03999 0.60435 0.0
H346 H 0.72709 0.83525 0.62724 0.0
H347 H 0.8027 0.99751 0.67571 0.0
C348 C 0.55774 0.8119 0.03272 0.0
C349 C 0.57239 0.76507 0.04221 0.0
H350 H 0.53648 0.89041 0.03973 0.0
C351 C 0.59341 0.77188 0.06491 0.0
H352 H 0.54146 0.80736 0.01519 0.0
C353 C 0.59025 0.81886 0.07893 0.0
C354 C 0.56616 0.85918 0.07024 0.0
H355 H 0.60567 0.73648 0.0724 0.0
H356 H 0.60061 0.81921 0.09692 0.0
C357 C 0.5545 0.859 0.04678 0.0
C358 C 0.83209 0.53705 0.21021 0.0
C359 C 0.8808 0.52578 0.21992 0.0
H360 H 0.74194 0.53915 0.21575 0.0
C361 C 0.88399 0.52162 0.2437 0.0
H362 H 0.82908 0.54093 0.19192 0.0
C363 C 0.83385 0.52019 0.25739 0.0
C364 C 0.78058 0.52324 0.24733 0.0
H365 H 0.92174 0.51353 0.25154 0.0
H366 H 0.83372 0.51079 0.27546 0.0
C367 C 0.78229 0.53602 0.22388 0.0
C368 C 0.38979 0.83056 0.41266 0.0
C369 C 0.34475 0.76658 0.40447 0.0
H370 H 0.47287 0.92634 0.40478 0.0
C371 C 0.3391 0.7543 0.3809 0.0
H372 H 0.39421 0.84123 0.43076 0.0
C373 C 0.38447 0.80284 0.36599 0.0
C374 C 0.43529 0.86382 0.37464 0.0
H375 H 0.30412 0.70523 0.37422 0.0
H376 H 0.38403 0.78995 0.34821 0.0
C377 C 0.43447 0.87926 0.39776 0.0
C378 C 0.61924 0.33931 0.55445 0.0
C379 C 0.67756 0.40164 0.55256 0.0
H380 H 0.57368 0.2423 0.57029 0.0
C381 C 0.73347 0.41681 0.56583 0.0
H382 H 0.57595 0.32736 0.54411 0.0
C383 C 0.73201 0.36955 0.58059 0.0
C384 C 0.67454 0.30672 0.58229 0.0
H385 H 0.77934 0.46423 0.56406 0.0
H386 H 0.77703 0.38085 0.58982 0.0
C387 C 0.61779 0.29144 0.56937 0.0
C388 C 0.32691 0.58935 0.7262 0.0
C389 C 0.34676 0.62933 0.70659 0.0
H390 H 0.35921 0.56326 0.7568 0.0
C391 C 0.41461 0.668 0.70114 0.0
H392 H 0.27458 0.55985 0.73071 0.0
C393 C 0.46236 0.67006 0.71594 0.0
C394 C 0.44265 0.63366 0.73632 0.0
H395 H 0.43094 0.70122 0.68657 0.0
H396 H 0.51463 0.70414 0.71229 0.0
C397 C 0.37488 0.59164 0.74111 0.0
C398 C 0.78463 0.30065 0.91023 0.0
C399 C 0.79595 0.3031 0.88666 0.0
H400 H 0.82135 0.35023 0.94221 0.0
C401 C 0.85916 0.34778 0.87787 0.0
H402 H 0.73624 0.26587 0.91737 0.0
C403 C 0.90769 0.39558 0.89204 0.0
C404 C 0.89314 0.399 0.91505 0.0
H405 H 0.86912 0.34976 0.85976 0.0
H406 H 0.95406 0.43367 0.88453 0.0
C407 C 0.83329 0.34862 0.92444 0.0
C408 C 0.44398 0.21332 0.90449 0.0
C409 C 0.50679 0.21887 0.90206 0.0
H410 H 0.37243 0.21543 0.92705 0.0
C411 C 0.54432 0.22613 0.92179 0.0
H412 H 0.41436 0.20851 0.8896 0.0
C413 C 0.52169 0.23298 0.94339 0.0
C414 C 0.46077 0.23241 0.94569 0.0
H415 H 0.59356 0.23166 0.9203 0.0
H416 H 0.55416 0.24358 0.95793 0.0
C417 C 0.42063 0.21844 0.92604 0.0
C418 C 0.28992 0.48552 0.10684 0.0
C419 C 0.31116 0.45119 0.12123 0.0
H420 H 0.29232 0.52419 0.07373 0.0
C421 C 0.36008 0.43686 0.11309 0.0
H422 H 0.25268 0.49776 0.1126 0.0
C423 C 0.38391 0.45307 0.09048 0.0
C424 C 0.35792 0.4824 0.07566 0.0
H425 H 0.37699 0.40995 0.12371 0.0
H426 H 0.42004 0.43986 0.08431 0.0
C427 C 0.31211 0.49994 0.0844 0.0
C428 C 0.88416 0.28055 0.28064 0.0
C429 C 0.9382 0.27366 0.28774 0.0
H430 H 0.83932 0.30698 0.25405 0.0
C431 C 0.99316 0.29461 0.27291 0.0
H432 H 0.8403 0.26283 0.29136 0.0
C433 C 0.99293 0.32043 0.25114 0.0
C434 C 0.93674 0.32358 0.24365 0.0
H435 H 1.03462 0.28786 0.27771 0.0
H436 H 1.03514 0.33494 0.23988 0.0
C437 C 0.88325 0.30469 0.25896 0.0
C438 C 0.80374 0.96619 0.41266 0.0
C439 C 0.73769 0.94922 0.40816 0.0
H440 H 0.87462 0.97344 0.43739 0.0
C441 C 0.69273 0.93163 0.42658 0.0
H442 H 0.83965 0.98068 0.3989 0.0
C443 C 0.71219 0.92534 0.44877 0.0
C444 C 0.77734 0.93784 0.45296 0.0
H445 H 0.64131 0.91815 0.42355 0.0
H446 H 0.67515 0.9063 0.46222 0.0
C447 C 0.82362 0.96201 0.43478 0.0
C448 C 0.90684 0.73257 0.57233 0.0
C449 C 0.85708 0.66535 0.56997 0.0
H450 H 0.97628 0.80905 0.59484 0.0
C451 C 0.83267 0.62588 0.58974 0.0
H452 H 0.92723 0.76394 0.55741 0.0
C453 C 0.86065 0.65142 0.61122 0.0
C454 C 0.91462 0.71689 0.6134 0.0
H455 H 0.79454 0.57365 0.58836 0.0
H456 H 0.84372 0.61814 0.62575 0.0
C457 C 0.93513 0.75809 0.59381 0.0
C458 C 0.33819 0.84665 0.7603 0.0
C459 C 0.28262 0.82196 0.74571 0.0
H460 H 0.38189 0.89439 0.79198 0.0
C461 C 0.22547 0.82351 0.75316 0.0
H462 H 0.38318 0.84648 0.75521 0.0
C463 C 0.2251 0.85129 0.77447 0.0
C464 C 0.28126 0.87648 0.78876 0.0
H465 H 0.1819 0.80488 0.74234 0.0
H466 H 0.18199 0.85512 0.77949 0.0
C467 C 0.33736 0.87332 0.78155 0.0
C468 C 0.91433 0.64197 0.83832 0.0
C469 C 0.95794 0.70989 0.83389 0.0
H470 H 0.87644 0.56303 0.86281 0.0
C471 C 1.00264 0.74969 0.85117 0.0
H472 H 0.87822 0.61056 0.82562 0.0
C473 C 1.00201 0.72243 0.87267 0.0
C474 C 0.9552 0.65531 0.87748 0.0
H475 H 1.03579 0.80269 0.84837 0.0
H476 H 1.03553 0.75462 0.88582 0.0
C477 C 0.91269 0.61518 0.85983 0.0
C478 C 0.36847 0.96554 0.04193 0.0
C479 C 0.35545 0.90535 0.05246 0.0
H480 H 0.35259 1.01088 0.01223 0.0
C481 C 0.32396 0.8459 0.03955 0.0
H482 H 0.39327 1.01229 0.05126 0.0
C483 C 0.30345 0.84566 0.01727 0.0
C484 C 0.31271 0.9046 0.00714 0.0
H485 H 0.3138 0.79857 0.04677 0.0
H486 H 0.27627 0.79824 0.00837 0.0
C487 C 0.34636 0.96498 0.01949 0.0
C488 C 0.47334 0.3196 0.20225 0.0
C489 C 0.53336 0.3243 0.20963 0.0
H490 H 0.39924 0.28636 0.17576 0.0
C491 C 0.56802 0.30463 0.19455 0.0
H492 H 0.44547 0.33431 0.2134 0.0
C493 C 0.54265 0.27925 0.17296 0.0
C494 C 0.48181 0.27249 0.16587 0.0
H495 H 0.61443 0.30748 0.19955 0.0
H496 H 0.56887 0.26154 0.16223 0.0
C497 C 0.44739 0.29312 0.18062 0.0
C498 C 0.32884 0.55031 0.36458 0.0
C499 C 0.29182 0.51036 0.38319 0.0
H500 H 0.36039 0.55377 0.32996 0.0
C501 C 0.25069 0.44121 0.37967 0.0
H502 H 0.36046 0.60392 0.36658 0.0
C503 C 0.25124 0.41237 0.35849 0.0
C504 C 0.29123 0.4524 0.3403 0.0
H505 H 0.22148 0.40912 0.39359 0.0
H506 H 0.22306 0.35844 0.35665 0.0
C507 C 0.32815 0.52184 0.34341 0.0
C508 C 0.91582 0.31018 0.53968 0.0
C509 C 0.87272 0.24904 0.55042 0.0
H510 H 0.97491 0.35979 0.51044 0.0
C511 C 0.85409 0.18909 0.53852 0.0
H512 H 0.93135 0.35745 0.54818 0.0
C513 C 0.8791 0.19073 0.51645 0.0
C514 C 0.92296 0.2523 0.50607 0.0
H515 H 0.82054 0.1412 0.54624 0.0
H516 H 0.86607 0.14417 0.50785 0.0
C517 C 0.94035 0.31173 0.51788 0.0
C518 C 0.76538 0.84805 0.68869 0.0
C519 C 0.7301 0.86737 0.67386 0.0
H520 H 0.77047 0.81215 0.72216 0.0
C521 C 0.67049 0.86252 0.68162 0.0
H522 H 0.81283 0.85361 0.68342 0.0
C523 C 0.64787 0.84163 0.70381 0.0
C524 C 0.68367 0.82412 0.71906 0.0
H525 H 0.64355 0.87932 0.67096 0.0
H526 H 0.6025 0.84066 0.70914 0.0
C527 C 0.74181 0.82555 0.71099 0.0
C528 C 0.59711 0.65488 0.90918 0.0
C529 C 0.52826 0.61051 0.91045 0.0
H530 H 0.67938 0.71969 0.88808 0.0
C531 C 0.48842 0.59579 0.89106 0.0
H532 H 0.62856 0.66573 0.92405 0.0
C533 C 0.51711 0.62753 0.87058 0.0
C534 C 0.58603 0.67321 0.86934 0.0
H535 H 0.43508 0.56156 0.89192 0.0
H536 H 0.48533 0.61649 0.85581 0.0
C537 C 0.62599 0.6857 0.88868 0.0
C538 C 0.97634 0.53655 0.08651 0.0
C539 C 0.99016 0.48367 0.08672 0.0
H540 H 0.96848 0.6096 0.06636 0.0
C541 C 1.00816 0.46449 0.06645 0.0
H542 H 0.96304 0.55283 0.102 0.0
C543 C 1.01048 0.49648 0.04615 0.0
C544 C 0.9959 0.54869 0.04596 0.0
H545 H 1.01991 0.42452 0.06621 0.0
H546 H 1.02407 0.48065 0.03062 0.0
C547 C 0.97982 0.56933 0.06625 0.0
C548 C 0.47665 0.96284 0.22938 0.0
C549 C 0.51487 0.97255 0.20971 0.0
H550 H 0.47114 0.94986 0.26555 0.0
C551 C 0.5799 0.9832 0.21141 0.0
H552 H 0.4266 0.95534 0.22832 0.0
C553 C 0.60549 0.98108 0.2325 0.0
C554 C 0.56577 0.96698 0.25203 0.0
H555 H 0.61064 0.99217 0.19641 0.0
H556 H 0.65535 0.98796 0.23339 0.0
C557 C 0.50181 0.95931 0.25051 0.0
C558 C 0.6529 0.4369 0.40355 0.0
C559 C 0.64536 0.47353 0.38616 0.0
H560 H 0.69385 0.44081 0.43636 0.0
C561 C 0.67064 0.54243 0.38833 0.0
H562 H 0.63415 0.38368 0.40167 0.0
C563 C 0.70488 0.57526 0.40791 0.0
C564 C 0.71428 0.53916 0.42526 0.0
H565 H 0.66499 0.57085 0.37471 0.0
H566 H 0.72424 0.62867 0.40937 0.0
C567 C 0.68739 0.46968 0.42312 0.0
C568 C 0.24573 0.69742 0.55391 0.0
C569 C 0.23095 0.65928 0.57377 0.0
H570 H 0.26321 0.70082 0.51807 0.0
C571 C 0.21725 0.59291 0.57277 0.0
H572 H 0.25596 0.74866 0.5545 0.0
C573 C 0.22054 0.56536 0.55212 0.0
C574 C 0.23887 0.60445 0.53236 0.0
H575 H 0.20446 0.56247 0.588 0.0
H576 H 0.2103 0.51411 0.55173 0.0
C577 C 0.2504 0.67028 0.53326 0.0
C578 C 0.69657 0.27293 0.74673 0.0
C579 C 0.64928 0.21172 0.7562 0.0
H580 H 0.76687 0.32155 0.71979 0.0
C581 C 0.63793 0.15134 0.7465 0.0
H582 H 0.70572 0.31984 0.75416 0.0
C583 C 0.67467 0.15238 0.72751 0.0
C584 C 0.72133 0.21378 0.71788 0.0
H585 H 0.60189 0.10372 0.75386 0.0
H586 H 0.66536 0.10549 0.72001 0.0
C587 C 0.73158 0.27393 0.72734 0.0
C588 C 0.44814 0.18161 0.06327 0.0
C589 C 0.45188 0.22718 0.08024 0.0
H590 H 0.4399 0.15728 0.02769 0.0
C591 C 0.46487 0.29063 0.07316 0.0
H592 H 0.44219 0.13351 0.06784 0.0
C593 C 0.46765 0.30559 0.04997 0.0
C594 C 0.45487 0.25679 0.03307 0.0
H595 H 0.46929 0.32779 0.08542 0.0
H596 H 0.47632 0.35473 0.04536 0.0
C597 C 0.44844 0.19572 0.04003 0.0
C598 C 0.31662 0.46614 0.2435 0.0
C599 C 0.29838 0.40603 0.25512 0.0
H600 H 0.31948 0.51226 0.21122 0.0
C601 C 0.27047 0.34616 0.24252 0.0
H602 H 0.3391 0.51317 0.25269 0.0
C603 C 0.26106 0.34592 0.21906 0.0
C604 C 0.27905 0.40549 0.20733 0.0
H605 H 0.25593 0.29904 0.2509 0.0
H606 H 0.23791 0.29851 0.21007 0.0
C607 C 0.30698 0.46586 0.21975 0.0
C608 C 0.93136 0.27536 0.40689 0.0
C609 C 0.94532 0.23322 0.42026 0.0
H610 H 0.91173 0.29838 0.3732 0.0
C611 C 0.95178 0.18248 0.40955 0.0
H612 H 0.92888 0.31667 0.41472 0.0
C613 C 0.94533 0.17413 0.38604 0.0
C614 C 0.93052 0.21523 0.37241 0.0
H615 H 0.9652 0.15116 0.41933 0.0
H616 H 0.95253 0.1353 0.37846 0.0
C617 C 0.9235 0.26613 0.38312 0.0
C618 C 0.7295 0.89179 0.55077 0.0
C619 C 0.79201 0.91486 0.54019 0.0
H620 H 0.67667 0.87837 0.58254 0.0
C621 C 0.84904 0.94006 0.55408 0.0
H622 H 0.68452 0.87089 0.54059 0.0
C623 C 0.84413 0.94071 0.57771 0.0
C624 C 0.78224 0.91791 0.58845 0.0
H625 H 0.89789 0.95771 0.54657 0.0
H626 H 0.8895 0.96121 0.58771 0.0
C627 C 0.72475 0.89396 0.57476 0.0
C628 C 0.97555 0.80925 0.73491 0.0
C629 C 0.94737 0.75092 0.74829 0.0
H630 H 1.00261 0.85239 0.7017 0.0
C631 C 0.92321 0.68878 0.73719 0.0
H632 H 0.99468 0.85793 0.74283 0.0
C633 C 0.92766 0.6857 0.71323 0.0
C634 C 0.95546 0.74459 0.70005 0.0
H635 H 0.90021 0.64286 0.74696 0.0
H636 H 0.91118 0.63776 0.70509 0.0
C637 C 0.97901 0.80608 0.71127 0.0
C638 C 0.22965 0.84622 0.90499 0.0
C639 C 0.27158 0.89368 0.92135 0.0
H640 H 0.20423 0.82426 0.86974 0.0
C641 C 0.32952 0.95063 0.91368 0.0
H642 H 0.18606 0.80001 0.91019 0.0
C643 C 0.34143 0.96301 0.89031 0.0
C644 C 0.29482 0.9197 0.87401 0.0
H645 H 0.36365 0.9877 0.92563 0.0
H646 H 0.38583 1.00847 0.8851 0.0
C647 C 0.24056 0.85946 0.88165 0.0
C648 C 0.74092 0.54615 0.96095 0.0
C649 C 0.79282 0.5841 0.97662 0.0
H650 H 0.63762 0.50623 0.95135 0.0
C651 C 0.7748 0.61007 -0.0044 0.0
H652 H 0.75126 0.52484 0.9461 0.0
C653 C 0.70898 0.5992 -0.00131 0.0
C654 C 0.65723 0.56188 -0.01706 0.0
H655 H 0.81202 0.63963 0.00825 0.0
H656 H 0.69891 0.62088 0.01349 0.0
C657 C 0.67496 0.53544 0.96401 0.0
C658 C 0.27058 0.6942 0.1295 0.0
C659 C 0.28643 0.748 0.14471 0.0
H660 H 0.20404 0.59047 0.12046 0.0
C661 C 0.24264 0.73256 0.16357 0.0
H662 H 0.30136 0.70272 0.11456 0.0
C663 C 0.1861 0.66759 0.16697 0.0
C664 C 0.16961 0.61398 0.15166 0.0
H665 H 0.25199 0.77119 0.17594 0.0
H666 H 0.15512 0.65942 0.18183 0.0
C667 C 0.2138 0.62907 0.13289 0.0
C668 C 0.62635 0.2256 0.32855 0.0
C669 C 0.60317 0.24015 0.30808 0.0
H670 H 0.64898 0.1581 0.34724 0.0
C671 C 0.58655 0.19301 0.29033 0.0
H672 H 0.63975 0.25967 0.34285 0.0
C673 C 0.59024 0.13356 0.29315 0.0
C674 C 0.61306 0.11876 0.31352 0.0
H675 H 0.56815 0.20074 0.27435 0.0
H676 H 0.57435 0.09822 0.27915 0.0
C677 C 0.63211 0.16691 0.33112 0.0
C678 C 0.50621 0.6362 0.46893 0.0
C679 C 0.44632 0.57582 0.47383 0.0
H680 H 0.61445 0.69154 0.46896 0.0
C681 C 0.45515 0.52418 0.48332 0.0
H682 H 0.50335 0.67766 0.46155 0.0
C683 C 0.51957 0.53205 0.48749 0.0
C684 C 0.57947 0.59224 0.48257 0.0
H685 H 0.41173 0.47676 0.48763 0.0
H686 H 0.52226 0.49042 0.4948 0.0
C687 C 0.57084 0.64421 0.47323 0.0
C688 C 0.97886 0.41645 0.66499 0.0
C689 C 0.93682 0.39639 0.64556 0.0
H690 H 1.06434 0.49441 0.68273 0.0
C691 C 0.95269 0.44638 0.6289 0.0
H692 H 0.9695 0.38062 0.67838 0.0
C693 C 1.00835 0.51232 0.63135 0.0
C694 C 1.05061 0.53213 0.65072 0.0
H695 H 0.92256 0.43436 0.61367 0.0
H696 H 1.01827 0.54805 0.61788 0.0
C697 C 1.03392 0.48255 0.66757 0.0
C698 C 0.6686 0.96731 0.81991 0.0
C699 C 0.61817 0.90636 0.8103 0.0
H700 H 0.70036 1.0684 0.83096 0.0
C701 C 0.55787 0.90508 0.80469 0.0
H702 H 0.71593 0.97194 0.82467 0.0
C703 C 0.54875 0.96141 0.80847 0.0
C704 C 0.59949 1.02248 0.81794 0.0
H705 H 0.51733 0.86033 0.79718 0.0
H706 H 0.50162 0.95717 0.8037 0.0
C707 C 0.65962 1.0236 0.82355 0.0
C708 C 0.5799 0.48013 0.79719 0.0
C709 C 0.6318 0.53823 0.80765 0.0
H710 H 0.53053 0.37305 0.7923 0.0
C711 C 0.6747 0.52744 0.82208 0.0
H712 H 0.54582 0.48484 0.78576 0.0
C713 C 0.66556 0.46216 0.82603 0.0
C714 C 0.61333 0.40402 0.81561 0.0
H715 H 0.71524 0.56967 0.83072 0.0
H716 H 0.6994 0.45732 0.83754 0.0
C717 C 0.5711 0.41511 0.80098 0.0
C718 C 0.19739 0.57317 0.95937 0.0
C719 C 0.17815 0.60431 0.97619 0.0
H720 H 0.26417 0.53825 0.94883 0.0
C721 C 0.21758 0.62452 -0.00371 0.0
H722 H 0.16959 0.55661 0.94361 0.0
C723 C 0.27281 0.6137 -0.0006 0.0
C724 C 0.29177 0.58225 -0.01746 0.0
H725 H 0.20546 0.6485 0.00989 0.0
H726 H 0.30043 0.62972 0.01521 0.0
C727 C 0.25251 0.56255 0.96244 0.0
C728 C 0.77084 0.19649 0.13366 0.0
C729 C 0.78411 0.24818 0.14957 0.0
H730 H 0.69926 0.10362 0.1176 0.0
C731 C 0.72756 0.24108 0.16157 0.0
H732 H 0.81152 0.19864 0.1238 0.0
C733 C 0.66186 0.18539 0.15793 0.0
C734 C 0.64891 0.13351 0.14211 0.0
H735 H 0.73403 0.27837 0.17411 0.0
H736 H 0.62102 0.18273 0.16783 0.0
C737 C 0.70542 0.141 0.13006 0.0
C738 C 0.62155 0.72351 0.29513 0.0
C739 C 0.61351 0.74626 0.31681 0.0
H740 H 0.61843 0.64364 0.27461 0.0
C741 C 0.59419 0.69919 0.33469 0.0
H742 H 0.63637 0.75705 0.28069 0.0
C743 C 0.5845 0.63365 0.33116 0.0
C744 C 0.59265 0.61088 0.30951 0.0
H745 H 0.58713 0.71318 0.35165 0.0
H746 H 0.57037 0.60043 0.34567 0.0
C747 C 0.611 0.65758 0.29153 0.0
C748 C 1.00452 0.51042 0.48193 0.0
C749 C 1.06512 0.56225 0.47258 0.0
H750 H 0.90376 0.47754 0.49372 0.0
C751 C 1.06568 0.62274 0.46782 0.0
H752 H 1.00057 0.46286 0.48604 0.0
C753 C 1.0094 0.63107 0.4721 0.0
C754 C 0.94895 0.57964 0.4816 0.0
H755 H 1.11007 0.66433 0.46056 0.0
H756 H 1.01363 0.67872 0.46792 0.0
C757 C 0.94818 0.51894 0.48639 0.0
C758 C 0.45708 0.93771 0.62819 0.0
C759 C 0.4353 0.89917 0.64844 0.0
H760 H 0.53613 1.0204 0.60976 0.0
C761 C 0.48367 0.91847 0.66589 0.0
H762 H 0.42267 0.92563 0.61415 0.0
C763 C 0.5498 0.97374 0.66331 0.0
C764 C 0.57121 1.01272 0.64313 0.0
H765 H 0.47046 0.89085 0.68173 0.0
H766 H 0.58435 0.986 0.67732 0.0
C767 C 0.52307 0.99283 0.62561 0.0
loop_
_geom_bond_atom_site_label_1
_geom_bond_atom_site_label_2
_geom_bond_distance
_geom_bond_site_symmetry_2
_ccdc_geom_bond_type
O0 Tb1 2.292 . S
O0 C3 1.255 . S
Tb1 O0 2.292 . S
Tb1 O17 2.326 . S
Tb1 O19 2.500 . S
Tb1 O20 2.473 . S
Tb1 O23 2.324 . S
Eu2 O6 2.292 . S
Eu2 C7 2.852 . S
Eu2 O18 2.324 1_556 S
Eu2 O22 2.326 1_556 S
Eu2 O24 2.500 . S
Eu2 O25 2.473 1_556 S
C3 O0 1.255 . S
C3 O4 1.247 . S
O4 C3 1.247 . S
C5 O17 1.242 . S
C5 O18 1.258 . S
O6 Eu2 2.292 . S
O6 C8 1.255 . S
C7 Eu2 2.852 . S
C7 C11 1.500 1_556 S
C7 O24 1.273 . S
C7 O25 1.257 1_556 S
C8 O6 1.255 . S
C8 O9 1.247 . S
O9 C8 1.247 . S
C10 O22 1.242 . S
C10 O23 1.258 . S
C11 C7 1.500 1_554 S
C11 C12 1.387 . S
C11 C16 1.386 1_554 S
C12 C11 1.387 . S
C12 C13 1.404 . S
C12 H26 0.929 . S
C13 C12 1.404 . S
C13 C14 1.389 . S
C14 C13 1.389 . S
C14 C15 1.399 1_554 S
C14 H27 0.931 . S
C15 C14 1.399 1_556 S
C15 C16 1.390 . S
C16 C11 1.386 1_556 S
C16 C15 1.390 . S
C16 H28 0.929 . S
O17 Tb1 2.326 . S
O17 C5 1.242 . S
O18 Eu2 2.324 1_554 S
O18 C5 1.258 . S
O19 Tb1 2.500 . S
O19 C21 1.273 . S
O20 Tb1 2.473 . S
O20 C21 1.257 . S
C21 O19 1.273 . S
C21 O20 1.257 . S
O22 Eu2 2.326 1_554 S
O22 C10 1.242 . S
O23 Tb1 2.324 . S
O23 C10 1.258 . S
O24 Eu2 2.500 . S
O24 C7 1.273 . S
O25 Eu2 2.473 1_554 S
O25 C7 1.257 1_554 S
H26 C12 0.929 . S
H27 C14 0.931 . S
H28 C16 0.929 . S
O29 Tb30 2.292 . S
O29 C32 1.255 . S
Tb30 O29 2.292 . S
Tb30 O46 2.326 . S
Tb30 O48 2.500 . S
Tb30 O49 2.473 . S
Tb30 O52 2.324 . S
Eu31 O35 2.292 . S
Eu31 C36 2.852 . S
Eu31 O47 2.324 . S
Eu31 O51 2.326 . S
Eu31 O53 2.500 . S
Eu31 O54 2.473 . S
C32 O29 1.255 . S
C32 O33 1.247 . S
O33 C32 1.247 . S
C34 O46 1.242 . S
C34 O47 1.258 . S
O35 Eu31 2.292 . S
O35 C37 1.255 . S
C36 Eu31 2.852 . S
C36 C40 1.503 1_655 S
C36 O53 1.273 . S
C36 O54 1.257 . S
C37 O35 1.255 . S
C37 O38 1.247 . S
O38 C37 1.247 . S
C39 O51 1.242 . S
C39 O52 1.258 . S
C40 C36 1.503 1_455 S
C40 C41 1.379 . S
C40 C45 1.392 . S
C41 C40 1.379 . S
C41 C42 1.404 . S
C41 H55 0.929 . S
C42 C41 1.404 . S
C42 C43 1.389 . S
C43 C42 1.389 . S
C43 C44 1.399 . S
C43 H56 0.931 . S
C44 C43 1.399 . S
C44 C45 1.390 . S
C45 C40 1.392 . S
C45 C44 1.390 . S
C45 H57 0.929 . S
O46 Tb30 2.326 . S
O46 C34 1.242 . S
O47 Eu31 2.324 . S
O47 C34 1.258 . S
O48 Tb30 2.500 . S
O48 C50 1.273 . S
O49 Tb30 2.473 . S
O49 C50 1.257 . S
C50 O48 1.273 . S
C50 O49 1.257 . S
O51 Eu31 2.326 . S
O51 C39 1.242 . S
O52 Tb30 2.324 . S
O52 C39 1.258 . S
O53 Eu31 2.500 . S
O53 C36 1.273 . S
O54 Eu31 2.473 . S
O54 C36 1.257 . S
H55 C41 0.929 . S
H56 C43 0.931 . S
H57 C45 0.929 . S
O58 Tb59 2.292 . S
O58 C61 1.255 . S
Tb59 O58 2.292 . S
Tb59 O75 2.326 . S
Tb59 O77 2.500 . S
Tb59 O78 2.473 . S
Tb59 O81 2.324 . S
Eu60 O64 2.292 . S
Eu60 C65 2.852 . S
Eu60 O76 2.324 . S
Eu60 O80 2.326 . S
Eu60 O82 2.500 . S
Eu60 O83 2.473 . S
C61 O58 1.255 . S
C61 O62 1.247 . S
O62 C61 1.247 . S
C63 O75 1.242 . S
C63 O76 1.258 . S
O64 Eu60 2.292 . S
O64 C66 1.255 . S
C65 Eu60 2.852 . S
C65 C69 1.503 1_565 S
C65 O82 1.273 . S
C65 O83 1.257 . S
C66 O64 1.255 . S
C66 O67 1.247 . S
O67 C66 1.247 . S
C68 O80 1.242 . S
C68 O81 1.258 . S
C69 C65 1.503 1_545 S
C69 C70 1.379 . S
C69 C74 1.392 . S
C70 C69 1.379 . S
C70 C71 1.404 . S
C70 H84 0.929 . S
C71 C70 1.404 . S
C71 C72 1.389 . S
C72 C71 1.389 . S
C72 C73 1.399 . S
C72 H85 0.931 . S
C73 C72 1.399 . S
C73 C74 1.390 . S
C74 C69 1.392 . S
C74 C73 1.390 . S
C74 H86 0.929 . S
O75 Tb59 2.326 . S
O75 C63 1.242 . S
O76 Eu60 2.324 . S
O76 C63 1.258 . S
O77 Tb59 2.500 . S
O77 C79 1.273 . S
O78 Tb59 2.473 . S
O78 C79 1.257 . S
C79 O77 1.273 . S
C79 O78 1.257 . S
O80 Eu60 2.326 . S
O80 C68 1.242 . S
O81 Tb59 2.324 . S
O81 C68 1.258 . S
O82 Eu60 2.500 . S
O82 C65 1.273 . S
O83 Eu60 2.473 . S
O83 C65 1.257 . S
H84 C70 0.929 . S
H85 C72 0.931 . S
H86 C74 0.929 . S
O87 Tb88 2.292 . S
O87 C90 1.255 . S
Tb88 O87 2.292 . S
Tb88 O104 2.326 . S
Tb88 O106 2.500 . S
Tb88 O107 2.473 . S
Tb88 O110 2.324 . S
Eu89 O93 2.292 . S
Eu89 C94 2.852 . S
Eu89 O105 2.324 . S
Eu89 O109 2.326 . S
Eu89 O111 2.500 . S
Eu89 O112 2.473 . S
C90 O87 1.255 . S
C90 O91 1.247 . S
O91 C90 1.247 . S
C92 O104 1.242 . S
C92 O105 1.258 . S
O93 Eu89 2.292 . S
O93 C95 1.255 . S
C94 Eu89 2.852 . S
C94 C98 1.503 . S
C94 O111 1.273 . S
C94 O112 1.257 . S
C95 O93 1.255 . S
C95 O96 1.247 . S
O96 C95 1.247 . S
C97 O109 1.242 . S
C97 O110 1.258 . S
C98 C94 1.503 . S
C98 C99 1.379 . S
C98 C103 1.392 . S
C99 C98 1.379 . S
C99 C100 1.404 . S
C99 H113 0.929 . S
C100 C99 1.404 . S
C100 C101 1.389 . S
C101 C100 1.389 . S
C101 C102 1.399 . S
C101 H114 0.931 . S
C102 C101 1.399 . S
C102 C103 1.390 . S
C103 C98 1.392 . S
C103 C102 1.390 . S
C103 H115 0.929 . S
O104 Tb88 2.326 . S
O104 C92 1.242 . S
O105 Eu89 2.324 . S
O105 C92 1.258 . S
O106 Tb88 2.500 . S
O106 C108 1.273 . S
O107 Tb88 2.473 . S
O107 C108 1.257 . S
C108 O106 1.273 . S
C108 O107 1.257 . S
O109 Eu89 2.326 . S
O109 C97 1.242 . S
O110 Tb88 2.324 . S
O110 C97 1.258 . S
O111 Eu89 2.500 . S
O111 C94 1.273 . S
O112 Eu89 2.473 . S
O112 C94 1.257 . S
H113 C99 0.929 . S
H114 C101 0.931 . S
H115 C103 0.929 . S
O116 Tb117 2.292 . S
O116 C119 1.255 . S
Tb117 O116 2.292 . S
Tb117 O133 2.326 . S
Tb117 O135 2.500 . S
Tb117 O136 2.473 . S
Tb117 O139 2.324 . S
Eu118 O122 2.292 . S
Eu118 C123 2.852 . S
Eu118 O134 2.324 . S
Eu118 O138 2.326 . S
Eu118 O140 2.500 . S
Eu118 O141 2.473 . S
C119 O116 1.255 . S
C119 O120 1.247 . S
O120 C119 1.247 . S
C121 O133 1.242 . S
C121 O134 1.258 . S
O122 Eu118 2.292 . S
O122 C124 1.255 . S
C123 Eu118 2.852 . S
C123 C127 1.503 1_455 S
C123 O140 1.273 . S
C123 O141 1.257 . S
C124 O122 1.255 . S
C124 O125 1.247 . S
O125 C124 1.247 . S
C126 O138 1.242 . S
C126 O139 1.258 . S
C127 C123 1.503 1_655 S
C127 C128 1.379 . S
C127 C132 1.392 . S
C128 C127 1.379 . S
C128 C129 1.404 . S
C128 H142 0.929 . S
C129 C128 1.404 . S
C129 C130 1.389 . S
C130 C129 1.389 . S
C130 C131 1.399 . S
C130 H143 0.931 . S
C131 C130 1.399 . S
C131 C132 1.390 . S
C132 C127 1.392 . S
C132 C131 1.390 . S
C132 H144 0.929 . S
O133 Tb117 2.326 . S
O133 C121 1.242 . S
O134 Eu118 2.324 . S
O134 C121 1.258 . S
O135 Tb117 2.500 . S
O135 C137 1.273 . S
O136 Tb117 2.473 . S
O136 C137 1.257 . S
C137 O135 1.273 . S
C137 O136 1.257 . S
O138 Eu118 2.326 . S
O138 C126 1.242 . S
O139 Tb117 2.324 . S
O139 C126 1.258 . S
O140 Eu118 2.500 . S
O140 C123 1.273 . S
O141 Eu118 2.473 . S
O141 C123 1.257 . S
H142 C128 0.929 . S
H143 C130 0.931 . S
H144 C132 0.929 . S
O145 Tb146 2.292 . S
O145 C148 1.255 . S
Tb146 O145 2.292 . S
Tb146 O162 2.326 . S
Tb146 O164 2.500 . S
Tb146 O165 2.473 . S
Tb146 O168 2.324 . S
Eu147 O151 2.292 . S
Eu147 C152 2.852 . S
Eu147 O163 2.324 . S
Eu147 O167 2.326 . S
Eu147 O169 2.500 . S
Eu147 O170 2.473 . S
C148 O145 1.255 . S
C148 O149 1.247 . S
O149 C148 1.247 . S
C150 O162 1.242 . S
C150 O163 1.258 . S
O151 Eu147 2.292 . S
O151 C153 1.255 . S
C152 Eu147 2.852 . S
C152 C156 1.503 1_545 S
C152 O169 1.273 . S
C152 O170 1.257 . S
C153 O151 1.255 . S
C153 O154 1.247 . S
O154 C153 1.247 . S
C155 O167 1.242 . S
C155 O168 1.258 . S
C156 C152 1.503 1_565 S
C156 C157 1.379 . S
C156 C161 1.392 . S
C157 C156 1.379 . S
C157 C158 1.404 . S
C157 H171 0.929 . S
C158 C157 1.404 . S
C158 C159 1.389 . S
C159 C158 1.389 . S
C159 C160 1.399 . S
C159 H172 0.931 . S
C160 C159 1.399 . S
C160 C161 1.390 . S
C161 C156 1.392 . S
C161 C160 1.390 . S
C161 H173 0.929 . S
O162 Tb146 2.326 . S
O162 C150 1.242 . S
O163 Eu147 2.324 . S
O163 C150 1.258 . S
O164 Tb146 2.500 . S
O164 C166 1.273 . S
O165 Tb146 2.473 . S
O165 C166 1.257 . S
C166 O164 1.273 . S
C166 O165 1.257 . S
O167 Eu147 2.326 . S
O167 C155 1.242 . S
O168 Tb146 2.324 . S
O168 C155 1.258 . S
O169 Eu147 2.500 . S
O169 C152 1.273 . S
O170 Eu147 2.473 . S
O170 C152 1.257 . S
H171 C157 0.929 . S
H172 C159 0.931 . S
H173 C161 0.929 . S
O174 Tb175 2.292 . S
O174 C177 1.255 . S
Tb175 O174 2.292 . S
Tb175 O191 2.326 . S
Tb175 O193 2.500 . S
Tb175 O194 2.473 . S
Tb175 O197 2.324 . S
Eu176 O180 2.292 . S
Eu176 C181 2.852 . S
Eu176 O192 2.324 . S
Eu176 O196 2.326 . S
Eu176 O198 2.500 . S
Eu176 O199 2.473 . S
C177 O174 1.255 . S
C177 O178 1.247 . S
O178 C177 1.247 . S
C179 O191 1.242 . S
C179 O192 1.258 . S
O180 Eu176 2.292 . S
O180 C182 1.255 . S
C181 Eu176 2.852 . S
C181 C185 1.503 . S
C181 O198 1.273 . S
C181 O199 1.257 . S
C182 O180 1.255 . S
C182 O183 1.247 . S
O183 C182 1.247 . S
C184 O196 1.242 . S
C184 O197 1.258 . S
C185 C181 1.503 . S
C185 C186 1.379 . S
C185 C190 1.392 . S
C186 C185 1.379 . S
C186 C187 1.404 . S
C186 H200 0.929 . S
C187 C186 1.404 . S
C187 C188 1.389 . S
C188 C187 1.389 . S
C188 C189 1.399 . S
C188 H201 0.931 . S
C189 C188 1.399 . S
C189 C190 1.390 . S
C190 C185 1.392 . S
C190 C189 1.390 . S
C190 H202 0.929 . S
O191 Tb175 2.326 . S
O191 C179 1.242 . S
O192 Eu176 2.324 . S
O192 C179 1.258 . S
O193 Tb175 2.500 . S
O193 C195 1.273 . S
O194 Tb175 2.473 . S
O194 C195 1.257 . S
C195 O193 1.273 . S
C195 O194 1.257 . S
O196 Eu176 2.326 . S
O196 C184 1.242 . S
O197 Tb175 2.324 . S
O197 C184 1.258 . S
O198 Eu176 2.500 . S
O198 C181 1.273 . S
O199 Eu176 2.473 . S
O199 C181 1.257 . S
H200 C186 0.929 . S
H201 C188 0.931 . S
H202 C190 0.929 . S
O203 Tb204 2.292 . S
O203 C206 1.255 . S
Tb204 O203 2.292 . S
Tb204 O220 2.326 . S
Tb204 O222 2.500 . S
Tb204 O223 2.473 . S
Tb204 O226 2.324 . S
Eu205 O209 2.292 . S
Eu205 C210 2.852 . S
Eu205 O221 2.324 1_554 S
Eu205 O225 2.326 1_554 S
Eu205 O227 2.500 . S
Eu205 O228 2.473 1_554 S
C206 O203 1.255 . S
C206 O207 1.247 . S
O207 C206 1.247 . S
C208 O220 1.242 . S
C208 O221 1.258 . S
O209 Eu205 2.292 . S
O209 C211 1.255 . S
C210 Eu205 2.852 . S
C210 C214 1.503 1_654 S
C210 O227 1.273 . S
C210 O228 1.257 1_554 S
C211 O209 1.255 . S
C211 O212 1.247 . S
O212 C211 1.247 . S
C213 O225 1.242 . S
C213 O226 1.258 . S
C214 C210 1.503 1_456 S
C214 C215 1.379 . S
C214 C219 1.392 1_556 S
C215 C214 1.379 . S
C215 C216 1.404 . S
C215 H229 0.929 . S
C216 C215 1.404 . S
C216 C217 1.389 . S
C217 C216 1.389 . S
C217 C218 1.399 1_556 S
C217 H230 0.931 . S
C218 C217 1.399 1_554 S
C218 C219 1.390 . S
C219 C214 1.392 1_554 S
C219 C218 1.390 . S
C219 H231 0.929 . S
O220 Tb204 2.326 . S
O220 C208 1.242 . S
O221 Eu205 2.324 1_556 S
O221 C208 1.258 . S
O222 Tb204 2.500 . S
O222 C224 1.273 . S
O223 Tb204 2.473 . S
O223 C224 1.257 . S
C224 O222 1.273 . S
C224 O223 1.257 . S
O225 Eu205 2.326 1_556 S
O225 C213 1.242 . S
O226 Tb204 2.324 . S
O226 C213 1.258 . S
O227 Eu205 2.500 . S
O227 C210 1.273 . S
O228 Eu205 2.473 1_556 S
O228 C210 1.257 1_556 S
H229 C215 0.929 . S
H230 C217 0.931 . S
H231 C219 0.929 . S
O232 Tb233 2.292 . S
O232 C235 1.255 . S
Tb233 O232 2.292 . S
Tb233 O249 2.326 . S
Tb233 O251 2.500 . S
Tb233 O252 2.473 . S
Tb233 O255 2.324 . S
Eu234 O238 2.292 . S
Eu234 C239 2.852 . S
Eu234 O250 2.324 . S
Eu234 O254 2.326 . S
Eu234 O256 2.500 . S
Eu234 O257 2.473 . S
C235 O232 1.255 . S
C235 O236 1.247 . S
O236 C235 1.247 . S
C237 O249 1.242 . S
C237 O250 1.258 . S
O238 Eu234 2.292 . S
O238 C240 1.255 . S
C239 Eu234 2.852 . S
C239 C243 1.503 1_565 S
C239 O256 1.273 . S
C239 O257 1.257 . S
C240 O238 1.255 . S
C240 O241 1.247 . S
O241 C240 1.247 . S
C242 O254 1.242 . S
C242 O255 1.258 . S
C243 C239 1.503 1_545 S
C243 C244 1.379 . S
C243 C248 1.392 . S
C244 C243 1.379 . S
C244 C245 1.404 . S
C244 H258 0.929 . S
C245 C244 1.404 . S
C245 C246 1.389 . S
C246 C245 1.389 . S
C246 C247 1.399 . S
C246 H259 0.931 . S
C247 C246 1.399 . S
C247 C248 1.390 . S
C248 C243 1.392 . S
C248 C247 1.390 . S
C248 H260 0.929 . S
O249 Tb233 2.326 . S
O249 C237 1.242 . S
O250 Eu234 2.324 . S
O250 C237 1.258 . S
O251 Tb233 2.500 . S
O251 C253 1.273 . S
O252 Tb233 2.473 . S
O252 C253 1.257 . S
C253 O251 1.273 . S
C253 O252 1.257 . S
O254 Eu234 2.326 . S
O254 C242 1.242 . S
O255 Tb233 2.324 . S
O255 C242 1.258 . S
O256 Eu234 2.500 . S
O256 C239 1.273 . S
O257 Eu234 2.473 . S
O257 C239 1.257 . S
H258 C244 0.929 . S
H259 C246 0.931 . S
H260 C248 0.929 . S
O261 Tb262 2.292 . S
O261 C264 1.255 . S
Tb262 O261 2.292 . S
Tb262 O278 2.326 . S
Tb262 O280 2.500 . S
Tb262 O281 2.473 . S
Tb262 O284 2.324 . S
Eu263 O267 2.292 . S
Eu263 C268 2.852 . S
Eu263 O279 2.324 . S
Eu263 O283 2.326 . S
Eu263 O285 2.500 . S
Eu263 O286 2.473 . S
C264 O261 1.255 . S
C264 O265 1.247 . S
O265 C264 1.247 . S
C266 O278 1.242 . S
C266 O279 1.258 . S
O267 Eu263 2.292 . S
O267 C269 1.255 . S
C268 Eu263 2.852 . S
C268 C272 1.503 . S
C268 O285 1.273 . S
C268 O286 1.257 . S
C269 O267 1.255 . S
C269 O270 1.247 . S
O270 C269 1.247 . S
C271 O283 1.242 . S
C271 O284 1.258 . S
C272 C268 1.503 . S
C272 C273 1.379 . S
C272 C277 1.392 . S
C273 C272 1.379 . S
C273 C274 1.404 . S
C273 H287 0.929 . S
C274 C273 1.404 . S
C274 C275 1.389 . S
C275 C274 1.389 . S
C275 C276 1.399 . S
C275 H288 0.931 . S
C276 C275 1.399 . S
C276 C277 1.390 . S
C277 C272 1.392 . S
C277 C276 1.390 . S
C277 H289 0.929 . S
O278 Tb262 2.326 . S
O278 C266 1.242 . S
O279 Eu263 2.324 . S
O279 C266 1.258 . S
O280 Tb262 2.500 . S
O280 C282 1.273 . S
O281 Tb262 2.473 . S
O281 C282 1.257 . S
C282 O280 1.273 . S
C282 O281 1.257 . S
O283 Eu263 2.326 . S
O283 C271 1.242 . S
O284 Tb262 2.324 . S
O284 C271 1.258 . S
O285 Eu263 2.500 . S
O285 C268 1.273 . S
O286 Eu263 2.473 . S
O286 C268 1.257 . S
H287 C273 0.929 . S
H288 C275 0.931 . S
H289 C277 0.929 . S
O290 Tb291 2.292 . S
O290 C293 1.255 . S
Tb291 O290 2.292 . S
Tb291 O307 2.326 . S
Tb291 O309 2.500 . S
Tb291 O310 2.473 . S
Tb291 O313 2.324 . S
Eu292 O296 2.292 . S
Eu292 C297 2.852 . S
Eu292 O308 2.324 . S
Eu292 O312 2.326 . S
Eu292 O314 2.500 . S
Eu292 O315 2.473 . S
C293 O290 1.255 . S
C293 O294 1.247 . S
O294 C293 1.247 . S
C295 O307 1.242 . S
C295 O308 1.258 . S
O296 Eu292 2.292 . S
O296 C298 1.255 . S
C297 Eu292 2.852 . S
C297 C301 1.503 1_455 S
C297 O314 1.273 . S
C297 O315 1.257 . S
C298 O296 1.255 . S
C298 O299 1.247 . S
O299 C298 1.247 . S
C300 O312 1.242 . S
C300 O313 1.258 . S
C301 C297 1.503 1_655 S
C301 C302 1.379 . S
C301 C306 1.392 . S
C302 C301 1.379 . S
C302 C303 1.404 . S
C302 H316 0.929 . S
C303 C302 1.404 . S
C303 C304 1.389 . S
C304 C303 1.389 . S
C304 C305 1.399 . S
C304 H317 0.931 . S
C305 C304 1.399 . S
C305 C306 1.390 . S
C306 C301 1.392 . S
C306 C305 1.390 . S
C306 H318 0.929 . S
O307 Tb291 2.326 . S
O307 C295 1.242 . S
O308 Eu292 2.324 . S
O308 C295 1.258 . S
O309 Tb291 2.500 . S
O309 C311 1.273 . S
O310 Tb291 2.473 . S
O310 C311 1.257 . S
C311 O309 1.273 . S
C311 O310 1.257 . S
O312 Eu292 2.326 . S
O312 C300 1.242 . S
O313 Tb291 2.324 . S
O313 C300 1.258 . S
O314 Eu292 2.500 . S
O314 C297 1.273 . S
O315 Eu292 2.473 . S
O315 C297 1.257 . S
H316 C302 0.929 . S
H317 C304 0.931 . S
H318 C306 0.929 . S
O319 Tb320 2.292 . S
O319 C322 1.255 . S
Tb320 O319 2.292 . S
Tb320 O336 2.326 . S
Tb320 O338 2.500 . S
Tb320 O339 2.473 . S
Tb320 O342 2.324 . S
Eu321 O325 2.292 . S
Eu321 C326 2.852 . S
Eu321 O337 2.324 . S
Eu321 O341 2.326 . S
Eu321 O343 2.500 . S
Eu321 O344 2.473 . S
C322 O319 1.255 . S
C322 O323 1.247 . S
O323 C322 1.247 . S
C324 O336 1.242 . S
C324 O337 1.258 . S
O325 Eu321 2.292 . S
O325 C327 1.255 . S
C326 Eu321 2.852 . S
C326 C330 1.503 1_545 S
C326 O343 1.273 . S
C326 O344 1.257 . S
C327 O325 1.255 . S
C327 O328 1.247 . S
O328 C327 1.247 . S
C329 O341 1.242 . S
C329 O342 1.258 . S
C330 C326 1.503 1_565 S
C330 C331 1.379 . S
C330 C335 1.392 . S
C331 C330 1.379 . S
C331 C332 1.404 . S
C331 H345 0.929 . S
C332 C331 1.404 . S
C332 C333 1.389 . S
C333 C332 1.389 . S
C333 C334 1.399 . S
C333 H346 0.931 . S
C334 C333 1.399 . S
C334 C335 1.390 . S
C335 C330 1.392 . S
C335 C334 1.390 . S
C335 H347 0.929 . S
O336 Tb320 2.326 . S
O336 C324 1.242 . S
O337 Eu321 2.324 . S
O337 C324 1.258 . S
O338 Tb320 2.500 . S
O338 C340 1.273 . S
O339 Tb320 2.473 . S
O339 C340 1.257 . S
C340 O338 1.273 . S
C340 O339 1.257 . S
O341 Eu321 2.326 . S
O341 C329 1.242 . S
O342 Tb320 2.324 . S
O342 C329 1.258 . S
O343 Eu321 2.500 . S
O343 C326 1.273 . S
O344 Eu321 2.473 . S
O344 C326 1.257 . S
H345 C331 0.929 . S
H346 C333 0.931 . S
H347 C335 0.929 . S
C348 C349 1.387 . S
C348 H352 0.950 . S
C348 C357 1.390 . S
C349 C348 1.387 . S
C349 C351 1.387 . S
H350 C357 0.950 . S
C351 C349 1.387 . S
C351 C353 1.390 . S
C351 H355 0.950 . S
H352 C348 0.950 . S
C353 C351 1.390 . S
C353 C354 1.387 . S
C353 H356 0.950 . S
C354 C353 1.387 . S
C354 C357 1.387 . S
H355 C351 0.950 . S
H356 C353 0.950 . S
C357 C348 1.390 . S
C357 H350 0.950 . S
C357 C354 1.387 . S
C358 C359 1.387 . S
C358 H362 0.950 . S
C358 C367 1.390 . S
C359 C358 1.387 . S
C359 C361 1.387 . S
H360 C367 0.950 . S
C361 C359 1.387 . S
C361 C363 1.390 . S
C361 H365 0.950 . S
H362 C358 0.950 . S
C363 C361 1.390 . S
C363 C364 1.387 . S
C363 H366 0.950 . S
C364 C363 1.387 . S
C364 C367 1.387 . S
H365 C361 0.950 . S
H366 C363 0.950 . S
C367 C358 1.390 . S
C367 H360 0.950 . S
C367 C364 1.387 . S
C368 C369 1.387 . S
C368 H372 0.950 . S
C368 C377 1.390 . S
C369 C368 1.387 . S
C369 C371 1.387 . S
H370 C377 0.950 . S
C371 C369 1.387 . S
C371 C373 1.390 . S
C371 H375 0.950 . S
H372 C368 0.950 . S
C373 C371 1.390 . S
C373 C374 1.387 . S
C373 H376 0.950 . S
C374 C373 1.387 . S
C374 C377 1.387 . S
H375 C371 0.950 . S
H376 C373 0.950 . S
C377 C368 1.390 . S
C377 H370 0.950 . S
C377 C374 1.387 . S
C378 C379 1.387 . S
C378 H382 0.950 . S
C378 C387 1.390 . S
C379 C378 1.387 . S
C379 C381 1.387 . S
H380 C387 0.950 . S
C381 C379 1.387 . S
C381 C383 1.390 . S
C381 H385 0.950 . S
H382 C378 0.950 . S
C383 C381 1.390 . S
C383 C384 1.387 . S
C383 H386 0.950 . S
C384 C383 1.387 . S
C384 C387 1.387 . S
H385 C381 0.950 . S
H386 C383 0.950 . S
C387 C378 1.390 . S
C387 H380 0.950 . S
C387 C384 1.387 . S
C388 C389 1.387 . S
C388 H392 0.950 . S
C388 C397 1.390 . S
C389 C388 1.387 . S
C389 C391 1.387 . S
H390 C397 0.950 . S
C391 C389 1.387 . S
C391 C393 1.390 . S
C391 H395 0.950 . S
H392 C388 0.950 . S
C393 C391 1.390 . S
C393 C394 1.387 . S
C393 H396 0.950 . S
C394 C393 1.387 . S
C394 C397 1.387 . S
H395 C391 0.950 . S
H396 C393 0.950 . S
C397 C388 1.390 . S
C397 H390 0.950 . S
C397 C394 1.387 . S
C398 C399 1.387 . S
C398 H402 0.950 . S
C398 C407 1.390 . S
C399 C398 1.387 . S
C399 C401 1.387 . S
H400 C407 0.950 . S
C401 C399 1.387 . S
C401 C403 1.390 . S
C401 H405 0.950 . S
H402 C398 0.950 . S
C403 C401 1.390 . S
C403 C404 1.387 . S
C403 H406 0.950 . S
C404 C403 1.387 . S
C404 C407 1.387 . S
H405 C401 0.950 . S
H406 C403 0.950 . S
C407 C398 1.390 . S
C407 H400 0.950 . S
C407 C404 1.387 . S
C408 C409 1.387 . S
C408 H412 0.950 . S
C408 C417 1.390 . S
C409 C408 1.387 . S
C409 C411 1.387 . S
H410 C417 0.950 . S
C411 C409 1.387 . S
C411 C413 1.390 . S
C411 H415 0.950 . S
H412 C408 0.950 . S
C413 C411 1.390 . S
C413 C414 1.387 . S
C413 H416 0.950 . S
C414 C413 1.387 . S
C414 C417 1.387 . S
H415 C411 0.950 . S
H416 C413 0.950 . S
C417 C408 1.390 . S
C417 H410 0.950 . S
C417 C414 1.387 . S
C418 C419 1.387 . S
C418 H422 0.950 . S
C418 C427 1.390 . S
C419 C418 1.387 . S
C419 C421 1.387 . S
H420 C427 0.950 . S
C421 C419 1.387 . S
C421 C423 1.390 . S
C421 H425 0.950 . S
H422 C418 0.950 . S
C423 C421 1.390 . S
C423 C424 1.387 . S
C423 H426 0.950 . S
C424 C423 1.387 . S
C424 C427 1.387 . S
H425 C421 0.950 . S
H426 C423 0.950 . S
C427 C418 1.390 . S
C427 H420 0.950 . S
C427 C424 1.387 . S
C428 C429 1.387 . S
C428 H432 0.950 . S
C428 C437 1.390 . S
C429 C428 1.387 . S
C429 C431 1.387 . S
H430 C437 0.950 . S
C431 C429 1.387 . S
C431 C433 1.390 . S
C431 H435 0.950 . S
H432 C428 0.950 . S
C433 C431 1.390 . S
C433 C434 1.387 . S
C433 H436 0.950 . S
C434 C433 1.387 . S
C434 C437 1.387 . S
H435 C431 0.950 . S
H436 C433 0.950 . S
C437 C428 1.390 . S
C437 H430 0.950 . S
C437 C434 1.387 . S
C438 C439 1.387 . S
C438 H442 0.950 . S
C438 C447 1.390 . S
C439 C438 1.387 . S
C439 C441 1.387 . S
H440 C447 0.950 . S
C441 C439 1.387 . S
C441 C443 1.390 . S
C441 H445 0.950 . S
H442 C438 0.950 . S
C443 C441 1.390 . S
C443 C444 1.387 . S
C443 H446 0.950 . S
C444 C443 1.387 . S
C444 C447 1.387 . S
H445 C441 0.950 . S
H446 C443 0.950 . S
C447 C438 1.390 . S
C447 H440 0.950 . S
C447 C444 1.387 . S
C448 C449 1.387 . S
C448 H452 0.950 . S
C448 C457 1.390 . S
C449 C448 1.387 . S
C449 C451 1.387 . S
H450 C457 0.950 . S
C451 C449 1.387 . S
C451 C453 1.390 . S
C451 H455 0.950 . S
H452 C448 0.950 . S
C453 C451 1.390 . S
C453 C454 1.387 . S
C453 H456 0.950 . S
C454 C453 1.387 . S
C454 C457 1.387 . S
H455 C451 0.950 . S
H456 C453 0.950 . S
C457 C448 1.390 . S
C457 H450 0.950 . S
C457 C454 1.387 . S
C458 C459 1.387 . S
C458 H462 0.950 . S
C458 C467 1.390 . S
C459 C458 1.387 . S
C459 C461 1.387 . S
H460 C467 0.950 . S
C461 C459 1.387 . S
C461 C463 1.390 . S
C461 H465 0.950 . S
H462 C458 0.950 . S
C463 C461 1.390 . S
C463 C464 1.387 . S
C463 H466 0.950 . S
C464 C463 1.387 . S
C464 C467 1.387 . S
H465 C461 0.950 . S
H466 C463 0.950 . S
C467 C458 1.390 . S
C467 H460 0.950 . S
C467 C464 1.387 . S
C468 C469 1.387 . S
C468 H472 0.950 . S
C468 C477 1.390 . S
C469 C468 1.387 . S
C469 C471 1.387 . S
H470 C477 0.950 . S
C471 C469 1.387 . S
C471 C473 1.390 . S
C471 H475 0.950 . S
H472 C468 0.950 . S
C473 C471 1.390 . S
C473 C474 1.387 . S
C473 H476 0.950 . S
C474 C473 1.387 . S
C474 C477 1.387 . S
H475 C471 0.950 . S
H476 C473 0.950 . S
C477 C468 1.390 . S
C477 H470 0.950 . S
C477 C474 1.387 . S
C478 C479 1.387 . S
C478 H482 0.950 . S
C478 C487 1.390 . S
C479 C478 1.387 . S
C479 C481 1.387 . S
H480 C487 0.950 . S
C481 C479 1.387 . S
C481 C483 1.390 . S
C481 H485 0.950 . S
H482 C478 0.950 . S
C483 C481 1.390 . S
C483 C484 1.387 . S
C483 H486 0.950 . S
C484 C483 1.387 . S
C484 C487 1.387 . S
H485 C481 0.950 . S
H486 C483 0.950 . S
C487 C478 1.390 . S
C487 H480 0.950 . S
C487 C484 1.387 . S
C488 C489 1.387 . S
C488 H492 0.950 . S
C488 C497 1.390 . S
C489 C488 1.387 . S
C489 C491 1.387 . S
H490 C497 0.950 . S
C491 C489 1.387 . S
C491 C493 1.390 . S
C491 H495 0.950 . S
H492 C488 0.950 . S
C493 C491 1.390 . S
C493 C494 1.387 . S
C493 H496 0.950 . S
C494 C493 1.387 . S
C494 C497 1.387 . S
H495 C491 0.950 . S
H496 C493 0.950 . S
C497 C488 1.390 . S
C497 H490 0.950 . S
C497 C494 1.387 . S
C498 C499 1.387 . S
C498 H502 0.950 . S
C498 C507 1.390 . S
C499 C498 1.387 . S
C499 C501 1.387 . S
H500 C507 0.950 . S
C501 C499 1.387 . S
C501 C503 1.390 . S
C501 H505 0.950 . S
H502 C498 0.950 . S
C503 C501 1.390 . S
C503 C504 1.387 . S
C503 H506 0.950 . S
C504 C503 1.387 . S
C504 C507 1.387 . S
H505 C501 0.950 . S
H506 C503 0.950 . S
C507 C498 1.390 . S
C507 H500 0.950 . S
C507 C504 1.387 . S
C508 C509 1.387 . S
C508 H512 0.950 . S
C508 C517 1.390 . S
C509 C508 1.387 . S
C509 C511 1.387 . S
H510 C517 0.950 . S
C511 C509 1.387 . S
C511 C513 1.390 . S
C511 H515 0.950 . S
H512 C508 0.950 . S
C513 C511 1.390 . S
C513 C514 1.387 . S
C513 H516 0.950 . S
C514 C513 1.387 . S
C514 C517 1.387 . S
H515 C511 0.950 . S
H516 C513 0.950 . S
C517 C508 1.390 . S
C517 H510 0.950 . S
C517 C514 1.387 . S
C518 C519 1.387 . S
C518 H522 0.950 . S
C518 C527 1.390 . S
C519 C518 1.387 . S
C519 C521 1.387 . S
H520 C527 0.950 . S
C521 C519 1.387 . S
C521 C523 1.390 . S
C521 H525 0.950 . S
H522 C518 0.950 . S
C523 C521 1.390 . S
C523 C524 1.387 . S
C523 H526 0.950 . S
C524 C523 1.387 . S
C524 C527 1.387 . S
H525 C521 0.950 . S
H526 C523 0.950 . S
C527 C518 1.390 . S
C527 H520 0.950 . S
C527 C524 1.387 . S
C528 C529 1.387 . S
C528 H532 0.950 . S
C528 C537 1.390 . S
C529 C528 1.387 . S
C529 C531 1.387 . S
H530 C537 0.950 . S
C531 C529 1.387 . S
C531 C533 1.390 . S
C531 H535 0.950 . S
H532 C528 0.950 . S
C533 C531 1.390 . S
C533 C534 1.387 . S
C533 H536 0.950 . S
C534 C533 1.387 . S
C534 C537 1.387 . S
H535 C531 0.950 . S
H536 C533 0.950 . S
C537 C528 1.390 . S
C537 H530 0.950 . S
C537 C534 1.387 . S
C538 C539 1.387 . S
C538 H542 0.950 . S
C538 C547 1.390 . S
C539 C538 1.387 . S
C539 C541 1.387 . S
H540 C547 0.950 . S
C541 C539 1.387 . S
C541 C543 1.390 . S
C541 H545 0.950 1_655 S
H542 C538 0.950 . S
C543 C541 1.390 . S
C543 C544 1.387 . S
C543 H546 0.950 1_655 S
C544 C543 1.387 . S
C544 C547 1.387 . S
H545 C541 0.950 1_455 S
H546 C543 0.950 1_455 S
C547 C538 1.390 . S
C547 H540 0.950 . S
C547 C544 1.387 . S
C548 C549 1.387 . S
C548 H552 0.950 . S
C548 C557 1.390 . S
C549 C548 1.387 . S
C549 C551 1.387 . S
H550 C557 0.950 . S
C551 C549 1.387 . S
C551 C553 1.390 . S
C551 H555 0.950 . S
H552 C548 0.950 . S
C553 C551 1.390 . S
C553 C554 1.387 . S
C553 H556 0.950 . S
C554 C553 1.387 . S
C554 C557 1.387 . S
H555 C551 0.950 . S
H556 C553 0.950 . S
C557 C548 1.390 . S
C557 H550 0.950 . S
C557 C554 1.387 . S
C558 C559 1.387 . S
C558 H562 0.950 . S
C558 C567 1.390 . S
C559 C558 1.387 . S
C559 C561 1.387 . S
H560 C567 0.950 . S
C561 C559 1.387 . S
C561 C563 1.390 . S
C561 H565 0.950 . S
H562 C558 0.950 . S
C563 C561 1.390 . S
C563 C564 1.387 . S
C563 H566 0.950 . S
C564 C563 1.387 . S
C564 C567 1.387 . S
H565 C561 0.950 . S
H566 C563 0.950 . S
C567 C558 1.390 . S
C567 H560 0.950 . S
C567 C564 1.387 . S
C568 C569 1.387 . S
C568 H572 0.950 . S
C568 C577 1.390 . S
C569 C568 1.387 . S
C569 C571 1.387 . S
H570 C577 0.950 . S
C571 C569 1.387 . S
C571 C573 1.390 . S
C571 H575 0.950 . S
H572 C568 0.950 . S
C573 C571 1.390 . S
C573 C574 1.387 . S
C573 H576 0.950 . S
C574 C573 1.387 . S
C574 C577 1.387 . S
H575 C571 0.950 . S
H576 C573 0.950 . S
C577 C568 1.390 . S
C577 H570 0.950 . S
C577 C574 1.387 . S
C578 C579 1.387 . S
C578 H582 0.950 . S
C578 C587 1.390 . S
C579 C578 1.387 . S
C579 C581 1.389 . S
H580 C587 0.950 . S
C581 C579 1.389 . S
C581 C583 1.390 . S
C581 H585 0.948 1_545 S
H582 C578 0.950 . S
C583 C581 1.390 . S
C583 C584 1.389 . S
C583 H586 0.948 1_545 S
C584 C583 1.389 . S
C584 C587 1.387 . S
H585 C581 0.948 1_565 S
H586 C583 0.948 1_565 S
C587 C578 1.390 . S
C587 H580 0.950 . S
C587 C584 1.387 . S
C588 C589 1.387 . S
C588 H592 0.950 . S
C588 C597 1.390 . S
C589 C588 1.387 . S
C589 C591 1.387 . S
H590 C597 0.950 . S
C591 C589 1.387 . S
C591 C593 1.390 . S
C591 H595 0.950 . S
H592 C588 0.950 . S
C593 C591 1.390 . S
C593 C594 1.387 . S
C593 H596 0.950 . S
C594 C593 1.387 . S
C594 C597 1.387 . S
H595 C591 0.950 . S
H596 C593 0.950 . S
C597 C588 1.390 . S
C597 H590 0.950 . S
C597 C594 1.387 . S
C598 C599 1.387 . S
C598 H602 0.950 . S
C598 C607 1.390 . S
C599 C598 1.387 . S
C599 C601 1.387 . S
H600 C607 0.950 . S
C601 C599 1.387 . S
C601 C603 1.390 . S
C601 H605 0.950 . S
H602 C598 0.950 . S
C603 C601 1.390 . S
C603 C604 1.387 . S
C603 H606 0.950 . S
C604 C603 1.387 . S
C604 C607 1.387 . S
H605 C601 0.950 . S
H606 C603 0.950 . S
C607 C598 1.390 . S
C607 H600 0.950 . S
C607 C604 1.387 . S
C608 C609 1.387 . S
C608 H612 0.950 . S
C608 C617 1.390 . S
C609 C608 1.387 . S
C609 C611 1.387 . S
H610 C617 0.950 . S
C611 C609 1.387 . S
C611 C613 1.390 . S
C611 H615 0.950 . S
H612 C608 0.950 . S
C613 C611 1.390 . S
C613 C614 1.387 . S
C613 H616 0.950 . S
C614 C613 1.387 . S
C614 C617 1.387 . S
H615 C611 0.950 . S
H616 C613 0.950 . S
C617 C608 1.390 . S
C617 H610 0.950 . S
C617 C614 1.387 . S
C618 C619 1.387 . S
C618 H622 0.950 . S
C618 C627 1.390 . S
C619 C618 1.387 . S
C619 C621 1.387 . S
H620 C627 0.950 . S
C621 C619 1.387 . S
C621 C623 1.390 . S
C621 H625 0.950 . S
H622 C618 0.950 . S
C623 C621 1.390 . S
C623 C624 1.387 . S
C623 H626 0.950 . S
C624 C623 1.387 . S
C624 C627 1.387 . S
H625 C621 0.950 . S
H626 C623 0.950 . S
C627 C618 1.390 . S
C627 H620 0.950 . S
C627 C624 1.387 . S
C628 C629 1.387 . S
C628 H632 0.950 . S
C628 C637 1.390 . S
C629 C628 1.387 . S
C629 C631 1.387 . S
H630 C637 0.950 . S
C631 C629 1.387 . S
C631 C633 1.390 . S
C631 H635 0.950 . S
H632 C628 0.950 . S
C633 C631 1.390 . S
C633 C634 1.387 . S
C633 H636 0.950 . S
C634 C633 1.387 . S
C634 C637 1.387 . S
H635 C631 0.950 . S
H636 C633 0.950 . S
C637 C628 1.390 . S
C637 H630 0.950 . S
C637 C634 1.387 . S
C638 C639 1.387 . S
C638 H642 0.950 . S
C638 C647 1.390 . S
C639 C638 1.387 . S
C639 C641 1.387 . S
H640 C647 0.950 . S
C641 C639 1.387 . S
C641 C643 1.390 . S
C641 H645 0.950 . S
H642 C638 0.950 . S
C643 C641 1.390 . S
C643 C644 1.387 . S
C643 H646 0.950 . S
C644 C643 1.387 . S
C644 C647 1.387 . S
H645 C641 0.950 . S
H646 C643 0.950 . S
C647 C638 1.390 . S
C647 H640 0.950 . S
C647 C644 1.387 . S
C648 C649 1.387 . S
C648 H652 0.950 . S
C648 C657 1.390 . S
C649 C648 1.387 . S
C649 C651 1.367 1_556 S
H650 C657 0.950 . S
C651 C649 1.367 1_554 S
C651 C653 1.404 . S
C651 H655 0.958 . S
H652 C648 0.950 . S
C653 C651 1.404 . S
C653 C654 1.387 . S
C653 H656 0.950 . S
C654 C653 1.387 . S
C654 C657 1.387 1_554 S
H655 C651 0.958 . S
H656 C653 0.950 . S
C657 C648 1.390 . S
C657 H650 0.950 . S
C657 C654 1.387 1_556 S
C658 C659 1.387 . S
C658 H662 0.950 . S
C658 C667 1.390 . S
C659 C658 1.387 . S
C659 C661 1.387 . S
H660 C667 0.950 . S
C661 C659 1.387 . S
C661 C663 1.390 . S
C661 H665 0.950 . S
H662 C658 0.950 . S
C663 C661 1.390 . S
C663 C664 1.387 . S
C663 H666 0.950 . S
C664 C663 1.387 . S
C664 C667 1.387 . S
H665 C661 0.950 . S
H666 C663 0.950 . S
C667 C658 1.390 . S
C667 H660 0.950 . S
C667 C664 1.387 . S
C668 C669 1.387 . S
C668 H672 0.950 . S
C668 C677 1.390 . S
C669 C668 1.387 . S
C669 C671 1.387 . S
H670 C677 0.950 . S
C671 C669 1.387 . S
C671 C673 1.390 . S
C671 H675 0.950 . S
H672 C668 0.950 . S
C673 C671 1.390 . S
C673 C674 1.387 . S
C673 H676 0.950 . S
C674 C673 1.387 . S
C674 C677 1.387 . S
H675 C671 0.950 . S
H676 C673 0.950 . S
C677 C668 1.390 . S
C677 H670 0.950 . S
C677 C674 1.387 . S
C678 C679 1.387 . S
C678 H682 0.950 . S
C678 C687 1.390 . S
C679 C678 1.387 . S
C679 C681 1.387 . S
H680 C687 0.950 . S
C681 C679 1.387 . S
C681 C683 1.390 . S
C681 H685 0.950 . S
H682 C678 0.950 . S
C683 C681 1.390 . S
C683 C684 1.387 . S
C683 H686 0.950 . S
C684 C683 1.387 . S
C684 C687 1.387 . S
H685 C681 0.950 . S
H686 C683 0.950 . S
C687 C678 1.390 . S
C687 H680 0.950 . S
C687 C684 1.387 . S
C688 C689 1.387 . S
C688 H692 0.950 . S
C688 C697 1.390 . S
C689 C688 1.387 . S
C689 C691 1.387 . S
H690 C697 0.950 . S
C691 C689 1.387 . S
C691 C693 1.390 . S
C691 H695 0.950 . S
H692 C688 0.950 . S
C693 C691 1.390 . S
C693 C694 1.387 . S
C693 H696 0.950 . S
C694 C693 1.387 . S
C694 C697 1.387 . S
H695 C691 0.950 . S
H696 C693 0.950 . S
C697 C688 1.390 . S
C697 H690 0.950 . S
C697 C694 1.387 . S
C698 C699 1.387 . S
C698 H702 0.950 . S
C698 C707 1.390 . S
C699 C698 1.387 . S
C699 C701 1.387 . S
H700 C707 0.950 . S
C701 C699 1.387 . S
C701 C703 1.390 . S
C701 H705 0.950 . S
H702 C698 0.950 . S
C703 C701 1.390 . S
C703 C704 1.387 . S
C703 H706 0.950 . S
C704 C703 1.387 . S
C704 C707 1.387 . S
H705 C701 0.950 . S
H706 C703 0.950 . S
C707 C698 1.390 . S
C707 H700 0.950 . S
C707 C704 1.387 . S
C708 C709 1.387 . S
C708 H712 0.950 . S
C708 C717 1.390 . S
C709 C708 1.387 . S
C709 C711 1.387 . S
H710 C717 0.950 . S
C711 C709 1.387 . S
C711 C713 1.390 . S
C711 H715 0.950 . S
H712 C708 0.950 . S
C713 C711 1.390 . S
C713 C714 1.387 . S
C713 H716 0.950 . S
C714 C713 1.387 . S
C714 C717 1.387 . S
H715 C711 0.950 . S
H716 C713 0.950 . S
C717 C708 1.390 . S
C717 H710 0.950 . S
C717 C714 1.387 . S
C718 C719 1.387 . S
C718 H722 0.950 . S
C718 C727 1.390 . S
C719 C718 1.387 . S
C719 C721 1.387 1_556 S
H720 C727 0.950 . S
C721 C719 1.387 1_554 S
C721 C723 1.390 . S
C721 H725 0.950 . S
H722 C718 0.950 . S
C723 C721 1.390 . S
C723 C724 1.387 . S
C723 H726 0.950 . S
C724 C723 1.387 . S
C724 C727 1.387 1_554 S
H725 C721 0.950 . S
H726 C723 0.950 . S
C727 C718 1.390 . S
C727 H720 0.950 . S
C727 C724 1.387 1_556 S
C728 C729 1.387 . S
C728 H732 0.950 . S
C728 C737 1.390 . S
C729 C728 1.387 . S
C729 C731 1.387 . S
H730 C737 0.950 . S
C731 C729 1.387 . S
C731 C733 1.390 . S
C731 H735 0.950 . S
H732 C728 0.950 . S
C733 C731 1.390 . S
C733 C734 1.387 . S
C733 H736 0.950 . S
C734 C733 1.387 . S
C734 C737 1.387 . S
H735 C731 0.950 . S
H736 C733 0.950 . S
C737 C728 1.390 . S
C737 H730 0.950 . S
C737 C734 1.387 . S
C738 C739 1.387 . S
C738 H742 0.950 . S
C738 C747 1.390 . S
C739 C738 1.387 . S
C739 C741 1.387 . S
H740 C747 0.950 . S
C741 C739 1.387 . S
C741 C743 1.390 . S
C741 H745 0.950 . S
H742 C738 0.950 . S
C743 C741 1.390 . S
C743 C744 1.387 . S
C743 H746 0.950 . S
C744 C743 1.387 . S
C744 C747 1.387 . S
H745 C741 0.950 . S
H746 C743 0.950 . S
C747 C738 1.390 . S
C747 H740 0.950 . S
C747 C744 1.387 . S
C748 C749 1.387 . S
C748 H752 0.950 . S
C748 C757 1.390 . S
C749 C748 1.387 . S
C749 C751 1.387 . S
H750 C757 0.950 . S
C751 C749 1.387 . S
C751 C753 1.390 . S
C751 H755 0.950 . S
H752 C748 0.950 . S
C753 C751 1.390 . S
C753 C754 1.387 . S
C753 H756 0.950 . S
C754 C753 1.387 . S
C754 C757 1.387 . S
H755 C751 0.950 . S
H756 C753 0.950 . S
C757 C748 1.390 . S
C757 H750 0.950 . S
C757 C754 1.387 . S
C758 C759 1.387 . S
C758 H762 0.950 . S
C758 C767 1.390 . S
C759 C758 1.387 . S
C759 C761 1.387 . S
H760 C767 0.950 . S
C761 C759 1.387 . S
C761 C763 1.390 . S
C761 H765 0.950 . S
H762 C758 0.950 . S
C763 C761 1.390 . S
C763 C764 1.387 . S
C763 H766 0.950 . S
C764 C763 1.387 . S
C764 C767 1.387 . S
H765 C761 0.950 . S
H766 C763 0.950 . S
C767 C758 1.390 . S
C767 H760 0.950 . S
C767 C764 1.387 . S
C349 C21 1.397 . S
C354 C253 1.397 . S
C359 C50 1.394 . S
C364 C282 1.394 . S
C369 C311 1.395 . S
C374 C79 1.395 . S
C379 C108 1.392 . S
C384 C340 1.392 . S
C389 C137 1.392 . S
C394 C195 1.392 . S
C399 C166 1.397 . S
C404 C224 1.397 . S
C409 C148 0.816 . S
C414 C15 0.807 . S
C419 C44 0.806 . S
C424 C3 0.816 . S
C429 C73 0.806 . S
C434 C32 0.814 . S
C439 C61 0.817 . S
C444 C102 0.810 . S
C449 C90 0.817 . S
C454 C131 0.809 . S
C459 C119 0.814 . S
C464 C160 0.805 . S
C469 C189 0.806 . S
C474 C206 0.814 . S
C479 C235 0.815 . S
C484 C218 0.811 . S
C489 C264 0.816 . S
C494 C247 0.812 . S
C499 C293 0.813 . S
C504 C276 0.806 . S
C509 C322 0.815 . S
C514 C305 0.806 . S
C519 C334 0.812 . S
C524 C177 0.816 . S
C529 C8 0.842 . S
C534 C182 0.845 . S
C539 C37 0.838 . S
C544 C211 0.842 . S
C549 C240 0.845 . S
C554 C66 0.839 . S
C559 C269 0.841 . S
C564 C95 0.839 . S
C569 C124 0.843 . S
C574 C298 0.838 . S
C579 C153 0.839 . S
C584 C327 0.839 . S
C589 C245 1.950 . S
C594 C13 1.952 . S
C599 C274 1.951 . S
C604 C42 1.951 . S
C609 C303 1.950 . S
C614 C71 1.951 . S
C619 C100 1.951 . S
C624 C332 1.950 . S
C629 C187 1.951 . S
C634 C129 1.951 . S
C639 C216 1.950 . S
C644 C158 1.952 . S
C649 C208 3.126 . S
C654 C10 3.267 . S
C659 C237 3.125 . S
C664 C39 3.267 1_455 S
C669 C266 3.126 . S
C674 C68 3.267 1_545 S
C679 C295 3.126 . S
C684 C97 3.267 . S
C689 C324 3.125 . S
C694 C126 3.267 1_655 S
C699 C179 3.125 . S
C704 C155 3.266 1_565 S
C709 C184 3.267 . S
C714 C150 3.125 . S
C719 C213 3.267 1_455 S
C724 C5 3.125 . S
C729 C34 3.125 . S
C734 C242 3.267 1_545 S
C739 C63 3.125 . S
C744 C271 3.267 . S
C749 C300 3.267 1_655 S
C754 C92 3.126 . S
C759 C121 3.125 . S
C764 C329 3.267 1_565 S
