# Generated by pormake.
# Topology tzs, (4)-cn, num edge types: 1
# Building blocks:
#     Node 0, Type 0, BuildingBlock: KUFVIS_clean_sbu_0, # of connection points: 4
#     Node 1, Type 0, BuildingBlock: KUFVIS_clean_sbu_0, # of connection points: 4
#     Node 2, Type 0, BuildingBlock: KUFVIS_clean_sbu_0, # of connection points: 4
#     Node 3, Type 0, BuildingBlock: KUFVIS_clean_sbu_0, # of connection points: 4
#     Node 4, Type 0, BuildingBlock: KUFVIS_clean_sbu_0, # of connection points: 4
#     Node 5, Type 0, BuildingBlock: KUFVIS_clean_sbu_0, # of connection points: 4
#     Node 6, Type 0, BuildingBlock: KUFVIS_clean_sbu_0, # of connection points: 4
#     Node 7, Type 0, BuildingBlock: KUFVIS_clean_sbu_0, # of connection points: 4
#     Node 8, Type 0, BuildingBlock: KUFVIS_clean_sbu_0, # of connection points: 4
#     Node 9, Type 0, BuildingBlock: KUFVIS_clean_sbu_0, # of connection points: 4
#     Node 10, Type 0, BuildingBlock: KUFVIS_clean_sbu_0, # of connection points: 4
#     Node 11, Type 0, BuildingBlock: KUFVIS_clean_sbu_0, # of connection points: 4
#     Node 12, Type 0, BuildingBlock: KUFVIS_clean_sbu_0, # of connection points: 4
#     Node 13, Type 0, BuildingBlock: KUFVIS_clean_sbu_0, # of connection points: 4
#     Node 14, Type 0, BuildingBlock: KUFVIS_clean_sbu_0, # of connection points: 4
#     Node 15, Type 0, BuildingBlock: KUFVIS_clean_sbu_0, # of connection points: 4
#     Edge 16, Type (0, 0), BuildingBlock: OJICUG_clean_linker_0, # of connection points: 2
#     Edge 17, Type (0, 0), BuildingBlock: OJICUG_clean_linker_0, # of connection points: 2
#     Edge 18, Type (0, 0), BuildingBlock: OJICUG_clean_linker_0, # of connection points: 2
#     Edge 19, Type (0, 0), BuildingBlock: OJICUG_clean_linker_0, # of connection points: 2
#     Edge 20, Type (0, 0), BuildingBlock: OJICUG_clean_linker_0, # of connection points: 2
#     Edge 21, Type (0, 0), BuildingBlock: OJICUG_clean_linker_0, # of connection points: 2
#     Edge 22, Type (0, 0), BuildingBlock: OJICUG_clean_linker_0, # of connection points: 2
#     Edge 23, Type (0, 0), BuildingBlock: OJICUG_clean_linker_0, # of connection points: 2
#     Edge 24, Type (0, 0), BuildingBlock: OJICUG_clean_linker_0, # of connection points: 2
#     Edge 25, Type (0, 0), BuildingBlock: OJICUG_clean_linker_0, # of connection points: 2
#     Edge 26, Type (0, 0), BuildingBlock: OJICUG_clean_linker_0, # of connection points: 2
#     Edge 27, Type (0, 0), BuildingBlock: OJICUG_clean_linker_0, # of connection points: 2
#     Edge 28, Type (0, 0), BuildingBlock: OJICUG_clean_linker_0, # of connection points: 2
#     Edge 29, Type (0, 0), BuildingBlock: OJICUG_clean_linker_0, # of connection points: 2
#     Edge 30, Type (0, 0), BuildingBlock: OJICUG_clean_linker_0, # of connection points: 2
#     Edge 31, Type (0, 0), BuildingBlock: OJICUG_clean_linker_0, # of connection points: 2
#     Edge 32, Type (0, 0), BuildingBlock: OJICUG_clean_linker_0, # of connection points: 2
#     Edge 33, Type (0, 0), BuildingBlock: OJICUG_clean_linker_0, # of connection points: 2
#     Edge 34, Type (0, 0), BuildingBlock: OJICUG_clean_linker_0, # of connection points: 2
#     Edge 35, Type (0, 0), BuildingBlock: OJICUG_clean_linker_0, # of connection points: 2
#     Edge 36, Type (0, 0), BuildingBlock: OJICUG_clean_linker_0, # of connection points: 2
#     Edge 37, Type (0, 0), BuildingBlock: OJICUG_clean_linker_0, # of connection points: 2
#     Edge 38, Type (0, 0), BuildingBlock: OJICUG_clean_linker_0, # of connection points: 2
#     Edge 39, Type (0, 0), BuildingBlock: OJICUG_clean_linker_0, # of connection points: 2
#     Edge 40, Type (0, 0), BuildingBlock: OJICUG_clean_linker_0, # of connection points: 2
#     Edge 41, Type (0, 0), BuildingBlock: OJICUG_clean_linker_0, # of connection points: 2
#     Edge 42, Type (0, 0), BuildingBlock: OJICUG_clean_linker_0, # of connection points: 2
#     Edge 43, Type (0, 0), BuildingBlock: OJICUG_clean_linker_0, # of connection points: 2
#     Edge 44, Type (0, 0), BuildingBlock: OJICUG_clean_linker_0, # of connection points: 2
#     Edge 45, Type (0, 0), BuildingBlock: OJICUG_clean_linker_0, # of connection points: 2
#     Edge 46, Type (0, 0), BuildingBlock: OJICUG_clean_linker_0, # of connection points: 2
#     Edge 47, Type (0, 0), BuildingBlock: OJICUG_clean_linker_0, # of connection points: 2
# Relax obj value: 0.095
# Max RMSD: 0.092
# Mean RMSD: 0.092
data_MOF--net-tzs--node1-KUFVIS_clean_sbu_0--edge1-OJICUG_clean_linker_0
_symmetry_space_group_name_H-M    P1
_symmetry_Int_Tables_number       1
_symmetry_cell_setting            triclinic
loop_
_symmetry_equiv_pos_as_xyz
'x, y, z'
_cell_length_a     35.00134
_cell_length_b     34.984163
_cell_length_c     28.419204
_cell_angle_alpha  90.000878
_cell_angle_beta   89.972424
_cell_angle_gamma 90.012494
loop_
_atom_site_label
_atom_site_type_symbol
_atom_site_fract_x
_atom_site_fract_y
_atom_site_fract_z
_atom_type_partial_charge
Mn0 Mn 0.1598 0.37988 0.20564 0.0
Mn1 Mn 0.24294 0.4097 0.15555 0.0
C2 C 0.1964 0.42783 0.24224 0.0
C3 C 0.09309 0.38166 0.22107 0.0
C4 C 0.23436 0.33383 0.20594 0.0
O5 O 0.15349 0.36436 0.13564 0.0
O6 O 0.2079 0.39035 0.10828 0.0
C7 C 0.21104 0.47513 0.10213 0.0
N8 N 0.23794 0.4604 0.13158 0.0
C9 C 0.27412 0.51876 0.12992 0.0
C10 C 0.24706 0.53454 0.09914 0.0
C11 C 0.21515 0.51275 0.0856 0.0
C12 C 0.26788 0.48154 0.14619 0.0
H13 H 0.18677 0.45822 0.09128 0.0
C14 C 0.17583 0.37429 0.10184 0.0
O15 O 0.1133 0.35095 0.2259 0.0
O16 O 0.11104 0.41127 0.20443 0.0
N17 N 0.28162 0.43017 0.19544 0.0
C18 C 0.30385 0.41141 0.22729 0.0
C19 C 0.33772 0.42853 0.24323 0.0
C20 C 0.34857 0.46456 0.22597 0.0
C21 C 0.32492 0.48369 0.19388 0.0
C22 C 0.29191 0.46491 0.17861 0.0
H23 H 0.29644 0.38312 0.23941 0.0
O24 O 0.17364 0.40577 0.26612 0.0
O25 O 0.19904 0.41931 0.19799 0.0
O26 O 0.19981 0.33858 0.21842 0.0
O27 O 0.25228 0.35741 0.17977 0.0
C28 C 0.33292 0.52046 0.17608 0.0
C29 C 0.30711 0.53833 0.14494 0.0
H30 H 0.25043 0.56336 0.08582 0.0
H31 H 0.19403 0.52477 0.06207 0.0
H32 H 0.3558 0.41369 0.26814 0.0
H33 H 0.37503 0.47732 0.23785 0.0
H34 H 0.3586 0.53548 0.18652 0.0
H35 H 0.31308 0.56696 0.13244 0.0
Mn36 Mn 0.64015 0.16136 0.21326 0.0
Mn37 Mn 0.61254 0.24522 0.16328 0.0
C38 C 0.59197 0.19802 0.24924 0.0
C39 C 0.63777 0.09447 0.2275 0.0
C40 C 0.68762 0.23485 0.21462 0.0
O41 O 0.65653 0.15537 0.14351 0.0
O42 O 0.63091 0.2098 0.11569 0.0
C43 C 0.54638 0.2163 0.10875 0.0
N44 N 0.56191 0.24233 0.13877 0.0
C45 C 0.50555 0.28144 0.13592 0.0
C46 C 0.48891 0.25524 0.10466 0.0
C47 C 0.50928 0.22231 0.09142 0.0
C48 C 0.54215 0.27335 0.15292 0.0
H49 H 0.5623 0.19132 0.09801 0.0
C50 C 0.64677 0.17756 0.10951 0.0
O51 O 0.66845 0.11451 0.23337 0.0
O52 O 0.60842 0.11278 0.21073 0.0
N53 N 0.59323 0.28424 0.20358 0.0
C54 C 0.61223 0.30494 0.23676 0.0
C55 C 0.59634 0.33928 0.25316 0.0
C56 C 0.56132 0.35216 0.23497 0.0
C57 C 0.54193 0.33006 0.20143 0.0
C58 C 0.55945 0.29644 0.1859 0.0
H59 H 0.63978 0.29591 0.24967 0.0
O60 O 0.61363 0.175 0.27329 0.0
O61 O 0.60122 0.20112 0.20518 0.0
O62 O 0.68169 0.20068 0.22776 0.0
O63 O 0.66503 0.25302 0.18757 0.0
C64 C 0.50595 0.33999 0.18275 0.0
C65 C 0.4874 0.31529 0.15079 0.0
H66 H 0.46051 0.26006 0.09075 0.0
H67 H 0.49661 0.20188 0.06746 0.0
H68 H 0.61137 0.35614 0.27919 0.0
H69 H 0.54948 0.37892 0.24736 0.0
H70 H 0.49191 0.36618 0.1934 0.0
H71 H 0.45929 0.3227 0.13775 0.0
Mn72 Mn 0.86014 0.64084 0.21695 0.0
Mn73 Mn 0.77596 0.61199 0.16873 0.0
C74 C 0.82382 0.59313 0.25439 0.0
C75 C 0.9272 0.63845 0.23047 0.0
C76 C 0.78627 0.68787 0.21848 0.0
O77 O 0.86549 0.65617 0.14673 0.0
O78 O 0.81069 0.63031 0.12041 0.0
C79 C 0.80537 0.54564 0.11487 0.0
N80 N 0.77936 0.56111 0.14498 0.0
C81 C 0.74133 0.50395 0.14393 0.0
C82 C 0.76748 0.48737 0.11256 0.0
C83 C 0.79987 0.50818 0.09837 0.0
C84 C 0.7489 0.54094 0.16007 0.0
H85 H 0.82994 0.56185 0.10343 0.0
C86 C 0.84284 0.64607 0.11334 0.0
O87 O 0.90731 0.66929 0.23597 0.0
O88 O 0.90864 0.60901 0.21437 0.0
N89 N 0.73756 0.59255 0.20985 0.0
C90 C 0.71682 0.61163 0.24293 0.0
C91 C 0.68302 0.59526 0.26028 0.0
C92 C 0.67068 0.55969 0.24308 0.0
C93 C 0.69278 0.54027 0.20957 0.0
C94 C 0.72587 0.55824 0.19311 0.0
H95 H 0.72541 0.63958 0.25507 0.0
O96 O 0.84704 0.61509 0.27772 0.0
O97 O 0.82042 0.60177 0.21022 0.0
O98 O 0.82071 0.68253 0.23096 0.0
O99 O 0.76788 0.66462 0.19247 0.0
C100 C 0.68333 0.50385 0.19174 0.0
C101 C 0.70801 0.48535 0.15973 0.0
H102 H 0.76306 0.45868 0.0993 0.0
H103 H 0.82028 0.49556 0.07434 0.0
H104 H 0.66615 0.61032 0.28627 0.0
H105 H 0.64432 0.54746 0.2562 0.0
H106 H 0.6575 0.48949 0.20302 0.0
H107 H 0.70099 0.45692 0.14735 0.0
Mn108 Mn 0.37904 0.86106 0.21304 0.0
Mn109 Mn 0.4087 0.7775 0.164 0.0
C110 C 0.42726 0.82505 0.24986 0.0
C111 C 0.38079 0.928 0.22704 0.0
C112 C 0.33314 0.78647 0.21483 0.0
O113 O 0.36298 0.86645 0.14307 0.0
O114 O 0.38923 0.81203 0.11608 0.0
C115 C 0.47393 0.80848 0.1094 0.0
N116 N 0.45933 0.78213 0.13973 0.0
C117 C 0.51774 0.74605 0.13893 0.0
C118 C 0.53341 0.77258 0.10733 0.0
C119 C 0.51152 0.80416 0.09289 0.0
C120 C 0.48053 0.75246 0.15507 0.0
H121 H 0.45695 0.83248 0.09783 0.0
C122 C 0.37287 0.84396 0.1094 0.0
O123 O 0.35018 0.90777 0.23271 0.0
O124 O 0.41029 0.90989 0.2104 0.0
N125 N 0.42924 0.7394 0.20471 0.0
C126 C 0.41065 0.71782 0.23743 0.0
C127 C 0.42798 0.68444 0.25457 0.0
C128 C 0.46401 0.67338 0.23758 0.0
C129 C 0.48293 0.69636 0.20452 0.0
C130 C 0.46398 0.72893 0.18816 0.0
H131 H 0.38239 0.7254 0.24943 0.0
O132 O 0.40531 0.84808 0.2735 0.0
O133 O 0.41853 0.82188 0.2057 0.0
O134 O 0.33803 0.82101 0.22726 0.0
O135 O 0.35645 0.7684 0.18852 0.0
C136 C 0.5197 0.68817 0.18692 0.0
C137 C 0.53742 0.71342 0.15492 0.0
H138 H 0.56221 0.76904 0.09406 0.0
H139 H 0.52344 0.82486 0.06868 0.0
H140 H 0.4133 0.66688 0.28021 0.0
H141 H 0.4769 0.64726 0.25038 0.0
H142 H 0.53485 0.6628 0.1982 0.0
H143 H 0.56606 0.70733 0.14257 0.0
Mn144 Mn 0.15341 0.63825 0.30737 0.0
Mn145 Mn 0.23628 0.60766 0.35734 0.0
C146 C 0.18949 0.58947 0.27159 0.0
C147 C 0.08633 0.63723 0.29389 0.0
C148 C 0.22856 0.68318 0.30597 0.0
O149 O 0.14858 0.65552 0.37711 0.0
O150 O 0.20163 0.62704 0.40489 0.0
C151 C 0.20359 0.54212 0.40981 0.0
N152 N 0.23064 0.55677 0.38046 0.0
C153 C 0.26552 0.49765 0.38027 0.0
C154 C 0.2384 0.48197 0.41108 0.0
C155 C 0.20701 0.50418 0.42544 0.0
C156 C 0.25987 0.53516 0.36476 0.0
H157 H 0.17967 0.5593 0.42115 0.0
C158 C 0.17032 0.6446 0.41105 0.0
O159 O 0.107 0.66743 0.28729 0.0
O160 O 0.10412 0.60773 0.31106 0.0
N161 N 0.27453 0.58711 0.31677 0.0
C162 C 0.2974 0.60616 0.2858 0.0
C163 C 0.33091 0.58865 0.26933 0.0
C164 C 0.34091 0.55206 0.28546 0.0
C165 C 0.31673 0.53272 0.31675 0.0
C166 C 0.28396 0.55176 0.33234 0.0
H167 H 0.29078 0.63491 0.27474 0.0
O168 O 0.16584 0.61032 0.24746 0.0
O169 O 0.19225 0.59886 0.31542 0.0
O170 O 0.19428 0.67829 0.29239 0.0
O171 O 0.24584 0.66018 0.33358 0.0
C172 C 0.32421 0.49566 0.33389 0.0
C173 C 0.29814 0.47775 0.36471 0.0
H174 H 0.24132 0.45293 0.4238 0.0
H175 H 0.18579 0.49223 0.44891 0.0
H176 H 0.34947 0.60369 0.24512 0.0
H177 H 0.36735 0.5392 0.27371 0.0
H178 H 0.34986 0.48058 0.32357 0.0
H179 H 0.30376 0.44892 0.37675 0.0
Mn180 Mn 0.37951 0.15339 0.30703 0.0
Mn181 Mn 0.40731 0.23689 0.35838 0.0
C182 C 0.42967 0.18966 0.27488 0.0
C183 C 0.38092 0.08647 0.29269 0.0
C184 C 0.3352 0.22924 0.30074 0.0
O185 O 0.3598 0.14787 0.37552 0.0
O186 O 0.3822 0.2038 0.40369 0.0
C187 C 0.46602 0.20339 0.42118 0.0
N188 N 0.45566 0.22965 0.38818 0.0
C189 C 0.51698 0.26038 0.39238 0.0
C190 C 0.52835 0.23378 0.42654 0.0
C191 C 0.50285 0.20494 0.44069 0.0
C192 C 0.48038 0.25659 0.37314 0.0
H193 H 0.44628 0.18154 0.43259 0.0
C194 C 0.36545 0.1719 0.409 0.0
O195 O 0.35108 0.10726 0.28469 0.0
O196 O 0.40982 0.10402 0.31172 0.0
N197 N 0.43271 0.27364 0.31997 0.0
C198 C 0.41682 0.29769 0.28768 0.0
C199 C 0.43735 0.32984 0.27247 0.0
C200 C 0.47371 0.33729 0.29115 0.0
C201 C 0.48976 0.312 0.32383 0.0
C202 C 0.4677 0.28079 0.33828 0.0
H203 H 0.38826 0.29305 0.27455 0.0
O204 O 0.40976 0.16632 0.24911 0.0
O205 O 0.41854 0.1922 0.31816 0.0
O206 O 0.33968 0.1942 0.29008 0.0
O207 O 0.35779 0.24762 0.32763 0.0
C208 C 0.52627 0.31715 0.34375 0.0
C209 C 0.54021 0.29088 0.37725 0.0
H210 H 0.55649 0.23532 0.44226 0.0
H211 H 0.51139 0.18428 0.46699 0.0
H212 H 0.4248 0.34936 0.2473 0.0
H213 H 0.48874 0.36291 0.28072 0.0
H214 H 0.54382 0.34129 0.33375 0.0
H215 H 0.56849 0.29489 0.3919 0.0
Mn216 Mn 0.86945 0.38036 0.3081 0.0
Mn217 Mn 0.78819 0.40864 0.36419 0.0
C218 C 0.83259 0.43094 0.27819 0.0
C219 C 0.93595 0.38156 0.29127 0.0
C220 C 0.79377 0.33602 0.30655 0.0
O221 O 0.87646 0.35965 0.37595 0.0
O222 O 0.82343 0.38535 0.4084 0.0
C223 C 0.82292 0.46966 0.42251 0.0
N224 N 0.79552 0.45786 0.39178 0.0
C225 C 0.76337 0.51844 0.39614 0.0
C226 C 0.79109 0.53127 0.42807 0.0
C227 C 0.82121 0.50687 0.44097 0.0
C228 C 0.76728 0.48151 0.37787 0.0
H229 H 0.84579 0.45078 0.43289 0.0
C230 C 0.85486 0.36746 0.41124 0.0
O231 O 0.9148 0.3519 0.28347 0.0
O232 O 0.91905 0.41033 0.31147 0.0
N233 N 0.74965 0.43244 0.32691 0.0
C234 C 0.72523 0.41558 0.29583 0.0
C235 C 0.6922 0.43513 0.2816 0.0
C236 C 0.68431 0.47154 0.29996 0.0
C237 C 0.71004 0.48862 0.33131 0.0
C238 C 0.74214 0.46751 0.34484 0.0
H239 H 0.73027 0.387 0.28296 0.0
O240 O 0.85524 0.4113 0.25119 0.0
O241 O 0.83126 0.41941 0.32136 0.0
O242 O 0.82785 0.34121 0.29235 0.0
O243 O 0.77711 0.35797 0.33598 0.0
C244 C 0.70466 0.52536 0.35056 0.0
C245 C 0.73174 0.5406 0.38217 0.0
H246 H 0.78949 0.55973 0.44294 0.0
H247 H 0.84279 0.51656 0.46549 0.0
H248 H 0.6724 0.4218 0.25738 0.0
H249 H 0.65818 0.48592 0.29009 0.0
H250 H 0.67981 0.54216 0.34136 0.0
H251 H 0.72761 0.5691 0.39616 0.0
Mn252 Mn 0.6391 0.86937 0.3089 0.0
Mn253 Mn 0.61043 0.78791 0.36401 0.0
C254 C 0.58918 0.83245 0.27741 0.0
C255 C 0.63767 0.93603 0.29306 0.0
C256 C 0.68409 0.79423 0.30838 0.0
O257 O 0.65895 0.87605 0.37714 0.0
O258 O 0.63185 0.82358 0.40932 0.0
C259 C 0.54726 0.82137 0.41994 0.0
N260 N 0.56043 0.79418 0.38974 0.0
C261 C 0.50067 0.76042 0.39229 0.0
C262 C 0.48645 0.78788 0.42369 0.0
C263 C 0.50974 0.81871 0.43721 0.0
C264 C 0.53786 0.76526 0.37522 0.0
H265 H 0.5653 0.84478 0.43077 0.0
C266 C 0.64989 0.85495 0.41244 0.0
O267 O 0.66755 0.91515 0.28544 0.0
O268 O 0.60877 0.91871 0.31241 0.0
N269 N 0.58832 0.74901 0.32568 0.0
C270 C 0.60622 0.72534 0.29458 0.0
C271 C 0.58771 0.69198 0.27939 0.0
C272 C 0.55125 0.68299 0.29678 0.0
C273 C 0.53308 0.70799 0.32815 0.0
C274 C 0.55316 0.7405 0.34261 0.0
H275 H 0.63483 0.73124 0.28242 0.0
O276 O 0.60919 0.85537 0.25116 0.0
O277 O 0.60002 0.8309 0.32087 0.0
O278 O 0.67862 0.82808 0.29351 0.0
O279 O 0.66203 0.77767 0.33779 0.0
C280 C 0.49616 0.70159 0.34638 0.0
C281 C 0.47964 0.72821 0.37763 0.0
H282 H 0.45773 0.78557 0.43764 0.0
H283 H 0.49896 0.8401 0.46131 0.0
H284 H 0.60187 0.67277 0.25513 0.0
H285 H 0.53764 0.65666 0.28602 0.0
H286 H 0.48017 0.67634 0.33658 0.0
H287 H 0.45098 0.72334 0.39073 0.0
Mn288 Mn 0.87914 0.65475 0.81174 0.0
Mn289 Mn 0.90843 0.7379 0.86233 0.0
C290 C 0.92722 0.69177 0.77582 0.0
C291 C 0.88099 0.58793 0.79657 0.0
C292 C 0.83286 0.72912 0.81149 0.0
O293 O 0.86273 0.6487 0.88167 0.0
O294 O 0.88973 0.7025 0.90953 0.0
C295 C 0.97458 0.70636 0.91464 0.0
N296 N 0.95933 0.73331 0.88565 0.0
C297 C 0.01717 0.77025 0.88713 0.0
C298 C 0.03346 0.74323 0.91756 0.0
C299 C 0.01221 0.71087 0.9309 0.0
C300 C 0.98003 0.76355 0.87099 0.0
H301 H 0.95808 0.68174 0.92528 0.0
C302 C 0.87316 0.67063 0.91567 0.0
O303 O 0.85042 0.60822 0.79117 0.0
O304 O 0.91043 0.60586 0.81368 0.0
N305 N 0.92822 0.7769 0.82233 0.0
C306 C 0.90896 0.79915 0.79092 0.0
C307 C 0.92556 0.83333 0.77508 0.0
C308 C 0.96148 0.84457 0.79218 0.0
C309 C 0.98111 0.82095 0.82384 0.0
C310 C 0.96296 0.78748 0.8388 0.0
H311 H 0.88069 0.7915 0.77906 0.0
O312 O 0.90602 0.66843 0.75165 0.0
O313 O 0.91817 0.69418 0.81987 0.0
O314 O 0.83814 0.69488 0.79805 0.0
O315 O 0.85585 0.74677 0.8387 0.0
C316 C 0.01769 0.82951 0.84175 0.0
C317 C 0.0361 0.80373 0.87246 0.0
H318 H 0.06225 0.74695 0.93075 0.0
H319 H 0.02464 0.68974 0.9541 0.0
H320 H 0.91032 0.85141 0.75053 0.0
H321 H 0.97369 0.87141 0.78067 0.0
H322 H 0.03211 0.85568 0.83185 0.0
H323 H 0.06461 0.81014 0.88498 0.0
Mn324 Mn 0.36279 0.88027 0.80808 0.0
Mn325 Mn 0.28046 0.91231 0.85787 0.0
C326 C 0.32721 0.92891 0.77129 0.0
C327 C 0.42969 0.88094 0.79364 0.0
C328 C 0.28712 0.83605 0.80774 0.0
O329 O 0.36805 0.86409 0.87811 0.0
O330 O 0.3149 0.89253 0.90565 0.0
C331 C 0.31371 0.9775 0.91045 0.0
N332 N 0.28669 0.96319 0.88083 0.0
C333 C 0.25271 0.02285 0.88002 0.0
C334 C 0.27989 0.03823 0.91094 0.0
C335 C 0.31077 0.01556 0.92581 0.0
C336 C 0.2578 0.98514 0.86492 0.0
H337 H 0.3372 0.95996 0.92228 0.0
C338 C 0.34623 0.87499 0.91199 0.0
O339 O 0.40898 0.85061 0.78815 0.0
O340 O 0.41209 0.91071 0.8104 0.0
N341 N 0.24257 0.93324 0.81718 0.0
C342 C 0.21986 0.91456 0.78572 0.0
C343 C 0.18693 0.93265 0.7685 0.0
C344 C 0.17737 0.96946 0.78429 0.0
C345 C 0.20141 0.98839 0.81612 0.0
C346 C 0.23356 0.96876 0.83251 0.0
H347 H 0.22621 0.88572 0.77476 0.0
O348 O 0.35012 0.90695 0.74755 0.0
O349 O 0.32446 0.92038 0.81548 0.0
O350 O 0.32166 0.84003 0.79464 0.0
O351 O 0.27009 0.85996 0.8344 0.0
C352 C 0.19453 0.02573 0.83275 0.0
C353 C 0.22062 0.04328 0.86383 0.0
H354 H 0.2774 0.06739 0.92338 0.0
H355 H 0.33199 0.02725 0.94946 0.0
H356 H 0.16851 0.91793 0.74386 0.0
H357 H 0.15143 0.98281 0.77175 0.0
H358 H 0.16943 0.04135 0.82163 0.0
H359 H 0.2155 0.07232 0.87546 0.0
Mn360 Mn 0.13958 0.36381 0.80092 0.0
Mn361 Mn 0.11111 0.28009 0.85076 0.0
C362 C 0.09119 0.32714 0.7652 0.0
C363 C 0.13737 0.4309 0.78747 0.0
C364 C 0.18633 0.28983 0.79937 0.0
O365 O 0.15656 0.36908 0.87065 0.0
O366 O 0.12955 0.31523 0.8984 0.0
C367 C 0.04487 0.30999 0.90438 0.0
N368 N 0.06028 0.28372 0.87457 0.0
C369 C 1.00317 0.24567 0.87635 0.0
C370 C 0.98668 0.27205 0.90749 0.0
C371 C 1.00748 0.30461 0.92112 0.0
C372 C 0.04003 0.25323 0.85978 0.0
H373 H 0.06108 0.3347 0.91536 0.0
C374 C 0.14616 0.34708 0.9046 0.0
O375 O 0.16791 0.41077 0.78088 0.0
O376 O 0.10815 0.41255 0.80453 0.0
N377 N 0.09162 0.24136 0.81015 0.0
C378 C 0.11082 0.22008 0.77768 0.0
C379 C 0.09452 0.186 0.76106 0.0
C380 C 0.05899 0.17384 0.77853 0.0
C381 C 0.03945 0.19647 0.8114 0.0
C382 C 0.05724 0.22996 0.82693 0.0
H383 H 0.13881 0.22843 0.7655 0.0
O384 O 0.11211 0.35078 0.74106 0.0
O385 O 0.10076 0.32417 0.80903 0.0
O386 O 0.18059 0.32395 0.78576 0.0
O387 O 0.16372 0.27199 0.82686 0.0
C388 C 1.00324 0.187 0.8298 0.0
C389 C 0.98471 0.21203 0.86135 0.0
H390 H 0.95809 0.26765 0.92104 0.0
H391 H 0.99491 0.32521 0.94494 0.0
H392 H 0.10969 0.16869 0.73561 0.0
H393 H 0.04702 0.1471 0.76633 0.0
H394 H 0.98916 0.16075 0.81953 0.0
H395 H 0.95644 0.20494 0.8742 0.0
Mn396 Mn 0.65702 0.13795 0.80896 0.0
Mn397 Mn 0.73984 0.10822 0.85948 0.0
C398 C 0.69324 0.08923 0.77319 0.0
C399 C 0.59021 0.13673 0.7945 0.0
C400 C 0.7315 0.18381 0.8084 0.0
O401 O 0.65142 0.15488 0.87865 0.0
O402 O 0.70466 0.12711 0.90697 0.0
C403 C 0.7087 0.04222 0.91253 0.0
N404 N 0.73533 0.05734 0.88298 0.0
C405 C 0.77227 0.99949 0.88431 0.0
C406 C 0.74551 0.98329 0.91518 0.0
C407 C 0.71333 1.00462 0.92891 0.0
C408 C 0.76548 0.03662 0.86812 0.0
H409 H 0.68427 0.05882 0.92357 0.0
C410 C 0.67305 0.14428 0.91283 0.0
O411 O 0.61077 0.16707 0.78856 0.0
O412 O 0.60791 0.10714 0.81162 0.0
N413 N 0.7785 0.08832 0.8191 0.0
C414 C 0.80028 0.10737 0.78699 0.0
C415 C 0.83416 0.09062 0.7705 0.0
C416 C 0.84557 0.05475 0.78765 0.0
C417 C 0.8224 0.03533 0.82005 0.0
C418 C 0.78919 0.05362 0.83559 0.0
H419 H 0.79248 0.13558 0.77502 0.0
O420 O 0.67015 0.1107 0.74901 0.0
O421 O 0.69597 0.09846 0.8172 0.0
O422 O 0.69736 0.17856 0.79468 0.0
O423 O 0.74887 0.16081 0.83585 0.0
C424 C 0.83106 0.99876 0.83798 0.0
C425 C 0.80557 0.98047 0.86921 0.0
H426 H 0.74931 0.95451 0.92843 0.0
H427 H 0.69243 0.99227 0.95253 0.0
H428 H 0.85188 0.10568 0.74537 0.0
H429 H 0.87219 0.04245 0.77559 0.0
H430 H 0.85702 0.98422 0.82759 0.0
H431 H 0.81203 0.95196 0.88173 0.0
Mn432 Mn 0.87879 0.36376 0.71087 0.0
Mn433 Mn 0.90604 0.2806 0.65815 0.0
C434 C 0.92862 0.32689 0.74282 0.0
C435 C 0.88064 0.43048 0.72696 0.0
C436 C 0.8337 0.28827 0.71541 0.0
O437 O 0.85981 0.37055 0.64229 0.0
O438 O 0.88147 0.31455 0.61348 0.0
C439 C 0.96533 0.31428 0.59621 0.0
N440 N 0.95445 0.28751 0.62832 0.0
C441 C 0.01482 0.25519 0.62224 0.0
C442 C 0.02672 0.28228 0.58894 0.0
C443 C 1.00197 0.31217 0.57619 0.0
C444 C 0.97845 0.25949 0.64198 0.0
H445 H 0.94616 0.33695 0.58588 0.0
C446 C 0.86531 0.34675 0.60854 0.0
O447 O 0.85056 0.40979 0.734 0.0
O448 O 0.90954 0.413 0.70783 0.0
N449 N 0.93091 0.24292 0.6956 0.0
C450 C 0.91493 0.21914 0.72814 0.0
C451 C 0.93474 0.18624 0.74228 0.0
C452 C 0.97056 0.17791 0.72253 0.0
C453 C 0.98682 0.20307 0.68981 0.0
C454 C 0.96537 0.23495 0.67627 0.0
H455 H 0.88679 0.22456 0.74217 0.0
O456 O 0.90819 0.34962 0.76883 0.0
O457 O 0.91776 0.32476 0.69936 0.0
O458 O 0.83835 0.32319 0.72649 0.0
O459 O 0.85639 0.26994 0.6886 0.0
C460 C 0.02303 0.19734 0.66925 0.0
C461 C 0.03736 0.22382 0.63621 0.0
H462 H 0.05473 0.28038 0.57288 0.0
H463 H 0.01094 0.33324 0.55057 0.0
H464 H 0.92207 0.16691 0.7676 0.0
H465 H 0.98518 0.15192 0.73256 0.0
H466 H 0.04014 0.17272 0.6786 0.0
H467 H 0.06547 0.21943 0.62118 0.0
Mn468 Mn 0.65472 0.87757 0.71225 0.0
Mn469 Mn 0.73861 0.90483 0.66151 0.0
C470 C 0.69145 0.92686 0.74579 0.0
C471 C 0.58785 0.87966 0.72688 0.0
C472 C 0.72978 0.83192 0.7175 0.0
O473 O 0.64875 0.85924 0.64326 0.0
O474 O 0.70505 0.88106 0.6157 0.0
C475 C 0.70629 0.96516 0.60006 0.0
N476 N 0.73249 0.95368 0.63253 0.0
C477 C 0.76528 0.01396 0.62841 0.0
C478 C 0.73877 0.02647 0.59478 0.0
C479 C 0.70893 1.00206 0.58085 0.0
C480 C 0.76045 0.97734 0.6473 0.0
H481 H 0.68368 0.94624 0.58881 0.0
C482 C 0.67286 0.86504 0.60993 0.0
O483 O 0.60822 0.84937 0.73396 0.0
O484 O 0.60579 0.90865 0.7086 0.0
N485 N 0.77599 0.92892 0.70018 0.0
C486 C 0.79923 0.9123 0.73277 0.0
C487 C 0.83206 0.9317 0.74797 0.0
C488 C 0.84087 0.96777 0.72922 0.0
C489 C 0.81625 0.98467 0.6964 0.0
C490 C 0.78441 0.96363 0.68179 0.0
H491 H 0.79347 0.88398 0.74605 0.0
O492 O 0.66819 0.90633 0.77095 0.0
O493 O 0.69408 0.91647 0.70216 0.0
O494 O 0.69482 0.83677 0.72816 0.0
O495 O 0.74849 0.85467 0.69116 0.0
C496 C 0.8225 0.02114 0.67675 0.0
C497 C 0.79658 0.03611 0.64349 0.0
H498 H 0.74109 0.05469 0.57934 0.0
H499 H 0.68832 0.0115 0.55496 0.0
H500 H 0.85099 0.91852 0.77333 0.0
H501 H 0.86684 0.98202 0.74001 0.0
H502 H 0.8471 0.03796 0.68694 0.0
H503 H 0.80137 0.06439 0.62914 0.0
Mn504 Mn 0.13793 0.65748 0.71165 0.0
Mn505 Mn 0.10821 0.74136 0.66305 0.0
C506 C 0.08915 0.69337 0.74782 0.0
C507 C 0.13652 0.59034 0.72496 0.0
C508 C 0.18307 0.73271 0.71543 0.0
O509 O 0.15476 0.65255 0.64194 0.0
O510 O 0.12949 0.70761 0.61565 0.0
C511 C 0.04507 0.70895 0.60606 0.0
N512 N 0.05824 0.73551 0.63711 0.0
C513 C 0.9987 0.76961 0.63516 0.0
C514 C 0.9845 0.74287 0.60281 0.0
C515 C 1.00768 0.71216 0.58859 0.0
C516 C 0.03574 0.7642 0.65239 0.0
H517 H 0.06301 0.6856 0.59466 0.0
C518 C 0.14571 0.67569 0.60861 0.0
O519 O 0.16686 0.61081 0.73139 0.0
O520 O 0.10707 0.60838 0.70808 0.0
N521 N 0.08587 0.77889 0.70314 0.0
C522 C 0.10362 0.80165 0.73534 0.0
C523 C 0.08525 0.83482 0.7514 0.0
C524 C 0.04905 0.84452 0.73379 0.0
C525 C 0.03097 0.82039 0.70135 0.0
C526 C 0.05095 0.78809 0.68602 0.0
H527 H 0.13207 0.79526 0.74762 0.0
O528 O 0.11052 0.67 0.77171 0.0
O529 O 0.09846 0.69661 0.70392 0.0
O530 O 0.17864 0.6978 0.72663 0.0
O531 O 0.15958 0.75116 0.68978 0.0
C532 C 0.99427 0.82747 0.68288 0.0
C533 C 0.97779 0.80163 0.65063 0.0
H534 H 0.9559 0.74563 0.58869 0.0
H535 H 0.99691 0.6913 0.56379 0.0
H536 H 0.09931 0.85333 0.77653 0.0
H537 H 0.03549 0.87067 0.74538 0.0
H538 H 0.97837 0.85261 0.69334 0.0
H539 H 0.94926 0.80697 0.63741 0.0
Mn540 Mn 0.36606 0.14032 0.7102 0.0
Mn541 Mn 0.28442 0.11224 0.65524 0.0
C542 C 0.32879 0.09089 0.74233 0.0
C543 C 0.43256 0.13827 0.72659 0.0
C544 C 0.29162 0.18631 0.70991 0.0
O545 O 0.37329 0.15936 0.64172 0.0
O546 O 0.32051 0.13278 0.60976 0.0
C547 C 0.31684 0.04807 0.60007 0.0
N548 N 0.28978 0.062 0.6299 0.0
C549 C 0.25454 1.00307 0.62722 0.0
C550 C 0.28187 0.98808 0.59619 0.0
C551 C 0.31337 0.01058 0.58291 0.0
C552 C 0.26013 0.04022 0.64409 0.0
H553 H 0.34077 0.06552 0.58943 0.0
C554 C 0.35216 0.1503 0.60649 0.0
O555 O 0.41203 0.1685 0.73351 0.0
O556 O 0.41503 0.10937 0.70755 0.0
N557 N 0.24506 0.09104 0.69361 0.0
C558 C 0.22198 0.1094 0.72496 0.0
C559 C 0.18813 0.09175 0.74004 0.0
C560 C 0.17819 0.05556 0.72251 0.0
C561 C 0.20267 0.03684 0.69101 0.0
C562 C 0.23559 0.05619 0.67646 0.0
H563 H 0.2287 0.13777 0.73735 0.0
O564 O 0.35147 0.11137 0.76833 0.0
O565 O 0.32724 0.10136 0.69866 0.0
O566 O 0.32536 0.18054 0.72485 0.0
O567 O 0.27484 0.16418 0.68083 0.0
C568 C 0.19553 0.99998 0.67299 0.0
C569 C 0.22184 0.98279 0.64186 0.0
H570 H 0.27898 0.95936 0.5824 0.0
H571 H 0.33466 0.99919 0.55911 0.0
H572 H 0.16936 0.10631 0.76444 0.0
H573 H 0.15162 0.04251 0.7335 0.0
H574 H 0.17006 0.98445 0.68308 0.0
H575 H 0.21642 0.95416 0.62898 0.0
C576 C 0.31094 0.25914 0.22724 0.0
C577 C 0.30588 0.25138 0.27535 0.0
H578 H 0.29241 0.29173 0.16741 0.0
C579 C 0.2753 0.26837 0.29936 0.0
H580 H 0.33477 0.24675 0.20826 0.0
C581 C 0.25039 0.29317 0.2757 0.0
C582 C 0.25647 0.30244 0.22803 0.0
H583 H 0.27122 0.26315 0.33661 0.0
H584 H 0.22768 0.3068 0.29543 0.0
C585 C 0.28681 0.28487 0.20394 0.0
C586 C 0.74672 0.282 0.30956 0.0
C587 C 0.77056 0.30616 0.28328 0.0
H588 H 0.70279 0.23922 0.30791 0.0
C589 C 0.76908 0.30451 0.23384 0.0
H590 H 0.74703 0.28306 0.34766 0.0
C591 C 0.74289 0.28046 0.21111 0.0
C592 C 0.71881 0.25654 0.23742 0.0
H593 H 0.78675 0.32335 0.21279 0.0
H594 H 0.74094 0.28106 0.17308 0.0
C595 C 0.72159 0.25688 0.28681 0.0
C596 C 0.74113 0.74343 0.21413 0.0
C597 C 0.76454 0.71923 0.2409 0.0
H598 H 0.69835 0.78738 0.21493 0.0
C599 C 0.76345 0.72193 0.29027 0.0
H600 H 0.74109 0.7415 0.17608 0.0
C601 C 0.73805 0.7471 0.31253 0.0
C602 C 0.71436 0.77106 0.28577 0.0
H603 H 0.78071 0.70301 0.3117 0.0
H604 H 0.73639 0.74734 0.3506 0.0
C605 C 0.71682 0.76966 0.23637 0.0
C606 C 0.27694 0.74204 0.21148 0.0
C607 C 0.30244 0.76431 0.23789 0.0
H608 H 0.23232 0.69997 0.21289 0.0
C609 C 0.30146 0.76189 0.28729 0.0
H610 H 0.27754 0.74305 0.17339 0.0
C611 C 0.27663 0.73632 0.30983 0.0
C612 C 0.25132 0.7138 0.28343 0.0
H613 H 0.32139 0.77828 0.30836 0.0
H614 H 0.27771 0.7336 0.34778 0.0
C615 C 0.25107 0.71756 0.23411 0.0
C616 C 0.77076 0.77326 0.71701 0.0
C617 C 0.75143 0.80179 0.74217 0.0
H618 H 0.81062 0.72677 0.71993 0.0
C619 C 0.75655 0.80426 0.79113 0.0
H620 H 0.76763 0.77121 0.67917 0.0
C621 C 0.782 0.77973 0.81428 0.0
C622 C 0.80181 0.75144 0.78909 0.0
H623 H 0.74239 0.82654 0.81108 0.0
H624 H 0.78689 0.78342 0.85164 0.0
C625 C 0.79518 0.74784 0.74041 0.0
C626 C 0.24509 0.7688 0.71652 0.0
C627 C 0.21281 0.75484 0.74015 0.0
H628 H 0.29485 0.80453 0.72017 0.0
C629 C 0.2069 0.76507 0.78738 0.0
H630 H 0.24996 0.76152 0.67996 0.0
C631 C 0.23192 0.79026 0.81011 0.0
C632 C 0.26394 0.80498 0.78639 0.0
H633 H 0.1819 0.7549 0.80609 0.0
H634 H 0.22568 0.79896 0.84588 0.0
C635 C 0.27077 0.79321 0.73968 0.0
C636 C 0.24165 0.24442 0.80379 0.0
C637 C 0.21742 0.26772 0.77693 0.0
H638 H 0.28536 0.20141 0.8032 0.0
C639 C 0.21987 0.26623 0.72754 0.0
H640 H 0.23993 0.2447 0.84185 0.0
C641 C 0.2448 0.24053 0.70541 0.0
C642 C 0.26877 0.21693 0.73228 0.0
H643 H 0.20094 0.28341 0.70605 0.0
H644 H 0.24483 0.23854 0.66736 0.0
C645 C 0.26764 0.2198 0.78165 0.0
C646 C 0.78313 0.23363 0.81147 0.0
C647 C 0.75391 0.21507 0.78646 0.0
H648 H 0.83051 0.27257 0.80837 0.0
C649 C 0.74923 0.22334 0.73829 0.0
H650 H 0.78764 0.22754 0.84843 0.0
C651 C 0.77446 0.24815 0.71513 0.0
C652 C 0.80392 0.26617 0.74009 0.0
H653 H 0.72739 0.20896 0.7179 0.0
H654 H 0.77151 0.25259 0.67758 0.0
C655 C 0.80753 0.2594 0.78862 0.0
C656 C 0.13006 0.3381 0.9897 0.0
C657 C 0.15164 0.3574 0.95473 0.0
H658 H 0.12039 0.32817 0.06331 0.0
C659 C 0.17885 0.38415 0.96883 0.0
H660 H 0.10826 0.31753 0.98021 0.0
C661 C 0.18572 0.38997 0.0167 0.0
C662 C 0.16534 0.36938 0.05167 0.0
H663 H 0.19567 0.39958 0.94306 0.0
H664 H 0.2077 0.41035 0.02618 0.0
C665 C 0.13674 0.34412 0.03757 0.0
C666 C 0.63754 0.17954 0.97631 0.0
C667 C 0.66274 0.15069 0.96279 0.0
H668 H 0.61295 0.21063 0.03301 0.0
C669 C 0.6809 0.12866 0.9982 0.0
H670 H 0.62309 0.19682 0.95017 0.0
C671 C 0.6753 0.13641 0.04592 0.0
C672 C 0.6516 0.16654 0.05944 0.0
H673 H 0.70026 0.10568 0.98912 0.0
H674 H 0.69029 0.11954 0.072 0.0
C675 C 0.63214 0.18748 0.02403 0.0
C676 C 0.89021 0.67881 1.0005 0.0
C677 C 0.86761 0.66041 0.96582 0.0
H678 H 0.90044 0.68893 0.07392 0.0
C679 C 0.83894 0.63536 0.98031 0.0
H680 H 0.91306 0.6981 0.99069 0.0
C681 C 0.8317 0.63045 0.02831 0.0
C682 C 0.85318 0.65026 0.06297 0.0
H683 H 0.82122 0.62075 0.95476 0.0
H684 H 0.80863 0.61141 0.03809 0.0
C685 C 0.88317 0.67371 0.04844 0.0
C686 C 0.38746 0.83328 0.024 0.0
C687 C 0.36768 0.85425 0.05912 0.0
H688 H 0.39675 0.82338 0.95027 0.0
C689 C 0.34331 0.88369 0.04513 0.0
H690 H 0.40713 0.81062 0.03332 0.0
C691 C 0.33752 0.8908 0.99728 0.0
C692 C 0.35617 0.86884 0.96216 0.0
H693 H 0.32801 0.90055 0.07097 0.0
H694 H 0.31775 0.91335 0.9879 0.0
C695 C 0.38189 0.84059 0.97614 0.0
C696 C 0.17302 0.63492 0.54387 0.0
C697 C 0.15076 0.66586 0.55821 0.0
H698 H 0.19622 0.60389 0.48626 0.0
C699 C 0.13218 0.68824 0.52336 0.0
H700 H 0.18724 0.61694 0.56947 0.0
C701 C 0.13686 0.68068 0.47545 0.0
C702 C 0.16051 0.65081 0.46116 0.0
H703 H 0.11409 0.71211 0.53291 0.0
H704 H 0.1231 0.69895 0.44978 0.0
C705 C 0.17796 0.62758 0.49596 0.0
C706 C 0.34489 0.19021 0.53612 0.0
C707 C 0.36269 0.15903 0.55781 0.0
H708 H 0.32979 0.2174 0.47135 0.0
C709 C 0.37753 0.12953 0.52949 0.0
H710 H 0.3314 0.21226 0.55714 0.0
C711 C 0.37522 0.13157 0.48026 0.0
C712 C 0.35757 0.16298 0.45865 0.0
H713 H 0.38979 0.10427 0.54556 0.0
H714 H 0.38839 0.10939 0.45917 0.0
C715 C 0.34256 0.19228 0.48717 0.0
C716 C 0.88299 0.38566 0.48763 0.0
C717 C 0.86487 0.35776 0.45978 0.0
H718 H 0.8955 0.40548 0.55765 0.0
C719 C 0.84322 0.32932 0.48203 0.0
H720 H 0.89826 0.40905 0.47116 0.0
C721 C 0.84009 0.32841 0.53096 0.0
C722 C 0.85813 0.35622 0.55897 0.0
H723 H 0.82731 0.30873 0.46134 0.0
H724 H 0.82436 0.30521 0.54722 0.0
C725 C 0.87984 0.38478 0.53686 0.0
C726 C 0.69279 0.84367 0.53089 0.0
C727 C 0.66375 0.85836 0.56005 0.0
H728 H 0.71224 0.83342 0.46048 0.0
C729 C 0.6324 0.87666 0.53916 0.0
H730 H 0.71788 0.83041 0.54616 0.0
C731 C 0.63011 0.8798 0.49002 0.0
C732 C 0.65927 0.8651 0.46104 0.0
H733 H 0.61044 0.88963 0.56078 0.0
H734 H 0.60485 0.89249 0.4745 0.0
C735 C 0.69046 0.8468 0.48202 0.0
C736 C 0.15886 0.52663 0.26331 0.0
C737 C 0.19216 0.54875 0.25996 0.0
H738 H 0.13442 0.47074 0.2602 0.0
C739 C 0.22723 0.53058 0.25298 0.0
H740 H 0.13133 0.54001 0.26906 0.0
C741 C 0.22944 0.49072 0.25385 0.0
C742 C 0.1962 0.46864 0.25458 0.0
H743 H 0.2529 0.54695 0.24754 0.0
H744 H 0.25699 0.47737 0.25488 0.0
C745 C 0.16077 0.48699 0.25961 0.0
C746 C 0.53305 0.16234 0.26899 0.0
C747 C 0.55094 0.19769 0.26091 0.0
H748 H 0.48035 0.13261 0.28002 0.0
C749 C 0.52828 0.23038 0.25693 0.0
H750 H 0.54966 0.13633 0.27208 0.0
C751 C 0.48849 0.22751 0.25579 0.0
C752 C 0.47078 0.19261 0.26548 0.0
H753 H 0.5411 0.25809 0.25599 0.0
H754 H 0.47182 0.25267 0.24832 0.0
C755 C 0.49339 0.15999 0.27227 0.0
C756 C 0.79145 0.52972 0.2643 0.0
C757 C 0.82433 0.55225 0.26654 0.0
H758 H 0.76876 0.47333 0.2559 0.0
C759 C 0.85988 0.53426 0.27241 0.0
H760 H 0.76377 0.54269 0.26513 0.0
C761 C 0.86224 0.49458 0.27495 0.0
C762 C 0.82937 0.4721 0.26957 0.0
H763 H 0.886 0.55081 0.27419 0.0
H764 H 0.88983 0.48141 0.28094 0.0
C765 C 0.79418 0.48993 0.26227 0.0
C766 C 0.52998 0.79424 0.26135 0.0
C767 C 0.54817 0.82942 0.26764 0.0
H768 H 0.47676 0.76452 0.26375 0.0
C769 C 0.52606 0.86275 0.27048 0.0
H770 H 0.54632 0.76849 0.2563 0.0
C771 C 0.48645 0.86082 0.26671 0.0
C772 C 0.46808 0.82534 0.26213 0.0
H773 H 0.53946 0.89037 0.27554 0.0
H774 H 0.47023 0.88719 0.26676 0.0
C775 C 0.49013 0.79206 0.2622 0.0
C776 C 0.91658 0.52816 0.77005 0.0
C777 C 0.88204 0.54714 0.78046 0.0
H778 H 0.94346 0.47686 0.74392 0.0
C779 C 0.8476 0.52758 0.77199 0.0
H780 H 0.94365 0.54247 0.77559 0.0
C781 C 0.84749 0.49022 0.75411 0.0
C782 C 0.88181 0.47122 0.74326 0.0
H783 H 0.82043 0.54118 0.77926 0.0
H784 H 0.82025 0.47621 0.74867 0.0
C785 C 0.91645 0.49073 0.75134 0.0
C786 C 0.52743 0.8467 0.7522 0.0
C787 C 0.54692 0.88097 0.74228 0.0
H788 H 0.47587 0.81989 0.77595 0.0
C789 C 0.52766 0.91572 0.75049 0.0
H790 H 0.54125 0.81937 0.7466 0.0
C791 C 0.49003 0.91603 0.76846 0.0
C792 C 0.47058 0.88157 0.778 0.0
H793 H 0.54188 0.94268 0.74377 0.0
H794 H 0.47597 0.94321 0.77418 0.0
C795 C 0.48985 0.84699 0.76934 0.0
C796 C 0.1014 0.49144 0.76474 0.0
C797 C 0.1361 0.47209 0.77299 0.0
H798 H 0.07407 0.54356 0.74207 0.0
C799 C 0.1704 0.49184 0.76419 0.0
H800 H 0.07443 0.47704 0.77062 0.0
C801 C 0.1702 0.52974 0.74811 0.0
C802 C 0.13569 0.54914 0.73944 0.0
H803 H 0.19769 0.47799 0.76985 0.0
H804 H 0.19734 0.54388 0.74233 0.0
C805 C 0.1012 0.52943 0.74784 0.0
C806 C 0.49254 0.10207 0.7505 0.0
C807 C 0.47326 0.13688 0.74273 0.0
H808 H 0.54421 0.07445 0.77403 0.0
C809 C 0.49253 0.17107 0.7535 0.0
H810 H 0.47846 0.07516 0.7431 0.0
C811 C 0.52999 0.17067 0.77092 0.0
C812 C 0.54933 0.13604 0.77901 0.0
H813 H 0.47867 0.19843 0.74827 0.0
H814 H 0.54385 0.19773 0.77812 0.0
C815 C 0.53006 0.10164 0.76876 0.0
C816 C 0.72825 0.02759 0.75984 0.0
C817 C 0.69417 0.04832 0.76137 0.0
H818 H 0.75403 0.97243 0.76537 0.0
C819 C 0.65934 0.02856 0.75864 0.0
H820 H 0.75524 0.04204 0.75749 0.0
C821 C 0.65884 0.98886 0.75494 0.0
C822 C 0.69308 0.96801 0.75604 0.0
H823 H 0.63241 0.0438 0.75987 0.0
H824 H 0.63163 0.97443 0.75119 0.0
C825 C 0.72762 0.98766 0.7608 0.0
C826 C 0.98854 0.65902 0.76255 0.0
C827 C 0.96801 0.69344 0.76394 0.0
H828 H 0.04327 0.63242 0.7562 0.0
C829 C 0.98792 0.728 0.76165 0.0
H830 H 0.97391 0.63177 0.7645 0.0
C831 C 0.02782 0.72829 0.76294 0.0
C832 C 0.04825 0.69412 0.75927 0.0
H833 H 0.97287 0.75464 0.75868 0.0
H834 H 0.04245 0.7551 0.76699 0.0
C835 C 0.02823 0.65937 0.75918 0.0
C836 C 0.36143 0.02927 0.754 0.0
C837 C 0.32702 0.04978 0.75248 0.0
H838 H 0.38806 0.97463 0.76145 0.0
C839 C 0.29247 0.02986 0.75488 0.0
H840 H 0.38866 0.04393 0.75208 0.0
C841 C 0.29223 0.98992 0.75425 0.0
C842 C 0.32639 0.96959 0.75859 0.0
H843 H 0.26582 0.04494 0.75773 0.0
H844 H 0.26546 0.97516 0.75057 0.0
C845 C 0.36111 0.98961 0.75809 0.0
C846 C 0.02995 0.36037 0.75293 0.0
C847 C 0.05022 0.32578 0.75412 0.0
H848 H 0.97533 0.38739 0.74823 0.0
C849 C 0.02997 0.2914 0.75266 0.0
H850 H 0.04483 0.38751 0.75423 0.0
C851 C 0.99011 0.29143 0.75522 0.0
C852 C 0.9699 0.32576 0.75201 0.0
H853 H 0.04475 0.26464 0.74932 0.0
H854 H 0.97535 0.26473 0.75981 0.0
C855 C 0.9902 0.36033 0.75083 0.0
C856 C 0.41646 0.02568 0.27016 0.0
C857 C 0.38189 0.04546 0.27754 0.0
H858 H 0.4435 0.97346 0.24733 0.0
C859 C 0.34751 0.02644 0.26703 0.0
H860 H 0.44351 0.03954 0.27735 0.0
C861 C 0.34749 0.98879 0.25013 0.0
C862 C 0.38189 0.96898 0.2423 0.0
H863 H 0.32032 0.04068 0.27199 0.0
H864 H 0.32029 0.97518 0.24306 0.0
C865 C 0.41647 0.98796 0.2524 0.0
C866 C 0.9952 0.34821 0.26286 0.0
C867 C 0.97659 0.38254 0.27473 0.0
H868 H 0.04586 0.32112 0.23683 0.0
C869 C 0.99642 0.41714 0.26755 0.0
H870 H 0.98092 0.32102 0.26761 0.0
C871 C 0.03378 0.41724 0.24872 0.0
C872 C 0.05238 0.38271 0.23732 0.0
H873 H 0.98286 0.44415 0.27579 0.0
H874 H 0.04833 0.44428 0.24389 0.0
C875 C 0.03252 0.34828 0.2449 0.0
C876 C 0.6021 0.9968 0.2706 0.0
C877 C 0.63669 0.97692 0.2775 0.0
H878 H 0.57502 0.04916 0.2483 0.0
C879 C 0.67103 0.99583 0.26649 0.0
H880 H 0.57508 0.98303 0.27821 0.0
C881 C 0.67099 0.03349 0.24968 0.0
C882 C 0.63659 0.05344 0.24245 0.0
H883 H 0.69821 0.98152 0.27107 0.0
H884 H 0.69817 0.04703 0.24226 0.0
C885 C 0.60204 0.03455 0.25292 0.0
C886 C 0.02524 0.60209 0.27146 0.0
C887 C 0.04519 0.63655 0.27918 0.0
H888 H 0.97275 0.5754 0.24903 0.0
C889 C 0.02612 0.6711 0.26962 0.0
H890 H 0.0391 0.57492 0.27793 0.0
C891 C 0.9883 0.67137 0.25332 0.0
C892 C 0.96831 0.63709 0.2452 0.0
H893 H 0.04045 0.69822 0.27486 0.0
H894 H 0.9747 0.69869 0.24695 0.0
C895 C 0.98734 0.60235 0.25436 0.0
loop_
_geom_bond_atom_site_label_1
_geom_bond_atom_site_label_2
_geom_bond_distance
_geom_bond_site_symmetry_2
_ccdc_geom_bond_type
Mn0 O5 2.095 . S
Mn0 O15 2.162 . S
Mn0 O16 2.297 . S
Mn0 O24 2.385 . S
Mn0 O25 2.209 . S
Mn0 O26 2.094 . S
Mn1 O6 2.121 . S
Mn1 N8 2.257 . S
Mn1 N17 2.282 . S
Mn1 O25 2.215 . S
Mn1 O27 2.117 . S
C2 O24 1.234 . S
C2 O25 1.283 . S
C3 O15 1.281 . S
C3 O16 1.236 . S
C4 O26 1.240 . S
C4 O27 1.264 . S
O5 Mn0 2.095 . S
O5 C14 1.250 . S
O6 Mn1 2.121 . S
O6 C14 1.258 . S
C7 N8 1.326 . S
C7 C11 1.460 . S
C7 H13 0.929 . S
N8 Mn1 2.257 . S
N8 C7 1.326 . S
N8 C12 1.362 . S
C9 C10 1.258 . S
C9 C12 1.431 . S
C9 C29 1.449 . S
C10 C9 1.258 . S
C10 C11 1.477 . S
C10 H30 0.931 . S
C11 C7 1.460 . S
C11 C10 1.477 . S
C11 H31 0.930 . S
C12 N8 1.362 . S
C12 C9 1.431 . S
C12 C22 1.476 . S
H13 C7 0.929 . S
C14 O5 1.250 . S
C14 O6 1.258 . S
O15 Mn0 2.162 . S
O15 C3 1.281 . S
O16 Mn0 2.297 . S
O16 C3 1.236 . S
N17 Mn1 2.282 . S
N17 C18 1.328 . S
N17 C22 1.318 . S
C18 N17 1.328 . S
C18 C19 1.457 . S
C18 H23 0.929 . S
C19 C18 1.457 . S
C19 C20 1.291 . S
C19 H32 0.931 . S
C20 C19 1.291 . S
C20 C21 1.373 . S
C20 H33 0.929 . S
C21 C20 1.373 . S
C21 C22 1.396 . S
C21 C28 1.403 . S
C22 C12 1.476 . S
C22 N17 1.318 . S
C22 C21 1.396 . S
H23 C18 0.929 . S
O24 Mn0 2.385 . S
O24 C2 1.234 . S
O25 Mn0 2.209 . S
O25 Mn1 2.215 . S
O25 C2 1.283 . S
O26 Mn0 2.094 . S
O26 C4 1.240 . S
O27 Mn1 2.117 . S
O27 C4 1.264 . S
C28 C21 1.403 . S
C28 C29 1.399 . S
C28 H34 0.929 . S
C29 C9 1.449 . S
C29 C28 1.399 . S
C29 H35 0.930 . S
H30 C10 0.931 . S
H31 C11 0.930 . S
H32 C19 0.931 . S
H33 C20 0.929 . S
H34 C28 0.929 . S
H35 C29 0.930 . S
Mn36 O41 2.095 . S
Mn36 O51 2.162 . S
Mn36 O52 2.297 . S
Mn36 O60 2.385 . S
Mn36 O61 2.209 . S
Mn36 O62 2.094 . S
Mn37 O42 2.121 . S
Mn37 N44 2.257 . S
Mn37 N53 2.282 . S
Mn37 O61 2.215 . S
Mn37 O63 2.117 . S
C38 O60 1.234 . S
C38 O61 1.283 . S
C39 O51 1.281 . S
C39 O52 1.236 . S
C40 O62 1.240 . S
C40 O63 1.264 . S
O41 Mn36 2.095 . S
O41 C50 1.250 . S
O42 Mn37 2.121 . S
O42 C50 1.258 . S
C43 N44 1.326 . S
C43 C47 1.460 . S
C43 H49 0.929 . S
N44 Mn37 2.257 . S
N44 C43 1.326 . S
N44 C48 1.362 . S
C45 C46 1.258 . S
C45 C48 1.431 . S
C45 C65 1.449 . S
C46 C45 1.258 . S
C46 C47 1.477 . S
C46 H66 0.931 . S
C47 C43 1.460 . S
C47 C46 1.477 . S
C47 H67 0.930 . S
C48 N44 1.362 . S
C48 C45 1.431 . S
C48 C58 1.476 . S
H49 C43 0.929 . S
C50 O41 1.250 . S
C50 O42 1.258 . S
O51 Mn36 2.162 . S
O51 C39 1.281 . S
O52 Mn36 2.297 . S
O52 C39 1.236 . S
N53 Mn37 2.282 . S
N53 C54 1.328 . S
N53 C58 1.318 . S
C54 N53 1.328 . S
C54 C55 1.457 . S
C54 H59 0.929 . S
C55 C54 1.457 . S
C55 C56 1.291 . S
C55 H68 0.931 . S
C56 C55 1.291 . S
C56 C57 1.373 . S
C56 H69 0.929 . S
C57 C56 1.373 . S
C57 C58 1.396 . S
C57 C64 1.403 . S
C58 C48 1.476 . S
C58 N53 1.318 . S
C58 C57 1.396 . S
H59 C54 0.929 . S
O60 Mn36 2.385 . S
O60 C38 1.234 . S
O61 Mn36 2.209 . S
O61 Mn37 2.215 . S
O61 C38 1.283 . S
O62 Mn36 2.094 . S
O62 C40 1.240 . S
O63 Mn37 2.117 . S
O63 C40 1.264 . S
C64 C57 1.403 . S
C64 C65 1.399 . S
C64 H70 0.929 . S
C65 C45 1.449 . S
C65 C64 1.399 . S
C65 H71 0.930 . S
H66 C46 0.931 . S
H67 C47 0.930 . S
H68 C55 0.931 . S
H69 C56 0.929 . S
H70 C64 0.929 . S
H71 C65 0.930 . S
Mn72 O77 2.095 . S
Mn72 O87 2.162 . S
Mn72 O88 2.297 . S
Mn72 O96 2.385 . S
Mn72 O97 2.209 . S
Mn72 O98 2.094 . S
Mn73 O78 2.121 . S
Mn73 N80 2.257 . S
Mn73 N89 2.282 . S
Mn73 O97 2.215 . S
Mn73 O99 2.117 . S
C74 O96 1.234 . S
C74 O97 1.283 . S
C75 O87 1.281 . S
C75 O88 1.236 . S
C76 O98 1.240 . S
C76 O99 1.264 . S
O77 Mn72 2.095 . S
O77 C86 1.250 . S
O78 Mn73 2.121 . S
O78 C86 1.258 . S
C79 N80 1.326 . S
C79 C83 1.460 . S
C79 H85 0.929 . S
N80 Mn73 2.257 . S
N80 C79 1.326 . S
N80 C84 1.362 . S
C81 C82 1.258 . S
C81 C84 1.431 . S
C81 C101 1.449 . S
C82 C81 1.258 . S
C82 C83 1.477 . S
C82 H102 0.931 . S
C83 C79 1.460 . S
C83 C82 1.477 . S
C83 H103 0.930 . S
C84 N80 1.362 . S
C84 C81 1.431 . S
C84 C94 1.476 . S
H85 C79 0.929 . S
C86 O77 1.250 . S
C86 O78 1.258 . S
O87 Mn72 2.162 . S
O87 C75 1.281 . S
O88 Mn72 2.297 . S
O88 C75 1.236 . S
N89 Mn73 2.282 . S
N89 C90 1.328 . S
N89 C94 1.318 . S
C90 N89 1.328 . S
C90 C91 1.457 . S
C90 H95 0.929 . S
C91 C90 1.457 . S
C91 C92 1.291 . S
C91 H104 0.931 . S
C92 C91 1.291 . S
C92 C93 1.373 . S
C92 H105 0.929 . S
C93 C92 1.373 . S
C93 C94 1.396 . S
C93 C100 1.403 . S
C94 C84 1.476 . S
C94 N89 1.318 . S
C94 C93 1.396 . S
H95 C90 0.929 . S
O96 Mn72 2.385 . S
O96 C74 1.234 . S
O97 Mn72 2.209 . S
O97 Mn73 2.215 . S
O97 C74 1.283 . S
O98 Mn72 2.094 . S
O98 C76 1.240 . S
O99 Mn73 2.117 . S
O99 C76 1.264 . S
C100 C93 1.403 . S
C100 C101 1.399 . S
C100 H106 0.929 . S
C101 C81 1.449 . S
C101 C100 1.399 . S
C101 H107 0.930 . S
H102 C82 0.931 . S
H103 C83 0.930 . S
H104 C91 0.931 . S
H105 C92 0.929 . S
H106 C100 0.929 . S
H107 C101 0.930 . S
Mn108 O113 2.095 . S
Mn108 O123 2.162 . S
Mn108 O124 2.297 . S
Mn108 O132 2.385 . S
Mn108 O133 2.209 . S
Mn108 O134 2.094 . S
Mn109 O114 2.121 . S
Mn109 N116 2.257 . S
Mn109 N125 2.282 . S
Mn109 O133 2.215 . S
Mn109 O135 2.117 . S
C110 O132 1.234 . S
C110 O133 1.283 . S
C111 O123 1.281 . S
C111 O124 1.236 . S
C112 O134 1.240 . S
C112 O135 1.264 . S
O113 Mn108 2.095 . S
O113 C122 1.250 . S
O114 Mn109 2.121 . S
O114 C122 1.258 . S
C115 N116 1.326 . S
C115 C119 1.460 . S
C115 H121 0.929 . S
N116 Mn109 2.257 . S
N116 C115 1.326 . S
N116 C120 1.362 . S
C117 C118 1.258 . S
C117 C120 1.431 . S
C117 C137 1.449 . S
C118 C117 1.258 . S
C118 C119 1.477 . S
C118 H138 0.931 . S
C119 C115 1.460 . S
C119 C118 1.477 . S
C119 H139 0.930 . S
C120 N116 1.362 . S
C120 C117 1.431 . S
C120 C130 1.476 . S
H121 C115 0.929 . S
C122 O113 1.250 . S
C122 O114 1.258 . S
O123 Mn108 2.162 . S
O123 C111 1.281 . S
O124 Mn108 2.297 . S
O124 C111 1.236 . S
N125 Mn109 2.282 . S
N125 C126 1.328 . S
N125 C130 1.318 . S
C126 N125 1.328 . S
C126 C127 1.457 . S
C126 H131 0.929 . S
C127 C126 1.457 . S
C127 C128 1.291 . S
C127 H140 0.931 . S
C128 C127 1.291 . S
C128 C129 1.373 . S
C128 H141 0.929 . S
C129 C128 1.373 . S
C129 C130 1.396 . S
C129 C136 1.403 . S
C130 C120 1.476 . S
C130 N125 1.318 . S
C130 C129 1.396 . S
H131 C126 0.929 . S
O132 Mn108 2.385 . S
O132 C110 1.234 . S
O133 Mn108 2.209 . S
O133 Mn109 2.215 . S
O133 C110 1.283 . S
O134 Mn108 2.094 . S
O134 C112 1.240 . S
O135 Mn109 2.117 . S
O135 C112 1.264 . S
C136 C129 1.403 . S
C136 C137 1.399 . S
C136 H142 0.929 . S
C137 C117 1.449 . S
C137 C136 1.399 . S
C137 H143 0.930 . S
H138 C118 0.931 . S
H139 C119 0.930 . S
H140 C127 0.931 . S
H141 C128 0.929 . S
H142 C136 0.929 . S
H143 C137 0.930 . S
Mn144 O149 2.095 . S
Mn144 O159 2.162 . S
Mn144 O160 2.297 . S
Mn144 O168 2.385 . S
Mn144 O169 2.209 . S
Mn144 O170 2.094 . S
Mn145 O150 2.121 . S
Mn145 N152 2.257 . S
Mn145 N161 2.282 . S
Mn145 O169 2.215 . S
Mn145 O171 2.117 . S
C146 O168 1.234 . S
C146 O169 1.283 . S
C147 O159 1.281 . S
C147 O160 1.236 . S
C148 O170 1.240 . S
C148 O171 1.264 . S
O149 Mn144 2.095 . S
O149 C158 1.250 . S
O150 Mn145 2.121 . S
O150 C158 1.258 . S
C151 N152 1.326 . S
C151 C155 1.460 . S
C151 H157 0.929 . S
N152 Mn145 2.257 . S
N152 C151 1.326 . S
N152 C156 1.362 . S
C153 C154 1.258 . S
C153 C156 1.431 . S
C153 C173 1.449 . S
C154 C153 1.258 . S
C154 C155 1.477 . S
C154 H174 0.931 . S
C155 C151 1.460 . S
C155 C154 1.477 . S
C155 H175 0.930 . S
C156 N152 1.362 . S
C156 C153 1.431 . S
C156 C166 1.476 . S
H157 C151 0.929 . S
C158 O149 1.250 . S
C158 O150 1.258 . S
O159 Mn144 2.162 . S
O159 C147 1.281 . S
O160 Mn144 2.297 . S
O160 C147 1.236 . S
N161 Mn145 2.282 . S
N161 C162 1.328 . S
N161 C166 1.318 . S
C162 N161 1.328 . S
C162 C163 1.457 . S
C162 H167 0.929 . S
C163 C162 1.457 . S
C163 C164 1.291 . S
C163 H176 0.931 . S
C164 C163 1.291 . S
C164 C165 1.373 . S
C164 H177 0.929 . S
C165 C164 1.373 . S
C165 C166 1.396 . S
C165 C172 1.403 . S
C166 C156 1.476 . S
C166 N161 1.318 . S
C166 C165 1.396 . S
H167 C162 0.929 . S
O168 Mn144 2.385 . S
O168 C146 1.234 . S
O169 Mn144 2.209 . S
O169 Mn145 2.215 . S
O169 C146 1.283 . S
O170 Mn144 2.094 . S
O170 C148 1.240 . S
O171 Mn145 2.117 . S
O171 C148 1.264 . S
C172 C165 1.403 . S
C172 C173 1.399 . S
C172 H178 0.929 . S
C173 C153 1.449 . S
C173 C172 1.399 . S
C173 H179 0.930 . S
H174 C154 0.931 . S
H175 C155 0.930 . S
H176 C163 0.931 . S
H177 C164 0.929 . S
H178 C172 0.929 . S
H179 C173 0.930 . S
Mn180 O185 2.095 . S
Mn180 O195 2.162 . S
Mn180 O196 2.297 . S
Mn180 O204 2.385 . S
Mn180 O205 2.209 . S
Mn180 O206 2.094 . S
Mn181 O186 2.121 . S
Mn181 N188 2.257 . S
Mn181 N197 2.282 . S
Mn181 O205 2.215 . S
Mn181 O207 2.117 . S
C182 O204 1.234 . S
C182 O205 1.283 . S
C183 O195 1.281 . S
C183 O196 1.236 . S
C184 O206 1.240 . S
C184 O207 1.264 . S
O185 Mn180 2.095 . S
O185 C194 1.250 . S
O186 Mn181 2.121 . S
O186 C194 1.258 . S
C187 N188 1.326 . S
C187 C191 1.460 . S
C187 H193 0.929 . S
N188 Mn181 2.257 . S
N188 C187 1.326 . S
N188 C192 1.362 . S
C189 C190 1.258 . S
C189 C192 1.431 . S
C189 C209 1.449 . S
C190 C189 1.258 . S
C190 C191 1.477 . S
C190 H210 0.931 . S
C191 C187 1.460 . S
C191 C190 1.477 . S
C191 H211 0.930 . S
C192 N188 1.362 . S
C192 C189 1.431 . S
C192 C202 1.476 . S
H193 C187 0.929 . S
C194 O185 1.250 . S
C194 O186 1.258 . S
O195 Mn180 2.162 . S
O195 C183 1.281 . S
O196 Mn180 2.297 . S
O196 C183 1.236 . S
N197 Mn181 2.282 . S
N197 C198 1.328 . S
N197 C202 1.318 . S
C198 N197 1.328 . S
C198 C199 1.457 . S
C198 H203 0.929 . S
C199 C198 1.457 . S
C199 C200 1.291 . S
C199 H212 0.931 . S
C200 C199 1.291 . S
C200 C201 1.373 . S
C200 H213 0.929 . S
C201 C200 1.373 . S
C201 C202 1.396 . S
C201 C208 1.403 . S
C202 C192 1.476 . S
C202 N197 1.318 . S
C202 C201 1.396 . S
H203 C198 0.929 . S
O204 Mn180 2.385 . S
O204 C182 1.234 . S
O205 Mn180 2.209 . S
O205 Mn181 2.215 . S
O205 C182 1.283 . S
O206 Mn180 2.094 . S
O206 C184 1.240 . S
O207 Mn181 2.117 . S
O207 C184 1.264 . S
C208 C201 1.403 . S
C208 C209 1.399 . S
C208 H214 0.929 . S
C209 C189 1.449 . S
C209 C208 1.399 . S
C209 H215 0.930 . S
H210 C190 0.931 . S
H211 C191 0.930 . S
H212 C199 0.931 . S
H213 C200 0.929 . S
H214 C208 0.929 . S
H215 C209 0.930 . S
Mn216 O221 2.095 . S
Mn216 O231 2.162 . S
Mn216 O232 2.297 . S
Mn216 O240 2.385 . S
Mn216 O241 2.209 . S
Mn216 O242 2.094 . S
Mn217 O222 2.121 . S
Mn217 N224 2.257 . S
Mn217 N233 2.282 . S
Mn217 O241 2.215 . S
Mn217 O243 2.117 . S
C218 O240 1.234 . S
C218 O241 1.283 . S
C219 O231 1.281 . S
C219 O232 1.236 . S
C220 O242 1.240 . S
C220 O243 1.264 . S
O221 Mn216 2.095 . S
O221 C230 1.250 . S
O222 Mn217 2.121 . S
O222 C230 1.258 . S
C223 N224 1.326 . S
C223 C227 1.460 . S
C223 H229 0.929 . S
N224 Mn217 2.257 . S
N224 C223 1.326 . S
N224 C228 1.362 . S
C225 C226 1.258 . S
C225 C228 1.431 . S
C225 C245 1.449 . S
C226 C225 1.258 . S
C226 C227 1.477 . S
C226 H246 0.931 . S
C227 C223 1.460 . S
C227 C226 1.477 . S
C227 H247 0.930 . S
C228 N224 1.362 . S
C228 C225 1.431 . S
C228 C238 1.476 . S
H229 C223 0.929 . S
C230 O221 1.250 . S
C230 O222 1.258 . S
O231 Mn216 2.162 . S
O231 C219 1.281 . S
O232 Mn216 2.297 . S
O232 C219 1.236 . S
N233 Mn217 2.282 . S
N233 C234 1.328 . S
N233 C238 1.318 . S
C234 N233 1.328 . S
C234 C235 1.457 . S
C234 H239 0.929 . S
C235 C234 1.457 . S
C235 C236 1.291 . S
C235 H248 0.931 . S
C236 C235 1.291 . S
C236 C237 1.373 . S
C236 H249 0.929 . S
C237 C236 1.373 . S
C237 C238 1.396 . S
C237 C244 1.403 . S
C238 C228 1.476 . S
C238 N233 1.318 . S
C238 C237 1.396 . S
H239 C234 0.929 . S
O240 Mn216 2.385 . S
O240 C218 1.234 . S
O241 Mn216 2.209 . S
O241 Mn217 2.215 . S
O241 C218 1.283 . S
O242 Mn216 2.094 . S
O242 C220 1.240 . S
O243 Mn217 2.117 . S
O243 C220 1.264 . S
C244 C237 1.403 . S
C244 C245 1.399 . S
C244 H250 0.929 . S
C245 C225 1.449 . S
C245 C244 1.399 . S
C245 H251 0.930 . S
H246 C226 0.931 . S
H247 C227 0.930 . S
H248 C235 0.931 . S
H249 C236 0.929 . S
H250 C244 0.929 . S
H251 C245 0.930 . S
Mn252 O257 2.095 . S
Mn252 O267 2.162 . S
Mn252 O268 2.297 . S
Mn252 O276 2.385 . S
Mn252 O277 2.209 . S
Mn252 O278 2.094 . S
Mn253 O258 2.121 . S
Mn253 N260 2.257 . S
Mn253 N269 2.282 . S
Mn253 O277 2.215 . S
Mn253 O279 2.117 . S
C254 O276 1.234 . S
C254 O277 1.283 . S
C255 O267 1.281 . S
C255 O268 1.236 . S
C256 O278 1.240 . S
C256 O279 1.264 . S
O257 Mn252 2.095 . S
O257 C266 1.250 . S
O258 Mn253 2.121 . S
O258 C266 1.258 . S
C259 N260 1.326 . S
C259 C263 1.460 . S
C259 H265 0.929 . S
N260 Mn253 2.257 . S
N260 C259 1.326 . S
N260 C264 1.362 . S
C261 C262 1.258 . S
C261 C264 1.431 . S
C261 C281 1.449 . S
C262 C261 1.258 . S
C262 C263 1.477 . S
C262 H282 0.931 . S
C263 C259 1.460 . S
C263 C262 1.477 . S
C263 H283 0.930 . S
C264 N260 1.362 . S
C264 C261 1.431 . S
C264 C274 1.476 . S
H265 C259 0.929 . S
C266 O257 1.250 . S
C266 O258 1.258 . S
O267 Mn252 2.162 . S
O267 C255 1.281 . S
O268 Mn252 2.297 . S
O268 C255 1.236 . S
N269 Mn253 2.282 . S
N269 C270 1.328 . S
N269 C274 1.318 . S
C270 N269 1.328 . S
C270 C271 1.457 . S
C270 H275 0.929 . S
C271 C270 1.457 . S
C271 C272 1.291 . S
C271 H284 0.931 . S
C272 C271 1.291 . S
C272 C273 1.373 . S
C272 H285 0.929 . S
C273 C272 1.373 . S
C273 C274 1.396 . S
C273 C280 1.403 . S
C274 C264 1.476 . S
C274 N269 1.318 . S
C274 C273 1.396 . S
H275 C270 0.929 . S
O276 Mn252 2.385 . S
O276 C254 1.234 . S
O277 Mn252 2.209 . S
O277 Mn253 2.215 . S
O277 C254 1.283 . S
O278 Mn252 2.094 . S
O278 C256 1.240 . S
O279 Mn253 2.117 . S
O279 C256 1.264 . S
C280 C273 1.403 . S
C280 C281 1.399 . S
C280 H286 0.929 . S
C281 C261 1.449 . S
C281 C280 1.399 . S
C281 H287 0.930 . S
H282 C262 0.931 . S
H283 C263 0.930 . S
H284 C271 0.931 . S
H285 C272 0.929 . S
H286 C280 0.929 . S
H287 C281 0.930 . S
Mn288 O293 2.095 . S
Mn288 O303 2.162 . S
Mn288 O304 2.297 . S
Mn288 O312 2.385 . S
Mn288 O313 2.209 . S
Mn288 O314 2.094 . S
Mn289 O294 2.121 . S
Mn289 N296 2.257 . S
Mn289 N305 2.282 . S
Mn289 O313 2.215 . S
Mn289 O315 2.117 . S
C290 O312 1.234 . S
C290 O313 1.283 . S
C291 O303 1.281 . S
C291 O304 1.236 . S
C292 O314 1.240 . S
C292 O315 1.264 . S
O293 Mn288 2.095 . S
O293 C302 1.250 . S
O294 Mn289 2.121 . S
O294 C302 1.258 . S
C295 N296 1.326 . S
C295 C299 1.460 1_655 S
C295 H301 0.929 . S
N296 Mn289 2.257 . S
N296 C295 1.326 . S
N296 C300 1.362 . S
C297 C298 1.258 . S
C297 C300 1.431 1_455 S
C297 C317 1.449 . S
C298 C297 1.258 . S
C298 C299 1.477 . S
C298 H318 0.931 . S
C299 C295 1.460 1_455 S
C299 C298 1.477 . S
C299 H319 0.930 . S
C300 N296 1.362 . S
C300 C297 1.431 1_655 S
C300 C310 1.476 . S
H301 C295 0.929 . S
C302 O293 1.250 . S
C302 O294 1.258 . S
O303 Mn288 2.162 . S
O303 C291 1.281 . S
O304 Mn288 2.297 . S
O304 C291 1.236 . S
N305 Mn289 2.282 . S
N305 C306 1.328 . S
N305 C310 1.318 . S
C306 N305 1.328 . S
C306 C307 1.457 . S
C306 H311 0.929 . S
C307 C306 1.457 . S
C307 C308 1.291 . S
C307 H320 0.931 . S
C308 C307 1.291 . S
C308 C309 1.373 . S
C308 H321 0.929 . S
C309 C308 1.373 . S
C309 C310 1.396 . S
C309 C316 1.403 1_655 S
C310 C300 1.476 . S
C310 N305 1.318 . S
C310 C309 1.396 . S
H311 C306 0.929 . S
O312 Mn288 2.385 . S
O312 C290 1.234 . S
O313 Mn288 2.209 . S
O313 Mn289 2.215 . S
O313 C290 1.283 . S
O314 Mn288 2.094 . S
O314 C292 1.240 . S
O315 Mn289 2.117 . S
O315 C292 1.264 . S
C316 C309 1.403 1_455 S
C316 C317 1.399 . S
C316 H322 0.929 . S
C317 C297 1.449 . S
C317 C316 1.399 . S
C317 H323 0.930 . S
H318 C298 0.931 . S
H319 C299 0.930 . S
H320 C307 0.931 . S
H321 C308 0.929 . S
H322 C316 0.929 . S
H323 C317 0.930 . S
Mn324 O329 2.095 . S
Mn324 O339 2.162 . S
Mn324 O340 2.297 . S
Mn324 O348 2.385 . S
Mn324 O349 2.209 . S
Mn324 O350 2.094 . S
Mn325 O330 2.121 . S
Mn325 N332 2.257 . S
Mn325 N341 2.282 . S
Mn325 O349 2.215 . S
Mn325 O351 2.117 . S
C326 O348 1.234 . S
C326 O349 1.283 . S
C327 O339 1.281 . S
C327 O340 1.236 . S
C328 O350 1.240 . S
C328 O351 1.264 . S
O329 Mn324 2.095 . S
O329 C338 1.250 . S
O330 Mn325 2.121 . S
O330 C338 1.258 . S
C331 N332 1.326 . S
C331 C335 1.460 1_565 S
C331 H337 0.929 . S
N332 Mn325 2.257 . S
N332 C331 1.326 . S
N332 C336 1.362 . S
C333 C334 1.258 . S
C333 C336 1.431 1_545 S
C333 C353 1.449 . S
C334 C333 1.258 . S
C334 C335 1.477 . S
C334 H354 0.931 . S
C335 C331 1.460 1_545 S
C335 C334 1.477 . S
C335 H355 0.930 . S
C336 N332 1.362 . S
C336 C333 1.431 1_565 S
C336 C346 1.476 . S
H337 C331 0.929 . S
C338 O329 1.250 . S
C338 O330 1.258 . S
O339 Mn324 2.162 . S
O339 C327 1.281 . S
O340 Mn324 2.297 . S
O340 C327 1.236 . S
N341 Mn325 2.282 . S
N341 C342 1.328 . S
N341 C346 1.318 . S
C342 N341 1.328 . S
C342 C343 1.457 . S
C342 H347 0.929 . S
C343 C342 1.457 . S
C343 C344 1.291 . S
C343 H356 0.931 . S
C344 C343 1.291 . S
C344 C345 1.373 . S
C344 H357 0.929 . S
C345 C344 1.373 . S
C345 C346 1.396 . S
C345 C352 1.403 1_565 S
C346 C336 1.476 . S
C346 N341 1.318 . S
C346 C345 1.396 . S
H347 C342 0.929 . S
O348 Mn324 2.385 . S
O348 C326 1.234 . S
O349 Mn324 2.209 . S
O349 Mn325 2.215 . S
O349 C326 1.283 . S
O350 Mn324 2.094 . S
O350 C328 1.240 . S
O351 Mn325 2.117 . S
O351 C328 1.264 . S
C352 C345 1.403 1_545 S
C352 C353 1.399 . S
C352 H358 0.929 . S
C353 C333 1.449 . S
C353 C352 1.399 . S
C353 H359 0.930 . S
H354 C334 0.931 . S
H355 C335 0.930 . S
H356 C343 0.931 . S
H357 C344 0.929 . S
H358 C352 0.929 . S
H359 C353 0.930 . S
Mn360 O365 2.095 . S
Mn360 O375 2.162 . S
Mn360 O376 2.297 . S
Mn360 O384 2.385 . S
Mn360 O385 2.209 . S
Mn360 O386 2.094 . S
Mn361 O366 2.121 . S
Mn361 N368 2.257 . S
Mn361 N377 2.282 . S
Mn361 O385 2.215 . S
Mn361 O387 2.117 . S
C362 O384 1.234 . S
C362 O385 1.283 . S
C363 O375 1.281 . S
C363 O376 1.236 . S
C364 O386 1.240 . S
C364 O387 1.264 . S
O365 Mn360 2.095 . S
O365 C374 1.250 . S
O366 Mn361 2.121 . S
O366 C374 1.258 . S
C367 N368 1.326 . S
C367 C371 1.460 1_455 S
C367 H373 0.929 . S
N368 Mn361 2.257 . S
N368 C367 1.326 . S
N368 C372 1.362 . S
C369 C370 1.258 . S
C369 C372 1.431 1_655 S
C369 C389 1.449 . S
C370 C369 1.258 . S
C370 C371 1.477 . S
C370 H390 0.931 . S
C371 C367 1.460 1_655 S
C371 C370 1.477 . S
C371 H391 0.930 . S
C372 N368 1.362 . S
C372 C369 1.431 1_455 S
C372 C382 1.476 . S
H373 C367 0.929 . S
C374 O365 1.250 . S
C374 O366 1.258 . S
O375 Mn360 2.162 . S
O375 C363 1.281 . S
O376 Mn360 2.297 . S
O376 C363 1.236 . S
N377 Mn361 2.282 . S
N377 C378 1.328 . S
N377 C382 1.318 . S
C378 N377 1.328 . S
C378 C379 1.457 . S
C378 H383 0.929 . S
C379 C378 1.457 . S
C379 C380 1.291 . S
C379 H392 0.931 . S
C380 C379 1.291 . S
C380 C381 1.373 . S
C380 H393 0.929 . S
C381 C380 1.373 . S
C381 C382 1.396 . S
C381 C388 1.403 1_455 S
C382 C372 1.476 . S
C382 N377 1.318 . S
C382 C381 1.396 . S
H383 C378 0.929 . S
O384 Mn360 2.385 . S
O384 C362 1.234 . S
O385 Mn360 2.209 . S
O385 Mn361 2.215 . S
O385 C362 1.283 . S
O386 Mn360 2.094 . S
O386 C364 1.240 . S
O387 Mn361 2.117 . S
O387 C364 1.264 . S
C388 C381 1.403 1_655 S
C388 C389 1.399 . S
C388 H394 0.929 . S
C389 C369 1.449 . S
C389 C388 1.399 . S
C389 H395 0.930 . S
H390 C370 0.931 . S
H391 C371 0.930 . S
H392 C379 0.931 . S
H393 C380 0.929 . S
H394 C388 0.929 . S
H395 C389 0.930 . S
Mn396 O401 2.095 . S
Mn396 O411 2.162 . S
Mn396 O412 2.297 . S
Mn396 O420 2.385 . S
Mn396 O421 2.209 . S
Mn396 O422 2.094 . S
Mn397 O402 2.121 . S
Mn397 N404 2.257 . S
Mn397 N413 2.282 . S
Mn397 O421 2.215 . S
Mn397 O423 2.117 . S
C398 O420 1.234 . S
C398 O421 1.283 . S
C399 O411 1.281 . S
C399 O412 1.236 . S
C400 O422 1.240 . S
C400 O423 1.264 . S
O401 Mn396 2.095 . S
O401 C410 1.250 . S
O402 Mn397 2.121 . S
O402 C410 1.258 . S
C403 N404 1.326 . S
C403 C407 1.460 1_545 S
C403 H409 0.929 . S
N404 Mn397 2.257 . S
N404 C403 1.326 . S
N404 C408 1.362 . S
C405 C406 1.258 . S
C405 C408 1.431 1_565 S
C405 C425 1.449 . S
C406 C405 1.258 . S
C406 C407 1.477 . S
C406 H426 0.931 . S
C407 C403 1.460 1_565 S
C407 C406 1.477 . S
C407 H427 0.930 . S
C408 N404 1.362 . S
C408 C405 1.431 1_545 S
C408 C418 1.476 . S
H409 C403 0.929 . S
C410 O401 1.250 . S
C410 O402 1.258 . S
O411 Mn396 2.162 . S
O411 C399 1.281 . S
O412 Mn396 2.297 . S
O412 C399 1.236 . S
N413 Mn397 2.282 . S
N413 C414 1.328 . S
N413 C418 1.318 . S
C414 N413 1.328 . S
C414 C415 1.457 . S
C414 H419 0.929 . S
C415 C414 1.457 . S
C415 C416 1.291 . S
C415 H428 0.931 . S
C416 C415 1.291 . S
C416 C417 1.373 . S
C416 H429 0.929 . S
C417 C416 1.373 . S
C417 C418 1.396 . S
C417 C424 1.403 1_545 S
C418 C408 1.476 . S
C418 N413 1.318 . S
C418 C417 1.396 . S
H419 C414 0.929 . S
O420 Mn396 2.385 . S
O420 C398 1.234 . S
O421 Mn396 2.209 . S
O421 Mn397 2.215 . S
O421 C398 1.283 . S
O422 Mn396 2.094 . S
O422 C400 1.240 . S
O423 Mn397 2.117 . S
O423 C400 1.264 . S
C424 C417 1.403 1_565 S
C424 C425 1.399 . S
C424 H430 0.929 . S
C425 C405 1.449 . S
C425 C424 1.399 . S
C425 H431 0.930 . S
H426 C406 0.931 . S
H427 C407 0.930 . S
H428 C415 0.931 . S
H429 C416 0.929 . S
H430 C424 0.929 . S
H431 C425 0.930 . S
Mn432 O437 2.095 . S
Mn432 O447 2.162 . S
Mn432 O448 2.297 . S
Mn432 O456 2.385 . S
Mn432 O457 2.209 . S
Mn432 O458 2.094 . S
Mn433 O438 2.121 . S
Mn433 N440 2.257 . S
Mn433 N449 2.282 . S
Mn433 O457 2.215 . S
Mn433 O459 2.117 . S
C434 O456 1.234 . S
C434 O457 1.283 . S
C435 O447 1.281 . S
C435 O448 1.236 . S
C436 O458 1.240 . S
C436 O459 1.264 . S
O437 Mn432 2.095 . S
O437 C446 1.250 . S
O438 Mn433 2.121 . S
O438 C446 1.258 . S
C439 N440 1.326 . S
C439 C443 1.460 1_655 S
C439 H445 0.929 . S
N440 Mn433 2.257 . S
N440 C439 1.326 . S
N440 C444 1.362 . S
C441 C442 1.258 . S
C441 C444 1.431 1_455 S
C441 C461 1.449 . S
C442 C441 1.258 . S
C442 C443 1.477 . S
C442 H462 0.931 . S
C443 C439 1.460 1_455 S
C443 C442 1.477 . S
C443 H463 0.930 . S
C444 N440 1.362 . S
C444 C441 1.431 1_655 S
C444 C454 1.476 . S
H445 C439 0.929 . S
C446 O437 1.250 . S
C446 O438 1.258 . S
O447 Mn432 2.162 . S
O447 C435 1.281 . S
O448 Mn432 2.297 . S
O448 C435 1.236 . S
N449 Mn433 2.282 . S
N449 C450 1.328 . S
N449 C454 1.318 . S
C450 N449 1.328 . S
C450 C451 1.457 . S
C450 H455 0.929 . S
C451 C450 1.457 . S
C451 C452 1.291 . S
C451 H464 0.931 . S
C452 C451 1.291 . S
C452 C453 1.373 . S
C452 H465 0.929 . S
C453 C452 1.373 . S
C453 C454 1.396 . S
C453 C460 1.403 1_655 S
C454 C444 1.476 . S
C454 N449 1.318 . S
C454 C453 1.396 . S
H455 C450 0.929 . S
O456 Mn432 2.385 . S
O456 C434 1.234 . S
O457 Mn432 2.209 . S
O457 Mn433 2.215 . S
O457 C434 1.283 . S
O458 Mn432 2.094 . S
O458 C436 1.240 . S
O459 Mn433 2.117 . S
O459 C436 1.264 . S
C460 C453 1.403 1_455 S
C460 C461 1.399 . S
C460 H466 0.929 . S
C461 C441 1.449 . S
C461 C460 1.399 . S
C461 H467 0.930 . S
H462 C442 0.931 . S
H463 C443 0.930 . S
H464 C451 0.931 . S
H465 C452 0.929 . S
H466 C460 0.929 . S
H467 C461 0.930 . S
Mn468 O473 2.095 . S
Mn468 O483 2.162 . S
Mn468 O484 2.297 . S
Mn468 O492 2.385 . S
Mn468 O493 2.209 . S
Mn468 O494 2.094 . S
Mn469 O474 2.121 . S
Mn469 N476 2.257 . S
Mn469 N485 2.282 . S
Mn469 O493 2.215 . S
Mn469 O495 2.117 . S
C470 O492 1.234 . S
C470 O493 1.283 . S
C471 O483 1.281 . S
C471 O484 1.236 . S
C472 O494 1.240 . S
C472 O495 1.264 . S
O473 Mn468 2.095 . S
O473 C482 1.250 . S
O474 Mn469 2.121 . S
O474 C482 1.258 . S
C475 N476 1.326 . S
C475 C479 1.460 1_565 S
C475 H481 0.929 . S
N476 Mn469 2.257 . S
N476 C475 1.326 . S
N476 C480 1.362 . S
C477 C478 1.258 . S
C477 C480 1.431 1_545 S
C477 C497 1.449 . S
C478 C477 1.258 . S
C478 C479 1.477 . S
C478 H498 0.931 . S
C479 C475 1.460 1_545 S
C479 C478 1.477 . S
C479 H499 0.930 . S
C480 N476 1.362 . S
C480 C477 1.431 1_565 S
C480 C490 1.476 . S
H481 C475 0.929 . S
C482 O473 1.250 . S
C482 O474 1.258 . S
O483 Mn468 2.162 . S
O483 C471 1.281 . S
O484 Mn468 2.297 . S
O484 C471 1.236 . S
N485 Mn469 2.282 . S
N485 C486 1.328 . S
N485 C490 1.318 . S
C486 N485 1.328 . S
C486 C487 1.457 . S
C486 H491 0.929 . S
C487 C486 1.457 . S
C487 C488 1.291 . S
C487 H500 0.931 . S
C488 C487 1.291 . S
C488 C489 1.373 . S
C488 H501 0.929 . S
C489 C488 1.373 . S
C489 C490 1.396 . S
C489 C496 1.403 1_565 S
C490 C480 1.476 . S
C490 N485 1.318 . S
C490 C489 1.396 . S
H491 C486 0.929 . S
O492 Mn468 2.385 . S
O492 C470 1.234 . S
O493 Mn468 2.209 . S
O493 Mn469 2.215 . S
O493 C470 1.283 . S
O494 Mn468 2.094 . S
O494 C472 1.240 . S
O495 Mn469 2.117 . S
O495 C472 1.264 . S
C496 C489 1.403 1_545 S
C496 C497 1.399 . S
C496 H502 0.929 . S
C497 C477 1.449 . S
C497 C496 1.399 . S
C497 H503 0.930 . S
H498 C478 0.931 . S
H499 C479 0.930 . S
H500 C487 0.931 . S
H501 C488 0.929 . S
H502 C496 0.929 . S
H503 C497 0.930 . S
Mn504 O509 2.095 . S
Mn504 O519 2.162 . S
Mn504 O520 2.297 . S
Mn504 O528 2.385 . S
Mn504 O529 2.209 . S
Mn504 O530 2.094 . S
Mn505 O510 2.121 . S
Mn505 N512 2.257 . S
Mn505 N521 2.282 . S
Mn505 O529 2.215 . S
Mn505 O531 2.117 . S
C506 O528 1.234 . S
C506 O529 1.283 . S
C507 O519 1.281 . S
C507 O520 1.236 . S
C508 O530 1.240 . S
C508 O531 1.264 . S
O509 Mn504 2.095 . S
O509 C518 1.250 . S
O510 Mn505 2.121 . S
O510 C518 1.258 . S
C511 N512 1.326 . S
C511 C515 1.460 1_455 S
C511 H517 0.929 . S
N512 Mn505 2.257 . S
N512 C511 1.326 . S
N512 C516 1.362 . S
C513 C514 1.258 . S
C513 C516 1.431 1_655 S
C513 C533 1.449 . S
C514 C513 1.258 . S
C514 C515 1.477 . S
C514 H534 0.931 . S
C515 C511 1.460 1_655 S
C515 C514 1.477 . S
C515 H535 0.930 . S
C516 N512 1.362 . S
C516 C513 1.431 1_455 S
C516 C526 1.476 . S
H517 C511 0.929 . S
C518 O509 1.250 . S
C518 O510 1.258 . S
O519 Mn504 2.162 . S
O519 C507 1.281 . S
O520 Mn504 2.297 . S
O520 C507 1.236 . S
N521 Mn505 2.282 . S
N521 C522 1.328 . S
N521 C526 1.318 . S
C522 N521 1.328 . S
C522 C523 1.457 . S
C522 H527 0.929 . S
C523 C522 1.457 . S
C523 C524 1.291 . S
C523 H536 0.931 . S
C524 C523 1.291 . S
C524 C525 1.373 . S
C524 H537 0.929 . S
C525 C524 1.373 . S
C525 C526 1.396 . S
C525 C532 1.403 1_455 S
C526 C516 1.476 . S
C526 N521 1.318 . S
C526 C525 1.396 . S
H527 C522 0.929 . S
O528 Mn504 2.385 . S
O528 C506 1.234 . S
O529 Mn504 2.209 . S
O529 Mn505 2.215 . S
O529 C506 1.283 . S
O530 Mn504 2.094 . S
O530 C508 1.240 . S
O531 Mn505 2.117 . S
O531 C508 1.264 . S
C532 C525 1.403 1_655 S
C532 C533 1.399 . S
C532 H538 0.929 . S
C533 C513 1.449 . S
C533 C532 1.399 . S
C533 H539 0.930 . S
H534 C514 0.931 . S
H535 C515 0.930 . S
H536 C523 0.931 . S
H537 C524 0.929 . S
H538 C532 0.929 . S
H539 C533 0.930 . S
Mn540 O545 2.095 . S
Mn540 O555 2.162 . S
Mn540 O556 2.297 . S
Mn540 O564 2.385 . S
Mn540 O565 2.209 . S
Mn540 O566 2.094 . S
Mn541 O546 2.121 . S
Mn541 N548 2.257 . S
Mn541 N557 2.282 . S
Mn541 O565 2.215 . S
Mn541 O567 2.117 . S
C542 O564 1.234 . S
C542 O565 1.283 . S
C543 O555 1.281 . S
C543 O556 1.236 . S
C544 O566 1.240 . S
C544 O567 1.264 . S
O545 Mn540 2.095 . S
O545 C554 1.250 . S
O546 Mn541 2.121 . S
O546 C554 1.258 . S
C547 N548 1.326 . S
C547 C551 1.460 1_545 S
C547 H553 0.929 . S
N548 Mn541 2.257 . S
N548 C547 1.326 . S
N548 C552 1.362 . S
C549 C550 1.258 . S
C549 C552 1.431 1_565 S
C549 C569 1.449 . S
C550 C549 1.258 . S
C550 C551 1.477 . S
C550 H570 0.931 . S
C551 C547 1.460 1_565 S
C551 C550 1.477 . S
C551 H571 0.930 . S
C552 N548 1.362 . S
C552 C549 1.431 1_545 S
C552 C562 1.476 . S
H553 C547 0.929 . S
C554 O545 1.250 . S
C554 O546 1.258 . S
O555 Mn540 2.162 . S
O555 C543 1.281 . S
O556 Mn540 2.297 . S
O556 C543 1.236 . S
N557 Mn541 2.282 . S
N557 C558 1.328 . S
N557 C562 1.318 . S
C558 N557 1.328 . S
C558 C559 1.457 . S
C558 H563 0.929 . S
C559 C558 1.457 . S
C559 C560 1.291 . S
C559 H572 0.931 . S
C560 C559 1.291 . S
C560 C561 1.373 . S
C560 H573 0.929 . S
C561 C560 1.373 . S
C561 C562 1.396 . S
C561 C568 1.403 1_545 S
C562 C552 1.476 . S
C562 N557 1.318 . S
C562 C561 1.396 . S
H563 C558 0.929 . S
O564 Mn540 2.385 . S
O564 C542 1.234 . S
O565 Mn540 2.209 . S
O565 Mn541 2.215 . S
O565 C542 1.283 . S
O566 Mn540 2.094 . S
O566 C544 1.240 . S
O567 Mn541 2.117 . S
O567 C544 1.264 . S
C568 C561 1.403 1_565 S
C568 C569 1.399 . S
C568 H574 0.929 . S
C569 C549 1.449 . S
C569 C568 1.399 . S
C569 H575 0.930 . S
H570 C550 0.931 . S
H571 C551 0.930 . S
H572 C559 0.931 . S
H573 C560 0.929 . S
H574 C568 0.929 . S
H575 C569 0.930 . S
C576 C577 1.387 . S
C576 H580 0.950 . S
C576 C585 1.390 . S
C577 C576 1.387 . S
C577 C579 1.387 . S
H578 C585 0.950 . S
C579 C577 1.387 . S
C579 C581 1.390 . S
C579 H583 0.950 . S
H580 C576 0.950 . S
C581 C579 1.390 . S
C581 C582 1.387 . S
C581 H584 0.950 . S
C582 C581 1.387 . S
C582 C585 1.387 . S
H583 C579 0.950 . S
H584 C581 0.950 . S
C585 C576 1.390 . S
C585 H578 0.950 . S
C585 C582 1.387 . S
C586 C587 1.387 . S
C586 H590 0.950 . S
C586 C595 1.390 . S
C587 C586 1.387 . S
C587 C589 1.387 . S
H588 C595 0.950 . S
C589 C587 1.387 . S
C589 C591 1.390 . S
C589 H593 0.950 . S
H590 C586 0.950 . S
C591 C589 1.390 . S
C591 C592 1.387 . S
C591 H594 0.950 . S
C592 C591 1.387 . S
C592 C595 1.387 . S
H593 C589 0.950 . S
H594 C591 0.950 . S
C595 C586 1.390 . S
C595 H588 0.950 . S
C595 C592 1.387 . S
C596 C597 1.387 . S
C596 H600 0.950 . S
C596 C605 1.390 . S
C597 C596 1.387 . S
C597 C599 1.387 . S
H598 C605 0.950 . S
C599 C597 1.387 . S
C599 C601 1.390 . S
C599 H603 0.950 . S
H600 C596 0.950 . S
C601 C599 1.390 . S
C601 C602 1.387 . S
C601 H604 0.950 . S
C602 C601 1.387 . S
C602 C605 1.387 . S
H603 C599 0.950 . S
H604 C601 0.950 . S
C605 C596 1.390 . S
C605 H598 0.950 . S
C605 C602 1.387 . S
C606 C607 1.387 . S
C606 H610 0.950 . S
C606 C615 1.390 . S
C607 C606 1.387 . S
C607 C609 1.387 . S
H608 C615 0.950 . S
C609 C607 1.387 . S
C609 C611 1.390 . S
C609 H613 0.950 . S
H610 C606 0.950 . S
C611 C609 1.390 . S
C611 C612 1.387 . S
C611 H614 0.950 . S
C612 C611 1.387 . S
C612 C615 1.387 . S
H613 C609 0.950 . S
H614 C611 0.950 . S
C615 C606 1.390 . S
C615 H608 0.950 . S
C615 C612 1.387 . S
C616 C617 1.387 . S
C616 H620 0.950 . S
C616 C625 1.390 . S
C617 C616 1.387 . S
C617 C619 1.387 . S
H618 C625 0.950 . S
C619 C617 1.387 . S
C619 C621 1.390 . S
C619 H623 0.950 . S
H620 C616 0.950 . S
C621 C619 1.390 . S
C621 C622 1.387 . S
C621 H624 0.950 . S
C622 C621 1.387 . S
C622 C625 1.387 . S
H623 C619 0.950 . S
H624 C621 0.950 . S
C625 C616 1.390 . S
C625 H618 0.950 . S
C625 C622 1.387 . S
C626 C627 1.387 . S
C626 H630 0.950 . S
C626 C635 1.390 . S
C627 C626 1.387 . S
C627 C629 1.387 . S
H628 C635 0.950 . S
C629 C627 1.387 . S
C629 C631 1.390 . S
C629 H633 0.950 . S
H630 C626 0.950 . S
C631 C629 1.390 . S
C631 C632 1.387 . S
C631 H634 0.950 . S
C632 C631 1.387 . S
C632 C635 1.387 . S
H633 C629 0.950 . S
H634 C631 0.950 . S
C635 C626 1.390 . S
C635 H628 0.950 . S
C635 C632 1.387 . S
C636 C637 1.387 . S
C636 H640 0.950 . S
C636 C645 1.390 . S
C637 C636 1.387 . S
C637 C639 1.387 . S
H638 C645 0.950 . S
C639 C637 1.387 . S
C639 C641 1.390 . S
C639 H643 0.950 . S
H640 C636 0.950 . S
C641 C639 1.390 . S
C641 C642 1.387 . S
C641 H644 0.950 . S
C642 C641 1.387 . S
C642 C645 1.387 . S
H643 C639 0.950 . S
H644 C641 0.950 . S
C645 C636 1.390 . S
C645 H638 0.950 . S
C645 C642 1.387 . S
C646 C647 1.387 . S
C646 H650 0.950 . S
C646 C655 1.390 . S
C647 C646 1.387 . S
C647 C649 1.387 . S
H648 C655 0.950 . S
C649 C647 1.387 . S
C649 C651 1.390 . S
C649 H653 0.950 . S
H650 C646 0.950 . S
C651 C649 1.390 . S
C651 C652 1.387 . S
C651 H654 0.950 . S
C652 C651 1.387 . S
C652 C655 1.387 . S
H653 C649 0.950 . S
H654 C651 0.950 . S
C655 C646 1.390 . S
C655 H648 0.950 . S
C655 C652 1.387 . S
C656 C657 1.387 . S
C656 H660 0.950 . S
C656 C665 1.390 1_556 S
C657 C656 1.387 . S
C657 C659 1.387 . S
H658 C665 0.950 . S
C659 C657 1.387 . S
C659 C661 1.390 1_556 S
C659 H663 0.950 . S
H660 C656 0.950 . S
C661 C659 1.390 1_554 S
C661 C662 1.387 . S
C661 H664 0.950 . S
C662 C661 1.387 . S
C662 C665 1.387 . S
H663 C659 0.950 . S
H664 C661 0.950 . S
C665 C656 1.390 1_554 S
C665 H658 0.950 . S
C665 C662 1.387 . S
C666 C667 1.387 . S
C666 H670 0.950 . S
C666 C675 1.390 1_556 S
C667 C666 1.387 . S
C667 C669 1.387 . S
H668 C675 0.950 . S
C669 C667 1.387 . S
C669 C671 1.390 1_556 S
C669 H673 0.950 . S
H670 C666 0.950 . S
C671 C669 1.390 1_554 S
C671 C672 1.387 . S
C671 H674 0.950 . S
C672 C671 1.387 . S
C672 C675 1.387 . S
H673 C669 0.950 . S
H674 C671 0.950 . S
C675 C666 1.390 1_554 S
C675 H668 0.950 . S
C675 C672 1.387 . S
C676 C677 1.387 . S
C676 H680 0.950 . S
C676 C685 1.390 1_556 S
C677 C676 1.387 . S
C677 C679 1.387 . S
H678 C685 0.950 . S
C679 C677 1.387 . S
C679 C681 1.390 1_556 S
C679 H683 0.950 . S
H680 C676 0.950 . S
C681 C679 1.390 1_554 S
C681 C682 1.387 . S
C681 H684 0.950 . S
C682 C681 1.387 . S
C682 C685 1.387 . S
H683 C679 0.950 . S
H684 C681 0.950 . S
C685 C676 1.390 1_554 S
C685 H678 0.950 . S
C685 C682 1.387 . S
C686 C687 1.387 . S
C686 H690 0.950 . S
C686 C695 1.390 1_554 S
C687 C686 1.387 . S
C687 C689 1.387 . S
H688 C695 0.950 . S
C689 C687 1.387 . S
C689 C691 1.390 1_554 S
C689 H693 0.950 . S
H690 C686 0.950 . S
C691 C689 1.390 1_556 S
C691 C692 1.387 . S
C691 H694 0.950 . S
C692 C691 1.387 . S
C692 C695 1.387 . S
H693 C689 0.950 . S
H694 C691 0.950 . S
C695 C686 1.390 1_556 S
C695 H688 0.950 . S
C695 C692 1.387 . S
C696 C697 1.387 . S
C696 H700 0.950 . S
C696 C705 1.390 . S
C697 C696 1.387 . S
C697 C699 1.387 . S
H698 C705 0.950 . S
C699 C697 1.387 . S
C699 C701 1.390 . S
C699 H703 0.950 . S
H700 C696 0.950 . S
C701 C699 1.390 . S
C701 C702 1.387 . S
C701 H704 0.950 . S
C702 C701 1.387 . S
C702 C705 1.387 . S
H703 C699 0.950 . S
H704 C701 0.950 . S
C705 C696 1.390 . S
C705 H698 0.950 . S
C705 C702 1.387 . S
C706 C707 1.387 . S
C706 H710 0.950 . S
C706 C715 1.390 . S
C707 C706 1.387 . S
C707 C709 1.387 . S
H708 C715 0.950 . S
C709 C707 1.387 . S
C709 C711 1.390 . S
C709 H713 0.950 . S
H710 C706 0.950 . S
C711 C709 1.390 . S
C711 C712 1.387 . S
C711 H714 0.950 . S
C712 C711 1.387 . S
C712 C715 1.387 . S
H713 C709 0.950 . S
H714 C711 0.950 . S
C715 C706 1.390 . S
C715 H708 0.950 . S
C715 C712 1.387 . S
C716 C717 1.387 . S
C716 H720 0.950 . S
C716 C725 1.390 . S
C717 C716 1.387 . S
C717 C719 1.387 . S
H718 C725 0.950 . S
C719 C717 1.387 . S
C719 C721 1.390 . S
C719 H723 0.950 . S
H720 C716 0.950 . S
C721 C719 1.390 . S
C721 C722 1.387 . S
C721 H724 0.950 . S
C722 C721 1.387 . S
C722 C725 1.387 . S
H723 C719 0.950 . S
H724 C721 0.950 . S
C725 C716 1.390 . S
C725 H718 0.950 . S
C725 C722 1.387 . S
C726 C727 1.387 . S
C726 H730 0.950 . S
C726 C735 1.390 . S
C727 C726 1.387 . S
C727 C729 1.387 . S
H728 C735 0.950 . S
C729 C727 1.387 . S
C729 C731 1.390 . S
C729 H733 0.950 . S
H730 C726 0.950 . S
C731 C729 1.390 . S
C731 C732 1.387 . S
C731 H734 0.950 . S
C732 C731 1.387 . S
C732 C735 1.387 . S
H733 C729 0.950 . S
H734 C731 0.950 . S
C735 C726 1.390 . S
C735 H728 0.950 . S
C735 C732 1.387 . S
C736 C737 1.387 . S
C736 H740 0.950 . S
C736 C745 1.390 . S
C737 C736 1.387 . S
C737 C739 1.387 . S
H738 C745 0.950 . S
C739 C737 1.387 . S
C739 C741 1.390 . S
C739 H743 0.950 . S
H740 C736 0.950 . S
C741 C739 1.390 . S
C741 C742 1.387 . S
C741 H744 0.950 . S
C742 C741 1.387 . S
C742 C745 1.387 . S
H743 C739 0.950 . S
H744 C741 0.950 . S
C745 C736 1.390 . S
C745 H738 0.950 . S
C745 C742 1.387 . S
C746 C747 1.387 . S
C746 H750 0.950 . S
C746 C755 1.390 . S
C747 C746 1.387 . S
C747 C749 1.387 . S
H748 C755 0.950 . S
C749 C747 1.387 . S
C749 C751 1.390 . S
C749 H753 0.950 . S
H750 C746 0.950 . S
C751 C749 1.390 . S
C751 C752 1.387 . S
C751 H754 0.950 . S
C752 C751 1.387 . S
C752 C755 1.387 . S
H753 C749 0.950 . S
H754 C751 0.950 . S
C755 C746 1.390 . S
C755 H748 0.950 . S
C755 C752 1.387 . S
C756 C757 1.387 . S
C756 H760 0.950 . S
C756 C765 1.390 . S
C757 C756 1.387 . S
C757 C759 1.387 . S
H758 C765 0.950 . S
C759 C757 1.387 . S
C759 C761 1.390 . S
C759 H763 0.950 . S
H760 C756 0.950 . S
C761 C759 1.390 . S
C761 C762 1.387 . S
C761 H764 0.950 . S
C762 C761 1.387 . S
C762 C765 1.387 . S
H763 C759 0.950 . S
H764 C761 0.950 . S
C765 C756 1.390 . S
C765 H758 0.950 . S
C765 C762 1.387 . S
C766 C767 1.387 . S
C766 H770 0.950 . S
C766 C775 1.390 . S
C767 C766 1.387 . S
C767 C769 1.387 . S
H768 C775 0.950 . S
C769 C767 1.387 . S
C769 C771 1.390 . S
C769 H773 0.950 . S
H770 C766 0.950 . S
C771 C769 1.390 . S
C771 C772 1.387 . S
C771 H774 0.950 . S
C772 C771 1.387 . S
C772 C775 1.387 . S
H773 C769 0.950 . S
H774 C771 0.950 . S
C775 C766 1.390 . S
C775 H768 0.950 . S
C775 C772 1.387 . S
C776 C777 1.387 . S
C776 H780 0.950 . S
C776 C785 1.390 . S
C777 C776 1.387 . S
C777 C779 1.387 . S
H778 C785 0.950 . S
C779 C777 1.387 . S
C779 C781 1.390 . S
C779 H783 0.950 . S
H780 C776 0.950 . S
C781 C779 1.390 . S
C781 C782 1.387 . S
C781 H784 0.950 . S
C782 C781 1.387 . S
C782 C785 1.387 . S
H783 C779 0.950 . S
H784 C781 0.950 . S
C785 C776 1.390 . S
C785 H778 0.950 . S
C785 C782 1.387 . S
C786 C787 1.387 . S
C786 H790 0.950 . S
C786 C795 1.390 . S
C787 C786 1.387 . S
C787 C789 1.387 . S
H788 C795 0.950 . S
C789 C787 1.387 . S
C789 C791 1.390 . S
C789 H793 0.950 . S
H790 C786 0.950 . S
C791 C789 1.390 . S
C791 C792 1.387 . S
C791 H794 0.950 . S
C792 C791 1.387 . S
C792 C795 1.387 . S
H793 C789 0.950 . S
H794 C791 0.950 . S
C795 C786 1.390 . S
C795 H788 0.950 . S
C795 C792 1.387 . S
C796 C797 1.387 . S
C796 H800 0.950 . S
C796 C805 1.390 . S
C797 C796 1.387 . S
C797 C799 1.387 . S
H798 C805 0.950 . S
C799 C797 1.387 . S
C799 C801 1.390 . S
C799 H803 0.950 . S
H800 C796 0.950 . S
C801 C799 1.390 . S
C801 C802 1.387 . S
C801 H804 0.950 . S
C802 C801 1.387 . S
C802 C805 1.387 . S
H803 C799 0.950 . S
H804 C801 0.950 . S
C805 C796 1.390 . S
C805 H798 0.950 . S
C805 C802 1.387 . S
C806 C807 1.387 . S
C806 H810 0.950 . S
C806 C815 1.390 . S
C807 C806 1.387 . S
C807 C809 1.387 . S
H808 C815 0.950 . S
C809 C807 1.387 . S
C809 C811 1.390 . S
C809 H813 0.950 . S
H810 C806 0.950 . S
C811 C809 1.390 . S
C811 C812 1.387 . S
C811 H814 0.950 . S
C812 C811 1.387 . S
C812 C815 1.387 . S
H813 C809 0.950 . S
H814 C811 0.950 . S
C815 C806 1.390 . S
C815 H808 0.950 . S
C815 C812 1.387 . S
C816 C817 1.387 . S
C816 H820 0.950 . S
C816 C825 1.390 1_545 S
C817 C816 1.387 . S
C817 C819 1.387 . S
H818 C825 0.950 . S
C819 C817 1.387 . S
C819 C821 1.390 1_545 S
C819 H823 0.950 . S
H820 C816 0.950 . S
C821 C819 1.390 1_565 S
C821 C822 1.387 . S
C821 H824 0.950 . S
C822 C821 1.387 . S
C822 C825 1.387 . S
H823 C819 0.950 . S
H824 C821 0.950 . S
C825 C816 1.390 1_565 S
C825 H818 0.950 . S
C825 C822 1.387 . S
C826 C827 1.387 . S
C826 H830 0.950 . S
C826 C835 1.390 1_655 S
C827 C826 1.387 . S
C827 C829 1.387 . S
H828 C835 0.950 . S
C829 C827 1.387 . S
C829 C831 1.390 1_655 S
C829 H833 0.950 . S
H830 C826 0.950 . S
C831 C829 1.390 1_455 S
C831 C832 1.387 . S
C831 H834 0.950 . S
C832 C831 1.387 . S
C832 C835 1.387 . S
H833 C829 0.950 . S
H834 C831 0.950 . S
C835 C826 1.390 1_455 S
C835 H828 0.950 . S
C835 C832 1.387 . S
C836 C837 1.387 . S
C836 H840 0.950 . S
C836 C845 1.390 1_545 S
C837 C836 1.387 . S
C837 C839 1.387 . S
H838 C845 0.950 . S
C839 C837 1.387 . S
C839 C841 1.390 1_545 S
C839 H843 0.950 . S
H840 C836 0.950 . S
C841 C839 1.390 1_565 S
C841 C842 1.387 . S
C841 H844 0.950 . S
C842 C841 1.387 . S
C842 C845 1.387 . S
H843 C839 0.950 . S
H844 C841 0.950 . S
C845 C836 1.390 1_565 S
C845 H838 0.950 . S
C845 C842 1.387 . S
C846 C847 1.387 . S
C846 H850 0.950 . S
C846 C855 1.390 1_455 S
C847 C846 1.387 . S
C847 C849 1.387 . S
H848 C855 0.950 . S
C849 C847 1.387 . S
C849 C851 1.390 1_455 S
C849 H853 0.950 . S
H850 C846 0.950 . S
C851 C849 1.390 1_655 S
C851 C852 1.387 . S
C851 H854 0.950 . S
C852 C851 1.387 . S
C852 C855 1.387 . S
H853 C849 0.950 . S
H854 C851 0.950 . S
C855 C846 1.390 1_655 S
C855 H848 0.950 . S
C855 C852 1.387 . S
C856 C857 1.387 . S
C856 H860 0.950 . S
C856 C865 1.390 1_545 S
C857 C856 1.387 . S
C857 C859 1.387 . S
H858 C865 0.950 . S
C859 C857 1.387 . S
C859 C861 1.390 1_545 S
C859 H863 0.950 . S
H860 C856 0.950 . S
C861 C859 1.390 1_565 S
C861 C862 1.387 . S
C861 H864 0.950 . S
C862 C861 1.387 . S
C862 C865 1.387 . S
H863 C859 0.950 . S
H864 C861 0.950 . S
C865 C856 1.390 1_565 S
C865 H858 0.950 . S
C865 C862 1.387 . S
C866 C867 1.387 . S
C866 H870 0.950 . S
C866 C875 1.390 1_655 S
C867 C866 1.387 . S
C867 C869 1.387 . S
H868 C875 0.950 . S
C869 C867 1.387 . S
C869 C871 1.390 1_655 S
C869 H873 0.950 . S
H870 C866 0.950 . S
C871 C869 1.390 1_455 S
C871 C872 1.387 . S
C871 H874 0.950 . S
C872 C871 1.387 . S
C872 C875 1.387 . S
H873 C869 0.950 . S
H874 C871 0.950 . S
C875 C866 1.390 1_455 S
C875 H868 0.950 . S
C875 C872 1.387 . S
C876 C877 1.387 . S
C876 H880 0.950 . S
C876 C885 1.390 1_565 S
C877 C876 1.387 . S
C877 C879 1.387 . S
H878 C885 0.950 . S
C879 C877 1.387 . S
C879 C881 1.390 1_565 S
C879 H883 0.950 . S
H880 C876 0.950 . S
C881 C879 1.390 1_545 S
C881 C882 1.387 . S
C881 H884 0.950 . S
C882 C881 1.387 . S
C882 C885 1.387 . S
H883 C879 0.950 . S
H884 C881 0.950 . S
C885 C876 1.390 1_545 S
C885 H878 0.950 . S
C885 C882 1.387 . S
C886 C887 1.387 . S
C886 H890 0.950 . S
C886 C895 1.390 1_455 S
C887 C886 1.387 . S
C887 C889 1.387 . S
H888 C895 0.950 . S
C889 C887 1.387 . S
C889 C891 1.390 1_455 S
C889 H893 0.950 . S
H890 C886 0.950 . S
C891 C889 1.390 1_655 S
C891 C892 1.387 . S
C891 H894 0.950 . S
C892 C891 1.387 . S
C892 C895 1.387 . S
H893 C889 0.950 . S
H894 C891 0.950 . S
C895 C886 1.390 1_655 S
C895 H888 0.950 . S
C895 C892 1.387 . S
C577 C184 1.443 . S
C582 C4 1.443 . S
C587 C220 1.443 . S
C592 C40 1.443 . S
C597 C76 1.443 . S
C602 C256 1.443 . S
C607 C112 1.443 . S
C612 C148 1.443 . S
C617 C472 1.443 . S
C622 C292 1.443 . S
C627 C508 1.443 . S
C632 C328 1.443 . S
C637 C364 1.443 . S
C642 C544 1.443 . S
C647 C400 1.443 . S
C652 C436 1.443 . S
C657 C374 1.493 . S
C662 C14 1.492 . S
C667 C410 1.492 . S
C672 C50 1.492 . S
C677 C302 1.494 . S
C682 C86 1.492 . S
C687 C122 1.492 . S
C692 C338 1.492 . S
C697 C518 1.493 . S
C702 C158 1.494 . S
C707 C554 1.492 . S
C712 C194 1.492 . S
C717 C230 1.494 . S
C722 C446 1.493 . S
C727 C482 1.492 . S
C732 C266 1.491 . S
C737 C146 1.227 . S
C742 C2 1.227 . S
C747 C38 1.227 . S
C752 C182 1.227 . S
C757 C74 1.226 . S
C762 C218 1.226 . S
C767 C254 1.226 . S
C772 C110 1.226 . S
C777 C291 1.656 . S
C782 C435 1.656 . S
C787 C471 1.657 . S
C792 C327 1.657 . S
C797 C363 1.656 . S
C802 C507 1.656 . S
C807 C543 1.656 . S
C812 C399 1.656 . S
C817 C398 1.226 . S
C822 C470 1.226 . S
C827 C290 1.227 . S
C832 C506 1.227 . S
C837 C542 1.227 . S
C842 C326 1.227 . S
C847 C362 1.227 . S
C852 C434 1.227 . S
C857 C183 1.656 . S
C862 C111 1.656 . S
C867 C219 1.657 . S
C872 C3 1.657 . S
C877 C255 1.656 . S
C882 C39 1.656 . S
C887 C147 1.656 . S
C892 C75 1.656 . S
