# Generated by pormake.
# Topology unm, (4)-cn, num edge types: 1
# Building blocks:
#     Node 0, Type 0, BuildingBlock: QUQFOY_clean_sbu_3, # of connection points: 4
#     Node 1, Type 0, BuildingBlock: QUQFOY_clean_sbu_3, # of connection points: 4
#     Node 2, Type 0, BuildingBlock: QUQFOY_clean_sbu_3, # of connection points: 4
#     Node 3, Type 0, BuildingBlock: QUQFOY_clean_sbu_3, # of connection points: 4
#     Node 4, Type 0, BuildingBlock: QUQFOY_clean_sbu_3, # of connection points: 4
#     Node 5, Type 0, BuildingBlock: QUQFOY_clean_sbu_3, # of connection points: 4
#     Node 6, Type 0, BuildingBlock: QUQFOY_clean_sbu_3, # of connection points: 4
#     Node 7, Type 0, BuildingBlock: QUQFOY_clean_sbu_3, # of connection points: 4
#     Edge 8, Type (0, 0), BuildingBlock: AJUNOK_clean_linker_0, # of connection points: 2
#     Edge 9, Type (0, 0), BuildingBlock: AJUNOK_clean_linker_0, # of connection points: 2
#     Edge 10, Type (0, 0), BuildingBlock: AJUNOK_clean_linker_0, # of connection points: 2
#     Edge 11, Type (0, 0), BuildingBlock: AJUNOK_clean_linker_0, # of connection points: 2
#     Edge 12, Type (0, 0), BuildingBlock: AJUNOK_clean_linker_0, # of connection points: 2
#     Edge 13, Type (0, 0), BuildingBlock: AJUNOK_clean_linker_0, # of connection points: 2
#     Edge 14, Type (0, 0), BuildingBlock: AJUNOK_clean_linker_0, # of connection points: 2
#     Edge 15, Type (0, 0), BuildingBlock: AJUNOK_clean_linker_0, # of connection points: 2
#     Edge 16, Type (0, 0), BuildingBlock: AJUNOK_clean_linker_0, # of connection points: 2
#     Edge 17, Type (0, 0), BuildingBlock: AJUNOK_clean_linker_0, # of connection points: 2
#     Edge 18, Type (0, 0), BuildingBlock: AJUNOK_clean_linker_0, # of connection points: 2
#     Edge 19, Type (0, 0), BuildingBlock: AJUNOK_clean_linker_0, # of connection points: 2
#     Edge 20, Type (0, 0), BuildingBlock: AJUNOK_clean_linker_0, # of connection points: 2
#     Edge 21, Type (0, 0), BuildingBlock: AJUNOK_clean_linker_0, # of connection points: 2
#     Edge 22, Type (0, 0), BuildingBlock: AJUNOK_clean_linker_0, # of connection points: 2
#     Edge 23, Type (0, 0), BuildingBlock: AJUNOK_clean_linker_0, # of connection points: 2
# Relax obj value: 0.175
# Max RMSD: 0.147
# Mean RMSD: 0.147
data_MOF--net-unm--node1-QUQFOY_clean_sbu_3--edge1-AJUNOK_clean_linker_0
_symmetry_space_group_name_H-M    P1
_symmetry_Int_Tables_number       1
_symmetry_cell_setting            triclinic
loop_
_symmetry_equiv_pos_as_xyz
'x, y, z'
_cell_length_a     19.697273
_cell_length_b     19.660038
_cell_length_c     35.213883
_cell_angle_alpha  89.840911
_cell_angle_beta   89.395404
_cell_angle_gamma 89.765093
loop_
_atom_site_label
_atom_site_type_symbol
_atom_site_fract_x
_atom_site_fract_y
_atom_site_fract_z
_atom_type_partial_charge
C0 C 0.02934 0.16826 0.16426 0.0
O1 O 0.01302 0.14569 0.13185 0.0
Cd2 Cd 0.06376 0.18221 0.07283 0.0
O3 O 0.08274 0.20395 0.16825 0.0
Cd4 Cd 0.18038 0.24655 0.12941 0.0
C5 C 0.05923 0.35208 0.09598 0.0
O6 O 0.18328 0.174 0.07361 0.0
O7 O 0.22777 0.27349 0.06735 0.0
O8 O 0.27718 0.20397 0.1655 0.0
C9 C 0.21245 0.21726 0.05217 0.0
O10 O 0.03919 0.30384 0.07479 0.0
C11 C 0.29882 0.2624 0.17487 0.0
O12 O 0.10649 0.34373 0.12003 0.0
O13 O 0.26388 0.31342 0.16429 0.0
C14 C 0.29366 0.52403 0.66242 0.0
O15 O 0.32427 0.50951 0.63155 0.0
Cd16 Cd 0.29063 0.55905 0.57203 0.0
O17 O 0.25557 0.57654 0.66452 0.0
Cd18 Cd 0.21679 0.67553 0.62607 0.0
C19 C 0.11882 0.55094 0.5917 0.0
O20 O 0.29115 0.67977 0.57042 0.0
O21 O 0.19059 0.72318 0.56514 0.0
O22 O 0.2574 0.77188 0.6628 0.0
C23 C 0.24692 0.70817 0.54947 0.0
O24 O 0.17119 0.52862 0.57413 0.0
C25 C 0.19874 0.79317 0.67266 0.0
O26 O 0.12108 0.60304 0.61312 0.0
O27 O 0.14828 0.75817 0.66201 0.0
C28 C 0.94913 0.79455 0.15641 0.0
O29 O 0.9645 0.81564 0.1233 0.0
Cd30 Cd 0.90948 0.77588 0.06664 0.0
O31 O 0.8955 0.75974 0.16212 0.0
Cd32 Cd 0.79614 0.71649 0.12694 0.0
C33 C 0.9151 0.60789 0.09392 0.0
O34 O 0.78974 0.78601 0.06977 0.0
O35 O 0.74624 0.68562 0.06705 0.0
O36 O 0.70571 0.76339 0.16708 0.0
C37 C 0.75919 0.74134 0.05034 0.0
O38 O 0.93389 0.65421 0.07073 0.0
C39 C 0.68034 0.70611 0.17616 0.0
O40 O 0.86925 0.61843 0.11905 0.0
O41 O 0.71049 0.65359 0.16327 0.0
C42 C 0.68681 0.45464 0.65838 0.0
O43 O 0.65924 0.46712 0.62664 0.0
Cd44 Cd 0.69208 0.41031 0.56915 0.0
O45 O 0.72296 0.40121 0.66301 0.0
Cd46 Cd 0.75747 0.29489 0.62842 0.0
C47 C 0.86366 0.40953 0.58963 0.0
O48 O 0.67873 0.29123 0.57559 0.0
O49 O 0.77161 0.23421 0.56925 0.0
O50 O 0.71903 0.21895 0.67942 0.0
C51 C 0.71682 0.25476 0.55452 0.0
O52 O 0.81368 0.43322 0.57097 0.0
C53 C 0.77425 0.18517 0.68083 0.0
O54 O 0.8568 0.36042 0.61299 0.0
O55 O 0.8219 0.20316 0.65846 0.0
C56 C 0.52747 0.2849 0.27661 0.0
O57 O 0.51056 0.31165 0.30814 0.0
Cd58 Cd 0.55884 0.2774 0.36761 0.0
O59 O 0.58136 0.24888 0.27381 0.0
Cd60 Cd 0.67937 0.20977 0.31286 0.0
C61 C 0.55733 0.106 0.34667 0.0
O62 O 0.67893 0.28412 0.36813 0.0
O63 O 0.72524 0.18517 0.37464 0.0
O64 O 0.77707 0.24881 0.27522 0.0
C65 C 0.70793 0.24119 0.38971 0.0
O66 O 0.53287 0.15646 0.365 0.0
C67 C 0.79819 0.18944 0.26666 0.0
O68 O 0.60899 0.11204 0.32487 0.0
O69 O 0.76308 0.13977 0.27889 0.0
C70 C 0.17415 0.02226 0.77553 0.0
O71 O 0.14896 0.00558 0.80757 0.0
Cd72 Cd 0.18098 0.05744 0.86673 0.0
O73 O 0.20899 0.07647 0.77201 0.0
Cd74 Cd 0.24956 0.17369 0.81035 0.0
C75 C 0.35095 0.04964 0.84482 0.0
O76 O 0.1763 0.17786 0.86641 0.0
O77 O 0.27657 0.22077 0.87153 0.0
O78 O 0.20828 0.26991 0.77309 0.0
C79 C 0.22016 0.20646 0.88723 0.0
O80 O 0.30155 0.03047 0.86587 0.0
C81 C 0.26684 0.29201 0.76389 0.0
O82 O 0.34462 0.09745 0.82054 0.0
O83 O 0.31756 0.25743 0.77511 0.0
C84 C 0.44347 0.68029 0.27505 0.0
O85 O 0.45465 0.64589 0.30493 0.0
Cd86 Cd 0.40306 0.67965 0.36405 0.0
O87 O 0.39209 0.71981 0.27302 0.0
Cd88 Cd 0.28852 0.75585 0.30899 0.0
C89 C 0.41189 0.85255 0.34467 0.0
O90 O 0.28294 0.67892 0.36279 0.0
O91 O 0.23653 0.77776 0.37005 0.0
O92 O 0.19679 0.71677 0.26855 0.0
C93 C 0.25297 0.72106 0.38466 0.0
O94 O 0.43378 0.79959 0.36166 0.0
C95 C 0.1759 0.77603 0.25967 0.0
O96 O 0.35983 0.85119 0.32352 0.0
O97 O 0.20852 0.82606 0.27303 0.0
C98 C 0.79088 0.96081 0.78772 0.0
O99 O 0.79729 0.97441 0.82275 0.0
Cd100 Cd 0.77047 0.90783 0.87801 0.0
O101 O 0.76964 0.90276 0.77692 0.0
Cd102 Cd 0.72446 0.79917 0.80995 0.0
C103 C 0.60649 0.90586 0.84925 0.0
O104 O 0.79231 0.79163 0.86686 0.0
O105 O 0.69722 0.73842 0.86839 0.0
O106 O 0.76746 0.70706 0.76918 0.0
C107 C 0.75094 0.75481 0.88551 0.0
O108 O 0.64814 0.9215 0.87523 0.0
C109 C 0.70894 0.68729 0.75899 0.0
O110 O 0.62356 0.86763 0.82154 0.0
O111 O 0.6584 0.72128 0.77135 0.0
C112 C 0.25627 0.25444 -0.01105 0.0
C113 C 0.21424 0.21074 0.01027 0.0
C114 C 0.25639 0.25351 0.94924 0.0
C115 C 0.21366 0.20961 0.92911 0.0
H116 H 0.28968 0.28977 0.00304 0.0
H117 H 0.29043 0.28758 0.93418 0.0
S118 S 0.09312 0.08529 -0.02866 0.0
N119 N 0.1288 0.12175 0.00826 0.0
N120 N 0.12761 0.12145 0.93346 0.0
C121 C 0.17068 0.16604 0.94997 0.0
C122 C 0.17151 0.16604 -0.00942 0.0
C123 C 0.21047 0.75618 0.48768 0.0
C124 C 0.25313 0.71143 0.50762 0.0
C125 C 0.20986 0.75735 0.44802 0.0
C126 C 0.25124 0.7132 0.42649 0.0
H127 H 0.17701 0.79081 0.50286 0.0
H128 H 0.17656 0.79345 0.43413 0.0
S129 S 0.37127 0.58483 0.46491 0.0
N130 N 0.33786 0.62141 0.50295 0.0
N131 N 0.33555 0.62239 0.42814 0.0
C132 C 0.29373 0.66745 0.44599 0.0
C133 C 0.29519 0.66709 0.4866 0.0
C134 C 0.79666 0.79088 -0.01199 0.0
C135 C 0.75442 0.74607 0.00851 0.0
C136 C 0.79697 0.79185 0.94818 0.0
C137 C 0.75439 0.74866 0.92738 0.0
H138 H 0.83068 0.82467 0.00278 0.0
H139 H 0.83008 0.8275 0.93366 0.0
S140 S 0.63374 0.62231 0.96762 0.0
N141 N 0.66875 0.65761 0.00507 0.0
N142 N 0.66896 0.65973 0.93036 0.0
C143 C 0.71179 0.70378 0.94758 0.0
C144 C 0.71182 0.70247 -0.01193 0.0
C145 C 0.75037 0.2037 0.45261 0.0
C146 C 0.70907 0.24812 0.43158 0.0
C147 C 0.75044 0.20505 0.49227 0.0
C148 C 0.70883 0.25053 0.51278 0.0
H149 H 0.78336 0.16746 0.43833 0.0
H150 H 0.78407 0.1703 0.50695 0.0
S151 S 0.58906 0.37607 0.47139 0.0
N152 N 0.62421 0.33834 0.4342 0.0
N153 N 0.62353 0.34016 0.50904 0.0
C154 C 0.66618 0.29459 0.49223 0.0
C155 C 0.66673 0.29377 0.45158 0.0
C156 C 0.36961 0.32848 0.22046 0.0
C157 C 0.36142 0.27075 0.19745 0.0
C158 C 0.42577 0.3348 0.24442 0.0
C159 C 0.47677 0.28441 0.24564 0.0
H160 H 0.33094 0.36782 0.22119 0.0
H161 H 0.42813 0.37849 0.26304 0.0
S162 S 0.48277 0.12684 0.18764 0.0
N163 N 0.4114 0.1647 0.1752 0.0
N164 N 0.51746 0.17701 0.21948 0.0
C165 C 0.47111 0.22839 0.221 0.0
C166 C 0.41327 0.22136 0.19718 0.0
C167 C 0.13204 0.86362 0.71929 0.0
C168 C 0.18964 0.85566 0.69569 0.0
C169 C 0.12527 0.91981 0.74362 0.0
C170 C 0.17499 0.97104 0.74458 0.0
H171 H 0.09321 0.82476 0.72014 0.0
H172 H 0.08175 0.92208 0.76266 0.0
S173 S 0.33218 0.97737 0.68536 0.0
N174 N 0.29498 0.9059 0.67285 0.0
N175 N 0.28181 0.01197 0.71776 0.0
C176 C 0.23092 0.9655 0.71945 0.0
C177 C 0.23843 0.90766 0.69529 0.0
C178 C 0.53727 0.62928 0.23573 0.0
C179 C 0.49868 0.68642 0.24651 0.0
C180 C 0.59531 0.63606 0.21253 0.0
C181 C 0.61792 0.70043 0.20006 0.0
H182 H 0.52293 0.5791 0.24567 0.0
H183 H 0.62336 0.59049 0.20496 0.0
S184 S 0.53654 0.86648 0.22275 0.0
N185 N 0.48786 0.80956 0.24405 0.0
N186 N 0.59725 0.82263 0.20119 0.0
C187 C 0.57969 0.75802 0.21088 0.0
C188 C 0.52002 0.75092 0.2339 0.0
C189 C 0.75671 0.13382 0.7448 0.0
C190 C 0.78279 0.12807 0.70772 0.0
C191 C 0.7628 0.0802 0.7708 0.0
C192 C 0.79336 0.01798 0.76038 0.0
H193 H 0.73152 0.18022 0.75384 0.0
H194 H 0.74105 0.08675 0.79896 0.0
S195 S 0.86946 0.97703 0.66653 0.0
N196 N 0.84184 0.05611 0.66192 0.0
N197 N 0.85012 0.95377 0.71046 0.0
C198 C 0.81961 0.01144 0.72337 0.0
C199 C 0.81526 0.06696 0.69714 0.0
C200 C 0.90865 0.23179 0.24034 0.0
C201 C 0.86087 0.17903 0.24354 0.0
C202 C 0.96629 0.2254 0.2169 0.0
C203 C 0.97776 0.16647 0.19512 0.0
H204 H 0.9009 0.2791 0.25552 0.0
H205 H -7e-05 0.26863 0.21415 0.0
S206 S 0.87183 0.01106 0.19571 0.0
N207 N 0.83209 0.06339 0.22518 0.0
N208 N 0.93943 0.05253 0.18017 0.0
C209 C 0.93205 0.11221 0.19919 0.0
C210 C 0.87391 0.11815 0.22365 0.0
C211 C 0.34255 0.42213 0.69556 0.0
C212 C 0.29115 0.47192 0.69307 0.0
C213 C 0.33526 0.3652 0.71944 0.0
C214 C 0.27565 0.35503 0.74108 0.0
H215 H 0.38795 0.42614 0.67809 0.0
H216 H 0.37563 0.32758 0.7198 0.0
S217 S 0.12774 0.47224 0.74683 0.0
N218 N 0.18014 0.509 0.71628 0.0
N219 N 0.1662 0.40165 0.7604 0.0
C220 C 0.22494 0.40554 0.73992 0.0
C221 C 0.23284 0.46409 0.71619 0.0
C222 C 0.06624 0.73427 0.2339 0.0
C223 C 0.11544 0.78577 0.23548 0.0
C224 C 0.00988 0.74015 0.21018 0.0
C225 C 0.00119 0.79713 0.1864 0.0
H226 H 0.07163 0.68851 0.25084 0.0
H227 H 0.97476 0.69795 0.20905 0.0
S228 S 0.11291 0.94829 0.18151 0.0
N229 N 0.1494 0.89791 0.21299 0.0
N230 N 0.04446 0.90772 0.16731 0.0
C231 C 0.04881 0.85 0.18848 0.0
C232 C 0.10561 0.84468 0.21331 0.0
C233 C 0.74593 0.51997 0.70884 0.0
C234 C 0.68696 0.50888 0.68753 0.0
C235 C 0.75254 0.5778 0.73174 0.0
C236 C 0.69997 0.62624 0.73481 0.0
H237 H 0.78869 0.48531 0.70651 0.0
H238 H 0.79948 0.58472 0.74698 0.0
S239 S 0.53291 0.61801 0.68708 0.0
N240 N 0.57378 0.54937 0.67227 0.0
N241 N 0.58526 0.65713 0.71604 0.0
C242 C 0.63958 0.6143 0.71485 0.0
C243 C 0.63333 0.55593 0.69103 0.0
C244 C 0.96994 0.51217 0.12793 0.0
C245 C 0.95067 0.54225 0.09344 0.0
C246 C 0.00672 0.45124 0.12839 0.0
C247 C 0.02371 0.41769 0.09441 0.0
H248 H 0.95761 0.53655 0.1547 0.0
H249 H 0.02082 0.42957 0.15553 0.0
S250 S 0.98395 0.47507 -0.00322 0.0
N251 N 0.95132 0.53469 0.02456 0.0
N252 N 0.01846 0.41831 0.02547 0.0
C253 C 0.00404 0.44678 0.05976 0.0
C254 C 0.96806 0.50971 0.05926 0.0
C255 C 0.93153 0.51517 0.58474 0.0
C256 C 0.92946 0.44379 0.58675 0.0
C257 C -0.00667 0.54971 0.58612 0.0
C258 C 0.05485 0.51377 0.5885 0.0
H259 H 0.88497 0.54461 0.58353 0.0
H260 H -0.00701 0.60482 0.58547 0.0
S261 S 0.07669 0.32651 0.59281 0.0
N262 N -0.00624 0.33826 0.59046 0.0
N263 N 0.11047 0.40326 0.59185 0.0
C264 C 0.05362 0.44236 0.58928 0.0
C265 C -0.00935 0.40728 0.58876 0.0
C266 C 0.45102 0.03928 0.35279 0.0
C267 C 0.52212 0.04041 0.34874 0.0
C268 C 0.41548 0.97795 0.35173 0.0
C269 C 0.45015 0.9159 0.34765 0.0
H270 H 0.42242 0.08624 0.35555 0.0
H271 H 0.36059 0.97906 0.35405 0.0
S272 S 0.63598 0.89114 0.33689 0.0
N273 N 0.62594 0.97427 0.34083 0.0
N274 N 0.55896 0.85856 0.33987 0.0
C275 C 0.52124 0.91606 0.34451 0.0
C276 C 0.55734 0.97854 0.34476 0.0
C277 C 0.452 -0.00158 0.8134 0.0
C278 C 0.41561 0.01267 0.84697 0.0
C279 C 0.51264 0.96139 0.81438 0.0
C280 C 0.53956 0.93888 0.84903 0.0
H281 H 0.43306 0.01526 0.78615 0.0
H282 H 0.53955 0.95197 0.7879 0.0
S283 S 0.46343 0.96306 0.94477 0.0
N284 N 0.40969 0.00066 0.91567 0.0
N285 N 0.52532 0.93271 0.91761 0.0
C286 C 0.50371 0.95282 0.8828 0.0
C287 C 0.44116 -0.01074 0.88173 0.0
loop_
_geom_bond_atom_site_label_1
_geom_bond_atom_site_label_2
_geom_bond_distance
_geom_bond_site_symmetry_2
_ccdc_geom_bond_type
C0 O1 1.306 . S
C0 O3 1.160 . S
O1 C0 1.306 . S
O1 Cd2 2.228 . S
Cd2 O1 2.228 . S
Cd2 O6 2.273 . S
Cd2 O10 2.277 . S
O3 C0 1.160 . S
O3 Cd4 2.203 . S
Cd4 O3 2.203 . S
Cd4 O6 2.411 . S
Cd4 O7 2.333 . S
Cd4 O8 2.352 . S
Cd4 O12 2.277 . S
Cd4 O13 2.356 . S
C5 O10 1.209 . S
C5 O12 1.226 . S
O6 Cd2 2.273 . S
O6 Cd4 2.411 . S
O6 C9 1.320 . S
O7 Cd4 2.333 . S
O7 C9 1.214 . S
O8 Cd4 2.352 . S
O8 C11 1.258 . S
C9 O6 1.320 . S
C9 O7 1.214 . S
O10 Cd2 2.277 . S
O10 C5 1.209 . S
C11 O8 1.258 . S
C11 O13 1.282 . S
O12 Cd4 2.277 . S
O12 C5 1.226 . S
O13 Cd4 2.356 . S
O13 C11 1.282 . S
C14 O15 1.306 . S
C14 O17 1.160 . S
O15 C14 1.306 . S
O15 Cd16 2.228 . S
Cd16 O15 2.228 . S
Cd16 O20 2.273 . S
Cd16 O24 2.277 . S
O17 C14 1.160 . S
O17 Cd18 2.203 . S
Cd18 O17 2.203 . S
Cd18 O20 2.411 . S
Cd18 O21 2.333 . S
Cd18 O22 2.352 . S
Cd18 O26 2.277 . S
Cd18 O27 2.356 . S
C19 O24 1.209 . S
C19 O26 1.226 . S
O20 Cd16 2.273 . S
O20 Cd18 2.411 . S
O20 C23 1.320 . S
O21 Cd18 2.333 . S
O21 C23 1.214 . S
O22 Cd18 2.352 . S
O22 C25 1.258 . S
C23 O20 1.320 . S
C23 O21 1.214 . S
O24 Cd16 2.277 . S
O24 C19 1.209 . S
C25 O22 1.258 . S
C25 O27 1.282 . S
O26 Cd18 2.277 . S
O26 C19 1.226 . S
O27 Cd18 2.356 . S
O27 C25 1.282 . S
C28 O29 1.306 . S
C28 O31 1.160 . S
O29 C28 1.306 . S
O29 Cd30 2.228 . S
Cd30 O29 2.228 . S
Cd30 O34 2.273 . S
Cd30 O38 2.277 . S
O31 C28 1.160 . S
O31 Cd32 2.203 . S
Cd32 O31 2.203 . S
Cd32 O34 2.411 . S
Cd32 O35 2.333 . S
Cd32 O36 2.352 . S
Cd32 O40 2.277 . S
Cd32 O41 2.356 . S
C33 O38 1.209 . S
C33 O40 1.226 . S
O34 Cd30 2.273 . S
O34 Cd32 2.411 . S
O34 C37 1.320 . S
O35 Cd32 2.333 . S
O35 C37 1.214 . S
O36 Cd32 2.352 . S
O36 C39 1.258 . S
C37 O34 1.320 . S
C37 O35 1.214 . S
O38 Cd30 2.277 . S
O38 C33 1.209 . S
C39 O36 1.258 . S
C39 O41 1.282 . S
O40 Cd32 2.277 . S
O40 C33 1.226 . S
O41 Cd32 2.356 . S
O41 C39 1.282 . S
C42 O43 1.306 . S
C42 O45 1.160 . S
O43 C42 1.306 . S
O43 Cd44 2.228 . S
Cd44 O43 2.228 . S
Cd44 O48 2.273 . S
Cd44 O52 2.277 . S
O45 C42 1.160 . S
O45 Cd46 2.203 . S
Cd46 O45 2.203 . S
Cd46 O48 2.411 . S
Cd46 O49 2.333 . S
Cd46 O50 2.352 . S
Cd46 O54 2.277 . S
Cd46 O55 2.356 . S
C47 O52 1.209 . S
C47 O54 1.226 . S
O48 Cd44 2.273 . S
O48 Cd46 2.411 . S
O48 C51 1.320 . S
O49 Cd46 2.333 . S
O49 C51 1.214 . S
O50 Cd46 2.352 . S
O50 C53 1.258 . S
C51 O48 1.320 . S
C51 O49 1.214 . S
O52 Cd44 2.277 . S
O52 C47 1.209 . S
C53 O50 1.258 . S
C53 O55 1.282 . S
O54 Cd46 2.277 . S
O54 C47 1.226 . S
O55 Cd46 2.356 . S
O55 C53 1.282 . S
C56 O57 1.306 . S
C56 O59 1.160 . S
O57 C56 1.306 . S
O57 Cd58 2.228 . S
Cd58 O57 2.228 . S
Cd58 O62 2.273 . S
Cd58 O66 2.277 . S
O59 C56 1.160 . S
O59 Cd60 2.203 . S
Cd60 O59 2.203 . S
Cd60 O62 2.411 . S
Cd60 O63 2.333 . S
Cd60 O64 2.352 . S
Cd60 O68 2.277 . S
Cd60 O69 2.356 . S
C61 O66 1.209 . S
C61 O68 1.226 . S
O62 Cd58 2.273 . S
O62 Cd60 2.411 . S
O62 C65 1.320 . S
O63 Cd60 2.333 . S
O63 C65 1.214 . S
O64 Cd60 2.352 . S
O64 C67 1.258 . S
C65 O62 1.320 . S
C65 O63 1.214 . S
O66 Cd58 2.277 . S
O66 C61 1.209 . S
C67 O64 1.258 . S
C67 O69 1.282 . S
O68 Cd60 2.277 . S
O68 C61 1.226 . S
O69 Cd60 2.356 . S
O69 C67 1.282 . S
C70 O71 1.306 . S
C70 O73 1.160 . S
O71 C70 1.306 . S
O71 Cd72 2.228 . S
Cd72 O71 2.228 . S
Cd72 O76 2.273 . S
Cd72 O80 2.277 . S
O73 C70 1.160 . S
O73 Cd74 2.203 . S
Cd74 O73 2.203 . S
Cd74 O76 2.411 . S
Cd74 O77 2.333 . S
Cd74 O78 2.352 . S
Cd74 O82 2.277 . S
Cd74 O83 2.356 . S
C75 O80 1.209 . S
C75 O82 1.226 . S
O76 Cd72 2.273 . S
O76 Cd74 2.411 . S
O76 C79 1.320 . S
O77 Cd74 2.333 . S
O77 C79 1.214 . S
O78 Cd74 2.352 . S
O78 C81 1.258 . S
C79 O76 1.320 . S
C79 O77 1.214 . S
O80 Cd72 2.277 . S
O80 C75 1.209 . S
C81 O78 1.258 . S
C81 O83 1.282 . S
O82 Cd74 2.277 . S
O82 C75 1.226 . S
O83 Cd74 2.356 . S
O83 C81 1.282 . S
C84 O85 1.306 . S
C84 O87 1.160 . S
O85 C84 1.306 . S
O85 Cd86 2.228 . S
Cd86 O85 2.228 . S
Cd86 O90 2.273 . S
Cd86 O94 2.277 . S
O87 C84 1.160 . S
O87 Cd88 2.203 . S
Cd88 O87 2.203 . S
Cd88 O90 2.411 . S
Cd88 O91 2.333 . S
Cd88 O92 2.352 . S
Cd88 O96 2.277 . S
Cd88 O97 2.356 . S
C89 O94 1.209 . S
C89 O96 1.226 . S
O90 Cd86 2.273 . S
O90 Cd88 2.411 . S
O90 C93 1.320 . S
O91 Cd88 2.333 . S
O91 C93 1.214 . S
O92 Cd88 2.352 . S
O92 C95 1.258 . S
C93 O90 1.320 . S
C93 O91 1.214 . S
O94 Cd86 2.277 . S
O94 C89 1.209 . S
C95 O92 1.258 . S
C95 O97 1.282 . S
O96 Cd88 2.277 . S
O96 C89 1.226 . S
O97 Cd88 2.356 . S
O97 C95 1.282 . S
C98 O99 1.306 . S
C98 O101 1.160 . S
O99 C98 1.306 . S
O99 Cd100 2.228 . S
Cd100 O99 2.228 . S
Cd100 O104 2.273 . S
Cd100 O108 2.277 . S
O101 C98 1.160 . S
O101 Cd102 2.203 . S
Cd102 O101 2.203 . S
Cd102 O104 2.411 . S
Cd102 O105 2.333 . S
Cd102 O106 2.352 . S
Cd102 O110 2.277 . S
Cd102 O111 2.356 . S
C103 O108 1.209 . S
C103 O110 1.226 . S
O104 Cd100 2.273 . S
O104 Cd102 2.411 . S
O104 C107 1.320 . S
O105 Cd102 2.333 . S
O105 C107 1.214 . S
O106 Cd102 2.352 . S
O106 C109 1.258 . S
C107 O104 1.320 . S
C107 O105 1.214 . S
O108 Cd100 2.277 . S
O108 C103 1.209 . S
C109 O106 1.258 . S
C109 O111 1.282 . S
O110 Cd102 2.277 . S
O110 C103 1.226 . S
O111 Cd102 2.356 . S
O111 C109 1.282 . S
C112 C113 1.369 . S
C112 C114 1.419 1_554 S
C112 H116 0.930 . S
C113 C112 1.369 . S
C113 C122 1.429 . S
C114 C112 1.419 1_556 S
C114 C115 1.363 . S
C114 H117 0.929 . S
C115 C114 1.363 . S
C115 C121 1.428 . S
H116 C112 0.930 . S
H117 C114 0.929 . S
S118 N119 1.613 . S
S118 N120 1.610 1_554 S
N119 S118 1.613 . S
N119 C122 1.350 . S
N120 S118 1.610 1_556 S
N120 C121 1.351 . S
C121 C115 1.428 . S
C121 N120 1.351 . S
C121 C122 1.434 1_556 S
C122 C113 1.429 . S
C122 N119 1.350 . S
C122 C121 1.434 1_554 S
C123 C124 1.369 . S
C123 C125 1.419 . S
C123 H127 0.930 . S
C124 C123 1.369 . S
C124 C133 1.429 . S
C125 C123 1.419 . S
C125 C126 1.363 . S
C125 H128 0.929 . S
C126 C125 1.363 . S
C126 C132 1.428 . S
H127 C123 0.930 . S
H128 C125 0.929 . S
S129 N130 1.613 . S
S129 N131 1.610 . S
N130 S129 1.613 . S
N130 C133 1.350 . S
N131 S129 1.610 . S
N131 C132 1.351 . S
C132 C126 1.428 . S
C132 N131 1.351 . S
C132 C133 1.434 . S
C133 C124 1.429 . S
C133 N130 1.350 . S
C133 C132 1.434 . S
C134 C135 1.369 . S
C134 C136 1.419 1_554 S
C134 H138 0.930 . S
C135 C134 1.369 . S
C135 C144 1.429 . S
C136 C134 1.419 1_556 S
C136 C137 1.363 . S
C136 H139 0.929 . S
C137 C136 1.363 . S
C137 C143 1.428 . S
H138 C134 0.930 . S
H139 C136 0.929 . S
S140 N141 1.613 1_556 S
S140 N142 1.610 . S
N141 S140 1.613 1_554 S
N141 C144 1.350 . S
N142 S140 1.610 . S
N142 C143 1.351 . S
C143 C137 1.428 . S
C143 N142 1.351 . S
C143 C144 1.434 1_556 S
C144 C135 1.429 . S
C144 N141 1.350 . S
C144 C143 1.434 1_554 S
C145 C146 1.369 . S
C145 C147 1.419 . S
C145 H149 0.930 . S
C146 C145 1.369 . S
C146 C155 1.429 . S
C147 C145 1.419 . S
C147 C148 1.363 . S
C147 H150 0.929 . S
C148 C147 1.363 . S
C148 C154 1.428 . S
H149 C145 0.930 . S
H150 C147 0.929 . S
S151 N152 1.613 . S
S151 N153 1.610 . S
N152 S151 1.613 . S
N152 C155 1.350 . S
N153 S151 1.610 . S
N153 C154 1.351 . S
C154 C148 1.428 . S
C154 N153 1.351 . S
C154 C155 1.434 . S
C155 C146 1.429 . S
C155 N152 1.350 . S
C155 C154 1.434 . S
C156 C157 1.369 . S
C156 C158 1.419 . S
C156 H160 0.930 . S
C157 C156 1.369 . S
C157 C166 1.429 . S
C158 C156 1.419 . S
C158 C159 1.363 . S
C158 H161 0.929 . S
C159 C158 1.363 . S
C159 C165 1.428 . S
H160 C156 0.930 . S
H161 C158 0.929 . S
S162 N163 1.613 . S
S162 N164 1.610 . S
N163 S162 1.613 . S
N163 C166 1.350 . S
N164 S162 1.610 . S
N164 C165 1.351 . S
C165 C159 1.428 . S
C165 N164 1.351 . S
C165 C166 1.434 . S
C166 C157 1.429 . S
C166 N163 1.350 . S
C166 C165 1.434 . S
C167 C168 1.369 . S
C167 C169 1.419 . S
C167 H171 0.930 . S
C168 C167 1.369 . S
C168 C177 1.429 . S
C169 C167 1.419 . S
C169 C170 1.363 . S
C169 H172 0.929 . S
C170 C169 1.363 . S
C170 C176 1.428 . S
H171 C167 0.930 . S
H172 C169 0.929 . S
S173 N174 1.613 1_545 S
S173 N175 1.610 . S
N174 S173 1.613 1_565 S
N174 C177 1.350 . S
N175 S173 1.610 . S
N175 C176 1.351 1_545 S
C176 C170 1.428 . S
C176 N175 1.351 1_565 S
C176 C177 1.434 . S
C177 C168 1.429 . S
C177 N174 1.350 . S
C177 C176 1.434 . S
C178 C179 1.369 . S
C178 C180 1.419 . S
C178 H182 0.930 . S
C179 C178 1.369 . S
C179 C188 1.429 . S
C180 C178 1.419 . S
C180 C181 1.363 . S
C180 H183 0.929 . S
C181 C180 1.363 . S
C181 C187 1.428 . S
H182 C178 0.930 . S
H183 C180 0.929 . S
S184 N185 1.613 . S
S184 N186 1.610 . S
N185 S184 1.613 . S
N185 C188 1.350 . S
N186 S184 1.610 . S
N186 C187 1.351 . S
C187 C181 1.428 . S
C187 N186 1.351 . S
C187 C188 1.434 . S
C188 C179 1.429 . S
C188 N185 1.350 . S
C188 C187 1.434 . S
C189 C190 1.369 . S
C189 C191 1.419 . S
C189 H193 0.930 . S
C190 C189 1.369 . S
C190 C199 1.429 . S
C191 C189 1.419 . S
C191 C192 1.363 . S
C191 H194 0.929 . S
C192 C191 1.363 . S
C192 C198 1.428 . S
H193 C189 0.930 . S
H194 C191 0.929 . S
S195 N196 1.613 1_565 S
S195 N197 1.610 . S
N196 S195 1.613 1_545 S
N196 C199 1.350 . S
N197 S195 1.610 . S
N197 C198 1.351 1_565 S
C198 C192 1.428 . S
C198 N197 1.351 1_545 S
C198 C199 1.434 . S
C199 C190 1.429 . S
C199 N196 1.350 . S
C199 C198 1.434 . S
C200 C201 1.369 . S
C200 C202 1.419 . S
C200 H204 0.930 . S
C201 C200 1.369 . S
C201 C210 1.429 . S
C202 C200 1.419 . S
C202 C203 1.363 . S
C202 H205 0.929 . S
C203 C202 1.363 . S
C203 C209 1.428 . S
H204 C200 0.930 . S
H205 C202 0.929 . S
S206 N207 1.613 . S
S206 N208 1.610 1_655 S
N207 S206 1.613 . S
N207 C210 1.350 . S
N208 S206 1.610 1_455 S
N208 C209 1.351 1_455 S
C209 C203 1.428 . S
C209 N208 1.351 1_655 S
C209 C210 1.434 . S
C210 C201 1.429 . S
C210 N207 1.350 . S
C210 C209 1.434 . S
C211 C212 1.369 . S
C211 C213 1.419 . S
C211 H215 0.930 . S
C212 C211 1.369 . S
C212 C221 1.429 . S
C213 C211 1.419 . S
C213 C214 1.363 . S
C213 H216 0.929 . S
C214 C213 1.363 . S
C214 C220 1.428 . S
H215 C211 0.930 . S
H216 C213 0.929 . S
S217 N218 1.613 . S
S217 N219 1.610 . S
N218 S217 1.613 . S
N218 C221 1.350 . S
N219 S217 1.610 . S
N219 C220 1.351 . S
C220 C214 1.428 . S
C220 N219 1.351 . S
C220 C221 1.434 . S
C221 C212 1.429 . S
C221 N218 1.350 . S
C221 C220 1.434 . S
C222 C223 1.369 . S
C222 C224 1.419 . S
C222 H226 0.930 . S
C223 C222 1.369 . S
C223 C232 1.429 . S
C224 C222 1.419 . S
C224 C225 1.363 . S
C224 H227 0.929 1_455 S
C225 C224 1.363 . S
C225 C231 1.428 . S
H226 C222 0.930 . S
H227 C224 0.929 1_655 S
S228 N229 1.613 . S
S228 N230 1.610 . S
N229 S228 1.613 . S
N229 C232 1.350 . S
N230 S228 1.610 . S
N230 C231 1.351 . S
C231 C225 1.428 . S
C231 N230 1.351 . S
C231 C232 1.434 . S
C232 C223 1.429 . S
C232 N229 1.350 . S
C232 C231 1.434 . S
C233 C234 1.369 . S
C233 C235 1.419 . S
C233 H237 0.930 . S
C234 C233 1.369 . S
C234 C243 1.429 . S
C235 C233 1.419 . S
C235 C236 1.363 . S
C235 H238 0.929 . S
C236 C235 1.363 . S
C236 C242 1.428 . S
H237 C233 0.930 . S
H238 C235 0.929 . S
S239 N240 1.613 . S
S239 N241 1.610 . S
N240 S239 1.613 . S
N240 C243 1.350 . S
N241 S239 1.610 . S
N241 C242 1.351 . S
C242 C236 1.428 . S
C242 N241 1.351 . S
C242 C243 1.434 . S
C243 C234 1.429 . S
C243 N240 1.350 . S
C243 C242 1.434 . S
C244 C245 1.369 . S
C244 C246 1.419 1_655 S
C244 H248 0.930 . S
C245 C244 1.369 . S
C245 C254 1.429 . S
C246 C244 1.419 1_455 S
C246 C247 1.363 . S
C246 H249 0.929 . S
C247 C246 1.363 . S
C247 C253 1.428 . S
H248 C244 0.930 . S
H249 C246 0.929 . S
S250 N251 1.613 1_455 S
S250 N252 1.610 . S
N251 S250 1.613 1_655 S
N251 C254 1.350 . S
N252 S250 1.610 . S
N252 C253 1.351 . S
C253 C247 1.428 . S
C253 N252 1.351 . S
C253 C254 1.434 1_455 S
C254 C245 1.429 . S
C254 N251 1.350 . S
C254 C253 1.434 1_655 S
C255 C256 1.369 . S
C255 C257 1.419 . S
C255 H259 0.930 . S
C256 C255 1.369 . S
C256 C265 1.429 1_655 S
C257 C255 1.419 . S
C257 C258 1.363 1_655 S
C257 H260 0.929 . S
C258 C257 1.363 1_455 S
C258 C264 1.428 . S
H259 C255 0.930 . S
H260 C257 0.929 . S
S261 N262 1.613 . S
S261 N263 1.610 . S
N262 S261 1.613 . S
N262 C265 1.350 . S
N263 S261 1.610 . S
N263 C264 1.351 . S
C264 C258 1.428 . S
C264 N263 1.351 . S
C264 C265 1.434 . S
C265 C256 1.429 1_455 S
C265 N262 1.350 . S
C265 C264 1.434 . S
C266 C267 1.369 . S
C266 C268 1.419 . S
C266 H270 0.930 . S
C267 C266 1.369 . S
C267 C276 1.429 1_545 S
C268 C266 1.419 . S
C268 C269 1.363 1_545 S
C268 H271 0.929 . S
C269 C268 1.363 1_565 S
C269 C275 1.428 . S
H270 C266 0.930 . S
H271 C268 0.929 . S
S272 N273 1.613 . S
S272 N274 1.610 . S
N273 S272 1.613 . S
N273 C276 1.350 . S
N274 S272 1.610 . S
N274 C275 1.351 . S
C275 C269 1.428 . S
C275 N274 1.351 . S
C275 C276 1.434 . S
C276 C267 1.429 1_565 S
C276 N273 1.350 . S
C276 C275 1.434 . S
C277 C278 1.369 . S
C277 C279 1.419 1_545 S
C277 H281 0.930 . S
C278 C277 1.369 . S
C278 C287 1.429 . S
C279 C277 1.419 1_565 S
C279 C280 1.363 . S
C279 H282 0.929 . S
C280 C279 1.363 . S
C280 C286 1.428 . S
H281 C277 0.930 . S
H282 C279 0.929 . S
S283 N284 1.613 1_565 S
S283 N285 1.610 . S
N284 S283 1.613 1_545 S
N284 C287 1.350 . S
N285 S283 1.610 . S
N285 C286 1.351 . S
C286 C280 1.428 . S
C286 N285 1.351 . S
C286 C287 1.434 1_565 S
C287 C278 1.429 . S
C287 N284 1.350 . S
C287 C286 1.434 1_545 S
C113 C9 1.382 . S
C115 C79 1.382 . S
C124 C23 1.383 . S
C126 C93 1.382 . S
C135 C37 1.380 . S
C137 C107 1.380 . S
C146 C65 1.382 . S
C148 C51 1.382 . S
C157 C11 1.613 . S
C159 C56 1.574 . S
C168 C25 1.614 . S
C170 C70 1.572 1_565 S
C179 C84 1.569 . S
C181 C39 1.613 . S
C190 C53 1.612 . S
C192 C98 1.575 1_545 S
C201 C67 1.610 . S
C203 C0 1.577 1_655 S
C212 C14 1.573 . S
C214 C81 1.613 . S
C223 C95 1.609 . S
C225 C28 1.574 1_455 S
C234 C42 1.573 . S
C236 C109 1.611 . S
C245 C33 0.912 . S
C247 C5 0.908 . S
C256 C47 0.916 . S
C258 C19 0.901 . S
C267 C61 0.915 . S
C269 C89 0.901 . S
C278 C75 0.907 . S
C280 C103 0.912 . S
