# Generated by pormake.
# Topology snp, (6)-cn, num edge types: 1
# Building blocks:
#     Node 0, Type 0, BuildingBlock: HISSIN_clean_sbu_0, # of connection points: 6
#     Node 1, Type 0, BuildingBlock: HISSIN_clean_sbu_0, # of connection points: 6
#     Node 2, Type 0, BuildingBlock: HISSIN_clean_sbu_0, # of connection points: 6
#     Node 3, Type 0, BuildingBlock: HISSIN_clean_sbu_0, # of connection points: 6
#     Edge 4, Type (0, 0), BuildingBlock: FUNLAD_clean_linker_0, # of connection points: 2
#     Edge 5, Type (0, 0), BuildingBlock: FUNLAD_clean_linker_0, # of connection points: 2
#     Edge 6, Type (0, 0), BuildingBlock: FUNLAD_clean_linker_0, # of connection points: 2
#     Edge 7, Type (0, 0), BuildingBlock: FUNLAD_clean_linker_0, # of connection points: 2
#     Edge 8, Type (0, 0), BuildingBlock: FUNLAD_clean_linker_0, # of connection points: 2
#     Edge 9, Type (0, 0), BuildingBlock: FUNLAD_clean_linker_0, # of connection points: 2
#     Edge 10, Type (0, 0), BuildingBlock: FUNLAD_clean_linker_0, # of connection points: 2
#     Edge 11, Type (0, 0), BuildingBlock: FUNLAD_clean_linker_0, # of connection points: 2
#     Edge 12, Type (0, 0), BuildingBlock: FUNLAD_clean_linker_0, # of connection points: 2
#     Edge 13, Type (0, 0), BuildingBlock: FUNLAD_clean_linker_0, # of connection points: 2
#     Edge 14, Type (0, 0), BuildingBlock: FUNLAD_clean_linker_0, # of connection points: 2
#     Edge 15, Type (0, 0), BuildingBlock: FUNLAD_clean_linker_0, # of connection points: 2
# Relax obj value: 0.604
# Max RMSD: 0.184
# Mean RMSD: 0.184
data_MOF--net-snp--node1-HISSIN_clean_sbu_0--edge1-FUNLAD_clean_linker_0
_symmetry_space_group_name_H-M    P1
_symmetry_Int_Tables_number       1
_symmetry_cell_setting            triclinic
loop_
_symmetry_equiv_pos_as_xyz
'x, y, z'
_cell_length_a     28.057133
_cell_length_b     27.425709
_cell_length_c     33.775486
_cell_angle_alpha  89.914142
_cell_angle_beta   90.072757
_cell_angle_gamma 120.53358
loop_
_atom_site_label
_atom_site_type_symbol
_atom_site_fract_x
_atom_site_fract_y
_atom_site_fract_z
_atom_type_partial_charge
Eu0 Eu 0.26114 0.05181 0.16365 0.0
Eu1 Eu 0.32873 0.18593 0.14454 0.0
C2 C 0.39166 0.117 0.15132 0.0
C3 C 0.23325 0.91207 0.20172 0.0
C4 C 0.28645 0.94111 0.21817 0.0
C5 C 0.21788 0.82538 0.23283 0.0
C6 C 0.30525 0.91279 0.24183 0.0
C7 C 0.19914 0.85394 0.20876 0.0
C8 C 0.27111 0.85472 0.2498 0.0
C9 C 0.21467 0.94327 0.17706 0.0
O10 O 0.28534 0.14712 1.08501 0.0
O11 O 0.25935 0.05443 1.0962 0.0
C12 C 0.26537 0.09474 1.07187 0.0
O13 O 0.19736 0.07895 0.15665 0.0
O14 O 0.4041 0.26578 0.15564 0.0
O15 O 0.34215 0.26326 1.11557 0.0
O16 O 0.25115 0.17121 0.17506 0.0
C17 C 0.20242 0.12536 0.17225 0.0
O18 O 0.27284 0.08799 0.2257 0.0
O19 O 0.32999 0.18283 0.21281 0.0
O20 O 0.38461 0.1516 1.1287 0.0
O21 O 0.20122 0.97601 0.19599 0.0
O22 O 0.24632 0.96875 0.1467 0.0
O23 O 0.35182 0.08264 0.17509 0.0
C24 C 0.43606 0.32588 1.10036 0.0
C25 C 0.44232 0.37628 1.08521 0.0
C26 C 0.50916 0.33535 1.05687 0.0
C27 C 0.48086 0.40543 1.05536 0.0
C28 C 0.47028 0.30598 1.08648 0.0
C29 C 0.51396 0.38468 1.04028 0.0
C30 C 0.39249 0.2933 1.12948 0.0
C31 C 0.30265 0.14068 0.23817 0.0
H32 H 0.31327 0.98606 0.2132 0.0
H33 H 0.19059 0.78068 0.23858 0.0
H34 H 0.34582 0.93711 0.25522 0.0
H35 H 0.158 0.83091 0.19609 0.0
H36 H 0.41619 0.39213 1.09559 0.0
H37 H 0.5343 0.31853 1.04617 0.0
H38 H 0.48259 0.44263 1.04276 0.0
H39 H 0.46613 0.26704 1.09786 0.0
Eu40 Eu 0.05008 0.24752 0.61478 0.0
Eu41 Eu 0.17538 0.31702 0.64708 0.0
C42 C 0.11748 0.3826 0.61563 0.0
C43 C 0.92823 0.23014 0.55744 0.0
C44 C 0.96503 0.27764 0.53516 0.0
C45 C 0.85111 0.23475 0.52889 0.0
C46 C 0.94521 0.30376 0.51014 0.0
C47 C 0.87116 0.20884 0.55434 0.0
C48 C 0.88807 0.28277 0.50675 0.0
C49 C 0.9502 0.20672 0.58641 0.0
O50 O 0.12941 0.29781 0.70613 0.0
O51 O 0.0407 0.25836 0.68133 0.0
C52 C 0.07542 0.27449 0.71172 0.0
O53 O 0.05235 0.182 0.6528 0.0
O54 O 0.24784 0.39698 0.66352 0.0
O55 O 0.25646 0.32406 0.65143 0.0
O56 O 0.14356 0.23001 0.67335 0.0
C57 C 0.09263 0.18633 0.67526 0.0
O58 O 0.09686 0.22319 0.57131 0.0
O59 O 0.17828 0.30488 0.58025 0.0
O60 O 0.14712 0.38023 0.64454 0.0
O61 O 0.98519 0.19264 0.573 0.0
O62 O 0.96744 0.23566 0.61907 0.0
O63 O 0.08815 0.33805 0.5934 0.0
C64 C 0.32494 0.39712 0.69139 0.0
C65 C 0.38012 0.42268 0.67896 0.0
C66 C 0.3556 0.4171 0.75954 0.0
C67 C 0.42301 0.44573 0.70662 0.0
C68 C 0.31271 0.394 0.73181 0.0
C69 C 0.41123 0.44365 0.74718 0.0
C70 C 0.28149 0.3774 0.66136 0.0
C71 C 0.14755 0.25878 0.55941 0.0
H72 H 0.00925 0.29481 0.5373 0.0
H73 H 0.80688 0.21758 0.52673 0.0
H74 H 0.97474 0.33977 0.49279 0.0
H75 H 0.84226 0.17261 0.57181 0.0
H76 H 0.39008 0.42567 0.64773 0.0
H77 H 0.34523 0.41388 0.79068 0.0
H78 H 0.46535 0.46613 0.69621 0.0
H79 H 0.2702 0.37433 0.7418 0.0
Eu80 Eu 0.94082 0.10278 0.14734 0.0
Eu81 Eu 0.84039 0.97851 1.12663 0.0
C82 C 0.81264 0.0717 0.15204 0.0
C83 C 0.99854 0.2427 0.19101 0.0
C84 C 1.00276 0.29258 0.17591 0.0
C85 C 0.94381 0.24508 0.24575 0.0
C86 C 0.97624 0.31763 0.19511 0.0
C87 C 0.97046 0.22048 0.22692 0.0
C88 C 0.94469 0.29251 0.22928 0.0
C89 C 0.01128 0.20712 0.16552 0.0
O90 O 0.86703 0.03029 1.06755 0.0
O91 O 0.9568 0.0927 1.08387 0.0
C92 C 0.91828 0.06868 1.05685 0.0
O93 O 0.97554 0.04341 0.14542 0.0
O94 O 0.76203 0.926 1.09576 0.0
O95 O 0.79392 0.88736 0.13559 0.0
O96 O 0.91189 0.97113 1.10671 0.0
C97 C 0.9587 -0.00446 1.12591 0.0
O98 O 0.91464 0.06479 0.20857 0.0
O99 O 0.86989 0.97196 0.18975 0.0
O100 O 0.79953 0.01937 0.15785 0.0
O101 O 0.01121 0.1643 0.18261 0.0
O102 O 0.98419 0.19261 1.13213 0.0
O103 O 0.8631 0.10953 0.14109 0.0
C104 C 0.74215 0.83368 1.08112 0.0
C105 C 0.78396 0.83263 1.05918 0.0
C106 C 0.67333 0.74814 1.04803 0.0
C107 C 0.77052 0.78956 1.03176 0.0
C108 C 0.68687 0.79116 1.07563 0.0
C109 C 0.71504 0.74705 1.02573 0.0
C110 C 0.75581 0.8788 1.10985 0.0
C111 C 0.89552 0.0113 0.21731 0.0
H112 H 0.02353 0.31004 0.14801 0.0
H113 H 0.92074 0.22574 0.27261 0.0
H114 H 0.97781 0.35456 0.18214 0.0
H115 H 0.96592 0.1819 0.23934 0.0
H116 H 0.82687 0.86536 1.06304 0.0
H117 H 0.6303 0.71585 1.04404 0.0
H118 H 0.80345 0.79048 1.01446 0.0
H119 H 0.6542 0.79143 1.09252 0.0
Eu120 Eu 0.15797 0.96484 0.62022 0.0
Eu121 Eu 0.02677 0.87619 0.6414 0.0
C122 C 0.10627 0.82946 0.62058 0.0
C123 C 0.29192 0.00711 0.5718 0.0
C124 C 0.2617 0.95798 0.54909 0.0
C125 C 0.37741 0.0156 0.54774 0.0
C126 C 0.28888 0.93698 0.52673 0.0
C127 C 0.34994 0.03617 0.57089 0.0
C128 C 0.34691 0.96508 0.52622 0.0
C129 C 0.2621 0.02247 0.60003 0.0
O130 O 0.06634 0.89668 0.70352 0.0
O131 O 0.15875 0.95471 0.68782 0.0
C132 C 0.11891 0.92848 0.71443 0.0
O133 O 0.13371 0.0159 0.65808 0.0
O134 O 0.9515 0.79665 0.62752 0.0
O135 O 0.94919 0.85438 0.67035 0.0
O136 O 0.04516 0.96563 0.6384 0.0
C137 C 0.08237 0.00367 0.66204 0.0
O138 O 0.11047 0.9747 0.56847 0.0
O139 O 0.02854 0.8906 0.5741 0.0
O140 O 0.06807 0.82471 0.64499 0.0
O141 O 0.22461 0.0321 0.58517 0.0
O142 O 0.24368 -0.01095 0.63067 0.0
O143 O 0.13699 0.87676 0.60109 0.0
C144 C 0.89063 0.75652 0.68117 0.0
C145 C 0.91175 0.75546 0.71856 0.0
C146 C 0.80683 0.66779 0.69608 0.0
C147 C 0.87988 0.71186 0.74505 0.0
C148 C 0.83868 0.71182 0.66967 0.0
C149 C 0.82645 0.66809 0.73451 0.0
C150 C 0.92228 0.8042 0.65419 0.0
C151 C 0.06201 0.93664 0.55359 0.0
H152 H 0.21691 0.93496 0.54945 0.0
H153 H 0.42222 0.03821 0.54739 0.0
H154 H 0.26444 0.8987 0.50965 0.0
H155 H 0.37382 0.07381 0.58867 0.0
H156 H 0.95218 0.78929 0.72776 0.0
H157 H 0.76627 0.63443 0.6868 0.0
H158 H 0.89616 0.7143 0.77452 0.0
H159 H 0.82223 0.71164 0.64059 0.0
C160 C 0.0347 0.97508 0.13839 0.0
C161 C 0.97859 0.95838 0.14049 0.0
C162 C 0.05817 0.95849 0.16836 0.0
C163 C 0.02612 0.92896 0.20162 0.0
C164 C 0.96836 0.90223 0.19885 0.0
C165 C 0.94458 0.9162 0.16781 0.0
C166 C 0.05285 0.94604 0.24119 0.0
C167 C 0.04247 0.98183 0.26194 0.0
C168 C 0.07567 0.04211 0.2503 0.0
C169 C 0.06155 0.0583 0.21474 0.0
C170 C 0.10357 0.09325 0.18814 0.0
C171 C 0.15877 0.11818 0.20015 0.0
H172 H 0.14064 0.06694 0.29359 0.0
C173 C 0.16949 0.11722 0.24059 0.0
C174 C 0.12904 0.07603 0.26514 0.0
H175 H 0.2106 0.14218 0.25144 0.0
H176 H 0.0615 0.00656 1.117 0.0
H177 H 0.10277 0.97821 0.16934 0.0
H178 H 0.94254 0.87789 0.22353 0.0
H179 H 0.90064 0.90091 0.16907 0.0
H180 H 0.0957 0.95609 0.24112 0.0
H181 H 0.99922 0.96839 0.26577 0.0
H182 H 0.01932 0.03488 0.20469 0.0
H183 H 0.0934 0.0957 0.15756 0.0
C184 C 0.00909 0.97872 0.7136 0.0
C185 C 0.0652 0.0091 0.70249 0.0
C186 C 0.9938 0.9759 0.75332 0.0
C187 C 0.0343 0.00402 0.78247 0.0
C188 C 0.09026 0.03288 0.77168 0.0
C189 C 0.1055 0.03674 0.73205 0.0
C190 C 0.01872 0.01925 0.82031 0.0
C191 C 0.02208 0.06989 0.82377 0.0
C192 C 0.03869 0.10816 0.7891 0.0
C193 C 1.00076 0.09441 0.7581 0.0
C194 C 0.01903 0.11604 0.7202 0.0
C195 C 0.07566 0.15324 0.7126 0.0
H196 H 0.12502 0.15641 0.80559 0.0
C197 C 0.1134 0.16838 0.74423 0.0
C198 C 0.09498 0.14634 0.78218 0.0
H199 H 0.15708 0.1981 0.73996 0.0
H200 H 0.97693 0.95732 0.69164 0.0
H201 H 0.9503 0.95511 0.7609 0.0
H202 H 0.12204 0.05594 0.79368 0.0
H203 H 0.14913 0.06034 0.72477 0.0
H204 H 1.00481 -0.01013 0.84502 0.0
H205 H 0.01189 0.08219 0.85155 0.0
H206 H 0.95727 0.06405 0.76271 0.0
H207 H 0.98839 0.10428 0.69704 0.0
C208 C 0.71382 0.04534 0.14238 0.0
C209 C 0.76783 0.08573 0.15443 0.0
C210 C 0.67045 0.0566 0.14486 0.0
C211 C 0.67949 0.10816 0.16039 0.0
C212 C 0.73338 0.14846 0.1729 0.0
C213 C 0.77736 0.13786 0.16923 0.0
C214 C 0.63248 0.11879 0.16573 0.0
C215 C 0.59169 0.10304 0.13862 0.0
C216 C 0.54301 0.11085 0.14374 0.0
C217 C 0.52383 0.1282 1.11127 0.0
C218 C 0.47572 0.13168 1.11414 0.0
C219 C 0.44422 0.11575 0.14915 0.0
H220 H 0.52549 0.08177 0.20452 0.0
C221 C 0.46317 0.09801 0.18167 0.0
C222 C 0.51243 0.09634 0.17919 0.0
H223 H 0.43995 0.08549 0.20909 0.0
H224 H 0.70505 0.00479 1.13077 0.0
H225 H 0.62943 0.02417 0.13564 0.0
H226 H 0.74154 0.18837 0.18535 0.0
H227 H 0.81838 0.1697 0.17896 0.0
H228 H 0.63231 0.1415 0.19202 0.0
H229 H 0.59501 0.08548 1.11063 0.0
H230 H 0.54614 0.13903 1.08346 0.0
H231 H 0.46232 0.14533 1.08849 0.0
C232 C 0.15444 0.48625 0.62753 0.0
C233 C 0.11565 0.43528 0.6091 0.0
C234 C 0.15052 0.535 0.62378 0.0
C235 C 0.10735 0.53384 0.60172 0.0
C236 C 0.06903 0.48309 0.58292 0.0
C237 C 0.0734 0.43456 0.5862 0.0
C238 C 0.09838 0.58302 0.60056 0.0
C239 C 0.13928 0.63751 0.60451 0.0
C240 C 0.12889 0.68571 0.60663 0.0
C241 C 0.08038 0.6794 0.62376 0.0
C242 C 0.07311 0.72598 0.6279 0.0
C243 C 0.11389 0.78007 0.61479 0.0
H244 H 0.20778 0.74604 0.58064 0.0
C245 C 0.16211 0.78635 0.5972 0.0
C246 C 0.16975 0.73978 0.5936 0.0
H247 H 0.19449 0.82743 0.58697 0.0
H248 H 0.18745 0.4883 0.64547 0.0
H249 H 0.1801 0.57279 0.63949 0.0
H250 H 0.03508 0.48074 0.566 0.0
H251 H 0.0426 0.39602 0.57181 0.0
H252 H 0.0563 0.57375 0.59567 0.0
H253 H 0.18202 0.64753 0.6055 0.0
H254 H 0.04859 0.63885 0.63514 0.0
H255 H 0.03546 0.71953 0.64165 0.0
C256 C 0.14298 0.1972 0.5004 0.0
C257 C 0.17073 0.24868 0.52167 0.0
C258 C 0.16611 0.18858 0.4656 0.0
C259 C 0.2178 0.23131 0.45069 0.0
C260 C 0.24497 0.28265 0.47191 0.0
C261 C 0.22226 0.29104 0.50667 0.0
C262 C 0.24424 0.226 0.41272 0.0
C263 C 0.2319 0.17674 0.39423 0.0
C264 C 0.25832 0.1713 0.35623 0.0
C265 C 0.24709 0.11714 0.34442 0.0
C266 C 0.26582 0.10822 0.30789 0.0
C267 C 0.2965 0.15311 0.28118 0.0
H268 H 0.3015 0.25946 0.33769 0.0
C269 C 0.31046 0.20798 0.29378 0.0
C270 C 0.29165 0.21694 0.33053 0.0
H271 H 0.33308 0.24377 0.27415 0.0
H272 H 0.10329 0.16332 0.51068 0.0
H273 H 0.14281 0.14876 0.45016 0.0
H274 H 0.28449 0.31685 0.46161 0.0
H275 H 0.24534 0.33132 0.52173 0.0
H276 H 0.27709 0.2653 0.40035 0.0
H277 H 0.2011 0.13738 0.40794 0.0
H278 H 0.22191 0.08076 0.36305 0.0
H279 H 0.25341 0.06522 0.29967 0.0
C280 C 0.08503 0.2641 0.7863 0.0
C281 C 0.05135 0.25591 0.75294 0.0
C282 C 0.0618 0.2393 0.82342 0.0
C283 C 1.00383 0.20518 0.82857 0.0
C284 C 0.97043 0.19897 0.79555 0.0
C285 C 0.99355 0.22355 0.75859 0.0
C286 C 0.97611 0.17582 0.86729 0.0
C287 C 1.00204 0.16742 0.89842 0.0
C288 C 0.97617 0.13827 0.93757 0.0
C289 C 0.91898 0.11081 0.94688 0.0
C290 C 0.89895 0.08587 0.98476 0.0
C291 C 0.93547 0.08805 1.01449 0.0
H292 H 0.05574 0.15848 0.96145 0.0
C293 C 0.99203 0.11431 1.00451 0.0
C294 C 0.01173 0.13849 0.96708 0.0
H295 H 0.02189 0.11694 1.02605 0.0
H296 H 0.12964 0.28832 0.78351 0.0
H297 H 0.08974 0.24684 0.84777 0.0
H298 H 0.9258 0.17367 0.79802 0.0
H299 H 0.96571 0.21557 0.73401 0.0
H300 H 0.93195 0.15934 0.8695 0.0
H301 H 0.04592 0.18284 0.8954 0.0
H302 H 0.88954 0.10876 0.9253 0.0
H303 H 0.8552 0.06644 0.99111 0.0
C304 C 0.99243 0.90853 0.49588 0.0
C305 C 0.04434 0.9469 0.51307 0.0
C306 C 0.97592 0.91952 0.45864 0.0
C307 C 0.01075 0.96948 0.43701 0.0
C308 C 0.0626 0.00733 0.45423 0.0
C309 C 0.07902 -0.00358 0.49122 0.0
C310 C 0.99537 0.98554 0.39746 0.0
C311 C 0.95093 0.95172 0.37381 0.0
C312 C 0.93694 0.96878 0.33411 0.0
C313 C 0.89833 0.92642 0.3083 0.0
C314 C 0.88437 0.93976 0.27106 0.0
C315 C 0.90758 -0.0037 0.2582 0.0
H316 H 0.98886 0.06002 0.33987 0.0
C317 C 0.94532 0.03883 0.28433 0.0
C318 C 0.95982 0.02548 0.32136 0.0
H319 H 0.96469 0.08297 0.2759 0.0
H320 H 0.96406 0.86993 0.51139 0.0
H321 H 0.93548 0.88899 0.44733 0.0
H322 H 0.09098 0.04611 0.43891 0.0
H323 H 0.1192 0.02742 0.5028 0.0
H324 H 0.02387 0.02805 0.38698 0.0
H325 H 0.92374 0.90827 0.38311 0.0
H326 H 0.87936 0.88229 0.31666 0.0
H327 H 0.85555 0.90548 0.25218 0.0
C328 C 0.18612 0.98532 0.77071 0.0
C329 C 0.13351 0.94097 0.7583 0.0
C330 C 0.19827 0.00088 0.81116 0.0
C331 C 0.15849 0.97227 0.84113 0.0
C332 C 0.10639 0.92726 0.82874 0.0
C333 C 0.09397 0.91228 0.78832 0.0
C334 C 0.16983 0.98571 0.88537 0.0
C335 C 0.2097 0.03591 0.90147 0.0
C336 C 0.22082 0.0494 0.94575 0.0
C337 C 0.20452 0.00762 0.97549 0.0
C338 C 0.21866 0.02244 1.01583 0.0
C339 C 0.24922 0.0796 1.02844 0.0
H340 H 0.26513 0.14018 0.93678 0.0
C341 C 0.26481 0.12128 0.99879 0.0
C342 C 0.25134 0.10646 0.9584 0.0
H343 H 0.2884 0.16567 1.00665 0.0
H344 H 0.21793 0.0092 0.74895 0.0
H345 H 0.23921 0.03503 0.81879 0.0
H346 H 0.07449 0.90373 0.85054 0.0
H347 H 0.05287 0.87838 0.78061 0.0
H348 H 0.14203 0.95266 0.90559 0.0
H349 H 0.23491 0.07028 0.88123 0.0
H350 H 0.18191 0.96322 0.96772 0.0
H351 H 0.20561 -0.01137 1.03728 0.0
C352 C 0.73354 0.6795 0.98849 0.0
C353 C 0.70096 0.70437 0.99423 0.0
C354 C 0.72653 0.64712 0.9548 0.0
C355 C 0.68659 0.63896 0.9262 0.0
C356 C 0.65152 0.66053 0.93342 0.0
C357 C 0.65844 0.69275 0.96717 0.0
C358 C 0.6865 0.61711 0.88611 0.0
C359 C 0.71014 0.58632 0.87707 0.0
C360 C 0.72989 0.58661 0.83634 0.0
C361 C 0.78148 0.59072 0.83183 0.0
C362 C 0.811 0.6114 0.79657 0.0
C363 C 0.78931 0.62842 0.76545 0.0
H364 H 0.66324 0.58845 0.80487 0.0
C365 C 0.73408 0.61564 0.76792 0.0
C366 C 0.70433 0.59424 0.80298 0.0
H367 H 0.71544 0.62714 0.74436 0.0
H368 H 0.76616 0.68722 1.0092 0.0
H369 H 0.75504 0.6321 0.95021 0.0
H370 H 0.62054 0.65496 0.91182 0.0
H371 H 0.63284 0.71155 0.97071 0.0
H372 H 0.67203 0.63332 0.86253 0.0
H373 H 0.72446 0.56986 0.90058 0.0
H374 H 0.80147 0.58359 0.8568 0.0
H375 H 0.85262 0.61851 0.79498 0.0
C376 C 0.34519 0.84268 0.28182 0.0
C377 C 0.28931 0.82785 0.27968 0.0
C378 C 0.36624 0.83268 0.31642 0.0
C379 C 0.33158 0.80774 0.34935 0.0
C380 C 0.27439 0.78542 0.34493 0.0
C381 C 0.2534 0.7957 0.31046 0.0
C382 C 0.3537 0.81458 0.39017 0.0
C383 C 0.39876 0.86358 0.40152 0.0
C384 C 0.40024 0.89043 0.44006 0.0
C385 C 0.37007 0.85856 0.47317 0.0
C386 C 0.35666 0.88415 0.5034 0.0
C387 C 0.37416 0.94204 0.5014 0.0
H388 H 0.44781 0.97534 0.41603 0.0
C389 C 0.41069 0.97524 0.47132 0.0
C390 C 0.42374 0.94956 0.44088 0.0
H391 H 0.42498 0.02004 0.46932 0.0
H392 H 0.37349 0.8659 0.25793 0.0
H393 H 0.4102 0.84829 0.31832 0.0
H394 H 0.24659 0.76531 0.36968 0.0
H395 H 0.2101 0.78335 0.30969 0.0
H396 H 0.32415 0.78737 0.41236 0.0
H397 H 0.42683 0.89177 0.37896 0.0
H398 H 0.35344 0.81332 0.47453 0.0
H399 H 0.32947 0.858 0.52698 0.0
C400 C 0.50147 0.45916 0.77383 0.0
C401 C 0.45653 0.46816 0.77674 0.0
C402 C 0.54007 0.47575 0.80454 0.0
C403 C 0.53392 0.50113 0.83883 0.0
C404 C 0.49211 0.51489 0.83987 0.0
C405 C 0.45363 0.49834 0.80926 0.0
C406 C 0.56406 0.50645 0.87616 0.0
C407 C 0.58211 0.47082 0.88574 0.0
C408 C 0.5825 0.45418 0.92747 0.0
C409 C 0.59095 0.49066 0.95935 0.0
C410 C 0.5735 0.46879 0.99733 0.0
C411 C 0.54727 0.41016 1.004 0.0
H412 H 0.55737 0.36803 0.91136 0.0
C413 C 0.54569 0.37498 0.97315 0.0
C414 C 0.56364 0.39698 0.9353 0.0
H415 H 0.52596 0.32962 0.97716 0.0
H416 H 0.50524 0.43667 0.74883 0.0
H417 H 0.57311 0.46652 0.80192 0.0
H418 H 0.48688 0.53523 0.86563 0.0
H419 H 0.42044 0.50747 0.8117 0.0
H420 H 0.55989 0.53146 0.89932 0.0
H421 H 0.58329 0.44325 0.86326 0.0
H422 H 0.60722 0.53531 0.95468 0.0
H423 H 0.57709 0.49727 1.02086 0.0
C424 C 0.93479 0.36935 0.26116 0.0
C425 C 0.9107 0.31339 0.24772 0.0
C426 C 0.90563 0.38453 0.28713 0.0
C427 C 0.85216 0.34359 0.3001 0.0
C428 C 0.82586 0.28998 0.28224 0.0
C429 C 0.85498 0.27485 0.25652 0.0
C430 C 0.82738 0.34992 0.33725 0.0
C431 C 0.85976 0.37991 0.36787 0.0
C432 C 0.85142 0.35659 0.40875 0.0
C433 C 0.88805 0.3914 0.43835 0.0
C434 C 0.89629 0.36773 0.47242 0.0
C435 C 0.86806 0.30869 0.47749 0.0
H436 H 0.7896 0.26917 0.39446 0.0
C437 C 0.82647 0.27438 0.4504 0.0
C438 C 0.81816 0.29801 0.4163 0.0
H439 H 0.80397 0.22874 0.45356 0.0
H440 H 0.97744 0.40004 0.2541 0.0
H441 H 0.9265 0.42708 0.2989 0.0
H442 H 0.7845 0.25778 0.29109 0.0
H443 H 0.83512 0.23174 0.24565 0.0
H444 H 0.78499 0.31707 0.34333 0.0
H445 H 0.90089 0.41539 0.36197 0.0
H446 H 0.914 0.43658 0.43355 0.0
H447 H 0.92772 0.39533 0.49339 0.0
loop_
_geom_bond_atom_site_label_1
_geom_bond_atom_site_label_2
_geom_bond_distance
_geom_bond_site_symmetry_2
_ccdc_geom_bond_type
Eu0 C9 2.828 . S
Eu0 O11 2.392 1_554 S
Eu0 O13 2.418 . S
Eu0 O18 2.373 . S
Eu0 O21 2.488 . S
Eu0 O22 2.471 . S
Eu0 O23 2.349 . S
Eu1 O10 2.373 . S
Eu1 O14 2.488 . S
Eu1 O15 2.471 . S
Eu1 O16 2.349 1_556 S
Eu1 O19 2.392 1_556 S
Eu1 O20 2.418 . S
Eu1 C30 2.828 . S
C2 O20 1.244 1_554 S
C2 O23 1.265 . S
C3 C4 1.379 . S
C3 C7 1.373 . S
C3 C9 1.505 . S
C4 C3 1.379 . S
C4 C6 1.369 . S
C4 H32 0.930 . S
C5 C7 1.383 1_565 S
C5 C8 1.382 1_565 S
C5 H33 0.930 . S
C6 C4 1.369 . S
C6 C8 1.392 . S
C6 H34 0.930 . S
C7 C3 1.373 . S
C7 C5 1.383 1_545 S
C7 H35 0.931 1_545 S
C8 C5 1.382 1_545 S
C8 C6 1.392 . S
C9 Eu0 2.828 . S
C9 C3 1.505 . S
C9 O21 1.249 . S
C9 O22 1.244 . S
O10 Eu1 2.373 . S
O10 C12 1.258 . S
O11 Eu0 2.392 1_556 S
O11 C12 1.242 . S
C12 O10 1.258 . S
C12 O11 1.242 . S
O13 Eu0 2.418 . S
O13 C17 1.244 . S
O14 Eu1 2.488 . S
O14 C30 1.249 . S
O15 Eu1 2.471 . S
O15 C30 1.244 . S
O16 Eu1 2.349 1_554 S
O16 C17 1.265 . S
C17 O13 1.244 . S
C17 O16 1.265 . S
O18 Eu0 2.373 . S
O18 C31 1.258 . S
O19 Eu1 2.392 1_554 S
O19 C31 1.242 . S
O20 Eu1 2.418 . S
O20 C2 1.244 1_556 S
O21 Eu0 2.488 . S
O21 C9 1.249 . S
O22 Eu0 2.471 . S
O22 C9 1.244 . S
O23 Eu0 2.349 . S
O23 C2 1.265 . S
C24 C25 1.379 . S
C24 C28 1.373 . S
C24 C30 1.505 . S
C25 C24 1.379 . S
C25 C27 1.369 . S
C25 H36 0.930 . S
C26 C28 1.383 . S
C26 C29 1.382 . S
C26 H37 0.930 . S
C27 C25 1.369 . S
C27 C29 1.392 . S
C27 H38 0.930 . S
C28 C24 1.373 . S
C28 C26 1.383 . S
C28 H39 0.931 . S
C29 C26 1.382 . S
C29 C27 1.392 . S
C30 Eu1 2.828 . S
C30 O14 1.249 . S
C30 O15 1.244 . S
C30 C24 1.505 . S
C31 O18 1.258 . S
C31 O19 1.242 . S
H32 C4 0.930 . S
H33 C5 0.930 . S
H34 C6 0.930 . S
H35 C7 0.931 1_565 S
H36 C25 0.930 . S
H37 C26 0.930 . S
H38 C27 0.930 . S
H39 C28 0.931 . S
Eu40 C49 2.828 . S
Eu40 O51 2.392 . S
Eu40 O53 2.418 . S
Eu40 O58 2.373 . S
Eu40 O61 2.488 . S
Eu40 O62 2.471 . S
Eu40 O63 2.349 . S
Eu41 O50 2.373 . S
Eu41 O54 2.488 . S
Eu41 O55 2.471 . S
Eu41 O56 2.349 . S
Eu41 O59 2.392 . S
Eu41 O60 2.418 . S
Eu41 C70 2.828 . S
C42 O60 1.244 . S
C42 O63 1.265 . S
C43 C44 1.379 . S
C43 C47 1.373 . S
C43 C49 1.505 . S
C44 C43 1.379 . S
C44 C46 1.369 . S
C44 H72 0.930 . S
C45 C47 1.383 1_655 S
C45 C48 1.382 1_655 S
C45 H73 0.930 . S
C46 C44 1.369 . S
C46 C48 1.392 . S
C46 H74 0.930 . S
C47 C43 1.373 . S
C47 C45 1.383 1_455 S
C47 H75 0.931 1_455 S
C48 C45 1.382 1_455 S
C48 C46 1.392 . S
C49 Eu40 2.828 . S
C49 C43 1.505 . S
C49 O61 1.249 . S
C49 O62 1.244 . S
O50 Eu41 2.373 . S
O50 C52 1.258 . S
O51 Eu40 2.392 . S
O51 C52 1.242 . S
C52 O50 1.258 . S
C52 O51 1.242 . S
O53 Eu40 2.418 . S
O53 C57 1.244 . S
O54 Eu41 2.488 . S
O54 C70 1.249 . S
O55 Eu41 2.471 . S
O55 C70 1.244 . S
O56 Eu41 2.349 . S
O56 C57 1.265 . S
C57 O53 1.244 . S
C57 O56 1.265 . S
O58 Eu40 2.373 . S
O58 C71 1.258 . S
O59 Eu41 2.392 . S
O59 C71 1.242 . S
O60 Eu41 2.418 . S
O60 C42 1.244 . S
O61 Eu40 2.488 . S
O61 C49 1.249 . S
O62 Eu40 2.471 . S
O62 C49 1.244 . S
O63 Eu40 2.349 . S
O63 C42 1.265 . S
C64 C65 1.379 . S
C64 C68 1.373 . S
C64 C70 1.505 . S
C65 C64 1.379 . S
C65 C67 1.369 . S
C65 H76 0.930 . S
C66 C68 1.383 . S
C66 C69 1.382 . S
C66 H77 0.930 . S
C67 C65 1.369 . S
C67 C69 1.392 . S
C67 H78 0.930 . S
C68 C64 1.373 . S
C68 C66 1.383 . S
C68 H79 0.931 . S
C69 C66 1.382 . S
C69 C67 1.392 . S
C70 Eu41 2.828 . S
C70 O54 1.249 . S
C70 O55 1.244 . S
C70 C64 1.505 . S
C71 O58 1.258 . S
C71 O59 1.242 . S
H72 C44 0.930 . S
H73 C45 0.930 . S
H74 C46 0.930 . S
H75 C47 0.931 1_655 S
H76 C65 0.930 . S
H77 C66 0.930 . S
H78 C67 0.930 . S
H79 C68 0.931 . S
Eu80 C89 2.828 . S
Eu80 O91 2.392 1_554 S
Eu80 O93 2.418 . S
Eu80 O98 2.373 . S
Eu80 O101 2.488 . S
Eu80 O102 2.471 . S
Eu80 O103 2.349 . S
Eu81 O90 2.373 1_565 S
Eu81 O94 2.488 . S
Eu81 O95 2.471 . S
Eu81 O96 2.349 1_556 S
Eu81 O99 2.392 1_556 S
Eu81 O100 2.418 . S
Eu81 C110 2.828 . S
C82 O100 1.244 1_554 S
C82 O103 1.265 1_565 S
C83 C84 1.379 . S
C83 C87 1.373 . S
C83 C89 1.505 . S
C84 C83 1.379 . S
C84 C86 1.369 . S
C84 H112 0.930 . S
C85 C87 1.383 . S
C85 C88 1.382 . S
C85 H113 0.930 . S
C86 C84 1.369 . S
C86 C88 1.392 . S
C86 H114 0.930 . S
C87 C83 1.373 . S
C87 C85 1.383 . S
C87 H115 0.931 . S
C88 C85 1.382 . S
C88 C86 1.392 . S
C89 Eu80 2.828 . S
C89 C83 1.505 . S
C89 O101 1.249 . S
C89 O102 1.244 . S
O90 Eu81 2.373 1_545 S
O90 C92 1.258 . S
O91 Eu80 2.392 1_556 S
O91 C92 1.242 . S
C92 O90 1.258 . S
C92 O91 1.242 . S
O93 Eu80 2.418 . S
O93 C97 1.244 . S
O94 Eu81 2.488 . S
O94 C110 1.249 . S
O95 Eu81 2.471 . S
O95 C110 1.244 . S
O96 Eu81 2.349 1_554 S
O96 C97 1.265 1_565 S
C97 O93 1.244 . S
C97 O96 1.265 1_545 S
O98 Eu80 2.373 . S
O98 C111 1.258 1_545 S
O99 Eu81 2.392 1_554 S
O99 C111 1.242 . S
O100 Eu81 2.418 . S
O100 C82 1.244 1_556 S
O101 Eu80 2.488 . S
O101 C89 1.249 . S
O102 Eu80 2.471 . S
O102 C89 1.244 . S
O103 Eu80 2.349 . S
O103 C82 1.265 1_545 S
C104 C105 1.379 . S
C104 C108 1.373 . S
C104 C110 1.505 . S
C105 C104 1.379 . S
C105 C107 1.369 . S
C105 H116 0.930 . S
C106 C108 1.383 . S
C106 C109 1.382 . S
C106 H117 0.930 . S
C107 C105 1.369 . S
C107 C109 1.392 . S
C107 H118 0.930 . S
C108 C104 1.373 . S
C108 C106 1.383 . S
C108 H119 0.931 . S
C109 C106 1.382 . S
C109 C107 1.392 . S
C110 Eu81 2.828 . S
C110 O94 1.249 . S
C110 O95 1.244 . S
C110 C104 1.505 . S
C111 O98 1.258 1_565 S
C111 O99 1.242 . S
H112 C84 0.930 . S
H113 C85 0.930 . S
H114 C86 0.930 . S
H115 C87 0.931 . S
H116 C105 0.930 . S
H117 C106 0.930 . S
H118 C107 0.930 . S
H119 C108 0.931 . S
Eu120 C129 2.828 . S
Eu120 O131 2.392 . S
Eu120 O133 2.418 . S
Eu120 O138 2.373 . S
Eu120 O141 2.488 . S
Eu120 O142 2.471 . S
Eu120 O143 2.349 . S
Eu121 O130 2.373 1_655 S
Eu121 O134 2.488 . S
Eu121 O135 2.471 . S
Eu121 O136 2.349 . S
Eu121 O139 2.392 . S
Eu121 O140 2.418 . S
Eu121 C150 2.828 . S
C122 O140 1.244 . S
C122 O143 1.265 1_655 S
C123 C124 1.379 . S
C123 C127 1.373 . S
C123 C129 1.505 . S
C124 C123 1.379 . S
C124 C126 1.369 . S
C124 H152 0.930 . S
C125 C127 1.383 . S
C125 C128 1.382 . S
C125 H153 0.930 . S
C126 C124 1.369 . S
C126 C128 1.392 . S
C126 H154 0.930 . S
C127 C123 1.373 . S
C127 C125 1.383 . S
C127 H155 0.931 . S
C128 C125 1.382 . S
C128 C126 1.392 . S
C129 Eu120 2.828 . S
C129 C123 1.505 . S
C129 O141 1.249 . S
C129 O142 1.244 . S
O130 Eu121 2.373 1_455 S
O130 C132 1.258 . S
O131 Eu120 2.392 . S
O131 C132 1.242 . S
C132 O130 1.258 . S
C132 O131 1.242 . S
O133 Eu120 2.418 . S
O133 C137 1.244 . S
O134 Eu121 2.488 . S
O134 C150 1.249 . S
O135 Eu121 2.471 . S
O135 C150 1.244 . S
O136 Eu121 2.349 . S
O136 C137 1.265 1_655 S
C137 O133 1.244 . S
C137 O136 1.265 1_455 S
O138 Eu120 2.373 . S
O138 C151 1.258 1_455 S
O139 Eu121 2.392 . S
O139 C151 1.242 . S
O140 Eu121 2.418 . S
O140 C122 1.244 . S
O141 Eu120 2.488 . S
O141 C129 1.249 . S
O142 Eu120 2.471 . S
O142 C129 1.244 . S
O143 Eu120 2.349 . S
O143 C122 1.265 1_455 S
C144 C145 1.379 . S
C144 C148 1.373 . S
C144 C150 1.505 . S
C145 C144 1.379 . S
C145 C147 1.369 . S
C145 H156 0.930 . S
C146 C148 1.383 . S
C146 C149 1.382 . S
C146 H157 0.930 . S
C147 C145 1.369 . S
C147 C149 1.392 . S
C147 H158 0.930 . S
C148 C144 1.373 . S
C148 C146 1.383 . S
C148 H159 0.931 . S
C149 C146 1.382 . S
C149 C147 1.392 . S
C150 Eu121 2.828 . S
C150 O134 1.249 . S
C150 O135 1.244 . S
C150 C144 1.505 . S
C151 O138 1.258 1_655 S
C151 O139 1.242 . S
H152 C124 0.930 . S
H153 C125 0.930 . S
H154 C126 0.930 . S
H155 C127 0.931 . S
H156 C145 0.930 . S
H157 C146 0.930 . S
H158 C147 0.930 . S
H159 C148 0.931 . S
C160 C161 1.386 1_546 S
C160 C162 1.383 . S
C160 H176 0.951 . S
C161 C160 1.386 1_564 S
C161 C165 1.383 . S
C162 C160 1.383 . S
C162 C163 1.402 1_656 S
C162 H177 0.951 1_655 S
C163 C162 1.402 1_454 S
C163 C164 1.375 1_455 S
C163 C166 1.481 . S
C164 C163 1.375 1_655 S
C164 C165 1.367 1_545 S
C164 H178 0.951 . S
C165 C161 1.383 . S
C165 C164 1.367 1_565 S
C165 H179 0.950 . S
C166 C163 1.481 . S
C166 C167 1.297 . S
C166 H180 0.950 . S
C167 C166 1.297 . S
C167 C168 1.479 . S
C167 H181 0.950 1_554 S
C168 C167 1.479 . S
C168 C169 1.375 1_554 S
C168 C174 1.404 . S
C169 C168 1.375 1_556 S
C169 C170 1.369 . S
C169 H182 0.950 . S
C170 C169 1.369 . S
C170 C171 1.392 1_556 S
C170 H183 0.951 . S
C171 C170 1.392 1_554 S
C171 C173 1.384 . S
H172 C174 0.949 . S
C173 C171 1.384 . S
C173 C174 1.385 . S
C173 H175 0.950 . S
C174 C168 1.404 . S
C174 H172 0.949 . S
C174 C173 1.385 . S
H175 C173 0.950 . S
H176 C160 0.951 . S
H177 C162 0.951 1_455 S
H178 C164 0.951 . S
H179 C165 0.950 . S
H180 C166 0.950 . S
H181 C167 0.950 1_556 S
H182 C169 0.950 . S
H183 C170 0.951 . S
C184 C185 1.391 . S
C184 C186 1.383 1_655 S
C184 H200 0.951 . S
C185 C184 1.391 . S
C185 C189 1.378 1_655 S
C186 C184 1.383 1_455 S
C186 C187 1.402 1_565 S
C186 H201 0.956 1_455 S
C187 C186 1.402 1_545 S
C187 C188 1.375 1_545 S
C187 C190 1.481 . S
C188 C187 1.375 1_565 S
C188 C189 1.367 . S
C188 H202 0.951 1_565 S
C189 C185 1.378 1_455 S
C189 C188 1.367 . S
C189 H203 0.950 . S
C190 C187 1.481 . S
C190 C191 1.297 . S
C190 H204 0.950 . S
C191 C190 1.297 . S
C191 C192 1.479 . S
C191 H205 0.950 . S
C192 C191 1.479 . S
C192 C193 1.375 . S
C192 C198 1.404 . S
C193 C192 1.375 . S
C193 C194 1.369 . S
C193 H206 0.950 . S
C194 C193 1.369 . S
C194 C195 1.392 . S
C194 H207 0.951 . S
C195 C194 1.392 . S
C195 C197 1.384 . S
H196 C198 0.949 . S
C197 C195 1.384 . S
C197 C198 1.385 . S
C197 H199 0.950 . S
C198 C192 1.404 . S
C198 H196 0.949 . S
C198 C197 1.385 . S
H199 C197 0.950 . S
H200 C184 0.951 . S
H201 C186 0.956 1_655 S
H202 C188 0.951 1_545 S
H203 C189 0.950 . S
H204 C190 0.950 . S
H205 C191 0.950 . S
H206 C193 0.950 . S
H207 C194 0.951 . S
C208 C209 1.386 1_566 S
C208 C210 1.383 1_565 S
C208 H224 0.951 . S
C209 C208 1.386 1_544 S
C209 C213 1.383 . S
C210 C208 1.383 1_545 S
C210 C211 1.402 1_556 S
C210 H225 0.951 . S
C211 C210 1.402 1_554 S
C211 C212 1.375 . S
C211 C214 1.481 . S
C212 C211 1.375 . S
C212 C213 1.367 . S
C212 H226 0.951 . S
C213 C209 1.383 . S
C213 C212 1.367 . S
C213 H227 0.950 . S
C214 C211 1.481 . S
C214 C215 1.297 . S
C214 H228 0.950 . S
C215 C214 1.297 . S
C215 C216 1.479 . S
C215 H229 0.950 1_554 S
C216 C215 1.479 . S
C216 C217 1.375 1_554 S
C216 C222 1.404 . S
C217 C216 1.375 1_556 S
C217 C218 1.369 . S
C217 H230 0.950 . S
C218 C217 1.369 . S
C218 C219 1.392 1_556 S
C218 H231 0.951 . S
C219 C218 1.392 1_554 S
C219 C221 1.384 . S
H220 C222 0.949 . S
C221 C219 1.384 . S
C221 C222 1.385 . S
C221 H223 0.950 . S
C222 C216 1.404 . S
C222 H220 0.949 . S
C222 C221 1.385 . S
H223 C221 0.950 . S
H224 C208 0.951 . S
H225 C210 0.951 . S
H226 C212 0.951 . S
H227 C213 0.950 . S
H228 C214 0.950 . S
H229 C215 0.950 1_556 S
H230 C217 0.950 . S
H231 C218 0.951 . S
C232 C233 1.386 . S
C232 C234 1.383 . S
C232 H248 0.951 . S
C233 C232 1.386 . S
C233 C237 1.383 . S
C234 C232 1.383 . S
C234 C235 1.402 . S
C234 H249 0.951 . S
C235 C234 1.402 . S
C235 C236 1.375 . S
C235 C238 1.481 . S
C236 C235 1.375 . S
C236 C237 1.367 . S
C236 H250 0.951 . S
C237 C233 1.383 . S
C237 C236 1.367 . S
C237 H251 0.950 . S
C238 C235 1.481 . S
C238 C239 1.297 . S
C238 H252 0.950 . S
C239 C238 1.297 . S
C239 C240 1.479 . S
C239 H253 0.950 . S
C240 C239 1.479 . S
C240 C241 1.375 . S
C240 C246 1.404 . S
C241 C240 1.375 . S
C241 C242 1.369 . S
C241 H254 0.950 . S
C242 C241 1.369 . S
C242 C243 1.392 . S
C242 H255 0.951 . S
C243 C242 1.392 . S
C243 C245 1.378 . S
H244 C246 0.949 . S
C245 C243 1.378 . S
C245 C246 1.405 . S
C245 H247 0.937 1_455 S
C246 C240 1.404 . S
C246 H244 0.949 . S
C246 C245 1.405 . S
H247 C245 0.937 1_655 S
H248 C232 0.951 . S
H249 C234 0.951 . S
H250 C236 0.951 . S
H251 C237 0.950 . S
H252 C238 0.950 . S
H253 C239 0.950 . S
H254 C241 0.950 . S
H255 C242 0.951 . S
C256 C257 1.386 . S
C256 C258 1.383 . S
C256 H272 0.951 . S
C257 C256 1.386 . S
C257 C261 1.383 . S
C258 C256 1.383 . S
C258 C259 1.402 . S
C258 H273 0.951 . S
C259 C258 1.402 . S
C259 C260 1.375 . S
C259 C262 1.481 . S
C260 C259 1.375 . S
C260 C261 1.367 . S
C260 H274 0.951 . S
C261 C257 1.383 . S
C261 C260 1.367 . S
C261 H275 0.950 . S
C262 C259 1.481 . S
C262 C263 1.297 . S
C262 H276 0.950 . S
C263 C262 1.297 . S
C263 C264 1.479 . S
C263 H277 0.950 . S
C264 C263 1.479 . S
C264 C265 1.375 . S
C264 C270 1.404 . S
C265 C264 1.375 . S
C265 C266 1.369 . S
C265 H278 0.950 . S
C266 C265 1.369 . S
C266 C267 1.392 . S
C266 H279 0.951 . S
C267 C266 1.392 . S
C267 C269 1.384 . S
H268 C270 0.949 . S
C269 C267 1.384 . S
C269 C270 1.385 . S
C269 H271 0.950 . S
C270 C264 1.404 . S
C270 H268 0.949 . S
C270 C269 1.385 . S
H271 C269 0.950 . S
H272 C256 0.951 . S
H273 C258 0.951 . S
H274 C260 0.951 . S
H275 C261 0.950 . S
H276 C262 0.950 . S
H277 C263 0.950 . S
H278 C265 0.950 . S
H279 C266 0.951 . S
C280 C281 1.386 . S
C280 C282 1.383 . S
C280 H296 0.951 . S
C281 C280 1.386 . S
C281 C285 1.383 . S
C282 C280 1.383 . S
C282 C283 1.402 . S
C282 H297 0.951 . S
C283 C282 1.402 . S
C283 C284 1.375 1_455 S
C283 C286 1.481 1_455 S
C284 C283 1.375 1_655 S
C284 C285 1.367 1_655 S
C284 H298 0.951 . S
C285 C281 1.383 . S
C285 C284 1.367 1_455 S
C285 H299 0.950 . S
C286 C283 1.481 1_655 S
C286 C287 1.297 . S
C286 H300 0.950 . S
C287 C286 1.297 . S
C287 C288 1.479 . S
C287 H301 0.950 1_655 S
C288 C287 1.479 . S
C288 C289 1.375 . S
C288 C294 1.404 . S
C289 C288 1.375 . S
C289 C290 1.369 . S
C289 H302 0.949 . S
C290 C289 1.369 . S
C290 C291 1.392 . S
C290 H303 0.951 . S
C291 C290 1.392 . S
C291 C293 1.384 . S
H292 C294 0.949 . S
C293 C291 1.384 . S
C293 C294 1.385 . S
C293 H295 0.950 . S
C294 C288 1.404 . S
C294 H292 0.949 . S
C294 C293 1.385 . S
H295 C293 0.950 . S
H296 C280 0.951 . S
H297 C282 0.951 . S
H298 C284 0.951 . S
H299 C285 0.950 . S
H300 C286 0.950 . S
H301 C287 0.950 1_455 S
H302 C289 0.949 . S
H303 C290 0.951 . S
C304 C305 1.386 . S
C304 C306 1.383 . S
C304 H320 0.951 . S
C305 C304 1.386 . S
C305 C309 1.383 . S
C306 C304 1.383 . S
C306 C307 1.402 . S
C306 H321 0.951 . S
C307 C306 1.402 . S
C307 C308 1.375 . S
C307 C310 1.481 . S
C308 C307 1.375 . S
C308 C309 1.367 . S
C308 H322 0.951 . S
C309 C305 1.383 . S
C309 C308 1.367 . S
C309 H323 0.950 . S
C310 C307 1.481 . S
C310 C311 1.297 . S
C310 H324 0.950 . S
C311 C310 1.297 . S
C311 C312 1.479 . S
C311 H325 0.950 . S
C312 C311 1.479 . S
C312 C313 1.375 . S
C312 C318 1.404 . S
C313 C312 1.375 . S
C313 C314 1.369 . S
C313 H326 0.950 . S
C314 C313 1.369 . S
C314 C315 1.392 . S
C314 H327 0.951 . S
C315 C314 1.392 . S
C315 C317 1.384 . S
H316 C318 0.949 . S
C317 C315 1.384 . S
C317 C318 1.385 . S
C317 H319 0.950 . S
C318 C312 1.404 . S
C318 H316 0.949 . S
C318 C317 1.385 . S
H319 C317 0.950 . S
H320 C304 0.951 . S
H321 C306 0.951 . S
H322 C308 0.951 . S
H323 C309 0.950 . S
H324 C310 0.950 . S
H325 C311 0.950 . S
H326 C313 0.950 . S
H327 C314 0.951 . S
C328 C329 1.386 . S
C328 C330 1.383 . S
C328 H344 0.951 . S
C329 C328 1.386 . S
C329 C333 1.383 . S
C330 C328 1.383 . S
C330 C331 1.402 . S
C330 H345 0.951 . S
C331 C330 1.402 . S
C331 C332 1.375 . S
C331 C334 1.481 . S
C332 C331 1.375 . S
C332 C333 1.367 . S
C332 H346 0.951 . S
C333 C329 1.383 . S
C333 C332 1.367 . S
C333 H347 0.950 . S
C334 C331 1.481 . S
C334 C335 1.297 1_565 S
C334 H348 0.950 1_565 S
C335 C334 1.297 1_545 S
C335 C336 1.479 . S
C335 H349 0.950 1_545 S
C336 C335 1.479 . S
C336 C337 1.375 . S
C336 C342 1.404 . S
C337 C336 1.375 . S
C337 C338 1.369 . S
C337 H350 0.950 . S
C338 C337 1.369 . S
C338 C339 1.392 . S
C338 H351 0.951 . S
C339 C338 1.392 . S
C339 C341 1.384 . S
H340 C342 0.949 . S
C341 C339 1.384 . S
C341 C342 1.385 . S
C341 H343 0.950 . S
C342 C336 1.404 . S
C342 H340 0.949 . S
C342 C341 1.385 . S
H343 C341 0.950 . S
H344 C328 0.951 . S
H345 C330 0.951 . S
H346 C332 0.951 . S
H347 C333 0.950 . S
H348 C334 0.950 1_545 S
H349 C335 0.950 1_565 S
H350 C337 0.950 . S
H351 C338 0.951 . S
C352 C353 1.386 . S
C352 C354 1.383 . S
C352 H368 0.951 . S
C353 C352 1.386 . S
C353 C357 1.383 . S
C354 C352 1.383 . S
C354 C355 1.402 . S
C354 H369 0.951 . S
C355 C354 1.402 . S
C355 C356 1.375 . S
C355 C358 1.481 . S
C356 C355 1.375 . S
C356 C357 1.367 . S
C356 H370 0.951 . S
C357 C353 1.383 . S
C357 C356 1.367 . S
C357 H371 0.950 . S
C358 C355 1.481 . S
C358 C359 1.297 . S
C358 H372 0.950 . S
C359 C358 1.297 . S
C359 C360 1.479 . S
C359 H373 0.950 . S
C360 C359 1.479 . S
C360 C361 1.375 . S
C360 C366 1.404 . S
C361 C360 1.375 . S
C361 C362 1.369 . S
C361 H374 0.950 . S
C362 C361 1.369 . S
C362 C363 1.392 . S
C362 H375 0.951 . S
C363 C362 1.392 . S
C363 C365 1.384 . S
H364 C366 0.949 . S
C365 C363 1.384 . S
C365 C366 1.385 . S
C365 H367 0.950 . S
C366 C360 1.404 . S
C366 H364 0.949 . S
C366 C365 1.385 . S
H367 C365 0.950 . S
H368 C352 0.951 . S
H369 C354 0.951 . S
H370 C356 0.951 . S
H371 C357 0.950 . S
H372 C358 0.950 . S
H373 C359 0.950 . S
H374 C361 0.950 . S
H375 C362 0.951 . S
C376 C377 1.386 . S
C376 C378 1.383 . S
C376 H392 0.951 . S
C377 C376 1.386 . S
C377 C381 1.383 . S
C378 C376 1.383 . S
C378 C379 1.402 1_545 S
C378 H393 0.951 1_545 S
C379 C378 1.402 1_565 S
C379 C380 1.375 1_565 S
C379 C382 1.481 . S
C380 C379 1.375 1_545 S
C380 C381 1.367 . S
C380 H394 0.951 1_545 S
C381 C377 1.383 . S
C381 C380 1.367 . S
C381 H395 0.950 . S
C382 C379 1.481 . S
C382 C383 1.297 . S
C382 H396 0.950 . S
C383 C382 1.297 . S
C383 C384 1.479 . S
C383 H397 0.950 . S
C384 C383 1.479 . S
C384 C385 1.375 . S
C384 C390 1.404 . S
C385 C384 1.375 . S
C385 C386 1.369 . S
C385 H398 0.950 . S
C386 C385 1.369 . S
C386 C387 1.392 . S
C386 H399 0.951 . S
C387 C386 1.392 . S
C387 C389 1.384 . S
H388 C390 0.949 . S
C389 C387 1.384 . S
C389 C390 1.385 . S
C389 H391 0.950 . S
C390 C384 1.404 . S
C390 H388 0.949 . S
C390 C389 1.385 . S
H391 C389 0.950 . S
H392 C376 0.951 . S
H393 C378 0.951 1_565 S
H394 C380 0.951 1_565 S
H395 C381 0.950 . S
H396 C382 0.950 . S
H397 C383 0.950 . S
H398 C385 0.950 . S
H399 C386 0.951 . S
C400 C401 1.386 . S
C400 C402 1.383 . S
C400 H416 0.951 . S
C401 C400 1.386 . S
C401 C405 1.383 . S
C402 C400 1.383 . S
C402 C403 1.402 . S
C402 H417 0.951 . S
C403 C402 1.402 . S
C403 C404 1.375 . S
C403 C406 1.481 . S
C404 C403 1.375 . S
C404 C405 1.367 . S
C404 H418 0.951 . S
C405 C401 1.383 . S
C405 C404 1.367 . S
C405 H419 0.950 . S
C406 C403 1.481 . S
C406 C407 1.297 . S
C406 H420 0.950 . S
C407 C406 1.297 . S
C407 C408 1.479 . S
C407 H421 0.950 . S
C408 C407 1.479 . S
C408 C409 1.375 . S
C408 C414 1.404 . S
C409 C408 1.375 . S
C409 C410 1.369 . S
C409 H422 0.950 . S
C410 C409 1.369 . S
C410 C411 1.392 . S
C410 H423 0.951 . S
C411 C410 1.392 . S
C411 C413 1.384 . S
H412 C414 0.949 . S
C413 C411 1.384 . S
C413 C414 1.385 . S
C413 H415 0.950 . S
C414 C408 1.404 . S
C414 H412 0.949 . S
C414 C413 1.385 . S
H415 C413 0.950 . S
H416 C400 0.951 . S
H417 C402 0.951 . S
H418 C404 0.951 . S
H419 C405 0.950 . S
H420 C406 0.950 . S
H421 C407 0.950 . S
H422 C409 0.950 . S
H423 C410 0.951 . S
C424 C425 1.386 . S
C424 C426 1.383 . S
C424 H440 0.951 . S
C425 C424 1.386 . S
C425 C429 1.383 . S
C426 C424 1.383 . S
C426 C427 1.402 . S
C426 H441 0.951 . S
C427 C426 1.402 . S
C427 C428 1.375 . S
C427 C430 1.481 . S
C428 C427 1.375 . S
C428 C429 1.367 . S
C428 H442 0.951 . S
C429 C425 1.383 . S
C429 C428 1.367 . S
C429 H443 0.950 . S
C430 C427 1.481 . S
C430 C431 1.297 . S
C430 H444 0.950 . S
C431 C430 1.297 . S
C431 C432 1.479 . S
C431 H445 0.950 . S
C432 C431 1.479 . S
C432 C433 1.375 . S
C432 C438 1.404 . S
C433 C432 1.375 . S
C433 C434 1.369 . S
C433 H446 0.950 . S
C434 C433 1.369 . S
C434 C435 1.392 1_655 S
C434 H447 0.951 . S
C435 C434 1.392 1_455 S
C435 C437 1.384 . S
H436 C438 0.949 . S
C437 C435 1.384 . S
C437 C438 1.385 1_455 S
C437 H439 0.950 . S
C438 C432 1.404 . S
C438 H436 0.949 . S
C438 C437 1.385 1_655 S
H439 C437 0.950 . S
H440 C424 0.951 . S
H441 C426 0.951 . S
H442 C428 0.951 . S
H443 C429 0.950 . S
H444 C430 0.950 . S
H445 C431 0.950 . S
H446 C433 0.950 . S
H447 C434 0.951 . S
C161 C97 0.585 1_565 S
C171 C17 0.782 . S
C185 C137 0.622 1_655 S
C195 C57 0.654 . S
C209 C82 1.156 1_545 S
C219 C2 1.124 . S
C233 C42 1.154 . S
C243 C122 1.132 1_455 S
C257 C71 4.660 . S
C267 C31 4.646 . S
C281 C52 4.428 . S
C291 C92 4.408 . S
C305 C151 4.649 . S
C315 C111 4.651 . S
C329 C132 4.419 . S
C339 C12 4.412 . S
C353 C109 0.902 . S
C363 C149 0.939 . S
C377 C8 1.155 . S
C387 C128 1.141 . S
C401 C69 0.825 . S
C411 C29 0.899 . S
C425 C88 1.174 . S
C435 C48 1.155 . S
