# Generated by pormake.
# Topology smd, (6)-cn, num edge types: 1
# Building blocks:
#     Node 0, Type 0, BuildingBlock: MIFKUJ_clean_sbu_0, # of connection points: 6
#     Node 1, Type 0, BuildingBlock: MIFKUJ_clean_sbu_0, # of connection points: 6
#     Node 2, Type 0, BuildingBlock: MIFKUJ_clean_sbu_0, # of connection points: 6
#     Node 3, Type 0, BuildingBlock: MIFKUJ_clean_sbu_0, # of connection points: 6
#     Node 4, Type 0, BuildingBlock: MIFKUJ_clean_sbu_0, # of connection points: 6
#     Node 5, Type 0, BuildingBlock: MIFKUJ_clean_sbu_0, # of connection points: 6
#     Node 6, Type 0, BuildingBlock: MIFKUJ_clean_sbu_0, # of connection points: 6
#     Node 7, Type 0, BuildingBlock: MIFKUJ_clean_sbu_0, # of connection points: 6
#     Node 8, Type 0, BuildingBlock: MIFKUJ_clean_sbu_0, # of connection points: 6
#     Node 9, Type 0, BuildingBlock: MIFKUJ_clean_sbu_0, # of connection points: 6
#     Node 10, Type 0, BuildingBlock: MIFKUJ_clean_sbu_0, # of connection points: 6
#     Node 11, Type 0, BuildingBlock: MIFKUJ_clean_sbu_0, # of connection points: 6
#     Node 12, Type 0, BuildingBlock: MIFKUJ_clean_sbu_0, # of connection points: 6
#     Node 13, Type 0, BuildingBlock: MIFKUJ_clean_sbu_0, # of connection points: 6
#     Node 14, Type 0, BuildingBlock: MIFKUJ_clean_sbu_0, # of connection points: 6
#     Node 15, Type 0, BuildingBlock: MIFKUJ_clean_sbu_0, # of connection points: 6
#     Node 16, Type 0, BuildingBlock: MIFKUJ_clean_sbu_0, # of connection points: 6
#     Node 17, Type 0, BuildingBlock: MIFKUJ_clean_sbu_0, # of connection points: 6
#     Edge 18, Type (0, 0), BuildingBlock: AJUNOK_clean_linker_0, # of connection points: 2
#     Edge 19, Type (0, 0), BuildingBlock: AJUNOK_clean_linker_0, # of connection points: 2
#     Edge 20, Type (0, 0), BuildingBlock: AJUNOK_clean_linker_0, # of connection points: 2
#     Edge 21, Type (0, 0), BuildingBlock: AJUNOK_clean_linker_0, # of connection points: 2
#     Edge 22, Type (0, 0), BuildingBlock: AJUNOK_clean_linker_0, # of connection points: 2
#     Edge 23, Type (0, 0), BuildingBlock: AJUNOK_clean_linker_0, # of connection points: 2
#     Edge 24, Type (0, 0), BuildingBlock: AJUNOK_clean_linker_0, # of connection points: 2
#     Edge 25, Type (0, 0), BuildingBlock: AJUNOK_clean_linker_0, # of connection points: 2
#     Edge 26, Type (0, 0), BuildingBlock: AJUNOK_clean_linker_0, # of connection points: 2
#     Edge 27, Type (0, 0), BuildingBlock: AJUNOK_clean_linker_0, # of connection points: 2
#     Edge 28, Type (0, 0), BuildingBlock: AJUNOK_clean_linker_0, # of connection points: 2
#     Edge 29, Type (0, 0), BuildingBlock: AJUNOK_clean_linker_0, # of connection points: 2
#     Edge 30, Type (0, 0), BuildingBlock: AJUNOK_clean_linker_0, # of connection points: 2
#     Edge 31, Type (0, 0), BuildingBlock: AJUNOK_clean_linker_0, # of connection points: 2
#     Edge 32, Type (0, 0), BuildingBlock: AJUNOK_clean_linker_0, # of connection points: 2
#     Edge 33, Type (0, 0), BuildingBlock: AJUNOK_clean_linker_0, # of connection points: 2
#     Edge 34, Type (0, 0), BuildingBlock: AJUNOK_clean_linker_0, # of connection points: 2
#     Edge 35, Type (0, 0), BuildingBlock: AJUNOK_clean_linker_0, # of connection points: 2
#     Edge 36, Type (0, 0), BuildingBlock: AJUNOK_clean_linker_0, # of connection points: 2
#     Edge 37, Type (0, 0), BuildingBlock: AJUNOK_clean_linker_0, # of connection points: 2
#     Edge 38, Type (0, 0), BuildingBlock: AJUNOK_clean_linker_0, # of connection points: 2
#     Edge 39, Type (0, 0), BuildingBlock: AJUNOK_clean_linker_0, # of connection points: 2
#     Edge 40, Type (0, 0), BuildingBlock: AJUNOK_clean_linker_0, # of connection points: 2
#     Edge 41, Type (0, 0), BuildingBlock: AJUNOK_clean_linker_0, # of connection points: 2
#     Edge 42, Type (0, 0), BuildingBlock: AJUNOK_clean_linker_0, # of connection points: 2
#     Edge 43, Type (0, 0), BuildingBlock: AJUNOK_clean_linker_0, # of connection points: 2
#     Edge 44, Type (0, 0), BuildingBlock: AJUNOK_clean_linker_0, # of connection points: 2
#     Edge 45, Type (0, 0), BuildingBlock: AJUNOK_clean_linker_0, # of connection points: 2
#     Edge 46, Type (0, 0), BuildingBlock: AJUNOK_clean_linker_0, # of connection points: 2
#     Edge 47, Type (0, 0), BuildingBlock: AJUNOK_clean_linker_0, # of connection points: 2
#     Edge 48, Type (0, 0), BuildingBlock: AJUNOK_clean_linker_0, # of connection points: 2
#     Edge 49, Type (0, 0), BuildingBlock: AJUNOK_clean_linker_0, # of connection points: 2
#     Edge 50, Type (0, 0), BuildingBlock: AJUNOK_clean_linker_0, # of connection points: 2
#     Edge 51, Type (0, 0), BuildingBlock: AJUNOK_clean_linker_0, # of connection points: 2
#     Edge 52, Type (0, 0), BuildingBlock: AJUNOK_clean_linker_0, # of connection points: 2
#     Edge 53, Type (0, 0), BuildingBlock: AJUNOK_clean_linker_0, # of connection points: 2
#     Edge 54, Type (0, 0), BuildingBlock: AJUNOK_clean_linker_0, # of connection points: 2
#     Edge 55, Type (0, 0), BuildingBlock: AJUNOK_clean_linker_0, # of connection points: 2
#     Edge 56, Type (0, 0), BuildingBlock: AJUNOK_clean_linker_0, # of connection points: 2
#     Edge 57, Type (0, 0), BuildingBlock: AJUNOK_clean_linker_0, # of connection points: 2
#     Edge 58, Type (0, 0), BuildingBlock: AJUNOK_clean_linker_0, # of connection points: 2
#     Edge 59, Type (0, 0), BuildingBlock: AJUNOK_clean_linker_0, # of connection points: 2
#     Edge 60, Type (0, 0), BuildingBlock: AJUNOK_clean_linker_0, # of connection points: 2
#     Edge 61, Type (0, 0), BuildingBlock: AJUNOK_clean_linker_0, # of connection points: 2
#     Edge 62, Type (0, 0), BuildingBlock: AJUNOK_clean_linker_0, # of connection points: 2
#     Edge 63, Type (0, 0), BuildingBlock: AJUNOK_clean_linker_0, # of connection points: 2
#     Edge 64, Type (0, 0), BuildingBlock: AJUNOK_clean_linker_0, # of connection points: 2
#     Edge 65, Type (0, 0), BuildingBlock: AJUNOK_clean_linker_0, # of connection points: 2
#     Edge 66, Type (0, 0), BuildingBlock: AJUNOK_clean_linker_0, # of connection points: 2
#     Edge 67, Type (0, 0), BuildingBlock: AJUNOK_clean_linker_0, # of connection points: 2
#     Edge 68, Type (0, 0), BuildingBlock: AJUNOK_clean_linker_0, # of connection points: 2
#     Edge 69, Type (0, 0), BuildingBlock: AJUNOK_clean_linker_0, # of connection points: 2
#     Edge 70, Type (0, 0), BuildingBlock: AJUNOK_clean_linker_0, # of connection points: 2
#     Edge 71, Type (0, 0), BuildingBlock: AJUNOK_clean_linker_0, # of connection points: 2
# Relax obj value: 0.196
# Max RMSD: 0.248
# Mean RMSD: 0.248
data_MOF--net-smd--node1-MIFKUJ_clean_sbu_0--edge1-AJUNOK_clean_linker_0
_symmetry_space_group_name_H-M    P1
_symmetry_Int_Tables_number       1
_symmetry_cell_setting            triclinic
loop_
_symmetry_equiv_pos_as_xyz
'x, y, z'
_cell_length_a     53.245404
_cell_length_b     53.25435
_cell_length_c     14.443068
_cell_angle_alpha  90.085171
_cell_angle_beta   89.964452
_cell_angle_gamma 119.99009
loop_
_atom_site_label
_atom_site_type_symbol
_atom_site_fract_x
_atom_site_fract_y
_atom_site_fract_z
_atom_type_partial_charge
Zn0 Zn 0.0164 0.22815 0.62303 0.0
Zn1 Zn 0.01848 0.20894 0.39506 0.0
C2 C 0.99861 0.26709 0.70129 0.0
O3 O 0.02074 0.27413 0.75657 0.0
C4 C 0.06537 0.19659 0.38847 0.0
O5 O 0.04973 0.17985 0.31992 0.0
O6 O 0.03216 0.22782 0.74872 0.0
O7 O 0.98716 0.18614 0.59295 0.0
O8 O 0.98367 0.17417 0.44502 0.0
C9 C 0.01303 0.21358 0.80953 0.0
O10 O 0.98562 0.19981 0.78461 0.0
O11 O 0.99276 0.24822 0.63831 0.0
C12 C 0.03577 0.22205 0.20474 0.0
O13 O 0.05945 0.24324 0.24176 0.0
O14 O 0.01544 0.20458 0.25754 0.0
O15 O 0.0209 0.24715 0.42037 0.0
O16 O 0.04963 0.25406 0.53793 0.0
O17 O 0.05575 0.21035 0.43471 0.0
C18 C 0.97517 0.16779 0.52805 0.0
C19 C 0.0418 0.26425 0.47179 0.0
Zn20 Zn 0.79302 0.78618 0.55665 0.0
Zn21 Zn 0.81196 0.81569 0.32238 0.0
C22 C 0.75548 0.73304 0.65275 0.0
O23 O 0.74641 0.74939 0.69166 0.0
C24 C 0.82319 0.87435 0.34176 0.0
O25 O 0.83792 0.87775 0.26527 0.0
O26 O 0.79627 0.80703 0.67688 0.0
O27 O 0.83334 0.79711 0.5125 0.0
O28 O 0.84605 0.81331 0.36964 0.0
C29 C 0.81432 0.80784 0.73604 0.0
O30 O 0.83091 0.79707 0.71316 0.0
O31 O 0.7752 0.74407 0.59149 0.0
C32 C 0.80218 0.82391 0.12769 0.0
O33 O 0.77846 0.82292 0.15836 0.0
O34 O 0.81921 0.82205 0.18524 0.0
O35 O 0.77296 0.77928 0.3331 0.0
O36 O 0.7633 0.78817 0.47387 0.0
O37 O 0.81043 0.84959 0.38031 0.0
C38 C 0.85174 0.80608 0.44705 0.0
C39 C 0.75478 0.7751 0.39664 0.0
Zn40 Zn 0.24975 0.02658 0.56948 0.0
Zn41 Zn 0.21715 0.01037 0.33411 0.0
C42 C 0.30231 0.03685 0.65264 0.0
O43 O 0.28399 0.01117 0.6863 0.0
C44 C 0.16184 0.97233 0.43162 0.0
O45 O 0.16511 0.99613 0.47028 0.0
O46 O 0.2325 0.01712 0.69796 0.0
O47 O 0.23956 0.05531 0.5157 0.0
O48 O 0.21895 0.04721 0.37762 0.0
C49 C 0.24192 0.03937 0.74975 0.0
O50 O 0.25929 0.06491 0.71335 0.0
O51 O 0.29303 0.04811 0.59399 0.0
C52 C 0.23168 0.03314 0.15151 0.0
O53 O 0.25043 0.05598 0.19884 0.0
O54 O 0.21422 0.01035 0.19531 0.0
O55 O 0.25247 0.00659 0.3578 0.0
O56 O 0.24046 0.9899 0.49969 0.0
O57 O 0.18115 0.97398 0.37617 0.0
C58 C 0.22886 0.06275 0.44984 0.0
C59 C 0.25368 0.99173 0.42448 0.0
Zn60 Zn 0.01189 0.81702 0.61672 0.0
Zn61 Zn 0.02328 0.79826 0.38441 0.0
C62 C 0.96679 0.82026 0.50547 0.0
O63 O 0.98756 0.83524 0.4456 0.0
C64 C 0.0362 0.75263 0.34467 0.0
O65 O 0.00782 0.73646 0.34718 0.0
O66 O 0.01571 0.82444 0.75308 0.0
O67 O 0.01339 0.78029 0.60081 0.0
O68 O 0.99022 0.7705 0.46819 0.0
C69 C 0.9967 0.80795 0.8111 0.0
O70 O 0.97288 0.78528 0.78072 0.0
O71 O 0.97271 0.81101 0.5786 0.0
C72 C 0.02523 0.81715 0.20213 0.0
O73 O 0.05248 0.83298 0.22734 0.0
O74 O 0.00699 0.79984 0.26068 0.0
O75 O 0.05151 0.83989 0.42328 0.0
O76 O 0.04504 0.85261 0.5631 0.0
O77 O 0.04783 0.77976 0.35878 0.0
C78 C 0.99702 0.76197 0.54103 0.0
C79 C 0.05873 0.85877 0.48709 0.0
Zn80 Zn 0.2244 0.21697 0.59744 0.0
Zn81 Zn 0.24346 0.24546 0.36676 0.0
C82 C 0.21676 0.16527 0.49427 0.0
O83 O 0.19843 0.16841 0.44155 0.0
C84 C 0.28487 0.30313 0.31213 0.0
O85 O 0.29922 0.29001 0.28856 0.0
O86 O 0.21745 0.21389 0.73351 0.0
O87 O 0.262 0.25439 0.58219 0.0
O88 O 0.27233 0.24163 0.44936 0.0
C89 C 0.23476 0.21246 0.79072 0.0
O90 O 0.25757 0.21177 0.75921 0.0
O91 O 0.22944 0.18313 0.55994 0.0
C92 C 0.22804 0.23306 0.18225 0.0
O93 O 0.21363 0.24592 0.20853 0.0
O94 O 0.24378 0.22967 0.24121 0.0
O95 O 0.20108 0.22891 0.39991 0.0
O96 O 0.18859 0.21451 0.54454 0.0
O97 O 0.25973 0.28843 0.34725 0.0
C98 C 0.28069 0.25583 0.52466 0.0
C99 C 0.18219 0.21874 0.46382 0.0
Zn100 Zn 0.81238 0.0133 0.60598 0.0
Zn101 Zn 0.78529 0.00861 0.3732 0.0
C102 C 0.87234 0.05685 0.60872 0.0
O103 O 0.8724 0.03953 0.67325 0.0
C104 C 0.72895 0.99204 0.29899 0.0
O105 O 0.74281 0.01837 0.26477 0.0
O106 O 0.8149 0.00928 0.74244 0.0
O107 O 0.77703 0.01762 0.59143 0.0
O108 O 0.78927 0.04075 0.4583 0.0
C109 C 0.81743 0.0289 0.79801 0.0
O110 O 0.81911 0.05261 0.76442 0.0
O111 O 0.84882 0.04979 0.56599 0.0
C112 C 0.799 0.00535 0.19117 0.0
O113 O 0.7854 0.97813 0.21784 0.0
O114 O 0.80258 0.02481 0.24925 0.0
O115 O 0.79928 0.981 0.40765 0.0
O116 O 0.8114 0.97818 0.55178 0.0
O117 O 0.74252 0.98304 0.34865 0.0
C118 C 0.77542 0.03486 0.53428 0.0
C119 C 0.80749 0.96949 0.46853 0.0
Zn120 Zn 0.67444 0.57667 0.95481 0.0
Zn121 Zn 0.69606 0.55284 0.71148 0.0
C122 C 0.65573 0.61359 0.02743 0.0
O123 O 0.68396 0.63101 0.02646 0.0
C124 C 0.74099 0.5444 0.80746 0.0
O125 O 0.72406 0.5355 0.8806 0.0
O126 O 0.69599 0.57682 0.06946 0.0
O127 O 0.65203 0.53601 0.90624 0.0
O128 O 0.66073 0.52009 0.77439 0.0
C129 C 0.67873 0.56009 0.13131 0.0
O130 O 0.65096 0.54491 0.11148 0.0
O131 O 0.64537 0.58755 0.00017 0.0
C132 C 0.70946 0.56097 0.51805 0.0
O133 O 0.73552 0.57835 0.55096 0.0
O134 O 0.68878 0.54676 0.57456 0.0
O135 O 0.70627 0.59437 0.72999 0.0
O136 O 0.69788 0.60865 0.86501 0.0
O137 O 0.73248 0.55124 0.73463 0.0
C138 C 0.6461 0.51588 0.84819 0.0
C139 C 0.70788 0.61414 0.78317 0.0
Zn140 Zn 0.45745 0.11031 0.9702 0.0
Zn141 Zn 0.48147 0.15573 0.73035 0.0
C142 C 0.42615 0.0579 0.07654 0.0
O143 O 0.4161 0.07298 0.11836 0.0
C144 C 0.49665 0.21621 0.72427 0.0
O145 O 0.51134 0.21631 0.65108 0.0
O146 O 0.45777 0.13226 0.08525 0.0
O147 O 0.49817 0.12724 0.92226 0.0
O148 O 0.51387 0.15123 0.78937 0.0
C149 C 0.47476 0.13251 0.14773 0.0
O150 O 0.49052 0.12046 0.12911 0.0
O151 O 0.44495 0.06965 0.01269 0.0
C152 C 0.47032 0.15906 0.53648 0.0
O153 O 0.44873 0.16133 0.57114 0.0
O154 O 0.48806 0.15745 0.59185 0.0
O155 O 0.43979 0.12368 0.74263 0.0
O156 O 0.42582 0.10191 0.87907 0.0
O157 O 0.48328 0.1931 0.7718 0.0
C158 C 0.5181 0.14071 0.86295 0.0
C159 C 0.4202 0.10566 0.79651 0.0
Zn160 Zn 0.91278 0.34091 0.93857 0.0
Zn161 Zn 0.88236 0.33195 0.70471 0.0
C162 C 0.96755 0.35693 0.02238 0.0
O163 O 0.95205 0.33057 0.05559 0.0
C164 C 0.8231 0.28598 0.7195 0.0
O165 O 0.82057 0.29931 0.64672 0.0
O166 O 0.89355 0.32307 0.05994 0.0
O167 O 0.89899 0.3684 0.89926 0.0
O168 O 0.8841 0.36777 0.75583 0.0
C169 C 0.89479 0.34066 0.12174 0.0
O170 O 0.90669 0.36827 0.10054 0.0
O171 O 0.95532 0.36651 0.9688 0.0
C172 C 0.87406 0.31319 0.51343 0.0
O173 O 0.87211 0.28964 0.54935 0.0
O174 O 0.87721 0.33347 0.56729 0.0
O175 O 0.91875 0.3294 0.71495 0.0
O176 O 0.91089 0.30967 0.85383 0.0
O177 O 0.84778 0.29607 0.75797 0.0
C178 C 0.88977 0.37852 0.83671 0.0
C179 C 0.92332 0.31486 0.77538 0.0
Zn180 Zn 0.67605 0.14074 0.96884 0.0
Zn181 Zn 0.68184 0.11643 0.73643 0.0
C182 C 0.63103 0.1548 0.95417 0.0
O183 O 0.64741 0.17331 0.01813 0.0
C184 C 0.70181 0.08304 0.6306 0.0
O185 O 0.68038 0.07847 0.57525 0.0
O186 O 0.67753 0.14753 0.10699 0.0
O187 O 0.6753 0.10273 0.95834 0.0
O188 O 0.65125 0.08813 0.82672 0.0
C189 C 0.65765 0.12951 0.16026 0.0
O190 O 0.63515 0.10688 0.12345 0.0
O191 O 0.63922 0.13832 0.91764 0.0
C192 C 0.68187 0.1361 0.55524 0.0
O193 O 0.7094 0.15131 0.57804 0.0
O194 O 0.66394 0.11921 0.61554 0.0
O195 O 0.71118 0.15755 0.77565 0.0
O196 O 0.71168 0.17444 0.91619 0.0
O197 O 0.70612 0.09786 0.70413 0.0
C198 C 0.65917 0.08245 0.90321 0.0
C199 C 0.72228 0.17778 0.83546 0.0
Zn200 Zn 0.89323 0.53825 0.94606 0.0
Zn201 Zn 0.91455 0.58499 0.70656 0.0
C202 C 0.87795 0.47765 0.94305 0.0
O203 O 0.86532 0.4769 0.02195 0.0
C204 C 0.95184 0.64043 0.62786 0.0
O205 O 0.96963 0.63007 0.63053 0.0
O206 O 0.88637 0.53583 0.08538 0.0
O207 O 0.93439 0.57068 0.93144 0.0
O208 O 0.94684 0.59425 0.79747 0.0
C209 C 0.90194 0.5325 0.14554 0.0
O210 O 0.92313 0.52847 0.11748 0.0
O211 O 0.89057 0.50126 0.89779 0.0
C212 C 0.89508 0.55998 0.53234 0.0
O213 O 0.8785 0.57099 0.55259 0.0
O214 O 0.9134 0.56186 0.59269 0.0
O215 O 0.87463 0.56966 0.76093 0.0
O216 O 0.86164 0.54422 0.89138 0.0
O217 O 0.9259 0.62464 0.65586 0.0
C218 C 0.9533 0.58973 0.87817 0.0
C219 C 0.85597 0.55581 0.82356 0.0
Zn220 Zn 0.48738 0.35985 0.94937 0.0
Zn221 Zn 0.45691 0.35153 0.71514 0.0
C222 C 0.54685 0.4037 0.93828 0.0
O223 O 0.54834 0.38706 0.0025 0.0
C224 C 0.40272 0.33024 0.61386 0.0
O225 O 0.41877 0.35164 0.5574 0.0
O226 O 0.49206 0.3577 0.08663 0.0
O227 O 0.45128 0.36282 0.93917 0.0
O228 O 0.45902 0.38279 0.8006 0.0
C229 C 0.49461 0.37782 0.14013 0.0
O230 O 0.4957 0.40093 0.10372 0.0
O231 O 0.52247 0.39615 0.90083 0.0
C232 C 0.47486 0.3515 0.5324 0.0
O233 O 0.46167 0.32378 0.55308 0.0
O234 O 0.47668 0.36936 0.5942 0.0
O235 O 0.47118 0.32409 0.75335 0.0
O236 O 0.48598 0.3244 0.89678 0.0
O237 O 0.41401 0.3262 0.68588 0.0
C238 C 0.44663 0.37741 0.87917 0.0
C239 C 0.48068 0.31405 0.81539 0.0
Zn240 Zn 0.34383 0.89924 0.29884 0.0
Zn241 Zn 0.34769 0.87768 0.06631 0.0
C242 C 0.30682 0.91948 0.38044 0.0
O243 O 0.30399 0.90181 0.44806 0.0
C244 C 0.39397 0.86433 0.07232 0.0
O245 O 0.38082 0.84912 0.99815 0.0
O246 O 0.36021 0.90022 0.42566 0.0
O247 O 0.31501 0.85731 0.26661 0.0
O248 O 0.31163 0.84434 0.11898 0.0
C249 C 0.34583 0.87954 0.48178 0.0
O250 O 0.3212 0.85745 0.45398 0.0
O251 O 0.32177 0.92095 0.30986 0.0
C252 C 0.36654 0.89019 0.87811 0.0
O253 O 0.38895 0.91229 0.91732 0.0
O254 O 0.34609 0.87189 0.92898 0.0
O255 O 0.353 0.91737 0.08303 0.0
O256 O 0.37692 0.92387 0.21309 0.0
O257 O 0.38323 0.87769 0.11481 0.0
C258 C 0.30318 0.83864 0.20239 0.0
C259 C 0.37079 0.93425 0.14324 0.0
Zn260 Zn 0.1291 0.43975 0.30114 0.0
Zn261 Zn 0.14644 0.48471 0.06226 0.0
C262 C 0.09313 0.38676 0.39114 0.0
O263 O 0.07688 0.39888 0.39417 0.0
C264 C 0.15897 0.54452 0.06917 0.0
O265 O 0.16988 0.54563 0.9867 0.0
O266 O 0.12958 0.46305 0.41359 0.0
O267 O 0.16888 0.4549 0.24681 0.0
O268 O 0.17884 0.47918 0.11426 0.0
C269 C 0.14868 0.46695 0.47385 0.0
O270 O 0.16732 0.4584 0.45382 0.0
O271 O 0.11816 0.40072 0.35469 0.0
C272 C 0.13512 0.48647 0.86331 0.0
O273 O 0.1099 0.48231 0.89208 0.0
O274 O 0.15379 0.48895 0.92313 0.0
O275 O 0.10529 0.4516 0.07474 0.0
O276 O 0.09649 0.42907 0.21044 0.0
O277 O 0.14838 0.521 0.11485 0.0
C278 C 0.18621 0.46854 0.18078 0.0
C279 C 0.08811 0.43243 0.13139 0.0
Zn280 Zn 0.57313 0.68637 0.26209 0.0
Zn281 Zn 0.54545 0.68196 0.03153 0.0
C282 C 0.62995 0.70402 0.34194 0.0
O283 O 0.61453 0.6844 0.40444 0.0
C284 C 0.49347 0.6397 0.13571 0.0
O285 O 0.49879 0.66168 0.18966 0.0
O286 O 0.55639 0.67071 0.38766 0.0
O287 O 0.56116 0.71601 0.23081 0.0
O288 O 0.5459 0.7165 0.08858 0.0
C289 C 0.55919 0.6894 0.44774 0.0
O290 O 0.57171 0.71678 0.42312 0.0
O291 O 0.61708 0.70854 0.27531 0.0
C292 C 0.53985 0.6654 0.84166 0.0
O293 O 0.53731 0.64173 0.87872 0.0
O294 O 0.54298 0.68583 0.89469 0.0
O295 O 0.58162 0.67968 0.04969 0.0
O296 O 0.56376 0.65322 0.17449 0.0
O297 O 0.51028 0.64378 0.06783 0.0
C298 C 0.55218 0.72688 0.16989 0.0
C299 C 0.58051 0.66067 0.10493 0.0
Zn300 Zn 0.34785 0.48062 0.32101 0.0
Zn301 Zn 0.35846 0.46346 0.08616 0.0
C302 C 0.30274 0.48401 0.20895 0.0
O303 O 0.32327 0.49853 0.14794 0.0
C304 C 0.37507 0.42715 0.98441 0.0
O305 O 0.35103 0.42022 0.93941 0.0
O306 O 0.3508 0.48738 0.45808 0.0
O307 O 0.35001 0.44428 0.30384 0.0
O308 O 0.32672 0.43466 0.17156 0.0
C309 C 0.33036 0.47152 0.51327 0.0
O310 O 0.30612 0.4503 0.47926 0.0
O311 O 0.30879 0.47477 0.28193 0.0
C312 C 0.3578 0.48289 0.90576 0.0
O313 O 0.38535 0.49893 0.9274 0.0
O314 O 0.34039 0.466 0.96683 0.0
O315 O 0.38696 0.505 0.1264 0.0
O316 O 0.38084 0.51649 0.2685 0.0
O317 O 0.38259 0.4449 0.05185 0.0
C318 C 0.33455 0.42616 0.24223 0.0
C319 C 0.39427 0.52335 0.19194 0.0
Zn320 Zn 0.55124 0.88385 0.29619 0.0
Zn321 Zn 0.56875 0.9043 0.06611 0.0
C322 C 0.54012 0.82518 0.28446 0.0
O323 O 0.52454 0.82242 0.35834 0.0
C324 C 0.61272 0.96274 0.01956 0.0
O325 O 0.62966 0.95144 0.02521 0.0
O326 O 0.54653 0.87968 0.43407 0.0
O327 O 0.58831 0.92114 0.27499 0.0
O328 O 0.59746 0.90199 0.15403 0.0
C329 C 0.56429 0.87721 0.4867 0.0
O330 O 0.5866 0.87674 0.4497 0.0
O331 O 0.55357 0.84967 0.24442 0.0
C332 C 0.55331 0.88898 0.88235 0.0
O333 O 0.53743 0.9005 0.90618 0.0
O334 O 0.56905 0.88652 0.94365 0.0
O335 O 0.52653 0.88991 0.10001 0.0
O336 O 0.51594 0.88307 0.24926 0.0
O337 O 0.58573 0.94684 0.03533 0.0
C338 C 0.60639 0.91942 0.2222 0.0
C339 C 0.50866 0.88386 0.16632 0.0
Zn340 Zn 0.14593 0.68335 0.32506 0.0
Zn341 Zn 0.12607 0.683 0.09547 0.0
C342 C 0.20499 0.72698 0.30501 0.0
O343 O 0.20751 0.70968 0.36427 0.0
C344 C 0.07167 0.66583 0.00605 0.0
O345 O 0.08678 0.69168 0.96882 0.0
O346 O 0.15063 0.68297 0.46329 0.0
O347 O 0.10861 0.68341 0.30575 0.0
O348 O 0.12613 0.71252 0.18593 0.0
C349 C 0.15417 0.70384 0.51501 0.0
O350 O 0.15556 0.72687 0.47678 0.0
O351 O 0.17992 0.71994 0.27459 0.0
C352 C 0.14193 0.68287 0.91189 0.0
O353 O 0.12974 0.65545 0.9358 0.0
O354 O 0.14469 0.7013 0.97309 0.0
O355 O 0.13954 0.65449 0.12859 0.0
O356 O 0.14665 0.64875 0.27576 0.0
O357 O 0.08387 0.65741 0.06396 0.0
C358 C 0.10872 0.70272 0.25417 0.0
C359 C 0.14563 0.64169 0.19142 0.0
C360 C 0.05062 0.33785 0.42216 0.0
C361 C 0.08092 0.35612 0.41938 0.0
C362 C 0.03819 0.30813 0.43931 0.0
C363 C 0.05554 0.29578 0.45807 0.0
H364 H 0.03629 0.34633 0.40782 0.0
H365 H 0.01479 0.29471 0.43772 0.0
S366 S 0.13581 0.33423 0.46671 0.0
N367 N 0.12797 0.35974 0.44053 0.0
N368 N 0.10436 0.30394 0.4773 0.0
C369 C 0.08578 0.31386 0.4598 0.0
C370 C 0.09854 0.34404 0.43943 0.0
C371 C 0.70414 0.74428 0.45483 0.0
C372 C 0.72318 0.75651 0.37931 0.0
C373 C 0.67415 0.727 0.4417 0.0
C374 C 0.66185 0.72169 0.35264 0.0
H375 H 0.71247 0.74795 0.52495 0.0
H376 H 0.66044 0.71817 0.50217 0.0
S377 S 0.702 0.74783 0.13123 0.0
N378 N 0.72748 0.76125 0.21157 0.0
N379 N 0.67099 0.72936 0.18733 0.0
C380 C 0.68054 0.73361 0.27632 0.0
C381 C 0.71122 0.7508 0.28952 0.0
C382 C 0.26326 0.95245 0.47623 0.0
C383 C 0.26787 0.974 0.41121 0.0
C384 C 0.27576 0.93492 0.46509 0.0
C385 C 0.29355 0.9382 0.3886 0.0
H386 H 0.24965 0.94883 0.53624 0.0
H387 H 0.27135 0.91861 0.5172 0.0
S388 S 0.31394 0.99256 0.20058 0.0
N389 N 0.29245 0.99836 0.26878 0.0
N390 N 0.31594 0.96543 0.24792 0.0
C391 C 0.29868 0.9599 0.32337 0.0
C392 C 0.28588 0.97778 0.33467 0.0
C393 C 0.35293 0.07942 0.64568 0.0
C394 C 0.33248 0.05344 0.68874 0.0
C395 C 0.38119 0.09608 0.68066 0.0
C396 C 0.39011 0.08765 0.76088 0.0
H397 H 0.3471 0.08707 0.58439 0.0
H398 H 0.39604 0.11591 0.64496 0.0
S399 S 0.34514 0.02105 0.89907 0.0
N400 N 0.32341 0.01981 0.81553 0.0
N401 N 0.37626 0.05108 0.88121 0.0
C402 C 0.36992 0.0616 0.80439 0.0
C403 C 0.34123 0.04451 0.76833 0.0
C404 C 0.95774 0.2985 0.82533 0.0
C405 C 0.94254 0.30294 0.75355 0.0
C406 C 0.9762 0.2874 0.80728 0.0
C407 C 0.97959 0.27956 0.71706 0.0
H408 H 0.95561 0.30391 0.89608 0.0
H409 H 0.98748 0.28443 0.8649 0.0
S410 S 0.94466 0.28675 0.50441 0.0
N411 N 0.93251 0.29903 0.58816 0.0
N412 N 0.96635 0.27708 0.55491 0.0
C413 C 0.96441 0.28368 0.64459 0.0
C414 C 0.94614 0.29568 0.66263 0.0
C415 C 0.7261 0.6926 0.76272 0.0
C416 C 0.74364 0.70255 0.68314 0.0
C417 C 0.71497 0.66418 0.79466 0.0
C418 C 0.7207 0.64432 0.74812 0.0
H419 H 0.72098 0.70691 0.8014 0.0
H420 H 0.70145 0.65771 0.85593 0.0
S421 S 0.76534 0.65934 0.53565 0.0
N422 N 0.76619 0.69017 0.55798 0.0
N423 N 0.74522 0.63673 0.61795 0.0
C424 C 0.73814 0.65392 0.66811 0.0
C425 C 0.74963 0.68299 0.63575 0.0
C426 C 0.00291 0.72109 0.59808 0.0
C427 C 0.98512 0.73074 0.55861 0.0
C428 C 0.99208 0.69169 0.61773 0.0
C429 C 0.96285 0.67097 0.60099 0.0
H430 H 0.02543 0.73638 0.61343 0.0
H431 H 0.00658 0.68528 0.64847 0.0
S432 S 0.90741 0.68518 0.49755 0.0
N433 N 0.93712 0.71734 0.50128 0.0
N434 N 0.91643 0.66211 0.54123 0.0
C435 C 0.94485 0.68033 0.56118 0.0
C436 C 0.95609 0.71021 0.53906 0.0
C437 C 0.32095 0.2861 0.63573 0.0
C438 C 0.31213 0.27371 0.54681 0.0
C439 C 0.35038 0.30386 0.65791 0.0
C440 C 0.372 0.31045 0.59137 0.0
H441 H 0.30502 0.28214 0.68886 0.0
H442 H 0.35621 0.31309 0.7268 0.0
S443 S 0.36131 0.28232 0.35144 0.0
N444 N 0.32822 0.26776 0.39447 0.0
N445 N 0.38324 0.30261 0.43502 0.0
C446 C 0.36375 0.29811 0.50295 0.0
C447 C 0.3339 0.27933 0.48102 0.0
C448 C 0.73161 0.06045 0.6737 0.0
C449 C 0.72126 0.07179 0.6055 0.0
C450 C 0.74914 0.04861 0.65005 0.0
C451 C 0.75762 0.0484 0.55762 0.0
H452 H 0.72554 0.06008 0.74553 0.0
H453 H 0.75614 0.03962 0.70482 0.0
S454 S 0.73805 0.07793 0.3546 0.0
N455 N 0.72143 0.08316 0.4427 0.0
N456 N 0.75548 0.06235 0.39864 0.0
C457 C 0.74817 0.0607 0.48943 0.0
C458 C 0.72968 0.07199 0.51323 0.0
C459 C 0.64928 0.96669 0.26622 0.0
C460 C 0.63767 0.93744 0.24098 0.0
C461 C 0.67901 0.98438 0.28368 0.0
C462 C 0.69786 0.9731 0.27945 0.0
H463 H 0.63537 0.9761 0.27087 0.0
H464 H 0.68723 0.00691 0.30193 0.0
S465 S 0.67813 0.89787 0.21758 0.0
N466 N 0.64724 0.89807 0.21162 0.0
N467 N 0.70298 0.93103 0.24835 0.0
C468 C 0.68648 0.94384 0.25534 0.0
C469 C 0.65638 0.92606 0.23495 0.0
C470 C 0.08114 0.75594 0.2776 0.0
C471 C 0.05436 0.73952 0.32297 0.0
C472 C 0.09836 0.74374 0.25413 0.0
C473 C 0.08978 0.71489 0.27715 0.0
H474 H 0.08868 0.77828 0.25881 0.0
H475 H 0.11877 0.75718 0.21895 0.0
S476 S 0.02169 0.66281 0.3972 0.0
N477 N 0.02004 0.69289 0.38996 0.0
N478 N 0.05263 0.67017 0.34789 0.0
C479 C 0.06313 0.69831 0.3232 0.0
C480 C 0.04537 0.71056 0.34551 0.0
C481 C 0.29299 0.3753 0.24087 0.0
C482 C 0.32236 0.39491 0.25989 0.0
C483 C 0.28077 0.34563 0.26008 0.0
C484 C 0.29776 0.33452 0.29615 0.0
H485 H 0.27924 0.38301 0.21248 0.0
H486 H 0.25803 0.33121 0.24492 0.0
S487 S 0.37581 0.37672 0.35667 0.0
N488 N 0.36804 0.4012 0.31752 0.0
N489 N 0.34535 0.34527 0.35005 0.0
C490 C 0.32721 0.35384 0.3144 0.0
C491 C 0.33944 0.3841 0.29725 0.0
C492 C 0.01434 0.40447 0.01845 0.0
C493 C 0.99851 0.37551 0.04913 0.0
C494 C 0.04336 0.42266 0.04455 0.0
C495 C 0.05761 0.41273 0.10329 0.0
H496 H 0.00423 0.41332 0.97428 0.0
H497 H 0.05456 0.44481 0.01975 0.0
S498 S 0.02709 0.33809 0.19554 0.0
N499 N 1.00018 0.33731 0.13658 0.0
N500 N 0.05446 0.37156 0.18616 0.0
C501 C 0.0423 0.38372 0.13304 0.0
C502 C 0.01286 0.36511 0.10581 0.0
C503 C 0.64536 0.65424 0.0325 0.0
C504 C 0.63647 0.62509 0.05177 0.0
C505 C 0.62709 0.66554 0.05013 0.0
C506 C 0.59958 0.64832 0.08997 0.0
H507 H 0.66633 0.66828 0.0013 0.0
H508 H 0.63461 0.68798 0.03267 0.0
S509 S 0.56663 0.57105 0.15749 0.0
N510 N 0.59862 0.57936 0.11444 0.0
N511 N 0.56455 0.60092 0.15046 0.0
C512 C 0.59071 0.61936 0.11198 0.0
C513 C 0.60907 0.60764 0.09199 0.0
C514 C 0.40851 0.00723 0.02363 0.0
C515 C 0.41331 0.0267 0.09641 0.0
C516 C 0.3945 0.97728 0.03931 0.0
C517 C 0.38563 0.96586 0.12876 0.0
H518 H 0.41488 0.01512 0.95356 0.0
H519 H 0.39078 0.963 0.98107 0.0
S520 S 0.39338 0.00764 0.34283 0.0
N521 N 0.4078 0.03249 0.26086 0.0
N522 N 0.3827 0.97621 0.29106 0.0
C523 C 0.39077 0.98511 0.20239 0.0
C524 C 0.40426 0.01554 0.18599 0.0
C525 C 0.61987 0.03029 0.90589 0.0
C526 C 0.64783 0.052 0.93249 0.0
C527 C 0.6084 1.00154 0.93597 0.0
C528 C 0.6248 0.99334 0.99154 0.0
H529 H 0.60654 0.03564 0.86287 0.0
H530 H 0.58672 0.98552 0.91422 0.0
S531 S 0.6993 0.04177 0.07907 0.0
N532 N 0.6916 0.06328 0.01812 0.0
N533 N 0.6704 0.00914 0.07174 0.0
C534 C 0.65289 0.01474 0.01764 0.0
C535 C 0.66431 0.0441 0.98892 0.0
C536 C 0.03153 0.65119 0.89183 0.0
C537 C 0.04138 0.64619 0.97631 0.0
C538 C 0.00326 0.63265 0.86044 0.0
C539 C 0.98348 0.60838 0.9125 0.0
H540 H 0.04586 0.66946 0.84879 0.0
H541 H 0.99689 0.63766 0.79502 0.0
S542 S 0.99835 0.58638 0.14102 0.0
N543 N 0.02908 0.61567 0.11298 0.0
N544 N 0.97591 0.58082 0.0545 0.0
C545 C 0.99305 0.60329 0.9978 0.0
C546 C 0.02197 0.62214 0.02949 0.0
C547 C 0.41073 0.41094 0.02141 0.0
C548 C 0.39326 0.41461 0.956 0.0
C549 C 0.42771 0.39862 0.99625 0.0
C550 C 0.42842 0.3902 0.90424 0.0
H551 H 0.41095 0.41721 0.09295 0.0
H552 H 0.44064 0.396 0.04911 0.0
S553 S 0.38675 0.39526 0.70649 0.0
N554 N 0.37755 0.40858 0.79521 0.0
N555 N 0.41004 0.3862 0.74778 0.0
C556 C 0.41126 0.39398 0.83805 0.0
C557 C 0.39351 0.40595 0.86397 0.0
C558 C 0.10773 0.21102 0.49452 0.0
C559 C 0.09473 0.20103 0.40726 0.0
C560 C 0.13581 0.21614 0.51288 0.0
C561 C 0.15219 0.21212 0.444 0.0
H562 H 0.09612 0.21486 0.54924 0.0
H563 H 0.14498 0.2239 0.58097 0.0
S564 S 0.12807 0.18581 0.20461 0.0
N565 N 0.10032 0.18678 0.25177 0.0
N566 N 0.15315 0.19691 0.28598 0.0
C567 C 0.13944 0.20205 0.35665 0.0
C568 C 0.1107 0.19635 0.3384 0.0
C569 C 0.81961 0.94365 0.3479 0.0
C570 C 0.81223 0.94537 0.44036 0.0
C571 C 0.8236 0.92091 0.31756 0.0
C572 C 0.8199 0.89862 0.37796 0.0
H573 H 0.82249 0.96012 0.29829 0.0
H574 H 0.8291 0.92057 0.24551 0.0
S575 S 0.80099 0.89301 0.6274 0.0
N576 N 0.80192 0.92302 0.59283 0.0
N577 N 0.80888 0.87988 0.53522 0.0
C578 C 0.81265 0.90005 0.47082 0.0
C579 C 0.80903 0.92355 0.50219 0.0
C580 C 0.10408 0.8931 0.40155 0.0
C581 C 0.08437 0.8882 0.47372 0.0
C582 C 0.12903 0.92022 0.38924 0.0
C583 C 0.13529 0.94381 0.4479 0.0
H584 H 0.10048 0.87573 0.35458 0.0
H585 H 0.14344 0.92268 0.33265 0.0
S586 S 0.09051 0.94279 0.64664 0.0
N587 N 0.07274 0.90954 0.60443 0.0
N588 N 0.1195 0.9605 0.58072 0.0
C589 C 0.11566 0.93937 0.51987 0.0
C590 C 0.0903 0.91162 0.53293 0.0
C591 C 0.20493 0.1186 0.41491 0.0
C592 C 0.22144 0.14017 0.48076 0.0
C593 C 0.20785 0.09397 0.4041 0.0
C594 C 0.22731 0.08979 0.45893 0.0
H595 H 0.18924 0.12045 0.3721 0.0
H596 H 0.19425 0.07778 0.35362 0.0
S597 S 0.27754 0.14097 0.63586 0.0
N598 N 0.25931 0.15644 0.59791 0.0
N599 N 0.26482 0.11039 0.57725 0.0
C600 C 0.24457 0.1116 0.52317 0.0
C601 C 0.24164 0.13669 0.53412 0.0
C602 C 0.9031 0.09785 0.50155 0.0
C603 C 0.89906 0.0847 0.58888 0.0
C604 C 0.92812 0.12436 0.48173 0.0
C605 C 0.94975 0.13903 0.54914 0.0
H606 H 0.88689 0.08752 0.44787 0.0
H607 H 0.93021 0.13372 0.41366 0.0
S608 S 0.94957 0.11386 0.78874 0.0
N609 N 0.91893 0.08829 0.74322 0.0
N610 N 0.96563 0.13821 0.70631 0.0
C611 C 0.94598 0.12609 0.63667 0.0
C612 C 0.92074 0.09891 0.65641 0.0
C613 C 0.93138 0.8288 0.4156 0.0
C614 C 0.93697 0.81525 0.49006 0.0
C615 C 0.90377 0.82542 0.40163 0.0
C616 C 0.88052 0.80838 0.46161 0.0
H617 H 0.94857 0.84252 0.36814 0.0
H618 H 0.9008 0.83669 0.34405 0.0
S619 S 0.88293 0.76625 0.66292 0.0
N620 N 0.91632 0.78274 0.62186 0.0
N621 N 0.86458 0.77631 0.59531 0.0
C622 C 0.8856 0.7941 0.53507 0.0
C623 C 0.91372 0.79753 0.54931 0.0
C624 C 0.80561 0.53758 0.8856 0.0
C625 C 0.8268 0.5532 0.81768 0.0
C626 C 0.778 0.53486 0.88193 0.0
C627 C 0.77031 0.54746 0.80991 0.0
H628 H 0.8103 0.52732 0.94243 0.0
H629 H 0.76254 0.5226 0.93583 0.0
S630 S 0.81791 0.59144 0.61595 0.0
N631 N 0.83811 0.58209 0.67699 0.0
N632 N 0.78641 0.57678 0.66985 0.0
C633 C 0.79127 0.56324 0.74161 0.0
C634 C 0.81941 0.56616 0.74557 0.0
C635 C 0.48058 0.26834 0.85786 0.0
C636 C 0.48569 0.28979 0.79187 0.0
C637 C 0.48433 0.24472 0.8357 0.0
C638 C 0.49391 0.24196 0.74729 0.0
H639 H 0.47304 0.26948 0.92658 0.0
H640 H 0.47966 0.2285 0.88835 0.0
S641 S 0.51208 0.2935 0.55168 0.0
N642 N 0.50201 0.30751 0.63599 0.0
N643 N 0.50922 0.26342 0.5942 0.0
C644 C 0.49977 0.26372 0.68145 0.0
C645 C 0.49559 0.28752 0.70374 0.0
C646 C 0.75092 0.21575 0.71782 0.0
C647 C 0.74804 0.20571 0.80934 0.0
C648 C 0.7751 0.24187 0.69013 0.0
C649 C 0.79768 0.25875 0.75236 0.0
H650 H 0.73418 0.20352 0.66722 0.0
H651 H 0.77624 0.24864 0.61882 0.0
S652 S 0.80076 0.24203 6e-05 0.0
N653 N 0.76972 0.21478 0.96271 0.0
N654 N 0.81556 0.26362 0.91008 0.0
C655 C 0.79517 0.24894 0.84416 0.0
C656 C 0.77023 0.22254 0.87284 0.0
C657 C 0.8765 0.43101 0.9773 0.0
C658 C 0.87971 0.452 0.91206 0.0
C659 C 0.87969 0.40736 0.95192 0.0
C660 C 0.88574 0.40342 0.85991 0.0
H661 H 0.8721 0.43313 0.04927 0.0
H662 H 0.87728 0.39198 0.00503 0.0
S663 S 0.89504 0.45153 0.66146 0.0
N664 N 0.88867 0.46698 0.75068 0.0
N665 N 0.89414 0.42217 0.70263 0.0
C666 C 0.88832 0.42385 0.79333 0.0
C667 C 0.8855 0.44824 0.81951 0.0
C668 C 0.57611 0.44375 0.82562 0.0
C669 C 0.57285 0.43173 0.91467 0.0
C670 C 0.60046 0.47059 0.80305 0.0
C671 C 0.62187 0.4866 0.86956 0.0
H672 H 0.55981 0.4323 0.77299 0.0
H673 H 0.6021 0.47926 0.73408 0.0
S674 S 0.62382 0.46472 0.11183 0.0
N675 N 0.59355 0.43781 0.06888 0.0
N676 N 0.63876 0.48831 0.02676 0.0
C677 C 0.61896 0.47475 0.95835 0.0
C678 C 0.59459 0.44729 0.98083 0.0
C679 C 0.5902 0.14225 0.84183 0.0
C680 C 0.60263 0.15206 0.93005 0.0
C681 C 0.56319 0.13945 0.81889 0.0
C682 C 0.54742 0.14562 0.88426 0.0
H683 H 0.60148 0.13686 0.79004 0.0
H684 H 0.55427 0.1317 0.75056 0.0
S685 S 0.57032 0.17225 0.12403 0.0
N686 N 0.59704 0.16836 0.08223 0.0
N687 N 0.5464 0.16262 0.03946 0.0
C688 C 0.55966 0.15555 0.97221 0.0
C689 C 0.58723 0.15889 0.99502 0.0
C690 C 0.46718 0.86876 0.05694 0.0
C691 C 0.47896 0.87816 0.14588 0.0
C692 C 0.43939 0.86362 0.0348 0.0
C693 C 0.42244 0.86814 0.10019 0.0
H694 H 0.47947 0.86524 0.00382 0.0
H695 H 0.43144 0.85667 0.96505 0.0
S696 S 0.44299 0.89232 0.34337 0.0
N697 N 0.47124 0.89131 0.30053 0.0
N698 N 0.41918 0.88209 0.25823 0.0
C699 C 0.43383 0.87735 0.18963 0.0
C700 C 0.462 0.88221 0.21265 0.0
C701 C 0.15758 0.61512 0.07236 0.0
C702 C 0.15043 0.61743 0.16462 0.0
C703 C 0.16095 0.59188 0.04313 0.0
C704 C 0.15701 0.56971 0.10458 0.0
H705 H 0.16055 0.63137 0.02179 0.0
H706 H 0.16611 0.59107 0.97102 0.0
S707 S 0.13914 0.56589 0.35464 0.0
N708 N 0.1404 0.59589 0.31835 0.0
N709 N 0.14647 0.55205 0.26315 0.0
C710 C 0.15034 0.57194 0.19755 0.0
C711 C 0.14718 0.59584 0.22763 0.0
C712 C 0.46189 0.58755 0.09019 0.0
C713 C 0.46797 0.61037 0.15215 0.0
C714 C 0.438 0.55969 0.10318 0.0
C715 C 0.41915 0.55331 0.17906 0.0
H716 H 0.4757 0.59114 0.03073 0.0
H717 H 0.43449 0.54298 0.05353 0.0
S718 S 0.42497 0.60545 0.361 0.0
N719 N 0.45278 0.6247 0.29194 0.0
N720 N 0.408 0.57248 0.31652 0.0
C721 C 0.42488 0.57596 0.24152 0.0
C722 C 0.4492 0.60439 0.22805 0.0
C723 C 0.54132 0.75458 0.28716 0.0
C724 C 0.54877 0.75195 0.19566 0.0
C725 C 0.53821 0.77813 0.31451 0.0
C726 C 0.543 0.80032 0.25197 0.0
H727 H 0.53756 0.73814 0.33806 0.0
H728 H 0.53244 0.77911 0.38581 0.0
S729 S 0.56324 0.80393 0.00436 0.0
N730 N 0.56075 0.7735 0.04209 0.0
N731 N 0.55556 0.81817 0.0941 0.0
C732 C 0.5506 0.79808 0.16023 0.0
C733 C 0.55325 0.77377 0.13188 0.0
C734 C 0.25326 0.79691 0.17393 0.0
C735 C 0.27895 0.80961 0.22623 0.0
C736 C 0.22945 0.77011 0.19959 0.0
C737 C 0.23073 0.75483 0.27742 0.0
H738 H 0.2513 0.8081 0.11423 0.0
H739 H 0.20989 0.76135 0.1582 0.0
S740 S 0.2943 0.77813 0.43244 0.0
N741 N 0.30505 0.80442 0.35555 0.0
N742 N 0.2606 0.75419 0.40413 0.0
C743 C 0.25674 0.76705 0.32848 0.0
C744 C 0.28077 0.79442 0.30283 0.0
C745 C 0.2524 0.46612 0.26766 0.0
C746 C 0.27302 0.4796 0.19674 0.0
C747 C 0.22458 0.46255 0.26112 0.0
C748 C 0.2159 0.47226 0.18333 0.0
H749 H 0.2578 0.45844 0.32975 0.0
H750 H 0.20985 0.45224 0.31856 0.0
S751 S 0.26114 0.50777 0.97571 0.0
N752 N 0.28248 0.50189 0.0442 0.0
N753 N 0.23013 0.49518 0.0318 0.0
C754 C 0.23612 0.48539 0.11086 0.0
C755 C 0.26461 0.48903 0.11761 0.0
C756 C 0.00468 0.19846 0.06665 0.0
C757 C 0.03177 0.21913 0.103 0.0
C758 C 0.99926 0.19633 0.97153 0.0
C759 C 0.02073 0.21468 0.90846 0.0
H760 H 0.98713 0.18411 0.11204 0.0
H761 H 0.97782 0.18042 0.94761 0.0
S762 S 0.09616 0.27101 0.96684 0.0
N763 N 0.08098 0.25724 0.06777 0.0
N764 N 0.07077 0.25321 0.88846 0.0
C765 C 0.04833 0.23473 0.94322 0.0
C766 C 0.05384 0.23698 0.04057 0.0
C767 C 0.78569 0.81971 0.96288 0.0
C768 C 0.80747 0.82393 0.02663 0.0
C769 C 0.78869 0.81605 0.86805 0.0
C770 C 0.81355 0.81635 0.83334 0.0
H771 H 0.76563 0.8181 0.98657 0.0
H772 H 0.77081 0.81165 0.82242 0.0
S773 S 0.87869 0.83082 0.96874 0.0
N774 N 0.85616 0.83134 0.04627 0.0
N775 N 0.86162 0.82426 0.86858 0.0
C776 C 0.83619 0.82224 0.89539 0.0
C777 C 0.83321 0.82608 0.99182 0.0
C778 C 0.24941 0.06037 0.00321 0.0
C779 C 0.23196 0.0339 0.04875 0.0
C780 C 0.25164 0.06187 0.90669 0.0
C781 C 0.23668 0.03692 0.85114 0.0
H782 H 0.26182 0.08022 0.04233 0.0
H783 H 0.26583 0.08282 0.87577 0.0
S784 S 0.18674 0.96234 0.93545 0.0
N785 N 0.19831 0.98216 0.03054 0.0
N786 N 0.2027 0.985 0.84871 0.0
C787 C 0.2185 0.01034 0.89538 0.0
C788 C 0.21609 0.00883 0.99415 0.0
C789 C 0.98397 0.79157 0.97555 0.0
C790 C 0.00278 0.81257 0.91185 0.0
C791 C 0.99079 0.79383 0.07003 0.0
C792 C 0.01674 0.81711 0.10446 0.0
H793 H 0.96421 0.77271 0.9521 0.0
H794 H 0.97609 0.77659 0.11571 0.0
S795 S 0.07161 0.87987 0.96893 0.0
N796 N 0.04719 0.85895 0.89179 0.0
N797 N 0.05999 0.86304 0.06897 0.0
C798 C 0.03502 0.83903 0.04243 0.0
C799 C 0.02804 0.83681 0.9463 0.0
C800 C 0.24995 0.2207 0.04906 0.0
C801 C 0.22768 0.22492 0.08413 0.0
C802 C 0.25156 0.21576 0.95448 0.0
C803 C 0.23085 0.21464 0.89151 0.0
H804 H 0.26685 0.22219 0.09436 0.0
H805 H 0.26964 0.21355 0.93044 0.0
S806 S 0.16626 0.22098 0.95054 0.0
N807 N 0.1832 0.2254 0.04999 0.0
N808 N 0.18592 0.21576 0.87282 0.0
C809 C 0.20764 0.2174 0.92663 0.0
C810 C 0.20616 0.22266 0.02274 0.0
C811 C 0.81015 0.03826 0.05531 0.0
C812 C 0.80713 0.01256 0.09301 0.0
C813 C 0.81444 0.04382 0.96012 0.0
C814 C 0.81599 0.02396 0.89926 0.0
H815 H 0.80808 0.05369 0.09896 0.0
H816 H 0.81566 0.06345 0.93394 0.0
S817 S 0.81322 0.95522 0.96586 0.0
N818 N 0.80869 0.96837 0.06399 0.0
N819 N 0.81689 0.9788 0.88541 0.0
C820 C 0.81454 0.9989 0.93706 0.0
C821 C 0.81005 0.9932 0.03383 0.0
C822 C 0.66853 0.53933 0.29052 0.0
C823 C 0.6886 0.55919 0.22667 0.0
C824 C 0.67582 0.53956 0.38364 0.0
C825 C 0.70353 0.55961 0.41719 0.0
H826 H 0.64666 0.52376 0.26915 0.0
H827 H 0.65927 0.52419 0.42997 0.0
S828 S 0.76485 0.61493 0.27733 0.0
N829 N 0.738 0.5985 0.20254 0.0
N830 N 0.75182 0.59889 0.37776 0.0
C831 C 0.72428 0.57886 0.35343 0.0
C832 C 0.7168 0.57865 0.25821 0.0
C833 C 0.49482 0.15139 0.4003 0.0
C834 C 0.47255 0.15567 0.43499 0.0
C835 C 0.49589 0.1451 0.3067 0.0
C836 C 0.47477 0.14287 0.24333 0.0
H837 H 0.51125 0.15208 0.44618 0.0
H838 H 0.51312 0.14126 0.28448 0.0
S839 S 0.41315 0.15456 0.29653 0.0
N840 N 0.4298 0.1591 0.39676 0.0
N841 N 0.43186 0.14724 0.2208 0.0
C842 C 0.4531 0.14841 0.2759 0.0
C843 C 0.45196 0.15479 0.37162 0.0
C844 C 0.8843 0.35049 0.28175 0.0
C845 C 0.8859 0.3312 0.21867 0.0
C846 C 0.87927 0.34388 0.37604 0.0
C847 C 0.87576 0.31773 0.41163 0.0
H848 H 0.88762 0.37129 0.25868 0.0
H849 H 0.87899 0.35991 0.42165 0.0
S850 S 0.87589 0.25871 0.27447 0.0
N851 N 0.88182 0.28395 0.19744 0.0
N852 N 0.87248 0.27152 0.37494 0.0
C853 C 0.87605 0.29761 0.34874 0.0
C854 C 0.88108 0.30434 0.25227 0.0
C855 C 0.68787 0.15444 0.29962 0.0
C856 C 0.66152 0.13252 0.26251 0.0
C857 C 0.69361 0.15603 0.3947 0.0
C858 C 0.67323 0.13588 0.45722 0.0
H859 H 0.70472 0.17006 0.25468 0.0
H860 H 0.71462 0.17286 0.41886 0.0
S861 S 0.59963 0.07593 0.39729 0.0
N862 N 0.61385 0.09141 0.29709 0.0
N863 N 0.62468 0.09448 0.4759 0.0
C864 C 0.64618 0.11469 0.42191 0.0
C865 C 0.64033 0.11299 0.32466 0.0
C866 C 0.91994 0.54042 0.3099 0.0
C867 C 0.89807 0.53601 0.24603 0.0
C868 C 0.91827 0.54686 0.40339 0.0
C869 C 0.89467 0.54917 0.43685 0.0
H870 H 0.93906 0.53992 0.28704 0.0
H871 H 0.93617 0.55116 0.44879 0.0
S872 S 0.82985 0.53587 0.30108 0.0
N873 N 0.85076 0.53177 0.22539 0.0
N874 N 0.84758 0.54376 0.40026 0.0
C875 C 0.87195 0.54332 0.37479 0.0
C876 C 0.87366 0.53679 0.27973 0.0
C877 C 0.48977 0.3475 0.2782 0.0
C878 C 0.4932 0.37356 0.24201 0.0
C879 C 0.48504 0.3412 0.37273 0.0
C880 C 0.48368 0.36072 0.43538 0.0
H881 H 0.48986 0.33131 0.23291 0.0
H882 H 0.48172 0.32045 0.39638 0.0
S883 S 0.49366 0.43309 0.37792 0.0
N884 N 0.49674 0.41995 0.27767 0.0
N885 N 0.48791 0.40806 0.45558 0.0
C886 C 0.48846 0.3875 0.40116 0.0
C887 C 0.49318 0.39391 0.30448 0.0
C888 C 0.33657 0.8591 0.64132 0.0
C889 C 0.35412 0.88187 0.58069 0.0
C890 C 0.34138 0.86175 0.73685 0.0
C891 C 0.36403 0.88723 0.776 0.0
H892 H 0.31836 0.83924 0.61535 0.0
H893 H 0.32675 0.84379 0.78042 0.0
S894 S 0.41792 0.95237 0.64702 0.0
N895 N 0.39636 0.93012 0.56611 0.0
N896 N 0.40546 0.93508 0.74603 0.0
C897 C 0.38266 0.9097 0.71596 0.0
C898 C 0.3777 0.90703 0.61828 0.0
C899 C 0.11818 0.47868 0.69776 0.0
C900 C 0.14051 0.48535 0.76237 0.0
C901 C 0.12149 0.4743 0.60356 0.0
C902 C 0.14726 0.47631 0.57 0.0
H903 H 0.09752 0.47583 0.72037 0.0
H904 H 0.10322 0.46806 0.55764 0.0
S905 S 0.21378 0.49697 0.70758 0.0
N906 N 0.19041 0.49651 0.78364 0.0
N907 N 0.19656 0.48824 0.60738 0.0
C908 C 0.17033 0.48454 0.6328 0.0
C909 C 0.167 0.48907 0.72863 0.0
C910 C 0.548 0.69655 0.70315 0.0
C911 C 0.5418 0.66958 0.73983 0.0
C912 C 0.55266 0.7023 0.60837 0.0
C913 C 0.55121 0.68132 0.54594 0.0
H914 H 0.55004 0.71377 0.74814 0.0
H915 H 0.55802 0.72367 0.58432 0.0
S916 S 0.53329 0.60632 0.60503 0.0
N917 N 0.53266 0.62095 0.70521 0.0
N918 N 0.54139 0.63179 0.52674 0.0
C919 C 0.54383 0.65381 0.58087 0.0
C920 C 0.53915 0.64794 0.67782 0.0
C921 C 0.36859 0.50052 0.74283 0.0
C922 C 0.34847 0.48158 0.80824 0.0
C923 C 0.36207 0.49765 0.64829 0.0
C924 C 0.33515 0.47567 0.61476 0.0
H925 H 0.38997 0.5173 0.76426 0.0
H926 H 0.37872 0.5124 0.60102 0.0
S927 S 0.2737 0.42211 0.75803 0.0
N928 N 0.29958 0.44133 0.83354 0.0
N929 N 0.28731 0.4359 0.65555 0.0
C930 C 0.31424 0.45741 0.67972 0.0
C931 C 0.32089 0.46038 0.77644 0.0
C932 C 0.53511 0.88279 0.72046 0.0
C933 C 0.55495 0.8823 0.78362 0.0
C934 C 0.53784 0.88014 0.62523 0.0
C935 C 0.56064 0.87701 0.58867 0.0
H936 H 0.51759 0.88594 0.74437 0.0
H937 H 0.52229 0.88137 0.57991 0.0
S938 S 0.617 0.8718 0.72501 0.0
N939 N 0.5971 0.87641 0.80351 0.0
N940 N 0.60234 0.8715 0.624 0.0
C941 C 0.57995 0.87517 0.65123 0.0
C942 C 0.57706 0.87776 0.74874 0.0
C943 C 0.15162 0.67537 0.65558 0.0
C944 C 0.15435 0.70091 0.61735 0.0
C945 C 0.14888 0.67045 0.7511 0.0
C946 C 0.14884 0.69086 0.81297 0.0
H947 H 0.15081 0.65854 0.61132 0.0
H948 H 0.14605 0.65004 0.77629 0.0
S949 S 0.15777 0.76242 0.74985 0.0
N950 N 0.15872 0.74783 0.6499 0.0
N951 N 0.15356 0.73849 0.82979 0.0
C952 C 0.15291 0.71713 0.77647 0.0
C953 C 0.15564 0.72215 0.67868 0.0
loop_
_geom_bond_atom_site_label_1
_geom_bond_atom_site_label_2
_geom_bond_distance
_geom_bond_site_symmetry_2
_ccdc_geom_bond_type
Zn0 O6 1.969 . S
Zn0 O7 1.965 . S
Zn0 O11 2.024 1_455 S
Zn0 O16 1.969 . S
Zn1 O8 1.974 . S
Zn1 O14 1.969 . S
Zn1 O15 1.965 . S
Zn1 O17 2.024 . S
C2 O3 1.229 . S
C2 O11 1.058 . S
O3 C2 1.229 . S
C4 O5 1.229 . S
C4 O17 1.058 . S
O5 C4 1.229 . S
O6 Zn0 1.969 . S
O6 C9 1.267 . S
O7 Zn0 1.965 . S
O7 C18 1.260 1_455 S
O8 Zn1 1.974 . S
O8 C18 1.253 1_455 S
C9 O6 1.267 . S
C9 O10 1.228 1_455 S
O10 C9 1.228 1_655 S
O11 Zn0 2.024 1_655 S
O11 C2 1.058 . S
C12 O13 1.228 . S
C12 O14 1.267 . S
O13 C12 1.228 . S
O14 Zn1 1.969 . S
O14 C12 1.267 . S
O15 Zn1 1.965 . S
O15 C19 1.260 . S
O16 Zn0 1.969 . S
O16 C19 1.258 . S
O17 Zn1 2.024 . S
O17 C4 1.058 . S
C18 O7 1.260 1_655 S
C18 O8 1.253 1_655 S
C19 O15 1.260 . S
C19 O16 1.258 . S
Zn20 O26 1.969 . S
Zn20 O27 1.965 . S
Zn20 O31 2.024 . S
Zn20 O36 1.969 . S
Zn21 O28 1.969 . S
Zn21 O34 1.969 . S
Zn21 O35 1.965 . S
Zn21 O37 2.024 . S
C22 O23 1.229 . S
C22 O31 1.058 . S
O23 C22 1.229 . S
C24 O25 1.229 . S
C24 O37 1.058 . S
O25 C24 1.229 . S
O26 Zn20 1.969 . S
O26 C29 1.267 . S
O27 Zn20 1.965 . S
O27 C38 1.260 . S
O28 Zn21 1.969 . S
O28 C38 1.258 . S
C29 O26 1.267 . S
C29 O30 1.228 . S
O30 C29 1.228 . S
O31 Zn20 2.024 . S
O31 C22 1.058 . S
C32 O33 1.228 . S
C32 O34 1.267 . S
O33 C32 1.228 . S
O34 Zn21 1.969 . S
O34 C32 1.267 . S
O35 Zn21 1.965 . S
O35 C39 1.260 . S
O36 Zn20 1.969 . S
O36 C39 1.258 . S
O37 Zn21 2.024 . S
O37 C24 1.058 . S
C38 O27 1.260 . S
C38 O28 1.258 . S
C39 O35 1.260 . S
C39 O36 1.258 . S
Zn40 O46 1.969 . S
Zn40 O47 1.965 . S
Zn40 O51 2.024 . S
Zn40 O56 1.969 1_545 S
Zn41 O48 1.969 1_565 S
Zn41 O54 1.969 1_565 S
Zn41 O55 1.965 . S
Zn41 O57 2.024 . S
C42 O43 1.229 . S
C42 O51 1.058 . S
O43 C42 1.229 . S
C44 O45 1.229 . S
C44 O57 1.058 . S
O45 C44 1.229 . S
O46 Zn40 1.969 . S
O46 C49 1.267 . S
O47 Zn40 1.965 . S
O47 C58 1.260 . S
O48 Zn41 1.969 1_545 S
O48 C58 1.258 . S
C49 O46 1.267 . S
C49 O50 1.228 . S
O50 C49 1.228 . S
O51 Zn40 2.024 . S
O51 C42 1.058 . S
C52 O53 1.228 . S
C52 O54 1.267 1_565 S
O53 C52 1.228 . S
O54 Zn41 1.969 1_545 S
O54 C52 1.267 1_545 S
O55 Zn41 1.965 . S
O55 C59 1.260 . S
O56 Zn40 1.969 1_565 S
O56 C59 1.258 . S
O57 Zn41 2.024 . S
O57 C44 1.058 . S
C58 O47 1.260 . S
C58 O48 1.258 . S
C59 O55 1.260 . S
C59 O56 1.258 . S
Zn60 O66 1.969 1_655 S
Zn60 O67 1.981 . S
Zn60 O71 2.024 . S
Zn60 O76 1.969 1_655 S
Zn61 O68 1.969 1_455 S
Zn61 O74 1.969 . S
Zn61 O75 1.965 . S
Zn61 O77 2.024 . S
C62 O63 1.229 . S
C62 O71 1.058 . S
O63 C62 1.229 . S
C64 O65 1.229 . S
C64 O77 1.058 . S
O65 C64 1.229 . S
O66 Zn60 1.969 1_455 S
O66 C69 1.279 . S
O67 Zn60 1.981 . S
O67 C78 1.264 . S
O68 Zn61 1.969 1_655 S
O68 C78 1.258 . S
C69 O66 1.279 . S
C69 O70 1.208 1_455 S
O70 C69 1.208 1_655 S
O71 Zn60 2.024 . S
O71 C62 1.058 . S
C72 O73 1.228 . S
C72 O74 1.267 . S
O73 C72 1.228 . S
O74 Zn61 1.969 . S
O74 C72 1.267 . S
O75 Zn61 1.965 . S
O75 C79 1.260 . S
O76 Zn60 1.969 1_455 S
O76 C79 1.258 . S
O77 Zn61 2.024 . S
O77 C64 1.058 . S
C78 O67 1.264 . S
C78 O68 1.258 . S
C79 O75 1.260 . S
C79 O76 1.258 . S
Zn80 O86 1.969 . S
Zn80 O87 1.965 . S
Zn80 O91 2.024 . S
Zn80 O96 1.969 . S
Zn81 O88 1.969 . S
Zn81 O94 1.969 . S
Zn81 O95 1.965 . S
Zn81 O97 2.024 . S
C82 O83 1.229 . S
C82 O91 1.058 . S
O83 C82 1.229 . S
C84 O85 1.229 . S
C84 O97 1.058 . S
O85 C84 1.229 . S
O86 Zn80 1.969 . S
O86 C89 1.267 . S
O87 Zn80 1.965 . S
O87 C98 1.260 . S
O88 Zn81 1.969 . S
O88 C98 1.258 . S
C89 O86 1.267 . S
C89 O90 1.228 . S
O90 C89 1.228 . S
O91 Zn80 2.024 . S
O91 C82 1.058 . S
C92 O93 1.228 . S
C92 O94 1.267 . S
O93 C92 1.228 . S
O94 Zn81 1.969 . S
O94 C92 1.267 . S
O95 Zn81 1.965 . S
O95 C99 1.260 . S
O96 Zn80 1.969 . S
O96 C99 1.258 . S
O97 Zn81 2.024 . S
O97 C84 1.058 . S
C98 O87 1.260 . S
C98 O88 1.258 . S
C99 O95 1.260 . S
C99 O96 1.258 . S
Zn100 O106 1.969 . S
Zn100 O107 1.965 . S
Zn100 O111 2.024 . S
Zn100 O116 1.969 1_545 S
Zn101 O108 1.958 1_565 S
Zn101 O114 1.965 1_565 S
Zn101 O115 1.977 1_565 S
Zn101 O117 2.030 . S
C102 O103 1.229 . S
C102 O111 1.058 . S
O103 C102 1.229 . S
C104 O105 1.229 . S
C104 O117 1.058 . S
O105 C104 1.229 . S
O106 Zn100 1.969 . S
O106 C109 1.267 . S
O107 Zn100 1.965 . S
O107 C118 1.260 . S
O108 Zn101 1.958 1_545 S
O108 C118 1.258 . S
C109 O106 1.267 . S
C109 O110 1.228 . S
O110 C109 1.228 . S
O111 Zn100 2.024 . S
O111 C102 1.058 . S
C112 O113 1.228 1_545 S
C112 O114 1.267 . S
O113 C112 1.228 1_565 S
O114 Zn101 1.965 1_545 S
O114 C112 1.267 . S
O115 Zn101 1.977 1_545 S
O115 C119 1.249 1_545 S
O116 Zn100 1.969 1_565 S
O116 C119 1.258 . S
O117 Zn101 2.030 . S
O117 C104 1.058 . S
C118 O107 1.260 . S
C118 O108 1.258 . S
C119 O115 1.249 1_565 S
C119 O116 1.258 . S
Zn120 O126 1.969 . S
Zn120 O127 1.965 1_554 S
Zn120 O131 2.024 1_554 S
Zn120 O136 1.969 1_554 S
Zn121 O128 1.969 . S
Zn121 O134 1.969 . S
Zn121 O135 1.965 . S
Zn121 O137 2.024 . S
C122 O123 1.229 . S
C122 O131 1.058 1_554 S
O123 C122 1.229 . S
C124 O125 1.229 . S
C124 O137 1.058 . S
O125 C124 1.229 . S
O126 Zn120 1.969 . S
O126 C129 1.267 . S
O127 Zn120 1.965 1_556 S
O127 C138 1.260 . S
O128 Zn121 1.969 . S
O128 C138 1.258 . S
C129 O126 1.267 . S
C129 O130 1.228 . S
O130 C129 1.228 . S
O131 Zn120 2.024 1_556 S
O131 C122 1.058 1_556 S
C132 O133 1.228 . S
C132 O134 1.267 . S
O133 C132 1.228 . S
O134 Zn121 1.969 . S
O134 C132 1.267 . S
O135 Zn121 1.965 . S
O135 C139 1.260 . S
O136 Zn120 1.969 1_556 S
O136 C139 1.258 . S
O137 Zn121 2.024 . S
O137 C124 1.058 . S
C138 O127 1.260 . S
C138 O128 1.258 . S
C139 O135 1.260 . S
C139 O136 1.258 . S
Zn140 O146 1.969 . S
Zn140 O147 1.965 1_554 S
Zn140 O151 2.024 1_554 S
Zn140 O156 1.969 1_554 S
Zn141 O148 1.969 . S
Zn141 O154 1.969 . S
Zn141 O155 1.965 . S
Zn141 O157 2.024 . S
C142 O143 1.229 . S
C142 O151 1.058 1_554 S
O143 C142 1.229 . S
C144 O145 1.229 . S
C144 O157 1.058 . S
O145 C144 1.229 . S
O146 Zn140 1.969 . S
O146 C149 1.267 . S
O147 Zn140 1.965 1_556 S
O147 C158 1.260 . S
O148 Zn141 1.969 . S
O148 C158 1.258 . S
C149 O146 1.267 . S
C149 O150 1.228 . S
O150 C149 1.228 . S
O151 Zn140 2.024 1_556 S
O151 C142 1.058 1_556 S
C152 O153 1.228 . S
C152 O154 1.267 . S
O153 C152 1.228 . S
O154 Zn141 1.969 . S
O154 C152 1.267 . S
O155 Zn141 1.965 . S
O155 C159 1.260 . S
O156 Zn140 1.969 1_556 S
O156 C159 1.258 . S
O157 Zn141 2.024 . S
O157 C144 1.058 . S
C158 O147 1.260 . S
C158 O148 1.258 . S
C159 O155 1.260 . S
C159 O156 1.258 . S
Zn160 O166 1.969 . S
Zn160 O167 1.965 1_554 S
Zn160 O171 2.024 1_554 S
Zn160 O176 1.969 1_554 S
Zn161 O168 1.969 . S
Zn161 O174 1.969 . S
Zn161 O175 1.965 . S
Zn161 O177 2.024 . S
C162 O163 1.229 . S
C162 O171 1.058 1_554 S
O163 C162 1.229 . S
C164 O165 1.229 . S
C164 O177 1.058 . S
O165 C164 1.229 . S
O166 Zn160 1.969 . S
O166 C169 1.267 . S
O167 Zn160 1.965 1_556 S
O167 C178 1.260 . S
O168 Zn161 1.969 . S
O168 C178 1.258 . S
C169 O166 1.267 . S
C169 O170 1.228 . S
O170 C169 1.228 . S
O171 Zn160 2.024 1_556 S
O171 C162 1.058 1_556 S
C172 O173 1.228 . S
C172 O174 1.267 . S
O173 C172 1.228 . S
O174 Zn161 1.969 . S
O174 C172 1.267 . S
O175 Zn161 1.965 . S
O175 C179 1.260 . S
O176 Zn160 1.969 1_556 S
O176 C179 1.258 . S
O177 Zn161 2.024 . S
O177 C164 1.058 . S
C178 O167 1.260 . S
C178 O168 1.258 . S
C179 O175 1.260 . S
C179 O176 1.258 . S
Zn180 O186 1.969 1_556 S
Zn180 O187 1.965 . S
Zn180 O191 2.024 . S
Zn180 O196 1.969 . S
Zn181 O188 1.969 . S
Zn181 O194 1.969 . S
Zn181 O195 1.965 . S
Zn181 O197 2.024 . S
C182 O183 1.229 . S
C182 O191 1.058 . S
O183 C182 1.229 . S
C184 O185 1.229 . S
C184 O197 1.058 . S
O185 C184 1.229 . S
O186 Zn180 1.969 1_554 S
O186 C189 1.267 . S
O187 Zn180 1.965 . S
O187 C198 1.260 . S
O188 Zn181 1.969 . S
O188 C198 1.258 . S
C189 O186 1.267 . S
C189 O190 1.228 . S
O190 C189 1.228 . S
O191 Zn180 2.024 . S
O191 C182 1.058 . S
C192 O193 1.228 . S
C192 O194 1.267 . S
O193 C192 1.228 . S
O194 Zn181 1.969 . S
O194 C192 1.267 . S
O195 Zn181 1.965 . S
O195 C199 1.260 . S
O196 Zn180 1.969 . S
O196 C199 1.258 . S
O197 Zn181 2.024 . S
O197 C184 1.058 . S
C198 O187 1.260 . S
C198 O188 1.258 . S
C199 O195 1.260 . S
C199 O196 1.258 . S
Zn200 O206 1.969 1_556 S
Zn200 O207 1.965 . S
Zn200 O211 2.024 . S
Zn200 O216 1.969 . S
Zn201 O208 1.969 . S
Zn201 O214 1.969 . S
Zn201 O215 1.965 . S
Zn201 O217 2.024 . S
C202 O203 1.229 . S
C202 O211 1.058 . S
O203 C202 1.229 . S
C204 O205 1.229 . S
C204 O217 1.058 . S
O205 C204 1.229 . S
O206 Zn200 1.969 1_554 S
O206 C209 1.267 . S
O207 Zn200 1.965 . S
O207 C218 1.260 . S
O208 Zn201 1.969 . S
O208 C218 1.258 . S
C209 O206 1.267 . S
C209 O210 1.228 . S
O210 C209 1.228 . S
O211 Zn200 2.024 . S
O211 C202 1.058 . S
C212 O213 1.228 . S
C212 O214 1.267 . S
O213 C212 1.228 . S
O214 Zn201 1.969 . S
O214 C212 1.267 . S
O215 Zn201 1.965 . S
O215 C219 1.260 . S
O216 Zn200 1.969 . S
O216 C219 1.258 . S
O217 Zn201 2.024 . S
O217 C204 1.058 . S
C218 O207 1.260 . S
C218 O208 1.258 . S
C219 O215 1.260 . S
C219 O216 1.258 . S
Zn220 O226 1.969 1_556 S
Zn220 O227 1.965 . S
Zn220 O231 2.024 . S
Zn220 O236 1.969 . S
Zn221 O228 1.969 . S
Zn221 O234 1.969 . S
Zn221 O235 1.965 . S
Zn221 O237 2.024 . S
C222 O223 1.229 . S
C222 O231 1.058 . S
O223 C222 1.229 . S
C224 O225 1.229 . S
C224 O237 1.058 . S
O225 C224 1.229 . S
O226 Zn220 1.969 1_554 S
O226 C229 1.267 . S
O227 Zn220 1.965 . S
O227 C238 1.260 . S
O228 Zn221 1.969 . S
O228 C238 1.258 . S
C229 O226 1.267 . S
C229 O230 1.228 . S
O230 C229 1.228 . S
O231 Zn220 2.024 . S
O231 C222 1.058 . S
C232 O233 1.228 . S
C232 O234 1.267 . S
O233 C232 1.228 . S
O234 Zn221 1.969 . S
O234 C232 1.267 . S
O235 Zn221 1.965 . S
O235 C239 1.260 . S
O236 Zn220 1.969 . S
O236 C239 1.258 . S
O237 Zn221 2.024 . S
O237 C224 1.058 . S
C238 O227 1.260 . S
C238 O228 1.258 . S
C239 O235 1.260 . S
C239 O236 1.258 . S
Zn240 O246 1.969 . S
Zn240 O247 1.965 . S
Zn240 O251 2.024 . S
Zn240 O256 1.969 . S
Zn241 O248 1.969 . S
Zn241 O254 1.969 1_554 S
Zn241 O255 1.965 . S
Zn241 O257 2.024 . S
C242 O243 1.229 . S
C242 O251 1.058 . S
O243 C242 1.229 . S
C244 O245 1.229 . S
C244 O257 1.058 . S
O245 C244 1.229 . S
O246 Zn240 1.969 . S
O246 C249 1.267 . S
O247 Zn240 1.965 . S
O247 C258 1.260 . S
O248 Zn241 1.969 . S
O248 C258 1.258 . S
C249 O246 1.267 . S
C249 O250 1.228 . S
O250 C249 1.228 . S
O251 Zn240 2.024 . S
O251 C242 1.058 . S
C252 O253 1.228 . S
C252 O254 1.267 . S
O253 C252 1.228 . S
O254 Zn241 1.969 1_556 S
O254 C252 1.267 . S
O255 Zn241 1.965 . S
O255 C259 1.260 . S
O256 Zn240 1.969 . S
O256 C259 1.258 . S
O257 Zn241 2.024 . S
O257 C244 1.058 . S
C258 O247 1.260 . S
C258 O248 1.258 . S
C259 O255 1.260 . S
C259 O256 1.258 . S
Zn260 O266 1.969 . S
Zn260 O267 1.965 . S
Zn260 O271 2.024 . S
Zn260 O276 1.969 . S
Zn261 O268 1.969 . S
Zn261 O274 1.969 1_554 S
Zn261 O275 1.965 . S
Zn261 O277 2.024 . S
C262 O263 1.229 . S
C262 O271 1.058 . S
O263 C262 1.229 . S
C264 O265 1.229 . S
C264 O277 1.058 . S
O265 C264 1.229 . S
O266 Zn260 1.969 . S
O266 C269 1.267 . S
O267 Zn260 1.965 . S
O267 C278 1.260 . S
O268 Zn261 1.969 . S
O268 C278 1.258 . S
C269 O266 1.267 . S
C269 O270 1.228 . S
O270 C269 1.228 . S
O271 Zn260 2.024 . S
O271 C262 1.058 . S
C272 O273 1.228 . S
C272 O274 1.267 . S
O273 C272 1.228 . S
O274 Zn261 1.969 1_556 S
O274 C272 1.267 . S
O275 Zn261 1.965 . S
O275 C279 1.260 . S
O276 Zn260 1.969 . S
O276 C279 1.258 . S
O277 Zn261 2.024 . S
O277 C264 1.058 . S
C278 O267 1.260 . S
C278 O268 1.258 . S
C279 O275 1.260 . S
C279 O276 1.258 . S
Zn280 O286 1.969 . S
Zn280 O287 1.965 . S
Zn280 O291 2.024 . S
Zn280 O296 1.969 . S
Zn281 O288 1.969 . S
Zn281 O294 1.969 1_554 S
Zn281 O295 1.965 . S
Zn281 O297 2.024 . S
C282 O283 1.229 . S
C282 O291 1.058 . S
O283 C282 1.229 . S
C284 O285 1.229 . S
C284 O297 1.058 . S
O285 C284 1.229 . S
O286 Zn280 1.969 . S
O286 C289 1.267 . S
O287 Zn280 1.965 . S
O287 C298 1.260 . S
O288 Zn281 1.969 . S
O288 C298 1.258 . S
C289 O286 1.267 . S
C289 O290 1.228 . S
O290 C289 1.228 . S
O291 Zn280 2.024 . S
O291 C282 1.058 . S
C292 O293 1.228 . S
C292 O294 1.267 . S
O293 C292 1.228 . S
O294 Zn281 1.969 1_556 S
O294 C292 1.267 . S
O295 Zn281 1.965 . S
O295 C299 1.260 . S
O296 Zn280 1.969 . S
O296 C299 1.258 . S
O297 Zn281 2.024 . S
O297 C284 1.058 . S
C298 O287 1.260 . S
C298 O288 1.258 . S
C299 O295 1.260 . S
C299 O296 1.258 . S
Zn300 O306 1.969 . S
Zn300 O307 1.965 . S
Zn300 O311 2.024 . S
Zn300 O316 1.969 . S
Zn301 O308 1.969 1_556 S
Zn301 O314 1.969 . S
Zn301 O315 1.965 1_556 S
Zn301 O317 2.024 1_556 S
C302 O303 1.229 . S
C302 O311 1.058 . S
O303 C302 1.229 . S
C304 O305 1.229 . S
C304 O317 1.058 1_556 S
O305 C304 1.229 . S
O306 Zn300 1.969 . S
O306 C309 1.267 . S
O307 Zn300 1.965 . S
O307 C318 1.260 . S
O308 Zn301 1.969 1_554 S
O308 C318 1.258 . S
C309 O306 1.267 . S
C309 O310 1.228 . S
O310 C309 1.228 . S
O311 Zn300 2.024 . S
O311 C302 1.058 . S
C312 O313 1.228 . S
C312 O314 1.267 . S
O313 C312 1.228 . S
O314 Zn301 1.969 . S
O314 C312 1.267 . S
O315 Zn301 1.965 1_554 S
O315 C319 1.260 . S
O316 Zn300 1.969 . S
O316 C319 1.258 . S
O317 Zn301 2.024 1_554 S
O317 C304 1.058 1_554 S
C318 O307 1.260 . S
C318 O308 1.258 . S
C319 O315 1.260 . S
C319 O316 1.258 . S
Zn320 O326 1.969 . S
Zn320 O327 1.965 . S
Zn320 O331 2.024 . S
Zn320 O336 1.969 . S
Zn321 O328 1.969 1_556 S
Zn321 O334 1.969 . S
Zn321 O335 1.965 1_556 S
Zn321 O337 2.024 1_556 S
C322 O323 1.229 . S
C322 O331 1.058 . S
O323 C322 1.229 . S
C324 O325 1.229 . S
C324 O337 1.058 1_556 S
O325 C324 1.229 . S
O326 Zn320 1.969 . S
O326 C329 1.267 . S
O327 Zn320 1.965 . S
O327 C338 1.260 . S
O328 Zn321 1.969 1_554 S
O328 C338 1.258 . S
C329 O326 1.267 . S
C329 O330 1.228 . S
O330 C329 1.228 . S
O331 Zn320 2.024 . S
O331 C322 1.058 . S
C332 O333 1.228 . S
C332 O334 1.267 . S
O333 C332 1.228 . S
O334 Zn321 1.969 . S
O334 C332 1.267 . S
O335 Zn321 1.965 1_554 S
O335 C339 1.260 . S
O336 Zn320 1.969 . S
O336 C339 1.258 . S
O337 Zn321 2.024 1_554 S
O337 C324 1.058 1_554 S
C338 O327 1.260 . S
C338 O328 1.258 . S
C339 O335 1.260 . S
C339 O336 1.258 . S
Zn340 O346 1.969 . S
Zn340 O347 1.965 . S
Zn340 O351 2.024 . S
Zn340 O356 1.969 . S
Zn341 O348 1.969 1_556 S
Zn341 O354 1.969 . S
Zn341 O355 1.965 1_556 S
Zn341 O357 2.024 1_556 S
C342 O343 1.229 . S
C342 O351 1.058 . S
O343 C342 1.229 . S
C344 O345 1.229 . S
C344 O357 1.058 1_556 S
O345 C344 1.229 . S
O346 Zn340 1.969 . S
O346 C349 1.267 . S
O347 Zn340 1.965 . S
O347 C358 1.260 . S
O348 Zn341 1.969 1_554 S
O348 C358 1.258 . S
C349 O346 1.267 . S
C349 O350 1.228 . S
O350 C349 1.228 . S
O351 Zn340 2.024 . S
O351 C342 1.058 . S
C352 O353 1.228 . S
C352 O354 1.267 . S
O353 C352 1.228 . S
O354 Zn341 1.969 . S
O354 C352 1.267 . S
O355 Zn341 1.965 1_554 S
O355 C359 1.260 . S
O356 Zn340 1.969 . S
O356 C359 1.258 . S
O357 Zn341 2.024 1_554 S
O357 C344 1.058 1_554 S
C358 O347 1.260 . S
C358 O348 1.258 . S
C359 O355 1.260 . S
C359 O356 1.258 . S
C360 C361 1.369 . S
C360 C362 1.419 . S
C360 H364 0.930 . S
C361 C360 1.369 . S
C361 C370 1.429 . S
C362 C360 1.419 . S
C362 C363 1.363 . S
C362 H365 0.929 . S
C363 C362 1.363 . S
C363 C369 1.428 . S
H364 C360 0.930 . S
H365 C362 0.929 . S
S366 N367 1.613 . S
S366 N368 1.610 . S
N367 S366 1.613 . S
N367 C370 1.350 . S
N368 S366 1.610 . S
N368 C369 1.351 . S
C369 C363 1.428 . S
C369 N368 1.351 . S
C369 C370 1.434 . S
C370 C361 1.429 . S
C370 N367 1.350 . S
C370 C369 1.434 . S
C371 C372 1.369 . S
C371 C373 1.419 . S
C371 H375 0.930 . S
C372 C371 1.369 . S
C372 C381 1.429 . S
C373 C371 1.419 . S
C373 C374 1.363 . S
C373 H376 0.929 . S
C374 C373 1.363 . S
C374 C380 1.428 . S
H375 C371 0.930 . S
H376 C373 0.929 . S
S377 N378 1.613 . S
S377 N379 1.610 . S
N378 S377 1.613 . S
N378 C381 1.350 . S
N379 S377 1.610 . S
N379 C380 1.351 . S
C380 C374 1.428 . S
C380 N379 1.351 . S
C380 C381 1.434 . S
C381 C372 1.429 . S
C381 N378 1.350 . S
C381 C380 1.434 . S
C382 C383 1.369 . S
C382 C384 1.419 . S
C382 H386 0.930 . S
C383 C382 1.369 . S
C383 C392 1.429 . S
C384 C382 1.419 . S
C384 C385 1.363 . S
C384 H387 0.929 . S
C385 C384 1.363 . S
C385 C391 1.428 . S
H386 C382 0.930 . S
H387 C384 0.929 . S
S388 N389 1.613 . S
S388 N390 1.610 . S
N389 S388 1.613 . S
N389 C392 1.350 . S
N390 S388 1.610 . S
N390 C391 1.351 . S
C391 C385 1.428 . S
C391 N390 1.351 . S
C391 C392 1.434 . S
C392 C383 1.429 . S
C392 N389 1.350 . S
C392 C391 1.434 . S
C393 C394 1.369 . S
C393 C395 1.419 . S
C393 H397 0.930 . S
C394 C393 1.369 . S
C394 C403 1.429 . S
C395 C393 1.419 . S
C395 C396 1.363 . S
C395 H398 0.929 . S
C396 C395 1.363 . S
C396 C402 1.428 . S
H397 C393 0.930 . S
H398 C395 0.929 . S
S399 N400 1.613 . S
S399 N401 1.610 . S
N400 S399 1.613 . S
N400 C403 1.350 . S
N401 S399 1.610 . S
N401 C402 1.351 . S
C402 C396 1.428 . S
C402 N401 1.351 . S
C402 C403 1.434 . S
C403 C394 1.429 . S
C403 N400 1.350 . S
C403 C402 1.434 . S
C404 C405 1.369 . S
C404 C406 1.419 . S
C404 H408 0.930 . S
C405 C404 1.369 . S
C405 C414 1.429 . S
C406 C404 1.419 . S
C406 C407 1.363 . S
C406 H409 0.929 . S
C407 C406 1.363 . S
C407 C413 1.428 . S
H408 C404 0.930 . S
H409 C406 0.929 . S
S410 N411 1.613 . S
S410 N412 1.610 . S
N411 S410 1.613 . S
N411 C414 1.350 . S
N412 S410 1.610 . S
N412 C413 1.351 . S
C413 C407 1.428 . S
C413 N412 1.351 . S
C413 C414 1.434 . S
C414 C405 1.429 . S
C414 N411 1.350 . S
C414 C413 1.434 . S
C415 C416 1.369 . S
C415 C417 1.419 . S
C415 H419 0.930 . S
C416 C415 1.369 . S
C416 C425 1.429 . S
C417 C415 1.419 . S
C417 C418 1.363 . S
C417 H420 0.929 . S
C418 C417 1.363 . S
C418 C424 1.428 . S
H419 C415 0.930 . S
H420 C417 0.929 . S
S421 N422 1.613 . S
S421 N423 1.610 . S
N422 S421 1.613 . S
N422 C425 1.350 . S
N423 S421 1.610 . S
N423 C424 1.351 . S
C424 C418 1.428 . S
C424 N423 1.351 . S
C424 C425 1.434 . S
C425 C416 1.429 . S
C425 N422 1.350 . S
C425 C424 1.434 . S
C426 C427 1.369 . S
C426 C428 1.419 . S
C426 H430 0.930 . S
C427 C426 1.369 . S
C427 C436 1.429 . S
C428 C426 1.419 . S
C428 C429 1.363 . S
C428 H431 0.929 . S
C429 C428 1.363 . S
C429 C435 1.428 . S
H430 C426 0.930 . S
H431 C428 0.929 . S
S432 N433 1.613 . S
S432 N434 1.610 . S
N433 S432 1.613 . S
N433 C436 1.350 . S
N434 S432 1.610 . S
N434 C435 1.351 . S
C435 C429 1.428 . S
C435 N434 1.351 . S
C435 C436 1.434 . S
C436 C427 1.429 . S
C436 N433 1.350 . S
C436 C435 1.434 . S
C437 C438 1.369 . S
C437 C439 1.419 . S
C437 H441 0.930 . S
C438 C437 1.369 . S
C438 C447 1.429 . S
C439 C437 1.419 . S
C439 C440 1.363 . S
C439 H442 0.929 . S
C440 C439 1.363 . S
C440 C446 1.428 . S
H441 C437 0.930 . S
H442 C439 0.929 . S
S443 N444 1.613 . S
S443 N445 1.610 . S
N444 S443 1.613 . S
N444 C447 1.350 . S
N445 S443 1.610 . S
N445 C446 1.351 . S
C446 C440 1.428 . S
C446 N445 1.351 . S
C446 C447 1.434 . S
C447 C438 1.429 . S
C447 N444 1.350 . S
C447 C446 1.434 . S
C448 C449 1.369 . S
C448 C450 1.419 . S
C448 H452 0.930 . S
C449 C448 1.369 . S
C449 C458 1.429 . S
C450 C448 1.419 . S
C450 C451 1.363 . S
C450 H453 0.929 . S
C451 C450 1.363 . S
C451 C457 1.428 . S
H452 C448 0.930 . S
H453 C450 0.929 . S
S454 N455 1.613 . S
S454 N456 1.610 . S
N455 S454 1.613 . S
N455 C458 1.350 . S
N456 S454 1.610 . S
N456 C457 1.351 . S
C457 C451 1.428 . S
C457 N456 1.351 . S
C457 C458 1.434 . S
C458 C449 1.429 . S
C458 N455 1.350 . S
C458 C457 1.434 . S
C459 C460 1.369 . S
C459 C461 1.419 . S
C459 H463 0.930 . S
C460 C459 1.369 . S
C460 C469 1.429 . S
C461 C459 1.419 . S
C461 C462 1.363 . S
C461 H464 0.929 . S
C462 C461 1.363 . S
C462 C468 1.428 . S
H463 C459 0.930 . S
H464 C461 0.929 . S
S465 N466 1.613 . S
S465 N467 1.610 . S
N466 S465 1.613 . S
N466 C469 1.350 . S
N467 S465 1.610 . S
N467 C468 1.351 . S
C468 C462 1.428 . S
C468 N467 1.351 . S
C468 C469 1.434 . S
C469 C460 1.429 . S
C469 N466 1.350 . S
C469 C468 1.434 . S
C470 C471 1.369 . S
C470 C472 1.419 . S
C470 H474 0.930 . S
C471 C470 1.369 . S
C471 C480 1.429 . S
C472 C470 1.419 . S
C472 C473 1.363 . S
C472 H475 0.929 . S
C473 C472 1.363 . S
C473 C479 1.428 . S
H474 C470 0.930 . S
H475 C472 0.929 . S
S476 N477 1.613 . S
S476 N478 1.610 . S
N477 S476 1.613 . S
N477 C480 1.350 . S
N478 S476 1.610 . S
N478 C479 1.351 . S
C479 C473 1.428 . S
C479 N478 1.351 . S
C479 C480 1.434 . S
C480 C471 1.429 . S
C480 N477 1.350 . S
C480 C479 1.434 . S
C481 C482 1.369 . S
C481 C483 1.419 . S
C481 H485 0.930 . S
C482 C481 1.369 . S
C482 C491 1.429 . S
C483 C481 1.419 . S
C483 C484 1.363 . S
C483 H486 0.929 . S
C484 C483 1.363 . S
C484 C490 1.428 . S
H485 C481 0.930 . S
H486 C483 0.929 . S
S487 N488 1.613 . S
S487 N489 1.610 . S
N488 S487 1.613 . S
N488 C491 1.350 . S
N489 S487 1.610 . S
N489 C490 1.351 . S
C490 C484 1.428 . S
C490 N489 1.351 . S
C490 C491 1.434 . S
C491 C482 1.429 . S
C491 N488 1.350 . S
C491 C490 1.434 . S
C492 C493 1.369 . S
C492 C494 1.419 . S
C492 H496 0.930 1_554 S
C493 C492 1.369 . S
C493 C502 1.429 . S
C494 C492 1.419 . S
C494 C495 1.363 . S
C494 H497 0.929 . S
C495 C494 1.363 . S
C495 C501 1.428 . S
H496 C492 0.930 1_556 S
H497 C494 0.929 . S
S498 N499 1.613 . S
S498 N500 1.610 1_655 S
N499 S498 1.613 . S
N499 C502 1.350 1_655 S
N500 S498 1.610 1_455 S
N500 C501 1.351 . S
C501 C495 1.428 . S
C501 N500 1.351 . S
C501 C502 1.434 . S
C502 C493 1.429 . S
C502 N499 1.350 1_455 S
C502 C501 1.434 . S
C503 C504 1.369 . S
C503 C505 1.419 . S
C503 H507 0.930 1_554 S
C504 C503 1.369 . S
C504 C513 1.429 . S
C505 C503 1.419 . S
C505 C506 1.363 . S
C505 H508 0.929 . S
C506 C505 1.363 . S
C506 C512 1.428 . S
H507 C503 0.930 1_556 S
H508 C505 0.929 . S
S509 N510 1.613 . S
S509 N511 1.610 . S
N510 S509 1.613 . S
N510 C513 1.350 . S
N511 S509 1.610 . S
N511 C512 1.351 . S
C512 C506 1.428 . S
C512 N511 1.351 . S
C512 C513 1.434 . S
C513 C504 1.429 . S
C513 N510 1.350 . S
C513 C512 1.434 . S
C514 C515 1.377 . S
C514 C516 1.403 1_545 S
C514 H518 0.938 1_554 S
C515 C514 1.377 . S
C515 C524 1.429 . S
C516 C514 1.403 1_565 S
C516 C517 1.363 . S
C516 H519 0.929 . S
C517 C516 1.363 . S
C517 C523 1.428 . S
H518 C514 0.938 1_556 S
H519 C516 0.929 . S
S520 N521 1.613 . S
S520 N522 1.610 1_545 S
N521 S520 1.613 . S
N521 C524 1.350 . S
N522 S520 1.610 1_565 S
N522 C523 1.351 . S
C523 C517 1.428 . S
C523 N522 1.351 . S
C523 C524 1.434 1_565 S
C524 C515 1.429 . S
C524 N521 1.350 . S
C524 C523 1.434 1_545 S
C525 C526 1.369 . S
C525 C527 1.419 . S
C525 H529 0.930 . S
C526 C525 1.369 . S
C526 C535 1.429 . S
C527 C525 1.419 . S
C527 C528 1.363 . S
C527 H530 0.929 . S
C528 C527 1.363 . S
C528 C534 1.428 . S
H529 C525 0.930 . S
H530 C527 0.929 . S
S531 N532 1.613 . S
S531 N533 1.610 . S
N532 S531 1.613 . S
N532 C535 1.350 . S
N533 S531 1.610 . S
N533 C534 1.351 . S
C534 C528 1.428 . S
C534 N533 1.351 . S
C534 C535 1.434 . S
C535 C526 1.429 . S
C535 N532 1.350 . S
C535 C534 1.434 . S
C536 C537 1.369 . S
C536 C538 1.419 1_455 S
C536 H540 0.930 . S
C537 C536 1.369 . S
C537 C546 1.426 1_455 S
C538 C536 1.419 1_655 S
C538 C539 1.363 . S
C538 H541 0.929 . S
C539 C538 1.363 . S
C539 C545 1.428 . S
H540 C536 0.930 . S
H541 C538 0.929 . S
S542 N543 1.613 . S
S542 N544 1.610 1_554 S
N543 S542 1.613 . S
N543 C546 1.348 1_554 S
N544 S542 1.610 1_556 S
N544 C545 1.351 . S
C545 C539 1.428 . S
C545 N544 1.351 . S
C545 C546 1.439 . S
C546 C537 1.426 1_655 S
C546 N543 1.348 1_556 S
C546 C545 1.439 . S
C547 C548 1.369 . S
C547 C549 1.419 . S
C547 H551 0.930 1_556 S
C548 C547 1.369 . S
C548 C557 1.429 . S
C549 C547 1.419 . S
C549 C550 1.363 . S
C549 H552 0.929 . S
C550 C549 1.363 . S
C550 C556 1.428 . S
H551 C547 0.930 1_554 S
H552 C549 0.929 . S
S553 N554 1.613 . S
S553 N555 1.610 . S
N554 S553 1.613 . S
N554 C557 1.350 . S
N555 S553 1.610 . S
N555 C556 1.351 . S
C556 C550 1.428 . S
C556 N555 1.351 . S
C556 C557 1.434 . S
C557 C548 1.429 . S
C557 N554 1.350 . S
C557 C556 1.434 . S
C558 C559 1.369 . S
C558 C560 1.419 . S
C558 H562 0.930 . S
C559 C558 1.369 . S
C559 C568 1.429 . S
C560 C558 1.419 . S
C560 C561 1.363 . S
C560 H563 0.929 . S
C561 C560 1.363 . S
C561 C567 1.428 . S
H562 C558 0.930 . S
H563 C560 0.929 . S
S564 N565 1.613 . S
S564 N566 1.610 . S
N565 S564 1.613 . S
N565 C568 1.350 . S
N566 S564 1.610 . S
N566 C567 1.351 . S
C567 C561 1.428 . S
C567 N566 1.351 . S
C567 C568 1.434 . S
C568 C559 1.429 . S
C568 N565 1.350 . S
C568 C567 1.434 . S
C569 C570 1.369 . S
C569 C571 1.419 . S
C569 H573 0.930 . S
C570 C569 1.369 . S
C570 C579 1.429 . S
C571 C569 1.419 . S
C571 C572 1.363 . S
C571 H574 0.929 . S
C572 C571 1.363 . S
C572 C578 1.428 . S
H573 C569 0.930 . S
H574 C571 0.929 . S
S575 N576 1.613 . S
S575 N577 1.610 . S
N576 S575 1.613 . S
N576 C579 1.350 . S
N577 S575 1.610 . S
N577 C578 1.351 . S
C578 C572 1.428 . S
C578 N577 1.351 . S
C578 C579 1.434 . S
C579 C570 1.429 . S
C579 N576 1.350 . S
C579 C578 1.434 . S
C580 C581 1.369 . S
C580 C582 1.419 . S
C580 H584 0.930 . S
C581 C580 1.369 . S
C581 C590 1.429 . S
C582 C580 1.419 . S
C582 C583 1.363 . S
C582 H585 0.929 . S
C583 C582 1.363 . S
C583 C589 1.428 . S
H584 C580 0.930 . S
H585 C582 0.929 . S
S586 N587 1.613 . S
S586 N588 1.610 . S
N587 S586 1.613 . S
N587 C590 1.350 . S
N588 S586 1.610 . S
N588 C589 1.351 . S
C589 C583 1.428 . S
C589 N588 1.351 . S
C589 C590 1.434 . S
C590 C581 1.429 . S
C590 N587 1.350 . S
C590 C589 1.434 . S
C591 C592 1.369 . S
C591 C593 1.419 . S
C591 H595 0.930 . S
C592 C591 1.369 . S
C592 C601 1.429 . S
C593 C591 1.419 . S
C593 C594 1.363 . S
C593 H596 0.929 . S
C594 C593 1.363 . S
C594 C600 1.428 . S
H595 C591 0.930 . S
H596 C593 0.929 . S
S597 N598 1.613 . S
S597 N599 1.610 . S
N598 S597 1.613 . S
N598 C601 1.350 . S
N599 S597 1.610 . S
N599 C600 1.351 . S
C600 C594 1.428 . S
C600 N599 1.351 . S
C600 C601 1.434 . S
C601 C592 1.429 . S
C601 N598 1.350 . S
C601 C600 1.434 . S
C602 C603 1.369 . S
C602 C604 1.419 . S
C602 H606 0.930 . S
C603 C602 1.369 . S
C603 C612 1.429 . S
C604 C602 1.419 . S
C604 C605 1.363 . S
C604 H607 0.929 . S
C605 C604 1.363 . S
C605 C611 1.428 . S
H606 C602 0.930 . S
H607 C604 0.929 . S
S608 N609 1.613 . S
S608 N610 1.610 . S
N609 S608 1.613 . S
N609 C612 1.350 . S
N610 S608 1.610 . S
N610 C611 1.351 . S
C611 C605 1.428 . S
C611 N610 1.351 . S
C611 C612 1.434 . S
C612 C603 1.429 . S
C612 N609 1.350 . S
C612 C611 1.434 . S
C613 C614 1.369 . S
C613 C615 1.419 . S
C613 H617 0.930 . S
C614 C613 1.369 . S
C614 C623 1.429 . S
C615 C613 1.419 . S
C615 C616 1.363 . S
C615 H618 0.929 . S
C616 C615 1.363 . S
C616 C622 1.428 . S
H617 C613 0.930 . S
H618 C615 0.929 . S
S619 N620 1.613 . S
S619 N621 1.610 . S
N620 S619 1.613 . S
N620 C623 1.350 . S
N621 S619 1.610 . S
N621 C622 1.351 . S
C622 C616 1.428 . S
C622 N621 1.351 . S
C622 C623 1.434 . S
C623 C614 1.429 . S
C623 N620 1.350 . S
C623 C622 1.434 . S
C624 C625 1.369 . S
C624 C626 1.419 . S
C624 H628 0.930 . S
C625 C624 1.369 . S
C625 C634 1.429 . S
C626 C624 1.419 . S
C626 C627 1.363 . S
C626 H629 0.929 . S
C627 C626 1.363 . S
C627 C633 1.428 . S
H628 C624 0.930 . S
H629 C626 0.929 . S
S630 N631 1.613 . S
S630 N632 1.610 . S
N631 S630 1.613 . S
N631 C634 1.350 . S
N632 S630 1.610 . S
N632 C633 1.351 . S
C633 C627 1.428 . S
C633 N632 1.351 . S
C633 C634 1.434 . S
C634 C625 1.429 . S
C634 N631 1.350 . S
C634 C633 1.434 . S
C635 C636 1.369 . S
C635 C637 1.419 . S
C635 H639 0.930 . S
C636 C635 1.369 . S
C636 C645 1.429 . S
C637 C635 1.419 . S
C637 C638 1.363 . S
C637 H640 0.929 . S
C638 C637 1.363 . S
C638 C644 1.428 . S
H639 C635 0.930 . S
H640 C637 0.929 . S
S641 N642 1.613 . S
S641 N643 1.610 . S
N642 S641 1.613 . S
N642 C645 1.350 . S
N643 S641 1.610 . S
N643 C644 1.351 . S
C644 C638 1.428 . S
C644 N643 1.351 . S
C644 C645 1.434 . S
C645 C636 1.429 . S
C645 N642 1.350 . S
C645 C644 1.434 . S
C646 C647 1.369 . S
C646 C648 1.419 . S
C646 H650 0.930 . S
C647 C646 1.369 . S
C647 C656 1.429 . S
C648 C646 1.419 . S
C648 C649 1.363 . S
C648 H651 0.929 . S
C649 C648 1.363 . S
C649 C655 1.428 . S
H650 C646 0.930 . S
H651 C648 0.929 . S
S652 N653 1.613 . S
S652 N654 1.610 . S
N653 S652 1.613 . S
N653 C656 1.350 . S
N654 S652 1.610 . S
N654 C655 1.351 . S
C655 C649 1.428 . S
C655 N654 1.351 . S
C655 C656 1.434 . S
C656 C647 1.429 . S
C656 N653 1.350 . S
C656 C655 1.434 . S
C657 C658 1.369 . S
C657 C659 1.419 . S
C657 H661 0.930 . S
C658 C657 1.369 . S
C658 C667 1.429 . S
C659 C657 1.419 . S
C659 C660 1.363 . S
C659 H662 0.929 . S
C660 C659 1.363 . S
C660 C666 1.428 . S
H661 C657 0.930 . S
H662 C659 0.929 . S
S663 N664 1.613 . S
S663 N665 1.610 . S
N664 S663 1.613 . S
N664 C667 1.350 . S
N665 S663 1.610 . S
N665 C666 1.351 . S
C666 C660 1.428 . S
C666 N665 1.351 . S
C666 C667 1.434 . S
C667 C658 1.429 . S
C667 N664 1.350 . S
C667 C666 1.434 . S
C668 C669 1.369 . S
C668 C670 1.419 . S
C668 H672 0.930 . S
C669 C668 1.369 . S
C669 C678 1.429 . S
C670 C668 1.419 . S
C670 C671 1.363 . S
C670 H673 0.929 . S
C671 C670 1.363 . S
C671 C677 1.428 . S
H672 C668 0.930 . S
H673 C670 0.929 . S
S674 N675 1.613 . S
S674 N676 1.610 . S
N675 S674 1.613 . S
N675 C678 1.350 1_554 S
N676 S674 1.610 . S
N676 C677 1.351 1_554 S
C677 C671 1.428 . S
C677 N676 1.351 1_556 S
C677 C678 1.434 . S
C678 C669 1.429 . S
C678 N675 1.350 1_556 S
C678 C677 1.434 . S
C679 C680 1.369 . S
C679 C681 1.419 . S
C679 H683 0.930 . S
C680 C679 1.369 . S
C680 C689 1.429 . S
C681 C679 1.419 . S
C681 C682 1.363 . S
C681 H684 0.929 . S
C682 C681 1.363 . S
C682 C688 1.428 . S
H683 C679 0.930 . S
H684 C681 0.929 . S
S685 N686 1.613 . S
S685 N687 1.610 . S
N686 S685 1.613 . S
N686 C689 1.350 1_554 S
N687 S685 1.610 . S
N687 C688 1.351 1_554 S
C688 C682 1.428 . S
C688 N687 1.351 1_556 S
C688 C689 1.434 . S
C689 C680 1.429 . S
C689 N686 1.350 1_556 S
C689 C688 1.434 . S
C690 C691 1.369 . S
C690 C692 1.419 . S
C690 H694 0.930 1_554 S
C691 C690 1.369 . S
C691 C700 1.429 . S
C692 C690 1.419 . S
C692 C693 1.363 . S
C692 H695 0.929 1_554 S
C693 C692 1.363 . S
C693 C699 1.428 . S
H694 C690 0.930 1_556 S
H695 C692 0.929 1_556 S
S696 N697 1.613 . S
S696 N698 1.610 . S
N697 S696 1.613 . S
N697 C700 1.350 . S
N698 S696 1.610 . S
N698 C699 1.351 . S
C699 C693 1.428 . S
C699 N698 1.351 . S
C699 C700 1.434 . S
C700 C691 1.429 . S
C700 N697 1.350 . S
C700 C699 1.434 . S
C701 C702 1.369 . S
C701 C703 1.419 . S
C701 H705 0.930 1_554 S
C702 C701 1.369 . S
C702 C711 1.429 . S
C703 C701 1.419 . S
C703 C704 1.363 . S
C703 H706 0.929 . S
C704 C703 1.363 . S
C704 C710 1.428 . S
H705 C701 0.930 1_556 S
H706 C703 0.929 . S
S707 N708 1.613 . S
S707 N709 1.610 . S
N708 S707 1.613 . S
N708 C711 1.350 . S
N709 S707 1.610 . S
N709 C710 1.351 . S
C710 C704 1.428 . S
C710 N709 1.351 . S
C710 C711 1.434 . S
C711 C702 1.429 . S
C711 N708 1.350 . S
C711 C710 1.434 . S
C712 C713 1.369 . S
C712 C714 1.419 . S
C712 H716 0.930 . S
C713 C712 1.369 . S
C713 C722 1.429 . S
C714 C712 1.419 . S
C714 C715 1.363 . S
C714 H717 0.929 . S
C715 C714 1.363 . S
C715 C721 1.428 . S
H716 C712 0.930 . S
H717 C714 0.929 . S
S718 N719 1.613 . S
S718 N720 1.610 . S
N719 S718 1.613 . S
N719 C722 1.350 . S
N720 S718 1.610 . S
N720 C721 1.351 . S
C721 C715 1.428 . S
C721 N720 1.351 . S
C721 C722 1.434 . S
C722 C713 1.429 . S
C722 N719 1.350 . S
C722 C721 1.434 . S
C723 C724 1.369 . S
C723 C725 1.419 . S
C723 H727 0.930 . S
C724 C723 1.369 . S
C724 C733 1.429 . S
C725 C723 1.419 . S
C725 C726 1.363 . S
C725 H728 0.929 . S
C726 C725 1.363 . S
C726 C732 1.428 . S
H727 C723 0.930 . S
H728 C725 0.929 . S
S729 N730 1.613 . S
S729 N731 1.610 . S
N730 S729 1.613 . S
N730 C733 1.350 . S
N731 S729 1.610 . S
N731 C732 1.351 . S
C732 C726 1.428 . S
C732 N731 1.351 . S
C732 C733 1.434 . S
C733 C724 1.429 . S
C733 N730 1.350 . S
C733 C732 1.434 . S
C734 C735 1.369 . S
C734 C736 1.419 . S
C734 H738 0.930 . S
C735 C734 1.369 . S
C735 C744 1.429 . S
C736 C734 1.419 . S
C736 C737 1.363 . S
C736 H739 0.929 . S
C737 C736 1.363 . S
C737 C743 1.428 . S
H738 C734 0.930 . S
H739 C736 0.929 . S
S740 N741 1.613 . S
S740 N742 1.610 . S
N741 S740 1.613 . S
N741 C744 1.350 . S
N742 S740 1.610 . S
N742 C743 1.351 . S
C743 C737 1.428 . S
C743 N742 1.351 . S
C743 C744 1.434 . S
C744 C735 1.429 . S
C744 N741 1.350 . S
C744 C743 1.434 . S
C745 C746 1.369 . S
C745 C747 1.419 . S
C745 H749 0.930 . S
C746 C745 1.369 . S
C746 C755 1.429 . S
C747 C745 1.419 . S
C747 C748 1.363 . S
C747 H750 0.929 . S
C748 C747 1.363 . S
C748 C754 1.428 . S
H749 C745 0.930 . S
H750 C747 0.929 . S
S751 N752 1.613 . S
S751 N753 1.610 . S
N752 S751 1.613 . S
N752 C755 1.350 . S
N753 S751 1.610 . S
N753 C754 1.351 . S
C754 C748 1.428 . S
C754 N753 1.351 . S
C754 C755 1.434 . S
C755 C746 1.429 . S
C755 N752 1.350 . S
C755 C754 1.434 . S
C756 C757 1.369 1_655 S
C756 C758 1.419 . S
C756 H760 0.930 . S
C757 C756 1.369 1_455 S
C757 C766 1.429 . S
C758 C756 1.419 . S
C758 C759 1.363 1_654 S
C758 H761 0.929 1_554 S
C759 C758 1.363 1_456 S
C759 C765 1.423 1_556 S
H760 C756 0.930 . S
H761 C758 0.929 1_556 S
S762 N763 1.613 . S
S762 N764 1.610 1_554 S
N763 S762 1.613 . S
N763 C766 1.350 . S
N764 S762 1.610 1_556 S
N764 C765 1.346 1_556 S
C765 C759 1.423 1_554 S
C765 N764 1.346 1_554 S
C765 C766 1.444 . S
C766 C757 1.429 . S
C766 N763 1.350 . S
C766 C765 1.444 . S
C767 C768 1.369 . S
C767 C769 1.419 . S
C767 H771 0.930 . S
C768 C767 1.369 . S
C768 C777 1.429 . S
C769 C767 1.419 . S
C769 C770 1.363 1_554 S
C769 H772 0.929 1_554 S
C770 C769 1.363 1_556 S
C770 C776 1.428 1_556 S
H771 C767 0.930 . S
H772 C769 0.929 1_556 S
S773 N774 1.613 . S
S773 N775 1.610 1_554 S
N774 S773 1.613 . S
N774 C777 1.350 . S
N775 S773 1.610 1_556 S
N775 C776 1.351 1_556 S
C776 C770 1.428 1_554 S
C776 N775 1.351 1_554 S
C776 C777 1.434 . S
C777 C768 1.429 . S
C777 N774 1.350 . S
C777 C776 1.434 . S
C778 C779 1.369 . S
C778 C780 1.419 . S
C778 H782 0.930 . S
C779 C778 1.369 . S
C779 C788 1.429 1_545 S
C780 C778 1.419 . S
C780 C781 1.363 1_554 S
C780 H783 0.929 1_554 S
C781 C780 1.363 1_556 S
C781 C787 1.428 . S
H782 C778 0.930 . S
H783 C780 0.929 1_556 S
S784 N785 1.613 . S
S784 N786 1.610 1_554 S
N785 S784 1.613 . S
N785 C788 1.350 . S
N786 S784 1.610 1_556 S
N786 C787 1.351 1_565 S
C787 C781 1.428 . S
C787 N786 1.351 1_545 S
C787 C788 1.434 1_546 S
C788 C779 1.429 1_565 S
C788 N785 1.350 . S
C788 C787 1.434 1_564 S
C789 C790 1.369 1_655 S
C789 C791 1.426 1_556 S
C789 H793 0.930 . S
C790 C789 1.369 1_455 S
C790 C799 1.429 . S
C791 C789 1.426 1_554 S
C791 C792 1.327 1_655 S
C791 H794 0.960 . S
C792 C791 1.327 1_455 S
C792 C798 1.428 1_554 S
H793 C789 0.930 . S
H794 C791 0.960 . S
S795 N796 1.613 . S
S795 N797 1.606 1_556 S
N796 S795 1.613 . S
N796 C799 1.350 . S
N797 S795 1.606 1_554 S
N797 C798 1.350 1_554 S
C798 C792 1.428 1_556 S
C798 N797 1.350 1_556 S
C798 C799 1.434 . S
C799 C790 1.429 . S
C799 N796 1.350 . S
C799 C798 1.434 . S
C800 C801 1.369 1_556 S
C800 C802 1.419 . S
C800 H804 0.930 1_556 S
C801 C800 1.369 1_554 S
C801 C810 1.429 . S
C802 C800 1.419 . S
C802 C803 1.363 . S
C802 H805 0.929 . S
C803 C802 1.363 . S
C803 C809 1.428 . S
H804 C800 0.930 1_554 S
H805 C802 0.929 . S
S806 N807 1.613 1_556 S
S806 N808 1.610 . S
N807 S806 1.613 1_554 S
N807 C810 1.350 . S
N808 S806 1.610 . S
N808 C809 1.351 . S
C809 C803 1.428 . S
C809 N808 1.351 . S
C809 C810 1.434 1_556 S
C810 C801 1.429 . S
C810 N807 1.350 . S
C810 C809 1.434 1_554 S
C811 C812 1.369 . S
C811 C813 1.419 1_554 S
C811 H815 0.930 . S
C812 C811 1.369 . S
C812 C821 1.429 1_554 S
C813 C811 1.419 1_556 S
C813 C814 1.363 . S
C813 H816 0.929 . S
C814 C813 1.363 . S
C814 C820 1.428 . S
H815 C811 0.930 . S
H816 C813 0.929 . S
S817 N818 1.613 1_556 S
S817 N819 1.610 1_565 S
N818 S817 1.613 1_554 S
N818 C821 1.350 1_564 S
N819 S817 1.610 1_545 S
N819 C820 1.351 . S
C820 C814 1.428 . S
C820 N819 1.351 . S
C820 C821 1.434 . S
C821 C812 1.429 1_556 S
C821 N818 1.350 1_546 S
C821 C820 1.434 . S
C822 C823 1.369 . S
C822 C824 1.419 . S
C822 H826 0.930 . S
C823 C822 1.369 . S
C823 C832 1.429 . S
C824 C822 1.419 . S
C824 C825 1.363 . S
C824 H827 0.929 . S
C825 C824 1.363 . S
C825 C831 1.428 . S
H826 C822 0.930 . S
H827 C824 0.929 . S
S828 N829 1.613 . S
S828 N830 1.610 . S
N829 S828 1.613 . S
N829 C832 1.350 . S
N830 S828 1.610 . S
N830 C831 1.351 . S
C831 C825 1.428 . S
C831 N830 1.351 . S
C831 C832 1.434 . S
C832 C823 1.429 . S
C832 N829 1.350 . S
C832 C831 1.434 . S
C833 C834 1.369 . S
C833 C835 1.419 . S
C833 H837 0.930 . S
C834 C833 1.369 . S
C834 C843 1.429 . S
C835 C833 1.419 . S
C835 C836 1.363 . S
C835 H838 0.929 . S
C836 C835 1.363 . S
C836 C842 1.428 . S
H837 C833 0.930 . S
H838 C835 0.929 . S
S839 N840 1.613 . S
S839 N841 1.610 . S
N840 S839 1.613 . S
N840 C843 1.350 . S
N841 S839 1.610 . S
N841 C842 1.351 . S
C842 C836 1.428 . S
C842 N841 1.351 . S
C842 C843 1.434 . S
C843 C834 1.429 . S
C843 N840 1.350 . S
C843 C842 1.434 . S
C844 C845 1.369 . S
C844 C846 1.419 . S
C844 H848 0.930 . S
C845 C844 1.369 . S
C845 C854 1.429 . S
C846 C844 1.419 . S
C846 C847 1.363 . S
C846 H849 0.929 . S
C847 C846 1.363 . S
C847 C853 1.428 . S
H848 C844 0.930 . S
H849 C846 0.929 . S
S850 N851 1.613 . S
S850 N852 1.610 . S
N851 S850 1.613 . S
N851 C854 1.350 . S
N852 S850 1.610 . S
N852 C853 1.351 . S
C853 C847 1.428 . S
C853 N852 1.351 . S
C853 C854 1.434 . S
C854 C845 1.429 . S
C854 N851 1.350 . S
C854 C853 1.434 . S
C855 C856 1.369 . S
C855 C857 1.419 . S
C855 H859 0.930 . S
C856 C855 1.369 . S
C856 C865 1.429 . S
C857 C855 1.419 . S
C857 C858 1.363 . S
C857 H860 0.929 . S
C858 C857 1.363 . S
C858 C864 1.428 . S
H859 C855 0.930 . S
H860 C857 0.929 . S
S861 N862 1.613 . S
S861 N863 1.610 . S
N862 S861 1.613 . S
N862 C865 1.350 . S
N863 S861 1.610 . S
N863 C864 1.351 . S
C864 C858 1.428 . S
C864 N863 1.351 . S
C864 C865 1.434 . S
C865 C856 1.429 . S
C865 N862 1.350 . S
C865 C864 1.434 . S
C866 C867 1.369 . S
C866 C868 1.419 . S
C866 H870 0.930 . S
C867 C866 1.369 . S
C867 C876 1.429 . S
C868 C866 1.419 . S
C868 C869 1.363 . S
C868 H871 0.929 . S
C869 C868 1.363 . S
C869 C875 1.428 . S
H870 C866 0.930 . S
H871 C868 0.929 . S
S872 N873 1.613 . S
S872 N874 1.610 . S
N873 S872 1.613 . S
N873 C876 1.350 . S
N874 S872 1.610 . S
N874 C875 1.351 . S
C875 C869 1.428 . S
C875 N874 1.351 . S
C875 C876 1.434 . S
C876 C867 1.429 . S
C876 N873 1.350 . S
C876 C875 1.434 . S
C877 C878 1.369 . S
C877 C879 1.419 . S
C877 H881 0.930 . S
C878 C877 1.369 . S
C878 C887 1.429 . S
C879 C877 1.419 . S
C879 C880 1.363 . S
C879 H882 0.929 . S
C880 C879 1.363 . S
C880 C886 1.428 . S
H881 C877 0.930 . S
H882 C879 0.929 . S
S883 N884 1.613 . S
S883 N885 1.610 . S
N884 S883 1.613 . S
N884 C887 1.350 . S
N885 S883 1.610 . S
N885 C886 1.351 . S
C886 C880 1.428 . S
C886 N885 1.351 . S
C886 C887 1.434 . S
C887 C878 1.429 . S
C887 N884 1.350 . S
C887 C886 1.434 . S
C888 C889 1.369 . S
C888 C890 1.419 . S
C888 H892 0.930 . S
C889 C888 1.369 . S
C889 C898 1.429 . S
C890 C888 1.419 . S
C890 C891 1.363 . S
C890 H893 0.929 . S
C891 C890 1.363 . S
C891 C897 1.428 . S
H892 C888 0.930 . S
H893 C890 0.929 . S
S894 N895 1.613 . S
S894 N896 1.610 . S
N895 S894 1.613 . S
N895 C898 1.350 . S
N896 S894 1.610 . S
N896 C897 1.351 . S
C897 C891 1.428 . S
C897 N896 1.351 . S
C897 C898 1.434 . S
C898 C889 1.429 . S
C898 N895 1.350 . S
C898 C897 1.434 . S
C899 C900 1.369 . S
C899 C901 1.419 . S
C899 H903 0.930 . S
C900 C899 1.369 . S
C900 C909 1.429 . S
C901 C899 1.419 . S
C901 C902 1.363 . S
C901 H904 0.929 . S
C902 C901 1.363 . S
C902 C908 1.428 . S
H903 C899 0.930 . S
H904 C901 0.929 . S
S905 N906 1.613 . S
S905 N907 1.610 . S
N906 S905 1.613 . S
N906 C909 1.350 . S
N907 S905 1.610 . S
N907 C908 1.351 . S
C908 C902 1.428 . S
C908 N907 1.351 . S
C908 C909 1.434 . S
C909 C900 1.429 . S
C909 N906 1.350 . S
C909 C908 1.434 . S
C910 C911 1.369 . S
C910 C912 1.419 . S
C910 H914 0.930 . S
C911 C910 1.369 . S
C911 C920 1.429 . S
C912 C910 1.419 . S
C912 C913 1.363 . S
C912 H915 0.929 . S
C913 C912 1.363 . S
C913 C919 1.428 . S
H914 C910 0.930 . S
H915 C912 0.929 . S
S916 N917 1.613 . S
S916 N918 1.610 . S
N917 S916 1.613 . S
N917 C920 1.350 . S
N918 S916 1.610 . S
N918 C919 1.351 . S
C919 C913 1.428 . S
C919 N918 1.351 . S
C919 C920 1.434 . S
C920 C911 1.429 . S
C920 N917 1.350 . S
C920 C919 1.434 . S
C921 C922 1.369 . S
C921 C923 1.419 . S
C921 H925 0.930 . S
C922 C921 1.369 . S
C922 C931 1.429 . S
C923 C921 1.419 . S
C923 C924 1.363 . S
C923 H926 0.929 . S
C924 C923 1.363 . S
C924 C930 1.428 . S
H925 C921 0.930 . S
H926 C923 0.929 . S
S927 N928 1.613 . S
S927 N929 1.610 . S
N928 S927 1.613 . S
N928 C931 1.350 . S
N929 S927 1.610 . S
N929 C930 1.351 . S
C930 C924 1.428 . S
C930 N929 1.351 . S
C930 C931 1.434 . S
C931 C922 1.429 . S
C931 N928 1.350 . S
C931 C930 1.434 . S
C932 C933 1.369 . S
C932 C934 1.419 . S
C932 H936 0.930 . S
C933 C932 1.369 . S
C933 C942 1.429 . S
C934 C932 1.419 . S
C934 C935 1.363 . S
C934 H937 0.929 . S
C935 C934 1.363 . S
C935 C941 1.428 . S
H936 C932 0.930 . S
H937 C934 0.929 . S
S938 N939 1.613 . S
S938 N940 1.610 . S
N939 S938 1.613 . S
N939 C942 1.350 . S
N940 S938 1.610 . S
N940 C941 1.351 . S
C941 C935 1.428 . S
C941 N940 1.351 . S
C941 C942 1.434 . S
C942 C933 1.429 . S
C942 N939 1.350 . S
C942 C941 1.434 . S
C943 C944 1.369 . S
C943 C945 1.419 . S
C943 H947 0.930 . S
C944 C943 1.369 . S
C944 C953 1.429 . S
C945 C943 1.419 . S
C945 C946 1.363 . S
C945 H948 0.929 . S
C946 C945 1.363 . S
C946 C952 1.428 . S
H947 C943 0.930 . S
H948 C945 0.929 . S
S949 N950 1.613 . S
S949 N951 1.610 . S
N950 S949 1.613 . S
N950 C953 1.350 . S
N951 S949 1.610 . S
N951 C952 1.351 . S
C952 C946 1.428 . S
C952 N951 1.351 . S
C952 C953 1.434 . S
C953 C944 1.429 . S
C953 N950 1.350 . S
C953 C952 1.434 . S
C361 C262 1.559 . S
C363 C19 1.695 . S
C372 C39 1.693 . S
C374 C282 1.559 . S
C383 C59 1.689 . S
C385 C242 1.550 . S
C394 C42 1.547 . S
C396 C159 1.692 . S
C405 C179 1.695 . S
C407 C2 1.558 . S
C416 C22 1.560 . S
C418 C139 1.692 . S
C427 C78 1.694 . S
C429 C204 1.559 . S
C438 C98 1.696 . S
C440 C224 1.551 . S
C449 C184 1.547 . S
C451 C118 1.692 . S
C460 C338 1.697 . S
C462 C104 1.554 . S
C471 C64 1.555 . S
C473 C358 1.689 . S
C482 C318 1.689 . S
C484 C84 1.553 . S
C493 C162 1.547 1_455 S
C495 C279 1.693 . S
C504 C122 1.555 . S
C506 C299 1.696 . S
C515 C142 1.555 . S
C517 C259 1.696 . S
C526 C198 1.689 . S
C528 C324 1.551 1_545 S
C537 C344 1.560 . S
C539 C218 1.694 . S
C548 C304 1.547 . S
C550 C238 1.692 . S
C559 C4 1.664 . S
C561 C99 1.674 . S
C570 C119 1.672 . S
C572 C24 1.665 . S
C581 C79 1.674 . S
C583 C44 1.664 . S
C592 C82 1.662 . S
C594 C58 1.675 . S
C603 C102 1.663 . S
C605 C18 1.675 . S
C614 C62 1.662 . S
C616 C38 1.674 . S
C625 C219 1.673 . S
C627 C124 1.664 . S
C636 C239 1.676 . S
C638 C144 1.662 . S
C647 C199 1.671 . S
C649 C164 1.667 . S
C658 C202 1.665 . S
C660 C178 1.673 . S
C669 C222 1.661 . S
C671 C138 1.676 . S
C680 C182 1.661 . S
C682 C158 1.675 . S
C691 C339 1.671 . S
C693 C244 1.667 . S
C702 C359 1.671 . S
C704 C264 1.666 . S
C713 C284 1.667 . S
C715 C319 1.672 . S
C724 C298 1.671 . S
C726 C322 1.665 . S
C735 C258 1.674 . S
C737 C342 1.665 . S
C746 C302 1.665 . S
C748 C278 1.673 . S
C757 C12 1.415 . S
C759 C9 1.417 . S
C768 C32 1.416 . S
C770 C29 1.416 . S
C779 C52 1.414 1_545 S
C781 C49 1.417 . S
C790 C69 1.425 . S
C792 C72 1.415 . S
C801 C92 1.417 . S
C803 C89 1.415 . S
C812 C112 1.414 . S
C814 C109 1.417 . S
C823 C129 1.418 . S
C825 C132 1.414 . S
C834 C152 1.414 . S
C836 C149 1.417 . S
C845 C169 1.417 . S
C847 C172 1.415 . S
C856 C189 1.415 . S
C858 C192 1.416 . S
C867 C209 1.417 . S
C869 C212 1.414 . S
C878 C229 1.414 . S
C880 C232 1.417 . S
C889 C249 1.416 . S
C891 C252 1.415 . S
C900 C272 1.414 . S
C902 C269 1.417 . S
C911 C292 1.417 . S
C913 C289 1.415 . S
C922 C312 1.414 . S
C924 C309 1.417 . S
C933 C332 1.414 . S
C935 C329 1.417 . S
C944 C349 1.414 . S
C946 C352 1.417 . S
