# Generated by pormake.
# Topology ske, (6)-cn, num edge types: 1
# Building blocks:
#     Node 0, Type 0, BuildingBlock: BETDIP_clean_sbu_0, # of connection points: 6
#     Node 1, Type 0, BuildingBlock: BETDIP_clean_sbu_0, # of connection points: 6
#     Node 2, Type 0, BuildingBlock: BETDIP_clean_sbu_0, # of connection points: 6
#     Node 3, Type 0, BuildingBlock: BETDIP_clean_sbu_0, # of connection points: 6
#     Node 4, Type 0, BuildingBlock: BETDIP_clean_sbu_0, # of connection points: 6
#     Node 5, Type 0, BuildingBlock: BETDIP_clean_sbu_0, # of connection points: 6
#     Node 6, Type 0, BuildingBlock: BETDIP_clean_sbu_0, # of connection points: 6
#     Node 7, Type 0, BuildingBlock: BETDIP_clean_sbu_0, # of connection points: 6
#     Edge 8, Type (0, 0), BuildingBlock: AJUNOK_clean_linker_0, # of connection points: 2
#     Edge 9, Type (0, 0), BuildingBlock: AJUNOK_clean_linker_0, # of connection points: 2
#     Edge 10, Type (0, 0), BuildingBlock: AJUNOK_clean_linker_0, # of connection points: 2
#     Edge 11, Type (0, 0), BuildingBlock: AJUNOK_clean_linker_0, # of connection points: 2
#     Edge 12, Type (0, 0), BuildingBlock: AJUNOK_clean_linker_0, # of connection points: 2
#     Edge 13, Type (0, 0), BuildingBlock: AJUNOK_clean_linker_0, # of connection points: 2
#     Edge 14, Type (0, 0), BuildingBlock: AJUNOK_clean_linker_0, # of connection points: 2
#     Edge 15, Type (0, 0), BuildingBlock: AJUNOK_clean_linker_0, # of connection points: 2
#     Edge 16, Type (0, 0), BuildingBlock: AJUNOK_clean_linker_0, # of connection points: 2
#     Edge 17, Type (0, 0), BuildingBlock: AJUNOK_clean_linker_0, # of connection points: 2
#     Edge 18, Type (0, 0), BuildingBlock: AJUNOK_clean_linker_0, # of connection points: 2
#     Edge 19, Type (0, 0), BuildingBlock: AJUNOK_clean_linker_0, # of connection points: 2
#     Edge 20, Type (0, 0), BuildingBlock: AJUNOK_clean_linker_0, # of connection points: 2
#     Edge 21, Type (0, 0), BuildingBlock: AJUNOK_clean_linker_0, # of connection points: 2
#     Edge 22, Type (0, 0), BuildingBlock: AJUNOK_clean_linker_0, # of connection points: 2
#     Edge 23, Type (0, 0), BuildingBlock: AJUNOK_clean_linker_0, # of connection points: 2
#     Edge 24, Type (0, 0), BuildingBlock: AJUNOK_clean_linker_0, # of connection points: 2
#     Edge 25, Type (0, 0), BuildingBlock: AJUNOK_clean_linker_0, # of connection points: 2
#     Edge 26, Type (0, 0), BuildingBlock: AJUNOK_clean_linker_0, # of connection points: 2
#     Edge 27, Type (0, 0), BuildingBlock: AJUNOK_clean_linker_0, # of connection points: 2
#     Edge 28, Type (0, 0), BuildingBlock: AJUNOK_clean_linker_0, # of connection points: 2
#     Edge 29, Type (0, 0), BuildingBlock: AJUNOK_clean_linker_0, # of connection points: 2
#     Edge 30, Type (0, 0), BuildingBlock: AJUNOK_clean_linker_0, # of connection points: 2
#     Edge 31, Type (0, 0), BuildingBlock: AJUNOK_clean_linker_0, # of connection points: 2
# Relax obj value: 0.219
# Max RMSD: 0.220
# Mean RMSD: 0.213
data_MOF--net-ske--node1-BETDIP_clean_sbu_0--edge1-AJUNOK_clean_linker_0
_symmetry_space_group_name_H-M    P1
_symmetry_Int_Tables_number       1
_symmetry_cell_setting            triclinic
loop_
_symmetry_equiv_pos_as_xyz
'x, y, z'
_cell_length_a     87.492153
_cell_length_b     21.112236
_cell_length_c     11.444837
_cell_angle_alpha  90.064073
_cell_angle_beta   89.861956
_cell_angle_gamma 89.966051
loop_
_atom_site_label
_atom_site_type_symbol
_atom_site_fract_x
_atom_site_fract_y
_atom_site_fract_z
_atom_type_partial_charge
Tb0 Tb 0.16194 0.25836 0.55673 0.0
Tb1 Tb 0.12829 0.25164 0.56051 0.0
C2 C 0.19062 0.27372 0.57112 0.0
C3 C 0.205 0.28747 0.63702 0.0
C4 C 0.21485 0.33572 0.5981 0.0
C5 C 0.22988 0.34054 0.64086 0.0
C6 C 0.23552 0.29689 0.72331 0.0
C7 C 0.22546 0.25013 0.7655 0.0
C8 C 0.21042 0.24555 0.7233 0.0
C9 C 0.15029 0.14334 0.51599 0.0
C10 C 0.14565 0.2532 0.80353 0.0
C11 C 0.10011 0.2291 0.58997 0.0
C12 C 0.08408 0.24136 0.55086 0.0
C13 C 0.07519 0.19117 0.50727 0.0
C14 C 0.0594 0.19845 0.48929 0.0
C15 C 0.05201 0.25615 0.51484 0.0
C16 C 0.06098 0.30689 0.55562 0.0
C17 C 0.07678 0.29967 0.57329 0.0
C18 C 0.13881 0.36683 0.51116 0.0
C19 C 0.14487 0.25455 0.31764 0.0
O20 O 0.18126 0.31913 0.53922 0.0
O21 O 0.18343 0.22104 0.59476 0.0
O22 O 0.14577 0.18274 0.59155 0.0
O23 O 0.16173 0.16811 0.4615 0.0
O24 O 0.15857 0.26399 0.74663 0.0
O25 O 0.13277 0.24342 0.74693 0.0
O26 O 0.10912 0.19365 0.52527 0.0
O27 O 0.10753 0.27543 0.64057 0.0
O28 O 0.14443 0.32918 0.5861 0.0
O29 O 0.12686 0.3405 0.46659 0.0
O30 O 0.13319 0.23031 0.37675 0.0
O31 O 0.1567 0.27928 0.37368 0.0
H32 H 0.2112 0.3679 0.52997 0.0
H33 H 0.23732 0.37659 0.60492 0.0
H34 H 0.22934 0.21601 0.82951 0.0
H35 H 0.2033 0.20723 0.75472 0.0
H36 H 0.08033 0.14525 0.49158 0.0
H37 H 0.05286 0.15788 0.46014 0.0
H38 H 0.05571 0.35205 0.57586 0.0
H39 H 0.08315 0.33928 0.60841 0.0
Tb40 Tb 0.87296 0.25088 0.53658 0.0
Tb41 Tb 0.90659 0.25275 0.54574 0.0
C42 C 0.8447 0.22455 0.55265 0.0
C43 C 0.83014 0.22884 0.621 0.0
C44 C 0.82272 0.17281 0.65556 0.0
C45 C 0.80787 0.17422 0.70245 0.0
C46 C 0.79994 0.23184 0.71649 0.0
C47 C 0.80748 0.28815 0.684 0.0
C48 C 0.82236 0.28671 0.63689 0.0
C49 C 0.88486 0.36581 0.51012 0.0
C50 C 0.88999 0.25931 0.78611 0.0
C51 C 0.93519 0.26359 0.52589 0.0
C52 C 0.95217 0.26715 0.5125 0.0
C53 C 0.9604 0.32171 0.54454 0.0
C54 C 0.97648 0.32269 0.5387 0.0
C55 C 0.98476 0.26923 0.50021 0.0
C56 C 0.97647 0.21491 0.46763 0.0
C57 C 0.96045 0.21396 0.47337 0.0
C58 C 0.89393 0.13855 0.56953 0.0
C59 C 0.88989 0.25279 0.29998 0.0
O60 O 0.85561 0.18704 0.58921 0.0
O61 O 0.85012 0.27599 0.50465 0.0
O62 O 0.88948 0.32363 0.58011 0.0
O63 O 0.87272 0.34516 0.45867 0.0
O64 O 0.87716 0.24787 0.72769 0.0
O65 O 0.90304 0.26906 0.73079 0.0
O66 O 0.92654 0.30981 0.56464 0.0
O67 O 0.92757 0.21305 0.49546 0.0
O68 O 0.89004 0.18128 0.49855 0.0
O69 O 0.90518 0.16009 0.63088 0.0
O70 O 0.9016 0.27459 0.36126 0.0
O71 O 0.87794 0.22835 0.3545 0.0
H72 H 0.8282 0.12733 0.64197 0.0
H73 H 0.80238 0.1297 0.72344 0.0
H74 H 0.80179 0.33342 0.69368 0.0
H75 H 0.82757 0.33085 0.6098 0.0
H76 H 0.95442 0.3634 0.57571 0.0
H77 H 0.98245 0.36537 0.5645 0.0
H78 H 0.98238 0.17226 0.44052 0.0
H79 H 0.95456 0.1708 0.44917 0.0
Tb80 Tb 0.16212 0.74824 0.51033 0.0
Tb81 Tb 0.12872 0.76394 0.49916 0.0
C82 C 0.18996 0.71421 0.49645 0.0
C83 C 0.20493 0.72029 0.43416 0.0
C84 C 0.21351 0.66537 0.4108 0.0
C85 C 0.22863 0.6693 0.36986 0.0
C86 C 0.23572 0.72841 0.35158 0.0
C87 C 0.2269 0.78347 0.3707 0.0
C88 C 0.21174 0.77951 0.41191 0.0
C89 C 0.15263 0.86808 0.5317 0.0
C90 C 0.14617 0.76589 0.26223 0.0
C91 C 0.10078 0.79759 0.511 0.0
C92 C 0.08463 0.77983 0.53993 0.0
C93 C 0.07624 0.81672 0.6201 0.0
C94 C 0.06037 0.80858 0.63353 0.0
C95 C 0.05236 0.76327 0.56708 0.0
C96 C 0.06084 0.72525 0.48894 0.0
C97 C 0.07671 0.73334 0.47563 0.0
C98 C 0.13792 0.64325 0.48319 0.0
C99 C 0.14507 0.75443 0.74711 0.0
O100 O 0.17874 0.68344 0.4467 0.0
O101 O 0.18505 0.76288 0.55609 0.0
O102 O 0.14729 0.82694 0.46314 0.0
O103 O 0.16431 0.84385 0.58368 0.0
O104 O 0.15782 0.74094 0.32002 0.0
O105 O 0.13463 0.79109 0.32076 0.0
O106 O 0.11063 0.80708 0.59487 0.0
O107 O 0.10716 0.77089 0.42047 0.0
O108 O 0.1435 0.68519 0.54892 0.0
O109 O 0.12605 0.66738 0.43381 0.0
O110 O 0.13367 0.77938 0.68632 0.0
O111 O 0.15653 0.72638 0.69194 0.0
H112 H 0.20868 0.61909 0.42844 0.0
H113 H 0.23498 0.62583 0.35656 0.0
H114 H 0.23176 0.82983 0.35483 0.0
H115 H 0.20551 0.82287 0.42919 0.0
H116 H 0.08189 0.85368 0.66954 0.0
H117 H 0.0543 0.83867 0.69474 0.0
H118 H 0.05512 0.69091 0.43401 0.0
H119 H 0.08266 0.70473 0.41139 0.0
Tb120 Tb 0.87423 0.75582 0.51679 0.0
Tb121 Tb 0.90799 0.74926 0.50296 0.0
C122 C 0.84594 0.78276 0.50476 0.0
C123 C 0.83114 0.77783 0.44003 0.0
C124 C 0.8237 0.83336 0.40289 0.0
C125 C 0.8086 0.83162 0.36115 0.0
C126 C 0.80039 0.77429 0.35616 0.0
C127 C 0.80806 0.71829 0.38877 0.0
C128 C 0.82317 0.72004 0.43062 0.0
C129 C 0.88578 0.63959 0.53916 0.0
C130 C 0.89035 0.74522 0.26766 0.0
C131 C 0.93635 0.72232 0.50809 0.0
C132 C 0.95247 0.73856 0.5409 0.0
C133 C 0.96027 0.70255 0.62537 0.0
C134 C 0.97619 0.70831 0.63993 0.0
C135 C 0.98486 0.74961 0.56917 0.0
C136 C 0.97693 0.78767 0.48842 0.0
C137 C 0.96103 0.78211 0.47422 0.0
C138 C 0.89642 0.8667 0.49136 0.0
C139 C 0.89147 0.75744 0.75303 0.0
O140 O 0.8568 0.81944 0.46435 0.0
O141 O 0.85145 0.7319 0.5541 0.0
O142 O 0.89029 0.68149 0.46833 0.0
O143 O 0.87384 0.66091 0.59271 0.0
O144 O 0.87837 0.76565 0.32777 0.0
O145 O 0.90242 0.7229 0.32324 0.0
O146 O 0.92655 0.7028 0.58686 0.0
O147 O 0.92974 0.75615 0.42741 0.0
O148 O 0.89198 0.8222 0.55569 0.0
O149 O 0.90876 0.84773 0.44058 0.0
O150 O 0.90361 0.7371 0.69345 0.0
O151 O 0.87944 0.77976 0.6968 0.0
H152 H 0.82936 0.87879 0.41058 0.0
H153 H 0.80314 0.87576 0.3371 0.0
H154 H 0.80231 0.67299 0.38342 0.0
H155 H 0.82843 0.67624 0.45893 0.0
H156 H 0.95414 0.668 0.67736 0.0
H157 H 0.98174 0.67943 0.70541 0.0
H158 H 0.98313 0.81996 0.43215 0.0
H159 H 0.95557 0.81012 0.40696 0.0
Tb160 Tb 0.66218 0.76182 0.04705 0.0
Tb161 Tb 0.62835 0.75412 0.05511 0.0
C162 C 0.69014 0.79285 0.06369 0.0
C163 C 0.70499 0.78774 0.12712 0.0
C164 C 0.71383 0.84269 0.14276 0.0
C165 C 0.72887 0.83917 0.18481 0.0
C166 C 0.73556 0.7805 0.21307 0.0
C167 C 0.72655 0.72549 0.20062 0.0
C168 C 0.71148 0.72902 0.1579 0.0
C169 C 0.65132 0.6447 1.02305 0.0
C170 C 0.64483 0.75524 0.29646 0.0
C171 C 0.60034 0.72909 1.02014 0.0
C172 C 0.58398 0.73513 0.0551 0.0
C173 C 0.57358 0.68938 1.01503 0.0
C174 C 0.55777 0.69743 1.03001 0.0
C175 C 0.55181 0.75163 0.08579 0.0
C176 C 0.56233 0.79625 0.13063 0.0
C177 C 0.57821 0.78837 0.11462 0.0
C178 C 0.63957 0.87088 0.07599 0.0
C179 C 0.64577 0.75895 0.81091 0.0
O180 O 0.67895 0.82572 0.10993 0.0
O181 O 0.68517 0.7432 1.00709 0.0
O182 O 0.64624 0.68703 0.09103 0.0
O183 O 0.66345 0.66648 0.97261 0.0
O184 O 0.65765 0.7647 0.23654 0.0
O185 O 0.63165 0.74489 0.24296 0.0
O186 O 0.60949 0.69242 0.08009 0.0
O187 O 0.60729 0.7797 0.98165 0.0
O188 O 0.6443 0.82779 1.00833 0.0
O189 O 0.62777 0.84931 0.13179 0.0
O190 O 0.6344 0.733 0.87076 0.0
O191 O 0.65708 0.78652 0.86743 0.0
H192 H 0.70925 0.88852 0.1185 0.0
H193 H 0.73537 0.88255 0.19385 0.0
H194 H 0.73134 0.67936 0.21973 0.0
H195 H 0.70509 0.68562 0.14551 0.0
H196 H 0.57767 0.64821 0.96774 0.0
H197 H 0.55016 0.66211 0.99366 0.0
H198 H 0.55831 0.83772 0.17712 0.0
H199 H 0.58594 0.82455 0.1463 0.0
Tb200 Tb 0.37424 0.75611 0.04336 0.0
Tb201 Tb 0.40805 0.76499 0.04952 0.0
C202 C 0.34634 0.72416 0.06153 0.0
C203 C 0.33144 0.72885 0.12537 0.0
C204 C 0.32365 0.67287 0.15497 0.0
C205 C 0.30854 0.6746 0.19675 0.0
C206 C 0.30073 0.73249 0.21065 0.0
C207 C 0.3087 0.78879 0.18432 0.0
C208 C 0.32383 0.78702 0.14197 0.0
C209 C 0.38492 0.87359 1.01837 0.0
C210 C 0.3917 0.76264 0.29179 0.0
C211 C 0.43586 0.79195 1.00999 0.0
C212 C 0.45248 0.78826 0.03654 0.0
C213 C 0.46271 0.81467 0.95551 0.0
C214 C 0.47854 0.81074 0.97194 0.0
C215 C 0.48472 0.78073 0.07094 0.0
C216 C 0.47443 0.75371 0.15224 0.0
C217 C 0.45845 0.7575 0.13533 0.0
C218 C 0.39712 0.64774 0.07048 0.0
C219 C 0.39058 0.75914 0.80635 0.0
O220 O 0.35761 0.69194 0.10764 0.0
O221 O 0.3512 0.77362 1.00384 0.0
O222 O 0.39005 0.83157 0.0864 0.0
O223 O 0.37273 0.85152 0.9696 0.0
O224 O 0.37886 0.75288 0.23259 0.0
O225 O 0.40483 0.77383 0.2377 0.0
O226 O 0.42683 0.82652 0.07558 0.0
O227 O 0.42905 0.74118 0.97089 0.0
O228 O 0.39224 0.69068 1.00348 0.0
O229 O 0.40895 0.66967 0.12516 0.0
O230 O 0.40182 0.78614 0.86582 0.0
O231 O 0.37937 0.73113 0.86351 0.0
H232 H 0.32907 0.62726 0.14168 0.0
H233 H 0.30286 0.63032 0.21666 0.0
H234 H 0.30304 0.83422 0.19202 0.0
H235 H 0.32936 0.8311 0.1185 0.0
H236 H 0.45842 0.83781 0.8777 0.0
H237 H 0.48596 0.83017 0.90518 0.0
H238 H 0.47873 0.72986 0.22916 0.0
H239 H 0.45082 0.73617 0.19866 0.0
Tb240 Tb 0.66189 0.25324 1.03241 0.0
Tb241 Tb 0.62814 0.26046 1.02585 0.0
C242 C 0.68983 0.22184 1.01532 0.0
C243 C 0.70468 0.22585 0.9511 0.0
C244 C 0.71283 0.16973 0.9285 0.0
C245 C 0.72794 0.17151 0.88717 0.0
C246 C 0.73542 0.22958 0.86759 0.0
C247 C 0.72704 0.28587 0.88499 0.0
C248 C 0.71189 0.28408 0.927 0.0
C249 C 0.65095 0.37029 0.05751 0.0
C250 C 0.64448 0.2617 0.78371 0.0
C251 C 0.59995 0.28329 0.0592 0.0
C252 C 0.58375 0.27297 1.02198 0.0
C253 C 0.57483 0.32501 0.9868 0.0
C254 C 0.55896 0.31914 0.97133 0.0
C255 C 0.55149 0.26098 0.99068 0.0
C256 C 0.56049 0.20844 1.02291 0.0
C257 C 0.57637 0.21432 0.03842 0.0
C258 C 0.63957 0.14402 1.0032 0.0
C259 C 0.64536 0.25873 0.26918 0.0
O260 O 0.67862 0.18846 0.97123 0.0
O261 O 0.6849 0.27219 0.07021 0.0
O262 O 0.6459 0.32805 0.98945 0.0
O263 O 0.66321 0.34878 0.10602 0.0
O264 O 0.65739 0.25093 0.84174 0.0
O265 O 0.63142 0.27165 0.83918 0.0
O266 O 0.60891 0.31921 0.99581 0.0
O267 O 0.60736 0.23585 0.10565 0.0
O268 O 0.64415 0.18677 0.07186 0.0
O269 O 0.62774 0.16553 0.94819 0.0
O270 O 0.63418 0.28448 0.20765 0.0
O271 O 0.6568 0.23065 0.21428 0.0
H272 H 0.70767 0.12417 0.94699 0.0
H273 H 0.73388 0.1272 0.8723 0.0
H274 H 0.7324 0.33142 0.87051 0.0
H275 H 0.70603 0.32832 0.94425 0.0
H276 H 0.58006 0.37111 0.97541 0.0
H277 H 0.55247 0.3606 0.94613 0.0
H278 H 0.55517 0.1632 0.04113 0.0
H279 H 0.58275 0.17336 0.0677 0.0
Tb280 Tb 0.37381 0.26641 1.03125 0.0
Tb281 Tb 0.40755 0.2569 1.02276 0.0
C282 C 0.34596 0.29897 1.01311 0.0
C283 C 0.33101 0.29196 0.95076 0.0
C284 C 0.32612 0.33825 0.87056 0.0
C285 C 0.31104 0.33855 0.82805 0.0
C286 C 0.30033 0.29296 0.86542 0.0
C287 C 0.3054 0.24524 0.94201 0.0
C288 C 0.32047 0.24492 0.98446 0.0
C289 C 0.38431 0.14847 0.05401 0.0
C290 C 0.39109 0.25871 0.78151 0.0
C291 C 0.43548 0.23015 0.05651 0.0
C292 C 0.45182 0.23429 1.01961 0.0
C293 C 0.46117 0.18059 1.0323 0.0
C294 C 0.47707 0.1845 1.01751 0.0
C295 C 0.48416 0.24233 0.98868 0.0
C296 C 0.47473 0.29589 0.97297 0.0
C297 C 0.45877 0.29199 0.98838 0.0
C298 C 0.39659 0.37409 1.00007 0.0
C299 C 0.39022 0.26339 0.26703 0.0
O300 O 0.35725 0.32898 0.96216 0.0
O301 O 0.35082 0.25178 0.07688 0.0
O302 O 0.3895 0.19069 0.98659 0.0
O303 O 0.3722 0.17076 0.10416 0.0
O304 O 0.37831 0.26887 0.84163 0.0
O305 O 0.40424 0.24763 0.83492 0.0
O306 O 0.42608 0.19333 0.99911 0.0
O307 O 0.42878 0.28156 0.09443 0.0
O308 O 0.39183 0.33179 0.06905 0.0
O309 O 0.40839 0.35176 0.94516 0.0
O310 O 0.40148 0.23647 0.20715 0.0
O311 O 0.37906 0.29187 0.21043 0.0
H312 H 0.33381 0.37568 0.84351 0.0
H313 H 0.30772 0.37515 0.76698 0.0
H314 H 0.29754 0.20939 0.97304 0.0
H315 H 0.32365 0.20905 0.04746 0.0
H316 H 0.45621 0.1358 0.05876 0.0
H317 H 0.48387 0.14255 0.03367 0.0
H318 H 0.47971 0.34121 0.95045 0.0
H319 H 0.45195 0.3345 0.97919 0.0
C320 C 0.26064 0.24099 0.75983 0.0
C321 C 0.25202 0.2975 0.76017 0.0
C322 C 0.27616 0.24007 0.79266 0.0
C323 C 0.28385 0.29563 0.82758 0.0
H324 H 0.25538 0.19698 0.73245 0.0
H325 H 0.28222 0.19536 0.78964 0.0
S326 S 0.26623 0.45528 0.85325 0.0
N327 N 0.25225 0.41005 0.80412 0.0
N328 N 0.28124 0.4084 0.86651 0.0
C329 C 0.27532 0.35239 0.82959 0.0
C330 C 0.25951 0.35331 0.79582 0.0
C331 C 0.757 0.26888 0.73827 0.0
C332 C 0.752 0.23119 0.8325 0.0
C333 C 0.77246 0.26955 0.70257 0.0
C334 C 0.78366 0.23279 0.75979 0.0
H335 H 0.74884 0.29715 0.69004 0.0
H336 H 0.77559 0.29812 0.62772 0.0
S337 S 0.77691 0.13207 1.02076 0.0
N338 N 0.75982 0.16011 0.98816 0.0
N339 N 0.7887 0.16173 0.92215 0.0
C340 C 0.77887 0.19646 0.85643 0.0
C341 C 0.76314 0.1956 0.89242 0.0
C342 C 0.27359 0.69186 0.19473 0.0
C343 C 0.28417 0.73341 0.24731 0.0
C344 C 0.25805 0.69117 0.22768 0.0
C345 C 0.25228 0.73195 0.31503 0.0
H346 H 0.27732 0.65979 0.12644 0.0
H347 H 0.25046 0.65849 0.18358 0.0
S348 S 0.27535 0.8468 0.48638 0.0
N349 N 0.28778 0.81468 0.39503 0.0
N350 N 0.25875 0.81315 0.45741 0.0
C351 C 0.26276 0.77351 0.36889 0.0
C352 C 0.2786 0.7743 0.33504 0.0
C353 C 0.76339 0.8108 0.1889 0.0
C354 C 0.75204 0.77705 0.25063 0.0
C355 C 0.77888 0.80911 0.22259 0.0
C356 C 0.78382 0.7736 0.31979 0.0
H357 H 0.7603 0.83848 0.11291 0.0
H358 H 0.78709 0.83564 0.17131 0.0
S359 S 0.75857 0.68063 0.51696 0.0
N360 N 0.74684 0.70928 0.41733 0.0
N361 N 0.77577 0.70637 0.48097 0.0
C362 C 0.77256 0.74 0.38289 0.0
C363 C 0.75678 0.74164 0.34835 0.0
C364 C 0.15197 0.97429 0.62953 0.0
C365 C 0.14963 0.93759 0.52813 0.0
C366 C 0.15107 0.04093 0.62707 0.0
C367 C 0.1482 0.07354 0.52227 0.0
H368 H 0.15487 0.95129 0.71112 0.0
H369 H 0.15344 0.06718 0.70637 0.0
S370 S 0.14067 1.00028 0.23346 0.0
N371 N 0.14347 0.93927 0.32124 0.0
N372 N 0.1425 0.06428 0.31555 0.0
C373 C 0.14547 0.03751 0.421 0.0
C374 C 0.14596 0.9696 0.42416 0.0
C375 C 0.88659 0.47252 0.41626 0.0
C376 C 0.88828 0.43478 0.51702 0.0
C377 C 0.88706 0.53916 0.42212 0.0
C378 C 0.88881 0.57054 0.52964 0.0
H379 H 0.88435 0.45031 0.33262 0.0
H380 H 0.88507 0.56621 0.3432 0.0
S381 S 0.89458 0.49426 0.81798 0.0
N382 N 0.89285 0.43418 0.72627 0.0
N383 N 0.89301 0.55913 0.73812 0.0
C384 C 0.89108 0.53348 0.63024 0.0
C385 C 0.89103 0.46566 0.62379 0.0
C386 C 0.89477 0.96078 0.62516 0.0
C387 C 0.89326 0.93486 0.51251 0.0
C388 C 0.8943 0.02678 0.64331 0.0
C389 C 0.8919 0.06922 0.5501 0.0
H390 H 0.89712 0.9301 0.69881 0.0
H391 H 0.89627 0.04487 0.73061 0.0
S392 S 0.88593 0.02429 0.23986 0.0
N393 N 0.88855 0.95605 0.30752 0.0
N394 N 0.88701 0.07956 0.34186 0.0
C395 C 0.8895 0.04343 0.4381 0.0
C396 C 0.89038 0.97639 0.41929 0.0
C397 C 0.13279 0.53517 0.40652 0.0
C398 C 0.14048 0.57323 0.48833 0.0
C399 C 0.13312 0.46896 0.4128 0.0
C400 C 0.14111 0.43688 0.50157 0.0
H401 H 0.12605 0.55674 0.33793 0.0
H402 H 0.1266 0.44264 0.3487 0.0
S403 S 0.16462 0.51364 0.73097 0.0
N404 N 0.1575 0.57373 0.65607 0.0
N405 N 0.15803 0.44852 0.66842 0.0
C406 C 0.14959 0.47394 0.58084 0.0
C407 C 0.14929 0.54218 0.57413 0.0
C408 C 0.64999 0.53691 0.93175 0.0
C409 C 0.64834 0.57534 1.03187 0.0
C410 C 0.64962 0.47025 0.93899 0.0
C411 C 0.64804 0.43948 0.04727 0.0
H412 H 0.65204 0.5586 0.8474 0.0
H413 H 0.65149 0.44269 0.86031 0.0
S414 S 0.64275 0.51763 0.33489 0.0
N415 N 0.64419 0.57714 0.2418 0.0
N416 N 0.64425 0.45227 0.25607 0.0
C417 C 0.64595 0.47722 0.14744 0.0
C418 C 0.64587 0.54504 0.13965 0.0
C419 C 0.3861 0.97379 0.13719 0.0
C420 C 0.38764 0.94299 1.02872 0.0
C421 C 0.38566 0.04049 0.14472 0.0
C422 C 0.3872 0.07897 0.04472 0.0
H423 H 0.38435 0.94622 0.21587 0.0
H424 H 0.38368 0.06216 0.22929 0.0
S425 S 0.39251 0.02132 0.74113 0.0
N426 N 0.39116 0.95592 0.81974 0.0
N427 N 0.39111 0.08079 0.83458 0.0
C428 C 0.38957 0.04866 0.93669 0.0
C429 C 0.38956 0.98082 0.9286 0.0
C430 C 0.39624 0.47003 0.13051 0.0
C431 C 0.39447 0.44336 1.01854 0.0
C432 C 0.39661 0.53625 0.14681 0.0
C433 C 0.39475 0.57838 0.05245 0.0
H434 H 0.39809 0.43955 0.20526 0.0
H435 H 0.39866 0.55467 0.23376 0.0
S436 S 0.38869 0.53219 0.74292 0.0
N437 N 0.39037 0.46401 0.81256 0.0
N438 N 0.39031 0.58795 0.84355 0.0
C439 C 0.39223 0.55212 0.94094 0.0
C440 C 0.3923 0.48477 0.92395 0.0
C441 C 0.6409 0.04869 0.13447 0.0
C442 C 0.64191 0.07492 1.02165 0.0
C443 C 0.64065 0.98253 0.15145 0.0
C444 C 0.64188 0.9401 0.05676 0.0
H445 H 0.63952 0.07943 0.20963 0.0
H446 H 0.63915 0.9644 0.23926 0.0
S447 S 0.64581 0.98506 0.74468 0.0
N448 N 0.64461 0.0535 0.81436 0.0
N449 N 0.64489 0.92969 0.84637 0.0
C450 C 0.64365 0.96591 0.94413 0.0
C451 C 0.64345 0.03316 0.92662 0.0
C452 C 0.15742 0.27699 0.12282 0.0
C453 C 0.14487 0.25299 0.18665 0.0
C454 C 0.15771 0.2762 0.99968 0.0
C455 C 0.14541 0.25174 0.93447 0.0
H456 H 0.16717 0.29681 0.16814 0.0
H457 H 0.16759 0.29571 0.9554 0.0
S458 S 0.11 0.18057 0.05836 0.0
N459 N 0.11997 0.20221 0.17382 0.0
N460 N 0.12046 0.20083 0.94427 0.0
C461 C 0.13285 0.22693 0.99723 0.0
C462 C 0.13259 0.22752 0.12245 0.0
C463 C 0.87819 0.22837 0.1033 0.0
C464 C 0.89006 0.25617 0.16906 0.0
C465 C 0.87807 0.23067 0.98022 0.0
C466 C 0.88987 0.26056 0.91698 0.0
H467 H 0.8689 0.20408 0.14702 0.0
H468 H 0.86878 0.20774 0.93434 0.0
S469 S 0.92314 0.34449 0.04621 0.0
N470 N 0.91361 0.31726 0.16015 0.0
N471 N 0.91341 0.32137 0.93045 0.0
C472 C 0.90167 0.2895 0.98157 0.0
C473 C 0.90177 0.28735 0.10682 0.0
C474 C 0.15685 0.7304 0.06702 0.0
C475 C 0.14598 0.76577 0.13083 0.0
C476 C 0.15642 0.72683 0.94395 0.0
C477 C 0.14511 0.75843 0.87835 0.0
H478 H 0.1657 0.70441 0.11245 0.0
H479 H 0.16504 0.69861 0.90007 0.0
S480 S 0.11433 0.86019 1.00183 0.0
N481 N 0.12378 0.83491 0.11734 0.0
N482 N 0.123 0.82825 0.88791 0.0
C483 C 0.13428 0.79466 0.94097 0.0
C484 C 0.13471 0.79833 0.06627 0.0
C485 C 0.90307 0.72712 0.94794 0.0
C486 C 0.89114 0.75569 0.88431 0.0
C487 C 0.90266 0.72331 0.07105 0.0
C488 C 0.89027 0.7477 0.1365 0.0
H489 H 0.91281 0.70714 0.90245 0.0
H490 H 0.91219 0.70102 0.1151 0.0
S491 S 0.85613 0.82828 1.0133 0.0
N492 N 0.86656 0.80962 0.898 0.0
N493 N 0.86581 0.80224 0.127 0.0
C494 C 0.87828 0.77648 0.07396 0.0
C495 C 0.8787 0.78052 0.9489 0.0
C496 C 0.63258 0.73704 0.49423 0.0
C497 C 0.64538 0.7559 0.42755 0.0
C498 C 0.63282 0.73775 0.61742 0.0
C499 C 0.64582 0.75782 0.67989 0.0
H500 H 0.62225 0.72136 0.45112 0.0
H501 H 0.62265 0.72281 0.66391 0.0
S502 S 0.68246 0.81175 0.54804 0.0
N503 N 0.67153 0.79504 0.43492 0.0
N504 N 0.67195 0.79653 0.66447 0.0
C505 C 0.65871 0.77672 0.61433 0.0
C506 C 0.6585 0.77568 0.48907 0.0
C507 C 0.40296 0.78621 0.61263 0.0
C508 C 0.39064 0.75954 0.6752 0.0
C509 C 0.40326 0.78681 0.48941 0.0
C510 C 0.39119 0.76131 0.42282 0.0
H511 H 0.41252 0.80677 0.65905 0.0
H512 H 0.41302 0.80799 0.44614 0.0
S513 S 0.35632 0.68437 0.54301 0.0
N514 N 0.3661 0.70585 0.65956 0.0
N515 N 0.36664 0.70733 0.42995 0.0
C516 C 0.37881 0.73436 0.48428 0.0
C517 C 0.37854 0.73338 0.60956 0.0
C518 C 0.65702 0.23483 0.46636 0.0
C519 C 0.64501 0.26128 0.40026 0.0
C520 C 0.65687 0.23592 0.58956 0.0
C521 C 0.64466 0.26308 0.65267 0.0
H522 H 0.66665 0.21275 0.42278 0.0
H523 H 0.66635 0.21436 0.63558 0.0
S524 S 0.61066 0.34149 0.52253 0.0
N525 N 0.62074 0.31749 0.4088 0.0
N526 N 0.62043 0.31921 0.63854 0.0
C527 C 0.63266 0.29037 0.58772 0.0
C528 C 0.63284 0.28958 0.46237 0.0
C529 C 0.40313 0.24167 0.46044 0.0
C530 C 0.39014 0.26202 0.39806 0.0
C531 C 0.40334 0.24068 0.58362 0.0
C532 C 0.39054 0.25952 0.65041 0.0
H533 H 0.4133 0.22675 0.41389 0.0
H534 H 0.41367 0.22484 0.62663 0.0
S535 S 0.35347 0.31573 0.53017 0.0
N536 N 0.364 0.30071 0.41365 0.0
N537 N 0.36438 0.29879 0.64322 0.0
C538 C 0.37743 0.27952 0.58898 0.0
C539 C 0.37724 0.28081 0.4637 0.0
C540 C 0.02639 0.28889 0.59829 0.0
C541 C 0.03492 0.26225 0.50572 0.0
C542 C 1.0103 0.29213 0.5948 0.0
C543 C 1.00196 0.26893 0.49851 0.0
H544 H 0.03216 0.30591 0.67579 0.0
H545 H 1.00432 0.31144 0.66978 0.0
S546 S 0.01886 0.20165 0.22726 0.0
N547 N 0.03378 0.21689 0.31078 0.0
N548 N 1.0037 0.22321 0.30382 0.0
C549 C 1.01039 0.24407 0.40372 0.0
C550 C 0.02677 0.24067 0.40742 0.0
C551 C 1.00991 0.81021 0.57276 0.0
C552 C 1.00209 0.75177 0.57555 0.0
C553 C 0.02602 0.81341 0.57266 0.0
C554 C 0.03517 0.75833 0.57429 0.0
H555 H 1.00351 0.85412 0.57036 0.0
H556 H 0.03135 0.85964 0.5684 0.0
S557 S 0.02057 0.59321 0.58433 0.0
N558 N 1.00497 0.6372 0.58057 0.0
N559 N 0.03505 0.64333 0.58307 0.0
C560 C 0.02752 0.69959 0.57885 0.0
C561 C 1.0111 0.6963 0.57912 0.0
C562 C 0.5248 0.71093 0.11784 0.0
C563 C 0.53474 0.76182 0.09215 0.0
C564 C 0.50875 0.71788 0.11502 0.0
C565 C 0.50182 0.77599 0.08563 0.0
H566 H 0.52946 0.66486 0.13923 0.0
H567 H 0.50173 0.67669 0.13232 0.0
S568 S 0.52244 0.92537 1.01713 0.0
N569 N 0.53619 0.8732 0.03912 0.0
N570 N 0.50627 0.88664 0.03767 0.0
C571 C 0.51159 0.82782 0.06354 0.0
C572 C 0.52792 0.82071 0.06606 0.0
C573 C 0.50896 0.29855 0.03611 0.0
C574 C 0.50134 0.24746 0.98214 0.0
C575 C 0.52504 0.30287 0.0369 0.0
C576 C 0.53433 0.25629 0.98394 0.0
H577 H 0.50246 0.33488 0.08099 0.0
H578 H 0.53024 0.34243 0.0821 0.0
S579 S 0.52021 0.11603 0.82055 0.0
N580 N 0.50449 0.15145 0.86692 0.0
N581 N 0.53456 0.15941 0.86912 0.0
C582 C 0.52687 0.2057 0.92731 0.0
C583 C 0.51048 0.20136 0.92621 0.0
loop_
_geom_bond_atom_site_label_1
_geom_bond_atom_site_label_2
_geom_bond_distance
_geom_bond_site_symmetry_2
_ccdc_geom_bond_type
Tb0 C2 2.809 . S
Tb0 O20 2.484 . S
Tb0 O21 2.440 . S
Tb0 O22 2.658 . S
Tb0 O23 2.409 . S
Tb0 O24 2.378 . S
Tb0 O28 2.325 . S
Tb0 O31 2.341 . S
Tb1 C11 2.809 . S
Tb1 O22 2.325 . S
Tb1 O25 2.341 . S
Tb1 O26 2.484 . S
Tb1 O27 2.440 . S
Tb1 O28 2.658 . S
Tb1 O29 2.409 . S
Tb1 O30 2.378 . S
C2 Tb0 2.809 . S
C2 C3 1.514 . S
C2 O20 1.248 . S
C2 O21 1.266 . S
C3 C2 1.514 . S
C3 C4 1.359 . S
C3 C8 1.348 . S
C4 C3 1.359 . S
C4 C5 1.380 . S
C4 H32 0.929 . S
C5 C4 1.380 . S
C5 C6 1.347 . S
C5 H33 0.931 . S
C6 C5 1.347 . S
C6 C7 1.369 . S
C7 C6 1.369 . S
C7 C8 1.408 . S
C7 H34 0.930 . S
C8 C3 1.348 . S
C8 C7 1.408 . S
C8 H35 0.930 . S
C9 O22 1.281 . S
C9 O23 1.254 . S
C10 O24 1.236 . S
C10 O25 1.266 . S
C11 Tb1 2.809 . S
C11 C12 1.514 . S
C11 O26 1.248 . S
C11 O27 1.266 . S
C12 C11 1.514 . S
C12 C13 1.359 . S
C12 C17 1.348 . S
C13 C12 1.359 . S
C13 C14 1.380 . S
C13 H36 0.929 . S
C14 C13 1.380 . S
C14 C15 1.347 . S
C14 H37 0.931 . S
C15 C14 1.347 . S
C15 C16 1.369 . S
C16 C15 1.369 . S
C16 C17 1.408 . S
C16 H38 0.930 . S
C17 C12 1.348 . S
C17 C16 1.408 . S
C17 H39 0.930 . S
C18 O28 1.281 . S
C18 O29 1.254 . S
C19 O30 1.236 . S
C19 O31 1.266 . S
O20 Tb0 2.484 . S
O20 C2 1.248 . S
O21 Tb0 2.440 . S
O21 C2 1.266 . S
O22 Tb0 2.658 . S
O22 Tb1 2.325 . S
O22 C9 1.281 . S
O23 Tb0 2.409 . S
O23 C9 1.254 . S
O24 Tb0 2.378 . S
O24 C10 1.236 . S
O25 Tb1 2.341 . S
O25 C10 1.266 . S
O26 Tb1 2.484 . S
O26 C11 1.248 . S
O27 Tb1 2.440 . S
O27 C11 1.266 . S
O28 Tb0 2.325 . S
O28 Tb1 2.658 . S
O28 C18 1.281 . S
O29 Tb1 2.409 . S
O29 C18 1.254 . S
O30 Tb1 2.378 . S
O30 C19 1.236 . S
O31 Tb0 2.341 . S
O31 C19 1.266 . S
H32 C4 0.929 . S
H33 C5 0.931 . S
H34 C7 0.930 . S
H35 C8 0.930 . S
H36 C13 0.929 . S
H37 C14 0.931 . S
H38 C16 0.930 . S
H39 C17 0.930 . S
Tb40 C42 2.809 . S
Tb40 O60 2.484 . S
Tb40 O61 2.440 . S
Tb40 O62 2.658 . S
Tb40 O63 2.409 . S
Tb40 O64 2.378 . S
Tb40 O68 2.325 . S
Tb40 O71 2.341 . S
Tb41 C51 2.809 . S
Tb41 O62 2.325 . S
Tb41 O65 2.341 . S
Tb41 O66 2.484 . S
Tb41 O67 2.440 . S
Tb41 O68 2.658 . S
Tb41 O69 2.409 . S
Tb41 O70 2.378 . S
C42 Tb40 2.809 . S
C42 C43 1.514 . S
C42 O60 1.248 . S
C42 O61 1.266 . S
C43 C42 1.514 . S
C43 C44 1.359 . S
C43 C48 1.348 . S
C44 C43 1.359 . S
C44 C45 1.380 . S
C44 H72 0.929 . S
C45 C44 1.380 . S
C45 C46 1.347 . S
C45 H73 0.931 . S
C46 C45 1.347 . S
C46 C47 1.369 . S
C47 C46 1.369 . S
C47 C48 1.408 . S
C47 H74 0.930 . S
C48 C43 1.348 . S
C48 C47 1.408 . S
C48 H75 0.930 . S
C49 O62 1.281 . S
C49 O63 1.254 . S
C50 O64 1.236 . S
C50 O65 1.266 . S
C51 Tb41 2.809 . S
C51 C52 1.514 . S
C51 O66 1.248 . S
C51 O67 1.266 . S
C52 C51 1.514 . S
C52 C53 1.359 . S
C52 C57 1.348 . S
C53 C52 1.359 . S
C53 C54 1.380 . S
C53 H76 0.929 . S
C54 C53 1.380 . S
C54 C55 1.347 . S
C54 H77 0.931 . S
C55 C54 1.347 . S
C55 C56 1.369 . S
C56 C55 1.369 . S
C56 C57 1.408 . S
C56 H78 0.930 . S
C57 C52 1.348 . S
C57 C56 1.408 . S
C57 H79 0.930 . S
C58 O68 1.281 . S
C58 O69 1.254 . S
C59 O70 1.236 . S
C59 O71 1.266 . S
O60 Tb40 2.484 . S
O60 C42 1.248 . S
O61 Tb40 2.440 . S
O61 C42 1.266 . S
O62 Tb40 2.658 . S
O62 Tb41 2.325 . S
O62 C49 1.281 . S
O63 Tb40 2.409 . S
O63 C49 1.254 . S
O64 Tb40 2.378 . S
O64 C50 1.236 . S
O65 Tb41 2.341 . S
O65 C50 1.266 . S
O66 Tb41 2.484 . S
O66 C51 1.248 . S
O67 Tb41 2.440 . S
O67 C51 1.266 . S
O68 Tb40 2.325 . S
O68 Tb41 2.658 . S
O68 C58 1.281 . S
O69 Tb41 2.409 . S
O69 C58 1.254 . S
O70 Tb41 2.378 . S
O70 C59 1.236 . S
O71 Tb40 2.341 . S
O71 C59 1.266 . S
H72 C44 0.929 . S
H73 C45 0.931 . S
H74 C47 0.930 . S
H75 C48 0.930 . S
H76 C53 0.929 . S
H77 C54 0.931 . S
H78 C56 0.930 . S
H79 C57 0.930 . S
Tb80 C82 2.809 . S
Tb80 O100 2.484 . S
Tb80 O101 2.440 . S
Tb80 O102 2.658 . S
Tb80 O103 2.409 . S
Tb80 O104 2.378 . S
Tb80 O108 2.325 . S
Tb80 O111 2.341 . S
Tb81 C91 2.809 . S
Tb81 O102 2.325 . S
Tb81 O105 2.341 . S
Tb81 O106 2.484 . S
Tb81 O107 2.440 . S
Tb81 O108 2.658 . S
Tb81 O109 2.409 . S
Tb81 O110 2.378 . S
C82 Tb80 2.809 . S
C82 C83 1.514 . S
C82 O100 1.248 . S
C82 O101 1.266 . S
C83 C82 1.514 . S
C83 C84 1.359 . S
C83 C88 1.348 . S
C84 C83 1.359 . S
C84 C85 1.380 . S
C84 H112 0.929 . S
C85 C84 1.380 . S
C85 C86 1.347 . S
C85 H113 0.931 . S
C86 C85 1.347 . S
C86 C87 1.369 . S
C87 C86 1.369 . S
C87 C88 1.408 . S
C87 H114 0.930 . S
C88 C83 1.348 . S
C88 C87 1.408 . S
C88 H115 0.930 . S
C89 O102 1.281 . S
C89 O103 1.254 . S
C90 O104 1.236 . S
C90 O105 1.266 . S
C91 Tb81 2.809 . S
C91 C92 1.514 . S
C91 O106 1.248 . S
C91 O107 1.266 . S
C92 C91 1.514 . S
C92 C93 1.359 . S
C92 C97 1.348 . S
C93 C92 1.359 . S
C93 C94 1.380 . S
C93 H116 0.929 . S
C94 C93 1.380 . S
C94 C95 1.347 . S
C94 H117 0.931 . S
C95 C94 1.347 . S
C95 C96 1.369 . S
C96 C95 1.369 . S
C96 C97 1.408 . S
C96 H118 0.930 . S
C97 C92 1.348 . S
C97 C96 1.408 . S
C97 H119 0.930 . S
C98 O108 1.281 . S
C98 O109 1.254 . S
C99 O110 1.236 . S
C99 O111 1.266 . S
O100 Tb80 2.484 . S
O100 C82 1.248 . S
O101 Tb80 2.440 . S
O101 C82 1.266 . S
O102 Tb80 2.658 . S
O102 Tb81 2.325 . S
O102 C89 1.281 . S
O103 Tb80 2.409 . S
O103 C89 1.254 . S
O104 Tb80 2.378 . S
O104 C90 1.236 . S
O105 Tb81 2.341 . S
O105 C90 1.266 . S
O106 Tb81 2.484 . S
O106 C91 1.248 . S
O107 Tb81 2.440 . S
O107 C91 1.266 . S
O108 Tb80 2.325 . S
O108 Tb81 2.658 . S
O108 C98 1.281 . S
O109 Tb81 2.409 . S
O109 C98 1.254 . S
O110 Tb81 2.378 . S
O110 C99 1.236 . S
O111 Tb80 2.341 . S
O111 C99 1.266 . S
H112 C84 0.929 . S
H113 C85 0.931 . S
H114 C87 0.930 . S
H115 C88 0.930 . S
H116 C93 0.929 . S
H117 C94 0.931 . S
H118 C96 0.930 . S
H119 C97 0.930 . S
Tb120 C122 2.809 . S
Tb120 O140 2.484 . S
Tb120 O141 2.440 . S
Tb120 O142 2.658 . S
Tb120 O143 2.409 . S
Tb120 O144 2.378 . S
Tb120 O148 2.325 . S
Tb120 O151 2.341 . S
Tb121 C131 2.809 . S
Tb121 O142 2.325 . S
Tb121 O145 2.341 . S
Tb121 O146 2.484 . S
Tb121 O147 2.440 . S
Tb121 O148 2.658 . S
Tb121 O149 2.409 . S
Tb121 O150 2.378 . S
C122 Tb120 2.809 . S
C122 C123 1.514 . S
C122 O140 1.248 . S
C122 O141 1.266 . S
C123 C122 1.514 . S
C123 C124 1.359 . S
C123 C128 1.348 . S
C124 C123 1.359 . S
C124 C125 1.380 . S
C124 H152 0.929 . S
C125 C124 1.380 . S
C125 C126 1.347 . S
C125 H153 0.931 . S
C126 C125 1.347 . S
C126 C127 1.369 . S
C127 C126 1.369 . S
C127 C128 1.408 . S
C127 H154 0.930 . S
C128 C123 1.348 . S
C128 C127 1.408 . S
C128 H155 0.930 . S
C129 O142 1.281 . S
C129 O143 1.254 . S
C130 O144 1.236 . S
C130 O145 1.266 . S
C131 Tb121 2.809 . S
C131 C132 1.514 . S
C131 O146 1.248 . S
C131 O147 1.266 . S
C132 C131 1.514 . S
C132 C133 1.359 . S
C132 C137 1.348 . S
C133 C132 1.359 . S
C133 C134 1.380 . S
C133 H156 0.929 . S
C134 C133 1.380 . S
C134 C135 1.347 . S
C134 H157 0.931 . S
C135 C134 1.347 . S
C135 C136 1.369 . S
C136 C135 1.369 . S
C136 C137 1.408 . S
C136 H158 0.930 . S
C137 C132 1.348 . S
C137 C136 1.408 . S
C137 H159 0.930 . S
C138 O148 1.281 . S
C138 O149 1.254 . S
C139 O150 1.236 . S
C139 O151 1.266 . S
O140 Tb120 2.484 . S
O140 C122 1.248 . S
O141 Tb120 2.440 . S
O141 C122 1.266 . S
O142 Tb120 2.658 . S
O142 Tb121 2.325 . S
O142 C129 1.281 . S
O143 Tb120 2.409 . S
O143 C129 1.254 . S
O144 Tb120 2.378 . S
O144 C130 1.236 . S
O145 Tb121 2.341 . S
O145 C130 1.266 . S
O146 Tb121 2.484 . S
O146 C131 1.248 . S
O147 Tb121 2.440 . S
O147 C131 1.266 . S
O148 Tb120 2.325 . S
O148 Tb121 2.658 . S
O148 C138 1.281 . S
O149 Tb121 2.409 . S
O149 C138 1.254 . S
O150 Tb121 2.378 . S
O150 C139 1.236 . S
O151 Tb120 2.341 . S
O151 C139 1.266 . S
H152 C124 0.929 . S
H153 C125 0.931 . S
H154 C127 0.930 . S
H155 C128 0.930 . S
H156 C133 0.929 . S
H157 C134 0.931 . S
H158 C136 0.930 . S
H159 C137 0.930 . S
Tb160 C162 2.809 1_556 S
Tb160 O180 2.484 1_556 S
Tb160 O181 2.440 1_556 S
Tb160 O182 2.658 . S
Tb160 O183 2.409 . S
Tb160 O184 2.378 1_556 S
Tb160 O188 2.325 1_556 S
Tb160 O191 2.341 . S
Tb161 C171 2.809 1_554 S
Tb161 O182 2.325 1_554 S
Tb161 O185 2.341 . S
Tb161 O186 2.484 1_554 S
Tb161 O187 2.440 1_554 S
Tb161 O188 2.658 . S
Tb161 O189 2.409 . S
Tb161 O190 2.378 1_554 S
C162 Tb160 2.809 1_554 S
C162 C163 1.514 . S
C162 O180 1.248 . S
C162 O181 1.266 . S
C163 C162 1.514 . S
C163 C164 1.359 . S
C163 C168 1.348 . S
C164 C163 1.359 . S
C164 C165 1.380 . S
C164 H192 0.929 . S
C165 C164 1.380 . S
C165 C166 1.347 . S
C165 H193 0.931 . S
C166 C165 1.347 . S
C166 C167 1.369 . S
C167 C166 1.369 . S
C167 C168 1.408 . S
C167 H194 0.930 . S
C168 C163 1.348 . S
C168 C167 1.408 . S
C168 H195 0.930 . S
C169 O182 1.281 . S
C169 O183 1.254 . S
C170 O184 1.236 . S
C170 O185 1.266 . S
C171 Tb161 2.809 1_556 S
C171 C172 1.514 . S
C171 O186 1.248 . S
C171 O187 1.266 . S
C172 C171 1.514 . S
C172 C173 1.359 . S
C172 C177 1.348 . S
C173 C172 1.359 . S
C173 C174 1.380 . S
C173 H196 0.929 . S
C174 C173 1.380 . S
C174 C175 1.347 . S
C174 H197 0.931 . S
C175 C174 1.347 . S
C175 C176 1.369 . S
C176 C175 1.369 . S
C176 C177 1.408 . S
C176 H198 0.930 . S
C177 C172 1.348 . S
C177 C176 1.408 . S
C177 H199 0.930 . S
C178 O188 1.281 . S
C178 O189 1.254 . S
C179 O190 1.236 . S
C179 O191 1.266 . S
O180 Tb160 2.484 1_554 S
O180 C162 1.248 . S
O181 Tb160 2.440 1_554 S
O181 C162 1.266 . S
O182 Tb160 2.658 . S
O182 Tb161 2.325 1_556 S
O182 C169 1.281 . S
O183 Tb160 2.409 . S
O183 C169 1.254 . S
O184 Tb160 2.378 1_554 S
O184 C170 1.236 . S
O185 Tb161 2.341 . S
O185 C170 1.266 . S
O186 Tb161 2.484 1_556 S
O186 C171 1.248 . S
O187 Tb161 2.440 1_556 S
O187 C171 1.266 . S
O188 Tb160 2.325 1_554 S
O188 Tb161 2.658 . S
O188 C178 1.281 . S
O189 Tb161 2.409 . S
O189 C178 1.254 . S
O190 Tb161 2.378 1_556 S
O190 C179 1.236 . S
O191 Tb160 2.341 . S
O191 C179 1.266 . S
H192 C164 0.929 . S
H193 C165 0.931 . S
H194 C167 0.930 . S
H195 C168 0.930 . S
H196 C173 0.929 . S
H197 C174 0.931 . S
H198 C176 0.930 . S
H199 C177 0.930 . S
Tb200 C202 2.809 1_556 S
Tb200 O220 2.484 1_556 S
Tb200 O221 2.440 1_556 S
Tb200 O222 2.658 . S
Tb200 O223 2.409 . S
Tb200 O224 2.378 1_556 S
Tb200 O228 2.325 1_556 S
Tb200 O231 2.341 . S
Tb201 C211 2.809 1_554 S
Tb201 O222 2.325 1_554 S
Tb201 O225 2.341 . S
Tb201 O226 2.484 1_554 S
Tb201 O227 2.440 1_554 S
Tb201 O228 2.658 . S
Tb201 O229 2.409 . S
Tb201 O230 2.378 1_554 S
C202 Tb200 2.809 1_554 S
C202 C203 1.514 . S
C202 O220 1.248 . S
C202 O221 1.266 . S
C203 C202 1.514 . S
C203 C204 1.359 . S
C203 C208 1.348 . S
C204 C203 1.359 . S
C204 C205 1.380 . S
C204 H232 0.929 . S
C205 C204 1.380 . S
C205 C206 1.347 . S
C205 H233 0.931 . S
C206 C205 1.347 . S
C206 C207 1.369 . S
C207 C206 1.369 . S
C207 C208 1.408 . S
C207 H234 0.930 . S
C208 C203 1.348 . S
C208 C207 1.408 . S
C208 H235 0.930 . S
C209 O222 1.281 . S
C209 O223 1.254 . S
C210 O224 1.236 . S
C210 O225 1.266 . S
C211 Tb201 2.809 1_556 S
C211 C212 1.514 . S
C211 O226 1.248 . S
C211 O227 1.266 . S
C212 C211 1.514 . S
C212 C213 1.359 . S
C212 C217 1.348 . S
C213 C212 1.359 . S
C213 C214 1.380 . S
C213 H236 0.929 . S
C214 C213 1.380 . S
C214 C215 1.347 . S
C214 H237 0.931 . S
C215 C214 1.347 . S
C215 C216 1.369 . S
C216 C215 1.369 . S
C216 C217 1.408 . S
C216 H238 0.930 . S
C217 C212 1.348 . S
C217 C216 1.408 . S
C217 H239 0.930 . S
C218 O228 1.281 . S
C218 O229 1.254 . S
C219 O230 1.236 . S
C219 O231 1.266 . S
O220 Tb200 2.484 1_554 S
O220 C202 1.248 . S
O221 Tb200 2.440 1_554 S
O221 C202 1.266 . S
O222 Tb200 2.658 . S
O222 Tb201 2.325 1_556 S
O222 C209 1.281 . S
O223 Tb200 2.409 . S
O223 C209 1.254 . S
O224 Tb200 2.378 1_554 S
O224 C210 1.236 . S
O225 Tb201 2.341 . S
O225 C210 1.266 . S
O226 Tb201 2.484 1_556 S
O226 C211 1.248 . S
O227 Tb201 2.440 1_556 S
O227 C211 1.266 . S
O228 Tb200 2.325 1_554 S
O228 Tb201 2.658 . S
O228 C218 1.281 . S
O229 Tb201 2.409 . S
O229 C218 1.254 . S
O230 Tb201 2.378 1_556 S
O230 C219 1.236 . S
O231 Tb200 2.341 . S
O231 C219 1.266 . S
H232 C204 0.929 . S
H233 C205 0.931 . S
H234 C207 0.930 . S
H235 C208 0.930 . S
H236 C213 0.929 . S
H237 C214 0.931 . S
H238 C216 0.930 . S
H239 C217 0.930 . S
Tb240 C242 2.809 1_554 S
Tb240 O260 2.484 1_554 S
Tb240 O261 2.440 1_554 S
Tb240 O262 2.658 . S
Tb240 O263 2.409 . S
Tb240 O264 2.378 1_554 S
Tb240 O268 2.325 1_554 S
Tb240 O271 2.341 . S
Tb241 C251 2.809 1_556 S
Tb241 O262 2.325 1_556 S
Tb241 O265 2.341 . S
Tb241 O266 2.484 1_556 S
Tb241 O267 2.440 1_556 S
Tb241 O268 2.658 . S
Tb241 O269 2.409 . S
Tb241 O270 2.378 1_556 S
C242 Tb240 2.809 1_556 S
C242 C243 1.514 . S
C242 O260 1.248 . S
C242 O261 1.266 . S
C243 C242 1.514 . S
C243 C244 1.359 . S
C243 C248 1.348 . S
C244 C243 1.359 . S
C244 C245 1.380 . S
C244 H272 0.929 . S
C245 C244 1.380 . S
C245 C246 1.347 . S
C245 H273 0.931 . S
C246 C245 1.347 . S
C246 C247 1.369 . S
C247 C246 1.369 . S
C247 C248 1.408 . S
C247 H274 0.930 . S
C248 C243 1.348 . S
C248 C247 1.408 . S
C248 H275 0.930 . S
C249 O262 1.281 . S
C249 O263 1.254 . S
C250 O264 1.236 . S
C250 O265 1.266 . S
C251 Tb241 2.809 1_554 S
C251 C252 1.514 . S
C251 O266 1.248 . S
C251 O267 1.266 . S
C252 C251 1.514 . S
C252 C253 1.359 . S
C252 C257 1.348 . S
C253 C252 1.359 . S
C253 C254 1.380 . S
C253 H276 0.929 . S
C254 C253 1.380 . S
C254 C255 1.347 . S
C254 H277 0.931 . S
C255 C254 1.347 . S
C255 C256 1.369 . S
C256 C255 1.369 . S
C256 C257 1.408 . S
C256 H278 0.930 . S
C257 C252 1.348 . S
C257 C256 1.408 . S
C257 H279 0.930 . S
C258 O268 1.281 . S
C258 O269 1.254 . S
C259 O270 1.236 . S
C259 O271 1.266 . S
O260 Tb240 2.484 1_556 S
O260 C242 1.248 . S
O261 Tb240 2.440 1_556 S
O261 C242 1.266 . S
O262 Tb240 2.658 . S
O262 Tb241 2.325 1_554 S
O262 C249 1.281 . S
O263 Tb240 2.409 . S
O263 C249 1.254 . S
O264 Tb240 2.378 1_556 S
O264 C250 1.236 . S
O265 Tb241 2.341 . S
O265 C250 1.266 . S
O266 Tb241 2.484 1_554 S
O266 C251 1.248 . S
O267 Tb241 2.440 1_554 S
O267 C251 1.266 . S
O268 Tb240 2.325 1_556 S
O268 Tb241 2.658 . S
O268 C258 1.281 . S
O269 Tb241 2.409 . S
O269 C258 1.254 . S
O270 Tb241 2.378 1_554 S
O270 C259 1.236 . S
O271 Tb240 2.341 . S
O271 C259 1.266 . S
H272 C244 0.929 . S
H273 C245 0.931 . S
H274 C247 0.930 . S
H275 C248 0.930 . S
H276 C253 0.929 . S
H277 C254 0.931 . S
H278 C256 0.930 . S
H279 C257 0.930 . S
Tb280 C282 2.809 1_554 S
Tb280 O300 2.484 1_554 S
Tb280 O301 2.440 1_554 S
Tb280 O302 2.658 . S
Tb280 O303 2.409 . S
Tb280 O304 2.378 1_554 S
Tb280 O308 2.325 1_554 S
Tb280 O311 2.341 . S
Tb281 C291 2.809 1_556 S
Tb281 O302 2.325 1_556 S
Tb281 O305 2.341 . S
Tb281 O306 2.484 1_556 S
Tb281 O307 2.440 1_556 S
Tb281 O308 2.658 . S
Tb281 O309 2.409 . S
Tb281 O310 2.378 1_556 S
C282 Tb280 2.809 1_556 S
C282 C283 1.514 . S
C282 O300 1.248 . S
C282 O301 1.266 . S
C283 C282 1.514 . S
C283 C284 1.359 . S
C283 C288 1.348 . S
C284 C283 1.359 . S
C284 C285 1.380 . S
C284 H312 0.929 . S
C285 C284 1.380 . S
C285 C286 1.347 . S
C285 H313 0.931 . S
C286 C285 1.347 . S
C286 C287 1.369 . S
C287 C286 1.369 . S
C287 C288 1.408 . S
C287 H314 0.930 . S
C288 C283 1.348 . S
C288 C287 1.408 . S
C288 H315 0.930 . S
C289 O302 1.281 . S
C289 O303 1.254 . S
C290 O304 1.236 . S
C290 O305 1.266 . S
C291 Tb281 2.809 1_554 S
C291 C292 1.514 . S
C291 O306 1.248 . S
C291 O307 1.266 . S
C292 C291 1.514 . S
C292 C293 1.359 . S
C292 C297 1.348 . S
C293 C292 1.359 . S
C293 C294 1.380 . S
C293 H316 0.929 . S
C294 C293 1.380 . S
C294 C295 1.347 . S
C294 H317 0.931 . S
C295 C294 1.347 . S
C295 C296 1.369 . S
C296 C295 1.369 . S
C296 C297 1.408 . S
C296 H318 0.930 . S
C297 C292 1.348 . S
C297 C296 1.408 . S
C297 H319 0.930 . S
C298 O308 1.281 . S
C298 O309 1.254 . S
C299 O310 1.236 . S
C299 O311 1.266 . S
O300 Tb280 2.484 1_556 S
O300 C282 1.248 . S
O301 Tb280 2.440 1_556 S
O301 C282 1.266 . S
O302 Tb280 2.658 . S
O302 Tb281 2.325 1_554 S
O302 C289 1.281 . S
O303 Tb280 2.409 . S
O303 C289 1.254 . S
O304 Tb280 2.378 1_556 S
O304 C290 1.236 . S
O305 Tb281 2.341 . S
O305 C290 1.266 . S
O306 Tb281 2.484 1_554 S
O306 C291 1.248 . S
O307 Tb281 2.440 1_554 S
O307 C291 1.266 . S
O308 Tb280 2.325 1_556 S
O308 Tb281 2.658 . S
O308 C298 1.281 . S
O309 Tb281 2.409 . S
O309 C298 1.254 . S
O310 Tb281 2.378 1_554 S
O310 C299 1.236 . S
O311 Tb280 2.341 . S
O311 C299 1.266 . S
H312 C284 0.929 . S
H313 C285 0.931 . S
H314 C287 0.930 . S
H315 C288 0.930 . S
H316 C293 0.929 . S
H317 C294 0.931 . S
H318 C296 0.930 . S
H319 C297 0.930 . S
C320 C321 1.369 . S
C320 C322 1.419 . S
C320 H324 0.930 . S
C321 C320 1.369 . S
C321 C330 1.429 . S
C322 C320 1.419 . S
C322 C323 1.363 . S
C322 H325 0.929 . S
C323 C322 1.363 . S
C323 C329 1.428 . S
H324 C320 0.930 . S
H325 C322 0.929 . S
S326 N327 1.613 . S
S326 N328 1.610 . S
N327 S326 1.613 . S
N327 C330 1.350 . S
N328 S326 1.610 . S
N328 C329 1.351 . S
C329 C323 1.428 . S
C329 N328 1.351 . S
C329 C330 1.434 . S
C330 C321 1.429 . S
C330 N327 1.350 . S
C330 C329 1.434 . S
C331 C332 1.369 . S
C331 C333 1.419 . S
C331 H335 0.930 . S
C332 C331 1.369 . S
C332 C341 1.429 . S
C333 C331 1.419 . S
C333 C334 1.363 . S
C333 H336 0.929 . S
C334 C333 1.363 . S
C334 C340 1.428 . S
H335 C331 0.930 . S
H336 C333 0.929 . S
S337 N338 1.613 . S
S337 N339 1.610 . S
N338 S337 1.613 . S
N338 C341 1.350 . S
N339 S337 1.610 . S
N339 C340 1.351 . S
C340 C334 1.428 . S
C340 N339 1.351 . S
C340 C341 1.434 . S
C341 C332 1.429 . S
C341 N338 1.350 . S
C341 C340 1.434 . S
C342 C343 1.369 . S
C342 C344 1.419 . S
C342 H346 0.930 . S
C343 C342 1.369 . S
C343 C352 1.429 . S
C344 C342 1.419 . S
C344 C345 1.363 . S
C344 H347 0.929 . S
C345 C344 1.363 . S
C345 C351 1.428 . S
H346 C342 0.930 . S
H347 C344 0.929 . S
S348 N349 1.613 . S
S348 N350 1.610 . S
N349 S348 1.613 . S
N349 C352 1.350 . S
N350 S348 1.610 . S
N350 C351 1.351 . S
C351 C345 1.428 . S
C351 N350 1.351 . S
C351 C352 1.434 . S
C352 C343 1.429 . S
C352 N349 1.350 . S
C352 C351 1.434 . S
C353 C354 1.369 . S
C353 C355 1.419 . S
C353 H357 0.930 . S
C354 C353 1.369 . S
C354 C363 1.429 . S
C355 C353 1.419 . S
C355 C356 1.363 . S
C355 H358 0.929 . S
C356 C355 1.363 . S
C356 C362 1.428 . S
H357 C353 0.930 . S
H358 C355 0.929 . S
S359 N360 1.613 . S
S359 N361 1.610 . S
N360 S359 1.613 . S
N360 C363 1.350 . S
N361 S359 1.610 . S
N361 C362 1.351 . S
C362 C356 1.428 . S
C362 N361 1.351 . S
C362 C363 1.434 . S
C363 C354 1.429 . S
C363 N360 1.350 . S
C363 C362 1.434 . S
C364 C365 1.369 . S
C364 C366 1.419 1_565 S
C364 H368 0.930 . S
C365 C364 1.369 . S
C365 C374 1.429 . S
C366 C364 1.419 1_545 S
C366 C367 1.363 . S
C366 H369 0.929 . S
C367 C366 1.363 . S
C367 C373 1.428 . S
H368 C364 0.930 . S
H369 C366 0.929 . S
S370 N371 1.613 . S
S370 N372 1.610 1_565 S
N371 S370 1.613 . S
N371 C374 1.350 . S
N372 S370 1.610 1_545 S
N372 C373 1.351 . S
C373 C367 1.428 . S
C373 N372 1.351 . S
C373 C374 1.434 1_545 S
C374 C365 1.429 . S
C374 N371 1.350 . S
C374 C373 1.434 1_565 S
C375 C376 1.369 . S
C375 C377 1.419 . S
C375 H379 0.930 . S
C376 C375 1.369 . S
C376 C385 1.429 . S
C377 C375 1.419 . S
C377 C378 1.363 . S
C377 H380 0.929 . S
C378 C377 1.363 . S
C378 C384 1.428 . S
H379 C375 0.930 . S
H380 C377 0.929 . S
S381 N382 1.613 . S
S381 N383 1.610 . S
N382 S381 1.613 . S
N382 C385 1.350 . S
N383 S381 1.610 . S
N383 C384 1.351 . S
C384 C378 1.428 . S
C384 N383 1.351 . S
C384 C385 1.434 . S
C385 C376 1.429 . S
C385 N382 1.350 . S
C385 C384 1.434 . S
C386 C387 1.369 . S
C386 C388 1.419 1_565 S
C386 H390 0.930 . S
C387 C386 1.369 . S
C387 C396 1.429 . S
C388 C386 1.419 1_545 S
C388 C389 1.363 . S
C388 H391 0.929 . S
C389 C388 1.363 . S
C389 C395 1.428 . S
H390 C386 0.930 . S
H391 C388 0.929 . S
S392 N393 1.613 . S
S392 N394 1.610 1_565 S
N393 S392 1.613 . S
N393 C396 1.350 . S
N394 S392 1.610 1_545 S
N394 C395 1.351 . S
C395 C389 1.428 . S
C395 N394 1.351 . S
C395 C396 1.434 1_545 S
C396 C387 1.429 . S
C396 N393 1.350 . S
C396 C395 1.434 1_565 S
C397 C398 1.369 . S
C397 C399 1.419 . S
C397 H401 0.930 . S
C398 C397 1.369 . S
C398 C407 1.429 . S
C399 C397 1.419 . S
C399 C400 1.363 . S
C399 H402 0.929 . S
C400 C399 1.363 . S
C400 C406 1.428 . S
H401 C397 0.930 . S
H402 C399 0.929 . S
S403 N404 1.613 . S
S403 N405 1.610 . S
N404 S403 1.613 . S
N404 C407 1.350 . S
N405 S403 1.610 . S
N405 C406 1.351 . S
C406 C400 1.428 . S
C406 N405 1.351 . S
C406 C407 1.434 . S
C407 C398 1.429 . S
C407 N404 1.350 . S
C407 C406 1.434 . S
C408 C409 1.369 1_556 S
C408 C410 1.419 . S
C408 H412 0.930 . S
C409 C408 1.369 1_554 S
C409 C418 1.429 . S
C410 C408 1.419 . S
C410 C411 1.363 1_556 S
C410 H413 0.929 . S
C411 C410 1.363 1_554 S
C411 C417 1.429 . S
H412 C408 0.930 . S
H413 C410 0.929 . S
S414 N415 1.613 . S
S414 N416 1.610 . S
N415 S414 1.613 . S
N415 C418 1.350 . S
N416 S414 1.610 . S
N416 C417 1.351 . S
C417 C411 1.429 . S
C417 N416 1.351 . S
C417 C418 1.434 . S
C418 C409 1.429 . S
C418 N415 1.350 . S
C418 C417 1.434 . S
C419 C420 1.366 1_554 S
C419 C421 1.419 1_565 S
C419 H423 0.930 . S
C420 C419 1.366 1_556 S
C420 C429 1.431 . S
C421 C419 1.419 1_545 S
C421 C422 1.363 1_554 S
C421 H424 0.929 . S
C422 C421 1.363 1_556 S
C422 C428 1.428 . S
H423 C419 0.930 . S
H424 C421 0.929 . S
S425 N426 1.613 . S
S425 N427 1.610 1_565 S
N426 S425 1.613 . S
N426 C429 1.350 . S
N427 S425 1.610 1_545 S
N427 C428 1.351 . S
C428 C422 1.428 . S
C428 N427 1.351 . S
C428 C429 1.434 1_545 S
C429 C420 1.431 . S
C429 N426 1.350 . S
C429 C428 1.434 1_565 S
C430 C431 1.368 1_554 S
C430 C432 1.419 . S
C430 H434 0.930 . S
C431 C430 1.368 1_556 S
C431 C440 1.429 . S
C432 C430 1.419 . S
C432 C433 1.363 1_554 S
C432 H435 0.929 . S
C433 C432 1.363 1_556 S
C433 C439 1.428 . S
H434 C430 0.930 . S
H435 C432 0.929 . S
S436 N437 1.613 . S
S436 N438 1.610 . S
N437 S436 1.613 . S
N437 C440 1.350 . S
N438 S436 1.610 . S
N438 C439 1.351 . S
C439 C433 1.428 . S
C439 N438 1.351 . S
C439 C440 1.434 . S
C440 C431 1.429 . S
C440 N437 1.350 . S
C440 C439 1.434 . S
C441 C442 1.367 1_554 S
C441 C443 1.419 1_545 S
C441 H445 0.930 . S
C442 C441 1.367 1_556 S
C442 C451 1.431 . S
C443 C441 1.419 1_565 S
C443 C444 1.363 1_554 S
C443 H446 0.929 . S
C444 C443 1.363 1_556 S
C444 C450 1.428 . S
H445 C441 0.930 . S
H446 C443 0.929 . S
S447 N448 1.613 . S
S447 N449 1.610 1_545 S
N448 S447 1.613 . S
N448 C451 1.350 . S
N449 S447 1.610 1_565 S
N449 C450 1.351 . S
C450 C444 1.428 . S
C450 N449 1.351 . S
C450 C451 1.434 1_565 S
C451 C442 1.431 . S
C451 N448 1.350 . S
C451 C450 1.434 1_545 S
C452 C453 1.369 1_556 S
C452 C454 1.419 . S
C452 H456 0.930 1_556 S
C453 C452 1.369 1_554 S
C453 C462 1.429 1_554 S
C454 C452 1.419 . S
C454 C455 1.363 . S
C454 H457 0.929 . S
C455 C454 1.363 . S
C455 C461 1.428 . S
H456 C452 0.930 1_554 S
H457 C454 0.929 . S
S458 N459 1.613 . S
S458 N460 1.610 . S
N459 S458 1.613 . S
N459 C462 1.350 . S
N460 S458 1.610 . S
N460 C461 1.351 . S
C461 C455 1.428 . S
C461 N460 1.351 . S
C461 C462 1.434 . S
C462 C453 1.429 1_556 S
C462 N459 1.350 . S
C462 C461 1.434 . S
C463 C464 1.369 1_556 S
C463 C465 1.419 . S
C463 H467 0.930 1_556 S
C464 C463 1.369 1_554 S
C464 C473 1.429 1_554 S
C465 C463 1.419 . S
C465 C466 1.363 . S
C465 H468 0.929 . S
C466 C465 1.363 . S
C466 C472 1.428 . S
H467 C463 0.930 1_554 S
H468 C465 0.929 . S
S469 N470 1.613 . S
S469 N471 1.610 . S
N470 S469 1.613 . S
N470 C473 1.350 . S
N471 S469 1.610 . S
N471 C472 1.351 . S
C472 C466 1.428 . S
C472 N471 1.351 . S
C472 C473 1.434 . S
C473 C464 1.429 1_556 S
C473 N470 1.350 . S
C473 C472 1.434 . S
C474 C475 1.369 . S
C474 C476 1.419 . S
C474 H478 0.930 . S
C475 C474 1.369 . S
C475 C484 1.429 . S
C476 C474 1.419 . S
C476 C477 1.363 1_554 S
C476 H479 0.929 1_554 S
C477 C476 1.363 1_556 S
C477 C483 1.428 1_556 S
H478 C474 0.930 . S
H479 C476 0.929 1_556 S
S480 N481 1.613 . S
S480 N482 1.610 . S
N481 S480 1.613 . S
N481 C484 1.350 . S
N482 S480 1.610 . S
N482 C483 1.351 . S
C483 C477 1.428 1_554 S
C483 N482 1.351 . S
C483 C484 1.434 . S
C484 C475 1.429 . S
C484 N481 1.350 . S
C484 C483 1.434 . S
C485 C486 1.369 1_554 S
C485 C487 1.419 . S
C485 H489 0.930 . S
C486 C485 1.369 1_556 S
C486 C495 1.429 1_556 S
C487 C485 1.419 . S
C487 C488 1.363 . S
C487 H490 0.929 . S
C488 C487 1.363 . S
C488 C494 1.428 . S
H489 C485 0.930 . S
H490 C487 0.929 . S
S491 N492 1.613 1_554 S
S491 N493 1.610 . S
N492 S491 1.613 1_556 S
N492 C495 1.350 1_556 S
N493 S491 1.610 . S
N493 C494 1.351 . S
C494 C488 1.428 . S
C494 N493 1.351 . S
C494 C495 1.434 . S
C495 C486 1.429 1_554 S
C495 N492 1.350 1_554 S
C495 C494 1.434 . S
C496 C497 1.369 . S
C496 C498 1.419 . S
C496 H500 0.930 . S
C497 C496 1.369 . S
C497 C506 1.429 . S
C498 C496 1.419 . S
C498 C499 1.363 . S
C498 H501 0.929 . S
C499 C498 1.363 . S
C499 C505 1.428 . S
H500 C496 0.930 . S
H501 C498 0.929 . S
S502 N503 1.613 . S
S502 N504 1.610 . S
N503 S502 1.613 . S
N503 C506 1.350 . S
N504 S502 1.610 . S
N504 C505 1.351 . S
C505 C499 1.428 . S
C505 N504 1.351 . S
C505 C506 1.434 . S
C506 C497 1.429 . S
C506 N503 1.350 . S
C506 C505 1.434 . S
C507 C508 1.369 . S
C507 C509 1.419 . S
C507 H511 0.930 . S
C508 C507 1.369 . S
C508 C517 1.429 . S
C509 C507 1.419 . S
C509 C510 1.363 . S
C509 H512 0.929 . S
C510 C509 1.363 . S
C510 C516 1.428 . S
H511 C507 0.930 . S
H512 C509 0.929 . S
S513 N514 1.613 . S
S513 N515 1.610 . S
N514 S513 1.613 . S
N514 C517 1.350 . S
N515 S513 1.610 . S
N515 C516 1.351 . S
C516 C510 1.428 . S
C516 N515 1.351 . S
C516 C517 1.434 . S
C517 C508 1.429 . S
C517 N514 1.350 . S
C517 C516 1.434 . S
C518 C519 1.369 . S
C518 C520 1.419 . S
C518 H522 0.930 . S
C519 C518 1.369 . S
C519 C528 1.429 . S
C520 C518 1.419 . S
C520 C521 1.363 . S
C520 H523 0.929 . S
C521 C520 1.363 . S
C521 C527 1.428 . S
H522 C518 0.930 . S
H523 C520 0.929 . S
S524 N525 1.613 . S
S524 N526 1.610 . S
N525 S524 1.613 . S
N525 C528 1.350 . S
N526 S524 1.610 . S
N526 C527 1.351 . S
C527 C521 1.428 . S
C527 N526 1.351 . S
C527 C528 1.434 . S
C528 C519 1.429 . S
C528 N525 1.350 . S
C528 C527 1.434 . S
C529 C530 1.369 . S
C529 C531 1.419 . S
C529 H533 0.930 . S
C530 C529 1.369 . S
C530 C539 1.429 . S
C531 C529 1.419 . S
C531 C532 1.363 . S
C531 H534 0.929 . S
C532 C531 1.363 . S
C532 C538 1.428 . S
H533 C529 0.930 . S
H534 C531 0.929 . S
S535 N536 1.613 . S
S535 N537 1.610 . S
N536 S535 1.613 . S
N536 C539 1.350 . S
N537 S535 1.610 . S
N537 C538 1.351 . S
C538 C532 1.428 . S
C538 N537 1.351 . S
C538 C539 1.434 . S
C539 C530 1.429 . S
C539 N536 1.350 . S
C539 C538 1.434 . S
C540 C541 1.369 . S
C540 C542 1.419 1_455 S
C540 H544 0.930 . S
C541 C540 1.369 . S
C541 C550 1.429 . S
C542 C540 1.419 1_655 S
C542 C543 1.363 . S
C542 H545 0.929 . S
C543 C542 1.363 . S
C543 C549 1.428 . S
H544 C540 0.930 . S
H545 C542 0.929 . S
S546 N547 1.613 1_655 S
S546 N548 1.610 . S
N547 S546 1.613 1_455 S
N547 C550 1.350 . S
N548 S546 1.610 . S
N548 C549 1.351 . S
C549 C543 1.428 . S
C549 N548 1.351 . S
C549 C550 1.434 1_655 S
C550 C541 1.429 . S
C550 N547 1.350 . S
C550 C549 1.434 1_455 S
C551 C552 1.369 . S
C551 C553 1.419 1_655 S
C551 H555 0.930 . S
C552 C551 1.369 . S
C552 C561 1.429 . S
C553 C551 1.419 1_455 S
C553 C554 1.363 . S
C553 H556 0.929 . S
C554 C553 1.363 . S
C554 C560 1.428 . S
H555 C551 0.930 . S
H556 C553 0.929 . S
S557 N558 1.613 1_455 S
S557 N559 1.610 . S
N558 S557 1.613 1_655 S
N558 C561 1.350 . S
N559 S557 1.610 . S
N559 C560 1.351 . S
C560 C554 1.428 . S
C560 N559 1.351 . S
C560 C561 1.434 1_455 S
C561 C552 1.429 . S
C561 N558 1.350 . S
C561 C560 1.434 1_655 S
C562 C563 1.369 . S
C562 C564 1.419 . S
C562 H566 0.930 . S
C563 C562 1.369 . S
C563 C572 1.429 . S
C564 C562 1.419 . S
C564 C565 1.363 . S
C564 H567 0.929 . S
C565 C564 1.363 . S
C565 C571 1.428 . S
H566 C562 0.930 . S
H567 C564 0.929 . S
S568 N569 1.613 . S
S568 N570 1.610 . S
N569 S568 1.613 . S
N569 C572 1.350 . S
N570 S568 1.610 . S
N570 C571 1.351 . S
C571 C565 1.428 . S
C571 N570 1.351 . S
C571 C572 1.434 . S
C572 C563 1.429 . S
C572 N569 1.350 . S
C572 C571 1.434 . S
C573 C574 1.369 . S
C573 C575 1.419 . S
C573 H577 0.930 . S
C574 C573 1.369 . S
C574 C583 1.429 . S
C575 C573 1.419 . S
C575 C576 1.363 . S
C575 H578 0.929 . S
C576 C575 1.363 . S
C576 C582 1.428 . S
H577 C573 0.930 . S
H578 C575 0.929 . S
S579 N580 1.613 . S
S579 N581 1.610 . S
N580 S579 1.613 . S
N580 C583 1.350 . S
N581 S579 1.610 . S
N581 C582 1.351 . S
C582 C576 1.428 . S
C582 N581 1.351 . S
C582 C583 1.434 . S
C583 C574 1.429 . S
C583 N580 1.350 . S
C583 C582 1.434 . S
C321 C6 1.734 . S
C323 C286 1.732 . S
C332 C246 1.729 . S
C334 C46 1.735 . S
C343 C206 1.735 . S
C345 C86 1.730 . S
C354 C166 1.736 . S
C356 C126 1.730 . S
C365 C89 1.859 . S
C367 C9 1.860 . S
C376 C49 1.858 . S
C378 C129 1.860 . S
C387 C138 1.380 . S
C389 C58 1.383 . S
C398 C98 1.377 . S
C400 C18 1.383 . S
C409 C169 1.670 1_554 S
C411 C249 1.668 . S
C420 C209 1.667 . S
C422 C289 1.668 1_556 S
C431 C298 1.192 . S
C433 C218 1.195 1_556 S
C442 C258 1.190 . S
C444 C178 1.193 1_556 S
C453 C19 2.094 . S
C455 C10 2.088 . S
C464 C59 2.092 . S
C466 C50 2.089 . S
C475 C90 2.087 . S
C477 C99 2.093 . S
C486 C139 2.087 . S
C488 C130 2.093 . S
C497 C170 2.089 . S
C499 C179 2.090 . S
C508 C219 2.088 . S
C510 C210 2.091 . S
C519 C259 2.092 . S
C521 C250 2.088 . S
C530 C299 2.086 . S
C532 C290 2.092 . S
C541 C15 2.290 . S
C543 C55 2.288 . S
C552 C135 2.289 . S
C554 C95 2.287 . S
C563 C175 2.286 . S
C565 C215 2.288 . S
C574 C295 2.289 . S
C576 C255 2.287 . S
