# Generated by pormake.
# Topology rob, (6)-cn, num edge types: 1
# Building blocks:
#     Node 0, Type 0, BuildingBlock: BETGAK_clean_sbu_0, # of connection points: 6
#     Node 1, Type 0, BuildingBlock: BETGAK_clean_sbu_0, # of connection points: 6
#     Node 2, Type 0, BuildingBlock: BETGAK_clean_sbu_0, # of connection points: 6
#     Node 3, Type 0, BuildingBlock: BETGAK_clean_sbu_0, # of connection points: 6
#     Edge 4, Type (0, 0), BuildingBlock: FUNLAD_clean_linker_1, # of connection points: 2
#     Edge 5, Type (0, 0), BuildingBlock: FUNLAD_clean_linker_1, # of connection points: 2
#     Edge 6, Type (0, 0), BuildingBlock: FUNLAD_clean_linker_1, # of connection points: 2
#     Edge 7, Type (0, 0), BuildingBlock: FUNLAD_clean_linker_1, # of connection points: 2
#     Edge 8, Type (0, 0), BuildingBlock: FUNLAD_clean_linker_1, # of connection points: 2
#     Edge 9, Type (0, 0), BuildingBlock: FUNLAD_clean_linker_1, # of connection points: 2
#     Edge 10, Type (0, 0), BuildingBlock: FUNLAD_clean_linker_1, # of connection points: 2
#     Edge 11, Type (0, 0), BuildingBlock: FUNLAD_clean_linker_1, # of connection points: 2
#     Edge 12, Type (0, 0), BuildingBlock: FUNLAD_clean_linker_1, # of connection points: 2
#     Edge 13, Type (0, 0), BuildingBlock: FUNLAD_clean_linker_1, # of connection points: 2
#     Edge 14, Type (0, 0), BuildingBlock: FUNLAD_clean_linker_1, # of connection points: 2
#     Edge 15, Type (0, 0), BuildingBlock: FUNLAD_clean_linker_1, # of connection points: 2
# Relax obj value: 0.153
# Max RMSD: 0.196
# Mean RMSD: 0.196
data_MOF--net-rob--node1-BETGAK_clean_sbu_0--edge1-FUNLAD_clean_linker_1
_symmetry_space_group_name_H-M    P1
_symmetry_Int_Tables_number       1
_symmetry_cell_setting            triclinic
loop_
_symmetry_equiv_pos_as_xyz
'x, y, z'
_cell_length_a     17.258937
_cell_length_b     23.673795
_cell_length_c     38.16466
_cell_angle_alpha  88.9113
_cell_angle_beta   125.65794
_cell_angle_gamma 91.537468
loop_
_atom_site_label
_atom_site_type_symbol
_atom_site_fract_x
_atom_site_fract_y
_atom_site_fract_z
_atom_type_partial_charge
La0 La 0.20067 0.3335 0.02004 0.0
La1 La 0.36658 0.29934 0.01977 0.0
C2 C 0.07728 0.34295 0.03504 0.0
C3 C 0.07585 0.33379 0.0729 0.0
C4 C 1.01574 0.36593 0.07773 0.0
C5 C 1.01803 0.36046 0.11488 0.0
C6 C 0.08141 0.32285 0.14811 0.0
C7 C 0.13933 0.28951 0.14239 0.0
C8 C 0.1371 0.29521 0.1053 0.0
C9 C 0.29161 0.41702 1.0109 0.0
C10 C 0.40323 0.30968 0.10827 0.0
C11 C 0.49359 0.29506 1.00648 0.0
C12 C 0.4968 0.28889 0.96906 0.0
C13 C 0.41931 0.26556 0.93029 0.0
C14 C 0.42465 0.25903 0.89539 0.0
C15 C 0.50718 0.27597 0.89849 0.0
C16 C 0.58456 0.29963 0.93751 0.0
C17 C 0.57904 0.30617 0.97234 0.0
C18 C 0.27432 0.21493 0.02751 0.0
C19 C 0.16035 0.31838 0.93057 0.0
O20 O 0.13244 0.3846 0.03837 0.0
O21 O 0.08543 0.29793 0.01808 0.0
O22 O 0.20037 0.41491 0.99192 0.0
O23 O 0.32939 0.37481 0.03553 0.0
O24 O 0.30932 0.30801 0.08698 0.0
O25 O 0.44436 0.31598 0.08818 0.0
O26 O 0.46247 0.25112 0.0165 0.0
O27 O 0.45813 0.3421 1.00829 0.0
O28 O 0.36532 0.21607 0.04559 0.0
O29 O 0.23766 0.25809 1.00397 0.0
O30 O 0.25378 0.31372 0.95106 0.0
O31 O 0.12018 0.3209 0.95117 0.0
H32 H 0.96759 0.39575 0.05291 0.0
H33 H 0.96965 0.38561 0.11705 0.0
H34 H 0.18813 0.25982 0.16713 0.0
H35 H 0.18414 0.27009 0.10221 0.0
H36 H 0.35514 0.25189 0.92714 0.0
H37 H 0.36413 0.24048 0.8659 0.0
H38 H 0.65046 0.31191 0.94188 0.0
H39 H 0.63966 0.3241 1.00211 0.0
La40 La 0.69522 0.83158 1.01291 0.0
La41 La 0.85518 0.79571 1.00842 0.0
C42 C 0.57414 0.83997 0.02953 0.0
C43 C 0.56996 0.83548 0.06724 0.0
C44 C 0.59379 0.88229 0.09412 0.0
C45 C 0.5844 0.87923 0.12806 0.0
C46 C 0.55237 0.8292 0.13649 0.0
C47 C 0.52781 0.78233 0.10947 0.0
C48 C 0.53584 0.78569 0.07501 0.0
C49 C 0.78807 0.91462 1.00439 0.0
C50 C 0.90091 0.80562 0.09918 0.0
C51 C 0.9749 0.79002 0.99078 0.0
C52 C 0.97272 0.78854 0.95156 0.0
C53 C 0.89651 0.76313 0.91334 0.0
C54 C 0.89774 0.76081 0.87697 0.0
C55 C 0.97536 0.78415 0.87817 0.0
C56 C 0.0504 0.81035 0.91639 0.0
C57 C 0.04904 0.81259 0.9526 0.0
C58 C 0.76347 0.71256 0.01733 0.0
C59 C 0.64811 0.82176 0.92175 0.0
O60 O 0.62308 0.88268 0.02894 0.0
O61 O 0.58739 0.79344 1.01577 0.0
O62 O 0.6977 0.91463 0.98738 0.0
O63 O 0.82439 0.87091 0.02731 0.0
O64 O 0.80751 0.80694 0.07962 0.0
O65 O 0.93893 0.80968 0.07755 0.0
O66 O 0.93936 0.74589 0.99836 0.0
O67 O 0.94953 0.8374 0.99812 0.0
O68 O 0.85401 0.71285 0.03439 0.0
O69 O 0.72643 0.75614 0.9942 0.0
O70 O 0.74026 0.81396 0.9408 0.0
O71 O 0.61058 0.82458 0.94345 0.0
H72 H 0.61849 0.92174 0.08864 0.0
H73 H 0.60269 0.91622 0.14796 0.0
H74 H 0.49989 0.74357 0.11396 0.0
H75 H 0.51376 0.74958 0.05398 0.0
H76 H 0.83659 0.74445 0.91176 0.0
H77 H 0.8385 0.73988 0.84857 0.0
H78 H 0.1111 0.82875 0.91845 0.0
H79 H 0.10833 0.83265 0.98169 0.0
La80 La 0.36655 0.80996 0.51412 0.0
La81 La 0.20289 0.75305 0.51268 0.0
C82 C 0.49673 0.82771 0.50395 0.0
C83 C 0.50776 0.81415 0.46951 0.0
C84 C 0.55098 0.85382 0.45794 0.0
C85 C 0.55936 0.84247 0.42445 0.0
C86 C 0.5243 0.79105 0.40177 0.0
C87 C 0.48329 0.75086 0.41423 0.0
C88 C 0.4741 0.76242 0.44744 0.0
C89 C 0.24352 0.87827 0.50944 0.0
C90 C 0.18038 0.76061 0.42593 0.0
C91 C 0.07021 0.73174 0.52094 0.0
C92 C 0.04945 0.73891 0.55317 0.0
C93 C 0.96672 0.76693 0.54125 0.0
C94 C 0.94256 0.77156 0.57028 0.0
C95 C 1.00011 0.74799 0.61191 0.0
C96 C 0.08362 0.72012 0.62387 0.0
C97 C 0.10814 0.71597 0.59492 0.0
C98 C 0.32812 0.68523 0.51819 0.0
C99 C 0.38851 0.80385 0.60033 0.0
O100 O 0.4317 0.86476 0.49399 0.0
O101 O 0.49501 0.78471 0.52564 0.0
O102 O 0.33333 0.89129 0.52878 0.0
O103 O 0.22526 0.83109 0.49132 0.0
O104 O 0.27175 0.77601 0.44843 0.0
O105 O 0.13394 0.75382 0.44366 0.0
O106 O 0.13605 0.6957 0.53013 0.0
O107 O 0.0751 0.77781 0.50267 0.0
O108 O 0.23862 0.67167 0.49873 0.0
O109 O 0.34439 0.73241 0.53584 0.0
O110 O 0.29644 0.78974 0.57784 0.0
O111 O 0.43602 0.80726 0.58299 0.0
H112 H 0.578 0.89378 0.47475 0.0
H113 H 0.59429 0.87383 0.41685 0.0
H114 H 0.45675 0.71074 0.3977 0.0
H115 H 0.44024 0.73101 0.45565 0.0
H116 H 0.92007 0.78488 0.50922 0.0
H117 H 0.87814 0.79349 0.55999 0.0
H118 H 0.13082 0.70123 0.65534 0.0
H119 H 0.17265 0.6942 0.60518 0.0
La120 La 0.87176 0.31055 0.52131 0.0
La121 La 0.7173 0.24914 0.52389 0.0
C122 C 1.00023 0.33067 0.51004 0.0
C123 C 1.0063 0.33005 0.47318 0.0
C124 C 0.08094 0.35929 0.47553 0.0
C125 C 0.08572 0.36017 0.44013 0.0
C126 C 1.01489 0.33238 0.40173 0.0
C127 C 0.94049 0.30325 0.39957 0.0
C128 C 0.93717 0.3012 0.43523 0.0
C129 C 0.74357 0.37561 0.51534 0.0
C130 C 0.68125 0.25916 0.43445 0.0
C131 C 0.59939 0.22385 0.54056 0.0
C132 C 0.59489 0.23653 0.57706 0.0
C133 C 0.56516 0.19423 0.59322 0.0
C134 C 0.56431 0.20459 0.62897 0.0
C135 C 0.59398 0.25761 0.64952 0.0
C136 C 0.62292 0.30002 0.63294 0.0
C137 C 0.62372 0.28962 0.59719 0.0
C138 C 0.84571 0.18495 0.52925 0.0
C139 C 0.89848 0.30836 0.60821 0.0
O140 O 0.94658 0.36963 0.50908 0.0
O141 O 0.9863 0.28146 0.52198 0.0
O142 O 0.83152 0.3917 0.53292 0.0
O143 O 0.72943 0.32735 0.49925 0.0
O144 O 0.76977 0.27982 0.45491 0.0
O145 O 0.64075 0.24729 0.4544 0.0
O146 O 0.66871 0.19097 0.54966 0.0
O147 O 0.58916 0.26651 0.51584 0.0
O148 O 0.75721 0.16942 0.51043 0.0
O149 O 0.85994 0.23259 0.54629 0.0
O150 O 0.80763 0.29226 0.58633 0.0
O151 O 0.94504 0.31105 0.59046 0.0
H152 H 0.13507 0.38175 0.5046 0.0
H153 H 0.14311 0.3838 0.44243 0.0
H154 H 0.88556 0.2814 0.37037 0.0
H155 H 0.88076 0.27696 0.43312 0.0
H156 H 0.54261 0.15301 0.57815 0.0
H157 H 0.53883 0.17116 0.63975 0.0
H158 H 0.64561 0.34131 0.64786 0.0
H159 H 0.64748 0.32302 0.58552 0.0
H160 H 0.75737 0.63383 0.04732 0.0
C161 C 0.71352 0.66606 0.02357 0.0
H162 H 0.57304 0.69161 0.97583 0.0
H163 H 0.40002 0.44301 0.95427 0.0
H164 H 0.38827 0.453 0.88808 0.0
H165 H 0.45902 0.53604 0.87572 0.0
H166 H 0.54303 0.60935 0.92983 0.0
C167 C 0.61809 0.66135 1.00118 0.0
C168 C 0.57165 0.61232 1.00817 0.0
C169 C 0.5203 0.5705 0.97577 0.0
C170 C 0.47765 0.52306 0.98254 0.0
C171 C 0.43108 0.48074 0.95039 0.0
C172 C 0.42439 0.48573 0.9123 0.0
C173 C 0.46436 0.53244 0.90538 0.0
C174 C 0.51218 0.5743 0.93668 0.0
H175 H 0.2976 0.4948 0.97993 0.0
C176 C 0.34147 0.46358 1.00467 0.0
H177 H 0.48169 0.44001 0.05443 0.0
H178 H 0.66018 0.68586 0.07619 0.0
H179 H 0.67054 0.67636 0.14208 0.0
H180 H 0.5956 0.5948 0.15351 0.0
H181 H 0.51013 0.52201 0.09911 0.0
C182 C 0.43699 0.46932 0.0282 0.0
C183 C 0.48386 0.51815 0.02127 0.0
C184 C 0.5351 0.56001 0.05364 0.0
C185 C 0.57877 0.60708 0.0471 0.0
C186 C 0.62732 0.64872 0.07968 0.0
C187 C 0.63336 0.64398 0.11763 0.0
C188 C 0.59107 0.5981 0.12404 0.0
C189 C 0.54234 0.55655 0.09254 0.0
H190 H 0.47571 0.66528 0.54265 0.0
C191 C 0.40236 0.64961 0.52279 0.0
H192 H 0.30931 0.58344 0.48286 0.0
H193 H 0.60744 0.50057 0.44791 0.0
H194 H 0.49952 0.55249 0.38153 0.0
H195 H 0.37279 0.6104 0.37302 0.0
H196 H 0.35282 0.61671 0.43072 0.0
C197 C 0.38258 0.59894 0.50385 0.0
C198 C 0.45957 0.56398 0.50929 0.0
C199 C 0.4701 0.56056 0.47523 0.0
C200 C 0.54346 0.52726 0.48021 0.0
C201 C 0.55277 0.52505 0.44578 0.0
C202 C 0.49149 0.55475 0.40756 0.0
C203 C 0.42018 0.58742 0.40278 0.0
C204 C 0.4093 0.59051 0.4361 0.0
H205 H 0.59636 0.39192 0.49337 0.0
C206 C 0.66783 0.41028 0.51019 0.0
H207 H 0.75553 0.48206 0.54239 0.0
H208 H 0.45626 0.55887 0.58017 0.0
H209 H 0.56478 0.50737 0.6466 0.0
H210 H 0.69357 0.45105 0.6556 0.0
H211 H 0.71429 0.44553 0.5981 0.0
C212 C 0.68423 0.46337 0.52499 0.0
C213 C 0.60624 0.49745 0.51928 0.0
C214 C 0.5957 0.50079 0.55333 0.0
C215 C 0.52197 0.53379 0.54826 0.0
C216 C 0.51188 0.53523 0.58249 0.0
C217 C 0.57347 0.50568 0.62075 0.0
C218 C 0.64594 0.47392 0.62582 0.0
C219 C 0.65714 0.47121 0.59258 0.0
H220 H 0.2649 0.13232 0.05245 0.0
C221 C 0.22252 0.16662 0.03073 0.0
H222 H 0.08366 0.19613 0.985 0.0
H223 H 0.88407 0.95378 0.94345 0.0
H224 H 0.86061 0.97827 0.876 0.0
H225 H 0.93445 0.06478 0.86953 0.0
H226 H 0.03373 0.12674 0.93074 0.0
C227 C 0.12685 0.16326 1.00819 0.0
C228 C 0.07716 0.1128 1.0117 0.0
C229 C 1.01689 0.07769 0.97526 0.0
C230 C 0.97194 1.02849 0.97865 0.0
C231 C 0.91681 0.99271 0.94233 0.0
C232 C 0.90341 1.00601 0.90345 0.0
C233 C 0.94517 0.05464 0.89984 0.0
C234 C 1.00182 0.08997 0.93526 0.0
H235 H 0.79724 0.99655 0.97858 0.0
C236 C 0.83961 0.96206 1.00006 0.0
H237 H 0.97846 0.93198 0.0449 0.0
H238 H 0.17952 0.17336 0.08677 0.0
H239 H 0.19979 0.15022 0.15364 0.0
H240 H 0.12252 0.06505 0.15955 0.0
H241 H 1.02397 1.00284 0.09844 0.0
C242 C 0.93506 0.96487 0.02178 0.0
C243 C 0.98438 1.01534 0.01811 0.0
C244 C 0.04376 0.05077 0.0544 0.0
C245 C 0.08952 0.09962 0.05116 0.0
C246 C 0.14508 0.13515 0.08758 0.0
C247 C 0.15686 0.12252 0.12618 0.0
C248 C 0.1133 0.07461 0.12948 0.0
C249 C 0.0571 1.03914 0.09413 0.0
H250 H 0.99227 0.1687 0.55001 0.0
C251 C 0.92025 0.15103 0.53253 0.0
H252 H 0.83026 0.08096 0.49831 0.0
H253 H 0.19246 1.04513 0.48372 0.0
H254 H 0.14193 0.13193 0.44189 0.0
H255 H 1.01372 0.18809 0.43333 0.0
H256 H 0.93606 0.15852 0.46701 0.0
C257 C 0.90144 0.09959 0.51457 0.0
C258 C 0.97742 0.06507 0.51847 0.0
C259 C 1.0215 0.08286 0.49812 0.0
C260 C 0.09411 0.0497 0.50221 0.0
C261 C 0.13698 0.06857 0.48166 0.0
C262 C 0.1085 0.11826 0.45745 0.0
C263 C 0.03644 0.14999 0.45272 0.0
C264 C 0.99293 0.13264 0.47255 0.0
H265 H 0.0992 0.89692 0.49036 0.0
C266 C 0.17232 0.91289 0.50829 0.0
H267 H 0.26724 0.97996 0.54539 0.0
H268 H 0.90658 1.01794 0.56073 0.0
H269 H 0.95613 0.93044 0.60186 0.0
H270 H 0.0834 0.87388 0.60972 0.0
H271 H 0.16096 0.9039 0.57606 0.0
C272 C 0.19496 0.96285 0.5285 0.0
C273 C 0.12092 0.99807 0.52563 0.0
C274 C 0.07679 0.98018 0.5459 0.0
C275 C 1.00444 1.01342 0.54198 0.0
C276 C 0.96165 0.99438 0.56253 0.0
C277 C 0.9896 0.9443 0.58636 0.0
C278 C 0.06112 0.91237 0.59072 0.0
C279 C 0.10468 0.92997 0.57096 0.0
H280 H 0.55432 0.23193 0.37072 0.0
C281 C 0.62316 0.25369 0.38708 0.0
H282 H 0.71872 0.3008 0.37975 0.0
H283 H 0.56247 0.21191 0.19477 0.0
H284 H 0.70982 0.16057 0.23817 0.0
H285 H 0.80416 0.16129 0.3176 0.0
H286 H 0.75071 0.21274 0.35398 0.0
C287 C 0.65053 0.27853 0.36384 0.0
C288 C 0.59082 0.27669 0.31593 0.0
C289 C 0.62316 0.24672 0.29507 0.0
C290 C 0.56984 0.2474 0.24929 0.0
C291 C 0.60189 0.21491 0.2294 0.0
C292 C 0.686 0.18468 0.25396 0.0
C293 C 0.73902 0.18499 0.29866 0.0
C294 C 0.70779 0.21502 0.31913 0.0
H295 H 0.53744 0.31845 0.17365 0.0
C296 C 0.46339 0.3042 0.15565 0.0
H297 H 0.35487 0.2669 0.15852 0.0
H298 H 0.51119 0.34151 0.34578 0.0
H299 H 0.36585 0.39432 0.30266 0.0
H300 H 0.27385 0.39625 0.22327 0.0
H301 H 0.32753 0.34558 0.18684 0.0
C302 C 0.42876 0.28134 0.17656 0.0
C303 C 0.48546 0.27946 0.22451 0.0
C304 C 0.45292 0.30924 0.24543 0.0
C305 C 0.50568 0.30797 0.29117 0.0
C306 C 0.47297 0.33966 0.31116 0.0
C307 C 0.38971 0.3706 0.28675 0.0
C308 C 0.33802 0.3717 0.24211 0.0
C309 C 0.36935 0.34195 0.22157 0.0
H310 H 0.53985 0.86937 0.18481 0.0
C311 C 0.54236 0.82873 0.17268 0.0
H312 H 0.55024 0.74031 0.18389 0.0
H313 H 0.70845 0.78677 0.37973 0.0
H314 H 0.85378 0.75958 0.38877 0.0
H315 H 0.85559 0.74355 0.32556 0.0
H316 H 0.71217 0.75482 0.25289 0.0
C317 C 0.54102 0.78165 0.19263 0.0
C318 C 0.53699 0.78576 0.23045 0.0
C319 C 0.62077 0.77762 0.27267 0.0
C320 C 0.61955 0.78652 0.30913 0.0
C321 C 0.7051 0.77997 0.35093 0.0
C322 C 0.78907 0.76449 0.35657 0.0
C323 C 0.7901 0.75546 0.32098 0.0
C324 C 0.70725 0.76204 0.27945 0.0
H325 H 0.52661 0.73357 0.35712 0.0
C326 C 0.53021 0.77772 0.36544 0.0
H327 H 0.53034 0.8621 0.34608 0.0
H328 H 0.3615 0.79842 0.15399 0.0
H329 H 0.21509 0.82332 0.14494 0.0
H330 H 0.21325 0.83887 0.20821 0.0
H331 H 0.35731 0.82942 0.28081 0.0
C332 C 0.53425 0.81765 0.34097 0.0
C333 C 0.53417 0.80286 0.30323 0.0
C334 C 0.44944 0.8086 0.261 0.0
C335 C 0.45073 0.79992 0.22456 0.0
C336 C 0.36477 0.80537 0.18277 0.0
C337 C 0.2802 0.81938 0.17713 0.0
C338 C 0.2791 0.82812 0.21273 0.0
C339 C 0.36242 0.82277 0.25424 0.0
H340 H 0.52386 0.85639 0.86118 0.0
C341 C 0.58599 0.83013 0.87474 0.0
H342 H 0.66841 0.781 0.86312 0.0
H343 H 0.26132 0.82819 0.66723 0.0
H344 H 0.17521 0.7967 0.69603 0.0
H345 H 0.25995 0.76657 0.7719 0.0
H346 H 0.43205 0.77314 0.82035 0.0
C347 C 0.606 0.80718 0.849 0.0
C348 C 0.5524 0.82101 0.80213 0.0
C349 C 0.45215 0.81164 0.77335 0.0
C350 C 0.40351 0.82447 0.72867 0.0
C351 C 0.30285 0.81806 0.7012 0.0
C352 C 0.25205 0.7993 0.71721 0.0
C353 C 0.29982 0.78308 0.76005 0.0
C354 C 0.3988 0.78811 0.78774 0.0
H355 H 0.51006 0.79054 0.66757 0.0
C356 C 0.44185 0.81125 0.6471 0.0
H357 H 0.34077 0.86315 0.64342 0.0
H358 H 0.74286 0.85035 0.84884 0.0
H359 H 0.82762 0.88905 0.82075 0.0
H360 H 0.74278 0.91007 0.74319 0.0
H361 H 0.57257 0.89176 0.69331 0.0
C362 C 0.40798 0.8417 0.6646 0.0
C363 C 0.45595 0.84193 0.71225 0.0
C364 C 0.55495 0.85474 0.74133 0.0
C365 C 0.60332 0.84379 0.78619 0.0
C366 C 0.70236 0.85682 0.81436 0.0
C367 C 0.75199 0.87962 0.79873 0.0
C368 C 0.70429 0.89133 0.75508 0.0
C369 C 0.60681 0.87979 0.72668 0.0
H370 H 0.59366 0.31555 0.69437 0.0
C371 C 0.59181 0.27119 0.68691 0.0
H372 H 0.59325 0.18742 0.70789 0.0
H373 H 0.73788 0.24979 0.89686 0.0
H374 H 0.87779 0.20552 0.90999 0.0
H375 H 0.88536 0.18087 0.84965 0.0
H376 H 0.75257 0.2 0.77553 0.0
C377 C 0.58821 0.23204 0.71204 0.0
C378 C 0.58396 0.24844 0.74845 0.0
C379 C 0.6623 0.23736 0.79156 0.0
C380 C 0.6584 0.25224 0.82645 0.0
C381 C 0.73734 0.23999 0.86914 0.0
C382 C 0.81811 0.2145 0.87717 0.0
C383 C 0.82232 0.20057 0.84315 0.0
C384 C 0.7456 0.21174 0.8008 0.0
H385 H 0.46033 0.23547 0.83706 0.0
C386 C 0.51116 0.26586 0.86117 0.0
H387 H 0.62376 0.32369 0.87796 0.0
H388 H 0.4168 0.27014 0.6697 0.0
H389 H 0.27932 0.31727 0.6567 0.0
H390 H 0.2775 0.34948 0.71731 0.0
H391 H 0.41251 0.33374 0.79126 0.0
C392 C 0.57238 0.29263 0.85511 0.0
C393 C 0.57617 0.27826 0.81825 0.0
C394 C 0.49836 0.2902 0.77517 0.0
C395 C 0.50133 0.27409 0.74021 0.0
C396 C 0.42023 0.2835 0.69751 0.0
C397 C 0.34044 0.31022 0.68956 0.0
C398 C 0.33927 0.32816 0.72367 0.0
C399 C 0.41709 0.31848 0.76601 0.0
H400 H 0.03567 0.81923 0.16362 0.0
C401 C 0.9641 0.80106 0.1466 0.0
H402 H 0.86308 0.75643 0.1511 0.0
H403 H 0.27494 0.72977 0.34798 0.0
H404 H 0.33992 0.68839 0.3129 0.0
H405 H 0.24479 0.68295 0.23363 0.0
H406 H 0.0849 0.71937 0.18906 0.0
C407 C 0.93458 0.77498 0.16865 0.0
C408 C 0.99223 0.77517 0.21679 0.0
C409 C 0.08467 0.75156 0.24248 0.0
C410 C 0.13873 0.75337 0.28832 0.0
C411 C 0.23104 0.72998 0.31312 0.0
C412 C 0.26904 0.70569 0.29341 0.0
C413 C 0.21552 0.7027 0.24879 0.0
C414 C 0.12406 0.72459 0.22351 0.0
H415 H 0.05731 0.73288 0.36155 0.0
C416 C 0.12666 0.75418 0.3788 0.0
H417 H 0.22624 0.80025 0.37376 0.0
H418 H 0.81607 0.8228 0.17751 0.0
H419 H 0.75388 0.86612 0.21303 0.0
H420 H 0.85011 0.8727 0.29205 0.0
H421 H 1.00889 0.83541 0.33631 0.0
C422 C 0.15715 0.77865 0.35661 0.0
C423 C 0.0996 0.77727 0.30853 0.0
C424 C 1.0076 0.80135 0.28286 0.0
C425 C 0.95318 0.7992 0.23704 0.0
C426 C 0.86095 0.8229 0.21238 0.0
C427 C 0.8242 0.84829 0.23226 0.0
C428 C 0.8784 0.85195 0.27681 0.0
C429 C 0.96928 0.82946 0.30192 0.0
H430 H 0.94535 0.3355 0.33159 0.0
C431 C 1.01428 0.33476 0.36282 0.0
H432 H 0.16337 0.33049 0.39523 0.0
H433 H 0.94416 0.26715 0.18536 0.0
H434 H 0.87321 0.18718 0.19823 0.0
H435 H 0.9057 0.17153 0.26973 0.0
H436 H 1.00742 0.23661 0.32837 0.0
C437 C 0.09394 0.33238 0.36438 0.0
C438 C 0.08948 0.33508 0.32416 0.0
C439 C 0.03572 0.29416 0.29121 0.0
C440 C 1.02216 0.30114 0.25088 0.0
C441 C 0.96111 0.26243 0.21735 0.0
C442 C 0.91925 0.21647 0.22419 0.0
C443 C 0.93715 0.2078 0.26436 0.0
C444 C 0.99492 0.24589 0.29763 0.0
H445 H 0.12599 0.2801 0.20916 0.0
C446 C 0.08887 0.31663 0.18887 0.0
H447 H 1.02416 0.3934 0.18528 0.0
H448 H 0.20154 0.41935 0.38135 0.0
H449 H 0.28045 0.49594 0.3701 0.0
H450 H 0.26457 0.50521 0.30169 0.0
H451 H 0.16856 0.43786 0.24391 0.0
C452 C 0.05535 0.35431 0.20272 0.0
C453 C 0.06806 0.34678 0.24463 0.0
C454 C 0.12541 0.38617 0.2783 0.0
C455 C 0.1359 0.38041 0.31803 0.0
C456 C 0.19197 0.42111 0.35071 0.0
C457 C 0.23771 0.46548 0.34467 0.0
C458 C 0.22855 0.47072 0.30613 0.0
C459 C 0.17306 0.43174 0.2732 0.0
H460 H 1.02817 0.32149 0.67413 0.0
C461 C 0.95066 0.32049 0.65449 0.0
H462 H 0.82765 0.32564 0.65365 0.0
H463 H 0.03968 0.22166 0.84113 0.0
H464 H 0.92234 0.14857 0.79735 0.0
H465 H 0.8169 0.15726 0.71812 0.0
H466 H 0.83096 0.23787 0.68211 0.0
C467 C 0.90504 0.32692 0.67306 0.0
C468 C 0.95801 0.32712 0.72072 0.0
C469 C 0.94565 0.28082 0.74127 0.0
C470 C 1.00393 0.27687 0.78703 0.0
C471 C 0.99493 0.22808 0.8066 0.0
C472 C 0.92825 0.1855 0.78183 0.0
C473 C 0.86912 0.19027 0.73721 0.0
C474 C 0.87784 0.237 0.71697 0.0
H475 H 1.02204 0.32383 0.86675 0.0
C476 C 0.09846 0.31993 0.88311 0.0
H477 H 0.21038 0.31475 0.87581 0.0
H478 H 0.98862 0.42558 0.69132 0.0
H479 H 0.10401 0.4999 0.735 0.0
H480 H 0.20606 0.49295 0.81442 0.0
H481 H 0.19283 0.41197 0.85062 0.0
C482 C 0.13392 0.3167 0.85988 0.0
C483 C 0.0716 0.32049 0.81206 0.0
C484 C 0.08148 0.36776 0.79147 0.0
C485 C 1.02394 0.37134 0.74571 0.0
C486 C 1.03277 0.41992 0.72596 0.0
C487 C 0.09818 0.46309 0.75066 0.0
C488 C 0.15549 0.45923 0.79537 0.0
C489 C 0.14733 0.41237 0.81573 0.0
H490 H 0.90498 0.77689 0.62907 0.0
C491 C 0.97015 0.75412 0.64138 0.0
H492 H 0.08216 0.70966 0.69582 0.0
H493 H 0.92246 0.86695 0.78309 0.0
H494 H 0.96578 0.94852 0.75809 0.0
H495 H 1.02356 0.93682 0.71288 0.0
H496 H 0.03596 0.84386 0.6915 0.0
C497 C 1.01878 0.73446 0.68224 0.0
C498 C 0.9855 0.74263 0.71021 0.0
C499 C 0.98284 0.79745 0.72401 0.0
C500 C 0.95455 0.80411 0.75208 0.0
C501 C 0.9473 0.85939 0.76334 0.0
C502 C 0.97143 0.9066 0.74901 0.0
C503 C 1.00358 0.90002 0.72342 0.0
C504 C 1.00967 0.84625 0.71109 0.0
H505 H 0.05232 0.79311 0.848 0.0
C506 C 0.98408 0.78041 0.84157 0.0
H507 H 0.84566 0.74827 0.79309 0.0
H508 H 0.97767 0.63208 0.68835 0.0
H509 H 0.93777 0.55062 0.71482 0.0
H510 H 0.8972 0.56192 0.76644 0.0
H511 H 0.89486 0.65486 0.79145 0.0
C512 C 0.91493 0.76207 0.80154 0.0
C513 C 0.93415 0.75593 0.76832 0.0
C514 C 0.93552 0.70129 0.75408 0.0
C515 C 0.96077 0.69468 0.72491 0.0
C516 C 0.9606 0.63956 0.711 0.0
C517 C 0.93765 0.59238 0.72587 0.0
C518 C 0.91459 0.59877 0.75485 0.0
C519 C 0.91345 0.65242 0.76892 0.0
loop_
_geom_bond_atom_site_label_1
_geom_bond_atom_site_label_2
_geom_bond_distance
_geom_bond_site_symmetry_2
_ccdc_geom_bond_type
La0 C2 2.903 1_556 S
La0 O20 2.499 1_556 S
La0 O21 2.604 1_556 S
La0 O22 2.560 1_556 S
La0 O23 2.773 . S
La0 O24 2.458 1_556 S
La0 O29 2.486 1_556 S
La0 O31 2.528 . S
La1 C11 2.895 1_554 S
La1 O23 2.488 1_554 S
La1 O25 2.535 . S
La1 O26 2.493 1_554 S
La1 O27 2.596 1_554 S
La1 O28 2.562 1_554 S
La1 O29 2.778 . S
La1 O30 2.454 1_554 S
C2 La0 2.903 1_554 S
C2 C3 1.503 . S
C2 O20 1.261 . S
C2 O21 1.243 . S
C3 C2 1.503 . S
C3 C4 1.394 . S
C3 C8 1.373 . S
C4 C3 1.394 . S
C4 C5 1.380 . S
C4 H32 0.930 . S
C5 C4 1.380 . S
C5 C6 1.376 . S
C5 H33 0.930 . S
C6 C5 1.376 . S
C6 C7 1.370 . S
C7 C6 1.370 . S
C7 C8 1.396 . S
C7 H34 0.929 . S
C8 C3 1.373 . S
C8 C7 1.396 . S
C8 H35 0.929 . S
C9 O22 1.240 . S
C9 O23 1.289 1_554 S
C10 O24 1.258 . S
C10 O25 1.256 . S
C11 La1 2.895 1_556 S
C11 C12 1.503 . S
C11 O26 1.261 . S
C11 O27 1.243 . S
C12 C11 1.503 . S
C12 C13 1.394 . S
C12 C17 1.373 . S
C13 C12 1.394 . S
C13 C14 1.380 . S
C13 H36 0.930 . S
C14 C13 1.380 . S
C14 C15 1.376 . S
C14 H37 0.930 . S
C15 C14 1.376 . S
C15 C16 1.370 . S
C16 C15 1.370 . S
C16 C17 1.396 . S
C16 H38 0.929 . S
C17 C12 1.373 . S
C17 C16 1.396 . S
C17 H39 0.929 . S
C18 O28 1.240 . S
C18 O29 1.289 1_556 S
C19 O30 1.258 . S
C19 O31 1.256 . S
O20 La0 2.499 1_554 S
O20 C2 1.261 . S
O21 La0 2.604 1_554 S
O21 C2 1.243 . S
O22 La0 2.560 1_554 S
O22 C9 1.240 . S
O23 La0 2.773 . S
O23 La1 2.488 1_556 S
O23 C9 1.289 1_556 S
O24 La0 2.458 1_554 S
O24 C10 1.258 . S
O25 La1 2.535 . S
O25 C10 1.256 . S
O26 La1 2.493 1_556 S
O26 C11 1.261 . S
O27 La1 2.596 1_556 S
O27 C11 1.243 . S
O28 La1 2.562 1_556 S
O28 C18 1.240 . S
O29 La0 2.486 1_554 S
O29 La1 2.778 . S
O29 C18 1.289 1_554 S
O30 La1 2.454 1_556 S
O30 C19 1.258 . S
O31 La0 2.528 . S
O31 C19 1.256 . S
H32 C4 0.930 . S
H33 C5 0.930 . S
H34 C7 0.929 . S
H35 C8 0.929 . S
H36 C13 0.930 . S
H37 C14 0.930 . S
H38 C16 0.929 . S
H39 C17 0.929 . S
La40 C42 2.903 1_556 S
La40 O60 2.499 1_556 S
La40 O61 2.604 1_556 S
La40 O62 2.560 1_556 S
La40 O63 2.773 . S
La40 O64 2.458 1_556 S
La40 O69 2.486 1_556 S
La40 O71 2.528 . S
La41 C51 2.895 1_554 S
La41 O63 2.488 1_554 S
La41 O65 2.535 . S
La41 O66 2.493 1_554 S
La41 O67 2.596 1_554 S
La41 O68 2.562 1_554 S
La41 O69 2.778 . S
La41 O70 2.454 1_554 S
C42 La40 2.903 1_554 S
C42 C43 1.503 . S
C42 O60 1.261 . S
C42 O61 1.243 . S
C43 C42 1.503 . S
C43 C44 1.394 . S
C43 C48 1.373 . S
C44 C43 1.394 . S
C44 C45 1.380 . S
C44 H72 0.930 . S
C45 C44 1.380 . S
C45 C46 1.376 . S
C45 H73 0.930 . S
C46 C45 1.376 . S
C46 C47 1.370 . S
C47 C46 1.370 . S
C47 C48 1.396 . S
C47 H74 0.929 . S
C48 C43 1.373 . S
C48 C47 1.396 . S
C48 H75 0.929 . S
C49 O62 1.240 . S
C49 O63 1.289 1_554 S
C50 O64 1.258 . S
C50 O65 1.256 . S
C51 La41 2.895 1_556 S
C51 C52 1.503 . S
C51 O66 1.261 . S
C51 O67 1.243 . S
C52 C51 1.503 . S
C52 C53 1.394 . S
C52 C57 1.373 . S
C53 C52 1.394 . S
C53 C54 1.380 . S
C53 H76 0.930 . S
C54 C53 1.380 . S
C54 C55 1.376 . S
C54 H77 0.930 . S
C55 C54 1.376 . S
C55 C56 1.370 . S
C56 C55 1.370 . S
C56 C57 1.396 . S
C56 H78 0.929 . S
C57 C52 1.373 . S
C57 C56 1.396 . S
C57 H79 0.929 . S
C58 O68 1.240 . S
C58 O69 1.289 1_556 S
C59 O70 1.258 . S
C59 O71 1.256 . S
O60 La40 2.499 1_554 S
O60 C42 1.261 . S
O61 La40 2.604 1_554 S
O61 C42 1.243 . S
O62 La40 2.560 1_554 S
O62 C49 1.240 . S
O63 La40 2.773 . S
O63 La41 2.488 1_556 S
O63 C49 1.289 1_556 S
O64 La40 2.458 1_554 S
O64 C50 1.258 . S
O65 La41 2.535 . S
O65 C50 1.256 . S
O66 La41 2.493 1_556 S
O66 C51 1.261 . S
O67 La41 2.596 1_556 S
O67 C51 1.243 . S
O68 La41 2.562 1_556 S
O68 C58 1.240 . S
O69 La40 2.486 1_554 S
O69 La41 2.778 . S
O69 C58 1.289 1_554 S
O70 La41 2.454 1_556 S
O70 C59 1.258 . S
O71 La40 2.528 . S
O71 C59 1.256 . S
H72 C44 0.930 . S
H73 C45 0.930 . S
H74 C47 0.929 . S
H75 C48 0.929 . S
H76 C53 0.930 . S
H77 C54 0.930 . S
H78 C56 0.929 . S
H79 C57 0.929 . S
La80 C82 2.928 . S
La80 O100 2.521 . S
La80 O101 2.628 . S
La80 O102 2.554 . S
La80 O103 2.757 . S
La80 O104 2.470 . S
La80 O109 2.482 . S
La80 O111 2.503 . S
La81 C91 2.928 . S
La81 O103 2.482 . S
La81 O105 2.503 . S
La81 O106 2.521 . S
La81 O107 2.628 . S
La81 O108 2.554 . S
La81 O109 2.757 . S
La81 O110 2.470 . S
C82 La80 2.928 . S
C82 C83 1.503 . S
C82 O100 1.261 . S
C82 O101 1.243 . S
C83 C82 1.503 . S
C83 C84 1.394 . S
C83 C88 1.373 . S
C84 C83 1.394 . S
C84 C85 1.380 . S
C84 H112 0.930 . S
C85 C84 1.380 . S
C85 C86 1.376 . S
C85 H113 0.930 . S
C86 C85 1.376 . S
C86 C87 1.370 . S
C87 C86 1.370 . S
C87 C88 1.396 . S
C87 H114 0.929 . S
C88 C83 1.373 . S
C88 C87 1.396 . S
C88 H115 0.929 . S
C89 O102 1.240 . S
C89 O103 1.289 . S
C90 O104 1.258 . S
C90 O105 1.256 . S
C91 La81 2.928 . S
C91 C92 1.503 . S
C91 O106 1.261 . S
C91 O107 1.243 . S
C92 C91 1.503 . S
C92 C93 1.394 . S
C92 C97 1.373 . S
C93 C92 1.394 . S
C93 C94 1.380 . S
C93 H116 0.930 . S
C94 C93 1.380 . S
C94 C95 1.376 . S
C94 H117 0.930 . S
C95 C94 1.376 . S
C95 C96 1.370 . S
C96 C95 1.370 . S
C96 C97 1.396 . S
C96 H118 0.929 . S
C97 C92 1.373 . S
C97 C96 1.396 . S
C97 H119 0.929 . S
C98 O108 1.240 . S
C98 O109 1.289 . S
C99 O110 1.258 . S
C99 O111 1.256 . S
O100 La80 2.521 . S
O100 C82 1.261 . S
O101 La80 2.628 . S
O101 C82 1.243 . S
O102 La80 2.554 . S
O102 C89 1.240 . S
O103 La80 2.757 . S
O103 La81 2.482 . S
O103 C89 1.289 . S
O104 La80 2.470 . S
O104 C90 1.258 . S
O105 La81 2.503 . S
O105 C90 1.256 . S
O106 La81 2.521 . S
O106 C91 1.261 . S
O107 La81 2.628 . S
O107 C91 1.243 . S
O108 La81 2.554 . S
O108 C98 1.240 . S
O109 La80 2.482 . S
O109 La81 2.757 . S
O109 C98 1.289 . S
O110 La81 2.470 . S
O110 C99 1.258 . S
O111 La80 2.503 . S
O111 C99 1.256 . S
H112 C84 0.930 . S
H113 C85 0.930 . S
H114 C87 0.929 . S
H115 C88 0.929 . S
H116 C93 0.930 . S
H117 C94 0.930 . S
H118 C96 0.929 . S
H119 C97 0.929 . S
La120 C122 2.928 . S
La120 O140 2.521 . S
La120 O141 2.628 . S
La120 O142 2.554 . S
La120 O143 2.757 . S
La120 O144 2.470 . S
La120 O149 2.482 . S
La120 O151 2.503 . S
La121 C131 2.928 . S
La121 O143 2.482 . S
La121 O145 2.503 . S
La121 O146 2.521 . S
La121 O147 2.628 . S
La121 O148 2.554 . S
La121 O149 2.757 . S
La121 O150 2.470 . S
C122 La120 2.928 . S
C122 C123 1.503 . S
C122 O140 1.261 . S
C122 O141 1.243 . S
C123 C122 1.503 . S
C123 C124 1.394 . S
C123 C128 1.373 . S
C124 C123 1.394 . S
C124 C125 1.380 . S
C124 H152 0.930 . S
C125 C124 1.380 . S
C125 C126 1.376 . S
C125 H153 0.930 . S
C126 C125 1.376 . S
C126 C127 1.370 . S
C127 C126 1.370 . S
C127 C128 1.396 . S
C127 H154 0.929 . S
C128 C123 1.373 . S
C128 C127 1.396 . S
C128 H155 0.929 . S
C129 O142 1.240 . S
C129 O143 1.289 . S
C130 O144 1.258 . S
C130 O145 1.256 . S
C131 La121 2.928 . S
C131 C132 1.503 . S
C131 O146 1.261 . S
C131 O147 1.243 . S
C132 C131 1.503 . S
C132 C133 1.394 . S
C132 C137 1.373 . S
C133 C132 1.394 . S
C133 C134 1.380 . S
C133 H156 0.930 . S
C134 C133 1.380 . S
C134 C135 1.376 . S
C134 H157 0.930 . S
C135 C134 1.376 . S
C135 C136 1.370 . S
C136 C135 1.370 . S
C136 C137 1.396 . S
C136 H158 0.929 . S
C137 C132 1.373 . S
C137 C136 1.396 . S
C137 H159 0.929 . S
C138 O148 1.240 . S
C138 O149 1.289 . S
C139 O150 1.258 . S
C139 O151 1.256 . S
O140 La120 2.521 . S
O140 C122 1.261 . S
O141 La120 2.628 . S
O141 C122 1.243 . S
O142 La120 2.554 . S
O142 C129 1.240 . S
O143 La120 2.757 . S
O143 La121 2.482 . S
O143 C129 1.289 . S
O144 La120 2.470 . S
O144 C130 1.258 . S
O145 La121 2.503 . S
O145 C130 1.256 . S
O146 La121 2.521 . S
O146 C131 1.261 . S
O147 La121 2.628 . S
O147 C131 1.243 . S
O148 La121 2.554 . S
O148 C138 1.240 . S
O149 La120 2.482 . S
O149 La121 2.757 . S
O149 C138 1.289 . S
O150 La121 2.470 . S
O150 C139 1.258 . S
O151 La120 2.503 . S
O151 C139 1.256 . S
H152 C124 0.930 . S
H153 C125 0.930 . S
H154 C127 0.929 . S
H155 C128 0.929 . S
H156 C133 0.930 . S
H157 C134 0.930 . S
H158 C136 0.929 . S
H159 C137 0.929 . S
H160 C161 0.951 1_554 S
C161 H160 0.951 1_556 S
C161 C167 1.265 . S
H162 C167 0.950 . S
H163 C171 0.949 . S
H164 C172 0.950 . S
H165 C173 0.951 . S
H166 C174 0.951 . S
C167 C161 1.265 . S
C167 H162 0.950 . S
C167 C168 1.478 . S
C168 C167 1.478 . S
C168 C169 1.397 . S
C168 C185 1.394 1_556 S
C169 C168 1.397 . S
C169 C170 1.438 . S
C169 C174 1.429 . S
C170 C169 1.438 . S
C170 C171 1.428 . S
C170 C183 1.394 1_556 S
C171 H163 0.949 . S
C171 C170 1.428 . S
C171 C172 1.345 . S
C172 H164 0.950 . S
C172 C171 1.345 . S
C172 C173 1.424 . S
C173 H165 0.951 . S
C173 C172 1.424 . S
C173 C174 1.347 . S
C174 H166 0.951 . S
C174 C169 1.429 . S
C174 C173 1.347 . S
H175 C176 0.951 1_556 S
C176 H175 0.951 1_554 S
C176 C182 1.265 . S
H177 C182 0.950 . S
H178 C186 0.949 . S
H179 C187 0.950 . S
H180 C188 0.951 . S
H181 C189 0.951 . S
C182 C176 1.265 . S
C182 H177 0.950 . S
C182 C183 1.478 . S
C183 C170 1.394 1_554 S
C183 C182 1.478 . S
C183 C184 1.397 . S
C184 C183 1.397 . S
C184 C185 1.438 . S
C184 C189 1.429 . S
C185 C168 1.394 1_554 S
C185 C184 1.438 . S
C185 C186 1.428 . S
C186 H178 0.949 . S
C186 C185 1.428 . S
C186 C187 1.345 . S
C187 H179 0.950 . S
C187 C186 1.345 . S
C187 C188 1.424 . S
C188 H180 0.951 . S
C188 C187 1.424 . S
C188 C189 1.347 . S
C189 H181 0.951 . S
C189 C184 1.429 . S
C189 C188 1.347 . S
H190 C191 0.951 . S
C191 H190 0.951 . S
C191 C197 1.265 . S
H192 C197 0.950 . S
H193 C201 0.949 . S
H194 C202 0.950 . S
H195 C203 0.951 . S
H196 C204 0.951 . S
C197 C191 1.265 . S
C197 H192 0.950 . S
C197 C198 1.478 . S
C198 C197 1.478 . S
C198 C199 1.397 . S
C198 C215 1.394 . S
C199 C198 1.397 . S
C199 C200 1.438 . S
C199 C204 1.429 . S
C200 C199 1.438 . S
C200 C201 1.428 . S
C200 C213 1.394 . S
C201 H193 0.949 . S
C201 C200 1.428 . S
C201 C202 1.345 . S
C202 H194 0.950 . S
C202 C201 1.345 . S
C202 C203 1.424 . S
C203 H195 0.951 . S
C203 C202 1.424 . S
C203 C204 1.347 . S
C204 H196 0.951 . S
C204 C199 1.429 . S
C204 C203 1.347 . S
H205 C206 0.951 . S
C206 H205 0.951 . S
C206 C212 1.265 . S
H207 C212 0.950 . S
H208 C216 0.949 . S
H209 C217 0.950 . S
H210 C218 0.951 . S
H211 C219 0.951 . S
C212 C206 1.265 . S
C212 H207 0.950 . S
C212 C213 1.478 . S
C213 C200 1.394 . S
C213 C212 1.478 . S
C213 C214 1.397 . S
C214 C213 1.397 . S
C214 C215 1.438 . S
C214 C219 1.429 . S
C215 C198 1.394 . S
C215 C214 1.438 . S
C215 C216 1.428 . S
C216 H208 0.949 . S
C216 C215 1.428 . S
C216 C217 1.345 . S
C217 H209 0.950 . S
C217 C216 1.345 . S
C217 C218 1.424 . S
C218 H210 0.951 . S
C218 C217 1.424 . S
C218 C219 1.347 . S
C219 H211 0.951 . S
C219 C214 1.429 . S
C219 C218 1.347 . S
H220 C221 0.951 1_554 S
C221 H220 0.951 1_556 S
C221 C227 1.265 . S
H222 C227 0.950 . S
H223 C231 0.949 . S
H224 C232 0.950 . S
H225 C233 0.951 1_545 S
H226 C234 0.951 . S
C227 C221 1.265 . S
C227 H222 0.950 . S
C227 C228 1.478 . S
C228 C227 1.478 . S
C228 C229 1.397 1_455 S
C228 C245 1.394 1_556 S
C229 C228 1.397 1_655 S
C229 C230 1.438 1_545 S
C229 C234 1.429 . S
C230 C229 1.438 1_565 S
C230 C231 1.428 . S
C230 C243 1.394 1_556 S
C231 H223 0.949 . S
C231 C230 1.428 . S
C231 C232 1.345 . S
C232 H224 0.950 . S
C232 C231 1.345 . S
C232 C233 1.424 . S
C233 H225 0.951 1_565 S
C233 C232 1.424 . S
C233 C234 1.347 1_565 S
C234 H226 0.951 . S
C234 C229 1.429 . S
C234 C233 1.347 1_545 S
H235 C236 0.951 1_556 S
C236 H235 0.951 1_554 S
C236 C242 1.265 . S
H237 C242 0.950 . S
H238 C246 0.949 . S
H239 C247 0.950 . S
H240 C248 0.951 1_565 S
H241 C249 0.951 . S
C242 C236 1.265 . S
C242 H237 0.950 . S
C242 C243 1.478 . S
C243 C230 1.394 1_554 S
C243 C242 1.478 . S
C243 C244 1.397 1_655 S
C244 C243 1.397 1_455 S
C244 C245 1.438 1_565 S
C244 C249 1.429 . S
C245 C228 1.394 1_554 S
C245 C244 1.438 1_545 S
C245 C246 1.428 . S
C246 H238 0.949 . S
C246 C245 1.428 . S
C246 C247 1.345 . S
C247 H239 0.950 . S
C247 C246 1.345 . S
C247 C248 1.424 . S
C248 H240 0.951 1_545 S
C248 C247 1.424 . S
C248 C249 1.347 1_545 S
C249 H241 0.951 . S
C249 C244 1.429 . S
C249 C248 1.347 1_565 S
H250 C251 0.951 . S
C251 H250 0.951 . S
C251 C257 1.265 . S
H252 C257 0.950 . S
H253 C261 0.949 . S
H254 C262 0.950 1_565 S
H255 C263 0.951 . S
H256 C264 0.951 . S
C257 C251 1.265 . S
C257 H252 0.950 . S
C257 C258 1.478 . S
C258 C257 1.478 . S
C258 C259 1.397 . S
C258 C275 1.394 . S
C259 C258 1.397 . S
C259 C260 1.438 1_645 S
C259 C264 1.429 . S
C260 C259 1.438 1_465 S
C260 C261 1.428 . S
C260 C273 1.394 . S
C261 H253 0.949 . S
C261 C260 1.428 . S
C261 C262 1.345 1_465 S
C262 H254 0.950 1_545 S
C262 C261 1.345 1_645 S
C262 C263 1.424 . S
C263 H255 0.951 . S
C263 C262 1.424 . S
C263 C264 1.347 . S
C264 H256 0.951 . S
C264 C259 1.429 . S
C264 C263 1.347 . S
H265 C266 0.951 . S
C266 H265 0.951 . S
C266 C272 1.265 . S
H267 C272 0.950 . S
H268 C276 0.949 . S
H269 C277 0.950 1_545 S
H270 C278 0.951 . S
H271 C279 0.951 . S
C272 C266 1.265 . S
C272 H267 0.950 . S
C272 C273 1.478 . S
C273 C260 1.394 . S
C273 C272 1.478 . S
C273 C274 1.397 . S
C274 C273 1.397 . S
C274 C275 1.438 1_465 S
C274 C279 1.429 . S
C275 C258 1.394 . S
C275 C274 1.438 1_645 S
C275 C276 1.428 . S
C276 H268 0.949 . S
C276 C275 1.428 . S
C276 C277 1.345 1_645 S
C277 H269 0.950 1_565 S
C277 C276 1.345 1_465 S
C277 C278 1.424 . S
C278 H270 0.951 . S
C278 C277 1.424 . S
C278 C279 1.347 . S
C279 H271 0.951 . S
C279 C274 1.429 . S
C279 C278 1.347 . S
H280 C281 0.951 . S
C281 H280 0.951 . S
C281 C287 1.265 . S
H282 C287 0.950 . S
H283 C291 0.949 . S
H284 C292 0.950 . S
H285 C293 0.951 . S
H286 C294 0.951 . S
C287 C281 1.265 . S
C287 H282 0.950 . S
C287 C288 1.478 . S
C288 C287 1.478 . S
C288 C289 1.397 . S
C288 C305 1.394 . S
C289 C288 1.397 . S
C289 C290 1.438 . S
C289 C294 1.429 . S
C290 C289 1.438 . S
C290 C291 1.428 . S
C290 C303 1.394 . S
C291 H283 0.949 . S
C291 C290 1.428 . S
C291 C292 1.345 . S
C292 H284 0.950 . S
C292 C291 1.345 . S
C292 C293 1.424 . S
C293 H285 0.951 . S
C293 C292 1.424 . S
C293 C294 1.347 . S
C294 H286 0.951 . S
C294 C289 1.429 . S
C294 C293 1.347 . S
H295 C296 0.951 . S
C296 H295 0.951 . S
C296 C302 1.265 . S
H297 C302 0.950 . S
H298 C306 0.949 . S
H299 C307 0.950 . S
H300 C308 0.951 . S
H301 C309 0.951 . S
C302 C296 1.265 . S
C302 H297 0.950 . S
C302 C303 1.478 . S
C303 C290 1.394 . S
C303 C302 1.478 . S
C303 C304 1.397 . S
C304 C303 1.397 . S
C304 C305 1.438 . S
C304 C309 1.429 . S
C305 C288 1.394 . S
C305 C304 1.438 . S
C305 C306 1.428 . S
C306 H298 0.949 . S
C306 C305 1.428 . S
C306 C307 1.345 . S
C307 H299 0.950 . S
C307 C306 1.345 . S
C307 C308 1.424 . S
C308 H300 0.951 . S
C308 C307 1.424 . S
C308 C309 1.347 . S
C309 H301 0.951 . S
C309 C304 1.429 . S
C309 C308 1.347 . S
H310 C311 0.951 . S
C311 H310 0.951 . S
C311 C317 1.265 . S
H312 C317 0.950 . S
H313 C321 0.949 . S
H314 C322 0.950 . S
H315 C323 0.951 . S
H316 C324 0.951 . S
C317 C311 1.265 . S
C317 H312 0.950 . S
C317 C318 1.478 . S
C318 C317 1.478 . S
C318 C319 1.397 . S
C318 C335 1.394 . S
C319 C318 1.397 . S
C319 C320 1.438 . S
C319 C324 1.429 . S
C320 C319 1.438 . S
C320 C321 1.428 . S
C320 C333 1.394 . S
C321 H313 0.949 . S
C321 C320 1.428 . S
C321 C322 1.345 . S
C322 H314 0.950 . S
C322 C321 1.345 . S
C322 C323 1.424 . S
C323 H315 0.951 . S
C323 C322 1.424 . S
C323 C324 1.347 . S
C324 H316 0.951 . S
C324 C319 1.429 . S
C324 C323 1.347 . S
H325 C326 0.951 . S
C326 H325 0.951 . S
C326 C332 1.265 . S
H327 C332 0.950 . S
H328 C336 0.949 . S
H329 C337 0.950 . S
H330 C338 0.946 1_545 S
H331 C339 0.951 . S
C332 C326 1.265 . S
C332 H327 0.950 . S
C332 C333 1.478 . S
C333 C320 1.394 . S
C333 C332 1.478 . S
C333 C334 1.397 . S
C334 C333 1.397 . S
C334 C335 1.438 . S
C334 C339 1.429 . S
C335 C318 1.394 . S
C335 C334 1.438 . S
C335 C336 1.428 . S
C336 H328 0.949 . S
C336 C335 1.428 . S
C336 C337 1.345 . S
C337 H329 0.950 . S
C337 C336 1.345 . S
C337 C338 1.424 . S
C338 H330 0.946 1_565 S
C338 C337 1.424 . S
C338 C339 1.347 . S
C339 H331 0.951 . S
C339 C334 1.429 . S
C339 C338 1.347 . S
H340 C341 0.951 . S
C341 H340 0.951 . S
C341 C347 1.265 . S
H342 C347 0.950 . S
H343 C351 0.949 . S
H344 C352 0.950 . S
H345 C353 0.951 . S
H346 C354 0.951 . S
C347 C341 1.265 . S
C347 H342 0.950 . S
C347 C348 1.478 . S
C348 C347 1.478 . S
C348 C349 1.397 . S
C348 C365 1.394 . S
C349 C348 1.397 . S
C349 C350 1.438 . S
C349 C354 1.429 . S
C350 C349 1.438 . S
C350 C351 1.428 . S
C350 C363 1.394 . S
C351 H343 0.949 . S
C351 C350 1.428 . S
C351 C352 1.345 . S
C352 H344 0.950 . S
C352 C351 1.345 . S
C352 C353 1.424 . S
C353 H345 0.951 . S
C353 C352 1.424 . S
C353 C354 1.347 . S
C354 H346 0.951 . S
C354 C349 1.429 . S
C354 C353 1.347 . S
H355 C356 0.951 . S
C356 H355 0.951 . S
C356 C362 1.265 . S
H357 C362 0.950 . S
H358 C366 0.949 . S
H359 C367 0.950 . S
H360 C368 0.951 . S
H361 C369 0.951 . S
C362 C356 1.265 . S
C362 H357 0.950 . S
C362 C363 1.478 . S
C363 C350 1.394 . S
C363 C362 1.478 . S
C363 C364 1.397 . S
C364 C363 1.397 . S
C364 C365 1.438 . S
C364 C369 1.429 . S
C365 C348 1.394 . S
C365 C364 1.438 . S
C365 C366 1.428 . S
C366 H358 0.949 . S
C366 C365 1.428 . S
C366 C367 1.345 . S
C367 H359 0.950 . S
C367 C366 1.345 . S
C367 C368 1.424 . S
C368 H360 0.951 . S
C368 C367 1.424 . S
C368 C369 1.347 . S
C369 H361 0.951 . S
C369 C364 1.429 . S
C369 C368 1.347 . S
H370 C371 0.951 . S
C371 H370 0.951 . S
C371 C377 1.265 . S
H372 C377 0.950 . S
H373 C381 0.949 . S
H374 C382 0.950 . S
H375 C383 0.951 1_565 S
H376 C384 0.951 . S
C377 C371 1.265 . S
C377 H372 0.950 . S
C377 C378 1.478 . S
C378 C377 1.478 . S
C378 C379 1.397 . S
C378 C395 1.394 . S
C379 C378 1.397 . S
C379 C380 1.438 . S
C379 C384 1.429 . S
C380 C379 1.438 . S
C380 C381 1.428 . S
C380 C393 1.394 . S
C381 H373 0.949 . S
C381 C380 1.428 . S
C381 C382 1.345 . S
C382 H374 0.950 . S
C382 C381 1.345 . S
C382 C383 1.424 . S
C383 H375 0.951 1_545 S
C383 C382 1.424 . S
C383 C384 1.347 . S
C384 H376 0.951 . S
C384 C379 1.429 . S
C384 C383 1.347 . S
H385 C386 0.951 . S
C386 H385 0.951 . S
C386 C392 1.265 . S
H387 C392 0.950 . S
H388 C396 0.949 . S
H389 C397 0.950 . S
H390 C398 0.951 . S
H391 C399 0.951 . S
C392 C386 1.265 . S
C392 H387 0.950 . S
C392 C393 1.478 . S
C393 C380 1.394 . S
C393 C392 1.478 . S
C393 C394 1.397 . S
C394 C393 1.397 . S
C394 C395 1.438 . S
C394 C399 1.429 . S
C395 C378 1.394 . S
C395 C394 1.438 . S
C395 C396 1.428 . S
C396 H388 0.949 . S
C396 C395 1.428 . S
C396 C397 1.345 . S
C397 H389 0.950 . S
C397 C396 1.345 . S
C397 C398 1.424 . S
C398 H390 0.951 . S
C398 C397 1.424 . S
C398 C399 1.347 . S
C399 H391 0.951 . S
C399 C394 1.429 . S
C399 C398 1.347 . S
H400 C401 0.951 . S
C401 H400 0.951 . S
C401 C407 1.265 . S
H402 C407 0.950 1_455 S
H403 C411 0.949 . S
H404 C412 0.950 . S
H405 C413 0.951 . S
H406 C414 0.951 . S
C407 C401 1.265 . S
C407 H402 0.950 1_655 S
C407 C408 1.478 . S
C408 C407 1.478 . S
C408 C409 1.397 1_655 S
C408 C425 1.394 . S
C409 C408 1.397 1_455 S
C409 C410 1.438 . S
C409 C414 1.429 . S
C410 C409 1.438 . S
C410 C411 1.428 . S
C410 C423 1.394 . S
C411 H403 0.949 . S
C411 C410 1.428 . S
C411 C412 1.345 . S
C412 H404 0.950 . S
C412 C411 1.345 . S
C412 C413 1.424 . S
C413 H405 0.951 . S
C413 C412 1.424 . S
C413 C414 1.347 . S
C414 H406 0.951 . S
C414 C409 1.429 . S
C414 C413 1.347 . S
H415 C416 0.951 . S
C416 H415 0.951 . S
C416 C422 1.265 . S
H417 C422 0.950 1_655 S
H418 C426 0.949 . S
H419 C427 0.950 . S
H420 C428 0.951 . S
H421 C429 0.951 . S
C422 C416 1.265 . S
C422 H417 0.950 1_455 S
C422 C423 1.478 . S
C423 C410 1.394 . S
C423 C422 1.478 . S
C423 C424 1.397 1_455 S
C424 C423 1.397 1_655 S
C424 C425 1.438 . S
C424 C429 1.429 . S
C425 C408 1.394 . S
C425 C424 1.438 . S
C425 C426 1.428 . S
C426 H418 0.949 . S
C426 C425 1.428 . S
C426 C427 1.345 . S
C427 H419 0.950 . S
C427 C426 1.345 . S
C427 C428 1.424 . S
C428 H420 0.951 . S
C428 C427 1.424 . S
C428 C429 1.347 . S
C429 H421 0.951 . S
C429 C424 1.429 . S
C429 C428 1.347 . S
H430 C431 0.951 . S
C431 H430 0.951 . S
C431 C437 1.265 1_655 S
H432 C437 0.950 . S
H433 C441 0.949 . S
H434 C442 0.950 . S
H435 C443 0.951 . S
H436 C444 0.951 . S
C437 C431 1.265 1_455 S
C437 H432 0.950 . S
C437 C438 1.478 . S
C438 C437 1.478 . S
C438 C439 1.397 . S
C438 C455 1.394 1_455 S
C439 C438 1.397 . S
C439 C440 1.438 . S
C439 C444 1.429 . S
C440 C439 1.438 . S
C440 C441 1.428 . S
C440 C453 1.394 1_455 S
C441 H433 0.949 . S
C441 C440 1.428 . S
C441 C442 1.345 . S
C442 H434 0.950 . S
C442 C441 1.345 . S
C442 C443 1.424 . S
C443 H435 0.951 . S
C443 C442 1.424 . S
C443 C444 1.347 . S
C444 H436 0.951 . S
C444 C439 1.429 . S
C444 C443 1.347 . S
H445 C446 0.951 . S
C446 H445 0.951 . S
C446 C452 1.265 1_455 S
H447 C452 0.950 . S
H448 C456 0.949 . S
H449 C457 0.950 . S
H450 C458 0.951 . S
H451 C459 0.951 . S
C452 C446 1.265 1_655 S
C452 H447 0.950 . S
C452 C453 1.478 . S
C453 C440 1.394 1_655 S
C453 C452 1.478 . S
C453 C454 1.397 . S
C454 C453 1.397 . S
C454 C455 1.438 . S
C454 C459 1.429 . S
C455 C438 1.394 1_655 S
C455 C454 1.438 . S
C455 C456 1.428 . S
C456 H448 0.949 . S
C456 C455 1.428 . S
C456 C457 1.345 . S
C457 H449 0.950 . S
C457 C456 1.345 . S
C457 C458 1.424 . S
C458 H450 0.951 . S
C458 C457 1.424 . S
C458 C459 1.347 . S
C459 H451 0.951 . S
C459 C454 1.429 . S
C459 C458 1.347 . S
H460 C461 0.951 . S
C461 H460 0.951 . S
C461 C467 1.265 . S
H462 C467 0.950 . S
H463 C471 0.949 . S
H464 C472 0.950 . S
H465 C473 0.951 . S
H466 C474 0.951 . S
C467 C461 1.265 . S
C467 H462 0.950 . S
C467 C468 1.478 . S
C468 C467 1.478 . S
C468 C469 1.397 . S
C468 C485 1.394 . S
C469 C468 1.397 . S
C469 C470 1.438 1_655 S
C469 C474 1.429 . S
C470 C469 1.438 1_455 S
C470 C471 1.428 . S
C470 C483 1.394 . S
C471 H463 0.949 . S
C471 C470 1.428 . S
C471 C472 1.345 1_455 S
C472 H464 0.950 . S
C472 C471 1.345 1_655 S
C472 C473 1.424 . S
C473 H465 0.951 . S
C473 C472 1.424 . S
C473 C474 1.347 . S
C474 H466 0.951 . S
C474 C469 1.429 . S
C474 C473 1.347 . S
H475 C476 0.951 . S
C476 H475 0.951 . S
C476 C482 1.265 . S
H477 C482 0.950 . S
H478 C486 0.949 . S
H479 C487 0.950 . S
H480 C488 0.951 . S
H481 C489 0.951 . S
C482 C476 1.265 . S
C482 H477 0.950 . S
C482 C483 1.478 . S
C483 C470 1.394 . S
C483 C482 1.478 . S
C483 C484 1.397 . S
C484 C483 1.397 . S
C484 C485 1.438 1_455 S
C484 C489 1.429 . S
C485 C468 1.394 . S
C485 C484 1.438 1_655 S
C485 C486 1.428 . S
C486 H478 0.949 . S
C486 C485 1.428 . S
C486 C487 1.345 1_655 S
C487 H479 0.950 . S
C487 C486 1.345 1_455 S
C487 C488 1.424 . S
C488 H480 0.951 . S
C488 C487 1.424 . S
C488 C489 1.347 . S
C489 H481 0.951 . S
C489 C484 1.429 . S
C489 C488 1.347 . S
H490 C491 0.951 1_655 S
C491 H490 0.951 1_455 S
C491 C497 1.265 . S
H492 C497 0.950 . S
H493 C501 0.949 . S
H494 C502 0.950 . S
H495 C503 0.951 . S
H496 C504 0.951 . S
C497 C491 1.265 . S
C497 H492 0.950 . S
C497 C498 1.478 . S
C498 C497 1.478 . S
C498 C499 1.397 . S
C498 C515 1.394 1_455 S
C499 C498 1.397 . S
C499 C500 1.438 . S
C499 C504 1.429 . S
C500 C499 1.438 . S
C500 C501 1.428 . S
C500 C513 1.394 1_455 S
C501 H493 0.949 . S
C501 C500 1.428 . S
C501 C502 1.345 . S
C502 H494 0.950 . S
C502 C501 1.345 . S
C502 C503 1.424 . S
C503 H495 0.951 . S
C503 C502 1.424 . S
C503 C504 1.347 . S
C504 H496 0.951 . S
C504 C499 1.429 . S
C504 C503 1.347 . S
H505 C506 0.951 1_455 S
C506 H505 0.951 1_655 S
C506 C512 1.265 . S
H507 C512 0.950 . S
H508 C516 0.949 . S
H509 C517 0.950 . S
H510 C518 0.951 . S
H511 C519 0.951 . S
C512 C506 1.265 . S
C512 H507 0.950 . S
C512 C513 1.478 . S
C513 C500 1.394 1_655 S
C513 C512 1.478 . S
C513 C514 1.397 . S
C514 C513 1.397 . S
C514 C515 1.438 . S
C514 C519 1.429 . S
C515 C498 1.394 1_655 S
C515 C514 1.438 . S
C515 C516 1.428 . S
C516 H508 0.949 . S
C516 C515 1.428 . S
C516 C517 1.345 . S
C517 H509 0.950 . S
C517 C516 1.345 . S
C517 C518 1.424 . S
C518 H510 0.951 . S
C518 C517 1.424 . S
C518 C519 1.347 . S
C519 H511 0.951 . S
C519 C514 1.429 . S
C519 C518 1.347 . S
C161 C58 1.546 . S
C176 C9 1.546 . S
C191 C98 1.556 . S
C206 C129 1.556 . S
C221 C18 1.545 . S
C236 C49 1.545 . S
C251 C138 1.588 . S
C266 C89 1.588 . S
C281 C130 1.661 . S
C296 C10 1.659 . S
C311 C46 0.947 . S
C326 C86 0.939 . S
C341 C59 1.665 . S
C356 C99 1.669 . S
C371 C135 0.932 . S
C386 C15 0.972 . S
C401 C50 1.669 . S
C416 C90 1.660 . S
C431 C126 0.946 . S
C446 C6 0.940 . S
C461 C139 1.665 . S
C476 C19 1.660 . S
C491 C95 1.003 . S
C506 C55 1.001 . S
