# Generated by pormake.
# Topology umw, (4)-cn, num edge types: 1
# Building blocks:
#     Node 0, Type 0, BuildingBlock: AZAVOO_clean_sbu_0, # of connection points: 4
#     Node 1, Type 0, BuildingBlock: AZAVOO_clean_sbu_0, # of connection points: 4
#     Node 2, Type 0, BuildingBlock: AZAVOO_clean_sbu_0, # of connection points: 4
#     Node 3, Type 0, BuildingBlock: AZAVOO_clean_sbu_0, # of connection points: 4
#     Node 4, Type 0, BuildingBlock: AZAVOO_clean_sbu_0, # of connection points: 4
#     Node 5, Type 0, BuildingBlock: AZAVOO_clean_sbu_0, # of connection points: 4
#     Node 6, Type 0, BuildingBlock: AZAVOO_clean_sbu_0, # of connection points: 4
#     Node 7, Type 0, BuildingBlock: AZAVOO_clean_sbu_0, # of connection points: 4
#     Edge 8, Type (0, 0), BuildingBlock: TEMPAE_clean_linker_10, # of connection points: 2
#     Edge 9, Type (0, 0), BuildingBlock: TEMPAE_clean_linker_10, # of connection points: 2
#     Edge 10, Type (0, 0), BuildingBlock: TEMPAE_clean_linker_10, # of connection points: 2
#     Edge 11, Type (0, 0), BuildingBlock: TEMPAE_clean_linker_10, # of connection points: 2
#     Edge 12, Type (0, 0), BuildingBlock: TEMPAE_clean_linker_10, # of connection points: 2
#     Edge 13, Type (0, 0), BuildingBlock: TEMPAE_clean_linker_10, # of connection points: 2
#     Edge 14, Type (0, 0), BuildingBlock: TEMPAE_clean_linker_10, # of connection points: 2
#     Edge 15, Type (0, 0), BuildingBlock: TEMPAE_clean_linker_10, # of connection points: 2
#     Edge 16, Type (0, 0), BuildingBlock: TEMPAE_clean_linker_10, # of connection points: 2
#     Edge 17, Type (0, 0), BuildingBlock: TEMPAE_clean_linker_10, # of connection points: 2
#     Edge 18, Type (0, 0), BuildingBlock: TEMPAE_clean_linker_10, # of connection points: 2
#     Edge 19, Type (0, 0), BuildingBlock: TEMPAE_clean_linker_10, # of connection points: 2
#     Edge 20, Type (0, 0), BuildingBlock: TEMPAE_clean_linker_10, # of connection points: 2
#     Edge 21, Type (0, 0), BuildingBlock: TEMPAE_clean_linker_10, # of connection points: 2
#     Edge 22, Type (0, 0), BuildingBlock: TEMPAE_clean_linker_10, # of connection points: 2
#     Edge 23, Type (0, 0), BuildingBlock: TEMPAE_clean_linker_10, # of connection points: 2
# Relax obj value: 0.147
# Max RMSD: 0.120
# Mean RMSD: 0.120
data_MOF--net-umw--node1-AZAVOO_clean_sbu_0--edge1-TEMPAE_clean_linker_10
_symmetry_space_group_name_H-M    P1
_symmetry_Int_Tables_number       1
_symmetry_cell_setting            triclinic
loop_
_symmetry_equiv_pos_as_xyz
'x, y, z'
_cell_length_a     44.319859
_cell_length_b     44.364296
_cell_length_c     23.718944
_cell_angle_alpha  90.001193
_cell_angle_beta   89.903447
_cell_angle_gamma 90.081109
loop_
_atom_site_label
_atom_site_type_symbol
_atom_site_fract_x
_atom_site_fract_y
_atom_site_fract_z
_atom_type_partial_charge
Mg0 Mg 0.38702 0.17502 0.23011 0.0
O1 O 0.42063 0.16362 0.30089 0.0
O2 O 0.45019 0.1261 0.27123 0.0
Mg3 Mg 0.43683 0.11472 0.1812 0.0
C4 C 0.44214 0.14495 0.30894 0.0
C5 C 0.34692 0.22702 0.2648 0.0
O6 O 0.33191 0.21417 0.22351 0.0
O7 O 0.42361 0.20095 0.18296 0.0
O8 O 0.45188 0.16205 0.15497 0.0
O9 O 0.35569 0.13926 0.26127 0.0
O10 O 0.39113 0.13162 0.19737 0.0
C11 C 0.44659 0.19033 0.1574 0.0
C12 C 0.37029 0.12067 0.22924 0.0
O13 O 0.37265 0.21666 0.2778 0.0
Mg14 Mg 0.83404 0.37667 0.48367 0.0
O15 O 0.84398 0.41219 0.55165 0.0
O16 O 0.88258 0.44085 0.52343 0.0
Mg17 Mg 0.89631 0.42467 0.43597 0.0
C18 C 0.86252 0.43382 0.55977 0.0
C19 C 0.7918 0.35673 0.5797 0.0
O20 O 0.81819 0.35588 0.60481 0.0
O21 O 0.81014 0.41206 0.43049 0.0
O22 O 0.85005 0.43918 0.40319 0.0
O23 O 0.86868 0.34609 0.52134 0.0
O24 O 0.87842 0.37955 0.4549 0.0
C25 C 0.82167 0.43409 0.4034 0.0
C26 C 0.8883 0.35972 0.48985 0.0
O27 O 0.79043 0.36495 0.5285 0.0
Mg28 Mg 0.60561 0.82824 0.74504 0.0
O29 O 0.57182 0.8384 0.81667 0.0
O30 O 0.54099 0.87486 0.78697 0.0
Mg31 Mg 0.55333 0.88658 0.69663 0.0
C32 C 0.54971 0.85639 0.82477 0.0
C33 C 0.65061 0.78553 0.79724 0.0
O34 O 0.66724 0.8073 0.77599 0.0
O35 O 0.56975 0.80083 0.69876 0.0
O36 O 0.53981 0.83866 0.67177 0.0
O37 O 0.63561 0.86556 0.77506 0.0
O38 O 0.59957 0.87133 0.71201 0.0
C39 C 0.54612 0.8106 0.67421 0.0
C40 C 0.62017 0.88331 0.7429 0.0
O41 O 0.62216 0.78688 0.79164 0.0
Mg42 Mg 0.16859 0.60482 0.02547 0.0
O43 O 0.15768 0.57127 0.0967 0.0
O44 O 0.12246 0.53923 0.06599 0.0
Mg45 Mg 0.11196 0.55109 0.97485 0.0
C46 C 0.14014 0.54876 0.10448 0.0
C47 C 0.205 0.63422 0.12184 0.0
O48 O 0.17743 0.63662 0.14176 0.0
O49 O 0.19723 0.56941 0.98082 0.0
O50 O 0.16047 0.53854 0.95186 0.0
O51 O 0.13011 0.6343 0.05246 0.0
O52 O 0.12627 0.59777 0.98981 0.0
C53 C 0.18836 0.54559 0.95567 0.0
C54 C 0.11331 0.61833 0.01932 0.0
O55 O 0.20912 0.62144 0.07456 0.0
Mg56 Mg 0.38357 0.84102 0.28188 0.0
O57 O 0.41656 0.84788 0.20761 0.0
O58 O 0.44872 0.88436 0.23243 0.0
Mg59 Mg 0.43706 0.9004 0.32082 0.0
C60 C 0.43921 0.86487 0.19707 0.0
C61 C 0.3609 0.77474 0.27263 0.0
O62 O 0.36853 0.77509 0.32613 0.0
O63 O 0.41996 0.81545 0.32985 0.0
O64 O 0.4501 0.85372 0.3537 0.0
O65 O 0.35332 0.87707 0.24833 0.0
O66 O 0.39051 0.8852 0.30817 0.0
C67 C 0.44343 0.82569 0.35433 0.0
C68 C 0.36947 0.89601 0.27684 0.0
O69 O 0.36559 0.79805 0.24272 0.0
Mg70 Mg 0.16529 0.38452 0.55955 0.0
O71 O 0.15511 0.41758 0.48734 0.0
O72 O 0.1168 0.44701 0.51382 0.0
Mg73 Mg 0.10315 0.43347 0.60285 0.0
C74 C 0.13654 0.43896 0.47764 0.0
C75 C 0.21961 0.34579 0.52956 0.0
O76 O 0.20642 0.33013 0.56968 0.0
O77 O 0.18929 0.4217 0.60807 0.0
O78 O 0.14945 0.44915 0.63411 0.0
O79 O 0.13106 0.35228 0.52612 0.0
O80 O 0.12092 0.38789 0.5883 0.0
C81 C 0.17787 0.44426 0.63364 0.0
C82 C 0.11129 0.3666 0.55608 0.0
O83 O 0.20852 0.37108 0.51581 0.0
Mg84 Mg 0.60663 0.1645 0.76575 0.0
O85 O 0.57415 0.1557 0.69178 0.0
O86 O 0.54136 0.12027 0.71898 0.0
Mg87 Mg 0.55204 0.10698 0.80933 0.0
C88 C 0.55147 0.13865 0.6821 0.0
C89 C 0.62802 0.23129 0.74456 0.0
O90 O 0.61782 0.23516 0.79609 0.0
O91 O 0.57031 0.19198 0.81031 0.0
O92 O 0.53933 0.15479 0.83669 0.0
O93 O 0.6366 0.12709 0.7369 0.0
O94 O 0.59894 0.12132 0.79693 0.0
C95 C 0.5464 0.18272 0.83482 0.0
C96 C 0.62008 0.1093 0.7673 0.0
O97 O 0.62536 0.20565 0.72122 0.0
Mg98 Mg 0.83185 0.59818 0.01567 0.0
O99 O 0.84273 0.56665 0.94109 0.0
O100 O 0.87865 0.53475 0.96916 0.0
Mg101 Mg 0.88979 0.54469 0.06073 0.0
C102 C 0.86064 0.54465 0.93157 0.0
C103 C 0.77101 0.62941 -0.00072 0.0
O104 O 0.77457 0.63091 0.0542 0.0
O105 O 0.80415 0.56106 0.05759 0.0
O106 O 0.84167 0.53054 0.08383 0.0
O107 O 0.86931 0.62929 0.99032 0.0
O108 O 0.87457 0.59127 0.04941 0.0
C109 C 0.81362 0.53696 0.0809 0.0
C110 C 0.88678 0.61297 0.02155 0.0
O111 O 0.7908 0.61588 0.96998 0.0
C112 C 0.45023 0.16518 0.40667 0.0
C113 C 0.45853 0.1452 0.36346 0.0
C114 C 0.46557 0.16536 0.45844 0.0
C115 C 0.48978 0.14511 0.46717 0.0
C116 C 0.49845 0.12511 0.42364 0.0
C117 C 0.48273 0.12538 0.3724 0.0
C118 C 0.45565 0.18696 0.50402 0.0
C119 C 0.52415 0.10317 0.4314 0.0
C120 C 0.54614 0.16012 0.5846 0.0
C121 C 0.53586 0.14048 0.62689 0.0
C122 C 0.53122 0.16208 0.53251 0.0
C123 C 0.50542 0.14401 0.52254 0.0
C124 C 0.49486 0.12426 0.56504 0.0
C125 C 0.5102 0.12271 0.61659 0.0
C126 C 0.54316 0.18334 0.48802 0.0
C127 C 0.46742 0.10462 0.55598 0.0
H128 H 0.43162 0.18062 0.40024 0.0
H129 H 0.48944 0.10989 0.33936 0.0
H130 H 0.44801 0.17415 0.54162 0.0
H131 H 0.47493 0.20123 0.51738 0.0
H132 H 0.43698 0.20185 0.49 0.0
H133 H 0.52865 0.08972 0.39279 0.0
H134 H 0.54505 0.11548 0.44298 0.0
H135 H 0.51889 0.08746 0.46648 0.0
H136 H 0.56589 0.17398 0.59208 0.0
H137 H 0.50196 0.1075 0.6489 0.0
H138 H 0.52533 0.19955 0.4756 0.0
H139 H 0.5495 0.17048 0.44969 0.0
H140 H 0.56318 0.19621 0.50271 0.0
H141 H 0.44763 0.1188 0.54534 0.0
H142 H 0.4618 0.09086 0.5937 0.0
H143 H 0.47132 0.08921 0.51986 0.0
C144 C 0.84008 0.44325 0.65533 0.0
C145 C 0.86083 0.45124 0.61308 0.0
C146 C 0.8388 0.45917 0.70643 0.0
C147 C 0.85869 0.48368 0.71548 0.0
C148 C 0.87932 0.49219 0.67273 0.0
C149 C 0.88016 0.47586 0.62212 0.0
C150 C 0.81656 0.44938 0.75115 0.0
C151 C 0.90088 0.51822 0.68085 0.0
C152 C 0.84125 0.53968 0.83246 0.0
C153 C 0.86022 0.52949 0.87579 0.0
C154 C 0.84046 0.52499 0.77999 0.0
C155 C 0.85901 0.49951 0.77072 0.0
C156 C 0.8782 0.48915 0.81416 0.0
C157 C 0.87861 0.50426 0.86603 0.0
C158 C 0.8198 0.53672 0.73448 0.0
C159 C 0.89831 0.46202 0.80591 0.0
H160 H 0.825 0.42432 0.64881 0.0
H161 H 0.8962 0.48234 0.58975 0.0
H162 H 0.82889 0.44188 0.78932 0.0
H163 H 0.80212 0.46865 0.76376 0.0
H164 H 0.80182 0.43066 0.73665 0.0
H165 H 0.91458 0.52282 0.64253 0.0
H166 H 0.88823 0.53894 0.69207 0.0
H167 H 0.91641 0.51327 0.7163 0.0
H168 H 0.82695 0.55913 0.8395 0.0
H169 H 0.89332 0.4961 0.89911 0.0
H170 H 0.80369 0.51884 0.72164 0.0
H171 H 0.83316 0.54288 0.69659 0.0
H172 H 0.80678 0.55678 0.74838 0.0
H173 H 0.88445 0.442 0.79504 0.0
H174 H 0.91179 0.45673 0.84409 0.0
H175 H 0.91401 0.46602 0.77021 0.0
C176 C 0.48103 0.87961 0.13158 0.0
C177 C 0.45541 0.86186 0.14252 0.0
C178 C 0.49667 0.87735 0.08037 0.0
C179 C 0.48649 0.85687 0.03883 0.0
C180 C 0.46086 0.83865 0.04961 0.0
C181 C 0.44562 0.84134 0.10136 0.0
C182 C 0.5239 0.8972 0.07045 0.0
C183 C 0.44933 0.81661 0.00616 0.0
C184 C 0.5086 0.87507 0.88816 0.0
C185 C 0.53331 0.85583 0.87939 0.0
C186 C 0.49286 0.87518 0.93945 0.0
C187 C 0.502 0.8556 0.98325 0.0
C188 C 0.52667 0.83587 0.97466 0.0
C189 C 0.54205 0.83621 0.92281 0.0
C190 C 0.46668 0.8966 0.94702 0.0
C191 C 0.53707 0.81473 0.02054 0.0
H192 H 0.48892 0.89548 0.16304 0.0
H193 H 0.42592 0.82747 0.10937 0.0
H194 H 0.5438 0.88319 0.05966 0.0
H195 H 0.51968 0.91239 0.03415 0.0
H196 H 0.52951 0.91122 0.10781 0.0
H197 H 0.42978 0.8033 0.02181 0.0
H198 H 0.44237 0.82893 0.96762 0.0
H199 H 0.46756 0.80083 0.99373 0.0
H200 H 0.50153 0.89027 0.85497 0.0
H201 H 0.56104 0.82121 0.91648 0.0
H202 H 0.4717 0.91272 0.98152 0.0
H203 H 0.4461 0.88393 0.95935 0.0
H204 H 0.46175 0.90961 0.90811 0.0
H205 H 0.5447 0.82791 0.05764 0.0
H206 H 0.55589 0.8 0.00646 0.0
H207 H 0.51805 0.80029 0.03467 0.0
C208 C 0.11809 0.47908 0.41191 0.0
C209 C 0.13801 0.45522 0.42299 0.0
C210 C 0.11908 0.49473 0.36059 0.0
C211 C 0.14049 0.48636 0.31917 0.0
C212 C 0.16079 0.46245 0.33003 0.0
C213 C 0.15932 0.44716 0.38182 0.0
C214 C 0.09704 0.5201 0.35052 0.0
C215 C 0.18388 0.45285 0.28675 0.0
C216 C 0.12268 0.50698 0.16764 0.0
C217 C 0.14048 0.53284 0.15951 0.0
C218 C 0.12275 0.4915 0.21916 0.0
C219 C 0.14099 0.50213 0.26385 0.0
C220 C 0.15909 0.52812 0.25605 0.0
C221 C 0.15865 0.54317 0.20395 0.0
C222 C 0.10315 0.46384 0.22587 0.0
C223 C 0.17876 0.54015 0.30287 0.0
H224 H 0.10156 0.48557 0.44336 0.0
H225 H 0.17485 0.42882 0.3899 0.0
H226 H 0.10942 0.54119 0.34049 0.0
H227 H 0.08259 0.51475 0.31368 0.0
H228 H 0.08225 0.52428 0.38756 0.0
H229 H 0.19846 0.43427 0.30218 0.0
H230 H 0.17233 0.44527 0.24777 0.0
H231 H 0.19842 0.47227 0.27512 0.0
H232 H 0.10862 0.49871 0.13364 0.0
H233 H 0.17249 0.5631 0.19818 0.0
H234 H 0.08652 0.46746 0.26022 0.0
H235 H 0.11719 0.4442 0.23797 0.0
H236 H 0.09071 0.45818 0.18664 0.0
H237 H 0.16459 0.54626 0.33974 0.0
H238 H 0.19188 0.56032 0.28973 0.0
H239 H 0.19473 0.52247 0.31699 0.0
C240 C 0.34812 0.2637 0.34498 0.0
C241 C 0.33236 0.25019 0.30032 0.0
C242 C 0.33333 0.28281 0.38319 0.0
C243 C 0.30207 0.28818 0.37678 0.0
C244 C 0.28644 0.27583 0.33017 0.0
C245 C 0.30183 0.25712 0.29232 0.0
C246 C 0.35082 0.29608 0.43181 0.0
C247 C 0.25304 0.28101 0.32196 0.0
C248 C 0.25169 0.30195 0.50283 0.0
C249 C 0.2442 0.33239 0.49576 0.0
C250 C 0.27174 0.28763 0.46586 0.0
C251 C 0.28487 0.30428 0.42118 0.0
C252 C 0.27899 0.33549 0.41607 0.0
C253 C 0.25854 0.34918 0.4533 0.0
C254 C 0.27742 0.25425 0.47261 0.0
C255 C 0.29305 0.35407 0.3696 0.0
H256 H 0.37181 0.25865 0.35111 0.0
H257 H 0.28954 0.24691 0.25776 0.0
H258 H 0.34582 0.32045 0.43635 0.0
H259 H 0.34388 0.28489 0.47161 0.0
H260 H 0.37556 0.29316 0.42651 0.0
H261 H 0.24468 0.27135 0.28169 0.0
H262 H 0.24032 0.27052 0.35722 0.0
H263 H 0.24796 0.30548 0.32248 0.0
H264 H 0.24084 0.28887 0.53573 0.0
H265 H 0.25309 0.37282 0.44798 0.0
H266 H 0.30199 0.2496 0.47306 0.0
H267 H 0.26767 0.24194 0.43618 0.0
H268 H 0.26728 0.2451 0.51193 0.0
H269 H 0.3176 0.34947 0.36646 0.0
H270 H 0.28969 0.37863 0.3763 0.0
H271 H 0.28277 0.3478 0.32863 0.0
C272 C 0.76769 0.32671 0.65624 0.0
C273 C 0.76466 0.34495 0.60839 0.0
C274 C 0.74266 0.31194 0.67955 0.0
C275 C 0.71385 0.31602 0.655 0.0
C276 C 0.71031 0.3361 0.60917 0.0
C277 C 0.73586 0.35013 0.58596 0.0
C278 C 0.74741 0.29046 0.72815 0.0
C279 C 0.67981 0.34162 0.5829 0.0
C280 C 0.66324 0.24784 0.66865 0.0
C281 C 0.64651 0.25487 0.71712 0.0
C282 C 0.68435 0.26817 0.64663 0.0
C283 C 0.68845 0.29646 0.67312 0.0
C284 C 0.67019 0.30456 0.71971 0.0
C285 C 0.64955 0.28352 0.74153 0.0
C286 C 0.70352 0.2586 0.59702 0.0
C287 C 0.67343 0.33485 0.74806 0.0
H288 H 0.78988 0.32271 0.67387 0.0
H289 H 0.73336 0.36457 0.54941 0.0
H290 H 0.73146 0.29555 0.76292 0.0
H291 H 0.74282 0.26705 0.71402 0.0
H292 H 0.77078 0.29149 0.74493 0.0
H293 H 0.6801 0.36129 0.55392 0.0
H294 H 0.67282 0.32143 0.55857 0.0
H295 H 0.66251 0.34547 0.61597 0.0
H296 H 0.66093 0.22583 0.6493 0.0
H297 H 0.63645 0.28922 0.77864 0.0
H298 H 0.72745 0.25684 0.61032 0.0
H299 H 0.70243 0.27572 0.56303 0.0
H300 H 0.69637 0.23652 0.57942 0.0
H301 H 0.69491 0.33556 0.77196 0.0
H302 H 0.65459 0.33943 0.77779 0.0
H303 H 0.67431 0.35316 0.71622 0.0
C304 C 0.73017 0.66808 0.00207 0.0
C305 C 0.74704 0.64701 0.97127 0.0
C306 C 0.71093 0.68841 0.97472 0.0
C307 C 0.70834 0.6874 0.91529 0.0
C308 C 0.72354 0.6647 0.88445 0.0
C309 C 0.74284 0.64483 0.91282 0.0
C310 C 0.69511 0.71233 0.00905 0.0
C311 C 0.72097 0.66263 0.8211 0.0
C312 C 0.64816 0.73488 0.84393 0.0
C313 C 0.66498 0.76023 0.82746 0.0
C314 C 0.66193 0.71078 0.87237 0.0
C315 C 0.69309 0.71232 0.88495 0.0
C316 C 0.71008 0.73792 0.86865 0.0
C317 C 0.69585 0.76148 0.83992 0.0
C318 C 0.64323 0.68369 0.88875 0.0
C319 C 0.74336 0.7405 0.8817 0.0
H320 H 0.73313 0.66978 0.04731 0.0
H321 H 0.75552 0.62833 0.88883 0.0
H322 H 0.7057 0.73457 0.00062 0.0
H323 H 0.67104 0.71401 -0.0032 0.0
H324 H 0.69641 0.70778 0.05504 0.0
H325 H 0.73071 0.64134 0.80444 0.0
H326 H 0.69703 0.66411 0.80785 0.0
H327 H 0.73314 0.68184 0.80151 0.0
H328 H 0.62429 0.73376 0.83426 0.0
H329 H 0.70897 0.78103 0.82754 0.0
H330 H 0.64399 0.68041 0.93509 0.0
H331 H 0.65274 0.66307 0.86914 0.0
H332 H 0.61928 0.68594 0.87563 0.0
H333 H 0.74701 0.73881 0.92786 0.0
H334 H 0.75321 0.7621 0.86664 0.0
H335 H 0.75581 0.72166 0.86164 0.0
C336 C 0.22477 0.67173 0.19076 0.0
C337 C 0.23042 0.64934 0.15047 0.0
C338 C 0.24836 0.68911 0.21289 0.0
C339 C 0.27834 0.68356 0.195 0.0
C340 C 0.28439 0.65969 0.15709 0.0
C341 C 0.26028 0.64301 0.13481 0.0
C342 C 0.24098 0.71456 0.25291 0.0
C343 C 0.31614 0.65266 0.13813 0.0
C344 C 0.32878 0.75236 0.19722 0.0
C345 C 0.34313 0.74937 0.24956 0.0
C346 C 0.30846 0.73045 0.17806 0.0
C347 C 0.3027 0.70472 0.21167 0.0
C348 C 0.31847 0.70064 0.26292 0.0
C349 C 0.33839 0.72317 0.28151 0.0
C350 C 0.29196 0.73569 0.12323 0.0
C351 C 0.31337 0.67315 0.29922 0.0
H352 H 0.20175 0.67668 0.20309 0.0
H353 H 0.26478 0.62545 0.10415 0.0
H354 H 0.25497 0.71293 0.29149 0.0
H355 H 0.24631 0.73645 0.23252 0.0
H356 H 0.21681 0.71464 0.26545 0.0
H357 H 0.31745 0.63096 0.11488 0.0
H358 H 0.32442 0.67088 0.11003 0.0
H359 H 0.33158 0.65165 0.17487 0.0
H360 H 0.33239 0.77248 0.17216 0.0
H361 H 0.34962 0.72059 0.32177 0.0
H362 H 0.26748 0.73841 0.13171 0.0
H363 H 0.2946 0.71595 0.09498 0.0
H364 H 0.30018 0.75608 0.10073 0.0
H365 H 0.29049 0.67413 0.31819 0.0
H366 H 0.33016 0.67147 0.3338 0.0
H367 H 0.31449 0.65235 0.27334 0.0
C368 C 0.34441 0.94081 0.2328 0.0
C369 C 0.36554 0.92895 0.27074 0.0
C370 C 0.34151 0.97209 0.22542 0.0
C371 C 0.36047 0.99182 0.25618 0.0
C372 C 0.38128 0.97998 0.29549 0.0
C373 C 0.38331 0.94874 0.30271 0.0
C374 C 0.31868 0.984 0.18388 0.0
C375 C 0.40208 0.00027 0.32879 0.0
C376 C 0.38161 0.06827 0.1975 0.0
C377 C 0.36545 0.08774 0.23295 0.0
C378 C 0.37943 0.03695 0.20347 0.0
C379 C 0.36009 0.02475 0.24515 0.0
C380 C 0.34243 0.0442 0.27906 0.0
C381 C 0.34546 0.07554 0.2728 0.0
C382 C 0.39882 0.01696 0.16675 0.0
C383 C 0.32114 0.03194 0.32324 0.0
H384 H 0.33035 0.92567 0.20839 0.0
H385 H 0.39916 0.93987 0.33311 0.0
H386 H 0.30437 0.00144 0.20412 0.0
H387 H 0.3305 0.99491 0.14801 0.0
H388 H 0.30387 0.9659 0.16706 0.0
H389 H 0.41652 0.98749 0.35862 0.0
H390 H 0.41692 0.01303 0.29954 0.0
H391 H 0.38877 0.01699 0.35306 0.0
H392 H 0.39652 0.07746 0.16562 0.0
H393 H 0.33261 0.09045 0.29992 0.0
H394 H 0.38469 -9e-05 0.14502 0.0
H395 H 0.41521 0.00457 0.19341 0.0
H396 H 0.41156 0.02995 0.13449 0.0
H397 H 0.30653 0.01415 0.30492 0.0
H398 H 0.30659 0.04981 0.3416 0.0
H399 H 0.33429 0.02143 0.35778 0.0
C400 C 0.94162 0.37069 0.46307 0.0
C401 C 0.9211 0.35525 0.49767 0.0
C402 C 0.9727 0.3693 0.47301 0.0
C403 C 0.98366 0.3513 0.51771 0.0
C404 C 0.96325 0.33416 0.55073 0.0
C405 C 0.93211 0.33655 0.54063 0.0
C406 C 0.99369 0.38818 0.43717 0.0
C407 C 0.97423 0.31411 0.59781 0.0
C408 C 0.06821 0.33818 0.51296 0.0
C409 C 0.0786 0.36064 0.54982 0.0
C410 C 0.03719 0.3337 0.50428 0.0
C411 C 0.0162 0.35252 0.53227 0.0
C412 C 0.02654 0.37448 0.57095 0.0
C413 C 0.05757 0.37794 0.57985 0.0
C414 C 0.02692 0.30949 0.46388 0.0
C415 C 0.00489 0.39528 0.60113 0.0
H416 H 0.93343 0.38448 0.42874 0.0
H417 H 0.91641 0.32422 0.5671 0.0
H418 H 0.00528 0.4051 0.464 0.0
H419 H 0.01138 0.3738 0.41794 0.0
H420 H 0.98162 0.40024 0.40294 0.0
H421 H 0.95598 0.29947 0.61473 0.0
H422 H 0.99301 0.29964 0.58288 0.0
H423 H 0.98308 0.32817 0.63274 0.0
H424 H 0.08431 0.32437 0.49022 0.0
H425 H 0.06527 0.39474 0.60958 0.0
H426 H 0.01746 0.32006 0.42541 0.0
H427 H 0.00875 0.29569 0.48322 0.0
H428 H 0.0457 0.29437 0.45113 0.0
H429 H 0.99275 0.40936 0.56986 0.0
H430 H 0.01652 0.41044 0.6314 0.0
H431 H 0.98769 0.382 0.62438 0.0
C432 C 0.60754 0.9348 0.70805 0.0
C433 C 0.62413 0.9164 0.74469 0.0
C434 C 0.60939 0.96625 0.71124 0.0
C435 C 0.62876 0.97969 0.75138 0.0
C436 C 0.64661 0.9613 0.78688 0.0
C437 C 0.64397 0.9298 0.78331 0.0
C438 C 0.58982 0.9851 0.67288 0.0
C439 C 0.66786 0.9749 0.82959 0.0
C440 C 0.64488 0.06291 0.72878 0.0
C441 C 0.62379 0.07619 0.76524 0.0
C442 C 0.6476 0.03143 0.72525 0.0
C443 C 0.62858 0.01293 0.75854 0.0
C444 C 0.60782 0.02624 0.79641 0.0
C445 C 0.60589 0.05768 0.79965 0.0
C446 C 0.6703 0.01797 0.68499 0.0
C447 C 0.58697 0.00726 0.83235 0.0
H448 H 0.5927 0.92467 0.67715 0.0
H449 H 0.65711 0.91571 0.81138 0.0
H450 H 0.57369 -0.00153 0.6985 0.0
H451 H 0.6039 0.00129 0.64877 0.0
H452 H 0.57679 0.97115 0.64256 0.0
H453 H 0.68214 0.9576 0.85035 0.0
H454 H 0.68275 0.99179 0.8091 0.0
H455 H 0.65472 0.98685 0.86255 0.0
H456 H 0.65901 0.07708 0.70246 0.0
H457 H 0.59003 0.06771 0.82887 0.0
H458 H 0.65835 0.00587 0.6507 0.0
H459 H 0.68458 0.00122 0.70716 0.0
H460 H 0.68515 0.03537 0.66577 0.0
H461 H 0.57188 0.99375 0.80487 0.0
H462 H 0.5728 0.02113 0.86098 0.0
H463 H 0.60023 0.99119 0.85815 0.0
C464 C 0.93777 0.60003 0.05861 0.0
C465 C 0.91984 0.6176 0.02274 0.0
C466 C 0.96923 0.60285 0.05867 0.0
C467 C 0.98315 0.62415 0.02265 0.0
C468 C 0.96517 0.64284 0.98791 0.0
C469 C 0.93366 0.63924 0.98816 0.0
C470 C 0.98763 0.58232 0.09603 0.0
C471 C 0.97926 0.66608 0.94951 0.0
C472 C 0.0653 0.64112 0.0557 0.0
C473 C 0.08011 0.62171 0.01813 0.0
C474 C 0.03365 0.64313 0.05623 0.0
C475 C 0.01658 0.62512 0.01866 0.0
C476 C 0.03149 0.6062 0.97957 0.0
C477 C 0.06304 0.60493 0.97949 0.0
C478 C 0.01847 0.66386 0.09798 0.0
C479 C 0.01409 0.58648 0.93905 0.0
H480 H 0.92729 0.58374 0.08643 0.0
H481 H 0.91993 0.65311 0.96074 0.0
H482 H 0.0022 0.56767 0.06963 0.0
H483 H 0.0027 0.59582 0.12353 0.0
H484 H 0.97326 0.56773 0.1231 0.0
H485 H 0.96209 0.68061 0.92898 0.0
H486 H 0.99506 0.6806 0.97358 0.0
H487 H 0.99258 0.65464 0.91617 0.0
H488 H 0.07836 0.65436 0.08532 0.0
H489 H 0.07429 0.59041 0.94942 0.0
H490 H 0.00588 0.65032 0.12955 0.0
H491 H 0.00186 0.67846 0.0762 0.0
H492 H 0.03492 0.6784 0.12057 0.0
H493 H 0.00035 0.56992 0.96303 0.0
H494 H 0.02913 0.57395 0.90979 0.0
H495 H -0.0017 0.60033 0.91377 0.0
C496 C 0.54099 0.22935 0.89383 0.0
C497 C 0.52809 0.20368 0.86898 0.0
C498 C 0.52727 0.24288 0.94097 0.0
C499 C 0.50085 0.22973 0.96395 0.0
C500 C 0.48531 0.20726 0.93283 0.0
C501 C 0.49909 0.19472 0.88535 0.0
C502 C 0.54283 0.26907 0.96909 0.0
C503 C 0.45625 0.19328 0.9538 0.0
C504 C 0.49499 0.20026 0.1093 0.0
C505 C 0.4659 0.21013 0.12276 0.0
C506 C 0.50955 0.21057 0.06072 0.0
C507 C 0.49459 0.23156 0.02542 0.0
C508 C 0.46823 0.24609 0.04531 0.0
C509 C 0.45374 0.23484 0.09376 0.0
C510 C 0.53864 0.19548 0.04319 0.0
C511 C 0.45342 0.27104 0.01239 0.0
H512 H 0.56297 0.2372 0.88002 0.0
H513 H 0.48844 0.17575 0.86445 0.0
H514 H 0.52789 0.28081 -0.00041 0.0
H515 H 0.56322 0.26099 0.99152 0.0
H516 H 0.55055 0.28549 0.93677 0.0
H517 H 0.44649 0.17711 0.92303 0.0
H518 H 0.46039 0.18105 -0.00612 0.0
H519 H 0.43927 0.21101 0.96217 0.0
H520 H 0.50499 0.18204 0.13336 0.0
H521 H 0.43166 0.24337 0.10523 0.0
H522 H 0.55577 0.21264 0.03181 0.0
H523 H 0.53466 0.18112 0.00558 0.0
H524 H 0.54809 0.18107 0.07714 0.0
H525 H 0.46918 0.28157 0.98171 0.0
H526 H 0.44492 0.28867 0.04162 0.0
H527 H 0.43365 0.262 0.98926 0.0
C528 C 0.8009 0.48762 0.12248 0.0
C529 C 0.7928 0.51769 0.11337 0.0
C530 C 0.79124 0.47243 0.17086 0.0
C531 C 0.77278 0.48782 0.21033 0.0
C532 C 0.75938 0.51555 0.19478 0.0
C533 C 0.7699 0.53055 0.14635 0.0
C534 C 0.80547 0.44233 0.18425 0.0
C535 C 0.7374 0.53146 0.23305 0.0
C536 C 0.77559 0.44173 0.34332 0.0
C537 C 0.80274 0.45271 0.36587 0.0
C538 C 0.76244 0.45573 0.2961 0.0
C539 C 0.77731 0.48056 0.27085 0.0
C540 C 0.80226 0.49403 0.29855 0.0
C541 C 0.81442 0.48005 0.34602 0.0
C542 C 0.73399 0.44283 0.27094 0.0
C543 C 0.81854 0.52116 0.27454 0.0
H544 H 0.81778 0.47729 0.09556 0.0
H545 H 0.76282 0.55355 0.13843 0.0
H546 H 0.82348 0.44554 0.2162 0.0
H547 H 0.78863 0.4265 0.202 0.0
H548 H 0.81575 0.43178 0.14632 0.0
H549 H 0.72011 0.54349 0.20778 0.0
H550 H 0.72597 0.51555 0.26222 0.0
H551 H 0.74955 0.54859 0.25845 0.0
H552 H 0.76587 0.42108 0.35975 0.0
H553 H 0.8347 0.48929 0.36487 0.0
H554 H 0.73885 0.43252 0.22934 0.0
H555 H 0.71738 0.46113 0.26374 0.0
H556 H 0.72361 0.42545 0.29858 0.0
H557 H 0.82884 0.5153 0.2333 0.0
H558 H 0.83672 0.52944 0.30279 0.0
H559 H 0.80248 0.53988 0.26748 0.0
C560 C 0.5401 0.76812 0.60604 0.0
C561 C 0.52706 0.79019 0.64063 0.0
C562 C 0.52497 0.75834 0.55725 0.0
C563 C 0.49711 0.77184 0.54288 0.0
C564 C 0.48155 0.78913 0.58384 0.0
C565 C 0.49681 0.79806 0.63255 0.0
C566 C 0.54058 0.73685 0.51767 0.0
C567 C 0.45084 0.80247 0.57227 0.0
C568 C 0.48959 0.81643 0.41035 0.0
C569 C 0.46193 0.8057 0.39019 0.0
C570 C 0.50354 0.80304 0.45672 0.0
C571 C 0.48978 0.77769 0.48276 0.0
C572 C 0.46459 0.76384 0.45675 0.0
C573 C 0.45061 0.77827 0.41091 0.0
C574 C 0.53093 0.81848 0.48159 0.0
C575 C 0.45074 0.73528 0.47957 0.0
H576 H 0.5632 0.76112 0.61322 0.0
H577 H 0.48632 0.81417 0.66083 0.0
H578 H 0.52415 0.72508 0.49 0.0
H579 H 0.5567 0.74943 0.49068 0.0
H580 H 0.55367 0.71985 0.54176 0.0
H581 H 0.44091 0.81319 0.61034 0.0
H582 H 0.45269 0.81982 0.5387 0.0
H583 H 0.43514 0.78475 0.55732 0.0
H584 H 0.49914 0.83692 0.39287 0.0
H585 H 0.42972 0.76919 0.39427 0.0
H586 H 0.54965 0.80219 0.48649 0.0
H587 H 0.5254 0.82757 0.52395 0.0
H588 H 0.53913 0.83742 0.45499 0.0
H589 H 0.46575 0.72356 0.50986 0.0
H590 H 0.44547 0.71968 0.44428 0.0
H591 H 0.42906 0.74061 0.50077 0.0
C592 C 0.23131 0.54159 0.888 0.0
C593 C 0.20966 0.52747 0.9222 0.0
C594 C 0.24163 0.52727 0.83874 0.0
C595 C 0.22917 0.49903 0.8236 0.0
C596 C 0.21244 0.4825 0.86414 0.0
C597 C 0.20288 0.49704 0.91326 0.0
C598 C 0.26243 0.54406 0.79944 0.0
C599 C 0.20026 0.45141 0.85168 0.0
C600 C 0.18495 0.4904 0.6909 0.0
C601 C 0.19701 0.46353 0.6698 0.0
C602 C 0.19767 0.5046 0.7377 0.0
C603 C 0.22365 0.49191 0.76329 0.0
C604 C 0.2387 0.4677 0.73645 0.0
C605 C 0.22497 0.45344 0.69012 0.0
C606 C 0.18097 0.53096 0.76346 0.0
C607 C 0.26786 0.45508 0.75892 0.0
H608 H 0.23743 0.56489 0.8958 0.0
H609 H 0.18706 0.48577 0.94115 0.0
H610 H 0.27505 0.52835 0.77165 0.0
H611 H 0.24909 0.55953 0.77253 0.0
H612 H 0.27873 0.55797 0.82372 0.0
H613 H 0.19016 0.44067 0.88961 0.0
H614 H 0.18263 0.45287 0.81859 0.0
H615 H 0.21851 0.43664 0.8357 0.0
H616 H 0.16398 0.49901 0.67378 0.0
H617 H 0.23503 0.43319 0.67282 0.0
H618 H 0.19643 0.55033 0.76939 0.0
H619 H 0.17192 0.52455 0.80545 0.0
H620 H 0.1618 0.53857 0.73693 0.0
H621 H 0.27901 0.47054 0.78923 0.0
H622 H 0.28363 0.45052 0.72349 0.0
H623 H 0.26341 0.43321 0.78006 0.0
loop_
_geom_bond_atom_site_label_1
_geom_bond_atom_site_label_2
_geom_bond_distance
_geom_bond_site_symmetry_2
_ccdc_geom_bond_type
Mg0 O1 2.028 . S
Mg0 O7 1.986 . S
Mg0 O9 2.114 . S
Mg0 O10 2.251 . S
Mg0 O13 2.010 . S
O1 Mg0 2.028 . S
O1 C4 1.250 . S
O2 Mg3 2.028 . S
O2 C4 1.248 . S
Mg3 O2 2.028 . S
Mg3 O8 2.032 . S
Mg3 O10 2.079 . S
C4 O1 1.250 . S
C4 O2 1.248 . S
C5 O6 1.264 . S
C5 O13 1.249 . S
O6 C5 1.264 . S
O7 Mg0 1.986 . S
O7 C11 1.246 . S
O8 Mg3 2.032 . S
O8 C11 1.259 . S
O9 Mg0 2.114 . S
O9 C12 1.252 . S
O10 Mg0 2.251 . S
O10 Mg3 2.079 . S
O10 C12 1.273 . S
C11 O7 1.246 . S
C11 O8 1.259 . S
C12 O9 1.252 . S
C12 O10 1.273 . S
O13 Mg0 2.010 . S
O13 C5 1.249 . S
Mg14 O15 2.028 . S
Mg14 O21 1.986 . S
Mg14 O23 2.114 . S
Mg14 O24 2.251 . S
Mg14 O27 2.010 . S
O15 Mg14 2.028 . S
O15 C18 1.250 . S
O16 Mg17 2.028 . S
O16 C18 1.248 . S
Mg17 O16 2.028 . S
Mg17 O22 2.032 . S
Mg17 O24 2.079 . S
C18 O15 1.250 . S
C18 O16 1.248 . S
C19 O20 1.264 . S
C19 O27 1.249 . S
O20 C19 1.264 . S
O21 Mg14 1.986 . S
O21 C25 1.246 . S
O22 Mg17 2.032 . S
O22 C25 1.259 . S
O23 Mg14 2.114 . S
O23 C26 1.252 . S
O24 Mg14 2.251 . S
O24 Mg17 2.079 . S
O24 C26 1.273 . S
C25 O21 1.246 . S
C25 O22 1.259 . S
C26 O23 1.252 . S
C26 O24 1.273 . S
O27 Mg14 2.010 . S
O27 C19 1.249 . S
Mg28 O29 2.028 . S
Mg28 O35 1.986 . S
Mg28 O37 2.114 . S
Mg28 O38 2.251 . S
Mg28 O41 2.010 . S
O29 Mg28 2.028 . S
O29 C32 1.250 . S
O30 Mg31 2.028 . S
O30 C32 1.248 . S
Mg31 O30 2.028 . S
Mg31 O36 2.032 . S
Mg31 O38 2.079 . S
C32 O29 1.250 . S
C32 O30 1.248 . S
C33 O34 1.264 . S
C33 O41 1.249 . S
O34 C33 1.264 . S
O35 Mg28 1.986 . S
O35 C39 1.246 . S
O36 Mg31 2.032 . S
O36 C39 1.259 . S
O37 Mg28 2.114 . S
O37 C40 1.252 . S
O38 Mg28 2.251 . S
O38 Mg31 2.079 . S
O38 C40 1.273 . S
C39 O35 1.246 . S
C39 O36 1.259 . S
C40 O37 1.252 . S
C40 O38 1.273 . S
O41 Mg28 2.010 . S
O41 C33 1.249 . S
Mg42 O43 2.028 . S
Mg42 O49 1.986 1_554 S
Mg42 O51 2.114 . S
Mg42 O52 2.251 . S
Mg42 O55 2.010 . S
O43 Mg42 2.028 . S
O43 C46 1.250 . S
O44 Mg45 2.028 . S
O44 C46 1.248 . S
Mg45 O44 2.028 . S
Mg45 O50 2.032 1_554 S
Mg45 O52 2.079 . S
C46 O43 1.250 . S
C46 O44 1.248 . S
C47 O48 1.264 . S
C47 O55 1.249 . S
O48 C47 1.264 . S
O49 Mg42 1.986 1_556 S
O49 C53 1.246 . S
O50 Mg45 2.032 1_556 S
O50 C53 1.259 . S
O51 Mg42 2.114 . S
O51 C54 1.252 . S
O52 Mg42 2.251 . S
O52 Mg45 2.079 . S
O52 C54 1.273 . S
C53 O49 1.246 . S
C53 O50 1.259 . S
C54 O51 1.252 . S
C54 O52 1.273 . S
O55 Mg42 2.010 . S
O55 C47 1.249 . S
Mg56 O57 2.028 . S
Mg56 O63 1.986 . S
Mg56 O65 2.114 . S
Mg56 O66 2.251 . S
Mg56 O69 2.010 . S
O57 Mg56 2.028 . S
O57 C60 1.250 . S
O58 Mg59 2.028 . S
O58 C60 1.248 . S
Mg59 O58 2.028 . S
Mg59 O64 2.032 . S
Mg59 O66 2.079 . S
C60 O57 1.250 . S
C60 O58 1.248 . S
C61 O62 1.264 . S
C61 O69 1.249 . S
O62 C61 1.264 . S
O63 Mg56 1.986 . S
O63 C67 1.246 . S
O64 Mg59 2.032 . S
O64 C67 1.259 . S
O65 Mg56 2.114 . S
O65 C68 1.252 . S
O66 Mg56 2.251 . S
O66 Mg59 2.079 . S
O66 C68 1.273 . S
C67 O63 1.246 . S
C67 O64 1.259 . S
C68 O65 1.252 . S
C68 O66 1.273 . S
O69 Mg56 2.010 . S
O69 C61 1.249 . S
Mg70 O71 2.028 . S
Mg70 O77 1.986 . S
Mg70 O79 2.114 . S
Mg70 O80 2.251 . S
Mg70 O83 2.010 . S
O71 Mg70 2.028 . S
O71 C74 1.250 . S
O72 Mg73 2.028 . S
O72 C74 1.248 . S
Mg73 O72 2.028 . S
Mg73 O78 2.032 . S
Mg73 O80 2.079 . S
C74 O71 1.250 . S
C74 O72 1.248 . S
C75 O76 1.264 . S
C75 O83 1.249 . S
O76 C75 1.264 . S
O77 Mg70 1.986 . S
O77 C81 1.246 . S
O78 Mg73 2.032 . S
O78 C81 1.259 . S
O79 Mg70 2.114 . S
O79 C82 1.252 . S
O80 Mg70 2.251 . S
O80 Mg73 2.079 . S
O80 C82 1.273 . S
C81 O77 1.246 . S
C81 O78 1.259 . S
C82 O79 1.252 . S
C82 O80 1.273 . S
O83 Mg70 2.010 . S
O83 C75 1.249 . S
Mg84 O85 2.028 . S
Mg84 O91 1.986 . S
Mg84 O93 2.114 . S
Mg84 O94 2.251 . S
Mg84 O97 2.010 . S
O85 Mg84 2.028 . S
O85 C88 1.250 . S
O86 Mg87 2.028 . S
O86 C88 1.248 . S
Mg87 O86 2.028 . S
Mg87 O92 2.032 . S
Mg87 O94 2.079 . S
C88 O85 1.250 . S
C88 O86 1.248 . S
C89 O90 1.264 . S
C89 O97 1.249 . S
O90 C89 1.264 . S
O91 Mg84 1.986 . S
O91 C95 1.246 . S
O92 Mg87 2.032 . S
O92 C95 1.259 . S
O93 Mg84 2.114 . S
O93 C96 1.252 . S
O94 Mg84 2.251 . S
O94 Mg87 2.079 . S
O94 C96 1.273 . S
C95 O91 1.246 . S
C95 O92 1.259 . S
C96 O93 1.252 . S
C96 O94 1.273 . S
O97 Mg84 2.010 . S
O97 C89 1.249 . S
Mg98 O99 2.028 1_554 S
Mg98 O105 1.986 . S
Mg98 O107 2.114 1_554 S
Mg98 O108 2.251 . S
Mg98 O111 2.010 . S
O99 Mg98 2.028 1_556 S
O99 C102 1.250 . S
O100 Mg101 2.028 1_556 S
O100 C102 1.248 . S
Mg101 O100 2.028 1_554 S
Mg101 O106 2.032 . S
Mg101 O108 2.079 . S
C102 O99 1.250 . S
C102 O100 1.248 . S
C103 O104 1.264 . S
C103 O111 1.249 . S
O104 C103 1.264 . S
O105 Mg98 1.986 . S
O105 C109 1.246 . S
O106 Mg101 2.032 . S
O106 C109 1.259 . S
O107 Mg98 2.114 1_556 S
O107 C110 1.252 1_556 S
O108 Mg98 2.251 . S
O108 Mg101 2.079 . S
O108 C110 1.273 . S
C109 O105 1.246 . S
C109 O106 1.259 . S
C110 O107 1.252 1_554 S
C110 O108 1.273 . S
O111 Mg98 2.010 . S
O111 C103 1.249 . S
C112 C113 1.391 . S
C112 C114 1.394 . S
C112 H128 0.931 . S
C113 C112 1.391 . S
C113 C117 1.376 . S
C114 C112 1.394 . S
C114 C115 1.369 . S
C114 C118 1.531 . S
C115 C114 1.369 . S
C115 C116 1.410 . S
C115 C123 1.503 . S
C116 C115 1.410 . S
C116 C117 1.392 . S
C116 C119 1.511 . S
C117 C113 1.376 . S
C117 C116 1.392 . S
C117 H129 0.929 . S
C118 C114 1.531 . S
C118 H130 0.960 . S
C118 H131 0.962 . S
C118 H132 0.960 . S
C119 C116 1.511 . S
C119 H133 0.961 . S
C119 H134 0.961 . S
C119 H135 0.961 . S
C120 C121 1.370 . S
C120 C122 1.363 . S
C120 H136 0.931 . S
C121 C120 1.370 . S
C121 C125 1.408 . S
C122 C120 1.363 . S
C122 C123 1.370 . S
C122 C126 1.524 . S
C123 C115 1.503 . S
C123 C122 1.370 . S
C123 C124 1.403 . S
C124 C123 1.403 . S
C124 C125 1.404 . S
C124 C127 1.539 . S
C125 C121 1.408 . S
C125 C124 1.404 . S
C125 H137 0.930 . S
C126 C122 1.524 . S
C126 H138 0.956 . S
C126 H139 0.961 . S
C126 H140 0.961 . S
C127 C124 1.539 . S
C127 H141 0.958 . S
C127 H142 0.961 . S
C127 H143 0.960 . S
H128 C112 0.931 . S
H129 C117 0.929 . S
H130 C118 0.960 . S
H131 C118 0.962 . S
H132 C118 0.960 . S
H133 C119 0.961 . S
H134 C119 0.961 . S
H135 C119 0.961 . S
H136 C120 0.931 . S
H137 C125 0.930 . S
H138 C126 0.956 . S
H139 C126 0.961 . S
H140 C126 0.961 . S
H141 C127 0.958 . S
H142 C127 0.961 . S
H143 C127 0.960 . S
C144 C145 1.391 . S
C144 C146 1.394 . S
C144 H160 0.931 . S
C145 C144 1.391 . S
C145 C149 1.376 . S
C146 C144 1.394 . S
C146 C147 1.369 . S
C146 C150 1.531 . S
C147 C146 1.369 . S
C147 C148 1.410 . S
C147 C155 1.503 . S
C148 C147 1.410 . S
C148 C149 1.392 . S
C148 C151 1.511 . S
C149 C145 1.376 . S
C149 C148 1.392 . S
C149 H161 0.929 . S
C150 C146 1.531 . S
C150 H162 0.960 . S
C150 H163 0.962 . S
C150 H164 0.960 . S
C151 C148 1.511 . S
C151 H165 0.961 . S
C151 H166 0.961 . S
C151 H167 0.961 . S
C152 C153 1.370 . S
C152 C154 1.363 . S
C152 H168 0.931 . S
C153 C152 1.370 . S
C153 C157 1.408 . S
C154 C152 1.363 . S
C154 C155 1.370 . S
C154 C158 1.524 . S
C155 C147 1.503 . S
C155 C154 1.370 . S
C155 C156 1.403 . S
C156 C155 1.403 . S
C156 C157 1.404 . S
C156 C159 1.539 . S
C157 C153 1.408 . S
C157 C156 1.404 . S
C157 H169 0.930 . S
C158 C154 1.524 . S
C158 H170 0.956 . S
C158 H171 0.961 . S
C158 H172 0.961 . S
C159 C156 1.539 . S
C159 H173 0.958 . S
C159 H174 0.961 . S
C159 H175 0.960 . S
H160 C144 0.931 . S
H161 C149 0.929 . S
H162 C150 0.960 . S
H163 C150 0.962 . S
H164 C150 0.960 . S
H165 C151 0.961 . S
H166 C151 0.961 . S
H167 C151 0.961 . S
H168 C152 0.931 . S
H169 C157 0.930 . S
H170 C158 0.956 . S
H171 C158 0.961 . S
H172 C158 0.961 . S
H173 C159 0.958 . S
H174 C159 0.961 . S
H175 C159 0.960 . S
C176 C177 1.391 . S
C176 C178 1.394 . S
C176 H192 0.931 . S
C177 C176 1.391 . S
C177 C181 1.376 . S
C178 C176 1.394 . S
C178 C179 1.369 . S
C178 C182 1.531 . S
C179 C178 1.369 . S
C179 C180 1.410 . S
C179 C187 1.503 1_554 S
C180 C179 1.410 . S
C180 C181 1.392 . S
C180 C183 1.511 1_554 S
C181 C177 1.376 . S
C181 C180 1.392 . S
C181 H193 0.929 . S
C182 C178 1.531 . S
C182 H194 0.960 . S
C182 H195 0.962 . S
C182 H196 0.960 . S
C183 C180 1.511 1_556 S
C183 H197 0.961 . S
C183 H198 0.961 . S
C183 H199 0.961 . S
C184 C185 1.370 . S
C184 C186 1.363 . S
C184 H200 0.931 . S
C185 C184 1.370 . S
C185 C189 1.408 . S
C186 C184 1.363 . S
C186 C187 1.370 . S
C186 C190 1.524 1_556 S
C187 C179 1.503 1_556 S
C187 C186 1.370 . S
C187 C188 1.403 . S
C188 C187 1.403 . S
C188 C189 1.404 . S
C188 C191 1.539 . S
C189 C185 1.408 . S
C189 C188 1.404 . S
C189 H201 0.930 . S
C190 C186 1.524 1_554 S
C190 H202 0.956 . S
C190 H203 0.961 . S
C190 H204 0.961 . S
C191 C188 1.539 . S
C191 H205 0.958 . S
C191 H206 0.961 . S
C191 H207 0.960 . S
H192 C176 0.931 . S
H193 C181 0.929 . S
H194 C182 0.960 . S
H195 C182 0.962 . S
H196 C182 0.960 . S
H197 C183 0.961 . S
H198 C183 0.961 . S
H199 C183 0.961 . S
H200 C184 0.931 . S
H201 C189 0.930 . S
H202 C190 0.956 . S
H203 C190 0.961 . S
H204 C190 0.961 . S
H205 C191 0.958 . S
H206 C191 0.961 . S
H207 C191 0.960 . S
C208 C209 1.391 . S
C208 C210 1.394 . S
C208 H224 0.931 . S
C209 C208 1.391 . S
C209 C213 1.376 . S
C210 C208 1.394 . S
C210 C211 1.369 . S
C210 C214 1.531 . S
C211 C210 1.369 . S
C211 C212 1.410 . S
C211 C219 1.503 . S
C212 C211 1.410 . S
C212 C213 1.392 . S
C212 C215 1.511 . S
C213 C209 1.376 . S
C213 C212 1.392 . S
C213 H225 0.929 . S
C214 C210 1.531 . S
C214 H226 0.960 . S
C214 H227 0.962 . S
C214 H228 0.960 . S
C215 C212 1.511 . S
C215 H229 0.961 . S
C215 H230 0.961 . S
C215 H231 0.961 . S
C216 C217 1.370 . S
C216 C218 1.363 . S
C216 H232 0.931 . S
C217 C216 1.370 . S
C217 C221 1.408 . S
C218 C216 1.363 . S
C218 C219 1.370 . S
C218 C222 1.524 . S
C219 C211 1.503 . S
C219 C218 1.370 . S
C219 C220 1.403 . S
C220 C219 1.403 . S
C220 C221 1.404 . S
C220 C223 1.539 . S
C221 C217 1.408 . S
C221 C220 1.404 . S
C221 H233 0.930 . S
C222 C218 1.524 . S
C222 H234 0.956 . S
C222 H235 0.961 . S
C222 H236 0.961 . S
C223 C220 1.539 . S
C223 H237 0.958 . S
C223 H238 0.961 . S
C223 H239 0.960 . S
H224 C208 0.931 . S
H225 C213 0.929 . S
H226 C214 0.960 . S
H227 C214 0.962 . S
H228 C214 0.960 . S
H229 C215 0.961 . S
H230 C215 0.961 . S
H231 C215 0.961 . S
H232 C216 0.931 . S
H233 C221 0.930 . S
H234 C222 0.956 . S
H235 C222 0.961 . S
H236 C222 0.961 . S
H237 C223 0.958 . S
H238 C223 0.961 . S
H239 C223 0.960 . S
C240 C241 1.391 . S
C240 C242 1.394 . S
C240 H256 0.931 . S
C241 C240 1.391 . S
C241 C245 1.376 . S
C242 C240 1.394 . S
C242 C243 1.369 . S
C242 C246 1.531 . S
C243 C242 1.369 . S
C243 C244 1.410 . S
C243 C251 1.503 . S
C244 C243 1.410 . S
C244 C245 1.392 . S
C244 C247 1.511 . S
C245 C241 1.376 . S
C245 C244 1.392 . S
C245 H257 0.929 . S
C246 C242 1.531 . S
C246 H258 0.960 . S
C246 H259 0.962 . S
C246 H260 0.960 . S
C247 C244 1.511 . S
C247 H261 0.961 . S
C247 H262 0.961 . S
C247 H263 0.961 . S
C248 C249 1.370 . S
C248 C250 1.363 . S
C248 H264 0.931 . S
C249 C248 1.370 . S
C249 C253 1.408 . S
C250 C248 1.363 . S
C250 C251 1.370 . S
C250 C254 1.524 . S
C251 C243 1.503 . S
C251 C250 1.370 . S
C251 C252 1.403 . S
C252 C251 1.403 . S
C252 C253 1.404 . S
C252 C255 1.539 . S
C253 C249 1.408 . S
C253 C252 1.404 . S
C253 H265 0.930 . S
C254 C250 1.524 . S
C254 H266 0.956 . S
C254 H267 0.961 . S
C254 H268 0.961 . S
C255 C252 1.539 . S
C255 H269 0.958 . S
C255 H270 0.961 . S
C255 H271 0.960 . S
H256 C240 0.931 . S
H257 C245 0.929 . S
H258 C246 0.960 . S
H259 C246 0.962 . S
H260 C246 0.960 . S
H261 C247 0.961 . S
H262 C247 0.961 . S
H263 C247 0.961 . S
H264 C248 0.931 . S
H265 C253 0.930 . S
H266 C254 0.956 . S
H267 C254 0.961 . S
H268 C254 0.961 . S
H269 C255 0.958 . S
H270 C255 0.961 . S
H271 C255 0.960 . S
C272 C273 1.391 . S
C272 C274 1.394 . S
C272 H288 0.931 . S
C273 C272 1.391 . S
C273 C277 1.376 . S
C274 C272 1.394 . S
C274 C275 1.369 . S
C274 C278 1.531 . S
C275 C274 1.369 . S
C275 C276 1.410 . S
C275 C283 1.503 . S
C276 C275 1.410 . S
C276 C277 1.392 . S
C276 C279 1.511 . S
C277 C273 1.376 . S
C277 C276 1.392 . S
C277 H289 0.929 . S
C278 C274 1.531 . S
C278 H290 0.960 . S
C278 H291 0.962 . S
C278 H292 0.960 . S
C279 C276 1.511 . S
C279 H293 0.961 . S
C279 H294 0.961 . S
C279 H295 0.961 . S
C280 C281 1.370 . S
C280 C282 1.363 . S
C280 H296 0.931 . S
C281 C280 1.370 . S
C281 C285 1.408 . S
C282 C280 1.363 . S
C282 C283 1.370 . S
C282 C286 1.524 . S
C283 C275 1.503 . S
C283 C282 1.370 . S
C283 C284 1.403 . S
C284 C283 1.403 . S
C284 C285 1.404 . S
C284 C287 1.539 . S
C285 C281 1.408 . S
C285 C284 1.404 . S
C285 H297 0.930 . S
C286 C282 1.524 . S
C286 H298 0.956 . S
C286 H299 0.961 . S
C286 H300 0.961 . S
C287 C284 1.539 . S
C287 H301 0.958 . S
C287 H302 0.961 . S
C287 H303 0.960 . S
H288 C272 0.931 . S
H289 C277 0.929 . S
H290 C278 0.960 . S
H291 C278 0.962 . S
H292 C278 0.960 . S
H293 C279 0.961 . S
H294 C279 0.961 . S
H295 C279 0.961 . S
H296 C280 0.931 . S
H297 C285 0.930 . S
H298 C286 0.956 . S
H299 C286 0.961 . S
H300 C286 0.961 . S
H301 C287 0.958 . S
H302 C287 0.961 . S
H303 C287 0.960 . S
C304 C305 1.391 . S
C304 C306 1.394 . S
C304 H320 0.931 1_556 S
C305 C304 1.391 . S
C305 C309 1.376 . S
C306 C304 1.394 . S
C306 C307 1.369 . S
C306 C310 1.531 1_556 S
C307 C306 1.369 . S
C307 C308 1.410 . S
C307 C315 1.503 . S
C308 C307 1.410 . S
C308 C309 1.392 . S
C308 C311 1.511 . S
C309 C305 1.376 . S
C309 C308 1.392 . S
C309 H321 0.929 . S
C310 C306 1.531 1_554 S
C310 H322 0.960 1_554 S
C310 H323 0.962 1_554 S
C310 H324 0.960 . S
C311 C308 1.511 . S
C311 H325 0.961 . S
C311 H326 0.961 . S
C311 H327 0.961 . S
C312 C313 1.370 . S
C312 C314 1.363 . S
C312 H328 0.931 . S
C313 C312 1.370 . S
C313 C317 1.408 . S
C314 C312 1.363 . S
C314 C315 1.370 . S
C314 C318 1.524 . S
C315 C307 1.503 . S
C315 C314 1.370 . S
C315 C316 1.403 . S
C316 C315 1.403 . S
C316 C317 1.404 . S
C316 C319 1.539 . S
C317 C313 1.408 . S
C317 C316 1.404 . S
C317 H329 0.930 . S
C318 C314 1.524 . S
C318 H330 0.956 . S
C318 H331 0.961 . S
C318 H332 0.961 . S
C319 C316 1.539 . S
C319 H333 0.958 . S
C319 H334 0.961 . S
C319 H335 0.960 . S
H320 C304 0.931 1_554 S
H321 C309 0.929 . S
H322 C310 0.960 1_556 S
H323 C310 0.962 1_556 S
H324 C310 0.960 . S
H325 C311 0.961 . S
H326 C311 0.961 . S
H327 C311 0.961 . S
H328 C312 0.931 . S
H329 C317 0.930 . S
H330 C318 0.956 . S
H331 C318 0.961 . S
H332 C318 0.961 . S
H333 C319 0.958 . S
H334 C319 0.961 . S
H335 C319 0.960 . S
C336 C337 1.391 . S
C336 C338 1.394 . S
C336 H352 0.931 . S
C337 C336 1.391 . S
C337 C341 1.376 . S
C338 C336 1.394 . S
C338 C339 1.369 . S
C338 C342 1.531 . S
C339 C338 1.369 . S
C339 C340 1.410 . S
C339 C347 1.503 . S
C340 C339 1.410 . S
C340 C341 1.392 . S
C340 C343 1.511 . S
C341 C337 1.376 . S
C341 C340 1.392 . S
C341 H353 0.929 . S
C342 C338 1.531 . S
C342 H354 0.960 . S
C342 H355 0.962 . S
C342 H356 0.960 . S
C343 C340 1.511 . S
C343 H357 0.961 . S
C343 H358 0.961 . S
C343 H359 0.961 . S
C344 C345 1.370 . S
C344 C346 1.363 . S
C344 H360 0.931 . S
C345 C344 1.370 . S
C345 C349 1.408 . S
C346 C344 1.363 . S
C346 C347 1.370 . S
C346 C350 1.524 . S
C347 C339 1.503 . S
C347 C346 1.370 . S
C347 C348 1.403 . S
C348 C347 1.403 . S
C348 C349 1.404 . S
C348 C351 1.539 . S
C349 C345 1.408 . S
C349 C348 1.404 . S
C349 H361 0.930 . S
C350 C346 1.524 . S
C350 H362 0.956 . S
C350 H363 0.961 . S
C350 H364 0.961 . S
C351 C348 1.539 . S
C351 H365 0.958 . S
C351 H366 0.961 . S
C351 H367 0.960 . S
H352 C336 0.931 . S
H353 C341 0.929 . S
H354 C342 0.960 . S
H355 C342 0.962 . S
H356 C342 0.960 . S
H357 C343 0.961 . S
H358 C343 0.961 . S
H359 C343 0.961 . S
H360 C344 0.931 . S
H361 C349 0.930 . S
H362 C350 0.956 . S
H363 C350 0.961 . S
H364 C350 0.961 . S
H365 C351 0.958 . S
H366 C351 0.961 . S
H367 C351 0.960 . S
C368 C369 1.391 . S
C368 C370 1.394 . S
C368 H384 0.931 . S
C369 C368 1.391 . S
C369 C373 1.376 . S
C370 C368 1.394 . S
C370 C371 1.369 . S
C370 C374 1.531 . S
C371 C370 1.369 . S
C371 C372 1.410 . S
C371 C379 1.503 1_565 S
C372 C371 1.410 . S
C372 C373 1.392 . S
C372 C375 1.511 . S
C373 C369 1.376 . S
C373 C372 1.392 . S
C373 H385 0.929 . S
C374 C370 1.531 . S
C374 H386 0.975 . S
C374 H387 0.962 . S
C374 H388 0.960 . S
C375 C372 1.511 . S
C375 H389 0.961 . S
C375 H390 0.961 1_565 S
C375 H391 0.961 . S
C376 C377 1.370 . S
C376 C378 1.363 . S
C376 H392 0.931 . S
C377 C376 1.370 . S
C377 C381 1.408 . S
C378 C376 1.363 . S
C378 C379 1.370 . S
C378 C382 1.524 . S
C379 C371 1.503 1_545 S
C379 C378 1.370 . S
C379 C380 1.403 . S
C380 C379 1.403 . S
C380 C381 1.404 . S
C380 C383 1.539 . S
C381 C377 1.408 . S
C381 C380 1.404 . S
C381 H393 0.930 . S
C382 C378 1.524 . S
C382 H394 0.956 . S
C382 H395 0.961 . S
C382 H396 0.961 . S
C383 C380 1.539 . S
C383 H397 0.958 . S
C383 H398 0.961 . S
C383 H399 0.960 1_545 S
H384 C368 0.931 . S
H385 C373 0.929 . S
H386 C374 0.975 . S
H387 C374 0.962 . S
H388 C374 0.960 . S
H389 C375 0.961 . S
H390 C375 0.961 1_545 S
H391 C375 0.961 . S
H392 C376 0.931 . S
H393 C381 0.930 . S
H394 C382 0.956 . S
H395 C382 0.961 . S
H396 C382 0.961 . S
H397 C383 0.958 . S
H398 C383 0.961 . S
H399 C383 0.960 1_565 S
C400 C401 1.391 . S
C400 C402 1.394 . S
C400 H416 0.931 . S
C401 C400 1.391 . S
C401 C405 1.376 . S
C402 C400 1.394 . S
C402 C403 1.369 . S
C402 C406 1.531 . S
C403 C402 1.369 . S
C403 C404 1.410 . S
C403 C411 1.503 1_655 S
C404 C403 1.410 . S
C404 C405 1.392 . S
C404 C407 1.511 . S
C405 C401 1.376 . S
C405 C404 1.392 . S
C405 H417 0.929 . S
C406 C402 1.531 . S
C406 H418 0.947 1_655 S
C406 H419 0.962 . S
C406 H420 0.960 . S
C407 C404 1.511 . S
C407 H421 0.961 . S
C407 H422 0.961 1_655 S
C407 H423 0.961 . S
C408 C409 1.370 . S
C408 C410 1.363 . S
C408 H424 0.931 . S
C409 C408 1.370 . S
C409 C413 1.408 . S
C410 C408 1.363 . S
C410 C411 1.370 . S
C410 C414 1.524 . S
C411 C403 1.503 1_455 S
C411 C410 1.370 . S
C411 C412 1.403 . S
C412 C411 1.403 . S
C412 C413 1.404 . S
C412 C415 1.539 . S
C413 C409 1.408 . S
C413 C412 1.404 . S
C413 H425 0.930 . S
C414 C410 1.524 . S
C414 H426 0.956 1_455 S
C414 H427 0.961 1_455 S
C414 H428 0.961 . S
C415 C412 1.539 . S
C415 H429 0.958 . S
C415 H430 0.961 . S
C415 H431 0.960 . S
H416 C400 0.931 . S
H417 C405 0.929 . S
H418 C406 0.947 1_455 S
H419 C406 0.962 . S
H420 C406 0.960 . S
H421 C407 0.961 . S
H422 C407 0.961 1_455 S
H423 C407 0.961 . S
H424 C408 0.931 . S
H425 C413 0.930 . S
H426 C414 0.956 1_655 S
H427 C414 0.961 1_655 S
H428 C414 0.961 . S
H429 C415 0.958 . S
H430 C415 0.961 . S
H431 C415 0.960 . S
C432 C433 1.391 . S
C432 C434 1.394 . S
C432 H448 0.931 . S
C433 C432 1.391 . S
C433 C437 1.376 . S
C434 C432 1.394 . S
C434 C435 1.369 . S
C434 C438 1.531 . S
C435 C434 1.369 . S
C435 C436 1.410 . S
C435 C443 1.503 1_565 S
C436 C435 1.410 . S
C436 C437 1.392 . S
C436 C439 1.511 . S
C437 C433 1.376 . S
C437 C436 1.392 . S
C437 H449 0.929 . S
C438 C434 1.531 . S
C438 H450 0.960 1_565 S
C438 H451 0.962 . S
C438 H452 0.960 . S
C439 C436 1.511 . S
C439 H453 0.961 . S
C439 H454 0.961 1_565 S
C439 H455 0.961 . S
C440 C441 1.370 . S
C440 C442 1.363 . S
C440 H456 0.931 . S
C441 C440 1.370 . S
C441 C445 1.408 . S
C442 C440 1.363 . S
C442 C443 1.370 . S
C442 C446 1.524 . S
C443 C435 1.503 1_545 S
C443 C442 1.370 . S
C443 C444 1.403 . S
C444 C443 1.403 . S
C444 C445 1.404 . S
C444 C447 1.539 . S
C445 C441 1.408 . S
C445 C444 1.404 . S
C445 H457 0.930 . S
C446 C442 1.524 . S
C446 H458 0.956 1_545 S
C446 H459 0.961 1_545 S
C446 H460 0.961 . S
C447 C444 1.539 . S
C447 H461 0.958 . S
C447 H462 0.961 . S
C447 H463 0.960 . S
H448 C432 0.931 . S
H449 C437 0.929 . S
H450 C438 0.960 1_545 S
H451 C438 0.962 . S
H452 C438 0.960 . S
H453 C439 0.961 . S
H454 C439 0.961 1_545 S
H455 C439 0.961 . S
H456 C440 0.931 . S
H457 C445 0.930 . S
H458 C446 0.956 1_565 S
H459 C446 0.961 1_565 S
H460 C446 0.961 . S
H461 C447 0.958 . S
H462 C447 0.961 . S
H463 C447 0.960 . S
C464 C465 1.391 1_556 S
C464 C466 1.394 . S
C464 H480 0.931 . S
C465 C464 1.391 1_554 S
C465 C469 1.376 . S
C466 C464 1.394 . S
C466 C467 1.369 1_556 S
C466 C470 1.531 . S
C467 C466 1.369 1_554 S
C467 C468 1.410 . S
C467 C475 1.503 1_655 S
C468 C467 1.410 . S
C468 C469 1.392 . S
C468 C471 1.511 . S
C469 C465 1.376 . S
C469 C468 1.392 . S
C469 H481 0.929 . S
C470 C466 1.531 . S
C470 H482 0.960 1_655 S
C470 H483 0.962 1_556 S
C470 H484 0.960 . S
C471 C468 1.511 . S
C471 H485 0.961 . S
C471 H486 0.961 1_655 S
C471 H487 0.961 1_554 S
C472 C473 1.370 . S
C472 C474 1.363 . S
C472 H488 0.931 . S
C473 C472 1.370 . S
C473 C477 1.408 1_554 S
C474 C472 1.363 . S
C474 C475 1.370 . S
C474 C478 1.524 . S
C475 C467 1.503 1_455 S
C475 C474 1.370 . S
C475 C476 1.403 1_554 S
C476 C475 1.403 1_556 S
C476 C477 1.404 . S
C476 C479 1.539 . S
C477 C473 1.408 1_556 S
C477 C476 1.404 . S
C477 H489 0.930 . S
C478 C474 1.524 . S
C478 H490 0.956 1_455 S
C478 H491 0.961 1_455 S
C478 H492 0.961 . S
C479 C476 1.539 . S
C479 H493 0.958 . S
C479 H494 0.961 . S
C479 H495 0.960 . S
H480 C464 0.931 . S
H481 C469 0.929 . S
H482 C470 0.960 1_455 S
H483 C470 0.962 1_554 S
H484 C470 0.960 . S
H485 C471 0.961 . S
H486 C471 0.961 1_455 S
H487 C471 0.961 1_556 S
H488 C472 0.931 . S
H489 C477 0.930 . S
H490 C478 0.956 1_655 S
H491 C478 0.961 1_655 S
H492 C478 0.961 . S
H493 C479 0.958 . S
H494 C479 0.961 . S
H495 C479 0.960 . S
C496 C497 1.391 . S
C496 C498 1.394 . S
C496 H512 0.931 . S
C497 C496 1.391 . S
C497 C501 1.376 . S
C498 C496 1.394 . S
C498 C499 1.369 . S
C498 C502 1.531 1_556 S
C499 C498 1.369 . S
C499 C500 1.410 . S
C499 C507 1.503 1_556 S
C500 C499 1.410 . S
C500 C501 1.392 . S
C500 C503 1.511 . S
C501 C497 1.376 . S
C501 C500 1.392 . S
C501 H513 0.929 . S
C502 C498 1.531 1_554 S
C502 H514 0.960 . S
C502 H515 0.962 . S
C502 H516 0.960 1_554 S
C503 C500 1.511 . S
C503 H517 0.961 . S
C503 H518 0.961 1_556 S
C503 H519 0.961 . S
C504 C505 1.370 . S
C504 C506 1.363 . S
C504 H520 0.931 . S
C505 C504 1.370 . S
C505 C509 1.408 . S
C506 C504 1.363 . S
C506 C507 1.370 . S
C506 C510 1.524 . S
C507 C499 1.503 1_554 S
C507 C506 1.370 . S
C507 C508 1.403 . S
C508 C507 1.403 . S
C508 C509 1.404 . S
C508 C511 1.539 1_554 S
C509 C505 1.408 . S
C509 C508 1.404 . S
C509 H521 0.930 . S
C510 C506 1.524 . S
C510 H522 0.956 . S
C510 H523 0.961 . S
C510 H524 0.961 . S
C511 C508 1.539 1_556 S
C511 H525 0.958 . S
C511 H526 0.961 . S
C511 H527 0.960 . S
H512 C496 0.931 . S
H513 C501 0.929 . S
H514 C502 0.960 . S
H515 C502 0.962 . S
H516 C502 0.960 1_556 S
H517 C503 0.961 . S
H518 C503 0.961 1_554 S
H519 C503 0.961 . S
H520 C504 0.931 . S
H521 C509 0.930 . S
H522 C510 0.956 . S
H523 C510 0.961 . S
H524 C510 0.961 . S
H525 C511 0.958 . S
H526 C511 0.961 . S
H527 C511 0.960 . S
C528 C529 1.391 . S
C528 C530 1.394 . S
C528 H544 0.931 . S
C529 C528 1.391 . S
C529 C533 1.376 . S
C530 C528 1.394 . S
C530 C531 1.369 . S
C530 C534 1.531 . S
C531 C530 1.369 . S
C531 C532 1.410 . S
C531 C539 1.503 . S
C532 C531 1.410 . S
C532 C533 1.392 . S
C532 C535 1.511 . S
C533 C529 1.376 . S
C533 C532 1.392 . S
C533 H545 0.929 . S
C534 C530 1.531 . S
C534 H546 0.960 . S
C534 H547 0.962 . S
C534 H548 0.960 . S
C535 C532 1.511 . S
C535 H549 0.961 . S
C535 H550 0.961 . S
C535 H551 0.961 . S
C536 C537 1.370 . S
C536 C538 1.363 . S
C536 H552 0.931 . S
C537 C536 1.370 . S
C537 C541 1.408 . S
C538 C536 1.363 . S
C538 C539 1.370 . S
C538 C542 1.524 . S
C539 C531 1.503 . S
C539 C538 1.370 . S
C539 C540 1.403 . S
C540 C539 1.403 . S
C540 C541 1.404 . S
C540 C543 1.539 . S
C541 C537 1.408 . S
C541 C540 1.404 . S
C541 H553 0.930 . S
C542 C538 1.524 . S
C542 H554 0.956 . S
C542 H555 0.961 . S
C542 H556 0.961 . S
C543 C540 1.539 . S
C543 H557 0.958 . S
C543 H558 0.961 . S
C543 H559 0.960 . S
H544 C528 0.931 . S
H545 C533 0.929 . S
H546 C534 0.960 . S
H547 C534 0.962 . S
H548 C534 0.960 . S
H549 C535 0.961 . S
H550 C535 0.961 . S
H551 C535 0.961 . S
H552 C536 0.931 . S
H553 C541 0.930 . S
H554 C542 0.956 . S
H555 C542 0.961 . S
H556 C542 0.961 . S
H557 C543 0.958 . S
H558 C543 0.961 . S
H559 C543 0.960 . S
C560 C561 1.391 . S
C560 C562 1.394 . S
C560 H576 0.931 . S
C561 C560 1.391 . S
C561 C565 1.376 . S
C562 C560 1.394 . S
C562 C563 1.369 . S
C562 C566 1.531 . S
C563 C562 1.369 . S
C563 C564 1.410 . S
C563 C571 1.503 . S
C564 C563 1.410 . S
C564 C565 1.392 . S
C564 C567 1.511 . S
C565 C561 1.376 . S
C565 C564 1.392 . S
C565 H577 0.929 . S
C566 C562 1.531 . S
C566 H578 0.960 . S
C566 H579 0.962 . S
C566 H580 0.960 . S
C567 C564 1.511 . S
C567 H581 0.961 . S
C567 H582 0.961 . S
C567 H583 0.961 . S
C568 C569 1.370 . S
C568 C570 1.363 . S
C568 H584 0.931 . S
C569 C568 1.370 . S
C569 C573 1.408 . S
C570 C568 1.363 . S
C570 C571 1.370 . S
C570 C574 1.524 . S
C571 C563 1.503 . S
C571 C570 1.370 . S
C571 C572 1.403 . S
C572 C571 1.403 . S
C572 C573 1.404 . S
C572 C575 1.539 . S
C573 C569 1.408 . S
C573 C572 1.404 . S
C573 H585 0.930 . S
C574 C570 1.524 . S
C574 H586 0.956 . S
C574 H587 0.961 . S
C574 H588 0.961 . S
C575 C572 1.539 . S
C575 H589 0.958 . S
C575 H590 0.961 . S
C575 H591 0.960 . S
H576 C560 0.931 . S
H577 C565 0.929 . S
H578 C566 0.960 . S
H579 C566 0.962 . S
H580 C566 0.960 . S
H581 C567 0.961 . S
H582 C567 0.961 . S
H583 C567 0.961 . S
H584 C568 0.931 . S
H585 C573 0.930 . S
H586 C574 0.956 . S
H587 C574 0.961 . S
H588 C574 0.961 . S
H589 C575 0.958 . S
H590 C575 0.961 . S
H591 C575 0.960 . S
C592 C593 1.391 . S
C592 C594 1.394 . S
C592 H608 0.931 . S
C593 C592 1.391 . S
C593 C597 1.376 . S
C594 C592 1.394 . S
C594 C595 1.369 . S
C594 C598 1.531 . S
C595 C594 1.369 . S
C595 C596 1.410 . S
C595 C603 1.503 . S
C596 C595 1.410 . S
C596 C597 1.392 . S
C596 C599 1.511 . S
C597 C593 1.376 . S
C597 C596 1.392 . S
C597 H609 0.929 . S
C598 C594 1.531 . S
C598 H610 0.960 . S
C598 H611 0.962 . S
C598 H612 0.960 . S
C599 C596 1.511 . S
C599 H613 0.961 . S
C599 H614 0.961 . S
C599 H615 0.961 . S
C600 C601 1.370 . S
C600 C602 1.363 . S
C600 H616 0.931 . S
C601 C600 1.370 . S
C601 C605 1.408 . S
C602 C600 1.363 . S
C602 C603 1.370 . S
C602 C606 1.524 . S
C603 C595 1.503 . S
C603 C602 1.370 . S
C603 C604 1.403 . S
C604 C603 1.403 . S
C604 C605 1.404 . S
C604 C607 1.539 . S
C605 C601 1.408 . S
C605 C604 1.404 . S
C605 H617 0.930 . S
C606 C602 1.524 . S
C606 H618 0.956 . S
C606 H619 0.961 . S
C606 H620 0.961 . S
C607 C604 1.539 . S
C607 H621 0.958 . S
C607 H622 0.961 . S
C607 H623 0.960 . S
H608 C592 0.931 . S
H609 C597 0.929 . S
H610 C598 0.960 . S
H611 C598 0.962 . S
H612 C598 0.960 . S
H613 C599 0.961 . S
H614 C599 0.961 . S
H615 C599 0.961 . S
H616 C600 0.931 . S
H617 C605 0.930 . S
H618 C606 0.956 . S
H619 C606 0.961 . S
H620 C606 0.961 . S
H621 C607 0.958 . S
H622 C607 0.961 . S
H623 C607 0.960 . S
C113 C4 1.381 . S
C121 C88 1.351 . S
C145 C18 1.372 . S
C153 C102 1.346 . S
C177 C60 1.385 . S
C185 C32 1.358 . S
C209 C74 1.357 . S
C217 C46 1.370 . S
C241 C5 1.105 . S
C249 C75 1.150 . S
C273 C19 1.182 . S
C281 C89 1.127 . S
C305 C103 1.069 1_556 S
C313 C33 1.117 . S
C337 C47 1.180 . S
C345 C61 1.117 . S
C369 C68 1.297 . S
C377 C12 1.309 . S
C401 C26 1.300 . S
C409 C82 1.307 . S
C433 C40 1.316 . S
C441 C96 1.313 . S
C465 C110 1.317 . S
C473 C54 1.313 . S
C497 C95 1.262 . S
C505 C11 1.292 . S
C529 C109 1.238 . S
C537 C25 1.272 . S
C561 C39 1.309 . S
C569 C67 1.296 . S
C593 C53 1.316 . S
C601 C81 1.293 . S
