# Generated by pormake.
# Topology whw, (6)-cn, num edge types: 1
# Building blocks:
#     Node 0, Type 0, BuildingBlock: LEVNOQ01_clean_sbu_1, # of connection points: 6
#     Node 1, Type 0, BuildingBlock: LEVNOQ01_clean_sbu_1, # of connection points: 6
#     Node 2, Type 0, BuildingBlock: LEVNOQ01_clean_sbu_1, # of connection points: 6
#     Node 3, Type 0, BuildingBlock: LEVNOQ01_clean_sbu_1, # of connection points: 6
#     Node 4, Type 0, BuildingBlock: LEVNOQ01_clean_sbu_1, # of connection points: 6
#     Node 5, Type 0, BuildingBlock: LEVNOQ01_clean_sbu_1, # of connection points: 6
#     Node 6, Type 0, BuildingBlock: LEVNOQ01_clean_sbu_1, # of connection points: 6
#     Node 7, Type 0, BuildingBlock: LEVNOQ01_clean_sbu_1, # of connection points: 6
#     Node 8, Type 0, BuildingBlock: LEVNOQ01_clean_sbu_1, # of connection points: 6
#     Node 9, Type 0, BuildingBlock: LEVNOQ01_clean_sbu_1, # of connection points: 6
#     Node 10, Type 0, BuildingBlock: LEVNOQ01_clean_sbu_1, # of connection points: 6
#     Node 11, Type 0, BuildingBlock: LEVNOQ01_clean_sbu_1, # of connection points: 6
#     Node 12, Type 0, BuildingBlock: LEVNOQ01_clean_sbu_1, # of connection points: 6
#     Node 13, Type 0, BuildingBlock: LEVNOQ01_clean_sbu_1, # of connection points: 6
#     Node 14, Type 0, BuildingBlock: LEVNOQ01_clean_sbu_1, # of connection points: 6
#     Node 15, Type 0, BuildingBlock: LEVNOQ01_clean_sbu_1, # of connection points: 6
#     Edge 16, Type (0, 0), None
#     Edge 17, Type (0, 0), None
#     Edge 18, Type (0, 0), None
#     Edge 19, Type (0, 0), None
#     Edge 20, Type (0, 0), None
#     Edge 21, Type (0, 0), None
#     Edge 22, Type (0, 0), None
#     Edge 23, Type (0, 0), None
#     Edge 24, Type (0, 0), None
#     Edge 25, Type (0, 0), None
#     Edge 26, Type (0, 0), None
#     Edge 27, Type (0, 0), None
#     Edge 28, Type (0, 0), None
#     Edge 29, Type (0, 0), None
#     Edge 30, Type (0, 0), None
#     Edge 31, Type (0, 0), None
#     Edge 32, Type (0, 0), None
#     Edge 33, Type (0, 0), None
#     Edge 34, Type (0, 0), None
#     Edge 35, Type (0, 0), None
#     Edge 36, Type (0, 0), None
#     Edge 37, Type (0, 0), None
#     Edge 38, Type (0, 0), None
#     Edge 39, Type (0, 0), None
#     Edge 40, Type (0, 0), None
#     Edge 41, Type (0, 0), None
#     Edge 42, Type (0, 0), None
#     Edge 43, Type (0, 0), None
#     Edge 44, Type (0, 0), None
#     Edge 45, Type (0, 0), None
#     Edge 46, Type (0, 0), None
#     Edge 47, Type (0, 0), None
#     Edge 48, Type (0, 0), None
#     Edge 49, Type (0, 0), None
#     Edge 50, Type (0, 0), None
#     Edge 51, Type (0, 0), None
#     Edge 52, Type (0, 0), None
#     Edge 53, Type (0, 0), None
#     Edge 54, Type (0, 0), None
#     Edge 55, Type (0, 0), None
#     Edge 56, Type (0, 0), None
#     Edge 57, Type (0, 0), None
#     Edge 58, Type (0, 0), None
#     Edge 59, Type (0, 0), None
#     Edge 60, Type (0, 0), None
#     Edge 61, Type (0, 0), None
#     Edge 62, Type (0, 0), None
#     Edge 63, Type (0, 0), None
# Relax obj value: 0.529
# Max RMSD: 0.238
# Mean RMSD: 0.238
data_MOF--net-whw--node1-LEVNOQ01_clean_sbu_1--edge1-none
_symmetry_space_group_name_H-M    P1
_symmetry_Int_Tables_number       1
_symmetry_cell_setting            triclinic
loop_
_symmetry_equiv_pos_as_xyz
'x, y, z'
_cell_length_a     24.588382
_cell_length_b     24.412147
_cell_length_c     11.027173
_cell_angle_alpha  89.187166
_cell_angle_beta   90.18418
_cell_angle_gamma 90.030307
loop_
_atom_site_label
_atom_site_type_symbol
_atom_site_fract_x
_atom_site_fract_y
_atom_site_fract_z
_atom_type_partial_charge
O0 O 0.08796 0.05857 0.2919 0.0
Mg1 Mg 0.00072 0.03106 0.22188 0.0
O2 O 0.0326 0.1193 0.35064 0.0
Mg3 Mg -0.01507 0.08513 0.16909 0.0
O4 O -0.03334 0.03249 1.02463 0.0
O5 O 0.00779 0.96001 0.09716 0.0
O6 O 0.93479 0.07743 0.98007 0.0
O7 O 0.06894 0.07201 0.06704 0.0
Mg8 Mg 0.01316 0.1546 0.14631 0.0
O9 O -0.01035 0.15374 0.3229 0.0
O10 O 0.93877 0.15863 0.04676 0.0
O11 O 0.09115 0.15661 0.05555 0.0
O12 O 0.0122 0.22976 0.23054 0.0
C13 C 0.89439 0.07426 0.33827 0.0
C14 C 0.0815 0.10191 0.35346 0.0
C15 C -0.014 -0.01514 1.0052 0.0
C16 C 0.91645 0.12597 0.97615 0.0
C17 C 0.09871 0.10855 1.01949 0.0
C18 C -0.02132 0.20518 0.3015 0.0
O19 O 0.93647 0.04838 0.37603 0.0
O20 O 0.89625 0.08694 0.22888 0.0
O21 O 0.08599 0.85469 0.24846 0.0
Mg22 Mg 0.0088 0.81588 0.25804 0.0
O23 O 0.12929 0.77943 0.21323 0.0
Mg24 Mg 0.09762 0.72693 0.37835 0.0
O25 O 0.02864 0.7773 0.40841 0.0
O26 O 0.9463 0.80299 0.39389 0.0
O27 O 0.06713 0.66688 0.54705 0.0
O28 O 0.12971 0.79721 0.49646 0.0
Mg29 Mg 0.17873 0.68078 0.55147 0.0
O30 O 0.16391 0.67629 0.36229 0.0
O31 O 0.13155 0.60707 0.59235 0.0
O32 O 0.12937 0.74639 0.65537 0.0
O33 O 0.24487 0.69576 0.41112 0.0
C34 C 0.03089 0.69118 0.14816 0.0
C35 C 0.11128 0.82515 0.17344 0.0
C36 C -0.01995 0.76754 0.43644 0.0
C37 C 0.08141 0.62041 0.59358 0.0
C38 C 0.11654 0.79214 0.60618 0.0
C39 C 0.21015 0.68998 0.32508 0.0
O40 O 0.01432 0.74039 0.15754 0.0
O41 O 0.0611 0.66974 0.22995 0.0
O42 O 0.37304 0.88253 0.88155 0.0
Mg43 Mg 0.44767 0.93042 0.81999 0.0
O44 O 0.3994 0.81334 0.76941 0.0
Mg45 Mg 0.47244 0.83334 0.61119 0.0
O46 O 0.4548 0.91263 0.64166 0.0
O47 O 0.44348 -0.00326 0.66968 0.0
O48 O 0.52941 0.84891 0.45232 0.0
O49 O 0.39915 0.84006 0.47637 0.0
Mg50 Mg 0.4244 0.75857 0.60032 0.0
O51 O 0.4485 0.77971 0.76942 0.0
O52 O 0.49418 0.76644 0.47902 0.0
O53 O 0.34412 0.77539 0.53138 0.0
O54 O 0.42932 0.69494 0.72472 0.0
C55 C 0.5588 0.85702 0.8414 0.0
C56 C 0.36566 0.83302 0.84754 0.0
C57 C 0.4492 0.95883 0.59139 0.0
C58 C 0.52848 0.79805 0.42825 0.0
C59 C 0.35377 0.81617 0.46309 0.0
C60 C 0.46373 0.72848 0.77023 0.0
O61 O 0.52353 0.88763 0.89393 0.0
O62 O 0.55028 0.84251 0.73334 0.0
O63 O 0.30524 0.18136 0.18596 0.0
Mg64 Mg 0.26308 0.25348 0.08349 0.0
O65 O 0.31108 0.13787 1.02116 0.0
Mg66 Mg 0.34592 0.21819 0.93163 0.0
O67 O 0.27815 0.26917 0.89427 0.0
O68 O 0.20071 0.2351 0.93698 0.0
O69 O 0.39033 0.28682 0.81657 0.0
O70 O 0.32655 0.17182 0.75031 0.0
Mg71 Mg 0.42955 0.12876 0.83953 0.0
O72 O 0.40915 0.16747 0.9823 0.0
O73 O 0.42929 0.21157 0.76402 0.0
O74 O 0.35597 0.08901 0.79183 0.0
O75 O 0.48255 0.12557 1.00055 0.0
C76 C 0.36126 0.31144 0.15189 0.0
C77 C 0.31814 0.13679 0.13423 0.0
C78 C 0.23362 0.25124 0.85386 0.0
C79 C 0.42106 0.26189 0.7441 0.0
C80 C 0.33294 0.12202 0.71787 0.0
C81 C 0.45423 0.16595 0.03544 0.0
O82 O 0.31164 0.32612 0.14027 0.0
O83 O 0.37459 0.26523 0.10946 0.0
O84 O 0.06651 0.87915 0.61338 0.0
Mg85 Mg -0.00897 0.92529 0.6623 0.0
O86 O 0.04252 0.81512 0.74574 0.0
Mg87 Mg -0.0303 0.83844 0.90128 0.0
O88 O -0.01326 0.9165 0.84655 0.0
O89 O -0.00936 -0.00132 0.78473 0.0
O90 O 0.91008 0.85436 0.06117 0.0
O91 O 0.04164 0.84831 0.03591 0.0
Mg92 Mg 0.01094 0.7657 0.91554 0.0
O93 O -0.01135 0.78236 0.74138 0.0
O94 O 0.93926 0.77141 0.02807 0.0
O95 O 0.09091 0.77852 0.99058 0.0
O96 O 0.00837 0.69898 0.80143 0.0
C97 C 0.88229 0.85288 0.67035 0.0
C98 C 0.0751 0.83183 0.66107 0.0
C99 C -0.0116 -0.03414 0.87661 0.0
C100 C 0.90637 0.80278 0.07998 0.0
C101 C 0.08461 0.82081 0.05356 0.0
C102 C -0.02501 0.73068 0.74473 0.0
O103 O 0.91704 0.87831 0.60364 0.0
O104 O 0.89137 0.84657 0.78283 0.0
O105 O 0.3078 0.74971 0.86178 0.0
Mg106 Mg 0.25565 0.68456 0.96593 0.0
O107 O 0.31164 0.79968 1.01909 0.0
Mg108 Mg 0.33739 0.72517 0.14096 0.0
O109 O 0.2694 0.67699 0.15505 0.0
O110 O 0.18905 0.69884 0.10511 0.0
O111 O 0.37316 0.66474 0.28691 0.0
O112 O 0.30719 0.77681 0.30597 0.0
Mg113 Mg 0.42816 0.80938 0.26037 0.0
O114 O 0.40683 0.77094 0.11465 0.0
O115 O 0.41938 0.73374 0.36334 0.0
O116 O 0.35252 0.85097 0.2668 0.0
O117 O 0.48912 0.79272 0.12394 0.0
C118 C 0.35159 0.62154 0.93077 0.0
C119 C 0.32346 0.79457 0.90863 0.0
C120 C 0.22331 0.69085 0.1916 0.0
C121 C 0.40293 0.68451 0.37046 0.0
C122 C 0.32666 0.82185 0.34351 0.0
C123 C 0.45389 0.7605 0.07904 0.0
O124 O 0.30103 0.60986 0.92856 0.0
O125 O 0.36684 0.66696 0.97703 0.0
O126 O 0.37321 0.04989 0.15004 0.0
Mg127 Mg 0.44712 -0.00138 0.22457 0.0
O128 O 0.38578 0.11391 0.28308 0.0
Mg129 Mg 0.45623 0.09576 0.41496 0.0
O130 O 0.45427 0.01437 0.40676 0.0
O131 O 0.44481 0.93077 0.37415 0.0
O132 O 0.52508 0.09051 0.56334 0.0
O133 O 0.38941 0.08856 0.56744 0.0
Mg134 Mg 0.4071 0.20162 0.53018 0.0
O135 O 0.44742 0.17645 0.39209 0.0
O136 O 0.47358 0.1588 0.61252 0.0
O137 O 0.33451 0.15531 0.51822 0.0
O138 O 0.44443 0.26059 0.41492 0.0
C139 C 0.54927 0.07895 0.1888 0.0
C140 C 0.35899 0.09646 0.19375 0.0
C141 C 0.45023 -0.03222 0.45475 0.0
C142 C 0.51251 0.12709 0.63833 0.0
C143 C 0.34558 0.11509 0.5878 0.0
C144 C 0.47118 0.22052 0.37276 0.0
O145 O 0.52662 0.03448 0.15246 0.0
O146 O 0.52662 0.1053 0.27331 0.0
O147 O 0.08878 0.06843 0.83066 0.0
Mg148 Mg 0.01358 0.11024 0.80343 0.0
O149 O 0.13618 0.14325 0.84078 0.0
Mg150 Mg 0.10526 0.194 0.66992 0.0
O151 O 0.03589 0.14568 0.6509 0.0
O152 O 0.9532 0.12232 0.66015 0.0
O153 O 0.07477 0.25714 0.49817 0.0
O154 O 0.12904 0.12465 0.53842 0.0
Mg155 Mg 0.19158 0.24816 0.49121 0.0
O156 O 0.17878 0.23233 0.67409 0.0
O157 O 0.13837 0.31818 0.45548 0.0
O158 O 0.14602 0.17849 0.3852 0.0
O159 O 0.25598 0.26568 0.63674 0.0
C160 C 0.03738 0.23526 0.90141 0.0
C161 C 0.11841 0.09999 0.89341 0.0
C162 C -0.01162 0.15601 0.61711 0.0
C163 C 0.08848 0.30434 0.45296 0.0
C164 C 0.12593 0.13291 0.42497 0.0
C165 C 0.22221 0.25034 0.71897 0.0
O166 O 0.01861 0.18656 0.89722 0.0
O167 O 0.07156 0.25315 0.82261 0.0
O168 O 0.79507 0.27711 0.36555 0.0
Mg169 Mg 0.76062 0.19355 0.43334 0.0
O170 O 0.85511 0.27749 0.51119 0.0
Mg171 Mg 0.84947 0.2031 0.64213 0.0
O172 O 0.76787 0.18871 0.6214 0.0
O173 O 0.68751 0.18044 0.55269 0.0
O174 O 0.85875 0.13459 0.79399 0.0
O175 O 0.82791 0.26708 0.79553 0.0
Mg176 Mg 0.9433 0.27342 0.76419 0.0
O177 O 0.92694 0.22784 0.62778 0.0
O178 O 0.91529 0.19892 0.84592 0.0
O179 O 0.88248 0.33441 0.74859 0.0
O180 O 0.00828 0.2493 0.65006 0.0
C181 C 0.85561 0.10723 0.41509 0.0
C182 C 0.83529 0.30084 0.41814 0.0
C183 C 0.71855 0.18159 0.64675 0.0
C184 C 0.89224 0.15396 0.87012 0.0
C185 C 0.84583 0.31528 0.8177 0.0
C186 C -0.0252 0.21431 0.60868 0.0
O187 O 0.80923 0.12136 0.37104 0.0
O188 O 0.87512 0.13492 0.50213 0.0
O189 O 0.55341 0.58405 0.2472 0.0
Mg190 Mg 0.51655 0.65809 0.19233 0.0
O191 O 0.61141 0.65086 0.26925 0.0
Mg192 Mg 0.59278 0.72101 0.11511 0.0
O193 O 0.51654 0.68959 1.02604 0.0
O194 O 0.44143 0.66765 0.12099 0.0
O195 O 0.56787 0.79268 0.99737 0.0
O196 O 0.55619 0.65528 0.98899 0.0
Mg197 Mg 0.66017 0.7281 1.02493 0.0
O198 O 0.65194 0.76573 0.21247 0.0
O199 O 0.64035 0.79987 0.89258 0.0
O200 O 0.63992 0.63982 0.94657 0.0
O201 O 0.72339 0.71861 0.16708 0.0
C202 C 0.55456 0.77158 0.3269 0.0
C203 C 0.59254 0.60449 0.30626 0.0
C204 C 0.46723 0.7027 0.05436 0.0
C205 C 0.59308 0.81838 0.91723 0.0
C206 C 0.5903 0.62342 0.94236 0.0
C207 C 0.69607 0.74362 0.24866 0.0
O208 O 0.53188 0.72753 0.29785 0.0
O209 O 0.5928 0.78972 0.26177 0.0
O210 O 0.55028 0.32564 0.81793 0.0
Mg211 Mg 0.53549 0.24823 0.91029 0.0
O212 O 0.62508 0.28022 0.82037 0.0
Mg213 Mg 0.59871 0.19989 0.93355 0.0
O214 O 0.53225 0.22 0.08431 0.0
O215 O 0.46206 0.25833 0.99645 0.0
O216 O 0.57965 0.11223 0.99928 0.0
O217 O 0.57458 0.25486 0.11231 0.0
Mg218 Mg 0.65258 0.20595 0.98568 0.0
O219 O 0.64765 0.17013 0.79209 0.0
O220 O 0.62239 0.14714 0.14459 0.0
O221 O 0.64333 0.29809 0.04529 0.0
O222 O 0.72436 0.20039 0.86526 0.0
C223 C 0.54471 0.14582 0.74201 0.0
C224 C 0.59748 0.31959 0.77607 0.0
C225 C 0.48009 0.21907 0.06395 0.0
C226 C 0.59002 0.10948 0.10942 0.0
C227 C 0.6005 0.30013 0.10956 0.0
C228 C 0.69759 0.18197 0.77375 0.0
O229 O 0.51864 0.17834 0.8061 0.0
O230 O 0.59614 0.14807 0.74998 0.0
O231 O 0.78454 0.64722 0.67112 0.0
Mg232 Mg 0.74596 0.7294 0.60373 0.0
O233 O 0.84469 0.64615 0.52558 0.0
Mg234 Mg 0.83653 0.71968 0.39362 0.0
O235 O 0.75715 0.73214 0.41846 0.0
O236 O 0.67557 0.74359 0.46862 0.0
O237 O 0.84095 0.7914 0.24643 0.0
O238 O 0.81592 0.65636 0.24117 0.0
Mg239 Mg 0.93361 0.65251 0.27624 0.0
O240 O 0.91613 0.6986 0.40971 0.0
O241 O 0.9006 0.72898 0.21031 0.0
O242 O 0.87282 0.59095 0.28664 0.0
O243 O -0.00283 0.67368 0.39968 0.0
C244 C 0.84214 0.81417 0.6147 0.0
C245 C 0.82543 0.62388 0.62026 0.0
C246 C 0.70987 0.74085 0.38134 0.0
C247 C 0.87838 0.77366 0.17934 0.0
C248 C 0.83577 0.6094 0.21697 0.0
C249 C -0.03599 0.70971 0.43719 0.0
O250 O 0.79698 0.80099 0.66545 0.0
O251 O 0.85925 0.78621 0.52708 0.0
O252 O 0.52655 0.54862 0.92731 0.0
Mg253 Mg 0.46607 0.49577 0.82204 0.0
O254 O 0.57276 0.56734 0.76857 0.0
Mg255 Mg 0.49484 0.59272 0.66373 0.0
O256 O 0.45706 0.51715 0.63747 0.0
O257 O 0.49189 0.43881 0.67433 0.0
O258 O 0.42477 0.62825 0.54476 0.0
O259 O 0.5477 0.57763 0.4839 0.0
Mg260 Mg 0.56012 0.68615 0.53766 0.0
O261 O 0.53098 0.66721 0.69923 0.0
O262 O 0.48904 0.66201 0.42822 0.0
O263 O 0.62112 0.62731 0.50307 0.0
O264 O 0.54776 0.75035 0.67083 0.0
C265 C 0.39367 0.58594 0.87246 0.0
C266 C 0.56831 0.57208 0.88168 0.0
C267 C 0.47852 0.47501 0.59434 0.0
C268 C 0.4394 0.65042 0.44537 0.0
C269 C 0.59342 0.59404 0.44021 0.0
C270 C 0.51999 0.7154 0.7306 0.0
O271 O 0.38767 0.53424 0.86282 0.0
O272 O 0.43834 0.60801 0.83723 0.0
O273 O 0.9089 0.36891 0.41719 0.0
Mg274 Mg -0.02887 0.42427 0.3162 0.0
O275 O 0.8662 0.35901 0.25131 0.0
Mg276 Mg 0.94949 0.33754 0.16426 0.0
O277 O -0.01641 0.41479 0.12394 0.0
O278 O 0.94276 0.4875 0.17983 0.0
O279 O 0.02344 0.30648 0.05092 0.0
O280 O 0.89842 0.34495 0.98171 0.0
Mg281 Mg 0.87815 0.23684 0.07976 0.0
O282 O 0.91398 0.26546 0.21972 0.0
O283 O 0.9576 0.25236 1.00029 0.0
O284 O 0.82368 0.2993 1.02246 0.0
O285 O 0.88679 0.18532 0.24382 0.0
C286 C 0.04665 0.34042 0.38809 0.0
C287 C 0.86722 0.34952 0.36361 0.0
C288 C 0.95799 0.45745 0.09157 0.0
C289 C 0.00476 0.27067 0.98035 0.0
C290 C 0.85116 0.32836 0.94842 0.0
C291 C 0.92161 0.22096 0.27516 0.0
O292 O 0.05175 0.39222 0.37575 0.0
O293 O 0.00434 0.31854 0.3424 0.0
O294 O 0.53835 0.37858 0.13502 0.0
Mg295 Mg 0.47895 0.43843 0.23416 0.0
O296 O 0.58754 0.35298 0.28999 0.0
Mg297 Mg 0.51626 0.34353 0.42489 0.0
O298 O 0.49308 0.42213 0.41474 0.0
O299 O 0.47095 0.50401 0.3795 0.0
O300 O 0.45155 0.32419 0.58258 0.0
O301 O 0.57197 0.36506 0.59573 0.0
Mg302 Mg 0.57963 0.23705 0.56749 0.0
O303 O 0.55024 0.26587 0.4144 0.0
O304 O 0.50585 0.25935 0.65946 0.0
O305 O 0.63518 0.30318 0.58663 0.0
O306 O 0.55551 0.17969 0.42658 0.0
C307 C 0.40468 0.34657 0.21091 0.0
C308 C 0.57883 0.3505 0.17691 0.0
C309 C 0.48175 0.46726 0.46016 0.0
C310 C 0.46226 0.28755 0.66384 0.0
C311 C 0.61003 0.33829 0.64924 0.0
C312 C 0.53055 0.22133 0.38183 0.0
O313 O 0.40099 0.3985 0.20631 0.0
O314 O 0.44841 0.32452 0.25555 0.0
O315 O 0.90045 0.55724 0.62656 0.0
Mg316 Mg -0.03643 0.50431 0.73319 0.0
O317 O 0.85831 0.56959 0.79122 0.0
Mg318 Mg 0.94174 0.59422 0.87342 0.0
O319 O -0.02248 0.51801 0.92325 0.0
O320 O 0.93964 0.44244 0.87475 0.0
O321 O 0.01452 0.62888 0.98225 0.0
O322 O 0.89102 0.58527 0.05433 0.0
Mg323 Mg 0.87391 0.69035 0.96381 0.0
O324 O 0.90732 0.6683 0.81315 0.0
O325 O 0.94826 0.6752 0.06333 0.0
O326 O 0.81587 0.62972 1.01237 0.0
O327 O 0.88665 0.75133 0.8229 0.0
C328 C 0.03931 0.58582 0.65821 0.0
C329 C 0.85865 0.57696 0.67848 0.0
C330 C 0.95491 0.47434 0.95999 0.0
C331 C -0.00319 0.65855 0.0666 0.0
C332 C 0.84303 0.59969 0.08558 0.0
C333 C 0.91776 0.71615 0.77483 0.0
O334 O 0.04417 0.53433 0.67509 0.0
O335 O -0.00392 0.60883 0.69595 0.0
loop_
_geom_bond_atom_site_label_1
_geom_bond_atom_site_label_2
_geom_bond_distance
_geom_bond_site_symmetry_2
_ccdc_geom_bond_type
O0 Mg1 1.990 . S
O0 C14 1.253 . S
Mg1 O0 1.990 . S
Mg1 O4 2.182 . S
Mg1 O5 2.117 1_545 S
Mg1 O19 2.030 1_455 S
O2 Mg3 2.072 . S
O2 C14 1.260 . S
Mg3 O2 2.072 . S
Mg3 O4 2.099 . S
Mg3 O6 2.079 1_455 S
Mg3 O7 2.072 . S
Mg3 O9 2.099 . S
Mg3 O20 2.079 1_455 S
O4 Mg1 2.182 . S
O4 Mg3 2.099 . S
O4 C15 1.284 1_545 S
O5 Mg1 2.117 1_565 S
O5 C15 1.250 . S
O6 Mg3 2.079 1_655 S
O6 C16 1.264 1_554 S
O7 Mg3 2.072 . S
O7 C17 1.260 1_554 S
Mg8 O9 2.182 1_556 S
Mg8 O10 2.030 1_455 S
Mg8 O11 1.990 . S
Mg8 O12 2.117 1_556 S
O9 Mg3 2.099 . S
O9 Mg8 2.182 1_554 S
O9 C18 1.287 . S
O10 Mg8 2.030 1_655 S
O10 C16 1.248 . S
O11 Mg8 1.990 . S
O11 C17 1.253 . S
O12 Mg8 2.117 1_554 S
O12 C18 1.250 . S
C13 O19 1.248 . S
C13 O20 1.264 . S
C14 O0 1.253 . S
C14 O2 1.260 . S
C15 O4 1.284 1_565 S
C15 O5 1.250 . S
C16 O6 1.264 1_556 S
C16 O10 1.248 . S
C17 O7 1.260 1_556 S
C17 O11 1.253 . S
C18 O9 1.287 . S
C18 O12 1.250 . S
O19 Mg1 2.030 1_655 S
O19 C13 1.248 . S
O20 Mg3 2.079 1_655 S
O20 C13 1.264 . S
O21 Mg22 1.990 . S
O21 C35 1.253 . S
Mg22 O21 1.990 . S
Mg22 O25 2.180 . S
Mg22 O26 2.117 1_455 S
Mg22 O40 2.030 . S
O23 Mg24 2.072 . S
O23 C35 1.260 . S
Mg24 O23 2.072 . S
Mg24 O25 2.099 . S
Mg24 O27 2.079 . S
Mg24 O28 2.072 . S
Mg24 O30 2.099 . S
Mg24 O41 2.079 . S
O25 Mg22 2.180 . S
O25 Mg24 2.099 . S
O25 C36 1.279 1_455 S
O26 Mg22 2.117 1_655 S
O26 C36 1.250 . S
O27 Mg24 2.079 . S
O27 C37 1.264 . S
O28 Mg24 2.072 . S
O28 C38 1.260 . S
Mg29 O30 2.180 . S
Mg29 O31 2.030 . S
Mg29 O32 1.990 . S
Mg29 O33 2.117 . S
O30 Mg24 2.099 . S
O30 Mg29 2.180 . S
O30 C39 1.279 . S
O31 Mg29 2.030 . S
O31 C37 1.248 . S
O32 Mg29 1.990 . S
O32 C38 1.253 . S
O33 Mg29 2.117 . S
O33 C39 1.250 . S
C34 O40 1.248 . S
C34 O41 1.264 . S
C35 O21 1.253 . S
C35 O23 1.260 . S
C36 O25 1.279 1_655 S
C36 O26 1.250 . S
C37 O27 1.264 . S
C37 O31 1.248 . S
C38 O28 1.260 . S
C38 O32 1.253 . S
C39 O30 1.279 . S
C39 O33 1.250 . S
O40 Mg22 2.030 . S
O40 C34 1.248 . S
O41 Mg24 2.079 . S
O41 C34 1.264 . S
O42 Mg43 1.990 . S
O42 C56 1.253 . S
Mg43 O42 1.990 . S
Mg43 O46 2.180 . S
Mg43 O47 2.117 1_565 S
Mg43 O61 2.030 . S
O44 Mg45 2.072 . S
O44 C56 1.260 . S
Mg45 O44 2.072 . S
Mg45 O46 2.099 . S
Mg45 O48 2.079 . S
Mg45 O49 2.072 . S
Mg45 O51 2.099 . S
Mg45 O62 2.079 . S
O46 Mg43 2.180 . S
O46 Mg45 2.099 . S
O46 C57 1.279 1_565 S
O47 Mg43 2.117 1_545 S
O47 C57 1.250 . S
O48 Mg45 2.079 . S
O48 C58 1.264 . S
O49 Mg45 2.072 . S
O49 C59 1.260 . S
Mg50 O51 2.180 . S
Mg50 O52 2.030 . S
Mg50 O53 1.990 . S
Mg50 O54 2.117 . S
O51 Mg45 2.099 . S
O51 Mg50 2.180 . S
O51 C60 1.279 . S
O52 Mg50 2.030 . S
O52 C58 1.248 . S
O53 Mg50 1.990 . S
O53 C59 1.253 . S
O54 Mg50 2.117 . S
O54 C60 1.250 . S
C55 O61 1.248 . S
C55 O62 1.264 . S
C56 O42 1.253 . S
C56 O44 1.260 . S
C57 O46 1.279 1_545 S
C57 O47 1.250 . S
C58 O48 1.264 . S
C58 O52 1.248 . S
C59 O49 1.260 . S
C59 O53 1.253 . S
C60 O51 1.279 . S
C60 O54 1.250 . S
O61 Mg43 2.030 . S
O61 C55 1.248 . S
O62 Mg45 2.079 . S
O62 C55 1.264 . S
O63 Mg64 1.990 . S
O63 C77 1.253 . S
Mg64 O63 1.990 . S
Mg64 O67 2.180 1_554 S
Mg64 O68 2.117 1_554 S
Mg64 O82 2.030 . S
O65 Mg66 2.072 1_554 S
O65 C77 1.260 . S
Mg66 O65 2.072 1_556 S
Mg66 O67 2.099 . S
Mg66 O69 2.079 . S
Mg66 O70 2.072 . S
Mg66 O72 2.099 . S
Mg66 O83 2.079 . S
O67 Mg64 2.180 1_556 S
O67 Mg66 2.099 . S
O67 C78 1.279 . S
O68 Mg64 2.117 1_556 S
O68 C78 1.250 . S
O69 Mg66 2.079 . S
O69 C79 1.264 . S
O70 Mg66 2.072 . S
O70 C80 1.260 . S
Mg71 O72 2.180 . S
Mg71 O73 2.030 . S
Mg71 O74 1.990 . S
Mg71 O75 2.117 . S
O72 Mg66 2.099 . S
O72 Mg71 2.180 . S
O72 C81 1.279 . S
O73 Mg71 2.030 . S
O73 C79 1.248 . S
O74 Mg71 1.990 . S
O74 C80 1.253 . S
O75 Mg71 2.117 . S
O75 C81 1.250 . S
C76 O82 1.248 . S
C76 O83 1.263 1_554 S
C77 O63 1.253 . S
C77 O65 1.260 . S
C78 O67 1.279 . S
C78 O68 1.250 . S
C79 O69 1.264 . S
C79 O73 1.248 . S
C80 O70 1.260 . S
C80 O74 1.253 . S
C81 O72 1.279 . S
C81 O75 1.250 . S
O82 Mg64 2.030 . S
O82 C76 1.248 . S
O83 Mg66 2.079 . S
O83 C76 1.263 1_556 S
O84 Mg85 1.990 . S
O84 C98 1.253 . S
Mg85 O84 1.990 . S
Mg85 O88 2.182 . S
Mg85 O89 2.117 1_565 S
Mg85 O103 2.030 1_455 S
O86 Mg87 2.072 . S
O86 C98 1.260 . S
Mg87 O86 2.072 . S
Mg87 O88 2.099 . S
Mg87 O90 2.079 1_455 S
Mg87 O91 2.072 . S
Mg87 O93 2.099 . S
Mg87 O104 2.079 1_455 S
O88 Mg85 2.182 . S
O88 Mg87 2.099 . S
O88 C99 1.284 1_565 S
O89 Mg85 2.117 1_545 S
O89 C99 1.250 . S
O90 Mg87 2.079 1_655 S
O90 C100 1.264 1_556 S
O91 Mg87 2.072 . S
O91 C101 1.260 1_556 S
Mg92 O93 2.182 1_554 S
Mg92 O94 2.030 1_455 S
Mg92 O95 1.990 . S
Mg92 O96 2.117 1_554 S
O93 Mg87 2.099 . S
O93 Mg92 2.182 1_556 S
O93 C102 1.287 . S
O94 Mg92 2.030 1_655 S
O94 C100 1.248 . S
O95 Mg92 1.990 . S
O95 C101 1.253 . S
O96 Mg92 2.117 1_556 S
O96 C102 1.250 . S
C97 O103 1.248 . S
C97 O104 1.264 . S
C98 O84 1.253 . S
C98 O86 1.260 . S
C99 O88 1.284 1_545 S
C99 O89 1.250 . S
C100 O90 1.264 1_554 S
C100 O94 1.248 . S
C101 O91 1.260 1_554 S
C101 O95 1.253 . S
C102 O93 1.287 . S
C102 O96 1.250 . S
O103 Mg85 2.030 1_655 S
O103 C97 1.248 . S
O104 Mg87 2.079 1_655 S
O104 C97 1.264 . S
O105 Mg106 1.990 . S
O105 C119 1.253 . S
Mg106 O105 1.990 . S
Mg106 O109 2.180 1_556 S
Mg106 O110 2.117 1_556 S
Mg106 O124 2.030 . S
O107 Mg108 2.072 1_556 S
O107 C119 1.260 . S
Mg108 O107 2.072 1_554 S
Mg108 O109 2.099 . S
Mg108 O111 2.079 . S
Mg108 O112 2.072 . S
Mg108 O114 2.099 . S
Mg108 O125 2.079 . S
O109 Mg106 2.180 1_554 S
O109 Mg108 2.099 . S
O109 C120 1.279 . S
O110 Mg106 2.117 1_554 S
O110 C120 1.250 . S
O111 Mg108 2.079 . S
O111 C121 1.264 . S
O112 Mg108 2.072 . S
O112 C122 1.260 . S
Mg113 O114 2.180 . S
Mg113 O115 2.030 . S
Mg113 O116 1.990 . S
Mg113 O117 2.117 . S
O114 Mg108 2.099 . S
O114 Mg113 2.180 . S
O114 C123 1.279 . S
O115 Mg113 2.030 . S
O115 C121 1.248 . S
O116 Mg113 1.990 . S
O116 C122 1.253 . S
O117 Mg113 2.117 . S
O117 C123 1.250 . S
C118 O124 1.248 . S
C118 O125 1.263 1_556 S
C119 O105 1.253 . S
C119 O107 1.260 . S
C120 O109 1.279 . S
C120 O110 1.250 . S
C121 O111 1.264 . S
C121 O115 1.248 . S
C122 O112 1.260 . S
C122 O116 1.253 . S
C123 O114 1.279 . S
C123 O117 1.250 . S
O124 Mg106 2.030 . S
O124 C118 1.248 . S
O125 Mg108 2.079 . S
O125 C118 1.263 1_554 S
O126 Mg127 1.990 . S
O126 C140 1.253 . S
Mg127 O126 1.990 . S
Mg127 O130 2.180 . S
Mg127 O131 2.117 1_545 S
Mg127 O145 2.030 . S
O128 Mg129 2.072 . S
O128 C140 1.260 . S
Mg129 O128 2.072 . S
Mg129 O130 2.099 . S
Mg129 O132 2.079 . S
Mg129 O133 2.072 . S
Mg129 O135 2.099 . S
Mg129 O146 2.079 . S
O130 Mg127 2.180 . S
O130 Mg129 2.099 . S
O130 C141 1.279 1_545 S
O131 Mg127 2.117 1_565 S
O131 C141 1.250 . S
O132 Mg129 2.079 . S
O132 C142 1.264 . S
O133 Mg129 2.072 . S
O133 C143 1.260 . S
Mg134 O135 2.180 . S
Mg134 O136 2.030 . S
Mg134 O137 1.990 . S
Mg134 O138 2.117 . S
O135 Mg129 2.099 . S
O135 Mg134 2.180 . S
O135 C144 1.279 . S
O136 Mg134 2.030 . S
O136 C142 1.248 . S
O137 Mg134 1.990 . S
O137 C143 1.253 . S
O138 Mg134 2.117 . S
O138 C144 1.250 . S
C139 O145 1.248 . S
C139 O146 1.264 . S
C140 O126 1.253 . S
C140 O128 1.260 . S
C141 O130 1.279 1_565 S
C141 O131 1.250 . S
C142 O132 1.264 . S
C142 O136 1.248 . S
C143 O133 1.260 . S
C143 O137 1.253 . S
C144 O135 1.279 . S
C144 O138 1.250 . S
O145 Mg127 2.030 . S
O145 C139 1.248 . S
O146 Mg129 2.079 . S
O146 C139 1.264 . S
O147 Mg148 1.990 . S
O147 C161 1.253 . S
Mg148 O147 1.990 . S
Mg148 O151 2.180 . S
Mg148 O152 2.117 1_455 S
Mg148 O166 2.030 . S
O149 Mg150 2.072 . S
O149 C161 1.260 . S
Mg150 O149 2.072 . S
Mg150 O151 2.099 . S
Mg150 O153 2.079 . S
Mg150 O154 2.072 . S
Mg150 O156 2.099 . S
Mg150 O167 2.079 . S
O151 Mg148 2.180 . S
O151 Mg150 2.099 . S
O151 C162 1.279 1_455 S
O152 Mg148 2.117 1_655 S
O152 C162 1.250 . S
O153 Mg150 2.079 . S
O153 C163 1.264 . S
O154 Mg150 2.072 . S
O154 C164 1.260 . S
Mg155 O156 2.180 . S
Mg155 O157 2.030 . S
Mg155 O158 1.990 . S
Mg155 O159 2.117 . S
O156 Mg150 2.099 . S
O156 Mg155 2.180 . S
O156 C165 1.279 . S
O157 Mg155 2.030 . S
O157 C163 1.248 . S
O158 Mg155 1.990 . S
O158 C164 1.253 . S
O159 Mg155 2.117 . S
O159 C165 1.250 . S
C160 O166 1.248 . S
C160 O167 1.264 . S
C161 O147 1.253 . S
C161 O149 1.260 . S
C162 O151 1.279 1_655 S
C162 O152 1.250 . S
C163 O153 1.264 . S
C163 O157 1.248 . S
C164 O154 1.260 . S
C164 O158 1.253 . S
C165 O156 1.279 . S
C165 O159 1.250 . S
O166 Mg148 2.030 . S
O166 C160 1.248 . S
O167 Mg150 2.079 . S
O167 C160 1.264 . S
O168 Mg169 1.990 . S
O168 C182 1.253 . S
Mg169 O168 1.990 . S
Mg169 O172 2.180 . S
Mg169 O173 2.117 . S
Mg169 O187 2.030 . S
O170 Mg171 2.072 . S
O170 C182 1.260 . S
Mg171 O170 2.072 . S
Mg171 O172 2.099 . S
Mg171 O174 2.079 . S
Mg171 O175 2.072 . S
Mg171 O177 2.099 . S
Mg171 O188 2.079 . S
O172 Mg169 2.180 . S
O172 Mg171 2.099 . S
O172 C183 1.279 . S
O173 Mg169 2.117 . S
O173 C183 1.250 . S
O174 Mg171 2.079 . S
O174 C184 1.264 . S
O175 Mg171 2.072 . S
O175 C185 1.260 . S
Mg176 O177 2.180 1_455 S
Mg176 O178 2.030 1_455 S
Mg176 O179 1.990 1_455 S
Mg176 O180 2.117 . S
O177 Mg171 2.099 . S
O177 Mg176 2.180 1_655 S
O177 C186 1.279 1_655 S
O178 Mg176 2.030 1_655 S
O178 C184 1.248 . S
O179 Mg176 1.990 1_655 S
O179 C185 1.253 . S
O180 Mg176 2.117 . S
O180 C186 1.250 . S
C181 O187 1.248 . S
C181 O188 1.264 . S
C182 O168 1.253 . S
C182 O170 1.260 . S
C183 O172 1.279 . S
C183 O173 1.250 . S
C184 O174 1.264 . S
C184 O178 1.248 . S
C185 O175 1.260 . S
C185 O179 1.253 . S
C186 O177 1.279 1_455 S
C186 O180 1.250 . S
O187 Mg169 2.030 . S
O187 C181 1.248 . S
O188 Mg171 2.079 . S
O188 C181 1.264 . S
O189 Mg190 1.990 . S
O189 C203 1.253 . S
Mg190 O189 1.990 . S
Mg190 O193 2.180 . S
Mg190 O194 2.117 . S
Mg190 O208 2.030 . S
O191 Mg192 2.072 . S
O191 C203 1.260 . S
Mg192 O191 2.072 . S
Mg192 O193 2.099 . S
Mg192 O195 2.079 . S
Mg192 O196 2.072 1_554 S
Mg192 O198 2.099 . S
Mg192 O209 2.079 . S
O193 Mg190 2.180 . S
O193 Mg192 2.099 . S
O193 C204 1.279 . S
O194 Mg190 2.117 . S
O194 C204 1.250 . S
O195 Mg192 2.079 . S
O195 C205 1.263 1_554 S
O196 Mg192 2.072 1_556 S
O196 C206 1.260 . S
Mg197 O198 2.180 1_556 S
Mg197 O199 2.030 . S
Mg197 O200 1.990 . S
Mg197 O201 2.117 1_556 S
O198 Mg192 2.099 . S
O198 Mg197 2.180 1_554 S
O198 C207 1.279 . S
O199 Mg197 2.030 . S
O199 C205 1.248 . S
O200 Mg197 1.990 . S
O200 C206 1.253 . S
O201 Mg197 2.117 1_554 S
O201 C207 1.250 . S
C202 O208 1.248 . S
C202 O209 1.264 . S
C203 O189 1.253 . S
C203 O191 1.260 . S
C204 O193 1.279 . S
C204 O194 1.250 . S
C205 O195 1.263 1_556 S
C205 O199 1.248 . S
C206 O196 1.260 . S
C206 O200 1.253 . S
C207 O198 1.279 . S
C207 O201 1.250 . S
O208 Mg190 2.030 . S
O208 C202 1.248 . S
O209 Mg192 2.079 . S
O209 C202 1.264 . S
O210 Mg211 1.990 . S
O210 C224 1.253 . S
Mg211 O210 1.990 . S
Mg211 O214 2.180 . S
Mg211 O215 2.117 . S
Mg211 O229 2.030 . S
O212 Mg213 2.072 . S
O212 C224 1.260 . S
Mg213 O212 2.072 . S
Mg213 O214 2.099 . S
Mg213 O216 2.079 . S
Mg213 O217 2.072 1_556 S
Mg213 O219 2.099 . S
Mg213 O230 2.079 . S
O214 Mg211 2.180 . S
O214 Mg213 2.099 . S
O214 C225 1.279 . S
O215 Mg211 2.117 . S
O215 C225 1.250 . S
O216 Mg213 2.079 . S
O216 C226 1.263 1_556 S
O217 Mg213 2.072 1_554 S
O217 C227 1.260 . S
Mg218 O219 2.180 1_554 S
Mg218 O220 2.030 . S
Mg218 O221 1.990 . S
Mg218 O222 2.117 1_554 S
O219 Mg213 2.099 . S
O219 Mg218 2.180 1_556 S
O219 C228 1.279 . S
O220 Mg218 2.030 . S
O220 C226 1.248 . S
O221 Mg218 1.990 . S
O221 C227 1.253 . S
O222 Mg218 2.117 1_556 S
O222 C228 1.250 . S
C223 O229 1.248 . S
C223 O230 1.264 . S
C224 O210 1.253 . S
C224 O212 1.260 . S
C225 O214 1.279 . S
C225 O215 1.250 . S
C226 O216 1.263 1_554 S
C226 O220 1.248 . S
C227 O217 1.260 . S
C227 O221 1.253 . S
C228 O219 1.279 . S
C228 O222 1.250 . S
O229 Mg211 2.030 . S
O229 C223 1.248 . S
O230 Mg213 2.079 . S
O230 C223 1.264 . S
O231 Mg232 1.990 . S
O231 C245 1.253 . S
Mg232 O231 1.990 . S
Mg232 O235 2.180 . S
Mg232 O236 2.117 . S
Mg232 O250 2.030 . S
O233 Mg234 2.072 . S
O233 C245 1.260 . S
Mg234 O233 2.072 . S
Mg234 O235 2.099 . S
Mg234 O237 2.079 . S
Mg234 O238 2.072 . S
Mg234 O240 2.099 . S
Mg234 O251 2.079 . S
O235 Mg232 2.180 . S
O235 Mg234 2.099 . S
O235 C246 1.279 . S
O236 Mg232 2.117 . S
O236 C246 1.250 . S
O237 Mg234 2.079 . S
O237 C247 1.264 . S
O238 Mg234 2.072 . S
O238 C248 1.260 . S
Mg239 O240 2.180 1_455 S
Mg239 O241 2.030 1_455 S
Mg239 O242 1.990 1_455 S
Mg239 O243 2.117 . S
O240 Mg234 2.099 . S
O240 Mg239 2.180 1_655 S
O240 C249 1.279 1_655 S
O241 Mg239 2.030 1_655 S
O241 C247 1.248 . S
O242 Mg239 1.990 1_655 S
O242 C248 1.253 . S
O243 Mg239 2.117 . S
O243 C249 1.250 . S
C244 O250 1.248 . S
C244 O251 1.264 . S
C245 O231 1.253 . S
C245 O233 1.260 . S
C246 O235 1.279 . S
C246 O236 1.250 . S
C247 O237 1.264 . S
C247 O241 1.248 . S
C248 O238 1.260 . S
C248 O242 1.253 . S
C249 O240 1.279 1_455 S
C249 O243 1.250 . S
O250 Mg232 2.030 . S
O250 C244 1.248 . S
O251 Mg234 2.079 . S
O251 C244 1.264 . S
O252 Mg253 1.990 . S
O252 C266 1.253 . S
Mg253 O252 1.990 . S
Mg253 O256 2.180 . S
Mg253 O257 2.117 . S
Mg253 O271 2.030 . S
O254 Mg255 2.072 . S
O254 C266 1.260 . S
Mg255 O254 2.072 . S
Mg255 O256 2.099 . S
Mg255 O258 2.079 . S
Mg255 O259 2.072 . S
Mg255 O261 2.099 . S
Mg255 O272 2.079 . S
O256 Mg253 2.180 . S
O256 Mg255 2.099 . S
O256 C267 1.279 . S
O257 Mg253 2.117 . S
O257 C267 1.250 . S
O258 Mg255 2.079 . S
O258 C268 1.264 . S
O259 Mg255 2.072 . S
O259 C269 1.260 . S
Mg260 O261 2.180 . S
Mg260 O262 2.030 . S
Mg260 O263 1.990 . S
Mg260 O264 2.117 . S
O261 Mg255 2.099 . S
O261 Mg260 2.180 . S
O261 C270 1.279 . S
O262 Mg260 2.030 . S
O262 C268 1.248 . S
O263 Mg260 1.990 . S
O263 C269 1.253 . S
O264 Mg260 2.117 . S
O264 C270 1.250 . S
C265 O271 1.248 . S
C265 O272 1.264 . S
C266 O252 1.253 . S
C266 O254 1.260 . S
C267 O256 1.279 . S
C267 O257 1.250 . S
C268 O258 1.264 . S
C268 O262 1.248 . S
C269 O259 1.260 . S
C269 O263 1.253 . S
C270 O261 1.279 . S
C270 O264 1.250 . S
O271 Mg253 2.030 . S
O271 C265 1.248 . S
O272 Mg255 2.079 . S
O272 C265 1.264 . S
O273 Mg274 1.990 1_655 S
O273 C287 1.253 . S
Mg274 O273 1.990 1_455 S
Mg274 O277 2.180 . S
Mg274 O278 2.117 1_455 S
Mg274 O292 2.030 . S
O275 Mg276 2.072 1_655 S
O275 C287 1.260 . S
Mg276 O275 2.072 1_455 S
Mg276 O277 2.099 . S
Mg276 O279 2.079 . S
Mg276 O280 2.072 1_455 S
Mg276 O282 2.099 . S
Mg276 O293 2.079 . S
O277 Mg274 2.180 . S
O277 Mg276 2.099 . S
O277 C288 1.279 1_455 S
O278 Mg274 2.117 1_655 S
O278 C288 1.250 . S
O279 Mg276 2.079 . S
O279 C289 1.264 1_554 S
O280 Mg276 2.072 1_655 S
O280 C290 1.260 1_554 S
Mg281 O282 2.180 1_556 S
Mg281 O283 2.030 . S
Mg281 O284 1.990 1_455 S
Mg281 O285 2.117 1_456 S
O282 Mg276 2.099 . S
O282 Mg281 2.180 1_554 S
O282 C291 1.279 1_455 S
O283 Mg281 2.030 . S
O283 C289 1.248 . S
O284 Mg281 1.990 1_655 S
O284 C290 1.253 . S
O285 Mg281 2.117 1_654 S
O285 C291 1.250 . S
C286 O292 1.248 . S
C286 O293 1.264 . S
C287 O273 1.253 . S
C287 O275 1.260 . S
C288 O277 1.279 1_655 S
C288 O278 1.250 . S
C289 O279 1.264 1_556 S
C289 O283 1.248 . S
C290 O280 1.260 1_556 S
C290 O284 1.253 . S
C291 O282 1.279 1_655 S
C291 O285 1.250 . S
O292 Mg274 2.030 . S
O292 C286 1.248 . S
O293 Mg276 2.079 . S
O293 C286 1.264 . S
O294 Mg295 1.990 . S
O294 C308 1.253 . S
Mg295 O294 1.990 . S
Mg295 O298 2.180 . S
Mg295 O299 2.117 . S
Mg295 O313 2.030 . S
O296 Mg297 2.072 . S
O296 C308 1.260 . S
Mg297 O296 2.072 . S
Mg297 O298 2.099 . S
Mg297 O300 2.079 . S
Mg297 O301 2.072 . S
Mg297 O303 2.099 . S
Mg297 O314 2.079 . S
O298 Mg295 2.180 . S
O298 Mg297 2.099 . S
O298 C309 1.279 . S
O299 Mg295 2.117 . S
O299 C309 1.250 . S
O300 Mg297 2.079 . S
O300 C310 1.264 . S
O301 Mg297 2.072 . S
O301 C311 1.260 . S
Mg302 O303 2.180 . S
Mg302 O304 2.030 . S
Mg302 O305 1.990 . S
Mg302 O306 2.117 . S
O303 Mg297 2.099 . S
O303 Mg302 2.180 . S
O303 C312 1.279 . S
O304 Mg302 2.030 . S
O304 C310 1.248 . S
O305 Mg302 1.990 . S
O305 C311 1.253 . S
O306 Mg302 2.117 . S
O306 C312 1.250 . S
C307 O313 1.248 . S
C307 O314 1.264 . S
C308 O294 1.253 . S
C308 O296 1.260 . S
C309 O298 1.279 . S
C309 O299 1.250 . S
C310 O300 1.264 . S
C310 O304 1.248 . S
C311 O301 1.260 . S
C311 O305 1.253 . S
C312 O303 1.279 . S
C312 O306 1.250 . S
O313 Mg295 2.030 . S
O313 C307 1.248 . S
O314 Mg297 2.079 . S
O314 C307 1.264 . S
O315 Mg316 1.990 1_655 S
O315 C329 1.253 . S
Mg316 O315 1.990 1_455 S
Mg316 O319 2.180 . S
Mg316 O320 2.117 1_455 S
Mg316 O334 2.030 . S
O317 Mg318 2.072 1_655 S
O317 C329 1.260 . S
Mg318 O317 2.072 1_455 S
Mg318 O319 2.099 . S
Mg318 O321 2.079 . S
Mg318 O322 2.072 1_455 S
Mg318 O324 2.099 . S
Mg318 O335 2.079 . S
O319 Mg316 2.180 . S
O319 Mg318 2.099 . S
O319 C330 1.279 1_455 S
O320 Mg316 2.117 1_655 S
O320 C330 1.250 . S
O321 Mg318 2.079 . S
O321 C331 1.264 1_556 S
O322 Mg318 2.072 1_655 S
O322 C332 1.260 1_556 S
Mg323 O324 2.180 1_554 S
Mg323 O325 2.030 . S
Mg323 O326 1.990 1_455 S
Mg323 O327 2.117 1_454 S
O324 Mg318 2.099 . S
O324 Mg323 2.180 1_556 S
O324 C333 1.279 1_455 S
O325 Mg323 2.030 . S
O325 C331 1.248 . S
O326 Mg323 1.990 1_655 S
O326 C332 1.253 . S
O327 Mg323 2.117 1_656 S
O327 C333 1.250 . S
C328 O334 1.248 . S
C328 O335 1.264 . S
C329 O315 1.253 . S
C329 O317 1.260 . S
C330 O319 1.279 1_655 S
C330 O320 1.250 . S
C331 O321 1.264 1_554 S
C331 O325 1.248 . S
C332 O322 1.260 1_554 S
C332 O326 1.253 . S
C333 O324 1.279 1_655 S
C333 O327 1.250 . S
O334 Mg316 2.030 . S
O334 C328 1.248 . S
O335 Mg318 2.079 . S
O335 C328 1.264 . S
C17 C161 1.331 . S
C35 C101 1.331 . S
C122 C59 1.331 . S
C80 C143 1.331 . S
C247 C100 1.049 . S
C184 C16 1.049 . S
C223 C142 1.049 . S
C58 C202 1.049 . S
C203 C269 1.331 . S
C224 C311 1.331 . S
C290 C185 1.331 . S
C248 C332 1.331 . S
C310 C79 1.049 . S
C268 C121 1.049 . S
C34 C331 1.049 . S
C160 C289 1.049 . S
C291 C18 1.149 1_655 S
C249 C36 1.149 1_455 S
C270 C60 1.149 . S
C225 C81 1.149 . S
C102 C333 1.149 1_455 S
C204 C123 1.149 . S
C144 C312 1.149 . S
C162 C186 1.149 1_655 S
C15 C99 2.875 1_564 S
C39 C120 2.875 . S
C141 C57 2.875 1_565 S
C78 C165 2.875 . S
C228 C183 2.875 . S
C246 C207 2.875 . S
C267 C309 2.875 . S
C330 C288 2.875 1_556 S
C14 C164 2.048 . S
C38 C98 2.048 . S
C119 C56 2.048 . S
C140 C77 2.048 . S
C244 C97 2.002 . S
C181 C13 2.002 . S
C226 C139 2.002 . S
C55 C205 2.002 . S
C266 C206 2.048 . S
C308 C227 2.048 . S
C287 C182 2.048 . S
C329 C245 2.048 . S
C307 C76 2.002 . S
C118 C265 2.002 . S
C37 C328 2.002 . S
C286 C163 2.002 . S
