# Generated by pormake.
# Topology umk, (4)-cn, num edge types: 1
# Building blocks:
#     Node 0, Type 0, BuildingBlock: GALJAG_clean_sbu_0, # of connection points: 4
#     Node 1, Type 0, BuildingBlock: GALJAG_clean_sbu_0, # of connection points: 4
#     Node 2, Type 0, BuildingBlock: GALJAG_clean_sbu_0, # of connection points: 4
#     Node 3, Type 0, BuildingBlock: GALJAG_clean_sbu_0, # of connection points: 4
#     Node 4, Type 0, BuildingBlock: GALJAG_clean_sbu_0, # of connection points: 4
#     Node 5, Type 0, BuildingBlock: GALJAG_clean_sbu_0, # of connection points: 4
#     Node 6, Type 0, BuildingBlock: GALJAG_clean_sbu_0, # of connection points: 4
#     Node 7, Type 0, BuildingBlock: GALJAG_clean_sbu_0, # of connection points: 4
#     Node 8, Type 0, BuildingBlock: GALJAG_clean_sbu_0, # of connection points: 4
#     Node 9, Type 0, BuildingBlock: GALJAG_clean_sbu_0, # of connection points: 4
#     Node 10, Type 0, BuildingBlock: GALJAG_clean_sbu_0, # of connection points: 4
#     Node 11, Type 0, BuildingBlock: GALJAG_clean_sbu_0, # of connection points: 4
#     Node 12, Type 0, BuildingBlock: GALJAG_clean_sbu_0, # of connection points: 4
#     Node 13, Type 0, BuildingBlock: GALJAG_clean_sbu_0, # of connection points: 4
#     Node 14, Type 0, BuildingBlock: GALJAG_clean_sbu_0, # of connection points: 4
#     Node 15, Type 0, BuildingBlock: GALJAG_clean_sbu_0, # of connection points: 4
#     Node 16, Type 0, BuildingBlock: GALJAG_clean_sbu_0, # of connection points: 4
#     Node 17, Type 0, BuildingBlock: GALJAG_clean_sbu_0, # of connection points: 4
#     Node 18, Type 0, BuildingBlock: GALJAG_clean_sbu_0, # of connection points: 4
#     Node 19, Type 0, BuildingBlock: GALJAG_clean_sbu_0, # of connection points: 4
#     Node 20, Type 0, BuildingBlock: GALJAG_clean_sbu_0, # of connection points: 4
#     Node 21, Type 0, BuildingBlock: GALJAG_clean_sbu_0, # of connection points: 4
#     Node 22, Type 0, BuildingBlock: GALJAG_clean_sbu_0, # of connection points: 4
#     Node 23, Type 0, BuildingBlock: GALJAG_clean_sbu_0, # of connection points: 4
#     Edge 24, Type (0, 0), BuildingBlock: XIVTED_clean_linker_0, # of connection points: 2
#     Edge 25, Type (0, 0), BuildingBlock: XIVTED_clean_linker_0, # of connection points: 2
#     Edge 26, Type (0, 0), BuildingBlock: XIVTED_clean_linker_0, # of connection points: 2
#     Edge 27, Type (0, 0), BuildingBlock: XIVTED_clean_linker_0, # of connection points: 2
#     Edge 28, Type (0, 0), BuildingBlock: XIVTED_clean_linker_0, # of connection points: 2
#     Edge 29, Type (0, 0), BuildingBlock: XIVTED_clean_linker_0, # of connection points: 2
#     Edge 30, Type (0, 0), BuildingBlock: XIVTED_clean_linker_0, # of connection points: 2
#     Edge 31, Type (0, 0), BuildingBlock: XIVTED_clean_linker_0, # of connection points: 2
#     Edge 32, Type (0, 0), BuildingBlock: XIVTED_clean_linker_0, # of connection points: 2
#     Edge 33, Type (0, 0), BuildingBlock: XIVTED_clean_linker_0, # of connection points: 2
#     Edge 34, Type (0, 0), BuildingBlock: XIVTED_clean_linker_0, # of connection points: 2
#     Edge 35, Type (0, 0), BuildingBlock: XIVTED_clean_linker_0, # of connection points: 2
#     Edge 36, Type (0, 0), BuildingBlock: XIVTED_clean_linker_0, # of connection points: 2
#     Edge 37, Type (0, 0), BuildingBlock: XIVTED_clean_linker_0, # of connection points: 2
#     Edge 38, Type (0, 0), BuildingBlock: XIVTED_clean_linker_0, # of connection points: 2
#     Edge 39, Type (0, 0), BuildingBlock: XIVTED_clean_linker_0, # of connection points: 2
#     Edge 40, Type (0, 0), BuildingBlock: XIVTED_clean_linker_0, # of connection points: 2
#     Edge 41, Type (0, 0), BuildingBlock: XIVTED_clean_linker_0, # of connection points: 2
#     Edge 42, Type (0, 0), BuildingBlock: XIVTED_clean_linker_0, # of connection points: 2
#     Edge 43, Type (0, 0), BuildingBlock: XIVTED_clean_linker_0, # of connection points: 2
#     Edge 44, Type (0, 0), BuildingBlock: XIVTED_clean_linker_0, # of connection points: 2
#     Edge 45, Type (0, 0), BuildingBlock: XIVTED_clean_linker_0, # of connection points: 2
#     Edge 46, Type (0, 0), BuildingBlock: XIVTED_clean_linker_0, # of connection points: 2
#     Edge 47, Type (0, 0), BuildingBlock: XIVTED_clean_linker_0, # of connection points: 2
#     Edge 48, Type (0, 0), BuildingBlock: XIVTED_clean_linker_0, # of connection points: 2
#     Edge 49, Type (0, 0), BuildingBlock: XIVTED_clean_linker_0, # of connection points: 2
#     Edge 50, Type (0, 0), BuildingBlock: XIVTED_clean_linker_0, # of connection points: 2
#     Edge 51, Type (0, 0), BuildingBlock: XIVTED_clean_linker_0, # of connection points: 2
#     Edge 52, Type (0, 0), BuildingBlock: XIVTED_clean_linker_0, # of connection points: 2
#     Edge 53, Type (0, 0), BuildingBlock: XIVTED_clean_linker_0, # of connection points: 2
#     Edge 54, Type (0, 0), BuildingBlock: XIVTED_clean_linker_0, # of connection points: 2
#     Edge 55, Type (0, 0), BuildingBlock: XIVTED_clean_linker_0, # of connection points: 2
#     Edge 56, Type (0, 0), BuildingBlock: XIVTED_clean_linker_0, # of connection points: 2
#     Edge 57, Type (0, 0), BuildingBlock: XIVTED_clean_linker_0, # of connection points: 2
#     Edge 58, Type (0, 0), BuildingBlock: XIVTED_clean_linker_0, # of connection points: 2
#     Edge 59, Type (0, 0), BuildingBlock: XIVTED_clean_linker_0, # of connection points: 2
#     Edge 60, Type (0, 0), BuildingBlock: XIVTED_clean_linker_0, # of connection points: 2
#     Edge 61, Type (0, 0), BuildingBlock: XIVTED_clean_linker_0, # of connection points: 2
#     Edge 62, Type (0, 0), BuildingBlock: XIVTED_clean_linker_0, # of connection points: 2
#     Edge 63, Type (0, 0), BuildingBlock: XIVTED_clean_linker_0, # of connection points: 2
#     Edge 64, Type (0, 0), BuildingBlock: XIVTED_clean_linker_0, # of connection points: 2
#     Edge 65, Type (0, 0), BuildingBlock: XIVTED_clean_linker_0, # of connection points: 2
#     Edge 66, Type (0, 0), BuildingBlock: XIVTED_clean_linker_0, # of connection points: 2
#     Edge 67, Type (0, 0), BuildingBlock: XIVTED_clean_linker_0, # of connection points: 2
#     Edge 68, Type (0, 0), BuildingBlock: XIVTED_clean_linker_0, # of connection points: 2
#     Edge 69, Type (0, 0), BuildingBlock: XIVTED_clean_linker_0, # of connection points: 2
#     Edge 70, Type (0, 0), BuildingBlock: XIVTED_clean_linker_0, # of connection points: 2
#     Edge 71, Type (0, 0), BuildingBlock: XIVTED_clean_linker_0, # of connection points: 2
# Relax obj value: 0.088
# Max RMSD: 0.064
# Mean RMSD: 0.064
data_MOF--net-umk--node1-GALJAG_clean_sbu_0--edge1-XIVTED_clean_linker_0
_symmetry_space_group_name_H-M    P1
_symmetry_Int_Tables_number       1
_symmetry_cell_setting            triclinic
loop_
_symmetry_equiv_pos_as_xyz
'x, y, z'
_cell_length_a     64.216992
_cell_length_b     64.213444
_cell_length_c     47.42795
_cell_angle_alpha  89.967782
_cell_angle_beta   90.057931
_cell_angle_gamma 120.01977
loop_
_atom_site_label
_atom_site_type_symbol
_atom_site_fract_x
_atom_site_fract_y
_atom_site_fract_z
_atom_type_partial_charge
In0 In 0.32517 0.46603 0.08676 0.0
O1 O 0.29103 0.44381 0.06071 0.0
O2 O 0.29871 0.47819 0.07571 0.0
C3 C 0.3436 0.43661 0.09058 0.0
C4 C 0.3592 0.50109 0.05437 0.0
C5 C 0.3152 0.46838 0.14139 0.0
O6 O 0.32436 0.43057 0.07722 0.0
O7 O 0.35317 0.45716 0.10172 0.0
O8 O 0.33008 0.48663 0.12758 0.0
O9 O 0.30503 0.44903 0.12747 0.0
C10 C 0.28481 0.45961 0.06178 0.0
O11 O 0.35732 0.50377 0.08042 0.0
O12 O 0.34387 0.48085 0.04468 0.0
In13 In 0.85605 0.32994 0.58723 0.0
O14 O 0.84144 0.29438 0.56331 0.0
O15 O 0.81886 0.3096 0.56795 0.0
C16 C 0.90263 0.34281 0.59428 0.0
C17 C 0.86184 0.36759 0.55602 0.0
C18 C 0.83916 0.31907 0.64038 0.0
O19 O 0.88926 0.32676 0.57687 0.0
O20 O 0.89244 0.35202 0.60795 0.0
O21 O 0.84002 0.33641 0.62682 0.0
O22 O 0.84624 0.30684 0.62685 0.0
C23 C 0.82145 0.29285 0.55794 0.0
O24 O 0.85481 0.36462 0.58131 0.0
O25 O 0.86605 0.3517 0.54664 0.0
In26 In 0.53079 0.86288 0.08454 0.0
O27 O 0.55289 0.85108 0.05798 0.0
O28 O 0.51988 0.82419 0.07573 0.0
C29 C 0.56711 0.90886 0.07874 0.0
C30 C 0.492 0.85991 0.05832 0.0
C31 C 0.5238 0.85095 0.13963 0.0
O32 O 0.55342 0.8971 0.05865 0.0
O33 O 0.56278 0.89734 0.10149 0.0
O34 O 0.50948 0.85502 0.12561 0.0
O35 O 0.54141 0.85277 0.12582 0.0
C36 C 0.53783 0.82893 0.06057 0.0
O37 O 0.50241 0.84878 0.05023 0.0
O38 O 0.50095 0.87259 0.08014 0.0
In39 In 0.66542 0.52944 0.59036 0.0
O40 O 0.69956 0.55165 0.56427 0.0
O41 O 0.69083 0.51647 0.57727 0.0
C42 C 0.64682 0.55884 0.59331 0.0
C43 C 0.63137 0.49398 0.5585 0.0
C44 C 0.67581 0.52672 0.64484 0.0
O45 O 0.66645 0.56503 0.58085 0.0
O46 O 0.63699 0.53818 0.6042 0.0
O47 O 0.66045 0.50874 0.63108 0.0
O48 O 0.68624 0.54609 0.63098 0.0
C49 C 0.70497 0.53524 0.56381 0.0
O50 O 0.63348 0.49155 0.58458 0.0
O51 O 0.64636 0.51427 0.54858 0.0
In52 In 0.13193 0.66173 0.09341 0.0
O53 O 0.1443 0.69827 0.072 0.0
O54 O 0.16463 0.68087 0.0656 0.0
C55 C 0.08551 0.64882 0.10103 0.0
C56 C 0.12809 0.62418 0.06365 0.0
C57 C 0.15005 0.67159 0.14622 0.0
O58 O 0.09808 0.66302 0.08158 0.0
O59 O 0.09647 0.64147 0.11657 0.0
O60 O 0.14461 0.65219 0.13373 0.0
O61 O 0.1468 0.68627 0.13186 0.0
C62 C 0.16207 0.69863 0.06015 0.0
O63 O 0.14511 0.63602 0.08068 0.0
O64 O 0.11273 0.63089 0.0621 0.0
In65 In 0.46312 0.13409 0.59283 0.0
O66 O 0.50018 0.13801 0.58651 0.0
O67 O 0.47626 0.12677 0.55152 0.0
C68 C 0.46825 0.14986 0.64645 0.0
C69 C 0.45815 0.16757 0.56437 0.0
C70 C 0.43203 0.08658 0.59812 0.0
O71 O 0.48538 0.15078 0.63244 0.0
O72 O 0.44863 0.14149 0.63319 0.0
O73 O 0.42754 0.09983 0.58257 0.0
O74 O 0.45188 0.09737 0.61091 0.0
C75 C 0.49668 0.13191 0.56088 0.0
O76 O 0.44038 0.14704 0.56962 0.0
O77 O 0.47794 0.17122 0.5742 0.0
In78 In 0.52678 0.66339 0.90611 0.0
O79 O 0.55057 0.69902 0.92892 0.0
O80 O 0.5131 0.68648 0.92535 0.0
C81 C 0.55692 0.64577 0.9019 0.0
C82 C 0.49164 0.62796 0.93695 0.0
C83 C 0.52327 0.6751 0.85239 0.0
O84 O 0.56127 0.66316 0.91796 0.0
O85 O 0.53759 0.63752 0.88814 0.0
O86 O 0.50552 0.65919 0.86594 0.0
O87 O 0.54269 0.68548 0.86615 0.0
C88 C 0.53326 0.70235 0.93468 0.0
O89 O 0.48887 0.63123 0.91128 0.0
O90 O 0.51215 0.64235 0.94687 0.0
In91 In 0.86171 0.53109 0.40579 0.0
O92 O 0.85909 0.49456 0.41179 0.0
O93 O 0.87123 0.51883 0.44642 0.0
C94 C 0.84421 0.52426 0.35284 0.0
C95 C 0.82818 0.53533 0.43512 0.0
C96 C 0.90859 0.56395 0.39879 0.0
O97 O 0.84517 0.508 0.36673 0.0
O98 O 0.85154 0.54383 0.36593 0.0
O99 O 0.89561 0.5668 0.41658 0.0
O100 O 0.89787 0.54482 0.38468 0.0
C101 C 0.86619 0.49845 0.43707 0.0
O102 O 0.84796 0.55344 0.42823 0.0
O103 O 0.82524 0.51545 0.42654 0.0
In104 In 0.32613 0.85866 0.91013 0.0
O105 O 0.35522 0.84901 0.91898 0.0
O106 O 0.34802 0.86779 0.95081 0.0
C107 C 0.31703 0.84574 0.85555 0.0
C108 C 0.2859 0.82501 0.93573 0.0
C109 C 0.34327 0.90612 0.90393 0.0
O110 O 0.3337 0.84527 0.86917 0.0
O111 O 0.30472 0.85242 0.8696 0.0
O112 O 0.32456 0.89302 0.91817 0.0
O113 O 0.35306 0.89524 0.89308 0.0
C114 C 0.3602 0.8583 0.94324 0.0
O115 O 0.29216 0.84703 0.93652 0.0
O116 O 0.29972 0.82021 0.92191 0.0
In117 In 0.46573 0.33102 0.40901 0.0
O118 O 0.44312 0.29706 0.43527 0.0
O119 O 0.47789 0.30489 0.42173 0.0
C120 C 0.43729 0.35067 0.40591 0.0
C121 C 0.50149 0.36459 0.44096 0.0
C122 C 0.46778 0.32063 0.35442 0.0
O123 O 0.43048 0.33078 0.4181 0.0
O124 O 0.4581 0.36025 0.39547 0.0
O125 O 0.48608 0.33547 0.36815 0.0
O126 O 0.44846 0.31067 0.36839 0.0
C127 C 0.45913 0.29111 0.43543 0.0
O128 O 0.50394 0.36236 0.41492 0.0
O129 O 0.48105 0.34994 0.4508 0.0
In130 In 0.1323 0.46943 0.90171 0.0
O131 O 0.14545 0.50847 0.91368 0.0
O132 O 0.11393 0.48133 0.93381 0.0
C133 C 0.1498 0.47647 0.84869 0.0
C134 C 0.16252 0.46281 0.93502 0.0
C135 C 0.08574 0.43636 0.89397 0.0
O136 O 0.14504 0.49101 0.86097 0.0
O137 O 0.14626 0.45862 0.8634 0.0
O138 O 0.09839 0.43414 0.91288 0.0
O139 O 0.09666 0.45508 0.87909 0.0
C140 C 0.129 0.50343 0.93147 0.0
O141 O 0.14403 0.44528 0.92438 0.0
O142 O 0.1658 0.48319 0.92828 0.0
In143 In 0.658 0.13438 0.40347 0.0
O144 O 0.69343 0.14777 0.42723 0.0
O145 O 0.6812 0.17252 0.41939 0.0
C146 C 0.64248 0.08697 0.3992 0.0
C147 C 0.62282 0.13289 0.43592 0.0
C148 C 0.6673 0.14783 0.34896 0.0
O149 O 0.66047 0.10079 0.41408 0.0
O150 O 0.63262 0.09711 0.38671 0.0
O151 O 0.65015 0.1475 0.36232 0.0
O152 O 0.68017 0.14202 0.36333 0.0
C153 C 0.69694 0.16881 0.43044 0.0
O154 O 0.62578 0.13968 0.41053 0.0
O155 O 0.63751 0.12681 0.44483 0.0
In156 In 0.66397 0.52588 0.90821 0.0
O157 O 0.69883 0.54787 0.93314 0.0
O158 O 0.68731 0.51123 0.92405 0.0
C159 C 0.64711 0.55661 0.90388 0.0
C160 C 0.62843 0.49155 0.93967 0.0
C161 C 0.67506 0.52303 0.85413 0.0
O162 O 0.66527 0.56137 0.91881 0.0
O163 O 0.63781 0.53665 0.89133 0.0
O164 O 0.6591 0.50515 0.8675 0.0
O165 O 0.68581 0.54222 0.86826 0.0
C166 C 0.7026 0.53046 0.93586 0.0
O167 O 0.63121 0.48844 0.91396 0.0
O168 O 0.64346 0.51192 0.94935 0.0
In169 In 0.13349 0.66407 0.40704 0.0
O170 O 0.14814 0.69998 0.43013 0.0
O171 O 0.17022 0.68405 0.42753 0.0
C172 C 0.08701 0.65171 0.40009 0.0
C173 C 0.12741 0.62604 0.4377 0.0
C174 C 0.15118 0.67469 0.35422 0.0
O175 O 0.10043 0.66735 0.41784 0.0
O176 O 0.09712 0.64268 0.38593 0.0
O177 O 0.14966 0.65715 0.36797 0.0
O178 O 0.14428 0.68724 0.36736 0.0
C179 C 0.1678 0.70119 0.43655 0.0
O180 O 0.13433 0.62917 0.41237 0.0
O181 O 0.12346 0.642 0.44746 0.0
In182 In 0.46407 0.13243 0.90882 0.0
O183 O 0.44125 0.14483 0.93286 0.0
O184 O 0.4789 0.16884 0.92946 0.0
C185 C 0.4325 0.0852 0.90273 0.0
C186 C 0.49825 0.13032 0.93967 0.0
C187 C 0.46858 0.14814 0.85519 0.0
O188 O 0.42846 0.09839 0.91893 0.0
O189 O 0.45222 0.09591 0.88967 0.0
O190 O 0.485 0.14655 0.86787 0.0
O191 O 0.44999 0.14222 0.86973 0.0
C192 C 0.45903 0.16506 0.93908 0.0
O193 O 0.50267 0.14114 0.91631 0.0
O194 O 0.47655 0.12034 0.94731 0.0
In195 In 0.32744 0.46879 0.40581 0.0
O196 O 0.29335 0.44636 0.43181 0.0
O197 O 0.30143 0.48121 0.41825 0.0
C198 C 0.34652 0.4398 0.40392 0.0
C199 C 0.36135 0.50468 0.43734 0.0
C200 C 0.3172 0.47064 0.35105 0.0
O201 O 0.32668 0.43345 0.41594 0.0
O202 O 0.35635 0.46043 0.39294 0.0
O203 O 0.33185 0.48902 0.36479 0.0
O204 O 0.30738 0.45134 0.36507 0.0
C205 C 0.28749 0.46244 0.43184 0.0
O206 O 0.35934 0.50678 0.41116 0.0
O207 O 0.34628 0.48455 0.44754 0.0
In208 In 0.86008 0.33015 0.90161 0.0
O209 O 0.84736 0.29418 0.92388 0.0
O210 O 0.82408 0.30883 0.92341 0.0
C211 C 0.90714 0.34504 0.89458 0.0
C212 C 0.86397 0.36673 0.93345 0.0
C213 C 0.84228 0.31894 0.84877 0.0
O214 O 0.8941 0.32842 0.91152 0.0
O215 O 0.89641 0.35385 0.88122 0.0
O216 O 0.84321 0.33625 0.86242 0.0
O217 O 0.84982 0.30696 0.86202 0.0
C218 C 0.82761 0.29215 0.93156 0.0
O219 O 0.85645 0.36344 0.90832 0.0
O220 O 0.86968 0.35175 0.94232 0.0
In221 In 0.52431 0.86028 0.40327 0.0
O222 O 0.48672 0.85466 0.41047 0.0
O223 O 0.51163 0.86845 0.44445 0.0
C224 C 0.51882 0.84562 0.34916 0.0
C225 C 0.52984 0.82673 0.4309 0.0
C226 C 0.55535 0.90781 0.39788 0.0
O227 O 0.50214 0.84561 0.36321 0.0
O228 O 0.53809 0.85232 0.3627 0.0
O229 O 0.55967 0.89474 0.41396 0.0
O230 O 0.53571 0.89687 0.38473 0.0
C231 C 0.4907 0.86193 0.43568 0.0
O232 O 0.54745 0.84734 0.42558 0.0
O233 O 0.50989 0.82301 0.42151 0.0
In234 In 0.46327 0.32896 0.09013 0.0
O235 O 0.50083 0.36142 0.08411 0.0
O236 O 0.47809 0.34785 0.04819 0.0
C237 C 0.46569 0.31908 0.14483 0.0
C238 C 0.45807 0.28923 0.06483 0.0
C239 C 0.43312 0.3466 0.09259 0.0
O240 O 0.48376 0.33442 0.13118 0.0
O241 O 0.44646 0.30841 0.13073 0.0
O242 O 0.42773 0.3275 0.0793 0.0
O243 O 0.45341 0.35642 0.10444 0.0
C244 C 0.49826 0.36325 0.05801 0.0
O245 O 0.44133 0.29416 0.06517 0.0
O246 O 0.47694 0.30401 0.0777 0.0
In247 In 0.12786 0.46293 0.58809 0.0
O248 O 0.12936 0.49901 0.58315 0.0
O249 O 0.11852 0.47566 0.54768 0.0
C250 C 0.14599 0.47024 0.64076 0.0
C251 C 0.16175 0.45956 0.55845 0.0
C252 C 0.08109 0.42941 0.59458 0.0
O253 O 0.14461 0.48626 0.62686 0.0
O254 O 0.13864 0.45058 0.62786 0.0
O255 O 0.09428 0.42715 0.57658 0.0
O256 O 0.09157 0.44825 0.60925 0.0
C257 C 0.12277 0.49561 0.55768 0.0
O258 O 0.14238 0.44115 0.56582 0.0
O259 O 0.16408 0.47928 0.56664 0.0
In260 In 0.6663 0.13247 0.0839 0.0
O261 O 0.7007 0.14476 0.05817 0.0
O262 O 0.69379 0.17136 0.07512 0.0
C263 C 0.65731 0.08679 0.07769 0.0
C264 C 0.62998 0.13386 0.05682 0.0
C265 C 0.66973 0.14393 0.13908 0.0
O266 O 0.65632 0.09896 0.05743 0.0
O267 O 0.6634 0.09783 0.10085 0.0
O268 O 0.65206 0.14061 0.1241 0.0
O269 O 0.68565 0.14167 0.12616 0.0
C270 C 0.70738 0.16683 0.0604 0.0
O271 O 0.65171 0.14648 0.04979 0.0
O272 O 0.62635 0.12064 0.07809 0.0
In273 In 0.52638 0.66629 0.58882 0.0
O274 O 0.48822 0.63475 0.58341 0.0
O275 O 0.51109 0.6464 0.5475 0.0
C276 C 0.52417 0.6772 0.6432 0.0
C277 C 0.53192 0.7054 0.56129 0.0
C278 C 0.55553 0.64744 0.59245 0.0
O279 O 0.50609 0.66163 0.62976 0.0
O280 O 0.54336 0.68766 0.62904 0.0
O281 O 0.56187 0.66699 0.57968 0.0
O282 O 0.53484 0.63779 0.6032 0.0
C283 C 0.49065 0.63198 0.55751 0.0
O284 O 0.54839 0.70009 0.56198 0.0
O285 O 0.51329 0.69147 0.57509 0.0
In286 In 0.86022 0.52465 0.09121 0.0
O287 O 0.85786 0.48824 0.08481 0.0
O288 O 0.86859 0.51227 0.05 0.0
C289 C 0.84381 0.51941 0.1445 0.0
C290 C 0.82595 0.52824 0.06272 0.0
C291 C 0.9071 0.5576 0.09764 0.0
O292 O 0.8443 0.50263 0.13122 0.0
O293 O 0.85114 0.53863 0.1307 0.0
O294 O 0.89359 0.56094 0.08116 0.0
O295 O 0.89693 0.53786 0.11067 0.0
C296 C 0.86413 0.49204 0.05924 0.0
O297 O 0.84649 0.54627 0.06718 0.0
O298 O 0.8227 0.50878 0.07318 0.0
In299 In 0.32934 0.85992 0.59241 0.0
O300 O 0.36251 0.85604 0.58616 0.0
O301 O 0.34947 0.86664 0.55095 0.0
C302 C 0.31859 0.84511 0.64628 0.0
C303 C 0.29071 0.82589 0.5647 0.0
C304 C 0.34551 0.90735 0.59774 0.0
O305 O 0.33481 0.84389 0.63263 0.0
O306 O 0.30741 0.8533 0.63253 0.0
O307 O 0.32745 0.89396 0.58268 0.0
O308 O 0.35508 0.89678 0.60988 0.0
C309 C 0.36489 0.86175 0.56041 0.0
O310 O 0.29454 0.84709 0.56741 0.0
O311 O 0.30596 0.8219 0.57656 0.0
H312 H 0.28572 0.4312 0.17607 0.0
H313 H 0.33705 0.50983 0.31632 0.0
H314 H 0.33624 0.50749 0.17623 0.0
H315 H 0.28852 0.4331 0.31629 0.0
H316 H 0.33331 0.51009 0.26506 0.0
H317 H 0.28283 0.4323 0.22737 0.0
C318 C 0.29602 0.44823 0.18689 0.0
C319 C 0.3114 0.46925 0.17194 0.0
C320 C 0.32331 0.49322 0.27627 0.0
C321 C 0.30831 0.47064 0.23062 0.0
C322 C 0.32542 0.49307 0.30553 0.0
C323 C 0.31323 0.47138 0.32051 0.0
C324 C 0.30897 0.4715 0.26187 0.0
C325 C 0.29834 0.4502 0.30551 0.0
C326 C 0.2944 0.44885 0.21618 0.0
C327 C 0.32427 0.49084 0.18698 0.0
N328 N 0.29677 0.45077 0.27698 0.0
N329 N 0.32258 0.49094 0.21553 0.0
H330 H 0.82562 0.34442 0.67469 0.0
H331 H 0.84002 0.28359 0.81464 0.0
H332 H 0.83872 0.28474 0.67487 0.0
H333 H 0.82889 0.34452 0.81455 0.0
H334 H 0.83357 0.27991 0.76367 0.0
H335 H 0.82072 0.34091 0.72589 0.0
C336 C 0.82714 0.33036 0.68547 0.0
C337 C 0.83285 0.31501 0.67058 0.0
C338 C 0.83227 0.29393 0.77482 0.0
C339 C 0.82748 0.31101 0.72916 0.0
C340 C 0.83592 0.29601 0.80393 0.0
C341 C 0.83526 0.31455 0.81877 0.0
C342 C 0.82806 0.31061 0.76042 0.0
C343 C 0.82974 0.33007 0.80388 0.0
C344 C 0.82439 0.32839 0.71471 0.0
C345 C 0.83451 0.29706 0.68557 0.0
N346 N 0.82661 0.32791 0.77547 0.0
N347 N 0.8321 0.29572 0.71408 0.0
H348 H 0.48102 0.83593 0.31447 0.0
H349 H 0.55365 0.84378 0.17413 0.0
H350 H 0.5522 0.84476 0.3142 0.0
H351 H 0.48764 0.84611 0.17449 0.0
H352 H 0.55043 0.83796 0.22517 0.0
H353 H 0.48015 0.8332 0.26301 0.0
C354 C 0.49634 0.83697 0.3036 0.0
C355 C 0.5168 0.84077 0.31858 0.0
C356 C 0.53656 0.83959 0.21409 0.0
C357 C 0.51599 0.83783 0.25976 0.0
C358 C 0.53837 0.84289 0.18494 0.0
C359 C 0.52098 0.84564 0.17012 0.0
C360 C 0.51721 0.83901 0.22854 0.0
C361 C 0.50152 0.84422 0.18516 0.0
C362 C 0.49586 0.83551 0.27423 0.0
C363 C 0.53612 0.84197 0.30345 0.0
N364 N 0.50022 0.84114 0.2136 0.0
N365 N 0.53531 0.84067 0.27484 0.0
H366 H 0.65364 0.48408 0.8191 0.0
H367 H 0.70651 0.56325 0.67964 0.0
H368 H 0.7057 0.55996 0.81985 0.0
H369 H 0.65432 0.4874 0.67924 0.0
H370 H 0.71 0.5615 0.73083 0.0
H371 H 0.65725 0.48397 0.76783 0.0
C372 C 0.66604 0.50066 0.80849 0.0
C373 C 0.67923 0.52211 0.82368 0.0
C374 C 0.69795 0.54519 0.71953 0.0
C375 C 0.68331 0.52219 0.76501 0.0
C376 C 0.69597 0.54618 0.69031 0.0
C377 C 0.67994 0.52548 0.67525 0.0
C378 C 0.68371 0.52336 0.73377 0.0
C379 C 0.66677 0.50382 0.69008 0.0
C380 C 0.66807 0.50061 0.77921 0.0
C381 C 0.6951 0.54306 0.8089 0.0
N382 N 0.6688 0.50337 0.71855 0.0
N383 N 0.69652 0.54263 0.78034 0.0
H384 H 0.15497 0.71056 0.31969 0.0
H385 H 0.15929 0.64318 0.18085 0.0
H386 H 0.1626 0.6475 0.32032 0.0
H387 H 0.15676 0.70907 0.17978 0.0
H388 H 0.16564 0.64732 0.23179 0.0
H389 H 0.16071 0.71329 0.26859 0.0
C390 C 0.15818 0.69748 0.30911 0.0
C391 C 0.15802 0.67861 0.32417 0.0
C392 C 0.16399 0.66105 0.2204 0.0
C393 C 0.16435 0.68145 0.26573 0.0
C394 C 0.16038 0.65869 0.19131 0.0
C395 C 0.15721 0.67567 0.17616 0.0
C396 C 0.16421 0.6804 0.23449 0.0
C397 C 0.15894 0.69548 0.19072 0.0
C398 C 0.16144 0.69903 0.27993 0.0
C399 C 0.16239 0.66223 0.30946 0.0
N400 N 0.16201 0.69715 0.21914 0.0
N401 N 0.16509 0.66386 0.28101 0.0
H402 H 0.43413 0.14899 0.82202 0.0
H403 H 0.50797 0.16598 0.68 0.0
H404 H 0.50658 0.1612 0.81965 0.0
H405 H 0.43335 0.14709 0.68186 0.0
H406 H 0.50978 0.17081 0.73119 0.0
H407 H 0.43556 0.15466 0.7709 0.0
C408 C 0.45044 0.15315 0.81077 0.0
C409 C 0.47018 0.15437 0.82501 0.0
C410 C 0.49307 0.16584 0.72039 0.0
C411 C 0.4719 0.16074 0.76658 0.0
C412 C 0.49204 0.16314 0.69116 0.0
C413 C 0.4704 0.15587 0.67673 0.0
C414 C 0.47229 0.16117 0.73532 0.0
C415 C 0.45035 0.15254 0.69221 0.0
C416 C 0.45123 0.15634 0.7816 0.0
C417 C 0.49088 0.1599 0.80945 0.0
N418 N 0.45171 0.15499 0.72071 0.0
N419 N 0.49113 0.16268 0.78104 0.0
H420 H 0.5611 0.70797 0.67754 0.0
H421 H 0.4838 0.65428 0.81806 0.0
H422 H 0.48527 0.65571 0.6782 0.0
H423 H 0.55981 0.70589 0.81776 0.0
H424 H 0.48299 0.65839 0.76692 0.0
H425 H 0.56003 0.71124 0.72883 0.0
C426 C 0.54417 0.69738 0.68846 0.0
C427 C 0.52329 0.68138 0.67366 0.0
C428 C 0.49981 0.66901 0.77804 0.0
C429 C 0.52194 0.68489 0.7323 0.0
C430 C 0.50027 0.66669 0.80725 0.0
C431 C 0.52195 0.6796 0.8221 0.0
C432 C 0.52122 0.68425 0.76356 0.0
C433 C 0.54273 0.69549 0.80708 0.0
C434 C 0.54357 0.69923 0.71774 0.0
C435 C 0.50183 0.66815 0.68882 0.0
N436 N 0.5419 0.6972 0.77858 0.0
N437 N 0.50176 0.67005 0.71734 0.0
H438 H 0.84268 0.55729 0.31778 0.0
H439 H 0.82976 0.4808 0.17952 0.0
H440 H 0.83088 0.48497 0.31932 0.0
H441 H 0.84348 0.5538 0.17808 0.0
H442 H 0.82416 0.47985 0.23058 0.0
H443 H 0.83701 0.55419 0.26667 0.0
C444 C 0.83858 0.54064 0.3074 0.0
C445 C 0.83752 0.52145 0.32273 0.0
C446 C 0.82813 0.49599 0.21907 0.0
C447 C 0.83123 0.51784 0.26426 0.0
C448 C 0.83129 0.49652 0.18991 0.0
C449 C 0.83736 0.5175 0.17463 0.0
C450 C 0.83117 0.51663 0.23303 0.0
C451 C 0.83902 0.53732 0.18911 0.0
C452 C 0.83539 0.53889 0.27821 0.0
C453 C 0.83204 0.50027 0.30825 0.0
N454 N 0.83619 0.53648 0.21755 0.0
N455 N 0.82936 0.49912 0.27978 0.0
H456 H 0.34173 0.82912 0.68082 0.0
H457 H 0.28398 0.8478 0.82104 0.0
H458 H 0.28655 0.84878 0.68088 0.0
H459 H 0.34188 0.83202 0.82073 0.0
H460 H 0.28092 0.84297 0.7698 0.0
H461 H 0.3382 0.82471 0.73204 0.0
C462 C 0.32867 0.83224 0.69159 0.0
C463 C 0.31457 0.83955 0.67665 0.0
C464 C 0.29415 0.84035 0.78096 0.0
C465 C 0.31056 0.83473 0.73525 0.0
C466 C 0.29588 0.84308 0.8102 0.0
C467 C 0.31336 0.84052 0.82508 0.0
C468 C 0.31006 0.83509 0.7665 0.0
C469 C 0.32826 0.83432 0.81003 0.0
C470 C 0.32669 0.82976 0.72085 0.0
C471 C 0.29788 0.84326 0.69163 0.0
N472 N 0.3264 0.832 0.78154 0.0
N473 N 0.29648 0.84102 0.72016 0.0
H474 H 0.50699 0.34081 0.3198 0.0
H475 H 0.4287 0.28892 0.17934 0.0
H476 H 0.4304 0.29162 0.31961 0.0
H477 H 0.50467 0.3407 0.17981 0.0
H478 H 0.42983 0.28589 0.23065 0.0
H479 H 0.50734 0.33719 0.26855 0.0
C480 C 0.49028 0.32906 0.30898 0.0
C481 C 0.4686 0.31665 0.32391 0.0
C482 C 0.4463 0.29776 0.21952 0.0
C483 C 0.46882 0.31252 0.26527 0.0
C484 C 0.44567 0.29947 0.19023 0.0
C485 C 0.46658 0.31524 0.17537 0.0
C486 C 0.46799 0.31197 0.23403 0.0
C487 C 0.48809 0.32843 0.19049 0.0
C488 C 0.49048 0.32702 0.27972 0.0
C489 C 0.4475 0.3016 0.30887 0.0
N490 N 0.4882 0.32663 0.21902 0.0
N491 N 0.4481 0.30011 0.28033 0.0
H492 H 0.1493 0.43812 0.67575 0.0
H493 H 0.15946 0.51376 0.81327 0.0
H494 H 0.15909 0.50966 0.67384 0.0
H495 H 0.15463 0.4443 0.81556 0.0
H496 H 0.16448 0.51471 0.76217 0.0
H497 H 0.15625 0.44201 0.72667 0.0
C498 C 0.15323 0.45476 0.686 0.0
C499 C 0.15334 0.47349 0.67065 0.0
C500 C 0.16263 0.49938 0.77385 0.0
C501 C 0.16108 0.478 0.72887 0.0
C502 C 0.15978 0.49885 0.80303 0.0
C503 C 0.15634 0.4788 0.81859 0.0
C504 C 0.1618 0.4796 0.76009 0.0
C505 C 0.15706 0.46004 0.80431 0.0
C506 C 0.15718 0.45698 0.71507 0.0
C507 C 0.15864 0.4947 0.68493 0.0
N508 N 0.15939 0.46075 0.7758 0.0
N509 N 0.16202 0.49628 0.71329 0.0
H510 H 0.70316 0.15015 0.31577 0.0
H511 H 0.63777 0.14938 0.172 0.0
H512 H 0.63876 0.15534 0.3124 0.0
H513 H 0.70494 0.14943 0.17572 0.0
H514 H 0.63921 0.15446 0.22324 0.0
H515 H 0.70573 0.15298 0.26439 0.0
C516 C 0.6897 0.15215 0.30421 0.0
C517 C 0.67062 0.15235 0.31832 0.0
C518 C 0.65373 0.15355 0.21282 0.0
C519 C 0.67329 0.15534 0.25949 0.0
C520 C 0.65291 0.15064 0.18359 0.0
C521 C 0.67117 0.14881 0.16965 0.0
C522 C 0.6729 0.15449 0.22822 0.0
C523 C 0.69041 0.15064 0.18565 0.0
C524 C 0.69115 0.15374 0.27487 0.0
C525 C 0.65372 0.15504 0.30233 0.0
N526 N 0.69068 0.1532 0.21409 0.0
N527 N 0.65532 0.15619 0.27374 0.0
H528 H 0.16485 0.42214 0.94755 0.0
H529 H 0.2687 0.49145 0.06193 0.0
H530 H 0.19694 0.49757 0.96765 0.0
H531 H 0.2537 0.42346 0.02635 0.0
H532 H 0.23699 0.49047 0.03286 0.0
H533 H 0.19267 0.41923 0.98095 0.0
C534 C 0.1777 0.43802 0.95901 0.0
C535 C 0.17876 0.46016 0.95477 0.0
C536 C 0.24053 0.47569 0.03144 0.0
C537 C 0.21012 0.45691 0.99296 0.0
C538 C 0.25859 0.4762 0.04812 0.0
C539 C 0.26398 0.45763 0.04631 0.0
C540 C 0.22771 0.45647 0.01275 0.0
C541 C 0.25016 0.43821 0.02821 0.0
C542 C 0.19351 0.43636 0.97798 0.0
C543 C 0.19563 0.48019 0.97011 0.0
N544 N 0.23268 0.43818 0.01192 0.0
N545 N 0.21058 0.47806 0.98853 0.0
H546 H 0.73406 0.16619 0.45562 0.0
H547 H 0.77986 0.28952 0.53921 0.0
H548 H 0.70463 0.21315 0.4447 0.0
H549 H 0.82115 0.25333 0.53535 0.0
H550 H 0.75033 0.2595 0.50738 0.0
H551 H 0.76492 0.19618 0.48696 0.0
C552 C 0.73421 0.18287 0.45966 0.0
C553 C 0.71678 0.18722 0.4476 0.0
C554 C 0.76583 0.25807 0.51346 0.0
C555 C 0.75167 0.2213 0.48355 0.0
C556 C 0.78264 0.27514 0.53176 0.0
C557 C 0.80298 0.27389 0.5399 0.0
C558 C 0.76924 0.23946 0.5033 0.0
C559 C 0.8057 0.25492 0.52954 0.0
C560 C 0.75177 0.19993 0.47754 0.0
C561 C 0.71773 0.20906 0.45353 0.0
N562 N 0.78897 0.23837 0.51176 0.0
N563 N 0.73477 0.2252 0.47121 0.0
H564 H 0.50473 0.78135 0.05897 0.0
H565 H 0.57469 0.7428 0.95166 0.0
H566 H 0.57426 0.8335 0.02603 0.0
H567 H 0.49738 0.7064 0.95935 0.0
H568 H 0.57763 0.77407 0.98413 0.0
H569 H 0.50494 0.75078 0.02883 0.0
C570 C 0.52019 0.78632 0.04559 0.0
C571 C 0.53944 0.81003 0.0448 0.0
C572 C 0.56009 0.75923 0.97854 0.0
C573 C 0.53971 0.7751 0.01015 0.0
C574 C 0.55839 0.74146 0.96009 0.0
C575 C 0.53575 0.72208 0.95281 0.0
C576 C 0.53902 0.7572 0.99008 0.0
C577 C 0.51518 0.72109 0.9643 0.0
C578 C 0.52022 0.76889 0.02827 0.0
C579 C 0.55902 0.81542 0.02712 0.0
N580 N 0.51732 0.73831 0.9825 0.0
N581 N 0.55865 0.79804 0.01034 0.0
H582 H 0.7169 0.50052 0.55694 0.0
H583 H 0.82754 0.57567 0.45318 0.0
H584 H 0.73829 0.57321 0.53214 0.0
H585 H 0.7887 0.49821 0.45918 0.0
H586 H 0.79854 0.57698 0.48592 0.0
H587 H 0.74753 0.50148 0.52591 0.0
C588 C 0.7282 0.51678 0.5451 0.0
C589 C 0.72498 0.53678 0.54698 0.0
C590 C 0.7964 0.55975 0.47992 0.0
C591 C 0.76004 0.53794 0.51123 0.0
C592 C 0.81288 0.55898 0.46128 0.0
C593 C 0.81044 0.53679 0.45346 0.0
C594 C 0.77769 0.53819 0.491 0.0
C595 C 0.7912 0.5157 0.46456 0.0
C596 C 0.7456 0.51727 0.52726 0.0
C597 C 0.74017 0.55738 0.5312 0.0
N598 N 0.77567 0.51694 0.48287 0.0
N599 N 0.75708 0.55744 0.51387 0.0
H600 H 0.26891 0.77693 0.9345 0.0
H601 H 0.16608 0.74276 0.05004 0.0
H602 H 0.25537 0.8303 0.97185 0.0
H603 H 0.19506 0.69757 0.0257 0.0
H604 H 0.19433 0.77387 0.01731 0.0
H605 H 0.23679 0.74611 0.96291 0.0
C606 C 0.25905 0.78215 0.9486 0.0
C607 C 0.26495 0.80623 0.95106 0.0
C608 C 0.19438 0.75709 0.01919 0.0
C609 C 0.22818 0.77097 0.98392 0.0
C610 C 0.17831 0.73939 0.03778 0.0
C611 C 0.1784 0.71768 0.04065 0.0
C612 C 0.21027 0.75275 0.00326 0.0
C613 C 0.19451 0.71412 0.02431 0.0
C614 C 0.24073 0.76453 0.96489 0.0
C615 C 0.25142 0.81191 0.96949 0.0
N616 N 0.20974 0.73144 0.00634 0.0
N617 N 0.23369 0.79438 0.98543 0.0
H618 H 0.41767 0.16706 0.54438 0.0
H619 H 0.49343 0.27864 0.44246 0.0
H620 H 0.49523 0.20832 0.54258 0.0
H621 H 0.42087 0.25797 0.46691 0.0
H622 H 0.49208 0.24789 0.47367 0.0
H623 H 0.41644 0.19615 0.51158 0.0
C624 C 0.43438 0.18227 0.53721 0.0
C625 C 0.45658 0.18536 0.54619 0.0
C626 C 0.47641 0.25001 0.47219 0.0
C627 C 0.45529 0.21815 0.50857 0.0
C628 C 0.47711 0.26747 0.45425 0.0
C629 C 0.45728 0.27094 0.45226 0.0
C630 C 0.45567 0.23574 0.48817 0.0
C631 C 0.43658 0.25589 0.46797 0.0
C632 C 0.43366 0.19879 0.51855 0.0
C633 C 0.47772 0.20529 0.53628 0.0
N634 N 0.4363 0.23889 0.48539 0.0
N635 N 0.47654 0.22081 0.51787 0.0
H636 H 0.7833 0.49071 0.04537 0.0
H637 H 0.73943 0.56987 0.96205 0.0
H638 H 0.8269 0.56799 0.03981 0.0
H639 H 0.71004 0.49363 0.9496 0.0
H640 H 0.76998 0.57019 0.99356 0.0
H641 H 0.75392 0.492 0.014 0.0
C642 C 0.78662 0.508 0.03766 0.0
C643 C 0.80757 0.52928 0.04513 0.0
C644 C 0.7569 0.55347 0.98376 0.0
C645 C 0.77402 0.53089 0.00908 0.0
C646 C 0.73952 0.55327 0.9658 0.0
C647 C 0.72221 0.53168 0.95325 0.0
C648 C 0.75668 0.53187 0.98936 0.0
C649 C 0.72306 0.51068 0.95881 0.0
C650 C 0.7699 0.50871 0.01962 0.0
C651 C 0.81097 0.55117 0.03448 0.0
N652 N 0.73989 0.51128 0.97659 0.0
N653 N 0.79431 0.55143 0.01696 0.0
H654 H 0.20856 0.70402 0.45744 0.0
H655 H 0.25479 0.82911 0.53716 0.0
H656 H 0.16844 0.74149 0.45703 0.0
H657 H 0.28233 0.78103 0.55227 0.0
H658 H 0.22432 0.79898 0.50554 0.0
H659 H 0.23772 0.73431 0.48932 0.0
C660 C 0.20596 0.71872 0.46396 0.0
C661 C 0.18606 0.72026 0.45463 0.0
C662 C 0.23697 0.79504 0.51594 0.0
C663 C 0.21937 0.75501 0.49126 0.0
C664 C 0.2543 0.81217 0.53398 0.0
C665 C 0.27109 0.80753 0.54729 0.0
C666 C 0.23667 0.77331 0.51106 0.0
C667 C 0.26974 0.78535 0.54244 0.0
C668 C 0.22256 0.73596 0.48229 0.0
C669 C 0.18356 0.73967 0.46379 0.0
N670 N 0.25294 0.76915 0.5246 0.0
N671 N 0.20007 0.75637 0.48163 0.0
H672 H 0.41836 0.16443 0.95833 0.0
H673 H 0.49329 0.27796 0.05839 0.0
H674 H 0.49589 0.20525 0.96221 0.0
H675 H 0.41991 0.25453 0.03464 0.0
H676 H 0.49248 0.24675 0.02855 0.0
H677 H 0.41674 0.19347 0.99076 0.0
C678 C 0.43499 0.17951 0.96594 0.0
C679 C 0.45729 0.18254 0.95757 0.0
C680 C 0.47651 0.24836 0.02989 0.0
C681 C 0.45557 0.21533 0.99472 0.0
C682 C 0.47692 0.2661 0.04704 0.0
C683 C 0.45668 0.26892 0.04881 0.0
C684 C 0.45569 0.23319 0.01445 0.0
C685 C 0.43593 0.25299 0.03372 0.0
C686 C 0.43405 0.19601 0.98438 0.0
C687 C 0.47831 0.2023 0.96803 0.0
N688 N 0.43596 0.23577 0.01703 0.0
N689 N 0.47692 0.21786 0.98614 0.0
H690 H 0.16387 0.41977 0.5413 0.0
H691 H 0.27439 0.4964 0.43777 0.0
H692 H 0.20034 0.49709 0.53361 0.0
H693 H 0.25452 0.42431 0.46352 0.0
H694 H 0.24305 0.49475 0.46811 0.0
H695 H 0.19345 0.41915 0.50896 0.0
C696 C 0.17812 0.43657 0.53289 0.0
C697 C 0.17974 0.45852 0.54014 0.0
C698 C 0.24547 0.47925 0.46711 0.0
C699 C 0.21318 0.4579 0.50307 0.0
C700 C 0.26329 0.48013 0.44968 0.0
C701 C 0.26713 0.4605 0.44828 0.0
C702 C 0.23125 0.45855 0.48322 0.0
C703 C 0.25216 0.43986 0.46411 0.0
C704 C 0.19494 0.4362 0.51448 0.0
C705 C 0.19848 0.47977 0.52866 0.0
N706 N 0.23484 0.43942 0.48105 0.0
N707 N 0.21437 0.47891 0.51061 0.0
H708 H 0.82747 0.25092 0.94727 0.0
H709 H 0.72155 0.21438 0.05844 0.0
H710 H 0.78943 0.28981 0.95906 0.0
H711 H 0.73926 0.1624 0.02581 0.0
H712 H 0.75191 0.24484 0.02776 0.0
H713 H 0.79978 0.22026 0.98069 0.0
C714 C 0.81327 0.25294 0.95681 0.0
C715 C 0.81063 0.27283 0.95037 0.0
C716 C 0.74926 0.22681 0.02739 0.0
C717 C 0.77943 0.23832 0.98872 0.0
C718 C 0.73203 0.20944 0.04503 0.0
C719 C 0.72778 0.1858 0.0445 0.0
C720 C 0.76247 0.22058 0.00916 0.0
C721 C 0.74194 0.18043 0.02674 0.0
C722 C 0.79754 0.23551 0.97582 0.0
C723 C 0.79202 0.27469 0.96331 0.0
N724 N 0.75867 0.19771 0.00962 0.0
N725 N 0.77723 0.25773 0.98197 0.0
H726 H 0.57071 0.82803 0.45086 0.0
H727 H 0.49647 0.71604 0.55274 0.0
H728 H 0.49322 0.78528 0.4521 0.0
H729 H 0.56989 0.73903 0.52981 0.0
H730 H 0.49695 0.74591 0.52074 0.0
H731 H 0.57255 0.79925 0.4836 0.0
C732 C 0.55414 0.81254 0.45787 0.0
C733 C 0.53178 0.80899 0.44879 0.0
C734 C 0.51299 0.74449 0.52271 0.0
C735 C 0.53376 0.7765 0.48636 0.0
C736 C 0.51279 0.72753 0.54111 0.0
C737 C 0.53315 0.72499 0.54381 0.0
C738 C 0.53376 0.75921 0.50697 0.0
C739 C 0.5538 0.7404 0.52824 0.0
C740 C 0.55521 0.79619 0.4765 0.0
C741 C 0.51085 0.78869 0.4585 0.0
N742 N 0.5536 0.75692 0.51039 0.0
N743 N 0.51236 0.77334 0.4769 0.0
H744 H 0.38195 0.4449 0.12262 0.0
H745 H 0.39044 0.33235 0.06478 0.0
H746 H 0.33053 0.39381 0.0637 0.0
H747 H 0.44046 0.38537 0.12317 0.0
H748 H 0.36648 0.35252 0.06573 0.0
H749 H 0.40182 0.42122 0.12486 0.0
C750 C 0.37479 0.42859 0.11018 0.0
C751 C 0.35467 0.42137 0.09281 0.0
C752 C 0.38263 0.3596 0.07842 0.0
C753 C 0.37747 0.39408 0.09514 0.0
C754 C 0.39627 0.34811 0.0779 0.0
C755 C 0.41751 0.35732 0.09379 0.0
C756 C 0.39037 0.38035 0.09498 0.0
C757 C 0.42429 0.37774 0.11045 0.0
C758 C 0.38615 0.41504 0.11147 0.0
C759 C 0.34607 0.4 0.07731 0.0
N760 N 0.41082 0.38857 0.11052 0.0
N761 N 0.35764 0.38713 0.07869 0.0
H762 H 0.05222 0.39097 0.56062 0.0
H763 H 0.93252 0.37233 0.63505 0.0
H764 H 0.05078 0.42941 0.63452 0.0
H765 H 0.93157 0.33292 0.56094 0.0
H766 H 0.97593 0.3898 0.63797 0.0
H767 H 0.00826 0.36603 0.56303 0.0
C768 C 0.04267 0.39395 0.57752 0.0
C769 C 0.05507 0.41242 0.59723 0.0
C770 C 0.9663 0.3772 0.62115 0.0
C771 C 0.00501 0.38415 0.60006 0.0
C772 C 0.94147 0.36722 0.61947 0.0
C773 C 0.9285 0.35136 0.59754 0.0
C774 C 0.97836 0.3715 0.60057 0.0
C775 C 0.94098 0.34519 0.5781 0.0
C776 C 0.01762 0.37976 0.57886 0.0
C777 C 0.04191 0.41552 0.61872 0.0
N778 N 0.96531 0.35549 0.57988 0.0
N779 N 0.01761 0.40167 0.61943 0.0
H780 H 0.59805 0.93773 0.11958 0.0
H781 H 0.6398 0.0581 0.03104 0.0
H782 H 0.57744 0.93855 0.03314 0.0
H783 H 0.65683 0.05681 0.11883 0.0
H784 H 0.62205 0.01438 0.0292 0.0
H785 H 0.6247 0.98124 0.11747 0.0
C786 C 0.59935 0.94705 0.10004 0.0
C787 C 0.58534 0.93459 0.07658 0.0
C788 C 0.62991 0.02369 0.04878 0.0
C789 C 0.61567 0.98441 0.07407 0.0
C790 C 0.64009 0.04864 0.04982 0.0
C791 C 0.64955 0.06102 0.07521 0.0
C792 C 0.62914 0.01107 0.07334 0.0
C793 C 0.64955 0.04793 0.09888 0.0
C794 C 0.61455 0.97191 0.09886 0.0
C795 C 0.58781 0.94752 0.05177 0.0
N796 N 0.63927 0.02363 0.09744 0.0
N797 N 0.6025 0.97179 0.05124 0.0
H798 H 0.66175 0.60275 0.56824 0.0
H799 H 0.54574 0.60715 0.62155 0.0
H800 H 0.60608 0.54921 0.62122 0.0
H801 H 0.59942 0.66177 0.56766 0.0
H802 H 0.56934 0.58715 0.62328 0.0
H803 H 0.64094 0.6261 0.56929 0.0
C804 C 0.64526 0.596 0.5802 0.0
C805 C 0.63555 0.57398 0.59457 0.0
C806 C 0.57609 0.60354 0.61111 0.0
C807 C 0.61175 0.60043 0.59583 0.0
C808 C 0.56259 0.61499 0.61012 0.0
C809 C 0.57059 0.63609 0.59433 0.0
C810 C 0.59781 0.61315 0.59611 0.0
C811 C 0.59261 0.64548 0.58004 0.0
C812 C 0.63339 0.60929 0.58076 0.0
C813 C 0.61416 0.56603 0.60973 0.0
N814 N 0.60545 0.63386 0.58115 0.0
N815 N 0.60299 0.5792 0.60989 0.0
H816 H 0.93542 0.59796 0.0662 0.0
H817 H 0.05593 0.62 0.14256 0.0
H818 H 0.9377 0.55616 0.13617 0.0
H819 H 0.05595 0.65667 0.06627 0.0
H820 H 0.01228 0.6011 0.14458 0.0
H821 H 0.9792 0.62398 0.06971 0.0
C822 C 0.94511 0.59442 0.08245 0.0
C823 C 0.93302 0.57477 0.10074 0.0
C824 C 0.0218 0.61342 0.12748 0.0
C825 C 0.98285 0.60433 0.1049 0.0
C826 C 0.04674 0.62425 0.12635 0.0
C827 C 0.05951 0.6397 0.10404 0.0
C828 C 0.00947 0.61794 0.10605 0.0
C829 C 0.04672 0.64473 0.08374 0.0
C830 C 0.97005 0.60922 0.08442 0.0
C831 C 0.94636 0.57098 0.12146 0.0
N832 N 0.02232 0.63367 0.08507 0.0
N833 N 0.97055 0.58554 0.12288 0.0
H834 H 0.39093 0.0574 0.56807 0.0
H835 H 0.38073 0.93779 0.63338 0.0
H836 H 0.43721 0.05606 0.63322 0.0
H837 H 0.33302 0.93639 0.56832 0.0
H838 H 0.39924 0.98129 0.6359 0.0
H839 H 0.36712 0.01331 0.57003 0.0
C840 C 0.39592 0.04784 0.58294 0.0
C841 C 0.41615 0.06033 0.60035 0.0
C842 C 0.38465 0.97156 0.62113 0.0
C843 C 0.38919 0.01015 0.60266 0.0
C844 C 0.37407 0.94667 0.61968 0.0
C845 C 0.35545 0.93351 0.60045 0.0
C846 C 0.37672 0.98351 0.60307 0.0
C847 C 0.34741 0.94594 0.58337 0.0
C848 C 0.38238 0.02272 0.58402 0.0
C849 C 0.42186 0.04714 0.61925 0.0
N850 N 0.35825 0.97033 0.5849 0.0
N851 N 0.40854 0.02281 0.61978 0.0
H852 H 0.55233 0.61089 0.8658 0.0
H853 H 0.65942 0.59788 0.93373 0.0
H854 H 0.59701 0.65643 0.93329 0.0
H855 H 0.61115 0.55136 0.8692 0.0
H856 H 0.63958 0.62208 0.93148 0.0
H857 H 0.57654 0.59147 0.8642 0.0
C858 C 0.56734 0.61687 0.88024 0.0
C859 C 0.57258 0.63516 0.89986 0.0
C860 C 0.63347 0.60666 0.91772 0.0
C861 C 0.60039 0.61287 0.89828 0.0
C862 C 0.64479 0.59289 0.91896 0.0
C863 C 0.63677 0.57251 0.90177 0.0
C864 C 0.6141 0.59995 0.89909 0.0
C865 C 0.61779 0.56682 0.88299 0.0
C866 C 0.58118 0.60577 0.87932 0.0
C867 C 0.59234 0.64231 0.91791 0.0
N868 N 0.60707 0.5804 0.88225 0.0
N869 N 0.60548 0.63102 0.91683 0.0
H870 H 0.93812 0.56359 0.35806 0.0
H871 H 0.05877 0.66272 0.43316 0.0
H872 H 0.93818 0.60233 0.4324 0.0
H873 H 0.05641 0.62133 0.36034 0.0
H874 H 0.01495 0.64478 0.43026 0.0
H875 H 0.98167 0.5886 0.35545 0.0
C876 C 0.94733 0.57752 0.37374 0.0
C877 C 0.93459 0.58075 0.39566 0.0
C878 C 0.02408 0.63983 0.41477 0.0
C879 C 0.98459 0.60937 0.39299 0.0
C880 C 0.04906 0.65009 0.41639 0.0
C881 C 0.06114 0.64328 0.39714 0.0
C882 C 0.01124 0.62272 0.39373 0.0
C883 C 0.04777 0.6269 0.37579 0.0
C884 C 0.97222 0.59182 0.37225 0.0
C885 C 0.94739 0.59921 0.41525 0.0
N886 N 0.02355 0.61707 0.37479 0.0
N887 N 0.97178 0.6127 0.41364 0.0
H888 H 0.39103 0.05656 0.93222 0.0
H889 H 0.37963 0.93593 0.86916 0.0
H890 H 0.43718 0.05435 0.86763 0.0
H891 H 0.3306 0.93577 0.93143 0.0
H892 H 0.39882 0.97949 0.86609 0.0
H893 H 0.36654 0.01257 0.9301 0.0
C894 C 0.39586 0.04683 0.91743 0.0
C895 C 0.41625 0.05904 0.90024 0.0
C896 C 0.38378 0.97001 0.88034 0.0
C897 C 0.3885 0.00894 0.89777 0.0
C898 C 0.37283 0.9451 0.88212 0.0
C899 C 0.35364 0.93228 0.90075 0.0
C900 C 0.37566 0.9823 0.89751 0.0
C901 C 0.34543 0.94505 0.91687 0.0
C902 C 0.38191 0.02176 0.91625 0.0
C903 C 0.42171 0.04564 0.88142 0.0
N904 N 0.35664 0.96945 0.91507 0.0
N905 N 0.40802 0.02133 0.88083 0.0
H906 H 0.33113 0.39563 0.42846 0.0
H907 H 0.44835 0.39204 0.37853 0.0
H908 H 0.38812 0.45007 0.37765 0.0
H909 H 0.39291 0.33606 0.42944 0.0
H910 H 0.42511 0.4124 0.37683 0.0
H911 H 0.35203 0.37236 0.42798 0.0
C912 C 0.34795 0.40261 0.41712 0.0
C913 C 0.35797 0.42483 0.40316 0.0
C914 C 0.4179 0.39564 0.38835 0.0
C915 C 0.38187 0.39848 0.40255 0.0
C916 C 0.4312 0.38398 0.38932 0.0
C917 C 0.42258 0.36237 0.40423 0.0
C918 C 0.39575 0.38571 0.40247 0.0
C919 C 0.4002 0.35274 0.41774 0.0
C920 C 0.35985 0.38936 0.41688 0.0
C921 C 0.37977 0.43307 0.38879 0.0
N922 N 0.38754 0.36455 0.41664 0.0
N923 N 0.39097 0.41994 0.38893 0.0
H924 H 0.05604 0.43669 0.85324 0.0
H925 H 0.9361 0.33384 0.92595 0.0
H926 H 0.05641 0.39763 0.92714 0.0
H927 H 0.93744 0.378 0.85655 0.0
H928 H 0.98001 0.35298 0.92312 0.0
H929 H 0.0125 0.41121 0.85042 0.0
C930 C 0.04695 0.4226 0.86877 0.0
C931 C 0.05979 0.41941 0.89063 0.0
C932 C 0.97065 0.35831 0.90838 0.0
C933 C 0.00986 0.39025 0.88768 0.0
C934 C 0.94562 0.34738 0.90995 0.0
C935 C 0.93321 0.35454 0.89163 0.0
C936 C 0.98323 0.37645 0.8883 0.0
C937 C 0.94634 0.37209 0.87126 0.0
C938 C 0.02206 0.40805 0.86717 0.0
C939 C 0.04713 0.40076 0.91004 0.0
N940 N 0.97064 0.38254 0.87026 0.0
N941 N 0.02278 0.38698 0.90827 0.0
H942 H 0.55134 0.93757 0.36045 0.0
H943 H 0.65577 0.05887 0.42932 0.0
H944 H 0.59521 0.9377 0.42951 0.0
H945 H 0.60733 0.05566 0.36411 0.0
H946 H 0.63713 0.01489 0.42696 0.0
H947 H 0.57515 0.98119 0.35848 0.0
C948 C 0.56612 0.94682 0.37513 0.0
C949 C 0.57119 0.93405 0.39534 0.0
C950 C 0.63074 0.02389 0.41307 0.0
C951 C 0.59852 0.98418 0.39339 0.0
C952 C 0.64137 0.04893 0.41438 0.0
C953 C 0.63292 0.06084 0.39704 0.0
C954 C 0.61165 0.01082 0.39421 0.0
C955 C 0.61427 0.04719 0.37804 0.0
C956 C 0.57973 0.97177 0.37402 0.0
C957 C 0.59068 0.94694 0.41368 0.0
N958 N 0.60423 0.02295 0.37722 0.0
N959 N 0.60356 0.97139 0.41244 0.0
H960 H 0.49146 0.62189 0.9939 0.0
H961 H 0.36331 0.50165 0.99702 0.0
H962 H 0.4478 0.59147 0.91954 0.0
H963 H 0.39829 0.54319 0.07145 0.0
H964 H 0.39549 0.53256 0.96811 0.0
H965 H 0.45897 0.59118 0.02257 0.0
C966 C 0.47504 0.60869 0.9836 0.0
C967 C 0.47229 0.6092 0.95431 0.0
C968 C 0.39608 0.53494 0.99075 0.0
C969 C 0.43509 0.57401 0.98696 0.0
C970 C 0.37776 0.51731 0.00726 0.0
C971 C 0.37817 0.5199 0.03666 0.0
C972 C 0.41508 0.55517 0.00377 0.0
C973 C 0.39727 0.54053 0.04884 0.0
C974 C 0.45648 0.59124 -2e-05 0.0
C975 C 0.45063 0.59172 0.94207 0.0
N976 N 0.41504 0.55733 0.03235 0.0
N977 N 0.43287 0.57477 0.95845 0.0
H978 H 0.86976 0.37358 0.49933 0.0
H979 H 0.87373 0.49992 0.49387 0.0
H980 H 0.8595 0.40716 0.57269 0.0
H981 H 0.86172 0.45564 0.42044 0.0
H982 H 0.8742 0.46876 0.52314 0.0
H983 H 0.87246 0.40626 0.47015 0.0
C984 C 0.86819 0.38791 0.50931 0.0
C985 C 0.86431 0.38766 0.53843 0.0
C986 C 0.87151 0.4659 0.50062 0.0
C987 C 0.86747 0.42508 0.50523 0.0
C988 C 0.87133 0.48369 0.4839 0.0
C989 C 0.86759 0.48027 0.45472 0.0
C990 C 0.86818 0.44467 0.48802 0.0
C991 C 0.86455 0.45892 0.44288 0.0
C992 C 0.86965 0.40649 0.49263 0.0
C993 C 0.86239 0.40664 0.55028 0.0
N994 N 0.86494 0.44191 0.45958 0.0
N995 N 0.86402 0.42463 0.53362 0.0
H996 H 0.37597 0.87942 0.99492 0.0
H997 H 0.47102 0.83406 0.01088 0.0
H998 H 0.3869 0.83689 0.9326 0.0
H999 H 0.46648 0.88282 0.0698 0.0
H1000 H 0.43836 0.83304 0.98365 0.0
H1001 H 0.40734 0.87922 0.02417 0.0
C1002 C 0.38495 0.87001 0.98743 0.0
C1003 C 0.37888 0.85818 0.96128 0.0
C1004 C 0.44442 0.84395 0.00254 0.0
C1005 C 0.41467 0.85784 0.9946 0.0
C1006 C 0.46307 0.84451 0.01815 0.0
C1007 C 0.47152 0.85861 0.04261 0.0
C1008 C 0.43405 0.85758 0.0114 0.0
C1009 C 0.46051 0.87174 0.05104 0.0
C1010 C 0.40285 0.86992 0.00411 0.0
C1011 C 0.39106 0.84628 0.95258 0.0
N1012 N 0.44234 0.87095 0.03541 0.0
N1013 N 0.40836 0.84641 0.9692 0.0
H1014 H 0.50229 0.36909 0.49823 0.0
H1015 H 0.627 0.49308 0.5012 0.0
H1016 H 0.54473 0.40199 0.42374 0.0
H1017 H 0.59354 0.45105 0.5758 0.0
H1018 H 0.59577 0.46113 0.4724 0.0
H1019 H 0.53433 0.40021 0.52705 0.0
C1020 C 0.51838 0.38287 0.48795 0.0
C1021 C 0.52089 0.38302 0.45857 0.0
C1022 C 0.5953 0.45886 0.49506 0.0
C1023 C 0.55752 0.4187 0.49136 0.0
C1024 C 0.61307 0.47711 0.51151 0.0
C1025 C 0.6128 0.47469 0.54091 0.0
C1026 C 0.577 0.43815 0.50814 0.0
C1027 C 0.5944 0.45361 0.55318 0.0
C1028 C 0.53667 0.40058 0.50441 0.0
C1029 C 0.5421 0.40123 0.44634 0.0
N1030 N 0.57715 0.43618 0.53674 0.0
N1031 N 0.55957 0.41843 0.46279 0.0
H1032 H 0.16577 0.54861 0.94291 0.0
H1033 H 0.08927 0.58901 0.0355 0.0
H1034 H 0.09103 0.49964 0.96165 0.0
H1035 H 0.16502 0.61674 0.04968 0.0
H1036 H 0.08894 0.55931 0.00265 0.0
H1037 H 0.16525 0.57772 0.97586 0.0
C1038 C 0.1492 0.5441 0.95376 0.0
C1039 C 0.12841 0.52173 0.94964 0.0
C1040 C 0.10556 0.57184 0.01311 0.0
C1041 C 0.12769 0.55486 0.98709 0.0
C1042 C 0.10577 0.58875 0.03178 0.0
C1043 C 0.12719 0.60523 0.04533 0.0
C1044 C 0.12703 0.57187 0.00752 0.0
C1045 C 0.14811 0.60421 0.03978 0.0
C1046 C 0.14897 0.56061 0.97266 0.0
C1047 C 0.10745 0.5167 0.96434 0.0
N1048 N 0.14757 0.58795 0.02105 0.0
N1049 N 0.10757 0.53321 0.98236 0.0
H1050 H 0.53948 0.13614 0.57723 0.0
H1051 H 0.58506 0.13863 0.42001 0.0
H1052 H 0.49593 0.12668 0.50374 0.0
H1053 H 0.61755 0.12599 0.49284 0.0
H1054 H 0.55398 0.13791 0.45053 0.0
H1055 H 0.57019 0.13599 0.54676 0.0
C1056 C 0.53639 0.134 0.55469 0.0
C1057 C 0.51517 0.1314 0.54295 0.0
C1058 C 0.56788 0.13523 0.4598 0.0
C1059 C 0.55019 0.1314 0.50804 0.0
C1060 C 0.58564 0.13571 0.44242 0.0
C1061 C 0.60385 0.13234 0.45395 0.0
C1062 C 0.56854 0.13165 0.48894 0.0
C1063 C 0.60377 0.1286 0.48311 0.0
C1064 C 0.55387 0.13386 0.53734 0.0
C1065 C 0.51203 0.12868 0.51364 0.0
N1066 N 0.58644 0.12847 0.49964 0.0
N1067 N 0.52941 0.12888 0.49716 0.0
H1068 H 0.49896 0.36713 0.00064 0.0
H1069 H 0.6227 0.49218 0.99659 0.0
H1070 H 0.54076 0.40187 0.07501 0.0
H1071 H 0.59064 0.44835 0.92275 0.0
H1072 H 0.59101 0.4609 0.02553 0.0
H1073 H 0.53063 0.39836 0.97155 0.0
C1074 C 0.51481 0.38135 0.01084 0.0
C1075 C 0.51729 0.38194 0.04026 0.0
C1076 C 0.59092 0.4581 0.00301 0.0
C1077 C 0.55348 0.41774 0.00716 0.0
C1078 C 0.60896 0.47597 0.98647 0.0
C1079 C 0.60927 0.47281 0.95724 0.0
C1080 C 0.57294 0.43702 0.9902 0.0
C1081 C 0.59106 0.45146 0.94523 0.0
C1082 C 0.53289 0.39912 0.99423 0.0
C1083 C 0.53818 0.40073 0.05239 0.0
N1084 N 0.57356 0.43439 0.96175 0.0
N1085 N 0.55546 0.41795 0.03578 0.0
H1086 H 0.12952 0.58663 0.42005 0.0
H1087 H 0.12611 0.53764 0.57553 0.0
H1088 H 0.11952 0.61936 0.49438 0.0
H1089 H 0.1162 0.49536 0.50078 0.0
H1090 H 0.12554 0.56874 0.54623 0.0
H1091 H 0.12656 0.55384 0.44931 0.0
C1092 C 0.12663 0.58686 0.44252 0.0
C1093 C 0.12481 0.60572 0.45486 0.0
C1094 C 0.12334 0.55259 0.53627 0.0
C1095 C 0.12157 0.56845 0.48842 0.0
C1096 C 0.1237 0.53487 0.55296 0.0
C1097 C 0.12124 0.51395 0.54052 0.0
C1098 C 0.12078 0.54946 0.5069 0.0
C1099 C 0.11814 0.51123 0.5112 0.0
C1100 C 0.12488 0.56813 0.45918 0.0
C1101 C 0.12101 0.60514 0.48404 0.0
N1102 N 0.11818 0.52888 0.49535 0.0
N1103 N 0.11968 0.58688 0.49988 0.0
H1104 H 0.63439 0.15995 0.00971 0.0
H1105 H 0.49294 0.10709 0.98983 0.0
H1106 H 0.5813 0.1079 0.06638 0.0
H1107 H 0.54653 0.15313 0.92942 0.0
H1108 H 0.5248 0.10802 0.01916 0.0
H1109 H 0.60224 0.1589 0.98132 0.0
C1110 C 0.61593 0.14835 0.01625 0.0
C1111 C 0.61048 0.13397 0.04043 0.0
C1112 C 0.52957 0.11787 -0.00054 0.0
C1113 C 0.5735 0.1326 0.00789 0.0
C1114 C 0.51141 0.11734 0.98272 0.0
C1115 C 0.51713 0.13006 0.95717 0.0
C1116 C 0.55362 0.13131 0.99063 0.0
C1117 C 0.54132 0.14305 0.94895 0.0
C1118 C 0.59756 0.1477 -3e-05 0.0
C1119 C 0.58625 0.11927 0.04788 0.0
N1120 N 0.55867 0.14338 0.96566 0.0
N1121 N 0.56861 0.11895 0.03164 0.0
H1122 H 0.44707 0.59543 0.5752 0.0
H1123 H 0.39947 0.54718 0.41948 0.0
H1124 H 0.48977 0.62644 0.50038 0.0
H1125 H 0.36571 0.50627 0.49466 0.0
H1126 H 0.43077 0.5787 0.44876 0.0
H1127 H 0.41502 0.56471 0.54591 0.0
C1128 C 0.44967 0.59577 0.55261 0.0
C1129 C 0.4711 0.61342 0.54017 0.0
C1130 C 0.4165 0.56282 0.45884 0.0
C1131 C 0.43454 0.57851 0.50658 0.0
C1132 C 0.39862 0.54488 0.44215 0.0
C1133 C 0.38005 0.52409 0.45469 0.0
C1134 C 0.41566 0.56002 0.48826 0.0
C1135 C 0.37979 0.522 0.48415 0.0
C1136 C 0.43141 0.57823 0.53592 0.0
C1137 C 0.47355 0.61308 0.51081 0.0
N1138 N 0.39731 0.53977 0.49996 0.0
N1139 N 0.45546 0.59592 0.49499 0.0
H1140 H 0.85855 0.40475 0.91775 0.0
H1141 H 0.86134 0.44977 0.07526 0.0
H1142 H 0.87221 0.37258 0.99012 0.0
H1143 H 0.8697 0.4933 0.00214 0.0
H1144 H 0.8624 0.41967 0.04451 0.0
H1145 H 0.85968 0.43596 0.94845 0.0
C1146 C 0.86184 0.4043 0.94008 0.0
C1147 C 0.86529 0.38609 0.95144 0.0
C1148 C 0.86411 0.43587 0.03523 0.0
C1149 C 0.8664 0.42152 0.98665 0.0
C1150 C 0.86345 0.453 0.05274 0.0
C1151 C 0.86543 0.47402 0.04119 0.0
C1152 C 0.86645 0.43968 0.00595 0.0
C1153 C 0.86816 0.47735 0.0119 0.0
C1154 C 0.86254 0.42212 0.95757 0.0
C1155 C 0.86951 0.38634 0.98051 0.0
N1156 N 0.86844 0.46028 0.99525 0.0
N1157 N 0.8698 0.4037 0.99716 0.0
H1158 H 0.44682 0.85516 0.41984 0.0
H1159 H 0.40391 0.85835 0.57691 0.0
H1160 H 0.4926 0.86961 0.49247 0.0
H1161 H 0.369 0.86626 0.5032 0.0
H1162 H 0.43495 0.85881 0.5465 0.0
H1163 H 0.41626 0.85551 0.45032 0.0
C1164 C 0.45043 0.85841 0.4422 0.0
C1165 C 0.47224 0.86239 0.45369 0.0
C1166 C 0.42053 0.86052 0.53702 0.0
C1167 C 0.43738 0.86264 0.48863 0.0
C1168 C 0.4028 0.86019 0.55433 0.0
C1169 C 0.38391 0.86229 0.54252 0.0
C1170 C 0.41915 0.86266 0.50769 0.0
C1171 C 0.38332 0.86466 0.51316 0.0
C1172 C 0.43303 0.85867 0.45956 0.0
C1173 C 0.47602 0.86654 0.48278 0.0
N1174 N 0.40062 0.86466 0.49673 0.0
N1175 N 0.45871 0.86644 0.4993 0.0
loop_
_geom_bond_atom_site_label_1
_geom_bond_atom_site_label_2
_geom_bond_distance
_geom_bond_site_symmetry_2
_ccdc_geom_bond_type
In0 O1 2.294 . S
In0 O2 2.326 . S
In0 O6 2.266 . S
In0 O7 2.326 . S
In0 O8 2.266 . S
In0 O9 2.326 . S
In0 O11 2.294 . S
In0 O12 2.326 . S
O1 In0 2.294 . S
O1 C10 1.240 . S
O2 In0 2.326 . S
O2 C10 1.252 . S
C3 O6 1.252 . S
C3 O7 1.260 . S
C4 O11 1.240 . S
C4 O12 1.252 . S
C5 O8 1.252 . S
C5 O9 1.260 . S
O6 In0 2.266 . S
O6 C3 1.252 . S
O7 In0 2.326 . S
O7 C3 1.260 . S
O8 In0 2.266 . S
O8 C5 1.252 . S
O9 In0 2.326 . S
O9 C5 1.260 . S
C10 O1 1.240 . S
C10 O2 1.252 . S
O11 In0 2.294 . S
O11 C4 1.240 . S
O12 In0 2.326 . S
O12 C4 1.252 . S
In13 O14 2.294 . S
In13 O15 2.326 . S
In13 O19 2.266 . S
In13 O20 2.326 . S
In13 O21 2.266 . S
In13 O22 2.326 . S
In13 O24 2.294 . S
In13 O25 2.326 . S
O14 In13 2.294 . S
O14 C23 1.240 . S
O15 In13 2.326 . S
O15 C23 1.252 . S
C16 O19 1.252 . S
C16 O20 1.260 . S
C17 O24 1.240 . S
C17 O25 1.252 . S
C18 O21 1.252 . S
C18 O22 1.260 . S
O19 In13 2.266 . S
O19 C16 1.252 . S
O20 In13 2.326 . S
O20 C16 1.260 . S
O21 In13 2.266 . S
O21 C18 1.252 . S
O22 In13 2.326 . S
O22 C18 1.260 . S
C23 O14 1.240 . S
C23 O15 1.252 . S
O24 In13 2.294 . S
O24 C17 1.240 . S
O25 In13 2.326 . S
O25 C17 1.252 . S
In26 O27 2.294 . S
In26 O28 2.326 . S
In26 O32 2.266 . S
In26 O33 2.326 . S
In26 O34 2.266 . S
In26 O35 2.326 . S
In26 O37 2.294 . S
In26 O38 2.326 . S
O27 In26 2.294 . S
O27 C36 1.240 . S
O28 In26 2.326 . S
O28 C36 1.252 . S
C29 O32 1.252 . S
C29 O33 1.260 . S
C30 O37 1.240 . S
C30 O38 1.252 . S
C31 O34 1.252 . S
C31 O35 1.260 . S
O32 In26 2.266 . S
O32 C29 1.252 . S
O33 In26 2.326 . S
O33 C29 1.260 . S
O34 In26 2.266 . S
O34 C31 1.252 . S
O35 In26 2.326 . S
O35 C31 1.260 . S
C36 O27 1.240 . S
C36 O28 1.252 . S
O37 In26 2.294 . S
O37 C30 1.240 . S
O38 In26 2.326 . S
O38 C30 1.252 . S
In39 O40 2.294 . S
In39 O41 2.326 . S
In39 O45 2.266 . S
In39 O46 2.326 . S
In39 O47 2.266 . S
In39 O48 2.326 . S
In39 O50 2.294 . S
In39 O51 2.326 . S
O40 In39 2.294 . S
O40 C49 1.240 . S
O41 In39 2.326 . S
O41 C49 1.252 . S
C42 O45 1.252 . S
C42 O46 1.260 . S
C43 O50 1.240 . S
C43 O51 1.252 . S
C44 O47 1.252 . S
C44 O48 1.260 . S
O45 In39 2.266 . S
O45 C42 1.252 . S
O46 In39 2.326 . S
O46 C42 1.260 . S
O47 In39 2.266 . S
O47 C44 1.252 . S
O48 In39 2.326 . S
O48 C44 1.260 . S
C49 O40 1.240 . S
C49 O41 1.252 . S
O50 In39 2.294 . S
O50 C43 1.240 . S
O51 In39 2.326 . S
O51 C43 1.252 . S
In52 O53 2.294 . S
In52 O54 2.326 . S
In52 O58 2.266 . S
In52 O59 2.326 . S
In52 O60 2.266 . S
In52 O61 2.326 . S
In52 O63 2.294 . S
In52 O64 2.326 . S
O53 In52 2.294 . S
O53 C62 1.240 . S
O54 In52 2.326 . S
O54 C62 1.252 . S
C55 O58 1.252 . S
C55 O59 1.260 . S
C56 O63 1.240 . S
C56 O64 1.252 . S
C57 O60 1.252 . S
C57 O61 1.260 . S
O58 In52 2.266 . S
O58 C55 1.252 . S
O59 In52 2.326 . S
O59 C55 1.260 . S
O60 In52 2.266 . S
O60 C57 1.252 . S
O61 In52 2.326 . S
O61 C57 1.260 . S
C62 O53 1.240 . S
C62 O54 1.252 . S
O63 In52 2.294 . S
O63 C56 1.240 . S
O64 In52 2.326 . S
O64 C56 1.252 . S
In65 O66 2.294 . S
In65 O67 2.326 . S
In65 O71 2.266 . S
In65 O72 2.326 . S
In65 O73 2.266 . S
In65 O74 2.326 . S
In65 O76 2.294 . S
In65 O77 2.326 . S
O66 In65 2.294 . S
O66 C75 1.240 . S
O67 In65 2.326 . S
O67 C75 1.252 . S
C68 O71 1.252 . S
C68 O72 1.260 . S
C69 O76 1.240 . S
C69 O77 1.252 . S
C70 O73 1.252 . S
C70 O74 1.260 . S
O71 In65 2.266 . S
O71 C68 1.252 . S
O72 In65 2.326 . S
O72 C68 1.260 . S
O73 In65 2.266 . S
O73 C70 1.252 . S
O74 In65 2.326 . S
O74 C70 1.260 . S
C75 O66 1.240 . S
C75 O67 1.252 . S
O76 In65 2.294 . S
O76 C69 1.240 . S
O77 In65 2.326 . S
O77 C69 1.252 . S
In78 O79 2.294 . S
In78 O80 2.326 . S
In78 O84 2.266 . S
In78 O85 2.326 . S
In78 O86 2.266 . S
In78 O87 2.326 . S
In78 O89 2.294 . S
In78 O90 2.326 . S
O79 In78 2.294 . S
O79 C88 1.240 . S
O80 In78 2.326 . S
O80 C88 1.252 . S
C81 O84 1.252 . S
C81 O85 1.260 . S
C82 O89 1.240 . S
C82 O90 1.252 . S
C83 O86 1.252 . S
C83 O87 1.260 . S
O84 In78 2.266 . S
O84 C81 1.252 . S
O85 In78 2.326 . S
O85 C81 1.260 . S
O86 In78 2.266 . S
O86 C83 1.252 . S
O87 In78 2.326 . S
O87 C83 1.260 . S
C88 O79 1.240 . S
C88 O80 1.252 . S
O89 In78 2.294 . S
O89 C82 1.240 . S
O90 In78 2.326 . S
O90 C82 1.252 . S
In91 O92 2.294 . S
In91 O93 2.326 . S
In91 O97 2.266 . S
In91 O98 2.326 . S
In91 O99 2.266 . S
In91 O100 2.326 . S
In91 O102 2.294 . S
In91 O103 2.326 . S
O92 In91 2.294 . S
O92 C101 1.240 . S
O93 In91 2.326 . S
O93 C101 1.252 . S
C94 O97 1.252 . S
C94 O98 1.260 . S
C95 O102 1.240 . S
C95 O103 1.252 . S
C96 O99 1.252 . S
C96 O100 1.260 . S
O97 In91 2.266 . S
O97 C94 1.252 . S
O98 In91 2.326 . S
O98 C94 1.260 . S
O99 In91 2.266 . S
O99 C96 1.252 . S
O100 In91 2.326 . S
O100 C96 1.260 . S
C101 O92 1.240 . S
C101 O93 1.252 . S
O102 In91 2.294 . S
O102 C95 1.240 . S
O103 In91 2.326 . S
O103 C95 1.252 . S
In104 O105 2.294 . S
In104 O106 2.326 . S
In104 O110 2.266 . S
In104 O111 2.326 . S
In104 O112 2.266 . S
In104 O113 2.326 . S
In104 O115 2.294 . S
In104 O116 2.326 . S
O105 In104 2.294 . S
O105 C114 1.240 . S
O106 In104 2.326 . S
O106 C114 1.252 . S
C107 O110 1.252 . S
C107 O111 1.260 . S
C108 O115 1.240 . S
C108 O116 1.252 . S
C109 O112 1.252 . S
C109 O113 1.260 . S
O110 In104 2.266 . S
O110 C107 1.252 . S
O111 In104 2.326 . S
O111 C107 1.260 . S
O112 In104 2.266 . S
O112 C109 1.252 . S
O113 In104 2.326 . S
O113 C109 1.260 . S
C114 O105 1.240 . S
C114 O106 1.252 . S
O115 In104 2.294 . S
O115 C108 1.240 . S
O116 In104 2.326 . S
O116 C108 1.252 . S
In117 O118 2.294 . S
In117 O119 2.326 . S
In117 O123 2.266 . S
In117 O124 2.326 . S
In117 O125 2.266 . S
In117 O126 2.326 . S
In117 O128 2.294 . S
In117 O129 2.326 . S
O118 In117 2.294 . S
O118 C127 1.240 . S
O119 In117 2.326 . S
O119 C127 1.252 . S
C120 O123 1.252 . S
C120 O124 1.260 . S
C121 O128 1.240 . S
C121 O129 1.252 . S
C122 O125 1.252 . S
C122 O126 1.260 . S
O123 In117 2.266 . S
O123 C120 1.252 . S
O124 In117 2.326 . S
O124 C120 1.260 . S
O125 In117 2.266 . S
O125 C122 1.252 . S
O126 In117 2.326 . S
O126 C122 1.260 . S
C127 O118 1.240 . S
C127 O119 1.252 . S
O128 In117 2.294 . S
O128 C121 1.240 . S
O129 In117 2.326 . S
O129 C121 1.252 . S
In130 O131 2.294 . S
In130 O132 2.326 . S
In130 O136 2.266 . S
In130 O137 2.326 . S
In130 O138 2.266 . S
In130 O139 2.326 . S
In130 O141 2.294 . S
In130 O142 2.326 . S
O131 In130 2.294 . S
O131 C140 1.240 . S
O132 In130 2.326 . S
O132 C140 1.252 . S
C133 O136 1.252 . S
C133 O137 1.260 . S
C134 O141 1.240 . S
C134 O142 1.252 . S
C135 O138 1.252 . S
C135 O139 1.260 . S
O136 In130 2.266 . S
O136 C133 1.252 . S
O137 In130 2.326 . S
O137 C133 1.260 . S
O138 In130 2.266 . S
O138 C135 1.252 . S
O139 In130 2.326 . S
O139 C135 1.260 . S
C140 O131 1.240 . S
C140 O132 1.252 . S
O141 In130 2.294 . S
O141 C134 1.240 . S
O142 In130 2.326 . S
O142 C134 1.252 . S
In143 O144 2.294 . S
In143 O145 2.326 . S
In143 O149 2.266 . S
In143 O150 2.326 . S
In143 O151 2.266 . S
In143 O152 2.326 . S
In143 O154 2.294 . S
In143 O155 2.326 . S
O144 In143 2.294 . S
O144 C153 1.240 . S
O145 In143 2.326 . S
O145 C153 1.252 . S
C146 O149 1.252 . S
C146 O150 1.260 . S
C147 O154 1.240 . S
C147 O155 1.252 . S
C148 O151 1.252 . S
C148 O152 1.260 . S
O149 In143 2.266 . S
O149 C146 1.252 . S
O150 In143 2.326 . S
O150 C146 1.260 . S
O151 In143 2.266 . S
O151 C148 1.252 . S
O152 In143 2.326 . S
O152 C148 1.260 . S
C153 O144 1.240 . S
C153 O145 1.252 . S
O154 In143 2.294 . S
O154 C147 1.240 . S
O155 In143 2.326 . S
O155 C147 1.252 . S
In156 O157 2.294 . S
In156 O158 2.326 . S
In156 O162 2.266 . S
In156 O163 2.326 . S
In156 O164 2.266 . S
In156 O165 2.326 . S
In156 O167 2.294 . S
In156 O168 2.326 . S
O157 In156 2.294 . S
O157 C166 1.240 . S
O158 In156 2.326 . S
O158 C166 1.252 . S
C159 O162 1.252 . S
C159 O163 1.260 . S
C160 O167 1.240 . S
C160 O168 1.252 . S
C161 O164 1.252 . S
C161 O165 1.260 . S
O162 In156 2.266 . S
O162 C159 1.252 . S
O163 In156 2.326 . S
O163 C159 1.260 . S
O164 In156 2.266 . S
O164 C161 1.252 . S
O165 In156 2.326 . S
O165 C161 1.260 . S
C166 O157 1.240 . S
C166 O158 1.252 . S
O167 In156 2.294 . S
O167 C160 1.240 . S
O168 In156 2.326 . S
O168 C160 1.252 . S
In169 O170 2.294 . S
In169 O171 2.326 . S
In169 O175 2.266 . S
In169 O176 2.326 . S
In169 O177 2.266 . S
In169 O178 2.326 . S
In169 O180 2.294 . S
In169 O181 2.326 . S
O170 In169 2.294 . S
O170 C179 1.240 . S
O171 In169 2.326 . S
O171 C179 1.252 . S
C172 O175 1.252 . S
C172 O176 1.260 . S
C173 O180 1.240 . S
C173 O181 1.252 . S
C174 O177 1.252 . S
C174 O178 1.260 . S
O175 In169 2.266 . S
O175 C172 1.252 . S
O176 In169 2.326 . S
O176 C172 1.260 . S
O177 In169 2.266 . S
O177 C174 1.252 . S
O178 In169 2.326 . S
O178 C174 1.260 . S
C179 O170 1.240 . S
C179 O171 1.252 . S
O180 In169 2.294 . S
O180 C173 1.240 . S
O181 In169 2.326 . S
O181 C173 1.252 . S
In182 O183 2.294 . S
In182 O184 2.326 . S
In182 O188 2.266 . S
In182 O189 2.326 . S
In182 O190 2.266 . S
In182 O191 2.326 . S
In182 O193 2.294 . S
In182 O194 2.326 . S
O183 In182 2.294 . S
O183 C192 1.240 . S
O184 In182 2.326 . S
O184 C192 1.252 . S
C185 O188 1.252 . S
C185 O189 1.260 . S
C186 O193 1.240 . S
C186 O194 1.252 . S
C187 O190 1.252 . S
C187 O191 1.260 . S
O188 In182 2.266 . S
O188 C185 1.252 . S
O189 In182 2.326 . S
O189 C185 1.260 . S
O190 In182 2.266 . S
O190 C187 1.252 . S
O191 In182 2.326 . S
O191 C187 1.260 . S
C192 O183 1.240 . S
C192 O184 1.252 . S
O193 In182 2.294 . S
O193 C186 1.240 . S
O194 In182 2.326 . S
O194 C186 1.252 . S
In195 O196 2.294 . S
In195 O197 2.326 . S
In195 O201 2.266 . S
In195 O202 2.326 . S
In195 O203 2.266 . S
In195 O204 2.326 . S
In195 O206 2.294 . S
In195 O207 2.326 . S
O196 In195 2.294 . S
O196 C205 1.240 . S
O197 In195 2.326 . S
O197 C205 1.252 . S
C198 O201 1.252 . S
C198 O202 1.260 . S
C199 O206 1.240 . S
C199 O207 1.252 . S
C200 O203 1.252 . S
C200 O204 1.260 . S
O201 In195 2.266 . S
O201 C198 1.252 . S
O202 In195 2.326 . S
O202 C198 1.260 . S
O203 In195 2.266 . S
O203 C200 1.252 . S
O204 In195 2.326 . S
O204 C200 1.260 . S
C205 O196 1.240 . S
C205 O197 1.252 . S
O206 In195 2.294 . S
O206 C199 1.240 . S
O207 In195 2.326 . S
O207 C199 1.252 . S
In208 O209 2.294 . S
In208 O210 2.326 . S
In208 O214 2.266 . S
In208 O215 2.326 . S
In208 O216 2.266 . S
In208 O217 2.326 . S
In208 O219 2.294 . S
In208 O220 2.326 . S
O209 In208 2.294 . S
O209 C218 1.240 . S
O210 In208 2.326 . S
O210 C218 1.252 . S
C211 O214 1.252 . S
C211 O215 1.260 . S
C212 O219 1.240 . S
C212 O220 1.252 . S
C213 O216 1.252 . S
C213 O217 1.260 . S
O214 In208 2.266 . S
O214 C211 1.252 . S
O215 In208 2.326 . S
O215 C211 1.260 . S
O216 In208 2.266 . S
O216 C213 1.252 . S
O217 In208 2.326 . S
O217 C213 1.260 . S
C218 O209 1.240 . S
C218 O210 1.252 . S
O219 In208 2.294 . S
O219 C212 1.240 . S
O220 In208 2.326 . S
O220 C212 1.252 . S
In221 O222 2.294 . S
In221 O223 2.326 . S
In221 O227 2.266 . S
In221 O228 2.326 . S
In221 O229 2.266 . S
In221 O230 2.326 . S
In221 O232 2.294 . S
In221 O233 2.326 . S
O222 In221 2.294 . S
O222 C231 1.240 . S
O223 In221 2.326 . S
O223 C231 1.252 . S
C224 O227 1.252 . S
C224 O228 1.260 . S
C225 O232 1.240 . S
C225 O233 1.252 . S
C226 O229 1.252 . S
C226 O230 1.260 . S
O227 In221 2.266 . S
O227 C224 1.252 . S
O228 In221 2.326 . S
O228 C224 1.260 . S
O229 In221 2.266 . S
O229 C226 1.252 . S
O230 In221 2.326 . S
O230 C226 1.260 . S
C231 O222 1.240 . S
C231 O223 1.252 . S
O232 In221 2.294 . S
O232 C225 1.240 . S
O233 In221 2.326 . S
O233 C225 1.252 . S
In234 O235 2.294 . S
In234 O236 2.326 . S
In234 O240 2.266 . S
In234 O241 2.326 . S
In234 O242 2.266 . S
In234 O243 2.326 . S
In234 O245 2.294 . S
In234 O246 2.326 . S
O235 In234 2.294 . S
O235 C244 1.240 . S
O236 In234 2.326 . S
O236 C244 1.252 . S
C237 O240 1.252 . S
C237 O241 1.260 . S
C238 O245 1.240 . S
C238 O246 1.252 . S
C239 O242 1.252 . S
C239 O243 1.260 . S
O240 In234 2.266 . S
O240 C237 1.252 . S
O241 In234 2.326 . S
O241 C237 1.260 . S
O242 In234 2.266 . S
O242 C239 1.252 . S
O243 In234 2.326 . S
O243 C239 1.260 . S
C244 O235 1.240 . S
C244 O236 1.252 . S
O245 In234 2.294 . S
O245 C238 1.240 . S
O246 In234 2.326 . S
O246 C238 1.252 . S
In247 O248 2.294 . S
In247 O249 2.326 . S
In247 O253 2.266 . S
In247 O254 2.326 . S
In247 O255 2.266 . S
In247 O256 2.326 . S
In247 O258 2.294 . S
In247 O259 2.326 . S
O248 In247 2.294 . S
O248 C257 1.240 . S
O249 In247 2.326 . S
O249 C257 1.252 . S
C250 O253 1.252 . S
C250 O254 1.260 . S
C251 O258 1.240 . S
C251 O259 1.252 . S
C252 O255 1.252 . S
C252 O256 1.260 . S
O253 In247 2.266 . S
O253 C250 1.252 . S
O254 In247 2.326 . S
O254 C250 1.260 . S
O255 In247 2.266 . S
O255 C252 1.252 . S
O256 In247 2.326 . S
O256 C252 1.260 . S
C257 O248 1.240 . S
C257 O249 1.252 . S
O258 In247 2.294 . S
O258 C251 1.240 . S
O259 In247 2.326 . S
O259 C251 1.252 . S
In260 O261 2.294 . S
In260 O262 2.326 . S
In260 O266 2.266 . S
In260 O267 2.326 . S
In260 O268 2.266 . S
In260 O269 2.326 . S
In260 O271 2.294 . S
In260 O272 2.326 . S
O261 In260 2.294 . S
O261 C270 1.240 . S
O262 In260 2.326 . S
O262 C270 1.252 . S
C263 O266 1.252 . S
C263 O267 1.260 . S
C264 O271 1.240 . S
C264 O272 1.252 . S
C265 O268 1.252 . S
C265 O269 1.260 . S
O266 In260 2.266 . S
O266 C263 1.252 . S
O267 In260 2.326 . S
O267 C263 1.260 . S
O268 In260 2.266 . S
O268 C265 1.252 . S
O269 In260 2.326 . S
O269 C265 1.260 . S
C270 O261 1.240 . S
C270 O262 1.252 . S
O271 In260 2.294 . S
O271 C264 1.240 . S
O272 In260 2.326 . S
O272 C264 1.252 . S
In273 O274 2.294 . S
In273 O275 2.326 . S
In273 O279 2.266 . S
In273 O280 2.326 . S
In273 O281 2.266 . S
In273 O282 2.326 . S
In273 O284 2.294 . S
In273 O285 2.326 . S
O274 In273 2.294 . S
O274 C283 1.240 . S
O275 In273 2.326 . S
O275 C283 1.252 . S
C276 O279 1.252 . S
C276 O280 1.260 . S
C277 O284 1.240 . S
C277 O285 1.252 . S
C278 O281 1.252 . S
C278 O282 1.260 . S
O279 In273 2.266 . S
O279 C276 1.252 . S
O280 In273 2.326 . S
O280 C276 1.260 . S
O281 In273 2.266 . S
O281 C278 1.252 . S
O282 In273 2.326 . S
O282 C278 1.260 . S
C283 O274 1.240 . S
C283 O275 1.252 . S
O284 In273 2.294 . S
O284 C277 1.240 . S
O285 In273 2.326 . S
O285 C277 1.252 . S
In286 O287 2.294 . S
In286 O288 2.326 . S
In286 O292 2.266 . S
In286 O293 2.326 . S
In286 O294 2.266 . S
In286 O295 2.326 . S
In286 O297 2.294 . S
In286 O298 2.326 . S
O287 In286 2.294 . S
O287 C296 1.240 . S
O288 In286 2.326 . S
O288 C296 1.252 . S
C289 O292 1.252 . S
C289 O293 1.260 . S
C290 O297 1.240 . S
C290 O298 1.252 . S
C291 O294 1.252 . S
C291 O295 1.260 . S
O292 In286 2.266 . S
O292 C289 1.252 . S
O293 In286 2.326 . S
O293 C289 1.260 . S
O294 In286 2.266 . S
O294 C291 1.252 . S
O295 In286 2.326 . S
O295 C291 1.260 . S
C296 O287 1.240 . S
C296 O288 1.252 . S
O297 In286 2.294 . S
O297 C290 1.240 . S
O298 In286 2.326 . S
O298 C290 1.252 . S
In299 O300 2.294 . S
In299 O301 2.326 . S
In299 O305 2.266 . S
In299 O306 2.326 . S
In299 O307 2.266 . S
In299 O308 2.326 . S
In299 O310 2.294 . S
In299 O311 2.326 . S
O300 In299 2.294 . S
O300 C309 1.240 . S
O301 In299 2.326 . S
O301 C309 1.252 . S
C302 O305 1.252 . S
C302 O306 1.260 . S
C303 O310 1.240 . S
C303 O311 1.252 . S
C304 O307 1.252 . S
C304 O308 1.260 . S
O305 In299 2.266 . S
O305 C302 1.252 . S
O306 In299 2.326 . S
O306 C302 1.260 . S
O307 In299 2.266 . S
O307 C304 1.252 . S
O308 In299 2.326 . S
O308 C304 1.260 . S
C309 O300 1.240 . S
C309 O301 1.252 . S
O310 In299 2.294 . S
O310 C303 1.240 . S
O311 In299 2.326 . S
O311 C303 1.252 . S
H312 C318 0.930 . S
H313 C322 0.930 . S
H314 C327 0.929 . S
H315 C325 0.929 . S
H316 C320 0.929 . S
H317 C326 0.929 . S
C318 H312 0.930 . S
C318 C319 1.367 . S
C318 C326 1.378 . S
C319 C318 1.367 . S
C319 C327 1.433 . S
C320 H316 0.929 . S
C320 C322 1.378 . S
C320 C324 1.350 . S
C321 C324 1.463 . S
C321 C326 1.350 . S
C321 N329 1.427 . S
C322 H313 0.930 . S
C322 C320 1.378 . S
C322 C323 1.367 . S
C323 C322 1.367 . S
C323 C325 1.433 . S
C324 C320 1.350 . S
C324 C321 1.463 . S
C324 N328 1.427 . S
C325 H315 0.929 . S
C325 C323 1.433 . S
C325 N328 1.384 . S
C326 H317 0.929 . S
C326 C318 1.378 . S
C326 C321 1.350 . S
C327 H314 0.929 . S
C327 C319 1.433 . S
C327 N329 1.384 . S
N328 C324 1.427 . S
N328 C325 1.384 . S
N329 C321 1.427 . S
N329 C327 1.384 . S
H330 C336 0.930 . S
H331 C340 0.930 . S
H332 C345 0.929 . S
H333 C343 0.929 . S
H334 C338 0.929 . S
H335 C344 0.929 . S
C336 H330 0.930 . S
C336 C337 1.367 . S
C336 C344 1.378 . S
C337 C336 1.367 . S
C337 C345 1.433 . S
C338 H334 0.929 . S
C338 C340 1.378 . S
C338 C342 1.350 . S
C339 C342 1.463 . S
C339 C344 1.350 . S
C339 N347 1.427 . S
C340 H331 0.930 . S
C340 C338 1.378 . S
C340 C341 1.367 . S
C341 C340 1.367 . S
C341 C343 1.433 . S
C342 C338 1.350 . S
C342 C339 1.463 . S
C342 N346 1.427 . S
C343 H333 0.929 . S
C343 C341 1.433 . S
C343 N346 1.384 . S
C344 H335 0.929 . S
C344 C336 1.378 . S
C344 C339 1.350 . S
C345 H332 0.929 . S
C345 C337 1.433 . S
C345 N347 1.384 . S
N346 C342 1.427 . S
N346 C343 1.384 . S
N347 C339 1.427 . S
N347 C345 1.384 . S
H348 C354 0.930 . S
H349 C358 0.930 . S
H350 C363 0.929 . S
H351 C361 0.929 . S
H352 C356 0.929 . S
H353 C362 0.929 . S
C354 H348 0.930 . S
C354 C355 1.367 . S
C354 C362 1.378 . S
C355 C354 1.367 . S
C355 C363 1.433 . S
C356 H352 0.929 . S
C356 C358 1.378 . S
C356 C360 1.350 . S
C357 C360 1.463 . S
C357 C362 1.350 . S
C357 N365 1.427 . S
C358 H349 0.930 . S
C358 C356 1.378 . S
C358 C359 1.367 . S
C359 C358 1.367 . S
C359 C361 1.433 . S
C360 C356 1.350 . S
C360 C357 1.463 . S
C360 N364 1.427 . S
C361 H351 0.929 . S
C361 C359 1.433 . S
C361 N364 1.384 . S
C362 H353 0.929 . S
C362 C354 1.378 . S
C362 C357 1.350 . S
C363 H350 0.929 . S
C363 C355 1.433 . S
C363 N365 1.384 . S
N364 C360 1.427 . S
N364 C361 1.384 . S
N365 C357 1.427 . S
N365 C363 1.384 . S
H366 C372 0.930 . S
H367 C376 0.930 . S
H368 C381 0.929 . S
H369 C379 0.929 . S
H370 C374 0.929 . S
H371 C380 0.929 . S
C372 H366 0.930 . S
C372 C373 1.367 . S
C372 C380 1.378 . S
C373 C372 1.367 . S
C373 C381 1.433 . S
C374 H370 0.929 . S
C374 C376 1.378 . S
C374 C378 1.350 . S
C375 C378 1.463 . S
C375 C380 1.350 . S
C375 N383 1.427 . S
C376 H367 0.930 . S
C376 C374 1.378 . S
C376 C377 1.367 . S
C377 C376 1.367 . S
C377 C379 1.433 . S
C378 C374 1.350 . S
C378 C375 1.463 . S
C378 N382 1.427 . S
C379 H369 0.929 . S
C379 C377 1.433 . S
C379 N382 1.384 . S
C380 H371 0.929 . S
C380 C372 1.378 . S
C380 C375 1.350 . S
C381 H368 0.929 . S
C381 C373 1.433 . S
C381 N383 1.384 . S
N382 C378 1.427 . S
N382 C379 1.384 . S
N383 C375 1.427 . S
N383 C381 1.384 . S
H384 C390 0.930 . S
H385 C394 0.930 . S
H386 C399 0.929 . S
H387 C397 0.929 . S
H388 C392 0.929 . S
H389 C398 0.929 . S
C390 H384 0.930 . S
C390 C391 1.367 . S
C390 C398 1.378 . S
C391 C390 1.367 . S
C391 C399 1.433 . S
C392 H388 0.929 . S
C392 C394 1.378 . S
C392 C396 1.350 . S
C393 C396 1.463 . S
C393 C398 1.350 . S
C393 N401 1.427 . S
C394 H385 0.930 . S
C394 C392 1.378 . S
C394 C395 1.367 . S
C395 C394 1.367 . S
C395 C397 1.433 . S
C396 C392 1.350 . S
C396 C393 1.463 . S
C396 N400 1.427 . S
C397 H387 0.929 . S
C397 C395 1.433 . S
C397 N400 1.384 . S
C398 H389 0.929 . S
C398 C390 1.378 . S
C398 C393 1.350 . S
C399 H386 0.929 . S
C399 C391 1.433 . S
C399 N401 1.384 . S
N400 C396 1.427 . S
N400 C397 1.384 . S
N401 C393 1.427 . S
N401 C399 1.384 . S
H402 C408 0.930 . S
H403 C412 0.930 . S
H404 C417 0.929 . S
H405 C415 0.929 . S
H406 C410 0.929 . S
H407 C416 0.929 . S
C408 H402 0.930 . S
C408 C409 1.367 . S
C408 C416 1.378 . S
C409 C408 1.367 . S
C409 C417 1.433 . S
C410 H406 0.929 . S
C410 C412 1.378 . S
C410 C414 1.350 . S
C411 C414 1.463 . S
C411 C416 1.350 . S
C411 N419 1.427 . S
C412 H403 0.930 . S
C412 C410 1.378 . S
C412 C413 1.367 . S
C413 C412 1.367 . S
C413 C415 1.433 . S
C414 C410 1.350 . S
C414 C411 1.463 . S
C414 N418 1.427 . S
C415 H405 0.929 . S
C415 C413 1.433 . S
C415 N418 1.384 . S
C416 H407 0.929 . S
C416 C408 1.378 . S
C416 C411 1.350 . S
C417 H404 0.929 . S
C417 C409 1.433 . S
C417 N419 1.384 . S
N418 C414 1.427 . S
N418 C415 1.384 . S
N419 C411 1.427 . S
N419 C417 1.384 . S
H420 C426 0.930 . S
H421 C430 0.930 . S
H422 C435 0.929 . S
H423 C433 0.929 . S
H424 C428 0.929 . S
H425 C434 0.929 . S
C426 H420 0.930 . S
C426 C427 1.367 . S
C426 C434 1.378 . S
C427 C426 1.367 . S
C427 C435 1.433 . S
C428 H424 0.929 . S
C428 C430 1.378 . S
C428 C432 1.350 . S
C429 C432 1.463 . S
C429 C434 1.350 . S
C429 N437 1.427 . S
C430 H421 0.930 . S
C430 C428 1.378 . S
C430 C431 1.367 . S
C431 C430 1.367 . S
C431 C433 1.433 . S
C432 C428 1.350 . S
C432 C429 1.463 . S
C432 N436 1.427 . S
C433 H423 0.929 . S
C433 C431 1.433 . S
C433 N436 1.384 . S
C434 H425 0.929 . S
C434 C426 1.378 . S
C434 C429 1.350 . S
C435 H422 0.929 . S
C435 C427 1.433 . S
C435 N437 1.384 . S
N436 C432 1.427 . S
N436 C433 1.384 . S
N437 C429 1.427 . S
N437 C435 1.384 . S
H438 C444 0.930 . S
H439 C448 0.930 . S
H440 C453 0.929 . S
H441 C451 0.929 . S
H442 C446 0.929 . S
H443 C452 0.929 . S
C444 H438 0.930 . S
C444 C445 1.367 . S
C444 C452 1.378 . S
C445 C444 1.367 . S
C445 C453 1.433 . S
C446 H442 0.929 . S
C446 C448 1.378 . S
C446 C450 1.350 . S
C447 C450 1.463 . S
C447 C452 1.350 . S
C447 N455 1.427 . S
C448 H439 0.930 . S
C448 C446 1.378 . S
C448 C449 1.367 . S
C449 C448 1.367 . S
C449 C451 1.433 . S
C450 C446 1.350 . S
C450 C447 1.463 . S
C450 N454 1.427 . S
C451 H441 0.929 . S
C451 C449 1.433 . S
C451 N454 1.384 . S
C452 H443 0.929 . S
C452 C444 1.378 . S
C452 C447 1.350 . S
C453 H440 0.929 . S
C453 C445 1.433 . S
C453 N455 1.384 . S
N454 C450 1.427 . S
N454 C451 1.384 . S
N455 C447 1.427 . S
N455 C453 1.384 . S
H456 C462 0.930 . S
H457 C466 0.930 . S
H458 C471 0.929 . S
H459 C469 0.929 . S
H460 C464 0.929 . S
H461 C470 0.929 . S
C462 H456 0.930 . S
C462 C463 1.367 . S
C462 C470 1.378 . S
C463 C462 1.367 . S
C463 C471 1.433 . S
C464 H460 0.929 . S
C464 C466 1.378 . S
C464 C468 1.350 . S
C465 C468 1.463 . S
C465 C470 1.350 . S
C465 N473 1.427 . S
C466 H457 0.930 . S
C466 C464 1.378 . S
C466 C467 1.367 . S
C467 C466 1.367 . S
C467 C469 1.433 . S
C468 C464 1.350 . S
C468 C465 1.463 . S
C468 N472 1.427 . S
C469 H459 0.929 . S
C469 C467 1.433 . S
C469 N472 1.384 . S
C470 H461 0.929 . S
C470 C462 1.378 . S
C470 C465 1.350 . S
C471 H458 0.929 . S
C471 C463 1.433 . S
C471 N473 1.384 . S
N472 C468 1.427 . S
N472 C469 1.384 . S
N473 C465 1.427 . S
N473 C471 1.384 . S
H474 C480 0.930 . S
H475 C484 0.930 . S
H476 C489 0.929 . S
H477 C487 0.929 . S
H478 C482 0.929 . S
H479 C488 0.929 . S
C480 H474 0.930 . S
C480 C481 1.367 . S
C480 C488 1.378 . S
C481 C480 1.367 . S
C481 C489 1.433 . S
C482 H478 0.929 . S
C482 C484 1.378 . S
C482 C486 1.350 . S
C483 C486 1.463 . S
C483 C488 1.350 . S
C483 N491 1.427 . S
C484 H475 0.930 . S
C484 C482 1.378 . S
C484 C485 1.367 . S
C485 C484 1.367 . S
C485 C487 1.433 . S
C486 C482 1.350 . S
C486 C483 1.463 . S
C486 N490 1.427 . S
C487 H477 0.929 . S
C487 C485 1.433 . S
C487 N490 1.384 . S
C488 H479 0.929 . S
C488 C480 1.378 . S
C488 C483 1.350 . S
C489 H476 0.929 . S
C489 C481 1.433 . S
C489 N491 1.384 . S
N490 C486 1.427 . S
N490 C487 1.384 . S
N491 C483 1.427 . S
N491 C489 1.384 . S
H492 C498 0.930 . S
H493 C502 0.930 . S
H494 C507 0.929 . S
H495 C505 0.929 . S
H496 C500 0.929 . S
H497 C506 0.929 . S
C498 H492 0.930 . S
C498 C499 1.367 . S
C498 C506 1.378 . S
C499 C498 1.367 . S
C499 C507 1.433 . S
C500 H496 0.929 . S
C500 C502 1.378 . S
C500 C504 1.350 . S
C501 C504 1.463 . S
C501 C506 1.350 . S
C501 N509 1.427 . S
C502 H493 0.930 . S
C502 C500 1.378 . S
C502 C503 1.367 . S
C503 C502 1.367 . S
C503 C505 1.433 . S
C504 C500 1.350 . S
C504 C501 1.463 . S
C504 N508 1.427 . S
C505 H495 0.929 . S
C505 C503 1.433 . S
C505 N508 1.384 . S
C506 H497 0.929 . S
C506 C498 1.378 . S
C506 C501 1.350 . S
C507 H494 0.929 . S
C507 C499 1.433 . S
C507 N509 1.384 . S
N508 C504 1.427 . S
N508 C505 1.384 . S
N509 C501 1.427 . S
N509 C507 1.384 . S
H510 C516 0.930 . S
H511 C520 0.930 . S
H512 C525 0.929 . S
H513 C523 0.929 . S
H514 C518 0.929 . S
H515 C524 0.929 . S
C516 H510 0.930 . S
C516 C517 1.367 . S
C516 C524 1.378 . S
C517 C516 1.367 . S
C517 C525 1.433 . S
C518 H514 0.929 . S
C518 C520 1.378 . S
C518 C522 1.350 . S
C519 C522 1.463 . S
C519 C524 1.350 . S
C519 N527 1.427 . S
C520 H511 0.930 . S
C520 C518 1.378 . S
C520 C521 1.367 . S
C521 C520 1.367 . S
C521 C523 1.433 . S
C522 C518 1.350 . S
C522 C519 1.463 . S
C522 N526 1.427 . S
C523 H513 0.929 . S
C523 C521 1.433 . S
C523 N526 1.384 . S
C524 H515 0.929 . S
C524 C516 1.378 . S
C524 C519 1.350 . S
C525 H512 0.929 . S
C525 C517 1.433 . S
C525 N527 1.384 . S
N526 C522 1.427 . S
N526 C523 1.384 . S
N527 C519 1.427 . S
N527 C525 1.384 . S
H528 C534 0.930 . S
H529 C538 0.930 . S
H530 C543 0.929 . S
H531 C541 0.929 . S
H532 C536 0.929 . S
H533 C542 0.929 . S
C534 H528 0.930 . S
C534 C535 1.367 . S
C534 C542 1.378 . S
C535 C534 1.367 . S
C535 C543 1.433 . S
C536 H532 0.929 . S
C536 C538 1.378 . S
C536 C540 1.350 . S
C537 C540 1.463 1_556 S
C537 C542 1.350 . S
C537 N545 1.427 . S
C538 H529 0.930 . S
C538 C536 1.378 . S
C538 C539 1.367 . S
C539 C538 1.367 . S
C539 C541 1.433 . S
C540 C536 1.350 . S
C540 C537 1.463 1_554 S
C540 N544 1.427 . S
C541 H531 0.929 . S
C541 C539 1.433 . S
C541 N544 1.384 . S
C542 H533 0.929 . S
C542 C534 1.378 . S
C542 C537 1.350 . S
C543 H530 0.929 . S
C543 C535 1.433 . S
C543 N545 1.384 . S
N544 C540 1.427 . S
N544 C541 1.384 . S
N545 C537 1.427 . S
N545 C543 1.384 . S
H546 C552 0.930 . S
H547 C556 0.930 . S
H548 C561 0.929 . S
H549 C559 0.929 . S
H550 C554 0.929 . S
H551 C560 0.929 . S
C552 H546 0.930 . S
C552 C553 1.367 . S
C552 C560 1.378 . S
C553 C552 1.367 . S
C553 C561 1.433 . S
C554 H550 0.929 . S
C554 C556 1.378 . S
C554 C558 1.350 . S
C555 C558 1.463 . S
C555 C560 1.350 . S
C555 N563 1.427 . S
C556 H547 0.930 . S
C556 C554 1.378 . S
C556 C557 1.367 . S
C557 C556 1.367 . S
C557 C559 1.433 . S
C558 C554 1.350 . S
C558 C555 1.463 . S
C558 N562 1.427 . S
C559 H549 0.929 . S
C559 C557 1.433 . S
C559 N562 1.384 . S
C560 H551 0.929 . S
C560 C552 1.378 . S
C560 C555 1.350 . S
C561 H548 0.929 . S
C561 C553 1.433 . S
C561 N563 1.384 . S
N562 C558 1.427 . S
N562 C559 1.384 . S
N563 C555 1.427 . S
N563 C561 1.384 . S
H564 C570 0.930 . S
H565 C574 0.930 . S
H566 C579 0.929 . S
H567 C577 0.929 . S
H568 C572 0.929 . S
H569 C578 0.929 . S
C570 H564 0.930 . S
C570 C571 1.367 . S
C570 C578 1.378 . S
C571 C570 1.367 . S
C571 C579 1.433 . S
C572 H568 0.929 . S
C572 C574 1.378 . S
C572 C576 1.350 . S
C573 C576 1.463 1_554 S
C573 C578 1.350 . S
C573 N581 1.427 . S
C574 H565 0.930 . S
C574 C572 1.378 . S
C574 C575 1.367 . S
C575 C574 1.367 . S
C575 C577 1.433 . S
C576 C572 1.350 . S
C576 C573 1.463 1_556 S
C576 N580 1.427 . S
C577 H567 0.929 . S
C577 C575 1.433 . S
C577 N580 1.384 . S
C578 H569 0.929 . S
C578 C570 1.378 . S
C578 C573 1.350 . S
C579 H566 0.929 . S
C579 C571 1.433 . S
C579 N581 1.384 . S
N580 C576 1.427 . S
N580 C577 1.384 . S
N581 C573 1.427 . S
N581 C579 1.384 . S
H582 C588 0.930 . S
H583 C592 0.930 . S
H584 C597 0.929 . S
H585 C595 0.929 . S
H586 C590 0.929 . S
H587 C596 0.929 . S
C588 H582 0.930 . S
C588 C589 1.367 . S
C588 C596 1.378 . S
C589 C588 1.367 . S
C589 C597 1.433 . S
C590 H586 0.929 . S
C590 C592 1.378 . S
C590 C594 1.350 . S
C591 C594 1.463 . S
C591 C596 1.350 . S
C591 N599 1.427 . S
C592 H583 0.930 . S
C592 C590 1.378 . S
C592 C593 1.367 . S
C593 C592 1.367 . S
C593 C595 1.433 . S
C594 C590 1.350 . S
C594 C591 1.463 . S
C594 N598 1.427 . S
C595 H585 0.929 . S
C595 C593 1.433 . S
C595 N598 1.384 . S
C596 H587 0.929 . S
C596 C588 1.378 . S
C596 C591 1.350 . S
C597 H584 0.929 . S
C597 C589 1.433 . S
C597 N599 1.384 . S
N598 C594 1.427 . S
N598 C595 1.384 . S
N599 C591 1.427 . S
N599 C597 1.384 . S
H600 C606 0.930 . S
H601 C610 0.930 . S
H602 C615 0.929 . S
H603 C613 0.929 . S
H604 C608 0.929 . S
H605 C614 0.929 . S
C606 H600 0.930 . S
C606 C607 1.367 . S
C606 C614 1.378 . S
C607 C606 1.367 . S
C607 C615 1.433 . S
C608 H604 0.929 . S
C608 C610 1.378 . S
C608 C612 1.350 . S
C609 C612 1.463 1_556 S
C609 C614 1.350 . S
C609 N617 1.427 . S
C610 H601 0.930 . S
C610 C608 1.378 . S
C610 C611 1.367 . S
C611 C610 1.367 . S
C611 C613 1.433 . S
C612 C608 1.350 . S
C612 C609 1.463 1_554 S
C612 N616 1.427 . S
C613 H603 0.929 . S
C613 C611 1.433 . S
C613 N616 1.384 . S
C614 H605 0.929 . S
C614 C606 1.378 . S
C614 C609 1.350 . S
C615 H602 0.929 . S
C615 C607 1.433 . S
C615 N617 1.384 . S
N616 C612 1.427 . S
N616 C613 1.384 . S
N617 C609 1.427 . S
N617 C615 1.384 . S
H618 C624 0.930 . S
H619 C628 0.930 . S
H620 C633 0.929 . S
H621 C631 0.929 . S
H622 C626 0.929 . S
H623 C632 0.929 . S
C624 H618 0.930 . S
C624 C625 1.367 . S
C624 C632 1.378 . S
C625 C624 1.367 . S
C625 C633 1.433 . S
C626 H622 0.929 . S
C626 C628 1.378 . S
C626 C630 1.350 . S
C627 C630 1.463 . S
C627 C632 1.350 . S
C627 N635 1.427 . S
C628 H619 0.930 . S
C628 C626 1.378 . S
C628 C629 1.367 . S
C629 C628 1.367 . S
C629 C631 1.433 . S
C630 C626 1.350 . S
C630 C627 1.463 . S
C630 N634 1.427 . S
C631 H621 0.929 . S
C631 C629 1.433 . S
C631 N634 1.384 . S
C632 H623 0.929 . S
C632 C624 1.378 . S
C632 C627 1.350 . S
C633 H620 0.929 . S
C633 C625 1.433 . S
C633 N635 1.384 . S
N634 C630 1.427 . S
N634 C631 1.384 . S
N635 C627 1.427 . S
N635 C633 1.384 . S
H636 C642 0.930 . S
H637 C646 0.930 . S
H638 C651 0.929 . S
H639 C649 0.929 . S
H640 C644 0.929 . S
H641 C650 0.929 . S
C642 H636 0.930 . S
C642 C643 1.367 . S
C642 C650 1.378 . S
C643 C642 1.367 . S
C643 C651 1.433 . S
C644 H640 0.929 . S
C644 C646 1.378 . S
C644 C648 1.350 . S
C645 C648 1.463 1_554 S
C645 C650 1.350 . S
C645 N653 1.427 . S
C646 H637 0.930 . S
C646 C644 1.378 . S
C646 C647 1.367 . S
C647 C646 1.367 . S
C647 C649 1.433 . S
C648 C644 1.350 . S
C648 C645 1.463 1_556 S
C648 N652 1.427 . S
C649 H639 0.929 . S
C649 C647 1.433 . S
C649 N652 1.384 . S
C650 H641 0.929 . S
C650 C642 1.378 . S
C650 C645 1.350 . S
C651 H638 0.929 . S
C651 C643 1.433 . S
C651 N653 1.384 . S
N652 C648 1.427 . S
N652 C649 1.384 . S
N653 C645 1.427 . S
N653 C651 1.384 . S
H654 C660 0.930 . S
H655 C664 0.930 . S
H656 C669 0.929 . S
H657 C667 0.929 . S
H658 C662 0.929 . S
H659 C668 0.929 . S
C660 H654 0.930 . S
C660 C661 1.367 . S
C660 C668 1.378 . S
C661 C660 1.367 . S
C661 C669 1.433 . S
C662 H658 0.929 . S
C662 C664 1.378 . S
C662 C666 1.350 . S
C663 C666 1.463 . S
C663 C668 1.350 . S
C663 N671 1.427 . S
C664 H655 0.930 . S
C664 C662 1.378 . S
C664 C665 1.367 . S
C665 C664 1.367 . S
C665 C667 1.433 . S
C666 C662 1.350 . S
C666 C663 1.463 . S
C666 N670 1.427 . S
C667 H657 0.929 . S
C667 C665 1.433 . S
C667 N670 1.384 . S
C668 H659 0.929 . S
C668 C660 1.378 . S
C668 C663 1.350 . S
C669 H656 0.929 . S
C669 C661 1.433 . S
C669 N671 1.384 . S
N670 C666 1.427 . S
N670 C667 1.384 . S
N671 C663 1.427 . S
N671 C669 1.384 . S
H672 C678 0.930 . S
H673 C682 0.930 . S
H674 C687 0.929 . S
H675 C685 0.929 . S
H676 C680 0.929 . S
H677 C686 0.929 . S
C678 H672 0.930 . S
C678 C679 1.367 . S
C678 C686 1.378 . S
C679 C678 1.367 . S
C679 C687 1.433 . S
C680 H676 0.929 . S
C680 C682 1.378 . S
C680 C684 1.350 . S
C681 C684 1.463 1_556 S
C681 C686 1.350 . S
C681 N689 1.427 . S
C682 H673 0.930 . S
C682 C680 1.378 . S
C682 C683 1.367 . S
C683 C682 1.367 . S
C683 C685 1.433 . S
C684 C680 1.350 . S
C684 C681 1.463 1_554 S
C684 N688 1.427 . S
C685 H675 0.929 . S
C685 C683 1.433 . S
C685 N688 1.384 . S
C686 H677 0.929 . S
C686 C678 1.378 . S
C686 C681 1.350 . S
C687 H674 0.929 . S
C687 C679 1.433 . S
C687 N689 1.384 . S
N688 C684 1.427 . S
N688 C685 1.384 . S
N689 C681 1.427 . S
N689 C687 1.384 . S
H690 C696 0.930 . S
H691 C700 0.930 . S
H692 C705 0.929 . S
H693 C703 0.929 . S
H694 C698 0.929 . S
H695 C704 0.929 . S
C696 H690 0.930 . S
C696 C697 1.367 . S
C696 C704 1.378 . S
C697 C696 1.367 . S
C697 C705 1.433 . S
C698 H694 0.929 . S
C698 C700 1.378 . S
C698 C702 1.350 . S
C699 C702 1.463 . S
C699 C704 1.350 . S
C699 N707 1.427 . S
C700 H691 0.930 . S
C700 C698 1.378 . S
C700 C701 1.367 . S
C701 C700 1.367 . S
C701 C703 1.433 . S
C702 C698 1.350 . S
C702 C699 1.463 . S
C702 N706 1.427 . S
C703 H693 0.929 . S
C703 C701 1.433 . S
C703 N706 1.384 . S
C704 H695 0.929 . S
C704 C696 1.378 . S
C704 C699 1.350 . S
C705 H692 0.929 . S
C705 C697 1.433 . S
C705 N707 1.384 . S
N706 C702 1.427 . S
N706 C703 1.384 . S
N707 C699 1.427 . S
N707 C705 1.384 . S
H708 C714 0.930 . S
H709 C718 0.930 . S
H710 C723 0.929 . S
H711 C721 0.929 . S
H712 C716 0.929 . S
H713 C722 0.929 . S
C714 H708 0.930 . S
C714 C715 1.367 . S
C714 C722 1.378 . S
C715 C714 1.367 . S
C715 C723 1.433 . S
C716 H712 0.929 . S
C716 C718 1.378 . S
C716 C720 1.350 . S
C717 C720 1.463 1_556 S
C717 C722 1.350 . S
C717 N725 1.427 . S
C718 H709 0.930 . S
C718 C716 1.378 . S
C718 C719 1.367 . S
C719 C718 1.367 . S
C719 C721 1.433 . S
C720 C716 1.350 . S
C720 C717 1.463 1_554 S
C720 N724 1.427 . S
C721 H711 0.929 . S
C721 C719 1.433 . S
C721 N724 1.384 . S
C722 H713 0.929 . S
C722 C714 1.378 . S
C722 C717 1.350 . S
C723 H710 0.929 . S
C723 C715 1.433 . S
C723 N725 1.384 . S
N724 C720 1.427 . S
N724 C721 1.384 . S
N725 C717 1.427 . S
N725 C723 1.384 . S
H726 C732 0.930 . S
H727 C736 0.930 . S
H728 C741 0.929 . S
H729 C739 0.929 . S
H730 C734 0.929 . S
H731 C740 0.929 . S
C732 H726 0.930 . S
C732 C733 1.367 . S
C732 C740 1.378 . S
C733 C732 1.367 . S
C733 C741 1.433 . S
C734 H730 0.929 . S
C734 C736 1.378 . S
C734 C738 1.350 . S
C735 C738 1.463 . S
C735 C740 1.350 . S
C735 N743 1.427 . S
C736 H727 0.930 . S
C736 C734 1.378 . S
C736 C737 1.367 . S
C737 C736 1.367 . S
C737 C739 1.433 . S
C738 C734 1.350 . S
C738 C735 1.463 . S
C738 N742 1.427 . S
C739 H729 0.929 . S
C739 C737 1.433 . S
C739 N742 1.384 . S
C740 H731 0.929 . S
C740 C732 1.378 . S
C740 C735 1.350 . S
C741 H728 0.929 . S
C741 C733 1.433 . S
C741 N743 1.384 . S
N742 C738 1.427 . S
N742 C739 1.384 . S
N743 C735 1.427 . S
N743 C741 1.384 . S
H744 C750 0.930 . S
H745 C754 0.930 . S
H746 C759 0.929 . S
H747 C757 0.929 . S
H748 C752 0.929 . S
H749 C758 0.929 . S
C750 H744 0.930 . S
C750 C751 1.367 . S
C750 C758 1.378 . S
C751 C750 1.367 . S
C751 C759 1.433 . S
C752 H748 0.929 . S
C752 C754 1.378 . S
C752 C756 1.350 . S
C753 C756 1.463 . S
C753 C758 1.350 . S
C753 N761 1.427 . S
C754 H745 0.930 . S
C754 C752 1.378 . S
C754 C755 1.367 . S
C755 C754 1.367 . S
C755 C757 1.433 . S
C756 C752 1.350 . S
C756 C753 1.463 . S
C756 N760 1.427 . S
C757 H747 0.929 . S
C757 C755 1.433 . S
C757 N760 1.384 . S
C758 H749 0.929 . S
C758 C750 1.378 . S
C758 C753 1.350 . S
C759 H746 0.929 . S
C759 C751 1.433 . S
C759 N761 1.384 . S
N760 C756 1.427 . S
N760 C757 1.384 . S
N761 C753 1.427 . S
N761 C759 1.384 . S
H762 C768 0.930 . S
H763 C772 0.930 . S
H764 C777 0.929 . S
H765 C775 0.929 . S
H766 C770 0.929 . S
H767 C776 0.929 . S
C768 H762 0.930 . S
C768 C769 1.367 . S
C768 C776 1.378 . S
C769 C768 1.367 . S
C769 C777 1.433 . S
C770 H766 0.929 . S
C770 C772 1.378 . S
C770 C774 1.350 . S
C771 C774 1.463 1_455 S
C771 C776 1.350 . S
C771 N779 1.427 . S
C772 H763 0.930 . S
C772 C770 1.378 . S
C772 C773 1.367 . S
C773 C772 1.367 . S
C773 C775 1.433 . S
C774 C770 1.350 . S
C774 C771 1.463 1_655 S
C774 N778 1.427 . S
C775 H765 0.929 . S
C775 C773 1.433 . S
C775 N778 1.384 . S
C776 H767 0.929 . S
C776 C768 1.378 . S
C776 C771 1.350 . S
C777 H764 0.929 . S
C777 C769 1.433 . S
C777 N779 1.384 . S
N778 C774 1.427 . S
N778 C775 1.384 . S
N779 C771 1.427 . S
N779 C777 1.384 . S
H780 C786 0.930 . S
H781 C790 0.930 . S
H782 C795 0.929 . S
H783 C793 0.929 . S
H784 C788 0.929 . S
H785 C794 0.929 . S
C786 H780 0.930 . S
C786 C787 1.367 . S
C786 C794 1.378 . S
C787 C786 1.367 . S
C787 C795 1.433 . S
C788 H784 0.929 . S
C788 C790 1.378 . S
C788 C792 1.350 . S
C789 C792 1.463 1_565 S
C789 C794 1.350 . S
C789 N797 1.427 . S
C790 H781 0.930 . S
C790 C788 1.378 . S
C790 C791 1.367 . S
C791 C790 1.367 . S
C791 C793 1.433 . S
C792 C788 1.350 . S
C792 C789 1.463 1_545 S
C792 N796 1.427 . S
C793 H783 0.929 . S
C793 C791 1.433 . S
C793 N796 1.384 . S
C794 H785 0.929 . S
C794 C786 1.378 . S
C794 C789 1.350 . S
C795 H782 0.929 . S
C795 C787 1.433 . S
C795 N797 1.384 . S
N796 C792 1.427 . S
N796 C793 1.384 . S
N797 C789 1.427 . S
N797 C795 1.384 . S
H798 C804 0.930 . S
H799 C808 0.930 . S
H800 C813 0.929 . S
H801 C811 0.929 . S
H802 C806 0.929 . S
H803 C812 0.929 . S
C804 H798 0.930 . S
C804 C805 1.367 . S
C804 C812 1.378 . S
C805 C804 1.367 . S
C805 C813 1.433 . S
C806 H802 0.929 . S
C806 C808 1.378 . S
C806 C810 1.350 . S
C807 C810 1.463 . S
C807 C812 1.350 . S
C807 N815 1.427 . S
C808 H799 0.930 . S
C808 C806 1.378 . S
C808 C809 1.367 . S
C809 C808 1.367 . S
C809 C811 1.433 . S
C810 C806 1.350 . S
C810 C807 1.463 . S
C810 N814 1.427 . S
C811 H801 0.929 . S
C811 C809 1.433 . S
C811 N814 1.384 . S
C812 H803 0.929 . S
C812 C804 1.378 . S
C812 C807 1.350 . S
C813 H800 0.929 . S
C813 C805 1.433 . S
C813 N815 1.384 . S
N814 C810 1.427 . S
N814 C811 1.384 . S
N815 C807 1.427 . S
N815 C813 1.384 . S
H816 C822 0.930 . S
H817 C826 0.930 . S
H818 C831 0.929 . S
H819 C829 0.929 . S
H820 C824 0.929 . S
H821 C830 0.929 . S
C822 H816 0.930 . S
C822 C823 1.367 . S
C822 C830 1.378 . S
C823 C822 1.367 . S
C823 C831 1.433 . S
C824 H820 0.929 . S
C824 C826 1.378 . S
C824 C828 1.350 . S
C825 C828 1.463 1_655 S
C825 C830 1.350 . S
C825 N833 1.427 . S
C826 H817 0.930 . S
C826 C824 1.378 . S
C826 C827 1.367 . S
C827 C826 1.367 . S
C827 C829 1.433 . S
C828 C824 1.350 . S
C828 C825 1.463 1_455 S
C828 N832 1.427 . S
C829 H819 0.929 . S
C829 C827 1.433 . S
C829 N832 1.384 . S
C830 H821 0.929 . S
C830 C822 1.378 . S
C830 C825 1.350 . S
C831 H818 0.929 . S
C831 C823 1.433 . S
C831 N833 1.384 . S
N832 C828 1.427 . S
N832 C829 1.384 . S
N833 C825 1.427 . S
N833 C831 1.384 . S
H834 C840 0.930 . S
H835 C844 0.930 . S
H836 C849 0.929 . S
H837 C847 0.929 . S
H838 C842 0.929 . S
H839 C848 0.929 . S
C840 H834 0.930 . S
C840 C841 1.367 . S
C840 C848 1.378 . S
C841 C840 1.367 . S
C841 C849 1.433 . S
C842 H838 0.929 . S
C842 C844 1.378 . S
C842 C846 1.350 . S
C843 C846 1.463 1_545 S
C843 C848 1.350 . S
C843 N851 1.427 . S
C844 H835 0.930 . S
C844 C842 1.378 . S
C844 C845 1.367 . S
C845 C844 1.367 . S
C845 C847 1.433 . S
C846 C842 1.350 . S
C846 C843 1.463 1_565 S
C846 N850 1.427 . S
C847 H837 0.929 . S
C847 C845 1.433 . S
C847 N850 1.384 . S
C848 H839 0.929 . S
C848 C840 1.378 . S
C848 C843 1.350 . S
C849 H836 0.929 . S
C849 C841 1.433 . S
C849 N851 1.384 . S
N850 C846 1.427 . S
N850 C847 1.384 . S
N851 C843 1.427 . S
N851 C849 1.384 . S
H852 C858 0.930 . S
H853 C862 0.930 . S
H854 C867 0.929 . S
H855 C865 0.929 . S
H856 C860 0.929 . S
H857 C866 0.929 . S
C858 H852 0.930 . S
C858 C859 1.367 . S
C858 C866 1.378 . S
C859 C858 1.367 . S
C859 C867 1.433 . S
C860 H856 0.929 . S
C860 C862 1.378 . S
C860 C864 1.350 . S
C861 C864 1.463 . S
C861 C866 1.350 . S
C861 N869 1.427 . S
C862 H853 0.930 . S
C862 C860 1.378 . S
C862 C863 1.367 . S
C863 C862 1.367 . S
C863 C865 1.433 . S
C864 C860 1.350 . S
C864 C861 1.463 . S
C864 N868 1.427 . S
C865 H855 0.929 . S
C865 C863 1.433 . S
C865 N868 1.384 . S
C866 H857 0.929 . S
C866 C858 1.378 . S
C866 C861 1.350 . S
C867 H854 0.929 . S
C867 C859 1.433 . S
C867 N869 1.384 . S
N868 C864 1.427 . S
N868 C865 1.384 . S
N869 C861 1.427 . S
N869 C867 1.384 . S
H870 C876 0.930 . S
H871 C880 0.930 . S
H872 C885 0.929 . S
H873 C883 0.929 . S
H874 C878 0.929 . S
H875 C884 0.929 . S
C876 H870 0.930 . S
C876 C877 1.367 . S
C876 C884 1.378 . S
C877 C876 1.367 . S
C877 C885 1.433 . S
C878 H874 0.929 . S
C878 C880 1.378 . S
C878 C882 1.350 . S
C879 C882 1.463 1_655 S
C879 C884 1.350 . S
C879 N887 1.427 . S
C880 H871 0.930 . S
C880 C878 1.378 . S
C880 C881 1.367 . S
C881 C880 1.367 . S
C881 C883 1.433 . S
C882 C878 1.350 . S
C882 C879 1.463 1_455 S
C882 N886 1.427 . S
C883 H873 0.929 . S
C883 C881 1.433 . S
C883 N886 1.384 . S
C884 H875 0.929 . S
C884 C876 1.378 . S
C884 C879 1.350 . S
C885 H872 0.929 . S
C885 C877 1.433 . S
C885 N887 1.384 . S
N886 C882 1.427 . S
N886 C883 1.384 . S
N887 C879 1.427 . S
N887 C885 1.384 . S
H888 C894 0.930 . S
H889 C898 0.930 . S
H890 C903 0.929 . S
H891 C901 0.929 . S
H892 C896 0.929 . S
H893 C902 0.929 . S
C894 H888 0.930 . S
C894 C895 1.367 . S
C894 C902 1.378 . S
C895 C894 1.367 . S
C895 C903 1.433 . S
C896 H892 0.929 . S
C896 C898 1.378 . S
C896 C900 1.350 . S
C897 C900 1.463 1_545 S
C897 C902 1.350 . S
C897 N905 1.427 . S
C898 H889 0.930 . S
C898 C896 1.378 . S
C898 C899 1.367 . S
C899 C898 1.367 . S
C899 C901 1.433 . S
C900 C896 1.350 . S
C900 C897 1.463 1_565 S
C900 N904 1.427 . S
C901 H891 0.929 . S
C901 C899 1.433 . S
C901 N904 1.384 . S
C902 H893 0.929 . S
C902 C894 1.378 . S
C902 C897 1.350 . S
C903 H890 0.929 . S
C903 C895 1.433 . S
C903 N905 1.384 . S
N904 C900 1.427 . S
N904 C901 1.384 . S
N905 C897 1.427 . S
N905 C903 1.384 . S
H906 C912 0.930 . S
H907 C916 0.930 . S
H908 C921 0.929 . S
H909 C919 0.929 . S
H910 C914 0.929 . S
H911 C920 0.929 . S
C912 H906 0.930 . S
C912 C913 1.367 . S
C912 C920 1.378 . S
C913 C912 1.367 . S
C913 C921 1.433 . S
C914 H910 0.929 . S
C914 C916 1.378 . S
C914 C918 1.350 . S
C915 C918 1.463 . S
C915 C920 1.350 . S
C915 N923 1.427 . S
C916 H907 0.930 . S
C916 C914 1.378 . S
C916 C917 1.367 . S
C917 C916 1.367 . S
C917 C919 1.433 . S
C918 C914 1.350 . S
C918 C915 1.463 . S
C918 N922 1.427 . S
C919 H909 0.929 . S
C919 C917 1.433 . S
C919 N922 1.384 . S
C920 H911 0.929 . S
C920 C912 1.378 . S
C920 C915 1.350 . S
C921 H908 0.929 . S
C921 C913 1.433 . S
C921 N923 1.384 . S
N922 C918 1.427 . S
N922 C919 1.384 . S
N923 C915 1.427 . S
N923 C921 1.384 . S
H924 C930 0.930 . S
H925 C934 0.930 . S
H926 C939 0.929 . S
H927 C937 0.929 . S
H928 C932 0.929 . S
H929 C938 0.929 . S
C930 H924 0.930 . S
C930 C931 1.367 . S
C930 C938 1.378 . S
C931 C930 1.367 . S
C931 C939 1.433 . S
C932 H928 0.929 . S
C932 C934 1.378 . S
C932 C936 1.350 . S
C933 C936 1.463 1_455 S
C933 C938 1.350 . S
C933 N941 1.427 . S
C934 H925 0.930 . S
C934 C932 1.378 . S
C934 C935 1.367 . S
C935 C934 1.367 . S
C935 C937 1.433 . S
C936 C932 1.350 . S
C936 C933 1.463 1_655 S
C936 N940 1.427 . S
C937 H927 0.929 . S
C937 C935 1.433 . S
C937 N940 1.384 . S
C938 H929 0.929 . S
C938 C930 1.378 . S
C938 C933 1.350 . S
C939 H926 0.929 . S
C939 C931 1.433 . S
C939 N941 1.384 . S
N940 C936 1.427 . S
N940 C937 1.384 . S
N941 C933 1.427 . S
N941 C939 1.384 . S
H942 C948 0.930 . S
H943 C952 0.930 . S
H944 C957 0.929 . S
H945 C955 0.929 . S
H946 C950 0.929 . S
H947 C956 0.929 . S
C948 H942 0.930 . S
C948 C949 1.367 . S
C948 C956 1.378 . S
C949 C948 1.367 . S
C949 C957 1.433 . S
C950 H946 0.929 . S
C950 C952 1.378 . S
C950 C954 1.350 . S
C951 C954 1.463 1_565 S
C951 C956 1.350 . S
C951 N959 1.427 . S
C952 H943 0.930 . S
C952 C950 1.378 . S
C952 C953 1.367 . S
C953 C952 1.367 . S
C953 C955 1.433 . S
C954 C950 1.350 . S
C954 C951 1.463 1_545 S
C954 N958 1.427 . S
C955 H945 0.929 . S
C955 C953 1.433 . S
C955 N958 1.384 . S
C956 H947 0.929 . S
C956 C948 1.378 . S
C956 C951 1.350 . S
C957 H944 0.929 . S
C957 C949 1.433 . S
C957 N959 1.384 . S
N958 C954 1.427 . S
N958 C955 1.384 . S
N959 C951 1.427 . S
N959 C957 1.384 . S
H960 C966 0.930 1_554 S
H961 C970 0.930 1_556 S
H962 C975 0.929 . S
H963 C973 0.929 . S
H964 C968 0.929 . S
H965 C974 0.929 . S
C966 H960 0.930 1_556 S
C966 C967 1.367 . S
C966 C974 1.378 1_556 S
C967 C966 1.367 . S
C967 C975 1.433 . S
C968 H964 0.929 . S
C968 C970 1.378 1_556 S
C968 C972 1.350 1_556 S
C969 C972 1.463 1_556 S
C969 C974 1.350 1_556 S
C969 N977 1.427 . S
C970 H961 0.930 1_554 S
C970 C968 1.378 1_554 S
C970 C971 1.367 . S
C971 C970 1.367 . S
C971 C973 1.433 . S
C972 C968 1.350 1_554 S
C972 C969 1.463 1_554 S
C972 N976 1.427 . S
C973 H963 0.929 . S
C973 C971 1.433 . S
C973 N976 1.384 . S
C974 H965 0.929 . S
C974 C966 1.378 1_554 S
C974 C969 1.350 1_554 S
C975 H962 0.929 . S
C975 C967 1.433 . S
C975 N977 1.384 . S
N976 C972 1.427 . S
N976 C973 1.384 . S
N977 C969 1.427 . S
N977 C975 1.384 . S
H978 C984 0.930 . S
H979 C988 0.930 . S
H980 C993 0.929 . S
H981 C991 0.929 . S
H982 C986 0.929 . S
H983 C992 0.929 . S
C984 H978 0.930 . S
C984 C985 1.367 . S
C984 C992 1.378 . S
C985 C984 1.367 . S
C985 C993 1.433 . S
C986 H982 0.929 . S
C986 C988 1.378 . S
C986 C990 1.350 . S
C987 C990 1.463 . S
C987 C992 1.350 . S
C987 N995 1.427 . S
C988 H979 0.930 . S
C988 C986 1.378 . S
C988 C989 1.367 . S
C989 C988 1.367 . S
C989 C991 1.433 . S
C990 C986 1.350 . S
C990 C987 1.463 . S
C990 N994 1.427 . S
C991 H981 0.929 . S
C991 C989 1.433 . S
C991 N994 1.384 . S
C992 H983 0.929 . S
C992 C984 1.378 . S
C992 C987 1.350 . S
C993 H980 0.929 . S
C993 C985 1.433 . S
C993 N995 1.384 . S
N994 C990 1.427 . S
N994 C991 1.384 . S
N995 C987 1.427 . S
N995 C993 1.384 . S
H996 C1002 0.930 . S
H997 C1006 0.930 . S
H998 C1011 0.929 . S
H999 C1009 0.929 . S
H1000 C1004 0.915 1_556 S
H1001 C1010 0.915 1_554 S
C1002 H996 0.930 . S
C1002 C1003 1.367 . S
C1002 C1010 1.378 . S
C1003 C1002 1.367 . S
C1003 C1011 1.433 . S
C1004 H1000 0.915 1_554 S
C1004 C1006 1.378 . S
C1004 C1008 1.350 . S
C1005 C1008 1.463 1_556 S
C1005 C1010 1.350 . S
C1005 N1013 1.427 . S
C1006 H997 0.930 . S
C1006 C1004 1.378 . S
C1006 C1007 1.367 . S
C1007 C1006 1.367 . S
C1007 C1009 1.433 . S
C1008 C1004 1.350 . S
C1008 C1005 1.463 1_554 S
C1008 N1012 1.427 . S
C1009 H999 0.929 . S
C1009 C1007 1.433 . S
C1009 N1012 1.384 . S
C1010 H1001 0.915 1_556 S
C1010 C1002 1.378 . S
C1010 C1005 1.350 . S
C1011 H998 0.929 . S
C1011 C1003 1.433 . S
C1011 N1013 1.384 . S
N1012 C1008 1.427 . S
N1012 C1009 1.384 . S
N1013 C1005 1.427 . S
N1013 C1011 1.384 . S
H1014 C1020 0.930 . S
H1015 C1024 0.930 . S
H1016 C1029 0.929 . S
H1017 C1027 0.929 . S
H1018 C1022 0.929 . S
H1019 C1028 0.929 . S
C1020 H1014 0.930 . S
C1020 C1021 1.367 . S
C1020 C1028 1.378 . S
C1021 C1020 1.367 . S
C1021 C1029 1.433 . S
C1022 H1018 0.929 . S
C1022 C1024 1.378 . S
C1022 C1026 1.350 . S
C1023 C1026 1.463 . S
C1023 C1028 1.350 . S
C1023 N1031 1.427 . S
C1024 H1015 0.930 . S
C1024 C1022 1.378 . S
C1024 C1025 1.367 . S
C1025 C1024 1.367 . S
C1025 C1027 1.433 . S
C1026 C1022 1.350 . S
C1026 C1023 1.463 . S
C1026 N1030 1.427 . S
C1027 H1017 0.929 . S
C1027 C1025 1.433 . S
C1027 N1030 1.384 . S
C1028 H1019 0.929 . S
C1028 C1020 1.378 . S
C1028 C1023 1.350 . S
C1029 H1016 0.929 . S
C1029 C1021 1.433 . S
C1029 N1031 1.384 . S
N1030 C1026 1.427 . S
N1030 C1027 1.384 . S
N1031 C1023 1.427 . S
N1031 C1029 1.384 . S
H1032 C1038 0.930 . S
H1033 C1042 0.930 . S
H1034 C1047 0.929 . S
H1035 C1045 0.929 . S
H1036 C1040 0.929 1_556 S
H1037 C1046 0.929 1_554 S
C1038 H1032 0.930 . S
C1038 C1039 1.367 . S
C1038 C1046 1.378 . S
C1039 C1038 1.367 . S
C1039 C1047 1.433 . S
C1040 H1036 0.929 1_554 S
C1040 C1042 1.378 . S
C1040 C1044 1.350 . S
C1041 C1044 1.463 1_556 S
C1041 C1046 1.350 . S
C1041 N1049 1.427 . S
C1042 H1033 0.930 . S
C1042 C1040 1.378 . S
C1042 C1043 1.367 . S
C1043 C1042 1.367 . S
C1043 C1045 1.433 . S
C1044 C1040 1.350 . S
C1044 C1041 1.463 1_554 S
C1044 N1048 1.427 . S
C1045 H1035 0.929 . S
C1045 C1043 1.433 . S
C1045 N1048 1.384 . S
C1046 H1037 0.929 1_556 S
C1046 C1038 1.378 . S
C1046 C1041 1.350 . S
C1047 H1034 0.929 . S
C1047 C1039 1.433 . S
C1047 N1049 1.384 . S
N1048 C1044 1.427 . S
N1048 C1045 1.384 . S
N1049 C1041 1.427 . S
N1049 C1047 1.384 . S
H1050 C1056 0.930 . S
H1051 C1060 0.930 . S
H1052 C1065 0.929 . S
H1053 C1063 0.929 . S
H1054 C1058 0.929 . S
H1055 C1064 0.929 . S
C1056 H1050 0.930 . S
C1056 C1057 1.367 . S
C1056 C1064 1.378 . S
C1057 C1056 1.367 . S
C1057 C1065 1.433 . S
C1058 H1054 0.929 . S
C1058 C1060 1.378 . S
C1058 C1062 1.350 . S
C1059 C1062 1.463 . S
C1059 C1064 1.350 . S
C1059 N1067 1.427 . S
C1060 H1051 0.930 . S
C1060 C1058 1.378 . S
C1060 C1061 1.367 . S
C1061 C1060 1.367 . S
C1061 C1063 1.433 . S
C1062 C1058 1.350 . S
C1062 C1059 1.463 . S
C1062 N1066 1.427 . S
C1063 H1053 0.929 . S
C1063 C1061 1.433 . S
C1063 N1066 1.384 . S
C1064 H1055 0.929 . S
C1064 C1056 1.378 . S
C1064 C1059 1.350 . S
C1065 H1052 0.929 . S
C1065 C1057 1.433 . S
C1065 N1067 1.384 . S
N1066 C1062 1.427 . S
N1066 C1063 1.384 . S
N1067 C1059 1.427 . S
N1067 C1065 1.384 . S
H1068 C1074 0.930 . S
H1069 C1078 0.930 . S
H1070 C1083 0.929 . S
H1071 C1081 0.929 . S
H1072 C1076 0.929 . S
H1073 C1082 0.929 . S
C1074 H1068 0.930 . S
C1074 C1075 1.367 . S
C1074 C1082 1.378 1_554 S
C1075 C1074 1.367 . S
C1075 C1083 1.433 . S
C1076 H1072 0.929 . S
C1076 C1078 1.378 1_554 S
C1076 C1080 1.350 1_554 S
C1077 C1080 1.463 1_554 S
C1077 C1082 1.350 1_554 S
C1077 N1085 1.427 . S
C1078 H1069 0.930 . S
C1078 C1076 1.378 1_556 S
C1078 C1079 1.367 . S
C1079 C1078 1.367 . S
C1079 C1081 1.433 . S
C1080 C1076 1.350 1_556 S
C1080 C1077 1.463 1_556 S
C1080 N1084 1.427 . S
C1081 H1071 0.929 . S
C1081 C1079 1.433 . S
C1081 N1084 1.384 . S
C1082 H1073 0.929 . S
C1082 C1074 1.378 1_556 S
C1082 C1077 1.350 1_556 S
C1083 H1070 0.929 . S
C1083 C1075 1.433 . S
C1083 N1085 1.384 . S
N1084 C1080 1.427 . S
N1084 C1081 1.384 . S
N1085 C1077 1.427 . S
N1085 C1083 1.384 . S
H1086 C1092 0.930 . S
H1087 C1096 0.930 . S
H1088 C1101 0.929 . S
H1089 C1099 0.929 . S
H1090 C1094 0.929 . S
H1091 C1100 0.929 . S
C1092 H1086 0.930 . S
C1092 C1093 1.367 . S
C1092 C1100 1.378 . S
C1093 C1092 1.367 . S
C1093 C1101 1.433 . S
C1094 H1090 0.929 . S
C1094 C1096 1.378 . S
C1094 C1098 1.350 . S
C1095 C1098 1.463 . S
C1095 C1100 1.350 . S
C1095 N1103 1.427 . S
C1096 H1087 0.930 . S
C1096 C1094 1.378 . S
C1096 C1097 1.367 . S
C1097 C1096 1.367 . S
C1097 C1099 1.433 . S
C1098 C1094 1.350 . S
C1098 C1095 1.463 . S
C1098 N1102 1.427 . S
C1099 H1089 0.929 . S
C1099 C1097 1.433 . S
C1099 N1102 1.384 . S
C1100 H1091 0.929 . S
C1100 C1092 1.378 . S
C1100 C1095 1.350 . S
C1101 H1088 0.929 . S
C1101 C1093 1.433 . S
C1101 N1103 1.384 . S
N1102 C1098 1.427 . S
N1102 C1099 1.384 . S
N1103 C1095 1.427 . S
N1103 C1101 1.384 . S
H1104 C1110 0.930 . S
H1105 C1114 0.930 . S
H1106 C1119 0.929 . S
H1107 C1117 0.929 . S
H1108 C1112 0.929 1_554 S
H1109 C1118 0.929 1_556 S
C1110 H1104 0.930 . S
C1110 C1111 1.367 . S
C1110 C1118 1.378 . S
C1111 C1110 1.367 . S
C1111 C1119 1.433 . S
C1112 H1108 0.929 1_556 S
C1112 C1114 1.378 . S
C1112 C1116 1.350 . S
C1113 C1116 1.463 1_554 S
C1113 C1118 1.350 . S
C1113 N1121 1.427 . S
C1114 H1105 0.930 . S
C1114 C1112 1.378 . S
C1114 C1115 1.367 . S
C1115 C1114 1.367 . S
C1115 C1117 1.433 . S
C1116 C1112 1.350 . S
C1116 C1113 1.463 1_556 S
C1116 N1120 1.427 . S
C1117 H1107 0.929 . S
C1117 C1115 1.433 . S
C1117 N1120 1.384 . S
C1118 H1109 0.929 1_554 S
C1118 C1110 1.378 . S
C1118 C1113 1.350 . S
C1119 H1106 0.929 . S
C1119 C1111 1.433 . S
C1119 N1121 1.384 . S
N1120 C1116 1.427 . S
N1120 C1117 1.384 . S
N1121 C1113 1.427 . S
N1121 C1119 1.384 . S
H1122 C1128 0.930 . S
H1123 C1132 0.930 . S
H1124 C1137 0.929 . S
H1125 C1135 0.929 . S
H1126 C1130 0.929 . S
H1127 C1136 0.929 . S
C1128 H1122 0.930 . S
C1128 C1129 1.367 . S
C1128 C1136 1.378 . S
C1129 C1128 1.367 . S
C1129 C1137 1.433 . S
C1130 H1126 0.929 . S
C1130 C1132 1.378 . S
C1130 C1134 1.350 . S
C1131 C1134 1.463 . S
C1131 C1136 1.350 . S
C1131 N1139 1.427 . S
C1132 H1123 0.930 . S
C1132 C1130 1.378 . S
C1132 C1133 1.367 . S
C1133 C1132 1.367 . S
C1133 C1135 1.433 . S
C1134 C1130 1.350 . S
C1134 C1131 1.463 . S
C1134 N1138 1.427 . S
C1135 H1125 0.929 . S
C1135 C1133 1.433 . S
C1135 N1138 1.384 . S
C1136 H1127 0.929 . S
C1136 C1128 1.378 . S
C1136 C1131 1.350 . S
C1137 H1124 0.929 . S
C1137 C1129 1.433 . S
C1137 N1139 1.384 . S
N1138 C1134 1.427 . S
N1138 C1135 1.384 . S
N1139 C1131 1.427 . S
N1139 C1137 1.384 . S
H1140 C1146 0.930 . S
H1141 C1150 0.930 . S
H1142 C1155 0.929 . S
H1143 C1153 0.929 . S
H1144 C1148 0.929 . S
H1145 C1154 0.929 . S
C1146 H1140 0.930 . S
C1146 C1147 1.367 . S
C1146 C1154 1.378 . S
C1147 C1146 1.367 . S
C1147 C1155 1.433 . S
C1148 H1144 0.929 . S
C1148 C1150 1.378 . S
C1148 C1152 1.350 . S
C1149 C1152 1.463 1_556 S
C1149 C1154 1.350 . S
C1149 N1157 1.437 . S
C1150 H1141 0.930 . S
C1150 C1148 1.378 . S
C1150 C1151 1.367 . S
C1151 C1150 1.367 . S
C1151 C1153 1.433 . S
C1152 C1148 1.350 . S
C1152 C1149 1.463 1_554 S
C1152 N1156 1.437 . S
C1153 H1143 0.929 . S
C1153 C1151 1.433 . S
C1153 N1156 1.403 . S
C1154 H1145 0.929 . S
C1154 C1146 1.378 . S
C1154 C1149 1.350 . S
C1155 H1142 0.929 . S
C1155 C1147 1.433 . S
C1155 N1157 1.404 . S
N1156 C1152 1.437 . S
N1156 C1153 1.403 . S
N1157 C1149 1.437 . S
N1157 C1155 1.404 . S
H1158 C1164 0.930 . S
H1159 C1168 0.930 . S
H1160 C1173 0.929 . S
H1161 C1171 0.929 . S
H1162 C1166 0.929 . S
H1163 C1172 0.929 . S
C1164 H1158 0.930 . S
C1164 C1165 1.367 . S
C1164 C1172 1.378 . S
C1165 C1164 1.367 . S
C1165 C1173 1.433 . S
C1166 H1162 0.929 . S
C1166 C1168 1.378 . S
C1166 C1170 1.350 . S
C1167 C1170 1.463 . S
C1167 C1172 1.350 . S
C1167 N1175 1.427 . S
C1168 H1159 0.930 . S
C1168 C1166 1.378 . S
C1168 C1169 1.367 . S
C1169 C1168 1.367 . S
C1169 C1171 1.433 . S
C1170 C1166 1.350 . S
C1170 C1167 1.463 . S
C1170 N1174 1.427 . S
C1171 H1161 0.929 . S
C1171 C1169 1.433 . S
C1171 N1174 1.384 . S
C1172 H1163 0.929 . S
C1172 C1164 1.378 . S
C1172 C1167 1.350 . S
C1173 H1160 0.929 . S
C1173 C1165 1.433 . S
C1173 N1175 1.384 . S
N1174 C1170 1.427 . S
N1174 C1171 1.384 . S
N1175 C1167 1.427 . S
N1175 C1173 1.384 . S
C319 C5 1.463 . S
C323 C200 1.463 . S
C337 C18 1.460 . S
C341 C213 1.465 . S
C355 C224 1.463 . S
C359 C31 1.462 . S
C373 C161 1.461 . S
C377 C44 1.465 . S
C391 C174 1.465 . S
C395 C57 1.460 . S
C409 C187 1.462 . S
C413 C68 1.463 . S
C427 C276 1.465 . S
C431 C83 1.460 . S
C445 C94 1.462 . S
C449 C289 1.463 . S
C463 C302 1.463 . S
C467 C107 1.462 . S
C481 C122 1.461 . S
C485 C237 1.464 . S
C499 C250 1.465 . S
C503 C133 1.461 . S
C517 C148 1.465 . S
C521 C265 1.460 . S
C535 C134 1.507 . S
C539 C10 1.505 . S
C553 C153 1.506 . S
C557 C23 1.504 . S
C571 C36 1.508 . S
C575 C88 1.510 . S
C589 C49 1.508 . S
C593 C95 1.509 . S
C607 C108 1.508 . S
C611 C62 1.509 . S
C625 C69 1.509 . S
C629 C127 1.507 . S
C643 C290 1.509 . S
C647 C166 1.510 . S
C661 C179 1.507 . S
C665 C303 1.509 . S
C679 C192 1.509 . S
C683 C238 1.508 . S
C697 C251 1.506 . S
C701 C205 1.504 . S
C715 C218 1.508 . S
C719 C270 1.506 . S
C733 C225 1.507 . S
C737 C277 1.505 . S
C751 C3 1.556 . S
C755 C239 1.561 . S
C769 C252 1.557 . S
C773 C16 1.559 . S
C787 C29 1.560 . S
C791 C263 1.557 . S
C805 C42 1.561 . S
C809 C278 1.556 . S
C823 C291 1.558 . S
C827 C55 1.558 . S
C841 C70 1.560 . S
C845 C304 1.556 . S
C859 C81 1.559 . S
C863 C159 1.557 . S
C877 C96 1.559 . S
C881 C172 1.557 . S
C895 C185 1.559 . S
C899 C109 1.558 . S
C913 C198 1.561 . S
C917 C120 1.556 . S
C931 C135 1.558 . S
C935 C211 1.558 . S
C949 C226 1.557 . S
C953 C146 1.560 . S
C967 C82 1.503 . S
C971 C4 1.503 . S
C985 C17 1.504 . S
C989 C101 1.502 . S
C1003 C114 1.501 . S
C1007 C30 1.503 . S
C1021 C121 1.504 . S
C1025 C43 1.502 . S
C1039 C140 1.503 . S
C1043 C56 1.501 . S
C1057 C75 1.502 . S
C1061 C147 1.500 . S
C1075 C244 1.502 . S
C1079 C160 1.504 . S
C1093 C173 1.500 . S
C1097 C257 1.501 . S
C1111 C264 1.504 . S
C1115 C186 1.501 . S
C1129 C283 1.501 . S
C1133 C199 1.500 . S
C1147 C212 1.500 . S
C1151 C296 1.502 . S
C1165 C231 1.501 . S
C1169 C309 1.500 . S
