# Generated by pormake.
# Topology lcs, (4)-cn, num edge types: 1
# Building blocks:
#     Node 0, Type 0, BuildingBlock: TATPOV_clean_sbu_0, # of connection points: 4
#     Node 1, Type 0, BuildingBlock: TATPOV_clean_sbu_0, # of connection points: 4
#     Node 2, Type 0, BuildingBlock: TATPOV_clean_sbu_0, # of connection points: 4
#     Node 3, Type 0, BuildingBlock: TATPOV_clean_sbu_0, # of connection points: 4
#     Node 4, Type 0, BuildingBlock: TATPOV_clean_sbu_0, # of connection points: 4
#     Node 5, Type 0, BuildingBlock: TATPOV_clean_sbu_0, # of connection points: 4
#     Node 6, Type 0, BuildingBlock: TATPOV_clean_sbu_0, # of connection points: 4
#     Node 7, Type 0, BuildingBlock: TATPOV_clean_sbu_0, # of connection points: 4
#     Node 8, Type 0, BuildingBlock: TATPOV_clean_sbu_0, # of connection points: 4
#     Node 9, Type 0, BuildingBlock: TATPOV_clean_sbu_0, # of connection points: 4
#     Node 10, Type 0, BuildingBlock: TATPOV_clean_sbu_0, # of connection points: 4
#     Node 11, Type 0, BuildingBlock: TATPOV_clean_sbu_0, # of connection points: 4
#     Node 12, Type 0, BuildingBlock: TATPOV_clean_sbu_0, # of connection points: 4
#     Node 13, Type 0, BuildingBlock: TATPOV_clean_sbu_0, # of connection points: 4
#     Node 14, Type 0, BuildingBlock: TATPOV_clean_sbu_0, # of connection points: 4
#     Node 15, Type 0, BuildingBlock: TATPOV_clean_sbu_0, # of connection points: 4
#     Node 16, Type 0, BuildingBlock: TATPOV_clean_sbu_0, # of connection points: 4
#     Node 17, Type 0, BuildingBlock: TATPOV_clean_sbu_0, # of connection points: 4
#     Node 18, Type 0, BuildingBlock: TATPOV_clean_sbu_0, # of connection points: 4
#     Node 19, Type 0, BuildingBlock: TATPOV_clean_sbu_0, # of connection points: 4
#     Node 20, Type 0, BuildingBlock: TATPOV_clean_sbu_0, # of connection points: 4
#     Node 21, Type 0, BuildingBlock: TATPOV_clean_sbu_0, # of connection points: 4
#     Node 22, Type 0, BuildingBlock: TATPOV_clean_sbu_0, # of connection points: 4
#     Node 23, Type 0, BuildingBlock: TATPOV_clean_sbu_0, # of connection points: 4
#     Edge 24, Type (0, 0), BuildingBlock: XUDNAN_clean_linker_2, # of connection points: 2
#     Edge 25, Type (0, 0), BuildingBlock: XUDNAN_clean_linker_2, # of connection points: 2
#     Edge 26, Type (0, 0), BuildingBlock: XUDNAN_clean_linker_2, # of connection points: 2
#     Edge 27, Type (0, 0), BuildingBlock: XUDNAN_clean_linker_2, # of connection points: 2
#     Edge 28, Type (0, 0), BuildingBlock: XUDNAN_clean_linker_2, # of connection points: 2
#     Edge 29, Type (0, 0), BuildingBlock: XUDNAN_clean_linker_2, # of connection points: 2
#     Edge 30, Type (0, 0), BuildingBlock: XUDNAN_clean_linker_2, # of connection points: 2
#     Edge 31, Type (0, 0), BuildingBlock: XUDNAN_clean_linker_2, # of connection points: 2
#     Edge 32, Type (0, 0), BuildingBlock: XUDNAN_clean_linker_2, # of connection points: 2
#     Edge 33, Type (0, 0), BuildingBlock: XUDNAN_clean_linker_2, # of connection points: 2
#     Edge 34, Type (0, 0), BuildingBlock: XUDNAN_clean_linker_2, # of connection points: 2
#     Edge 35, Type (0, 0), BuildingBlock: XUDNAN_clean_linker_2, # of connection points: 2
#     Edge 36, Type (0, 0), BuildingBlock: XUDNAN_clean_linker_2, # of connection points: 2
#     Edge 37, Type (0, 0), BuildingBlock: XUDNAN_clean_linker_2, # of connection points: 2
#     Edge 38, Type (0, 0), BuildingBlock: XUDNAN_clean_linker_2, # of connection points: 2
#     Edge 39, Type (0, 0), BuildingBlock: XUDNAN_clean_linker_2, # of connection points: 2
#     Edge 40, Type (0, 0), BuildingBlock: XUDNAN_clean_linker_2, # of connection points: 2
#     Edge 41, Type (0, 0), BuildingBlock: XUDNAN_clean_linker_2, # of connection points: 2
#     Edge 42, Type (0, 0), BuildingBlock: XUDNAN_clean_linker_2, # of connection points: 2
#     Edge 43, Type (0, 0), BuildingBlock: XUDNAN_clean_linker_2, # of connection points: 2
#     Edge 44, Type (0, 0), BuildingBlock: XUDNAN_clean_linker_2, # of connection points: 2
#     Edge 45, Type (0, 0), BuildingBlock: XUDNAN_clean_linker_2, # of connection points: 2
#     Edge 46, Type (0, 0), BuildingBlock: XUDNAN_clean_linker_2, # of connection points: 2
#     Edge 47, Type (0, 0), BuildingBlock: XUDNAN_clean_linker_2, # of connection points: 2
#     Edge 48, Type (0, 0), BuildingBlock: XUDNAN_clean_linker_2, # of connection points: 2
#     Edge 49, Type (0, 0), BuildingBlock: XUDNAN_clean_linker_2, # of connection points: 2
#     Edge 50, Type (0, 0), BuildingBlock: XUDNAN_clean_linker_2, # of connection points: 2
#     Edge 51, Type (0, 0), BuildingBlock: XUDNAN_clean_linker_2, # of connection points: 2
#     Edge 52, Type (0, 0), BuildingBlock: XUDNAN_clean_linker_2, # of connection points: 2
#     Edge 53, Type (0, 0), BuildingBlock: XUDNAN_clean_linker_2, # of connection points: 2
#     Edge 54, Type (0, 0), BuildingBlock: XUDNAN_clean_linker_2, # of connection points: 2
#     Edge 55, Type (0, 0), BuildingBlock: XUDNAN_clean_linker_2, # of connection points: 2
#     Edge 56, Type (0, 0), BuildingBlock: XUDNAN_clean_linker_2, # of connection points: 2
#     Edge 57, Type (0, 0), BuildingBlock: XUDNAN_clean_linker_2, # of connection points: 2
#     Edge 58, Type (0, 0), BuildingBlock: XUDNAN_clean_linker_2, # of connection points: 2
#     Edge 59, Type (0, 0), BuildingBlock: XUDNAN_clean_linker_2, # of connection points: 2
#     Edge 60, Type (0, 0), BuildingBlock: XUDNAN_clean_linker_2, # of connection points: 2
#     Edge 61, Type (0, 0), BuildingBlock: XUDNAN_clean_linker_2, # of connection points: 2
#     Edge 62, Type (0, 0), BuildingBlock: XUDNAN_clean_linker_2, # of connection points: 2
#     Edge 63, Type (0, 0), BuildingBlock: XUDNAN_clean_linker_2, # of connection points: 2
#     Edge 64, Type (0, 0), BuildingBlock: XUDNAN_clean_linker_2, # of connection points: 2
#     Edge 65, Type (0, 0), BuildingBlock: XUDNAN_clean_linker_2, # of connection points: 2
#     Edge 66, Type (0, 0), BuildingBlock: XUDNAN_clean_linker_2, # of connection points: 2
#     Edge 67, Type (0, 0), BuildingBlock: XUDNAN_clean_linker_2, # of connection points: 2
#     Edge 68, Type (0, 0), BuildingBlock: XUDNAN_clean_linker_2, # of connection points: 2
#     Edge 69, Type (0, 0), BuildingBlock: XUDNAN_clean_linker_2, # of connection points: 2
#     Edge 70, Type (0, 0), BuildingBlock: XUDNAN_clean_linker_2, # of connection points: 2
#     Edge 71, Type (0, 0), BuildingBlock: XUDNAN_clean_linker_2, # of connection points: 2
# Relax obj value: 0.082
# Max RMSD: 0.146
# Mean RMSD: 0.143
data_MOF--net-lcs--node1-TATPOV_clean_sbu_0--edge1-XUDNAN_clean_linker_2
_symmetry_space_group_name_H-M    P1
_symmetry_Int_Tables_number       1
_symmetry_cell_setting            triclinic
loop_
_symmetry_equiv_pos_as_xyz
'x, y, z'
_cell_length_a     48.668323
_cell_length_b     48.629173
_cell_length_c     48.652191
_cell_angle_alpha  93.223885
_cell_angle_beta   93.132931
_cell_angle_gamma 93.114349
loop_
_atom_site_label
_atom_site_type_symbol
_atom_site_fract_x
_atom_site_fract_y
_atom_site_fract_z
_atom_type_partial_charge
Zn0 Zn 0.00656 0.20672 0.46013 0.0
Zn1 Zn 0.02381 0.24345 0.42513 0.0
O2 O 0.99217 0.26272 0.44369 0.0
O3 O 0.97597 0.23113 0.47018 0.0
O4 O 0.03834 0.2705 0.39875 0.0
O5 O 0.04312 0.20973 0.48152 0.0
O6 O 0.05872 0.23439 0.4485 0.0
C7 C 0.97447 0.25459 0.46031 0.0
C8 C 0.00201 0.18649 0.40322 0.0
O9 O 0.00915 0.21137 0.39907 0.0
O10 O 0.00076 0.17856 0.4275 0.0
C11 C 0.02221 0.2852 0.38525 0.0
O12 O 0.99571 0.28336 0.38922 0.0
C13 C 0.06305 0.22163 0.4704 0.0
Zn14 Zn 0.98557 0.80437 0.55169 0.0
Zn15 Zn 0.97313 0.76814 0.58947 0.0
O16 O 0.93718 0.76901 0.56502 0.0
O17 O 0.9499 0.79306 0.53027 0.0
O18 O 0.96551 0.73932 0.61672 0.0
O19 O 0.02042 0.78547 0.54374 0.0
O20 O 0.00828 0.75451 0.57271 0.0
C21 C 0.93171 0.7789 0.54176 0.0
C22 C 0.98479 0.82849 0.60736 0.0
O23 O 0.98098 0.80348 0.61326 0.0
O24 O 0.98623 0.83463 0.58248 0.0
C25 C 0.95448 0.74343 0.63959 0.0
O26 O 0.94588 0.76791 0.64634 0.0
C27 C 0.02514 0.76368 0.5558 0.0
Zn28 Zn 0.50096 0.71092 0.93987 0.0
Zn29 Zn 0.51289 0.74687 0.90159 0.0
O30 O 0.48143 0.76284 0.92328 0.0
O31 O 0.47444 0.73603 0.95745 0.0
O32 O 0.52049 0.77578 0.87454 0.0
O33 O 0.54139 0.71152 0.95183 0.0
O34 O 0.5507 0.74168 0.92108 0.0
C35 C 0.46843 0.75691 0.94444 0.0
C36 C 0.48837 0.69028 0.883 0.0
O37 O 0.49944 0.71325 0.87692 0.0
O38 O 0.48583 0.68485 0.90794 0.0
C39 C 0.50059 0.78305 0.85906 0.0
O40 O 0.47587 0.77134 0.86112 0.0
C41 C 0.55878 0.72644 0.94006 0.0
Zn42 Zn 0.52206 0.29279 0.06269 0.0
Zn43 Zn 0.51528 0.24863 0.09341 0.0
O44 O 0.4756 0.25731 0.08017 0.0
O45 O 0.48129 0.29258 0.05422 0.0
O46 O 0.50881 0.21789 0.11871 0.0
O47 O 0.5457 0.2697 0.03877 0.0
O48 O 0.54124 0.23393 0.0645 0.0
C49 C 0.46548 0.27518 0.06492 0.0
C50 C 0.54244 0.30319 0.1188 0.0
O51 O 0.53479 0.27792 0.12003 0.0
O52 O 0.5389 0.31515 0.09652 0.0
C53 C 0.4963 0.22384 0.14037 0.0
O54 O 0.48793 0.24891 0.14441 0.0
C55 C 0.55131 0.24533 0.04402 0.0
Zn56 Zn 0.96207 0.75149 0.20776 0.0
Zn57 Zn -0.0005 0.76407 0.17091 0.0
O58 O 0.99634 0.80031 0.19442 0.0
O59 O 0.97167 0.78794 0.22884 0.0
O60 O 0.0292 0.77252 0.14485 0.0
O61 O 0.98176 0.71712 0.21672 0.0
O62 O 0.01338 0.72969 0.18858 0.0
C63 C 0.98548 0.80622 0.21711 0.0
C64 C 0.94018 0.75081 0.15099 0.0
O65 O 0.96539 0.75462 0.14592 0.0
O66 O 0.93304 0.75001 0.17562 0.0
C67 C 0.02461 0.78189 0.12125 0.0
O68 O -0.00058 0.78769 0.11342 0.0
C69 C 0.00405 0.71279 0.20536 0.0
Zn70 Zn 0.52287 0.74134 0.30621 0.0
Zn71 Zn 0.49058 0.73438 0.34803 0.0
O72 O 0.47274 0.7654 0.3273 0.0
O73 O 0.50121 0.77337 0.29469 0.0
O74 O 0.46597 0.72914 0.37957 0.0
O75 O 0.51314 0.70267 0.29081 0.0
O76 O 0.49298 0.69522 0.32937 0.0
C77 C 0.48014 0.77951 0.30738 0.0
C78 C 0.5509 0.75236 0.35947 0.0
O79 O 0.52668 0.74877 0.36761 0.0
O80 O 0.55548 0.7487 0.33418 0.0
C81 C 0.4642 0.74956 0.39678 0.0
O82 O 0.47824 0.7728 0.39316 0.0
C83 C 0.50164 0.68621 0.30646 0.0
Zn84 Zn 0.45531 0.24095 0.67915 0.0
Zn85 Zn 0.49964 0.24936 0.6495 0.0
O86 O 0.49048 0.28872 0.66356 0.0
O87 O 0.45472 0.28146 0.68853 0.0
O88 O 0.53124 0.25627 0.62541 0.0
O89 O 0.47788 0.21712 0.70314 0.0
O90 O 0.51394 0.22277 0.67805 0.0
C91 C 0.47208 0.29798 0.67873 0.0
C92 C 0.44591 0.22208 0.62252 0.0
O93 O 0.47104 0.23041 0.62169 0.0
O94 O 0.43379 0.22447 0.64485 0.0
C95 C 0.52673 0.26899 0.60361 0.0
O96 O 0.50207 0.27782 0.59826 0.0
C97 C 0.5024 0.21202 0.6981 0.0
Zn98 Zn 0.06537 0.26867 0.81272 0.0
Zn99 Zn 0.01932 0.2595 0.83969 0.0
O100 O 0.00869 0.29021 0.81362 0.0
O101 O 0.04532 0.29453 0.78917 0.0
O102 O 0.98574 0.25197 0.86117 0.0
O103 O 0.06557 0.22834 0.8014 0.0
O104 O 0.02696 0.22115 0.82214 0.0
C105 C 0.02135 0.30138 0.79443 0.0
C106 C 0.07265 0.28195 0.87081 0.0
O107 O 0.0477 0.27279 0.87064 0.0
O108 O 0.08493 0.28339 0.84863 0.0
C109 C 0.97753 0.27085 0.87738 0.0
O110 O 0.99022 0.29548 0.87858 0.0
C111 C 0.04631 0.21198 0.80817 0.0
Zn112 Zn 0.43871 -0.00039 0.20606 0.0
Zn113 Zn 0.40296 0.01479 0.24343 0.0
O114 O 0.41891 0.98052 0.25985 0.0
O115 O 0.44637 0.96646 0.22811 0.0
O116 O 0.37519 0.02696 0.27003 0.0
O117 O 0.46037 0.03587 0.21265 0.0
O118 O 0.4284 0.04965 0.23972 0.0
C119 C 0.43516 0.96295 0.25065 0.0
C120 C 0.38292 -0.00101 0.18407 0.0
O121 O 0.37825 0.00442 0.20917 0.0
O122 O 0.40731 0.99699 0.17672 0.0
C123 C 0.35783 0.00911 0.27811 0.0
O124 O 0.35924 0.98306 0.26985 0.0
C125 C 0.45022 0.05483 0.22709 0.0
Zn126 Zn 0.30191 0.04132 0.49584 0.0
Zn127 Zn 0.26312 0.07758 0.49856 0.0
O128 O 0.26062 0.06292 0.45762 0.0
O129 O 0.2881 0.02842 0.45755 0.0
O130 O 0.23359 0.10482 0.50172 0.0
O131 O 0.28803 0.02308 0.52879 0.0
O132 O 0.25421 0.05129 0.52918 0.0
C133 C 0.27129 0.04287 0.44485 0.0
C134 C 0.32354 0.09702 0.50737 0.0
O135 O 0.29811 0.1016 0.50831 0.0
O136 O 0.33092 0.07299 0.50116 0.0
C137 C 0.22899 0.12304 0.48457 0.0
O138 O 0.24345 0.12409 0.46259 0.0
C139 C 0.26653 0.03138 0.53932 0.0
Zn140 Zn 0.16062 0.93718 0.74525 0.0
Zn141 Zn 0.14355 0.98814 0.75168 0.0
O142 O 0.15892 0.97916 0.79061 0.0
O143 O 0.1751 0.93803 0.78425 0.0
O144 O 0.1276 0.02511 0.75874 0.0
O145 O 0.18497 0.95063 0.7163 0.0
O146 O 0.17176 0.99317 0.72173 0.0
C147 C 0.17103 0.95876 0.80006 0.0
C148 C 0.10336 0.93922 0.73186 0.0
O149 O 0.10915 0.96491 0.73665 0.0
O150 O 0.12185 0.92216 0.73502 0.0
C151 C 0.1064 0.02491 0.77294 0.0
O152 O 0.09732 0.0015 0.78235 0.0
C153 C 0.18626 0.9755 0.70978 0.0
Zn154 Zn 0.25797 0.82242 0.05437 0.0
Zn155 Zn 0.24154 0.85128 0.01077 0.0
O156 O 0.27389 0.83069 0.9965 0.0
O157 O 0.28822 0.80721 0.03138 0.0
O158 O 0.22934 0.87266 0.97878 0.0
O159 O 0.21944 0.80436 0.05429 0.0
O160 O 0.20637 0.82966 0.02035 0.0
C161 C 0.29086 0.81465 0.00705 0.0
C162 C 0.26329 0.88178 0.06434 0.0
O163 O 0.2547 0.88158 0.03922 0.0
O164 O 0.26583 0.85934 0.07604 0.0
C165 C 0.2156 0.894 0.98205 0.0
O166 O 0.20838 0.90165 0.00684 0.0
C167 C 0.20061 0.8121 0.03794 0.0
Zn168 Zn 0.2283 0.43952 0.00928 0.0
Zn169 Zn 0.25961 0.39842 0.01927 0.0
O170 O 0.27576 0.41704 0.98569 0.0
O171 O 0.25002 0.45191 0.97827 0.0
O172 O 0.28738 0.37021 0.02667 0.0
O173 O 0.23527 0.4566 0.04751 0.0
O174 O 0.25733 0.41968 0.05718 0.0
C175 C 0.26966 0.43742 0.97157 0.0
C176 C 0.20031 0.38504 0.00069 0.0
O177 O 0.22371 0.37634 0.00777 0.0
O178 O 0.19707 0.4107 0.00027 0.0
C179 C 0.28455 0.3501 0.04208 0.0
O180 O 0.26162 0.34646 0.0548 0.0
C181 C 0.24758 0.44249 0.06488 0.0
Zn182 Zn 0.76343 0.17657 0.92853 0.0
Zn183 Zn 0.7722 0.15399 0.97536 0.0
O184 O 0.80718 0.17981 0.97088 0.0
O185 O 0.79534 0.20393 0.93554 0.0
O186 O 0.78121 0.13496 0.01044 0.0
O187 O 0.72584 0.18574 0.94001 0.0
O188 O 0.7351 0.17204 0.98167 0.0
C189 C 0.8124 0.19915 0.95493 0.0
C190 C 0.76719 0.11913 0.92063 0.0
O191 O 0.7667 0.12121 0.94678 0.0
O192 O 0.7683 0.1406 0.90711 0.0
C193 C 0.79815 0.11594 0.00943 0.0
O194 O 0.80963 0.1102 0.98612 0.0
C195 C 0.71871 0.18259 0.96433 0.0
Zn196 Zn 0.08125 0.50538 0.30834 0.0
Zn197 Zn 0.11433 0.49262 0.2671 0.0
O198 O 0.09691 0.45451 0.27544 0.0
O199 O 0.06723 0.46555 0.30633 0.0
O200 O 0.1403 0.48652 0.23692 0.0
O201 O 0.06329 0.53334 0.28505 0.0
O202 O 0.08965 0.52169 0.25145 0.0
C203 C 0.07811 0.44746 0.29136 0.0
C204 C 0.13886 0.5184 0.32226 0.0
O205 O 0.141 0.50965 0.29742 0.0
O206 O 0.11553 0.51788 0.33264 0.0
C207 C 0.15423 0.46566 0.23184 0.0
O208 O 0.15085 0.44366 0.24605 0.0
C209 C 0.07113 0.53651 0.26097 0.0
Zn210 Zn 0.69073 0.93995 0.47546 0.0
Zn211 Zn 0.73189 0.90745 0.49291 0.0
O212 O 0.74888 0.92918 0.46268 0.0
O213 O 0.7166 0.95565 0.44781 0.0
O214 O 0.76144 0.88188 0.50346 0.0
O215 O 0.69039 0.95576 0.51495 0.0
O216 O 0.72237 0.92836 0.52873 0.0
C217 C 0.74056 0.94688 0.44626 0.0
C218 C 0.67742 0.88146 0.4667 0.0
O219 O 0.7017 0.88004 0.47723 0.0
O220 O 0.66722 0.90467 0.46407 0.0
C221 C 0.76776 0.86513 0.48409 0.0
O222 O 0.75557 0.86643 0.45946 0.0
C223 C 0.70541 0.94674 0.53417 0.0
Zn224 Zn 0.83474 0.06175 0.25016 0.0
Zn225 Zn 0.8672 0.01875 0.23817 0.0
O226 O 0.84124 0.00428 0.26643 0.0
O227 O 0.81447 0.03796 0.27672 0.0
O228 O 0.8919 0.98714 0.23228 0.0
O229 O 0.82367 0.06111 0.2093 0.0
O230 O 0.85077 0.02736 0.19991 0.0
C231 C 0.8221 0.01385 0.28031 0.0
C232 C 0.89263 0.07316 0.26531 0.0
O233 O 0.89429 0.04854 0.25562 0.0
O234 O 0.86958 0.08414 0.26497 0.0
C235 C 0.9051 0.9805 0.254 0.0
O236 O 0.90143 0.99412 0.27749 0.0
C237 C 0.83392 0.04486 0.19186 0.0
Zn238 Zn 0.24822 0.70729 0.46762 0.0
Zn239 Zn 0.25682 0.66948 0.50483 0.0
O240 O 0.29494 0.69011 0.5036 0.0
O241 O 0.28559 0.72551 0.47896 0.0
O242 O 0.26075 0.64103 0.53293 0.0
O243 O 0.2141 0.71858 0.48626 0.0
O244 O 0.2238 0.68997 0.51838 0.0
C245 C 0.30255 0.71261 0.49326 0.0
C246 C 0.24379 0.65111 0.44481 0.0
O247 O 0.24663 0.64573 0.47003 0.0
O248 O 0.24516 0.67583 0.43782 0.0
C249 C 0.28081 0.6257 0.53661 0.0
O250 O 0.30261 0.62882 0.52208 0.0
C251 C 0.20843 0.70785 0.50854 0.0
Zn252 Zn 0.31421 0.5371 0.75535 0.0
Zn253 Zn 0.3519 0.50381 0.73902 0.0
O254 O 0.33407 0.48581 0.77215 0.0
O255 O 0.30096 0.51241 0.78366 0.0
O256 O 0.37762 0.47501 0.72728 0.0
O257 O 0.29575 0.53599 0.71755 0.0
O258 O 0.32898 0.51079 0.70314 0.0
C259 C 0.31459 0.49146 0.78769 0.0
C260 C 0.37077 0.56 0.7636 0.0
O261 O 0.37711 0.53719 0.75226 0.0
O262 O 0.34581 0.56472 0.76711 0.0
C263 C 0.39813 0.47873 0.71254 0.0
O264 O 0.40358 0.50317 0.70326 0.0
C265 C 0.30727 0.52363 0.69814 0.0
Zn266 Zn 0.58354 0.0036 0.81358 0.0
Zn267 Zn 0.60484 0.99525 0.76455 0.0
O268 O 0.57984 0.96001 0.76868 0.0
O269 O 0.5592 0.96903 0.80716 0.0
O270 O 0.62423 0.98656 0.72977 0.0
O271 O 0.57085 0.03965 0.80081 0.0
O272 O 0.58575 0.03197 0.7593 0.0
C273 C 0.56257 0.95323 0.78625 0.0
C274 C 0.64173 0.00188 0.81837 0.0
O275 O 0.63811 -4e-05 0.79222 0.0
O276 O 0.62114 0.0026 0.83315 0.0
C277 C 0.62262 -0.00169 0.7071 0.0
O278 O 0.6057 0.0182 0.70405 0.0
C279 C 0.57382 0.04726 0.77662 0.0
Zn280 Zn 0.80987 0.58247 0.02289 0.0
Zn281 Zn 0.7676 0.609 0.00258 0.0
O282 O 0.7798 0.58555 0.9688 0.0
O283 O 0.81101 0.55993 0.98734 0.0
O284 O 0.73537 0.62934 0.98824 0.0
O285 O 0.78721 0.56929 0.05351 0.0
O286 O 0.75168 0.5893 0.0352 0.0
C287 C 0.79674 0.56652 0.96646 0.0
C288 C 0.82006 0.64122 0.02533 0.0
O289 O 0.79499 0.64052 0.01638 0.0
O290 O 0.83199 0.61901 0.02854 0.0
C291 C 0.73858 0.65027 0.97397 0.0
O292 O 0.76342 0.65786 0.9669 0.0
C293 C 0.76222 0.57519 0.05399 0.0
Zn294 Zn 0.92428 0.51064 0.69332 0.0
Zn295 Zn 0.90557 0.5151 0.74296 0.0
O296 O 0.932 0.48306 0.74557 0.0
O297 O 0.9464 0.47874 0.70357 0.0
O298 O 0.89062 0.51759 0.78066 0.0
O299 O 0.94055 0.54923 0.69696 0.0
O300 O 0.92134 0.55482 0.73664 0.0
C301 C 0.94606 0.47065 0.72782 0.0
C302 C 0.86591 0.5005 0.69296 0.0
O303 O 0.87071 0.5036 0.71894 0.0
O304 O 0.88542 0.50343 0.677 0.0
C305 C 0.87222 0.53404 0.787 0.0
O306 O 0.86373 0.5513 0.76896 0.0
C307 C 0.93497 0.56473 0.71741 0.0
Zn308 Zn 0.75638 0.31931 0.55376 0.0
Zn309 Zn 0.74576 0.35584 0.51584 0.0
O310 O 0.78103 0.33866 0.50277 0.0
O311 O 0.7907 0.30968 0.5346 0.0
O312 O 0.73707 0.38312 0.48742 0.0
O313 O 0.71984 0.29901 0.54438 0.0
O314 O 0.70975 0.3314 0.51631 0.0
C315 C 0.79674 0.32112 0.51278 0.0
C316 C 0.75631 0.37532 0.57622 0.0
O317 O 0.7529 0.38047 0.55095 0.0
O318 O 0.75779 0.3507 0.58313 0.0
C319 C 0.71815 0.39982 0.49087 0.0
O320 O 0.70393 0.39871 0.51302 0.0
C321 C 0.70261 0.30976 0.52841 0.0
Zn322 Zn 0.69541 0.46796 0.26302 0.0
Zn323 Zn 0.64977 0.49627 0.26773 0.0
O324 O 0.66622 0.49511 0.30786 0.0
O325 O 0.70565 0.47571 0.30326 0.0
O326 O 0.61599 0.51853 0.26986 0.0
O327 O 0.70846 0.49281 0.23392 0.0
O328 O 0.67151 0.5163 0.2389 0.0
C329 C 0.68845 0.48649 0.31856 0.0
C330 C 0.64497 0.43585 0.24734 0.0
O331 O 0.63407 0.45874 0.25191 0.0
O332 O 0.67069 0.43393 0.25147 0.0
C333 C 0.60339 0.52511 0.29127 0.0
O334 O 0.6124 0.51724 0.31536 0.0
C335 C 0.69374 0.51225 0.22699 0.0
H336 H 0.03073 0.42555 0.31062 0.0
H337 H 0.11029 0.40356 0.28296 0.0
H338 H 0.10253 0.35696 0.30001 0.0
H339 H 0.03449 0.39538 0.37156 0.0
H340 H -0.00112 0.38301 0.37137 0.0
H341 H 0.00825 0.41261 0.35269 0.0
H342 H 0.98511 0.38889 0.30761 0.0
H343 H 0.97517 0.35928 0.32627 0.0
H344 H 0.99481 0.35507 0.29611 0.0
H345 H 0.08987 0.3165 0.32801 0.0
H346 H 0.07087 0.2832 0.35965 0.0
H347 H -0.00134 0.331 0.36702 0.0
C348 C 0.04612 0.41062 0.30733 0.0
C349 C 0.07109 0.41809 0.29546 0.0
C350 C 0.09088 0.39814 0.29171 0.0
C351 C 0.08669 0.37167 0.30145 0.0
C352 C 0.06235 0.3654 0.31428 0.0
C353 C 0.0421 0.38411 0.31658 0.0
C354 C 0.0187 0.37315 0.3329 0.0
C355 C 0.01488 0.39217 0.35865 0.0
C356 C 0.99186 0.36883 0.31463 0.0
C357 C 0.02954 0.3459 0.34061 0.0
C358 C 0.05468 0.3417 0.3296 0.0
C359 C 0.06988 0.31922 0.33614 0.0
C360 C 0.05903 0.30056 0.35429 0.0
C361 C 0.03319 0.30442 0.36554 0.0
C362 C 0.01821 0.32723 0.3583 0.0
H363 H 0.88819 0.79728 0.56792 0.0
H364 H 0.91268 0.76391 0.48922 0.0
H365 H 0.86846 0.77624 0.46704 0.0
H366 H 0.81031 0.78306 0.55558 0.0
H367 H 0.80404 0.81579 0.57267 0.0
H368 H 0.83345 0.79729 0.58363 0.0
H369 H 0.86534 0.8404 0.57667 0.0
H370 H 0.83629 0.85883 0.56513 0.0
H371 H 0.86485 0.85505 0.54342 0.0
H372 H 0.82633 0.79917 0.45219 0.0
H373 H 0.78943 0.83122 0.44531 0.0
H374 H 0.79379 0.85314 0.53325 0.0
C375 C 0.88342 0.79119 0.54635 0.0
C376 C 0.90319 0.77883 0.53032 0.0
C377 C 0.89729 0.77266 0.50183 0.0
C378 C 0.87229 0.77965 0.48912 0.0
C379 C 0.8537 0.79314 0.5052 0.0
C380 C 0.85887 0.79875 0.53327 0.0
C381 C 0.83793 0.81752 0.54493 0.0
C382 C 0.82039 0.80251 0.56541 0.0
C383 C 0.85195 0.84454 0.5583 0.0
C384 C 0.82098 0.8226 0.51887 0.0
C385 C 0.82999 0.80779 0.49634 0.0
C386 C 0.81877 0.81049 0.46975 0.0
C387 C 0.7979 0.82888 0.46604 0.0
C388 C 0.78873 0.84472 0.48875 0.0
C389 C 0.80027 0.84123 0.51552 0.0
H390 H 0.37026 0.58773 0.81291 0.0
H391 H 0.42023 0.57553 0.74267 0.0
H392 H 0.45658 0.6085 0.76525 0.0
H393 H 0.38797 0.65931 0.82927 0.0
H394 H 0.38882 0.65572 0.86598 0.0
H395 H 0.36664 0.63268 0.84328 0.0
H396 H 0.38941 0.59072 0.86369 0.0
H397 H 0.41175 0.61363 0.88637 0.0
H398 H 0.42627 0.58862 0.86346 0.0
H399 H 0.48611 0.64501 0.7955 0.0
H400 H 0.5083 0.67747 0.83248 0.0
H401 H 0.44022 0.66032 0.88394 0.0
C402 C 0.38872 0.59229 0.80213 0.0
C403 C 0.39243 0.57973 0.77594 0.0
C404 C 0.41711 0.58534 0.76272 0.0
C405 C 0.43772 0.60398 0.77535 0.0
C406 C 0.4334 0.61606 0.80136 0.0
C407 C 0.40964 0.61003 0.81471 0.0
C408 C 0.41042 0.62419 0.84314 0.0
C409 C 0.38708 0.64416 0.84554 0.0
C410 C 0.40942 0.60302 0.86547 0.0
C411 C 0.43823 0.63949 0.84373 0.0
C412 C 0.4511 0.63498 0.81936 0.0
C413 C 0.4764 0.64834 0.8148 0.0
C414 C 0.4888 0.66669 0.83579 0.0
C415 C 0.47609 0.67081 0.86104 0.0
C416 C 0.45062 0.65696 0.86501 0.0
H417 H 0.59432 0.21482 0.06095 0.0
H418 H 0.55342 0.2461 0.98869 0.0
H419 H 0.59031 0.22984 0.96016 0.0
H420 H 0.66054 0.23681 0.04568 0.0
H421 H 0.67778 0.20763 0.05804 0.0
H422 H 0.64611 0.21725 0.07238 0.0
H423 H 0.62409 0.16814 0.06001 0.0
H424 H 0.65586 0.1582 0.04595 0.0
H425 H 0.62404 0.15381 0.02501 0.0
H426 H 0.63302 0.21542 0.9406 0.0
H427 H 0.67933 0.20221 0.93003 0.0
H428 H 0.69482 0.18095 0.01488 0.0
C429 C 0.59275 0.21728 0.03894 0.0
C430 C 0.57087 0.23126 0.02681 0.0
C431 C 0.5699 0.23516 -0.0018 0.0
C432 C 0.59073 0.226 0.98187 0.0
C433 C 0.61253 0.21315 0.99452 0.0
C434 C 0.61373 0.2086 0.02234 0.0
C435 C 0.64086 0.19661 0.03103 0.0
C436 C 0.65728 0.21572 0.05308 0.0
C437 C 0.63591 0.16745 0.04109 0.0
C438 C 0.65488 0.19585 0.00388 0.0
C439 C 0.63792 0.20523 0.98315 0.0
C440 C 0.6464 0.2077 0.95655 0.0
C441 C 0.6729 0.20025 0.95082 0.0
C442 C 0.69086 0.19049 0.9716 0.0
C443 C 0.6816 0.1882 -0.00149 0.0
H444 H 0.03033 0.57084 0.27421 0.0
H445 H 0.09091 0.55595 0.21358 0.0
H446 H 0.08006 0.59934 0.19247 0.0
H447 H 0.98042 0.60228 0.22757 0.0
H448 H 0.97107 0.62661 0.25431 0.0
H449 H 0.98212 0.59327 0.26304 0.0
H450 H 0.01997 0.61712 0.2972 0.0
H451 H 0.00938 0.65052 0.28823 0.0
H452 H 0.04464 0.64187 0.2849 0.0
H453 H 0.06583 0.64657 0.18085 0.0
H454 H 0.04547 0.69161 0.17621 0.0
H455 H 0.99362 0.67505 0.24394 0.0
C456 C 0.04095 0.57637 0.25615 0.0
C457 C 0.06149 0.55993 0.24557 0.0
C458 C 0.07499 0.56807 0.22199 0.0
C459 C 0.06907 0.59278 0.20992 0.0
C460 C 0.04941 0.60895 0.2215 0.0
C461 C 0.03521 0.60084 0.24378 0.0
C462 C 0.01551 0.62224 0.25271 0.0
C463 C 0.9855 0.61039 0.24919 0.0
C464 C 0.02283 0.6336 0.28252 0.0
C465 C 0.02122 0.6439 0.23229 0.0
C466 C 0.0409 0.6359 0.21452 0.0
C467 C 0.05018 0.65292 0.19445 0.0
C468 C 0.03862 0.67856 0.19212 0.0
C469 C 0.01789 0.68687 0.20967 0.0
C470 C 0.00932 0.66929 0.23013 0.0
H471 H 0.54718 0.79392 0.39796 0.0
H472 H 0.60443 0.73818 0.36331 0.0
H473 H 0.64251 0.76171 0.39318 0.0
H474 H 0.59012 0.85194 0.39509 0.0
H475 H 0.57963 0.86943 0.42612 0.0
H476 H 0.55614 0.84475 0.40692 0.0
H477 H 0.55067 0.81711 0.45051 0.0
H478 H 0.57411 0.84186 0.46997 0.0
H479 H 0.58086 0.80574 0.46872 0.0
H480 H 0.67449 0.79345 0.42369 0.0
H481 H 0.69924 0.83403 0.44816 0.0
H482 H 0.62152 0.87188 0.45892 0.0
C483 C 0.56761 0.78614 0.39743 0.0
C484 C 0.57302 0.76397 0.379 0.0
C485 C 0.60005 0.75496 0.37772 0.0
C486 C 0.62166 0.76808 0.39467 0.0
C487 C 0.61578 0.79036 0.41228 0.0
C488 C 0.58945 0.79951 0.41354 0.0
C489 C 0.58924 0.82634 0.43083 0.0
C490 C 0.57814 0.84947 0.41371 0.0
C491 C 0.57275 0.82252 0.45654 0.0
C492 C 0.61969 0.83131 0.43846 0.0
C493 C 0.63452 0.80989 0.42829 0.0
C494 C 0.6631 0.81023 0.43194 0.0
C495 C 0.67694 0.83335 0.44586 0.0
C496 C 0.66221 0.85603 0.45529 0.0
C497 C 0.63322 0.85478 0.45189 0.0
H498 H 0.43782 0.32301 0.71342 0.0
H499 H 0.49897 0.34079 0.65421 0.0
H500 H 0.48912 0.39028 0.65857 0.0
H501 H 0.38921 0.36625 0.68875 0.0
H502 H 0.37763 0.37671 0.72211 0.0
H503 H 0.39195 0.34364 0.71678 0.0
H504 H 0.4283 0.3559 0.75719 0.0
H505 H 0.41391 0.38897 0.76285 0.0
H506 H 0.45005 0.38711 0.75705 0.0
H507 H 0.469 0.43744 0.6667 0.0
H508 H 0.44152 0.47743 0.67847 0.0
H509 H 0.39373 0.42711 0.73164 0.0
C510 C 0.44958 0.33729 0.70168 0.0
C511 C 0.46922 0.32801 0.68349 0.0
C512 C 0.48396 0.34746 0.66843 0.0
C513 C 0.47847 0.37558 0.67075 0.0
C514 C 0.45835 0.38385 0.68835 0.0
C515 C 0.44436 0.3652 0.70372 0.0
C516 C 0.42257 0.37867 0.7199 0.0
C517 C 0.39364 0.36554 0.71136 0.0
C518 C 0.42911 0.3776 0.75109 0.0
C519 C 0.42594 0.40776 0.7108 0.0
C520 C 0.4468 0.41055 0.69281 0.0
C521 C 0.45283 0.4355 0.68099 0.0
C522 C 0.43708 0.45807 0.68775 0.0
C523 C 0.41546 0.45541 0.70597 0.0
C524 C 0.41011 0.42991 0.71769 0.0
H525 H 0.95375 0.22035 0.8878 0.0
H526 H 0.94926 0.30813 0.90732 0.0
H527 H 0.91004 0.29847 0.93614 0.0
H528 H 0.88323 0.20396 0.88069 0.0
H529 H 0.88471 0.17116 0.89605 0.0
H530 H 0.91404 0.18505 0.87945 0.0
H531 H 0.94447 0.18121 0.92436 0.0
H532 H 0.91502 0.16761 0.94121 0.0
H533 H 0.9347 0.19777 0.95616 0.0
H534 H 0.86766 0.27979 0.95735 0.0
H535 H 0.82536 0.2533 0.96894 0.0
H536 H 0.85914 0.17768 0.93862 0.0
C537 C 0.94472 0.23754 0.89838 0.0
C538 C 0.95452 0.26501 0.89525 0.0
C539 C 0.94213 0.28691 0.90944 0.0
C540 C 0.91993 0.28162 0.92598 0.0
C541 C 0.91068 0.2543 0.92852 0.0
C542 C 0.9228 0.2326 0.91525 0.0
C543 C 0.9079 0.20527 0.91994 0.0
C544 C 0.89681 0.19051 0.8924 0.0
C545 C 0.92665 0.18688 0.9364 0.0
C546 C 0.88478 0.21506 0.93695 0.0
C547 C 0.88691 0.24341 0.94194 0.0
C548 C 0.86621 0.25753 0.95437 0.0
C549 C 0.84236 0.24238 0.96103 0.0
C550 C 0.83972 0.21349 0.95564 0.0
C551 C 0.86144 0.19961 0.94415 0.0
H552 H 0.2783 0.99643 0.41292 0.0
H553 H 0.26243 0.08295 0.40874 0.0
H554 H 0.27597 0.08153 0.36058 0.0
H555 H 0.33665 -0.00188 0.38323 0.0
H556 H 0.33279 0.96556 0.3634 0.0
H557 H 0.31417 0.9705 0.39393 0.0
H558 H 0.26782 0.95794 0.36626 0.0
H559 H 0.28633 0.95211 0.33555 0.0
H560 H 0.25913 0.97583 0.33579 0.0
H561 H 0.30368 0.07431 0.31937 0.0
H562 H 0.33653 0.05979 0.2851 0.0
H563 H 0.33262 0.97737 0.31479 0.0
C564 C 0.27627 0.01466 0.40134 0.0
C565 C 0.26929 0.03975 0.41445 0.0
C566 C 0.26733 0.0634 0.39895 0.0
C567 C 0.27515 0.06281 0.37159 0.0
C568 C 0.2841 0.03824 0.35992 0.0
C569 C 0.28377 0.01429 0.37401 0.0
C570 C 0.29756 0.99155 0.35836 0.0
C571 C 0.32171 0.98084 0.37577 0.0
C572 C 0.27645 0.96796 0.34839 0.0
C573 C 0.30764 0.00703 0.33442 0.0
C574 C 0.29938 0.03383 0.33544 0.0
C575 C 0.30942 0.05312 0.31775 0.0
C576 C 0.32828 0.04479 0.29856 0.0
C577 C 0.3368 0.0174 0.29717 0.0
C578 C 0.3259 -0.00176 0.31498 0.0
H579 H 0.18075 0.01776 0.6746 0.0
H580 H 0.23073 0.94915 0.69328 0.0
H581 H 0.2566 0.95657 0.65206 0.0
H582 H 0.17464 0.00342 0.60259 0.0
H583 H 0.17695 0.03886 0.5935 0.0
H584 H 0.16362 0.03022 0.62592 0.0
H585 H 0.20018 0.06414 0.65215 0.0
H586 H 0.21337 0.0732 0.61976 0.0
H587 H 0.23615 0.06095 0.64627 0.0
H588 H 0.27484 0.96868 0.60781 0.0
H589 H 0.28705 0.98717 0.56382 0.0
H590 H 0.22549 0.0481 0.57252 0.0
C591 C 0.19756 0.00477 0.67031 0.0
C592 C 0.20379 0.98292 0.68717 0.0
C593 C 0.22558 0.96597 0.68062 0.0
C594 C 0.24041 0.97 0.65725 0.0
C595 C 0.23322 0.99107 0.64057 0.0
C596 C 0.21255 0.00839 0.64681 0.0
C597 C 0.20846 0.02874 0.6246 0.0
C598 C 0.17918 0.02508 0.61084 0.0
C599 C 0.21494 0.05852 0.6364 0.0
C600 C 0.22983 0.01982 0.60485 0.0
C601 C 0.24383 -0.00192 0.6146 0.0
C602 C 0.26421 0.98586 0.60001 0.0
C603 C 0.2709 0.99648 0.57496 0.0
C604 C 0.25726 0.01912 0.56465 0.0
C605 C 0.23624 0.03073 0.57976 0.0
H606 H 0.20522 0.92345 0.8237 0.0
H607 H 0.15393 0.99129 0.8434 0.0
H608 H 0.16243 0.98444 0.89319 0.0
H609 H 0.18156 0.8803 0.87193 0.0
H610 H 0.21431 0.86624 0.88018 0.0
H611 H 0.20731 0.87898 0.84668 0.0
H612 H 0.25097 0.91221 0.85333 0.0
H613 H 0.25835 0.89931 0.88678 0.0
H614 H 0.2554 0.93577 0.88341 0.0
H615 H 0.17271 0.96631 0.94061 0.0
H616 H 0.18536 0.94013 0.98116 0.0
H617 H 0.22932 0.88435 0.92891 0.0
C618 C 0.19616 0.93728 0.83844 0.0
C619 C 0.1789 0.95789 0.82972 0.0
C620 C 0.1674 0.97548 0.84968 0.0
C621 C 0.17206 0.97169 0.87796 0.0
C622 C 0.18849 0.95047 0.88577 0.0
C623 C 0.20062 0.93382 0.8665 0.0
C624 C 0.21595 0.91137 0.87977 0.0
C625 C 0.20406 0.88253 0.869 0.0
C626 C 0.24701 0.91489 0.87558 0.0
C627 C 0.20991 0.91737 0.90951 0.0
C628 C 0.19428 0.94012 0.91273 0.0
C629 C 0.18524 0.9487 0.93835 0.0
C630 C 0.19243 0.93363 0.96122 0.0
C631 C 0.20833 0.91019 0.95819 0.0
C632 C 0.21723 0.9022 0.93198 0.0
H633 H 0.26878 0.89334 0.11994 0.0
H634 H 0.28122 0.92886 0.04147 0.0
H635 H 0.30677 0.96911 0.06553 0.0
H636 H 0.26462 0.96287 0.16122 0.0
H637 H 0.28226 0.94954 0.19074 0.0
H638 H 0.25953 0.92694 0.168 0.0
H639 H 0.29917 0.89419 0.16109 0.0
H640 H 0.32199 0.91668 0.18345 0.0
H641 H 0.33124 0.90765 0.14885 0.0
H642 H 0.34103 0.99745 0.09585 0.0
H643 H 0.3767 0.01538 0.13155 0.0
H644 H 0.33869 0.96498 0.19119 0.0
C645 C 0.27603 0.91011 0.10798 0.0
C646 C 0.27321 0.90803 0.07895 0.0
C647 C 0.28306 0.93017 0.0638 0.0
C648 C 0.29755 0.95314 0.07728 0.0
C649 C 0.3012 0.95399 0.10592 0.0
C650 C 0.29001 0.93344 0.12119 0.0
C651 C 0.29931 0.93779 0.15137 0.0
C652 C 0.27498 0.94471 0.16886 0.0
C653 C 0.31379 0.9126 0.16176 0.0
C654 C 0.31927 0.96257 0.15026 0.0
C655 C 0.31985 0.97184 0.12391 0.0
C656 C 0.33999 0.99128 0.11681 0.0
C657 C 0.36024 0.0012 0.13706 0.0
C658 C 0.35978 0.99192 0.16402 0.0
C659 C 0.33865 0.97307 0.17088 0.0
H660 H 0.33366 0.35199 0.01753 0.0
H661 H 0.28785 0.30726 0.0766 0.0
H662 H 0.32795 0.27914 0.08555 0.0
H663 H 0.37125 0.29367 0.99051 0.0
H664 H 0.4021 0.3152 0.98725 0.0
H665 H 0.3688 0.32951 0.98355 0.0
H666 H 0.38383 0.36731 0.02196 0.0
H667 H 0.4171 0.35319 0.02574 0.0
H668 H 0.39651 0.35726 0.05523 0.0
H669 H 0.37505 0.25875 0.09079 0.0
H670 H 0.42456 0.24914 0.09265 0.0
H671 H 0.43825 0.30756 0.02986 0.0
C672 C 0.33181 0.33602 0.03207 0.0
C673 C 0.30758 0.33182 0.04635 0.0
C674 C 0.30618 0.31081 0.06535 0.0
C675 C 0.32882 0.29468 0.0705 0.0
C676 C 0.35257 0.2997 0.05632 0.0
C677 C 0.35407 0.31982 0.0374 0.0
C678 C 0.38236 0.32256 0.02615 0.0
C679 C 0.38103 0.31476 0.99502 0.0
C680 C 0.39573 0.3518 0.03268 0.0
C681 C 0.39688 0.30142 0.04228 0.0
C682 C 0.37938 0.28812 0.05933 0.0
C683 C 0.38882 0.2688 0.07725 0.0
C684 C 0.41696 0.26344 0.07814 0.0
C685 C 0.4353 0.27755 0.06137 0.0
C686 C 0.42482 0.29629 0.04285 0.0
H687 H 0.97338 0.84973 0.18711 0.0
H688 H 0.99201 0.82661 0.27046 0.0
H689 H 0.97933 0.87245 0.2886 0.0
H690 H 0.99207 0.92642 0.19839 0.0
H691 H 0.96307 0.93457 0.17628 0.0
H692 H 0.9801 0.90306 0.16961 0.0
H693 H 0.93337 0.8752 0.1711 0.0
H694 H 0.91628 0.90643 0.17825 0.0
H695 H 0.91376 0.87882 0.20136 0.0
H696 H 0.95846 0.91732 0.2979 0.0
H697 H 0.93007 0.95772 0.29813 0.0
H698 H 0.92157 0.95051 0.20866 0.0
C699 C 0.97608 0.85494 0.20907 0.0
C700 C 0.98442 0.83513 0.22744 0.0
C701 C 0.98626 0.84188 0.25615 0.0
C702 C 0.97908 0.86781 0.26657 0.0
C703 C 0.96977 0.88655 0.24799 0.0
C704 C 0.9683 0.88048 0.21981 0.0
C705 C 0.95369 0.90238 0.2046 0.0
C706 C 0.97341 0.91751 0.18613 0.0
C707 C 0.92774 0.88996 0.18786 0.0
C708 C 0.94627 0.92113 0.22866 0.0
C709 C 0.95631 0.91195 0.25344 0.0
C710 C 0.95085 0.92495 0.27861 0.0
C711 C 0.93459 0.94784 0.27851 0.0
C712 C 0.92357 0.95729 0.25341 0.0
C713 C 0.92979 0.94386 0.22817 0.0
H714 H 0.17154 0.7457 0.49348 0.0
H715 H 0.1861 0.68349 0.55241 0.0
H716 H 0.14036 0.69034 0.57052 0.0
H717 H 0.13499 0.79121 0.53872 0.0
H718 H 0.11154 0.80042 0.51122 0.0
H719 H 0.14584 0.79122 0.50388 0.0
H720 H 0.12531 0.75348 0.46763 0.0
H721 H 0.09094 0.76229 0.47513 0.0
H722 H 0.10087 0.72733 0.47785 0.0
H723 H 0.09183 0.7024 0.58052 0.0
H724 H 0.0461 0.72157 0.58428 0.0
H725 H 0.06394 0.77596 0.51892 0.0
C726 C 0.16532 0.73372 0.51043 0.0
C727 C 0.18246 0.71406 0.52152 0.0
C728 C 0.17341 0.69877 0.54364 0.0
C729 C 0.1474 0.70242 0.55398 0.0
C730 C 0.13077 0.72151 0.54209 0.0
C731 C 0.13952 0.73713 0.52102 0.0
C732 C 0.11772 0.75616 0.51168 0.0
C733 C 0.12815 0.78655 0.51669 0.0
C734 C 0.10815 0.7494 0.48127 0.0
C735 C 0.09524 0.7487 0.53068 0.0
C736 C 0.10307 0.72859 0.54799 0.0
C737 C 0.08554 0.71826 0.56716 0.0
C738 C 0.05954 0.72918 0.56904 0.0
C739 C 0.05139 0.7503 0.55192 0.0
C740 C 0.06949 0.75987 0.53233 0.0
H741 H 0.97676 0.6932 0.63477 0.0
H742 H 0.92633 0.74223 0.68712 0.0
H743 H 0.92089 0.70324 0.71736 0.0
H744 H 0.93837 0.63132 0.63639 0.0
H745 H 0.96761 0.61009 0.63667 0.0
H746 H 0.96972 0.64286 0.62138 0.0
H747 H 0.01294 0.65781 0.65342 0.0
H748 H 0.01077 0.62506 0.66901 0.0
H749 H 0.01108 0.65667 0.69025 0.0
H750 H 0.91723 0.65671 0.73906 0.0
H751 H 0.91427 0.60715 0.7486 0.0
H752 H 0.96843 0.59021 0.68252 0.0
C753 C 0.96482 0.69594 0.65277 0.0
C754 C 0.95192 0.72075 0.65854 0.0
C755 C 0.93645 0.72341 0.6823 0.0
C756 C 0.93335 0.70142 0.69967 0.0
C757 C 0.94618 0.67711 0.69319 0.0
C758 C 0.96172 0.6744 0.67033 0.0
C759 C 0.97193 0.64572 0.66665 0.0
C760 C 0.96125 0.63168 0.63863 0.0
C761 C 0.00356 0.64637 0.67005 0.0
C762 C 0.95885 0.6323 0.69037 0.0
C763 C 0.94439 0.65072 0.70577 0.0
C764 C 0.92888 0.64223 0.72741 0.0
C765 C 0.9274 0.61406 0.73278 0.0
C766 C 0.94117 0.5948 0.71637 0.0
C767 C 0.95782 0.60439 0.69561 0.0
H768 H 0.20493 0.15638 0.44755 0.0
H769 H 0.20365 0.13354 0.53245 0.0
H770 H 0.16557 0.16394 0.54009 0.0
H771 H 0.18504 0.22926 0.45999 0.0
H772 H 0.16371 0.22779 0.4284 0.0
H773 H 0.19387 0.20788 0.43066 0.0
H774 H 0.16387 0.16325 0.41595 0.0
H775 H 0.13381 0.18303 0.41344 0.0
H776 H 0.1344 0.15423 0.4352 0.0
H777 H 0.12418 0.19131 0.53709 0.0
H778 H 0.08064 0.21153 0.52278 0.0
H779 H 0.10839 0.21746 0.44002 0.0
C780 C 0.19706 0.15831 0.46792 0.0
C781 C 0.20735 0.14269 0.48944 0.0
C782 C 0.19611 0.14529 0.51565 0.0
C783 C 0.17461 0.1627 0.52026 0.0
C784 C 0.16463 0.17749 0.49852 0.0
C785 C 0.17544 0.17549 0.47284 0.0
C786 C 0.15892 0.19113 0.45218 0.0
C787 C 0.17644 0.21547 0.44223 0.0
C788 C 0.14704 0.17175 0.42777 0.0
C789 C 0.13644 0.20118 0.46996 0.0
C790 C 0.14048 0.19355 0.49678 0.0
C791 C 0.12106 0.19794 0.51634 0.0
C792 C 0.0964 0.20944 0.50804 0.0
C793 C 0.09136 0.2164 0.48043 0.0
C794 C 0.11208 0.21313 0.46146 0.0
H795 H 0.60309 0.43637 0.20831 0.0
H796 H 0.65007 0.38175 0.2575 0.0
H797 H 0.62465 0.34132 0.23298 0.0
H798 H 0.53738 0.39349 0.19947 0.0
H799 H 0.53175 0.40212 0.16413 0.0
H800 H 0.54999 0.42654 0.18881 0.0
H801 H 0.59122 0.42918 0.15732 0.0
H802 H 0.57325 0.40467 0.13268 0.0
H803 H 0.60707 0.39792 0.14679 0.0
H804 H 0.59652 0.30718 0.20111 0.0
H805 H 0.57067 0.28159 0.16171 0.0
H806 H 0.54532 0.35886 0.13082 0.0
C807 C 0.60736 0.41589 0.21444 0.0
C808 C 0.62803 0.41197 0.23504 0.0
C809 C 0.634 0.38498 0.2419 0.0
C810 C 0.61963 0.36199 0.2282 0.0
C811 C 0.59973 0.3665 0.20749 0.0
C812 C 0.59373 0.39278 0.20049 0.0
C813 C 0.57406 0.39203 0.17526 0.0
C814 C 0.54667 0.40427 0.18235 0.0
C815 C 0.5872 0.40682 0.15163 0.0
C816 C 0.5704 0.36125 0.16879 0.0
C817 C 0.58483 0.34686 0.18799 0.0
C818 C 0.58502 0.3182 0.18601 0.0
C819 C 0.57031 0.30387 0.1636 0.0
C820 C 0.55619 0.31833 0.14323 0.0
C821 C 0.55607 0.34734 0.14605 0.0
H822 H 0.3313 0.78046 0.02289 0.0
H823 H 0.30692 0.83354 0.95803 0.0
H824 H 0.35087 0.82658 0.93638 0.0
H825 H 0.40227 0.80287 0.02923 0.0
H826 H 0.41442 0.76914 0.03474 0.0
H827 H 0.38071 0.77757 0.04494 0.0
H828 H 0.3585 0.73553 0.01503 0.0
H829 H 0.39218 0.72668 0.00516 0.0
H830 H 0.3655 0.7317 0.97904 0.0
H831 H 0.39845 0.81544 0.92283 0.0
H832 H 0.44362 0.7964 0.9153 0.0
H833 H 0.43656 0.75022 0.9887 0.0
C834 C 0.33501 0.79038 0.00396 0.0
C835 C 0.31559 0.80757 0.99221 0.0
C836 C 0.32137 0.82018 0.96742 0.0
C837 C 0.34638 0.81652 0.95503 0.0
C838 C 0.36537 0.80006 0.96758 0.0
C839 C 0.35981 0.78686 0.99125 0.0
C840 C 0.38353 0.76996 0.00037 0.0
C841 C 0.39596 0.78053 0.02902 0.0
C842 C 0.37438 0.73914 -0.00015 0.0
C843 C 0.40331 0.77574 0.97815 0.0
C844 C 0.39257 0.79336 0.95958 0.0
C845 C 0.40704 0.80156 0.9372 0.0
C846 C 0.43279 0.79077 0.93321 0.0
C847 C 0.44372 0.77181 0.9514 0.0
C848 C 0.4289 0.76473 0.97445 0.0
H849 H 0.94241 0.43993 0.77394 0.0
H850 H 0.98187 0.44401 0.69614 0.0
H851 H 0.00278 0.40008 0.70397 0.0
H852 H -0.00073 0.41043 0.81142 0.0
H853 H 0.97723 0.38855 0.83059 0.0
H854 H 0.96535 0.42066 0.81914 0.0
H855 H 0.92246 0.39437 0.79433 0.0
H856 H 0.93443 0.36212 0.8054 0.0
H857 H 0.92705 0.36651 0.76925 0.0
H858 H 0.01922 0.35616 0.71926 0.0
H859 H 0.03331 0.31549 0.74315 0.0
H860 H 0.98345 0.33827 0.81127 0.0
C861 C 0.95568 0.43171 0.75871 0.0
C862 C 0.96045 0.44551 0.73439 0.0
C863 C 0.97781 0.43391 0.7149 0.0
C864 C 0.98975 0.40887 0.71909 0.0
C865 C 0.98418 0.39554 0.74288 0.0
C866 C 0.96781 0.40654 0.76254 0.0
C867 C 0.96558 0.38784 0.78642 0.0
C868 C 0.97758 0.40276 0.81349 0.0
C869 C 0.93559 0.37708 0.78899 0.0
C870 C 0.98338 0.36476 0.77706 0.0
C871 C 0.99372 0.36971 0.75179 0.0
C872 C 0.01125 0.35199 0.73903 0.0
C873 C 0.0191 0.32892 0.75277 0.0
C874 C 0.0094 0.32365 0.779 0.0
C875 C 0.99084 0.34155 0.79105 0.0
H876 H 0.3182 0.14074 0.54347 0.0
H877 H 0.37645 0.10221 0.49138 0.0
H878 H 0.41319 0.13622 0.51037 0.0
H879 H 0.34902 0.21356 0.54494 0.0
H880 H 0.3424 0.21934 0.58083 0.0
H881 H 0.31953 0.1963 0.55871 0.0
H882 H 0.32675 0.15735 0.59217 0.0
H883 H 0.3497 0.18009 0.61423 0.0
H884 H 0.36124 0.14763 0.60089 0.0
H885 H 0.44448 0.17021 0.53897 0.0
H886 H 0.46866 0.199 0.5772 0.0
H887 H 0.39032 0.21302 0.61262 0.0
C888 C 0.33846 0.14012 0.53536 0.0
C889 C 0.34453 0.11921 0.51575 0.0
C890 C 0.37146 0.11829 0.5063 0.0
C891 C 0.39236 0.1376 0.51682 0.0
C892 C 0.38592 0.15749 0.53684 0.0
C893 C 0.35962 0.15884 0.54606 0.0
C894 C 0.35891 0.17931 0.57055 0.0
C895 C 0.34143 0.20357 0.56331 0.0
C896 C 0.34856 0.16524 0.59594 0.0
C897 C 0.38913 0.18835 0.57446 0.0
C898 C 0.40425 0.1762 0.55432 0.0
C899 C 0.43283 0.18015 0.55463 0.0
C900 C 0.44637 0.19649 0.57643 0.0
C901 C 0.43131 0.20809 0.59787 0.0
C902 C 0.40232 0.20441 0.59648 0.0
H903 H 0.51578 0.64785 0.34232 0.0
H904 H 0.495 0.65872 0.25609 0.0
H905 H 0.51161 0.61283 0.24379 0.0
H906 H 0.57722 0.62393 0.33277 0.0
H907 H 0.57766 0.59907 0.35889 0.0
H908 H 0.55671 0.62819 0.36233 0.0
H909 H 0.51325 0.59579 0.36607 0.0
H910 H 0.53418 0.56638 0.36319 0.0
H911 H 0.50454 0.56868 0.33973 0.0
H912 H 0.5393 0.57187 0.23975 0.0
H913 H 0.57481 0.53794 0.24424 0.0
H914 H 0.5795 0.55375 0.3331 0.0
C915 C 0.51327 0.63979 0.32107 0.0
C916 C 0.50353 0.65641 0.30018 0.0
C917 C 0.5019 0.64597 0.27238 0.0
C918 C 0.51131 0.61995 0.26524 0.0
C919 C 0.52238 0.60468 0.28614 0.0
C920 C 0.52312 0.61403 0.31359 0.0
C921 C 0.54015 0.59596 0.33147 0.0
C922 C 0.56436 0.6128 0.34727 0.0
C923 C 0.52194 0.5808 0.35128 0.0
C924 C 0.55018 0.57605 0.30964 0.0
C925 C 0.53916 0.58105 0.28372 0.0
C926 C 0.54752 0.56729 0.25999 0.0
C927 C 0.56788 0.54817 0.26274 0.0
C928 C 0.57986 0.5431 0.28904 0.0
C929 C 0.57039 0.55682 0.31278 0.0
H930 H 0.07834 0.76912 0.13028 0.0
H931 H 0.02246 0.80302 0.07009 0.0
H932 H 0.06083 0.80974 0.03946 0.0
H933 H 0.1349 0.81512 0.12241 0.0
H934 H 0.16036 0.78988 0.12666 0.0
H935 H 0.128 0.78575 0.14253 0.0
H936 H 0.11942 0.73718 0.11774 0.0
H937 H 0.15172 0.74129 0.10159 0.0
H938 H 0.12023 0.73338 0.08073 0.0
H939 H 0.10615 0.81606 0.01711 0.0
H940 H 0.1548 0.82293 0.00571 0.0
H941 H 0.18041 0.78382 0.08023 0.0
C942 C 0.07405 0.77773 0.11056 0.0
C943 C 0.04738 0.78555 0.10259 0.0
C944 C 0.04272 0.79685 0.07664 0.0
C945 C 0.06436 0.80063 0.05904 0.0
C946 C 0.09044 0.79278 0.0676 0.0
C947 C 0.09532 0.78152 0.09275 0.0
C948 C 0.12545 0.77618 0.09782 0.0
C949 C 0.1379 0.79273 0.12389 0.0
C950 C 0.12943 0.74516 0.09957 0.0
C951 C 0.13694 0.78689 0.07195 0.0
C952 C 0.11641 0.79611 0.05461 0.0
C953 C 0.12235 0.80857 0.03034 0.0
C954 C 0.15006 0.81235 0.02402 0.0
C955 C 0.17145 0.80376 0.04196 0.0
C956 C 0.16459 0.79023 0.06583 0.0
H957 H 0.66977 0.98444 0.55285 0.0
H958 H 0.7299 0.92796 0.58117 0.0
H959 H 0.71724 0.9375 0.62907 0.0
H960 H 0.6789 0.03444 0.61362 0.0
H961 H 0.64267 0.04057 0.61276 0.0
H962 H 0.65882 0.03178 0.58123 0.0
H963 H 0.62273 0.99085 0.57075 0.0
H964 H 0.60669 -0.00073 0.60235 0.0
H965 H 0.61855 0.96518 0.59577 0.0
H966 H 0.69445 0.94905 0.67292 0.0
H967 H 0.66518 0.96392 0.71013 0.0
H968 H 0.62011 0.01328 0.65334 0.0
C969 C 0.68077 0.97453 0.56915 0.0
C970 C 0.7009 0.95547 0.56319 0.0
C971 C 0.71453 0.94274 0.58517 0.0
C972 C 0.70745 0.948 0.61247 0.0
C973 C 0.6869 0.96622 0.61747 0.0
C974 C 0.674 0.97957 0.59648 0.0
C975 C 0.65153 0.99701 0.60714 0.0
C976 C 0.6584 0.02778 0.60347 0.0
C977 C 0.62321 0.98749 0.59317 0.0
C978 C 0.65324 0.99074 0.63729 0.0
C979 C 0.67388 0.97307 0.64284 0.0
C980 C 0.67849 0.9632 0.6689 0.0
C981 C 0.66163 0.97167 0.68987 0.0
C982 C 0.64037 0.98985 0.68469 0.0
C983 C 0.63632 -0.00042 0.65804 0.0
H984 H 0.77863 0.02557 0.31219 0.0
H985 H 0.84219 0.96726 0.30085 0.0
H986 H 0.82902 0.94487 0.34275 0.0
H987 H 0.78655 0.034 0.38496 0.0
H988 H 0.75029 0.03552 0.39026 0.0
H989 H 0.76372 0.04654 0.35865 0.0
H990 H 0.72919 0.01211 0.33026 0.0
H991 H 0.71533 0.00132 0.36176 0.0
H992 H 0.72793 0.97616 0.33763 0.0
H993 H 0.81141 0.93091 0.38759 0.0
H994 H 0.78631 0.92219 0.42916 0.0
H995 H 0.73294 0.98834 0.41074 0.0
C996 C 0.78952 0.00784 0.31828 0.0
C997 C 0.81147 -0.00179 0.30317 0.0
C998 C 0.82521 0.97497 0.31192 0.0
C999 C 0.81801 0.96219 0.33583 0.0
C1000 C 0.79683 0.97268 0.35064 0.0
C1001 C 0.78242 0.99463 0.34196 0.0
C1002 C 0.76034 0.00168 0.36159 0.0
C1003 C 0.76555 0.03119 0.37463 0.0
C1004 C 0.73149 0.99756 0.34693 0.0
C1005 C 0.7648 0.98042 0.38277 0.0
C1006 C 0.78614 0.9641 0.37617 0.0
C1007 C 0.79451 0.9434 0.39286 0.0
C1008 C 0.78022 0.93875 0.41657 0.0
C1009 C 0.7576 0.95455 0.42325 0.0
C1010 C 0.7501 0.97588 0.40621 0.0
H1011 H 0.78162 0.12485 0.06225 0.0
H1012 H 0.82949 0.07104 0.01183 0.0
H1013 H 0.84088 0.04462 0.05233 0.0
H1014 H 0.82727 0.12839 0.12173 0.0
H1015 H 0.80042 0.12857 0.14583 0.0
H1016 H 0.79455 0.14207 0.11246 0.0
H1017 H 0.75135 0.1086 0.10301 0.0
H1018 H 0.75718 0.09489 0.13635 0.0
H1019 H 0.75454 0.07207 0.1057 0.0
H1020 H 0.84883 0.02524 0.0988 0.0
H1021 H 0.85426 0.01576 0.14811 0.0
H1022 H 0.80126 0.08222 0.16805 0.0
C1023 C 0.79431 0.10737 0.05965 0.0
C1024 C 0.8046 0.10001 0.03382 0.0
C1025 C 0.82135 0.07712 0.03139 0.0
C1026 C 0.82786 0.06189 0.05426 0.0
C1027 C 0.81745 0.06974 0.07944 0.0
C1028 C 0.80108 0.09197 0.08229 0.0
C1029 C 0.79361 0.0969 0.1119 0.0
C1030 C 0.80463 0.12568 0.12366 0.0
C1031 C 0.76231 0.09287 0.11437 0.0
C1032 C 0.80873 0.07427 0.12531 0.0
C1033 C 0.82213 0.05864 0.10622 0.0
C1034 C 0.83826 0.03721 0.11393 0.0
C1035 C 0.84119 0.03195 0.142 0.0
C1036 C 0.82815 0.04816 0.16201 0.0
C1037 C 0.81135 0.06927 0.15332 0.0
H1038 H 0.65679 0.00675 0.87337 0.0
H1039 H 0.68985 0.01004 0.79257 0.0
H1040 H 0.73382 0.03033 0.81389 0.0
H1041 H 0.67764 0.06793 0.89675 0.0
H1042 H 0.68689 0.06119 0.93204 0.0
H1043 H 0.66218 0.03847 0.91228 0.0
H1044 H 0.69166 0.99692 0.92192 0.0
H1045 H 0.71659 0.01966 0.94203 0.0
H1046 H 0.72736 -0.00193 0.91373 0.0
H1047 H 0.76641 0.0629 0.84055 0.0
H1048 H 0.78578 0.10237 0.87088 0.0
H1049 H 0.73423 0.07668 0.93559 0.0
C1050 C 0.67374 0.01057 0.86031 0.0
C1051 C 0.66985 0.007 0.83135 0.0
C1052 C 0.69233 0.01256 0.81484 0.0
C1053 C 0.7175 0.02397 0.82681 0.0
C1054 C 0.72008 0.02912 0.85535 0.0
C1055 C 0.699 0.02194 0.87202 0.0
C1056 C 0.70502 0.03378 0.90132 0.0
C1057 C 0.68156 0.05139 0.91111 0.0
C1058 C 0.71049 0.01073 0.9209 0.0
C1059 C 0.73115 0.05124 0.8978 0.0
C1060 C 0.74002 0.04758 0.87133 0.0
C1061 C 0.76047 0.06514 0.86164 0.0
C1062 C 0.77128 0.08759 0.87892 0.0
C1063 C 0.76173 0.09213 0.90561 0.0
C1064 C 0.74252 0.07296 0.9156 0.0
H1065 H 0.58238 0.69025 0.97393 0.0
H1066 H 0.60258 0.75428 0.91844 0.0
H1067 H 0.65162 0.74342 0.92292 0.0
H1068 H 0.64637 0.69893 0.01867 0.0
H1069 H 0.64738 0.66231 0.02234 0.0
H1070 H 0.61475 0.67767 0.0174 0.0
H1071 H 0.60227 0.64362 0.97509 0.0
H1072 H 0.63498 0.62844 0.97961 0.0
H1073 H 0.62503 0.64211 0.94709 0.0
H1074 H 0.69785 0.7225 0.93033 0.0
H1075 H 0.73748 0.6945 0.94133 0.0
H1076 H 0.68599 0.64364 0.99082 0.0
C1077 C 0.59714 0.70253 0.96322 0.0
C1078 C 0.5886 0.72325 0.94593 0.0
C1079 C 0.60863 0.73844 0.93195 0.0
C1080 C 0.63652 0.73238 0.93433 0.0
C1081 C 0.64403 0.71114 0.95081 0.0
C1082 C 0.62491 0.69664 0.96521 0.0
C1083 C 0.63779 0.6736 0.98008 0.0
C1084 C 0.6365 0.67843 0.01148 0.0
C1085 C 0.62421 0.64528 0.96984 0.0
C1086 C 0.66705 0.67698 0.97135 0.0
C1087 C 0.67036 0.69888 0.95468 0.0
C1088 C 0.69552 0.70547 0.94357 0.0
C1089 C 0.71788 0.68938 0.94985 0.0
C1090 C 0.71485 0.66684 0.96689 0.0
C1091 C 0.68902 0.66069 0.9777 0.0
H1092 H 0.12157 0.07777 0.76025 0.0
H1093 H 0.05813 0.02951 0.7986 0.0
H1094 H 0.03378 0.07176 0.8087 0.0
H1095 H 0.12413 0.13529 0.80841 0.0
H1096 H 0.12968 0.16051 0.78321 0.0
H1097 H 0.14109 0.12619 0.77742 0.0
H1098 H 0.11266 0.12105 0.73059 0.0
H1099 H 0.10105 0.15535 0.73632 0.0
H1100 H 0.07628 0.12651 0.72958 0.0
H1101 H 0.01734 0.11966 0.81651 0.0
H1102 H 0.0113 0.16972 0.82299 0.0
H1103 H 0.08547 0.18633 0.77951 0.0
C1104 C 0.10244 0.07604 0.77056 0.0
C1105 C 0.09175 0.05031 0.77857 0.0
C1106 C 0.06676 0.04899 0.79225 0.0
C1107 C 0.05269 0.07286 0.798 0.0
C1108 C 0.06383 0.09791 0.7899 0.0
C1109 C 0.08816 0.09966 0.77652 0.0
C1110 C 0.09641 0.12924 0.77118 0.0
C1111 C 0.12448 0.13833 0.78594 0.0
C1112 C 0.0966 0.13327 0.74007 0.0
C1113 C 0.07317 0.14386 0.78402 0.0
C1114 C 0.05442 0.12545 0.79449 0.0
C1115 C 0.03177 0.13428 0.80821 0.0
C1116 C 0.02848 0.16275 0.81175 0.0
C1117 C 0.04784 0.18199 0.80172 0.0
C1118 C 0.07017 0.17223 0.78729 0.0
H1119 H 0.93641 0.24528 0.49846 0.0
H1120 H 0.9577 0.30055 0.43491 0.0
H1121 H 0.91437 0.32398 0.44115 0.0
H1122 H 0.86563 0.23635 0.47988 0.0
H1123 H 0.85506 0.23562 0.51478 0.0
H1124 H 0.8885 0.22454 0.50658 0.0
H1125 H 0.91183 0.2599 0.5437 0.0
H1126 H 0.87843 0.27083 0.5523 0.0
H1127 H 0.90442 0.29577 0.54274 0.0
H1128 H 0.86668 0.33925 0.45262 0.0
H1129 H 0.8211 0.34734 0.47083 0.0
H1130 H 0.8322 0.28176 0.52668 0.0
C1131 C 0.93224 0.26255 0.48607 0.0
C1132 C 0.9505 0.27107 0.46619 0.0
C1133 C 0.94412 0.29375 0.4504 0.0
C1134 C 0.91949 0.30709 0.4537 0.0
C1135 C 0.90159 0.29762 0.47301 0.0
C1136 C 0.90791 0.27607 0.48915 0.0
C1137 C 0.88518 0.26939 0.50811 0.0
C1138 C 0.87287 0.23972 0.50195 0.0
C1139 C 0.89559 0.27428 0.53851 0.0
C1140 C 0.86487 0.29033 0.49996 0.0
C1141 C 0.87457 0.30643 0.47966 0.0
C1142 C 0.85899 0.32686 0.46864 0.0
C1143 C 0.83306 0.33121 0.47901 0.0
C1144 C 0.82303 0.31522 0.50021 0.0
C1145 C 0.83921 0.29441 0.51053 0.0
H1146 H 0.58627 0.90631 0.79828 0.0
H1147 H 0.50819 0.93926 0.77483 0.0
H1148 H 0.48389 0.89501 0.78433 0.0
H1149 H 0.56774 0.83098 0.77602 0.0
H1150 H 0.58645 0.81977 0.80598 0.0
H1151 H 0.59796 0.85087 0.79049 0.0
H1152 H 0.59619 0.87806 0.83763 0.0
H1153 H 0.58426 0.8473 0.85316 0.0
H1154 H 0.56439 0.87751 0.85502 0.0
H1155 H 0.46788 0.85056 0.80323 0.0
H1156 H 0.46103 0.8101 0.83102 0.0
H1157 H 0.54965 0.80736 0.84512 0.0
C1158 C 0.56421 0.90352 0.79379 0.0
C1159 C 0.54901 0.92552 0.78487 0.0
C1160 C 0.52006 0.92212 0.78079 0.0
C1161 C 0.50618 0.89713 0.78619 0.0
C1162 C 0.52163 0.87601 0.79599 0.0
C1163 C 0.55007 0.87892 0.79966 0.0
C1164 C 0.56148 0.85504 0.81445 0.0
C1165 C 0.57947 0.83816 0.7956 0.0
C1166 C 0.5775 0.8651 0.84167 0.0
C1167 C 0.535 0.83889 0.81963 0.0
C1168 C 0.5123 0.85093 0.80823 0.0
C1169 C 0.48552 0.84069 0.81184 0.0
C1170 C 0.48184 0.81774 0.82774 0.0
C1171 C 0.50481 0.80558 0.84025 0.0
C1172 C 0.53169 0.81612 0.83572 0.0
H1173 H 0.96668 0.19534 0.36014 0.0
H1174 H 0.01753 0.13395 0.39462 0.0
H1175 H 0.00045 0.10018 0.3567 0.0
H1176 H 0.90959 0.151 0.34687 0.0
H1177 H 0.89736 0.16588 0.31569 0.0
H1178 H 0.91801 0.18679 0.34149 0.0
H1179 H 0.95287 0.19928 0.3051 0.0
H1180 H 0.93227 0.17829 0.2791 0.0
H1181 H 0.96818 0.17212 0.28552 0.0
H1182 H 0.97497 0.07228 0.31812 0.0
H1183 H 0.93856 0.05001 0.28594 0.0
H1184 H 0.90099 0.12849 0.27924 0.0
C1185 C 0.97479 0.17502 0.35908 0.0
C1186 C 0.99373 0.16716 0.37971 0.0
C1187 C 0.00319 0.14021 0.37864 0.0
C1188 C 0.99379 0.12106 0.35713 0.0
C1189 C 0.97467 0.12923 0.33724 0.0
C1190 C 0.96499 0.15548 0.33823 0.0
C1191 C 0.9413 0.15772 0.31715 0.0
C1192 C 0.91502 0.16581 0.33115 0.0
C1193 C 0.94914 0.17806 0.29543 0.0
C1194 C 0.93849 0.12837 0.30485 0.0
C1195 C 0.95854 0.11255 0.31605 0.0
C1196 C 0.95934 0.08449 0.30897 0.0
C1197 C 0.93857 0.07205 0.29063 0.0
C1198 C 0.91694 0.08756 0.28016 0.0
C1199 C 0.91735 0.1162 0.28684 0.0
H1200 H 0.57507 0.07217 0.7266 0.0
H1201 H 0.55011 0.08415 0.81069 0.0
H1202 H 0.53363 0.12935 0.80036 0.0
H1203 H 0.59736 0.14463 0.71841 0.0
H1204 H 0.5841 0.14417 0.68305 0.0
H1205 H 0.59576 0.113 0.69704 0.0
H1206 H 0.54833 0.08791 0.6831 0.0
H1207 H 0.53662 0.1189 0.6689 0.0
H1208 H 0.51744 0.10252 0.69476 0.0
H1209 H 0.51689 0.17129 0.78116 0.0
H1210 H 0.49948 0.20791 0.75303 0.0
H1211 H 0.53576 0.17109 0.68129 0.0
C1212 C 0.5663 0.0844 0.74284 0.0
C1213 C 0.56396 0.07446 0.76948 0.0
C1214 C 0.55219 0.09112 0.79011 0.0
C1215 C 0.54284 0.11698 0.78453 0.0
C1216 C 0.54543 0.12616 0.75822 0.0
C1217 C 0.55679 0.11051 0.73763 0.0
C1218 C 0.55579 0.12503 0.71077 0.0
C1219 C 0.585 0.13213 0.70179 0.0
C1220 C 0.53851 0.10755 0.68805 0.0
C1221 C 0.54157 0.15092 0.71949 0.0
C1222 C 0.53603 0.1511 0.74705 0.0
C1223 C 0.52143 0.17167 0.75966 0.0
C1224 C 0.51164 0.19236 0.74354 0.0
C1225 C 0.51666 0.19249 0.71519 0.0
C1226 C 0.53232 0.17183 0.70312 0.0
H1227 H 0.15832 0.39581 0.96487 0.0
H1228 H 0.19253 0.32999 0.01 0.0
H1229 H 0.15788 0.29656 0.9858 0.0
H1230 H 0.08503 0.3687 0.9579 0.0
H1231 H 0.08109 0.37971 0.92321 0.0
H1232 H 0.10444 0.39892 0.9482 0.0
H1233 H 0.14417 0.39346 0.91528 0.0
H1234 H 0.1211 0.37411 0.89034 0.0
H1235 H 0.15226 0.35937 0.90286 0.0
H1236 H 0.12286 0.26984 0.95285 0.0
H1237 H 0.09311 0.25188 0.91193 0.0
H1238 H 0.08526 0.33518 0.88675 0.0
C1239 C 0.15793 0.37454 0.97042 0.0
C1240 C 0.17773 0.36548 0.9896 0.0
C1241 C 0.17727 0.33731 0.99553 0.0
C1242 C 0.15762 0.31826 0.982 0.0
C1243 C 0.13886 0.3278 0.96252 0.0
C1244 C 0.13898 0.35532 0.95672 0.0
C1245 C 0.11961 0.35991 0.93229 0.0
C1246 C 0.09614 0.37787 0.94093 0.0
C1247 C 0.13523 0.37243 0.90882 0.0
C1248 C 0.1091 0.33057 0.92466 0.0
C1249 C 0.11984 0.31236 0.9427 0.0
C1250 C 0.11407 0.28394 0.93883 0.0
C1251 C 0.09726 0.27393 0.91567 0.0
C1252 C 0.08709 0.29235 0.89667 0.0
C1253 C 0.09274 0.3209 0.90136 0.0
H1254 H 0.4358 0.7036 0.41331 0.0
H1255 H 0.44956 0.79184 0.43139 0.0
H1256 H 0.41469 0.79006 0.4662 0.0
H1257 H 0.36592 0.70069 0.41521 0.0
H1258 H 0.36247 0.66824 0.43124 0.0
H1259 H 0.39172 0.67572 0.41141 0.0
H1260 H 0.42443 0.66693 0.45348 0.0
H1261 H 0.39511 0.65963 0.47356 0.0
H1262 H 0.42111 0.6859 0.48593 0.0
H1263 H 0.37257 0.7806 0.49153 0.0
H1264 H 0.32707 0.76367 0.50601 0.0
H1265 H 0.34248 0.6811 0.47507 0.0
C1266 C 0.43195 0.72242 0.42508 0.0
C1267 C 0.44539 0.74785 0.4196 0.0
C1268 C 0.43961 0.77208 0.43526 0.0
C1269 C 0.41991 0.77127 0.45521 0.0
C1270 C 0.40656 0.74598 0.45969 0.0
C1271 C 0.41257 0.72191 0.44532 0.0
C1272 C 0.39347 0.69791 0.45211 0.0
C1273 C 0.37745 0.68491 0.42595 0.0
C1274 C 0.40949 0.67632 0.46717 0.0
C1275 C 0.37472 0.71257 0.47123 0.0
C1276 C 0.38287 0.74025 0.47567 0.0
C1277 C 0.36651 0.75882 0.48913 0.0
C1278 C 0.34078 0.74907 0.49737 0.0
C1279 C 0.33192 0.72098 0.4925 0.0
C1280 C 0.34951 0.70238 0.48022 0.0
H1281 H 0.83919 0.57132 0.81147 0.0
H1282 H 0.87677 0.49357 0.82337 0.0
H1283 H 0.85591 0.49084 0.86822 0.0
H1284 H 0.85097 0.59794 0.88012 0.0
H1285 H 0.81905 0.61498 0.8815 0.0
H1286 H 0.83452 0.60944 0.84905 0.0
H1287 H 0.78924 0.58388 0.82857 0.0
H1288 H 0.77372 0.58914 0.86112 0.0
H1289 H 0.77489 0.55478 0.84544 0.0
H1290 H 0.83424 0.49781 0.91272 0.0
H1291 H 0.81589 0.51582 0.95593 0.0
H1292 H 0.79207 0.58919 0.91604 0.0
C1293 C 0.84273 0.55356 0.82337 0.0
C1294 C 0.85953 0.5326 0.81386 0.0
C1295 C 0.86402 0.5099 0.83022 0.0
C1296 C 0.85208 0.50804 0.85564 0.0
C1297 C 0.83568 0.52903 0.86444 0.0
C1298 C 0.83109 0.55146 0.84894 0.0
C1299 C 0.81446 0.57224 0.86426 0.0
C1300 C 0.83073 0.6003 0.86902 0.0
C1301 C 0.78641 0.57517 0.84893 0.0
C1302 C 0.81108 0.5583 0.89107 0.0
C1303 C 0.82313 0.53318 0.89048 0.0
C1304 C 0.82443 0.51726 0.91335 0.0
C1305 C 0.81395 0.52766 0.93779 0.0
C1306 C 0.80236 0.55376 0.93923 0.0
C1307 C 0.80021 0.56889 0.91532 0.0
H1308 H 0.73999 0.50922 0.19764 0.0
H1309 H 0.66269 0.54955 0.20069 0.0
H1310 H 0.67136 0.56988 0.15632 0.0
H1311 H 0.77873 0.56477 0.16655 0.0
H1312 H 0.79746 0.54101 0.14601 0.0
H1313 H 0.78574 0.53141 0.1788 0.0
H1314 H 0.76023 0.48757 0.15481 0.0
H1315 H 0.77144 0.49729 0.12188 0.0
H1316 H 0.73522 0.49105 0.12667 0.0
H1317 H 0.68725 0.58315 0.1097 0.0
H1318 H 0.71115 0.59179 0.06715 0.0
H1319 H 0.77769 0.54247 0.09538 0.0
C1320 C 0.72506 0.5227 0.18928 0.0
C1321 C 0.70066 0.52779 0.20271 0.0
C1322 C 0.68162 0.54546 0.19091 0.0
C1323 C 0.68629 0.55699 0.16562 0.0
C1324 C 0.71015 0.55078 0.15252 0.0
C1325 C 0.72939 0.53436 0.16418 0.0
C1326 C 0.75312 0.53038 0.14582 0.0
C1327 C 0.78037 0.54264 0.16015 0.0
C1328 C 0.7551 0.49975 0.13676 0.0
C1329 C 0.74413 0.54689 0.12183 0.0
C1330 C 0.71928 0.55846 0.12597 0.0
C1331 C 0.70681 0.57432 0.10634 0.0
C1332 C 0.72045 0.57896 0.08215 0.0
C1333 C 0.74631 0.56783 0.07789 0.0
C1334 C 0.75798 0.55132 0.09795 0.0
H1335 H 0.74705 0.41098 0.44573 0.0
H1336 H 0.67477 0.43355 0.48832 0.0
H1337 H 0.66275 0.46456 0.45151 0.0
H1338 H 0.76288 0.47958 0.41837 0.0
H1339 H 0.7736 0.46424 0.38639 0.0
H1340 H 0.7783 0.44668 0.41783 0.0
H1341 H 0.7508 0.40334 0.39506 0.0
H1342 H 0.74624 0.42066 0.36362 0.0
H1343 H 0.71659 0.40672 0.37992 0.0
H1344 H 0.6556 0.48847 0.40702 0.0
H1345 H 0.65348 0.50181 0.35868 0.0
H1346 H 0.73143 0.4648 0.34658 0.0
C1347 C 0.72893 0.42278 0.4476 0.0
C1348 C 0.71185 0.41982 0.4699 0.0
C1349 C 0.68824 0.43553 0.47146 0.0
C1350 C 0.6813 0.45331 0.45071 0.0
C1351 C 0.69842 0.45545 0.42877 0.0
C1352 C 0.72186 0.44072 0.42724 0.0
C1353 C 0.73568 0.4449 0.40059 0.0
C1354 C 0.76431 0.45974 0.40614 0.0
C1355 C 0.7374 0.41727 0.38382 0.0
C1356 C 0.71571 0.4633 0.38678 0.0
C1357 C 0.69455 0.46956 0.40345 0.0
C1358 C 0.67236 0.48416 0.39398 0.0
C1359 C 0.67135 0.49172 0.36649 0.0
C1360 C 0.69233 0.48448 0.3488 0.0
C1361 C 0.71521 0.47101 0.35957 0.0
H1362 H 0.84587 0.50146 0.63976 0.0
H1363 H 0.82514 0.47415 0.71976 0.0
H1364 H 0.78569 0.44563 0.69786 0.0
H1365 H 0.77066 0.49658 0.60728 0.0
H1366 H 0.78307 0.4848 0.57468 0.0
H1367 H 0.80385 0.50941 0.59719 0.0
H1368 H 0.84428 0.47695 0.59582 0.0
H1369 H 0.8237 0.45219 0.57381 0.0
H1370 H 0.83901 0.44204 0.606 0.0
H1371 H 0.75925 0.41044 0.66725 0.0
H1372 H 0.74448 0.3749 0.6304 0.0
H1373 H 0.77986 0.42621 0.56989 0.0
C1374 C 0.83224 0.49043 0.65276 0.0
C1375 C 0.83856 0.48984 0.68135 0.0
C1376 C 0.82055 0.47501 0.69779 0.0
C1377 C 0.79804 0.45878 0.68552 0.0
C1378 C 0.79346 0.45825 0.65695 0.0
C1379 C 0.8096 0.47435 0.64081 0.0
C1380 C 0.8031 0.46711 0.61041 0.0
C1381 C 0.78934 0.49089 0.59658 0.0
C1382 C 0.82905 0.45908 0.5957 0.0
C1383 C 0.78286 0.44264 0.612 0.0
C1384 C 0.77704 0.43823 0.639 0.0
C1385 C 0.76269 0.41426 0.64598 0.0
C1386 C 0.7546 0.39408 0.62499 0.0
C1387 C 0.7608 0.39813 0.59739 0.0
C1388 C 0.77418 0.42309 0.59076 0.0
H1389 H 0.48991 0.07317 0.19398 0.0
H1390 H 0.43341 0.10177 0.25394 0.0
H1391 H 0.44395 0.14979 0.24205 0.0
H1392 H 0.54027 0.13516 0.201 0.0
H1393 H 0.54486 0.13306 0.16444 0.0
H1394 H 0.53766 0.10208 0.18208 0.0
H1395 H 0.49576 0.08948 0.14767 0.0
H1396 H 0.50243 0.12056 0.13027 0.0
H1397 H 0.46916 0.1136 0.14377 0.0
H1398 H 0.45483 0.19338 0.2184 0.0
H1399 H 0.46605 0.22905 0.186 0.0
H1400 H 0.51393 0.17123 0.14036 0.0
C1401 C 0.4805 0.08956 0.20543 0.0
C1402 C 0.46094 0.08368 0.22504 0.0
C1403 C 0.44864 0.10576 0.23902 0.0
C1404 C 0.4545 0.13312 0.23239 0.0
C1405 C 0.47279 0.138 0.21186 0.0
C1406 C 0.48586 0.11682 0.19883 0.0
C1407 C 0.50198 0.1269 0.17524 0.0
C1408 C 0.53304 0.12414 0.18105 0.0
C1409 C 0.4917 0.11174 0.14762 0.0
C1410 C 0.49496 0.15681 0.17621 0.0
C1411 C 0.47855 0.16298 0.19779 0.0
C1412 C 0.46806 0.1889 0.20174 0.0
C1413 C 0.47445 0.20899 0.18313 0.0
C1414 C 0.49087 0.20292 0.16062 0.0
C1415 C 0.50144 0.17655 0.15741 0.0
H1416 H 0.00752 0.82162 0.65834 0.0
H1417 H 0.97763 0.88382 0.60567 0.0
H1418 H 0.99624 0.92036 0.64006 0.0
H1419 H 0.00311 0.86186 0.728 0.0
H1420 H 0.03517 0.84874 0.74033 0.0
H1421 H 0.01198 0.82773 0.71657 0.0
H1422 H 0.05143 0.82187 0.68342 0.0
H1423 H 0.07455 0.84287 0.70682 0.0
H1424 H 0.06919 0.85215 0.67165 0.0
H1425 H 0.02558 0.94958 0.67463 0.0
H1426 H 0.06611 0.96868 0.70355 0.0
H1427 H 0.07963 0.88729 0.73188 0.0
C1428 C 0.00377 0.8429 0.65469 0.0
C1429 C 0.99087 0.85001 0.62966 0.0
C1430 C 0.98728 0.87804 0.62493 0.0
C1431 C 0.99759 0.89888 0.64444 0.0
C1432 C 0.01148 0.89127 0.66843 0.0
C1433 C 0.01456 0.86387 0.67362 0.0
C1434 C 0.03493 0.86103 0.69776 0.0
C1435 C 0.02042 0.84914 0.72211 0.0
C1436 C 0.05893 0.84348 0.68938 0.0
C1437 C 0.04434 0.89095 0.70406 0.0
C1438 C 0.02975 0.90818 0.68775 0.0
C1439 C 0.03672 0.93639 0.68794 0.0
C1440 C 0.0598 0.94706 0.7044 0.0
C1441 C 0.07596 0.92936 0.7198 0.0
C1442 C 0.06748 0.90124 0.72039 0.0
H1443 H 0.49107 0.81368 0.26612 0.0
H1444 H 0.43943 0.80419 0.33536 0.0
H1445 H 0.42221 0.85046 0.32882 0.0
H1446 H 0.51141 0.88337 0.28115 0.0
H1447 H 0.51104 0.89233 0.24569 0.0
H1448 H 0.51753 0.85768 0.25435 0.0
H1449 H 0.47694 0.83838 0.22079 0.0
H1450 H 0.47063 0.87294 0.21164 0.0
H1451 H 0.44325 0.85145 0.22417 0.0
H1452 H 0.41297 0.89949 0.31614 0.0
H1453 H 0.40986 0.94502 0.29622 0.0
H1454 H 0.46839 0.9216 0.2361 0.0
C1455 C 0.47576 0.82103 0.27966 0.0
C1456 C 0.46655 0.8052 0.30121 0.0
C1457 C 0.44666 0.81581 0.31856 0.0
C1458 C 0.43687 0.84215 0.3151 0.0
C1459 C 0.44711 0.85754 0.29417 0.0
C1460 C 0.46588 0.84717 0.27656 0.0
C1461 C 0.47431 0.86791 0.25613 0.0
C1462 C 0.50541 0.87578 0.25956 0.0
C1463 C 0.46576 0.85702 0.22643 0.0
C1464 C 0.45756 0.89175 0.2651 0.0
C1465 C 0.44198 0.88548 0.28706 0.0
C1466 C 0.42501 0.90454 0.29886 0.0
C1467 C 0.42351 0.93042 0.28752 0.0
C1468 C 0.43893 0.93698 0.26462 0.0
C1469 C 0.45637 0.91737 0.25363 0.0
H1470 H 0.87527 0.65406 0.02924 0.0
H1471 H 0.79652 0.68675 0.04647 0.0
H1472 H 0.8204 0.72532 0.07493 0.0
H1473 H 0.90473 0.66282 0.09149 0.0
H1474 H 0.93911 0.67346 0.08286 0.0
H1475 H 0.91689 0.65289 0.0582 0.0
H1476 H 0.92277 0.68974 0.02222 0.0
H1477 H 0.94553 0.71039 0.0467 0.0
H1478 H 0.91566 0.72503 0.0311 0.0
H1479 H 0.85097 0.75098 0.11127 0.0
H1480 H 0.88705 0.76631 0.14757 0.0
H1481 H 0.94658 0.72029 0.10391 0.0
C1482 C 0.8632 0.67005 0.03805 0.0
C1483 C 0.83418 0.66753 0.0358 0.0
C1484 C 0.81885 0.68852 0.04777 0.0
C1485 C 0.83223 0.71049 0.06399 0.0
C1486 C 0.86091 0.71155 0.0672 0.0
C1487 C 0.8763 0.69238 0.0538 0.0
C1488 C 0.90652 0.69627 0.06299 0.0
C1489 C 0.91741 0.6698 0.07458 0.0
C1490 C 0.92363 0.70595 0.03934 0.0
C1491 C 0.90537 0.71899 0.08533 0.0
C1492 C 0.87895 0.72779 0.08727 0.0
C1493 C 0.87196 0.7452 0.10928 0.0
C1494 C 0.89244 0.7536 0.12989 0.0
C1495 C 0.91952 0.74483 0.12805 0.0
C1496 C 0.92618 0.72798 0.10516 0.0
H1497 H 0.57808 0.24862 0.60553 0.0
H1498 H 0.52566 0.30091 0.55894 0.0
H1499 H 0.56371 0.3113 0.52889 0.0
H1500 H 0.63742 0.29063 0.60688 0.0
H1501 H 0.66057 0.26309 0.60345 0.0
H1502 H 0.62811 0.25702 0.61857 0.0
H1503 H 0.61569 0.2163 0.58249 0.0
H1504 H 0.64814 0.22248 0.56708 0.0
H1505 H 0.61632 0.2221 0.54625 0.0
H1506 H 0.60927 0.3208 0.50806 0.0
H1507 H 0.65845 0.32956 0.49945 0.0
H1508 H 0.68018 0.26942 0.55841 0.0
C1509 C 0.57443 0.26189 0.58873 0.0
C1510 C 0.54892 0.27397 0.5846 0.0
C1511 C 0.54503 0.29135 0.56246 0.0
C1512 C 0.56648 0.29727 0.54518 0.0
C1513 C 0.59152 0.28528 0.55004 0.0
C1514 C 0.59549 0.2678 0.57119 0.0
C1515 C 0.62492 0.25936 0.57358 0.0
C1516 C 0.63854 0.26806 0.60231 0.0
C1517 C 0.62634 0.22821 0.56694 0.0
C1518 C 0.63723 0.27584 0.55134 0.0
C1519 C 0.6176 0.29033 0.53765 0.0
C1520 C 0.62473 0.30911 0.51821 0.0
C1521 C 0.65273 0.31392 0.51341 0.0
C1522 C 0.67321 0.30008 0.52812 0.0
C1523 C 0.66508 0.28004 0.54646 0.0
H1524 H 0.23619 0.409 0.10626 0.0
H1525 H 0.25256 0.49448 0.08863 0.0
H1526 H 0.23688 0.50932 0.13419 0.0
H1527 H 0.17518 0.41769 0.13233 0.0
H1528 H 0.1773 0.39374 0.15923 0.0
H1529 H 0.19694 0.38894 0.12931 0.0
H1530 H 0.24212 0.38947 0.16002 0.0
H1531 H 0.22255 0.39365 0.19026 0.0
H1532 H 0.25079 0.41794 0.18488 0.0
H1533 H 0.21052 0.51523 0.17553 0.0
H1534 H 0.1778 0.51203 0.21217 0.0
H1535 H 0.17716 0.42266 0.20375 0.0
C1536 C 0.2379 0.43073 0.11273 0.0
C1537 C 0.24609 0.45064 0.09432 0.0
C1538 C 0.24678 0.47898 0.10274 0.0
C1539 C 0.23789 0.48756 0.12855 0.0
C1540 C 0.22834 0.46753 0.14565 0.0
C1541 C 0.22864 0.43963 0.13834 0.0
C1542 C 0.21348 0.42259 0.15858 0.0
C1543 C 0.1893 0.40471 0.14398 0.0
C1544 C 0.23343 0.40487 0.17438 0.0
C1545 C 0.20331 0.4453 0.1774 0.0
C1546 C 0.21257 0.47101 0.1698 0.0
C1547 C 0.20372 0.49523 0.18215 0.0
C1548 C 0.1849 0.49318 0.20276 0.0
C1549 C 0.17503 0.46709 0.21087 0.0
C1550 C 0.18473 0.44287 0.19829 0.0
H1551 H 0.27805 0.50253 0.82666 0.0
H1552 H 0.34197 0.44715 0.80643 0.0
H1553 H 0.33845 0.42715 0.85198 0.0
H1554 H 0.30126 0.51772 0.89558 0.0
H1555 H 0.26722 0.51953 0.90816 0.0
H1556 H 0.27314 0.52754 0.87323 0.0
H1557 H 0.23518 0.49057 0.85477 0.0
H1558 H 0.22873 0.48283 0.88967 0.0
H1559 H 0.2369 0.45568 0.86522 0.0
H1560 H 0.32845 0.41466 0.90147 0.0
H1561 H 0.3115 0.4096 0.94819 0.0
H1562 H 0.25645 0.4755 0.93487 0.0
C1563 C 0.29105 0.48585 0.83144 0.0
C1564 C 0.31019 0.47631 0.81283 0.0
C1565 C 0.32697 0.45465 0.82024 0.0
C1566 C 0.32522 0.44328 0.84613 0.0
C1567 C 0.30669 0.45391 0.86432 0.0
C1568 C 0.28981 0.47461 0.85709 0.0
C1569 C 0.27229 0.48337 0.88034 0.0
C1570 C 0.27889 0.51384 0.88988 0.0
C1571 C 0.24145 0.47776 0.872 0.0
C1572 C 0.28187 0.46441 0.90195 0.0
C1573 C 0.30164 0.44745 0.89249 0.0
C1574 C 0.313 0.4279 0.90902 0.0
C1575 C 0.30337 0.42528 0.93558 0.0
C1576 C 0.28274 0.44224 0.94532 0.0
C1577 C 0.27238 0.46232 0.92828 0.0
H1578 H 0.32305 0.59823 0.56053 0.0
H1579 H 0.23445 0.60522 0.55901 0.0
H1580 H 0.23111 0.57183 0.59502 0.0
H1581 H 0.32288 0.52343 0.57679 0.0
H1582 H 0.35342 0.52926 0.59949 0.0
H1583 H 0.3486 0.54995 0.57017 0.0
H1584 H 0.35455 0.59446 0.60234 0.0
H1585 H 0.3596 0.57395 0.63158 0.0
H1586 H 0.33292 0.59826 0.63108 0.0
H1587 H 0.23762 0.54388 0.63521 0.0
H1588 H 0.25408 0.52497 0.67874 0.0
H1589 H 0.33831 0.53457 0.65465 0.0
C1590 C 0.3029 0.59217 0.56731 0.0
C1591 C 0.279 0.60424 0.5569 0.0
C1592 C 0.25305 0.59628 0.56671 0.0
C1593 C 0.2509 0.57712 0.58699 0.0
C1594 C 0.27485 0.56594 0.59722 0.0
C1595 C 0.30039 0.57313 0.58777 0.0
C1596 C 0.3232 0.56059 0.60455 0.0
C1597 C 0.33789 0.53955 0.58668 0.0
C1598 C 0.34376 0.58316 0.6182 0.0
C1599 C 0.30656 0.54641 0.6257 0.0
C1600 C 0.27865 0.54929 0.62068 0.0
C1601 C 0.25933 0.54082 0.63902 0.0
C1602 C 0.26883 0.53009 0.66366 0.0
C1603 C 0.29734 0.52783 0.66965 0.0
C1604 C 0.31634 0.53515 0.65001 0.0
H1605 H 0.14642 0.52852 0.37808 0.0
H1606 H 0.18507 0.54091 0.30111 0.0
H1607 H 0.22091 0.57218 0.32575 0.0
H1608 H 0.15324 0.59414 0.40427 0.0
H1609 H 0.1612 0.5871 0.43971 0.0
H1610 H 0.14167 0.56175 0.41726 0.0
H1611 H 0.17727 0.52549 0.42791 0.0
H1612 H 0.19684 0.5507 0.45078 0.0
H1613 H 0.21323 0.53329 0.42294 0.0
H1614 H 0.24541 0.60962 0.35628 0.0
H1615 H 0.26094 0.646 0.39233 0.0
H1616 H 0.2094 0.60643 0.45019 0.0
C1617 C 0.16296 0.53712 0.36661 0.0
C1618 C 0.16298 0.5324 0.33776 0.0
C1619 C 0.18478 0.54412 0.3233 0.0
C1620 C 0.20524 0.56193 0.3371 0.0
C1621 C 0.20397 0.56713 0.36542 0.0
C1622 C 0.18384 0.55448 0.38017 0.0
C1623 C 0.18584 0.56516 0.41005 0.0
C1624 C 0.1589 0.57779 0.41827 0.0
C1625 C 0.19378 0.54229 0.42904 0.0
C1626 C 0.20909 0.58698 0.40937 0.0
C1627 C 0.21939 0.58775 0.38348 0.0
C1628 C 0.23828 0.60864 0.3769 0.0
C1629 C 0.24681 0.62928 0.39734 0.0
C1630 C 0.23669 0.62852 0.42398 0.0
C1631 C 0.21805 0.60686 0.43016 0.0
loop_
_geom_bond_atom_site_label_1
_geom_bond_atom_site_label_2
_geom_bond_distance
_geom_bond_site_symmetry_2
_ccdc_geom_bond_type
Zn0 O3 2.031 . S
Zn0 O5 2.049 1_655 S
Zn0 O10 2.067 . S
Zn1 O2 1.962 1_455 S
Zn1 O4 1.986 . S
Zn1 O6 1.996 . S
Zn1 O9 1.943 1_455 S
O2 Zn1 1.962 1_655 S
O2 C7 1.254 . S
O3 Zn0 2.031 . S
O3 C7 1.269 . S
O4 Zn1 1.986 . S
O4 C11 1.262 . S
O5 Zn0 2.049 1_455 S
O5 C13 1.260 . S
O6 Zn1 1.996 . S
O6 C13 1.257 . S
C7 O2 1.254 . S
C7 O3 1.269 . S
C8 O9 1.249 . S
C8 O10 1.270 . S
O9 Zn1 1.943 1_655 S
O9 C8 1.249 . S
O10 Zn0 2.067 . S
O10 C8 1.270 . S
C11 O4 1.262 . S
C11 O12 1.236 . S
O12 C11 1.236 . S
C13 O5 1.260 . S
C13 O6 1.257 . S
Zn14 O17 2.031 1_455 S
Zn14 O19 2.049 . S
Zn14 O24 2.067 . S
Zn15 O16 1.962 1_455 S
Zn15 O18 1.986 . S
Zn15 O20 1.996 . S
Zn15 O23 1.943 . S
O16 Zn15 1.962 1_655 S
O16 C21 1.254 . S
O17 Zn14 2.031 1_655 S
O17 C21 1.269 . S
O18 Zn15 1.986 . S
O18 C25 1.262 1_455 S
O19 Zn14 2.049 . S
O19 C27 1.260 . S
O20 Zn15 1.996 . S
O20 C27 1.257 . S
C21 O16 1.254 . S
C21 O17 1.269 . S
C22 O23 1.249 . S
C22 O24 1.270 . S
O23 Zn15 1.943 . S
O23 C22 1.249 . S
O24 Zn14 2.067 . S
O24 C22 1.270 . S
C25 O18 1.262 1_655 S
C25 O26 1.232 . S
O26 C25 1.232 . S
C27 O19 1.260 . S
C27 O20 1.257 . S
Zn28 O31 2.031 . S
Zn28 O33 2.049 . S
Zn28 O38 2.067 . S
Zn29 O30 1.962 . S
Zn29 O32 1.986 . S
Zn29 O34 1.996 . S
Zn29 O37 1.943 . S
O30 Zn29 1.962 . S
O30 C35 1.254 . S
O31 Zn28 2.031 . S
O31 C35 1.269 . S
O32 Zn29 1.986 . S
O32 C39 1.262 . S
O33 Zn28 2.049 . S
O33 C41 1.260 . S
O34 Zn29 1.996 . S
O34 C41 1.257 . S
C35 O30 1.254 . S
C35 O31 1.269 . S
C36 O37 1.249 . S
C36 O38 1.270 . S
O37 Zn29 1.943 . S
O37 C36 1.249 . S
O38 Zn28 2.067 . S
O38 C36 1.270 . S
C39 O32 1.262 . S
C39 O40 1.232 . S
O40 C39 1.232 . S
C41 O33 1.260 . S
C41 O34 1.257 . S
Zn42 O45 2.031 . S
Zn42 O47 2.049 . S
Zn42 O52 2.067 . S
Zn43 O44 1.962 . S
Zn43 O46 1.986 . S
Zn43 O48 1.996 . S
Zn43 O51 1.943 . S
O44 Zn43 1.962 . S
O44 C49 1.254 . S
O45 Zn42 2.031 . S
O45 C49 1.269 . S
O46 Zn43 1.986 . S
O46 C53 1.262 . S
O47 Zn42 2.049 . S
O47 C55 1.260 . S
O48 Zn43 1.996 . S
O48 C55 1.257 . S
C49 O44 1.254 . S
C49 O45 1.269 . S
C50 O51 1.249 . S
C50 O52 1.270 . S
O51 Zn43 1.943 . S
O51 C50 1.249 . S
O52 Zn42 2.067 . S
O52 C50 1.270 . S
C53 O46 1.262 . S
C53 O54 1.232 . S
O54 C53 1.232 . S
C55 O47 1.260 . S
C55 O48 1.257 . S
Zn56 O59 2.031 . S
Zn56 O61 2.049 . S
Zn56 O66 2.067 . S
Zn57 O58 1.962 . S
Zn57 O60 1.986 . S
Zn57 O62 1.996 . S
Zn57 O65 1.943 1_455 S
O58 Zn57 1.962 . S
O58 C63 1.254 1_455 S
O59 Zn56 2.031 . S
O59 C63 1.269 . S
O60 Zn57 1.986 . S
O60 C67 1.262 . S
O61 Zn56 2.049 . S
O61 C69 1.260 1_655 S
O62 Zn57 1.996 . S
O62 C69 1.257 . S
C63 O58 1.254 1_655 S
C63 O59 1.269 . S
C64 O65 1.249 . S
C64 O66 1.270 . S
O65 Zn57 1.943 1_655 S
O65 C64 1.249 . S
O66 Zn56 2.067 . S
O66 C64 1.270 . S
C67 O60 1.262 . S
C67 O68 1.232 . S
O68 C67 1.232 . S
C69 O61 1.260 1_455 S
C69 O62 1.257 . S
Zn70 O73 2.031 . S
Zn70 O75 2.049 . S
Zn70 O80 2.067 . S
Zn71 O72 1.962 . S
Zn71 O74 1.986 . S
Zn71 O76 1.996 . S
Zn71 O79 1.943 . S
O72 Zn71 1.962 . S
O72 C77 1.254 . S
O73 Zn70 2.031 . S
O73 C77 1.269 . S
O74 Zn71 1.986 . S
O74 C81 1.262 . S
O75 Zn70 2.049 . S
O75 C83 1.260 . S
O76 Zn71 1.996 . S
O76 C83 1.257 . S
C77 O72 1.254 . S
C77 O73 1.269 . S
C78 O79 1.249 . S
C78 O80 1.270 . S
O79 Zn71 1.943 . S
O79 C78 1.249 . S
O80 Zn70 2.067 . S
O80 C78 1.270 . S
C81 O74 1.262 . S
C81 O82 1.232 . S
O82 C81 1.232 . S
C83 O75 1.260 . S
C83 O76 1.257 . S
Zn84 O87 2.031 . S
Zn84 O89 2.049 . S
Zn84 O94 2.067 . S
Zn85 O86 1.962 . S
Zn85 O88 1.986 . S
Zn85 O90 1.996 . S
Zn85 O93 1.943 . S
O86 Zn85 1.962 . S
O86 C91 1.254 . S
O87 Zn84 2.031 . S
O87 C91 1.269 . S
O88 Zn85 1.986 . S
O88 C95 1.262 . S
O89 Zn84 2.049 . S
O89 C97 1.260 . S
O90 Zn85 1.996 . S
O90 C97 1.257 . S
C91 O86 1.254 . S
C91 O87 1.269 . S
C92 O93 1.249 . S
C92 O94 1.270 . S
O93 Zn85 1.943 . S
O93 C92 1.249 . S
O94 Zn84 2.067 . S
O94 C92 1.270 . S
C95 O88 1.262 . S
C95 O96 1.232 . S
O96 C95 1.232 . S
C97 O89 1.260 . S
C97 O90 1.257 . S
Zn98 O101 2.031 . S
Zn98 O103 2.049 . S
Zn98 O108 2.067 . S
Zn99 O100 1.962 . S
Zn99 O102 1.986 . S
Zn99 O104 1.996 1_655 S
Zn99 O107 1.943 1_655 S
O100 Zn99 1.962 . S
O100 C105 1.254 . S
O101 Zn98 2.031 . S
O101 C105 1.269 1_455 S
O102 Zn99 1.986 . S
O102 C109 1.262 . S
O103 Zn98 2.049 . S
O103 C111 1.260 . S
O104 Zn99 1.996 1_455 S
O104 C111 1.257 . S
C105 O100 1.254 . S
C105 O101 1.269 1_655 S
C106 O107 1.249 . S
C106 O108 1.270 . S
O107 Zn99 1.943 1_455 S
O107 C106 1.249 . S
O108 Zn98 2.067 . S
O108 C106 1.270 . S
C109 O102 1.262 . S
C109 O110 1.232 . S
O110 C109 1.232 . S
C111 O103 1.260 . S
C111 O104 1.257 . S
Zn112 O115 2.031 . S
Zn112 O117 2.049 1_565 S
Zn112 O122 2.067 . S
Zn113 O114 1.962 1_545 S
Zn113 O116 1.986 . S
Zn113 O118 1.996 . S
Zn113 O121 1.943 1_545 S
O114 Zn113 1.962 1_565 S
O114 C119 1.254 . S
O115 Zn112 2.031 . S
O115 C119 1.269 . S
O116 Zn113 1.986 . S
O116 C123 1.262 . S
O117 Zn112 2.049 1_545 S
O117 C125 1.260 . S
O118 Zn113 1.996 . S
O118 C125 1.257 . S
C119 O114 1.254 . S
C119 O115 1.269 . S
C120 O121 1.249 . S
C120 O122 1.270 . S
O121 Zn113 1.943 1_565 S
O121 C120 1.249 . S
O122 Zn112 2.067 . S
O122 C120 1.270 . S
C123 O116 1.262 . S
C123 O124 1.236 . S
O124 C123 1.236 . S
C125 O117 1.260 . S
C125 O118 1.257 . S
Zn126 O129 2.031 . S
Zn126 O131 2.049 . S
Zn126 O136 2.067 . S
Zn127 O128 1.962 . S
Zn127 O130 1.986 . S
Zn127 O132 1.996 . S
Zn127 O135 1.943 . S
O128 Zn127 1.962 . S
O128 C133 1.254 . S
O129 Zn126 2.031 . S
O129 C133 1.269 . S
O130 Zn127 1.986 . S
O130 C137 1.262 . S
O131 Zn126 2.049 . S
O131 C139 1.260 . S
O132 Zn127 1.996 . S
O132 C139 1.257 . S
C133 O128 1.254 . S
C133 O129 1.269 . S
C134 O135 1.249 . S
C134 O136 1.270 . S
O135 Zn127 1.943 . S
O135 C134 1.249 . S
O136 Zn126 2.067 . S
O136 C134 1.270 . S
C137 O130 1.262 . S
C137 O138 1.232 . S
O138 C137 1.232 . S
C139 O131 1.260 . S
C139 O132 1.257 . S
Zn140 O143 2.031 . S
Zn140 O145 2.049 . S
Zn140 O150 2.067 . S
Zn141 O142 1.962 . S
Zn141 O144 1.986 . S
Zn141 O146 1.996 . S
Zn141 O149 1.943 1_545 S
O142 Zn141 1.962 . S
O142 C147 1.254 1_545 S
O143 Zn140 2.031 . S
O143 C147 1.269 . S
O144 Zn141 1.986 . S
O144 C151 1.262 . S
O145 Zn140 2.049 . S
O145 C153 1.260 1_565 S
O146 Zn141 1.996 . S
O146 C153 1.257 . S
C147 O142 1.254 1_565 S
C147 O143 1.269 . S
C148 O149 1.249 . S
C148 O150 1.270 . S
O149 Zn141 1.943 1_565 S
O149 C148 1.249 . S
O150 Zn140 2.067 . S
O150 C148 1.270 . S
C151 O144 1.262 . S
C151 O152 1.232 . S
O152 C151 1.232 . S
C153 O145 1.260 1_545 S
C153 O146 1.257 . S
Zn154 O157 2.031 . S
Zn154 O159 2.049 . S
Zn154 O164 2.067 . S
Zn155 O156 1.962 . S
Zn155 O158 1.986 . S
Zn155 O160 1.996 1_556 S
Zn155 O163 1.943 1_556 S
O156 Zn155 1.962 . S
O156 C161 1.254 . S
O157 Zn154 2.031 . S
O157 C161 1.269 1_554 S
O158 Zn155 1.986 . S
O158 C165 1.262 . S
O159 Zn154 2.049 . S
O159 C167 1.260 . S
O160 Zn155 1.996 1_554 S
O160 C167 1.257 . S
C161 O156 1.254 . S
C161 O157 1.269 1_556 S
C162 O163 1.249 . S
C162 O164 1.270 . S
O163 Zn155 1.943 1_554 S
O163 C162 1.249 . S
O164 Zn154 2.067 . S
O164 C162 1.270 . S
C165 O158 1.262 . S
C165 O166 1.232 . S
O166 C165 1.232 . S
C167 O159 1.260 . S
C167 O160 1.257 . S
Zn168 O171 2.031 . S
Zn168 O173 2.049 1_556 S
Zn168 O178 2.067 . S
Zn169 O170 1.962 1_554 S
Zn169 O172 1.986 . S
Zn169 O174 1.996 . S
Zn169 O177 1.943 1_554 S
O170 Zn169 1.962 1_556 S
O170 C175 1.254 . S
O171 Zn168 2.031 . S
O171 C175 1.269 . S
O172 Zn169 1.986 . S
O172 C179 1.262 . S
O173 Zn168 2.049 1_554 S
O173 C181 1.260 . S
O174 Zn169 1.996 . S
O174 C181 1.257 . S
C175 O170 1.254 . S
C175 O171 1.269 . S
C176 O177 1.249 . S
C176 O178 1.270 . S
O177 Zn169 1.943 1_556 S
O177 C176 1.249 . S
O178 Zn168 2.067 . S
O178 C176 1.270 . S
C179 O172 1.262 . S
C179 O180 1.236 . S
O180 C179 1.236 . S
C181 O173 1.260 . S
C181 O174 1.257 . S
Zn182 O185 2.031 . S
Zn182 O187 2.049 . S
Zn182 O192 2.067 . S
Zn183 O184 1.962 . S
Zn183 O186 1.986 . S
Zn183 O188 1.996 . S
Zn183 O191 1.943 1_554 S
O184 Zn183 1.962 . S
O184 C189 1.254 1_554 S
O185 Zn182 2.031 . S
O185 C189 1.269 . S
O186 Zn183 1.986 . S
O186 C193 1.262 . S
O187 Zn182 2.049 . S
O187 C195 1.260 1_556 S
O188 Zn183 1.996 . S
O188 C195 1.257 . S
C189 O184 1.254 1_556 S
C189 O185 1.269 . S
C190 O191 1.249 . S
C190 O192 1.270 . S
O191 Zn183 1.943 1_556 S
O191 C190 1.249 . S
O192 Zn182 2.067 . S
O192 C190 1.270 . S
C193 O186 1.262 . S
C193 O194 1.232 . S
O194 C193 1.232 . S
C195 O187 1.260 1_554 S
C195 O188 1.257 . S
Zn196 O199 2.031 . S
Zn196 O201 2.049 . S
Zn196 O206 2.067 . S
Zn197 O198 1.962 . S
Zn197 O200 1.986 . S
Zn197 O202 1.996 . S
Zn197 O205 1.943 . S
O198 Zn197 1.962 . S
O198 C203 1.254 . S
O199 Zn196 2.031 . S
O199 C203 1.269 . S
O200 Zn197 1.986 . S
O200 C207 1.262 . S
O201 Zn196 2.049 . S
O201 C209 1.260 . S
O202 Zn197 1.996 . S
O202 C209 1.257 . S
C203 O198 1.254 . S
C203 O199 1.269 . S
C204 O205 1.249 . S
C204 O206 1.270 . S
O205 Zn197 1.943 . S
O205 C204 1.249 . S
O206 Zn196 2.067 . S
O206 C204 1.270 . S
C207 O200 1.262 . S
C207 O208 1.232 . S
O208 C207 1.232 . S
C209 O201 1.260 . S
C209 O202 1.257 . S
Zn210 O213 2.031 . S
Zn210 O215 2.049 . S
Zn210 O220 2.067 . S
Zn211 O212 1.962 . S
Zn211 O214 1.986 . S
Zn211 O216 1.996 . S
Zn211 O219 1.943 . S
O212 Zn211 1.962 . S
O212 C217 1.254 . S
O213 Zn210 2.031 . S
O213 C217 1.269 . S
O214 Zn211 1.986 . S
O214 C221 1.262 . S
O215 Zn210 2.049 . S
O215 C223 1.260 . S
O216 Zn211 1.996 . S
O216 C223 1.257 . S
C217 O212 1.254 . S
C217 O213 1.269 . S
C218 O219 1.249 . S
C218 O220 1.270 . S
O219 Zn211 1.943 . S
O219 C218 1.249 . S
O220 Zn210 2.067 . S
O220 C218 1.270 . S
C221 O214 1.262 . S
C221 O222 1.232 . S
O222 C221 1.232 . S
C223 O215 1.260 . S
C223 O216 1.257 . S
Zn224 O227 2.031 . S
Zn224 O229 2.049 . S
Zn224 O234 2.067 . S
Zn225 O226 1.962 . S
Zn225 O228 1.986 . S
Zn225 O230 1.996 1_565 S
Zn225 O233 1.943 1_565 S
O226 Zn225 1.962 . S
O226 C231 1.254 . S
O227 Zn224 2.031 . S
O227 C231 1.269 1_545 S
O228 Zn225 1.986 . S
O228 C235 1.262 . S
O229 Zn224 2.049 . S
O229 C237 1.260 . S
O230 Zn225 1.996 1_545 S
O230 C237 1.257 . S
C231 O226 1.254 . S
C231 O227 1.269 1_565 S
C232 O233 1.249 . S
C232 O234 1.270 . S
O233 Zn225 1.943 1_545 S
O233 C232 1.249 . S
O234 Zn224 2.067 . S
O234 C232 1.270 . S
C235 O228 1.262 . S
C235 O236 1.232 . S
O236 C235 1.232 . S
C237 O229 1.260 . S
C237 O230 1.257 . S
Zn238 O241 2.031 . S
Zn238 O243 2.049 . S
Zn238 O248 2.067 . S
Zn239 O240 1.962 . S
Zn239 O242 1.986 . S
Zn239 O244 1.996 . S
Zn239 O247 1.943 . S
O240 Zn239 1.962 . S
O240 C245 1.254 . S
O241 Zn238 2.031 . S
O241 C245 1.269 . S
O242 Zn239 1.986 . S
O242 C249 1.262 . S
O243 Zn238 2.049 . S
O243 C251 1.260 . S
O244 Zn239 1.996 . S
O244 C251 1.257 . S
C245 O240 1.254 . S
C245 O241 1.269 . S
C246 O247 1.249 . S
C246 O248 1.270 . S
O247 Zn239 1.943 . S
O247 C246 1.249 . S
O248 Zn238 2.067 . S
O248 C246 1.270 . S
C249 O242 1.262 . S
C249 O250 1.232 . S
O250 C249 1.232 . S
C251 O243 1.260 . S
C251 O244 1.257 . S
Zn252 O255 2.031 . S
Zn252 O257 2.049 . S
Zn252 O262 2.067 . S
Zn253 O254 1.962 . S
Zn253 O256 1.986 . S
Zn253 O258 1.996 . S
Zn253 O261 1.943 . S
O254 Zn253 1.962 . S
O254 C259 1.254 . S
O255 Zn252 2.031 . S
O255 C259 1.269 . S
O256 Zn253 1.986 . S
O256 C263 1.262 . S
O257 Zn252 2.049 . S
O257 C265 1.260 . S
O258 Zn253 1.996 . S
O258 C265 1.257 . S
C259 O254 1.254 . S
C259 O255 1.269 . S
C260 O261 1.249 . S
C260 O262 1.270 . S
O261 Zn253 1.943 . S
O261 C260 1.249 . S
O262 Zn252 2.067 . S
O262 C260 1.270 . S
C263 O256 1.262 . S
C263 O264 1.232 . S
O264 C263 1.232 . S
C265 O257 1.260 . S
C265 O258 1.257 . S
Zn266 O269 2.031 1_545 S
Zn266 O271 2.049 . S
Zn266 O276 2.067 . S
Zn267 O268 1.962 1_545 S
Zn267 O270 1.986 . S
Zn267 O272 1.996 . S
Zn267 O275 1.943 . S
O268 Zn267 1.962 1_565 S
O268 C273 1.254 . S
O269 Zn266 2.031 1_565 S
O269 C273 1.269 . S
O270 Zn267 1.986 . S
O270 C277 1.262 1_545 S
O271 Zn266 2.049 . S
O271 C279 1.260 . S
O272 Zn267 1.996 . S
O272 C279 1.257 . S
C273 O268 1.254 . S
C273 O269 1.269 . S
C274 O275 1.249 . S
C274 O276 1.270 . S
O275 Zn267 1.943 . S
O275 C274 1.249 . S
O276 Zn266 2.067 . S
O276 C274 1.270 . S
C277 O270 1.262 1_565 S
C277 O278 1.232 . S
O278 C277 1.232 . S
C279 O271 1.260 . S
C279 O272 1.257 . S
Zn280 O283 2.031 1_554 S
Zn280 O285 2.049 . S
Zn280 O290 2.067 . S
Zn281 O282 1.962 1_554 S
Zn281 O284 1.986 . S
Zn281 O286 1.996 . S
Zn281 O289 1.943 . S
O282 Zn281 1.962 1_556 S
O282 C287 1.254 . S
O283 Zn280 2.031 1_556 S
O283 C287 1.269 . S
O284 Zn281 1.986 . S
O284 C291 1.262 1_554 S
O285 Zn280 2.049 . S
O285 C293 1.260 . S
O286 Zn281 1.996 . S
O286 C293 1.257 . S
C287 O282 1.254 . S
C287 O283 1.269 . S
C288 O289 1.249 . S
C288 O290 1.270 . S
O289 Zn281 1.943 . S
O289 C288 1.249 . S
O290 Zn280 2.067 . S
O290 C288 1.270 . S
C291 O284 1.262 1_556 S
C291 O292 1.232 . S
O292 C291 1.232 . S
C293 O285 1.260 . S
C293 O286 1.257 . S
Zn294 O297 2.031 . S
Zn294 O299 2.049 . S
Zn294 O304 2.067 . S
Zn295 O296 1.962 . S
Zn295 O298 1.986 . S
Zn295 O300 1.996 . S
Zn295 O303 1.943 . S
O296 Zn295 1.962 . S
O296 C301 1.254 . S
O297 Zn294 2.031 . S
O297 C301 1.269 . S
O298 Zn295 1.986 . S
O298 C305 1.262 . S
O299 Zn294 2.049 . S
O299 C307 1.260 . S
O300 Zn295 1.996 . S
O300 C307 1.257 . S
C301 O296 1.254 . S
C301 O297 1.269 . S
C302 O303 1.249 . S
C302 O304 1.270 . S
O303 Zn295 1.943 . S
O303 C302 1.249 . S
O304 Zn294 2.067 . S
O304 C302 1.270 . S
C305 O298 1.262 . S
C305 O306 1.232 . S
O306 C305 1.232 . S
C307 O299 1.260 . S
C307 O300 1.257 . S
Zn308 O311 2.031 . S
Zn308 O313 2.049 . S
Zn308 O318 2.067 . S
Zn309 O310 1.962 . S
Zn309 O312 1.986 . S
Zn309 O314 1.996 . S
Zn309 O317 1.943 . S
O310 Zn309 1.962 . S
O310 C315 1.254 . S
O311 Zn308 2.031 . S
O311 C315 1.269 . S
O312 Zn309 1.986 . S
O312 C319 1.262 . S
O313 Zn308 2.049 . S
O313 C321 1.260 . S
O314 Zn309 1.996 . S
O314 C321 1.257 . S
C315 O310 1.254 . S
C315 O311 1.269 . S
C316 O317 1.249 . S
C316 O318 1.270 . S
O317 Zn309 1.943 . S
O317 C316 1.249 . S
O318 Zn308 2.067 . S
O318 C316 1.270 . S
C319 O312 1.262 . S
C319 O320 1.232 . S
O320 C319 1.232 . S
C321 O313 1.260 . S
C321 O314 1.257 . S
Zn322 O325 2.031 . S
Zn322 O327 2.049 . S
Zn322 O332 2.067 . S
Zn323 O324 1.962 . S
Zn323 O326 1.986 . S
Zn323 O328 1.996 . S
Zn323 O331 1.943 . S
O324 Zn323 1.962 . S
O324 C329 1.254 . S
O325 Zn322 2.031 . S
O325 C329 1.269 . S
O326 Zn323 1.986 . S
O326 C333 1.262 . S
O327 Zn322 2.049 . S
O327 C335 1.260 . S
O328 Zn323 1.996 . S
O328 C335 1.257 . S
C329 O324 1.254 . S
C329 O325 1.269 . S
C330 O331 1.249 . S
C330 O332 1.270 . S
O331 Zn323 1.943 . S
O331 C330 1.249 . S
O332 Zn322 2.067 . S
O332 C330 1.270 . S
C333 O326 1.262 . S
C333 O334 1.232 . S
O334 C333 1.232 . S
C335 O327 1.260 . S
C335 O328 1.257 . S
H336 C348 0.930 . S
H337 C350 0.930 . S
H338 C351 0.930 . S
H339 C355 0.959 . S
H340 C355 0.959 . S
H341 C355 0.961 . S
H342 C356 0.960 . S
H343 C356 0.961 . S
H344 C356 0.959 . S
H345 C359 0.929 . S
H346 C360 0.931 . S
H347 C362 0.930 . S
C348 H336 0.930 . S
C348 C349 1.399 . S
C348 C353 1.399 . S
C349 C348 1.399 . S
C349 C350 1.376 . S
C350 H337 0.930 . S
C350 C349 1.376 . S
C350 C351 1.388 . S
C351 H338 0.930 . S
C351 C350 1.388 . S
C351 C352 1.390 . S
C352 C351 1.390 . S
C352 C353 1.394 . S
C352 C358 1.465 . S
C353 C348 1.399 . S
C353 C352 1.394 . S
C353 C354 1.516 . S
C354 C353 1.516 . S
C354 C355 1.502 . S
C354 C356 1.561 . S
C354 C357 1.526 . S
C355 H339 0.959 . S
C355 H340 0.959 . S
C355 H341 0.961 . S
C355 C354 1.502 . S
C356 H342 0.960 . S
C356 H343 0.961 . S
C356 H344 0.959 . S
C356 C354 1.561 . S
C357 C354 1.526 . S
C357 C358 1.396 . S
C357 C362 1.390 . S
C358 C352 1.465 . S
C358 C357 1.396 . S
C358 C359 1.399 . S
C359 H345 0.929 . S
C359 C358 1.399 . S
C359 C360 1.385 . S
C360 H346 0.931 . S
C360 C359 1.385 . S
C360 C361 1.389 . S
C361 C360 1.389 . S
C361 C362 1.387 . S
C362 H347 0.930 . S
C362 C357 1.390 . S
C362 C361 1.387 . S
H363 C375 0.930 . S
H364 C377 0.930 . S
H365 C378 0.930 . S
H366 C382 0.959 . S
H367 C382 0.959 . S
H368 C382 0.961 . S
H369 C383 0.960 . S
H370 C383 0.961 . S
H371 C383 0.959 . S
H372 C386 0.929 . S
H373 C387 0.931 . S
H374 C389 0.930 . S
C375 H363 0.930 . S
C375 C376 1.399 . S
C375 C380 1.399 . S
C376 C375 1.399 . S
C376 C377 1.376 . S
C377 H364 0.930 . S
C377 C376 1.376 . S
C377 C378 1.388 . S
C378 H365 0.930 . S
C378 C377 1.388 . S
C378 C379 1.390 . S
C379 C378 1.390 . S
C379 C380 1.394 . S
C379 C385 1.465 . S
C380 C375 1.399 . S
C380 C379 1.394 . S
C380 C381 1.516 . S
C381 C380 1.516 . S
C381 C382 1.502 . S
C381 C383 1.561 . S
C381 C384 1.526 . S
C382 H366 0.959 . S
C382 H367 0.959 . S
C382 H368 0.961 . S
C382 C381 1.502 . S
C383 H369 0.960 . S
C383 H370 0.961 . S
C383 H371 0.959 . S
C383 C381 1.561 . S
C384 C381 1.526 . S
C384 C385 1.396 . S
C384 C389 1.390 . S
C385 C379 1.465 . S
C385 C384 1.396 . S
C385 C386 1.399 . S
C386 H372 0.929 . S
C386 C385 1.399 . S
C386 C387 1.385 . S
C387 H373 0.931 . S
C387 C386 1.385 . S
C387 C388 1.389 . S
C388 C387 1.389 . S
C388 C389 1.387 . S
C389 H374 0.930 . S
C389 C384 1.390 . S
C389 C388 1.387 . S
H390 C402 0.930 . S
H391 C404 0.930 . S
H392 C405 0.930 . S
H393 C409 0.959 . S
H394 C409 0.959 . S
H395 C409 0.961 . S
H396 C410 0.960 . S
H397 C410 0.961 . S
H398 C410 0.959 . S
H399 C413 0.929 . S
H400 C414 0.931 . S
H401 C416 0.930 . S
C402 H390 0.930 . S
C402 C403 1.399 . S
C402 C407 1.399 . S
C403 C402 1.399 . S
C403 C404 1.376 . S
C404 H391 0.930 . S
C404 C403 1.376 . S
C404 C405 1.388 . S
C405 H392 0.930 . S
C405 C404 1.388 . S
C405 C406 1.390 . S
C406 C405 1.390 . S
C406 C407 1.394 . S
C406 C412 1.465 . S
C407 C402 1.399 . S
C407 C406 1.394 . S
C407 C408 1.516 . S
C408 C407 1.516 . S
C408 C409 1.502 . S
C408 C410 1.561 . S
C408 C411 1.526 . S
C409 H393 0.959 . S
C409 H394 0.959 . S
C409 H395 0.961 . S
C409 C408 1.502 . S
C410 H396 0.960 . S
C410 H397 0.961 . S
C410 H398 0.959 . S
C410 C408 1.561 . S
C411 C408 1.526 . S
C411 C412 1.396 . S
C411 C416 1.390 . S
C412 C406 1.465 . S
C412 C411 1.396 . S
C412 C413 1.399 . S
C413 H399 0.929 . S
C413 C412 1.399 . S
C413 C414 1.385 . S
C414 H400 0.931 . S
C414 C413 1.385 . S
C414 C415 1.389 . S
C415 C414 1.389 . S
C415 C416 1.387 . S
C416 H401 0.930 . S
C416 C411 1.390 . S
C416 C415 1.387 . S
H417 C429 0.930 . S
H418 C431 0.930 . S
H419 C432 0.930 . S
H420 C436 0.959 . S
H421 C436 0.959 . S
H422 C436 0.961 . S
H423 C437 0.960 . S
H424 C437 0.961 . S
H425 C437 0.959 . S
H426 C440 0.929 . S
H427 C441 0.931 1_556 S
H428 C443 0.930 . S
C429 H417 0.930 . S
C429 C430 1.399 . S
C429 C434 1.399 . S
C430 C429 1.399 . S
C430 C431 1.376 . S
C431 H418 0.930 . S
C431 C430 1.376 . S
C431 C432 1.388 . S
C432 H419 0.930 . S
C432 C431 1.388 . S
C432 C433 1.390 . S
C433 C432 1.390 . S
C433 C434 1.394 . S
C433 C439 1.465 . S
C434 C429 1.399 . S
C434 C433 1.394 . S
C434 C435 1.516 . S
C435 C434 1.516 . S
C435 C436 1.502 . S
C435 C437 1.561 . S
C435 C438 1.526 . S
C436 H420 0.959 . S
C436 H421 0.959 . S
C436 H422 0.961 . S
C436 C435 1.502 . S
C437 H423 0.960 . S
C437 H424 0.961 . S
C437 H425 0.959 . S
C437 C435 1.561 . S
C438 C435 1.526 . S
C438 C439 1.396 . S
C438 C443 1.390 . S
C439 C433 1.465 . S
C439 C438 1.396 . S
C439 C440 1.399 . S
C440 H426 0.929 . S
C440 C439 1.399 . S
C440 C441 1.385 . S
C441 H427 0.931 1_554 S
C441 C440 1.385 . S
C441 C442 1.389 . S
C442 C441 1.389 . S
C442 C443 1.387 . S
C443 H428 0.930 . S
C443 C438 1.390 . S
C443 C442 1.387 . S
H444 C456 0.930 . S
H445 C458 0.930 . S
H446 C459 0.930 . S
H447 C463 0.959 . S
H448 C463 0.959 . S
H449 C463 0.961 . S
H450 C464 0.960 . S
H451 C464 0.961 . S
H452 C464 0.959 . S
H453 C467 0.929 . S
H454 C468 0.931 . S
H455 C470 0.930 . S
C456 H444 0.930 . S
C456 C457 1.399 . S
C456 C461 1.399 . S
C457 C456 1.399 . S
C457 C458 1.376 . S
C458 H445 0.930 . S
C458 C457 1.376 . S
C458 C459 1.388 . S
C459 H446 0.930 . S
C459 C458 1.388 . S
C459 C460 1.390 . S
C460 C459 1.390 . S
C460 C461 1.394 . S
C460 C466 1.465 . S
C461 C456 1.399 . S
C461 C460 1.394 . S
C461 C462 1.516 . S
C462 C461 1.516 . S
C462 C463 1.502 . S
C462 C464 1.561 . S
C462 C465 1.526 . S
C463 H447 0.959 . S
C463 H448 0.959 . S
C463 H449 0.961 . S
C463 C462 1.502 . S
C464 H450 0.960 . S
C464 H451 0.961 . S
C464 H452 0.959 . S
C464 C462 1.561 . S
C465 C462 1.526 . S
C465 C466 1.396 . S
C465 C470 1.390 . S
C466 C460 1.465 . S
C466 C465 1.396 . S
C466 C467 1.399 . S
C467 H453 0.929 . S
C467 C466 1.399 . S
C467 C468 1.385 . S
C468 H454 0.931 . S
C468 C467 1.385 . S
C468 C469 1.389 . S
C469 C468 1.389 . S
C469 C470 1.387 . S
C470 H455 0.930 . S
C470 C465 1.390 . S
C470 C469 1.387 . S
H471 C483 0.930 . S
H472 C485 0.930 . S
H473 C486 0.930 . S
H474 C490 0.959 . S
H475 C490 0.959 . S
H476 C490 0.961 . S
H477 C491 0.960 . S
H478 C491 0.961 . S
H479 C491 0.959 . S
H480 C494 0.929 . S
H481 C495 0.931 . S
H482 C497 0.930 . S
C483 H471 0.930 . S
C483 C484 1.399 . S
C483 C488 1.399 . S
C484 C483 1.399 . S
C484 C485 1.376 . S
C485 H472 0.930 . S
C485 C484 1.376 . S
C485 C486 1.388 . S
C486 H473 0.930 . S
C486 C485 1.388 . S
C486 C487 1.390 . S
C487 C486 1.390 . S
C487 C488 1.394 . S
C487 C493 1.465 . S
C488 C483 1.399 . S
C488 C487 1.394 . S
C488 C489 1.516 . S
C489 C488 1.516 . S
C489 C490 1.502 . S
C489 C491 1.561 . S
C489 C492 1.526 . S
C490 H474 0.959 . S
C490 H475 0.959 . S
C490 H476 0.961 . S
C490 C489 1.502 . S
C491 H477 0.960 . S
C491 H478 0.961 . S
C491 H479 0.959 . S
C491 C489 1.561 . S
C492 C489 1.526 . S
C492 C493 1.396 . S
C492 C497 1.390 . S
C493 C487 1.465 . S
C493 C492 1.396 . S
C493 C494 1.399 . S
C494 H480 0.929 . S
C494 C493 1.399 . S
C494 C495 1.385 . S
C495 H481 0.931 . S
C495 C494 1.385 . S
C495 C496 1.389 . S
C496 C495 1.389 . S
C496 C497 1.387 . S
C497 H482 0.930 . S
C497 C492 1.390 . S
C497 C496 1.387 . S
H498 C510 0.930 . S
H499 C512 0.930 . S
H500 C513 0.930 . S
H501 C517 0.959 . S
H502 C517 0.959 . S
H503 C517 0.961 . S
H504 C518 0.960 . S
H505 C518 0.961 . S
H506 C518 0.959 . S
H507 C521 0.929 . S
H508 C522 0.931 . S
H509 C524 0.930 . S
C510 H498 0.930 . S
C510 C511 1.399 . S
C510 C515 1.399 . S
C511 C510 1.399 . S
C511 C512 1.376 . S
C512 H499 0.930 . S
C512 C511 1.376 . S
C512 C513 1.388 . S
C513 H500 0.930 . S
C513 C512 1.388 . S
C513 C514 1.390 . S
C514 C513 1.390 . S
C514 C515 1.394 . S
C514 C520 1.465 . S
C515 C510 1.399 . S
C515 C514 1.394 . S
C515 C516 1.516 . S
C516 C515 1.516 . S
C516 C517 1.502 . S
C516 C518 1.561 . S
C516 C519 1.526 . S
C517 H501 0.959 . S
C517 H502 0.959 . S
C517 H503 0.961 . S
C517 C516 1.502 . S
C518 H504 0.960 . S
C518 H505 0.961 . S
C518 H506 0.959 . S
C518 C516 1.561 . S
C519 C516 1.526 . S
C519 C520 1.396 . S
C519 C524 1.390 . S
C520 C514 1.465 . S
C520 C519 1.396 . S
C520 C521 1.399 . S
C521 H507 0.929 . S
C521 C520 1.399 . S
C521 C522 1.385 . S
C522 H508 0.931 . S
C522 C521 1.385 . S
C522 C523 1.389 . S
C523 C522 1.389 . S
C523 C524 1.387 . S
C524 H509 0.930 . S
C524 C519 1.390 . S
C524 C523 1.387 . S
H525 C537 0.930 . S
H526 C539 0.930 . S
H527 C540 0.930 . S
H528 C544 0.959 . S
H529 C544 0.959 . S
H530 C544 0.961 . S
H531 C545 0.960 . S
H532 C545 0.961 . S
H533 C545 0.959 . S
H534 C548 0.929 1_554 S
H535 C549 0.931 1_554 S
H536 C551 0.930 . S
C537 H525 0.930 . S
C537 C538 1.399 . S
C537 C542 1.399 . S
C538 C537 1.399 . S
C538 C539 1.376 . S
C539 H526 0.930 . S
C539 C538 1.376 . S
C539 C540 1.388 . S
C540 H527 0.930 . S
C540 C539 1.388 . S
C540 C541 1.390 . S
C541 C540 1.390 . S
C541 C542 1.394 . S
C541 C547 1.465 . S
C542 C537 1.399 . S
C542 C541 1.394 . S
C542 C543 1.516 . S
C543 C542 1.516 . S
C543 C544 1.502 . S
C543 C545 1.561 . S
C543 C546 1.526 . S
C544 H528 0.959 . S
C544 H529 0.959 . S
C544 H530 0.961 . S
C544 C543 1.502 . S
C545 H531 0.960 . S
C545 H532 0.961 . S
C545 H533 0.959 . S
C545 C543 1.561 . S
C546 C543 1.526 . S
C546 C547 1.396 . S
C546 C551 1.390 . S
C547 C541 1.465 . S
C547 C546 1.396 . S
C547 C548 1.399 . S
C548 H534 0.929 1_556 S
C548 C547 1.399 . S
C548 C549 1.385 . S
C549 H535 0.931 1_556 S
C549 C548 1.385 . S
C549 C550 1.389 . S
C550 C549 1.389 . S
C550 C551 1.387 . S
C551 H536 0.930 . S
C551 C546 1.390 . S
C551 C550 1.387 . S
H552 C564 0.930 . S
H553 C566 0.930 . S
H554 C567 0.930 . S
H555 C571 0.959 . S
H556 C571 0.959 1_565 S
H557 C571 0.961 . S
H558 C572 0.960 . S
H559 C572 0.961 . S
H560 C572 0.959 . S
H561 C575 0.929 . S
H562 C576 0.931 . S
H563 C578 0.930 . S
C564 H552 0.930 . S
C564 C565 1.399 . S
C564 C569 1.399 . S
C565 C564 1.399 . S
C565 C566 1.376 . S
C566 H553 0.930 . S
C566 C565 1.376 . S
C566 C567 1.388 . S
C567 H554 0.930 . S
C567 C566 1.388 . S
C567 C568 1.390 . S
C568 C567 1.390 . S
C568 C569 1.394 . S
C568 C574 1.465 . S
C569 C564 1.399 . S
C569 C568 1.394 . S
C569 C570 1.516 . S
C570 C569 1.516 . S
C570 C571 1.502 . S
C570 C572 1.561 . S
C570 C573 1.526 . S
C571 H555 0.959 . S
C571 H556 0.959 1_545 S
C571 H557 0.961 . S
C571 C570 1.502 . S
C572 H558 0.960 . S
C572 H559 0.961 . S
C572 H560 0.959 . S
C572 C570 1.561 . S
C573 C570 1.526 . S
C573 C574 1.396 . S
C573 C578 1.390 . S
C574 C568 1.465 . S
C574 C573 1.396 . S
C574 C575 1.399 . S
C575 H561 0.929 . S
C575 C574 1.399 . S
C575 C576 1.385 . S
C576 H562 0.931 . S
C576 C575 1.385 . S
C576 C577 1.389 . S
C577 C576 1.389 . S
C577 C578 1.387 . S
C578 H563 0.930 . S
C578 C573 1.390 . S
C578 C577 1.387 . S
H579 C591 0.930 . S
H580 C593 0.930 . S
H581 C594 0.930 . S
H582 C598 0.959 . S
H583 C598 0.959 . S
H584 C598 0.961 . S
H585 C599 0.960 . S
H586 C599 0.961 . S
H587 C599 0.959 . S
H588 C602 0.929 . S
H589 C603 0.931 . S
H590 C605 0.930 . S
C591 H579 0.930 . S
C591 C592 1.399 . S
C591 C596 1.399 . S
C592 C591 1.399 . S
C592 C593 1.376 . S
C593 H580 0.930 . S
C593 C592 1.376 . S
C593 C594 1.388 . S
C594 H581 0.930 . S
C594 C593 1.388 . S
C594 C595 1.390 . S
C595 C594 1.390 . S
C595 C596 1.394 . S
C595 C601 1.465 . S
C596 C591 1.399 . S
C596 C595 1.394 . S
C596 C597 1.516 . S
C597 C596 1.516 . S
C597 C598 1.502 . S
C597 C599 1.561 . S
C597 C600 1.526 . S
C598 H582 0.959 . S
C598 H583 0.959 . S
C598 H584 0.961 . S
C598 C597 1.502 . S
C599 H585 0.960 . S
C599 H586 0.961 . S
C599 H587 0.959 . S
C599 C597 1.561 . S
C600 C597 1.526 . S
C600 C601 1.396 . S
C600 C605 1.390 . S
C601 C595 1.465 . S
C601 C600 1.396 . S
C601 C602 1.399 . S
C602 H588 0.929 . S
C602 C601 1.399 . S
C602 C603 1.385 . S
C603 H589 0.931 . S
C603 C602 1.385 . S
C603 C604 1.389 . S
C604 C603 1.389 . S
C604 C605 1.387 . S
C605 H590 0.930 . S
C605 C600 1.390 . S
C605 C604 1.387 . S
H606 C618 0.930 . S
H607 C620 0.930 1_545 S
H608 C621 0.930 1_545 S
H609 C625 0.959 . S
H610 C625 0.959 . S
H611 C625 0.961 . S
H612 C626 0.960 . S
H613 C626 0.961 . S
H614 C626 0.959 . S
H615 C629 0.929 . S
H616 C630 0.931 . S
H617 C632 0.930 . S
C618 H606 0.930 . S
C618 C619 1.399 . S
C618 C623 1.399 . S
C619 C618 1.399 . S
C619 C620 1.376 . S
C620 H607 0.930 1_565 S
C620 C619 1.376 . S
C620 C621 1.388 . S
C621 H608 0.930 1_565 S
C621 C620 1.388 . S
C621 C622 1.390 . S
C622 C621 1.390 . S
C622 C623 1.394 . S
C622 C628 1.465 . S
C623 C618 1.399 . S
C623 C622 1.394 . S
C623 C624 1.516 . S
C624 C623 1.516 . S
C624 C625 1.502 . S
C624 C626 1.561 . S
C624 C627 1.526 . S
C625 H609 0.959 . S
C625 H610 0.959 . S
C625 H611 0.961 . S
C625 C624 1.502 . S
C626 H612 0.960 . S
C626 H613 0.961 . S
C626 H614 0.959 . S
C626 C624 1.561 . S
C627 C624 1.526 . S
C627 C628 1.396 . S
C627 C632 1.390 . S
C628 C622 1.465 . S
C628 C627 1.396 . S
C628 C629 1.399 . S
C629 H615 0.929 . S
C629 C628 1.399 . S
C629 C630 1.385 . S
C630 H616 0.931 . S
C630 C629 1.385 . S
C630 C631 1.389 . S
C631 C630 1.389 . S
C631 C632 1.387 . S
C632 H617 0.930 . S
C632 C627 1.390 . S
C632 C631 1.387 . S
H633 C645 0.930 . S
H634 C647 0.930 . S
H635 C648 0.930 . S
H636 C652 0.959 . S
H637 C652 0.959 . S
H638 C652 0.961 . S
H639 C653 0.960 . S
H640 C653 0.961 . S
H641 C653 0.959 . S
H642 C656 0.929 . S
H643 C657 0.931 1_545 S
H644 C659 0.930 . S
C645 H633 0.930 . S
C645 C646 1.399 . S
C645 C650 1.399 . S
C646 C645 1.399 . S
C646 C647 1.376 . S
C647 H634 0.930 . S
C647 C646 1.376 . S
C647 C648 1.388 . S
C648 H635 0.930 . S
C648 C647 1.388 . S
C648 C649 1.390 . S
C649 C648 1.390 . S
C649 C650 1.394 . S
C649 C655 1.465 . S
C650 C645 1.399 . S
C650 C649 1.394 . S
C650 C651 1.516 . S
C651 C650 1.516 . S
C651 C652 1.502 . S
C651 C653 1.561 . S
C651 C654 1.526 . S
C652 H636 0.959 . S
C652 H637 0.959 . S
C652 H638 0.961 . S
C652 C651 1.502 . S
C653 H639 0.960 . S
C653 H640 0.961 . S
C653 H641 0.959 . S
C653 C651 1.561 . S
C654 C651 1.526 . S
C654 C655 1.396 . S
C654 C659 1.390 . S
C655 C649 1.465 . S
C655 C654 1.396 . S
C655 C656 1.399 . S
C656 H642 0.929 . S
C656 C655 1.399 . S
C656 C657 1.385 . S
C657 H643 0.931 1_565 S
C657 C656 1.385 . S
C657 C658 1.389 . S
C658 C657 1.389 . S
C658 C659 1.387 . S
C659 H644 0.930 . S
C659 C654 1.390 . S
C659 C658 1.387 . S
H660 C672 0.930 . S
H661 C674 0.930 . S
H662 C675 0.930 . S
H663 C679 0.959 . S
H664 C679 0.959 . S
H665 C679 0.961 . S
H666 C680 0.960 . S
H667 C680 0.961 . S
H668 C680 0.959 . S
H669 C683 0.929 . S
H670 C684 0.931 . S
H671 C686 0.930 . S
C672 H660 0.930 . S
C672 C673 1.399 . S
C672 C677 1.399 . S
C673 C672 1.399 . S
C673 C674 1.376 . S
C674 H661 0.930 . S
C674 C673 1.376 . S
C674 C675 1.388 . S
C675 H662 0.930 . S
C675 C674 1.388 . S
C675 C676 1.390 . S
C676 C675 1.390 . S
C676 C677 1.394 . S
C676 C682 1.465 . S
C677 C672 1.399 . S
C677 C676 1.394 . S
C677 C678 1.516 . S
C678 C677 1.516 . S
C678 C679 1.502 . S
C678 C680 1.561 . S
C678 C681 1.526 . S
C679 H663 0.959 . S
C679 H664 0.959 . S
C679 H665 0.961 . S
C679 C678 1.502 . S
C680 H666 0.960 . S
C680 H667 0.961 . S
C680 H668 0.959 . S
C680 C678 1.561 . S
C681 C678 1.526 . S
C681 C682 1.396 . S
C681 C686 1.390 . S
C682 C676 1.465 . S
C682 C681 1.396 . S
C682 C683 1.399 . S
C683 H669 0.929 . S
C683 C682 1.399 . S
C683 C684 1.385 . S
C684 H670 0.931 . S
C684 C683 1.385 . S
C684 C685 1.389 . S
C685 C684 1.389 . S
C685 C686 1.387 . S
C686 H671 0.930 . S
C686 C681 1.390 . S
C686 C685 1.387 . S
H687 C699 0.930 . S
H688 C701 0.930 . S
H689 C702 0.930 . S
H690 C706 0.959 . S
H691 C706 0.959 . S
H692 C706 0.961 . S
H693 C707 0.960 . S
H694 C707 0.961 . S
H695 C707 0.959 . S
H696 C710 0.929 . S
H697 C711 0.931 . S
H698 C713 0.930 . S
C699 H687 0.930 . S
C699 C700 1.399 . S
C699 C704 1.399 . S
C700 C699 1.399 . S
C700 C701 1.376 . S
C701 H688 0.930 . S
C701 C700 1.376 . S
C701 C702 1.388 . S
C702 H689 0.930 . S
C702 C701 1.388 . S
C702 C703 1.390 . S
C703 C702 1.390 . S
C703 C704 1.394 . S
C703 C709 1.465 . S
C704 C699 1.399 . S
C704 C703 1.394 . S
C704 C705 1.516 . S
C705 C704 1.516 . S
C705 C706 1.502 . S
C705 C707 1.561 . S
C705 C708 1.526 . S
C706 H690 0.959 . S
C706 H691 0.959 . S
C706 H692 0.961 . S
C706 C705 1.502 . S
C707 H693 0.960 . S
C707 H694 0.961 . S
C707 H695 0.959 . S
C707 C705 1.561 . S
C708 C705 1.526 . S
C708 C709 1.396 . S
C708 C713 1.390 . S
C709 C703 1.465 . S
C709 C708 1.396 . S
C709 C710 1.399 . S
C710 H696 0.929 . S
C710 C709 1.399 . S
C710 C711 1.385 . S
C711 H697 0.931 . S
C711 C710 1.385 . S
C711 C712 1.389 . S
C712 C711 1.389 . S
C712 C713 1.387 . S
C713 H698 0.930 . S
C713 C708 1.390 . S
C713 C712 1.387 . S
H714 C726 0.930 . S
H715 C728 0.930 . S
H716 C729 0.930 . S
H717 C733 0.959 . S
H718 C733 0.959 . S
H719 C733 0.961 . S
H720 C734 0.960 . S
H721 C734 0.961 . S
H722 C734 0.959 . S
H723 C737 0.929 . S
H724 C738 0.931 . S
H725 C740 0.930 . S
C726 H714 0.930 . S
C726 C727 1.399 . S
C726 C731 1.399 . S
C727 C726 1.399 . S
C727 C728 1.376 . S
C728 H715 0.930 . S
C728 C727 1.376 . S
C728 C729 1.388 . S
C729 H716 0.930 . S
C729 C728 1.388 . S
C729 C730 1.390 . S
C730 C729 1.390 . S
C730 C731 1.394 . S
C730 C736 1.465 . S
C731 C726 1.399 . S
C731 C730 1.394 . S
C731 C732 1.516 . S
C732 C731 1.516 . S
C732 C733 1.502 . S
C732 C734 1.561 . S
C732 C735 1.526 . S
C733 H717 0.959 . S
C733 H718 0.959 . S
C733 H719 0.961 . S
C733 C732 1.502 . S
C734 H720 0.960 . S
C734 H721 0.961 . S
C734 H722 0.959 . S
C734 C732 1.561 . S
C735 C732 1.526 . S
C735 C736 1.396 . S
C735 C740 1.390 . S
C736 C730 1.465 . S
C736 C735 1.396 . S
C736 C737 1.399 . S
C737 H723 0.929 . S
C737 C736 1.399 . S
C737 C738 1.385 . S
C738 H724 0.931 . S
C738 C737 1.385 . S
C738 C739 1.389 . S
C739 C738 1.389 . S
C739 C740 1.387 . S
C740 H725 0.930 . S
C740 C735 1.390 . S
C740 C739 1.387 . S
H741 C753 0.930 . S
H742 C755 0.935 . S
H743 C756 0.930 . S
H744 C760 0.959 . S
H745 C760 0.959 . S
H746 C760 0.961 . S
H747 C761 0.960 . S
H748 C761 0.961 . S
H749 C761 0.959 . S
H750 C764 0.929 . S
H751 C765 0.931 . S
H752 C767 0.930 . S
C753 H741 0.930 . S
C753 C754 1.399 . S
C753 C758 1.399 . S
C754 C753 1.399 . S
C754 C755 1.376 . S
C755 H742 0.935 . S
C755 C754 1.376 . S
C755 C756 1.388 . S
C756 H743 0.930 . S
C756 C755 1.388 . S
C756 C757 1.390 . S
C757 C756 1.390 . S
C757 C758 1.394 . S
C757 C763 1.465 . S
C758 C753 1.399 . S
C758 C757 1.394 . S
C758 C759 1.516 . S
C759 C758 1.516 . S
C759 C760 1.502 . S
C759 C761 1.561 . S
C759 C762 1.526 . S
C760 H744 0.959 . S
C760 H745 0.959 . S
C760 H746 0.961 . S
C760 C759 1.502 . S
C761 H747 0.960 . S
C761 H748 0.961 . S
C761 H749 0.959 . S
C761 C759 1.561 . S
C762 C759 1.526 . S
C762 C763 1.396 . S
C762 C767 1.390 . S
C763 C757 1.465 . S
C763 C762 1.396 . S
C763 C764 1.399 . S
C764 H750 0.929 . S
C764 C763 1.399 . S
C764 C765 1.385 . S
C765 H751 0.931 . S
C765 C764 1.385 . S
C765 C766 1.389 . S
C766 C765 1.389 . S
C766 C767 1.387 . S
C767 H752 0.930 . S
C767 C762 1.390 . S
C767 C766 1.387 . S
H768 C780 0.930 . S
H769 C782 0.930 . S
H770 C783 0.930 . S
H771 C787 0.959 . S
H772 C787 0.959 . S
H773 C787 0.961 . S
H774 C788 0.960 . S
H775 C788 0.961 . S
H776 C788 0.959 . S
H777 C791 0.929 . S
H778 C792 0.931 . S
H779 C794 0.930 . S
C780 H768 0.930 . S
C780 C781 1.399 . S
C780 C785 1.399 . S
C781 C780 1.399 . S
C781 C782 1.376 . S
C782 H769 0.930 . S
C782 C781 1.376 . S
C782 C783 1.388 . S
C783 H770 0.930 . S
C783 C782 1.388 . S
C783 C784 1.390 . S
C784 C783 1.390 . S
C784 C785 1.394 . S
C784 C790 1.465 . S
C785 C780 1.399 . S
C785 C784 1.394 . S
C785 C786 1.516 . S
C786 C785 1.516 . S
C786 C787 1.502 . S
C786 C788 1.561 . S
C786 C789 1.526 . S
C787 H771 0.959 . S
C787 H772 0.959 . S
C787 H773 0.961 . S
C787 C786 1.502 . S
C788 H774 0.960 . S
C788 H775 0.961 . S
C788 H776 0.959 . S
C788 C786 1.561 . S
C789 C786 1.526 . S
C789 C790 1.396 . S
C789 C794 1.390 . S
C790 C784 1.465 . S
C790 C789 1.396 . S
C790 C791 1.399 . S
C791 H777 0.929 . S
C791 C790 1.399 . S
C791 C792 1.385 . S
C792 H778 0.931 . S
C792 C791 1.385 . S
C792 C793 1.389 . S
C793 C792 1.389 . S
C793 C794 1.387 . S
C794 H779 0.930 . S
C794 C789 1.390 . S
C794 C793 1.387 . S
H795 C807 0.930 . S
H796 C809 0.930 . S
H797 C810 0.930 . S
H798 C814 0.959 . S
H799 C814 0.959 . S
H800 C814 0.961 . S
H801 C815 0.960 . S
H802 C815 0.961 . S
H803 C815 0.959 . S
H804 C818 0.929 . S
H805 C819 0.931 . S
H806 C821 0.930 . S
C807 H795 0.930 . S
C807 C808 1.399 . S
C807 C812 1.399 . S
C808 C807 1.399 . S
C808 C809 1.376 . S
C809 H796 0.930 . S
C809 C808 1.376 . S
C809 C810 1.388 . S
C810 H797 0.930 . S
C810 C809 1.388 . S
C810 C811 1.390 . S
C811 C810 1.390 . S
C811 C812 1.394 . S
C811 C817 1.465 . S
C812 C807 1.399 . S
C812 C811 1.394 . S
C812 C813 1.516 . S
C813 C812 1.516 . S
C813 C814 1.502 . S
C813 C815 1.561 . S
C813 C816 1.526 . S
C814 H798 0.959 . S
C814 H799 0.959 . S
C814 H800 0.961 . S
C814 C813 1.502 . S
C815 H801 0.960 . S
C815 H802 0.961 . S
C815 H803 0.959 . S
C815 C813 1.561 . S
C816 C813 1.526 . S
C816 C817 1.396 . S
C816 C821 1.390 . S
C817 C811 1.465 . S
C817 C816 1.396 . S
C817 C818 1.399 . S
C818 H804 0.929 . S
C818 C817 1.399 . S
C818 C819 1.385 . S
C819 H805 0.931 . S
C819 C818 1.385 . S
C819 C820 1.389 . S
C820 C819 1.389 . S
C820 C821 1.387 . S
C821 H806 0.930 . S
C821 C816 1.390 . S
C821 C820 1.387 . S
H822 C834 0.930 1_554 S
H823 C836 0.930 . S
H824 C837 0.930 . S
H825 C841 0.959 . S
H826 C841 0.959 . S
H827 C841 0.961 . S
H828 C842 0.960 . S
H829 C842 0.961 . S
H830 C842 0.959 . S
H831 C845 0.929 . S
H832 C846 0.931 . S
H833 C848 0.930 . S
C834 H822 0.930 1_556 S
C834 C835 1.399 . S
C834 C839 1.399 . S
C835 C834 1.399 . S
C835 C836 1.376 . S
C836 H823 0.930 . S
C836 C835 1.376 . S
C836 C837 1.388 . S
C837 H824 0.930 . S
C837 C836 1.388 . S
C837 C838 1.390 . S
C838 C837 1.390 . S
C838 C839 1.394 . S
C838 C844 1.465 . S
C839 C834 1.399 . S
C839 C838 1.394 . S
C839 C840 1.516 . S
C840 C839 1.516 . S
C840 C841 1.502 1_556 S
C840 C842 1.561 . S
C840 C843 1.526 . S
C841 H825 0.959 . S
C841 H826 0.959 . S
C841 H827 0.961 . S
C841 C840 1.502 1_554 S
C842 H828 0.960 . S
C842 H829 0.961 . S
C842 H830 0.959 . S
C842 C840 1.561 . S
C843 C840 1.526 . S
C843 C844 1.396 . S
C843 C848 1.390 . S
C844 C838 1.465 . S
C844 C843 1.396 . S
C844 C845 1.399 . S
C845 H831 0.929 . S
C845 C844 1.399 . S
C845 C846 1.385 . S
C846 H832 0.931 . S
C846 C845 1.385 . S
C846 C847 1.389 . S
C847 C846 1.389 . S
C847 C848 1.387 . S
C848 H833 0.930 . S
C848 C843 1.390 . S
C848 C847 1.387 . S
H849 C861 0.930 . S
H850 C863 0.930 . S
H851 C864 0.930 . S
H852 C868 0.961 1_455 S
H853 C868 0.960 1_455 S
H854 C868 0.960 . S
H855 C869 0.960 . S
H856 C869 0.961 . S
H857 C869 0.959 . S
H858 C872 0.929 . S
H859 C873 0.931 . S
H860 C875 0.930 . S
C861 H849 0.930 . S
C861 C862 1.399 . S
C861 C866 1.399 . S
C862 C861 1.399 . S
C862 C863 1.376 . S
C863 H850 0.930 . S
C863 C862 1.376 . S
C863 C864 1.388 . S
C864 H851 0.930 . S
C864 C863 1.388 . S
C864 C865 1.390 . S
C865 C864 1.390 . S
C865 C866 1.394 . S
C865 C871 1.465 . S
C866 C861 1.399 . S
C866 C865 1.394 . S
C866 C867 1.516 . S
C867 C866 1.516 . S
C867 C868 1.500 . S
C867 C869 1.561 . S
C867 C870 1.526 . S
C868 H852 0.961 1_655 S
C868 H853 0.960 1_655 S
C868 H854 0.960 . S
C868 C867 1.500 . S
C869 H855 0.960 . S
C869 H856 0.961 . S
C869 H857 0.959 . S
C869 C867 1.561 . S
C870 C867 1.526 . S
C870 C871 1.396 . S
C870 C875 1.390 . S
C871 C865 1.465 . S
C871 C870 1.396 . S
C871 C872 1.399 . S
C872 H858 0.929 . S
C872 C871 1.399 . S
C872 C873 1.385 . S
C873 H859 0.931 . S
C873 C872 1.385 . S
C873 C874 1.389 . S
C874 C873 1.389 . S
C874 C875 1.387 . S
C875 H860 0.930 . S
C875 C870 1.390 . S
C875 C874 1.387 . S
H876 C888 0.930 . S
H877 C890 0.930 . S
H878 C891 0.930 . S
H879 C895 0.959 . S
H880 C895 0.959 . S
H881 C895 0.961 . S
H882 C896 0.960 . S
H883 C896 0.961 . S
H884 C896 0.959 . S
H885 C899 0.929 . S
H886 C900 0.931 . S
H887 C902 0.930 . S
C888 H876 0.930 . S
C888 C889 1.399 . S
C888 C893 1.399 . S
C889 C888 1.399 . S
C889 C890 1.376 . S
C890 H877 0.930 . S
C890 C889 1.376 . S
C890 C891 1.388 . S
C891 H878 0.930 . S
C891 C890 1.388 . S
C891 C892 1.390 . S
C892 C891 1.390 . S
C892 C893 1.394 . S
C892 C898 1.465 . S
C893 C888 1.399 . S
C893 C892 1.394 . S
C893 C894 1.516 . S
C894 C893 1.516 . S
C894 C895 1.502 . S
C894 C896 1.561 . S
C894 C897 1.526 . S
C895 H879 0.959 . S
C895 H880 0.959 . S
C895 H881 0.961 . S
C895 C894 1.502 . S
C896 H882 0.960 . S
C896 H883 0.961 . S
C896 H884 0.959 . S
C896 C894 1.561 . S
C897 C894 1.526 . S
C897 C898 1.396 . S
C897 C902 1.390 . S
C898 C892 1.465 . S
C898 C897 1.396 . S
C898 C899 1.399 . S
C899 H885 0.929 . S
C899 C898 1.399 . S
C899 C900 1.385 . S
C900 H886 0.931 . S
C900 C899 1.385 . S
C900 C901 1.389 . S
C901 C900 1.389 . S
C901 C902 1.387 . S
C902 H887 0.930 . S
C902 C897 1.390 . S
C902 C901 1.387 . S
H903 C915 0.930 . S
H904 C917 0.930 . S
H905 C918 0.930 . S
H906 C922 0.959 . S
H907 C922 0.959 . S
H908 C922 0.961 . S
H909 C923 0.960 . S
H910 C923 0.961 . S
H911 C923 0.959 . S
H912 C926 0.929 . S
H913 C927 0.931 . S
H914 C929 0.930 . S
C915 H903 0.930 . S
C915 C916 1.399 . S
C915 C920 1.399 . S
C916 C915 1.399 . S
C916 C917 1.376 . S
C917 H904 0.930 . S
C917 C916 1.376 . S
C917 C918 1.388 . S
C918 H905 0.930 . S
C918 C917 1.388 . S
C918 C919 1.390 . S
C919 C918 1.390 . S
C919 C920 1.394 . S
C919 C925 1.465 . S
C920 C915 1.399 . S
C920 C919 1.394 . S
C920 C921 1.516 . S
C921 C920 1.516 . S
C921 C922 1.502 . S
C921 C923 1.561 . S
C921 C924 1.526 . S
C922 H906 0.959 . S
C922 H907 0.959 . S
C922 H908 0.961 . S
C922 C921 1.502 . S
C923 H909 0.960 . S
C923 H910 0.961 . S
C923 H911 0.959 . S
C923 C921 1.561 . S
C924 C921 1.526 . S
C924 C925 1.396 . S
C924 C929 1.390 . S
C925 C919 1.465 . S
C925 C924 1.396 . S
C925 C926 1.399 . S
C926 H912 0.929 . S
C926 C925 1.399 . S
C926 C927 1.385 . S
C927 H913 0.931 . S
C927 C926 1.385 . S
C927 C928 1.389 . S
C928 C927 1.389 . S
C928 C929 1.387 . S
C929 H914 0.930 . S
C929 C924 1.390 . S
C929 C928 1.387 . S
H930 C942 0.930 . S
H931 C944 0.930 . S
H932 C945 0.930 . S
H933 C949 0.959 . S
H934 C949 0.959 . S
H935 C949 0.961 . S
H936 C950 0.960 . S
H937 C950 0.961 . S
H938 C950 0.959 . S
H939 C953 0.929 . S
H940 C954 0.931 1_556 S
H941 C956 0.930 . S
C942 H930 0.930 . S
C942 C943 1.399 . S
C942 C947 1.399 . S
C943 C942 1.399 . S
C943 C944 1.376 . S
C944 H931 0.930 . S
C944 C943 1.376 . S
C944 C945 1.388 . S
C945 H932 0.930 . S
C945 C944 1.388 . S
C945 C946 1.390 . S
C946 C945 1.390 . S
C946 C947 1.394 . S
C946 C952 1.465 . S
C947 C942 1.399 . S
C947 C946 1.394 . S
C947 C948 1.516 . S
C948 C947 1.516 . S
C948 C949 1.502 . S
C948 C950 1.561 . S
C948 C951 1.526 . S
C949 H933 0.959 . S
C949 H934 0.959 . S
C949 H935 0.961 . S
C949 C948 1.502 . S
C950 H936 0.960 . S
C950 H937 0.961 . S
C950 H938 0.959 . S
C950 C948 1.561 . S
C951 C948 1.526 . S
C951 C952 1.396 . S
C951 C956 1.390 . S
C952 C946 1.465 . S
C952 C951 1.396 . S
C952 C953 1.399 . S
C953 H939 0.929 . S
C953 C952 1.399 . S
C953 C954 1.385 . S
C954 H940 0.931 1_554 S
C954 C953 1.385 . S
C954 C955 1.389 . S
C955 C954 1.389 . S
C955 C956 1.387 . S
C956 H941 0.930 . S
C956 C951 1.390 . S
C956 C955 1.387 . S
H957 C969 0.930 . S
H958 C971 0.930 . S
H959 C972 0.930 . S
H960 C976 0.959 . S
H961 C976 0.959 . S
H962 C976 0.961 . S
H963 C977 0.960 . S
H964 C977 0.961 . S
H965 C977 0.959 . S
H966 C980 0.929 . S
H967 C981 0.931 . S
H968 C983 0.930 . S
C969 H957 0.930 . S
C969 C970 1.399 . S
C969 C974 1.399 . S
C970 C969 1.399 . S
C970 C971 1.376 . S
C971 H958 0.930 . S
C971 C970 1.376 . S
C971 C972 1.388 . S
C972 H959 0.930 . S
C972 C971 1.388 . S
C972 C973 1.390 . S
C973 C972 1.390 . S
C973 C974 1.394 . S
C973 C979 1.465 . S
C974 C969 1.399 . S
C974 C973 1.394 . S
C974 C975 1.516 . S
C975 C974 1.516 . S
C975 C976 1.502 . S
C975 C977 1.561 1_565 S
C975 C978 1.526 . S
C976 H960 0.959 . S
C976 H961 0.959 . S
C976 H962 0.961 . S
C976 C975 1.502 . S
C977 H963 0.960 . S
C977 H964 0.961 . S
C977 H965 0.959 . S
C977 C975 1.561 1_545 S
C978 C975 1.526 . S
C978 C979 1.396 . S
C978 C983 1.390 . S
C979 C973 1.465 . S
C979 C978 1.396 . S
C979 C980 1.399 . S
C980 H966 0.929 . S
C980 C979 1.399 . S
C980 C981 1.385 . S
C981 H967 0.931 . S
C981 C980 1.385 . S
C981 C982 1.389 . S
C982 C981 1.389 . S
C982 C983 1.387 . S
C983 H968 0.930 . S
C983 C978 1.390 . S
C983 C982 1.387 . S
H984 C996 0.930 1_545 S
H985 C998 0.930 . S
H986 C999 0.930 . S
H987 C1003 0.959 . S
H988 C1003 0.959 . S
H989 C1003 0.961 . S
H990 C1004 0.931 1_545 S
H991 C1004 0.961 . S
H992 C1004 0.959 . S
H993 C1007 0.929 . S
H994 C1008 0.931 . S
H995 C1010 0.930 . S
C996 H984 0.930 1_565 S
C996 C997 1.399 . S
C996 C1001 1.399 . S
C997 C996 1.399 . S
C997 C998 1.376 . S
C998 H985 0.930 . S
C998 C997 1.376 . S
C998 C999 1.388 . S
C999 H986 0.930 . S
C999 C998 1.388 . S
C999 C1000 1.390 . S
C1000 C999 1.390 . S
C1000 C1001 1.394 . S
C1000 C1006 1.465 . S
C1001 C996 1.399 . S
C1001 C1000 1.394 . S
C1001 C1002 1.516 . S
C1002 C1001 1.516 . S
C1002 C1003 1.502 1_565 S
C1002 C1004 1.561 . S
C1002 C1005 1.526 . S
C1003 H987 0.959 . S
C1003 H988 0.959 . S
C1003 H989 0.961 . S
C1003 C1002 1.502 1_545 S
C1004 H990 0.931 1_565 S
C1004 H991 0.961 . S
C1004 H992 0.959 . S
C1004 C1002 1.561 . S
C1005 C1002 1.526 . S
C1005 C1006 1.396 . S
C1005 C1010 1.390 . S
C1006 C1000 1.465 . S
C1006 C1005 1.396 . S
C1006 C1007 1.399 . S
C1007 H993 0.929 . S
C1007 C1006 1.399 . S
C1007 C1008 1.385 . S
C1008 H994 0.931 . S
C1008 C1007 1.385 . S
C1008 C1009 1.389 . S
C1009 C1008 1.389 . S
C1009 C1010 1.387 . S
C1010 H995 0.930 . S
C1010 C1005 1.390 . S
C1010 C1009 1.387 . S
H1011 C1023 0.930 . S
H1012 C1025 0.930 . S
H1013 C1026 0.930 . S
H1014 C1030 0.959 . S
H1015 C1030 0.959 . S
H1016 C1030 0.961 . S
H1017 C1031 0.960 . S
H1018 C1031 0.961 . S
H1019 C1031 0.959 . S
H1020 C1034 0.929 . S
H1021 C1035 0.931 1_565 S
H1022 C1037 0.930 . S
C1023 H1011 0.930 . S
C1023 C1024 1.399 . S
C1023 C1028 1.399 . S
C1024 C1023 1.399 . S
C1024 C1025 1.376 . S
C1025 H1012 0.930 . S
C1025 C1024 1.376 . S
C1025 C1026 1.388 . S
C1026 H1013 0.930 . S
C1026 C1025 1.388 . S
C1026 C1027 1.390 . S
C1027 C1026 1.390 . S
C1027 C1028 1.394 . S
C1027 C1033 1.465 . S
C1028 C1023 1.399 . S
C1028 C1027 1.394 . S
C1028 C1029 1.516 . S
C1029 C1028 1.516 . S
C1029 C1030 1.502 . S
C1029 C1031 1.561 . S
C1029 C1032 1.526 . S
C1030 H1014 0.959 . S
C1030 H1015 0.959 . S
C1030 H1016 0.961 . S
C1030 C1029 1.502 . S
C1031 H1017 0.960 . S
C1031 H1018 0.961 . S
C1031 H1019 0.959 . S
C1031 C1029 1.561 . S
C1032 C1029 1.526 . S
C1032 C1033 1.396 . S
C1032 C1037 1.390 . S
C1033 C1027 1.465 . S
C1033 C1032 1.396 . S
C1033 C1034 1.399 . S
C1034 H1020 0.929 . S
C1034 C1033 1.399 . S
C1034 C1035 1.385 . S
C1035 H1021 0.931 1_545 S
C1035 C1034 1.385 . S
C1035 C1036 1.389 . S
C1036 C1035 1.389 . S
C1036 C1037 1.387 . S
C1037 H1022 0.930 . S
C1037 C1032 1.390 . S
C1037 C1036 1.387 . S
H1038 C1050 0.930 . S
H1039 C1052 0.930 . S
H1040 C1053 0.930 . S
H1041 C1057 0.959 . S
H1042 C1057 0.959 . S
H1043 C1057 0.937 1_565 S
H1044 C1058 0.960 . S
H1045 C1058 0.961 . S
H1046 C1058 0.959 . S
H1047 C1061 0.929 . S
H1048 C1062 0.931 . S
H1049 C1064 0.930 . S
C1050 H1038 0.930 . S
C1050 C1051 1.399 . S
C1050 C1055 1.399 . S
C1051 C1050 1.399 . S
C1051 C1052 1.376 . S
C1052 H1039 0.930 . S
C1052 C1051 1.376 . S
C1052 C1053 1.388 . S
C1053 H1040 0.930 . S
C1053 C1052 1.388 . S
C1053 C1054 1.390 . S
C1054 C1053 1.390 . S
C1054 C1055 1.394 . S
C1054 C1060 1.465 . S
C1055 C1050 1.399 . S
C1055 C1054 1.394 . S
C1055 C1056 1.516 . S
C1056 C1055 1.516 . S
C1056 C1057 1.502 . S
C1056 C1058 1.561 . S
C1056 C1059 1.526 . S
C1057 H1041 0.959 . S
C1057 H1042 0.959 . S
C1057 H1043 0.937 1_545 S
C1057 C1056 1.502 . S
C1058 H1044 0.960 . S
C1058 H1045 0.961 . S
C1058 H1046 0.959 . S
C1058 C1056 1.561 . S
C1059 C1056 1.526 . S
C1059 C1060 1.396 . S
C1059 C1064 1.390 . S
C1060 C1054 1.465 . S
C1060 C1059 1.396 . S
C1060 C1061 1.399 . S
C1061 H1047 0.929 . S
C1061 C1060 1.399 . S
C1061 C1062 1.385 . S
C1062 H1048 0.931 . S
C1062 C1061 1.385 . S
C1062 C1063 1.389 . S
C1063 C1062 1.389 . S
C1063 C1064 1.387 . S
C1064 H1049 0.930 . S
C1064 C1059 1.390 . S
C1064 C1063 1.387 . S
H1065 C1077 0.930 . S
H1066 C1079 0.930 . S
H1067 C1080 0.930 . S
H1068 C1084 0.959 . S
H1069 C1084 0.959 . S
H1070 C1084 0.961 . S
H1071 C1085 0.960 . S
H1072 C1085 0.961 . S
H1073 C1085 0.959 . S
H1074 C1088 0.929 1_554 S
H1075 C1089 0.931 1_554 S
H1076 C1091 0.930 . S
C1077 H1065 0.930 . S
C1077 C1078 1.399 . S
C1077 C1082 1.399 . S
C1078 C1077 1.399 . S
C1078 C1079 1.376 . S
C1079 H1066 0.930 . S
C1079 C1078 1.376 . S
C1079 C1080 1.388 . S
C1080 H1067 0.930 . S
C1080 C1079 1.388 . S
C1080 C1081 1.390 . S
C1081 C1080 1.390 . S
C1081 C1082 1.394 . S
C1081 C1087 1.465 . S
C1082 C1077 1.399 . S
C1082 C1081 1.394 . S
C1082 C1083 1.516 . S
C1083 C1082 1.516 . S
C1083 C1084 1.502 . S
C1083 C1085 1.561 . S
C1083 C1086 1.526 . S
C1084 H1068 0.959 . S
C1084 H1069 0.959 . S
C1084 H1070 0.961 . S
C1084 C1083 1.502 . S
C1085 H1071 0.960 . S
C1085 H1072 0.961 . S
C1085 H1073 0.959 . S
C1085 C1083 1.561 . S
C1086 C1083 1.526 . S
C1086 C1087 1.396 . S
C1086 C1091 1.390 . S
C1087 C1081 1.465 . S
C1087 C1086 1.396 . S
C1087 C1088 1.399 . S
C1088 H1074 0.929 1_556 S
C1088 C1087 1.399 . S
C1088 C1089 1.385 . S
C1089 H1075 0.931 1_556 S
C1089 C1088 1.385 . S
C1089 C1090 1.389 . S
C1090 C1089 1.389 . S
C1090 C1091 1.387 . S
C1091 H1076 0.930 . S
C1091 C1086 1.390 . S
C1091 C1090 1.387 . S
H1092 C1104 0.930 . S
H1093 C1106 0.930 . S
H1094 C1107 0.930 . S
H1095 C1111 0.959 . S
H1096 C1111 0.959 . S
H1097 C1111 0.961 . S
H1098 C1112 0.960 . S
H1099 C1112 0.961 . S
H1100 C1112 0.959 . S
H1101 C1115 0.929 . S
H1102 C1116 0.931 1_655 S
H1103 C1118 0.930 . S
C1104 H1092 0.930 . S
C1104 C1105 1.399 . S
C1104 C1109 1.399 . S
C1105 C1104 1.399 . S
C1105 C1106 1.376 . S
C1106 H1093 0.930 . S
C1106 C1105 1.376 . S
C1106 C1107 1.388 . S
C1107 H1094 0.930 . S
C1107 C1106 1.388 . S
C1107 C1108 1.390 . S
C1108 C1107 1.390 . S
C1108 C1109 1.394 . S
C1108 C1114 1.465 . S
C1109 C1104 1.399 . S
C1109 C1108 1.394 . S
C1109 C1110 1.516 . S
C1110 C1109 1.516 . S
C1110 C1111 1.502 . S
C1110 C1112 1.561 . S
C1110 C1113 1.526 . S
C1111 H1095 0.959 . S
C1111 H1096 0.959 . S
C1111 H1097 0.961 . S
C1111 C1110 1.502 . S
C1112 H1098 0.960 . S
C1112 H1099 0.961 . S
C1112 H1100 0.959 . S
C1112 C1110 1.561 . S
C1113 C1110 1.526 . S
C1113 C1114 1.396 . S
C1113 C1118 1.390 . S
C1114 C1108 1.465 . S
C1114 C1113 1.396 . S
C1114 C1115 1.399 . S
C1115 H1101 0.929 . S
C1115 C1114 1.399 . S
C1115 C1116 1.385 . S
C1116 H1102 0.931 1_455 S
C1116 C1115 1.385 . S
C1116 C1117 1.389 . S
C1117 C1116 1.389 . S
C1117 C1118 1.387 . S
C1118 H1103 0.930 . S
C1118 C1113 1.390 . S
C1118 C1117 1.387 . S
H1119 C1131 0.930 . S
H1120 C1133 0.930 . S
H1121 C1134 0.930 . S
H1122 C1138 0.959 . S
H1123 C1138 0.959 . S
H1124 C1138 0.961 . S
H1125 C1139 0.960 . S
H1126 C1139 0.961 . S
H1127 C1139 0.959 . S
H1128 C1142 0.929 . S
H1129 C1143 0.931 . S
H1130 C1145 0.930 . S
C1131 H1119 0.930 . S
C1131 C1132 1.399 . S
C1131 C1136 1.399 . S
C1132 C1131 1.399 . S
C1132 C1133 1.376 . S
C1133 H1120 0.930 . S
C1133 C1132 1.376 . S
C1133 C1134 1.388 . S
C1134 H1121 0.930 . S
C1134 C1133 1.388 . S
C1134 C1135 1.390 . S
C1135 C1134 1.390 . S
C1135 C1136 1.394 . S
C1135 C1141 1.465 . S
C1136 C1131 1.399 . S
C1136 C1135 1.394 . S
C1136 C1137 1.516 . S
C1137 C1136 1.516 . S
C1137 C1138 1.502 . S
C1137 C1139 1.561 . S
C1137 C1140 1.526 . S
C1138 H1122 0.959 . S
C1138 H1123 0.959 . S
C1138 H1124 0.961 . S
C1138 C1137 1.502 . S
C1139 H1125 0.960 . S
C1139 H1126 0.961 . S
C1139 H1127 0.959 . S
C1139 C1137 1.561 . S
C1140 C1137 1.526 . S
C1140 C1141 1.396 . S
C1140 C1145 1.390 . S
C1141 C1135 1.465 . S
C1141 C1140 1.396 . S
C1141 C1142 1.399 . S
C1142 H1128 0.929 . S
C1142 C1141 1.399 . S
C1142 C1143 1.385 . S
C1143 H1129 0.931 . S
C1143 C1142 1.385 . S
C1143 C1144 1.389 . S
C1144 C1143 1.389 . S
C1144 C1145 1.387 . S
C1145 H1130 0.930 . S
C1145 C1140 1.390 . S
C1145 C1144 1.387 . S
H1146 C1158 0.930 . S
H1147 C1160 0.930 . S
H1148 C1161 0.930 . S
H1149 C1165 0.959 . S
H1150 C1165 0.959 . S
H1151 C1165 0.961 . S
H1152 C1166 0.960 . S
H1153 C1166 0.961 . S
H1154 C1166 0.959 . S
H1155 C1169 0.929 . S
H1156 C1170 0.931 . S
H1157 C1172 0.930 . S
C1158 H1146 0.930 . S
C1158 C1159 1.399 . S
C1158 C1163 1.399 . S
C1159 C1158 1.399 . S
C1159 C1160 1.376 . S
C1160 H1147 0.930 . S
C1160 C1159 1.376 . S
C1160 C1161 1.388 . S
C1161 H1148 0.930 . S
C1161 C1160 1.388 . S
C1161 C1162 1.390 . S
C1162 C1161 1.390 . S
C1162 C1163 1.394 . S
C1162 C1168 1.465 . S
C1163 C1158 1.399 . S
C1163 C1162 1.394 . S
C1163 C1164 1.516 . S
C1164 C1163 1.516 . S
C1164 C1165 1.502 . S
C1164 C1166 1.561 . S
C1164 C1167 1.526 . S
C1165 H1149 0.959 . S
C1165 H1150 0.959 . S
C1165 H1151 0.961 . S
C1165 C1164 1.502 . S
C1166 H1152 0.960 . S
C1166 H1153 0.961 . S
C1166 H1154 0.959 . S
C1166 C1164 1.561 . S
C1167 C1164 1.526 . S
C1167 C1168 1.396 . S
C1167 C1172 1.390 . S
C1168 C1162 1.465 . S
C1168 C1167 1.396 . S
C1168 C1169 1.399 . S
C1169 H1155 0.929 . S
C1169 C1168 1.399 . S
C1169 C1170 1.385 . S
C1170 H1156 0.931 . S
C1170 C1169 1.385 . S
C1170 C1171 1.389 . S
C1171 C1170 1.389 . S
C1171 C1172 1.387 . S
C1172 H1157 0.930 . S
C1172 C1167 1.390 . S
C1172 C1171 1.387 . S
H1173 C1185 0.930 . S
H1174 C1187 0.930 . S
H1175 C1188 0.930 . S
H1176 C1192 0.959 . S
H1177 C1192 0.959 . S
H1178 C1192 0.961 . S
H1179 C1193 0.960 . S
H1180 C1193 0.961 . S
H1181 C1193 0.959 . S
H1182 C1196 0.929 . S
H1183 C1197 0.931 . S
H1184 C1199 0.930 . S
C1185 H1173 0.930 . S
C1185 C1186 1.399 . S
C1185 C1190 1.399 . S
C1186 C1185 1.399 . S
C1186 C1187 1.376 . S
C1187 H1174 0.930 . S
C1187 C1186 1.376 . S
C1187 C1188 1.388 . S
C1188 H1175 0.930 . S
C1188 C1187 1.388 . S
C1188 C1189 1.390 . S
C1189 C1188 1.390 . S
C1189 C1190 1.394 . S
C1189 C1195 1.465 . S
C1190 C1185 1.399 . S
C1190 C1189 1.394 . S
C1190 C1191 1.516 . S
C1191 C1190 1.516 . S
C1191 C1192 1.502 . S
C1191 C1193 1.561 . S
C1191 C1194 1.526 . S
C1192 H1176 0.959 . S
C1192 H1177 0.959 . S
C1192 H1178 0.961 . S
C1192 C1191 1.502 . S
C1193 H1179 0.960 . S
C1193 H1180 0.961 . S
C1193 H1181 0.959 . S
C1193 C1191 1.561 . S
C1194 C1191 1.526 . S
C1194 C1195 1.396 . S
C1194 C1199 1.390 . S
C1195 C1189 1.465 . S
C1195 C1194 1.396 . S
C1195 C1196 1.399 . S
C1196 H1182 0.929 . S
C1196 C1195 1.399 . S
C1196 C1197 1.385 . S
C1197 H1183 0.931 . S
C1197 C1196 1.385 . S
C1197 C1198 1.389 . S
C1198 C1197 1.389 . S
C1198 C1199 1.387 . S
C1199 H1184 0.930 . S
C1199 C1194 1.390 . S
C1199 C1198 1.387 . S
H1200 C1212 0.930 . S
H1201 C1214 0.930 . S
H1202 C1215 0.930 . S
H1203 C1219 0.959 . S
H1204 C1219 0.959 . S
H1205 C1219 0.961 . S
H1206 C1220 0.960 . S
H1207 C1220 0.961 . S
H1208 C1220 0.959 . S
H1209 C1223 0.929 . S
H1210 C1224 0.931 . S
H1211 C1226 0.930 . S
C1212 H1200 0.930 . S
C1212 C1213 1.399 . S
C1212 C1217 1.399 . S
C1213 C1212 1.399 . S
C1213 C1214 1.376 . S
C1214 H1201 0.930 . S
C1214 C1213 1.376 . S
C1214 C1215 1.388 . S
C1215 H1202 0.930 . S
C1215 C1214 1.388 . S
C1215 C1216 1.390 . S
C1216 C1215 1.390 . S
C1216 C1217 1.394 . S
C1216 C1222 1.465 . S
C1217 C1212 1.399 . S
C1217 C1216 1.394 . S
C1217 C1218 1.516 . S
C1218 C1217 1.516 . S
C1218 C1219 1.502 . S
C1218 C1220 1.561 . S
C1218 C1221 1.526 . S
C1219 H1203 0.959 . S
C1219 H1204 0.959 . S
C1219 H1205 0.961 . S
C1219 C1218 1.502 . S
C1220 H1206 0.960 . S
C1220 H1207 0.961 . S
C1220 H1208 0.959 . S
C1220 C1218 1.561 . S
C1221 C1218 1.526 . S
C1221 C1222 1.396 . S
C1221 C1226 1.390 . S
C1222 C1216 1.465 . S
C1222 C1221 1.396 . S
C1222 C1223 1.399 . S
C1223 H1209 0.929 . S
C1223 C1222 1.399 . S
C1223 C1224 1.385 . S
C1224 H1210 0.931 . S
C1224 C1223 1.385 . S
C1224 C1225 1.389 . S
C1225 C1224 1.389 . S
C1225 C1226 1.387 . S
C1226 H1211 0.930 . S
C1226 C1221 1.390 . S
C1226 C1225 1.387 . S
H1227 C1239 0.930 . S
H1228 C1241 0.930 . S
H1229 C1242 0.930 . S
H1230 C1246 0.959 . S
H1231 C1246 0.959 . S
H1232 C1246 0.961 . S
H1233 C1247 0.960 . S
H1234 C1247 0.961 . S
H1235 C1247 0.959 . S
H1236 C1250 0.929 . S
H1237 C1251 0.931 . S
H1238 C1253 0.930 . S
C1239 H1227 0.930 . S
C1239 C1240 1.399 . S
C1239 C1244 1.399 . S
C1240 C1239 1.399 . S
C1240 C1241 1.376 . S
C1241 H1228 0.930 . S
C1241 C1240 1.376 . S
C1241 C1242 1.388 . S
C1242 H1229 0.930 . S
C1242 C1241 1.388 . S
C1242 C1243 1.390 . S
C1243 C1242 1.390 . S
C1243 C1244 1.394 . S
C1243 C1249 1.465 . S
C1244 C1239 1.399 . S
C1244 C1243 1.394 . S
C1244 C1245 1.516 . S
C1245 C1244 1.516 . S
C1245 C1246 1.502 . S
C1245 C1247 1.561 . S
C1245 C1248 1.526 . S
C1246 H1230 0.959 . S
C1246 H1231 0.959 . S
C1246 H1232 0.961 . S
C1246 C1245 1.502 . S
C1247 H1233 0.960 . S
C1247 H1234 0.961 . S
C1247 H1235 0.959 . S
C1247 C1245 1.561 . S
C1248 C1245 1.526 . S
C1248 C1249 1.396 . S
C1248 C1253 1.390 . S
C1249 C1243 1.465 . S
C1249 C1248 1.396 . S
C1249 C1250 1.399 . S
C1250 H1236 0.929 . S
C1250 C1249 1.399 . S
C1250 C1251 1.385 . S
C1251 H1237 0.931 . S
C1251 C1250 1.385 . S
C1251 C1252 1.389 . S
C1252 C1251 1.389 . S
C1252 C1253 1.387 . S
C1253 H1238 0.930 . S
C1253 C1248 1.390 . S
C1253 C1252 1.387 . S
H1254 C1266 0.930 . S
H1255 C1268 0.930 . S
H1256 C1269 0.930 . S
H1257 C1273 0.959 . S
H1258 C1273 0.959 . S
H1259 C1273 0.961 . S
H1260 C1274 0.960 . S
H1261 C1274 0.961 . S
H1262 C1274 0.959 . S
H1263 C1277 0.929 . S
H1264 C1278 0.931 . S
H1265 C1280 0.930 . S
C1266 H1254 0.930 . S
C1266 C1267 1.399 . S
C1266 C1271 1.399 . S
C1267 C1266 1.399 . S
C1267 C1268 1.376 . S
C1268 H1255 0.930 . S
C1268 C1267 1.376 . S
C1268 C1269 1.388 . S
C1269 H1256 0.930 . S
C1269 C1268 1.388 . S
C1269 C1270 1.390 . S
C1270 C1269 1.390 . S
C1270 C1271 1.394 . S
C1270 C1276 1.465 . S
C1271 C1266 1.399 . S
C1271 C1270 1.394 . S
C1271 C1272 1.516 . S
C1272 C1271 1.516 . S
C1272 C1273 1.502 . S
C1272 C1274 1.561 . S
C1272 C1275 1.526 . S
C1273 H1257 0.959 . S
C1273 H1258 0.959 . S
C1273 H1259 0.961 . S
C1273 C1272 1.502 . S
C1274 H1260 0.960 . S
C1274 H1261 0.961 . S
C1274 H1262 0.959 . S
C1274 C1272 1.561 . S
C1275 C1272 1.526 . S
C1275 C1276 1.396 . S
C1275 C1280 1.390 . S
C1276 C1270 1.465 . S
C1276 C1275 1.396 . S
C1276 C1277 1.399 . S
C1277 H1263 0.929 . S
C1277 C1276 1.399 . S
C1277 C1278 1.385 . S
C1278 H1264 0.931 . S
C1278 C1277 1.385 . S
C1278 C1279 1.389 . S
C1279 C1278 1.389 . S
C1279 C1280 1.387 . S
C1280 H1265 0.930 . S
C1280 C1275 1.390 . S
C1280 C1279 1.387 . S
H1281 C1293 0.930 . S
H1282 C1295 0.930 . S
H1283 C1296 0.930 . S
H1284 C1300 0.959 . S
H1285 C1300 0.959 . S
H1286 C1300 0.961 . S
H1287 C1301 0.960 . S
H1288 C1301 0.961 . S
H1289 C1301 0.959 . S
H1290 C1304 0.929 . S
H1291 C1305 0.931 . S
H1292 C1307 0.930 . S
C1293 H1281 0.930 . S
C1293 C1294 1.399 . S
C1293 C1298 1.399 . S
C1294 C1293 1.399 . S
C1294 C1295 1.376 . S
C1295 H1282 0.930 . S
C1295 C1294 1.376 . S
C1295 C1296 1.388 . S
C1296 H1283 0.930 . S
C1296 C1295 1.388 . S
C1296 C1297 1.390 . S
C1297 C1296 1.390 . S
C1297 C1298 1.394 . S
C1297 C1303 1.465 . S
C1298 C1293 1.399 . S
C1298 C1297 1.394 . S
C1298 C1299 1.516 . S
C1299 C1298 1.516 . S
C1299 C1300 1.502 . S
C1299 C1301 1.561 . S
C1299 C1302 1.526 . S
C1300 H1284 0.959 . S
C1300 H1285 0.959 . S
C1300 H1286 0.961 . S
C1300 C1299 1.502 . S
C1301 H1287 0.960 . S
C1301 H1288 0.961 . S
C1301 H1289 0.959 . S
C1301 C1299 1.561 . S
C1302 C1299 1.526 . S
C1302 C1303 1.396 . S
C1302 C1307 1.390 . S
C1303 C1297 1.465 . S
C1303 C1302 1.396 . S
C1303 C1304 1.399 . S
C1304 H1290 0.929 . S
C1304 C1303 1.399 . S
C1304 C1305 1.385 . S
C1305 H1291 0.931 . S
C1305 C1304 1.385 . S
C1305 C1306 1.389 . S
C1306 C1305 1.389 . S
C1306 C1307 1.387 . S
C1307 H1292 0.930 . S
C1307 C1302 1.390 . S
C1307 C1306 1.387 . S
H1308 C1320 0.930 . S
H1309 C1322 0.930 . S
H1310 C1323 0.930 . S
H1311 C1327 0.959 . S
H1312 C1327 0.959 . S
H1313 C1327 0.961 . S
H1314 C1328 0.960 . S
H1315 C1328 0.961 . S
H1316 C1328 0.959 . S
H1317 C1331 0.929 . S
H1318 C1332 0.931 . S
H1319 C1334 0.930 . S
C1320 H1308 0.930 . S
C1320 C1321 1.399 . S
C1320 C1325 1.399 . S
C1321 C1320 1.399 . S
C1321 C1322 1.376 . S
C1322 H1309 0.930 . S
C1322 C1321 1.376 . S
C1322 C1323 1.388 . S
C1323 H1310 0.930 . S
C1323 C1322 1.388 . S
C1323 C1324 1.390 . S
C1324 C1323 1.390 . S
C1324 C1325 1.394 . S
C1324 C1330 1.465 . S
C1325 C1320 1.399 . S
C1325 C1324 1.394 . S
C1325 C1326 1.516 . S
C1326 C1325 1.516 . S
C1326 C1327 1.502 . S
C1326 C1328 1.561 . S
C1326 C1329 1.526 . S
C1327 H1311 0.959 . S
C1327 H1312 0.959 . S
C1327 H1313 0.961 . S
C1327 C1326 1.502 . S
C1328 H1314 0.960 . S
C1328 H1315 0.961 . S
C1328 H1316 0.959 . S
C1328 C1326 1.561 . S
C1329 C1326 1.526 . S
C1329 C1330 1.396 . S
C1329 C1334 1.390 . S
C1330 C1324 1.465 . S
C1330 C1329 1.396 . S
C1330 C1331 1.399 . S
C1331 H1317 0.929 . S
C1331 C1330 1.399 . S
C1331 C1332 1.385 . S
C1332 H1318 0.931 . S
C1332 C1331 1.385 . S
C1332 C1333 1.389 . S
C1333 C1332 1.389 . S
C1333 C1334 1.387 . S
C1334 H1319 0.930 . S
C1334 C1329 1.390 . S
C1334 C1333 1.387 . S
H1335 C1347 0.930 . S
H1336 C1349 0.930 . S
H1337 C1350 0.930 . S
H1338 C1354 0.959 . S
H1339 C1354 0.959 . S
H1340 C1354 0.961 . S
H1341 C1355 0.960 . S
H1342 C1355 0.961 . S
H1343 C1355 0.959 . S
H1344 C1358 0.929 . S
H1345 C1359 0.931 . S
H1346 C1361 0.930 . S
C1347 H1335 0.930 . S
C1347 C1348 1.399 . S
C1347 C1352 1.399 . S
C1348 C1347 1.399 . S
C1348 C1349 1.376 . S
C1349 H1336 0.930 . S
C1349 C1348 1.376 . S
C1349 C1350 1.388 . S
C1350 H1337 0.930 . S
C1350 C1349 1.388 . S
C1350 C1351 1.390 . S
C1351 C1350 1.390 . S
C1351 C1352 1.394 . S
C1351 C1357 1.465 . S
C1352 C1347 1.399 . S
C1352 C1351 1.394 . S
C1352 C1353 1.516 . S
C1353 C1352 1.516 . S
C1353 C1354 1.502 . S
C1353 C1355 1.561 . S
C1353 C1356 1.526 . S
C1354 H1338 0.959 . S
C1354 H1339 0.959 . S
C1354 H1340 0.961 . S
C1354 C1353 1.502 . S
C1355 H1341 0.960 . S
C1355 H1342 0.961 . S
C1355 H1343 0.959 . S
C1355 C1353 1.561 . S
C1356 C1353 1.526 . S
C1356 C1357 1.396 . S
C1356 C1361 1.390 . S
C1357 C1351 1.465 . S
C1357 C1356 1.396 . S
C1357 C1358 1.399 . S
C1358 H1344 0.929 . S
C1358 C1357 1.399 . S
C1358 C1359 1.385 . S
C1359 H1345 0.931 . S
C1359 C1358 1.385 . S
C1359 C1360 1.389 . S
C1360 C1359 1.389 . S
C1360 C1361 1.387 . S
C1361 H1346 0.930 . S
C1361 C1356 1.390 . S
C1361 C1360 1.387 . S
H1362 C1374 0.930 . S
H1363 C1376 0.930 . S
H1364 C1377 0.930 . S
H1365 C1381 0.959 . S
H1366 C1381 0.959 . S
H1367 C1381 0.961 . S
H1368 C1382 0.960 . S
H1369 C1382 0.961 . S
H1370 C1382 0.959 . S
H1371 C1385 0.929 . S
H1372 C1386 0.931 . S
H1373 C1388 0.930 . S
C1374 H1362 0.930 . S
C1374 C1375 1.399 . S
C1374 C1379 1.399 . S
C1375 C1374 1.399 . S
C1375 C1376 1.376 . S
C1376 H1363 0.930 . S
C1376 C1375 1.376 . S
C1376 C1377 1.388 . S
C1377 H1364 0.930 . S
C1377 C1376 1.388 . S
C1377 C1378 1.390 . S
C1378 C1377 1.390 . S
C1378 C1379 1.394 . S
C1378 C1384 1.465 . S
C1379 C1374 1.399 . S
C1379 C1378 1.394 . S
C1379 C1380 1.516 . S
C1380 C1379 1.516 . S
C1380 C1381 1.502 . S
C1380 C1382 1.561 . S
C1380 C1383 1.526 . S
C1381 H1365 0.959 . S
C1381 H1366 0.959 . S
C1381 H1367 0.961 . S
C1381 C1380 1.502 . S
C1382 H1368 0.960 . S
C1382 H1369 0.961 . S
C1382 H1370 0.959 . S
C1382 C1380 1.561 . S
C1383 C1380 1.526 . S
C1383 C1384 1.396 . S
C1383 C1388 1.390 . S
C1384 C1378 1.465 . S
C1384 C1383 1.396 . S
C1384 C1385 1.399 . S
C1385 H1371 0.929 . S
C1385 C1384 1.399 . S
C1385 C1386 1.385 . S
C1386 H1372 0.931 . S
C1386 C1385 1.385 . S
C1386 C1387 1.389 . S
C1387 C1386 1.389 . S
C1387 C1388 1.387 . S
C1388 H1373 0.930 . S
C1388 C1383 1.390 . S
C1388 C1387 1.387 . S
H1389 C1401 0.930 . S
H1390 C1403 0.930 . S
H1391 C1404 0.930 . S
H1392 C1408 0.959 . S
H1393 C1408 0.959 . S
H1394 C1408 0.961 . S
H1395 C1409 0.960 . S
H1396 C1409 0.961 . S
H1397 C1409 0.959 . S
H1398 C1412 0.929 . S
H1399 C1413 0.931 . S
H1400 C1415 0.930 . S
C1401 H1389 0.930 . S
C1401 C1402 1.399 . S
C1401 C1406 1.399 . S
C1402 C1401 1.399 . S
C1402 C1403 1.376 . S
C1403 H1390 0.930 . S
C1403 C1402 1.376 . S
C1403 C1404 1.388 . S
C1404 H1391 0.930 . S
C1404 C1403 1.388 . S
C1404 C1405 1.390 . S
C1405 C1404 1.390 . S
C1405 C1406 1.394 . S
C1405 C1411 1.465 . S
C1406 C1401 1.399 . S
C1406 C1405 1.394 . S
C1406 C1407 1.516 . S
C1407 C1406 1.516 . S
C1407 C1408 1.502 . S
C1407 C1409 1.561 . S
C1407 C1410 1.526 . S
C1408 H1392 0.959 . S
C1408 H1393 0.959 . S
C1408 H1394 0.961 . S
C1408 C1407 1.502 . S
C1409 H1395 0.960 . S
C1409 H1396 0.961 . S
C1409 H1397 0.959 . S
C1409 C1407 1.561 . S
C1410 C1407 1.526 . S
C1410 C1411 1.396 . S
C1410 C1415 1.390 . S
C1411 C1405 1.465 . S
C1411 C1410 1.396 . S
C1411 C1412 1.399 . S
C1412 H1398 0.929 . S
C1412 C1411 1.399 . S
C1412 C1413 1.385 . S
C1413 H1399 0.931 . S
C1413 C1412 1.385 . S
C1413 C1414 1.389 . S
C1414 C1413 1.389 . S
C1414 C1415 1.387 . S
C1415 H1400 0.930 . S
C1415 C1410 1.390 . S
C1415 C1414 1.387 . S
H1416 C1428 0.930 . S
H1417 C1430 0.930 . S
H1418 C1431 0.930 . S
H1419 C1435 0.959 . S
H1420 C1435 0.959 . S
H1421 C1435 0.961 . S
H1422 C1436 0.960 . S
H1423 C1436 0.961 . S
H1424 C1436 0.959 . S
H1425 C1439 0.929 . S
H1426 C1440 0.931 . S
H1427 C1442 0.930 . S
C1428 H1416 0.930 . S
C1428 C1429 1.399 . S
C1428 C1433 1.399 . S
C1429 C1428 1.399 . S
C1429 C1430 1.376 . S
C1430 H1417 0.930 . S
C1430 C1429 1.376 . S
C1430 C1431 1.388 . S
C1431 H1418 0.930 . S
C1431 C1430 1.388 . S
C1431 C1432 1.390 . S
C1432 C1431 1.390 . S
C1432 C1433 1.394 . S
C1432 C1438 1.465 . S
C1433 C1428 1.399 . S
C1433 C1432 1.394 . S
C1433 C1434 1.516 . S
C1434 C1433 1.516 . S
C1434 C1435 1.502 . S
C1434 C1436 1.561 . S
C1434 C1437 1.526 . S
C1435 H1419 0.959 . S
C1435 H1420 0.959 . S
C1435 H1421 0.961 . S
C1435 C1434 1.502 . S
C1436 H1422 0.960 . S
C1436 H1423 0.961 . S
C1436 H1424 0.959 . S
C1436 C1434 1.561 . S
C1437 C1434 1.526 . S
C1437 C1438 1.396 . S
C1437 C1442 1.390 . S
C1438 C1432 1.465 . S
C1438 C1437 1.396 . S
C1438 C1439 1.399 . S
C1439 H1425 0.929 . S
C1439 C1438 1.399 . S
C1439 C1440 1.385 . S
C1440 H1426 0.931 . S
C1440 C1439 1.385 . S
C1440 C1441 1.389 . S
C1441 C1440 1.389 . S
C1441 C1442 1.387 . S
C1442 H1427 0.930 . S
C1442 C1437 1.390 . S
C1442 C1441 1.387 . S
H1443 C1455 0.930 . S
H1444 C1457 0.930 . S
H1445 C1458 0.930 . S
H1446 C1462 0.959 . S
H1447 C1462 0.959 . S
H1448 C1462 0.961 . S
H1449 C1463 0.960 . S
H1450 C1463 0.961 . S
H1451 C1463 0.959 . S
H1452 C1466 0.929 . S
H1453 C1467 0.931 . S
H1454 C1469 0.930 . S
C1455 H1443 0.930 . S
C1455 C1456 1.399 . S
C1455 C1460 1.399 . S
C1456 C1455 1.399 . S
C1456 C1457 1.376 . S
C1457 H1444 0.930 . S
C1457 C1456 1.376 . S
C1457 C1458 1.388 . S
C1458 H1445 0.930 . S
C1458 C1457 1.388 . S
C1458 C1459 1.390 . S
C1459 C1458 1.390 . S
C1459 C1460 1.394 . S
C1459 C1465 1.465 . S
C1460 C1455 1.399 . S
C1460 C1459 1.394 . S
C1460 C1461 1.516 . S
C1461 C1460 1.516 . S
C1461 C1462 1.502 . S
C1461 C1463 1.561 . S
C1461 C1464 1.526 . S
C1462 H1446 0.959 . S
C1462 H1447 0.959 . S
C1462 H1448 0.961 . S
C1462 C1461 1.502 . S
C1463 H1449 0.960 . S
C1463 H1450 0.961 . S
C1463 H1451 0.959 . S
C1463 C1461 1.561 . S
C1464 C1461 1.526 . S
C1464 C1465 1.396 . S
C1464 C1469 1.390 . S
C1465 C1459 1.465 . S
C1465 C1464 1.396 . S
C1465 C1466 1.399 . S
C1466 H1452 0.929 . S
C1466 C1465 1.399 . S
C1466 C1467 1.385 . S
C1467 H1453 0.931 . S
C1467 C1466 1.385 . S
C1467 C1468 1.389 . S
C1468 C1467 1.389 . S
C1468 C1469 1.387 . S
C1469 H1454 0.930 . S
C1469 C1464 1.390 . S
C1469 C1468 1.387 . S
H1470 C1482 0.930 . S
H1471 C1484 0.930 . S
H1472 C1485 0.930 . S
H1473 C1489 0.959 . S
H1474 C1489 0.959 . S
H1475 C1489 0.961 . S
H1476 C1490 0.960 . S
H1477 C1490 0.961 . S
H1478 C1490 0.959 . S
H1479 C1493 0.929 . S
H1480 C1494 0.931 . S
H1481 C1496 0.930 . S
C1482 H1470 0.930 . S
C1482 C1483 1.399 . S
C1482 C1487 1.399 . S
C1483 C1482 1.399 . S
C1483 C1484 1.376 . S
C1484 H1471 0.930 . S
C1484 C1483 1.376 . S
C1484 C1485 1.388 . S
C1485 H1472 0.930 . S
C1485 C1484 1.388 . S
C1485 C1486 1.390 . S
C1486 C1485 1.390 . S
C1486 C1487 1.394 . S
C1486 C1492 1.465 . S
C1487 C1482 1.399 . S
C1487 C1486 1.394 . S
C1487 C1488 1.516 . S
C1488 C1487 1.516 . S
C1488 C1489 1.502 . S
C1488 C1490 1.561 . S
C1488 C1491 1.526 . S
C1489 H1473 0.959 . S
C1489 H1474 0.959 . S
C1489 H1475 0.961 . S
C1489 C1488 1.502 . S
C1490 H1476 0.960 . S
C1490 H1477 0.961 . S
C1490 H1478 0.959 . S
C1490 C1488 1.561 . S
C1491 C1488 1.526 . S
C1491 C1492 1.396 . S
C1491 C1496 1.390 . S
C1492 C1486 1.465 . S
C1492 C1491 1.396 . S
C1492 C1493 1.399 . S
C1493 H1479 0.929 . S
C1493 C1492 1.399 . S
C1493 C1494 1.385 . S
C1494 H1480 0.931 . S
C1494 C1493 1.385 . S
C1494 C1495 1.389 . S
C1495 C1494 1.389 . S
C1495 C1496 1.387 . S
C1496 H1481 0.930 . S
C1496 C1491 1.390 . S
C1496 C1495 1.387 . S
H1497 C1509 0.930 . S
H1498 C1511 0.930 . S
H1499 C1512 0.930 . S
H1500 C1516 0.959 . S
H1501 C1516 0.959 . S
H1502 C1516 0.961 . S
H1503 C1517 0.960 . S
H1504 C1517 0.961 . S
H1505 C1517 0.959 . S
H1506 C1520 0.929 . S
H1507 C1521 0.931 . S
H1508 C1523 0.930 . S
C1509 H1497 0.930 . S
C1509 C1510 1.399 . S
C1509 C1514 1.399 . S
C1510 C1509 1.399 . S
C1510 C1511 1.376 . S
C1511 H1498 0.930 . S
C1511 C1510 1.376 . S
C1511 C1512 1.388 . S
C1512 H1499 0.930 . S
C1512 C1511 1.388 . S
C1512 C1513 1.390 . S
C1513 C1512 1.390 . S
C1513 C1514 1.394 . S
C1513 C1519 1.465 . S
C1514 C1509 1.399 . S
C1514 C1513 1.394 . S
C1514 C1515 1.516 . S
C1515 C1514 1.516 . S
C1515 C1516 1.502 . S
C1515 C1517 1.561 . S
C1515 C1518 1.526 . S
C1516 H1500 0.959 . S
C1516 H1501 0.959 . S
C1516 H1502 0.961 . S
C1516 C1515 1.502 . S
C1517 H1503 0.960 . S
C1517 H1504 0.961 . S
C1517 H1505 0.959 . S
C1517 C1515 1.561 . S
C1518 C1515 1.526 . S
C1518 C1519 1.396 . S
C1518 C1523 1.390 . S
C1519 C1513 1.465 . S
C1519 C1518 1.396 . S
C1519 C1520 1.399 . S
C1520 H1506 0.929 . S
C1520 C1519 1.399 . S
C1520 C1521 1.385 . S
C1521 H1507 0.931 . S
C1521 C1520 1.385 . S
C1521 C1522 1.389 . S
C1522 C1521 1.389 . S
C1522 C1523 1.387 . S
C1523 H1508 0.930 . S
C1523 C1518 1.390 . S
C1523 C1522 1.387 . S
H1524 C1536 0.930 . S
H1525 C1538 0.930 . S
H1526 C1539 0.930 . S
H1527 C1543 0.959 . S
H1528 C1543 0.959 . S
H1529 C1543 0.961 . S
H1530 C1544 0.960 . S
H1531 C1544 0.961 . S
H1532 C1544 0.959 . S
H1533 C1547 0.929 . S
H1534 C1548 0.931 . S
H1535 C1550 0.930 . S
C1536 H1524 0.930 . S
C1536 C1537 1.399 . S
C1536 C1541 1.399 . S
C1537 C1536 1.399 . S
C1537 C1538 1.376 . S
C1538 H1525 0.930 . S
C1538 C1537 1.376 . S
C1538 C1539 1.388 . S
C1539 H1526 0.930 . S
C1539 C1538 1.388 . S
C1539 C1540 1.390 . S
C1540 C1539 1.390 . S
C1540 C1541 1.394 . S
C1540 C1546 1.465 . S
C1541 C1536 1.399 . S
C1541 C1540 1.394 . S
C1541 C1542 1.516 . S
C1542 C1541 1.516 . S
C1542 C1543 1.502 . S
C1542 C1544 1.561 . S
C1542 C1545 1.526 . S
C1543 H1527 0.959 . S
C1543 H1528 0.959 . S
C1543 H1529 0.961 . S
C1543 C1542 1.502 . S
C1544 H1530 0.960 . S
C1544 H1531 0.961 . S
C1544 H1532 0.959 . S
C1544 C1542 1.561 . S
C1545 C1542 1.526 . S
C1545 C1546 1.396 . S
C1545 C1550 1.390 . S
C1546 C1540 1.465 . S
C1546 C1545 1.396 . S
C1546 C1547 1.399 . S
C1547 H1533 0.929 . S
C1547 C1546 1.399 . S
C1547 C1548 1.385 . S
C1548 H1534 0.931 . S
C1548 C1547 1.385 . S
C1548 C1549 1.389 . S
C1549 C1548 1.389 . S
C1549 C1550 1.387 . S
C1550 H1535 0.930 . S
C1550 C1545 1.390 . S
C1550 C1549 1.387 . S
H1551 C1563 0.930 . S
H1552 C1565 0.930 . S
H1553 C1566 0.930 . S
H1554 C1570 0.959 . S
H1555 C1570 0.959 . S
H1556 C1570 0.961 . S
H1557 C1571 0.960 . S
H1558 C1571 0.961 . S
H1559 C1571 0.959 . S
H1560 C1574 0.929 . S
H1561 C1575 0.931 . S
H1562 C1577 0.930 . S
C1563 H1551 0.930 . S
C1563 C1564 1.399 . S
C1563 C1568 1.399 . S
C1564 C1563 1.399 . S
C1564 C1565 1.376 . S
C1565 H1552 0.930 . S
C1565 C1564 1.376 . S
C1565 C1566 1.388 . S
C1566 H1553 0.930 . S
C1566 C1565 1.388 . S
C1566 C1567 1.390 . S
C1567 C1566 1.390 . S
C1567 C1568 1.394 . S
C1567 C1573 1.465 . S
C1568 C1563 1.399 . S
C1568 C1567 1.394 . S
C1568 C1569 1.516 . S
C1569 C1568 1.516 . S
C1569 C1570 1.502 . S
C1569 C1571 1.561 . S
C1569 C1572 1.526 . S
C1570 H1554 0.959 . S
C1570 H1555 0.959 . S
C1570 H1556 0.961 . S
C1570 C1569 1.502 . S
C1571 H1557 0.960 . S
C1571 H1558 0.961 . S
C1571 H1559 0.959 . S
C1571 C1569 1.561 . S
C1572 C1569 1.526 . S
C1572 C1573 1.396 . S
C1572 C1577 1.390 . S
C1573 C1567 1.465 . S
C1573 C1572 1.396 . S
C1573 C1574 1.399 . S
C1574 H1560 0.929 . S
C1574 C1573 1.399 . S
C1574 C1575 1.385 . S
C1575 H1561 0.931 . S
C1575 C1574 1.385 . S
C1575 C1576 1.389 . S
C1576 C1575 1.389 . S
C1576 C1577 1.387 . S
C1577 H1562 0.930 . S
C1577 C1572 1.390 . S
C1577 C1576 1.387 . S
H1578 C1590 0.930 . S
H1579 C1592 0.930 . S
H1580 C1593 0.930 . S
H1581 C1597 0.959 . S
H1582 C1597 0.959 . S
H1583 C1597 0.961 . S
H1584 C1598 0.960 . S
H1585 C1598 0.961 . S
H1586 C1598 0.959 . S
H1587 C1601 0.929 . S
H1588 C1602 0.931 . S
H1589 C1604 0.930 . S
C1590 H1578 0.930 . S
C1590 C1591 1.399 . S
C1590 C1595 1.399 . S
C1591 C1590 1.399 . S
C1591 C1592 1.376 . S
C1592 H1579 0.930 . S
C1592 C1591 1.376 . S
C1592 C1593 1.388 . S
C1593 H1580 0.930 . S
C1593 C1592 1.388 . S
C1593 C1594 1.390 . S
C1594 C1593 1.390 . S
C1594 C1595 1.394 . S
C1594 C1600 1.465 . S
C1595 C1590 1.399 . S
C1595 C1594 1.394 . S
C1595 C1596 1.516 . S
C1596 C1595 1.516 . S
C1596 C1597 1.502 . S
C1596 C1598 1.561 . S
C1596 C1599 1.526 . S
C1597 H1581 0.959 . S
C1597 H1582 0.959 . S
C1597 H1583 0.961 . S
C1597 C1596 1.502 . S
C1598 H1584 0.960 . S
C1598 H1585 0.961 . S
C1598 H1586 0.959 . S
C1598 C1596 1.561 . S
C1599 C1596 1.526 . S
C1599 C1600 1.396 . S
C1599 C1604 1.390 . S
C1600 C1594 1.465 . S
C1600 C1599 1.396 . S
C1600 C1601 1.399 . S
C1601 H1587 0.929 . S
C1601 C1600 1.399 . S
C1601 C1602 1.385 . S
C1602 H1588 0.931 . S
C1602 C1601 1.385 . S
C1602 C1603 1.389 . S
C1603 C1602 1.389 . S
C1603 C1604 1.387 . S
C1604 H1589 0.930 . S
C1604 C1599 1.390 . S
C1604 C1603 1.387 . S
H1605 C1617 0.930 . S
H1606 C1619 0.930 . S
H1607 C1620 0.930 . S
H1608 C1624 0.959 . S
H1609 C1624 0.959 . S
H1610 C1624 0.961 . S
H1611 C1625 0.960 . S
H1612 C1625 0.961 . S
H1613 C1625 0.959 . S
H1614 C1628 0.929 . S
H1615 C1629 0.931 . S
H1616 C1631 0.930 . S
C1617 H1605 0.930 . S
C1617 C1618 1.399 . S
C1617 C1622 1.399 . S
C1618 C1617 1.399 . S
C1618 C1619 1.376 . S
C1619 H1606 0.930 . S
C1619 C1618 1.376 . S
C1619 C1620 1.388 . S
C1620 H1607 0.930 . S
C1620 C1619 1.388 . S
C1620 C1621 1.390 . S
C1621 C1620 1.390 . S
C1621 C1622 1.394 . S
C1621 C1627 1.465 . S
C1622 C1617 1.399 . S
C1622 C1621 1.394 . S
C1622 C1623 1.516 . S
C1623 C1622 1.516 . S
C1623 C1624 1.502 . S
C1623 C1625 1.561 . S
C1623 C1626 1.526 . S
C1624 H1608 0.959 . S
C1624 H1609 0.959 . S
C1624 H1610 0.961 . S
C1624 C1623 1.502 . S
C1625 H1611 0.960 . S
C1625 H1612 0.961 . S
C1625 H1613 0.959 . S
C1625 C1623 1.561 . S
C1626 C1623 1.526 . S
C1626 C1627 1.396 . S
C1626 C1631 1.390 . S
C1627 C1621 1.465 . S
C1627 C1626 1.396 . S
C1627 C1628 1.399 . S
C1628 H1614 0.929 . S
C1628 C1627 1.399 . S
C1628 C1629 1.385 . S
C1629 H1615 0.931 . S
C1629 C1628 1.385 . S
C1629 C1630 1.389 . S
C1630 C1629 1.389 . S
C1630 C1631 1.387 . S
C1631 H1616 0.930 . S
C1631 C1626 1.390 . S
C1631 C1630 1.387 . S
C349 C203 1.459 . S
C361 C11 1.435 . S
C376 C21 1.467 . S
C388 C221 1.448 . S
C403 C260 1.512 . S
C415 C36 1.491 . S
C430 C55 1.262 . S
C442 C195 1.233 . S
C457 C209 1.332 . S
C469 C69 1.316 . S
C484 C78 1.450 . S
C496 C218 1.500 . S
C511 C91 1.466 . S
C523 C263 1.443 . S
C538 C109 1.464 . S
C550 C189 1.468 . S
C565 C133 1.463 . S
C577 C123 1.459 . S
C592 C153 1.255 . S
C604 C139 1.233 . S
C619 C147 1.468 . S
C631 C165 1.464 . S
C646 C162 1.527 . S
C658 C120 1.448 . S
C673 C179 1.468 . S
C685 C49 1.467 . S
C700 C63 1.461 . S
C712 C235 1.421 . S
C727 C251 1.328 . S
C739 C27 1.324 . S
C754 C25 1.267 . S
C766 C307 1.237 . S
C781 C137 1.255 . S
C793 C13 1.196 . S
C808 C330 1.266 . S
C820 C50 1.291 . S
C835 C161 1.284 . S
C847 C35 1.280 . S
C862 C301 1.268 . S
C874 C105 1.286 . S
C889 C134 1.213 . S
C901 C92 1.207 . S
C916 C83 1.220 . S
C928 C333 1.263 . S
C943 C67 1.267 . S
C955 C167 1.256 . S
C970 C223 1.168 . S
C982 C277 1.229 . S
C997 C231 1.286 . S
C1009 C217 1.276 . S
C1024 C193 1.265 . S
C1036 C237 1.224 . S
C1051 C274 1.223 . S
C1063 C190 1.208 . S
C1078 C41 1.239 . S
C1090 C291 1.267 . S
C1105 C151 1.268 . S
C1117 C111 1.254 . S
C1132 C7 1.282 . S
C1144 C315 1.266 . S
C1159 C273 1.463 . S
C1171 C39 1.429 . S
C1186 C8 1.446 . S
C1198 C232 1.507 . S
C1213 C279 1.235 . S
C1225 C97 1.275 . S
C1240 C176 1.528 . S
C1252 C106 1.463 . S
C1267 C81 1.421 . S
C1279 C245 1.459 . S
C1294 C305 1.419 . S
C1306 C287 1.460 . S
C1321 C335 1.333 . S
C1333 C293 1.306 . S
C1348 C319 1.467 . S
C1360 C329 1.468 . S
C1375 C302 1.492 . S
C1387 C316 1.456 . S
C1402 C125 1.183 . S
C1414 C53 1.229 . S
C1429 C22 1.209 . S
C1441 C148 1.209 . S
C1456 C77 1.278 . S
C1468 C119 1.285 . S
C1483 C288 1.253 . S
C1495 C64 1.223 . S
C1510 C95 1.263 . S
C1522 C321 1.258 . S
C1537 C181 1.224 . S
C1549 C207 1.264 . S
C1564 C259 1.286 . S
C1576 C175 1.269 . S
C1591 C249 1.228 . S
C1603 C265 1.177 . S
C1618 C204 1.297 . S
C1630 C246 1.290 . S
