# Generated by pormake.
# Topology lvt, (4)-cn, num edge types: 1
# Building blocks:
#     Node 0, Type 0, BuildingBlock: ESEHIV_clean_sbu_0, # of connection points: 4
#     Node 1, Type 0, BuildingBlock: ESEHIV_clean_sbu_0, # of connection points: 4
#     Node 2, Type 0, BuildingBlock: ESEHIV_clean_sbu_0, # of connection points: 4
#     Node 3, Type 0, BuildingBlock: ESEHIV_clean_sbu_0, # of connection points: 4
#     Node 4, Type 0, BuildingBlock: ESEHIV_clean_sbu_0, # of connection points: 4
#     Node 5, Type 0, BuildingBlock: ESEHIV_clean_sbu_0, # of connection points: 4
#     Node 6, Type 0, BuildingBlock: ESEHIV_clean_sbu_0, # of connection points: 4
#     Node 7, Type 0, BuildingBlock: ESEHIV_clean_sbu_0, # of connection points: 4
#     Edge 8, Type (0, 0), BuildingBlock: MIFKUJ_clean_linker_0, # of connection points: 2
#     Edge 9, Type (0, 0), BuildingBlock: MIFKUJ_clean_linker_0, # of connection points: 2
#     Edge 10, Type (0, 0), BuildingBlock: MIFKUJ_clean_linker_0, # of connection points: 2
#     Edge 11, Type (0, 0), BuildingBlock: MIFKUJ_clean_linker_0, # of connection points: 2
#     Edge 12, Type (0, 0), BuildingBlock: MIFKUJ_clean_linker_0, # of connection points: 2
#     Edge 13, Type (0, 0), BuildingBlock: MIFKUJ_clean_linker_0, # of connection points: 2
#     Edge 14, Type (0, 0), BuildingBlock: MIFKUJ_clean_linker_0, # of connection points: 2
#     Edge 15, Type (0, 0), BuildingBlock: MIFKUJ_clean_linker_0, # of connection points: 2
#     Edge 16, Type (0, 0), BuildingBlock: MIFKUJ_clean_linker_0, # of connection points: 2
#     Edge 17, Type (0, 0), BuildingBlock: MIFKUJ_clean_linker_0, # of connection points: 2
#     Edge 18, Type (0, 0), BuildingBlock: MIFKUJ_clean_linker_0, # of connection points: 2
#     Edge 19, Type (0, 0), BuildingBlock: MIFKUJ_clean_linker_0, # of connection points: 2
#     Edge 20, Type (0, 0), BuildingBlock: MIFKUJ_clean_linker_0, # of connection points: 2
#     Edge 21, Type (0, 0), BuildingBlock: MIFKUJ_clean_linker_0, # of connection points: 2
#     Edge 22, Type (0, 0), BuildingBlock: MIFKUJ_clean_linker_0, # of connection points: 2
#     Edge 23, Type (0, 0), BuildingBlock: MIFKUJ_clean_linker_0, # of connection points: 2
# Relax obj value: 0.002
# Max RMSD: 0.098
# Mean RMSD: 0.094
data_MOF--net-lvt--node1-ESEHIV_clean_sbu_0--edge1-MIFKUJ_clean_linker_0
_symmetry_space_group_name_H-M    P1
_symmetry_Int_Tables_number       1
_symmetry_cell_setting            triclinic
loop_
_symmetry_equiv_pos_as_xyz
'x, y, z'
_cell_length_a     49.866968
_cell_length_b     49.392381
_cell_length_c     41.274644
_cell_angle_alpha  95.725519
_cell_angle_beta   90.465204
_cell_angle_gamma 94.573315
loop_
_atom_site_label
_atom_site_type_symbol
_atom_site_fract_x
_atom_site_fract_y
_atom_site_fract_z
_atom_type_partial_charge
Cu0 Cu 0.03848 0.02628 0.505 0.0
N1 N 0.06259 0.9993 0.50766 0.0
N2 N 0.08729 0.96966 0.52985 0.0
C3 C 0.0692 0.98859 0.53515 0.0
C4 C 0.09207 0.96846 0.49755 0.0
C5 C 0.07682 0.9867 0.48397 0.0
O6 O 1.01124 1.01947 0.53762 0.0
C7 C 0.08208 0.06726 0.50667 0.0
O8 O 0.09734 0.04679 0.50658 0.0
H9 H 0.06067 0.99458 0.55854 0.0
H10 H 0.07639 0.99075 0.4587 0.0
N11 N 0.02273 0.02484 0.46353 0.0
N12 N 1.00349 0.04087 0.42085 0.0
C13 C 1.01385 0.04682 0.4513 0.0
C14 C 0.01799 1.00406 0.44004 0.0
C15 C 1.00605 1.01388 0.41367 0.0
C16 C 0.98614 1.01496 0.53121 0.0
O17 O 0.97706 1.01862 0.50215 0.0
H18 H 1.01448 0.06671 0.465 0.0
H19 H 0.02282 0.98331 0.44195 0.0
O20 O 0.05684 0.06289 0.51053 0.0
H21 H 0.106 0.95577 0.4846 0.0
H22 H 0.99992 1.00204 0.39098 0.0
Cu23 Cu 0.28324 0.78012 0.77876 0.0
N24 N 0.25333 0.80079 0.78014 0.0
N25 N 0.22195 0.82529 0.76085 0.0
C26 C 0.24422 0.81203 0.75417 0.0
C27 C 0.21689 0.82233 0.79247 0.0
C28 C 0.23622 0.80707 0.80427 0.0
O29 O 0.28192 0.7632 0.73372 0.0
C30 C 0.31488 0.81444 0.82279 0.0
O31 O 0.29346 0.80858 0.83988 0.0
H32 H 0.25394 0.81055 0.73079 0.0
H33 H 0.23749 0.80074 0.82855 0.0
N34 N 0.2802 0.75253 0.80683 0.0
N35 N 0.29321 0.71903 0.83464 0.0
C36 C 0.30118 0.74093 0.81893 0.0
C37 C 0.25808 0.73769 0.81543 0.0
C38 C 0.26605 0.71697 0.83258 0.0
C39 C 0.28211 0.73757 0.72592 0.0
O40 O 0.29088 0.72218 0.74723 0.0
H41 H 0.32193 0.74746 0.81443 0.0
H42 H 0.23772 0.741 0.80853 0.0
O43 O 0.31528 0.80421 0.79313 0.0
H44 H 0.20012 0.83009 0.80593 0.0
H45 H 0.25287 0.70127 0.84208 0.0
Cu46 Cu 0.54925 0.04056 0.02784 0.0
N47 N 0.57638 0.04022 0.9965 0.0
N48 N 0.6094 0.0238 0.96574 0.0
C49 C 0.593 1.02007 0.99109 0.0
C50 C 0.60284 0.04737 0.95487 0.0
C51 C 0.58252 0.05749 0.97394 0.0
O52 O 0.52682 1.00589 0.01871 0.0
C53 C 0.58045 0.07278 0.07211 0.0
O54 O 0.57984 0.08672 0.04664 0.0
H55 H 0.59225 1.00243 1.00475 0.0
H56 H 0.57256 0.07581 0.97114 0.0
N57 N 0.5261 0.06859 0.02588 0.0
N58 N 0.49746 0.09918 0.04417 0.0
C59 C 0.51531 0.08173 0.05226 0.0
C60 C 0.51465 0.07803 1.00006 0.0
C61 C 0.49692 0.09687 1.01128 0.0
C62 C 0.5208 0.99957 0.98855 0.0
O63 O 0.52977 1.01613 0.96737 0.0
H64 H 0.5197 0.0777 0.07698 0.0
H65 H 0.51837 0.0712 0.9749 0.0
O66 O 0.56802 0.04899 0.07006 0.0
H67 H 0.6119 0.05657 0.93445 0.0
H68 H 0.4844 0.10778 0.99638 0.0
Cu69 Cu 0.28328 0.28484 0.27524 0.0
N70 N 0.25004 0.2641 0.27385 0.0
N71 N 0.21549 0.23956 0.29399 0.0
C72 C 0.24002 0.25281 0.30003 0.0
C73 C 0.20977 0.24265 0.26261 0.0
C74 C 0.23118 0.2577 0.25018 0.0
O75 O 0.28344 0.30549 0.3184 0.0
C76 C 0.30946 0.24629 0.2387 0.0
O77 O 0.28819 0.24891 0.22063 0.0
H78 H 0.25043 0.25479 0.32336 0.0
H79 H 0.23284 0.26336 0.22561 0.0
N80 N 0.28745 0.30914 0.24312 0.0
N81 N 0.30871 0.33938 0.21298 0.0
C82 C 0.31079 0.32356 0.2377 0.0
C83 C 0.2698 0.31597 0.22115 0.0
C84 C 0.28281 0.33453 0.20255 0.0
C85 C 0.2723 0.32799 0.32084 0.0
O86 O 0.26513 0.3381 0.29416 0.0
H87 H 0.32881 0.3225 0.25208 0.0
H88 H 0.24892 0.30827 0.2189 0.0
O89 O 0.31179 0.26007 0.2666 0.0
H90 H 0.19161 0.23431 0.24947 0.0
H91 H 0.2737 0.34352 0.18277 0.0
Cu92 Cu 0.80475 0.28239 0.25328 0.0
N93 N 0.79822 0.29941 0.21573 0.0
N94 N 0.77679 0.32027 0.17848 0.0
C95 C 0.77488 0.30902 0.20706 0.0
C96 C 0.8024 0.31759 0.16898 0.0
C97 C 0.81553 0.30479 0.19197 0.0
O98 O 0.76998 0.26421 0.26332 0.0
C99 C 0.82695 0.30824 0.31532 0.0
O100 O 0.81968 0.28526 0.32753 0.0
H101 H 0.75682 0.30749 0.22134 0.0
H102 H 0.83627 0.29985 0.1915 0.0
N103 N 0.82881 0.25542 0.2438 0.0
N104 N 0.85682 0.22306 0.25061 0.0
C105 C 0.84582 0.2455 0.26444 0.0
C106 C 0.82934 0.23891 0.21589 0.0
C107 C 0.84656 0.21898 0.21998 0.0
C108 C 0.76724 0.24052 0.27324 0.0
O109 O 0.78846 0.22999 0.28425 0.0
H110 H 0.84875 0.25347 0.28968 0.0
H111 H 0.81709 0.24053 0.19454 0.0
O112 O 0.82103 0.31074 0.28573 0.0
H113 H 0.81125 0.32478 0.14725 0.0
H114 H 0.85064 0.20237 0.20203 0.0
Cu115 Cu 0.79449 0.78343 0.77084 0.0
N116 N 0.76537 0.75685 0.76917 0.0
N117 N 0.73279 0.72839 0.78697 0.0
C118 C 0.75074 0.75005 0.79493 0.0
C119 C 0.73622 0.72143 0.75487 0.0
C120 C 0.75642 0.73889 0.74403 0.0
O121 O 0.78615 0.81241 0.80444 0.0
C122 C 0.8288 0.74122 0.78219 0.0
O123 O 0.80707 0.7287 0.79328 0.0
H124 H 0.75376 0.7604 0.81921 0.0
H125 H 0.76474 0.73781 0.71987 0.0
N126 N 0.79826 0.79975 0.73185 0.0
N127 N 0.8157 0.82766 0.69644 0.0
C128 C 0.81824 0.81859 0.72607 0.0
C129 C 0.78243 0.79671 0.70498 0.0
C130 C 0.79313 0.81386 0.68311 0.0
C131 C 0.76605 0.82506 0.79666 0.0
O132 O 0.75379 0.81738 0.76857 0.0
H133 H 0.83396 0.82592 0.74374 0.0
H134 H 0.76416 0.78336 0.70166 0.0
O135 O 0.82809 0.76579 0.77533 0.0
H136 H 0.72577 0.70416 0.74056 0.0
H137 H 0.78489 0.81588 0.65922 0.0
Cu138 Cu 0.53388 0.51419 0.99744 0.0
N139 N 0.50616 0.51404 0.96627 0.0
N140 N 0.47332 0.53049 0.93857 0.0
C141 C 0.49252 0.53593 0.9621 0.0
C142 C 0.47493 0.504 0.92753 0.0
C143 C 0.49527 0.49392 0.94458 0.0
O144 O 0.55773 0.5469 0.99217 0.0
C145 C 0.49851 0.49224 0.03917 0.0
O146 O 0.4947 0.47536 0.0126 0.0
H147 H 0.49643 0.5554 0.97652 0.0
H148 H 0.50147 0.47335 0.94157 0.0
N149 N 0.55425 0.48382 0.99161 0.0
N150 N 0.58261 0.45319 1.00393 0.0
C151 C 0.56839 0.47421 0.01538 0.0
C152 C 0.55961 0.46836 0.9641 0.0
C153 C 0.57706 0.44946 0.97161 0.0
C154 C 0.56402 0.5492 0.96259 0.0
O155 O 0.55542 0.52962 0.94016 0.0
H156 H 0.56888 0.48316 0.04042 0.0
H157 H 0.55184 0.47098 0.94018 0.0
O158 O 0.51615 0.51244 0.03928 0.0
H159 H 0.46251 0.49276 0.9083 0.0
H160 H 0.5851 0.43425 0.95448 0.0
Cu161 Cu 0.04672 0.52052 0.55103 0.0
N162 N 0.02909 0.52992 0.59019 0.0
N163 N 1.00516 0.55288 0.62798 0.0
C164 C 1.01502 0.55194 0.59748 0.0
C165 C 1.01327 0.53051 0.64027 0.0
C166 C 0.02808 0.51649 0.61702 0.0
O167 O 0.07606 0.54852 0.54678 0.0
C168 C 0.02428 0.49977 0.48924 0.0
O169 O 0.04916 0.49442 0.48272 0.0
H170 H 1.01171 0.56679 0.58061 0.0
H171 H 0.03762 0.49791 0.61963 0.0
N172 N 0.06306 0.48769 0.5521 0.0
N173 N 0.09113 0.45542 0.53742 0.0
C174 C 0.08691 0.48227 0.53879 0.0
C175 C 0.05176 0.46352 0.55959 0.0
C176 C 0.06903 0.44365 0.55077 0.0
C177 C 0.07428 0.57406 0.54639 0.0
O178 O 0.05048 0.58333 0.54388 0.0
H179 H 0.10021 0.49763 0.52888 0.0
H180 H 0.03167 0.46031 0.56893 0.0
O181 O 0.01958 0.5137 0.516 0.0
H182 H 1.00924 0.52492 0.66456 0.0
H183 H 0.06477 0.42199 0.55226 0.0
H184 H 0.05425 0.10656 0.48187 0.0
H185 H 0.07268 0.14282 0.45013 0.0
H186 H 0.15305 0.12163 0.46964 0.0
H187 H 0.13485 0.08542 0.5014 0.0
H188 H 0.14951 0.17841 0.46951 0.0
H189 H 0.11927 0.09346 0.40228 0.0
H190 H 0.08397 0.05745 0.38303 0.0
H191 H 0.03622 0.11768 0.34873 0.0
H192 H 0.07106 0.1541 0.36831 0.0
H193 H 0.23315 0.21338 0.34353 0.0
H194 H 0.20605 0.19031 0.38297 0.0
H195 H 0.13359 0.21014 0.33591 0.0
H196 H 0.16088 0.23297 0.29579 0.0
H197 H 0.12657 0.16032 0.35167 0.0
H198 H 0.15545 0.24444 0.41018 0.0
H199 H 0.18696 0.2835 0.43076 0.0
H200 H 0.23183 0.23059 0.4829 0.0
H201 H 0.20076 0.19113 0.46231 0.0
C202 C 0.07588 0.11009 0.48021 0.0
C203 C 0.09308 0.09291 0.49399 0.0
C204 C 0.08638 0.13076 0.46187 0.0
C205 C 0.11423 0.13466 0.45708 0.0
C206 C 0.1315 0.11894 0.47291 0.0
C207 C 0.12104 0.0982 0.49104 0.0
C208 C 0.12541 0.15299 0.43313 0.0
C209 C 0.1446 0.17445 0.44373 0.0
C210 C 0.11815 0.14853 0.39965 0.0
C211 C 0.09766 0.12651 0.38699 0.0
C212 C 0.1012 0.09902 0.39074 0.0
C213 C 0.08127 0.07855 0.3798 0.0
C214 C 0.05786 0.08528 0.36469 0.0
C215 C 0.05437 0.1125 0.36044 0.0
C216 C 0.07419 0.13306 0.37146 0.0
C217 C 0.21146 0.21304 0.34167 0.0
C218 C 0.1992 0.22527 0.31667 0.0
C219 C 0.19593 0.19987 0.36434 0.0
C220 C 0.1677 0.19897 0.36299 0.0
C221 C 0.15532 0.21066 0.33763 0.0
C222 C 0.17092 0.22366 0.31466 0.0
C223 C 0.15143 0.18533 0.38785 0.0
C224 C 0.13126 0.16471 0.37746 0.0
C225 C 0.15723 0.19108 0.42165 0.0
C226 C 0.17585 0.21477 0.43451 0.0
C227 C 0.17213 0.24109 0.42589 0.0
C228 C 0.18989 0.26332 0.43757 0.0
C229 C 0.21142 0.25951 0.45806 0.0
C230 C 0.21515 0.2335 0.46701 0.0
C231 C 0.19743 0.2112 0.45539 0.0
H232 H 0.22518 0.27673 0.46704 0.0
H233 H 0.04244 0.06941 0.35627 0.0
H234 H 0.08986 0.98185 0.59583 0.0
H235 H 0.11062 0.95657 0.6357 0.0
H236 H 0.13409 0.89807 0.5587 0.0
H237 H 0.1123 0.92254 0.51866 0.0
H238 H 0.11682 0.87229 0.6085 0.0
H239 H 0.17933 0.94924 0.59592 0.0
H240 H 0.19418 0.99795 0.5947 0.0
H241 H 0.17271 1.01405 0.69491 0.0
H242 H 0.15738 0.96547 0.69661 0.0
H243 H 0.2178 0.81425 0.69516 0.0
H244 H 0.19341 0.83857 0.65719 0.0
H245 H 0.16662 0.892 0.73737 0.0
H246 H 0.19157 0.86804 0.77558 0.0
H247 H 0.18464 0.92034 0.68719 0.0
H248 H 0.12352 0.84204 0.69938 0.0
H249 H 0.11064 0.79284 0.69993 0.0
H250 H 0.13149 0.77883 0.59927 0.0
H251 H 0.14483 0.82794 0.59821 0.0
C252 C 0.0991 0.96346 0.5872 0.0
C253 C 0.09939 0.95448 0.55372 0.0
C254 C 0.11128 0.94913 0.61016 0.0
C255 C 0.12438 0.9256 0.60028 0.0
C256 C 0.12427 0.91623 0.56701 0.0
C257 C 0.11196 0.93048 0.54402 0.0
C258 C 0.13837 0.91091 0.62456 0.0
C259 C 0.13186 0.88278 0.62543 0.0
C260 C 0.15769 0.92457 0.6472 0.0
C261 C 0.16695 0.95377 0.64629 0.0
C262 C 0.17758 0.96321 0.61763 0.0
C263 C 0.18612 0.99079 0.61686 0.0
C264 C 0.18432 1.0091 0.64468 0.0
C265 C 0.17405 0.99985 0.67336 0.0
C266 C 0.16545 0.97229 0.67425 0.0
C267 C 0.20689 0.83127 0.70479 0.0
C268 C 0.20676 0.83922 0.73851 0.0
C269 C 0.19271 0.84502 0.68301 0.0
C270 C 0.17794 0.867 0.69438 0.0
C271 C 0.17779 0.87506 0.728 0.0
C272 C 0.19191 0.86121 0.74986 0.0
C273 C 0.16308 0.88179 0.67106 0.0
C274 C 0.16948 0.90992 0.67035 0.0
C275 C 0.14384 0.8681 0.64843 0.0
C276 C 0.13538 0.83864 0.6488 0.0
C277 C 0.1255 0.82845 0.67741 0.0
C278 C 0.1181 0.80058 0.67781 0.0
C279 C 0.12032 0.78272 0.64968 0.0
C280 C 0.12982 0.7927 0.62105 0.0
C281 C 0.13726 0.82055 0.62052 0.0
H282 H 0.11464 0.76117 0.65007 0.0
H283 H 0.19095 0.03045 0.64404 0.0
H284 H 0.47599 0.97551 0.01647 0.0
H285 H 0.44299 0.94072 0.9893 0.0
H286 H 0.49354 0.93369 0.90498 0.0
H287 H 0.52577 0.9688 0.93151 0.0
H288 H 0.44568 0.93968 0.88558 0.0
H289 H 0.48244 0.8817 0.95819 0.0
H290 H 0.49616 0.86779 1.01122 0.0
H291 H 0.41465 0.86866 0.04381 0.0
H292 H 0.40049 0.88292 0.9911 0.0
H293 H 0.36531 0.82813 0.79864 0.0
H294 H 0.40278 0.85622 0.82741 0.0
H295 H 0.35359 0.86844 0.91225 0.0
H296 H 0.31661 0.84035 0.88418 0.0
H297 H 0.40207 0.85817 0.93065 0.0
H298 H 0.36614 0.91831 0.85886 0.0
H299 H 0.35256 0.93225 0.80578 0.0
H300 H 0.43328 0.92705 0.77163 0.0
H301 H 0.44726 0.91274 0.82441 0.0
C302 C 0.48028 0.96598 0.9925 0.0
C303 C 0.50342 0.97488 0.97611 0.0
C304 C 0.46139 0.94611 0.97688 0.0
C305 C 0.46562 0.93447 0.94488 0.0
C306 C 0.48953 0.94242 0.92942 0.0
C307 C 0.50807 0.96242 0.94474 0.0
C308 C 0.44458 0.91556 0.92639 0.0
C309 C 0.43652 0.92161 0.89533 0.0
C310 C 0.43201 0.89223 0.93911 0.0
C311 C 0.44046 0.88363 0.97081 0.0
C312 C 0.46748 0.87913 0.97675 0.0
C313 C 0.47533 0.87114 1.00674 0.0
C314 C 0.4563 0.86741 0.0309 0.0
C315 C 0.42937 0.87159 0.02509 0.0
C316 C 0.42142 0.87959 0.99515 0.0
C317 C 0.3625 0.83689 0.82338 0.0
C318 C 0.33786 0.83197 0.83897 0.0
C319 C 0.38393 0.85299 0.83983 0.0
C320 C 0.38105 0.86467 0.87208 0.0
C321 C 0.35648 0.85965 0.88754 0.0
C322 C 0.33523 0.8436 0.87126 0.0
C323 C 0.40329 0.88235 0.88994 0.0
C324 C 0.41146 0.87613 0.92089 0.0
C325 C 0.41604 0.90551 0.87711 0.0
C326 C 0.40767 0.91417 0.84544 0.0
C327 C 0.38094 0.91994 0.83994 0.0
C328 C 0.37318 0.92795 0.80993 0.0
C329 C 0.39203 0.93045 0.78532 0.0
C330 C 0.41869 0.92505 0.7907 0.0
C331 C 0.42655 0.91701 0.82066 0.0
H332 H 0.38598 0.93665 0.7621 0.0
H333 H 0.46242 0.86123 0.05409 0.0
H334 H 0.36164 0.24334 0.26106 0.0
H335 H 0.39686 0.21771 0.23371 0.0
H336 H 0.34033 0.18601 0.15689 0.0
H337 H 0.3054 0.21078 0.18406 0.0
H338 H 0.369 0.14702 0.1714 0.0
H339 H 0.38774 0.24088 0.14981 0.0
H340 H 0.39819 0.29025 0.1645 0.0
H341 H 0.47095 0.27435 0.21301 0.0
H342 H 0.4607 0.22482 0.19901 0.0
H343 H 0.44654 0.11209 0.03343 0.0
H344 H 0.41783 0.13685 0.07192 0.0
H345 H 0.48218 0.14725 0.14357 0.0
H346 H 0.51101 0.12234 0.10509 0.0
H347 H 0.45371 0.19561 0.13821 0.0
H348 H 0.43574 0.10095 0.15371 0.0
H349 H 0.42462 0.05215 0.13608 0.0
H350 H 0.34923 0.07053 0.096 0.0
H351 H 0.36008 0.11953 0.11296 0.0
C352 C 0.35671 0.23061 0.23857 0.0
C353 C 0.33069 0.22924 0.22475 0.0
C354 C 0.3769 0.21612 0.2228 0.0
C355 C 0.37141 0.2001 0.19293 0.0
C356 C 0.3452 0.19814 0.17983 0.0
C357 C 0.32519 0.21249 0.19545 0.0
C358 C 0.39265 0.18568 0.17447 0.0
C359 C 0.38745 0.15775 0.16409 0.0
C360 C 0.41709 0.19939 0.16534 0.0
C361 C 0.42327 0.22914 0.17375 0.0
C362 C 0.40584 0.2479 0.16386 0.0
C363 C 0.41175 0.27591 0.17202 0.0
C364 C 0.43518 0.28543 0.18977 0.0
C365 C 0.45278 0.26694 0.19933 0.0
C366 C 0.44693 0.2389 0.1913 0.0
C367 C 0.45469 0.1199 0.05721 0.0
C368 C 0.48103 0.11514 0.06621 0.0
C369 C 0.43822 0.13393 0.07928 0.0
C370 C 0.44778 0.14376 0.11073 0.0
C371 C 0.47435 0.13982 0.11948 0.0
C372 C 0.49073 0.12543 0.09755 0.0
C373 C 0.42959 0.15727 0.13462 0.0
C374 C 0.4354 0.1849 0.14597 0.0
C375 C 0.40553 0.14342 0.14439 0.0
C376 C 0.39883 0.11394 0.13438 0.0
C377 C 0.41688 0.09462 0.14091 0.0
C378 C 0.41061 0.06691 0.13108 0.0
C379 C 0.38626 0.05825 0.11487 0.0
C380 C 0.36809 0.07727 0.10854 0.0
C381 C 0.37429 0.10501 0.11828 0.0
H382 H 0.38144 0.03679 0.10728 0.0
H383 H 0.43972 0.30712 0.19604 0.0
H384 H 0.99951 0.9961 0.58912 0.0
H385 H 0.97078 0.96765 0.62223 0.0
H386 H 0.90343 0.97356 0.55784 0.0
H387 H 0.93184 1.00227 0.5249 0.0
H388 H 0.8879 0.97565 0.62103 0.0
H389 H 0.94091 0.91879 0.54867 0.0
H390 H 0.98341 0.90418 0.52526 0.0
H391 H 1.01051 0.88746 0.6197 0.0
H392 H 0.96828 0.90234 0.64376 0.0
H393 H 0.80308 0.8588 0.64855 0.0
H394 H 0.83253 0.89316 0.6249 0.0
H395 H 0.89717 0.87844 0.68927 0.0
H396 H 0.86816 0.84324 0.71218 0.0
H397 H 0.91559 0.88237 0.63012 0.0
H398 H 0.8619 0.93592 0.7024 0.0
H399 H 0.82011 0.95136 0.72688 0.0
H400 H 0.79497 0.9751 0.6348 0.0
H401 H 0.83645 0.95944 0.60964 0.0
C402 C 0.97847 0.99178 0.58231 0.0
C403 C 0.96806 1.0013 0.55414 0.0
C404 C 0.9621 0.97536 0.60119 0.0
C405 C 0.93505 0.96804 0.5922 0.0
C406 C 0.92425 0.97882 0.56519 0.0
C407 C 0.94058 0.99521 0.54632 0.0
C408 C 0.91838 0.94786 0.60955 0.0
C409 C 0.89383 0.95518 0.62281 0.0
C410 C 0.92641 0.92134 0.61259 0.0
C411 C 0.95157 0.91194 0.59806 0.0
C412 C 0.956 0.91215 0.56447 0.0
C413 C 0.98003 0.9038 0.55108 0.0
C414 C 0.99968 0.89497 0.571 0.0
C415 C 0.99529 0.89435 0.60432 0.0
C416 C 0.97131 0.90272 0.61784 0.0
C417 C 0.82359 0.86263 0.65756 0.0
C418 C 0.8331 0.84816 0.68244 0.0
C419 C 0.84037 0.88258 0.64423 0.0
C420 C 0.867 0.88877 0.65562 0.0
C421 C 0.87667 0.87419 0.68018 0.0
C422 C 0.85992 0.85418 0.69348 0.0
C423 C 0.8849 0.91002 0.64142 0.0
C424 C 0.90969 0.90289 0.62866 0.0
C425 C 0.87714 0.93675 0.63902 0.0
C426 C 0.85219 0.94627 0.65407 0.0
C427 C 0.84737 0.94424 0.6873 0.0
C428 C 0.82375 0.95307 0.70131 0.0
C429 C 0.80487 0.96415 0.68239 0.0
C430 C 0.8096 0.96649 0.64942 0.0
C431 C 0.83317 0.95766 0.63528 0.0
H432 H 0.78659 0.97097 0.69328 0.0
H433 H 0.01828 0.88855 0.56059 0.0
H434 H 1.01181 0.09629 0.42601 0.0
H435 H 0.98884 0.12772 0.39563 0.0
H436 H 0.94516 0.05968 0.33965 0.0
H437 H 0.96768 0.02796 0.37039 0.0
H438 H 0.96366 0.10047 0.30153 0.0
H439 H 0.91482 0.09328 0.401 0.0
H440 H 0.91016 0.09504 0.46059 0.0
H441 H 0.94023 0.17942 0.47074 0.0
H442 H 0.94544 0.17805 0.4112 0.0
H443 H 0.85857 0.16835 0.23698 0.0
H444 H 0.88578 0.13835 0.26439 0.0
H445 H 0.92023 0.20743 0.3276 0.0
H446 H 0.89259 0.23755 0.30043 0.0
H447 H 0.90811 0.16695 0.36208 0.0
H448 H 0.95597 0.17539 0.26332 0.0
H449 H 0.9619 0.17425 0.20396 0.0
H450 H 0.93553 0.08889 0.19236 0.0
H451 H 0.92909 0.0896 0.25163 0.0
C452 C 0.99715 0.08788 0.4075 0.0
C453 C 0.99134 0.05943 0.40116 0.0
C454 C 0.98413 0.10596 0.38998 0.0
C455 C 0.96497 0.09609 0.36568 0.0
C456 C 0.95985 0.06777 0.35834 0.0
C457 C 0.97281 0.04962 0.37595 0.0
C458 C 0.94968 0.11533 0.34866 0.0
C459 C 0.95126 0.11481 0.31468 0.0
C460 C 0.93409 0.13456 0.36592 0.0
C461 C 0.93076 0.13548 0.40168 0.0
C462 C 0.92063 0.11215 0.41596 0.0
C463 C 0.91786 0.11309 0.44972 0.0
C464 C 0.92496 0.1373 0.46945 0.0
C465 C 0.93477 0.16066 0.45543 0.0
C466 C 0.93762 0.15982 0.42168 0.0
C467 C 0.87219 0.17726 0.2564 0.0
C468 C 0.87353 0.20544 0.26632 0.0
C469 C 0.88779 0.16004 0.27211 0.0
C470 C 0.90548 0.17059 0.2978 0.0
C471 C 0.9068 0.19873 0.30783 0.0
C472 C 0.89098 0.21595 0.29231 0.0
C473 C 0.92195 0.15214 0.31475 0.0
C474 C 0.92059 0.15276 0.3488 0.0
C475 C 0.9379 0.13314 0.29754 0.0
C476 C 0.94181 0.13261 0.26189 0.0
C477 C 0.95124 0.15642 0.24808 0.0
C478 C 0.95473 0.15584 0.21446 0.0
C479 C 0.94904 0.13153 0.19439 0.0
C480 C 0.93991 0.10771 0.20793 0.0
C481 C 0.93636 0.10819 0.24154 0.0
H482 H 0.95175 0.13112 0.16836 0.0
H483 H 0.9228 0.13798 0.49558 0.0
H484 H 0.7547 0.18851 0.2893 0.0
H485 H 0.71789 0.15616 0.26703 0.0
H486 H 0.68691 0.21887 0.21517 0.0
H487 H 0.72326 0.25148 0.23786 0.0
H488 H 0.64627 0.18645 0.23542 0.0
H489 H 0.7301 0.17337 0.17961 0.0
H490 H 0.778 0.16429 0.17678 0.0
H491 H 0.75978 0.08698 0.21423 0.0
H492 H 0.7118 0.09582 0.21774 0.0
H493 H 0.59089 0.12689 0.088 0.0
H494 H 0.61735 0.15031 0.13338 0.0
H495 H 0.62881 0.07324 0.17014 0.0
H496 H 0.602 0.04921 0.12379 0.0
H497 H 0.67646 0.10621 0.16751 0.0
H498 H 0.58985 0.11687 0.2117 0.0
H499 H 0.54223 0.12694 0.21099 0.0
H500 H 0.56548 0.20954 0.19273 0.0
H501 H 0.61323 0.19988 0.19279 0.0
C502 C 0.73973 0.19562 0.27373 0.0
C503 C 0.74217 0.22258 0.26513 0.0
C504 C 0.71874 0.17701 0.26085 0.0
C505 C 0.69991 0.18484 0.23878 0.0
C506 C 0.70121 0.21224 0.232 0.0
C507 C 0.72208 0.23091 0.24503 0.0
C508 C 0.68029 0.16427 0.2206 0.0
C509 C 0.65287 0.16891 0.2206 0.0
C510 C 0.6887 0.14088 0.20184 0.0
C511 C 0.71745 0.13539 0.19931 0.0
C512 C 0.73635 0.15451 0.18743 0.0
C513 C 0.7635 0.14941 0.18569 0.0
C514 C 0.77194 0.12511 0.19541 0.0
C515 C 0.75322 0.10582 0.20678 0.0
C516 C 0.72605 0.11087 0.20866 0.0
C517 C 0.59878 0.11475 0.10579 0.0
C518 C 0.59441 0.0861 0.10215 0.0
C519 C 0.61379 0.12829 0.13197 0.0
C520 C 0.62487 0.11366 0.15547 0.0
C521 C 0.6203 0.08498 0.15238 0.0
C522 C 0.60491 0.07129 0.12603 0.0
C523 C 0.64254 0.12878 0.1817 0.0
C524 C 0.66968 0.12326 0.18308 0.0
C525 C 0.63388 0.15147 0.20151 0.0
C526 C 0.60518 0.15759 0.20216 0.0
C527 C 0.58482 0.13715 0.20739 0.0
C528 C 0.55779 0.14279 0.2071 0.0
C529 C 0.55083 0.16885 0.20178 0.0
C530 C 0.5709 0.18936 0.19686 0.0
C531 C 0.59797 0.18383 0.19709 0.0
H532 H 0.52989 0.17316 0.2015 0.0
H533 H 0.79297 0.12119 0.19406 0.0
H534 H 0.62471 1.01664 0.90271 0.0
H535 H 0.6546 0.98347 0.87871 0.0
H536 H 0.66681 0.95533 0.97288 0.0
H537 H 0.6371 0.98878 0.99718 0.0
H538 H 0.71465 0.95967 0.93681 0.0
H539 H 0.62439 0.91894 0.92274 0.0
H540 H 0.57649 0.9171 0.90671 0.0
H541 H 0.59847 0.92515 0.80755 0.0
H542 H 0.64654 0.9275 0.8231 0.0
H543 H 0.76863 0.83521 0.86391 0.0
H544 H 0.74492 0.86953 0.89756 0.0
H545 H 0.71622 0.90018 0.81043 0.0
H546 H 0.73903 0.86593 0.77722 0.0
H547 H 0.676 0.89188 0.84863 0.0
H548 H 0.76618 0.93551 0.86291 0.0
H549 H 0.81418 0.93851 0.87886 0.0
H550 H 0.79273 0.92529 0.97692 0.0
H551 H 0.74457 0.92187 0.96144 0.0
C552 C 0.63402 1.00371 0.91844 0.0
C553 C 0.62832 1.00531 0.95187 0.0
C554 C 0.65101 0.98461 0.90465 0.0
C555 C 0.66278 0.96671 0.92393 0.0
C556 C 0.65793 0.96887 0.9575 0.0
C557 C 0.64075 0.98785 0.9713 0.0
C558 C 0.679 0.94494 0.9086 0.0
C559 C 0.70615 0.94459 0.91782 0.0
C560 C 0.668 0.92538 0.88367 0.0
C561 C 0.63908 0.92363 0.87415 0.0
C562 C 0.61902 0.92052 0.89756 0.0
C563 C 0.59183 0.91936 0.88856 0.0
C564 C 0.58444 0.92106 0.85615 0.0
C565 C 0.60422 0.92386 0.83266 0.0
C566 C 0.63145 0.92509 0.84155 0.0
C567 C 0.75761 0.84961 0.8521 0.0
C568 C 0.75555 0.84774 0.81793 0.0
C569 C 0.74404 0.86922 0.8713 0.0
C570 C 0.72858 0.88747 0.85658 0.0
C571 C 0.72766 0.88623 0.82248 0.0
C572 C 0.74084 0.86662 0.80347 0.0
C573 C 0.71206 0.90703 0.87596 0.0
C574 C 0.68462 0.90685 0.86767 0.0
C575 C 0.72289 0.92607 0.90162 0.0
C576 C 0.7518 0.92811 0.91093 0.0
C577 C 0.77171 0.93301 0.88781 0.0
C578 C 0.79893 0.93484 0.89677 0.0
C579 C 0.8065 0.932 0.92886 0.0
C580 C 0.78684 0.92742 0.95206 0.0
C581 C 0.75958 0.92556 0.94321 0.0
H582 H 0.82759 0.93343 0.93575 0.0
H583 H 0.56338 0.92016 0.84922 0.0
H584 H 0.5564 0.57213 0.90717 0.0
H585 H 0.58554 0.60677 0.88379 0.0
H586 H 0.6368 0.61523 0.96948 0.0
H587 H 0.60686 0.58065 0.99364 0.0
H588 H 0.63217 0.66532 0.94258 0.0
H589 H 0.65426 0.57488 0.90566 0.0
H590 H 0.64444 0.52688 0.88334 0.0
H591 H 0.61307 0.55287 0.79537 0.0
H592 H 0.62233 0.60104 0.81736 0.0
H593 H 0.74106 0.72418 0.85143 0.0
H594 H 0.71282 0.69751 0.8869 0.0
H595 H 0.65677 0.67335 0.80712 0.0
H596 H 0.68509 0.69974 0.77155 0.0
H597 H 0.66776 0.63059 0.83577 0.0
H598 H 0.64369 0.721 0.87351 0.0
H599 H 0.65272 0.76906 0.89601 0.0
H600 H 0.6879 0.74352 0.98208 0.0
H601 H 0.6794 0.69529 0.9599 0.0
C602 C 0.57363 0.58167 0.92135 0.0
C603 C 0.57959 0.57346 0.95204 0.0
C604 C 0.5903 0.60146 0.90791 0.0
C605 C 0.61374 0.61312 0.92449 0.0
C606 C 0.6189 0.60636 0.95616 0.0
C607 C 0.60182 0.58666 0.96995 0.0
C608 C 0.63357 0.63043 0.90715 0.0
C609 C 0.64034 0.65766 0.91949 0.0
C610 C 0.644 0.62054 0.8768 0.0
C611 C 0.63886 0.59157 0.86325 0.0
C612 C 0.64514 0.57036 0.88162 0.0
C613 C 0.63968 0.54312 0.86902 0.0
C614 C 0.6281 0.53683 0.83797 0.0
C615 C 0.62203 0.55777 0.81942 0.0
C616 C 0.62742 0.58505 0.83192 0.0
C617 C 0.72252 0.71354 0.84156 0.0
C618 C 0.71536 0.71407 0.80857 0.0
C619 C 0.70635 0.69827 0.86192 0.0
C620 C 0.6825 0.6835 0.84984 0.0
C621 C 0.67511 0.68445 0.81706 0.0
C622 C 0.69135 0.69951 0.79668 0.0
C623 C 0.66584 0.66586 0.87059 0.0
C624 C 0.65978 0.63836 0.85893 0.0
C625 C 0.65618 0.67559 0.90149 0.0
C626 C 0.66116 0.70456 0.91489 0.0
C627 C 0.65354 0.72564 0.89713 0.0
C628 C 0.65853 0.75291 0.90984 0.0
C629 C 0.67095 0.75934 0.94041 0.0
C630 C 0.67832 0.73851 0.95838 0.0
C631 C 0.6734 0.71121 0.94577 0.0
H632 H 0.6748 0.78047 0.9502 0.0
H633 H 0.62387 0.51573 0.82827 0.0
H634 H 0.77326 0.32581 0.11378 0.0
H635 H 0.73927 0.34812 0.08572 0.0
H636 H 0.6989 0.36547 0.17653 0.0
H637 H 0.73295 0.34314 0.20486 0.0
H638 H 0.66287 0.34895 0.12883 0.0
H639 H 0.73801 0.41542 0.14306 0.0
H640 H 0.7854 0.43337 0.14012 0.0
H641 H 0.78204 0.41786 0.03588 0.0
H642 H 0.7347 0.39945 0.03822 0.0
H643 H 0.58182 0.44701 0.06872 0.0
H644 H 0.61377 0.42415 0.0996 0.0
H645 H 0.65674 0.40331 1.01154 0.0
H646 H 0.62539 0.4268 0.98071 0.0
H647 H 0.69097 0.42273 0.06009 0.0
H648 H 0.615 0.35568 0.04699 0.0
H649 H 0.56745 0.33856 0.05125 0.0
H650 H 0.57211 0.35679 0.15515 0.0
H651 H 0.61961 0.37436 0.15147 0.0
C652 C 0.75732 0.33452 0.12792 0.0
C653 C 0.7561 0.33281 0.16173 0.0
C654 C 0.7378 0.34728 0.11178 0.0
C655 C 0.71666 0.35891 0.12902 0.0
C656 C 0.715 0.35671 0.16264 0.0
C657 C 0.7345 0.34385 0.17883 0.0
C658 C 0.69652 0.37351 0.11192 0.0
C659 C 0.66901 0.36534 0.11417 0.0
C660 C 0.70442 0.3947 0.09237 0.0
C661 C 0.73288 0.40581 0.09084 0.0
C662 C 0.74743 0.41564 0.11952 0.0
C663 C 0.77428 0.42593 0.11796 0.0
C664 C 0.78674 0.42669 0.08784 0.0
C665 C 0.77236 0.41722 0.0592 0.0
C666 C 0.74552 0.40688 0.06062 0.0
C667 C 0.59812 0.4377 0.0559 0.0
C668 C 0.60093 0.43883 0.02211 0.0
C669 C 0.61627 0.42437 0.07359 0.0
C670 C 0.63759 0.41173 0.05792 0.0
C671 C 0.64044 0.41282 0.02423 0.0
C672 C 0.62231 0.4261 1.00653 0.0
C673 C 0.65735 0.39792 0.0766 0.0
C674 C 0.68482 0.40634 0.07475 0.0
C675 C 0.64935 0.37713 0.09667 0.0
C676 C 0.6208 0.36657 0.09892 0.0
C677 C 0.60583 0.35624 0.07072 0.0
C678 C 0.5789 0.34641 0.07304 0.0
C679 C 0.56678 0.3466 0.10345 0.0
C680 C 0.58154 0.35665 0.13161 0.0
C681 C 0.60847 0.36652 0.12943 0.0
H682 H 0.54596 0.33889 0.10521 0.0
H683 H 0.80753 0.43467 0.08668 0.0
H684 H 0.84633 0.30865 0.37788 0.0
H685 H 0.87704 0.34343 0.40827 0.0
H686 H 0.87825 0.39195 0.32696 0.0
H687 H 0.84727 0.35752 0.29665 0.0
H688 H 0.92699 0.361 0.3971 0.0
H689 H 0.88882 0.45944 0.35352 0.0
H690 H 0.84621 0.4765 0.33666 0.0
H691 H 0.80181 0.41996 0.3927 0.0
H692 H 0.84415 0.40282 0.41023 0.0
H693 H 0.0276 0.46815 0.43132 0.0
H694 H 0.9919 0.4384 0.40229 0.0
H695 H 0.93431 0.4673 0.47225 0.0
H696 H 0.96995 0.49749 0.5013 0.0
H697 H 0.91193 0.45955 0.41192 0.0
H698 H 0.96192 0.40772 0.47937 0.0
H699 H 1.00297 0.39081 0.50105 0.0
H700 H 0.02013 0.3531 0.40603 0.0
H701 H 0.97936 0.37017 0.38364 0.0
C702 C 0.85287 0.32685 0.36655 0.0
C703 C 0.84417 0.33023 0.33478 0.0
C704 C 0.87059 0.3467 0.38395 0.0
C705 C 0.87995 0.37051 0.37011 0.0
C706 C 0.87108 0.37404 0.3385 0.0
C707 C 0.85336 0.35423 0.3211 0.0
C708 C 0.89961 0.39118 0.38827 0.0
C709 C 0.92362 0.38252 0.40028 0.0
C710 C 0.89523 0.41932 0.39306 0.0
C711 C 0.86966 0.42967 0.38291 0.0
C712 C 0.86997 0.45072 0.36234 0.0
C713 C 0.84586 0.46039 0.35265 0.0
C714 C 0.82132 0.44926 0.36352 0.0
C715 C 0.82083 0.42849 0.38419 0.0
C716 C 0.84488 0.41876 0.39397 0.0
C717 C 1.00728 0.46857 0.44032 0.0
C718 C 1.00177 0.48514 0.46887 0.0
C719 C 0.98687 0.45138 0.42374 0.0
C720 C 0.96044 0.45012 0.4354 0.0
C721 C 0.95453 0.46776 0.46282 0.0
C722 C 0.97497 0.48506 0.47942 0.0
C723 C 0.93946 0.42939 0.42001 0.0
C724 C 0.91526 0.43802 0.4086 0.0
C725 C 0.9434 0.40114 0.41633 0.0
C726 C 0.96769 0.39042 0.42978 0.0
C727 C 0.97452 0.39595 0.46305 0.0
C728 C 0.99773 0.38633 0.47547 0.0
C729 C 1.01416 0.37093 0.45491 0.0
C730 C 1.00738 0.36505 0.42191 0.0
C731 C 0.98421 0.37468 0.40934 0.0
H732 H 0.03212 0.3635 0.46459 0.0
H733 H 0.80268 0.45677 0.35597 0.0
H734 H 0.83564 0.68821 0.79171 0.0
H735 H 0.86931 0.65944 0.76786 0.0
H736 H 0.90778 0.72817 0.72471 0.0
H737 H 0.87366 0.75712 0.74809 0.0
H738 H 0.90126 0.68508 0.68066 0.0
H739 H 0.9374 0.7001 0.78912 0.0
H740 H 0.93653 0.70187 0.84902 0.0
H741 H 0.91286 0.61596 0.84227 0.0
H742 H 0.91323 0.61373 0.78231 0.0
H743 H 1.00819 0.60698 0.62015 0.0
H744 H 0.98218 0.64187 0.64851 0.0
H745 H 0.94032 0.58033 0.70078 0.0
H746 H 0.96679 0.54565 0.67309 0.0
H747 H 0.95206 0.62327 0.74101 0.0
H748 H 0.91202 0.60896 0.63313 0.0
H749 H 0.91199 0.60685 0.57317 0.0
H750 H 0.94222 0.6911 0.57889 0.0
H751 H 0.94273 0.6936 0.63891 0.0
C752 C 0.8515 0.69742 0.77763 0.0
C753 C 0.85186 0.72508 0.77192 0.0
C754 C 0.87087 0.68088 0.76402 0.0
C755 C 0.89133 0.69156 0.74458 0.0
C756 C 0.89224 0.71938 0.7396 0.0
C757 C 0.8728 0.73599 0.7532 0.0
C758 C 0.91064 0.67325 0.72801 0.0
C759 C 0.91276 0.67195 0.69397 0.0
C760 C 0.92526 0.65556 0.74512 0.0
C761 C 0.92515 0.6568 0.7812 0.0
C762 C 0.93183 0.68162 0.8004 0.0
C763 C 0.93146 0.6827 0.83437 0.0
C764 C 0.9246 0.65905 0.84944 0.0
C765 C 0.91816 0.63426 0.83057 0.0
C766 C 0.91848 0.63307 0.79659 0.0
C767 C 0.9933 0.60089 0.63751 0.0
C768 C 0.9895 0.57348 0.64424 0.0
C769 C 0.97838 0.62087 0.65374 0.0
C770 C 0.95889 0.61382 0.67659 0.0
C771 C 0.95521 0.58644 0.68339 0.0
C772 C 0.97037 0.56657 0.66752 0.0
C773 C 0.94233 0.63477 0.69358 0.0
C774 C 0.94074 0.63657 0.72771 0.0
C775 C 0.92811 0.65284 0.67654 0.0
C776 C 0.92768 0.65138 0.64048 0.0
C777 C 0.91883 0.62698 0.62159 0.0
C778 C 0.9187 0.62572 0.5876 0.0
C779 C 0.92717 0.6488 0.57223 0.0
C780 C 0.93571 0.67322 0.59082 0.0
C781 C 0.9359 0.67458 0.62482 0.0
H782 H 0.92706 0.64779 0.54591 0.0
H783 H 0.92431 0.65993 0.87574 0.0
H784 H 0.51397 0.48089 0.09976 0.0
H785 H 0.4844 0.46022 0.13974 0.0
H786 H 0.41517 0.47009 0.07997 0.0
H787 H 0.44457 0.49022 0.04013 0.0
H788 H 0.40517 0.47894 0.1471 0.0
H789 H 0.4445 0.41253 0.06943 0.0
H790 H 0.48326 0.39184 0.04315 0.0
H791 H 0.51199 0.37318 0.13608 0.0
H792 H 0.47352 0.3941 0.16296 0.0
H793 H 0.30286 0.37771 0.17057 0.0
H794 H 0.33786 0.4079 0.14967 0.0
H795 H 0.39743 0.37447 0.20696 0.0
H796 H 0.36281 0.343 0.2267 0.0
H797 H 0.417 0.38045 0.15055 0.0
H798 H 0.37441 0.4398 0.22788 0.0
H799 H 0.33691 0.46161 0.25564 0.0
H800 H 0.31598 0.49502 0.16757 0.0
H801 H 0.35312 0.47309 0.13913 0.0
C802 C 0.49236 0.47957 0.09596 0.0
C803 C 0.4814 0.48736 0.0672 0.0
C804 C 0.47552 0.46757 0.11857 0.0
C805 C 0.44758 0.46342 0.11267 0.0
C806 C 0.43661 0.47316 0.08511 0.0
C807 C 0.45339 0.48472 0.0624 0.0
C808 C 0.4299 0.44623 0.13266 0.0
C809 C 0.4077 0.4574 0.14794 0.0
C810 C 0.43361 0.41829 0.13444 0.0
C811 C 0.45634 0.40514 0.11822 0.0
C812 C 0.45917 0.40414 0.08426 0.0
C813 C 0.48106 0.39237 0.06926 0.0
C814 C 0.50012 0.38128 0.08794 0.0
C815 C 0.49724 0.38182 0.12165 0.0
C816 C 0.47538 0.39362 0.13678 0.0
C817 C 0.32332 0.37645 0.17875 0.0
C818 C 0.3296 0.35769 0.20069 0.0
C819 C 0.34342 0.39414 0.16698 0.0
C820 C 0.37034 0.39403 0.17725 0.0
C821 C 0.37682 0.37521 0.19883 0.0
C822 C 0.35677 0.35726 0.21036 0.0
C823 C 0.39171 0.41296 0.1646 0.0
C824 C 0.41461 0.40208 0.15051 0.0
C825 C 0.38878 0.44127 0.16429 0.0
C826 C 0.36646 0.45463 0.18131 0.0
C827 C 0.3617 0.45165 0.21437 0.0
C828 C 0.34052 0.46406 0.23023 0.0
C829 C 0.32405 0.47965 0.21336 0.0
C830 C 0.32875 0.48293 0.1806 0.0
C831 C 0.34989 0.47054 0.16461 0.0
H832 H 0.30765 0.48924 0.22569 0.0
H833 H 0.51708 0.37224 0.07627 0.0
H834 H 0.28173 0.66479 0.83891 0.0
H835 H 0.31182 0.63268 0.85762 0.0
H836 H 0.37389 0.6983 0.87809 0.0
H837 H 0.34392 0.73045 0.85909 0.0
H838 H 0.39475 0.65618 0.84753 0.0
H839 H 0.33766 0.66879 0.9395 0.0
H840 H 0.29475 0.67015 0.96865 0.0
H841 H 0.27537 0.58513 0.93805 0.0
H842 H 0.31803 0.58335 0.90834 0.0
H843 H 0.48173 0.58557 0.94036 0.0
H844 H 0.4504 0.61724 0.92341 0.0
H845 H 0.39197 0.54974 0.89503 0.0
H846 H 0.4231 0.51791 0.91261 0.0
H847 H 0.36918 0.59229 0.92957 0.0
H848 H 0.4275 0.58045 0.83795 0.0
H849 H 0.47125 0.57987 0.81057 0.0
H850 H 0.4891 0.66483 0.84272 0.0
H851 H 0.44559 0.66583 0.8707 0.0
C852 C 0.30163 0.67249 0.84784 0.0
C853 C 0.31037 0.70026 0.84751 0.0
C854 C 0.31888 0.65406 0.85853 0.0
C855 C 0.34514 0.66302 0.86959 0.0
C856 C 0.3538 0.6908 0.86959 0.0
C857 C 0.33663 0.70919 0.85869 0.0
C858 C 0.36385 0.64338 0.88024 0.0
C859 C 0.38924 0.6425 0.86581 0.0
C860 C 0.35659 0.62502 0.90358 0.0
C861 C 0.33092 0.62601 0.92142 0.0
C862 C 0.32415 0.65044 0.93877 0.0
C863 C 0.29989 0.65128 0.95543 0.0
C864 C 0.28231 0.62776 0.95513 0.0
C865 C 0.28899 0.60334 0.93822 0.0
C866 C 0.31321 0.6024 0.92149 0.0
C867 C 0.46216 0.57743 0.93074 0.0
C868 C 0.45496 0.54914 0.92788 0.0
C869 C 0.44433 0.59558 0.92079 0.0
C870 C 0.41889 0.58589 0.90768 0.0
C871 C 0.41152 0.5577 0.905 0.0
C872 C 0.42942 0.5395 0.91481 0.0
C873 C 0.39998 0.60521 0.89691 0.0
C874 C 0.3746 0.606 0.91128 0.0
C875 C 0.40732 0.62364 0.87371 0.0
C876 C 0.43339 0.62314 0.85667 0.0
C877 C 0.44083 0.59896 0.83939 0.0
C878 C 0.46558 0.59857 0.82373 0.0
C879 C 0.48297 0.62228 0.82498 0.0
C880 C 0.47562 0.64647 0.84181 0.0
C881 C 0.45091 0.64697 0.85754 0.0
H882 H 0.50212 0.62193 0.81285 0.0
H883 H 0.26354 0.62845 0.96806 0.0
H884 H 0.27987 0.68414 0.70055 0.0
H885 H 0.24749 0.6606 0.66057 0.0
H886 H 0.21517 0.73708 0.64651 0.0
H887 H 0.24747 0.76083 0.68674 0.0
H888 H 0.1759 0.69914 0.65885 0.0
H889 H 0.24913 0.70287 0.5855 0.0
H890 H 0.29538 0.69748 0.5667 0.0
H891 H 0.28409 0.61116 0.57355 0.0
H892 H 0.23788 0.61607 0.59284 0.0
H893 H 0.07886 0.62997 0.54738 0.0
H894 H 0.11691 0.66159 0.56785 0.0
H895 H 0.16205 0.59346 0.58569 0.0
H896 H 0.12458 0.56184 0.56426 0.0
H897 H 0.19502 0.63211 0.56593 0.0
H898 H 0.12555 0.62909 0.64692 0.0
H899 H 0.0794 0.63324 0.66684 0.0
H900 H 0.08409 0.71715 0.64696 0.0
H901 H 0.13024 0.71341 0.62659 0.0
C902 C 0.26633 0.6961 0.68842 0.0
C903 C 0.26634 0.72441 0.69696 0.0
C904 C 0.24779 0.68258 0.66545 0.0
C905 C 0.22884 0.69701 0.65037 0.0
C906 C 0.22957 0.72547 0.65777 0.0
C907 C 0.24823 0.73906 0.68064 0.0
C908 C 0.20694 0.68201 0.62921 0.0
C909 C 0.18011 0.68493 0.63808 0.0
C910 C 0.21231 0.66295 0.60254 0.0
C911 C 0.24008 0.65988 0.59085 0.0
C912 C 0.25657 0.68276 0.58324 0.0
C913 C 0.28277 0.67979 0.57245 0.0
C914 C 0.29269 0.654 0.56899 0.0
C915 C 0.27639 0.63112 0.57625 0.0
C916 C 0.25017 0.63399 0.58707 0.0
C917 C 0.09705 0.6217 0.55514 0.0
C918 C 0.09849 0.59331 0.55442 0.0
C919 C 0.11878 0.63984 0.56707 0.0
C920 C 0.14224 0.63 0.5791 0.0
C921 C 0.14422 0.60166 0.57674 0.0
C922 C 0.12266 0.58354 0.56449 0.0
C923 C 0.16405 0.64892 0.59594 0.0
C924 C 0.19084 0.64666 0.58636 0.0
C925 C 0.1587 0.66844 0.62218 0.0
C926 C 0.13121 0.6709 0.63496 0.0
C927 C 0.11669 0.64839 0.64669 0.0
C928 C 0.09056 0.65068 0.65806 0.0
C929 C 0.07882 0.67544 0.65811 0.0
C930 C 0.09324 0.698 0.6469 0.0
C931 C 0.11938 0.69582 0.63547 0.0
H932 H 0.05856 0.67716 0.66687 0.0
H933 H 0.31298 0.65174 0.56064 0.0
H934 H 0.26343 0.38098 0.33655 0.0
H935 H 0.23781 0.40007 0.38205 0.0
H936 H 0.23135 0.32203 0.42114 0.0
H937 H 0.25704 0.30263 0.37502 0.0
H938 H 0.18278 0.34203 0.41677 0.0
H939 H 0.26794 0.37719 0.46201 0.0
H940 H 0.31369 0.4002 0.46272 0.0
H941 H 0.28142 0.47448 0.44095 0.0
H942 H 0.23548 0.45183 0.43964 0.0
H943 H 0.10686 0.40502 0.54631 0.0
H944 H 0.14187 0.38105 0.51715 0.0
H945 H 0.16011 0.45038 0.46315 0.0
H946 H 0.12505 0.47429 0.49165 0.0
H947 H 0.20562 0.43045 0.48296 0.0
H948 H 0.12204 0.39407 0.43023 0.0
H949 H 0.0761 0.3714 0.42708 0.0
H950 H 0.10545 0.29967 0.46103 0.0
H951 H 0.15156 0.32208 0.46482 0.0
C952 C 0.25722 0.36803 0.35529 0.0
C953 C 0.26242 0.34034 0.35228 0.0
C954 C 0.24257 0.379 0.3814 0.0
C955 C 0.23272 0.3626 0.40527 0.0
C956 C 0.23882 0.33514 0.40312 0.0
C957 C 0.25376 0.32414 0.37696 0.0
C958 C 0.2141 0.37382 0.4304 0.0
C959 C 0.18801 0.36101 0.43189 0.0
C960 C 0.22063 0.39893 0.44961 0.0
C961 C 0.24824 0.41273 0.45057 0.0
C962 C 0.2706 0.39838 0.45717 0.0
C963 C 0.29657 0.41137 0.4577 0.0
C964 C 0.30046 0.43877 0.45184 0.0
C965 C 0.27838 0.45326 0.44549 0.0
C966 C 0.25235 0.44036 0.44491 0.0
C967 C 0.11818 0.4152 0.52815 0.0
C968 C 0.11284 0.4417 0.52143 0.0
C969 C 0.1383 0.40143 0.51152 0.0
C970 C 0.15355 0.41379 0.48772 0.0
C971 C 0.14872 0.44042 0.48148 0.0
C972 C 0.1286 0.45416 0.49799 0.0
C973 C 0.17418 0.39898 0.46872 0.0
C974 C 0.20059 0.41118 0.46837 0.0
C975 C 0.16791 0.37338 0.45043 0.0
C976 C 0.14018 0.35992 0.44831 0.0
C977 C 0.11866 0.37357 0.43738 0.0
C978 C 0.09259 0.36075 0.4354 0.0
C979 C 0.08782 0.33416 0.44401 0.0
C980 C 0.10915 0.3203 0.45449 0.0
C981 C 0.13525 0.33306 0.45656 0.0
H982 H 0.06763 0.32426 0.44244 0.0
H983 H 0.32059 0.44879 0.45226 0.0
loop_
_geom_bond_atom_site_label_1
_geom_bond_atom_site_label_2
_geom_bond_distance
_geom_bond_site_symmetry_2
_ccdc_geom_bond_type
Cu0 N1 1.999 1_545 S
Cu0 O6 1.979 1_545 S
Cu0 N11 1.985 1_455 S
Cu0 O20 1.959 . S
N1 Cu0 1.999 1_565 S
N1 C3 1.263 . S
N1 C5 1.389 1_565 S
N2 C3 1.358 . S
N2 C4 1.400 . S
C3 N1 1.263 . S
C3 N2 1.358 . S
C3 H9 0.930 . S
C4 N2 1.400 . S
C4 C5 1.351 1_565 S
C4 H21 0.930 . S
C5 N1 1.389 1_545 S
C5 C4 1.351 1_545 S
C5 H10 0.930 . S
O6 Cu0 1.979 1_565 S
O6 C16 1.279 1_455 S
C7 O8 1.261 . S
C7 O20 1.251 . S
O8 C7 1.261 . S
H9 C3 0.930 . S
H10 C5 0.930 . S
N11 Cu0 1.985 1_655 S
N11 C13 1.335 . S
N11 C14 1.390 . S
N12 C13 1.345 . S
N12 C15 1.336 . S
C13 N11 1.335 . S
C13 N12 1.345 . S
C13 H18 0.930 1_655 S
C14 N11 1.390 . S
C14 C15 1.346 . S
C14 H19 0.930 1_545 S
C15 N12 1.336 . S
C15 C14 1.346 . S
C15 H22 0.929 . S
C16 O6 1.279 1_655 S
C16 O17 1.216 . S
O17 C16 1.216 . S
H18 C13 0.930 1_455 S
H19 C14 0.930 1_565 S
O20 Cu0 1.959 . S
O20 C7 1.251 . S
H21 C4 0.930 . S
H22 C15 0.929 . S
Cu23 N24 1.999 . S
Cu23 O29 1.974 . S
Cu23 N34 1.985 . S
Cu23 O43 1.959 . S
N24 Cu23 1.999 . S
N24 C26 1.263 . S
N24 C28 1.389 . S
N25 C26 1.358 . S
N25 C27 1.400 . S
C26 N24 1.263 . S
C26 N25 1.358 . S
C26 H32 0.930 . S
C27 N25 1.400 . S
C27 C28 1.351 . S
C27 H44 0.930 . S
C28 N24 1.389 . S
C28 C27 1.351 . S
C28 H33 0.930 . S
O29 Cu23 1.974 . S
O29 C39 1.282 . S
C30 O31 1.261 . S
C30 O43 1.251 . S
O31 C30 1.261 . S
H32 C26 0.930 . S
H33 C28 0.930 . S
N34 Cu23 1.985 . S
N34 C36 1.335 . S
N34 C37 1.390 . S
N35 C36 1.345 . S
N35 C38 1.336 . S
C36 N34 1.335 . S
C36 N35 1.345 . S
C36 H41 0.930 . S
C37 N34 1.390 . S
C37 C38 1.346 . S
C37 H42 0.930 . S
C38 N35 1.336 . S
C38 C37 1.346 . S
C38 H45 0.929 . S
C39 O29 1.282 . S
C39 O40 1.216 . S
O40 C39 1.216 . S
H41 C36 0.930 . S
H42 C37 0.930 . S
O43 Cu23 1.959 . S
O43 C30 1.251 . S
H44 C27 0.930 . S
H45 C38 0.929 . S
Cu46 N47 1.999 1_544 S
Cu46 O52 1.974 1_544 S
Cu46 N57 1.985 . S
Cu46 O66 1.959 . S
N47 Cu46 1.999 1_566 S
N47 C49 1.263 . S
N47 C51 1.389 1_556 S
N48 C49 1.358 . S
N48 C50 1.400 . S
C49 N47 1.263 . S
C49 N48 1.358 . S
C49 H55 0.930 . S
C50 N48 1.400 . S
C50 C51 1.351 1_556 S
C50 H67 0.930 . S
C51 N47 1.389 1_554 S
C51 C50 1.351 1_554 S
C51 H56 0.930 . S
O52 Cu46 1.974 1_566 S
O52 C62 1.282 . S
C53 O54 1.261 1_554 S
C53 O66 1.251 . S
O54 C53 1.261 1_556 S
H55 C49 0.930 . S
H56 C51 0.930 . S
N57 Cu46 1.985 . S
N57 C59 1.335 . S
N57 C60 1.390 . S
N58 C59 1.345 . S
N58 C61 1.336 . S
C59 N57 1.335 . S
C59 N58 1.345 . S
C59 H64 0.930 . S
C60 N57 1.390 . S
C60 C61 1.346 . S
C60 H65 0.930 1_554 S
C61 N58 1.336 . S
C61 C60 1.346 . S
C61 H68 0.929 . S
C62 O52 1.282 . S
C62 O63 1.216 1_565 S
O63 C62 1.216 1_545 S
H64 C59 0.930 . S
H65 C60 0.930 1_556 S
O66 Cu46 1.959 . S
O66 C53 1.251 . S
H67 C50 0.930 . S
H68 C61 0.929 . S
Cu69 N70 1.999 . S
Cu69 O75 1.974 . S
Cu69 N80 1.985 . S
Cu69 O89 1.959 . S
N70 Cu69 1.999 . S
N70 C72 1.263 . S
N70 C74 1.389 . S
N71 C72 1.358 . S
N71 C73 1.400 . S
C72 N70 1.263 . S
C72 N71 1.358 . S
C72 H78 0.930 . S
C73 N71 1.400 . S
C73 C74 1.351 . S
C73 H90 0.930 . S
C74 N70 1.389 . S
C74 C73 1.351 . S
C74 H79 0.930 . S
O75 Cu69 1.974 . S
O75 C85 1.282 . S
C76 O77 1.261 . S
C76 O89 1.251 . S
O77 C76 1.261 . S
H78 C72 0.930 . S
H79 C74 0.930 . S
N80 Cu69 1.985 . S
N80 C82 1.335 . S
N80 C83 1.390 . S
N81 C82 1.345 . S
N81 C84 1.336 . S
C82 N80 1.335 . S
C82 N81 1.345 . S
C82 H87 0.930 . S
C83 N80 1.390 . S
C83 C84 1.346 . S
C83 H88 0.930 . S
C84 N81 1.336 . S
C84 C83 1.346 . S
C84 H91 0.929 . S
C85 O75 1.282 . S
C85 O86 1.216 . S
O86 C85 1.216 . S
H87 C82 0.930 . S
H88 C83 0.930 . S
O89 Cu69 1.959 . S
O89 C76 1.251 . S
H90 C73 0.930 . S
H91 C84 0.929 . S
Cu92 N93 1.999 . S
Cu92 O98 1.974 . S
Cu92 N103 1.985 . S
Cu92 O112 1.959 . S
N93 Cu92 1.999 . S
N93 C95 1.263 . S
N93 C97 1.389 . S
N94 C95 1.358 . S
N94 C96 1.400 . S
C95 N93 1.263 . S
C95 N94 1.358 . S
C95 H101 0.930 . S
C96 N94 1.400 . S
C96 C97 1.351 . S
C96 H113 0.930 . S
C97 N93 1.389 . S
C97 C96 1.351 . S
C97 H102 0.930 . S
O98 Cu92 1.974 . S
O98 C108 1.282 . S
C99 O100 1.261 . S
C99 O112 1.251 . S
O100 C99 1.261 . S
H101 C95 0.930 . S
H102 C97 0.930 . S
N103 Cu92 1.985 . S
N103 C105 1.335 . S
N103 C106 1.390 . S
N104 C105 1.345 . S
N104 C107 1.336 . S
C105 N103 1.335 . S
C105 N104 1.345 . S
C105 H110 0.930 . S
C106 N103 1.390 . S
C106 C107 1.346 . S
C106 H111 0.930 . S
C107 N104 1.336 . S
C107 C106 1.346 . S
C107 H114 0.929 . S
C108 O98 1.282 . S
C108 O109 1.216 . S
O109 C108 1.216 . S
H110 C105 0.930 . S
H111 C106 0.930 . S
O112 Cu92 1.959 . S
O112 C99 1.251 . S
H113 C96 0.930 . S
H114 C107 0.929 . S
Cu115 N116 1.999 . S
Cu115 O121 1.974 . S
Cu115 N126 1.985 . S
Cu115 O135 1.959 . S
N116 Cu115 1.999 . S
N116 C118 1.263 . S
N116 C120 1.389 . S
N117 C118 1.358 . S
N117 C119 1.400 . S
C118 N116 1.263 . S
C118 N117 1.358 . S
C118 H124 0.930 . S
C119 N117 1.400 . S
C119 C120 1.351 . S
C119 H136 0.930 . S
C120 N116 1.389 . S
C120 C119 1.351 . S
C120 H125 0.930 . S
O121 Cu115 1.974 . S
O121 C131 1.282 . S
C122 O123 1.261 . S
C122 O135 1.251 . S
O123 C122 1.261 . S
H124 C118 0.930 . S
H125 C120 0.930 . S
N126 Cu115 1.985 . S
N126 C128 1.335 . S
N126 C129 1.390 . S
N127 C128 1.345 . S
N127 C130 1.336 . S
C128 N126 1.335 . S
C128 N127 1.345 . S
C128 H133 0.930 . S
C129 N126 1.390 . S
C129 C130 1.346 . S
C129 H134 0.930 . S
C130 N127 1.336 . S
C130 C129 1.346 . S
C130 H137 0.929 . S
C131 O121 1.282 . S
C131 O132 1.216 . S
O132 C131 1.216 . S
H133 C128 0.930 . S
H134 C129 0.930 . S
O135 Cu115 1.959 . S
O135 C122 1.251 . S
H136 C119 0.930 . S
H137 C130 0.929 . S
Cu138 N139 1.999 . S
Cu138 O144 1.974 . S
Cu138 N149 1.985 . S
Cu138 O158 1.959 . S
N139 Cu138 1.999 . S
N139 C141 1.263 1_554 S
N139 C143 1.389 . S
N140 C141 1.358 . S
N140 C142 1.400 1_556 S
C141 N139 1.263 1_556 S
C141 N140 1.358 . S
C141 H147 0.930 . S
C142 N140 1.400 1_554 S
C142 C143 1.351 . S
C142 H159 0.930 . S
C143 N139 1.389 . S
C143 C142 1.351 . S
C143 H148 0.930 . S
O144 Cu138 1.974 . S
O144 C154 1.282 1_554 S
C145 O146 1.261 . S
C145 O158 1.251 . S
O146 C145 1.261 . S
H147 C141 0.930 . S
H148 C143 0.930 . S
N149 Cu138 1.985 . S
N149 C151 1.335 . S
N149 C152 1.390 . S
N150 C151 1.345 . S
N150 C153 1.336 . S
C151 N149 1.335 . S
C151 N150 1.345 . S
C151 H156 0.930 . S
C152 N149 1.390 . S
C152 C153 1.346 . S
C152 H157 0.930 . S
C153 N150 1.336 . S
C153 C152 1.346 . S
C153 H160 0.929 . S
C154 O144 1.282 1_556 S
C154 O155 1.216 . S
O155 C154 1.216 . S
H156 C151 0.930 . S
H157 C152 0.930 . S
O158 Cu138 1.959 . S
O158 C145 1.251 . S
H159 C142 0.930 . S
H160 C153 0.929 . S
Cu161 N162 1.999 1_455 S
Cu161 O167 1.974 . S
Cu161 N172 1.985 . S
Cu161 O181 1.959 1_455 S
N162 Cu161 1.999 1_655 S
N162 C164 1.263 . S
N162 C166 1.389 . S
N163 C164 1.358 . S
N163 C165 1.400 . S
C164 N162 1.263 . S
C164 N163 1.358 . S
C164 H170 0.930 1_655 S
C165 N163 1.400 . S
C165 C166 1.351 . S
C165 H182 0.930 . S
C166 N162 1.389 . S
C166 C165 1.351 . S
C166 H171 0.930 . S
O167 Cu161 1.974 . S
O167 C177 1.282 . S
C168 O169 1.261 . S
C168 O181 1.251 . S
O169 C168 1.261 . S
H170 C164 0.930 1_455 S
H171 C166 0.930 . S
N172 Cu161 1.985 . S
N172 C174 1.335 . S
N172 C175 1.390 . S
N173 C174 1.345 . S
N173 C176 1.336 . S
C174 N172 1.335 . S
C174 N173 1.345 . S
C174 H179 0.930 . S
C175 N172 1.390 . S
C175 C176 1.346 . S
C175 H180 0.930 . S
C176 N173 1.336 . S
C176 C175 1.346 . S
C176 H183 0.929 . S
C177 O167 1.282 . S
C177 O178 1.216 . S
O178 C177 1.216 . S
H179 C174 0.930 . S
H180 C175 0.930 . S
O181 Cu161 1.959 1_655 S
O181 C168 1.251 . S
H182 C165 0.930 . S
H183 C176 0.929 . S
H184 C202 0.951 . S
H185 C204 0.951 . S
H186 C206 0.950 . S
H187 C207 0.950 . S
H188 C209 0.950 . S
H189 C212 0.950 . S
H190 C213 0.950 . S
H191 C215 0.950 . S
H192 C216 0.950 . S
H193 C217 0.951 . S
H194 C219 0.951 . S
H195 C221 0.950 . S
H196 C222 0.950 . S
H197 C224 0.950 . S
H198 C227 0.950 . S
H199 C228 0.950 . S
H200 C230 0.950 . S
H201 C231 0.950 . S
C202 H184 0.951 . S
C202 C203 1.366 . S
C202 C204 1.388 . S
C203 C202 1.366 . S
C203 C207 1.385 . S
C204 H185 0.951 . S
C204 C202 1.388 . S
C204 C205 1.366 . S
C205 C204 1.366 . S
C205 C206 1.414 . S
C205 C208 1.499 . S
C206 H186 0.950 . S
C206 C205 1.414 . S
C206 C207 1.374 . S
C207 H187 0.950 . S
C207 C203 1.385 . S
C207 C206 1.374 . S
C208 C205 1.499 . S
C208 C209 1.373 . S
C208 C210 1.389 . S
C209 H188 0.950 . S
C209 C208 1.373 . S
C209 C225 1.377 . S
C210 C208 1.389 . S
C210 C211 1.524 . S
C210 C224 1.377 . S
C211 C210 1.524 . S
C211 C212 1.397 . S
C211 C216 1.363 . S
C212 H189 0.950 . S
C212 C211 1.397 . S
C212 C213 1.334 . S
C213 H190 0.950 . S
C213 C212 1.334 . S
C213 C214 1.287 . S
C214 C213 1.287 . S
C214 C215 1.524 . S
C214 H233 0.913 . S
C215 H191 0.950 . S
C215 C214 1.524 . S
C215 C216 1.415 . S
C216 H192 0.950 . S
C216 C211 1.363 . S
C216 C215 1.415 . S
C217 H193 0.951 . S
C217 C218 1.366 . S
C217 C219 1.388 . S
C218 C217 1.366 . S
C218 C222 1.385 . S
C219 H194 0.951 . S
C219 C217 1.388 . S
C219 C220 1.366 . S
C220 C219 1.366 . S
C220 C221 1.414 . S
C220 C223 1.499 . S
C221 H195 0.950 . S
C221 C220 1.414 . S
C221 C222 1.374 . S
C222 H196 0.950 . S
C222 C218 1.385 . S
C222 C221 1.374 . S
C223 C220 1.499 . S
C223 C224 1.373 . S
C223 C225 1.389 . S
C224 H197 0.950 . S
C224 C210 1.377 . S
C224 C223 1.373 . S
C225 C209 1.377 . S
C225 C223 1.389 . S
C225 C226 1.524 . S
C226 C225 1.524 . S
C226 C227 1.397 . S
C226 C231 1.363 . S
C227 H198 0.950 . S
C227 C226 1.397 . S
C227 C228 1.334 . S
C228 H199 0.950 . S
C228 C227 1.334 . S
C228 C229 1.287 . S
C229 C228 1.287 . S
C229 C230 1.524 . S
C229 H232 0.999 . S
C230 H200 0.950 . S
C230 C229 1.524 . S
C230 C231 1.415 . S
C231 H201 0.950 . S
C231 C226 1.363 . S
C231 C230 1.415 . S
H232 C229 0.999 . S
H233 C214 0.913 . S
H234 C252 0.951 . S
H235 C254 0.951 . S
H236 C256 0.950 . S
H237 C257 0.950 . S
H238 C259 0.950 . S
H239 C262 0.950 . S
H240 C263 0.950 . S
H241 C265 0.950 . S
H242 C266 0.950 . S
H243 C267 0.951 . S
H244 C269 0.951 . S
H245 C271 0.950 . S
H246 C272 0.950 . S
H247 C274 0.950 . S
H248 C277 0.950 . S
H249 C278 0.950 . S
H250 C280 0.950 . S
H251 C281 0.950 . S
C252 H234 0.951 . S
C252 C253 1.366 . S
C252 C254 1.388 . S
C253 C252 1.366 . S
C253 C257 1.385 . S
C254 H235 0.951 . S
C254 C252 1.388 . S
C254 C255 1.366 . S
C255 C254 1.366 . S
C255 C256 1.414 . S
C255 C258 1.499 . S
C256 H236 0.950 . S
C256 C255 1.414 . S
C256 C257 1.374 . S
C257 H237 0.950 . S
C257 C253 1.385 . S
C257 C256 1.374 . S
C258 C255 1.499 . S
C258 C259 1.373 . S
C258 C260 1.389 . S
C259 H238 0.950 . S
C259 C258 1.373 . S
C259 C275 1.377 . S
C260 C258 1.389 . S
C260 C261 1.524 . S
C260 C274 1.377 . S
C261 C260 1.524 . S
C261 C262 1.397 . S
C261 C266 1.363 . S
C262 H239 0.950 . S
C262 C261 1.397 . S
C262 C263 1.334 . S
C263 H240 0.950 . S
C263 C262 1.334 . S
C263 C264 1.287 . S
C264 C263 1.287 . S
C264 C265 1.524 . S
C264 H283 0.913 . S
C265 H241 0.950 . S
C265 C264 1.524 . S
C265 C266 1.415 . S
C266 H242 0.950 . S
C266 C261 1.363 . S
C266 C265 1.415 . S
C267 H243 0.951 . S
C267 C268 1.366 . S
C267 C269 1.388 . S
C268 C267 1.366 . S
C268 C272 1.385 . S
C269 H244 0.951 . S
C269 C267 1.388 . S
C269 C270 1.366 . S
C270 C269 1.366 . S
C270 C271 1.414 . S
C270 C273 1.499 . S
C271 H245 0.950 . S
C271 C270 1.414 . S
C271 C272 1.374 . S
C272 H246 0.950 . S
C272 C268 1.385 . S
C272 C271 1.374 . S
C273 C270 1.499 . S
C273 C274 1.373 . S
C273 C275 1.389 . S
C274 H247 0.950 . S
C274 C260 1.377 . S
C274 C273 1.373 . S
C275 C259 1.377 . S
C275 C273 1.389 . S
C275 C276 1.524 . S
C276 C275 1.524 . S
C276 C277 1.397 . S
C276 C281 1.363 . S
C277 H248 0.950 . S
C277 C276 1.397 . S
C277 C278 1.334 . S
C278 H249 0.950 . S
C278 C277 1.334 . S
C278 C279 1.287 . S
C279 C278 1.287 . S
C279 C280 1.524 . S
C279 H282 0.999 . S
C280 H250 0.950 . S
C280 C279 1.524 . S
C280 C281 1.415 . S
C281 H251 0.950 . S
C281 C276 1.363 . S
C281 C280 1.415 . S
H282 C279 0.999 . S
H283 C264 0.913 . S
H284 C302 0.951 . S
H285 C304 0.951 . S
H286 C306 0.950 . S
H287 C307 0.950 . S
H288 C309 0.950 . S
H289 C312 0.950 . S
H290 C313 0.950 1_554 S
H291 C315 0.950 1_554 S
H292 C316 0.950 . S
H293 C317 0.951 . S
H294 C319 0.951 . S
H295 C321 0.950 . S
H296 C322 0.950 . S
H297 C324 0.950 . S
H298 C327 0.950 . S
H299 C328 0.950 . S
H300 C330 0.950 . S
H301 C331 0.950 . S
C302 H284 0.951 . S
C302 C303 1.366 . S
C302 C304 1.388 . S
C303 C302 1.366 . S
C303 C307 1.385 . S
C304 H285 0.951 . S
C304 C302 1.388 . S
C304 C305 1.366 . S
C305 C304 1.366 . S
C305 C306 1.414 . S
C305 C308 1.499 . S
C306 H286 0.950 . S
C306 C305 1.414 . S
C306 C307 1.374 . S
C307 H287 0.950 . S
C307 C303 1.385 . S
C307 C306 1.374 . S
C308 C305 1.499 . S
C308 C309 1.373 . S
C308 C310 1.389 . S
C309 H288 0.950 . S
C309 C308 1.373 . S
C309 C325 1.377 . S
C310 C308 1.389 . S
C310 C311 1.524 . S
C310 C324 1.377 . S
C311 C310 1.524 . S
C311 C312 1.397 . S
C311 C316 1.363 . S
C312 H289 0.950 . S
C312 C311 1.397 . S
C312 C313 1.334 . S
C313 H290 0.950 1_556 S
C313 C312 1.334 . S
C313 C314 1.287 1_556 S
C314 C313 1.287 1_554 S
C314 C315 1.524 1_554 S
C314 H333 0.913 . S
C315 H291 0.950 1_556 S
C315 C314 1.524 1_556 S
C315 C316 1.415 . S
C316 H292 0.950 . S
C316 C311 1.363 . S
C316 C315 1.415 . S
C317 H293 0.951 . S
C317 C318 1.366 . S
C317 C319 1.388 . S
C318 C317 1.366 . S
C318 C322 1.385 . S
C319 H294 0.951 . S
C319 C317 1.388 . S
C319 C320 1.366 . S
C320 C319 1.366 . S
C320 C321 1.414 . S
C320 C323 1.499 . S
C321 H295 0.950 . S
C321 C320 1.414 . S
C321 C322 1.374 . S
C322 H296 0.950 . S
C322 C318 1.385 . S
C322 C321 1.374 . S
C323 C320 1.499 . S
C323 C324 1.373 . S
C323 C325 1.389 . S
C324 H297 0.950 . S
C324 C310 1.377 . S
C324 C323 1.373 . S
C325 C309 1.377 . S
C325 C323 1.389 . S
C325 C326 1.524 . S
C326 C325 1.524 . S
C326 C327 1.397 . S
C326 C331 1.363 . S
C327 H298 0.950 . S
C327 C326 1.397 . S
C327 C328 1.334 . S
C328 H299 0.950 . S
C328 C327 1.334 . S
C328 C329 1.287 . S
C329 C328 1.287 . S
C329 C330 1.524 . S
C329 H332 0.999 . S
C330 H300 0.950 . S
C330 C329 1.524 . S
C330 C331 1.415 . S
C331 H301 0.950 . S
C331 C326 1.363 . S
C331 C330 1.415 . S
H332 C329 0.999 . S
H333 C314 0.913 . S
H334 C352 0.951 . S
H335 C354 0.951 . S
H336 C356 0.950 . S
H337 C357 0.950 . S
H338 C359 0.950 . S
H339 C362 0.950 . S
H340 C363 0.950 . S
H341 C365 0.950 . S
H342 C366 0.950 . S
H343 C367 0.951 . S
H344 C369 0.951 . S
H345 C371 0.950 . S
H346 C372 0.950 . S
H347 C374 0.950 . S
H348 C377 0.950 . S
H349 C378 0.950 . S
H350 C380 0.950 . S
H351 C381 0.950 . S
C352 H334 0.951 . S
C352 C353 1.366 . S
C352 C354 1.388 . S
C353 C352 1.366 . S
C353 C357 1.385 . S
C354 H335 0.951 . S
C354 C352 1.388 . S
C354 C355 1.366 . S
C355 C354 1.366 . S
C355 C356 1.414 . S
C355 C358 1.499 . S
C356 H336 0.950 . S
C356 C355 1.414 . S
C356 C357 1.374 . S
C357 H337 0.950 . S
C357 C353 1.385 . S
C357 C356 1.374 . S
C358 C355 1.499 . S
C358 C359 1.373 . S
C358 C360 1.389 . S
C359 H338 0.950 . S
C359 C358 1.373 . S
C359 C375 1.377 . S
C360 C358 1.389 . S
C360 C361 1.524 . S
C360 C374 1.377 . S
C361 C360 1.524 . S
C361 C362 1.397 . S
C361 C366 1.363 . S
C362 H339 0.950 . S
C362 C361 1.397 . S
C362 C363 1.334 . S
C363 H340 0.950 . S
C363 C362 1.334 . S
C363 C364 1.287 . S
C364 C363 1.287 . S
C364 C365 1.524 . S
C364 H383 0.913 . S
C365 H341 0.950 . S
C365 C364 1.524 . S
C365 C366 1.415 . S
C366 H342 0.950 . S
C366 C361 1.363 . S
C366 C365 1.415 . S
C367 H343 0.951 . S
C367 C368 1.366 . S
C367 C369 1.388 . S
C368 C367 1.366 . S
C368 C372 1.385 . S
C369 H344 0.951 . S
C369 C367 1.388 . S
C369 C370 1.366 . S
C370 C369 1.366 . S
C370 C371 1.414 . S
C370 C373 1.499 . S
C371 H345 0.950 . S
C371 C370 1.414 . S
C371 C372 1.374 . S
C372 H346 0.950 . S
C372 C368 1.385 . S
C372 C371 1.374 . S
C373 C370 1.499 . S
C373 C374 1.373 . S
C373 C375 1.389 . S
C374 H347 0.950 . S
C374 C360 1.377 . S
C374 C373 1.373 . S
C375 C359 1.377 . S
C375 C373 1.389 . S
C375 C376 1.524 . S
C376 C375 1.524 . S
C376 C377 1.397 . S
C376 C381 1.363 . S
C377 H348 0.950 . S
C377 C376 1.397 . S
C377 C378 1.334 . S
C378 H349 0.950 . S
C378 C377 1.334 . S
C378 C379 1.287 . S
C379 C378 1.287 . S
C379 C380 1.524 . S
C379 H382 0.999 . S
C380 H350 0.950 . S
C380 C379 1.524 . S
C380 C381 1.415 . S
C381 H351 0.950 . S
C381 C376 1.363 . S
C381 C380 1.415 . S
H382 C379 0.999 . S
H383 C364 0.913 . S
H384 C402 0.951 1_455 S
H385 C404 0.951 . S
H386 C406 0.950 . S
H387 C407 0.950 . S
H388 C409 0.950 . S
H389 C412 0.950 . S
H390 C413 0.950 . S
H391 C415 0.950 . S
H392 C416 0.950 . S
H393 C417 0.951 . S
H394 C419 0.951 . S
H395 C421 0.950 . S
H396 C422 0.950 . S
H397 C424 0.950 . S
H398 C427 0.950 . S
H399 C428 0.950 . S
H400 C430 0.950 . S
H401 C431 0.950 . S
C402 H384 0.951 1_655 S
C402 C403 1.366 . S
C402 C404 1.388 . S
C403 C402 1.366 . S
C403 C407 1.385 . S
C404 H385 0.951 . S
C404 C402 1.388 . S
C404 C405 1.366 . S
C405 C404 1.366 . S
C405 C406 1.414 . S
C405 C408 1.499 . S
C406 H386 0.950 . S
C406 C405 1.414 . S
C406 C407 1.374 . S
C407 H387 0.950 . S
C407 C403 1.385 . S
C407 C406 1.374 . S
C408 C405 1.499 . S
C408 C409 1.373 . S
C408 C410 1.389 . S
C409 H388 0.950 . S
C409 C408 1.373 . S
C409 C425 1.377 . S
C410 C408 1.389 . S
C410 C411 1.524 . S
C410 C424 1.377 . S
C411 C410 1.524 . S
C411 C412 1.397 . S
C411 C416 1.363 . S
C412 H389 0.950 . S
C412 C411 1.397 . S
C412 C413 1.334 . S
C413 H390 0.950 . S
C413 C412 1.334 . S
C413 C414 1.287 . S
C414 C413 1.287 . S
C414 C415 1.524 . S
C414 H433 0.913 . S
C415 H391 0.950 . S
C415 C414 1.524 . S
C415 C416 1.415 . S
C416 H392 0.950 . S
C416 C411 1.363 . S
C416 C415 1.415 . S
C417 H393 0.951 . S
C417 C418 1.366 . S
C417 C419 1.388 . S
C418 C417 1.366 . S
C418 C422 1.385 . S
C419 H394 0.951 . S
C419 C417 1.388 . S
C419 C420 1.366 . S
C420 C419 1.366 . S
C420 C421 1.414 . S
C420 C423 1.499 . S
C421 H395 0.950 . S
C421 C420 1.414 . S
C421 C422 1.374 . S
C422 H396 0.950 . S
C422 C418 1.385 . S
C422 C421 1.374 . S
C423 C420 1.499 . S
C423 C424 1.373 . S
C423 C425 1.389 . S
C424 H397 0.950 . S
C424 C410 1.377 . S
C424 C423 1.373 . S
C425 C409 1.377 . S
C425 C423 1.389 . S
C425 C426 1.524 . S
C426 C425 1.524 . S
C426 C427 1.397 . S
C426 C431 1.363 . S
C427 H398 0.950 . S
C427 C426 1.397 . S
C427 C428 1.334 . S
C428 H399 0.950 . S
C428 C427 1.334 . S
C428 C429 1.287 . S
C429 C428 1.287 . S
C429 C430 1.524 . S
C429 H432 0.999 . S
C430 H400 0.950 . S
C430 C429 1.524 . S
C430 C431 1.415 . S
C431 H401 0.950 . S
C431 C426 1.363 . S
C431 C430 1.415 . S
H432 C429 0.999 . S
H433 C414 0.913 . S
H434 C452 0.951 . S
H435 C454 0.951 . S
H436 C456 0.950 . S
H437 C457 0.950 . S
H438 C459 0.950 . S
H439 C462 0.950 . S
H440 C463 0.950 . S
H441 C465 0.950 . S
H442 C466 0.950 . S
H443 C467 0.951 . S
H444 C469 0.951 . S
H445 C471 0.950 . S
H446 C472 0.950 . S
H447 C474 0.950 . S
H448 C477 0.950 . S
H449 C478 0.950 . S
H450 C480 0.950 . S
H451 C481 0.950 . S
C452 H434 0.951 . S
C452 C453 1.366 . S
C452 C454 1.388 . S
C453 C452 1.366 . S
C453 C457 1.385 . S
C454 H435 0.951 . S
C454 C452 1.388 . S
C454 C455 1.366 . S
C455 C454 1.366 . S
C455 C456 1.414 . S
C455 C458 1.499 . S
C456 H436 0.950 . S
C456 C455 1.414 . S
C456 C457 1.374 . S
C457 H437 0.950 . S
C457 C453 1.385 . S
C457 C456 1.374 . S
C458 C455 1.499 . S
C458 C459 1.373 . S
C458 C460 1.389 . S
C459 H438 0.950 . S
C459 C458 1.373 . S
C459 C475 1.377 . S
C460 C458 1.389 . S
C460 C461 1.524 . S
C460 C474 1.377 . S
C461 C460 1.524 . S
C461 C462 1.397 . S
C461 C466 1.363 . S
C462 H439 0.950 . S
C462 C461 1.397 . S
C462 C463 1.334 . S
C463 H440 0.950 . S
C463 C462 1.334 . S
C463 C464 1.287 . S
C464 C463 1.287 . S
C464 C465 1.524 . S
C464 H483 0.913 . S
C465 H441 0.950 . S
C465 C464 1.524 . S
C465 C466 1.415 . S
C466 H442 0.950 . S
C466 C461 1.363 . S
C466 C465 1.415 . S
C467 H443 0.951 . S
C467 C468 1.366 . S
C467 C469 1.388 . S
C468 C467 1.366 . S
C468 C472 1.385 . S
C469 H444 0.951 . S
C469 C467 1.388 . S
C469 C470 1.366 . S
C470 C469 1.366 . S
C470 C471 1.414 . S
C470 C473 1.499 . S
C471 H445 0.950 . S
C471 C470 1.414 . S
C471 C472 1.374 . S
C472 H446 0.950 . S
C472 C468 1.385 . S
C472 C471 1.374 . S
C473 C470 1.499 . S
C473 C474 1.373 . S
C473 C475 1.389 . S
C474 H447 0.950 . S
C474 C460 1.377 . S
C474 C473 1.373 . S
C475 C459 1.377 . S
C475 C473 1.389 . S
C475 C476 1.524 . S
C476 C475 1.524 . S
C476 C477 1.397 . S
C476 C481 1.363 . S
C477 H448 0.950 . S
C477 C476 1.397 . S
C477 C478 1.334 . S
C478 H449 0.950 . S
C478 C477 1.334 . S
C478 C479 1.287 . S
C479 C478 1.287 . S
C479 C480 1.524 . S
C479 H482 0.999 . S
C480 H450 0.950 . S
C480 C479 1.524 . S
C480 C481 1.415 . S
C481 H451 0.950 . S
C481 C476 1.363 . S
C481 C480 1.415 . S
H482 C479 0.999 . S
H483 C464 0.913 . S
H484 C502 0.951 . S
H485 C504 0.951 . S
H486 C506 0.950 . S
H487 C507 0.950 . S
H488 C509 0.950 . S
H489 C512 0.950 . S
H490 C513 0.950 . S
H491 C515 0.950 . S
H492 C516 0.950 . S
H493 C517 0.951 . S
H494 C519 0.951 . S
H495 C521 0.950 . S
H496 C522 0.950 . S
H497 C524 0.950 . S
H498 C527 0.950 . S
H499 C528 0.950 . S
H500 C530 0.950 . S
H501 C531 0.950 . S
C502 H484 0.951 . S
C502 C503 1.366 . S
C502 C504 1.388 . S
C503 C502 1.366 . S
C503 C507 1.385 . S
C504 H485 0.951 . S
C504 C502 1.388 . S
C504 C505 1.366 . S
C505 C504 1.366 . S
C505 C506 1.414 . S
C505 C508 1.499 . S
C506 H486 0.950 . S
C506 C505 1.414 . S
C506 C507 1.374 . S
C507 H487 0.950 . S
C507 C503 1.385 . S
C507 C506 1.374 . S
C508 C505 1.499 . S
C508 C509 1.373 . S
C508 C510 1.389 . S
C509 H488 0.950 . S
C509 C508 1.373 . S
C509 C525 1.377 . S
C510 C508 1.389 . S
C510 C511 1.524 . S
C510 C524 1.377 . S
C511 C510 1.524 . S
C511 C512 1.397 . S
C511 C516 1.363 . S
C512 H489 0.950 . S
C512 C511 1.397 . S
C512 C513 1.334 . S
C513 H490 0.950 . S
C513 C512 1.334 . S
C513 C514 1.287 . S
C514 C513 1.287 . S
C514 C515 1.524 . S
C514 H533 0.913 . S
C515 H491 0.950 . S
C515 C514 1.524 . S
C515 C516 1.415 . S
C516 H492 0.950 . S
C516 C511 1.363 . S
C516 C515 1.415 . S
C517 H493 0.951 . S
C517 C518 1.366 . S
C517 C519 1.388 . S
C518 C517 1.366 . S
C518 C522 1.385 . S
C519 H494 0.951 . S
C519 C517 1.388 . S
C519 C520 1.366 . S
C520 C519 1.366 . S
C520 C521 1.414 . S
C520 C523 1.499 . S
C521 H495 0.950 . S
C521 C520 1.414 . S
C521 C522 1.374 . S
C522 H496 0.950 . S
C522 C518 1.385 . S
C522 C521 1.374 . S
C523 C520 1.499 . S
C523 C524 1.373 . S
C523 C525 1.389 . S
C524 H497 0.950 . S
C524 C510 1.377 . S
C524 C523 1.373 . S
C525 C509 1.377 . S
C525 C523 1.389 . S
C525 C526 1.524 . S
C526 C525 1.524 . S
C526 C527 1.397 . S
C526 C531 1.363 . S
C527 H498 0.950 . S
C527 C526 1.397 . S
C527 C528 1.334 . S
C528 H499 0.950 . S
C528 C527 1.334 . S
C528 C529 1.287 . S
C529 C528 1.287 . S
C529 C530 1.524 . S
C529 H532 0.999 . S
C530 H500 0.950 . S
C530 C529 1.524 . S
C530 C531 1.415 . S
C531 H501 0.950 . S
C531 C526 1.363 . S
C531 C530 1.415 . S
H532 C529 0.999 . S
H533 C514 0.913 . S
H534 C552 0.951 . S
H535 C554 0.951 . S
H536 C556 0.950 . S
H537 C557 0.950 . S
H538 C559 0.950 . S
H539 C562 0.950 . S
H540 C563 0.950 . S
H541 C565 0.950 . S
H542 C566 0.950 . S
H543 C567 0.951 . S
H544 C569 0.951 . S
H545 C571 0.950 . S
H546 C572 0.950 . S
H547 C574 0.950 . S
H548 C577 0.950 . S
H549 C578 0.950 . S
H550 C580 0.950 . S
H551 C581 0.950 . S
C552 H534 0.951 . S
C552 C553 1.366 . S
C552 C554 1.388 . S
C553 C552 1.366 . S
C553 C557 1.385 . S
C554 H535 0.951 . S
C554 C552 1.388 . S
C554 C555 1.366 . S
C555 C554 1.366 . S
C555 C556 1.414 . S
C555 C558 1.499 . S
C556 H536 0.950 . S
C556 C555 1.414 . S
C556 C557 1.374 . S
C557 H537 0.950 . S
C557 C553 1.385 . S
C557 C556 1.374 . S
C558 C555 1.499 . S
C558 C559 1.373 . S
C558 C560 1.389 . S
C559 H538 0.950 . S
C559 C558 1.373 . S
C559 C575 1.377 . S
C560 C558 1.389 . S
C560 C561 1.524 . S
C560 C574 1.377 . S
C561 C560 1.524 . S
C561 C562 1.397 . S
C561 C566 1.363 . S
C562 H539 0.950 . S
C562 C561 1.397 . S
C562 C563 1.334 . S
C563 H540 0.950 . S
C563 C562 1.334 . S
C563 C564 1.287 . S
C564 C563 1.287 . S
C564 C565 1.524 . S
C564 H583 0.913 . S
C565 H541 0.950 . S
C565 C564 1.524 . S
C565 C566 1.415 . S
C566 H542 0.950 . S
C566 C561 1.363 . S
C566 C565 1.415 . S
C567 H543 0.951 . S
C567 C568 1.366 . S
C567 C569 1.388 . S
C568 C567 1.366 . S
C568 C572 1.385 . S
C569 H544 0.951 . S
C569 C567 1.388 . S
C569 C570 1.366 . S
C570 C569 1.366 . S
C570 C571 1.414 . S
C570 C573 1.499 . S
C571 H545 0.950 . S
C571 C570 1.414 . S
C571 C572 1.374 . S
C572 H546 0.950 . S
C572 C568 1.385 . S
C572 C571 1.374 . S
C573 C570 1.499 . S
C573 C574 1.373 . S
C573 C575 1.389 . S
C574 H547 0.950 . S
C574 C560 1.377 . S
C574 C573 1.373 . S
C575 C559 1.377 . S
C575 C573 1.389 . S
C575 C576 1.524 . S
C576 C575 1.524 . S
C576 C577 1.397 . S
C576 C581 1.363 . S
C577 H548 0.950 . S
C577 C576 1.397 . S
C577 C578 1.334 . S
C578 H549 0.950 . S
C578 C577 1.334 . S
C578 C579 1.287 . S
C579 C578 1.287 . S
C579 C580 1.524 . S
C579 H582 0.999 . S
C580 H550 0.950 . S
C580 C579 1.524 . S
C580 C581 1.415 . S
C581 H551 0.950 . S
C581 C576 1.363 . S
C581 C580 1.415 . S
H582 C579 0.999 . S
H583 C564 0.913 . S
H584 C602 0.951 . S
H585 C604 0.951 . S
H586 C606 0.950 . S
H587 C607 0.950 . S
H588 C609 0.950 . S
H589 C612 0.950 . S
H590 C613 0.950 . S
H591 C615 0.950 . S
H592 C616 0.950 . S
H593 C617 0.951 . S
H594 C619 0.951 . S
H595 C621 0.950 . S
H596 C622 0.950 . S
H597 C624 0.950 . S
H598 C627 0.950 . S
H599 C628 0.950 . S
H600 C630 0.950 . S
H601 C631 0.950 . S
C602 H584 0.951 . S
C602 C603 1.366 . S
C602 C604 1.388 . S
C603 C602 1.366 . S
C603 C607 1.385 . S
C604 H585 0.951 . S
C604 C602 1.388 . S
C604 C605 1.366 . S
C605 C604 1.366 . S
C605 C606 1.414 . S
C605 C608 1.499 . S
C606 H586 0.950 . S
C606 C605 1.414 . S
C606 C607 1.374 . S
C607 H587 0.950 . S
C607 C603 1.385 . S
C607 C606 1.374 . S
C608 C605 1.499 . S
C608 C609 1.373 . S
C608 C610 1.389 . S
C609 H588 0.950 . S
C609 C608 1.373 . S
C609 C625 1.377 . S
C610 C608 1.389 . S
C610 C611 1.524 . S
C610 C624 1.377 . S
C611 C610 1.524 . S
C611 C612 1.397 . S
C611 C616 1.363 . S
C612 H589 0.950 . S
C612 C611 1.397 . S
C612 C613 1.334 . S
C613 H590 0.950 . S
C613 C612 1.334 . S
C613 C614 1.287 . S
C614 C613 1.287 . S
C614 C615 1.524 . S
C614 H633 0.913 . S
C615 H591 0.950 . S
C615 C614 1.524 . S
C615 C616 1.415 . S
C616 H592 0.950 . S
C616 C611 1.363 . S
C616 C615 1.415 . S
C617 H593 0.951 . S
C617 C618 1.366 . S
C617 C619 1.388 . S
C618 C617 1.366 . S
C618 C622 1.385 . S
C619 H594 0.951 . S
C619 C617 1.388 . S
C619 C620 1.366 . S
C620 C619 1.366 . S
C620 C621 1.414 . S
C620 C623 1.499 . S
C621 H595 0.950 . S
C621 C620 1.414 . S
C621 C622 1.374 . S
C622 H596 0.950 . S
C622 C618 1.385 . S
C622 C621 1.374 . S
C623 C620 1.499 . S
C623 C624 1.373 . S
C623 C625 1.389 . S
C624 H597 0.950 . S
C624 C610 1.377 . S
C624 C623 1.373 . S
C625 C609 1.377 . S
C625 C623 1.389 . S
C625 C626 1.524 . S
C626 C625 1.524 . S
C626 C627 1.397 . S
C626 C631 1.363 . S
C627 H598 0.950 . S
C627 C626 1.397 . S
C627 C628 1.334 . S
C628 H599 0.950 . S
C628 C627 1.334 . S
C628 C629 1.287 . S
C629 C628 1.287 . S
C629 C630 1.524 . S
C629 H632 0.999 . S
C630 H600 0.950 . S
C630 C629 1.524 . S
C630 C631 1.415 . S
C631 H601 0.950 . S
C631 C626 1.363 . S
C631 C630 1.415 . S
H632 C629 0.999 . S
H633 C614 0.913 . S
H634 C652 0.951 . S
H635 C654 0.951 . S
H636 C656 0.950 . S
H637 C657 0.950 . S
H638 C659 0.950 . S
H639 C662 0.950 . S
H640 C663 0.950 . S
H641 C665 0.950 . S
H642 C666 0.950 . S
H643 C667 0.951 . S
H644 C669 0.951 . S
H645 C671 0.950 . S
H646 C672 0.950 . S
H647 C674 0.950 . S
H648 C677 0.950 . S
H649 C678 0.950 . S
H650 C680 0.950 . S
H651 C681 0.950 . S
C652 H634 0.951 . S
C652 C653 1.366 . S
C652 C654 1.388 . S
C653 C652 1.366 . S
C653 C657 1.385 . S
C654 H635 0.951 . S
C654 C652 1.388 . S
C654 C655 1.366 . S
C655 C654 1.366 . S
C655 C656 1.414 . S
C655 C658 1.499 . S
C656 H636 0.950 . S
C656 C655 1.414 . S
C656 C657 1.374 . S
C657 H637 0.950 . S
C657 C653 1.385 . S
C657 C656 1.374 . S
C658 C655 1.499 . S
C658 C659 1.373 . S
C658 C660 1.389 . S
C659 H638 0.950 . S
C659 C658 1.373 . S
C659 C675 1.377 . S
C660 C658 1.389 . S
C660 C661 1.524 . S
C660 C674 1.377 . S
C661 C660 1.524 . S
C661 C662 1.397 . S
C661 C666 1.363 . S
C662 H639 0.950 . S
C662 C661 1.397 . S
C662 C663 1.334 . S
C663 H640 0.950 . S
C663 C662 1.334 . S
C663 C664 1.287 . S
C664 C663 1.287 . S
C664 C665 1.524 . S
C664 H683 0.913 . S
C665 H641 0.950 . S
C665 C664 1.524 . S
C665 C666 1.415 . S
C666 H642 0.950 . S
C666 C661 1.363 . S
C666 C665 1.415 . S
C667 H643 0.951 . S
C667 C668 1.366 . S
C667 C669 1.388 . S
C668 C667 1.366 . S
C668 C672 1.385 . S
C669 H644 0.951 . S
C669 C667 1.388 . S
C669 C670 1.366 . S
C670 C669 1.366 . S
C670 C671 1.414 . S
C670 C673 1.499 . S
C671 H645 0.950 . S
C671 C670 1.414 . S
C671 C672 1.374 . S
C672 H646 0.950 . S
C672 C668 1.385 . S
C672 C671 1.374 . S
C673 C670 1.499 . S
C673 C674 1.373 . S
C673 C675 1.389 . S
C674 H647 0.950 . S
C674 C660 1.377 . S
C674 C673 1.373 . S
C675 C659 1.377 . S
C675 C673 1.389 . S
C675 C676 1.524 . S
C676 C675 1.524 . S
C676 C677 1.397 . S
C676 C681 1.363 . S
C677 H648 0.950 . S
C677 C676 1.397 . S
C677 C678 1.334 . S
C678 H649 0.950 . S
C678 C677 1.334 . S
C678 C679 1.287 . S
C679 C678 1.287 . S
C679 C680 1.524 . S
C679 H682 0.996 . S
C680 H650 0.950 . S
C680 C679 1.524 . S
C680 C681 1.415 . S
C681 H651 0.950 . S
C681 C676 1.363 . S
C681 C680 1.415 . S
H682 C679 0.996 . S
H683 C664 0.913 . S
H684 C702 0.951 . S
H685 C704 0.951 . S
H686 C706 0.950 . S
H687 C707 0.950 . S
H688 C709 0.950 . S
H689 C712 0.950 . S
H690 C713 0.950 . S
H691 C715 0.950 . S
H692 C716 0.950 . S
H693 C717 0.951 . S
H694 C719 0.951 . S
H695 C721 0.950 . S
H696 C722 0.950 . S
H697 C724 0.950 . S
H698 C727 0.950 . S
H699 C728 0.950 . S
H700 C730 0.950 . S
H701 C731 0.950 . S
C702 H684 0.951 . S
C702 C703 1.366 . S
C702 C704 1.388 . S
C703 C702 1.366 . S
C703 C707 1.385 . S
C704 H685 0.951 . S
C704 C702 1.388 . S
C704 C705 1.366 . S
C705 C704 1.366 . S
C705 C706 1.414 . S
C705 C708 1.499 . S
C706 H686 0.950 . S
C706 C705 1.414 . S
C706 C707 1.374 . S
C707 H687 0.950 . S
C707 C703 1.385 . S
C707 C706 1.374 . S
C708 C705 1.499 . S
C708 C709 1.373 . S
C708 C710 1.389 . S
C709 H688 0.950 . S
C709 C708 1.373 . S
C709 C725 1.377 . S
C710 C708 1.389 . S
C710 C711 1.524 . S
C710 C724 1.377 . S
C711 C710 1.524 . S
C711 C712 1.397 . S
C711 C716 1.363 . S
C712 H689 0.950 . S
C712 C711 1.397 . S
C712 C713 1.334 . S
C713 H690 0.950 . S
C713 C712 1.334 . S
C713 C714 1.287 . S
C714 C713 1.287 . S
C714 C715 1.524 . S
C714 H733 0.913 . S
C715 H691 0.950 . S
C715 C714 1.524 . S
C715 C716 1.415 . S
C716 H692 0.950 . S
C716 C711 1.363 . S
C716 C715 1.415 . S
C717 H693 0.951 . S
C717 C718 1.366 . S
C717 C719 1.388 . S
C718 C717 1.366 . S
C718 C722 1.385 . S
C719 H694 0.951 . S
C719 C717 1.388 . S
C719 C720 1.366 . S
C720 C719 1.366 . S
C720 C721 1.414 . S
C720 C723 1.499 . S
C721 H695 0.950 . S
C721 C720 1.414 . S
C721 C722 1.374 . S
C722 H696 0.950 . S
C722 C718 1.385 . S
C722 C721 1.374 . S
C723 C720 1.499 . S
C723 C724 1.373 . S
C723 C725 1.389 . S
C724 H697 0.950 . S
C724 C710 1.377 . S
C724 C723 1.373 . S
C725 C709 1.377 . S
C725 C723 1.389 . S
C725 C726 1.524 . S
C726 C725 1.524 . S
C726 C727 1.397 . S
C726 C731 1.363 . S
C727 H698 0.950 . S
C727 C726 1.397 . S
C727 C728 1.334 . S
C728 H699 0.950 . S
C728 C727 1.334 . S
C728 C729 1.287 . S
C729 C728 1.287 . S
C729 C730 1.524 . S
C729 H732 0.999 1_655 S
C730 H700 0.950 . S
C730 C729 1.524 . S
C730 C731 1.415 . S
C731 H701 0.950 . S
C731 C726 1.363 . S
C731 C730 1.415 . S
H732 C729 0.999 1_455 S
H733 C714 0.913 . S
H734 C752 0.951 . S
H735 C754 0.951 . S
H736 C756 0.950 . S
H737 C757 0.950 . S
H738 C759 0.950 . S
H739 C762 0.950 . S
H740 C763 0.950 . S
H741 C765 0.950 . S
H742 C766 0.950 . S
H743 C767 0.951 . S
H744 C769 0.951 . S
H745 C771 0.950 . S
H746 C772 0.950 . S
H747 C774 0.950 . S
H748 C777 0.950 . S
H749 C778 0.950 . S
H750 C780 0.950 . S
H751 C781 0.950 . S
C752 H734 0.951 . S
C752 C753 1.366 . S
C752 C754 1.388 . S
C753 C752 1.366 . S
C753 C757 1.385 . S
C754 H735 0.951 . S
C754 C752 1.388 . S
C754 C755 1.366 . S
C755 C754 1.366 . S
C755 C756 1.414 . S
C755 C758 1.499 . S
C756 H736 0.950 . S
C756 C755 1.414 . S
C756 C757 1.374 . S
C757 H737 0.950 . S
C757 C753 1.385 . S
C757 C756 1.374 . S
C758 C755 1.499 . S
C758 C759 1.373 . S
C758 C760 1.389 . S
C759 H738 0.950 . S
C759 C758 1.373 . S
C759 C775 1.377 . S
C760 C758 1.389 . S
C760 C761 1.524 . S
C760 C774 1.377 . S
C761 C760 1.524 . S
C761 C762 1.397 . S
C761 C766 1.363 . S
C762 H739 0.950 . S
C762 C761 1.397 . S
C762 C763 1.334 . S
C763 H740 0.950 . S
C763 C762 1.334 . S
C763 C764 1.287 . S
C764 C763 1.287 . S
C764 C765 1.524 . S
C764 H783 0.913 . S
C765 H741 0.950 . S
C765 C764 1.524 . S
C765 C766 1.415 . S
C766 H742 0.950 . S
C766 C761 1.363 . S
C766 C765 1.415 . S
C767 H743 0.951 . S
C767 C768 1.366 . S
C767 C769 1.388 . S
C768 C767 1.366 . S
C768 C772 1.385 . S
C769 H744 0.951 . S
C769 C767 1.388 . S
C769 C770 1.366 . S
C770 C769 1.366 . S
C770 C771 1.414 . S
C770 C773 1.499 . S
C771 H745 0.950 . S
C771 C770 1.414 . S
C771 C772 1.374 . S
C772 H746 0.950 . S
C772 C768 1.385 . S
C772 C771 1.374 . S
C773 C770 1.499 . S
C773 C774 1.373 . S
C773 C775 1.389 . S
C774 H747 0.950 . S
C774 C760 1.377 . S
C774 C773 1.373 . S
C775 C759 1.377 . S
C775 C773 1.389 . S
C775 C776 1.524 . S
C776 C775 1.524 . S
C776 C777 1.397 . S
C776 C781 1.363 . S
C777 H748 0.950 . S
C777 C776 1.397 . S
C777 C778 1.334 . S
C778 H749 0.950 . S
C778 C777 1.334 . S
C778 C779 1.287 . S
C779 C778 1.287 . S
C779 C780 1.524 . S
C779 H782 0.999 . S
C780 H750 0.950 . S
C780 C779 1.524 . S
C780 C781 1.415 . S
C781 H751 0.950 . S
C781 C776 1.363 . S
C781 C780 1.415 . S
H782 C779 0.999 . S
H783 C764 0.913 . S
H784 C802 0.951 . S
H785 C804 0.951 . S
H786 C806 0.950 . S
H787 C807 0.950 . S
H788 C809 0.950 . S
H789 C812 0.950 . S
H790 C813 0.950 . S
H791 C815 0.950 . S
H792 C816 0.950 . S
H793 C817 0.951 . S
H794 C819 0.951 . S
H795 C821 0.950 . S
H796 C822 0.950 . S
H797 C824 0.950 . S
H798 C827 0.950 . S
H799 C828 0.950 . S
H800 C830 0.950 . S
H801 C831 0.950 . S
C802 H784 0.951 . S
C802 C803 1.366 . S
C802 C804 1.388 . S
C803 C802 1.366 . S
C803 C807 1.385 . S
C804 H785 0.951 . S
C804 C802 1.388 . S
C804 C805 1.366 . S
C805 C804 1.366 . S
C805 C806 1.414 . S
C805 C808 1.499 . S
C806 H786 0.950 . S
C806 C805 1.414 . S
C806 C807 1.374 . S
C807 H787 0.950 . S
C807 C803 1.385 . S
C807 C806 1.374 . S
C808 C805 1.499 . S
C808 C809 1.373 . S
C808 C810 1.389 . S
C809 H788 0.950 . S
C809 C808 1.373 . S
C809 C825 1.377 . S
C810 C808 1.389 . S
C810 C811 1.524 . S
C810 C824 1.377 . S
C811 C810 1.524 . S
C811 C812 1.397 . S
C811 C816 1.363 . S
C812 H789 0.950 . S
C812 C811 1.397 . S
C812 C813 1.334 . S
C813 H790 0.950 . S
C813 C812 1.334 . S
C813 C814 1.287 . S
C814 C813 1.287 . S
C814 C815 1.524 . S
C814 H833 0.913 . S
C815 H791 0.950 . S
C815 C814 1.524 . S
C815 C816 1.415 . S
C816 H792 0.950 . S
C816 C811 1.363 . S
C816 C815 1.415 . S
C817 H793 0.951 . S
C817 C818 1.366 . S
C817 C819 1.388 . S
C818 C817 1.366 . S
C818 C822 1.385 . S
C819 H794 0.951 . S
C819 C817 1.388 . S
C819 C820 1.366 . S
C820 C819 1.366 . S
C820 C821 1.414 . S
C820 C823 1.499 . S
C821 H795 0.950 . S
C821 C820 1.414 . S
C821 C822 1.374 . S
C822 H796 0.950 . S
C822 C818 1.385 . S
C822 C821 1.374 . S
C823 C820 1.499 . S
C823 C824 1.373 . S
C823 C825 1.389 . S
C824 H797 0.950 . S
C824 C810 1.377 . S
C824 C823 1.373 . S
C825 C809 1.377 . S
C825 C823 1.389 . S
C825 C826 1.524 . S
C826 C825 1.524 . S
C826 C827 1.397 . S
C826 C831 1.363 . S
C827 H798 0.950 . S
C827 C826 1.397 . S
C827 C828 1.334 . S
C828 H799 0.950 . S
C828 C827 1.334 . S
C828 C829 1.287 . S
C829 C828 1.287 . S
C829 C830 1.524 . S
C829 H832 0.999 . S
C830 H800 0.950 . S
C830 C829 1.524 . S
C830 C831 1.415 . S
C831 H801 0.950 . S
C831 C826 1.363 . S
C831 C830 1.415 . S
H832 C829 0.999 . S
H833 C814 0.913 . S
H834 C852 0.951 . S
H835 C854 0.951 . S
H836 C856 0.950 . S
H837 C857 0.950 . S
H838 C859 0.950 . S
H839 C862 0.950 . S
H840 C863 0.950 . S
H841 C865 0.950 . S
H842 C866 0.950 . S
H843 C867 0.951 . S
H844 C869 0.951 . S
H845 C871 0.950 . S
H846 C872 0.950 . S
H847 C874 0.950 . S
H848 C877 0.950 . S
H849 C878 0.950 . S
H850 C880 0.950 . S
H851 C881 0.950 . S
C852 H834 0.951 . S
C852 C853 1.366 . S
C852 C854 1.388 . S
C853 C852 1.366 . S
C853 C857 1.385 . S
C854 H835 0.951 . S
C854 C852 1.388 . S
C854 C855 1.366 . S
C855 C854 1.366 . S
C855 C856 1.414 . S
C855 C858 1.499 . S
C856 H836 0.950 . S
C856 C855 1.414 . S
C856 C857 1.374 . S
C857 H837 0.950 . S
C857 C853 1.385 . S
C857 C856 1.374 . S
C858 C855 1.499 . S
C858 C859 1.373 . S
C858 C860 1.389 . S
C859 H838 0.950 . S
C859 C858 1.373 . S
C859 C875 1.377 . S
C860 C858 1.389 . S
C860 C861 1.524 . S
C860 C874 1.377 . S
C861 C860 1.524 . S
C861 C862 1.397 . S
C861 C866 1.363 . S
C862 H839 0.950 . S
C862 C861 1.397 . S
C862 C863 1.334 . S
C863 H840 0.950 . S
C863 C862 1.334 . S
C863 C864 1.287 . S
C864 C863 1.287 . S
C864 C865 1.524 . S
C864 H883 0.913 . S
C865 H841 0.950 . S
C865 C864 1.524 . S
C865 C866 1.415 . S
C866 H842 0.950 . S
C866 C861 1.363 . S
C866 C865 1.415 . S
C867 H843 0.951 . S
C867 C868 1.366 . S
C867 C869 1.388 . S
C868 C867 1.366 . S
C868 C872 1.385 . S
C869 H844 0.951 . S
C869 C867 1.388 . S
C869 C870 1.366 . S
C870 C869 1.366 . S
C870 C871 1.414 . S
C870 C873 1.499 . S
C871 H845 0.950 . S
C871 C870 1.414 . S
C871 C872 1.374 . S
C872 H846 0.950 . S
C872 C868 1.385 . S
C872 C871 1.374 . S
C873 C870 1.499 . S
C873 C874 1.373 . S
C873 C875 1.389 . S
C874 H847 0.950 . S
C874 C860 1.377 . S
C874 C873 1.373 . S
C875 C859 1.377 . S
C875 C873 1.389 . S
C875 C876 1.524 . S
C876 C875 1.524 . S
C876 C877 1.397 . S
C876 C881 1.363 . S
C877 H848 0.950 . S
C877 C876 1.397 . S
C877 C878 1.334 . S
C878 H849 0.950 . S
C878 C877 1.334 . S
C878 C879 1.287 . S
C879 C878 1.287 . S
C879 C880 1.524 . S
C879 H882 0.999 . S
C880 H850 0.950 . S
C880 C879 1.524 . S
C880 C881 1.415 . S
C881 H851 0.950 . S
C881 C876 1.363 . S
C881 C880 1.415 . S
H882 C879 0.999 . S
H883 C864 0.913 . S
H884 C902 0.951 . S
H885 C904 0.951 . S
H886 C906 0.950 . S
H887 C907 0.950 . S
H888 C909 0.950 . S
H889 C912 0.950 . S
H890 C913 0.950 . S
H891 C915 0.950 . S
H892 C916 0.950 . S
H893 C917 0.951 . S
H894 C919 0.951 . S
H895 C921 0.950 . S
H896 C922 0.950 . S
H897 C924 0.950 . S
H898 C927 0.950 . S
H899 C928 0.950 . S
H900 C930 0.950 . S
H901 C931 0.950 . S
C902 H884 0.951 . S
C902 C903 1.366 . S
C902 C904 1.388 . S
C903 C902 1.366 . S
C903 C907 1.385 . S
C904 H885 0.951 . S
C904 C902 1.388 . S
C904 C905 1.366 . S
C905 C904 1.366 . S
C905 C906 1.414 . S
C905 C908 1.499 . S
C906 H886 0.950 . S
C906 C905 1.414 . S
C906 C907 1.374 . S
C907 H887 0.950 . S
C907 C903 1.385 . S
C907 C906 1.374 . S
C908 C905 1.499 . S
C908 C909 1.373 . S
C908 C910 1.389 . S
C909 H888 0.950 . S
C909 C908 1.373 . S
C909 C925 1.377 . S
C910 C908 1.389 . S
C910 C911 1.524 . S
C910 C924 1.377 . S
C911 C910 1.524 . S
C911 C912 1.397 . S
C911 C916 1.363 . S
C912 H889 0.950 . S
C912 C911 1.397 . S
C912 C913 1.334 . S
C913 H890 0.950 . S
C913 C912 1.334 . S
C913 C914 1.287 . S
C914 C913 1.287 . S
C914 C915 1.524 . S
C914 H933 0.913 . S
C915 H891 0.950 . S
C915 C914 1.524 . S
C915 C916 1.415 . S
C916 H892 0.950 . S
C916 C911 1.363 . S
C916 C915 1.415 . S
C917 H893 0.951 . S
C917 C918 1.366 . S
C917 C919 1.388 . S
C918 C917 1.366 . S
C918 C922 1.385 . S
C919 H894 0.951 . S
C919 C917 1.388 . S
C919 C920 1.366 . S
C920 C919 1.366 . S
C920 C921 1.414 . S
C920 C923 1.499 . S
C921 H895 0.950 . S
C921 C920 1.414 . S
C921 C922 1.374 . S
C922 H896 0.950 . S
C922 C918 1.385 . S
C922 C921 1.374 . S
C923 C920 1.499 . S
C923 C924 1.373 . S
C923 C925 1.389 . S
C924 H897 0.950 . S
C924 C910 1.377 . S
C924 C923 1.373 . S
C925 C909 1.377 . S
C925 C923 1.389 . S
C925 C926 1.524 . S
C926 C925 1.524 . S
C926 C927 1.397 . S
C926 C931 1.363 . S
C927 H898 0.950 . S
C927 C926 1.397 . S
C927 C928 1.334 . S
C928 H899 0.950 . S
C928 C927 1.334 . S
C928 C929 1.287 . S
C929 C928 1.287 . S
C929 C930 1.524 . S
C929 H932 0.999 . S
C930 H900 0.950 . S
C930 C929 1.524 . S
C930 C931 1.415 . S
C931 H901 0.950 . S
C931 C926 1.363 . S
C931 C930 1.415 . S
H932 C929 0.999 . S
H933 C914 0.913 . S
H934 C952 0.951 . S
H935 C954 0.951 . S
H936 C956 0.950 . S
H937 C957 0.950 . S
H938 C959 0.950 . S
H939 C962 0.950 . S
H940 C963 0.950 . S
H941 C965 0.950 . S
H942 C966 0.950 . S
H943 C967 0.951 . S
H944 C969 0.951 . S
H945 C971 0.950 . S
H946 C972 0.950 . S
H947 C974 0.950 . S
H948 C977 0.950 . S
H949 C978 0.950 . S
H950 C980 0.950 . S
H951 C981 0.950 . S
C952 H934 0.951 . S
C952 C953 1.366 . S
C952 C954 1.388 . S
C953 C952 1.366 . S
C953 C957 1.385 . S
C954 H935 0.951 . S
C954 C952 1.388 . S
C954 C955 1.366 . S
C955 C954 1.366 . S
C955 C956 1.414 . S
C955 C958 1.499 . S
C956 H936 0.950 . S
C956 C955 1.414 . S
C956 C957 1.374 . S
C957 H937 0.950 . S
C957 C953 1.385 . S
C957 C956 1.374 . S
C958 C955 1.499 . S
C958 C959 1.373 . S
C958 C960 1.389 . S
C959 H938 0.950 . S
C959 C958 1.373 . S
C959 C975 1.377 . S
C960 C958 1.389 . S
C960 C961 1.524 . S
C960 C974 1.377 . S
C961 C960 1.524 . S
C961 C962 1.397 . S
C961 C966 1.363 . S
C962 H939 0.950 . S
C962 C961 1.397 . S
C962 C963 1.334 . S
C963 H940 0.950 . S
C963 C962 1.334 . S
C963 C964 1.287 . S
C964 C963 1.287 . S
C964 C965 1.524 . S
C964 H983 0.913 . S
C965 H941 0.950 . S
C965 C964 1.524 . S
C965 C966 1.415 . S
C966 H942 0.950 . S
C966 C961 1.363 . S
C966 C965 1.415 . S
C967 H943 0.951 . S
C967 C968 1.366 . S
C967 C969 1.388 . S
C968 C967 1.366 . S
C968 C972 1.385 . S
C969 H944 0.951 . S
C969 C967 1.388 . S
C969 C970 1.366 . S
C970 C969 1.366 . S
C970 C971 1.414 . S
C970 C973 1.499 . S
C971 H945 0.950 . S
C971 C970 1.414 . S
C971 C972 1.374 . S
C972 H946 0.950 . S
C972 C968 1.385 . S
C972 C971 1.374 . S
C973 C970 1.499 . S
C973 C974 1.373 . S
C973 C975 1.389 . S
C974 H947 0.950 . S
C974 C960 1.377 . S
C974 C973 1.373 . S
C975 C959 1.377 . S
C975 C973 1.389 . S
C975 C976 1.524 . S
C976 C975 1.524 . S
C976 C977 1.397 . S
C976 C981 1.363 . S
C977 H948 0.950 . S
C977 C976 1.397 . S
C977 C978 1.334 . S
C978 H949 0.950 . S
C978 C977 1.334 . S
C978 C979 1.287 . S
C979 C978 1.287 . S
C979 C980 1.524 . S
C979 H982 0.999 . S
C980 H950 0.950 . S
C980 C979 1.524 . S
C980 C981 1.415 . S
C981 H951 0.950 . S
C981 C976 1.363 . S
C981 C980 1.415 . S
H982 C979 0.999 . S
H983 C964 0.913 . S
C203 C7 1.447 . S
C218 N71 1.414 . S
C253 N2 1.412 . S
C268 N25 1.406 . S
C303 C62 1.539 . S
C318 C30 1.543 . S
C353 C76 1.540 . S
C368 N58 1.497 . S
C403 C16 1.406 . S
C418 N127 1.378 . S
C453 N12 1.388 . S
C468 N104 1.383 . S
C503 C108 1.567 . S
C518 C53 1.570 . S
C553 N48 1.542 . S
C568 C131 1.575 . S
C603 C154 1.388 . S
C618 N117 1.359 . S
C653 N94 1.387 . S
C668 N150 1.384 . S
C703 C99 1.568 . S
C718 C168 1.567 . S
C753 C122 1.586 . S
C768 N163 1.551 . S
C803 C145 1.448 . S
C818 N81 1.413 . S
C853 N35 1.424 . S
C868 N140 1.431 . S
C903 C39 1.525 . S
C918 C177 1.523 . S
C953 C85 1.539 . S
C968 N173 1.501 . S
