# Generated by pormake.
# Topology ukp, (4)-cn, num edge types: 1
# Building blocks:
#     Node 0, Type 0, BuildingBlock: ICAMEG_clean_sbu_1, # of connection points: 4
#     Node 1, Type 0, BuildingBlock: ICAMEG_clean_sbu_1, # of connection points: 4
#     Node 2, Type 0, BuildingBlock: ICAMEG_clean_sbu_1, # of connection points: 4
#     Node 3, Type 0, BuildingBlock: ICAMEG_clean_sbu_1, # of connection points: 4
#     Node 4, Type 0, BuildingBlock: ICAMEG_clean_sbu_1, # of connection points: 4
#     Node 5, Type 0, BuildingBlock: ICAMEG_clean_sbu_1, # of connection points: 4
#     Node 6, Type 0, BuildingBlock: ICAMEG_clean_sbu_1, # of connection points: 4
#     Node 7, Type 0, BuildingBlock: ICAMEG_clean_sbu_1, # of connection points: 4
#     Node 8, Type 0, BuildingBlock: ICAMEG_clean_sbu_1, # of connection points: 4
#     Node 9, Type 0, BuildingBlock: ICAMEG_clean_sbu_1, # of connection points: 4
#     Node 10, Type 0, BuildingBlock: ICAMEG_clean_sbu_1, # of connection points: 4
#     Node 11, Type 0, BuildingBlock: ICAMEG_clean_sbu_1, # of connection points: 4
#     Node 12, Type 0, BuildingBlock: ICAMEG_clean_sbu_1, # of connection points: 4
#     Node 13, Type 0, BuildingBlock: ICAMEG_clean_sbu_1, # of connection points: 4
#     Node 14, Type 0, BuildingBlock: ICAMEG_clean_sbu_1, # of connection points: 4
#     Node 15, Type 0, BuildingBlock: ICAMEG_clean_sbu_1, # of connection points: 4
#     Node 16, Type 0, BuildingBlock: ICAMEG_clean_sbu_1, # of connection points: 4
#     Node 17, Type 0, BuildingBlock: ICAMEG_clean_sbu_1, # of connection points: 4
#     Node 18, Type 0, BuildingBlock: ICAMEG_clean_sbu_1, # of connection points: 4
#     Node 19, Type 0, BuildingBlock: ICAMEG_clean_sbu_1, # of connection points: 4
#     Node 20, Type 0, BuildingBlock: ICAMEG_clean_sbu_1, # of connection points: 4
#     Node 21, Type 0, BuildingBlock: ICAMEG_clean_sbu_1, # of connection points: 4
#     Node 22, Type 0, BuildingBlock: ICAMEG_clean_sbu_1, # of connection points: 4
#     Node 23, Type 0, BuildingBlock: ICAMEG_clean_sbu_1, # of connection points: 4
#     Node 24, Type 0, BuildingBlock: ICAMEG_clean_sbu_1, # of connection points: 4
#     Node 25, Type 0, BuildingBlock: ICAMEG_clean_sbu_1, # of connection points: 4
#     Node 26, Type 0, BuildingBlock: ICAMEG_clean_sbu_1, # of connection points: 4
#     Node 27, Type 0, BuildingBlock: ICAMEG_clean_sbu_1, # of connection points: 4
#     Node 28, Type 0, BuildingBlock: ICAMEG_clean_sbu_1, # of connection points: 4
#     Node 29, Type 0, BuildingBlock: ICAMEG_clean_sbu_1, # of connection points: 4
#     Node 30, Type 0, BuildingBlock: ICAMEG_clean_sbu_1, # of connection points: 4
#     Node 31, Type 0, BuildingBlock: ICAMEG_clean_sbu_1, # of connection points: 4
#     Node 32, Type 0, BuildingBlock: ICAMEG_clean_sbu_1, # of connection points: 4
#     Node 33, Type 0, BuildingBlock: ICAMEG_clean_sbu_1, # of connection points: 4
#     Node 34, Type 0, BuildingBlock: ICAMEG_clean_sbu_1, # of connection points: 4
#     Node 35, Type 0, BuildingBlock: ICAMEG_clean_sbu_1, # of connection points: 4
#     Node 36, Type 0, BuildingBlock: ICAMEG_clean_sbu_1, # of connection points: 4
#     Node 37, Type 0, BuildingBlock: ICAMEG_clean_sbu_1, # of connection points: 4
#     Node 38, Type 0, BuildingBlock: ICAMEG_clean_sbu_1, # of connection points: 4
#     Node 39, Type 0, BuildingBlock: ICAMEG_clean_sbu_1, # of connection points: 4
#     Node 40, Type 0, BuildingBlock: ICAMEG_clean_sbu_1, # of connection points: 4
#     Node 41, Type 0, BuildingBlock: ICAMEG_clean_sbu_1, # of connection points: 4
#     Node 42, Type 0, BuildingBlock: ICAMEG_clean_sbu_1, # of connection points: 4
#     Node 43, Type 0, BuildingBlock: ICAMEG_clean_sbu_1, # of connection points: 4
#     Node 44, Type 0, BuildingBlock: ICAMEG_clean_sbu_1, # of connection points: 4
#     Node 45, Type 0, BuildingBlock: ICAMEG_clean_sbu_1, # of connection points: 4
#     Node 46, Type 0, BuildingBlock: ICAMEG_clean_sbu_1, # of connection points: 4
#     Node 47, Type 0, BuildingBlock: ICAMEG_clean_sbu_1, # of connection points: 4
#     Edge 48, Type (0, 0), BuildingBlock: AJUNOK_clean_linker_0, # of connection points: 2
#     Edge 49, Type (0, 0), BuildingBlock: AJUNOK_clean_linker_0, # of connection points: 2
#     Edge 50, Type (0, 0), BuildingBlock: AJUNOK_clean_linker_0, # of connection points: 2
#     Edge 51, Type (0, 0), BuildingBlock: AJUNOK_clean_linker_0, # of connection points: 2
#     Edge 52, Type (0, 0), BuildingBlock: AJUNOK_clean_linker_0, # of connection points: 2
#     Edge 53, Type (0, 0), BuildingBlock: AJUNOK_clean_linker_0, # of connection points: 2
#     Edge 54, Type (0, 0), BuildingBlock: AJUNOK_clean_linker_0, # of connection points: 2
#     Edge 55, Type (0, 0), BuildingBlock: AJUNOK_clean_linker_0, # of connection points: 2
#     Edge 56, Type (0, 0), BuildingBlock: AJUNOK_clean_linker_0, # of connection points: 2
#     Edge 57, Type (0, 0), BuildingBlock: AJUNOK_clean_linker_0, # of connection points: 2
#     Edge 58, Type (0, 0), BuildingBlock: AJUNOK_clean_linker_0, # of connection points: 2
#     Edge 59, Type (0, 0), BuildingBlock: AJUNOK_clean_linker_0, # of connection points: 2
#     Edge 60, Type (0, 0), BuildingBlock: AJUNOK_clean_linker_0, # of connection points: 2
#     Edge 61, Type (0, 0), BuildingBlock: AJUNOK_clean_linker_0, # of connection points: 2
#     Edge 62, Type (0, 0), BuildingBlock: AJUNOK_clean_linker_0, # of connection points: 2
#     Edge 63, Type (0, 0), BuildingBlock: AJUNOK_clean_linker_0, # of connection points: 2
#     Edge 64, Type (0, 0), BuildingBlock: AJUNOK_clean_linker_0, # of connection points: 2
#     Edge 65, Type (0, 0), BuildingBlock: AJUNOK_clean_linker_0, # of connection points: 2
#     Edge 66, Type (0, 0), BuildingBlock: AJUNOK_clean_linker_0, # of connection points: 2
#     Edge 67, Type (0, 0), BuildingBlock: AJUNOK_clean_linker_0, # of connection points: 2
#     Edge 68, Type (0, 0), BuildingBlock: AJUNOK_clean_linker_0, # of connection points: 2
#     Edge 69, Type (0, 0), BuildingBlock: AJUNOK_clean_linker_0, # of connection points: 2
#     Edge 70, Type (0, 0), BuildingBlock: AJUNOK_clean_linker_0, # of connection points: 2
#     Edge 71, Type (0, 0), BuildingBlock: AJUNOK_clean_linker_0, # of connection points: 2
#     Edge 72, Type (0, 0), BuildingBlock: AJUNOK_clean_linker_0, # of connection points: 2
#     Edge 73, Type (0, 0), BuildingBlock: AJUNOK_clean_linker_0, # of connection points: 2
#     Edge 74, Type (0, 0), BuildingBlock: AJUNOK_clean_linker_0, # of connection points: 2
#     Edge 75, Type (0, 0), BuildingBlock: AJUNOK_clean_linker_0, # of connection points: 2
#     Edge 76, Type (0, 0), BuildingBlock: AJUNOK_clean_linker_0, # of connection points: 2
#     Edge 77, Type (0, 0), BuildingBlock: AJUNOK_clean_linker_0, # of connection points: 2
#     Edge 78, Type (0, 0), BuildingBlock: AJUNOK_clean_linker_0, # of connection points: 2
#     Edge 79, Type (0, 0), BuildingBlock: AJUNOK_clean_linker_0, # of connection points: 2
#     Edge 80, Type (0, 0), BuildingBlock: AJUNOK_clean_linker_0, # of connection points: 2
#     Edge 81, Type (0, 0), BuildingBlock: AJUNOK_clean_linker_0, # of connection points: 2
#     Edge 82, Type (0, 0), BuildingBlock: AJUNOK_clean_linker_0, # of connection points: 2
#     Edge 83, Type (0, 0), BuildingBlock: AJUNOK_clean_linker_0, # of connection points: 2
#     Edge 84, Type (0, 0), BuildingBlock: AJUNOK_clean_linker_0, # of connection points: 2
#     Edge 85, Type (0, 0), BuildingBlock: AJUNOK_clean_linker_0, # of connection points: 2
#     Edge 86, Type (0, 0), BuildingBlock: AJUNOK_clean_linker_0, # of connection points: 2
#     Edge 87, Type (0, 0), BuildingBlock: AJUNOK_clean_linker_0, # of connection points: 2
#     Edge 88, Type (0, 0), BuildingBlock: AJUNOK_clean_linker_0, # of connection points: 2
#     Edge 89, Type (0, 0), BuildingBlock: AJUNOK_clean_linker_0, # of connection points: 2
#     Edge 90, Type (0, 0), BuildingBlock: AJUNOK_clean_linker_0, # of connection points: 2
#     Edge 91, Type (0, 0), BuildingBlock: AJUNOK_clean_linker_0, # of connection points: 2
#     Edge 92, Type (0, 0), BuildingBlock: AJUNOK_clean_linker_0, # of connection points: 2
#     Edge 93, Type (0, 0), BuildingBlock: AJUNOK_clean_linker_0, # of connection points: 2
#     Edge 94, Type (0, 0), BuildingBlock: AJUNOK_clean_linker_0, # of connection points: 2
#     Edge 95, Type (0, 0), BuildingBlock: AJUNOK_clean_linker_0, # of connection points: 2
#     Edge 96, Type (0, 0), BuildingBlock: AJUNOK_clean_linker_0, # of connection points: 2
#     Edge 97, Type (0, 0), BuildingBlock: AJUNOK_clean_linker_0, # of connection points: 2
#     Edge 98, Type (0, 0), BuildingBlock: AJUNOK_clean_linker_0, # of connection points: 2
#     Edge 99, Type (0, 0), BuildingBlock: AJUNOK_clean_linker_0, # of connection points: 2
#     Edge 100, Type (0, 0), BuildingBlock: AJUNOK_clean_linker_0, # of connection points: 2
#     Edge 101, Type (0, 0), BuildingBlock: AJUNOK_clean_linker_0, # of connection points: 2
#     Edge 102, Type (0, 0), BuildingBlock: AJUNOK_clean_linker_0, # of connection points: 2
#     Edge 103, Type (0, 0), BuildingBlock: AJUNOK_clean_linker_0, # of connection points: 2
#     Edge 104, Type (0, 0), BuildingBlock: AJUNOK_clean_linker_0, # of connection points: 2
#     Edge 105, Type (0, 0), BuildingBlock: AJUNOK_clean_linker_0, # of connection points: 2
#     Edge 106, Type (0, 0), BuildingBlock: AJUNOK_clean_linker_0, # of connection points: 2
#     Edge 107, Type (0, 0), BuildingBlock: AJUNOK_clean_linker_0, # of connection points: 2
#     Edge 108, Type (0, 0), BuildingBlock: AJUNOK_clean_linker_0, # of connection points: 2
#     Edge 109, Type (0, 0), BuildingBlock: AJUNOK_clean_linker_0, # of connection points: 2
#     Edge 110, Type (0, 0), BuildingBlock: AJUNOK_clean_linker_0, # of connection points: 2
#     Edge 111, Type (0, 0), BuildingBlock: AJUNOK_clean_linker_0, # of connection points: 2
#     Edge 112, Type (0, 0), BuildingBlock: AJUNOK_clean_linker_0, # of connection points: 2
#     Edge 113, Type (0, 0), BuildingBlock: AJUNOK_clean_linker_0, # of connection points: 2
#     Edge 114, Type (0, 0), BuildingBlock: AJUNOK_clean_linker_0, # of connection points: 2
#     Edge 115, Type (0, 0), BuildingBlock: AJUNOK_clean_linker_0, # of connection points: 2
#     Edge 116, Type (0, 0), BuildingBlock: AJUNOK_clean_linker_0, # of connection points: 2
#     Edge 117, Type (0, 0), BuildingBlock: AJUNOK_clean_linker_0, # of connection points: 2
#     Edge 118, Type (0, 0), BuildingBlock: AJUNOK_clean_linker_0, # of connection points: 2
#     Edge 119, Type (0, 0), BuildingBlock: AJUNOK_clean_linker_0, # of connection points: 2
#     Edge 120, Type (0, 0), BuildingBlock: AJUNOK_clean_linker_0, # of connection points: 2
#     Edge 121, Type (0, 0), BuildingBlock: AJUNOK_clean_linker_0, # of connection points: 2
#     Edge 122, Type (0, 0), BuildingBlock: AJUNOK_clean_linker_0, # of connection points: 2
#     Edge 123, Type (0, 0), BuildingBlock: AJUNOK_clean_linker_0, # of connection points: 2
#     Edge 124, Type (0, 0), BuildingBlock: AJUNOK_clean_linker_0, # of connection points: 2
#     Edge 125, Type (0, 0), BuildingBlock: AJUNOK_clean_linker_0, # of connection points: 2
#     Edge 126, Type (0, 0), BuildingBlock: AJUNOK_clean_linker_0, # of connection points: 2
#     Edge 127, Type (0, 0), BuildingBlock: AJUNOK_clean_linker_0, # of connection points: 2
#     Edge 128, Type (0, 0), BuildingBlock: AJUNOK_clean_linker_0, # of connection points: 2
#     Edge 129, Type (0, 0), BuildingBlock: AJUNOK_clean_linker_0, # of connection points: 2
#     Edge 130, Type (0, 0), BuildingBlock: AJUNOK_clean_linker_0, # of connection points: 2
#     Edge 131, Type (0, 0), BuildingBlock: AJUNOK_clean_linker_0, # of connection points: 2
#     Edge 132, Type (0, 0), BuildingBlock: AJUNOK_clean_linker_0, # of connection points: 2
#     Edge 133, Type (0, 0), BuildingBlock: AJUNOK_clean_linker_0, # of connection points: 2
#     Edge 134, Type (0, 0), BuildingBlock: AJUNOK_clean_linker_0, # of connection points: 2
#     Edge 135, Type (0, 0), BuildingBlock: AJUNOK_clean_linker_0, # of connection points: 2
#     Edge 136, Type (0, 0), BuildingBlock: AJUNOK_clean_linker_0, # of connection points: 2
#     Edge 137, Type (0, 0), BuildingBlock: AJUNOK_clean_linker_0, # of connection points: 2
#     Edge 138, Type (0, 0), BuildingBlock: AJUNOK_clean_linker_0, # of connection points: 2
#     Edge 139, Type (0, 0), BuildingBlock: AJUNOK_clean_linker_0, # of connection points: 2
#     Edge 140, Type (0, 0), BuildingBlock: AJUNOK_clean_linker_0, # of connection points: 2
#     Edge 141, Type (0, 0), BuildingBlock: AJUNOK_clean_linker_0, # of connection points: 2
#     Edge 142, Type (0, 0), BuildingBlock: AJUNOK_clean_linker_0, # of connection points: 2
#     Edge 143, Type (0, 0), BuildingBlock: AJUNOK_clean_linker_0, # of connection points: 2
# Relax obj value: 0.070
# Max RMSD: 0.207
# Mean RMSD: 0.207
data_MOF--net-ukp--node1-ICAMEG_clean_sbu_1--edge1-AJUNOK_clean_linker_0
_symmetry_space_group_name_H-M    P1
_symmetry_Int_Tables_number       1
_symmetry_cell_setting            triclinic
loop_
_symmetry_equiv_pos_as_xyz
'x, y, z'
_cell_length_a     49.757723
_cell_length_b     49.760032
_cell_length_c     49.761494
_cell_angle_alpha  90.01115
_cell_angle_beta   89.9782
_cell_angle_gamma 89.988682
loop_
_atom_site_label
_atom_site_type_symbol
_atom_site_fract_x
_atom_site_fract_y
_atom_site_fract_z
_atom_type_partial_charge
Co0 Co 0.19822 0.2819 0.36679 0.0
Co1 Co 0.15449 0.24095 0.33152 0.0
O2 O 0.1644 0.26273 0.36262 0.0
C3 C 0.15747 0.32479 0.36835 0.0
O4 O 0.1464 0.31254 0.34781 0.0
C5 C 0.15347 0.20308 0.37727 0.0
O6 O 0.17745 0.2123 0.38319 0.0
O7 O 0.19064 0.22342 0.3302 0.0
O8 O 0.21869 0.24988 0.35381 0.0
H9 H 0.16649 0.19994 0.23999 0.0
H10 H 0.15929 0.27824 0.41165 0.0
O11 O 0.1783 0.3147 0.37935 0.0
H12 H 0.24321 0.23868 0.44647 0.0
H13 H 0.26269 0.34491 0.41282 0.0
H14 H 0.24794 0.28635 0.33426 0.0
H15 H 0.24121 0.25738 0.40062 0.0
H16 H 0.22035 0.31954 0.40793 0.0
O17 O 0.14101 0.21223 0.35679 0.0
H18 H 0.17935 0.22781 0.2789 0.0
H19 H 0.10708 0.20665 0.31907 0.0
H20 H 0.29062 0.31114 0.33847 0.0
H21 H 0.16037 0.26006 0.45778 0.0
H22 H 0.2982 0.34071 0.37796 0.0
H23 H 0.20253 0.23996 0.47541 0.0
O24 O 0.19637 0.29551 0.3294 0.0
H25 H 0.07067 0.27567 0.37602 0.0
H26 H 0.11983 0.26721 0.29035 0.0
H27 H 0.07636 0.29103 0.29131 0.0
H28 H 0.0515 0.29541 0.33438 0.0
H29 H 0.11432 0.25223 0.3742 0.0
H30 H 0.09349 0.17837 0.28066 0.0
H31 H 0.12326 0.17497 0.24072 0.0
O32 O 0.16796 0.26928 0.30605 0.0
C33 C 0.21394 0.22925 0.33928 0.0
C34 C 0.15331 0.20132 0.25724 0.0
C35 C 0.11236 0.18918 0.28009 0.0
N36 N 0.14391 0.21899 0.30114 0.0
C37 C 0.16045 0.21713 0.2793 0.0
C38 C 0.12018 0.20517 0.30179 0.0
C39 C 0.12906 0.18729 0.25768 0.0
C40 C 0.17774 0.26964 0.41925 0.0
N41 N 0.20013 0.26864 0.40339 0.0
C42 C 0.17822 0.25934 0.44535 0.0
C43 C 0.20187 0.24804 0.45522 0.0
C44 C 0.22468 0.24728 0.43899 0.0
C45 C 0.22342 0.25774 0.41298 0.0
C46 C 0.25964 0.33204 0.39556 0.0
C47 C 0.25117 0.29898 0.35164 0.0
C48 C 0.2357 0.31766 0.39266 0.0
N49 N 0.23179 0.30127 0.37098 0.0
C50 C 0.27535 0.31305 0.35385 0.0
C51 C 0.27957 0.32966 0.376 0.0
C52 C 0.1842 0.28912 0.30779 0.0
C53 C 0.08128 0.27382 0.35711 0.0
C54 C 0.10911 0.26901 0.30917 0.0
C55 C 0.08449 0.28249 0.30958 0.0
C56 C 0.07055 0.28492 0.33375 0.0
N57 N 0.11953 0.25821 0.33217 0.0
C58 C 0.10594 0.26046 0.35594 0.0
Co59 Co 0.97284 0.95089 0.61843 0.0
Co60 Co 0.01265 0.9059 0.58339 0.0
O61 O 0.99139 0.91666 0.61458 0.0
C62 C 0.92902 0.91107 0.62175 0.0
O63 O 0.9404 0.8991 0.60117 0.0
C64 C 0.05131 0.90544 0.6285 0.0
O65 O 0.04219 0.92952 0.63421 0.0
O66 O 0.0305 0.94183 0.58093 0.0
O67 O 0.00489 0.9706 0.60457 0.0
H68 H 0.05175 0.91552 0.49075 0.0
H69 H 0.97638 0.91276 0.66395 0.0
O70 O 0.93993 0.93188 0.63195 0.0
H71 H 0.01839 0.99637 0.69657 0.0
H72 H 0.9128 0.01788 0.66496 0.0
H73 H 0.96831 0.99988 0.58483 0.0
H74 H 0.99889 0.99395 0.65108 0.0
H75 H 0.93714 0.97493 0.66026 0.0
O76 O 0.04176 0.89268 0.60839 0.0
H77 H 0.02497 0.92953 0.53003 0.0
H78 H 0.0464 0.85795 0.57125 0.0
H79 H 0.94464 0.04324 0.58885 0.0
H80 H 0.9953 0.91429 0.70975 0.0
H81 H 0.9166 0.05245 0.62913 0.0
H82 H 0.01664 0.95629 0.72628 0.0
O83 O 0.95855 0.94857 0.58122 0.0
H84 H 0.97876 0.82298 0.63007 0.0
H85 H 0.98558 0.8705 0.54338 0.0
H86 H 0.96213 0.82689 0.5455 0.0
H87 H 0.95864 0.80281 0.58909 0.0
H88 H 0.00181 0.86676 0.62708 0.0
H89 H 0.07365 0.84325 0.53249 0.0
H90 H 0.07634 0.87207 0.49182 0.0
O91 O 0.98396 0.91914 0.55821 0.0
C92 C 0.02512 0.96536 0.58969 0.0
C93 C 0.0507 0.90275 0.50832 0.0
C94 C 0.06301 0.86221 0.53177 0.0
N95 N 0.03398 0.8945 0.55282 0.0
C96 C 0.03552 0.91056 0.53061 0.0
C97 C 0.04761 0.87067 0.55367 0.0
C98 C 0.0645 0.87838 0.50895 0.0
C99 C 0.98551 0.93115 0.67106 0.0
N100 N 0.98678 0.95321 0.65477 0.0
C101 C 0.99624 0.93187 0.69699 0.0
C102 C 0.00823 0.95543 0.70624 0.0
C103 C 0.00926 0.97791 0.68957 0.0
C104 C 0.99836 0.97641 0.66376 0.0
C105 C 0.92497 0.01411 0.64732 0.0
C106 C 0.95629 0.0038 0.60251 0.0
C107 C 0.93869 0.98977 0.64451 0.0
N108 N 0.95418 0.98492 0.62236 0.0
C109 C 0.94287 0.02836 0.60463 0.0
C110 C 0.92712 0.0335 0.62722 0.0
C111 C 0.96453 0.93591 0.55973 0.0
C112 C 0.98021 0.83325 0.61095 0.0
C113 C 0.98408 0.86018 0.56243 0.0
C114 C 0.97083 0.83546 0.56349 0.0
C115 C 0.9689 0.82195 0.58795 0.0
N116 N 0.99516 0.8711 0.58506 0.0
C117 C 0.99334 0.85799 0.60911 0.0
Co118 Co 0.30429 0.72365 0.86757 0.0
Co119 Co 0.35046 0.76251 0.8331 0.0
O120 O 0.33888 0.74158 0.86427 0.0
C121 C 0.34319 0.67912 0.87252 0.0
O122 O 0.356 0.69023 0.85231 0.0
C123 C 0.35058 0.80104 0.87804 0.0
O124 O 0.32619 0.79238 0.88301 0.0
O125 O 0.31501 0.78118 0.83009 0.0
O126 O 0.28542 0.7556 0.8525 0.0
H127 H 0.34274 0.80137 0.74022 0.0
H128 H 0.3404 0.72632 0.91475 0.0
O129 O 0.3224 0.6906 0.88221 0.0
H130 H 0.25796 0.77409 0.9421 0.0
H131 H 0.23501 0.66632 0.914 0.0
H132 H 0.25637 0.71852 0.83252 0.0
H133 H 0.26142 0.7534 0.89717 0.0
H134 H 0.2784 0.68996 0.90985 0.0
O135 O 0.36375 0.79135 0.85826 0.0
H136 H 0.32789 0.77478 0.77929 0.0
H137 H 0.39901 0.79561 0.8216 0.0
H138 H 0.21264 0.69546 0.83593 0.0
H139 H 0.33775 0.74652 0.95998 0.0
H140 H 0.20173 0.66909 0.87688 0.0
H141 H 0.29633 0.77072 0.97385 0.0
O142 O 0.3075 0.70862 0.83084 0.0
H143 H 0.43222 0.72741 0.88091 0.0
H144 H 0.38588 0.73467 0.79364 0.0
H145 H 0.42911 0.71058 0.79634 0.0
H146 H 0.45261 0.70687 0.84023 0.0
H147 H 0.38883 0.75111 0.87734 0.0
H148 H 0.41454 0.82268 0.78305 0.0
H149 H 0.38636 0.8256 0.74196 0.0
O150 O 0.33702 0.73398 0.80787 0.0
C151 C 0.29119 0.77594 0.83801 0.0
C152 C 0.35525 0.80019 0.75797 0.0
C153 C 0.39552 0.81219 0.78204 0.0
N154 N 0.36266 0.78349 0.80261 0.0
C155 C 0.34699 0.78509 0.78013 0.0
C156 C 0.3866 0.79689 0.80382 0.0
C157 C 0.37971 0.8138 0.75898 0.0
C158 C 0.32221 0.73656 0.92078 0.0
N159 N 0.30104 0.73855 0.90343 0.0
C160 C 0.32087 0.74806 0.94636 0.0
C161 C 0.29764 0.76166 0.95411 0.0
C162 C 0.2761 0.76357 0.9363 0.0
C163 C 0.27819 0.75186 0.91088 0.0
C164 C 0.23952 0.67775 0.89605 0.0
C165 C 0.25172 0.7072 0.85047 0.0
C166 C 0.26409 0.69109 0.89356 0.0
N167 N 0.26989 0.70563 0.87101 0.0
C168 C 0.22694 0.69414 0.85226 0.0
C169 C 0.22085 0.67933 0.87523 0.0
C170 C 0.32034 0.7145 0.80943 0.0
C171 C 0.42221 0.72894 0.86167 0.0
C172 C 0.39594 0.73307 0.81282 0.0
C173 C 0.42044 0.71945 0.81421 0.0
C174 C 0.43362 0.7174 0.83884 0.0
N175 N 0.3849 0.74438 0.83529 0.0
C176 C 0.39768 0.74243 0.8595 0.0
Co177 Co 0.5292 0.052 0.11965 0.0
Co178 Co 0.48993 0.09683 0.0839 0.0
O179 O 0.51117 0.08643 0.11521 0.0
C180 C 0.5737 0.09108 0.12186 0.0
O181 O 0.56239 0.10294 0.1012 0.0
C182 C 0.45151 0.0997 0.12929 0.0
O183 O 0.45899 0.07516 0.13541 0.0
O184 O 0.47135 0.0612 0.08252 0.0
O185 O 0.49681 0.03255 0.10643 0.0
H186 H 0.44981 0.08557 0.99191 0.0
H187 H 0.52653 0.09116 0.16434 0.0
O188 O 0.56245 0.07071 0.13255 0.0
H189 H 0.4837 0.00889 0.1992 0.0
H190 H 0.58816 0.9849 0.16731 0.0
H191 H 0.53292 0.00234 0.08694 0.0
H192 H 0.50264 0.01008 0.15342 0.0
H193 H 0.56446 0.02812 0.16191 0.0
O194 O 0.46145 0.11134 0.10872 0.0
H195 H 0.47672 0.07209 0.03127 0.0
H196 H 0.457 0.14511 0.07083 0.0
H197 H 0.55591 0.9587 0.09169 0.0
H198 H 0.50815 0.09088 0.21039 0.0
H199 H 0.58383 0.94977 0.13208 0.0
H200 H 0.48644 0.04954 0.22806 0.0
O201 O 0.54337 0.05333 0.08233 0.0
H202 H 0.5259 0.18016 0.12825 0.0
H203 H 0.51703 0.13089 0.04273 0.0
H204 H 0.54106 0.17423 0.04351 0.0
H205 H 0.54555 0.19921 0.0865 0.0
H206 H 0.50231 0.13662 0.1266 0.0
H207 H 0.42964 0.1593 0.03199 0.0
H208 H 0.42603 0.12948 0.99211 0.0
O209 O 0.51812 0.0825 0.05888 0.0
C210 C 0.47649 0.03778 0.0917 0.0
C211 C 0.45127 0.09877 0.00914 0.0
C212 C 0.43993 0.14014 0.03165 0.0
N213 N 0.46857 0.10787 0.05324 0.0
C214 C 0.46652 0.09127 0.03146 0.0
C215 C 0.45539 0.13197 0.05361 0.0
C216 C 0.43792 0.1234 0.00928 0.0
C217 C 0.51719 0.07308 0.17193 0.0
N218 N 0.51543 0.0507 0.15612 0.0
C219 C 0.50679 0.07305 0.198 0.0
C220 C 0.49458 0.04986 0.20789 0.0
C221 C 0.493 0.02707 0.1917 0.0
C222 C 0.50358 0.02788 0.16571 0.0
C223 C 0.57607 0.98855 0.14962 0.0
C224 C 0.5449 0.99856 0.10466 0.0
C225 C 0.56272 0.01304 0.1464 0.0
N226 N 0.54732 0.01775 0.12417 0.0
C227 C 0.55793 0.97383 0.1072 0.0
C228 C 0.57361 0.96884 0.12985 0.0
C229 C 0.5374 0.06563 0.06064 0.0
C230 C 0.52401 0.16951 0.10938 0.0
C231 C 0.51898 0.14159 0.06152 0.0
C232 C 0.53256 0.16615 0.06183 0.0
C233 C 0.53506 0.18017 0.08595 0.0
N234 N 0.50811 0.13132 0.08456 0.0
C235 C 0.51057 0.1449 0.1083 0.0
Co236 Co 0.2017 0.71811 0.13887 0.0
Co237 Co 0.15491 0.75925 0.16966 0.0
O238 O 0.16702 0.73597 0.14048 0.0
C239 C 0.16269 0.67351 0.13787 0.0
O240 O 0.14994 0.68623 0.15715 0.0
C241 C 0.15469 0.79312 0.12105 0.0
O242 O 0.17907 0.784 0.11684 0.0
O243 O 0.19031 0.7782 0.17161 0.0
O244 O 0.22036 0.75156 0.15083 0.0
H245 H 0.16109 0.80694 0.25849 0.0
H246 H 0.16491 0.71753 0.09212 0.0
O247 O 0.18365 0.68392 0.12739 0.0
H248 H 0.24874 0.75869 0.05895 0.0
H249 H 0.27117 0.65612 0.09901 0.0
H250 H 0.24967 0.7171 0.17412 0.0
H251 H 0.24528 0.74246 0.10566 0.0
H252 H 0.22772 0.68 0.10048 0.0
O253 O 0.1418 0.78572 0.14196 0.0
H254 H 0.17675 0.77695 0.22224 0.0
H255 H 0.10572 0.79238 0.17761 0.0
H256 H 0.29349 0.69405 0.17322 0.0
H257 H 0.16751 0.73311 0.04511 0.0
H258 H 0.30447 0.6632 0.13554 0.0
H259 H 0.20962 0.75403 0.02831 0.0
O260 O 0.19846 0.70657 0.17678 0.0
H261 H 0.0743 0.71917 0.12382 0.0
H262 H 0.11917 0.73455 0.21082 0.0
H263 H 0.07632 0.70966 0.20954 0.0
H264 H 0.0536 0.70183 0.1658 0.0
H265 H 0.11726 0.74379 0.12598 0.0
H266 H 0.08933 0.82273 0.21325 0.0
H267 H 0.11707 0.83009 0.2541 0.0
O268 O 0.1681 0.73297 0.19744 0.0
C269 C 0.21419 0.77276 0.16393 0.0
C270 C 0.14878 0.80384 0.24083 0.0
C271 C 0.10852 0.81272 0.21543 0.0
N272 N 0.14207 0.78273 0.19798 0.0
C273 C 0.15751 0.78682 0.22029 0.0
C274 C 0.11792 0.79555 0.1953 0.0
C275 C 0.12409 0.81683 0.23835 0.0
C276 C 0.18334 0.72647 0.08489 0.0
N277 N 0.20486 0.72936 0.10168 0.0
C278 C 0.18468 0.73531 0.05828 0.0
C279 C 0.2083 0.74707 0.04887 0.0
C280 C 0.23024 0.74973 0.06606 0.0
C281 C 0.22813 0.7407 0.09255 0.0
C282 C 0.26663 0.6695 0.11555 0.0
C283 C 0.25436 0.70388 0.15752 0.0
C284 C 0.24201 0.68296 0.11654 0.0
N285 N 0.23618 0.69995 0.13731 0.0
C286 C 0.27919 0.69081 0.15718 0.0
C287 C 0.28532 0.67349 0.13604 0.0
C288 C 0.18512 0.71368 0.19748 0.0
C289 C 0.08397 0.72252 0.14301 0.0
C290 C 0.10941 0.73121 0.19171 0.0
C291 C 0.08513 0.71714 0.19111 0.0
C292 C 0.07238 0.71277 0.16657 0.0
N293 N 0.12062 0.74074 0.16852 0.0
C294 C 0.10824 0.73655 0.14437 0.0
Co295 Co 0.52995 0.94728 0.38407 0.0
Co296 Co 0.49069 0.90235 0.4198 0.0
O297 O 0.51158 0.91299 0.38826 0.0
C298 C 0.57433 0.9079 0.38026 0.0
O299 O 0.56345 0.8957 0.40096 0.0
C300 C 0.45151 0.90082 0.37504 0.0
O301 O 0.45926 0.92534 0.36921 0.0
O302 O 0.47252 0.93812 0.42199 0.0
O303 O 0.49792 0.96694 0.39817 0.0
H304 H 0.45189 0.91268 0.5125 0.0
H305 H 0.52564 0.90892 0.33884 0.0
O306 O 0.56284 0.92846 0.37017 0.0
H307 H 0.48432 0.99279 0.30599 0.0
H308 H 0.58969 0.01429 0.33721 0.0
H309 H 0.53513 0.99601 0.41791 0.0
H310 H 0.50407 0.99042 0.35138 0.0
H311 H 0.5648 0.97165 0.34168 0.0
O312 O 0.46167 0.88863 0.39519 0.0
H313 H 0.47861 0.92635 0.47306 0.0
H314 H 0.45731 0.85432 0.43256 0.0
H315 H 0.5595 0.03897 0.41419 0.0
H316 H 0.50646 0.91038 0.29314 0.0
H317 H 0.58704 0.04836 0.37364 0.0
H318 H 0.48549 0.95252 0.2765 0.0
O319 O 0.54466 0.94498 0.42103 0.0
H320 H 0.52484 0.81918 0.37372 0.0
H321 H 0.51817 0.86749 0.46001 0.0
H322 H 0.54162 0.82384 0.45822 0.0
H323 H 0.545 0.79935 0.41485 0.0
H324 H 0.50184 0.863 0.37635 0.0
H325 H 0.43015 0.83994 0.47148 0.0
H326 H 0.4274 0.86918 0.51186 0.0
O327 O 0.51938 0.91593 0.44466 0.0
C328 C 0.47768 0.96161 0.41302 0.0
C329 C 0.45298 0.89973 0.49506 0.0
C330 C 0.44075 0.85892 0.47201 0.0
N331 N 0.46964 0.89108 0.45061 0.0
C332 C 0.46814 0.90733 0.47269 0.0
C333 C 0.4561 0.8672 0.45001 0.0
C334 C 0.43923 0.87533 0.49467 0.0
C335 C 0.5166 0.92734 0.3317 0.0
N336 N 0.51565 0.94951 0.34788 0.0
C337 C 0.50575 0.92804 0.30582 0.0
C338 C 0.49397 0.95168 0.2965 0.0
C339 C 0.49326 0.97426 0.31306 0.0
C340 C 0.50427 0.97278 0.33883 0.0
C341 C 0.57774 0.01046 0.35498 0.0
C342 C 0.54694 0.99999 0.4001 0.0
C343 C 0.5637 0.9863 0.35766 0.0
N344 N 0.5485 0.98135 0.37999 0.0
C345 C 0.56074 0.02435 0.39815 0.0
C346 C 0.57623 0.02957 0.37541 0.0
C347 C 0.53898 0.93238 0.4426 0.0
C348 C 0.52343 0.82961 0.39275 0.0
C349 C 0.51962 0.85698 0.44105 0.0
C350 C 0.53288 0.83225 0.44017 0.0
C351 C 0.53476 0.81852 0.41583 0.0
N352 N 0.50846 0.86768 0.41835 0.0
C353 C 0.51032 0.85438 0.39439 0.0
Co354 Co 0.30273 0.28124 0.637 0.0
Co355 Co 0.34776 0.23871 0.66843 0.0
O356 O 0.33671 0.26207 0.63887 0.0
C357 C 0.34256 0.32477 0.63242 0.0
O358 O 0.35465 0.3138 0.65314 0.0
C359 C 0.34977 0.20312 0.62105 0.0
O360 O 0.32522 0.21134 0.61608 0.0
O361 O 0.31239 0.21949 0.66879 0.0
O362 O 0.28336 0.24951 0.65165 0.0
H363 H 0.33917 0.19057 0.75691 0.0
H364 H 0.3376 0.27862 0.58881 0.0
O365 O 0.32157 0.31381 0.62268 0.0
H366 H 0.25265 0.2351 0.56217 0.0
H367 H 0.23445 0.34238 0.59407 0.0
H368 H 0.25541 0.28615 0.67292 0.0
H369 H 0.2581 0.254 0.60767 0.0
H370 H 0.27739 0.31772 0.59674 0.0
O371 O 0.36236 0.21231 0.64141 0.0
H372 H 0.32436 0.22025 0.72014 0.0
H373 H 0.39713 0.20632 0.67807 0.0
H374 H 0.212 0.30991 0.67079 0.0
H375 H 0.33294 0.2602 0.543 0.0
H376 H 0.20134 0.33844 0.63126 0.0
H377 H 0.29025 0.23816 0.52947 0.0
O378 O 0.30723 0.29517 0.67415 0.0
H379 H 0.4302 0.2791 0.62627 0.0
H380 H 0.38109 0.26422 0.71107 0.0
H381 H 0.42379 0.28942 0.7117 0.0
H382 H 0.44866 0.29696 0.66907 0.0
H383 H 0.38733 0.25423 0.62653 0.0
H384 H 0.41277 0.17619 0.71418 0.0
H385 H 0.38375 0.16823 0.75403 0.0
O386 O 0.33274 0.26451 0.69573 0.0
C387 C 0.28856 0.22715 0.66305 0.0
C388 C 0.35209 0.19398 0.73973 0.0
C389 C 0.39334 0.18586 0.71572 0.0
N390 N 0.35988 0.21527 0.69715 0.0
C391 C 0.34381 0.21091 0.71894 0.0
C392 C 0.38434 0.20289 0.6953 0.0
C393 C 0.37706 0.18141 0.73808 0.0
C394 C 0.31887 0.26929 0.58296 0.0
N395 N 0.29811 0.26748 0.60083 0.0
C396 C 0.31639 0.2588 0.55704 0.0
C397 C 0.29245 0.2464 0.54948 0.0
C398 C 0.27134 0.24466 0.56782 0.0
C399 C 0.27456 0.25535 0.59358 0.0
C400 C 0.23887 0.33005 0.61144 0.0
C401 C 0.25085 0.29834 0.65553 0.0
C402 C 0.26321 0.31615 0.6131 0.0
N403 N 0.26887 0.30045 0.63491 0.0
C404 C 0.22627 0.31185 0.65451 0.0
C405 C 0.2203 0.32783 0.6323 0.0
C406 C 0.31808 0.28564 0.6953 0.0
C407 C 0.41959 0.27588 0.64498 0.0
C408 C 0.39178 0.26748 0.69244 0.0
C409 C 0.41596 0.28171 0.69292 0.0
C410 C 0.42992 0.28592 0.669 0.0
N411 N 0.38182 0.25765 0.66881 0.0
C412 C 0.39536 0.26171 0.64527 0.0
Co413 Co 0.9664 0.05084 0.88416 0.0
Co414 Co 0.00946 0.09476 0.91584 0.0
O415 O 0.98729 0.08393 0.88551 0.0
C416 C 0.9261 0.09286 0.87679 0.0
O417 O 0.93828 0.10464 0.89697 0.0
C418 C 0.04724 0.09739 0.86974 0.0
O419 O 0.04079 0.07235 0.86447 0.0
O420 O 0.02779 0.05933 0.91583 0.0
O421 O 0.99612 0.02996 0.90222 0.0
H422 H 0.05524 0.0826 0.00499 0.0
H423 H 0.97358 0.08265 0.83435 0.0
O424 O 0.93575 0.07107 0.86729 0.0
H425 H 0.01464 0.99443 0.81543 0.0
H426 H 0.90495 0.98447 0.83887 0.0
H427 H 0.95053 0.00866 0.92338 0.0
H428 H 0.99338 0.00348 0.85931 0.0
H429 H 0.93366 0.02478 0.84136 0.0
O430 O 0.03676 0.10936 0.88984 0.0
H431 H 0.02598 0.06948 0.96721 0.0
H432 H 0.0424 0.14335 0.92774 0.0
H433 H 0.92199 0.96826 0.92183 0.0
H434 H 0.99442 0.0744 0.79008 0.0
H435 H 0.89907 0.95579 0.87931 0.0
H436 H 0.01518 0.03002 0.78043 0.0
O437 O 0.95071 0.0581 0.91993 0.0
H438 H 0.97123 0.17798 0.87328 0.0
H439 H 0.98385 0.12856 0.95825 0.0
H440 H 0.95924 0.17159 0.95849 0.0
H441 H 0.9528 0.19661 0.91578 0.0
H442 H 0.99538 0.13469 0.87389 0.0
H443 H 0.07199 0.15722 0.96503 0.0
H444 H 0.07848 0.12677 0.00405 0.0
O445 O 0.9826 0.08045 0.94258 0.0
C446 C 0.01909 0.03542 0.91253 0.0
C447 C 0.05248 0.0961 0.98816 0.0
C448 C 0.06191 0.13796 0.96571 0.0
N449 N 0.03226 0.10576 0.94545 0.0
C450 C 0.03586 0.08881 0.96675 0.0
C451 C 0.04516 0.12999 0.94465 0.0
C452 C 0.06554 0.12087 0.9876 0.0
C453 C 0.98237 0.06323 0.83017 0.0
N454 N 0.98213 0.04353 0.84928 0.0
C455 C 0.99423 0.0587 0.80513 0.0
C456 C 0.00592 0.03381 0.79975 0.0
C457 C 0.00564 0.01383 0.81938 0.0
C458 C 0.99364 0.0191 0.84421 0.0
C459 C 0.91515 0.98944 0.85742 0.0
C460 C 0.94106 0.00313 0.90467 0.0
C461 C 0.93158 0.01216 0.85891 0.0
N462 N 0.94472 0.01845 0.8822 0.0
C463 C 0.92473 0.98032 0.90397 0.0
C464 C 0.91182 0.97339 0.88012 0.0
C465 C 0.96017 0.06798 0.94152 0.0
C466 C 0.97397 0.16731 0.89203 0.0
C467 C 0.9811 0.13931 0.93957 0.0
C468 C 0.96719 0.16369 0.93984 0.0
C469 C 0.96361 0.17773 0.91588 0.0
N470 N 0.99119 0.12921 0.9161 0.0
C471 C 0.98777 0.14287 0.89253 0.0
Co472 Co 0.36737 0.19998 0.2811 0.0
Co473 Co 0.33258 0.15531 0.24082 0.0
O474 O 0.36377 0.16588 0.26227 0.0
C475 C 0.3719 0.16013 0.32457 0.0
O476 O 0.35112 0.14816 0.31359 0.0
C477 C 0.37796 0.15415 0.20265 0.0
O478 O 0.38348 0.17846 0.21122 0.0
O479 O 0.33087 0.19104 0.22255 0.0
O480 O 0.35251 0.21975 0.24976 0.0
H481 H 0.24078 0.166 0.20008 0.0
H482 H 0.41429 0.16358 0.27734 0.0
O483 O 0.38191 0.18092 0.31346 0.0
H484 H 0.44235 0.24727 0.2323 0.0
H485 H 0.4139 0.26713 0.34085 0.0
H486 H 0.3326 0.24794 0.28757 0.0
H487 H 0.39729 0.24348 0.25267 0.0
H488 H 0.40972 0.2246 0.31567 0.0
O489 O 0.35778 0.14155 0.21224 0.0
H490 H 0.27962 0.17946 0.22774 0.0
H491 H 0.32037 0.10733 0.20716 0.0
H492 H 0.33602 0.29081 0.31219 0.0
H493 H 0.45962 0.16656 0.25743 0.0
H494 H 0.37689 0.30061 0.33913 0.0
H495 H 0.47386 0.20862 0.23463 0.0
O496 O 0.33062 0.19671 0.29605 0.0
H497 H 0.37766 0.07198 0.27586 0.0
H498 H 0.29176 0.12076 0.26775 0.0
H499 H 0.29296 0.07725 0.29146 0.0
H500 H 0.33614 0.05254 0.29561 0.0
H501 H 0.37561 0.11564 0.2525 0.0
H502 H 0.28203 0.09315 0.17909 0.0
H503 H 0.24185 0.12256 0.17548 0.0
O504 O 0.30717 0.16908 0.26907 0.0
C505 C 0.3387 0.21465 0.22881 0.0
C506 C 0.25813 0.15295 0.20158 0.0
C507 C 0.28131 0.1121 0.18975 0.0
N508 N 0.30215 0.14411 0.21921 0.0
C509 C 0.28014 0.16042 0.21729 0.0
C510 C 0.30298 0.12026 0.20562 0.0
C511 C 0.25876 0.1286 0.18775 0.0
C512 C 0.42046 0.18203 0.26769 0.0
N513 N 0.40325 0.20337 0.26629 0.0
C514 C 0.4461 0.18357 0.25636 0.0
C515 C 0.45406 0.20716 0.24353 0.0
C516 C 0.43639 0.22885 0.24221 0.0
C517 C 0.41089 0.22657 0.25373 0.0
C518 C 0.39601 0.2631 0.32916 0.0
C519 C 0.35053 0.25213 0.29909 0.0
C520 C 0.39351 0.23903 0.31494 0.0
N521 N 0.37101 0.23384 0.30009 0.0
C522 C 0.35232 0.27641 0.31306 0.0
C523 C 0.37524 0.28188 0.32818 0.0
C524 C 0.30899 0.18472 0.28938 0.0
C525 C 0.35871 0.08252 0.27412 0.0
C526 C 0.31064 0.11015 0.26952 0.0
C527 C 0.31118 0.0855 0.28292 0.0
C528 C 0.33541 0.07164 0.28523 0.0
N529 N 0.33357 0.12066 0.25863 0.0
C530 C 0.3574 0.1072 0.26083 0.0
Co531 Co 0.05413 0.11844 0.52963 0.0
Co532 Co 0.09798 0.08304 0.48887 0.0
O533 O 0.08799 0.11424 0.51051 0.0
C534 C 0.09453 0.12 0.57282 0.0
O535 O 0.10568 0.09945 0.56065 0.0
C536 C 0.10007 0.12872 0.45063 0.0
O537 O 0.07559 0.13468 0.45843 0.0
O538 O 0.06197 0.08188 0.47108 0.0
O539 O 0.03377 0.10523 0.49765 0.0
H540 H 0.08591 0.99153 0.44784 0.0
H541 H 0.09291 0.16338 0.52594 0.0
O542 O 0.07392 0.13118 0.56246 0.0
H543 H 0.00895 0.19794 0.48624 0.0
H544 H 0.9894 0.16468 0.5923 0.0
H545 H 0.00445 0.08587 0.53413 0.0
H546 H 0.01113 0.15202 0.50477 0.0
H547 H 0.03182 0.15971 0.56706 0.0
O548 O 0.11194 0.10816 0.46034 0.0
H549 H 0.07306 0.03048 0.47568 0.0
H550 H 0.14559 0.07034 0.45486 0.0
H551 H 0.96168 0.09016 0.55878 0.0
H552 H 0.09166 0.20956 0.50789 0.0
H553 H 0.95395 0.12978 0.58816 0.0
H554 H 0.04946 0.22707 0.48777 0.0
O555 O 0.05603 0.08114 0.54346 0.0
H556 H 0.18176 0.12708 0.52414 0.0
H557 H 0.13238 0.04163 0.51513 0.0
H558 H 0.17587 0.04227 0.53888 0.0
H559 H 0.20088 0.08522 0.54349 0.0
H560 H 0.13806 0.12559 0.50085 0.0
H561 H 0.15916 0.03191 0.42661 0.0
H562 H 0.12925 0.9921 0.42305 0.0
O563 O 0.08423 0.05767 0.51709 0.0
C564 C 0.0386 0.09076 0.47699 0.0
C565 C 0.09915 0.00873 0.44928 0.0
C566 C 0.14024 0.03141 0.43734 0.0
N567 N 0.10861 0.05258 0.467 0.0
C568 C 0.09201 0.03081 0.46507 0.0
C569 C 0.13242 0.05314 0.4533 0.0
C570 C 0.12346 0.00907 0.43536 0.0
C571 C 0.07446 0.17092 0.51729 0.0
N572 N 0.05214 0.15497 0.51619 0.0
C573 C 0.07388 0.19705 0.50707 0.0
C574 C 0.05021 0.20686 0.49576 0.0
C575 C 0.02749 0.19051 0.49486 0.0
C576 C 0.02885 0.16447 0.50522 0.0
C577 C 0.99251 0.14736 0.57951 0.0
C578 C 0.00115 0.1033 0.54667 0.0
C579 C 0.0165 0.14442 0.56521 0.0
N580 N 0.02049 0.12267 0.54893 0.0
C581 C 0.97692 0.10556 0.56067 0.0
C582 C 0.97262 0.12778 0.57717 0.0
C583 C 0.06813 0.05951 0.53702 0.0
C584 C 0.1711 0.10822 0.52219 0.0
C585 C 0.14314 0.0604 0.51705 0.0
C586 C 0.16777 0.06063 0.5305 0.0
C587 C 0.1818 0.08474 0.53307 0.0
N588 N 0.1328 0.08351 0.50641 0.0
C589 C 0.14641 0.10723 0.50889 0.0
Co590 Co 0.13882 0.808 0.77997 0.0
Co591 Co 0.17316 0.85313 0.73975 0.0
O592 O 0.14207 0.84172 0.76065 0.0
C593 C 0.13599 0.84927 0.82195 0.0
O594 O 0.15627 0.86018 0.80916 0.0
C595 C 0.12787 0.85344 0.70081 0.0
O596 O 0.12293 0.82859 0.70816 0.0
O597 O 0.17636 0.81707 0.72228 0.0
O598 O 0.15334 0.78782 0.74836 0.0
H599 H 0.26591 0.84679 0.69985 0.0
H600 H 0.09187 0.84451 0.77678 0.0
O601 O 0.12513 0.82802 0.8125 0.0
H602 H 0.06283 0.76026 0.73342 0.0
H603 H 0.09319 0.74257 0.84218 0.0
H604 H 0.17292 0.75943 0.78576 0.0
H605 H 0.10839 0.76436 0.75257 0.0
H606 H 0.09747 0.78486 0.81659 0.0
O607 O 0.1478 0.86603 0.71091 0.0
H608 H 0.22743 0.83156 0.72702 0.0
H609 H 0.18355 0.90154 0.70621 0.0
H610 H 0.16943 0.7169 0.81092 0.0
H611 H 0.04607 0.84126 0.75803 0.0
H612 H 0.12933 0.70822 0.83936 0.0
H613 H 0.03132 0.79889 0.73612 0.0
O614 O 0.17589 0.81106 0.79413 0.0
H615 H 0.12485 0.93485 0.77447 0.0
H616 H 0.21247 0.88911 0.76695 0.0
H617 H 0.2095 0.9324 0.79094 0.0
H618 H 0.16545 0.95557 0.79479 0.0
H619 H 0.12865 0.89136 0.751 0.0
H620 H 0.22142 0.91761 0.67859 0.0
H621 H 0.26304 0.8902 0.67534 0.0
O622 O 0.19882 0.84017 0.7683 0.0
C623 C 0.16826 0.79339 0.72822 0.0
C624 C 0.24789 0.85893 0.70107 0.0
C625 C 0.22293 0.89865 0.68914 0.0
N626 N 0.20329 0.86554 0.71827 0.0
C627 C 0.22605 0.85034 0.71645 0.0
C628 C 0.20151 0.88939 0.70475 0.0
C629 C 0.24627 0.88328 0.68734 0.0
C630 C 0.08549 0.82595 0.76748 0.0
N631 N 0.10266 0.80459 0.76593 0.0
C632 C 0.05958 0.82425 0.75681 0.0
C633 C 0.05133 0.80049 0.74449 0.0
C634 C 0.06901 0.7788 0.74296 0.0
C635 C 0.09477 0.78125 0.7538 0.0
C636 C 0.11072 0.74608 0.82978 0.0
C637 C 0.15531 0.75574 0.79794 0.0
C638 C 0.11326 0.76998 0.81528 0.0
N639 N 0.13528 0.77448 0.79951 0.0
C640 C 0.15349 0.73164 0.8122 0.0
C641 C 0.131 0.72681 0.82819 0.0
C642 C 0.19738 0.82351 0.78785 0.0
C643 C 0.14418 0.92499 0.77284 0.0
C644 C 0.19323 0.89908 0.76855 0.0
C645 C 0.19168 0.9236 0.78212 0.0
C646 C 0.16696 0.9366 0.78427 0.0
N647 N 0.1708 0.88784 0.75738 0.0
C648 C 0.14648 0.90044 0.75943 0.0
Co649 Co 0.44688 0.88418 0.03299 0.0
Co650 Co 0.40378 0.91988 0.99175 0.0
O651 O 0.41323 0.88864 0.01356 0.0
C652 C 0.40607 0.88287 0.07586 0.0
O653 O 0.39505 0.90348 0.06367 0.0
C654 C 0.40219 0.87433 0.9535 0.0
O655 O 0.4264 0.86814 0.96193 0.0
O656 O 0.44004 0.92079 0.97446 0.0
O657 O 0.46767 0.89705 0.0012 0.0
H658 H 0.41722 0.01124 0.95084 0.0
H659 H 0.40769 0.83962 0.02903 0.0
O660 O 0.42672 0.87167 0.06564 0.0
H661 H 0.49166 0.80411 0.99014 0.0
H662 H 0.51064 0.83748 0.09625 0.0
H663 H 0.49675 0.91637 0.03794 0.0
H664 H 0.48979 0.85006 0.00861 0.0
H665 H 0.46851 0.84275 0.07062 0.0
O666 O 0.39019 0.89491 0.96299 0.0
H667 H 0.42938 0.97216 0.9788 0.0
H668 H 0.35673 0.93298 0.95716 0.0
H669 H 0.53925 0.91177 0.06297 0.0
H670 H 0.40862 0.79341 0.01104 0.0
H671 H 0.54639 0.87211 0.09242 0.0
H672 H 0.45082 0.77542 0.99132 0.0
O673 O 0.44515 0.92157 0.04671 0.0
H674 H 0.31914 0.87635 0.02562 0.0
H675 H 0.36925 0.96148 0.0176 0.0
H676 H 0.32538 0.96107 0.0407 0.0
H677 H 0.30001 0.91829 0.04481 0.0
H678 H 0.36321 0.8776 0.00297 0.0
H679 H 0.34385 0.97155 0.92878 0.0
H680 H 0.37417 0.01108 0.92558 0.0
O681 O 0.41723 0.94512 0.02015 0.0
C682 C 0.46322 0.91157 0.98052 0.0
C683 C 0.4038 0.99417 0.95214 0.0
C684 C 0.36264 0.97187 0.93972 0.0
N685 N 0.3937 0.95042 0.96975 0.0
C686 C 0.41054 0.97202 0.968 0.0
C687 C 0.37006 0.95007 0.95577 0.0
C688 C 0.37965 0.99405 0.93794 0.0
C689 C 0.42614 0.83188 0.02056 0.0
N690 N 0.44864 0.84759 0.01966 0.0
C691 C 0.42654 0.80572 0.01037 0.0
C692 C 0.45021 0.79565 0.99929 0.0
C693 C 0.47312 0.81174 0.99858 0.0
C694 C 0.47193 0.83781 0.00891 0.0
C695 C 0.50778 0.85481 0.08343 0.0
C696 C 0.49979 0.89892 0.05051 0.0
C697 C 0.48396 0.85792 0.06892 0.0
N698 N 0.48028 0.8797 0.05259 0.0
C699 C 0.52387 0.89649 0.06473 0.0
C700 C 0.52785 0.87425 0.08127 0.0
C701 C 0.43317 0.94325 0.04018 0.0
C702 C 0.32996 0.89514 0.02389 0.0
C703 C 0.35833 0.94278 0.01931 0.0
C704 C 0.33349 0.94268 0.03239 0.0
C705 C 0.31926 0.91867 0.03467 0.0
N706 N 0.36869 0.91962 0.00876 0.0
C707 C 0.35487 0.89599 0.01096 0.0
Co708 Co 0.36585 0.80438 0.22308 0.0
Co709 Co 0.33069 0.84819 0.26399 0.0
O710 O 0.36182 0.8382 0.24226 0.0
C711 C 0.36826 0.84509 0.18034 0.0
O712 O 0.34775 0.85632 0.19253 0.0
C713 C 0.37634 0.84883 0.3017 0.0
O714 O 0.38194 0.82483 0.29234 0.0
O715 O 0.32935 0.8122 0.28166 0.0
O716 O 0.35203 0.784 0.25469 0.0
H717 H 0.23936 0.83596 0.30535 0.0
H718 H 0.41192 0.84192 0.22626 0.0
O719 O 0.37915 0.82423 0.19052 0.0
H720 H 0.44284 0.75851 0.26995 0.0
H721 H 0.41276 0.73942 0.16126 0.0
H722 H 0.33269 0.75516 0.21753 0.0
H723 H 0.39736 0.76139 0.25043 0.0
H724 H 0.40764 0.7818 0.18653 0.0
O725 O 0.35599 0.86159 0.29268 0.0
H726 H 0.27811 0.82331 0.27715 0.0
H727 H 0.31821 0.8956 0.29833 0.0
H728 H 0.33718 0.71239 0.19292 0.0
H729 H 0.45765 0.83988 0.24537 0.0
H730 H 0.37739 0.70433 0.16444 0.0
H731 H 0.47332 0.79797 0.2675 0.0
O732 O 0.32877 0.80683 0.20887 0.0
H733 H 0.37514 0.93205 0.22942 0.0
H734 H 0.28953 0.88281 0.23767 0.0
H735 H 0.29046 0.92633 0.21397 0.0
H736 H 0.3335 0.95124 0.2097 0.0
H737 H 0.37336 0.88835 0.25275 0.0
H738 H 0.27994 0.90898 0.32693 0.0
H739 H 0.24013 0.87908 0.33052 0.0
O740 O 0.30523 0.83467 0.23561 0.0
C741 C 0.33789 0.78879 0.27556 0.0
C742 C 0.25653 0.84922 0.30386 0.0
C743 C 0.27934 0.89017 0.31602 0.0
N744 N 0.30028 0.85881 0.28593 0.0
C745 C 0.27849 0.84222 0.28783 0.0
C746 C 0.30096 0.88248 0.29984 0.0
C747 C 0.257 0.87339 0.31801 0.0
C748 C 0.41873 0.82353 0.23561 0.0
N749 N 0.40209 0.80175 0.2371 0.0
C750 C 0.44459 0.82253 0.24649 0.0
C751 C 0.45335 0.79901 0.25894 0.0
C752 C 0.43626 0.77687 0.26034 0.0
C753 C 0.41052 0.77862 0.24927 0.0
C754 C 0.39516 0.74268 0.17363 0.0
C755 C 0.35038 0.75171 0.20539 0.0
C756 C 0.39214 0.76664 0.18795 0.0
N757 N 0.37003 0.77083 0.20369 0.0
C758 C 0.35274 0.7275 0.19139 0.0
C759 C 0.37531 0.723 0.17542 0.0
C760 C 0.30713 0.81886 0.21542 0.0
C761 C 0.35625 0.92142 0.23121 0.0
C762 C 0.30834 0.89354 0.23591 0.0
C763 C 0.30873 0.91819 0.22249 0.0
C764 C 0.33289 0.93216 0.22012 0.0
N765 N 0.33135 0.88312 0.2467 0.0
C766 C 0.3551 0.89673 0.24451 0.0
Co767 Co 0.45065 0.11409 0.47083 0.0
Co768 Co 0.40483 0.0812 0.51147 0.0
O769 O 0.41665 0.11192 0.49005 0.0
C770 C 0.41047 0.1207 0.42804 0.0
O771 O 0.39799 0.1002 0.43897 0.0
C772 C 0.40356 0.12715 0.54943 0.0
O773 O 0.42861 0.13188 0.54262 0.0
O774 O 0.44033 0.07861 0.52994 0.0
O775 O 0.47014 0.09776 0.50169 0.0
H776 H 0.41233 0.9898 0.55388 0.0
H777 H 0.41672 0.16277 0.47562 0.0
O778 O 0.43176 0.12988 0.43893 0.0
H779 H 0.5025 0.18603 0.51947 0.0
H780 H 0.51877 0.158 0.41022 0.0
H781 H 0.49696 0.07728 0.46342 0.0
H782 H 0.49595 0.14134 0.499 0.0
H783 H 0.47653 0.15552 0.43611 0.0
O784 O 0.39121 0.10702 0.53946 0.0
H785 H 0.42724 0.02779 0.52584 0.0
H786 H 0.35589 0.07071 0.54435 0.0
H787 H 0.53958 0.07907 0.43821 0.0
H788 H 0.42245 0.20777 0.4957 0.0
H789 H 0.55067 0.11958 0.41124 0.0
H790 H 0.46559 0.21961 0.51785 0.0
O791 O 0.44543 0.07773 0.45556 0.0
H792 H 0.32325 0.12809 0.47465 0.0
H793 H 0.36947 0.041 0.48477 0.0
H794 H 0.3262 0.04299 0.46068 0.0
H795 H 0.30276 0.08676 0.45557 0.0
H796 H 0.3667 0.12523 0.49832 0.0
H797 H 0.3402 0.03326 0.57279 0.0
H798 H 0.36848 0.9924 0.57764 0.0
O799 O 0.41828 0.05506 0.48371 0.0
C800 C 0.46422 0.08488 0.52299 0.0
C801 C 0.39978 0.00746 0.55187 0.0
C802 C 0.35933 0.03187 0.56251 0.0
N803 N 0.39242 0.05137 0.5333 0.0
C804 C 0.40811 0.02901 0.53595 0.0
C805 C 0.36834 0.05304 0.54643 0.0
C806 C 0.3752 0.00894 0.56522 0.0
C807 C 0.43561 0.16789 0.48503 0.0
N808 N 0.45603 0.14956 0.486 0.0
C809 C 0.43871 0.19334 0.49645 0.0
C810 C 0.46291 0.19996 0.50891 0.0
C811 C 0.48363 0.18112 0.50984 0.0
C812 C 0.47979 0.15585 0.49825 0.0
C813 C 0.51418 0.14023 0.4219 0.0
C814 C 0.50174 0.0951 0.45193 0.0
C815 C 0.49026 0.13869 0.43652 0.0
N816 N 0.48435 0.11635 0.45134 0.0
C817 C 0.52586 0.09594 0.4376 0.0
C818 C 0.53207 0.11867 0.42248 0.0
C819 C 0.43331 0.0564 0.4629 0.0
C820 C 0.33323 0.10888 0.47683 0.0
C821 C 0.35942 0.06013 0.48257 0.0
C822 C 0.3349 0.06113 0.46895 0.0
C823 C 0.32176 0.08569 0.4661 0.0
N824 N 0.37048 0.08294 0.49315 0.0
C825 C 0.35777 0.10712 0.49033 0.0
Co826 Co 0.13404 0.19811 0.72069 0.0
Co827 Co 0.16872 0.15355 0.7612 0.0
O828 O 0.1379 0.16399 0.73935 0.0
C829 C 0.1324 0.15791 0.67728 0.0
O830 O 0.15284 0.14659 0.68949 0.0
C831 C 0.12243 0.15216 0.79823 0.0
O832 O 0.11684 0.1763 0.78923 0.0
O833 O 0.17017 0.18943 0.77932 0.0
O834 O 0.14701 0.21806 0.7531 0.0
H835 H 0.26018 0.16435 0.80261 0.0
H836 H 0.08891 0.15943 0.72353 0.0
O837 O 0.12151 0.17873 0.68753 0.0
H838 H 0.0545 0.24282 0.76458 0.0
H839 H 0.08833 0.26388 0.65882 0.0
H840 H 0.16679 0.24777 0.71715 0.0
H841 H 0.10035 0.2409 0.74583 0.0
H842 H 0.09314 0.22101 0.6833 0.0
O843 O 0.14314 0.13979 0.78946 0.0
H844 H 0.22137 0.17793 0.77498 0.0
H845 H 0.18075 0.10557 0.79491 0.0
H846 H 0.16266 0.29096 0.69324 0.0
H847 H 0.04279 0.16045 0.74173 0.0
H848 H 0.12321 0.29925 0.66383 0.0
H849 H 0.02537 0.20233 0.7626 0.0
O850 O 0.17154 0.19621 0.70722 0.0
H851 H 0.12398 0.07062 0.72477 0.0
H852 H 0.20992 0.11889 0.7349 0.0
H853 H 0.2089 0.07581 0.71042 0.0
H854 H 0.16569 0.05139 0.7052 0.0
H855 H 0.12586 0.11389 0.74887 0.0
H856 H 0.21905 0.09129 0.823 0.0
H857 H 0.25918 0.12073 0.82687 0.0
O858 O 0.1944 0.16725 0.73325 0.0
C859 C 0.16136 0.2129 0.77376 0.0
C860 C 0.24284 0.15132 0.80104 0.0
C861 C 0.21974 0.11032 0.8125 0.0
N862 N 0.19891 0.14247 0.7832 0.0
C863 C 0.22082 0.15887 0.78538 0.0
C864 C 0.19809 0.11854 0.79663 0.0
C865 C 0.24225 0.12685 0.81466 0.0
C866 C 0.0814 0.17777 0.73243 0.0
N867 N 0.09739 0.20005 0.73385 0.0
C868 C 0.0553 0.17821 0.74276 0.0
C869 C 0.04555 0.2017 0.75449 0.0
C870 C 0.06189 0.22441 0.75564 0.0
C871 C 0.0879 0.22319 0.74515 0.0
C872 C 0.10558 0.26053 0.67164 0.0
C873 C 0.14945 0.25129 0.70455 0.0
C874 C 0.10843 0.23629 0.68549 0.0
N875 N 0.13008 0.232 0.70183 0.0
C876 C 0.14727 0.27576 0.69099 0.0
C877 C 0.12515 0.28038 0.67446 0.0
C878 C 0.19306 0.18386 0.71371 0.0
C879 C 0.14294 0.08104 0.72697 0.0
C880 C 0.19104 0.10838 0.73272 0.0
C881 C 0.1906 0.08397 0.71887 0.0
C882 C 0.16635 0.07027 0.71597 0.0
N883 N 0.168 0.11885 0.74342 0.0
C884 C 0.14416 0.10549 0.74071 0.0
Co885 Co 0.05704 0.90365 0.96507 0.0
Co886 Co 0.10123 0.91768 0.01644 0.0
O887 O 0.08732 0.89317 0.98791 0.0
C888 C 0.09928 0.89353 0.92434 0.0
O889 O 0.11497 0.90873 0.93906 0.0
C890 C 0.10238 0.86516 0.04481 0.0
O891 O 0.07651 0.86299 0.04005 0.0
O892 O 0.06642 0.91544 0.03575 0.0
O893 O 0.03905 0.91562 0.99957 0.0
H894 H 0.10012 0.995 0.08195 0.0
H895 H 0.07638 0.84754 0.96439 0.0
O896 O 0.07534 0.88882 0.9321 0.0
H897 H 0.98053 0.84171 0.989 0.0
H898 H 0.01724 0.88433 0.88129 0.0
H899 H 0.99802 0.97838 0.96231 0.0
H900 H 0.00169 0.88572 0.97977 0.0
H901 H 0.02135 0.87561 0.92807 0.0
O902 O 0.11545 0.88531 0.0359 0.0
H903 H 0.08232 0.9668 0.04545 0.0
H904 H 0.15168 0.91728 0.04853 0.0
H905 H 0.02854 0.96683 0.89347 0.0
H906 H 0.05611 0.80312 0.97332 0.0
H907 H 0.02692 0.92966 0.86415 0.0
H908 H 0.00785 0.80006 0.98575 0.0
O909 O 0.07565 0.93749 0.9583 0.0
H910 H 0.18133 0.8817 0.96648 0.0
H911 H 0.13538 0.96349 0.99849 0.0
H912 H 0.17749 0.96767 0.97264 0.0
H913 H 0.20077 0.92657 0.95648 0.0
H914 H 0.1389 0.87847 0.9919 0.0
H915 H 0.17029 0.94492 0.0851 0.0
H916 H 0.14448 0.98414 0.10208 0.0
O917 O 0.08616 0.95122 0.99903 0.0
C918 C 0.04321 0.91743 0.02496 0.0
C919 C 0.11152 0.9779 0.07481 0.0
C920 C 0.15088 0.9498 0.07659 0.0
N921 N 0.11565 0.94016 0.04499 0.0
C922 C 0.10144 0.96177 0.05417 0.0
C923 C 0.14014 0.93413 0.05592 0.0
C924 C 0.13641 0.97181 0.08609 0.0
C925 C 0.05536 0.84629 0.96976 0.0
N926 N 0.04019 0.86909 0.97163 0.0
C927 C 0.044 0.82113 0.97482 0.0
C928 C 0.01693 0.81943 0.98183 0.0
C929 C 0.0016 0.8428 0.98372 0.0
C930 C 0.01369 0.86763 0.97868 0.0
C931 C 0.01974 0.90095 0.89512 0.0
C932 C 0.02191 0.94399 0.93219 0.0
C933 C 0.02058 0.89644 0.92254 0.0
N934 N 0.02701 0.91662 0.94031 0.0
C935 C 0.02699 0.94755 0.90339 0.0
C936 C 0.02536 0.92623 0.88558 0.0
C937 C 0.07854 0.956 0.97519 0.0
C938 C 0.17141 0.89975 0.97347 0.0
C939 C 0.1453 0.94553 0.99137 0.0
C940 C 0.1692 0.94801 0.97684 0.0
C941 C 0.18228 0.92494 0.96782 0.0
N942 N 0.13471 0.92076 0.99671 0.0
C943 C 0.14747 0.89804 0.98803 0.0
Co944 Co 0.28056 0.36872 0.19825 0.0
Co945 Co 0.24063 0.3331 0.15382 0.0
O946 O 0.26189 0.36444 0.16412 0.0
C947 C 0.32412 0.37068 0.15833 0.0
O948 O 0.31205 0.35018 0.14699 0.0
C949 C 0.20192 0.37805 0.1523 0.0
O950 O 0.2105 0.38419 0.17646 0.0
O951 O 0.22263 0.33143 0.18976 0.0
O952 O 0.24838 0.35536 0.21818 0.0
H953 H 0.20072 0.24102 0.16518 0.0
H954 H 0.2772 0.41363 0.1594 0.0
O955 O 0.3136 0.38168 0.17894 0.0
H956 H 0.23571 0.4479 0.24263 0.0
H957 H 0.34162 0.41556 0.26401 0.0
H958 H 0.28444 0.33623 0.24804 0.0
H959 H 0.25481 0.4022 0.24085 0.0
H960 H 0.31736 0.41023 0.22109 0.0
O961 O 0.21179 0.35785 0.13997 0.0
H962 H 0.22765 0.2804 0.17855 0.0
H963 H 0.20735 0.32009 0.10579 0.0
H964 H 0.30808 0.34089 0.29132 0.0
H965 H 0.25864 0.45962 0.16028 0.0
H966 H 0.33694 0.38079 0.29952 0.0
H967 H 0.23758 0.47697 0.20209 0.0
O968 O 0.2946 0.33138 0.19657 0.0
H969 H 0.27575 0.37823 0.07054 0.0
H970 H 0.2678 0.29234 0.1193 0.0
H971 H 0.29205 0.29368 0.07609 0.0
H972 H 0.29615 0.33687 0.05141 0.0
H973 H 0.25192 0.37603 0.11395 0.0
H974 H 0.17997 0.28122 0.09171 0.0
H975 H 0.17663 0.24127 0.12145 0.0
O976 O 0.26903 0.30809 0.16756 0.0
C977 C 0.22806 0.34051 0.21316 0.0
C978 C 0.20205 0.25828 0.15201 0.0
C979 C 0.1904 0.28085 0.11079 0.0
N980 N 0.21924 0.30242 0.14288 0.0
C981 C 0.21733 0.28062 0.15945 0.0
C982 C 0.20588 0.30282 0.11889 0.0
C983 C 0.18854 0.25844 0.12748 0.0
C984 C 0.26818 0.42111 0.1777 0.0
N985 N 0.26687 0.40518 0.20002 0.0
C986 C 0.25766 0.44714 0.17806 0.0
C987 C 0.24582 0.45685 0.20152 0.0
C988 C 0.24473 0.44054 0.22426 0.0
C989 C 0.25542 0.41461 0.22311 0.0
C990 C 0.32905 0.39813 0.2607 0.0
C991 C 0.29678 0.35377 0.25153 0.0
C992 C 0.31532 0.39498 0.23641 0.0
N993 N 0.2993 0.37308 0.23216 0.0
C994 C 0.3102 0.35624 0.27605 0.0
C995 C 0.32641 0.37861 0.28062 0.0
C996 C 0.28845 0.30975 0.18425 0.0
C997 C 0.27404 0.35928 0.08107 0.0
C998 C 0.26952 0.31121 0.1087 0.0
C999 C 0.28323 0.31184 0.08421 0.0
C1000 C 0.28551 0.33607 0.07036 0.0
N1001 N 0.25835 0.33406 0.11909 0.0
C1002 C 0.26046 0.35788 0.1056 0.0
Co1003 Co 0.77717 0.13226 0.80095 0.0
Co1004 Co 0.73753 0.1673 0.84606 0.0
O1005 O 0.75876 0.13607 0.83528 0.0
C1006 C 0.8208 0.12965 0.84046 0.0
O1007 O 0.80864 0.14994 0.85209 0.0
C1008 C 0.69935 0.12196 0.84777 0.0
O1009 O 0.70783 0.1162 0.82348 0.0
O1010 O 0.71897 0.16903 0.81046 0.0
O1011 O 0.74513 0.14629 0.78153 0.0
H1012 H 0.69742 0.2594 0.83566 0.0
H1013 H 0.77488 0.08596 0.83826 0.0
O1014 O 0.81022 0.11876 0.81983 0.0
H1015 H 0.72893 0.05564 0.75586 0.0
H1016 H 0.83703 0.08553 0.73403 0.0
H1017 H 0.7817 0.1658 0.75189 0.0
H1018 H 0.7486 0.10108 0.75851 0.0
H1019 H 0.81285 0.09043 0.77708 0.0
O1020 O 0.70898 0.14226 0.86014 0.0
H1021 H 0.7244 0.2202 0.82187 0.0
H1022 H 0.70449 0.17988 0.89441 0.0
H1023 H 0.80543 0.16168 0.70858 0.0
H1024 H 0.75565 0.04027 0.83644 0.0
H1025 H 0.83332 0.1213 0.69941 0.0
H1026 H 0.7324 0.0249 0.79503 0.0
O1027 O 0.79157 0.16936 0.80322 0.0
H1028 H 0.77405 0.12191 0.92857 0.0
H1029 H 0.76488 0.20803 0.88044 0.0
H1030 H 0.78978 0.20657 0.92325 0.0
H1031 H 0.7945 0.16327 0.94761 0.0
H1032 H 0.74957 0.12422 0.88554 0.0
H1033 H 0.67705 0.21859 0.90892 0.0
H1034 H 0.67348 0.25875 0.87948 0.0
O1035 O 0.76571 0.19257 0.83206 0.0
C1036 C 0.72451 0.16059 0.78686 0.0
C1037 C 0.69888 0.24206 0.84871 0.0
C1038 C 0.68741 0.21913 0.8898 0.0
N1039 N 0.71617 0.19787 0.85741 0.0
C1040 C 0.7142 0.21983 0.84105 0.0
C1041 C 0.70292 0.19725 0.88146 0.0
C1042 C 0.68543 0.24166 0.87328 0.0
C1043 C 0.76503 0.07928 0.82009 0.0
N1044 N 0.76299 0.09607 0.79847 0.0
C1045 C 0.75409 0.05345 0.81921 0.0
C1046 C 0.74101 0.04485 0.79598 0.0
C1047 C 0.73904 0.0621 0.774 0.0
C1048 C 0.75019 0.08781 0.77563 0.0
C1049 C 0.82487 0.10318 0.73776 0.0
C1050 C 0.79365 0.14808 0.74799 0.0
C1051 C 0.81116 0.10607 0.7621 0.0
N1052 N 0.79568 0.12825 0.76688 0.0
C1053 C 0.8071 0.1459 0.72345 0.0
C1054 C 0.82277 0.12325 0.71834 0.0
C1055 C 0.78531 0.19096 0.81553 0.0
C1056 C 0.77207 0.14091 0.91817 0.0
C1057 C 0.76686 0.18911 0.8909 0.0
C1058 C 0.78094 0.18842 0.91517 0.0
C1059 C 0.78357 0.16412 0.92883 0.0
N1060 N 0.75569 0.16626 0.88054 0.0
C1061 C 0.75812 0.14237 0.89386 0.0
Co1062 Co 0.11537 0.53083 0.0566 0.0
Co1063 Co 0.07964 0.48568 0.09522 0.0
O1064 O 0.11078 0.50862 0.08841 0.0
C1065 C 0.12031 0.57107 0.10011 0.0
O1066 O 0.09802 0.56138 0.11042 0.0
C1067 C 0.12599 0.44857 0.09765 0.0
O1068 O 0.13245 0.45724 0.07359 0.0
O1069 O 0.08113 0.46993 0.05828 0.0
O1070 O 0.10032 0.50207 0.03317 0.0
H1071 H 0.99063 0.4426 0.07471 0.0
H1072 H 0.16087 0.52114 0.09362 0.0
O1073 O 0.13037 0.56049 0.07912 0.0
H1074 H 0.19176 0.48844 0.00531 0.0
H1075 H 0.1636 0.59749 0.99759 0.0
H1076 H 0.08146 0.54331 0.00927 0.0
H1077 H 0.14685 0.50867 0.01048 0.0
H1078 H 0.15859 0.56744 0.03669 0.0
O1079 O 0.10473 0.4572 0.10907 0.0
H1080 H 0.02928 0.47243 0.06618 0.0
H1081 H 0.06504 0.44857 0.1399 0.0
H1082 H 0.08571 0.57291 0.96979 0.0
H1083 H 0.20612 0.50129 0.0894 0.0
H1084 H 0.12699 0.60032 0.96377 0.0
H1085 H 0.22179 0.48468 0.045 0.0
O1086 O 0.07878 0.54592 0.06101 0.0
H1087 H 0.11724 0.51664 0.18373 0.0
H1088 H 0.03534 0.50833 0.12857 0.0
H1089 H 0.03237 0.52857 0.17373 0.0
H1090 H 0.07351 0.53272 0.20169 0.0
H1091 H 0.11934 0.49681 0.13836 0.0
H1092 H 0.02686 0.41831 0.14915 0.0
H1093 H 0.98927 0.41525 0.11645 0.0
O1094 O 0.05433 0.51401 0.08163 0.0
C1095 C 0.08812 0.47967 0.03558 0.0
C1096 C 0.00684 0.44383 0.08916 0.0
C1097 C 0.0272 0.43017 0.13092 0.0
N1098 N 0.04927 0.46241 0.10262 0.0
C1099 C 0.02873 0.46076 0.08448 0.0
C1100 C 0.04878 0.44729 0.12555 0.0
C1101 C 0.00611 0.42847 0.11257 0.0
C1102 C 0.16761 0.51406 0.07421 0.0
N1103 N 0.15115 0.51591 0.05231 0.0
C1104 C 0.19322 0.50279 0.07196 0.0
C1105 C 0.20199 0.49345 0.04705 0.0
C1106 C 0.18514 0.49552 0.02478 0.0
C1107 C 0.15964 0.50685 0.02783 0.0
C1108 C 0.14554 0.58559 0.99995 0.0
C1109 C 0.0996 0.55499 0.00669 0.0
C1110 C 0.14259 0.56857 0.02207 0.0
N1111 N 0.11987 0.55344 0.02514 0.0
C1112 C 0.10184 0.57179 0.98433 0.0
C1113 C 0.125 0.58718 0.98098 0.0
C1114 C 0.05654 0.5367 0.06978 0.0
C1115 C 0.09915 0.51485 0.17179 0.0
C1116 C 0.05334 0.51014 0.14059 0.0
C1117 C 0.05153 0.52158 0.16616 0.0
C1118 C 0.07462 0.52389 0.18184 0.0
N1119 N 0.07745 0.50115 0.13095 0.0
C1120 C 0.1002 0.50352 0.14613 0.0
Co1121 Co 0.7233 0.86758 0.30248 0.0
Co1122 Co 0.76296 0.83237 0.34744 0.0
O1123 O 0.74168 0.8636 0.33677 0.0
C1124 C 0.67905 0.87075 0.34202 0.0
O1125 O 0.69019 0.85005 0.354 0.0
C1126 C 0.80135 0.87776 0.34845 0.0
O1127 O 0.79258 0.88343 0.32424 0.0
O1128 O 0.78107 0.83023 0.31162 0.0
O1129 O 0.75546 0.85379 0.28279 0.0
H1130 H 0.80271 0.74004 0.33743 0.0
H1131 H 0.72691 0.91296 0.34077 0.0
O1132 O 0.69029 0.88106 0.32143 0.0
H1133 H 0.76865 0.94591 0.25714 0.0
H1134 H 0.6629 0.91382 0.23566 0.0
H1135 H 0.71877 0.83394 0.25354 0.0
H1136 H 0.74914 0.90041 0.25945 0.0
H1137 H 0.68762 0.90941 0.27842 0.0
O1138 O 0.79182 0.8575 0.361 0.0
H1139 H 0.77551 0.77912 0.32366 0.0
H1140 H 0.79664 0.82023 0.3954 0.0
H1141 H 0.69467 0.83764 0.21041 0.0
H1142 H 0.74584 0.95877 0.33937 0.0
H1143 H 0.66644 0.87778 0.20127 0.0
H1144 H 0.76705 0.97545 0.29736 0.0
O1145 O 0.70903 0.83047 0.30473 0.0
H1146 H 0.72843 0.87829 0.43056 0.0
H1147 H 0.73581 0.79201 0.38233 0.0
H1148 H 0.71219 0.79368 0.4259 0.0
H1149 H 0.70843 0.83705 0.45033 0.0
H1150 H 0.75168 0.87575 0.38684 0.0
H1151 H 0.82426 0.78167 0.40988 0.0
H1152 H 0.82734 0.74118 0.38084 0.0
O1153 O 0.73444 0.8071 0.33389 0.0
C1154 C 0.77578 0.83905 0.28811 0.0
C1155 C 0.80148 0.75754 0.3503 0.0
C1156 C 0.8136 0.78093 0.39094 0.0
N1157 N 0.78437 0.80185 0.35877 0.0
C1158 C 0.78605 0.7797 0.34264 0.0
C1159 C 0.79799 0.80272 0.3826 0.0
C1160 C 0.81531 0.75821 0.37464 0.0
C1161 C 0.736 0.92014 0.32239 0.0
N1162 N 0.73721 0.90393 0.30026 0.0
C1163 C 0.74673 0.94607 0.32173 0.0
C1164 C 0.75865 0.95541 0.29817 0.0
C1165 C 0.7596 0.93883 0.27561 0.0
C1166 C 0.7487 0.91301 0.27705 0.0
C1167 C 0.67516 0.89624 0.2394 0.0
C1168 C 0.70669 0.85158 0.24963 0.0
C1169 C 0.68911 0.8936 0.26361 0.0
N1170 N 0.70469 0.87151 0.26843 0.0
C1171 C 0.69303 0.85351 0.2252 0.0
C1172 C 0.67716 0.87602 0.2201 0.0
C1173 C 0.71486 0.80895 0.31733 0.0
C1174 C 0.73001 0.85925 0.42014 0.0
C1175 C 0.73421 0.81096 0.39282 0.0
C1176 C 0.72085 0.81178 0.4175 0.0
C1177 C 0.71876 0.83612 0.43121 0.0
N1178 N 0.74525 0.83373 0.38214 0.0
C1179 C 0.74324 0.85767 0.39543 0.0
Co1180 Co 0.88777 0.96998 0.05361 0.0
Co1181 Co 0.9214 0.01224 0.0974 0.0
O1182 O 0.89111 0.98946 0.08736 0.0
C1183 C 0.88672 0.92687 0.09417 0.0
O1184 O 0.90724 0.93908 0.10533 0.0
C1185 C 0.87458 0.04905 0.09959 0.0
O1186 O 0.86886 0.04123 0.07506 0.0
O1187 O 0.92182 0.03017 0.06145 0.0
O1188 O 0.9003 0.00219 0.03308 0.0
H1189 H 0.01123 0.05688 0.08545 0.0
H1190 H 0.84247 0.97341 0.0921 0.0
O1191 O 0.87554 0.93714 0.07354 0.0
H1192 H 0.80754 0.01054 0.00713 0.0
H1193 H 0.84336 0.90558 0.98942 0.0
H1194 H 0.92088 0.96552 0.00422 0.0
H1195 H 0.85381 0.99294 0.00992 0.0
H1196 H 0.84746 0.93153 0.03147 0.0
O1197 O 0.89531 0.03977 0.11148 0.0
H1198 H 0.97337 0.02764 0.0725 0.0
H1199 H 0.93283 0.04642 0.1452 0.0
H1200 H 0.91753 0.93992 0.96192 0.0
H1201 H 0.79593 0.99047 0.09025 0.0
H1202 H 0.87854 0.90981 0.95424 0.0
H1203 H 0.77824 0.00933 0.04755 0.0
O1204 O 0.92549 0.957 0.05597 0.0
H1205 H 0.8788 0.97509 0.18112 0.0
H1206 H 0.9638 0.98735 0.13161 0.0
H1207 H 0.96408 0.96343 0.17503 0.0
H1208 H 0.92136 0.95719 0.20009 0.0
H1209 H 0.87938 0.9986 0.1375 0.0
H1210 H 0.97014 0.07605 0.15889 0.0
H1211 H 0.00975 0.08134 0.12895 0.0
O1212 O 0.94776 0.98512 0.08349 0.0
C1213 C 0.91349 0.02368 0.03804 0.0
C1214 C 0.99412 0.05469 0.0987 0.0
C1215 C 0.97104 0.06547 0.1399 0.0
N1216 N 0.951 0.03521 0.10812 0.0
C1217 C 0.97265 0.0381 0.0915 0.0
C1218 C 0.94994 0.04873 0.13201 0.0
C1219 C 0.99326 0.06843 0.1231 0.0
C1220 C 0.83487 0.98154 0.07344 0.0
N1221 N 0.85093 0.98253 0.05119 0.0
C1222 C 0.80852 0.99119 0.07252 0.0
C1223 C 0.79862 0.00179 0.04857 0.0
C1224 C 0.81506 0.00252 0.0259 0.0
C1225 C 0.8413 0.99273 0.02761 0.0
C1226 C 0.8604 0.91875 0.99248 0.0
C1227 C 0.90374 0.95258 0.00098 0.0
C1228 C 0.86286 0.93345 0.01626 0.0
N1229 N 0.88425 0.95023 0.02018 0.0
C1230 C 0.902 0.9381 0.977 0.0
C1231 C 0.88014 0.92113 0.97274 0.0
C1232 C 0.94682 0.96477 0.06786 0.0
C1233 C 0.89756 0.97776 0.17043 0.0
C1234 C 0.94512 0.98471 0.1424 0.0
C1235 C 0.94541 0.97118 0.16699 0.0
C1236 C 0.92144 0.96769 0.18105 0.0
N1237 N 0.92163 0.99456 0.13214 0.0
C1238 C 0.89803 0.99118 0.14579 0.0
Co1239 Co 0.22127 0.63935 0.69993 0.0
Co1240 Co 0.26439 0.67041 0.65529 0.0
O1241 O 0.24072 0.64096 0.66604 0.0
C1242 C 0.17781 0.63447 0.65995 0.0
O1243 O 0.18874 0.65514 0.64772 0.0
C1244 C 0.30018 0.62283 0.65217 0.0
O1245 O 0.29345 0.61781 0.67718 0.0
O1246 O 0.28368 0.66995 0.69052 0.0
O1247 O 0.25292 0.65406 0.71947 0.0
H1248 H 0.31337 0.75826 0.6653 0.0
H1249 H 0.22422 0.59095 0.66542 0.0
O1250 O 0.1888 0.62489 0.681 0.0
H1251 H 0.26637 0.56464 0.75115 0.0
H1252 H 0.15946 0.59725 0.76816 0.0
H1253 H 0.21579 0.67589 0.74667 0.0
H1254 H 0.24794 0.61025 0.74507 0.0
H1255 H 0.18479 0.59923 0.72557 0.0
O1256 O 0.29039 0.64327 0.64016 0.0
H1257 H 0.28304 0.72174 0.67939 0.0
H1258 H 0.29722 0.68035 0.60622 0.0
H1259 H 0.19117 0.67457 0.78965 0.0
H1260 H 0.2422 0.54503 0.67068 0.0
H1261 H 0.16266 0.63509 0.8006 0.0
H1262 H 0.26351 0.53165 0.71378 0.0
O1263 O 0.20734 0.67643 0.69501 0.0
H1264 H 0.22359 0.63 0.5722 0.0
H1265 H 0.2397 0.71392 0.62243 0.0
H1266 H 0.21487 0.71554 0.57955 0.0
H1267 H 0.20675 0.67337 0.5541 0.0
H1268 H 0.24805 0.62927 0.6153 0.0
H1269 H 0.32798 0.71624 0.59134 0.0
H1270 H 0.33617 0.75561 0.62094 0.0
O1271 O 0.23896 0.69788 0.67064 0.0
C1272 C 0.27568 0.66467 0.71433 0.0
C1273 C 0.30989 0.74128 0.65215 0.0
C1274 C 0.31814 0.71766 0.61069 0.0
N1275 N 0.28818 0.69905 0.64364 0.0
C1276 C 0.29261 0.72061 0.66 0.0
C1277 C 0.30075 0.69736 0.61926 0.0
C1278 C 0.32271 0.73975 0.62729 0.0
C1279 C 0.23329 0.58519 0.68429 0.0
N1280 N 0.23494 0.6032 0.70495 0.0
C1281 C 0.24351 0.5592 0.68713 0.0
C1282 C 0.2555 0.55172 0.71131 0.0
C1283 C 0.25713 0.57023 0.73227 0.0
C1284 C 0.24672 0.59605 0.72869 0.0
C1285 C 0.1718 0.61458 0.76362 0.0
C1286 C 0.20357 0.65855 0.75135 0.0
C1287 C 0.18609 0.61584 0.73949 0.0
N1288 N 0.20179 0.63761 0.73366 0.0
C1289 C 0.18961 0.65796 0.7757 0.0
C1290 C 0.17361 0.6358 0.78182 0.0
C1291 C 0.2174 0.69757 0.68466 0.0
C1292 C 0.22707 0.64852 0.58307 0.0
C1293 C 0.23615 0.69548 0.61151 0.0
C1294 C 0.22214 0.69652 0.58722 0.0
C1295 C 0.2176 0.67286 0.57294 0.0
N1296 N 0.24546 0.67155 0.62126 0.0
C1297 C 0.24101 0.64825 0.60742 0.0
Co1298 Co 0.1168 0.4718 0.44717 0.0
Co1299 Co 0.08173 0.51246 0.40305 0.0
O1300 O 0.11285 0.49089 0.41331 0.0
C1301 C 0.11859 0.42872 0.40662 0.0
O1302 O 0.09818 0.44096 0.3953 0.0
C1303 C 0.12737 0.55065 0.40226 0.0
O1304 O 0.13298 0.54221 0.4266 0.0
O1305 O 0.07993 0.52999 0.43914 0.0
O1306 O 0.10367 0.50389 0.46746 0.0
H1307 H 0.9898 0.55295 0.41385 0.0
H1308 H 0.16192 0.47551 0.40855 0.0
O1309 O 0.12952 0.43895 0.42742 0.0
H1310 H 0.19624 0.51474 0.49283 0.0
H1311 H 0.16229 0.40874 0.51198 0.0
H1312 H 0.08391 0.46741 0.49665 0.0
H1313 H 0.15032 0.49622 0.49043 0.0
H1314 H 0.15778 0.43418 0.46965 0.0
O1315 O 0.10699 0.54124 0.38984 0.0
H1316 H 0.0287 0.52528 0.42721 0.0
H1317 H 0.06972 0.54675 0.35552 0.0
H1318 H 0.0877 0.44249 0.5393 0.0
H1319 H 0.2081 0.49353 0.41003 0.0
H1320 H 0.12711 0.41289 0.54719 0.0
H1321 H 0.22549 0.51343 0.45237 0.0
O1322 O 0.07945 0.45813 0.44509 0.0
H1323 H 0.1273 0.47826 0.3196 0.0
H1324 H 0.04106 0.48614 0.36785 0.0
H1325 H 0.04255 0.46272 0.32416 0.0
H1326 H 0.0859 0.45869 0.29973 0.0
H1327 H 0.12496 0.5012 0.36346 0.0
H1328 H 0.03136 0.57484 0.34145 0.0
H1329 H 0.99099 0.57798 0.37068 0.0
O1330 O 0.05625 0.48402 0.41623 0.0
C1331 C 0.08899 0.52438 0.4625 0.0
C1332 C 0.00724 0.55169 0.40091 0.0
C1333 C 0.03058 0.56401 0.36029 0.0
N1334 N 0.05136 0.53428 0.39209 0.0
C1335 C 0.0293 0.536 0.40834 0.0
C1336 C 0.05227 0.54813 0.36839 0.0
C1337 C 0.00793 0.56575 0.3767 0.0
C1338 C 0.1694 0.48406 0.42707 0.0
N1339 N 0.15337 0.48507 0.44934 0.0
C1340 C 0.19554 0.49426 0.42777 0.0
C1341 C 0.20528 0.50545 0.45153 0.0
C1342 C 0.18887 0.50623 0.47422 0.0
C1343 C 0.16282 0.49588 0.47273 0.0
C1344 C 0.14507 0.42164 0.50881 0.0
C1345 C 0.10125 0.45476 0.50002 0.0
C1346 C 0.14239 0.43606 0.48487 0.0
N1347 N 0.12075 0.45247 0.4808 0.0
C1348 C 0.10323 0.44062 0.52418 0.0
C1349 C 0.12533 0.42398 0.52856 0.0
C1350 C 0.05796 0.4643 0.4326 0.0
C1351 C 0.10827 0.47996 0.33001 0.0
C1352 C 0.06 0.48445 0.35734 0.0
C1353 C 0.06071 0.47121 0.3326 0.0
C1354 C 0.08504 0.46896 0.31889 0.0
N1355 N 0.08286 0.49521 0.3681 0.0
C1356 C 0.1068 0.49306 0.35479 0.0
Co1357 Co 0.38235 0.52967 0.94956 0.0
Co1358 Co 0.4177 0.48889 0.90568 0.0
O1359 O 0.38663 0.51084 0.9155 0.0
C1360 C 0.37979 0.57391 0.9099 0.0
O1361 O 0.40098 0.56308 0.89847 0.0
C1362 C 0.37173 0.45098 0.90271 0.0
O1363 O 0.36555 0.45871 0.92716 0.0
O1364 O 0.41834 0.47068 0.94149 0.0
O1365 O 0.39587 0.49776 0.96979 0.0
H1366 H 0.5088 0.44731 0.91878 0.0
H1367 H 0.33735 0.52605 0.91088 0.0
O1368 O 0.36908 0.5625 0.93018 0.0
H1369 H 0.30328 0.48505 0.99442 0.0
H1370 H 0.33518 0.59063 0.01526 0.0
H1371 H 0.41528 0.53457 0.99897 0.0
H1372 H 0.34904 0.50395 0.99236 0.0
H1373 H 0.34034 0.5658 0.97266 0.0
O1374 O 0.39251 0.46063 0.89115 0.0
H1375 H 0.46981 0.47524 0.93123 0.0
H1376 H 0.43083 0.45495 0.85807 0.0
H1377 H 0.41079 0.55876 0.04199 0.0
H1378 H 0.29131 0.50769 0.91203 0.0
H1379 H 0.37053 0.58709 0.05034 0.0
H1380 H 0.27403 0.4869 0.954 0.0
O1381 O 0.41963 0.54382 0.9476 0.0
H1382 H 0.37513 0.52443 0.82127 0.0
H1383 H 0.4598 0.51469 0.87178 0.0
H1384 H 0.46007 0.538 0.82805 0.0
H1385 H 0.41751 0.5429 0.80243 0.0
H1386 H 0.37574 0.50156 0.86523 0.0
H1387 H 0.46931 0.42655 0.84492 0.0
H1388 H 0.5087 0.42269 0.87534 0.0
O1389 O 0.4431 0.51685 0.91999 0.0
C1390 C 0.40985 0.47679 0.96493 0.0
C1391 C 0.49179 0.44887 0.90532 0.0
C1392 C 0.4696 0.4372 0.86389 0.0
N1393 N 0.44815 0.46685 0.89532 0.0
C1394 C 0.46967 0.46471 0.91223 0.0
C1395 C 0.44785 0.45324 0.87147 0.0
C1396 C 0.49171 0.43505 0.88096 0.0
C1397 C 0.32993 0.51712 0.92924 0.0
N1398 N 0.34594 0.51586 0.95151 0.0
C1399 C 0.30386 0.50672 0.92976 0.0
C1400 C 0.29419 0.49503 0.9533 0.0
C1401 C 0.3106 0.49395 0.97597 0.0
C1402 C 0.33657 0.50452 0.97467 0.0
C1403 C 0.3528 0.57833 0.01187 0.0
C1404 C 0.3976 0.5467 0.00252 0.0
C1405 C 0.35587 0.56431 0.98774 0.0
N1406 N 0.37801 0.54865 0.98337 0.0
C1407 C 0.39522 0.56042 0.02689 0.0
C1408 C 0.37263 0.57632 0.03155 0.0
C1409 C 0.44142 0.5369 0.93597 0.0
C1410 C 0.39381 0.52236 0.83221 0.0
C1411 C 0.44119 0.51687 0.86082 0.0
C1412 C 0.44147 0.53002 0.83603 0.0
C1413 C 0.41759 0.53275 0.82167 0.0
N1414 N 0.41781 0.50665 0.87098 0.0
C1415 C 0.3943 0.50934 0.85706 0.0
Co1416 Co 0.69979 0.78064 0.86573 0.0
Co1417 Co 0.65296 0.74092 0.8331 0.0
O1418 O 0.66554 0.76206 0.8636 0.0
C1419 C 0.65978 0.82373 0.86969 0.0
O1420 O 0.64797 0.81147 0.84959 0.0
C1421 C 0.65198 0.70286 0.87913 0.0
O1422 O 0.6771 0.70947 0.88373 0.0
O1423 O 0.68848 0.7223 0.82962 0.0
O1424 O 0.7188 0.74861 0.85088 0.0
H1425 H 0.65688 0.69868 0.74127 0.0
H1426 H 0.66465 0.77844 0.91376 0.0
O1427 O 0.68104 0.81361 0.87985 0.0
H1428 H 0.74891 0.73365 0.94057 0.0
H1429 H 0.76798 0.84168 0.90884 0.0
H1430 H 0.74739 0.78515 0.83009 0.0
H1431 H 0.74379 0.75255 0.89502 0.0
H1432 H 0.72503 0.81701 0.90608 0.0
O1433 O 0.63958 0.71297 0.85911 0.0
H1434 H 0.67347 0.72616 0.77894 0.0
H1435 H 0.60326 0.70889 0.82398 0.0
H1436 H 0.79059 0.80932 0.8321 0.0
H1437 H 0.66894 0.75995 0.95959 0.0
H1438 H 0.80112 0.83785 0.87168 0.0
H1439 H 0.71131 0.73734 0.97322 0.0
O1440 O 0.69585 0.79466 0.82868 0.0
H1441 H 0.57326 0.77919 0.8821 0.0
H1442 H 0.6171 0.7684 0.79386 0.0
H1443 H 0.57465 0.79381 0.79709 0.0
H1444 H 0.55244 0.79933 0.84146 0.0
H1445 H 0.61589 0.75424 0.87802 0.0
H1446 H 0.58583 0.68099 0.78694 0.0
H1447 H 0.61266 0.67581 0.74514 0.0
O1448 O 0.66624 0.76856 0.80672 0.0
C1449 C 0.71249 0.72815 0.83679 0.0
C1450 C 0.64497 0.70077 0.75936 0.0
C1451 C 0.60512 0.69085 0.78499 0.0
N1452 N 0.63943 0.71925 0.80359 0.0
C1453 C 0.65432 0.71635 0.78074 0.0
C1454 C 0.61514 0.70662 0.80594 0.0
C1455 C 0.62017 0.68795 0.76155 0.0
C1456 C 0.68322 0.76882 0.91966 0.0
N1457 N 0.70402 0.76673 0.90185 0.0
C1458 C 0.6855 0.75831 0.94558 0.0
C1459 C 0.70927 0.74559 0.9532 0.0
C1460 C 0.73037 0.7435 0.93489 0.0
C1461 C 0.72735 0.75421 0.90912 0.0
C1462 C 0.76365 0.82926 0.89152 0.0
C1463 C 0.7519 0.79735 0.8475 0.0
C1464 C 0.73937 0.81527 0.88985 0.0
N1465 N 0.73383 0.79946 0.86808 0.0
C1466 C 0.77637 0.81106 0.84847 0.0
C1467 C 0.78224 0.82709 0.87067 0.0
C1468 C 0.68296 0.78806 0.80754 0.0
C1469 C 0.58269 0.77684 0.86264 0.0
C1470 C 0.60755 0.7707 0.81324 0.0
C1471 C 0.5835 0.78508 0.81494 0.0
C1472 C 0.57104 0.78816 0.83984 0.0
N1473 N 0.61884 0.75964 0.83569 0.0
C1474 C 0.60676 0.7626 0.86018 0.0
Co1475 Co 0.47204 0.44878 0.11693 0.0
Co1476 Co 0.50896 0.40077 0.08244 0.0
O1477 O 0.48976 0.4141 0.11396 0.0
C1478 C 0.42854 0.40887 0.12056 0.0
O1479 O 0.44042 0.39737 0.10008 0.0
C1480 C 0.54946 0.40001 0.12647 0.0
O1481 O 0.54298 0.42511 0.13136 0.0
O1482 O 0.52781 0.43591 0.07742 0.0
O1483 O 0.50466 0.46653 0.10171 0.0
H1484 H 0.54375 0.40171 0.98743 0.0
H1485 H 0.46918 0.4139 0.16511 0.0
O1486 O 0.43901 0.42983 0.13105 0.0
H1487 H 0.52686 0.48943 0.19254 0.0
H1488 H 0.46575 0.55096 0.11687 0.0
H1489 H 0.4141 0.46693 0.12123 0.0
H1490 H 0.50894 0.48725 0.14692 0.0
H1491 H 0.48894 0.50826 0.11445 0.0
O1492 O 0.53831 0.38749 0.10706 0.0
H1493 H 0.5185 0.41904 0.0263 0.0
H1494 H 0.54125 0.35131 0.07268 0.0
H1495 H 0.39067 0.50955 0.12388 0.0
H1496 H 0.48692 0.41537 0.21106 0.0
H1497 H 0.4162 0.55228 0.1218 0.0
H1498 H 0.51592 0.4534 0.22523 0.0
O1499 O 0.45752 0.44634 0.07996 0.0
H1500 H 0.4731 0.32209 0.13473 0.0
H1501 H 0.47898 0.36459 0.04541 0.0
H1502 H 0.45361 0.32232 0.0507 0.0
H1503 H 0.45057 0.30079 0.09562 0.0
H1504 H 0.49797 0.36451 0.12861 0.0
H1505 H 0.56689 0.33314 0.03439 0.0
H1506 H 0.56826 0.35838 0.99134 0.0
O1507 O 0.47988 0.41405 0.05755 0.0
C1508 C 0.52372 0.45986 0.08589 0.0
C1509 C 0.54343 0.39056 0.00611 0.0
C1510 C 0.55642 0.3521 0.03246 0.0
N1511 N 0.52863 0.38651 0.05186 0.0
C1512 C 0.52919 0.40038 0.02821 0.0
C1513 C 0.54197 0.36259 0.05414 0.0
C1514 C 0.55716 0.36626 0.00831 0.0
C1515 C 0.48099 0.43106 0.17112 0.0
N1516 N 0.48634 0.45139 0.15337 0.0
C1517 C 0.49134 0.43154 0.1972 0.0
C1518 C 0.50767 0.45281 0.20512 0.0
C1519 C 0.51373 0.47307 0.18681 0.0
C1520 C 0.50304 0.47191 0.16088 0.0
C1521 C 0.45443 0.53245 0.11855 0.0
C1522 C 0.42617 0.48483 0.12152 0.0
C1523 C 0.4676 0.50766 0.1176 0.0
N1524 N 0.45371 0.4839 0.11987 0.0
C1525 C 0.41238 0.50926 0.12252 0.0
C1526 C 0.42665 0.53322 0.12123 0.0
C1527 C 0.46179 0.43229 0.05897 0.0
C1528 C 0.47436 0.33123 0.11504 0.0
C1529 C 0.47777 0.35532 0.06501 0.0
C1530 C 0.4634 0.33138 0.06788 0.0
C1531 C 0.46171 0.3193 0.09309 0.0
N1532 N 0.49014 0.36688 0.08663 0.0
C1533 C 0.48854 0.35517 0.11142 0.0
Co1534 Co 0.80325 0.22121 0.36715 0.0
Co1535 Co 0.84697 0.26208 0.33178 0.0
O1536 O 0.83703 0.24046 0.36297 0.0
C1537 C 0.84391 0.17824 0.36915 0.0
O1538 O 0.85501 0.1903 0.34851 0.0
C1539 C 0.84918 0.30044 0.37727 0.0
O1540 O 0.82469 0.29274 0.38337 0.0
O1541 O 0.81089 0.27986 0.33059 0.0
O1542 O 0.78279 0.25307 0.35378 0.0
H1543 H 0.83478 0.30273 0.24014 0.0
H1544 H 0.84197 0.22517 0.41211 0.0
O1545 O 0.82312 0.1885 0.38009 0.0
H1546 H 0.75794 0.265 0.44642 0.0
H1547 H 0.73847 0.159 0.41387 0.0
H1548 H 0.75357 0.2165 0.3346 0.0
H1549 H 0.76017 0.2462 0.40061 0.0
H1550 H 0.78099 0.18398 0.4086 0.0
O1551 O 0.86095 0.29064 0.35672 0.0
H1552 H 0.82184 0.27534 0.27935 0.0
H1553 H 0.89467 0.29587 0.31879 0.0
H1554 H 0.71068 0.19214 0.33921 0.0
H1555 H 0.84067 0.24348 0.45818 0.0
H1556 H 0.70291 0.16312 0.37907 0.0
H1557 H 0.79844 0.26367 0.47557 0.0
O1558 O 0.80524 0.20723 0.32982 0.0
H1559 H 0.93059 0.2266 0.37599 0.0
H1560 H 0.88157 0.23589 0.2904 0.0
H1561 H 0.92496 0.21195 0.29116 0.0
H1562 H 0.94978 0.20718 0.33419 0.0
H1563 H 0.88698 0.25008 0.37438 0.0
H1564 H 0.90832 0.3237 0.2801 0.0
H1565 H 0.87833 0.32715 0.24035 0.0
O1566 O 0.83328 0.23386 0.30655 0.0
C1567 C 0.78751 0.27378 0.33936 0.0
C1568 C 0.84806 0.30135 0.25731 0.0
C1569 C 0.88932 0.31313 0.27975 0.0
N1570 N 0.85756 0.28387 0.30125 0.0
C1571 C 0.84086 0.28583 0.27955 0.0
C1572 C 0.88145 0.2974 0.30163 0.0
C1573 C 0.87248 0.31505 0.25745 0.0
C1574 C 0.8235 0.23383 0.41959 0.0
N1575 N 0.80119 0.23481 0.40363 0.0
C1576 C 0.8229 0.24421 0.44567 0.0
C1577 C 0.79921 0.25556 0.4554 0.0
C1578 C 0.77649 0.25635 0.43905 0.0
C1579 C 0.77788 0.24583 0.41306 0.0
C1580 C 0.74159 0.17163 0.39644 0.0
C1581 C 0.75027 0.20408 0.35212 0.0
C1582 C 0.76565 0.18576 0.39332 0.0
N1583 N 0.76966 0.20187 0.37145 0.0
C1584 C 0.72597 0.19026 0.35456 0.0
C1585 C 0.72164 0.17396 0.37692 0.0
C1586 C 0.81721 0.21393 0.30816 0.0
C1587 C 0.92 0.22861 0.3571 0.0
C1588 C 0.89223 0.23389 0.3092 0.0
C1589 C 0.91682 0.22035 0.3095 0.0
C1590 C 0.93074 0.2177 0.33365 0.0
N1591 N 0.88182 0.24454 0.33228 0.0
C1592 C 0.89536 0.24201 0.35604 0.0
Co1593 Co 0.03242 0.55273 0.61597 0.0
Co1594 Co 0.99027 0.59637 0.58218 0.0
O1595 O 0.01259 0.58631 0.61291 0.0
C1596 C 0.07489 0.59375 0.62093 0.0
O1597 O 0.0637 0.60564 0.60021 0.0
C1598 C 0.95331 0.5971 0.62856 0.0
O1599 O 0.96224 0.57285 0.63376 0.0
O1600 O 0.97262 0.56034 0.58105 0.0
O1601 O 0.00165 0.53213 0.60087 0.0
H1602 H 0.94748 0.58431 0.49151 0.0
H1603 H 0.02763 0.5883 0.66344 0.0
O1604 O 0.06423 0.57261 0.63072 0.0
H1605 H 0.98519 0.50285 0.69025 0.0
H1606 H 0.09444 0.48692 0.6614 0.0
H1607 H 0.04046 0.50557 0.58044 0.0
H1608 H 0.00544 0.50793 0.64528 0.0
H1609 H 0.06771 0.52856 0.65796 0.0
O1610 O 0.9621 0.60975 0.60804 0.0
H1611 H 0.97647 0.57172 0.52966 0.0
H1612 H 0.95534 0.6436 0.57056 0.0
H1613 H 0.0666 0.46356 0.58314 0.0
H1614 H 0.00778 0.58405 0.70871 0.0
H1615 H 0.09394 0.45406 0.6238 0.0
H1616 H 0.98627 0.5411 0.72231 0.0
O1617 O 0.04712 0.55705 0.57928 0.0
H1618 H 0.02475 0.68066 0.62592 0.0
H1619 H 0.01549 0.63119 0.54054 0.0
H1620 H 0.03826 0.67521 0.54087 0.0
H1621 H 0.04296 0.70028 0.58378 0.0
H1622 H 0.00232 0.63647 0.62472 0.0
H1623 H 0.92594 0.65691 0.53292 0.0
H1624 H 0.92191 0.62718 0.49302 0.0
O1625 O 0.01822 0.58299 0.55617 0.0
C1626 C 0.98 0.53678 0.58798 0.0
C1627 C 0.94915 0.5975 0.50874 0.0
C1628 C 0.93701 0.6382 0.53201 0.0
N1629 N 0.96774 0.607 0.55222 0.0
C1630 C 0.96562 0.59053 0.53035 0.0
C1631 C 0.95364 0.63054 0.55328 0.0
C1632 C 0.93478 0.62152 0.50962 0.0
C1633 C 0.01855 0.56947 0.66935 0.0
N1634 N 0.01781 0.54835 0.65183 0.0
C1635 C 0.00725 0.56721 0.69495 0.0
C1636 C 0.99515 0.54312 0.70255 0.0
C1637 C 0.99452 0.52165 0.68457 0.0
C1638 C 0.00598 0.52466 0.65912 0.0
C1639 C 0.08261 0.49083 0.64358 0.0
C1640 C 0.05214 0.50149 0.59829 0.0
C1641 C 0.06751 0.51441 0.6415 0.0
N1642 N 0.05249 0.51945 0.61908 0.0
C1643 C 0.06697 0.47771 0.59966 0.0
C1644 C 0.08231 0.4724 0.62248 0.0
C1645 C 0.03938 0.56847 0.55771 0.0
C1646 C 0.02276 0.66996 0.60708 0.0
C1647 C 0.01752 0.64194 0.5593 0.0
C1648 C 0.03039 0.66688 0.55936 0.0
C1649 C 0.03301 0.68094 0.58344 0.0
N1650 N 0.00746 0.63134 0.58256 0.0
C1651 C 0.00999 0.64498 0.60626 0.0
Co1652 Co 0.6979 0.22141 0.63477 0.0
Co1653 Co 0.65052 0.25969 0.66833 0.0
O1654 O 0.66345 0.2396 0.63722 0.0
C1655 C 0.65847 0.17776 0.62844 0.0
O1656 O 0.64543 0.18898 0.64844 0.0
C1657 C 0.65212 0.2994 0.62414 0.0
O1658 O 0.6768 0.29121 0.61975 0.0
O1659 O 0.68613 0.27764 0.67355 0.0
O1660 O 0.71661 0.25305 0.65065 0.0
H1661 H 0.65275 0.29692 0.76231 0.0
H1662 H 0.66323 0.2248 0.58652 0.0
O1663 O 0.67978 0.18878 0.61941 0.0
H1664 H 0.74696 0.27188 0.56211 0.0
H1665 H 0.76738 0.16303 0.58998 0.0
H1666 H 0.74468 0.21522 0.67114 0.0
H1667 H 0.74187 0.251 0.60679 0.0
H1668 H 0.72446 0.18772 0.59293 0.0
O1669 O 0.63851 0.28914 0.6433 0.0
H1670 H 0.66969 0.27089 0.72375 0.0
H1671 H 0.60145 0.29267 0.67766 0.0
H1672 H 0.78777 0.19087 0.66904 0.0
H1673 H 0.66752 0.24522 0.54153 0.0
H1674 H 0.79943 0.16458 0.62824 0.0
H1675 H 0.7096 0.26904 0.52913 0.0
O1676 O 0.69356 0.20613 0.67133 0.0
H1677 H 0.57094 0.22619 0.61586 0.0
H1678 H 0.61326 0.23103 0.70533 0.0
H1679 H 0.57014 0.20717 0.70001 0.0
H1680 H 0.54868 0.20467 0.65501 0.0
H1681 H 0.61417 0.24964 0.62203 0.0
H1682 H 0.58369 0.31915 0.71562 0.0
H1683 H 0.60936 0.32134 0.75837 0.0
O1684 O 0.66268 0.23054 0.69357 0.0
C1685 C 0.71013 0.27263 0.66584 0.0
C1686 C 0.64136 0.29616 0.7438 0.0
C1687 C 0.60262 0.30862 0.71759 0.0
N1688 N 0.63667 0.2802 0.69851 0.0
C1689 C 0.65092 0.28142 0.7219 0.0
C1690 C 0.61283 0.29366 0.69613 0.0
C1691 C 0.61703 0.30984 0.74157 0.0
C1692 C 0.6817 0.23489 0.58114 0.0
N1693 N 0.70233 0.23656 0.59916 0.0
C1694 C 0.68397 0.24651 0.55569 0.0
C1695 C 0.70758 0.25991 0.54876 0.0
C1696 C 0.72854 0.26152 0.56726 0.0
C1697 C 0.72553 0.24969 0.59253 0.0
C1698 C 0.76259 0.17448 0.60785 0.0
C1699 C 0.74965 0.20393 0.65325 0.0
C1700 C 0.7383 0.18844 0.60965 0.0
N1701 N 0.73213 0.20297 0.63212 0.0
C1702 C 0.77408 0.19016 0.6522 0.0
C1703 C 0.78056 0.17536 0.62931 0.0
C1704 C 0.67981 0.2114 0.69233 0.0
C1705 C 0.58006 0.22721 0.63558 0.0
C1706 C 0.60406 0.22998 0.68568 0.0
C1707 C 0.57963 0.21649 0.6828 0.0
C1708 C 0.56759 0.21511 0.65755 0.0
N1709 N 0.61613 0.24184 0.66404 0.0
C1710 C 0.60447 0.24056 0.63922 0.0
Co1711 Co 0.02912 0.4493 0.8788 0.0
Co1712 Co 0.99109 0.40532 0.91691 0.0
O1713 O 0.01089 0.41527 0.88461 0.0
C1714 C 0.07241 0.409 0.87752 0.0
O1715 O 0.06088 0.39899 0.89899 0.0
C1716 C 0.95093 0.40144 0.87336 0.0
O1717 O 0.9569 0.42652 0.86795 0.0
O1718 O 0.97228 0.44078 0.91803 0.0
O1719 O 0.99784 0.46951 0.89415 0.0
H1720 H 0.95403 0.41819 0.01002 0.0
H1721 H 0.04 0.41892 0.82701 0.0
O1722 O 0.06181 0.4292 0.8658 0.0
H1723 H 0.96236 0.47634 0.80631 0.0
H1724 H 0.0371 0.54792 0.85454 0.0
H1725 H 0.08603 0.46685 0.88318 0.0
H1726 H 0.98157 0.47691 0.85108 0.0
H1727 H 0.01306 0.5058 0.86195 0.0
O1728 O 0.96213 0.38973 0.89323 0.0
H1729 H 0.97968 0.43096 0.9696 0.0
H1730 H 0.95899 0.35713 0.93209 0.0
H1731 H 0.11085 0.50873 0.87578 0.0
H1732 H 0.02109 0.41828 0.78212 0.0
H1733 H 0.08647 0.5498 0.86137 0.0
H1734 H 0.98198 0.44709 0.77106 0.0
O1735 O 0.04442 0.44924 0.91575 0.0
H1736 H 0.02759 0.32164 0.87354 0.0
H1737 H 0.02022 0.37297 0.95801 0.0
H1738 H 0.04559 0.33038 0.95745 0.0
H1739 H 0.04939 0.30441 0.91499 0.0
H1740 H 0.0027 0.36448 0.87491 0.0
H1741 H 0.93291 0.34363 0.97205 0.0
H1742 H 0.93039 0.37424 0.01141 0.0
O1743 O 0.01978 0.42076 0.94068 0.0
C1744 C 0.97772 0.46434 0.90937 0.0
C1745 C 0.95504 0.40464 0.99303 0.0
C1746 C 0.94314 0.36283 0.97169 0.0
N1747 N 0.97093 0.39476 0.94856 0.0
C1748 C 0.96961 0.41172 0.97011 0.0
C1749 C 0.95787 0.37061 0.94909 0.0
C1750 C 0.94175 0.38 0.99378 0.0
C1751 C 0.02375 0.43255 0.82295 0.0
N1752 N 0.01361 0.44943 0.84229 0.0
C1753 C 0.01275 0.43165 0.79713 0.0
C1754 C 0.99077 0.4477 0.79094 0.0
C1755 C 0.97985 0.46416 0.81068 0.0
C1756 C 0.99134 0.46458 0.83628 0.0
C1757 C 0.04802 0.53009 0.86054 0.0
C1758 C 0.0751 0.48428 0.87634 0.0
C1759 C 0.03442 0.50587 0.86465 0.0
N1760 N 0.04791 0.48316 0.87227 0.0
C1761 C 0.08937 0.50812 0.87241 0.0
C1762 C 0.07569 0.53116 0.8644 0.0
C1763 C 0.03886 0.43775 0.93801 0.0
C1764 C 0.02599 0.33272 0.89219 0.0
C1765 C 0.02176 0.36177 0.93946 0.0
C1766 C 0.03613 0.33765 0.93927 0.0
C1767 C 0.03824 0.32308 0.91545 0.0
N1768 N 0.00979 0.37109 0.91656 0.0
C1769 C 0.01179 0.35692 0.89312 0.0
Co1770 Co 0.80612 0.78113 0.13504 0.0
Co1771 Co 0.84915 0.7392 0.1699 0.0
O1772 O 0.83951 0.76112 0.13881 0.0
C1773 C 0.84767 0.82299 0.13224 0.0
O1774 O 0.85859 0.81084 0.15292 0.0
C1775 C 0.85078 0.70102 0.12417 0.0
O1776 O 0.82631 0.709 0.11839 0.0
O1777 O 0.81301 0.72177 0.17069 0.0
O1778 O 0.78516 0.75007 0.14918 0.0
H1779 H 0.83595 0.69732 0.26085 0.0
H1780 H 0.84317 0.77685 0.08864 0.0
O1781 O 0.82662 0.81313 0.12144 0.0
H1782 H 0.75822 0.73571 0.05842 0.0
H1783 H 0.74232 0.84456 0.08873 0.0
H1784 H 0.75743 0.78809 0.16873 0.0
H1785 H 0.76218 0.75479 0.10402 0.0
H1786 H 0.78397 0.81801 0.09332 0.0
O1787 O 0.86288 0.7107 0.14461 0.0
H1788 H 0.82376 0.72581 0.2222 0.0
H1789 H 0.8963 0.70455 0.18254 0.0
H1790 H 0.71545 0.81414 0.16489 0.0
H1791 H 0.84007 0.75815 0.0428 0.0
H1792 H 0.70769 0.84266 0.12467 0.0
H1793 H 0.79736 0.73736 0.02746 0.0
O1794 O 0.80914 0.79543 0.17203 0.0
H1795 H 0.93348 0.77398 0.1265 0.0
H1796 H 0.88359 0.76483 0.21166 0.0
H1797 H 0.92727 0.78827 0.21137 0.0
H1798 H 0.95252 0.79296 0.16855 0.0
H1799 H 0.8896 0.75098 0.12765 0.0
H1800 H 0.90921 0.67564 0.22069 0.0
H1801 H 0.87895 0.67194 0.26024 0.0
O1802 O 0.83553 0.76736 0.19554 0.0
C1803 C 0.78962 0.72877 0.16277 0.0
C1804 C 0.84936 0.69884 0.24379 0.0
C1805 C 0.89044 0.68663 0.22122 0.0
N1806 N 0.85938 0.71699 0.20023 0.0
C1807 C 0.84261 0.71503 0.22189 0.0
C1808 C 0.883 0.70298 0.19965 0.0
C1809 C 0.87347 0.68458 0.24341 0.0
C1810 C 0.82446 0.76802 0.082 0.0
N1811 N 0.80284 0.76705 0.09888 0.0
C1812 C 0.82285 0.75738 0.05607 0.0
C1813 C 0.79889 0.74569 0.04749 0.0
C1814 C 0.77693 0.74475 0.06486 0.0
C1815 C 0.77929 0.75554 0.09066 0.0
C1816 C 0.74544 0.83215 0.10632 0.0
C1817 C 0.75411 0.80027 0.15105 0.0
C1818 C 0.76898 0.8171 0.10903 0.0
N1819 N 0.773 0.80131 0.13113 0.0
C1820 C 0.73034 0.81506 0.14904 0.0
C1821 C 0.72601 0.83108 0.12649 0.0
C1822 C 0.82051 0.78812 0.19375 0.0
C1823 C 0.92271 0.77199 0.1453 0.0
C1824 C 0.89446 0.76678 0.19296 0.0
C1825 C 0.9192 0.78005 0.19292 0.0
C1826 C 0.93336 0.78266 0.16889 0.0
N1827 N 0.88415 0.75637 0.16973 0.0
C1828 C 0.89792 0.75886 0.1461 0.0
Co1829 Co 0.47169 0.55309 0.38434 0.0
Co1830 Co 0.51392 0.59624 0.41871 0.0
O1831 O 0.49167 0.58657 0.38783 0.0
C1832 C 0.42967 0.59435 0.38178 0.0
O1833 O 0.44206 0.60538 0.40226 0.0
C1834 C 0.5516 0.59883 0.3726 0.0
O1835 O 0.54411 0.57425 0.36662 0.0
O1836 O 0.53168 0.56022 0.419 0.0
O1837 O 0.50284 0.53228 0.39837 0.0
H1838 H 0.55705 0.58263 0.50899 0.0
H1839 H 0.4756 0.5899 0.33774 0.0
O1840 O 0.43955 0.57339 0.37084 0.0
H1841 H 0.51674 0.50487 0.30767 0.0
H1842 H 0.40827 0.48883 0.33863 0.0
H1843 H 0.4651 0.50452 0.41826 0.0
H1844 H 0.49794 0.50904 0.35337 0.0
H1845 H 0.43461 0.53064 0.34294 0.0
O1846 O 0.54191 0.6105 0.39327 0.0
H1847 H 0.52833 0.57047 0.47051 0.0
H1848 H 0.5482 0.64368 0.43142 0.0
H1849 H 0.43927 0.46239 0.41469 0.0
H1850 H 0.49403 0.58659 0.29179 0.0
H1851 H 0.41057 0.45434 0.37465 0.0
H1852 H 0.51481 0.54383 0.27653 0.0
O1853 O 0.45756 0.55625 0.42146 0.0
H1854 H 0.47777 0.68054 0.37639 0.0
H1855 H 0.48881 0.63037 0.46111 0.0
H1856 H 0.46516 0.67392 0.46148 0.0
H1857 H 0.45953 0.69933 0.41889 0.0
H1858 H 0.50097 0.63675 0.37687 0.0
H1859 H 0.57736 0.65656 0.46939 0.0
H1860 H 0.58185 0.62596 0.50858 0.0
O1861 O 0.48625 0.5823 0.44455 0.0
C1862 C 0.52444 0.53677 0.41144 0.0
C1863 C 0.55519 0.59619 0.49208 0.0
C1864 C 0.56662 0.63765 0.46983 0.0
N1865 N 0.53643 0.60643 0.44884 0.0
C1866 C 0.53888 0.58945 0.47027 0.0
C1867 C 0.55013 0.63023 0.44836 0.0
C1868 C 0.56912 0.62048 0.49182 0.0
C1869 C 0.48443 0.57118 0.33114 0.0
N1870 N 0.48557 0.54965 0.34811 0.0
C1871 C 0.49491 0.56945 0.30515 0.0
C1872 C 0.5066 0.54546 0.29661 0.0
C1873 C 0.5077 0.52359 0.31407 0.0
C1874 C 0.49707 0.52608 0.33993 0.0
C1875 C 0.42076 0.49208 0.35613 0.0
C1876 C 0.45284 0.50107 0.40067 0.0
C1877 C 0.43569 0.51571 0.35869 0.0
N1878 N 0.45158 0.51989 0.3807 0.0
C1879 C 0.43818 0.47721 0.39881 0.0
C1880 C 0.42206 0.47273 0.37635 0.0
C1881 C 0.46541 0.56739 0.44316 0.0
C1882 C 0.48015 0.66969 0.39508 0.0
C1883 C 0.48641 0.64128 0.44249 0.0
C1884 C 0.47304 0.66596 0.44283 0.0
C1885 C 0.4699 0.68021 0.41894 0.0
N1886 N 0.49643 0.6311 0.41902 0.0
C1887 C 0.4934 0.64495 0.39551 0.0
Co1888 Co 0.86655 0.70009 0.78152 0.0
Co1889 Co 0.83413 0.65481 0.7399 0.0
O1890 O 0.86391 0.6658 0.76292 0.0
C1891 C 0.86957 0.66064 0.82568 0.0
O1892 O 0.8487 0.6488 0.81473 0.0
C1893 C 0.88128 0.65141 0.70363 0.0
O1894 O 0.88659 0.67638 0.71029 0.0
O1895 O 0.83405 0.68996 0.72047 0.0
O1896 O 0.85325 0.71944 0.74896 0.0
H1897 H 0.74534 0.66425 0.69256 0.0
H1898 H 0.91267 0.66258 0.77848 0.0
O1899 O 0.87971 0.68137 0.81462 0.0
H1900 H 0.94561 0.74757 0.73964 0.0
H1901 H 0.90968 0.76791 0.84314 0.0
H1902 H 0.83206 0.74854 0.78469 0.0
H1903 H 0.89953 0.74413 0.75755 0.0
H1904 H 0.90662 0.72484 0.81878 0.0
O1905 O 0.86079 0.6396 0.71354 0.0
H1906 H 0.78242 0.67867 0.72204 0.0
H1907 H 0.82367 0.60545 0.70769 0.0
H1908 H 0.83452 0.79201 0.80832 0.0
H1909 H 0.95906 0.66512 0.76117 0.0
H1910 H 0.8735 0.80192 0.83786 0.0
H1911 H 0.97577 0.70782 0.74144 0.0
O1912 O 0.82899 0.69704 0.79492 0.0
H1913 H 0.87572 0.57236 0.78082 0.0
H1914 H 0.79121 0.62185 0.76553 0.0
H1915 H 0.79029 0.57923 0.79084 0.0
H1916 H 0.83276 0.55415 0.79857 0.0
H1917 H 0.87577 0.61519 0.75588 0.0
H1918 H 0.78717 0.59021 0.67784 0.0
H1919 H 0.74759 0.61966 0.67017 0.0
O1920 O 0.80717 0.67011 0.76571 0.0
C1921 C 0.84115 0.71377 0.72703 0.0
C1922 C 0.76244 0.65119 0.69578 0.0
C1923 C 0.78593 0.60966 0.68749 0.0
N1924 N 0.8051 0.64293 0.71673 0.0
C1925 C 0.78345 0.65926 0.71253 0.0
C1926 C 0.80658 0.61844 0.70436 0.0
C1927 C 0.76373 0.62619 0.68321 0.0
C1928 C 0.9198 0.68124 0.76994 0.0
N1929 N 0.90324 0.70311 0.7686 0.0
C1930 C 0.94608 0.68255 0.76016 0.0
C1931 C 0.95544 0.7065 0.74908 0.0
C1932 C 0.93851 0.72879 0.748 0.0
C1933 C 0.91234 0.7267 0.75794 0.0
C1934 C 0.89259 0.76383 0.83033 0.0
C1935 C 0.8492 0.75276 0.79735 0.0
C1936 C 0.89069 0.73942 0.8166 0.0
N1937 N 0.86925 0.7342 0.80026 0.0
C1938 C 0.85043 0.77739 0.81075 0.0
C1939 C 0.8723 0.78292 0.82734 0.0
C1940 C 0.80781 0.68559 0.78619 0.0
C1941 C 0.85707 0.58305 0.77751 0.0
C1942 C 0.80978 0.61107 0.76887 0.0
C1943 C 0.80913 0.58693 0.78317 0.0
C1944 C 0.83297 0.57287 0.78749 0.0
N1945 N 0.83349 0.62088 0.75907 0.0
C1946 C 0.85695 0.60725 0.76329 0.0
Co1947 Co 0.55194 0.61337 0.03358 0.0
Co1948 Co 0.59659 0.58298 0.98989 0.0
O1949 O 0.58546 0.6122 0.01357 0.0
C1950 C 0.59301 0.61752 0.07567 0.0
O1951 O 0.60464 0.59728 0.06341 0.0
C1952 C 0.59806 0.63073 0.95459 0.0
O1953 O 0.57345 0.6355 0.96282 0.0
O1954 O 0.56091 0.58252 0.97117 0.0
O1955 O 0.53208 0.59878 0.00201 0.0
H1956 H 0.58853 0.49496 0.94079 0.0
H1957 H 0.58614 0.66201 0.0306 0.0
O1958 O 0.5715 0.62748 0.06594 0.0
H1959 H 0.49985 0.68797 0.98936 0.0
H1960 H 0.48497 0.65429 0.09752 0.0
H1961 H 0.50521 0.5768 0.03913 0.0
H1962 H 0.50629 0.64242 0.00784 0.0
H1963 H 0.52717 0.65269 0.07147 0.0
O1964 O 0.61074 0.61036 0.96362 0.0
H1965 H 0.57346 0.53142 0.97076 0.0
H1966 H 0.64592 0.57403 0.95722 0.0
H1967 H 0.46273 0.57765 0.06467 0.0
H1968 H 0.58053 0.70787 0.01256 0.0
H1969 H 0.4524 0.61659 0.09415 0.0
H1970 H 0.53716 0.72105 0.99166 0.0
O1971 O 0.55716 0.57614 0.04698 0.0
H1972 H 0.67854 0.62574 0.03062 0.0
H1973 H 0.63059 0.54046 0.01482 0.0
H1974 H 0.67307 0.54019 0.04038 0.0
H1975 H 0.69731 0.58307 0.04845 0.0
H1976 H 0.63588 0.62513 0.0054 0.0
H1977 H 0.66183 0.53827 0.92679 0.0
H1978 H 0.6331 0.49829 0.9185 0.0
O1979 O 0.58216 0.5552 0.0155 0.0
C1980 C 0.53709 0.58776 0.97936 0.0
C1981 C 0.60132 0.51218 0.94435 0.0
C1982 C 0.64241 0.53653 0.93644 0.0
N1983 N 0.60882 0.55462 0.96603 0.0
C1984 C 0.5929 0.53279 0.96145 0.0
C1985 C 0.63326 0.55674 0.95365 0.0
C1986 C 0.62629 0.5141 0.93181 0.0
C1987 C 0.56713 0.66771 0.02179 0.0
N1988 N 0.54652 0.64963 0.02038 0.0
C1989 C 0.5641 0.69365 0.01151 0.0
C1990 C 0.53977 0.70103 0.99975 0.0
C1991 C 0.51884 0.68247 0.99844 0.0
C1992 C 0.5226 0.6567 0.00889 0.0
C1993 C 0.48923 0.63723 0.08471 0.0
C1994 C 0.50078 0.59391 0.05177 0.0
C1995 C 0.5131 0.6362 0.06995 0.0
N1996 N 0.51854 0.61478 0.05365 0.0
C1997 C 0.47672 0.59424 0.06624 0.0
C1998 C 0.47095 0.61608 0.0828 0.0
C1999 C 0.56795 0.55521 0.03694 0.0
C2000 C 0.6682 0.60692 0.02716 0.0
C2001 C 0.64104 0.55919 0.01824 0.0
C2002 C 0.6651 0.55891 0.03269 0.0
C2003 C 0.6787 0.58297 0.03719 0.0
N2004 N 0.63084 0.58276 0.00851 0.0
C2005 C 0.64411 0.60643 0.01277 0.0
Co2006 Co 0.63393 0.30064 0.27896 0.0
Co2007 Co 0.66857 0.34613 0.23933 0.0
O2008 O 0.63747 0.33502 0.26063 0.0
C2009 C 0.63018 0.34005 0.32326 0.0
O2010 O 0.65063 0.35239 0.31205 0.0
C2011 C 0.62312 0.34681 0.201 0.0
O2012 O 0.61762 0.3226 0.20985 0.0
O2013 O 0.67108 0.31038 0.2211 0.0
O2014 O 0.64794 0.28122 0.24674 0.0
H2015 H 0.76099 0.33732 0.19949 0.0
H2016 H 0.5881 0.33839 0.27531 0.0
O2017 O 0.62018 0.3193 0.31202 0.0
H2018 H 0.55616 0.25437 0.23359 0.0
H2019 H 0.58855 0.23297 0.33908 0.0
H2020 H 0.66833 0.25224 0.28352 0.0
H2021 H 0.60159 0.25719 0.25319 0.0
H2022 H 0.59231 0.2758 0.31437 0.0
O2023 O 0.6433 0.35951 0.21051 0.0
H2024 H 0.72208 0.32299 0.22664 0.0
H2025 H 0.68016 0.39436 0.20585 0.0
H2026 H 0.66529 0.20907 0.30764 0.0
H2027 H 0.54234 0.33647 0.25631 0.0
H2028 H 0.6252 0.19922 0.3357 0.0
H2029 H 0.52617 0.29427 0.2351 0.0
O2030 O 0.67104 0.30336 0.29323 0.0
H2031 H 0.62171 0.42855 0.27423 0.0
H2032 H 0.70856 0.38138 0.26659 0.0
H2033 H 0.70638 0.4248 0.29043 0.0
H2034 H 0.66272 0.44869 0.29434 0.0
H2035 H 0.62476 0.385 0.25076 0.0
H2036 H 0.71855 0.4094 0.17829 0.0
H2037 H 0.75937 0.38083 0.17507 0.0
O2038 O 0.69403 0.33278 0.26779 0.0
C2039 C 0.66252 0.28676 0.22636 0.0
C2040 C 0.74335 0.34998 0.20079 0.0
C2041 C 0.71951 0.39042 0.18886 0.0
N2042 N 0.69895 0.35788 0.21794 0.0
C2043 C 0.72128 0.342 0.21618 0.0
C2044 C 0.69782 0.38177 0.20443 0.0
C2045 C 0.74242 0.37438 0.18707 0.0
C2046 C 0.58114 0.31993 0.26622 0.0
N2047 N 0.59761 0.29799 0.26504 0.0
C2048 C 0.55524 0.31897 0.25545 0.0
C2049 C 0.54618 0.2953 0.24353 0.0
C2050 C 0.56301 0.27293 0.24264 0.0
C2051 C 0.5888 0.27467 0.25357 0.0
C2052 C 0.60611 0.23702 0.3269 0.0
C2053 C 0.65072 0.24804 0.29554 0.0
C2054 C 0.60839 0.26128 0.31296 0.0
N2055 N 0.63046 0.2665 0.29748 0.0
C2056 C 0.64916 0.22358 0.30921 0.0
C2057 C 0.62667 0.21808 0.32498 0.0
C2058 C 0.69242 0.3162 0.28736 0.0
C2059 C 0.64087 0.41837 0.2726 0.0
C2060 C 0.68948 0.39164 0.26825 0.0
C2061 C 0.68838 0.41624 0.28173 0.0
C2062 C 0.66387 0.42964 0.2839 0.0
N2063 N 0.66683 0.38075 0.25716 0.0
C2064 C 0.64274 0.39376 0.25923 0.0
Co2065 Co 0.94972 0.38274 0.52839 0.0
Co2066 Co 0.90473 0.41869 0.48951 0.0
O2067 O 0.91533 0.38723 0.51038 0.0
C2068 C 0.91031 0.37951 0.57263 0.0
O2069 O 0.8985 0.40035 0.56157 0.0
C2070 C 0.90344 0.37382 0.45082 0.0
O2071 O 0.92762 0.36798 0.45954 0.0
O2072 O 0.94049 0.42092 0.47126 0.0
O2073 O 0.96925 0.39665 0.49623 0.0
H2074 H 0.91496 0.51157 0.45118 0.0
H2075 H 0.91093 0.33776 0.52502 0.0
O2076 O 0.93091 0.36917 0.56143 0.0
H2077 H 0.99328 0.30456 0.48096 0.0
H2078 H 0.01695 0.33438 0.5866 0.0
H2079 H 0.99926 0.41558 0.53264 0.0
H2080 H 0.99189 0.3498 0.50117 0.0
H2081 H 0.97364 0.34013 0.56317 0.0
O2082 O 0.89096 0.39405 0.46047 0.0
H2083 H 0.9288 0.47192 0.47746 0.0
H2084 H 0.85662 0.4316 0.45631 0.0
H2085 H 0.04298 0.4105 0.55538 0.0
H2086 H 0.91145 0.29223 0.50539 0.0
H2087 H 0.05204 0.36968 0.58264 0.0
H2088 H 0.9528 0.27542 0.48301 0.0
O2089 O 0.94809 0.41986 0.54303 0.0
H2090 H 0.82166 0.37267 0.52397 0.0
H2091 H 0.87002 0.45888 0.51723 0.0
H2092 H 0.82662 0.45708 0.54111 0.0
H2093 H 0.80211 0.41373 0.54457 0.0
H2094 H 0.86524 0.37533 0.50049 0.0
H2095 H 0.84208 0.47074 0.42956 0.0
H2096 H 0.87129 0.51114 0.42698 0.0
O2097 O 0.91856 0.4434 0.51822 0.0
C2098 C 0.96397 0.41184 0.47625 0.0
C2099 C 0.90202 0.49411 0.45219 0.0
C2100 C 0.86113 0.47118 0.44003 0.0
N2101 N 0.89345 0.44956 0.46857 0.0
C2102 C 0.90973 0.47162 0.46709 0.0
C2103 C 0.8695 0.44906 0.45515 0.0
C2104 C 0.87753 0.49385 0.4386 0.0
C2105 C 0.92905 0.33051 0.51547 0.0
N2106 N 0.95133 0.34651 0.51403 0.0
C2107 C 0.92921 0.30474 0.50433 0.0
C2108 C 0.9524 0.29534 0.49175 0.0
C2109 C 0.9751 0.31169 0.49056 0.0
C2110 C 0.97418 0.33736 0.50188 0.0
C2111 C 0.01324 0.35226 0.57479 0.0
C2112 C 0.00309 0.39768 0.54434 0.0
C2113 C 0.9887 0.35567 0.56159 0.0
N2114 N 0.98394 0.37812 0.54652 0.0
C2115 C 0.02787 0.39496 0.55723 0.0
C2116 C 0.03293 0.37206 0.57254 0.0
C2117 C 0.93558 0.44154 0.53737 0.0
C2118 C 0.83211 0.39169 0.52254 0.0
C2119 C 0.85952 0.43994 0.51871 0.0
C2120 C 0.83492 0.43905 0.53221 0.0
C2121 C 0.82117 0.41473 0.53412 0.0
N2122 N 0.87009 0.41727 0.50737 0.0
C2123 C 0.85674 0.39334 0.50918 0.0
Co2124 Co 0.86369 0.30034 0.71877 0.0
Co2125 Co 0.8328 0.34531 0.76176 0.0
O2126 O 0.8623 0.33411 0.73836 0.0
C2127 C 0.8693 0.34052 0.67554 0.0
O2128 O 0.84873 0.35292 0.68648 0.0
C2129 C 0.87981 0.34651 0.79801 0.0
O2130 O 0.88462 0.32181 0.79008 0.0
O2131 O 0.832 0.30981 0.78065 0.0
O2132 O 0.84852 0.28085 0.75021 0.0
H2133 H 0.74411 0.3374 0.80971 0.0
H2134 H 0.91245 0.33431 0.72208 0.0
O2135 O 0.87857 0.31928 0.68644 0.0
H2136 H 0.93737 0.24837 0.76468 0.0
H2137 H 0.90582 0.23194 0.65716 0.0
H2138 H 0.82693 0.25378 0.71307 0.0
H2139 H 0.89208 0.25486 0.74561 0.0
H2140 H 0.90378 0.27461 0.68233 0.0
O2141 O 0.85983 0.35934 0.78833 0.0
H2142 H 0.78074 0.3224 0.77994 0.0
H2143 H 0.82364 0.39452 0.79456 0.0
H2144 H 0.82844 0.21062 0.68882 0.0
H2145 H 0.95807 0.32862 0.74068 0.0
H2146 H 0.86797 0.19952 0.66044 0.0
H2147 H 0.97073 0.28542 0.76225 0.0
O2148 O 0.82668 0.30566 0.70472 0.0
H2149 H 0.87603 0.42761 0.72225 0.0
H2150 H 0.79061 0.37939 0.73645 0.0
H2151 H 0.79057 0.42232 0.71165 0.0
H2152 H 0.8335 0.44674 0.70446 0.0
H2153 H 0.87519 0.38451 0.74672 0.0
H2154 H 0.78767 0.41033 0.82478 0.0
H2155 H 0.74748 0.38173 0.83245 0.0
O2156 O 0.80541 0.33086 0.73587 0.0
C2157 C 0.83728 0.28597 0.77268 0.0
C2158 C 0.76144 0.35013 0.80644 0.0
C2159 C 0.78592 0.39101 0.81495 0.0
N2160 N 0.80415 0.35758 0.78526 0.0
C2161 C 0.78216 0.34175 0.78945 0.0
C2162 C 0.80626 0.38191 0.79785 0.0
C2163 C 0.76337 0.37497 0.81923 0.0
C2164 C 0.91792 0.31537 0.73122 0.0
N2165 N 0.89969 0.2949 0.73266 0.0
C2166 C 0.94373 0.3123 0.7418 0.0
C2167 C 0.95081 0.28807 0.75394 0.0
C2168 C 0.9321 0.26728 0.75532 0.0
C2169 C 0.90646 0.27109 0.74454 0.0
C2170 C 0.88844 0.23656 0.6694 0.0
C2171 C 0.84432 0.24903 0.70094 0.0
C2172 C 0.88712 0.26075 0.68359 0.0
N2173 N 0.8653 0.26667 0.69917 0.0
C2174 C 0.84499 0.22459 0.68715 0.0
C2175 C 0.86721 0.21838 0.67126 0.0
C2176 C 0.80565 0.31655 0.71452 0.0
C2177 C 0.85718 0.41719 0.72532 0.0
C2178 C 0.80938 0.38987 0.73333 0.0
C2179 C 0.80922 0.4142 0.71933 0.0
C2180 C 0.83332 0.4279 0.71531 0.0
N2181 N 0.83286 0.37954 0.74313 0.0
C2182 C 0.85657 0.39284 0.73926 0.0
Co2183 Co 0.94928 0.61664 0.97241 0.0
Co2184 Co 0.90332 0.58168 0.01109 0.0
O2185 O 0.91475 0.61296 0.99036 0.0
C2186 C 0.90988 0.62069 0.92834 0.0
O2187 O 0.8976 0.60018 0.93949 0.0
C2188 C 0.90292 0.62665 0.04984 0.0
O2189 O 0.9272 0.63198 0.04106 0.0
O2190 O 0.93891 0.57873 0.02948 0.0
O2191 O 0.96839 0.60246 0.00471 0.0
H2192 H 0.91116 0.48869 0.04972 0.0
H2193 H 0.91147 0.66248 0.97608 0.0
O2194 O 0.93078 0.63054 0.9394 0.0
H2195 H 0.99508 0.69397 0.01893 0.0
H2196 H 0.01739 0.66269 0.91331 0.0
H2197 H 0.99792 0.58253 0.96821 0.0
H2198 H 0.99243 0.64872 0.99888 0.0
H2199 H 0.97423 0.65849 0.93739 0.0
O2200 O 0.88999 0.6067 0.04015 0.0
H2201 H 0.9261 0.52795 0.02343 0.0
H2202 H 0.8547 0.56995 0.04396 0.0
H2203 H 0.04142 0.58601 0.94474 0.0
H2204 H 0.91324 0.70808 0.99552 0.0
H2205 H 0.05139 0.6263 0.91702 0.0
H2206 H 0.95522 0.72402 0.0173 0.0
O2207 O 0.9468 0.57963 0.95781 0.0
H2208 H 0.8215 0.62955 0.97619 0.0
H2209 H 0.868 0.54229 0.98307 0.0
H2210 H 0.82484 0.54509 0.95886 0.0
H2211 H 0.80129 0.58896 0.95532 0.0
H2212 H 0.8648 0.6259 1.00002 0.0
H2213 H 0.83905 0.53124 0.0707 0.0
H2214 H 0.86732 0.49018 0.0736 0.0
O2215 O 0.91675 0.55653 0.98237 0.0
C2216 C 0.96256 0.5875 0.02472 0.0
C2217 C 0.89863 0.50643 0.04857 0.0
C2218 C 0.85818 0.53033 0.06036 0.0
N2219 N 0.89121 0.55112 0.03201 0.0
C2220 C 0.90696 0.5287 0.03367 0.0
C2221 C 0.86717 0.55221 0.04525 0.0
C2222 C 0.87404 0.50729 0.06197 0.0
C2223 C 0.92984 0.66935 0.9854 0.0
N2224 N 0.95177 0.65286 0.98664 0.0
C2225 C 0.93071 0.69515 0.99642 0.0
C2226 C 0.95427 0.70408 0.00866 0.0
C2227 C 0.97661 0.68722 0.00962 0.0
C2228 C 0.97498 0.66154 0.99843 0.0
C2229 C 0.0133 0.64504 0.92535 0.0
C2230 C 0.00217 0.60022 0.95633 0.0
C2231 C 0.98885 0.64252 0.93892 0.0
N2232 N 0.98358 0.62034 0.95423 0.0
C2233 C 0.02682 0.60204 0.94304 0.0
C2234 C 0.03238 0.62463 0.92745 0.0
C2235 C 0.93385 0.55819 0.96323 0.0
C2236 C 0.83153 0.61031 0.97766 0.0
C2237 C 0.85789 0.56146 0.98158 0.0
C2238 C 0.83343 0.56291 0.96789 0.0
C2239 C 0.82022 0.58753 0.96593 0.0
N2240 N 0.86883 0.58388 0.99307 0.0
C2241 C 0.856 0.60809 0.99123 0.0
Co2242 Co 0.63478 0.69937 0.22092 0.0
Co2243 Co 0.67027 0.65522 0.26116 0.0
O2244 O 0.63907 0.66541 0.23977 0.0
C2245 C 0.63304 0.65886 0.17794 0.0
O2246 O 0.65375 0.64796 0.19006 0.0
C2247 C 0.62478 0.65374 0.29922 0.0
O2248 O 0.61884 0.67786 0.29037 0.0
O2249 O 0.67182 0.69122 0.27903 0.0
O2250 O 0.64811 0.71956 0.25298 0.0
H2251 H 0.76234 0.66659 0.30105 0.0
H2252 H 0.58986 0.66049 0.22434 0.0
O2253 O 0.62196 0.67964 0.18808 0.0
H2254 H 0.55565 0.74372 0.26588 0.0
H2255 H 0.58757 0.76451 0.15952 0.0
H2256 H 0.66702 0.74932 0.21673 0.0
H2257 H 0.60131 0.74196 0.24666 0.0
H2258 H 0.59322 0.72171 0.18393 0.0
O2259 O 0.64527 0.64144 0.2899 0.0
H2260 H 0.72302 0.67991 0.27401 0.0
H2261 H 0.68307 0.60743 0.29482 0.0
H2262 H 0.66204 0.79249 0.19294 0.0
H2263 H 0.54393 0.66135 0.24303 0.0
H2264 H 0.62208 0.8003 0.16407 0.0
H2265 H 0.5266 0.70316 0.26413 0.0
O2266 O 0.67214 0.69774 0.20692 0.0
H2267 H 0.62532 0.57196 0.22578 0.0
H2268 H 0.7112 0.62062 0.23436 0.0
H2269 H 0.70998 0.57746 0.21003 0.0
H2270 H 0.66678 0.55284 0.20558 0.0
H2271 H 0.6274 0.61532 0.2497 0.0
H2272 H 0.72188 0.59341 0.32232 0.0
H2273 H 0.76193 0.62304 0.32545 0.0
O2274 O 0.69541 0.66896 0.23277 0.0
C2275 C 0.66286 0.71463 0.27341 0.0
C2276 C 0.74504 0.65348 0.29981 0.0
C2277 C 0.72231 0.61241 0.31176 0.0
N2278 N 0.70087 0.64438 0.28271 0.0
C2279 C 0.72273 0.66089 0.28448 0.0
C2280 C 0.70038 0.62049 0.29623 0.0
C2281 C 0.74479 0.62905 0.3135 0.0
C2282 C 0.58239 0.6788 0.23334 0.0
N2283 N 0.59831 0.70113 0.23459 0.0
C2284 C 0.55639 0.67914 0.24395 0.0
C2285 C 0.5467 0.7026 0.25581 0.0
C2286 C 0.56299 0.72535 0.25683 0.0
C2287 C 0.58889 0.72423 0.24606 0.0
C2288 C 0.60504 0.76137 0.17208 0.0
C2289 C 0.64947 0.75264 0.20437 0.0
C2290 C 0.60837 0.73715 0.1859 0.0
N2291 N 0.63029 0.73312 0.20193 0.0
C2292 C 0.64681 0.77709 0.19087 0.0
C2293 C 0.6244 0.78145 0.17465 0.0
C2294 C 0.69379 0.68555 0.21324 0.0
C2295 C 0.64427 0.58247 0.22763 0.0
C2296 C 0.69234 0.61003 0.23252 0.0
C2297 C 0.69177 0.58558 0.21875 0.0
C2298 C 0.66754 0.57177 0.21628 0.0
N2299 N 0.66943 0.62044 0.24354 0.0
C2300 C 0.6456 0.60697 0.24127 0.0
Co2301 Co 0.55255 0.38245 0.47173 0.0
Co2302 Co 0.59767 0.41815 0.51071 0.0
O2303 O 0.58695 0.38672 0.48983 0.0
C2304 C 0.59188 0.3788 0.42735 0.0
O2305 O 0.60379 0.39973 0.43813 0.0
C2306 C 0.59977 0.37318 0.54953 0.0
O2307 O 0.57523 0.36732 0.54186 0.0
O2308 O 0.56201 0.42025 0.52921 0.0
O2309 O 0.53307 0.39652 0.5039 0.0
H2310 H 0.5875 0.5109 0.54939 0.0
H2311 H 0.59111 0.33731 0.47539 0.0
O2312 O 0.5713 0.36865 0.43875 0.0
H2313 H 0.50814 0.30429 0.51834 0.0
H2314 H 0.48524 0.33467 0.41313 0.0
H2315 H 0.50321 0.41559 0.46744 0.0
H2316 H 0.51 0.34967 0.49852 0.0
H2317 H 0.5285 0.34007 0.43674 0.0
O2318 O 0.61176 0.39352 0.53954 0.0
H2319 H 0.57358 0.4713 0.52306 0.0
H2320 H 0.64598 0.43107 0.54365 0.0
H2321 H 0.45957 0.41088 0.44447 0.0
H2322 H 0.59014 0.29163 0.49463 0.0
H2323 H 0.45035 0.37019 0.41706 0.0
H2324 H 0.54846 0.27489 0.51643 0.0
O2325 O 0.55447 0.41953 0.45698 0.0
H2326 H 0.68053 0.37223 0.47556 0.0
H2327 H 0.63237 0.45851 0.48319 0.0
H2328 H 0.67575 0.45682 0.45926 0.0
H2329 H 0.70018 0.41345 0.4554 0.0
H2330 H 0.63695 0.37477 0.49902 0.0
H2331 H 0.66059 0.47014 0.57046 0.0
H2332 H 0.6313 0.51048 0.57334 0.0
O2333 O 0.58374 0.44294 0.48217 0.0
C2334 C 0.53846 0.41139 0.52411 0.0
C2335 C 0.60046 0.49347 0.54826 0.0
C2336 C 0.64147 0.47058 0.5601 0.0
N2337 N 0.60903 0.44898 0.53169 0.0
C2338 C 0.59272 0.47101 0.53333 0.0
C2339 C 0.63306 0.44849 0.54496 0.0
C2340 C 0.62503 0.49321 0.5617 0.0
C2341 C 0.57287 0.33012 0.48475 0.0
N2342 N 0.55068 0.34624 0.48609 0.0
C2343 C 0.57246 0.30426 0.49565 0.0
C2344 C 0.54907 0.29489 0.5079 0.0
C2345 C 0.52646 0.31138 0.50902 0.0
C2346 C 0.52766 0.33715 0.49795 0.0
C2347 C 0.48901 0.35249 0.42502 0.0
C2348 C 0.49931 0.39775 0.45568 0.0
C2349 C 0.51351 0.3557 0.43833 0.0
N2350 N 0.51835 0.37806 0.45352 0.0
C2351 C 0.47457 0.39523 0.44266 0.0
C2352 C 0.46943 0.37241 0.42726 0.0
C2353 C 0.56699 0.44115 0.46279 0.0
C2354 C 0.67012 0.39126 0.47717 0.0
C2355 C 0.64282 0.43955 0.4815 0.0
C2356 C 0.66741 0.43873 0.46799 0.0
C2357 C 0.68111 0.41439 0.46584 0.0
N2358 N 0.63221 0.4168 0.49263 0.0
C2359 C 0.64548 0.39285 0.49054 0.0
Co2360 Co 0.78106 0.86579 0.6983 0.0
Co2361 Co 0.74167 0.83099 0.65286 0.0
O2362 O 0.76274 0.86225 0.66396 0.0
C2363 C 0.82508 0.87116 0.65897 0.0
O2364 O 0.81447 0.85044 0.64657 0.0
C2365 C 0.70355 0.87623 0.65211 0.0
O2366 O 0.71211 0.88138 0.6765 0.0
O2367 O 0.72307 0.82858 0.68843 0.0
O2368 O 0.74956 0.85052 0.71757 0.0
H2369 H 0.70222 0.73846 0.66186 0.0
H2370 H 0.77729 0.91289 0.66215 0.0
O2371 O 0.81359 0.88078 0.67975 0.0
H2372 H 0.7309 0.93998 0.74546 0.0
H2373 H 0.83934 0.91248 0.7666 0.0
H2374 H 0.78713 0.83079 0.74612 0.0
H2375 H 0.7519 0.89523 0.74168 0.0
H2376 H 0.81491 0.90828 0.72365 0.0
O2377 O 0.713 0.85611 0.63929 0.0
H2378 H 0.72926 0.77746 0.67606 0.0
H2379 H 0.70833 0.81912 0.6046 0.0
H2380 H 0.81094 0.83428 0.78942 0.0
H2381 H 0.75676 0.95795 0.66512 0.0
H2382 H 0.83736 0.87531 0.79987 0.0
H2383 H 0.73326 0.97168 0.70698 0.0
O2384 O 0.79636 0.8292 0.69487 0.0
H2385 H 0.77687 0.87751 0.57039 0.0
H2386 H 0.7693 0.79092 0.61798 0.0
H2387 H 0.79333 0.79292 0.57466 0.0
H2388 H 0.7972 0.83645 0.55055 0.0
H2389 H 0.75322 0.87465 0.61386 0.0
H2390 H 0.68086 0.78063 0.58968 0.0
H2391 H 0.67774 0.7399 0.61837 0.0
O2392 O 0.7701 0.80577 0.66649 0.0
C2393 C 0.72887 0.83642 0.71215 0.0
C2394 C 0.70349 0.75604 0.64912 0.0
C2395 C 0.69145 0.77974 0.60865 0.0
N2396 N 0.72049 0.80047 0.6411 0.0
C2397 C 0.71886 0.77816 0.65701 0.0
C2398 C 0.70698 0.8015 0.61722 0.0
C2399 C 0.68973 0.75689 0.62475 0.0
C2400 C 0.76735 0.91886 0.68052 0.0
N2401 N 0.7659 0.90152 0.70176 0.0
C2402 C 0.75566 0.94434 0.68205 0.0
C2403 C 0.74245 0.95202 0.70553 0.0
C2404 C 0.7411 0.93424 0.72712 0.0
C2405 C 0.75299 0.9089 0.72485 0.0
C2406 C 0.8279 0.8945 0.76228 0.0
C2407 C 0.79844 0.8488 0.75058 0.0
C2408 C 0.81411 0.89198 0.73797 0.0
N2409 N 0.79956 0.86937 0.73242 0.0
C2410 C 0.81194 0.85061 0.77511 0.0
C2411 C 0.82677 0.87364 0.78095 0.0
C2412 C 0.79017 0.80768 0.68242 0.0
C2413 C 0.77526 0.85841 0.58067 0.0
C2414 C 0.77095 0.80994 0.60763 0.0
C2415 C 0.78453 0.81094 0.58309 0.0
C2416 C 0.78669 0.83537 0.56956 0.0
N2417 N 0.75974 0.83262 0.61836 0.0
C2418 C 0.76179 0.85665 0.60524 0.0
Co2419 Co 0.28089 0.63519 0.30649 0.0
Co2420 Co 0.24193 0.66963 0.35258 0.0
O2421 O 0.26273 0.63847 0.34091 0.0
C2422 C 0.32459 0.63209 0.34591 0.0
O2423 O 0.31238 0.65215 0.35788 0.0
C2424 C 0.20317 0.62479 0.35225 0.0
O2425 O 0.21221 0.61967 0.32802 0.0
O2426 O 0.22355 0.67293 0.31695 0.0
O2427 O 0.24863 0.64939 0.28763 0.0
H2428 H 0.20382 0.76298 0.34629 0.0
H2429 H 0.27901 0.58837 0.34321 0.0
O2430 O 0.31411 0.6216 0.32501 0.0
H2431 H 0.2326 0.55903 0.26071 0.0
H2432 H 0.34041 0.58968 0.23843 0.0
H2433 H 0.28465 0.6693 0.25778 0.0
H2434 H 0.25218 0.60447 0.26384 0.0
H2435 H 0.31668 0.59392 0.2818 0.0
O2436 O 0.21286 0.64448 0.36555 0.0
H2437 H 0.22981 0.7238 0.33064 0.0
H2438 H 0.20896 0.68069 0.40126 0.0
H2439 H 0.30791 0.66584 0.21417 0.0
H2440 H 0.25991 0.54265 0.34089 0.0
H2441 H 0.33601 0.6258 0.20423 0.0
H2442 H 0.23641 0.52778 0.29944 0.0
O2443 O 0.29515 0.67228 0.30905 0.0
H2444 H 0.27728 0.62072 0.43357 0.0
H2445 H 0.27023 0.70856 0.38824 0.0
H2446 H 0.29513 0.70508 0.43096 0.0
H2447 H 0.2988 0.6609 0.4539 0.0
H2448 H 0.25282 0.62503 0.39069 0.0
H2449 H 0.18248 0.71932 0.41759 0.0
H2450 H 0.17991 0.7609 0.39008 0.0
O2451 O 0.27053 0.69497 0.33936 0.0
C2452 C 0.22858 0.66438 0.29326 0.0
C2453 C 0.20483 0.74501 0.35849 0.0
C2454 C 0.19282 0.72049 0.39849 0.0
N2455 N 0.22102 0.70006 0.36508 0.0
C2456 C 0.21958 0.72278 0.34977 0.0
C2457 C 0.20777 0.69865 0.3891 0.0
C2458 C 0.1914 0.74381 0.38305 0.0
C2459 C 0.26906 0.58191 0.32502 0.0
N2460 N 0.26683 0.59898 0.30364 0.0
C2461 C 0.25819 0.55606 0.32386 0.0
C2462 C 0.24497 0.54774 0.3006 0.0
C2463 C 0.24282 0.56527 0.27887 0.0
C2464 C 0.25391 0.59098 0.28077 0.0
C2465 C 0.32816 0.6072 0.24249 0.0
C2466 C 0.29669 0.65172 0.25355 0.0
C2467 C 0.31471 0.60971 0.26701 0.0
N2468 N 0.29911 0.63171 0.27221 0.0
C2469 C 0.30988 0.64992 0.22884 0.0
C2470 C 0.32567 0.62746 0.2233 0.0
C2471 C 0.28951 0.69362 0.32207 0.0
C2472 C 0.27576 0.64009 0.42381 0.0
C2473 C 0.27173 0.68927 0.39811 0.0
C2474 C 0.28582 0.68743 0.42232 0.0
C2475 C 0.28786 0.66264 0.43518 0.0
N2476 N 0.25997 0.66705 0.38705 0.0
C2477 C 0.26182 0.64269 0.39959 0.0
Co2478 Co 0.61825 0.02925 0.55055 0.0
Co2479 Co 0.58479 0.98812 0.5956 0.0
O2480 O 0.61505 0.0107 0.58486 0.0
C2481 C 0.62084 0.07359 0.58982 0.0
O2482 O 0.60001 0.06249 0.60162 0.0
C2483 C 0.63129 0.95115 0.59833 0.0
O2484 O 0.63687 0.95834 0.57357 0.0
O2485 O 0.58408 0.96922 0.56014 0.0
O2486 O 0.60496 0.99683 0.53106 0.0
H2487 H 0.49454 0.94377 0.58561 0.0
H2488 H 0.66394 0.02662 0.58851 0.0
O2489 O 0.63128 0.06241 0.56929 0.0
H2490 H 0.69747 0.98597 0.50457 0.0
H2491 H 0.66293 0.09002 0.48296 0.0
H2492 H 0.58437 0.03259 0.50167 0.0
H2493 H 0.65144 0.00414 0.50726 0.0
H2494 H 0.65897 0.06603 0.52617 0.0
O2495 O 0.61082 0.96094 0.61022 0.0
H2496 H 0.5324 0.97247 0.57163 0.0
H2497 H 0.57364 0.955 0.64422 0.0
H2498 H 0.58769 0.05587 0.45808 0.0
H2499 H 0.71027 0.00904 0.58672 0.0
H2500 H 0.62718 0.08487 0.44849 0.0
H2501 H 0.72727 0.98841 0.54455 0.0
O2502 O 0.5807 0.0428 0.55304 0.0
H2503 H 0.6276 0.02649 0.67864 0.0
H2504 H 0.54258 0.01406 0.62926 0.0
H2505 H 0.54237 0.03844 0.67245 0.0
H2506 H 0.5851 0.0447 0.69747 0.0
H2507 H 0.62694 0.00252 0.63526 0.0
H2508 H 0.53632 0.92591 0.65895 0.0
H2509 H 0.49636 0.92021 0.62959 0.0
O2510 O 0.55855 0.01473 0.58093 0.0
C2511 C 0.59182 0.97547 0.53646 0.0
C2512 C 0.51182 0.94611 0.59861 0.0
C2513 C 0.53528 0.93606 0.63975 0.0
N2514 N 0.55518 0.96549 0.60709 0.0
C2515 C 0.5333 0.9624 0.59081 0.0
C2516 C 0.5564 0.9525 0.63126 0.0
C2517 C 0.51286 0.93289 0.62327 0.0
C2518 C 0.67123 0.01773 0.57007 0.0
N2519 N 0.65489 0.0161 0.54806 0.0
C2520 C 0.69746 0.00779 0.56918 0.0
C2521 C 0.70698 0.9962 0.54553 0.0
C2522 C 0.69026 0.99477 0.52311 0.0
C2523 C 0.66413 0.00489 0.52477 0.0
C2524 C 0.64563 0.07743 0.48689 0.0
C2525 C 0.60171 0.04503 0.49761 0.0
C2526 C 0.64323 0.0639 0.51137 0.0
N2527 N 0.62153 0.04784 0.51641 0.0
C2528 C 0.60343 0.05823 0.4729 0.0
C2529 C 0.62558 0.07452 0.46755 0.0
C2530 C 0.55951 0.03482 0.56504 0.0
C2531 C 0.60884 0.02381 0.66797 0.0
C2532 C 0.56126 0.01678 0.64001 0.0
C2533 C 0.56101 0.03055 0.66447 0.0
C2534 C 0.58499 0.03405 0.67851 0.0
N2535 N 0.58472 0.00669 0.62987 0.0
C2536 C 0.60832 0.01015 0.64346 0.0
Co2537 Co 0.22063 0.36501 0.80182 0.0
Co2538 Co 0.25897 0.33185 0.84947 0.0
O2539 O 0.23865 0.36272 0.83638 0.0
C2540 C 0.1768 0.36948 0.84108 0.0
O2541 O 0.18894 0.34973 0.85358 0.0
C2542 C 0.29834 0.3767 0.84876 0.0
O2543 O 0.29063 0.38117 0.82395 0.0
O2544 O 0.27737 0.32706 0.81401 0.0
O2545 O 0.25291 0.34994 0.78333 0.0
H2546 H 0.29689 0.23807 0.84805 0.0
H2547 H 0.22264 0.41303 0.83696 0.0
O2548 O 0.1874 0.3794 0.81994 0.0
H2549 H 0.26946 0.4393 0.75364 0.0
H2550 H 0.16082 0.40849 0.73281 0.0
H2551 H 0.21622 0.32919 0.7544 0.0
H2552 H 0.24975 0.39403 0.7583 0.0
H2553 H 0.18527 0.4058 0.77589 0.0
O2554 O 0.28794 0.35736 0.86203 0.0
H2555 H 0.27032 0.27615 0.83093 0.0
H2556 H 0.29198 0.32317 0.89859 0.0
H2557 H 0.19207 0.33102 0.7112 0.0
H2558 H 0.24189 0.45858 0.83311 0.0
H2559 H 0.16418 0.37089 0.70011 0.0
H2560 H 0.26558 0.47192 0.79124 0.0
O2561 O 0.2062 0.3281 0.80559 0.0
H2562 H 0.22303 0.38363 0.92848 0.0
H2563 H 0.23031 0.2943 0.88617 0.0
H2564 H 0.20523 0.29922 0.92865 0.0
H2565 H 0.20146 0.34415 0.95008 0.0
H2566 H 0.24769 0.37787 0.88586 0.0
H2567 H 0.31894 0.28568 0.91655 0.0
H2568 H 0.32151 0.24272 0.89124 0.0
O2569 O 0.23037 0.30609 0.83682 0.0
C2570 C 0.27257 0.33486 0.78998 0.0
C2571 C 0.296 0.2567 0.85925 0.0
C2572 C 0.30838 0.28342 0.89767 0.0
N2573 N 0.27971 0.30192 0.86352 0.0
C2574 C 0.28099 0.27834 0.84957 0.0
C2575 C 0.29317 0.30463 0.88732 0.0
C2576 C 0.3098 0.25932 0.88347 0.0
C2577 C 0.23268 0.41881 0.81859 0.0
N2578 N 0.23492 0.40101 0.79781 0.0
C2579 C 0.24364 0.44458 0.81656 0.0
C2580 C 0.25696 0.45203 0.79307 0.0
C2581 C 0.25915 0.43374 0.77197 0.0
C2582 C 0.24798 0.40814 0.77473 0.0
C2583 C 0.17301 0.39105 0.73735 0.0
C2584 C 0.20428 0.34671 0.74965 0.0
C2585 C 0.18689 0.38943 0.76169 0.0
N2586 N 0.20237 0.3675 0.76751 0.0
C2587 C 0.1906 0.3476 0.72518 0.0
C2588 C 0.1749 0.36995 0.71901 0.0
C2589 C 0.21148 0.30719 0.8194 0.0
C2590 C 0.2246 0.36394 0.91938 0.0
C2591 C 0.22878 0.31391 0.89538 0.0
C2592 C 0.21457 0.31657 0.91945 0.0
C2593 C 0.21247 0.34178 0.93147 0.0
N2594 N 0.24059 0.33575 0.88363 0.0
C2595 C 0.23866 0.36053 0.89531 0.0
Co2596 Co 0.38624 0.47164 0.55304 0.0
Co2597 Co 0.42063 0.51171 0.59819 0.0
O2598 O 0.38957 0.49034 0.58719 0.0
C2599 C 0.38139 0.42814 0.59284 0.0
O2600 O 0.40191 0.43928 0.6051 0.0
C2601 C 0.375 0.54967 0.59877 0.0
O2602 O 0.36992 0.54101 0.57439 0.0
O2603 O 0.42295 0.53002 0.56248 0.0
O2604 O 0.40128 0.50307 0.53352 0.0
H2605 H 0.513 0.55165 0.58941 0.0
H2606 H 0.33906 0.47529 0.58912 0.0
O2607 O 0.37159 0.43918 0.57191 0.0
H2608 H 0.31172 0.52082 0.50545 0.0
H2609 H 0.34013 0.41231 0.48524 0.0
H2610 H 0.42138 0.46536 0.50532 0.0
H2611 H 0.35664 0.50022 0.50943 0.0
H2612 H 0.34404 0.43727 0.52793 0.0
O2613 O 0.39517 0.54033 0.6116 0.0
H2614 H 0.47421 0.52433 0.57514 0.0
H2615 H 0.43202 0.54548 0.64626 0.0
H2616 H 0.41822 0.441 0.46228 0.0
H2617 H 0.29384 0.49543 0.58596 0.0
H2618 H 0.3774 0.41417 0.45204 0.0
H2619 H 0.27998 0.5185 0.54392 0.0
O2620 O 0.42296 0.45669 0.55656 0.0
H2621 H 0.37423 0.47659 0.68078 0.0
H2622 H 0.46085 0.48458 0.63326 0.0
H2623 H 0.45894 0.46071 0.67666 0.0
H2624 H 0.41539 0.45663 0.70073 0.0
H2625 H 0.377 0.50009 0.63724 0.0
H2626 H 0.47029 0.57324 0.66123 0.0
H2627 H 0.51117 0.57638 0.63274 0.0
O2628 O 0.44622 0.48335 0.58469 0.0
C2629 C 0.41524 0.52389 0.53879 0.0
C2630 C 0.49534 0.55037 0.60204 0.0
C2631 C 0.47133 0.56254 0.64232 0.0
N2632 N 0.45094 0.53321 0.6099 0.0
C2633 C 0.47334 0.53486 0.59411 0.0
C2634 C 0.4497 0.54686 0.63371 0.0
C2635 C 0.49428 0.56428 0.62634 0.0
C2636 C 0.33303 0.48504 0.57067 0.0
N2637 N 0.35039 0.48647 0.54944 0.0
C2638 C 0.30746 0.49651 0.56903 0.0
C2639 C 0.29971 0.50948 0.54545 0.0
C2640 C 0.31752 0.5108 0.52387 0.0
C2641 C 0.34294 0.49914 0.52624 0.0
C2642 C 0.35802 0.42394 0.48947 0.0
C2643 C 0.40347 0.45387 0.50094 0.0
C2644 C 0.36037 0.43802 0.51364 0.0
N2645 N 0.38286 0.45279 0.51908 0.0
C2646 C 0.40184 0.44006 0.47656 0.0
C2647 C 0.37893 0.425 0.47084 0.0
C2648 C 0.44447 0.46315 0.56887 0.0
C2649 C 0.39334 0.47831 0.67052 0.0
C2650 C 0.44182 0.48285 0.64359 0.0
C2651 C 0.44087 0.46935 0.66818 0.0
C2652 C 0.41643 0.46708 0.68169 0.0
N2653 N 0.41909 0.49385 0.6328 0.0
C2654 C 0.39505 0.49169 0.64591 0.0
Co2655 Co 0.72194 0.13445 0.19785 0.0
Co2656 Co 0.76272 0.16869 0.15321 0.0
O2657 O 0.74101 0.13769 0.16386 0.0
C2658 C 0.67852 0.12941 0.15791 0.0
O2659 O 0.68932 0.15013 0.14566 0.0
C2660 C 0.8006 0.12306 0.15267 0.0
O2661 O 0.79183 0.11784 0.17698 0.0
O2662 O 0.78077 0.17062 0.18905 0.0
O2663 O 0.75308 0.14952 0.21769 0.0
H2664 H 0.80378 0.2604 0.16336 0.0
H2665 H 0.72599 0.08714 0.16199 0.0
O2666 O 0.68974 0.11968 0.17876 0.0
H2667 H 0.77036 0.06 0.24634 0.0
H2668 H 0.66185 0.08854 0.26516 0.0
H2669 H 0.7151 0.16973 0.24538 0.0
H2670 H 0.75002 0.105 0.2419 0.0
H2671 H 0.68723 0.09233 0.22272 0.0
O2672 O 0.79125 0.14321 0.13983 0.0
H2673 H 0.77584 0.22181 0.17695 0.0
H2674 H 0.7968 0.1803 0.10538 0.0
H2675 H 0.69035 0.16666 0.2882 0.0
H2676 H 0.74588 0.04184 0.16563 0.0
H2677 H 0.6634 0.12588 0.29829 0.0
H2678 H 0.76835 0.02808 0.20802 0.0
O2679 O 0.707 0.17115 0.19401 0.0
H2680 H 0.72799 0.12316 0.06999 0.0
H2681 H 0.73622 0.20937 0.11819 0.0
H2682 H 0.71279 0.20797 0.07453 0.0
H2683 H 0.7086 0.16463 0.05011 0.0
H2684 H 0.75106 0.12542 0.1138 0.0
H2685 H 0.82517 0.21838 0.09107 0.0
H2686 H 0.82873 0.25882 0.12013 0.0
O2687 O 0.73448 0.19436 0.16661 0.0
C2688 C 0.77417 0.16312 0.21268 0.0
C2689 C 0.80232 0.24294 0.15046 0.0
C2690 C 0.81437 0.21932 0.10993 0.0
N2691 N 0.78455 0.19892 0.1419 0.0
C2692 C 0.78643 0.22107 0.15801 0.0
C2693 C 0.79833 0.19781 0.11816 0.0
C2694 C 0.81634 0.24202 0.12623 0.0
C2695 C 0.7355 0.08116 0.18059 0.0
N2696 N 0.73673 0.09861 0.20175 0.0
C2697 C 0.74682 0.05555 0.18249 0.0
C2698 C 0.75946 0.04785 0.20627 0.0
C2699 C 0.7606 0.06576 0.22778 0.0
C2700 C 0.74909 0.09122 0.22513 0.0
C2701 C 0.67352 0.10642 0.261 0.0
C2702 C 0.70357 0.15183 0.24969 0.0
C2703 C 0.68785 0.1087 0.23696 0.0
N2704 N 0.70269 0.13117 0.23161 0.0
C2705 C 0.68953 0.15025 0.27395 0.0
C2706 C 0.6744 0.12737 0.27958 0.0
C2707 C 0.71392 0.19266 0.18196 0.0
C2708 C 0.72976 0.14217 0.0804 0.0
C2709 C 0.73442 0.19043 0.10771 0.0
C2710 C 0.72118 0.18977 0.08297 0.0
C2711 C 0.71885 0.16545 0.06928 0.0
N2712 N 0.74512 0.16752 0.11846 0.0
C2713 C 0.74289 0.1436 0.10516 0.0
Co2714 Co 0.6172 0.96956 0.94985 0.0
Co2715 Co 0.5813 0.00997 0.9062 0.0
O2716 O 0.61285 0.98879 0.91607 0.0
C2717 C 0.62043 0.92703 0.90916 0.0
O2718 O 0.59949 0.93878 0.8983 0.0
C2719 C 0.62642 0.04866 0.90309 0.0
O2720 O 0.63259 0.04141 0.92769 0.0
O2721 O 0.58054 0.02822 0.94196 0.0
O2722 O 0.60259 1.00079 0.97024 0.0
H2723 H 0.48971 0.05053 0.91931 0.0
H2724 H 0.66328 0.97389 0.91242 0.0
O2725 O 0.6313 0.93736 0.92994 0.0
H2726 H 0.69321 0.01751 0.99622 0.0
H2727 H 0.66509 0.90841 0.0147 0.0
H2728 H 0.5839 0.96298 0.99885 0.0
H2729 H 0.64799 0.99742 0.99301 0.0
H2730 H 0.65976 0.93397 0.97252 0.0
O2731 O 0.60593 0.03849 0.89153 0.0
H2732 H 0.52899 0.02302 0.93178 0.0
H2733 H 0.5676 0.0433 0.8584 0.0
H2734 H 0.58845 0.93788 0.04132 0.0
H2735 H 0.70874 0.99359 0.91477 0.0
H2736 H 0.62929 0.91033 0.04946 0.0
H2737 H 0.72393 0.01564 0.9569 0.0
O2738 O 0.58042 0.95454 0.9474 0.0
H2739 H 0.62444 0.97397 0.82223 0.0
H2740 H 0.53963 0.9829 0.87276 0.0
H2741 H 0.53987 0.95855 0.82957 0.0
H2742 H 0.5825 0.95397 0.804 0.0
H2743 H 0.62337 0.99786 0.86563 0.0
H2744 H 0.52881 0.07122 0.84521 0.0
H2745 H 0.48947 0.07491 0.87574 0.0
O2746 O 0.55632 0.98176 0.92067 0.0
C2747 C 0.58865 0.02178 0.96544 0.0
C2748 C 0.50668 0.04901 0.90578 0.0
C2749 C 0.52866 0.06067 0.86422 0.0
N2750 N 0.55048 0.03142 0.89576 0.0
C2751 C 0.52894 0.03338 0.91269 0.0
C2752 C 0.55059 0.04488 0.87183 0.0
C2753 C 0.50658 0.06271 0.88136 0.0
C2754 C 0.66986 0.98325 0.93088 0.0
N2755 N 0.65311 0.98437 0.9526 0.0
C2756 C 0.69557 0.99446 0.93206 0.0
C2757 C 0.70406 0.00686 0.9557 0.0
C2758 C 0.68683 0.00793 0.97777 0.0
C2759 C 0.66125 0.99656 0.97582 0.0
C2760 C 0.64725 0.92041 0.01142 0.0
C2761 C 0.60184 0.95122 0.00233 0.0
C2762 C 0.64412 0.9349 0.98758 0.0
N2763 N 0.62168 0.95017 0.98336 0.0
C2764 C 0.60425 0.93697 0.02638 0.0
C2765 C 0.62715 0.92149 0.03092 0.0
C2766 C 0.55849 0.96135 0.93609 0.0
C2767 C 0.60572 0.9759 0.83314 0.0
C2768 C 0.55826 0.981 0.86174 0.0
C2769 C 0.55827 0.96721 0.83729 0.0
C2770 C 0.58219 0.96466 0.82294 0.0
N2771 N 0.58142 0.99198 0.87161 0.0
C2772 C 0.60496 0.98954 0.85766 0.0
Co2773 Co 0.88509 0.03142 0.44822 0.0
Co2774 Co 0.92041 0.99029 0.40471 0.0
O2775 O 0.88908 0.01183 0.41458 0.0
C2776 C 0.88218 0.07397 0.40733 0.0
O2777 O 0.90285 0.06195 0.39623 0.0
C2778 C 0.875 0.95164 0.40238 0.0
O2779 O 0.86904 0.95913 0.42697 0.0
O2780 O 0.92136 0.97244 0.44069 0.0
O2781 O 0.8995 1.00021 0.46882 0.0
H2782 H 0.01188 0.94939 0.41744 0.0
H2783 H 0.83879 0.02731 0.41108 0.0
O2784 O 0.87125 0.06366 0.42812 0.0
H2785 H 0.80878 0.98469 0.49538 0.0
H2786 H 0.8381 0.09359 0.51281 0.0
H2787 H 0.91867 0.03808 0.49699 0.0
H2788 H 0.85422 0.00422 0.49176 0.0
H2789 H 0.843 0.06765 0.47081 0.0
O2790 O 0.89543 0.96169 0.39056 0.0
H2791 H 0.97287 0.97729 0.42993 0.0
H2792 H 0.93347 0.95624 0.35722 0.0
H2793 H 0.91454 0.06354 0.5393 0.0
H2794 H 0.79311 0.00816 0.41385 0.0
H2795 H 0.87402 0.09157 0.54742 0.0
H2796 H 0.77788 0.98662 0.45623 0.0
O2797 O 0.92196 0.04608 0.44541 0.0
H2798 H 0.87681 0.02543 0.32065 0.0
H2799 H 0.96197 0.01667 0.37056 0.0
H2800 H 0.96153 0.04041 0.32705 0.0
H2801 H 0.91873 0.04489 0.30178 0.0
H2802 H 0.87808 0.00215 0.36438 0.0
H2803 H 0.97199 0.92792 0.344 0.0
H2804 H 0.01158 0.92442 0.3742 0.0
O2805 O 0.94573 0.01859 0.41861 0.0
C2806 C 0.91335 0.97911 0.46416 0.0
C2807 C 0.99479 0.95082 0.40406 0.0
C2808 C 0.97237 0.93873 0.36288 0.0
N2809 N 0.951 0.96851 0.39425 0.0
C2810 C 0.97268 0.96667 0.41098 0.0
C2811 C 0.9506 0.95474 0.3705 0.0
C2812 C 0.99459 0.93679 0.37982 0.0
C2813 C 0.83219 0.01816 0.42964 0.0
N2814 N 0.84904 0.01701 0.45128 0.0
C2815 C 0.80636 0.00727 0.43107 0.0
C2816 C 0.79784 0.99515 0.45485 0.0
C2817 C 0.81518 0.99405 0.47682 0.0
C2818 C 0.84088 0.0051 0.47464 0.0
C2819 C 0.85581 0.08139 0.50954 0.0
C2820 C 0.90087 0.05004 0.50047 0.0
C2821 C 0.8587 0.06668 0.48579 0.0
N2822 N 0.88096 0.05115 0.48158 0.0
C2823 C 0.89869 0.0645 0.52443 0.0
C2824 C 0.87597 0.08024 0.52895 0.0
C2825 C 0.94375 0.03916 0.43388 0.0
C2826 C 0.8956 0.02354 0.33143 0.0
C2827 C 0.94326 0.01855 0.35969 0.0
C2828 C 0.94315 0.03198 0.33505 0.0
C2829 C 0.91912 0.03447 0.32087 0.0
N2830 N 0.92011 0.00785 0.3699 0.0
C2831 C 0.89648 0.01025 0.35614 0.0
C2832 C 0.09936 0.16361 0.41424 0.0
C2833 C 0.11422 0.14659 0.43129 0.0
C2834 C 0.11218 0.1813 0.39636 0.0
C2835 C 0.14039 0.18311 0.39521 0.0
H2836 H 0.0776 0.16328 0.41466 0.0
H2837 H 0.09985 0.19411 0.38379 0.0
S2838 S 0.18864 0.14287 0.43549 0.0
N2839 N 0.1588 0.13242 0.44551 0.0
N2840 N 0.18282 0.16602 0.41245 0.0
C2841 C 0.15551 0.16615 0.41208 0.0
C2842 C 0.14246 0.1478 0.42993 0.0
C2843 C 0.09245 0.85206 0.66486 0.0
C2844 C 0.10942 0.86723 0.68169 0.0
C2845 C 0.0742 0.86454 0.64727 0.0
C2846 C 0.07178 0.89271 0.64618 0.0
H2847 H 0.09322 0.8303 0.66523 0.0
H2848 H 0.06147 0.85196 0.63488 0.0
S2849 S 0.11164 0.94174 0.68594 0.0
N2850 N 0.12284 0.9121 0.69574 0.0
N2851 N 0.08828 0.93545 0.66324 0.0
C2852 C 0.0887 0.90814 0.66282 0.0
C2853 C 0.10758 0.89545 0.68039 0.0
C2854 C 0.4038 0.83976 0.91689 0.0
C2855 C 0.38854 0.85676 0.93361 0.0
C2856 C 0.39142 0.82235 0.89846 0.0
C2857 C 0.36325 0.82085 0.89641 0.0
H2858 H 0.42555 0.83988 0.91801 0.0
H2859 H 0.40404 0.80951 0.8862 0.0
S2860 S 0.31406 0.86122 0.93547 0.0
N2861 N 0.34367 0.87127 0.94654 0.0
N2862 N 0.32042 0.83823 0.9124 0.0
C2863 C 0.34774 0.83784 0.9129 0.0
C2864 C 0.36036 0.85588 0.93134 0.0
C2865 C 0.39706 0.1126 0.18144 0.0
C2866 C 0.39604 0.14083 0.18296 0.0
C2867 C 0.41496 0.09952 0.16398 0.0
C2868 C 0.4322 0.11412 0.14693 0.0
H2869 H 0.38434 0.10045 0.19427 0.0
H2870 H 0.41525 0.07775 0.16385 0.0
S2871 S 0.43689 0.18848 0.14256 0.0
N2872 N 0.41364 0.18301 0.1656 0.0
N2873 N 0.4468 0.15848 0.13245 0.0
C2874 C 0.43101 0.14238 0.14787 0.0
C2875 C 0.4131 0.1557 0.16597 0.0
C2876 C 0.11373 0.81461 0.10097 0.0
C2877 C 0.14183 0.81113 0.10099 0.0
C2878 C 0.10106 0.8314 0.08217 0.0
C2879 C 0.11601 0.84572 0.06288 0.0
H2880 H 0.10135 0.80423 0.11557 0.0
H2881 H 0.07944 0.83367 0.08322 0.0
S2882 S 0.19001 0.84306 0.0537 0.0
N2883 N 0.18413 0.82289 0.07937 0.0
N2884 N 0.16037 0.85468 0.04443 0.0
C2885 C 0.14407 0.84221 0.06246 0.0
C2886 C 0.15695 0.82486 0.08138 0.0
C2887 C 0.41443 0.90222 0.34097 0.0
C2888 C 0.43166 0.88704 0.35751 0.0
C2889 C 0.39608 0.88974 0.32353 0.0
C2890 C 0.39461 0.86157 0.32155 0.0
H2891 H 0.4151 0.92397 0.34144 0.0
H2892 H 0.38343 0.9023 0.31104 0.0
S2893 S 0.43509 0.81255 0.36067 0.0
N2894 N 0.44565 0.8422 0.37111 0.0
N2895 N 0.41166 0.81881 0.33803 0.0
C2896 C 0.4116 0.84613 0.3381 0.0
C2897 C 0.42995 0.85883 0.35617 0.0
C2898 C 0.39117 0.18124 0.6022 0.0
C2899 C 0.36295 0.18335 0.60291 0.0
C2900 C 0.40409 0.16307 0.58487 0.0
C2901 C 0.38933 0.14587 0.56792 0.0
H2902 H 0.40344 0.19402 0.61485 0.0
H2903 H 0.42585 0.16242 0.58489 0.0
S2904 S 0.31492 0.14306 0.5624 0.0
N2905 N 0.32063 0.16652 0.58514 0.0
N2906 N 0.34481 0.13209 0.55309 0.0
C2907 C 0.36108 0.14754 0.56867 0.0
C2908 C 0.34794 0.16635 0.58599 0.0
C2909 C 0.10317 0.1105 0.81915 0.0
C2910 C 0.10377 0.13873 0.8173 0.0
C2911 C 0.08477 0.09733 0.83604 0.0
C2912 C 0.06659 0.11185 0.85215 0.0
H2913 H 0.11666 0.09841 0.80705 0.0
H2914 H 0.08494 0.07556 0.83655 0.0
S2915 S 0.0603 0.18618 0.85516 0.0
N2916 N 0.08461 0.18081 0.83324 0.0
N2917 N 0.05052 0.15614 0.86527 0.0
C2918 C 0.06725 0.14011 0.85078 0.0
C2919 C 0.08568 0.15351 0.83329 0.0
C2920 C 0.18092 0.39698 0.11065 0.0
C2921 C 0.18166 0.3953 0.13887 0.0
C2922 C 0.16277 0.41413 0.09751 0.0
C2923 C 0.14425 0.42984 0.11205 0.0
H2924 H 0.19488 0.38541 0.09858 0.0
H2925 H 0.1633 0.41507 0.07577 0.0
S2926 S 0.1373 0.43197 0.18636 0.0
N2927 N 0.16199 0.41047 0.18096 0.0
N2928 N 0.12747 0.4421 0.15635 0.0
C2929 C 0.14439 0.42787 0.14029 0.0
C2930 C 0.16321 0.4108 0.15367 0.0
C2931 C 0.67848 0.10306 0.88958 0.0
C2932 C 0.67973 0.104 0.86133 0.0
C2933 C 0.66113 0.0852 0.90287 0.0
C2934 C 0.64394 0.06794 0.88847 0.0
H2935 H 0.69144 0.11578 0.90158 0.0
H2936 H 0.66121 0.08496 0.92464 0.0
S2937 S 0.63883 0.06314 0.81416 0.0
N2938 N 0.66194 0.08635 0.81937 0.0
N2939 N 0.62901 0.05329 0.84427 0.0
C2940 C 0.6446 0.06907 0.8602 0.0
C2941 C 0.66258 0.08694 0.84667 0.0
C2942 C 0.82282 0.89698 0.38989 0.0
C2943 C 0.82118 0.89582 0.36167 0.0
C2944 C 0.84031 0.91498 0.40284 0.0
C2945 C 0.85731 0.93219 0.38811 0.0
H2946 H 0.81003 0.88431 0.40215 0.0
H2947 H 0.84051 0.91538 0.4246 0.0
S2948 S 0.86143 0.93646 0.3137 0.0
N2949 N 0.83843 0.91324 0.31937 0.0
N2950 N 0.87163 0.94653 0.34361 0.0
C2951 C 0.85627 0.93083 0.35986 0.0
C2952 C 0.83813 0.91283 0.34668 0.0
C2953 C 0.83959 0.08534 0.09872 0.0
C2954 C 0.85653 0.06827 0.11364 0.0
C2955 C 0.82204 0.1034 0.11147 0.0
C2956 C 0.8203 0.10475 0.13968 0.0
H2957 H 0.83996 0.08485 0.07695 0.0
H2958 H 0.80934 0.11602 0.09908 0.0
S2959 S 0.86021 0.06431 0.18808 0.0
N2960 N 0.87057 0.05409 0.15827 0.0
N2961 N 0.83725 0.08752 0.18218 0.0
C2962 C 0.83711 0.08779 0.15486 0.0
C2963 C 0.85531 0.06972 0.14187 0.0
C2964 C 0.33701 0.58836 0.65285 0.0
C2965 C 0.31936 0.60476 0.638 0.0
C2966 C 0.35532 0.57108 0.64003 0.0
C2967 C 0.35639 0.56912 0.61183 0.0
H2968 H 0.33685 0.58896 0.67461 0.0
H2969 H 0.36839 0.55881 0.65239 0.0
S2970 S 0.31433 0.60759 0.56361 0.0
N2971 N 0.30425 0.61798 0.59345 0.0
N2972 N 0.33817 0.58525 0.56941 0.0
C2973 C 0.3388 0.58538 0.59672 0.0
C2974 C 0.32045 0.60326 0.60977 0.0
C2975 C 0.18056 0.60476 0.39261 0.0
C2976 C 0.18273 0.6068 0.36449 0.0
C2977 C 0.16249 0.5867 0.4046 0.0
C2978 C 0.14548 0.57033 0.38897 0.0
H2979 H 0.19337 0.61674 0.40551 0.0
H2980 H 0.16189 0.58556 0.42633 0.0
S2981 S 0.14259 0.56866 0.31443 0.0
N2982 N 0.16591 0.59122 0.3213 0.0
N2983 N 0.13167 0.55777 0.3438 0.0
C2984 C 0.14702 0.57262 0.36083 0.0
C2985 C 0.16572 0.59069 0.34861 0.0
C2986 C 0.33643 0.41494 0.90308 0.0
C2987 C 0.35401 0.43156 0.88839 0.0
C2988 C 0.31898 0.3969 0.89015 0.0
C2989 C 0.31798 0.39506 0.86192 0.0
H2990 H 0.33614 0.41579 0.92483 0.0
H2991 H 0.30578 0.38468 0.90242 0.0
S2992 S 0.35981 0.43416 0.81402 0.0
N2993 N 0.36947 0.44476 0.84392 0.0
N2994 N 0.33638 0.41136 0.81965 0.0
C2995 C 0.33547 0.41155 0.84695 0.0
C2996 C 0.35355 0.42962 0.86015 0.0
C2997 C 0.63947 0.6497 0.93282 0.0
C2998 C 0.61125 0.64911 0.93503 0.0
C2999 C 0.65243 0.66714 0.91479 0.0
C3000 C 0.63772 0.68435 0.89782 0.0
H3001 H 0.65173 0.63683 0.9454 0.0
H3002 H 0.67419 0.66697 0.91405 0.0
S3003 S 0.56332 0.69038 0.8954 0.0
N3004 N 0.56898 0.66734 0.91858 0.0
N3005 N 0.59322 0.69962 0.88442 0.0
C3006 C 0.60946 0.68376 0.89962 0.0
C3007 C 0.59628 0.66632 0.91829 0.0
C3008 C 0.60436 0.38801 0.17859 0.0
C3009 C 0.60508 0.35982 0.18099 0.0
C3010 C 0.58646 0.40078 0.16084 0.0
C3011 C 0.56887 0.3859 0.14438 0.0
H3012 H 0.61731 0.4004 0.19094 0.0
H3013 H 0.58643 0.42254 0.16007 0.0
S3014 S 0.56333 0.31147 0.14236 0.0
N3015 N 0.58682 0.31737 0.16501 0.0
N3016 N 0.55368 0.34126 0.13144 0.0
C3017 C 0.56977 0.35766 0.14621 0.0
C3018 C 0.58769 0.34468 0.16456 0.0
C3019 C 0.86189 0.35479 0.42958 0.0
C3020 C 0.89012 0.35593 0.431 0.0
C3021 C 0.84884 0.33687 0.41211 0.0
C3022 C 0.8635 0.31977 0.39496 0.0
H3023 H 0.84971 0.36739 0.44253 0.0
H3024 H 0.82707 0.33646 0.41205 0.0
S3025 S 0.93788 0.31551 0.39029 0.0
N3026 N 0.93234 0.33863 0.41342 0.0
N3027 N 0.90791 0.30548 0.38026 0.0
C3028 C 0.89175 0.32111 0.39579 0.0
C3029 C 0.90503 0.33902 0.4139 0.0
C3030 C 0.9151 0.65163 0.66628 0.0
C3031 C 0.8991 0.63701 0.68447 0.0
C3032 C 0.93212 0.63856 0.64792 0.0
C3033 C 0.93422 0.61035 0.64736 0.0
H3034 H 0.91436 0.67338 0.66603 0.0
H3035 H 0.94406 0.65075 0.63439 0.0
S3036 S 0.89688 0.56271 0.69106 0.0
N3037 N 0.88645 0.59269 0.70072 0.0
N3038 N 0.91874 0.56819 0.6667 0.0
C3039 C 0.91841 0.59548 0.66553 0.0
C3040 C 0.90077 0.60877 0.68392 0.0
C3041 C 0.59865 0.33858 0.58607 0.0
C3042 C 0.61373 0.35548 0.56912 0.0
C3043 C 0.61123 0.32101 0.60419 0.0
C3044 C 0.63943 0.31924 0.60577 0.0
H3045 H 0.57689 0.33889 0.58538 0.0
H3046 H 0.59868 0.3083 0.61665 0.0
S3047 S 0.6882 0.35915 0.56576 0.0
N3048 N 0.65848 0.36953 0.55531 0.0
N3049 N 0.68209 0.3362 0.58892 0.0
C3050 C 0.65478 0.33609 0.58899 0.0
C3051 C 0.64195 0.3543 0.57082 0.0
C3052 C 0.89787 0.38796 0.82011 0.0
C3053 C 0.89774 0.35976 0.81789 0.0
C3054 C 0.91492 0.40113 0.83827 0.0
C3055 C 0.93225 0.38667 0.85535 0.0
H3056 H 0.88501 0.40007 0.8074 0.0
H3057 H 0.9145 0.42289 0.83888 0.0
S3058 S 0.93918 0.31241 0.85806 0.0
N3059 N 0.91629 0.31772 0.83463 0.0
N3060 N 0.94793 0.34245 0.86909 0.0
C3061 C 0.932 0.35842 0.8537 0.0
C3062 C 0.91491 0.345 0.83488 0.0
C3063 C 0.84943 0.66461 0.08928 0.0
C3064 C 0.86458 0.68141 0.1063 0.0
C3065 C 0.86193 0.64646 0.07162 0.0
C3066 C 0.89012 0.64476 0.06987 0.0
H3067 H 0.82767 0.66545 0.08958 0.0
H3068 H 0.84938 0.63414 0.05879 0.0
S3069 S 0.93906 0.68416 0.11016 0.0
N3070 N 0.9094 0.69478 0.12053 0.0
N3071 N 0.93284 0.66119 0.08705 0.0
C3072 C 0.90552 0.66134 0.08686 0.0
C3073 C 0.89278 0.6795 0.10515 0.0
C3074 C 0.58795 0.59882 0.33764 0.0
C3075 C 0.57073 0.61332 0.3548 0.0
C3076 C 0.60582 0.61202 0.32022 0.0
C3077 C 0.60679 0.64027 0.31886 0.0
H3078 H 0.58771 0.57705 0.33769 0.0
H3079 H 0.61855 0.59996 0.30731 0.0
S3080 S 0.56592 0.68767 0.35954 0.0
N3081 N 0.55608 0.65761 0.36951 0.0
N3082 N 0.58913 0.68233 0.33643 0.0
C3083 C 0.58971 0.65502 0.33592 0.0
C3084 C 0.57185 0.64159 0.35398 0.0
C3085 C 0.68266 0.89591 0.61072 0.0
C3086 C 0.68425 0.89476 0.63895 0.0
C3087 C 0.66557 0.91424 0.59779 0.0
C3088 C 0.64901 0.93182 0.61255 0.0
H3089 H 0.69511 0.8829 0.59846 0.0
H3090 H 0.66526 0.91453 0.57602 0.0
S3091 S 0.6452 0.93655 0.68694 0.0
N3092 N 0.6676 0.91273 0.68128 0.0
N3093 N 0.63518 0.94675 0.65702 0.0
C3094 C 0.65011 0.93061 0.6408 0.0
C3095 C 0.6678 0.91223 0.65396 0.0
C3096 C 0.19772 0.30628 0.23457 0.0
C3097 C 0.21193 0.33073 0.23641 0.0
C3098 C 0.18731 0.2936 0.25756 0.0
C3099 C 0.19068 0.3049 0.28327 0.0
H3100 H 0.19594 0.29597 0.2155 0.0
H3101 H 0.17788 0.27413 0.25525 0.0
S3102 S 0.22123 0.37134 0.29838 0.0
N3103 N 0.22506 0.36762 0.26567 0.0
N3104 N 0.20553 0.34401 0.30864 0.0
C3105 C 0.20273 0.33046 0.28507 0.0
C3106 C 0.21332 0.3433 0.26173 0.0
C3107 C 0.91528 0.97177 0.51386 0.0
C3108 C 0.92303 0.96355 0.4879 0.0
C3109 C 0.92785 0.96161 0.53683 0.0
C3110 C 0.94884 0.94266 0.53509 0.0
H3111 H 0.90015 0.98718 0.51661 0.0
H3112 H 0.92166 0.96965 0.5561 0.0
S3113 S 0.97368 0.91087 0.4722 0.0
N3114 N 0.95072 0.93254 0.46201 0.0
N3115 N 0.97442 0.91347 0.50525 0.0
C3116 C 0.95537 0.9326 0.50941 0.0
C3117 C 0.94246 0.94299 0.48586 0.0
C3118 C 0.29427 0.67817 0.78669 0.0
C3119 C 0.31357 0.69879 0.78486 0.0
C3120 C 0.28369 0.66596 0.76377 0.0
C3121 C 0.2919 0.67365 0.73781 0.0
H3122 H 0.28617 0.6721 0.80596 0.0
H3123 H 0.26792 0.65123 0.76658 0.0
S3124 S 0.34568 0.72296 0.72191 0.0
N3125 N 0.34322 0.72377 0.75498 0.0
N3126 N 0.32349 0.70047 0.71179 0.0
C3127 C 0.31297 0.69247 0.73567 0.0
C3128 C 0.32372 0.70513 0.75917 0.0
C3129 C 0.5866 0.02931 0.01508 0.0
C3130 C 0.57895 0.03745 0.98907 0.0
C3131 C 0.57394 0.03956 0.03797 0.0
C3132 C 0.55302 0.05853 0.03607 0.0
H3133 H 0.6017 0.01389 0.01794 0.0
H3134 H 0.58004 0.0316 0.0573 0.0
S3135 S 0.52845 0.09011 0.97298 0.0
N3136 N 0.55143 0.06839 0.96296 0.0
N3137 N 0.52757 0.08763 0.00604 0.0
C3138 C 0.54658 0.0685 0.01033 0.0
C3139 C 0.55956 0.05801 0.98688 0.0
C3140 C 0.20637 0.67519 0.2215 0.0
C3141 C 0.19106 0.69897 0.22282 0.0
C3142 C 0.21663 0.66309 0.24462 0.0
C3143 C 0.21213 0.67414 0.27026 0.0
H3144 H 0.21155 0.66631 0.2023 0.0
H3145 H 0.22933 0.64559 0.24208 0.0
S3146 S 0.16911 0.73334 0.28533 0.0
N3147 N 0.16869 0.73101 0.25225 0.0
N3148 N 0.18799 0.70819 0.29588 0.0
C3149 C 0.19479 0.69649 0.27217 0.0
C3150 C 0.18427 0.70892 0.24843 0.0
C3151 C 0.55777 0.9447 0.51558 0.0
C3152 C 0.58197 0.95925 0.51337 0.0
C3153 C 0.54465 0.9346 0.49273 0.0
C3154 C 0.55527 0.93862 0.46681 0.0
H3155 H 0.54794 0.94249 0.53485 0.0
H3156 H 0.52534 0.92492 0.49535 0.0
S3157 S 0.62092 0.97027 0.45063 0.0
N3158 N 0.61797 0.97338 0.4835 0.0
N3159 N 0.59354 0.95443 0.44074 0.0
C3160 C 0.58062 0.95099 0.46459 0.0
C3161 C 0.59391 0.96127 0.4878 0.0
C3162 C 0.3117 0.32574 0.72514 0.0
C3163 C 0.31 0.29779 0.72109 0.0
C3164 C 0.30065 0.33778 0.74824 0.0
C3165 C 0.28765 0.32217 0.76789 0.0
H3166 H 0.32104 0.33838 0.71007 0.0
H3167 H 0.30166 0.35942 0.75043 0.0
S3168 S 0.27387 0.24904 0.76428 0.0
N3169 N 0.29183 0.25551 0.73716 0.0
N3170 N 0.2712 0.27798 0.78026 0.0
C3171 C 0.28552 0.29435 0.76377 0.0
C3172 C 0.29669 0.28217 0.74042 0.0
C3173 C 0.9473 0.0533 0.01532 0.0
C3174 C 0.92222 0.0402 0.01475 0.0
C3175 C 0.95879 0.06393 0.99183 0.0
C3176 C 0.94553 0.06201 0.9669 0.0
H3177 H 0.959 0.0539 0.03363 0.0
H3178 H 0.97885 0.0723 0.99305 0.0
S3179 S 0.87676 0.03501 0.95589 0.0
N3180 N 0.88273 0.02977 0.98807 0.0
N3181 N 0.90392 0.04991 0.94409 0.0
C3182 C 0.91932 0.05125 0.96663 0.0
C3183 C 0.90778 0.04029 0.99048 0.0
C3184 C 0.25875 0.18761 0.29361 0.0
C3185 C 0.28438 0.19123 0.30503 0.0
C3186 C 0.23567 0.19829 0.30587 0.0
C3187 C 0.23733 0.21306 0.33 0.0
H3188 H 0.25657 0.17778 0.27432 0.0
H3189 H 0.21669 0.19628 0.29545 0.0
S3190 S 0.29893 0.2233 0.37088 0.0
N3191 N 0.30942 0.20695 0.34402 0.0
N3192 N 0.26625 0.22704 0.36681 0.0
C3193 C 0.26252 0.21473 0.34274 0.0
C3194 C 0.28597 0.20383 0.33034 0.0
C3195 C 0.05462 0.98645 0.55462 0.0
C3196 C 0.04114 0.98844 0.57946 0.0
C3197 C 0.06479 0.00934 0.54161 0.0
C3198 C 0.06188 0.03508 0.55298 0.0
H3199 H 0.05597 0.96735 0.54429 0.0
H3200 H 0.07365 0.00695 0.52187 0.0
S3201 S 0.03345 0.05048 0.62028 0.0
N3202 N 0.02931 0.01778 0.61672 0.0
N3203 N 0.04836 0.06062 0.59246 0.0
C3204 C 0.05059 0.03701 0.57886 0.0
C3205 C 0.04026 0.01376 0.59204 0.0
C3206 C 0.21967 0.7986 0.82531 0.0
C3207 C 0.22202 0.81626 0.80328 0.0
C3208 C 0.24224 0.78714 0.83743 0.0
C3209 C 0.26839 0.79273 0.8282 0.0
H3210 H 0.20011 0.79251 0.83269 0.0
H3211 H 0.23891 0.77278 0.85344 0.0
S3212 S 0.28608 0.84134 0.77429 0.0
N3213 N 0.25292 0.8416 0.77509 0.0
N3214 N 0.29548 0.82002 0.79789 0.0
C3215 C 0.27126 0.8121 0.80769 0.0
C3216 C 0.24809 0.82385 0.79525 0.0
C3217 C 0.44629 0.01645 0.0574 0.0
C3218 C 0.46022 0.01465 0.082 0.0
C3219 C 0.4361 0.99344 0.04465 0.0
C3220 C 0.43945 0.96774 0.05601 0.0
H3221 H 0.44463 0.0355 0.04704 0.0
H3222 H 0.42689 0.99571 0.02507 0.0
S3223 S 0.46913 0.95278 0.12283 0.0
N3224 N 0.4729 0.9855 0.11913 0.0
N3225 N 0.45383 0.94243 0.09532 0.0
C3226 C 0.45114 0.96599 0.08171 0.0
C3227 C 0.46148 0.98937 0.09465 0.0
C3228 C 0.25701 0.81462 0.21106 0.0
C3229 C 0.28273 0.81245 0.19948 0.0
C3230 C 0.23435 0.80363 0.19831 0.0
C3231 C 0.23659 0.79001 0.17356 0.0
H3232 H 0.25453 0.82339 0.23083 0.0
H3233 H 0.21532 0.80433 0.20882 0.0
S3234 S 0.29833 0.78444 0.13205 0.0
N3235 N 0.30827 0.79978 0.1597 0.0
N3236 N 0.26583 0.77915 0.13599 0.0
C3237 C 0.26174 0.79004 0.16068 0.0
C3238 C 0.28475 0.80124 0.17356 0.0
C3239 C 0.4483 0.98315 0.4479 0.0
C3240 C 0.46114 0.98454 0.42269 0.0
C3241 C 0.43752 0.0062 0.46011 0.0
C3242 C 0.43921 0.0315 0.44757 0.0
H3243 H 0.44801 0.96451 0.4591 0.0
H3244 H 0.42935 0.0044 0.4802 0.0
S3245 S 0.46544 0.04487 0.37899 0.0
N3246 N 0.47091 0.01254 0.38388 0.0
N3247 N 0.4508 0.05572 0.40669 0.0
C3248 C 0.44976 0.03267 0.42135 0.0
C3249 C 0.4607 0.00925 0.40896 0.0
C3250 C 0.2161 0.20908 0.67694 0.0
C3251 C 0.21782 0.19055 0.69826 0.0
C3252 C 0.23909 0.21914 0.6644 0.0
C3253 C 0.26504 0.21121 0.67248 0.0
H3254 H 0.19685 0.2169 0.67045 0.0
H3255 H 0.23635 0.2343 0.64904 0.0
S3256 S 0.28068 0.1595 0.72401 0.0
N3257 N 0.24761 0.16198 0.72457 0.0
N3258 N 0.29091 0.18075 0.70068 0.0
C3259 C 0.26707 0.19094 0.69215 0.0
C3260 C 0.24349 0.18071 0.70513 0.0
C3261 C 0.07447 0.00148 0.95508 0.0
C3262 C 0.06268 0.9797 0.96903 0.0
C3263 C 0.06059 0.01854 0.93658 0.0
C3264 C 0.0344 0.01373 0.92607 0.0
H3265 H 0.09564 0.0054 0.95833 0.0
H3266 H 0.07147 0.03603 0.9295 0.0
S3267 S 0.97897 0.94504 0.95269 0.0
N3268 N 0.01612 0.94973 0.97611 0.0
N3269 N 0.99168 0.97732 0.92604 0.0
C3270 C 0.02167 0.9907 0.93498 0.0
C3271 C 0.03607 0.97445 0.96384 0.0
C3272 C 0.32518 0.287 0.20981 0.0
C3273 C 0.30394 0.28511 0.19122 0.0
C3274 C 0.33751 0.26409 0.22031 0.0
C3275 C 0.3292 0.23808 0.21282 0.0
H3276 H 0.33175 0.30635 0.21732 0.0
H3277 H 0.35287 0.26697 0.23545 0.0
S3278 S 0.27781 0.22192 0.16112 0.0
N3279 N 0.27761 0.25503 0.16295 0.0
N3280 N 0.30082 0.21187 0.18278 0.0
C3281 C 0.30955 0.23583 0.19255 0.0
C3282 C 0.29692 0.25932 0.18177 0.0
C3283 C 0.8222 0.2136 0.79012 0.0
C3284 C 0.80109 0.21552 0.80887 0.0
C3285 C 0.83503 0.23646 0.78013 0.0
C3286 C 0.82749 0.26246 0.78839 0.0
H3287 H 0.8283 0.19431 0.78206 0.0
H3288 H 0.85022 0.23359 0.7648 0.0
S3289 S 0.77663 0.27853 0.84067 0.0
N3290 N 0.77549 0.2455 0.8379 0.0
N3291 N 0.79996 0.28854 0.81932 0.0
C3292 C 0.808 0.26465 0.80884 0.0
C3293 C 0.7947 0.24122 0.81897 0.0
C3294 C 0.98366 0.55165 0.05301 0.0
C3295 C 0.9851 0.57744 0.04147 0.0
C3296 C 0.00654 0.53919 0.06378 0.0
C3297 C 0.03174 0.55208 0.06347 0.0
H3298 H 0.96515 0.54025 0.05225 0.0
H3299 H 0.00466 0.51873 0.07096 0.0
S3300 S 0.04484 0.6221 0.04112 0.0
N3301 N 0.01276 0.61706 0.03445 0.0
N3302 N 0.05569 0.59385 0.05466 0.0
C3303 C 0.03286 0.57883 0.05427 0.0
C3304 C 0.00958 0.59144 0.04327 0.0
C3305 C 0.69679 0.73586 0.30422 0.0
C3306 C 0.67268 0.73793 0.28945 0.0
C3307 C 0.7096 0.75874 0.31469 0.0
C3308 C 0.69879 0.7846 0.31083 0.0
H3309 H 0.70675 0.71664 0.30643 0.0
H3310 H 0.72883 0.75622 0.32456 0.0
S3311 S 0.63333 0.80046 0.27857 0.0
N3312 N 0.6366 0.76765 0.27516 0.0
N3313 N 0.66044 0.81043 0.29483 0.0
C3314 C 0.67354 0.78667 0.29818 0.0
C3315 C 0.66057 0.76343 0.28752 0.0
C3316 C 0.0204 0.95241 0.05248 0.0
C3317 C 0.02029 0.92637 0.04156 0.0
C3318 C 0.99684 0.96412 0.06257 0.0
C3319 C 0.97216 0.95034 0.06168 0.0
H3320 H 0.0383 0.96458 0.05167 0.0
H3321 H 0.99774 0.98469 0.06956 0.0
S3322 S 0.96227 0.8798 0.03953 0.0
N3323 N 0.99446 0.88577 0.03402 0.0
N3324 N 0.94986 0.90784 0.05222 0.0
C3325 C 0.9722 0.92357 0.05251 0.0
C3326 C 0.99631 0.9116 0.04256 0.0
C3327 C 0.17766 0.72821 0.68955 0.0
C3328 C 0.20538 0.72343 0.6927 0.0
C3329 C 0.1656 0.75151 0.70018 0.0
C3330 C 0.18096 0.77056 0.71429 0.0
H3331 H 0.1652 0.71361 0.67926 0.0
H3332 H 0.14414 0.75439 0.69786 0.0
S3333 S 0.25312 0.76484 0.73207 0.0
N3334 N 0.24703 0.73818 0.7133 0.0
N3335 N 0.22443 0.78144 0.73354 0.0
C3336 C 0.20848 0.76558 0.71807 0.0
C3337 C 0.2207 0.74212 0.70717 0.0
C3338 C 0.98494 0.4467 0.44635 0.0
C3339 C 0.98699 0.42196 0.46002 0.0
C3340 C 0.00778 0.45964 0.43596 0.0
C3341 C 0.03354 0.44831 0.43883 0.0
H3342 H 0.96582 0.45701 0.44503 0.0
H3343 H 0.00535 0.47932 0.427 0.0
S3344 S 0.04912 0.38126 0.46769 0.0
N3345 N 0.01645 0.38482 0.47198 0.0
N3346 N 0.05916 0.40895 0.45249 0.0
C3347 C 0.03552 0.42251 0.45027 0.0
C3348 C 0.01233 0.40939 0.46084 0.0
C3349 C 0.46447 0.57333 0.96184 0.0
C3350 C 0.46618 0.55231 0.94294 0.0
C3351 C 0.48747 0.58588 0.97194 0.0
C3352 C 0.51343 0.57817 0.96365 0.0
H3353 H 0.44523 0.57957 0.96989 0.0
H3354 H 0.48474 0.60101 0.98735 0.0
S3355 S 0.52905 0.5273 0.91124 0.0
N3356 N 0.49601 0.52648 0.91397 0.0
N3357 N 0.53925 0.55048 0.93266 0.0
C3358 C 0.51543 0.55873 0.94314 0.0
C3359 C 0.49187 0.54568 0.93293 0.0
C3360 C 0.70716 0.82525 0.78415 0.0
C3361 C 0.68971 0.80302 0.7825 0.0
C3362 C 0.7182 0.83694 0.76116 0.0
C3363 C 0.71237 0.82706 0.73531 0.0
H3364 H 0.71344 0.83311 0.80346 0.0
H3365 H 0.73245 0.85316 0.76395 0.0
S3366 S 0.66409 0.77233 0.71945 0.0
N3367 N 0.66422 0.7739 0.75258 0.0
N3368 N 0.68506 0.79591 0.70924 0.0
C3369 C 0.69316 0.80634 0.73314 0.0
C3370 C 0.68182 0.79434 0.75672 0.0
C3371 C 0.45551 0.43397 0.00881 0.0
C3372 C 0.44547 0.43882 0.0348 0.0
C3373 C 0.44274 0.44468 0.986 0.0
C3374 C 0.41943 0.46068 0.98831 0.0
H3375 H 0.47416 0.42312 0.00607 0.0
H3376 H 0.45216 0.44165 0.96663 0.0
S3377 S 0.38206 0.47459 0.05149 0.0
N3378 N 0.4085 0.45709 0.06113 0.0
N3379 N 0.3848 0.47732 0.01858 0.0
C3380 C 0.40799 0.46365 0.01403 0.0
C3381 C 0.42091 0.45271 0.03716 0.0
C3382 C 0.79233 0.1769 0.28516 0.0
C3383 C 0.81059 0.19844 0.28343 0.0
C3384 C 0.78225 0.1644 0.26216 0.0
C3385 C 0.78986 0.17282 0.23622 0.0
H3386 H 0.78475 0.17021 0.30444 0.0
H3387 H 0.76733 0.14879 0.26491 0.0
S3388 S 0.84084 0.22507 0.22051 0.0
N3389 N 0.83868 0.22526 0.2536 0.0
N3390 N 0.81969 0.20166 0.21028 0.0
C3391 C 0.80983 0.19279 0.23415 0.0
C3392 C 0.82015 0.20563 0.25773 0.0
C3393 C 0.04246 0.56474 0.50747 0.0
C3394 C 0.05475 0.56238 0.53284 0.0
C3395 C 0.05464 0.55413 0.48434 0.0
C3396 C 0.07954 0.54068 0.48568 0.0
H3397 H 0.02259 0.57344 0.50562 0.0
H3398 H 0.04361 0.55505 0.46561 0.0
S3399 S 0.12266 0.53434 0.54623 0.0
N3400 N 0.09524 0.54947 0.55712 0.0
N3401 N 0.11788 0.52949 0.51379 0.0
C3402 C 0.09307 0.54036 0.5105 0.0
C3403 C 0.08076 0.55122 0.534 0.0
C3404 C 0.70414 0.17368 0.71481 0.0
C3405 C 0.68608 0.1954 0.71686 0.0
C3406 C 0.71483 0.1613 0.73761 0.0
C3407 C 0.70808 0.17002 0.76367 0.0
H3408 H 0.71119 0.16683 0.69538 0.0
H3409 H 0.72962 0.14561 0.73457 0.0
S3410 S 0.6576 0.22253 0.78035 0.0
N3411 N 0.65877 0.22238 0.74721 0.0
N3412 N 0.67903 0.19919 0.79018 0.0
C3413 C 0.68817 0.19005 0.76613 0.0
C3414 C 0.67715 0.2027 0.74273 0.0
C3415 C 0.04733 0.43578 0.98793 0.0
C3416 C 0.05449 0.4457 0.96236 0.0
C3417 C 0.05943 0.44565 0.01146 0.0
C3418 C 0.07917 0.46594 0.01047 0.0
H3419 H 0.03153 0.42095 0.98998 0.0
H3420 H 0.05233 0.43811 0.0306 0.0
S3421 S 0.10765 0.49638 0.94839 0.0
N3422 N 0.08467 0.47517 0.93755 0.0
N3423 N 0.10708 0.49368 0.98137 0.0
C3424 C 0.08764 0.47483 0.98493 0.0
C3425 C 0.07541 0.46475 0.96104 0.0
C3426 C 0.80556 0.80427 0.26688 0.0
C3427 C 0.79222 0.82921 0.26513 0.0
C3428 C 0.81628 0.79175 0.24395 0.0
C3429 C 0.8141 0.80372 0.21841 0.0
H3430 H 0.80637 0.79351 0.28576 0.0
H3431 H 0.82494 0.7719 0.24611 0.0
S3432 S 0.78629 0.87149 0.20393 0.0
N3433 N 0.78127 0.86717 0.23641 0.0
N3434 N 0.8014 0.84388 0.19351 0.0
C3435 C 0.80298 0.82971 0.21683 0.0
C3436 C 0.79205 0.84237 0.24012 0.0
C3437 C 0.41548 0.53349 0.48955 0.0
C3438 C 0.42496 0.53988 0.51544 0.0
C3439 C 0.42777 0.54374 0.4665 0.0
C3440 C 0.45022 0.5609 0.46813 0.0
H3441 H 0.39912 0.51939 0.48684 0.0
H3442 H 0.42018 0.53707 0.44722 0.0
S3443 S 0.48003 0.58784 0.53109 0.0
N3444 N 0.45592 0.56752 0.54137 0.0
N3445 N 0.47918 0.58672 0.49796 0.0
C3446 C 0.45856 0.5693 0.49387 0.0
C3447 C 0.4459 0.55886 0.5175 0.0
C3448 C 0.75418 0.69987 0.83862 0.0
C3449 C 0.73485 0.71396 0.82358 0.0
C3450 C 0.77755 0.68973 0.82627 0.0
C3451 C 0.78213 0.69346 0.7986 0.0
H3452 H 0.75152 0.69728 0.86007 0.0
H3453 H 0.79234 0.67941 0.83845 0.0
S3454 S 0.73995 0.73295 0.75168 0.0
N3455 N 0.72349 0.73379 0.78048 0.0
N3456 N 0.76688 0.71441 0.75733 0.0
C3457 C 0.76316 0.70788 0.78359 0.0
C3458 C 0.73963 0.71826 0.7961 0.0
C3459 C 0.55118 0.502 0.08897 0.0
C3460 C 0.53885 0.48198 0.07327 0.0
C3461 C 0.56188 0.52527 0.07699 0.0
C3462 C 0.56047 0.5292 0.04901 0.0
H3463 H 0.55185 0.49997 0.11064 0.0
H3464 H 0.57065 0.54062 0.08972 0.0
S3465 S 0.52609 0.48498 0.99993 0.0
N3466 N 0.52342 0.46906 0.02888 0.0
N3467 N 0.54329 0.51253 0.00656 0.0
C3468 C 0.5479 0.50948 0.03329 0.0
C3469 C 0.53712 0.48591 0.0454 0.0
C3470 C 0.74269 0.31441 0.29266 0.0
C3471 C 0.71689 0.31003 0.30341 0.0
C3472 C 0.76577 0.30437 0.30549 0.0
C3473 C 0.76395 0.28951 0.32956 0.0
H3474 H 0.74506 0.32439 0.27346 0.0
H3475 H 0.78496 0.30697 0.29557 0.0
S3476 S 0.70155 0.27729 0.36876 0.0
N3477 N 0.69131 0.29341 0.34168 0.0
N3478 N 0.73443 0.27454 0.36554 0.0
C3479 C 0.73846 0.28704 0.34162 0.0
C3480 C 0.71503 0.29727 0.32862 0.0
C3481 C 0.9732 0.48708 0.58548 0.0
C3482 C 0.96444 0.51306 0.57841 0.0
C3483 C 0.96268 0.46418 0.57311 0.0
C3484 C 0.94285 0.46604 0.553 0.0
H3485 H 0.98924 0.48428 0.59992 0.0
H3486 H 0.97113 0.44492 0.57871 0.0
S3487 S 0.90963 0.52896 0.53022 0.0
N3488 N 0.93216 0.53904 0.55237 0.0
N3489 N 0.91243 0.49594 0.52898 0.0
C3490 C 0.93236 0.49171 0.54716 0.0
C3491 C 0.9431 0.51518 0.55989 0.0
C3492 C 0.77518 0.31125 0.67478 0.0
C3493 C 0.77971 0.30876 0.70258 0.0
C3494 C 0.7518 0.30067 0.6629 0.0
C3495 C 0.73236 0.2874 0.67854 0.0
H3496 H 0.79007 0.32084 0.66212 0.0
H3497 H 0.74924 0.30223 0.64134 0.0
S3498 S 0.73714 0.27167 0.75119 0.0
N3499 N 0.76428 0.28957 0.74468 0.0
N3500 N 0.72061 0.26987 0.72249 0.0
C3501 C 0.73693 0.2845 0.7062 0.0
C3502 C 0.76058 0.29516 0.71822 0.0
C3503 C 0.95867 0.53636 0.92536 0.0
C3504 C 0.94056 0.53388 0.947 0.0
C3505 C 0.969 0.51383 0.91215 0.0
C3506 C 0.96181 0.48757 0.91982 0.0
H3507 H 0.96595 0.5559 0.91911 0.0
H3508 H 0.98377 0.51722 0.89661 0.0
S3509 S 0.9113 0.46993 0.97206 0.0
N3510 N 0.91307 0.50302 0.97317 0.0
N3511 N 0.9324 0.46058 0.94822 0.0
C3512 C 0.94196 0.48477 0.93993 0.0
C3513 C 0.93139 0.50789 0.95352 0.0
C3514 C 0.71684 0.71174 0.17705 0.0
C3515 C 0.71847 0.69248 0.19774 0.0
C3516 C 0.73989 0.72188 0.16461 0.0
C3517 C 0.76577 0.71332 0.17223 0.0
H3518 H 0.69764 0.72002 0.171 0.0
H3519 H 0.73727 0.73753 0.14971 0.0
S3520 S 0.78109 0.65983 0.22207 0.0
N3521 N 0.74807 0.66272 0.22291 0.0
N3522 N 0.79143 0.6817 0.1994 0.0
C3523 C 0.76767 0.69248 0.19135 0.0
C3524 C 0.74406 0.68213 0.20413 0.0
C3525 C 0.53085 0.487 0.41379 0.0
C3526 C 0.53982 0.51288 0.42094 0.0
C3527 C 0.54078 0.464 0.42649 0.0
C3528 C 0.56024 0.46568 0.44697 0.0
H3529 H 0.51502 0.48435 0.39909 0.0
H3530 H 0.53217 0.44482 0.42083 0.0
S3531 S 0.59404 0.52822 0.46996 0.0
N3532 N 0.57208 0.53851 0.44735 0.0
N3533 N 0.59069 0.49526 0.47135 0.0
C3534 C 0.57102 0.49123 0.45284 0.0
C3535 C 0.56088 0.51478 0.43979 0.0
C3536 C 0.79498 0.75751 0.68514 0.0
C3537 C 0.80616 0.78327 0.68862 0.0
C3538 C 0.80763 0.73461 0.69572 0.0
C3539 C 0.83184 0.73663 0.71024 0.0
H3540 H 0.77558 0.75511 0.6756 0.0
H3541 H 0.7974 0.71551 0.69395 0.0
S3542 S 0.87229 0.79862 0.71962 0.0
N3543 N 0.8451 0.8088 0.70365 0.0
N3544 N 0.86859 0.76591 0.72353 0.0
C3545 C 0.84438 0.76192 0.7116 0.0
C3546 C 0.83162 0.78518 0.70081 0.0
C3547 C 0.32544 0.71643 0.29542 0.0
C3548 C 0.30487 0.71828 0.31482 0.0
C3549 C 0.33719 0.73935 0.28425 0.0
C3550 C 0.32899 0.76532 0.29189 0.0
H3551 H 0.33185 0.69709 0.28774 0.0
H3552 H 0.35198 0.73648 0.26853 0.0
S3553 S 0.27964 0.78144 0.34566 0.0
N3554 N 0.27958 0.74832 0.34403 0.0
N3555 N 0.30167 0.79151 0.32299 0.0
C3556 C 0.31014 0.76756 0.31297 0.0
C3557 C 0.2981 0.74405 0.32442 0.0
C3558 C 0.50397 0.08574 0.55379 0.0
C3559 C 0.4866 0.07151 0.53667 0.0
C3560 C 0.52746 0.07357 0.56378 0.0
C3561 C 0.53399 0.04697 0.5568 0.0
H3562 H 0.4997 0.10647 0.5589 0.0
H3563 H 0.54079 0.08508 0.57658 0.0
S3564 S 0.49668 0.00261 0.51015 0.0
N3565 N 0.4786 0.03041 0.51158 0.0
N3566 N 0.5224 0.00757 0.53051 0.0
C3567 C 0.51687 0.03276 0.53957 0.0
C3568 C 0.49321 0.04507 0.52941 0.0
C3569 C 0.20718 0.25694 0.81619 0.0
C3570 C 0.19573 0.28261 0.81308 0.0
C3571 C 0.19491 0.23406 0.80506 0.0
C3572 C 0.17073 0.23598 0.79038 0.0
H3573 H 0.22653 0.25463 0.82584 0.0
H3574 H 0.20536 0.21505 0.80663 0.0
S3575 S 0.12985 0.29782 0.78147 0.0
N3576 N 0.15675 0.30797 0.79795 0.0
N3577 N 0.13389 0.26521 0.77707 0.0
C3578 C 0.15798 0.26121 0.78925 0.0
C3579 C 0.17041 0.28443 0.80058 0.0
C3580 C 0.49471 0.45868 0.56524 0.0
C3581 C 0.46897 0.44723 0.56256 0.0
C3582 C 0.51753 0.44597 0.55447 0.0
C3583 C 0.5155 0.42133 0.54058 0.0
H3584 H 0.49711 0.47831 0.57431 0.0
H3585 H 0.5366 0.45638 0.55567 0.0
S3586 S 0.45353 0.38036 0.53313 0.0
N3587 N 0.44349 0.40782 0.54876 0.0
N3588 N 0.48614 0.38417 0.52855 0.0
C3589 C 0.49022 0.40864 0.53992 0.0
C3590 C 0.46706 0.4215 0.5509 0.0
C3591 C 0.69754 0.26574 0.19673 0.0
C3592 C 0.67248 0.26392 0.20982 0.0
C3593 C 0.71018 0.24285 0.18606 0.0
C3594 C 0.69819 0.2173 0.18805 0.0
H3595 H 0.70832 0.28462 0.19616 0.0
H3596 H 0.73013 0.24502 0.17765 0.0
S3597 S 0.63011 0.20271 0.21496 0.0
N3598 N 0.63436 0.23518 0.22014 0.0
N3599 N 0.65791 0.19233 0.20017 0.0
C3600 C 0.67208 0.21567 0.19884 0.0
C3601 C 0.65929 0.23892 0.2097 0.0
C3602 C 0.48517 0.94442 0.94915 0.0
C3603 C 0.48684 0.92073 0.9646 0.0
C3604 C 0.50827 0.95667 0.93857 0.0
C3605 C 0.53398 0.94568 0.94296 0.0
H3606 H 0.46608 0.95452 0.94645 0.0
H3607 H 0.506 0.97561 0.92811 0.0
S3608 S 0.5488 0.88104 0.97731 0.0
N3609 N 0.51601 0.88477 0.98028 0.0
N3610 N 0.55924 0.90752 0.96035 0.0
C3611 C 0.53567 0.92078 0.95634 0.0
C3612 C 0.51218 0.9084 0.96716 0.0
C3613 C 0.01702 0.05671 0.44662 0.0
C3614 C 0.01521 0.08103 0.46107 0.0
C3615 C 0.99399 0.04397 0.43642 0.0
C3616 C 0.96824 0.0551 0.44019 0.0
H3617 H 0.03613 0.04653 0.44449 0.0
H3618 H 0.99632 0.02459 0.42681 0.0
S3619 S 0.95315 0.12121 0.47156 0.0
N3620 N 0.98593 0.11763 0.47494 0.0
N3621 N 0.94285 0.09399 0.45571 0.0
C3622 C 0.96645 0.08057 0.45247 0.0
C3623 C 0.98985 0.09344 0.46291 0.0
C3624 C 0.15071 0.38993 0.40779 0.0
C3625 C 0.12814 0.40241 0.39614 0.0
C3626 C 0.15983 0.36482 0.39885 0.0
C3627 C 0.14676 0.35101 0.37789 0.0
H3628 H 0.16153 0.3996 0.42402 0.0
H3629 H 0.17739 0.35626 0.40846 0.0
S3630 S 0.08638 0.37463 0.34079 0.0
N3631 N 0.09273 0.39883 0.36256 0.0
N3632 N 0.10975 0.35167 0.34587 0.0
C3633 C 0.12406 0.36318 0.3661 0.0
C3634 C 0.11481 0.38883 0.37517 0.0
C3635 C 0.8899 0.87945 0.6193 0.0
C3636 C 0.90275 0.90119 0.63206 0.0
C3637 C 0.86474 0.87018 0.62793 0.0
C3638 C 0.85128 0.88221 0.64973 0.0
H3639 H 0.89926 0.86946 0.60237 0.0
H3640 H 0.85587 0.85332 0.6174 0.0
S3641 S 0.87618 0.93983 0.69023 0.0
N3642 N 0.90005 0.93444 0.66787 0.0
N3643 N 0.85278 0.91722 0.68389 0.0
C3644 C 0.86386 0.90401 0.66269 0.0
C3645 C 0.88956 0.91342 0.65394 0.0
C3646 C 0.37568 0.64058 0.87264 0.0
C3647 C 0.35209 0.65248 0.88285 0.0
C3648 C 0.3842 0.61511 0.88121 0.0
C3649 C 0.36953 0.60036 0.90039 0.0
H3650 H 0.38779 0.651 0.85785 0.0
H3651 H 0.40261 0.60708 0.87281 0.0
S3652 S 0.30584 0.62195 0.93294 0.0
N3653 N 0.31392 0.64716 0.91299 0.0
N3654 N 0.32978 0.59936 0.9289 0.0
C3655 C 0.34578 0.61189 0.91065 0.0
C3656 C 0.33713 0.6379 0.90197 0.0
C3657 C 0.63828 0.13154 0.12772 0.0
C3658 C 0.65221 0.11868 0.14871 0.0
C3659 C 0.61287 0.12265 0.11941 0.0
C3660 C 0.60027 0.10051 0.13174 0.0
H3661 H 0.64692 0.1488 0.11765 0.0
H3662 H 0.60308 0.1333 0.10314 0.0
S3663 S 0.62833 0.05948 0.1875 0.0
N3664 N 0.65158 0.0823 0.18142 0.0
N3665 N 0.60386 0.06584 0.16608 0.0
C3666 C 0.614 0.08742 0.15275 0.0
C3667 C 0.63993 0.0964 0.16113 0.0
C3668 C 0.12766 0.63731 0.13742 0.0
C3669 C 0.15283 0.64689 0.12865 0.0
C3670 C 0.11765 0.61241 0.12878 0.0
C3671 C 0.13238 0.59607 0.11101 0.0
H3672 H 0.11533 0.64928 0.1508 0.0
H3673 H 0.09792 0.60628 0.13564 0.0
S3674 S 0.20041 0.61071 0.08385 0.0
N3675 N 0.19292 0.6372 0.10233 0.0
N3676 N 0.17427 0.59049 0.08631 0.0
C3677 C 0.15793 0.60502 0.10272 0.0
C3678 C 0.16809 0.63039 0.11144 0.0
C3679 C 0.6391 0.86786 0.37265 0.0
C3680 C 0.65262 0.88104 0.35156 0.0
C3681 C 0.61376 0.87649 0.38151 0.0
C3682 C 0.60078 0.89869 0.3697 0.0
H3683 H 0.64805 0.85059 0.38241 0.0
H3684 H 0.60435 0.86562 0.39786 0.0
S3685 S 0.6276 0.94045 0.31384 0.0
N3686 N 0.65112 0.91772 0.31924 0.0
N3687 N 0.60355 0.93371 0.33564 0.0
C3688 C 0.61407 0.91207 0.34855 0.0
C3689 C 0.63993 0.90333 0.33959 0.0
C3690 C 0.38188 0.38991 0.62559 0.0
C3691 C 0.37073 0.40197 0.60255 0.0
C3692 C 0.3729 0.36486 0.63482 0.0
C3693 C 0.35234 0.35077 0.62145 0.0
H3694 H 0.39776 0.39984 0.63668 0.0
H3695 H 0.38209 0.35663 0.65275 0.0
S3696 S 0.31674 0.37314 0.55973 0.0
N3697 N 0.33809 0.39761 0.56635 0.0
N3698 N 0.32141 0.35057 0.58355 0.0
C3699 C 0.34109 0.36249 0.59827 0.0
C3700 C 0.3502 0.38805 0.58889 0.0
C3701 C 0.88609 0.09015 0.8462 0.0
C3702 C 0.8998 0.10327 0.86719 0.0
C3703 C 0.86054 0.09867 0.83784 0.0
C3704 C 0.84756 0.1206 0.85019 0.0
H3705 H 0.89503 0.073 0.83621 0.0
H3706 H 0.85091 0.08789 0.82157 0.0
S3707 S 0.87484 0.16209 0.90601 0.0
N3708 N 0.89847 0.13963 0.89997 0.0
N3709 N 0.85055 0.1554 0.88449 0.0
C3710 C 0.86107 0.13397 0.87117 0.0
C3711 C 0.88715 0.12541 0.87957 0.0
C3712 C 0.37879 0.11972 0.38899 0.0
C3713 C 0.40083 0.13175 0.40203 0.0
C3714 C 0.36986 0.12883 0.36389 0.0
C3715 C 0.38254 0.15042 0.35073 0.0
H3716 H 0.36834 0.10294 0.3981 0.0
H3717 H 0.35277 0.11884 0.35485 0.0
S3718 S 0.44106 0.18916 0.37629 0.0
N3719 N 0.435 0.1667 0.3999 0.0
N3720 N 0.41839 0.18367 0.35274 0.0
C3721 C 0.40459 0.16271 0.36354 0.0
C3722 C 0.41366 0.15345 0.38916 0.0
C3723 C 0.09351 0.15207 0.61169 0.0
C3724 C 0.10487 0.12931 0.59928 0.0
C3725 C 0.10234 0.16096 0.63694 0.0
C3726 C 0.1229 0.14744 0.65094 0.0
H3727 H 0.07761 0.16323 0.60187 0.0
H3728 H 0.09298 0.17868 0.64544 0.0
S3729 S 0.15898 0.08631 0.62763 0.0
N3730 N 0.13766 0.09318 0.60319 0.0
N3731 N 0.15412 0.10975 0.65057 0.0
C3732 C 0.13435 0.12452 0.63885 0.0
C3733 C 0.12541 0.11552 0.61307 0.0
C3734 C 0.09376 0.8632 0.88433 0.0
C3735 C 0.10905 0.8825 0.89832 0.0
C3736 C 0.10253 0.85256 0.85968 0.0
C3737 C 0.1268 0.86103 0.84785 0.0
H3738 H 0.07488 0.85607 0.89252 0.0
H3739 H 0.09011 0.83766 0.8498 0.0
S3740 S 0.17423 0.91141 0.87609 0.0
N3741 N 0.1497 0.90972 0.89832 0.0
N3742 N 0.166 0.89006 0.85212 0.0
C3743 C 0.14219 0.88048 0.86155 0.0
C3744 C 0.13339 0.89111 0.88673 0.0
C3745 C 0.40798 0.85169 0.11536 0.0
C3746 C 0.39564 0.87353 0.10226 0.0
C3747 C 0.39919 0.84289 0.14063 0.0
C3748 C 0.37769 0.85555 0.15398 0.0
H3749 H 0.42468 0.84124 0.1061 0.0
H3750 H 0.40937 0.82591 0.1497 0.0
S3751 S 0.33842 0.91379 0.1285 0.0
N3752 N 0.36065 0.90768 0.10466 0.0
N3753 N 0.34424 0.89126 0.15212 0.0
C3754 C 0.36515 0.87748 0.14116 0.0
C3755 C 0.37407 0.88641 0.11534 0.0
C3756 C 0.38817 0.41193 0.15075 0.0
C3757 C 0.40225 0.39842 0.13025 0.0
C3758 C 0.3629 0.40296 0.15953 0.0
C3759 C 0.35059 0.38014 0.14814 0.0
H3760 H 0.39662 0.4297 0.16007 0.0
H3761 H 0.35297 0.41409 0.17539 0.0
S3762 S 0.37922 0.33716 0.09413 0.0
N3763 N 0.40206 0.36066 0.09906 0.0
N3764 N 0.35471 0.34401 0.11539 0.0
C3765 C 0.36449 0.36638 0.12766 0.0
C3766 C 0.39025 0.37544 0.1188 0.0
C3767 C 0.85463 0.88811 0.0929 0.0
C3768 C 0.87724 0.9005 0.10455 0.0
C3769 C 0.84549 0.86299 0.10174 0.0
C3770 C 0.85859 0.84908 0.1226 0.0
H3771 H 0.84375 0.89787 0.07677 0.0
H3772 H 0.82787 0.85452 0.09217 0.0
S3773 S 0.91915 0.8724 0.1596 0.0
N3774 N 0.91278 0.89671 0.13797 0.0
N3775 N 0.89572 0.8495 0.15449 0.0
C3776 C 0.88137 0.86113 0.13436 0.0
C3777 C 0.89064 0.8868 0.12539 0.0
C3778 C 0.13821 0.63586 0.62883 0.0
C3779 C 0.15185 0.62332 0.65021 0.0
C3780 C 0.11326 0.62638 0.6198 0.0
C3781 C 0.10083 0.60392 0.63172 0.0
H3782 H 0.14676 0.65328 0.61898 0.0
H3783 H 0.10373 0.63677 0.60321 0.0
S3784 S 0.1282 0.56358 0.68832 0.0
N3785 N 0.15108 0.58693 0.68292 0.0
N3786 N 0.10422 0.56936 0.66619 0.0
C3787 C 0.11424 0.59117 0.65316 0.0
C3788 C 0.13971 0.60077 0.6623 0.0
C3789 C 0.65265 0.88822 0.91024 0.0
C3790 C 0.63036 0.90099 0.89836 0.0
C3791 C 0.66189 0.86323 0.90101 0.0
C3792 C 0.64918 0.84988 0.87954 0.0
H3793 H 0.66309 0.89753 0.92692 0.0
H3794 H 0.67917 0.85435 0.91082 0.0
S3795 S 0.58987 0.87461 0.84139 0.0
N3796 N 0.59581 0.89829 0.8638 0.0
N3797 N 0.61296 0.85141 0.84663 0.0
C3798 C 0.62681 0.8624 0.86747 0.0
C3799 C 0.61749 0.88791 0.8768 0.0
C3800 C 0.84115 0.13808 0.39954 0.0
C3801 C 0.85445 0.15194 0.37874 0.0
C3802 C 0.85008 0.11286 0.40842 0.0
C3803 C 0.87266 0.10031 0.39685 0.0
H3804 H 0.82357 0.14669 0.40906 0.0
H3805 H 0.83911 0.10316 0.42454 0.0
S3806 S 0.91502 0.12821 0.34196 0.0
N3807 N 0.89172 0.15126 0.34701 0.0
N3808 N 0.90835 0.10392 0.36352 0.0
C3809 C 0.88622 0.11395 0.37604 0.0
C3810 C 0.87718 0.13971 0.36706 0.0
C3811 C 0.62589 0.13942 0.62825 0.0
C3812 C 0.64921 0.15148 0.61767 0.0
C3813 C 0.61711 0.11418 0.61935 0.0
C3814 C 0.63123 0.09989 0.59944 0.0
H3815 H 0.61423 0.14947 0.64366 0.0
H3816 H 0.59896 0.10594 0.62812 0.0
S3817 S 0.69382 0.12229 0.56534 0.0
N3818 N 0.68638 0.147 0.58616 0.0
N3819 N 0.67004 0.09959 0.56961 0.0
C3820 C 0.65465 0.11165 0.58869 0.0
C3821 C 0.66357 0.13741 0.59773 0.0
C3822 C 0.11251 0.41065 0.84689 0.0
C3823 C 0.0986 0.39807 0.86811 0.0
C3824 C 0.13777 0.40139 0.83838 0.0
C3825 C 0.15024 0.37921 0.85077 0.0
H3826 H 0.10395 0.42796 0.83684 0.0
H3827 H 0.1476 0.41181 0.82199 0.0
S3828 S 0.12198 0.33859 0.90678 0.0
N3829 N 0.09903 0.36177 0.90092 0.0
N3830 N 0.14637 0.34455 0.88513 0.0
C3831 C 0.13646 0.36632 0.87191 0.0
C3832 C 0.11071 0.37568 0.8805 0.0
C3833 C 0.36456 0.6016 0.34244 0.0
C3834 C 0.35121 0.62275 0.3557 0.0
C3835 C 0.39001 0.59285 0.35078 0.0
C3836 C 0.40326 0.60491 0.37268 0.0
H3837 H 0.35533 0.59166 0.32542 0.0
H3838 H 0.39927 0.57639 0.33995 0.0
S3839 S 0.37713 0.66122 0.41427 0.0
N3840 N 0.35328 0.65559 0.39195 0.0
N3841 N 0.40106 0.63931 0.40744 0.0
C3842 C 0.39022 0.62619 0.38607 0.0
C3843 C 0.36423 0.63503 0.37765 0.0
C3844 C 0.87689 0.62049 0.89029 0.0
C3845 C 0.89999 0.63155 0.90233 0.0
C3846 C 0.86742 0.62981 0.86545 0.0
C3847 C 0.8806 0.65063 0.85157 0.0
H3848 H 0.86594 0.60442 0.90007 0.0
H3849 H 0.84948 0.62065 0.8572 0.0
S3850 S 0.94232 0.68622 0.87405 0.0
N3851 N 0.93597 0.66446 0.89823 0.0
N3852 N 0.91838 0.68175 0.85158 0.0
C3853 C 0.90383 0.66181 0.86329 0.0
C3854 C 0.91344 0.65236 0.88864 0.0
C3855 C 0.59114 0.64936 0.1147 0.0
C3856 C 0.604 0.6279 0.10144 0.0
C3857 C 0.60057 0.65908 0.13941 0.0
C3858 C 0.62322 0.64774 0.152 0.0
H3859 H 0.57354 0.65876 0.10601 0.0
H3860 H 0.58991 0.67566 0.14868 0.0
S3861 S 0.66441 0.59122 0.12565 0.0
N3862 N 0.64086 0.59571 0.10277 0.0
N3863 N 0.65843 0.61382 0.14916 0.0
C3864 C 0.63633 0.62627 0.13897 0.0
C3865 C 0.62679 0.61642 0.11373 0.0
C3866 C 0.63127 0.37214 0.36211 0.0
C3867 C 0.6197 0.34952 0.34964 0.0
C3868 C 0.62238 0.38118 0.38729 0.0
C3869 C 0.60149 0.36803 0.40115 0.0
H3870 H 0.64741 0.38305 0.35241 0.0
H3871 H 0.63193 0.39878 0.39583 0.0
S3872 S 0.56462 0.30749 0.3776 0.0
N3873 N 0.58623 0.31403 0.35332 0.0
N3874 N 0.56974 0.33082 0.40059 0.0
C3875 C 0.58982 0.34527 0.389 0.0
C3876 C 0.59883 0.3361 0.3633 0.0
C3877 C 0.86835 0.37189 0.63613 0.0
C3878 C 0.88067 0.35032 0.64967 0.0
C3879 C 0.87793 0.38096 0.61123 0.0
C3880 C 0.90029 0.36889 0.59874 0.0
H3881 H 0.85098 0.38184 0.6447 0.0
H3882 H 0.86763 0.39763 0.60174 0.0
S3883 S 0.9402 0.3119 0.62594 0.0
N3884 N 0.91683 0.31735 0.64881 0.0
N3885 N 0.93464 0.33419 0.60205 0.0
C3886 C 0.91289 0.34733 0.61209 0.0
C3887 C 0.90317 0.33813 0.63751 0.0
loop_
_geom_bond_atom_site_label_1
_geom_bond_atom_site_label_2
_geom_bond_distance
_geom_bond_site_symmetry_2
_ccdc_geom_bond_type
Co0 O2 2.143 . S
Co0 O8 2.074 . S
Co0 O11 2.093 . S
Co0 O24 2.097 . S
Co0 N41 2.151 . S
Co0 N49 2.214 . S
Co1 O2 2.160 . S
Co1 O7 2.058 . S
Co1 O17 2.057 . S
Co1 O32 2.037 . S
Co1 N36 2.145 . S
Co1 N57 2.257 . S
O2 Co0 2.143 . S
O2 Co1 2.160 . S
C3 O4 1.278 . S
C3 O11 1.224 . S
O4 C3 1.278 . S
C5 O6 1.245 . S
C5 O17 1.232 . S
O6 C5 1.245 . S
O7 Co1 2.058 . S
O7 C33 1.269 . S
O8 Co0 2.074 . S
O8 C33 1.257 . S
H9 C34 0.930 . S
H10 C40 0.930 . S
O11 Co0 2.093 . S
O11 C3 1.224 . S
H12 C44 0.929 . S
H13 C46 0.930 . S
H14 C47 0.930 . S
H15 C45 0.929 . S
H16 C48 0.928 . S
O17 Co1 2.057 . S
O17 C5 1.232 . S
H18 C37 0.929 . S
H19 C38 0.929 . S
H20 C50 0.931 . S
H21 C42 0.929 . S
H22 C51 0.930 . S
H23 C43 0.931 . S
O24 Co0 2.097 . S
O24 C52 1.214 . S
H25 C53 0.929 . S
H26 C54 0.929 . S
H27 C55 0.930 . S
H28 C56 0.929 . S
H29 C58 0.930 . S
H30 C35 0.930 . S
H31 C39 0.930 . S
O32 Co1 2.037 . S
O32 C52 1.234 . S
C33 O7 1.269 . S
C33 O8 1.257 . S
C34 H9 0.930 . S
C34 C37 1.388 . S
C34 C39 1.418 . S
C35 H30 0.930 . S
C35 C38 1.404 . S
C35 C39 1.353 . S
N36 Co1 2.145 . S
N36 C37 1.397 . S
N36 C38 1.334 . S
C37 H18 0.929 . S
C37 C34 1.388 . S
C37 N36 1.397 . S
C38 H19 0.929 . S
C38 C35 1.404 . S
C38 N36 1.334 . S
C39 H31 0.930 . S
C39 C34 1.418 . S
C39 C35 1.353 . S
C40 H10 0.930 . S
C40 N41 1.330 . S
C40 C42 1.446 . S
N41 Co0 2.151 . S
N41 C40 1.330 . S
N41 C45 1.418 . S
C42 H21 0.929 . S
C42 C40 1.446 . S
C42 C43 1.332 . S
C43 H23 0.931 . S
C43 C42 1.332 . S
C43 C44 1.267 . S
C44 H12 0.929 . S
C44 C43 1.267 . S
C44 C45 1.251 . S
C45 H15 0.929 . S
C45 N41 1.418 . S
C45 C44 1.251 . S
C46 H13 0.930 . S
C46 C48 1.406 . S
C46 C51 1.261 . S
C47 H14 0.930 . S
C47 N49 1.325 . S
C47 C50 1.357 . S
C48 H16 0.928 . S
C48 C46 1.406 . S
C48 N49 1.261 . S
N49 Co0 2.214 . S
N49 C47 1.325 . S
N49 C48 1.261 . S
C50 H20 0.931 . S
C50 C47 1.357 . S
C50 C51 1.312 . S
C51 H22 0.930 . S
C51 C46 1.261 . S
C51 C50 1.312 . S
C52 O24 1.214 . S
C52 O32 1.234 . S
C53 H25 0.929 . S
C53 C56 1.391 . S
C53 C58 1.391 . S
C54 H26 0.929 . S
C54 C55 1.390 . S
C54 N57 1.391 . S
C55 H27 0.930 . S
C55 C54 1.390 . S
C55 C56 1.392 . S
C56 H28 0.929 . S
C56 C53 1.391 . S
C56 C55 1.392 . S
N57 Co1 2.257 . S
N57 C54 1.391 . S
N57 C58 1.388 . S
C58 H29 0.930 . S
C58 C53 1.391 . S
C58 N57 1.388 . S
Co59 O61 2.143 . S
Co59 O67 2.074 . S
Co59 O70 2.093 . S
Co59 O83 2.097 . S
Co59 N100 2.151 . S
Co59 N108 2.214 . S
Co60 O61 2.160 1_455 S
Co60 O66 2.058 . S
Co60 O76 2.057 . S
Co60 O91 2.037 1_455 S
Co60 N95 2.145 . S
Co60 N116 2.257 . S
O61 Co59 2.143 . S
O61 Co60 2.160 1_655 S
C62 O63 1.278 . S
C62 O70 1.224 . S
O63 C62 1.278 . S
C64 O65 1.245 . S
C64 O76 1.232 . S
O65 C64 1.245 . S
O66 Co60 2.058 . S
O66 C92 1.269 . S
O67 Co59 2.074 . S
O67 C92 1.257 1_655 S
H68 C93 0.930 . S
H69 C99 0.930 . S
O70 Co59 2.093 . S
O70 C62 1.224 . S
H71 C103 0.929 1_545 S
H72 C105 0.930 . S
H73 C106 0.930 . S
H74 C104 0.929 . S
H75 C107 0.928 . S
O76 Co60 2.057 . S
O76 C64 1.232 . S
H77 C96 0.929 . S
H78 C97 0.929 . S
H79 C109 0.931 . S
H80 C101 0.929 . S
H81 C110 0.930 . S
H82 C102 0.931 . S
O83 Co59 2.097 . S
O83 C111 1.214 . S
H84 C112 0.929 . S
H85 C113 0.929 1_455 S
H86 C114 0.930 . S
H87 C115 0.929 . S
H88 C117 0.930 . S
H89 C94 0.930 . S
H90 C98 0.930 . S
O91 Co60 2.037 1_655 S
O91 C111 1.234 . S
C92 O66 1.269 . S
C92 O67 1.257 1_455 S
C93 H68 0.930 . S
C93 C96 1.388 . S
C93 C98 1.418 . S
C94 H89 0.930 . S
C94 C97 1.404 . S
C94 C98 1.353 . S
N95 Co60 2.145 . S
N95 C96 1.397 . S
N95 C97 1.334 . S
C96 H77 0.929 . S
C96 C93 1.388 . S
C96 N95 1.397 . S
C97 H78 0.929 . S
C97 C94 1.404 . S
C97 N95 1.334 . S
C98 H90 0.930 . S
C98 C93 1.418 . S
C98 C94 1.353 . S
C99 H69 0.930 . S
C99 N100 1.330 . S
C99 C101 1.446 . S
N100 Co59 2.151 . S
N100 C99 1.330 . S
N100 C104 1.418 . S
C101 H80 0.929 . S
C101 C99 1.446 . S
C101 C102 1.332 . S
C102 H82 0.931 . S
C102 C101 1.332 . S
C102 C103 1.267 . S
C103 H71 0.929 1_565 S
C103 C102 1.267 . S
C103 C104 1.251 . S
C104 H74 0.929 . S
C104 N100 1.418 . S
C104 C103 1.251 . S
C105 H72 0.930 . S
C105 C107 1.406 1_545 S
C105 C110 1.261 . S
C106 H73 0.930 . S
C106 N108 1.325 . S
C106 C109 1.357 1_565 S
C107 H75 0.928 . S
C107 C105 1.406 1_565 S
C107 N108 1.261 . S
N108 Co59 2.214 . S
N108 C106 1.325 . S
N108 C107 1.261 . S
C109 H79 0.931 . S
C109 C106 1.357 1_545 S
C109 C110 1.312 . S
C110 H81 0.930 . S
C110 C105 1.261 . S
C110 C109 1.312 . S
C111 O83 1.214 . S
C111 O91 1.234 . S
C112 H84 0.929 . S
C112 C115 1.391 . S
C112 C117 1.391 . S
C113 H85 0.929 1_655 S
C113 C114 1.390 . S
C113 N116 1.391 1_655 S
C114 H86 0.930 . S
C114 C113 1.390 . S
C114 C115 1.392 . S
C115 H87 0.929 . S
C115 C112 1.391 . S
C115 C114 1.392 . S
N116 Co60 2.257 . S
N116 C113 1.391 1_455 S
N116 C117 1.388 1_455 S
C117 H88 0.930 . S
C117 C112 1.391 . S
C117 N116 1.388 1_655 S
Co118 O120 2.143 . S
Co118 O126 2.074 . S
Co118 O129 2.093 . S
Co118 O142 2.097 . S
Co118 N159 2.151 . S
Co118 N167 2.214 . S
Co119 O120 2.160 . S
Co119 O125 2.058 . S
Co119 O135 2.057 . S
Co119 O150 2.037 . S
Co119 N154 2.145 . S
Co119 N175 2.257 . S
O120 Co118 2.143 . S
O120 Co119 2.160 . S
C121 O122 1.278 . S
C121 O129 1.224 . S
O122 C121 1.278 . S
C123 O124 1.245 . S
C123 O135 1.232 . S
O124 C123 1.245 . S
O125 Co119 2.058 . S
O125 C151 1.269 . S
O126 Co118 2.074 . S
O126 C151 1.257 . S
H127 C152 0.930 . S
H128 C158 0.930 . S
O129 Co118 2.093 . S
O129 C121 1.224 . S
H130 C162 0.929 . S
H131 C164 0.930 . S
H132 C165 0.930 . S
H133 C163 0.929 . S
H134 C166 0.928 . S
O135 Co119 2.057 . S
O135 C123 1.232 . S
H136 C155 0.929 . S
H137 C156 0.929 . S
H138 C168 0.931 . S
H139 C160 0.929 . S
H140 C169 0.930 . S
H141 C161 0.931 . S
O142 Co118 2.097 . S
O142 C170 1.214 . S
H143 C171 0.929 . S
H144 C172 0.929 . S
H145 C173 0.930 . S
H146 C174 0.929 . S
H147 C176 0.930 . S
H148 C153 0.930 . S
H149 C157 0.930 . S
O150 Co119 2.037 . S
O150 C170 1.234 . S
C151 O125 1.269 . S
C151 O126 1.257 . S
C152 H127 0.930 . S
C152 C155 1.388 . S
C152 C157 1.418 . S
C153 H148 0.930 . S
C153 C156 1.404 . S
C153 C157 1.353 . S
N154 Co119 2.145 . S
N154 C155 1.397 . S
N154 C156 1.334 . S
C155 H136 0.929 . S
C155 C152 1.388 . S
C155 N154 1.397 . S
C156 H137 0.929 . S
C156 C153 1.404 . S
C156 N154 1.334 . S
C157 H149 0.930 . S
C157 C152 1.418 . S
C157 C153 1.353 . S
C158 H128 0.930 . S
C158 N159 1.330 . S
C158 C160 1.446 . S
N159 Co118 2.151 . S
N159 C158 1.330 . S
N159 C163 1.418 . S
C160 H139 0.929 . S
C160 C158 1.446 . S
C160 C161 1.332 . S
C161 H141 0.931 . S
C161 C160 1.332 . S
C161 C162 1.267 . S
C162 H130 0.929 . S
C162 C161 1.267 . S
C162 C163 1.251 . S
C163 H133 0.929 . S
C163 N159 1.418 . S
C163 C162 1.251 . S
C164 H131 0.930 . S
C164 C166 1.406 . S
C164 C169 1.261 . S
C165 H132 0.930 . S
C165 N167 1.325 . S
C165 C168 1.357 . S
C166 H134 0.928 . S
C166 C164 1.406 . S
C166 N167 1.261 . S
N167 Co118 2.214 . S
N167 C165 1.325 . S
N167 C166 1.261 . S
C168 H138 0.931 . S
C168 C165 1.357 . S
C168 C169 1.312 . S
C169 H140 0.930 . S
C169 C164 1.261 . S
C169 C168 1.312 . S
C170 O142 1.214 . S
C170 O150 1.234 . S
C171 H143 0.929 . S
C171 C174 1.391 . S
C171 C176 1.391 . S
C172 H144 0.929 . S
C172 C173 1.390 . S
C172 N175 1.391 . S
C173 H145 0.930 . S
C173 C172 1.390 . S
C173 C174 1.392 . S
C174 H146 0.929 . S
C174 C171 1.391 . S
C174 C173 1.392 . S
N175 Co119 2.257 . S
N175 C172 1.391 . S
N175 C176 1.388 . S
C176 H147 0.930 . S
C176 C171 1.391 . S
C176 N175 1.388 . S
Co177 O179 2.143 . S
Co177 O185 2.074 . S
Co177 O188 2.093 . S
Co177 O201 2.097 . S
Co177 N218 2.151 . S
Co177 N226 2.214 . S
Co178 O179 2.160 . S
Co178 O184 2.058 . S
Co178 O194 2.057 . S
Co178 O209 2.037 . S
Co178 N213 2.145 . S
Co178 N234 2.257 . S
O179 Co177 2.143 . S
O179 Co178 2.160 . S
C180 O181 1.278 . S
C180 O188 1.224 . S
O181 C180 1.278 . S
C182 O183 1.245 . S
C182 O194 1.232 . S
O183 C182 1.245 . S
O184 Co178 2.058 . S
O184 C210 1.269 . S
O185 Co177 2.074 . S
O185 C210 1.257 . S
H186 C211 0.930 . S
H187 C217 0.930 . S
O188 Co177 2.093 . S
O188 C180 1.224 . S
H189 C221 0.929 1_565 S
H190 C223 0.930 . S
H191 C224 0.930 . S
H192 C222 0.929 . S
H193 C225 0.928 . S
O194 Co178 2.057 . S
O194 C182 1.232 . S
H195 C214 0.929 . S
H196 C215 0.929 . S
H197 C227 0.931 . S
H198 C219 0.929 . S
H199 C228 0.930 . S
H200 C220 0.931 . S
O201 Co177 2.097 . S
O201 C229 1.214 . S
H202 C230 0.929 . S
H203 C231 0.929 . S
H204 C232 0.930 . S
H205 C233 0.929 . S
H206 C235 0.930 . S
H207 C212 0.930 . S
H208 C216 0.930 1_556 S
O209 Co178 2.037 . S
O209 C229 1.234 . S
C210 O184 1.269 . S
C210 O185 1.257 . S
C211 H186 0.930 . S
C211 C214 1.388 1_556 S
C211 C216 1.418 1_556 S
C212 H207 0.930 . S
C212 C215 1.404 . S
C212 C216 1.353 . S
N213 Co178 2.145 . S
N213 C214 1.397 . S
N213 C215 1.334 . S
C214 H195 0.929 . S
C214 C211 1.388 1_554 S
C214 N213 1.397 . S
C215 H196 0.929 . S
C215 C212 1.404 . S
C215 N213 1.334 . S
C216 H208 0.930 1_554 S
C216 C211 1.418 1_554 S
C216 C212 1.353 . S
C217 H187 0.930 . S
C217 N218 1.330 . S
C217 C219 1.446 . S
N218 Co177 2.151 . S
N218 C217 1.330 . S
N218 C222 1.418 . S
C219 H198 0.929 . S
C219 C217 1.446 . S
C219 C220 1.332 . S
C220 H200 0.931 . S
C220 C219 1.332 . S
C220 C221 1.267 . S
C221 H189 0.929 1_545 S
C221 C220 1.267 . S
C221 C222 1.251 . S
C222 H192 0.929 . S
C222 N218 1.418 . S
C222 C221 1.251 . S
C223 H190 0.930 . S
C223 C225 1.406 1_565 S
C223 C228 1.261 . S
C224 H191 0.930 . S
C224 N226 1.325 . S
C224 C227 1.357 1_545 S
C225 H193 0.928 . S
C225 C223 1.406 1_545 S
C225 N226 1.261 . S
N226 Co177 2.214 . S
N226 C224 1.325 . S
N226 C225 1.261 . S
C227 H197 0.931 . S
C227 C224 1.357 1_565 S
C227 C228 1.312 . S
C228 H199 0.930 . S
C228 C223 1.261 . S
C228 C227 1.312 . S
C229 O201 1.214 . S
C229 O209 1.234 . S
C230 H202 0.929 . S
C230 C233 1.391 . S
C230 C235 1.391 . S
C231 H203 0.929 . S
C231 C232 1.390 . S
C231 N234 1.391 . S
C232 H204 0.930 . S
C232 C231 1.390 . S
C232 C233 1.392 . S
C233 H205 0.929 . S
C233 C230 1.391 . S
C233 C232 1.392 . S
N234 Co178 2.257 . S
N234 C231 1.391 . S
N234 C235 1.388 . S
C235 H206 0.930 . S
C235 C230 1.391 . S
C235 N234 1.388 . S
Co236 O238 2.143 . S
Co236 O244 2.074 . S
Co236 O247 2.093 . S
Co236 O260 2.097 . S
Co236 N277 2.151 . S
Co236 N285 2.214 . S
Co237 O238 2.160 . S
Co237 O243 2.058 . S
Co237 O253 2.057 . S
Co237 O268 2.037 . S
Co237 N272 2.145 . S
Co237 N293 2.257 . S
O238 Co236 2.143 . S
O238 Co237 2.160 . S
C239 O240 1.278 . S
C239 O247 1.224 . S
O240 C239 1.278 . S
C241 O242 1.245 . S
C241 O253 1.232 . S
O242 C241 1.245 . S
O243 Co237 2.058 . S
O243 C269 1.269 . S
O244 Co236 2.074 . S
O244 C269 1.257 . S
H245 C270 0.930 . S
H246 C276 0.930 . S
O247 Co236 2.093 . S
O247 C239 1.224 . S
H248 C280 0.929 . S
H249 C282 0.930 . S
H250 C283 0.930 . S
H251 C281 0.929 . S
H252 C284 0.928 . S
O253 Co237 2.057 . S
O253 C241 1.232 . S
H254 C273 0.929 . S
H255 C274 0.929 . S
H256 C286 0.931 . S
H257 C278 0.929 . S
H258 C287 0.930 . S
H259 C279 0.931 . S
O260 Co236 2.097 . S
O260 C288 1.214 . S
H261 C289 0.929 . S
H262 C290 0.929 . S
H263 C291 0.930 . S
H264 C292 0.929 . S
H265 C294 0.930 . S
H266 C271 0.930 . S
H267 C275 0.930 . S
O268 Co237 2.037 . S
O268 C288 1.234 . S
C269 O243 1.269 . S
C269 O244 1.257 . S
C270 H245 0.930 . S
C270 C273 1.388 . S
C270 C275 1.418 . S
C271 H266 0.930 . S
C271 C274 1.404 . S
C271 C275 1.353 . S
N272 Co237 2.145 . S
N272 C273 1.397 . S
N272 C274 1.334 . S
C273 H254 0.929 . S
C273 C270 1.388 . S
C273 N272 1.397 . S
C274 H255 0.929 . S
C274 C271 1.404 . S
C274 N272 1.334 . S
C275 H267 0.930 . S
C275 C270 1.418 . S
C275 C271 1.353 . S
C276 H246 0.930 . S
C276 N277 1.330 . S
C276 C278 1.446 . S
N277 Co236 2.151 . S
N277 C276 1.330 . S
N277 C281 1.418 . S
C278 H257 0.929 . S
C278 C276 1.446 . S
C278 C279 1.332 . S
C279 H259 0.931 . S
C279 C278 1.332 . S
C279 C280 1.267 . S
C280 H248 0.929 . S
C280 C279 1.267 . S
C280 C281 1.251 . S
C281 H251 0.929 . S
C281 N277 1.418 . S
C281 C280 1.251 . S
C282 H249 0.930 . S
C282 C284 1.406 . S
C282 C287 1.261 . S
C283 H250 0.930 . S
C283 N285 1.325 . S
C283 C286 1.357 . S
C284 H252 0.928 . S
C284 C282 1.406 . S
C284 N285 1.261 . S
N285 Co236 2.214 . S
N285 C283 1.325 . S
N285 C284 1.261 . S
C286 H256 0.931 . S
C286 C283 1.357 . S
C286 C287 1.312 . S
C287 H258 0.930 . S
C287 C282 1.261 . S
C287 C286 1.312 . S
C288 O260 1.214 . S
C288 O268 1.234 . S
C289 H261 0.929 . S
C289 C292 1.391 . S
C289 C294 1.391 . S
C290 H262 0.929 . S
C290 C291 1.390 . S
C290 N293 1.391 . S
C291 H263 0.930 . S
C291 C290 1.390 . S
C291 C292 1.392 . S
C292 H264 0.929 . S
C292 C289 1.391 . S
C292 C291 1.392 . S
N293 Co237 2.257 . S
N293 C290 1.391 . S
N293 C294 1.388 . S
C294 H265 0.930 . S
C294 C289 1.391 . S
C294 N293 1.388 . S
Co295 O297 2.143 . S
Co295 O303 2.074 . S
Co295 O306 2.093 . S
Co295 O319 2.097 . S
Co295 N336 2.151 . S
Co295 N344 2.214 . S
Co296 O297 2.160 . S
Co296 O302 2.058 . S
Co296 O312 2.057 . S
Co296 O327 2.037 . S
Co296 N331 2.145 . S
Co296 N352 2.257 . S
O297 Co295 2.143 . S
O297 Co296 2.160 . S
C298 O299 1.278 . S
C298 O306 1.224 . S
O299 C298 1.278 . S
C300 O301 1.245 . S
C300 O312 1.232 . S
O301 C300 1.245 . S
O302 Co296 2.058 . S
O302 C328 1.269 . S
O303 Co295 2.074 . S
O303 C328 1.257 . S
H304 C329 0.930 . S
H305 C335 0.930 . S
O306 Co295 2.093 . S
O306 C298 1.224 . S
H307 C339 0.929 1_545 S
H308 C341 0.930 . S
H309 C342 0.930 . S
H310 C340 0.929 . S
H311 C343 0.928 . S
O312 Co296 2.057 . S
O312 C300 1.232 . S
H313 C332 0.929 . S
H314 C333 0.929 . S
H315 C345 0.931 . S
H316 C337 0.929 . S
H317 C346 0.930 . S
H318 C338 0.931 . S
O319 Co295 2.097 . S
O319 C347 1.214 . S
H320 C348 0.929 . S
H321 C349 0.929 . S
H322 C350 0.930 . S
H323 C351 0.929 . S
H324 C353 0.930 . S
H325 C330 0.930 . S
H326 C334 0.930 . S
O327 Co296 2.037 . S
O327 C347 1.234 . S
C328 O302 1.269 . S
C328 O303 1.257 . S
C329 H304 0.930 . S
C329 C332 1.388 . S
C329 C334 1.418 . S
C330 H325 0.930 . S
C330 C333 1.404 . S
C330 C334 1.353 . S
N331 Co296 2.145 . S
N331 C332 1.397 . S
N331 C333 1.334 . S
C332 H313 0.929 . S
C332 C329 1.388 . S
C332 N331 1.397 . S
C333 H314 0.929 . S
C333 C330 1.404 . S
C333 N331 1.334 . S
C334 H326 0.930 . S
C334 C329 1.418 . S
C334 C330 1.353 . S
C335 H305 0.930 . S
C335 N336 1.330 . S
C335 C337 1.446 . S
N336 Co295 2.151 . S
N336 C335 1.330 . S
N336 C340 1.418 . S
C337 H316 0.929 . S
C337 C335 1.446 . S
C337 C338 1.332 . S
C338 H318 0.931 . S
C338 C337 1.332 . S
C338 C339 1.267 . S
C339 H307 0.929 1_565 S
C339 C338 1.267 . S
C339 C340 1.251 . S
C340 H310 0.929 . S
C340 N336 1.418 . S
C340 C339 1.251 . S
C341 H308 0.930 . S
C341 C343 1.406 1_545 S
C341 C346 1.261 . S
C342 H309 0.930 . S
C342 N344 1.325 . S
C342 C345 1.357 1_565 S
C343 H311 0.928 . S
C343 C341 1.406 1_565 S
C343 N344 1.261 . S
N344 Co295 2.214 . S
N344 C342 1.325 . S
N344 C343 1.261 . S
C345 H315 0.931 . S
C345 C342 1.357 1_545 S
C345 C346 1.312 . S
C346 H317 0.930 . S
C346 C341 1.261 . S
C346 C345 1.312 . S
C347 O319 1.214 . S
C347 O327 1.234 . S
C348 H320 0.929 . S
C348 C351 1.391 . S
C348 C353 1.391 . S
C349 H321 0.929 . S
C349 C350 1.390 . S
C349 N352 1.391 . S
C350 H322 0.930 . S
C350 C349 1.390 . S
C350 C351 1.392 . S
C351 H323 0.929 . S
C351 C348 1.391 . S
C351 C350 1.392 . S
N352 Co296 2.257 . S
N352 C349 1.391 . S
N352 C353 1.388 . S
C353 H324 0.930 . S
C353 C348 1.391 . S
C353 N352 1.388 . S
Co354 O356 2.143 . S
Co354 O362 2.074 . S
Co354 O365 2.093 . S
Co354 O378 2.097 . S
Co354 N395 2.151 . S
Co354 N403 2.214 . S
Co355 O356 2.160 . S
Co355 O361 2.058 . S
Co355 O371 2.057 . S
Co355 O386 2.037 . S
Co355 N390 2.145 . S
Co355 N411 2.257 . S
O356 Co354 2.143 . S
O356 Co355 2.160 . S
C357 O358 1.278 . S
C357 O365 1.224 . S
O358 C357 1.278 . S
C359 O360 1.245 . S
C359 O371 1.232 . S
O360 C359 1.245 . S
O361 Co355 2.058 . S
O361 C387 1.269 . S
O362 Co354 2.074 . S
O362 C387 1.257 . S
H363 C388 0.930 . S
H364 C394 0.930 . S
O365 Co354 2.093 . S
O365 C357 1.224 . S
H366 C398 0.929 . S
H367 C400 0.930 . S
H368 C401 0.930 . S
H369 C399 0.929 . S
H370 C402 0.928 . S
O371 Co355 2.057 . S
O371 C359 1.232 . S
H372 C391 0.929 . S
H373 C392 0.929 . S
H374 C404 0.931 . S
H375 C396 0.929 . S
H376 C405 0.930 . S
H377 C397 0.931 . S
O378 Co354 2.097 . S
O378 C406 1.214 . S
H379 C407 0.929 . S
H380 C408 0.929 . S
H381 C409 0.930 . S
H382 C410 0.929 . S
H383 C412 0.930 . S
H384 C389 0.930 . S
H385 C393 0.930 . S
O386 Co355 2.037 . S
O386 C406 1.234 . S
C387 O361 1.269 . S
C387 O362 1.257 . S
C388 H363 0.930 . S
C388 C391 1.388 . S
C388 C393 1.418 . S
C389 H384 0.930 . S
C389 C392 1.404 . S
C389 C393 1.353 . S
N390 Co355 2.145 . S
N390 C391 1.397 . S
N390 C392 1.334 . S
C391 H372 0.929 . S
C391 C388 1.388 . S
C391 N390 1.397 . S
C392 H373 0.929 . S
C392 C389 1.404 . S
C392 N390 1.334 . S
C393 H385 0.930 . S
C393 C388 1.418 . S
C393 C389 1.353 . S
C394 H364 0.930 . S
C394 N395 1.330 . S
C394 C396 1.446 . S
N395 Co354 2.151 . S
N395 C394 1.330 . S
N395 C399 1.418 . S
C396 H375 0.929 . S
C396 C394 1.446 . S
C396 C397 1.332 . S
C397 H377 0.931 . S
C397 C396 1.332 . S
C397 C398 1.267 . S
C398 H366 0.929 . S
C398 C397 1.267 . S
C398 C399 1.251 . S
C399 H369 0.929 . S
C399 N395 1.418 . S
C399 C398 1.251 . S
C400 H367 0.930 . S
C400 C402 1.406 . S
C400 C405 1.261 . S
C401 H368 0.930 . S
C401 N403 1.325 . S
C401 C404 1.357 . S
C402 H370 0.928 . S
C402 C400 1.406 . S
C402 N403 1.261 . S
N403 Co354 2.214 . S
N403 C401 1.325 . S
N403 C402 1.261 . S
C404 H374 0.931 . S
C404 C401 1.357 . S
C404 C405 1.312 . S
C405 H376 0.930 . S
C405 C400 1.261 . S
C405 C404 1.312 . S
C406 O378 1.214 . S
C406 O386 1.234 . S
C407 H379 0.929 . S
C407 C410 1.391 . S
C407 C412 1.391 . S
C408 H380 0.929 . S
C408 C409 1.390 . S
C408 N411 1.391 . S
C409 H381 0.930 . S
C409 C408 1.390 . S
C409 C410 1.392 . S
C410 H382 0.929 . S
C410 C407 1.391 . S
C410 C409 1.392 . S
N411 Co355 2.257 . S
N411 C408 1.391 . S
N411 C412 1.388 . S
C412 H383 0.930 . S
C412 C407 1.391 . S
C412 N411 1.388 . S
Co413 O415 2.143 . S
Co413 O421 2.074 . S
Co413 O424 2.093 . S
Co413 O437 2.097 . S
Co413 N454 2.151 . S
Co413 N462 2.214 . S
Co414 O415 2.160 1_455 S
Co414 O420 2.058 . S
Co414 O430 2.057 . S
Co414 O445 2.037 1_455 S
Co414 N449 2.145 . S
Co414 N470 2.257 . S
O415 Co413 2.143 . S
O415 Co414 2.160 1_655 S
C416 O417 1.278 . S
C416 O424 1.224 . S
O417 C416 1.278 . S
C418 O419 1.245 . S
C418 O430 1.232 . S
O419 C418 1.245 . S
O420 Co414 2.058 . S
O420 C446 1.269 . S
O421 Co413 2.074 . S
O421 C446 1.257 1_655 S
H422 C447 0.930 . S
H423 C453 0.930 . S
O424 Co413 2.093 . S
O424 C416 1.224 . S
H425 C457 0.929 1_565 S
H426 C459 0.930 . S
H427 C460 0.930 . S
H428 C458 0.929 . S
H429 C461 0.928 . S
O430 Co414 2.057 . S
O430 C418 1.232 . S
H431 C450 0.929 . S
H432 C451 0.929 . S
H433 C463 0.931 . S
H434 C455 0.929 . S
H435 C464 0.930 . S
H436 C456 0.931 . S
O437 Co413 2.097 . S
O437 C465 1.214 . S
H438 C466 0.929 . S
H439 C467 0.929 1_455 S
H440 C468 0.930 . S
H441 C469 0.929 . S
H442 C471 0.930 . S
H443 C448 0.930 . S
H444 C452 0.930 1_554 S
O445 Co414 2.037 1_655 S
O445 C465 1.234 . S
C446 O420 1.269 . S
C446 O421 1.257 1_455 S
C447 H422 0.930 . S
C447 C450 1.388 1_554 S
C447 C452 1.418 1_554 S
C448 H443 0.930 . S
C448 C451 1.404 . S
C448 C452 1.353 . S
N449 Co414 2.145 . S
N449 C450 1.397 . S
N449 C451 1.334 . S
C450 H431 0.929 . S
C450 C447 1.388 1_556 S
C450 N449 1.397 . S
C451 H432 0.929 . S
C451 C448 1.404 . S
C451 N449 1.334 . S
C452 H444 0.930 1_556 S
C452 C447 1.418 1_556 S
C452 C448 1.353 . S
C453 H423 0.930 . S
C453 N454 1.330 . S
C453 C455 1.446 . S
N454 Co413 2.151 . S
N454 C453 1.330 . S
N454 C458 1.418 . S
C455 H434 0.929 . S
C455 C453 1.446 . S
C455 C456 1.332 . S
C456 H436 0.931 . S
C456 C455 1.332 . S
C456 C457 1.267 . S
C457 H425 0.929 1_545 S
C457 C456 1.267 . S
C457 C458 1.251 . S
C458 H428 0.929 . S
C458 N454 1.418 . S
C458 C457 1.251 . S
C459 H426 0.930 . S
C459 C461 1.406 1_565 S
C459 C464 1.261 . S
C460 H427 0.930 . S
C460 N462 1.325 . S
C460 C463 1.357 1_545 S
C461 H429 0.928 . S
C461 C459 1.406 1_545 S
C461 N462 1.261 . S
N462 Co413 2.214 . S
N462 C460 1.325 . S
N462 C461 1.261 . S
C463 H433 0.931 . S
C463 C460 1.357 1_565 S
C463 C464 1.312 . S
C464 H435 0.930 . S
C464 C459 1.261 . S
C464 C463 1.312 . S
C465 O437 1.214 . S
C465 O445 1.234 . S
C466 H438 0.929 . S
C466 C469 1.391 . S
C466 C471 1.391 . S
C467 H439 0.929 1_655 S
C467 C468 1.390 . S
C467 N470 1.391 1_655 S
C468 H440 0.930 . S
C468 C467 1.390 . S
C468 C469 1.392 . S
C469 H441 0.929 . S
C469 C466 1.391 . S
C469 C468 1.392 . S
N470 Co414 2.257 . S
N470 C467 1.391 1_455 S
N470 C471 1.388 1_455 S
C471 H442 0.930 . S
C471 C466 1.391 . S
C471 N470 1.388 1_655 S
Co472 O474 2.143 . S
Co472 O480 2.074 . S
Co472 O483 2.093 . S
Co472 O496 2.097 . S
Co472 N513 2.151 . S
Co472 N521 2.214 . S
Co473 O474 2.160 . S
Co473 O479 2.058 . S
Co473 O489 2.057 . S
Co473 O504 2.037 . S
Co473 N508 2.145 . S
Co473 N529 2.257 . S
O474 Co472 2.143 . S
O474 Co473 2.160 . S
C475 O476 1.278 . S
C475 O483 1.224 . S
O476 C475 1.278 . S
C477 O478 1.245 . S
C477 O489 1.232 . S
O478 C477 1.245 . S
O479 Co473 2.058 . S
O479 C505 1.269 . S
O480 Co472 2.074 . S
O480 C505 1.257 . S
H481 C506 0.930 . S
H482 C512 0.930 . S
O483 Co472 2.093 . S
O483 C475 1.224 . S
H484 C516 0.929 . S
H485 C518 0.930 . S
H486 C519 0.930 . S
H487 C517 0.929 . S
H488 C520 0.928 . S
O489 Co473 2.057 . S
O489 C477 1.232 . S
H490 C509 0.929 . S
H491 C510 0.929 . S
H492 C522 0.931 . S
H493 C514 0.929 . S
H494 C523 0.930 . S
H495 C515 0.931 . S
O496 Co472 2.097 . S
O496 C524 1.214 . S
H497 C525 0.929 . S
H498 C526 0.929 . S
H499 C527 0.930 . S
H500 C528 0.929 . S
H501 C530 0.930 . S
H502 C507 0.930 . S
H503 C511 0.930 . S
O504 Co473 2.037 . S
O504 C524 1.234 . S
C505 O479 1.269 . S
C505 O480 1.257 . S
C506 H481 0.930 . S
C506 C509 1.388 . S
C506 C511 1.418 . S
C507 H502 0.930 . S
C507 C510 1.404 . S
C507 C511 1.353 . S
N508 Co473 2.145 . S
N508 C509 1.397 . S
N508 C510 1.334 . S
C509 H490 0.929 . S
C509 C506 1.388 . S
C509 N508 1.397 . S
C510 H491 0.929 . S
C510 C507 1.404 . S
C510 N508 1.334 . S
C511 H503 0.930 . S
C511 C506 1.418 . S
C511 C507 1.353 . S
C512 H482 0.930 . S
C512 N513 1.330 . S
C512 C514 1.446 . S
N513 Co472 2.151 . S
N513 C512 1.330 . S
N513 C517 1.418 . S
C514 H493 0.929 . S
C514 C512 1.446 . S
C514 C515 1.332 . S
C515 H495 0.931 . S
C515 C514 1.332 . S
C515 C516 1.267 . S
C516 H484 0.929 . S
C516 C515 1.267 . S
C516 C517 1.251 . S
C517 H487 0.929 . S
C517 N513 1.418 . S
C517 C516 1.251 . S
C518 H485 0.930 . S
C518 C520 1.406 . S
C518 C523 1.261 . S
C519 H486 0.930 . S
C519 N521 1.325 . S
C519 C522 1.357 . S
C520 H488 0.928 . S
C520 C518 1.406 . S
C520 N521 1.261 . S
N521 Co472 2.214 . S
N521 C519 1.325 . S
N521 C520 1.261 . S
C522 H492 0.931 . S
C522 C519 1.357 . S
C522 C523 1.312 . S
C523 H494 0.930 . S
C523 C518 1.261 . S
C523 C522 1.312 . S
C524 O496 1.214 . S
C524 O504 1.234 . S
C525 H497 0.929 . S
C525 C528 1.391 . S
C525 C530 1.391 . S
C526 H498 0.929 . S
C526 C527 1.390 . S
C526 N529 1.391 . S
C527 H499 0.930 . S
C527 C526 1.390 . S
C527 C528 1.392 . S
C528 H500 0.929 . S
C528 C525 1.391 . S
C528 C527 1.392 . S
N529 Co473 2.257 . S
N529 C526 1.391 . S
N529 C530 1.388 . S
C530 H501 0.930 . S
C530 C525 1.391 . S
C530 N529 1.388 . S
Co531 O533 2.143 . S
Co531 O539 2.074 . S
Co531 O542 2.093 . S
Co531 O555 2.097 . S
Co531 N572 2.151 . S
Co531 N580 2.214 . S
Co532 O533 2.160 . S
Co532 O538 2.058 . S
Co532 O548 2.057 . S
Co532 O563 2.037 . S
Co532 N567 2.145 . S
Co532 N588 2.257 . S
O533 Co531 2.143 . S
O533 Co532 2.160 . S
C534 O535 1.278 . S
C534 O542 1.224 . S
O535 C534 1.278 . S
C536 O537 1.245 . S
C536 O548 1.232 . S
O537 C536 1.245 . S
O538 Co532 2.058 . S
O538 C564 1.269 . S
O539 Co531 2.074 . S
O539 C564 1.257 . S
H540 C565 0.930 . S
H541 C571 0.930 . S
O542 Co531 2.093 . S
O542 C534 1.224 . S
H543 C575 0.929 1_655 S
H544 C577 0.930 . S
H545 C578 0.930 . S
H546 C576 0.929 . S
H547 C579 0.928 . S
O548 Co532 2.057 . S
O548 C536 1.232 . S
H549 C568 0.929 . S
H550 C569 0.929 . S
H551 C581 0.931 . S
H552 C573 0.929 . S
H553 C582 0.930 . S
H554 C574 0.931 . S
O555 Co531 2.097 . S
O555 C583 1.214 . S
H556 C584 0.929 . S
H557 C585 0.929 . S
H558 C586 0.930 . S
H559 C587 0.929 . S
H560 C589 0.930 . S
H561 C566 0.930 . S
H562 C570 0.930 1_565 S
O563 Co532 2.037 . S
O563 C583 1.234 . S
C564 O538 1.269 . S
C564 O539 1.257 . S
C565 H540 0.930 . S
C565 C568 1.388 1_565 S
C565 C570 1.418 1_565 S
C566 H561 0.930 . S
C566 C569 1.404 . S
C566 C570 1.353 . S
N567 Co532 2.145 . S
N567 C568 1.397 . S
N567 C569 1.334 . S
C568 H549 0.929 . S
C568 C565 1.388 1_545 S
C568 N567 1.397 . S
C569 H550 0.929 . S
C569 C566 1.404 . S
C569 N567 1.334 . S
C570 H562 0.930 1_545 S
C570 C565 1.418 1_545 S
C570 C566 1.353 . S
C571 H541 0.930 . S
C571 N572 1.330 . S
C571 C573 1.446 . S
N572 Co531 2.151 . S
N572 C571 1.330 . S
N572 C576 1.418 . S
C573 H552 0.929 . S
C573 C571 1.446 . S
C573 C574 1.332 . S
C574 H554 0.931 . S
C574 C573 1.332 . S
C574 C575 1.267 . S
C575 H543 0.929 1_455 S
C575 C574 1.267 . S
C575 C576 1.251 . S
C576 H546 0.929 . S
C576 N572 1.418 . S
C576 C575 1.251 . S
C577 H544 0.930 . S
C577 C579 1.406 1_655 S
C577 C582 1.261 . S
C578 H545 0.930 . S
C578 N580 1.325 . S
C578 C581 1.357 1_455 S
C579 H547 0.928 . S
C579 C577 1.406 1_455 S
C579 N580 1.261 . S
N580 Co531 2.214 . S
N580 C578 1.325 . S
N580 C579 1.261 . S
C581 H551 0.931 . S
C581 C578 1.357 1_655 S
C581 C582 1.312 . S
C582 H553 0.930 . S
C582 C577 1.261 . S
C582 C581 1.312 . S
C583 O555 1.214 . S
C583 O563 1.234 . S
C584 H556 0.929 . S
C584 C587 1.391 . S
C584 C589 1.391 . S
C585 H557 0.929 . S
C585 C586 1.390 . S
C585 N588 1.391 . S
C586 H558 0.930 . S
C586 C585 1.390 . S
C586 C587 1.392 . S
C587 H559 0.929 . S
C587 C584 1.391 . S
C587 C586 1.392 . S
N588 Co532 2.257 . S
N588 C585 1.391 . S
N588 C589 1.388 . S
C589 H560 0.930 . S
C589 C584 1.391 . S
C589 N588 1.388 . S
Co590 O592 2.143 . S
Co590 O598 2.074 . S
Co590 O601 2.093 . S
Co590 O614 2.097 . S
Co590 N631 2.151 . S
Co590 N639 2.214 . S
Co591 O592 2.160 . S
Co591 O597 2.058 . S
Co591 O607 2.057 . S
Co591 O622 2.037 . S
Co591 N626 2.145 . S
Co591 N647 2.257 . S
O592 Co590 2.143 . S
O592 Co591 2.160 . S
C593 O594 1.278 . S
C593 O601 1.224 . S
O594 C593 1.278 . S
C595 O596 1.245 . S
C595 O607 1.232 . S
O596 C595 1.245 . S
O597 Co591 2.058 . S
O597 C623 1.269 . S
O598 Co590 2.074 . S
O598 C623 1.257 . S
H599 C624 0.930 . S
H600 C630 0.930 . S
O601 Co590 2.093 . S
O601 C593 1.224 . S
H602 C634 0.929 . S
H603 C636 0.930 . S
H604 C637 0.930 . S
H605 C635 0.929 . S
H606 C638 0.928 . S
O607 Co591 2.057 . S
O607 C595 1.232 . S
H608 C627 0.929 . S
H609 C628 0.929 . S
H610 C640 0.931 . S
H611 C632 0.929 . S
H612 C641 0.930 . S
H613 C633 0.931 . S
O614 Co590 2.097 . S
O614 C642 1.214 . S
H615 C643 0.929 . S
H616 C644 0.929 . S
H617 C645 0.930 . S
H618 C646 0.929 . S
H619 C648 0.930 . S
H620 C625 0.930 . S
H621 C629 0.930 . S
O622 Co591 2.037 . S
O622 C642 1.234 . S
C623 O597 1.269 . S
C623 O598 1.257 . S
C624 H599 0.930 . S
C624 C627 1.388 . S
C624 C629 1.418 . S
C625 H620 0.930 . S
C625 C628 1.404 . S
C625 C629 1.353 . S
N626 Co591 2.145 . S
N626 C627 1.397 . S
N626 C628 1.334 . S
C627 H608 0.929 . S
C627 C624 1.388 . S
C627 N626 1.397 . S
C628 H609 0.929 . S
C628 C625 1.404 . S
C628 N626 1.334 . S
C629 H621 0.930 . S
C629 C624 1.418 . S
C629 C625 1.353 . S
C630 H600 0.930 . S
C630 N631 1.330 . S
C630 C632 1.446 . S
N631 Co590 2.151 . S
N631 C630 1.330 . S
N631 C635 1.418 . S
C632 H611 0.929 . S
C632 C630 1.446 . S
C632 C633 1.332 . S
C633 H613 0.931 . S
C633 C632 1.332 . S
C633 C634 1.267 . S
C634 H602 0.929 . S
C634 C633 1.267 . S
C634 C635 1.251 . S
C635 H605 0.929 . S
C635 N631 1.418 . S
C635 C634 1.251 . S
C636 H603 0.930 . S
C636 C638 1.406 . S
C636 C641 1.261 . S
C637 H604 0.930 . S
C637 N639 1.325 . S
C637 C640 1.357 . S
C638 H606 0.928 . S
C638 C636 1.406 . S
C638 N639 1.261 . S
N639 Co590 2.214 . S
N639 C637 1.325 . S
N639 C638 1.261 . S
C640 H610 0.931 . S
C640 C637 1.357 . S
C640 C641 1.312 . S
C641 H612 0.930 . S
C641 C636 1.261 . S
C641 C640 1.312 . S
C642 O614 1.214 . S
C642 O622 1.234 . S
C643 H615 0.929 . S
C643 C646 1.391 . S
C643 C648 1.391 . S
C644 H616 0.929 . S
C644 C645 1.390 . S
C644 N647 1.391 . S
C645 H617 0.930 . S
C645 C644 1.390 . S
C645 C646 1.392 . S
C646 H618 0.929 . S
C646 C643 1.391 . S
C646 C645 1.392 . S
N647 Co591 2.257 . S
N647 C644 1.391 . S
N647 C648 1.388 . S
C648 H619 0.930 . S
C648 C643 1.391 . S
C648 N647 1.388 . S
Co649 O651 2.143 . S
Co649 O657 2.074 . S
Co649 O660 2.093 . S
Co649 O673 2.097 . S
Co649 N690 2.151 . S
Co649 N698 2.214 . S
Co650 O651 2.160 1_556 S
Co650 O656 2.058 . S
Co650 O666 2.057 . S
Co650 O681 2.037 1_556 S
Co650 N685 2.145 . S
Co650 N706 2.257 . S
O651 Co649 2.143 . S
O651 Co650 2.160 1_554 S
C652 O653 1.278 . S
C652 O660 1.224 . S
O653 C652 1.278 . S
C654 O655 1.245 . S
C654 O666 1.232 . S
O655 C654 1.245 . S
O656 Co650 2.058 . S
O656 C682 1.269 . S
O657 Co649 2.074 . S
O657 C682 1.257 1_554 S
H658 C683 0.930 . S
H659 C689 0.930 . S
O660 Co649 2.093 . S
O660 C652 1.224 . S
H661 C693 0.929 . S
H662 C695 0.930 . S
H663 C696 0.930 . S
H664 C694 0.929 . S
H665 C697 0.928 . S
O666 Co650 2.057 . S
O666 C654 1.232 . S
H667 C686 0.929 . S
H668 C687 0.929 . S
H669 C699 0.931 . S
H670 C691 0.929 . S
H671 C700 0.930 . S
H672 C692 0.931 . S
O673 Co649 2.097 . S
O673 C701 1.214 . S
H674 C702 0.929 . S
H675 C703 0.929 1_556 S
H676 C704 0.930 . S
H677 C705 0.929 . S
H678 C707 0.930 . S
H679 C684 0.930 . S
H680 C688 0.930 1_545 S
O681 Co650 2.037 1_554 S
O681 C701 1.234 . S
C682 O656 1.269 . S
C682 O657 1.257 1_556 S
C683 H658 0.930 . S
C683 C686 1.388 1_545 S
C683 C688 1.418 1_545 S
C684 H679 0.930 . S
C684 C687 1.404 . S
C684 C688 1.353 . S
N685 Co650 2.145 . S
N685 C686 1.397 . S
N685 C687 1.334 . S
C686 H667 0.929 . S
C686 C683 1.388 1_565 S
C686 N685 1.397 . S
C687 H668 0.929 . S
C687 C684 1.404 . S
C687 N685 1.334 . S
C688 H680 0.930 1_565 S
C688 C683 1.418 1_565 S
C688 C684 1.353 . S
C689 H659 0.930 . S
C689 N690 1.330 . S
C689 C691 1.446 . S
N690 Co649 2.151 . S
N690 C689 1.330 . S
N690 C694 1.418 . S
C691 H670 0.929 . S
C691 C689 1.446 . S
C691 C692 1.332 . S
C692 H672 0.931 . S
C692 C691 1.332 . S
C692 C693 1.267 . S
C693 H661 0.929 . S
C693 C692 1.267 . S
C693 C694 1.251 . S
C694 H664 0.929 . S
C694 N690 1.418 . S
C694 C693 1.251 . S
C695 H662 0.930 . S
C695 C697 1.406 . S
C695 C700 1.261 . S
C696 H663 0.930 . S
C696 N698 1.325 . S
C696 C699 1.357 . S
C697 H665 0.928 . S
C697 C695 1.406 . S
C697 N698 1.261 . S
N698 Co649 2.214 . S
N698 C696 1.325 . S
N698 C697 1.261 . S
C699 H669 0.931 . S
C699 C696 1.357 . S
C699 C700 1.312 . S
C700 H671 0.930 . S
C700 C695 1.261 . S
C700 C699 1.312 . S
C701 O673 1.214 . S
C701 O681 1.234 . S
C702 H674 0.929 . S
C702 C705 1.391 . S
C702 C707 1.391 . S
C703 H675 0.929 1_554 S
C703 C704 1.390 . S
C703 N706 1.391 1_554 S
C704 H676 0.930 . S
C704 C703 1.390 . S
C704 C705 1.392 . S
C705 H677 0.929 . S
C705 C702 1.391 . S
C705 C704 1.392 . S
N706 Co650 2.257 . S
N706 C703 1.391 1_556 S
N706 C707 1.388 1_556 S
C707 H678 0.930 . S
C707 C702 1.391 . S
C707 N706 1.388 1_554 S
Co708 O710 2.143 . S
Co708 O716 2.074 . S
Co708 O719 2.093 . S
Co708 O732 2.097 . S
Co708 N749 2.151 . S
Co708 N757 2.214 . S
Co709 O710 2.160 . S
Co709 O715 2.058 . S
Co709 O725 2.057 . S
Co709 O740 2.037 . S
Co709 N744 2.145 . S
Co709 N765 2.257 . S
O710 Co708 2.143 . S
O710 Co709 2.160 . S
C711 O712 1.278 . S
C711 O719 1.224 . S
O712 C711 1.278 . S
C713 O714 1.245 . S
C713 O725 1.232 . S
O714 C713 1.245 . S
O715 Co709 2.058 . S
O715 C741 1.269 . S
O716 Co708 2.074 . S
O716 C741 1.257 . S
H717 C742 0.930 . S
H718 C748 0.930 . S
O719 Co708 2.093 . S
O719 C711 1.224 . S
H720 C752 0.929 . S
H721 C754 0.930 . S
H722 C755 0.930 . S
H723 C753 0.929 . S
H724 C756 0.928 . S
O725 Co709 2.057 . S
O725 C713 1.232 . S
H726 C745 0.929 . S
H727 C746 0.929 . S
H728 C758 0.931 . S
H729 C750 0.929 . S
H730 C759 0.930 . S
H731 C751 0.931 . S
O732 Co708 2.097 . S
O732 C760 1.214 . S
H733 C761 0.929 . S
H734 C762 0.929 . S
H735 C763 0.930 . S
H736 C764 0.929 . S
H737 C766 0.930 . S
H738 C743 0.930 . S
H739 C747 0.930 . S
O740 Co709 2.037 . S
O740 C760 1.234 . S
C741 O715 1.269 . S
C741 O716 1.257 . S
C742 H717 0.930 . S
C742 C745 1.388 . S
C742 C747 1.418 . S
C743 H738 0.930 . S
C743 C746 1.404 . S
C743 C747 1.353 . S
N744 Co709 2.145 . S
N744 C745 1.397 . S
N744 C746 1.334 . S
C745 H726 0.929 . S
C745 C742 1.388 . S
C745 N744 1.397 . S
C746 H727 0.929 . S
C746 C743 1.404 . S
C746 N744 1.334 . S
C747 H739 0.930 . S
C747 C742 1.418 . S
C747 C743 1.353 . S
C748 H718 0.930 . S
C748 N749 1.330 . S
C748 C750 1.446 . S
N749 Co708 2.151 . S
N749 C748 1.330 . S
N749 C753 1.418 . S
C750 H729 0.929 . S
C750 C748 1.446 . S
C750 C751 1.332 . S
C751 H731 0.931 . S
C751 C750 1.332 . S
C751 C752 1.267 . S
C752 H720 0.929 . S
C752 C751 1.267 . S
C752 C753 1.251 . S
C753 H723 0.929 . S
C753 N749 1.418 . S
C753 C752 1.251 . S
C754 H721 0.930 . S
C754 C756 1.406 . S
C754 C759 1.261 . S
C755 H722 0.930 . S
C755 N757 1.325 . S
C755 C758 1.357 . S
C756 H724 0.928 . S
C756 C754 1.406 . S
C756 N757 1.261 . S
N757 Co708 2.214 . S
N757 C755 1.325 . S
N757 C756 1.261 . S
C758 H728 0.931 . S
C758 C755 1.357 . S
C758 C759 1.312 . S
C759 H730 0.930 . S
C759 C754 1.261 . S
C759 C758 1.312 . S
C760 O732 1.214 . S
C760 O740 1.234 . S
C761 H733 0.929 . S
C761 C764 1.391 . S
C761 C766 1.391 . S
C762 H734 0.929 . S
C762 C763 1.390 . S
C762 N765 1.391 . S
C763 H735 0.930 . S
C763 C762 1.390 . S
C763 C764 1.392 . S
C764 H736 0.929 . S
C764 C761 1.391 . S
C764 C763 1.392 . S
N765 Co709 2.257 . S
N765 C762 1.391 . S
N765 C766 1.388 . S
C766 H737 0.930 . S
C766 C761 1.391 . S
C766 N765 1.388 . S
Co767 O769 2.143 . S
Co767 O775 2.074 . S
Co767 O778 2.093 . S
Co767 O791 2.097 . S
Co767 N808 2.151 . S
Co767 N816 2.214 . S
Co768 O769 2.160 . S
Co768 O774 2.058 . S
Co768 O784 2.057 . S
Co768 O799 2.037 . S
Co768 N803 2.145 . S
Co768 N824 2.257 . S
O769 Co767 2.143 . S
O769 Co768 2.160 . S
C770 O771 1.278 . S
C770 O778 1.224 . S
O771 C770 1.278 . S
C772 O773 1.245 . S
C772 O784 1.232 . S
O773 C772 1.245 . S
O774 Co768 2.058 . S
O774 C800 1.269 . S
O775 Co767 2.074 . S
O775 C800 1.257 . S
H776 C801 0.930 . S
H777 C807 0.930 . S
O778 Co767 2.093 . S
O778 C770 1.224 . S
H779 C811 0.929 . S
H780 C813 0.930 . S
H781 C814 0.930 . S
H782 C812 0.929 . S
H783 C815 0.928 . S
O784 Co768 2.057 . S
O784 C772 1.232 . S
H785 C804 0.929 . S
H786 C805 0.929 . S
H787 C817 0.931 . S
H788 C809 0.929 . S
H789 C818 0.930 . S
H790 C810 0.931 . S
O791 Co767 2.097 . S
O791 C819 1.214 . S
H792 C820 0.929 . S
H793 C821 0.929 . S
H794 C822 0.930 . S
H795 C823 0.929 . S
H796 C825 0.930 . S
H797 C802 0.930 . S
H798 C806 0.930 1_565 S
O799 Co768 2.037 . S
O799 C819 1.234 . S
C800 O774 1.269 . S
C800 O775 1.257 . S
C801 H776 0.930 . S
C801 C804 1.388 1_565 S
C801 C806 1.418 1_565 S
C802 H797 0.930 . S
C802 C805 1.404 . S
C802 C806 1.353 . S
N803 Co768 2.145 . S
N803 C804 1.397 . S
N803 C805 1.334 . S
C804 H785 0.929 . S
C804 C801 1.388 1_545 S
C804 N803 1.397 . S
C805 H786 0.929 . S
C805 C802 1.404 . S
C805 N803 1.334 . S
C806 H798 0.930 1_545 S
C806 C801 1.418 1_545 S
C806 C802 1.353 . S
C807 H777 0.930 . S
C807 N808 1.330 . S
C807 C809 1.446 . S
N808 Co767 2.151 . S
N808 C807 1.330 . S
N808 C812 1.418 . S
C809 H788 0.929 . S
C809 C807 1.446 . S
C809 C810 1.332 . S
C810 H790 0.931 . S
C810 C809 1.332 . S
C810 C811 1.267 . S
C811 H779 0.929 . S
C811 C810 1.267 . S
C811 C812 1.251 . S
C812 H782 0.929 . S
C812 N808 1.418 . S
C812 C811 1.251 . S
C813 H780 0.930 . S
C813 C815 1.406 . S
C813 C818 1.261 . S
C814 H781 0.930 . S
C814 N816 1.325 . S
C814 C817 1.357 . S
C815 H783 0.928 . S
C815 C813 1.406 . S
C815 N816 1.261 . S
N816 Co767 2.214 . S
N816 C814 1.325 . S
N816 C815 1.261 . S
C817 H787 0.931 . S
C817 C814 1.357 . S
C817 C818 1.312 . S
C818 H789 0.930 . S
C818 C813 1.261 . S
C818 C817 1.312 . S
C819 O791 1.214 . S
C819 O799 1.234 . S
C820 H792 0.929 . S
C820 C823 1.391 . S
C820 C825 1.391 . S
C821 H793 0.929 . S
C821 C822 1.390 . S
C821 N824 1.391 . S
C822 H794 0.930 . S
C822 C821 1.390 . S
C822 C823 1.392 . S
C823 H795 0.929 . S
C823 C820 1.391 . S
C823 C822 1.392 . S
N824 Co768 2.257 . S
N824 C821 1.391 . S
N824 C825 1.388 . S
C825 H796 0.930 . S
C825 C820 1.391 . S
C825 N824 1.388 . S
Co826 O828 2.143 . S
Co826 O834 2.074 . S
Co826 O837 2.093 . S
Co826 O850 2.097 . S
Co826 N867 2.151 . S
Co826 N875 2.214 . S
Co827 O828 2.160 . S
Co827 O833 2.058 . S
Co827 O843 2.057 . S
Co827 O858 2.037 . S
Co827 N862 2.145 . S
Co827 N883 2.257 . S
O828 Co826 2.143 . S
O828 Co827 2.160 . S
C829 O830 1.278 . S
C829 O837 1.224 . S
O830 C829 1.278 . S
C831 O832 1.245 . S
C831 O843 1.232 . S
O832 C831 1.245 . S
O833 Co827 2.058 . S
O833 C859 1.269 . S
O834 Co826 2.074 . S
O834 C859 1.257 . S
H835 C860 0.930 . S
H836 C866 0.930 . S
O837 Co826 2.093 . S
O837 C829 1.224 . S
H838 C870 0.929 . S
H839 C872 0.930 . S
H840 C873 0.930 . S
H841 C871 0.929 . S
H842 C874 0.928 . S
O843 Co827 2.057 . S
O843 C831 1.232 . S
H844 C863 0.929 . S
H845 C864 0.929 . S
H846 C876 0.931 . S
H847 C868 0.929 . S
H848 C877 0.930 . S
H849 C869 0.931 . S
O850 Co826 2.097 . S
O850 C878 1.214 . S
H851 C879 0.929 . S
H852 C880 0.929 . S
H853 C881 0.930 . S
H854 C882 0.929 . S
H855 C884 0.930 . S
H856 C861 0.930 . S
H857 C865 0.930 . S
O858 Co827 2.037 . S
O858 C878 1.234 . S
C859 O833 1.269 . S
C859 O834 1.257 . S
C860 H835 0.930 . S
C860 C863 1.388 . S
C860 C865 1.418 . S
C861 H856 0.930 . S
C861 C864 1.404 . S
C861 C865 1.353 . S
N862 Co827 2.145 . S
N862 C863 1.397 . S
N862 C864 1.334 . S
C863 H844 0.929 . S
C863 C860 1.388 . S
C863 N862 1.397 . S
C864 H845 0.929 . S
C864 C861 1.404 . S
C864 N862 1.334 . S
C865 H857 0.930 . S
C865 C860 1.418 . S
C865 C861 1.353 . S
C866 H836 0.930 . S
C866 N867 1.330 . S
C866 C868 1.446 . S
N867 Co826 2.151 . S
N867 C866 1.330 . S
N867 C871 1.418 . S
C868 H847 0.929 . S
C868 C866 1.446 . S
C868 C869 1.332 . S
C869 H849 0.931 . S
C869 C868 1.332 . S
C869 C870 1.267 . S
C870 H838 0.929 . S
C870 C869 1.267 . S
C870 C871 1.251 . S
C871 H841 0.929 . S
C871 N867 1.418 . S
C871 C870 1.251 . S
C872 H839 0.930 . S
C872 C874 1.406 . S
C872 C877 1.261 . S
C873 H840 0.930 . S
C873 N875 1.325 . S
C873 C876 1.357 . S
C874 H842 0.928 . S
C874 C872 1.406 . S
C874 N875 1.261 . S
N875 Co826 2.214 . S
N875 C873 1.325 . S
N875 C874 1.261 . S
C876 H846 0.931 . S
C876 C873 1.357 . S
C876 C877 1.312 . S
C877 H848 0.930 . S
C877 C872 1.261 . S
C877 C876 1.312 . S
C878 O850 1.214 . S
C878 O858 1.234 . S
C879 H851 0.929 . S
C879 C882 1.391 . S
C879 C884 1.391 . S
C880 H852 0.929 . S
C880 C881 1.390 . S
C880 N883 1.391 . S
C881 H853 0.930 . S
C881 C880 1.390 . S
C881 C882 1.392 . S
C882 H854 0.929 . S
C882 C879 1.391 . S
C882 C881 1.392 . S
N883 Co827 2.257 . S
N883 C880 1.391 . S
N883 C884 1.388 . S
C884 H855 0.930 . S
C884 C879 1.391 . S
C884 N883 1.388 . S
Co885 O887 2.143 . S
Co885 O893 2.074 . S
Co885 O896 2.093 . S
Co885 O909 2.097 . S
Co885 N926 2.151 . S
Co885 N934 2.214 . S
Co886 O887 2.160 1_554 S
Co886 O892 2.058 . S
Co886 O902 2.057 . S
Co886 O917 2.037 1_554 S
Co886 N921 2.145 . S
Co886 N942 2.257 . S
O887 Co885 2.143 . S
O887 Co886 2.160 1_556 S
C888 O889 1.278 . S
C888 O896 1.224 . S
O889 C888 1.278 . S
C890 O891 1.245 . S
C890 O902 1.232 . S
O891 C890 1.245 . S
O892 Co886 2.058 . S
O892 C918 1.269 . S
O893 Co885 2.074 . S
O893 C918 1.257 1_556 S
H894 C919 0.930 . S
H895 C925 0.930 . S
O896 Co885 2.093 . S
O896 C888 1.224 . S
H897 C929 0.929 1_655 S
H898 C931 0.930 . S
H899 C932 0.930 . S
H900 C930 0.929 . S
H901 C933 0.928 . S
O902 Co886 2.057 . S
O902 C890 1.232 . S
H903 C922 0.929 . S
H904 C923 0.929 . S
H905 C935 0.931 . S
H906 C927 0.929 . S
H907 C936 0.930 . S
H908 C928 0.931 . S
O909 Co885 2.097 . S
O909 C937 1.214 . S
H910 C938 0.929 . S
H911 C939 0.929 1_554 S
H912 C940 0.930 . S
H913 C941 0.929 . S
H914 C943 0.930 . S
H915 C920 0.930 . S
H916 C924 0.930 1_545 S
O917 Co886 2.037 1_556 S
O917 C937 1.234 . S
C918 O892 1.269 . S
C918 O893 1.257 1_554 S
C919 H894 0.930 . S
C919 C922 1.388 1_545 S
C919 C924 1.418 1_545 S
C920 H915 0.930 . S
C920 C923 1.404 . S
C920 C924 1.353 . S
N921 Co886 2.145 . S
N921 C922 1.397 . S
N921 C923 1.334 . S
C922 H903 0.929 . S
C922 C919 1.388 1_565 S
C922 N921 1.397 . S
C923 H904 0.929 . S
C923 C920 1.404 . S
C923 N921 1.334 . S
C924 H916 0.930 1_565 S
C924 C919 1.418 1_565 S
C924 C920 1.353 . S
C925 H895 0.930 . S
C925 N926 1.330 . S
C925 C927 1.446 . S
N926 Co885 2.151 . S
N926 C925 1.330 . S
N926 C930 1.418 . S
C927 H906 0.929 . S
C927 C925 1.446 . S
C927 C928 1.332 . S
C928 H908 0.931 . S
C928 C927 1.332 . S
C928 C929 1.267 . S
C929 H897 0.929 1_455 S
C929 C928 1.267 . S
C929 C930 1.251 . S
C930 H900 0.929 . S
C930 N926 1.418 . S
C930 C929 1.251 . S
C931 H898 0.930 . S
C931 C933 1.406 1_655 S
C931 C936 1.261 . S
C932 H899 0.930 . S
C932 N934 1.325 . S
C932 C935 1.357 1_455 S
C933 H901 0.928 . S
C933 C931 1.406 1_455 S
C933 N934 1.261 . S
N934 Co885 2.214 . S
N934 C932 1.325 . S
N934 C933 1.261 . S
C935 H905 0.931 . S
C935 C932 1.357 1_655 S
C935 C936 1.312 . S
C936 H907 0.930 . S
C936 C931 1.261 . S
C936 C935 1.312 . S
C937 O909 1.214 . S
C937 O917 1.234 . S
C938 H910 0.929 . S
C938 C941 1.391 . S
C938 C943 1.391 . S
C939 H911 0.929 1_556 S
C939 C940 1.390 . S
C939 N942 1.391 1_556 S
C940 H912 0.930 . S
C940 C939 1.390 . S
C940 C941 1.392 . S
C941 H913 0.929 . S
C941 C938 1.391 . S
C941 C940 1.392 . S
N942 Co886 2.257 . S
N942 C939 1.391 1_554 S
N942 C943 1.388 1_554 S
C943 H914 0.930 . S
C943 C938 1.391 . S
C943 N942 1.388 1_556 S
Co944 O946 2.143 . S
Co944 O952 2.074 . S
Co944 O955 2.093 . S
Co944 O968 2.097 . S
Co944 N985 2.151 . S
Co944 N993 2.214 . S
Co945 O946 2.160 . S
Co945 O951 2.058 . S
Co945 O961 2.057 . S
Co945 O976 2.037 . S
Co945 N980 2.145 . S
Co945 N1001 2.257 . S
O946 Co944 2.143 . S
O946 Co945 2.160 . S
C947 O948 1.278 . S
C947 O955 1.224 . S
O948 C947 1.278 . S
C949 O950 1.245 . S
C949 O961 1.232 . S
O950 C949 1.245 . S
O951 Co945 2.058 . S
O951 C977 1.269 . S
O952 Co944 2.074 . S
O952 C977 1.257 . S
H953 C978 0.930 . S
H954 C984 0.930 . S
O955 Co944 2.093 . S
O955 C947 1.224 . S
H956 C988 0.929 . S
H957 C990 0.930 . S
H958 C991 0.930 . S
H959 C989 0.929 . S
H960 C992 0.928 . S
O961 Co945 2.057 . S
O961 C949 1.232 . S
H962 C981 0.929 . S
H963 C982 0.929 . S
H964 C994 0.931 . S
H965 C986 0.929 . S
H966 C995 0.930 . S
H967 C987 0.931 . S
O968 Co944 2.097 . S
O968 C996 1.214 . S
H969 C997 0.929 . S
H970 C998 0.929 . S
H971 C999 0.930 . S
H972 C1000 0.929 . S
H973 C1002 0.930 . S
H974 C979 0.930 . S
H975 C983 0.930 . S
O976 Co945 2.037 . S
O976 C996 1.234 . S
C977 O951 1.269 . S
C977 O952 1.257 . S
C978 H953 0.930 . S
C978 C981 1.388 . S
C978 C983 1.418 . S
C979 H974 0.930 . S
C979 C982 1.404 . S
C979 C983 1.353 . S
N980 Co945 2.145 . S
N980 C981 1.397 . S
N980 C982 1.334 . S
C981 H962 0.929 . S
C981 C978 1.388 . S
C981 N980 1.397 . S
C982 H963 0.929 . S
C982 C979 1.404 . S
C982 N980 1.334 . S
C983 H975 0.930 . S
C983 C978 1.418 . S
C983 C979 1.353 . S
C984 H954 0.930 . S
C984 N985 1.330 . S
C984 C986 1.446 . S
N985 Co944 2.151 . S
N985 C984 1.330 . S
N985 C989 1.418 . S
C986 H965 0.929 . S
C986 C984 1.446 . S
C986 C987 1.332 . S
C987 H967 0.931 . S
C987 C986 1.332 . S
C987 C988 1.267 . S
C988 H956 0.929 . S
C988 C987 1.267 . S
C988 C989 1.251 . S
C989 H959 0.929 . S
C989 N985 1.418 . S
C989 C988 1.251 . S
C990 H957 0.930 . S
C990 C992 1.406 . S
C990 C995 1.261 . S
C991 H958 0.930 . S
C991 N993 1.325 . S
C991 C994 1.357 . S
C992 H960 0.928 . S
C992 C990 1.406 . S
C992 N993 1.261 . S
N993 Co944 2.214 . S
N993 C991 1.325 . S
N993 C992 1.261 . S
C994 H964 0.931 . S
C994 C991 1.357 . S
C994 C995 1.312 . S
C995 H966 0.930 . S
C995 C990 1.261 . S
C995 C994 1.312 . S
C996 O968 1.214 . S
C996 O976 1.234 . S
C997 H969 0.929 . S
C997 C1000 1.391 . S
C997 C1002 1.391 . S
C998 H970 0.929 . S
C998 C999 1.390 . S
C998 N1001 1.391 . S
C999 H971 0.930 . S
C999 C998 1.390 . S
C999 C1000 1.392 . S
C1000 H972 0.929 . S
C1000 C997 1.391 . S
C1000 C999 1.392 . S
N1001 Co945 2.257 . S
N1001 C998 1.391 . S
N1001 C1002 1.388 . S
C1002 H973 0.930 . S
C1002 C997 1.391 . S
C1002 N1001 1.388 . S
Co1003 O1005 2.143 . S
Co1003 O1011 2.074 . S
Co1003 O1014 2.093 . S
Co1003 O1027 2.097 . S
Co1003 N1044 2.151 . S
Co1003 N1052 2.214 . S
Co1004 O1005 2.160 . S
Co1004 O1010 2.058 . S
Co1004 O1020 2.057 . S
Co1004 O1035 2.037 . S
Co1004 N1039 2.145 . S
Co1004 N1060 2.257 . S
O1005 Co1003 2.143 . S
O1005 Co1004 2.160 . S
C1006 O1007 1.278 . S
C1006 O1014 1.224 . S
O1007 C1006 1.278 . S
C1008 O1009 1.245 . S
C1008 O1020 1.232 . S
O1009 C1008 1.245 . S
O1010 Co1004 2.058 . S
O1010 C1036 1.269 . S
O1011 Co1003 2.074 . S
O1011 C1036 1.257 . S
H1012 C1037 0.930 . S
H1013 C1043 0.930 . S
O1014 Co1003 2.093 . S
O1014 C1006 1.224 . S
H1015 C1047 0.929 . S
H1016 C1049 0.930 . S
H1017 C1050 0.930 . S
H1018 C1048 0.929 . S
H1019 C1051 0.928 . S
O1020 Co1004 2.057 . S
O1020 C1008 1.232 . S
H1021 C1040 0.929 . S
H1022 C1041 0.929 . S
H1023 C1053 0.931 . S
H1024 C1045 0.929 . S
H1025 C1054 0.930 . S
H1026 C1046 0.931 . S
O1027 Co1003 2.097 . S
O1027 C1055 1.214 . S
H1028 C1056 0.929 . S
H1029 C1057 0.929 . S
H1030 C1058 0.930 . S
H1031 C1059 0.929 . S
H1032 C1061 0.930 . S
H1033 C1038 0.930 . S
H1034 C1042 0.930 . S
O1035 Co1004 2.037 . S
O1035 C1055 1.234 . S
C1036 O1010 1.269 . S
C1036 O1011 1.257 . S
C1037 H1012 0.930 . S
C1037 C1040 1.388 . S
C1037 C1042 1.418 . S
C1038 H1033 0.930 . S
C1038 C1041 1.404 . S
C1038 C1042 1.353 . S
N1039 Co1004 2.145 . S
N1039 C1040 1.397 . S
N1039 C1041 1.334 . S
C1040 H1021 0.929 . S
C1040 C1037 1.388 . S
C1040 N1039 1.397 . S
C1041 H1022 0.929 . S
C1041 C1038 1.404 . S
C1041 N1039 1.334 . S
C1042 H1034 0.930 . S
C1042 C1037 1.418 . S
C1042 C1038 1.353 . S
C1043 H1013 0.930 . S
C1043 N1044 1.330 . S
C1043 C1045 1.446 . S
N1044 Co1003 2.151 . S
N1044 C1043 1.330 . S
N1044 C1048 1.418 . S
C1045 H1024 0.929 . S
C1045 C1043 1.446 . S
C1045 C1046 1.332 . S
C1046 H1026 0.931 . S
C1046 C1045 1.332 . S
C1046 C1047 1.267 . S
C1047 H1015 0.929 . S
C1047 C1046 1.267 . S
C1047 C1048 1.251 . S
C1048 H1018 0.929 . S
C1048 N1044 1.418 . S
C1048 C1047 1.251 . S
C1049 H1016 0.930 . S
C1049 C1051 1.406 . S
C1049 C1054 1.261 . S
C1050 H1017 0.930 . S
C1050 N1052 1.325 . S
C1050 C1053 1.357 . S
C1051 H1019 0.928 . S
C1051 C1049 1.406 . S
C1051 N1052 1.261 . S
N1052 Co1003 2.214 . S
N1052 C1050 1.325 . S
N1052 C1051 1.261 . S
C1053 H1023 0.931 . S
C1053 C1050 1.357 . S
C1053 C1054 1.312 . S
C1054 H1025 0.930 . S
C1054 C1049 1.261 . S
C1054 C1053 1.312 . S
C1055 O1027 1.214 . S
C1055 O1035 1.234 . S
C1056 H1028 0.929 . S
C1056 C1059 1.391 . S
C1056 C1061 1.391 . S
C1057 H1029 0.929 . S
C1057 C1058 1.390 . S
C1057 N1060 1.391 . S
C1058 H1030 0.930 . S
C1058 C1057 1.390 . S
C1058 C1059 1.392 . S
C1059 H1031 0.929 . S
C1059 C1056 1.391 . S
C1059 C1058 1.392 . S
N1060 Co1004 2.257 . S
N1060 C1057 1.391 . S
N1060 C1061 1.388 . S
C1061 H1032 0.930 . S
C1061 C1056 1.391 . S
C1061 N1060 1.388 . S
Co1062 O1064 2.143 . S
Co1062 O1070 2.074 . S
Co1062 O1073 2.093 . S
Co1062 O1086 2.097 . S
Co1062 N1103 2.151 . S
Co1062 N1111 2.214 . S
Co1063 O1064 2.160 . S
Co1063 O1069 2.058 . S
Co1063 O1079 2.057 . S
Co1063 O1094 2.037 . S
Co1063 N1098 2.145 . S
Co1063 N1119 2.257 . S
O1064 Co1062 2.143 . S
O1064 Co1063 2.160 . S
C1065 O1066 1.278 . S
C1065 O1073 1.224 . S
O1066 C1065 1.278 . S
C1067 O1068 1.245 . S
C1067 O1079 1.232 . S
O1068 C1067 1.245 . S
O1069 Co1063 2.058 . S
O1069 C1095 1.269 . S
O1070 Co1062 2.074 . S
O1070 C1095 1.257 . S
H1071 C1096 0.930 . S
H1072 C1102 0.930 . S
O1073 Co1062 2.093 . S
O1073 C1065 1.224 . S
H1074 C1106 0.929 1_556 S
H1075 C1108 0.930 . S
H1076 C1109 0.930 . S
H1077 C1107 0.929 . S
H1078 C1110 0.928 . S
O1079 Co1063 2.057 . S
O1079 C1067 1.232 . S
H1080 C1099 0.929 . S
H1081 C1100 0.929 . S
H1082 C1112 0.931 . S
H1083 C1104 0.929 . S
H1084 C1113 0.930 . S
H1085 C1105 0.931 . S
O1086 Co1062 2.097 . S
O1086 C1114 1.214 . S
H1087 C1115 0.929 . S
H1088 C1116 0.929 . S
H1089 C1117 0.930 . S
H1090 C1118 0.929 . S
H1091 C1120 0.930 . S
H1092 C1097 0.930 . S
H1093 C1101 0.930 1_655 S
O1094 Co1063 2.037 . S
O1094 C1114 1.234 . S
C1095 O1069 1.269 . S
C1095 O1070 1.257 . S
C1096 H1071 0.930 . S
C1096 C1099 1.388 1_655 S
C1096 C1101 1.418 1_655 S
C1097 H1092 0.930 . S
C1097 C1100 1.404 . S
C1097 C1101 1.353 . S
N1098 Co1063 2.145 . S
N1098 C1099 1.397 . S
N1098 C1100 1.334 . S
C1099 H1080 0.929 . S
C1099 C1096 1.388 1_455 S
C1099 N1098 1.397 . S
C1100 H1081 0.929 . S
C1100 C1097 1.404 . S
C1100 N1098 1.334 . S
C1101 H1093 0.930 1_455 S
C1101 C1096 1.418 1_455 S
C1101 C1097 1.353 . S
C1102 H1072 0.930 . S
C1102 N1103 1.330 . S
C1102 C1104 1.446 . S
N1103 Co1062 2.151 . S
N1103 C1102 1.330 . S
N1103 C1107 1.418 . S
C1104 H1083 0.929 . S
C1104 C1102 1.446 . S
C1104 C1105 1.332 . S
C1105 H1085 0.931 . S
C1105 C1104 1.332 . S
C1105 C1106 1.267 . S
C1106 H1074 0.929 1_554 S
C1106 C1105 1.267 . S
C1106 C1107 1.251 . S
C1107 H1077 0.929 . S
C1107 N1103 1.418 . S
C1107 C1106 1.251 . S
C1108 H1075 0.930 . S
C1108 C1110 1.406 1_556 S
C1108 C1113 1.261 . S
C1109 H1076 0.930 . S
C1109 N1111 1.325 . S
C1109 C1112 1.357 1_554 S
C1110 H1078 0.928 . S
C1110 C1108 1.406 1_554 S
C1110 N1111 1.261 . S
N1111 Co1062 2.214 . S
N1111 C1109 1.325 . S
N1111 C1110 1.261 . S
C1112 H1082 0.931 . S
C1112 C1109 1.357 1_556 S
C1112 C1113 1.312 . S
C1113 H1084 0.930 . S
C1113 C1108 1.261 . S
C1113 C1112 1.312 . S
C1114 O1086 1.214 . S
C1114 O1094 1.234 . S
C1115 H1087 0.929 . S
C1115 C1118 1.391 . S
C1115 C1120 1.391 . S
C1116 H1088 0.929 . S
C1116 C1117 1.390 . S
C1116 N1119 1.391 . S
C1117 H1089 0.930 . S
C1117 C1116 1.390 . S
C1117 C1118 1.392 . S
C1118 H1090 0.929 . S
C1118 C1115 1.391 . S
C1118 C1117 1.392 . S
N1119 Co1063 2.257 . S
N1119 C1116 1.391 . S
N1119 C1120 1.388 . S
C1120 H1091 0.930 . S
C1120 C1115 1.391 . S
C1120 N1119 1.388 . S
Co1121 O1123 2.143 . S
Co1121 O1129 2.074 . S
Co1121 O1132 2.093 . S
Co1121 O1145 2.097 . S
Co1121 N1162 2.151 . S
Co1121 N1170 2.214 . S
Co1122 O1123 2.160 . S
Co1122 O1128 2.058 . S
Co1122 O1138 2.057 . S
Co1122 O1153 2.037 . S
Co1122 N1157 2.145 . S
Co1122 N1178 2.257 . S
O1123 Co1121 2.143 . S
O1123 Co1122 2.160 . S
C1124 O1125 1.278 . S
C1124 O1132 1.224 . S
O1125 C1124 1.278 . S
C1126 O1127 1.245 . S
C1126 O1138 1.232 . S
O1127 C1126 1.245 . S
O1128 Co1122 2.058 . S
O1128 C1154 1.269 . S
O1129 Co1121 2.074 . S
O1129 C1154 1.257 . S
H1130 C1155 0.930 . S
H1131 C1161 0.930 . S
O1132 Co1121 2.093 . S
O1132 C1124 1.224 . S
H1133 C1165 0.929 . S
H1134 C1167 0.930 . S
H1135 C1168 0.930 . S
H1136 C1166 0.929 . S
H1137 C1169 0.928 . S
O1138 Co1122 2.057 . S
O1138 C1126 1.232 . S
H1139 C1158 0.929 . S
H1140 C1159 0.929 . S
H1141 C1171 0.931 . S
H1142 C1163 0.929 . S
H1143 C1172 0.930 . S
H1144 C1164 0.931 . S
O1145 Co1121 2.097 . S
O1145 C1173 1.214 . S
H1146 C1174 0.929 . S
H1147 C1175 0.929 . S
H1148 C1176 0.930 . S
H1149 C1177 0.929 . S
H1150 C1179 0.930 . S
H1151 C1156 0.930 . S
H1152 C1160 0.930 . S
O1153 Co1122 2.037 . S
O1153 C1173 1.234 . S
C1154 O1128 1.269 . S
C1154 O1129 1.257 . S
C1155 H1130 0.930 . S
C1155 C1158 1.388 . S
C1155 C1160 1.418 . S
C1156 H1151 0.930 . S
C1156 C1159 1.404 . S
C1156 C1160 1.353 . S
N1157 Co1122 2.145 . S
N1157 C1158 1.397 . S
N1157 C1159 1.334 . S
C1158 H1139 0.929 . S
C1158 C1155 1.388 . S
C1158 N1157 1.397 . S
C1159 H1140 0.929 . S
C1159 C1156 1.404 . S
C1159 N1157 1.334 . S
C1160 H1152 0.930 . S
C1160 C1155 1.418 . S
C1160 C1156 1.353 . S
C1161 H1131 0.930 . S
C1161 N1162 1.330 . S
C1161 C1163 1.446 . S
N1162 Co1121 2.151 . S
N1162 C1161 1.330 . S
N1162 C1166 1.418 . S
C1163 H1142 0.929 . S
C1163 C1161 1.446 . S
C1163 C1164 1.332 . S
C1164 H1144 0.931 . S
C1164 C1163 1.332 . S
C1164 C1165 1.267 . S
C1165 H1133 0.929 . S
C1165 C1164 1.267 . S
C1165 C1166 1.251 . S
C1166 H1136 0.929 . S
C1166 N1162 1.418 . S
C1166 C1165 1.251 . S
C1167 H1134 0.930 . S
C1167 C1169 1.406 . S
C1167 C1172 1.261 . S
C1168 H1135 0.930 . S
C1168 N1170 1.325 . S
C1168 C1171 1.357 . S
C1169 H1137 0.928 . S
C1169 C1167 1.406 . S
C1169 N1170 1.261 . S
N1170 Co1121 2.214 . S
N1170 C1168 1.325 . S
N1170 C1169 1.261 . S
C1171 H1141 0.931 . S
C1171 C1168 1.357 . S
C1171 C1172 1.312 . S
C1172 H1143 0.930 . S
C1172 C1167 1.261 . S
C1172 C1171 1.312 . S
C1173 O1145 1.214 . S
C1173 O1153 1.234 . S
C1174 H1146 0.929 . S
C1174 C1177 1.391 . S
C1174 C1179 1.391 . S
C1175 H1147 0.929 . S
C1175 C1176 1.390 . S
C1175 N1178 1.391 . S
C1176 H1148 0.930 . S
C1176 C1175 1.390 . S
C1176 C1177 1.392 . S
C1177 H1149 0.929 . S
C1177 C1174 1.391 . S
C1177 C1176 1.392 . S
N1178 Co1122 2.257 . S
N1178 C1175 1.391 . S
N1178 C1179 1.388 . S
C1179 H1150 0.930 . S
C1179 C1174 1.391 . S
C1179 N1178 1.388 . S
Co1180 O1182 2.143 . S
Co1180 O1188 2.074 . S
Co1180 O1191 2.093 . S
Co1180 O1204 2.097 . S
Co1180 N1221 2.151 . S
Co1180 N1229 2.214 . S
Co1181 O1182 2.160 1_545 S
Co1181 O1187 2.058 . S
Co1181 O1197 2.057 . S
Co1181 O1212 2.037 1_545 S
Co1181 N1216 2.145 . S
Co1181 N1237 2.257 . S
O1182 Co1180 2.143 . S
O1182 Co1181 2.160 1_565 S
C1183 O1184 1.278 . S
C1183 O1191 1.224 . S
O1184 C1183 1.278 . S
C1185 O1186 1.245 . S
C1185 O1197 1.232 . S
O1186 C1185 1.245 . S
O1187 Co1181 2.058 . S
O1187 C1213 1.269 . S
O1188 Co1180 2.074 . S
O1188 C1213 1.257 1_565 S
H1189 C1214 0.930 . S
H1190 C1220 0.930 . S
O1191 Co1180 2.093 . S
O1191 C1183 1.224 . S
H1192 C1224 0.929 1_556 S
H1193 C1226 0.930 . S
H1194 C1227 0.930 . S
H1195 C1225 0.929 . S
H1196 C1228 0.928 . S
O1197 Co1181 2.057 . S
O1197 C1185 1.232 . S
H1198 C1217 0.929 . S
H1199 C1218 0.929 . S
H1200 C1230 0.931 . S
H1201 C1222 0.929 . S
H1202 C1231 0.930 . S
H1203 C1223 0.931 . S
O1204 Co1180 2.097 . S
O1204 C1232 1.214 . S
H1205 C1233 0.929 . S
H1206 C1234 0.929 1_545 S
H1207 C1235 0.930 . S
H1208 C1236 0.929 . S
H1209 C1238 0.930 . S
H1210 C1215 0.930 . S
H1211 C1219 0.930 1_455 S
O1212 Co1181 2.037 1_565 S
O1212 C1232 1.234 . S
C1213 O1187 1.269 . S
C1213 O1188 1.257 1_545 S
C1214 H1189 0.930 . S
C1214 C1217 1.388 1_455 S
C1214 C1219 1.418 1_455 S
C1215 H1210 0.930 . S
C1215 C1218 1.404 . S
C1215 C1219 1.353 . S
N1216 Co1181 2.145 . S
N1216 C1217 1.397 . S
N1216 C1218 1.334 . S
C1217 H1198 0.929 . S
C1217 C1214 1.388 1_655 S
C1217 N1216 1.397 . S
C1218 H1199 0.929 . S
C1218 C1215 1.404 . S
C1218 N1216 1.334 . S
C1219 H1211 0.930 1_655 S
C1219 C1214 1.418 1_655 S
C1219 C1215 1.353 . S
C1220 H1190 0.930 . S
C1220 N1221 1.330 . S
C1220 C1222 1.446 . S
N1221 Co1180 2.151 . S
N1221 C1220 1.330 . S
N1221 C1225 1.418 . S
C1222 H1201 0.929 . S
C1222 C1220 1.446 . S
C1222 C1223 1.332 . S
C1223 H1203 0.931 . S
C1223 C1222 1.332 . S
C1223 C1224 1.267 . S
C1224 H1192 0.929 1_554 S
C1224 C1223 1.267 . S
C1224 C1225 1.251 . S
C1225 H1195 0.929 . S
C1225 N1221 1.418 . S
C1225 C1224 1.251 . S
C1226 H1193 0.930 . S
C1226 C1228 1.406 1_556 S
C1226 C1231 1.261 . S
C1227 H1194 0.930 . S
C1227 N1229 1.325 . S
C1227 C1230 1.357 1_554 S
C1228 H1196 0.928 . S
C1228 C1226 1.406 1_554 S
C1228 N1229 1.261 . S
N1229 Co1180 2.214 . S
N1229 C1227 1.325 . S
N1229 C1228 1.261 . S
C1230 H1200 0.931 . S
C1230 C1227 1.357 1_556 S
C1230 C1231 1.312 . S
C1231 H1202 0.930 . S
C1231 C1226 1.261 . S
C1231 C1230 1.312 . S
C1232 O1204 1.214 . S
C1232 O1212 1.234 . S
C1233 H1205 0.929 . S
C1233 C1236 1.391 . S
C1233 C1238 1.391 . S
C1234 H1206 0.929 1_565 S
C1234 C1235 1.390 . S
C1234 N1237 1.391 1_565 S
C1235 H1207 0.930 . S
C1235 C1234 1.390 . S
C1235 C1236 1.392 . S
C1236 H1208 0.929 . S
C1236 C1233 1.391 . S
C1236 C1235 1.392 . S
N1237 Co1181 2.257 . S
N1237 C1234 1.391 1_545 S
N1237 C1238 1.388 1_545 S
C1238 H1209 0.930 . S
C1238 C1233 1.391 . S
C1238 N1237 1.388 1_565 S
Co1239 O1241 2.143 . S
Co1239 O1247 2.074 . S
Co1239 O1250 2.093 . S
Co1239 O1263 2.097 . S
Co1239 N1280 2.151 . S
Co1239 N1288 2.214 . S
Co1240 O1241 2.160 . S
Co1240 O1246 2.058 . S
Co1240 O1256 2.057 . S
Co1240 O1271 2.037 . S
Co1240 N1275 2.145 . S
Co1240 N1296 2.257 . S
O1241 Co1239 2.143 . S
O1241 Co1240 2.160 . S
C1242 O1243 1.278 . S
C1242 O1250 1.224 . S
O1243 C1242 1.278 . S
C1244 O1245 1.245 . S
C1244 O1256 1.232 . S
O1245 C1244 1.245 . S
O1246 Co1240 2.058 . S
O1246 C1272 1.269 . S
O1247 Co1239 2.074 . S
O1247 C1272 1.257 . S
H1248 C1273 0.930 . S
H1249 C1279 0.930 . S
O1250 Co1239 2.093 . S
O1250 C1242 1.224 . S
H1251 C1283 0.929 . S
H1252 C1285 0.930 . S
H1253 C1286 0.930 . S
H1254 C1284 0.929 . S
H1255 C1287 0.928 . S
O1256 Co1240 2.057 . S
O1256 C1244 1.232 . S
H1257 C1276 0.929 . S
H1258 C1277 0.929 . S
H1259 C1289 0.931 . S
H1260 C1281 0.929 . S
H1261 C1290 0.930 . S
H1262 C1282 0.931 . S
O1263 Co1239 2.097 . S
O1263 C1291 1.214 . S
H1264 C1292 0.929 . S
H1265 C1293 0.929 . S
H1266 C1294 0.930 . S
H1267 C1295 0.929 . S
H1268 C1297 0.930 . S
H1269 C1274 0.930 . S
H1270 C1278 0.930 . S
O1271 Co1240 2.037 . S
O1271 C1291 1.234 . S
C1272 O1246 1.269 . S
C1272 O1247 1.257 . S
C1273 H1248 0.930 . S
C1273 C1276 1.388 . S
C1273 C1278 1.418 . S
C1274 H1269 0.930 . S
C1274 C1277 1.404 . S
C1274 C1278 1.353 . S
N1275 Co1240 2.145 . S
N1275 C1276 1.397 . S
N1275 C1277 1.334 . S
C1276 H1257 0.929 . S
C1276 C1273 1.388 . S
C1276 N1275 1.397 . S
C1277 H1258 0.929 . S
C1277 C1274 1.404 . S
C1277 N1275 1.334 . S
C1278 H1270 0.930 . S
C1278 C1273 1.418 . S
C1278 C1274 1.353 . S
C1279 H1249 0.930 . S
C1279 N1280 1.330 . S
C1279 C1281 1.446 . S
N1280 Co1239 2.151 . S
N1280 C1279 1.330 . S
N1280 C1284 1.418 . S
C1281 H1260 0.929 . S
C1281 C1279 1.446 . S
C1281 C1282 1.332 . S
C1282 H1262 0.931 . S
C1282 C1281 1.332 . S
C1282 C1283 1.267 . S
C1283 H1251 0.929 . S
C1283 C1282 1.267 . S
C1283 C1284 1.251 . S
C1284 H1254 0.929 . S
C1284 N1280 1.418 . S
C1284 C1283 1.251 . S
C1285 H1252 0.930 . S
C1285 C1287 1.406 . S
C1285 C1290 1.261 . S
C1286 H1253 0.930 . S
C1286 N1288 1.325 . S
C1286 C1289 1.357 . S
C1287 H1255 0.928 . S
C1287 C1285 1.406 . S
C1287 N1288 1.261 . S
N1288 Co1239 2.214 . S
N1288 C1286 1.325 . S
N1288 C1287 1.261 . S
C1289 H1259 0.931 . S
C1289 C1286 1.357 . S
C1289 C1290 1.312 . S
C1290 H1261 0.930 . S
C1290 C1285 1.261 . S
C1290 C1289 1.312 . S
C1291 O1263 1.214 . S
C1291 O1271 1.234 . S
C1292 H1264 0.929 . S
C1292 C1295 1.391 . S
C1292 C1297 1.391 . S
C1293 H1265 0.929 . S
C1293 C1294 1.390 . S
C1293 N1296 1.391 . S
C1294 H1266 0.930 . S
C1294 C1293 1.390 . S
C1294 C1295 1.392 . S
C1295 H1267 0.929 . S
C1295 C1292 1.391 . S
C1295 C1294 1.392 . S
N1296 Co1240 2.257 . S
N1296 C1293 1.391 . S
N1296 C1297 1.388 . S
C1297 H1268 0.930 . S
C1297 C1292 1.391 . S
C1297 N1296 1.388 . S
Co1298 O1300 2.143 . S
Co1298 O1306 2.074 . S
Co1298 O1309 2.093 . S
Co1298 O1322 2.097 . S
Co1298 N1339 2.151 . S
Co1298 N1347 2.214 . S
Co1299 O1300 2.160 . S
Co1299 O1305 2.058 . S
Co1299 O1315 2.057 . S
Co1299 O1330 2.037 . S
Co1299 N1334 2.145 . S
Co1299 N1355 2.257 . S
O1300 Co1298 2.143 . S
O1300 Co1299 2.160 . S
C1301 O1302 1.278 . S
C1301 O1309 1.224 . S
O1302 C1301 1.278 . S
C1303 O1304 1.245 . S
C1303 O1315 1.232 . S
O1304 C1303 1.245 . S
O1305 Co1299 2.058 . S
O1305 C1331 1.269 . S
O1306 Co1298 2.074 . S
O1306 C1331 1.257 . S
H1307 C1332 0.930 . S
H1308 C1338 0.930 . S
O1309 Co1298 2.093 . S
O1309 C1301 1.224 . S
H1310 C1342 0.929 . S
H1311 C1344 0.930 . S
H1312 C1345 0.930 . S
H1313 C1343 0.929 . S
H1314 C1346 0.928 . S
O1315 Co1299 2.057 . S
O1315 C1303 1.232 . S
H1316 C1335 0.929 . S
H1317 C1336 0.929 . S
H1318 C1348 0.931 . S
H1319 C1340 0.929 . S
H1320 C1349 0.930 . S
H1321 C1341 0.931 . S
O1322 Co1298 2.097 . S
O1322 C1350 1.214 . S
H1323 C1351 0.929 . S
H1324 C1352 0.929 . S
H1325 C1353 0.930 . S
H1326 C1354 0.929 . S
H1327 C1356 0.930 . S
H1328 C1333 0.930 . S
H1329 C1337 0.930 1_655 S
O1330 Co1299 2.037 . S
O1330 C1350 1.234 . S
C1331 O1305 1.269 . S
C1331 O1306 1.257 . S
C1332 H1307 0.930 . S
C1332 C1335 1.388 1_655 S
C1332 C1337 1.418 1_655 S
C1333 H1328 0.930 . S
C1333 C1336 1.404 . S
C1333 C1337 1.353 . S
N1334 Co1299 2.145 . S
N1334 C1335 1.397 . S
N1334 C1336 1.334 . S
C1335 H1316 0.929 . S
C1335 C1332 1.388 1_455 S
C1335 N1334 1.397 . S
C1336 H1317 0.929 . S
C1336 C1333 1.404 . S
C1336 N1334 1.334 . S
C1337 H1329 0.930 1_455 S
C1337 C1332 1.418 1_455 S
C1337 C1333 1.353 . S
C1338 H1308 0.930 . S
C1338 N1339 1.330 . S
C1338 C1340 1.446 . S
N1339 Co1298 2.151 . S
N1339 C1338 1.330 . S
N1339 C1343 1.418 . S
C1340 H1319 0.929 . S
C1340 C1338 1.446 . S
C1340 C1341 1.332 . S
C1341 H1321 0.931 . S
C1341 C1340 1.332 . S
C1341 C1342 1.267 . S
C1342 H1310 0.929 . S
C1342 C1341 1.267 . S
C1342 C1343 1.251 . S
C1343 H1313 0.929 . S
C1343 N1339 1.418 . S
C1343 C1342 1.251 . S
C1344 H1311 0.930 . S
C1344 C1346 1.406 . S
C1344 C1349 1.261 . S
C1345 H1312 0.930 . S
C1345 N1347 1.325 . S
C1345 C1348 1.357 . S
C1346 H1314 0.928 . S
C1346 C1344 1.406 . S
C1346 N1347 1.261 . S
N1347 Co1298 2.214 . S
N1347 C1345 1.325 . S
N1347 C1346 1.261 . S
C1348 H1318 0.931 . S
C1348 C1345 1.357 . S
C1348 C1349 1.312 . S
C1349 H1320 0.930 . S
C1349 C1344 1.261 . S
C1349 C1348 1.312 . S
C1350 O1322 1.214 . S
C1350 O1330 1.234 . S
C1351 H1323 0.929 . S
C1351 C1354 1.391 . S
C1351 C1356 1.391 . S
C1352 H1324 0.929 . S
C1352 C1353 1.390 . S
C1352 N1355 1.391 . S
C1353 H1325 0.930 . S
C1353 C1352 1.390 . S
C1353 C1354 1.392 . S
C1354 H1326 0.929 . S
C1354 C1351 1.391 . S
C1354 C1353 1.392 . S
N1355 Co1299 2.257 . S
N1355 C1352 1.391 . S
N1355 C1356 1.388 . S
C1356 H1327 0.930 . S
C1356 C1351 1.391 . S
C1356 N1355 1.388 . S
Co1357 O1359 2.143 . S
Co1357 O1365 2.074 . S
Co1357 O1368 2.093 . S
Co1357 O1381 2.097 . S
Co1357 N1398 2.151 . S
Co1357 N1406 2.214 . S
Co1358 O1359 2.160 . S
Co1358 O1364 2.058 . S
Co1358 O1374 2.057 . S
Co1358 O1389 2.037 . S
Co1358 N1393 2.145 . S
Co1358 N1414 2.257 . S
O1359 Co1357 2.143 . S
O1359 Co1358 2.160 . S
C1360 O1361 1.278 . S
C1360 O1368 1.224 . S
O1361 C1360 1.278 . S
C1362 O1363 1.245 . S
C1362 O1374 1.232 . S
O1363 C1362 1.245 . S
O1364 Co1358 2.058 . S
O1364 C1390 1.269 . S
O1365 Co1357 2.074 . S
O1365 C1390 1.257 . S
H1366 C1391 0.930 . S
H1367 C1397 0.930 . S
O1368 Co1357 2.093 . S
O1368 C1360 1.224 . S
H1369 C1401 0.929 1_554 S
H1370 C1403 0.930 . S
H1371 C1404 0.930 . S
H1372 C1402 0.929 . S
H1373 C1405 0.928 . S
O1374 Co1358 2.057 . S
O1374 C1362 1.232 . S
H1375 C1394 0.929 . S
H1376 C1395 0.929 . S
H1377 C1407 0.931 . S
H1378 C1399 0.929 . S
H1379 C1408 0.930 . S
H1380 C1400 0.931 . S
O1381 Co1357 2.097 . S
O1381 C1409 1.214 . S
H1382 C1410 0.929 . S
H1383 C1411 0.929 . S
H1384 C1412 0.930 . S
H1385 C1413 0.929 . S
H1386 C1415 0.930 . S
H1387 C1392 0.930 . S
H1388 C1396 0.930 . S
O1389 Co1358 2.037 . S
O1389 C1409 1.234 . S
C1390 O1364 1.269 . S
C1390 O1365 1.257 . S
C1391 H1366 0.930 . S
C1391 C1394 1.388 . S
C1391 C1396 1.418 . S
C1392 H1387 0.930 . S
C1392 C1395 1.404 . S
C1392 C1396 1.353 . S
N1393 Co1358 2.145 . S
N1393 C1394 1.397 . S
N1393 C1395 1.334 . S
C1394 H1375 0.929 . S
C1394 C1391 1.388 . S
C1394 N1393 1.397 . S
C1395 H1376 0.929 . S
C1395 C1392 1.404 . S
C1395 N1393 1.334 . S
C1396 H1388 0.930 . S
C1396 C1391 1.418 . S
C1396 C1392 1.353 . S
C1397 H1367 0.930 . S
C1397 N1398 1.330 . S
C1397 C1399 1.446 . S
N1398 Co1357 2.151 . S
N1398 C1397 1.330 . S
N1398 C1402 1.418 . S
C1399 H1378 0.929 . S
C1399 C1397 1.446 . S
C1399 C1400 1.332 . S
C1400 H1380 0.931 . S
C1400 C1399 1.332 . S
C1400 C1401 1.267 . S
C1401 H1369 0.929 1_556 S
C1401 C1400 1.267 . S
C1401 C1402 1.251 . S
C1402 H1372 0.929 . S
C1402 N1398 1.418 . S
C1402 C1401 1.251 . S
C1403 H1370 0.930 . S
C1403 C1405 1.406 1_554 S
C1403 C1408 1.261 . S
C1404 H1371 0.930 . S
C1404 N1406 1.325 . S
C1404 C1407 1.357 1_556 S
C1405 H1373 0.928 . S
C1405 C1403 1.406 1_556 S
C1405 N1406 1.261 . S
N1406 Co1357 2.214 . S
N1406 C1404 1.325 . S
N1406 C1405 1.261 . S
C1407 H1377 0.931 . S
C1407 C1404 1.357 1_554 S
C1407 C1408 1.312 . S
C1408 H1379 0.930 . S
C1408 C1403 1.261 . S
C1408 C1407 1.312 . S
C1409 O1381 1.214 . S
C1409 O1389 1.234 . S
C1410 H1382 0.929 . S
C1410 C1413 1.391 . S
C1410 C1415 1.391 . S
C1411 H1383 0.929 . S
C1411 C1412 1.390 . S
C1411 N1414 1.391 . S
C1412 H1384 0.930 . S
C1412 C1411 1.390 . S
C1412 C1413 1.392 . S
C1413 H1385 0.929 . S
C1413 C1410 1.391 . S
C1413 C1412 1.392 . S
N1414 Co1358 2.257 . S
N1414 C1411 1.391 . S
N1414 C1415 1.388 . S
C1415 H1386 0.930 . S
C1415 C1410 1.391 . S
C1415 N1414 1.388 . S
Co1416 O1418 2.143 . S
Co1416 O1424 2.074 . S
Co1416 O1427 2.093 . S
Co1416 O1440 2.097 . S
Co1416 N1457 2.151 . S
Co1416 N1465 2.214 . S
Co1417 O1418 2.160 . S
Co1417 O1423 2.058 . S
Co1417 O1433 2.057 . S
Co1417 O1448 2.037 . S
Co1417 N1452 2.145 . S
Co1417 N1473 2.257 . S
O1418 Co1416 2.143 . S
O1418 Co1417 2.160 . S
C1419 O1420 1.278 . S
C1419 O1427 1.224 . S
O1420 C1419 1.278 . S
C1421 O1422 1.245 . S
C1421 O1433 1.232 . S
O1422 C1421 1.245 . S
O1423 Co1417 2.058 . S
O1423 C1449 1.269 . S
O1424 Co1416 2.074 . S
O1424 C1449 1.257 . S
H1425 C1450 0.930 . S
H1426 C1456 0.930 . S
O1427 Co1416 2.093 . S
O1427 C1419 1.224 . S
H1428 C1460 0.929 . S
H1429 C1462 0.930 . S
H1430 C1463 0.930 . S
H1431 C1461 0.929 . S
H1432 C1464 0.928 . S
O1433 Co1417 2.057 . S
O1433 C1421 1.232 . S
H1434 C1453 0.929 . S
H1435 C1454 0.929 . S
H1436 C1466 0.931 . S
H1437 C1458 0.929 . S
H1438 C1467 0.930 . S
H1439 C1459 0.931 . S
O1440 Co1416 2.097 . S
O1440 C1468 1.214 . S
H1441 C1469 0.929 . S
H1442 C1470 0.929 . S
H1443 C1471 0.930 . S
H1444 C1472 0.929 . S
H1445 C1474 0.930 . S
H1446 C1451 0.930 . S
H1447 C1455 0.930 . S
O1448 Co1417 2.037 . S
O1448 C1468 1.234 . S
C1449 O1423 1.269 . S
C1449 O1424 1.257 . S
C1450 H1425 0.930 . S
C1450 C1453 1.388 . S
C1450 C1455 1.418 . S
C1451 H1446 0.930 . S
C1451 C1454 1.404 . S
C1451 C1455 1.353 . S
N1452 Co1417 2.145 . S
N1452 C1453 1.397 . S
N1452 C1454 1.334 . S
C1453 H1434 0.929 . S
C1453 C1450 1.388 . S
C1453 N1452 1.397 . S
C1454 H1435 0.929 . S
C1454 C1451 1.404 . S
C1454 N1452 1.334 . S
C1455 H1447 0.930 . S
C1455 C1450 1.418 . S
C1455 C1451 1.353 . S
C1456 H1426 0.930 . S
C1456 N1457 1.330 . S
C1456 C1458 1.446 . S
N1457 Co1416 2.151 . S
N1457 C1456 1.330 . S
N1457 C1461 1.418 . S
C1458 H1437 0.929 . S
C1458 C1456 1.446 . S
C1458 C1459 1.332 . S
C1459 H1439 0.931 . S
C1459 C1458 1.332 . S
C1459 C1460 1.267 . S
C1460 H1428 0.929 . S
C1460 C1459 1.267 . S
C1460 C1461 1.251 . S
C1461 H1431 0.929 . S
C1461 N1457 1.418 . S
C1461 C1460 1.251 . S
C1462 H1429 0.930 . S
C1462 C1464 1.406 . S
C1462 C1467 1.261 . S
C1463 H1430 0.930 . S
C1463 N1465 1.325 . S
C1463 C1466 1.357 . S
C1464 H1432 0.928 . S
C1464 C1462 1.406 . S
C1464 N1465 1.261 . S
N1465 Co1416 2.214 . S
N1465 C1463 1.325 . S
N1465 C1464 1.261 . S
C1466 H1436 0.931 . S
C1466 C1463 1.357 . S
C1466 C1467 1.312 . S
C1467 H1438 0.930 . S
C1467 C1462 1.261 . S
C1467 C1466 1.312 . S
C1468 O1440 1.214 . S
C1468 O1448 1.234 . S
C1469 H1441 0.929 . S
C1469 C1472 1.391 . S
C1469 C1474 1.391 . S
C1470 H1442 0.929 . S
C1470 C1471 1.390 . S
C1470 N1473 1.391 . S
C1471 H1443 0.930 . S
C1471 C1470 1.390 . S
C1471 C1472 1.392 . S
C1472 H1444 0.929 . S
C1472 C1469 1.391 . S
C1472 C1471 1.392 . S
N1473 Co1417 2.257 . S
N1473 C1470 1.391 . S
N1473 C1474 1.388 . S
C1474 H1445 0.930 . S
C1474 C1469 1.391 . S
C1474 N1473 1.388 . S
Co1475 O1477 2.143 . S
Co1475 O1483 2.074 . S
Co1475 O1486 2.093 . S
Co1475 O1499 2.097 . S
Co1475 N1516 2.151 . S
Co1475 N1524 2.214 . S
Co1476 O1477 2.160 . S
Co1476 O1482 2.058 . S
Co1476 O1492 2.057 . S
Co1476 O1507 2.037 . S
Co1476 N1511 2.145 . S
Co1476 N1532 2.257 . S
O1477 Co1475 2.143 . S
O1477 Co1476 2.160 . S
C1478 O1479 1.278 . S
C1478 O1486 1.224 . S
O1479 C1478 1.278 . S
C1480 O1481 1.245 . S
C1480 O1492 1.232 . S
O1481 C1480 1.245 . S
O1482 Co1476 2.058 . S
O1482 C1508 1.269 . S
O1483 Co1475 2.074 . S
O1483 C1508 1.257 . S
H1484 C1509 0.930 . S
H1485 C1515 0.930 . S
O1486 Co1475 2.093 . S
O1486 C1478 1.224 . S
H1487 C1519 0.929 . S
H1488 C1521 0.930 . S
H1489 C1522 0.930 . S
H1490 C1520 0.929 . S
H1491 C1523 0.928 . S
O1492 Co1476 2.057 . S
O1492 C1480 1.232 . S
H1493 C1512 0.929 . S
H1494 C1513 0.929 . S
H1495 C1525 0.931 . S
H1496 C1517 0.929 . S
H1497 C1526 0.930 . S
H1498 C1518 0.931 . S
O1499 Co1475 2.097 . S
O1499 C1527 1.214 . S
H1500 C1528 0.929 . S
H1501 C1529 0.929 . S
H1502 C1530 0.930 . S
H1503 C1531 0.929 . S
H1504 C1533 0.930 . S
H1505 C1510 0.930 . S
H1506 C1514 0.930 1_556 S
O1507 Co1476 2.037 . S
O1507 C1527 1.234 . S
C1508 O1482 1.269 . S
C1508 O1483 1.257 . S
C1509 H1484 0.930 . S
C1509 C1512 1.388 1_556 S
C1509 C1514 1.418 1_556 S
C1510 H1505 0.930 . S
C1510 C1513 1.404 . S
C1510 C1514 1.353 . S
N1511 Co1476 2.145 . S
N1511 C1512 1.397 . S
N1511 C1513 1.334 . S
C1512 H1493 0.929 . S
C1512 C1509 1.388 1_554 S
C1512 N1511 1.397 . S
C1513 H1494 0.929 . S
C1513 C1510 1.404 . S
C1513 N1511 1.334 . S
C1514 H1506 0.930 1_554 S
C1514 C1509 1.418 1_554 S
C1514 C1510 1.353 . S
C1515 H1485 0.930 . S
C1515 N1516 1.330 . S
C1515 C1517 1.446 . S
N1516 Co1475 2.151 . S
N1516 C1515 1.330 . S
N1516 C1520 1.418 . S
C1517 H1496 0.929 . S
C1517 C1515 1.446 . S
C1517 C1518 1.332 . S
C1518 H1498 0.931 . S
C1518 C1517 1.332 . S
C1518 C1519 1.267 . S
C1519 H1487 0.929 . S
C1519 C1518 1.267 . S
C1519 C1520 1.251 . S
C1520 H1490 0.929 . S
C1520 N1516 1.418 . S
C1520 C1519 1.251 . S
C1521 H1488 0.930 . S
C1521 C1523 1.406 . S
C1521 C1526 1.261 . S
C1522 H1489 0.930 . S
C1522 N1524 1.325 . S
C1522 C1525 1.357 . S
C1523 H1491 0.928 . S
C1523 C1521 1.406 . S
C1523 N1524 1.261 . S
N1524 Co1475 2.214 . S
N1524 C1522 1.325 . S
N1524 C1523 1.261 . S
C1525 H1495 0.931 . S
C1525 C1522 1.357 . S
C1525 C1526 1.312 . S
C1526 H1497 0.930 . S
C1526 C1521 1.261 . S
C1526 C1525 1.312 . S
C1527 O1499 1.214 . S
C1527 O1507 1.234 . S
C1528 H1500 0.929 . S
C1528 C1531 1.391 . S
C1528 C1533 1.391 . S
C1529 H1501 0.929 . S
C1529 C1530 1.390 . S
C1529 N1532 1.391 . S
C1530 H1502 0.930 . S
C1530 C1529 1.390 . S
C1530 C1531 1.392 . S
C1531 H1503 0.929 . S
C1531 C1528 1.391 . S
C1531 C1530 1.392 . S
N1532 Co1476 2.257 . S
N1532 C1529 1.391 . S
N1532 C1533 1.388 . S
C1533 H1504 0.930 . S
C1533 C1528 1.391 . S
C1533 N1532 1.388 . S
Co1534 O1536 2.143 . S
Co1534 O1542 2.074 . S
Co1534 O1545 2.093 . S
Co1534 O1558 2.097 . S
Co1534 N1575 2.151 . S
Co1534 N1583 2.214 . S
Co1535 O1536 2.160 . S
Co1535 O1541 2.058 . S
Co1535 O1551 2.057 . S
Co1535 O1566 2.037 . S
Co1535 N1570 2.145 . S
Co1535 N1591 2.257 . S
O1536 Co1534 2.143 . S
O1536 Co1535 2.160 . S
C1537 O1538 1.278 . S
C1537 O1545 1.224 . S
O1538 C1537 1.278 . S
C1539 O1540 1.245 . S
C1539 O1551 1.232 . S
O1540 C1539 1.245 . S
O1541 Co1535 2.058 . S
O1541 C1567 1.269 . S
O1542 Co1534 2.074 . S
O1542 C1567 1.257 . S
H1543 C1568 0.930 . S
H1544 C1574 0.930 . S
O1545 Co1534 2.093 . S
O1545 C1537 1.224 . S
H1546 C1578 0.929 . S
H1547 C1580 0.930 . S
H1548 C1581 0.930 . S
H1549 C1579 0.929 . S
H1550 C1582 0.928 . S
O1551 Co1535 2.057 . S
O1551 C1539 1.232 . S
H1552 C1571 0.929 . S
H1553 C1572 0.929 . S
H1554 C1584 0.931 . S
H1555 C1576 0.929 . S
H1556 C1585 0.930 . S
H1557 C1577 0.931 . S
O1558 Co1534 2.097 . S
O1558 C1586 1.214 . S
H1559 C1587 0.929 . S
H1560 C1588 0.929 . S
H1561 C1589 0.930 . S
H1562 C1590 0.929 . S
H1563 C1592 0.930 . S
H1564 C1569 0.930 . S
H1565 C1573 0.930 . S
O1566 Co1535 2.037 . S
O1566 C1586 1.234 . S
C1567 O1541 1.269 . S
C1567 O1542 1.257 . S
C1568 H1543 0.930 . S
C1568 C1571 1.388 . S
C1568 C1573 1.418 . S
C1569 H1564 0.930 . S
C1569 C1572 1.404 . S
C1569 C1573 1.353 . S
N1570 Co1535 2.145 . S
N1570 C1571 1.397 . S
N1570 C1572 1.334 . S
C1571 H1552 0.929 . S
C1571 C1568 1.388 . S
C1571 N1570 1.397 . S
C1572 H1553 0.929 . S
C1572 C1569 1.404 . S
C1572 N1570 1.334 . S
C1573 H1565 0.930 . S
C1573 C1568 1.418 . S
C1573 C1569 1.353 . S
C1574 H1544 0.930 . S
C1574 N1575 1.330 . S
C1574 C1576 1.446 . S
N1575 Co1534 2.151 . S
N1575 C1574 1.330 . S
N1575 C1579 1.418 . S
C1576 H1555 0.929 . S
C1576 C1574 1.446 . S
C1576 C1577 1.332 . S
C1577 H1557 0.931 . S
C1577 C1576 1.332 . S
C1577 C1578 1.267 . S
C1578 H1546 0.929 . S
C1578 C1577 1.267 . S
C1578 C1579 1.251 . S
C1579 H1549 0.929 . S
C1579 N1575 1.418 . S
C1579 C1578 1.251 . S
C1580 H1547 0.930 . S
C1580 C1582 1.406 . S
C1580 C1585 1.261 . S
C1581 H1548 0.930 . S
C1581 N1583 1.325 . S
C1581 C1584 1.357 . S
C1582 H1550 0.928 . S
C1582 C1580 1.406 . S
C1582 N1583 1.261 . S
N1583 Co1534 2.214 . S
N1583 C1581 1.325 . S
N1583 C1582 1.261 . S
C1584 H1554 0.931 . S
C1584 C1581 1.357 . S
C1584 C1585 1.312 . S
C1585 H1556 0.930 . S
C1585 C1580 1.261 . S
C1585 C1584 1.312 . S
C1586 O1558 1.214 . S
C1586 O1566 1.234 . S
C1587 H1559 0.929 . S
C1587 C1590 1.391 . S
C1587 C1592 1.391 . S
C1588 H1560 0.929 . S
C1588 C1589 1.390 . S
C1588 N1591 1.391 . S
C1589 H1561 0.930 . S
C1589 C1588 1.390 . S
C1589 C1590 1.392 . S
C1590 H1562 0.929 . S
C1590 C1587 1.391 . S
C1590 C1589 1.392 . S
N1591 Co1535 2.257 . S
N1591 C1588 1.391 . S
N1591 C1592 1.388 . S
C1592 H1563 0.930 . S
C1592 C1587 1.391 . S
C1592 N1591 1.388 . S
Co1593 O1595 2.143 . S
Co1593 O1601 2.074 . S
Co1593 O1604 2.093 . S
Co1593 O1617 2.097 . S
Co1593 N1634 2.151 . S
Co1593 N1642 2.214 . S
Co1594 O1595 2.160 1_655 S
Co1594 O1600 2.058 . S
Co1594 O1610 2.057 . S
Co1594 O1625 2.037 1_655 S
Co1594 N1629 2.145 . S
Co1594 N1650 2.257 . S
O1595 Co1593 2.143 . S
O1595 Co1594 2.160 1_455 S
C1596 O1597 1.278 . S
C1596 O1604 1.224 . S
O1597 C1596 1.278 . S
C1598 O1599 1.245 . S
C1598 O1610 1.232 . S
O1599 C1598 1.245 . S
O1600 Co1594 2.058 . S
O1600 C1626 1.269 . S
O1601 Co1593 2.074 . S
O1601 C1626 1.257 1_455 S
H1602 C1627 0.930 . S
H1603 C1633 0.930 . S
O1604 Co1593 2.093 . S
O1604 C1596 1.224 . S
H1605 C1637 0.929 . S
H1606 C1639 0.930 . S
H1607 C1640 0.930 . S
H1608 C1638 0.929 . S
H1609 C1641 0.928 . S
O1610 Co1594 2.057 . S
O1610 C1598 1.232 . S
H1611 C1630 0.929 . S
H1612 C1631 0.929 . S
H1613 C1643 0.931 . S
H1614 C1635 0.929 . S
H1615 C1644 0.930 . S
H1616 C1636 0.931 . S
O1617 Co1593 2.097 . S
O1617 C1645 1.214 . S
H1618 C1646 0.929 . S
H1619 C1647 0.929 1_655 S
H1620 C1648 0.930 . S
H1621 C1649 0.929 . S
H1622 C1651 0.930 . S
H1623 C1628 0.930 . S
H1624 C1632 0.930 . S
O1625 Co1594 2.037 1_455 S
O1625 C1645 1.234 . S
C1626 O1600 1.269 . S
C1626 O1601 1.257 1_655 S
C1627 H1602 0.930 . S
C1627 C1630 1.388 . S
C1627 C1632 1.418 . S
C1628 H1623 0.930 . S
C1628 C1631 1.404 . S
C1628 C1632 1.353 . S
N1629 Co1594 2.145 . S
N1629 C1630 1.397 . S
N1629 C1631 1.334 . S
C1630 H1611 0.929 . S
C1630 C1627 1.388 . S
C1630 N1629 1.397 . S
C1631 H1612 0.929 . S
C1631 C1628 1.404 . S
C1631 N1629 1.334 . S
C1632 H1624 0.930 . S
C1632 C1627 1.418 . S
C1632 C1628 1.353 . S
C1633 H1603 0.930 . S
C1633 N1634 1.330 . S
C1633 C1635 1.446 . S
N1634 Co1593 2.151 . S
N1634 C1633 1.330 . S
N1634 C1638 1.418 . S
C1635 H1614 0.929 . S
C1635 C1633 1.446 . S
C1635 C1636 1.332 . S
C1636 H1616 0.931 . S
C1636 C1635 1.332 . S
C1636 C1637 1.267 . S
C1637 H1605 0.929 . S
C1637 C1636 1.267 . S
C1637 C1638 1.251 . S
C1638 H1608 0.929 . S
C1638 N1634 1.418 . S
C1638 C1637 1.251 . S
C1639 H1606 0.930 . S
C1639 C1641 1.406 . S
C1639 C1644 1.261 . S
C1640 H1607 0.930 . S
C1640 N1642 1.325 . S
C1640 C1643 1.357 . S
C1641 H1609 0.928 . S
C1641 C1639 1.406 . S
C1641 N1642 1.261 . S
N1642 Co1593 2.214 . S
N1642 C1640 1.325 . S
N1642 C1641 1.261 . S
C1643 H1613 0.931 . S
C1643 C1640 1.357 . S
C1643 C1644 1.312 . S
C1644 H1615 0.930 . S
C1644 C1639 1.261 . S
C1644 C1643 1.312 . S
C1645 O1617 1.214 . S
C1645 O1625 1.234 . S
C1646 H1618 0.929 . S
C1646 C1649 1.391 . S
C1646 C1651 1.391 . S
C1647 H1619 0.929 1_455 S
C1647 C1648 1.390 . S
C1647 N1650 1.391 1_455 S
C1648 H1620 0.930 . S
C1648 C1647 1.390 . S
C1648 C1649 1.392 . S
C1649 H1621 0.929 . S
C1649 C1646 1.391 . S
C1649 C1648 1.392 . S
N1650 Co1594 2.257 . S
N1650 C1647 1.391 1_655 S
N1650 C1651 1.388 1_655 S
C1651 H1622 0.930 . S
C1651 C1646 1.391 . S
C1651 N1650 1.388 1_455 S
Co1652 O1654 2.143 . S
Co1652 O1660 2.074 . S
Co1652 O1663 2.093 . S
Co1652 O1676 2.097 . S
Co1652 N1693 2.151 . S
Co1652 N1701 2.214 . S
Co1653 O1654 2.160 . S
Co1653 O1659 2.058 . S
Co1653 O1669 2.057 . S
Co1653 O1684 2.037 . S
Co1653 N1688 2.145 . S
Co1653 N1709 2.257 . S
O1654 Co1652 2.143 . S
O1654 Co1653 2.160 . S
C1655 O1656 1.278 . S
C1655 O1663 1.224 . S
O1656 C1655 1.278 . S
C1657 O1658 1.245 . S
C1657 O1669 1.232 . S
O1658 C1657 1.245 . S
O1659 Co1653 2.058 . S
O1659 C1685 1.269 . S
O1660 Co1652 2.074 . S
O1660 C1685 1.257 . S
H1661 C1686 0.930 . S
H1662 C1692 0.930 . S
O1663 Co1652 2.093 . S
O1663 C1655 1.224 . S
H1664 C1696 0.929 . S
H1665 C1698 0.930 . S
H1666 C1699 0.930 . S
H1667 C1697 0.929 . S
H1668 C1700 0.928 . S
O1669 Co1653 2.057 . S
O1669 C1657 1.232 . S
H1670 C1689 0.929 . S
H1671 C1690 0.929 . S
H1672 C1702 0.931 . S
H1673 C1694 0.929 . S
H1674 C1703 0.930 . S
H1675 C1695 0.931 . S
O1676 Co1652 2.097 . S
O1676 C1704 1.214 . S
H1677 C1705 0.929 . S
H1678 C1706 0.929 . S
H1679 C1707 0.930 . S
H1680 C1708 0.929 . S
H1681 C1710 0.930 . S
H1682 C1687 0.930 . S
H1683 C1691 0.930 . S
O1684 Co1653 2.037 . S
O1684 C1704 1.234 . S
C1685 O1659 1.269 . S
C1685 O1660 1.257 . S
C1686 H1661 0.930 . S
C1686 C1689 1.388 . S
C1686 C1691 1.418 . S
C1687 H1682 0.930 . S
C1687 C1690 1.404 . S
C1687 C1691 1.353 . S
N1688 Co1653 2.145 . S
N1688 C1689 1.397 . S
N1688 C1690 1.334 . S
C1689 H1670 0.929 . S
C1689 C1686 1.388 . S
C1689 N1688 1.397 . S
C1690 H1671 0.929 . S
C1690 C1687 1.404 . S
C1690 N1688 1.334 . S
C1691 H1683 0.930 . S
C1691 C1686 1.418 . S
C1691 C1687 1.353 . S
C1692 H1662 0.930 . S
C1692 N1693 1.330 . S
C1692 C1694 1.446 . S
N1693 Co1652 2.151 . S
N1693 C1692 1.330 . S
N1693 C1697 1.418 . S
C1694 H1673 0.929 . S
C1694 C1692 1.446 . S
C1694 C1695 1.332 . S
C1695 H1675 0.931 . S
C1695 C1694 1.332 . S
C1695 C1696 1.267 . S
C1696 H1664 0.929 . S
C1696 C1695 1.267 . S
C1696 C1697 1.251 . S
C1697 H1667 0.929 . S
C1697 N1693 1.418 . S
C1697 C1696 1.251 . S
C1698 H1665 0.930 . S
C1698 C1700 1.406 . S
C1698 C1703 1.261 . S
C1699 H1666 0.930 . S
C1699 N1701 1.325 . S
C1699 C1702 1.357 . S
C1700 H1668 0.928 . S
C1700 C1698 1.406 . S
C1700 N1701 1.261 . S
N1701 Co1652 2.214 . S
N1701 C1699 1.325 . S
N1701 C1700 1.261 . S
C1702 H1672 0.931 . S
C1702 C1699 1.357 . S
C1702 C1703 1.312 . S
C1703 H1674 0.930 . S
C1703 C1698 1.261 . S
C1703 C1702 1.312 . S
C1704 O1676 1.214 . S
C1704 O1684 1.234 . S
C1705 H1677 0.929 . S
C1705 C1708 1.391 . S
C1705 C1710 1.391 . S
C1706 H1678 0.929 . S
C1706 C1707 1.390 . S
C1706 N1709 1.391 . S
C1707 H1679 0.930 . S
C1707 C1706 1.390 . S
C1707 C1708 1.392 . S
C1708 H1680 0.929 . S
C1708 C1705 1.391 . S
C1708 C1707 1.392 . S
N1709 Co1653 2.257 . S
N1709 C1706 1.391 . S
N1709 C1710 1.388 . S
C1710 H1681 0.930 . S
C1710 C1705 1.391 . S
C1710 N1709 1.388 . S
Co1711 O1713 2.143 . S
Co1711 O1719 2.074 . S
Co1711 O1722 2.093 . S
Co1711 O1735 2.097 . S
Co1711 N1752 2.151 . S
Co1711 N1760 2.214 . S
Co1712 O1713 2.160 1_655 S
Co1712 O1718 2.058 . S
Co1712 O1728 2.057 . S
Co1712 O1743 2.037 1_655 S
Co1712 N1747 2.145 . S
Co1712 N1768 2.257 . S
O1713 Co1711 2.143 . S
O1713 Co1712 2.160 1_455 S
C1714 O1715 1.278 . S
C1714 O1722 1.224 . S
O1715 C1714 1.278 . S
C1716 O1717 1.245 . S
C1716 O1728 1.232 . S
O1717 C1716 1.245 . S
O1718 Co1712 2.058 . S
O1718 C1744 1.269 . S
O1719 Co1711 2.074 . S
O1719 C1744 1.257 1_455 S
H1720 C1745 0.930 . S
H1721 C1751 0.930 . S
O1722 Co1711 2.093 . S
O1722 C1714 1.224 . S
H1723 C1755 0.929 . S
H1724 C1757 0.930 . S
H1725 C1758 0.930 . S
H1726 C1756 0.929 . S
H1727 C1759 0.928 . S
O1728 Co1712 2.057 . S
O1728 C1716 1.232 . S
H1729 C1748 0.929 . S
H1730 C1749 0.929 . S
H1731 C1761 0.931 . S
H1732 C1753 0.929 . S
H1733 C1762 0.930 . S
H1734 C1754 0.931 . S
O1735 Co1711 2.097 . S
O1735 C1763 1.214 . S
H1736 C1764 0.929 . S
H1737 C1765 0.929 1_655 S
H1738 C1766 0.930 . S
H1739 C1767 0.929 . S
H1740 C1769 0.930 . S
H1741 C1746 0.930 . S
H1742 C1750 0.930 1_554 S
O1743 Co1712 2.037 1_455 S
O1743 C1763 1.234 . S
C1744 O1718 1.269 . S
C1744 O1719 1.257 1_655 S
C1745 H1720 0.930 . S
C1745 C1748 1.388 1_554 S
C1745 C1750 1.418 1_554 S
C1746 H1741 0.930 . S
C1746 C1749 1.404 . S
C1746 C1750 1.353 . S
N1747 Co1712 2.145 . S
N1747 C1748 1.397 . S
N1747 C1749 1.334 . S
C1748 H1729 0.929 . S
C1748 C1745 1.388 1_556 S
C1748 N1747 1.397 . S
C1749 H1730 0.929 . S
C1749 C1746 1.404 . S
C1749 N1747 1.334 . S
C1750 H1742 0.930 1_556 S
C1750 C1745 1.418 1_556 S
C1750 C1746 1.353 . S
C1751 H1721 0.930 . S
C1751 N1752 1.330 . S
C1751 C1753 1.446 . S
N1752 Co1711 2.151 . S
N1752 C1751 1.330 . S
N1752 C1756 1.418 . S
C1753 H1732 0.929 . S
C1753 C1751 1.446 . S
C1753 C1754 1.332 . S
C1754 H1734 0.931 . S
C1754 C1753 1.332 . S
C1754 C1755 1.267 . S
C1755 H1723 0.929 . S
C1755 C1754 1.267 . S
C1755 C1756 1.251 . S
C1756 H1726 0.929 . S
C1756 N1752 1.418 . S
C1756 C1755 1.251 . S
C1757 H1724 0.930 . S
C1757 C1759 1.406 . S
C1757 C1762 1.261 . S
C1758 H1725 0.930 . S
C1758 N1760 1.325 . S
C1758 C1761 1.357 . S
C1759 H1727 0.928 . S
C1759 C1757 1.406 . S
C1759 N1760 1.261 . S
N1760 Co1711 2.214 . S
N1760 C1758 1.325 . S
N1760 C1759 1.261 . S
C1761 H1731 0.931 . S
C1761 C1758 1.357 . S
C1761 C1762 1.312 . S
C1762 H1733 0.930 . S
C1762 C1757 1.261 . S
C1762 C1761 1.312 . S
C1763 O1735 1.214 . S
C1763 O1743 1.234 . S
C1764 H1736 0.929 . S
C1764 C1767 1.391 . S
C1764 C1769 1.391 . S
C1765 H1737 0.929 1_455 S
C1765 C1766 1.390 . S
C1765 N1768 1.391 1_455 S
C1766 H1738 0.930 . S
C1766 C1765 1.390 . S
C1766 C1767 1.392 . S
C1767 H1739 0.929 . S
C1767 C1764 1.391 . S
C1767 C1766 1.392 . S
N1768 Co1712 2.257 . S
N1768 C1765 1.391 1_655 S
N1768 C1769 1.388 1_655 S
C1769 H1740 0.930 . S
C1769 C1764 1.391 . S
C1769 N1768 1.388 1_455 S
Co1770 O1772 2.143 . S
Co1770 O1778 2.074 . S
Co1770 O1781 2.093 . S
Co1770 O1794 2.097 . S
Co1770 N1811 2.151 . S
Co1770 N1819 2.214 . S
Co1771 O1772 2.160 . S
Co1771 O1777 2.058 . S
Co1771 O1787 2.057 . S
Co1771 O1802 2.037 . S
Co1771 N1806 2.145 . S
Co1771 N1827 2.257 . S
O1772 Co1770 2.143 . S
O1772 Co1771 2.160 . S
C1773 O1774 1.278 . S
C1773 O1781 1.224 . S
O1774 C1773 1.278 . S
C1775 O1776 1.245 . S
C1775 O1787 1.232 . S
O1776 C1775 1.245 . S
O1777 Co1771 2.058 . S
O1777 C1803 1.269 . S
O1778 Co1770 2.074 . S
O1778 C1803 1.257 . S
H1779 C1804 0.930 . S
H1780 C1810 0.930 . S
O1781 Co1770 2.093 . S
O1781 C1773 1.224 . S
H1782 C1814 0.929 . S
H1783 C1816 0.930 . S
H1784 C1817 0.930 . S
H1785 C1815 0.929 . S
H1786 C1818 0.928 . S
O1787 Co1771 2.057 . S
O1787 C1775 1.232 . S
H1788 C1807 0.929 . S
H1789 C1808 0.929 . S
H1790 C1820 0.931 . S
H1791 C1812 0.929 . S
H1792 C1821 0.930 . S
H1793 C1813 0.931 . S
O1794 Co1770 2.097 . S
O1794 C1822 1.214 . S
H1795 C1823 0.929 . S
H1796 C1824 0.929 . S
H1797 C1825 0.930 . S
H1798 C1826 0.929 . S
H1799 C1828 0.930 . S
H1800 C1805 0.930 . S
H1801 C1809 0.930 . S
O1802 Co1771 2.037 . S
O1802 C1822 1.234 . S
C1803 O1777 1.269 . S
C1803 O1778 1.257 . S
C1804 H1779 0.930 . S
C1804 C1807 1.388 . S
C1804 C1809 1.418 . S
C1805 H1800 0.930 . S
C1805 C1808 1.404 . S
C1805 C1809 1.353 . S
N1806 Co1771 2.145 . S
N1806 C1807 1.397 . S
N1806 C1808 1.334 . S
C1807 H1788 0.929 . S
C1807 C1804 1.388 . S
C1807 N1806 1.397 . S
C1808 H1789 0.929 . S
C1808 C1805 1.404 . S
C1808 N1806 1.334 . S
C1809 H1801 0.930 . S
C1809 C1804 1.418 . S
C1809 C1805 1.353 . S
C1810 H1780 0.930 . S
C1810 N1811 1.330 . S
C1810 C1812 1.446 . S
N1811 Co1770 2.151 . S
N1811 C1810 1.330 . S
N1811 C1815 1.418 . S
C1812 H1791 0.929 . S
C1812 C1810 1.446 . S
C1812 C1813 1.332 . S
C1813 H1793 0.931 . S
C1813 C1812 1.332 . S
C1813 C1814 1.267 . S
C1814 H1782 0.929 . S
C1814 C1813 1.267 . S
C1814 C1815 1.251 . S
C1815 H1785 0.929 . S
C1815 N1811 1.418 . S
C1815 C1814 1.251 . S
C1816 H1783 0.930 . S
C1816 C1818 1.406 . S
C1816 C1821 1.261 . S
C1817 H1784 0.930 . S
C1817 N1819 1.325 . S
C1817 C1820 1.357 . S
C1818 H1786 0.928 . S
C1818 C1816 1.406 . S
C1818 N1819 1.261 . S
N1819 Co1770 2.214 . S
N1819 C1817 1.325 . S
N1819 C1818 1.261 . S
C1820 H1790 0.931 . S
C1820 C1817 1.357 . S
C1820 C1821 1.312 . S
C1821 H1792 0.930 . S
C1821 C1816 1.261 . S
C1821 C1820 1.312 . S
C1822 O1794 1.214 . S
C1822 O1802 1.234 . S
C1823 H1795 0.929 . S
C1823 C1826 1.391 . S
C1823 C1828 1.391 . S
C1824 H1796 0.929 . S
C1824 C1825 1.390 . S
C1824 N1827 1.391 . S
C1825 H1797 0.930 . S
C1825 C1824 1.390 . S
C1825 C1826 1.392 . S
C1826 H1798 0.929 . S
C1826 C1823 1.391 . S
C1826 C1825 1.392 . S
N1827 Co1771 2.257 . S
N1827 C1824 1.391 . S
N1827 C1828 1.388 . S
C1828 H1799 0.930 . S
C1828 C1823 1.391 . S
C1828 N1827 1.388 . S
Co1829 O1831 2.143 . S
Co1829 O1837 2.074 . S
Co1829 O1840 2.093 . S
Co1829 O1853 2.097 . S
Co1829 N1870 2.151 . S
Co1829 N1878 2.214 . S
Co1830 O1831 2.160 . S
Co1830 O1836 2.058 . S
Co1830 O1846 2.057 . S
Co1830 O1861 2.037 . S
Co1830 N1865 2.145 . S
Co1830 N1886 2.257 . S
O1831 Co1829 2.143 . S
O1831 Co1830 2.160 . S
C1832 O1833 1.278 . S
C1832 O1840 1.224 . S
O1833 C1832 1.278 . S
C1834 O1835 1.245 . S
C1834 O1846 1.232 . S
O1835 C1834 1.245 . S
O1836 Co1830 2.058 . S
O1836 C1862 1.269 . S
O1837 Co1829 2.074 . S
O1837 C1862 1.257 . S
H1838 C1863 0.930 . S
H1839 C1869 0.930 . S
O1840 Co1829 2.093 . S
O1840 C1832 1.224 . S
H1841 C1873 0.929 . S
H1842 C1875 0.930 . S
H1843 C1876 0.930 . S
H1844 C1874 0.929 . S
H1845 C1877 0.928 . S
O1846 Co1830 2.057 . S
O1846 C1834 1.232 . S
H1847 C1866 0.929 . S
H1848 C1867 0.929 . S
H1849 C1879 0.931 . S
H1850 C1871 0.929 . S
H1851 C1880 0.930 . S
H1852 C1872 0.931 . S
O1853 Co1829 2.097 . S
O1853 C1881 1.214 . S
H1854 C1882 0.929 . S
H1855 C1883 0.929 . S
H1856 C1884 0.930 . S
H1857 C1885 0.929 . S
H1858 C1887 0.930 . S
H1859 C1864 0.930 . S
H1860 C1868 0.930 . S
O1861 Co1830 2.037 . S
O1861 C1881 1.234 . S
C1862 O1836 1.269 . S
C1862 O1837 1.257 . S
C1863 H1838 0.930 . S
C1863 C1866 1.388 . S
C1863 C1868 1.418 . S
C1864 H1859 0.930 . S
C1864 C1867 1.404 . S
C1864 C1868 1.353 . S
N1865 Co1830 2.145 . S
N1865 C1866 1.397 . S
N1865 C1867 1.334 . S
C1866 H1847 0.929 . S
C1866 C1863 1.388 . S
C1866 N1865 1.397 . S
C1867 H1848 0.929 . S
C1867 C1864 1.404 . S
C1867 N1865 1.334 . S
C1868 H1860 0.930 . S
C1868 C1863 1.418 . S
C1868 C1864 1.353 . S
C1869 H1839 0.930 . S
C1869 N1870 1.330 . S
C1869 C1871 1.446 . S
N1870 Co1829 2.151 . S
N1870 C1869 1.330 . S
N1870 C1874 1.418 . S
C1871 H1850 0.929 . S
C1871 C1869 1.446 . S
C1871 C1872 1.332 . S
C1872 H1852 0.931 . S
C1872 C1871 1.332 . S
C1872 C1873 1.267 . S
C1873 H1841 0.929 . S
C1873 C1872 1.267 . S
C1873 C1874 1.251 . S
C1874 H1844 0.929 . S
C1874 N1870 1.418 . S
C1874 C1873 1.251 . S
C1875 H1842 0.930 . S
C1875 C1877 1.406 . S
C1875 C1880 1.261 . S
C1876 H1843 0.930 . S
C1876 N1878 1.325 . S
C1876 C1879 1.357 . S
C1877 H1845 0.928 . S
C1877 C1875 1.406 . S
C1877 N1878 1.261 . S
N1878 Co1829 2.214 . S
N1878 C1876 1.325 . S
N1878 C1877 1.261 . S
C1879 H1849 0.931 . S
C1879 C1876 1.357 . S
C1879 C1880 1.312 . S
C1880 H1851 0.930 . S
C1880 C1875 1.261 . S
C1880 C1879 1.312 . S
C1881 O1853 1.214 . S
C1881 O1861 1.234 . S
C1882 H1854 0.929 . S
C1882 C1885 1.391 . S
C1882 C1887 1.391 . S
C1883 H1855 0.929 . S
C1883 C1884 1.390 . S
C1883 N1886 1.391 . S
C1884 H1856 0.930 . S
C1884 C1883 1.390 . S
C1884 C1885 1.392 . S
C1885 H1857 0.929 . S
C1885 C1882 1.391 . S
C1885 C1884 1.392 . S
N1886 Co1830 2.257 . S
N1886 C1883 1.391 . S
N1886 C1887 1.388 . S
C1887 H1858 0.930 . S
C1887 C1882 1.391 . S
C1887 N1886 1.388 . S
Co1888 O1890 2.143 . S
Co1888 O1896 2.074 . S
Co1888 O1899 2.093 . S
Co1888 O1912 2.097 . S
Co1888 N1929 2.151 . S
Co1888 N1937 2.214 . S
Co1889 O1890 2.160 . S
Co1889 O1895 2.058 . S
Co1889 O1905 2.057 . S
Co1889 O1920 2.037 . S
Co1889 N1924 2.145 . S
Co1889 N1945 2.257 . S
O1890 Co1888 2.143 . S
O1890 Co1889 2.160 . S
C1891 O1892 1.278 . S
C1891 O1899 1.224 . S
O1892 C1891 1.278 . S
C1893 O1894 1.245 . S
C1893 O1905 1.232 . S
O1894 C1893 1.245 . S
O1895 Co1889 2.058 . S
O1895 C1921 1.269 . S
O1896 Co1888 2.074 . S
O1896 C1921 1.257 . S
H1897 C1922 0.930 . S
H1898 C1928 0.930 . S
O1899 Co1888 2.093 . S
O1899 C1891 1.224 . S
H1900 C1932 0.929 . S
H1901 C1934 0.930 . S
H1902 C1935 0.930 . S
H1903 C1933 0.929 . S
H1904 C1936 0.928 . S
O1905 Co1889 2.057 . S
O1905 C1893 1.232 . S
H1906 C1925 0.929 . S
H1907 C1926 0.929 . S
H1908 C1938 0.931 . S
H1909 C1930 0.929 . S
H1910 C1939 0.930 . S
H1911 C1931 0.931 . S
O1912 Co1888 2.097 . S
O1912 C1940 1.214 . S
H1913 C1941 0.929 . S
H1914 C1942 0.929 . S
H1915 C1943 0.930 . S
H1916 C1944 0.929 . S
H1917 C1946 0.930 . S
H1918 C1923 0.930 . S
H1919 C1927 0.930 . S
O1920 Co1889 2.037 . S
O1920 C1940 1.234 . S
C1921 O1895 1.269 . S
C1921 O1896 1.257 . S
C1922 H1897 0.930 . S
C1922 C1925 1.388 . S
C1922 C1927 1.418 . S
C1923 H1918 0.930 . S
C1923 C1926 1.404 . S
C1923 C1927 1.353 . S
N1924 Co1889 2.145 . S
N1924 C1925 1.397 . S
N1924 C1926 1.334 . S
C1925 H1906 0.929 . S
C1925 C1922 1.388 . S
C1925 N1924 1.397 . S
C1926 H1907 0.929 . S
C1926 C1923 1.404 . S
C1926 N1924 1.334 . S
C1927 H1919 0.930 . S
C1927 C1922 1.418 . S
C1927 C1923 1.353 . S
C1928 H1898 0.930 . S
C1928 N1929 1.330 . S
C1928 C1930 1.446 . S
N1929 Co1888 2.151 . S
N1929 C1928 1.330 . S
N1929 C1933 1.418 . S
C1930 H1909 0.929 . S
C1930 C1928 1.446 . S
C1930 C1931 1.332 . S
C1931 H1911 0.931 . S
C1931 C1930 1.332 . S
C1931 C1932 1.267 . S
C1932 H1900 0.929 . S
C1932 C1931 1.267 . S
C1932 C1933 1.251 . S
C1933 H1903 0.929 . S
C1933 N1929 1.418 . S
C1933 C1932 1.251 . S
C1934 H1901 0.930 . S
C1934 C1936 1.406 . S
C1934 C1939 1.261 . S
C1935 H1902 0.930 . S
C1935 N1937 1.325 . S
C1935 C1938 1.357 . S
C1936 H1904 0.928 . S
C1936 C1934 1.406 . S
C1936 N1937 1.261 . S
N1937 Co1888 2.214 . S
N1937 C1935 1.325 . S
N1937 C1936 1.261 . S
C1938 H1908 0.931 . S
C1938 C1935 1.357 . S
C1938 C1939 1.312 . S
C1939 H1910 0.930 . S
C1939 C1934 1.261 . S
C1939 C1938 1.312 . S
C1940 O1912 1.214 . S
C1940 O1920 1.234 . S
C1941 H1913 0.929 . S
C1941 C1944 1.391 . S
C1941 C1946 1.391 . S
C1942 H1914 0.929 . S
C1942 C1943 1.390 . S
C1942 N1945 1.391 . S
C1943 H1915 0.930 . S
C1943 C1942 1.390 . S
C1943 C1944 1.392 . S
C1944 H1916 0.929 . S
C1944 C1941 1.391 . S
C1944 C1943 1.392 . S
N1945 Co1889 2.257 . S
N1945 C1942 1.391 . S
N1945 C1946 1.388 . S
C1946 H1917 0.930 . S
C1946 C1941 1.391 . S
C1946 N1945 1.388 . S
Co1947 O1949 2.143 . S
Co1947 O1955 2.074 . S
Co1947 O1958 2.093 . S
Co1947 O1971 2.097 . S
Co1947 N1988 2.151 . S
Co1947 N1996 2.214 . S
Co1948 O1949 2.160 1_556 S
Co1948 O1954 2.058 . S
Co1948 O1964 2.057 . S
Co1948 O1979 2.037 1_556 S
Co1948 N1983 2.145 . S
Co1948 N2004 2.257 . S
O1949 Co1947 2.143 . S
O1949 Co1948 2.160 1_554 S
C1950 O1951 1.278 . S
C1950 O1958 1.224 . S
O1951 C1950 1.278 . S
C1952 O1953 1.245 . S
C1952 O1964 1.232 . S
O1953 C1952 1.245 . S
O1954 Co1948 2.058 . S
O1954 C1980 1.269 . S
O1955 Co1947 2.074 . S
O1955 C1980 1.257 1_554 S
H1956 C1981 0.930 . S
H1957 C1987 0.930 . S
O1958 Co1947 2.093 . S
O1958 C1950 1.224 . S
H1959 C1991 0.929 . S
H1960 C1993 0.930 . S
H1961 C1994 0.930 . S
H1962 C1992 0.929 . S
H1963 C1995 0.928 . S
O1964 Co1948 2.057 . S
O1964 C1952 1.232 . S
H1965 C1984 0.929 . S
H1966 C1985 0.929 . S
H1967 C1997 0.931 . S
H1968 C1989 0.929 . S
H1969 C1998 0.930 . S
H1970 C1990 0.931 . S
O1971 Co1947 2.097 . S
O1971 C1999 1.214 . S
H1972 C2000 0.929 . S
H1973 C2001 0.929 1_556 S
H1974 C2002 0.930 . S
H1975 C2003 0.929 . S
H1976 C2005 0.930 . S
H1977 C1982 0.930 . S
H1978 C1986 0.930 . S
O1979 Co1948 2.037 1_554 S
O1979 C1999 1.234 . S
C1980 O1954 1.269 . S
C1980 O1955 1.257 1_556 S
C1981 H1956 0.930 . S
C1981 C1984 1.388 . S
C1981 C1986 1.418 . S
C1982 H1977 0.930 . S
C1982 C1985 1.404 . S
C1982 C1986 1.353 . S
N1983 Co1948 2.145 . S
N1983 C1984 1.397 . S
N1983 C1985 1.334 . S
C1984 H1965 0.929 . S
C1984 C1981 1.388 . S
C1984 N1983 1.397 . S
C1985 H1966 0.929 . S
C1985 C1982 1.404 . S
C1985 N1983 1.334 . S
C1986 H1978 0.930 . S
C1986 C1981 1.418 . S
C1986 C1982 1.353 . S
C1987 H1957 0.930 . S
C1987 N1988 1.330 . S
C1987 C1989 1.446 . S
N1988 Co1947 2.151 . S
N1988 C1987 1.330 . S
N1988 C1992 1.418 . S
C1989 H1968 0.929 . S
C1989 C1987 1.446 . S
C1989 C1990 1.332 . S
C1990 H1970 0.931 . S
C1990 C1989 1.332 . S
C1990 C1991 1.267 . S
C1991 H1959 0.929 . S
C1991 C1990 1.267 . S
C1991 C1992 1.251 . S
C1992 H1962 0.929 . S
C1992 N1988 1.418 . S
C1992 C1991 1.251 . S
C1993 H1960 0.930 . S
C1993 C1995 1.406 . S
C1993 C1998 1.261 . S
C1994 H1961 0.930 . S
C1994 N1996 1.325 . S
C1994 C1997 1.357 . S
C1995 H1963 0.928 . S
C1995 C1993 1.406 . S
C1995 N1996 1.261 . S
N1996 Co1947 2.214 . S
N1996 C1994 1.325 . S
N1996 C1995 1.261 . S
C1997 H1967 0.931 . S
C1997 C1994 1.357 . S
C1997 C1998 1.312 . S
C1998 H1969 0.930 . S
C1998 C1993 1.261 . S
C1998 C1997 1.312 . S
C1999 O1971 1.214 . S
C1999 O1979 1.234 . S
C2000 H1972 0.929 . S
C2000 C2003 1.391 . S
C2000 C2005 1.391 . S
C2001 H1973 0.929 1_554 S
C2001 C2002 1.390 . S
C2001 N2004 1.391 1_554 S
C2002 H1974 0.930 . S
C2002 C2001 1.390 . S
C2002 C2003 1.392 . S
C2003 H1975 0.929 . S
C2003 C2000 1.391 . S
C2003 C2002 1.392 . S
N2004 Co1948 2.257 . S
N2004 C2001 1.391 1_556 S
N2004 C2005 1.388 1_556 S
C2005 H1976 0.930 . S
C2005 C2000 1.391 . S
C2005 N2004 1.388 1_554 S
Co2006 O2008 2.143 . S
Co2006 O2014 2.074 . S
Co2006 O2017 2.093 . S
Co2006 O2030 2.097 . S
Co2006 N2047 2.151 . S
Co2006 N2055 2.214 . S
Co2007 O2008 2.160 . S
Co2007 O2013 2.058 . S
Co2007 O2023 2.057 . S
Co2007 O2038 2.037 . S
Co2007 N2042 2.145 . S
Co2007 N2063 2.257 . S
O2008 Co2006 2.143 . S
O2008 Co2007 2.160 . S
C2009 O2010 1.278 . S
C2009 O2017 1.224 . S
O2010 C2009 1.278 . S
C2011 O2012 1.245 . S
C2011 O2023 1.232 . S
O2012 C2011 1.245 . S
O2013 Co2007 2.058 . S
O2013 C2039 1.269 . S
O2014 Co2006 2.074 . S
O2014 C2039 1.257 . S
H2015 C2040 0.930 . S
H2016 C2046 0.930 . S
O2017 Co2006 2.093 . S
O2017 C2009 1.224 . S
H2018 C2050 0.929 . S
H2019 C2052 0.930 . S
H2020 C2053 0.930 . S
H2021 C2051 0.929 . S
H2022 C2054 0.928 . S
O2023 Co2007 2.057 . S
O2023 C2011 1.232 . S
H2024 C2043 0.929 . S
H2025 C2044 0.929 . S
H2026 C2056 0.931 . S
H2027 C2048 0.929 . S
H2028 C2057 0.930 . S
H2029 C2049 0.931 . S
O2030 Co2006 2.097 . S
O2030 C2058 1.214 . S
H2031 C2059 0.929 . S
H2032 C2060 0.929 . S
H2033 C2061 0.930 . S
H2034 C2062 0.929 . S
H2035 C2064 0.930 . S
H2036 C2041 0.930 . S
H2037 C2045 0.930 . S
O2038 Co2007 2.037 . S
O2038 C2058 1.234 . S
C2039 O2013 1.269 . S
C2039 O2014 1.257 . S
C2040 H2015 0.930 . S
C2040 C2043 1.388 . S
C2040 C2045 1.418 . S
C2041 H2036 0.930 . S
C2041 C2044 1.404 . S
C2041 C2045 1.353 . S
N2042 Co2007 2.145 . S
N2042 C2043 1.397 . S
N2042 C2044 1.334 . S
C2043 H2024 0.929 . S
C2043 C2040 1.388 . S
C2043 N2042 1.397 . S
C2044 H2025 0.929 . S
C2044 C2041 1.404 . S
C2044 N2042 1.334 . S
C2045 H2037 0.930 . S
C2045 C2040 1.418 . S
C2045 C2041 1.353 . S
C2046 H2016 0.930 . S
C2046 N2047 1.330 . S
C2046 C2048 1.446 . S
N2047 Co2006 2.151 . S
N2047 C2046 1.330 . S
N2047 C2051 1.418 . S
C2048 H2027 0.929 . S
C2048 C2046 1.446 . S
C2048 C2049 1.332 . S
C2049 H2029 0.931 . S
C2049 C2048 1.332 . S
C2049 C2050 1.267 . S
C2050 H2018 0.929 . S
C2050 C2049 1.267 . S
C2050 C2051 1.251 . S
C2051 H2021 0.929 . S
C2051 N2047 1.418 . S
C2051 C2050 1.251 . S
C2052 H2019 0.930 . S
C2052 C2054 1.406 . S
C2052 C2057 1.261 . S
C2053 H2020 0.930 . S
C2053 N2055 1.325 . S
C2053 C2056 1.357 . S
C2054 H2022 0.928 . S
C2054 C2052 1.406 . S
C2054 N2055 1.261 . S
N2055 Co2006 2.214 . S
N2055 C2053 1.325 . S
N2055 C2054 1.261 . S
C2056 H2026 0.931 . S
C2056 C2053 1.357 . S
C2056 C2057 1.312 . S
C2057 H2028 0.930 . S
C2057 C2052 1.261 . S
C2057 C2056 1.312 . S
C2058 O2030 1.214 . S
C2058 O2038 1.234 . S
C2059 H2031 0.929 . S
C2059 C2062 1.391 . S
C2059 C2064 1.391 . S
C2060 H2032 0.929 . S
C2060 C2061 1.390 . S
C2060 N2063 1.391 . S
C2061 H2033 0.930 . S
C2061 C2060 1.390 . S
C2061 C2062 1.392 . S
C2062 H2034 0.929 . S
C2062 C2059 1.391 . S
C2062 C2061 1.392 . S
N2063 Co2007 2.257 . S
N2063 C2060 1.391 . S
N2063 C2064 1.388 . S
C2064 H2035 0.930 . S
C2064 C2059 1.391 . S
C2064 N2063 1.388 . S
Co2065 O2067 2.143 . S
Co2065 O2073 2.074 . S
Co2065 O2076 2.093 . S
Co2065 O2089 2.097 . S
Co2065 N2106 2.151 . S
Co2065 N2114 2.214 . S
Co2066 O2067 2.160 . S
Co2066 O2072 2.058 . S
Co2066 O2082 2.057 . S
Co2066 O2097 2.037 . S
Co2066 N2101 2.145 . S
Co2066 N2122 2.257 . S
O2067 Co2065 2.143 . S
O2067 Co2066 2.160 . S
C2068 O2069 1.278 . S
C2068 O2076 1.224 . S
O2069 C2068 1.278 . S
C2070 O2071 1.245 . S
C2070 O2082 1.232 . S
O2071 C2070 1.245 . S
O2072 Co2066 2.058 . S
O2072 C2098 1.269 . S
O2073 Co2065 2.074 . S
O2073 C2098 1.257 . S
H2074 C2099 0.930 . S
H2075 C2105 0.930 . S
O2076 Co2065 2.093 . S
O2076 C2068 1.224 . S
H2077 C2109 0.929 1_455 S
H2078 C2111 0.930 . S
H2079 C2112 0.930 . S
H2080 C2110 0.929 . S
H2081 C2113 0.928 . S
O2082 Co2066 2.057 . S
O2082 C2070 1.232 . S
H2083 C2102 0.929 . S
H2084 C2103 0.929 . S
H2085 C2115 0.931 . S
H2086 C2107 0.929 . S
H2087 C2116 0.930 . S
H2088 C2108 0.931 . S
O2089 Co2065 2.097 . S
O2089 C2117 1.214 . S
H2090 C2118 0.929 . S
H2091 C2119 0.929 . S
H2092 C2120 0.930 . S
H2093 C2121 0.929 . S
H2094 C2123 0.930 . S
H2095 C2100 0.930 . S
H2096 C2104 0.930 . S
O2097 Co2066 2.037 . S
O2097 C2117 1.234 . S
C2098 O2072 1.269 . S
C2098 O2073 1.257 . S
C2099 H2074 0.930 . S
C2099 C2102 1.388 . S
C2099 C2104 1.418 . S
C2100 H2095 0.930 . S
C2100 C2103 1.404 . S
C2100 C2104 1.353 . S
N2101 Co2066 2.145 . S
N2101 C2102 1.397 . S
N2101 C2103 1.334 . S
C2102 H2083 0.929 . S
C2102 C2099 1.388 . S
C2102 N2101 1.397 . S
C2103 H2084 0.929 . S
C2103 C2100 1.404 . S
C2103 N2101 1.334 . S
C2104 H2096 0.930 . S
C2104 C2099 1.418 . S
C2104 C2100 1.353 . S
C2105 H2075 0.930 . S
C2105 N2106 1.330 . S
C2105 C2107 1.446 . S
N2106 Co2065 2.151 . S
N2106 C2105 1.330 . S
N2106 C2110 1.418 . S
C2107 H2086 0.929 . S
C2107 C2105 1.446 . S
C2107 C2108 1.332 . S
C2108 H2088 0.931 . S
C2108 C2107 1.332 . S
C2108 C2109 1.267 . S
C2109 H2077 0.929 1_655 S
C2109 C2108 1.267 . S
C2109 C2110 1.251 . S
C2110 H2080 0.929 . S
C2110 N2106 1.418 . S
C2110 C2109 1.251 . S
C2111 H2078 0.930 . S
C2111 C2113 1.406 1_455 S
C2111 C2116 1.261 . S
C2112 H2079 0.930 . S
C2112 N2114 1.325 . S
C2112 C2115 1.357 1_655 S
C2113 H2081 0.928 . S
C2113 C2111 1.406 1_655 S
C2113 N2114 1.261 . S
N2114 Co2065 2.214 . S
N2114 C2112 1.325 . S
N2114 C2113 1.261 . S
C2115 H2085 0.931 . S
C2115 C2112 1.357 1_455 S
C2115 C2116 1.312 . S
C2116 H2087 0.930 . S
C2116 C2111 1.261 . S
C2116 C2115 1.312 . S
C2117 O2089 1.214 . S
C2117 O2097 1.234 . S
C2118 H2090 0.929 . S
C2118 C2121 1.391 . S
C2118 C2123 1.391 . S
C2119 H2091 0.929 . S
C2119 C2120 1.390 . S
C2119 N2122 1.391 . S
C2120 H2092 0.930 . S
C2120 C2119 1.390 . S
C2120 C2121 1.392 . S
C2121 H2093 0.929 . S
C2121 C2118 1.391 . S
C2121 C2120 1.392 . S
N2122 Co2066 2.257 . S
N2122 C2119 1.391 . S
N2122 C2123 1.388 . S
C2123 H2094 0.930 . S
C2123 C2118 1.391 . S
C2123 N2122 1.388 . S
Co2124 O2126 2.143 . S
Co2124 O2132 2.074 . S
Co2124 O2135 2.093 . S
Co2124 O2148 2.097 . S
Co2124 N2165 2.151 . S
Co2124 N2173 2.214 . S
Co2125 O2126 2.160 . S
Co2125 O2131 2.058 . S
Co2125 O2141 2.057 . S
Co2125 O2156 2.037 . S
Co2125 N2160 2.145 . S
Co2125 N2181 2.257 . S
O2126 Co2124 2.143 . S
O2126 Co2125 2.160 . S
C2127 O2128 1.278 . S
C2127 O2135 1.224 . S
O2128 C2127 1.278 . S
C2129 O2130 1.245 . S
C2129 O2141 1.232 . S
O2130 C2129 1.245 . S
O2131 Co2125 2.058 . S
O2131 C2157 1.269 . S
O2132 Co2124 2.074 . S
O2132 C2157 1.257 . S
H2133 C2158 0.930 . S
H2134 C2164 0.930 . S
O2135 Co2124 2.093 . S
O2135 C2127 1.224 . S
H2136 C2168 0.929 . S
H2137 C2170 0.930 . S
H2138 C2171 0.930 . S
H2139 C2169 0.929 . S
H2140 C2172 0.928 . S
O2141 Co2125 2.057 . S
O2141 C2129 1.232 . S
H2142 C2161 0.929 . S
H2143 C2162 0.929 . S
H2144 C2174 0.931 . S
H2145 C2166 0.929 . S
H2146 C2175 0.930 . S
H2147 C2167 0.931 . S
O2148 Co2124 2.097 . S
O2148 C2176 1.214 . S
H2149 C2177 0.929 . S
H2150 C2178 0.929 . S
H2151 C2179 0.930 . S
H2152 C2180 0.929 . S
H2153 C2182 0.930 . S
H2154 C2159 0.930 . S
H2155 C2163 0.930 . S
O2156 Co2125 2.037 . S
O2156 C2176 1.234 . S
C2157 O2131 1.269 . S
C2157 O2132 1.257 . S
C2158 H2133 0.930 . S
C2158 C2161 1.388 . S
C2158 C2163 1.418 . S
C2159 H2154 0.930 . S
C2159 C2162 1.404 . S
C2159 C2163 1.353 . S
N2160 Co2125 2.145 . S
N2160 C2161 1.397 . S
N2160 C2162 1.334 . S
C2161 H2142 0.929 . S
C2161 C2158 1.388 . S
C2161 N2160 1.397 . S
C2162 H2143 0.929 . S
C2162 C2159 1.404 . S
C2162 N2160 1.334 . S
C2163 H2155 0.930 . S
C2163 C2158 1.418 . S
C2163 C2159 1.353 . S
C2164 H2134 0.930 . S
C2164 N2165 1.330 . S
C2164 C2166 1.446 . S
N2165 Co2124 2.151 . S
N2165 C2164 1.330 . S
N2165 C2169 1.418 . S
C2166 H2145 0.929 . S
C2166 C2164 1.446 . S
C2166 C2167 1.332 . S
C2167 H2147 0.931 . S
C2167 C2166 1.332 . S
C2167 C2168 1.267 . S
C2168 H2136 0.929 . S
C2168 C2167 1.267 . S
C2168 C2169 1.251 . S
C2169 H2139 0.929 . S
C2169 N2165 1.418 . S
C2169 C2168 1.251 . S
C2170 H2137 0.930 . S
C2170 C2172 1.406 . S
C2170 C2175 1.261 . S
C2171 H2138 0.930 . S
C2171 N2173 1.325 . S
C2171 C2174 1.357 . S
C2172 H2140 0.928 . S
C2172 C2170 1.406 . S
C2172 N2173 1.261 . S
N2173 Co2124 2.214 . S
N2173 C2171 1.325 . S
N2173 C2172 1.261 . S
C2174 H2144 0.931 . S
C2174 C2171 1.357 . S
C2174 C2175 1.312 . S
C2175 H2146 0.930 . S
C2175 C2170 1.261 . S
C2175 C2174 1.312 . S
C2176 O2148 1.214 . S
C2176 O2156 1.234 . S
C2177 H2149 0.929 . S
C2177 C2180 1.391 . S
C2177 C2182 1.391 . S
C2178 H2150 0.929 . S
C2178 C2179 1.390 . S
C2178 N2181 1.391 . S
C2179 H2151 0.930 . S
C2179 C2178 1.390 . S
C2179 C2180 1.392 . S
C2180 H2152 0.929 . S
C2180 C2177 1.391 . S
C2180 C2179 1.392 . S
N2181 Co2125 2.257 . S
N2181 C2178 1.391 . S
N2181 C2182 1.388 . S
C2182 H2153 0.930 . S
C2182 C2177 1.391 . S
C2182 N2181 1.388 . S
Co2183 O2185 2.143 . S
Co2183 O2191 2.074 . S
Co2183 O2194 2.093 . S
Co2183 O2207 2.097 . S
Co2183 N2224 2.151 . S
Co2183 N2232 2.214 . S
Co2184 O2185 2.160 1_554 S
Co2184 O2190 2.058 . S
Co2184 O2200 2.057 . S
Co2184 O2215 2.037 1_554 S
Co2184 N2219 2.145 . S
Co2184 N2240 2.257 . S
O2185 Co2183 2.143 . S
O2185 Co2184 2.160 1_556 S
C2186 O2187 1.278 . S
C2186 O2194 1.224 . S
O2187 C2186 1.278 . S
C2188 O2189 1.245 . S
C2188 O2200 1.232 . S
O2189 C2188 1.245 . S
O2190 Co2184 2.058 . S
O2190 C2216 1.269 . S
O2191 Co2183 2.074 . S
O2191 C2216 1.257 1_556 S
H2192 C2217 0.930 . S
H2193 C2223 0.930 . S
O2194 Co2183 2.093 . S
O2194 C2186 1.224 . S
H2195 C2227 0.929 1_455 S
H2196 C2229 0.930 . S
H2197 C2230 0.930 . S
H2198 C2228 0.929 . S
H2199 C2231 0.928 . S
O2200 Co2184 2.057 . S
O2200 C2188 1.232 . S
H2201 C2220 0.929 . S
H2202 C2221 0.929 . S
H2203 C2233 0.931 . S
H2204 C2225 0.929 . S
H2205 C2234 0.930 . S
H2206 C2226 0.931 . S
O2207 Co2183 2.097 . S
O2207 C2235 1.214 . S
H2208 C2236 0.929 . S
H2209 C2237 0.929 1_554 S
H2210 C2238 0.930 . S
H2211 C2239 0.929 . S
H2212 C2241 0.930 . S
H2213 C2218 0.930 . S
H2214 C2222 0.930 . S
O2215 Co2184 2.037 1_556 S
O2215 C2235 1.234 . S
C2216 O2190 1.269 . S
C2216 O2191 1.257 1_554 S
C2217 H2192 0.930 . S
C2217 C2220 1.388 . S
C2217 C2222 1.418 . S
C2218 H2213 0.930 . S
C2218 C2221 1.404 . S
C2218 C2222 1.353 . S
N2219 Co2184 2.145 . S
N2219 C2220 1.397 . S
N2219 C2221 1.334 . S
C2220 H2201 0.929 . S
C2220 C2217 1.388 . S
C2220 N2219 1.397 . S
C2221 H2202 0.929 . S
C2221 C2218 1.404 . S
C2221 N2219 1.334 . S
C2222 H2214 0.930 . S
C2222 C2217 1.418 . S
C2222 C2218 1.353 . S
C2223 H2193 0.930 . S
C2223 N2224 1.330 . S
C2223 C2225 1.446 . S
N2224 Co2183 2.151 . S
N2224 C2223 1.330 . S
N2224 C2228 1.418 . S
C2225 H2204 0.929 . S
C2225 C2223 1.446 . S
C2225 C2226 1.332 . S
C2226 H2206 0.931 . S
C2226 C2225 1.332 . S
C2226 C2227 1.267 . S
C2227 H2195 0.929 1_655 S
C2227 C2226 1.267 . S
C2227 C2228 1.251 . S
C2228 H2198 0.929 . S
C2228 N2224 1.418 . S
C2228 C2227 1.251 . S
C2229 H2196 0.930 . S
C2229 C2231 1.406 1_455 S
C2229 C2234 1.261 . S
C2230 H2197 0.930 . S
C2230 N2232 1.325 . S
C2230 C2233 1.357 1_655 S
C2231 H2199 0.928 . S
C2231 C2229 1.406 1_655 S
C2231 N2232 1.261 . S
N2232 Co2183 2.214 . S
N2232 C2230 1.325 . S
N2232 C2231 1.261 . S
C2233 H2203 0.931 . S
C2233 C2230 1.357 1_455 S
C2233 C2234 1.312 . S
C2234 H2205 0.930 . S
C2234 C2229 1.261 . S
C2234 C2233 1.312 . S
C2235 O2207 1.214 . S
C2235 O2215 1.234 . S
C2236 H2208 0.929 . S
C2236 C2239 1.391 . S
C2236 C2241 1.391 . S
C2237 H2209 0.929 1_556 S
C2237 C2238 1.390 . S
C2237 N2240 1.391 1_556 S
C2238 H2210 0.930 . S
C2238 C2237 1.390 . S
C2238 C2239 1.392 . S
C2239 H2211 0.929 . S
C2239 C2236 1.391 . S
C2239 C2238 1.392 . S
N2240 Co2184 2.257 . S
N2240 C2237 1.391 1_554 S
N2240 C2241 1.388 1_554 S
C2241 H2212 0.930 . S
C2241 C2236 1.391 . S
C2241 N2240 1.388 1_556 S
Co2242 O2244 2.143 . S
Co2242 O2250 2.074 . S
Co2242 O2253 2.093 . S
Co2242 O2266 2.097 . S
Co2242 N2283 2.151 . S
Co2242 N2291 2.214 . S
Co2243 O2244 2.160 . S
Co2243 O2249 2.058 . S
Co2243 O2259 2.057 . S
Co2243 O2274 2.037 . S
Co2243 N2278 2.145 . S
Co2243 N2299 2.257 . S
O2244 Co2242 2.143 . S
O2244 Co2243 2.160 . S
C2245 O2246 1.278 . S
C2245 O2253 1.224 . S
O2246 C2245 1.278 . S
C2247 O2248 1.245 . S
C2247 O2259 1.232 . S
O2248 C2247 1.245 . S
O2249 Co2243 2.058 . S
O2249 C2275 1.269 . S
O2250 Co2242 2.074 . S
O2250 C2275 1.257 . S
H2251 C2276 0.930 . S
H2252 C2282 0.930 . S
O2253 Co2242 2.093 . S
O2253 C2245 1.224 . S
H2254 C2286 0.929 . S
H2255 C2288 0.930 . S
H2256 C2289 0.930 . S
H2257 C2287 0.929 . S
H2258 C2290 0.928 . S
O2259 Co2243 2.057 . S
O2259 C2247 1.232 . S
H2260 C2279 0.929 . S
H2261 C2280 0.929 . S
H2262 C2292 0.931 . S
H2263 C2284 0.929 . S
H2264 C2293 0.930 . S
H2265 C2285 0.931 . S
O2266 Co2242 2.097 . S
O2266 C2294 1.214 . S
H2267 C2295 0.929 . S
H2268 C2296 0.929 . S
H2269 C2297 0.930 . S
H2270 C2298 0.929 . S
H2271 C2300 0.930 . S
H2272 C2277 0.930 . S
H2273 C2281 0.930 . S
O2274 Co2243 2.037 . S
O2274 C2294 1.234 . S
C2275 O2249 1.269 . S
C2275 O2250 1.257 . S
C2276 H2251 0.930 . S
C2276 C2279 1.388 . S
C2276 C2281 1.418 . S
C2277 H2272 0.930 . S
C2277 C2280 1.404 . S
C2277 C2281 1.353 . S
N2278 Co2243 2.145 . S
N2278 C2279 1.397 . S
N2278 C2280 1.334 . S
C2279 H2260 0.929 . S
C2279 C2276 1.388 . S
C2279 N2278 1.397 . S
C2280 H2261 0.929 . S
C2280 C2277 1.404 . S
C2280 N2278 1.334 . S
C2281 H2273 0.930 . S
C2281 C2276 1.418 . S
C2281 C2277 1.353 . S
C2282 H2252 0.930 . S
C2282 N2283 1.330 . S
C2282 C2284 1.446 . S
N2283 Co2242 2.151 . S
N2283 C2282 1.330 . S
N2283 C2287 1.418 . S
C2284 H2263 0.929 . S
C2284 C2282 1.446 . S
C2284 C2285 1.332 . S
C2285 H2265 0.931 . S
C2285 C2284 1.332 . S
C2285 C2286 1.267 . S
C2286 H2254 0.929 . S
C2286 C2285 1.267 . S
C2286 C2287 1.251 . S
C2287 H2257 0.929 . S
C2287 N2283 1.418 . S
C2287 C2286 1.251 . S
C2288 H2255 0.930 . S
C2288 C2290 1.406 . S
C2288 C2293 1.261 . S
C2289 H2256 0.930 . S
C2289 N2291 1.325 . S
C2289 C2292 1.357 . S
C2290 H2258 0.928 . S
C2290 C2288 1.406 . S
C2290 N2291 1.261 . S
N2291 Co2242 2.214 . S
N2291 C2289 1.325 . S
N2291 C2290 1.261 . S
C2292 H2262 0.931 . S
C2292 C2289 1.357 . S
C2292 C2293 1.312 . S
C2293 H2264 0.930 . S
C2293 C2288 1.261 . S
C2293 C2292 1.312 . S
C2294 O2266 1.214 . S
C2294 O2274 1.234 . S
C2295 H2267 0.929 . S
C2295 C2298 1.391 . S
C2295 C2300 1.391 . S
C2296 H2268 0.929 . S
C2296 C2297 1.390 . S
C2296 N2299 1.391 . S
C2297 H2269 0.930 . S
C2297 C2296 1.390 . S
C2297 C2298 1.392 . S
C2298 H2270 0.929 . S
C2298 C2295 1.391 . S
C2298 C2297 1.392 . S
N2299 Co2243 2.257 . S
N2299 C2296 1.391 . S
N2299 C2300 1.388 . S
C2300 H2271 0.930 . S
C2300 C2295 1.391 . S
C2300 N2299 1.388 . S
Co2301 O2303 2.143 . S
Co2301 O2309 2.074 . S
Co2301 O2312 2.093 . S
Co2301 O2325 2.097 . S
Co2301 N2342 2.151 . S
Co2301 N2350 2.214 . S
Co2302 O2303 2.160 . S
Co2302 O2308 2.058 . S
Co2302 O2318 2.057 . S
Co2302 O2333 2.037 . S
Co2302 N2337 2.145 . S
Co2302 N2358 2.257 . S
O2303 Co2301 2.143 . S
O2303 Co2302 2.160 . S
C2304 O2305 1.278 . S
C2304 O2312 1.224 . S
O2305 C2304 1.278 . S
C2306 O2307 1.245 . S
C2306 O2318 1.232 . S
O2307 C2306 1.245 . S
O2308 Co2302 2.058 . S
O2308 C2334 1.269 . S
O2309 Co2301 2.074 . S
O2309 C2334 1.257 . S
H2310 C2335 0.930 . S
H2311 C2341 0.930 . S
O2312 Co2301 2.093 . S
O2312 C2304 1.224 . S
H2313 C2345 0.929 . S
H2314 C2347 0.930 . S
H2315 C2348 0.930 . S
H2316 C2346 0.929 . S
H2317 C2349 0.928 . S
O2318 Co2302 2.057 . S
O2318 C2306 1.232 . S
H2319 C2338 0.929 . S
H2320 C2339 0.929 . S
H2321 C2351 0.931 . S
H2322 C2343 0.929 . S
H2323 C2352 0.930 . S
H2324 C2344 0.931 . S
O2325 Co2301 2.097 . S
O2325 C2353 1.214 . S
H2326 C2354 0.929 . S
H2327 C2355 0.929 . S
H2328 C2356 0.930 . S
H2329 C2357 0.929 . S
H2330 C2359 0.930 . S
H2331 C2336 0.930 . S
H2332 C2340 0.930 . S
O2333 Co2302 2.037 . S
O2333 C2353 1.234 . S
C2334 O2308 1.269 . S
C2334 O2309 1.257 . S
C2335 H2310 0.930 . S
C2335 C2338 1.388 . S
C2335 C2340 1.418 . S
C2336 H2331 0.930 . S
C2336 C2339 1.404 . S
C2336 C2340 1.353 . S
N2337 Co2302 2.145 . S
N2337 C2338 1.397 . S
N2337 C2339 1.334 . S
C2338 H2319 0.929 . S
C2338 C2335 1.388 . S
C2338 N2337 1.397 . S
C2339 H2320 0.929 . S
C2339 C2336 1.404 . S
C2339 N2337 1.334 . S
C2340 H2332 0.930 . S
C2340 C2335 1.418 . S
C2340 C2336 1.353 . S
C2341 H2311 0.930 . S
C2341 N2342 1.330 . S
C2341 C2343 1.446 . S
N2342 Co2301 2.151 . S
N2342 C2341 1.330 . S
N2342 C2346 1.418 . S
C2343 H2322 0.929 . S
C2343 C2341 1.446 . S
C2343 C2344 1.332 . S
C2344 H2324 0.931 . S
C2344 C2343 1.332 . S
C2344 C2345 1.267 . S
C2345 H2313 0.929 . S
C2345 C2344 1.267 . S
C2345 C2346 1.251 . S
C2346 H2316 0.929 . S
C2346 N2342 1.418 . S
C2346 C2345 1.251 . S
C2347 H2314 0.930 . S
C2347 C2349 1.406 . S
C2347 C2352 1.261 . S
C2348 H2315 0.930 . S
C2348 N2350 1.325 . S
C2348 C2351 1.357 . S
C2349 H2317 0.928 . S
C2349 C2347 1.406 . S
C2349 N2350 1.261 . S
N2350 Co2301 2.214 . S
N2350 C2348 1.325 . S
N2350 C2349 1.261 . S
C2351 H2321 0.931 . S
C2351 C2348 1.357 . S
C2351 C2352 1.312 . S
C2352 H2323 0.930 . S
C2352 C2347 1.261 . S
C2352 C2351 1.312 . S
C2353 O2325 1.214 . S
C2353 O2333 1.234 . S
C2354 H2326 0.929 . S
C2354 C2357 1.391 . S
C2354 C2359 1.391 . S
C2355 H2327 0.929 . S
C2355 C2356 1.390 . S
C2355 N2358 1.391 . S
C2356 H2328 0.930 . S
C2356 C2355 1.390 . S
C2356 C2357 1.392 . S
C2357 H2329 0.929 . S
C2357 C2354 1.391 . S
C2357 C2356 1.392 . S
N2358 Co2302 2.257 . S
N2358 C2355 1.391 . S
N2358 C2359 1.388 . S
C2359 H2330 0.930 . S
C2359 C2354 1.391 . S
C2359 N2358 1.388 . S
Co2360 O2362 2.143 . S
Co2360 O2368 2.074 . S
Co2360 O2371 2.093 . S
Co2360 O2384 2.097 . S
Co2360 N2401 2.151 . S
Co2360 N2409 2.214 . S
Co2361 O2362 2.160 . S
Co2361 O2367 2.058 . S
Co2361 O2377 2.057 . S
Co2361 O2392 2.037 . S
Co2361 N2396 2.145 . S
Co2361 N2417 2.257 . S
O2362 Co2360 2.143 . S
O2362 Co2361 2.160 . S
C2363 O2364 1.278 . S
C2363 O2371 1.224 . S
O2364 C2363 1.278 . S
C2365 O2366 1.245 . S
C2365 O2377 1.232 . S
O2366 C2365 1.245 . S
O2367 Co2361 2.058 . S
O2367 C2393 1.269 . S
O2368 Co2360 2.074 . S
O2368 C2393 1.257 . S
H2369 C2394 0.930 . S
H2370 C2400 0.930 . S
O2371 Co2360 2.093 . S
O2371 C2363 1.224 . S
H2372 C2404 0.929 . S
H2373 C2406 0.930 . S
H2374 C2407 0.930 . S
H2375 C2405 0.929 . S
H2376 C2408 0.928 . S
O2377 Co2361 2.057 . S
O2377 C2365 1.232 . S
H2378 C2397 0.929 . S
H2379 C2398 0.929 . S
H2380 C2410 0.931 . S
H2381 C2402 0.929 . S
H2382 C2411 0.930 . S
H2383 C2403 0.931 . S
O2384 Co2360 2.097 . S
O2384 C2412 1.214 . S
H2385 C2413 0.929 . S
H2386 C2414 0.929 . S
H2387 C2415 0.930 . S
H2388 C2416 0.929 . S
H2389 C2418 0.930 . S
H2390 C2395 0.930 . S
H2391 C2399 0.930 . S
O2392 Co2361 2.037 . S
O2392 C2412 1.234 . S
C2393 O2367 1.269 . S
C2393 O2368 1.257 . S
C2394 H2369 0.930 . S
C2394 C2397 1.388 . S
C2394 C2399 1.418 . S
C2395 H2390 0.930 . S
C2395 C2398 1.404 . S
C2395 C2399 1.353 . S
N2396 Co2361 2.145 . S
N2396 C2397 1.397 . S
N2396 C2398 1.334 . S
C2397 H2378 0.929 . S
C2397 C2394 1.388 . S
C2397 N2396 1.397 . S
C2398 H2379 0.929 . S
C2398 C2395 1.404 . S
C2398 N2396 1.334 . S
C2399 H2391 0.930 . S
C2399 C2394 1.418 . S
C2399 C2395 1.353 . S
C2400 H2370 0.930 . S
C2400 N2401 1.330 . S
C2400 C2402 1.446 . S
N2401 Co2360 2.151 . S
N2401 C2400 1.330 . S
N2401 C2405 1.418 . S
C2402 H2381 0.929 . S
C2402 C2400 1.446 . S
C2402 C2403 1.332 . S
C2403 H2383 0.931 . S
C2403 C2402 1.332 . S
C2403 C2404 1.267 . S
C2404 H2372 0.929 . S
C2404 C2403 1.267 . S
C2404 C2405 1.251 . S
C2405 H2375 0.929 . S
C2405 N2401 1.418 . S
C2405 C2404 1.251 . S
C2406 H2373 0.930 . S
C2406 C2408 1.406 . S
C2406 C2411 1.261 . S
C2407 H2374 0.930 . S
C2407 N2409 1.325 . S
C2407 C2410 1.357 . S
C2408 H2376 0.928 . S
C2408 C2406 1.406 . S
C2408 N2409 1.261 . S
N2409 Co2360 2.214 . S
N2409 C2407 1.325 . S
N2409 C2408 1.261 . S
C2410 H2380 0.931 . S
C2410 C2407 1.357 . S
C2410 C2411 1.312 . S
C2411 H2382 0.930 . S
C2411 C2406 1.261 . S
C2411 C2410 1.312 . S
C2412 O2384 1.214 . S
C2412 O2392 1.234 . S
C2413 H2385 0.929 . S
C2413 C2416 1.391 . S
C2413 C2418 1.391 . S
C2414 H2386 0.929 . S
C2414 C2415 1.390 . S
C2414 N2417 1.391 . S
C2415 H2387 0.930 . S
C2415 C2414 1.390 . S
C2415 C2416 1.392 . S
C2416 H2388 0.929 . S
C2416 C2413 1.391 . S
C2416 C2415 1.392 . S
N2417 Co2361 2.257 . S
N2417 C2414 1.391 . S
N2417 C2418 1.388 . S
C2418 H2389 0.930 . S
C2418 C2413 1.391 . S
C2418 N2417 1.388 . S
Co2419 O2421 2.143 . S
Co2419 O2427 2.074 . S
Co2419 O2430 2.093 . S
Co2419 O2443 2.097 . S
Co2419 N2460 2.151 . S
Co2419 N2468 2.214 . S
Co2420 O2421 2.160 . S
Co2420 O2426 2.058 . S
Co2420 O2436 2.057 . S
Co2420 O2451 2.037 . S
Co2420 N2455 2.145 . S
Co2420 N2476 2.257 . S
O2421 Co2419 2.143 . S
O2421 Co2420 2.160 . S
C2422 O2423 1.278 . S
C2422 O2430 1.224 . S
O2423 C2422 1.278 . S
C2424 O2425 1.245 . S
C2424 O2436 1.232 . S
O2425 C2424 1.245 . S
O2426 Co2420 2.058 . S
O2426 C2452 1.269 . S
O2427 Co2419 2.074 . S
O2427 C2452 1.257 . S
H2428 C2453 0.930 . S
H2429 C2459 0.930 . S
O2430 Co2419 2.093 . S
O2430 C2422 1.224 . S
H2431 C2463 0.929 . S
H2432 C2465 0.930 . S
H2433 C2466 0.930 . S
H2434 C2464 0.929 . S
H2435 C2467 0.928 . S
O2436 Co2420 2.057 . S
O2436 C2424 1.232 . S
H2437 C2456 0.929 . S
H2438 C2457 0.929 . S
H2439 C2469 0.931 . S
H2440 C2461 0.929 . S
H2441 C2470 0.930 . S
H2442 C2462 0.931 . S
O2443 Co2419 2.097 . S
O2443 C2471 1.214 . S
H2444 C2472 0.929 . S
H2445 C2473 0.929 . S
H2446 C2474 0.930 . S
H2447 C2475 0.929 . S
H2448 C2477 0.930 . S
H2449 C2454 0.930 . S
H2450 C2458 0.930 . S
O2451 Co2420 2.037 . S
O2451 C2471 1.234 . S
C2452 O2426 1.269 . S
C2452 O2427 1.257 . S
C2453 H2428 0.930 . S
C2453 C2456 1.388 . S
C2453 C2458 1.418 . S
C2454 H2449 0.930 . S
C2454 C2457 1.404 . S
C2454 C2458 1.353 . S
N2455 Co2420 2.145 . S
N2455 C2456 1.397 . S
N2455 C2457 1.334 . S
C2456 H2437 0.929 . S
C2456 C2453 1.388 . S
C2456 N2455 1.397 . S
C2457 H2438 0.929 . S
C2457 C2454 1.404 . S
C2457 N2455 1.334 . S
C2458 H2450 0.930 . S
C2458 C2453 1.418 . S
C2458 C2454 1.353 . S
C2459 H2429 0.930 . S
C2459 N2460 1.330 . S
C2459 C2461 1.446 . S
N2460 Co2419 2.151 . S
N2460 C2459 1.330 . S
N2460 C2464 1.418 . S
C2461 H2440 0.929 . S
C2461 C2459 1.446 . S
C2461 C2462 1.332 . S
C2462 H2442 0.931 . S
C2462 C2461 1.332 . S
C2462 C2463 1.267 . S
C2463 H2431 0.929 . S
C2463 C2462 1.267 . S
C2463 C2464 1.251 . S
C2464 H2434 0.929 . S
C2464 N2460 1.418 . S
C2464 C2463 1.251 . S
C2465 H2432 0.930 . S
C2465 C2467 1.406 . S
C2465 C2470 1.261 . S
C2466 H2433 0.930 . S
C2466 N2468 1.325 . S
C2466 C2469 1.357 . S
C2467 H2435 0.928 . S
C2467 C2465 1.406 . S
C2467 N2468 1.261 . S
N2468 Co2419 2.214 . S
N2468 C2466 1.325 . S
N2468 C2467 1.261 . S
C2469 H2439 0.931 . S
C2469 C2466 1.357 . S
C2469 C2470 1.312 . S
C2470 H2441 0.930 . S
C2470 C2465 1.261 . S
C2470 C2469 1.312 . S
C2471 O2443 1.214 . S
C2471 O2451 1.234 . S
C2472 H2444 0.929 . S
C2472 C2475 1.391 . S
C2472 C2477 1.391 . S
C2473 H2445 0.929 . S
C2473 C2474 1.390 . S
C2473 N2476 1.391 . S
C2474 H2446 0.930 . S
C2474 C2473 1.390 . S
C2474 C2475 1.392 . S
C2475 H2447 0.929 . S
C2475 C2472 1.391 . S
C2475 C2474 1.392 . S
N2476 Co2420 2.257 . S
N2476 C2473 1.391 . S
N2476 C2477 1.388 . S
C2477 H2448 0.930 . S
C2477 C2472 1.391 . S
C2477 N2476 1.388 . S
Co2478 O2480 2.143 . S
Co2478 O2486 2.074 . S
Co2478 O2489 2.093 . S
Co2478 O2502 2.097 . S
Co2478 N2519 2.151 . S
Co2478 N2527 2.214 . S
Co2479 O2480 2.160 1_565 S
Co2479 O2485 2.058 . S
Co2479 O2495 2.057 . S
Co2479 O2510 2.037 1_565 S
Co2479 N2514 2.145 . S
Co2479 N2535 2.257 . S
O2480 Co2478 2.143 . S
O2480 Co2479 2.160 1_545 S
C2481 O2482 1.278 . S
C2481 O2489 1.224 . S
O2482 C2481 1.278 . S
C2483 O2484 1.245 . S
C2483 O2495 1.232 . S
O2484 C2483 1.245 . S
O2485 Co2479 2.058 . S
O2485 C2511 1.269 . S
O2486 Co2478 2.074 . S
O2486 C2511 1.257 1_545 S
H2487 C2512 0.930 . S
H2488 C2518 0.930 . S
O2489 Co2478 2.093 . S
O2489 C2481 1.224 . S
H2490 C2522 0.929 . S
H2491 C2524 0.930 . S
H2492 C2525 0.930 . S
H2493 C2523 0.929 . S
H2494 C2526 0.928 . S
O2495 Co2479 2.057 . S
O2495 C2483 1.232 . S
H2496 C2515 0.929 . S
H2497 C2516 0.929 . S
H2498 C2528 0.931 . S
H2499 C2520 0.929 . S
H2500 C2529 0.930 . S
H2501 C2521 0.931 . S
O2502 Co2478 2.097 . S
O2502 C2530 1.214 . S
H2503 C2531 0.929 . S
H2504 C2532 0.929 1_565 S
H2505 C2533 0.930 . S
H2506 C2534 0.929 . S
H2507 C2536 0.930 . S
H2508 C2513 0.930 . S
H2509 C2517 0.930 . S
O2510 Co2479 2.037 1_545 S
O2510 C2530 1.234 . S
C2511 O2485 1.269 . S
C2511 O2486 1.257 1_565 S
C2512 H2487 0.930 . S
C2512 C2515 1.388 . S
C2512 C2517 1.418 . S
C2513 H2508 0.930 . S
C2513 C2516 1.404 . S
C2513 C2517 1.353 . S
N2514 Co2479 2.145 . S
N2514 C2515 1.397 . S
N2514 C2516 1.334 . S
C2515 H2496 0.929 . S
C2515 C2512 1.388 . S
C2515 N2514 1.397 . S
C2516 H2497 0.929 . S
C2516 C2513 1.404 . S
C2516 N2514 1.334 . S
C2517 H2509 0.930 . S
C2517 C2512 1.418 . S
C2517 C2513 1.353 . S
C2518 H2488 0.930 . S
C2518 N2519 1.330 . S
C2518 C2520 1.446 . S
N2519 Co2478 2.151 . S
N2519 C2518 1.330 . S
N2519 C2523 1.418 . S
C2520 H2499 0.929 . S
C2520 C2518 1.446 . S
C2520 C2521 1.332 . S
C2521 H2501 0.931 . S
C2521 C2520 1.332 . S
C2521 C2522 1.267 . S
C2522 H2490 0.929 . S
C2522 C2521 1.267 . S
C2522 C2523 1.251 . S
C2523 H2493 0.929 . S
C2523 N2519 1.418 . S
C2523 C2522 1.251 . S
C2524 H2491 0.930 . S
C2524 C2526 1.406 . S
C2524 C2529 1.261 . S
C2525 H2492 0.930 . S
C2525 N2527 1.325 . S
C2525 C2528 1.357 . S
C2526 H2494 0.928 . S
C2526 C2524 1.406 . S
C2526 N2527 1.261 . S
N2527 Co2478 2.214 . S
N2527 C2525 1.325 . S
N2527 C2526 1.261 . S
C2528 H2498 0.931 . S
C2528 C2525 1.357 . S
C2528 C2529 1.312 . S
C2529 H2500 0.930 . S
C2529 C2524 1.261 . S
C2529 C2528 1.312 . S
C2530 O2502 1.214 . S
C2530 O2510 1.234 . S
C2531 H2503 0.929 . S
C2531 C2534 1.391 . S
C2531 C2536 1.391 . S
C2532 H2504 0.929 1_545 S
C2532 C2533 1.390 . S
C2532 N2535 1.391 1_545 S
C2533 H2505 0.930 . S
C2533 C2532 1.390 . S
C2533 C2534 1.392 . S
C2534 H2506 0.929 . S
C2534 C2531 1.391 . S
C2534 C2533 1.392 . S
N2535 Co2479 2.257 . S
N2535 C2532 1.391 1_565 S
N2535 C2536 1.388 1_565 S
C2536 H2507 0.930 . S
C2536 C2531 1.391 . S
C2536 N2535 1.388 1_545 S
Co2537 O2539 2.143 . S
Co2537 O2545 2.074 . S
Co2537 O2548 2.093 . S
Co2537 O2561 2.097 . S
Co2537 N2578 2.151 . S
Co2537 N2586 2.214 . S
Co2538 O2539 2.160 . S
Co2538 O2544 2.058 . S
Co2538 O2554 2.057 . S
Co2538 O2569 2.037 . S
Co2538 N2573 2.145 . S
Co2538 N2594 2.257 . S
O2539 Co2537 2.143 . S
O2539 Co2538 2.160 . S
C2540 O2541 1.278 . S
C2540 O2548 1.224 . S
O2541 C2540 1.278 . S
C2542 O2543 1.245 . S
C2542 O2554 1.232 . S
O2543 C2542 1.245 . S
O2544 Co2538 2.058 . S
O2544 C2570 1.269 . S
O2545 Co2537 2.074 . S
O2545 C2570 1.257 . S
H2546 C2571 0.930 . S
H2547 C2577 0.930 . S
O2548 Co2537 2.093 . S
O2548 C2540 1.224 . S
H2549 C2581 0.929 . S
H2550 C2583 0.930 . S
H2551 C2584 0.930 . S
H2552 C2582 0.929 . S
H2553 C2585 0.928 . S
O2554 Co2538 2.057 . S
O2554 C2542 1.232 . S
H2555 C2574 0.929 . S
H2556 C2575 0.929 . S
H2557 C2587 0.931 . S
H2558 C2579 0.929 . S
H2559 C2588 0.930 . S
H2560 C2580 0.931 . S
O2561 Co2537 2.097 . S
O2561 C2589 1.214 . S
H2562 C2590 0.929 . S
H2563 C2591 0.929 . S
H2564 C2592 0.930 . S
H2565 C2593 0.929 . S
H2566 C2595 0.930 . S
H2567 C2572 0.930 . S
H2568 C2576 0.930 . S
O2569 Co2538 2.037 . S
O2569 C2589 1.234 . S
C2570 O2544 1.269 . S
C2570 O2545 1.257 . S
C2571 H2546 0.930 . S
C2571 C2574 1.388 . S
C2571 C2576 1.418 . S
C2572 H2567 0.930 . S
C2572 C2575 1.404 . S
C2572 C2576 1.353 . S
N2573 Co2538 2.145 . S
N2573 C2574 1.397 . S
N2573 C2575 1.334 . S
C2574 H2555 0.929 . S
C2574 C2571 1.388 . S
C2574 N2573 1.397 . S
C2575 H2556 0.929 . S
C2575 C2572 1.404 . S
C2575 N2573 1.334 . S
C2576 H2568 0.930 . S
C2576 C2571 1.418 . S
C2576 C2572 1.353 . S
C2577 H2547 0.930 . S
C2577 N2578 1.330 . S
C2577 C2579 1.446 . S
N2578 Co2537 2.151 . S
N2578 C2577 1.330 . S
N2578 C2582 1.418 . S
C2579 H2558 0.929 . S
C2579 C2577 1.446 . S
C2579 C2580 1.332 . S
C2580 H2560 0.931 . S
C2580 C2579 1.332 . S
C2580 C2581 1.267 . S
C2581 H2549 0.929 . S
C2581 C2580 1.267 . S
C2581 C2582 1.251 . S
C2582 H2552 0.929 . S
C2582 N2578 1.418 . S
C2582 C2581 1.251 . S
C2583 H2550 0.930 . S
C2583 C2585 1.406 . S
C2583 C2588 1.261 . S
C2584 H2551 0.930 . S
C2584 N2586 1.325 . S
C2584 C2587 1.357 . S
C2585 H2553 0.928 . S
C2585 C2583 1.406 . S
C2585 N2586 1.261 . S
N2586 Co2537 2.214 . S
N2586 C2584 1.325 . S
N2586 C2585 1.261 . S
C2587 H2557 0.931 . S
C2587 C2584 1.357 . S
C2587 C2588 1.312 . S
C2588 H2559 0.930 . S
C2588 C2583 1.261 . S
C2588 C2587 1.312 . S
C2589 O2561 1.214 . S
C2589 O2569 1.234 . S
C2590 H2562 0.929 . S
C2590 C2593 1.391 . S
C2590 C2595 1.391 . S
C2591 H2563 0.929 . S
C2591 C2592 1.390 . S
C2591 N2594 1.391 . S
C2592 H2564 0.930 . S
C2592 C2591 1.390 . S
C2592 C2593 1.392 . S
C2593 H2565 0.929 . S
C2593 C2590 1.391 . S
C2593 C2592 1.392 . S
N2594 Co2538 2.257 . S
N2594 C2591 1.391 . S
N2594 C2595 1.388 . S
C2595 H2566 0.930 . S
C2595 C2590 1.391 . S
C2595 N2594 1.388 . S
Co2596 O2598 2.143 . S
Co2596 O2604 2.074 . S
Co2596 O2607 2.093 . S
Co2596 O2620 2.097 . S
Co2596 N2637 2.151 . S
Co2596 N2645 2.214 . S
Co2597 O2598 2.160 . S
Co2597 O2603 2.058 . S
Co2597 O2613 2.057 . S
Co2597 O2628 2.037 . S
Co2597 N2632 2.145 . S
Co2597 N2653 2.257 . S
O2598 Co2596 2.143 . S
O2598 Co2597 2.160 . S
C2599 O2600 1.278 . S
C2599 O2607 1.224 . S
O2600 C2599 1.278 . S
C2601 O2602 1.245 . S
C2601 O2613 1.232 . S
O2602 C2601 1.245 . S
O2603 Co2597 2.058 . S
O2603 C2629 1.269 . S
O2604 Co2596 2.074 . S
O2604 C2629 1.257 . S
H2605 C2630 0.930 . S
H2606 C2636 0.930 . S
O2607 Co2596 2.093 . S
O2607 C2599 1.224 . S
H2608 C2640 0.929 . S
H2609 C2642 0.930 . S
H2610 C2643 0.930 . S
H2611 C2641 0.929 . S
H2612 C2644 0.928 . S
O2613 Co2597 2.057 . S
O2613 C2601 1.232 . S
H2614 C2633 0.929 . S
H2615 C2634 0.929 . S
H2616 C2646 0.931 . S
H2617 C2638 0.929 . S
H2618 C2647 0.930 . S
H2619 C2639 0.931 . S
O2620 Co2596 2.097 . S
O2620 C2648 1.214 . S
H2621 C2649 0.929 . S
H2622 C2650 0.929 . S
H2623 C2651 0.930 . S
H2624 C2652 0.929 . S
H2625 C2654 0.930 . S
H2626 C2631 0.930 . S
H2627 C2635 0.930 . S
O2628 Co2597 2.037 . S
O2628 C2648 1.234 . S
C2629 O2603 1.269 . S
C2629 O2604 1.257 . S
C2630 H2605 0.930 . S
C2630 C2633 1.388 . S
C2630 C2635 1.418 . S
C2631 H2626 0.930 . S
C2631 C2634 1.404 . S
C2631 C2635 1.353 . S
N2632 Co2597 2.145 . S
N2632 C2633 1.397 . S
N2632 C2634 1.334 . S
C2633 H2614 0.929 . S
C2633 C2630 1.388 . S
C2633 N2632 1.397 . S
C2634 H2615 0.929 . S
C2634 C2631 1.404 . S
C2634 N2632 1.334 . S
C2635 H2627 0.930 . S
C2635 C2630 1.418 . S
C2635 C2631 1.353 . S
C2636 H2606 0.930 . S
C2636 N2637 1.330 . S
C2636 C2638 1.446 . S
N2637 Co2596 2.151 . S
N2637 C2636 1.330 . S
N2637 C2641 1.418 . S
C2638 H2617 0.929 . S
C2638 C2636 1.446 . S
C2638 C2639 1.332 . S
C2639 H2619 0.931 . S
C2639 C2638 1.332 . S
C2639 C2640 1.267 . S
C2640 H2608 0.929 . S
C2640 C2639 1.267 . S
C2640 C2641 1.251 . S
C2641 H2611 0.929 . S
C2641 N2637 1.418 . S
C2641 C2640 1.251 . S
C2642 H2609 0.930 . S
C2642 C2644 1.406 . S
C2642 C2647 1.261 . S
C2643 H2610 0.930 . S
C2643 N2645 1.325 . S
C2643 C2646 1.357 . S
C2644 H2612 0.928 . S
C2644 C2642 1.406 . S
C2644 N2645 1.261 . S
N2645 Co2596 2.214 . S
N2645 C2643 1.325 . S
N2645 C2644 1.261 . S
C2646 H2616 0.931 . S
C2646 C2643 1.357 . S
C2646 C2647 1.312 . S
C2647 H2618 0.930 . S
C2647 C2642 1.261 . S
C2647 C2646 1.312 . S
C2648 O2620 1.214 . S
C2648 O2628 1.234 . S
C2649 H2621 0.929 . S
C2649 C2652 1.391 . S
C2649 C2654 1.391 . S
C2650 H2622 0.929 . S
C2650 C2651 1.390 . S
C2650 N2653 1.391 . S
C2651 H2623 0.930 . S
C2651 C2650 1.390 . S
C2651 C2652 1.392 . S
C2652 H2624 0.929 . S
C2652 C2649 1.391 . S
C2652 C2651 1.392 . S
N2653 Co2597 2.257 . S
N2653 C2650 1.391 . S
N2653 C2654 1.388 . S
C2654 H2625 0.930 . S
C2654 C2649 1.391 . S
C2654 N2653 1.388 . S
Co2655 O2657 2.143 . S
Co2655 O2663 2.074 . S
Co2655 O2666 2.093 . S
Co2655 O2679 2.097 . S
Co2655 N2696 2.151 . S
Co2655 N2704 2.214 . S
Co2656 O2657 2.160 . S
Co2656 O2662 2.058 . S
Co2656 O2672 2.057 . S
Co2656 O2687 2.037 . S
Co2656 N2691 2.145 . S
Co2656 N2712 2.257 . S
O2657 Co2655 2.143 . S
O2657 Co2656 2.160 . S
C2658 O2659 1.278 . S
C2658 O2666 1.224 . S
O2659 C2658 1.278 . S
C2660 O2661 1.245 . S
C2660 O2672 1.232 . S
O2661 C2660 1.245 . S
O2662 Co2656 2.058 . S
O2662 C2688 1.269 . S
O2663 Co2655 2.074 . S
O2663 C2688 1.257 . S
H2664 C2689 0.930 . S
H2665 C2695 0.930 . S
O2666 Co2655 2.093 . S
O2666 C2658 1.224 . S
H2667 C2699 0.929 . S
H2668 C2701 0.930 . S
H2669 C2702 0.930 . S
H2670 C2700 0.929 . S
H2671 C2703 0.928 . S
O2672 Co2656 2.057 . S
O2672 C2660 1.232 . S
H2673 C2692 0.929 . S
H2674 C2693 0.929 . S
H2675 C2705 0.931 . S
H2676 C2697 0.929 . S
H2677 C2706 0.930 . S
H2678 C2698 0.931 . S
O2679 Co2655 2.097 . S
O2679 C2707 1.214 . S
H2680 C2708 0.929 . S
H2681 C2709 0.929 . S
H2682 C2710 0.930 . S
H2683 C2711 0.929 . S
H2684 C2713 0.930 . S
H2685 C2690 0.930 . S
H2686 C2694 0.930 . S
O2687 Co2656 2.037 . S
O2687 C2707 1.234 . S
C2688 O2662 1.269 . S
C2688 O2663 1.257 . S
C2689 H2664 0.930 . S
C2689 C2692 1.388 . S
C2689 C2694 1.418 . S
C2690 H2685 0.930 . S
C2690 C2693 1.404 . S
C2690 C2694 1.353 . S
N2691 Co2656 2.145 . S
N2691 C2692 1.397 . S
N2691 C2693 1.334 . S
C2692 H2673 0.929 . S
C2692 C2689 1.388 . S
C2692 N2691 1.397 . S
C2693 H2674 0.929 . S
C2693 C2690 1.404 . S
C2693 N2691 1.334 . S
C2694 H2686 0.930 . S
C2694 C2689 1.418 . S
C2694 C2690 1.353 . S
C2695 H2665 0.930 . S
C2695 N2696 1.330 . S
C2695 C2697 1.446 . S
N2696 Co2655 2.151 . S
N2696 C2695 1.330 . S
N2696 C2700 1.418 . S
C2697 H2676 0.929 . S
C2697 C2695 1.446 . S
C2697 C2698 1.332 . S
C2698 H2678 0.931 . S
C2698 C2697 1.332 . S
C2698 C2699 1.267 . S
C2699 H2667 0.929 . S
C2699 C2698 1.267 . S
C2699 C2700 1.251 . S
C2700 H2670 0.929 . S
C2700 N2696 1.418 . S
C2700 C2699 1.251 . S
C2701 H2668 0.930 . S
C2701 C2703 1.406 . S
C2701 C2706 1.261 . S
C2702 H2669 0.930 . S
C2702 N2704 1.325 . S
C2702 C2705 1.357 . S
C2703 H2671 0.928 . S
C2703 C2701 1.406 . S
C2703 N2704 1.261 . S
N2704 Co2655 2.214 . S
N2704 C2702 1.325 . S
N2704 C2703 1.261 . S
C2705 H2675 0.931 . S
C2705 C2702 1.357 . S
C2705 C2706 1.312 . S
C2706 H2677 0.930 . S
C2706 C2701 1.261 . S
C2706 C2705 1.312 . S
C2707 O2679 1.214 . S
C2707 O2687 1.234 . S
C2708 H2680 0.929 . S
C2708 C2711 1.391 . S
C2708 C2713 1.391 . S
C2709 H2681 0.929 . S
C2709 C2710 1.390 . S
C2709 N2712 1.391 . S
C2710 H2682 0.930 . S
C2710 C2709 1.390 . S
C2710 C2711 1.392 . S
C2711 H2683 0.929 . S
C2711 C2708 1.391 . S
C2711 C2710 1.392 . S
N2712 Co2656 2.257 . S
N2712 C2709 1.391 . S
N2712 C2713 1.388 . S
C2713 H2684 0.930 . S
C2713 C2708 1.391 . S
C2713 N2712 1.388 . S
Co2714 O2716 2.143 . S
Co2714 O2722 2.074 . S
Co2714 O2725 2.093 . S
Co2714 O2738 2.097 . S
Co2714 N2755 2.151 . S
Co2714 N2763 2.214 . S
Co2715 O2716 2.160 1_545 S
Co2715 O2721 2.058 . S
Co2715 O2731 2.057 . S
Co2715 O2746 2.037 1_545 S
Co2715 N2750 2.145 . S
Co2715 N2771 2.257 . S
O2716 Co2714 2.143 . S
O2716 Co2715 2.160 1_565 S
C2717 O2718 1.278 . S
C2717 O2725 1.224 . S
O2718 C2717 1.278 . S
C2719 O2720 1.245 . S
C2719 O2731 1.232 . S
O2720 C2719 1.245 . S
O2721 Co2715 2.058 . S
O2721 C2747 1.269 . S
O2722 Co2714 2.074 . S
O2722 C2747 1.257 1_565 S
H2723 C2748 0.930 . S
H2724 C2754 0.930 . S
O2725 Co2714 2.093 . S
O2725 C2717 1.224 . S
H2726 C2758 0.929 1_554 S
H2727 C2760 0.930 . S
H2728 C2761 0.930 . S
H2729 C2759 0.929 . S
H2730 C2762 0.928 . S
O2731 Co2715 2.057 . S
O2731 C2719 1.232 . S
H2732 C2751 0.929 . S
H2733 C2752 0.929 . S
H2734 C2764 0.931 . S
H2735 C2756 0.929 . S
H2736 C2765 0.930 . S
H2737 C2757 0.931 . S
O2738 Co2714 2.097 . S
O2738 C2766 1.214 . S
H2739 C2767 0.929 . S
H2740 C2768 0.929 1_545 S
H2741 C2769 0.930 . S
H2742 C2770 0.929 . S
H2743 C2772 0.930 . S
H2744 C2749 0.930 . S
H2745 C2753 0.930 . S
O2746 Co2715 2.037 1_565 S
O2746 C2766 1.234 . S
C2747 O2721 1.269 . S
C2747 O2722 1.257 1_545 S
C2748 H2723 0.930 . S
C2748 C2751 1.388 . S
C2748 C2753 1.418 . S
C2749 H2744 0.930 . S
C2749 C2752 1.404 . S
C2749 C2753 1.353 . S
N2750 Co2715 2.145 . S
N2750 C2751 1.397 . S
N2750 C2752 1.334 . S
C2751 H2732 0.929 . S
C2751 C2748 1.388 . S
C2751 N2750 1.397 . S
C2752 H2733 0.929 . S
C2752 C2749 1.404 . S
C2752 N2750 1.334 . S
C2753 H2745 0.930 . S
C2753 C2748 1.418 . S
C2753 C2749 1.353 . S
C2754 H2724 0.930 . S
C2754 N2755 1.330 . S
C2754 C2756 1.446 . S
N2755 Co2714 2.151 . S
N2755 C2754 1.330 . S
N2755 C2759 1.418 . S
C2756 H2735 0.929 . S
C2756 C2754 1.446 . S
C2756 C2757 1.332 . S
C2757 H2737 0.931 . S
C2757 C2756 1.332 . S
C2757 C2758 1.267 . S
C2758 H2726 0.929 1_556 S
C2758 C2757 1.267 . S
C2758 C2759 1.251 . S
C2759 H2729 0.929 . S
C2759 N2755 1.418 . S
C2759 C2758 1.251 . S
C2760 H2727 0.930 . S
C2760 C2762 1.406 1_554 S
C2760 C2765 1.261 . S
C2761 H2728 0.930 . S
C2761 N2763 1.325 . S
C2761 C2764 1.357 1_556 S
C2762 H2730 0.928 . S
C2762 C2760 1.406 1_556 S
C2762 N2763 1.261 . S
N2763 Co2714 2.214 . S
N2763 C2761 1.325 . S
N2763 C2762 1.261 . S
C2764 H2734 0.931 . S
C2764 C2761 1.357 1_554 S
C2764 C2765 1.312 . S
C2765 H2736 0.930 . S
C2765 C2760 1.261 . S
C2765 C2764 1.312 . S
C2766 O2738 1.214 . S
C2766 O2746 1.234 . S
C2767 H2739 0.929 . S
C2767 C2770 1.391 . S
C2767 C2772 1.391 . S
C2768 H2740 0.929 1_565 S
C2768 C2769 1.390 . S
C2768 N2771 1.391 1_565 S
C2769 H2741 0.930 . S
C2769 C2768 1.390 . S
C2769 C2770 1.392 . S
C2770 H2742 0.929 . S
C2770 C2767 1.391 . S
C2770 C2769 1.392 . S
N2771 Co2715 2.257 . S
N2771 C2768 1.391 1_545 S
N2771 C2772 1.388 1_545 S
C2772 H2743 0.930 . S
C2772 C2767 1.391 . S
C2772 N2771 1.388 1_565 S
Co2773 O2775 2.143 . S
Co2773 O2781 2.074 . S
Co2773 O2784 2.093 . S
Co2773 O2797 2.097 . S
Co2773 N2814 2.151 . S
Co2773 N2822 2.214 . S
Co2774 O2775 2.160 1_565 S
Co2774 O2780 2.058 . S
Co2774 O2790 2.057 . S
Co2774 O2805 2.037 1_565 S
Co2774 N2809 2.145 . S
Co2774 N2830 2.257 . S
O2775 Co2773 2.143 . S
O2775 Co2774 2.160 1_545 S
C2776 O2777 1.278 . S
C2776 O2784 1.224 . S
O2777 C2776 1.278 . S
C2778 O2779 1.245 . S
C2778 O2790 1.232 . S
O2779 C2778 1.245 . S
O2780 Co2774 2.058 . S
O2780 C2806 1.269 . S
O2781 Co2773 2.074 . S
O2781 C2806 1.257 1_545 S
H2782 C2807 0.930 . S
H2783 C2813 0.930 . S
O2784 Co2773 2.093 . S
O2784 C2776 1.224 . S
H2785 C2817 0.929 . S
H2786 C2819 0.930 . S
H2787 C2820 0.930 . S
H2788 C2818 0.929 . S
H2789 C2821 0.928 . S
O2790 Co2774 2.057 . S
O2790 C2778 1.232 . S
H2791 C2810 0.929 . S
H2792 C2811 0.929 . S
H2793 C2823 0.931 . S
H2794 C2815 0.929 . S
H2795 C2824 0.930 . S
H2796 C2816 0.931 . S
O2797 Co2773 2.097 . S
O2797 C2825 1.214 . S
H2798 C2826 0.929 . S
H2799 C2827 0.929 1_565 S
H2800 C2828 0.930 . S
H2801 C2829 0.929 . S
H2802 C2831 0.930 . S
H2803 C2808 0.930 . S
H2804 C2812 0.930 1_455 S
O2805 Co2774 2.037 1_545 S
O2805 C2825 1.234 . S
C2806 O2780 1.269 . S
C2806 O2781 1.257 1_565 S
C2807 H2782 0.930 . S
C2807 C2810 1.388 1_455 S
C2807 C2812 1.418 1_455 S
C2808 H2803 0.930 . S
C2808 C2811 1.404 . S
C2808 C2812 1.353 . S
N2809 Co2774 2.145 . S
N2809 C2810 1.397 . S
N2809 C2811 1.334 . S
C2810 H2791 0.929 . S
C2810 C2807 1.388 1_655 S
C2810 N2809 1.397 . S
C2811 H2792 0.929 . S
C2811 C2808 1.404 . S
C2811 N2809 1.334 . S
C2812 H2804 0.930 1_655 S
C2812 C2807 1.418 1_655 S
C2812 C2808 1.353 . S
C2813 H2783 0.930 . S
C2813 N2814 1.330 . S
C2813 C2815 1.446 . S
N2814 Co2773 2.151 . S
N2814 C2813 1.330 . S
N2814 C2818 1.418 . S
C2815 H2794 0.929 . S
C2815 C2813 1.446 . S
C2815 C2816 1.332 . S
C2816 H2796 0.931 . S
C2816 C2815 1.332 . S
C2816 C2817 1.267 . S
C2817 H2785 0.929 . S
C2817 C2816 1.267 . S
C2817 C2818 1.251 . S
C2818 H2788 0.929 . S
C2818 N2814 1.418 . S
C2818 C2817 1.251 . S
C2819 H2786 0.930 . S
C2819 C2821 1.406 . S
C2819 C2824 1.261 . S
C2820 H2787 0.930 . S
C2820 N2822 1.325 . S
C2820 C2823 1.357 . S
C2821 H2789 0.928 . S
C2821 C2819 1.406 . S
C2821 N2822 1.261 . S
N2822 Co2773 2.214 . S
N2822 C2820 1.325 . S
N2822 C2821 1.261 . S
C2823 H2793 0.931 . S
C2823 C2820 1.357 . S
C2823 C2824 1.312 . S
C2824 H2795 0.930 . S
C2824 C2819 1.261 . S
C2824 C2823 1.312 . S
C2825 O2797 1.214 . S
C2825 O2805 1.234 . S
C2826 H2798 0.929 . S
C2826 C2829 1.391 . S
C2826 C2831 1.391 . S
C2827 H2799 0.929 1_545 S
C2827 C2828 1.390 . S
C2827 N2830 1.391 1_545 S
C2828 H2800 0.930 . S
C2828 C2827 1.390 . S
C2828 C2829 1.392 . S
C2829 H2801 0.929 . S
C2829 C2826 1.391 . S
C2829 C2828 1.392 . S
N2830 Co2774 2.257 . S
N2830 C2827 1.391 1_565 S
N2830 C2831 1.388 1_565 S
C2831 H2802 0.930 . S
C2831 C2826 1.391 . S
C2831 N2830 1.388 1_545 S
C2832 C2833 1.369 . S
C2832 C2834 1.419 . S
C2832 H2836 0.930 . S
C2833 C2832 1.369 . S
C2833 C2842 1.429 . S
C2834 C2832 1.419 . S
C2834 C2835 1.363 . S
C2834 H2837 0.929 . S
C2835 C2834 1.363 . S
C2835 C2841 1.428 . S
H2836 C2832 0.930 . S
H2837 C2834 0.929 . S
S2838 N2839 1.613 . S
S2838 N2840 1.610 . S
N2839 S2838 1.613 . S
N2839 C2842 1.350 . S
N2840 S2838 1.610 . S
N2840 C2841 1.351 . S
C2841 C2835 1.428 . S
C2841 N2840 1.351 . S
C2841 C2842 1.434 . S
C2842 C2833 1.429 . S
C2842 N2839 1.350 . S
C2842 C2841 1.434 . S
C2843 C2844 1.369 . S
C2843 C2845 1.419 . S
C2843 H2847 0.930 . S
C2844 C2843 1.369 . S
C2844 C2853 1.429 . S
C2845 C2843 1.419 . S
C2845 C2846 1.363 . S
C2845 H2848 0.929 . S
C2846 C2845 1.363 . S
C2846 C2852 1.428 . S
H2847 C2843 0.930 . S
H2848 C2845 0.929 . S
S2849 N2850 1.613 . S
S2849 N2851 1.610 . S
N2850 S2849 1.613 . S
N2850 C2853 1.350 . S
N2851 S2849 1.610 . S
N2851 C2852 1.351 . S
C2852 C2846 1.428 . S
C2852 N2851 1.351 . S
C2852 C2853 1.434 . S
C2853 C2844 1.429 . S
C2853 N2850 1.350 . S
C2853 C2852 1.434 . S
C2854 C2855 1.369 . S
C2854 C2856 1.419 . S
C2854 H2858 0.930 . S
C2855 C2854 1.369 . S
C2855 C2864 1.429 . S
C2856 C2854 1.419 . S
C2856 C2857 1.363 . S
C2856 H2859 0.929 . S
C2857 C2856 1.363 . S
C2857 C2863 1.428 . S
H2858 C2854 0.930 . S
H2859 C2856 0.929 . S
S2860 N2861 1.613 . S
S2860 N2862 1.610 . S
N2861 S2860 1.613 . S
N2861 C2864 1.350 . S
N2862 S2860 1.610 . S
N2862 C2863 1.351 . S
C2863 C2857 1.428 . S
C2863 N2862 1.351 . S
C2863 C2864 1.434 . S
C2864 C2855 1.429 . S
C2864 N2861 1.350 . S
C2864 C2863 1.434 . S
C2865 C2866 1.369 . S
C2865 C2867 1.419 . S
C2865 H2869 0.930 . S
C2866 C2865 1.369 . S
C2866 C2875 1.429 . S
C2867 C2865 1.419 . S
C2867 C2868 1.363 . S
C2867 H2870 0.929 . S
C2868 C2867 1.363 . S
C2868 C2874 1.428 . S
H2869 C2865 0.930 . S
H2870 C2867 0.929 . S
S2871 N2872 1.613 . S
S2871 N2873 1.610 . S
N2872 S2871 1.613 . S
N2872 C2875 1.350 . S
N2873 S2871 1.610 . S
N2873 C2874 1.351 . S
C2874 C2868 1.428 . S
C2874 N2873 1.351 . S
C2874 C2875 1.434 . S
C2875 C2866 1.429 . S
C2875 N2872 1.350 . S
C2875 C2874 1.434 . S
C2876 C2877 1.369 . S
C2876 C2878 1.419 . S
C2876 H2880 0.930 . S
C2877 C2876 1.369 . S
C2877 C2886 1.429 . S
C2878 C2876 1.419 . S
C2878 C2879 1.363 . S
C2878 H2881 0.929 . S
C2879 C2878 1.363 . S
C2879 C2885 1.428 . S
H2880 C2876 0.930 . S
H2881 C2878 0.929 . S
S2882 N2883 1.613 . S
S2882 N2884 1.610 . S
N2883 S2882 1.613 . S
N2883 C2886 1.350 . S
N2884 S2882 1.610 . S
N2884 C2885 1.351 . S
C2885 C2879 1.428 . S
C2885 N2884 1.351 . S
C2885 C2886 1.434 . S
C2886 C2877 1.429 . S
C2886 N2883 1.350 . S
C2886 C2885 1.434 . S
C2887 C2888 1.369 . S
C2887 C2889 1.419 . S
C2887 H2891 0.930 . S
C2888 C2887 1.369 . S
C2888 C2897 1.429 . S
C2889 C2887 1.419 . S
C2889 C2890 1.363 . S
C2889 H2892 0.929 . S
C2890 C2889 1.363 . S
C2890 C2896 1.428 . S
H2891 C2887 0.930 . S
H2892 C2889 0.929 . S
S2893 N2894 1.613 . S
S2893 N2895 1.610 . S
N2894 S2893 1.613 . S
N2894 C2897 1.350 . S
N2895 S2893 1.610 . S
N2895 C2896 1.351 . S
C2896 C2890 1.428 . S
C2896 N2895 1.351 . S
C2896 C2897 1.434 . S
C2897 C2888 1.429 . S
C2897 N2894 1.350 . S
C2897 C2896 1.434 . S
C2898 C2899 1.369 . S
C2898 C2900 1.419 . S
C2898 H2902 0.930 . S
C2899 C2898 1.369 . S
C2899 C2908 1.429 . S
C2900 C2898 1.419 . S
C2900 C2901 1.363 . S
C2900 H2903 0.929 . S
C2901 C2900 1.363 . S
C2901 C2907 1.428 . S
H2902 C2898 0.930 . S
H2903 C2900 0.929 . S
S2904 N2905 1.613 . S
S2904 N2906 1.610 . S
N2905 S2904 1.613 . S
N2905 C2908 1.350 . S
N2906 S2904 1.610 . S
N2906 C2907 1.351 . S
C2907 C2901 1.428 . S
C2907 N2906 1.351 . S
C2907 C2908 1.434 . S
C2908 C2899 1.429 . S
C2908 N2905 1.350 . S
C2908 C2907 1.434 . S
C2909 C2910 1.369 . S
C2909 C2911 1.419 . S
C2909 H2913 0.930 . S
C2910 C2909 1.369 . S
C2910 C2919 1.429 . S
C2911 C2909 1.419 . S
C2911 C2912 1.363 . S
C2911 H2914 0.929 . S
C2912 C2911 1.363 . S
C2912 C2918 1.428 . S
H2913 C2909 0.930 . S
H2914 C2911 0.929 . S
S2915 N2916 1.613 . S
S2915 N2917 1.610 . S
N2916 S2915 1.613 . S
N2916 C2919 1.350 . S
N2917 S2915 1.610 . S
N2917 C2918 1.351 . S
C2918 C2912 1.428 . S
C2918 N2917 1.351 . S
C2918 C2919 1.434 . S
C2919 C2910 1.429 . S
C2919 N2916 1.350 . S
C2919 C2918 1.434 . S
C2920 C2921 1.369 . S
C2920 C2922 1.419 . S
C2920 H2924 0.930 . S
C2921 C2920 1.369 . S
C2921 C2930 1.429 . S
C2922 C2920 1.419 . S
C2922 C2923 1.363 . S
C2922 H2925 0.929 . S
C2923 C2922 1.363 . S
C2923 C2929 1.428 . S
H2924 C2920 0.930 . S
H2925 C2922 0.929 . S
S2926 N2927 1.613 . S
S2926 N2928 1.610 . S
N2927 S2926 1.613 . S
N2927 C2930 1.350 . S
N2928 S2926 1.610 . S
N2928 C2929 1.351 . S
C2929 C2923 1.428 . S
C2929 N2928 1.351 . S
C2929 C2930 1.434 . S
C2930 C2921 1.429 . S
C2930 N2927 1.350 . S
C2930 C2929 1.434 . S
C2931 C2932 1.369 . S
C2931 C2933 1.419 . S
C2931 H2935 0.930 . S
C2932 C2931 1.369 . S
C2932 C2941 1.429 . S
C2933 C2931 1.419 . S
C2933 C2934 1.363 . S
C2933 H2936 0.929 . S
C2934 C2933 1.363 . S
C2934 C2940 1.428 . S
H2935 C2931 0.930 . S
H2936 C2933 0.929 . S
S2937 N2938 1.613 . S
S2937 N2939 1.610 . S
N2938 S2937 1.613 . S
N2938 C2941 1.350 . S
N2939 S2937 1.610 . S
N2939 C2940 1.351 . S
C2940 C2934 1.428 . S
C2940 N2939 1.351 . S
C2940 C2941 1.434 . S
C2941 C2932 1.429 . S
C2941 N2938 1.350 . S
C2941 C2940 1.434 . S
C2942 C2943 1.369 . S
C2942 C2944 1.419 . S
C2942 H2946 0.930 . S
C2943 C2942 1.369 . S
C2943 C2952 1.429 . S
C2944 C2942 1.419 . S
C2944 C2945 1.363 . S
C2944 H2947 0.929 . S
C2945 C2944 1.363 . S
C2945 C2951 1.428 . S
H2946 C2942 0.930 . S
H2947 C2944 0.929 . S
S2948 N2949 1.613 . S
S2948 N2950 1.610 . S
N2949 S2948 1.613 . S
N2949 C2952 1.350 . S
N2950 S2948 1.610 . S
N2950 C2951 1.351 . S
C2951 C2945 1.428 . S
C2951 N2950 1.351 . S
C2951 C2952 1.434 . S
C2952 C2943 1.429 . S
C2952 N2949 1.350 . S
C2952 C2951 1.434 . S
C2953 C2954 1.369 . S
C2953 C2955 1.419 . S
C2953 H2957 0.930 . S
C2954 C2953 1.369 . S
C2954 C2963 1.429 . S
C2955 C2953 1.419 . S
C2955 C2956 1.363 . S
C2955 H2958 0.929 . S
C2956 C2955 1.363 . S
C2956 C2962 1.428 . S
H2957 C2953 0.930 . S
H2958 C2955 0.929 . S
S2959 N2960 1.613 . S
S2959 N2961 1.610 . S
N2960 S2959 1.613 . S
N2960 C2963 1.350 . S
N2961 S2959 1.610 . S
N2961 C2962 1.351 . S
C2962 C2956 1.428 . S
C2962 N2961 1.351 . S
C2962 C2963 1.434 . S
C2963 C2954 1.429 . S
C2963 N2960 1.350 . S
C2963 C2962 1.434 . S
C2964 C2965 1.369 . S
C2964 C2966 1.419 . S
C2964 H2968 0.930 . S
C2965 C2964 1.369 . S
C2965 C2974 1.429 . S
C2966 C2964 1.419 . S
C2966 C2967 1.363 . S
C2966 H2969 0.929 . S
C2967 C2966 1.363 . S
C2967 C2973 1.428 . S
H2968 C2964 0.930 . S
H2969 C2966 0.929 . S
S2970 N2971 1.613 . S
S2970 N2972 1.610 . S
N2971 S2970 1.613 . S
N2971 C2974 1.350 . S
N2972 S2970 1.610 . S
N2972 C2973 1.351 . S
C2973 C2967 1.428 . S
C2973 N2972 1.351 . S
C2973 C2974 1.434 . S
C2974 C2965 1.429 . S
C2974 N2971 1.350 . S
C2974 C2973 1.434 . S
C2975 C2976 1.369 . S
C2975 C2977 1.419 . S
C2975 H2979 0.930 . S
C2976 C2975 1.369 . S
C2976 C2985 1.429 . S
C2977 C2975 1.419 . S
C2977 C2978 1.363 . S
C2977 H2980 0.929 . S
C2978 C2977 1.363 . S
C2978 C2984 1.428 . S
H2979 C2975 0.930 . S
H2980 C2977 0.929 . S
S2981 N2982 1.613 . S
S2981 N2983 1.610 . S
N2982 S2981 1.613 . S
N2982 C2985 1.350 . S
N2983 S2981 1.610 . S
N2983 C2984 1.351 . S
C2984 C2978 1.428 . S
C2984 N2983 1.351 . S
C2984 C2985 1.434 . S
C2985 C2976 1.429 . S
C2985 N2982 1.350 . S
C2985 C2984 1.434 . S
C2986 C2987 1.369 . S
C2986 C2988 1.419 . S
C2986 H2990 0.930 . S
C2987 C2986 1.369 . S
C2987 C2996 1.429 . S
C2988 C2986 1.419 . S
C2988 C2989 1.363 . S
C2988 H2991 0.929 . S
C2989 C2988 1.363 . S
C2989 C2995 1.428 . S
H2990 C2986 0.930 . S
H2991 C2988 0.929 . S
S2992 N2993 1.613 . S
S2992 N2994 1.610 . S
N2993 S2992 1.613 . S
N2993 C2996 1.350 . S
N2994 S2992 1.610 . S
N2994 C2995 1.351 . S
C2995 C2989 1.428 . S
C2995 N2994 1.351 . S
C2995 C2996 1.434 . S
C2996 C2987 1.429 . S
C2996 N2993 1.350 . S
C2996 C2995 1.434 . S
C2997 C2998 1.369 . S
C2997 C2999 1.419 . S
C2997 H3001 0.930 . S
C2998 C2997 1.369 . S
C2998 C3007 1.429 . S
C2999 C2997 1.419 . S
C2999 C3000 1.363 . S
C2999 H3002 0.929 . S
C3000 C2999 1.363 . S
C3000 C3006 1.428 . S
H3001 C2997 0.930 . S
H3002 C2999 0.929 . S
S3003 N3004 1.613 . S
S3003 N3005 1.610 . S
N3004 S3003 1.613 . S
N3004 C3007 1.350 . S
N3005 S3003 1.610 . S
N3005 C3006 1.351 . S
C3006 C3000 1.428 . S
C3006 N3005 1.351 . S
C3006 C3007 1.434 . S
C3007 C2998 1.429 . S
C3007 N3004 1.350 . S
C3007 C3006 1.434 . S
C3008 C3009 1.369 . S
C3008 C3010 1.419 . S
C3008 H3012 0.930 . S
C3009 C3008 1.369 . S
C3009 C3018 1.429 . S
C3010 C3008 1.419 . S
C3010 C3011 1.363 . S
C3010 H3013 0.929 . S
C3011 C3010 1.363 . S
C3011 C3017 1.428 . S
H3012 C3008 0.930 . S
H3013 C3010 0.929 . S
S3014 N3015 1.613 . S
S3014 N3016 1.610 . S
N3015 S3014 1.613 . S
N3015 C3018 1.350 . S
N3016 S3014 1.610 . S
N3016 C3017 1.351 . S
C3017 C3011 1.428 . S
C3017 N3016 1.351 . S
C3017 C3018 1.434 . S
C3018 C3009 1.429 . S
C3018 N3015 1.350 . S
C3018 C3017 1.434 . S
C3019 C3020 1.369 . S
C3019 C3021 1.419 . S
C3019 H3023 0.930 . S
C3020 C3019 1.369 . S
C3020 C3029 1.429 . S
C3021 C3019 1.419 . S
C3021 C3022 1.363 . S
C3021 H3024 0.929 . S
C3022 C3021 1.363 . S
C3022 C3028 1.428 . S
H3023 C3019 0.930 . S
H3024 C3021 0.929 . S
S3025 N3026 1.613 . S
S3025 N3027 1.610 . S
N3026 S3025 1.613 . S
N3026 C3029 1.350 . S
N3027 S3025 1.610 . S
N3027 C3028 1.351 . S
C3028 C3022 1.428 . S
C3028 N3027 1.351 . S
C3028 C3029 1.434 . S
C3029 C3020 1.429 . S
C3029 N3026 1.350 . S
C3029 C3028 1.434 . S
C3030 C3031 1.369 . S
C3030 C3032 1.419 . S
C3030 H3034 0.930 . S
C3031 C3030 1.369 . S
C3031 C3040 1.429 . S
C3032 C3030 1.419 . S
C3032 C3033 1.363 . S
C3032 H3035 0.929 . S
C3033 C3032 1.363 . S
C3033 C3039 1.428 . S
H3034 C3030 0.930 . S
H3035 C3032 0.929 . S
S3036 N3037 1.613 . S
S3036 N3038 1.610 . S
N3037 S3036 1.613 . S
N3037 C3040 1.350 . S
N3038 S3036 1.610 . S
N3038 C3039 1.351 . S
C3039 C3033 1.428 . S
C3039 N3038 1.351 . S
C3039 C3040 1.434 . S
C3040 C3031 1.429 . S
C3040 N3037 1.350 . S
C3040 C3039 1.434 . S
C3041 C3042 1.369 . S
C3041 C3043 1.419 . S
C3041 H3045 0.930 . S
C3042 C3041 1.369 . S
C3042 C3051 1.429 . S
C3043 C3041 1.419 . S
C3043 C3044 1.363 . S
C3043 H3046 0.929 . S
C3044 C3043 1.363 . S
C3044 C3050 1.428 . S
H3045 C3041 0.930 . S
H3046 C3043 0.929 . S
S3047 N3048 1.613 . S
S3047 N3049 1.610 . S
N3048 S3047 1.613 . S
N3048 C3051 1.350 . S
N3049 S3047 1.610 . S
N3049 C3050 1.351 . S
C3050 C3044 1.428 . S
C3050 N3049 1.351 . S
C3050 C3051 1.434 . S
C3051 C3042 1.429 . S
C3051 N3048 1.350 . S
C3051 C3050 1.434 . S
C3052 C3053 1.369 . S
C3052 C3054 1.419 . S
C3052 H3056 0.930 . S
C3053 C3052 1.369 . S
C3053 C3062 1.429 . S
C3054 C3052 1.419 . S
C3054 C3055 1.363 . S
C3054 H3057 0.929 . S
C3055 C3054 1.363 . S
C3055 C3061 1.428 . S
H3056 C3052 0.930 . S
H3057 C3054 0.929 . S
S3058 N3059 1.613 . S
S3058 N3060 1.610 . S
N3059 S3058 1.613 . S
N3059 C3062 1.350 . S
N3060 S3058 1.610 . S
N3060 C3061 1.351 . S
C3061 C3055 1.428 . S
C3061 N3060 1.351 . S
C3061 C3062 1.434 . S
C3062 C3053 1.429 . S
C3062 N3059 1.350 . S
C3062 C3061 1.434 . S
C3063 C3064 1.369 . S
C3063 C3065 1.419 . S
C3063 H3067 0.930 . S
C3064 C3063 1.369 . S
C3064 C3073 1.429 . S
C3065 C3063 1.419 . S
C3065 C3066 1.363 . S
C3065 H3068 0.929 . S
C3066 C3065 1.363 . S
C3066 C3072 1.428 . S
H3067 C3063 0.930 . S
H3068 C3065 0.929 . S
S3069 N3070 1.613 . S
S3069 N3071 1.610 . S
N3070 S3069 1.613 . S
N3070 C3073 1.350 . S
N3071 S3069 1.610 . S
N3071 C3072 1.351 . S
C3072 C3066 1.428 . S
C3072 N3071 1.351 . S
C3072 C3073 1.434 . S
C3073 C3064 1.429 . S
C3073 N3070 1.350 . S
C3073 C3072 1.434 . S
C3074 C3075 1.369 . S
C3074 C3076 1.419 . S
C3074 H3078 0.930 . S
C3075 C3074 1.369 . S
C3075 C3084 1.429 . S
C3076 C3074 1.419 . S
C3076 C3077 1.363 . S
C3076 H3079 0.929 . S
C3077 C3076 1.363 . S
C3077 C3083 1.428 . S
H3078 C3074 0.930 . S
H3079 C3076 0.929 . S
S3080 N3081 1.613 . S
S3080 N3082 1.610 . S
N3081 S3080 1.613 . S
N3081 C3084 1.350 . S
N3082 S3080 1.610 . S
N3082 C3083 1.351 . S
C3083 C3077 1.428 . S
C3083 N3082 1.351 . S
C3083 C3084 1.434 . S
C3084 C3075 1.429 . S
C3084 N3081 1.350 . S
C3084 C3083 1.434 . S
C3085 C3086 1.369 . S
C3085 C3087 1.419 . S
C3085 H3089 0.930 . S
C3086 C3085 1.369 . S
C3086 C3095 1.429 . S
C3087 C3085 1.419 . S
C3087 C3088 1.363 . S
C3087 H3090 0.929 . S
C3088 C3087 1.363 . S
C3088 C3094 1.428 . S
H3089 C3085 0.930 . S
H3090 C3087 0.929 . S
S3091 N3092 1.613 . S
S3091 N3093 1.610 . S
N3092 S3091 1.613 . S
N3092 C3095 1.350 . S
N3093 S3091 1.610 . S
N3093 C3094 1.351 . S
C3094 C3088 1.428 . S
C3094 N3093 1.351 . S
C3094 C3095 1.434 . S
C3095 C3086 1.429 . S
C3095 N3092 1.350 . S
C3095 C3094 1.434 . S
C3096 C3097 1.369 . S
C3096 C3098 1.419 . S
C3096 H3100 0.930 . S
C3097 C3096 1.369 . S
C3097 C3106 1.429 . S
C3098 C3096 1.419 . S
C3098 C3099 1.363 . S
C3098 H3101 0.929 . S
C3099 C3098 1.363 . S
C3099 C3105 1.428 . S
H3100 C3096 0.930 . S
H3101 C3098 0.929 . S
S3102 N3103 1.613 . S
S3102 N3104 1.610 . S
N3103 S3102 1.613 . S
N3103 C3106 1.350 . S
N3104 S3102 1.610 . S
N3104 C3105 1.351 . S
C3105 C3099 1.428 . S
C3105 N3104 1.351 . S
C3105 C3106 1.434 . S
C3106 C3097 1.429 . S
C3106 N3103 1.350 . S
C3106 C3105 1.434 . S
C3107 C3108 1.369 . S
C3107 C3109 1.419 . S
C3107 H3111 0.930 . S
C3108 C3107 1.369 . S
C3108 C3117 1.429 . S
C3109 C3107 1.419 . S
C3109 C3110 1.363 . S
C3109 H3112 0.929 . S
C3110 C3109 1.363 . S
C3110 C3116 1.428 . S
H3111 C3107 0.930 . S
H3112 C3109 0.929 . S
S3113 N3114 1.613 . S
S3113 N3115 1.610 . S
N3114 S3113 1.613 . S
N3114 C3117 1.350 . S
N3115 S3113 1.610 . S
N3115 C3116 1.351 . S
C3116 C3110 1.428 . S
C3116 N3115 1.351 . S
C3116 C3117 1.434 . S
C3117 C3108 1.429 . S
C3117 N3114 1.350 . S
C3117 C3116 1.434 . S
C3118 C3119 1.369 . S
C3118 C3120 1.419 . S
C3118 H3122 0.930 . S
C3119 C3118 1.369 . S
C3119 C3128 1.429 . S
C3120 C3118 1.419 . S
C3120 C3121 1.363 . S
C3120 H3123 0.929 . S
C3121 C3120 1.363 . S
C3121 C3127 1.428 . S
H3122 C3118 0.930 . S
H3123 C3120 0.929 . S
S3124 N3125 1.613 . S
S3124 N3126 1.610 . S
N3125 S3124 1.613 . S
N3125 C3128 1.350 . S
N3126 S3124 1.610 . S
N3126 C3127 1.351 . S
C3127 C3121 1.428 . S
C3127 N3126 1.351 . S
C3127 C3128 1.434 . S
C3128 C3119 1.429 . S
C3128 N3125 1.350 . S
C3128 C3127 1.434 . S
C3129 C3130 1.369 1_554 S
C3129 C3131 1.419 . S
C3129 H3133 0.930 . S
C3130 C3129 1.369 1_556 S
C3130 C3139 1.429 . S
C3131 C3129 1.419 . S
C3131 C3132 1.363 . S
C3131 H3134 0.929 . S
C3132 C3131 1.363 . S
C3132 C3138 1.428 1_554 S
H3133 C3129 0.930 . S
H3134 C3131 0.929 . S
S3135 N3136 1.613 . S
S3135 N3137 1.610 . S
N3136 S3135 1.613 . S
N3136 C3139 1.350 . S
N3137 S3135 1.610 . S
N3137 C3138 1.351 . S
C3138 C3132 1.428 1_556 S
C3138 N3137 1.351 . S
C3138 C3139 1.434 . S
C3139 C3130 1.429 . S
C3139 N3136 1.350 . S
C3139 C3138 1.434 . S
C3140 C3141 1.369 . S
C3140 C3142 1.419 . S
C3140 H3144 0.930 . S
C3141 C3140 1.369 . S
C3141 C3150 1.429 . S
C3142 C3140 1.419 . S
C3142 C3143 1.363 . S
C3142 H3145 0.929 . S
C3143 C3142 1.363 . S
C3143 C3149 1.428 . S
H3144 C3140 0.930 . S
H3145 C3142 0.929 . S
S3146 N3147 1.613 . S
S3146 N3148 1.610 . S
N3147 S3146 1.613 . S
N3147 C3150 1.350 . S
N3148 S3146 1.610 . S
N3148 C3149 1.351 . S
C3149 C3143 1.428 . S
C3149 N3148 1.351 . S
C3149 C3150 1.434 . S
C3150 C3141 1.429 . S
C3150 N3147 1.350 . S
C3150 C3149 1.434 . S
C3151 C3152 1.369 . S
C3151 C3153 1.419 . S
C3151 H3155 0.930 . S
C3152 C3151 1.369 . S
C3152 C3161 1.429 . S
C3153 C3151 1.419 . S
C3153 C3154 1.363 . S
C3153 H3156 0.929 . S
C3154 C3153 1.363 . S
C3154 C3160 1.428 . S
H3155 C3151 0.930 . S
H3156 C3153 0.929 . S
S3157 N3158 1.613 . S
S3157 N3159 1.610 . S
N3158 S3157 1.613 . S
N3158 C3161 1.350 . S
N3159 S3157 1.610 . S
N3159 C3160 1.351 . S
C3160 C3154 1.428 . S
C3160 N3159 1.351 . S
C3160 C3161 1.434 . S
C3161 C3152 1.429 . S
C3161 N3158 1.350 . S
C3161 C3160 1.434 . S
C3162 C3163 1.369 . S
C3162 C3164 1.419 . S
C3162 H3166 0.930 . S
C3163 C3162 1.369 . S
C3163 C3172 1.429 . S
C3164 C3162 1.419 . S
C3164 C3165 1.363 . S
C3164 H3167 0.929 . S
C3165 C3164 1.363 . S
C3165 C3171 1.428 . S
H3166 C3162 0.930 . S
H3167 C3164 0.929 . S
S3168 N3169 1.613 . S
S3168 N3170 1.610 . S
N3169 S3168 1.613 . S
N3169 C3172 1.350 . S
N3170 S3168 1.610 . S
N3170 C3171 1.351 . S
C3171 C3165 1.428 . S
C3171 N3170 1.351 . S
C3171 C3172 1.434 . S
C3172 C3163 1.429 . S
C3172 N3169 1.350 . S
C3172 C3171 1.434 . S
C3173 C3174 1.369 . S
C3173 C3175 1.419 . S
C3173 H3177 0.930 . S
C3174 C3173 1.369 . S
C3174 C3183 1.429 1_554 S
C3175 C3173 1.419 . S
C3175 C3176 1.363 1_554 S
C3175 H3178 0.929 . S
C3176 C3175 1.363 1_556 S
C3176 C3182 1.428 . S
H3177 C3173 0.930 . S
H3178 C3175 0.929 . S
S3179 N3180 1.613 . S
S3179 N3181 1.610 . S
N3180 S3179 1.613 . S
N3180 C3183 1.350 . S
N3181 S3179 1.610 . S
N3181 C3182 1.351 . S
C3182 C3176 1.428 . S
C3182 N3181 1.351 . S
C3182 C3183 1.434 . S
C3183 C3174 1.429 1_556 S
C3183 N3180 1.350 . S
C3183 C3182 1.434 . S
C3184 C3185 1.369 . S
C3184 C3186 1.419 . S
C3184 H3188 0.930 . S
C3185 C3184 1.369 . S
C3185 C3194 1.429 . S
C3186 C3184 1.419 . S
C3186 C3187 1.363 . S
C3186 H3189 0.929 . S
C3187 C3186 1.363 . S
C3187 C3193 1.428 . S
H3188 C3184 0.930 . S
H3189 C3186 0.929 . S
S3190 N3191 1.613 . S
S3190 N3192 1.610 . S
N3191 S3190 1.613 . S
N3191 C3194 1.350 . S
N3192 S3190 1.610 . S
N3192 C3193 1.351 . S
C3193 C3187 1.428 . S
C3193 N3192 1.351 . S
C3193 C3194 1.434 . S
C3194 C3185 1.429 . S
C3194 N3191 1.350 . S
C3194 C3193 1.434 . S
C3195 C3196 1.369 . S
C3195 C3197 1.419 1_565 S
C3195 H3199 0.930 . S
C3196 C3195 1.369 . S
C3196 C3205 1.429 . S
C3197 C3195 1.419 1_545 S
C3197 C3198 1.363 . S
C3197 H3200 0.929 . S
C3198 C3197 1.363 . S
C3198 C3204 1.428 1_545 S
H3199 C3195 0.930 . S
H3200 C3197 0.929 . S
S3201 N3202 1.613 . S
S3201 N3203 1.610 . S
N3202 S3201 1.613 . S
N3202 C3205 1.350 . S
N3203 S3201 1.610 . S
N3203 C3204 1.351 . S
C3204 C3198 1.428 1_565 S
C3204 N3203 1.351 . S
C3204 C3205 1.434 . S
C3205 C3196 1.429 . S
C3205 N3202 1.350 . S
C3205 C3204 1.434 . S
C3206 C3207 1.369 . S
C3206 C3208 1.419 . S
C3206 H3210 0.930 . S
C3207 C3206 1.369 . S
C3207 C3216 1.429 . S
C3208 C3206 1.419 . S
C3208 C3209 1.363 . S
C3208 H3211 0.929 . S
C3209 C3208 1.363 . S
C3209 C3215 1.428 . S
H3210 C3206 0.930 . S
H3211 C3208 0.929 . S
S3212 N3213 1.613 . S
S3212 N3214 1.610 . S
N3213 S3212 1.613 . S
N3213 C3216 1.350 . S
N3214 S3212 1.610 . S
N3214 C3215 1.351 . S
C3215 C3209 1.428 . S
C3215 N3214 1.351 . S
C3215 C3216 1.434 . S
C3216 C3207 1.429 . S
C3216 N3213 1.350 . S
C3216 C3215 1.434 . S
C3217 C3218 1.369 . S
C3217 C3219 1.419 . S
C3217 H3221 0.930 . S
C3218 C3217 1.369 . S
C3218 C3227 1.432 . S
C3219 C3217 1.419 . S
C3219 C3220 1.363 1_545 S
C3219 H3222 0.929 . S
C3220 C3219 1.363 1_565 S
C3220 C3226 1.428 . S
H3221 C3217 0.930 . S
H3222 C3219 0.929 . S
S3223 N3224 1.613 . S
S3223 N3225 1.610 . S
N3224 S3223 1.613 . S
N3224 C3227 1.348 1_565 S
N3225 S3223 1.610 . S
N3225 C3226 1.351 . S
C3226 C3220 1.428 . S
C3226 N3225 1.351 . S
C3226 C3227 1.431 1_565 S
C3227 C3218 1.432 . S
C3227 N3224 1.348 1_545 S
C3227 C3226 1.431 1_545 S
C3228 C3229 1.369 . S
C3228 C3230 1.419 . S
C3228 H3232 0.930 . S
C3229 C3228 1.369 . S
C3229 C3238 1.429 . S
C3230 C3228 1.419 . S
C3230 C3231 1.363 . S
C3230 H3233 0.929 . S
C3231 C3230 1.363 . S
C3231 C3237 1.428 . S
H3232 C3228 0.930 . S
H3233 C3230 0.929 . S
S3234 N3235 1.613 . S
S3234 N3236 1.610 . S
N3235 S3234 1.613 . S
N3235 C3238 1.350 . S
N3236 S3234 1.610 . S
N3236 C3237 1.351 . S
C3237 C3231 1.428 . S
C3237 N3236 1.351 . S
C3237 C3238 1.434 . S
C3238 C3229 1.429 . S
C3238 N3235 1.350 . S
C3238 C3237 1.434 . S
C3239 C3240 1.369 . S
C3239 C3241 1.419 1_565 S
C3239 H3243 0.930 . S
C3240 C3239 1.369 . S
C3240 C3249 1.429 . S
C3241 C3239 1.419 1_545 S
C3241 C3242 1.363 . S
C3241 H3244 0.929 . S
C3242 C3241 1.363 . S
C3242 C3248 1.428 . S
H3243 C3239 0.930 . S
H3244 C3241 0.929 . S
S3245 N3246 1.613 . S
S3245 N3247 1.610 1_565 S
N3246 S3245 1.613 . S
N3246 C3249 1.350 . S
N3247 S3245 1.610 1_545 S
N3247 C3248 1.351 . S
C3248 C3242 1.428 . S
C3248 N3247 1.351 . S
C3248 C3249 1.434 1_545 S
C3249 C3240 1.429 . S
C3249 N3246 1.350 . S
C3249 C3248 1.434 1_565 S
C3250 C3251 1.369 . S
C3250 C3252 1.419 . S
C3250 H3254 0.930 . S
C3251 C3250 1.369 . S
C3251 C3260 1.429 . S
C3252 C3250 1.419 . S
C3252 C3253 1.363 . S
C3252 H3255 0.929 . S
C3253 C3252 1.363 . S
C3253 C3259 1.428 . S
H3254 C3250 0.930 . S
H3255 C3252 0.929 . S
S3256 N3257 1.613 . S
S3256 N3258 1.610 . S
N3257 S3256 1.613 . S
N3257 C3260 1.350 . S
N3258 S3256 1.610 . S
N3258 C3259 1.351 . S
C3259 C3253 1.428 . S
C3259 N3258 1.351 . S
C3259 C3260 1.434 . S
C3260 C3251 1.429 . S
C3260 N3257 1.350 . S
C3260 C3259 1.434 . S
C3261 C3262 1.369 1_545 S
C3261 C3263 1.419 . S
C3261 H3265 0.930 . S
C3262 C3261 1.369 1_565 S
C3262 C3271 1.429 . S
C3263 C3261 1.419 . S
C3263 C3264 1.363 . S
C3263 H3266 0.929 . S
C3264 C3263 1.363 . S
C3264 C3270 1.428 1_545 S
H3265 C3261 0.930 . S
H3266 C3263 0.929 . S
S3267 N3268 1.613 . S
S3267 N3269 1.610 . S
N3268 S3267 1.613 . S
N3268 C3271 1.350 . S
N3269 S3267 1.610 . S
N3269 C3270 1.351 . S
C3270 C3264 1.428 1_565 S
C3270 N3269 1.351 . S
C3270 C3271 1.434 . S
C3271 C3262 1.429 . S
C3271 N3268 1.350 . S
C3271 C3270 1.434 . S
C3272 C3273 1.369 . S
C3272 C3274 1.419 . S
C3272 H3276 0.930 . S
C3273 C3272 1.369 . S
C3273 C3282 1.429 . S
C3274 C3272 1.419 . S
C3274 C3275 1.363 . S
C3274 H3277 0.929 . S
C3275 C3274 1.363 . S
C3275 C3281 1.428 . S
H3276 C3272 0.930 . S
H3277 C3274 0.929 . S
S3278 N3279 1.613 . S
S3278 N3280 1.610 . S
N3279 S3278 1.613 . S
N3279 C3282 1.350 . S
N3280 S3278 1.610 . S
N3280 C3281 1.351 . S
C3281 C3275 1.428 . S
C3281 N3280 1.351 . S
C3281 C3282 1.434 . S
C3282 C3273 1.429 . S
C3282 N3279 1.350 . S
C3282 C3281 1.434 . S
C3283 C3284 1.369 . S
C3283 C3285 1.419 . S
C3283 H3287 0.930 . S
C3284 C3283 1.369 . S
C3284 C3293 1.429 . S
C3285 C3283 1.419 . S
C3285 C3286 1.363 . S
C3285 H3288 0.929 . S
C3286 C3285 1.363 . S
C3286 C3292 1.428 . S
H3287 C3283 0.930 . S
H3288 C3285 0.929 . S
S3289 N3290 1.613 . S
S3289 N3291 1.610 . S
N3290 S3289 1.613 . S
N3290 C3293 1.350 . S
N3291 S3289 1.610 . S
N3291 C3292 1.351 . S
C3292 C3286 1.428 . S
C3292 N3291 1.351 . S
C3292 C3293 1.434 . S
C3293 C3284 1.429 . S
C3293 N3290 1.350 . S
C3293 C3292 1.434 . S
C3294 C3295 1.369 . S
C3294 C3296 1.419 1_655 S
C3294 H3298 0.930 . S
C3295 C3294 1.369 . S
C3295 C3304 1.429 . S
C3296 C3294 1.419 1_455 S
C3296 C3297 1.363 . S
C3296 H3299 0.929 . S
C3297 C3296 1.363 . S
C3297 C3303 1.428 1_455 S
H3298 C3294 0.930 . S
H3299 C3296 0.929 . S
S3300 N3301 1.613 . S
S3300 N3302 1.610 . S
N3301 S3300 1.613 . S
N3301 C3304 1.350 . S
N3302 S3300 1.610 . S
N3302 C3303 1.351 . S
C3303 C3297 1.428 1_655 S
C3303 N3302 1.351 . S
C3303 C3304 1.434 . S
C3304 C3295 1.429 . S
C3304 N3301 1.350 . S
C3304 C3303 1.434 . S
C3305 C3306 1.369 . S
C3305 C3307 1.419 . S
C3305 H3309 0.930 . S
C3306 C3305 1.369 . S
C3306 C3315 1.429 . S
C3307 C3305 1.419 . S
C3307 C3308 1.363 . S
C3307 H3310 0.929 . S
C3308 C3307 1.363 . S
C3308 C3314 1.428 . S
H3309 C3305 0.930 . S
H3310 C3307 0.929 . S
S3311 N3312 1.613 . S
S3311 N3313 1.610 . S
N3312 S3311 1.613 . S
N3312 C3315 1.350 . S
N3313 S3311 1.610 . S
N3313 C3314 1.351 . S
C3314 C3308 1.428 . S
C3314 N3313 1.351 . S
C3314 C3315 1.434 . S
C3315 C3306 1.429 . S
C3315 N3312 1.350 . S
C3315 C3314 1.434 . S
C3316 C3317 1.369 . S
C3316 C3318 1.419 1_455 S
C3316 H3320 0.930 . S
C3317 C3316 1.369 . S
C3317 C3326 1.429 . S
C3318 C3316 1.419 1_655 S
C3318 C3319 1.363 . S
C3318 H3321 0.929 . S
C3319 C3318 1.363 . S
C3319 C3325 1.428 1_655 S
H3320 C3316 0.930 . S
H3321 C3318 0.929 . S
S3322 N3323 1.613 . S
S3322 N3324 1.610 . S
N3323 S3322 1.613 . S
N3323 C3326 1.350 . S
N3324 S3322 1.610 . S
N3324 C3325 1.351 . S
C3325 C3319 1.428 1_455 S
C3325 N3324 1.351 . S
C3325 C3326 1.434 . S
C3326 C3317 1.429 . S
C3326 N3323 1.350 . S
C3326 C3325 1.434 . S
C3327 C3328 1.369 . S
C3327 C3329 1.419 . S
C3327 H3331 0.930 . S
C3328 C3327 1.369 . S
C3328 C3337 1.429 . S
C3329 C3327 1.419 . S
C3329 C3330 1.363 . S
C3329 H3332 0.929 . S
C3330 C3329 1.363 . S
C3330 C3336 1.428 . S
H3331 C3327 0.930 . S
H3332 C3329 0.929 . S
S3333 N3334 1.613 . S
S3333 N3335 1.610 . S
N3334 S3333 1.613 . S
N3334 C3337 1.350 . S
N3335 S3333 1.610 . S
N3335 C3336 1.351 . S
C3336 C3330 1.428 . S
C3336 N3335 1.351 . S
C3336 C3337 1.434 . S
C3337 C3328 1.429 . S
C3337 N3334 1.350 . S
C3337 C3336 1.434 . S
C3338 C3339 1.369 . S
C3338 C3340 1.419 . S
C3338 H3342 0.930 . S
C3339 C3338 1.369 . S
C3339 C3348 1.395 1_655 S
C3340 C3338 1.419 . S
C3340 C3341 1.363 1_655 S
C3340 H3343 0.929 . S
C3341 C3340 1.363 1_455 S
C3341 C3347 1.428 . S
H3342 C3338 0.930 . S
H3343 C3340 0.929 . S
S3344 N3345 1.613 . S
S3344 N3346 1.610 . S
N3345 S3344 1.613 . S
N3345 C3348 1.365 . S
N3346 S3344 1.610 . S
N3346 C3347 1.351 . S
C3347 C3341 1.428 . S
C3347 N3346 1.351 . S
C3347 C3348 1.459 . S
C3348 C3339 1.395 1_455 S
C3348 N3345 1.365 . S
C3348 C3347 1.459 . S
C3349 C3350 1.369 . S
C3349 C3351 1.419 . S
C3349 H3353 0.930 . S
C3350 C3349 1.369 . S
C3350 C3359 1.429 . S
C3351 C3349 1.419 . S
C3351 C3352 1.363 . S
C3351 H3354 0.929 . S
C3352 C3351 1.363 . S
C3352 C3358 1.428 . S
H3353 C3349 0.930 . S
H3354 C3351 0.929 . S
S3355 N3356 1.613 . S
S3355 N3357 1.610 . S
N3356 S3355 1.613 . S
N3356 C3359 1.350 . S
N3357 S3355 1.610 . S
N3357 C3358 1.351 . S
C3358 C3352 1.428 . S
C3358 N3357 1.351 . S
C3358 C3359 1.434 . S
C3359 C3350 1.429 . S
C3359 N3356 1.350 . S
C3359 C3358 1.434 . S
C3360 C3361 1.369 . S
C3360 C3362 1.419 . S
C3360 H3364 0.930 . S
C3361 C3360 1.369 . S
C3361 C3370 1.429 . S
C3362 C3360 1.419 . S
C3362 C3363 1.363 . S
C3362 H3365 0.929 . S
C3363 C3362 1.363 . S
C3363 C3369 1.428 . S
H3364 C3360 0.930 . S
H3365 C3362 0.929 . S
S3366 N3367 1.613 . S
S3366 N3368 1.610 . S
N3367 S3366 1.613 . S
N3367 C3370 1.350 . S
N3368 S3366 1.610 . S
N3368 C3369 1.351 . S
C3369 C3363 1.428 . S
C3369 N3368 1.351 . S
C3369 C3370 1.434 . S
C3370 C3361 1.429 . S
C3370 N3367 1.350 . S
C3370 C3369 1.434 . S
C3371 C3372 1.369 1_556 S
C3371 C3373 1.419 . S
C3371 H3375 0.930 . S
C3372 C3371 1.369 1_554 S
C3372 C3381 1.429 . S
C3373 C3371 1.419 . S
C3373 C3374 1.363 . S
C3373 H3376 0.929 . S
C3374 C3373 1.363 . S
C3374 C3380 1.428 1_556 S
H3375 C3371 0.930 . S
H3376 C3373 0.929 . S
S3377 N3378 1.613 . S
S3377 N3379 1.610 . S
N3378 S3377 1.613 . S
N3378 C3381 1.350 . S
N3379 S3377 1.610 . S
N3379 C3380 1.351 . S
C3380 C3374 1.428 1_554 S
C3380 N3379 1.351 . S
C3380 C3381 1.434 . S
C3381 C3372 1.429 . S
C3381 N3378 1.350 . S
C3381 C3380 1.434 . S
C3382 C3383 1.369 . S
C3382 C3384 1.419 . S
C3382 H3386 0.930 . S
C3383 C3382 1.369 . S
C3383 C3392 1.429 . S
C3384 C3382 1.419 . S
C3384 C3385 1.363 . S
C3384 H3387 0.929 . S
C3385 C3384 1.363 . S
C3385 C3391 1.428 . S
H3386 C3382 0.930 . S
H3387 C3384 0.929 . S
S3388 N3389 1.613 . S
S3388 N3390 1.610 . S
N3389 S3388 1.613 . S
N3389 C3392 1.350 . S
N3390 S3388 1.610 . S
N3390 C3391 1.351 . S
C3391 C3385 1.428 . S
C3391 N3390 1.351 . S
C3391 C3392 1.434 . S
C3392 C3383 1.429 . S
C3392 N3389 1.350 . S
C3392 C3391 1.434 . S
C3393 C3394 1.369 . S
C3393 C3395 1.419 . S
C3393 H3397 0.930 . S
C3394 C3393 1.369 . S
C3394 C3403 1.429 . S
C3395 C3393 1.419 . S
C3395 C3396 1.363 . S
C3395 H3398 0.929 . S
C3396 C3395 1.363 . S
C3396 C3402 1.428 . S
H3397 C3393 0.930 . S
H3398 C3395 0.929 . S
S3399 N3400 1.613 . S
S3399 N3401 1.610 . S
N3400 S3399 1.613 . S
N3400 C3403 1.350 . S
N3401 S3399 1.610 . S
N3401 C3402 1.351 . S
C3402 C3396 1.428 . S
C3402 N3401 1.351 . S
C3402 C3403 1.434 . S
C3403 C3394 1.429 . S
C3403 N3400 1.350 . S
C3403 C3402 1.434 . S
C3404 C3405 1.369 . S
C3404 C3406 1.419 . S
C3404 H3408 0.930 . S
C3405 C3404 1.369 . S
C3405 C3414 1.429 . S
C3406 C3404 1.419 . S
C3406 C3407 1.363 . S
C3406 H3409 0.929 . S
C3407 C3406 1.363 . S
C3407 C3413 1.428 . S
H3408 C3404 0.930 . S
H3409 C3406 0.929 . S
S3410 N3411 1.613 . S
S3410 N3412 1.610 . S
N3411 S3410 1.613 . S
N3411 C3414 1.350 . S
N3412 S3410 1.610 . S
N3412 C3413 1.351 . S
C3413 C3407 1.428 . S
C3413 N3412 1.351 . S
C3413 C3414 1.434 . S
C3414 C3405 1.429 . S
C3414 N3411 1.350 . S
C3414 C3413 1.434 . S
C3415 C3416 1.369 1_554 S
C3415 C3417 1.419 . S
C3415 H3419 0.930 . S
C3416 C3415 1.369 1_556 S
C3416 C3425 1.429 . S
C3417 C3415 1.419 . S
C3417 C3418 1.363 . S
C3417 H3420 0.929 . S
C3418 C3417 1.363 . S
C3418 C3424 1.428 1_554 S
H3419 C3415 0.930 . S
H3420 C3417 0.929 . S
S3421 N3422 1.613 . S
S3421 N3423 1.610 . S
N3422 S3421 1.613 . S
N3422 C3425 1.350 . S
N3423 S3421 1.610 . S
N3423 C3424 1.351 . S
C3424 C3418 1.428 1_556 S
C3424 N3423 1.351 . S
C3424 C3425 1.434 . S
C3425 C3416 1.429 . S
C3425 N3422 1.350 . S
C3425 C3424 1.434 . S
C3426 C3427 1.369 . S
C3426 C3428 1.419 . S
C3426 H3430 0.930 . S
C3427 C3426 1.369 . S
C3427 C3436 1.429 . S
C3428 C3426 1.419 . S
C3428 C3429 1.363 . S
C3428 H3431 0.929 . S
C3429 C3428 1.363 . S
C3429 C3435 1.428 . S
H3430 C3426 0.930 . S
H3431 C3428 0.929 . S
S3432 N3433 1.613 . S
S3432 N3434 1.610 . S
N3433 S3432 1.613 . S
N3433 C3436 1.350 . S
N3434 S3432 1.610 . S
N3434 C3435 1.351 . S
C3435 C3429 1.428 . S
C3435 N3434 1.351 . S
C3435 C3436 1.434 . S
C3436 C3427 1.429 . S
C3436 N3433 1.350 . S
C3436 C3435 1.434 . S
C3437 C3438 1.369 . S
C3437 C3439 1.419 . S
C3437 H3441 0.930 . S
C3438 C3437 1.369 . S
C3438 C3447 1.429 . S
C3439 C3437 1.419 . S
C3439 C3440 1.363 . S
C3439 H3442 0.929 . S
C3440 C3439 1.363 . S
C3440 C3446 1.428 . S
H3441 C3437 0.930 . S
H3442 C3439 0.929 . S
S3443 N3444 1.613 . S
S3443 N3445 1.610 . S
N3444 S3443 1.613 . S
N3444 C3447 1.350 . S
N3445 S3443 1.610 . S
N3445 C3446 1.351 . S
C3446 C3440 1.428 . S
C3446 N3445 1.351 . S
C3446 C3447 1.434 . S
C3447 C3438 1.429 . S
C3447 N3444 1.350 . S
C3447 C3446 1.434 . S
C3448 C3449 1.369 . S
C3448 C3450 1.419 . S
C3448 H3452 0.930 . S
C3449 C3448 1.369 . S
C3449 C3458 1.429 . S
C3450 C3448 1.419 . S
C3450 C3451 1.363 . S
C3450 H3453 0.929 . S
C3451 C3450 1.363 . S
C3451 C3457 1.428 . S
H3452 C3448 0.930 . S
H3453 C3450 0.929 . S
S3454 N3455 1.613 . S
S3454 N3456 1.610 . S
N3455 S3454 1.613 . S
N3455 C3458 1.350 . S
N3456 S3454 1.610 . S
N3456 C3457 1.351 . S
C3457 C3451 1.428 . S
C3457 N3456 1.351 . S
C3457 C3458 1.434 . S
C3458 C3449 1.429 . S
C3458 N3455 1.350 . S
C3458 C3457 1.434 . S
C3459 C3460 1.369 . S
C3459 C3461 1.419 . S
C3459 H3463 0.930 . S
C3460 C3459 1.369 . S
C3460 C3469 1.429 . S
C3461 C3459 1.419 . S
C3461 C3462 1.363 . S
C3461 H3464 0.929 . S
C3462 C3461 1.363 . S
C3462 C3468 1.428 . S
H3463 C3459 0.930 . S
H3464 C3461 0.929 . S
S3465 N3466 1.613 . S
S3465 N3467 1.610 . S
N3466 S3465 1.613 . S
N3466 C3469 1.350 . S
N3467 S3465 1.610 . S
N3467 C3468 1.351 . S
C3468 C3462 1.428 . S
C3468 N3467 1.351 . S
C3468 C3469 1.434 . S
C3469 C3460 1.429 . S
C3469 N3466 1.350 . S
C3469 C3468 1.434 . S
C3470 C3471 1.369 . S
C3470 C3472 1.419 . S
C3470 H3474 0.930 . S
C3471 C3470 1.369 . S
C3471 C3480 1.429 . S
C3472 C3470 1.419 . S
C3472 C3473 1.363 . S
C3472 H3475 0.929 . S
C3473 C3472 1.363 . S
C3473 C3479 1.428 . S
H3474 C3470 0.930 . S
H3475 C3472 0.929 . S
S3476 N3477 1.613 . S
S3476 N3478 1.610 . S
N3477 S3476 1.613 . S
N3477 C3480 1.350 . S
N3478 S3476 1.610 . S
N3478 C3479 1.351 . S
C3479 C3473 1.428 . S
C3479 N3478 1.351 . S
C3479 C3480 1.434 . S
C3480 C3471 1.429 . S
C3480 N3477 1.350 . S
C3480 C3479 1.434 . S
C3481 C3482 1.369 . S
C3481 C3483 1.419 . S
C3481 H3485 0.930 . S
C3482 C3481 1.369 . S
C3482 C3491 1.429 . S
C3483 C3481 1.419 . S
C3483 C3484 1.363 . S
C3483 H3486 0.929 . S
C3484 C3483 1.363 . S
C3484 C3490 1.428 . S
H3485 C3481 0.930 . S
H3486 C3483 0.929 . S
S3487 N3488 1.613 . S
S3487 N3489 1.610 . S
N3488 S3487 1.613 . S
N3488 C3491 1.350 . S
N3489 S3487 1.610 . S
N3489 C3490 1.351 . S
C3490 C3484 1.428 . S
C3490 N3489 1.351 . S
C3490 C3491 1.434 . S
C3491 C3482 1.429 . S
C3491 N3488 1.350 . S
C3491 C3490 1.434 . S
C3492 C3493 1.369 . S
C3492 C3494 1.419 . S
C3492 H3496 0.930 . S
C3493 C3492 1.369 . S
C3493 C3502 1.429 . S
C3494 C3492 1.419 . S
C3494 C3495 1.363 . S
C3494 H3497 0.929 . S
C3495 C3494 1.363 . S
C3495 C3501 1.428 . S
H3496 C3492 0.930 . S
H3497 C3494 0.929 . S
S3498 N3499 1.613 . S
S3498 N3500 1.610 . S
N3499 S3498 1.613 . S
N3499 C3502 1.350 . S
N3500 S3498 1.610 . S
N3500 C3501 1.351 . S
C3501 C3495 1.428 . S
C3501 N3500 1.351 . S
C3501 C3502 1.434 . S
C3502 C3493 1.429 . S
C3502 N3499 1.350 . S
C3502 C3501 1.434 . S
C3503 C3504 1.369 . S
C3503 C3505 1.419 . S
C3503 H3507 0.930 . S
C3504 C3503 1.369 . S
C3504 C3513 1.429 . S
C3505 C3503 1.419 . S
C3505 C3506 1.363 . S
C3505 H3508 0.929 . S
C3506 C3505 1.363 . S
C3506 C3512 1.428 . S
H3507 C3503 0.930 . S
H3508 C3505 0.929 . S
S3509 N3510 1.613 . S
S3509 N3511 1.610 1_655 S
N3510 S3509 1.613 . S
N3510 C3513 1.350 . S
N3511 S3509 1.610 1_455 S
N3511 C3512 1.346 1_455 S
C3512 C3506 1.428 . S
C3512 N3511 1.346 1_655 S
C3512 C3513 1.434 . S
C3513 C3504 1.429 . S
C3513 N3510 1.350 . S
C3513 C3512 1.434 . S
C3514 C3515 1.369 . S
C3514 C3516 1.419 . S
C3514 H3518 0.930 . S
C3515 C3514 1.369 . S
C3515 C3524 1.429 . S
C3516 C3514 1.419 . S
C3516 C3517 1.363 . S
C3516 H3519 0.929 . S
C3517 C3516 1.363 . S
C3517 C3523 1.428 . S
H3518 C3514 0.930 . S
H3519 C3516 0.929 . S
S3520 N3521 1.613 . S
S3520 N3522 1.610 . S
N3521 S3520 1.613 . S
N3521 C3524 1.350 . S
N3522 S3520 1.610 . S
N3522 C3523 1.351 . S
C3523 C3517 1.428 . S
C3523 N3522 1.351 . S
C3523 C3524 1.434 . S
C3524 C3515 1.429 . S
C3524 N3521 1.350 . S
C3524 C3523 1.434 . S
C3525 C3526 1.369 . S
C3525 C3527 1.419 . S
C3525 H3529 0.930 . S
C3526 C3525 1.369 . S
C3526 C3535 1.429 . S
C3527 C3525 1.419 . S
C3527 C3528 1.363 . S
C3527 H3530 0.929 . S
C3528 C3527 1.363 . S
C3528 C3534 1.428 . S
H3529 C3525 0.930 . S
H3530 C3527 0.929 . S
S3531 N3532 1.613 . S
S3531 N3533 1.610 . S
N3532 S3531 1.613 . S
N3532 C3535 1.350 . S
N3533 S3531 1.610 . S
N3533 C3534 1.351 . S
C3534 C3528 1.428 . S
C3534 N3533 1.351 . S
C3534 C3535 1.434 . S
C3535 C3526 1.429 . S
C3535 N3532 1.350 . S
C3535 C3534 1.434 . S
C3536 C3537 1.369 . S
C3536 C3538 1.419 . S
C3536 H3540 0.930 . S
C3537 C3536 1.369 . S
C3537 C3546 1.429 . S
C3538 C3536 1.419 . S
C3538 C3539 1.363 . S
C3538 H3541 0.929 . S
C3539 C3538 1.363 . S
C3539 C3545 1.428 . S
H3540 C3536 0.930 . S
H3541 C3538 0.929 . S
S3542 N3543 1.613 . S
S3542 N3544 1.610 . S
N3543 S3542 1.613 . S
N3543 C3546 1.350 . S
N3544 S3542 1.610 . S
N3544 C3545 1.351 . S
C3545 C3539 1.428 . S
C3545 N3544 1.351 . S
C3545 C3546 1.434 . S
C3546 C3537 1.429 . S
C3546 N3543 1.350 . S
C3546 C3545 1.434 . S
C3547 C3548 1.369 . S
C3547 C3549 1.419 . S
C3547 H3551 0.930 . S
C3548 C3547 1.369 . S
C3548 C3557 1.429 . S
C3549 C3547 1.419 . S
C3549 C3550 1.363 . S
C3549 H3552 0.929 . S
C3550 C3549 1.363 . S
C3550 C3556 1.428 . S
H3551 C3547 0.930 . S
H3552 C3549 0.929 . S
S3553 N3554 1.613 . S
S3553 N3555 1.610 . S
N3554 S3553 1.613 . S
N3554 C3557 1.350 . S
N3555 S3553 1.610 . S
N3555 C3556 1.351 . S
C3556 C3550 1.428 . S
C3556 N3555 1.351 . S
C3556 C3557 1.434 . S
C3557 C3548 1.429 . S
C3557 N3554 1.350 . S
C3557 C3556 1.434 . S
C3558 C3559 1.369 . S
C3558 C3560 1.419 . S
C3558 H3562 0.930 . S
C3559 C3558 1.369 . S
C3559 C3568 1.429 . S
C3560 C3558 1.419 . S
C3560 C3561 1.363 . S
C3560 H3563 0.929 . S
C3561 C3560 1.363 . S
C3561 C3567 1.428 . S
H3562 C3558 0.930 . S
H3563 C3560 0.929 . S
S3564 N3565 1.613 . S
S3564 N3566 1.610 . S
N3565 S3564 1.613 . S
N3565 C3568 1.350 . S
N3566 S3564 1.610 . S
N3566 C3567 1.351 . S
C3567 C3561 1.428 . S
C3567 N3566 1.351 . S
C3567 C3568 1.434 . S
C3568 C3559 1.429 . S
C3568 N3565 1.350 . S
C3568 C3567 1.434 . S
C3569 C3570 1.369 . S
C3569 C3571 1.419 . S
C3569 H3573 0.930 . S
C3570 C3569 1.369 . S
C3570 C3579 1.429 . S
C3571 C3569 1.419 . S
C3571 C3572 1.363 . S
C3571 H3574 0.929 . S
C3572 C3571 1.363 . S
C3572 C3578 1.428 . S
H3573 C3569 0.930 . S
H3574 C3571 0.929 . S
S3575 N3576 1.613 . S
S3575 N3577 1.610 . S
N3576 S3575 1.613 . S
N3576 C3579 1.350 . S
N3577 S3575 1.610 . S
N3577 C3578 1.351 . S
C3578 C3572 1.428 . S
C3578 N3577 1.351 . S
C3578 C3579 1.434 . S
C3579 C3570 1.429 . S
C3579 N3576 1.350 . S
C3579 C3578 1.434 . S
C3580 C3581 1.369 . S
C3580 C3582 1.419 . S
C3580 H3584 0.930 . S
C3581 C3580 1.369 . S
C3581 C3590 1.429 . S
C3582 C3580 1.419 . S
C3582 C3583 1.363 . S
C3582 H3585 0.929 . S
C3583 C3582 1.363 . S
C3583 C3589 1.428 . S
H3584 C3580 0.930 . S
H3585 C3582 0.929 . S
S3586 N3587 1.613 . S
S3586 N3588 1.610 . S
N3587 S3586 1.613 . S
N3587 C3590 1.350 . S
N3588 S3586 1.610 . S
N3588 C3589 1.351 . S
C3589 C3583 1.428 . S
C3589 N3588 1.351 . S
C3589 C3590 1.434 . S
C3590 C3581 1.429 . S
C3590 N3587 1.350 . S
C3590 C3589 1.434 . S
C3591 C3592 1.369 . S
C3591 C3593 1.419 . S
C3591 H3595 0.930 . S
C3592 C3591 1.369 . S
C3592 C3601 1.429 . S
C3593 C3591 1.419 . S
C3593 C3594 1.363 . S
C3593 H3596 0.929 . S
C3594 C3593 1.363 . S
C3594 C3600 1.428 . S
H3595 C3591 0.930 . S
H3596 C3593 0.929 . S
S3597 N3598 1.613 . S
S3597 N3599 1.610 . S
N3598 S3597 1.613 . S
N3598 C3601 1.350 . S
N3599 S3597 1.610 . S
N3599 C3600 1.351 . S
C3600 C3594 1.428 . S
C3600 N3599 1.351 . S
C3600 C3601 1.434 . S
C3601 C3592 1.429 . S
C3601 N3598 1.350 . S
C3601 C3600 1.434 . S
C3602 C3603 1.369 . S
C3602 C3604 1.419 . S
C3602 H3606 0.930 . S
C3603 C3602 1.369 . S
C3603 C3612 1.429 . S
C3604 C3602 1.419 . S
C3604 C3605 1.363 . S
C3604 H3607 0.929 . S
C3605 C3604 1.363 . S
C3605 C3611 1.428 . S
H3606 C3602 0.930 . S
H3607 C3604 0.929 . S
S3608 N3609 1.613 . S
S3608 N3610 1.610 . S
N3609 S3608 1.613 . S
N3609 C3612 1.350 . S
N3610 S3608 1.610 . S
N3610 C3611 1.351 . S
C3611 C3605 1.428 . S
C3611 N3610 1.351 . S
C3611 C3612 1.434 . S
C3612 C3603 1.429 . S
C3612 N3609 1.350 . S
C3612 C3611 1.434 . S
C3613 C3614 1.369 . S
C3613 C3615 1.419 . S
C3613 H3617 0.930 . S
C3614 C3613 1.369 . S
C3614 C3623 1.429 1_455 S
C3615 C3613 1.419 . S
C3615 C3616 1.363 1_455 S
C3615 H3618 0.929 . S
C3616 C3615 1.363 1_655 S
C3616 C3622 1.428 . S
H3617 C3613 0.930 . S
H3618 C3615 0.929 . S
S3619 N3620 1.613 . S
S3619 N3621 1.610 . S
N3620 S3619 1.613 . S
N3620 C3623 1.350 . S
N3621 S3619 1.610 . S
N3621 C3622 1.351 . S
C3622 C3616 1.428 . S
C3622 N3621 1.351 . S
C3622 C3623 1.434 . S
C3623 C3614 1.429 1_655 S
C3623 N3620 1.350 . S
C3623 C3622 1.434 . S
C3624 C3625 1.369 . S
C3624 C3626 1.419 . S
C3624 H3628 0.930 . S
C3625 C3624 1.369 . S
C3625 C3634 1.429 . S
C3626 C3624 1.419 . S
C3626 C3627 1.363 . S
C3626 H3629 0.929 . S
C3627 C3626 1.363 . S
C3627 C3633 1.428 . S
H3628 C3624 0.930 . S
H3629 C3626 0.929 . S
S3630 N3631 1.613 . S
S3630 N3632 1.610 . S
N3631 S3630 1.613 . S
N3631 C3634 1.350 . S
N3632 S3630 1.610 . S
N3632 C3633 1.351 . S
C3633 C3627 1.428 . S
C3633 N3632 1.351 . S
C3633 C3634 1.434 . S
C3634 C3625 1.429 . S
C3634 N3631 1.350 . S
C3634 C3633 1.434 . S
C3635 C3636 1.369 . S
C3635 C3637 1.419 . S
C3635 H3639 0.930 . S
C3636 C3635 1.369 . S
C3636 C3645 1.429 . S
C3637 C3635 1.419 . S
C3637 C3638 1.363 . S
C3637 H3640 0.929 . S
C3638 C3637 1.363 . S
C3638 C3644 1.428 . S
H3639 C3635 0.930 . S
H3640 C3637 0.929 . S
S3641 N3642 1.613 . S
S3641 N3643 1.610 . S
N3642 S3641 1.613 . S
N3642 C3645 1.350 . S
N3643 S3641 1.610 . S
N3643 C3644 1.351 . S
C3644 C3638 1.428 . S
C3644 N3643 1.351 . S
C3644 C3645 1.434 . S
C3645 C3636 1.429 . S
C3645 N3642 1.350 . S
C3645 C3644 1.434 . S
C3646 C3647 1.369 . S
C3646 C3648 1.419 . S
C3646 H3650 0.930 . S
C3647 C3646 1.369 . S
C3647 C3656 1.429 . S
C3648 C3646 1.419 . S
C3648 C3649 1.363 . S
C3648 H3651 0.929 . S
C3649 C3648 1.363 . S
C3649 C3655 1.428 . S
H3650 C3646 0.930 . S
H3651 C3648 0.929 . S
S3652 N3653 1.613 . S
S3652 N3654 1.610 . S
N3653 S3652 1.613 . S
N3653 C3656 1.350 . S
N3654 S3652 1.610 . S
N3654 C3655 1.351 . S
C3655 C3649 1.428 . S
C3655 N3654 1.351 . S
C3655 C3656 1.434 . S
C3656 C3647 1.429 . S
C3656 N3653 1.350 . S
C3656 C3655 1.434 . S
C3657 C3658 1.369 . S
C3657 C3659 1.419 . S
C3657 H3661 0.930 . S
C3658 C3657 1.369 . S
C3658 C3667 1.429 . S
C3659 C3657 1.419 . S
C3659 C3660 1.363 . S
C3659 H3662 0.929 . S
C3660 C3659 1.363 . S
C3660 C3666 1.428 . S
H3661 C3657 0.930 . S
H3662 C3659 0.929 . S
S3663 N3664 1.613 . S
S3663 N3665 1.610 . S
N3664 S3663 1.613 . S
N3664 C3667 1.350 . S
N3665 S3663 1.610 . S
N3665 C3666 1.351 . S
C3666 C3660 1.428 . S
C3666 N3665 1.351 . S
C3666 C3667 1.434 . S
C3667 C3658 1.429 . S
C3667 N3664 1.350 . S
C3667 C3666 1.434 . S
C3668 C3669 1.369 . S
C3668 C3670 1.419 . S
C3668 H3672 0.930 . S
C3669 C3668 1.369 . S
C3669 C3678 1.429 . S
C3670 C3668 1.419 . S
C3670 C3671 1.363 . S
C3670 H3673 0.929 . S
C3671 C3670 1.363 . S
C3671 C3677 1.428 . S
H3672 C3668 0.930 . S
H3673 C3670 0.929 . S
S3674 N3675 1.613 . S
S3674 N3676 1.610 . S
N3675 S3674 1.613 . S
N3675 C3678 1.350 . S
N3676 S3674 1.610 . S
N3676 C3677 1.351 . S
C3677 C3671 1.428 . S
C3677 N3676 1.351 . S
C3677 C3678 1.434 . S
C3678 C3669 1.429 . S
C3678 N3675 1.350 . S
C3678 C3677 1.434 . S
C3679 C3680 1.369 . S
C3679 C3681 1.419 . S
C3679 H3683 0.930 . S
C3680 C3679 1.369 . S
C3680 C3689 1.429 . S
C3681 C3679 1.419 . S
C3681 C3682 1.363 . S
C3681 H3684 0.929 . S
C3682 C3681 1.363 . S
C3682 C3688 1.428 . S
H3683 C3679 0.930 . S
H3684 C3681 0.929 . S
S3685 N3686 1.613 . S
S3685 N3687 1.610 . S
N3686 S3685 1.613 . S
N3686 C3689 1.350 . S
N3687 S3685 1.610 . S
N3687 C3688 1.351 . S
C3688 C3682 1.428 . S
C3688 N3687 1.351 . S
C3688 C3689 1.434 . S
C3689 C3680 1.429 . S
C3689 N3686 1.350 . S
C3689 C3688 1.434 . S
C3690 C3691 1.369 . S
C3690 C3692 1.419 . S
C3690 H3694 0.930 . S
C3691 C3690 1.369 . S
C3691 C3700 1.429 . S
C3692 C3690 1.419 . S
C3692 C3693 1.363 . S
C3692 H3695 0.929 . S
C3693 C3692 1.363 . S
C3693 C3699 1.428 . S
H3694 C3690 0.930 . S
H3695 C3692 0.929 . S
S3696 N3697 1.613 . S
S3696 N3698 1.610 . S
N3697 S3696 1.613 . S
N3697 C3700 1.350 . S
N3698 S3696 1.610 . S
N3698 C3699 1.351 . S
C3699 C3693 1.428 . S
C3699 N3698 1.351 . S
C3699 C3700 1.434 . S
C3700 C3691 1.429 . S
C3700 N3697 1.350 . S
C3700 C3699 1.434 . S
C3701 C3702 1.369 . S
C3701 C3703 1.419 . S
C3701 H3705 0.930 . S
C3702 C3701 1.369 . S
C3702 C3711 1.429 . S
C3703 C3701 1.419 . S
C3703 C3704 1.363 . S
C3703 H3706 0.929 . S
C3704 C3703 1.363 . S
C3704 C3710 1.428 . S
H3705 C3701 0.930 . S
H3706 C3703 0.929 . S
S3707 N3708 1.613 . S
S3707 N3709 1.610 . S
N3708 S3707 1.613 . S
N3708 C3711 1.350 . S
N3709 S3707 1.610 . S
N3709 C3710 1.351 . S
C3710 C3704 1.428 . S
C3710 N3709 1.351 . S
C3710 C3711 1.434 . S
C3711 C3702 1.429 . S
C3711 N3708 1.350 . S
C3711 C3710 1.434 . S
C3712 C3713 1.369 . S
C3712 C3714 1.419 . S
C3712 H3716 0.930 . S
C3713 C3712 1.369 . S
C3713 C3722 1.429 . S
C3714 C3712 1.419 . S
C3714 C3715 1.363 . S
C3714 H3717 0.929 . S
C3715 C3714 1.363 . S
C3715 C3721 1.428 . S
H3716 C3712 0.930 . S
H3717 C3714 0.929 . S
S3718 N3719 1.613 . S
S3718 N3720 1.610 . S
N3719 S3718 1.613 . S
N3719 C3722 1.350 . S
N3720 S3718 1.610 . S
N3720 C3721 1.351 . S
C3721 C3715 1.428 . S
C3721 N3720 1.351 . S
C3721 C3722 1.434 . S
C3722 C3713 1.429 . S
C3722 N3719 1.350 . S
C3722 C3721 1.434 . S
C3723 C3724 1.369 . S
C3723 C3725 1.419 . S
C3723 H3727 0.930 . S
C3724 C3723 1.369 . S
C3724 C3733 1.429 . S
C3725 C3723 1.419 . S
C3725 C3726 1.363 . S
C3725 H3728 0.929 . S
C3726 C3725 1.363 . S
C3726 C3732 1.428 . S
H3727 C3723 0.930 . S
H3728 C3725 0.929 . S
S3729 N3730 1.613 . S
S3729 N3731 1.610 . S
N3730 S3729 1.613 . S
N3730 C3733 1.350 . S
N3731 S3729 1.610 . S
N3731 C3732 1.351 . S
C3732 C3726 1.428 . S
C3732 N3731 1.351 . S
C3732 C3733 1.434 . S
C3733 C3724 1.429 . S
C3733 N3730 1.350 . S
C3733 C3732 1.434 . S
C3734 C3735 1.369 . S
C3734 C3736 1.419 . S
C3734 H3738 0.930 . S
C3735 C3734 1.369 . S
C3735 C3744 1.429 . S
C3736 C3734 1.419 . S
C3736 C3737 1.363 . S
C3736 H3739 0.929 . S
C3737 C3736 1.363 . S
C3737 C3743 1.428 . S
H3738 C3734 0.930 . S
H3739 C3736 0.929 . S
S3740 N3741 1.613 . S
S3740 N3742 1.610 . S
N3741 S3740 1.613 . S
N3741 C3744 1.350 . S
N3742 S3740 1.610 . S
N3742 C3743 1.351 . S
C3743 C3737 1.428 . S
C3743 N3742 1.351 . S
C3743 C3744 1.434 . S
C3744 C3735 1.429 . S
C3744 N3741 1.350 . S
C3744 C3743 1.434 . S
C3745 C3746 1.369 . S
C3745 C3747 1.419 . S
C3745 H3749 0.930 . S
C3746 C3745 1.369 . S
C3746 C3755 1.429 . S
C3747 C3745 1.419 . S
C3747 C3748 1.363 . S
C3747 H3750 0.929 . S
C3748 C3747 1.363 . S
C3748 C3754 1.428 . S
H3749 C3745 0.930 . S
H3750 C3747 0.929 . S
S3751 N3752 1.613 . S
S3751 N3753 1.610 . S
N3752 S3751 1.613 . S
N3752 C3755 1.350 . S
N3753 S3751 1.610 . S
N3753 C3754 1.351 . S
C3754 C3748 1.428 . S
C3754 N3753 1.351 . S
C3754 C3755 1.434 . S
C3755 C3746 1.429 . S
C3755 N3752 1.350 . S
C3755 C3754 1.434 . S
C3756 C3757 1.369 . S
C3756 C3758 1.419 . S
C3756 H3760 0.930 . S
C3757 C3756 1.369 . S
C3757 C3766 1.429 . S
C3758 C3756 1.419 . S
C3758 C3759 1.363 . S
C3758 H3761 0.929 . S
C3759 C3758 1.363 . S
C3759 C3765 1.428 . S
H3760 C3756 0.930 . S
H3761 C3758 0.929 . S
S3762 N3763 1.613 . S
S3762 N3764 1.610 . S
N3763 S3762 1.613 . S
N3763 C3766 1.350 . S
N3764 S3762 1.610 . S
N3764 C3765 1.351 . S
C3765 C3759 1.428 . S
C3765 N3764 1.351 . S
C3765 C3766 1.434 . S
C3766 C3757 1.429 . S
C3766 N3763 1.350 . S
C3766 C3765 1.434 . S
C3767 C3768 1.369 . S
C3767 C3769 1.419 . S
C3767 H3771 0.930 . S
C3768 C3767 1.369 . S
C3768 C3777 1.429 . S
C3769 C3767 1.419 . S
C3769 C3770 1.363 . S
C3769 H3772 0.929 . S
C3770 C3769 1.363 . S
C3770 C3776 1.428 . S
H3771 C3767 0.930 . S
H3772 C3769 0.929 . S
S3773 N3774 1.613 . S
S3773 N3775 1.610 . S
N3774 S3773 1.613 . S
N3774 C3777 1.350 . S
N3775 S3773 1.610 . S
N3775 C3776 1.351 . S
C3776 C3770 1.428 . S
C3776 N3775 1.351 . S
C3776 C3777 1.434 . S
C3777 C3768 1.429 . S
C3777 N3774 1.350 . S
C3777 C3776 1.434 . S
C3778 C3779 1.369 . S
C3778 C3780 1.419 . S
C3778 H3782 0.930 . S
C3779 C3778 1.369 . S
C3779 C3788 1.429 . S
C3780 C3778 1.419 . S
C3780 C3781 1.363 . S
C3780 H3783 0.929 . S
C3781 C3780 1.363 . S
C3781 C3787 1.428 . S
H3782 C3778 0.930 . S
H3783 C3780 0.929 . S
S3784 N3785 1.613 . S
S3784 N3786 1.610 . S
N3785 S3784 1.613 . S
N3785 C3788 1.350 . S
N3786 S3784 1.610 . S
N3786 C3787 1.351 . S
C3787 C3781 1.428 . S
C3787 N3786 1.351 . S
C3787 C3788 1.434 . S
C3788 C3779 1.429 . S
C3788 N3785 1.350 . S
C3788 C3787 1.434 . S
C3789 C3790 1.369 . S
C3789 C3791 1.419 . S
C3789 H3793 0.930 . S
C3790 C3789 1.369 . S
C3790 C3799 1.429 . S
C3791 C3789 1.419 . S
C3791 C3792 1.363 . S
C3791 H3794 0.929 . S
C3792 C3791 1.363 . S
C3792 C3798 1.428 . S
H3793 C3789 0.930 . S
H3794 C3791 0.929 . S
S3795 N3796 1.613 . S
S3795 N3797 1.610 . S
N3796 S3795 1.613 . S
N3796 C3799 1.350 . S
N3797 S3795 1.610 . S
N3797 C3798 1.351 . S
C3798 C3792 1.428 . S
C3798 N3797 1.351 . S
C3798 C3799 1.434 . S
C3799 C3790 1.429 . S
C3799 N3796 1.350 . S
C3799 C3798 1.434 . S
C3800 C3801 1.369 . S
C3800 C3802 1.419 . S
C3800 H3804 0.930 . S
C3801 C3800 1.369 . S
C3801 C3810 1.429 . S
C3802 C3800 1.419 . S
C3802 C3803 1.363 . S
C3802 H3805 0.929 . S
C3803 C3802 1.363 . S
C3803 C3809 1.428 . S
H3804 C3800 0.930 . S
H3805 C3802 0.929 . S
S3806 N3807 1.613 . S
S3806 N3808 1.610 . S
N3807 S3806 1.613 . S
N3807 C3810 1.350 . S
N3808 S3806 1.610 . S
N3808 C3809 1.351 . S
C3809 C3803 1.428 . S
C3809 N3808 1.351 . S
C3809 C3810 1.434 . S
C3810 C3801 1.429 . S
C3810 N3807 1.350 . S
C3810 C3809 1.434 . S
C3811 C3812 1.369 . S
C3811 C3813 1.419 . S
C3811 H3815 0.930 . S
C3812 C3811 1.369 . S
C3812 C3821 1.429 . S
C3813 C3811 1.419 . S
C3813 C3814 1.363 . S
C3813 H3816 0.929 . S
C3814 C3813 1.363 . S
C3814 C3820 1.428 . S
H3815 C3811 0.930 . S
H3816 C3813 0.929 . S
S3817 N3818 1.613 . S
S3817 N3819 1.610 . S
N3818 S3817 1.613 . S
N3818 C3821 1.350 . S
N3819 S3817 1.610 . S
N3819 C3820 1.351 . S
C3820 C3814 1.428 . S
C3820 N3819 1.351 . S
C3820 C3821 1.434 . S
C3821 C3812 1.429 . S
C3821 N3818 1.350 . S
C3821 C3820 1.434 . S
C3822 C3823 1.369 . S
C3822 C3824 1.419 . S
C3822 H3826 0.930 . S
C3823 C3822 1.369 . S
C3823 C3832 1.429 . S
C3824 C3822 1.419 . S
C3824 C3825 1.363 . S
C3824 H3827 0.929 . S
C3825 C3824 1.363 . S
C3825 C3831 1.428 . S
H3826 C3822 0.930 . S
H3827 C3824 0.929 . S
S3828 N3829 1.613 . S
S3828 N3830 1.610 . S
N3829 S3828 1.613 . S
N3829 C3832 1.350 . S
N3830 S3828 1.610 . S
N3830 C3831 1.351 . S
C3831 C3825 1.428 . S
C3831 N3830 1.351 . S
C3831 C3832 1.434 . S
C3832 C3823 1.429 . S
C3832 N3829 1.350 . S
C3832 C3831 1.434 . S
C3833 C3834 1.369 . S
C3833 C3835 1.419 . S
C3833 H3837 0.930 . S
C3834 C3833 1.369 . S
C3834 C3843 1.429 . S
C3835 C3833 1.419 . S
C3835 C3836 1.363 . S
C3835 H3838 0.929 . S
C3836 C3835 1.363 . S
C3836 C3842 1.428 . S
H3837 C3833 0.930 . S
H3838 C3835 0.929 . S
S3839 N3840 1.613 . S
S3839 N3841 1.610 . S
N3840 S3839 1.613 . S
N3840 C3843 1.350 . S
N3841 S3839 1.610 . S
N3841 C3842 1.351 . S
C3842 C3836 1.428 . S
C3842 N3841 1.351 . S
C3842 C3843 1.434 . S
C3843 C3834 1.429 . S
C3843 N3840 1.350 . S
C3843 C3842 1.434 . S
C3844 C3845 1.369 . S
C3844 C3846 1.419 . S
C3844 H3848 0.930 . S
C3845 C3844 1.369 . S
C3845 C3854 1.429 . S
C3846 C3844 1.419 . S
C3846 C3847 1.363 . S
C3846 H3849 0.929 . S
C3847 C3846 1.363 . S
C3847 C3853 1.428 . S
H3848 C3844 0.930 . S
H3849 C3846 0.929 . S
S3850 N3851 1.613 . S
S3850 N3852 1.610 . S
N3851 S3850 1.613 . S
N3851 C3854 1.350 . S
N3852 S3850 1.610 . S
N3852 C3853 1.351 . S
C3853 C3847 1.428 . S
C3853 N3852 1.351 . S
C3853 C3854 1.434 . S
C3854 C3845 1.429 . S
C3854 N3851 1.350 . S
C3854 C3853 1.434 . S
C3855 C3856 1.369 . S
C3855 C3857 1.419 . S
C3855 H3859 0.930 . S
C3856 C3855 1.369 . S
C3856 C3865 1.429 . S
C3857 C3855 1.419 . S
C3857 C3858 1.363 . S
C3857 H3860 0.929 . S
C3858 C3857 1.363 . S
C3858 C3864 1.428 . S
H3859 C3855 0.930 . S
H3860 C3857 0.929 . S
S3861 N3862 1.613 . S
S3861 N3863 1.610 . S
N3862 S3861 1.613 . S
N3862 C3865 1.350 . S
N3863 S3861 1.610 . S
N3863 C3864 1.351 . S
C3864 C3858 1.428 . S
C3864 N3863 1.351 . S
C3864 C3865 1.434 . S
C3865 C3856 1.429 . S
C3865 N3862 1.350 . S
C3865 C3864 1.434 . S
C3866 C3867 1.369 . S
C3866 C3868 1.419 . S
C3866 H3870 0.930 . S
C3867 C3866 1.369 . S
C3867 C3876 1.429 . S
C3868 C3866 1.419 . S
C3868 C3869 1.363 . S
C3868 H3871 0.929 . S
C3869 C3868 1.363 . S
C3869 C3875 1.428 . S
H3870 C3866 0.930 . S
H3871 C3868 0.929 . S
S3872 N3873 1.613 . S
S3872 N3874 1.610 . S
N3873 S3872 1.613 . S
N3873 C3876 1.350 . S
N3874 S3872 1.610 . S
N3874 C3875 1.351 . S
C3875 C3869 1.428 . S
C3875 N3874 1.351 . S
C3875 C3876 1.434 . S
C3876 C3867 1.429 . S
C3876 N3873 1.350 . S
C3876 C3875 1.434 . S
C3877 C3878 1.369 . S
C3877 C3879 1.419 . S
C3877 H3881 0.930 . S
C3878 C3877 1.369 . S
C3878 C3887 1.429 . S
C3879 C3877 1.419 . S
C3879 C3880 1.363 . S
C3879 H3882 0.929 . S
C3880 C3879 1.363 . S
C3880 C3886 1.428 . S
H3881 C3877 0.930 . S
H3882 C3879 0.929 . S
S3883 N3884 1.613 . S
S3883 N3885 1.610 . S
N3884 S3883 1.613 . S
N3884 C3887 1.350 . S
N3885 S3883 1.610 . S
N3885 C3886 1.351 . S
C3886 C3880 1.428 . S
C3886 N3885 1.351 . S
C3886 C3887 1.434 . S
C3887 C3878 1.429 . S
C3887 N3884 1.350 . S
C3887 C3886 1.434 . S
C2833 C536 1.763 . S
C2835 C5 1.755 . S
C2844 C595 1.762 . S
C2846 C64 1.756 . S
C2855 C654 1.763 . S
C2857 C123 1.755 . S
C2866 C477 1.755 . S
C2868 C182 1.762 . S
C2877 C241 1.754 . S
C2879 C890 1.762 . S
C2888 C300 1.761 . S
C2890 C713 1.758 . S
C2899 C359 1.756 . S
C2901 C772 1.761 . S
C2910 C831 1.755 . S
C2912 C418 1.762 . S
C2921 C949 1.754 . S
C2923 C1067 1.761 . S
C2932 C1008 1.760 . S
C2934 C2719 1.758 . S
C2943 C1126 1.754 . S
C2945 C2778 1.761 . S
C2954 C1185 1.758 . S
C2956 C2660 1.758 . S
C2965 C1244 1.763 . S
C2967 C2601 1.755 . S
C2976 C2424 1.757 . S
C2978 C1303 1.760 . S
C2987 C1362 1.762 . S
C2989 C2542 1.757 . S
C2998 C1952 1.757 . S
C3000 C1421 1.760 . S
C3009 C2011 1.760 . S
C3011 C1480 1.758 . S
C3020 C2070 1.758 . S
C3022 C1539 1.760 . S
C3031 C1893 1.757 . S
C3033 C1598 1.758 . S
C3042 C2306 1.758 . S
C3044 C1657 1.758 . S
C3053 C2129 1.756 . S
C3055 C1716 1.761 . S
C3064 C1775 1.760 . S
C3066 C2188 1.756 . S
C3075 C1834 1.762 . S
C3077 C2247 1.757 . S
C3086 C2365 1.757 . S
C3088 C2483 1.760 . S
C3097 C977 1.344 . S
C3099 C52 1.295 . S
C3108 C2806 1.337 . S
C3110 C111 1.305 . S
C3119 C170 1.307 . S
C3121 C1272 1.338 . S
C3130 C2747 1.337 . S
C3132 C229 1.305 . S
C3141 C288 1.293 . S
C3143 C2452 1.343 . S
C3152 C2511 1.344 . S
C3154 C347 1.300 . S
C3163 C406 1.295 . S
C3165 C2570 1.341 . S
C3174 C1213 1.345 . S
C3176 C465 1.295 . S
C3185 C524 1.306 . S
C3187 C33 1.339 . S
C3196 C92 1.343 . S
C3198 C583 1.301 . S
C3207 C642 1.299 . S
C3209 C151 1.338 . S
C3218 C210 1.346 . S
C3220 C701 1.296 . S
C3229 C760 1.296 . S
C3231 C269 1.345 . S
C3240 C328 1.344 . S
C3242 C819 1.299 . S
C3251 C878 1.305 . S
C3253 C387 1.337 . S
C3262 C937 1.293 . S
C3264 C446 1.344 . S
C3273 C996 1.298 . S
C3275 C505 1.339 . S
C3284 C1055 1.302 . S
C3286 C2157 1.337 . S
C3295 C2216 1.342 . S
C3297 C1114 1.302 . S
C3306 C2275 1.345 . S
C3308 C1173 1.295 . S
C3317 C918 1.343 . S
C3319 C1232 1.301 . S
C3328 C1291 1.294 . S
C3330 C623 1.342 . S
C3339 C2098 1.346 . S
C3341 C1350 1.296 . S
C3350 C1409 1.298 . S
C3352 C1980 1.339 . S
C3361 C1468 1.300 . S
C3363 C2393 1.338 . S
C3372 C1527 1.293 . S
C3374 C1390 1.344 . S
C3383 C1586 1.301 . S
C3385 C2688 1.338 . S
C3394 C1645 1.304 . S
C3396 C1331 1.341 . S
C3405 C1704 1.305 . S
C3407 C1036 1.337 . S
C3416 C1763 1.293 . S
C3418 C1095 1.344 . S
C3427 C1154 1.344 . S
C3429 C1822 1.299 . S
C3438 C2629 1.338 . S
C3440 C1881 1.298 . S
C3449 C1449 1.339 . S
C3451 C1940 1.298 . S
C3460 C1508 1.339 . S
C3462 C1999 1.298 . S
C3471 C2058 1.295 . S
C3473 C1567 1.345 . S
C3482 C1626 1.340 . S
C3484 C2117 1.304 . S
C3493 C2176 1.295 . S
C3495 C1685 1.342 . S
C3504 C2235 1.293 . S
C3506 C1744 1.343 . S
C3515 C2294 1.305 . S
C3517 C1803 1.337 . S
C3526 C1862 1.343 . S
C3528 C2353 1.301 . S
C3537 C2412 1.298 . S
C3539 C1921 1.344 . S
C3548 C2471 1.306 . S
C3550 C741 1.338 . S
C3559 C800 1.339 . S
C3561 C2530 1.297 . S
C3570 C2589 1.304 . S
C3572 C859 1.341 . S
C3581 C2648 1.306 . S
C3583 C2334 1.339 . S
C3592 C2039 1.344 . S
C3594 C2707 1.300 . S
C3603 C682 1.344 . S
C3605 C2766 1.295 . S
C3614 C564 1.345 . S
C3616 C2825 1.295 . S
C3625 C1301 1.429 . S
C3627 C3 1.432 . S
C3636 C62 1.434 . S
C3638 C2363 1.433 . S
C3647 C121 1.435 . S
C3649 C1360 1.433 . S
C3658 C2658 1.436 . S
C3660 C180 1.431 . S
C3669 C239 1.430 . S
C3671 C1065 1.435 . S
C3680 C1124 1.435 . S
C3682 C298 1.429 . S
C3691 C2599 1.429 . S
C3693 C357 1.435 . S
C3702 C416 1.428 . S
C3704 C1006 1.435 . S
C3713 C770 1.436 . S
C3715 C475 1.431 . S
C3724 C534 1.429 . S
C3726 C829 1.432 . S
C3735 C888 1.432 . S
C3737 C593 1.430 . S
C3746 C652 1.430 . S
C3748 C711 1.431 . S
C3757 C1478 1.434 . S
C3759 C947 1.429 . S
C3768 C1183 1.428 . S
C3770 C1773 1.434 . S
C3779 C1242 1.436 . S
C3781 C1596 1.432 . S
C3790 C2717 1.434 . S
C3792 C1419 1.429 . S
C3801 C1537 1.432 . S
C3803 C2776 1.430 . S
C3812 C1655 1.435 . S
C3814 C2481 1.432 . S
C3823 C1714 1.431 . S
C3825 C2540 1.430 . S
C3834 C2422 1.433 . S
C3836 C1832 1.429 . S
C3845 C2186 1.436 . S
C3847 C1891 1.429 . S
C3856 C1950 1.432 . S
C3858 C2245 1.430 . S
C3867 C2009 1.430 . S
C3869 C2304 1.435 . S
C3878 C2127 1.435 . S
C3880 C2068 1.432 . S
