# Generated by pormake.
# Topology tfs, (6)-cn, num edge types: 1
# Building blocks:
#     Node 0, Type 0, BuildingBlock: MIDCAF_clean_sbu_0, # of connection points: 6
#     Node 1, Type 0, BuildingBlock: MIDCAF_clean_sbu_0, # of connection points: 6
#     Node 2, Type 0, BuildingBlock: MIDCAF_clean_sbu_0, # of connection points: 6
#     Node 3, Type 0, BuildingBlock: MIDCAF_clean_sbu_0, # of connection points: 6
#     Node 4, Type 0, BuildingBlock: MIDCAF_clean_sbu_0, # of connection points: 6
#     Node 5, Type 0, BuildingBlock: MIDCAF_clean_sbu_0, # of connection points: 6
#     Edge 6, Type (0, 0), BuildingBlock: KIFKEQ_clean_linker_1, # of connection points: 2
#     Edge 7, Type (0, 0), BuildingBlock: KIFKEQ_clean_linker_1, # of connection points: 2
#     Edge 8, Type (0, 0), BuildingBlock: KIFKEQ_clean_linker_1, # of connection points: 2
#     Edge 9, Type (0, 0), BuildingBlock: KIFKEQ_clean_linker_1, # of connection points: 2
#     Edge 10, Type (0, 0), BuildingBlock: KIFKEQ_clean_linker_1, # of connection points: 2
#     Edge 11, Type (0, 0), BuildingBlock: KIFKEQ_clean_linker_1, # of connection points: 2
#     Edge 12, Type (0, 0), BuildingBlock: KIFKEQ_clean_linker_1, # of connection points: 2
#     Edge 13, Type (0, 0), BuildingBlock: KIFKEQ_clean_linker_1, # of connection points: 2
#     Edge 14, Type (0, 0), BuildingBlock: KIFKEQ_clean_linker_1, # of connection points: 2
#     Edge 15, Type (0, 0), BuildingBlock: KIFKEQ_clean_linker_1, # of connection points: 2
#     Edge 16, Type (0, 0), BuildingBlock: KIFKEQ_clean_linker_1, # of connection points: 2
#     Edge 17, Type (0, 0), BuildingBlock: KIFKEQ_clean_linker_1, # of connection points: 2
#     Edge 18, Type (0, 0), BuildingBlock: KIFKEQ_clean_linker_1, # of connection points: 2
#     Edge 19, Type (0, 0), BuildingBlock: KIFKEQ_clean_linker_1, # of connection points: 2
#     Edge 20, Type (0, 0), BuildingBlock: KIFKEQ_clean_linker_1, # of connection points: 2
#     Edge 21, Type (0, 0), BuildingBlock: KIFKEQ_clean_linker_1, # of connection points: 2
#     Edge 22, Type (0, 0), BuildingBlock: KIFKEQ_clean_linker_1, # of connection points: 2
#     Edge 23, Type (0, 0), BuildingBlock: KIFKEQ_clean_linker_1, # of connection points: 2
# Relax obj value: 0.134
# Max RMSD: 0.124
# Mean RMSD: 0.124
data_MOF--net-tfs--node1-MIDCAF_clean_sbu_0--edge1-KIFKEQ_clean_linker_1
_symmetry_space_group_name_H-M    P1
_symmetry_Int_Tables_number       1
_symmetry_cell_setting            triclinic
loop_
_symmetry_equiv_pos_as_xyz
'x, y, z'
_cell_length_a     42.501248
_cell_length_b     42.666842
_cell_length_c     15.334558
_cell_angle_alpha  89.765565
_cell_angle_beta   90.123012
_cell_angle_gamma 119.80182
loop_
_atom_site_label
_atom_site_type_symbol
_atom_site_fract_x
_atom_site_fract_y
_atom_site_fract_z
_atom_type_partial_charge
Zn0 Zn 0.16012 0.41882 0.98486 0.0
Zn1 Zn 0.26001 0.42071 0.14319 0.0
Zn2 Zn 0.20612 0.41157 0.06239 0.0
C3 C 0.2552 0.37765 1.00577 0.0
C4 C 0.20168 0.37834 0.25196 0.0
O5 O 0.22042 0.47009 0.03925 0.0
O6 O 0.17978 0.46889 0.94755 0.0
C7 C 0.17399 0.37378 0.88041 0.0
O8 O 0.22524 0.37788 0.99466 0.0
O9 O 0.27815 0.39881 0.06008 0.0
O10 O 0.23525 0.39022 0.24409 0.0
O11 O 0.18435 0.38451 0.19134 0.0
O12 O 0.15103 0.38393 0.89134 0.0
O13 O 0.1995 0.38249 0.93697 0.0
O14 O 0.15405 0.38029 0.13507 0.0
O15 O 0.12261 0.40294 0.07476 0.0
C16 C 0.12448 0.38161 0.1287 0.0
O17 O 0.25092 0.46999 0.07464 0.0
O18 O 0.2922 0.472 0.16572 0.0
C19 C 0.20779 0.48684 0.99292 0.0
C20 C 0.2813 0.4882 0.11613 0.0
Zn21 Zn 0.7449 0.17176 0.89243 0.0
Zn22 Zn 0.86289 0.2816 0.16621 0.0
Zn23 Zn 0.79463 0.20611 0.98842 0.0
C24 C 0.8695 0.25047 0.98646 0.0
C25 C 0.81588 0.19881 0.15687 0.0
O26 O 0.757 0.22856 0.99041 0.0
O27 O 0.71707 0.19671 0.88908 0.0
C28 C 0.80604 0.19169 0.79097 0.0
O29 O 0.84907 0.22803 0.92898 0.0
O30 O 0.85327 0.25456 0.05053 0.0
O31 O 0.83109 0.23044 0.12651 0.0
O32 O 0.79398 0.17448 0.10483 0.0
O33 O 0.77195 0.17322 0.78788 0.0
O34 O 0.82192 0.20849 0.86151 0.0
O35 O 0.76979 0.15001 0.04058 0.0
O36 O 0.72223 0.12528 0.95336 0.0
C37 C 0.74055 0.12213 0.01394 0.0
O38 O 0.79202 0.25686 0.03474 0.0
O39 O 0.82834 0.29931 0.13437 0.0
C40 C 0.72808 0.22086 0.94663 0.0
C41 C 0.80209 0.28648 0.07942 0.0
Zn42 Zn 0.57524 0.82971 0.06915 0.0
Zn43 Zn 0.56933 0.74091 0.87862 0.0
Zn44 Zn 0.58123 0.78598 0.97649 0.0
C45 C 0.63144 0.75522 0.96881 0.0
C46 C 0.58751 0.79459 0.77264 0.0
O47 O 0.52285 0.77112 1.00296 0.0
O48 O 0.5239 0.81119 0.09539 0.0
C49 C 0.61946 0.80854 0.15974 0.0
O50 O 0.6164 0.76564 0.02576 0.0
O51 O 0.61855 0.74742 0.89277 0.0
O52 O 0.56098 0.76288 0.77454 0.0
O53 O 0.60359 0.80945 0.84472 0.0
O54 O 0.60706 0.82993 0.16249 0.0
O55 O 0.61224 0.78722 0.09424 0.0
O56 O 0.61205 0.83892 0.90891 0.0
O57 O 0.59733 0.87162 0.99248 0.0
C58 C 0.61435 0.86932 0.928 0.0
O59 O 0.52328 0.74047 0.97633 0.0
O60 O 0.52754 0.69551 0.91848 0.0
C61 C 0.506 0.78375 0.04853 0.0
C62 C 0.50891 0.70657 0.95768 0.0
Zn63 Zn 0.74491 0.57813 0.07953 0.0
Zn64 Zn 0.84565 0.57692 0.9295 0.0
Zn65 Zn 0.79808 0.58438 0.99964 0.0
C66 C 0.88118 0.62058 0.06376 0.0
C67 C 0.83 0.61804 0.81344 0.0
O68 O 0.75384 0.52615 0.02084 0.0
O69 O 0.71296 0.5273 0.10739 0.0
C70 C 0.80332 0.62131 0.18504 0.0
O71 O 0.85045 0.61969 0.06784 0.0
O72 O 0.88413 0.59794 0.01717 0.0
O73 O 0.85284 0.60791 0.82739 0.0
O74 O 0.80474 0.61069 0.86976 0.0
O75 O 0.76989 0.61024 0.17754 0.0
O76 O 0.81987 0.61376 0.12546 0.0
O77 O 0.77783 0.61435 0.92025 0.0
O78 O 0.72672 0.59789 0.9907 0.0
C79 C 0.74826 0.61538 0.92978 0.0
O80 O 0.78462 0.52596 0.98825 0.0
O81 O 0.82708 0.52595 0.90563 0.0
C82 C 0.72358 0.50946 0.06347 0.0
C83 C 0.79839 0.5087 0.94923 0.0
Zn84 Zn 0.16098 0.7376 0.07427 0.0
Zn85 Zn 0.26324 0.83464 0.91898 0.0
Zn86 Zn 0.20842 0.79082 0.99844 0.0
C87 C 0.2597 0.87293 0.05739 0.0
C88 C 0.20511 0.82103 0.81031 0.0
O89 O 0.22054 0.74474 0.01837 0.0
O90 O 0.17831 0.70438 0.10505 0.0
C91 C 0.17812 0.79687 0.18228 0.0
O92 O 0.22935 0.84338 0.0678 0.0
O93 O 0.28246 0.87418 1.00295 0.0
O94 O 0.23882 0.84162 0.81845 0.0
O95 O 0.18724 0.79774 0.87053 0.0
O96 O 0.15494 0.76401 0.1717 0.0
O97 O 0.20315 0.81342 0.12469 0.0
O98 O 0.15637 0.7736 0.92811 0.0
O99 O 0.12257 0.71977 0.98645 0.0
C100 C 0.12564 0.7442 0.93494 0.0
O101 O 0.2514 0.77439 0.98326 0.0
O102 O 0.294 0.81369 0.89536 0.0
C103 C 0.2067 0.71448 0.06102 0.0
C104 C 0.28178 0.78576 0.94211 0.0
Zn105 Zn 0.42671 0.26042 0.94701 0.0
Zn106 Zn 0.43114 0.1627 0.10383 0.0
Zn107 Zn 0.42047 0.20736 0.02674 0.0
C108 C 0.38811 0.12475 0.96732 0.0
C109 C 0.3873 0.17717 0.2138 0.0
O110 O 0.4786 0.25323 0.01007 0.0
O111 O 0.47761 0.29441 0.92407 0.0
C112 C 0.38543 0.20135 0.83945 0.0
O113 O 0.38809 0.15477 0.9573 0.0
O114 O 0.40952 0.12286 0.02113 0.0
O115 O 0.40057 0.15669 0.20523 0.0
O116 O 0.39244 0.20054 0.15391 0.0
O117 O 0.39656 0.23466 0.84655 0.0
O118 O 0.39242 0.18467 0.90009 0.0
O119 O 0.38629 0.22529 0.09815 0.0
O120 O 0.40343 0.27689 0.02982 0.0
C121 C 0.38402 0.25406 0.08662 0.0
O122 O 0.48012 0.22304 0.04169 0.0
O123 O 0.4827 0.18222 0.1257 0.0
C124 C 0.49536 0.28399 0.9696 0.0
C125 C 0.49881 0.21066 0.08091 0.0
H126 H 0.31305 0.20808 0.05291 0.0
H127 H 0.38597 0.30985 0.17388 0.0
H128 H 0.27171 0.23069 0.01561 0.0
H129 H 0.34491 0.33233 0.13702 0.0
H130 H 0.31308 0.38127 0.92383 0.0
H131 H 0.33669 0.34137 0.96236 0.0
H132 H 0.23427 0.26639 0.08004 0.0
H133 H 0.2105 0.30659 0.04116 0.0
C134 C 0.31904 0.23432 0.077 0.0
C135 C 0.35282 0.25728 0.11618 0.0
C136 C 0.29571 0.2475 0.0539 0.0
C137 C 0.30587 0.28364 0.07066 0.0
C138 C 0.3369 0.30459 0.12153 0.0
C139 C 0.36002 0.29144 0.1446 0.0
C140 C 0.29483 0.35524 0.95289 0.0
C141 C 0.26 0.34712 0.97951 0.0
C142 C 0.3086 0.33277 0.97685 0.0
C143 C 0.28766 0.30152 0.02698 0.0
C144 C 0.25107 0.29058 0.04238 0.0
C145 C 0.23725 0.31326 0.01841 0.0
H146 H 0.09605 0.31236 0.07939 0.0
H147 H 0.07243 0.38409 0.22598 0.0
H148 H 0.03242 0.27621 0.03961 0.0
H149 H 0.0083 0.34678 0.1915 0.0
H150 H 0.91885 0.32077 1.00232 0.0
H151 H 0.98006 0.34567 0.05918 0.0
H152 H 0.96871 0.23917 0.0559 0.0
H153 H 0.90768 0.21482 0.99448 0.0
C154 C 0.0768 0.31889 0.1085 0.0
C155 C 0.08922 0.35122 0.1552 0.0
C156 C 0.04023 0.29845 0.08431 0.0
C157 C 0.01537 0.30955 0.10862 0.0
C158 C 0.02696 0.33839 0.16793 0.0
C159 C 0.06359 0.35921 0.1903 0.0
C160 C 0.9301 0.30303 0.01044 0.0
C161 C 0.90904 0.26616 0.99179 0.0
C162 C 0.96482 0.31702 0.04553 0.0
C163 C 0.97912 0.29428 0.06529 0.0
C164 C 0.9587 0.25755 0.04198 0.0
C165 C 0.92395 0.24363 1.00545 0.0
H166 H 0.67676 0.06825 0.07321 0.0
H167 H 0.78316 0.09241 0.98855 0.0
H168 H 0.65248 0.00545 0.03076 0.0
H169 H 0.75873 0.02935 0.94414 0.0
H170 H 0.6058 0.91985 0.84179 0.0
H171 H 0.64413 0.98369 0.87509 0.0
H172 H 0.72461 0.96165 0.98585 0.0
H173 H 0.68637 0.8977 0.95018 0.0
C174 C 0.6953 0.05963 0.04979 0.0
C175 C 0.73178 0.08505 0.03449 0.0
C176 C 0.68128 0.02394 0.02317 0.0
C177 C 0.70346 0.013 0.98041 0.0
C178 C 0.74093 0.03723 0.97553 0.0
C179 C 0.75504 0.07312 1.00267 0.0
C180 C 0.63273 0.92902 0.86769 0.0
C181 C 0.64303 0.9039 0.8939 0.0
C182 C 0.65427 0.9654 0.88916 0.0
C183 C 0.68648 0.97721 0.93699 0.0
C184 C 0.69959 0.95316 0.95041 0.0
C185 C 0.67802 0.91664 0.92823 0.0
H186 H 0.7948 0.6876 0.92988 0.0
H187 H 0.68729 0.60629 0.85222 0.0
H188 H 0.77321 0.73076 0.9508 0.0
H189 H 0.66576 0.64906 0.87357 0.0
H190 H 0.62818 0.70123 0.06789 0.0
H191 H 0.66418 0.67213 0.03796 0.0
H192 H 0.7355 0.76165 0.87321 0.0
H193 H 0.69908 0.79048 0.90234 0.0
C194 C 0.76717 0.67966 0.91178 0.0
C195 C 0.74259 0.64355 0.89002 0.0
C196 C 0.75467 0.70412 0.92571 0.0
C197 C 0.71758 0.69257 0.91735 0.0
C198 C 0.69431 0.65819 0.88293 0.0
C199 C 0.70681 0.63399 0.86854 0.0
C200 C 0.65273 0.71562 0.02952 0.0
C201 C 0.66117 0.74822 0.98832 0.0
C202 C 0.67287 0.69868 0.01079 0.0
C203 C 0.70196 0.71434 0.95142 0.0
C204 C 0.71308 0.74899 0.91864 0.0
C205 C 0.69259 0.76569 0.93647 0.0
H206 H 0.0682 0.69004 0.85201 0.0
H207 H 0.10447 0.79226 0.97926 0.0
H208 H 0.00638 0.66985 0.90028 0.0
H209 H 0.04235 0.77181 0.0284 0.0
H210 H 0.90056 0.68867 0.01265 0.0
H211 H 0.9621 0.73075 0.96128 0.0
H212 H 1.00151 0.66781 0.09404 0.0
H213 H 0.94027 0.62578 0.14464 0.0
C214 C 0.06256 0.70911 0.88507 0.0
C215 C 0.0912 0.74259 0.91223 0.0
C216 C 0.0273 0.6973 0.91431 0.0
C217 C 0.02004 0.71897 0.9701 0.0
C218 C 0.04744 0.75458 0.98595 0.0
C219 C 0.08287 0.76649 0.95626 0.0
C220 C 0.92276 0.68524 0.03593 0.0
C221 C 0.91561 0.65379 0.08231 0.0
C222 C 0.95786 0.709 1.00502 0.0
C223 C 0.98609 0.70176 0.02177 0.0
C224 C 0.97992 0.67356 0.07928 0.0
C225 C 0.94501 0.64989 0.10977 0.0
H226 H 0.31834 0.92656 0.13742 0.0
H227 H 0.21526 0.90019 0.02386 0.0
H228 H 0.34224 0.98977 0.09786 0.0
H229 H 0.23931 0.96382 0.98381 0.0
H230 H 0.3169 0.09928 1.00197 0.0
H231 H 0.27625 0.03591 0.04216 0.0
H232 H 0.35078 0.00719 0.92635 0.0
H233 H 0.39115 0.07014 0.88664 0.0
C234 C 0.30009 0.93465 0.10895 0.0
C235 C 0.26501 0.90841 0.0836 0.0
C236 C 0.31401 0.9707 0.08434 0.0
C237 C 0.29298 0.9813 0.0348 0.0
C238 C 0.25621 0.95621 0.0209 0.0
C239 C 0.24223 0.9199 0.04556 0.0
C240 C 0.32338 0.07905 0.97994 0.0
C241 C 0.35729 0.08966 0.94134 0.0
C242 C 0.30044 0.04288 1.00467 0.0
C243 C 0.31115 0.01705 0.9903 0.0
C244 C 0.34238 0.02683 0.94024 0.0
C245 C 0.36511 0.06275 0.91555 0.0
H246 H 0.2059 0.66886 0.18556 0.0
H247 H 0.23873 0.70257 0.91984 0.0
H248 H 0.2181 0.61945 0.16743 0.0
H249 H 0.25353 0.65447 0.90277 0.0
H250 H 0.20636 0.53092 0.86704 0.0
H251 H 0.21767 0.5921 0.88412 0.0
H252 H 0.25536 0.59414 0.14739 0.0
H253 H 0.24151 0.53164 0.13151 0.0
C254 C 0.21692 0.66636 0.124 0.0
C255 C 0.22151 0.68968 0.05427 0.0
C256 C 0.22434 0.63817 0.11373 0.0
C257 C 0.23663 0.63256 0.03329 0.0
C258 C 0.24353 0.65748 0.96523 0.0
C259 C 0.23559 0.68545 0.97528 0.0
C260 C 0.21774 0.5447 0.92802 0.0
C261 C 0.22301 0.52643 0.99792 0.0
C262 C 0.22462 0.58008 0.93768 0.0
C263 C 0.2371 0.59824 0.01761 0.0
C264 C 0.24509 0.58085 0.08541 0.0
C265 C 0.23771 0.54517 0.07598 0.0
H266 H 0.54702 0.20842 0.19343 0.0
H267 H 0.53974 0.24768 0.9389 0.0
H268 H 0.60881 0.22338 0.16371 0.0
H269 H 0.60317 0.2669 0.91229 0.0
H270 H 0.68375 0.22973 0.83527 0.0
H271 H 0.63375 0.23877 0.87183 0.0
H272 H 0.66956 0.25797 0.14074 0.0
H273 H 0.71799 0.24529 0.10422 0.0
C274 C 0.55917 0.22158 0.13217 0.0
C275 C 0.5385 0.2271 0.0688 0.0
C276 C 0.59503 0.23071 0.11533 0.0
C277 C 0.61147 0.24612 0.03484 0.0
C278 C 0.59147 0.2542 0.97415 0.0
C279 C 0.55517 0.24394 0.99004 0.0
C280 C 0.68132 0.23649 0.90203 0.0
C281 C 0.70464 0.23645 0.96695 0.0
C282 C 0.65266 0.24216 0.92319 0.0
C283 C 0.64671 0.24852 0.01 0.0
C284 C 0.67236 0.25203 0.0736 0.0
C285 C 0.70067 0.24546 0.05256 0.0
H286 H 0.46262 0.64826 0.86356 0.0
H287 H 0.46968 0.70551 0.10066 0.0
H288 H 0.40183 0.60145 0.90264 0.0
H289 H 0.40775 0.65918 0.13877 0.0
H290 H 0.33051 0.53838 0.22644 0.0
H291 H 0.38131 0.59712 0.18701 0.0
H292 H 0.3394 0.58414 0.92458 0.0
H293 H 0.2896 0.5245 0.96329 0.0
C294 C 0.45079 0.65113 0.92341 0.0
C295 C 0.47076 0.68054 0.97894 0.0
C296 C 0.4157 0.62454 0.94534 0.0
C297 C 0.3997 0.62658 0.0237 0.0
C298 C 0.41931 0.65672 0.07808 0.0
C299 C 0.45461 0.68341 0.05599 0.0
C300 C 0.33171 0.54852 0.16092 0.0
C301 C 0.3061 0.52688 0.09796 0.0
C302 C 0.3607 0.58234 0.1384 0.0
C303 C 0.36474 0.59518 0.05225 0.0
C304 C 0.3374 0.57477 0.99117 0.0
C305 C 0.30855 0.54079 0.01359 0.0
H306 H 0.80329 0.46284 0.83596 0.0
H307 H 0.76221 0.46656 0.09035 0.0
H308 H 0.79232 0.40263 0.86558 0.0
H309 H 0.74716 0.40437 0.11723 0.0
H310 H 0.79233 0.32962 0.19241 0.0
H311 H 0.77953 0.37743 0.15714 0.0
H312 H 0.76056 0.34223 0.88814 0.0
H313 H 0.77767 0.29704 0.92263 0.0
C314 C 0.79052 0.45012 0.89713 0.0
C315 C 0.78348 0.46942 0.96065 0.0
C316 C 0.7837 0.41516 0.91397 0.0
C317 C 0.76912 0.39824 0.99457 0.0
C318 C 0.75927 0.41662 0.05529 0.0
C319 C 0.76713 0.4521 0.03926 0.0
C320 C 0.78497 0.33186 0.12592 0.0
C321 C 0.78593 0.30948 0.06041 0.0
C322 C 0.77707 0.35911 0.10559 0.0
C323 C 0.76941 0.36442 0.01913 0.0
C324 C 0.76735 0.33987 0.95499 0.0
C325 C 0.77641 0.31332 0.97498 0.0
H326 H 0.29007 0.75545 0.09136 0.0
H327 H 0.32673 0.78077 0.82488 0.0
H328 H 0.33684 0.73948 0.12101 0.0
H329 H 0.37464 0.76693 0.85508 0.0
H330 H 0.46086 0.74306 0.91597 0.0
H331 H 0.39813 0.72839 0.89292 0.0
H332 H 0.40003 0.77798 0.13969 0.0
H333 H 0.46165 0.7909 0.16415 0.0
C334 C 0.30745 0.75656 0.03849 0.0
C335 C 0.30471 0.76918 0.95573 0.0
C336 C 0.33456 0.74785 0.05565 0.0
C337 C 0.35995 0.7524 0.99087 0.0
C338 C 0.35547 0.76266 0.90649 0.0
C339 C 0.32819 0.77098 0.88923 0.0
C340 C 0.44738 0.74967 0.96652 0.0
C341 C 0.4663 0.76845 0.04149 0.0
C342 C 0.41153 0.74156 0.953 0.0
C343 C 0.39409 0.75249 0.01371 0.0
C344 C 0.41225 0.76879 0.09168 0.0
C345 C 0.44788 0.77663 0.10537 0.0
H346 H 0.71405 0.4664 0.92256 0.0
H347 H 0.67593 0.46434 0.18419 0.0
H348 H 0.66524 0.40441 0.90066 0.0
H349 H 0.62598 0.40364 0.16111 0.0
H350 H 0.53714 0.29368 0.11414 0.0
H351 H 0.59973 0.34134 0.13782 0.0
H352 H 0.60303 0.38051 0.87546 0.0
H353 H 0.5417 0.33168 0.8508 0.0
C354 C 0.6958 0.45234 0.97613 0.0
C355 C 0.69888 0.47012 0.05519 0.0
C356 C 0.66748 0.41698 0.9633 0.0
C357 C 0.64115 0.39901 0.02855 0.0
C358 C 0.64576 0.41618 0.1095 0.0
C359 C 0.67428 0.45124 0.12259 0.0
C360 C 0.55183 0.31175 0.06076 0.0
C361 C 0.53468 0.30887 0.98049 0.0
C362 C 0.58756 0.33937 0.07453 0.0
C363 C 0.60652 0.36521 1.00897 0.0
C364 C 0.58976 0.36101 0.92727 0.0
C365 C 0.55432 0.33319 0.91329 0.0
H366 H 0.11479 0.33365 0.78042 0.0
H367 H 0.2308 0.37776 0.78583 0.0
H368 H 0.11409 0.32343 0.62415 0.0
H369 H 0.23009 0.36731 0.62877 0.0
H370 H 0.21978 0.33688 0.3495 0.0
H371 H 0.20868 0.32406 0.50471 0.0
H372 H 0.13702 0.36861 0.50259 0.0
H373 H 0.14828 0.38155 0.34622 0.0
C374 C 0.14007 0.34014 0.7486 0.0
C375 C 0.17298 0.35694 0.79532 0.0
C376 C 0.13962 0.33455 0.65885 0.0
C377 C 0.17204 0.34525 0.61364 0.0
C378 C 0.20456 0.35873 0.66174 0.0
C379 C 0.20504 0.36454 0.75193 0.0
C380 C 0.20077 0.34298 0.38161 0.0
C381 C 0.18518 0.36062 0.33595 0.0
C382 C 0.1947 0.33588 0.47074 0.0
C383 C 0.17265 0.346 0.51645 0.0
C384 C 0.15419 0.36044 0.46916 0.0
C385 C 0.1604 0.3677 0.37946 0.0
H386 H 0.80264 0.13566 0.70339 0.0
H387 H 0.84878 0.2512 0.69235 0.0
H388 H 0.81183 0.13419 0.54683 0.0
H389 H 0.85746 0.24998 0.53508 0.0
H390 H 0.87587 0.24048 0.25256 0.0
H391 H 0.88403 0.2381 0.40903 0.0
H392 H 0.77907 0.14152 0.42604 0.0
H393 H 0.77118 0.14382 0.26826 0.0
C394 C 0.8163 0.16097 0.66779 0.0
C395 C 0.82539 0.19361 0.70987 0.0
C396 C 0.82093 0.16006 0.57784 0.0
C397 C 0.83456 0.1918 0.52781 0.0
C398 C 0.84698 0.22497 0.57147 0.0
C399 C 0.84242 0.22585 0.66186 0.0
C400 C 0.85466 0.21847 0.28957 0.0
C401 C 0.82255 0.19264 0.24845 0.0
C402 C 0.85937 0.21718 0.37939 0.0
C403 C 0.83208 0.18999 0.43063 0.0
C404 C 0.80085 0.16276 0.38858 0.0
C405 C 0.79619 0.16401 0.29819 0.0
H406 H 0.54981 0.78894 0.62704 0.0
H407 H 0.65896 0.83003 0.72211 0.0
H408 H 0.57062 0.79102 0.47837 0.0
H409 H 0.68013 0.83275 0.57106 0.0
H410 H 0.67454 0.86237 0.24937 0.0
H411 H 0.67592 0.86405 0.40866 0.0
H412 H 0.59937 0.74981 0.41587 0.0
H413 H 0.59821 0.7481 0.25656 0.0
C414 C 0.57853 0.79967 0.61567 0.0
C415 C 0.60275 0.8093 0.68599 0.0
C416 C 0.59031 0.80021 0.53083 0.0
C417 C 0.62667 0.81071 0.51406 0.0
C418 C 0.65181 0.82388 0.58296 0.0
C419 C 0.63984 0.823 0.66887 0.0
C420 C 0.65996 0.83716 0.28508 0.0
C421 C 0.636 0.80513 0.24092 0.0
C422 C 0.6605 0.83825 0.37627 0.0
C423 C 0.63704 0.80729 0.42398 0.0
C424 C 0.61742 0.77414 0.38002 0.0
C425 C 0.61717 0.77301 0.28882 0.0
H426 H 0.77429 0.61671 0.71855 0.0
H427 H 0.88948 0.65579 0.71244 0.0
H428 H 0.77571 0.6295 0.56238 0.0
H429 H 0.89096 0.66866 0.55732 0.0
H430 H 0.85642 0.61638 0.27599 0.0
H431 H 0.86775 0.62696 0.43256 0.0
H432 H 0.79796 0.67363 0.44142 0.0
H433 H 0.7866 0.6629 0.28569 0.0
C434 C 0.80006 0.62918 0.68465 0.0
C435 C 0.83161 0.63472 0.72745 0.0
C436 C 0.80095 0.63644 0.59505 0.0
C437 C 0.83342 0.64946 0.547 0.0
C438 C 0.86543 0.65792 0.59186 0.0
C439 C 0.86455 0.65074 0.68094 0.0
C440 C 0.84476 0.63024 0.31073 0.0
C441 C 0.82033 0.63841 0.2689 0.0
C442 C 0.85102 0.63614 0.40064 0.0
C443 C 0.83302 0.6504 0.44987 0.0
C444 C 0.81153 0.66185 0.40591 0.0
C445 C 0.80534 0.65601 0.31648 0.0
H446 H 0.11912 0.77957 0.28163 0.0
H447 H 0.23539 0.84862 0.2767 0.0
H448 H 0.11839 0.79 0.43739 0.0
H449 H 0.23471 0.85916 0.43337 0.0
H450 H 0.15074 0.76567 0.71674 0.0
H451 H 0.1399 0.76735 0.5602 0.0
H452 H 0.21431 0.88233 0.55622 0.0
H453 H 0.22506 0.88058 0.7117 0.0
C454 C 0.14448 0.79789 0.31348 0.0
C455 C 0.17743 0.81296 0.26714 0.0
C456 C 0.14402 0.80357 0.40293 0.0
C457 C 0.17648 0.82473 0.44821 0.0
C458 C 0.20914 0.8427 0.40034 0.0
C459 C 0.20961 0.83688 0.31042 0.0
C460 C 0.16358 0.79144 0.68304 0.0
C461 C 0.18901 0.82286 0.72612 0.0
C462 C 0.1576 0.79247 0.59322 0.0
C463 C 0.17693 0.82494 0.54539 0.0
C464 C 0.19965 0.85683 0.59064 0.0
C465 C 0.20552 0.85581 0.67991 0.0
H466 H 0.3422 0.21718 0.7418 0.0
H467 H 0.39101 0.14942 0.74633 0.0
H468 H 0.33033 0.20626 0.58628 0.0
H469 H 0.37914 0.13842 0.58985 0.0
H470 H 0.34825 0.11726 0.31136 0.0
H471 H 0.33546 0.11494 0.46665 0.0
H472 H 0.37462 0.22973 0.4642 0.0
H473 H 0.38743 0.23197 0.30787 0.0
C474 C 0.34935 0.19895 0.7099 0.0
C475 C 0.36793 0.18444 0.75589 0.0
C476 C 0.34282 0.19301 0.62064 0.0
C477 C 0.35449 0.17219 0.57529 0.0
C478 C 0.36976 0.15462 0.62298 0.0
C479 C 0.37641 0.16068 0.71276 0.0
C480 C 0.35312 0.14186 0.34345 0.0
C481 C 0.36928 0.17494 0.29781 0.0
C482 C 0.34604 0.14051 0.43258 0.0
C483 C 0.35473 0.17219 0.47818 0.0
C484 C 0.36756 0.20475 0.43085 0.0
C485 C 0.37475 0.20612 0.34118 0.0
loop_
_geom_bond_atom_site_label_1
_geom_bond_atom_site_label_2
_geom_bond_distance
_geom_bond_site_symmetry_2
_ccdc_geom_bond_type
Zn0 O6 1.920 . S
Zn0 O12 1.898 . S
Zn0 O15 1.905 . S
Zn1 O9 1.905 . S
Zn1 O10 1.898 . S
Zn1 O18 1.920 . S
Zn2 O5 2.080 . S
Zn2 O8 2.114 . S
Zn2 O11 2.120 . S
Zn2 O13 2.120 1_554 S
Zn2 O14 2.114 1_554 S
Zn2 O17 2.080 1_554 S
C3 O8 1.166 . S
C3 O9 1.182 . S
C4 O10 1.167 . S
C4 O11 1.299 . S
O5 Zn2 2.080 . S
O5 C19 1.305 1_554 S
O6 Zn0 1.920 . S
O6 C19 1.234 . S
C7 O12 1.167 . S
C7 O13 1.299 . S
O8 Zn2 2.114 . S
O8 C3 1.166 . S
O9 Zn1 1.905 . S
O9 C3 1.182 . S
O10 Zn1 1.898 . S
O10 C4 1.167 . S
O11 Zn2 2.120 . S
O11 C4 1.299 . S
O12 Zn0 1.898 . S
O12 C7 1.167 . S
O13 Zn2 2.120 1_556 S
O13 C7 1.299 . S
O14 Zn2 2.114 1_556 S
O14 C16 1.166 . S
O15 Zn0 1.905 . S
O15 C16 1.182 . S
C16 O14 1.166 . S
C16 O15 1.182 . S
O17 Zn2 2.080 1_556 S
O17 C20 1.305 1_556 S
O18 Zn1 1.920 . S
O18 C20 1.234 . S
C19 O5 1.305 1_556 S
C19 O6 1.234 . S
C20 O17 1.305 1_554 S
C20 O18 1.234 . S
Zn21 O27 1.920 . S
Zn21 O33 1.898 . S
Zn21 O36 1.905 . S
Zn22 O30 1.905 . S
Zn22 O31 1.898 . S
Zn22 O39 1.920 . S
Zn23 O26 2.080 . S
Zn23 O29 2.114 . S
Zn23 O32 2.120 . S
Zn23 O34 2.120 1_554 S
Zn23 O35 2.114 1_554 S
Zn23 O38 2.080 1_554 S
C24 O29 1.166 . S
C24 O30 1.182 . S
C25 O31 1.167 . S
C25 O32 1.299 . S
O26 Zn23 2.080 . S
O26 C40 1.305 1_554 S
O27 Zn21 1.920 . S
O27 C40 1.234 . S
C28 O33 1.167 . S
C28 O34 1.299 . S
O29 Zn23 2.114 . S
O29 C24 1.166 . S
O30 Zn22 1.905 . S
O30 C24 1.182 . S
O31 Zn22 1.898 . S
O31 C25 1.167 . S
O32 Zn23 2.120 . S
O32 C25 1.299 . S
O33 Zn21 1.898 . S
O33 C28 1.167 . S
O34 Zn23 2.120 1_556 S
O34 C28 1.299 . S
O35 Zn23 2.114 1_556 S
O35 C37 1.166 . S
O36 Zn21 1.905 . S
O36 C37 1.182 . S
C37 O35 1.166 . S
C37 O36 1.182 . S
O38 Zn23 2.080 1_556 S
O38 C41 1.305 1_556 S
O39 Zn22 1.920 . S
O39 C41 1.234 . S
C40 O26 1.305 1_556 S
C40 O27 1.234 . S
C41 O38 1.305 1_554 S
C41 O39 1.234 . S
Zn42 O48 1.920 . S
Zn42 O54 1.898 . S
Zn42 O57 1.905 . S
Zn43 O51 1.905 . S
Zn43 O52 1.898 . S
Zn43 O60 1.920 . S
Zn44 O47 2.080 1_554 S
Zn44 O50 2.114 1_554 S
Zn44 O53 2.120 1_554 S
Zn44 O55 2.120 . S
Zn44 O56 2.114 . S
Zn44 O59 2.080 . S
C45 O50 1.166 . S
C45 O51 1.182 . S
C46 O52 1.167 . S
C46 O53 1.299 . S
O47 Zn44 2.080 1_556 S
O47 C61 1.305 1_556 S
O48 Zn42 1.920 . S
O48 C61 1.234 . S
C49 O54 1.167 . S
C49 O55 1.299 . S
O50 Zn44 2.114 1_556 S
O50 C45 1.166 . S
O51 Zn43 1.905 . S
O51 C45 1.182 . S
O52 Zn43 1.898 . S
O52 C46 1.167 . S
O53 Zn44 2.120 1_556 S
O53 C46 1.299 . S
O54 Zn42 1.898 . S
O54 C49 1.167 . S
O55 Zn44 2.120 . S
O55 C49 1.299 . S
O56 Zn44 2.114 . S
O56 C58 1.166 . S
O57 Zn42 1.905 . S
O57 C58 1.182 . S
C58 O56 1.166 . S
C58 O57 1.182 . S
O59 Zn44 2.080 . S
O59 C62 1.305 1_554 S
O60 Zn43 1.920 . S
O60 C62 1.234 . S
C61 O47 1.305 1_554 S
C61 O48 1.234 . S
C62 O59 1.305 1_556 S
C62 O60 1.234 . S
Zn63 O69 1.920 . S
Zn63 O75 1.898 . S
Zn63 O78 1.905 . S
Zn64 O72 1.905 . S
Zn64 O73 1.898 . S
Zn64 O81 1.920 . S
Zn65 O68 2.080 1_554 S
Zn65 O71 2.114 1_554 S
Zn65 O74 2.120 1_554 S
Zn65 O76 2.120 . S
Zn65 O77 2.114 . S
Zn65 O80 2.080 . S
C66 O71 1.166 . S
C66 O72 1.182 . S
C67 O73 1.167 . S
C67 O74 1.299 . S
O68 Zn65 2.080 1_556 S
O68 C82 1.305 1_556 S
O69 Zn63 1.920 . S
O69 C82 1.234 . S
C70 O75 1.167 . S
C70 O76 1.299 . S
O71 Zn65 2.114 1_556 S
O71 C66 1.166 . S
O72 Zn64 1.905 . S
O72 C66 1.182 . S
O73 Zn64 1.898 . S
O73 C67 1.167 . S
O74 Zn65 2.120 1_556 S
O74 C67 1.299 . S
O75 Zn63 1.898 . S
O75 C70 1.167 . S
O76 Zn65 2.120 . S
O76 C70 1.299 . S
O77 Zn65 2.114 . S
O77 C79 1.166 . S
O78 Zn63 1.905 . S
O78 C79 1.182 . S
C79 O77 1.166 . S
C79 O78 1.182 . S
O80 Zn65 2.080 . S
O80 C83 1.305 1_554 S
O81 Zn64 1.920 . S
O81 C83 1.234 . S
C82 O68 1.305 1_554 S
C82 O69 1.234 . S
C83 O80 1.305 1_556 S
C83 O81 1.234 . S
Zn84 O90 1.920 . S
Zn84 O96 1.898 . S
Zn84 O99 1.905 . S
Zn85 O93 1.905 . S
Zn85 O94 1.898 . S
Zn85 O102 1.920 . S
Zn86 O89 2.080 1_554 S
Zn86 O92 2.114 1_554 S
Zn86 O95 2.120 1_554 S
Zn86 O97 2.120 . S
Zn86 O98 2.114 . S
Zn86 O101 2.080 . S
C87 O92 1.166 . S
C87 O93 1.182 . S
C88 O94 1.167 . S
C88 O95 1.299 . S
O89 Zn86 2.080 1_556 S
O89 C103 1.305 1_556 S
O90 Zn84 1.920 . S
O90 C103 1.234 . S
C91 O96 1.167 . S
C91 O97 1.299 . S
O92 Zn86 2.114 1_556 S
O92 C87 1.166 . S
O93 Zn85 1.905 . S
O93 C87 1.182 . S
O94 Zn85 1.898 . S
O94 C88 1.167 . S
O95 Zn86 2.120 1_556 S
O95 C88 1.299 . S
O96 Zn84 1.898 . S
O96 C91 1.167 . S
O97 Zn86 2.120 . S
O97 C91 1.299 . S
O98 Zn86 2.114 . S
O98 C100 1.166 . S
O99 Zn84 1.905 . S
O99 C100 1.182 . S
C100 O98 1.166 . S
C100 O99 1.182 . S
O101 Zn86 2.080 . S
O101 C104 1.305 1_554 S
O102 Zn85 1.920 . S
O102 C104 1.234 . S
C103 O89 1.305 1_554 S
C103 O90 1.234 . S
C104 O101 1.305 1_556 S
C104 O102 1.234 . S
Zn105 O111 1.920 . S
Zn105 O117 1.898 . S
Zn105 O120 1.905 . S
Zn106 O114 1.905 . S
Zn106 O115 1.898 . S
Zn106 O123 1.920 . S
Zn107 O110 2.080 . S
Zn107 O113 2.114 . S
Zn107 O116 2.120 . S
Zn107 O118 2.120 1_554 S
Zn107 O119 2.114 1_554 S
Zn107 O122 2.080 1_554 S
C108 O113 1.166 . S
C108 O114 1.182 . S
C109 O115 1.167 . S
C109 O116 1.299 . S
O110 Zn107 2.080 . S
O110 C124 1.305 1_554 S
O111 Zn105 1.920 . S
O111 C124 1.234 . S
C112 O117 1.167 . S
C112 O118 1.299 . S
O113 Zn107 2.114 . S
O113 C108 1.166 . S
O114 Zn106 1.905 . S
O114 C108 1.182 . S
O115 Zn106 1.898 . S
O115 C109 1.167 . S
O116 Zn107 2.120 . S
O116 C109 1.299 . S
O117 Zn105 1.898 . S
O117 C112 1.167 . S
O118 Zn107 2.120 1_556 S
O118 C112 1.299 . S
O119 Zn107 2.114 1_556 S
O119 C121 1.166 . S
O120 Zn105 1.905 . S
O120 C121 1.182 . S
C121 O119 1.166 . S
C121 O120 1.182 . S
O122 Zn107 2.080 1_556 S
O122 C125 1.305 1_556 S
O123 Zn106 1.920 . S
O123 C125 1.234 . S
C124 O110 1.305 1_556 S
C124 O111 1.234 . S
C125 O122 1.305 1_554 S
C125 O123 1.234 . S
H126 C134 0.950 . S
H127 C139 0.950 . S
H128 C136 0.950 . S
H129 C138 0.950 . S
H130 C140 0.950 . S
H131 C142 0.950 . S
H132 C144 0.950 . S
H133 C145 0.950 . S
C134 H126 0.950 . S
C134 C135 1.386 . S
C134 C136 1.391 . S
C135 C134 1.386 . S
C135 C139 1.393 1_554 S
C136 H128 0.950 . S
C136 C134 1.391 . S
C136 C137 1.400 . S
C137 C136 1.400 . S
C137 C138 1.398 1_554 S
C137 C143 1.491 1_554 S
C138 H129 0.950 . S
C138 C137 1.398 1_556 S
C138 C139 1.391 . S
C139 H127 0.950 . S
C139 C135 1.393 1_556 S
C139 C138 1.391 . S
C140 H130 0.950 . S
C140 C141 1.386 . S
C140 C142 1.391 . S
C141 C140 1.386 . S
C141 C145 1.393 1_556 S
C142 H131 0.950 . S
C142 C140 1.391 . S
C142 C143 1.400 . S
C143 C137 1.491 1_556 S
C143 C142 1.400 . S
C143 C144 1.398 1_556 S
C144 H132 0.950 . S
C144 C143 1.398 1_554 S
C144 C145 1.391 . S
C145 H133 0.950 . S
C145 C141 1.393 1_554 S
C145 C144 1.391 . S
H146 C154 0.950 . S
H147 C159 0.950 . S
H148 C156 0.950 1_556 S
H149 C158 0.950 . S
H150 C160 0.950 . S
H151 C162 0.950 1_554 S
H152 C164 0.950 . S
H153 C165 0.950 . S
C154 H146 0.950 . S
C154 C155 1.386 . S
C154 C156 1.391 . S
C155 C154 1.386 . S
C155 C159 1.393 . S
C156 H148 0.950 1_554 S
C156 C154 1.391 . S
C156 C157 1.400 . S
C157 C156 1.400 . S
C157 C158 1.398 . S
C157 C163 1.491 1_454 S
C158 H149 0.950 . S
C158 C157 1.398 . S
C158 C159 1.391 . S
C159 H147 0.950 . S
C159 C155 1.393 . S
C159 C158 1.391 . S
C160 H150 0.950 . S
C160 C161 1.386 . S
C160 C162 1.391 . S
C161 C160 1.386 . S
C161 C165 1.393 . S
C162 H151 0.950 1_556 S
C162 C160 1.391 . S
C162 C163 1.400 . S
C163 C157 1.491 1_656 S
C163 C162 1.400 . S
C163 C164 1.398 . S
C164 H152 0.950 . S
C164 C163 1.398 . S
C164 C165 1.391 . S
C165 H153 0.950 . S
C165 C161 1.393 . S
C165 C164 1.391 . S
H166 C174 0.950 . S
H167 C179 0.950 . S
H168 C176 0.950 . S
H169 C178 0.950 . S
H170 C180 0.950 . S
H171 C182 0.950 . S
H172 C184 0.950 . S
H173 C185 0.950 . S
C174 H166 0.950 . S
C174 C175 1.386 . S
C174 C176 1.391 . S
C175 C174 1.386 . S
C175 C179 1.393 1_554 S
C176 H168 0.950 . S
C176 C174 1.391 . S
C176 C177 1.400 . S
C177 C176 1.400 . S
C177 C178 1.398 1_554 S
C177 C183 1.491 1_544 S
C178 H169 0.950 . S
C178 C177 1.398 1_556 S
C178 C179 1.391 . S
C179 H167 0.950 . S
C179 C175 1.393 1_556 S
C179 C178 1.391 . S
C180 H170 0.950 . S
C180 C181 1.386 . S
C180 C182 1.391 . S
C181 C180 1.386 . S
C181 C185 1.393 1_556 S
C182 H171 0.950 . S
C182 C180 1.391 . S
C182 C183 1.400 . S
C183 C177 1.491 1_566 S
C183 C182 1.400 . S
C183 C184 1.398 1_556 S
C184 H172 0.950 . S
C184 C183 1.398 1_554 S
C184 C185 1.391 . S
C185 H173 0.950 . S
C185 C181 1.393 1_554 S
C185 C184 1.391 . S
H186 C194 0.949 1_554 S
H187 C199 0.950 . S
H188 C196 0.950 . S
H189 C198 0.950 . S
H190 C200 0.949 . S
H191 C202 0.950 . S
H192 C204 0.950 . S
H193 C205 0.950 . S
C194 H186 0.949 1_556 S
C194 C195 1.386 . S
C194 C196 1.391 1_556 S
C195 C194 1.386 . S
C195 C199 1.393 . S
C196 H188 0.950 . S
C196 C194 1.391 1_554 S
C196 C197 1.400 1_554 S
C197 C196 1.400 1_556 S
C197 C198 1.398 . S
C197 C203 1.491 1_556 S
C198 H189 0.950 . S
C198 C197 1.398 . S
C198 C199 1.391 . S
C199 H187 0.950 . S
C199 C195 1.393 . S
C199 C198 1.391 . S
C200 H190 0.949 . S
C200 C201 1.386 . S
C200 C202 1.391 1_554 S
C201 C200 1.386 . S
C201 C205 1.393 . S
C202 H191 0.950 . S
C202 C200 1.391 1_556 S
C202 C203 1.400 1_556 S
C203 C197 1.491 1_554 S
C203 C202 1.400 1_554 S
C203 C204 1.398 . S
C204 H192 0.950 . S
C204 C203 1.398 . S
C204 C205 1.391 . S
C205 H193 0.950 . S
C205 C201 1.393 . S
C205 C204 1.391 . S
H206 C214 0.950 . S
H207 C219 0.950 . S
H208 C216 0.950 . S
H209 C218 0.950 . S
H210 C220 0.950 . S
H211 C222 0.950 . S
H212 C224 0.950 . S
H213 C225 0.950 . S
C214 H206 0.950 . S
C214 C215 1.386 1_554 S
C214 C216 1.391 . S
C215 C214 1.386 1_556 S
C215 C219 1.393 . S
C216 H208 0.950 . S
C216 C214 1.391 . S
C216 C217 1.400 1_554 S
C217 C216 1.400 1_556 S
C217 C218 1.398 . S
C217 C223 1.491 1_456 S
C218 H209 0.950 . S
C218 C217 1.398 . S
C218 C219 1.391 . S
C219 H207 0.950 . S
C219 C215 1.393 . S
C219 C218 1.391 . S
C220 H210 0.950 . S
C220 C221 1.386 1_556 S
C220 C222 1.391 . S
C221 C220 1.386 1_554 S
C221 C225 1.393 . S
C222 H211 0.950 . S
C222 C220 1.391 . S
C222 C223 1.400 1_556 S
C223 C217 1.491 1_654 S
C223 C222 1.400 1_554 S
C223 C224 1.398 . S
C224 H212 0.950 . S
C224 C223 1.398 . S
C224 C225 1.391 . S
C225 H213 0.950 . S
C225 C221 1.393 . S
C225 C224 1.391 . S
H226 C234 0.950 . S
H227 C239 0.950 . S
H228 C236 0.950 . S
H229 C238 0.950 . S
H230 C240 0.950 . S
H231 C242 0.950 . S
H232 C244 0.950 . S
H233 C245 0.950 . S
C234 H226 0.950 . S
C234 C235 1.386 . S
C234 C236 1.391 . S
C235 C234 1.386 . S
C235 C239 1.393 1_554 S
C236 H228 0.950 . S
C236 C234 1.391 . S
C236 C237 1.400 . S
C237 C236 1.400 . S
C237 C238 1.398 1_554 S
C237 C243 1.491 1_564 S
C238 H229 0.950 . S
C238 C237 1.398 1_556 S
C238 C239 1.391 . S
C239 H227 0.950 . S
C239 C235 1.393 1_556 S
C239 C238 1.391 . S
C240 H230 0.950 . S
C240 C241 1.386 . S
C240 C242 1.391 . S
C241 C240 1.386 . S
C241 C245 1.393 1_556 S
C242 H231 0.950 . S
C242 C240 1.391 . S
C242 C243 1.400 . S
C243 C237 1.491 1_546 S
C243 C242 1.400 . S
C243 C244 1.398 1_556 S
C244 H232 0.950 . S
C244 C243 1.398 1_554 S
C244 C245 1.391 . S
C245 H233 0.950 . S
C245 C241 1.393 1_554 S
C245 C244 1.391 . S
H246 C254 0.950 . S
H247 C259 0.950 . S
H248 C256 0.950 . S
H249 C258 0.950 . S
H250 C260 0.950 . S
H251 C262 0.950 . S
H252 C264 0.950 . S
H253 C265 0.950 . S
C254 H246 0.950 . S
C254 C255 1.386 . S
C254 C256 1.391 . S
C255 C254 1.386 . S
C255 C259 1.393 1_554 S
C256 H248 0.950 . S
C256 C254 1.391 . S
C256 C257 1.400 . S
C257 C256 1.400 . S
C257 C258 1.398 1_554 S
C257 C263 1.491 1_554 S
C258 H249 0.950 . S
C258 C257 1.398 1_556 S
C258 C259 1.391 . S
C259 H247 0.950 . S
C259 C255 1.393 1_556 S
C259 C258 1.391 . S
C260 H250 0.950 . S
C260 C261 1.386 . S
C260 C262 1.391 . S
C261 C260 1.386 . S
C261 C265 1.393 1_556 S
C262 H251 0.950 . S
C262 C260 1.391 . S
C262 C263 1.400 . S
C263 C257 1.491 1_556 S
C263 C262 1.400 . S
C263 C264 1.398 1_556 S
C264 H252 0.950 . S
C264 C263 1.398 1_554 S
C264 C265 1.391 . S
C265 H253 0.950 . S
C265 C261 1.393 1_554 S
C265 C264 1.391 . S
H266 C274 0.950 . S
H267 C279 0.950 . S
H268 C276 0.950 . S
H269 C278 0.950 . S
H270 C280 0.950 . S
H271 C282 0.950 . S
H272 C284 0.950 . S
H273 C285 0.950 . S
C274 H266 0.950 . S
C274 C275 1.386 . S
C274 C276 1.391 . S
C275 C274 1.386 . S
C275 C279 1.393 1_554 S
C276 H268 0.950 . S
C276 C274 1.391 . S
C276 C277 1.400 . S
C277 C276 1.400 . S
C277 C278 1.398 1_554 S
C277 C283 1.491 1_554 S
C278 H269 0.950 . S
C278 C277 1.398 1_556 S
C278 C279 1.391 . S
C279 H267 0.950 . S
C279 C275 1.393 1_556 S
C279 C278 1.391 . S
C280 H270 0.950 . S
C280 C281 1.386 . S
C280 C282 1.391 . S
C281 C280 1.386 . S
C281 C285 1.393 1_556 S
C282 H271 0.950 . S
C282 C280 1.391 . S
C282 C283 1.400 . S
C283 C277 1.491 1_556 S
C283 C282 1.400 . S
C283 C284 1.398 1_556 S
C284 H272 0.950 . S
C284 C283 1.398 1_554 S
C284 C285 1.391 . S
C285 H273 0.950 . S
C285 C281 1.393 1_554 S
C285 C284 1.391 . S
H286 C294 0.950 . S
H287 C299 0.950 . S
H288 C296 0.950 . S
H289 C298 0.950 . S
H290 C300 0.950 . S
H291 C302 0.950 . S
H292 C304 0.950 . S
H293 C305 0.950 . S
C294 H286 0.950 . S
C294 C295 1.386 . S
C294 C296 1.391 . S
C295 C294 1.386 . S
C295 C299 1.393 1_556 S
C296 H288 0.950 . S
C296 C294 1.391 . S
C296 C297 1.400 . S
C297 C296 1.400 . S
C297 C298 1.398 1_556 S
C297 C303 1.491 1_556 S
C298 H289 0.950 . S
C298 C297 1.398 1_554 S
C298 C299 1.391 . S
C299 H287 0.950 . S
C299 C295 1.393 1_554 S
C299 C298 1.391 . S
C300 H290 0.950 . S
C300 C301 1.386 . S
C300 C302 1.391 . S
C301 C300 1.386 . S
C301 C305 1.393 1_554 S
C302 H291 0.950 . S
C302 C300 1.391 . S
C302 C303 1.400 . S
C303 C297 1.491 1_554 S
C303 C302 1.400 . S
C303 C304 1.398 1_554 S
C304 H292 0.950 . S
C304 C303 1.398 1_556 S
C304 C305 1.391 . S
C305 H293 0.950 . S
C305 C301 1.393 1_556 S
C305 C304 1.391 . S
H306 C314 0.950 . S
H307 C319 0.950 . S
H308 C316 0.950 . S
H309 C318 0.950 . S
H310 C320 0.950 . S
H311 C322 0.950 . S
H312 C324 0.950 . S
H313 C325 0.950 . S
C314 H306 0.950 . S
C314 C315 1.386 . S
C314 C316 1.391 . S
C315 C314 1.386 . S
C315 C319 1.393 1_556 S
C316 H308 0.950 . S
C316 C314 1.391 . S
C316 C317 1.400 . S
C317 C316 1.400 . S
C317 C318 1.398 1_556 S
C317 C323 1.491 1_556 S
C318 H309 0.950 . S
C318 C317 1.398 1_554 S
C318 C319 1.391 . S
C319 H307 0.950 . S
C319 C315 1.393 1_554 S
C319 C318 1.391 . S
C320 H310 0.950 . S
C320 C321 1.386 . S
C320 C322 1.391 . S
C321 C320 1.386 . S
C321 C325 1.393 1_554 S
C322 H311 0.950 . S
C322 C320 1.391 . S
C322 C323 1.400 . S
C323 C317 1.491 1_554 S
C323 C322 1.400 . S
C323 C324 1.398 1_554 S
C324 H312 0.950 . S
C324 C323 1.398 1_556 S
C324 C325 1.391 . S
C325 H313 0.950 . S
C325 C321 1.393 1_556 S
C325 C324 1.391 . S
H326 C334 0.950 . S
H327 C339 0.950 . S
H328 C336 0.950 . S
H329 C338 0.950 . S
H330 C340 0.950 . S
H331 C342 0.950 . S
H332 C344 0.950 . S
H333 C345 0.950 . S
C334 H326 0.950 . S
C334 C335 1.386 1_554 S
C334 C336 1.391 . S
C335 C334 1.386 1_556 S
C335 C339 1.393 . S
C336 H328 0.950 . S
C336 C334 1.391 . S
C336 C337 1.400 1_554 S
C337 C336 1.400 1_556 S
C337 C338 1.398 . S
C337 C343 1.491 1_556 S
C338 H329 0.950 . S
C338 C337 1.398 . S
C338 C339 1.391 . S
C339 H327 0.950 . S
C339 C335 1.393 . S
C339 C338 1.391 . S
C340 H330 0.950 . S
C340 C341 1.386 1_556 S
C340 C342 1.391 . S
C341 C340 1.386 1_554 S
C341 C345 1.393 . S
C342 H331 0.950 . S
C342 C340 1.391 . S
C342 C343 1.400 1_556 S
C343 C337 1.491 1_554 S
C343 C342 1.400 1_554 S
C343 C344 1.398 . S
C344 H332 0.950 . S
C344 C343 1.398 . S
C344 C345 1.391 . S
C345 H333 0.950 . S
C345 C341 1.393 . S
C345 C344 1.391 . S
H346 C354 0.950 . S
H347 C359 0.950 . S
H348 C356 0.950 . S
H349 C358 0.950 . S
H350 C360 0.950 . S
H351 C362 0.950 . S
H352 C364 0.950 . S
H353 C365 0.950 . S
C354 H346 0.950 . S
C354 C355 1.386 1_556 S
C354 C356 1.391 . S
C355 C354 1.386 1_554 S
C355 C359 1.393 . S
C356 H348 0.950 . S
C356 C354 1.391 . S
C356 C357 1.400 1_556 S
C357 C356 1.400 1_554 S
C357 C358 1.398 . S
C357 C363 1.491 1_554 S
C358 H349 0.950 . S
C358 C357 1.398 . S
C358 C359 1.391 . S
C359 H347 0.950 . S
C359 C355 1.393 . S
C359 C358 1.391 . S
C360 H350 0.950 . S
C360 C361 1.386 1_554 S
C360 C362 1.391 . S
C361 C360 1.386 1_556 S
C361 C365 1.393 . S
C362 H351 0.950 . S
C362 C360 1.391 . S
C362 C363 1.400 1_554 S
C363 C357 1.491 1_556 S
C363 C362 1.400 1_556 S
C363 C364 1.398 . S
C364 H352 0.950 . S
C364 C363 1.398 . S
C364 C365 1.391 . S
C365 H353 0.950 . S
C365 C361 1.393 . S
C365 C364 1.391 . S
H366 C374 0.950 . S
H367 C379 0.950 . S
H368 C376 0.950 . S
H369 C378 0.950 . S
H370 C380 0.950 . S
H371 C382 0.950 . S
H372 C384 0.950 . S
H373 C385 0.950 . S
C374 H366 0.950 . S
C374 C375 1.386 . S
C374 C376 1.391 . S
C375 C374 1.386 . S
C375 C379 1.393 . S
C376 H368 0.950 . S
C376 C374 1.391 . S
C376 C377 1.400 . S
C377 C376 1.400 . S
C377 C378 1.398 . S
C377 C383 1.491 . S
C378 H369 0.950 . S
C378 C377 1.398 . S
C378 C379 1.391 . S
C379 H367 0.950 . S
C379 C375 1.393 . S
C379 C378 1.391 . S
C380 H370 0.950 . S
C380 C381 1.386 . S
C380 C382 1.391 . S
C381 C380 1.386 . S
C381 C385 1.393 . S
C382 H371 0.950 . S
C382 C380 1.391 . S
C382 C383 1.400 . S
C383 C377 1.491 . S
C383 C382 1.400 . S
C383 C384 1.398 . S
C384 H372 0.950 . S
C384 C383 1.398 . S
C384 C385 1.391 . S
C385 H373 0.950 . S
C385 C381 1.393 . S
C385 C384 1.391 . S
H386 C394 0.950 . S
H387 C399 0.950 . S
H388 C396 0.950 . S
H389 C398 0.950 . S
H390 C400 0.950 . S
H391 C402 0.950 . S
H392 C404 0.950 . S
H393 C405 0.950 . S
C394 H386 0.950 . S
C394 C395 1.386 . S
C394 C396 1.391 . S
C395 C394 1.386 . S
C395 C399 1.393 . S
C396 H388 0.950 . S
C396 C394 1.391 . S
C396 C397 1.400 . S
C397 C396 1.400 . S
C397 C398 1.398 . S
C397 C403 1.491 . S
C398 H389 0.950 . S
C398 C397 1.398 . S
C398 C399 1.391 . S
C399 H387 0.950 . S
C399 C395 1.393 . S
C399 C398 1.391 . S
C400 H390 0.950 . S
C400 C401 1.386 . S
C400 C402 1.391 . S
C401 C400 1.386 . S
C401 C405 1.393 . S
C402 H391 0.950 . S
C402 C400 1.391 . S
C402 C403 1.400 . S
C403 C397 1.491 . S
C403 C402 1.400 . S
C403 C404 1.398 . S
C404 H392 0.950 . S
C404 C403 1.398 . S
C404 C405 1.391 . S
C405 H393 0.950 . S
C405 C401 1.393 . S
C405 C404 1.391 . S
H406 C414 0.950 . S
H407 C419 0.950 . S
H408 C416 0.950 . S
H409 C418 0.950 . S
H410 C420 0.950 . S
H411 C422 0.950 . S
H412 C424 0.950 . S
H413 C425 0.950 . S
C414 H406 0.950 . S
C414 C415 1.386 . S
C414 C416 1.391 . S
C415 C414 1.386 . S
C415 C419 1.393 . S
C416 H408 0.950 . S
C416 C414 1.391 . S
C416 C417 1.400 . S
C417 C416 1.400 . S
C417 C418 1.398 . S
C417 C423 1.491 . S
C418 H409 0.950 . S
C418 C417 1.398 . S
C418 C419 1.391 . S
C419 H407 0.950 . S
C419 C415 1.393 . S
C419 C418 1.391 . S
C420 H410 0.950 . S
C420 C421 1.386 . S
C420 C422 1.391 . S
C421 C420 1.386 . S
C421 C425 1.393 . S
C422 H411 0.950 . S
C422 C420 1.391 . S
C422 C423 1.400 . S
C423 C417 1.491 . S
C423 C422 1.400 . S
C423 C424 1.398 . S
C424 H412 0.950 . S
C424 C423 1.398 . S
C424 C425 1.391 . S
C425 H413 0.950 . S
C425 C421 1.393 . S
C425 C424 1.391 . S
H426 C434 0.950 . S
H427 C439 0.950 . S
H428 C436 0.950 . S
H429 C438 0.950 . S
H430 C440 0.950 . S
H431 C442 0.950 . S
H432 C444 0.950 . S
H433 C445 0.950 . S
C434 H426 0.950 . S
C434 C435 1.386 . S
C434 C436 1.391 . S
C435 C434 1.386 . S
C435 C439 1.393 . S
C436 H428 0.950 . S
C436 C434 1.391 . S
C436 C437 1.400 . S
C437 C436 1.400 . S
C437 C438 1.398 . S
C437 C443 1.491 . S
C438 H429 0.950 . S
C438 C437 1.398 . S
C438 C439 1.391 . S
C439 H427 0.950 . S
C439 C435 1.393 . S
C439 C438 1.391 . S
C440 H430 0.950 . S
C440 C441 1.386 . S
C440 C442 1.391 . S
C441 C440 1.386 . S
C441 C445 1.393 . S
C442 H431 0.950 . S
C442 C440 1.391 . S
C442 C443 1.400 . S
C443 C437 1.491 . S
C443 C442 1.400 . S
C443 C444 1.398 . S
C444 H432 0.950 . S
C444 C443 1.398 . S
C444 C445 1.391 . S
C445 H433 0.950 . S
C445 C441 1.393 . S
C445 C444 1.391 . S
H446 C454 0.950 . S
H447 C459 0.950 . S
H448 C456 0.950 . S
H449 C458 0.950 . S
H450 C460 0.950 . S
H451 C462 0.950 . S
H452 C464 0.950 . S
H453 C465 0.950 . S
C454 H446 0.950 . S
C454 C455 1.386 . S
C454 C456 1.391 . S
C455 C454 1.386 . S
C455 C459 1.393 . S
C456 H448 0.950 . S
C456 C454 1.391 . S
C456 C457 1.400 . S
C457 C456 1.400 . S
C457 C458 1.398 . S
C457 C463 1.491 . S
C458 H449 0.950 . S
C458 C457 1.398 . S
C458 C459 1.391 . S
C459 H447 0.950 . S
C459 C455 1.393 . S
C459 C458 1.391 . S
C460 H450 0.950 . S
C460 C461 1.386 . S
C460 C462 1.391 . S
C461 C460 1.386 . S
C461 C465 1.393 . S
C462 H451 0.950 . S
C462 C460 1.391 . S
C462 C463 1.400 . S
C463 C457 1.491 . S
C463 C462 1.400 . S
C463 C464 1.398 . S
C464 H452 0.950 . S
C464 C463 1.398 . S
C464 C465 1.391 . S
C465 H453 0.950 . S
C465 C461 1.393 . S
C465 C464 1.391 . S
H466 C474 0.950 . S
H467 C479 0.950 . S
H468 C476 0.950 . S
H469 C478 0.950 . S
H470 C480 0.950 . S
H471 C482 0.950 . S
H472 C484 0.950 . S
H473 C485 0.950 . S
C474 H466 0.950 . S
C474 C475 1.386 . S
C474 C476 1.391 . S
C475 C474 1.386 . S
C475 C479 1.393 . S
C476 H468 0.950 . S
C476 C474 1.391 . S
C476 C477 1.400 . S
C477 C476 1.400 . S
C477 C478 1.398 . S
C477 C483 1.491 . S
C478 H469 0.950 . S
C478 C477 1.398 . S
C478 C479 1.391 . S
C479 H467 0.950 . S
C479 C475 1.393 . S
C479 C478 1.391 . S
C480 H470 0.950 . S
C480 C481 1.386 . S
C480 C482 1.391 . S
C481 C480 1.386 . S
C481 C485 1.393 . S
C482 H471 0.950 . S
C482 C480 1.391 . S
C482 C483 1.400 . S
C483 C477 1.491 . S
C483 C482 1.400 . S
C483 C484 1.398 . S
C484 H472 0.950 . S
C484 C483 1.398 . S
C484 C485 1.391 . S
C485 H473 0.950 . S
C485 C481 1.393 . S
C485 C484 1.391 . S
C135 C121 1.291 1_554 S
C141 C3 1.304 1_556 S
C155 C16 1.301 1_554 S
C161 C24 1.300 1_556 S
C175 C37 1.256 1_554 S
C181 C58 1.279 1_556 S
C195 C79 1.302 1_556 S
C201 C45 1.299 1_554 S
C215 C100 1.276 1_556 S
C221 C66 1.255 1_554 S
C235 C87 1.253 1_554 S
C241 C108 1.266 1_556 S
C255 C103 1.420 . S
C261 C19 1.442 . S
C275 C125 1.427 . S
C281 C40 1.449 . S
C295 C62 1.426 . S
C301 C20 1.449 . S
C315 C83 1.421 . S
C321 C41 1.448 . S
C335 C104 1.449 . S
C341 C61 1.426 . S
C355 C82 1.449 . S
C361 C124 1.423 . S
C375 C7 1.278 . S
C381 C4 1.292 . S
C395 C28 1.287 . S
C401 C25 1.303 . S
C415 C46 1.320 . S
C421 C49 1.317 . S
C435 C67 1.306 . S
C441 C70 1.290 . S
C455 C91 1.276 . S
C461 C88 1.274 . S
C475 C112 1.274 . S
C481 C109 1.283 . S
