# Generated by pormake.
# Topology wju, (5)-cn, num edge types: 1
# Building blocks:
#     Node 0, Type 0, BuildingBlock: BEQFEK_clean_sbu_0, # of connection points: 5
#     Node 1, Type 0, BuildingBlock: BEQFEK_clean_sbu_0, # of connection points: 5
#     Node 2, Type 0, BuildingBlock: BEQFEK_clean_sbu_0, # of connection points: 5
#     Node 3, Type 0, BuildingBlock: BEQFEK_clean_sbu_0, # of connection points: 5
#     Node 4, Type 0, BuildingBlock: BEQFEK_clean_sbu_0, # of connection points: 5
#     Node 5, Type 0, BuildingBlock: BEQFEK_clean_sbu_0, # of connection points: 5
#     Node 6, Type 0, BuildingBlock: BEQFEK_clean_sbu_0, # of connection points: 5
#     Node 7, Type 0, BuildingBlock: BEQFEK_clean_sbu_0, # of connection points: 5
#     Node 8, Type 0, BuildingBlock: BEQFEK_clean_sbu_0, # of connection points: 5
#     Node 9, Type 0, BuildingBlock: BEQFEK_clean_sbu_0, # of connection points: 5
#     Node 10, Type 0, BuildingBlock: BEQFEK_clean_sbu_0, # of connection points: 5
#     Node 11, Type 0, BuildingBlock: BEQFEK_clean_sbu_0, # of connection points: 5
#     Edge 12, Type (0, 0), BuildingBlock: UVAHIK_clean_linker_0, # of connection points: 2
#     Edge 13, Type (0, 0), BuildingBlock: UVAHIK_clean_linker_0, # of connection points: 2
#     Edge 14, Type (0, 0), BuildingBlock: UVAHIK_clean_linker_0, # of connection points: 2
#     Edge 15, Type (0, 0), BuildingBlock: UVAHIK_clean_linker_0, # of connection points: 2
#     Edge 16, Type (0, 0), BuildingBlock: UVAHIK_clean_linker_0, # of connection points: 2
#     Edge 17, Type (0, 0), BuildingBlock: UVAHIK_clean_linker_0, # of connection points: 2
#     Edge 18, Type (0, 0), BuildingBlock: UVAHIK_clean_linker_0, # of connection points: 2
#     Edge 19, Type (0, 0), BuildingBlock: UVAHIK_clean_linker_0, # of connection points: 2
#     Edge 20, Type (0, 0), BuildingBlock: UVAHIK_clean_linker_0, # of connection points: 2
#     Edge 21, Type (0, 0), BuildingBlock: UVAHIK_clean_linker_0, # of connection points: 2
#     Edge 22, Type (0, 0), BuildingBlock: UVAHIK_clean_linker_0, # of connection points: 2
#     Edge 23, Type (0, 0), BuildingBlock: UVAHIK_clean_linker_0, # of connection points: 2
#     Edge 24, Type (0, 0), BuildingBlock: UVAHIK_clean_linker_0, # of connection points: 2
#     Edge 25, Type (0, 0), BuildingBlock: UVAHIK_clean_linker_0, # of connection points: 2
#     Edge 26, Type (0, 0), BuildingBlock: UVAHIK_clean_linker_0, # of connection points: 2
#     Edge 27, Type (0, 0), BuildingBlock: UVAHIK_clean_linker_0, # of connection points: 2
#     Edge 28, Type (0, 0), BuildingBlock: UVAHIK_clean_linker_0, # of connection points: 2
#     Edge 29, Type (0, 0), BuildingBlock: UVAHIK_clean_linker_0, # of connection points: 2
#     Edge 30, Type (0, 0), BuildingBlock: UVAHIK_clean_linker_0, # of connection points: 2
#     Edge 31, Type (0, 0), BuildingBlock: UVAHIK_clean_linker_0, # of connection points: 2
#     Edge 32, Type (0, 0), BuildingBlock: UVAHIK_clean_linker_0, # of connection points: 2
#     Edge 33, Type (0, 0), BuildingBlock: UVAHIK_clean_linker_0, # of connection points: 2
#     Edge 34, Type (0, 0), BuildingBlock: UVAHIK_clean_linker_0, # of connection points: 2
#     Edge 35, Type (0, 0), BuildingBlock: UVAHIK_clean_linker_0, # of connection points: 2
#     Edge 36, Type (0, 0), BuildingBlock: UVAHIK_clean_linker_0, # of connection points: 2
#     Edge 37, Type (0, 0), BuildingBlock: UVAHIK_clean_linker_0, # of connection points: 2
#     Edge 38, Type (0, 0), BuildingBlock: UVAHIK_clean_linker_0, # of connection points: 2
#     Edge 39, Type (0, 0), BuildingBlock: UVAHIK_clean_linker_0, # of connection points: 2
#     Edge 40, Type (0, 0), BuildingBlock: UVAHIK_clean_linker_0, # of connection points: 2
#     Edge 41, Type (0, 0), BuildingBlock: UVAHIK_clean_linker_0, # of connection points: 2
# Relax obj value: 0.129
# Max RMSD: 0.142
# Mean RMSD: 0.142
data_MOF--net-wju--node1-BEQFEK_clean_sbu_0--edge1-UVAHIK_clean_linker_0
_symmetry_space_group_name_H-M    P1
_symmetry_Int_Tables_number       1
_symmetry_cell_setting            triclinic
loop_
_symmetry_equiv_pos_as_xyz
'x, y, z'
_cell_length_a     34.495301
_cell_length_b     34.545289
_cell_length_c     137.11112
_cell_angle_alpha  89.946162
_cell_angle_beta   89.987382
_cell_angle_gamma 120.02422
loop_
_atom_site_label
_atom_site_type_symbol
_atom_site_fract_x
_atom_site_fract_y
_atom_site_fract_z
_atom_type_partial_charge
Co0 Co 0.31231 0.17828 0.10566 0.0
Co1 Co 0.31581 0.17128 0.08269 0.0
C2 C 0.23241 0.15451 0.09322 0.0
O3 O 0.25143 0.16237 0.10151 0.0
O4 O 0.25356 0.15707 0.08541 0.0
C5 C 0.27861 0.15138 0.12517 0.0
O6 O 0.24105 0.12513 0.12056 0.0
C7 C 0.29255 0.12533 0.06351 0.0
C8 C 0.34878 0.17396 0.0544 0.0
C9 C 0.30991 0.13264 0.05407 0.0
N10 N 0.32024 0.16051 0.0691 0.0
N11 N 0.3537 0.18941 0.06358 0.0
C12 C 0.24934 0.08681 0.06706 0.0
H13 H 0.2383 0.09538 0.07389 0.0
H14 H 0.25399 0.0579 0.06861 0.0
H15 H 0.22298 0.07666 0.06141 0.0
C16 C 0.33837 0.10885 0.10443 0.0
N17 N 0.32763 0.13742 0.1002 0.0
N18 N 0.33072 0.13546 0.09066 0.0
C19 C 0.34454 0.10619 0.08853 0.0
C20 C 0.34931 0.08804 0.09717 0.0
C21 C 0.33624 0.10054 0.11518 0.0
H22 H 0.30224 0.09075 0.11786 0.0
H23 H 0.34344 0.07354 0.11705 0.0
H24 H 0.36047 0.13183 0.11895 0.0
O25 O 0.35612 0.23981 0.10144 0.0
O26 O 0.358 0.23542 0.0853 0.0
H27 H 0.37338 0.13068 0.0744 0.0
H28 H 0.38028 0.08541 0.07885 0.0
C29 C 0.35705 0.09882 0.07853 0.0
H30 H 0.32643 0.07447 0.07459 0.0
H31 H 0.37994 0.21976 0.06609 0.0
O32 O 0.31355 0.17666 0.12022 0.0
C33 C 0.37113 0.25795 0.09316 0.0
Co34 Co 0.12632 0.32013 0.43843 0.0
Co35 Co 0.13956 0.32021 0.41559 0.0
C36 C 0.07383 0.2381 0.42608 0.0
O37 O 0.08402 0.25854 0.43421 0.0
O38 O 0.09265 0.25799 0.41818 0.0
C39 C 0.1345 0.29348 0.45769 0.0
O40 O 0.14474 0.26693 0.45287 0.0
C41 C 0.15991 0.29576 0.39634 0.0
C42 C 0.18741 0.35984 0.38839 0.0
C43 C 0.1788 0.31629 0.3875 0.0
N44 N 0.15772 0.32593 0.40219 0.0
N45 N 0.17366 0.36396 0.39733 0.0
C46 C 0.14848 0.24987 0.39957 0.0
H47 H 0.15203 0.24896 0.4076 0.0
H48 H 0.17029 0.23919 0.39591 0.0
H49 H 0.11318 0.22599 0.39761 0.0
C50 C 0.22461 0.35697 0.43783 0.0
N51 N 0.1842 0.33861 0.43349 0.0
N52 N 0.18936 0.337 0.42399 0.0
C53 C 0.2331 0.35341 0.42205 0.0
C54 C 0.25668 0.36663 0.43073 0.0
C55 C 0.23313 0.37027 0.44834 0.0
H56 H 0.20882 0.37994 0.451 0.0
H57 H 0.22938 0.34155 0.45271 0.0
H58 H 0.26763 0.39862 0.44944 0.0
O59 O 0.10705 0.36163 0.43374 0.0
O60 O 0.11592 0.3614 0.41768 0.0
H61 H 0.24914 0.3829 0.40785 0.0
H62 H 0.28797 0.36641 0.41235 0.0
C63 C 0.25222 0.35718 0.41207 0.0
H64 H 0.23329 0.32472 0.40826 0.0
H65 H 0.1764 0.39314 0.40022 0.0
O66 O 0.12564 0.31979 0.45296 0.0
C67 C 0.1049 0.3752 0.42522 0.0
Co68 Co 0.80902 0.1349 0.77251 0.0
Co69 Co 0.81598 0.14399 0.74951 0.0
C70 C 0.83158 0.07729 0.7603 0.0
O71 O 0.82405 0.08924 0.76853 0.0
O72 O 0.82928 0.09549 0.75241 0.0
C73 C 0.83666 0.12915 0.79195 0.0
O74 O 0.86308 0.11822 0.78728 0.0
C75 C 0.86215 0.16553 0.73031 0.0
C76 C 0.81525 0.17603 0.72126 0.0
C77 C 0.85591 0.177 0.72092 0.0
N78 N 0.82711 0.15883 0.73589 0.0
N79 N 0.79919 0.165 0.7304 0.0
C80 C 0.89966 0.15924 0.73388 0.0
H81 H 0.88994 0.13858 0.74057 0.0
H82 H 0.92894 0.19222 0.7357 0.0
H83 H 0.90978 0.14334 0.72816 0.0
C84 C 0.87903 0.23012 0.77102 0.0
N85 N 0.85038 0.19058 0.7669 0.0
N86 N 0.85245 0.19504 0.75734 0.0
C87 C 0.88194 0.23795 0.75509 0.0
C88 C 0.90006 0.2614 0.76367 0.0
C89 C 0.88698 0.23707 0.78177 0.0
H90 H 0.89711 0.2134 0.7846 0.0
H91 H 0.91368 0.27152 0.78356 0.0
H92 H 0.8554 0.22979 0.78546 0.0
O93 O 0.7476 0.11761 0.7683 0.0
O94 O 0.75184 0.12292 0.75213 0.0
H95 H 0.85728 0.24222 0.741 0.0
H96 H 0.90388 0.29402 0.7452 0.0
C97 C 0.88939 0.25723 0.74502 0.0
H98 H 0.91286 0.24972 0.74106 0.0
H99 H 0.76924 0.16197 0.73292 0.0
O100 O 0.81091 0.1383 0.78705 0.0
C101 C 0.72941 0.1142 0.76001 0.0
Co102 Co 0.67612 0.81365 0.10501 0.0
Co103 Co 0.67189 0.82043 0.08209 0.0
C104 C 0.75791 0.87124 0.09308 0.0
O105 O 0.73847 0.85608 0.10122 0.0
O106 O 0.73633 0.85938 0.08508 0.0
C107 C 0.69316 0.84989 0.12426 0.0
O108 O 0.71395 0.88781 0.11943 0.0
C109 C 0.68755 0.86241 0.06267 0.0
C110 C 0.62926 0.81217 0.05432 0.0
C111 C 0.66742 0.85382 0.05356 0.0
N112 N 0.66257 0.82735 0.06855 0.0
N113 N 0.62793 0.79731 0.06348 0.0
C114 C 0.72752 0.90486 0.066 0.0
H115 H 0.72311 0.91173 0.0737 0.0
H116 H 0.73295 0.93355 0.06138 0.0
H117 H 0.75758 0.90114 0.06553 0.0
C118 C 0.60773 0.84136 0.10372 0.0
N119 N 0.63717 0.83156 0.09959 0.0
N120 N 0.63653 0.83608 0.09005 0.0
C121 C 0.60724 0.84982 0.08785 0.0
C122 C 0.58793 0.85338 0.09644 0.0
C123 C 0.59665 0.83655 0.11437 0.0
H124 H 0.59708 0.80698 0.11737 0.0
H125 H 0.62207 0.86681 0.11826 0.0
H126 H 0.56319 0.83282 0.11567 0.0
O127 O 0.65787 0.75274 0.10052 0.0
O128 O 0.65315 0.75646 0.08441 0.0
H129 H 0.58028 0.83051 0.0735 0.0
H130 H 0.58136 0.8803 0.0779 0.0
C131 C 0.59974 0.8616 0.07779 0.0
H132 H 0.63239 0.88252 0.07414 0.0
H133 H 0.60294 0.76697 0.06632 0.0
O134 O 0.67388 0.81337 0.11952 0.0
C135 C 0.64927 0.73429 0.09215 0.0
Co136 Co 0.8643 0.68369 0.4384 0.0
Co137 Co 0.85349 0.68206 0.4154 0.0
C138 C 0.89115 0.76679 0.42695 0.0
O139 O 0.8866 0.74675 0.43501 0.0
O140 O 0.88054 0.74574 0.4189 0.0
C141 C 0.85189 0.70421 0.45789 0.0
O142 O 0.84281 0.73211 0.45328 0.0
C143 C 0.82064 0.69567 0.39636 0.0
C144 C 0.83334 0.65183 0.38679 0.0
C145 C 0.81689 0.68115 0.38674 0.0
N146 N 0.83813 0.67552 0.40178 0.0
N147 N 0.84551 0.64932 0.39599 0.0
C148 C 0.80986 0.72969 0.40027 0.0
H149 H 0.8256 0.74241 0.40744 0.0
H150 H 0.77316 0.71406 0.40127 0.0
H151 H 0.82102 0.75797 0.39507 0.0
C152 C 0.76646 0.62182 0.43696 0.0
N153 N 0.80692 0.64765 0.43285 0.0
N154 N 0.80243 0.64665 0.42329 0.0
C155 C 0.759 0.61979 0.42103 0.0
C156 C 0.73483 0.60359 0.4296 0.0
C157 C 0.75808 0.61806 0.44772 0.0
H158 H 0.76458 0.65082 0.45055 0.0
H159 H 0.72317 0.59269 0.44957 0.0
H160 H 0.78136 0.60936 0.45139 0.0
O161 O 0.90571 0.66406 0.43352 0.0
O162 O 0.89774 0.66257 0.41741 0.0
H163 H 0.76311 0.60199 0.40625 0.0
H164 H 0.70669 0.57935 0.41073 0.0
C165 C 0.74092 0.60893 0.41086 0.0
H166 H 0.7397 0.63792 0.40777 0.0
H167 H 0.85926 0.63 0.3983 0.0
O168 O 0.8618 0.67923 0.45293 0.0
C169 C 0.91556 0.6569 0.425 0.0
Co170 Co 0.17267 0.86175 0.77226 0.0
Co171 Co 0.16609 0.85365 0.74925 0.0
C172 C 0.11607 0.88833 0.76088 0.0
O173 O 0.13042 0.88248 0.76897 0.0
O174 O 0.12841 0.87978 0.75282 0.0
C175 C 0.13711 0.84089 0.79157 0.0
O176 O 0.09901 0.82474 0.78684 0.0
C177 C 0.12129 0.8235 0.72992 0.0
C178 C 0.17833 0.83517 0.72059 0.0
C179 C 0.13277 0.82 0.72035 0.0
N180 N 0.15833 0.83954 0.73553 0.0
N181 N 0.1922 0.84634 0.72987 0.0
C182 C 0.07626 0.81336 0.73361 0.0
H183 H 0.07877 0.8292 0.74073 0.0
H184 H 0.05477 0.77675 0.73462 0.0
H185 H 0.05983 0.82474 0.72829 0.0
C186 C 0.14429 0.76575 0.7703 0.0
N187 N 0.15427 0.80551 0.76643 0.0
N188 N 0.15062 0.80173 0.75686 0.0
C189 C 0.13787 0.75926 0.75436 0.0
C190 C 0.13337 0.73514 0.76281 0.0
C191 C 0.14797 0.75788 0.78091 0.0
H192 H 0.17782 0.78706 0.78409 0.0
H193 H 0.11771 0.75342 0.78476 0.0
H194 H 0.15064 0.72751 0.78206 0.0
O195 O 0.23376 0.90484 0.76774 0.0
O196 O 0.23025 0.89814 0.75158 0.0
H197 H 0.15941 0.76046 0.73968 0.0
H198 H 0.11653 0.70569 0.74375 0.0
C199 C 0.12856 0.74199 0.74413 0.0
H200 H 0.10253 0.74796 0.74095 0.0
H201 H 0.22497 0.859 0.73234 0.0
O202 O 0.17349 0.85811 0.78675 0.0
C203 C 0.25236 0.91552 0.75937 0.0
Co204 Co 0.8058 0.66433 0.58246 0.0
Co205 Co 0.81467 0.6643 0.60542 0.0
C206 C 0.83019 0.74588 0.59435 0.0
O207 O 0.8218 0.72559 0.58621 0.0
O208 O 0.82827 0.726 0.60231 0.0
C209 C 0.83524 0.69658 0.56312 0.0
O210 O 0.86347 0.73284 0.56789 0.0
C211 C 0.86204 0.69031 0.62445 0.0
C212 C 0.8157 0.63365 0.63375 0.0
C213 C 0.8564 0.67331 0.63391 0.0
N214 N 0.82663 0.66161 0.61903 0.0
N215 N 0.79905 0.62796 0.62466 0.0
C216 C 0.89935 0.73381 0.62069 0.0
H217 H 0.88921 0.74435 0.61401 0.0
H218 H 0.92845 0.72989 0.6188 0.0
H219 H 0.90991 0.76024 0.62633 0.0
C220 C 0.87517 0.63791 0.58388 0.0
N221 N 0.84723 0.64979 0.588 0.0
N222 N 0.85018 0.64851 0.59757 0.0
C223 C 0.87955 0.6349 0.59981 0.0
C224 C 0.89665 0.62823 0.59123 0.0
C225 C 0.88221 0.63763 0.57311 0.0
H226 H 0.84982 0.61486 0.56952 0.0
H227 H 0.89465 0.67177 0.5702 0.0
H228 H 0.907 0.62732 0.57127 0.0
O229 O 0.74435 0.62089 0.58691 0.0
O230 O 0.75034 0.62138 0.60306 0.0
H231 H 0.85605 0.60752 0.61407 0.0
H232 H 0.90243 0.602 0.60982 0.0
C233 C 0.88785 0.62425 0.60992 0.0
H234 H 0.91151 0.65566 0.6137 0.0
H235 H 0.76893 0.60091 0.62228 0.0
O236 O 0.80727 0.66232 0.56792 0.0
C237 C 0.72701 0.60701 0.59531 0.0
Co238 Co 0.12987 0.80718 0.91627 0.0
Co239 Co 0.14231 0.81636 0.93916 0.0
C240 C 0.07544 0.83304 0.92866 0.0
O241 O 0.08592 0.82474 0.92034 0.0
O242 O 0.09425 0.83033 0.93641 0.0
C243 C 0.1243 0.83347 0.89664 0.0
O244 O 0.1155 0.86186 0.90109 0.0
C245 C 0.16591 0.86431 0.9581 0.0
C246 C 0.17375 0.81667 0.96748 0.0
C247 C 0.17618 0.85796 0.96759 0.0
N248 N 0.1583 0.82862 0.95269 0.0
N249 N 0.16303 0.80032 0.95837 0.0
C250 C 0.1611 0.90241 0.95434 0.0
H251 H 0.1413 0.89316 0.94753 0.0
H252 H 0.19466 0.9312 0.95268 0.0
H253 H 0.145 0.91305 0.95991 0.0
C254 C 0.22615 0.8758 0.91707 0.0
N255 N 0.18689 0.84809 0.92146 0.0
N256 N 0.19257 0.85113 0.93099 0.0
C257 C 0.23591 0.88029 0.93295 0.0
C258 C 0.25844 0.8972 0.92421 0.0
C259 C 0.23185 0.88282 0.90627 0.0
H260 H 0.22267 0.85065 0.90265 0.0
H261 H 0.20893 0.89422 0.90359 0.0
H262 H 0.26651 0.90826 0.90424 0.0
O263 O 0.11146 0.74575 0.92078 0.0
O264 O 0.12007 0.7521 0.93687 0.0
H265 H 0.24103 0.85732 0.94718 0.0
H266 H 0.293 0.90235 0.94253 0.0
C267 C 0.2563 0.88877 0.94291 0.0
H268 H 0.25004 0.91335 0.94674 0.0
H269 H 0.15882 0.76975 0.95602 0.0
O270 O 0.13186 0.80711 0.90172 0.0
C271 C 0.10936 0.72857 0.92914 0.0
Co272 Co 0.30102 0.12541 0.24972 0.0
Co273 Co 0.30664 0.13707 0.27264 0.0
C274 C 0.21974 0.10061 0.26194 0.0
O275 O 0.23843 0.10447 0.25371 0.0
O276 O 0.24218 0.11128 0.26982 0.0
C277 C 0.2818 0.14323 0.2305 0.0
O278 O 0.2596 0.15861 0.2354 0.0
C279 C 0.29193 0.16305 0.2922 0.0
C280 C 0.34924 0.16832 0.30049 0.0
C281 C 0.31162 0.17273 0.30137 0.0
N282 N 0.31655 0.15304 0.2862 0.0
N283 N 0.35068 0.1561 0.29123 0.0
C284 C 0.25259 0.16695 0.28897 0.0
H285 H 0.25624 0.177 0.28119 0.0
H286 H 0.24914 0.19175 0.29347 0.0
H287 H 0.22175 0.13398 0.28981 0.0
C288 C 0.36836 0.22198 0.25085 0.0
N289 N 0.33969 0.18263 0.25506 0.0
N290 N 0.34114 0.1879 0.2646 0.0
C291 C 0.37027 0.231 0.26673 0.0
C292 C 0.38853 0.25391 0.25809 0.0
C293 C 0.37832 0.22828 0.24015 0.0
H294 H 0.37877 0.19877 0.23712 0.0
H295 H 0.35178 0.23184 0.23641 0.0
H296 H 0.4111 0.25865 0.2387 0.0
O297 O 0.32066 0.08346 0.25412 0.0
O298 O 0.32536 0.09206 0.27022 0.0
H299 H 0.3978 0.23795 0.281 0.0
H300 H 0.39745 0.28725 0.27671 0.0
C301 C 0.37859 0.25019 0.2768 0.0
H302 H 0.34619 0.23884 0.28055 0.0
H303 H 0.37518 0.15022 0.28831 0.0
O304 O 0.30265 0.12745 0.23518 0.0
C305 C 0.3295 0.07388 0.2625 0.0
Co306 Co 0.17299 0.30308 0.58218 0.0
Co307 Co 0.16393 0.30386 0.60515 0.0
C308 C 0.1148 0.2196 0.59346 0.0
O309 O 0.13018 0.24001 0.58542 0.0
O310 O 0.12626 0.24027 0.60155 0.0
C311 C 0.13822 0.29168 0.56285 0.0
O312 O 0.09999 0.27471 0.56757 0.0
C313 C 0.11862 0.28937 0.62446 0.0
C314 C 0.17533 0.33573 0.63372 0.0
C315 C 0.12989 0.30494 0.634 0.0
N316 N 0.15565 0.31044 0.61884 0.0
N317 N 0.18932 0.33808 0.62446 0.0
C318 C 0.07379 0.25388 0.62083 0.0
H319 H 0.07662 0.23974 0.61385 0.0
H320 H 0.05213 0.26866 0.61959 0.0
H321 H 0.05734 0.22667 0.6263 0.0
C322 C 0.14544 0.37174 0.58397 0.0
N323 N 0.15444 0.34128 0.58787 0.0
N324 N 0.1494 0.34067 0.59741 0.0
C325 C 0.13647 0.37033 0.59984 0.0
C326 C 0.13349 0.39086 0.5914 0.0
C327 C 0.15139 0.3849 0.57343 0.0
H328 H 0.18012 0.38316 0.57032 0.0
H329 H 0.12061 0.36169 0.56937 0.0
H330 H 0.15723 0.41934 0.57251 0.0
O331 O 0.23387 0.32101 0.58691 0.0
O332 O 0.22813 0.32308 0.60303 0.0
H333 H 0.15596 0.39031 0.61462 0.0
H334 H 0.11261 0.40097 0.6103 0.0
C335 C 0.12555 0.3774 0.61002 0.0
H336 H 0.09973 0.34499 0.61308 0.0
H337 H 0.22203 0.35838 0.62198 0.0
O338 O 0.17444 0.30681 0.56768 0.0
C339 C 0.25133 0.32837 0.59538 0.0
Co340 Co 0.86182 0.17425 0.9165 0.0
Co341 Co 0.84837 0.16693 0.93937 0.0
C342 C 0.8859 0.11737 0.92875 0.0
O343 O 0.88256 0.13254 0.92052 0.0
O344 O 0.87461 0.12867 0.93661 0.0
C345 C 0.84515 0.13807 0.89726 0.0
O346 O 0.82945 0.10035 0.90212 0.0
C347 C 0.82046 0.12493 0.95878 0.0
C348 C 0.81237 0.17539 0.967 0.0
C349 C 0.80864 0.1337 0.96784 0.0
N350 N 0.83097 0.15992 0.95286 0.0
N351 N 0.82631 0.19009 0.95785 0.0
C352 C 0.81794 0.08237 0.95555 0.0
H353 H 0.80839 0.07603 0.94774 0.0
H354 H 0.79331 0.05362 0.95998 0.0
H355 H 0.85132 0.08549 0.95646 0.0
C356 C 0.76504 0.14492 0.91733 0.0
N357 N 0.8041 0.15529 0.92166 0.0
N358 N 0.7981 0.15087 0.93117 0.0
C359 C 0.75479 0.13677 0.93318 0.0
C360 C 0.73256 0.13279 0.92448 0.0
C361 C 0.75953 0.14926 0.90663 0.0
H362 H 0.78933 0.17939 0.90371 0.0
H363 H 0.75617 0.11941 0.90283 0.0
H364 H 0.72924 0.15174 0.90511 0.0
O365 O 0.90343 0.23561 0.92108 0.0
O366 O 0.89353 0.23084 0.93715 0.0
H367 H 0.74621 0.15631 0.94743 0.0
H368 H 0.6976 0.10656 0.94294 0.0
C369 C 0.73471 0.12515 0.94317 0.0
H370 H 0.74602 0.10419 0.94695 0.0
H371 H 0.83201 0.22043 0.95496 0.0
O372 O 0.86077 0.17453 0.90198 0.0
C373 C 0.91233 0.25357 0.9295 0.0
Co374 Co 0.66568 0.85583 0.24889 0.0
Co375 Co 0.66172 0.84281 0.27178 0.0
C376 C 0.74546 0.91036 0.26144 0.0
O377 O 0.72697 0.89994 0.25309 0.0
O378 O 0.72374 0.89128 0.26916 0.0
C379 C 0.69861 0.862 0.22936 0.0
O380 O 0.7356 0.87061 0.2339 0.0
C381 C 0.68523 0.8192 0.29086 0.0
C382 C 0.62709 0.80743 0.29981 0.0
C383 C 0.66697 0.80685 0.30019 0.0
N384 N 0.65706 0.8261 0.28528 0.0
N385 N 0.62249 0.81911 0.29071 0.0
C386 C 0.72945 0.82623 0.28737 0.0
H387 H 0.7407 0.84737 0.28076 0.0
H388 H 0.72613 0.79352 0.28546 0.0
H389 H 0.75513 0.84192 0.29317 0.0
C390 C 0.63869 0.75978 0.24965 0.0
N391 N 0.6498 0.79883 0.25404 0.0
N392 N 0.64706 0.79299 0.26357 0.0
C393 C 0.63336 0.74978 0.26552 0.0
C394 C 0.6281 0.7275 0.25678 0.0
C395 C 0.64006 0.75425 0.23885 0.0
H396 H 0.61726 0.76373 0.23522 0.0
H397 H 0.6745 0.77701 0.23619 0.0
H398 H 0.63062 0.71961 0.2368 0.0
O399 O 0.6221 0.87373 0.25332 0.0
O400 O 0.61941 0.86467 0.2694 0.0
H401 H 0.60401 0.74333 0.27965 0.0
H402 H 0.59973 0.69244 0.27511 0.0
C403 C 0.62161 0.72928 0.27548 0.0
H404 H 0.65271 0.73694 0.27941 0.0
H405 H 0.59562 0.82218 0.28818 0.0
O406 O 0.66439 0.85431 0.23435 0.0
C407 C 0.6067 0.87549 0.26165 0.0
C408 C 0.26965 0.05724 0.04584 0.0
C409 C 0.29233 0.10416 0.04524 0.0
C410 C 0.25505 0.03112 0.03739 0.0
C411 C 0.27829 0.03566 0.01107 0.0
H412 H 0.16119 0.92898 1.00986 0.0
C413 C 0.21108 0.93405 0.97549 0.0
C414 C 0.187 0.8872 0.97629 0.0
C415 C 0.2223 0.96094 0.98381 0.0
C416 C 0.1942 0.95839 1.0101 0.0
H417 H 0.31798 0.16034 0.03526 0.0
H418 H 0.29265 0.11481 0.02052 0.0
H419 H 0.18372 0.97478 0.02457 0.0
H420 H 0.15672 0.83195 0.98651 0.0
H421 H 0.17705 0.87869 1.00102 0.0
H422 H 0.28923 0.01905 0.99669 0.0
C423 C 0.28609 0.0982 0.02753 0.0
C424 C 0.20707 0.98467 0.01854 0.0
C425 C 0.30047 0.12428 0.03598 0.0
C426 C 0.17493 0.86794 0.98562 0.0
C427 C 0.18627 0.89478 0.99395 0.0
C428 C 0.26555 0.00928 1.00266 0.0
C429 C 0.26332 0.0513 0.02813 0.0
C430 C 0.24928 0.0236 0.01912 0.0
C431 C 0.21019 0.94167 0.99316 0.0
C432 C 0.22336 0.97024 1.00206 0.0
H433 H 0.26441 0.04048 0.05278 0.0
H434 H 0.23841 -0.00492 0.03809 0.0
H435 H 0.31133 0.06506 0.01134 0.0
H436 H 0.2225 0.95019 0.96849 0.0
H437 H 0.24056 -0.00309 0.98291 0.0
C438 C 0.16213 0.25546 0.37536 0.0
C439 C 0.19148 0.29825 0.37907 0.0
C440 C 0.17405 0.2396 0.36715 0.0
C441 C 0.27039 0.25217 0.35336 0.0
H442 H 0.19028 0.20894 0.33115 0.0
C443 C 0.32829 0.22 0.31628 0.0
C444 C 0.29686 0.1856 0.31032 0.0
C445 C 0.31468 0.23227 0.32477 0.0
C446 C 0.21282 0.22008 0.33732 0.0
H447 H 0.25622 0.35787 0.37719 0.0
H448 H 0.27749 0.32975 0.363 0.0
H449 H 0.16746 0.23133 0.34595 0.0
H450 H 0.22687 0.13554 0.30879 0.0
H451 H 0.2031 0.15575 0.32375 0.0
H452 H 0.31536 0.24003 0.34495 0.0
C453 C 0.24527 0.30857 0.36641 0.0
C454 C 0.19971 0.23309 0.34579 0.0
C455 C 0.23302 0.32472 0.37448 0.0
C456 C 0.25165 0.16298 0.31313 0.0
C457 C 0.23807 0.1747 0.32171 0.0
C458 C 0.28322 0.23845 0.34496 0.0
C459 C 0.21582 0.26599 0.36261 0.0
C460 C 0.22858 0.24974 0.35385 0.0
C461 C 0.26935 0.20969 0.32765 0.0
C462 C 0.25488 0.22271 0.33676 0.0
H463 H 0.12962 0.23466 0.37867 0.0
H464 H 0.15075 0.20663 0.36436 0.0
H465 H 0.29309 0.26444 0.35951 0.0
H466 H 0.36338 0.23799 0.31427 0.0
H467 H 0.33975 0.25992 0.329 0.0
C468 C 0.86532 0.18039 0.70279 0.0
C469 C 0.88486 0.18836 0.71211 0.0
C470 C 0.89187 0.19258 0.69439 0.0
C471 C 0.00141 0.21667 0.68509 0.0
H472 H 0.97991 0.28187 0.66478 0.0
C473 C 0.12039 0.29233 0.65204 0.0
C474 C 0.10145 0.2915 0.64291 0.0
C475 C 0.09429 0.27994 0.66051 0.0
C476 C 0.98602 0.26307 0.67029 0.0
H477 H 0.94841 0.21788 0.71979 0.0
H478 H -0.00566 0.23726 0.70516 0.0
H479 H 0.93341 0.25861 0.67939 0.0
H480 H 0.04047 0.27979 0.63572 0.0
H481 H -0.00546 0.25572 0.65029 0.0
H482 H 0.05328 0.22009 0.67595 0.0
C483 C 0.95829 0.22083 0.7044 0.0
C484 C 0.9594 0.24991 0.67868 0.0
C485 C 0.93176 0.20915 0.71281 0.0
C486 C 0.05594 0.27898 0.6425 0.0
C487 C 0.0297 0.26612 0.65096 0.0
C488 C 0.0277 0.22934 0.67663 0.0
C489 C 0.93864 0.21291 0.6951 0.0
C490 C 0.96685 0.22663 0.68618 0.0
C491 C 0.04845 0.26636 0.66009 0.0
C492 C 0.02043 0.2528 0.66911 0.0
H493 H 0.82935 0.16467 0.70196 0.0
H494 H 0.87575 0.18583 0.68732 0.0
H495 H 0.00761 0.19836 0.6907 0.0
H496 H 0.15549 0.30234 0.65264 0.0
H497 H 0.11027 0.28155 0.66741 0.0
C498 C 0.81814 0.08446 0.97986 0.0
C499 C 0.79411 0.10494 0.97661 0.0
C500 C 0.8047 0.05784 0.98825 0.0
C501 C 0.70812 0.9858 1.00301 0.0
H502 H 0.79181 0.01223 0.02425 0.0
C503 C 0.65125 0.88969 0.03953 0.0
C504 C 0.68206 0.88283 0.04482 0.0
C505 C 0.66496 0.91732 0.03128 0.0
C506 C 0.76811 0.00368 0.01834 0.0
H507 H 0.73746 0.11396 0.97955 0.0
H508 H 0.71301 0.06606 0.9941 0.0
H509 H 0.81582 0.05851 1.00961 0.0
H510 H 0.75082 0.89772 0.0455 0.0
H511 H 0.77457 0.9442 0.03089 0.0
H512 H 0.66086 0.92997 0.01143 0.0
C513 C 0.74239 0.07094 0.99018 0.0
C514 C 0.78191 0.03052 1.00998 0.0
C515 C 0.75643 0.09838 0.9819 0.0
C516 C 0.72663 0.90325 0.04163 0.0
C517 C 0.7402 0.93011 0.03327 0.0
C518 C 0.69454 0.95834 0.01127 0.0
C519 C 0.76653 0.0506 0.99345 0.0
C520 C 0.75198 0.02194 1.00227 0.0
C521 C 0.70965 0.93784 0.02799 0.0
C522 C 0.72425 0.96695 0.01911 0.0
H523 H 0.84771 0.08958 0.97598 0.0
H524 H 0.82382 0.04246 0.99063 0.0
H525 H 0.68456 0.97829 0.9971 0.0
H526 H 0.61667 0.87436 0.04187 0.0
H527 H 0.6405 0.92296 0.02759 0.0
C528 C 0.71095 0.77512 0.30828 0.0
C529 C 0.68448 0.79545 0.30899 0.0
C530 C 0.72604 0.7637 0.31668 0.0
C531 C 0.69871 0.73467 0.34241 0.0
H532 H 0.82312 0.76656 0.34501 0.0
C533 C 0.76798 0.70651 0.37843 0.0
C534 C 0.80137 0.69459 0.37792 0.0
C535 C 0.75411 0.71926 0.37004 0.0
C536 C 0.7881 0.75674 0.34436 0.0
H537 H 0.65214 0.81849 0.31915 0.0
H538 H 0.67781 0.79778 0.33378 0.0
H539 H 0.79831 0.78758 0.3303 0.0
H540 H 0.84486 0.68484 0.36805 0.0
H541 H 0.81959 0.70537 0.3534 0.0
H542 H 0.68795 0.70282 0.35631 0.0
C543 C 0.68728 0.7912 0.32671 0.0
C544 C 0.77399 0.769 0.33594 0.0
C545 C 0.67268 0.80312 0.31832 0.0
C546 C 0.81944 0.69434 0.36875 0.0
C547 C 0.80525 0.70659 0.36034 0.0
C548 C 0.71266 0.72191 0.35078 0.0
C549 C 0.7142 0.77144 0.32598 0.0
C550 C 0.72919 0.75824 0.33489 0.0
C551 C 0.77257 0.71953 0.36087 0.0
C552 C 0.75761 0.7329 0.3519 0.0
H553 H 0.71904 0.76661 0.30129 0.0
H554 H 0.74602 0.74769 0.31591 0.0
H555 H 0.66382 0.7254 0.34175 0.0
H556 H 0.75169 0.70525 0.38524 0.0
H557 H 0.72903 0.72916 0.37078 0.0
C558 C 0.1235 0.82422 0.70233 0.0
C559 C 0.10444 0.80549 0.71143 0.0
C560 C 0.09746 0.81109 0.69385 0.0
C561 C 0.98177 0.76257 0.68528 0.0
H562 H 0.02422 0.73145 0.66205 0.0
C563 C 0.86705 0.68072 0.65199 0.0
C564 C 0.88592 0.69153 0.6426 0.0
C565 C 0.89413 0.69582 0.6603 0.0
C566 C 0.01207 0.74075 0.6684 0.0
H567 H 0.0434 0.75551 0.71851 0.0
H568 H -0.00224 0.73421 0.70384 0.0
H569 H 0.07089 0.75599 0.67662 0.0
H570 H 0.94891 0.7251 0.6347 0.0
H571 H -0.00433 0.75369 0.64907 0.0
H572 H 0.92345 0.7484 0.67708 0.0
C573 C 0.03272 0.75979 0.70333 0.0
C574 C 0.03882 0.75462 0.67677 0.0
C575 C 0.05889 0.77248 0.71178 0.0
C576 C 0.93274 0.71757 0.64174 0.0
C577 C 0.95983 0.73315 0.65005 0.0
C578 C 0.95526 0.74929 0.67688 0.0
C579 C 0.05169 0.77903 0.69428 0.0
C580 C 0.0238 0.76536 0.68532 0.0
C581 C 0.94094 0.72235 0.65945 0.0
C582 C 0.96986 0.73785 0.66833 0.0
H583 H 0.15855 0.84948 0.70177 0.0
H584 H 0.11297 0.82655 0.68697 0.0
H585 H 0.9696 0.77121 0.69174 0.0
H586 H 0.83116 0.6603 0.65295 0.0
H587 H 0.87826 0.6859 0.66738 0.0
C588 C 0.56331 0.90258 0.1042 0.0
C589 C 0.55494 0.86822 0.09762 0.0
C590 C 0.53332 0.91835 0.10501 0.0
C591 C 0.44862 0.92757 0.09078 0.0
H592 H 0.42594 0.96812 0.11537 0.0
C593 C 0.34471 0.01575 0.09289 0.0
C594 C 0.36471 0.05548 0.09831 0.0
C595 C 0.36099 0.98609 0.09353 0.0
C596 C 0.43201 0.95694 0.10846 0.0
H597 H 0.50824 0.82186 0.08706 0.0
H598 H 0.45543 0.8494 0.08846 0.0
H599 H 0.4668 0.92732 0.11524 0.0
H600 H 0.41696 0.0957 0.10864 0.0
H601 H 0.44552 0.04389 0.1098 0.0
H602 H 0.41487 0.95813 0.08398 0.0
C603 C 0.48546 0.86462 0.09288 0.0
C604 C 0.4554 0.93365 0.10838 0.0
C605 C 0.51555 0.84889 0.09207 0.0
C606 C 0.40063 0.06484 0.10451 0.0
C607 C 0.41683 0.03516 0.10519 0.0
C608 C 0.42516 0.95076 0.09087 0.0
C609 C 0.49434 0.89993 0.09927 0.0
C610 C 0.46484 0.91964 0.09951 0.0
C611 C 0.39752 -0.00425 0.09961 0.0
C612 C 0.41752 0.96655 0.09968 0.0
H613 H 0.59372 0.91813 0.1085 0.0
H614 H 0.5415 0.94605 0.10988 0.0
H615 H 0.45584 0.91772 0.08383 0.0
H616 H 0.31675 0.00787 0.0881 0.0
H617 H 0.34526 0.95579 0.08921 0.0
C618 C 0.33068 0.43182 0.42672 0.0
C619 C 0.30549 0.39193 0.4319 0.0
C620 C 0.37717 0.45467 0.42727 0.0
C621 C 0.4732 0.46576 0.4414 0.0
H622 H 0.53521 0.51161 0.4168 0.0
C623 C 0.66424 0.53838 0.43582 0.0
C624 C 0.68586 0.57868 0.4306 0.0
C625 C 0.61759 0.51479 0.43657 0.0
C626 C 0.51832 0.49924 0.42373 0.0
H627 H 0.30791 0.34521 0.44205 0.0
H628 H 0.38994 0.38482 0.44289 0.0
H629 H 0.45384 0.47204 0.41718 0.0
H630 H 0.67674 0.62665 0.42221 0.0
H631 H 0.59519 0.58527 0.4234 0.0
H632 H 0.53824 0.49284 0.44788 0.0
C633 C 0.37381 0.39866 0.43847 0.0
C634 C 0.47179 0.47673 0.42396 0.0
C635 C 0.32709 0.37594 0.43796 0.0
C636 C 0.66053 0.59531 0.42619 0.0
C637 C 0.61405 0.5717 0.42687 0.0
C638 C 0.51996 0.48814 0.44115 0.0
C639 C 0.39928 0.43781 0.43297 0.0
C640 C 0.44872 0.46029 0.43281 0.0
C641 C 0.59216 0.5311 0.432 0.0
C642 C 0.54282 0.50553 0.43232 0.0
H643 H 0.31435 0.44504 0.42215 0.0
H644 H 0.39585 0.48536 0.42315 0.0
H645 H 0.45629 0.45365 0.44833 0.0
H646 H 0.68337 0.52489 0.4392 0.0
H647 H 0.60137 0.48335 0.4405 0.0
C648 C 0.08194 0.66048 0.76995 0.0
C649 C 0.11793 0.68711 0.76375 0.0
C650 C 0.06611 0.61474 0.7707 0.0
C651 C 0.06016 0.52157 0.75689 0.0
H652 H 0.01703 0.45849 0.78146 0.0
C653 C 0.97235 0.32935 0.75935 0.0
C654 C 0.93225 0.30952 0.76468 0.0
C655 C 0.00169 0.37541 0.75988 0.0
C656 C 0.02891 0.47568 0.77455 0.0
H657 H 0.16696 0.68787 0.75379 0.0
H658 H 0.13903 0.60736 0.75502 0.0
H659 H 0.05726 0.54009 0.78125 0.0
H660 H 0.89096 0.32154 0.77471 0.0
H661 H 0.94216 0.40204 0.77569 0.0
H662 H 0.03074 0.4572 0.75015 0.0
C663 C 0.12272 0.62176 0.75921 0.0
C664 C 0.0519 0.52232 0.77442 0.0
C665 C 0.13863 0.66763 0.75848 0.0
C666 C 0.92213 0.33613 0.77067 0.0
C667 C 0.95146 0.3821 0.77124 0.0
C668 C 0.03719 0.47491 0.75701 0.0
C669 C 0.08605 0.5948 0.76527 0.0
C670 C 0.0668 0.5457 0.76557 0.0
C671 C 0.99133 0.40229 0.76578 0.0
C672 C 0.02041 0.45152 0.76581 0.0
H673 H 0.06541 0.67492 0.77404 0.0
H674 H 0.03735 0.59477 0.77531 0.0
H675 H 0.07083 0.53864 0.74994 0.0
H676 H 0.98076 0.30924 0.75471 0.0
H677 H 0.03233 0.39002 0.75566 0.0
C678 C 0.08291 0.41458 0.58402 0.0
C679 C 0.11816 0.42352 0.59039 0.0
C680 C 0.06657 0.44412 0.58333 0.0
C681 C 0.05843 0.52946 0.59757 0.0
H682 H 0.01379 0.54904 0.57318 0.0
C683 C 0.96936 0.633 0.59534 0.0
C684 C 0.92872 0.61207 0.59022 0.0
C685 C -0.0012 0.6164 0.59475 0.0
C686 C 0.02612 0.54384 0.58004 0.0
H687 H 0.16564 0.47086 0.6007 0.0
H688 H 0.13713 0.52297 0.59952 0.0
H689 H 0.05536 0.50899 0.57315 0.0
H690 H 0.88649 0.55754 0.58056 0.0
H691 H 0.93806 0.52863 0.57943 0.0
H692 H 0.02838 0.56354 0.60446 0.0
C693 C 0.12158 0.49277 0.59518 0.0
C694 C 0.04984 0.5209 0.58003 0.0
C695 C 0.13788 0.4631 0.59586 0.0
C696 C 0.91809 0.57467 0.58442 0.0
C697 C 0.94759 0.55824 0.58378 0.0
C698 C 0.03486 0.55257 0.59757 0.0
C699 C 0.08537 0.4833 0.58899 0.0
C700 C 0.06529 0.5125 0.58882 0.0
C701 C 0.98807 0.5787 0.589 0.0
C702 C 0.01757 0.55904 0.58883 0.0
H703 H 0.06713 0.38406 0.57977 0.0
H704 H 0.0382 0.43545 0.57862 0.0
H705 H 0.06943 0.5231 0.60448 0.0
H706 H 0.97816 0.66201 0.59984 0.0
H707 H 0.02988 0.63293 0.59881 0.0
C708 C 0.65899 0.08266 0.91666 0.0
C709 C 0.68475 0.11773 0.9231 0.0
C710 C 0.6131 0.06636 0.9158 0.0
C711 C 0.51893 0.05789 0.92987 0.0
H712 H 0.45486 0.01335 0.90548 0.0
C713 C 0.3267 0.9699 0.92802 0.0
C714 C 0.30647 0.92935 0.9229 0.0
C715 C 0.37272 -0.00077 0.92724 0.0
C716 C 0.47236 0.02563 0.91234 0.0
H717 H 0.68394 0.16495 0.93334 0.0
H718 H 0.60347 0.13664 0.93183 0.0
H719 H 0.53664 0.05448 0.90548 0.0
H720 H 0.31772 0.88731 0.91296 0.0
H721 H 0.39827 0.93856 0.91155 0.0
H722 H 0.45478 0.02821 0.93676 0.0
C723 C 0.61849 0.12117 0.92756 0.0
C724 C 0.5191 0.04911 0.91235 0.0
C725 C 0.66439 0.13738 0.92843 0.0
C726 C 0.33264 0.91881 0.91685 0.0
C727 C 0.37861 0.94815 0.91603 0.0
C728 C 0.47224 0.03454 0.92986 0.0
C729 C 0.59222 0.085 0.92135 0.0
C730 C 0.54287 0.06467 0.92114 0.0
C731 C 0.3992 0.98841 0.92132 0.0
C732 C 0.4485 0.01739 0.92113 0.0
H733 H 0.67411 0.06691 0.91252 0.0
H734 H 0.59373 0.03805 0.91106 0.0
H735 H 0.53621 0.06887 0.93679 0.0
H736 H 0.30693 0.97867 0.93269 0.0
H737 H 0.38765 0.03019 0.93133 0.0
C738 C 0.4114 0.32755 0.2504 0.0
C739 C 0.42097 0.30184 0.25682 0.0
C740 C 0.44103 0.37334 0.24947 0.0
C741 C 0.52811 0.46791 0.26316 0.0
H742 H 0.54676 0.53018 0.23853 0.0
C743 C 0.6332 0.65963 0.26058 0.0
C744 C 0.61254 0.6796 0.25547 0.0
C745 C 0.61641 0.61363 0.25993 0.0
C746 C 0.54181 0.5132 0.24545 0.0
H747 H 0.46933 0.30274 0.267 0.0
H748 H 0.52152 0.3831 0.26539 0.0
H749 H 0.50548 0.44855 0.23886 0.0
H750 H 0.55874 0.66796 0.24563 0.0
H751 H 0.5293 0.58746 0.24442 0.0
H752 H 0.56351 0.53247 0.26978 0.0
C753 C 0.49084 0.36807 0.26118 0.0
C754 C 0.51817 0.46654 0.24565 0.0
C755 C 0.46111 0.32223 0.26211 0.0
C756 C 0.57556 0.65324 0.24951 0.0
C757 C 0.55885 0.60728 0.24882 0.0
C758 C 0.55184 0.51454 0.26296 0.0
C759 C 0.48084 0.39421 0.25493 0.0
C760 C 0.51024 0.44342 0.25453 0.0
C761 C 0.57871 0.58691 0.25413 0.0
C762 C 0.55811 0.53765 0.25413 0.0
H763 H 0.38042 0.31242 0.2463 0.0
H764 H 0.43197 0.39261 0.24472 0.0
H765 H 0.52208 0.45114 0.27014 0.0
H766 H 0.66195 0.67956 0.26519 0.0
H767 H 0.63261 0.59887 0.26403 0.0
C768 C 0.30383 0.12568 0.21435 0.0
C769 C 0.28315 0.14511 0.21969 0.0
C770 C 0.30444 0.12701 0.20414 0.0
C771 C 0.24642 0.1429 0.18306 0.0
H772 H 0.35059 0.15979 0.16869 0.0
C773 C 0.2423 0.12058 0.14134 0.0
C774 C 0.28028 0.15072 0.13597 0.0
C775 C 0.24348 0.12004 0.15152 0.0
C776 C 0.32135 0.15542 0.17259 0.0
H777 H 0.2476 0.1819 0.21849 0.0
H778 H 0.24933 0.18489 0.20075 0.0
H779 H 0.35175 0.16 0.18647 0.0
H780 H 0.34944 0.20387 0.13712 0.0
H781 H 0.35127 0.20346 0.15491 0.0
H782 H 0.21641 0.13946 0.16921 0.0
C783 C 0.2643 0.16779 0.20442 0.0
C784 C 0.3218 0.15497 0.18279 0.0
C785 C 0.26353 0.1663 0.21461 0.0
C786 C 0.31959 0.18017 0.14103 0.0
C787 C 0.32072 0.17974 0.15124 0.0
C788 C 0.24601 0.14347 0.17287 0.0
C789 C 0.28453 0.14795 0.19904 0.0
C790 C 0.28431 0.14866 0.18817 0.0
C791 C 0.28261 0.14976 0.15662 0.0
C792 C 0.2834 0.14961 0.16749 0.0
H793 H 0.3192 0.10902 0.21804 0.0
H794 H 0.31982 0.11089 0.20025 0.0
H795 H 0.21672 0.1374 0.18694 0.0
H796 H 0.21154 0.09723 0.13768 0.0
H797 H 0.21373 0.09596 0.15541 0.0
C798 C 0.16099 0.27971 0.4736 0.0
C799 C 0.13534 0.29419 0.46847 0.0
C800 C 0.16228 0.28077 0.48379 0.0
C801 C 0.13375 0.32848 0.50534 0.0
H802 H 0.1476 0.23846 0.51931 0.0
C803 C 0.10353 0.29331 0.54694 0.0
C804 C 0.13907 0.29388 0.55208 0.0
C805 C 0.10403 0.29493 0.53675 0.0
C806 C 0.14396 0.26391 0.51548 0.0
H807 H 0.09037 0.32053 0.46997 0.0
H808 H 0.09063 0.3203 0.48773 0.0
H809 H 0.14508 0.23699 0.50155 0.0
H810 H 0.20285 0.29637 0.55059 0.0
H811 H 0.20292 0.29771 0.53272 0.0
H812 H 0.13065 0.35391 0.51942 0.0
C813 C 0.1112 0.30962 0.48394 0.0
C814 C 0.1428 0.26336 0.50529 0.0
C815 C 0.1107 0.30945 0.47374 0.0
C816 C 0.17507 0.296 0.54682 0.0
C817 C 0.17505 0.29659 0.53662 0.0
C818 C 0.13395 0.32839 0.51555 0.0
C819 C 0.13714 0.29544 0.48914 0.0
C820 C 0.13792 0.29579 0.50005 0.0
C821 C 0.13957 0.29614 0.5315 0.0
C822 C 0.13929 0.29626 0.5207 0.0
H823 H 0.18075 0.26825 0.46972 0.0
H824 H 0.18352 0.27056 0.48745 0.0
H825 H 0.13087 0.3546 0.50164 0.0
H826 H 0.07546 0.29192 0.5508 0.0
H827 H 0.07622 0.29439 0.53295 0.0
C828 C 0.86808 0.12398 0.80805 0.0
C829 C 0.83757 0.13146 0.80275 0.0
C830 C 0.86877 0.12553 0.81823 0.0
C831 C 0.83309 0.1669 0.83942 0.0
H832 H 0.85186 0.08048 0.85359 0.0
C833 C 0.86298 0.17812 0.88115 0.0
C834 C 0.84355 0.13786 0.88645 0.0
C835 C 0.86175 0.1777 0.87095 0.0
C836 C 0.84616 0.10462 0.84977 0.0
H837 H 0.78394 0.1467 0.80402 0.0
H838 H 0.78463 0.14868 0.82181 0.0
H839 H 0.8497 0.07858 0.83586 0.0
H840 H 0.8069 0.06558 0.88518 0.0
H841 H 0.80409 0.06484 0.86744 0.0
H842 H 0.82841 0.19219 0.85336 0.0
C843 C 0.80851 0.14225 0.81808 0.0
C844 C 0.84553 0.10392 0.83958 0.0
C845 C 0.80792 0.14084 0.80788 0.0
C846 C 0.82251 0.09722 0.88132 0.0
C847 C 0.82111 0.09679 0.87113 0.0
C848 C 0.83361 0.16754 0.84963 0.0
C849 C 0.83884 0.13443 0.82339 0.0
C850 C 0.8391 0.13511 0.83426 0.0
C851 C 0.84091 0.13701 0.8658 0.0
C852 C 0.84019 0.13641 0.85493 0.0
H853 H 0.89159 0.11694 0.80434 0.0
H854 H 0.89312 0.12013 0.82206 0.0
H855 H 0.8285 0.19171 0.83557 0.0
H856 H 0.87954 0.21002 0.88488 0.0
H857 H 0.87784 0.20931 0.86709 0.0
C858 C 0.67441 0.80966 0.14033 0.0
C859 C 0.69151 0.84985 0.13505 0.0
C860 C 0.67356 0.80985 0.15053 0.0
C861 C 0.67488 0.87657 0.17161 0.0
H862 H 0.716 0.80705 0.18594 0.0
C863 C 0.65846 0.85452 0.21358 0.0
C864 C 0.69638 0.85964 0.21856 0.0
C865 C 0.65657 0.85242 0.20339 0.0
C866 C 0.70454 0.82673 0.18204 0.0
H867 H 0.72057 0.92169 0.13637 0.0
H868 H 0.71884 0.92192 0.15415 0.0
H869 H 0.71506 0.80529 0.16813 0.0
H870 H 0.76192 0.86628 0.21673 0.0
H871 H 0.75849 0.86245 0.19897 0.0
H872 H 0.66476 0.89833 0.18552 0.0
C873 C 0.70602 0.89027 0.1504 0.0
C874 C 0.70361 0.8254 0.17184 0.0
C875 C 0.70725 0.89014 0.1402 0.0
C876 C 0.73222 0.86235 0.21313 0.0
C877 C 0.73016 0.85988 0.20295 0.0
C878 C 0.67543 0.87759 0.18181 0.0
C879 C 0.68936 0.85016 0.15568 0.0
C880 C 0.68905 0.85054 0.16651 0.0
C881 C 0.69238 0.855 0.19796 0.0
C882 C 0.69056 0.85292 0.18713 0.0
H883 H 0.66197 0.77803 0.13659 0.0
H884 H 0.66014 0.77836 0.1544 0.0
H885 H 0.66313 0.89601 0.1677 0.0
H886 H 0.63024 0.85225 0.21755 0.0
H887 H 0.62684 0.84825 0.19976 0.0
C888 C 0.83319 0.72515 0.47395 0.0
C889 C 0.84931 0.70125 0.46867 0.0
C890 C 0.83112 0.72307 0.48412 0.0
C891 C 0.83193 0.65659 0.50533 0.0
H892 H 0.86234 0.76529 0.51947 0.0
C893 C 0.80479 0.65852 0.54704 0.0
C894 C 0.83711 0.69545 0.55234 0.0
C895 C 0.80641 0.65815 0.53684 0.0
C896 C 0.85415 0.73468 0.51566 0.0
H897 H 0.87562 0.65611 0.46996 0.0
H898 H 0.87287 0.65319 0.48776 0.0
H899 H 0.86586 0.76675 0.50177 0.0
H900 H 0.89709 0.7605 0.55106 0.0
H901 H 0.90043 0.75948 0.53336 0.0
H902 H 0.82147 0.62487 0.51928 0.0
C903 C 0.86114 0.67301 0.48401 0.0
C904 C 0.85556 0.73538 0.50548 0.0
C905 C 0.86298 0.67489 0.47381 0.0
C906 C 0.87141 0.73167 0.54722 0.0
C907 C 0.87318 0.73119 0.53704 0.0
C908 C 0.8307 0.65593 0.51554 0.0
C909 C 0.84539 0.69728 0.4893 0.0
C910 C 0.84431 0.69633 0.50017 0.0
C911 C 0.84052 0.69461 0.5317 0.0
C912 C 0.84179 0.695 0.52084 0.0
H913 H 0.82201 0.74548 0.47023 0.0
H914 H 0.81796 0.74151 0.48793 0.0
H915 H 0.82263 0.62578 0.50149 0.0
H916 H 0.77789 0.63009 0.55076 0.0
H917 H 0.78041 0.62964 0.53297 0.0
C918 C 0.13226 0.80054 0.88096 0.0
C919 C 0.12709 0.83343 0.88585 0.0
C920 C 0.13473 0.8006 0.87077 0.0
C921 C 0.16145 0.87397 0.84932 0.0
H922 H 0.09162 0.76331 0.83505 0.0
C923 C 0.1779 0.86118 0.80758 0.0
C924 C 0.13749 0.83854 0.80236 0.0
C925 C 0.17797 0.85977 0.81778 0.0
C926 C 0.11125 0.79448 0.83893 0.0
H927 H 0.1208 0.89237 0.88387 0.0
H928 H 0.1253 0.89252 0.86612 0.0
H929 H 0.08917 0.76273 0.85287 0.0
H930 H 0.06552 0.79603 0.80377 0.0
H931 H 0.06573 0.79343 0.82155 0.0
H932 H 0.18314 0.90581 0.83539 0.0
C933 C 0.12761 0.8668 0.87016 0.0
C934 C 0.11015 0.79408 0.84913 0.0
C935 C 0.12475 0.86652 0.88033 0.0
C936 C 0.09724 0.81393 0.80756 0.0
C937 C 0.09736 0.81219 0.81775 0.0
C938 C 0.16287 0.8743 0.83912 0.0
C939 C 0.13252 0.83379 0.86526 0.0
C940 C 0.13494 0.8339 0.85444 0.0
C941 C 0.13768 0.83533 0.82298 0.0
C942 C 0.1375 0.83462 0.83381 0.0
H943 H 0.13424 0.77461 0.88499 0.0
H944 H 0.1389 0.77495 0.8672 0.0
H945 H 0.18123 0.90512 0.8532 0.0
H946 H 0.2095 0.88039 0.80379 0.0
H947 H 0.20961 0.87761 0.8216 0.0
C948 C 0.62654 0.66079 0.1001 0.0
C949 C 0.63066 0.68532 0.09159 0.0
C950 C 0.60359 0.61419 0.09992 0.0
C951 C 0.55771 0.51476 0.08407 0.0
H952 H 0.46986 0.46098 0.10477 0.0
C953 C 0.41663 0.32904 0.08373 0.0
C954 C 0.40452 0.30625 0.0927 0.0
C955 C 0.44727 0.37493 0.08338 0.0
C956 C 0.49466 0.47527 0.09902 0.0
H957 H 0.61612 0.68001 0.07608 0.0
H958 H 0.57581 0.59834 0.07581 0.0
H959 H 0.51961 0.54143 0.10449 0.0
H960 H 0.41632 0.31355 0.10832 0.0
H961 H 0.47022 0.3931 0.10769 0.0
H962 H 0.53257 0.44833 0.0786 0.0
C963 C 0.59049 0.61537 0.0826 0.0
C964 C 0.52317 0.52144 0.09886 0.0
C965 C 0.61346 0.66215 0.08277 0.0
C966 C 0.42446 0.33013 0.10129 0.0
C967 C 0.45526 0.37584 0.10094 0.0
C968 C 0.52927 0.46835 0.08426 0.0
C969 C 0.58426 0.59098 0.09124 0.0
C970 C 0.55502 0.54171 0.0914 0.0
C971 C 0.46663 0.39893 0.092 0.0
C972 C 0.49741 0.4481 0.09175 0.0
H973 H 0.63979 0.67749 0.10699 0.0
H974 H 0.60005 0.59625 0.10665 0.0
H975 H 0.58212 0.5295 0.07826 0.0
H976 H 0.40189 0.31162 0.07697 0.0
H977 H 0.45491 0.39175 0.07639 0.0
C978 C 0.08385 0.42851 0.43244 0.0
C979 C 0.09096 0.40905 0.42414 0.0
C980 C 0.07197 0.4614 0.43148 0.0
C981 C 0.01799 0.50221 0.41489 0.0
H982 H 0.06962 0.60517 0.43207 0.0
C983 C 0.95595 0.62863 0.41465 0.0
C984 C 0.94618 0.63886 0.42393 0.0
C985 C 0.98106 0.6073 0.41371 0.0
C986 C 0.05487 0.57657 0.42724 0.0
H987 H 0.09115 0.40888 0.4083 0.0
H988 H 0.06994 0.46626 0.40665 0.0
H989 H 0.09886 0.5538 0.43221 0.0
H990 H 0.95696 0.63663 0.43948 0.0
H991 H 0.0001 0.59895 0.43783 0.0
H992 H 0.97293 0.52394 0.41016 0.0
C993 C 0.07361 0.4559 0.41389 0.0
C994 C 0.07159 0.54722 0.42731 0.0
C995 C 0.08578 0.42312 0.41484 0.0
C996 C 0.96375 0.62914 0.43222 0.0
C997 C 0.9888 0.6078 0.43127 0.0
C998 C 0.00116 0.53148 0.41483 0.0
C999 C 0.06675 0.47543 0.42221 0.0
C1000 C 0.0526 0.50921 0.4213 0.0
C1001 C -0.00307 0.59583 0.42202 0.0
C1002 C 0.01875 0.56839 0.42117 0.0
H1003 H 0.0876 0.41853 0.43971 0.0
H1004 H 0.06615 0.47535 0.43802 0.0
H1005 H 0.00248 0.47297 0.41024 0.0
H1006 H 0.94321 0.63597 0.40811 0.0
H1007 H 0.98734 0.59904 0.40648 0.0
C1008 C 0.32595 0.96565 0.76738 0.0
C1009 C 0.30143 0.94588 0.75884 0.0
C1010 C 0.37263 0.98946 0.7672 0.0
C1011 C 0.47219 0.04425 0.75126 0.0
H1012 H 0.52648 0.01011 0.77181 0.0
C1013 C 0.65817 0.08893 0.75064 0.0
C1014 C 0.68112 0.09963 0.75959 0.0
C1015 C 0.61223 0.07376 0.75035 0.0
C1016 C 0.51204 0.02063 0.7661 0.0
H1017 H 0.30684 0.93789 0.74329 0.0
H1018 H 0.3886 0.97943 0.743 0.0
H1019 H 0.4459 0.97909 0.77163 0.0
H1020 H 0.67407 0.10433 0.77521 0.0
H1021 H 0.59446 0.07877 0.77468 0.0
H1022 H 0.53863 0.08577 0.74572 0.0
C1023 C 0.37153 0.97651 0.74982 0.0
C1024 C 0.46578 0.00279 0.766 0.0
C1025 C 0.32469 0.95259 0.75 0.0
C1026 C 0.65737 0.09587 0.7682 0.0
C1027 C 0.61162 0.08102 0.7679 0.0
C1028 C 0.51868 0.06233 0.75138 0.0
C1029 C 0.39593 0.99411 0.75848 0.0
C1030 C 0.44532 0.01439 0.75859 0.0
C1031 C 0.58835 0.0692 0.759 0.0
C1032 C 0.53911 0.0507 0.75882 0.0
H1033 H 0.30918 0.96162 0.7743 0.0
H1034 H 0.39055 0.00342 0.77395 0.0
H1035 H 0.45733 0.05396 0.74549 0.0
H1036 H 0.67547 0.09148 0.74387 0.0
H1037 H 0.59525 0.06453 0.74338 0.0
C1038 C 0.65315 0.55428 0.5876 0.0
C1039 C 0.6788 0.57321 0.59606 0.0
C1040 C 0.60769 0.52253 0.58829 0.0
C1041 C 0.51084 0.48447 0.60451 0.0
H1042 H 0.45721 0.38167 0.5873 0.0
C1043 C 0.32138 0.3587 0.60544 0.0
C1044 C 0.30029 0.34685 0.59627 0.0
C1045 C 0.36806 0.3807 0.60614 0.0
C1046 C 0.47165 0.41032 0.59212 0.0
H1047 H 0.67669 0.57315 0.61189 0.0
H1048 H 0.59721 0.51776 0.61306 0.0
H1049 H 0.53817 0.43169 0.58711 0.0
H1050 H 0.31183 0.34716 0.5807 0.0
H1051 H 0.3929 0.38591 0.58192 0.0
H1052 H 0.44436 0.46396 0.60933 0.0
C1053 C 0.61235 0.52777 0.6059 0.0
C1054 C 0.51799 0.43894 0.59201 0.0
C1055 C 0.65792 0.55939 0.60522 0.0
C1056 C 0.32688 0.35581 0.58788 0.0
C1057 C 0.37347 0.37783 0.58858 0.0
C1058 C 0.46448 0.45594 0.60459 0.0
C1059 C 0.58674 0.50907 0.59744 0.0
C1060 C 0.53801 0.47672 0.59809 0.0
C1061 C 0.39467 0.39133 0.5977 0.0
C1062 C 0.44426 0.41892 0.59829 0.0
H1063 H 0.6681 0.56407 0.58043 0.0
H1064 H 0.58871 0.50919 0.58163 0.0
H1065 H 0.5252 0.51357 0.6092 0.0
H1066 H 0.30194 0.35209 0.61206 0.0
H1067 H 0.38334 0.39003 0.61329 0.0
C1068 C 0.08704 0.65464 0.92139 0.0
C1069 C 0.09469 0.68039 0.92986 0.0
C1070 C 0.07329 0.60923 0.92206 0.0
C1071 C 0.0156 0.51286 0.93836 0.0
H1072 H 0.06411 0.45901 0.921 0.0
C1073 C 0.95197 0.32382 0.93944 0.0
C1074 C 0.9426 0.30251 0.93031 0.0
C1075 C 0.97663 0.37043 0.94008 0.0
C1076 C 0.05007 0.4735 0.92587 0.0
H1077 H 0.09418 0.67853 0.94569 0.0
H1078 H 0.06991 0.59912 0.94683 0.0
H1079 H 0.09495 0.53984 0.92075 0.0
H1080 H 0.95349 0.31357 0.91471 0.0
H1081 H -0.00432 0.39456 0.91582 0.0
H1082 H 0.96983 0.4466 0.94328 0.0
C1083 C 0.07442 0.61417 0.93968 0.0
C1084 C 0.06774 0.51977 0.92572 0.0
C1085 C 0.08845 0.65968 0.93902 0.0
C1086 C 0.96001 0.32881 0.92187 0.0
C1087 C 0.98452 0.37535 0.92251 0.0
C1088 C -0.00222 0.46658 0.93847 0.0
C1089 C 0.06664 0.58847 0.93121 0.0
C1090 C 0.05024 0.53984 0.93186 0.0
C1091 C -0.00761 0.39677 0.9316 0.0
C1092 C 0.01434 0.44628 0.93213 0.0
H1093 H 0.0916 0.6695 0.91422 0.0
H1094 H 0.06699 0.59015 0.9154 0.0
H1095 H 0.00109 0.52731 0.9431 0.0
H1096 H 0.93933 0.30459 0.9461 0.0
H1097 H 0.98275 0.38588 0.94721 0.0
C1098 C 0.55545 0.89838 0.25388 0.0
C1099 C 0.57311 0.89011 0.26236 0.0
C1100 C 0.52389 0.91233 0.25454 0.0
C1101 C 0.48497 0.96938 0.27095 0.0
H1102 H 0.38329 0.92282 0.25341 0.0
C1103 C 0.35977 0.03339 0.27228 0.0
C1104 C 0.34815 0.04355 0.26318 0.0
C1105 C 0.38168 0.00865 0.27281 0.0
C1106 C 0.41164 0.93632 0.25832 0.0
H1107 H 0.571 0.88962 0.27819 0.0
H1108 H 0.51603 0.91417 0.27931 0.0
H1109 H 0.43304 0.89163 0.25308 0.0
H1110 H 0.34888 0.03403 0.24755 0.0
H1111 H 0.38761 0.9917 0.24848 0.0
H1112 H 0.46455 0.01494 0.27601 0.0
C1113 C 0.52685 0.91004 0.27217 0.0
C1114 C 0.4401 0.91845 0.25813 0.0
C1115 C 0.55824 0.89584 0.27151 0.0
C1116 C 0.35733 0.02688 0.25468 0.0
C1117 C 0.37934 0.0023 0.25521 0.0
C1118 C 0.45666 0.9874 0.27111 0.0
C1119 C 0.50944 0.91853 0.26369 0.0
C1120 C 0.47741 0.93522 0.26435 0.0
C1121 C 0.39254 0.99361 0.26427 0.0
C1122 C 0.42002 0.97152 0.2647 0.0
H1123 H 0.56607 0.89424 0.24671 0.0
H1124 H 0.51149 0.91916 0.24788 0.0
H1125 H 0.51375 0.98335 0.27575 0.0
H1126 H 0.35294 0.04544 0.27898 0.0
H1127 H 0.39073 0.00189 0.27991 0.0
C1128 C 0.16005 0.12105 0.084 0.0
C1129 C 0.18367 0.13746 0.0928 0.0
C1130 C 0.11328 0.09847 0.08393 0.0
C1131 C 0.02037 0.03001 0.10027 0.0
H1132 H 0.94634 0.03673 0.07982 0.0
C1133 C 0.82863 0.92437 0.10171 0.0
C1134 C 0.80627 0.90446 0.09297 0.0
C1135 C 0.87406 0.95634 0.10165 0.0
C1136 C 0.96665 0.03424 0.08553 0.0
H1137 H 0.17676 0.14601 0.10827 0.0
H1138 H 0.09532 0.10699 0.1081 0.0
H1139 H 0.02708 0.08887 0.07974 0.0
H1140 H 0.81418 0.9025 0.07731 0.0
H1141 H 0.89383 0.95774 0.07724 0.0
H1142 H 0.96056 0.97488 0.10596 0.0
C1143 C 0.11296 0.11081 0.10131 0.0
C1144 C 0.01278 0.06417 0.0855 0.0
C1145 C 0.15964 0.13335 0.10139 0.0
C1146 C 0.83037 0.91734 0.08416 0.0
C1147 C 0.87595 0.94922 0.08411 0.0
C1148 C 0.97443 6e-05 0.10028 0.0
C1149 C 0.08931 0.09193 0.09264 0.0
C1150 C 0.04008 0.06224 0.09286 0.0
C1151 C 0.89832 0.96897 0.09287 0.0
C1152 C 0.94703 0.00169 0.0929 0.0
H1153 H 0.17752 0.12374 0.07725 0.0
H1154 H 0.09594 0.08412 0.07715 0.0
H1155 H 0.04066 0.02705 0.10593 0.0
H1156 H 0.81097 0.91559 0.10861 0.0
H1157 H 0.89012 0.97143 0.1085 0.0
C1158 C 0.02396 0.16645 0.43476 0.0
C1159 C 0.04258 0.1894 0.42598 0.0
C1160 C 7e-05 0.11989 0.43495 0.0
C1161 C 0.94473 0.01812 0.41987 0.0
H1162 H 0.98975 0.97013 0.4396 0.0
C1163 C 0.9151 0.83877 0.41817 0.0
C1164 C 0.90656 0.81504 0.42698 0.0
C1165 C 0.92772 0.88395 0.4182 0.0
C1166 C 0.97621 0.9828 0.43415 0.0
H1167 H 0.0479 0.18152 0.41041 0.0
H1168 H 0.00633 0.10007 0.4108 0.0
H1169 H 0.01525 0.04965 0.43942 0.0
H1170 H 0.90414 0.82 0.44273 0.0
H1171 H 0.92546 0.89854 0.44276 0.0
H1172 H 0.90589 0.95115 0.41456 0.0
C1173 C 0.01022 0.11821 0.4175 0.0
C1174 C 0.9908 0.02836 0.43405 0.0
C1175 C 0.03424 0.16485 0.4173 0.0
C1176 C 0.91092 0.83741 0.43582 0.0
C1177 C 0.92322 0.88247 0.43584 0.0
C1178 C 0.92987 0.97238 0.42 0.0
C1179 C -0.00578 0.09538 0.42638 0.0
C1180 C 0.97553 0.04652 0.42686 0.0
C1181 C 0.93178 0.90623 0.42703 0.0
C1182 C 0.94584 0.95435 0.42709 0.0
H1183 H 0.02933 0.18434 0.44156 0.0
H1184 H 0.9874 0.103 0.44187 0.0
H1185 H 0.93227 0.03132 0.41429 0.0
H1186 H 0.91204 0.82248 0.41123 0.0
H1187 H 0.93482 0.90153 0.4113 0.0
C1188 C 0.86419 0.037 0.75134 0.0
C1189 C 0.84812 0.04522 0.76006 0.0
C1190 C 0.88658 0.01268 0.75144 0.0
C1191 C 0.95574 0.99039 0.76798 0.0
H1192 H 0.94843 0.90757 0.74802 0.0
C1193 C 0.06387 0.90693 0.76965 0.0
C1194 C 0.08288 0.9035 0.76086 0.0
C1195 C 0.03151 0.91988 0.76963 0.0
C1196 C 0.95109 0.93095 0.7536 0.0
H1197 H 0.83985 0.0313 0.77561 0.0
H1198 H 0.8786 0.98872 0.77574 0.0
H1199 H 0.89579 0.93548 0.74778 0.0
H1200 H 0.08275 0.91097 0.74514 0.0
H1201 H 0.02709 0.93468 0.74514 0.0
H1202 H 0.01161 0.98708 0.77366 0.0
C1203 C 0.87464 0.00184 0.76887 0.0
C1204 C 0.92087 0.94674 0.75348 0.0
C1205 C 0.85227 0.02608 0.76877 0.0
C1206 C 0.0688 0.91331 0.75205 0.0
C1207 C 0.03658 0.92651 0.75203 0.0
C1208 C 0.98601 0.97483 0.76807 0.0
C1209 C 0.89329 -0.00385 0.76026 0.0
C1210 C 0.92306 0.97678 0.76065 0.0
C1211 C 0.01759 0.92997 0.76083 0.0
C1212 C 0.98424 0.94514 0.76086 0.0
H1213 H 0.86143 0.05113 0.74449 0.0
H1214 H 0.90075 0.00895 0.74469 0.0
H1215 H 0.95886 0.01424 0.77349 0.0
H1216 H 0.0736 0.89916 0.77657 0.0
H1217 H 0.01707 0.92156 0.77652 0.0
C1218 C 0.86282 0.81935 0.60307 0.0
C1219 C 0.84723 0.79461 0.59439 0.0
C1220 C 0.88532 0.86605 0.60284 0.0
C1221 C 0.95539 0.95707 0.58622 0.0
H1222 H 0.94606 0.03275 0.60584 0.0
C1223 C 0.06355 0.14888 0.58455 0.0
C1224 C 0.0816 0.17124 0.59339 0.0
C1225 C 0.03123 0.10354 0.5845 0.0
C1226 C 0.94929 0.012 0.60036 0.0
H1227 H 0.84021 0.79949 0.57876 0.0
H1228 H 0.87919 0.88081 0.5784 0.0
H1229 H 0.89375 0.95222 0.60612 0.0
H1230 H 0.07985 0.16344 0.60912 0.0
H1231 H 0.0243 0.08413 0.60901 0.0
H1232 H 0.01152 0.01627 0.5806 0.0
C1233 C 0.87471 0.86409 0.58535 0.0
C1234 C 0.91925 0.96597 0.6005 0.0
C1235 C 0.85218 0.81748 0.58557 0.0
C1236 C 0.06663 0.14724 0.60218 0.0
C1237 C 0.03447 0.10184 0.60213 0.0
C1238 C 0.98549 0.00295 0.58611 0.0
C1239 C 0.89267 0.88886 0.59393 0.0
C1240 C 0.92221 0.93802 0.59347 0.0
C1241 C 0.01639 0.07946 0.59328 0.0
C1242 C 0.98305 0.03094 0.59321 0.0
H1243 H 0.85947 0.80281 0.60999 0.0
H1244 H 0.89898 0.88426 0.60956 0.0
H1245 H 0.95906 0.93628 0.58082 0.0
H1246 H 0.074 0.16645 0.57765 0.0
H1247 H 0.01754 0.08746 0.57757 0.0
C1248 C 0.90792 0.06647 0.92053 0.0
C1249 C 0.90162 0.08466 0.92915 0.0
C1250 C 0.92137 0.03451 0.92094 0.0
C1251 C 0.97858 0.99329 0.93681 0.0
H1252 H 0.92629 0.8909 0.91947 0.0
C1253 C 0.03398 0.8623 0.93832 0.0
C1254 C 0.04432 0.85072 0.92925 0.0
C1255 C 0.01009 0.88503 0.93879 0.0
C1256 C 0.9413 0.91941 0.92433 0.0
H1257 H 0.90492 0.08374 0.94495 0.0
H1258 H 0.9281 0.02781 0.94565 0.0
H1259 H 0.8984 0.94344 0.91929 0.0
H1260 H 0.03534 0.85164 0.91359 0.0
H1261 H -0.00576 0.89177 0.91443 0.0
H1262 H 0.02213 0.97005 0.94171 0.0
C1263 C 0.92284 0.03846 0.93858 0.0
C1264 C 0.92541 0.94951 0.92421 0.0
C1265 C 0.90932 0.07035 0.93818 0.0
C1266 C 0.02805 0.86013 0.9207 0.0
C1267 C 0.00426 0.88297 0.92118 0.0
C1268 C -0.0055 0.9633 0.93692 0.0
C1269 C 0.92895 0.02017 0.92996 0.0
C1270 C 0.94421 0.987 0.93038 0.0
C1271 C -0.0039 0.89675 0.93021 0.0
C1272 C 0.97636 0.92626 0.93062 0.0
H1273 H 0.90222 0.07668 0.91346 0.0
H1274 H 0.92643 0.02147 0.91417 0.0
H1275 H -0.00583 0.02219 0.94156 0.0
H1276 H 0.04568 0.85524 0.94506 0.0
H1277 H 0.00355 0.89445 0.94587 0.0
C1278 C 0.14688 0.07908 0.2537 0.0
C1279 C 0.17126 0.085 0.26233 0.0
C1280 C 0.10143 0.06571 0.25409 0.0
C1281 C 0.00269 0.0081 0.2699 0.0
H1282 H 0.95267 0.06064 0.25257 0.0
C1283 C 0.81588 0.95202 0.2712 0.0
C1284 C 0.79422 0.94175 0.2621 0.0
C1285 C 0.86253 0.97614 0.27174 0.0
C1286 C 0.96615 0.04557 0.25743 0.0
H1287 H 0.16682 0.08116 0.27812 0.0
H1288 H 0.08766 0.05815 0.27879 0.0
H1289 H 0.03323 0.08865 0.25245 0.0
H1290 H 0.8046 0.95115 0.24646 0.0
H1291 H 0.88587 0.99266 0.24741 0.0
H1292 H 0.93575 0.96437 0.27474 0.0
C1293 C 0.10367 0.06362 0.27173 0.0
C1294 C 0.01221 0.06153 0.25735 0.0
C1295 C 0.14911 0.07704 0.27134 0.0
C1296 C 0.82017 0.95836 0.25359 0.0
C1297 C 0.86683 0.98239 0.25414 0.0
C1298 C 0.9567 0.99212 0.26998 0.0
C1299 C 0.07936 0.05785 0.26311 0.0
C1300 C 0.03087 0.04261 0.26351 0.0
C1301 C 0.88853 0.99045 0.2632 0.0
C1302 C 0.93784 0.01034 0.26367 0.0
H1303 H 0.1629 0.08498 0.24663 0.0
H1304 H 0.08341 0.06091 0.24732 0.0
H1305 H 0.01597 0.99242 0.27464 0.0
H1306 H 0.79691 0.94008 0.27791 0.0
H1307 H 0.87829 0.98258 0.27885 0.0
loop_
_geom_bond_atom_site_label_1
_geom_bond_atom_site_label_2
_geom_bond_distance
_geom_bond_site_symmetry_2
_ccdc_geom_bond_type
Co0 O3 1.970 . S
Co0 N17 1.989 . S
Co0 O25 1.967 . S
Co0 O32 1.920 . S
Co1 O4 1.966 . S
Co1 N10 2.022 . S
Co1 N18 1.993 . S
Co1 O26 1.941 . S
C2 O3 1.258 . S
C2 O4 1.263 . S
O3 Co0 1.970 . S
O3 C2 1.258 . S
O4 Co1 1.966 . S
O4 C2 1.263 . S
C5 O6 1.235 . S
C5 O32 1.289 . S
O6 C5 1.235 . S
C7 C9 1.400 . S
C7 N10 1.351 . S
C7 C12 1.501 . S
C8 C9 1.387 . S
C8 N11 1.341 . S
C9 C7 1.400 . S
C9 C8 1.387 . S
N10 Co1 2.022 . S
N10 C7 1.351 . S
N10 N11 1.365 . S
N11 C8 1.341 . S
N11 N10 1.365 . S
N11 H31 0.862 . S
C12 C7 1.501 . S
C12 H13 0.961 . S
C12 H14 0.961 . S
C12 H15 0.960 . S
H13 C12 0.961 . S
H14 C12 0.961 . S
H15 C12 0.960 . S
C16 N17 1.342 . S
C16 C20 1.401 . S
C16 C21 1.499 . S
N17 Co0 1.989 . S
N17 C16 1.342 . S
N17 N18 1.388 . S
N18 Co1 1.993 . S
N18 N17 1.388 . S
N18 C19 1.346 . S
C19 N18 1.346 . S
C19 C20 1.396 . S
C19 C29 1.510 . S
C20 C16 1.401 . S
C20 C19 1.396 . S
C21 C16 1.499 . S
C21 H22 0.959 . S
C21 H23 0.960 . S
C21 H24 0.961 . S
H22 C21 0.959 . S
H23 C21 0.960 . S
H24 C21 0.961 . S
O25 Co0 1.967 . S
O25 C33 1.258 . S
O26 Co1 1.941 . S
O26 C33 1.266 . S
H27 C29 0.959 . S
H28 C29 0.961 . S
C29 C19 1.510 . S
C29 H27 0.959 . S
C29 H28 0.961 . S
C29 H30 0.960 . S
H30 C29 0.960 . S
H31 N11 0.862 . S
O32 Co0 1.920 . S
O32 C5 1.289 . S
C33 O25 1.258 . S
C33 O26 1.266 . S
Co34 O37 1.970 . S
Co34 N51 1.989 . S
Co34 O59 1.967 . S
Co34 O66 1.920 . S
Co35 O38 1.966 . S
Co35 N44 2.022 . S
Co35 N52 1.993 . S
Co35 O60 1.941 . S
C36 O37 1.258 . S
C36 O38 1.263 . S
O37 Co34 1.970 . S
O37 C36 1.258 . S
O38 Co35 1.966 . S
O38 C36 1.263 . S
C39 O40 1.235 . S
C39 O66 1.289 . S
O40 C39 1.235 . S
C41 C43 1.400 . S
C41 N44 1.351 . S
C41 C46 1.501 . S
C42 C43 1.387 . S
C42 N45 1.341 . S
C43 C41 1.400 . S
C43 C42 1.387 . S
N44 Co35 2.022 . S
N44 C41 1.351 . S
N44 N45 1.365 . S
N45 C42 1.341 . S
N45 N44 1.365 . S
N45 H65 0.862 . S
C46 C41 1.501 . S
C46 H47 0.961 . S
C46 H48 0.961 . S
C46 H49 0.960 . S
H47 C46 0.961 . S
H48 C46 0.961 . S
H49 C46 0.960 . S
C50 N51 1.342 . S
C50 C54 1.401 . S
C50 C55 1.499 . S
N51 Co34 1.989 . S
N51 C50 1.342 . S
N51 N52 1.388 . S
N52 Co35 1.993 . S
N52 N51 1.388 . S
N52 C53 1.346 . S
C53 N52 1.346 . S
C53 C54 1.396 . S
C53 C63 1.510 . S
C54 C50 1.401 . S
C54 C53 1.396 . S
C55 C50 1.499 . S
C55 H56 0.959 . S
C55 H57 0.960 . S
C55 H58 0.961 . S
H56 C55 0.959 . S
H57 C55 0.960 . S
H58 C55 0.961 . S
O59 Co34 1.967 . S
O59 C67 1.258 . S
O60 Co35 1.941 . S
O60 C67 1.266 . S
H61 C63 0.959 . S
H62 C63 0.961 . S
C63 C53 1.510 . S
C63 H61 0.959 . S
C63 H62 0.961 . S
C63 H64 0.960 . S
H64 C63 0.960 . S
H65 N45 0.862 . S
O66 Co34 1.920 . S
O66 C39 1.289 . S
C67 O59 1.258 . S
C67 O60 1.266 . S
Co68 O71 1.970 . S
Co68 N85 1.989 . S
Co68 O93 1.967 . S
Co68 O100 1.920 . S
Co69 O72 1.966 . S
Co69 N78 2.022 . S
Co69 N86 1.993 . S
Co69 O94 1.941 . S
C70 O71 1.258 . S
C70 O72 1.263 . S
O71 Co68 1.970 . S
O71 C70 1.258 . S
O72 Co69 1.966 . S
O72 C70 1.263 . S
C73 O74 1.235 . S
C73 O100 1.289 . S
O74 C73 1.235 . S
C75 C77 1.400 . S
C75 N78 1.351 . S
C75 C80 1.501 . S
C76 C77 1.387 . S
C76 N79 1.341 . S
C77 C75 1.400 . S
C77 C76 1.387 . S
N78 Co69 2.022 . S
N78 C75 1.351 . S
N78 N79 1.365 . S
N79 C76 1.341 . S
N79 N78 1.365 . S
N79 H99 0.862 . S
C80 C75 1.501 . S
C80 H81 0.961 . S
C80 H82 0.961 . S
C80 H83 0.960 . S
H81 C80 0.961 . S
H82 C80 0.961 . S
H83 C80 0.960 . S
C84 N85 1.342 . S
C84 C88 1.401 . S
C84 C89 1.499 . S
N85 Co68 1.989 . S
N85 C84 1.342 . S
N85 N86 1.388 . S
N86 Co69 1.993 . S
N86 N85 1.388 . S
N86 C87 1.346 . S
C87 N86 1.346 . S
C87 C88 1.396 . S
C87 C97 1.510 . S
C88 C84 1.401 . S
C88 C87 1.396 . S
C89 C84 1.499 . S
C89 H90 0.959 . S
C89 H91 0.960 . S
C89 H92 0.961 . S
H90 C89 0.959 . S
H91 C89 0.960 . S
H92 C89 0.961 . S
O93 Co68 1.967 . S
O93 C101 1.258 . S
O94 Co69 1.941 . S
O94 C101 1.266 . S
H95 C97 0.959 . S
H96 C97 0.961 . S
C97 C87 1.510 . S
C97 H95 0.959 . S
C97 H96 0.961 . S
C97 H98 0.960 . S
H98 C97 0.960 . S
H99 N79 0.862 . S
O100 Co68 1.920 . S
O100 C73 1.289 . S
C101 O93 1.258 . S
C101 O94 1.266 . S
Co102 O105 1.970 . S
Co102 N119 1.989 . S
Co102 O127 1.967 . S
Co102 O134 1.920 . S
Co103 O106 1.966 . S
Co103 N112 2.022 . S
Co103 N120 1.993 . S
Co103 O128 1.941 . S
C104 O105 1.258 . S
C104 O106 1.263 . S
O105 Co102 1.970 . S
O105 C104 1.258 . S
O106 Co103 1.966 . S
O106 C104 1.263 . S
C107 O108 1.235 . S
C107 O134 1.289 . S
O108 C107 1.235 . S
C109 C111 1.400 . S
C109 N112 1.351 . S
C109 C114 1.501 . S
C110 C111 1.387 . S
C110 N113 1.341 . S
C111 C109 1.400 . S
C111 C110 1.387 . S
N112 Co103 2.022 . S
N112 C109 1.351 . S
N112 N113 1.365 . S
N113 C110 1.341 . S
N113 N112 1.365 . S
N113 H133 0.862 . S
C114 C109 1.501 . S
C114 H115 0.961 . S
C114 H116 0.961 . S
C114 H117 0.960 . S
H115 C114 0.961 . S
H116 C114 0.961 . S
H117 C114 0.960 . S
C118 N119 1.342 . S
C118 C122 1.401 . S
C118 C123 1.499 . S
N119 Co102 1.989 . S
N119 C118 1.342 . S
N119 N120 1.388 . S
N120 Co103 1.993 . S
N120 N119 1.388 . S
N120 C121 1.346 . S
C121 N120 1.346 . S
C121 C122 1.396 . S
C121 C131 1.510 . S
C122 C118 1.401 . S
C122 C121 1.396 . S
C123 C118 1.499 . S
C123 H124 0.959 . S
C123 H125 0.960 . S
C123 H126 0.961 . S
H124 C123 0.959 . S
H125 C123 0.960 . S
H126 C123 0.961 . S
O127 Co102 1.967 . S
O127 C135 1.258 . S
O128 Co103 1.941 . S
O128 C135 1.266 . S
H129 C131 0.959 . S
H130 C131 0.961 . S
C131 C121 1.510 . S
C131 H129 0.959 . S
C131 H130 0.961 . S
C131 H132 0.960 . S
H132 C131 0.960 . S
H133 N113 0.862 . S
O134 Co102 1.920 . S
O134 C107 1.289 . S
C135 O127 1.258 . S
C135 O128 1.266 . S
Co136 O139 1.970 . S
Co136 N153 1.989 . S
Co136 O161 1.967 . S
Co136 O168 1.920 . S
Co137 O140 1.966 . S
Co137 N146 2.022 . S
Co137 N154 1.993 . S
Co137 O162 1.941 . S
C138 O139 1.258 . S
C138 O140 1.263 . S
O139 Co136 1.970 . S
O139 C138 1.258 . S
O140 Co137 1.966 . S
O140 C138 1.263 . S
C141 O142 1.235 . S
C141 O168 1.289 . S
O142 C141 1.235 . S
C143 C145 1.400 . S
C143 N146 1.351 . S
C143 C148 1.501 . S
C144 C145 1.387 . S
C144 N147 1.341 . S
C145 C143 1.400 . S
C145 C144 1.387 . S
N146 Co137 2.022 . S
N146 C143 1.351 . S
N146 N147 1.365 . S
N147 C144 1.341 . S
N147 N146 1.365 . S
N147 H167 0.862 . S
C148 C143 1.501 . S
C148 H149 0.961 . S
C148 H150 0.961 . S
C148 H151 0.960 . S
H149 C148 0.961 . S
H150 C148 0.961 . S
H151 C148 0.960 . S
C152 N153 1.342 . S
C152 C156 1.401 . S
C152 C157 1.499 . S
N153 Co136 1.989 . S
N153 C152 1.342 . S
N153 N154 1.388 . S
N154 Co137 1.993 . S
N154 N153 1.388 . S
N154 C155 1.346 . S
C155 N154 1.346 . S
C155 C156 1.396 . S
C155 C165 1.510 . S
C156 C152 1.401 . S
C156 C155 1.396 . S
C157 C152 1.499 . S
C157 H158 0.959 . S
C157 H159 0.960 . S
C157 H160 0.961 . S
H158 C157 0.959 . S
H159 C157 0.960 . S
H160 C157 0.961 . S
O161 Co136 1.967 . S
O161 C169 1.258 . S
O162 Co137 1.941 . S
O162 C169 1.266 . S
H163 C165 0.959 . S
H164 C165 0.961 . S
C165 C155 1.510 . S
C165 H163 0.959 . S
C165 H164 0.961 . S
C165 H166 0.960 . S
H166 C165 0.960 . S
H167 N147 0.862 . S
O168 Co136 1.920 . S
O168 C141 1.289 . S
C169 O161 1.258 . S
C169 O162 1.266 . S
Co170 O173 1.970 . S
Co170 N187 1.989 . S
Co170 O195 1.967 . S
Co170 O202 1.920 . S
Co171 O174 1.966 . S
Co171 N180 2.022 . S
Co171 N188 1.993 . S
Co171 O196 1.941 . S
C172 O173 1.258 . S
C172 O174 1.263 . S
O173 Co170 1.970 . S
O173 C172 1.258 . S
O174 Co171 1.966 . S
O174 C172 1.263 . S
C175 O176 1.235 . S
C175 O202 1.289 . S
O176 C175 1.235 . S
C177 C179 1.400 . S
C177 N180 1.351 . S
C177 C182 1.501 . S
C178 C179 1.387 . S
C178 N181 1.341 . S
C179 C177 1.400 . S
C179 C178 1.387 . S
N180 Co171 2.022 . S
N180 C177 1.351 . S
N180 N181 1.365 . S
N181 C178 1.341 . S
N181 N180 1.365 . S
N181 H201 0.862 . S
C182 C177 1.501 . S
C182 H183 0.961 . S
C182 H184 0.961 . S
C182 H185 0.960 . S
H183 C182 0.961 . S
H184 C182 0.961 . S
H185 C182 0.960 . S
C186 N187 1.342 . S
C186 C190 1.401 . S
C186 C191 1.499 . S
N187 Co170 1.989 . S
N187 C186 1.342 . S
N187 N188 1.388 . S
N188 Co171 1.993 . S
N188 N187 1.388 . S
N188 C189 1.346 . S
C189 N188 1.346 . S
C189 C190 1.396 . S
C189 C199 1.510 . S
C190 C186 1.401 . S
C190 C189 1.396 . S
C191 C186 1.499 . S
C191 H192 0.959 . S
C191 H193 0.960 . S
C191 H194 0.961 . S
H192 C191 0.959 . S
H193 C191 0.960 . S
H194 C191 0.961 . S
O195 Co170 1.967 . S
O195 C203 1.258 . S
O196 Co171 1.941 . S
O196 C203 1.266 . S
H197 C199 0.959 . S
H198 C199 0.961 . S
C199 C189 1.510 . S
C199 H197 0.959 . S
C199 H198 0.961 . S
C199 H200 0.960 . S
H200 C199 0.960 . S
H201 N181 0.862 . S
O202 Co170 1.920 . S
O202 C175 1.289 . S
C203 O195 1.258 . S
C203 O196 1.266 . S
Co204 O207 1.970 . S
Co204 N221 1.989 . S
Co204 O229 1.967 . S
Co204 O236 1.920 . S
Co205 O208 1.966 . S
Co205 N214 2.022 . S
Co205 N222 1.993 . S
Co205 O230 1.941 . S
C206 O207 1.258 . S
C206 O208 1.263 . S
O207 Co204 1.970 . S
O207 C206 1.258 . S
O208 Co205 1.966 . S
O208 C206 1.263 . S
C209 O210 1.235 . S
C209 O236 1.289 . S
O210 C209 1.235 . S
C211 C213 1.400 . S
C211 N214 1.351 . S
C211 C216 1.501 . S
C212 C213 1.387 . S
C212 N215 1.341 . S
C213 C211 1.400 . S
C213 C212 1.387 . S
N214 Co205 2.022 . S
N214 C211 1.351 . S
N214 N215 1.365 . S
N215 C212 1.341 . S
N215 N214 1.365 . S
N215 H235 0.862 . S
C216 C211 1.501 . S
C216 H217 0.961 . S
C216 H218 0.961 . S
C216 H219 0.960 . S
H217 C216 0.961 . S
H218 C216 0.961 . S
H219 C216 0.960 . S
C220 N221 1.342 . S
C220 C224 1.401 . S
C220 C225 1.499 . S
N221 Co204 1.989 . S
N221 C220 1.342 . S
N221 N222 1.388 . S
N222 Co205 1.993 . S
N222 N221 1.388 . S
N222 C223 1.346 . S
C223 N222 1.346 . S
C223 C224 1.396 . S
C223 C233 1.510 . S
C224 C220 1.401 . S
C224 C223 1.396 . S
C225 C220 1.499 . S
C225 H226 0.959 . S
C225 H227 0.960 . S
C225 H228 0.961 . S
H226 C225 0.959 . S
H227 C225 0.960 . S
H228 C225 0.961 . S
O229 Co204 1.967 . S
O229 C237 1.258 . S
O230 Co205 1.941 . S
O230 C237 1.266 . S
H231 C233 0.959 . S
H232 C233 0.961 . S
C233 C223 1.510 . S
C233 H231 0.959 . S
C233 H232 0.961 . S
C233 H234 0.960 . S
H234 C233 0.960 . S
H235 N215 0.862 . S
O236 Co204 1.920 . S
O236 C209 1.289 . S
C237 O229 1.258 . S
C237 O230 1.266 . S
Co238 O241 1.970 . S
Co238 N255 1.989 . S
Co238 O263 1.967 . S
Co238 O270 1.920 . S
Co239 O242 1.966 . S
Co239 N248 2.022 . S
Co239 N256 1.993 . S
Co239 O264 1.941 . S
C240 O241 1.258 . S
C240 O242 1.263 . S
O241 Co238 1.970 . S
O241 C240 1.258 . S
O242 Co239 1.966 . S
O242 C240 1.263 . S
C243 O244 1.235 . S
C243 O270 1.289 . S
O244 C243 1.235 . S
C245 C247 1.400 . S
C245 N248 1.351 . S
C245 C250 1.501 . S
C246 C247 1.387 . S
C246 N249 1.341 . S
C247 C245 1.400 . S
C247 C246 1.387 . S
N248 Co239 2.022 . S
N248 C245 1.351 . S
N248 N249 1.365 . S
N249 C246 1.341 . S
N249 N248 1.365 . S
N249 H269 0.862 . S
C250 C245 1.501 . S
C250 H251 0.961 . S
C250 H252 0.961 . S
C250 H253 0.960 . S
H251 C250 0.961 . S
H252 C250 0.961 . S
H253 C250 0.960 . S
C254 N255 1.342 . S
C254 C258 1.401 . S
C254 C259 1.499 . S
N255 Co238 1.989 . S
N255 C254 1.342 . S
N255 N256 1.388 . S
N256 Co239 1.993 . S
N256 N255 1.388 . S
N256 C257 1.346 . S
C257 N256 1.346 . S
C257 C258 1.396 . S
C257 C267 1.510 . S
C258 C254 1.401 . S
C258 C257 1.396 . S
C259 C254 1.499 . S
C259 H260 0.959 . S
C259 H261 0.960 . S
C259 H262 0.961 . S
H260 C259 0.959 . S
H261 C259 0.960 . S
H262 C259 0.961 . S
O263 Co238 1.967 . S
O263 C271 1.258 . S
O264 Co239 1.941 . S
O264 C271 1.266 . S
H265 C267 0.959 . S
H266 C267 0.961 . S
C267 C257 1.510 . S
C267 H265 0.959 . S
C267 H266 0.961 . S
C267 H268 0.960 . S
H268 C267 0.960 . S
H269 N249 0.862 . S
O270 Co238 1.920 . S
O270 C243 1.289 . S
C271 O263 1.258 . S
C271 O264 1.266 . S
Co272 O275 1.970 . S
Co272 N289 1.989 . S
Co272 O297 1.967 . S
Co272 O304 1.920 . S
Co273 O276 1.966 . S
Co273 N282 2.022 . S
Co273 N290 1.993 . S
Co273 O298 1.941 . S
C274 O275 1.258 . S
C274 O276 1.263 . S
O275 Co272 1.970 . S
O275 C274 1.258 . S
O276 Co273 1.966 . S
O276 C274 1.263 . S
C277 O278 1.235 . S
C277 O304 1.289 . S
O278 C277 1.235 . S
C279 C281 1.400 . S
C279 N282 1.351 . S
C279 C284 1.501 . S
C280 C281 1.387 . S
C280 N283 1.341 . S
C281 C279 1.400 . S
C281 C280 1.387 . S
N282 Co273 2.022 . S
N282 C279 1.351 . S
N282 N283 1.365 . S
N283 C280 1.341 . S
N283 N282 1.365 . S
N283 H303 0.862 . S
C284 C279 1.501 . S
C284 H285 0.961 . S
C284 H286 0.961 . S
C284 H287 0.960 . S
H285 C284 0.961 . S
H286 C284 0.961 . S
H287 C284 0.960 . S
C288 N289 1.342 . S
C288 C292 1.401 . S
C288 C293 1.499 . S
N289 Co272 1.989 . S
N289 C288 1.342 . S
N289 N290 1.388 . S
N290 Co273 1.993 . S
N290 N289 1.388 . S
N290 C291 1.346 . S
C291 N290 1.346 . S
C291 C292 1.396 . S
C291 C301 1.510 . S
C292 C288 1.401 . S
C292 C291 1.396 . S
C293 C288 1.499 . S
C293 H294 0.959 . S
C293 H295 0.960 . S
C293 H296 0.961 . S
H294 C293 0.959 . S
H295 C293 0.960 . S
H296 C293 0.961 . S
O297 Co272 1.967 . S
O297 C305 1.258 . S
O298 Co273 1.941 . S
O298 C305 1.266 . S
H299 C301 0.959 . S
H300 C301 0.961 . S
C301 C291 1.510 . S
C301 H299 0.959 . S
C301 H300 0.961 . S
C301 H302 0.960 . S
H302 C301 0.960 . S
H303 N283 0.862 . S
O304 Co272 1.920 . S
O304 C277 1.289 . S
C305 O297 1.258 . S
C305 O298 1.266 . S
Co306 O309 1.970 . S
Co306 N323 1.989 . S
Co306 O331 1.967 . S
Co306 O338 1.920 . S
Co307 O310 1.966 . S
Co307 N316 2.022 . S
Co307 N324 1.993 . S
Co307 O332 1.941 . S
C308 O309 1.258 . S
C308 O310 1.263 . S
O309 Co306 1.970 . S
O309 C308 1.258 . S
O310 Co307 1.966 . S
O310 C308 1.263 . S
C311 O312 1.235 . S
C311 O338 1.289 . S
O312 C311 1.235 . S
C313 C315 1.400 . S
C313 N316 1.351 . S
C313 C318 1.501 . S
C314 C315 1.387 . S
C314 N317 1.341 . S
C315 C313 1.400 . S
C315 C314 1.387 . S
N316 Co307 2.022 . S
N316 C313 1.351 . S
N316 N317 1.365 . S
N317 C314 1.341 . S
N317 N316 1.365 . S
N317 H337 0.862 . S
C318 C313 1.501 . S
C318 H319 0.961 . S
C318 H320 0.961 . S
C318 H321 0.960 . S
H319 C318 0.961 . S
H320 C318 0.961 . S
H321 C318 0.960 . S
C322 N323 1.342 . S
C322 C326 1.401 . S
C322 C327 1.499 . S
N323 Co306 1.989 . S
N323 C322 1.342 . S
N323 N324 1.388 . S
N324 Co307 1.993 . S
N324 N323 1.388 . S
N324 C325 1.346 . S
C325 N324 1.346 . S
C325 C326 1.396 . S
C325 C335 1.510 . S
C326 C322 1.401 . S
C326 C325 1.396 . S
C327 C322 1.499 . S
C327 H328 0.959 . S
C327 H329 0.960 . S
C327 H330 0.961 . S
H328 C327 0.959 . S
H329 C327 0.960 . S
H330 C327 0.961 . S
O331 Co306 1.967 . S
O331 C339 1.258 . S
O332 Co307 1.941 . S
O332 C339 1.266 . S
H333 C335 0.959 . S
H334 C335 0.961 . S
C335 C325 1.510 . S
C335 H333 0.959 . S
C335 H334 0.961 . S
C335 H336 0.960 . S
H336 C335 0.960 . S
H337 N317 0.862 . S
O338 Co306 1.920 . S
O338 C311 1.289 . S
C339 O331 1.258 . S
C339 O332 1.266 . S
Co340 O343 1.970 . S
Co340 N357 1.989 . S
Co340 O365 1.967 . S
Co340 O372 1.920 . S
Co341 O344 1.966 . S
Co341 N350 2.022 . S
Co341 N358 1.993 . S
Co341 O366 1.941 . S
C342 O343 1.258 . S
C342 O344 1.263 . S
O343 Co340 1.970 . S
O343 C342 1.258 . S
O344 Co341 1.966 . S
O344 C342 1.263 . S
C345 O346 1.235 . S
C345 O372 1.289 . S
O346 C345 1.235 . S
C347 C349 1.400 . S
C347 N350 1.351 . S
C347 C352 1.501 . S
C348 C349 1.387 . S
C348 N351 1.341 . S
C349 C347 1.400 . S
C349 C348 1.387 . S
N350 Co341 2.022 . S
N350 C347 1.351 . S
N350 N351 1.365 . S
N351 C348 1.341 . S
N351 N350 1.365 . S
N351 H371 0.862 . S
C352 C347 1.501 . S
C352 H353 0.961 . S
C352 H354 0.961 . S
C352 H355 0.960 . S
H353 C352 0.961 . S
H354 C352 0.961 . S
H355 C352 0.960 . S
C356 N357 1.342 . S
C356 C360 1.401 . S
C356 C361 1.499 . S
N357 Co340 1.989 . S
N357 C356 1.342 . S
N357 N358 1.388 . S
N358 Co341 1.993 . S
N358 N357 1.388 . S
N358 C359 1.346 . S
C359 N358 1.346 . S
C359 C360 1.396 . S
C359 C369 1.510 . S
C360 C356 1.401 . S
C360 C359 1.396 . S
C361 C356 1.499 . S
C361 H362 0.959 . S
C361 H363 0.960 . S
C361 H364 0.961 . S
H362 C361 0.959 . S
H363 C361 0.960 . S
H364 C361 0.961 . S
O365 Co340 1.967 . S
O365 C373 1.258 . S
O366 Co341 1.941 . S
O366 C373 1.266 . S
H367 C369 0.959 . S
H368 C369 0.961 . S
C369 C359 1.510 . S
C369 H367 0.959 . S
C369 H368 0.961 . S
C369 H370 0.960 . S
H370 C369 0.960 . S
H371 N351 0.862 . S
O372 Co340 1.920 . S
O372 C345 1.289 . S
C373 O365 1.258 . S
C373 O366 1.266 . S
Co374 O377 1.970 . S
Co374 N391 1.989 . S
Co374 O399 1.967 . S
Co374 O406 1.920 . S
Co375 O378 1.966 . S
Co375 N384 2.022 . S
Co375 N392 1.993 . S
Co375 O400 1.941 . S
C376 O377 1.258 . S
C376 O378 1.263 . S
O377 Co374 1.970 . S
O377 C376 1.258 . S
O378 Co375 1.966 . S
O378 C376 1.263 . S
C379 O380 1.235 . S
C379 O406 1.289 . S
O380 C379 1.235 . S
C381 C383 1.400 . S
C381 N384 1.351 . S
C381 C386 1.501 . S
C382 C383 1.387 . S
C382 N385 1.341 . S
C383 C381 1.400 . S
C383 C382 1.387 . S
N384 Co375 2.022 . S
N384 C381 1.351 . S
N384 N385 1.365 . S
N385 C382 1.341 . S
N385 N384 1.365 . S
N385 H405 0.862 . S
C386 C381 1.501 . S
C386 H387 0.961 . S
C386 H388 0.961 . S
C386 H389 0.960 . S
H387 C386 0.961 . S
H388 C386 0.961 . S
H389 C386 0.960 . S
C390 N391 1.342 . S
C390 C394 1.401 . S
C390 C395 1.499 . S
N391 Co374 1.989 . S
N391 C390 1.342 . S
N391 N392 1.388 . S
N392 Co375 1.993 . S
N392 N391 1.388 . S
N392 C393 1.346 . S
C393 N392 1.346 . S
C393 C394 1.396 . S
C393 C403 1.510 . S
C394 C390 1.401 . S
C394 C393 1.396 . S
C395 C390 1.499 . S
C395 H396 0.959 . S
C395 H397 0.960 . S
C395 H398 0.961 . S
H396 C395 0.959 . S
H397 C395 0.960 . S
H398 C395 0.961 . S
O399 Co374 1.967 . S
O399 C407 1.258 . S
O400 Co375 1.941 . S
O400 C407 1.266 . S
H401 C403 0.959 . S
H402 C403 0.961 . S
C403 C393 1.510 . S
C403 H401 0.959 . S
C403 H402 0.961 . S
C403 H404 0.960 . S
H404 C403 0.960 . S
H405 N385 0.862 . S
O406 Co374 1.920 . S
O406 C379 1.289 . S
C407 O399 1.258 . S
C407 O400 1.266 . S
C408 C409 1.349 . S
C408 C410 1.327 . S
C408 H433 0.950 . S
C409 C408 1.349 . S
C409 C425 1.349 . S
C410 C408 1.327 . S
C410 C429 1.429 . S
C410 H434 0.950 1_545 S
C411 C428 1.574 1_554 S
C411 C430 1.368 . S
C411 H435 0.949 . S
H412 C416 0.949 . S
C413 C414 1.349 . S
C413 C415 1.327 . S
C413 H436 0.950 . S
C414 C413 1.349 . S
C414 C426 1.349 . S
C415 C413 1.327 . S
C415 C431 1.429 . S
C415 H437 0.950 1_565 S
C416 H412 0.949 . S
C416 C424 1.574 1_556 S
C416 C432 1.368 . S
H417 C425 0.950 . S
H418 C423 0.950 . S
H419 C424 0.949 . S
H420 C426 0.950 . S
H421 C427 0.950 . S
H422 C428 0.949 . S
C423 H418 0.950 . S
C423 C425 1.327 . S
C423 C429 1.429 . S
C424 C416 1.574 1_554 S
C424 H419 0.949 . S
C424 C430 1.368 1_565 S
C425 C409 1.349 . S
C425 H417 0.950 . S
C425 C423 1.327 . S
C426 C414 1.349 . S
C426 H420 0.950 . S
C426 C427 1.327 . S
C427 H421 0.950 . S
C427 C426 1.327 . S
C427 C431 1.429 . S
C428 C411 1.574 1_556 S
C428 H422 0.949 . S
C428 C432 1.368 1_545 S
C429 C410 1.429 . S
C429 C423 1.429 . S
C429 C430 1.523 . S
C430 C411 1.368 . S
C430 C424 1.368 1_545 S
C430 C429 1.523 . S
C431 C415 1.429 . S
C431 C427 1.429 . S
C431 C432 1.523 . S
C432 C416 1.368 . S
C432 C428 1.368 1_565 S
C432 C431 1.523 . S
H433 C408 0.950 . S
H434 C410 0.950 1_565 S
H435 C411 0.949 . S
H436 C413 0.950 . S
H437 C415 0.950 1_545 S
C438 C439 1.349 . S
C438 C440 1.327 . S
C438 H463 0.950 . S
C439 C438 1.349 . S
C439 C455 1.349 . S
C440 C438 1.327 . S
C440 C459 1.429 . S
C440 H464 0.950 . S
C441 C458 1.574 . S
C441 C460 1.368 . S
C441 H465 0.949 . S
H442 C446 0.949 . S
C443 C444 1.349 . S
C443 C445 1.327 . S
C443 H466 0.950 . S
C444 C443 1.349 . S
C444 C456 1.349 . S
C445 C443 1.327 . S
C445 C461 1.429 . S
C445 H467 0.950 . S
C446 H442 0.949 . S
C446 C454 1.574 . S
C446 C462 1.368 . S
H447 C455 0.950 . S
H448 C453 0.950 . S
H449 C454 0.949 . S
H450 C456 0.950 . S
H451 C457 0.950 . S
H452 C458 0.949 . S
C453 H448 0.950 . S
C453 C455 1.327 . S
C453 C459 1.429 . S
C454 C446 1.574 . S
C454 H449 0.949 . S
C454 C460 1.368 . S
C455 C439 1.349 . S
C455 H447 0.950 . S
C455 C453 1.327 . S
C456 C444 1.349 . S
C456 H450 0.950 . S
C456 C457 1.327 . S
C457 H451 0.950 . S
C457 C456 1.327 . S
C457 C461 1.429 . S
C458 C441 1.574 . S
C458 H452 0.949 . S
C458 C462 1.368 . S
C459 C440 1.429 . S
C459 C453 1.429 . S
C459 C460 1.523 . S
C460 C441 1.368 . S
C460 C454 1.368 . S
C460 C459 1.523 . S
C461 C445 1.429 . S
C461 C457 1.429 . S
C461 C462 1.523 . S
C462 C446 1.368 . S
C462 C458 1.368 . S
C462 C461 1.523 . S
H463 C438 0.950 . S
H464 C440 0.950 . S
H465 C441 0.949 . S
H466 C443 0.950 . S
H467 C445 0.950 . S
C468 C469 1.349 . S
C468 C470 1.327 . S
C468 H493 0.950 . S
C469 C468 1.349 . S
C469 C485 1.349 . S
C470 C468 1.327 . S
C470 C489 1.429 . S
C470 H494 0.950 . S
C471 C488 1.574 . S
C471 C490 1.368 1_455 S
C471 H495 0.949 . S
H472 C476 0.949 . S
C473 C474 1.349 . S
C473 C475 1.327 . S
C473 H496 0.950 . S
C474 C473 1.349 . S
C474 C486 1.349 . S
C475 C473 1.327 . S
C475 C491 1.429 . S
C475 H497 0.950 . S
C476 H472 0.949 . S
C476 C484 1.574 . S
C476 C492 1.368 1_655 S
H477 C485 0.950 . S
H478 C483 0.950 1_455 S
H479 C484 0.949 . S
H480 C486 0.950 . S
H481 C487 0.950 1_655 S
H482 C488 0.949 . S
C483 H478 0.950 1_655 S
C483 C485 1.327 . S
C483 C489 1.429 . S
C484 C476 1.574 . S
C484 H479 0.949 . S
C484 C490 1.368 . S
C485 C469 1.349 . S
C485 H477 0.950 . S
C485 C483 1.327 . S
C486 C474 1.349 . S
C486 H480 0.950 . S
C486 C487 1.327 . S
C487 H481 0.950 1_455 S
C487 C486 1.327 . S
C487 C491 1.429 . S
C488 C471 1.574 . S
C488 H482 0.949 . S
C488 C492 1.368 . S
C489 C470 1.429 . S
C489 C483 1.429 . S
C489 C490 1.523 . S
C490 C471 1.368 1_655 S
C490 C484 1.368 . S
C490 C489 1.523 . S
C491 C475 1.429 . S
C491 C487 1.429 . S
C491 C492 1.523 . S
C492 C476 1.368 1_455 S
C492 C488 1.368 . S
C492 C491 1.523 . S
H493 C468 0.950 . S
H494 C470 0.950 . S
H495 C471 0.949 . S
H496 C473 0.950 . S
H497 C475 0.950 . S
C498 C499 1.349 . S
C498 C500 1.327 . S
C498 H523 0.950 . S
C499 C498 1.349 . S
C499 C515 1.349 . S
C500 C498 1.327 . S
C500 C519 1.429 . S
C500 H524 0.950 . S
C501 C518 1.570 1_546 S
C501 C520 1.366 . S
C501 H525 0.955 . S
H502 C506 0.955 . S
C503 C504 1.349 . S
C503 C505 1.327 . S
C503 H526 0.950 . S
C504 C503 1.349 . S
C504 C516 1.349 . S
C505 C503 1.327 . S
C505 C521 1.429 . S
C505 H527 0.950 . S
C506 H502 0.955 . S
C506 C514 1.570 1_564 S
C506 C522 1.366 . S
H507 C515 0.950 . S
H508 C513 0.950 . S
H509 C514 0.949 . S
H510 C516 0.950 . S
H511 C517 0.950 . S
H512 C518 0.949 . S
C513 H508 0.950 . S
C513 C515 1.327 . S
C513 C519 1.429 . S
C514 C506 1.570 1_546 S
C514 H509 0.949 . S
C514 C520 1.368 . S
C515 C499 1.349 . S
C515 H507 0.950 . S
C515 C513 1.327 . S
C516 C504 1.349 . S
C516 H510 0.950 . S
C516 C517 1.327 . S
C517 H511 0.950 . S
C517 C516 1.327 . S
C517 C521 1.429 . S
C518 C501 1.570 1_564 S
C518 H512 0.949 . S
C518 C522 1.368 . S
C519 C500 1.429 . S
C519 C513 1.429 . S
C519 C520 1.523 . S
C520 C501 1.366 . S
C520 C514 1.368 . S
C520 C519 1.523 . S
C521 C505 1.429 . S
C521 C517 1.429 . S
C521 C522 1.523 . S
C522 C506 1.366 . S
C522 C518 1.368 . S
C522 C521 1.523 . S
H523 C498 0.950 . S
H524 C500 0.950 . S
H525 C501 0.955 . S
H526 C503 0.950 . S
H527 C505 0.950 . S
C528 C529 1.349 . S
C528 C530 1.327 . S
C528 H553 0.950 . S
C529 C528 1.349 . S
C529 C545 1.349 . S
C530 C528 1.327 . S
C530 C549 1.429 . S
C530 H554 0.950 . S
C531 C548 1.574 . S
C531 C550 1.368 . S
C531 H555 0.949 . S
H532 C536 0.949 . S
C533 C534 1.349 . S
C533 C535 1.327 . S
C533 H556 0.950 . S
C534 C533 1.349 . S
C534 C546 1.349 . S
C535 C533 1.327 . S
C535 C551 1.429 . S
C535 H557 0.950 . S
C536 H532 0.949 . S
C536 C544 1.574 . S
C536 C552 1.368 . S
H537 C545 0.950 . S
H538 C543 0.950 . S
H539 C544 0.949 . S
H540 C546 0.950 . S
H541 C547 0.950 . S
H542 C548 0.949 . S
C543 H538 0.950 . S
C543 C545 1.327 . S
C543 C549 1.429 . S
C544 C536 1.574 . S
C544 H539 0.949 . S
C544 C550 1.368 . S
C545 C529 1.349 . S
C545 H537 0.950 . S
C545 C543 1.327 . S
C546 C534 1.349 . S
C546 H540 0.950 . S
C546 C547 1.327 . S
C547 H541 0.950 . S
C547 C546 1.327 . S
C547 C551 1.429 . S
C548 C531 1.574 . S
C548 H542 0.949 . S
C548 C552 1.368 . S
C549 C530 1.429 . S
C549 C543 1.429 . S
C549 C550 1.523 . S
C550 C531 1.368 . S
C550 C544 1.368 . S
C550 C549 1.523 . S
C551 C535 1.429 . S
C551 C547 1.429 . S
C551 C552 1.523 . S
C552 C536 1.368 . S
C552 C548 1.368 . S
C552 C551 1.523 . S
H553 C528 0.950 . S
H554 C530 0.950 . S
H555 C531 0.949 . S
H556 C533 0.950 . S
H557 C535 0.950 . S
C558 C559 1.349 . S
C558 C560 1.327 . S
C558 H583 0.950 . S
C559 C558 1.349 . S
C559 C575 1.349 . S
C560 C558 1.327 . S
C560 C579 1.429 . S
C560 H584 0.950 . S
C561 C578 1.574 . S
C561 C580 1.368 1_655 S
C561 H585 0.949 . S
H562 C566 0.949 . S
C563 C564 1.349 . S
C563 C565 1.327 . S
C563 H586 0.950 . S
C564 C563 1.349 . S
C564 C576 1.349 . S
C565 C563 1.327 . S
C565 C581 1.429 . S
C565 H587 0.950 . S
C566 H562 0.949 . S
C566 C574 1.574 . S
C566 C582 1.368 1_455 S
H567 C575 0.950 . S
H568 C573 0.950 1_655 S
H569 C574 0.949 . S
H570 C576 0.950 . S
H571 C577 0.950 1_455 S
H572 C578 0.949 . S
C573 H568 0.950 1_455 S
C573 C575 1.327 . S
C573 C579 1.429 . S
C574 C566 1.574 . S
C574 H569 0.949 . S
C574 C580 1.368 . S
C575 C559 1.349 . S
C575 H567 0.950 . S
C575 C573 1.327 . S
C576 C564 1.349 . S
C576 H570 0.950 . S
C576 C577 1.327 . S
C577 H571 0.950 1_655 S
C577 C576 1.327 . S
C577 C581 1.429 . S
C578 C561 1.574 . S
C578 H572 0.949 . S
C578 C582 1.368 . S
C579 C560 1.429 . S
C579 C573 1.429 . S
C579 C580 1.523 . S
C580 C561 1.368 1_455 S
C580 C574 1.368 . S
C580 C579 1.523 . S
C581 C565 1.429 . S
C581 C577 1.429 . S
C581 C582 1.523 . S
C582 C566 1.368 1_655 S
C582 C578 1.368 . S
C582 C581 1.523 . S
H583 C558 0.950 . S
H584 C560 0.950 . S
H585 C561 0.949 . S
H586 C563 0.950 . S
H587 C565 0.950 . S
C588 C589 1.349 . S
C588 C590 1.327 . S
C588 H613 0.950 . S
C589 C588 1.349 . S
C589 C605 1.349 . S
C590 C588 1.327 . S
C590 C609 1.429 . S
C590 H614 0.950 . S
C591 C608 1.574 . S
C591 C610 1.368 . S
C591 H615 0.949 . S
H592 C596 0.949 . S
C593 C594 1.349 . S
C593 C595 1.327 . S
C593 H616 0.950 . S
C594 C593 1.349 . S
C594 C606 1.349 . S
C595 C593 1.327 . S
C595 C611 1.429 . S
C595 H617 0.950 . S
C596 H592 0.949 . S
C596 C604 1.574 . S
C596 C612 1.368 . S
H597 C605 0.950 . S
H598 C603 0.950 . S
H599 C604 0.949 . S
H600 C606 0.950 . S
H601 C607 0.950 . S
H602 C608 0.949 . S
C603 H598 0.950 . S
C603 C605 1.327 . S
C603 C609 1.429 . S
C604 C596 1.574 . S
C604 H599 0.949 . S
C604 C610 1.368 1_545 S
C605 C589 1.349 . S
C605 H597 0.950 . S
C605 C603 1.327 . S
C606 C594 1.349 . S
C606 H600 0.950 . S
C606 C607 1.327 . S
C607 H601 0.950 . S
C607 C606 1.327 . S
C607 C611 1.429 . S
C608 C591 1.574 . S
C608 H602 0.949 . S
C608 C612 1.368 1_565 S
C609 C590 1.429 . S
C609 C603 1.429 . S
C609 C610 1.523 . S
C610 C591 1.368 . S
C610 C604 1.368 1_565 S
C610 C609 1.523 . S
C611 C595 1.429 . S
C611 C607 1.429 . S
C611 C612 1.523 . S
C612 C596 1.368 . S
C612 C608 1.368 1_545 S
C612 C611 1.523 . S
H613 C588 0.950 . S
H614 C590 0.950 . S
H615 C591 0.949 . S
H616 C593 0.950 . S
H617 C595 0.950 . S
C618 C619 1.349 . S
C618 C620 1.327 . S
C618 H643 0.950 . S
C619 C618 1.349 . S
C619 C635 1.349 . S
C620 C618 1.327 . S
C620 C639 1.429 . S
C620 H644 0.950 . S
C621 C638 1.574 . S
C621 C640 1.368 . S
C621 H645 0.949 . S
H622 C626 0.949 . S
C623 C624 1.349 . S
C623 C625 1.327 . S
C623 H646 0.950 . S
C624 C623 1.349 . S
C624 C636 1.349 . S
C625 C623 1.327 . S
C625 C641 1.429 . S
C625 H647 0.950 . S
C626 H622 0.949 . S
C626 C634 1.574 . S
C626 C642 1.368 . S
H627 C635 0.950 . S
H628 C633 0.950 . S
H629 C634 0.949 . S
H630 C636 0.950 . S
H631 C637 0.950 . S
H632 C638 0.949 . S
C633 H628 0.950 . S
C633 C635 1.327 . S
C633 C639 1.429 . S
C634 C626 1.574 . S
C634 H629 0.949 . S
C634 C640 1.368 . S
C635 C619 1.349 . S
C635 H627 0.950 . S
C635 C633 1.327 . S
C636 C624 1.349 . S
C636 H630 0.950 . S
C636 C637 1.327 . S
C637 H631 0.950 . S
C637 C636 1.327 . S
C637 C641 1.429 . S
C638 C621 1.574 . S
C638 H632 0.949 . S
C638 C642 1.368 . S
C639 C620 1.429 . S
C639 C633 1.429 . S
C639 C640 1.523 . S
C640 C621 1.368 . S
C640 C634 1.368 . S
C640 C639 1.523 . S
C641 C625 1.429 . S
C641 C637 1.429 . S
C641 C642 1.523 . S
C642 C626 1.368 . S
C642 C638 1.368 . S
C642 C641 1.523 . S
H643 C618 0.950 . S
H644 C620 0.950 . S
H645 C621 0.949 . S
H646 C623 0.950 . S
H647 C625 0.950 . S
C648 C649 1.349 . S
C648 C650 1.327 . S
C648 H673 0.950 . S
C649 C648 1.349 . S
C649 C665 1.349 . S
C650 C648 1.327 . S
C650 C669 1.429 . S
C650 H674 0.950 . S
C651 C668 1.574 . S
C651 C670 1.368 . S
C651 H675 0.949 . S
H652 C656 0.949 . S
C653 C654 1.349 . S
C653 C655 1.327 . S
C653 H676 0.950 . S
C654 C653 1.349 . S
C654 C666 1.349 . S
C655 C653 1.327 . S
C655 C671 1.429 . S
C655 H677 0.950 . S
C656 H652 0.949 . S
C656 C664 1.574 . S
C656 C672 1.368 . S
H657 C665 0.950 . S
H658 C663 0.950 . S
H659 C664 0.949 . S
H660 C666 0.950 . S
H661 C667 0.950 . S
H662 C668 0.949 . S
C663 H658 0.950 . S
C663 C665 1.327 . S
C663 C669 1.429 . S
C664 C656 1.574 . S
C664 H659 0.949 . S
C664 C670 1.368 1_655 S
C665 C649 1.349 . S
C665 H657 0.950 . S
C665 C663 1.327 . S
C666 C654 1.349 . S
C666 H660 0.950 . S
C666 C667 1.327 . S
C667 H661 0.950 . S
C667 C666 1.327 . S
C667 C671 1.429 . S
C668 C651 1.574 . S
C668 H662 0.949 . S
C668 C672 1.368 1_455 S
C669 C650 1.429 . S
C669 C663 1.429 . S
C669 C670 1.523 . S
C670 C651 1.368 . S
C670 C664 1.368 1_455 S
C670 C669 1.523 . S
C671 C655 1.429 . S
C671 C667 1.429 . S
C671 C672 1.523 . S
C672 C656 1.368 . S
C672 C668 1.368 1_655 S
C672 C671 1.523 . S
H673 C648 0.950 . S
H674 C650 0.950 . S
H675 C651 0.949 . S
H676 C653 0.950 . S
H677 C655 0.950 . S
C678 C679 1.349 . S
C678 C680 1.327 . S
C678 H703 0.950 . S
C679 C678 1.349 . S
C679 C695 1.349 . S
C680 C678 1.327 . S
C680 C699 1.429 . S
C680 H704 0.950 . S
C681 C698 1.574 . S
C681 C700 1.368 . S
C681 H705 0.949 . S
H682 C686 0.949 . S
C683 C684 1.349 . S
C683 C685 1.327 . S
C683 H706 0.950 . S
C684 C683 1.349 . S
C684 C696 1.349 . S
C685 C683 1.327 . S
C685 C701 1.429 . S
C685 H707 0.950 . S
C686 H682 0.949 . S
C686 C694 1.574 . S
C686 C702 1.368 . S
H687 C695 0.950 . S
H688 C693 0.950 . S
H689 C694 0.949 . S
H690 C696 0.950 . S
H691 C697 0.950 . S
H692 C698 0.949 . S
C693 H688 0.950 . S
C693 C695 1.327 . S
C693 C699 1.429 . S
C694 C686 1.574 . S
C694 H689 0.949 . S
C694 C700 1.368 1_655 S
C695 C679 1.349 . S
C695 H687 0.950 . S
C695 C693 1.327 . S
C696 C684 1.349 . S
C696 H690 0.950 . S
C696 C697 1.327 . S
C697 H691 0.950 . S
C697 C696 1.327 . S
C697 C701 1.429 . S
C698 C681 1.574 . S
C698 H692 0.949 . S
C698 C702 1.368 1_455 S
C699 C680 1.429 . S
C699 C693 1.429 . S
C699 C700 1.523 . S
C700 C681 1.368 . S
C700 C694 1.368 1_455 S
C700 C699 1.523 . S
C701 C685 1.429 . S
C701 C697 1.429 . S
C701 C702 1.523 . S
C702 C686 1.368 . S
C702 C698 1.368 1_655 S
C702 C701 1.523 . S
H703 C678 0.950 . S
H704 C680 0.950 . S
H705 C681 0.949 . S
H706 C683 0.950 . S
H707 C685 0.950 . S
C708 C709 1.349 . S
C708 C710 1.327 . S
C708 H733 0.950 . S
C709 C708 1.349 . S
C709 C725 1.349 . S
C710 C708 1.327 . S
C710 C729 1.429 . S
C710 H734 0.950 . S
C711 C728 1.574 . S
C711 C730 1.368 . S
C711 H735 0.949 . S
H712 C716 0.949 . S
C713 C714 1.349 . S
C713 C715 1.327 . S
C713 H736 0.950 . S
C714 C713 1.349 . S
C714 C726 1.349 . S
C715 C713 1.327 . S
C715 C731 1.429 . S
C715 H737 0.950 . S
C716 H712 0.949 . S
C716 C724 1.574 . S
C716 C732 1.368 . S
H717 C725 0.950 . S
H718 C723 0.950 . S
H719 C724 0.949 . S
H720 C726 0.950 . S
H721 C727 0.950 . S
H722 C728 0.949 . S
C723 H718 0.950 . S
C723 C725 1.327 . S
C723 C729 1.429 . S
C724 C716 1.574 . S
C724 H719 0.949 . S
C724 C730 1.368 1_565 S
C725 C709 1.349 . S
C725 H717 0.950 . S
C725 C723 1.327 . S
C726 C714 1.349 . S
C726 H720 0.950 . S
C726 C727 1.327 . S
C727 H721 0.950 . S
C727 C726 1.327 . S
C727 C731 1.429 . S
C728 C711 1.574 . S
C728 H722 0.949 . S
C728 C732 1.368 1_545 S
C729 C710 1.429 . S
C729 C723 1.429 . S
C729 C730 1.523 . S
C730 C711 1.368 . S
C730 C724 1.368 1_545 S
C730 C729 1.523 . S
C731 C715 1.429 . S
C731 C727 1.429 . S
C731 C732 1.523 . S
C732 C716 1.368 . S
C732 C728 1.368 1_565 S
C732 C731 1.523 . S
H733 C708 0.950 . S
H734 C710 0.950 . S
H735 C711 0.949 . S
H736 C713 0.950 . S
H737 C715 0.950 . S
C738 C739 1.349 . S
C738 C740 1.327 . S
C738 H763 0.950 . S
C739 C738 1.349 . S
C739 C755 1.349 . S
C740 C738 1.327 . S
C740 C759 1.429 . S
C740 H764 0.950 . S
C741 C758 1.574 . S
C741 C760 1.368 . S
C741 H765 0.949 . S
H742 C746 0.949 . S
C743 C744 1.349 . S
C743 C745 1.327 . S
C743 H766 0.950 . S
C744 C743 1.349 . S
C744 C756 1.349 . S
C745 C743 1.327 . S
C745 C761 1.429 . S
C745 H767 0.950 . S
C746 H742 0.949 . S
C746 C754 1.574 . S
C746 C762 1.368 . S
H747 C755 0.950 . S
H748 C753 0.950 . S
H749 C754 0.949 . S
H750 C756 0.950 . S
H751 C757 0.950 . S
H752 C758 0.949 . S
C753 H748 0.950 . S
C753 C755 1.327 . S
C753 C759 1.429 . S
C754 C746 1.574 . S
C754 H749 0.949 . S
C754 C760 1.368 . S
C755 C739 1.349 . S
C755 H747 0.950 . S
C755 C753 1.327 . S
C756 C744 1.349 . S
C756 H750 0.950 . S
C756 C757 1.327 . S
C757 H751 0.950 . S
C757 C756 1.327 . S
C757 C761 1.429 . S
C758 C741 1.574 . S
C758 H752 0.949 . S
C758 C762 1.368 . S
C759 C740 1.429 . S
C759 C753 1.429 . S
C759 C760 1.523 . S
C760 C741 1.368 . S
C760 C754 1.368 . S
C760 C759 1.523 . S
C761 C745 1.429 . S
C761 C757 1.429 . S
C761 C762 1.523 . S
C762 C746 1.368 . S
C762 C758 1.368 . S
C762 C761 1.523 . S
H763 C738 0.950 . S
H764 C740 0.950 . S
H765 C741 0.949 . S
H766 C743 0.950 . S
H767 C745 0.950 . S
C768 C769 1.349 . S
C768 C770 1.327 . S
C768 H793 0.950 . S
C769 C768 1.349 . S
C769 C785 1.349 . S
C770 C768 1.327 . S
C770 C789 1.429 . S
C770 H794 0.950 . S
C771 C788 1.574 . S
C771 C790 1.368 . S
C771 H795 0.949 . S
H772 C776 0.949 . S
C773 C774 1.349 . S
C773 C775 1.327 . S
C773 H796 0.950 . S
C774 C773 1.349 . S
C774 C786 1.349 . S
C775 C773 1.327 . S
C775 C791 1.429 . S
C775 H797 0.950 . S
C776 H772 0.949 . S
C776 C784 1.574 . S
C776 C792 1.368 . S
H777 C785 0.950 . S
H778 C783 0.950 . S
H779 C784 0.949 . S
H780 C786 0.950 . S
H781 C787 0.950 . S
H782 C788 0.949 . S
C783 H778 0.950 . S
C783 C785 1.327 . S
C783 C789 1.429 . S
C784 C776 1.574 . S
C784 H779 0.949 . S
C784 C790 1.368 . S
C785 C769 1.349 . S
C785 H777 0.950 . S
C785 C783 1.327 . S
C786 C774 1.349 . S
C786 H780 0.950 . S
C786 C787 1.327 . S
C787 H781 0.950 . S
C787 C786 1.327 . S
C787 C791 1.429 . S
C788 C771 1.574 . S
C788 H782 0.949 . S
C788 C792 1.368 . S
C789 C770 1.429 . S
C789 C783 1.429 . S
C789 C790 1.523 . S
C790 C771 1.368 . S
C790 C784 1.368 . S
C790 C789 1.523 . S
C791 C775 1.429 . S
C791 C787 1.429 . S
C791 C792 1.523 . S
C792 C776 1.368 . S
C792 C788 1.368 . S
C792 C791 1.523 . S
H793 C768 0.950 . S
H794 C770 0.950 . S
H795 C771 0.949 . S
H796 C773 0.950 . S
H797 C775 0.950 . S
C798 C799 1.349 . S
C798 C800 1.327 . S
C798 H823 0.950 . S
C799 C798 1.349 . S
C799 C815 1.349 . S
C800 C798 1.327 . S
C800 C819 1.429 . S
C800 H824 0.950 . S
C801 C818 1.574 . S
C801 C820 1.368 . S
C801 H825 0.949 . S
H802 C806 0.949 . S
C803 C804 1.349 . S
C803 C805 1.327 . S
C803 H826 0.950 . S
C804 C803 1.349 . S
C804 C816 1.349 . S
C805 C803 1.327 . S
C805 C821 1.429 . S
C805 H827 0.950 . S
C806 H802 0.949 . S
C806 C814 1.574 . S
C806 C822 1.368 . S
H807 C815 0.950 . S
H808 C813 0.950 . S
H809 C814 0.949 . S
H810 C816 0.950 . S
H811 C817 0.950 . S
H812 C818 0.949 . S
C813 H808 0.950 . S
C813 C815 1.327 . S
C813 C819 1.429 . S
C814 C806 1.574 . S
C814 H809 0.949 . S
C814 C820 1.368 . S
C815 C799 1.349 . S
C815 H807 0.950 . S
C815 C813 1.327 . S
C816 C804 1.349 . S
C816 H810 0.950 . S
C816 C817 1.327 . S
C817 H811 0.950 . S
C817 C816 1.327 . S
C817 C821 1.429 . S
C818 C801 1.574 . S
C818 H812 0.949 . S
C818 C822 1.368 . S
C819 C800 1.429 . S
C819 C813 1.429 . S
C819 C820 1.523 . S
C820 C801 1.368 . S
C820 C814 1.368 . S
C820 C819 1.523 . S
C821 C805 1.429 . S
C821 C817 1.429 . S
C821 C822 1.523 . S
C822 C806 1.368 . S
C822 C818 1.368 . S
C822 C821 1.523 . S
H823 C798 0.950 . S
H824 C800 0.950 . S
H825 C801 0.949 . S
H826 C803 0.950 . S
H827 C805 0.950 . S
C828 C829 1.349 . S
C828 C830 1.327 . S
C828 H853 0.950 . S
C829 C828 1.349 . S
C829 C845 1.349 . S
C830 C828 1.327 . S
C830 C849 1.429 . S
C830 H854 0.950 . S
C831 C848 1.574 . S
C831 C850 1.368 . S
C831 H855 0.949 . S
H832 C836 0.949 . S
C833 C834 1.349 . S
C833 C835 1.327 . S
C833 H856 0.950 . S
C834 C833 1.349 . S
C834 C846 1.349 . S
C835 C833 1.327 . S
C835 C851 1.429 . S
C835 H857 0.950 . S
C836 H832 0.949 . S
C836 C844 1.574 . S
C836 C852 1.368 . S
H837 C845 0.950 . S
H838 C843 0.950 . S
H839 C844 0.949 . S
H840 C846 0.950 . S
H841 C847 0.950 . S
H842 C848 0.949 . S
C843 H838 0.950 . S
C843 C845 1.327 . S
C843 C849 1.429 . S
C844 C836 1.574 . S
C844 H839 0.949 . S
C844 C850 1.368 . S
C845 C829 1.349 . S
C845 H837 0.950 . S
C845 C843 1.327 . S
C846 C834 1.349 . S
C846 H840 0.950 . S
C846 C847 1.327 . S
C847 H841 0.950 . S
C847 C846 1.327 . S
C847 C851 1.429 . S
C848 C831 1.574 . S
C848 H842 0.949 . S
C848 C852 1.368 . S
C849 C830 1.429 . S
C849 C843 1.429 . S
C849 C850 1.523 . S
C850 C831 1.368 . S
C850 C844 1.368 . S
C850 C849 1.523 . S
C851 C835 1.429 . S
C851 C847 1.429 . S
C851 C852 1.523 . S
C852 C836 1.368 . S
C852 C848 1.368 . S
C852 C851 1.523 . S
H853 C828 0.950 . S
H854 C830 0.950 . S
H855 C831 0.949 . S
H856 C833 0.950 . S
H857 C835 0.950 . S
C858 C859 1.349 . S
C858 C860 1.327 . S
C858 H883 0.950 . S
C859 C858 1.349 . S
C859 C875 1.349 . S
C860 C858 1.327 . S
C860 C879 1.429 . S
C860 H884 0.950 . S
C861 C878 1.574 . S
C861 C880 1.368 . S
C861 H885 0.949 . S
H862 C866 0.949 . S
C863 C864 1.349 . S
C863 C865 1.327 . S
C863 H886 0.950 . S
C864 C863 1.349 . S
C864 C876 1.349 . S
C865 C863 1.327 . S
C865 C881 1.429 . S
C865 H887 0.950 . S
C866 H862 0.949 . S
C866 C874 1.574 . S
C866 C882 1.368 . S
H867 C875 0.950 . S
H868 C873 0.950 . S
H869 C874 0.949 . S
H870 C876 0.950 . S
H871 C877 0.950 . S
H872 C878 0.949 . S
C873 H868 0.950 . S
C873 C875 1.327 . S
C873 C879 1.429 . S
C874 C866 1.574 . S
C874 H869 0.949 . S
C874 C880 1.368 . S
C875 C859 1.349 . S
C875 H867 0.950 . S
C875 C873 1.327 . S
C876 C864 1.349 . S
C876 H870 0.950 . S
C876 C877 1.327 . S
C877 H871 0.950 . S
C877 C876 1.327 . S
C877 C881 1.429 . S
C878 C861 1.574 . S
C878 H872 0.949 . S
C878 C882 1.368 . S
C879 C860 1.429 . S
C879 C873 1.429 . S
C879 C880 1.523 . S
C880 C861 1.368 . S
C880 C874 1.368 . S
C880 C879 1.523 . S
C881 C865 1.429 . S
C881 C877 1.429 . S
C881 C882 1.523 . S
C882 C866 1.368 . S
C882 C878 1.368 . S
C882 C881 1.523 . S
H883 C858 0.950 . S
H884 C860 0.950 . S
H885 C861 0.949 . S
H886 C863 0.950 . S
H887 C865 0.950 . S
C888 C889 1.349 . S
C888 C890 1.327 . S
C888 H913 0.950 . S
C889 C888 1.349 . S
C889 C905 1.349 . S
C890 C888 1.327 . S
C890 C909 1.429 . S
C890 H914 0.950 . S
C891 C908 1.574 . S
C891 C910 1.368 . S
C891 H915 0.949 . S
H892 C896 0.949 . S
C893 C894 1.349 . S
C893 C895 1.327 . S
C893 H916 0.950 . S
C894 C893 1.349 . S
C894 C906 1.349 . S
C895 C893 1.327 . S
C895 C911 1.429 . S
C895 H917 0.950 . S
C896 H892 0.949 . S
C896 C904 1.574 . S
C896 C912 1.368 . S
H897 C905 0.950 . S
H898 C903 0.950 . S
H899 C904 0.949 . S
H900 C906 0.950 . S
H901 C907 0.950 . S
H902 C908 0.949 . S
C903 H898 0.950 . S
C903 C905 1.327 . S
C903 C909 1.429 . S
C904 C896 1.574 . S
C904 H899 0.949 . S
C904 C910 1.368 . S
C905 C889 1.349 . S
C905 H897 0.950 . S
C905 C903 1.327 . S
C906 C894 1.349 . S
C906 H900 0.950 . S
C906 C907 1.327 . S
C907 H901 0.950 . S
C907 C906 1.327 . S
C907 C911 1.429 . S
C908 C891 1.574 . S
C908 H902 0.949 . S
C908 C912 1.368 . S
C909 C890 1.429 . S
C909 C903 1.429 . S
C909 C910 1.523 . S
C910 C891 1.368 . S
C910 C904 1.368 . S
C910 C909 1.523 . S
C911 C895 1.429 . S
C911 C907 1.429 . S
C911 C912 1.523 . S
C912 C896 1.368 . S
C912 C908 1.368 . S
C912 C911 1.523 . S
H913 C888 0.950 . S
H914 C890 0.950 . S
H915 C891 0.949 . S
H916 C893 0.950 . S
H917 C895 0.950 . S
C918 C919 1.349 . S
C918 C920 1.327 . S
C918 H943 0.950 . S
C919 C918 1.349 . S
C919 C935 1.349 . S
C920 C918 1.327 . S
C920 C939 1.429 . S
C920 H944 0.950 . S
C921 C938 1.574 . S
C921 C940 1.368 . S
C921 H945 0.949 . S
H922 C926 0.949 . S
C923 C924 1.349 . S
C923 C925 1.327 . S
C923 H946 0.950 . S
C924 C923 1.349 . S
C924 C936 1.349 . S
C925 C923 1.327 . S
C925 C941 1.429 . S
C925 H947 0.950 . S
C926 H922 0.949 . S
C926 C934 1.574 . S
C926 C942 1.368 . S
H927 C935 0.950 . S
H928 C933 0.950 . S
H929 C934 0.949 . S
H930 C936 0.950 . S
H931 C937 0.950 . S
H932 C938 0.949 . S
C933 H928 0.950 . S
C933 C935 1.327 . S
C933 C939 1.429 . S
C934 C926 1.574 . S
C934 H929 0.949 . S
C934 C940 1.368 . S
C935 C919 1.349 . S
C935 H927 0.950 . S
C935 C933 1.327 . S
C936 C924 1.349 . S
C936 H930 0.950 . S
C936 C937 1.327 . S
C937 H931 0.950 . S
C937 C936 1.327 . S
C937 C941 1.429 . S
C938 C921 1.574 . S
C938 H932 0.949 . S
C938 C942 1.368 . S
C939 C920 1.429 . S
C939 C933 1.429 . S
C939 C940 1.523 . S
C940 C921 1.368 . S
C940 C934 1.368 . S
C940 C939 1.523 . S
C941 C925 1.429 . S
C941 C937 1.429 . S
C941 C942 1.523 . S
C942 C926 1.368 . S
C942 C938 1.368 . S
C942 C941 1.523 . S
H943 C918 0.950 . S
H944 C920 0.950 . S
H945 C921 0.949 . S
H946 C923 0.950 . S
H947 C925 0.950 . S
C948 C949 1.349 . S
C948 C950 1.327 . S
C948 H973 0.950 . S
C949 C948 1.349 . S
C949 C965 1.349 . S
C950 C948 1.327 . S
C950 C969 1.429 . S
C950 H974 0.950 . S
C951 C968 1.574 . S
C951 C970 1.368 . S
C951 H975 0.949 . S
H952 C956 0.949 . S
C953 C954 1.349 . S
C953 C955 1.327 . S
C953 H976 0.950 . S
C954 C953 1.349 . S
C954 C966 1.349 . S
C955 C953 1.327 . S
C955 C971 1.429 . S
C955 H977 0.950 . S
C956 H952 0.949 . S
C956 C964 1.574 . S
C956 C972 1.368 . S
H957 C965 0.950 . S
H958 C963 0.950 . S
H959 C964 0.949 . S
H960 C966 0.950 . S
H961 C967 0.950 . S
H962 C968 0.949 . S
C963 H958 0.950 . S
C963 C965 1.327 . S
C963 C969 1.429 . S
C964 C956 1.574 . S
C964 H959 0.949 . S
C964 C970 1.368 . S
C965 C949 1.349 . S
C965 H957 0.950 . S
C965 C963 1.327 . S
C966 C954 1.349 . S
C966 H960 0.950 . S
C966 C967 1.327 . S
C967 H961 0.950 . S
C967 C966 1.327 . S
C967 C971 1.429 . S
C968 C951 1.574 . S
C968 H962 0.949 . S
C968 C972 1.368 . S
C969 C950 1.429 . S
C969 C963 1.429 . S
C969 C970 1.523 . S
C970 C951 1.368 . S
C970 C964 1.368 . S
C970 C969 1.523 . S
C971 C955 1.429 . S
C971 C967 1.429 . S
C971 C972 1.523 . S
C972 C956 1.368 . S
C972 C968 1.368 . S
C972 C971 1.523 . S
H973 C948 0.950 . S
H974 C950 0.950 . S
H975 C951 0.949 . S
H976 C953 0.950 . S
H977 C955 0.950 . S
C978 C979 1.349 . S
C978 C980 1.327 . S
C978 H1003 0.950 . S
C979 C978 1.349 . S
C979 C995 1.349 . S
C980 C978 1.327 . S
C980 C999 1.429 . S
C980 H1004 0.950 . S
C981 C998 1.574 . S
C981 C1000 1.368 1_655 S
C981 H1005 0.949 . S
H982 C986 0.949 . S
C983 C984 1.349 . S
C983 C985 1.327 . S
C983 H1006 0.950 . S
C984 C983 1.349 . S
C984 C996 1.349 . S
C985 C983 1.327 . S
C985 C1001 1.429 . S
C985 H1007 0.950 . S
C986 H982 0.949 . S
C986 C994 1.574 . S
C986 C1002 1.368 1_455 S
H987 C995 0.950 . S
H988 C993 0.950 . S
H989 C994 0.949 . S
H990 C996 0.950 . S
H991 C997 0.950 . S
H992 C998 0.949 . S
C993 H988 0.950 . S
C993 C995 1.327 . S
C993 C999 1.429 . S
C994 C986 1.574 . S
C994 H989 0.949 . S
C994 C1000 1.368 . S
C995 C979 1.349 . S
C995 H987 0.950 . S
C995 C993 1.327 . S
C996 C984 1.349 . S
C996 H990 0.950 . S
C996 C997 1.327 . S
C997 H991 0.950 . S
C997 C996 1.327 . S
C997 C1001 1.429 . S
C998 C981 1.574 . S
C998 H992 0.949 . S
C998 C1002 1.368 . S
C999 C980 1.429 . S
C999 C993 1.429 . S
C999 C1000 1.523 . S
C1000 C981 1.368 1_455 S
C1000 C994 1.368 . S
C1000 C999 1.523 . S
C1001 C985 1.429 . S
C1001 C997 1.429 . S
C1001 C1002 1.523 . S
C1002 C986 1.368 1_655 S
C1002 C998 1.368 . S
C1002 C1001 1.523 . S
H1003 C978 0.950 . S
H1004 C980 0.950 . S
H1005 C981 0.949 . S
H1006 C983 0.950 . S
H1007 C985 0.950 . S
C1008 C1009 1.349 . S
C1008 C1010 1.327 . S
C1008 H1033 0.950 . S
C1009 C1008 1.349 . S
C1009 C1025 1.349 . S
C1010 C1008 1.327 . S
C1010 C1029 1.429 . S
C1010 H1034 0.950 . S
C1011 C1028 1.574 . S
C1011 C1030 1.368 1_545 S
C1011 H1035 0.949 . S
H1012 C1016 0.949 . S
C1013 C1014 1.349 . S
C1013 C1015 1.327 . S
C1013 H1036 0.950 . S
C1014 C1013 1.349 . S
C1014 C1026 1.349 . S
C1015 C1013 1.327 . S
C1015 C1031 1.429 . S
C1015 H1037 0.950 . S
C1016 H1012 0.949 . S
C1016 C1024 1.574 . S
C1016 C1032 1.368 1_565 S
H1017 C1025 0.950 . S
H1018 C1023 0.950 . S
H1019 C1024 0.949 . S
H1020 C1026 0.950 . S
H1021 C1027 0.950 . S
H1022 C1028 0.949 . S
C1023 H1018 0.950 . S
C1023 C1025 1.327 . S
C1023 C1029 1.429 . S
C1024 C1016 1.574 . S
C1024 H1019 0.949 . S
C1024 C1030 1.368 . S
C1025 C1009 1.349 . S
C1025 H1017 0.950 . S
C1025 C1023 1.327 . S
C1026 C1014 1.349 . S
C1026 H1020 0.950 . S
C1026 C1027 1.327 . S
C1027 H1021 0.950 . S
C1027 C1026 1.327 . S
C1027 C1031 1.429 . S
C1028 C1011 1.574 . S
C1028 H1022 0.949 . S
C1028 C1032 1.368 . S
C1029 C1010 1.429 . S
C1029 C1023 1.429 . S
C1029 C1030 1.523 . S
C1030 C1011 1.368 1_565 S
C1030 C1024 1.368 . S
C1030 C1029 1.523 . S
C1031 C1015 1.429 . S
C1031 C1027 1.429 . S
C1031 C1032 1.523 . S
C1032 C1016 1.368 1_545 S
C1032 C1028 1.368 . S
C1032 C1031 1.523 . S
H1033 C1008 0.950 . S
H1034 C1010 0.950 . S
H1035 C1011 0.949 . S
H1036 C1013 0.950 . S
H1037 C1015 0.950 . S
C1038 C1039 1.349 . S
C1038 C1040 1.327 . S
C1038 H1063 0.950 . S
C1039 C1038 1.349 . S
C1039 C1055 1.349 . S
C1040 C1038 1.327 . S
C1040 C1059 1.429 . S
C1040 H1064 0.950 . S
C1041 C1058 1.574 . S
C1041 C1060 1.368 . S
C1041 H1065 0.949 . S
H1042 C1046 0.949 . S
C1043 C1044 1.349 . S
C1043 C1045 1.327 . S
C1043 H1066 0.950 . S
C1044 C1043 1.349 . S
C1044 C1056 1.349 . S
C1045 C1043 1.327 . S
C1045 C1061 1.429 . S
C1045 H1067 0.950 . S
C1046 H1042 0.949 . S
C1046 C1054 1.574 . S
C1046 C1062 1.368 . S
H1047 C1055 0.950 . S
H1048 C1053 0.950 . S
H1049 C1054 0.949 . S
H1050 C1056 0.950 . S
H1051 C1057 0.950 . S
H1052 C1058 0.949 . S
C1053 H1048 0.950 . S
C1053 C1055 1.327 . S
C1053 C1059 1.429 . S
C1054 C1046 1.574 . S
C1054 H1049 0.949 . S
C1054 C1060 1.368 . S
C1055 C1039 1.349 . S
C1055 H1047 0.950 . S
C1055 C1053 1.327 . S
C1056 C1044 1.349 . S
C1056 H1050 0.950 . S
C1056 C1057 1.327 . S
C1057 H1051 0.950 . S
C1057 C1056 1.327 . S
C1057 C1061 1.429 . S
C1058 C1041 1.574 . S
C1058 H1052 0.949 . S
C1058 C1062 1.368 . S
C1059 C1040 1.429 . S
C1059 C1053 1.429 . S
C1059 C1060 1.523 . S
C1060 C1041 1.368 . S
C1060 C1054 1.368 . S
C1060 C1059 1.523 . S
C1061 C1045 1.429 . S
C1061 C1057 1.429 . S
C1061 C1062 1.523 . S
C1062 C1046 1.368 . S
C1062 C1058 1.368 . S
C1062 C1061 1.523 . S
H1063 C1038 0.950 . S
H1064 C1040 0.950 . S
H1065 C1041 0.949 . S
H1066 C1043 0.950 . S
H1067 C1045 0.950 . S
C1068 C1069 1.349 . S
C1068 C1070 1.327 . S
C1068 H1093 0.950 . S
C1069 C1068 1.349 . S
C1069 C1085 1.349 . S
C1070 C1068 1.327 . S
C1070 C1089 1.429 . S
C1070 H1094 0.950 . S
C1071 C1088 1.574 . S
C1071 C1090 1.368 1_655 S
C1071 H1095 0.949 . S
H1072 C1076 0.949 . S
C1073 C1074 1.349 . S
C1073 C1075 1.327 . S
C1073 H1096 0.950 . S
C1074 C1073 1.349 . S
C1074 C1086 1.349 . S
C1075 C1073 1.327 . S
C1075 C1091 1.429 . S
C1075 H1097 0.950 . S
C1076 H1072 0.949 . S
C1076 C1084 1.574 . S
C1076 C1092 1.368 1_455 S
H1077 C1085 0.950 . S
H1078 C1083 0.950 . S
H1079 C1084 0.949 . S
H1080 C1086 0.950 . S
H1081 C1087 0.950 . S
H1082 C1088 0.949 . S
C1083 H1078 0.950 . S
C1083 C1085 1.327 . S
C1083 C1089 1.429 . S
C1084 C1076 1.574 . S
C1084 H1079 0.949 . S
C1084 C1090 1.368 . S
C1085 C1069 1.349 . S
C1085 H1077 0.950 . S
C1085 C1083 1.327 . S
C1086 C1074 1.349 . S
C1086 H1080 0.950 . S
C1086 C1087 1.327 . S
C1087 H1081 0.950 . S
C1087 C1086 1.327 . S
C1087 C1091 1.429 . S
C1088 C1071 1.574 . S
C1088 H1082 0.949 . S
C1088 C1092 1.368 . S
C1089 C1070 1.429 . S
C1089 C1083 1.429 . S
C1089 C1090 1.523 . S
C1090 C1071 1.368 1_455 S
C1090 C1084 1.368 . S
C1090 C1089 1.523 . S
C1091 C1075 1.429 . S
C1091 C1087 1.429 . S
C1091 C1092 1.523 . S
C1092 C1076 1.368 1_655 S
C1092 C1088 1.368 . S
C1092 C1091 1.523 . S
H1093 C1068 0.950 . S
H1094 C1070 0.950 . S
H1095 C1071 0.949 . S
H1096 C1073 0.950 . S
H1097 C1075 0.950 . S
C1098 C1099 1.349 . S
C1098 C1100 1.327 . S
C1098 H1123 0.950 . S
C1099 C1098 1.349 . S
C1099 C1115 1.349 . S
C1100 C1098 1.327 . S
C1100 C1119 1.429 . S
C1100 H1124 0.950 . S
C1101 C1118 1.574 . S
C1101 C1120 1.368 1_545 S
C1101 H1125 0.949 . S
H1102 C1106 0.949 . S
C1103 C1104 1.349 . S
C1103 C1105 1.327 . S
C1103 H1126 0.950 . S
C1104 C1103 1.349 . S
C1104 C1116 1.349 . S
C1105 C1103 1.327 . S
C1105 C1121 1.429 . S
C1105 H1127 0.950 . S
C1106 H1102 0.949 . S
C1106 C1114 1.574 . S
C1106 C1122 1.368 1_565 S
H1107 C1115 0.950 . S
H1108 C1113 0.950 . S
H1109 C1114 0.949 . S
H1110 C1116 0.950 . S
H1111 C1117 0.950 . S
H1112 C1118 0.949 . S
C1113 H1108 0.950 . S
C1113 C1115 1.327 . S
C1113 C1119 1.429 . S
C1114 C1106 1.574 . S
C1114 H1109 0.949 . S
C1114 C1120 1.368 . S
C1115 C1099 1.349 . S
C1115 H1107 0.950 . S
C1115 C1113 1.327 . S
C1116 C1104 1.349 . S
C1116 H1110 0.950 . S
C1116 C1117 1.327 . S
C1117 H1111 0.950 . S
C1117 C1116 1.327 . S
C1117 C1121 1.429 . S
C1118 C1101 1.574 . S
C1118 H1112 0.949 . S
C1118 C1122 1.368 . S
C1119 C1100 1.429 . S
C1119 C1113 1.429 . S
C1119 C1120 1.523 . S
C1120 C1101 1.368 1_565 S
C1120 C1114 1.368 . S
C1120 C1119 1.523 . S
C1121 C1105 1.429 . S
C1121 C1117 1.429 . S
C1121 C1122 1.523 . S
C1122 C1106 1.368 1_545 S
C1122 C1118 1.368 . S
C1122 C1121 1.523 . S
H1123 C1098 0.950 . S
H1124 C1100 0.950 . S
H1125 C1101 0.949 . S
H1126 C1103 0.950 . S
H1127 C1105 0.950 . S
C1128 C1129 1.349 . S
C1128 C1130 1.327 . S
C1128 H1153 0.950 . S
C1129 C1128 1.349 . S
C1129 C1145 1.349 . S
C1130 C1128 1.327 . S
C1130 C1149 1.429 . S
C1130 H1154 0.950 . S
C1131 C1148 1.574 1_455 S
C1131 C1150 1.368 . S
C1131 H1155 0.949 . S
H1132 C1136 0.949 . S
C1133 C1134 1.349 . S
C1133 C1135 1.327 . S
C1133 H1156 0.950 . S
C1134 C1133 1.349 . S
C1134 C1146 1.349 . S
C1135 C1133 1.327 . S
C1135 C1151 1.429 . S
C1135 H1157 0.950 . S
C1136 H1132 0.949 . S
C1136 C1144 1.574 1_655 S
C1136 C1152 1.368 . S
H1137 C1145 0.950 . S
H1138 C1143 0.950 . S
H1139 C1144 0.949 . S
H1140 C1146 0.950 . S
H1141 C1147 0.950 . S
H1142 C1148 0.949 . S
C1143 H1138 0.950 . S
C1143 C1145 1.327 . S
C1143 C1149 1.429 . S
C1144 C1136 1.574 1_455 S
C1144 H1139 0.949 . S
C1144 C1150 1.368 1_565 S
C1145 C1129 1.349 . S
C1145 H1137 0.950 . S
C1145 C1143 1.327 . S
C1146 C1134 1.349 . S
C1146 H1140 0.950 . S
C1146 C1147 1.327 . S
C1147 H1141 0.950 . S
C1147 C1146 1.327 . S
C1147 C1151 1.429 . S
C1148 C1131 1.574 1_655 S
C1148 H1142 0.949 . S
C1148 C1152 1.368 1_545 S
C1149 C1130 1.429 . S
C1149 C1143 1.429 . S
C1149 C1150 1.523 . S
C1150 C1131 1.368 . S
C1150 C1144 1.368 1_545 S
C1150 C1149 1.523 . S
C1151 C1135 1.429 . S
C1151 C1147 1.429 . S
C1151 C1152 1.523 . S
C1152 C1136 1.368 . S
C1152 C1148 1.368 1_565 S
C1152 C1151 1.523 . S
H1153 C1128 0.950 . S
H1154 C1130 0.950 . S
H1155 C1131 0.949 . S
H1156 C1133 0.950 . S
H1157 C1135 0.950 . S
C1158 C1159 1.349 . S
C1158 C1160 1.327 . S
C1158 H1183 0.950 . S
C1159 C1158 1.349 . S
C1159 C1175 1.349 . S
C1160 C1158 1.327 . S
C1160 C1179 1.429 . S
C1160 H1184 0.950 . S
C1161 C1178 1.574 1_545 S
C1161 C1180 1.368 . S
C1161 H1185 0.949 . S
H1162 C1166 0.949 . S
C1163 C1164 1.349 . S
C1163 C1165 1.327 . S
C1163 H1186 0.950 . S
C1164 C1163 1.349 . S
C1164 C1176 1.349 . S
C1165 C1163 1.327 . S
C1165 C1181 1.429 . S
C1165 H1187 0.950 . S
C1166 H1162 0.949 . S
C1166 C1174 1.574 1_565 S
C1166 C1182 1.368 . S
H1167 C1175 0.950 . S
H1168 C1173 0.950 . S
H1169 C1174 0.949 . S
H1170 C1176 0.950 . S
H1171 C1177 0.950 . S
H1172 C1178 0.949 . S
C1173 H1168 0.950 . S
C1173 C1175 1.327 . S
C1173 C1179 1.429 . S
C1174 C1166 1.574 1_545 S
C1174 H1169 0.949 . S
C1174 C1180 1.368 1_655 S
C1175 C1159 1.349 . S
C1175 H1167 0.950 . S
C1175 C1173 1.327 . S
C1176 C1164 1.349 . S
C1176 H1170 0.950 . S
C1176 C1177 1.327 . S
C1177 H1171 0.950 . S
C1177 C1176 1.327 . S
C1177 C1181 1.429 . S
C1178 C1161 1.574 1_565 S
C1178 H1172 0.949 . S
C1178 C1182 1.368 1_455 S
C1179 C1160 1.429 . S
C1179 C1173 1.429 . S
C1179 C1180 1.523 . S
C1180 C1161 1.368 . S
C1180 C1174 1.368 1_455 S
C1180 C1179 1.523 . S
C1181 C1165 1.429 . S
C1181 C1177 1.429 . S
C1181 C1182 1.523 . S
C1182 C1166 1.368 . S
C1182 C1178 1.368 1_655 S
C1182 C1181 1.523 . S
H1183 C1158 0.950 . S
H1184 C1160 0.950 . S
H1185 C1161 0.949 . S
H1186 C1163 0.950 . S
H1187 C1165 0.950 . S
C1188 C1189 1.349 . S
C1188 C1190 1.327 . S
C1188 H1213 0.950 . S
C1189 C1188 1.349 . S
C1189 C1205 1.349 . S
C1190 C1188 1.327 . S
C1190 C1209 1.429 . S
C1190 H1214 0.950 . S
C1191 C1208 1.574 . S
C1191 C1210 1.368 1_565 S
C1191 H1215 0.949 . S
H1192 C1196 0.949 . S
C1193 C1194 1.349 . S
C1193 C1195 1.327 . S
C1193 H1216 0.950 . S
C1194 C1193 1.349 . S
C1194 C1206 1.349 . S
C1195 C1193 1.327 . S
C1195 C1211 1.429 . S
C1195 H1217 0.950 . S
C1196 H1192 0.949 . S
C1196 C1204 1.574 . S
C1196 C1212 1.368 1_545 S
H1197 C1205 0.950 . S
H1198 C1203 0.950 . S
H1199 C1204 0.949 . S
H1200 C1206 0.950 . S
H1201 C1207 0.950 . S
H1202 C1208 0.949 . S
C1203 H1198 0.950 . S
C1203 C1205 1.327 . S
C1203 C1209 1.429 . S
C1204 C1196 1.574 . S
C1204 H1199 0.949 . S
C1204 C1210 1.368 1_455 S
C1205 C1189 1.349 . S
C1205 H1197 0.950 . S
C1205 C1203 1.327 . S
C1206 C1194 1.349 . S
C1206 H1200 0.950 . S
C1206 C1207 1.327 . S
C1207 H1201 0.950 . S
C1207 C1206 1.327 . S
C1207 C1211 1.429 . S
C1208 C1191 1.574 . S
C1208 H1202 0.949 . S
C1208 C1212 1.368 1_655 S
C1209 C1190 1.429 . S
C1209 C1203 1.429 . S
C1209 C1210 1.523 . S
C1210 C1191 1.368 1_545 S
C1210 C1204 1.368 1_655 S
C1210 C1209 1.523 . S
C1211 C1195 1.429 . S
C1211 C1207 1.429 . S
C1211 C1212 1.523 . S
C1212 C1196 1.368 1_565 S
C1212 C1208 1.368 1_455 S
C1212 C1211 1.523 . S
H1213 C1188 0.950 . S
H1214 C1190 0.950 . S
H1215 C1191 0.949 . S
H1216 C1193 0.950 . S
H1217 C1195 0.950 . S
C1218 C1219 1.349 . S
C1218 C1220 1.327 . S
C1218 H1243 0.950 . S
C1219 C1218 1.349 . S
C1219 C1235 1.349 . S
C1220 C1218 1.327 . S
C1220 C1239 1.429 . S
C1220 H1244 0.950 . S
C1221 C1238 1.574 1_565 S
C1221 C1240 1.368 . S
C1221 H1245 0.949 . S
H1222 C1226 0.949 . S
C1223 C1224 1.349 . S
C1223 C1225 1.327 . S
C1223 H1246 0.950 . S
C1224 C1223 1.349 . S
C1224 C1236 1.349 . S
C1225 C1223 1.327 . S
C1225 C1241 1.429 . S
C1225 H1247 0.950 . S
C1226 H1222 0.949 . S
C1226 C1234 1.574 1_545 S
C1226 C1242 1.368 . S
H1227 C1235 0.950 . S
H1228 C1233 0.950 . S
H1229 C1234 0.949 . S
H1230 C1236 0.950 . S
H1231 C1237 0.950 . S
H1232 C1238 0.949 . S
C1233 H1228 0.950 . S
C1233 C1235 1.327 . S
C1233 C1239 1.429 . S
C1234 C1226 1.574 1_565 S
C1234 H1229 0.949 . S
C1234 C1240 1.368 1_455 S
C1235 C1219 1.349 . S
C1235 H1227 0.950 . S
C1235 C1233 1.327 . S
C1236 C1224 1.349 . S
C1236 H1230 0.950 . S
C1236 C1237 1.327 . S
C1237 H1231 0.950 . S
C1237 C1236 1.327 . S
C1237 C1241 1.429 . S
C1238 C1221 1.574 1_545 S
C1238 H1232 0.949 . S
C1238 C1242 1.368 1_655 S
C1239 C1220 1.429 . S
C1239 C1233 1.429 . S
C1239 C1240 1.523 . S
C1240 C1221 1.368 . S
C1240 C1234 1.368 1_655 S
C1240 C1239 1.523 . S
C1241 C1225 1.429 . S
C1241 C1237 1.429 . S
C1241 C1242 1.523 . S
C1242 C1226 1.368 . S
C1242 C1238 1.368 1_455 S
C1242 C1241 1.523 . S
H1243 C1218 0.950 . S
H1244 C1220 0.950 . S
H1245 C1221 0.949 . S
H1246 C1223 0.950 . S
H1247 C1225 0.950 . S
C1248 C1249 1.349 . S
C1248 C1250 1.327 . S
C1248 H1273 0.950 . S
C1249 C1248 1.349 . S
C1249 C1265 1.349 . S
C1250 C1248 1.327 . S
C1250 C1269 1.429 . S
C1250 H1274 0.950 . S
C1251 C1268 1.574 . S
C1251 C1270 1.368 1_565 S
C1251 H1275 0.949 . S
H1252 C1256 0.949 . S
C1253 C1254 1.349 . S
C1253 C1255 1.327 . S
C1253 H1276 0.950 . S
C1254 C1253 1.349 . S
C1254 C1266 1.349 . S
C1255 C1253 1.327 . S
C1255 C1271 1.429 . S
C1255 H1277 0.950 . S
C1256 H1252 0.949 . S
C1256 C1264 1.574 . S
C1256 C1272 1.368 1_545 S
H1257 C1265 0.950 . S
H1258 C1263 0.950 . S
H1259 C1264 0.949 . S
H1260 C1266 0.950 . S
H1261 C1267 0.950 . S
H1262 C1268 0.949 . S
C1263 H1258 0.950 . S
C1263 C1265 1.327 . S
C1263 C1269 1.429 . S
C1264 C1256 1.574 . S
C1264 H1259 0.949 . S
C1264 C1270 1.368 1_455 S
C1265 C1249 1.349 . S
C1265 H1257 0.950 . S
C1265 C1263 1.327 . S
C1266 C1254 1.349 . S
C1266 H1260 0.950 . S
C1266 C1267 1.327 . S
C1267 H1261 0.950 . S
C1267 C1266 1.327 . S
C1267 C1271 1.429 . S
C1268 C1251 1.574 . S
C1268 H1262 0.949 . S
C1268 C1272 1.368 1_655 S
C1269 C1250 1.429 . S
C1269 C1263 1.429 . S
C1269 C1270 1.523 . S
C1270 C1251 1.368 1_545 S
C1270 C1264 1.368 1_655 S
C1270 C1269 1.523 . S
C1271 C1255 1.429 . S
C1271 C1267 1.429 . S
C1271 C1272 1.523 . S
C1272 C1256 1.368 1_565 S
C1272 C1268 1.368 1_455 S
C1272 C1271 1.523 . S
H1273 C1248 0.950 . S
H1274 C1250 0.950 . S
H1275 C1251 0.949 . S
H1276 C1253 0.950 . S
H1277 C1255 0.950 . S
C1278 C1279 1.349 . S
C1278 C1280 1.327 . S
C1278 H1303 0.950 . S
C1279 C1278 1.349 . S
C1279 C1295 1.349 . S
C1280 C1278 1.327 . S
C1280 C1299 1.429 . S
C1280 H1304 0.950 . S
C1281 C1298 1.574 1_455 S
C1281 C1300 1.368 . S
C1281 H1305 0.949 . S
H1282 C1286 0.949 . S
C1283 C1284 1.349 . S
C1283 C1285 1.327 . S
C1283 H1306 0.950 . S
C1284 C1283 1.349 . S
C1284 C1296 1.349 . S
C1285 C1283 1.327 . S
C1285 C1301 1.429 . S
C1285 H1307 0.950 . S
C1286 H1282 0.949 . S
C1286 C1294 1.574 1_655 S
C1286 C1302 1.368 . S
H1287 C1295 0.950 . S
H1288 C1293 0.950 . S
H1289 C1294 0.949 . S
H1290 C1296 0.950 . S
H1291 C1297 0.950 . S
H1292 C1298 0.949 . S
C1293 H1288 0.950 . S
C1293 C1295 1.327 . S
C1293 C1299 1.429 . S
C1294 C1286 1.574 1_455 S
C1294 H1289 0.949 . S
C1294 C1300 1.368 1_565 S
C1295 C1279 1.349 . S
C1295 H1287 0.950 . S
C1295 C1293 1.327 . S
C1296 C1284 1.349 . S
C1296 H1290 0.950 . S
C1296 C1297 1.327 . S
C1297 H1291 0.950 . S
C1297 C1296 1.327 . S
C1297 C1301 1.429 . S
C1298 C1281 1.574 1_655 S
C1298 H1292 0.949 . S
C1298 C1302 1.368 1_545 S
C1299 C1280 1.429 . S
C1299 C1293 1.429 . S
C1299 C1300 1.523 . S
C1300 C1281 1.368 . S
C1300 C1294 1.368 1_545 S
C1300 C1299 1.523 . S
C1301 C1285 1.429 . S
C1301 C1297 1.429 . S
C1301 C1302 1.523 . S
C1302 C1286 1.368 . S
C1302 C1298 1.368 1_565 S
C1302 C1301 1.523 . S
H1303 C1278 0.950 . S
H1304 C1280 0.950 . S
H1305 C1281 0.949 . S
H1306 C1283 0.950 . S
H1307 C1285 0.950 . S
C409 C9 1.463 . S
C414 C247 1.463 . S
C439 C43 1.463 . S
C444 C281 1.463 . S
C469 C77 1.463 . S
C474 C315 1.463 . S
C499 C349 1.463 . S
C504 C111 1.463 . S
C529 C383 1.463 . S
C534 C145 1.463 . S
C559 C179 1.463 . S
C564 C213 1.463 . S
C589 C122 0.311 . S
C594 C20 0.311 . S
C619 C54 0.311 . S
C624 C156 0.311 . S
C649 C190 0.311 . S
C654 C88 0.311 . S
C679 C326 0.311 . S
C684 C224 0.311 . S
C709 C360 0.311 . S
C714 C258 0.311 . S
C739 C292 0.311 . S
C744 C394 0.311 . S
C769 C277 1.498 . S
C774 C5 1.498 . S
C799 C39 1.498 . S
C804 C311 1.498 . S
C829 C73 1.498 . S
C834 C345 1.498 . S
C859 C107 1.498 . S
C864 C379 1.498 . S
C889 C141 1.498 . S
C894 C209 1.498 . S
C919 C243 1.498 . S
C924 C175 1.498 . S
C949 C135 2.396 . S
C954 C33 2.396 . S
C979 C67 2.396 . S
C984 C169 2.396 . S
C1009 C203 2.397 . S
C1014 C101 2.397 . S
C1039 C237 2.396 . S
C1044 C339 2.396 . S
C1069 C271 2.397 . S
C1074 C373 2.397 . S
C1099 C407 2.396 . S
C1104 C305 2.396 . S
C1129 C2 1.360 . S
C1134 C104 1.360 . S
C1159 C36 1.360 . S
C1164 C138 1.360 . S
C1189 C70 1.359 . S
C1194 C172 1.359 . S
C1219 C206 1.360 . S
C1224 C308 1.360 . S
C1249 C342 1.359 . S
C1254 C240 1.359 . S
C1279 C274 1.360 . S
C1284 C376 1.360 . S
