# Generated by pormake.
# Topology snz, (6)-cn, num edge types: 1
# Building blocks:
#     Node 0, Type 0, BuildingBlock: KUMJIN_clean_sbu_0, # of connection points: 6
#     Node 1, Type 0, BuildingBlock: KUMJIN_clean_sbu_0, # of connection points: 6
#     Node 2, Type 0, BuildingBlock: KUMJIN_clean_sbu_0, # of connection points: 6
#     Node 3, Type 0, BuildingBlock: KUMJIN_clean_sbu_0, # of connection points: 6
#     Node 4, Type 0, BuildingBlock: KUMJIN_clean_sbu_0, # of connection points: 6
#     Node 5, Type 0, BuildingBlock: KUMJIN_clean_sbu_0, # of connection points: 6
#     Node 6, Type 0, BuildingBlock: KUMJIN_clean_sbu_0, # of connection points: 6
#     Node 7, Type 0, BuildingBlock: KUMJIN_clean_sbu_0, # of connection points: 6
#     Node 8, Type 0, BuildingBlock: KUMJIN_clean_sbu_0, # of connection points: 6
#     Edge 9, Type (0, 0), BuildingBlock: ZUJKAS_clean_linker_0, # of connection points: 2
#     Edge 10, Type (0, 0), BuildingBlock: ZUJKAS_clean_linker_0, # of connection points: 2
#     Edge 11, Type (0, 0), BuildingBlock: ZUJKAS_clean_linker_0, # of connection points: 2
#     Edge 12, Type (0, 0), BuildingBlock: ZUJKAS_clean_linker_0, # of connection points: 2
#     Edge 13, Type (0, 0), BuildingBlock: ZUJKAS_clean_linker_0, # of connection points: 2
#     Edge 14, Type (0, 0), BuildingBlock: ZUJKAS_clean_linker_0, # of connection points: 2
#     Edge 15, Type (0, 0), BuildingBlock: ZUJKAS_clean_linker_0, # of connection points: 2
#     Edge 16, Type (0, 0), BuildingBlock: ZUJKAS_clean_linker_0, # of connection points: 2
#     Edge 17, Type (0, 0), BuildingBlock: ZUJKAS_clean_linker_0, # of connection points: 2
#     Edge 18, Type (0, 0), BuildingBlock: ZUJKAS_clean_linker_0, # of connection points: 2
#     Edge 19, Type (0, 0), BuildingBlock: ZUJKAS_clean_linker_0, # of connection points: 2
#     Edge 20, Type (0, 0), BuildingBlock: ZUJKAS_clean_linker_0, # of connection points: 2
#     Edge 21, Type (0, 0), BuildingBlock: ZUJKAS_clean_linker_0, # of connection points: 2
#     Edge 22, Type (0, 0), BuildingBlock: ZUJKAS_clean_linker_0, # of connection points: 2
#     Edge 23, Type (0, 0), BuildingBlock: ZUJKAS_clean_linker_0, # of connection points: 2
#     Edge 24, Type (0, 0), BuildingBlock: ZUJKAS_clean_linker_0, # of connection points: 2
#     Edge 25, Type (0, 0), BuildingBlock: ZUJKAS_clean_linker_0, # of connection points: 2
#     Edge 26, Type (0, 0), BuildingBlock: ZUJKAS_clean_linker_0, # of connection points: 2
#     Edge 27, Type (0, 0), BuildingBlock: ZUJKAS_clean_linker_0, # of connection points: 2
#     Edge 28, Type (0, 0), BuildingBlock: ZUJKAS_clean_linker_0, # of connection points: 2
#     Edge 29, Type (0, 0), BuildingBlock: ZUJKAS_clean_linker_0, # of connection points: 2
#     Edge 30, Type (0, 0), BuildingBlock: ZUJKAS_clean_linker_0, # of connection points: 2
#     Edge 31, Type (0, 0), BuildingBlock: ZUJKAS_clean_linker_0, # of connection points: 2
#     Edge 32, Type (0, 0), BuildingBlock: ZUJKAS_clean_linker_0, # of connection points: 2
#     Edge 33, Type (0, 0), BuildingBlock: ZUJKAS_clean_linker_0, # of connection points: 2
#     Edge 34, Type (0, 0), BuildingBlock: ZUJKAS_clean_linker_0, # of connection points: 2
#     Edge 35, Type (0, 0), BuildingBlock: ZUJKAS_clean_linker_0, # of connection points: 2
# Relax obj value: 0.224
# Max RMSD: 0.298
# Mean RMSD: 0.201
data_MOF--net-snz--node1-KUMJIN_clean_sbu_0--edge1-ZUJKAS_clean_linker_0
_symmetry_space_group_name_H-M    P1
_symmetry_Int_Tables_number       1
_symmetry_cell_setting            triclinic
loop_
_symmetry_equiv_pos_as_xyz
'x, y, z'
_cell_length_a     74.79077
_cell_length_b     70.28912
_cell_length_c     20.726207
_cell_angle_alpha  93.508873
_cell_angle_beta   94.752392
_cell_angle_gamma 120.44626
loop_
_atom_site_label
_atom_site_type_symbol
_atom_site_fract_x
_atom_site_fract_y
_atom_site_fract_z
_atom_type_partial_charge
Eu0 Eu 0.09865 0.48671 0.22103 0.0
C1 C 0.00694 0.4462 0.25782 0.0
C2 C 0.99034 0.41305 0.18005 0.0
C3 C 0.9752 0.41329 0.27913 0.0
C4 C 0.00676 0.43508 0.20051 0.0
C5 C 0.99062 0.4358 0.29631 0.0
C6 C 0.97508 0.40191 0.22101 0.0
C7 C 0.00366 0.47161 0.35799 0.0
N8 N 0.02162 0.46808 0.27141 0.0
C9 C 0.01949 0.48114 0.31815 0.0
C10 C 0.98948 0.44871 0.34814 0.0
Eu11 Eu 0.04802 0.48364 0.20206 0.0
N12 N 0.02133 0.44665 0.16133 0.0
C13 C 0.01933 0.43782 0.09875 0.0
C14 C 0.98908 0.40338 0.11752 0.0
C15 C 0.00339 0.416 0.07621 0.0
H16 H 0.03048 0.49886 0.32594 0.0
H17 H 1.00222 0.40892 1.02709 0.0
H18 H 0.96254 0.38488 0.20663 0.0
H19 H 1.00245 0.48191 0.39628 0.0
H20 H 0.03029 0.44734 0.06634 0.0
H21 H 0.14036 0.54865 0.43907 0.0
H22 H 0.97672 0.38652 0.09989 0.0
H23 H 0.12072 0.48855 0.08229 0.0
H24 H 0.11754 0.51168 0.38161 0.0
H25 H 0.14427 0.51656 1.01667 0.0
H26 H 0.96272 0.40489 0.30862 0.0
H27 H 0.16185 0.58004 0.37879 0.0
H28 H 0.17482 0.59322 0.27393 0.0
H29 H 0.97714 0.44138 0.3787 0.0
H30 H 0.17508 0.5848 0.15754 0.0
N31 N 0.12333 0.52143 0.28593 0.0
C32 C 0.1256 0.52493 0.35271 0.0
C33 C 0.15127 0.5637 0.35239 0.0
C34 C 0.15042 0.5598 0.28506 0.0
C35 C 0.13912 0.54607 0.38648 0.0
C36 C 0.13626 0.53821 0.25274 0.0
H37 H 0.16389 0.55628 0.06119 0.0
N38 N 0.12401 0.51222 0.15883 0.0
C39 C 0.14183 0.52171 0.06381 0.0
C40 C 0.13641 0.5335 0.1871 0.0
C41 C 0.128 0.50591 0.10047 0.0
C42 C 0.1529 0.54406 0.08917 0.0
C43 C 0.15094 0.5501 0.15254 0.0
O44 O 0.10933 0.46529 0.17932 0.0
O45 O 0.06446 0.46513 0.18508 0.0
O46 O 0.05292 0.47661 0.30893 0.0
O47 O 0.08742 0.48443 0.32313 0.0
O48 O 0.07697 0.45231 0.24838 0.0
O49 O 0.12074 0.48047 0.27872 0.0
O50 O 0.04097 0.5105 0.20403 0.0
O51 O 0.08303 0.50685 0.21156 0.0
O52 O 0.08758 0.48157 0.10863 0.0
O53 O 0.05868 0.48601 0.09935 0.0
O54 O 0.0665 0.51424 0.27428 0.0
O55 O 0.02845 0.48568 0.12139 0.0
C56 C 0.06042 0.44777 0.21074 0.0
C57 C 0.14192 0.46996 0.22469 0.0
C58 C 0.16619 0.45574 0.23449 0.0
C59 C 0.14672 0.45383 0.24403 0.0
C60 C 0.18015 0.47385 0.20324 0.0
C61 C 0.15688 0.48831 0.19777 0.0
C62 C 0.17568 0.49003 0.18626 0.0
C63 C 0.06978 0.4798 0.34707 0.0
C64 C 0.12129 0.46751 0.23221 0.0
C65 C 0.16403 0.57184 0.18353 0.0
C66 C 0.16385 0.57664 0.24978 0.0
C67 C 0.08461 0.52119 0.25581 0.0
C68 C 0.00739 0.49997 0.15211 0.0
C69 C 0.00394 0.51749 0.13986 0.0
C70 C 0.9841 0.51501 0.14402 0.0
C71 C 0.96791 0.49483 0.16039 0.0
C72 C 0.99076 0.47992 0.16703 0.0
C73 C 0.97123 0.47745 0.17155 0.0
C74 C 0.07311 0.48364 0.07234 0.0
C75 C 0.02822 0.5025 0.15001 0.0
H76 H 0.13539 0.4401 0.26704 0.0
H77 H 0.19469 0.47568 0.19117 0.0
H78 H 0.15404 0.5013 0.18529 0.0
H79 H 0.18688 0.50401 0.16373 0.0
H80 H 0.01664 0.53298 0.12779 0.0
H81 H 0.95246 0.49228 0.16316 0.0
H82 H 0.99279 0.46606 0.1748 0.0
H83 H 0.95856 0.46191 0.1833 0.0
Eu84 Eu 0.61732 0.52572 0.14056 0.0
C85 C 0.64955 0.46627 0.21103 0.0
C86 C 0.68212 0.48205 0.16433 0.0
C87 C 0.67895 0.46446 0.26337 0.0
C88 C 0.66143 0.47762 0.16339 0.0
C89 C 0.6579 0.45858 0.25948 0.0
C90 C 0.69106 0.47626 0.21599 0.0
C91 C 0.62316 0.43627 0.28873 0.0
N92 N 0.62913 0.46043 0.20544 0.0
C93 C 0.61562 0.4444 0.24034 0.0
C94 C 0.64451 0.44392 0.29972 0.0
Eu95 Eu 0.6175 0.47417 0.11984 0.0
N96 N 0.65214 0.48228 0.11268 0.0
C97 C 0.662 0.48948 0.05889 0.0
C98 C 0.69282 0.49103 0.11149 0.0
C99 C 0.68256 0.49434 0.05798 0.0
H100 H 0.59909 0.4386 0.23252 0.0
H101 H 0.6905 0.50072 1.01607 0.0
H102 H 0.707 0.47982 0.21792 0.0
H103 H 0.61251 0.42422 0.31774 0.0
H104 H 0.65445 0.49222 1.01705 0.0
H105 H 0.56251 0.51073 0.32004 0.0
H106 H 0.70871 0.49469 0.11046 0.0
H107 H 0.61402 0.54731 0.99949 0.0
H108 H 0.59639 0.52256 0.28419 0.0
H109 H 0.58691 0.54362 0.91552 0.0
H110 H 0.68571 0.45903 0.30093 0.0
H111 H 0.53184 0.50056 0.23982 0.0
H112 H 0.51736 0.49796 0.12437 0.0
H113 H 0.6503 0.43753 0.33711 0.0
H114 H 0.52382 0.50592 1.01205 0.0
N115 N 0.58542 0.51735 0.18232 0.0
C116 C 0.58333 0.5174 0.24739 0.0
C117 C 0.54678 0.50543 0.22326 0.0
C118 C 0.54927 0.50714 0.15745 0.0
C119 C 0.56402 0.5111 0.26858 0.0
C120 C 0.5691 0.51355 0.13832 0.0
H121 H 0.54979 0.52328 0.93368 0.0
N122 N 0.59241 0.5261 0.06038 0.0
C123 C 0.58251 0.53564 0.95933 0.0
C124 C 0.57261 0.51758 0.07494 0.0
C125 C 0.59781 0.53726 1.0066 0.0
C126 C 0.56162 0.52419 0.96978 0.0
C127 C 0.55656 0.51593 1.02946 0.0
O128 O 0.63552 0.55935 0.11223 0.0
O129 O 0.63645 0.51079 0.11335 0.0
O130 O 0.61953 0.48342 0.23257 0.0
O131 O 0.62177 0.5178 0.2449 0.0
O132 O 0.65032 0.53739 0.18508 0.0
O133 O 0.62563 0.55503 0.20742 0.0
O134 O 0.59126 0.43983 0.1108 0.0
O135 O 0.59871 0.48941 0.14921 0.0
O136 O 0.61897 0.51761 1.02927 0.0
O137 O 0.61994 0.48507 1.01716 0.0
O138 O 0.58476 0.46359 0.07528 0.0
O139 O 0.61588 0.4485 1.05015 0.0
C140 C 0.65354 0.52415 0.14914 0.0
C141 C 0.62845 0.58589 0.16058 0.0
C142 C 0.63709 0.6246 0.17613 0.0
C143 C 0.64332 0.6087 0.17725 0.0
C144 C 0.61591 0.61731 0.15661 0.0
C145 C 0.60742 0.57912 0.14218 0.0
C146 C 0.60125 0.59476 0.13969 0.0
C147 C 0.62145 0.50072 0.27034 0.0
C148 C 0.63464 0.56915 0.16622 0.0
C149 C 0.5364 0.50774 1.04677 0.0
C150 C 0.53276 0.50335 0.11079 0.0
C151 C 0.58169 0.47645 0.11311 0.0
C152 C 0.59648 0.41089 0.07187 0.0
C153 C 0.57888 0.39153 1.03847 0.0
C154 C 0.57623 0.37035 1.04425 0.0
C155 C 0.59154 0.36909 0.08515 0.0
C156 C 0.61178 0.40916 0.11033 0.0
C157 C 0.60918 0.38834 0.11736 0.0
C158 C 0.61937 0.50164 0.99158 0.0
C159 C 0.59839 0.43262 0.06612 0.0
H160 H 0.65952 0.61396 0.19274 0.0
H161 H 0.61068 0.6291 0.15411 0.0
H162 H 0.59569 0.56173 0.13066 0.0
H163 H 0.58498 0.58936 0.12518 0.0
H164 H 0.56748 0.39313 1.00722 0.0
H165 H 0.5899 0.35321 0.09276 0.0
H166 H 0.62569 0.42384 0.13498 0.0
H167 H 0.62091 0.38709 0.148 0.0
Eu168 Eu 0.57054 0.03865 0.94197 0.0
C169 C 0.61705 0.135 1.04372 0.0
C170 C 0.59931 0.1482 0.97289 0.0
C171 C 0.61238 0.16513 0.08521 0.0
C172 C 0.60651 0.13342 0.98365 0.0
C173 C 0.6208 0.15147 0.09434 0.0
C174 C 0.60161 0.16346 1.02459 0.0
C175 C 0.64344 0.14196 0.15582 0.0
N176 N 0.62529 0.12181 1.05076 0.0
C177 C 0.63929 0.12589 0.10431 0.0
C178 C 0.63377 0.15447 0.15146 0.0
Eu179 Eu 0.61624 0.09389 0.96264 0.0
N180 N 0.60502 0.11887 0.93418 0.0
C181 C 0.59854 0.11998 0.87161 0.0
C182 C 0.59099 0.148 0.90973 0.0
C183 C 0.59111 0.13423 0.85864 0.0
H184 H 0.64669 0.11612 0.10813 0.0
H185 H 0.58536 0.13448 0.8092 0.0
H186 H 0.59591 0.17472 1.01739 0.0
H187 H 0.65402 0.14463 0.1989 0.0
H188 H 0.59848 0.10962 0.8312 0.0
H189 H 0.55253 0.98803 0.14488 0.0
H190 H 0.58528 0.15906 0.89948 0.0
H191 H 0.58361 0.02646 0.7943 0.0
H192 H 0.55034 0.01389 0.07421 0.0
H193 H 0.59678 0.00431 0.74943 0.0
H194 H 0.61483 0.17765 0.12384 0.0
H195 H 0.57101 0.9687 0.1139 0.0
H196 H 0.58837 0.95943 1.02981 0.0
H197 H 0.63707 0.16698 0.19133 0.0
H198 H 0.5996 0.96323 0.92098 0.0
N199 N 0.5701 0.012 1.00906 0.0
C200 C 0.55944 0.00653 0.06202 0.0
C201 C 0.57059 0.98056 0.08371 0.0
C202 C 0.57901 0.98393 1.02488 0.0
C203 C 0.56023 0.99148 0.10147 0.0
C204 C 0.5782 0.99971 0.98749 0.0
H205 H 0.60234 0.97943 0.81607 0.0
N206 N 0.58283 0.01662 0.89041 0.0
C207 C 0.59381 0.00375 0.79972 0.0
C208 C 0.58453 0.00189 0.92622 0.0
C209 C 0.5866 0.01689 0.82671 0.0
C210 C 0.5968 0.98965 0.83728 0.0
C211 C 0.59184 0.98828 0.9009 0.0
O212 O 0.54481 0.01364 0.86965 0.0
O213 O 0.58175 0.07421 0.92668 0.0
O214 O 0.60497 0.08724 0.06601 0.0
O215 O 0.57884 0.04977 0.05369 0.0
O216 O 0.55761 0.05921 0.98197 0.0
O217 O 0.53803 0.02318 0.96079 0.0
O218 O 0.64377 0.12444 0.942 0.0
O219 O 0.60537 0.05759 0.95643 0.0
O220 O 0.57453 0.05038 0.83785 0.0
O221 O 0.60744 0.08263 0.85133 0.0
O222 O 0.62873 0.07881 1.03281 0.0
O223 O 0.64338 0.09391 0.92792 0.0
C224 C 0.56822 0.0766 0.95343 0.0
C225 C 0.51677 0.98553 0.91865 0.0
C226 C 0.4873 0.95742 0.96832 0.0
C227 C 0.49954 0.97943 0.95356 0.0
C228 C 0.49224 0.94153 0.94615 0.0
C229 C 0.52138 0.96928 0.8977 0.0
C230 C 0.50909 0.94743 0.91108 0.0
C231 C 0.59145 0.06898 0.0912 0.0
C232 C 0.53061 0.00907 0.9084 0.0
C233 C 0.5937 0.97347 0.93933 0.0
C234 C 0.58737 0.97136 1.00132 0.0
C235 C 0.61727 0.05851 1.00573 0.0
C236 C 0.67673 0.12662 0.9593 0.0
C237 C 0.69206 0.12471 0.9284 0.0
C238 C 0.71299 0.13528 0.95923 0.0
C239 C 0.71827 0.14757 1.0209 0.0
C240 C 0.68287 0.13982 1.01976 0.0
C241 C 0.70337 0.14994 1.05057 0.0
C242 C 0.59075 0.06643 0.81277 0.0
C243 C 0.65455 0.11527 0.92832 0.0
H244 H 0.49611 0.99194 0.97098 0.0
H245 H 0.48299 0.92442 0.95579 0.0
H246 H 0.53463 0.97346 0.87164 0.0
H247 H 0.51275 0.93504 0.89468 0.0
H248 H 0.68775 0.11504 0.88101 0.0
H249 H 0.73418 0.1559 1.0455 0.0
H250 H 0.67195 0.14264 1.04303 0.0
H251 H 0.70778 0.15991 0.09743 0.0
Eu252 Eu 0.81036 0.8957 0.32524 0.0
C253 C 0.72306 0.85114 0.29242 0.0
C254 C 0.70712 0.84236 0.17988 0.0
C255 C 0.69254 0.81456 0.25442 0.0
C256 C 0.72293 0.85723 0.23049 0.0
C257 C 0.70752 0.82984 0.30536 0.0
C258 C 0.69235 0.82081 0.19171 0.0
C259 C 0.72223 0.84038 0.41846 0.0
N260 N 0.73815 0.86609 0.34025 0.0
C261 C 0.73741 0.86114 0.40324 0.0
C262 C 0.70739 0.82453 0.3692 0.0
Eu263 Eu 0.76424 0.90089 0.3094 0.0
N264 N 0.73744 0.87815 0.2206 0.0
C265 C 0.73492 0.88616 0.16406 0.0
C266 C 0.70613 0.84986 0.11953 0.0
C267 C 0.71978 0.87205 0.11214 0.0
H268 H 0.74819 0.87292 0.44299 0.0
H269 H 0.7185 0.8784 0.06678 0.0
H270 H 0.68035 0.80907 0.15319 0.0
H271 H 0.72203 0.83664 0.46839 0.0
H272 H 0.74479 0.90352 0.15859 0.0
H273 H 0.86537 0.96926 0.49298 0.0
H274 H 0.69427 0.83896 0.07947 0.0
H275 H 0.82176 0.87306 0.20071 0.0
H276 H 0.83292 0.93379 0.45658 0.0
H277 H 0.84908 0.88413 0.12757 0.0
H278 H 0.68078 0.79804 0.2633 0.0
H279 H 0.89185 0.98678 0.41776 0.0
H280 H 0.90425 0.98343 0.3107 0.0
H281 H 0.69574 0.8084 0.38109 0.0
H282 H 0.89978 0.95995 0.21042 0.0
N283 N 0.84074 0.93067 0.36174 0.0
C284 C 0.8443 0.94102 0.4233 0.0
C285 C 0.8776 0.97104 0.40151 0.0
C286 C 0.87445 0.95965 0.33993 0.0
C287 C 0.86269 0.96133 0.44399 0.0
C288 C 0.85573 0.93904 0.3217 0.0
H289 H 0.8795 0.92258 0.14257 0.0
N290 N 0.83603 0.90524 0.25377 0.0
C291 C 0.85035 0.89613 0.16574 0.0
C292 C 0.85327 0.92588 0.26562 0.0
C293 C 0.8349 0.88993 0.20705 0.0
C294 C 0.86745 0.91787 0.17422 0.0
C295 C 0.86937 0.9329 0.22577 0.0
O296 O 0.80815 0.86351 0.33266 0.0
O297 O 0.77527 0.87692 0.31707 0.0
O298 O 0.77548 0.90657 0.4213 0.0
O299 O 0.80127 0.89718 0.42911 0.0
O300 O 0.78893 0.8666 0.25049 0.0
O301 O 0.83037 0.89175 0.39979 0.0
O302 O 0.74989 0.91242 0.37803 0.0
O303 O 0.79864 0.91885 0.34271 0.0
O304 O 0.80711 0.90349 0.21834 0.0
O305 O 0.77479 0.90146 0.20598 0.0
O306 O 0.7883 0.9341 0.28086 0.0
O307 O 0.75008 0.9203 0.27808 0.0
C308 C 0.77154 0.8623 0.27038 0.0
C309 C 0.83897 0.86434 0.37367 0.0
C310 C 0.85105 0.83832 0.39244 0.0
C311 C 0.83604 0.8447 0.39736 0.0
C312 C 0.86875 0.85171 0.362 0.0
C313 C 0.85695 0.87755 0.34474 0.0
C314 C 0.87164 0.87114 0.33851 0.0
C315 C 0.78862 0.9024 0.45693 0.0
C316 C 0.82332 0.87099 0.38007 0.0
C317 C 0.88735 0.95414 0.24089 0.0
C318 C 0.88989 0.96751 0.29798 0.0
C319 C 0.80449 0.93639 0.31576 0.0
C320 C 0.73349 0.93396 0.3497 0.0
C321 C 0.72412 0.94036 0.29988 0.0
C322 C 0.71296 0.95096 0.3158 0.0
C323 C 0.71188 0.95558 0.38187 0.0
C324 C 0.73202 0.93885 0.41505 0.0
C325 C 0.7214 0.94967 0.43087 0.0
C326 C 0.79146 0.90325 0.18115 0.0
C327 C 0.7446 0.922 0.33488 0.0
H328 H 0.82233 0.83472 0.42081 0.0
H329 H 0.88038 0.84713 0.35603 0.0
H330 H 0.85974 0.89288 0.3273 0.0
H331 H 0.88539 0.88134 0.31562 0.0
H332 H 0.72502 0.93661 0.24917 0.0
H333 H 0.70373 0.96396 0.39575 0.0
H334 H 0.73914 0.93434 0.45422 0.0
H335 H 0.72045 0.95341 0.48148 0.0
Eu336 Eu 0.1633 0.80123 0.33626 0.0
C337 C 0.22244 0.78168 0.45734 0.0
C338 C 0.23538 0.80759 0.55627 0.0
C339 C 0.23123 0.77113 0.55971 0.0
C340 C 0.22756 0.80206 0.48914 0.0
C341 C 0.22472 0.76621 0.49222 0.0
C342 C 0.23666 0.79182 0.5916 0.0
C343 C 0.21721 0.74361 0.39002 0.0
N344 N 0.21687 0.77769 0.39167 0.0
C345 C 0.21569 0.75967 0.35752 0.0
C346 C 0.22135 0.74668 0.45784 0.0
Eu347 Eu 0.21347 0.80559 0.34149 0.0
N348 N 0.22599 0.81695 0.454 0.0
C349 C 0.2333 0.83812 0.48201 0.0
C350 C 0.24191 0.82892 0.58582 0.0
C351 C 0.24112 0.84433 0.54827 0.0
H352 H 0.21351 0.75755 0.30479 0.0
H353 H 0.24655 0.86103 0.57032 0.0
H354 H 0.24225 0.79565 0.64335 0.0
H355 H 0.21555 0.72906 0.36261 0.0
H356 H 0.23322 0.8504 0.45374 0.0
H357 H 0.13077 0.74808 0.10334 0.0
H358 H 0.24792 0.83375 0.63722 0.0
H359 H 0.16044 0.84686 0.38112 0.0
H360 H 0.14445 0.75779 0.21992 0.0
H361 H 0.15526 0.87462 0.32898 0.0
H362 H 0.23284 0.75935 0.58727 0.0
H363 H 0.12788 0.77547 1.04087 0.0
H364 H 0.13154 0.81291 1.04028 0.0
H365 H 0.22288 0.73439 0.48289 0.0
H366 H 0.13887 0.84772 0.10149 0.0
N367 N 0.15036 0.79083 0.22373 0.0
C368 C 0.14369 0.77009 0.19344 0.0
C369 C 0.13407 0.77991 0.09218 0.0
C370 C 0.13986 0.8007 0.12423 0.0
C371 C 0.13569 0.76442 0.12724 0.0
C372 C 0.1479 0.8057 0.19115 0.0
H373 H 0.1475 0.87075 0.20903 0.0
N374 N 0.15769 0.82853 0.29121 0.0
C375 C 0.15455 0.86099 0.29923 0.0
C376 C 0.15194 0.82525 0.22574 0.0
C377 C 0.15763 0.8453 0.32847 0.0
C378 C 0.1502 0.85876 0.23155 0.0
C379 C 0.1482 0.84038 0.19407 0.0
O380 O 0.1382 0.80215 0.38067 0.0
O381 O 0.18937 0.80356 0.40894 0.0
O382 O 0.18924 0.77037 0.3007 0.0
O383 O 0.15953 0.76674 0.33842 0.0
O384 O 0.16689 0.80715 0.44789 0.0
O385 O 0.13272 0.77094 0.33454 0.0
O386 O 0.23996 0.80349 0.31286 0.0
O387 O 0.18735 0.80331 0.26899 0.0
O388 O 0.18803 0.83811 0.36374 0.0
O389 O 0.21841 0.83989 0.33832 0.0
O390 O 0.21007 0.80031 0.22953 0.0
O391 O 0.24291 0.83564 0.331 0.0
C392 C 0.1829 0.80539 0.46515 0.0
C393 C 0.10307 0.77463 0.34282 0.0
C394 C 0.06709 0.76007 0.36604 0.0
C395 C 0.08779 0.76537 0.38523 0.0
C396 C 0.06194 0.76397 0.30332 0.0
C397 C 0.09757 0.77833 0.28059 0.0
C398 C 0.07706 0.77294 0.26098 0.0
C399 C 0.17018 0.75809 0.31533 0.0
C400 C 0.12478 0.78101 0.36551 0.0
C401 C 0.14157 0.83615 0.12666 0.0
C402 C 0.13734 0.81631 0.09184 0.0
C403 C 0.19394 0.80197 0.21261 0.0
C404 C 0.27414 0.83469 0.34321 0.0
C405 C 0.29008 0.84771 0.30617 0.0
C406 C 0.31135 0.85681 0.33063 0.0
C407 C 0.31622 0.85275 0.39358 0.0
C408 C 0.2794 0.83102 0.40573 0.0
C409 C 0.30037 0.84008 0.43075 0.0
C410 C 0.20782 0.84944 0.3535 0.0
C411 C 0.25219 0.82493 0.31497 0.0
H412 H 0.09214 0.76276 0.43366 0.0
H413 H 0.04613 0.75987 0.28672 0.0
H414 H 0.10911 0.78547 0.24744 0.0
H415 H 0.07287 0.77581 0.21283 0.0
H416 H 0.2858 0.85074 0.25831 0.0
H417 H 0.33228 0.85897 0.41386 0.0
H418 H 0.26732 0.82105 0.43487 0.0
H419 H 0.30438 0.83707 0.47891 0.0
Eu420 Eu 0.23786 0.26461 0.37203 0.0
C421 C 0.29589 0.36375 0.46772 0.0
C422 C 0.28485 0.38131 0.39025 0.0
C423 C 0.29846 0.39892 0.50172 0.0
C424 C 0.28714 0.36331 0.40607 0.0
C425 C 0.30224 0.3819 0.51575 0.0
C426 C 0.28991 0.39871 0.43889 0.0
C427 C 0.31877 0.36709 0.58413 0.0
N428 N 0.30015 0.34759 0.47875 0.0
C429 C 0.31242 0.34965 0.53468 0.0
C430 C 0.31329 0.38307 0.57515 0.0
Eu431 Eu 0.28801 0.3175 0.39483 0.0
N432 N 0.283 0.34655 0.35984 0.0
C433 C 0.27858 0.34817 0.29559 0.0
C434 C 0.27875 0.382 0.32532 0.0
C435 C 0.27613 0.36565 0.27762 0.0
H436 H 0.31675 0.33732 0.54188 0.0
H437 H 0.27211 0.36641 0.22685 0.0
H438 H 0.28811 0.41255 0.42773 0.0
H439 H 0.32793 0.3682 0.62901 0.0
H440 H 0.27652 0.33601 0.25721 0.0
H441 H 0.25022 0.20494 0.4964 0.0
H442 H 0.27689 0.39555 0.31116 0.0
H443 H 0.20456 0.2521 0.23311 0.0
H444 H 0.24794 0.23842 0.4885 0.0
H445 H 0.18885 0.224 0.13663 0.0
H446 H 0.30304 0.41287 0.53813 0.0
H447 H 0.24233 0.17914 0.39736 0.0
H448 H 0.22847 0.16765 0.27849 0.0
H449 H 0.31843 0.39672 0.6132 0.0
H450 H 0.21145 0.17278 0.18004 0.0
N451 N 0.24018 0.23264 0.38512 0.0
C452 C 0.24466 0.22754 0.4446 0.0
C453 C 0.24146 0.19396 0.39342 0.0
C454 C 0.23471 0.19806 0.33371 0.0
C455 C 0.24584 0.20843 0.44947 0.0
C456 C 0.23381 0.2176 0.33127 0.0
H457 H 0.19589 0.19323 0.12768 0.0
N458 N 0.22124 0.23806 0.27766 0.0
C459 C 0.19891 0.22293 0.17503 0.0
C460 C 0.22402 0.22038 0.27589 0.0
C461 C 0.20797 0.23892 0.22977 0.0
C462 C 0.20299 0.20564 0.17007 0.0
C463 C 0.21521 0.20385 0.22151 0.0
O464 O 0.21307 0.2693 0.40659 0.0
O465 O 0.25312 0.30195 0.38492 0.0
O466 O 0.27693 0.3107 0.4979 0.0
O467 O 0.25023 0.27345 0.48279 0.0
O468 O 0.22782 0.28402 0.31175 0.0
O469 O 0.21092 0.23787 0.40967 0.0
O470 O 0.3223 0.3365 0.41579 0.0
O471 O 0.27289 0.28033 0.38642 0.0
O472 O 0.24859 0.26892 0.26891 0.0
O473 O 0.27726 0.30522 0.28364 0.0
O474 O 0.29987 0.29888 0.45242 0.0
O475 O 0.30786 0.3219 0.31809 0.0
C476 C 0.24129 0.30365 0.34058 0.0
C477 C 0.17892 0.23751 0.39342 0.0
C478 C 0.14388 0.23139 0.40144 0.0
C479 C 0.16531 0.24186 0.42628 0.0
C480 C 0.13633 0.21665 0.34356 0.0
C481 C 0.17071 0.22209 0.33697 0.0
C482 C 0.14963 0.21194 0.31195 0.0
C483 C 0.26341 0.29216 0.52184 0.0
C484 C 0.20153 0.24894 0.41828 0.0
C485 C 0.21782 0.18544 0.22175 0.0
C486 C 0.22754 0.18253 0.2778 0.0
C487 C 0.28575 0.27902 0.4276 0.0
C488 C 0.34056 0.35557 0.33082 0.0
C489 C 0.35996 0.35913 0.31483 0.0
C490 C 0.37379 0.37874 0.28871 0.0
C491 C 0.36799 0.39463 0.27941 0.0
C492 C 0.33552 0.37202 0.32231 0.0
C493 C 0.34908 0.39132 0.29649 0.0
C494 C 0.26325 0.28669 0.24494 0.0
C495 C 0.32546 0.33476 0.35563 0.0
H496 H 0.17137 0.25342 0.47058 0.0
H497 H 0.11995 0.20832 0.32359 0.0
H498 H 0.18052 0.21769 0.31242 0.0
H499 H 0.14353 0.20021 0.26812 0.0
H500 H 0.36414 0.34664 0.32178 0.0
H501 H 0.37833 0.40987 0.25994 0.0
H502 H 0.32112 0.37002 0.33571 0.0
H503 H 0.34492 0.40382 0.28988 0.0
Eu504 Eu 0.39887 0.12892 0.56124 0.0
C505 C 0.33723 0.13141 0.72532 0.0
C506 C 0.35127 0.15362 0.83104 0.0
C507 C 0.32154 0.15184 0.768 0.0
C508 C 0.35162 0.1393 0.78093 0.0
C509 C 0.32162 0.13714 0.71919 0.0
C510 C 0.3364 0.16015 0.82371 0.0
C511 C 0.3064 0.11234 0.61919 0.0
N512 N 0.33796 0.11747 0.67852 0.0
C513 C 0.32221 0.10727 0.62702 0.0
C514 C 0.30628 0.12761 0.66485 0.0
Eu515 Eu 0.36757 0.11258 0.69386 0.0
N516 N 0.36551 0.13237 0.78721 0.0
C517 C 0.37874 0.13813 0.8441 0.0
C518 C 0.36583 0.16087 0.88723 0.0
C519 C 0.37966 0.1531 0.89364 0.0
H520 H 0.32187 0.0959 0.5894 0.0
H521 H 0.39104 0.15867 0.93672 0.0
H522 H 0.33601 0.17127 0.86141 0.0
H523 H 0.29444 0.10465 0.57723 0.0
H524 H 0.38952 0.13221 0.8498 0.0
H525 H 0.38892 0.04503 0.52073 0.0
H526 H 0.36632 0.17217 0.92627 0.0
H527 H 0.44483 0.17631 0.63204 0.0
H528 H 0.37813 0.07099 0.55053 0.0
H529 H 0.4818 0.18965 0.65294 0.0
H530 H 0.30984 0.15661 0.76359 0.0
H531 H 0.42606 0.05832 0.51347 0.0
H532 H 0.46296 0.08946 0.53419 0.0
H533 H 0.29408 0.13161 0.65835 0.0
H534 H 0.48824 0.12849 0.57479 0.0
N535 N 0.40793 0.10047 0.54812 0.0
C536 C 0.39401 0.07794 0.54161 0.0
C537 C 0.4212 0.07023 0.52328 0.0
C538 C 0.43583 0.09288 0.53783 0.0
C539 C 0.40026 0.0627 0.52705 0.0
C540 C 0.42871 0.10781 0.5506 0.0
H541 H 0.49532 0.16539 0.62151 0.0
N542 N 0.43568 0.14325 0.59179 0.0
C543 C 0.47109 0.17272 0.63099 0.0
C544 C 0.44298 0.12977 0.57395 0.0
C545 C 0.44964 0.16465 0.61996 0.0
C546 C 0.47866 0.15908 0.6127 0.0
C547 C 0.46465 0.13734 0.58418 0.0
O548 O 0.41956 0.16009 0.52528 0.0
O549 O 0.3758 0.13376 0.61207 0.0
O550 O 0.34856 0.08915 0.60142 0.0
O551 O 0.36953 0.096 0.51766 0.0
O552 O 0.37018 0.12783 0.51153 0.0
O553 O 0.39862 0.13139 0.45595 0.0
O554 O 0.3551 0.07682 0.67841 0.0
O555 O 0.39366 0.11201 0.64965 0.0
O556 O 0.40961 0.15924 0.63624 0.0
O557 O 0.3939 0.14769 0.7299 0.0
O558 O 0.39821 0.11939 0.74974 0.0
O559 O 0.35481 0.09163 0.77178 0.0
C560 C 0.36397 0.13276 0.56269 0.0
C561 C 0.40159 0.16597 0.43876 0.0
C562 C 0.38752 0.17555 0.34484 0.0
C563 C 0.3969 0.16432 0.37159 0.0
C564 C 0.38307 0.18883 0.38549 0.0
C565 C 0.39686 0.17917 0.4797 0.0
C566 C 0.38768 0.19053 0.45305 0.0
C567 C 0.35179 0.08384 0.54272 0.0
C568 C 0.41041 0.15306 0.46578 0.0
C569 C 0.47171 0.12286 0.56764 0.0
C570 C 0.45733 0.10069 0.5443 0.0
C571 C 0.40655 0.11696 0.70041 0.0
C572 C 0.36426 0.06396 0.76887 0.0
C573 C 0.38031 0.076 0.82045 0.0
C574 C 0.39335 0.0683 0.84352 0.0
C575 C 0.38986 0.0478 0.81635 0.0
C576 C 0.36097 0.04352 0.74098 0.0
C577 C 0.37366 0.03546 0.76495 0.0
C578 C 0.40783 0.16296 0.69817 0.0
C579 C 0.353 0.07413 0.73915 0.0
H580 H 0.40043 0.15413 0.33984 0.0
H581 H 0.37588 0.19756 0.36513 0.0
H582 H 0.4 0.18054 0.53226 0.0
H583 H 0.38401 0.20052 0.48487 0.0
H584 H 0.38293 0.09172 0.8428 0.0
H585 H 0.39958 0.04147 0.83463 0.0
H586 H 0.34889 0.03405 0.70005 0.0
H587 H 0.37103 0.0197 0.74324 0.0
Eu588 Eu 0.95169 0.18839 0.77404 0.0
C589 C 0.90326 0.23716 0.70273 0.0
C590 C 0.86607 0.21076 0.69576 0.0
C591 C 0.87953 0.25011 0.72513 0.0
C592 C 0.88665 0.21542 0.69217 0.0
C593 C 0.89984 0.25478 0.71827 0.0
C594 C 0.86267 0.22815 0.71371 0.0
C595 C 0.93648 0.28051 0.71284 0.0
N596 N 0.92262 0.24119 0.69429 0.0
C597 C 0.93902 0.2625 0.69644 0.0
C598 C 0.91684 0.27663 0.7245 0.0
Eu599 Eu 0.92566 0.20984 0.66719 0.0
N600 N 0.89043 0.19895 0.67509 0.0
C601 C 0.8742 0.17777 0.65569 0.0
C602 C 0.84946 0.18884 0.67938 0.0
C603 C 0.85354 0.17235 0.65836 0.0
H604 H 0.95422 0.26553 0.68737 0.0
H605 H 0.84079 0.15542 0.64434 0.0
H606 H 0.847 0.22484 0.71742 0.0
H607 H 0.94963 0.29734 0.7163 0.0
H608 H 0.87705 0.16486 0.63897 0.0
H609 H 0.03586 0.24176 0.77084 0.0
H610 H 0.83344 0.18458 0.68154 0.0
H611 H 0.92303 0.13284 0.76751 0.0
H612 H 1.00023 0.23312 0.78533 0.0
H613 H 0.92699 0.10038 0.74476 0.0
H614 H 0.87661 0.26341 0.73749 0.0
H615 H 0.04218 0.21147 0.7381 0.0
H616 H 0.02802 0.17056 0.71306 0.0
H617 H 0.91487 0.29061 0.73663 0.0
H618 H 0.99843 0.13213 0.70579 0.0
N619 N 0.98628 0.19831 0.75901 0.0
C620 C 1.00273 0.21973 0.77088 0.0
C621 C 0.02648 0.20757 0.74433 0.0
C622 C 0.00976 0.18555 0.7355 0.0
C623 C 0.02298 0.2247 0.76289 0.0
C624 C 0.98959 0.18137 0.74387 0.0
H625 H 0.9608 0.10582 0.71819 0.0
N626 N 0.95403 0.15635 0.7515 0.0
C627 C 0.94002 0.11697 0.74291 0.0
C628 C 0.97296 0.15975 0.7399 0.0
C629 C 0.93783 0.1354 0.75579 0.0
C630 C 0.95911 0.12012 0.72779 0.0
C631 C 0.97599 0.14171 0.72718 0.0
O632 O 0.94259 0.17478 0.86538 0.0
O633 O 0.92502 0.19423 0.75744 0.0
O634 O 0.93705 0.23044 0.76661 0.0
O635 O 0.96485 0.22571 0.79992 0.0
O636 O 0.91815 0.16488 0.79345 0.0
O637 O 0.97336 0.20376 0.86444 0.0
O638 O 0.92882 0.22728 0.58121 0.0
O639 O 0.95228 0.20435 0.68418 0.0
O640 O 0.93932 0.16624 0.67802 0.0
O641 O 0.91238 0.17222 0.64171 0.0
O642 O 0.95906 0.23301 0.64521 0.0
O643 O 0.91051 0.19113 0.5719 0.0
C644 C 0.91056 0.17691 0.77588 0.0
C645 C 0.97012 0.177 0.93486 0.0
C646 C 0.96604 0.15233 1.01696 0.0
C647 C 0.95891 0.16412 0.98188 0.0
C648 C 0.9847 0.15346 1.00523 0.0
C649 C 0.98882 0.17806 0.92281 0.0
C650 C 0.99603 0.16629 0.95794 0.0
C651 C 0.955 0.23694 0.80322 0.0
C652 C 0.96115 0.18804 0.89755 0.0
C653 C 0.99584 0.14578 0.71611 0.0
C654 C 0.01269 0.16766 0.72026 0.0
C655 C 0.96668 0.2211 0.66356 0.0
C656 C 0.898 0.20834 0.50361 0.0
C657 C 0.88741 0.19159 0.45129 0.0
C658 C 0.87028 0.18964 0.41197 0.0
C659 C 0.86365 0.20471 0.425 0.0
C660 C 0.8911 0.22321 0.5175 0.0
C661 C 0.87396 0.22133 0.47823 0.0
C662 C 0.92164 0.16026 0.64065 0.0
C663 C 0.9155 0.20894 0.54362 0.0
H664 H 0.94449 0.16328 0.99151 0.0
H665 H 0.99051 0.14463 1.03271 0.0
H666 H 0.99779 0.18783 0.88642 0.0
H667 H 0.01045 0.16718 0.94861 0.0
H668 H 0.89278 0.18015 0.44031 0.0
H669 H 0.8507 0.20368 0.39412 0.0
H670 H 0.89887 0.23618 0.5583 0.0
H671 H 0.86876 0.2329 0.48878 0.0
Eu672 Eu 0.85423 0.62406 0.76469 0.0
C673 C 0.92424 0.71984 0.79958 0.0
C674 C 0.95674 0.72008 0.82074 0.0
C675 C 0.9562 0.74906 0.76456 0.0
C676 C 0.93502 0.70997 0.82446 0.0
C677 C 0.93504 0.73998 0.77178 0.0
C678 C 0.96704 0.7392 0.78927 0.0
C679 C 0.90456 0.74335 0.77136 0.0
N680 N 0.9038 0.71105 0.80766 0.0
C681 C 0.8945 0.72345 0.79882 0.0
C682 C 0.9247 0.7513 0.75585 0.0
Eu683 Eu 0.88826 0.67808 0.85973 0.0
N684 N 0.92479 0.69151 0.85575 0.0
C685 C 0.93598 0.68312 0.8855 0.0
C686 C 0.96781 0.71122 0.85078 0.0
C687 C 0.95737 0.69265 0.88297 0.0
H688 H 0.87883 0.71752 0.81036 0.0
H689 H 0.96588 0.68581 0.90703 0.0
H690 H 0.98361 0.74696 0.78567 0.0
H691 H 0.8967 0.75247 0.76194 0.0
H692 H 0.92926 0.66942 0.91315 0.0
H693 H 0.78582 0.6326 0.69056 0.0
H694 H 0.98455 0.71887 0.85073 0.0
H695 H 0.85449 0.59699 0.90126 0.0
H696 H 0.82275 0.64801 0.7311 0.0
H697 H 0.83014 0.56139 0.93651 0.0
H698 H 0.96458 0.7643 0.74259 0.0
H699 H 0.76019 0.59282 0.69495 0.0
H700 H 0.75288 0.55637 0.73279 0.0
H701 H 0.93251 0.76679 0.73472 0.0
H702 H 0.76522 0.53672 0.80093 0.0
N703 N 0.81908 0.61701 0.75264 0.0
C704 C 0.81225 0.63049 0.73051 0.0
C705 C 0.7766 0.5995 0.71195 0.0
C706 C 0.78336 0.58645 0.74119 0.0
C707 C 0.79102 0.62191 0.70915 0.0
C708 C 0.80483 0.59616 0.76355 0.0
H709 H 0.79353 0.53946 0.88287 0.0
N710 N 0.83199 0.59675 0.82991 0.0
C711 C 0.82472 0.56792 0.8986 0.0
C712 C 0.81158 0.58556 0.80367 0.0
C713 C 0.83856 0.58846 0.87854 0.0
C714 C 0.80412 0.55552 0.86801 0.0
C715 C 0.79723 0.56442 0.82031 0.0
O716 O 0.8546 0.59329 0.7568 0.0
O717 O 0.88722 0.65275 0.78797 0.0
O718 O 0.8732 0.68062 0.76149 0.0
O719 O 0.85155 0.64664 0.69617 0.0
O720 O 0.877 0.63936 0.69075 0.0
O721 O 0.84238 0.60186 0.67257 0.0
O722 O 0.87431 0.69573 0.9039 0.0
O723 O 0.85499 0.64893 0.83878 0.0
O724 O 0.87794 0.62294 0.83886 0.0
O725 O 0.89491 0.65483 0.91464 0.0
O726 O 0.8686 0.65868 0.93612 0.0
O727 O 0.906 0.7042 0.94016 0.0
C728 C 0.89264 0.65433 0.73136 0.0
C729 C 0.85651 0.57845 0.65572 0.0
C730 C 0.88299 0.58351 0.58668 0.0
C731 C 0.87311 0.5922 0.6227 0.0
C732 C 0.87609 0.56079 0.58391 0.0
C733 C 0.84989 0.55582 0.65346 0.0
C734 C 0.85967 0.54704 0.61766 0.0
C735 C 0.86075 0.66857 0.70704 0.0
C736 C 0.84667 0.58755 0.69579 0.0
C737 C 0.77637 0.55326 0.79034 0.0
C738 C 0.76934 0.56443 0.75148 0.0
C739 C 0.85174 0.64526 0.8971 0.0
C740 C 0.8877 0.71298 1.01278 0.0
C741 C 0.89302 0.70422 0.06474 0.0
C742 C 0.89198 0.71067 0.12903 0.0
C743 C 0.88524 0.72577 0.14098 0.0
C744 C 0.88078 0.72787 1.02508 0.0
C745 C 0.87949 0.73417 0.089 0.0
C746 C 0.89037 0.63444 0.89377 0.0
C747 C 0.89092 0.70825 0.94631 0.0
H748 H 0.87799 0.60956 0.62334 0.0
H749 H 0.8833 0.55372 0.55544 0.0
H750 H 0.83722 0.54497 0.67953 0.0
H751 H 0.85442 0.52954 0.61577 0.0
H752 H 0.89861 0.6929 0.05534 0.0
H753 H 0.88425 0.73089 0.19028 0.0
H754 H 0.87675 0.73493 0.98537 0.0
H755 H 0.87426 0.74577 0.09831 0.0
H756 H 0.09854 0.47776 0.99001 0.0
H757 H 0.09789 0.47775 0.87208 0.0
H758 H 0.04335 0.48391 0.86157 0.0
H759 H 0.04502 0.48572 0.98015 0.0
H760 H 0.07594 0.45391 0.76938 0.0
H761 H 0.07055 0.52865 0.74662 0.0
H762 H 0.07518 0.5211 0.82502 0.0
H763 H 0.04895 0.50829 0.78258 0.0
C764 C 0.08673 0.47982 0.96354 0.0
C765 C 0.07234 0.48257 0.99738 0.0
C766 C 0.08617 0.4795 0.89459 0.0
C767 C 0.07098 0.48157 0.85515 0.0
C768 C 0.05602 0.48335 0.88872 0.0
H769 H 0.03955 0.47645 0.42486 0.0
H770 H 0.03983 0.4765 0.54307 0.0
C771 C 0.05683 0.48409 0.95779 0.0
C772 C 0.07052 0.48117 0.77998 0.0
H773 H 0.06429 0.506 0.6477 0.0
C774 C 0.07356 0.46555 0.74352 0.0
C775 C 0.06739 0.49608 0.7433 0.0
C776 C 0.06556 0.51461 0.77643 0.0
C777 C 0.07319 0.46415 0.6742 0.0
C778 C 0.06989 0.47892 0.63768 0.0
C779 C 0.06675 0.49446 0.67388 0.0
C780 C 0.06967 0.47859 0.56283 0.0
C781 C 0.07578 0.44623 0.64059 0.0
C782 C 0.08626 0.47987 0.53124 0.0
C783 C 0.08608 0.47985 0.46246 0.0
C784 C 0.06937 0.47872 0.42126 0.0
C785 C 0.05277 0.47737 0.45301 0.0
C786 C 0.05297 0.47747 0.52184 0.0
H787 H 0.0717 0.43236 0.67058 0.0
H788 H 0.06587 0.43938 0.59248 0.0
H789 H 0.09237 0.45337 0.63275 0.0
H790 H 0.09972 0.48127 0.55994 0.0
H791 H 0.09926 0.4808 0.44165 0.0
H792 H 0.6167 0.46997 0.89821 0.0
H793 H 0.61783 0.47048 0.78066 0.0
H794 H 0.62448 0.53516 0.79604 0.0
H795 H 0.62428 0.53512 0.91397 0.0
H796 H 0.59435 0.47048 0.68039 0.0
H797 H 0.66946 0.54921 0.68712 0.0
H798 H 0.66069 0.53635 0.75984 0.0
H799 H 0.65092 0.55299 0.72696 0.0
C800 C 0.61857 0.4845 0.87718 0.0
C801 C 0.62024 0.50247 0.91774 0.0
C802 C 0.61914 0.48472 0.80885 0.0
C803 C 0.62159 0.50299 0.77715 0.0
C804 C 0.62312 0.52092 0.81751 0.0
H805 H 0.62717 0.53399 0.36484 0.0
H806 H 0.62666 0.53389 0.4827 0.0
C807 C 0.62264 0.52074 0.88603 0.0
C808 C 0.62204 0.5029 0.70268 0.0
H809 H 0.64916 0.53346 0.58317 0.0
C810 C 0.60649 0.48431 0.65965 0.0
C811 C 0.63767 0.52071 0.67318 0.0
C812 C 0.65574 0.54084 0.7141 0.0
C813 C 0.6058 0.48324 0.59034 0.0
C814 C 0.62144 0.50105 0.56078 0.0
C815 C 0.637 0.51964 0.60386 0.0
C816 C 0.62185 0.50093 0.48623 0.0
C817 C 0.58765 0.46311 0.54961 0.0
C818 C 0.61973 0.48272 0.44577 0.0
C819 C 0.61971 0.48264 0.37708 0.0
C820 C 0.62222 0.50087 0.34502 0.0
C821 C 0.62496 0.51934 0.38586 0.0
C822 C 0.62477 0.51936 0.45445 0.0
H823 H 0.57393 0.4549 0.57664 0.0
H824 H 0.58274 0.46755 0.50371 0.0
H825 H 0.59235 0.45082 0.53718 0.0
H826 H 0.61819 0.4684 0.46719 0.0
H827 H 0.61755 0.46805 0.34924 0.0
H828 H 0.55976 0.03721 0.71103 0.0
H829 H 0.55991 0.03787 0.59249 0.0
H830 H 0.62049 0.09777 0.62537 0.0
H831 H 0.6206 0.09691 0.7431 0.0
H832 H 0.56021 0.06408 0.50573 0.0
H833 H 0.63439 0.0656 0.49514 0.0
H834 H 0.62198 0.06082 0.56822 0.0
H835 H 0.63787 0.08869 0.54801 0.0
C836 C 0.57322 0.05052 0.69333 0.0
C837 C 0.59024 0.06687 0.73847 0.0
C838 C 0.5733 0.05092 0.62464 0.0
C839 C 0.59046 0.06757 0.59752 0.0
C840 C 0.60723 0.08416 0.64281 0.0
H841 H 0.62198 0.09802 0.19433 0.0
H842 H 0.62114 0.09806 0.31221 0.0
C843 C 0.60717 0.08377 0.71128 0.0
C844 C 0.59063 0.06783 0.52293 0.0
H845 H 0.62026 0.07257 0.39874 0.0
C846 C 0.57337 0.06579 0.48276 0.0
C847 C 0.60765 0.07018 0.49055 0.0
C848 C 0.62642 0.07122 0.52753 0.0
C849 C 0.57283 0.06654 0.41384 0.0
C850 C 0.58983 0.06883 0.38138 0.0
C851 C 0.60709 0.07087 0.42162 0.0
C852 C 0.59007 0.06912 0.30674 0.0
C853 C 0.55413 0.06568 0.37709 0.0
C854 C 0.57315 0.05291 0.26104 0.0
C855 C 0.57351 0.0532 0.19256 0.0
C856 C 0.59092 0.06948 0.16559 0.0
C857 C 0.60797 0.0855 0.21129 0.0
C858 C 0.60758 0.08532 0.2799 0.0
H859 H 0.54636 0.07154 0.4096 0.0
H860 H 0.55858 0.07599 0.3362 0.0
H861 H 0.5425 0.04822 0.35704 0.0
H862 H 0.55954 0.03963 0.27811 0.0
H863 H 0.55989 0.04051 0.16067 0.0
H864 H 0.76656 0.9135 0.53971 0.0
H865 H 0.76775 0.91448 0.65894 0.0
H866 H 0.81281 0.89351 0.665 0.0
H867 H 0.81208 0.89312 0.5468 0.0
H868 H 0.75787 0.88588 0.74447 0.0
H869 H 0.84306 0.94192 0.80918 0.0
H870 H 0.83035 0.93713 0.72712 0.0
H871 H 0.83699 0.91761 0.75684 0.0
C872 C 0.77693 0.9093 0.56621 0.0
C873 C 0.78936 0.90344 0.53174 0.0
C874 C 0.77757 0.90979 0.63535 0.0
C875 C 0.79076 0.90459 0.67378 0.0
C876 C 0.80294 0.89843 0.63901 0.0
H877 H 0.81401 0.89324 0.09766 0.0
H878 H 0.8137 0.89361 0.97934 0.0
C879 C 0.80235 0.898 0.57013 0.0
C880 C 0.79135 0.90501 0.74889 0.0
H881 H 0.82437 0.92332 0.89486 0.0
C882 C 0.77252 0.89428 0.7769 0.0
C883 C 0.81024 0.91575 0.79369 0.0
C884 C 0.83128 0.92894 0.77033 0.0
C885 C 0.77201 0.89352 0.84561 0.0
C886 C 0.79089 0.90423 0.89036 0.0
C887 C 0.80973 0.91496 0.8624 0.0
C888 C 0.79143 0.9045 0.96538 0.0
C889 C 0.75099 0.8804 0.86916 0.0
C890 C 0.77958 0.91101 1.00058 0.0
C891 C 0.77987 0.91092 0.06933 0.0
C892 C 0.79212 0.90443 0.10711 0.0
C893 C 0.80441 0.8985 0.07213 0.0
C894 C 0.80414 0.89861 1.00326 0.0
H895 H 0.73907 0.86764 0.83015 0.0
H896 H 0.7519 0.87197 0.9118 0.0
H897 H 0.74551 0.89185 0.88379 0.0
H898 H 0.77013 0.91653 0.975 0.0
H899 H 0.77062 0.91634 0.09297 0.0
H900 H 0.19111 0.83749 0.56748 0.0
H901 H 0.19171 0.83623 0.68544 0.0
H902 H 0.18673 0.7725 0.66049 0.0
H903 H 0.18505 0.77344 0.54173 0.0
H904 H 0.21008 0.83806 0.79186 0.0
H905 H 0.14715 0.75078 0.78182 0.0
H906 H 0.1687 0.75313 0.74372 0.0
H907 H 0.15349 0.76429 0.70908 0.0
C908 C 0.19067 0.82327 0.58648 0.0
C909 C 0.18919 0.8062 0.54113 0.0
C910 C 0.1908 0.82242 0.65612 0.0
C911 C 0.1888 0.80403 0.6875 0.0
C912 C 0.1876 0.78696 0.64218 0.0
H913 H 0.18627 0.77009 0.11041 0.0
H914 H 0.18504 0.77116 0.99226 0.0
C915 C 0.18731 0.78777 0.57208 0.0
C916 C 0.18801 0.80317 0.76514 0.0
H917 H 0.16536 0.76881 0.88598 0.0
C918 C 0.20004 0.82267 0.81115 0.0
C919 C 0.1752 0.78367 0.79607 0.0
C920 C 0.16024 0.76182 0.7553 0.0
C921 C 0.20016 0.8232 0.88167 0.0
C922 C 0.18745 0.80368 0.91259 0.0
C923 C 0.17539 0.78419 0.86662 0.0
C924 C 0.18685 0.80283 0.99026 0.0
C925 C 0.21487 0.84511 0.92251 0.0
C926 C 0.18757 0.81962 1.03555 0.0
C927 C 0.18815 0.81889 0.10574 0.0
C928 C 0.18723 0.80088 0.13678 0.0
C929 C 0.18611 0.78402 0.09139 0.0
C930 C 0.18561 0.78476 1.02167 0.0
H931 H 0.22785 0.85637 0.896 0.0
H932 H 0.20614 0.85348 0.93431 0.0
H933 H 0.22176 0.84276 0.96866 0.0
H934 H 0.18784 0.83379 1.0171 0.0
H935 H 0.18996 0.83301 0.13606 0.0
H936 H 0.2368 0.25834 0.59164 0.0
H937 H 0.23677 0.25753 0.70983 0.0
H938 H 0.29077 0.32368 0.74242 0.0
H939 H 0.29031 0.32478 0.6249 0.0
H940 H 0.26062 0.25802 0.80915 0.0
H941 H 0.25959 0.33509 0.86656 0.0
H942 H 0.25593 0.32308 0.78373 0.0
H943 H 0.28188 0.34015 0.8278 0.0
C944 C 0.24864 0.2729 0.6236 0.0
C945 C 0.26349 0.29177 0.59638 0.0
C946 C 0.24865 0.27239 0.69229 0.0
C947 C 0.26345 0.29072 0.73781 0.0
C948 C 0.27853 0.30939 0.71057 0.0
H949 H 0.28973 0.32024 0.17387 0.0
H950 H 0.28973 0.3205 0.05571 0.0
C951 C 0.27842 0.30996 0.64196 0.0
C952 C 0.26338 0.29005 0.81255 0.0
H953 H 0.26627 0.31943 0.95702 0.0
C954 C 0.26173 0.2715 0.84097 0.0
C955 C 0.26488 0.30739 0.85664 0.0
C956 C 0.26546 0.32744 0.83216 0.0
C957 C 0.26207 0.27007 0.90966 0.0
C958 C 0.26357 0.28742 0.95379 0.0
C959 C 0.26518 0.30594 0.92528 0.0
C960 C 0.26363 0.28689 1.02869 0.0
C961 C 0.26163 0.25007 0.934 0.0
C962 C 0.24901 0.2681 0.05665 0.0
C963 C 0.2492 0.26783 0.12541 0.0
C964 C 0.26363 0.2865 0.17039 0.0
C965 C 0.27817 0.30537 0.14247 0.0
C966 C 0.27814 0.30556 0.0737 0.0
H967 H 0.26764 0.24257 0.89966 0.0
H968 H 0.2711 0.25442 0.98253 0.0
H969 H 0.24522 0.23723 0.93799 0.0
H970 H 0.23704 0.25347 1.02532 0.0
H971 H 0.23784 0.25282 0.1432 0.0
H972 H 0.40749 0.20599 0.2624 0.0
H973 H 0.41201 0.19561 0.15262 0.0
H974 H 0.36413 0.12757 0.16411 0.0
H975 H 0.35861 0.13833 0.2698 0.0
H976 H 0.42839 0.17152 0.15324 0.0
H977 H 0.35642 0.12317 0.97703 0.0
H978 H 0.35914 0.1436 1.04072 0.0
H979 H 0.35103 0.11552 0.0563 0.0
C980 C 0.39685 0.18924 0.23876 0.0
C981 C 0.38283 0.17282 0.27385 0.0
C982 C 0.39959 0.18324 0.17648 0.0
C983 C 0.38853 0.16076 0.14988 0.0
C984 C 0.37246 0.1451 0.18179 0.0
H985 H 0.39321 0.05865 0.96772 0.0
H986 H 0.40139 0.08751 0.056 0.0
C987 C 0.36935 0.15122 0.24286 0.0
C988 C 0.39707 0.15262 0.10062 0.0
H989 H 0.38148 0.11079 0.97804 0.0
C990 C 0.41825 0.15872 0.11358 0.0
C991 C 0.3839 0.13579 1.04918 0.0
C992 C 0.36146 0.12939 1.02971 0.0
C993 C 0.42606 0.14717 0.07992 0.0
C994 C 0.41233 0.12919 1.03287 0.0
C995 C 0.39172 0.12422 1.01618 0.0
C996 C 0.41843 0.11468 0.99984 0.0
C997 C 0.44845 0.15328 0.09704 0.0
C998 C 0.4276 0.12073 0.94271 0.0
C999 C 0.42322 0.10421 0.89281 0.0
C1000 C 0.40922 0.08181 0.89955 0.0
C1001 C 0.40395 0.07584 0.96144 0.0
C1002 C 0.40848 0.09236 1.01175 0.0
H1003 H 0.45722 0.16785 0.13505 0.0
H1004 H 0.44888 0.13891 0.11483 0.0
H1005 H 0.45647 0.15714 0.05275 0.0
H1006 H 0.43529 0.13788 0.93273 0.0
H1007 H 0.42747 0.10904 0.84542 0.0
H1008 H 0.84624 0.14483 0.40822 0.0
H1009 H 0.84869 0.1191 0.3294 0.0
H1010 H 0.87989 0.17205 0.2108 0.0
H1011 H 0.87669 0.1974 0.28802 0.0
H1012 H 0.86025 0.1294 0.14019 0.0
H1013 H 0.91072 0.13819 0.36743 0.0
H1014 H 0.88369 0.12882 0.37255 0.0
H1015 H 0.90089 0.15659 0.35582 0.0
C1016 C 0.85225 0.15046 0.36295 0.0
C1017 C 0.86149 0.17303 0.35406 0.0
C1018 C 0.85388 0.13586 0.3184 0.0
C1019 C 0.86521 0.14397 0.26588 0.0
C1020 C 0.87128 0.16553 0.2515 0.0
H1021 H 0.97098 0.169 0.14119 0.0
H1022 H 0.94267 0.15709 0.2076 0.0
C1023 C 0.86934 0.18002 0.29542 0.0
C1024 C 0.87535 0.1328 0.23639 0.0
H1025 H 0.9171 0.12606 0.27036 0.0
C1026 C 0.87232 0.12801 0.16843 0.0
C1027 C 0.89138 0.13155 0.27385 0.0
C1028 C 0.89707 0.13912 0.34634 0.0
C1029 C 0.88612 0.12403 0.13624 0.0
C1030 C 0.90272 0.12367 0.17367 0.0
C1031 C 0.90426 0.12608 0.24194 0.0
C1032 C 0.92128 0.12656 0.14436 0.0
C1033 C 0.88404 0.1227 0.06271 0.0
C1034 C 0.91943 0.11248 0.08984 0.0
C1035 C 0.93565 0.11958 1.05118 0.0
C1036 C 0.95402 0.14037 0.06828 0.0
C1037 C 0.95701 0.15277 0.12778 0.0
C1038 C 0.94071 0.14598 0.16545 0.0
H1039 H 0.87218 0.12658 1.04243 0.0
H1040 H 0.89922 0.1345 1.04653 0.0
H1041 H 0.87916 0.10564 1.04152 0.0
H1042 H 0.90487 0.09705 0.07394 0.0
H1043 H 0.93304 0.10991 1.00493 0.0
H1044 H 0.88301 0.57575 0.45711 0.0
H1045 H 0.9001 0.60434 0.38595 0.0
H1046 H 0.93488 0.65301 0.55378 0.0
H1047 H 0.91748 0.62441 0.6255 0.0
H1048 H 0.90721 0.66034 0.48691 0.0
H1049 H 0.95278 0.64684 0.31334 0.0
H1050 H 0.92896 0.6213 0.31794 0.0
H1051 H 0.94828 0.63472 0.38916 0.0
C1052 C 0.89514 0.59228 0.47877 0.0
C1053 C 0.89871 0.59806 0.5465 0.0
C1054 C 0.90501 0.60864 0.43802 0.0
C1055 C 0.9187 0.63085 0.46471 0.0
C1056 C 0.92436 0.63599 0.53245 0.0
H1057 H 0.91857 0.73371 0.24088 0.0
H1058 H 0.93024 0.71859 0.32764 0.0
C1059 C 0.91439 0.61968 0.57323 0.0
C1060 C 0.92209 0.64861 0.42406 0.0
H1061 H 0.93264 0.66341 0.27218 0.0
C1062 C 0.91339 0.66157 0.44078 0.0
C1063 C 0.93011 0.65014 0.3641 0.0
C1064 C 0.94075 0.63763 0.34549 0.0
C1065 C 0.91097 0.6747 0.39691 0.0
C1066 C 0.91747 0.6748 0.33481 0.0
C1067 C 0.92749 0.66306 0.31973 0.0
C1068 C 0.91158 0.68453 0.28225 0.0
C1069 C 0.90017 0.68708 0.41565 0.0
C1070 C 0.89749 0.67036 0.22815 0.0
C1071 C 0.8909 0.67888 0.17893 0.0
C1072 C 0.8983 0.70174 0.18306 0.0
C1073 C 0.91243 0.71597 0.23728 0.0
C1074 C 0.91915 0.70741 0.28649 0.0
H1075 H 0.89336 0.68253 0.46192 0.0
H1076 H 0.91166 0.70521 0.42224 0.0
H1077 H 0.8875 0.6837 0.37654 0.0
H1078 H 0.89139 0.65262 0.22442 0.0
H1079 H 0.87992 0.66758 0.13773 0.0
H1080 H 0.2293 0.3163 0.23345 0.0
H1081 H 0.21673 0.3421 0.22586 0.0
H1082 H 0.22422 0.35336 0.43612 0.0
H1083 H 0.23903 0.32925 0.44296 0.0
H1084 H 0.18563 0.34157 0.24887 0.0
H1085 H 0.24696 0.41483 0.41358 0.0
H1086 H 0.24956 0.39134 0.39132 0.0
H1087 H 0.23473 0.39088 0.45619 0.0
C1088 C 0.22884 0.32484 0.27805 0.0
C1089 C 0.23588 0.32135 0.33867 0.0
C1090 C 0.22137 0.33948 0.27382 0.0
C1091 C 0.21963 0.35034 0.33027 0.0
C1092 C 0.22611 0.34626 0.39133 0.0
H1093 H 0.1409 0.41086 0.25145 0.0
H1094 H 0.15182 0.38495 0.28244 0.0
C1095 C 0.2345 0.33228 0.39545 0.0
C1096 C 0.21023 0.36496 0.32384 0.0
H1097 H 0.21618 0.4151 0.37864 0.0
C1098 C 0.1926 0.35779 0.2769 0.0
C1099 C 0.2189 0.38623 0.36009 0.0
C1100 C 0.23869 0.39638 0.40764 0.0
C1101 C 0.18411 0.3713 0.2634 0.0
C1102 C 0.19247 0.39232 0.30083 0.0
C1103 C 0.20955 0.39911 0.34954 0.0
C1104 C 0.18512 0.40835 0.28725 0.0
C1105 C 0.16699 0.36316 0.2066 0.0
C1106 C 0.1999 0.43083 0.28422 0.0
C1107 C 0.19369 0.44604 0.27013 0.0
C1108 C 0.17236 0.43936 0.25598 0.0
C1109 C 0.15747 0.41695 0.26119 0.0
C1110 C 0.16376 0.40182 0.27767 0.0
H1111 H 0.16704 0.35058 0.17154 0.0
H1112 H 0.15157 0.3551 0.2249 0.0
H1113 H 0.16862 0.37703 0.17975 0.0
H1114 H 0.21648 0.43676 0.29203 0.0
H1115 H 0.20592 0.46316 0.2703 0.0
H1116 H 0.63217 0.65365 0.25532 0.0
H1117 H 0.65514 0.69397 0.27764 0.0
H1118 H 0.69934 0.69079 0.16321 0.0
H1119 H 0.67638 0.65022 0.14093 0.0
H1120 H 0.71845 0.72077 0.27751 0.0
H1121 H 0.66022 0.73485 0.13956 0.0
H1122 H 0.65027 0.71778 0.20382 0.0
H1123 H 0.65802 0.70802 0.13544 0.0
C1124 C 0.6468 0.66151 0.23492 0.0
C1125 C 0.65229 0.64876 0.19539 0.0
C1126 C 0.65989 0.68458 0.24767 0.0
C1127 C 0.6787 0.69549 0.22073 0.0
C1128 C 0.6848 0.68274 0.18404 0.0
H1129 H 0.74891 0.83452 0.16083 0.0
H1130 H 0.72613 0.79394 0.151 0.0
C1131 C 0.67171 0.65956 0.1715 0.0
C1132 C 0.69157 0.72021 0.22911 0.0
H1133 H 0.68993 0.76662 0.19882 0.0
C1134 C 0.71225 0.73081 0.26026 0.0
C1135 C 0.68355 0.73331 0.20583 0.0
C1136 C 0.66187 0.72295 0.16873 0.0
C1137 C 0.72502 0.75414 0.26941 0.0
C1138 C 0.71677 0.76724 0.24776 0.0
C1139 C 0.69617 0.75661 0.21608 0.0
C1140 C 0.72952 0.79195 0.25473 0.0
C1141 C 0.7474 0.7645 0.30072 0.0
C1142 C 0.73855 0.8044 0.31636 0.0
C1143 C 0.75148 0.82755 0.3219 0.0
C1144 C 0.75517 0.83867 0.26604 0.0
C1145 C 0.74584 0.8263 0.20461 0.0
C1146 C 0.73294 0.80317 0.19904 0.0
H1147 H 0.75279 0.75239 0.29888 0.0
H1148 H 0.75808 0.779 0.27649 0.0
H1149 H 0.74862 0.77036 0.35273 0.0
H1150 H 0.73586 0.7962 0.36012 0.0
H1151 H 0.75909 0.83671 0.36961 0.0
H1152 H 0.45577 0.96695 0.95596 0.0
H1153 H 0.42513 0.95267 1.01496 0.0
H1154 H 0.44854 0.91873 0.1292 0.0
H1155 H 0.47882 0.93259 0.06999 0.0
H1156 H 0.40865 0.89137 0.08052 0.0
H1157 H 0.41752 0.96949 0.19625 0.0
H1158 H 0.41693 0.96793 0.10925 0.0
H1159 H 0.43823 0.96882 0.15923 0.0
C1160 C 0.45451 0.95673 0.99438 0.0
C1161 C 0.46966 0.95077 1.00789 0.0
C1162 C 0.437 0.94862 1.02826 0.0
C1163 C 0.4345 0.93469 0.07702 0.0
C1164 C 0.44999 0.92934 0.09172 0.0
H1165 H 0.35088 0.8928 0.3715 0.0
H1166 H 0.37954 0.91173 0.30696 0.0
C1167 C 0.46731 0.93725 0.05768 0.0
C1168 C 0.41531 0.92444 0.11033 0.0
H1169 H 0.38619 0.93604 0.20662 0.0
C1170 C 0.40375 0.90118 0.10803 0.0
C1171 C 0.40893 0.93718 0.1467 0.0
C1172 C 0.42113 0.96224 0.15368 0.0
C1173 C 0.38629 0.89032 0.14153 0.0
C1174 C 0.37967 0.90299 0.17705 0.0
C1175 C 0.3911 0.92628 0.17897 0.0
C1176 C 0.36161 0.89241 0.21512 0.0
C1177 C 0.37562 0.8654 0.14039 0.0
C1178 C 0.34172 0.87556 0.18505 0.0
C1179 C 0.32537 0.86427 0.22214 0.0
C1180 C 0.32836 0.86985 0.29024 0.0
C1181 C 0.34803 0.88755 0.31962 0.0
C1182 C 0.36444 0.89863 0.28256 0.0
H1183 H 0.38593 0.85913 0.12669 0.0
H1184 H 0.37082 0.86022 0.18863 0.0
H1185 H 0.36142 0.85733 0.10369 0.0
H1186 H 0.33892 0.8708 0.13287 0.0
H1187 H 0.31058 0.85073 0.19743 0.0
H1188 H 0.55755 0.07592 0.82277 0.0
H1189 H 0.53282 0.0855 0.77253 0.0
H1190 H 0.52493 0.10611 0.96286 0.0
H1191 H 0.54997 0.09673 1.01339 0.0
H1192 H 0.48682 0.07435 0.88173 0.0
H1193 H 0.53619 0.14568 0.74985 0.0
H1194 H 0.53916 0.12191 0.7378 0.0
H1195 H 0.54699 0.13769 0.81688 0.0
C1196 C 0.55112 0.08318 0.85394 0.0
C1197 C 0.55628 0.08617 0.92223 0.0
C1198 C 0.53687 0.08862 0.82502 0.0
C1199 C 0.52708 0.09682 0.8636 0.0
C1200 C 0.53236 0.10003 0.9318 0.0
H1201 H 0.44605 0.1484 0.75345 0.0
H1202 H 0.47535 0.14314 0.78706 0.0
C1203 C 0.54676 0.09476 0.9607 0.0
C1204 C 0.51001 0.1001 0.83341 0.0
H1205 H 0.49951 0.13043 0.72967 0.0
C1206 C 0.48963 0.08665 0.84857 0.0
C1207 C 0.51355 0.11609 0.78992 0.0
C1208 C 0.53516 0.13133 0.77277 0.0
C1209 C 0.47278 0.08866 0.82178 0.0
C1210 C 0.47619 0.10459 0.77787 0.0
C1211 C 0.49667 0.11813 0.76286 0.0
C1212 C 0.459 0.1082 0.75006 0.0
C1213 C 0.45156 0.07389 0.84227 0.0
C1214 C 0.44006 0.0906 0.71593 0.0
C1215 C 0.42329 0.09366 0.69654 0.0
C1216 C 0.42525 0.11458 0.70875 0.0
C1217 C 0.44433 0.1323 0.74123 0.0
C1218 C 0.46107 0.12924 0.76079 0.0
H1219 H 0.45275 0.06773 0.8896 0.0
H1220 H 0.443 0.08281 0.8468 0.0
H1221 H 0.44225 0.05924 0.80491 0.0
H1222 H 0.43797 0.07425 0.70594 0.0
H1223 H 0.4085 0.07945 0.67449 0.0
H1224 H 0.93639 0.25942 0.84682 0.0
H1225 H 0.95244 0.29406 0.92045 0.0
H1226 H 0.01153 0.29667 0.93566 0.0
H1227 H 0.99544 0.26173 0.8634 0.0
H1228 H 0.0043 0.30725 0.05251 0.0
H1229 H 0.98981 0.35557 0.87572 0.0
H1230 H 0.96634 0.3312 0.89053 0.0
H1231 H 0.98572 0.3284 0.85199 0.0
C1232 C 0.95283 0.26741 0.86558 0.0
C1233 C 0.96466 0.25786 0.84862 0.0
C1234 C 0.96203 0.28731 0.90754 0.0
C1235 C 0.98335 0.29832 0.93277 0.0
C1236 C 0.99509 0.2886 0.91674 0.0
H1237 H 0.06361 0.43618 0.08717 0.0
H1238 H 0.04441 0.39941 1.02408 0.0
C1239 C 0.98586 0.26859 0.87528 0.0
C1240 C 0.99348 0.31986 0.97611 0.0
H1241 H 0.00347 0.37318 0.98396 0.0
C1242 C 0.00411 0.32166 1.03749 0.0
C1243 C 0.99343 0.3388 0.95647 0.0
C1244 C 0.9834 0.33853 0.88987 0.0
C1245 C 0.01478 0.3418 0.07938 0.0
C1246 C 0.01442 0.36061 0.06018 0.0
C1247 C 0.00362 0.35875 0.99907 0.0
C1248 C 0.02625 0.38278 0.10042 0.0
C1249 C 0.02693 0.34289 0.14276 0.0
C1250 C 0.0226 0.38583 0.16478 0.0
C1251 C 0.03374 0.40696 0.2012 0.0
C1252 C 0.04826 0.42543 0.17318 0.0
C1253 C 0.05212 0.42231 0.10936 0.0
C1254 C 0.04117 0.40127 0.07332 0.0
H1255 H 0.03006 0.32903 0.14245 0.0
H1256 H 0.0421 0.35887 0.1529 0.0
H1257 H 0.01771 0.34164 0.18323 0.0
H1258 H 0.01092 0.37197 0.18653 0.0
H1259 H 0.0307 0.40897 0.25061 0.0
H1260 H 0.84354 0.62058 0.99845 0.0
H1261 H 0.81044 0.60026 1.04417 0.0
H1262 H 0.78122 0.62159 0.90133 0.0
H1263 H 0.81444 0.64229 0.857 0.0
H1264 H 0.78523 0.61534 0.09709 0.0
H1265 H 0.74239 0.55386 0.87823 0.0
H1266 H 0.77039 0.57244 0.89107 0.0
H1267 H 0.75358 0.58238 0.86295 0.0
C1268 C 0.82993 0.62062 0.97623 0.0
C1269 C 0.83122 0.63187 0.92136 0.0
C1270 C 0.81106 0.60914 1.00271 0.0
C1271 C 0.7931 0.60895 0.97557 0.0
C1272 C 0.7946 0.62087 0.9221 0.0
H1273 H 0.66226 0.54059 1.03352 0.0
H1274 H 0.69641 0.56179 0.99642 0.0
C1275 C 0.8135 0.63235 0.89574 0.0
C1276 C 0.77281 0.59612 1.00264 0.0
H1277 H 0.72255 0.5527 0.96217 0.0
C1278 C 0.77149 0.60164 0.0677 0.0
C1279 C 0.75478 0.57831 0.96453 0.0
C1280 C 0.75522 0.57118 0.89524 0.0
C1281 C 0.75257 0.59024 0.0948 0.0
C1282 C 0.73459 0.57211 0.05663 0.0
C1283 C 0.73611 0.56653 0.99187 0.0
C1284 C 0.71378 0.55915 0.08099 0.0
C1285 C 0.75197 0.59842 0.16314 0.0
C1286 C 0.71176 0.55014 0.14077 0.0
C1287 C 0.69211 0.53837 0.16274 0.0
C1288 C 0.67398 0.53441 0.12395 0.0
C1289 C 0.67589 0.54287 0.06363 0.0
C1290 C 0.69551 0.55512 1.04258 0.0
H1291 H 0.76436 0.61614 0.17698 0.0
H1292 H 0.73659 0.5967 0.16845 0.0
H1293 H 0.75481 0.58856 0.19798 0.0
H1294 H 0.72532 0.55216 0.17055 0.0
H1295 H 0.69103 0.53219 0.20974 0.0
H1296 H 0.88929 0.59603 0.85466 0.0
H1297 H 0.9075 0.57969 0.90822 0.0
H1298 H 0.93405 0.63282 0.06662 0.0
H1299 H 0.91566 0.64955 1.01304 0.0
H1300 H 0.96356 0.62217 1.0156 0.0
H1301 H 0.8926 0.54734 0.07247 0.0
H1302 H 0.89114 0.55234 0.98882 0.0
H1303 H 0.89257 0.57194 0.05208 0.0
C1304 C 0.89883 0.6043 0.90116 0.0
C1305 C 0.90094 0.62422 0.92938 0.0
C1306 C 0.90925 0.59484 0.93179 0.0
C1307 C 0.92201 0.60489 0.99169 0.0
C1308 C 0.92425 0.62476 1.02037 0.0
H1309 H 0.96428 0.53071 0.21575 0.0
H1310 H 0.95162 0.55522 0.18444 0.0
C1311 C 0.91369 0.63427 0.98974 0.0
C1312 C 0.93298 0.59446 1.0233 0.0
H1313 H 0.92391 0.54604 0.07927 0.0
C1314 C 0.95494 0.60563 1.03029 0.0
C1315 C 0.92175 0.57294 1.04288 0.0
C1316 C 0.89822 0.56048 1.03933 0.0
C1317 C 0.9659 0.59553 0.05434 0.0
C1318 C 0.95458 0.57359 0.07114 0.0
C1319 C 0.93266 0.56277 0.06602 0.0
C1320 C 0.9649 0.56128 0.09374 0.0
C1321 C 0.98948 0.6085 0.06179 0.0
C1322 C 0.97705 0.55684 0.05401 0.0
C1323 C 0.98445 0.54287 0.07212 0.0
C1324 C 0.97957 0.53282 0.12985 0.0
C1325 C 0.96815 0.53804 0.17071 0.0
C1326 C 0.96091 0.55207 0.15286 0.0
H1327 H 0.99579 0.62669 0.0653 0.0
H1328 H 0.99622 0.60486 0.10576 0.0
H1329 H 0.99475 0.60374 1.01841 0.0
H1330 H 0.98001 0.56333 1.00752 0.0
H1331 H 0.99297 0.53895 1.03925 0.0
H1332 H 0.53574 0.36106 1.01126 0.0
H1333 H 0.50616 0.32746 0.95018 0.0
H1334 H 0.54467 0.29836 0.93659 0.0
H1335 H 0.57471 0.33247 0.99241 0.0
H1336 H 0.52223 0.28945 0.82616 0.0
H1337 H 0.46917 0.27007 1.01488 0.0
H1338 H 0.47724 0.29676 0.98863 0.0
H1339 H 0.49633 0.29177 1.03022 0.0
C1340 C 0.53808 0.34769 0.99462 0.0
C1341 C 0.55779 0.34966 1.00764 0.0
C1342 C 0.52094 0.32822 0.96058 0.0
C1343 C 0.52292 0.31001 0.94002 0.0
C1344 C 0.54259 0.31201 0.95234 0.0
H1345 H 0.42282 0.17327 0.82767 0.0
H1346 H 0.45013 0.20935 0.88454 0.0
C1347 C 0.55978 0.33156 0.98522 0.0
C1348 C 0.5048 0.28905 0.90425 0.0
H1349 H 0.45426 0.24823 0.91167 0.0
C1350 C 0.5074 0.28043 0.84507 0.0
C1351 C 0.48544 0.27699 0.92907 0.0
C1352 C 0.48192 0.28423 0.99449 0.0
C1353 C 0.4914 0.26022 0.8104 0.0
C1354 C 0.47179 0.2486 0.83396 0.0
C1355 C 0.46914 0.25722 0.89302 0.0
C1356 C 0.45421 0.227 0.79974 0.0
C1357 C 0.49606 0.25116 0.75024 0.0
C1358 C 0.44687 0.22488 0.73345 0.0
C1359 C 0.43146 0.20415 0.70061 0.0
C1360 C 0.42264 0.18524 0.73385 0.0
C1361 C 0.42918 0.18757 0.80087 0.0
C1362 C 0.44486 0.20821 0.8334 0.0
H1363 H 0.51315 0.25828 0.75036 0.0
H1364 H 0.48834 0.23278 0.7461 0.0
H1365 H 0.49022 0.25569 0.70634 0.0
H1366 H 0.45325 0.23919 0.70677 0.0
H1367 H 0.42655 0.20289 0.64908 0.0
H1368 H 0.90038 0.20695 0.82402 0.0
H1369 H 0.86604 0.19925 0.84989 0.0
H1370 H 0.84029 0.1293 0.79234 0.0
H1371 H 0.87447 0.13711 0.76493 0.0
H1372 H 0.81428 0.1425 0.74294 0.0
H1373 H 0.8383 0.17321 1.00651 0.0
H1374 H 0.85314 0.19368 0.95479 0.0
H1375 H 0.85492 0.16912 0.95629 0.0
C1376 C 0.88732 0.18998 0.81645 0.0
C1377 C 0.8899 0.17268 0.79079 0.0
C1378 C 0.86774 0.18552 0.83209 0.0
C1379 C 0.85047 0.16362 0.82364 0.0
C1380 C 0.85325 0.14633 0.79906 0.0
H1381 H 0.73775 0.11996 1.00656 0.0
H1382 H 0.76993 0.12542 0.9682 0.0
C1383 C 0.87279 0.15078 0.78351 0.0
C1384 C 0.82948 0.1586 0.83971 0.0
H1385 H 0.80403 0.16352 0.96347 0.0
C1386 C 0.81203 0.14706 0.79124 0.0
C1387 C 0.82639 0.1643 0.90285 0.0
C1388 C 0.84412 0.17556 0.95831 0.0
C1389 C 0.79171 0.14109 0.80408 0.0
C1390 C 0.7887 0.14723 0.86689 0.0
C1391 C 0.80619 0.15882 0.91523 0.0
C1392 C 0.76762 0.14147 0.88464 0.0
C1393 C 0.77364 0.1277 0.75063 0.0
C1394 C 0.75507 0.14803 0.8497 0.0
C1395 C 0.73634 0.14444 0.87098 0.0
C1396 C 0.72997 0.13458 0.92824 0.0
C1397 C 0.74217 0.12741 0.96192 0.0
C1398 C 0.76068 0.13071 0.94026 0.0
H1399 H 0.77752 0.1188 0.71333 0.0
H1400 H 0.75946 0.11532 0.77051 0.0
H1401 H 0.76993 0.13906 0.72581 0.0
H1402 H 0.76019 0.15684 0.80764 0.0
H1403 H 0.7275 0.15059 0.84493 0.0
H1404 H 0.61702 0.04363 0.12279 0.0
H1405 H 0.63296 0.02234 0.15923 0.0
H1406 H 0.64796 0.01639 0.96552 0.0
H1407 H 0.63219 0.03802 0.92914 0.0
H1408 H 0.62912 0.97431 1.0459 0.0
H1409 H 0.70048 0.05197 0.1634 0.0
H1410 H 0.67572 0.04874 0.17783 0.0
H1411 H 0.68305 0.05176 0.09717 0.0
C1412 C 0.62321 0.03723 0.08761 0.0
C1413 C 0.62269 0.04174 1.0226 0.0
C1414 C 0.63243 0.02521 0.10853 0.0
C1415 C 0.64165 0.01775 0.06515 0.0
C1416 C 0.64083 0.02186 0.99975 0.0
H1417 H 0.72882 0.97545 0.21408 0.0
H1418 H 0.71199 0.99033 0.1428 0.0
C1419 C 0.63167 0.03402 0.97885 0.0
C1420 C 0.65326 0.00696 0.08966 0.0
H1421 H 0.69735 0.01798 0.18758 0.0
C1422 C 0.64411 0.98385 0.07641 0.0
C1423 C 0.673 0.01944 0.12855 0.0
C1424 C 0.68382 0.04439 0.14245 0.0
C1425 C 0.65376 0.97281 0.10347 0.0
C1426 C 0.67302 0.98517 0.14526 0.0
C1427 C 0.68259 0.00842 0.15587 0.0
C1428 C 0.68261 0.97427 0.18266 0.0
C1429 C 0.64317 0.94796 0.08744 0.0
C1430 C 0.67173 0.96013 0.22837 0.0
C1431 C 0.68131 0.95175 0.26905 0.0
C1432 C 0.70207 0.95725 0.26523 0.0
C1433 C 0.71276 0.97072 0.21777 0.0
C1434 C 0.70318 0.97933 0.17731 0.0
H1435 H 0.63247 0.94201 1.04076 0.0
H1436 H 0.65483 0.94272 0.08405 0.0
H1437 H 0.63371 0.93976 0.12663 0.0
H1438 H 0.65603 0.95625 0.2345 0.0
H1439 H 0.67265 0.94143 0.30507 0.0
H1440 H 0.17855 0.73416 0.22706 0.0
H1441 H 0.16463 0.69415 0.21282 0.0
H1442 H 0.12672 0.68614 0.36653 0.0
H1443 H 0.14013 0.72624 0.37928 0.0
H1444 H 0.16824 0.66837 0.29029 0.0
H1445 H 0.08359 0.63726 0.23578 0.0
H1446 H 0.10315 0.66626 0.23791 0.0
H1447 H 0.09476 0.65455 0.3124 0.0
C1448 C 0.16709 0.72387 0.2575 0.0
C1449 C 0.16045 0.73346 0.30433 0.0
C1450 C 0.15913 0.70091 0.24932 0.0
C1451 C 0.14434 0.68681 0.28788 0.0
C1452 C 0.13762 0.69637 0.33468 0.0
H1453 H 0.09595 0.55062 0.36252 0.0
H1454 H 0.11196 0.59101 0.36795 0.0
C1455 C 0.14539 0.71938 0.34225 0.0
C1456 C 0.13682 0.6624 0.28074 0.0
H1457 H 0.09291 0.61034 0.26011 0.0
C1458 C 0.15174 0.65576 0.28307 0.0
C1459 C 0.11528 0.64568 0.2709 0.0
C1460 C 0.09828 0.65127 0.2634 0.0
C1461 C 0.14576 0.63314 0.27733 0.0
C1462 C 0.12433 0.61658 0.26934 0.0
C1463 C 0.10938 0.62308 0.2664 0.0
C1464 C 0.11709 0.59243 0.26687 0.0
C1465 C 0.16233 0.62695 0.28074 0.0
C1466 C 0.11516 0.57978 0.20855 0.0
C1467 C 0.10599 0.55655 0.20532 0.0
C1468 C 0.09884 0.54568 0.26068 0.0
C1469 C 0.10163 0.55858 0.31942 0.0
C1470 C 0.11066 0.58165 0.32251 0.0
H1471 H 0.1784 0.64175 0.29042 0.0
H1472 H 0.16007 0.61609 0.31975 0.0
H1473 H 0.16074 0.6174 0.23377 0.0
H1474 H 0.11995 0.58775 0.1649 0.0
H1475 H 0.10355 0.54702 0.15898 0.0
H1476 H 0.572 0.4691 0.23724 0.0
H1477 H 0.53697 0.44966 0.27146 0.0
H1478 H 0.50941 0.44169 0.07309 0.0
H1479 H 0.54438 0.46068 1.03877 0.0
H1480 H 0.50561 0.45874 0.26589 0.0
H1481 H 0.47786 0.37859 0.11625 0.0
H1482 H 0.50501 0.40051 0.1291 0.0
H1483 H 0.48686 0.40136 0.06827 0.0
C1484 C 0.55844 0.46341 0.20121 0.0
C1485 C 0.56085 0.46678 0.13557 0.0
C1486 C 0.53842 0.45217 0.22067 0.0
C1487 C 0.52045 0.44382 0.17475 0.0
C1488 C 0.52294 0.44745 0.10927 0.0
H1489 H 0.38874 0.38934 0.1727 0.0
H1490 H 0.42458 0.40321 0.14907 0.0
C1491 C 0.54291 0.4585 0.08975 0.0
C1492 C 0.49911 0.43156 0.19518 0.0
H1493 H 0.45158 0.38326 0.16084 0.0
C1494 C 0.49389 0.44213 0.24349 0.0
C1495 C 0.48379 0.40976 0.16643 0.0
C1496 C 0.4887 0.39679 0.11765 0.0
C1497 C 0.47361 0.43192 0.26172 0.0
C1498 C 0.45812 0.4105 0.23123 0.0
C1499 C 0.46344 0.39969 0.1841 0.0
C1500 C 0.43597 0.39979 0.24439 0.0
C1501 C 0.46862 0.44444 0.31182 0.0
C1502 C 0.43024 0.39248 0.30516 0.0
C1503 C 0.40962 0.38424 0.31851 0.0
C1504 C 0.39447 0.3834 0.2715 0.0
C1505 C 0.40009 0.38984 0.20987 0.0
C1506 C 0.42056 0.39779 0.19634 0.0
H1507 H 0.48146 0.46204 0.32409 0.0
H1508 H 0.45402 0.44406 0.29386 0.0
H1509 H 0.46604 0.43629 0.35714 0.0
H1510 H 0.44184 0.39368 0.34276 0.0
H1511 H 0.40577 0.37958 0.36654 0.0
H1512 H 0.82456 0.65635 0.62405 0.0
H1513 H 0.81827 0.68036 0.5561 0.0
H1514 H 0.88289 0.7323 0.60569 0.0
H1515 H 0.88914 0.70859 0.67253 0.0
H1516 H 0.82508 0.72347 0.60489 0.0
H1517 H 0.87251 0.72998 0.40696 0.0
H1518 H 0.86392 0.7079 0.45844 0.0
H1519 H 0.88651 0.73482 0.48661 0.0
C1520 C 0.83743 0.67284 0.62039 0.0
C1521 C 0.8572 0.68092 0.65653 0.0
C1522 C 0.83382 0.68653 0.58131 0.0
C1523 C 0.85009 0.7082 0.57601 0.0
C1524 C 0.87007 0.71566 0.60873 0.0
H1525 H 0.88146 0.83364 0.45908 0.0
H1526 H 0.87841 0.80025 0.49851 0.0
C1527 C 0.87356 0.70215 0.648 0.0
C1528 C 0.84632 0.72384 0.54033 0.0
H1529 H 0.86503 0.75928 0.42462 0.0
C1530 C 0.83342 0.73099 0.56449 0.0
C1531 C 0.85731 0.7337 0.48788 0.0
C1532 C 0.87068 0.72607 0.458 0.0
C1533 C 0.83221 0.74864 0.54016 0.0
C1534 C 0.84397 0.75917 0.48965 0.0
C1535 C 0.8561 0.75131 0.46357 0.0
C1536 C 0.8452 0.7794 0.4664 0.0
C1537 C 0.81932 0.7567 0.57115 0.0
C1538 C 0.82751 0.77889 0.43527 0.0
C1539 C 0.82922 0.79805 0.41226 0.0
C1540 C 0.8487 0.81806 0.41952 0.0
C1541 C 0.86628 0.81848 0.4515 0.0
C1542 C 0.86456 0.7994 0.47437 0.0
H1543 H 0.81441 0.7496 0.61742 0.0
H1544 H 0.82823 0.77512 0.58132 0.0
H1545 H 0.80501 0.7517 0.53703 0.0
H1546 H 0.81245 0.76358 0.42769 0.0
H1547 H 0.81541 0.79704 0.38729 0.0
H1548 H 0.35393 0.05849 0.4391 0.0
H1549 H 0.32796 0.01963 0.39682 0.0
H1550 H 0.28592 0.01991 0.52636 0.0
H1551 H 0.31154 0.05814 0.56932 0.0
H1552 H 0.3117 0.98364 0.4775 0.0
H1553 H 0.24758 0.99097 0.35052 0.0
H1554 H 0.27414 0.01418 0.36875 0.0
H1555 H 0.25738 0.00553 0.43153 0.0
C1556 C 0.33898 0.05048 0.45755 0.0
C1557 C 0.33497 0.06176 0.50759 0.0
C1558 C 0.32415 0.02816 0.43352 0.0
C1559 C 0.30481 0.01679 0.45787 0.0
C1560 C 0.30049 0.0283 0.5058 0.0
H1561 H 0.19965 0.87847 0.42398 0.0
H1562 H 0.22255 0.91913 0.44812 0.0
C1563 C 0.31532 0.05036 0.53038 0.0
C1564 C 0.28978 0.99248 0.43772 0.0
H1565 H 0.23938 0.95457 0.37026 0.0
C1566 C 0.29597 0.97732 0.4534 0.0
C1567 C 0.26907 0.98409 0.40736 0.0
C1568 C 0.26162 0.9995 0.38799 0.0
C1569 C 0.28204 0.95416 0.44061 0.0
C1570 C 0.26136 0.94573 0.40962 0.0
C1571 C 0.25514 0.96089 0.39401 0.0
C1572 C 0.2464 0.92128 0.39127 0.0
C1573 C 0.28945 0.93891 0.46225 0.0
C1574 C 0.25167 0.90896 0.34943 0.0
C1575 C 0.2387 0.88588 0.33572 0.0
C1576 C 0.21986 0.87432 0.36285 0.0
C1577 C 0.21398 0.88675 0.40213 0.0
C1578 C 0.22712 0.91002 0.41615 0.0
H1579 H 0.30301 0.94753 0.50142 0.0
H1580 H 0.27674 0.92408 0.48033 0.0
H1581 H 0.29451 0.93316 0.42024 0.0
H1582 H 0.26609 0.91719 0.328 0.0
H1583 H 0.24368 0.87703 0.30441 0.0
H1584 H 0.00328 0.25871 0.65268 0.0
H1585 H 0.03418 0.26186 0.60983 0.0
H1586 H 1.003 0.19035 0.57524 0.0
H1587 H 0.97186 0.18729 0.61496 0.0
H1588 H 0.0603 0.24873 0.65029 0.0
H1589 H 0.02208 0.20565 0.40235 0.0
H1590 H 0.00914 0.21357 0.45839 0.0
H1591 H 0.00998 0.18857 0.46468 0.0
C1592 C 1.00305 0.2437 0.63556 0.0
C1593 C 0.98538 0.22276 0.63869 0.0
C1594 C 0.02072 0.24549 0.61127 0.0
C1595 C 0.02098 0.22636 0.5886 0.0
C1596 C 0.00316 0.20541 0.59097 0.0
H1597 H 0.135 0.22442 0.52632 0.0
H1598 H 0.10608 0.22416 0.575 0.0
C1599 C 0.98543 0.20364 0.61472 0.0
C1600 C 0.03996 0.22841 0.56323 0.0
H1601 H 0.05648 0.21279 0.43211 0.0
C1602 C 0.05948 0.24099 0.60236 0.0
C1603 C 0.03905 0.21853 0.50043 0.0
C1604 C 0.01897 0.20602 0.45379 0.0
C1605 C 0.07799 0.24388 0.58068 0.0
C1606 C 0.07695 0.23336 0.51874 0.0
C1607 C 0.05741 0.22082 0.47969 0.0
C1608 C 0.0958 0.23533 0.49236 0.0
C1609 C 0.09849 0.25872 0.62379 0.0
C1610 C 0.09975 0.24148 0.42943 0.0
C1611 C 0.11599 0.24119 0.40123 0.0
C1612 C 0.12889 0.23499 0.43548 0.0
C1613 C 0.12554 0.22965 0.49933 0.0
C1614 C 0.10901 0.22957 0.52722 0.0
H1615 H 0.09752 0.2708 0.65829 0.0
H1616 H 0.10246 0.24836 0.65312 0.0
H1617 H 0.11138 0.2681 0.59455 0.0
H1618 H 0.0899 0.24603 0.40133 0.0
H1619 H 0.11817 0.24529 0.35184 0.0
H1620 H 0.36751 0.16733 0.64637 0.0
H1621 H 0.35139 0.18986 0.62527 0.0
H1622 H 0.32018 0.14967 0.44066 0.0
H1623 H 0.3357 0.12704 0.46225 0.0
H1624 H 0.35602 0.21543 0.52591 0.0
H1625 H 0.27219 0.15115 0.5103 0.0
H1626 H 0.29272 0.14679 0.54362 0.0
H1627 H 0.28568 0.14339 0.45675 0.0
C1628 C 0.35676 0.16297 0.60221 0.0
C1629 C 0.35256 0.14507 0.55664 0.0
C1630 C 0.34767 0.17598 0.58979 0.0
C1631 C 0.33417 0.17135 0.53165 0.0
C1632 C 0.32997 0.15337 0.48662 0.0
H1633 H 0.28345 0.24648 0.33799 0.0
H1634 H 0.29448 0.2195 0.36062 0.0
C1635 C 0.33898 0.14045 0.49896 0.0
C1636 C 0.32545 0.18595 0.51574 0.0
H1637 H 0.27991 0.18522 0.46907 0.0
C1638 C 0.33936 0.20878 0.51404 0.0
C1639 C 0.30367 0.17745 0.49951 0.0
C1640 C 0.28768 0.1534 0.50321 0.0
C1641 C 0.33221 0.22309 0.49605 0.0
C1642 C 0.31051 0.21456 0.47939 0.0
C1643 C 0.29655 0.19178 0.48099 0.0
C1644 C 0.30218 0.2295 0.46482 0.0
C1645 C 0.34794 0.24735 0.49446 0.0
C1646 C 0.3024 0.24379 0.51562 0.0
C1647 C 0.29598 0.25893 0.50285 0.0
C1648 C 0.28884 0.26008 0.43902 0.0
C1649 C 0.28831 0.24558 0.38785 0.0
C1650 C 0.29476 0.23029 0.40077 0.0
H1651 H 0.36422 0.25072 0.49791 0.0
H1652 H 0.34442 0.25304 0.44887 0.0
H1653 H 0.34694 0.25732 0.53612 0.0
H1654 H 0.308 0.24357 0.56531 0.0
H1655 H 0.29697 0.27016 0.54313 0.0
H1656 H 0.83739 0.97039 0.26827 0.0
H1657 H 0.86032 0.00875 0.32129 0.0
H1658 H 0.82692 0.9915 0.48865 0.0
H1659 H 0.80489 0.95318 0.43715 0.0
H1660 H 0.85105 0.03873 0.35429 0.0
H1661 H 0.88451 0.02523 0.58328 0.0
H1662 H 0.87277 0.00479 0.51255 0.0
H1663 H 0.8566 0.00763 0.56756 0.0
C1664 C 0.8354 0.97479 0.31706 0.0
C1665 C 0.81984 0.95877 0.34948 0.0
C1666 C 0.84841 0.99669 0.34728 0.0
C1667 C 0.84579 0.00308 0.40994 0.0
C1668 C 0.82997 0.98699 0.44172 0.0
H1669 H 0.88132 0.1363 0.57705 0.0
H1670 H 0.86369 0.09901 0.51678 0.0
C1671 C 0.81725 0.96507 0.41204 0.0
C1672 C 0.8584 0.02682 0.43997 0.0
H1673 H 0.88743 0.06031 0.58088 0.0
C1674 C 0.85912 0.0434 0.4037 0.0
C1675 C 0.8693 0.03321 0.50417 0.0
C1676 C 0.87096 0.01682 0.54406 0.0
C1677 C 0.86993 0.06591 0.4302 0.0
C1678 C 0.87982 0.07206 0.49547 0.0
C1679 C 0.87954 0.0556 0.53123 0.0
C1680 C 0.89085 0.09545 0.52767 0.0
C1681 C 0.87131 0.08304 0.3874 0.0
C1682 C 0.91198 0.10594 0.55437 0.0
C1683 C 0.92207 0.1272 0.58914 0.0
C1684 C 0.91122 0.13847 0.59886 0.0
C1685 C 0.89019 0.12818 0.57064 0.0
C1686 C 0.8801 0.10686 0.53572 0.0
H1687 H 0.86692 0.07635 0.3349 0.0
H1688 H 0.86059 0.08874 0.40086 0.0
H1689 H 0.8875 0.09759 0.39447 0.0
H1690 H 0.92065 0.09754 0.5489 0.0
H1691 H 0.93835 0.13468 0.60911 0.0
H1692 H 0.9281 0.65253 0.75471 0.0
H1693 H 0.95945 0.6712 0.70023 0.0
H1694 H 0.93479 0.70781 0.60617 0.0
H1695 H 0.90261 0.68687 0.65412 0.0
H1696 H 0.94791 0.69527 0.52209 0.0
H1697 H 0.01214 0.72657 0.72559 0.0
H1698 H 0.9958 0.69693 0.71943 0.0
H1699 H 0.98527 0.7143 0.73876 0.0
C1700 C 0.92977 0.66508 0.72386 0.0
C1701 C 0.91337 0.66919 0.71127 0.0
C1702 C 0.94783 0.67594 0.69287 0.0
C1703 C 0.95017 0.69168 0.65001 0.0
C1704 C 0.9338 0.69602 0.63908 0.0
H1705 H 0.03889 0.77243 0.39197 0.0
H1706 H 0.01137 0.75623 0.46223 0.0
C1707 C 0.91546 0.68442 0.66768 0.0
C1708 C 0.96829 0.70185 0.61095 0.0
H1709 H 0.02163 0.72721 0.61852 0.0
C1710 C 0.96397 0.70234 0.54381 0.0
C1711 C 0.98954 0.71104 0.63797 0.0
C1712 C 0.99602 0.71237 0.70954 0.0
C1713 C 0.97988 0.71154 0.50364 0.0
C1714 C 1.00097 0.72081 0.53092 0.0
C1715 C 0.00545 0.7201 0.59751 0.0
C1716 C 0.01856 0.73151 0.49111 0.0
C1717 C 0.97385 0.71084 0.43187 0.0
C1718 C 0.03251 0.7238 0.48616 0.0
C1719 C 0.04852 0.7333 0.44664 0.0
C1720 C 0.05086 0.75068 0.41104 0.0
C1721 C 0.03724 0.75877 0.4176 0.0
C1722 C 0.02143 0.74945 0.45762 0.0
H1723 H 0.95716 0.69832 0.41612 0.0
H1724 H 0.97626 0.72725 0.42191 0.0
H1725 H 0.98352 0.70698 0.40196 0.0
H1726 H 0.03074 0.7101 0.51185 0.0
H1727 H 0.05871 0.72665 0.44257 0.0
loop_
_geom_bond_atom_site_label_1
_geom_bond_atom_site_label_2
_geom_bond_distance
_geom_bond_site_symmetry_2
_ccdc_geom_bond_type
Eu0 N31 2.657 . S
Eu0 N38 2.609 . S
Eu0 O44 2.558 . S
Eu0 O45 2.612 . S
Eu0 O47 2.339 . S
Eu0 O48 2.563 . S
Eu0 O49 2.419 . S
Eu0 O51 2.380 . S
Eu0 O52 2.432 . S
Eu0 C64 2.848 . S
C1 C4 1.429 . S
C1 C5 1.411 . S
C1 N8 1.377 . S
C2 C4 1.420 . S
C2 C6 1.423 . S
C2 C14 1.392 . S
C3 C5 1.420 . S
C3 C6 1.351 . S
C3 H26 0.931 . S
C4 C1 1.429 . S
C4 C2 1.420 . S
C4 N12 1.362 . S
C5 C1 1.411 . S
C5 C3 1.420 . S
C5 C10 1.395 . S
C6 C2 1.423 . S
C6 C3 1.351 . S
C6 H18 0.930 . S
C7 C9 1.400 . S
C7 C10 1.386 . S
C7 H19 0.930 . S
N8 C1 1.377 . S
N8 C9 1.321 . S
N8 Eu11 2.609 1_655 S
C9 C7 1.400 . S
C9 N8 1.321 . S
C9 H16 0.930 . S
C10 C5 1.395 . S
C10 C7 1.386 . S
C10 H29 0.930 . S
Eu11 N8 2.609 1_455 S
Eu11 N12 2.657 1_455 S
Eu11 O45 2.380 . S
Eu11 O46 2.432 . S
Eu11 O50 2.558 1_455 S
Eu11 O51 2.612 . S
Eu11 O53 2.339 . S
Eu11 O54 2.563 . S
Eu11 O55 2.419 1_455 S
Eu11 C75 2.848 1_455 S
N12 C4 1.362 . S
N12 Eu11 2.657 1_655 S
N12 C13 1.334 . S
C13 N12 1.334 . S
C13 C15 1.413 . S
C13 H20 0.929 . S
C14 C2 1.392 . S
C14 C15 1.367 . S
C14 H22 0.930 . S
C15 C13 1.413 . S
C15 C14 1.367 . S
C15 H17 0.930 1_554 S
H16 C9 0.930 . S
H17 C15 0.930 1_556 S
H18 C6 0.930 . S
H19 C7 0.930 . S
H20 C13 0.929 . S
H21 C35 0.930 . S
H22 C14 0.930 . S
H23 C41 0.930 . S
H24 C32 0.929 . S
H25 C39 0.930 . S
H26 C3 0.931 . S
H27 C33 0.930 . S
H28 C66 0.930 . S
H29 C10 0.930 . S
H30 C65 0.931 . S
N31 Eu0 2.657 . S
N31 C32 1.334 . S
N31 C36 1.362 . S
C32 H24 0.929 . S
C32 N31 1.334 . S
C32 C35 1.413 . S
C33 H27 0.930 . S
C33 C34 1.392 . S
C33 C35 1.367 . S
C34 C33 1.392 . S
C34 C36 1.420 . S
C34 C66 1.423 . S
C35 H21 0.930 . S
C35 C32 1.413 . S
C35 C33 1.367 . S
C36 N31 1.362 . S
C36 C34 1.420 . S
C36 C40 1.429 . S
H37 C42 0.930 . S
N38 Eu0 2.609 . S
N38 C40 1.377 . S
N38 C41 1.321 . S
C39 H25 0.930 . S
C39 C41 1.400 . S
C39 C42 1.386 . S
C40 C36 1.429 . S
C40 N38 1.377 . S
C40 C43 1.411 . S
C41 H23 0.930 . S
C41 N38 1.321 . S
C41 C39 1.400 . S
C42 H37 0.930 . S
C42 C39 1.386 . S
C42 C43 1.395 . S
C43 C40 1.411 . S
C43 C42 1.395 . S
C43 C65 1.420 . S
O44 Eu0 2.558 . S
O44 C64 1.257 . S
O45 Eu0 2.612 . S
O45 Eu11 2.380 . S
O45 C56 1.276 . S
O46 Eu11 2.432 . S
O46 C63 1.264 . S
O47 Eu0 2.339 . S
O47 C63 1.254 . S
O48 Eu0 2.563 . S
O48 C56 1.235 . S
O49 Eu0 2.419 . S
O49 C64 1.249 . S
O50 Eu11 2.558 1_655 S
O50 C75 1.257 . S
O51 Eu0 2.380 . S
O51 Eu11 2.612 . S
O51 C67 1.276 . S
O52 Eu0 2.432 . S
O52 C74 1.264 . S
O53 Eu11 2.339 . S
O53 C74 1.254 . S
O54 Eu11 2.563 . S
O54 C67 1.235 . S
O55 Eu11 2.419 1_655 S
O55 C75 1.249 . S
C56 O45 1.276 . S
C56 O48 1.235 . S
C57 C59 1.393 . S
C57 C61 1.395 . S
C57 C64 1.492 . S
C58 C59 1.392 . S
C58 C60 1.386 . S
C59 C57 1.393 . S
C59 C58 1.392 . S
C59 H76 0.930 . S
C60 C58 1.386 . S
C60 C62 1.395 . S
C60 H77 0.930 . S
C61 C57 1.395 . S
C61 C62 1.379 . S
C61 H78 0.930 . S
C62 C60 1.395 . S
C62 C61 1.379 . S
C62 H79 0.930 . S
C63 O46 1.264 . S
C63 O47 1.254 . S
C64 Eu0 2.848 . S
C64 O44 1.257 . S
C64 O49 1.249 . S
C64 C57 1.492 . S
C65 H30 0.931 . S
C65 C43 1.420 . S
C65 C66 1.351 . S
C66 H28 0.930 . S
C66 C34 1.423 . S
C66 C65 1.351 . S
C67 O51 1.276 . S
C67 O54 1.235 . S
C68 C69 1.393 . S
C68 C72 1.395 . S
C68 C75 1.492 . S
C69 C68 1.393 . S
C69 C70 1.392 . S
C69 H80 0.930 . S
C70 C69 1.392 . S
C70 C71 1.386 . S
C71 C70 1.386 . S
C71 C73 1.395 . S
C71 H81 0.930 . S
C72 C68 1.395 . S
C72 C73 1.379 . S
C72 H82 0.930 . S
C73 C71 1.395 . S
C73 C72 1.379 . S
C73 H83 0.930 . S
C74 O52 1.264 . S
C74 O53 1.254 . S
C75 Eu11 2.848 1_655 S
C75 O50 1.257 . S
C75 O55 1.249 . S
C75 C68 1.492 . S
H76 C59 0.930 . S
H77 C60 0.930 . S
H78 C61 0.930 . S
H79 C62 0.930 . S
H80 C69 0.930 . S
H81 C71 0.930 . S
H82 C72 0.930 . S
H83 C73 0.930 . S
Eu84 N115 2.657 . S
Eu84 N122 2.609 . S
Eu84 O128 2.558 . S
Eu84 O129 2.612 . S
Eu84 O131 2.339 . S
Eu84 O132 2.563 . S
Eu84 O133 2.419 . S
Eu84 O135 2.380 . S
Eu84 O136 2.432 . S
Eu84 C148 2.848 . S
C85 C88 1.429 . S
C85 C89 1.411 . S
C85 N92 1.377 . S
C86 C88 1.420 . S
C86 C90 1.423 . S
C86 C98 1.392 . S
C87 C89 1.420 . S
C87 C90 1.351 . S
C87 H110 0.931 . S
C88 C85 1.429 . S
C88 C86 1.420 . S
C88 N96 1.362 . S
C89 C85 1.411 . S
C89 C87 1.420 . S
C89 C94 1.395 . S
C90 C86 1.423 . S
C90 C87 1.351 . S
C90 H102 0.930 . S
C91 C93 1.400 . S
C91 C94 1.386 . S
C91 H103 0.930 . S
N92 C85 1.377 . S
N92 C93 1.321 . S
N92 Eu95 2.609 . S
C93 C91 1.400 . S
C93 N92 1.321 . S
C93 H100 0.930 . S
C94 C89 1.395 . S
C94 C91 1.386 . S
C94 H113 0.930 . S
Eu95 N92 2.609 . S
Eu95 N96 2.657 . S
Eu95 O129 2.380 . S
Eu95 O130 2.432 . S
Eu95 O134 2.558 . S
Eu95 O135 2.612 . S
Eu95 O137 2.339 . S
Eu95 O138 2.563 . S
Eu95 O139 2.419 . S
Eu95 C159 2.848 . S
N96 C88 1.362 . S
N96 Eu95 2.657 . S
N96 C97 1.334 . S
C97 N96 1.334 . S
C97 C99 1.413 1_554 S
C97 H104 0.929 1_554 S
C98 C86 1.392 . S
C98 C99 1.367 1_554 S
C98 H106 0.930 1_554 S
C99 C97 1.413 1_556 S
C99 C98 1.367 1_556 S
C99 H101 0.930 . S
H100 C93 0.930 . S
H101 C99 0.930 . S
H102 C90 0.930 . S
H103 C91 0.930 . S
H104 C97 0.929 1_556 S
H105 C119 0.930 . S
H106 C98 0.930 1_556 S
H107 C125 0.930 1_556 S
H108 C116 0.929 . S
H109 C123 0.930 . S
H110 C87 0.931 . S
H111 C117 0.930 . S
H112 C150 0.930 . S
H113 C94 0.930 . S
H114 C149 0.931 . S
N115 Eu84 2.657 . S
N115 C116 1.334 . S
N115 C120 1.362 . S
C116 H108 0.929 . S
C116 N115 1.334 . S
C116 C119 1.413 . S
C117 H111 0.930 . S
C117 C118 1.392 . S
C117 C119 1.367 . S
C118 C117 1.392 . S
C118 C120 1.420 . S
C118 C150 1.423 . S
C119 H105 0.930 . S
C119 C116 1.413 . S
C119 C117 1.367 . S
C120 N115 1.362 . S
C120 C118 1.420 . S
C120 C124 1.429 . S
H121 C126 0.930 1_556 S
N122 Eu84 2.609 . S
N122 C124 1.377 . S
N122 C125 1.321 . S
C123 H109 0.930 . S
C123 C125 1.400 1_556 S
C123 C126 1.386 1_556 S
C124 C120 1.429 . S
C124 N122 1.377 . S
C124 C127 1.411 . S
C125 H107 0.930 1_554 S
C125 N122 1.321 . S
C125 C123 1.400 1_554 S
C126 H121 0.930 1_554 S
C126 C123 1.386 1_554 S
C126 C127 1.395 . S
C127 C124 1.411 . S
C127 C126 1.395 . S
C127 C149 1.420 . S
O128 Eu84 2.558 . S
O128 C148 1.257 . S
O129 Eu84 2.612 . S
O129 Eu95 2.380 . S
O129 C140 1.276 . S
O130 Eu95 2.432 . S
O130 C147 1.264 . S
O131 Eu84 2.339 . S
O131 C147 1.254 . S
O132 Eu84 2.563 . S
O132 C140 1.235 . S
O133 Eu84 2.419 . S
O133 C148 1.249 . S
O134 Eu95 2.558 . S
O134 C159 1.257 . S
O135 Eu84 2.380 . S
O135 Eu95 2.612 . S
O135 C151 1.276 . S
O136 Eu84 2.432 . S
O136 C158 1.265 1_554 S
O137 Eu95 2.339 . S
O137 C158 1.254 1_554 S
O138 Eu95 2.563 . S
O138 C151 1.235 . S
O139 Eu95 2.419 . S
O139 C159 1.249 . S
C140 O129 1.276 . S
C140 O132 1.235 . S
C141 C143 1.393 . S
C141 C145 1.395 . S
C141 C148 1.492 . S
C142 C143 1.392 . S
C142 C144 1.386 . S
C143 C141 1.393 . S
C143 C142 1.392 . S
C143 H160 0.930 . S
C144 C142 1.386 . S
C144 C146 1.395 . S
C144 H161 0.930 . S
C145 C141 1.395 . S
C145 C146 1.379 . S
C145 H162 0.930 . S
C146 C144 1.395 . S
C146 C145 1.379 . S
C146 H163 0.930 . S
C147 O130 1.264 . S
C147 O131 1.254 . S
C148 Eu84 2.848 . S
C148 O128 1.257 . S
C148 O133 1.249 . S
C148 C141 1.492 . S
C149 H114 0.931 . S
C149 C127 1.420 . S
C149 C150 1.351 . S
C150 H112 0.930 . S
C150 C118 1.423 . S
C150 C149 1.351 . S
C151 O135 1.276 . S
C151 O138 1.235 . S
C152 C153 1.393 . S
C152 C156 1.395 . S
C152 C159 1.492 . S
C153 C152 1.393 . S
C153 C154 1.392 . S
C153 H164 0.930 1_554 S
C154 C153 1.392 . S
C154 C155 1.386 . S
C155 C154 1.386 . S
C155 C157 1.395 . S
C155 H165 0.930 . S
C156 C152 1.395 . S
C156 C157 1.379 . S
C156 H166 0.930 . S
C157 C155 1.395 . S
C157 C156 1.379 . S
C157 H167 0.930 . S
C158 O136 1.265 1_556 S
C158 O137 1.254 1_556 S
C159 Eu95 2.848 . S
C159 O134 1.257 . S
C159 O139 1.249 . S
C159 C152 1.492 . S
H160 C143 0.930 . S
H161 C144 0.930 . S
H162 C145 0.930 . S
H163 C146 0.930 . S
H164 C153 0.930 1_556 S
H165 C155 0.930 . S
H166 C156 0.930 . S
H167 C157 0.930 . S
Eu168 N199 2.657 1_556 S
Eu168 N206 2.609 . S
Eu168 O212 2.558 . S
Eu168 O213 2.612 . S
Eu168 O215 2.339 1_556 S
Eu168 O216 2.563 . S
Eu168 O217 2.419 1_556 S
Eu168 O219 2.380 1_556 S
Eu168 O220 2.432 . S
Eu168 C232 2.848 . S
C169 C172 1.429 1_554 S
C169 C173 1.411 . S
C169 N176 1.377 . S
C170 C172 1.420 . S
C170 C174 1.423 . S
C170 C182 1.392 . S
C171 C173 1.420 . S
C171 C174 1.351 1_554 S
C171 H194 0.931 . S
C172 C169 1.429 1_556 S
C172 C170 1.420 . S
C172 N180 1.362 . S
C173 C169 1.411 . S
C173 C171 1.420 . S
C173 C178 1.395 . S
C174 C170 1.423 . S
C174 C171 1.351 1_556 S
C174 H186 0.930 . S
C175 C177 1.400 . S
C175 C178 1.386 . S
C175 H187 0.930 . S
N176 C169 1.377 . S
N176 C177 1.321 . S
N176 Eu179 2.609 . S
C177 C175 1.400 . S
C177 N176 1.321 . S
C177 H184 0.930 . S
C178 C173 1.395 . S
C178 C175 1.386 . S
C178 H197 0.930 . S
Eu179 N176 2.609 . S
Eu179 N180 2.657 1_554 S
Eu179 O213 2.380 1_554 S
Eu179 O214 2.432 . S
Eu179 O218 2.558 . S
Eu179 O219 2.612 . S
Eu179 O221 2.339 1_554 S
Eu179 O222 2.563 . S
Eu179 O223 2.419 1_554 S
Eu179 C243 2.848 . S
N180 C172 1.362 . S
N180 Eu179 2.657 1_556 S
N180 C181 1.334 . S
C181 N180 1.334 . S
C181 C183 1.413 . S
C181 H188 0.929 . S
C182 C170 1.392 . S
C182 C183 1.367 . S
C182 H190 0.930 . S
C183 C181 1.413 . S
C183 C182 1.367 . S
C183 H185 0.930 . S
H184 C177 0.930 . S
H185 C183 0.930 . S
H186 C174 0.930 . S
H187 C175 0.930 . S
H188 C181 0.929 . S
H189 C203 0.930 . S
H190 C182 0.930 . S
H191 C209 0.930 . S
H192 C200 0.929 . S
H193 C207 0.930 . S
H194 C171 0.931 . S
H195 C201 0.975 . S
H196 C234 0.930 . S
H197 C178 0.930 . S
H198 C233 0.931 . S
N199 Eu168 2.657 1_554 S
N199 C200 1.334 . S
N199 C204 1.362 . S
C200 H192 0.929 . S
C200 N199 1.334 . S
C200 C203 1.413 . S
C201 H195 0.975 . S
C201 C202 1.394 . S
C201 C203 1.322 1_565 S
C202 C201 1.394 . S
C202 C204 1.420 1_565 S
C202 C234 1.423 . S
C203 H189 0.930 . S
C203 C200 1.413 . S
C203 C201 1.322 1_545 S
C204 N199 1.362 . S
C204 C202 1.420 1_545 S
C204 C208 1.429 1_554 S
H205 C210 0.930 . S
N206 Eu168 2.609 . S
N206 C208 1.401 . S
N206 C209 1.321 . S
C207 H193 0.930 . S
C207 C209 1.400 1_565 S
C207 C210 1.386 . S
C208 C204 1.429 1_556 S
C208 N206 1.401 . S
C208 C211 1.387 1_545 S
C209 H191 0.930 . S
C209 N206 1.321 . S
C209 C207 1.400 1_545 S
C210 H205 0.930 . S
C210 C207 1.386 . S
C210 C211 1.395 . S
C211 C208 1.387 1_565 S
C211 C210 1.395 . S
C211 C233 1.420 . S
O212 Eu168 2.558 . S
O212 C232 1.257 . S
O213 Eu168 2.612 . S
O213 Eu179 2.380 1_556 S
O213 C224 1.276 . S
O214 Eu179 2.432 . S
O214 C231 1.264 . S
O215 Eu168 2.339 1_554 S
O215 C231 1.254 . S
O216 Eu168 2.563 . S
O216 C224 1.235 . S
O217 Eu168 2.419 1_554 S
O217 C232 1.249 1_554 S
O218 Eu179 2.558 . S
O218 C243 1.257 . S
O219 Eu168 2.380 1_554 S
O219 Eu179 2.612 . S
O219 C235 1.276 . S
O220 Eu168 2.432 . S
O220 C242 1.264 . S
O221 Eu179 2.339 1_556 S
O221 C242 1.254 . S
O222 Eu179 2.563 . S
O222 C235 1.235 . S
O223 Eu179 2.419 1_556 S
O223 C243 1.249 1_556 S
C224 O213 1.276 . S
C224 O216 1.235 . S
C225 C227 1.393 1_556 S
C225 C229 1.395 1_545 S
C225 C232 1.492 . S
C226 C227 1.392 . S
C226 C228 1.386 1_545 S
C227 C225 1.393 1_554 S
C227 C226 1.392 . S
C227 H244 0.930 . S
C228 C226 1.386 1_565 S
C228 C230 1.395 1_554 S
C228 H245 0.930 . S
C229 C225 1.395 1_565 S
C229 C230 1.379 . S
C229 H246 0.930 . S
C230 C228 1.395 1_556 S
C230 C229 1.379 . S
C230 H247 0.930 . S
C231 O214 1.264 . S
C231 O215 1.254 . S
C232 Eu168 2.848 . S
C232 O212 1.257 . S
C232 O217 1.249 1_556 S
C232 C225 1.492 . S
C233 H198 0.931 . S
C233 C211 1.420 . S
C233 C234 1.351 1_556 S
C234 H196 0.930 . S
C234 C202 1.423 . S
C234 C233 1.351 1_554 S
C235 O219 1.276 . S
C235 O222 1.235 . S
C236 C237 1.393 1_554 S
C236 C240 1.395 . S
C236 C243 1.492 . S
C237 C236 1.393 1_556 S
C237 C238 1.392 . S
C237 H248 0.930 . S
C238 C237 1.392 . S
C238 C239 1.386 . S
C239 C238 1.386 . S
C239 C241 1.395 1_556 S
C239 H249 0.930 . S
C240 C236 1.395 . S
C240 C241 1.379 . S
C240 H250 0.930 . S
C241 C239 1.395 1_554 S
C241 C240 1.379 . S
C241 H251 0.930 . S
C242 O220 1.264 . S
C242 O221 1.254 . S
C243 Eu179 2.848 . S
C243 O218 1.257 . S
C243 O223 1.249 1_554 S
C243 C236 1.492 . S
H244 C227 0.930 . S
H245 C228 0.930 . S
H246 C229 0.930 . S
H247 C230 0.930 . S
H248 C237 0.930 . S
H249 C239 0.930 . S
H250 C240 0.930 . S
H251 C241 0.930 . S
Eu252 N283 2.657 . S
Eu252 N290 2.609 . S
Eu252 O296 2.558 . S
Eu252 O297 2.612 . S
Eu252 O299 2.339 . S
Eu252 O300 2.563 . S
Eu252 O301 2.419 . S
Eu252 O303 2.380 . S
Eu252 O304 2.432 . S
Eu252 C316 2.848 . S
C253 C256 1.429 . S
C253 C257 1.411 . S
C253 N260 1.377 . S
C254 C256 1.420 . S
C254 C258 1.423 . S
C254 C266 1.392 . S
C255 C257 1.420 . S
C255 C258 1.351 . S
C255 H278 0.931 . S
C256 C253 1.429 . S
C256 C254 1.420 . S
C256 N264 1.362 . S
C257 C253 1.411 . S
C257 C255 1.420 . S
C257 C262 1.395 . S
C258 C254 1.423 . S
C258 C255 1.351 . S
C258 H270 0.930 . S
C259 C261 1.400 . S
C259 C262 1.386 . S
C259 H271 0.930 . S
N260 C253 1.377 . S
N260 C261 1.321 . S
N260 Eu263 2.609 . S
C261 C259 1.400 . S
C261 N260 1.321 . S
C261 H268 0.930 . S
C262 C257 1.395 . S
C262 C259 1.386 . S
C262 H281 0.930 . S
Eu263 N260 2.609 . S
Eu263 N264 2.657 . S
Eu263 O297 2.380 . S
Eu263 O298 2.432 . S
Eu263 O302 2.558 . S
Eu263 O303 2.612 . S
Eu263 O305 2.339 . S
Eu263 O306 2.563 . S
Eu263 O307 2.419 . S
Eu263 C327 2.848 . S
N264 C256 1.362 . S
N264 Eu263 2.657 . S
N264 C265 1.334 . S
C265 N264 1.334 . S
C265 C267 1.413 . S
C265 H272 0.929 . S
C266 C254 1.392 . S
C266 C267 1.367 . S
C266 H274 0.930 . S
C267 C265 1.413 . S
C267 C266 1.367 . S
C267 H269 0.930 . S
H268 C261 0.930 . S
H269 C267 0.930 . S
H270 C258 0.930 . S
H271 C259 0.930 . S
H272 C265 0.929 . S
H273 C287 0.930 . S
H274 C266 0.930 . S
H275 C293 0.930 . S
H276 C284 0.929 . S
H277 C291 0.930 . S
H278 C255 0.931 . S
H279 C285 0.930 . S
H280 C318 0.930 . S
H281 C262 0.930 . S
H282 C317 0.931 . S
N283 Eu252 2.657 . S
N283 C284 1.334 . S
N283 C288 1.362 . S
C284 H276 0.929 . S
C284 N283 1.334 . S
C284 C287 1.413 . S
C285 H279 0.930 . S
C285 C286 1.392 . S
C285 C287 1.367 . S
C286 C285 1.392 . S
C286 C288 1.420 . S
C286 C318 1.423 . S
C287 H273 0.930 . S
C287 C284 1.413 . S
C287 C285 1.367 . S
C288 N283 1.362 . S
C288 C286 1.420 . S
C288 C292 1.429 . S
H289 C294 0.930 . S
N290 Eu252 2.609 . S
N290 C292 1.377 . S
N290 C293 1.321 . S
C291 H277 0.930 . S
C291 C293 1.400 . S
C291 C294 1.386 . S
C292 C288 1.429 . S
C292 N290 1.377 . S
C292 C295 1.411 . S
C293 H275 0.930 . S
C293 N290 1.321 . S
C293 C291 1.400 . S
C294 H289 0.930 . S
C294 C291 1.386 . S
C294 C295 1.395 . S
C295 C292 1.411 . S
C295 C294 1.395 . S
C295 C317 1.420 . S
O296 Eu252 2.558 . S
O296 C316 1.257 . S
O297 Eu252 2.612 . S
O297 Eu263 2.380 . S
O297 C308 1.276 . S
O298 Eu263 2.432 . S
O298 C315 1.264 . S
O299 Eu252 2.339 . S
O299 C315 1.254 . S
O300 Eu252 2.563 . S
O300 C308 1.235 . S
O301 Eu252 2.419 . S
O301 C316 1.249 . S
O302 Eu263 2.558 . S
O302 C327 1.257 . S
O303 Eu252 2.380 . S
O303 Eu263 2.612 . S
O303 C319 1.276 . S
O304 Eu252 2.432 . S
O304 C326 1.264 . S
O305 Eu263 2.339 . S
O305 C326 1.254 . S
O306 Eu263 2.563 . S
O306 C319 1.235 . S
O307 Eu263 2.419 . S
O307 C327 1.249 . S
C308 O297 1.276 . S
C308 O300 1.235 . S
C309 C311 1.393 . S
C309 C313 1.395 . S
C309 C316 1.492 . S
C310 C311 1.392 . S
C310 C312 1.386 . S
C311 C309 1.393 . S
C311 C310 1.392 . S
C311 H328 0.930 . S
C312 C310 1.386 . S
C312 C314 1.395 . S
C312 H329 0.930 . S
C313 C309 1.395 . S
C313 C314 1.379 . S
C313 H330 0.930 . S
C314 C312 1.395 . S
C314 C313 1.379 . S
C314 H331 0.930 . S
C315 O298 1.264 . S
C315 O299 1.254 . S
C316 Eu252 2.848 . S
C316 O296 1.257 . S
C316 O301 1.249 . S
C316 C309 1.492 . S
C317 H282 0.931 . S
C317 C295 1.420 . S
C317 C318 1.351 . S
C318 H280 0.930 . S
C318 C286 1.423 . S
C318 C317 1.351 . S
C319 O303 1.276 . S
C319 O306 1.235 . S
C320 C321 1.393 . S
C320 C324 1.395 . S
C320 C327 1.492 . S
C321 C320 1.393 . S
C321 C322 1.392 . S
C321 H332 0.930 . S
C322 C321 1.392 . S
C322 C323 1.386 . S
C323 C322 1.386 . S
C323 C325 1.395 . S
C323 H333 0.930 . S
C324 C320 1.395 . S
C324 C325 1.379 . S
C324 H334 0.930 . S
C325 C323 1.395 . S
C325 C324 1.379 . S
C325 H335 0.930 . S
C326 O304 1.264 . S
C326 O305 1.254 . S
C327 Eu263 2.848 . S
C327 O302 1.257 . S
C327 O307 1.249 . S
C327 C320 1.492 . S
H328 C311 0.930 . S
H329 C312 0.930 . S
H330 C313 0.930 . S
H331 C314 0.930 . S
H332 C321 0.930 . S
H333 C323 0.930 . S
H334 C324 0.930 . S
H335 C325 0.930 . S
Eu336 N367 2.657 . S
Eu336 N374 2.609 . S
Eu336 O380 2.558 . S
Eu336 O381 2.612 . S
Eu336 O383 2.339 . S
Eu336 O384 2.563 . S
Eu336 O385 2.419 . S
Eu336 O387 2.380 . S
Eu336 O388 2.432 . S
Eu336 C400 2.848 . S
C337 C340 1.429 . S
C337 C341 1.411 . S
C337 N344 1.377 . S
C338 C340 1.420 . S
C338 C342 1.423 . S
C338 C350 1.392 . S
C339 C341 1.420 . S
C339 C342 1.351 . S
C339 H362 0.931 . S
C340 C337 1.429 . S
C340 C338 1.420 . S
C340 N348 1.362 . S
C341 C337 1.411 . S
C341 C339 1.420 . S
C341 C346 1.395 . S
C342 C338 1.423 . S
C342 C339 1.351 . S
C342 H354 0.930 . S
C343 C345 1.400 . S
C343 C346 1.386 . S
C343 H355 0.930 . S
N344 C337 1.377 . S
N344 C345 1.321 . S
N344 Eu347 2.609 . S
C345 C343 1.400 . S
C345 N344 1.321 . S
C345 H352 0.930 . S
C346 C341 1.395 . S
C346 C343 1.386 . S
C346 H365 0.930 . S
Eu347 N344 2.609 . S
Eu347 N348 2.657 . S
Eu347 O381 2.380 . S
Eu347 O382 2.432 . S
Eu347 O386 2.558 . S
Eu347 O387 2.612 . S
Eu347 O389 2.339 . S
Eu347 O390 2.563 . S
Eu347 O391 2.419 . S
Eu347 C411 2.848 . S
N348 C340 1.362 . S
N348 Eu347 2.657 . S
N348 C349 1.334 . S
C349 N348 1.334 . S
C349 C351 1.413 . S
C349 H356 0.929 . S
C350 C338 1.392 . S
C350 C351 1.367 . S
C350 H358 0.930 . S
C351 C349 1.413 . S
C351 C350 1.367 . S
C351 H353 0.930 . S
H352 C345 0.930 . S
H353 C351 0.930 . S
H354 C342 0.930 . S
H355 C343 0.930 . S
H356 C349 0.929 . S
H357 C371 0.930 . S
H358 C350 0.930 . S
H359 C377 0.930 . S
H360 C368 0.929 . S
H361 C375 0.930 . S
H362 C339 0.931 . S
H363 C369 0.930 1_556 S
H364 C402 0.930 1_556 S
H365 C346 0.930 . S
H366 C401 0.931 . S
N367 Eu336 2.657 . S
N367 C368 1.334 . S
N367 C372 1.362 . S
C368 H360 0.929 . S
C368 N367 1.334 . S
C368 C371 1.413 . S
C369 H363 0.930 1_554 S
C369 C370 1.392 . S
C369 C371 1.367 . S
C370 C369 1.392 . S
C370 C372 1.420 . S
C370 C402 1.423 . S
C371 H357 0.930 . S
C371 C368 1.413 . S
C371 C369 1.367 . S
C372 N367 1.362 . S
C372 C370 1.420 . S
C372 C376 1.429 . S
H373 C378 0.930 . S
N374 Eu336 2.609 . S
N374 C376 1.377 . S
N374 C377 1.321 . S
C375 H361 0.930 . S
C375 C377 1.400 . S
C375 C378 1.386 . S
C376 C372 1.429 . S
C376 N374 1.377 . S
C376 C379 1.411 . S
C377 H359 0.930 . S
C377 N374 1.321 . S
C377 C375 1.400 . S
C378 H373 0.930 . S
C378 C375 1.386 . S
C378 C379 1.395 . S
C379 C376 1.411 . S
C379 C378 1.395 . S
C379 C401 1.420 . S
O380 Eu336 2.558 . S
O380 C400 1.257 . S
O381 Eu336 2.612 . S
O381 Eu347 2.380 . S
O381 C392 1.276 . S
O382 Eu347 2.432 . S
O382 C399 1.264 . S
O383 Eu336 2.339 . S
O383 C399 1.254 . S
O384 Eu336 2.563 . S
O384 C392 1.235 . S
O385 Eu336 2.419 . S
O385 C400 1.249 . S
O386 Eu347 2.558 . S
O386 C411 1.257 . S
O387 Eu336 2.380 . S
O387 Eu347 2.612 . S
O387 C403 1.276 . S
O388 Eu336 2.432 . S
O388 C410 1.264 . S
O389 Eu347 2.339 . S
O389 C410 1.254 . S
O390 Eu347 2.563 . S
O390 C403 1.235 . S
O391 Eu347 2.419 . S
O391 C411 1.249 . S
C392 O381 1.276 . S
C392 O384 1.235 . S
C393 C395 1.393 . S
C393 C397 1.395 . S
C393 C400 1.492 . S
C394 C395 1.392 . S
C394 C396 1.386 . S
C395 C393 1.393 . S
C395 C394 1.392 . S
C395 H412 0.930 . S
C396 C394 1.386 . S
C396 C398 1.395 . S
C396 H413 0.930 . S
C397 C393 1.395 . S
C397 C398 1.379 . S
C397 H414 0.930 . S
C398 C396 1.395 . S
C398 C397 1.379 . S
C398 H415 0.930 . S
C399 O382 1.264 . S
C399 O383 1.254 . S
C400 Eu336 2.848 . S
C400 O380 1.257 . S
C400 O385 1.249 . S
C400 C393 1.492 . S
C401 H366 0.931 . S
C401 C379 1.420 . S
C401 C402 1.351 . S
C402 H364 0.930 1_554 S
C402 C370 1.423 . S
C402 C401 1.351 . S
C403 O387 1.276 . S
C403 O390 1.235 . S
C404 C405 1.393 . S
C404 C408 1.395 . S
C404 C411 1.492 . S
C405 C404 1.393 . S
C405 C406 1.392 . S
C405 H416 0.930 . S
C406 C405 1.392 . S
C406 C407 1.386 . S
C407 C406 1.386 . S
C407 C409 1.395 . S
C407 H417 0.930 . S
C408 C404 1.395 . S
C408 C409 1.379 . S
C408 H418 0.930 . S
C409 C407 1.395 . S
C409 C408 1.379 . S
C409 H419 0.930 . S
C410 O388 1.264 . S
C410 O389 1.254 . S
C411 Eu347 2.848 . S
C411 O386 1.257 . S
C411 O391 1.249 . S
C411 C404 1.492 . S
H412 C395 0.930 . S
H413 C396 0.930 . S
H414 C397 0.930 . S
H415 C398 0.930 . S
H416 C405 0.930 . S
H417 C407 0.930 . S
H418 C408 0.930 . S
H419 C409 0.930 . S
Eu420 N451 2.657 . S
Eu420 N458 2.609 . S
Eu420 O464 2.558 . S
Eu420 O465 2.612 . S
Eu420 O467 2.339 . S
Eu420 O468 2.563 . S
Eu420 O469 2.419 . S
Eu420 O471 2.380 . S
Eu420 O472 2.432 . S
Eu420 C484 2.848 . S
C421 C424 1.429 . S
C421 C425 1.411 . S
C421 N428 1.377 . S
C422 C424 1.420 . S
C422 C426 1.423 . S
C422 C434 1.392 . S
C423 C425 1.420 . S
C423 C426 1.351 . S
C423 H446 0.931 . S
C424 C421 1.429 . S
C424 C422 1.420 . S
C424 N432 1.362 . S
C425 C421 1.411 . S
C425 C423 1.420 . S
C425 C430 1.395 . S
C426 C422 1.423 . S
C426 C423 1.351 . S
C426 H438 0.930 . S
C427 C429 1.400 . S
C427 C430 1.386 . S
C427 H439 0.930 . S
N428 C421 1.377 . S
N428 C429 1.321 . S
N428 Eu431 2.609 . S
C429 C427 1.400 . S
C429 N428 1.321 . S
C429 H436 0.930 . S
C430 C425 1.395 . S
C430 C427 1.386 . S
C430 H449 0.930 . S
Eu431 N428 2.609 . S
Eu431 N432 2.657 . S
Eu431 O465 2.380 . S
Eu431 O466 2.432 . S
Eu431 O470 2.558 . S
Eu431 O471 2.612 . S
Eu431 O473 2.339 . S
Eu431 O474 2.563 . S
Eu431 O475 2.419 . S
Eu431 C495 2.848 . S
N432 C424 1.362 . S
N432 Eu431 2.657 . S
N432 C433 1.334 . S
C433 N432 1.334 . S
C433 C435 1.413 . S
C433 H440 0.929 . S
C434 C422 1.392 . S
C434 C435 1.367 . S
C434 H442 0.930 . S
C435 C433 1.413 . S
C435 C434 1.367 . S
C435 H437 0.930 . S
H436 C429 0.930 . S
H437 C435 0.930 . S
H438 C426 0.930 . S
H439 C427 0.930 . S
H440 C433 0.929 . S
H441 C455 0.930 . S
H442 C434 0.930 . S
H443 C461 0.930 . S
H444 C452 0.929 . S
H445 C459 0.930 1_556 S
H446 C423 0.931 . S
H447 C453 0.930 . S
H448 C486 0.930 . S
H449 C430 0.930 . S
H450 C485 0.931 . S
N451 Eu420 2.657 . S
N451 C452 1.334 . S
N451 C456 1.362 . S
C452 H444 0.929 . S
C452 N451 1.334 . S
C452 C455 1.413 . S
C453 H447 0.930 . S
C453 C454 1.392 . S
C453 C455 1.367 . S
C454 C453 1.392 . S
C454 C456 1.420 . S
C454 C486 1.423 . S
C455 H441 0.930 . S
C455 C452 1.413 . S
C455 C453 1.367 . S
C456 N451 1.362 . S
C456 C454 1.420 . S
C456 C460 1.429 . S
H457 C462 0.930 . S
N458 Eu420 2.609 . S
N458 C460 1.377 . S
N458 C461 1.321 . S
C459 H445 0.930 1_554 S
C459 C461 1.400 . S
C459 C462 1.386 . S
C460 C456 1.429 . S
C460 N458 1.377 . S
C460 C463 1.411 . S
C461 H443 0.930 . S
C461 N458 1.321 . S
C461 C459 1.400 . S
C462 H457 0.930 . S
C462 C459 1.386 . S
C462 C463 1.395 . S
C463 C460 1.411 . S
C463 C462 1.395 . S
C463 C485 1.420 . S
O464 Eu420 2.558 . S
O464 C484 1.257 . S
O465 Eu420 2.612 . S
O465 Eu431 2.380 . S
O465 C476 1.276 . S
O466 Eu431 2.432 . S
O466 C483 1.264 . S
O467 Eu420 2.339 . S
O467 C483 1.254 . S
O468 Eu420 2.563 . S
O468 C476 1.235 . S
O469 Eu420 2.419 . S
O469 C484 1.249 . S
O470 Eu431 2.558 . S
O470 C495 1.257 . S
O471 Eu420 2.380 . S
O471 Eu431 2.612 . S
O471 C487 1.276 . S
O472 Eu420 2.432 . S
O472 C494 1.264 . S
O473 Eu431 2.339 . S
O473 C494 1.254 . S
O474 Eu431 2.563 . S
O474 C487 1.235 . S
O475 Eu431 2.419 . S
O475 C495 1.249 . S
C476 O465 1.276 . S
C476 O468 1.235 . S
C477 C479 1.393 . S
C477 C481 1.395 . S
C477 C484 1.492 . S
C478 C479 1.392 . S
C478 C480 1.386 . S
C479 C477 1.393 . S
C479 C478 1.392 . S
C479 H496 0.930 . S
C480 C478 1.386 . S
C480 C482 1.395 . S
C480 H497 0.930 . S
C481 C477 1.395 . S
C481 C482 1.379 . S
C481 H498 0.930 . S
C482 C480 1.395 . S
C482 C481 1.379 . S
C482 H499 0.930 . S
C483 O466 1.264 . S
C483 O467 1.254 . S
C484 Eu420 2.848 . S
C484 O464 1.257 . S
C484 O469 1.249 . S
C484 C477 1.492 . S
C485 H450 0.931 . S
C485 C463 1.420 . S
C485 C486 1.351 . S
C486 H448 0.930 . S
C486 C454 1.423 . S
C486 C485 1.351 . S
C487 O471 1.276 . S
C487 O474 1.235 . S
C488 C489 1.393 . S
C488 C492 1.395 . S
C488 C495 1.492 . S
C489 C488 1.393 . S
C489 C490 1.392 . S
C489 H500 0.930 . S
C490 C489 1.392 . S
C490 C491 1.386 . S
C491 C490 1.386 . S
C491 C493 1.395 . S
C491 H501 0.930 . S
C492 C488 1.395 . S
C492 C493 1.379 . S
C492 H502 0.930 . S
C493 C491 1.395 . S
C493 C492 1.379 . S
C493 H503 0.930 . S
C494 O472 1.264 . S
C494 O473 1.254 . S
C495 Eu431 2.848 . S
C495 O470 1.257 . S
C495 O475 1.249 . S
C495 C488 1.492 . S
H496 C479 0.930 . S
H497 C480 0.930 . S
H498 C481 0.930 . S
H499 C482 0.930 . S
H500 C489 0.930 . S
H501 C491 0.930 . S
H502 C492 0.930 . S
H503 C493 0.930 . S
Eu504 N535 2.657 . S
Eu504 N542 2.609 . S
Eu504 O548 2.558 . S
Eu504 O549 2.612 . S
Eu504 O551 2.339 . S
Eu504 O552 2.563 . S
Eu504 O553 2.419 . S
Eu504 O555 2.380 . S
Eu504 O556 2.432 . S
Eu504 C568 2.848 . S
C505 C508 1.429 . S
C505 C509 1.411 . S
C505 N512 1.377 . S
C506 C508 1.420 . S
C506 C510 1.423 . S
C506 C518 1.392 . S
C507 C509 1.420 . S
C507 C510 1.351 . S
C507 H530 0.931 . S
C508 C505 1.429 . S
C508 C506 1.420 . S
C508 N516 1.362 . S
C509 C505 1.411 . S
C509 C507 1.420 . S
C509 C514 1.395 . S
C510 C506 1.423 . S
C510 C507 1.351 . S
C510 H522 0.930 . S
C511 C513 1.400 . S
C511 C514 1.386 . S
C511 H523 0.930 . S
N512 C505 1.377 . S
N512 C513 1.321 . S
N512 Eu515 2.609 . S
C513 C511 1.400 . S
C513 N512 1.321 . S
C513 H520 0.930 . S
C514 C509 1.395 . S
C514 C511 1.386 . S
C514 H533 0.930 . S
Eu515 N512 2.609 . S
Eu515 N516 2.657 . S
Eu515 O549 2.380 . S
Eu515 O550 2.432 . S
Eu515 O554 2.558 . S
Eu515 O555 2.612 . S
Eu515 O557 2.339 . S
Eu515 O558 2.563 . S
Eu515 O559 2.419 . S
Eu515 C579 2.848 . S
N516 C508 1.362 . S
N516 Eu515 2.657 . S
N516 C517 1.334 . S
C517 N516 1.334 . S
C517 C519 1.413 . S
C517 H524 0.929 . S
C518 C506 1.392 . S
C518 C519 1.367 . S
C518 H526 0.930 . S
C519 C517 1.413 . S
C519 C518 1.367 . S
C519 H521 0.930 . S
H520 C513 0.930 . S
H521 C519 0.930 . S
H522 C510 0.930 . S
H523 C511 0.930 . S
H524 C517 0.929 . S
H525 C539 0.930 . S
H526 C518 0.930 . S
H527 C545 0.930 . S
H528 C536 0.929 . S
H529 C543 0.930 . S
H530 C507 0.931 . S
H531 C537 0.930 . S
H532 C570 0.930 . S
H533 C514 0.930 . S
H534 C569 0.931 . S
N535 Eu504 2.657 . S
N535 C536 1.334 . S
N535 C540 1.362 . S
C536 H528 0.929 . S
C536 N535 1.334 . S
C536 C539 1.413 . S
C537 H531 0.930 . S
C537 C538 1.392 . S
C537 C539 1.367 . S
C538 C537 1.392 . S
C538 C540 1.420 . S
C538 C570 1.423 . S
C539 H525 0.930 . S
C539 C536 1.413 . S
C539 C537 1.367 . S
C540 N535 1.362 . S
C540 C538 1.420 . S
C540 C544 1.429 . S
H541 C546 0.930 . S
N542 Eu504 2.609 . S
N542 C544 1.377 . S
N542 C545 1.321 . S
C543 H529 0.930 . S
C543 C545 1.400 . S
C543 C546 1.386 . S
C544 C540 1.429 . S
C544 N542 1.377 . S
C544 C547 1.411 . S
C545 H527 0.930 . S
C545 N542 1.321 . S
C545 C543 1.400 . S
C546 H541 0.930 . S
C546 C543 1.386 . S
C546 C547 1.395 . S
C547 C544 1.411 . S
C547 C546 1.395 . S
C547 C569 1.420 . S
O548 Eu504 2.558 . S
O548 C568 1.257 . S
O549 Eu504 2.612 . S
O549 Eu515 2.380 . S
O549 C560 1.276 . S
O550 Eu515 2.432 . S
O550 C567 1.264 . S
O551 Eu504 2.339 . S
O551 C567 1.254 . S
O552 Eu504 2.563 . S
O552 C560 1.235 . S
O553 Eu504 2.419 . S
O553 C568 1.249 . S
O554 Eu515 2.558 . S
O554 C579 1.257 . S
O555 Eu504 2.380 . S
O555 Eu515 2.612 . S
O555 C571 1.276 . S
O556 Eu504 2.432 . S
O556 C578 1.264 . S
O557 Eu515 2.339 . S
O557 C578 1.254 . S
O558 Eu515 2.563 . S
O558 C571 1.235 . S
O559 Eu515 2.419 . S
O559 C579 1.249 . S
C560 O549 1.276 . S
C560 O552 1.235 . S
C561 C563 1.393 . S
C561 C565 1.395 . S
C561 C568 1.492 . S
C562 C563 1.392 . S
C562 C564 1.386 . S
C563 C561 1.393 . S
C563 C562 1.392 . S
C563 H580 0.930 . S
C564 C562 1.386 . S
C564 C566 1.395 . S
C564 H581 0.930 . S
C565 C561 1.395 . S
C565 C566 1.379 . S
C565 H582 0.930 . S
C566 C564 1.395 . S
C566 C565 1.379 . S
C566 H583 0.930 . S
C567 O550 1.264 . S
C567 O551 1.254 . S
C568 Eu504 2.848 . S
C568 O548 1.257 . S
C568 O553 1.249 . S
C568 C561 1.492 . S
C569 H534 0.931 . S
C569 C547 1.420 . S
C569 C570 1.351 . S
C570 H532 0.930 . S
C570 C538 1.423 . S
C570 C569 1.351 . S
C571 O555 1.276 . S
C571 O558 1.235 . S
C572 C573 1.393 . S
C572 C576 1.395 . S
C572 C579 1.492 . S
C573 C572 1.393 . S
C573 C574 1.392 . S
C573 H584 0.930 . S
C574 C573 1.392 . S
C574 C575 1.386 . S
C575 C574 1.386 . S
C575 C577 1.395 . S
C575 H585 0.930 . S
C576 C572 1.395 . S
C576 C577 1.379 . S
C576 H586 0.930 . S
C577 C575 1.395 . S
C577 C576 1.379 . S
C577 H587 0.930 . S
C578 O556 1.264 . S
C578 O557 1.254 . S
C579 Eu515 2.848 . S
C579 O554 1.257 . S
C579 O559 1.249 . S
C579 C572 1.492 . S
H580 C563 0.930 . S
H581 C564 0.930 . S
H582 C565 0.930 . S
H583 C566 0.930 . S
H584 C573 0.930 . S
H585 C575 0.930 . S
H586 C576 0.930 . S
H587 C577 0.930 . S
Eu588 N619 2.657 . S
Eu588 N626 2.609 . S
Eu588 O632 2.558 . S
Eu588 O633 2.612 . S
Eu588 O635 2.339 . S
Eu588 O636 2.563 . S
Eu588 O637 2.419 . S
Eu588 O639 2.380 . S
Eu588 O640 2.432 . S
Eu588 C652 2.848 . S
C589 C592 1.429 . S
C589 C593 1.411 . S
C589 N596 1.377 . S
C590 C592 1.420 . S
C590 C594 1.423 . S
C590 C602 1.392 . S
C591 C593 1.420 . S
C591 C594 1.351 . S
C591 H614 0.931 . S
C592 C589 1.429 . S
C592 C590 1.420 . S
C592 N600 1.362 . S
C593 C589 1.411 . S
C593 C591 1.420 . S
C593 C598 1.395 . S
C594 C590 1.423 . S
C594 C591 1.351 . S
C594 H606 0.930 . S
C595 C597 1.400 . S
C595 C598 1.386 . S
C595 H607 0.930 . S
N596 C589 1.377 . S
N596 C597 1.321 . S
N596 Eu599 2.609 . S
C597 C595 1.400 . S
C597 N596 1.321 . S
C597 H604 0.930 . S
C598 C593 1.395 . S
C598 C595 1.386 . S
C598 H617 0.930 . S
Eu599 N596 2.609 . S
Eu599 N600 2.657 . S
Eu599 O633 2.380 . S
Eu599 O634 2.432 . S
Eu599 O638 2.558 . S
Eu599 O639 2.612 . S
Eu599 O641 2.339 . S
Eu599 O642 2.563 . S
Eu599 O643 2.419 . S
Eu599 C663 2.848 . S
N600 C592 1.362 . S
N600 Eu599 2.657 . S
N600 C601 1.334 . S
C601 N600 1.334 . S
C601 C603 1.413 . S
C601 H608 0.929 . S
C602 C590 1.392 . S
C602 C603 1.367 . S
C602 H610 0.930 . S
C603 C601 1.413 . S
C603 C602 1.367 . S
C603 H605 0.930 . S
H604 C597 0.930 . S
H605 C603 0.930 . S
H606 C594 0.930 . S
H607 C595 0.930 . S
H608 C601 0.929 . S
H609 C623 0.930 . S
H610 C602 0.930 . S
H611 C629 0.930 . S
H612 C620 0.929 . S
H613 C627 0.930 . S
H614 C591 0.931 . S
H615 C621 0.930 . S
H616 C654 0.930 . S
H617 C598 0.930 . S
H618 C653 0.931 . S
N619 Eu588 2.657 . S
N619 C620 1.334 . S
N619 C624 1.362 . S
C620 H612 0.929 . S
C620 N619 1.334 . S
C620 C623 1.413 1_655 S
C621 H615 0.930 . S
C621 C622 1.392 . S
C621 C623 1.367 . S
C622 C621 1.392 . S
C622 C624 1.420 1_455 S
C622 C654 1.423 . S
C623 H609 0.930 . S
C623 C620 1.413 1_455 S
C623 C621 1.367 . S
C624 N619 1.362 . S
C624 C622 1.420 1_655 S
C624 C628 1.429 . S
H625 C630 0.930 . S
N626 Eu588 2.609 . S
N626 C628 1.377 . S
N626 C629 1.321 . S
C627 H613 0.930 . S
C627 C629 1.400 . S
C627 C630 1.386 . S
C628 C624 1.429 . S
C628 N626 1.377 . S
C628 C631 1.411 . S
C629 H611 0.930 . S
C629 N626 1.321 . S
C629 C627 1.400 . S
C630 H625 0.930 . S
C630 C627 1.386 . S
C630 C631 1.395 . S
C631 C628 1.411 . S
C631 C630 1.395 . S
C631 C653 1.420 1_655 S
O632 Eu588 2.558 . S
O632 C652 1.257 . S
O633 Eu588 2.612 . S
O633 Eu599 2.380 . S
O633 C644 1.276 . S
O634 Eu599 2.432 . S
O634 C651 1.264 . S
O635 Eu588 2.339 . S
O635 C651 1.254 . S
O636 Eu588 2.563 . S
O636 C644 1.235 . S
O637 Eu588 2.419 . S
O637 C652 1.249 . S
O638 Eu599 2.558 . S
O638 C663 1.257 . S
O639 Eu588 2.380 . S
O639 Eu599 2.612 . S
O639 C655 1.276 . S
O640 Eu588 2.432 . S
O640 C662 1.264 . S
O641 Eu599 2.339 . S
O641 C662 1.254 . S
O642 Eu599 2.563 . S
O642 C655 1.235 . S
O643 Eu599 2.419 . S
O643 C663 1.249 . S
C644 O633 1.276 . S
C644 O636 1.235 . S
C645 C647 1.393 . S
C645 C649 1.395 . S
C645 C652 1.492 . S
C646 C647 1.392 1_554 S
C646 C648 1.386 . S
C647 C645 1.393 . S
C647 C646 1.392 1_556 S
C647 H664 0.930 . S
C648 C646 1.386 . S
C648 C650 1.395 1_554 S
C648 H665 0.930 . S
C649 C645 1.395 . S
C649 C650 1.379 . S
C649 H666 0.930 . S
C650 C648 1.395 1_556 S
C650 C649 1.379 . S
C650 H667 0.930 1_556 S
C651 O634 1.264 . S
C651 O635 1.254 . S
C652 Eu588 2.848 . S
C652 O632 1.257 . S
C652 O637 1.249 . S
C652 C645 1.492 . S
C653 H618 0.931 . S
C653 C631 1.420 1_455 S
C653 C654 1.351 . S
C654 H616 0.930 . S
C654 C622 1.423 . S
C654 C653 1.351 . S
C655 O639 1.276 . S
C655 O642 1.235 . S
C656 C657 1.393 . S
C656 C660 1.395 . S
C656 C663 1.492 . S
C657 C656 1.393 . S
C657 C658 1.392 . S
C657 H668 0.930 . S
C658 C657 1.392 . S
C658 C659 1.386 . S
C659 C658 1.386 . S
C659 C661 1.395 . S
C659 H669 0.930 . S
C660 C656 1.395 . S
C660 C661 1.379 . S
C660 H670 0.930 . S
C661 C659 1.395 . S
C661 C660 1.379 . S
C661 H671 0.930 . S
C662 O640 1.264 . S
C662 O641 1.254 . S
C663 Eu599 2.848 . S
C663 O638 1.257 . S
C663 O643 1.249 . S
C663 C656 1.492 . S
H664 C647 0.930 . S
H665 C648 0.930 . S
H666 C649 0.930 . S
H667 C650 0.930 1_554 S
H668 C657 0.930 . S
H669 C659 0.930 . S
H670 C660 0.930 . S
H671 C661 0.930 . S
Eu672 N703 2.657 . S
Eu672 N710 2.609 . S
Eu672 O716 2.558 . S
Eu672 O717 2.612 . S
Eu672 O719 2.339 . S
Eu672 O720 2.563 . S
Eu672 O721 2.419 . S
Eu672 O723 2.380 . S
Eu672 O724 2.432 . S
Eu672 C736 2.848 . S
C673 C676 1.429 . S
C673 C677 1.411 . S
C673 N680 1.377 . S
C674 C676 1.420 . S
C674 C678 1.423 . S
C674 C686 1.392 . S
C675 C677 1.420 . S
C675 C678 1.351 . S
C675 H698 0.931 . S
C676 C673 1.429 . S
C676 C674 1.420 . S
C676 N684 1.362 . S
C677 C673 1.411 . S
C677 C675 1.420 . S
C677 C682 1.395 . S
C678 C674 1.423 . S
C678 C675 1.351 . S
C678 H690 0.935 1_655 S
C679 C681 1.400 . S
C679 C682 1.386 . S
C679 H691 0.930 . S
N680 C673 1.377 . S
N680 C681 1.321 . S
N680 Eu683 2.609 . S
C681 C679 1.400 . S
C681 N680 1.321 . S
C681 H688 0.930 . S
C682 C677 1.395 . S
C682 C679 1.386 . S
C682 H701 0.930 . S
Eu683 N680 2.609 . S
Eu683 N684 2.657 . S
Eu683 O717 2.380 . S
Eu683 O718 2.432 . S
Eu683 O722 2.558 . S
Eu683 O723 2.612 . S
Eu683 O725 2.339 . S
Eu683 O726 2.563 . S
Eu683 O727 2.419 . S
Eu683 C747 2.846 . S
N684 C676 1.362 . S
N684 Eu683 2.657 . S
N684 C685 1.334 . S
C685 N684 1.334 . S
C685 C687 1.413 . S
C685 H692 0.929 . S
C686 C674 1.392 . S
C686 C687 1.367 . S
C686 H694 0.930 . S
C687 C685 1.413 . S
C687 C686 1.367 . S
C687 H689 0.930 . S
H688 C681 0.930 . S
H689 C687 0.930 . S
H690 C678 0.935 1_455 S
H691 C679 0.930 . S
H692 C685 0.929 . S
H693 C707 0.930 . S
H694 C686 0.930 . S
H695 C713 0.930 . S
H696 C704 0.929 . S
H697 C711 0.930 . S
H698 C675 0.931 . S
H699 C705 0.930 . S
H700 C738 0.930 . S
H701 C682 0.930 . S
H702 C737 0.931 . S
N703 Eu672 2.657 . S
N703 C704 1.334 . S
N703 C708 1.362 . S
C704 H696 0.929 . S
C704 N703 1.334 . S
C704 C707 1.413 . S
C705 H699 0.930 . S
C705 C706 1.392 . S
C705 C707 1.367 . S
C706 C705 1.392 . S
C706 C708 1.420 . S
C706 C738 1.423 . S
C707 H693 0.930 . S
C707 C704 1.413 . S
C707 C705 1.367 . S
C708 N703 1.362 . S
C708 C706 1.420 . S
C708 C712 1.429 . S
H709 C714 0.930 . S
N710 Eu672 2.609 . S
N710 C712 1.377 . S
N710 C713 1.321 . S
C711 H697 0.930 . S
C711 C713 1.400 . S
C711 C714 1.386 . S
C712 C708 1.429 . S
C712 N710 1.377 . S
C712 C715 1.411 . S
C713 H695 0.930 . S
C713 N710 1.321 . S
C713 C711 1.400 . S
C714 H709 0.930 . S
C714 C711 1.386 . S
C714 C715 1.395 . S
C715 C712 1.411 . S
C715 C714 1.395 . S
C715 C737 1.420 . S
O716 Eu672 2.558 . S
O716 C736 1.257 . S
O717 Eu672 2.612 . S
O717 Eu683 2.380 . S
O717 C728 1.276 . S
O718 Eu683 2.432 . S
O718 C735 1.264 . S
O719 Eu672 2.339 . S
O719 C735 1.254 . S
O720 Eu672 2.563 . S
O720 C728 1.235 . S
O721 Eu672 2.419 . S
O721 C736 1.249 . S
O722 Eu683 2.558 . S
O722 C747 1.256 . S
O723 Eu672 2.380 . S
O723 Eu683 2.612 . S
O723 C739 1.276 . S
O724 Eu672 2.432 . S
O724 C746 1.264 . S
O725 Eu683 2.339 . S
O725 C746 1.254 . S
O726 Eu683 2.563 . S
O726 C739 1.235 . S
O727 Eu683 2.419 . S
O727 C747 1.248 . S
C728 O717 1.276 . S
C728 O720 1.235 . S
C729 C731 1.393 . S
C729 C733 1.395 . S
C729 C736 1.492 . S
C730 C731 1.392 . S
C730 C732 1.386 . S
C731 C729 1.393 . S
C731 C730 1.392 . S
C731 H748 0.930 . S
C732 C730 1.386 . S
C732 C734 1.395 . S
C732 H749 0.930 . S
C733 C729 1.395 . S
C733 C734 1.379 . S
C733 H750 0.930 . S
C734 C732 1.395 . S
C734 C733 1.379 . S
C734 H751 0.930 . S
C735 O718 1.264 . S
C735 O719 1.254 . S
C736 Eu672 2.848 . S
C736 O716 1.257 . S
C736 O721 1.249 . S
C736 C729 1.492 . S
C737 H702 0.931 . S
C737 C715 1.420 . S
C737 C738 1.351 . S
C738 H700 0.930 . S
C738 C706 1.423 . S
C738 C737 1.351 . S
C739 O723 1.276 . S
C739 O726 1.235 . S
C740 C741 1.393 . S
C740 C744 1.395 . S
C740 C747 1.494 1_554 S
C741 C740 1.393 . S
C741 C742 1.392 . S
C741 H752 0.930 . S
C742 C741 1.392 . S
C742 C743 1.386 . S
C743 C742 1.386 . S
C743 C745 1.395 . S
C743 H753 0.930 . S
C744 C740 1.395 . S
C744 C745 1.379 . S
C744 H754 0.930 . S
C745 C743 1.395 . S
C745 C744 1.379 . S
C745 H755 0.930 . S
C746 O724 1.264 . S
C746 O725 1.254 . S
C747 Eu683 2.846 . S
C747 O722 1.256 . S
C747 O727 1.248 . S
C747 C740 1.494 1_556 S
H748 C731 0.930 . S
H749 C732 0.930 . S
H750 C733 0.930 . S
H751 C734 0.930 . S
H752 C741 0.930 . S
H753 C743 0.930 . S
H754 C744 0.930 . S
H755 C745 0.930 . S
H756 C764 0.929 . S
H757 C766 0.930 . S
H758 C768 0.930 . S
H759 C771 0.929 . S
H760 C774 0.930 . S
H761 C776 0.980 . S
H762 C776 0.966 1_455 S
H763 C776 0.968 . S
C764 H756 0.929 . S
C764 C765 1.377 . S
C764 C766 1.384 . S
C765 C764 1.377 . S
C765 C771 1.390 . S
C766 H757 0.930 . S
C766 C764 1.384 . S
C766 C767 1.372 . S
C767 C766 1.372 . S
C767 C768 1.400 . S
C767 C772 1.490 . S
C768 H758 0.930 . S
C768 C767 1.400 . S
C768 C771 1.386 . S
H769 C785 0.930 . S
H770 C786 0.931 . S
C771 H759 0.929 . S
C771 C765 1.390 . S
C771 C768 1.386 . S
C772 C767 1.490 . S
C772 C774 1.395 . S
C772 C775 1.403 . S
H773 C779 0.930 . S
C774 H760 0.930 . S
C774 C772 1.395 . S
C774 C777 1.403 . S
C775 C772 1.403 . S
C775 C776 1.491 1_455 S
C775 C779 1.400 . S
C776 H761 0.980 . S
C776 H762 0.966 1_655 S
C776 H763 0.968 . S
C776 C775 1.491 1_655 S
C777 C774 1.403 . S
C777 C778 1.392 . S
C777 C781 1.495 . S
C778 C777 1.392 . S
C778 C779 1.385 . S
C778 C780 1.478 . S
C779 H773 0.930 . S
C779 C775 1.400 . S
C779 C778 1.385 . S
C780 C778 1.478 . S
C780 C782 1.381 . S
C780 C786 1.383 . S
C781 C777 1.495 . S
C781 H787 0.959 . S
C781 H788 0.961 . S
C781 H789 0.960 . S
C782 C780 1.381 . S
C782 C783 1.394 . S
C782 H790 0.930 . S
C783 C782 1.394 . S
C783 C784 1.383 . S
C783 H791 0.929 . S
C784 C783 1.383 . S
C784 C785 1.377 . S
C785 H769 0.930 . S
C785 C784 1.377 . S
C785 C786 1.379 . S
C786 H770 0.931 . S
C786 C780 1.383 . S
C786 C785 1.379 . S
H787 C781 0.959 . S
H788 C781 0.961 . S
H789 C781 0.960 . S
H790 C782 0.930 . S
H791 C783 0.929 . S
H792 C800 0.929 . S
H793 C802 0.930 . S
H794 C804 0.930 . S
H795 C807 0.929 . S
H796 C810 0.930 . S
H797 C812 0.960 . S
H798 C812 0.960 . S
H799 C812 0.960 . S
C800 H792 0.929 . S
C800 C801 1.377 . S
C800 C802 1.384 . S
C801 C800 1.377 . S
C801 C807 1.390 . S
C802 H793 0.930 . S
C802 C800 1.384 . S
C802 C803 1.372 . S
C803 C802 1.372 . S
C803 C804 1.400 . S
C803 C808 1.490 . S
C804 H794 0.930 . S
C804 C803 1.400 . S
C804 C807 1.386 . S
H805 C821 0.930 . S
H806 C822 0.931 . S
C807 H795 0.929 . S
C807 C801 1.390 . S
C807 C804 1.386 . S
C808 C803 1.490 . S
C808 C810 1.395 . S
C808 C811 1.403 . S
H809 C815 0.930 . S
C810 H796 0.930 . S
C810 C808 1.395 . S
C810 C813 1.403 . S
C811 C808 1.403 . S
C811 C812 1.524 . S
C811 C815 1.400 . S
C812 H797 0.960 . S
C812 H798 0.960 . S
C812 H799 0.960 . S
C812 C811 1.524 . S
C813 C810 1.403 . S
C813 C814 1.392 . S
C813 C817 1.495 . S
C814 C813 1.392 . S
C814 C815 1.385 . S
C814 C816 1.478 . S
C815 H809 0.930 . S
C815 C811 1.400 . S
C815 C814 1.385 . S
C816 C814 1.478 . S
C816 C818 1.381 . S
C816 C822 1.383 . S
C817 C813 1.495 . S
C817 H823 0.959 . S
C817 H824 0.961 . S
C817 H825 0.960 . S
C818 C816 1.381 . S
C818 C819 1.394 . S
C818 H826 0.930 . S
C819 C818 1.394 . S
C819 C820 1.383 . S
C819 H827 0.929 . S
C820 C819 1.383 . S
C820 C821 1.377 . S
C821 H805 0.930 . S
C821 C820 1.377 . S
C821 C822 1.379 . S
C822 H806 0.931 . S
C822 C816 1.383 . S
C822 C821 1.379 . S
H823 C817 0.959 . S
H824 C817 0.961 . S
H825 C817 0.960 . S
H826 C818 0.930 . S
H827 C819 0.929 . S
H828 C836 0.929 . S
H829 C838 0.930 . S
H830 C840 0.930 . S
H831 C843 0.929 . S
H832 C846 0.930 . S
H833 C848 0.960 . S
H834 C848 0.960 . S
H835 C848 0.960 . S
C836 H828 0.929 . S
C836 C837 1.377 . S
C836 C838 1.384 . S
C837 C836 1.377 . S
C837 C843 1.390 . S
C838 H829 0.930 . S
C838 C836 1.384 . S
C838 C839 1.372 . S
C839 C838 1.372 . S
C839 C840 1.400 . S
C839 C844 1.490 . S
C840 H830 0.930 . S
C840 C839 1.400 . S
C840 C843 1.386 . S
H841 C857 0.930 . S
H842 C858 0.931 . S
C843 H831 0.929 . S
C843 C837 1.390 . S
C843 C840 1.386 . S
C844 C839 1.490 . S
C844 C846 1.395 . S
C844 C847 1.403 . S
H845 C851 0.930 . S
C846 H832 0.930 . S
C846 C844 1.395 . S
C846 C849 1.403 . S
C847 C844 1.403 . S
C847 C848 1.524 . S
C847 C851 1.400 . S
C848 H833 0.960 . S
C848 H834 0.960 . S
C848 H835 0.960 . S
C848 C847 1.524 . S
C849 C846 1.403 . S
C849 C850 1.392 . S
C849 C853 1.495 . S
C850 C849 1.392 . S
C850 C851 1.385 . S
C850 C852 1.478 . S
C851 H845 0.930 . S
C851 C847 1.400 . S
C851 C850 1.385 . S
C852 C850 1.478 . S
C852 C854 1.381 . S
C852 C858 1.383 . S
C853 C849 1.495 . S
C853 H859 0.959 . S
C853 H860 0.961 . S
C853 H861 0.960 . S
C854 C852 1.381 . S
C854 C855 1.394 . S
C854 H862 0.930 . S
C855 C854 1.394 . S
C855 C856 1.383 . S
C855 H863 0.929 . S
C856 C855 1.383 . S
C856 C857 1.377 . S
C857 H841 0.930 . S
C857 C856 1.377 . S
C857 C858 1.379 . S
C858 H842 0.931 . S
C858 C852 1.383 . S
C858 C857 1.379 . S
H859 C853 0.959 . S
H860 C853 0.961 . S
H861 C853 0.960 . S
H862 C854 0.930 . S
H863 C855 0.929 . S
H864 C872 0.929 . S
H865 C874 0.930 . S
H866 C876 0.930 . S
H867 C879 0.929 . S
H868 C882 0.930 . S
H869 C884 0.960 . S
H870 C884 0.960 . S
H871 C884 0.960 . S
C872 H864 0.929 . S
C872 C873 1.377 . S
C872 C874 1.384 . S
C873 C872 1.377 . S
C873 C879 1.390 . S
C874 H865 0.930 . S
C874 C872 1.384 . S
C874 C875 1.372 . S
C875 C874 1.372 . S
C875 C876 1.400 . S
C875 C880 1.490 . S
C876 H866 0.930 . S
C876 C875 1.400 . S
C876 C879 1.386 . S
H877 C893 0.930 1_554 S
H878 C894 0.931 . S
C879 H867 0.929 . S
C879 C873 1.390 . S
C879 C876 1.386 . S
C880 C875 1.490 . S
C880 C882 1.395 . S
C880 C883 1.403 . S
H881 C887 0.930 . S
C882 H868 0.930 . S
C882 C880 1.395 . S
C882 C885 1.403 . S
C883 C880 1.403 . S
C883 C884 1.524 . S
C883 C887 1.400 . S
C884 H869 0.960 . S
C884 H870 0.960 . S
C884 H871 0.960 . S
C884 C883 1.524 . S
C885 C882 1.403 . S
C885 C886 1.392 . S
C885 C889 1.495 . S
C886 C885 1.392 . S
C886 C887 1.385 . S
C886 C888 1.478 . S
C887 H881 0.930 . S
C887 C883 1.400 . S
C887 C886 1.385 . S
C888 C886 1.478 . S
C888 C890 1.381 . S
C888 C894 1.383 . S
C889 C885 1.495 . S
C889 H895 0.959 . S
C889 H896 0.961 . S
C889 H897 0.960 . S
C890 C888 1.381 . S
C890 C891 1.394 . S
C890 H898 0.930 . S
C891 C890 1.394 . S
C891 C892 1.383 1_556 S
C891 H899 0.929 1_556 S
C892 C891 1.383 1_554 S
C892 C893 1.377 1_554 S
C893 H877 0.930 1_556 S
C893 C892 1.377 1_556 S
C893 C894 1.379 . S
C894 H878 0.931 . S
C894 C888 1.383 . S
C894 C893 1.379 . S
H895 C889 0.959 . S
H896 C889 0.961 . S
H897 C889 0.960 . S
H898 C890 0.930 . S
H899 C891 0.929 1_554 S
H900 C908 0.929 . S
H901 C910 0.930 . S
H902 C912 0.930 . S
H903 C915 0.929 . S
H904 C918 0.930 . S
H905 C920 0.960 . S
H906 C920 0.960 . S
H907 C920 0.960 . S
C908 H900 0.929 . S
C908 C909 1.377 . S
C908 C910 1.384 . S
C909 C908 1.377 . S
C909 C915 1.390 . S
C910 H901 0.930 . S
C910 C908 1.384 . S
C910 C911 1.372 . S
C911 C910 1.372 . S
C911 C912 1.400 . S
C911 C916 1.490 . S
C912 H902 0.930 . S
C912 C911 1.400 . S
C912 C915 1.386 . S
H913 C929 0.930 . S
H914 C930 0.931 . S
C915 H903 0.929 . S
C915 C909 1.390 . S
C915 C912 1.386 . S
C916 C911 1.490 . S
C916 C918 1.395 . S
C916 C919 1.403 . S
H917 C923 0.930 . S
C918 H904 0.930 . S
C918 C916 1.395 . S
C918 C921 1.403 . S
C919 C916 1.403 . S
C919 C920 1.524 . S
C919 C923 1.400 . S
C920 H905 0.960 . S
C920 H906 0.960 . S
C920 H907 0.960 . S
C920 C919 1.524 . S
C921 C918 1.403 . S
C921 C922 1.392 . S
C921 C925 1.495 . S
C922 C921 1.392 . S
C922 C923 1.385 . S
C922 C924 1.478 . S
C923 H917 0.930 . S
C923 C919 1.400 . S
C923 C922 1.385 . S
C924 C922 1.478 . S
C924 C926 1.381 . S
C924 C930 1.383 . S
C925 C921 1.495 . S
C925 H931 0.959 . S
C925 H932 0.961 . S
C925 H933 0.960 . S
C926 C924 1.381 . S
C926 C927 1.394 . S
C926 H934 0.930 . S
C927 C926 1.394 . S
C927 C928 1.383 . S
C927 H935 0.929 . S
C928 C927 1.383 . S
C928 C929 1.377 . S
C929 H913 0.930 . S
C929 C928 1.377 . S
C929 C930 1.379 . S
C930 H914 0.931 . S
C930 C924 1.383 . S
C930 C929 1.379 . S
H931 C925 0.959 . S
H932 C925 0.961 . S
H933 C925 0.960 . S
H934 C926 0.930 . S
H935 C927 0.929 . S
H936 C944 0.929 . S
H937 C946 0.930 . S
H938 C948 0.930 . S
H939 C951 0.929 . S
H940 C954 0.930 . S
H941 C956 0.960 . S
H942 C956 0.960 . S
H943 C956 0.960 . S
C944 H936 0.929 . S
C944 C945 1.377 . S
C944 C946 1.384 . S
C945 C944 1.377 . S
C945 C951 1.390 . S
C946 H937 0.930 . S
C946 C944 1.384 . S
C946 C947 1.372 . S
C947 C946 1.372 . S
C947 C948 1.400 . S
C947 C952 1.490 . S
C948 H938 0.930 . S
C948 C947 1.400 . S
C948 C951 1.386 . S
H949 C965 0.930 . S
H950 C966 0.931 . S
C951 H939 0.929 . S
C951 C945 1.390 . S
C951 C948 1.386 . S
C952 C947 1.490 . S
C952 C954 1.395 . S
C952 C955 1.403 . S
H953 C959 0.930 . S
C954 H940 0.930 . S
C954 C952 1.395 . S
C954 C957 1.403 . S
C955 C952 1.403 . S
C955 C956 1.524 . S
C955 C959 1.400 . S
C956 H941 0.960 . S
C956 H942 0.960 . S
C956 H943 0.960 . S
C956 C955 1.524 . S
C957 C954 1.403 . S
C957 C958 1.392 . S
C957 C961 1.495 . S
C958 C957 1.392 . S
C958 C959 1.385 . S
C958 C960 1.478 . S
C959 H953 0.930 . S
C959 C955 1.400 . S
C959 C958 1.385 . S
C960 C958 1.478 . S
C960 C962 1.381 . S
C960 C966 1.383 . S
C961 C957 1.495 . S
C961 H967 0.959 . S
C961 H968 0.961 . S
C961 H969 0.960 . S
C962 C960 1.381 . S
C962 C963 1.394 . S
C962 H970 0.930 . S
C963 C962 1.394 . S
C963 C964 1.383 . S
C963 H971 0.929 . S
C964 C963 1.383 . S
C964 C965 1.377 . S
C965 H949 0.930 . S
C965 C964 1.377 . S
C965 C966 1.379 . S
C966 H950 0.931 . S
C966 C960 1.383 . S
C966 C965 1.379 . S
H967 C961 0.959 . S
H968 C961 0.961 . S
H969 C961 0.960 . S
H970 C962 0.930 . S
H971 C963 0.929 . S
H972 C980 0.929 . S
H973 C982 0.930 . S
H974 C984 0.930 . S
H975 C987 0.929 . S
H976 C990 0.930 . S
H977 C992 0.960 . S
H978 C992 0.960 . S
H979 C992 0.960 . S
C980 H972 0.929 . S
C980 C981 1.377 . S
C980 C982 1.384 . S
C981 C980 1.377 . S
C981 C987 1.390 . S
C982 H973 0.930 . S
C982 C980 1.384 . S
C982 C983 1.372 . S
C983 C982 1.372 . S
C983 C984 1.400 . S
C983 C988 1.490 . S
C984 H974 0.930 . S
C984 C983 1.400 . S
C984 C987 1.386 . S
H985 C1001 0.930 . S
H986 C1002 0.931 . S
C987 H975 0.929 . S
C987 C981 1.390 . S
C987 C984 1.386 . S
C988 C983 1.490 . S
C988 C990 1.395 . S
C988 C991 1.403 . S
H989 C995 0.930 1_556 S
C990 H976 0.930 . S
C990 C988 1.395 . S
C990 C993 1.403 . S
C991 C988 1.403 . S
C991 C992 1.524 . S
C991 C995 1.400 . S
C992 H977 0.960 . S
C992 H978 0.960 . S
C992 H979 0.960 . S
C992 C991 1.524 . S
C993 C990 1.403 . S
C993 C994 1.392 1_554 S
C993 C997 1.491 1_554 S
C994 C993 1.392 1_556 S
C994 C995 1.385 1_556 S
C994 C996 1.478 . S
C995 H989 0.930 1_554 S
C995 C991 1.400 . S
C995 C994 1.385 1_554 S
C996 C994 1.478 . S
C996 C998 1.381 . S
C996 C1002 1.383 . S
C997 C993 1.491 1_556 S
C997 H1003 0.952 1_556 S
C997 H1004 0.965 . S
C997 H1005 0.967 . S
C998 C996 1.381 . S
C998 C999 1.394 . S
C998 H1006 0.930 . S
C999 C998 1.394 . S
C999 C1000 1.383 . S
C999 H1007 0.929 . S
C1000 C999 1.383 . S
C1000 C1001 1.377 . S
C1001 H985 0.930 . S
C1001 C1000 1.377 . S
C1001 C1002 1.379 . S
C1002 H986 0.931 . S
C1002 C996 1.383 . S
C1002 C1001 1.379 . S
H1003 C997 0.952 1_554 S
H1004 C997 0.965 . S
H1005 C997 0.967 . S
H1006 C998 0.930 . S
H1007 C999 0.929 . S
H1008 C1016 0.929 . S
H1009 C1018 0.930 . S
H1010 C1020 0.930 . S
H1011 C1023 0.929 . S
H1012 C1026 0.930 . S
H1013 C1028 0.960 . S
H1014 C1028 0.960 . S
H1015 C1028 0.960 . S
C1016 H1008 0.929 . S
C1016 C1017 1.377 . S
C1016 C1018 1.384 . S
C1017 C1016 1.377 . S
C1017 C1023 1.390 . S
C1018 H1009 0.930 . S
C1018 C1016 1.384 . S
C1018 C1019 1.372 . S
C1019 C1018 1.372 . S
C1019 C1020 1.400 . S
C1019 C1024 1.490 . S
C1020 H1010 0.930 . S
C1020 C1019 1.400 . S
C1020 C1023 1.386 . S
H1021 C1037 0.930 . S
H1022 C1038 0.931 . S
C1023 H1011 0.929 . S
C1023 C1017 1.390 . S
C1023 C1020 1.386 . S
C1024 C1019 1.490 . S
C1024 C1026 1.395 . S
C1024 C1027 1.403 . S
H1025 C1031 0.930 . S
C1026 H1012 0.930 . S
C1026 C1024 1.395 . S
C1026 C1029 1.403 . S
C1027 C1024 1.403 . S
C1027 C1028 1.524 . S
C1027 C1031 1.400 . S
C1028 H1013 0.960 . S
C1028 H1014 0.960 . S
C1028 H1015 0.960 . S
C1028 C1027 1.524 . S
C1029 C1026 1.403 . S
C1029 C1030 1.392 . S
C1029 C1033 1.495 . S
C1030 C1029 1.392 . S
C1030 C1031 1.385 . S
C1030 C1032 1.478 . S
C1031 H1025 0.930 . S
C1031 C1027 1.400 . S
C1031 C1030 1.385 . S
C1032 C1030 1.478 . S
C1032 C1034 1.381 . S
C1032 C1038 1.383 . S
C1033 C1029 1.495 . S
C1033 H1039 0.959 . S
C1033 H1040 0.961 . S
C1033 H1041 0.960 . S
C1034 C1032 1.381 . S
C1034 C1035 1.394 1_554 S
C1034 H1042 0.930 . S
C1035 C1034 1.394 1_556 S
C1035 C1036 1.383 . S
C1035 H1043 0.929 . S
C1036 C1035 1.383 . S
C1036 C1037 1.377 . S
C1037 H1021 0.930 . S
C1037 C1036 1.377 . S
C1037 C1038 1.379 1_556 S
C1038 H1022 0.931 . S
C1038 C1032 1.383 . S
C1038 C1037 1.379 1_554 S
H1039 C1033 0.959 . S
H1040 C1033 0.961 . S
H1041 C1033 0.960 . S
H1042 C1034 0.930 . S
H1043 C1035 0.929 . S
H1044 C1052 0.929 . S
H1045 C1054 0.930 . S
H1046 C1056 0.930 . S
H1047 C1059 0.929 . S
H1048 C1062 0.930 . S
H1049 C1064 0.960 . S
H1050 C1064 0.960 . S
H1051 C1064 0.960 . S
C1052 H1044 0.929 . S
C1052 C1053 1.377 . S
C1052 C1054 1.384 . S
C1053 C1052 1.377 . S
C1053 C1059 1.390 . S
C1054 H1045 0.930 . S
C1054 C1052 1.384 . S
C1054 C1055 1.372 . S
C1055 C1054 1.372 . S
C1055 C1056 1.400 . S
C1055 C1060 1.490 . S
C1056 H1046 0.930 . S
C1056 C1055 1.400 . S
C1056 C1059 1.386 . S
H1057 C1073 0.930 . S
H1058 C1074 0.931 . S
C1059 H1047 0.929 . S
C1059 C1053 1.390 . S
C1059 C1056 1.386 . S
C1060 C1055 1.490 . S
C1060 C1062 1.395 . S
C1060 C1063 1.403 . S
H1061 C1067 0.930 . S
C1062 H1048 0.930 . S
C1062 C1060 1.395 . S
C1062 C1065 1.403 . S
C1063 C1060 1.403 . S
C1063 C1064 1.524 . S
C1063 C1067 1.400 . S
C1064 H1049 0.960 . S
C1064 H1050 0.960 . S
C1064 H1051 0.960 . S
C1064 C1063 1.524 . S
C1065 C1062 1.403 . S
C1065 C1066 1.392 . S
C1065 C1069 1.495 . S
C1066 C1065 1.392 . S
C1066 C1067 1.385 . S
C1066 C1068 1.478 . S
C1067 H1061 0.930 . S
C1067 C1063 1.400 . S
C1067 C1066 1.385 . S
C1068 C1066 1.478 . S
C1068 C1070 1.381 . S
C1068 C1074 1.383 . S
C1069 C1065 1.495 . S
C1069 H1075 0.959 . S
C1069 H1076 0.961 . S
C1069 H1077 0.960 . S
C1070 C1068 1.381 . S
C1070 C1071 1.394 . S
C1070 H1078 0.930 . S
C1071 C1070 1.394 . S
C1071 C1072 1.383 . S
C1071 H1079 0.929 . S
C1072 C1071 1.383 . S
C1072 C1073 1.377 . S
C1073 H1057 0.930 . S
C1073 C1072 1.377 . S
C1073 C1074 1.379 . S
C1074 H1058 0.931 . S
C1074 C1068 1.383 . S
C1074 C1073 1.379 . S
H1075 C1069 0.959 . S
H1076 C1069 0.961 . S
H1077 C1069 0.960 . S
H1078 C1070 0.930 . S
H1079 C1071 0.929 . S
H1080 C1088 0.929 . S
H1081 C1090 0.930 . S
H1082 C1092 0.930 . S
H1083 C1095 0.929 . S
H1084 C1098 0.930 . S
H1085 C1100 0.960 . S
H1086 C1100 0.960 . S
H1087 C1100 0.960 . S
C1088 H1080 0.929 . S
C1088 C1089 1.377 . S
C1088 C1090 1.384 . S
C1089 C1088 1.377 . S
C1089 C1095 1.390 . S
C1090 H1081 0.930 . S
C1090 C1088 1.384 . S
C1090 C1091 1.372 . S
C1091 C1090 1.372 . S
C1091 C1092 1.400 . S
C1091 C1096 1.490 . S
C1092 H1082 0.930 . S
C1092 C1091 1.400 . S
C1092 C1095 1.386 . S
H1093 C1109 0.930 . S
H1094 C1110 0.931 . S
C1095 H1083 0.929 . S
C1095 C1089 1.390 . S
C1095 C1092 1.386 . S
C1096 C1091 1.490 . S
C1096 C1098 1.395 . S
C1096 C1099 1.403 . S
H1097 C1103 0.930 . S
C1098 H1084 0.930 . S
C1098 C1096 1.395 . S
C1098 C1101 1.403 . S
C1099 C1096 1.403 . S
C1099 C1100 1.524 . S
C1099 C1103 1.400 . S
C1100 H1085 0.960 . S
C1100 H1086 0.960 . S
C1100 H1087 0.960 . S
C1100 C1099 1.524 . S
C1101 C1098 1.403 . S
C1101 C1102 1.392 . S
C1101 C1105 1.495 . S
C1102 C1101 1.392 . S
C1102 C1103 1.385 . S
C1102 C1104 1.478 . S
C1103 H1097 0.930 . S
C1103 C1099 1.400 . S
C1103 C1102 1.385 . S
C1104 C1102 1.478 . S
C1104 C1106 1.381 . S
C1104 C1110 1.383 . S
C1105 C1101 1.495 . S
C1105 H1111 0.959 . S
C1105 H1112 0.961 . S
C1105 H1113 0.960 . S
C1106 C1104 1.381 . S
C1106 C1107 1.394 . S
C1106 H1114 0.930 . S
C1107 C1106 1.394 . S
C1107 C1108 1.383 . S
C1107 H1115 0.929 . S
C1108 C1107 1.383 . S
C1108 C1109 1.377 . S
C1109 H1093 0.930 . S
C1109 C1108 1.377 . S
C1109 C1110 1.379 . S
C1110 H1094 0.931 . S
C1110 C1104 1.383 . S
C1110 C1109 1.379 . S
H1111 C1105 0.959 . S
H1112 C1105 0.961 . S
H1113 C1105 0.960 . S
H1114 C1106 0.930 . S
H1115 C1107 0.929 . S
H1116 C1124 0.929 . S
H1117 C1126 0.930 . S
H1118 C1128 0.930 . S
H1119 C1131 0.929 . S
H1120 C1134 0.930 . S
H1121 C1136 0.960 . S
H1122 C1136 0.960 . S
H1123 C1136 0.960 . S
C1124 H1116 0.929 . S
C1124 C1125 1.377 . S
C1124 C1126 1.384 . S
C1125 C1124 1.377 . S
C1125 C1131 1.390 . S
C1126 H1117 0.930 . S
C1126 C1124 1.384 . S
C1126 C1127 1.372 . S
C1127 C1126 1.372 . S
C1127 C1128 1.400 . S
C1127 C1132 1.490 . S
C1128 H1118 0.930 . S
C1128 C1127 1.400 . S
C1128 C1131 1.386 . S
H1129 C1145 0.930 . S
H1130 C1146 0.931 . S
C1131 H1119 0.929 . S
C1131 C1125 1.390 . S
C1131 C1128 1.386 . S
C1132 C1127 1.490 . S
C1132 C1134 1.395 . S
C1132 C1135 1.403 . S
H1133 C1139 0.930 . S
C1134 H1120 0.930 . S
C1134 C1132 1.395 . S
C1134 C1137 1.403 . S
C1135 C1132 1.403 . S
C1135 C1136 1.524 . S
C1135 C1139 1.400 . S
C1136 H1121 0.960 . S
C1136 H1122 0.960 . S
C1136 H1123 0.960 . S
C1136 C1135 1.524 . S
C1137 C1134 1.403 . S
C1137 C1138 1.392 . S
C1137 C1141 1.495 . S
C1138 C1137 1.392 . S
C1138 C1139 1.385 . S
C1138 C1140 1.478 . S
C1139 H1133 0.930 . S
C1139 C1135 1.400 . S
C1139 C1138 1.385 . S
C1140 C1138 1.478 . S
C1140 C1142 1.381 . S
C1140 C1146 1.383 . S
C1141 C1137 1.495 . S
C1141 H1147 0.959 . S
C1141 H1148 0.961 . S
C1141 H1149 0.960 . S
C1142 C1140 1.381 . S
C1142 C1143 1.394 . S
C1142 H1150 0.930 . S
C1143 C1142 1.394 . S
C1143 C1144 1.383 . S
C1143 H1151 0.929 . S
C1144 C1143 1.383 . S
C1144 C1145 1.377 . S
C1145 H1129 0.930 . S
C1145 C1144 1.377 . S
C1145 C1146 1.379 . S
C1146 H1130 0.931 . S
C1146 C1140 1.383 . S
C1146 C1145 1.379 . S
H1147 C1141 0.959 . S
H1148 C1141 0.961 . S
H1149 C1141 0.960 . S
H1150 C1142 0.930 . S
H1151 C1143 0.929 . S
H1152 C1160 0.929 1_556 S
H1153 C1162 0.930 1_556 S
H1154 C1164 0.930 . S
H1155 C1167 0.929 . S
H1156 C1170 0.930 . S
H1157 C1172 0.960 . S
H1158 C1172 0.960 . S
H1159 C1172 0.960 . S
C1160 H1152 0.929 1_554 S
C1160 C1161 1.377 1_565 S
C1160 C1162 1.384 . S
C1161 C1160 1.377 1_545 S
C1161 C1167 1.390 . S
C1162 H1153 0.930 1_554 S
C1162 C1160 1.384 . S
C1162 C1163 1.372 . S
C1163 C1162 1.372 . S
C1163 C1164 1.400 . S
C1163 C1168 1.490 . S
C1164 H1154 0.930 . S
C1164 C1163 1.400 . S
C1164 C1167 1.386 1_565 S
H1165 C1181 0.930 . S
H1166 C1182 0.931 . S
C1167 H1155 0.929 . S
C1167 C1161 1.390 . S
C1167 C1164 1.386 1_545 S
C1168 C1163 1.490 . S
C1168 C1170 1.395 . S
C1168 C1171 1.403 . S
H1169 C1175 0.930 . S
C1170 H1156 0.930 . S
C1170 C1168 1.395 . S
C1170 C1173 1.403 . S
C1171 C1168 1.403 . S
C1171 C1172 1.524 . S
C1171 C1175 1.400 . S
C1172 H1157 0.960 . S
C1172 H1158 0.960 . S
C1172 H1159 0.960 . S
C1172 C1171 1.524 . S
C1173 C1170 1.403 . S
C1173 C1174 1.392 . S
C1173 C1177 1.495 . S
C1174 C1173 1.392 . S
C1174 C1175 1.385 . S
C1174 C1176 1.478 . S
C1175 H1169 0.930 . S
C1175 C1171 1.400 . S
C1175 C1174 1.385 . S
C1176 C1174 1.478 . S
C1176 C1178 1.381 . S
C1176 C1182 1.383 . S
C1177 C1173 1.495 . S
C1177 H1183 0.959 . S
C1177 H1184 0.961 . S
C1177 H1185 0.960 . S
C1178 C1176 1.381 . S
C1178 C1179 1.394 . S
C1178 H1186 0.930 . S
C1179 C1178 1.394 . S
C1179 C1180 1.383 . S
C1179 H1187 0.929 . S
C1180 C1179 1.383 . S
C1180 C1181 1.377 . S
C1181 H1165 0.930 . S
C1181 C1180 1.377 . S
C1181 C1182 1.379 . S
C1182 H1166 0.931 . S
C1182 C1176 1.383 . S
C1182 C1181 1.379 . S
H1183 C1177 0.959 . S
H1184 C1177 0.961 . S
H1185 C1177 0.960 . S
H1186 C1178 0.930 . S
H1187 C1179 0.929 . S
H1188 C1196 0.929 . S
H1189 C1198 0.930 . S
H1190 C1200 0.930 . S
H1191 C1203 0.929 1_554 S
H1192 C1206 0.930 . S
H1193 C1208 0.960 . S
H1194 C1208 0.960 . S
H1195 C1208 0.960 . S
C1196 H1188 0.929 . S
C1196 C1197 1.377 . S
C1196 C1198 1.384 . S
C1197 C1196 1.377 . S
C1197 C1203 1.390 . S
C1198 H1189 0.930 . S
C1198 C1196 1.384 . S
C1198 C1199 1.372 . S
C1199 C1198 1.372 . S
C1199 C1200 1.400 . S
C1199 C1204 1.490 . S
C1200 H1190 0.930 . S
C1200 C1199 1.400 . S
C1200 C1203 1.386 . S
H1201 C1217 0.930 . S
H1202 C1218 0.931 . S
C1203 H1191 0.929 1_556 S
C1203 C1197 1.390 . S
C1203 C1200 1.386 . S
C1204 C1199 1.490 . S
C1204 C1206 1.395 . S
C1204 C1207 1.403 . S
H1205 C1211 0.930 . S
C1206 H1192 0.930 . S
C1206 C1204 1.395 . S
C1206 C1209 1.403 . S
C1207 C1204 1.403 . S
C1207 C1208 1.524 . S
C1207 C1211 1.400 . S
C1208 H1193 0.960 . S
C1208 H1194 0.960 . S
C1208 H1195 0.960 . S
C1208 C1207 1.524 . S
C1209 C1206 1.403 . S
C1209 C1210 1.392 . S
C1209 C1213 1.495 . S
C1210 C1209 1.392 . S
C1210 C1211 1.385 . S
C1210 C1212 1.478 . S
C1211 H1205 0.930 . S
C1211 C1207 1.400 . S
C1211 C1210 1.385 . S
C1212 C1210 1.478 . S
C1212 C1214 1.381 . S
C1212 C1218 1.383 . S
C1213 C1209 1.495 . S
C1213 H1219 0.959 . S
C1213 H1220 0.961 . S
C1213 H1221 0.960 . S
C1214 C1212 1.381 . S
C1214 C1215 1.394 . S
C1214 H1222 0.930 . S
C1215 C1214 1.394 . S
C1215 C1216 1.383 . S
C1215 H1223 0.929 . S
C1216 C1215 1.383 . S
C1216 C1217 1.377 . S
C1217 H1201 0.930 . S
C1217 C1216 1.377 . S
C1217 C1218 1.379 . S
C1218 H1202 0.931 . S
C1218 C1212 1.383 . S
C1218 C1217 1.379 . S
H1219 C1213 0.959 . S
H1220 C1213 0.961 . S
H1221 C1213 0.960 . S
H1222 C1214 0.930 . S
H1223 C1215 0.929 . S
H1224 C1232 0.929 . S
H1225 C1234 0.930 . S
H1226 C1236 0.930 . S
H1227 C1239 0.929 . S
H1228 C1242 0.930 . S
H1229 C1244 0.960 . S
H1230 C1244 0.960 . S
H1231 C1244 0.960 . S
C1232 H1224 0.929 . S
C1232 C1233 1.377 . S
C1232 C1234 1.384 . S
C1233 C1232 1.377 . S
C1233 C1239 1.390 . S
C1234 H1225 0.930 . S
C1234 C1232 1.384 . S
C1234 C1235 1.372 . S
C1235 C1234 1.372 . S
C1235 C1236 1.400 . S
C1235 C1240 1.490 . S
C1236 H1226 0.930 . S
C1236 C1235 1.400 . S
C1236 C1239 1.386 . S
H1237 C1253 0.930 . S
H1238 C1254 0.931 . S
C1239 H1227 0.929 . S
C1239 C1233 1.390 . S
C1239 C1236 1.386 . S
C1240 C1235 1.490 . S
C1240 C1242 1.395 . S
C1240 C1243 1.403 . S
H1241 C1247 0.930 . S
C1242 H1228 0.930 . S
C1242 C1240 1.395 . S
C1242 C1245 1.403 1_556 S
C1243 C1240 1.403 . S
C1243 C1244 1.524 . S
C1243 C1247 1.400 . S
C1244 H1229 0.960 . S
C1244 H1230 0.960 . S
C1244 H1231 0.960 . S
C1244 C1243 1.524 . S
C1245 C1242 1.403 1_554 S
C1245 C1246 1.392 . S
C1245 C1249 1.495 . S
C1246 C1245 1.392 . S
C1246 C1247 1.385 1_554 S
C1246 C1248 1.478 . S
C1247 H1241 0.930 . S
C1247 C1243 1.400 . S
C1247 C1246 1.385 1_556 S
C1248 C1246 1.478 . S
C1248 C1250 1.381 . S
C1248 C1254 1.383 1_655 S
C1249 C1245 1.495 . S
C1249 H1255 0.959 . S
C1249 H1256 0.961 . S
C1249 H1257 0.960 . S
C1250 C1248 1.381 . S
C1250 C1251 1.394 . S
C1250 H1258 0.930 . S
C1251 C1250 1.394 . S
C1251 C1252 1.383 1_655 S
C1251 H1259 0.929 . S
C1252 C1251 1.383 1_455 S
C1252 C1253 1.377 . S
C1253 H1237 0.930 . S
C1253 C1252 1.377 . S
C1253 C1254 1.379 . S
C1254 H1238 0.931 . S
C1254 C1248 1.383 1_455 S
C1254 C1253 1.379 . S
H1255 C1249 0.959 . S
H1256 C1249 0.961 . S
H1257 C1249 0.960 . S
H1258 C1250 0.930 . S
H1259 C1251 0.929 . S
H1260 C1268 0.929 . S
H1261 C1270 0.930 . S
H1262 C1272 0.930 . S
H1263 C1275 0.929 . S
H1264 C1278 0.930 . S
H1265 C1280 0.960 . S
H1266 C1280 0.960 . S
H1267 C1280 0.960 . S
C1268 H1260 0.929 . S
C1268 C1269 1.377 . S
C1268 C1270 1.384 . S
C1269 C1268 1.377 . S
C1269 C1275 1.390 . S
C1270 H1261 0.930 . S
C1270 C1268 1.384 . S
C1270 C1271 1.372 . S
C1271 C1270 1.372 . S
C1271 C1272 1.400 . S
C1271 C1276 1.490 . S
C1272 H1262 0.930 . S
C1272 C1271 1.400 . S
C1272 C1275 1.386 . S
H1273 C1289 0.930 . S
H1274 C1290 0.931 . S
C1275 H1263 0.929 . S
C1275 C1269 1.390 . S
C1275 C1272 1.386 . S
C1276 C1271 1.490 . S
C1276 C1278 1.395 1_556 S
C1276 C1279 1.403 . S
H1277 C1283 0.930 . S
C1278 H1264 0.930 . S
C1278 C1276 1.395 1_554 S
C1278 C1281 1.403 . S
C1279 C1276 1.403 . S
C1279 C1280 1.524 . S
C1279 C1283 1.400 . S
C1280 H1265 0.960 . S
C1280 H1266 0.960 . S
C1280 H1267 0.960 . S
C1280 C1279 1.524 . S
C1281 C1278 1.403 . S
C1281 C1282 1.392 . S
C1281 C1285 1.495 . S
C1282 C1281 1.392 . S
C1282 C1283 1.385 1_554 S
C1282 C1284 1.478 . S
C1283 H1277 0.930 . S
C1283 C1279 1.400 . S
C1283 C1282 1.385 1_556 S
C1284 C1282 1.478 . S
C1284 C1286 1.381 . S
C1284 C1290 1.383 . S
C1285 C1281 1.495 . S
C1285 H1291 0.959 . S
C1285 H1292 0.961 . S
C1285 H1293 0.960 . S
C1286 C1284 1.381 . S
C1286 C1287 1.394 . S
C1286 H1294 0.930 . S
C1287 C1286 1.394 . S
C1287 C1288 1.383 . S
C1287 H1295 0.929 . S
C1288 C1287 1.383 . S
C1288 C1289 1.377 . S
C1289 H1273 0.930 . S
C1289 C1288 1.377 . S
C1289 C1290 1.379 . S
C1290 H1274 0.931 . S
C1290 C1284 1.383 . S
C1290 C1289 1.379 . S
H1291 C1285 0.959 . S
H1292 C1285 0.961 . S
H1293 C1285 0.960 . S
H1294 C1286 0.930 . S
H1295 C1287 0.929 . S
H1296 C1304 0.929 . S
H1297 C1306 0.930 . S
H1298 C1308 0.930 . S
H1299 C1311 0.929 . S
H1300 C1314 0.930 . S
H1301 C1316 0.960 . S
H1302 C1316 0.960 . S
H1303 C1316 0.960 . S
C1304 H1296 0.929 . S
C1304 C1305 1.377 . S
C1304 C1306 1.384 . S
C1305 C1304 1.377 . S
C1305 C1311 1.390 . S
C1306 H1297 0.930 . S
C1306 C1304 1.384 . S
C1306 C1307 1.372 . S
C1307 C1306 1.372 . S
C1307 C1308 1.400 . S
C1307 C1312 1.490 . S
C1308 H1298 0.930 . S
C1308 C1307 1.400 . S
C1308 C1311 1.386 . S
H1309 C1325 0.930 . S
H1310 C1326 0.931 . S
C1311 H1299 0.929 . S
C1311 C1305 1.390 . S
C1311 C1308 1.386 . S
C1312 C1307 1.490 . S
C1312 C1314 1.395 . S
C1312 C1315 1.403 . S
H1313 C1319 0.930 1_554 S
C1314 H1300 0.930 . S
C1314 C1312 1.395 . S
C1314 C1317 1.403 . S
C1315 C1312 1.403 . S
C1315 C1316 1.524 . S
C1315 C1319 1.400 . S
C1316 H1301 0.960 . S
C1316 H1302 0.960 . S
C1316 H1303 0.960 . S
C1316 C1315 1.524 . S
C1317 C1314 1.403 . S
C1317 C1318 1.392 . S
C1317 C1321 1.495 . S
C1318 C1317 1.392 . S
C1318 C1319 1.385 . S
C1318 C1320 1.478 1_556 S
C1319 H1313 0.930 1_556 S
C1319 C1315 1.400 . S
C1319 C1318 1.385 . S
C1320 C1318 1.478 1_554 S
C1320 C1322 1.381 1_554 S
C1320 C1326 1.383 . S
C1321 C1317 1.495 . S
C1321 H1327 0.959 . S
C1321 H1328 0.961 1_556 S
C1321 H1329 0.960 . S
C1322 C1320 1.381 1_556 S
C1322 C1323 1.394 1_556 S
C1322 H1330 0.930 . S
C1323 C1322 1.394 1_554 S
C1323 C1324 1.383 . S
C1323 H1331 0.929 1_554 S
C1324 C1323 1.383 . S
C1324 C1325 1.377 . S
C1325 H1309 0.930 . S
C1325 C1324 1.377 . S
C1325 C1326 1.379 . S
C1326 H1310 0.931 . S
C1326 C1320 1.383 . S
C1326 C1325 1.379 . S
H1327 C1321 0.959 . S
H1328 C1321 0.961 1_554 S
H1329 C1321 0.960 . S
H1330 C1322 0.930 . S
H1331 C1323 0.929 1_556 S
H1332 C1340 0.929 . S
H1333 C1342 0.930 . S
H1334 C1344 0.930 . S
H1335 C1347 0.929 . S
H1336 C1350 0.930 . S
H1337 C1352 0.960 . S
H1338 C1352 0.960 . S
H1339 C1352 0.960 . S
C1340 H1332 0.929 . S
C1340 C1341 1.377 . S
C1340 C1342 1.384 . S
C1341 C1340 1.377 . S
C1341 C1347 1.390 . S
C1342 H1333 0.930 . S
C1342 C1340 1.384 . S
C1342 C1343 1.372 . S
C1343 C1342 1.372 . S
C1343 C1344 1.400 . S
C1343 C1348 1.490 . S
C1344 H1334 0.930 . S
C1344 C1343 1.400 . S
C1344 C1347 1.386 . S
H1345 C1361 0.930 . S
H1346 C1362 0.931 . S
C1347 H1335 0.929 . S
C1347 C1341 1.390 . S
C1347 C1344 1.386 . S
C1348 C1343 1.490 . S
C1348 C1350 1.395 . S
C1348 C1351 1.403 . S
H1349 C1355 0.930 . S
C1350 H1336 0.930 . S
C1350 C1348 1.395 . S
C1350 C1353 1.403 . S
C1351 C1348 1.403 . S
C1351 C1352 1.524 . S
C1351 C1355 1.400 . S
C1352 H1337 0.960 . S
C1352 H1338 0.960 . S
C1352 H1339 0.960 . S
C1352 C1351 1.524 . S
C1353 C1350 1.403 . S
C1353 C1354 1.392 . S
C1353 C1357 1.495 . S
C1354 C1353 1.392 . S
C1354 C1355 1.385 . S
C1354 C1356 1.478 . S
C1355 H1349 0.930 . S
C1355 C1351 1.400 . S
C1355 C1354 1.385 . S
C1356 C1354 1.478 . S
C1356 C1358 1.381 . S
C1356 C1362 1.383 . S
C1357 C1353 1.495 . S
C1357 H1363 0.959 . S
C1357 H1364 0.961 . S
C1357 H1365 0.960 . S
C1358 C1356 1.381 . S
C1358 C1359 1.394 . S
C1358 H1366 0.930 . S
C1359 C1358 1.394 . S
C1359 C1360 1.383 . S
C1359 H1367 0.929 . S
C1360 C1359 1.383 . S
C1360 C1361 1.377 . S
C1361 H1345 0.930 . S
C1361 C1360 1.377 . S
C1361 C1362 1.379 . S
C1362 H1346 0.931 . S
C1362 C1356 1.383 . S
C1362 C1361 1.379 . S
H1363 C1357 0.959 . S
H1364 C1357 0.961 . S
H1365 C1357 0.960 . S
H1366 C1358 0.930 . S
H1367 C1359 0.929 . S
H1368 C1376 0.929 . S
H1369 C1378 0.930 . S
H1370 C1380 0.930 . S
H1371 C1383 0.929 . S
H1372 C1386 0.930 . S
H1373 C1388 0.960 . S
H1374 C1388 0.960 . S
H1375 C1388 0.960 . S
C1376 H1368 0.929 . S
C1376 C1377 1.377 . S
C1376 C1378 1.384 . S
C1377 C1376 1.377 . S
C1377 C1383 1.390 . S
C1378 H1369 0.930 . S
C1378 C1376 1.384 . S
C1378 C1379 1.372 . S
C1379 C1378 1.372 . S
C1379 C1380 1.400 . S
C1379 C1384 1.490 . S
C1380 H1370 0.930 . S
C1380 C1379 1.400 . S
C1380 C1383 1.386 . S
H1381 C1397 0.930 . S
H1382 C1398 0.931 . S
C1383 H1371 0.929 . S
C1383 C1377 1.390 . S
C1383 C1380 1.386 . S
C1384 C1379 1.490 . S
C1384 C1386 1.395 . S
C1384 C1387 1.403 . S
H1385 C1391 0.930 . S
C1386 H1372 0.930 . S
C1386 C1384 1.395 . S
C1386 C1389 1.403 . S
C1387 C1384 1.403 . S
C1387 C1388 1.524 . S
C1387 C1391 1.400 . S
C1388 H1373 0.960 . S
C1388 H1374 0.960 . S
C1388 H1375 0.960 . S
C1388 C1387 1.524 . S
C1389 C1386 1.403 . S
C1389 C1390 1.392 . S
C1389 C1393 1.495 . S
C1390 C1389 1.392 . S
C1390 C1391 1.385 . S
C1390 C1392 1.478 . S
C1391 H1385 0.930 . S
C1391 C1387 1.400 . S
C1391 C1390 1.385 . S
C1392 C1390 1.478 . S
C1392 C1394 1.381 . S
C1392 C1398 1.383 . S
C1393 C1389 1.495 . S
C1393 H1399 0.959 . S
C1393 H1400 0.961 . S
C1393 H1401 0.960 . S
C1394 C1392 1.381 . S
C1394 C1395 1.394 . S
C1394 H1402 0.930 . S
C1395 C1394 1.394 . S
C1395 C1396 1.383 . S
C1395 H1403 0.929 . S
C1396 C1395 1.383 . S
C1396 C1397 1.377 . S
C1397 H1381 0.930 . S
C1397 C1396 1.377 . S
C1397 C1398 1.379 . S
C1398 H1382 0.931 . S
C1398 C1392 1.383 . S
C1398 C1397 1.379 . S
H1399 C1393 0.959 . S
H1400 C1393 0.961 . S
H1401 C1393 0.960 . S
H1402 C1394 0.930 . S
H1403 C1395 0.929 . S
H1404 C1412 0.929 . S
H1405 C1414 0.930 . S
H1406 C1416 0.930 1_556 S
H1407 C1419 0.929 . S
H1408 C1422 0.930 1_565 S
H1409 C1424 0.960 . S
H1410 C1424 0.960 . S
H1411 C1424 0.960 . S
C1412 H1404 0.929 . S
C1412 C1413 1.377 . S
C1412 C1414 1.384 . S
C1413 C1412 1.377 . S
C1413 C1419 1.390 1_554 S
C1414 H1405 0.930 . S
C1414 C1412 1.384 . S
C1414 C1415 1.372 . S
C1415 C1414 1.372 . S
C1415 C1416 1.400 . S
C1415 C1420 1.490 . S
C1416 H1406 0.930 1_554 S
C1416 C1415 1.400 . S
C1416 C1419 1.386 1_554 S
H1417 C1433 0.930 . S
H1418 C1434 0.931 1_545 S
C1419 H1407 0.929 . S
C1419 C1413 1.390 1_556 S
C1419 C1416 1.386 1_556 S
C1420 C1415 1.490 . S
C1420 C1422 1.417 . S
C1420 C1423 1.403 . S
H1421 C1427 0.930 . S
C1422 H1408 0.930 1_545 S
C1422 C1420 1.417 . S
C1422 C1425 1.382 1_545 S
C1423 C1420 1.403 . S
C1423 C1424 1.524 . S
C1423 C1427 1.400 . S
C1424 H1409 0.960 . S
C1424 H1410 0.960 . S
C1424 H1411 0.960 . S
C1424 C1423 1.524 . S
C1425 C1422 1.382 1_565 S
C1425 C1426 1.392 1_565 S
C1425 C1429 1.495 . S
C1426 C1425 1.392 1_545 S
C1426 C1427 1.385 . S
C1426 C1428 1.478 1_545 S
C1427 H1421 0.930 . S
C1427 C1423 1.400 . S
C1427 C1426 1.385 . S
C1428 C1426 1.478 1_565 S
C1428 C1430 1.381 . S
C1428 C1434 1.383 . S
C1429 C1425 1.495 . S
C1429 H1435 0.959 . S
C1429 H1436 0.961 . S
C1429 H1437 0.960 . S
C1430 C1428 1.381 . S
C1430 C1431 1.394 . S
C1430 H1438 0.930 . S
C1431 C1430 1.394 . S
C1431 C1432 1.383 . S
C1431 H1439 0.929 . S
C1432 C1431 1.383 . S
C1432 C1433 1.377 . S
C1433 H1417 0.930 . S
C1433 C1432 1.377 . S
C1433 C1434 1.379 . S
C1434 H1418 0.931 1_565 S
C1434 C1428 1.383 . S
C1434 C1433 1.379 . S
H1435 C1429 0.959 . S
H1436 C1429 0.961 . S
H1437 C1429 0.960 . S
H1438 C1430 0.930 . S
H1439 C1431 0.929 . S
H1440 C1448 0.929 . S
H1441 C1450 0.930 . S
H1442 C1452 0.930 . S
H1443 C1455 0.929 . S
H1444 C1458 0.930 . S
H1445 C1460 0.960 . S
H1446 C1460 0.960 . S
H1447 C1460 0.960 . S
C1448 H1440 0.929 . S
C1448 C1449 1.377 . S
C1448 C1450 1.384 . S
C1449 C1448 1.377 . S
C1449 C1455 1.390 . S
C1450 H1441 0.930 . S
C1450 C1448 1.384 . S
C1450 C1451 1.372 . S
C1451 C1450 1.372 . S
C1451 C1452 1.400 . S
C1451 C1456 1.490 . S
C1452 H1442 0.930 . S
C1452 C1451 1.400 . S
C1452 C1455 1.386 . S
H1453 C1469 0.930 . S
H1454 C1470 0.931 . S
C1455 H1443 0.929 . S
C1455 C1449 1.390 . S
C1455 C1452 1.386 . S
C1456 C1451 1.490 . S
C1456 C1458 1.395 . S
C1456 C1459 1.403 . S
H1457 C1463 0.930 . S
C1458 H1444 0.930 . S
C1458 C1456 1.395 . S
C1458 C1461 1.403 . S
C1459 C1456 1.403 . S
C1459 C1460 1.524 . S
C1459 C1463 1.400 . S
C1460 H1445 0.960 . S
C1460 H1446 0.960 . S
C1460 H1447 0.960 . S
C1460 C1459 1.524 . S
C1461 C1458 1.403 . S
C1461 C1462 1.392 . S
C1461 C1465 1.495 . S
C1462 C1461 1.392 . S
C1462 C1463 1.385 . S
C1462 C1464 1.478 . S
C1463 H1457 0.930 . S
C1463 C1459 1.400 . S
C1463 C1462 1.385 . S
C1464 C1462 1.478 . S
C1464 C1466 1.381 . S
C1464 C1470 1.383 . S
C1465 C1461 1.495 . S
C1465 H1471 0.959 . S
C1465 H1472 0.961 . S
C1465 H1473 0.960 . S
C1466 C1464 1.381 . S
C1466 C1467 1.394 . S
C1466 H1474 0.930 . S
C1467 C1466 1.394 . S
C1467 C1468 1.383 . S
C1467 H1475 0.929 . S
C1468 C1467 1.383 . S
C1468 C1469 1.377 . S
C1469 H1453 0.930 . S
C1469 C1468 1.377 . S
C1469 C1470 1.379 . S
C1470 H1454 0.931 . S
C1470 C1464 1.383 . S
C1470 C1469 1.379 . S
H1471 C1465 0.959 . S
H1472 C1465 0.961 . S
H1473 C1465 0.960 . S
H1474 C1466 0.930 . S
H1475 C1467 0.929 . S
H1476 C1484 0.929 . S
H1477 C1486 0.930 . S
H1478 C1488 0.930 . S
H1479 C1491 0.929 . S
H1480 C1494 0.930 . S
H1481 C1496 0.960 . S
H1482 C1496 0.960 . S
H1483 C1496 0.960 . S
C1484 H1476 0.929 . S
C1484 C1485 1.377 . S
C1484 C1486 1.384 . S
C1485 C1484 1.377 . S
C1485 C1491 1.390 . S
C1486 H1477 0.930 . S
C1486 C1484 1.384 . S
C1486 C1487 1.372 . S
C1487 C1486 1.372 . S
C1487 C1488 1.400 . S
C1487 C1492 1.490 . S
C1488 H1478 0.930 . S
C1488 C1487 1.400 . S
C1488 C1491 1.386 . S
H1489 C1505 0.930 . S
H1490 C1506 0.931 . S
C1491 H1479 0.929 . S
C1491 C1485 1.390 . S
C1491 C1488 1.386 . S
C1492 C1487 1.490 . S
C1492 C1494 1.395 . S
C1492 C1495 1.403 . S
H1493 C1499 0.930 . S
C1494 H1480 0.930 . S
C1494 C1492 1.395 . S
C1494 C1497 1.403 . S
C1495 C1492 1.403 . S
C1495 C1496 1.524 . S
C1495 C1499 1.400 . S
C1496 H1481 0.960 . S
C1496 H1482 0.960 . S
C1496 H1483 0.960 . S
C1496 C1495 1.524 . S
C1497 C1494 1.403 . S
C1497 C1498 1.392 . S
C1497 C1501 1.495 . S
C1498 C1497 1.392 . S
C1498 C1499 1.385 . S
C1498 C1500 1.478 . S
C1499 H1493 0.930 . S
C1499 C1495 1.400 . S
C1499 C1498 1.385 . S
C1500 C1498 1.478 . S
C1500 C1502 1.381 . S
C1500 C1506 1.383 . S
C1501 C1497 1.495 . S
C1501 H1507 0.959 . S
C1501 H1508 0.961 . S
C1501 H1509 0.960 . S
C1502 C1500 1.381 . S
C1502 C1503 1.394 . S
C1502 H1510 0.930 . S
C1503 C1502 1.394 . S
C1503 C1504 1.383 . S
C1503 H1511 0.929 . S
C1504 C1503 1.383 . S
C1504 C1505 1.377 . S
C1505 H1489 0.930 . S
C1505 C1504 1.377 . S
C1505 C1506 1.379 . S
C1506 H1490 0.931 . S
C1506 C1500 1.383 . S
C1506 C1505 1.379 . S
H1507 C1501 0.959 . S
H1508 C1501 0.961 . S
H1509 C1501 0.960 . S
H1510 C1502 0.930 . S
H1511 C1503 0.929 . S
H1512 C1520 0.929 . S
H1513 C1522 0.930 . S
H1514 C1524 0.930 . S
H1515 C1527 0.929 . S
H1516 C1530 0.930 . S
H1517 C1532 0.960 . S
H1518 C1532 0.960 . S
H1519 C1532 0.960 . S
C1520 H1512 0.929 . S
C1520 C1521 1.377 . S
C1520 C1522 1.384 . S
C1521 C1520 1.377 . S
C1521 C1527 1.390 . S
C1522 H1513 0.930 . S
C1522 C1520 1.384 . S
C1522 C1523 1.372 . S
C1523 C1522 1.372 . S
C1523 C1524 1.400 . S
C1523 C1528 1.490 . S
C1524 H1514 0.930 . S
C1524 C1523 1.400 . S
C1524 C1527 1.386 . S
H1525 C1541 0.930 . S
H1526 C1542 0.931 . S
C1527 H1515 0.929 . S
C1527 C1521 1.390 . S
C1527 C1524 1.386 . S
C1528 C1523 1.490 . S
C1528 C1530 1.395 . S
C1528 C1531 1.403 . S
H1529 C1535 0.930 . S
C1530 H1516 0.930 . S
C1530 C1528 1.395 . S
C1530 C1533 1.403 . S
C1531 C1528 1.403 . S
C1531 C1532 1.524 . S
C1531 C1535 1.400 . S
C1532 H1517 0.960 . S
C1532 H1518 0.960 . S
C1532 H1519 0.960 . S
C1532 C1531 1.524 . S
C1533 C1530 1.403 . S
C1533 C1534 1.392 . S
C1533 C1537 1.495 . S
C1534 C1533 1.392 . S
C1534 C1535 1.385 . S
C1534 C1536 1.478 . S
C1535 H1529 0.930 . S
C1535 C1531 1.400 . S
C1535 C1534 1.385 . S
C1536 C1534 1.478 . S
C1536 C1538 1.381 . S
C1536 C1542 1.383 . S
C1537 C1533 1.495 . S
C1537 H1543 0.959 . S
C1537 H1544 0.961 . S
C1537 H1545 0.960 . S
C1538 C1536 1.381 . S
C1538 C1539 1.394 . S
C1538 H1546 0.930 . S
C1539 C1538 1.394 . S
C1539 C1540 1.383 . S
C1539 H1547 0.929 . S
C1540 C1539 1.383 . S
C1540 C1541 1.377 . S
C1541 H1525 0.930 . S
C1541 C1540 1.377 . S
C1541 C1542 1.379 . S
C1542 H1526 0.931 . S
C1542 C1536 1.383 . S
C1542 C1541 1.379 . S
H1543 C1537 0.959 . S
H1544 C1537 0.961 . S
H1545 C1537 0.960 . S
H1546 C1538 0.930 . S
H1547 C1539 0.929 . S
H1548 C1556 0.929 . S
H1549 C1558 0.930 . S
H1550 C1560 0.930 . S
H1551 C1563 0.929 . S
H1552 C1566 0.930 . S
H1553 C1568 0.960 . S
H1554 C1568 0.960 . S
H1555 C1568 0.960 . S
C1556 H1548 0.929 . S
C1556 C1557 1.377 . S
C1556 C1558 1.384 . S
C1557 C1556 1.377 . S
C1557 C1563 1.390 . S
C1558 H1549 0.930 . S
C1558 C1556 1.384 . S
C1558 C1559 1.372 . S
C1559 C1558 1.372 . S
C1559 C1560 1.400 . S
C1559 C1564 1.490 1_545 S
C1560 H1550 0.930 . S
C1560 C1559 1.400 . S
C1560 C1563 1.386 . S
H1561 C1577 0.930 . S
H1562 C1578 0.931 . S
C1563 H1551 0.929 . S
C1563 C1557 1.390 . S
C1563 C1560 1.386 . S
C1564 C1559 1.490 1_565 S
C1564 C1566 1.395 . S
C1564 C1567 1.403 . S
H1565 C1571 0.930 . S
C1566 H1552 0.930 . S
C1566 C1564 1.395 . S
C1566 C1569 1.403 . S
C1567 C1564 1.403 . S
C1567 C1568 1.524 1_565 S
C1567 C1571 1.400 . S
C1568 H1553 0.960 . S
C1568 H1554 0.960 . S
C1568 H1555 0.960 . S
C1568 C1567 1.524 1_545 S
C1569 C1566 1.403 . S
C1569 C1570 1.392 . S
C1569 C1573 1.495 . S
C1570 C1569 1.392 . S
C1570 C1571 1.385 . S
C1570 C1572 1.478 . S
C1571 H1565 0.930 . S
C1571 C1567 1.400 . S
C1571 C1570 1.385 . S
C1572 C1570 1.478 . S
C1572 C1574 1.381 . S
C1572 C1578 1.383 . S
C1573 C1569 1.495 . S
C1573 H1579 0.959 . S
C1573 H1580 0.961 . S
C1573 H1581 0.960 . S
C1574 C1572 1.381 . S
C1574 C1575 1.394 . S
C1574 H1582 0.930 . S
C1575 C1574 1.394 . S
C1575 C1576 1.383 . S
C1575 H1583 0.929 . S
C1576 C1575 1.383 . S
C1576 C1577 1.377 . S
C1577 H1561 0.930 . S
C1577 C1576 1.377 . S
C1577 C1578 1.379 . S
C1578 H1562 0.931 . S
C1578 C1572 1.383 . S
C1578 C1577 1.379 . S
H1579 C1573 0.959 . S
H1580 C1573 0.961 . S
H1581 C1573 0.960 . S
H1582 C1574 0.930 . S
H1583 C1575 0.929 . S
H1584 C1592 0.929 . S
H1585 C1594 0.930 . S
H1586 C1596 0.930 . S
H1587 C1599 0.929 . S
H1588 C1602 0.930 . S
H1589 C1604 0.960 . S
H1590 C1604 0.960 1_655 S
H1591 C1604 0.960 . S
C1592 H1584 0.929 . S
C1592 C1593 1.377 . S
C1592 C1594 1.384 . S
C1593 C1592 1.377 . S
C1593 C1599 1.390 . S
C1594 H1585 0.930 . S
C1594 C1592 1.384 . S
C1594 C1595 1.372 1_655 S
C1595 C1594 1.372 1_455 S
C1595 C1596 1.400 . S
C1595 C1600 1.490 . S
C1596 H1586 0.930 . S
C1596 C1595 1.400 . S
C1596 C1599 1.386 1_455 S
H1597 C1613 0.930 . S
H1598 C1614 0.931 . S
C1599 H1587 0.929 . S
C1599 C1593 1.390 . S
C1599 C1596 1.386 1_655 S
C1600 C1595 1.490 . S
C1600 C1602 1.395 . S
C1600 C1603 1.403 . S
H1601 C1607 0.930 . S
C1602 H1588 0.930 . S
C1602 C1600 1.395 . S
C1602 C1605 1.403 . S
C1603 C1600 1.403 . S
C1603 C1604 1.524 . S
C1603 C1607 1.400 . S
C1604 H1589 0.960 . S
C1604 H1590 0.960 1_455 S
C1604 H1591 0.960 . S
C1604 C1603 1.524 . S
C1605 C1602 1.403 . S
C1605 C1606 1.392 . S
C1605 C1609 1.495 . S
C1606 C1605 1.392 . S
C1606 C1607 1.385 . S
C1606 C1608 1.478 . S
C1607 H1601 0.930 . S
C1607 C1603 1.400 . S
C1607 C1606 1.385 . S
C1608 C1606 1.478 . S
C1608 C1610 1.381 . S
C1608 C1614 1.383 . S
C1609 C1605 1.495 . S
C1609 H1615 0.959 . S
C1609 H1616 0.961 . S
C1609 H1617 0.960 . S
C1610 C1608 1.381 . S
C1610 C1611 1.394 . S
C1610 H1618 0.930 . S
C1611 C1610 1.394 . S
C1611 C1612 1.383 . S
C1611 H1619 0.929 . S
C1612 C1611 1.383 . S
C1612 C1613 1.377 . S
C1613 H1597 0.930 . S
C1613 C1612 1.377 . S
C1613 C1614 1.379 . S
C1614 H1598 0.931 . S
C1614 C1608 1.383 . S
C1614 C1613 1.379 . S
H1615 C1609 0.959 . S
H1616 C1609 0.961 . S
H1617 C1609 0.960 . S
H1618 C1610 0.930 . S
H1619 C1611 0.929 . S
H1620 C1628 0.929 . S
H1621 C1630 0.930 . S
H1622 C1632 0.930 . S
H1623 C1635 0.929 . S
H1624 C1638 0.930 . S
H1625 C1640 0.960 . S
H1626 C1640 0.960 . S
H1627 C1640 0.960 . S
C1628 H1620 0.929 . S
C1628 C1629 1.377 . S
C1628 C1630 1.384 . S
C1629 C1628 1.377 . S
C1629 C1635 1.390 . S
C1630 H1621 0.930 . S
C1630 C1628 1.384 . S
C1630 C1631 1.372 . S
C1631 C1630 1.372 . S
C1631 C1632 1.400 . S
C1631 C1636 1.490 . S
C1632 H1622 0.930 . S
C1632 C1631 1.400 . S
C1632 C1635 1.386 . S
H1633 C1649 0.930 . S
H1634 C1650 0.931 . S
C1635 H1623 0.929 . S
C1635 C1629 1.390 . S
C1635 C1632 1.386 . S
C1636 C1631 1.490 . S
C1636 C1638 1.395 . S
C1636 C1639 1.403 . S
H1637 C1643 0.930 . S
C1638 H1624 0.930 . S
C1638 C1636 1.395 . S
C1638 C1641 1.403 . S
C1639 C1636 1.403 . S
C1639 C1640 1.524 . S
C1639 C1643 1.400 . S
C1640 H1625 0.960 . S
C1640 H1626 0.960 . S
C1640 H1627 0.960 . S
C1640 C1639 1.524 . S
C1641 C1638 1.403 . S
C1641 C1642 1.392 . S
C1641 C1645 1.495 . S
C1642 C1641 1.392 . S
C1642 C1643 1.385 . S
C1642 C1644 1.478 . S
C1643 H1637 0.930 . S
C1643 C1639 1.400 . S
C1643 C1642 1.385 . S
C1644 C1642 1.478 . S
C1644 C1646 1.381 . S
C1644 C1650 1.383 . S
C1645 C1641 1.495 . S
C1645 H1651 0.959 . S
C1645 H1652 0.961 . S
C1645 H1653 0.960 . S
C1646 C1644 1.381 . S
C1646 C1647 1.394 . S
C1646 H1654 0.930 . S
C1647 C1646 1.394 . S
C1647 C1648 1.383 . S
C1647 H1655 0.929 . S
C1648 C1647 1.383 . S
C1648 C1649 1.377 . S
C1649 H1633 0.930 . S
C1649 C1648 1.377 . S
C1649 C1650 1.379 . S
C1650 H1634 0.931 . S
C1650 C1644 1.383 . S
C1650 C1649 1.379 . S
H1651 C1645 0.959 . S
H1652 C1645 0.961 . S
H1653 C1645 0.960 . S
H1654 C1646 0.930 . S
H1655 C1647 0.929 . S
H1656 C1664 0.929 . S
H1657 C1666 0.930 . S
H1658 C1668 0.930 . S
H1659 C1671 0.929 . S
H1660 C1674 0.930 . S
H1661 C1676 0.960 . S
H1662 C1676 0.960 . S
H1663 C1676 0.960 . S
C1664 H1656 0.929 . S
C1664 C1665 1.377 . S
C1664 C1666 1.384 1_565 S
C1665 C1664 1.377 . S
C1665 C1671 1.390 . S
C1666 H1657 0.930 . S
C1666 C1664 1.384 1_545 S
C1666 C1667 1.372 . S
C1667 C1666 1.372 . S
C1667 C1668 1.400 1_545 S
C1667 C1672 1.490 . S
C1668 H1658 0.930 . S
C1668 C1667 1.400 1_565 S
C1668 C1671 1.386 . S
H1669 C1685 0.930 . S
H1670 C1686 0.931 . S
C1671 H1659 0.929 . S
C1671 C1665 1.390 . S
C1671 C1668 1.386 . S
C1672 C1667 1.490 . S
C1672 C1674 1.395 . S
C1672 C1675 1.403 . S
H1673 C1679 0.930 . S
C1674 H1660 0.930 . S
C1674 C1672 1.395 . S
C1674 C1677 1.403 . S
C1675 C1672 1.403 . S
C1675 C1676 1.524 . S
C1675 C1679 1.400 . S
C1676 H1661 0.960 . S
C1676 H1662 0.960 . S
C1676 H1663 0.960 . S
C1676 C1675 1.524 . S
C1677 C1674 1.403 . S
C1677 C1678 1.392 . S
C1677 C1681 1.495 . S
C1678 C1677 1.392 . S
C1678 C1679 1.385 . S
C1678 C1680 1.478 . S
C1679 H1673 0.930 . S
C1679 C1675 1.400 . S
C1679 C1678 1.385 . S
C1680 C1678 1.478 . S
C1680 C1682 1.381 . S
C1680 C1686 1.383 . S
C1681 C1677 1.495 . S
C1681 H1687 0.959 . S
C1681 H1688 0.961 . S
C1681 H1689 0.960 . S
C1682 C1680 1.381 . S
C1682 C1683 1.394 . S
C1682 H1690 0.930 . S
C1683 C1682 1.394 . S
C1683 C1684 1.383 . S
C1683 H1691 0.929 . S
C1684 C1683 1.383 . S
C1684 C1685 1.377 . S
C1685 H1669 0.930 . S
C1685 C1684 1.377 . S
C1685 C1686 1.379 . S
C1686 H1670 0.931 . S
C1686 C1680 1.383 . S
C1686 C1685 1.379 . S
H1687 C1681 0.959 . S
H1688 C1681 0.961 . S
H1689 C1681 0.960 . S
H1690 C1682 0.930 . S
H1691 C1683 0.929 . S
H1692 C1700 0.929 . S
H1693 C1702 0.930 . S
H1694 C1704 0.930 . S
H1695 C1707 0.929 . S
H1696 C1710 0.930 . S
H1697 C1712 0.960 . S
H1698 C1712 0.954 . S
H1699 C1712 0.960 . S
C1700 H1692 0.929 . S
C1700 C1701 1.377 . S
C1700 C1702 1.384 . S
C1701 C1700 1.377 . S
C1701 C1707 1.390 . S
C1702 H1693 0.930 . S
C1702 C1700 1.384 . S
C1702 C1703 1.372 . S
C1703 C1702 1.372 . S
C1703 C1704 1.400 . S
C1703 C1708 1.490 . S
C1704 H1694 0.930 . S
C1704 C1703 1.400 . S
C1704 C1707 1.386 . S
H1705 C1721 0.930 . S
H1706 C1722 0.931 . S
C1707 H1695 0.929 . S
C1707 C1701 1.390 . S
C1707 C1704 1.386 . S
C1708 C1703 1.490 . S
C1708 C1710 1.395 . S
C1708 C1711 1.403 . S
H1709 C1715 0.930 . S
C1710 H1696 0.930 . S
C1710 C1708 1.395 . S
C1710 C1713 1.403 . S
C1711 C1708 1.403 . S
C1711 C1712 1.524 1_655 S
C1711 C1715 1.400 1_655 S
C1712 H1697 0.960 . S
C1712 H1698 0.954 . S
C1712 H1699 0.960 . S
C1712 C1711 1.524 1_455 S
C1713 C1710 1.403 . S
C1713 C1714 1.392 . S
C1713 C1717 1.495 . S
C1714 C1713 1.392 . S
C1714 C1715 1.385 1_655 S
C1714 C1716 1.478 1_655 S
C1715 H1709 0.930 . S
C1715 C1711 1.400 1_455 S
C1715 C1714 1.385 1_455 S
C1716 C1714 1.478 1_455 S
C1716 C1718 1.381 . S
C1716 C1722 1.383 . S
C1717 C1713 1.495 . S
C1717 H1723 0.959 . S
C1717 H1724 0.961 . S
C1717 H1725 0.960 . S
C1718 C1716 1.381 . S
C1718 C1719 1.394 . S
C1718 H1726 0.930 . S
C1719 C1718 1.394 . S
C1719 C1720 1.383 . S
C1719 H1727 0.929 . S
C1720 C1719 1.383 . S
C1720 C1721 1.377 . S
C1721 H1705 0.930 . S
C1721 C1720 1.377 . S
C1721 C1722 1.379 . S
C1722 H1706 0.931 . S
C1722 C1716 1.383 . S
C1722 C1721 1.379 . S
H1723 C1717 0.959 . S
H1724 C1717 0.961 . S
H1725 C1717 0.960 . S
H1726 C1718 0.930 . S
H1727 C1719 0.929 . S
C765 C74 3.183 1_556 S
C784 C63 3.180 . S
C801 C158 3.232 . S
C820 C147 3.212 . S
C837 C242 3.222 . S
C856 C231 3.226 . S
C873 C315 3.145 . S
C892 C326 3.144 . S
C909 C392 3.291 . S
C928 C403 3.296 1_556 S
C945 C483 3.154 . S
C964 C494 3.162 1_556 S
C981 C562 2.509 . S
C1000 C574 2.520 . S
C1017 C658 2.307 . S
C1036 C646 2.310 1_556 S
C1053 C730 2.017 . S
C1072 C742 2.007 . S
C1089 C476 2.079 . S
C1108 C58 1.740 . S
C1125 C142 1.588 . S
C1144 C308 1.886 . S
C1161 C226 1.311 . S
C1180 C406 1.361 . S
C1197 C224 1.883 . S
C1216 C571 2.073 . S
C1233 C651 1.642 . S
C1252 C56 1.473 . S
C1269 C739 1.734 . S
C1288 C140 1.620 . S
C1305 C746 0.881 . S
C1324 C70 0.913 . S
C1341 C154 1.253 1_556 S
C1360 C578 1.277 . S
C1377 C644 1.369 . S
C1396 C238 1.383 . S
C1413 C235 1.983 . S
C1432 C322 1.727 . S
C1449 C399 2.578 . S
C1468 C67 2.522 . S
C1485 C151 2.172 . S
C1504 C490 1.914 . S
C1521 C735 1.339 . S
C1540 C310 1.330 . S
C1557 C567 1.519 . S
C1576 C410 1.423 . S
C1593 C655 1.581 . S
C1612 C478 1.642 . S
C1629 C560 1.909 . S
C1648 C487 1.817 . S
C1665 C319 1.159 . S
C1684 C662 1.255 . S
C1701 C728 1.291 . S
C1720 C394 1.306 . S
