# Generated by pormake.
# Topology whw, (6)-cn, num edge types: 1
# Building blocks:
#     Node 0, Type 0, BuildingBlock: BETDEL_clean_sbu_0, # of connection points: 6
#     Node 1, Type 0, BuildingBlock: BETDEL_clean_sbu_0, # of connection points: 6
#     Node 2, Type 0, BuildingBlock: BETDEL_clean_sbu_0, # of connection points: 6
#     Node 3, Type 0, BuildingBlock: BETDEL_clean_sbu_0, # of connection points: 6
#     Node 4, Type 0, BuildingBlock: BETDEL_clean_sbu_0, # of connection points: 6
#     Node 5, Type 0, BuildingBlock: BETDEL_clean_sbu_0, # of connection points: 6
#     Node 6, Type 0, BuildingBlock: BETDEL_clean_sbu_0, # of connection points: 6
#     Node 7, Type 0, BuildingBlock: BETDEL_clean_sbu_0, # of connection points: 6
#     Node 8, Type 0, BuildingBlock: BETDEL_clean_sbu_0, # of connection points: 6
#     Node 9, Type 0, BuildingBlock: BETDEL_clean_sbu_0, # of connection points: 6
#     Node 10, Type 0, BuildingBlock: BETDEL_clean_sbu_0, # of connection points: 6
#     Node 11, Type 0, BuildingBlock: BETDEL_clean_sbu_0, # of connection points: 6
#     Node 12, Type 0, BuildingBlock: BETDEL_clean_sbu_0, # of connection points: 6
#     Node 13, Type 0, BuildingBlock: BETDEL_clean_sbu_0, # of connection points: 6
#     Node 14, Type 0, BuildingBlock: BETDEL_clean_sbu_0, # of connection points: 6
#     Node 15, Type 0, BuildingBlock: BETDEL_clean_sbu_0, # of connection points: 6
#     Edge 16, Type (0, 0), BuildingBlock: CIFDUS_clean_linker_0, # of connection points: 2
#     Edge 17, Type (0, 0), BuildingBlock: CIFDUS_clean_linker_0, # of connection points: 2
#     Edge 18, Type (0, 0), BuildingBlock: CIFDUS_clean_linker_0, # of connection points: 2
#     Edge 19, Type (0, 0), BuildingBlock: CIFDUS_clean_linker_0, # of connection points: 2
#     Edge 20, Type (0, 0), BuildingBlock: CIFDUS_clean_linker_0, # of connection points: 2
#     Edge 21, Type (0, 0), BuildingBlock: CIFDUS_clean_linker_0, # of connection points: 2
#     Edge 22, Type (0, 0), BuildingBlock: CIFDUS_clean_linker_0, # of connection points: 2
#     Edge 23, Type (0, 0), BuildingBlock: CIFDUS_clean_linker_0, # of connection points: 2
#     Edge 24, Type (0, 0), BuildingBlock: CIFDUS_clean_linker_0, # of connection points: 2
#     Edge 25, Type (0, 0), BuildingBlock: CIFDUS_clean_linker_0, # of connection points: 2
#     Edge 26, Type (0, 0), BuildingBlock: CIFDUS_clean_linker_0, # of connection points: 2
#     Edge 27, Type (0, 0), BuildingBlock: CIFDUS_clean_linker_0, # of connection points: 2
#     Edge 28, Type (0, 0), BuildingBlock: CIFDUS_clean_linker_0, # of connection points: 2
#     Edge 29, Type (0, 0), BuildingBlock: CIFDUS_clean_linker_0, # of connection points: 2
#     Edge 30, Type (0, 0), BuildingBlock: CIFDUS_clean_linker_0, # of connection points: 2
#     Edge 31, Type (0, 0), BuildingBlock: CIFDUS_clean_linker_0, # of connection points: 2
#     Edge 32, Type (0, 0), BuildingBlock: CIFDUS_clean_linker_0, # of connection points: 2
#     Edge 33, Type (0, 0), BuildingBlock: CIFDUS_clean_linker_0, # of connection points: 2
#     Edge 34, Type (0, 0), BuildingBlock: CIFDUS_clean_linker_0, # of connection points: 2
#     Edge 35, Type (0, 0), BuildingBlock: CIFDUS_clean_linker_0, # of connection points: 2
#     Edge 36, Type (0, 0), BuildingBlock: CIFDUS_clean_linker_0, # of connection points: 2
#     Edge 37, Type (0, 0), BuildingBlock: CIFDUS_clean_linker_0, # of connection points: 2
#     Edge 38, Type (0, 0), BuildingBlock: CIFDUS_clean_linker_0, # of connection points: 2
#     Edge 39, Type (0, 0), BuildingBlock: CIFDUS_clean_linker_0, # of connection points: 2
#     Edge 40, Type (0, 0), BuildingBlock: CIFDUS_clean_linker_0, # of connection points: 2
#     Edge 41, Type (0, 0), BuildingBlock: CIFDUS_clean_linker_0, # of connection points: 2
#     Edge 42, Type (0, 0), BuildingBlock: CIFDUS_clean_linker_0, # of connection points: 2
#     Edge 43, Type (0, 0), BuildingBlock: CIFDUS_clean_linker_0, # of connection points: 2
#     Edge 44, Type (0, 0), BuildingBlock: CIFDUS_clean_linker_0, # of connection points: 2
#     Edge 45, Type (0, 0), BuildingBlock: CIFDUS_clean_linker_0, # of connection points: 2
#     Edge 46, Type (0, 0), BuildingBlock: CIFDUS_clean_linker_0, # of connection points: 2
#     Edge 47, Type (0, 0), BuildingBlock: CIFDUS_clean_linker_0, # of connection points: 2
#     Edge 48, Type (0, 0), BuildingBlock: CIFDUS_clean_linker_0, # of connection points: 2
#     Edge 49, Type (0, 0), BuildingBlock: CIFDUS_clean_linker_0, # of connection points: 2
#     Edge 50, Type (0, 0), BuildingBlock: CIFDUS_clean_linker_0, # of connection points: 2
#     Edge 51, Type (0, 0), BuildingBlock: CIFDUS_clean_linker_0, # of connection points: 2
#     Edge 52, Type (0, 0), BuildingBlock: CIFDUS_clean_linker_0, # of connection points: 2
#     Edge 53, Type (0, 0), BuildingBlock: CIFDUS_clean_linker_0, # of connection points: 2
#     Edge 54, Type (0, 0), BuildingBlock: CIFDUS_clean_linker_0, # of connection points: 2
#     Edge 55, Type (0, 0), BuildingBlock: CIFDUS_clean_linker_0, # of connection points: 2
#     Edge 56, Type (0, 0), BuildingBlock: CIFDUS_clean_linker_0, # of connection points: 2
#     Edge 57, Type (0, 0), BuildingBlock: CIFDUS_clean_linker_0, # of connection points: 2
#     Edge 58, Type (0, 0), BuildingBlock: CIFDUS_clean_linker_0, # of connection points: 2
#     Edge 59, Type (0, 0), BuildingBlock: CIFDUS_clean_linker_0, # of connection points: 2
#     Edge 60, Type (0, 0), BuildingBlock: CIFDUS_clean_linker_0, # of connection points: 2
#     Edge 61, Type (0, 0), BuildingBlock: CIFDUS_clean_linker_0, # of connection points: 2
#     Edge 62, Type (0, 0), BuildingBlock: CIFDUS_clean_linker_0, # of connection points: 2
#     Edge 63, Type (0, 0), BuildingBlock: CIFDUS_clean_linker_0, # of connection points: 2
# Relax obj value: 0.412
# Max RMSD: 0.205
# Mean RMSD: 0.197
data_MOF--net-whw--node1-BETDEL_clean_sbu_0--edge1-CIFDUS_clean_linker_0
_symmetry_space_group_name_H-M    P1
_symmetry_Int_Tables_number       1
_symmetry_cell_setting            triclinic
loop_
_symmetry_equiv_pos_as_xyz
'x, y, z'
_cell_length_a     40.94681
_cell_length_b     41.202322
_cell_length_c     23.731497
_cell_angle_alpha  87.899931
_cell_angle_beta   89.94651
_cell_angle_gamma 91.799509
loop_
_atom_site_label
_atom_site_type_symbol
_atom_site_fract_x
_atom_site_fract_y
_atom_site_fract_z
_atom_type_partial_charge
Dy0 Dy 0.01501 0.12327 0.17497 0.0
C1 C 0.90382 0.08666 1.03245 0.0
C2 C 0.0577 0.13797 0.25955 0.0
Dy3 Dy 0.95361 0.11013 0.09746 0.0
O4 O 0.04631 0.10931 0.24821 0.0
O5 O 0.04757 0.15898 0.2215 0.0
O6 O 0.02063 0.06927 0.1875 0.0
O7 O -0.00018 0.08777 0.11398 0.0
C8 C 0.00552 0.06212 0.1416 0.0
C9 C 0.96577 0.17105 0.12446 0.0
O10 O 0.93367 0.09395 0.18392 0.0
O11 O 0.97346 0.12034 0.23668 0.0
O12 O 0.90358 0.11337 0.05985 0.0
O13 O 0.93127 0.07241 0.04161 0.0
O14 O 0.95158 0.16346 0.07749 0.0
O15 O 0.96929 0.14606 0.15546 0.0
O16 O 0.03519 0.1439 0.09074 0.0
O17 O 0.99328 0.12373 1.03276 0.0
C18 C 0.94518 0.10401 0.23303 0.0
C19 C 0.02218 0.13929 0.03963 0.0
Dy20 Dy 0.10588 0.74347 0.4417 0.0
C21 C 0.11756 0.62816 0.31934 0.0
C22 C 0.11146 0.79304 0.51399 0.0
Dy23 Dy 0.1007 0.67697 0.38708 0.0
O24 O 0.12603 0.76566 0.51891 0.0
O25 O 0.0934 0.79369 0.46887 0.0
O26 O 0.15089 0.75578 0.39243 0.0
O27 O 0.14085 0.7071 0.41871 0.0
C28 C 0.15983 0.72602 0.39013 0.0
C29 C 0.04693 0.6938 0.43681 0.0
O30 O 0.10883 0.65996 0.47932 0.0
O31 O 0.09557 0.709 0.51725 0.0
O32 O 0.09138 0.62795 0.35037 0.0
O33 O 0.13419 0.65503 0.32569 0.0
O34 O 0.05244 0.66335 0.42868 0.0
O35 O 0.06733 0.71217 0.41069 0.0
O36 O 0.08133 0.76041 0.36025 0.0
O37 O 0.08711 0.71259 0.31221 0.0
C38 C 0.10035 0.67731 0.52346 0.0
C39 C 0.07908 0.74407 0.31262 0.0
Dy40 Dy 0.46576 0.87293 0.71779 0.0
C41 C 0.57249 0.89942 0.56041 0.0
C42 C 0.42133 0.85353 0.80011 0.0
Dy43 Dy 0.53139 0.88285 0.64914 0.0
O44 O 0.44558 0.8741 0.80621 0.0
O45 O 0.42072 0.84426 0.74833 0.0
O46 O 0.44595 0.91887 0.68193 0.0
O47 O 0.49696 0.91463 0.68913 0.0
C48 C 0.47445 0.93179 0.669 0.0
C49 C 0.52263 0.82607 0.70262 0.0
O50 O 0.55068 0.89585 0.73522 0.0
O51 O 0.5063 0.87049 0.78264 0.0
O52 O 0.57923 0.87954 0.60233 0.0
O53 O 0.54416 0.91162 0.56923 0.0
O54 O 0.55162 0.83709 0.68776 0.0
O55 O 0.50097 0.84293 0.67979 0.0
O56 O 0.44859 0.85057 0.63567 0.0
O57 O 0.4955 0.86445 0.58359 0.0
C58 C 0.53683 0.88281 0.78217 0.0
C59 C 0.46513 0.85193 0.58704 0.0
Dy60 Dy 0.39098 0.23356 0.92223 0.0
C61 C 0.36838 0.34615 0.78413 0.0
C62 C 0.38624 0.18771 1.0079 0.0
Dy63 Dy 0.39162 0.30049 0.85767 0.0
O64 O 0.36529 0.20987 0.99648 0.0
O65 O 0.40956 0.18943 0.97026 0.0
O66 O 0.35438 0.21413 0.86224 0.0
O67 O 0.35445 0.26367 0.88187 0.0
C68 C 0.34226 0.24229 0.85069 0.0
C69 C 0.4412 0.29255 0.92681 0.0
O70 O 0.37734 0.31807 0.9438 0.0
O71 O 0.38627 0.2691 0.99248 0.0
O72 O 0.39919 0.3425 0.79574 0.0
O73 O 0.35059 0.3251 0.81342 0.0
O74 O 0.43256 0.32154 0.90985 0.0
O75 O 0.4269 0.27095 0.89868 0.0
O76 O 0.42324 0.22083 0.84851 0.0
O77 O 0.41211 0.26655 0.79135 0.0
C78 C 0.38022 0.30056 0.99186 0.0
C79 C 0.42496 0.23707 0.79852 0.0
Dy80 Dy 0.02468 0.86175 0.8829 0.0
C81 C 0.9141 0.89484 1.01042 0.0
C82 C 0.0745 0.8574 0.80784 0.0
Dy83 Dy 0.95803 0.86641 0.94416 0.0
O84 O 0.0691 0.83723 0.85055 0.0
O85 O 0.05307 0.87986 0.80717 0.0
O86 O 0.04491 0.90049 0.9383 0.0
O87 O -0.00428 0.90028 0.91264 0.0
C88 C 0.01681 0.91378 0.94277 0.0
C89 C 0.96252 0.81632 0.87958 0.0
O90 O 0.94167 0.88245 0.8567 0.0
O91 O 0.98838 0.86757 0.8092 0.0
O92 O 0.91195 0.86473 0.99536 0.0
O93 O 0.94035 0.90906 0.98953 0.0
O94 O 0.93419 0.82687 0.89476 0.0
O95 O 0.98526 0.82889 0.90807 0.0
O96 O 0.03504 0.83044 0.96239 0.0
O97 O 0.98954 0.84365 1.0151 0.0
C98 C 0.95719 0.87629 0.80898 0.0
C99 C 0.01839 0.8293 1.0112 0.0
Dy100 Dy 0.36806 0.7388 0.21349 0.0
C101 C 0.36804 0.65094 1.0229 0.0
C102 C 0.38194 0.77198 0.31126 0.0
Dy103 Dy 0.35424 0.68481 0.11834 0.0
O104 O 0.40076 0.75205 0.28649 0.0
O105 O 0.35482 0.77409 0.28214 0.0
O106 O 0.41727 0.74574 0.17369 0.0
O107 O 0.39303 0.70034 0.17226 0.0
C108 C 0.41744 0.71654 0.15493 0.0
C109 C 0.30234 0.70569 0.17058 0.0
O110 O 0.35769 0.65264 0.19706 0.0
O111 O 0.3498 0.69393 0.26093 0.0
O112 O 0.34057 0.66487 1.03306 0.0
O113 O 0.38717 0.65427 0.06622 0.0
O114 O 0.30265 0.6773 0.14756 0.0
O115 O 0.32803 0.72242 0.15895 0.0
O116 O 0.36154 0.77294 0.13897 0.0
O117 O 0.36402 0.73289 0.07109 0.0
C118 C 0.35149 0.6628 0.24869 0.0
C119 C 0.36388 0.76387 0.08573 0.0
Dy120 Dy 0.49853 0.13098 0.38528 0.0
C121 C 0.61008 0.10547 0.51921 0.0
C122 C 0.45494 0.12481 0.29927 0.0
Dy123 Dy 0.56442 0.13187 0.45016 0.0
O124 O 0.47942 0.10641 0.30959 0.0
O125 O 0.45311 0.14648 0.33794 0.0
O126 O 0.47772 0.09314 0.44426 0.0
O127 O 0.52836 0.09439 0.42701 0.0
C128 C 0.50578 0.08139 0.45749 0.0
C129 C 0.55554 0.18354 0.38326 0.0
O130 O 0.58466 0.12244 0.36334 0.0
O131 O 0.53622 0.13034 0.31453 0.0
O132 O 0.60485 0.13651 0.51353 0.0
O133 O 0.59047 0.08941 0.48687 0.0
O134 O 0.58482 0.17552 0.39935 0.0
O135 O 0.5342 0.16687 0.41053 0.0
O136 O 0.48408 0.16192 0.459 0.0
O137 O 0.52882 0.15015 0.51671 0.0
C138 C 0.56826 0.12634 0.31516 0.0
C139 C 0.4993 0.16298 0.50915 0.0
Dy140 Dy 0.12007 0.24725 0.64192 0.0
C141 C 0.12398 0.36666 0.76549 0.0
C142 C 0.11783 0.20706 0.55296 0.0
Dy143 Dy 0.11723 0.3106 0.70812 0.0
O144 O 0.14194 0.22664 0.56529 0.0
O145 O 0.09533 0.20764 0.59193 0.0
O146 O 0.16551 0.23346 0.68495 0.0
O147 O 0.15659 0.28349 0.67113 0.0
C148 C 0.17519 0.26304 0.69462 0.0
C149 C 0.06017 0.27871 0.69435 0.0
O150 O 0.12064 0.33357 0.61962 0.0
O151 O 0.11829 0.28523 0.57213 0.0
O152 O 0.10197 0.36082 0.72749 0.0
O153 O 0.14308 0.34207 0.77069 0.0
O154 O 0.06638 0.29676 0.7369 0.0
O155 O 0.08338 0.28183 0.65977 0.0
O156 O 0.10344 0.22572 0.72697 0.0
O157 O 0.11978 0.27087 0.77763 0.0
C158 C 0.11969 0.31736 0.57212 0.0
C159 C 0.10875 0.23998 0.77597 0.0
Dy160 Dy 0.88493 0.22054 0.72429 0.0
C161 C 0.87844 0.13001 0.54214 0.0
C162 C 0.90217 0.25796 0.81598 0.0
Dy163 Dy 0.86585 0.1688 0.63126 0.0
O164 O 0.90382 0.22657 0.81367 0.0
O165 O 0.88948 0.26886 0.76874 0.0
O166 O 0.93633 0.21354 0.69856 0.0
O167 O 0.90316 0.17444 0.69469 0.0
C168 C 0.93169 0.18391 0.68321 0.0
C169 C 0.81694 0.20429 0.66432 0.0
O170 O 0.85439 0.13973 0.71063 0.0
O171 O 0.85033 0.18452 0.7683 0.0
O172 O 0.85431 0.14977 0.54457 0.0
O173 O 0.89414 0.1302 0.58974 0.0
O174 O 0.81243 0.17602 0.64164 0.0
O175 O 0.84667 0.21347 0.66143 0.0
O176 O 0.88964 0.25274 0.64628 0.0
O177 O 0.89213 0.20998 0.58495 0.0
C178 C 0.84609 0.15297 0.75877 0.0
C179 C 0.89524 0.24127 0.59565 0.0
Dy180 Dy 0.62625 0.72515 0.12563 0.0
C181 C 0.63312 0.8322 0.27488 0.0
C182 C 0.62094 0.6783 0.04742 0.0
Dy183 Dy 0.62256 0.78866 0.19112 0.0
O184 O 0.60326 0.67916 0.0928 0.0
O185 O 0.6417 0.70274 0.04533 0.0
O186 O 0.67256 0.71285 0.16673 0.0
O187 O 0.66243 0.76261 0.15214 0.0
C188 C 0.68195 0.74269 0.17477 0.0
C189 C 0.56807 0.7703 0.14161 0.0
O190 O 0.6273 0.8115 0.10152 0.0
O191 O 0.61653 0.76263 0.05803 0.0
O192 O 0.61048 0.83412 0.23669 0.0
O193 O 0.65066 0.80729 0.26556 0.0
O194 O 0.57378 0.80047 0.15388 0.0
O195 O 0.58883 0.75224 0.164 0.0
O196 O 0.60471 0.70272 0.20566 0.0
O197 O 0.60966 0.74882 0.25925 0.0
C198 C 0.61893 0.79484 0.0559 0.0
C199 C 0.60243 0.7171 0.2547 0.0
Dy200 Dy 0.61526 0.25389 0.9182 0.0
C201 C 0.63689 0.1342 0.81035 0.0
C202 C 0.61753 0.3036 0.99068 0.0
Dy203 Dy 0.61274 0.1852 0.86423 0.0
O204 O 0.5973 0.30161 0.94843 0.0
O205 O 0.63642 0.27895 0.992 0.0
O206 O 0.6563 0.27124 0.8613 0.0
O207 O 0.65006 0.22156 0.88414 0.0
C208 C 0.66512 0.24201 0.85211 0.0
C209 C 0.56218 0.19741 0.9284 0.0
O210 O 0.62468 0.16941 0.95399 0.0
O211 O 0.61616 0.2188 0.99552 0.0
O212 O 0.606 0.14092 0.81307 0.0
O213 O 0.65438 0.15579 0.8363 0.0
O214 O 0.56923 0.16767 0.917 0.0
O215 O 0.57881 0.21743 0.89803 0.0
O216 O 0.58478 0.26516 0.83938 0.0
O217 O 0.59481 0.2181 0.79046 0.0
C218 C 0.62088 0.18692 0.9995 0.0
C219 C 0.58291 0.24808 0.7922 0.0
Dy220 Dy 0.87299 0.74929 0.45186 0.0
C221 C 0.86261 0.86017 0.30141 0.0
C222 C 0.86363 0.70756 0.54296 0.0
Dy223 Dy 0.88079 0.81305 0.3767 0.0
O224 O 0.8489 0.73455 0.5335 0.0
O225 O 0.88355 0.70248 0.50139 0.0
O226 O 0.8293 0.73498 0.40215 0.0
O227 O 0.84037 0.78447 0.41367 0.0
C228 C 0.82197 0.76463 0.38866 0.0
C229 C 0.9323 0.79859 0.43714 0.0
O230 O 0.87546 0.83583 0.46223 0.0
O231 O 0.88138 0.78823 0.51678 0.0
O232 O 0.89264 0.85438 0.31556 0.0
O233 O 0.84265 0.84 0.32824 0.0
O234 O 0.92806 0.82824 0.41788 0.0
O235 O 0.91232 0.77892 0.41523 0.0
O236 O 0.89814 0.72845 0.37503 0.0
O237 O 0.89183 0.77337 0.31313 0.0
C238 C 0.88029 0.82046 0.51202 0.0
C239 C 0.89992 0.74226 0.32275 0.0
Dy240 Dy 0.53075 0.59979 0.6728 0.0
C241 C 0.417 0.59259 0.52772 0.0
C242 C 0.57699 0.60531 0.75496 0.0
Dy243 Dy 0.46313 0.60538 0.60781 0.0
O244 O 0.55152 0.5858 0.75726 0.0
O245 O 0.578 0.62097 0.70639 0.0
O246 O 0.5419 0.55442 0.62905 0.0
O247 O 0.49286 0.56679 0.64306 0.0
C248 C 0.51128 0.54788 0.61857 0.0
C249 C 0.48412 0.65672 0.66177 0.0
O250 O 0.44328 0.59321 0.6956 0.0
O251 O 0.49277 0.60441 0.74109 0.0
O252 O 0.41854 0.61854 0.55741 0.0
O253 O 0.43991 0.57324 0.54356 0.0
O254 O 0.4531 0.65214 0.65076 0.0
O255 O 0.50081 0.63674 0.63723 0.0
O256 O 0.54905 0.62583 0.59268 0.0
O257 O 0.50111 0.62103 0.53965 0.0
C258 C 0.46059 0.59852 0.74232 0.0
C259 C 0.5329 0.62935 0.54405 0.0
Dy260 Dy 0.99121 0.35413 0.22184 0.0
C261 C 0.08424 0.41397 0.06302 0.0
C262 C 0.95488 0.32396 0.30519 0.0
Dy263 Dy 0.04705 0.38287 0.14582 0.0
O264 O 0.96593 0.35379 0.30576 0.0
O265 O 0.96325 0.31072 0.25868 0.0
O266 O 0.95733 0.3915 0.18868 0.0
O267 O 0.00776 0.40327 0.19346 0.0
C268 C 0.98047 0.4128 0.17606 0.0
C269 C 0.0578 0.324 0.19032 0.0
O270 O 0.06335 0.39956 0.23226 0.0
O271 O 0.03222 0.36021 0.28244 0.0
O272 O 0.09542 0.39907 0.10772 0.0
O273 O 0.05252 0.41288 0.06485 0.0
O274 O 0.08131 0.34333 0.17178 0.0
O275 O 0.03109 0.3354 0.17456 0.0
O276 O 0.97578 0.33012 0.14261 0.0
O277 O 0.01142 0.35944 0.08185 0.0
C278 C 0.05603 0.38253 0.27985 0.0
C279 C 0.98631 0.33815 0.09084 0.0
Dy280 Dy 0.51863 0.35044 0.36339 0.0
C281 C 0.40224 0.37523 0.48144 0.0
C282 C 0.57026 0.35286 0.29081 0.0
Dy283 Dy 0.44891 0.34964 0.41693 0.0
O284 O 0.54716 0.37359 0.29163 0.0
O285 O 0.56566 0.33086 0.33112 0.0
O286 O 0.53535 0.38719 0.42461 0.0
O287 O 0.48666 0.38598 0.39569 0.0
C288 C 0.50642 0.39857 0.42959 0.0
C289 C 0.45961 0.30112 0.35092 0.0
O290 O 0.43448 0.36493 0.32774 0.0
O291 O 0.48526 0.35654 0.28706 0.0
O292 O 0.40468 0.34429 0.47269 0.0
O293 O 0.42491 0.39183 0.45385 0.0
O294 O 0.42986 0.30935 0.3628 0.0
O295 O 0.48013 0.31497 0.38236 0.0
O296 O 0.52828 0.31821 0.44111 0.0
O297 O 0.48057 0.32911 0.49009 0.0
C298 C 0.45359 0.36263 0.28257 0.0
C299 C 0.51042 0.31651 0.48849 0.0
Dy300 Dy 0.94927 0.61881 0.9097 0.0
C301 C 0.07325 0.61349 1.02102 0.0
C302 C 0.90238 0.61371 0.82805 0.0
Dy303 Dy 0.0193 0.62694 0.95888 0.0
O304 O 0.92763 0.59577 0.83396 0.0
O305 O 0.90121 0.63312 0.87013 0.0
O306 O 0.93767 0.57728 0.96854 0.0
O307 O 0.98644 0.58566 0.94049 0.0
C308 C 0.96791 0.56912 0.97421 0.0
C309 C -0.00159 0.67644 0.89717 0.0
O310 O 0.03438 0.61616 0.86858 0.0
O311 O 0.98251 0.62366 0.83228 0.0
O312 O 0.06734 0.6417 0.99756 0.0
O313 O 0.04944 0.59305 1.01113 0.0
O314 O 0.02957 0.67156 0.90305 0.0
O315 O 0.98206 0.65783 0.92988 0.0
O316 O 0.93691 0.64818 0.98709 0.0
O317 O 0.98733 0.64405 1.03271 0.0
C318 C 0.01453 0.62064 0.82451 0.0
C319 C 0.95591 0.65284 1.03259 0.0
H320 H 0.06654 0.19155 1.02605 0.0
H321 H 0.01703 0.11677 0.93304 0.0
H322 H 0.04144 0.13892 0.84538 0.0
H323 H 0.07517 0.18094 0.79313 0.0
H324 H 0.11999 0.25919 0.88431 0.0
H325 H 0.09984 0.23426 0.9732 0.0
C326 C 0.06126 0.17992 0.98674 0.0
C327 C 0.0398 0.15225 0.98698 0.0
C328 C 0.07472 0.19354 0.93539 0.0
C329 C 0.03327 0.13797 0.9349 0.0
C330 C 0.04732 0.15067 0.88437 0.0
C331 C 0.08073 0.19257 0.83235 0.0
C332 C 0.09916 0.22227 0.83099 0.0
C333 C 0.06784 0.17867 0.88379 0.0
C334 C 0.10594 0.23652 0.88307 0.0
C335 C 0.09425 0.22225 0.93434 0.0
H336 H 0.08998 0.73614 0.19606 0.0
H337 H 0.03451 0.79212 0.3101 0.0
H338 H 0.01043 0.82186 0.23043 0.0
H339 H 0.005 0.83365 0.12685 0.0
H340 H 0.06336 0.78082 1.01245 0.0
H341 H 0.08573 0.74919 0.09188 0.0
C342 C 0.07254 0.75473 0.20368 0.0
C343 C 0.06435 0.76135 0.26045 0.0
C344 C 0.05906 0.77287 0.15667 0.0
C345 C 0.04178 0.7861 0.26794 0.0
C346 C 0.02778 0.80333 0.22189 0.0
C347 C 0.02258 0.81522 0.11897 0.0
C348 C 0.03208 0.81008 0.0623 0.0
C349 C 0.03624 0.79721 0.1658 0.0
C350 C 0.05529 0.78593 0.05459 0.0
C351 C 0.06821 0.76755 0.10051 0.0
H352 H 0.44179 0.77644 0.36047 0.0
H353 H 0.3428 0.80588 0.38277 0.0
H354 H 0.35849 0.83186 0.471 0.0
H355 H 0.40136 0.84667 0.54297 0.0
H356 H 0.50056 0.8189 0.51386 0.0
H357 H 0.48384 0.79208 0.42863 0.0
C358 C 0.42353 0.78855 0.38448 0.0
C359 C 0.39103 0.78898 0.36457 0.0
C360 C 0.43288 0.80386 0.43474 0.0
C361 C 0.36797 0.80509 0.39659 0.0
C362 C 0.37699 0.81993 0.44735 0.0
C363 C 0.41923 0.83462 0.5181 0.0
C364 C 0.45238 0.835 0.53565 0.0
C365 C 0.40949 0.81952 0.46717 0.0
C366 C 0.47503 0.8194 0.50194 0.0
C367 C 0.46547 0.80388 0.45284 0.0
H368 H 0.41708 0.24668 0.68172 0.0
H369 H 0.4734 0.19243 0.80387 0.0
H370 H 0.5019 0.16641 0.72788 0.0
H371 H 0.51046 0.15719 0.62548 0.0
H372 H 0.45162 0.20866 0.50342 0.0
H373 H 0.42521 0.23693 0.57915 0.0
C374 C 0.43565 0.22925 0.69193 0.0
C375 C 0.44269 0.22184 0.74964 0.0
C376 C 0.45171 0.21341 0.64727 0.0
C377 C 0.4669 0.19881 0.76073 0.0
C378 C 0.48342 0.18379 0.71687 0.0
C379 C 0.49188 0.17459 0.61517 0.0
C380 C 0.48331 0.18032 0.55761 0.0
C381 C 0.47595 0.19056 0.65976 0.0
C382 C 0.4589 0.20314 0.54647 0.0
C383 C 0.44368 0.21955 0.59019 0.0
H384 H 0.89292 0.91421 0.25758 0.0
H385 H 0.81424 0.84497 0.22842 0.0
H386 H 0.81756 0.85719 0.12721 0.0
H387 H 0.85486 0.87396 0.04939 0.0
H388 H 0.93396 0.94279 0.07888 0.0
H389 H 0.91778 0.94541 0.17738 0.0
C390 C 0.87548 0.9031 0.22913 0.0
C391 C 0.85426 0.87804 0.24938 0.0
C392 C 0.87808 0.9097 0.17105 0.0
C393 C 0.83116 0.86407 0.21313 0.0
C394 C 0.83329 0.87077 0.15521 0.0
C395 C 0.86753 0.89062 0.07691 0.0
C396 C 0.89621 0.90705 0.05823 0.0
C397 C 0.8585 0.89146 0.1337 0.0
C398 C 0.91214 0.92932 0.09313 0.0
C399 C 0.90308 0.93063 0.14958 0.0
H400 H 0.86834 0.09306 0.78399 0.0
H401 H 0.80605 0.16646 0.84555 0.0
H402 H 0.81149 0.14418 0.94158 0.0
H403 H 0.84713 0.11539 1.00785 0.0
H404 H 0.91377 0.04573 0.94675 0.0
H405 H 0.89282 0.05403 0.85116 0.0
C406 C 0.85472 0.10316 0.81808 0.0
C407 C 0.83761 0.13184 0.8083 0.0
C408 C 0.85947 0.0913 0.8736 0.0
C409 C 0.8199 0.1447 0.85256 0.0
C410 C 0.82323 0.13213 0.90752 0.0
C411 C 0.85607 0.10107 0.97393 0.0
C412 C 0.88261 0.08087 0.98359 0.0
C413 C 0.84503 0.10717 0.91882 0.0
C414 C 0.89366 0.06188 0.93992 0.0
C415 C 0.88191 0.06688 0.88512 0.0
H416 H 0.60842 0.08048 0.76773 0.0
H417 H 0.69545 0.1416 0.75671 0.0
H418 H 0.70027 0.1318 0.65618 0.0
H419 H 0.66725 0.12192 0.57028 0.0
H420 H 0.58291 0.0569 0.58339 0.0
H421 H 0.59005 0.05096 0.68474 0.0
C422 C 0.62944 0.09009 0.74395 0.0
C423 C 0.65008 0.11367 0.76735 0.0
C424 C 0.63207 0.08415 0.68654 0.0
C425 C 0.67816 0.12486 0.73779 0.0
C426 C 0.68086 0.11938 0.68035 0.0
C427 C 0.65163 0.10511 0.5951 0.0
C428 C 0.62394 0.09083 0.57044 0.0
C429 C 0.65599 0.10169 0.65353 0.0
C430 C 0.60412 0.06849 0.60206 0.0
C431 C 0.608 0.06529 0.66018 0.0
H432 H 0.62596 0.86644 0.52951 0.0
H433 H 0.55275 0.93061 0.46401 0.0
H434 H 0.56804 0.91855 0.36769 0.0
H435 H 0.59606 0.883 0.30293 0.0
H436 H 0.66949 0.81907 0.3683 0.0
H437 H 0.66066 0.83805 0.46328 0.0
C438 C 0.61402 0.87849 0.49412 0.0
C439 C 0.58795 0.89903 0.50394 0.0
C440 C 0.62265 0.87108 0.43865 0.0
C441 C 0.57277 0.91454 0.45764 0.0
C442 C 0.58135 0.90748 0.40246 0.0
C443 C 0.61068 0.87385 0.33777 0.0
C444 C 0.63303 0.84933 0.32872 0.0
C445 C 0.6053 0.88474 0.39251 0.0
C446 C 0.65197 0.83783 0.37418 0.0
C447 C 0.64682 0.84856 0.42864 0.0
H448 H 0.61452 0.72151 0.36907 0.0
H449 H 0.55541 0.66916 0.25031 0.0
H450 H 0.52843 0.63801 0.32757 0.0
H451 H 0.52087 0.6254 0.4299 0.0
H452 H 0.58312 0.6744 0.54839 0.0
H453 H 0.60932 0.70643 0.4713 0.0
C454 C 0.59578 0.70325 0.36014 0.0
C455 C 0.58711 0.6979 0.30353 0.0
C456 C 0.58079 0.68452 0.40515 0.0
C457 C 0.56289 0.67381 0.29313 0.0
C458 C 0.54728 0.65595 0.33749 0.0
C459 C 0.54026 0.64298 0.43886 0.0
C460 C 0.54984 0.64729 0.49536 0.0
C461 C 0.55594 0.66102 0.39381 0.0
C462 C 0.57526 0.67017 0.50564 0.0
C463 C 0.59024 0.68873 0.46138 0.0
H464 H 0.58722 0.2328 0.67821 0.0
H465 H 0.53886 0.29718 0.78807 0.0
H466 H 0.51104 0.32216 0.70718 0.0
H467 H 0.50106 0.32768 0.60321 0.0
H468 H 0.55236 0.26587 0.49288 0.0
H469 H 0.5775 0.2385 0.57432 0.0
C470 C 0.57056 0.25224 0.68473 0.0
C471 C 0.56562 0.26282 0.74046 0.0
C472 C 0.55484 0.26734 0.63703 0.0
C473 C 0.54377 0.28832 0.7466 0.0
C474 C 0.5276 0.30274 0.6999 0.0
C475 C 0.51759 0.30811 0.59682 0.0
C476 C 0.52449 0.29917 0.54078 0.0
C477 C 0.53303 0.29276 0.64459 0.0
C478 C 0.54642 0.27377 0.5346 0.0
C479 C 0.56094 0.25792 0.5816 0.0
H480 H 0.97315 0.35876 0.97953 0.0
H481 H 0.96373 0.2757 0.09495 0.0
H482 H 0.93788 0.24385 1.02188 0.0
H483 H 0.91727 0.23879 0.92464 0.0
H484 H 0.9211 0.3226 0.81072 0.0
H485 H 0.94907 0.35449 0.88267 0.0
C486 C 0.9656 0.33366 0.98854 0.0
C487 C 0.97101 0.31973 0.04311 0.0
C488 C 0.94929 0.31544 0.94627 0.0
C489 C 0.96027 0.28724 0.05373 0.0
C490 C 0.94532 0.26886 1.01176 0.0
C491 C 0.924 0.26411 0.9156 0.0
C492 C 0.91689 0.27811 0.86192 0.0
C493 C 0.93954 0.28262 0.95786 0.0
C494 C 0.92588 0.31107 0.85151 0.0
C495 C 0.94213 0.32936 0.89275 0.0
H496 H 0.88445 0.74491 0.20733 0.0
H497 H 0.94616 0.69505 0.32679 0.0
H498 H 0.96951 0.6645 0.2506 0.0
H499 H 0.97305 0.6511 0.14812 0.0
H500 H 0.90748 0.69747 1.03065 0.0
H501 H 0.88565 0.72924 0.10627 0.0
C502 C 0.903 0.72737 0.21696 0.0
C503 C 0.91333 0.72286 0.27402 0.0
C504 C 0.91592 0.70877 0.17238 0.0
C505 C 0.93728 0.69942 0.28429 0.0
C506 C 0.95085 0.68179 0.24022 0.0
C507 C 0.95393 0.66808 0.13882 0.0
C508 C 0.9423 0.67144 0.08226 0.0
C509 C 0.94047 0.6861 0.18379 0.0
C510 C 0.91718 0.69373 0.07274 0.0
C511 C 0.90459 0.71221 0.11645 0.0
H512 H 0.34713 0.35123 0.53267 0.0
H513 H 0.42277 0.42596 0.54278 0.0
H514 H 0.41294 0.42976 0.64346 0.0
H515 H 0.3946 0.39958 0.72991 0.0
H516 H 0.31768 0.32618 0.71973 0.0
H517 H 0.31526 0.3349 0.61778 0.0
C518 C 0.36026 0.36941 0.55654 0.0
C519 C 0.38634 0.38736 0.53142 0.0
C520 C 0.35463 0.3713 0.61453 0.0
C521 C 0.40289 0.41142 0.56185 0.0
C522 C 0.39751 0.41342 0.61957 0.0
C523 C 0.37628 0.38671 0.7055 0.0
C524 C 0.35723 0.36157 0.73135 0.0
C525 C 0.37524 0.39164 0.64685 0.0
C526 C 0.33301 0.34535 0.70018 0.0
C527 C 0.33182 0.35008 0.64178 0.0
H528 H 0.35998 0.61996 0.4983 0.0
H529 H 0.43697 0.56257 0.43433 0.0
H530 H 0.41865 0.57371 0.33773 0.0
H531 H 0.38813 0.60972 0.27199 0.0
H532 H 0.31065 0.66612 0.33732 0.0
H533 H 0.32083 0.64453 0.43231 0.0
C534 C 0.37197 0.60902 0.46325 0.0
C535 C 0.40002 0.59103 0.47309 0.0
C536 C 0.36133 0.61556 0.40786 0.0
C537 C 0.41531 0.57665 0.42762 0.0
C538 C 0.40499 0.58321 0.37228 0.0
C539 C 0.37255 0.61604 0.30664 0.0
C540 C 0.34917 0.63994 0.29798 0.0
C541 C 0.37905 0.60402 0.36175 0.0
C542 C 0.32914 0.64805 0.34323 0.0
C543 C 0.33512 0.63595 0.39771 0.0
H544 H 0.15504 0.64249 0.22858 0.0
H545 H 0.08652 0.57029 0.29856 0.0
H546 H 0.07436 0.55151 0.20411 0.0
H547 H 0.07046 0.56767 0.1043 0.0
H548 H 0.12974 0.64839 0.03722 0.0
H549 H 0.15885 0.65163 0.12683 0.0
C550 C 0.13839 0.62182 0.22323 0.0
C551 C 0.12087 0.60834 0.26974 0.0
C552 C 0.12931 0.61339 0.16879 0.0
C553 C 0.09979 0.58131 0.26287 0.0
C554 C 0.0926 0.57086 0.20887 0.0
C555 C 0.09058 0.58516 0.1088 0.0
C556 C 0.09761 0.60831 0.06528 0.0
C557 C 0.10516 0.58855 0.16162 0.0
C558 C 0.12373 0.63074 0.0709 0.0
C559 C 0.14019 0.63268 0.12214 0.0
H560 H 0.16286 0.37666 0.85609 0.0
H561 H 0.07625 0.41072 0.7726 0.0
H562 H 0.05928 0.43641 0.8584 0.0
H563 H 0.06257 0.43696 0.96181 0.0
H564 H 0.14813 0.40092 0.046 0.0
H565 H 0.17245 0.38921 0.95538 0.0
C566 C 0.1409 0.39072 0.85617 0.0
C567 C 0.12037 0.39108 0.80878 0.0
C568 C 0.13083 0.40466 0.90618 0.0
C569 C 0.09221 0.40971 0.80896 0.0
C570 C 0.08236 0.42422 0.85817 0.0
C571 C 0.08704 0.42768 0.96009 0.0
C572 C 0.10316 0.41893 1.01035 0.0
C573 C 0.10044 0.42004 0.9079 0.0
C574 C 0.13504 0.40741 1.00777 0.0
C575 C 0.14886 0.40042 0.95595 0.0
H576 H 0.06518 0.28804 0.10284 0.0
H577 H 0.05241 0.28384 0.28292 0.0
H578 H 0.02231 0.23173 0.27759 0.0
H579 H 0.98888 0.19562 0.21936 0.0
H580 H 0.99308 0.20729 0.03805 0.0
H581 H 0.03545 0.24988 0.0452 0.0
C582 C 0.05723 0.27465 0.14098 0.0
C583 C 0.06054 0.28919 0.19301 0.0
C584 C 0.03636 0.2476 0.13663 0.0
C585 C 0.05012 0.2725 0.24256 0.0
C586 C 0.03207 0.24341 0.23923 0.0
C587 C -0.00085 0.20768 0.18163 0.0
C588 C 0.98794 0.199 0.12847 0.0
C589 C 0.02301 0.23228 0.18618 0.0
C590 C 0.00114 0.21429 0.07948 0.0
C591 C 0.02571 0.2381 0.08351 0.0
H592 H 0.92415 0.74639 0.50586 0.0
H593 H 0.98609 0.83143 0.47791 0.0
H594 H 0.03292 0.80128 0.51143 0.0
H595 H 0.0543 0.74944 0.48814 0.0
H596 H 0.99199 0.66373 0.48346 0.0
H597 H 0.94736 0.69357 0.52362 0.0
C598 C 0.94767 0.75847 0.50962 0.0
C599 C 0.95286 0.78958 0.48486 0.0
C600 C 0.97457 0.73974 0.52054 0.0
C601 C 0.98235 0.80657 0.49364 0.0
C602 C 0.00907 0.78915 0.51226 0.0
C603 C 0.03144 0.73704 0.49819 0.0
C604 C 0.02525 0.70562 0.47946 0.0
C605 C 0.00583 0.75508 0.51611 0.0
C606 C -0.00367 0.68869 0.49496 0.0
C607 C 0.97103 0.70576 0.51806 0.0
H608 H 0.45271 0.69802 0.72703 0.0
H609 H 0.54833 0.67027 0.67447 0.0
H610 H 0.57273 0.71965 0.70984 0.0
H611 H 0.56312 0.77694 0.72005 0.0
H612 H 0.46654 0.80787 0.75687 0.0
H613 H 0.44629 0.75173 0.76623 0.0
C614 C 0.47895 0.70254 0.72511 0.0
C615 C 0.49866 0.6815 0.6967 0.0
C616 C 0.49251 0.73205 0.74211 0.0
C617 C 0.53273 0.68655 0.69576 0.0
C618 C 0.54671 0.71494 0.71565 0.0
C619 C 0.53804 0.77117 0.73258 0.0
C620 C 0.51549 0.79572 0.73387 0.0
C621 C 0.52639 0.73904 0.73369 0.0
C622 C 0.4835 0.78871 0.75255 0.0
C623 C 0.47202 0.75668 0.75775 0.0
H624 H 0.56756 0.25285 0.98264 0.0
H625 H 0.51207 0.16274 0.98183 0.0
H626 H 0.46504 0.18954 1.02023 0.0
H627 H 0.43719 0.23983 0.99632 0.0
H628 H 0.49206 0.32939 0.96756 0.0
H629 H 0.54122 0.30343 1.00199 0.0
C630 C 0.54557 0.23897 0.99297 0.0
C631 C 0.54191 0.207 0.97526 0.0
C632 C 0.51807 0.25536 1.00839 0.0
C633 C 0.51447 0.18809 0.9922 0.0
C634 C 0.48757 0.20355 1.01364 0.0
C635 C 0.45962 0.25386 1.0 0.0
C636 C 0.4622 0.28519 0.97502 0.0
C637 C 0.48805 0.23769 1.01293 0.0
C638 C 0.4903 0.30446 0.98371 0.0
C639 C 0.51844 0.28944 1.0028 0.0
H640 H 0.91893 0.77888 0.82599 0.0
H641 H 0.01766 0.81587 0.81351 0.0
H642 H 0.03499 0.76674 0.77247 0.0
H643 H 0.02915 0.71206 0.8144 0.0
H644 H 0.93443 0.67979 0.87485 0.0
H645 H 0.90846 0.72146 0.81965 0.0
C646 C 0.94388 0.77632 0.81161 0.0
C647 C 0.96781 0.79874 0.82806 0.0
C648 C 0.95452 0.74577 0.79784 0.0
C649 C -0.00061 0.79741 0.8054 0.0
C650 C 0.00924 0.76903 0.78176 0.0
C651 C 0.00275 0.71384 0.81336 0.0
C652 C 0.9836 0.69404 0.84996 0.0
C653 C 0.98869 0.74164 0.79009 0.0
C654 C 0.94946 0.69476 0.8467 0.0
C655 C 0.93469 0.71925 0.81555 0.0
H656 H 0.55041 0.70847 0.1253 0.0
H657 H 0.52986 0.80689 0.07236 0.0
H658 H 0.47708 0.78891 1.03524 0.0
H659 H 0.432 0.75241 0.06191 0.0
H660 H 0.44994 0.66032 0.14457 0.0
H661 H 0.50781 0.66609 0.12067 0.0
C662 C 0.53488 0.72561 0.1034 0.0
C663 C 0.54257 0.75893 0.10398 0.0
C664 C 0.50367 0.7155 0.0872 0.0
C665 C 0.52317 0.78122 0.07458 0.0
C666 C 0.49325 0.77088 0.05299 0.0
C667 C 0.44853 0.7329 0.07156 0.0
C668 C 0.43828 0.70753 0.10874 0.0
C669 C 0.48193 0.73899 0.06559 0.0
C670 C 0.45829 0.68099 0.11825 0.0
C671 C 0.49147 0.6847 0.10565 0.0
H672 H 0.50232 0.17753 0.32 0.0
H673 H 0.59214 0.23333 0.33148 0.0
H674 H 0.56701 0.27855 0.27996 0.0
H675 H 0.51516 0.30621 0.28999 0.0
H676 H 0.42477 0.25082 0.30533 0.0
H677 H 0.45304 0.20184 0.2828 0.0
C678 C 0.51673 0.199 0.30908 0.0
C679 C 0.54778 0.20336 0.33294 0.0
C680 C 0.50113 0.22545 0.28512 0.0
C681 C 0.56733 0.23042 0.31623 0.0
C682 C 0.55283 0.25629 0.28728 0.0
C683 C 0.50153 0.28367 0.28579 0.0
C684 C 0.46898 0.28096 0.3045 0.0
C685 C 0.51871 0.25539 0.28031 0.0
C686 C 0.45048 0.25272 0.29443 0.0
C687 C 0.46683 0.22466 0.28239 0.0
H688 H 0.03977 0.24037 0.61091 0.0
H689 H 0.03535 0.25096 0.79099 0.0
H690 H 0.00583 0.19897 0.80256 0.0
H691 H 0.97211 0.15746 0.76011 0.0
H692 H 0.95734 0.16182 0.58246 0.0
H693 H 0.00743 0.19535 0.56883 0.0
C694 C 0.03264 0.23091 0.65254 0.0
C695 C 0.03968 0.2491 0.69998 0.0
C696 C 0.0139 0.20208 0.65856 0.0
C697 C 0.02979 0.23734 0.75382 0.0
C698 C 0.01357 0.20733 0.76065 0.0
C699 C 0.98095 0.16489 0.71829 0.0
C700 C 0.95906 0.16285 0.67337 0.0
C701 C 0.00469 0.18998 0.71324 0.0
C702 C 0.97218 0.16728 0.61887 0.0
C703 C 9e-05 0.18749 0.61118 0.0
H704 H 0.98503 0.04795 0.03816 0.0
H705 H 0.03059 0.00615 0.18625 0.0
H706 H 0.03879 0.95578 0.1369 0.0
H707 H 0.03517 0.92513 0.04923 0.0
H708 H 0.98402 0.96581 0.90591 0.0
H709 H 0.9748 0.01538 0.95643 0.0
C710 C -0.00444 0.02746 0.06044 0.0
C711 C 0.0068 0.03048 0.11571 0.0
C712 C -0.00054 -0.00128 1.03245 0.0
C713 C 0.02166 0.00418 0.14352 0.0
C714 C 0.02644 0.97552 0.11534 0.0
C715 C 0.02207 0.945 1.02947 0.0
C716 C 0.01083 0.94265 0.97405 0.0
C717 C 0.01594 0.97281 0.05941 0.0
C718 C 0.9931 0.96771 0.94858 0.0
C719 C 0.98782 -0.00415 0.97734 0.0
H720 H 0.19777 0.76572 0.32456 0.0
H721 H 0.18622 0.66581 0.38385 0.0
H722 H 0.22914 0.65036 0.31877 0.0
H723 H 0.26801 0.66546 0.24197 0.0
H724 H 0.28315 0.76633 0.19098 0.0
H725 H 0.24062 0.78158 0.2567 0.0
C726 C 0.20475 0.74056 0.32354 0.0
C727 C 0.18805 0.71661 0.35694 0.0
C728 C 0.22987 0.73221 0.28757 0.0
C729 C 0.19794 0.68435 0.35661 0.0
C730 C 0.22255 0.6756 0.31979 0.0
C731 C 0.26181 0.69072 0.24536 0.0
C732 C 0.27783 0.7148 0.21128 0.0
C733 C 0.23818 0.69929 0.28429 0.0
C734 C 0.27064 0.74754 0.21671 0.0
C735 C 0.24646 0.7562 0.25415 0.0
H736 H 0.46105 0.06358 0.53446 0.0
H737 H 0.55601 0.03872 0.47394 0.0
H738 H 0.55743 -0.00666 0.54381 0.0
H739 H 0.52925 0.95888 0.61829 0.0
H740 H 0.42927 0.97775 0.65948 0.0
H741 H 0.43252 0.02838 0.60332 0.0
C742 C 0.48221 0.04837 0.53666 0.0
C743 C 0.50878 0.05492 0.50024 0.0
C744 C 0.48182 0.0214 0.57388 0.0
C745 C 0.53584 0.03487 0.5031 0.0
C746 C 0.53641 0.0087 0.54249 0.0
C747 C 0.50806 0.97366 0.61362 0.0
C748 C 0.47875 0.96403 0.64102 0.0
C749 C 0.50924 0.00145 0.57749 0.0
C750 C 0.45194 0.98441 0.63781 0.0
C751 C 0.45372 0.01327 0.6056 0.0
H752 H 0.29782 0.29053 0.84501 0.0
H753 H 0.32774 0.20387 0.76493 0.0
H754 H 0.28024 0.20558 0.70353 0.0
H755 H 0.22744 0.2275 0.68089 0.0
H756 H 0.19607 0.314 0.75861 0.0
H757 H 0.24751 0.31743 0.81153 0.0
C758 C 0.2943 0.27263 0.81303 0.0
C759 C 0.31595 0.24697 0.80957 0.0
C760 C 0.26673 0.27367 0.77784 0.0
C761 C 0.31106 0.22359 0.76867 0.0
C762 C 0.284 0.22457 0.73349 0.0
C763 C 0.23208 0.24742 0.70879 0.0
C764 C 0.20793 0.27011 0.71705 0.0
C765 C 0.26123 0.24885 0.73903 0.0
C766 C 0.21432 0.29617 0.75217 0.0
C767 C 0.24361 0.29795 0.78259 0.0
H768 H 0.72738 0.26424 0.8456 0.0
H769 H 0.65535 0.20499 0.76162 0.0
H770 H 0.69561 0.19173 0.69064 0.0
H771 H 0.75253 0.19153 0.65992 0.0
H772 H 0.82524 0.25079 0.74266 0.0
H773 H 0.78372 0.26907 0.80776 0.0
C774 C 0.7208 0.2482 0.81188 0.0
C775 C 0.68915 0.23437 0.80963 0.0
C776 C 0.74423 0.24024 0.77203 0.0
C777 C 0.68013 0.21457 0.76521 0.0
C778 C 0.70302 0.20718 0.72461 0.0
C779 C 0.75917 0.20877 0.69178 0.0
C780 C 0.79176 0.21949 0.69739 0.0
C781 C 0.73535 0.21892 0.72883 0.0
C782 C 0.80018 0.24215 0.73805 0.0
C783 C 0.77653 0.25243 0.77534 0.0
H784 H 0.81403 0.73055 0.29685 0.0
H785 H 0.78122 0.81609 0.37612 0.0
H786 H 0.73768 0.82167 0.30534 0.0
H787 H 0.70417 0.79618 0.23072 0.0
H788 H 0.73459 0.70636 0.16282 0.0
H789 H 0.78491 0.7093 0.21674 0.0
C790 C 0.79759 0.75069 0.29807 0.0
C791 C 0.80011 0.77253 0.34171 0.0
C792 C 0.77234 0.75292 0.25898 0.0
C793 C 0.77936 0.79895 0.34266 0.0
C794 C 0.75449 0.802 0.30245 0.0
C795 C 0.72182 0.77745 0.22788 0.0
C796 C 0.71507 0.7504 0.19508 0.0
C797 C 0.74987 0.77821 0.26195 0.0
C798 C 0.73892 0.727 0.18916 0.0
C799 C 0.76764 0.72856 0.22009 0.0
H800 H 0.5036 0.48406 0.63957 0.0
H801 H 0.49833 0.55855 0.50823 0.0
H802 H 0.48869 0.51749 0.43785 0.0
H803 H 0.49054 0.46042 0.4124 0.0
H804 H 0.50511 0.38638 0.54184 0.0
H805 H 0.50171 0.42666 0.61481 0.0
C806 C 0.49947 0.49104 0.59566 0.0
C807 C 0.50056 0.52387 0.57869 0.0
C808 C 0.4959 0.46728 0.55536 0.0
C809 C 0.49637 0.53321 0.5219 0.0
C810 C 0.49124 0.50979 0.48175 0.0
C811 C 0.49206 0.45326 0.45677 0.0
C812 C 0.49785 0.42098 0.47256 0.0
C813 C 0.49206 0.47676 0.49777 0.0
C814 C 0.50049 0.4114 0.52956 0.0
C815 C 0.49876 0.43436 0.57099 0.0
H816 H 0.92898 0.53603 0.04751 0.0
H817 H 0.02729 0.53936 0.98186 0.0
H818 H 0.04156 0.49444 0.04703 0.0
H819 H 0.02467 0.45282 0.12036 0.0
H820 H 0.92322 0.44323 0.1685 0.0
H821 H 0.91147 0.49274 0.1138 0.0
C822 C 0.9536 0.52703 0.04742 0.0
C823 C 0.97743 0.54173 1.01153 0.0
C824 C 0.96088 0.50014 0.08205 0.0
C825 C 0.009 0.52942 1.0111 0.0
C826 C 0.01699 0.50348 0.04778 0.0
C827 C -1e-05 0.46132 0.11788 0.0
C828 C 0.97473 0.44417 0.14717 0.0
C829 C 0.99299 0.48852 0.08319 0.0
C830 C 0.94297 0.45596 0.14569 0.0
C831 C 0.93622 0.48415 0.11435 0.0
H832 H 0.10253 0.18442 0.29232 0.0
H833 H 0.03516 0.10928 0.35592 0.0
H834 H 0.04761 0.12324 0.4526 0.0
H835 H 0.07633 0.15823 0.5199 0.0
H836 H 0.1478 0.22973 0.45718 0.0
H837 H 0.13554 0.21568 0.36035 0.0
C838 C 0.09096 0.17099 0.3275 0.0
C839 C 0.06809 0.14589 0.31711 0.0
C840 C 0.09903 0.17844 0.38344 0.0
C841 C 0.05318 0.12854 0.36293 0.0
C842 C 0.06015 0.13656 0.41833 0.0
C843 C 0.08952 0.17029 0.48499 0.0
C844 C 0.11291 0.19487 0.49568 0.0
C845 C 0.08292 0.16158 0.42921 0.0
C846 C 0.12985 0.21043 0.4501 0.0
C847 C 0.12272 0.2026 0.39456 0.0
H848 H 0.1408 0.78677 0.61447 0.0
H849 H 0.07898 0.84995 0.51612 0.0
H850 H 0.06782 0.88078 0.59997 0.0
H851 H 0.06797 0.88302 0.70293 0.0
H852 H 0.12356 0.81457 0.8022 0.0
H853 H 0.14564 0.7928 0.71601 0.0
C854 C 0.12546 0.80776 0.61113 0.0
C855 C 0.11032 0.81597 0.55971 0.0
C856 C 0.11798 0.82415 0.65976 0.0
C857 C 0.09067 0.84319 0.55558 0.0
C858 C 0.08421 0.86065 0.60348 0.0
C859 C 0.08566 0.86396 0.70565 0.0
C860 C 0.0941 0.85015 0.75846 0.0
C861 C 0.0966 0.8504 0.65613 0.0
C862 C 0.11678 0.82539 0.76176 0.0
C863 C 0.12917 0.81286 0.71259 0.0
H864 H 0.34884 0.7587 0.97535 0.0
H865 H 0.39373 0.82411 0.09234 0.0
H866 H 0.41323 0.85967 1.01353 0.0
H867 H 0.42265 0.86871 0.91094 0.0
H868 H 0.37786 0.80256 0.79499 0.0
H869 H 0.35302 0.77087 0.87373 0.0
C870 C 0.36241 0.78105 0.9837 0.0
C871 C 0.36995 0.78866 0.03968 0.0
C872 C 0.37381 0.80108 0.93825 0.0
C873 C 0.38735 0.8178 0.04975 0.0
C874 C 0.39877 0.83798 1.00462 0.0
C875 C 0.40694 0.8477 0.90296 0.0
C876 C 0.40221 0.83788 0.84722 0.0
C877 C 0.3929 0.82939 0.94864 0.0
C878 C 0.38184 0.81063 0.83745 0.0
C879 C 0.36775 0.79241 0.8825 0.0
H880 H 0.4021 0.15964 0.26687 0.0
H881 H 0.47317 0.09404 0.20632 0.0
H882 H 0.45586 0.10487 0.1096 0.0
H883 H 0.42557 0.13859 0.04118 0.0
H884 H 0.35273 0.20233 0.10147 0.0
H885 H 0.36515 0.18623 0.1987 0.0
C886 C 0.41316 0.14718 0.23254 0.0
C887 C 0.43907 0.12648 0.24359 0.0
C888 C 0.40295 0.15335 0.17672 0.0
C889 C 0.45316 0.11024 0.19888 0.0
C890 C 0.44343 0.11652 0.1434 0.0
C891 C 0.41191 0.14826 0.07563 0.0
C892 C 0.38865 0.17183 0.0643 0.0
C893 C 0.41909 0.13885 0.13164 0.0
C894 C 0.37087 0.18411 0.10916 0.0
C895 C 0.37809 0.17511 0.1649 0.0
H896 H 0.86203 0.81632 0.62446 0.0
H897 H 0.93077 0.86523 0.51045 0.0
H898 H 0.96131 0.8867 0.59022 0.0
H899 H 0.97098 0.88868 0.69445 0.0
H900 H 0.89704 0.84677 0.80688 0.0
H901 H 0.86649 0.82611 0.72709 0.0
C902 C 0.88316 0.83242 0.61696 0.0
C903 C 0.89375 0.83914 0.56087 0.0
C904 C 0.90011 0.84591 0.66344 0.0
C905 C 0.92154 0.85986 0.55263 0.0
C906 C 0.93931 0.87201 0.59856 0.0
C907 C 0.94783 0.87566 0.70144 0.0
C908 C 0.93665 0.86944 0.75746 0.0
C909 C 0.9292 0.86484 0.65446 0.0
C910 C 0.90646 0.85236 0.76489 0.0
C911 C 0.88887 0.84025 0.71896 0.0
H912 H 0.85044 0.12806 0.43652 0.0
H913 H 0.93704 0.10259 0.52949 0.0
H914 H 0.96424 0.08936 0.44234 0.0
H915 H 0.96583 0.09061 0.33895 0.0
H916 H 0.87943 0.11359 0.24416 0.0
H917 H 0.84962 0.12157 0.33227 0.0
C918 C 0.87499 0.11894 0.43771 0.0
C919 C 0.89171 0.11656 0.48967 0.0
C920 C 0.89062 0.11104 0.38695 0.0
C921 C 0.92353 0.10467 0.49037 0.0
C922 C 0.93923 0.09721 0.44038 0.0
C923 C 0.94022 0.09661 0.33764 0.0
C924 C 0.92487 0.10152 0.28509 0.0
C925 C 0.92335 0.10108 0.38836 0.0
C926 C 0.8917 0.10931 0.28404 0.0
C927 C 0.87477 0.1142 0.33448 0.0
H928 H 0.64165 0.19983 0.10855 0.0
H929 H 0.58027 0.13423 1.01499 0.0
H930 H 0.55903 0.109 0.10263 0.0
H931 H 0.55485 0.10753 0.2071 0.0
H932 H 0.62125 0.16766 0.30149 0.0
H933 H 0.64356 0.19236 0.21374 0.0
C934 C 0.62413 0.17959 0.10737 0.0
C935 C 0.61273 0.16909 0.05457 0.0
C936 C 0.61276 0.16401 0.15865 0.0
C937 C 0.58988 0.14279 0.05444 0.0
C938 C 0.57749 0.12834 0.10485 0.0
C939 C 0.57486 0.12536 0.20848 0.0
C940 C 0.58646 0.13532 0.26139 0.0
C941 C 0.58841 0.13891 0.15737 0.0
C942 C 0.61214 0.15889 0.26183 0.0
C943 C 0.62475 0.17337 0.21137 0.0
H944 H 0.53314 0.82669 0.84123 0.0
H945 H 0.58676 0.91821 0.83684 0.0
H946 H 0.61689 0.90079 0.92262 0.0
H947 H 0.62726 0.85794 1.00113 0.0
H948 H 0.57412 0.76568 0.99099 0.0
H949 H 0.54509 0.78515 0.91036 0.0
C950 C 0.55133 0.84312 0.85884 0.0
C951 C 0.55714 0.87394 0.83282 0.0
C952 C 0.56892 0.83265 0.90653 0.0
C953 C 0.58151 0.89435 0.85597 0.0
C954 C 0.59872 0.88433 0.90524 0.0
C955 C 0.60942 0.84218 0.98117 0.0
C956 C 0.60333 0.81012 1.0039 0.0
C957 C 0.59259 0.85331 0.93141 0.0
C958 C 0.5801 0.79028 0.97601 0.0
C959 C 0.56301 0.80139 0.92917 0.0
H960 H 0.56394 0.58735 0.86323 0.0
H961 H 0.63017 0.64668 0.75879 0.0
H962 H 0.65287 0.67186 0.84263 0.0
H963 H 0.64859 0.68196 0.9438 0.0
H964 H 0.57891 0.62585 0.04664 0.0
H965 H 0.56286 0.59424 0.96532 0.0
C966 C 0.5839 0.60522 0.85897 0.0
C967 C 0.59542 0.61522 0.80508 0.0
C968 C 0.59582 0.62045 0.90702 0.0
C969 C 0.62103 0.63859 0.79997 0.0
C970 C 0.63382 0.65312 0.84782 0.0
C971 C 0.63033 0.6624 0.94855 0.0
C972 C 0.6148 0.65625 1.00087 0.0
C973 C 0.62061 0.64503 0.9013 0.0
C974 C 0.5911 0.631 1.00663 0.0
C975 C 0.58189 0.61301 0.96016 0.0
H976 H 0.5626 0.38105 0.18799 0.0
H977 H 0.62332 0.31492 0.28233 0.0
H978 H 0.64856 0.29855 0.19465 0.0
H979 H 0.646 0.29621 0.09199 0.0
H980 H 0.57985 0.35692 0.99789 0.0
H981 H 0.56428 0.38285 0.08478 0.0
C982 C 0.58204 0.36374 0.18945 0.0
C983 C 0.59108 0.34898 0.24124 0.0
C984 C 0.59503 0.35328 0.13888 0.0
C985 C 0.61605 0.32647 0.24275 0.0
C986 C 0.63026 0.317 0.19268 0.0
C987 C 0.62879 0.31571 0.09028 0.0
C988 C 0.61378 0.32454 0.03895 0.0
C989 C 0.61887 0.3292 0.14053 0.0
C990 C 0.59155 0.34973 0.03713 0.0
C991 C 0.58255 0.36437 0.08677 0.0
H992 H 0.94809 0.34462 0.41171 0.0
H993 H 0.92627 0.26395 0.30544 0.0
H994 H 0.90405 0.23228 0.38628 0.0
H995 H 0.8939 0.22646 0.48637 0.0
H996 H 0.91725 0.3053 0.59593 0.0
H997 H 0.93567 0.33917 0.51392 0.0
C998 C 0.93807 0.32025 0.40635 0.0
C999 C 0.93873 0.30649 0.35297 0.0
C1000 C 0.92592 0.30196 0.4533 0.0
C1001 C 0.92597 0.27491 0.34625 0.0
C1002 C 0.91337 0.25683 0.39238 0.0
C1003 C 0.90302 0.25105 0.49279 0.0
C1004 C 0.90461 0.26323 0.54737 0.0
C1005 C 0.91378 0.26993 0.44606 0.0
C1006 C 0.91591 0.29535 0.55436 0.0
C1007 C 0.92648 0.31463 0.50755 0.0
H1008 H 0.86134 0.66189 0.79802 0.0
H1009 H 0.91289 0.58191 0.73182 0.0
H1010 H 0.90385 0.60272 0.63574 0.0
H1011 H 0.88801 0.64804 0.57119 0.0
H1012 H 0.83523 0.72707 0.63807 0.0
H1013 H 0.83801 0.70236 0.7326 0.0
C1014 C 0.8696 0.64844 0.7625 0.0
C1015 C 0.88795 0.6206 0.77205 0.0
C1016 C 0.86473 0.6608 0.70726 0.0
C1017 C 0.89868 0.60349 0.7256 0.0
C1018 C 0.89382 0.61554 0.67054 0.0
C1019 C 0.87665 0.65944 0.60637 0.0
C1020 C 0.86181 0.68946 0.59778 0.0
C1021 C 0.87802 0.6449 0.66094 0.0
C1022 C 0.84695 0.70396 0.6436 0.0
C1023 C 0.84853 0.68989 0.69782 0.0
H1024 H 0.39651 0.33151 0.25044 0.0
H1025 H 0.47924 0.38746 0.18338 0.0
H1026 H 0.4611 0.37725 0.08719 0.0
H1027 H 0.42472 0.34781 1.02143 0.0
H1028 H 0.34599 0.28645 0.08876 0.0
H1029 H 0.35896 0.30353 0.18428 0.0
C1030 C 0.41002 0.34229 0.21477 0.0
C1031 C 0.4389 0.361 0.2246 0.0
C1032 C 0.40009 0.3351 0.15905 0.0
C1033 C 0.4567 0.37353 0.17746 0.0
C1034 C 0.44639 0.3675 0.12222 0.0
C1035 C 0.40971 0.33906 0.05681 0.0
C1036 C 0.38358 0.31666 0.04735 0.0
C1037 C 0.41846 0.3478 0.11231 0.0
C1038 C 0.36553 0.30438 0.09434 0.0
C1039 C 0.37322 0.31393 0.14921 0.0
H1040 H 0.42505 0.62216 0.99727 0.0
H1041 H 0.3341 0.65132 0.9231 0.0
H1042 H 0.35294 0.63532 0.83026 0.0
H1043 H 0.39738 0.61637 0.76814 0.0
H1044 H 0.48809 0.58775 0.84482 0.0
H1045 H 0.46725 0.59975 0.93745 0.0
C1046 C 0.40913 0.62462 0.96096 0.0
C1047 C 0.37812 0.63794 0.9675 0.0
C1048 C 0.42022 0.61546 0.9075 0.0
C1049 C 0.35801 0.64104 0.91964 0.0
C1050 C 0.36886 0.63195 0.8663 0.0
C1051 C 0.41228 0.61208 0.80523 0.0
C1052 C 0.44441 0.60107 0.79883 0.0
C1053 C 0.40018 0.61951 0.85936 0.0
C1054 C 0.46338 0.59623 0.84781 0.0
C1055 C 0.4515 0.6032 0.90117 0.0
H1056 H 0.04523 0.6871 0.58313 0.0
H1057 H 0.13212 0.63132 0.59247 0.0
H1058 H 0.11503 0.60926 0.6866 0.0
H1059 H 0.07444 0.60691 0.76884 0.0
H1060 H 0.98393 0.65692 0.74468 0.0
H1061 H 0.00302 0.67928 0.65491 0.0
C1062 C 0.06034 0.66965 0.60475 0.0
C1063 C 0.09004 0.66109 0.57961 0.0
C1064 C 0.04952 0.6559 0.65738 0.0
C1065 C 0.1091 0.63849 0.60988 0.0
C1066 C 0.09925 0.62588 0.66411 0.0
C1067 C 0.05877 0.62243 0.74377 0.0
C1068 C 0.02764 0.63034 0.76571 0.0
C1069 C 0.06937 0.63448 0.68881 0.0
C1070 C 0.00794 0.65024 0.73091 0.0
C1071 C 0.01887 0.66331 0.67878 0.0
H1072 H 0.10764 0.34749 0.3117 0.0
H1073 H 0.04383 0.4205 0.36849 0.0
H1074 H 0.06126 0.40998 0.4662 0.0
H1075 H 0.08798 0.37321 0.53718 0.0
H1076 H 0.14916 0.29821 0.47787 0.0
H1077 H 0.13995 0.31635 0.38065 0.0
C1078 C 0.09882 0.3622 0.34519 0.0
C1079 C 0.07529 0.38552 0.33249 0.0
C1080 C 0.10798 0.35499 0.40154 0.0
C1081 C 0.06283 0.40325 0.37679 0.0
C1082 C 0.07241 0.39678 0.43292 0.0
C1083 C 0.10008 0.36156 0.50303 0.0
C1084 C 0.1192 0.33424 0.5152 0.0
C1085 C 0.09403 0.37176 0.44621 0.0
C1086 C 0.13422 0.31915 0.47004 0.0
C1087 C 0.12891 0.32948 0.41415 0.0
loop_
_geom_bond_atom_site_label_1
_geom_bond_atom_site_label_2
_geom_bond_distance
_geom_bond_site_symmetry_2
_ccdc_geom_bond_type
Dy0 O4 2.398 . S
Dy0 O5 2.491 . S
Dy0 O6 2.403 . S
Dy0 O7 2.664 1_455 S
Dy0 O11 2.326 1_455 S
Dy0 O15 2.310 . S
Dy0 O16 2.351 . S
C1 O12 1.185 . S
C1 O13 1.355 . S
C2 O4 1.185 . S
C2 O5 1.355 . S
Dy3 O7 2.310 . S
Dy3 O10 2.351 . S
Dy3 O12 2.398 1_554 S
Dy3 O13 2.491 1_554 S
Dy3 O14 2.403 . S
Dy3 O15 2.664 1_655 S
Dy3 O17 2.326 1_655 S
O4 Dy0 2.398 . S
O4 C2 1.185 . S
O5 Dy0 2.491 . S
O5 C2 1.355 . S
O6 Dy0 2.403 . S
O6 C8 1.254 . S
O7 Dy0 2.664 1_655 S
O7 Dy3 2.310 . S
O7 C8 1.268 1_655 S
C8 O6 1.254 . S
C8 O7 1.268 1_455 S
C9 O14 1.254 . S
C9 O15 1.268 1_655 S
O10 Dy3 2.351 . S
O10 C18 1.249 . S
O11 Dy0 2.326 1_655 S
O11 C18 1.267 . S
O12 C1 1.185 . S
O12 Dy3 2.398 1_556 S
O13 C1 1.355 . S
O13 Dy3 2.491 1_556 S
O14 Dy3 2.403 . S
O14 C9 1.254 . S
O15 Dy0 2.310 . S
O15 Dy3 2.664 1_455 S
O15 C9 1.268 1_455 S
O16 Dy0 2.351 . S
O16 C19 1.249 . S
O17 Dy3 2.326 1_455 S
O17 C19 1.267 . S
C18 O10 1.249 . S
C18 O11 1.267 . S
C19 O16 1.249 . S
C19 O17 1.267 . S
Dy20 O24 2.398 . S
Dy20 O25 2.491 . S
Dy20 O26 2.403 . S
Dy20 O27 2.664 . S
Dy20 O31 2.326 . S
Dy20 O35 2.310 . S
Dy20 O36 2.351 . S
C21 O32 1.185 . S
C21 O33 1.355 . S
C22 O24 1.185 . S
C22 O25 1.355 . S
Dy23 O27 2.310 . S
Dy23 O30 2.351 . S
Dy23 O32 2.398 . S
Dy23 O33 2.491 . S
Dy23 O34 2.403 . S
Dy23 O35 2.664 . S
Dy23 O37 2.326 . S
O24 Dy20 2.398 . S
O24 C22 1.185 . S
O25 Dy20 2.491 . S
O25 C22 1.355 . S
O26 Dy20 2.403 . S
O26 C28 1.254 . S
O27 Dy20 2.664 . S
O27 Dy23 2.310 . S
O27 C28 1.268 . S
C28 O26 1.254 . S
C28 O27 1.268 . S
C29 O34 1.254 . S
C29 O35 1.268 . S
O30 Dy23 2.351 . S
O30 C38 1.249 . S
O31 Dy20 2.326 . S
O31 C38 1.267 . S
O32 C21 1.185 . S
O32 Dy23 2.398 . S
O33 C21 1.355 . S
O33 Dy23 2.491 . S
O34 Dy23 2.403 . S
O34 C29 1.254 . S
O35 Dy20 2.310 . S
O35 Dy23 2.664 . S
O35 C29 1.268 . S
O36 Dy20 2.351 . S
O36 C39 1.249 . S
O37 Dy23 2.326 . S
O37 C39 1.267 . S
C38 O30 1.249 . S
C38 O31 1.267 . S
C39 O36 1.249 . S
C39 O37 1.267 . S
Dy40 O44 2.398 . S
Dy40 O45 2.491 . S
Dy40 O46 2.403 . S
Dy40 O47 2.664 . S
Dy40 O51 2.326 . S
Dy40 O55 2.310 . S
Dy40 O56 2.351 . S
C41 O52 1.185 . S
C41 O53 1.355 . S
C42 O44 1.185 . S
C42 O45 1.355 . S
Dy43 O47 2.310 . S
Dy43 O50 2.351 . S
Dy43 O52 2.398 . S
Dy43 O53 2.491 . S
Dy43 O54 2.403 . S
Dy43 O55 2.664 . S
Dy43 O57 2.326 . S
O44 Dy40 2.398 . S
O44 C42 1.185 . S
O45 Dy40 2.491 . S
O45 C42 1.355 . S
O46 Dy40 2.403 . S
O46 C48 1.254 . S
O47 Dy40 2.664 . S
O47 Dy43 2.310 . S
O47 C48 1.268 . S
C48 O46 1.254 . S
C48 O47 1.268 . S
C49 O54 1.254 . S
C49 O55 1.268 . S
O50 Dy43 2.351 . S
O50 C58 1.249 . S
O51 Dy40 2.326 . S
O51 C58 1.267 . S
O52 C41 1.185 . S
O52 Dy43 2.398 . S
O53 C41 1.355 . S
O53 Dy43 2.491 . S
O54 Dy43 2.403 . S
O54 C49 1.254 . S
O55 Dy40 2.310 . S
O55 Dy43 2.664 . S
O55 C49 1.268 . S
O56 Dy40 2.351 . S
O56 C59 1.249 . S
O57 Dy43 2.326 . S
O57 C59 1.267 . S
C58 O50 1.249 . S
C58 O51 1.267 . S
C59 O56 1.249 . S
C59 O57 1.267 . S
Dy60 O64 2.398 . S
Dy60 O65 2.491 . S
Dy60 O66 2.403 . S
Dy60 O67 2.664 . S
Dy60 O71 2.326 . S
Dy60 O75 2.310 . S
Dy60 O76 2.351 . S
C61 O72 1.185 . S
C61 O73 1.355 . S
C62 O64 1.185 1_554 S
C62 O65 1.355 1_554 S
Dy63 O67 2.310 . S
Dy63 O70 2.351 . S
Dy63 O72 2.398 . S
Dy63 O73 2.491 . S
Dy63 O74 2.403 . S
Dy63 O75 2.664 . S
Dy63 O77 2.326 . S
O64 Dy60 2.398 . S
O64 C62 1.185 1_556 S
O65 Dy60 2.491 . S
O65 C62 1.355 1_556 S
O66 Dy60 2.403 . S
O66 C68 1.254 . S
O67 Dy60 2.664 . S
O67 Dy63 2.310 . S
O67 C68 1.268 . S
C68 O66 1.254 . S
C68 O67 1.268 . S
C69 O74 1.254 . S
C69 O75 1.268 . S
O70 Dy63 2.351 . S
O70 C78 1.249 . S
O71 Dy60 2.326 . S
O71 C78 1.267 . S
O72 C61 1.185 . S
O72 Dy63 2.398 . S
O73 C61 1.355 . S
O73 Dy63 2.491 . S
O74 Dy63 2.403 . S
O74 C69 1.254 . S
O75 Dy60 2.310 . S
O75 Dy63 2.664 . S
O75 C69 1.268 . S
O76 Dy60 2.351 . S
O76 C79 1.249 . S
O77 Dy63 2.326 . S
O77 C79 1.267 . S
C78 O70 1.249 . S
C78 O71 1.267 . S
C79 O76 1.249 . S
C79 O77 1.267 . S
Dy80 O84 2.398 . S
Dy80 O85 2.491 . S
Dy80 O86 2.403 . S
Dy80 O87 2.671 . S
Dy80 O91 2.324 1_455 S
Dy80 O95 2.310 . S
Dy80 O96 2.351 . S
C81 O92 1.185 1_554 S
C81 O93 1.355 . S
C82 O84 1.185 . S
C82 O85 1.355 . S
Dy83 O87 2.303 1_655 S
Dy83 O90 2.351 . S
Dy83 O92 2.398 . S
Dy83 O93 2.491 1_556 S
Dy83 O94 2.403 . S
Dy83 O95 2.664 1_655 S
Dy83 O97 2.326 1_655 S
O84 Dy80 2.398 . S
O84 C82 1.185 . S
O85 Dy80 2.491 . S
O85 C82 1.355 . S
O86 Dy80 2.403 . S
O86 C88 1.254 . S
O87 Dy80 2.671 . S
O87 Dy83 2.303 1_455 S
O87 C88 1.272 . S
C88 O86 1.254 . S
C88 O87 1.272 . S
C89 O94 1.254 . S
C89 O95 1.268 1_655 S
O90 Dy83 2.351 . S
O90 C98 1.249 . S
O91 Dy80 2.324 1_655 S
O91 C98 1.270 . S
O92 C81 1.185 1_556 S
O92 Dy83 2.398 . S
O93 C81 1.355 . S
O93 Dy83 2.491 1_554 S
O94 Dy83 2.403 . S
O94 C89 1.254 . S
O95 Dy80 2.310 . S
O95 Dy83 2.664 1_455 S
O95 C89 1.268 1_455 S
O96 Dy80 2.351 . S
O96 C99 1.249 . S
O97 Dy83 2.326 1_455 S
O97 C99 1.267 . S
C98 O90 1.249 . S
C98 O91 1.270 . S
C99 O96 1.249 . S
C99 O97 1.267 . S
Dy100 O104 2.398 . S
Dy100 O105 2.491 . S
Dy100 O106 2.403 . S
Dy100 O107 2.664 . S
Dy100 O111 2.326 . S
Dy100 O115 2.310 . S
Dy100 O116 2.351 . S
C101 O112 1.185 1_556 S
C101 O113 1.355 1_556 S
C102 O104 1.185 . S
C102 O105 1.355 . S
Dy103 O107 2.310 . S
Dy103 O110 2.351 . S
Dy103 O112 2.398 . S
Dy103 O113 2.491 . S
Dy103 O114 2.403 . S
Dy103 O115 2.664 . S
Dy103 O117 2.326 . S
O104 Dy100 2.398 . S
O104 C102 1.185 . S
O105 Dy100 2.491 . S
O105 C102 1.355 . S
O106 Dy100 2.403 . S
O106 C108 1.254 . S
O107 Dy100 2.664 . S
O107 Dy103 2.310 . S
O107 C108 1.268 . S
C108 O106 1.254 . S
C108 O107 1.268 . S
C109 O114 1.254 . S
C109 O115 1.268 . S
O110 Dy103 2.351 . S
O110 C118 1.249 . S
O111 Dy100 2.326 . S
O111 C118 1.267 . S
O112 C101 1.185 1_554 S
O112 Dy103 2.398 . S
O113 C101 1.355 1_554 S
O113 Dy103 2.491 . S
O114 Dy103 2.403 . S
O114 C109 1.254 . S
O115 Dy100 2.310 . S
O115 Dy103 2.664 . S
O115 C109 1.268 . S
O116 Dy100 2.351 . S
O116 C119 1.249 . S
O117 Dy103 2.326 . S
O117 C119 1.267 . S
C118 O110 1.249 . S
C118 O111 1.267 . S
C119 O116 1.249 . S
C119 O117 1.267 . S
Dy120 O124 2.398 . S
Dy120 O125 2.491 . S
Dy120 O126 2.403 . S
Dy120 O127 2.664 . S
Dy120 O131 2.326 . S
Dy120 O135 2.310 . S
Dy120 O136 2.351 . S
C121 O132 1.185 . S
C121 O133 1.355 . S
C122 O124 1.185 . S
C122 O125 1.355 . S
Dy123 O127 2.310 . S
Dy123 O130 2.351 . S
Dy123 O132 2.398 . S
Dy123 O133 2.491 . S
Dy123 O134 2.403 . S
Dy123 O135 2.664 . S
Dy123 O137 2.326 . S
O124 Dy120 2.398 . S
O124 C122 1.185 . S
O125 Dy120 2.491 . S
O125 C122 1.355 . S
O126 Dy120 2.403 . S
O126 C128 1.254 . S
O127 Dy120 2.664 . S
O127 Dy123 2.310 . S
O127 C128 1.268 . S
C128 O126 1.254 . S
C128 O127 1.268 . S
C129 O134 1.254 . S
C129 O135 1.268 . S
O130 Dy123 2.351 . S
O130 C138 1.249 . S
O131 Dy120 2.326 . S
O131 C138 1.267 . S
O132 C121 1.185 . S
O132 Dy123 2.398 . S
O133 C121 1.355 . S
O133 Dy123 2.491 . S
O134 Dy123 2.403 . S
O134 C129 1.254 . S
O135 Dy120 2.310 . S
O135 Dy123 2.664 . S
O135 C129 1.268 . S
O136 Dy120 2.351 . S
O136 C139 1.249 . S
O137 Dy123 2.326 . S
O137 C139 1.267 . S
C138 O130 1.249 . S
C138 O131 1.267 . S
C139 O136 1.249 . S
C139 O137 1.267 . S
Dy140 O144 2.398 . S
Dy140 O145 2.491 . S
Dy140 O146 2.403 . S
Dy140 O147 2.664 . S
Dy140 O151 2.326 . S
Dy140 O155 2.310 . S
Dy140 O156 2.351 . S
C141 O152 1.185 . S
C141 O153 1.355 . S
C142 O144 1.185 . S
C142 O145 1.355 . S
Dy143 O147 2.310 . S
Dy143 O150 2.351 . S
Dy143 O152 2.398 . S
Dy143 O153 2.491 . S
Dy143 O154 2.403 . S
Dy143 O155 2.664 . S
Dy143 O157 2.326 . S
O144 Dy140 2.398 . S
O144 C142 1.185 . S
O145 Dy140 2.491 . S
O145 C142 1.355 . S
O146 Dy140 2.403 . S
O146 C148 1.254 . S
O147 Dy140 2.664 . S
O147 Dy143 2.310 . S
O147 C148 1.268 . S
C148 O146 1.254 . S
C148 O147 1.268 . S
C149 O154 1.254 . S
C149 O155 1.268 . S
O150 Dy143 2.351 . S
O150 C158 1.249 . S
O151 Dy140 2.326 . S
O151 C158 1.267 . S
O152 C141 1.185 . S
O152 Dy143 2.398 . S
O153 C141 1.355 . S
O153 Dy143 2.491 . S
O154 Dy143 2.403 . S
O154 C149 1.254 . S
O155 Dy140 2.310 . S
O155 Dy143 2.664 . S
O155 C149 1.268 . S
O156 Dy140 2.351 . S
O156 C159 1.249 . S
O157 Dy143 2.326 . S
O157 C159 1.267 . S
C158 O150 1.249 . S
C158 O151 1.267 . S
C159 O156 1.249 . S
C159 O157 1.267 . S
Dy160 O164 2.398 . S
Dy160 O165 2.491 . S
Dy160 O166 2.403 . S
Dy160 O167 2.664 . S
Dy160 O171 2.326 . S
Dy160 O175 2.310 . S
Dy160 O176 2.351 . S
C161 O172 1.185 . S
C161 O173 1.355 . S
C162 O164 1.185 . S
C162 O165 1.355 . S
Dy163 O167 2.310 . S
Dy163 O170 2.351 . S
Dy163 O172 2.398 . S
Dy163 O173 2.491 . S
Dy163 O174 2.403 . S
Dy163 O175 2.664 . S
Dy163 O177 2.326 . S
O164 Dy160 2.398 . S
O164 C162 1.185 . S
O165 Dy160 2.491 . S
O165 C162 1.355 . S
O166 Dy160 2.403 . S
O166 C168 1.254 . S
O167 Dy160 2.664 . S
O167 Dy163 2.310 . S
O167 C168 1.268 . S
C168 O166 1.254 . S
C168 O167 1.268 . S
C169 O174 1.254 . S
C169 O175 1.268 . S
O170 Dy163 2.351 . S
O170 C178 1.249 . S
O171 Dy160 2.326 . S
O171 C178 1.267 . S
O172 C161 1.185 . S
O172 Dy163 2.398 . S
O173 C161 1.355 . S
O173 Dy163 2.491 . S
O174 Dy163 2.403 . S
O174 C169 1.254 . S
O175 Dy160 2.310 . S
O175 Dy163 2.664 . S
O175 C169 1.268 . S
O176 Dy160 2.351 . S
O176 C179 1.249 . S
O177 Dy163 2.326 . S
O177 C179 1.267 . S
C178 O170 1.249 . S
C178 O171 1.267 . S
C179 O176 1.249 . S
C179 O177 1.267 . S
Dy180 O184 2.398 . S
Dy180 O185 2.491 . S
Dy180 O186 2.403 . S
Dy180 O187 2.664 . S
Dy180 O191 2.326 . S
Dy180 O195 2.310 . S
Dy180 O196 2.351 . S
C181 O192 1.185 . S
C181 O193 1.355 . S
C182 O184 1.185 1_556 S
C182 O185 1.355 1_556 S
Dy183 O187 2.310 . S
Dy183 O190 2.351 . S
Dy183 O192 2.398 . S
Dy183 O193 2.491 . S
Dy183 O194 2.403 . S
Dy183 O195 2.664 . S
Dy183 O197 2.326 . S
O184 Dy180 2.398 . S
O184 C182 1.185 1_554 S
O185 Dy180 2.491 . S
O185 C182 1.355 1_554 S
O186 Dy180 2.403 . S
O186 C188 1.254 . S
O187 Dy180 2.664 . S
O187 Dy183 2.310 . S
O187 C188 1.268 . S
C188 O186 1.254 . S
C188 O187 1.268 . S
C189 O194 1.254 . S
C189 O195 1.268 . S
O190 Dy183 2.351 . S
O190 C198 1.249 . S
O191 Dy180 2.326 . S
O191 C198 1.267 . S
O192 C181 1.185 . S
O192 Dy183 2.398 . S
O193 C181 1.355 . S
O193 Dy183 2.491 . S
O194 Dy183 2.403 . S
O194 C189 1.254 . S
O195 Dy180 2.310 . S
O195 Dy183 2.664 . S
O195 C189 1.268 . S
O196 Dy180 2.351 . S
O196 C199 1.249 . S
O197 Dy183 2.326 . S
O197 C199 1.267 . S
C198 O190 1.249 . S
C198 O191 1.267 . S
C199 O196 1.249 . S
C199 O197 1.267 . S
Dy200 O204 2.398 . S
Dy200 O205 2.491 . S
Dy200 O206 2.403 . S
Dy200 O207 2.664 . S
Dy200 O211 2.326 . S
Dy200 O215 2.310 . S
Dy200 O216 2.351 . S
C201 O212 1.185 . S
C201 O213 1.355 . S
C202 O204 1.185 1_554 S
C202 O205 1.355 1_554 S
Dy203 O207 2.310 . S
Dy203 O210 2.351 . S
Dy203 O212 2.398 . S
Dy203 O213 2.491 . S
Dy203 O214 2.403 . S
Dy203 O215 2.664 . S
Dy203 O217 2.326 . S
O204 Dy200 2.398 . S
O204 C202 1.185 1_556 S
O205 Dy200 2.491 . S
O205 C202 1.355 1_556 S
O206 Dy200 2.403 . S
O206 C208 1.254 . S
O207 Dy200 2.664 . S
O207 Dy203 2.310 . S
O207 C208 1.268 . S
C208 O206 1.254 . S
C208 O207 1.268 . S
C209 O214 1.254 . S
C209 O215 1.268 . S
O210 Dy203 2.351 . S
O210 C218 1.249 . S
O211 Dy200 2.326 . S
O211 C218 1.267 . S
O212 C201 1.185 . S
O212 Dy203 2.398 . S
O213 C201 1.355 . S
O213 Dy203 2.491 . S
O214 Dy203 2.403 . S
O214 C209 1.254 . S
O215 Dy200 2.310 . S
O215 Dy203 2.664 . S
O215 C209 1.268 . S
O216 Dy200 2.351 . S
O216 C219 1.249 . S
O217 Dy203 2.326 . S
O217 C219 1.267 . S
C218 O210 1.249 . S
C218 O211 1.267 . S
C219 O216 1.249 . S
C219 O217 1.267 . S
Dy220 O224 2.398 . S
Dy220 O225 2.491 . S
Dy220 O226 2.403 . S
Dy220 O227 2.664 . S
Dy220 O231 2.326 . S
Dy220 O235 2.310 . S
Dy220 O236 2.351 . S
C221 O232 1.185 . S
C221 O233 1.355 . S
C222 O224 1.185 . S
C222 O225 1.355 . S
Dy223 O227 2.310 . S
Dy223 O230 2.351 . S
Dy223 O232 2.398 . S
Dy223 O233 2.491 . S
Dy223 O234 2.403 . S
Dy223 O235 2.664 . S
Dy223 O237 2.326 . S
O224 Dy220 2.398 . S
O224 C222 1.185 . S
O225 Dy220 2.491 . S
O225 C222 1.355 . S
O226 Dy220 2.403 . S
O226 C228 1.254 . S
O227 Dy220 2.664 . S
O227 Dy223 2.310 . S
O227 C228 1.268 . S
C228 O226 1.254 . S
C228 O227 1.268 . S
C229 O234 1.254 . S
C229 O235 1.268 . S
O230 Dy223 2.351 . S
O230 C238 1.249 . S
O231 Dy220 2.326 . S
O231 C238 1.267 . S
O232 C221 1.185 . S
O232 Dy223 2.398 . S
O233 C221 1.355 . S
O233 Dy223 2.491 . S
O234 Dy223 2.403 . S
O234 C229 1.254 . S
O235 Dy220 2.310 . S
O235 Dy223 2.664 . S
O235 C229 1.268 . S
O236 Dy220 2.351 . S
O236 C239 1.249 . S
O237 Dy223 2.326 . S
O237 C239 1.267 . S
C238 O230 1.249 . S
C238 O231 1.267 . S
C239 O236 1.249 . S
C239 O237 1.267 . S
Dy240 O244 2.398 . S
Dy240 O245 2.491 . S
Dy240 O246 2.403 . S
Dy240 O247 2.664 . S
Dy240 O251 2.326 . S
Dy240 O255 2.310 . S
Dy240 O256 2.351 . S
C241 O252 1.185 . S
C241 O253 1.355 . S
C242 O244 1.185 . S
C242 O245 1.355 . S
Dy243 O247 2.310 . S
Dy243 O250 2.351 . S
Dy243 O252 2.398 . S
Dy243 O253 2.491 . S
Dy243 O254 2.403 . S
Dy243 O255 2.664 . S
Dy243 O257 2.326 . S
O244 Dy240 2.398 . S
O244 C242 1.185 . S
O245 Dy240 2.491 . S
O245 C242 1.355 . S
O246 Dy240 2.403 . S
O246 C248 1.254 . S
O247 Dy240 2.664 . S
O247 Dy243 2.310 . S
O247 C248 1.268 . S
C248 O246 1.254 . S
C248 O247 1.268 . S
C249 O254 1.254 . S
C249 O255 1.268 . S
O250 Dy243 2.351 . S
O250 C258 1.249 . S
O251 Dy240 2.326 . S
O251 C258 1.267 . S
O252 C241 1.185 . S
O252 Dy243 2.398 . S
O253 C241 1.355 . S
O253 Dy243 2.491 . S
O254 Dy243 2.403 . S
O254 C249 1.254 . S
O255 Dy240 2.310 . S
O255 Dy243 2.664 . S
O255 C249 1.268 . S
O256 Dy240 2.351 . S
O256 C259 1.249 . S
O257 Dy243 2.326 . S
O257 C259 1.267 . S
C258 O250 1.249 . S
C258 O251 1.267 . S
C259 O256 1.249 . S
C259 O257 1.267 . S
Dy260 O264 2.398 . S
Dy260 O265 2.491 . S
Dy260 O266 2.403 . S
Dy260 O267 2.664 1_655 S
Dy260 O271 2.326 1_655 S
Dy260 O275 2.331 . S
Dy260 O276 2.351 . S
C261 O272 1.185 1_556 S
C261 O273 1.355 1_556 S
C262 O264 1.185 . S
C262 O265 1.355 . S
Dy263 O267 2.310 . S
Dy263 O270 2.351 . S
Dy263 O272 2.398 . S
Dy263 O273 2.491 . S
Dy263 O274 2.403 . S
Dy263 O275 2.643 1_455 S
Dy263 O277 2.326 1_455 S
O264 Dy260 2.398 . S
O264 C262 1.185 . S
O265 Dy260 2.491 . S
O265 C262 1.355 . S
O266 Dy260 2.403 . S
O266 C268 1.254 . S
O267 Dy260 2.664 1_455 S
O267 Dy263 2.310 . S
O267 C268 1.268 1_455 S
C268 O266 1.254 . S
C268 O267 1.268 1_655 S
C269 O274 1.254 . S
C269 O275 1.255 1_455 S
O270 Dy263 2.351 . S
O270 C278 1.249 . S
O271 Dy260 2.326 1_455 S
O271 C278 1.267 . S
O272 C261 1.185 1_554 S
O272 Dy263 2.398 . S
O273 C261 1.355 1_554 S
O273 Dy263 2.491 . S
O274 Dy263 2.403 . S
O274 C269 1.254 . S
O275 Dy260 2.331 . S
O275 Dy263 2.643 1_655 S
O275 C269 1.255 1_655 S
O276 Dy260 2.351 . S
O276 C279 1.249 . S
O277 Dy263 2.326 1_655 S
O277 C279 1.267 . S
C278 O270 1.249 . S
C278 O271 1.267 . S
C279 O276 1.249 . S
C279 O277 1.267 . S
Dy280 O284 2.398 . S
Dy280 O285 2.491 . S
Dy280 O286 2.403 . S
Dy280 O287 2.664 . S
Dy280 O291 2.326 . S
Dy280 O295 2.310 . S
Dy280 O296 2.351 . S
C281 O292 1.185 . S
C281 O293 1.355 . S
C282 O284 1.185 . S
C282 O285 1.355 . S
Dy283 O287 2.310 . S
Dy283 O290 2.351 . S
Dy283 O292 2.398 . S
Dy283 O293 2.491 . S
Dy283 O294 2.403 . S
Dy283 O295 2.664 . S
Dy283 O297 2.326 . S
O284 Dy280 2.398 . S
O284 C282 1.185 . S
O285 Dy280 2.491 . S
O285 C282 1.355 . S
O286 Dy280 2.403 . S
O286 C288 1.254 . S
O287 Dy280 2.664 . S
O287 Dy283 2.310 . S
O287 C288 1.268 . S
C288 O286 1.254 . S
C288 O287 1.268 . S
C289 O294 1.254 . S
C289 O295 1.268 . S
O290 Dy283 2.351 . S
O290 C298 1.249 . S
O291 Dy280 2.326 . S
O291 C298 1.267 . S
O292 C281 1.185 . S
O292 Dy283 2.398 . S
O293 C281 1.355 . S
O293 Dy283 2.491 . S
O294 Dy283 2.403 . S
O294 C289 1.254 . S
O295 Dy280 2.310 . S
O295 Dy283 2.664 . S
O295 C289 1.268 . S
O296 Dy280 2.351 . S
O296 C299 1.249 . S
O297 Dy283 2.326 . S
O297 C299 1.267 . S
C298 O290 1.249 . S
C298 O291 1.267 . S
C299 O296 1.249 . S
C299 O297 1.267 . S
Dy300 O304 2.398 . S
Dy300 O305 2.491 . S
Dy300 O306 2.403 . S
Dy300 O307 2.664 1_655 S
Dy300 O311 2.326 1_655 S
Dy300 O315 2.331 . S
Dy300 O316 2.351 . S
C301 O312 1.185 . S
C301 O313 1.355 . S
C302 O304 1.185 . S
C302 O305 1.355 . S
Dy303 O307 2.310 . S
Dy303 O310 2.351 . S
Dy303 O312 2.398 1_556 S
Dy303 O313 2.491 1_556 S
Dy303 O314 2.403 . S
Dy303 O315 2.640 1_455 S
Dy303 O317 2.326 1_455 S
O304 Dy300 2.398 . S
O304 C302 1.185 . S
O305 Dy300 2.491 . S
O305 C302 1.355 . S
O306 Dy300 2.403 . S
O306 C308 1.254 . S
O307 Dy300 2.664 1_455 S
O307 Dy303 2.310 . S
O307 C308 1.268 1_455 S
C308 O306 1.254 . S
C308 O307 1.268 1_655 S
C309 O314 1.254 . S
C309 O315 1.256 1_455 S
O310 Dy303 2.351 . S
O310 C318 1.249 . S
O311 Dy300 2.326 1_455 S
O311 C318 1.267 . S
O312 C301 1.185 . S
O312 Dy303 2.398 1_554 S
O313 C301 1.355 . S
O313 Dy303 2.491 1_554 S
O314 Dy303 2.403 . S
O314 C309 1.254 . S
O315 Dy300 2.331 . S
O315 Dy303 2.640 1_655 S
O315 C309 1.256 1_655 S
O316 Dy300 2.351 . S
O316 C319 1.249 . S
O317 Dy303 2.326 1_655 S
O317 C319 1.267 . S
C318 O310 1.249 . S
C318 O311 1.267 . S
C319 O316 1.249 . S
C319 O317 1.267 . S
H320 C326 0.930 . S
H321 C329 0.930 . S
H322 C330 0.930 . S
H323 C331 0.930 . S
H324 C334 0.930 . S
H325 C335 0.930 . S
C326 H320 0.930 . S
C326 C327 1.355 . S
C326 C328 1.415 . S
C327 C326 1.355 . S
C327 C329 1.419 . S
C328 C326 1.415 . S
C328 C333 1.425 . S
C328 C335 1.409 . S
C329 H321 0.930 . S
C329 C327 1.419 . S
C329 C330 1.362 . S
C330 H322 0.930 . S
C330 C329 1.362 . S
C330 C333 1.409 . S
C331 H323 0.930 . S
C331 C332 1.355 . S
C331 C333 1.415 . S
C332 C331 1.355 . S
C332 C334 1.419 . S
C333 C328 1.425 . S
C333 C330 1.409 . S
C333 C331 1.415 . S
C334 H324 0.930 . S
C334 C332 1.419 . S
C334 C335 1.362 . S
C335 H325 0.930 . S
C335 C328 1.409 . S
C335 C334 1.362 . S
H336 C342 0.930 . S
H337 C345 0.930 . S
H338 C346 0.930 . S
H339 C347 0.930 . S
H340 C350 0.930 1_556 S
H341 C351 0.930 . S
C342 H336 0.930 . S
C342 C343 1.355 . S
C342 C344 1.415 . S
C343 C342 1.355 . S
C343 C345 1.419 . S
C344 C342 1.415 . S
C344 C349 1.425 . S
C344 C351 1.409 . S
C345 H337 0.930 . S
C345 C343 1.419 . S
C345 C346 1.362 . S
C346 H338 0.930 . S
C346 C345 1.362 . S
C346 C349 1.409 . S
C347 H339 0.930 . S
C347 C348 1.355 . S
C347 C349 1.415 . S
C348 C347 1.355 . S
C348 C350 1.419 . S
C349 C344 1.425 . S
C349 C346 1.409 . S
C349 C347 1.415 . S
C350 H340 0.930 1_554 S
C350 C348 1.419 . S
C350 C351 1.362 . S
C351 H341 0.930 . S
C351 C344 1.409 . S
C351 C350 1.362 . S
H352 C358 0.930 . S
H353 C361 0.930 . S
H354 C362 0.930 . S
H355 C363 0.930 . S
H356 C366 0.930 . S
H357 C367 0.930 . S
C358 H352 0.930 . S
C358 C359 1.355 . S
C358 C360 1.415 . S
C359 C358 1.355 . S
C359 C361 1.419 . S
C360 C358 1.415 . S
C360 C365 1.425 . S
C360 C367 1.409 . S
C361 H353 0.930 . S
C361 C359 1.419 . S
C361 C362 1.362 . S
C362 H354 0.930 . S
C362 C361 1.362 . S
C362 C365 1.409 . S
C363 H355 0.930 . S
C363 C364 1.355 . S
C363 C365 1.415 . S
C364 C363 1.355 . S
C364 C366 1.419 . S
C365 C360 1.425 . S
C365 C362 1.409 . S
C365 C363 1.415 . S
C366 H356 0.930 . S
C366 C364 1.419 . S
C366 C367 1.362 . S
C367 H357 0.930 . S
C367 C360 1.409 . S
C367 C366 1.362 . S
H368 C374 0.930 . S
H369 C377 0.930 . S
H370 C378 0.930 . S
H371 C379 0.930 . S
H372 C382 0.930 . S
H373 C383 0.930 . S
C374 H368 0.930 . S
C374 C375 1.355 . S
C374 C376 1.415 . S
C375 C374 1.355 . S
C375 C377 1.419 . S
C376 C374 1.415 . S
C376 C381 1.425 . S
C376 C383 1.409 . S
C377 H369 0.930 . S
C377 C375 1.419 . S
C377 C378 1.362 . S
C378 H370 0.930 . S
C378 C377 1.362 . S
C378 C381 1.409 . S
C379 H371 0.930 . S
C379 C380 1.355 . S
C379 C381 1.415 . S
C380 C379 1.355 . S
C380 C382 1.419 . S
C381 C376 1.425 . S
C381 C378 1.409 . S
C381 C379 1.415 . S
C382 H372 0.930 . S
C382 C380 1.419 . S
C382 C383 1.362 . S
C383 H373 0.930 . S
C383 C376 1.409 . S
C383 C382 1.362 . S
H384 C390 0.930 . S
H385 C393 0.930 . S
H386 C394 0.930 . S
H387 C395 0.930 . S
H388 C398 0.930 . S
H389 C399 0.930 . S
C390 H384 0.930 . S
C390 C391 1.355 . S
C390 C392 1.415 . S
C391 C390 1.355 . S
C391 C393 1.419 . S
C392 C390 1.415 . S
C392 C397 1.425 . S
C392 C399 1.409 . S
C393 H385 0.930 . S
C393 C391 1.419 . S
C393 C394 1.362 . S
C394 H386 0.930 . S
C394 C393 1.362 . S
C394 C397 1.409 . S
C395 H387 0.930 . S
C395 C396 1.355 . S
C395 C397 1.415 . S
C396 C395 1.355 . S
C396 C398 1.419 . S
C397 C392 1.425 . S
C397 C394 1.409 . S
C397 C395 1.415 . S
C398 H388 0.930 . S
C398 C396 1.419 . S
C398 C399 1.362 . S
C399 H389 0.930 . S
C399 C392 1.409 . S
C399 C398 1.362 . S
H400 C406 0.930 . S
H401 C409 0.930 . S
H402 C410 0.930 . S
H403 C411 0.930 . S
H404 C414 0.930 . S
H405 C415 0.930 . S
C406 H400 0.930 . S
C406 C407 1.355 . S
C406 C408 1.415 . S
C407 C406 1.355 . S
C407 C409 1.419 . S
C408 C406 1.415 . S
C408 C413 1.425 . S
C408 C415 1.409 . S
C409 H401 0.930 . S
C409 C407 1.419 . S
C409 C410 1.362 . S
C410 H402 0.930 . S
C410 C409 1.362 . S
C410 C413 1.409 . S
C411 H403 0.930 . S
C411 C412 1.355 . S
C411 C413 1.415 . S
C412 C411 1.355 . S
C412 C414 1.419 . S
C413 C408 1.425 . S
C413 C410 1.409 . S
C413 C411 1.415 . S
C414 H404 0.930 . S
C414 C412 1.419 . S
C414 C415 1.362 . S
C415 H405 0.930 . S
C415 C408 1.409 . S
C415 C414 1.362 . S
H416 C422 0.930 . S
H417 C425 0.930 . S
H418 C426 0.930 . S
H419 C427 0.930 . S
H420 C430 0.930 . S
H421 C431 0.930 . S
C422 H416 0.930 . S
C422 C423 1.355 . S
C422 C424 1.415 . S
C423 C422 1.355 . S
C423 C425 1.419 . S
C424 C422 1.415 . S
C424 C429 1.425 . S
C424 C431 1.409 . S
C425 H417 0.930 . S
C425 C423 1.419 . S
C425 C426 1.362 . S
C426 H418 0.930 . S
C426 C425 1.362 . S
C426 C429 1.409 . S
C427 H419 0.930 . S
C427 C428 1.355 . S
C427 C429 1.415 . S
C428 C427 1.355 . S
C428 C430 1.419 . S
C429 C424 1.425 . S
C429 C426 1.409 . S
C429 C427 1.415 . S
C430 H420 0.930 . S
C430 C428 1.419 . S
C430 C431 1.362 . S
C431 H421 0.930 . S
C431 C424 1.409 . S
C431 C430 1.362 . S
H432 C438 0.930 . S
H433 C441 0.930 . S
H434 C442 0.930 . S
H435 C443 0.930 . S
H436 C446 0.930 . S
H437 C447 0.930 . S
C438 H432 0.930 . S
C438 C439 1.355 . S
C438 C440 1.415 . S
C439 C438 1.355 . S
C439 C441 1.419 . S
C440 C438 1.415 . S
C440 C445 1.425 . S
C440 C447 1.409 . S
C441 H433 0.930 . S
C441 C439 1.419 . S
C441 C442 1.362 . S
C442 H434 0.930 . S
C442 C441 1.362 . S
C442 C445 1.409 . S
C443 H435 0.930 . S
C443 C444 1.355 . S
C443 C445 1.415 . S
C444 C443 1.355 . S
C444 C446 1.419 . S
C445 C440 1.425 . S
C445 C442 1.409 . S
C445 C443 1.415 . S
C446 H436 0.930 . S
C446 C444 1.419 . S
C446 C447 1.362 . S
C447 H437 0.930 . S
C447 C440 1.409 . S
C447 C446 1.362 . S
H448 C454 0.930 . S
H449 C457 0.930 . S
H450 C458 0.930 . S
H451 C459 0.930 . S
H452 C462 0.930 . S
H453 C463 0.930 . S
C454 H448 0.930 . S
C454 C455 1.355 . S
C454 C456 1.415 . S
C455 C454 1.355 . S
C455 C457 1.419 . S
C456 C454 1.415 . S
C456 C461 1.425 . S
C456 C463 1.409 . S
C457 H449 0.930 . S
C457 C455 1.419 . S
C457 C458 1.362 . S
C458 H450 0.930 . S
C458 C457 1.362 . S
C458 C461 1.409 . S
C459 H451 0.930 . S
C459 C460 1.355 . S
C459 C461 1.415 . S
C460 C459 1.355 . S
C460 C462 1.419 . S
C461 C456 1.425 . S
C461 C458 1.409 . S
C461 C459 1.415 . S
C462 H452 0.930 . S
C462 C460 1.419 . S
C462 C463 1.362 . S
C463 H453 0.930 . S
C463 C456 1.409 . S
C463 C462 1.362 . S
H464 C470 0.930 . S
H465 C473 0.930 . S
H466 C474 0.930 . S
H467 C475 0.930 . S
H468 C478 0.930 . S
H469 C479 0.930 . S
C470 H464 0.930 . S
C470 C471 1.355 . S
C470 C472 1.415 . S
C471 C470 1.355 . S
C471 C473 1.419 . S
C472 C470 1.415 . S
C472 C477 1.425 . S
C472 C479 1.409 . S
C473 H465 0.930 . S
C473 C471 1.419 . S
C473 C474 1.362 . S
C474 H466 0.930 . S
C474 C473 1.362 . S
C474 C477 1.409 . S
C475 H467 0.930 . S
C475 C476 1.355 . S
C475 C477 1.415 . S
C476 C475 1.355 . S
C476 C478 1.419 . S
C477 C472 1.425 . S
C477 C474 1.409 . S
C477 C475 1.415 . S
C478 H468 0.930 . S
C478 C476 1.419 . S
C478 C479 1.362 . S
C479 H469 0.930 . S
C479 C472 1.409 . S
C479 C478 1.362 . S
H480 C486 0.930 . S
H481 C489 0.928 . S
H482 C490 0.930 . S
H483 C491 0.930 . S
H484 C494 0.930 . S
H485 C495 0.930 . S
C486 H480 0.930 . S
C486 C487 1.362 . S
C486 C488 1.415 . S
C487 C486 1.362 . S
C487 C489 1.419 1_556 S
C488 C486 1.415 . S
C488 C493 1.425 . S
C488 C495 1.409 . S
C489 H481 0.928 . S
C489 C487 1.419 1_554 S
C489 C490 1.364 1_554 S
C490 H482 0.930 . S
C490 C489 1.364 1_556 S
C490 C493 1.409 . S
C491 H483 0.930 . S
C491 C492 1.355 . S
C491 C493 1.415 . S
C492 C491 1.355 . S
C492 C494 1.419 . S
C493 C488 1.425 . S
C493 C490 1.409 . S
C493 C491 1.415 . S
C494 H484 0.930 . S
C494 C492 1.419 . S
C494 C495 1.362 . S
C495 H485 0.930 . S
C495 C488 1.409 . S
C495 C494 1.362 . S
H496 C502 0.930 . S
H497 C505 0.930 . S
H498 C506 0.930 . S
H499 C507 0.930 . S
H500 C510 0.930 1_556 S
H501 C511 0.930 . S
C502 H496 0.930 . S
C502 C503 1.355 . S
C502 C504 1.415 . S
C503 C502 1.355 . S
C503 C505 1.419 . S
C504 C502 1.415 . S
C504 C509 1.425 . S
C504 C511 1.409 . S
C505 H497 0.930 . S
C505 C503 1.419 . S
C505 C506 1.362 . S
C506 H498 0.930 . S
C506 C505 1.362 . S
C506 C509 1.409 . S
C507 H499 0.930 . S
C507 C508 1.355 . S
C507 C509 1.415 . S
C508 C507 1.355 . S
C508 C510 1.419 . S
C509 C504 1.425 . S
C509 C506 1.409 . S
C509 C507 1.415 . S
C510 H500 0.930 1_554 S
C510 C508 1.419 . S
C510 C511 1.362 . S
C511 H501 0.930 . S
C511 C504 1.409 . S
C511 C510 1.362 . S
H512 C518 0.930 . S
H513 C521 0.930 . S
H514 C522 0.930 . S
H515 C523 0.930 . S
H516 C526 0.930 . S
H517 C527 0.930 . S
C518 H512 0.930 . S
C518 C519 1.355 . S
C518 C520 1.415 . S
C519 C518 1.355 . S
C519 C521 1.419 . S
C520 C518 1.415 . S
C520 C525 1.425 . S
C520 C527 1.409 . S
C521 H513 0.930 . S
C521 C519 1.419 . S
C521 C522 1.362 . S
C522 H514 0.930 . S
C522 C521 1.362 . S
C522 C525 1.409 . S
C523 H515 0.930 . S
C523 C524 1.355 . S
C523 C525 1.415 . S
C524 C523 1.355 . S
C524 C526 1.419 . S
C525 C520 1.425 . S
C525 C522 1.409 . S
C525 C523 1.415 . S
C526 H516 0.930 . S
C526 C524 1.419 . S
C526 C527 1.362 . S
C527 H517 0.930 . S
C527 C520 1.409 . S
C527 C526 1.362 . S
H528 C534 0.930 . S
H529 C537 0.930 . S
H530 C538 0.930 . S
H531 C539 0.930 . S
H532 C542 0.930 . S
H533 C543 0.930 . S
C534 H528 0.930 . S
C534 C535 1.355 . S
C534 C536 1.415 . S
C535 C534 1.355 . S
C535 C537 1.419 . S
C536 C534 1.415 . S
C536 C541 1.425 . S
C536 C543 1.409 . S
C537 H529 0.930 . S
C537 C535 1.419 . S
C537 C538 1.362 . S
C538 H530 0.930 . S
C538 C537 1.362 . S
C538 C541 1.409 . S
C539 H531 0.930 . S
C539 C540 1.355 . S
C539 C541 1.415 . S
C540 C539 1.355 . S
C540 C542 1.419 . S
C541 C536 1.425 . S
C541 C538 1.409 . S
C541 C539 1.415 . S
C542 H532 0.930 . S
C542 C540 1.419 . S
C542 C543 1.362 . S
C543 H533 0.930 . S
C543 C536 1.409 . S
C543 C542 1.362 . S
H544 C550 0.930 . S
H545 C553 0.930 . S
H546 C554 0.930 . S
H547 C555 0.930 . S
H548 C558 0.930 . S
H549 C559 0.930 . S
C550 H544 0.930 . S
C550 C551 1.355 . S
C550 C552 1.415 . S
C551 C550 1.355 . S
C551 C553 1.419 . S
C552 C550 1.415 . S
C552 C557 1.425 . S
C552 C559 1.409 . S
C553 H545 0.930 . S
C553 C551 1.419 . S
C553 C554 1.362 . S
C554 H546 0.930 . S
C554 C553 1.362 . S
C554 C557 1.409 . S
C555 H547 0.930 . S
C555 C556 1.355 . S
C555 C557 1.415 . S
C556 C555 1.355 . S
C556 C558 1.419 . S
C557 C552 1.425 . S
C557 C554 1.409 . S
C557 C555 1.415 . S
C558 H548 0.930 . S
C558 C556 1.419 . S
C558 C559 1.362 . S
C559 H549 0.930 . S
C559 C552 1.409 . S
C559 C558 1.362 . S
H560 C566 0.930 . S
H561 C569 0.930 . S
H562 C570 0.930 . S
H563 C571 0.930 . S
H564 C574 0.930 1_554 S
H565 C575 0.930 . S
C566 H560 0.930 . S
C566 C567 1.355 . S
C566 C568 1.415 . S
C567 C566 1.355 . S
C567 C569 1.419 . S
C568 C566 1.415 . S
C568 C573 1.425 . S
C568 C575 1.409 . S
C569 H561 0.930 . S
C569 C567 1.419 . S
C569 C570 1.362 . S
C570 H562 0.930 . S
C570 C569 1.362 . S
C570 C573 1.409 . S
C571 H563 0.930 . S
C571 C572 1.355 . S
C571 C573 1.415 . S
C572 C571 1.355 . S
C572 C574 1.419 . S
C573 C568 1.425 . S
C573 C570 1.409 . S
C573 C571 1.415 . S
C574 H564 0.930 1_556 S
C574 C572 1.419 . S
C574 C575 1.362 . S
C575 H565 0.930 . S
C575 C568 1.409 . S
C575 C574 1.362 . S
H576 C582 0.930 . S
H577 C585 0.930 . S
H578 C586 0.930 . S
H579 C587 0.930 . S
H580 C590 0.930 . S
H581 C591 0.930 . S
C582 H576 0.930 . S
C582 C583 1.355 . S
C582 C584 1.415 . S
C583 C582 1.355 . S
C583 C585 1.419 1_455 S
C584 C582 1.415 . S
C584 C589 1.425 1_455 S
C584 C591 1.409 . S
C585 H577 0.930 . S
C585 C583 1.419 1_655 S
C585 C586 1.362 . S
C586 H578 0.930 . S
C586 C585 1.362 . S
C586 C589 1.409 . S
C587 H579 0.930 . S
C587 C588 1.355 1_655 S
C587 C589 1.415 . S
C588 C587 1.355 1_455 S
C588 C590 1.419 . S
C589 C584 1.425 1_655 S
C589 C586 1.409 . S
C589 C587 1.415 . S
C590 H580 0.930 . S
C590 C588 1.419 . S
C590 C591 1.362 . S
C591 H581 0.930 . S
C591 C584 1.409 . S
C591 C590 1.362 . S
H592 C598 0.930 . S
H593 C601 0.930 . S
H594 C602 0.930 . S
H595 C603 0.930 . S
H596 C606 0.930 . S
H597 C607 0.930 . S
C598 H592 0.930 . S
C598 C599 1.355 . S
C598 C600 1.415 . S
C599 C598 1.355 . S
C599 C601 1.419 . S
C600 C598 1.415 . S
C600 C605 1.425 1_655 S
C600 C607 1.409 1_655 S
C601 H593 0.930 . S
C601 C599 1.419 . S
C601 C602 1.362 . S
C602 H594 0.930 . S
C602 C601 1.362 . S
C602 C605 1.409 1_655 S
C603 H595 0.930 . S
C603 C604 1.355 . S
C603 C605 1.415 . S
C604 C603 1.355 . S
C604 C606 1.419 . S
C605 C600 1.425 1_455 S
C605 C602 1.409 1_455 S
C605 C603 1.415 . S
C606 H596 0.930 . S
C606 C604 1.419 . S
C606 C607 1.362 . S
C607 H597 0.930 . S
C607 C600 1.409 1_455 S
C607 C606 1.362 . S
H608 C614 0.930 . S
H609 C617 0.930 . S
H610 C618 0.930 . S
H611 C619 0.930 . S
H612 C622 0.930 . S
H613 C623 0.930 . S
C614 H608 0.930 . S
C614 C615 1.355 . S
C614 C616 1.415 . S
C615 C614 1.355 . S
C615 C617 1.419 . S
C616 C614 1.415 . S
C616 C621 1.425 . S
C616 C623 1.409 . S
C617 H609 0.930 . S
C617 C615 1.419 . S
C617 C618 1.362 . S
C618 H610 0.930 . S
C618 C617 1.362 . S
C618 C621 1.409 . S
C619 H611 0.930 . S
C619 C620 1.355 . S
C619 C621 1.415 . S
C620 C619 1.355 . S
C620 C622 1.419 . S
C621 C616 1.425 . S
C621 C618 1.409 . S
C621 C619 1.415 . S
C622 H612 0.930 . S
C622 C620 1.419 . S
C622 C623 1.362 . S
C623 H613 0.930 . S
C623 C616 1.409 . S
C623 C622 1.362 . S
H624 C630 0.930 . S
H625 C633 0.930 . S
H626 C634 0.930 . S
H627 C635 0.930 . S
H628 C638 0.930 . S
H629 C639 0.930 . S
C630 H624 0.930 . S
C630 C631 1.355 . S
C630 C632 1.415 . S
C631 C630 1.355 . S
C631 C633 1.419 . S
C632 C630 1.415 . S
C632 C637 1.425 . S
C632 C639 1.409 . S
C633 H625 0.930 . S
C633 C631 1.419 . S
C633 C634 1.362 . S
C634 H626 0.930 . S
C634 C633 1.362 . S
C634 C637 1.409 . S
C635 H627 0.930 . S
C635 C636 1.355 . S
C635 C637 1.415 . S
C636 C635 1.355 . S
C636 C638 1.419 . S
C637 C632 1.425 . S
C637 C634 1.409 . S
C637 C635 1.415 . S
C638 H628 0.930 . S
C638 C636 1.419 . S
C638 C639 1.362 . S
C639 H629 0.930 . S
C639 C632 1.409 . S
C639 C638 1.362 . S
H640 C646 0.930 . S
H641 C649 0.930 . S
H642 C650 0.930 . S
H643 C651 0.930 . S
H644 C654 0.930 . S
H645 C655 0.930 . S
C646 H640 0.930 . S
C646 C647 1.355 1_655 S
C646 C648 1.415 . S
C647 C646 1.355 1_455 S
C647 C649 1.419 . S
C648 C646 1.415 . S
C648 C653 1.425 1_655 S
C648 C655 1.409 . S
C649 H641 0.930 . S
C649 C647 1.419 . S
C649 C650 1.362 . S
C650 H642 0.930 . S
C650 C649 1.362 . S
C650 C653 1.409 . S
C651 H643 0.930 . S
C651 C652 1.355 . S
C651 C653 1.415 . S
C652 C651 1.355 . S
C652 C654 1.419 1_455 S
C653 C648 1.425 1_455 S
C653 C650 1.409 . S
C653 C651 1.415 . S
C654 H644 0.930 . S
C654 C652 1.419 1_655 S
C654 C655 1.362 . S
C655 H645 0.930 . S
C655 C648 1.409 . S
C655 C654 1.362 . S
H656 C662 0.930 . S
H657 C665 0.930 . S
H658 C666 0.930 . S
H659 C667 0.930 . S
H660 C670 0.930 . S
H661 C671 0.930 . S
C662 H656 0.930 . S
C662 C663 1.355 . S
C662 C664 1.415 . S
C663 C662 1.355 . S
C663 C665 1.419 . S
C664 C662 1.415 . S
C664 C669 1.425 . S
C664 C671 1.409 . S
C665 H657 0.930 . S
C665 C663 1.419 . S
C665 C666 1.362 . S
C666 H658 0.930 . S
C666 C665 1.362 . S
C666 C669 1.409 . S
C667 H659 0.930 . S
C667 C668 1.355 . S
C667 C669 1.415 . S
C668 C667 1.355 . S
C668 C670 1.419 . S
C669 C664 1.425 . S
C669 C666 1.409 . S
C669 C667 1.415 . S
C670 H660 0.930 . S
C670 C668 1.419 . S
C670 C671 1.362 . S
C671 H661 0.930 . S
C671 C664 1.409 . S
C671 C670 1.362 . S
H672 C678 0.930 . S
H673 C681 0.930 . S
H674 C682 0.930 . S
H675 C683 0.930 . S
H676 C686 0.930 . S
H677 C687 0.930 . S
C678 H672 0.930 . S
C678 C679 1.355 . S
C678 C680 1.415 . S
C679 C678 1.355 . S
C679 C681 1.419 . S
C680 C678 1.415 . S
C680 C685 1.425 . S
C680 C687 1.409 . S
C681 H673 0.930 . S
C681 C679 1.419 . S
C681 C682 1.362 . S
C682 H674 0.930 . S
C682 C681 1.362 . S
C682 C685 1.409 . S
C683 H675 0.930 . S
C683 C684 1.355 . S
C683 C685 1.415 . S
C684 C683 1.355 . S
C684 C686 1.419 . S
C685 C680 1.425 . S
C685 C682 1.409 . S
C685 C683 1.415 . S
C686 H676 0.930 . S
C686 C684 1.419 . S
C686 C687 1.362 . S
C687 H677 0.930 . S
C687 C680 1.409 . S
C687 C686 1.362 . S
H688 C694 0.930 . S
H689 C697 0.930 . S
H690 C698 0.930 . S
H691 C699 0.930 . S
H692 C702 0.930 . S
H693 C703 0.930 . S
C694 H688 0.930 . S
C694 C695 1.355 . S
C694 C696 1.415 . S
C695 C694 1.355 . S
C695 C697 1.419 . S
C696 C694 1.415 . S
C696 C701 1.425 1_455 S
C696 C703 1.409 1_455 S
C697 H689 0.930 . S
C697 C695 1.419 . S
C697 C698 1.362 . S
C698 H690 0.930 . S
C698 C697 1.362 . S
C698 C701 1.408 1_455 S
C699 H691 0.930 . S
C699 C700 1.355 . S
C699 C701 1.416 . S
C700 C699 1.355 . S
C700 C702 1.419 . S
C701 C696 1.425 1_655 S
C701 C698 1.408 1_655 S
C701 C699 1.416 . S
C702 H692 0.930 . S
C702 C700 1.419 . S
C702 C703 1.362 . S
C703 H693 0.930 . S
C703 C696 1.409 1_655 S
C703 C702 1.362 . S
H704 C710 0.930 . S
H705 C713 0.930 . S
H706 C714 0.930 1_565 S
H707 C715 0.930 . S
H708 C718 0.930 . S
H709 C719 0.930 1_545 S
C710 H704 0.930 . S
C710 C711 1.355 1_655 S
C710 C712 1.415 1_554 S
C711 C710 1.355 1_455 S
C711 C713 1.419 . S
C712 C710 1.415 1_556 S
C712 C717 1.425 1_645 S
C712 C719 1.409 1_545 S
C713 H705 0.930 . S
C713 C711 1.419 . S
C713 C714 1.362 . S
C714 H706 0.930 1_545 S
C714 C713 1.362 . S
C714 C717 1.409 1_544 S
C715 H707 0.930 . S
C715 C716 1.355 . S
C715 C717 1.415 . S
C716 C715 1.355 . S
C716 C718 1.419 1_455 S
C717 C712 1.425 1_465 S
C717 C714 1.409 1_566 S
C717 C715 1.415 . S
C718 H708 0.930 . S
C718 C716 1.419 1_655 S
C718 C719 1.362 . S
C719 H709 0.930 1_565 S
C719 C712 1.409 1_565 S
C719 C718 1.362 . S
H720 C726 0.930 . S
H721 C729 0.930 . S
H722 C730 0.930 . S
H723 C731 0.930 . S
H724 C734 0.930 . S
H725 C735 0.930 . S
C726 H720 0.930 . S
C726 C727 1.355 . S
C726 C728 1.415 . S
C727 C726 1.355 . S
C727 C729 1.419 . S
C728 C726 1.415 . S
C728 C733 1.425 . S
C728 C735 1.409 . S
C729 H721 0.930 . S
C729 C727 1.419 . S
C729 C730 1.362 . S
C730 H722 0.930 . S
C730 C729 1.362 . S
C730 C733 1.409 . S
C731 H723 0.930 . S
C731 C732 1.355 . S
C731 C733 1.415 . S
C732 C731 1.355 . S
C732 C734 1.419 . S
C733 C728 1.425 . S
C733 C730 1.409 . S
C733 C731 1.415 . S
C734 H724 0.930 . S
C734 C732 1.419 . S
C734 C735 1.362 . S
C735 H725 0.930 . S
C735 C728 1.409 . S
C735 C734 1.362 . S
H736 C742 0.930 . S
H737 C745 0.930 . S
H738 C746 0.930 . S
H739 C747 0.930 . S
H740 C750 0.930 . S
H741 C751 0.930 . S
C742 H736 0.930 . S
C742 C743 1.355 . S
C742 C744 1.415 . S
C743 C742 1.355 . S
C743 C745 1.419 . S
C744 C742 1.415 . S
C744 C749 1.425 1_545 S
C744 C751 1.409 . S
C745 H737 0.930 . S
C745 C743 1.419 . S
C745 C746 1.362 1_545 S
C746 H738 0.930 . S
C746 C745 1.362 1_565 S
C746 C749 1.409 . S
C747 H739 0.930 . S
C747 C748 1.355 . S
C747 C749 1.415 . S
C748 C747 1.355 . S
C748 C750 1.419 . S
C749 C744 1.425 1_565 S
C749 C746 1.409 . S
C749 C747 1.415 . S
C750 H740 0.930 . S
C750 C748 1.419 . S
C750 C751 1.362 1_565 S
C751 H741 0.930 . S
C751 C744 1.409 . S
C751 C750 1.362 1_545 S
H752 C758 0.930 . S
H753 C761 0.930 . S
H754 C762 0.930 . S
H755 C763 0.930 . S
H756 C766 0.930 . S
H757 C767 0.930 . S
C758 H752 0.930 . S
C758 C759 1.355 . S
C758 C760 1.415 . S
C759 C758 1.355 . S
C759 C761 1.419 . S
C760 C758 1.415 . S
C760 C765 1.425 . S
C760 C767 1.409 . S
C761 H753 0.930 . S
C761 C759 1.419 . S
C761 C762 1.362 . S
C762 H754 0.930 . S
C762 C761 1.362 . S
C762 C765 1.409 . S
C763 H755 0.930 . S
C763 C764 1.355 . S
C763 C765 1.415 . S
C764 C763 1.355 . S
C764 C766 1.419 . S
C765 C760 1.425 . S
C765 C762 1.409 . S
C765 C763 1.415 . S
C766 H756 0.930 . S
C766 C764 1.419 . S
C766 C767 1.362 . S
C767 H757 0.930 . S
C767 C760 1.409 . S
C767 C766 1.362 . S
H768 C774 0.930 . S
H769 C777 0.930 . S
H770 C778 0.930 . S
H771 C779 0.930 . S
H772 C782 0.930 . S
H773 C783 0.930 . S
C774 H768 0.930 . S
C774 C775 1.355 . S
C774 C776 1.415 . S
C775 C774 1.355 . S
C775 C777 1.419 . S
C776 C774 1.415 . S
C776 C781 1.425 . S
C776 C783 1.409 . S
C777 H769 0.930 . S
C777 C775 1.419 . S
C777 C778 1.362 . S
C778 H770 0.930 . S
C778 C777 1.362 . S
C778 C781 1.409 . S
C779 H771 0.930 . S
C779 C780 1.355 . S
C779 C781 1.415 . S
C780 C779 1.355 . S
C780 C782 1.419 . S
C781 C776 1.425 . S
C781 C778 1.409 . S
C781 C779 1.415 . S
C782 H772 0.930 . S
C782 C780 1.419 . S
C782 C783 1.362 . S
C783 H773 0.930 . S
C783 C776 1.409 . S
C783 C782 1.362 . S
H784 C790 0.930 . S
H785 C793 0.930 . S
H786 C794 0.930 . S
H787 C795 0.930 . S
H788 C798 0.930 . S
H789 C799 0.930 . S
C790 H784 0.930 . S
C790 C791 1.355 . S
C790 C792 1.415 . S
C791 C790 1.355 . S
C791 C793 1.419 . S
C792 C790 1.415 . S
C792 C797 1.425 . S
C792 C799 1.409 . S
C793 H785 0.930 . S
C793 C791 1.419 . S
C793 C794 1.362 . S
C794 H786 0.930 . S
C794 C793 1.362 . S
C794 C797 1.409 . S
C795 H787 0.930 . S
C795 C796 1.355 . S
C795 C797 1.415 . S
C796 C795 1.355 . S
C796 C798 1.419 . S
C797 C792 1.425 . S
C797 C794 1.409 . S
C797 C795 1.415 . S
C798 H788 0.930 . S
C798 C796 1.419 . S
C798 C799 1.362 . S
C799 H789 0.930 . S
C799 C792 1.409 . S
C799 C798 1.362 . S
H800 C806 0.930 . S
H801 C809 0.930 . S
H802 C810 0.930 . S
H803 C811 0.930 . S
H804 C814 0.930 . S
H805 C815 0.930 . S
C806 H800 0.930 . S
C806 C807 1.355 . S
C806 C808 1.415 . S
C807 C806 1.355 . S
C807 C809 1.419 . S
C808 C806 1.415 . S
C808 C813 1.425 . S
C808 C815 1.409 . S
C809 H801 0.930 . S
C809 C807 1.419 . S
C809 C810 1.362 . S
C810 H802 0.930 . S
C810 C809 1.362 . S
C810 C813 1.409 . S
C811 H803 0.930 . S
C811 C812 1.355 . S
C811 C813 1.415 . S
C812 C811 1.355 . S
C812 C814 1.419 . S
C813 C808 1.425 . S
C813 C810 1.409 . S
C813 C811 1.415 . S
C814 H804 0.930 . S
C814 C812 1.419 . S
C814 C815 1.362 . S
C815 H805 0.930 . S
C815 C808 1.409 . S
C815 C814 1.362 . S
H816 C822 0.930 . S
H817 C825 0.930 . S
H818 C826 0.930 . S
H819 C827 0.930 . S
H820 C830 0.930 . S
H821 C831 0.930 . S
C822 H816 0.930 . S
C822 C823 1.355 1_655 S
C822 C824 1.415 1_556 S
C823 C822 1.355 1_455 S
C823 C825 1.419 . S
C824 C822 1.415 1_554 S
C824 C829 1.425 1_655 S
C824 C831 1.409 . S
C825 H817 0.930 . S
C825 C823 1.419 . S
C825 C826 1.362 . S
C826 H818 0.930 . S
C826 C825 1.362 . S
C826 C829 1.409 1_556 S
C827 H819 0.930 . S
C827 C828 1.362 . S
C827 C829 1.415 . S
C828 C827 1.362 . S
C828 C830 1.410 1_455 S
C829 C824 1.425 1_455 S
C829 C826 1.409 1_554 S
C829 C827 1.415 . S
C830 H820 0.930 . S
C830 C828 1.410 1_655 S
C830 C831 1.362 . S
C831 H821 0.930 . S
C831 C824 1.409 . S
C831 C830 1.362 . S
H832 C838 0.930 . S
H833 C841 0.930 . S
H834 C842 0.930 . S
H835 C843 0.930 . S
H836 C846 0.930 . S
H837 C847 0.930 . S
C838 H832 0.930 . S
C838 C839 1.355 . S
C838 C840 1.415 . S
C839 C838 1.355 . S
C839 C841 1.419 . S
C840 C838 1.415 . S
C840 C845 1.425 . S
C840 C847 1.409 . S
C841 H833 0.930 . S
C841 C839 1.419 . S
C841 C842 1.362 . S
C842 H834 0.930 . S
C842 C841 1.362 . S
C842 C845 1.409 . S
C843 H835 0.930 . S
C843 C844 1.355 . S
C843 C845 1.415 . S
C844 C843 1.355 . S
C844 C846 1.419 . S
C845 C840 1.425 . S
C845 C842 1.409 . S
C845 C843 1.415 . S
C846 H836 0.930 . S
C846 C844 1.419 . S
C846 C847 1.362 . S
C847 H837 0.930 . S
C847 C840 1.409 . S
C847 C846 1.362 . S
H848 C854 0.930 . S
H849 C857 0.930 . S
H850 C858 0.930 . S
H851 C859 0.930 . S
H852 C862 0.930 . S
H853 C863 0.930 . S
C854 H848 0.930 . S
C854 C855 1.355 . S
C854 C856 1.415 . S
C855 C854 1.355 . S
C855 C857 1.419 . S
C856 C854 1.415 . S
C856 C861 1.425 . S
C856 C863 1.409 . S
C857 H849 0.930 . S
C857 C855 1.419 . S
C857 C858 1.362 . S
C858 H850 0.930 . S
C858 C857 1.362 . S
C858 C861 1.409 . S
C859 H851 0.930 . S
C859 C860 1.355 . S
C859 C861 1.415 . S
C860 C859 1.355 . S
C860 C862 1.419 . S
C861 C856 1.425 . S
C861 C858 1.409 . S
C861 C859 1.415 . S
C862 H852 0.930 . S
C862 C860 1.419 . S
C862 C863 1.362 . S
C863 H853 0.930 . S
C863 C856 1.409 . S
C863 C862 1.362 . S
H864 C870 0.930 . S
H865 C873 0.930 . S
H866 C874 0.930 . S
H867 C875 0.930 . S
H868 C878 0.930 . S
H869 C879 0.930 . S
C870 H864 0.930 . S
C870 C871 1.355 . S
C870 C872 1.415 . S
C871 C870 1.355 . S
C871 C873 1.419 1_556 S
C872 C870 1.415 . S
C872 C877 1.425 . S
C872 C879 1.409 . S
C873 H865 0.930 . S
C873 C871 1.419 1_554 S
C873 C874 1.362 1_554 S
C874 H866 0.930 . S
C874 C873 1.362 1_556 S
C874 C877 1.409 . S
C875 H867 0.930 . S
C875 C876 1.355 . S
C875 C877 1.415 . S
C876 C875 1.355 . S
C876 C878 1.419 . S
C877 C872 1.425 . S
C877 C874 1.409 . S
C877 C875 1.415 . S
C878 H868 0.930 . S
C878 C876 1.419 . S
C878 C879 1.362 . S
C879 H869 0.930 . S
C879 C872 1.409 . S
C879 C878 1.362 . S
H880 C886 0.930 . S
H881 C889 0.930 . S
H882 C890 0.930 . S
H883 C891 0.930 . S
H884 C894 0.930 . S
H885 C895 0.930 . S
C886 H880 0.930 . S
C886 C887 1.355 . S
C886 C888 1.415 . S
C887 C886 1.355 . S
C887 C889 1.419 . S
C888 C886 1.415 . S
C888 C893 1.425 . S
C888 C895 1.409 . S
C889 H881 0.930 . S
C889 C887 1.419 . S
C889 C890 1.362 . S
C890 H882 0.930 . S
C890 C889 1.362 . S
C890 C893 1.409 . S
C891 H883 0.930 . S
C891 C892 1.355 . S
C891 C893 1.415 . S
C892 C891 1.355 . S
C892 C894 1.419 . S
C893 C888 1.425 . S
C893 C890 1.409 . S
C893 C891 1.415 . S
C894 H884 0.930 . S
C894 C892 1.419 . S
C894 C895 1.362 . S
C895 H885 0.930 . S
C895 C888 1.409 . S
C895 C894 1.362 . S
H896 C902 0.930 . S
H897 C905 0.930 . S
H898 C906 0.930 . S
H899 C907 0.930 . S
H900 C910 0.930 . S
H901 C911 0.930 . S
C902 H896 0.930 . S
C902 C903 1.355 . S
C902 C904 1.415 . S
C903 C902 1.355 . S
C903 C905 1.419 . S
C904 C902 1.415 . S
C904 C909 1.425 . S
C904 C911 1.409 . S
C905 H897 0.930 . S
C905 C903 1.419 . S
C905 C906 1.362 . S
C906 H898 0.930 . S
C906 C905 1.362 . S
C906 C909 1.409 . S
C907 H899 0.930 . S
C907 C908 1.355 . S
C907 C909 1.415 . S
C908 C907 1.355 . S
C908 C910 1.419 . S
C909 C904 1.425 . S
C909 C906 1.409 . S
C909 C907 1.415 . S
C910 H900 0.930 . S
C910 C908 1.419 . S
C910 C911 1.362 . S
C911 H901 0.930 . S
C911 C904 1.409 . S
C911 C910 1.362 . S
H912 C918 0.930 . S
H913 C921 0.930 . S
H914 C922 0.930 . S
H915 C923 0.930 . S
H916 C926 0.930 . S
H917 C927 0.930 . S
C918 H912 0.930 . S
C918 C919 1.355 . S
C918 C920 1.415 . S
C919 C918 1.355 . S
C919 C921 1.419 . S
C920 C918 1.415 . S
C920 C925 1.425 . S
C920 C927 1.409 . S
C921 H913 0.930 . S
C921 C919 1.419 . S
C921 C922 1.362 . S
C922 H914 0.930 . S
C922 C921 1.362 . S
C922 C925 1.409 . S
C923 H915 0.930 . S
C923 C924 1.355 . S
C923 C925 1.415 . S
C924 C923 1.355 . S
C924 C926 1.419 . S
C925 C920 1.425 . S
C925 C922 1.409 . S
C925 C923 1.415 . S
C926 H916 0.930 . S
C926 C924 1.419 . S
C926 C927 1.362 . S
C927 H917 0.930 . S
C927 C920 1.409 . S
C927 C926 1.362 . S
H928 C934 0.930 . S
H929 C937 0.930 1_556 S
H930 C938 0.930 . S
H931 C939 0.930 . S
H932 C942 0.930 . S
H933 C943 0.930 . S
C934 H928 0.930 . S
C934 C935 1.355 . S
C934 C936 1.415 . S
C935 C934 1.355 . S
C935 C937 1.419 . S
C936 C934 1.415 . S
C936 C941 1.425 . S
C936 C943 1.409 . S
C937 H929 0.930 1_554 S
C937 C935 1.419 . S
C937 C938 1.362 . S
C938 H930 0.930 . S
C938 C937 1.362 . S
C938 C941 1.409 . S
C939 H931 0.930 . S
C939 C940 1.355 . S
C939 C941 1.415 . S
C940 C939 1.355 . S
C940 C942 1.419 . S
C941 C936 1.425 . S
C941 C938 1.409 . S
C941 C939 1.415 . S
C942 H932 0.930 . S
C942 C940 1.419 . S
C942 C943 1.362 . S
C943 H933 0.930 . S
C943 C936 1.409 . S
C943 C942 1.362 . S
H944 C950 0.930 . S
H945 C953 0.930 . S
H946 C954 0.930 . S
H947 C955 0.930 . S
H948 C958 0.930 . S
H949 C959 0.930 . S
C950 H944 0.930 . S
C950 C951 1.355 . S
C950 C952 1.415 . S
C951 C950 1.355 . S
C951 C953 1.419 . S
C952 C950 1.415 . S
C952 C957 1.425 . S
C952 C959 1.409 . S
C953 H945 0.930 . S
C953 C951 1.419 . S
C953 C954 1.362 . S
C954 H946 0.930 . S
C954 C953 1.362 . S
C954 C957 1.409 . S
C955 H947 0.930 . S
C955 C956 1.355 . S
C955 C957 1.415 . S
C956 C955 1.355 . S
C956 C958 1.419 . S
C957 C952 1.425 . S
C957 C954 1.409 . S
C957 C955 1.415 . S
C958 H948 0.930 . S
C958 C956 1.419 . S
C958 C959 1.362 . S
C959 H949 0.930 . S
C959 C952 1.409 . S
C959 C958 1.362 . S
H960 C966 0.930 . S
H961 C969 0.930 . S
H962 C970 0.930 . S
H963 C971 0.930 . S
H964 C974 0.950 . S
H965 C975 0.930 . S
C966 H960 0.930 . S
C966 C967 1.355 . S
C966 C968 1.415 . S
C967 C966 1.355 . S
C967 C969 1.419 . S
C968 C966 1.415 . S
C968 C973 1.425 . S
C968 C975 1.409 . S
C969 H961 0.930 . S
C969 C967 1.419 . S
C969 C970 1.362 . S
C970 H962 0.930 . S
C970 C969 1.362 . S
C970 C973 1.409 . S
C971 H963 0.930 . S
C971 C972 1.355 . S
C971 C973 1.415 . S
C972 C971 1.355 . S
C972 C974 1.419 . S
C973 C968 1.425 . S
C973 C970 1.409 . S
C973 C971 1.415 . S
C974 H964 0.950 . S
C974 C972 1.419 . S
C974 C975 1.362 . S
C975 H965 0.930 . S
C975 C968 1.409 . S
C975 C974 1.362 . S
H976 C982 0.930 . S
H977 C985 0.930 . S
H978 C986 0.930 . S
H979 C987 0.930 . S
H980 C990 0.930 1_556 S
H981 C991 0.930 . S
C982 H976 0.930 . S
C982 C983 1.355 . S
C982 C984 1.415 . S
C983 C982 1.355 . S
C983 C985 1.419 . S
C984 C982 1.415 . S
C984 C989 1.425 . S
C984 C991 1.409 . S
C985 H977 0.930 . S
C985 C983 1.419 . S
C985 C986 1.362 . S
C986 H978 0.930 . S
C986 C985 1.362 . S
C986 C989 1.409 . S
C987 H979 0.930 . S
C987 C988 1.355 . S
C987 C989 1.415 . S
C988 C987 1.355 . S
C988 C990 1.419 . S
C989 C984 1.425 . S
C989 C986 1.409 . S
C989 C987 1.415 . S
C990 H980 0.930 1_554 S
C990 C988 1.419 . S
C990 C991 1.362 . S
C991 H981 0.930 . S
C991 C984 1.409 . S
C991 C990 1.362 . S
H992 C998 0.930 . S
H993 C1001 0.930 . S
H994 C1002 0.930 . S
H995 C1003 0.930 . S
H996 C1006 0.930 . S
H997 C1007 0.930 . S
C998 H992 0.930 . S
C998 C999 1.355 . S
C998 C1000 1.415 . S
C999 C998 1.355 . S
C999 C1001 1.419 . S
C1000 C998 1.415 . S
C1000 C1005 1.425 . S
C1000 C1007 1.409 . S
C1001 H993 0.930 . S
C1001 C999 1.419 . S
C1001 C1002 1.362 . S
C1002 H994 0.930 . S
C1002 C1001 1.362 . S
C1002 C1005 1.409 . S
C1003 H995 0.930 . S
C1003 C1004 1.355 . S
C1003 C1005 1.415 . S
C1004 C1003 1.355 . S
C1004 C1006 1.419 . S
C1005 C1000 1.425 . S
C1005 C1002 1.409 . S
C1005 C1003 1.415 . S
C1006 H996 0.930 . S
C1006 C1004 1.419 . S
C1006 C1007 1.362 . S
C1007 H997 0.930 . S
C1007 C1000 1.409 . S
C1007 C1006 1.362 . S
H1008 C1014 0.930 . S
H1009 C1017 0.930 . S
H1010 C1018 0.930 . S
H1011 C1019 0.930 . S
H1012 C1022 0.930 . S
H1013 C1023 0.930 . S
C1014 H1008 0.930 . S
C1014 C1015 1.355 . S
C1014 C1016 1.415 . S
C1015 C1014 1.355 . S
C1015 C1017 1.419 . S
C1016 C1014 1.415 . S
C1016 C1021 1.425 . S
C1016 C1023 1.409 . S
C1017 H1009 0.930 . S
C1017 C1015 1.419 . S
C1017 C1018 1.362 . S
C1018 H1010 0.930 . S
C1018 C1017 1.362 . S
C1018 C1021 1.409 . S
C1019 H1011 0.930 . S
C1019 C1020 1.355 . S
C1019 C1021 1.415 . S
C1020 C1019 1.355 . S
C1020 C1022 1.419 . S
C1021 C1016 1.425 . S
C1021 C1018 1.409 . S
C1021 C1019 1.415 . S
C1022 H1012 0.930 . S
C1022 C1020 1.419 . S
C1022 C1023 1.362 . S
C1023 H1013 0.930 . S
C1023 C1016 1.409 . S
C1023 C1022 1.362 . S
H1024 C1030 0.930 . S
H1025 C1033 0.930 . S
H1026 C1034 0.930 . S
H1027 C1035 0.930 . S
H1028 C1038 0.930 . S
H1029 C1039 0.930 . S
C1030 H1024 0.930 . S
C1030 C1031 1.355 . S
C1030 C1032 1.415 . S
C1031 C1030 1.355 . S
C1031 C1033 1.419 . S
C1032 C1030 1.415 . S
C1032 C1037 1.425 . S
C1032 C1039 1.409 . S
C1033 H1025 0.930 . S
C1033 C1031 1.419 . S
C1033 C1034 1.362 . S
C1034 H1026 0.930 . S
C1034 C1033 1.362 . S
C1034 C1037 1.409 . S
C1035 H1027 0.930 . S
C1035 C1036 1.355 . S
C1035 C1037 1.415 . S
C1036 C1035 1.355 . S
C1036 C1038 1.419 . S
C1037 C1032 1.425 . S
C1037 C1034 1.409 . S
C1037 C1035 1.415 . S
C1038 H1028 0.930 . S
C1038 C1036 1.419 . S
C1038 C1039 1.362 . S
C1039 H1029 0.930 . S
C1039 C1032 1.409 . S
C1039 C1038 1.362 . S
H1040 C1046 0.930 . S
H1041 C1049 0.930 . S
H1042 C1050 0.930 . S
H1043 C1051 0.930 . S
H1044 C1054 0.930 . S
H1045 C1055 0.930 . S
C1046 H1040 0.930 . S
C1046 C1047 1.355 . S
C1046 C1048 1.415 . S
C1047 C1046 1.355 . S
C1047 C1049 1.419 . S
C1048 C1046 1.415 . S
C1048 C1053 1.425 . S
C1048 C1055 1.409 . S
C1049 H1041 0.930 . S
C1049 C1047 1.419 . S
C1049 C1050 1.362 . S
C1050 H1042 0.930 . S
C1050 C1049 1.362 . S
C1050 C1053 1.409 . S
C1051 H1043 0.930 . S
C1051 C1052 1.355 . S
C1051 C1053 1.415 . S
C1052 C1051 1.355 . S
C1052 C1054 1.419 . S
C1053 C1048 1.425 . S
C1053 C1050 1.409 . S
C1053 C1051 1.415 . S
C1054 H1044 0.930 . S
C1054 C1052 1.419 . S
C1054 C1055 1.362 . S
C1055 H1045 0.930 . S
C1055 C1048 1.409 . S
C1055 C1054 1.362 . S
H1056 C1062 0.930 . S
H1057 C1065 0.930 . S
H1058 C1066 0.930 . S
H1059 C1067 0.930 . S
H1060 C1070 0.930 . S
H1061 C1071 0.930 . S
C1062 H1056 0.930 . S
C1062 C1063 1.355 . S
C1062 C1064 1.415 . S
C1063 C1062 1.355 . S
C1063 C1065 1.419 . S
C1064 C1062 1.415 . S
C1064 C1069 1.425 . S
C1064 C1071 1.409 . S
C1065 H1057 0.930 . S
C1065 C1063 1.419 . S
C1065 C1066 1.362 . S
C1066 H1058 0.930 . S
C1066 C1065 1.362 . S
C1066 C1069 1.409 . S
C1067 H1059 0.930 . S
C1067 C1068 1.355 . S
C1067 C1069 1.415 . S
C1068 C1067 1.355 . S
C1068 C1070 1.419 . S
C1069 C1064 1.425 . S
C1069 C1066 1.409 . S
C1069 C1067 1.415 . S
C1070 H1060 0.930 . S
C1070 C1068 1.419 . S
C1070 C1071 1.362 . S
C1071 H1061 0.930 . S
C1071 C1064 1.409 . S
C1071 C1070 1.362 . S
H1072 C1078 0.930 . S
H1073 C1081 0.930 . S
H1074 C1082 0.930 . S
H1075 C1083 0.930 . S
H1076 C1086 0.930 . S
H1077 C1087 0.930 . S
C1078 H1072 0.930 . S
C1078 C1079 1.355 . S
C1078 C1080 1.415 . S
C1079 C1078 1.355 . S
C1079 C1081 1.419 . S
C1080 C1078 1.415 . S
C1080 C1085 1.425 . S
C1080 C1087 1.409 . S
C1081 H1073 0.930 . S
C1081 C1079 1.419 . S
C1081 C1082 1.362 . S
C1082 H1074 0.930 . S
C1082 C1081 1.362 . S
C1082 C1085 1.409 . S
C1083 H1075 0.930 . S
C1083 C1084 1.355 . S
C1083 C1085 1.415 . S
C1084 C1083 1.355 . S
C1084 C1086 1.419 . S
C1085 C1080 1.425 . S
C1085 C1082 1.409 . S
C1085 C1083 1.415 . S
C1086 H1076 0.930 . S
C1086 C1084 1.419 . S
C1086 C1087 1.362 . S
C1087 H1077 0.930 . S
C1087 C1080 1.409 . S
C1087 C1086 1.362 . S
C327 C19 1.715 1_556 S
C332 C159 1.696 . S
C343 C39 2.024 . S
C348 C99 2.003 1_554 S
C359 C102 1.518 . S
C364 C59 1.533 . S
C375 C79 2.043 . S
C380 C139 2.004 . S
C391 C221 0.504 . S
C396 C81 0.433 . S
C407 C178 0.889 . S
C412 C1 0.824 . S
C423 C201 0.569 . S
C428 C121 0.524 . S
C439 C41 0.752 . S
C444 C181 0.778 . S
C455 C199 1.648 . S
C460 C259 1.687 . S
C471 C219 2.037 . S
C476 C299 2.002 . S
C487 C279 1.457 1_556 S
C492 C162 1.491 . S
C503 C239 2.017 . S
C508 C319 2.000 1_554 S
C519 C281 0.577 . S
C524 C61 0.588 . S
C535 C241 0.886 . S
C540 C118 0.902 . S
C551 C21 0.443 . S
C556 C301 0.379 . S
C567 C141 0.663 . S
C572 C261 0.708 . S
C583 C269 0.712 . S
C588 C9 0.425 1_455 S
C599 C229 0.447 . S
C604 C29 0.324 . S
C615 C249 0.402 . S
C620 C49 0.558 . S
C631 C209 0.390 . S
C636 C69 0.328 . S
C647 C89 0.421 1_455 S
C652 C309 0.548 . S
C663 C189 0.354 . S
C668 C108 0.614 . S
C679 C129 0.555 . S
C684 C289 0.441 . S
C695 C149 0.408 . S
C700 C168 0.529 . S
C711 C8 1.387 . S
C716 C88 1.437 . S
C727 C28 1.422 . S
C732 C109 1.427 . S
C743 C128 1.539 . S
C748 C48 1.535 . S
C759 C68 1.482 . S
C764 C148 1.474 . S
C775 C208 1.422 . S
C780 C169 1.427 . S
C791 C228 1.493 . S
C796 C188 1.451 . S
C807 C248 1.354 . S
C812 C288 1.398 . S
C823 C308 1.547 1_455 S
C828 C268 1.487 1_455 S
C839 C2 1.293 . S
C844 C142 1.304 . S
C855 C22 0.961 . S
C860 C82 0.961 . S
C871 C119 1.463 1_556 S
C876 C42 1.424 . S
C887 C122 1.063 . S
C892 C62 1.053 . S
C903 C238 2.526 . S
C908 C98 2.535 . S
C919 C161 2.005 . S
C924 C18 2.052 . S
C935 C218 2.523 1_554 S
C940 C138 2.519 . S
C951 C58 2.247 . S
C956 C198 2.222 1_556 S
C967 C242 1.220 . S
C972 C182 1.232 . S
C983 C282 0.971 . S
C988 C202 0.996 . S
C999 C262 1.469 . S
C1004 C179 1.499 . S
C1015 C302 1.062 . S
C1020 C222 1.050 . S
C1031 C298 2.544 . S
C1036 C78 2.540 1_554 S
C1047 C101 2.024 . S
C1052 C258 2.044 . S
C1063 C38 2.537 . S
C1068 C318 2.525 . S
C1079 C278 2.238 . S
C1084 C158 2.242 . S
