# Generated by pormake.
# Topology wjw, (5)-cn, num edge types: 1
# Building blocks:
#     Node 0, Type 0, BuildingBlock: XOMCOT_clean_sbu_1, # of connection points: 5
#     Node 1, Type 0, BuildingBlock: XOMCOT_clean_sbu_1, # of connection points: 5
#     Node 2, Type 0, BuildingBlock: XOMCOT_clean_sbu_1, # of connection points: 5
#     Node 3, Type 0, BuildingBlock: XOMCOT_clean_sbu_1, # of connection points: 5
#     Node 4, Type 0, BuildingBlock: XOMCOT_clean_sbu_1, # of connection points: 5
#     Node 5, Type 0, BuildingBlock: XOMCOT_clean_sbu_1, # of connection points: 5
#     Node 6, Type 0, BuildingBlock: XOMCOT_clean_sbu_1, # of connection points: 5
#     Node 7, Type 0, BuildingBlock: XOMCOT_clean_sbu_1, # of connection points: 5
#     Node 8, Type 0, BuildingBlock: XOMCOT_clean_sbu_1, # of connection points: 5
#     Node 9, Type 0, BuildingBlock: XOMCOT_clean_sbu_1, # of connection points: 5
#     Node 10, Type 0, BuildingBlock: XOMCOT_clean_sbu_1, # of connection points: 5
#     Node 11, Type 0, BuildingBlock: XOMCOT_clean_sbu_1, # of connection points: 5
#     Edge 12, Type (0, 0), BuildingBlock: EZIPEK_clean_linker_0, # of connection points: 2
#     Edge 13, Type (0, 0), BuildingBlock: EZIPEK_clean_linker_0, # of connection points: 2
#     Edge 14, Type (0, 0), BuildingBlock: EZIPEK_clean_linker_0, # of connection points: 2
#     Edge 15, Type (0, 0), BuildingBlock: EZIPEK_clean_linker_0, # of connection points: 2
#     Edge 16, Type (0, 0), BuildingBlock: EZIPEK_clean_linker_0, # of connection points: 2
#     Edge 17, Type (0, 0), BuildingBlock: EZIPEK_clean_linker_0, # of connection points: 2
#     Edge 18, Type (0, 0), BuildingBlock: EZIPEK_clean_linker_0, # of connection points: 2
#     Edge 19, Type (0, 0), BuildingBlock: EZIPEK_clean_linker_0, # of connection points: 2
#     Edge 20, Type (0, 0), BuildingBlock: EZIPEK_clean_linker_0, # of connection points: 2
#     Edge 21, Type (0, 0), BuildingBlock: EZIPEK_clean_linker_0, # of connection points: 2
#     Edge 22, Type (0, 0), BuildingBlock: EZIPEK_clean_linker_0, # of connection points: 2
#     Edge 23, Type (0, 0), BuildingBlock: EZIPEK_clean_linker_0, # of connection points: 2
#     Edge 24, Type (0, 0), BuildingBlock: EZIPEK_clean_linker_0, # of connection points: 2
#     Edge 25, Type (0, 0), BuildingBlock: EZIPEK_clean_linker_0, # of connection points: 2
#     Edge 26, Type (0, 0), BuildingBlock: EZIPEK_clean_linker_0, # of connection points: 2
#     Edge 27, Type (0, 0), BuildingBlock: EZIPEK_clean_linker_0, # of connection points: 2
#     Edge 28, Type (0, 0), BuildingBlock: EZIPEK_clean_linker_0, # of connection points: 2
#     Edge 29, Type (0, 0), BuildingBlock: EZIPEK_clean_linker_0, # of connection points: 2
#     Edge 30, Type (0, 0), BuildingBlock: EZIPEK_clean_linker_0, # of connection points: 2
#     Edge 31, Type (0, 0), BuildingBlock: EZIPEK_clean_linker_0, # of connection points: 2
#     Edge 32, Type (0, 0), BuildingBlock: EZIPEK_clean_linker_0, # of connection points: 2
#     Edge 33, Type (0, 0), BuildingBlock: EZIPEK_clean_linker_0, # of connection points: 2
#     Edge 34, Type (0, 0), BuildingBlock: EZIPEK_clean_linker_0, # of connection points: 2
#     Edge 35, Type (0, 0), BuildingBlock: EZIPEK_clean_linker_0, # of connection points: 2
#     Edge 36, Type (0, 0), BuildingBlock: EZIPEK_clean_linker_0, # of connection points: 2
#     Edge 37, Type (0, 0), BuildingBlock: EZIPEK_clean_linker_0, # of connection points: 2
#     Edge 38, Type (0, 0), BuildingBlock: EZIPEK_clean_linker_0, # of connection points: 2
#     Edge 39, Type (0, 0), BuildingBlock: EZIPEK_clean_linker_0, # of connection points: 2
#     Edge 40, Type (0, 0), BuildingBlock: EZIPEK_clean_linker_0, # of connection points: 2
#     Edge 41, Type (0, 0), BuildingBlock: EZIPEK_clean_linker_0, # of connection points: 2
# Relax obj value: 0.186
# Max RMSD: 0.166
# Mean RMSD: 0.161
data_MOF--net-wjw--node1-XOMCOT_clean_sbu_1--edge1-EZIPEK_clean_linker_0
_symmetry_space_group_name_H-M    P1
_symmetry_Int_Tables_number       1
_symmetry_cell_setting            triclinic
loop_
_symmetry_equiv_pos_as_xyz
'x, y, z'
_cell_length_a     31.075585
_cell_length_b     31.120209
_cell_length_c     26.418295
_cell_angle_alpha  90.295115
_cell_angle_beta   90.595004
_cell_angle_gamma 119.84051
loop_
_atom_site_label
_atom_site_type_symbol
_atom_site_fract_x
_atom_site_fract_y
_atom_site_fract_z
_atom_type_partial_charge
C0 C 0.17615 0.3385 0.27942 0.0
C1 C 0.20795 0.3196 0.2825 0.0
N2 N 0.21981 0.3195 0.33154 0.0
N3 N 0.16754 0.34954 0.32642 0.0
C4 C 0.19555 0.3382 0.35722 0.0
H5 H 0.16057 0.34398 0.24497 0.0
Co6 Co 0.12669 0.3759 0.34495 0.0
C7 C 0.10957 0.31714 0.44562 0.0
O8 O 0.07431 0.27245 0.43258 0.0
N9 N 0.0859 0.40181 0.36395 0.0
C10 C 0.02338 0.40661 0.39839 0.0
C11 C 0.04775 0.37998 0.39624 0.0
C12 C 0.08378 0.44166 0.34648 0.0
N13 N 0.04593 0.44524 0.36707 0.0
O14 O 0.06844 0.31623 0.32064 0.0
H15 H 0.03678 0.34549 0.41529 0.0
H16 H 0.10844 0.46659 0.31824 0.0
O17 O 0.12552 0.3522 0.41367 0.0
C18 C 0.06156 0.32654 0.27539 0.0
O19 O 0.09292 0.37041 0.25765 0.0
N20 N 0.18272 0.43519 0.36252 0.0
C21 C 0.27187 0.52151 0.37903 0.0
C22 C 0.23961 0.4989 0.41925 0.0
C23 C 0.19454 0.45564 0.41001 0.0
C24 C 0.21275 0.45831 0.32272 0.0
C25 C 0.25793 0.5015 0.33022 0.0
H26 H 0.16937 0.43878 0.44083 0.0
H27 H 0.20185 0.44249 0.28506 0.0
H28 H 0.19872 0.34367 0.39779 0.0
H29 H 0.22097 0.30653 0.25139 0.0
H30 H 0.99058 0.3975 0.42003 0.0
H31 H 0.24926 0.51447 0.4572 0.0
H32 H 0.28199 0.51892 0.2984 0.0
C33 C 0.8586 0.18254 0.60731 0.0
C34 C 0.9096 0.20586 0.61236 0.0
N35 N 0.92173 0.22272 0.66024 0.0
N36 N 0.83863 0.1844 0.65205 0.0
C37 C 0.87862 0.20958 0.68323 0.0
H38 H 0.83809 0.16552 0.57284 0.0
Co39 Co 0.77169 0.15891 0.67183 0.0
C40 C 0.78735 0.12591 0.77818 0.0
O41 O 0.75305 0.0789 0.7778 0.0
N42 N 0.7046 0.1335 0.69414 0.0
C43 C 0.63877 0.12936 0.7325 0.0
C44 C 0.68943 0.15604 0.72784 0.0
C45 C 0.66177 0.09173 0.68053 0.0
N46 N 0.6214 0.08907 0.70258 0.0
O47 O 0.75557 0.09336 0.64943 0.0
H48 H 0.71327 0.19023 0.74785 0.0
H49 H 0.65976 0.0633 0.65553 0.0
O50 O 0.79239 0.15288 0.74008 0.0
C51 C 0.74406 0.09223 0.60233 0.0
O52 O 0.74872 0.13281 0.58221 0.0
N53 N 0.78537 0.22314 0.68487 0.0
C54 C 0.78934 0.31381 0.69058 0.0
C55 C 0.80969 0.29902 0.72977 0.0
C56 C 0.80792 0.25335 0.72586 0.0
C57 C 0.7677 0.23831 0.64563 0.0
C58 C 0.76934 0.28365 0.64763 0.0
H59 H 0.8231 0.24192 0.75625 0.0
H60 H 0.75056 0.21407 0.61328 0.0
H61 H 0.8768 0.21836 0.72246 0.0
H62 H 0.93575 0.21056 0.58318 0.0
H63 H 0.61623 0.13898 0.75573 0.0
H64 H 0.82564 0.32198 0.76331 0.0
H65 H 0.75356 0.29436 0.61675 0.0
C66 C 0.60956 0.82513 0.92244 0.0
C67 C 0.637 0.87581 0.91651 0.0
N68 N 0.67551 0.89351 0.94942 0.0
N69 N 0.63067 0.81154 0.95932 0.0
C70 C 0.67122 0.85404 0.97432 0.0
H71 H 0.57647 0.79996 0.90119 0.0
Co72 Co 0.61217 0.74874 0.9837 0.0
C73 C 0.616 0.76298 0.09684 0.0
O74 O 0.57613 0.7191 0.1002 0.0
N75 N 0.59481 0.68463 1.00765 0.0
C76 C 0.60462 0.62583 0.04498 0.0
C77 C 0.62478 0.67596 0.03819 0.0
C78 C 0.55693 0.6386 0.99544 0.0
N79 N 0.56202 0.60244 1.0181 0.0
O80 O 0.67634 0.75958 0.96621 0.0
H81 H 0.65997 0.70444 0.05359 0.0
H82 H 0.52706 0.63113 0.96926 0.0
O83 O 0.63521 0.7785 0.05326 0.0
C84 C 0.67125 0.74436 0.92038 0.0
O85 O 0.62666 0.7236 0.89962 0.0
N86 N 0.54783 0.7375 0.99315 0.0
C87 C 0.45475 0.72895 0.98232 0.0
C88 C 0.48589 0.75526 1.02331 0.0
C89 C 0.53312 0.76092 0.02681 0.0
C90 C 0.51768 0.71148 0.95322 0.0
C91 C 0.4711 0.70711 0.94672 0.0
H92 H 0.5582 0.78671 0.05457 0.0
H93 H 0.53134 0.69693 0.9242 0.0
H94 H 0.69713 0.85622 1.00332 0.0
H95 H 0.62911 0.898 0.89071 0.0
H96 H 0.62065 0.60775 0.06676 0.0
H97 H 0.475 0.77419 0.05045 0.0
H98 H 0.44871 0.68815 0.91356 0.0
C99 C 0.81254 0.66045 0.27064 0.0
C100 C 0.78971 0.68857 0.27516 0.0
N101 N 0.79903 0.7084 0.32211 0.0
N102 N 0.83663 0.66295 0.31439 0.0
C103 C 0.82787 0.69297 0.34476 0.0
H104 H 0.80804 0.63639 0.23897 0.0
Co105 Co 0.86335 0.62228 0.33306 0.0
C106 C 0.90441 0.67118 0.43777 0.0
O107 O 0.95124 0.68334 0.43421 0.0
N108 N 0.89019 0.5811 0.35355 0.0
C109 C 0.8971 0.52043 0.39087 0.0
C110 C 0.86901 0.54306 0.38645 0.0
C111 C 0.93249 0.58146 0.33988 0.0
N112 N 0.93682 0.54437 0.3614 0.0
O113 O 0.92748 0.67149 0.30933 0.0
H114 H 0.83458 0.53142 0.40583 0.0
H115 H 0.9599 0.60832 0.31504 0.0
O116 O 0.87421 0.64926 0.40112 0.0
C117 C 0.92704 0.66496 0.26132 0.0
O118 O 0.88594 0.63066 0.23954 0.0
N119 N 0.79953 0.57286 0.34951 0.0
C120 C 0.70535 0.4936 0.36572 0.0
C121 C 0.72338 0.53693 0.39504 0.0
C122 C 0.77079 0.57646 0.3862 0.0
C123 C 0.78123 0.53206 0.31874 0.0
C124 C 0.73435 0.49147 0.32675 0.0
H125 H 0.78405 0.60981 0.40869 0.0
H126 H 0.80388 0.5307 0.28863 0.0
H127 H 0.83845 0.70025 0.3843 0.0
H128 H 0.76453 0.69058 0.2479 0.0
H129 H 0.88883 0.48846 0.41363 0.0
H130 H 0.70115 0.53987 0.42471 0.0
H131 H 0.72089 0.45869 0.30297 0.0
C132 C 0.19082 0.79533 0.608 0.0
C133 C 0.14003 0.76407 0.60533 0.0
N134 N 0.11914 0.77973 0.6398 0.0
N135 N 0.20155 0.83008 0.64429 0.0
C136 C 0.15685 0.82012 0.66202 0.0
H137 H 0.21833 0.79105 0.5873 0.0
Co138 Co 0.26461 0.8746 0.67155 0.0
C139 C 0.21822 0.88954 0.77153 0.0
O140 O 0.22836 0.93586 0.77108 0.0
N141 N 0.329 0.92062 0.69844 0.0
C142 C 0.39186 0.97376 0.74826 0.0
C143 C 0.34129 0.9437 0.74419 0.0
C144 C 0.37338 0.9388 0.67493 0.0
N145 N 0.41205 0.97057 0.70477 0.0
O146 O 0.25839 0.92844 0.64574 0.0
H147 H 0.31578 0.93974 0.77336 0.0
H148 H 0.37748 0.92888 0.63669 0.0
O149 O 0.23304 0.87274 0.73561 0.0
C150 C 0.27467 0.93526 0.60062 0.0
O151 O 0.29065 0.90618 0.58306 0.0
N152 N 0.27127 0.82065 0.69275 0.0
C153 C 0.2751 0.73418 0.70729 0.0
C154 C 0.23553 0.73851 0.7261 0.0
C155 C 0.23443 0.78222 0.71864 0.0
C156 C 0.30987 0.81666 0.67404 0.0
C157 C 0.31332 0.7743 0.68224 0.0
H158 H 0.20228 0.78378 0.73114 0.0
H159 H 0.33678 0.84499 0.65017 0.0
H160 H 0.15171 0.84006 0.69278 0.0
H161 H 0.12029 0.73089 0.58219 0.0
H162 H 0.41242 0.99612 0.78082 0.0
H163 H 0.20492 0.70773 0.74479 0.0
H164 H 0.34391 0.77159 0.66636 0.0
C165 C 0.39256 0.1606 0.935 0.0
C166 C 0.36647 0.10958 0.93436 0.0
N167 N 0.33911 0.09432 0.9765 0.0
N168 N 0.38096 0.17767 0.9768 0.0
C169 C 0.34799 0.13611 1.00118 0.0
H170 H 0.42052 0.18365 0.90819 0.0
Co171 Co 0.41281 0.24451 0.99951 0.0
C172 C 0.36584 0.233 0.10318 0.0
O173 O 0.35979 0.2718 0.10038 0.0
N174 N 0.44495 0.31224 1.02314 0.0
C175 C 0.49765 0.38253 0.06393 0.0
C176 C 0.47938 0.33236 0.06088 0.0
C177 C 0.44226 0.35165 1.00482 0.0
N178 N 0.47458 0.39475 0.02848 0.0
O179 O 0.35796 0.25094 0.97395 0.0
H180 H 0.4931 0.31272 0.0831 0.0
H181 H 0.41791 0.34935 0.97431 0.0
O182 O 0.38474 0.22186 0.06632 0.0
C183 C 0.36214 0.25606 0.92578 0.0
O184 O 0.39723 0.25156 0.90344 0.0
N185 N 0.46806 0.23916 1.01824 0.0
C186 C 0.55336 0.23321 0.03494 0.0
C187 C 0.50815 0.19788 0.05552 0.0
C188 C 0.46586 0.2019 0.04724 0.0
C189 C 0.51127 0.27233 0.99606 0.0
C190 C 0.55482 0.27136 1.00572 0.0
H191 H 0.43118 0.17434 0.0631 0.0
H192 H 0.51197 0.30014 0.97113 0.0
H193 H 0.33289 0.13599 0.03791 0.0
H194 H 0.36995 0.08551 0.907 0.0
H195 H 0.52692 0.40846 0.0891 0.0
H196 H 0.50552 0.1673 0.07732 0.0
H197 H 0.58901 0.29886 0.98864 0.0
C198 C 0.63085 0.78841 0.46279 0.0
C199 C 0.66179 0.76862 0.4611 0.0
N200 N 0.69374 0.79015 0.423 0.0
N201 N 0.64321 0.82223 0.42587 0.0
C202 C 0.68317 0.82404 0.40395 0.0
H203 H 0.5989 0.77605 0.48673 0.0
Co204 Co 0.60529 0.8508 0.40389 0.0
C205 C 0.60687 0.83919 0.28898 0.0
O206 O 0.55978 0.82601 0.28617 0.0
N207 N 0.56599 0.88054 0.38206 0.0
C208 C 0.50144 0.88907 0.35725 0.0
C209 C 0.51924 0.85688 0.36215 0.0
C210 C 0.57542 0.92805 0.38826 0.0
N211 N 0.53655 0.93376 0.37391 0.0
O212 O 0.65915 0.91542 0.42289 0.0
H213 H 0.49797 0.81799 0.35246 0.0
H214 H 0.6093 0.95772 0.40467 0.0
O215 O 0.62978 0.85246 0.33216 0.0
C216 C 0.65773 0.91784 0.47139 0.0
O217 O 0.62622 0.87808 0.49591 0.0
N218 N 0.551 0.78718 0.39523 0.0
C219 C 0.46368 0.69709 0.3967 0.0
C220 C 0.50053 0.705 0.36196 0.0
C221 C 0.54476 0.7503 0.36261 0.0
C222 C 0.51722 0.77806 0.43213 0.0
C223 C 0.47276 0.7334 0.43312 0.0
H224 H 0.57334 0.75538 0.33689 0.0
H225 H 0.52423 0.80668 0.45977 0.0
H226 H 0.70184 0.84694 0.37182 0.0
H227 H 0.65783 0.73732 0.48253 0.0
H228 H 0.46474 0.88001 0.34407 0.0
H229 H 0.49484 0.67672 0.33436 0.0
H230 H 0.4452 0.72772 0.46107 0.0
C231 C 0.86286 0.66784 0.77384 0.0
C232 C 0.91338 0.687 0.76974 0.0
N233 N 0.924 0.68955 0.72028 0.0
N234 N 0.84196 0.65954 0.72717 0.0
C235 C 0.88026 0.67165 0.69544 0.0
H236 H 0.84274 0.66033 0.80873 0.0
Co237 Co 0.77472 0.63706 0.71113 0.0
C238 C 0.81922 0.70152 0.61979 0.0
O239 O 0.83814 0.74193 0.64773 0.0
N240 N 0.70708 0.61438 0.6947 0.0
C241 C 0.64012 0.60802 0.656 0.0
C242 C 0.69102 0.63255 0.65728 0.0
C243 C 0.66473 0.57985 0.717 0.0
N244 N 0.62331 0.5749 0.69364 0.0
O245 O 0.78146 0.69856 0.73483 0.0
H246 H 0.71461 0.66291 0.63311 0.0
H247 H 0.66417 0.55909 0.74996 0.0
O248 O 0.79332 0.66004 0.64171 0.0
C249 C 0.76705 0.69115 0.7807 0.0
O250 O 0.7533 0.64744 0.80004 0.0
N251 N 0.7671 0.57586 0.69451 0.0
C252 C 0.76924 0.48807 0.69159 0.0
C253 C 0.78123 0.51767 0.64852 0.0
C254 C 0.78031 0.56201 0.65086 0.0
C255 C 0.75347 0.54635 0.7359 0.0
C256 C 0.75429 0.50211 0.73533 0.0
H257 H 0.79271 0.58582 0.61854 0.0
H258 H 0.74437 0.55862 0.77046 0.0
H259 H 0.87684 0.66793 0.65473 0.0
H260 H 0.94028 0.69861 0.8005 0.0
H261 H 0.61701 0.6149 0.63014 0.0
H262 H 0.79315 0.50757 0.61429 0.0
H263 H 0.74502 0.4799 0.76918 0.0
C264 C 0.22443 0.82907 0.09305 0.0
C265 C 0.25519 0.87957 0.09016 0.0
N266 N 0.23844 0.89647 0.05236 0.0
N267 N 0.18775 0.81419 0.05793 0.0
C268 C 0.19754 0.85631 0.0336 0.0
H269 H 0.2295 0.80445 0.11801 0.0
Co270 Co 0.13951 0.74791 0.04293 0.0
C271 C 0.11053 0.75155 0.93294 0.0
O272 O 0.08512 0.70335 0.92631 0.0
N273 N 0.08976 0.6804 0.02778 0.0
C274 C 0.01344 0.61648 1.0132 0.0
C275 C 0.0413 0.66674 1.02111 0.0
C276 C 0.08981 0.63666 1.0241 0.0
N277 N 0.04391 0.59758 1.01493 0.0
O278 O 0.08978 0.75632 0.07808 0.0
H279 H 0.02677 0.69189 1.02136 0.0
H280 H 0.12213 0.63264 0.02869 0.0
O281 O 0.12728 0.77024 0.97699 0.0
C282 C 0.09434 0.75797 0.12639 0.0
O283 O 0.1358 0.76416 0.14662 0.0
N284 N 0.1895 0.73942 1.01498 0.0
C285 C 0.27305 0.73389 0.98966 0.0
C286 C 0.25804 0.76125 0.95997 0.0
C287 C 0.21734 0.76536 0.97473 0.0
C288 C 0.20458 0.71383 0.045 0.0
C289 C 0.24596 0.70995 0.03264 0.0
H290 H 0.21046 0.79183 0.95568 0.0
H291 H 0.18503 0.69749 0.07957 0.0
H292 H 0.17639 0.85771 1.00151 0.0
H293 H 0.28866 0.90186 0.11237 0.0
H294 H 0.97365 0.5952 1.00725 0.0
H295 H 0.27953 0.78182 0.92773 0.0
H296 H 0.25765 0.68978 0.05723 0.0
C297 C 0.38137 0.21628 0.45488 0.0
C298 C 0.35873 0.24487 0.45539 0.0
N299 N 0.33562 0.23878 0.41042 0.0
N300 N 0.37226 0.19225 0.4099 0.0
C301 C 0.34429 0.20703 0.38371 0.0
H302 H 0.40339 0.21343 0.48524 0.0
Co303 Co 0.39625 0.15004 0.38982 0.0
C304 C 0.33313 0.12561 0.292 0.0
O305 O 0.29201 0.08745 0.30788 0.0
N306 N 0.42003 0.10689 0.36987 0.0
C307 C 0.41769 0.03973 0.33663 0.0
C308 C 0.39409 0.06698 0.33928 0.0
C309 C 0.4592 0.10232 0.38631 0.0
N310 N 0.45854 0.06178 0.36621 0.0
O311 O 0.33627 0.09414 0.41253 0.0
H312 H 0.35859 0.05651 0.32193 0.0
H313 H 0.48621 0.12652 0.41424 0.0
O314 O 0.37096 0.14737 0.32142 0.0
C315 C 0.34601 0.08689 0.45774 0.0
O316 O 0.39086 0.11637 0.47609 0.0
N317 N 0.45614 0.20586 0.37373 0.0
C318 C 0.53112 0.30533 0.38033 0.0
C319 C 0.5025 0.28542 0.33551 0.0
C320 C 0.46436 0.23609 0.33343 0.0
C321 C 0.48862 0.22167 0.41352 0.0
C322 C 0.52734 0.27051 0.41663 0.0
H323 H 0.44008 0.22381 0.30064 0.0
H324 H 0.4823 0.19723 0.44497 0.0
H325 H 0.3306 0.1956 0.34558 0.0
H326 H 0.35919 0.26826 0.4861 0.0
H327 H 0.40464 0.00495 0.31645 0.0
H328 H 0.50796 0.30758 0.30231 0.0
H329 H 0.55268 0.27997 0.44829 0.0
C330 C 0.18191 0.39405 0.78737 0.0
C331 C 0.13079 0.37106 0.78502 0.0
N332 N 0.11456 0.33434 0.75026 0.0
N333 N 0.19761 0.37208 0.75379 0.0
C334 C 0.15545 0.33527 0.73243 0.0
H335 H 0.20624 0.42666 0.80969 0.0
Co336 Co 0.2632 0.39447 0.73257 0.0
C337 C 0.24633 0.38642 0.61861 0.0
O338 O 0.28815 0.42798 0.61205 0.0
N339 N 0.32964 0.41575 0.71016 0.0
C340 C 0.39043 0.41295 0.66824 0.0
C341 C 0.34002 0.39092 0.67461 0.0
C342 C 0.37547 0.45138 0.72677 0.0
N343 N 0.41288 0.45101 0.70125 0.0
O344 O 0.25942 0.33347 0.75489 0.0
H345 H 0.31264 0.35776 0.65507 0.0
H346 H 0.38227 0.47616 0.7583 0.0
O347 O 0.23493 0.36794 0.66313 0.0
C348 C 0.25469 0.32623 0.80281 0.0
O349 O 0.24212 0.35321 0.83056 0.0
N350 N 0.26872 0.45593 0.71799 0.0
C351 C 0.27128 0.54656 0.71463 0.0
C352 C 0.23477 0.50556 0.6876 0.0
C353 C 0.23407 0.46047 0.68998 0.0
C354 C 0.3018 0.49458 0.74757 0.0
C355 C 0.30533 0.54089 0.74474 0.0
H356 H 0.20399 0.42856 0.67154 0.0
H357 H 0.32311 0.48879 0.77626 0.0
H358 H 0.15456 0.31143 0.702 0.0
H359 H 0.10758 0.3822 0.80492 0.0
H360 H 0.40932 0.40106 0.64232 0.0
H361 H 0.20663 0.50822 0.66551 0.0
H362 H 0.33259 0.57129 0.76794 0.0
C363 C 0.87012 0.15051 0.05784 0.0
C364 C 0.84448 0.09976 0.05258 0.0
N365 N 0.82418 0.08858 1.00592 0.0
N366 N 0.86567 0.1714 1.01468 0.0
C367 C 0.83794 0.13223 0.98354 0.0
H368 H 0.88805 0.17013 0.09248 0.0
Co369 Co 0.88478 0.2387 1.00363 0.0
C370 C 0.94745 0.23324 0.9258 0.0
O371 O 0.99192 0.24472 0.91036 0.0
N372 N 0.90362 0.306 0.99171 0.0
C373 C 0.89588 0.37102 0.96987 0.0
C374 C 0.87223 0.32026 0.97249 0.0
C375 C 0.94695 0.34921 0.99888 0.0
N376 N 0.94271 0.38925 0.98685 0.0
O377 O 0.92038 0.2551 0.07066 0.0
H378 H 0.83405 0.29521 0.96161 0.0
H379 H 0.98047 0.35149 1.01422 0.0
O380 O 0.94333 0.24809 0.96998 0.0
C381 C 0.94032 0.28815 0.10579 0.0
O382 O 0.94033 0.33016 0.10245 0.0
N383 N 0.82494 0.22807 0.03225 0.0
C384 C 0.73361 0.22191 0.04844 0.0
C385 C 0.73775 0.19002 1.01397 0.0
C386 C 0.78411 0.19563 1.00464 0.0
C387 C 0.82067 0.25639 0.06939 0.0
C388 C 0.77535 0.25455 0.07748 0.0
H389 H 0.78773 0.1771 0.97195 0.0
H390 H 0.85275 0.28425 0.08918 0.0
H391 H 0.82439 0.13511 0.94664 0.0
H392 H 0.83845 0.07308 0.08172 0.0
H393 H 0.87946 0.39306 0.95827 0.0
H394 H 0.70646 0.16495 0.99022 0.0
H395 H 0.77368 0.28046 0.10381 0.0
C396 C 0.94381 0.2843 0.20063 0.0
C397 C 0.96165 0.27913 0.1529 0.0
C398 C 0.02994 0.27579 0.19686 0.0
C399 C 0.01897 0.29312 0.24179 0.0
N400 N 0.96258 0.30834 0.2894 0.0
N401 N 0.02098 0.26728 0.10541 0.0
C402 C 0.97429 0.29456 0.24483 0.0
C403 C 1.0038 0.27272 0.15101 0.0
N404 N 0.89757 0.27903 0.20342 0.0
N405 N 0.06607 0.26307 0.19845 0.0
H406 H 1.00284 0.26451 0.07114 0.0
H407 H 0.0547 0.26821 0.10117 0.0
H408 H 0.08405 0.264 0.2324 0.0
H409 H 0.07421 0.24686 0.16821 0.0
H410 H 0.88065 0.27881 0.23728 0.0
H411 H 0.87414 0.26996 0.17182 0.0
H412 H 0.93413 0.31656 0.29315 0.0
H413 H 0.98277 0.31272 0.32267 0.0
C414 C 0.73196 0.98631 0.51743 0.0
C415 C 0.68194 0.96529 0.5005 0.0
C416 C 0.67401 0.02881 0.54793 0.0
C417 C 0.72205 0.04656 0.56999 0.0
N418 N 0.79606 0.04022 0.57812 0.0
N419 N 0.6017 0.95895 0.51125 0.0
C420 C 0.7508 0.02453 0.55558 0.0
C421 C 0.65198 0.98433 0.51907 0.0
N422 N 0.76129 0.9697 0.49695 0.0
N423 N 0.64918 0.05455 0.55317 0.0
H424 H 0.58312 0.92608 0.49042 0.0
H425 H 0.57777 0.96808 0.52967 0.0
H426 H 0.66202 0.08688 0.57453 0.0
H427 H 0.61717 0.04599 0.53231 0.0
H428 H 0.79928 0.98612 0.50393 0.0
H429 H 0.74812 0.94139 0.46972 0.0
H430 H 0.81683 0.02269 0.57316 0.0
H431 H 0.8117 0.06915 0.60458 0.0
C432 C 0.74713 0.73605 0.90279 0.0
C433 C 0.71311 0.75156 0.88781 0.0
C434 C 0.73211 0.74789 0.79843 0.0
C435 C 0.76229 0.72774 0.81327 0.0
N436 N 0.81624 0.72559 0.87763 0.0
N437 N 0.69148 0.79351 0.82484 0.0
C438 C 0.77599 0.73002 0.86502 0.0
C439 C 0.71207 0.7649 0.83663 0.0
N440 N 0.74961 0.72362 0.95178 0.0
N441 N 0.71961 0.74776 0.74873 0.0
H442 H 0.67801 0.80752 0.85267 0.0
H443 H 0.69288 0.80761 0.78883 0.0
H444 H 0.73526 0.73808 0.71932 0.0
H445 H 0.69222 0.75565 0.73692 0.0
H446 H 0.76936 0.70622 0.96293 0.0
H447 H 0.73001 0.72822 0.98097 0.0
H448 H 0.83033 0.73016 0.91444 0.0
H449 H 0.83873 0.72343 0.84988 0.0
C450 C 0.0304 0.76293 0.18044 0.0
C451 C 0.04981 0.73448 0.1587 0.0
C452 C 0.98935 0.66123 0.20462 0.0
C453 C 0.97216 0.69032 0.22972 0.0
N454 N 0.97848 0.76971 0.24489 0.0
N455 N 0.05495 0.6595 0.15852 0.0
C456 C 0.99358 0.74161 0.21882 0.0
C457 C 0.03135 0.68458 0.17324 0.0
N458 N 0.04683 0.81003 0.16384 0.0
N459 N 0.96476 0.61076 0.20911 0.0
H460 H 0.0835 0.67293 0.13237 0.0
H461 H 0.04876 0.62684 0.17563 0.0
H462 H 0.93468 0.59111 0.23262 0.0
H463 H 0.97189 0.58766 0.18628 0.0
H464 H 0.03149 0.83171 0.17448 0.0
H465 H 0.07401 0.82638 0.13632 0.0
H466 H 0.99551 0.80807 0.24244 0.0
H467 H 0.95046 0.75494 0.27167 0.0
C468 C 0.28392 0.99691 0.47673 0.0
C469 C 0.30971 0.0476 0.49149 0.0
C470 C 0.29941 0.02443 0.58108 0.0
C471 C 0.27602 0.97377 0.56637 0.0
N472 N 0.22844 0.91233 0.50242 0.0
N473 N 0.32235 0.10785 0.55592 0.0
C474 C 0.2622 0.96031 0.5148 0.0
C475 C 0.31042 0.06058 0.54322 0.0
N476 N 0.28289 0.98324 0.42735 0.0
N477 N 0.31475 0.03875 0.63 0.0
H478 H 0.32921 0.13447 0.52849 0.0
H479 H 0.31983 0.11871 0.59265 0.0
H480 H 0.30791 0.01402 0.65925 0.0
H481 H 0.33743 0.07567 0.64089 0.0
H482 H 0.27027 0.94673 0.41596 0.0
H483 H 0.29689 0.00839 0.39792 0.0
H484 H 0.21387 0.90094 0.46597 0.0
H485 H 0.21106 0.88525 0.5299 0.0
C486 C 0.25671 0.25746 0.85075 0.0
C487 C 0.28228 0.30555 0.82982 0.0
C488 C 0.35991 0.31966 0.8695 0.0
C489 C 0.3337 0.27357 0.8949 0.0
N490 N 0.25661 0.19932 0.91222 0.0
N491 N 0.35502 0.38706 0.83092 0.0
C492 C 0.28178 0.2427 0.88642 0.0
C493 C 0.33301 0.33782 0.8422 0.0
N494 N 0.20873 0.22592 0.83595 0.0
N495 N 0.41066 0.34654 0.87094 0.0
H496 H 0.33626 0.40277 0.81305 0.0
H497 H 0.39017 0.41336 0.84423 0.0
H498 H 0.43304 0.33748 0.89266 0.0
H499 H 0.43105 0.3765 0.8473 0.0
H500 H 0.18882 0.18883 0.84606 0.0
H501 H 0.18982 0.23615 0.81019 0.0
H502 H 0.21815 0.17737 0.91172 0.0
H503 H 0.27411 0.18643 0.93671 0.0
C504 C 0.14518 0.36965 0.52345 0.0
C505 C 0.13697 0.32742 0.49535 0.0
C506 C 0.19404 0.31828 0.55438 0.0
C507 C 0.20874 0.36566 0.57601 0.0
N508 N 0.20571 0.44198 0.56896 0.0
N509 N 0.15983 0.26466 0.48043 0.0
C510 C 0.18647 0.39299 0.55718 0.0
C511 C 0.16262 0.30205 0.51012 0.0
N512 N 0.11312 0.3874 0.5183 0.0
N513 N 0.21091 0.28922 0.57512 0.0
H514 H 0.13804 0.2519 0.44764 0.0
H515 H 0.18234 0.24903 0.48609 0.0
H516 H 0.23576 0.30074 0.60572 0.0
H517 H 0.19745 0.25245 0.56418 0.0
H518 H 0.11512 0.41581 0.54112 0.0
H519 H 0.08144 0.36985 0.49526 0.0
H520 H 0.19274 0.46379 0.55235 0.0
H521 H 0.23822 0.46249 0.5899 0.0
C522 C 0.85835 0.13205 0.83244 0.0
C523 C 0.82389 0.1483 0.82125 0.0
C524 C 0.87306 0.22203 0.87452 0.0
C525 C 0.90386 0.20319 0.89109 0.0
N526 N 0.9211 0.13562 0.89063 0.0
N527 N 0.79153 0.20179 0.84395 0.0
C528 C 0.89514 0.15677 0.87135 0.0
C529 C 0.82899 0.19098 0.84638 0.0
N530 N 0.85753 0.09457 0.80452 0.0
N531 N 0.88814 0.27098 0.88101 0.0
H532 H 0.75824 0.17918 0.82452 0.0
H533 H 0.79211 0.23048 0.86511 0.0
H534 H 0.92278 0.29598 0.8966 0.0
H535 H 0.869 0.28737 0.86517 0.0
H536 H 0.88519 0.08502 0.80691 0.0
H537 H 0.83145 0.07563 0.77583 0.0
H538 H 0.91365 0.10012 0.88074 0.0
H539 H 0.94697 0.15163 0.92015 0.0
C540 C 0.627 0.8569 0.19667 0.0
C541 C 0.62967 0.83291 0.24126 0.0
C542 C 0.64197 0.77425 0.18837 0.0
C543 C 0.6338 0.79481 0.14402 0.0
N544 N 0.63531 0.86572 0.10546 0.0
N545 N 0.6544 0.77803 0.27906 0.0
C546 C 0.6321 0.83962 0.14797 0.0
C547 C 0.64233 0.79487 0.2369 0.0
N548 N 0.61752 0.8952 0.20106 0.0
N549 N 0.64732 0.73333 0.18399 0.0
H550 H 0.65269 0.79039 0.31484 0.0
H551 H 0.66991 0.75514 0.27847 0.0
H552 H 0.65177 0.72025 0.1491 0.0
H553 H 0.6459 0.71143 0.21427 0.0
H554 H 0.60796 0.91015 0.17073 0.0
H555 H 0.6176 0.9111 0.23599 0.0
H556 H 0.63882 0.90075 0.10593 0.0
H557 H 0.63938 0.85467 0.06959 0.0
C558 C 0.88206 0.74035 0.54672 0.0
C559 C 0.83708 0.70091 0.56668 0.0
C560 C 0.84089 0.64357 0.5057 0.0
C561 C 0.88471 0.6821 0.4846 0.0
N562 N 0.94056 0.76994 0.47737 0.0
N563 N 0.76356 0.62391 0.54416 0.0
C564 C 0.90379 0.73137 0.50311 0.0
C565 C 0.81327 0.65536 0.53945 0.0
N566 N 0.90368 0.78662 0.56793 0.0
N567 N 0.82635 0.59524 0.49521 0.0
H568 H 0.74126 0.63363 0.56486 0.0
H569 H 0.74412 0.59167 0.5223 0.0
H570 H 0.84773 0.58508 0.47353 0.0
H571 H 0.79632 0.56582 0.51283 0.0
H572 H 0.94047 0.81341 0.5618 0.0
H573 H 0.88442 0.79907 0.58988 0.0
H574 H 0.95231 0.80699 0.48535 0.0
H575 H 0.95676 0.76503 0.44512 0.0
C576 C 0.12208 0.8216 0.87563 0.0
C577 C 0.1333 0.78392 0.8882 0.0
C578 C 0.20451 0.82182 0.83209 0.0
C579 C 0.18988 0.85555 0.81393 0.0
N580 N 0.12609 0.87863 0.81123 0.0
N581 N 0.17729 0.74059 0.8651 0.0
C582 C 0.14628 0.85323 0.83379 0.0
C583 C 0.17142 0.78118 0.86168 0.0
N584 N 0.08808 0.82697 0.90314 0.0
N585 N 0.25134 0.83004 0.82412 0.0
H586 H 0.15548 0.71011 0.88743 0.0
H587 H 0.20188 0.73585 0.84235 0.0
H588 H 0.27834 0.86124 0.8059 0.0
H589 H 0.26487 0.80863 0.84058 0.0
H590 H 0.08235 0.85705 0.89912 0.0
H591 H 0.06795 0.80293 0.93217 0.0
H592 H 0.09192 0.87443 0.82145 0.0
H593 H 0.14055 0.89966 0.77882 0.0
C594 C 0.30874 0.18474 0.17541 0.0
C595 C 0.35532 0.20418 0.15123 0.0
C596 C 0.37917 0.15994 0.21176 0.0
C597 C 0.33637 0.147 0.24066 0.0
N598 N 0.26394 0.15554 0.25379 0.0
N599 N 0.44 0.22115 0.1575 0.0
C600 C 0.30181 0.16142 0.22348 0.0
C601 C 0.39191 0.1946 0.17234 0.0
N602 N 0.27059 0.18715 0.15208 0.0
N603 N 0.40766 0.13872 0.22144 0.0
H604 H 0.45175 0.24986 0.13192 0.0
H605 H 0.46888 0.21874 0.17516 0.0
H606 H 0.39828 0.11142 0.24855 0.0
H607 H 0.43696 0.14398 0.19849 0.0
H608 H 0.23452 0.16924 0.16576 0.0
H609 H 0.27382 0.2029 0.11659 0.0
H610 H 0.24138 0.1706 0.24532 0.0
H611 H 0.25774 0.13969 0.28948 0.0
C612 C 0.01136 0.54273 0.39196 0.0
C613 C 0.97414 0.53016 0.35422 0.0
C614 C 0.99431 0.46995 0.31679 0.0
C615 C 0.02905 0.48005 0.35665 0.0
N616 N 0.07821 0.53128 0.42602 0.0
N617 N 0.93588 0.48974 0.27556 0.0
C618 C 0.04026 0.51865 0.39204 0.0
C619 C 0.96795 0.49662 0.31456 0.0
N620 N 0.01719 0.57625 0.42877 0.0
N621 N 0.98475 0.43278 0.28298 0.0
H622 H 0.91535 0.50793 0.27422 0.0
H623 H 0.93171 0.46874 0.24321 0.0
H624 H 1.00469 0.41398 0.2833 0.0
H625 H 0.95655 0.41946 0.25571 0.0
H626 H 0.04039 0.58463 0.46032 0.0
H627 H 0.9974 0.59526 0.42801 0.0
H628 H 0.09084 0.56069 0.45166 0.0
H629 H 0.09936 0.51368 0.42622 0.0
C630 C 0.54674 0.01002 0.72446 0.0
C631 C 0.56953 0.05307 0.69447 0.0
C632 C 0.48757 0.03689 0.66422 0.0
C633 C 0.46472 0.99441 0.69516 0.0
N634 N 0.47125 0.93402 0.74559 0.0
N635 N 0.56384 0.10236 0.62818 0.0
C636 C 0.49413 0.97887 0.72225 0.0
C637 C 0.54044 0.06458 0.66159 0.0
N638 N 0.57548 1.00041 0.75666 0.0
N639 N 0.45867 0.05212 0.63974 0.0
H640 H 0.60245 0.12312 0.62622 0.0
H641 H 0.54549 0.11063 0.60004 0.0
H642 H 0.42002 0.03235 0.64099 0.0
H643 H 0.47269 0.08544 0.62054 0.0
H644 H 0.56128 0.97267 0.78367 0.0
H645 H 0.61409 0.02217 0.75786 0.0
H646 H 0.49015 0.91819 0.76295 0.0
H647 H 0.43285 0.91067 0.74379 0.0
C648 C 0.52082 0.47094 0.97811 0.0
C649 C 0.48676 0.44497 1.01709 0.0
C650 C 0.49307 0.52282 0.0475 0.0
C651 C 0.53133 0.5493 1.01248 0.0
N652 N 0.58026 0.55068 0.94239 0.0
N653 N 0.43693 0.44356 0.08624 0.0
C654 C 0.54414 0.52374 0.9765 0.0
C655 C 0.4713 0.47025 0.05055 0.0
N656 N 0.53155 0.44485 0.94367 0.0
N657 N 0.47853 0.54859 0.07817 0.0
H658 H 0.41952 0.40497 0.08746 0.0
H659 H 0.42577 0.4589 0.11469 0.0
H660 H 0.49454 0.58703 0.07639 0.0
H661 H 0.44955 0.53243 0.10359 0.0
H662 H 0.55382 0.46025 0.91233 0.0
H663 H 0.51607 0.40652 0.94519 0.0
H664 H 0.59482 0.53581 0.917 0.0
H665 H 0.59665 0.58911 0.94008 0.0
C666 C 0.49872 0.9755 0.42023 0.0
C667 C 0.52915 0.97586 0.38041 0.0
C668 C 0.52592 0.04601 0.34196 0.0
C669 C 0.48975 0.04063 0.37744 0.0
N670 N 0.44192 1.00199 0.45112 0.0
N671 N 0.57359 0.01145 0.3043 0.0
C672 C 0.47708 0.00656 0.41758 0.0
C673 C 0.54417 0.01195 0.34206 0.0
N674 N 0.48992 0.94439 0.4599 0.0
N675 N 0.54167 0.08332 0.30766 0.0
H676 H 0.58781 0.98732 0.30446 0.0
H677 H 0.58265 0.03339 0.27226 0.0
H678 H 0.52814 0.10803 0.3073 0.0
H679 H 0.57009 0.09201 0.28221 0.0
H680 H 0.47141 0.94438 0.49248 0.0
H681 H 0.50437 0.92051 0.4615 0.0
H682 H 0.42671 0.97464 0.47844 0.0
H683 H 0.42642 0.025 0.45034 0.0
C684 C 0.54075 0.56524 0.71074 0.0
C685 C 0.57132 0.54353 0.70596 0.0
C686 C 0.49702 0.46167 0.71469 0.0
C687 C 0.46613 0.48294 0.70825 0.0
N688 N 0.46019 0.55624 0.69278 0.0
N689 N 0.57676 0.46914 0.69714 0.0
C690 C 0.48835 0.53521 0.70491 0.0
C691 C 0.54911 0.49113 0.70686 0.0
N692 N 0.56201 0.61467 0.72134 0.0
N693 N 0.47661 0.41354 0.72933 0.0
H694 H 0.61441 0.48909 0.68904 0.0
H695 H 0.56122 0.43096 0.69247 0.0
H696 H 0.43906 0.39204 0.73778 0.0
H697 H 0.4978 0.39716 0.73863 0.0
H698 H 0.54139 0.63193 0.72924 0.0
H699 H 0.6001 0.63694 0.72791 0.0
H700 H 0.47547 0.59384 0.68521 0.0
H701 H 0.42225 0.5356 0.68508 0.0
C702 C 0.00992 0.47165 0.96071 0.0
C703 C 0.97665 0.44099 0.99815 0.0
C704 C 1.00024 0.51418 0.05197 0.0
C705 C 0.02806 0.54528 1.01185 0.0
N706 N 0.05959 0.55502 0.92766 0.0
N707 N 0.93716 0.43231 0.07814 0.0
C708 C 0.03369 0.52435 0.96631 0.0
C709 C 0.97155 0.46206 0.04383 0.0
N710 N 0.01787 0.44993 0.91958 0.0
N711 N 1.00152 0.53506 0.09789 0.0
H712 H 0.9156 0.39407 0.07308 0.0
H713 H 0.9276 0.44558 0.10982 0.0
H714 H 0.02247 0.57317 0.10413 0.0
H715 H 0.98575 0.51484 0.13046 0.0
H716 H 0.04428 0.46935 0.89227 0.0
H717 H 0.99994 0.41151 0.91477 0.0
H718 H 0.06154 0.54269 0.89154 0.0
H719 H 0.07751 0.59352 0.93127 0.0
C720 C 0.22537 0.2503 0.37005 0.0
C721 C 0.24917 0.2998 0.35289 0.0
C722 C 0.33048 0.30935 0.37447 0.0
C723 C 0.30653 0.26055 0.39362 0.0
N724 N 0.23216 0.18664 0.41655 0.0
N725 N 0.32262 0.37899 0.3445 0.0
C726 C 0.25412 0.23161 0.3934 0.0
C727 C 0.30135 0.33013 0.35685 0.0
N728 N 0.17537 0.22102 0.36265 0.0
N729 N 0.38102 0.33488 0.37161 0.0
H730 H 0.30186 0.39457 0.33085 0.0
H731 H 0.35992 0.40467 0.35082 0.0
H732 H 0.40296 0.32042 0.38469 0.0
H733 H 0.40101 0.36877 0.35364 0.0
H734 H 0.15593 0.1832 0.36972 0.0
H735 H 0.1535 0.23423 0.3464 0.0
H736 H 0.19415 0.1652 0.42209 0.0
H737 H 0.25268 0.17232 0.43371 0.0
C738 C 1.00211 0.3004 0.66787 0.0
C739 C 0.97062 0.25078 0.68266 0.0
C740 C 0.03231 0.2587 0.74643 0.0
C741 C 0.06529 0.30677 0.72866 0.0
N742 N 0.08467 0.37242 0.66986 0.0
N743 N 0.95632 0.18031 0.73195 0.0
C744 C 0.05101 0.32733 0.68854 0.0
C745 C 0.98582 0.2293 0.72111 0.0
N746 N 0.98418 0.32238 0.6359 0.0
N747 N 0.04554 0.24178 0.78801 0.0
H748 H 0.92263 0.1579 0.71321 0.0
H749 H 0.96659 0.16092 0.75667 0.0
H750 H 0.07984 0.26256 0.80631 0.0
H751 H 0.02165 0.20905 0.80637 0.0
H752 H 1.00339 0.35992 0.6273 0.0
H753 H 0.94813 0.30385 0.62112 0.0
H754 H 0.07898 0.38706 0.63676 0.0
H755 H 0.11973 0.39409 0.68611 0.0
C756 C 0.7992 0.01001 0.96061 0.0
C757 C 0.78608 0.04055 0.98855 0.0
C758 C 0.69926 0.97418 0.98936 0.0
C759 C 0.71202 0.94435 0.95957 0.0
N760 N 0.77126 0.93457 0.9107 0.0
N761 N 0.72388 0.05571 1.02405 0.0
C762 C 0.7613 0.96264 0.94325 0.0
C763 C 0.73601 0.02383 1.00108 0.0
N764 N 0.84815 0.02602 0.95234 0.0
N765 N 0.65255 0.95401 1.00845 0.0
H766 H 0.75034 0.09165 0.03484 0.0
H767 H 0.68754 0.04783 0.02947 0.0
H768 H 0.62497 0.91765 1.00063 0.0
H769 H 0.64202 0.97185 0.03486 0.0
H770 H 0.86116 1.00424 0.93597 0.0
H771 H 0.87624 0.0606 0.96499 0.0
H772 H 0.80548 0.94695 0.89376 0.0
H773 H 0.74383 0.89976 0.89776 0.0
C774 C 0.79876 0.77915 0.36537 0.0
C775 C 0.7728 0.7294 0.34762 0.0
C776 C 0.69448 0.72191 0.37514 0.0
C777 C 0.72071 0.77001 0.39729 0.0
N778 N 0.79796 0.84269 0.41884 0.0
N779 N 0.6982 0.64975 0.34721 0.0
C780 C 0.77304 0.79826 0.39382 0.0
C781 C 0.72125 0.69969 0.35583 0.0
N782 N 0.84766 0.80817 0.35392 0.0
N783 N 0.64399 0.69836 0.37025 0.0
H784 H 0.7171 0.63181 0.33512 0.0
H785 H 0.66163 0.62558 0.35728 0.0
H786 H 0.62315 0.71458 0.38115 0.0
H787 H 0.62348 0.66531 0.34997 0.0
H788 H 0.86797 0.84603 0.36168 0.0
H789 H 0.867 0.79475 0.33321 0.0
H790 H 0.83646 0.86335 0.42189 0.0
H791 H 0.77969 0.85715 0.43979 0.0
C792 C 0.03791 0.77516 0.64645 0.0
C793 C 0.06852 0.75447 0.65672 0.0
C794 C 1.00122 0.68751 0.70406 0.0
C795 C 0.97252 0.71102 0.69811 0.0
N796 N 0.9661 0.78128 0.67076 0.0
N797 N 0.08299 0.69573 0.70183 0.0
C798 C 0.99143 0.75588 0.6709 0.0
C799 C 0.05112 0.71175 0.6872 0.0
N800 N 0.05334 0.81296 0.61278 0.0
N801 N 0.98014 0.64139 0.72461 0.0
H802 H 0.11983 0.71289 0.69046 0.0
H803 H 0.07413 0.66805 0.7284 0.0
H804 H 0.94344 0.6227 0.73661 0.0
H805 H 0.99743 0.62007 0.72565 0.0
H806 H 0.03088 0.82671 0.59963 0.0
H807 H 0.08745 0.8277 0.59474 0.0
H808 H 0.98008 0.81654 0.65574 0.0
H809 H 0.93288 0.76901 0.68987 0.0
C810 C 0.26213 0.0215 1.00711 0.0
C811 C 0.31332 0.04442 0.99584 0.0
C812 C 0.31238 0.96699 1.01483 0.0
C813 C 0.26299 0.94597 0.032 0.0
N814 N 0.19333 0.9562 0.05251 0.0
N815 N 0.38988 0.04265 1.00208 0.0
C816 C 0.23842 0.97405 0.03028 0.0
C817 C 0.33928 0.01818 1.00337 0.0
N818 N 0.23593 0.04442 0.99423 0.0
N819 N 0.33297 0.93764 1.00754 0.0
H820 H 0.41105 0.08086 0.99731 0.0
H821 H 0.41079 0.02602 1.01166 0.0
H822 H 0.31324 0.89941 1.01271 0.0
H823 H 0.36743 0.95035 0.99089 0.0
H824 H 0.19752 0.02758 0.99716 0.0
H825 H 0.25215 0.07861 0.97627 0.0
H826 H 0.17563 0.97695 0.05669 0.0
H827 H 0.17577 0.92226 0.07093 0.0
C828 C 0.37378 0.65523 0.37306 0.0
C829 C 0.41445 0.65195 0.39351 0.0
C830 C 0.36155 0.56264 0.40452 0.0
C831 C 0.32032 0.56667 0.3873 0.0
N832 N 0.28451 0.61704 0.3639 0.0
N833 N 0.4464 0.60522 0.43635 0.0
C834 C 0.32563 0.61312 0.37425 0.0
C835 C 0.40818 0.60637 0.4115 0.0
N836 N 0.38153 0.69804 0.35075 0.0
N837 N 0.35644 0.51695 0.41256 0.0
H838 H 0.48125 0.63657 0.4417 0.0
H839 H 0.44257 0.57418 0.45508 0.0
H840 H 0.32257 0.48409 0.40883 0.0
H841 H 0.38625 0.51124 0.41946 0.0
H842 H 0.35428 0.70092 0.33029 0.0
H843 H 0.41637 0.72977 0.34886 0.0
H844 H 0.28554 0.65076 0.35942 0.0
H845 H 0.24856 0.58674 0.3641 0.0
C846 C 0.73204 0.39606 0.69392 0.0
C847 C 0.77486 0.44365 0.69219 0.0
C848 C 0.82807 0.40638 0.6897 0.0
C849 C 0.78544 0.35907 0.69511 0.0
N850 N 0.69835 0.30941 0.71367 0.0
N851 N 0.86395 0.49519 0.69914 0.0
C852 C 0.73781 0.35408 0.7007 0.0
C853 C 0.82307 0.4492 0.69321 0.0
N854 N 0.68596 0.39086 0.68735 0.0
N855 N 0.87291 0.41033 0.67935 0.0
H856 H 0.86185 0.52753 0.7022 0.0
H857 H 0.89957 0.50094 0.70552 0.0
H858 H 0.87812 0.37977 0.67686 0.0
H859 H 0.90404 0.44348 0.66936 0.0
H860 H 0.65378 0.35665 0.68284 0.0
H861 H 0.68027 0.42085 0.68186 0.0
H862 H 0.66384 0.30472 0.72316 0.0
H863 H 0.70137 0.2779 0.71977 0.0
C864 C 0.36127 0.68471 0.97356 0.0
C865 C 0.40766 0.72937 0.97451 0.0
C866 C 0.36579 0.77774 0.98168 0.0
C867 C 0.31932 0.7333 0.97867 0.0
N868 N 0.27315 0.64667 0.95558 0.0
N869 N 0.45254 0.81759 0.9604 0.0
C870 C 0.31717 0.68741 0.96912 0.0
C871 C 0.40938 0.77569 0.97211 0.0
N872 N 0.3589 0.64005 0.97992 0.0
N873 N 0.36897 0.82131 0.99683 0.0
H874 H 0.48487 0.81703 0.95135 0.0
H875 H 0.4545 0.85157 0.95413 0.0
H876 H 0.33831 0.82445 1.00693 0.0
H877 H 0.4027 0.85338 1.00429 0.0
H878 H 0.32561 0.60707 0.98453 0.0
H879 H 0.39017 0.63635 0.98519 0.0
H880 H 0.27043 0.61342 0.94364 0.0
H881 H 0.24034 0.64786 0.95121 0.0
C882 C 0.56921 0.39542 0.35088 0.0
C883 C 0.56698 0.36065 0.38679 0.0
C884 C 0.64875 0.42156 0.41946 0.0
C885 C 0.656 0.45038 0.37561 0.0
N886 N 0.62115 0.46854 0.30209 0.0
N887 N 0.58611 0.36521 0.47592 0.0
C888 C 0.61546 0.43875 0.34221 0.0
C889 C 0.60134 0.38018 0.42779 0.0
N890 N 0.5263 0.39065 0.33109 0.0
N891 N 0.68701 0.43248 0.4525 0.0
H892 H 0.54865 0.34203 0.48393 0.0
H893 H 0.60889 0.38152 0.50766 0.0
H894 H 0.72271 0.46236 0.44786 0.0
H895 H 0.68371 0.40932 0.48241 0.0
H896 H 0.52504 0.41715 0.30817 0.0
H897 H 0.49166 0.36327 0.34353 0.0
H898 H 0.59446 0.45853 0.27341 0.0
H899 H 0.65354 0.50217 0.29628 0.0
C900 C 0.27272 0.66112 0.66398 0.0
C901 C 0.27418 0.68615 0.70961 0.0
C902 C 0.26652 0.61617 0.7583 0.0
C903 C 0.27239 0.59474 0.71311 0.0
N904 N 0.29228 0.60305 0.62417 0.0
N905 N 0.28205 0.6917 0.80085 0.0
C906 C 0.27881 0.61904 0.66624 0.0
C907 C 0.27391 0.66494 0.75708 0.0
N908 N 0.26335 0.67607 0.61865 0.0
N909 N 0.25177 0.58933 0.8018 0.0
H910 H 0.28872 0.72803 0.80144 0.0
H911 H 0.28695 0.67954 0.836 0.0
H912 H 0.24362 0.55258 0.80375 0.0
H913 H 0.24256 0.60179 0.8344 0.0
H914 H 0.25729 0.65598 0.58507 0.0
H915 H 0.25616 0.7053 0.61539 0.0
H916 H 0.30194 0.62256 0.59036 0.0
H917 H 0.29884 0.57328 0.6245 0.0
C918 C 0.61855 0.22753 0.0884 0.0
C919 C 0.59852 0.22853 0.04006 0.0
C920 C 0.6718 0.2353 1.00005 0.0
C921 C 0.68814 0.22632 0.04713 0.0
N922 N 0.67132 0.20452 0.13523 0.0
N923 N 0.6 0.21774 0.94941 0.0
C924 C 0.65989 0.21971 0.09124 0.0
C925 C 0.62326 0.2276 0.99567 0.0
N926 N 0.59968 0.236 0.13136 0.0
N927 N 0.70309 0.25301 0.95991 0.0
H928 H 0.563 0.20857 0.94478 0.0
H929 H 0.61573 0.21292 0.91672 0.0
H930 H 0.7404 0.26282 0.96242 0.0
H931 H 0.69343 0.26356 0.92617 0.0
H932 H 0.61607 0.2401 0.167 0.0
H933 H 0.5708 0.24393 0.13082 0.0
H934 H 0.6489 0.19471 0.167 0.0
H935 H 0.70052 0.19717 0.13837 0.0
loop_
_geom_bond_atom_site_label_1
_geom_bond_atom_site_label_2
_geom_bond_distance
_geom_bond_site_symmetry_2
_ccdc_geom_bond_type
C0 C1 1.351 . S
C0 N3 1.368 . S
C0 H5 0.931 . S
C1 C0 1.351 . S
C1 N2 1.373 . S
C1 H29 0.930 . S
N2 C1 1.373 . S
N2 C4 1.340 . S
N3 C0 1.368 . S
N3 C4 1.321 . S
N3 Co6 2.135 . S
C4 N2 1.340 . S
C4 N3 1.321 . S
C4 H28 0.930 . S
H5 C0 0.931 . S
Co6 N3 2.135 . S
Co6 N9 2.121 . S
Co6 O14 2.055 . S
Co6 O17 2.039 . S
Co6 N20 2.140 . S
C7 O8 1.227 . S
C7 O17 1.265 . S
O8 C7 1.227 . S
N9 Co6 2.121 . S
N9 C11 1.375 . S
N9 C12 1.313 . S
C10 C11 1.338 . S
C10 N13 1.377 . S
C10 H30 0.930 . S
C11 N9 1.375 . S
C11 C10 1.338 . S
C11 H15 0.931 . S
C12 N9 1.313 . S
C12 N13 1.344 . S
C12 H16 0.930 . S
N13 C10 1.377 . S
N13 C12 1.344 . S
O14 Co6 2.055 . S
O14 C18 1.253 . S
H15 C11 0.931 . S
H16 C12 0.930 . S
O17 Co6 2.039 . S
O17 C7 1.265 . S
C18 O14 1.253 . S
C18 O19 1.227 . S
O19 C18 1.227 . S
N20 Co6 2.140 . S
N20 C23 1.346 . S
N20 C24 1.345 . S
C21 C22 1.387 . S
C21 C25 1.391 . S
C22 C21 1.387 . S
C22 C23 1.369 . S
C22 H31 0.929 . S
C23 N20 1.346 . S
C23 C22 1.369 . S
C23 H26 0.928 . S
C24 N20 1.345 . S
C24 C25 1.371 . S
C24 H27 0.931 . S
C25 C21 1.391 . S
C25 C24 1.371 . S
C25 H32 0.930 . S
H26 C23 0.928 . S
H27 C24 0.931 . S
H28 C4 0.930 . S
H29 C1 0.930 . S
H30 C10 0.930 . S
H31 C22 0.929 . S
H32 C25 0.930 . S
C33 C34 1.351 . S
C33 N36 1.368 . S
C33 H38 0.931 . S
C34 C33 1.351 . S
C34 N35 1.373 . S
C34 H62 0.930 . S
N35 C34 1.373 . S
N35 C37 1.340 . S
N36 C33 1.368 . S
N36 C37 1.321 . S
N36 Co39 2.135 . S
C37 N35 1.340 . S
C37 N36 1.321 . S
C37 H61 0.930 . S
H38 C33 0.931 . S
Co39 N36 2.135 . S
Co39 N42 2.121 . S
Co39 O47 2.055 . S
Co39 O50 2.039 . S
Co39 N53 2.140 . S
C40 O41 1.227 . S
C40 O50 1.265 . S
O41 C40 1.227 . S
N42 Co39 2.121 . S
N42 C44 1.375 . S
N42 C45 1.313 . S
C43 C44 1.338 . S
C43 N46 1.377 . S
C43 H63 0.930 . S
C44 N42 1.375 . S
C44 C43 1.338 . S
C44 H48 0.931 . S
C45 N42 1.313 . S
C45 N46 1.344 . S
C45 H49 0.930 . S
N46 C43 1.377 . S
N46 C45 1.344 . S
O47 Co39 2.055 . S
O47 C51 1.253 . S
H48 C44 0.931 . S
H49 C45 0.930 . S
O50 Co39 2.039 . S
O50 C40 1.265 . S
C51 O47 1.253 . S
C51 O52 1.227 . S
O52 C51 1.227 . S
N53 Co39 2.140 . S
N53 C56 1.346 . S
N53 C57 1.345 . S
C54 C55 1.387 . S
C54 C58 1.391 . S
C55 C54 1.387 . S
C55 C56 1.369 . S
C55 H64 0.929 . S
C56 N53 1.346 . S
C56 C55 1.369 . S
C56 H59 0.928 . S
C57 N53 1.345 . S
C57 C58 1.371 . S
C57 H60 0.931 . S
C58 C54 1.391 . S
C58 C57 1.371 . S
C58 H65 0.930 . S
H59 C56 0.928 . S
H60 C57 0.931 . S
H61 C37 0.930 . S
H62 C34 0.930 . S
H63 C43 0.930 . S
H64 C55 0.929 . S
H65 C58 0.930 . S
C66 C67 1.351 . S
C66 N69 1.368 . S
C66 H71 0.931 . S
C67 C66 1.351 . S
C67 N68 1.373 . S
C67 H95 0.930 . S
N68 C67 1.373 . S
N68 C70 1.340 1_556 S
N69 C66 1.368 . S
N69 C70 1.321 1_556 S
N69 Co72 2.135 1_556 S
C70 N68 1.340 1_554 S
C70 N69 1.321 1_554 S
C70 H94 0.930 . S
H71 C66 0.931 . S
Co72 N69 2.135 1_554 S
Co72 N75 2.121 . S
Co72 O80 2.055 1_554 S
Co72 O83 2.039 . S
Co72 N86 2.140 1_554 S
C73 O74 1.227 . S
C73 O83 1.265 . S
O74 C73 1.227 . S
N75 Co72 2.121 . S
N75 C77 1.375 . S
N75 C78 1.313 . S
C76 C77 1.338 . S
C76 N79 1.377 . S
C76 H96 0.930 . S
C77 N75 1.375 . S
C77 C76 1.338 . S
C77 H81 0.931 . S
C78 N75 1.313 . S
C78 N79 1.344 . S
C78 H82 0.930 1_554 S
N79 C76 1.377 . S
N79 C78 1.344 . S
O80 Co72 2.055 1_556 S
O80 C84 1.253 . S
H81 C77 0.931 . S
H82 C78 0.930 1_556 S
O83 Co72 2.039 . S
O83 C73 1.265 . S
C84 O80 1.253 . S
C84 O85 1.227 . S
O85 C84 1.227 . S
N86 Co72 2.140 1_556 S
N86 C89 1.346 1_556 S
N86 C90 1.345 . S
C87 C88 1.387 . S
C87 C91 1.391 . S
C88 C87 1.387 . S
C88 C89 1.369 1_556 S
C88 H97 0.929 1_556 S
C89 N86 1.346 1_554 S
C89 C88 1.369 1_554 S
C89 H92 0.928 . S
C90 N86 1.345 . S
C90 C91 1.371 . S
C90 H93 0.931 . S
C91 C87 1.391 . S
C91 C90 1.371 . S
C91 H98 0.930 . S
H92 C89 0.928 . S
H93 C90 0.931 . S
H94 C70 0.930 . S
H95 C67 0.930 . S
H96 C76 0.930 . S
H97 C88 0.929 1_554 S
H98 C91 0.930 . S
C99 C100 1.351 . S
C99 N102 1.368 . S
C99 H104 0.931 . S
C100 C99 1.351 . S
C100 N101 1.373 . S
C100 H128 0.930 . S
N101 C100 1.373 . S
N101 C103 1.340 . S
N102 C99 1.368 . S
N102 C103 1.321 . S
N102 Co105 2.135 . S
C103 N101 1.340 . S
C103 N102 1.321 . S
C103 H127 0.930 . S
H104 C99 0.931 . S
Co105 N102 2.135 . S
Co105 N108 2.121 . S
Co105 O113 2.055 . S
Co105 O116 2.039 . S
Co105 N119 2.140 . S
C106 O107 1.227 . S
C106 O116 1.265 . S
O107 C106 1.227 . S
N108 Co105 2.121 . S
N108 C110 1.375 . S
N108 C111 1.313 . S
C109 C110 1.338 . S
C109 N112 1.377 . S
C109 H129 0.930 . S
C110 N108 1.375 . S
C110 C109 1.338 . S
C110 H114 0.931 . S
C111 N108 1.313 . S
C111 N112 1.344 . S
C111 H115 0.930 . S
N112 C109 1.377 . S
N112 C111 1.344 . S
O113 Co105 2.055 . S
O113 C117 1.253 . S
H114 C110 0.931 . S
H115 C111 0.930 . S
O116 Co105 2.039 . S
O116 C106 1.265 . S
C117 O113 1.253 . S
C117 O118 1.227 . S
O118 C117 1.227 . S
N119 Co105 2.140 . S
N119 C122 1.346 . S
N119 C123 1.345 . S
C120 C121 1.387 . S
C120 C124 1.391 . S
C121 C120 1.387 . S
C121 C122 1.369 . S
C121 H130 0.929 . S
C122 N119 1.346 . S
C122 C121 1.369 . S
C122 H125 0.928 . S
C123 N119 1.345 . S
C123 C124 1.371 . S
C123 H126 0.931 . S
C124 C120 1.391 . S
C124 C123 1.371 . S
C124 H131 0.930 . S
H125 C122 0.928 . S
H126 C123 0.931 . S
H127 C103 0.930 . S
H128 C100 0.930 . S
H129 C109 0.930 . S
H130 C121 0.929 . S
H131 C124 0.930 . S
C132 C133 1.351 . S
C132 N135 1.368 . S
C132 H137 0.931 . S
C133 C132 1.351 . S
C133 N134 1.373 . S
C133 H161 0.930 . S
N134 C133 1.373 . S
N134 C136 1.340 . S
N135 C132 1.368 . S
N135 C136 1.321 . S
N135 Co138 2.135 . S
C136 N134 1.340 . S
C136 N135 1.321 . S
C136 H160 0.930 . S
H137 C132 0.931 . S
Co138 N135 2.135 . S
Co138 N141 2.121 . S
Co138 O146 2.055 . S
Co138 O149 2.039 . S
Co138 N152 2.140 . S
C139 O140 1.227 . S
C139 O149 1.265 . S
O140 C139 1.227 . S
N141 Co138 2.121 . S
N141 C143 1.375 . S
N141 C144 1.313 . S
C142 C143 1.338 . S
C142 N145 1.377 . S
C142 H162 0.930 . S
C143 N141 1.375 . S
C143 C142 1.338 . S
C143 H147 0.931 . S
C144 N141 1.313 . S
C144 N145 1.344 . S
C144 H148 0.930 . S
N145 C142 1.377 . S
N145 C144 1.344 . S
O146 Co138 2.055 . S
O146 C150 1.253 . S
H147 C143 0.931 . S
H148 C144 0.930 . S
O149 Co138 2.039 . S
O149 C139 1.265 . S
C150 O146 1.253 . S
C150 O151 1.227 . S
O151 C150 1.227 . S
N152 Co138 2.140 . S
N152 C155 1.346 . S
N152 C156 1.345 . S
C153 C154 1.387 . S
C153 C157 1.391 . S
C154 C153 1.387 . S
C154 C155 1.369 . S
C154 H163 0.929 . S
C155 N152 1.346 . S
C155 C154 1.369 . S
C155 H158 0.928 . S
C156 N152 1.345 . S
C156 C157 1.371 . S
C156 H159 0.931 . S
C157 C153 1.391 . S
C157 C156 1.371 . S
C157 H164 0.930 . S
H158 C155 0.928 . S
H159 C156 0.931 . S
H160 C136 0.930 . S
H161 C133 0.930 . S
H162 C142 0.930 . S
H163 C154 0.929 . S
H164 C157 0.930 . S
C165 C166 1.351 . S
C165 N168 1.368 . S
C165 H170 0.931 . S
C166 C165 1.351 . S
C166 N167 1.373 . S
C166 H194 0.930 . S
N167 C166 1.373 . S
N167 C169 1.340 1_556 S
N168 C165 1.368 . S
N168 C169 1.321 1_556 S
N168 Co171 2.135 1_556 S
C169 N167 1.340 1_554 S
C169 N168 1.321 1_554 S
C169 H193 0.930 . S
H170 C165 0.931 . S
Co171 N168 2.135 1_554 S
Co171 N174 2.121 . S
Co171 O179 2.055 1_554 S
Co171 O182 2.039 . S
Co171 N185 2.140 1_554 S
C172 O173 1.227 . S
C172 O182 1.265 . S
O173 C172 1.227 . S
N174 Co171 2.121 . S
N174 C176 1.375 . S
N174 C177 1.313 . S
C175 C176 1.338 . S
C175 N178 1.377 . S
C175 H195 0.930 . S
C176 N174 1.375 . S
C176 C175 1.338 . S
C176 H180 0.931 . S
C177 N174 1.313 . S
C177 N178 1.344 . S
C177 H181 0.930 1_554 S
N178 C175 1.377 . S
N178 C177 1.344 . S
O179 Co171 2.055 1_556 S
O179 C183 1.253 . S
H180 C176 0.931 . S
H181 C177 0.930 1_556 S
O182 Co171 2.039 . S
O182 C172 1.265 . S
C183 O179 1.253 . S
C183 O184 1.227 . S
O184 C183 1.227 . S
N185 Co171 2.140 1_556 S
N185 C188 1.346 1_556 S
N185 C189 1.345 . S
C186 C187 1.387 . S
C186 C190 1.391 . S
C187 C186 1.387 . S
C187 C188 1.369 1_556 S
C187 H196 0.929 1_556 S
C188 N185 1.346 1_554 S
C188 C187 1.369 1_554 S
C188 H191 0.928 . S
C189 N185 1.345 . S
C189 C190 1.371 . S
C189 H192 0.931 . S
C190 C186 1.391 . S
C190 C189 1.371 . S
C190 H197 0.930 . S
H191 C188 0.928 . S
H192 C189 0.931 . S
H193 C169 0.930 . S
H194 C166 0.930 . S
H195 C175 0.930 . S
H196 C187 0.929 1_554 S
H197 C190 0.930 . S
C198 C199 1.351 . S
C198 N201 1.368 . S
C198 H203 0.931 . S
C199 C198 1.351 . S
C199 N200 1.373 . S
C199 H227 0.930 . S
N200 C199 1.373 . S
N200 C202 1.340 . S
N201 C198 1.368 . S
N201 C202 1.321 . S
N201 Co204 2.135 . S
C202 N200 1.340 . S
C202 N201 1.321 . S
C202 H226 0.930 . S
H203 C198 0.931 . S
Co204 N201 2.135 . S
Co204 N207 2.121 . S
Co204 O212 2.055 . S
Co204 O215 2.039 . S
Co204 N218 2.140 . S
C205 O206 1.227 . S
C205 O215 1.265 . S
O206 C205 1.227 . S
N207 Co204 2.121 . S
N207 C209 1.375 . S
N207 C210 1.313 . S
C208 C209 1.338 . S
C208 N211 1.377 . S
C208 H228 0.930 . S
C209 N207 1.375 . S
C209 C208 1.338 . S
C209 H213 0.931 . S
C210 N207 1.313 . S
C210 N211 1.344 . S
C210 H214 0.930 . S
N211 C208 1.377 . S
N211 C210 1.344 . S
O212 Co204 2.055 . S
O212 C216 1.253 . S
H213 C209 0.931 . S
H214 C210 0.930 . S
O215 Co204 2.039 . S
O215 C205 1.265 . S
C216 O212 1.253 . S
C216 O217 1.227 . S
O217 C216 1.227 . S
N218 Co204 2.140 . S
N218 C221 1.346 . S
N218 C222 1.345 . S
C219 C220 1.387 . S
C219 C223 1.391 . S
C220 C219 1.387 . S
C220 C221 1.369 . S
C220 H229 0.929 . S
C221 N218 1.346 . S
C221 C220 1.369 . S
C221 H224 0.928 . S
C222 N218 1.345 . S
C222 C223 1.371 . S
C222 H225 0.931 . S
C223 C219 1.391 . S
C223 C222 1.371 . S
C223 H230 0.930 . S
H224 C221 0.928 . S
H225 C222 0.931 . S
H226 C202 0.930 . S
H227 C199 0.930 . S
H228 C208 0.930 . S
H229 C220 0.929 . S
H230 C223 0.930 . S
C231 C232 1.351 . S
C231 N234 1.368 . S
C231 H236 0.931 . S
C232 C231 1.351 . S
C232 N233 1.373 . S
C232 H260 0.930 . S
N233 C232 1.373 . S
N233 C235 1.340 . S
N234 C231 1.368 . S
N234 C235 1.321 . S
N234 Co237 2.135 . S
C235 N233 1.340 . S
C235 N234 1.321 . S
C235 H259 0.930 . S
H236 C231 0.931 . S
Co237 N234 2.135 . S
Co237 N240 2.121 . S
Co237 O245 2.055 . S
Co237 O248 2.039 . S
Co237 N251 2.140 . S
C238 O239 1.227 . S
C238 O248 1.265 . S
O239 C238 1.227 . S
N240 Co237 2.121 . S
N240 C242 1.375 . S
N240 C243 1.313 . S
C241 C242 1.338 . S
C241 N244 1.377 . S
C241 H261 0.930 . S
C242 N240 1.375 . S
C242 C241 1.338 . S
C242 H246 0.931 . S
C243 N240 1.313 . S
C243 N244 1.344 . S
C243 H247 0.930 . S
N244 C241 1.377 . S
N244 C243 1.344 . S
O245 Co237 2.055 . S
O245 C249 1.253 . S
H246 C242 0.931 . S
H247 C243 0.930 . S
O248 Co237 2.039 . S
O248 C238 1.265 . S
C249 O245 1.253 . S
C249 O250 1.227 . S
O250 C249 1.227 . S
N251 Co237 2.140 . S
N251 C254 1.346 . S
N251 C255 1.345 . S
C252 C253 1.387 . S
C252 C256 1.391 . S
C253 C252 1.387 . S
C253 C254 1.369 . S
C253 H262 0.929 . S
C254 N251 1.346 . S
C254 C253 1.369 . S
C254 H257 0.928 . S
C255 N251 1.345 . S
C255 C256 1.371 . S
C255 H258 0.931 . S
C256 C252 1.391 . S
C256 C255 1.371 . S
C256 H263 0.930 . S
H257 C254 0.928 . S
H258 C255 0.931 . S
H259 C235 0.930 . S
H260 C232 0.930 . S
H261 C241 0.930 . S
H262 C253 0.929 . S
H263 C256 0.930 . S
C264 C265 1.351 . S
C264 N267 1.368 . S
C264 H269 0.931 . S
C265 C264 1.351 . S
C265 N266 1.373 . S
C265 H293 0.930 . S
N266 C265 1.373 . S
N266 C268 1.340 1_554 S
N267 C264 1.368 . S
N267 C268 1.321 1_554 S
N267 Co270 2.135 1_554 S
C268 N266 1.340 1_556 S
C268 N267 1.321 1_556 S
C268 H292 0.930 . S
H269 C264 0.931 . S
Co270 N267 2.135 1_556 S
Co270 N273 2.121 . S
Co270 O278 2.055 1_556 S
Co270 O281 2.039 . S
Co270 N284 2.140 1_556 S
C271 O272 1.227 . S
C271 O281 1.265 . S
O272 C271 1.227 . S
N273 Co270 2.121 . S
N273 C275 1.375 . S
N273 C276 1.313 . S
C274 C275 1.338 . S
C274 N277 1.377 . S
C274 H294 0.930 . S
C275 N273 1.375 . S
C275 C274 1.338 . S
C275 H279 0.931 . S
C276 N273 1.313 . S
C276 N277 1.344 . S
C276 H280 0.930 1_556 S
N277 C274 1.377 . S
N277 C276 1.344 . S
O278 Co270 2.055 1_554 S
O278 C282 1.253 . S
H279 C275 0.931 . S
H280 C276 0.930 1_554 S
O281 Co270 2.039 . S
O281 C271 1.265 . S
C282 O278 1.253 . S
C282 O283 1.227 . S
O283 C282 1.227 . S
N284 Co270 2.140 1_554 S
N284 C287 1.346 1_554 S
N284 C288 1.345 . S
C285 C286 1.387 . S
C285 C289 1.391 . S
C286 C285 1.387 . S
C286 C287 1.369 1_554 S
C286 H295 0.929 1_554 S
C287 N284 1.346 1_556 S
C287 C286 1.369 1_556 S
C287 H290 0.928 . S
C288 N284 1.345 . S
C288 C289 1.371 . S
C288 H291 0.931 . S
C289 C285 1.391 . S
C289 C288 1.371 . S
C289 H296 0.930 . S
H290 C287 0.928 . S
H291 C288 0.931 . S
H292 C268 0.930 . S
H293 C265 0.930 . S
H294 C274 0.930 . S
H295 C286 0.929 1_556 S
H296 C289 0.930 . S
C297 C298 1.351 . S
C297 N300 1.368 . S
C297 H302 0.931 . S
C298 C297 1.351 . S
C298 N299 1.373 . S
C298 H326 0.930 . S
N299 C298 1.373 . S
N299 C301 1.340 . S
N300 C297 1.368 . S
N300 C301 1.321 . S
N300 Co303 2.135 . S
C301 N299 1.340 . S
C301 N300 1.321 . S
C301 H325 0.930 . S
H302 C297 0.931 . S
Co303 N300 2.135 . S
Co303 N306 2.121 . S
Co303 O311 2.055 . S
Co303 O314 2.039 . S
Co303 N317 2.140 . S
C304 O305 1.227 . S
C304 O314 1.265 . S
O305 C304 1.227 . S
N306 Co303 2.121 . S
N306 C308 1.375 . S
N306 C309 1.313 . S
C307 C308 1.338 . S
C307 N310 1.377 . S
C307 H327 0.930 . S
C308 N306 1.375 . S
C308 C307 1.338 . S
C308 H312 0.931 . S
C309 N306 1.313 . S
C309 N310 1.344 . S
C309 H313 0.930 . S
N310 C307 1.377 . S
N310 C309 1.344 . S
O311 Co303 2.055 . S
O311 C315 1.253 . S
H312 C308 0.931 . S
H313 C309 0.930 . S
O314 Co303 2.039 . S
O314 C304 1.265 . S
C315 O311 1.253 . S
C315 O316 1.227 . S
O316 C315 1.227 . S
N317 Co303 2.140 . S
N317 C320 1.346 . S
N317 C321 1.345 . S
C318 C319 1.387 . S
C318 C322 1.391 . S
C319 C318 1.387 . S
C319 C320 1.369 . S
C319 H328 0.929 . S
C320 N317 1.346 . S
C320 C319 1.369 . S
C320 H323 0.928 . S
C321 N317 1.345 . S
C321 C322 1.371 . S
C321 H324 0.931 . S
C322 C318 1.391 . S
C322 C321 1.371 . S
C322 H329 0.930 . S
H323 C320 0.928 . S
H324 C321 0.931 . S
H325 C301 0.930 . S
H326 C298 0.930 . S
H327 C307 0.930 . S
H328 C319 0.929 . S
H329 C322 0.930 . S
C330 C331 1.351 . S
C330 N333 1.368 . S
C330 H335 0.931 . S
C331 C330 1.351 . S
C331 N332 1.373 . S
C331 H359 0.930 . S
N332 C331 1.373 . S
N332 C334 1.340 . S
N333 C330 1.368 . S
N333 C334 1.321 . S
N333 Co336 2.135 . S
C334 N332 1.340 . S
C334 N333 1.321 . S
C334 H358 0.930 . S
H335 C330 0.931 . S
Co336 N333 2.135 . S
Co336 N339 2.121 . S
Co336 O344 2.055 . S
Co336 O347 2.039 . S
Co336 N350 2.140 . S
C337 O338 1.227 . S
C337 O347 1.265 . S
O338 C337 1.227 . S
N339 Co336 2.121 . S
N339 C341 1.375 . S
N339 C342 1.313 . S
C340 C341 1.338 . S
C340 N343 1.377 . S
C340 H360 0.930 . S
C341 N339 1.375 . S
C341 C340 1.338 . S
C341 H345 0.931 . S
C342 N339 1.313 . S
C342 N343 1.344 . S
C342 H346 0.930 . S
N343 C340 1.377 . S
N343 C342 1.344 . S
O344 Co336 2.055 . S
O344 C348 1.253 . S
H345 C341 0.931 . S
H346 C342 0.930 . S
O347 Co336 2.039 . S
O347 C337 1.265 . S
C348 O344 1.253 . S
C348 O349 1.227 . S
O349 C348 1.227 . S
N350 Co336 2.140 . S
N350 C353 1.346 . S
N350 C354 1.345 . S
C351 C352 1.387 . S
C351 C355 1.391 . S
C352 C351 1.387 . S
C352 C353 1.369 . S
C352 H361 0.929 . S
C353 N350 1.346 . S
C353 C352 1.369 . S
C353 H356 0.928 . S
C354 N350 1.345 . S
C354 C355 1.371 . S
C354 H357 0.931 . S
C355 C351 1.391 . S
C355 C354 1.371 . S
C355 H362 0.930 . S
H356 C353 0.928 . S
H357 C354 0.931 . S
H358 C334 0.930 . S
H359 C331 0.930 . S
H360 C340 0.930 . S
H361 C352 0.929 . S
H362 C355 0.930 . S
C363 C364 1.351 . S
C363 N366 1.368 . S
C363 H368 0.931 . S
C364 C363 1.351 . S
C364 N365 1.373 . S
C364 H392 0.930 . S
N365 C364 1.373 . S
N365 C367 1.340 1_554 S
N366 C363 1.368 . S
N366 C367 1.321 1_554 S
N366 Co369 2.135 1_554 S
C367 N365 1.340 1_556 S
C367 N366 1.321 1_556 S
C367 H391 0.930 . S
H368 C363 0.931 . S
Co369 N366 2.135 1_556 S
Co369 N372 2.121 . S
Co369 O377 2.055 1_556 S
Co369 O380 2.039 . S
Co369 N383 2.140 1_556 S
C370 O371 1.227 . S
C370 O380 1.265 . S
O371 C370 1.227 . S
N372 Co369 2.121 . S
N372 C374 1.375 . S
N372 C375 1.313 . S
C373 C374 1.338 . S
C373 N376 1.377 . S
C373 H393 0.930 . S
C374 N372 1.375 . S
C374 C373 1.338 . S
C374 H378 0.931 . S
C375 N372 1.313 . S
C375 N376 1.344 . S
C375 H379 0.930 1_556 S
N376 C373 1.377 . S
N376 C375 1.344 . S
O377 Co369 2.055 1_554 S
O377 C381 1.253 . S
H378 C374 0.931 . S
H379 C375 0.930 1_554 S
O380 Co369 2.039 . S
O380 C370 1.265 . S
C381 O377 1.253 . S
C381 O382 1.227 . S
O382 C381 1.227 . S
N383 Co369 2.140 1_554 S
N383 C386 1.346 1_554 S
N383 C387 1.345 . S
C384 C385 1.387 . S
C384 C388 1.391 . S
C385 C384 1.387 . S
C385 C386 1.369 1_554 S
C385 H394 0.929 1_554 S
C386 N383 1.346 1_556 S
C386 C385 1.369 1_556 S
C386 H389 0.928 . S
C387 N383 1.345 . S
C387 C388 1.371 . S
C387 H390 0.931 . S
C388 C384 1.391 . S
C388 C387 1.371 . S
C388 H395 0.930 . S
H389 C386 0.928 . S
H390 C387 0.931 . S
H391 C367 0.930 . S
H392 C364 0.930 . S
H393 C373 0.930 . S
H394 C385 0.929 1_556 S
H395 C388 0.930 . S
C396 C397 1.363 . S
C396 C402 1.379 . S
C396 N404 1.356 . S
C397 C396 1.363 . S
C397 C403 1.363 1_655 S
C398 C399 1.363 . S
C398 C403 1.379 . S
C398 N405 1.356 . S
C399 C398 1.363 . S
C399 C402 1.363 1_455 S
N400 C402 1.356 . S
N400 H412 0.984 . S
N400 H413 0.985 1_655 S
N401 C403 1.356 . S
N401 H406 0.984 1_455 S
N401 H407 0.985 . S
C402 C396 1.379 . S
C402 C399 1.363 1_655 S
C402 N400 1.356 . S
C403 C397 1.363 1_455 S
C403 C398 1.379 . S
C403 N401 1.356 . S
N404 C396 1.356 . S
N404 H410 0.984 . S
N404 H411 0.984 . S
N405 C398 1.356 . S
N405 H408 0.984 . S
N405 H409 0.985 . S
H406 N401 0.984 1_655 S
H407 N401 0.985 . S
H408 N405 0.984 . S
H409 N405 0.985 . S
H410 N404 0.984 . S
H411 N404 0.984 . S
H412 N400 0.984 . S
H413 N400 0.985 1_455 S
C414 C415 1.363 . S
C414 C420 1.379 1_565 S
C414 N422 1.356 . S
C415 C414 1.363 . S
C415 C421 1.363 . S
C416 C417 1.363 . S
C416 C421 1.379 1_545 S
C416 N423 1.356 . S
C417 C416 1.363 . S
C417 C420 1.363 . S
N418 C420 1.356 . S
N418 H430 0.984 . S
N418 H431 0.985 . S
N419 C421 1.356 . S
N419 H424 0.984 . S
N419 H425 0.985 . S
C420 C414 1.379 1_545 S
C420 C417 1.363 . S
C420 N418 1.356 . S
C421 C415 1.363 . S
C421 C416 1.379 1_565 S
C421 N419 1.356 . S
N422 C414 1.356 . S
N422 H428 0.984 . S
N422 H429 0.984 . S
N423 C416 1.356 . S
N423 H426 0.984 . S
N423 H427 0.985 . S
H424 N419 0.984 . S
H425 N419 0.985 . S
H426 N423 0.984 . S
H427 N423 0.985 . S
H428 N422 0.984 . S
H429 N422 0.984 . S
H430 N418 0.984 . S
H431 N418 0.985 . S
C432 C433 1.363 . S
C432 C438 1.379 . S
C432 N440 1.356 . S
C433 C432 1.363 . S
C433 C439 1.363 . S
C434 C435 1.363 . S
C434 C439 1.379 . S
C434 N441 1.356 . S
C435 C434 1.363 . S
C435 C438 1.363 . S
N436 C438 1.356 . S
N436 H448 0.984 . S
N436 H449 0.985 . S
N437 C439 1.356 . S
N437 H442 0.984 . S
N437 H443 0.985 . S
C438 C432 1.379 . S
C438 C435 1.363 . S
C438 N436 1.356 . S
C439 C433 1.363 . S
C439 C434 1.379 . S
C439 N437 1.356 . S
N440 C432 1.356 . S
N440 H446 0.984 . S
N440 H447 0.984 . S
N441 C434 1.356 . S
N441 H444 0.984 . S
N441 H445 0.985 . S
H442 N437 0.984 . S
H443 N437 0.985 . S
H444 N441 0.984 . S
H445 N441 0.985 . S
H446 N440 0.984 . S
H447 N440 0.984 . S
H448 N436 0.984 . S
H449 N436 0.985 . S
C450 C451 1.363 . S
C450 C456 1.379 1_455 S
C450 N458 1.356 . S
C451 C450 1.363 . S
C451 C457 1.363 . S
C452 C453 1.363 . S
C452 C457 1.379 1_655 S
C452 N459 1.356 . S
C453 C452 1.363 . S
C453 C456 1.363 . S
N454 C456 1.356 . S
N454 H466 0.984 . S
N454 H467 0.985 . S
N455 C457 1.356 . S
N455 H460 0.984 . S
N455 H461 0.985 . S
C456 C450 1.379 1_655 S
C456 C453 1.363 . S
C456 N454 1.356 . S
C457 C451 1.363 . S
C457 C452 1.379 1_455 S
C457 N455 1.356 . S
N458 C450 1.356 . S
N458 H464 0.984 . S
N458 H465 0.984 . S
N459 C452 1.356 . S
N459 H462 0.984 . S
N459 H463 0.985 . S
H460 N455 0.984 . S
H461 N455 0.985 . S
H462 N459 0.984 . S
H463 N459 0.985 . S
H464 N458 0.984 . S
H465 N458 0.984 . S
H466 N454 0.984 . S
H467 N454 0.985 . S
C468 C469 1.363 1_565 S
C468 C474 1.379 . S
C468 N476 1.356 . S
C469 C468 1.363 1_545 S
C469 C475 1.363 . S
C470 C471 1.363 1_545 S
C470 C475 1.379 . S
C470 N477 1.356 . S
C471 C470 1.363 1_565 S
C471 C474 1.363 . S
N472 C474 1.356 . S
N472 H484 0.984 . S
N472 H485 0.985 . S
N473 C475 1.356 . S
N473 H478 0.984 . S
N473 H479 0.985 . S
C474 C468 1.379 . S
C474 C471 1.363 . S
C474 N472 1.356 . S
C475 C469 1.363 . S
C475 C470 1.379 . S
C475 N473 1.356 . S
N476 C468 1.356 . S
N476 H482 0.984 . S
N476 H483 0.984 1_565 S
N477 C470 1.356 . S
N477 H480 0.984 1_545 S
N477 H481 0.985 . S
H478 N473 0.984 . S
H479 N473 0.985 . S
H480 N477 0.984 1_565 S
H481 N477 0.985 . S
H482 N476 0.984 . S
H483 N476 0.984 1_545 S
H484 N472 0.984 . S
H485 N472 0.985 . S
C486 C487 1.363 . S
C486 C492 1.379 . S
C486 N494 1.356 . S
C487 C486 1.363 . S
C487 C493 1.363 . S
C488 C489 1.363 . S
C488 C493 1.379 . S
C488 N495 1.356 . S
C489 C488 1.363 . S
C489 C492 1.363 . S
N490 C492 1.356 . S
N490 H502 0.984 . S
N490 H503 0.985 . S
N491 C493 1.356 . S
N491 H496 0.984 . S
N491 H497 0.985 . S
C492 C486 1.379 . S
C492 C489 1.363 . S
C492 N490 1.356 . S
C493 C487 1.363 . S
C493 C488 1.379 . S
C493 N491 1.356 . S
N494 C486 1.356 . S
N494 H500 0.984 . S
N494 H501 0.984 . S
N495 C488 1.356 . S
N495 H498 0.984 . S
N495 H499 0.985 . S
H496 N491 0.984 . S
H497 N491 0.985 . S
H498 N495 0.984 . S
H499 N495 0.985 . S
H500 N494 0.984 . S
H501 N494 0.984 . S
H502 N490 0.984 . S
H503 N490 0.985 . S
C504 C505 1.363 . S
C504 C510 1.379 . S
C504 N512 1.356 . S
C505 C504 1.363 . S
C505 C511 1.363 . S
C506 C507 1.363 . S
C506 C511 1.379 . S
C506 N513 1.356 . S
C507 C506 1.363 . S
C507 C510 1.363 . S
N508 C510 1.356 . S
N508 H520 0.984 . S
N508 H521 0.985 . S
N509 C511 1.356 . S
N509 H514 0.984 . S
N509 H515 0.985 . S
C510 C504 1.379 . S
C510 C507 1.363 . S
C510 N508 1.356 . S
C511 C505 1.363 . S
C511 C506 1.379 . S
C511 N509 1.356 . S
N512 C504 1.356 . S
N512 H518 0.984 . S
N512 H519 0.984 . S
N513 C506 1.356 . S
N513 H516 0.984 . S
N513 H517 0.985 . S
H514 N509 0.984 . S
H515 N509 0.985 . S
H516 N513 0.984 . S
H517 N513 0.985 . S
H518 N512 0.984 . S
H519 N512 0.984 . S
H520 N508 0.984 . S
H521 N508 0.985 . S
C522 C523 1.363 . S
C522 C528 1.379 . S
C522 N530 1.356 . S
C523 C522 1.363 . S
C523 C529 1.363 . S
C524 C525 1.363 . S
C524 C529 1.379 . S
C524 N531 1.356 . S
C525 C524 1.363 . S
C525 C528 1.363 . S
N526 C528 1.356 . S
N526 H538 0.984 . S
N526 H539 0.985 . S
N527 C529 1.356 . S
N527 H532 0.984 . S
N527 H533 0.985 . S
C528 C522 1.379 . S
C528 C525 1.363 . S
C528 N526 1.356 . S
C529 C523 1.363 . S
C529 C524 1.379 . S
C529 N527 1.356 . S
N530 C522 1.356 . S
N530 H536 0.984 . S
N530 H537 0.984 . S
N531 C524 1.356 . S
N531 H534 0.984 . S
N531 H535 0.985 . S
H532 N527 0.984 . S
H533 N527 0.985 . S
H534 N531 0.984 . S
H535 N531 0.985 . S
H536 N530 0.984 . S
H537 N530 0.984 . S
H538 N526 0.984 . S
H539 N526 0.985 . S
C540 C541 1.363 . S
C540 C546 1.379 . S
C540 N548 1.356 . S
C541 C540 1.363 . S
C541 C547 1.363 . S
C542 C543 1.363 . S
C542 C547 1.379 . S
C542 N549 1.356 . S
C543 C542 1.363 . S
C543 C546 1.363 . S
N544 C546 1.356 . S
N544 H556 0.984 . S
N544 H557 0.985 . S
N545 C547 1.356 . S
N545 H550 0.984 . S
N545 H551 0.985 . S
C546 C540 1.379 . S
C546 C543 1.363 . S
C546 N544 1.356 . S
C547 C541 1.363 . S
C547 C542 1.379 . S
C547 N545 1.356 . S
N548 C540 1.356 . S
N548 H554 0.984 . S
N548 H555 0.984 . S
N549 C542 1.356 . S
N549 H552 0.984 . S
N549 H553 0.985 . S
H550 N545 0.984 . S
H551 N545 0.985 . S
H552 N549 0.984 . S
H553 N549 0.985 . S
H554 N548 0.984 . S
H555 N548 0.984 . S
H556 N544 0.984 . S
H557 N544 0.985 . S
C558 C559 1.363 . S
C558 C564 1.379 . S
C558 N566 1.356 . S
C559 C558 1.363 . S
C559 C565 1.363 . S
C560 C561 1.363 . S
C560 C565 1.379 . S
C560 N567 1.356 . S
C561 C560 1.363 . S
C561 C564 1.363 . S
N562 C564 1.356 . S
N562 H574 0.984 . S
N562 H575 0.985 . S
N563 C565 1.356 . S
N563 H568 0.984 . S
N563 H569 0.985 . S
C564 C558 1.379 . S
C564 C561 1.363 . S
C564 N562 1.356 . S
C565 C559 1.363 . S
C565 C560 1.379 . S
C565 N563 1.356 . S
N566 C558 1.356 . S
N566 H572 0.984 . S
N566 H573 0.984 . S
N567 C560 1.356 . S
N567 H570 0.984 . S
N567 H571 0.985 . S
H568 N563 0.984 . S
H569 N563 0.985 . S
H570 N567 0.984 . S
H571 N567 0.985 . S
H572 N566 0.984 . S
H573 N566 0.984 . S
H574 N562 0.984 . S
H575 N562 0.985 . S
C576 C577 1.363 . S
C576 C582 1.379 . S
C576 N584 1.356 . S
C577 C576 1.363 . S
C577 C583 1.363 . S
C578 C579 1.363 . S
C578 C583 1.379 . S
C578 N585 1.356 . S
C579 C578 1.363 . S
C579 C582 1.363 . S
N580 C582 1.356 . S
N580 H592 0.984 . S
N580 H593 0.985 . S
N581 C583 1.356 . S
N581 H586 0.984 . S
N581 H587 0.985 . S
C582 C576 1.379 . S
C582 C579 1.363 . S
C582 N580 1.356 . S
C583 C577 1.363 . S
C583 C578 1.379 . S
C583 N581 1.356 . S
N584 C576 1.356 . S
N584 H590 0.984 . S
N584 H591 0.984 . S
N585 C578 1.356 . S
N585 H588 0.984 . S
N585 H589 0.985 . S
H586 N581 0.984 . S
H587 N581 0.985 . S
H588 N585 0.984 . S
H589 N585 0.985 . S
H590 N584 0.984 . S
H591 N584 0.984 . S
H592 N580 0.984 . S
H593 N580 0.985 . S
C594 C595 1.363 . S
C594 C600 1.379 . S
C594 N602 1.356 . S
C595 C594 1.363 . S
C595 C601 1.363 . S
C596 C597 1.363 . S
C596 C601 1.379 . S
C596 N603 1.356 . S
C597 C596 1.363 . S
C597 C600 1.363 . S
N598 C600 1.356 . S
N598 H610 0.984 . S
N598 H611 0.985 . S
N599 C601 1.356 . S
N599 H604 0.984 . S
N599 H605 0.985 . S
C600 C594 1.379 . S
C600 C597 1.363 . S
C600 N598 1.356 . S
C601 C595 1.363 . S
C601 C596 1.379 . S
C601 N599 1.356 . S
N602 C594 1.356 . S
N602 H608 0.984 . S
N602 H609 0.984 . S
N603 C596 1.356 . S
N603 H606 0.984 . S
N603 H607 0.985 . S
H604 N599 0.984 . S
H605 N599 0.985 . S
H606 N603 0.984 . S
H607 N603 0.985 . S
H608 N602 0.984 . S
H609 N602 0.984 . S
H610 N598 0.984 . S
H611 N598 0.985 . S
C612 C613 1.363 1_455 S
C612 C618 1.379 . S
C612 N620 1.356 . S
C613 C612 1.363 1_655 S
C613 C619 1.363 . S
C614 C615 1.363 1_655 S
C614 C619 1.379 . S
C614 N621 1.356 . S
C615 C614 1.363 1_455 S
C615 C618 1.363 . S
N616 C618 1.356 . S
N616 H628 0.984 . S
N616 H629 0.985 . S
N617 C619 1.356 . S
N617 H622 0.984 . S
N617 H623 0.985 . S
C618 C612 1.379 . S
C618 C615 1.363 . S
C618 N616 1.356 . S
C619 C613 1.363 . S
C619 C614 1.379 . S
C619 N617 1.356 . S
N620 C612 1.356 . S
N620 H626 0.984 . S
N620 H627 0.984 1_455 S
N621 C614 1.356 . S
N621 H624 0.984 1_655 S
N621 H625 0.985 . S
H622 N617 0.984 . S
H623 N617 0.985 . S
H624 N621 0.984 1_455 S
H625 N621 0.985 . S
H626 N620 0.984 . S
H627 N620 0.984 1_655 S
H628 N616 0.984 . S
H629 N616 0.985 . S
C630 C631 1.363 1_565 S
C630 C636 1.379 . S
C630 N638 1.356 . S
C631 C630 1.363 1_545 S
C631 C637 1.363 . S
C632 C633 1.363 1_545 S
C632 C637 1.379 . S
C632 N639 1.356 . S
C633 C632 1.363 1_565 S
C633 C636 1.363 . S
N634 C636 1.356 . S
N634 H646 0.984 . S
N634 H647 0.985 . S
N635 C637 1.356 . S
N635 H640 0.984 . S
N635 H641 0.985 . S
C636 C630 1.379 . S
C636 C633 1.363 . S
C636 N634 1.356 . S
C637 C631 1.363 . S
C637 C632 1.379 . S
C637 N635 1.356 . S
N638 C630 1.356 . S
N638 H644 0.984 . S
N638 H645 0.984 1_565 S
N639 C632 1.356 . S
N639 H642 0.984 1_545 S
N639 H643 0.985 . S
H640 N635 0.984 . S
H641 N635 0.985 . S
H642 N639 0.984 1_565 S
H643 N639 0.985 . S
H644 N638 0.984 . S
H645 N638 0.984 1_545 S
H646 N634 0.984 . S
H647 N634 0.985 . S
C648 C649 1.363 1_556 S
C648 C654 1.379 . S
C648 N656 1.356 . S
C649 C648 1.363 1_554 S
C649 C655 1.363 . S
C650 C651 1.363 . S
C650 C655 1.379 . S
C650 N657 1.356 . S
C651 C650 1.363 . S
C651 C654 1.363 1_554 S
N652 C654 1.356 . S
N652 H664 0.984 . S
N652 H665 0.985 . S
N653 C655 1.356 . S
N653 H658 0.984 . S
N653 H659 0.985 . S
C654 C648 1.379 . S
C654 C651 1.363 1_556 S
C654 N652 1.356 . S
C655 C649 1.363 . S
C655 C650 1.379 . S
C655 N653 1.356 . S
N656 C648 1.356 . S
N656 H662 0.984 . S
N656 H663 0.984 . S
N657 C650 1.356 . S
N657 H660 0.984 . S
N657 H661 0.985 . S
H658 N653 0.984 . S
H659 N653 0.985 . S
H660 N657 0.984 . S
H661 N657 0.985 . S
H662 N656 0.984 . S
H663 N656 0.984 . S
H664 N652 0.984 . S
H665 N652 0.985 . S
C666 C667 1.363 . S
C666 C672 1.379 . S
C666 N674 1.356 . S
C667 C666 1.363 . S
C667 C673 1.363 1_565 S
C668 C669 1.363 . S
C668 C673 1.379 . S
C668 N675 1.356 . S
C669 C668 1.363 . S
C669 C672 1.363 1_545 S
N670 C672 1.356 . S
N670 H682 0.984 . S
N670 H683 0.985 1_565 S
N671 C673 1.356 . S
N671 H676 0.984 1_545 S
N671 H677 0.985 . S
C672 C666 1.379 . S
C672 C669 1.363 1_565 S
C672 N670 1.356 . S
C673 C667 1.363 1_545 S
C673 C668 1.379 . S
C673 N671 1.356 . S
N674 C666 1.356 . S
N674 H680 0.984 . S
N674 H681 0.984 . S
N675 C668 1.356 . S
N675 H678 0.984 . S
N675 H679 0.985 . S
H676 N671 0.984 1_565 S
H677 N671 0.985 . S
H678 N675 0.984 . S
H679 N675 0.985 . S
H680 N674 0.984 . S
H681 N674 0.984 . S
H682 N670 0.984 . S
H683 N670 0.985 1_545 S
C684 C685 1.363 . S
C684 C690 1.379 . S
C684 N692 1.356 . S
C685 C684 1.363 . S
C685 C691 1.363 . S
C686 C687 1.363 . S
C686 C691 1.379 . S
C686 N693 1.356 . S
C687 C686 1.363 . S
C687 C690 1.363 . S
N688 C690 1.356 . S
N688 H700 0.984 . S
N688 H701 0.985 . S
N689 C691 1.356 . S
N689 H694 0.984 . S
N689 H695 0.985 . S
C690 C684 1.379 . S
C690 C687 1.363 . S
C690 N688 1.356 . S
C691 C685 1.363 . S
C691 C686 1.379 . S
C691 N689 1.356 . S
N692 C684 1.356 . S
N692 H698 0.984 . S
N692 H699 0.984 . S
N693 C686 1.356 . S
N693 H696 0.984 . S
N693 H697 0.985 . S
H694 N689 0.984 . S
H695 N689 0.985 . S
H696 N693 0.984 . S
H697 N693 0.985 . S
H698 N692 0.984 . S
H699 N692 0.984 . S
H700 N688 0.984 . S
H701 N688 0.985 . S
C702 C703 1.363 1_455 S
C702 C708 1.379 . S
C702 N710 1.356 . S
C703 C702 1.363 1_655 S
C703 C709 1.363 1_556 S
C704 C705 1.363 1_654 S
C704 C709 1.379 . S
C704 N711 1.356 . S
C705 C704 1.363 1_456 S
C705 C708 1.363 . S
N706 C708 1.356 . S
N706 H718 0.984 . S
N706 H719 0.985 . S
N707 C709 1.356 . S
N707 H712 0.984 . S
N707 H713 0.985 . S
C708 C702 1.379 . S
C708 C705 1.363 . S
C708 N706 1.356 . S
C709 C703 1.363 1_554 S
C709 C704 1.379 . S
C709 N707 1.356 . S
N710 C702 1.356 . S
N710 H716 0.984 . S
N710 H717 0.984 1_455 S
N711 C704 1.356 . S
N711 H714 0.984 1_655 S
N711 H715 0.985 . S
H712 N707 0.984 . S
H713 N707 0.985 . S
H714 N711 0.984 1_455 S
H715 N711 0.985 . S
H716 N710 0.984 . S
H717 N710 0.984 1_655 S
H718 N706 0.984 . S
H719 N706 0.985 . S
C720 C721 1.363 . S
C720 C726 1.379 . S
C720 N728 1.356 . S
C721 C720 1.363 . S
C721 C727 1.363 . S
C722 C723 1.363 . S
C722 C727 1.379 . S
C722 N729 1.356 . S
C723 C722 1.363 . S
C723 C726 1.363 . S
N724 C726 1.356 . S
N724 H736 0.984 . S
N724 H737 0.985 . S
N725 C727 1.356 . S
N725 H730 0.984 . S
N725 H731 0.985 . S
C726 C720 1.379 . S
C726 C723 1.363 . S
C726 N724 1.356 . S
C727 C721 1.363 . S
C727 C722 1.379 . S
C727 N725 1.356 . S
N728 C720 1.356 . S
N728 H734 0.984 . S
N728 H735 0.984 . S
N729 C722 1.356 . S
N729 H732 0.984 . S
N729 H733 0.985 . S
H730 N725 0.984 . S
H731 N725 0.985 . S
H732 N729 0.984 . S
H733 N729 0.985 . S
H734 N728 0.984 . S
H735 N728 0.984 . S
H736 N724 0.984 . S
H737 N724 0.985 . S
C738 C739 1.363 . S
C738 C744 1.379 1_655 S
C738 N746 1.356 . S
C739 C738 1.363 . S
C739 C745 1.363 . S
C740 C741 1.363 . S
C740 C745 1.379 1_455 S
C740 N747 1.356 . S
C741 C740 1.363 . S
C741 C744 1.363 . S
N742 C744 1.356 . S
N742 H754 0.984 . S
N742 H755 0.985 . S
N743 C745 1.356 . S
N743 H748 0.984 . S
N743 H749 0.985 . S
C744 C738 1.379 1_455 S
C744 C741 1.363 . S
C744 N742 1.356 . S
C745 C739 1.363 . S
C745 C740 1.379 1_655 S
C745 N743 1.356 . S
N746 C738 1.356 . S
N746 H752 0.984 . S
N746 H753 0.984 . S
N747 C740 1.356 . S
N747 H750 0.984 . S
N747 H751 0.985 . S
H748 N743 0.984 . S
H749 N743 0.985 . S
H750 N747 0.984 . S
H751 N747 0.985 . S
H752 N746 0.984 . S
H753 N746 0.984 . S
H754 N742 0.984 . S
H755 N742 0.985 . S
C756 C757 1.363 . S
C756 C762 1.379 1_545 S
C756 N764 1.356 . S
C757 C756 1.363 . S
C757 C763 1.363 1_554 S
C758 C759 1.363 . S
C758 C763 1.379 1_565 S
C758 N765 1.356 . S
C759 C758 1.363 . S
C759 C762 1.363 1_556 S
N760 C762 1.356 . S
N760 H772 0.984 . S
N760 H773 0.985 . S
N761 C763 1.356 . S
N761 H766 0.984 . S
N761 H767 0.985 . S
C762 C756 1.379 1_565 S
C762 C759 1.363 1_554 S
C762 N760 1.356 . S
C763 C757 1.363 1_556 S
C763 C758 1.379 1_545 S
C763 N761 1.356 . S
N764 C756 1.356 . S
N764 H770 0.984 . S
N764 H771 0.984 . S
N765 C758 1.356 . S
N765 H768 0.984 . S
N765 H769 0.985 . S
H766 N761 0.984 . S
H767 N761 0.985 . S
H768 N765 0.984 . S
H769 N765 0.985 . S
H770 N764 0.984 . S
H771 N764 0.984 . S
H772 N760 0.984 . S
H773 N760 0.985 . S
C774 C775 1.363 . S
C774 C780 1.379 . S
C774 N782 1.356 . S
C775 C774 1.363 . S
C775 C781 1.363 . S
C776 C777 1.363 . S
C776 C781 1.379 . S
C776 N783 1.356 . S
C777 C776 1.363 . S
C777 C780 1.363 . S
N778 C780 1.356 . S
N778 H790 0.984 . S
N778 H791 0.985 . S
N779 C781 1.356 . S
N779 H784 0.984 . S
N779 H785 0.985 . S
C780 C774 1.379 . S
C780 C777 1.363 . S
C780 N778 1.356 . S
C781 C775 1.363 . S
C781 C776 1.379 . S
C781 N779 1.356 . S
N782 C774 1.356 . S
N782 H788 0.984 . S
N782 H789 0.984 . S
N783 C776 1.356 . S
N783 H786 0.984 . S
N783 H787 0.985 . S
H784 N779 0.984 . S
H785 N779 0.985 . S
H786 N783 0.984 . S
H787 N783 0.985 . S
H788 N782 0.984 . S
H789 N782 0.984 . S
H790 N778 0.984 . S
H791 N778 0.985 . S
C792 C793 1.363 . S
C792 C798 1.379 1_455 S
C792 N800 1.356 . S
C793 C792 1.363 . S
C793 C799 1.363 . S
C794 C795 1.363 . S
C794 C799 1.379 1_655 S
C794 N801 1.356 . S
C795 C794 1.363 . S
C795 C798 1.363 . S
N796 C798 1.356 . S
N796 H808 0.984 . S
N796 H809 0.985 . S
N797 C799 1.356 . S
N797 H802 0.984 . S
N797 H803 0.985 . S
C798 C792 1.379 1_655 S
C798 C795 1.363 . S
C798 N796 1.356 . S
C799 C793 1.363 . S
C799 C794 1.379 1_455 S
C799 N797 1.356 . S
N800 C792 1.356 . S
N800 H806 0.984 . S
N800 H807 0.984 . S
N801 C794 1.356 . S
N801 H804 0.984 . S
N801 H805 0.985 . S
H802 N797 0.984 . S
H803 N797 0.985 . S
H804 N801 0.984 . S
H805 N801 0.985 . S
H806 N800 0.984 . S
H807 N800 0.984 . S
H808 N796 0.984 . S
H809 N796 0.985 . S
C810 C811 1.363 . S
C810 C816 1.379 1_545 S
C810 N818 1.356 . S
C811 C810 1.363 . S
C811 C817 1.363 1_556 S
C812 C813 1.363 . S
C812 C817 1.379 1_565 S
C812 N819 1.356 . S
C813 C812 1.363 . S
C813 C816 1.363 1_554 S
N814 C816 1.356 . S
N814 H826 0.984 . S
N814 H827 0.985 . S
N815 C817 1.356 . S
N815 H820 0.984 . S
N815 H821 0.985 . S
C816 C810 1.379 1_565 S
C816 C813 1.363 1_556 S
C816 N814 1.356 . S
C817 C811 1.363 1_554 S
C817 C812 1.379 1_545 S
C817 N815 1.356 . S
N818 C810 1.356 . S
N818 H824 0.984 . S
N818 H825 0.984 . S
N819 C812 1.356 . S
N819 H822 0.984 . S
N819 H823 0.985 . S
H820 N815 0.984 . S
H821 N815 0.985 . S
H822 N819 0.984 . S
H823 N819 0.985 . S
H824 N818 0.984 . S
H825 N818 0.984 . S
H826 N814 0.984 . S
H827 N814 0.985 . S
C828 C829 1.363 . S
C828 C834 1.379 . S
C828 N836 1.356 . S
C829 C828 1.363 . S
C829 C835 1.363 . S
C830 C831 1.363 . S
C830 C835 1.379 . S
C830 N837 1.356 . S
C831 C830 1.363 . S
C831 C834 1.363 . S
N832 C834 1.356 . S
N832 H844 0.984 . S
N832 H845 0.985 . S
N833 C835 1.356 . S
N833 H838 0.984 . S
N833 H839 0.985 . S
C834 C828 1.379 . S
C834 C831 1.363 . S
C834 N832 1.356 . S
C835 C829 1.363 . S
C835 C830 1.379 . S
C835 N833 1.356 . S
N836 C828 1.356 . S
N836 H842 0.984 . S
N836 H843 0.984 . S
N837 C830 1.356 . S
N837 H840 0.984 . S
N837 H841 0.985 . S
H838 N833 0.984 . S
H839 N833 0.985 . S
H840 N837 0.984 . S
H841 N837 0.985 . S
H842 N836 0.984 . S
H843 N836 0.984 . S
H844 N832 0.984 . S
H845 N832 0.985 . S
C846 C847 1.363 . S
C846 C852 1.379 . S
C846 N854 1.356 . S
C847 C846 1.363 . S
C847 C853 1.363 . S
C848 C849 1.363 . S
C848 C853 1.379 . S
C848 N855 1.356 . S
C849 C848 1.363 . S
C849 C852 1.363 . S
N850 C852 1.356 . S
N850 H862 0.984 . S
N850 H863 0.985 . S
N851 C853 1.356 . S
N851 H856 0.984 . S
N851 H857 0.985 . S
C852 C846 1.379 . S
C852 C849 1.363 . S
C852 N850 1.356 . S
C853 C847 1.363 . S
C853 C848 1.379 . S
C853 N851 1.356 . S
N854 C846 1.356 . S
N854 H860 0.984 . S
N854 H861 0.984 . S
N855 C848 1.356 . S
N855 H858 0.984 . S
N855 H859 0.985 . S
H856 N851 0.984 . S
H857 N851 0.985 . S
H858 N855 0.984 . S
H859 N855 0.985 . S
H860 N854 0.984 . S
H861 N854 0.984 . S
H862 N850 0.984 . S
H863 N850 0.985 . S
C864 C865 1.363 . S
C864 C870 1.379 . S
C864 N872 1.356 . S
C865 C864 1.363 . S
C865 C871 1.363 1_556 S
C866 C867 1.363 . S
C866 C871 1.379 . S
C866 N873 1.356 . S
C867 C866 1.363 . S
C867 C870 1.363 1_554 S
N868 C870 1.356 . S
N868 H880 0.984 . S
N868 H881 0.985 1_556 S
N869 C871 1.356 . S
N869 H874 0.984 1_554 S
N869 H875 0.985 . S
C870 C864 1.379 . S
C870 C867 1.363 1_556 S
C870 N868 1.356 . S
C871 C865 1.363 1_554 S
C871 C866 1.379 . S
C871 N869 1.356 . S
N872 C864 1.356 . S
N872 H878 0.984 . S
N872 H879 0.984 . S
N873 C866 1.356 . S
N873 H876 0.984 . S
N873 H877 0.985 . S
H874 N869 0.984 1_556 S
H875 N869 0.985 . S
H876 N873 0.984 . S
H877 N873 0.985 . S
H878 N872 0.984 . S
H879 N872 0.984 . S
H880 N868 0.984 . S
H881 N868 0.985 1_554 S
C882 C883 1.363 . S
C882 C888 1.379 . S
C882 N890 1.356 . S
C883 C882 1.363 . S
C883 C889 1.363 . S
C884 C885 1.363 . S
C884 C889 1.379 . S
C884 N891 1.356 . S
C885 C884 1.363 . S
C885 C888 1.363 . S
N886 C888 1.356 . S
N886 H898 0.984 . S
N886 H899 0.985 . S
N887 C889 1.356 . S
N887 H892 0.984 . S
N887 H893 0.985 . S
C888 C882 1.379 . S
C888 C885 1.363 . S
C888 N886 1.356 . S
C889 C883 1.363 . S
C889 C884 1.379 . S
C889 N887 1.356 . S
N890 C882 1.356 . S
N890 H896 0.984 . S
N890 H897 0.984 . S
N891 C884 1.356 . S
N891 H894 0.984 . S
N891 H895 0.985 . S
H892 N887 0.984 . S
H893 N887 0.985 . S
H894 N891 0.984 . S
H895 N891 0.985 . S
H896 N890 0.984 . S
H897 N890 0.984 . S
H898 N886 0.984 . S
H899 N886 0.985 . S
C900 C901 1.363 . S
C900 C906 1.379 . S
C900 N908 1.356 . S
C901 C900 1.363 . S
C901 C907 1.363 . S
C902 C903 1.363 . S
C902 C907 1.379 . S
C902 N909 1.356 . S
C903 C902 1.363 . S
C903 C906 1.363 . S
N904 C906 1.356 . S
N904 H916 0.984 . S
N904 H917 0.985 . S
N905 C907 1.356 . S
N905 H910 0.984 . S
N905 H911 0.985 . S
C906 C900 1.379 . S
C906 C903 1.363 . S
C906 N904 1.356 . S
C907 C901 1.363 . S
C907 C902 1.379 . S
C907 N905 1.356 . S
N908 C900 1.356 . S
N908 H914 0.984 . S
N908 H915 0.984 . S
N909 C902 1.356 . S
N909 H912 0.984 . S
N909 H913 0.985 . S
H910 N905 0.984 . S
H911 N905 0.985 . S
H912 N909 0.984 . S
H913 N909 0.985 . S
H914 N908 0.984 . S
H915 N908 0.984 . S
H916 N904 0.984 . S
H917 N904 0.985 . S
C918 C919 1.363 1_554 S
C918 C924 1.379 . S
C918 N926 1.356 . S
C919 C918 1.363 1_556 S
C919 C925 1.363 . S
C920 C921 1.363 1_556 S
C920 C925 1.379 . S
C920 N927 1.356 . S
C921 C920 1.363 1_554 S
C921 C924 1.363 . S
N922 C924 1.356 . S
N922 H934 0.984 . S
N922 H935 0.985 . S
N923 C925 1.356 . S
N923 H928 0.984 . S
N923 H929 0.985 . S
C924 C918 1.379 . S
C924 C921 1.363 . S
C924 N922 1.356 . S
C925 C919 1.363 . S
C925 C920 1.379 . S
C925 N923 1.356 . S
N926 C918 1.356 . S
N926 H932 0.984 . S
N926 H933 0.984 1_554 S
N927 C920 1.356 . S
N927 H930 0.984 1_556 S
N927 H931 0.985 . S
H928 N923 0.984 . S
H929 N923 0.985 . S
H930 N927 0.984 1_554 S
H931 N927 0.985 . S
H932 N926 0.984 . S
H933 N926 0.984 1_556 S
H934 N922 0.984 . S
H935 N922 0.985 . S
C397 C381 1.867 . S
C399 C18 1.865 . S
C415 C216 1.952 . S
C417 C51 1.952 . S
C433 C84 1.867 . S
C435 C249 1.865 . S
C451 C282 1.867 . S
C453 C117 1.865 . S
C469 C315 1.952 . S
C471 C150 1.952 . S
C487 C348 1.867 . S
C489 C183 1.865 . S
C505 C7 0.821 . S
C507 C337 0.821 . S
C523 C40 0.882 . S
C525 C370 0.883 . S
C541 C205 0.882 . S
C543 C73 0.883 . S
C559 C238 0.821 . S
C561 C106 0.821 . S
C577 C271 0.881 . S
C579 C139 0.884 . S
C595 C172 0.881 . S
C597 C304 0.884 . S
C613 N112 1.316 . S
C615 N13 1.316 . S
C631 N46 1.321 . S
C633 N145 1.321 . S
C649 N178 1.319 . S
C651 N79 1.319 . S
C667 N211 1.321 . S
C669 N310 1.321 . S
C685 N244 1.316 . S
C687 N343 1.316 . S
C703 N376 1.318 . S
C705 N277 1.318 . S
C721 N2 1.078 . S
C723 N299 1.077 . S
C739 N35 1.077 . S
C741 N332 1.078 . S
C757 N365 1.081 . S
C759 N68 1.082 . S
C775 N101 1.078 . S
C777 N200 1.077 . S
C793 N134 1.077 . S
C795 N233 1.078 . S
C811 N167 1.081 . S
C813 N266 1.082 . S
C829 C219 1.739 . S
C831 C21 1.738 . S
C847 C252 1.738 . S
C849 C54 1.739 . S
C865 C87 1.753 . S
C867 C285 1.754 . S
C883 C318 1.739 . S
C885 C120 1.738 . S
C901 C153 1.739 . S
C903 C351 1.738 . S
C919 C186 1.753 . S
C921 C384 1.754 . S
