# Generated by pormake.
# Topology sxe, (6)-cn, num edge types: 1
# Building blocks:
#     Node 0, Type 0, BuildingBlock: OJICUG_clean_sbu_0, # of connection points: 6
#     Node 1, Type 0, BuildingBlock: OJICUG_clean_sbu_0, # of connection points: 6
#     Node 2, Type 0, BuildingBlock: OJICUG_clean_sbu_0, # of connection points: 6
#     Node 3, Type 0, BuildingBlock: OJICUG_clean_sbu_0, # of connection points: 6
#     Node 4, Type 0, BuildingBlock: OJICUG_clean_sbu_0, # of connection points: 6
#     Node 5, Type 0, BuildingBlock: OJICUG_clean_sbu_0, # of connection points: 6
#     Node 6, Type 0, BuildingBlock: OJICUG_clean_sbu_0, # of connection points: 6
#     Node 7, Type 0, BuildingBlock: OJICUG_clean_sbu_0, # of connection points: 6
#     Node 8, Type 0, BuildingBlock: OJICUG_clean_sbu_0, # of connection points: 6
#     Node 9, Type 0, BuildingBlock: OJICUG_clean_sbu_0, # of connection points: 6
#     Node 10, Type 0, BuildingBlock: OJICUG_clean_sbu_0, # of connection points: 6
#     Node 11, Type 0, BuildingBlock: OJICUG_clean_sbu_0, # of connection points: 6
#     Node 12, Type 0, BuildingBlock: OJICUG_clean_sbu_0, # of connection points: 6
#     Node 13, Type 0, BuildingBlock: OJICUG_clean_sbu_0, # of connection points: 6
#     Node 14, Type 0, BuildingBlock: OJICUG_clean_sbu_0, # of connection points: 6
#     Node 15, Type 0, BuildingBlock: OJICUG_clean_sbu_0, # of connection points: 6
#     Node 16, Type 0, BuildingBlock: OJICUG_clean_sbu_0, # of connection points: 6
#     Node 17, Type 0, BuildingBlock: OJICUG_clean_sbu_0, # of connection points: 6
#     Node 18, Type 0, BuildingBlock: OJICUG_clean_sbu_0, # of connection points: 6
#     Node 19, Type 0, BuildingBlock: OJICUG_clean_sbu_0, # of connection points: 6
#     Node 20, Type 0, BuildingBlock: OJICUG_clean_sbu_0, # of connection points: 6
#     Node 21, Type 0, BuildingBlock: OJICUG_clean_sbu_0, # of connection points: 6
#     Node 22, Type 0, BuildingBlock: OJICUG_clean_sbu_0, # of connection points: 6
#     Node 23, Type 0, BuildingBlock: OJICUG_clean_sbu_0, # of connection points: 6
#     Edge 24, Type (0, 0), BuildingBlock: XIVTED_clean_linker_0, # of connection points: 2
#     Edge 25, Type (0, 0), BuildingBlock: XIVTED_clean_linker_0, # of connection points: 2
#     Edge 26, Type (0, 0), BuildingBlock: XIVTED_clean_linker_0, # of connection points: 2
#     Edge 27, Type (0, 0), BuildingBlock: XIVTED_clean_linker_0, # of connection points: 2
#     Edge 28, Type (0, 0), BuildingBlock: XIVTED_clean_linker_0, # of connection points: 2
#     Edge 29, Type (0, 0), BuildingBlock: XIVTED_clean_linker_0, # of connection points: 2
#     Edge 30, Type (0, 0), BuildingBlock: XIVTED_clean_linker_0, # of connection points: 2
#     Edge 31, Type (0, 0), BuildingBlock: XIVTED_clean_linker_0, # of connection points: 2
#     Edge 32, Type (0, 0), BuildingBlock: XIVTED_clean_linker_0, # of connection points: 2
#     Edge 33, Type (0, 0), BuildingBlock: XIVTED_clean_linker_0, # of connection points: 2
#     Edge 34, Type (0, 0), BuildingBlock: XIVTED_clean_linker_0, # of connection points: 2
#     Edge 35, Type (0, 0), BuildingBlock: XIVTED_clean_linker_0, # of connection points: 2
#     Edge 36, Type (0, 0), BuildingBlock: XIVTED_clean_linker_0, # of connection points: 2
#     Edge 37, Type (0, 0), BuildingBlock: XIVTED_clean_linker_0, # of connection points: 2
#     Edge 38, Type (0, 0), BuildingBlock: XIVTED_clean_linker_0, # of connection points: 2
#     Edge 39, Type (0, 0), BuildingBlock: XIVTED_clean_linker_0, # of connection points: 2
#     Edge 40, Type (0, 0), BuildingBlock: XIVTED_clean_linker_0, # of connection points: 2
#     Edge 41, Type (0, 0), BuildingBlock: XIVTED_clean_linker_0, # of connection points: 2
#     Edge 42, Type (0, 0), BuildingBlock: XIVTED_clean_linker_0, # of connection points: 2
#     Edge 43, Type (0, 0), BuildingBlock: XIVTED_clean_linker_0, # of connection points: 2
#     Edge 44, Type (0, 0), BuildingBlock: XIVTED_clean_linker_0, # of connection points: 2
#     Edge 45, Type (0, 0), BuildingBlock: XIVTED_clean_linker_0, # of connection points: 2
#     Edge 46, Type (0, 0), BuildingBlock: XIVTED_clean_linker_0, # of connection points: 2
#     Edge 47, Type (0, 0), BuildingBlock: XIVTED_clean_linker_0, # of connection points: 2
#     Edge 48, Type (0, 0), BuildingBlock: XIVTED_clean_linker_0, # of connection points: 2
#     Edge 49, Type (0, 0), BuildingBlock: XIVTED_clean_linker_0, # of connection points: 2
#     Edge 50, Type (0, 0), BuildingBlock: XIVTED_clean_linker_0, # of connection points: 2
#     Edge 51, Type (0, 0), BuildingBlock: XIVTED_clean_linker_0, # of connection points: 2
#     Edge 52, Type (0, 0), BuildingBlock: XIVTED_clean_linker_0, # of connection points: 2
#     Edge 53, Type (0, 0), BuildingBlock: XIVTED_clean_linker_0, # of connection points: 2
#     Edge 54, Type (0, 0), BuildingBlock: XIVTED_clean_linker_0, # of connection points: 2
#     Edge 55, Type (0, 0), BuildingBlock: XIVTED_clean_linker_0, # of connection points: 2
#     Edge 56, Type (0, 0), BuildingBlock: XIVTED_clean_linker_0, # of connection points: 2
#     Edge 57, Type (0, 0), BuildingBlock: XIVTED_clean_linker_0, # of connection points: 2
#     Edge 58, Type (0, 0), BuildingBlock: XIVTED_clean_linker_0, # of connection points: 2
#     Edge 59, Type (0, 0), BuildingBlock: XIVTED_clean_linker_0, # of connection points: 2
#     Edge 60, Type (0, 0), BuildingBlock: XIVTED_clean_linker_0, # of connection points: 2
#     Edge 61, Type (0, 0), BuildingBlock: XIVTED_clean_linker_0, # of connection points: 2
#     Edge 62, Type (0, 0), BuildingBlock: XIVTED_clean_linker_0, # of connection points: 2
#     Edge 63, Type (0, 0), BuildingBlock: XIVTED_clean_linker_0, # of connection points: 2
#     Edge 64, Type (0, 0), BuildingBlock: XIVTED_clean_linker_0, # of connection points: 2
#     Edge 65, Type (0, 0), BuildingBlock: XIVTED_clean_linker_0, # of connection points: 2
#     Edge 66, Type (0, 0), BuildingBlock: XIVTED_clean_linker_0, # of connection points: 2
#     Edge 67, Type (0, 0), BuildingBlock: XIVTED_clean_linker_0, # of connection points: 2
#     Edge 68, Type (0, 0), BuildingBlock: XIVTED_clean_linker_0, # of connection points: 2
#     Edge 69, Type (0, 0), BuildingBlock: XIVTED_clean_linker_0, # of connection points: 2
#     Edge 70, Type (0, 0), BuildingBlock: XIVTED_clean_linker_0, # of connection points: 2
#     Edge 71, Type (0, 0), BuildingBlock: XIVTED_clean_linker_0, # of connection points: 2
#     Edge 72, Type (0, 0), BuildingBlock: XIVTED_clean_linker_0, # of connection points: 2
#     Edge 73, Type (0, 0), BuildingBlock: XIVTED_clean_linker_0, # of connection points: 2
#     Edge 74, Type (0, 0), BuildingBlock: XIVTED_clean_linker_0, # of connection points: 2
#     Edge 75, Type (0, 0), BuildingBlock: XIVTED_clean_linker_0, # of connection points: 2
#     Edge 76, Type (0, 0), BuildingBlock: XIVTED_clean_linker_0, # of connection points: 2
#     Edge 77, Type (0, 0), BuildingBlock: XIVTED_clean_linker_0, # of connection points: 2
#     Edge 78, Type (0, 0), BuildingBlock: XIVTED_clean_linker_0, # of connection points: 2
#     Edge 79, Type (0, 0), BuildingBlock: XIVTED_clean_linker_0, # of connection points: 2
#     Edge 80, Type (0, 0), BuildingBlock: XIVTED_clean_linker_0, # of connection points: 2
#     Edge 81, Type (0, 0), BuildingBlock: XIVTED_clean_linker_0, # of connection points: 2
#     Edge 82, Type (0, 0), BuildingBlock: XIVTED_clean_linker_0, # of connection points: 2
#     Edge 83, Type (0, 0), BuildingBlock: XIVTED_clean_linker_0, # of connection points: 2
#     Edge 84, Type (0, 0), BuildingBlock: XIVTED_clean_linker_0, # of connection points: 2
#     Edge 85, Type (0, 0), BuildingBlock: XIVTED_clean_linker_0, # of connection points: 2
#     Edge 86, Type (0, 0), BuildingBlock: XIVTED_clean_linker_0, # of connection points: 2
#     Edge 87, Type (0, 0), BuildingBlock: XIVTED_clean_linker_0, # of connection points: 2
#     Edge 88, Type (0, 0), BuildingBlock: XIVTED_clean_linker_0, # of connection points: 2
#     Edge 89, Type (0, 0), BuildingBlock: XIVTED_clean_linker_0, # of connection points: 2
#     Edge 90, Type (0, 0), BuildingBlock: XIVTED_clean_linker_0, # of connection points: 2
#     Edge 91, Type (0, 0), BuildingBlock: XIVTED_clean_linker_0, # of connection points: 2
#     Edge 92, Type (0, 0), BuildingBlock: XIVTED_clean_linker_0, # of connection points: 2
#     Edge 93, Type (0, 0), BuildingBlock: XIVTED_clean_linker_0, # of connection points: 2
#     Edge 94, Type (0, 0), BuildingBlock: XIVTED_clean_linker_0, # of connection points: 2
#     Edge 95, Type (0, 0), BuildingBlock: XIVTED_clean_linker_0, # of connection points: 2
# Relax obj value: 0.419
# Max RMSD: 0.272
# Mean RMSD: 0.272
data_MOF--net-sxe--node1-OJICUG_clean_sbu_0--edge1-XIVTED_clean_linker_0
_symmetry_space_group_name_H-M    P1
_symmetry_Int_Tables_number       1
_symmetry_cell_setting            triclinic
loop_
_symmetry_equiv_pos_as_xyz
'x, y, z'
_cell_length_a     48.282163
_cell_length_b     48.259641
_cell_length_c     48.24083
_cell_angle_alpha  89.984866
_cell_angle_beta   89.984013
_cell_angle_gamma 89.971716
loop_
_atom_site_label
_atom_site_type_symbol
_atom_site_fract_x
_atom_site_fract_y
_atom_site_fract_z
_atom_type_partial_charge
Sc0 Sc 0.14262 0.3879 0.21036 0.0
Sc1 Sc 0.18209 0.44844 0.21743 0.0
Sc2 Sc 0.12921 0.43303 0.2656 0.0
O3 O 0.15135 0.42312 0.23115 0.0
C4 C 0.08205 0.40393 0.2295 0.0
C5 C 0.15484 0.42828 0.16047 0.0
C6 C 0.13114 0.48874 0.23071 0.0
C7 C 0.20901 0.38999 0.20715 0.0
C8 C 0.14304 0.36944 0.27408 0.0
C9 C 0.18908 0.45528 0.28247 0.0
O10 O 0.09858 0.39249 0.21265 0.0
O11 O 0.1708 0.44374 0.17457 0.0
O12 O 0.11919 0.47286 0.24811 0.0
O13 O 0.18559 0.37824 0.20484 0.0
O14 O 0.13828 0.39339 0.28412 0.0
O15 O 0.19861 0.45597 0.25802 0.0
O16 O 0.14381 0.36451 0.24816 0.0
O17 O 0.21172 0.41545 0.21327 0.0
O18 O 0.16426 0.4487 0.28778 0.0
O19 O 0.14133 0.40831 0.17101 0.0
O20 O 0.09038 0.41837 0.24978 0.0
O21 O 0.15442 0.48317 0.21957 0.0
Sc22 Sc 0.34606 0.59751 0.70227 0.0
Sc23 Sc 0.30493 0.53818 0.70916 0.0
Sc24 Sc 0.35807 0.55173 0.7575 0.0
O25 O 0.33629 0.56252 0.72306 0.0
C26 C 0.40612 0.57862 0.72085 0.0
C27 C 0.3318 0.55853 0.65208 0.0
C28 C 0.35458 0.49641 0.72198 0.0
C29 C 0.27955 0.59729 0.69952 0.0
C30 C 0.34723 0.61603 0.76593 0.0
C31 C 0.29769 0.53118 0.77435 0.0
O32 O 0.38993 0.59136 0.70459 0.0
O33 O 0.3154 0.54367 0.66627 0.0
O34 O 0.36614 0.51127 0.74048 0.0
O35 O 0.30327 0.60836 0.69668 0.0
O36 O 0.35136 0.59191 0.77586 0.0
O37 O 0.28869 0.52995 0.74972 0.0
O38 O 0.34578 0.62097 0.74005 0.0
O39 O 0.27621 0.57203 0.70621 0.0
O40 O 0.32235 0.53804 0.78002 0.0
O41 O 0.34677 0.57731 0.66278 0.0
O42 O 0.3974 0.56418 0.74099 0.0
O43 O 0.33204 0.50304 0.70999 0.0
Sc44 Sc 0.63866 0.09676 0.77913 0.0
Sc45 Sc 0.67885 0.037 0.76957 0.0
Sc46 Sc 0.62422 0.05231 0.72346 0.0
O47 O 0.64732 0.06205 0.75736 0.0
C48 C 0.57795 0.07837 0.76311 0.0
C49 C 0.65463 0.05622 0.82807 0.0
C50 C 0.62842 -0.00402 0.75719 0.0
C51 C 0.70506 0.09603 0.77909 0.0
C52 C 0.63483 0.11661 0.71588 0.0
C53 C 0.68389 0.03176 0.70406 0.0
O54 O 0.59485 0.09008 0.7794 0.0
O55 O 0.66946 0.0407 0.81288 0.0
O56 O 0.61603 0.01169 0.73997 0.0
O57 O 0.6816 0.10762 0.78208 0.0
O58 O 0.63106 0.09264 0.70552 0.0
O59 O 0.69386 0.03039 0.7283 0.0
O60 O 0.6365 0.12101 0.74184 0.0
O61 O 0.70788 0.07052 0.77313 0.0
O62 O 0.65892 0.03835 0.69942 0.0
O63 O 0.64059 0.07629 0.81848 0.0
O64 O 0.58576 0.06518 0.74175 0.0
O65 O 0.65167 0.00192 0.76814 0.0
Sc66 Sc 0.85328 0.93244 0.22112 0.0
Sc67 Sc 0.8002 0.9444 0.26978 0.0
Sc68 Sc 0.84289 0.8859 0.2759 0.0
O69 O 0.83206 0.92086 0.2556 0.0
C70 C 0.8431 0.86847 0.21186 0.0
C71 C 0.79211 0.95172 0.2051 0.0
C72 C 0.77656 0.88437 0.27979 0.0
C73 C 0.84893 0.98727 0.25684 0.0
C74 C 0.90226 0.90507 0.25629 0.0
C75 C 0.82893 0.92531 0.32629 0.0
O76 O 0.84564 0.89286 0.20205 0.0
O77 O 0.78258 0.95082 0.22952 0.0
O78 O 0.8005 0.87351 0.28127 0.0
O79 O 0.86189 0.97214 0.2395 0.0
O80 O 0.88659 0.89327 0.27372 0.0
O81 O 0.81255 0.94045 0.31233 0.0
O82 O 0.89287 0.91885 0.23601 0.0
O83 O 0.82564 0.98067 0.26732 0.0
O84 O 0.84281 0.90565 0.31562 0.0
O85 O 0.81738 0.94728 0.19964 0.0
O86 O 0.84334 0.8631 0.23771 0.0
O87 O 0.77268 0.90985 0.27443 0.0
Sc88 Sc 0.26562 0.12873 0.43229 0.0
Sc89 Sc 0.22107 0.18484 0.44711 0.0
Sc90 Sc 0.21206 0.14576 0.38647 0.0
O91 O 0.23291 0.15317 0.42194 0.0
C92 C 0.27582 0.14098 0.3687 0.0
C93 C 0.28627 0.18764 0.45399 0.0
C94 C 0.21311 0.21213 0.38817 0.0
C95 C 0.23089 0.13335 0.48784 0.0
C96 C 0.22643 0.08415 0.40287 0.0
C97 C 0.16274 0.16143 0.42691 0.0
O98 O 0.28538 0.13665 0.39294 0.0
O99 O 0.26263 0.19904 0.45365 0.0
O100 O 0.21053 0.18888 0.3761 0.0
O101 O 0.24688 0.11972 0.47183 0.0
O102 O 0.21042 0.10179 0.39188 0.0
O103 O 0.17768 0.17572 0.44318 0.0
O104 O 0.24747 0.0911 0.41696 0.0
O105 O 0.22208 0.1576 0.48229 0.0
O106 O 0.17247 0.14834 0.40625 0.0
O107 O 0.2898 0.1622 0.44858 0.0
O108 O 0.25005 0.14305 0.3635 0.0
O109 O 0.2179 0.21446 0.41395 0.0
Sc110 Sc 0.28153 0.8415 0.88496 0.0
Sc111 Sc 0.27313 0.79839 0.9427 0.0
Sc112 Sc 0.22515 0.85188 0.92957 0.0
O113 O 0.25982 0.83055 0.91902 0.0
C114 C 0.26091 0.90105 0.90387 0.0
C115 C 0.33023 0.82737 0.92528 0.0
C116 C 0.25946 0.84682 0.98552 0.0
C117 C 0.28543 0.77492 0.88357 0.0
C118 C 0.21858 0.84158 0.8649 0.0
C119 C 0.20804 0.79083 0.94805 0.0
O120 O 0.2774 0.88532 0.89086 0.0
O121 O 0.31595 0.80953 0.93833 0.0
O122 O 0.24136 0.85893 0.97058 0.0
O123 O 0.28916 0.79906 0.87368 0.0
O124 O 0.20809 0.84597 0.88875 0.0
O125 O 0.23257 0.78172 0.94984 0.0
O126 O 0.24454 0.84008 0.86046 0.0
O127 O 0.27686 0.77069 0.90811 0.0
O128 O 0.2026 0.81565 0.94159 0.0
O129 O 0.31988 0.84334 0.90709 0.0
O130 O 0.24129 0.89172 0.91857 0.0
O131 O 0.27138 0.82434 0.97856 0.0
Sc132 Sc 0.75727 0.35531 0.55564 0.0
Sc133 Sc 0.7096 0.30184 0.54134 0.0
Sc134 Sc 0.70169 0.34259 0.60071 0.0
O135 O 0.72297 0.33321 0.56594 0.0
C136 C 0.76498 0.34241 0.61979 0.0
C137 C 0.77473 0.29519 0.53456 0.0
C138 C 0.69815 0.27597 0.59967 0.0
C139 C 0.72223 0.35203 0.50003 0.0
C140 C 0.72139 0.40304 0.58386 0.0
C141 C 0.65247 0.3295 0.56071 0.0
O142 O 0.77511 0.34779 0.59597 0.0
O143 O 0.75028 0.2858 0.53331 0.0
O144 O 0.69453 0.29971 0.6105 0.0
O145 O 0.74034 0.36387 0.51516 0.0
O146 O 0.70524 0.38662 0.59642 0.0
O147 O 0.66672 0.31238 0.54668 0.0
O148 O 0.74096 0.39454 0.56859 0.0
O149 O 0.71068 0.32918 0.50639 0.0
O150 O 0.66298 0.34492 0.57926 0.0
O151 O 0.77999 0.31992 0.54149 0.0
O152 O 0.73908 0.34058 0.6245 0.0
O153 O 0.70643 0.27272 0.57488 0.0
Sc154 Sc 0.71944 0.62979 0.05257 0.0
Sc155 Sc 0.76437 0.68554 0.03775 0.0
Sc156 Sc 0.7746 0.64501 0.09722 0.0
O157 O 0.75278 0.6535 0.06255 0.0
C158 C 0.71136 0.64094 0.11681 0.0
C159 C 0.69898 0.6894 0.03265 0.0
C160 C 0.77451 0.7115 0.09668 0.0
C161 C 0.75304 0.63513 -0.00373 0.0
C162 C 0.75875 0.58392 0.07963 0.0
C163 C 0.82299 0.66086 0.05608 0.0
O164 O 0.70116 0.63657 0.09284 0.0
O165 O 0.72288 0.70017 0.03184 0.0
O166 O 0.77791 0.68797 0.10799 0.0
O167 O 0.7367 0.62178 0.01214 0.0
O168 O 0.77478 0.60106 0.09133 0.0
O169 O 0.8078 0.67625 0.04108 0.0
O170 O 0.73777 0.59149 0.06578 0.0
O171 O 0.76283 0.65888 0.00225 0.0
O172 O 0.81359 0.64662 0.07614 0.0
O173 O 0.69507 0.66409 0.03836 0.0
O174 O 0.73726 0.64317 0.12133 0.0
O175 O 0.76794 0.71443 0.07136 0.0
Sc176 Sc 0.38641 0.20949 0.14205 0.0
Sc177 Sc 0.44713 0.21807 0.1809 0.0
Sc178 Sc 0.4302 0.26554 0.12776 0.0
O179 O 0.42122 0.23108 0.1503 0.0
C180 C 0.40117 0.22867 0.0811 0.0
C181 C 0.42805 0.16062 0.1541 0.0
C182 C 0.48666 0.23195 0.12941 0.0
C183 C 0.38927 0.20639 0.20853 0.0
C184 C 0.36652 0.27274 0.14191 0.0
C185 C 0.45264 0.2833 0.18737 0.0
O186 O 0.39025 0.21175 0.09792 0.0
O187 O 0.4433 0.1751 0.1699 0.0
O188 O 0.47032 0.24894 0.11753 0.0
O189 O 0.3774 0.20383 0.18517 0.0
O190 O 0.39021 0.28322 0.13686 0.0
O191 O 0.45387 0.25893 0.19706 0.0
O192 O 0.36217 0.24675 0.14325 0.0
O193 O 0.41457 0.21321 0.21103 0.0
O194 O 0.4457 0.28832 0.16256 0.0
O195 O 0.40779 0.17068 0.14065 0.0
O196 O 0.41553 0.24913 0.08911 0.0
O197 O 0.48154 0.2208 0.1528 0.0
Sc198 Sc 0.92967 0.21603 0.85387 0.0
Sc199 Sc 0.94178 0.26233 0.79872 0.0
Sc200 Sc 0.88425 0.27149 0.84218 0.0
O201 O 0.91852 0.24995 0.83153 0.0
C202 C 0.86533 0.20797 0.84519 0.0
C203 C 0.94718 0.19722 0.79292 0.0
C204 C 0.88161 0.27298 0.77578 0.0
C205 C 0.98527 0.25006 0.84707 0.0
C206 C 0.90448 0.25396 0.90194 0.0
C207 C 0.9245 0.32037 0.82548 0.0
O208 O 0.88951 0.19774 0.84789 0.0
O209 O 0.94687 0.22132 0.78257 0.0
O210 O 0.87122 0.27553 0.79985 0.0
O211 O 0.96998 0.23357 0.86089 0.0
O212 O 0.89249 0.27083 0.8858 0.0
O213 O 0.9391 0.30536 0.80954 0.0
O214 O 0.91758 0.23297 0.89314 0.0
O215 O 0.97848 0.25991 0.82355 0.0
O216 O 0.90484 0.31076 0.84011 0.0
O217 O 0.94302 0.19274 0.81846 0.0
O218 O 0.86055 0.23392 0.84445 0.0
O219 O 0.90686 0.26688 0.77163 0.0
Sc220 Sc 0.55417 0.76084 0.35811 0.0
Sc221 Sc 0.53769 0.71365 0.30464 0.0
Sc222 Sc 0.59812 0.7048 0.34362 0.0
O223 O 0.56336 0.72653 0.3354 0.0
C224 C 0.61809 0.76789 0.3442 0.0
C225 C 0.53164 0.77903 0.29871 0.0
C226 C 0.5954 0.70232 0.27703 0.0
C227 C 0.49792 0.72684 0.35603 0.0
C228 C 0.58282 0.72359 0.40468 0.0
C229 C 0.55711 0.65599 0.33099 0.0
O230 O 0.59447 0.77831 0.34982 0.0
O231 O 0.52996 0.75463 0.28918 0.0
O232 O 0.60695 0.6988 0.30044 0.0
O233 O 0.5137 0.74456 0.36759 0.0
O234 O 0.5945 0.70731 0.38775 0.0
O235 O 0.54243 0.67054 0.3147 0.0
O236 O 0.568 0.7438 0.39682 0.0
O237 O 0.5035 0.71519 0.333 0.0
O238 O 0.57661 0.66611 0.34545 0.0
O239 O 0.5393 0.78408 0.3233 0.0
O240 O 0.62238 0.74194 0.34212 0.0
O241 O 0.57035 0.71005 0.27449 0.0
Sc242 Sc 0.09777 0.77414 0.64326 0.0
Sc243 Sc 0.04031 0.76362 0.68641 0.0
Sc244 Sc 0.05317 0.71828 0.63053 0.0
O245 O 0.06379 0.75198 0.65347 0.0
C246 C 0.07742 0.7577 0.58319 0.0
C247 C 0.0571 0.8223 0.66082 0.0
C248 C -0.00291 0.75169 0.63778 0.0
C249 C 0.1002 0.77421 0.70969 0.0
C250 C 0.11778 0.71103 0.63886 0.0
C251 C 0.03579 0.6982 0.69105 0.0
O252 O 0.08964 0.77406 0.59965 0.0
O253 O 0.04296 0.80702 0.6769 0.0
O254 O 0.01241 0.73506 0.62415 0.0
O255 O 0.11048 0.77773 0.6857 0.0
O256 O 0.09377 0.70058 0.6357 0.0
O257 O 0.03518 0.72223 0.70155 0.0
O258 O 0.12216 0.737 0.64053 0.0
O259 O 0.07511 0.76741 0.71371 0.0
O260 O 0.04063 0.69403 0.66559 0.0
O261 O 0.0765 0.813 0.64565 0.0
O262 O 0.06446 0.73645 0.59154 0.0
O263 O 0.00386 0.76183 0.66117 0.0
Sc264 Sc 0.85747 0.55203 0.72236 0.0
Sc265 Sc 0.80479 0.53742 0.77094 0.0
Sc266 Sc 0.8459 0.5967 0.77854 0.0
O267 O 0.836 0.56207 0.75722 0.0
C268 C 0.9058 0.57804 0.75921 0.0
C269 C 0.85423 0.49586 0.75669 0.0
C270 C 0.83185 0.55696 0.82823 0.0
C271 C 0.79704 0.53161 0.70568 0.0
C272 C 0.84644 0.61648 0.71521 0.0
C273 C 0.77944 0.59633 0.78161 0.0
O274 O 0.89693 0.56403 0.73886 0.0
O275 O 0.83189 0.50225 0.7692 0.0
O276 O 0.84688 0.57581 0.81771 0.0
O277 O 0.82158 0.53878 0.69987 0.0
O278 O 0.84524 0.62091 0.7412 0.0
O279 O 0.77608 0.57118 0.77456 0.0
O280 O 0.8506 0.59257 0.70482 0.0
O281 O 0.78832 0.5298 0.73037 0.0
O282 O 0.80316 0.60737 0.78457 0.0
O283 O 0.86561 0.51123 0.73849 0.0
O284 O 0.88974 0.59058 0.77577 0.0
O285 O 0.81538 0.54231 0.81391 0.0
Sc286 Sc 0.64438 0.38754 0.27516 0.0
Sc287 Sc 0.68529 0.4471 0.26782 0.0
Sc288 Sc 0.63194 0.43282 0.21985 0.0
O289 O 0.65396 0.42245 0.25424 0.0
C290 C 0.64325 0.36894 0.21146 0.0
C291 C 0.7108 0.38783 0.27766 0.0
C292 C 0.69224 0.45369 0.20274 0.0
C293 C 0.65833 0.42761 0.32501 0.0
C294 C 0.58424 0.40526 0.25663 0.0
C295 C 0.63497 0.48822 0.25493 0.0
O296 O 0.64375 0.36407 0.23739 0.0
O297 O 0.71407 0.41336 0.27208 0.0
O298 O 0.66722 0.44785 0.19752 0.0
O299 O 0.64461 0.40773 0.31463 0.0
O300 O 0.59288 0.41886 0.23587 0.0
O301 O 0.6583 0.4824 0.2658 0.0
O302 O 0.60053 0.39392 0.27378 0.0
O303 O 0.67418 0.44299 0.31074 0.0
O304 O 0.62278 0.47268 0.23744 0.0
O305 O 0.68714 0.37649 0.2797 0.0
O306 O 0.63996 0.39307 0.20129 0.0
O307 O 0.70187 0.45401 0.22715 0.0
Sc308 Sc 0.34266 0.88807 0.20581 0.0
Sc309 Sc 0.30176 0.94774 0.2114 0.0
Sc310 Sc 0.3546 0.93459 0.26022 0.0
O311 O 0.33295 0.92343 0.22587 0.0
C312 C 0.34167 0.87103 0.26988 0.0
C313 C 0.27621 0.88873 0.20141 0.0
C314 C 0.29413 0.95614 0.27613 0.0
C315 C 0.33025 0.92721 0.15517 0.0
C316 C 0.40274 0.90501 0.2258 0.0
C317 C 0.35203 0.98909 0.22366 0.0
O318 O 0.34113 0.86552 0.24406 0.0
O319 O 0.27282 0.91409 0.20766 0.0
O320 O 0.3191 0.95034 0.28167 0.0
O321 O 0.34444 0.90799 0.16624 0.0
O322 O 0.39393 0.92003 0.24545 0.0
O323 O 0.32878 0.98294 0.21282 0.0
O324 O 0.3866 0.89311 0.20892 0.0
O325 O 0.31355 0.94228 0.16883 0.0
O326 O 0.36416 0.97404 0.24166 0.0
O327 O 0.29995 0.87755 0.19939 0.0
O328 O 0.34597 0.89525 0.27949 0.0
O329 O 0.28467 0.95584 0.25165 0.0
Sc330 Sc 0.14022 0.09661 0.70825 0.0
Sc331 Sc 0.18036 0.03692 0.71667 0.0
Sc332 Sc 0.12687 0.05214 0.7642 0.0
O333 O 0.1492 0.06193 0.72983 0.0
C334 C 0.13872 0.11653 0.77147 0.0
C335 C 0.2068 0.09514 0.70699 0.0
C336 C 0.18642 0.03049 0.78212 0.0
C337 C 0.15493 0.05726 0.65883 0.0
C338 C 0.07965 0.0788 0.72641 0.0
C339 C 0.12988 -0.00374 0.72912 0.0
O340 O 0.14093 0.12081 0.74553 0.0
O341 O 0.20971 0.07018 0.71487 0.0
O342 O 0.16222 0.03897 0.78755 0.0
O343 O 0.13911 0.07552 0.66922 0.0
O344 O 0.08788 0.06427 0.74669 0.0
O345 O 0.15227 0.00266 0.71672 0.0
O346 O 0.09623 0.09151 0.71052 0.0
O347 O 0.17154 0.04297 0.67338 0.0
O348 O 0.11885 0.01119 0.74795 0.0
O349 O 0.18329 0.10624 0.70272 0.0
O350 O 0.13355 0.09278 0.78182 0.0
O351 O 0.19528 0.02778 0.75756 0.0
Sc352 Sc 0.72368 0.85469 0.55425 0.0
Sc353 Sc 0.77231 0.80177 0.541 0.0
Sc354 Sc 0.7788 0.84331 0.60017 0.0
O355 O 0.7582 0.83319 0.56519 0.0
C356 C 0.75892 0.90321 0.58205 0.0
C357 C 0.75936 0.85141 0.49912 0.0
C358 C 0.82891 0.83 0.56079 0.0
C359 C 0.70743 0.79407 0.53365 0.0
C360 C 0.7151 0.84303 0.61831 0.0
C361 C 0.78275 0.77676 0.6002 0.0
O362 O 0.7391 0.89416 0.56745 0.0
O363 O 0.77083 0.82853 0.50557 0.0
O364 O 0.81811 0.84473 0.57975 0.0
O365 O 0.70182 0.81894 0.53981 0.0
O366 O 0.74097 0.84223 0.62342 0.0
O367 O 0.77599 0.77321 0.57499 0.0
O368 O 0.70518 0.8471 0.59417 0.0
O369 O 0.73197 0.78484 0.53318 0.0
O370 O 0.78525 0.80061 0.61111 0.0
O371 O 0.74124 0.86336 0.51416 0.0
O372 O 0.77568 0.88724 0.59441 0.0
O373 O 0.81495 0.8132 0.54614 0.0
Sc374 Sc 0.76379 0.12776 0.05579 0.0
Sc375 Sc 0.71794 0.18198 0.03829 0.0
Sc376 Sc 0.70764 0.14345 0.09909 0.0
O377 O 0.7298 0.15112 0.0644 0.0
C378 C 0.72429 0.0822 0.08328 0.0
C379 C 0.73093 0.13024 -0.0011 0.0
C380 C 0.65929 0.15806 0.05736 0.0
C381 C 0.7834 0.18681 0.03366 0.0
C382 C 0.77063 0.14066 0.11973 0.0
C383 C 0.70756 0.20985 0.09643 0.0
O384 O 0.74566 0.0897 0.06996 0.0
O385 O 0.72013 0.15382 0.00388 0.0
O386 O 0.66864 0.1446 0.07796 0.0
O387 O 0.78786 0.16192 0.0407 0.0
O388 O 0.74463 0.14228 0.1238 0.0
O389 O 0.71378 0.21204 0.07092 0.0
O390 O 0.78129 0.13613 0.09601 0.0
O391 O 0.75925 0.19692 0.03203 0.0
O392 O 0.70445 0.18668 0.10854 0.0
O393 O 0.74758 0.11813 0.01541 0.0
O394 O 0.70766 0.09938 0.09409 0.0
O395 O 0.67462 0.17254 0.04164 0.0
Sc396 Sc 0.27182 0.64868 0.38578 0.0
Sc397 Sc 0.26232 0.68967 0.44504 0.0
Sc398 Sc 0.21667 0.63437 0.43066 0.0
O399 O 0.25024 0.65765 0.42046 0.0
C400 C 0.20844 0.64527 0.36656 0.0
C401 C 0.27187 0.71515 0.38577 0.0
C402 C 0.19703 0.6942 0.45073 0.0
C403 C 0.32059 0.66443 0.42649 0.0
C404 C 0.25544 0.58794 0.40367 0.0
C405 C 0.25093 0.63928 0.48651 0.0
O406 O 0.23436 0.64674 0.36193 0.0
O407 O 0.26592 0.71833 0.41122 0.0
O408 O 0.19284 0.66891 0.44517 0.0
O409 O 0.31095 0.65032 0.40649 0.0
O410 O 0.23433 0.59584 0.41715 0.0
O411 O 0.26076 0.66304 0.48057 0.0
O412 O 0.27194 0.60482 0.39225 0.0
O413 O 0.30566 0.67999 0.44156 0.0
O414 O 0.23426 0.62613 0.47082 0.0
O415 O 0.27496 0.69152 0.37457 0.0
O416 O 0.19821 0.6415 0.39061 0.0
O417 O 0.22102 0.70476 0.45122 0.0
Sc418 Sc 0.25683 0.35874 0.93004 0.0
Sc419 Sc 0.20891 0.30542 0.94437 0.0
Sc420 Sc 0.20267 0.34487 0.88371 0.0
O421 O 0.22286 0.33629 0.91934 0.0
C422 C 0.22116 0.40567 0.89998 0.0
C423 C 0.22073 0.35651 0.98494 0.0
C424 C 0.15218 0.33209 0.92293 0.0
C425 C 0.27384 0.29901 0.95269 0.0
C426 C 0.26662 0.3453 0.8665 0.0
C427 C 0.19979 0.27831 0.88579 0.0
O428 O 0.2409 0.39751 0.91523 0.0
O429 O 0.20969 0.33328 0.97903 0.0
O430 O 0.16298 0.34609 0.90343 0.0
O431 O 0.27909 0.32382 0.94597 0.0
O432 O 0.24086 0.34386 0.86106 0.0
O433 O 0.20587 0.27563 0.91129 0.0
O434 O 0.2761 0.35021 0.89065 0.0
O435 O 0.24946 0.28934 0.953 0.0
O436 O 0.19735 0.30177 0.87405 0.0
O437 O 0.23868 0.36838 0.96965 0.0
O438 O 0.20483 0.38899 0.88803 0.0
O439 O 0.16619 0.31618 0.93852 0.0
Sc440 Sc 0.59797 0.77255 0.84171 0.0
Sc441 Sc 0.53992 0.76329 0.79914 0.0
Sc442 Sc 0.55362 0.71628 0.85349 0.0
O443 O 0.56389 0.75065 0.83137 0.0
C444 C 0.61815 0.70944 0.84433 0.0
C445 C 0.59945 0.77426 0.7752 0.0
C446 C 0.53533 0.69793 0.79274 0.0
C447 C 0.55737 0.82124 0.82597 0.0
C448 C 0.57821 0.75446 0.90159 0.0
C449 C 0.4975 0.75003 0.84811 0.0
O450 O 0.62245 0.73543 0.84299 0.0
O451 O 0.57435 0.7674 0.77132 0.0
O452 O 0.54114 0.69294 0.81784 0.0
O453 O 0.57669 0.81144 0.84089 0.0
O454 O 0.56499 0.73354 0.89284 0.0
O455 O 0.50401 0.76128 0.82514 0.0
O456 O 0.59049 0.77109 0.88542 0.0
O457 O 0.54317 0.80644 0.80952 0.0
O458 O 0.51281 0.73256 0.86062 0.0
O459 O 0.60996 0.77737 0.79916 0.0
O460 O 0.59423 0.69888 0.8477 0.0
O461 O 0.53398 0.72231 0.78312 0.0
Sc462 Sc 0.05431 0.76405 0.12242 0.0
Sc463 Sc 0.03853 0.71772 0.17678 0.0
Sc464 Sc 0.09927 0.70903 0.13793 0.0
O465 O 0.06405 0.73029 0.14575 0.0
C466 C 0.08285 0.72554 0.07666 0.0
C467 C -0.0015 0.72945 0.12528 0.0
C468 C 0.059 0.6596 0.15252 0.0
C469 C 0.03197 0.78307 0.18162 0.0
C470 C 0.11809 0.77261 0.13528 0.0
C471 C 0.09688 0.70858 0.20444 0.0
O472 O 0.06867 0.74632 0.08422 0.0
O473 O 0.0041 0.71871 0.14874 0.0
O474 O 0.07912 0.66947 0.13871 0.0
O475 O 0.03894 0.78774 0.15674 0.0
O476 O 0.12286 0.74673 0.13714 0.0
O477 O 0.07134 0.71459 0.20674 0.0
O478 O 0.09414 0.7826 0.13048 0.0
O479 O 0.03094 0.75886 0.19169 0.0
O480 O 0.10888 0.70558 0.18118 0.0
O481 O 0.0142 0.74681 0.11309 0.0
O482 O 0.09435 0.70933 0.09381 0.0
O483 O 0.04321 0.67454 0.16732 0.0
Sc484 Sc 0.43168 0.21544 0.63564 0.0
Sc485 Sc 0.44517 0.2632 0.68938 0.0
Sc486 Sc 0.3877 0.27225 0.64588 0.0
O487 O 0.42147 0.25025 0.65705 0.0
C488 C 0.40764 0.25273 0.58655 0.0
C489 C 0.48805 0.24861 0.64114 0.0
C490 C 0.4289 0.3207 0.66087 0.0
C491 C 0.44885 0.19799 0.69703 0.0
C492 C 0.36707 0.20931 0.64434 0.0
C493 C 0.38543 0.27549 0.71231 0.0
O494 O 0.42066 0.23188 0.59582 0.0
O495 O 0.48149 0.26 0.66403 0.0
O496 O 0.40946 0.31083 0.64616 0.0
O497 O 0.44368 0.19276 0.67185 0.0
O498 O 0.36292 0.23535 0.64508 0.0
O499 O 0.41045 0.26857 0.71666 0.0
O500 O 0.39095 0.19849 0.64147 0.0
O501 O 0.45014 0.22246 0.70641 0.0
O502 O 0.37524 0.27806 0.68816 0.0
O503 O 0.47259 0.23136 0.62854 0.0
O504 O 0.39553 0.26987 0.60229 0.0
O505 O 0.44279 0.30613 0.67781 0.0
Sc506 Sc 0.88464 0.2071 0.34555 0.0
Sc507 Sc 0.94478 0.21476 0.30578 0.0
Sc508 Sc 0.93029 0.26173 0.36 0.0
O509 O 0.91988 0.22793 0.33707 0.0
C510 C 0.86657 0.27084 0.34677 0.0
C511 C 0.88635 0.20492 0.27897 0.0
C512 C 0.95206 0.2799 0.30027 0.0
C513 C 0.92458 0.15739 0.33206 0.0
C514 C 0.90103 0.22498 0.40657 0.0
C515 C 0.98562 0.22641 0.35666 0.0
O516 O 0.86149 0.24502 0.34488 0.0
O517 O 0.91163 0.21168 0.2762 0.0
O518 O 0.94552 0.28475 0.32522 0.0
O519 O 0.90508 0.16776 0.34639 0.0
O520 O 0.9161 0.24498 0.3987 0.0
O521 O 0.97955 0.21567 0.33333 0.0
O522 O 0.88906 0.20893 0.38964 0.0
O523 O 0.93966 0.17176 0.31599 0.0
O524 O 0.9703 0.244 0.36904 0.0
O525 O 0.87486 0.20189 0.30247 0.0
O526 O 0.89054 0.28056 0.35202 0.0
O527 O 0.95267 0.25565 0.29027 0.0
H528 H 0.17827 0.45173 0.33809 0.0
H529 H 0.29246 0.56323 0.36821 0.0
H530 H 0.24116 0.47793 0.28002 0.0
H531 H 0.22342 0.54475 0.42208 0.0
H532 H 0.28472 0.51957 0.34415 0.0
H533 H 0.20451 0.47318 0.37548 0.0
C534 C 0.19777 0.46171 0.33321 0.0
C535 C 0.20702 0.46395 0.3057 0.0
C536 C 0.27171 0.52473 0.3617 0.0
C537 C 0.23713 0.48852 0.34847 0.0
C538 C 0.27617 0.54967 0.37556 0.0
C539 C 0.25768 0.55829 0.39633 0.0
C540 C 0.24856 0.50856 0.3686 0.0
C541 C 0.23752 0.53944 0.40545 0.0
C542 C 0.21283 0.4738 0.35463 0.0
C543 C 0.23284 0.47636 0.3008 0.0
N544 N 0.23297 0.51578 0.391 0.0
N545 N 0.24671 0.48871 0.32191 0.0
H546 H 0.25318 0.44841 0.91946 0.0
H547 H 0.24338 0.51465 0.77131 0.0
H548 H 0.18897 0.43005 0.85993 0.0
H549 H 0.30924 0.52991 0.82996 0.0
H550 H 0.21549 0.49514 0.80865 0.0
H551 H 0.26457 0.49011 0.89344 0.0
C552 C 0.24092 0.45351 0.90136 0.0
C553 C 0.22095 0.43501 0.89114 0.0
C554 C 0.23586 0.50319 0.81344 0.0
C555 C 0.23427 0.48239 0.86101 0.0
C556 C 0.2519 0.5142 0.79208 0.0
C557 C 0.27909 0.52307 0.79731 0.0
C558 C 0.2472 0.50078 0.84015 0.0
C559 C 0.28869 0.52261 0.82478 0.0
C560 C 0.24753 0.47733 0.88642 0.0
C561 C 0.20521 0.44319 0.86807 0.0
N562 N 0.27296 0.51113 0.84505 0.0
N563 N 0.21277 0.46588 0.85327 0.0
H564 H 0.79363 0.93042 0.61799 0.0
H565 H 0.67081 0.03209 0.64871 0.0
H566 H 0.72407 0.94405 0.56339 0.0
H567 H 0.73786 0.01411 0.70522 0.0
H568 H 0.69789 0.01208 0.61105 0.0
H569 H 0.78243 0.97332 0.64206 0.0
C570 C 0.77646 0.94279 0.61051 0.0
C571 C 0.75894 0.93293 0.58949 0.0
C572 C 0.70688 0.01296 0.6316 0.0
C573 C 0.74576 0.98174 0.61729 0.0
C574 C 0.69135 0.02425 0.65318 0.0
C575 C 0.70166 0.02387 0.68039 0.0
C576 C 0.73275 0.00095 0.63732 0.0
C577 C 0.72872 0.01413 0.68473 0.0
C578 C 0.77001 0.96729 0.62438 0.0
C579 C 0.73753 0.9503 0.5802 0.0
N580 N 0.7431 0.00254 0.66353 0.0
N581 N 0.73103 0.97348 0.5947 0.0
H582 H 0.73804 0.96917 0.2082 0.0
H583 H 0.75318 0.03797 0.06237 0.0
H584 H 0.80341 0.95194 0.14951 0.0
H585 H 0.68988 0.05891 0.12206 0.0
H586 H 0.76081 -0.00564 0.08659 0.0
H587 H 0.71088 0.98988 0.17093 0.0
C588 C 0.74654 0.96936 0.18742 0.0
C589 C 0.7735 0.9598 0.18218 0.0
C590 C 0.74476 0.00817 0.09402 0.0
C591 C 0.74251 0.98344 0.13948 0.0
C592 C 0.74035 0.03309 0.08014 0.0
C593 C 0.72182 0.05269 0.09101 0.0
C594 C 0.73088 0.00317 0.11911 0.0
C595 C 0.70512 0.04484 0.1135 0.0
C596 C 0.73094 0.98107 0.1661 0.0
C597 C 0.78311 0.95992 0.15472 0.0
N598 N 0.71065 0.02102 0.12738 0.0
N599 N 0.76785 0.97211 0.13451 0.0
H600 H 0.37584 0.29072 0.55857 0.0
H601 H 0.34087 0.17218 0.45346 0.0
H602 H 0.4255 0.21736 0.54576 0.0
H603 H 0.28733 0.24122 0.47296 0.0
H604 H 0.37952 0.19691 0.47442 0.0
H605 H 0.35284 0.28218 0.51449 0.0
C606 C 0.38251 0.27324 0.54616 0.0
C607 C 0.40164 0.25391 0.55654 0.0
C608 C 0.35943 0.20687 0.47366 0.0
C609 C 0.37508 0.24387 0.50636 0.0
C610 C 0.33727 0.19268 0.46186 0.0
C611 C 0.31056 0.20421 0.46241 0.0
C612 C 0.35479 0.23261 0.48639 0.0
C613 C 0.30738 0.23118 0.47279 0.0
C614 C 0.36927 0.26834 0.52098 0.0
C615 C 0.41006 0.23221 0.53909 0.0
N616 N 0.32911 0.24423 0.48491 0.0
N617 N 0.39612 0.22728 0.5152 0.0
H618 H 0.06327 0.75608 0.03296 0.0
H619 H 0.15321 0.7971 0.9352 0.0
H620 H 0.12059 0.69033 0.05276 0.0
H621 H 0.20995 0.74209 0.97705 0.0
H622 H 0.11457 0.7711 0.95432 0.0
H623 H 0.08774 0.76407 0.99007 0.0
C624 C 0.08056 0.74271 0.02786 0.0
C625 C 0.09068 0.72341 0.04712 0.0
C626 C 0.13536 0.76466 0.95955 0.0
C627 C 0.11925 0.73246 -0.00228 0.0
C628 C 0.15751 0.77949 0.94845 0.0
C629 C 0.18481 0.77245 0.95551 0.0
C630 C 0.14062 0.74314 0.97848 0.0
C631 C 0.18922 0.74874 0.9717 0.0
C632 C 0.09469 0.74724 0.00309 0.0
C633 C 0.11262 0.70614 0.03899 0.0
N634 N 0.16733 0.73534 0.98315 0.0
N635 N 0.1267 0.71165 0.01527 0.0
H636 H 0.91974 0.25692 0.44977 0.0
H637 H 0.77271 0.24131 0.51637 0.0
H638 H 0.86247 0.1909 0.43071 0.0
H639 H 0.8301 0.30754 0.53438 0.0
H640 H 0.8106 0.21475 0.49607 0.0
H641 H 0.89393 0.26636 0.49208 0.0
C642 C 0.9022 0.24387 0.45482 0.0
C643 C 0.89249 0.22394 0.43599 0.0
C644 C 0.815 0.23489 0.50491 0.0
C645 C 0.86255 0.23504 0.48408 0.0
C646 C 0.79332 0.25016 0.51638 0.0
C647 C 0.79802 0.27712 0.52621 0.0
C648 C 0.84148 0.2468 0.50299 0.0
C649 C 0.8253 0.28718 0.52631 0.0
C650 C 0.88737 0.24936 0.47899 0.0
C651 C 0.87015 0.20716 0.44411 0.0
N652 N 0.84589 0.27224 0.51435 0.0
N653 N 0.85541 0.21364 0.46715 0.0
H654 H 0.61051 0.79266 0.92865 0.0
H655 H 0.64406 0.67524 0.03492 0.0
H656 H 0.55953 0.7206 0.94327 0.0
H657 H 0.69851 0.74308 0.01396 0.0
H658 H 0.60544 0.70075 0.01478 0.0
H659 H 0.63323 0.78487 0.97302 0.0
C660 C 0.6035 0.77564 0.94151 0.0
C661 C 0.58412 0.75637 0.93157 0.0
C662 C 0.62574 0.71029 0.01506 0.0
C663 C 0.61035 0.74716 0.98207 0.0
C664 C 0.64787 0.69565 0.02639 0.0
C665 C 0.67479 0.70656 0.0251 0.0
C666 C 0.63064 0.73584 0.00202 0.0
C667 C 0.67828 0.73347 0.01463 0.0
C668 C 0.61657 0.77117 0.96686 0.0
C669 C 0.57522 0.73533 0.94958 0.0
N670 N 0.65655 0.74693 0.00292 0.0
N671 N 0.58902 0.73075 0.97363 0.0
H672 H 0.45016 0.33876 0.17545 0.0
H673 H 0.55822 0.37003 0.29296 0.0
H674 H 0.47394 0.28152 0.24008 0.0
H675 H 0.54236 0.42302 0.22255 0.0
H676 H 0.51492 0.34585 0.28383 0.0
H677 H 0.47138 0.37633 0.20164 0.0
C678 C 0.45954 0.3341 0.1953 0.0
C679 C 0.46117 0.30675 0.2051 0.0
C680 C 0.52057 0.36322 0.27079 0.0
C681 C 0.48546 0.34973 0.23516 0.0
C682 C 0.5453 0.37715 0.27604 0.0
C683 C 0.55458 0.39774 0.25768 0.0
C684 C 0.50526 0.36987 0.24697 0.0
C685 C 0.53653 0.40656 0.23664 0.0
C686 C 0.47152 0.35563 0.21033 0.0
C687 C 0.47286 0.30215 0.23134 0.0
N688 N 0.51307 0.39205 0.23137 0.0
N689 N 0.48508 0.32334 0.2452 0.0
H690 H 0.94501 0.1419 0.80549 0.0
H691 H 0.05358 0.11317 0.68929 0.0
H692 H 0.96556 0.1984 0.73914 0.0
H693 H 0.03728 0.0591 0.75876 0.0
H694 H 0.00894 0.1354 0.6968 0.0
H695 H 0.96576 0.1042 0.7791 0.0
C696 C 0.95356 0.14634 0.7852 0.0
C697 C 0.9546 0.17356 0.775 0.0
C698 C 0.01481 0.11819 0.70997 0.0
C699 C 0.97847 0.1305 0.74477 0.0
C700 C 0.04033 0.10542 0.70567 0.0
C701 C 0.0498 0.0852 0.72434 0.0
C702 C -0.00105 0.11086 0.73325 0.0
C703 C 0.03132 0.07542 0.74456 0.0
C704 C 0.96525 0.12474 0.77005 0.0
C705 C 0.96507 0.17788 0.74821 0.0
N706 N 0.00709 0.08891 0.74902 0.0
N707 N 0.97721 0.15668 0.73429 0.0
H708 H 0.5145 0.77757 0.24448 0.0
H709 H 0.44421 0.92334 0.26014 0.0
H710 H 0.52929 0.83415 0.31227 0.0
H711 H 0.42857 0.86676 0.19259 0.0
H712 H 0.48621 0.89768 0.27116 0.0
H713 H 0.49361 0.81535 0.21825 0.0
C714 C 0.51366 0.79799 0.25376 0.0
C715 C 0.52286 0.80246 0.281 0.0
C716 C 0.47395 0.89124 0.25351 0.0
C717 C 0.49892 0.84581 0.25104 0.0
C718 C 0.44995 0.90599 0.24712 0.0
C719 C 0.43216 0.89646 0.22616 0.0
C720 C 0.47994 0.86671 0.23904 0.0
C721 C 0.44115 0.87432 0.20954 0.0
C722 C 0.50184 0.81962 0.23868 0.0
C723 C 0.52184 0.82953 0.29162 0.0
N724 N 0.46402 0.85969 0.21684 0.0
N725 N 0.50956 0.85005 0.27682 0.0
H726 H 0.9475 0.55663 0.72701 0.0
H727 H 0.02314 0.69807 0.74652 0.0
H728 H 0.93271 0.61365 0.79439 0.0
H729 H 0.03317 0.64342 0.67632 0.0
H730 H 0.00332 0.6598 0.77282 0.0
H731 H 0.99182 0.57908 0.71842 0.0
C732 C 0.95386 0.57339 0.7405 0.0
C733 C 0.93573 0.58423 0.76052 0.0
C734 C 0.01036 0.65603 0.75184 0.0
C735 C 0.98614 0.61025 0.75046 0.0
C736 C 0.02155 0.67794 0.73672 0.0
C737 C 0.02875 0.67424 0.70877 0.0
C738 C 0.00604 0.63039 0.73878 0.0
C739 C 0.02702 0.64749 0.69751 0.0
C740 C 0.9792 0.58625 0.73555 0.0
C741 C 0.94554 0.60531 0.77799 0.0
N742 N 0.01525 0.62673 0.71236 0.0
N743 N 0.96975 0.61823 0.77199 0.0
H744 H 0.75333 0.44528 0.56312 0.0
H745 H 0.74258 0.5157 0.70896 0.0
H746 H 0.68893 0.42854 0.62298 0.0
H747 H 0.80852 0.52972 0.65005 0.0
H748 H 0.71472 0.49546 0.67204 0.0
H749 H 0.76421 0.488 0.58764 0.0
C750 C 0.74093 0.45092 0.58098 0.0
C751 C 0.72106 0.43263 0.59178 0.0
C752 C 0.7351 0.50341 0.66707 0.0
C753 C 0.73378 0.4812 0.62018 0.0
C754 C 0.75111 0.51484 0.6882 0.0
C755 C 0.77833 0.52352 0.68282 0.0
C756 C 0.7465 0.50034 0.64046 0.0
C757 C 0.78794 0.52258 0.65536 0.0
C758 C 0.74724 0.47533 0.59504 0.0
C759 C 0.70512 0.44151 0.61445 0.0
N760 N 0.77225 0.51064 0.63533 0.0
N761 N 0.71238 0.46478 0.62842 0.0
H762 H 0.74623 0.47148 0.20492 0.0
H763 H 0.72902 0.53998 0.05923 0.0
H764 H 0.68004 0.45392 0.14731 0.0
H765 H 0.79396 0.5601 0.11737 0.0
H766 H 0.72136 0.49655 0.08372 0.0
H767 H 0.77278 0.49206 0.16716 0.0
C768 C 0.7374 0.4716 0.18428 0.0
C769 C 0.71041 0.46192 0.17949 0.0
C770 C 0.73777 0.51013 0.09074 0.0
C771 C 0.74071 0.48545 0.13621 0.0
C772 C 0.74222 0.53495 0.07668 0.0
C773 C 0.76122 0.55433 0.08711 0.0
C774 C 0.75213 0.50498 0.11553 0.0
C775 C 0.77834 0.54625 0.10921 0.0
C776 C 0.75266 0.48323 0.16267 0.0
C777 C 0.7004 0.46195 0.15218 0.0
N778 N 0.77279 0.52254 0.12326 0.0
N779 N 0.71532 0.47408 0.13169 0.0
H780 H 0.25561 0.03919 0.42187 0.0
H781 H 0.24089 0.97607 0.27316 0.0
H782 H 0.19199 0.06225 0.36332 0.0
H783 H 0.30524 0.95507 0.33173 0.0
H784 H 0.21409 -0.00351 0.31088 0.0
H785 H 0.2637 -0.0031 0.39558 0.0
C786 C 0.24278 0.03503 0.40393 0.0
C787 C 0.22401 0.05493 0.39404 0.0
C788 C 0.23386 0.98696 0.31556 0.0
C789 C 0.23362 0.00692 0.36354 0.0
C790 C 0.24925 0.97541 0.29399 0.0
C791 C 0.27581 0.96473 0.29911 0.0
C792 C 0.24522 0.98802 0.34236 0.0
C793 C 0.28525 0.96386 0.32662 0.0
C794 C 0.24749 0.01087 0.38883 0.0
C795 C 0.20739 0.04796 0.37119 0.0
N796 N 0.2702 0.97584 0.34711 0.0
N797 N 0.21319 0.02491 0.35617 0.0
H798 H 0.22745 0.94175 0.92513 0.0
H799 H 0.17857 0.0395 0.83772 0.0
H800 H 0.29375 0.92866 0.86652 0.0
H801 H 0.23614 0.00327 0.77957 0.0
H802 H 0.20531 0.02001 0.87569 0.0
H803 H 0.21556 0.9843 0.90163 0.0
C804 C 0.24013 0.9483 0.90779 0.0
C805 C 0.26079 0.93091 0.89699 0.0
C806 C 0.21214 0.0161 0.85472 0.0
C807 C 0.24722 0.97992 0.86957 0.0
C808 C 0.19686 0.02739 0.83294 0.0
C809 C 0.2045 0.02209 0.80536 0.0
C810 C 0.23487 -0.00115 0.84881 0.0
C811 C 0.22898 0.00725 0.80046 0.0
C812 C 0.2333 0.97286 0.89421 0.0
C813 C 0.27699 0.94091 0.87501 0.0
N814 N 0.24296 -0.00428 0.82195 0.0
N815 N 0.26931 0.96434 0.8615 0.0
H816 H 0.71037 0.74032 0.51513 0.0
H817 H 0.56356 0.75489 0.44811 0.0
H818 H 0.65188 0.8055 0.53373 0.0
H819 H 0.62174 0.68975 0.42857 0.0
H820 H 0.58893 0.76402 0.49073 0.0
H821 H 0.67292 0.71339 0.49453 0.0
C822 C 0.68961 0.74885 0.51523 0.0
C823 C 0.68446 0.77566 0.52526 0.0
C824 C 0.59579 0.74727 0.47746 0.0
C825 C 0.64153 0.74493 0.50171 0.0
C826 C 0.58123 0.74198 0.4531 0.0
C827 C 0.5913 0.7224 0.43409 0.0
C828 C 0.62073 0.73315 0.48253 0.0
C829 C 0.61377 0.70575 0.44213 0.0
C830 C 0.66818 0.73338 0.50357 0.0
C831 C 0.65702 0.78529 0.52546 0.0
N832 N 0.62827 0.71207 0.46536 0.0
N833 N 0.6367 0.77017 0.51333 0.0
H834 H 0.92535 0.22171 0.94389 0.0
H835 H 0.78313 0.24162 0.01858 0.0
H836 H 0.86892 0.28946 0.92857 0.0
H837 H 0.83818 0.17209 0.03075 0.0
H838 H 0.8212 0.26745 -0.00219 0.0
H839 H 0.90213 0.21299 0.98783 0.0
C840 C 0.90858 0.23529 0.95008 0.0
C841 C 0.89816 0.25546 0.93188 0.0
C842 C 0.82509 0.24673 0.00549 0.0
C843 C 0.87122 0.24522 0.98185 0.0
C844 C 0.80329 0.23187 0.01721 0.0
C845 C 0.80719 0.20425 0.02546 0.0
C846 C 0.85085 0.23374 0.00166 0.0
C847 C 0.83398 0.19304 0.02392 0.0
C848 C 0.89525 0.23022 0.9752 0.0
C849 C 0.877 0.27297 0.94147 0.0
N850 N 0.85464 0.20762 0.01166 0.0
N851 N 0.86363 0.2669 0.96544 0.0
H852 H 0.10995 0.79626 0.55687 0.0
H853 H 0.14194 0.68086 0.44807 0.0
H854 H 0.05816 0.72512 0.54079 0.0
H855 H 0.19726 0.74754 0.47039 0.0
H856 H 0.10364 0.70646 0.4687 0.0
H857 H 0.13245 0.78928 0.51225 0.0
C858 C 0.10271 0.77963 0.54365 0.0
C859 C 0.08316 0.76032 0.55322 0.0
C860 C 0.12406 0.71574 0.46861 0.0
C861 C 0.10914 0.75204 0.50242 0.0
C862 C 0.14601 0.70104 0.457 0.0
C863 C 0.17307 0.71157 0.45853 0.0
C864 C 0.12928 0.74093 0.48218 0.0
C865 C 0.17689 0.73822 0.46951 0.0
C866 C 0.11565 0.77563 0.51815 0.0
C867 C 0.07398 0.73982 0.53476 0.0
N868 N 0.15533 0.75171 0.4815 0.0
N869 N 0.08766 0.73568 0.51055 0.0
H870 H 0.27169 0.24545 0.97185 0.0
H871 H 0.41923 0.26097 0.03791 0.0
H872 H 0.32914 0.31152 0.95335 0.0
H873 H 0.36208 0.19495 0.05739 0.0
H874 H 0.39289 0.27071 -0.004 0.0
H875 H 0.30951 0.21913 -0.00737 0.0
C876 C 0.29229 0.25431 0.97184 0.0
C877 C 0.29704 0.28115 0.96167 0.0
C878 C 0.38646 0.25366 0.00909 0.0
C879 C 0.34042 0.25111 0.98541 0.0
C880 C 0.40159 0.248 0.03303 0.0
C881 C 0.39213 0.22793 0.05184 0.0
C882 C 0.36158 0.23937 0.00423 0.0
C883 C 0.36962 0.21127 0.04397 0.0
C884 C 0.31393 0.23919 0.9836 0.0
C885 C 0.32431 0.29125 0.96165 0.0
N886 N 0.3546 0.21791 0.02115 0.0
N887 N 0.34485 0.27644 0.97382 0.0
H888 H 0.5379 0.6424 0.80449 0.0
H889 H 0.433 0.61339 0.68469 0.0
H890 H 0.51726 0.69974 0.73888 0.0
H891 H 0.44771 0.55899 0.75426 0.0
H892 H 0.47693 0.6363 0.69401 0.0
H893 H 0.51824 0.60483 0.7771 0.0
C894 C 0.52956 0.64707 0.78417 0.0
C895 C 0.5282 0.67446 0.77444 0.0
C896 C 0.47089 0.61887 0.70681 0.0
C897 C 0.50567 0.63152 0.74303 0.0
C898 C 0.44579 0.6057 0.70146 0.0
C899 C 0.43599 0.58518 0.71963 0.0
C900 C 0.48599 0.61162 0.73061 0.0
C901 C 0.45391 0.5755 0.7404 0.0
C902 C 0.51849 0.62555 0.76846 0.0
C903 C 0.51797 0.67908 0.7476 0.0
N904 N 0.4777 0.58938 0.74587 0.0
N905 N 0.50652 0.65792 0.73309 0.0
H906 H 0.03181 0.83833 0.1683 0.0
H907 H 0.92985 0.86957 0.29121 0.0
H908 H 0.01331 0.78187 0.2353 0.0
H909 H 0.94271 0.92338 0.22082 0.0
H910 H 0.97262 0.84537 0.27982 0.0
H911 H 0.01124 0.87592 0.19505 0.0
C912 C 0.02371 0.83385 0.18876 0.0
C913 C 0.02343 0.80668 0.19916 0.0
C914 C 0.96645 0.86291 0.26726 0.0
C915 C -0.00011 0.84968 0.22989 0.0
C916 C 0.94203 0.87687 0.27382 0.0
C917 C 0.93199 0.8977 0.25615 0.0
C918 C 0.98065 0.86975 0.24279 0.0
C919 C 0.94912 0.90673 0.23443 0.0
C920 C 0.01211 0.8554 0.20409 0.0
C921 C 0.01331 0.80233 0.2261 0.0
N922 N 0.97224 0.89216 0.22786 0.0
N923 N 0.00146 0.8235 0.24031 0.0
H924 H 0.44309 0.14249 0.68671 0.0
H925 H 0.55297 0.11249 0.8012 0.0
H926 H 0.46877 0.20004 0.75025 0.0
H927 H 0.53465 0.05886 0.73195 0.0
H928 H 0.50853 0.13539 0.79457 0.0
H929 H 0.46243 0.10462 0.71393 0.0
C930 C 0.45247 0.14716 0.70657 0.0
C931 C 0.45541 0.17462 0.71567 0.0
C932 C 0.51389 0.1181 0.78129 0.0
C933 C 0.47762 0.13135 0.74684 0.0
C934 C 0.5393 0.10494 0.78509 0.0
C935 C 0.54818 0.08474 0.76611 0.0
C936 C 0.49757 0.11113 0.75825 0.0
C937 C 0.52916 0.0752 0.74631 0.0
C938 C 0.46334 0.12546 0.72219 0.0
C939 C 0.46684 0.17928 0.742 0.0
N940 N 0.50505 0.08906 0.74233 0.0
N941 N 0.47815 0.15792 0.75636 0.0
H942 H 0.05671 0.36745 0.19396 0.0
H943 H 0.94995 0.3353 0.31251 0.0
H944 H 0.03995 0.42119 0.26357 0.0
H945 H 0.9731 0.2783 0.24745 0.0
H946 H 0.9708 0.37298 0.28617 0.0
H947 H 0.01401 0.34245 0.20371 0.0
C948 C 0.04371 0.37454 0.21084 0.0
C949 C 0.05259 0.39565 0.22879 0.0
C950 C 0.97091 0.35231 0.27743 0.0
C951 C 0.00397 0.36683 0.24024 0.0
C952 C 0.95915 0.33072 0.29254 0.0
C953 C 0.96065 0.30341 0.28263 0.0
C954 C 0.98453 0.34652 0.25238 0.0
C955 C 0.9721 0.2989 0.25627 0.0
C956 C 0.01933 0.36015 0.21645 0.0
C957 C 0.03445 0.40438 0.24979 0.0
N958 N 0.98411 0.32016 0.24231 0.0
N959 N 0.01135 0.38942 0.25543 0.0
H960 H 0.24024 0.40454 0.00875 0.0
H961 H 0.12068 0.40378 0.12249 0.0
H962 H 0.17475 0.34384 0.01511 0.0
H963 H 0.19411 0.45447 0.12894 0.0
H964 H 0.13388 0.39168 0.07531 0.0
H965 H 0.21876 0.43058 0.04673 0.0
C966 C 0.22148 0.39662 0.01816 0.0
C967 C 0.20956 0.3717 0.00902 0.0
C968 C 0.14685 0.40587 0.08687 0.0
C969 C 0.18459 0.40173 0.05172 0.0
C970 C 0.13919 0.41298 0.11374 0.0
C971 C 0.15682 0.42936 0.13 0.0
C972 C 0.17238 0.41504 0.07638 0.0
C973 C 0.1802 0.44123 0.11735 0.0
C974 C 0.20912 0.41162 0.03961 0.0
C975 C 0.18501 0.36264 0.02171 0.0
N976 N 0.18774 0.43323 0.09146 0.0
N977 N 0.17342 0.37762 0.0424 0.0
H978 H 0.29228 0.65763 0.52029 0.0
H979 H 0.29313 0.53061 0.62108 0.0
H980 H 0.23872 0.58718 0.50648 0.0
H981 H 0.36086 0.58863 0.61373 0.0
H982 H 0.27498 0.54707 0.57691 0.0
H983 H 0.31749 0.63118 0.55462 0.0
C984 C 0.28554 0.63667 0.52466 0.0
C985 C 0.26319 0.62469 0.51045 0.0
C986 C 0.2942 0.55567 0.58465 0.0
C987 C 0.29254 0.59399 0.54968 0.0
C988 C 0.30476 0.54613 0.60979 0.0
C989 C 0.32792 0.55914 0.62173 0.0
C990 C 0.30692 0.5783 0.57162 0.0
C991 C 0.3424 0.57866 0.6058 0.0
C992 C 0.3003 0.6214 0.54403 0.0
C993 C 0.2557 0.59733 0.51703 0.0
N994 N 0.33121 0.58824 0.5819 0.0
N995 N 0.2703 0.58289 0.53634 0.0
H996 H 0.74309 0.07678 0.98317 0.0
H997 H 0.69361 0.02637 0.85671 0.0
H998 H 0.69374 0.14793 0.96017 0.0
H999 H 0.62693 0.08494 0.86839 0.0
H1000 H 0.71216 0.03923 0.90166 0.0
H1001 H 0.7204 0.05004 0.94669 0.0
C1002 C 0.72789 0.08694 0.97016 0.0
C1003 C 0.72055 0.11479 0.97462 0.0
C1004 C 0.69293 0.04857 0.89496 0.0
C1005 C 0.69438 0.08425 0.93302 0.0
C1006 C 0.68221 0.04116 0.86917 0.0
C1007 C 0.65917 0.0553 0.85832 0.0
C1008 C 0.68035 0.07013 0.90989 0.0
C1009 C 0.64517 0.07404 0.87557 0.0
C1010 C 0.71485 0.07159 0.94939 0.0
C1011 C 0.7003 0.12665 0.95746 0.0
N1012 N 0.65643 0.08146 0.9002 0.0
N1013 N 0.68791 0.11128 0.93756 0.0
H1014 H 0.74106 0.90033 0.47609 0.0
H1015 H 0.86232 0.89959 0.36424 0.0
H1016 H 0.80449 0.83755 0.46816 0.0
H1017 H 0.79023 0.95228 0.35791 0.0
H1018 H 0.84802 0.88661 0.41085 0.0
H1019 H 0.76371 0.92681 0.43914 0.0
C1020 C 0.75957 0.89201 0.4665 0.0
C1021 C 0.77064 0.86647 0.47501 0.0
C1022 C 0.8356 0.90143 0.39944 0.0
C1023 C 0.79699 0.89701 0.43356 0.0
C1024 C 0.8439 0.90906 0.37292 0.0
C1025 C 0.82685 0.92616 0.35676 0.0
C1026 C 0.81006 0.91086 0.40968 0.0
C1027 C 0.80362 0.93839 0.36936 0.0
C1028 C 0.77262 0.90728 0.44567 0.0
C1029 C 0.7949 0.8569 0.4621 0.0
N1030 N 0.79543 0.92988 0.39489 0.0
N1031 N 0.8072 0.87218 0.44207 0.0
H1032 H 0.13318 0.20256 0.45258 0.0
H1033 H 0.01359 0.17911 0.34442 0.0
H1034 H 0.1233 0.1283 0.40366 0.0
H1035 H 0.0122 0.2469 0.40293 0.0
H1036 H 0.05164 0.15852 0.36963 0.0
H1037 H 0.08596 0.21612 0.44064 0.0
C1038 C 0.12079 0.18862 0.4401 0.0
C1039 C 0.13244 0.16466 0.42836 0.0
C1040 C 0.04303 0.17784 0.37714 0.0
C1041 C 0.07881 0.18035 0.41425 0.0
C1042 C 0.02146 0.18988 0.36247 0.0
C1043 C 0.00995 0.2151 0.37127 0.0
C1044 C 0.05365 0.19121 0.40064 0.0
C1045 C 0.0207 0.22762 0.39523 0.0
C1046 C 0.0939 0.19653 0.4331 0.0
C1047 C 0.11538 0.14732 0.41254 0.0
N1048 N 0.04223 0.21568 0.40896 0.0
N1049 N 0.0896 0.15581 0.40545 0.0
H1050 H 0.36895 0.85924 0.89867 0.0
H1051 H 0.4759 0.73373 0.89833 0.0
H1052 H 0.36103 0.78836 0.95285 0.0
H1053 H 0.46544 0.79392 0.83273 0.0
H1054 H 0.44085 0.75839 0.92553 0.0
H1055 H 0.41424 0.84241 0.8843 0.0
C1056 C 0.37704 0.84058 0.9082 0.0
C1057 C 0.36061 0.82447 0.92596 0.0
C1058 C 0.44639 0.76611 0.90519 0.0
C1059 C 0.41199 0.80489 0.90915 0.0
C1060 C 0.46608 0.75188 0.8895 0.0
C1061 C 0.4735 0.76159 0.86306 0.0
C1062 C 0.43435 0.79029 0.89444 0.0
C1063 C 0.4603 0.78543 0.85285 0.0
C1064 C 0.40279 0.83083 0.89975 0.0
C1065 C 0.37258 0.80095 0.93831 0.0
N1066 N 0.44146 0.79896 0.86859 0.0
N1067 N 0.3973 0.79135 0.92902 0.0
H1068 H 0.50888 0.233 0.59039 0.0
H1069 H 0.61389 0.3601 0.58898 0.0
H1070 H 0.52108 0.29154 0.65713 0.0
H1071 H 0.6217 0.29024 0.53351 0.0
H1072 H 0.56966 0.34185 0.60479 0.0
H1073 H 0.54323 0.25827 0.56289 0.0
C1074 C 0.51898 0.25088 0.59942 0.0
C1075 C 0.51213 0.26004 0.62621 0.0
C1076 C 0.58084 0.33081 0.58876 0.0
C1077 C 0.55045 0.28947 0.59451 0.0
C1078 C 0.60596 0.34138 0.57947 0.0
C1079 C 0.62214 0.32597 0.56087 0.0
C1080 C 0.572 0.30477 0.57933 0.0
C1081 C 0.61035 0.30232 0.54863 0.0
C1082 C 0.53825 0.26547 0.58357 0.0
C1083 C 0.52571 0.28352 0.6367 0.0
N1084 N 0.58627 0.29192 0.5587 0.0
N1085 N 0.54408 0.29746 0.62076 0.0
H1086 H 0.97365 0.74968 0.07795 0.0
H1087 H 0.86298 0.62718 0.07782 0.0
H1088 H 0.96916 0.68296 0.13757 0.0
H1089 H 0.85201 0.70273 0.03107 0.0
H1090 H 0.91003 0.64155 0.08892 0.0
H1091 H 0.93536 0.72825 0.05223 0.0
C1092 C 0.96459 0.73066 0.08569 0.0
C1093 C 0.97431 0.71838 0.11022 0.0
C1094 C 0.89749 0.65475 0.07579 0.0
C1095 C 0.93139 0.69347 0.08055 0.0
C1096 C 0.87071 0.64645 0.06926 0.0
C1097 C 0.85327 0.6642 0.05428 0.0
C1098 C 0.90672 0.68107 0.06749 0.0
C1099 C 0.86458 0.68864 0.04318 0.0
C1100 C 0.94297 0.71836 0.07089 0.0
C1101 C 0.96208 0.69353 0.11908 0.0
N1102 N 0.89045 0.69675 0.05063 0.0
N1103 N 0.9413 0.68196 0.10428 0.0
H1104 H 0.33888 0.01782 0.17693 0.0
H1105 H 0.45515 0.12999 0.19355 0.0
H1106 H 0.40043 0.0133 0.24185 0.0
H1107 H 0.40338 0.12181 0.12101 0.0
H1108 H 0.44148 0.0836 0.20798 0.0
H1109 H 0.36575 0.05354 0.15434 0.0
C1110 C 0.35794 0.02453 0.18668 0.0
C1111 C 0.36717 0.01277 0.21163 0.0
C1112 C 0.43369 0.09167 0.18853 0.0
C1113 C 0.39845 0.05369 0.18539 0.0
C1114 C 0.44168 0.11811 0.1801 0.0
C1115 C 0.42946 0.13021 0.15659 0.0
C1116 C 0.4134 0.07749 0.17332 0.0
C1117 C 0.41256 0.11363 0.13979 0.0
C1118 C 0.37354 0.04472 0.17346 0.0
C1119 C 0.39236 0.02204 0.22282 0.0
N1120 N 0.40443 0.08836 0.14887 0.0
N1121 N 0.40704 0.04221 0.20973 0.0
H1122 H 0.95431 0.3496 0.78695 0.0
H1123 H 0.90647 0.47833 0.74221 0.0
H1124 H 0.89749 0.36038 0.85529 0.0
H1125 H 0.83687 0.45777 0.7947 0.0
H1126 H 0.93267 0.44053 0.76321 0.0
H1127 H 0.94272 0.39565 0.77057 0.0
C1128 C 0.94016 0.36204 0.79916 0.0
C1129 C 0.9261 0.35071 0.82202 0.0
C1130 C 0.91156 0.44402 0.76984 0.0
C1131 C 0.91274 0.40363 0.80336 0.0
C1132 C 0.89651 0.46557 0.75776 0.0
C1133 C 0.86926 0.47106 0.76643 0.0
C1134 C 0.89916 0.42784 0.79062 0.0
C1135 C 0.85768 0.45425 0.78712 0.0
C1136 C 0.93348 0.38849 0.78969 0.0
C1137 C 0.90826 0.36796 0.83713 0.0
N1138 N 0.87272 0.43348 0.79849 0.0
N1139 N 0.90154 0.3933 0.8271 0.0
H1140 H 0.58529 0.5102 0.23752 0.0
H1141 H 0.58245 0.61687 0.36334 0.0
H1142 H 0.64864 0.51901 0.30023 0.0
H1143 H 0.53079 0.62577 0.29077 0.0
H1144 H 0.59662 0.57132 0.34694 0.0
H1145 H 0.55772 0.54548 0.26152 0.0
C1146 C 0.59353 0.51967 0.25613 0.0
C1147 C 0.61951 0.51184 0.26665 0.0
C1148 C 0.58175 0.58304 0.33488 0.0
C1149 C 0.58771 0.55126 0.29457 0.0
C1150 C 0.57342 0.60894 0.34438 0.0
C1151 C 0.55635 0.62563 0.3278 0.0
C1152 C 0.57298 0.57397 0.30867 0.0
C1153 C 0.54467 0.61393 0.30383 0.0
C1154 C 0.57764 0.53951 0.26995 0.0
C1155 C 0.62895 0.52456 0.29105 0.0
N1156 N 0.55385 0.58904 0.2945 0.0
N1157 N 0.61304 0.54356 0.30416 0.0
H1158 H 0.08349 0.97113 0.75104 0.0
H1159 H 0.07768 0.8626 0.62674 0.0
H1160 H 0.14016 0.96748 0.68174 0.0
H1161 H 0.03342 0.851 0.70369 0.0
H1162 H 0.08961 0.90938 0.64134 0.0
H1163 H 0.05662 0.93345 0.72997 0.0
C1164 C 0.09036 0.96237 0.73154 0.0
C1165 C 0.11438 0.9722 0.71839 0.0
C1166 C 0.07684 0.89677 0.65482 0.0
C1167 C 0.08336 0.92998 0.69391 0.0
C1168 C 0.06982 0.87015 0.64637 0.0
C1169 C 0.05538 0.85257 0.66443 0.0
C1170 C 0.06958 0.90569 0.68156 0.0
C1171 C 0.04515 0.86366 0.68936 0.0
C1172 C 0.07488 0.94111 0.71944 0.0
C1173 C 0.1221 0.96035 0.69296 0.0
N1174 N 0.0531 0.88935 0.69758 0.0
N1175 N 0.10666 0.93991 0.68162 0.0
H1176 H 0.86437 0.58231 0.86727 0.0
H1177 H 0.78934 0.65633 0.9585 0.0
H1178 H 0.79012 0.53316 0.85857 0.0
H1179 H 0.74441 0.58149 0.97858 0.0
H1180 H 0.81424 0.63129 0.92286 0.0
H1181 H 0.84774 0.59826 0.91224 0.0
C1182 C 0.84489 0.57434 0.87507 0.0
C1183 C 0.82806 0.55733 0.85859 0.0
C1184 C 0.79934 0.62015 0.93539 0.0
C1185 C 0.80845 0.57647 0.90924 0.0
C1186 C 0.78462 0.6346 0.95542 0.0
C1187 C 0.76481 0.62099 0.97179 0.0
C1188 C 0.79426 0.59181 0.93148 0.0
C1189 C 0.75951 0.59283 0.96649 0.0
C1190 C 0.8352 0.58383 0.90052 0.0
C1191 C 0.80342 0.54696 0.8702 0.0
N1192 N 0.7741 0.57915 0.94661 0.0
N1193 N 0.79393 0.55731 0.89459 0.0
H1194 H 0.67583 0.33961 0.47056 0.0
H1195 H 0.69826 0.45334 0.35612 0.0
H1196 H 0.74238 0.39932 0.47509 0.0
H1197 H 0.62455 0.40319 0.36335 0.0
H1198 H 0.71149 0.43969 0.40293 0.0
H1199 H 0.65509 0.36608 0.43342 0.0
C1200 C 0.68631 0.35818 0.46357 0.0
C1201 C 0.71118 0.367 0.47576 0.0
C1202 C 0.69208 0.43224 0.39453 0.0
C1203 C 0.68709 0.39782 0.43316 0.0
C1204 C 0.68434 0.44022 0.36786 0.0
C1205 C 0.66074 0.42855 0.35545 0.0
C1206 C 0.67609 0.41249 0.40865 0.0
C1207 C 0.64336 0.412 0.3718 0.0
C1208 C 0.67417 0.37355 0.44253 0.0
C1209 C 0.72337 0.39158 0.46607 0.0
N1210 N 0.65174 0.40391 0.39735 0.0
N1211 N 0.71132 0.40604 0.44509 0.0
H1212 H 0.29213 0.95446 0.12298 0.0
H1213 H 0.30232 0.83063 0.01852 0.0
H1214 H 0.36233 0.89917 0.11772 0.0
H1215 H 0.24333 0.89713 0.00716 0.0
H1216 H 0.32535 0.85764 0.05386 0.0
H1217 H 0.27689 0.93858 0.07757 0.0
C1218 C 0.30491 0.93969 0.11192 0.0
C1219 C 0.32789 0.92717 0.12471 0.0
C1220 C 0.30745 0.86645 0.0436 0.0
C1221 C 0.31022 0.90865 0.07316 0.0
C1222 C 0.29395 0.85082 0.02364 0.0
C1223 C 0.27067 0.86151 0.00987 0.0
C1224 C 0.29747 0.8929 0.0503 0.0
C1225 C 0.26106 0.88795 0.01738 0.0
C1226 C 0.29601 0.93046 0.08605 0.0
C1227 C 0.34392 0.90864 0.10909 0.0
N1228 N 0.27445 0.90273 0.03726 0.0
N1229 N 0.33434 0.89934 0.08441 0.0
H1230 H 0.12163 0.081 0.61944 0.0
H1231 H 0.19261 0.15406 0.52388 0.0
H1232 H 0.19789 0.03513 0.62897 0.0
H1233 H 0.2409 0.08045 0.50719 0.0
H1234 H 0.16871 0.12956 0.5605 0.0
H1235 H 0.1371 0.09601 0.57373 0.0
C1236 C 0.14136 0.0736 0.61171 0.0
C1237 C 0.15896 0.05769 0.6285 0.0
C1238 C 0.1841 0.11851 0.54849 0.0
C1239 C 0.17726 0.07583 0.57695 0.0
C1240 C 0.19825 0.1327 0.52787 0.0
C1241 C 0.21883 0.11932 0.51226 0.0
C1242 C 0.19051 0.09066 0.55378 0.0
C1243 C 0.22519 0.09161 0.51867 0.0
C1244 C 0.15037 0.08255 0.58581 0.0
C1245 C 0.18395 0.04803 0.61703 0.0
N1246 N 0.21118 0.07821 0.53915 0.0
N1247 N 0.19272 0.05784 0.59215 0.0
H1248 H 0.96326 0.79257 0.6572 0.0
H1249 H 0.8605 0.79271 0.53166 0.0
H1250 H 0.97591 0.73924 0.58629 0.0
H1251 H 0.86684 0.85961 0.59083 0.0
H1252 H 0.90526 0.77539 0.54723 0.0
H1253 H 0.92812 0.81755 0.6316 0.0
C1254 C 0.95846 0.78583 0.63633 0.0
C1255 C 0.97259 0.76363 0.62395 0.0
C1256 C 0.89715 0.79425 0.5563 0.0
C1257 C 0.93248 0.79271 0.59422 0.0
C1258 C 0.87167 0.80435 0.54726 0.0
C1259 C 0.8593 0.82695 0.56088 0.0
C1260 C 0.91009 0.80688 0.57903 0.0
C1261 C 0.87509 0.84152 0.58044 0.0
C1262 C 0.93864 0.80046 0.62154 0.0
C1263 C 0.96545 0.7561 0.59674 0.0
N1264 N 0.89935 0.83075 0.58952 0.0
N1265 N 0.94574 0.77059 0.58277 0.0
H1266 H 0.50315 0.24504 0.07632 0.0
H1267 H 0.63093 0.19725 0.02754 0.0
H1268 H 0.52499 0.19428 0.14686 0.0
H1269 H 0.61872 0.12956 0.08484 0.0
H1270 H 0.58549 0.21513 0.03963 0.0
H1271 H 0.54025 0.223 0.04979 0.0
C1272 C 0.51601 0.22964 0.08639 0.0
C1273 C 0.51108 0.22176 0.11401 0.0
C1274 C 0.5922 0.19582 0.04883 0.0
C1275 C 0.55336 0.19634 0.08373 0.0
C1276 C 0.61827 0.18548 0.04186 0.0
C1277 C 0.62905 0.16233 0.05589 0.0
C1278 C 0.57693 0.18275 0.06986 0.0
C1279 C 0.61156 0.14789 0.07405 0.0
C1280 C 0.53714 0.21699 0.07116 0.0
C1281 C 0.52805 0.20128 0.12576 0.0
N1282 N 0.58666 0.15877 0.08106 0.0
N1283 N 0.5483 0.18928 0.11053 0.0
H1284 H 0.35986 0.62924 0.40597 0.0
H1285 H 0.473 0.74933 0.40226 0.0
H1286 H 0.35038 0.70648 0.45014 0.0
H1287 H 0.46819 0.68016 0.34557 0.0
H1288 H 0.43413 0.7296 0.42846 0.0
H1289 H 0.40732 0.64209 0.39475 0.0
C1290 C 0.368 0.64858 0.41394 0.0
C1291 C 0.35091 0.6672 0.42825 0.0
C1292 C 0.44179 0.71878 0.41035 0.0
C1293 C 0.40483 0.68234 0.41486 0.0
C1294 C 0.46376 0.73011 0.39527 0.0
C1295 C 0.47355 0.71665 0.37139 0.0
C1296 C 0.42991 0.69371 0.40162 0.0
C1297 C 0.46106 0.69161 0.3635 0.0
C1298 C 0.39502 0.65601 0.40735 0.0
C1299 C 0.36271 0.69172 0.4386 0.0
N1300 N 0.43992 0.68102 0.37855 0.0
N1301 N 0.38882 0.69896 0.43107 0.0
H1302 H 0.12081 0.29532 0.95294 0.0
H1303 H 0.01987 0.28956 0.82629 0.0
H1304 H 0.11416 0.36026 0.89162 0.0
H1305 H 0.00558 0.23968 0.8994 0.0
H1306 H 0.05466 0.3155 0.85133 0.0
H1307 H 0.07643 0.27695 0.93751 0.0
C1308 C 0.10964 0.30632 0.93688 0.0
C1309 C 0.12183 0.32864 0.92266 0.0
C1310 C 0.04386 0.29896 0.86199 0.0
C1311 C 0.0715 0.30738 0.9047 0.0
C1312 C 0.02424 0.28377 0.84754 0.0
C1313 C 0.00971 0.2623 0.86071 0.0
C1314 C 0.04944 0.29249 0.88976 0.0
C1315 C 0.01636 0.25597 0.88836 0.0
C1316 C 0.08437 0.29563 0.92794 0.0
C1317 C 0.10604 0.3424 0.90251 0.0
N1318 N 0.03588 0.27098 0.90199 0.0
N1319 N 0.08202 0.33105 0.89355 0.0
H1320 H 0.58048 0.97198 0.73766 0.0
H1321 H 0.58026 0.86064 0.85966 0.0
H1322 H 0.64183 0.96525 0.80257 0.0
H1323 H 0.53187 0.85115 0.78495 0.0
H1324 H 0.59231 0.90743 0.84516 0.0
H1325 H 0.55451 0.93407 0.75941 0.0
C1326 C 0.58858 0.96247 0.75632 0.0
C1327 C 0.6136 0.97155 0.76805 0.0
C1328 C 0.57863 0.89527 0.83218 0.0
C1329 C 0.58363 0.92906 0.79336 0.0
C1330 C 0.57153 0.86864 0.84058 0.0
C1331 C 0.55589 0.85161 0.823 0.0
C1332 C 0.57014 0.90477 0.80602 0.0
C1333 C 0.54457 0.86333 0.79885 0.0
C1334 C 0.57362 0.94109 0.76883 0.0
C1335 C 0.62292 0.95873 0.79245 0.0
N1336 N 0.55254 0.88903 0.79064 0.0
N1337 N 0.60793 0.93819 0.80425 0.0
H1338 H 0.07726 0.50425 0.24118 0.0
H1339 H 0.02774 0.63041 0.18997 0.0
H1340 H 0.14987 0.52762 0.19425 0.0
H1341 H 0.08934 0.61972 0.12588 0.0
H1342 H 0.0401 0.58544 0.20877 0.0
H1343 H 0.05115 0.5407 0.21765 0.0
C1344 C 0.08785 0.51734 0.22635 0.0
C1345 C 0.11592 0.51299 0.21992 0.0
C1346 C 0.05026 0.59236 0.19002 0.0
C1347 C 0.08613 0.55454 0.19279 0.0
C1348 C 0.04315 0.61818 0.17916 0.0
C1349 C 0.05822 0.62932 0.15685 0.0
C1350 C 0.07246 0.57769 0.17831 0.0
C1351 C 0.07768 0.61232 0.14357 0.0
C1352 C 0.07287 0.5381 0.21282 0.0
C1353 C 0.12837 0.53022 0.20009 0.0
N1354 N 0.08476 0.58766 0.15497 0.0
N1355 N 0.11337 0.5501 0.18722 0.0
H1356 H 0.45427 0.35143 0.70133 0.0
H1357 H 0.34388 0.46798 0.67445 0.0
H1358 H 0.40708 0.35941 0.62569 0.0
H1359 H 0.40056 0.47059 0.74374 0.0
H1360 H 0.37075 0.43072 0.65434 0.0
H1361 H 0.44139 0.39865 0.71373 0.0
C1362 C 0.44198 0.36339 0.68684 0.0
C1363 C 0.4308 0.3511 0.66293 0.0
C1364 C 0.37747 0.43945 0.67388 0.0
C1365 C 0.41561 0.40478 0.67731 0.0
C1366 C 0.36185 0.46053 0.68565 0.0
C1367 C 0.36968 0.47217 0.71112 0.0
C1368 C 0.40096 0.4295 0.68779 0.0
C1369 C 0.39356 0.46198 0.72424 0.0
C1370 C 0.43444 0.39031 0.69409 0.0
C1371 C 0.41541 0.36776 0.64477 0.0
N1372 N 0.40824 0.44098 0.71255 0.0
N1373 N 0.40766 0.39355 0.65269 0.0
H1374 H 0.95264 0.12674 0.29324 0.0
H1375 H 0.83153 0.01921 0.3 0.0
H1376 H 0.89695 0.11862 0.36288 0.0
H1377 H 0.89939 0.00967 0.24226 0.0
H1378 H 0.85735 0.05478 0.32395 0.0
H1379 H 0.93814 0.08122 0.27697 0.0
C1380 C 0.93806 0.11505 0.30567 0.0
C1381 C 0.92507 0.12701 0.32885 0.0
C1382 C 0.86673 0.04487 0.30612 0.0
C1383 C 0.90814 0.07532 0.31001 0.0
C1384 C 0.85178 0.02477 0.29209 0.0
C1385 C 0.86318 0.01148 0.26886 0.0
C1386 C 0.8932 0.05222 0.29674 0.0
C1387 C 0.88968 0.01952 0.25993 0.0
C1388 C 0.92964 0.08911 0.29619 0.0
C1389 C 0.9068 0.11062 0.34437 0.0
N1390 N 0.90378 0.03957 0.27381 0.0
N1391 N 0.89829 0.08588 0.33425 0.0
H1392 H 0.15423 0.37186 0.33003 0.0
H1393 H 0.21146 0.21663 0.33194 0.0
H1394 H 0.15086 0.31512 0.2608 0.0
H1395 H 0.20071 0.26451 0.40684 0.0
H1396 H 0.19406 0.25546 0.30512 0.0
H1397 H 0.17383 0.3347 0.35861 0.0
C1398 C 0.15723 0.35157 0.32093 0.0
C1399 C 0.15102 0.34667 0.2929 0.0
C1400 C 0.19558 0.25759 0.32741 0.0
C1401 C 0.17386 0.30448 0.32524 0.0
C1402 C 0.20568 0.23544 0.34275 0.0
C1403 C 0.20722 0.2372 0.37172 0.0
C1404 C 0.18685 0.28173 0.34106 0.0
C1405 C 0.19978 0.26226 0.38453 0.0
C1406 C 0.1686 0.33047 0.3372 0.0
C1407 C 0.15549 0.32 0.28221 0.0
N1408 N 0.18964 0.28355 0.3691 0.0
N1409 N 0.16679 0.30003 0.29833 0.0
H1410 H 0.30009 0.77544 0.82896 0.0
H1411 H 0.33579 0.61385 0.82174 0.0
H1412 H 0.28944 0.72005 0.89855 0.0
H1413 H 0.34502 0.6711 0.75348 0.0
H1414 H 0.32063 0.65234 0.85112 0.0
H1415 H 0.31715 0.73696 0.80147 0.0
C1416 C 0.30118 0.75513 0.83846 0.0
C1417 C 0.29335 0.75103 0.86617 0.0
C1418 C 0.32615 0.65643 0.82974 0.0
C1419 C 0.31317 0.70671 0.8347 0.0
C1420 C 0.33498 0.63452 0.81302 0.0
C1421 C 0.3415 0.63922 0.78503 0.0
C1422 C 0.32389 0.68312 0.81836 0.0
C1423 C 0.33997 0.66641 0.77483 0.0
C1424 C 0.31104 0.73313 0.82273 0.0
C1425 C 0.29518 0.72417 0.87725 0.0
N1426 N 0.3312 0.68725 0.79145 0.0
N1427 N 0.305 0.70299 0.86148 0.0
H1428 H 0.6946 0.22154 0.58288 0.0
H1429 H 0.63434 0.17155 0.729 0.0
H1430 H 0.68278 0.27458 0.65408 0.0
H1431 H 0.64822 0.11562 0.66049 0.0
H1432 H 0.64963 0.20989 0.70022 0.0
H1433 H 0.67682 0.18245 0.60995 0.0
C1434 C 0.68853 0.22495 0.60423 0.0
C1435 C 0.69016 0.25144 0.61618 0.0
C1436 C 0.64922 0.18928 0.69135 0.0
C1437 C 0.6695 0.20698 0.64703 0.0
C1438 C 0.64037 0.16735 0.70778 0.0
C1439 C 0.64019 0.14027 0.69722 0.0
C1440 C 0.65814 0.1842 0.66413 0.0
C1441 C 0.64802 0.13617 0.66948 0.0
C1442 C 0.67822 0.20267 0.61959 0.0
C1443 C 0.68185 0.25462 0.64388 0.0
N1444 N 0.65692 0.15791 0.65392 0.0
N1445 N 0.67184 0.23271 0.65828 0.0
H1446 H 0.77993 0.76543 0.07894 0.0
H1447 H 0.84474 0.81325 0.22332 0.0
H1448 H 0.78586 0.71384 0.15197 0.0
H1449 H 0.82607 0.87113 0.15755 0.0
H1450 H 0.827 0.77584 0.19485 0.0
H1451 H 0.79845 0.8043 0.10576 0.0
C1452 C 0.78475 0.76234 0.10065 0.0
C1453 C 0.78155 0.73625 0.11316 0.0
C1454 C 0.82684 0.79669 0.18654 0.0
C1455 C 0.80312 0.78035 0.14362 0.0
C1456 C 0.83714 0.81808 0.20275 0.0
C1457 C 0.83663 0.84543 0.19291 0.0
C1458 C 0.81589 0.80258 0.16026 0.0
C1459 C 0.82681 0.85034 0.16595 0.0
C1460 C 0.79549 0.78448 0.11585 0.0
C1461 C 0.7882 0.73346 0.14133 0.0
N1462 N 0.81659 0.82908 0.15057 0.0
N1463 N 0.79884 0.75517 0.1555 0.0
H1464 H 0.33368 0.1977 0.21174 0.0
H1465 H 0.33129 0.15421 0.37128 0.0
H1466 H 0.40786 0.19733 0.26185 0.0
H1467 H 0.26411 0.14141 0.31355 0.0
H1468 H 0.36017 0.17078 0.33281 0.0
H1469 H 0.30773 0.17981 0.25077 0.0
C1470 C 0.34455 0.19401 0.23104 0.0
C1471 C 0.37309 0.19884 0.23341 0.0
C1472 C 0.33918 0.16408 0.32865 0.0
C1473 C 0.34331 0.17797 0.27841 0.0
C1474 C 0.32276 0.15444 0.35051 0.0
C1475 C 0.29514 0.14667 0.34567 0.0
C1476 C 0.32777 0.16598 0.30194 0.0
C1477 C 0.28514 0.1475 0.31839 0.0
C1478 C 0.32968 0.18361 0.25335 0.0
C1479 C 0.38588 0.19389 0.25911 0.0
N1480 N 0.30135 0.1572 0.29767 0.0
N1481 N 0.37088 0.18358 0.28067 0.0
H1482 H 0.23189 0.83844 0.81005 0.0
H1483 H 0.08447 0.77919 0.76417 0.0
H1484 H 0.1632 0.829 0.86673 0.0
H1485 H 0.15546 0.78597 0.70999 0.0
H1486 H 0.11254 0.79724 0.80224 0.0
H1487 H 0.20302 0.8209 0.77278 0.0
C1488 C 0.21062 0.83293 0.81463 0.0
C1489 C 0.20001 0.83501 0.84161 0.0
C1490 C 0.12195 0.79462 0.78202 0.0
C1491 C 0.16689 0.81453 0.79901 0.0
C1492 C 0.10602 0.78412 0.76034 0.0
C1493 C 0.11758 0.78124 0.73378 0.0
C1494 C 0.14956 0.80224 0.77705 0.0
C1495 C 0.14558 0.78803 0.73002 0.0
C1496 C 0.19417 0.82277 0.79333 0.0
C1497 C 0.17223 0.82775 0.84623 0.0
N1498 N 0.16054 0.79836 0.75138 0.0
N1499 N 0.15665 0.81761 0.82512 0.0
H1500 H 0.82077 0.33127 0.61734 0.0
H1501 H 0.82585 0.28228 0.77549 0.0
H1502 H 0.75198 0.33639 0.67445 0.0
H1503 H 0.89744 0.28101 0.72169 0.0
H1504 H 0.79829 0.3005 0.73754 0.0
H1505 H 0.84962 0.31301 0.65483 0.0
C1506 C 0.81183 0.32894 0.6378 0.0
C1507 C 0.78386 0.3352 0.64271 0.0
C1508 C 0.82001 0.29616 0.73395 0.0
C1509 C 0.81653 0.31396 0.68541 0.0
C1510 C 0.83576 0.2856 0.75561 0.0
C1511 C 0.86407 0.28028 0.75185 0.0
C1512 C 0.8326 0.30152 0.70828 0.0
C1513 C 0.87568 0.28483 0.72553 0.0
C1514 C 0.82825 0.31831 0.65911 0.0
C1515 C 0.77335 0.33163 0.6696 0.0
N1516 N 0.8599 0.29538 0.70475 0.0
N1517 N 0.78965 0.3211 0.68985 0.0
H1518 H 0.57729 0.69703 0.22306 0.0
H1519 H 0.72427 0.64034 0.17173 0.0
H1520 H 0.65042 0.69019 0.27425 0.0
H1521 H 0.65589 0.65406 0.11565 0.0
H1522 H 0.69539 0.65537 0.21003 0.0
H1523 H 0.60425 0.67988 0.1835 0.0
C1524 C 0.59901 0.69221 0.22594 0.0
C1525 C 0.61156 0.69495 0.25207 0.0
C1526 C 0.68656 0.65502 0.1894 0.0
C1527 C 0.64224 0.67501 0.20717 0.0
C1528 C 0.70305 0.64631 0.16748 0.0
C1529 C 0.69257 0.64616 0.14038 0.0
C1530 C 0.65932 0.66381 0.18431 0.0
C1531 C 0.6648 0.65385 0.13623 0.0
C1532 C 0.6143 0.68226 0.20342 0.0
C1533 C 0.63973 0.68827 0.25461 0.0
N1534 N 0.64915 0.66262 0.15799 0.0
N1535 N 0.65401 0.67853 0.23252 0.0
H1536 H 0.31206 0.25887 0.14689 0.0
H1537 H 0.26234 0.40817 0.19825 0.0
H1538 H 0.36783 0.3286 0.15333 0.0
H1539 H 0.212 0.33416 0.19959 0.0
H1540 H 0.3013 0.38048 0.18109 0.0
H1541 H 0.27465 0.28779 0.16379 0.0
C1542 C 0.31644 0.28036 0.15168 0.0
C1543 C 0.34321 0.29125 0.14885 0.0
C1544 C 0.28173 0.37038 0.18531 0.0
C1545 C 0.30029 0.32456 0.16858 0.0
C1546 C 0.25955 0.38611 0.19526 0.0
C1547 C 0.23379 0.37351 0.20016 0.0
C1548 C 0.27799 0.34197 0.18025 0.0
C1549 C 0.23134 0.34487 0.19585 0.0
C1550 C 0.29502 0.29687 0.16147 0.0
C1551 C 0.34749 0.31934 0.15519 0.0
N1552 N 0.25309 0.33016 0.18602 0.0
N1553 N 0.32623 0.33505 0.16494 0.0
H1554 H 0.86687 0.15244 0.83253 0.0
H1555 H 0.70802 0.15186 0.78706 0.0
H1556 H 0.81044 0.22111 0.84361 0.0
H1557 H 0.75839 0.0778 0.78722 0.0
H1558 H 0.74706 0.17793 0.80495 0.0
H1559 H 0.82835 0.12444 0.81519 0.0
C1560 C 0.84635 0.1615 0.83176 0.0
C1561 C 0.84193 0.18927 0.8393 0.0
C1562 C 0.74966 0.15598 0.80103 0.0
C1563 C 0.7981 0.15758 0.81905 0.0
C1564 C 0.72739 0.14108 0.79062 0.0
C1565 C 0.72984 0.11252 0.78584 0.0
C1566 C 0.77467 0.14231 0.80672 0.0
C1567 C 0.75557 0.09979 0.79063 0.0
C1568 C 0.82445 0.14557 0.82166 0.0
C1569 C 0.81494 0.19992 0.83777 0.0
N1570 N 0.77701 0.11478 0.801 0.0
N1571 N 0.79413 0.18413 0.82761 0.0
H1572 H 0.77574 0.82851 0.28873 0.0
H1573 H 0.61681 0.82413 0.33502 0.0
H1574 H 0.72263 0.90062 0.28794 0.0
H1575 H 0.6724 0.75395 0.33738 0.0
H1576 H 0.65504 0.85299 0.31839 0.0
H1577 H 0.73726 0.80093 0.30571 0.0
C1578 C 0.75592 0.83854 0.29193 0.0
C1579 C 0.75249 0.86699 0.28702 0.0
C1580 C 0.65881 0.83129 0.3227 0.0
C1581 C 0.70827 0.83546 0.30679 0.0
C1582 C 0.63708 0.81486 0.33237 0.0
C1583 C 0.64135 0.78653 0.33745 0.0
C1584 C 0.68491 0.81927 0.31813 0.0
C1585 C 0.66802 0.77561 0.33354 0.0
C1586 C 0.73394 0.82277 0.30176 0.0
C1587 C 0.72624 0.87876 0.29144 0.0
N1588 N 0.6887 0.79197 0.324 0.0
N1589 N 0.70512 0.86294 0.30123 0.0
H1590 H 0.27796 0.65262 0.68802 0.0
H1591 H 0.11714 0.65505 0.64935 0.0
H1592 H 0.22549 0.58031 0.69374 0.0
H1593 H 0.17257 0.72475 0.64031 0.0
H1594 H 0.15632 0.62663 0.6644 0.0
H1595 H 0.23884 0.67916 0.67095 0.0
C1596 C 0.25815 0.64232 0.68589 0.0
C1597 C 0.25507 0.61412 0.69226 0.0
C1598 C 0.15987 0.64809 0.65891 0.0
C1599 C 0.21007 0.64449 0.67236 0.0
C1600 C 0.13757 0.66428 0.65012 0.0
C1601 C 0.14152 0.69241 0.64378 0.0
C1602 C 0.1862 0.66017 0.66135 0.0
C1603 C 0.16844 0.70326 0.64524 0.0
C1604 C 0.2358 0.65751 0.67598 0.0
C1605 C 0.22881 0.60201 0.68914 0.0
N1606 N 0.18967 0.68718 0.65405 0.0
N1607 N 0.20729 0.61727 0.67929 0.0
H1608 H 0.83579 0.61536 0.65919 0.0
H1609 H 0.79395 0.77563 0.65563 0.0
H1610 H 0.84217 0.67116 0.72893 0.0
H1611 H 0.78941 0.7226 0.58361 0.0
H1612 H 0.81111 0.73681 0.68261 0.0
H1613 H 0.8197 0.65405 0.63055 0.0
C1614 C 0.83416 0.63576 0.66841 0.0
C1615 C 0.84019 0.63996 0.69658 0.0
C1616 C 0.80631 0.73357 0.66092 0.0
C1617 C 0.82147 0.68408 0.66408 0.0
C1618 C 0.79637 0.75575 0.64548 0.0
C1619 C 0.79029 0.75245 0.61723 0.0
C1620 C 0.81028 0.70776 0.64812 0.0
C1621 C 0.79378 0.72611 0.60533 0.0
C1622 C 0.8248 0.65777 0.65209 0.0
C1623 C 0.83758 0.66683 0.7074 0.0
N1624 N 0.80367 0.70475 0.62084 0.0
N1625 N 0.82829 0.68777 0.69118 0.0
H1626 H 0.69988 0.26309 0.07734 0.0
H1627 H 0.64348 0.314 0.22422 0.0
H1628 H 0.69973 0.2138 0.15216 0.0
H1629 H 0.65766 0.37065 0.1563 0.0
H1630 H 0.66011 0.27621 0.19562 0.0
H1631 H 0.68256 0.3026 0.10421 0.0
C1632 C 0.69657 0.26066 0.09942 0.0
C1633 C 0.70102 0.23502 0.11247 0.0
C1634 C 0.65956 0.29687 0.18687 0.0
C1635 C 0.68087 0.27978 0.143 0.0
C1636 C 0.64989 0.31849 0.20317 0.0
C1637 C 0.64943 0.3456 0.19274 0.0
C1638 C 0.66889 0.30229 0.15987 0.0
C1639 C 0.65772 0.35005 0.16518 0.0
C1640 C 0.68653 0.28314 0.11465 0.0
C1641 C 0.69632 0.23303 0.1411 0.0
N1642 N 0.66733 0.32857 0.14968 0.0
N1643 N 0.68634 0.25503 0.15531 0.0
H1644 H 0.27703 0.71759 0.32964 0.0
H1645 H 0.32839 0.87466 0.32525 0.0
H1646 H 0.28193 0.76841 0.40321 0.0
H1647 H 0.3369 0.81609 0.258 0.0
H1648 H 0.30926 0.83759 0.3542 0.0
H1649 H 0.29472 0.75598 0.30243 0.0
C1650 C 0.28161 0.73694 0.34006 0.0
C1651 C 0.27831 0.73969 0.3688 0.0
C1652 C 0.31552 0.83294 0.33316 0.0
C1653 C 0.29897 0.78373 0.33773 0.0
C1654 C 0.32662 0.85399 0.31669 0.0
C1655 C 0.33407 0.84852 0.28908 0.0
C1656 C 0.31181 0.80642 0.3218 0.0
C1657 C 0.33121 0.82139 0.27905 0.0
C1658 C 0.29188 0.75883 0.32452 0.0
C1659 C 0.28425 0.76539 0.3811 0.0
N1660 N 0.32014 0.80146 0.29534 0.0
N1661 N 0.29455 0.78644 0.36548 0.0
H1662 H 0.19245 0.27532 0.82986 0.0
H1663 H 0.14831 0.11568 0.8278 0.0
H1664 H 0.19122 0.22478 0.9038 0.0
H1665 H 0.14373 0.17103 0.75753 0.0
H1666 H 0.16411 0.15452 0.85649 0.0
H1667 H 0.17626 0.23598 0.80317 0.0
C1668 C 0.18894 0.25587 0.84052 0.0
C1669 C 0.19307 0.25345 0.8692 0.0
C1670 C 0.15946 0.15809 0.83482 0.0
C1671 C 0.17418 0.20811 0.83858 0.0
C1672 C 0.15027 0.136 0.81848 0.0
C1673 C 0.14483 0.14003 0.79015 0.0
C1674 C 0.16324 0.18428 0.82268 0.0
C1675 C 0.14787 0.1668 0.77918 0.0
C1676 C 0.17956 0.23337 0.82522 0.0
C1677 C 0.18834 0.22758 0.88173 0.0
N1678 N 0.15699 0.18778 0.79541 0.0
N1679 N 0.179 0.20589 0.86633 0.0
H1680 H 0.65972 0.83014 0.61552 0.0
H1681 H 0.655 0.78431 0.77452 0.0
H1682 H 0.72748 0.83941 0.6733 0.0
H1683 H 0.5832 0.78162 0.72111 0.0
H1684 H 0.68214 0.80251 0.73631 0.0
H1685 H 0.63097 0.81215 0.65324 0.0
C1686 C 0.66843 0.82878 0.63617 0.0
C1687 C 0.69612 0.8361 0.64122 0.0
C1688 C 0.66047 0.79789 0.73286 0.0
C1689 C 0.66358 0.81517 0.68416 0.0
C1690 C 0.64496 0.78734 0.75467 0.0
C1691 C 0.6167 0.78162 0.75109 0.0
C1692 C 0.64771 0.80281 0.70719 0.0
C1693 C 0.60492 0.78576 0.7248 0.0
C1694 C 0.65208 0.81832 0.65761 0.0
C1695 C 0.70635 0.83379 0.66834 0.0
N1696 N 0.62048 0.79629 0.70383 0.0
N1697 N 0.69013 0.82337 0.6887 0.0
H1698 H 0.90432 0.19826 0.22519 0.0
H1699 H 0.75647 0.14378 0.17435 0.0
H1700 H 0.83089 0.19469 0.27631 0.0
H1701 H 0.82637 0.15249 0.11909 0.0
H1702 H 0.78497 0.16014 0.21238 0.0
H1703 H 0.87709 0.18095 0.186 0.0
C1704 C 0.88246 0.19416 0.22812 0.0
C1705 C 0.86992 0.19781 0.25414 0.0
C1706 C 0.79419 0.15841 0.19199 0.0
C1707 C 0.83889 0.17766 0.20963 0.0
C1708 C 0.77792 0.14892 0.17023 0.0
C1709 C 0.78897 0.14693 0.14341 0.0
C1710 C 0.82178 0.16607 0.18701 0.0
C1711 C 0.81699 0.15369 0.13944 0.0
C1712 C 0.867 0.1841 0.2058 0.0
C1713 C 0.84155 0.19203 0.25674 0.0
N1714 N 0.83243 0.16317 0.16102 0.0
N1715 N 0.82709 0.18215 0.23483 0.0
H1716 H 0.15276 0.65756 0.36782 0.0
H1717 H 0.15273 0.7018 0.20839 0.0
H1718 H 0.2218 0.64712 0.31175 0.0
H1719 H 0.07794 0.70006 0.25758 0.0
H1720 H 0.17862 0.68489 0.24798 0.0
H1721 H 0.12465 0.67424 0.32892 0.0
C1722 C 0.16188 0.65836 0.34732 0.0
C1723 C 0.18976 0.65115 0.34308 0.0
C1724 C 0.15655 0.68823 0.25022 0.0
C1725 C 0.15798 0.67062 0.29885 0.0
C1726 C 0.14174 0.69806 0.22762 0.0
C1727 C 0.11304 0.70214 0.22957 0.0
C1728 C 0.14267 0.68238 0.2751 0.0
C1729 C 0.10004 0.69718 0.25516 0.0
C1730 C 0.14589 0.66807 0.32521 0.0
C1731 C 0.20052 0.65272 0.31612 0.0
N1732 N 0.11496 0.68737 0.27696 0.0
N1733 N 0.18468 0.66246 0.29513 0.0
H1734 H 0.32214 0.3331 0.87034 0.0
H1735 H 0.32991 0.28568 0.71193 0.0
H1736 H 0.25519 0.34081 0.81139 0.0
H1737 H 0.40085 0.28389 0.76653 0.0
H1738 H 0.30209 0.30424 0.74943 0.0
H1739 H 0.35177 0.31513 0.83326 0.0
C1740 C 0.31378 0.3314 0.84957 0.0
C1741 C 0.28607 0.33827 0.84401 0.0
C1742 C 0.32372 0.29975 0.75331 0.0
C1743 C 0.31962 0.31739 0.8018 0.0
C1744 C 0.33963 0.289 0.73189 0.0
C1745 C 0.36784 0.28338 0.73601 0.0
C1746 C 0.336 0.30499 0.77914 0.0
C1747 C 0.37917 0.28793 0.76243 0.0
C1748 C 0.33064 0.32096 0.8285 0.0
C1749 C 0.27631 0.33553 0.81676 0.0
N1750 N 0.36322 0.29864 0.78302 0.0
N1751 N 0.29301 0.32515 0.79676 0.0
H1752 H 0.77786 0.65163 0.79312 0.0
H1753 H 0.61746 0.65356 0.83343 0.0
H1754 H 0.7255 0.57921 0.78779 0.0
H1755 H 0.67285 0.72335 0.8421 0.0
H1756 H 0.65651 0.62531 0.81777 0.0
H1757 H 0.73882 0.67807 0.81053 0.0
C1758 C 0.75808 0.64129 0.79542 0.0
C1759 C 0.75501 0.61309 0.78908 0.0
C1760 C 0.66007 0.64676 0.82331 0.0
C1761 C 0.71013 0.64332 0.80934 0.0
C1762 C 0.63786 0.66285 0.83244 0.0
C1763 C 0.64184 0.69095 0.83887 0.0
C1764 C 0.68635 0.65891 0.82062 0.0
C1765 C 0.6687 0.70188 0.83711 0.0
C1766 C 0.73579 0.65641 0.80551 0.0
C1767 C 0.7288 0.60091 0.79239 0.0
N1768 N 0.68986 0.68588 0.82798 0.0
N1769 N 0.70733 0.61611 0.80242 0.0
H1770 H 0.27467 0.83296 0.19266 0.0
H1771 H 0.11601 0.82867 0.14577 0.0
H1772 H 0.22253 0.90576 0.19221 0.0
H1773 H 0.17286 0.75972 0.1401 0.0
H1774 H 0.15403 0.85775 0.16264 0.0
H1775 H 0.23631 0.80586 0.17491 0.0
C1776 C 0.25507 0.84327 0.18901 0.0
C1777 C 0.25191 0.87177 0.19382 0.0
C1778 C 0.15812 0.8363 0.1575 0.0
C1779 C 0.20773 0.8407 0.17312 0.0
C1780 C 0.1365 0.81973 0.14769 0.0
C1781 C 0.14119 0.79163 0.14169 0.0
C1782 C 0.18449 0.82461 0.16132 0.0
C1783 C 0.16814 0.78117 0.14469 0.0
C1784 C 0.23315 0.82775 0.17872 0.0
C1785 C 0.22589 0.88384 0.18883 0.0
N1786 N 0.18866 0.7976 0.15444 0.0
N1787 N 0.20478 0.86824 0.17861 0.0
H1788 H 0.26079 0.07745 0.703 0.0
H1789 H 0.31237 0.22334 0.64424 0.0
H1790 H 0.20914 0.15012 0.69435 0.0
H1791 H 0.36746 0.15404 0.65777 0.0
H1792 H 0.27383 0.19517 0.66001 0.0
H1793 H 0.30019 0.10425 0.68571 0.0
C1794 C 0.25779 0.09907 0.69778 0.0
C1795 C 0.23159 0.11151 0.69998 0.0
C1796 C 0.29431 0.18602 0.65944 0.0
C1797 C 0.27632 0.14201 0.67987 0.0
C1798 C 0.31634 0.20208 0.65029 0.0
C1799 C 0.34323 0.1911 0.6499 0.0
C1800 C 0.29914 0.15877 0.66837 0.0
C1801 C 0.34705 0.16334 0.65776 0.0
C1802 C 0.28022 0.11427 0.68774 0.0
C1803 C 0.22887 0.13956 0.69282 0.0
N1804 N 0.32522 0.14814 0.66691 0.0
N1805 N 0.25092 0.15379 0.68298 0.0
H1806 H 0.71305 0.3317 0.28299 0.0
H1807 H 0.86962 0.32677 0.33591 0.0
H1808 H 0.76389 0.40511 0.28905 0.0
H1809 H 0.81183 0.25858 0.34083 0.0
H1810 H 0.83242 0.35609 0.31761 0.0
H1811 H 0.7511 0.30432 0.30105 0.0
C1812 C 0.73232 0.34207 0.28792 0.0
C1813 C 0.73518 0.37082 0.28474 0.0
C1814 C 0.82795 0.33475 0.32291 0.0
C1815 C 0.77891 0.33948 0.3058 0.0
C1816 C 0.84908 0.31806 0.33354 0.0
C1817 C 0.84389 0.2901 0.33972 0.0
C1818 C 0.80161 0.32329 0.31841 0.0
C1819 C 0.81692 0.27991 0.33611 0.0
C1820 C 0.75404 0.32641 0.2984 0.0
C1821 C 0.76079 0.38301 0.29121 0.0
N1822 N 0.79691 0.29644 0.32553 0.0
N1823 N 0.78169 0.36726 0.30164 0.0
loop_
_geom_bond_atom_site_label_1
_geom_bond_atom_site_label_2
_geom_bond_distance
_geom_bond_site_symmetry_2
_ccdc_geom_bond_type
Sc0 O3 2.025 . S
Sc0 O10 2.105 . S
Sc0 O13 2.105 . S
Sc0 O16 2.105 . S
Sc0 O19 2.105 . S
Sc1 O3 2.025 . S
Sc1 O11 2.105 . S
Sc1 O15 2.105 . S
Sc1 O17 2.105 . S
Sc1 O21 2.105 . S
Sc2 O3 2.025 . S
Sc2 O12 2.105 . S
Sc2 O14 2.105 . S
Sc2 O18 2.105 . S
Sc2 O20 2.105 . S
O3 Sc0 2.025 . S
O3 Sc1 2.025 . S
O3 Sc2 2.025 . S
C4 O10 1.268 . S
C4 O20 1.268 . S
C5 O11 1.268 . S
C5 O19 1.268 . S
C6 O12 1.268 . S
C6 O21 1.268 . S
C7 O13 1.268 . S
C7 O17 1.268 . S
C8 O14 1.268 . S
C8 O16 1.268 . S
C9 O15 1.268 . S
C9 O18 1.268 . S
O10 Sc0 2.105 . S
O10 C4 1.268 . S
O11 Sc1 2.105 . S
O11 C5 1.268 . S
O12 Sc2 2.105 . S
O12 C6 1.268 . S
O13 Sc0 2.105 . S
O13 C7 1.268 . S
O14 Sc2 2.105 . S
O14 C8 1.268 . S
O15 Sc1 2.105 . S
O15 C9 1.268 . S
O16 Sc0 2.105 . S
O16 C8 1.268 . S
O17 Sc1 2.105 . S
O17 C7 1.268 . S
O18 Sc2 2.105 . S
O18 C9 1.268 . S
O19 Sc0 2.105 . S
O19 C5 1.268 . S
O20 Sc2 2.105 . S
O20 C4 1.268 . S
O21 Sc1 2.105 . S
O21 C6 1.268 . S
Sc22 O25 2.025 . S
Sc22 O32 2.105 . S
Sc22 O35 2.105 . S
Sc22 O38 2.105 . S
Sc22 O41 2.105 . S
Sc23 O25 2.025 . S
Sc23 O33 2.105 . S
Sc23 O37 2.105 . S
Sc23 O39 2.105 . S
Sc23 O43 2.105 . S
Sc24 O25 2.025 . S
Sc24 O34 2.105 . S
Sc24 O36 2.105 . S
Sc24 O40 2.105 . S
Sc24 O42 2.105 . S
O25 Sc22 2.025 . S
O25 Sc23 2.025 . S
O25 Sc24 2.025 . S
C26 O32 1.268 . S
C26 O42 1.268 . S
C27 O33 1.268 . S
C27 O41 1.268 . S
C28 O34 1.268 . S
C28 O43 1.268 . S
C29 O35 1.268 . S
C29 O39 1.268 . S
C30 O36 1.268 . S
C30 O38 1.268 . S
C31 O37 1.268 . S
C31 O40 1.268 . S
O32 Sc22 2.105 . S
O32 C26 1.268 . S
O33 Sc23 2.105 . S
O33 C27 1.268 . S
O34 Sc24 2.105 . S
O34 C28 1.268 . S
O35 Sc22 2.105 . S
O35 C29 1.268 . S
O36 Sc24 2.105 . S
O36 C30 1.268 . S
O37 Sc23 2.105 . S
O37 C31 1.268 . S
O38 Sc22 2.105 . S
O38 C30 1.268 . S
O39 Sc23 2.105 . S
O39 C29 1.268 . S
O40 Sc24 2.105 . S
O40 C31 1.268 . S
O41 Sc22 2.105 . S
O41 C27 1.268 . S
O42 Sc24 2.105 . S
O42 C26 1.268 . S
O43 Sc23 2.105 . S
O43 C28 1.268 . S
Sc44 O47 2.025 . S
Sc44 O54 2.105 . S
Sc44 O57 2.105 . S
Sc44 O60 2.105 . S
Sc44 O63 2.105 . S
Sc45 O47 2.025 . S
Sc45 O55 2.105 . S
Sc45 O59 2.105 . S
Sc45 O61 2.105 . S
Sc45 O65 2.105 . S
Sc46 O47 2.025 . S
Sc46 O56 2.105 . S
Sc46 O58 2.105 . S
Sc46 O62 2.105 . S
Sc46 O64 2.105 . S
O47 Sc44 2.025 . S
O47 Sc45 2.025 . S
O47 Sc46 2.025 . S
C48 O54 1.268 . S
C48 O64 1.268 . S
C49 O55 1.268 . S
C49 O63 1.268 . S
C50 O56 1.268 . S
C50 O65 1.268 . S
C51 O57 1.268 . S
C51 O61 1.268 . S
C52 O58 1.268 . S
C52 O60 1.268 . S
C53 O59 1.268 . S
C53 O62 1.268 . S
O54 Sc44 2.105 . S
O54 C48 1.268 . S
O55 Sc45 2.105 . S
O55 C49 1.268 . S
O56 Sc46 2.105 . S
O56 C50 1.268 . S
O57 Sc44 2.105 . S
O57 C51 1.268 . S
O58 Sc46 2.105 . S
O58 C52 1.268 . S
O59 Sc45 2.105 . S
O59 C53 1.268 . S
O60 Sc44 2.105 . S
O60 C52 1.268 . S
O61 Sc45 2.105 . S
O61 C51 1.268 . S
O62 Sc46 2.105 . S
O62 C53 1.268 . S
O63 Sc44 2.105 . S
O63 C49 1.268 . S
O64 Sc46 2.105 . S
O64 C48 1.268 . S
O65 Sc45 2.105 . S
O65 C50 1.268 . S
Sc66 O69 2.025 . S
Sc66 O76 2.105 . S
Sc66 O79 2.105 . S
Sc66 O82 2.105 . S
Sc66 O85 2.105 . S
Sc67 O69 2.025 . S
Sc67 O77 2.105 . S
Sc67 O81 2.105 . S
Sc67 O83 2.105 . S
Sc67 O87 2.105 . S
Sc68 O69 2.025 . S
Sc68 O78 2.105 . S
Sc68 O80 2.105 . S
Sc68 O84 2.105 . S
Sc68 O86 2.105 . S
O69 Sc66 2.025 . S
O69 Sc67 2.025 . S
O69 Sc68 2.025 . S
C70 O76 1.268 . S
C70 O86 1.268 . S
C71 O77 1.268 . S
C71 O85 1.268 . S
C72 O78 1.268 . S
C72 O87 1.268 . S
C73 O79 1.268 . S
C73 O83 1.268 . S
C74 O80 1.268 . S
C74 O82 1.268 . S
C75 O81 1.268 . S
C75 O84 1.268 . S
O76 Sc66 2.105 . S
O76 C70 1.268 . S
O77 Sc67 2.105 . S
O77 C71 1.268 . S
O78 Sc68 2.105 . S
O78 C72 1.268 . S
O79 Sc66 2.105 . S
O79 C73 1.268 . S
O80 Sc68 2.105 . S
O80 C74 1.268 . S
O81 Sc67 2.105 . S
O81 C75 1.268 . S
O82 Sc66 2.105 . S
O82 C74 1.268 . S
O83 Sc67 2.105 . S
O83 C73 1.268 . S
O84 Sc68 2.105 . S
O84 C75 1.268 . S
O85 Sc66 2.105 . S
O85 C71 1.268 . S
O86 Sc68 2.105 . S
O86 C70 1.268 . S
O87 Sc67 2.105 . S
O87 C72 1.268 . S
Sc88 O91 2.025 . S
Sc88 O98 2.105 . S
Sc88 O101 2.105 . S
Sc88 O104 2.105 . S
Sc88 O107 2.105 . S
Sc89 O91 2.025 . S
Sc89 O99 2.105 . S
Sc89 O103 2.105 . S
Sc89 O105 2.105 . S
Sc89 O109 2.105 . S
Sc90 O91 2.025 . S
Sc90 O100 2.105 . S
Sc90 O102 2.105 . S
Sc90 O106 2.105 . S
Sc90 O108 2.105 . S
O91 Sc88 2.025 . S
O91 Sc89 2.025 . S
O91 Sc90 2.025 . S
C92 O98 1.268 . S
C92 O108 1.268 . S
C93 O99 1.268 . S
C93 O107 1.268 . S
C94 O100 1.268 . S
C94 O109 1.268 . S
C95 O101 1.268 . S
C95 O105 1.268 . S
C96 O102 1.268 . S
C96 O104 1.268 . S
C97 O103 1.268 . S
C97 O106 1.268 . S
O98 Sc88 2.105 . S
O98 C92 1.268 . S
O99 Sc89 2.105 . S
O99 C93 1.268 . S
O100 Sc90 2.105 . S
O100 C94 1.268 . S
O101 Sc88 2.105 . S
O101 C95 1.268 . S
O102 Sc90 2.105 . S
O102 C96 1.268 . S
O103 Sc89 2.105 . S
O103 C97 1.268 . S
O104 Sc88 2.105 . S
O104 C96 1.268 . S
O105 Sc89 2.105 . S
O105 C95 1.268 . S
O106 Sc90 2.105 . S
O106 C97 1.268 . S
O107 Sc88 2.105 . S
O107 C93 1.268 . S
O108 Sc90 2.105 . S
O108 C92 1.268 . S
O109 Sc89 2.105 . S
O109 C94 1.268 . S
Sc110 O113 2.025 . S
Sc110 O120 2.105 . S
Sc110 O123 2.105 . S
Sc110 O126 2.105 . S
Sc110 O129 2.105 . S
Sc111 O113 2.025 . S
Sc111 O121 2.105 . S
Sc111 O125 2.105 . S
Sc111 O127 2.105 . S
Sc111 O131 2.105 . S
Sc112 O113 2.025 . S
Sc112 O122 2.105 . S
Sc112 O124 2.105 . S
Sc112 O128 2.105 . S
Sc112 O130 2.105 . S
O113 Sc110 2.025 . S
O113 Sc111 2.025 . S
O113 Sc112 2.025 . S
C114 O120 1.268 . S
C114 O130 1.268 . S
C115 O121 1.268 . S
C115 O129 1.268 . S
C116 O122 1.268 . S
C116 O131 1.268 . S
C117 O123 1.268 . S
C117 O127 1.268 . S
C118 O124 1.268 . S
C118 O126 1.268 . S
C119 O125 1.268 . S
C119 O128 1.268 . S
O120 Sc110 2.105 . S
O120 C114 1.268 . S
O121 Sc111 2.105 . S
O121 C115 1.268 . S
O122 Sc112 2.105 . S
O122 C116 1.268 . S
O123 Sc110 2.105 . S
O123 C117 1.268 . S
O124 Sc112 2.105 . S
O124 C118 1.268 . S
O125 Sc111 2.105 . S
O125 C119 1.268 . S
O126 Sc110 2.105 . S
O126 C118 1.268 . S
O127 Sc111 2.105 . S
O127 C117 1.268 . S
O128 Sc112 2.105 . S
O128 C119 1.268 . S
O129 Sc110 2.105 . S
O129 C115 1.268 . S
O130 Sc112 2.105 . S
O130 C114 1.268 . S
O131 Sc111 2.105 . S
O131 C116 1.268 . S
Sc132 O135 2.025 . S
Sc132 O142 2.105 . S
Sc132 O145 2.105 . S
Sc132 O148 2.105 . S
Sc132 O151 2.105 . S
Sc133 O135 2.025 . S
Sc133 O143 2.105 . S
Sc133 O147 2.105 . S
Sc133 O149 2.105 . S
Sc133 O153 2.105 . S
Sc134 O135 2.025 . S
Sc134 O144 2.105 . S
Sc134 O146 2.105 . S
Sc134 O150 2.105 . S
Sc134 O152 2.105 . S
O135 Sc132 2.025 . S
O135 Sc133 2.025 . S
O135 Sc134 2.025 . S
C136 O142 1.268 . S
C136 O152 1.268 . S
C137 O143 1.268 . S
C137 O151 1.268 . S
C138 O144 1.268 . S
C138 O153 1.268 . S
C139 O145 1.268 . S
C139 O149 1.268 . S
C140 O146 1.268 . S
C140 O148 1.268 . S
C141 O147 1.268 . S
C141 O150 1.268 . S
O142 Sc132 2.105 . S
O142 C136 1.268 . S
O143 Sc133 2.105 . S
O143 C137 1.268 . S
O144 Sc134 2.105 . S
O144 C138 1.268 . S
O145 Sc132 2.105 . S
O145 C139 1.268 . S
O146 Sc134 2.105 . S
O146 C140 1.268 . S
O147 Sc133 2.105 . S
O147 C141 1.268 . S
O148 Sc132 2.105 . S
O148 C140 1.268 . S
O149 Sc133 2.105 . S
O149 C139 1.268 . S
O150 Sc134 2.105 . S
O150 C141 1.268 . S
O151 Sc132 2.105 . S
O151 C137 1.268 . S
O152 Sc134 2.105 . S
O152 C136 1.268 . S
O153 Sc133 2.105 . S
O153 C138 1.268 . S
Sc154 O157 2.025 . S
Sc154 O164 2.105 . S
Sc154 O167 2.105 . S
Sc154 O170 2.105 . S
Sc154 O173 2.105 . S
Sc155 O157 2.025 . S
Sc155 O165 2.105 . S
Sc155 O169 2.105 . S
Sc155 O171 2.105 . S
Sc155 O175 2.105 . S
Sc156 O157 2.025 . S
Sc156 O166 2.105 . S
Sc156 O168 2.105 . S
Sc156 O172 2.105 . S
Sc156 O174 2.105 . S
O157 Sc154 2.025 . S
O157 Sc155 2.025 . S
O157 Sc156 2.025 . S
C158 O164 1.268 . S
C158 O174 1.268 . S
C159 O165 1.268 . S
C159 O173 1.268 . S
C160 O166 1.268 . S
C160 O175 1.268 . S
C161 O167 1.268 . S
C161 O171 1.268 . S
C162 O168 1.268 . S
C162 O170 1.268 . S
C163 O169 1.268 . S
C163 O172 1.268 . S
O164 Sc154 2.105 . S
O164 C158 1.268 . S
O165 Sc155 2.105 . S
O165 C159 1.268 . S
O166 Sc156 2.105 . S
O166 C160 1.268 . S
O167 Sc154 2.105 . S
O167 C161 1.268 . S
O168 Sc156 2.105 . S
O168 C162 1.268 . S
O169 Sc155 2.105 . S
O169 C163 1.268 . S
O170 Sc154 2.105 . S
O170 C162 1.268 . S
O171 Sc155 2.105 . S
O171 C161 1.268 . S
O172 Sc156 2.105 . S
O172 C163 1.268 . S
O173 Sc154 2.105 . S
O173 C159 1.268 . S
O174 Sc156 2.105 . S
O174 C158 1.268 . S
O175 Sc155 2.105 . S
O175 C160 1.268 . S
Sc176 O179 2.025 . S
Sc176 O186 2.105 . S
Sc176 O189 2.105 . S
Sc176 O192 2.105 . S
Sc176 O195 2.105 . S
Sc177 O179 2.025 . S
Sc177 O187 2.105 . S
Sc177 O191 2.105 . S
Sc177 O193 2.105 . S
Sc177 O197 2.105 . S
Sc178 O179 2.025 . S
Sc178 O188 2.105 . S
Sc178 O190 2.105 . S
Sc178 O194 2.105 . S
Sc178 O196 2.105 . S
O179 Sc176 2.025 . S
O179 Sc177 2.025 . S
O179 Sc178 2.025 . S
C180 O186 1.268 . S
C180 O196 1.268 . S
C181 O187 1.268 . S
C181 O195 1.268 . S
C182 O188 1.268 . S
C182 O197 1.268 . S
C183 O189 1.268 . S
C183 O193 1.268 . S
C184 O190 1.268 . S
C184 O192 1.268 . S
C185 O191 1.268 . S
C185 O194 1.268 . S
O186 Sc176 2.105 . S
O186 C180 1.268 . S
O187 Sc177 2.105 . S
O187 C181 1.268 . S
O188 Sc178 2.105 . S
O188 C182 1.268 . S
O189 Sc176 2.105 . S
O189 C183 1.268 . S
O190 Sc178 2.105 . S
O190 C184 1.268 . S
O191 Sc177 2.105 . S
O191 C185 1.268 . S
O192 Sc176 2.105 . S
O192 C184 1.268 . S
O193 Sc177 2.105 . S
O193 C183 1.268 . S
O194 Sc178 2.105 . S
O194 C185 1.268 . S
O195 Sc176 2.105 . S
O195 C181 1.268 . S
O196 Sc178 2.105 . S
O196 C180 1.268 . S
O197 Sc177 2.105 . S
O197 C182 1.268 . S
Sc198 O201 2.025 . S
Sc198 O208 2.105 . S
Sc198 O211 2.105 . S
Sc198 O214 2.105 . S
Sc198 O217 2.105 . S
Sc199 O201 2.025 . S
Sc199 O209 2.105 . S
Sc199 O213 2.105 . S
Sc199 O215 2.105 . S
Sc199 O219 2.105 . S
Sc200 O201 2.025 . S
Sc200 O210 2.105 . S
Sc200 O212 2.105 . S
Sc200 O216 2.105 . S
Sc200 O218 2.105 . S
O201 Sc198 2.025 . S
O201 Sc199 2.025 . S
O201 Sc200 2.025 . S
C202 O208 1.268 . S
C202 O218 1.268 . S
C203 O209 1.268 . S
C203 O217 1.268 . S
C204 O210 1.268 . S
C204 O219 1.268 . S
C205 O211 1.268 . S
C205 O215 1.268 . S
C206 O212 1.268 . S
C206 O214 1.268 . S
C207 O213 1.268 . S
C207 O216 1.268 . S
O208 Sc198 2.105 . S
O208 C202 1.268 . S
O209 Sc199 2.105 . S
O209 C203 1.268 . S
O210 Sc200 2.105 . S
O210 C204 1.268 . S
O211 Sc198 2.105 . S
O211 C205 1.268 . S
O212 Sc200 2.105 . S
O212 C206 1.268 . S
O213 Sc199 2.105 . S
O213 C207 1.268 . S
O214 Sc198 2.105 . S
O214 C206 1.268 . S
O215 Sc199 2.105 . S
O215 C205 1.268 . S
O216 Sc200 2.105 . S
O216 C207 1.268 . S
O217 Sc198 2.105 . S
O217 C203 1.268 . S
O218 Sc200 2.105 . S
O218 C202 1.268 . S
O219 Sc199 2.105 . S
O219 C204 1.268 . S
Sc220 O223 2.025 . S
Sc220 O230 2.105 . S
Sc220 O233 2.105 . S
Sc220 O236 2.105 . S
Sc220 O239 2.105 . S
Sc221 O223 2.025 . S
Sc221 O231 2.105 . S
Sc221 O235 2.105 . S
Sc221 O237 2.105 . S
Sc221 O241 2.105 . S
Sc222 O223 2.025 . S
Sc222 O232 2.105 . S
Sc222 O234 2.105 . S
Sc222 O238 2.105 . S
Sc222 O240 2.105 . S
O223 Sc220 2.025 . S
O223 Sc221 2.025 . S
O223 Sc222 2.025 . S
C224 O230 1.268 . S
C224 O240 1.268 . S
C225 O231 1.268 . S
C225 O239 1.268 . S
C226 O232 1.268 . S
C226 O241 1.268 . S
C227 O233 1.268 . S
C227 O237 1.268 . S
C228 O234 1.268 . S
C228 O236 1.268 . S
C229 O235 1.268 . S
C229 O238 1.268 . S
O230 Sc220 2.105 . S
O230 C224 1.268 . S
O231 Sc221 2.105 . S
O231 C225 1.268 . S
O232 Sc222 2.105 . S
O232 C226 1.268 . S
O233 Sc220 2.105 . S
O233 C227 1.268 . S
O234 Sc222 2.105 . S
O234 C228 1.268 . S
O235 Sc221 2.105 . S
O235 C229 1.268 . S
O236 Sc220 2.105 . S
O236 C228 1.268 . S
O237 Sc221 2.105 . S
O237 C227 1.268 . S
O238 Sc222 2.105 . S
O238 C229 1.268 . S
O239 Sc220 2.105 . S
O239 C225 1.268 . S
O240 Sc222 2.105 . S
O240 C224 1.268 . S
O241 Sc221 2.105 . S
O241 C226 1.268 . S
Sc242 O245 2.025 . S
Sc242 O252 2.105 . S
Sc242 O255 2.105 . S
Sc242 O258 2.105 . S
Sc242 O261 2.105 . S
Sc243 O245 2.025 . S
Sc243 O253 2.105 . S
Sc243 O257 2.105 . S
Sc243 O259 2.105 . S
Sc243 O263 2.105 . S
Sc244 O245 2.025 . S
Sc244 O254 2.105 . S
Sc244 O256 2.105 . S
Sc244 O260 2.105 . S
Sc244 O262 2.105 . S
O245 Sc242 2.025 . S
O245 Sc243 2.025 . S
O245 Sc244 2.025 . S
C246 O252 1.268 . S
C246 O262 1.268 . S
C247 O253 1.268 . S
C247 O261 1.268 . S
C248 O254 1.268 . S
C248 O263 1.268 . S
C249 O255 1.268 . S
C249 O259 1.268 . S
C250 O256 1.268 . S
C250 O258 1.268 . S
C251 O257 1.268 . S
C251 O260 1.268 . S
O252 Sc242 2.105 . S
O252 C246 1.268 . S
O253 Sc243 2.105 . S
O253 C247 1.268 . S
O254 Sc244 2.105 . S
O254 C248 1.268 . S
O255 Sc242 2.105 . S
O255 C249 1.268 . S
O256 Sc244 2.105 . S
O256 C250 1.268 . S
O257 Sc243 2.105 . S
O257 C251 1.268 . S
O258 Sc242 2.105 . S
O258 C250 1.268 . S
O259 Sc243 2.105 . S
O259 C249 1.268 . S
O260 Sc244 2.105 . S
O260 C251 1.268 . S
O261 Sc242 2.105 . S
O261 C247 1.268 . S
O262 Sc244 2.105 . S
O262 C246 1.268 . S
O263 Sc243 2.105 . S
O263 C248 1.268 . S
Sc264 O267 2.025 . S
Sc264 O274 2.105 . S
Sc264 O277 2.105 . S
Sc264 O280 2.105 . S
Sc264 O283 2.105 . S
Sc265 O267 2.025 . S
Sc265 O275 2.105 . S
Sc265 O279 2.105 . S
Sc265 O281 2.105 . S
Sc265 O285 2.105 . S
Sc266 O267 2.025 . S
Sc266 O276 2.105 . S
Sc266 O278 2.105 . S
Sc266 O282 2.105 . S
Sc266 O284 2.105 . S
O267 Sc264 2.025 . S
O267 Sc265 2.025 . S
O267 Sc266 2.025 . S
C268 O274 1.268 . S
C268 O284 1.268 . S
C269 O275 1.268 . S
C269 O283 1.268 . S
C270 O276 1.268 . S
C270 O285 1.268 . S
C271 O277 1.268 . S
C271 O281 1.268 . S
C272 O278 1.268 . S
C272 O280 1.268 . S
C273 O279 1.268 . S
C273 O282 1.268 . S
O274 Sc264 2.105 . S
O274 C268 1.268 . S
O275 Sc265 2.105 . S
O275 C269 1.268 . S
O276 Sc266 2.105 . S
O276 C270 1.268 . S
O277 Sc264 2.105 . S
O277 C271 1.268 . S
O278 Sc266 2.105 . S
O278 C272 1.268 . S
O279 Sc265 2.105 . S
O279 C273 1.268 . S
O280 Sc264 2.105 . S
O280 C272 1.268 . S
O281 Sc265 2.105 . S
O281 C271 1.268 . S
O282 Sc266 2.105 . S
O282 C273 1.268 . S
O283 Sc264 2.105 . S
O283 C269 1.268 . S
O284 Sc266 2.105 . S
O284 C268 1.268 . S
O285 Sc265 2.105 . S
O285 C270 1.268 . S
Sc286 O289 2.025 . S
Sc286 O296 2.105 . S
Sc286 O299 2.105 . S
Sc286 O302 2.105 . S
Sc286 O305 2.105 . S
Sc287 O289 2.025 . S
Sc287 O297 2.105 . S
Sc287 O301 2.105 . S
Sc287 O303 2.105 . S
Sc287 O307 2.105 . S
Sc288 O289 2.025 . S
Sc288 O298 2.105 . S
Sc288 O300 2.105 . S
Sc288 O304 2.105 . S
Sc288 O306 2.105 . S
O289 Sc286 2.025 . S
O289 Sc287 2.025 . S
O289 Sc288 2.025 . S
C290 O296 1.268 . S
C290 O306 1.268 . S
C291 O297 1.268 . S
C291 O305 1.268 . S
C292 O298 1.268 . S
C292 O307 1.268 . S
C293 O299 1.268 . S
C293 O303 1.268 . S
C294 O300 1.268 . S
C294 O302 1.268 . S
C295 O301 1.268 . S
C295 O304 1.268 . S
O296 Sc286 2.105 . S
O296 C290 1.268 . S
O297 Sc287 2.105 . S
O297 C291 1.268 . S
O298 Sc288 2.105 . S
O298 C292 1.268 . S
O299 Sc286 2.105 . S
O299 C293 1.268 . S
O300 Sc288 2.105 . S
O300 C294 1.268 . S
O301 Sc287 2.105 . S
O301 C295 1.268 . S
O302 Sc286 2.105 . S
O302 C294 1.268 . S
O303 Sc287 2.105 . S
O303 C293 1.268 . S
O304 Sc288 2.105 . S
O304 C295 1.268 . S
O305 Sc286 2.105 . S
O305 C291 1.268 . S
O306 Sc288 2.105 . S
O306 C290 1.268 . S
O307 Sc287 2.105 . S
O307 C292 1.268 . S
Sc308 O311 2.025 . S
Sc308 O318 2.105 . S
Sc308 O321 2.105 . S
Sc308 O324 2.105 . S
Sc308 O327 2.105 . S
Sc309 O311 2.025 . S
Sc309 O319 2.105 . S
Sc309 O323 2.105 . S
Sc309 O325 2.105 . S
Sc309 O329 2.105 . S
Sc310 O311 2.025 . S
Sc310 O320 2.105 . S
Sc310 O322 2.105 . S
Sc310 O326 2.105 . S
Sc310 O328 2.105 . S
O311 Sc308 2.025 . S
O311 Sc309 2.025 . S
O311 Sc310 2.025 . S
C312 O318 1.268 . S
C312 O328 1.268 . S
C313 O319 1.268 . S
C313 O327 1.268 . S
C314 O320 1.268 . S
C314 O329 1.268 . S
C315 O321 1.268 . S
C315 O325 1.268 . S
C316 O322 1.268 . S
C316 O324 1.268 . S
C317 O323 1.268 . S
C317 O326 1.268 . S
O318 Sc308 2.105 . S
O318 C312 1.268 . S
O319 Sc309 2.105 . S
O319 C313 1.268 . S
O320 Sc310 2.105 . S
O320 C314 1.268 . S
O321 Sc308 2.105 . S
O321 C315 1.268 . S
O322 Sc310 2.105 . S
O322 C316 1.268 . S
O323 Sc309 2.105 . S
O323 C317 1.268 . S
O324 Sc308 2.105 . S
O324 C316 1.268 . S
O325 Sc309 2.105 . S
O325 C315 1.268 . S
O326 Sc310 2.105 . S
O326 C317 1.268 . S
O327 Sc308 2.105 . S
O327 C313 1.268 . S
O328 Sc310 2.105 . S
O328 C312 1.268 . S
O329 Sc309 2.105 . S
O329 C314 1.268 . S
Sc330 O333 2.025 . S
Sc330 O340 2.105 . S
Sc330 O343 2.105 . S
Sc330 O346 2.105 . S
Sc330 O349 2.105 . S
Sc331 O333 2.025 . S
Sc331 O341 2.105 . S
Sc331 O345 2.105 . S
Sc331 O347 2.105 . S
Sc331 O351 2.105 . S
Sc332 O333 2.025 . S
Sc332 O342 2.105 . S
Sc332 O344 2.105 . S
Sc332 O348 2.105 . S
Sc332 O350 2.105 . S
O333 Sc330 2.025 . S
O333 Sc331 2.025 . S
O333 Sc332 2.025 . S
C334 O340 1.268 . S
C334 O350 1.268 . S
C335 O341 1.268 . S
C335 O349 1.268 . S
C336 O342 1.268 . S
C336 O351 1.268 . S
C337 O343 1.268 . S
C337 O347 1.268 . S
C338 O344 1.268 . S
C338 O346 1.268 . S
C339 O345 1.268 . S
C339 O348 1.268 . S
O340 Sc330 2.105 . S
O340 C334 1.268 . S
O341 Sc331 2.105 . S
O341 C335 1.268 . S
O342 Sc332 2.105 . S
O342 C336 1.268 . S
O343 Sc330 2.105 . S
O343 C337 1.268 . S
O344 Sc332 2.105 . S
O344 C338 1.268 . S
O345 Sc331 2.105 . S
O345 C339 1.268 . S
O346 Sc330 2.105 . S
O346 C338 1.268 . S
O347 Sc331 2.105 . S
O347 C337 1.268 . S
O348 Sc332 2.105 . S
O348 C339 1.268 . S
O349 Sc330 2.105 . S
O349 C335 1.268 . S
O350 Sc332 2.105 . S
O350 C334 1.268 . S
O351 Sc331 2.105 . S
O351 C336 1.268 . S
Sc352 O355 2.025 . S
Sc352 O362 2.105 . S
Sc352 O365 2.105 . S
Sc352 O368 2.105 . S
Sc352 O371 2.105 . S
Sc353 O355 2.025 . S
Sc353 O363 2.105 . S
Sc353 O367 2.105 . S
Sc353 O369 2.105 . S
Sc353 O373 2.105 . S
Sc354 O355 2.025 . S
Sc354 O364 2.105 . S
Sc354 O366 2.105 . S
Sc354 O370 2.105 . S
Sc354 O372 2.105 . S
O355 Sc352 2.025 . S
O355 Sc353 2.025 . S
O355 Sc354 2.025 . S
C356 O362 1.268 . S
C356 O372 1.268 . S
C357 O363 1.268 . S
C357 O371 1.268 . S
C358 O364 1.268 . S
C358 O373 1.268 . S
C359 O365 1.268 . S
C359 O369 1.268 . S
C360 O366 1.268 . S
C360 O368 1.268 . S
C361 O367 1.268 . S
C361 O370 1.268 . S
O362 Sc352 2.105 . S
O362 C356 1.268 . S
O363 Sc353 2.105 . S
O363 C357 1.268 . S
O364 Sc354 2.105 . S
O364 C358 1.268 . S
O365 Sc352 2.105 . S
O365 C359 1.268 . S
O366 Sc354 2.105 . S
O366 C360 1.268 . S
O367 Sc353 2.105 . S
O367 C361 1.268 . S
O368 Sc352 2.105 . S
O368 C360 1.268 . S
O369 Sc353 2.105 . S
O369 C359 1.268 . S
O370 Sc354 2.105 . S
O370 C361 1.268 . S
O371 Sc352 2.105 . S
O371 C357 1.268 . S
O372 Sc354 2.105 . S
O372 C356 1.268 . S
O373 Sc353 2.105 . S
O373 C358 1.268 . S
Sc374 O377 2.025 . S
Sc374 O384 2.105 . S
Sc374 O387 2.105 . S
Sc374 O390 2.105 . S
Sc374 O393 2.105 . S
Sc375 O377 2.025 . S
Sc375 O385 2.105 . S
Sc375 O389 2.105 . S
Sc375 O391 2.105 . S
Sc375 O395 2.105 . S
Sc376 O377 2.025 . S
Sc376 O386 2.105 . S
Sc376 O388 2.105 . S
Sc376 O392 2.105 . S
Sc376 O394 2.105 . S
O377 Sc374 2.025 . S
O377 Sc375 2.025 . S
O377 Sc376 2.025 . S
C378 O384 1.268 . S
C378 O394 1.268 . S
C379 O385 1.268 . S
C379 O393 1.268 . S
C380 O386 1.268 . S
C380 O395 1.268 . S
C381 O387 1.268 . S
C381 O391 1.268 . S
C382 O388 1.268 . S
C382 O390 1.268 . S
C383 O389 1.268 . S
C383 O392 1.268 . S
O384 Sc374 2.105 . S
O384 C378 1.268 . S
O385 Sc375 2.105 . S
O385 C379 1.268 . S
O386 Sc376 2.105 . S
O386 C380 1.268 . S
O387 Sc374 2.105 . S
O387 C381 1.268 . S
O388 Sc376 2.105 . S
O388 C382 1.268 . S
O389 Sc375 2.105 . S
O389 C383 1.268 . S
O390 Sc374 2.105 . S
O390 C382 1.268 . S
O391 Sc375 2.105 . S
O391 C381 1.268 . S
O392 Sc376 2.105 . S
O392 C383 1.268 . S
O393 Sc374 2.105 . S
O393 C379 1.268 . S
O394 Sc376 2.105 . S
O394 C378 1.268 . S
O395 Sc375 2.105 . S
O395 C380 1.268 . S
Sc396 O399 2.025 . S
Sc396 O406 2.105 . S
Sc396 O409 2.105 . S
Sc396 O412 2.105 . S
Sc396 O415 2.105 . S
Sc397 O399 2.025 . S
Sc397 O407 2.105 . S
Sc397 O411 2.105 . S
Sc397 O413 2.105 . S
Sc397 O417 2.105 . S
Sc398 O399 2.025 . S
Sc398 O408 2.105 . S
Sc398 O410 2.105 . S
Sc398 O414 2.105 . S
Sc398 O416 2.105 . S
O399 Sc396 2.025 . S
O399 Sc397 2.025 . S
O399 Sc398 2.025 . S
C400 O406 1.268 . S
C400 O416 1.268 . S
C401 O407 1.268 . S
C401 O415 1.268 . S
C402 O408 1.268 . S
C402 O417 1.268 . S
C403 O409 1.268 . S
C403 O413 1.268 . S
C404 O410 1.268 . S
C404 O412 1.268 . S
C405 O411 1.268 . S
C405 O414 1.268 . S
O406 Sc396 2.105 . S
O406 C400 1.268 . S
O407 Sc397 2.105 . S
O407 C401 1.268 . S
O408 Sc398 2.105 . S
O408 C402 1.268 . S
O409 Sc396 2.105 . S
O409 C403 1.268 . S
O410 Sc398 2.105 . S
O410 C404 1.268 . S
O411 Sc397 2.105 . S
O411 C405 1.268 . S
O412 Sc396 2.105 . S
O412 C404 1.268 . S
O413 Sc397 2.105 . S
O413 C403 1.268 . S
O414 Sc398 2.105 . S
O414 C405 1.268 . S
O415 Sc396 2.105 . S
O415 C401 1.268 . S
O416 Sc398 2.105 . S
O416 C400 1.268 . S
O417 Sc397 2.105 . S
O417 C402 1.268 . S
Sc418 O421 2.025 . S
Sc418 O428 2.105 . S
Sc418 O431 2.105 . S
Sc418 O434 2.105 . S
Sc418 O437 2.105 . S
Sc419 O421 2.025 . S
Sc419 O429 2.105 . S
Sc419 O433 2.105 . S
Sc419 O435 2.105 . S
Sc419 O439 2.105 . S
Sc420 O421 2.025 . S
Sc420 O430 2.105 . S
Sc420 O432 2.105 . S
Sc420 O436 2.105 . S
Sc420 O438 2.105 . S
O421 Sc418 2.025 . S
O421 Sc419 2.025 . S
O421 Sc420 2.025 . S
C422 O428 1.268 . S
C422 O438 1.268 . S
C423 O429 1.268 . S
C423 O437 1.268 . S
C424 O430 1.268 . S
C424 O439 1.268 . S
C425 O431 1.268 . S
C425 O435 1.268 . S
C426 O432 1.268 . S
C426 O434 1.268 . S
C427 O433 1.268 . S
C427 O436 1.268 . S
O428 Sc418 2.105 . S
O428 C422 1.268 . S
O429 Sc419 2.105 . S
O429 C423 1.268 . S
O430 Sc420 2.105 . S
O430 C424 1.268 . S
O431 Sc418 2.105 . S
O431 C425 1.268 . S
O432 Sc420 2.105 . S
O432 C426 1.268 . S
O433 Sc419 2.105 . S
O433 C427 1.268 . S
O434 Sc418 2.105 . S
O434 C426 1.268 . S
O435 Sc419 2.105 . S
O435 C425 1.268 . S
O436 Sc420 2.105 . S
O436 C427 1.268 . S
O437 Sc418 2.105 . S
O437 C423 1.268 . S
O438 Sc420 2.105 . S
O438 C422 1.268 . S
O439 Sc419 2.105 . S
O439 C424 1.268 . S
Sc440 O443 2.025 . S
Sc440 O450 2.105 . S
Sc440 O453 2.105 . S
Sc440 O456 2.105 . S
Sc440 O459 2.105 . S
Sc441 O443 2.025 . S
Sc441 O451 2.105 . S
Sc441 O455 2.105 . S
Sc441 O457 2.105 . S
Sc441 O461 2.105 . S
Sc442 O443 2.025 . S
Sc442 O452 2.105 . S
Sc442 O454 2.105 . S
Sc442 O458 2.105 . S
Sc442 O460 2.105 . S
O443 Sc440 2.025 . S
O443 Sc441 2.025 . S
O443 Sc442 2.025 . S
C444 O450 1.268 . S
C444 O460 1.268 . S
C445 O451 1.268 . S
C445 O459 1.268 . S
C446 O452 1.268 . S
C446 O461 1.268 . S
C447 O453 1.268 . S
C447 O457 1.268 . S
C448 O454 1.268 . S
C448 O456 1.268 . S
C449 O455 1.268 . S
C449 O458 1.268 . S
O450 Sc440 2.105 . S
O450 C444 1.268 . S
O451 Sc441 2.105 . S
O451 C445 1.268 . S
O452 Sc442 2.105 . S
O452 C446 1.268 . S
O453 Sc440 2.105 . S
O453 C447 1.268 . S
O454 Sc442 2.105 . S
O454 C448 1.268 . S
O455 Sc441 2.105 . S
O455 C449 1.268 . S
O456 Sc440 2.105 . S
O456 C448 1.268 . S
O457 Sc441 2.105 . S
O457 C447 1.268 . S
O458 Sc442 2.105 . S
O458 C449 1.268 . S
O459 Sc440 2.105 . S
O459 C445 1.268 . S
O460 Sc442 2.105 . S
O460 C444 1.268 . S
O461 Sc441 2.105 . S
O461 C446 1.268 . S
Sc462 O465 2.025 . S
Sc462 O472 2.105 . S
Sc462 O475 2.105 . S
Sc462 O478 2.105 . S
Sc462 O481 2.105 . S
Sc463 O465 2.025 . S
Sc463 O473 2.105 . S
Sc463 O477 2.105 . S
Sc463 O479 2.105 . S
Sc463 O483 2.105 . S
Sc464 O465 2.025 . S
Sc464 O474 2.105 . S
Sc464 O476 2.105 . S
Sc464 O480 2.105 . S
Sc464 O482 2.105 . S
O465 Sc462 2.025 . S
O465 Sc463 2.025 . S
O465 Sc464 2.025 . S
C466 O472 1.268 . S
C466 O482 1.268 . S
C467 O473 1.268 . S
C467 O481 1.268 . S
C468 O474 1.268 . S
C468 O483 1.268 . S
C469 O475 1.268 . S
C469 O479 1.268 . S
C470 O476 1.268 . S
C470 O478 1.268 . S
C471 O477 1.268 . S
C471 O480 1.268 . S
O472 Sc462 2.105 . S
O472 C466 1.268 . S
O473 Sc463 2.105 . S
O473 C467 1.268 . S
O474 Sc464 2.105 . S
O474 C468 1.268 . S
O475 Sc462 2.105 . S
O475 C469 1.268 . S
O476 Sc464 2.105 . S
O476 C470 1.268 . S
O477 Sc463 2.105 . S
O477 C471 1.268 . S
O478 Sc462 2.105 . S
O478 C470 1.268 . S
O479 Sc463 2.105 . S
O479 C469 1.268 . S
O480 Sc464 2.105 . S
O480 C471 1.268 . S
O481 Sc462 2.105 . S
O481 C467 1.268 . S
O482 Sc464 2.105 . S
O482 C466 1.268 . S
O483 Sc463 2.105 . S
O483 C468 1.268 . S
Sc484 O487 2.025 . S
Sc484 O494 2.105 . S
Sc484 O497 2.105 . S
Sc484 O500 2.105 . S
Sc484 O503 2.105 . S
Sc485 O487 2.025 . S
Sc485 O495 2.105 . S
Sc485 O499 2.105 . S
Sc485 O501 2.105 . S
Sc485 O505 2.105 . S
Sc486 O487 2.025 . S
Sc486 O496 2.105 . S
Sc486 O498 2.105 . S
Sc486 O502 2.105 . S
Sc486 O504 2.105 . S
O487 Sc484 2.025 . S
O487 Sc485 2.025 . S
O487 Sc486 2.025 . S
C488 O494 1.268 . S
C488 O504 1.268 . S
C489 O495 1.268 . S
C489 O503 1.268 . S
C490 O496 1.268 . S
C490 O505 1.268 . S
C491 O497 1.268 . S
C491 O501 1.268 . S
C492 O498 1.268 . S
C492 O500 1.268 . S
C493 O499 1.268 . S
C493 O502 1.268 . S
O494 Sc484 2.105 . S
O494 C488 1.268 . S
O495 Sc485 2.105 . S
O495 C489 1.268 . S
O496 Sc486 2.105 . S
O496 C490 1.268 . S
O497 Sc484 2.105 . S
O497 C491 1.268 . S
O498 Sc486 2.105 . S
O498 C492 1.268 . S
O499 Sc485 2.105 . S
O499 C493 1.268 . S
O500 Sc484 2.105 . S
O500 C492 1.268 . S
O501 Sc485 2.105 . S
O501 C491 1.268 . S
O502 Sc486 2.105 . S
O502 C493 1.268 . S
O503 Sc484 2.105 . S
O503 C489 1.268 . S
O504 Sc486 2.105 . S
O504 C488 1.268 . S
O505 Sc485 2.105 . S
O505 C490 1.268 . S
Sc506 O509 2.025 . S
Sc506 O516 2.105 . S
Sc506 O519 2.105 . S
Sc506 O522 2.105 . S
Sc506 O525 2.105 . S
Sc507 O509 2.025 . S
Sc507 O517 2.105 . S
Sc507 O521 2.105 . S
Sc507 O523 2.105 . S
Sc507 O527 2.105 . S
Sc508 O509 2.025 . S
Sc508 O518 2.105 . S
Sc508 O520 2.105 . S
Sc508 O524 2.105 . S
Sc508 O526 2.105 . S
O509 Sc506 2.025 . S
O509 Sc507 2.025 . S
O509 Sc508 2.025 . S
C510 O516 1.268 . S
C510 O526 1.268 . S
C511 O517 1.268 . S
C511 O525 1.268 . S
C512 O518 1.268 . S
C512 O527 1.268 . S
C513 O519 1.268 . S
C513 O523 1.268 . S
C514 O520 1.268 . S
C514 O522 1.268 . S
C515 O521 1.268 . S
C515 O524 1.268 . S
O516 Sc506 2.105 . S
O516 C510 1.268 . S
O517 Sc507 2.105 . S
O517 C511 1.268 . S
O518 Sc508 2.105 . S
O518 C512 1.268 . S
O519 Sc506 2.105 . S
O519 C513 1.268 . S
O520 Sc508 2.105 . S
O520 C514 1.268 . S
O521 Sc507 2.105 . S
O521 C515 1.268 . S
O522 Sc506 2.105 . S
O522 C514 1.268 . S
O523 Sc507 2.105 . S
O523 C513 1.268 . S
O524 Sc508 2.105 . S
O524 C515 1.268 . S
O525 Sc506 2.105 . S
O525 C511 1.268 . S
O526 Sc508 2.105 . S
O526 C510 1.268 . S
O527 Sc507 2.105 . S
O527 C512 1.268 . S
H528 C534 0.930 . S
H529 C538 0.930 . S
H530 C543 0.929 . S
H531 C541 0.929 . S
H532 C536 0.929 . S
H533 C542 0.929 . S
C534 H528 0.930 . S
C534 C535 1.367 . S
C534 C542 1.378 . S
C535 C534 1.367 . S
C535 C543 1.433 . S
C536 H532 0.929 . S
C536 C538 1.378 . S
C536 C540 1.350 . S
C537 C540 1.463 . S
C537 C542 1.350 . S
C537 N545 1.427 . S
C538 H529 0.930 . S
C538 C536 1.378 . S
C538 C539 1.367 . S
C539 C538 1.367 . S
C539 C541 1.433 . S
C540 C536 1.350 . S
C540 C537 1.463 . S
C540 N544 1.427 . S
C541 H531 0.929 . S
C541 C539 1.433 . S
C541 N544 1.384 . S
C542 H533 0.929 . S
C542 C534 1.378 . S
C542 C537 1.350 . S
C543 H530 0.929 . S
C543 C535 1.433 . S
C543 N545 1.384 . S
N544 C540 1.427 . S
N544 C541 1.384 . S
N545 C537 1.427 . S
N545 C543 1.384 . S
H546 C552 0.930 . S
H547 C556 0.930 . S
H548 C561 0.929 . S
H549 C559 0.929 . S
H550 C554 0.929 . S
H551 C560 0.929 . S
C552 H546 0.930 . S
C552 C553 1.367 . S
C552 C560 1.378 . S
C553 C552 1.367 . S
C553 C561 1.433 . S
C554 H550 0.929 . S
C554 C556 1.378 . S
C554 C558 1.350 . S
C555 C558 1.463 . S
C555 C560 1.350 . S
C555 N563 1.427 . S
C556 H547 0.930 . S
C556 C554 1.378 . S
C556 C557 1.367 . S
C557 C556 1.367 . S
C557 C559 1.433 . S
C558 C554 1.350 . S
C558 C555 1.463 . S
C558 N562 1.427 . S
C559 H549 0.929 . S
C559 C557 1.433 . S
C559 N562 1.384 . S
C560 H551 0.929 . S
C560 C552 1.378 . S
C560 C555 1.350 . S
C561 H548 0.929 . S
C561 C553 1.433 . S
C561 N563 1.384 . S
N562 C558 1.427 . S
N562 C559 1.384 . S
N563 C555 1.427 . S
N563 C561 1.384 . S
H564 C570 0.930 . S
H565 C574 0.930 . S
H566 C579 0.929 . S
H567 C577 0.929 . S
H568 C572 0.929 . S
H569 C578 0.929 . S
C570 H564 0.930 . S
C570 C571 1.367 . S
C570 C578 1.378 . S
C571 C570 1.367 . S
C571 C579 1.433 . S
C572 H568 0.929 . S
C572 C574 1.378 1_565 S
C572 C576 1.350 . S
C573 C576 1.463 . S
C573 C578 1.350 . S
C573 N581 1.427 . S
C574 H565 0.930 . S
C574 C572 1.378 1_545 S
C574 C575 1.367 . S
C575 C574 1.367 . S
C575 C577 1.433 1_545 S
C576 C572 1.350 . S
C576 C573 1.463 . S
C576 N580 1.427 . S
C577 H567 0.929 . S
C577 C575 1.433 1_565 S
C577 N580 1.384 . S
C578 H569 0.929 . S
C578 C570 1.378 . S
C578 C573 1.350 . S
C579 H566 0.929 . S
C579 C571 1.433 . S
C579 N581 1.384 . S
N580 C576 1.427 . S
N580 C577 1.384 . S
N581 C573 1.427 . S
N581 C579 1.384 . S
H582 C588 0.930 . S
H583 C592 0.930 . S
H584 C597 0.929 . S
H585 C595 0.929 . S
H586 C590 0.929 . S
H587 C596 0.929 . S
C588 H582 0.930 . S
C588 C589 1.367 . S
C588 C596 1.378 1_565 S
C589 C588 1.367 . S
C589 C597 1.433 . S
C590 H586 0.929 . S
C590 C592 1.378 . S
C590 C594 1.350 . S
C591 C594 1.463 . S
C591 C596 1.350 . S
C591 N599 1.427 . S
C592 H583 0.930 . S
C592 C590 1.378 . S
C592 C593 1.367 . S
C593 C592 1.367 . S
C593 C595 1.433 . S
C594 C590 1.350 . S
C594 C591 1.463 . S
C594 N598 1.427 . S
C595 H585 0.929 . S
C595 C593 1.433 . S
C595 N598 1.384 . S
C596 H587 0.929 . S
C596 C588 1.378 1_545 S
C596 C591 1.350 . S
C597 H584 0.929 . S
C597 C589 1.433 . S
C597 N599 1.384 1_565 S
N598 C594 1.427 . S
N598 C595 1.384 . S
N599 C591 1.427 . S
N599 C597 1.384 1_545 S
H600 C606 0.930 . S
H601 C610 0.930 . S
H602 C615 0.929 . S
H603 C613 0.929 . S
H604 C608 0.929 . S
H605 C614 0.929 . S
C606 H600 0.930 . S
C606 C607 1.367 . S
C606 C614 1.378 . S
C607 C606 1.367 . S
C607 C615 1.433 . S
C608 H604 0.929 . S
C608 C610 1.378 . S
C608 C612 1.350 . S
C609 C612 1.463 . S
C609 C614 1.350 . S
C609 N617 1.427 . S
C610 H601 0.930 . S
C610 C608 1.378 . S
C610 C611 1.367 . S
C611 C610 1.367 . S
C611 C613 1.433 . S
C612 C608 1.350 . S
C612 C609 1.463 . S
C612 N616 1.427 . S
C613 H603 0.929 . S
C613 C611 1.433 . S
C613 N616 1.384 . S
C614 H605 0.929 . S
C614 C606 1.378 . S
C614 C609 1.350 . S
C615 H602 0.929 . S
C615 C607 1.433 . S
C615 N617 1.384 . S
N616 C612 1.427 . S
N616 C613 1.384 . S
N617 C609 1.427 . S
N617 C615 1.384 . S
H618 C624 0.930 . S
H619 C628 0.930 . S
H620 C633 0.929 . S
H621 C631 0.929 . S
H622 C626 0.929 1_556 S
H623 C632 0.929 . S
C624 H618 0.930 . S
C624 C625 1.367 . S
C624 C632 1.378 . S
C625 C624 1.367 . S
C625 C633 1.433 . S
C626 H622 0.929 1_554 S
C626 C628 1.378 1_554 S
C626 C630 1.350 . S
C627 C630 1.463 . S
C627 C632 1.350 . S
C627 N635 1.427 . S
C628 H619 0.930 . S
C628 C626 1.378 1_556 S
C628 C629 1.367 . S
C629 C628 1.367 . S
C629 C631 1.433 1_556 S
C630 C626 1.350 . S
C630 C627 1.463 . S
C630 N634 1.427 . S
C631 H621 0.929 . S
C631 C629 1.433 1_554 S
C631 N634 1.384 . S
C632 H623 0.929 . S
C632 C624 1.378 . S
C632 C627 1.350 . S
C633 H620 0.929 . S
C633 C625 1.433 . S
C633 N635 1.384 . S
N634 C630 1.427 . S
N634 C631 1.384 . S
N635 C627 1.427 . S
N635 C633 1.384 . S
H636 C642 0.930 . S
H637 C646 0.930 . S
H638 C651 0.929 . S
H639 C649 0.929 . S
H640 C644 0.929 . S
H641 C650 0.929 . S
C642 H636 0.930 . S
C642 C643 1.367 . S
C642 C650 1.378 . S
C643 C642 1.367 . S
C643 C651 1.433 . S
C644 H640 0.929 . S
C644 C646 1.378 . S
C644 C648 1.350 . S
C645 C648 1.463 . S
C645 C650 1.350 . S
C645 N653 1.427 . S
C646 H637 0.930 . S
C646 C644 1.378 . S
C646 C647 1.367 . S
C647 C646 1.367 . S
C647 C649 1.433 . S
C648 C644 1.350 . S
C648 C645 1.463 . S
C648 N652 1.427 . S
C649 H639 0.929 . S
C649 C647 1.433 . S
C649 N652 1.384 . S
C650 H641 0.929 . S
C650 C642 1.378 . S
C650 C645 1.350 . S
C651 H638 0.929 . S
C651 C643 1.433 . S
C651 N653 1.384 . S
N652 C648 1.427 . S
N652 C649 1.384 . S
N653 C645 1.427 . S
N653 C651 1.384 . S
H654 C660 0.930 . S
H655 C664 0.930 . S
H656 C669 0.929 . S
H657 C667 0.929 . S
H658 C662 0.929 . S
H659 C668 0.929 . S
C660 H654 0.930 . S
C660 C661 1.367 . S
C660 C668 1.378 . S
C661 C660 1.367 . S
C661 C669 1.433 . S
C662 H658 0.929 . S
C662 C664 1.378 1_556 S
C662 C666 1.350 . S
C663 C666 1.463 . S
C663 C668 1.350 . S
C663 N671 1.427 . S
C664 H655 0.930 . S
C664 C662 1.378 1_554 S
C664 C665 1.367 . S
C665 C664 1.367 . S
C665 C667 1.433 1_554 S
C666 C662 1.350 . S
C666 C663 1.463 . S
C666 N670 1.427 . S
C667 H657 0.929 . S
C667 C665 1.433 1_556 S
C667 N670 1.384 . S
C668 H659 0.929 . S
C668 C660 1.378 . S
C668 C663 1.350 . S
C669 H656 0.929 . S
C669 C661 1.433 . S
C669 N671 1.384 . S
N670 C666 1.427 . S
N670 C667 1.384 . S
N671 C663 1.427 . S
N671 C669 1.384 . S
H672 C678 0.930 . S
H673 C682 0.930 . S
H674 C687 0.929 . S
H675 C685 0.929 . S
H676 C680 0.929 . S
H677 C686 0.929 . S
C678 H672 0.930 . S
C678 C679 1.367 . S
C678 C686 1.378 . S
C679 C678 1.367 . S
C679 C687 1.433 . S
C680 H676 0.929 . S
C680 C682 1.378 . S
C680 C684 1.350 . S
C681 C684 1.463 . S
C681 C686 1.350 . S
C681 N689 1.427 . S
C682 H673 0.930 . S
C682 C680 1.378 . S
C682 C683 1.367 . S
C683 C682 1.367 . S
C683 C685 1.433 . S
C684 C680 1.350 . S
C684 C681 1.463 . S
C684 N688 1.427 . S
C685 H675 0.929 . S
C685 C683 1.433 . S
C685 N688 1.384 . S
C686 H677 0.929 . S
C686 C678 1.378 . S
C686 C681 1.350 . S
C687 H674 0.929 . S
C687 C679 1.433 . S
C687 N689 1.384 . S
N688 C684 1.427 . S
N688 C685 1.384 . S
N689 C681 1.427 . S
N689 C687 1.384 . S
H690 C696 0.930 . S
H691 C700 0.930 . S
H692 C705 0.929 . S
H693 C703 0.929 . S
H694 C698 0.929 . S
H695 C704 0.929 . S
C696 H690 0.930 . S
C696 C697 1.367 . S
C696 C704 1.378 1_655 S
C697 C696 1.367 . S
C697 C705 1.433 1_655 S
C698 H694 0.929 . S
C698 C700 1.378 . S
C698 C702 1.350 . S
C699 C702 1.463 . S
C699 C704 1.350 . S
C699 N707 1.427 . S
C700 H691 0.930 . S
C700 C698 1.378 . S
C700 C701 1.367 . S
C701 C700 1.367 . S
C701 C703 1.433 . S
C702 C698 1.350 . S
C702 C699 1.463 . S
C702 N706 1.427 . S
C703 H693 0.929 . S
C703 C701 1.433 . S
C703 N706 1.384 . S
C704 H695 0.929 . S
C704 C696 1.378 1_455 S
C704 C699 1.350 . S
C705 H692 0.929 . S
C705 C697 1.433 1_455 S
C705 N707 1.384 . S
N706 C702 1.427 . S
N706 C703 1.384 . S
N707 C699 1.427 . S
N707 C705 1.384 . S
H708 C714 0.930 . S
H709 C718 0.930 . S
H710 C723 0.929 . S
H711 C721 0.929 . S
H712 C716 0.929 . S
H713 C722 0.929 . S
C714 H708 0.930 . S
C714 C715 1.367 . S
C714 C722 1.378 . S
C715 C714 1.367 . S
C715 C723 1.433 . S
C716 H712 0.929 . S
C716 C718 1.378 . S
C716 C720 1.350 . S
C717 C720 1.463 . S
C717 C722 1.350 . S
C717 N725 1.427 . S
C718 H709 0.930 . S
C718 C716 1.378 . S
C718 C719 1.367 . S
C719 C718 1.367 . S
C719 C721 1.433 . S
C720 C716 1.350 . S
C720 C717 1.463 . S
C720 N724 1.427 . S
C721 H711 0.929 . S
C721 C719 1.433 . S
C721 N724 1.384 . S
C722 H713 0.929 . S
C722 C714 1.378 . S
C722 C717 1.350 . S
C723 H710 0.929 . S
C723 C715 1.433 . S
C723 N725 1.384 . S
N724 C720 1.427 . S
N724 C721 1.384 . S
N725 C717 1.427 . S
N725 C723 1.384 . S
H726 C732 0.930 . S
H727 C736 0.930 . S
H728 C741 0.929 . S
H729 C739 0.929 . S
H730 C734 0.929 . S
H731 C740 0.929 . S
C732 H726 0.930 . S
C732 C733 1.367 . S
C732 C740 1.378 . S
C733 C732 1.367 . S
C733 C741 1.433 . S
C734 H730 0.929 . S
C734 C736 1.378 . S
C734 C738 1.350 . S
C735 C738 1.463 . S
C735 C740 1.350 . S
C735 N743 1.427 . S
C736 H727 0.930 . S
C736 C734 1.378 . S
C736 C737 1.367 1_655 S
C737 C736 1.367 1_455 S
C737 C739 1.433 . S
C738 C734 1.350 . S
C738 C735 1.463 . S
C738 N742 1.427 . S
C739 H729 0.929 . S
C739 C737 1.433 . S
C739 N742 1.384 1_455 S
C740 H731 0.929 . S
C740 C732 1.378 . S
C740 C735 1.350 . S
C741 H728 0.929 . S
C741 C733 1.433 . S
C741 N743 1.384 . S
N742 C738 1.427 . S
N742 C739 1.384 1_655 S
N743 C735 1.427 . S
N743 C741 1.384 . S
H744 C750 0.930 . S
H745 C754 0.930 . S
H746 C759 0.929 . S
H747 C757 0.929 . S
H748 C752 0.929 . S
H749 C758 0.929 . S
C750 H744 0.930 . S
C750 C751 1.367 . S
C750 C758 1.378 . S
C751 C750 1.367 . S
C751 C759 1.433 . S
C752 H748 0.929 . S
C752 C754 1.378 . S
C752 C756 1.350 . S
C753 C756 1.463 . S
C753 C758 1.350 . S
C753 N761 1.427 . S
C754 H745 0.930 . S
C754 C752 1.378 . S
C754 C755 1.367 . S
C755 C754 1.367 . S
C755 C757 1.433 . S
C756 C752 1.350 . S
C756 C753 1.463 . S
C756 N760 1.427 . S
C757 H747 0.929 . S
C757 C755 1.433 . S
C757 N760 1.384 . S
C758 H749 0.929 . S
C758 C750 1.378 . S
C758 C753 1.350 . S
C759 H746 0.929 . S
C759 C751 1.433 . S
C759 N761 1.384 . S
N760 C756 1.427 . S
N760 C757 1.384 . S
N761 C753 1.427 . S
N761 C759 1.384 . S
H762 C768 0.930 . S
H763 C772 0.930 . S
H764 C777 0.929 . S
H765 C775 0.929 . S
H766 C770 0.929 . S
H767 C776 0.929 . S
C768 H762 0.930 . S
C768 C769 1.367 . S
C768 C776 1.378 . S
C769 C768 1.367 . S
C769 C777 1.433 . S
C770 H766 0.929 . S
C770 C772 1.378 . S
C770 C774 1.350 . S
C771 C774 1.463 . S
C771 C776 1.350 . S
C771 N779 1.427 . S
C772 H763 0.930 . S
C772 C770 1.378 . S
C772 C773 1.367 . S
C773 C772 1.367 . S
C773 C775 1.433 . S
C774 C770 1.350 . S
C774 C771 1.463 . S
C774 N778 1.427 . S
C775 H765 0.929 . S
C775 C773 1.433 . S
C775 N778 1.384 . S
C776 H767 0.929 . S
C776 C768 1.378 . S
C776 C771 1.350 . S
C777 H764 0.929 . S
C777 C769 1.433 . S
C777 N779 1.384 . S
N778 C774 1.427 . S
N778 C775 1.384 . S
N779 C771 1.427 . S
N779 C777 1.384 . S
H780 C786 0.930 . S
H781 C790 0.930 . S
H782 C795 0.929 . S
H783 C793 0.929 . S
H784 C788 0.929 . S
H785 C794 0.929 . S
C786 H780 0.930 . S
C786 C787 1.367 . S
C786 C794 1.378 . S
C787 C786 1.367 . S
C787 C795 1.433 . S
C788 H784 0.929 . S
C788 C790 1.378 . S
C788 C792 1.350 . S
C789 C792 1.463 . S
C789 C794 1.350 . S
C789 N797 1.427 . S
C790 H781 0.930 . S
C790 C788 1.378 . S
C790 C791 1.367 1_545 S
C791 C790 1.367 1_565 S
C791 C793 1.433 . S
C792 C788 1.350 . S
C792 C789 1.463 . S
C792 N796 1.427 1_545 S
C793 H783 0.929 . S
C793 C791 1.433 . S
C793 N796 1.384 . S
C794 H785 0.929 . S
C794 C786 1.378 . S
C794 C789 1.350 . S
C795 H782 0.929 . S
C795 C787 1.433 . S
C795 N797 1.384 . S
N796 C792 1.427 1_565 S
N796 C793 1.384 . S
N797 C789 1.427 . S
N797 C795 1.384 . S
H798 C804 0.930 . S
H799 C808 0.930 . S
H800 C813 0.929 . S
H801 C811 0.929 . S
H802 C806 0.929 1_545 S
H803 C812 0.929 . S
C804 H798 0.930 . S
C804 C805 1.367 . S
C804 C812 1.378 . S
C805 C804 1.367 . S
C805 C813 1.433 . S
C806 H802 0.929 1_565 S
C806 C808 1.378 1_565 S
C806 C810 1.350 . S
C807 C810 1.463 . S
C807 C812 1.350 . S
C807 N815 1.427 . S
C808 H799 0.930 . S
C808 C806 1.378 1_545 S
C808 C809 1.367 . S
C809 C808 1.367 . S
C809 C811 1.433 1_545 S
C810 C806 1.350 . S
C810 C807 1.463 . S
C810 N814 1.427 . S
C811 H801 0.929 . S
C811 C809 1.433 1_565 S
C811 N814 1.384 . S
C812 H803 0.929 . S
C812 C804 1.378 . S
C812 C807 1.350 . S
C813 H800 0.929 . S
C813 C805 1.433 . S
C813 N815 1.384 . S
N814 C810 1.427 . S
N814 C811 1.384 . S
N815 C807 1.427 . S
N815 C813 1.384 . S
H816 C822 0.930 . S
H817 C826 0.930 . S
H818 C831 0.929 . S
H819 C829 0.929 . S
H820 C824 0.929 . S
H821 C830 0.929 . S
C822 H816 0.930 . S
C822 C823 1.367 . S
C822 C830 1.378 . S
C823 C822 1.367 . S
C823 C831 1.433 . S
C824 H820 0.929 . S
C824 C826 1.378 . S
C824 C828 1.350 . S
C825 C828 1.463 . S
C825 C830 1.350 . S
C825 N833 1.427 . S
C826 H817 0.930 . S
C826 C824 1.378 . S
C826 C827 1.367 . S
C827 C826 1.367 . S
C827 C829 1.433 . S
C828 C824 1.350 . S
C828 C825 1.463 . S
C828 N832 1.427 . S
C829 H819 0.929 . S
C829 C827 1.433 . S
C829 N832 1.384 . S
C830 H821 0.929 . S
C830 C822 1.378 . S
C830 C825 1.350 . S
C831 H818 0.929 . S
C831 C823 1.433 . S
C831 N833 1.384 . S
N832 C828 1.427 . S
N832 C829 1.384 . S
N833 C825 1.427 . S
N833 C831 1.384 . S
H834 C840 0.930 . S
H835 C844 0.930 . S
H836 C849 0.929 . S
H837 C847 0.933 . S
H838 C842 0.929 . S
H839 C848 0.929 . S
C840 H834 0.930 . S
C840 C841 1.367 . S
C840 C848 1.378 . S
C841 C840 1.367 . S
C841 C849 1.433 . S
C842 H838 0.929 . S
C842 C844 1.378 1_556 S
C842 C846 1.350 . S
C843 C846 1.463 . S
C843 C848 1.350 . S
C843 N851 1.427 . S
C844 H835 0.930 . S
C844 C842 1.378 1_554 S
C844 C845 1.367 . S
C845 C844 1.367 . S
C845 C847 1.441 . S
C846 C842 1.350 . S
C846 C843 1.463 . S
C846 N850 1.427 . S
C847 H837 0.933 . S
C847 C845 1.441 . S
C847 N850 1.372 1_554 S
C848 H839 0.929 . S
C848 C840 1.378 . S
C848 C843 1.350 . S
C849 H836 0.929 . S
C849 C841 1.433 . S
C849 N851 1.384 . S
N850 C846 1.427 . S
N850 C847 1.372 1_556 S
N851 C843 1.427 . S
N851 C849 1.384 . S
H852 C858 0.930 . S
H853 C862 0.930 . S
H854 C867 0.929 . S
H855 C865 0.929 . S
H856 C860 0.929 . S
H857 C866 0.929 . S
C858 H852 0.930 . S
C858 C859 1.367 . S
C858 C866 1.378 . S
C859 C858 1.367 . S
C859 C867 1.433 . S
C860 H856 0.929 . S
C860 C862 1.378 . S
C860 C864 1.350 . S
C861 C864 1.463 . S
C861 C866 1.350 . S
C861 N869 1.427 . S
C862 H853 0.930 . S
C862 C860 1.378 . S
C862 C863 1.367 . S
C863 C862 1.367 . S
C863 C865 1.433 . S
C864 C860 1.350 . S
C864 C861 1.463 . S
C864 N868 1.427 . S
C865 H855 0.929 . S
C865 C863 1.433 . S
C865 N868 1.384 . S
C866 H857 0.929 . S
C866 C858 1.378 . S
C866 C861 1.350 . S
C867 H854 0.929 . S
C867 C859 1.433 . S
C867 N869 1.384 . S
N868 C864 1.427 . S
N868 C865 1.384 . S
N869 C861 1.427 . S
N869 C867 1.384 . S
H870 C876 0.930 . S
H871 C880 0.930 . S
H872 C885 0.929 . S
H873 C883 0.929 . S
H874 C878 0.929 . S
H875 C884 0.929 . S
C876 H870 0.930 . S
C876 C877 1.367 1_554 S
C876 C884 1.378 . S
C877 C876 1.367 1_556 S
C877 C885 1.433 . S
C878 H874 0.929 . S
C878 C880 1.378 . S
C878 C882 1.350 . S
C879 C882 1.463 . S
C879 C884 1.350 . S
C879 N887 1.427 1_554 S
C880 H871 0.930 . S
C880 C878 1.378 . S
C880 C881 1.367 . S
C881 C880 1.367 . S
C881 C883 1.433 . S
C882 C878 1.350 . S
C882 C879 1.463 . S
C882 N886 1.427 . S
C883 H873 0.929 . S
C883 C881 1.433 . S
C883 N886 1.384 . S
C884 H875 0.929 . S
C884 C876 1.378 . S
C884 C879 1.350 . S
C885 H872 0.929 . S
C885 C877 1.433 . S
C885 N887 1.384 . S
N886 C882 1.427 . S
N886 C883 1.384 . S
N887 C879 1.427 1_556 S
N887 C885 1.384 . S
H888 C894 0.930 . S
H889 C898 0.930 . S
H890 C903 0.929 . S
H891 C901 0.929 . S
H892 C896 0.929 . S
H893 C902 0.929 . S
C894 H888 0.930 . S
C894 C895 1.367 . S
C894 C902 1.378 . S
C895 C894 1.367 . S
C895 C903 1.433 . S
C896 H892 0.929 . S
C896 C898 1.378 . S
C896 C900 1.350 . S
C897 C900 1.463 . S
C897 C902 1.350 . S
C897 N905 1.427 . S
C898 H889 0.930 . S
C898 C896 1.378 . S
C898 C899 1.367 . S
C899 C898 1.367 . S
C899 C901 1.433 . S
C900 C896 1.350 . S
C900 C897 1.463 . S
C900 N904 1.427 . S
C901 H891 0.929 . S
C901 C899 1.433 . S
C901 N904 1.384 . S
C902 H893 0.929 . S
C902 C894 1.378 . S
C902 C897 1.350 . S
C903 H890 0.929 . S
C903 C895 1.433 . S
C903 N905 1.384 . S
N904 C900 1.427 . S
N904 C901 1.384 . S
N905 C897 1.427 . S
N905 C903 1.384 . S
H906 C912 0.930 . S
H907 C916 0.930 . S
H908 C921 0.929 . S
H909 C919 0.929 . S
H910 C914 0.929 . S
H911 C920 0.929 . S
C912 H906 0.930 . S
C912 C913 1.367 1_655 S
C912 C920 1.378 . S
C913 C912 1.367 1_455 S
C913 C921 1.433 . S
C914 H910 0.929 . S
C914 C916 1.378 . S
C914 C918 1.350 . S
C915 C918 1.463 . S
C915 C920 1.350 . S
C915 N923 1.427 . S
C916 H907 0.930 . S
C916 C914 1.378 . S
C916 C917 1.367 . S
C917 C916 1.367 . S
C917 C919 1.433 . S
C918 C914 1.350 . S
C918 C915 1.463 . S
C918 N922 1.427 . S
C919 H909 0.929 . S
C919 C917 1.433 . S
C919 N922 1.384 . S
C920 H911 0.929 . S
C920 C912 1.378 . S
C920 C915 1.350 . S
C921 H908 0.929 . S
C921 C913 1.433 . S
C921 N923 1.384 1_455 S
N922 C918 1.427 . S
N922 C919 1.384 . S
N923 C915 1.427 . S
N923 C921 1.384 1_655 S
H924 C930 0.930 . S
H925 C934 0.930 . S
H926 C939 0.929 . S
H927 C937 0.929 . S
H928 C932 0.929 . S
H929 C938 0.929 . S
C930 H924 0.930 . S
C930 C931 1.367 . S
C930 C938 1.378 . S
C931 C930 1.367 . S
C931 C939 1.433 . S
C932 H928 0.929 . S
C932 C934 1.378 . S
C932 C936 1.350 . S
C933 C936 1.463 . S
C933 C938 1.350 . S
C933 N941 1.427 . S
C934 H925 0.930 . S
C934 C932 1.378 . S
C934 C935 1.367 . S
C935 C934 1.367 . S
C935 C937 1.433 . S
C936 C932 1.350 . S
C936 C933 1.463 . S
C936 N940 1.427 . S
C937 H927 0.929 . S
C937 C935 1.433 . S
C937 N940 1.384 . S
C938 H929 0.929 . S
C938 C930 1.378 . S
C938 C933 1.350 . S
C939 H926 0.929 . S
C939 C931 1.433 . S
C939 N941 1.384 . S
N940 C936 1.427 . S
N940 C937 1.384 . S
N941 C933 1.427 . S
N941 C939 1.384 . S
H942 C948 0.930 . S
H943 C952 0.930 . S
H944 C957 0.929 . S
H945 C955 0.929 . S
H946 C950 0.937 . S
H947 C956 0.929 . S
C948 H942 0.930 . S
C948 C949 1.367 . S
C948 C956 1.378 . S
C949 C948 1.367 . S
C949 C957 1.433 . S
C950 H946 0.937 . S
C950 C952 1.405 . S
C950 C954 1.315 1_655 S
C951 C954 1.463 . S
C951 C956 1.350 . S
C951 N959 1.427 . S
C952 H943 0.930 . S
C952 C950 1.405 . S
C952 C953 1.367 . S
C953 C952 1.367 . S
C953 C955 1.433 1_655 S
C954 C950 1.315 1_455 S
C954 C951 1.463 . S
C954 N958 1.427 . S
C955 H945 0.929 . S
C955 C953 1.433 1_455 S
C955 N958 1.384 . S
C956 H947 0.929 . S
C956 C948 1.378 . S
C956 C951 1.350 . S
C957 H944 0.929 . S
C957 C949 1.433 . S
C957 N959 1.384 . S
N958 C954 1.427 . S
N958 C955 1.384 . S
N959 C951 1.427 . S
N959 C957 1.384 . S
H960 C966 0.930 . S
H961 C970 0.930 . S
H962 C975 0.929 1_556 S
H963 C973 0.929 . S
H964 C968 0.929 . S
H965 C974 0.929 . S
C966 H960 0.930 . S
C966 C967 1.367 1_554 S
C966 C974 1.378 . S
C967 C966 1.367 1_556 S
C967 C975 1.433 1_556 S
C968 H964 0.929 . S
C968 C970 1.378 . S
C968 C972 1.350 . S
C969 C972 1.463 . S
C969 C974 1.350 . S
C969 N977 1.427 . S
C970 H961 0.930 . S
C970 C968 1.378 . S
C970 C971 1.367 . S
C971 C970 1.367 . S
C971 C973 1.433 . S
C972 C968 1.350 . S
C972 C969 1.463 . S
C972 N976 1.427 . S
C973 H963 0.929 . S
C973 C971 1.433 . S
C973 N976 1.384 . S
C974 H965 0.929 . S
C974 C966 1.378 . S
C974 C969 1.350 . S
C975 H962 0.929 1_554 S
C975 C967 1.433 1_554 S
C975 N977 1.384 . S
N976 C972 1.427 . S
N976 C973 1.384 . S
N977 C969 1.427 . S
N977 C975 1.384 . S
H978 C984 0.930 . S
H979 C988 0.930 . S
H980 C993 0.929 . S
H981 C991 0.929 . S
H982 C986 0.929 . S
H983 C992 0.929 . S
C984 H978 0.930 . S
C984 C985 1.367 . S
C984 C992 1.378 . S
C985 C984 1.367 . S
C985 C993 1.433 . S
C986 H982 0.929 . S
C986 C988 1.378 . S
C986 C990 1.350 . S
C987 C990 1.463 . S
C987 C992 1.350 . S
C987 N995 1.427 . S
C988 H979 0.930 . S
C988 C986 1.378 . S
C988 C989 1.367 . S
C989 C988 1.367 . S
C989 C991 1.433 . S
C990 C986 1.350 . S
C990 C987 1.463 . S
C990 N994 1.427 . S
C991 H981 0.929 . S
C991 C989 1.433 . S
C991 N994 1.384 . S
C992 H983 0.929 . S
C992 C984 1.378 . S
C992 C987 1.350 . S
C993 H980 0.929 . S
C993 C985 1.433 . S
C993 N995 1.384 . S
N994 C990 1.427 . S
N994 C991 1.384 . S
N995 C987 1.427 . S
N995 C993 1.384 . S
H996 C1002 0.930 . S
H997 C1006 0.930 . S
H998 C1011 0.929 1_554 S
H999 C1009 0.929 . S
H1000 C1004 0.929 . S
H1001 C1010 0.929 . S
C1002 H996 0.930 . S
C1002 C1003 1.367 1_556 S
C1002 C1010 1.378 . S
C1003 C1002 1.367 1_554 S
C1003 C1011 1.433 1_554 S
C1004 H1000 0.929 . S
C1004 C1006 1.378 . S
C1004 C1008 1.350 . S
C1005 C1008 1.463 . S
C1005 C1010 1.350 . S
C1005 N1013 1.427 . S
C1006 H997 0.930 . S
C1006 C1004 1.378 . S
C1006 C1007 1.367 . S
C1007 C1006 1.367 . S
C1007 C1009 1.433 . S
C1008 C1004 1.350 . S
C1008 C1005 1.463 . S
C1008 N1012 1.427 . S
C1009 H999 0.929 . S
C1009 C1007 1.433 . S
C1009 N1012 1.384 . S
C1010 H1001 0.929 . S
C1010 C1002 1.378 . S
C1010 C1005 1.350 . S
C1011 H998 0.929 1_556 S
C1011 C1003 1.433 1_556 S
C1011 N1013 1.384 . S
N1012 C1008 1.427 . S
N1012 C1009 1.384 . S
N1013 C1005 1.427 . S
N1013 C1011 1.384 . S
H1014 C1020 0.930 . S
H1015 C1024 0.930 . S
H1016 C1029 0.929 . S
H1017 C1027 0.929 . S
H1018 C1022 0.929 . S
H1019 C1028 0.929 . S
C1020 H1014 0.930 . S
C1020 C1021 1.367 . S
C1020 C1028 1.378 . S
C1021 C1020 1.367 . S
C1021 C1029 1.433 . S
C1022 H1018 0.929 . S
C1022 C1024 1.378 . S
C1022 C1026 1.350 . S
C1023 C1026 1.463 . S
C1023 C1028 1.350 . S
C1023 N1031 1.427 . S
C1024 H1015 0.930 . S
C1024 C1022 1.378 . S
C1024 C1025 1.367 . S
C1025 C1024 1.367 . S
C1025 C1027 1.433 . S
C1026 C1022 1.350 . S
C1026 C1023 1.463 . S
C1026 N1030 1.427 . S
C1027 H1017 0.929 . S
C1027 C1025 1.433 . S
C1027 N1030 1.384 . S
C1028 H1019 0.929 . S
C1028 C1020 1.378 . S
C1028 C1023 1.350 . S
C1029 H1016 0.929 . S
C1029 C1021 1.433 . S
C1029 N1031 1.384 . S
N1030 C1026 1.427 . S
N1030 C1027 1.384 . S
N1031 C1023 1.427 . S
N1031 C1029 1.384 . S
H1032 C1038 0.930 . S
H1033 C1042 0.930 . S
H1034 C1047 0.929 . S
H1035 C1045 0.929 1_655 S
H1036 C1040 0.929 . S
H1037 C1046 0.929 . S
C1038 H1032 0.930 . S
C1038 C1039 1.367 . S
C1038 C1046 1.378 . S
C1039 C1038 1.367 . S
C1039 C1047 1.433 . S
C1040 H1036 0.929 . S
C1040 C1042 1.378 . S
C1040 C1044 1.350 . S
C1041 C1044 1.463 . S
C1041 C1046 1.350 . S
C1041 N1049 1.427 . S
C1042 H1033 0.930 . S
C1042 C1040 1.378 . S
C1042 C1043 1.367 1_455 S
C1043 C1042 1.367 1_655 S
C1043 C1045 1.433 1_655 S
C1044 C1040 1.350 . S
C1044 C1041 1.463 . S
C1044 N1048 1.427 . S
C1045 H1035 0.929 1_455 S
C1045 C1043 1.433 1_455 S
C1045 N1048 1.384 . S
C1046 H1037 0.929 . S
C1046 C1038 1.378 . S
C1046 C1041 1.350 . S
C1047 H1034 0.929 . S
C1047 C1039 1.433 . S
C1047 N1049 1.384 . S
N1048 C1044 1.427 . S
N1048 C1045 1.384 . S
N1049 C1041 1.427 . S
N1049 C1047 1.384 . S
H1050 C1056 0.930 . S
H1051 C1060 0.930 . S
H1052 C1065 0.929 . S
H1053 C1063 0.929 . S
H1054 C1058 0.929 . S
H1055 C1064 0.929 . S
C1056 H1050 0.930 . S
C1056 C1057 1.367 . S
C1056 C1064 1.378 . S
C1057 C1056 1.367 . S
C1057 C1065 1.433 . S
C1058 H1054 0.929 . S
C1058 C1060 1.378 . S
C1058 C1062 1.350 . S
C1059 C1062 1.463 . S
C1059 C1064 1.350 . S
C1059 N1067 1.427 . S
C1060 H1051 0.930 . S
C1060 C1058 1.378 . S
C1060 C1061 1.367 . S
C1061 C1060 1.367 . S
C1061 C1063 1.433 . S
C1062 C1058 1.350 . S
C1062 C1059 1.463 . S
C1062 N1066 1.427 . S
C1063 H1053 0.929 . S
C1063 C1061 1.433 . S
C1063 N1066 1.384 . S
C1064 H1055 0.929 . S
C1064 C1056 1.378 . S
C1064 C1059 1.350 . S
C1065 H1052 0.929 . S
C1065 C1057 1.433 . S
C1065 N1067 1.384 . S
N1066 C1062 1.427 . S
N1066 C1063 1.384 . S
N1067 C1059 1.427 . S
N1067 C1065 1.384 . S
H1068 C1074 0.930 . S
H1069 C1078 0.930 . S
H1070 C1083 0.929 . S
H1071 C1081 0.929 . S
H1072 C1076 0.929 . S
H1073 C1082 0.929 . S
C1074 H1068 0.930 . S
C1074 C1075 1.367 . S
C1074 C1082 1.378 . S
C1075 C1074 1.367 . S
C1075 C1083 1.433 . S
C1076 H1072 0.929 . S
C1076 C1078 1.378 . S
C1076 C1080 1.350 . S
C1077 C1080 1.463 . S
C1077 C1082 1.350 . S
C1077 N1085 1.427 . S
C1078 H1069 0.930 . S
C1078 C1076 1.378 . S
C1078 C1079 1.367 . S
C1079 C1078 1.367 . S
C1079 C1081 1.433 . S
C1080 C1076 1.350 . S
C1080 C1077 1.463 . S
C1080 N1084 1.427 . S
C1081 H1071 0.929 . S
C1081 C1079 1.433 . S
C1081 N1084 1.384 . S
C1082 H1073 0.929 . S
C1082 C1074 1.378 . S
C1082 C1077 1.350 . S
C1083 H1070 0.929 . S
C1083 C1075 1.433 . S
C1083 N1085 1.384 . S
N1084 C1080 1.427 . S
N1084 C1081 1.384 . S
N1085 C1077 1.427 . S
N1085 C1083 1.384 . S
H1086 C1092 0.930 . S
H1087 C1096 0.930 . S
H1088 C1101 0.926 1_455 S
H1089 C1099 0.929 . S
H1090 C1094 0.929 . S
H1091 C1100 0.929 . S
C1092 H1086 0.930 . S
C1092 C1093 1.367 1_655 S
C1092 C1100 1.378 . S
C1093 C1092 1.367 1_455 S
C1093 C1101 1.433 1_455 S
C1094 H1090 0.929 . S
C1094 C1096 1.378 . S
C1094 C1098 1.350 . S
C1095 C1098 1.463 . S
C1095 C1100 1.350 . S
C1095 N1103 1.427 . S
C1096 H1087 0.930 . S
C1096 C1094 1.378 . S
C1096 C1097 1.367 . S
C1097 C1096 1.367 . S
C1097 C1099 1.433 . S
C1098 C1094 1.350 . S
C1098 C1095 1.463 . S
C1098 N1102 1.427 . S
C1099 H1089 0.929 . S
C1099 C1097 1.433 . S
C1099 N1102 1.384 . S
C1100 H1091 0.929 . S
C1100 C1092 1.378 . S
C1100 C1095 1.350 . S
C1101 H1088 0.926 1_655 S
C1101 C1093 1.433 1_655 S
C1101 N1103 1.384 . S
N1102 C1098 1.427 . S
N1102 C1099 1.384 . S
N1103 C1095 1.427 . S
N1103 C1101 1.384 . S
H1104 C1110 0.930 . S
H1105 C1114 0.930 . S
H1106 C1119 0.920 1_565 S
H1107 C1117 0.929 . S
H1108 C1112 0.929 . S
H1109 C1118 0.929 . S
C1110 H1104 0.930 . S
C1110 C1111 1.367 1_545 S
C1110 C1118 1.378 . S
C1111 C1110 1.367 1_565 S
C1111 C1119 1.433 1_565 S
C1112 H1108 0.929 . S
C1112 C1114 1.378 . S
C1112 C1116 1.350 . S
C1113 C1116 1.463 . S
C1113 C1118 1.350 . S
C1113 N1121 1.427 . S
C1114 H1105 0.930 . S
C1114 C1112 1.378 . S
C1114 C1115 1.367 . S
C1115 C1114 1.367 . S
C1115 C1117 1.433 . S
C1116 C1112 1.350 . S
C1116 C1113 1.463 . S
C1116 N1120 1.427 . S
C1117 H1107 0.929 . S
C1117 C1115 1.433 . S
C1117 N1120 1.384 . S
C1118 H1109 0.929 . S
C1118 C1110 1.378 . S
C1118 C1113 1.350 . S
C1119 H1106 0.920 1_545 S
C1119 C1111 1.433 1_545 S
C1119 N1121 1.384 . S
N1120 C1116 1.427 . S
N1120 C1117 1.384 . S
N1121 C1113 1.427 . S
N1121 C1119 1.384 . S
H1122 C1128 0.930 . S
H1123 C1132 0.930 . S
H1124 C1137 0.929 . S
H1125 C1135 0.929 . S
H1126 C1130 0.929 . S
H1127 C1136 0.929 . S
C1128 H1122 0.930 . S
C1128 C1129 1.367 . S
C1128 C1136 1.378 . S
C1129 C1128 1.367 . S
C1129 C1137 1.433 . S
C1130 H1126 0.929 . S
C1130 C1132 1.378 . S
C1130 C1134 1.350 . S
C1131 C1134 1.463 . S
C1131 C1136 1.350 . S
C1131 N1139 1.427 . S
C1132 H1123 0.930 . S
C1132 C1130 1.378 . S
C1132 C1133 1.367 . S
C1133 C1132 1.367 . S
C1133 C1135 1.433 . S
C1134 C1130 1.350 . S
C1134 C1131 1.463 . S
C1134 N1138 1.427 . S
C1135 H1125 0.929 . S
C1135 C1133 1.433 . S
C1135 N1138 1.384 . S
C1136 H1127 0.929 . S
C1136 C1128 1.378 . S
C1136 C1131 1.350 . S
C1137 H1124 0.929 . S
C1137 C1129 1.433 . S
C1137 N1139 1.384 . S
N1138 C1134 1.427 . S
N1138 C1135 1.384 . S
N1139 C1131 1.427 . S
N1139 C1137 1.384 . S
H1140 C1146 0.930 . S
H1141 C1150 0.930 . S
H1142 C1155 0.929 . S
H1143 C1153 0.929 . S
H1144 C1148 0.929 . S
H1145 C1154 0.929 . S
C1146 H1140 0.930 . S
C1146 C1147 1.367 . S
C1146 C1154 1.378 . S
C1147 C1146 1.367 . S
C1147 C1155 1.433 . S
C1148 H1144 0.929 . S
C1148 C1150 1.378 . S
C1148 C1152 1.350 . S
C1149 C1152 1.463 . S
C1149 C1154 1.350 . S
C1149 N1157 1.427 . S
C1150 H1141 0.930 . S
C1150 C1148 1.378 . S
C1150 C1151 1.367 . S
C1151 C1150 1.367 . S
C1151 C1153 1.433 . S
C1152 C1148 1.350 . S
C1152 C1149 1.463 . S
C1152 N1156 1.427 . S
C1153 H1143 0.929 . S
C1153 C1151 1.433 . S
C1153 N1156 1.384 . S
C1154 H1145 0.929 . S
C1154 C1146 1.378 . S
C1154 C1149 1.350 . S
C1155 H1142 0.929 . S
C1155 C1147 1.433 . S
C1155 N1157 1.384 . S
N1156 C1152 1.427 . S
N1156 C1153 1.384 . S
N1157 C1149 1.427 . S
N1157 C1155 1.384 . S
H1158 C1164 0.930 1_545 S
H1159 C1168 0.930 . S
H1160 C1173 0.929 . S
H1161 C1171 0.929 . S
H1162 C1166 0.929 . S
H1163 C1172 0.929 . S
C1164 H1158 0.930 1_565 S
C1164 C1165 1.367 1_565 S
C1164 C1172 1.378 . S
C1165 C1164 1.367 1_545 S
C1165 C1173 1.433 1_545 S
C1166 H1162 0.929 . S
C1166 C1168 1.378 . S
C1166 C1170 1.350 . S
C1167 C1170 1.463 . S
C1167 C1172 1.350 . S
C1167 N1175 1.427 . S
C1168 H1159 0.930 . S
C1168 C1166 1.378 . S
C1168 C1169 1.367 . S
C1169 C1168 1.367 . S
C1169 C1171 1.433 . S
C1170 C1166 1.350 . S
C1170 C1167 1.463 . S
C1170 N1174 1.427 . S
C1171 H1161 0.929 . S
C1171 C1169 1.433 . S
C1171 N1174 1.384 . S
C1172 H1163 0.929 . S
C1172 C1164 1.378 . S
C1172 C1167 1.350 . S
C1173 H1160 0.929 . S
C1173 C1165 1.433 1_565 S
C1173 N1175 1.384 . S
N1174 C1170 1.427 . S
N1174 C1171 1.384 . S
N1175 C1167 1.427 . S
N1175 C1173 1.384 . S
H1176 C1182 0.930 . S
H1177 C1186 0.930 1_554 S
H1178 C1191 0.929 . S
H1179 C1189 0.929 . S
H1180 C1184 0.929 . S
H1181 C1190 0.929 . S
C1182 H1176 0.930 . S
C1182 C1183 1.367 . S
C1182 C1190 1.378 . S
C1183 C1182 1.367 . S
C1183 C1191 1.433 . S
C1184 H1180 0.929 . S
C1184 C1186 1.378 . S
C1184 C1188 1.350 . S
C1185 C1188 1.463 . S
C1185 C1190 1.350 . S
C1185 N1193 1.427 . S
C1186 H1177 0.930 1_556 S
C1186 C1184 1.378 . S
C1186 C1187 1.367 1_556 S
C1187 C1186 1.367 1_554 S
C1187 C1189 1.433 1_554 S
C1188 C1184 1.350 . S
C1188 C1185 1.463 . S
C1188 N1192 1.427 . S
C1189 H1179 0.929 . S
C1189 C1187 1.433 1_556 S
C1189 N1192 1.384 . S
C1190 H1181 0.929 . S
C1190 C1182 1.378 . S
C1190 C1185 1.350 . S
C1191 H1178 0.929 . S
C1191 C1183 1.433 . S
C1191 N1193 1.384 . S
N1192 C1188 1.427 . S
N1192 C1189 1.384 . S
N1193 C1185 1.427 . S
N1193 C1191 1.384 . S
H1194 C1200 0.930 . S
H1195 C1204 0.930 . S
H1196 C1209 0.929 . S
H1197 C1207 0.929 . S
H1198 C1202 0.929 . S
H1199 C1208 0.929 . S
C1200 H1194 0.930 . S
C1200 C1201 1.367 . S
C1200 C1208 1.378 . S
C1201 C1200 1.367 . S
C1201 C1209 1.433 . S
C1202 H1198 0.929 . S
C1202 C1204 1.378 . S
C1202 C1206 1.350 . S
C1203 C1206 1.463 . S
C1203 C1208 1.350 . S
C1203 N1211 1.427 . S
C1204 H1195 0.930 . S
C1204 C1202 1.378 . S
C1204 C1205 1.367 . S
C1205 C1204 1.367 . S
C1205 C1207 1.433 . S
C1206 C1202 1.350 . S
C1206 C1203 1.463 . S
C1206 N1210 1.427 . S
C1207 H1197 0.929 . S
C1207 C1205 1.433 . S
C1207 N1210 1.384 . S
C1208 H1199 0.929 . S
C1208 C1200 1.378 . S
C1208 C1203 1.350 . S
C1209 H1196 0.929 . S
C1209 C1201 1.433 . S
C1209 N1211 1.384 . S
N1210 C1206 1.427 . S
N1210 C1207 1.384 . S
N1211 C1203 1.427 . S
N1211 C1209 1.384 . S
H1212 C1218 0.930 . S
H1213 C1222 0.930 . S
H1214 C1227 0.929 . S
H1215 C1225 0.929 1_556 S
H1216 C1220 0.929 . S
H1217 C1226 0.929 . S
C1218 H1212 0.930 . S
C1218 C1219 1.367 . S
C1218 C1226 1.378 . S
C1219 C1218 1.367 . S
C1219 C1227 1.433 . S
C1220 H1216 0.929 . S
C1220 C1222 1.378 . S
C1220 C1224 1.350 . S
C1221 C1224 1.463 . S
C1221 C1226 1.350 . S
C1221 N1229 1.427 . S
C1222 H1213 0.930 . S
C1222 C1220 1.378 . S
C1222 C1223 1.367 1_554 S
C1223 C1222 1.367 1_556 S
C1223 C1225 1.433 1_556 S
C1224 C1220 1.350 . S
C1224 C1221 1.463 . S
C1224 N1228 1.427 . S
C1225 H1215 0.929 1_554 S
C1225 C1223 1.433 1_554 S
C1225 N1228 1.384 . S
C1226 H1217 0.929 . S
C1226 C1218 1.378 . S
C1226 C1221 1.350 . S
C1227 H1214 0.929 . S
C1227 C1219 1.433 . S
C1227 N1229 1.384 . S
N1228 C1224 1.427 . S
N1228 C1225 1.384 . S
N1229 C1221 1.427 . S
N1229 C1227 1.384 . S
H1230 C1236 0.930 . S
H1231 C1240 0.930 . S
H1232 C1245 0.929 . S
H1233 C1243 0.929 . S
H1234 C1238 0.929 . S
H1235 C1244 0.929 . S
C1236 H1230 0.930 . S
C1236 C1237 1.367 . S
C1236 C1244 1.378 . S
C1237 C1236 1.367 . S
C1237 C1245 1.433 . S
C1238 H1234 0.929 . S
C1238 C1240 1.378 . S
C1238 C1242 1.350 . S
C1239 C1242 1.463 . S
C1239 C1244 1.350 . S
C1239 N1247 1.427 . S
C1240 H1231 0.930 . S
C1240 C1238 1.378 . S
C1240 C1241 1.367 . S
C1241 C1240 1.367 . S
C1241 C1243 1.433 . S
C1242 C1238 1.350 . S
C1242 C1239 1.463 . S
C1242 N1246 1.427 . S
C1243 H1233 0.929 . S
C1243 C1241 1.433 . S
C1243 N1246 1.384 . S
C1244 H1235 0.929 . S
C1244 C1236 1.378 . S
C1244 C1239 1.350 . S
C1245 H1232 0.929 . S
C1245 C1237 1.433 . S
C1245 N1247 1.384 . S
N1246 C1242 1.427 . S
N1246 C1243 1.384 . S
N1247 C1239 1.427 . S
N1247 C1245 1.384 . S
H1248 C1254 0.930 . S
H1249 C1258 0.930 . S
H1250 C1263 0.929 1_455 S
H1251 C1261 0.929 . S
H1252 C1256 0.929 . S
H1253 C1262 0.929 . S
C1254 H1248 0.930 . S
C1254 C1255 1.367 1_655 S
C1254 C1262 1.378 . S
C1255 C1254 1.367 1_455 S
C1255 C1263 1.433 1_455 S
C1256 H1252 0.929 . S
C1256 C1258 1.378 . S
C1256 C1260 1.350 . S
C1257 C1260 1.463 . S
C1257 C1262 1.350 . S
C1257 N1265 1.427 . S
C1258 H1249 0.930 . S
C1258 C1256 1.378 . S
C1258 C1259 1.367 . S
C1259 C1258 1.367 . S
C1259 C1261 1.433 . S
C1260 C1256 1.350 . S
C1260 C1257 1.463 . S
C1260 N1264 1.427 . S
C1261 H1251 0.929 . S
C1261 C1259 1.433 . S
C1261 N1264 1.384 . S
C1262 H1253 0.929 . S
C1262 C1254 1.378 . S
C1262 C1257 1.350 . S
C1263 H1250 0.929 1_655 S
C1263 C1255 1.433 1_655 S
C1263 N1265 1.384 . S
N1264 C1260 1.427 . S
N1264 C1261 1.384 . S
N1265 C1257 1.427 . S
N1265 C1263 1.384 . S
H1266 C1272 0.930 . S
H1267 C1276 0.930 . S
H1268 C1281 0.929 . S
H1269 C1279 0.929 . S
H1270 C1274 0.929 . S
H1271 C1280 0.929 . S
C1272 H1266 0.930 . S
C1272 C1273 1.367 . S
C1272 C1280 1.378 . S
C1273 C1272 1.367 . S
C1273 C1281 1.433 . S
C1274 H1270 0.929 . S
C1274 C1276 1.378 . S
C1274 C1278 1.350 . S
C1275 C1278 1.463 . S
C1275 C1280 1.350 . S
C1275 N1283 1.427 . S
C1276 H1267 0.930 . S
C1276 C1274 1.378 . S
C1276 C1277 1.367 . S
C1277 C1276 1.367 . S
C1277 C1279 1.433 . S
C1278 C1274 1.350 . S
C1278 C1275 1.463 . S
C1278 N1282 1.427 . S
C1279 H1269 0.929 . S
C1279 C1277 1.433 . S
C1279 N1282 1.384 . S
C1280 H1271 0.929 . S
C1280 C1272 1.378 . S
C1280 C1275 1.350 . S
C1281 H1268 0.929 . S
C1281 C1273 1.433 . S
C1281 N1283 1.384 . S
N1282 C1278 1.427 . S
N1282 C1279 1.384 . S
N1283 C1275 1.427 . S
N1283 C1281 1.384 . S
H1284 C1290 0.930 . S
H1285 C1294 0.930 . S
H1286 C1299 0.929 . S
H1287 C1297 0.929 . S
H1288 C1292 0.929 . S
H1289 C1298 0.929 . S
C1290 H1284 0.930 . S
C1290 C1291 1.367 . S
C1290 C1298 1.378 . S
C1291 C1290 1.367 . S
C1291 C1299 1.433 . S
C1292 H1288 0.929 . S
C1292 C1294 1.378 . S
C1292 C1296 1.350 . S
C1293 C1296 1.463 . S
C1293 C1298 1.350 . S
C1293 N1301 1.427 . S
C1294 H1285 0.930 . S
C1294 C1292 1.378 . S
C1294 C1295 1.367 . S
C1295 C1294 1.367 . S
C1295 C1297 1.433 . S
C1296 C1292 1.350 . S
C1296 C1293 1.463 . S
C1296 N1300 1.427 . S
C1297 H1287 0.929 . S
C1297 C1295 1.433 . S
C1297 N1300 1.384 . S
C1298 H1289 0.929 . S
C1298 C1290 1.378 . S
C1298 C1293 1.350 . S
C1299 H1286 0.929 . S
C1299 C1291 1.433 . S
C1299 N1301 1.384 . S
N1300 C1296 1.427 . S
N1300 C1297 1.384 . S
N1301 C1293 1.427 . S
N1301 C1299 1.384 . S
H1302 C1308 0.930 . S
H1303 C1312 0.930 . S
H1304 C1317 0.929 . S
H1305 C1315 0.929 1_655 S
H1306 C1310 0.929 . S
H1307 C1316 0.929 . S
C1308 H1302 0.930 . S
C1308 C1309 1.367 . S
C1308 C1316 1.378 . S
C1309 C1308 1.367 . S
C1309 C1317 1.433 . S
C1310 H1306 0.929 . S
C1310 C1312 1.378 . S
C1310 C1314 1.350 . S
C1311 C1314 1.463 . S
C1311 C1316 1.350 . S
C1311 N1319 1.427 . S
C1312 H1303 0.930 . S
C1312 C1310 1.378 . S
C1312 C1313 1.367 1_455 S
C1313 C1312 1.367 1_655 S
C1313 C1315 1.433 1_655 S
C1314 C1310 1.350 . S
C1314 C1311 1.463 . S
C1314 N1318 1.427 . S
C1315 H1305 0.929 1_455 S
C1315 C1313 1.433 1_455 S
C1315 N1318 1.384 . S
C1316 H1307 0.929 . S
C1316 C1308 1.378 . S
C1316 C1311 1.350 . S
C1317 H1304 0.929 . S
C1317 C1309 1.433 . S
C1317 N1319 1.384 . S
N1318 C1314 1.427 . S
N1318 C1315 1.384 . S
N1319 C1311 1.427 . S
N1319 C1317 1.384 . S
H1320 C1326 0.930 1_545 S
H1321 C1330 0.930 . S
H1322 C1335 0.929 . S
H1323 C1333 0.929 . S
H1324 C1328 0.929 . S
H1325 C1334 0.929 . S
C1326 H1320 0.930 1_565 S
C1326 C1327 1.367 1_565 S
C1326 C1334 1.378 . S
C1327 C1326 1.367 1_545 S
C1327 C1335 1.433 1_545 S
C1328 H1324 0.929 . S
C1328 C1330 1.378 . S
C1328 C1332 1.350 . S
C1329 C1332 1.463 . S
C1329 C1334 1.350 . S
C1329 N1337 1.427 . S
C1330 H1321 0.930 . S
C1330 C1328 1.378 . S
C1330 C1331 1.367 . S
C1331 C1330 1.367 . S
C1331 C1333 1.433 . S
C1332 C1328 1.350 . S
C1332 C1329 1.463 . S
C1332 N1336 1.427 . S
C1333 H1323 0.929 . S
C1333 C1331 1.433 . S
C1333 N1336 1.384 . S
C1334 H1325 0.929 . S
C1334 C1326 1.378 . S
C1334 C1329 1.350 . S
C1335 H1322 0.929 . S
C1335 C1327 1.433 1_565 S
C1335 N1337 1.384 . S
N1336 C1332 1.427 . S
N1336 C1333 1.384 . S
N1337 C1329 1.427 . S
N1337 C1335 1.384 . S
H1338 C1344 0.930 . S
H1339 C1348 0.930 . S
H1340 C1353 0.929 . S
H1341 C1351 0.929 . S
H1342 C1346 0.929 . S
H1343 C1352 0.929 . S
C1344 H1338 0.930 . S
C1344 C1345 1.367 . S
C1344 C1352 1.378 . S
C1345 C1344 1.367 . S
C1345 C1353 1.433 . S
C1346 H1342 0.929 . S
C1346 C1348 1.378 . S
C1346 C1350 1.350 . S
C1347 C1350 1.463 . S
C1347 C1352 1.350 . S
C1347 N1355 1.427 . S
C1348 H1339 0.930 . S
C1348 C1346 1.378 . S
C1348 C1349 1.367 . S
C1349 C1348 1.367 . S
C1349 C1351 1.433 . S
C1350 C1346 1.350 . S
C1350 C1347 1.463 . S
C1350 N1354 1.427 . S
C1351 H1341 0.929 . S
C1351 C1349 1.433 . S
C1351 N1354 1.384 . S
C1352 H1343 0.929 . S
C1352 C1344 1.378 . S
C1352 C1347 1.350 . S
C1353 H1340 0.929 . S
C1353 C1345 1.433 . S
C1353 N1355 1.384 . S
N1354 C1350 1.427 . S
N1354 C1351 1.384 . S
N1355 C1347 1.427 . S
N1355 C1353 1.384 . S
H1356 C1362 0.930 . S
H1357 C1366 0.930 . S
H1358 C1371 0.929 . S
H1359 C1369 0.929 . S
H1360 C1364 0.929 . S
H1361 C1370 0.929 . S
C1362 H1356 0.930 . S
C1362 C1363 1.367 . S
C1362 C1370 1.378 . S
C1363 C1362 1.367 . S
C1363 C1371 1.433 . S
C1364 H1360 0.929 . S
C1364 C1366 1.378 . S
C1364 C1368 1.350 . S
C1365 C1368 1.463 . S
C1365 C1370 1.350 . S
C1365 N1373 1.427 . S
C1366 H1357 0.930 . S
C1366 C1364 1.378 . S
C1366 C1367 1.367 . S
C1367 C1366 1.367 . S
C1367 C1369 1.433 . S
C1368 C1364 1.350 . S
C1368 C1365 1.463 . S
C1368 N1372 1.427 . S
C1369 H1359 0.929 . S
C1369 C1367 1.433 . S
C1369 N1372 1.384 . S
C1370 H1361 0.929 . S
C1370 C1362 1.378 . S
C1370 C1365 1.350 . S
C1371 H1358 0.929 . S
C1371 C1363 1.433 . S
C1371 N1373 1.384 . S
N1372 C1368 1.427 . S
N1372 C1369 1.384 . S
N1373 C1365 1.427 . S
N1373 C1371 1.384 . S
H1374 C1380 0.930 . S
H1375 C1384 0.930 . S
H1376 C1389 0.929 . S
H1377 C1387 0.929 1_565 S
H1378 C1382 0.929 . S
H1379 C1388 0.929 . S
C1380 H1374 0.930 . S
C1380 C1381 1.367 . S
C1380 C1388 1.378 . S
C1381 C1380 1.367 . S
C1381 C1389 1.433 . S
C1382 H1378 0.929 . S
C1382 C1384 1.378 . S
C1382 C1386 1.350 . S
C1383 C1386 1.463 . S
C1383 C1388 1.350 . S
C1383 N1391 1.427 . S
C1384 H1375 0.930 . S
C1384 C1382 1.378 . S
C1384 C1385 1.367 1_545 S
C1385 C1384 1.367 1_565 S
C1385 C1387 1.433 1_565 S
C1386 C1382 1.350 . S
C1386 C1383 1.463 . S
C1386 N1390 1.427 . S
C1387 H1377 0.929 1_545 S
C1387 C1385 1.433 1_545 S
C1387 N1390 1.384 . S
C1388 H1379 0.929 . S
C1388 C1380 1.378 . S
C1388 C1383 1.350 . S
C1389 H1376 0.929 . S
C1389 C1381 1.433 . S
C1389 N1391 1.384 . S
N1390 C1386 1.427 . S
N1390 C1387 1.384 . S
N1391 C1383 1.427 . S
N1391 C1389 1.384 . S
H1392 C1398 0.930 . S
H1393 C1402 0.930 . S
H1394 C1407 0.929 . S
H1395 C1405 0.929 . S
H1396 C1400 0.929 . S
H1397 C1406 0.929 . S
C1398 H1392 0.930 . S
C1398 C1399 1.367 . S
C1398 C1406 1.378 . S
C1399 C1398 1.367 . S
C1399 C1407 1.433 . S
C1400 H1396 0.929 . S
C1400 C1402 1.378 . S
C1400 C1404 1.350 . S
C1401 C1404 1.463 . S
C1401 C1406 1.350 . S
C1401 N1409 1.427 . S
C1402 H1393 0.930 . S
C1402 C1400 1.378 . S
C1402 C1403 1.367 . S
C1403 C1402 1.367 . S
C1403 C1405 1.433 . S
C1404 C1400 1.350 . S
C1404 C1401 1.463 . S
C1404 N1408 1.427 . S
C1405 H1395 0.929 . S
C1405 C1403 1.433 . S
C1405 N1408 1.384 . S
C1406 H1397 0.929 . S
C1406 C1398 1.378 . S
C1406 C1401 1.350 . S
C1407 H1394 0.929 . S
C1407 C1399 1.433 . S
C1407 N1409 1.384 . S
N1408 C1404 1.427 . S
N1408 C1405 1.384 . S
N1409 C1401 1.427 . S
N1409 C1407 1.384 . S
H1410 C1416 0.930 . S
H1411 C1420 0.930 . S
H1412 C1425 0.929 . S
H1413 C1423 0.929 . S
H1414 C1418 0.929 . S
H1415 C1424 0.929 . S
C1416 H1410 0.930 . S
C1416 C1417 1.367 . S
C1416 C1424 1.378 . S
C1417 C1416 1.367 . S
C1417 C1425 1.433 . S
C1418 H1414 0.929 . S
C1418 C1420 1.378 . S
C1418 C1422 1.350 . S
C1419 C1422 1.463 . S
C1419 C1424 1.350 . S
C1419 N1427 1.427 . S
C1420 H1411 0.930 . S
C1420 C1418 1.378 . S
C1420 C1421 1.367 . S
C1421 C1420 1.367 . S
C1421 C1423 1.433 . S
C1422 C1418 1.350 . S
C1422 C1419 1.463 . S
C1422 N1426 1.427 . S
C1423 H1413 0.929 . S
C1423 C1421 1.433 . S
C1423 N1426 1.384 . S
C1424 H1415 0.929 . S
C1424 C1416 1.378 . S
C1424 C1419 1.350 . S
C1425 H1412 0.929 . S
C1425 C1417 1.433 . S
C1425 N1427 1.384 . S
N1426 C1422 1.427 . S
N1426 C1423 1.384 . S
N1427 C1419 1.427 . S
N1427 C1425 1.384 . S
H1428 C1434 0.930 . S
H1429 C1438 0.930 . S
H1430 C1443 0.929 . S
H1431 C1441 0.929 . S
H1432 C1436 0.929 . S
H1433 C1442 0.929 . S
C1434 H1428 0.930 . S
C1434 C1435 1.367 . S
C1434 C1442 1.378 . S
C1435 C1434 1.367 . S
C1435 C1443 1.433 . S
C1436 H1432 0.929 . S
C1436 C1438 1.378 . S
C1436 C1440 1.350 . S
C1437 C1440 1.463 . S
C1437 C1442 1.350 . S
C1437 N1445 1.427 . S
C1438 H1429 0.930 . S
C1438 C1436 1.378 . S
C1438 C1439 1.367 . S
C1439 C1438 1.367 . S
C1439 C1441 1.433 . S
C1440 C1436 1.350 . S
C1440 C1437 1.463 . S
C1440 N1444 1.427 . S
C1441 H1431 0.929 . S
C1441 C1439 1.433 . S
C1441 N1444 1.384 . S
C1442 H1433 0.929 . S
C1442 C1434 1.378 . S
C1442 C1437 1.350 . S
C1443 H1430 0.929 . S
C1443 C1435 1.433 . S
C1443 N1445 1.384 . S
N1444 C1440 1.427 . S
N1444 C1441 1.384 . S
N1445 C1437 1.427 . S
N1445 C1443 1.384 . S
H1446 C1452 0.930 . S
H1447 C1456 0.930 . S
H1448 C1461 0.929 . S
H1449 C1459 0.929 . S
H1450 C1454 0.929 . S
H1451 C1460 0.929 . S
C1452 H1446 0.930 . S
C1452 C1453 1.367 . S
C1452 C1460 1.378 . S
C1453 C1452 1.367 . S
C1453 C1461 1.433 . S
C1454 H1450 0.929 . S
C1454 C1456 1.378 . S
C1454 C1458 1.350 . S
C1455 C1458 1.463 . S
C1455 C1460 1.350 . S
C1455 N1463 1.427 . S
C1456 H1447 0.930 . S
C1456 C1454 1.378 . S
C1456 C1457 1.367 . S
C1457 C1456 1.367 . S
C1457 C1459 1.433 . S
C1458 C1454 1.350 . S
C1458 C1455 1.463 . S
C1458 N1462 1.427 . S
C1459 H1449 0.929 . S
C1459 C1457 1.433 . S
C1459 N1462 1.384 . S
C1460 H1451 0.929 . S
C1460 C1452 1.378 . S
C1460 C1455 1.350 . S
C1461 H1448 0.929 . S
C1461 C1453 1.433 . S
C1461 N1463 1.384 . S
N1462 C1458 1.427 . S
N1462 C1459 1.384 . S
N1463 C1455 1.427 . S
N1463 C1461 1.384 . S
H1464 C1470 0.930 . S
H1465 C1474 0.930 . S
H1466 C1479 0.929 . S
H1467 C1477 0.929 . S
H1468 C1472 0.929 . S
H1469 C1478 0.929 . S
C1470 H1464 0.930 . S
C1470 C1471 1.367 . S
C1470 C1478 1.378 . S
C1471 C1470 1.367 . S
C1471 C1479 1.433 . S
C1472 H1468 0.929 . S
C1472 C1474 1.378 . S
C1472 C1476 1.350 . S
C1473 C1476 1.463 . S
C1473 C1478 1.350 . S
C1473 N1481 1.427 . S
C1474 H1465 0.930 . S
C1474 C1472 1.378 . S
C1474 C1475 1.367 . S
C1475 C1474 1.367 . S
C1475 C1477 1.433 . S
C1476 C1472 1.350 . S
C1476 C1473 1.463 . S
C1476 N1480 1.427 . S
C1477 H1467 0.929 . S
C1477 C1475 1.433 . S
C1477 N1480 1.384 . S
C1478 H1469 0.929 . S
C1478 C1470 1.378 . S
C1478 C1473 1.350 . S
C1479 H1466 0.929 . S
C1479 C1471 1.433 . S
C1479 N1481 1.384 . S
N1480 C1476 1.427 . S
N1480 C1477 1.384 . S
N1481 C1473 1.427 . S
N1481 C1479 1.384 . S
H1482 C1488 0.930 . S
H1483 C1492 0.930 . S
H1484 C1497 0.929 . S
H1485 C1495 0.929 . S
H1486 C1490 0.929 . S
H1487 C1496 0.929 . S
C1488 H1482 0.930 . S
C1488 C1489 1.367 . S
C1488 C1496 1.378 . S
C1489 C1488 1.367 . S
C1489 C1497 1.433 . S
C1490 H1486 0.929 . S
C1490 C1492 1.378 . S
C1490 C1494 1.350 . S
C1491 C1494 1.463 . S
C1491 C1496 1.350 . S
C1491 N1499 1.427 . S
C1492 H1483 0.930 . S
C1492 C1490 1.378 . S
C1492 C1493 1.367 . S
C1493 C1492 1.367 . S
C1493 C1495 1.433 . S
C1494 C1490 1.350 . S
C1494 C1491 1.463 . S
C1494 N1498 1.427 . S
C1495 H1485 0.929 . S
C1495 C1493 1.433 . S
C1495 N1498 1.384 . S
C1496 H1487 0.929 . S
C1496 C1488 1.378 . S
C1496 C1491 1.350 . S
C1497 H1484 0.929 . S
C1497 C1489 1.433 . S
C1497 N1499 1.384 . S
N1498 C1494 1.427 . S
N1498 C1495 1.384 . S
N1499 C1491 1.427 . S
N1499 C1497 1.384 . S
H1500 C1506 0.930 . S
H1501 C1510 0.930 . S
H1502 C1515 0.929 . S
H1503 C1513 0.929 . S
H1504 C1508 0.929 . S
H1505 C1514 0.929 . S
C1506 H1500 0.930 . S
C1506 C1507 1.367 . S
C1506 C1514 1.378 . S
C1507 C1506 1.367 . S
C1507 C1515 1.433 . S
C1508 H1504 0.929 . S
C1508 C1510 1.378 . S
C1508 C1512 1.350 . S
C1509 C1512 1.463 . S
C1509 C1514 1.350 . S
C1509 N1517 1.427 . S
C1510 H1501 0.930 . S
C1510 C1508 1.378 . S
C1510 C1511 1.367 . S
C1511 C1510 1.367 . S
C1511 C1513 1.433 . S
C1512 C1508 1.350 . S
C1512 C1509 1.463 . S
C1512 N1516 1.427 . S
C1513 H1503 0.929 . S
C1513 C1511 1.433 . S
C1513 N1516 1.384 . S
C1514 H1505 0.929 . S
C1514 C1506 1.378 . S
C1514 C1509 1.350 . S
C1515 H1502 0.929 . S
C1515 C1507 1.433 . S
C1515 N1517 1.384 . S
N1516 C1512 1.427 . S
N1516 C1513 1.384 . S
N1517 C1509 1.427 . S
N1517 C1515 1.384 . S
H1518 C1524 0.930 . S
H1519 C1528 0.930 . S
H1520 C1533 0.929 . S
H1521 C1531 0.929 . S
H1522 C1526 0.929 . S
H1523 C1532 0.929 . S
C1524 H1518 0.930 . S
C1524 C1525 1.367 . S
C1524 C1532 1.378 . S
C1525 C1524 1.367 . S
C1525 C1533 1.433 . S
C1526 H1522 0.929 . S
C1526 C1528 1.378 . S
C1526 C1530 1.350 . S
C1527 C1530 1.463 . S
C1527 C1532 1.350 . S
C1527 N1535 1.427 . S
C1528 H1519 0.930 . S
C1528 C1526 1.378 . S
C1528 C1529 1.367 . S
C1529 C1528 1.367 . S
C1529 C1531 1.433 . S
C1530 C1526 1.350 . S
C1530 C1527 1.463 . S
C1530 N1534 1.427 . S
C1531 H1521 0.929 . S
C1531 C1529 1.433 . S
C1531 N1534 1.384 . S
C1532 H1523 0.929 . S
C1532 C1524 1.378 . S
C1532 C1527 1.350 . S
C1533 H1520 0.929 . S
C1533 C1525 1.433 . S
C1533 N1535 1.384 . S
N1534 C1530 1.427 . S
N1534 C1531 1.384 . S
N1535 C1527 1.427 . S
N1535 C1533 1.384 . S
H1536 C1542 0.930 . S
H1537 C1546 0.930 . S
H1538 C1551 0.929 . S
H1539 C1549 0.929 . S
H1540 C1544 0.929 . S
H1541 C1550 0.929 . S
C1542 H1536 0.930 . S
C1542 C1543 1.367 . S
C1542 C1550 1.378 . S
C1543 C1542 1.367 . S
C1543 C1551 1.433 . S
C1544 H1540 0.929 . S
C1544 C1546 1.378 . S
C1544 C1548 1.350 . S
C1545 C1548 1.463 . S
C1545 C1550 1.350 . S
C1545 N1553 1.427 . S
C1546 H1537 0.930 . S
C1546 C1544 1.378 . S
C1546 C1547 1.367 . S
C1547 C1546 1.367 . S
C1547 C1549 1.433 . S
C1548 C1544 1.350 . S
C1548 C1545 1.463 . S
C1548 N1552 1.427 . S
C1549 H1539 0.929 . S
C1549 C1547 1.433 . S
C1549 N1552 1.384 . S
C1550 H1541 0.929 . S
C1550 C1542 1.378 . S
C1550 C1545 1.350 . S
C1551 H1538 0.929 . S
C1551 C1543 1.433 . S
C1551 N1553 1.384 . S
N1552 C1548 1.427 . S
N1552 C1549 1.384 . S
N1553 C1545 1.427 . S
N1553 C1551 1.384 . S
H1554 C1560 0.930 . S
H1555 C1564 0.930 . S
H1556 C1569 0.929 . S
H1557 C1567 0.929 . S
H1558 C1562 0.929 . S
H1559 C1568 0.929 . S
C1560 H1554 0.930 . S
C1560 C1561 1.367 . S
C1560 C1568 1.378 . S
C1561 C1560 1.367 . S
C1561 C1569 1.433 . S
C1562 H1558 0.929 . S
C1562 C1564 1.378 . S
C1562 C1566 1.350 . S
C1563 C1566 1.463 . S
C1563 C1568 1.350 . S
C1563 N1571 1.427 . S
C1564 H1555 0.930 . S
C1564 C1562 1.378 . S
C1564 C1565 1.367 . S
C1565 C1564 1.367 . S
C1565 C1567 1.433 . S
C1566 C1562 1.350 . S
C1566 C1563 1.463 . S
C1566 N1570 1.427 . S
C1567 H1557 0.929 . S
C1567 C1565 1.433 . S
C1567 N1570 1.384 . S
C1568 H1559 0.929 . S
C1568 C1560 1.378 . S
C1568 C1563 1.350 . S
C1569 H1556 0.929 . S
C1569 C1561 1.433 . S
C1569 N1571 1.384 . S
N1570 C1566 1.427 . S
N1570 C1567 1.384 . S
N1571 C1563 1.427 . S
N1571 C1569 1.384 . S
H1572 C1578 0.930 . S
H1573 C1582 0.930 . S
H1574 C1587 0.929 . S
H1575 C1585 0.929 . S
H1576 C1580 0.929 . S
H1577 C1586 0.929 . S
C1578 H1572 0.930 . S
C1578 C1579 1.367 . S
C1578 C1586 1.378 . S
C1579 C1578 1.367 . S
C1579 C1587 1.433 . S
C1580 H1576 0.929 . S
C1580 C1582 1.378 . S
C1580 C1584 1.350 . S
C1581 C1584 1.463 . S
C1581 C1586 1.350 . S
C1581 N1589 1.427 . S
C1582 H1573 0.930 . S
C1582 C1580 1.378 . S
C1582 C1583 1.367 . S
C1583 C1582 1.367 . S
C1583 C1585 1.433 . S
C1584 C1580 1.350 . S
C1584 C1581 1.463 . S
C1584 N1588 1.427 . S
C1585 H1575 0.929 . S
C1585 C1583 1.433 . S
C1585 N1588 1.384 . S
C1586 H1577 0.929 . S
C1586 C1578 1.378 . S
C1586 C1581 1.350 . S
C1587 H1574 0.929 . S
C1587 C1579 1.433 . S
C1587 N1589 1.384 . S
N1588 C1584 1.427 . S
N1588 C1585 1.384 . S
N1589 C1581 1.427 . S
N1589 C1587 1.384 . S
H1590 C1596 0.930 . S
H1591 C1600 0.930 . S
H1592 C1605 0.929 . S
H1593 C1603 0.929 . S
H1594 C1598 0.929 . S
H1595 C1604 0.929 . S
C1596 H1590 0.930 . S
C1596 C1597 1.367 . S
C1596 C1604 1.378 . S
C1597 C1596 1.367 . S
C1597 C1605 1.433 . S
C1598 H1594 0.929 . S
C1598 C1600 1.378 . S
C1598 C1602 1.350 . S
C1599 C1602 1.463 . S
C1599 C1604 1.350 . S
C1599 N1607 1.427 . S
C1600 H1591 0.930 . S
C1600 C1598 1.378 . S
C1600 C1601 1.367 . S
C1601 C1600 1.367 . S
C1601 C1603 1.433 . S
C1602 C1598 1.350 . S
C1602 C1599 1.463 . S
C1602 N1606 1.427 . S
C1603 H1593 0.929 . S
C1603 C1601 1.433 . S
C1603 N1606 1.384 . S
C1604 H1595 0.929 . S
C1604 C1596 1.378 . S
C1604 C1599 1.350 . S
C1605 H1592 0.929 . S
C1605 C1597 1.433 . S
C1605 N1607 1.384 . S
N1606 C1602 1.427 . S
N1606 C1603 1.384 . S
N1607 C1599 1.427 . S
N1607 C1605 1.384 . S
H1608 C1614 0.930 . S
H1609 C1618 0.930 . S
H1610 C1623 0.929 . S
H1611 C1621 0.929 . S
H1612 C1616 0.929 . S
H1613 C1622 0.929 . S
C1614 H1608 0.930 . S
C1614 C1615 1.367 . S
C1614 C1622 1.378 . S
C1615 C1614 1.367 . S
C1615 C1623 1.433 . S
C1616 H1612 0.929 . S
C1616 C1618 1.378 . S
C1616 C1620 1.350 . S
C1617 C1620 1.463 . S
C1617 C1622 1.350 . S
C1617 N1625 1.427 . S
C1618 H1609 0.930 . S
C1618 C1616 1.378 . S
C1618 C1619 1.367 . S
C1619 C1618 1.367 . S
C1619 C1621 1.433 . S
C1620 C1616 1.350 . S
C1620 C1617 1.463 . S
C1620 N1624 1.427 . S
C1621 H1611 0.929 . S
C1621 C1619 1.433 . S
C1621 N1624 1.384 . S
C1622 H1613 0.929 . S
C1622 C1614 1.378 . S
C1622 C1617 1.350 . S
C1623 H1610 0.929 . S
C1623 C1615 1.433 . S
C1623 N1625 1.384 . S
N1624 C1620 1.427 . S
N1624 C1621 1.384 . S
N1625 C1617 1.427 . S
N1625 C1623 1.384 . S
H1626 C1632 0.930 . S
H1627 C1636 0.930 . S
H1628 C1641 0.929 . S
H1629 C1639 0.929 . S
H1630 C1634 0.929 . S
H1631 C1640 0.929 . S
C1632 H1626 0.930 . S
C1632 C1633 1.367 . S
C1632 C1640 1.378 . S
C1633 C1632 1.367 . S
C1633 C1641 1.433 . S
C1634 H1630 0.929 . S
C1634 C1636 1.378 . S
C1634 C1638 1.350 . S
C1635 C1638 1.463 . S
C1635 C1640 1.350 . S
C1635 N1643 1.427 . S
C1636 H1627 0.930 . S
C1636 C1634 1.378 . S
C1636 C1637 1.367 . S
C1637 C1636 1.367 . S
C1637 C1639 1.433 . S
C1638 C1634 1.350 . S
C1638 C1635 1.463 . S
C1638 N1642 1.427 . S
C1639 H1629 0.929 . S
C1639 C1637 1.433 . S
C1639 N1642 1.384 . S
C1640 H1631 0.929 . S
C1640 C1632 1.378 . S
C1640 C1635 1.350 . S
C1641 H1628 0.929 . S
C1641 C1633 1.433 . S
C1641 N1643 1.384 . S
N1642 C1638 1.427 . S
N1642 C1639 1.384 . S
N1643 C1635 1.427 . S
N1643 C1641 1.384 . S
H1644 C1650 0.930 . S
H1645 C1654 0.930 . S
H1646 C1659 0.929 . S
H1647 C1657 0.929 . S
H1648 C1652 0.929 . S
H1649 C1658 0.929 . S
C1650 H1644 0.930 . S
C1650 C1651 1.367 . S
C1650 C1658 1.378 . S
C1651 C1650 1.367 . S
C1651 C1659 1.433 . S
C1652 H1648 0.929 . S
C1652 C1654 1.378 . S
C1652 C1656 1.350 . S
C1653 C1656 1.463 . S
C1653 C1658 1.350 . S
C1653 N1661 1.427 . S
C1654 H1645 0.930 . S
C1654 C1652 1.378 . S
C1654 C1655 1.367 . S
C1655 C1654 1.367 . S
C1655 C1657 1.433 . S
C1656 C1652 1.350 . S
C1656 C1653 1.463 . S
C1656 N1660 1.427 . S
C1657 H1647 0.929 . S
C1657 C1655 1.433 . S
C1657 N1660 1.384 . S
C1658 H1649 0.929 . S
C1658 C1650 1.378 . S
C1658 C1653 1.350 . S
C1659 H1646 0.929 . S
C1659 C1651 1.433 . S
C1659 N1661 1.384 . S
N1660 C1656 1.427 . S
N1660 C1657 1.384 . S
N1661 C1653 1.427 . S
N1661 C1659 1.384 . S
H1662 C1668 0.930 . S
H1663 C1672 0.930 . S
H1664 C1677 0.929 . S
H1665 C1675 0.929 . S
H1666 C1670 0.929 . S
H1667 C1676 0.929 . S
C1668 H1662 0.930 . S
C1668 C1669 1.367 . S
C1668 C1676 1.378 . S
C1669 C1668 1.367 . S
C1669 C1677 1.433 . S
C1670 H1666 0.929 . S
C1670 C1672 1.378 . S
C1670 C1674 1.350 . S
C1671 C1674 1.463 . S
C1671 C1676 1.350 . S
C1671 N1679 1.427 . S
C1672 H1663 0.930 . S
C1672 C1670 1.378 . S
C1672 C1673 1.367 . S
C1673 C1672 1.367 . S
C1673 C1675 1.433 . S
C1674 C1670 1.350 . S
C1674 C1671 1.463 . S
C1674 N1678 1.427 . S
C1675 H1665 0.929 . S
C1675 C1673 1.433 . S
C1675 N1678 1.384 . S
C1676 H1667 0.929 . S
C1676 C1668 1.378 . S
C1676 C1671 1.350 . S
C1677 H1664 0.929 . S
C1677 C1669 1.433 . S
C1677 N1679 1.384 . S
N1678 C1674 1.427 . S
N1678 C1675 1.384 . S
N1679 C1671 1.427 . S
N1679 C1677 1.384 . S
H1680 C1686 0.930 . S
H1681 C1690 0.930 . S
H1682 C1695 0.929 . S
H1683 C1693 0.929 . S
H1684 C1688 0.929 . S
H1685 C1694 0.929 . S
C1686 H1680 0.930 . S
C1686 C1687 1.367 . S
C1686 C1694 1.378 . S
C1687 C1686 1.367 . S
C1687 C1695 1.433 . S
C1688 H1684 0.929 . S
C1688 C1690 1.378 . S
C1688 C1692 1.350 . S
C1689 C1692 1.463 . S
C1689 C1694 1.350 . S
C1689 N1697 1.427 . S
C1690 H1681 0.930 . S
C1690 C1688 1.378 . S
C1690 C1691 1.367 . S
C1691 C1690 1.367 . S
C1691 C1693 1.433 . S
C1692 C1688 1.350 . S
C1692 C1689 1.463 . S
C1692 N1696 1.427 . S
C1693 H1683 0.929 . S
C1693 C1691 1.433 . S
C1693 N1696 1.384 . S
C1694 H1685 0.929 . S
C1694 C1686 1.378 . S
C1694 C1689 1.350 . S
C1695 H1682 0.929 . S
C1695 C1687 1.433 . S
C1695 N1697 1.384 . S
N1696 C1692 1.427 . S
N1696 C1693 1.384 . S
N1697 C1689 1.427 . S
N1697 C1695 1.384 . S
H1698 C1704 0.930 . S
H1699 C1708 0.930 . S
H1700 C1713 0.929 . S
H1701 C1711 0.929 . S
H1702 C1706 0.929 . S
H1703 C1712 0.929 . S
C1704 H1698 0.930 . S
C1704 C1705 1.367 . S
C1704 C1712 1.378 . S
C1705 C1704 1.367 . S
C1705 C1713 1.433 . S
C1706 H1702 0.929 . S
C1706 C1708 1.378 . S
C1706 C1710 1.350 . S
C1707 C1710 1.463 . S
C1707 C1712 1.350 . S
C1707 N1715 1.427 . S
C1708 H1699 0.930 . S
C1708 C1706 1.378 . S
C1708 C1709 1.367 . S
C1709 C1708 1.367 . S
C1709 C1711 1.433 . S
C1710 C1706 1.350 . S
C1710 C1707 1.463 . S
C1710 N1714 1.427 . S
C1711 H1701 0.929 . S
C1711 C1709 1.433 . S
C1711 N1714 1.384 . S
C1712 H1703 0.929 . S
C1712 C1704 1.378 . S
C1712 C1707 1.350 . S
C1713 H1700 0.929 . S
C1713 C1705 1.433 . S
C1713 N1715 1.384 . S
N1714 C1710 1.427 . S
N1714 C1711 1.384 . S
N1715 C1707 1.427 . S
N1715 C1713 1.384 . S
H1716 C1722 0.930 . S
H1717 C1726 0.930 . S
H1718 C1731 0.929 . S
H1719 C1729 0.929 . S
H1720 C1724 0.929 . S
H1721 C1730 0.929 . S
C1722 H1716 0.930 . S
C1722 C1723 1.367 . S
C1722 C1730 1.378 . S
C1723 C1722 1.367 . S
C1723 C1731 1.433 . S
C1724 H1720 0.929 . S
C1724 C1726 1.378 . S
C1724 C1728 1.350 . S
C1725 C1728 1.463 . S
C1725 C1730 1.350 . S
C1725 N1733 1.427 . S
C1726 H1717 0.930 . S
C1726 C1724 1.378 . S
C1726 C1727 1.367 . S
C1727 C1726 1.367 . S
C1727 C1729 1.433 . S
C1728 C1724 1.350 . S
C1728 C1725 1.463 . S
C1728 N1732 1.427 . S
C1729 H1719 0.929 . S
C1729 C1727 1.433 . S
C1729 N1732 1.384 . S
C1730 H1721 0.929 . S
C1730 C1722 1.378 . S
C1730 C1725 1.350 . S
C1731 H1718 0.929 . S
C1731 C1723 1.433 . S
C1731 N1733 1.384 . S
N1732 C1728 1.427 . S
N1732 C1729 1.384 . S
N1733 C1725 1.427 . S
N1733 C1731 1.384 . S
H1734 C1740 0.930 . S
H1735 C1744 0.930 . S
H1736 C1749 0.929 . S
H1737 C1747 0.929 . S
H1738 C1742 0.929 . S
H1739 C1748 0.929 . S
C1740 H1734 0.930 . S
C1740 C1741 1.367 . S
C1740 C1748 1.378 . S
C1741 C1740 1.367 . S
C1741 C1749 1.433 . S
C1742 H1738 0.929 . S
C1742 C1744 1.378 . S
C1742 C1746 1.350 . S
C1743 C1746 1.463 . S
C1743 C1748 1.350 . S
C1743 N1751 1.427 . S
C1744 H1735 0.930 . S
C1744 C1742 1.378 . S
C1744 C1745 1.367 . S
C1745 C1744 1.367 . S
C1745 C1747 1.433 . S
C1746 C1742 1.350 . S
C1746 C1743 1.463 . S
C1746 N1750 1.427 . S
C1747 H1737 0.929 . S
C1747 C1745 1.433 . S
C1747 N1750 1.384 . S
C1748 H1739 0.929 . S
C1748 C1740 1.378 . S
C1748 C1743 1.350 . S
C1749 H1736 0.929 . S
C1749 C1741 1.433 . S
C1749 N1751 1.384 . S
N1750 C1746 1.427 . S
N1750 C1747 1.384 . S
N1751 C1743 1.427 . S
N1751 C1749 1.384 . S
H1752 C1758 0.930 . S
H1753 C1762 0.930 . S
H1754 C1767 0.929 . S
H1755 C1765 0.929 . S
H1756 C1760 0.929 . S
H1757 C1766 0.929 . S
C1758 H1752 0.930 . S
C1758 C1759 1.367 . S
C1758 C1766 1.378 . S
C1759 C1758 1.367 . S
C1759 C1767 1.433 . S
C1760 H1756 0.929 . S
C1760 C1762 1.378 . S
C1760 C1764 1.350 . S
C1761 C1764 1.463 . S
C1761 C1766 1.350 . S
C1761 N1769 1.427 . S
C1762 H1753 0.930 . S
C1762 C1760 1.378 . S
C1762 C1763 1.367 . S
C1763 C1762 1.367 . S
C1763 C1765 1.433 . S
C1764 C1760 1.350 . S
C1764 C1761 1.463 . S
C1764 N1768 1.427 . S
C1765 H1755 0.929 . S
C1765 C1763 1.433 . S
C1765 N1768 1.384 . S
C1766 H1757 0.929 . S
C1766 C1758 1.378 . S
C1766 C1761 1.350 . S
C1767 H1754 0.929 . S
C1767 C1759 1.433 . S
C1767 N1769 1.384 . S
N1768 C1764 1.427 . S
N1768 C1765 1.384 . S
N1769 C1761 1.427 . S
N1769 C1767 1.384 . S
H1770 C1776 0.930 . S
H1771 C1780 0.930 . S
H1772 C1785 0.929 . S
H1773 C1783 0.929 . S
H1774 C1778 0.929 . S
H1775 C1784 0.929 . S
C1776 H1770 0.930 . S
C1776 C1777 1.367 . S
C1776 C1784 1.378 . S
C1777 C1776 1.367 . S
C1777 C1785 1.433 . S
C1778 H1774 0.929 . S
C1778 C1780 1.378 . S
C1778 C1782 1.350 . S
C1779 C1782 1.463 . S
C1779 C1784 1.350 . S
C1779 N1787 1.427 . S
C1780 H1771 0.930 . S
C1780 C1778 1.378 . S
C1780 C1781 1.367 . S
C1781 C1780 1.367 . S
C1781 C1783 1.433 . S
C1782 C1778 1.350 . S
C1782 C1779 1.463 . S
C1782 N1786 1.427 . S
C1783 H1773 0.929 . S
C1783 C1781 1.433 . S
C1783 N1786 1.384 . S
C1784 H1775 0.929 . S
C1784 C1776 1.378 . S
C1784 C1779 1.350 . S
C1785 H1772 0.929 . S
C1785 C1777 1.433 . S
C1785 N1787 1.384 . S
N1786 C1782 1.427 . S
N1786 C1783 1.384 . S
N1787 C1779 1.427 . S
N1787 C1785 1.384 . S
H1788 C1794 0.930 . S
H1789 C1798 0.930 . S
H1790 C1803 0.929 . S
H1791 C1801 0.929 . S
H1792 C1796 0.929 . S
H1793 C1802 0.929 . S
C1794 H1788 0.930 . S
C1794 C1795 1.367 . S
C1794 C1802 1.378 . S
C1795 C1794 1.367 . S
C1795 C1803 1.433 . S
C1796 H1792 0.929 . S
C1796 C1798 1.378 . S
C1796 C1800 1.350 . S
C1797 C1800 1.463 . S
C1797 C1802 1.350 . S
C1797 N1805 1.427 . S
C1798 H1789 0.930 . S
C1798 C1796 1.378 . S
C1798 C1799 1.367 . S
C1799 C1798 1.367 . S
C1799 C1801 1.433 . S
C1800 C1796 1.350 . S
C1800 C1797 1.463 . S
C1800 N1804 1.427 . S
C1801 H1791 0.929 . S
C1801 C1799 1.433 . S
C1801 N1804 1.384 . S
C1802 H1793 0.929 . S
C1802 C1794 1.378 . S
C1802 C1797 1.350 . S
C1803 H1790 0.929 . S
C1803 C1795 1.433 . S
C1803 N1805 1.384 . S
N1804 C1800 1.427 . S
N1804 C1801 1.384 . S
N1805 C1797 1.427 . S
N1805 C1803 1.384 . S
H1806 C1812 0.930 . S
H1807 C1816 0.930 . S
H1808 C1821 0.929 . S
H1809 C1819 0.929 . S
H1810 C1814 0.929 . S
H1811 C1820 0.929 . S
C1812 H1806 0.930 . S
C1812 C1813 1.367 . S
C1812 C1820 1.378 . S
C1813 C1812 1.367 . S
C1813 C1821 1.433 . S
C1814 H1810 0.929 . S
C1814 C1816 1.378 . S
C1814 C1818 1.350 . S
C1815 C1818 1.463 . S
C1815 C1820 1.350 . S
C1815 N1823 1.427 . S
C1816 H1807 0.930 . S
C1816 C1814 1.378 . S
C1816 C1817 1.367 . S
C1817 C1816 1.367 . S
C1817 C1819 1.433 . S
C1818 C1814 1.350 . S
C1818 C1815 1.463 . S
C1818 N1822 1.427 . S
C1819 H1809 0.929 . S
C1819 C1817 1.433 . S
C1819 N1822 1.384 . S
C1820 H1811 0.929 . S
C1820 C1812 1.378 . S
C1820 C1815 1.350 . S
C1821 H1808 0.929 . S
C1821 C1813 1.433 . S
C1821 N1823 1.384 . S
N1822 C1818 1.427 . S
N1822 C1819 1.384 . S
N1823 C1815 1.427 . S
N1823 C1821 1.384 . S
C535 C9 1.488 . S
C539 C404 1.410 . S
C553 C422 1.421 . S
C557 C31 1.484 . S
C571 C356 1.419 . S
C575 C53 1.482 . S
C589 C71 1.487 . S
C593 C378 1.416 . S
C607 C488 1.416 . S
C611 C93 1.484 . S
C625 C466 1.409 . S
C629 C119 1.490 . S
C643 C514 1.410 . S
C647 C137 1.490 . S
C661 C448 1.417 . S
C665 C159 1.483 . S
C679 C185 1.484 . S
C683 C294 1.416 . S
C697 C203 1.484 . S
C701 C338 1.416 . S
C715 C225 1.490 . S
C719 C316 1.410 . S
C733 C268 1.423 . S
C737 C251 1.483 . S
C751 C140 1.428 . S
C755 C271 1.478 . S
C769 C292 1.490 . S
C773 C162 1.409 . S
C787 C96 1.429 . S
C791 C314 1.478 . S
C805 C114 1.409 . S
C809 C336 1.491 . S
C823 C359 1.479 . S
C827 C228 1.428 . S
C841 C206 1.412 . S
C845 C381 1.489 . S
C859 C246 1.416 . S
C863 C402 1.484 . S
C877 C425 1.478 . S
C881 C180 1.428 . S
C895 C446 1.483 . S
C899 C26 1.417 . S
C913 C469 1.477 . S
C917 C74 1.428 . S
C931 C491 1.477 . S
C935 C48 1.427 . S
C949 C4 1.412 . S
C953 C512 1.487 . S
C967 C423 1.096 . S
C971 C5 1.100 . S
C985 C405 1.094 . S
C989 C27 1.093 . S
C1003 C379 1.093 . S
C1007 C49 1.097 . S
C1021 C357 1.114 . S
C1025 C75 1.079 . S
C1039 C97 1.093 . S
C1043 C515 1.094 . S
C1057 C115 1.093 . S
C1061 C449 1.106 . S
C1075 C489 1.112 . S
C1079 C141 1.086 . S
C1093 C467 1.104 . S
C1097 C163 1.095 . S
C1111 C317 1.100 . S
C1115 C181 1.083 . S
C1129 C207 1.100 . S
C1133 C269 1.097 . S
C1147 C295 1.101 . S
C1151 C229 1.098 . S
C1165 C339 1.109 . S
C1169 C247 1.091 . S
C1183 C270 1.077 . S
C1187 C161 1.114 . S
C1201 C139 1.100 . S
C1205 C293 1.084 . S
C1219 C315 1.098 . S
C1223 C116 1.094 . S
C1237 C337 1.078 . S
C1241 C95 1.114 . S
C1255 C248 1.094 . S
C1259 C358 1.092 . S
C1273 C182 1.094 . S
C1277 C380 1.099 . S
C1291 C403 1.088 . S
C1295 C227 1.110 . S
C1309 C424 1.093 . S
C1313 C205 1.094 . S
C1327 C50 1.111 . S
C1331 C447 1.087 . S
C1345 C6 1.095 . S
C1349 C468 1.099 . S
C1363 C490 1.077 . S
C1367 C28 1.108 . S
C1381 C513 1.085 . S
C1385 C73 1.099 . S
C1399 C8 0.900 . S
C1403 C94 0.901 . S
C1417 C117 0.909 . S
C1421 C30 0.893 . S
C1435 C138 0.907 . S
C1439 C52 0.894 . S
C1453 C160 0.900 . S
C1457 C70 0.900 . S
C1471 C183 0.906 . S
C1475 C92 0.896 . S
C1489 C118 0.893 . S
C1493 C249 0.909 . S
C1507 C136 0.900 . S
C1511 C204 0.902 . S
C1525 C226 0.889 . S
C1529 C158 0.909 . S
C1543 C184 0.907 . S
C1547 C7 0.891 . S
C1561 C202 0.912 . S
C1565 C51 0.887 . S
C1579 C72 0.905 . S
C1583 C224 0.897 . S
C1597 C29 0.896 . S
C1601 C250 0.904 . S
C1615 C272 0.896 . S
C1619 C361 0.906 . S
C1633 C383 0.903 . S
C1637 C290 0.898 . S
C1651 C401 0.891 . S
C1655 C312 0.908 . S
C1669 C427 0.891 . S
C1673 C334 0.908 . S
C1687 C360 0.908 . S
C1691 C445 0.892 . S
C1705 C511 0.890 . S
C1709 C382 0.909 . S
C1723 C400 0.900 . S
C1727 C471 0.901 . S
C1741 C426 0.912 . S
C1745 C493 0.886 . S
C1759 C273 0.907 . S
C1763 C444 0.895 . S
C1777 C313 0.907 . S
C1781 C470 0.895 . S
C1795 C335 0.892 . S
C1799 C492 0.907 . S
C1813 C291 0.908 . S
C1817 C510 0.894 . S
