# Generated by pormake.
# Topology sxp, (6)-cn, num edge types: 1
# Building blocks:
#     Node 0, Type 0, BuildingBlock: IZENUY_clean_sbu_0, # of connection points: 6
#     Node 1, Type 0, BuildingBlock: IZENUY_clean_sbu_0, # of connection points: 6
#     Node 2, Type 0, BuildingBlock: IZENUY_clean_sbu_0, # of connection points: 6
#     Node 3, Type 0, BuildingBlock: IZENUY_clean_sbu_0, # of connection points: 6
#     Node 4, Type 0, BuildingBlock: IZENUY_clean_sbu_0, # of connection points: 6
#     Node 5, Type 0, BuildingBlock: IZENUY_clean_sbu_0, # of connection points: 6
#     Node 6, Type 0, BuildingBlock: IZENUY_clean_sbu_0, # of connection points: 6
#     Node 7, Type 0, BuildingBlock: IZENUY_clean_sbu_0, # of connection points: 6
#     Node 8, Type 0, BuildingBlock: IZENUY_clean_sbu_0, # of connection points: 6
#     Node 9, Type 0, BuildingBlock: IZENUY_clean_sbu_0, # of connection points: 6
#     Node 10, Type 0, BuildingBlock: IZENUY_clean_sbu_0, # of connection points: 6
#     Node 11, Type 0, BuildingBlock: IZENUY_clean_sbu_0, # of connection points: 6
#     Node 12, Type 0, BuildingBlock: IZENUY_clean_sbu_0, # of connection points: 6
#     Node 13, Type 0, BuildingBlock: IZENUY_clean_sbu_0, # of connection points: 6
#     Node 14, Type 0, BuildingBlock: IZENUY_clean_sbu_0, # of connection points: 6
#     Node 15, Type 0, BuildingBlock: IZENUY_clean_sbu_0, # of connection points: 6
#     Node 16, Type 0, BuildingBlock: IZENUY_clean_sbu_0, # of connection points: 6
#     Node 17, Type 0, BuildingBlock: IZENUY_clean_sbu_0, # of connection points: 6
#     Node 18, Type 0, BuildingBlock: IZENUY_clean_sbu_0, # of connection points: 6
#     Node 19, Type 0, BuildingBlock: IZENUY_clean_sbu_0, # of connection points: 6
#     Node 20, Type 0, BuildingBlock: IZENUY_clean_sbu_0, # of connection points: 6
#     Node 21, Type 0, BuildingBlock: IZENUY_clean_sbu_0, # of connection points: 6
#     Node 22, Type 0, BuildingBlock: IZENUY_clean_sbu_0, # of connection points: 6
#     Node 23, Type 0, BuildingBlock: IZENUY_clean_sbu_0, # of connection points: 6
#     Node 24, Type 0, BuildingBlock: IZENUY_clean_sbu_0, # of connection points: 6
#     Node 25, Type 0, BuildingBlock: IZENUY_clean_sbu_0, # of connection points: 6
#     Node 26, Type 0, BuildingBlock: IZENUY_clean_sbu_0, # of connection points: 6
#     Node 27, Type 0, BuildingBlock: IZENUY_clean_sbu_0, # of connection points: 6
#     Node 28, Type 0, BuildingBlock: IZENUY_clean_sbu_0, # of connection points: 6
#     Node 29, Type 0, BuildingBlock: IZENUY_clean_sbu_0, # of connection points: 6
#     Node 30, Type 0, BuildingBlock: IZENUY_clean_sbu_0, # of connection points: 6
#     Node 31, Type 0, BuildingBlock: IZENUY_clean_sbu_0, # of connection points: 6
#     Node 32, Type 0, BuildingBlock: IZENUY_clean_sbu_0, # of connection points: 6
#     Node 33, Type 0, BuildingBlock: IZENUY_clean_sbu_0, # of connection points: 6
#     Node 34, Type 0, BuildingBlock: IZENUY_clean_sbu_0, # of connection points: 6
#     Node 35, Type 0, BuildingBlock: IZENUY_clean_sbu_0, # of connection points: 6
#     Node 36, Type 0, BuildingBlock: IZENUY_clean_sbu_0, # of connection points: 6
#     Node 37, Type 0, BuildingBlock: IZENUY_clean_sbu_0, # of connection points: 6
#     Node 38, Type 0, BuildingBlock: IZENUY_clean_sbu_0, # of connection points: 6
#     Node 39, Type 0, BuildingBlock: IZENUY_clean_sbu_0, # of connection points: 6
#     Node 40, Type 0, BuildingBlock: IZENUY_clean_sbu_0, # of connection points: 6
#     Node 41, Type 0, BuildingBlock: IZENUY_clean_sbu_0, # of connection points: 6
#     Node 42, Type 0, BuildingBlock: IZENUY_clean_sbu_0, # of connection points: 6
#     Node 43, Type 0, BuildingBlock: IZENUY_clean_sbu_0, # of connection points: 6
#     Node 44, Type 0, BuildingBlock: IZENUY_clean_sbu_0, # of connection points: 6
#     Node 45, Type 0, BuildingBlock: IZENUY_clean_sbu_0, # of connection points: 6
#     Node 46, Type 0, BuildingBlock: IZENUY_clean_sbu_0, # of connection points: 6
#     Node 47, Type 0, BuildingBlock: IZENUY_clean_sbu_0, # of connection points: 6
#     Node 48, Type 0, BuildingBlock: IZENUY_clean_sbu_0, # of connection points: 6
#     Node 49, Type 0, BuildingBlock: IZENUY_clean_sbu_0, # of connection points: 6
#     Node 50, Type 0, BuildingBlock: IZENUY_clean_sbu_0, # of connection points: 6
#     Node 51, Type 0, BuildingBlock: IZENUY_clean_sbu_0, # of connection points: 6
#     Node 52, Type 0, BuildingBlock: IZENUY_clean_sbu_0, # of connection points: 6
#     Node 53, Type 0, BuildingBlock: IZENUY_clean_sbu_0, # of connection points: 6
#     Node 54, Type 0, BuildingBlock: IZENUY_clean_sbu_0, # of connection points: 6
#     Node 55, Type 0, BuildingBlock: IZENUY_clean_sbu_0, # of connection points: 6
#     Node 56, Type 0, BuildingBlock: IZENUY_clean_sbu_0, # of connection points: 6
#     Node 57, Type 0, BuildingBlock: IZENUY_clean_sbu_0, # of connection points: 6
#     Node 58, Type 0, BuildingBlock: IZENUY_clean_sbu_0, # of connection points: 6
#     Node 59, Type 0, BuildingBlock: IZENUY_clean_sbu_0, # of connection points: 6
#     Node 60, Type 0, BuildingBlock: IZENUY_clean_sbu_0, # of connection points: 6
#     Node 61, Type 0, BuildingBlock: IZENUY_clean_sbu_0, # of connection points: 6
#     Node 62, Type 0, BuildingBlock: IZENUY_clean_sbu_0, # of connection points: 6
#     Node 63, Type 0, BuildingBlock: IZENUY_clean_sbu_0, # of connection points: 6
#     Node 64, Type 0, BuildingBlock: IZENUY_clean_sbu_0, # of connection points: 6
#     Node 65, Type 0, BuildingBlock: IZENUY_clean_sbu_0, # of connection points: 6
#     Node 66, Type 0, BuildingBlock: IZENUY_clean_sbu_0, # of connection points: 6
#     Node 67, Type 0, BuildingBlock: IZENUY_clean_sbu_0, # of connection points: 6
#     Node 68, Type 0, BuildingBlock: IZENUY_clean_sbu_0, # of connection points: 6
#     Node 69, Type 0, BuildingBlock: IZENUY_clean_sbu_0, # of connection points: 6
#     Node 70, Type 0, BuildingBlock: IZENUY_clean_sbu_0, # of connection points: 6
#     Node 71, Type 0, BuildingBlock: IZENUY_clean_sbu_0, # of connection points: 6
#     Node 72, Type 0, BuildingBlock: IZENUY_clean_sbu_0, # of connection points: 6
#     Node 73, Type 0, BuildingBlock: IZENUY_clean_sbu_0, # of connection points: 6
#     Node 74, Type 0, BuildingBlock: IZENUY_clean_sbu_0, # of connection points: 6
#     Node 75, Type 0, BuildingBlock: IZENUY_clean_sbu_0, # of connection points: 6
#     Node 76, Type 0, BuildingBlock: IZENUY_clean_sbu_0, # of connection points: 6
#     Node 77, Type 0, BuildingBlock: IZENUY_clean_sbu_0, # of connection points: 6
#     Node 78, Type 0, BuildingBlock: IZENUY_clean_sbu_0, # of connection points: 6
#     Node 79, Type 0, BuildingBlock: IZENUY_clean_sbu_0, # of connection points: 6
#     Node 80, Type 0, BuildingBlock: IZENUY_clean_sbu_0, # of connection points: 6
#     Node 81, Type 0, BuildingBlock: IZENUY_clean_sbu_0, # of connection points: 6
#     Node 82, Type 0, BuildingBlock: IZENUY_clean_sbu_0, # of connection points: 6
#     Node 83, Type 0, BuildingBlock: IZENUY_clean_sbu_0, # of connection points: 6
#     Node 84, Type 0, BuildingBlock: IZENUY_clean_sbu_0, # of connection points: 6
#     Node 85, Type 0, BuildingBlock: IZENUY_clean_sbu_0, # of connection points: 6
#     Node 86, Type 0, BuildingBlock: IZENUY_clean_sbu_0, # of connection points: 6
#     Node 87, Type 0, BuildingBlock: IZENUY_clean_sbu_0, # of connection points: 6
#     Node 88, Type 0, BuildingBlock: IZENUY_clean_sbu_0, # of connection points: 6
#     Node 89, Type 0, BuildingBlock: IZENUY_clean_sbu_0, # of connection points: 6
#     Node 90, Type 0, BuildingBlock: IZENUY_clean_sbu_0, # of connection points: 6
#     Node 91, Type 0, BuildingBlock: IZENUY_clean_sbu_0, # of connection points: 6
#     Node 92, Type 0, BuildingBlock: IZENUY_clean_sbu_0, # of connection points: 6
#     Node 93, Type 0, BuildingBlock: IZENUY_clean_sbu_0, # of connection points: 6
#     Node 94, Type 0, BuildingBlock: IZENUY_clean_sbu_0, # of connection points: 6
#     Node 95, Type 0, BuildingBlock: IZENUY_clean_sbu_0, # of connection points: 6
#     Edge 96, Type (0, 0), None
#     Edge 97, Type (0, 0), None
#     Edge 98, Type (0, 0), None
#     Edge 99, Type (0, 0), None
#     Edge 100, Type (0, 0), None
#     Edge 101, Type (0, 0), None
#     Edge 102, Type (0, 0), None
#     Edge 103, Type (0, 0), None
#     Edge 104, Type (0, 0), None
#     Edge 105, Type (0, 0), None
#     Edge 106, Type (0, 0), None
#     Edge 107, Type (0, 0), None
#     Edge 108, Type (0, 0), None
#     Edge 109, Type (0, 0), None
#     Edge 110, Type (0, 0), None
#     Edge 111, Type (0, 0), None
#     Edge 112, Type (0, 0), None
#     Edge 113, Type (0, 0), None
#     Edge 114, Type (0, 0), None
#     Edge 115, Type (0, 0), None
#     Edge 116, Type (0, 0), None
#     Edge 117, Type (0, 0), None
#     Edge 118, Type (0, 0), None
#     Edge 119, Type (0, 0), None
#     Edge 120, Type (0, 0), None
#     Edge 121, Type (0, 0), None
#     Edge 122, Type (0, 0), None
#     Edge 123, Type (0, 0), None
#     Edge 124, Type (0, 0), None
#     Edge 125, Type (0, 0), None
#     Edge 126, Type (0, 0), None
#     Edge 127, Type (0, 0), None
#     Edge 128, Type (0, 0), None
#     Edge 129, Type (0, 0), None
#     Edge 130, Type (0, 0), None
#     Edge 131, Type (0, 0), None
#     Edge 132, Type (0, 0), None
#     Edge 133, Type (0, 0), None
#     Edge 134, Type (0, 0), None
#     Edge 135, Type (0, 0), None
#     Edge 136, Type (0, 0), None
#     Edge 137, Type (0, 0), None
#     Edge 138, Type (0, 0), None
#     Edge 139, Type (0, 0), None
#     Edge 140, Type (0, 0), None
#     Edge 141, Type (0, 0), None
#     Edge 142, Type (0, 0), None
#     Edge 143, Type (0, 0), None
#     Edge 144, Type (0, 0), None
#     Edge 145, Type (0, 0), None
#     Edge 146, Type (0, 0), None
#     Edge 147, Type (0, 0), None
#     Edge 148, Type (0, 0), None
#     Edge 149, Type (0, 0), None
#     Edge 150, Type (0, 0), None
#     Edge 151, Type (0, 0), None
#     Edge 152, Type (0, 0), None
#     Edge 153, Type (0, 0), None
#     Edge 154, Type (0, 0), None
#     Edge 155, Type (0, 0), None
#     Edge 156, Type (0, 0), None
#     Edge 157, Type (0, 0), None
#     Edge 158, Type (0, 0), None
#     Edge 159, Type (0, 0), None
#     Edge 160, Type (0, 0), None
#     Edge 161, Type (0, 0), None
#     Edge 162, Type (0, 0), None
#     Edge 163, Type (0, 0), None
#     Edge 164, Type (0, 0), None
#     Edge 165, Type (0, 0), None
#     Edge 166, Type (0, 0), None
#     Edge 167, Type (0, 0), None
#     Edge 168, Type (0, 0), None
#     Edge 169, Type (0, 0), None
#     Edge 170, Type (0, 0), None
#     Edge 171, Type (0, 0), None
#     Edge 172, Type (0, 0), None
#     Edge 173, Type (0, 0), None
#     Edge 174, Type (0, 0), None
#     Edge 175, Type (0, 0), None
#     Edge 176, Type (0, 0), None
#     Edge 177, Type (0, 0), None
#     Edge 178, Type (0, 0), None
#     Edge 179, Type (0, 0), None
#     Edge 180, Type (0, 0), None
#     Edge 181, Type (0, 0), None
#     Edge 182, Type (0, 0), None
#     Edge 183, Type (0, 0), None
#     Edge 184, Type (0, 0), None
#     Edge 185, Type (0, 0), None
#     Edge 186, Type (0, 0), None
#     Edge 187, Type (0, 0), None
#     Edge 188, Type (0, 0), None
#     Edge 189, Type (0, 0), None
#     Edge 190, Type (0, 0), None
#     Edge 191, Type (0, 0), None
#     Edge 192, Type (0, 0), None
#     Edge 193, Type (0, 0), None
#     Edge 194, Type (0, 0), None
#     Edge 195, Type (0, 0), None
#     Edge 196, Type (0, 0), None
#     Edge 197, Type (0, 0), None
#     Edge 198, Type (0, 0), None
#     Edge 199, Type (0, 0), None
#     Edge 200, Type (0, 0), None
#     Edge 201, Type (0, 0), None
#     Edge 202, Type (0, 0), None
#     Edge 203, Type (0, 0), None
#     Edge 204, Type (0, 0), None
#     Edge 205, Type (0, 0), None
#     Edge 206, Type (0, 0), None
#     Edge 207, Type (0, 0), None
#     Edge 208, Type (0, 0), None
#     Edge 209, Type (0, 0), None
#     Edge 210, Type (0, 0), None
#     Edge 211, Type (0, 0), None
#     Edge 212, Type (0, 0), None
#     Edge 213, Type (0, 0), None
#     Edge 214, Type (0, 0), None
#     Edge 215, Type (0, 0), None
#     Edge 216, Type (0, 0), None
#     Edge 217, Type (0, 0), None
#     Edge 218, Type (0, 0), None
#     Edge 219, Type (0, 0), None
#     Edge 220, Type (0, 0), None
#     Edge 221, Type (0, 0), None
#     Edge 222, Type (0, 0), None
#     Edge 223, Type (0, 0), None
#     Edge 224, Type (0, 0), None
#     Edge 225, Type (0, 0), None
#     Edge 226, Type (0, 0), None
#     Edge 227, Type (0, 0), None
#     Edge 228, Type (0, 0), None
#     Edge 229, Type (0, 0), None
#     Edge 230, Type (0, 0), None
#     Edge 231, Type (0, 0), None
#     Edge 232, Type (0, 0), None
#     Edge 233, Type (0, 0), None
#     Edge 234, Type (0, 0), None
#     Edge 235, Type (0, 0), None
#     Edge 236, Type (0, 0), None
#     Edge 237, Type (0, 0), None
#     Edge 238, Type (0, 0), None
#     Edge 239, Type (0, 0), None
#     Edge 240, Type (0, 0), None
#     Edge 241, Type (0, 0), None
#     Edge 242, Type (0, 0), None
#     Edge 243, Type (0, 0), None
#     Edge 244, Type (0, 0), None
#     Edge 245, Type (0, 0), None
#     Edge 246, Type (0, 0), None
#     Edge 247, Type (0, 0), None
#     Edge 248, Type (0, 0), None
#     Edge 249, Type (0, 0), None
#     Edge 250, Type (0, 0), None
#     Edge 251, Type (0, 0), None
#     Edge 252, Type (0, 0), None
#     Edge 253, Type (0, 0), None
#     Edge 254, Type (0, 0), None
#     Edge 255, Type (0, 0), None
#     Edge 256, Type (0, 0), None
#     Edge 257, Type (0, 0), None
#     Edge 258, Type (0, 0), None
#     Edge 259, Type (0, 0), None
#     Edge 260, Type (0, 0), None
#     Edge 261, Type (0, 0), None
#     Edge 262, Type (0, 0), None
#     Edge 263, Type (0, 0), None
#     Edge 264, Type (0, 0), None
#     Edge 265, Type (0, 0), None
#     Edge 266, Type (0, 0), None
#     Edge 267, Type (0, 0), None
#     Edge 268, Type (0, 0), None
#     Edge 269, Type (0, 0), None
#     Edge 270, Type (0, 0), None
#     Edge 271, Type (0, 0), None
#     Edge 272, Type (0, 0), None
#     Edge 273, Type (0, 0), None
#     Edge 274, Type (0, 0), None
#     Edge 275, Type (0, 0), None
#     Edge 276, Type (0, 0), None
#     Edge 277, Type (0, 0), None
#     Edge 278, Type (0, 0), None
#     Edge 279, Type (0, 0), None
#     Edge 280, Type (0, 0), None
#     Edge 281, Type (0, 0), None
#     Edge 282, Type (0, 0), None
#     Edge 283, Type (0, 0), None
#     Edge 284, Type (0, 0), None
#     Edge 285, Type (0, 0), None
#     Edge 286, Type (0, 0), None
#     Edge 287, Type (0, 0), None
#     Edge 288, Type (0, 0), None
#     Edge 289, Type (0, 0), None
#     Edge 290, Type (0, 0), None
#     Edge 291, Type (0, 0), None
#     Edge 292, Type (0, 0), None
#     Edge 293, Type (0, 0), None
#     Edge 294, Type (0, 0), None
#     Edge 295, Type (0, 0), None
#     Edge 296, Type (0, 0), None
#     Edge 297, Type (0, 0), None
#     Edge 298, Type (0, 0), None
#     Edge 299, Type (0, 0), None
#     Edge 300, Type (0, 0), None
#     Edge 301, Type (0, 0), None
#     Edge 302, Type (0, 0), None
#     Edge 303, Type (0, 0), None
#     Edge 304, Type (0, 0), None
#     Edge 305, Type (0, 0), None
#     Edge 306, Type (0, 0), None
#     Edge 307, Type (0, 0), None
#     Edge 308, Type (0, 0), None
#     Edge 309, Type (0, 0), None
#     Edge 310, Type (0, 0), None
#     Edge 311, Type (0, 0), None
#     Edge 312, Type (0, 0), None
#     Edge 313, Type (0, 0), None
#     Edge 314, Type (0, 0), None
#     Edge 315, Type (0, 0), None
#     Edge 316, Type (0, 0), None
#     Edge 317, Type (0, 0), None
#     Edge 318, Type (0, 0), None
#     Edge 319, Type (0, 0), None
#     Edge 320, Type (0, 0), None
#     Edge 321, Type (0, 0), None
#     Edge 322, Type (0, 0), None
#     Edge 323, Type (0, 0), None
#     Edge 324, Type (0, 0), None
#     Edge 325, Type (0, 0), None
#     Edge 326, Type (0, 0), None
#     Edge 327, Type (0, 0), None
#     Edge 328, Type (0, 0), None
#     Edge 329, Type (0, 0), None
#     Edge 330, Type (0, 0), None
#     Edge 331, Type (0, 0), None
#     Edge 332, Type (0, 0), None
#     Edge 333, Type (0, 0), None
#     Edge 334, Type (0, 0), None
#     Edge 335, Type (0, 0), None
#     Edge 336, Type (0, 0), None
#     Edge 337, Type (0, 0), None
#     Edge 338, Type (0, 0), None
#     Edge 339, Type (0, 0), None
#     Edge 340, Type (0, 0), None
#     Edge 341, Type (0, 0), None
#     Edge 342, Type (0, 0), None
#     Edge 343, Type (0, 0), None
#     Edge 344, Type (0, 0), None
#     Edge 345, Type (0, 0), None
#     Edge 346, Type (0, 0), None
#     Edge 347, Type (0, 0), None
#     Edge 348, Type (0, 0), None
#     Edge 349, Type (0, 0), None
#     Edge 350, Type (0, 0), None
#     Edge 351, Type (0, 0), None
#     Edge 352, Type (0, 0), None
#     Edge 353, Type (0, 0), None
#     Edge 354, Type (0, 0), None
#     Edge 355, Type (0, 0), None
#     Edge 356, Type (0, 0), None
#     Edge 357, Type (0, 0), None
#     Edge 358, Type (0, 0), None
#     Edge 359, Type (0, 0), None
#     Edge 360, Type (0, 0), None
#     Edge 361, Type (0, 0), None
#     Edge 362, Type (0, 0), None
#     Edge 363, Type (0, 0), None
#     Edge 364, Type (0, 0), None
#     Edge 365, Type (0, 0), None
#     Edge 366, Type (0, 0), None
#     Edge 367, Type (0, 0), None
#     Edge 368, Type (0, 0), None
#     Edge 369, Type (0, 0), None
#     Edge 370, Type (0, 0), None
#     Edge 371, Type (0, 0), None
#     Edge 372, Type (0, 0), None
#     Edge 373, Type (0, 0), None
#     Edge 374, Type (0, 0), None
#     Edge 375, Type (0, 0), None
#     Edge 376, Type (0, 0), None
#     Edge 377, Type (0, 0), None
#     Edge 378, Type (0, 0), None
#     Edge 379, Type (0, 0), None
#     Edge 380, Type (0, 0), None
#     Edge 381, Type (0, 0), None
#     Edge 382, Type (0, 0), None
#     Edge 383, Type (0, 0), None
# Relax obj value: 0.522
# Max RMSD: 0.178
# Mean RMSD: 0.177
data_MOF--net-sxp--node1-IZENUY_clean_sbu_0--edge1-none
_symmetry_space_group_name_H-M    P1
_symmetry_Int_Tables_number       1
_symmetry_cell_setting            triclinic
loop_
_symmetry_equiv_pos_as_xyz
'x, y, z'
_cell_length_a     30.008335
_cell_length_b     30.008155
_cell_length_c     30.008031
_cell_angle_alpha  90.000451
_cell_angle_beta   90.000175
_cell_angle_gamma 89.999913
loop_
_atom_site_label
_atom_site_type_symbol
_atom_site_fract_x
_atom_site_fract_y
_atom_site_fract_z
_atom_type_partial_charge
Fe0 Fe 0.19947 0.25146 0.30242 0.0
Fe1 Fe 0.144 0.25713 0.38863 0.0
O2 O 0.15305 0.23689 0.33268 0.0
Fe3 Fe 0.11827 0.19944 0.30703 0.0
O4 O 0.16254 0.15655 0.29373 0.0
O5 O 0.19836 0.20633 0.26148 0.0
O6 O 0.23114 0.21829 0.34039 0.0
C7 C 0.23068 0.22553 0.38226 0.0
C8 C 0.14066 0.26615 0.23821 0.0
O9 O 0.201 0.24752 0.4021 0.0
C10 C 0.06534 0.27704 0.34569 0.0
O11 O 0.21367 0.29832 0.3342 0.0
O12 O 0.15358 0.31273 0.37159 0.0
O13 O 0.12107 0.22897 0.24954 0.0
O14 O 0.16319 0.28541 0.26807 0.0
C15 C 0.15155 0.16942 0.39292 0.0
O16 O 0.08524 0.2711 0.38221 0.0
O17 O 0.06997 0.24379 0.31739 0.0
C18 C 0.19211 0.32193 0.36006 0.0
O19 O 0.13606 0.20302 0.41252 0.0
O20 O 0.1272 0.16018 0.35819 0.0
C21 C 0.19477 0.1659 0.26888 0.0
Fe22 Fe 0.08597 0.89403 0.63863 0.0
Fe23 Fe 0.14368 0.86828 0.55704 0.0
O24 O 0.10621 0.90307 0.58268 0.0
Fe25 Fe 0.09165 0.94948 0.55241 0.0
O26 O 0.1248 0.98116 0.59036 0.0
O27 O 0.09557 0.95104 0.65209 0.0
O28 O 0.14008 0.88611 0.66253 0.0
C29 C 0.17368 0.90158 0.64293 0.0
C30 C 1.02116 0.94211 0.61003 0.0
O31 O 0.18293 0.87722 0.6082 0.0
C32 C 0.07696 0.89065 0.48822 0.0
O33 O 0.07201 0.83526 0.63222 0.0
O34 O 0.09934 0.81998 0.5674 0.0
O35 O 1.04478 0.96367 0.58418 0.0
O36 O 1.03037 0.90359 0.62158 0.0
C37 C 0.17721 0.94478 0.51888 0.0
O38 O 0.11415 0.87108 0.49954 0.0
O39 O 0.0577 0.91318 0.51807 0.0
C40 C 0.06608 0.81535 0.59569 0.0
O41 O 0.18656 0.91255 0.54375 0.0
O42 O 0.13678 0.94836 0.51148 0.0
C43 C 0.11756 0.9807 0.63224 0.0
Fe44 Fe 0.47483 0.89367 0.80704 0.0
Fe45 Fe 0.39362 0.84165 0.80242 0.0
O46 O 0.44004 0.85621 0.83268 0.0
Fe47 Fe 0.44908 0.83597 0.88864 0.0
O48 O 0.45702 0.89008 0.91253 0.0
O49 O 0.4659 0.93293 0.8582 0.0
O50 O 0.43056 0.93655 0.79374 0.0
C51 C 0.39832 0.9272 0.76888 0.0
C52 C 0.52776 0.81607 0.8457 0.0
O53 O 0.39474 0.88678 0.76149 0.0
C54 C 0.40098 0.77117 0.86006 0.0
O55 O 0.47202 0.86414 0.74954 0.0
O56 O 0.42991 0.8077 0.76807 0.0
O57 O 0.50785 0.822 0.88222 0.0
O58 O 0.52313 0.84932 0.8174 0.0
C59 C 0.36241 0.86757 0.88226 0.0
O60 O 0.37943 0.79478 0.83419 0.0
O61 O 0.43951 0.78037 0.87159 0.0
C62 C 0.45244 0.82696 0.73822 0.0
O63 O 0.36195 0.87481 0.84038 0.0
O64 O 0.39208 0.84558 0.9021 0.0
C65 C 0.44154 0.92368 0.89293 0.0
Fe66 Fe 0.50713 0.19907 0.13862 0.0
Fe67 Fe 0.44942 0.22482 0.05704 0.0
O68 O 0.48688 0.19004 0.08267 0.0
Fe69 Fe 0.50145 0.14363 0.0524 0.0
O70 O 0.46829 0.11194 0.09036 0.0
O71 O 0.49753 0.14207 0.15208 0.0
O72 O 0.45302 0.20699 0.16252 0.0
C73 C 0.41942 0.19152 0.14292 0.0
C74 C 0.57194 0.15099 0.11002 0.0
O75 O 0.41017 0.21588 0.1082 0.0
C76 C 0.51613 0.20245 0.98821 0.0
O77 O 0.52109 0.25784 0.13221 0.0
O78 O 0.49376 0.27312 0.0674 0.0
O79 O 0.54832 0.12943 0.08417 0.0
O80 O 0.56273 0.18952 0.12157 0.0
C81 C 0.41589 0.14832 1.01888 0.0
O82 O 0.47894 0.22202 0.99954 0.0
O83 O 0.53539 0.17992 1.01807 0.0
C84 C 0.52701 0.27775 0.09569 0.0
O85 O 0.40654 0.18055 1.04375 0.0
O86 O 0.45631 0.14474 1.01148 0.0
C87 C 0.47554 0.1124 0.13224 0.0
Fe88 Fe 0.11828 0.89367 0.28607 0.0
Fe89 Fe 0.19947 0.84164 0.29069 0.0
O90 O 0.15306 0.85621 0.26043 0.0
Fe91 Fe 0.14401 0.83597 0.20448 0.0
O92 O 0.13609 0.89008 0.18059 0.0
O93 O 0.12721 0.93292 0.23491 0.0
O94 O 0.16254 0.93655 0.29937 0.0
C95 C 0.19477 0.9272 0.32423 0.0
C96 C 0.06534 0.81607 0.24742 0.0
O97 O 0.19836 0.88678 0.33162 0.0
C98 C 0.1921 0.77116 0.23307 0.0
O99 O 0.12108 0.86414 0.34357 0.0
O100 O 0.16319 0.8077 0.32504 0.0
O101 O 0.08525 0.822 0.21089 0.0
O102 O 0.06997 0.84932 0.27571 0.0
C103 C 0.23069 0.86755 0.21085 0.0
O104 O 0.21366 0.79477 0.25892 0.0
O105 O 0.15357 0.78036 0.22152 0.0
C106 C 0.14066 0.82696 0.3549 0.0
O107 O 0.23116 0.8748 0.25273 0.0
O108 O 0.20101 0.84556 0.19101 0.0
C109 C 0.15157 0.92367 0.20019 0.0
Fe110 Fe 0.44942 0.86829 0.53605 0.0
Fe111 Fe 0.50145 0.94948 0.54069 0.0
O112 O 0.48689 0.90307 0.51042 0.0
Fe113 Fe 0.50713 0.89404 0.45447 0.0
O114 O 0.45302 0.88612 0.43057 0.0
O115 O 0.41017 0.87722 0.48489 0.0
O116 O 0.40654 0.91255 0.54935 0.0
C117 C 0.41589 0.94478 0.57422 0.0
C118 C 0.52702 0.81536 0.49739 0.0
O119 O 0.45631 0.94836 0.58162 0.0
C120 C 0.57194 0.94212 0.48307 0.0
O121 O 0.47894 0.87108 0.59355 0.0
O122 O 0.53539 0.91318 0.57503 0.0
O123 O 0.52109 0.83527 0.46087 0.0
O124 O 0.49377 0.81998 0.52569 0.0
C125 C 0.47554 0.98071 0.46086 0.0
O126 O 0.54832 0.96368 0.50893 0.0
O127 O 0.56273 0.9036 0.47152 0.0
C128 C 0.51613 0.89065 0.60488 0.0
O129 O 0.46829 0.98117 0.50274 0.0
O130 O 0.49753 0.95105 0.44101 0.0
C131 C 0.41942 0.90159 0.45017 0.0
Fe132 Fe 0.39362 0.25146 0.79069 0.0
Fe133 Fe 0.44908 0.25714 0.70448 0.0
O134 O 0.44004 0.2369 0.76043 0.0
Fe135 Fe 0.47482 0.19944 0.78607 0.0
O136 O 0.43056 0.15655 0.79937 0.0
O137 O 0.39474 0.20632 0.83162 0.0
O138 O 0.36194 0.2183 0.75273 0.0
C139 C 0.36241 0.22555 0.71085 0.0
C140 C 0.45244 0.26614 0.8549 0.0
O141 O 0.39208 0.24754 0.69101 0.0
C142 C 0.52775 0.27703 0.74741 0.0
O143 O 0.37944 0.29833 0.75892 0.0
O144 O 0.43952 0.31274 0.72152 0.0
O145 O 0.47202 0.22896 0.84357 0.0
O146 O 0.42991 0.2854 0.82504 0.0
C147 C 0.44153 0.16943 0.70018 0.0
O148 O 0.50785 0.2711 0.71089 0.0
O149 O 0.52312 0.24379 0.77571 0.0
C150 C 0.401 0.32195 0.73307 0.0
O151 O 0.45701 0.20303 0.68058 0.0
O152 O 0.46589 0.16018 0.73491 0.0
C153 C 0.39833 0.1659 0.82423 0.0
Fe154 Fe 0.08598 0.19909 0.95447 0.0
Fe155 Fe 0.14367 0.22482 1.03607 0.0
O156 O 0.10621 0.19004 1.01042 0.0
Fe157 Fe 0.09164 0.14362 1.04068 0.0
O158 O 0.12481 0.11195 1.00271 0.0
O159 O 0.09558 0.14209 0.941 0.0
O160 O 0.14009 0.20702 0.93059 0.0
C161 C 0.17369 0.19153 0.95019 0.0
C162 C 1.02116 0.15099 0.98303 0.0
O163 O 0.18293 0.21589 0.98492 0.0
C164 C 0.07695 0.20243 0.10489 0.0
O165 O 0.07201 0.25786 0.96089 0.0
O166 O 0.09932 0.27313 1.02571 0.0
O167 O 1.04477 0.12943 1.0089 0.0
O168 O 1.03037 0.18952 0.9715 0.0
C169 C 0.1772 0.14831 0.07423 0.0
O170 O 0.11414 0.22201 0.09357 0.0
O171 O 0.05769 0.1799 0.07504 0.0
C172 C 0.06608 0.27776 0.99741 0.0
O173 O 0.18655 0.18055 0.04937 0.0
O174 O 0.13677 0.14473 0.08162 0.0
C175 C 0.11756 0.11242 0.96084 0.0
Fe176 Fe 0.3886 0.14402 0.25712 0.0
Fe177 Fe 0.307 0.11829 0.19943 0.0
O178 O 0.33265 0.15308 0.23689 0.0
Fe179 Fe 0.30242 0.19953 0.25143 0.0
O180 O 0.34039 0.23116 0.21823 0.0
O181 O 0.40209 0.20101 0.24749 0.0
O182 O 0.41249 0.13604 0.20302 0.0
C183 C 0.39292 0.15152 0.1694 0.0
C184 C 0.36004 0.19216 0.32191 0.0
O185 O 0.35815 0.12723 0.16016 0.0
C186 C 0.23824 0.1407 0.26616 0.0
O187 O 0.38217 0.08527 0.27113 0.0
O188 O 0.31736 0.06999 0.24377 0.0
O189 O 0.33421 0.21373 0.29828 0.0
O190 O 0.37156 0.15362 0.31272 0.0
C191 C 0.26885 0.19479 0.16588 0.0
O192 O 0.24952 0.1211 0.22897 0.0
O193 O 0.26804 0.1633 0.28541 0.0
C194 C 0.34564 0.06536 0.27704 0.0
O195 O 0.2937 0.16255 0.15654 0.0
O196 O 0.26147 0.19839 0.20631 0.0
C197 C 0.38227 0.23068 0.22549 0.0
Fe198 Fe 0.19908 0.13863 0.50713 0.0
Fe199 Fe 0.22479 0.05702 0.44944 0.0
O200 O 0.19001 0.08267 0.4869 0.0
Fe201 Fe 0.14357 0.05244 0.50146 0.0
O202 O 0.11193 0.09042 0.46827 0.0
O203 O 0.14208 0.15212 0.49751 0.0
O204 O 0.20703 0.16251 0.45301 0.0
C205 C 0.19155 0.14293 0.4194 0.0
C206 C 0.15096 0.11008 0.57193 0.0
O207 O 0.21584 0.10816 0.41016 0.0
C208 C 0.2024 0.98825 0.51617 0.0
O209 O 0.25783 0.13219 0.52111 0.0
O210 O 0.2731 0.06738 0.49378 0.0
O211 O 0.12939 0.08423 0.54831 0.0
O212 O 0.18949 0.1216 0.56273 0.0
C213 C 0.14828 1.01888 0.41592 0.0
O214 O 0.22198 0.99953 0.47897 0.0
O215 O 0.17981 1.01806 0.53543 0.0
C216 C 0.27773 0.09567 0.52703 0.0
O217 O 0.18052 1.04372 0.40656 0.0
O218 O 0.14469 1.01149 0.45634 0.0
C219 C 0.1124 0.13229 0.47552 0.0
Fe220 Fe 0.20449 0.94909 0.75713 0.0
Fe221 Fe 0.28609 0.97481 0.69944 0.0
O222 O 0.26044 0.94003 0.7369 0.0
Fe223 Fe 0.29067 0.89358 0.75145 0.0
O224 O 0.25269 0.86195 0.71825 0.0
O225 O 0.19099 0.8921 0.7475 0.0
O226 O 0.1806 0.95706 0.70302 0.0
C227 C 0.20017 0.94158 0.66941 0.0
C228 C 0.23304 0.90095 0.82192 0.0
O229 O 0.23495 0.96587 0.66017 0.0
C230 C 0.35486 0.95241 0.76617 0.0
O231 O 0.21092 1.00784 0.77113 0.0
O232 O 0.27573 1.02312 0.74379 0.0
O233 O 0.25888 0.87938 0.7983 0.0
O234 O 0.22152 0.93949 0.81273 0.0
C235 C 0.32425 0.89831 0.6659 0.0
O236 O 0.34358 0.972 0.72898 0.0
O237 O 0.32505 0.92981 0.78543 0.0
C238 C 0.24745 1.02775 0.77704 0.0
O239 O 0.29939 0.93055 0.65655 0.0
O240 O 0.33162 0.89471 0.70633 0.0
C241 C 0.21082 0.86242 0.7255 0.0
Fe242 Fe 0.39402 0.95447 1.00713 0.0
Fe243 Fe 0.3683 1.03608 0.94944 0.0
O244 O 0.40308 1.01043 0.9869 0.0
Fe245 Fe 0.44952 1.04066 1.00146 0.0
O246 O 0.48117 1.00268 0.96828 0.0
O247 O 0.45101 0.94098 0.99751 0.0
O248 O 0.38606 0.93059 0.95302 0.0
C249 C 0.40154 0.95017 0.91941 0.0
C250 C 0.44214 0.98302 0.07193 0.0
O251 O 0.37724 0.98494 0.91017 0.0
C252 C 0.39069 0.10485 1.01617 0.0
O253 O 0.33526 0.96091 1.02112 0.0
O254 O 0.31999 1.02572 0.99378 0.0
O255 O 0.46371 1.00887 0.04832 0.0
O256 O 0.4036 0.9715 0.06273 0.0
C257 C 0.44481 0.07422 0.91592 0.0
O258 O 0.37111 0.09357 0.97898 0.0
O259 O 0.41329 0.07504 1.03543 0.0
C260 C 0.31536 0.99743 1.02703 0.0
O261 O 0.41257 0.04938 0.90656 0.0
O262 O 0.4484 0.08161 0.95634 0.0
C263 C 0.48069 0.96081 0.97553 0.0
Fe264 Fe 0.307 0.97481 0.39368 0.0
Fe265 Fe 0.30241 0.89358 0.34168 0.0
O266 O 0.33265 0.94003 0.35622 0.0
Fe267 Fe 0.3886 0.94909 0.33598 0.0
O268 O 0.41249 0.95708 0.39008 0.0
O269 O 0.35815 0.96588 0.43294 0.0
O270 O 0.29371 0.93055 0.43657 0.0
C271 C 0.26885 0.89831 0.42722 0.0
C272 C 0.34566 1.02778 0.3161 0.0
O273 O 0.26146 0.89472 0.38679 0.0
C274 C 0.36005 0.90093 0.27121 0.0
O275 O 0.24951 0.972 0.36414 0.0
O276 O 0.26804 0.92981 0.30769 0.0
O277 O 0.38217 1.00783 0.32195 0.0
O278 O 0.31736 1.02312 0.34934 0.0
C279 C 0.38226 0.86242 0.36762 0.0
O280 O 0.33421 0.87937 0.29483 0.0
O281 O 0.37156 0.93947 0.28039 0.0
C282 C 0.23824 0.95241 0.32695 0.0
O283 O 0.34039 0.86195 0.37488 0.0
O284 O 0.40209 0.8921 0.34563 0.0
C285 C 0.39293 0.94159 0.4237 0.0
Fe286 Fe 0.3683 0.05701 0.64367 0.0
Fe287 Fe 0.44952 0.05244 0.59165 0.0
O288 O 0.40307 0.08267 0.6062 0.0
Fe289 Fe 0.394 0.13863 0.58598 0.0
O290 O 0.38603 0.16251 0.64009 0.0
O291 O 0.37724 0.10816 0.68294 0.0
O292 O 0.41256 1.04372 0.68655 0.0
C293 C 0.4448 1.01887 0.67719 0.0
C294 C 0.31531 0.09568 0.5661 0.0
O295 O 0.4484 1.0115 0.63676 0.0
C296 C 0.44214 0.11009 0.52118 0.0
O297 O 0.37111 0.99953 0.61413 0.0
O298 O 0.41329 1.01806 0.55767 0.0
O299 O 0.33525 0.1322 0.57197 0.0
O300 O 0.31999 0.06737 0.59933 0.0
C301 C 0.48067 0.1323 0.61759 0.0
O302 O 0.4637 0.08424 0.5448 0.0
O303 O 0.4036 0.1216 0.53038 0.0
C304 C 0.39069 0.98825 0.57693 0.0
O305 O 0.48115 0.09042 0.62484 0.0
O306 O 0.45099 0.15213 0.59561 0.0
C307 C 0.40152 0.14293 0.6737 0.0
Fe308 Fe 0.2861 0.1183 0.89368 0.0
Fe309 Fe 0.29069 0.19952 0.84168 0.0
O310 O 0.26045 0.15308 0.85622 0.0
Fe311 Fe 0.2045 0.14402 0.83599 0.0
O312 O 0.18061 0.13605 0.89009 0.0
O313 O 0.23495 0.12724 0.93295 0.0
O314 O 0.29939 0.16256 0.93657 0.0
C315 C 0.32425 0.19479 0.92722 0.0
C316 C 0.24743 0.06533 0.81611 0.0
O317 O 0.33164 0.19839 0.8868 0.0
C318 C 0.23305 0.19217 0.7712 0.0
O319 O 0.34358 0.1211 0.86414 0.0
O320 O 0.32505 0.16329 0.80769 0.0
O321 O 0.21092 0.08528 0.82197 0.0
O322 O 0.27574 0.06999 0.84934 0.0
C323 C 0.21084 0.23069 0.86762 0.0
O324 O 0.2589 0.21373 0.79483 0.0
O325 O 0.22154 0.15363 0.78039 0.0
C326 C 0.35486 0.14069 0.82695 0.0
O327 O 0.25272 0.23116 0.87488 0.0
O328 O 0.19101 0.20102 0.84563 0.0
C329 C 0.20018 0.15153 0.92371 0.0
Fe330 Fe 0.22481 1.03609 0.14368 0.0
Fe331 Fe 0.14357 1.04067 0.09168 0.0
O332 O 0.19002 1.01044 0.10622 0.0
Fe333 Fe 0.19908 0.95449 0.08598 0.0
O334 O 0.20706 0.9306 0.14009 0.0
O335 O 0.21587 0.98494 0.18295 0.0
O336 O 0.18055 0.04939 0.18657 0.0
C337 C 0.14832 0.07425 0.17723 0.0
C338 C 0.27777 0.99742 0.0661 0.0
O339 O 0.14471 0.08162 0.1368 0.0
C340 C 0.15093 0.98305 1.0212 0.0
O341 O 0.22199 0.09357 0.11414 0.0
O342 O 0.1798 0.07504 0.0577 0.0
O343 O 0.25783 0.96091 0.07197 0.0
O344 O 0.27311 1.02573 0.09933 0.0
C345 C 0.11242 0.96082 0.11763 0.0
O346 O 0.12936 1.00888 1.04484 0.0
O347 O 0.18947 0.97153 1.03039 0.0
C348 C 0.2024 0.10485 0.07695 0.0
O349 O 0.11194 1.00269 0.12489 0.0
O350 O 0.14209 0.94099 0.09562 0.0
C351 C 0.19158 0.95017 0.17371 0.0
Fe352 Fe 0.25144 0.30241 0.19951 0.0
Fe353 Fe 0.25712 0.38862 0.14403 0.0
O354 O 0.23688 0.33267 0.15307 0.0
Fe355 Fe 0.19942 0.30703 0.11828 0.0
O356 O 0.15652 0.29372 0.16252 0.0
O357 O 0.20631 0.26149 0.19839 0.0
O358 O 0.21826 0.34038 0.23117 0.0
C359 C 0.22551 0.38225 0.2307 0.0
C360 C 0.26613 0.23825 0.14067 0.0
O361 O 0.24751 0.40209 0.20103 0.0
C362 C 0.27703 0.34568 0.06536 0.0
O363 O 0.29829 0.33419 0.21371 0.0
O364 O 0.31272 0.37157 0.15361 0.0
O365 O 0.22894 0.24953 0.12108 0.0
O366 O 0.2854 0.26805 0.16325 0.0
C367 C 0.16942 0.39292 0.15156 0.0
O368 O 0.27111 0.3822 0.08527 0.0
O369 O 0.24377 0.31739 0.06998 0.0
C370 C 0.32192 0.36004 0.19215 0.0
O371 O 0.20302 0.41251 0.13607 0.0
O372 O 0.16017 0.35819 0.12721 0.0
C373 C 0.1659 0.2689 0.19478 0.0
Fe374 Fe 0.75144 0.29071 0.8936 0.0
Fe375 Fe 0.75714 0.20449 0.94904 0.0
O376 O 0.73689 0.26044 0.94001 0.0
Fe377 Fe 0.69943 0.28607 0.9748 0.0
O378 O 0.65654 0.29937 0.93054 0.0
O379 O 0.70631 0.33164 0.89473 0.0
O380 O 0.71828 0.25275 0.86191 0.0
C381 C 0.72553 0.21088 0.86237 0.0
C382 C 0.76614 0.35489 0.95242 0.0
O383 O 0.74753 0.19103 0.89204 0.0
C384 C 0.77703 0.24741 1.02773 0.0
O385 O 0.7983 0.25895 0.87939 0.0
O386 O 0.81273 0.22155 0.93947 0.0
O387 O 0.72895 0.34357 0.97201 0.0
O388 O 0.78539 0.32504 0.92989 0.0
C389 C 0.66943 0.20019 0.9415 0.0
O390 O 0.77112 0.2109 1.00781 0.0
O391 O 0.74377 0.2757 1.02311 0.0
C392 C 0.82193 0.23309 0.90094 0.0
O393 O 0.70303 0.18059 0.95698 0.0
O394 O 0.66018 0.23491 0.96587 0.0
C395 C 0.66588 0.32424 0.89831 0.0
Fe396 Fe 0.05703 0.44943 0.22482 0.0
Fe397 Fe 0.05241 0.50144 0.14361 0.0
O398 O 0.08267 0.48689 0.19003 0.0
Fe399 Fe 0.13862 0.50713 0.19907 0.0
O400 O 0.16252 0.45303 0.20702 0.0
O401 O 0.10818 0.41017 0.21587 0.0
O402 O 1.04373 0.40655 0.18055 0.0
C403 C 1.01887 0.41589 0.14832 0.0
C404 C 0.09569 0.52703 0.27775 0.0
O405 O 1.01147 0.45632 0.14474 0.0
C406 C 0.11003 0.57193 0.15096 0.0
O407 O 0.99954 0.47896 0.22202 0.0
O408 O 1.01807 0.5354 0.1799 0.0
O409 O 0.13221 0.52111 0.25783 0.0
O410 O 0.0674 0.49378 0.27312 0.0
C411 C 0.13225 0.47552 0.11241 0.0
O412 O 0.08418 0.5483 0.12941 0.0
O413 O 0.12157 0.56273 0.1895 0.0
C414 C 0.98821 0.51614 0.20244 0.0
O415 O 0.09037 0.46827 0.11194 0.0
O416 O 0.15209 0.49751 0.14207 0.0
C417 C 0.14294 0.41941 0.19156 0.0
Fe418 Fe 0.89366 0.80703 0.47481 0.0
Fe419 Fe 0.84164 0.8024 0.39361 0.0
O420 O 0.8562 0.83267 0.44002 0.0
Fe421 Fe 0.83595 0.88861 0.44906 0.0
O422 O 0.89006 0.91251 0.45699 0.0
O423 O 0.93291 0.85819 0.46588 0.0
O424 O 0.93655 0.79373 0.43055 0.0
C425 C 0.92721 0.76887 0.39832 0.0
C426 C 0.81606 0.84569 0.52775 0.0
O427 O 0.88678 0.76147 0.39474 0.0
C428 C 0.77116 0.86001 0.40096 0.0
O429 O 0.86413 0.74953 0.47202 0.0
O430 O 0.80769 0.76806 0.4299 0.0
O431 O 0.82198 0.88221 0.50783 0.0
O432 O 0.84931 0.8174 0.52312 0.0
C433 C 0.86755 0.88223 0.36239 0.0
O434 O 0.79478 0.83416 0.37941 0.0
O435 O 0.78035 0.87156 0.43949 0.0
C436 C 0.82695 0.73821 0.45243 0.0
O437 O 0.87481 0.84036 0.36193 0.0
O438 O 0.84556 0.90207 0.39206 0.0
C439 C 0.92366 0.89291 0.44151 0.0
Fe440 Fe 1.04071 0.09164 0.1436 0.0
Fe441 Fe 0.95449 0.08596 0.19906 0.0
O442 O 1.01044 0.10621 0.19003 0.0
Fe443 Fe 1.03607 0.14367 0.22482 0.0
O444 O 0.04939 0.18657 0.18058 0.0
O445 O 0.08163 0.13677 0.14472 0.0
O446 O 1.00275 0.12481 0.11193 0.0
C447 C 0.96087 0.11756 0.11239 0.0
C448 C 0.10486 0.07696 0.20245 0.0
O449 O 0.94103 0.09556 0.14206 0.0
C450 C 0.99741 0.06607 0.27775 0.0
O451 O 1.00893 1.04478 0.12941 0.0
O452 O 0.97155 1.03036 0.1895 0.0
O453 O 0.09357 0.11416 0.22203 0.0
O454 O 0.07506 0.05768 0.17987 0.0
C455 C 0.95019 0.17366 0.19151 0.0
O456 O 0.9609 0.07199 0.25783 0.0
O457 O 1.02571 0.09932 0.27312 0.0
C458 C 0.98308 1.02116 0.15097 0.0
O459 O 0.93059 0.14006 0.20699 0.0
O460 O 0.98491 0.18292 0.21588 0.0
C461 C 0.0742 0.17719 0.14833 0.0
Fe462 Fe 0.33598 0.70449 0.64404 0.0
Fe463 Fe 0.39368 0.78608 0.61829 0.0
O464 O 0.35622 0.76044 0.65308 0.0
Fe465 Fe 0.34166 0.79069 0.69952 0.0
O466 O 0.37484 0.75272 0.73118 0.0
O467 O 0.34559 0.69101 0.70104 0.0
O468 O 0.39008 0.68059 0.63609 0.0
C469 C 0.42368 0.70019 0.65157 0.0
C470 C 0.27118 0.73307 0.69215 0.0
O471 O 0.43293 0.73492 0.62722 0.0
C472 C 0.32696 0.85486 0.64068 0.0
O473 O 0.32199 0.7109 0.58528 0.0
O474 O 0.34932 0.77571 0.56999 0.0
O475 O 0.29481 0.75891 0.71372 0.0
O476 O 0.28038 0.72154 0.65362 0.0
C477 C 0.4272 0.8242 0.69478 0.0
O478 O 0.36415 0.84357 0.62109 0.0
O479 O 0.30769 0.82505 0.66327 0.0
C480 C 0.31607 0.74742 0.56537 0.0
O481 O 0.43658 0.79939 0.66253 0.0
O482 O 0.38678 0.83162 0.6984 0.0
C483 C 0.36759 0.71085 0.73071 0.0
Fe484 Fe 0.05703 0.64368 0.36829 0.0
Fe485 Fe 0.0524 0.59165 0.44948 0.0
O486 O 0.08267 0.60621 0.40307 0.0
Fe487 Fe 0.13862 0.58597 0.39403 0.0
O488 O 0.16252 0.64007 0.3861 0.0
O489 O 0.1082 0.68293 0.37722 0.0
O490 O 1.04374 0.68656 0.41256 0.0
C491 C 1.01888 0.67721 0.44479 0.0
C492 C 0.0957 0.56611 0.31532 0.0
O493 O 1.01147 0.63679 0.44836 0.0
C494 C 0.11002 0.52117 0.44212 0.0
O495 O 0.99953 0.61416 0.37108 0.0
O496 O 1.01805 0.55771 0.41319 0.0
O497 O 0.13221 0.57199 0.33527 0.0
O498 O 0.06739 0.59934 0.31998 0.0
C499 C 0.13224 0.61756 0.48071 0.0
O500 O 0.08416 0.54478 0.46368 0.0
O501 O 0.12157 0.53037 0.4036 0.0
C502 C 0.9882 0.57698 0.39066 0.0
O503 O 0.09036 0.6248 0.48117 0.0
O504 O 0.15208 0.59557 0.45104 0.0
C505 C 0.14292 0.67367 0.40158 0.0
Fe506 Fe 0.5407 0.50145 0.94948 0.0
Fe507 Fe 0.45448 0.50713 0.89403 0.0
O508 O 0.51043 0.48689 0.90307 0.0
Fe509 Fe 0.53606 0.44943 0.86829 0.0
O510 O 0.54936 0.40654 0.91255 0.0
O511 O 0.58162 0.45632 0.94836 0.0
O512 O 0.50273 0.4683 0.98117 0.0
C513 C 0.46086 0.47555 0.9807 0.0
C514 C 0.6049 0.51613 0.89066 0.0
O515 O 0.44101 0.49753 0.95103 0.0
C516 C 0.49741 0.52702 0.81535 0.0
O517 O 0.50893 0.54832 0.96368 0.0
O518 O 0.47153 0.56273 0.90359 0.0
O519 O 0.59356 0.47894 0.87108 0.0
O520 O 0.57504 0.53539 0.91319 0.0
C521 C 0.45018 0.41943 0.90158 0.0
O522 O 0.46089 0.5211 0.83526 0.0
O523 O 0.5257 0.49377 0.81998 0.0
C524 C 0.48307 0.57194 0.94212 0.0
O525 O 0.43058 0.45303 0.8861 0.0
O526 O 0.4849 0.41018 0.87722 0.0
C527 C 0.57422 0.41589 0.94479 0.0
Fe528 Fe 0.97483 0.89366 0.78606 0.0
Fe529 Fe 0.94908 0.83596 0.70448 0.0
O530 O 0.94005 0.85621 0.76043 0.0
Fe531 Fe 0.89362 0.84167 0.79071 0.0
O532 O 0.89475 0.88681 0.83164 0.0
O533 O 0.93057 0.93655 0.79935 0.0
O534 O 0.96588 0.93292 0.73491 0.0
C535 C 0.94157 0.92368 0.70015 0.0
C536 C 0.95246 0.82698 0.85492 0.0
O537 O 0.95703 0.89006 0.68058 0.0
C538 C 0.90098 0.77117 0.73309 0.0
O539 O 1.02313 0.8493 0.7757 0.0
O540 O 1.00783 0.82199 0.71087 0.0
O541 O 0.92988 0.80773 0.82508 0.0
O542 O 0.97204 0.86415 0.84356 0.0
C543 C 0.86242 0.8676 0.71086 0.0
O544 O 0.9395 0.78037 0.72154 0.0
O545 O 0.87942 0.7948 0.75893 0.0
C546 C 1.02777 0.81608 0.74738 0.0
O547 O 0.89207 0.84558 0.69102 0.0
O548 O 0.86196 0.87485 0.75273 0.0
C549 C 0.89835 0.92724 0.82425 0.0
Fe550 Fe 1.00711 0.19906 0.45447 0.0
Fe551 Fe 1.0014 0.14362 0.5407 0.0
O552 O 0.98686 0.19004 0.51043 0.0
Fe553 Fe 0.94941 0.22482 0.53605 0.0
O554 O 0.91015 0.21587 0.4849 0.0
O555 O 0.95301 0.20703 0.43057 0.0
O556 O 0.99748 0.14205 0.44102 0.0
C557 C 0.97547 0.1124 0.46086 0.0
C558 C 1.027 0.27776 0.49738 0.0
O559 O 0.96822 0.11195 0.50274 0.0
C560 C 1.0161 0.20246 0.6049 0.0
O561 O 0.0627 0.18949 0.47153 0.0
O562 O 0.04826 0.12941 0.50893 0.0
O563 O 0.99377 0.27312 0.52569 0.0
O564 O 1.0211 0.25782 0.46087 0.0
C565 C 0.91585 0.14834 0.57424 0.0
O566 O 1.03535 0.17989 0.57506 0.0
O567 O 0.97893 0.22204 0.59354 0.0
C568 C 0.07188 0.15095 0.48307 0.0
O569 O 0.95627 0.14475 0.58164 0.0
O570 O 0.90653 0.18055 0.54934 0.0
C571 C 0.91939 0.19156 0.45014 0.0
Fe572 Fe 0.61827 0.19944 0.28605 0.0
Fe573 Fe 0.64403 0.25714 0.20447 0.0
O574 O 0.65306 0.23689 0.26043 0.0
Fe575 Fe 0.69948 0.25142 0.2907 0.0
O576 O 0.69835 0.20629 0.33163 0.0
O577 O 0.66254 0.15655 0.29933 0.0
O578 O 0.62722 0.16018 0.23489 0.0
C579 C 0.65154 0.16942 0.20014 0.0
C580 C 0.64064 0.26611 0.35491 0.0
O581 O 0.63608 0.20304 0.18056 0.0
C582 C 0.69213 0.32192 0.23308 0.0
O583 O 0.56998 0.2438 0.27569 0.0
O584 O 0.58528 0.27112 0.21086 0.0
O585 O 0.66322 0.28537 0.32507 0.0
O586 O 0.62106 0.22894 0.34354 0.0
C587 C 0.73069 0.22549 0.21086 0.0
O588 O 0.6536 0.31272 0.22153 0.0
O589 O 0.71369 0.2983 0.25893 0.0
C590 C 0.56533 0.27702 0.24737 0.0
O591 O 0.70104 0.24752 0.19102 0.0
O592 O 0.73114 0.21825 0.25274 0.0
C593 C 0.69475 0.16586 0.32424 0.0
Fe594 Fe 0.64369 0.86828 1.03605 0.0
Fe595 Fe 0.58599 0.89404 0.95447 0.0
O596 O 0.60623 0.90307 1.01042 0.0
Fe597 Fe 0.5917 0.94948 1.0407 0.0
O598 O 0.63683 0.94835 0.08164 0.0
O599 O 0.68657 0.91255 0.04933 0.0
O600 O 0.68295 0.87723 0.9849 0.0
C601 C 0.6737 0.90154 0.95014 0.0
C602 C 0.577 0.89064 0.1049 0.0
O603 O 0.64008 0.88608 0.93057 0.0
C604 C 0.52121 0.94214 0.98307 0.0
O605 O 0.59933 0.81998 1.02569 0.0
O606 O 0.572 0.83528 0.96087 0.0
O607 O 0.55775 0.91322 0.07506 0.0
O608 O 0.61418 0.87107 0.09354 0.0
C609 C 0.61762 0.9807 0.96086 0.0
O610 O 0.53039 0.90361 0.97153 0.0
O611 O 0.54484 0.96369 1.00893 0.0
C612 C 0.5661 0.81534 0.99738 0.0
O613 O 0.59561 0.95105 0.94102 0.0
O614 O 0.62487 0.98115 1.00274 0.0
C615 C 0.67725 0.94476 0.07424 0.0
Fe616 Fe 0.94905 0.25716 0.88863 0.0
Fe617 Fe 0.89359 0.25144 0.8024 0.0
O618 O 0.94002 0.2369 0.83268 0.0
Fe619 Fe 0.97481 0.19945 0.80706 0.0
O620 O 0.96587 0.1602 0.85822 0.0
O621 O 0.95699 0.20307 0.91254 0.0
O622 O 0.89205 0.24756 0.90208 0.0
C623 C 0.86244 0.22548 0.88226 0.0
C624 C 1.02776 0.27703 0.84573 0.0
O625 O 0.8619 0.21829 0.84037 0.0
C626 C 0.95245 0.26612 0.73821 0.0
O627 O 0.93949 0.31275 0.87155 0.0
O628 O 0.87939 0.29831 0.83417 0.0
O629 O 1.02311 0.2438 0.81741 0.0
O630 O 1.00781 0.27113 0.88224 0.0
C631 C 0.89833 0.16588 0.76887 0.0
O632 O 0.92987 0.28538 0.76804 0.0
O633 O 0.97202 0.22895 0.74956 0.0
C634 C 0.90097 0.32195 0.85999 0.0
O635 O 0.89473 0.2063 0.76147 0.0
O636 O 0.93054 0.15656 0.79377 0.0
C637 C 0.94154 0.16944 0.89296 0.0
Fe638 Fe 0.58597 0.19907 0.63865 0.0
Fe639 Fe 0.59168 0.14363 0.55241 0.0
O640 O 0.60622 0.19004 0.58269 0.0
Fe641 Fe 0.64367 0.22483 0.55707 0.0
O642 O 0.68293 0.21588 0.60822 0.0
O643 O 0.64007 0.20701 0.66255 0.0
O644 O 0.59559 0.14206 0.65209 0.0
C645 C 0.6176 0.1124 0.63225 0.0
C646 C 0.56609 0.27777 0.59575 0.0
O647 O 0.62485 0.11196 0.59037 0.0
C648 C 0.57699 0.20248 0.48822 0.0
O649 O 0.53038 0.1895 0.62159 0.0
O650 O 0.54482 0.12942 0.58418 0.0
O651 O 0.59931 0.27313 0.56743 0.0
O652 O 0.57199 0.25783 0.63226 0.0
C653 C 0.67724 0.14835 0.51888 0.0
O654 O 0.55773 0.1799 0.51805 0.0
O655 O 0.61416 0.22205 0.49957 0.0
C656 C 0.5212 0.15097 0.61004 0.0
O657 O 0.63681 0.14476 0.51148 0.0
O658 O 0.68656 0.18056 0.54378 0.0
C659 C 0.67369 0.19156 0.64297 0.0
Fe660 Fe 0.64403 0.83595 0.38864 0.0
Fe661 Fe 0.6995 0.84167 0.30242 0.0
O662 O 0.65307 0.85621 0.33269 0.0
Fe663 Fe 0.61828 0.89366 0.30707 0.0
O664 O 0.62722 0.93291 0.35823 0.0
O665 O 0.63609 0.89005 0.41256 0.0
O666 O 0.70104 0.84555 0.4021 0.0
C667 C 0.73065 0.86764 0.38228 0.0
C668 C 0.56533 0.81608 0.34574 0.0
O669 O 0.73119 0.87482 0.34039 0.0
C670 C 0.64064 0.82698 0.23822 0.0
O671 O 0.6536 0.78036 0.37157 0.0
O672 O 0.71369 0.7948 0.33419 0.0
O673 O 0.56998 0.84931 0.31742 0.0
O674 O 0.58527 0.82198 0.38225 0.0
C675 C 0.69476 0.92723 0.26888 0.0
O676 O 0.66322 0.80773 0.26805 0.0
O677 O 0.62107 0.86416 0.24958 0.0
C678 C 0.69212 0.77116 0.36001 0.0
O679 O 0.69836 0.8868 0.26149 0.0
O680 O 0.66255 0.93655 0.29378 0.0
C681 C 0.65154 0.92367 0.39298 0.0
Fe682 Fe 1.00712 0.89403 0.13865 0.0
Fe683 Fe 1.00142 0.94951 0.05244 0.0
O684 O 0.98688 0.90308 0.0827 0.0
Fe685 Fe 0.94943 0.86829 0.05706 0.0
O686 O 0.91016 0.87723 0.1082 0.0
O687 O 0.95301 0.88606 0.16255 0.0
O688 O 0.99749 0.95103 0.15213 0.0
C689 C 0.97543 0.98065 0.13229 0.0
C690 C 1.02701 0.81534 0.09573 0.0
O691 O 0.96825 0.98119 0.09041 0.0
C692 C 1.01612 0.89067 0.98823 0.0
O693 O 0.06271 0.90362 0.12161 0.0
O694 O 0.04827 0.96371 0.08422 0.0
O695 O 0.99378 0.81999 0.06741 0.0
O696 O 1.02111 0.83528 0.13224 0.0
C697 C 0.91587 0.94478 1.01888 0.0
O698 O 1.03537 0.91325 1.01807 0.0
O699 O 0.97895 0.87109 0.99958 0.0
C700 C 0.07189 0.94216 0.11008 0.0
O701 O 0.9563 0.94838 1.01149 0.0
O702 O 0.90655 0.91257 1.04377 0.0
C703 C 0.91939 0.90152 0.14297 0.0
Fe704 Fe 0.78608 0.97482 0.89367 0.0
Fe705 Fe 0.7045 0.94907 0.83598 0.0
O706 O 0.76045 0.94003 0.85622 0.0
Fe707 Fe 0.7907 0.89357 0.84171 0.0
O708 O 0.83164 0.89472 0.88683 0.0
O709 O 0.79937 0.93056 0.93657 0.0
O710 O 0.73494 0.96586 0.93294 0.0
C711 C 0.70014 0.94161 0.92371 0.0
C712 C 0.85488 0.95243 0.82697 0.0
O713 O 0.68059 0.95706 0.89007 0.0
C714 C 0.73309 0.90093 0.77121 0.0
O715 O 0.77572 1.02311 0.84931 0.0
O716 O 0.71091 1.00781 0.82197 0.0
O717 O 0.82509 0.92978 0.80773 0.0
O718 O 0.84356 0.97202 0.86415 0.0
C719 C 0.71084 0.86242 0.86765 0.0
O720 O 0.72156 0.93946 0.78039 0.0
O721 O 0.75891 0.87936 0.79485 0.0
C722 C 0.74741 1.02776 0.81607 0.0
O723 O 0.69102 0.89207 0.84562 0.0
O724 O 0.75271 0.86196 0.87491 0.0
C725 C 0.82426 0.89834 0.92726 0.0
Fe726 Fe 0.86831 1.03606 0.64367 0.0
Fe727 Fe 0.89403 0.95447 0.58597 0.0
O728 O 0.90309 1.01042 0.60621 0.0
Fe729 Fe 0.94954 1.04067 0.59168 0.0
O730 O 0.94841 0.08161 0.6368 0.0
O731 O 0.91257 0.04934 0.68655 0.0
O732 O 0.87725 0.98492 0.68294 0.0
C733 C 0.90151 0.95012 0.67371 0.0
C734 C 0.89067 0.10485 0.57697 0.0
O735 O 0.88606 0.93056 0.64007 0.0
C736 C 0.94214 0.98305 0.52118 0.0
O737 O 0.82 1.02571 0.59932 0.0
O738 O 0.83528 0.96088 0.57199 0.0
O739 O 0.91332 0.07507 0.55771 0.0
O740 O 0.8711 0.09354 0.61415 0.0
C741 C 0.98065 0.9608 0.61767 0.0
O742 O 0.90361 0.97152 0.53038 0.0
O743 O 0.96373 1.00887 0.54482 0.0
C744 C 0.81535 0.99739 0.56609 0.0
O745 O 0.95103 0.94098 0.59559 0.0
O746 O 0.98119 1.00268 0.62486 0.0
C747 C 0.9448 0.07423 0.67723 0.0
Fe748 Fe 0.80702 0.11828 0.39366 0.0
Fe749 Fe 0.88861 0.14402 0.33597 0.0
O750 O 0.83266 0.15307 0.35621 0.0
Fe751 Fe 0.80241 0.19952 0.34169 0.0
O752 O 0.76147 0.19838 0.38681 0.0
O753 O 0.79373 0.16254 0.43655 0.0
O754 O 0.85816 0.12724 0.43293 0.0
C755 C 0.89295 0.1515 0.42371 0.0
C756 C 0.73822 0.14067 0.32696 0.0
O757 O 0.91251 0.13604 0.39007 0.0
C758 C 0.86003 0.19214 0.27119 0.0
O759 O 0.81737 0.06999 0.3493 0.0
O760 O 0.8822 0.08527 0.32198 0.0
O761 O 0.76801 0.16331 0.30771 0.0
O762 O 0.74954 0.12108 0.36414 0.0
C763 C 0.88227 0.23068 0.36763 0.0
O764 O 0.87156 0.15361 0.28038 0.0
O765 O 0.83421 0.21372 0.29483 0.0
C766 C 0.84569 0.06534 0.31608 0.0
O767 O 0.90209 0.20102 0.3456 0.0
O768 O 0.8404 0.23114 0.37489 0.0
C769 C 0.76884 0.19476 0.42724 0.0
Fe770 Fe 0.7248 0.05705 0.14366 0.0
Fe771 Fe 0.69907 0.13864 0.08596 0.0
O772 O 0.69001 0.08269 0.1062 0.0
Fe773 Fe 0.64356 0.05244 0.09167 0.0
O774 O 0.64469 1.0115 0.13679 0.0
O775 O 0.68053 1.04376 0.18654 0.0
O776 O 0.71585 0.10819 0.18293 0.0
C777 C 0.6916 0.14298 0.1737 0.0
C778 C 0.70242 0.98825 0.07696 0.0
O779 O 0.70704 0.16254 0.14006 0.0
C780 C 0.65095 0.11005 1.02117 0.0
O781 O 0.7731 0.0674 0.09931 0.0
O782 O 0.75782 0.13222 0.07197 0.0
O783 O 0.67978 1.01803 0.0577 0.0
O784 O 0.722 0.99957 0.11414 0.0
C785 C 0.61245 0.13231 0.11766 0.0
O786 O 0.68948 0.12158 1.03037 0.0
O787 O 0.62937 0.08423 1.04481 0.0
C788 C 0.77775 0.09571 0.06608 0.0
O789 O 0.64207 0.15212 0.09558 0.0
O790 O 0.61191 0.09042 0.12485 0.0
C791 C 0.64831 1.01887 0.17722 0.0
Fe792 Fe 0.79068 0.19954 0.75138 0.0
Fe793 Fe 0.78607 0.1183 0.69942 0.0
O794 O 0.76043 0.15308 0.73687 0.0
Fe795 Fe 0.70448 0.14404 0.75711 0.0
O796 O 0.69099 0.20103 0.74743 0.0
O797 O 0.7527 0.23115 0.71816 0.0
O798 O 0.83164 0.19838 0.70627 0.0
C799 C 0.82426 0.19478 0.66584 0.0
C800 C 0.73303 0.19222 0.82184 0.0
O801 O 0.79936 0.16257 0.65653 0.0
C802 C 0.7474 0.06532 0.77699 0.0
O803 O 0.82507 0.16334 0.78537 0.0
O804 O 0.84355 0.1211 0.72895 0.0
O805 O 0.72153 0.15367 0.81269 0.0
O806 O 0.75888 0.21377 0.79821 0.0
C807 C 0.70013 0.15148 0.66938 0.0
O808 O 0.77572 0.07 0.74377 0.0
O809 O 0.7109 0.0853 0.77116 0.0
C810 C 0.85486 0.14069 0.76613 0.0
O811 O 0.73494 0.12725 0.66014 0.0
O812 O 0.68059 0.13601 0.70301 0.0
C813 C 0.71082 0.23069 0.72542 0.0
Fe814 Fe 0.64355 1.04068 0.50143 0.0
Fe815 Fe 0.72479 1.03607 0.44945 0.0
O816 O 0.69 1.01043 0.4869 0.0
Fe817 Fe 0.69906 0.95448 0.50715 0.0
O818 O 0.64207 0.941 0.49751 0.0
O819 O 0.6119 1.0027 0.46824 0.0
O820 O 0.64469 0.08162 0.45631 0.0
C821 C 0.6483 0.07424 0.41589 0.0
C822 C 0.65093 0.98306 0.57192 0.0
O823 O 0.68052 0.04935 0.40657 0.0
C824 C 0.77778 0.99738 0.527 0.0
O825 O 0.67977 0.07508 0.5354 0.0
O826 O 0.72199 0.09355 0.47897 0.0
O827 O 0.68946 0.97154 0.56273 0.0
O828 O 0.62935 1.00888 0.54829 0.0
C829 C 0.69159 0.95012 0.41941 0.0
O830 O 0.77309 1.02572 0.4938 0.0
O831 O 0.75781 0.96089 0.52116 0.0
C832 C 0.70241 0.10486 0.51615 0.0
O833 O 0.71584 0.98493 0.41018 0.0
O834 O 0.70705 0.93057 0.45305 0.0
C835 C 0.61245 0.96081 0.47543 0.0
Fe836 Fe 0.80701 0.9748 0.19942 0.0
Fe837 Fe 0.8886 0.94906 0.25712 0.0
O838 O 0.83265 0.94002 0.23687 0.0
Fe839 Fe 0.8024 0.89356 0.25139 0.0
O840 O 0.76145 0.89472 0.20628 0.0
O841 O 0.79373 0.93053 0.15653 0.0
O842 O 0.85815 0.96584 0.16015 0.0
C843 C 0.89295 0.9416 0.16939 0.0
C844 C 0.73823 0.95242 0.26614 0.0
O845 O 0.9125 0.95707 0.20302 0.0
C846 C 0.86004 0.90089 0.32186 0.0
O847 O 0.81737 1.0231 0.24377 0.0
O848 O 0.88219 1.0078 0.27116 0.0
O849 O 0.76802 0.92977 0.28538 0.0
O850 O 0.74953 0.97201 0.22896 0.0
C851 C 0.88226 0.8624 0.22543 0.0
O852 O 0.87155 0.93943 0.3127 0.0
O853 O 0.8342 0.87934 0.29823 0.0
C854 C 0.8457 1.02778 0.27699 0.0
O855 O 0.90209 0.89207 0.24745 0.0
O856 O 0.84038 0.86195 0.21818 0.0
C857 C 0.76883 0.89832 0.16585 0.0
Fe858 Fe 0.94956 0.05244 1.00138 0.0
Fe859 Fe 0.86831 0.05705 0.94943 0.0
O860 O 0.9031 0.08268 0.98687 0.0
Fe861 Fe 0.89404 0.13863 1.00712 0.0
O862 O 0.95103 0.15212 0.99745 0.0
O863 O 0.98119 0.09042 0.96817 0.0
O864 O 0.9484 1.01148 0.95627 0.0
C865 C 0.94478 1.01885 0.91585 0.0
C866 C 0.94222 0.11006 0.07186 0.0
O867 O 0.91257 1.04375 0.90653 0.0
C868 C 0.81532 0.09572 1.02699 0.0
O869 O 0.91335 1.01805 1.03537 0.0
O870 O 0.8711 0.99957 0.97896 0.0
O871 O 0.90367 0.12157 0.0627 0.0
O872 O 0.96379 0.08424 0.04821 0.0
C873 C 0.90148 0.14299 0.91939 0.0
O874 O 0.82 0.0674 0.99378 0.0
O875 O 0.83531 0.13222 1.02117 0.0
C876 C 0.89069 0.98827 1.01614 0.0
O877 O 0.87724 0.10818 0.91015 0.0
O878 O 0.88602 0.16253 0.95303 0.0
C879 C 0.98065 0.13231 0.97537 0.0
Fe880 Fe 0.84169 0.7907 0.8936 0.0
Fe881 Fe 0.89367 0.78606 0.97484 0.0
O882 O 0.85622 0.76044 0.94004 0.0
Fe883 Fe 0.83596 0.70449 0.94906 0.0
O884 O 0.84559 0.69103 0.89206 0.0
O885 O 0.87487 0.75273 0.86196 0.0
O886 O 0.88682 0.83163 0.89473 0.0
C887 C 0.92723 0.82422 0.89836 0.0
C888 C 0.77118 0.7331 0.90095 0.0
O889 O 0.93658 0.79936 0.9306 0.0
C890 C 0.81607 0.74738 1.02776 0.0
O891 O 0.80772 0.82509 0.92983 0.0
O892 O 0.86417 0.84355 0.97204 0.0
O893 O 0.78038 0.72156 0.93948 0.0
O894 O 0.79482 0.75893 0.87939 0.0
C895 C 0.92367 0.70014 0.94158 0.0
O896 O 0.8493 0.7757 1.02313 0.0
O897 O 0.82197 0.71088 1.00782 0.0
C898 C 0.82699 0.85487 0.95246 0.0
O899 O 0.93292 0.7349 0.96589 0.0
O900 O 0.89005 0.68057 0.95704 0.0
C901 C 0.86762 0.71086 0.86241 0.0
Fe902 Fe 0.39367 0.80706 0.1183 0.0
Fe903 Fe 0.33597 0.88863 0.14407 0.0
O904 O 0.35623 0.83268 0.1531 0.0
Fe905 Fe 0.34169 0.80241 0.19953 0.0
O906 O 0.38682 0.76147 0.19838 0.0
O907 O 0.43656 0.79377 0.16257 0.0
O908 O 0.43293 0.85821 0.12725 0.0
C909 C 0.42369 0.89297 0.15156 0.0
C910 C 0.32698 0.73822 0.14067 0.0
O911 O 0.39006 0.91254 0.1361 0.0
C912 C 0.27121 0.86003 0.19219 0.0
O913 O 0.34932 0.81742 0.07001 0.0
O914 O 0.32197 0.88223 0.08531 0.0
O915 O 0.30774 0.76805 0.16325 0.0
O916 O 0.36416 0.74957 0.12109 0.0
C917 C 0.36767 0.88225 0.23069 0.0
O918 O 0.28038 0.87156 0.15366 0.0
O919 O 0.29484 0.83418 0.21374 0.0
C920 C 0.31609 0.84573 0.06536 0.0
O921 O 0.3456 0.90209 0.20107 0.0
O922 O 0.37486 0.84037 0.23122 0.0
C923 C 0.42725 0.76886 0.19478 0.0
Fe924 Fe 1.03604 0.64368 0.86829 0.0
Fe925 Fe 0.95447 0.58598 0.89405 0.0
O926 O 1.01041 0.60623 0.90308 0.0
Fe927 Fe 1.04069 0.5917 0.9495 0.0
O928 O 0.08162 0.63683 0.94836 0.0
O929 O 0.04932 0.68657 0.91255 0.0
O930 O 0.98489 0.68294 0.87725 0.0
C931 C 0.95011 0.67371 0.90152 0.0
C932 C 0.10488 0.57699 0.89065 0.0
O933 O 0.93055 0.64007 0.88608 0.0
C934 C 0.98309 0.5212 0.94216 0.0
O935 O 1.02568 0.59932 0.81999 0.0
O936 O 0.96086 0.57198 0.8353 0.0
O937 O 0.07505 0.55775 0.91324 0.0
O938 O 0.09353 0.61416 0.87107 0.0
C939 C 0.96084 0.61764 0.98071 0.0
O940 O 0.97153 0.53039 0.90364 0.0
O941 O 1.00892 0.54484 0.96372 0.0
C942 C 0.99737 0.56608 0.81535 0.0
O943 O 0.94101 0.59561 0.95106 0.0
O944 O 1.00271 0.62488 0.98116 0.0
C945 C 0.07423 0.67725 0.94476 0.0
Fe946 Fe 0.19943 0.28604 0.6183 0.0
Fe947 Fe 0.25713 0.20447 0.64407 0.0
O948 O 0.23688 0.26042 0.6531 0.0
Fe949 Fe 0.25141 0.29069 0.69953 0.0
O950 O 0.20628 0.33163 0.69838 0.0
O951 O 0.15654 0.29933 0.66257 0.0
O952 O 0.16017 0.23489 0.62724 0.0
C953 C 0.16941 0.20014 0.65155 0.0
C954 C 0.26612 0.35488 0.64067 0.0
O955 O 0.20304 0.18056 0.63609 0.0
C956 C 0.32189 0.23307 0.69219 0.0
O957 O 0.24378 0.27568 0.57 0.0
O958 O 0.27113 0.21087 0.58531 0.0
O959 O 0.28536 0.32505 0.66326 0.0
O960 O 0.22894 0.34353 0.62109 0.0
C961 C 0.22543 0.21085 0.73069 0.0
O962 O 0.31272 0.22154 0.65365 0.0
O963 O 0.29826 0.25892 0.71374 0.0
C964 C 0.27702 0.24737 0.56536 0.0
O965 O 0.2475 0.19101 0.70107 0.0
O966 O 0.21824 0.25273 0.73121 0.0
C967 C 0.16585 0.32424 0.69478 0.0
Fe968 Fe 0.13863 1.00713 0.89406 0.0
Fe969 Fe 0.05241 1.00142 0.94954 0.0
O970 O 0.08268 0.98688 0.9031 0.0
Fe971 Fe 0.05706 0.94942 0.86829 0.0
O972 O 0.10821 0.91017 0.87724 0.0
O973 O 0.16254 0.95304 0.88609 0.0
O974 O 0.15209 0.9975 0.95107 0.0
C975 C 0.13226 0.97542 0.98068 0.0
C976 C 0.09572 1.02702 0.81536 0.0
O977 O 0.09037 0.96824 0.98121 0.0
C978 C 0.98825 1.01612 0.89065 0.0
O979 O 0.12156 0.06272 0.90365 0.0
O980 O 0.08419 0.04826 0.96374 0.0
O981 O 0.06742 0.99378 0.82 0.0
O982 O 0.13223 1.02113 0.83531 0.0
C983 C 1.0189 0.91588 0.94478 0.0
O984 O 1.01804 1.03538 0.91329 0.0
O985 O 0.99957 0.97893 0.87108 0.0
C986 C 0.11003 0.07189 0.94218 0.0
O987 O 1.01148 0.9563 0.9484 0.0
O988 O 1.04375 0.90653 0.91254 0.0
C989 C 0.14297 0.91942 0.90155 0.0
Fe990 Fe 0.75714 0.3886 0.44905 0.0
Fe991 Fe 0.75142 0.30239 0.39359 0.0
O992 O 0.73688 0.33265 0.44002 0.0
Fe993 Fe 0.69943 0.30704 0.47483 0.0
O994 O 0.66018 0.35819 0.46587 0.0
O995 O 0.70305 0.41252 0.457 0.0
O996 O 0.74752 0.40206 0.39204 0.0
C997 C 0.72548 0.38223 0.3624 0.0
C998 C 0.77702 0.34572 0.52775 0.0
O999 O 0.71823 0.34036 0.36194 0.0
C1000 C 0.76612 0.23822 0.45245 0.0
O1001 O 0.81272 0.37153 0.43947 0.0
O1002 O 0.79828 0.33416 0.37937 0.0
O1003 O 0.7438 0.3174 0.52311 0.0
O1004 O 0.77112 0.38222 0.5078 0.0
C1005 C 0.66587 0.26888 0.39835 0.0
O1006 O 0.78538 0.26801 0.42982 0.0
O1007 O 0.72893 0.24954 0.47203 0.0
C1008 C 0.82192 0.35999 0.40095 0.0
O1009 O 0.70628 0.26146 0.39472 0.0
O1010 O 0.65652 0.29374 0.43059 0.0
C1011 C 0.66943 0.39294 0.44155 0.0
Fe1012 Fe 0.95449 0.50715 0.69905 0.0
Fe1013 Fe 1.04072 0.50142 0.64362 0.0
O1014 O 1.01044 0.48689 0.69003 0.0
Fe1015 Fe 1.03605 0.44943 0.72482 0.0
O1016 O 0.98489 0.41018 0.71586 0.0
O1017 O 0.93057 0.45306 0.707 0.0
O1018 O 0.94104 0.49754 0.64204 0.0
C1019 C 0.96088 0.47551 0.61239 0.0
C1020 C 0.99736 0.52699 0.77779 0.0
O1021 O 1.00275 0.46826 0.61194 0.0
C1022 C 0.10491 0.5161 0.70247 0.0
O1023 O 0.97156 0.56273 0.68948 0.0
O1024 O 1.00897 0.54829 0.6294 0.0
O1025 O 1.0257 0.49379 0.77311 0.0
O1026 O 0.96086 0.52114 0.75781 0.0
C1027 C 0.07424 0.41586 0.64834 0.0
O1028 O 0.07508 0.53536 0.6799 0.0
O1029 O 0.09355 0.47893 0.72204 0.0
C1030 C 0.98313 0.57193 0.65096 0.0
O1031 O 0.08164 0.45628 0.64475 0.0
O1032 O 0.04933 0.40654 0.68055 0.0
C1033 C 0.95015 0.41943 0.69154 0.0
Fe1034 Fe 0.63861 0.58595 0.19906 0.0
Fe1035 Fe 0.55238 0.59168 0.14362 0.0
O1036 O 0.58266 0.60621 0.19004 0.0
Fe1037 Fe 0.55705 0.64367 0.22483 0.0
O1038 O 0.6082 0.68292 0.21587 0.0
O1039 O 0.66252 0.64005 0.207 0.0
O1040 O 0.65206 0.59556 0.14205 0.0
C1041 C 0.63222 0.61759 0.1124 0.0
C1042 C 0.59572 0.56608 0.27777 0.0
O1043 O 0.59035 0.62483 0.11194 0.0
C1044 C 0.48818 0.57699 0.20247 0.0
O1045 O 0.62154 0.53037 0.18949 0.0
O1046 O 0.58413 0.5448 0.12941 0.0
O1047 O 0.5674 0.59931 0.27312 0.0
O1048 O 0.63222 0.57198 0.25782 0.0
C1049 C 0.51886 0.67724 0.14835 0.0
O1050 O 0.51801 0.55774 0.1799 0.0
O1051 O 0.49955 0.61417 0.22205 0.0
C1052 C 0.60997 0.52117 0.15097 0.0
O1053 O 0.51145 0.63682 0.14475 0.0
O1054 O 0.54376 0.68656 0.18056 0.0
C1055 C 0.64295 0.67367 0.19155 0.0
Fe1056 Fe 0.69952 0.75145 0.80244 0.0
Fe1057 Fe 0.64403 0.75712 0.88865 0.0
O1058 O 0.65309 0.73688 0.8327 0.0
Fe1059 Fe 0.61831 0.69942 0.80704 0.0
O1060 O 0.66258 0.65654 0.79375 0.0
O1061 O 0.6984 0.70633 0.7615 0.0
O1062 O 0.73121 0.71829 0.8404 0.0
C1063 C 0.73067 0.72546 0.88229 0.0
C1064 C 0.64069 0.76614 0.73824 0.0
O1065 O 0.70103 0.74749 0.90213 0.0
C1066 C 0.56533 0.77699 0.84572 0.0
O1067 O 0.71371 0.7983 0.83423 0.0
O1068 O 0.65362 0.81272 0.87162 0.0
O1069 O 0.62111 0.72896 0.74956 0.0
O1070 O 0.66323 0.7854 0.7681 0.0
C1071 C 0.65156 0.6694 0.89293 0.0
O1072 O 0.58527 0.77112 0.88223 0.0
O1073 O 0.57 0.74376 0.8174 0.0
C1074 C 0.69216 0.8219 0.86011 0.0
O1075 O 0.63607 0.703 0.91253 0.0
O1076 O 0.62723 0.66016 0.8582 0.0
C1077 C 0.69482 0.6659 0.76889 0.0
Fe1078 Fe 0.58595 0.39403 0.13863 0.0
Fe1079 Fe 0.64365 0.3683 0.05702 0.0
O1080 O 0.60619 0.40309 0.08267 0.0
Fe1081 Fe 0.59163 0.44954 0.05243 0.0
O1082 O 0.6248 0.48121 0.09041 0.0
O1083 O 0.59556 0.45102 0.15212 0.0
O1084 O 0.64006 0.38608 0.16251 0.0
C1085 C 0.67366 0.40156 0.14291 0.0
C1086 C 0.52116 0.44215 0.11007 0.0
O1087 O 0.68291 0.37722 0.10818 0.0
C1088 C 0.57693 0.3907 0.98825 0.0
O1089 O 0.57196 0.33527 0.13221 0.0
O1090 O 0.5993 0.32 0.06738 0.0
O1091 O 0.54478 0.46372 0.08423 0.0
O1092 O 0.53035 0.40361 0.12159 0.0
C1093 C 0.67719 0.44481 1.01888 0.0
O1094 O 0.61412 0.37111 0.99954 0.0
O1095 O 0.55767 0.41329 1.01806 0.0
C1096 C 0.56609 0.31533 0.0957 0.0
O1097 O 0.68653 0.41256 1.04373 0.0
O1098 O 0.63676 0.44841 1.0115 0.0
C1099 C 0.61761 0.48066 0.13229 0.0
Fe1100 Fe 0.97479 0.39368 0.30704 0.0
Fe1101 Fe 0.89359 0.34165 0.30243 0.0
O1102 O 0.94001 0.35622 0.33269 0.0
Fe1103 Fe 0.94907 0.33598 0.38864 0.0
O1104 O 0.95702 0.3901 0.41252 0.0
O1105 O 0.96587 0.43294 0.35819 0.0
O1106 O 0.93052 0.43656 0.29374 0.0
C1107 C 0.89828 0.4272 0.26888 0.0
C1108 C 1.02777 0.31612 0.34571 0.0
O1109 O 0.8947 0.38677 0.26149 0.0
C1110 C 0.90095 0.2712 0.36009 0.0
O1111 O 0.97199 0.36415 0.24955 0.0
O1112 O 0.92988 0.3077 0.26809 0.0
O1113 O 1.00783 0.32199 0.38222 0.0
O1114 O 1.0231 0.34934 0.31739 0.0
C1115 C 0.86243 0.36763 0.38228 0.0
O1116 O 0.8794 0.2948 0.33422 0.0
O1117 O 0.93949 0.28038 0.37161 0.0
C1118 C 0.95241 0.32696 0.23823 0.0
O1119 O 0.86189 0.37481 0.34039 0.0
O1120 O 0.89208 0.3456 0.40212 0.0
C1121 C 0.94153 0.4237 0.39293 0.0
Fe1122 Fe 1.00715 0.69907 0.63863 0.0
Fe1123 Fe 0.94945 0.7248 0.55703 0.0
O1124 O 0.98691 0.69001 0.58268 0.0
Fe1125 Fe 1.00147 0.64357 0.55243 0.0
O1126 O 0.9683 0.61189 0.5904 0.0
O1127 O 0.99754 0.64208 0.65211 0.0
O1128 O 0.95304 0.70702 0.66251 0.0
C1129 C 0.91944 0.69153 0.64291 0.0
C1130 C 0.07194 0.65095 0.61007 0.0
O1131 O 0.91019 0.71588 0.60818 0.0
C1132 C 1.01616 0.70241 0.48825 0.0
O1133 O 1.02113 0.75783 0.63221 0.0
O1134 O 0.99379 0.7731 0.56738 0.0
O1135 O 0.04832 0.62938 0.58422 0.0
O1136 O 0.06274 0.68949 0.62159 0.0
C1137 C 0.91591 0.6483 0.51888 0.0
O1138 O 0.97897 0.72199 0.49954 0.0
O1139 O 1.03543 0.67982 0.51806 0.0
C1140 C 1.02701 0.77777 0.5957 0.0
O1141 O 0.90656 0.68054 0.54373 0.0
O1142 O 0.95634 0.64469 0.5115 0.0
C1143 C 0.97549 0.61244 0.63229 0.0
Fe1144 Fe 0.61829 0.39368 0.78608 0.0
Fe1145 Fe 0.69951 0.34166 0.79066 0.0
O1146 O 0.65307 0.35622 0.76042 0.0
Fe1147 Fe 0.64402 0.336 0.70446 0.0
O1148 O 0.63606 0.39011 0.68059 0.0
O1149 O 0.62722 0.43295 0.73493 0.0
O1150 O 0.66256 0.43656 0.79937 0.0
C1151 C 0.6948 0.42721 0.82422 0.0
C1152 C 0.56532 0.31612 0.7474 0.0
O1153 O 0.69839 0.38678 0.83161 0.0
C1154 C 0.69215 0.27121 0.73298 0.0
O1155 O 0.6211 0.36415 0.84356 0.0
O1156 O 0.66327 0.30769 0.82503 0.0
O1157 O 0.58526 0.32199 0.71088 0.0
O1158 O 0.56999 0.34934 0.77572 0.0
C1159 C 0.7307 0.3676 0.71082 0.0
O1160 O 0.7137 0.29481 0.75887 0.0
O1161 O 0.65361 0.28039 0.72149 0.0
C1162 C 0.64068 0.32695 0.85484 0.0
O1163 O 0.73116 0.37485 0.7527 0.0
O1164 O 0.70102 0.34563 0.69098 0.0
C1165 C 0.65156 0.42371 0.70019 0.0
Fe1166 Fe 0.94943 0.36832 1.03607 0.0
Fe1167 Fe 1.00146 0.44954 1.04068 0.0
O1168 O 0.9869 0.4031 1.01043 0.0
Fe1169 Fe 1.00714 0.39405 0.95448 0.0
O1170 O 0.95303 0.3861 0.93059 0.0
O1171 O 0.91018 0.37724 0.98491 0.0
O1172 O 0.90655 0.41258 0.04937 0.0
C1173 C 0.9159 0.44482 0.07423 0.0
C1174 C 1.027 0.31534 0.9974 0.0
O1175 O 0.95633 0.44841 0.08161 0.0
C1176 C 0.07193 0.44215 0.98305 0.0
O1177 O 0.97896 0.37112 0.09357 0.0
O1178 O 1.03542 0.41329 0.07505 0.0
O1179 O 1.02113 0.33528 0.96089 0.0
O1180 O 0.99378 0.32001 1.02572 0.0
C1181 C 0.97548 0.48068 0.96083 0.0
O1182 O 0.04831 0.46373 1.00889 0.0
O1183 O 0.06273 0.40362 0.97153 0.0
C1184 C 1.01615 0.39069 0.10485 0.0
O1185 O 0.96829 0.48122 1.00272 0.0
O1186 O 0.99753 0.45104 0.941 0.0
C1187 C 0.91943 0.40159 0.95018 0.0
Fe1188 Fe 0.89358 0.75144 0.29068 0.0
Fe1189 Fe 0.94907 0.75711 0.20447 0.0
O1190 O 0.94002 0.73689 0.26043 0.0
Fe1191 Fe 0.9748 0.69943 0.28609 0.0
O1192 O 0.93053 0.65654 0.29938 0.0
O1193 O 0.89471 0.70632 0.33162 0.0
O1194 O 0.86193 0.71826 0.25272 0.0
C1195 C 0.86239 0.7255 0.21084 0.0
C1196 C 0.95241 0.76615 0.35486 0.0
O1197 O 0.89207 0.74747 0.19099 0.0
C1198 C 1.02777 0.77699 0.2474 0.0
O1199 O 0.87938 0.79829 0.25888 0.0
O1200 O 0.93948 0.81271 0.2215 0.0
O1201 O 0.97199 0.72896 0.34357 0.0
O1202 O 0.92982 0.78542 0.32505 0.0
C1203 C 0.94152 0.6694 0.2002 0.0
O1204 O 1.00782 0.77112 0.21089 0.0
O1205 O 1.0231 0.74377 0.27572 0.0
C1206 C 0.90093 0.82189 0.233 0.0
O1207 O 0.95702 0.70299 0.1806 0.0
O1208 O 0.96586 0.66016 0.23494 0.0
C1209 C 0.89829 0.6659 0.32423 0.0
Fe1210 Fe 0.58595 0.69906 0.45448 0.0
Fe1211 Fe 0.64366 0.72482 0.53606 0.0
O1212 O 0.6062 0.69003 0.51043 0.0
Fe1213 Fe 0.59164 0.64362 0.54071 0.0
O1214 O 0.62479 0.61193 0.50275 0.0
O1215 O 0.59556 0.64205 0.44103 0.0
O1216 O 0.64006 0.70699 0.43058 0.0
C1217 C 0.67366 0.69151 0.45018 0.0
C1218 C 0.52115 0.65098 0.48308 0.0
O1219 O 0.68291 0.71587 0.4849 0.0
C1220 C 0.57696 0.70245 0.6049 0.0
O1221 O 0.57198 0.75783 0.46087 0.0
O1222 O 0.59932 0.77312 0.5257 0.0
O1223 O 0.54477 0.62943 0.50894 0.0
O1224 O 0.53036 0.68951 0.47153 0.0
C1225 C 0.6772 0.64833 0.57423 0.0
O1226 O 0.61415 0.72203 0.59356 0.0
O1227 O 0.5577 0.67992 0.57505 0.0
C1228 C 0.5661 0.77778 0.49738 0.0
O1229 O 0.68655 0.68055 0.54936 0.0
O1230 O 0.63678 0.64475 0.58163 0.0
C1231 C 0.61755 0.61239 0.46087 0.0
Fe1232 Fe 0.88864 0.64403 0.75712 0.0
Fe1233 Fe 0.80703 0.61831 0.69943 0.0
O1234 O 0.83269 0.6531 0.73688 0.0
Fe1235 Fe 0.80245 0.69955 0.75143 0.0
O1236 O 0.84043 0.73121 0.71824 0.0
O1237 O 0.90214 0.70102 0.74748 0.0
O1238 O 0.91252 0.63605 0.70301 0.0
C1239 C 0.89295 0.65153 0.66939 0.0
C1240 C 0.86011 0.69219 0.82188 0.0
O1241 O 0.85817 0.62724 0.66015 0.0
C1242 C 0.73828 0.64071 0.76617 0.0
O1243 O 0.8822 0.58528 0.77112 0.0
O1244 O 0.8174 0.57 0.74377 0.0
O1245 O 0.83426 0.71375 0.79826 0.0
O1246 O 0.8716 0.65364 0.81272 0.0
C1247 C 0.76888 0.69481 0.66589 0.0
O1248 O 0.74955 0.62112 0.72897 0.0
O1249 O 0.76809 0.66331 0.78541 0.0
C1250 C 0.84568 0.56537 0.77703 0.0
O1251 O 0.79373 0.66257 0.65654 0.0
O1252 O 0.7615 0.69841 0.70632 0.0
C1253 C 0.88231 0.73066 0.72543 0.0
Fe1254 Fe 0.72482 0.55701 0.94943 0.0
Fe1255 Fe 0.64357 0.55242 1.00142 0.0
O1256 O 0.69002 0.58266 0.98688 0.0
Fe1257 Fe 0.69907 0.63861 1.00712 0.0
O1258 O 0.70706 0.66249 0.95302 0.0
O1259 O 0.71588 0.60815 0.91016 0.0
O1260 O 0.68058 0.54369 0.90652 0.0
C1261 C 0.64833 0.51888 0.9159 0.0
C1262 C 0.77773 0.59567 1.02705 0.0
O1263 O 0.64471 0.51148 0.95631 0.0
C1264 C 0.6509 0.61008 0.07187 0.0
O1265 O 0.72201 0.49953 0.97898 0.0
O1266 O 0.67981 0.51807 1.03541 0.0
O1267 O 0.75781 0.63218 1.02114 0.0
O1268 O 0.77311 0.56738 0.99379 0.0
C1269 C 0.6124 0.63226 0.97547 0.0
O1270 O 0.62935 0.58422 0.04826 0.0
O1271 O 0.68945 0.62157 0.06272 0.0
C1272 C 0.70241 0.48826 1.01616 0.0
O1273 O 0.61194 0.59039 0.96822 0.0
O1274 O 0.64208 0.6521 0.99746 0.0
C1275 C 0.69158 0.64292 0.9194 0.0
Fe1276 Fe 0.70446 0.44906 0.25711 0.0
Fe1277 Fe 0.78607 0.47478 0.19942 0.0
O1278 O 0.76041 0.44 0.23687 0.0
Fe1279 Fe 0.79065 0.39355 0.25142 0.0
O1280 O 0.75268 0.36189 0.21823 0.0
O1281 O 0.69097 0.39208 0.24746 0.0
O1282 O 0.68058 0.45705 0.20301 0.0
C1283 C 0.70015 0.44157 0.16939 0.0
C1284 C 0.73299 0.4009 0.32187 0.0
O1285 O 0.73493 0.46586 0.16015 0.0
C1286 C 0.85482 0.45239 0.26616 0.0
O1287 O 0.7109 0.50781 0.27113 0.0
O1288 O 0.7757 0.5231 0.24376 0.0
O1289 O 0.75885 0.37934 0.29825 0.0
O1290 O 0.72151 0.43945 0.31271 0.0
C1291 C 0.82422 0.39828 0.16589 0.0
O1292 O 0.84354 0.47198 0.22897 0.0
O1293 O 0.82501 0.42979 0.28541 0.0
C1294 C 0.74742 0.52773 0.27702 0.0
O1295 O 0.79937 0.43052 0.15654 0.0
O1296 O 0.8316 0.39469 0.20632 0.0
C1297 C 0.71079 0.36244 0.22542 0.0
Fe1298 Fe 0.89402 0.45449 0.50711 0.0
Fe1299 Fe 0.86828 0.5361 0.44943 0.0
O1300 O 0.90307 0.51044 0.48687 0.0
Fe1301 Fe 0.94952 0.54068 0.50142 0.0
O1302 O 0.98116 0.50271 0.46821 0.0
O1303 O 0.95101 0.441 0.49745 0.0
O1304 O 0.88603 0.43061 0.45301 0.0
C1305 C 0.90151 0.45018 0.4194 0.0
C1306 C 0.9422 0.48301 0.57187 0.0
O1307 O 0.87722 0.48495 0.41015 0.0
C1308 C 0.89069 0.60485 0.51616 0.0
O1309 O 0.83528 0.46092 0.52114 0.0
O1310 O 0.81998 0.52573 0.49378 0.0
O1311 O 0.96374 0.50888 0.54825 0.0
O1312 O 0.90365 0.47153 0.56271 0.0
C1313 C 0.94477 0.57423 0.4159 0.0
O1314 O 0.87109 0.59358 0.47897 0.0
O1315 O 0.91329 0.57503 0.53541 0.0
C1316 C 0.81536 0.49744 0.52704 0.0
O1317 O 0.91251 0.54941 0.40652 0.0
O1318 O 0.94839 0.58163 0.45631 0.0
C1319 C 0.98069 0.46084 0.47546 0.0
Fe1320 Fe 0.80702 0.47482 0.89366 0.0
Fe1321 Fe 0.80244 0.39357 0.84164 0.0
O1322 O 0.83267 0.44002 0.8562 0.0
Fe1323 Fe 0.88862 0.44909 0.83596 0.0
O1324 O 0.91251 0.45705 0.89007 0.0
O1325 O 0.85817 0.46588 0.93293 0.0
O1326 O 0.79371 0.43057 0.93656 0.0
C1327 C 0.7689 0.39832 0.92717 0.0
C1328 C 0.84569 0.52779 0.81609 0.0
O1329 O 0.7615 0.39469 0.88675 0.0
C1330 C 0.86007 0.40096 0.77116 0.0
O1331 O 0.74954 0.472 0.86413 0.0
O1332 O 0.76807 0.42982 0.80767 0.0
O1333 O 0.8822 0.50785 0.82196 0.0
O1334 O 0.81737 0.52312 0.84931 0.0
C1335 C 0.88229 0.36246 0.86763 0.0
O1336 O 0.83424 0.37939 0.79479 0.0
O1337 O 0.87158 0.4395 0.78036 0.0
C1338 C 0.73826 0.45241 0.82694 0.0
O1339 O 0.84041 0.36191 0.87482 0.0
O1340 O 0.90211 0.3921 0.84558 0.0
C1341 C 0.89293 0.44158 0.92369 0.0
Fe1342 Fe 0.86828 0.55701 0.14369 0.0
Fe1343 Fe 0.94951 0.55244 0.09168 0.0
O1344 O 0.90306 0.58267 0.10624 0.0
Fe1345 Fe 0.894 0.63863 0.08601 0.0
O1346 O 0.88602 0.6625 0.14012 0.0
O1347 O 0.87722 0.60815 0.18297 0.0
O1348 O 0.91252 0.5437 0.18659 0.0
C1349 C 0.94478 0.5189 0.1772 0.0
C1350 C 0.81531 0.59568 0.06611 0.0
O1351 O 0.94839 0.5115 0.13678 0.0
C1352 C 0.94217 0.61012 1.02123 0.0
O1353 O 0.87109 0.49953 0.11414 0.0
O1354 O 0.91327 0.51808 0.05769 0.0
O1355 O 0.83526 0.6322 0.07198 0.0
O1356 O 0.81998 0.56737 0.09935 0.0
C1357 C 0.98068 0.63228 0.11763 0.0
O1358 O 0.96371 0.58425 1.04484 0.0
O1359 O 0.90362 0.62161 1.0304 0.0
C1360 C 0.89068 0.48827 0.07695 0.0
O1361 O 0.98115 0.59041 0.12488 0.0
O1362 O 0.95099 0.65212 0.09566 0.0
C1363 C 0.90151 0.64292 0.17373 0.0
Fe1364 Fe 0.78607 0.61829 0.39366 0.0
Fe1365 Fe 0.79065 0.69953 0.34165 0.0
O1366 O 0.76041 0.65308 0.35621 0.0
Fe1367 Fe 0.70446 0.64401 0.33597 0.0
O1368 O 0.68057 0.63603 0.39007 0.0
O1369 O 0.73492 0.62721 0.43293 0.0
O1370 O 0.79938 0.66253 0.43656 0.0
C1371 C 0.82419 0.69479 0.42718 0.0
C1372 C 0.74741 0.56532 0.31609 0.0
O1373 O 0.83159 0.69841 0.38676 0.0
C1374 C 0.73301 0.69215 0.27117 0.0
O1375 O 0.84355 0.6211 0.36413 0.0
O1376 O 0.82502 0.66328 0.30768 0.0
O1377 O 0.71089 0.58526 0.32196 0.0
O1378 O 0.77572 0.56999 0.34932 0.0
C1379 C 0.71079 0.73064 0.36765 0.0
O1380 O 0.75885 0.71372 0.2948 0.0
O1381 O 0.7215 0.65361 0.28037 0.0
C1382 C 0.85483 0.64069 0.32694 0.0
O1383 O 0.75268 0.7312 0.37483 0.0
O1384 O 0.69097 0.701 0.3456 0.0
C1385 C 0.70015 0.65151 0.42369 0.0
Fe1386 Fe 0.64359 0.54068 0.59165 0.0
Fe1387 Fe 0.69909 0.45449 0.58598 0.0
O1388 O 0.69003 0.51044 0.60621 0.0
Fe1389 Fe 0.7248 0.5361 0.64367 0.0
O1390 O 0.68054 0.5494 0.68656 0.0
O1391 O 0.6447 0.58162 0.63677 0.0
O1392 O 0.61194 0.5027 0.62484 0.0
C1393 C 0.61242 0.46083 0.61759 0.0
C1394 C 0.70241 0.60487 0.57694 0.0
O1395 O 0.6421 0.441 0.59561 0.0
C1396 C 0.77778 0.49743 0.56611 0.0
O1397 O 0.6294 0.50888 0.54479 0.0
O1398 O 0.68951 0.47152 0.53038 0.0
O1399 O 0.722 0.59359 0.61414 0.0
O1400 O 0.67982 0.57505 0.55768 0.0
C1401 C 0.69157 0.45019 0.67371 0.0
O1402 O 0.75785 0.46092 0.57199 0.0
O1403 O 0.77311 0.52575 0.59934 0.0
C1404 C 0.65097 0.48303 0.52118 0.0
O1405 O 0.70705 0.43061 0.6401 0.0
O1406 O 0.71586 0.48496 0.68295 0.0
C1407 C 0.6483 0.57424 0.6772 0.0
Fe1408 Fe 0.75145 0.80243 0.69954 0.0
Fe1409 Fe 0.75713 0.88863 0.64405 0.0
O1410 O 0.73688 0.83268 0.6531 0.0
Fe1411 Fe 0.69942 0.80703 0.6183 0.0
O1412 O 0.65653 0.79372 0.66255 0.0
O1413 O 0.70634 0.76149 0.69841 0.0
O1414 O 0.71827 0.84038 0.73123 0.0
C1415 C 0.72546 0.88227 0.73068 0.0
C1416 C 0.76615 0.73827 0.64068 0.0
O1417 O 0.74749 0.90211 0.70104 0.0
C1418 C 0.777 0.84571 0.56533 0.0
O1419 O 0.79829 0.83422 0.71374 0.0
O1420 O 0.81273 0.87159 0.65364 0.0
O1421 O 0.72896 0.74954 0.62111 0.0
O1422 O 0.78542 0.76808 0.66327 0.0
C1423 C 0.66942 0.89291 0.65157 0.0
O1424 O 0.77114 0.88221 0.58529 0.0
O1425 O 0.74377 0.81739 0.57 0.0
C1426 C 0.8219 0.86008 0.69219 0.0
O1427 O 0.70302 0.91251 0.63608 0.0
O1428 O 0.66017 0.85818 0.62722 0.0
C1429 C 0.66592 0.76891 0.69481 0.0
Fe1430 Fe 0.25143 0.79068 0.3936 0.0
Fe1431 Fe 0.25712 0.70448 0.44909 0.0
O1432 O 0.23688 0.76044 0.44004 0.0
Fe1433 Fe 0.19942 0.78608 0.47483 0.0
O1434 O 0.15652 0.79939 0.43058 0.0
O1435 O 0.20631 0.83162 0.39472 0.0
O1436 O 0.21824 0.75271 0.36195 0.0
C1437 C 0.22549 0.71084 0.36242 0.0
C1438 C 0.26614 0.85485 0.45243 0.0
O1439 O 0.24749 0.69101 0.39209 0.0
C1440 C 0.277 0.74741 0.52779 0.0
O1441 O 0.29828 0.75889 0.37939 0.0
O1442 O 0.31272 0.72153 0.43949 0.0
O1443 O 0.22895 0.84357 0.47202 0.0
O1444 O 0.2854 0.82505 0.42984 0.0
C1445 C 0.1694 0.70016 0.44158 0.0
O1446 O 0.27113 0.7109 0.50784 0.0
O1447 O 0.24377 0.77572 0.52313 0.0
C1448 C 0.32191 0.73305 0.40096 0.0
O1449 O 0.20302 0.68059 0.45706 0.0
O1450 O 0.16016 0.73493 0.46589 0.0
C1451 C 0.1659 0.82421 0.39833 0.0
Fe1452 Fe 0.63862 1.00711 0.69907 0.0
Fe1453 Fe 0.55701 0.94942 0.72481 0.0
O1454 O 0.58267 0.98687 0.69001 0.0
Fe1455 Fe 0.55243 1.00142 0.64356 0.0
O1456 O 0.59039 0.96823 0.6119 0.0
O1457 O 0.6521 0.99746 0.64208 0.0
O1458 O 0.6625 0.95301 0.70706 0.0
C1459 C 0.64293 0.91939 0.69158 0.0
C1460 C 0.61008 0.07187 0.65091 0.0
O1461 O 0.60816 0.91015 0.71587 0.0
C1462 C 0.48826 1.01616 0.7024 0.0
O1463 O 0.63219 1.02113 0.75782 0.0
O1464 O 0.56738 0.99377 0.77311 0.0
O1465 O 0.58423 0.04826 0.62935 0.0
O1466 O 0.62157 0.06271 0.68946 0.0
C1467 C 0.51888 0.9159 0.64831 0.0
O1468 O 0.49954 0.97897 0.722 0.0
O1469 O 0.51807 1.03541 0.6798 0.0
C1470 C 0.59567 1.02703 0.77774 0.0
O1471 O 0.5437 0.90652 0.68057 0.0
O1472 O 0.51148 0.95632 0.64469 0.0
C1473 C 0.63227 0.97542 0.61244 0.0
Fe1474 Fe 0.33598 0.38862 0.94909 0.0
Fe1475 Fe 0.39368 0.30702 0.97483 0.0
O1476 O 0.35622 0.33267 0.94004 0.0
Fe1477 Fe 0.34167 0.30242 0.8936 0.0
O1478 O 0.37486 0.34038 0.86195 0.0
O1479 O 0.34561 0.40209 0.89209 0.0
O1480 O 0.39008 0.41251 0.95706 0.0
C1481 C 0.4237 0.39294 0.94158 0.0
C1482 C 0.27119 0.36005 0.90096 0.0
O1483 O 0.43294 0.35818 0.96589 0.0
C1484 C 0.32696 0.23825 0.95244 0.0
O1485 O 0.32197 0.3822 1.00784 0.0
O1486 O 0.34933 0.31738 1.02312 0.0
O1487 O 0.29481 0.33421 0.87939 0.0
O1488 O 0.28038 0.37157 0.9395 0.0
C1489 C 0.4272 0.2689 0.89833 0.0
O1490 O 0.36415 0.24953 0.97202 0.0
O1491 O 0.3077 0.26806 0.92985 0.0
C1492 C 0.3161 0.3457 1.02779 0.0
O1493 O 0.43658 0.29371 0.93058 0.0
O1494 O 0.38679 0.26148 0.89472 0.0
C1495 C 0.36761 0.38226 0.86242 0.0
Fe1496 Fe 0.53608 0.64368 0.72482 0.0
Fe1497 Fe 0.54068 0.59168 0.64358 0.0
O1498 O 0.51043 0.60622 0.69003 0.0
Fe1499 Fe 0.45448 0.58598 0.69907 0.0
O1500 O 0.43059 0.64009 0.70705 0.0
O1501 O 0.48493 0.68294 0.71588 0.0
O1502 O 0.54939 0.68658 0.68058 0.0
C1503 C 0.57421 0.67721 0.64833 0.0
C1504 C 0.4974 0.5661 0.77778 0.0
O1505 O 0.58162 0.63679 0.64471 0.0
C1506 C 0.48305 0.5212 0.65093 0.0
O1507 O 0.59357 0.61414 0.72201 0.0
O1508 O 0.57504 0.55769 0.67982 0.0
O1509 O 0.46089 0.57196 0.75782 0.0
O1510 O 0.52572 0.59932 0.77312 0.0
C1511 C 0.46084 0.61762 0.61241 0.0
O1512 O 0.50889 0.54483 0.62937 0.0
O1513 O 0.47153 0.53039 0.68947 0.0
C1514 C 0.60485 0.57695 0.70242 0.0
O1515 O 0.50271 0.62487 0.61194 0.0
O1516 O 0.44101 0.59562 0.64208 0.0
C1517 C 0.45017 0.6737 0.69158 0.0
Fe1518 Fe 0.83598 0.20446 0.14403 0.0
Fe1519 Fe 0.89367 0.28606 0.11829 0.0
O1520 O 0.85622 0.26041 0.15309 0.0
Fe1521 Fe 0.84167 0.29065 0.19954 0.0
O1522 O 0.87486 0.25269 0.23121 0.0
O1523 O 0.84564 0.19097 0.20102 0.0
O1524 O 0.89009 0.18058 0.13603 0.0
C1525 C 0.92371 0.20015 0.15151 0.0
C1526 C 0.77122 0.23299 0.19219 0.0
O1527 O 0.93295 0.23492 0.12722 0.0
C1528 C 0.82694 0.35482 0.14069 0.0
O1529 O 0.82194 0.21089 0.08528 0.0
O1530 O 0.84933 0.2757 0.06999 0.0
O1531 O 0.79484 0.25885 0.21374 0.0
O1532 O 0.78038 0.2215 0.15364 0.0
C1533 C 0.92718 0.32419 0.1948 0.0
O1534 O 0.86413 0.34354 0.1211 0.0
O1535 O 0.80769 0.325 0.16329 0.0
C1536 C 0.81609 0.24739 0.06532 0.0
O1537 O 0.93657 0.29938 0.16254 0.0
O1538 O 0.88677 0.3316 0.1984 0.0
C1539 C 0.86768 0.21081 0.23066 0.0
Fe1540 Fe 0.55702 0.14368 0.86829 0.0
Fe1541 Fe 0.55245 0.09168 0.94954 0.0
O1542 O 0.58268 0.10623 0.90309 0.0
Fe1543 Fe 0.63863 0.08599 0.89402 0.0
O1544 O 0.66251 0.1401 0.88601 0.0
O1545 O 0.60816 0.18295 0.87721 0.0
O1546 O 0.5437 0.18658 0.91253 0.0
C1547 C 0.51889 0.1772 0.94479 0.0
C1548 C 0.59569 0.0661 0.81533 0.0
O1549 O 0.51149 0.13678 0.94841 0.0
C1550 C 0.61011 1.02123 0.9422 0.0
O1551 O 0.49954 0.11413 0.87111 0.0
O1552 O 0.51809 0.05769 0.91331 0.0
O1553 O 0.6322 0.07195 0.83528 0.0
O1554 O 0.56738 0.09933 0.81999 0.0
C1555 C 0.63229 0.1177 0.98065 0.0
O1556 O 0.58426 1.04485 0.96375 0.0
O1557 O 0.62159 1.03039 0.90364 0.0
C1558 C 0.48827 0.07694 0.89071 0.0
O1559 O 0.59041 0.12489 0.9812 0.0
O1560 O 0.65213 0.09566 0.95101 0.0
C1561 C 0.64294 0.17372 0.90149 0.0
Fe1562 Fe 1.04064 1.00142 0.44955 0.0
Fe1563 Fe 0.95446 1.00711 0.39403 0.0
O1564 O 1.01041 0.98687 0.40309 0.0
Fe1565 Fe 1.03607 0.94942 0.36829 0.0
O1566 O 0.04938 0.90652 0.41253 0.0
O1567 O 0.0816 0.95632 0.44841 0.0
O1568 O 1.00268 0.96821 0.4812 0.0
C1569 C 0.9608 0.9754 0.48066 0.0
C1570 C 0.10481 1.01616 0.39071 0.0
O1571 O 0.94096 0.99745 0.45102 0.0
C1572 C 0.99739 1.027 0.31533 0.0
O1573 O 1.00883 0.04825 0.46376 0.0
O1574 O 0.9715 0.0627 0.40365 0.0
O1575 O 0.09354 0.97897 0.37111 0.0
O1576 O 0.075 1.03541 0.41331 0.0
C1577 C 0.95014 0.91938 0.4015 0.0
O1578 O 0.96089 1.02115 0.33528 0.0
O1579 O 1.0257 0.99377 0.32 0.0
C1580 C 0.98298 0.07187 0.4422 0.0
O1581 O 0.93058 0.953 0.38602 0.0
O1582 O 0.98492 0.91015 0.37722 0.0
C1583 C 0.0742 0.9159 0.44479 0.0
Fe1584 Fe 0.44905 0.33598 0.20446 0.0
Fe1585 Fe 0.39358 0.34168 0.29068 0.0
O1586 O 0.44001 0.35622 0.26041 0.0
Fe1587 Fe 0.47479 0.39368 0.28605 0.0
O1588 O 0.46585 0.43294 0.2349 0.0
O1589 O 0.45702 0.39008 0.18057 0.0
O1590 O 0.39205 0.34561 0.19099 0.0
C1591 C 0.36243 0.36767 0.21083 0.0
C1592 C 0.52778 0.31612 0.24735 0.0
O1593 O 0.36189 0.37485 0.25272 0.0
C1594 C 0.45243 0.32698 0.35488 0.0
O1595 O 0.43946 0.28039 0.22151 0.0
O1596 O 0.37938 0.29483 0.2589 0.0
O1597 O 0.52309 0.34932 0.27569 0.0
O1598 O 0.5078 0.32197 0.21086 0.0
C1599 C 0.39831 0.42724 0.32423 0.0
O1600 O 0.42985 0.30774 0.32505 0.0
O1601 O 0.472 0.36416 0.34353 0.0
C1602 C 0.40093 0.27121 0.23304 0.0
O1603 O 0.39471 0.38681 0.33162 0.0
O1604 O 0.43052 0.43656 0.29933 0.0
C1605 C 0.44155 0.4237 0.20014 0.0
Fe1606 Fe 0.50713 0.69906 0.95447 0.0
Fe1607 Fe 0.50141 0.64356 1.04067 0.0
O1608 O 0.48689 0.69001 1.01043 0.0
Fe1609 Fe 0.44944 0.7248 1.03607 0.0
O1610 O 0.41017 0.71587 0.98493 0.0
O1611 O 0.45303 0.70705 0.93058 0.0
O1612 O 0.49748 0.64207 0.94099 0.0
C1613 C 0.47542 0.61245 0.96081 0.0
C1614 C 0.527 0.77779 0.99737 0.0
O1615 O 0.46823 0.61191 1.00269 0.0
C1616 C 0.51614 0.70242 0.10486 0.0
O1617 O 0.56271 0.68946 0.97152 0.0
O1618 O 0.54826 0.62936 1.00888 0.0
O1619 O 0.4938 0.7731 1.02572 0.0
O1620 O 0.52114 0.75781 0.96088 0.0
C1621 C 0.41587 0.64832 0.07424 0.0
O1622 O 0.53539 0.67977 0.07507 0.0
O1623 O 0.47896 0.722 0.09355 0.0
C1624 C 0.57188 0.65092 0.98302 0.0
O1625 O 0.4563 0.6447 0.08162 0.0
O1626 O 0.40655 0.68054 0.04935 0.0
C1627 C 0.41941 0.69158 0.95016 0.0
Fe1628 Fe 0.11831 0.69942 0.78605 0.0
Fe1629 Fe 0.14405 0.75712 0.70447 0.0
O1630 O 0.15309 0.73688 0.76042 0.0
Fe1631 Fe 0.19952 0.75142 0.79069 0.0
O1632 O 0.19839 0.70629 0.83162 0.0
O1633 O 0.16258 0.65654 0.79934 0.0
O1634 O 0.12725 0.66016 0.7349 0.0
C1635 C 0.15155 0.6694 0.70014 0.0
C1636 C 0.14067 0.76611 0.85489 0.0
O1637 O 0.13608 0.70302 0.68057 0.0
C1638 C 0.19216 0.82189 0.73305 0.0
O1639 O 0.07001 0.74378 0.7757 0.0
O1640 O 0.08529 0.77112 0.71086 0.0
O1641 O 0.16325 0.78536 0.82506 0.0
O1642 O 0.12109 0.72894 0.84354 0.0
C1643 C 0.23067 0.72543 0.71083 0.0
O1644 O 0.15363 0.81272 0.72152 0.0
O1645 O 0.21372 0.79827 0.75891 0.0
C1646 C 0.06532 0.77698 0.74736 0.0
O1647 O 0.20105 0.7475 0.691 0.0
O1648 O 0.2312 0.71825 0.75272 0.0
C1649 C 0.19479 0.66586 0.82424 0.0
Fe1650 Fe 0.09168 0.44954 0.54067 0.0
Fe1651 Fe 0.14366 0.3683 0.53606 0.0
O1652 O 0.10621 0.40309 0.51042 0.0
Fe1653 Fe 0.08597 0.39404 0.45447 0.0
O1654 O 0.09561 0.45103 0.44098 0.0
O1655 O 0.12486 0.4812 0.50269 0.0
O1656 O 0.1368 0.4484 0.58161 0.0
C1657 C 0.17723 0.44478 0.57424 0.0
C1658 C 1.02121 0.44218 0.48302 0.0
O1659 O 0.18654 0.41256 0.54935 0.0
C1660 C 0.0661 0.31532 0.49737 0.0
O1661 O 0.05771 0.41332 0.57507 0.0
O1662 O 0.11414 0.3711 0.59354 0.0
O1663 O 1.03038 0.40364 0.47151 0.0
O1664 O 1.04483 0.46374 0.50888 0.0
C1665 C 0.17369 0.40153 0.45015 0.0
O1666 O 0.0993 0.32 0.52571 0.0
O1667 O 0.07195 0.33529 0.46087 0.0
C1668 C 0.07696 0.39068 0.60486 0.0
O1669 O 0.18293 0.37723 0.48492 0.0
O1670 O 0.14007 0.38605 0.43058 0.0
C1671 C 0.11767 0.48066 0.46081 0.0
Fe1672 Fe 0.39356 0.75142 0.30243 0.0
Fe1673 Fe 0.47479 0.69943 0.30706 0.0
O1674 O 0.44 0.73689 0.33269 0.0
Fe1675 Fe 0.44904 0.75713 0.38864 0.0
O1676 O 0.39204 0.74749 0.40211 0.0
O1677 O 0.3619 0.71824 0.3404 0.0
O1678 O 0.3947 0.7063 0.26149 0.0
C1679 C 0.39831 0.66587 0.26887 0.0
C1680 C 0.40091 0.82189 0.36007 0.0
O1681 O 0.43052 0.65655 0.29377 0.0
C1682 C 0.52778 0.77698 0.34575 0.0
O1683 O 0.42979 0.78539 0.26805 0.0
O1684 O 0.472 0.72895 0.24957 0.0
O1685 O 0.43945 0.81272 0.37159 0.0
O1686 O 0.37935 0.79827 0.33422 0.0
C1687 C 0.44156 0.66941 0.39296 0.0
O1688 O 0.52309 0.74378 0.31741 0.0
O1689 O 0.5078 0.77114 0.38225 0.0
C1690 C 0.45243 0.76613 0.23826 0.0
O1691 O 0.46586 0.66017 0.3582 0.0
O1692 O 0.45702 0.70303 0.41254 0.0
C1693 C 0.36243 0.72542 0.38228 0.0
Fe1694 Fe 0.08597 0.69906 0.13864 0.0
Fe1695 Fe 0.09167 0.64357 0.05242 0.0
O1696 O 0.10621 0.69001 0.08268 0.0
Fe1697 Fe 0.14366 0.7248 0.05705 0.0
O1698 O 0.18293 0.71586 0.10819 0.0
O1699 O 0.14007 0.70703 0.16253 0.0
O1700 O 0.09559 0.64206 0.15211 0.0
C1701 C 0.11767 0.61244 0.13228 0.0
C1702 C 0.06611 0.77779 0.09574 0.0
O1703 O 0.12485 0.6119 0.0904 0.0
C1704 C 0.07696 0.70243 0.98825 0.0
O1705 O 1.03038 0.68948 0.12158 0.0
O1706 O 1.04482 0.62937 0.08422 0.0
O1707 O 0.09931 0.7731 0.0674 0.0
O1708 O 0.07196 0.75781 0.13224 0.0
C1709 C 0.17722 0.64832 1.01887 0.0
O1710 O 0.05771 0.6798 1.01803 0.0
O1711 O 0.11415 0.72201 0.99956 0.0
C1712 C 1.0212 0.65094 0.11006 0.0
O1713 O 0.1368 0.64471 1.01148 0.0
O1714 O 0.18654 0.68054 1.04376 0.0
C1715 C 0.17369 0.69156 0.14296 0.0
Fe1716 Fe 0.14405 0.33598 0.88864 0.0
Fe1717 Fe 0.19954 0.34169 0.80243 0.0
O1718 O 0.15309 0.35622 0.83269 0.0
Fe1719 Fe 0.11831 0.39367 0.80705 0.0
O1720 O 0.12724 0.43294 0.8582 0.0
O1721 O 0.13607 0.39008 0.91254 0.0
O1722 O 0.20105 0.34561 0.90212 0.0
C1723 C 0.23067 0.36768 0.88228 0.0
C1724 C 0.06532 0.31612 0.84575 0.0
O1725 O 0.2312 0.37487 0.8404 0.0
C1726 C 0.14067 0.32697 0.73826 0.0
O1727 O 0.15365 0.28039 0.87159 0.0
O1728 O 0.21375 0.29484 0.83422 0.0
O1729 O 0.07001 0.34932 0.81741 0.0
O1730 O 0.0853 0.32196 0.88224 0.0
C1731 C 0.19479 0.42723 0.76888 0.0
O1732 O 0.16331 0.30772 0.76805 0.0
O1733 O 0.12109 0.36416 0.74957 0.0
C1734 C 0.19219 0.27122 0.86007 0.0
O1735 O 0.1984 0.38681 0.76149 0.0
O1736 O 0.16258 0.43656 0.79377 0.0
C1737 C 0.15154 0.4237 0.89296 0.0
Fe1738 Fe 0.50714 0.39406 0.63865 0.0
Fe1739 Fe 0.50142 0.44951 0.55241 0.0
O1740 O 0.48688 0.40309 0.58269 0.0
Fe1741 Fe 0.44943 0.36829 0.55707 0.0
O1742 O 0.41018 0.37724 0.60822 0.0
O1743 O 0.45304 0.3861 0.66255 0.0
O1744 O 0.49751 0.45107 0.6521 0.0
C1745 C 0.47544 0.48068 0.63226 0.0
C1746 C 0.52699 0.31532 0.59577 0.0
O1747 O 0.46826 0.4812 0.59037 0.0
C1748 C 0.51611 0.39064 0.48822 0.0
O1749 O 0.56272 0.40363 0.62158 0.0
O1750 O 0.54828 0.46372 0.58418 0.0
O1751 O 0.49379 0.32 0.56743 0.0
O1752 O 0.52114 0.3353 0.63226 0.0
C1753 C 0.41586 0.44477 0.51888 0.0
O1754 O 0.53536 0.41323 0.51805 0.0
O1755 O 0.47894 0.37107 0.49958 0.0
C1756 C 0.5719 0.44217 0.61004 0.0
O1757 O 0.45629 0.44837 0.51148 0.0
O1758 O 0.40654 0.41256 0.54378 0.0
C1759 C 0.41942 0.40155 0.64298 0.0
Fe1760 Fe 0.28605 0.4748 0.39367 0.0
Fe1761 Fe 0.20446 0.44906 0.33598 0.0
O1762 O 0.26041 0.44001 0.35623 0.0
Fe1763 Fe 0.29066 0.39355 0.34171 0.0
O1764 O 0.33161 0.39471 0.38682 0.0
O1765 O 0.29934 0.43054 0.43656 0.0
O1766 O 0.23492 0.46585 0.43295 0.0
C1767 C 0.20012 0.4416 0.42372 0.0
C1768 C 0.35483 0.45242 0.32697 0.0
O1769 O 0.18056 0.45705 0.39008 0.0
C1770 C 0.23303 0.40091 0.27123 0.0
O1771 O 0.27569 0.5231 0.34932 0.0
O1772 O 0.21088 0.5078 0.32197 0.0
O1773 O 0.32504 0.42977 0.30772 0.0
O1774 O 0.34353 0.47201 0.36415 0.0
C1775 C 0.21079 0.36244 0.36771 0.0
O1776 O 0.22152 0.43945 0.2804 0.0
O1777 O 0.25886 0.37934 0.29487 0.0
C1778 C 0.24738 0.52775 0.31608 0.0
O1779 O 0.19098 0.39206 0.34563 0.0
O1780 O 0.25268 0.36191 0.37491 0.0
C1781 C 0.32424 0.39832 0.42725 0.0
Fe1782 Fe 0.36827 0.53606 0.14368 0.0
Fe1783 Fe 0.39404 0.45448 0.08598 0.0
O1784 O 0.40308 0.51043 0.10624 0.0
Fe1785 Fe 0.44954 0.54068 0.09171 0.0
O1786 O 0.44838 0.58163 0.13682 0.0
O1787 O 0.41251 0.54937 0.18658 0.0
O1788 O 0.37722 0.48493 0.18295 0.0
C1789 C 0.40148 0.45013 0.17371 0.0
C1790 C 0.39067 0.60485 0.07697 0.0
O1791 O 0.38603 0.43058 0.14007 0.0
C1792 C 0.4422 0.48305 1.02124 0.0
O1793 O 0.31999 0.5257 0.09931 0.0
O1794 O 0.3353 0.46089 0.07195 0.0
O1795 O 0.41331 0.57506 0.05773 0.0
O1796 O 0.37108 0.59354 0.11415 0.0
C1797 C 0.48065 0.46083 0.11772 0.0
O1798 O 0.40366 0.47154 1.0304 0.0
O1799 O 0.46376 0.50889 1.04488 0.0
C1800 C 0.31535 0.4974 0.06607 0.0
O1801 O 0.45103 0.441 0.09564 0.0
O1802 O 0.48118 0.50271 0.12492 0.0
C1803 C 0.44474 0.57423 0.17724 0.0
Fe1804 Fe 0.30705 0.61831 0.89368 0.0
Fe1805 Fe 0.38863 0.64405 0.83599 0.0
O1806 O 0.33268 0.6531 0.85624 0.0
Fe1807 Fe 0.30244 0.69955 0.84171 0.0
O1808 O 0.26149 0.6984 0.88682 0.0
O1809 O 0.29376 0.66257 0.93657 0.0
O1810 O 0.35818 0.62725 0.93296 0.0
C1811 C 0.39298 0.65151 0.92373 0.0
C1812 C 0.23827 0.64068 0.82697 0.0
O1813 O 0.41253 0.63605 0.89009 0.0
C1814 C 0.36007 0.6922 0.77124 0.0
O1815 O 0.31741 0.57 0.84933 0.0
O1816 O 0.38222 0.5853 0.82198 0.0
O1817 O 0.26805 0.66333 0.80773 0.0
O1818 O 0.24957 0.6211 0.86416 0.0
C1819 C 0.3823 0.73066 0.86771 0.0
O1820 O 0.37158 0.65365 0.7804 0.0
O1821 O 0.33424 0.71376 0.79487 0.0
C1822 C 0.34571 0.56536 0.81609 0.0
O1823 O 0.40212 0.70104 0.84564 0.0
O1824 O 0.34041 0.7312 0.87491 0.0
C1825 C 0.26886 0.69479 0.92725 0.0
Fe1826 Fe 0.19906 0.63862 0.58598 0.0
Fe1827 Fe 0.14356 0.55242 0.59171 0.0
O1828 O 0.19001 0.58267 0.60623 0.0
Fe1829 Fe 0.22482 0.55703 0.64367 0.0
O1830 O 0.21588 0.60817 0.68294 0.0
O1831 O 0.20707 0.66252 0.64007 0.0
O1832 O 0.14207 0.6521 0.59565 0.0
C1833 C 0.11245 0.63228 0.61772 0.0
C1834 C 0.27775 0.5957 0.56607 0.0
O1835 O 0.11191 0.59039 0.62492 0.0
C1836 C 0.20242 0.48825 0.57697 0.0
O1837 O 0.18944 0.62156 0.5304 0.0
O1838 O 0.12933 0.58422 0.54488 0.0
O1839 O 0.27311 0.5674 0.59931 0.0
O1840 O 0.2578 0.6322 0.57195 0.0
C1841 C 0.14835 0.51887 0.67724 0.0
O1842 O 0.17978 0.51804 0.55772 0.0
O1843 O 0.22202 0.49955 0.61414 0.0
C1844 C 0.15089 0.61005 0.52124 0.0
O1845 O 0.14471 0.51148 0.63682 0.0
O1846 O 0.18059 0.54373 0.68658 0.0
C1847 C 0.19162 0.64297 0.67371 0.0
Fe1848 Fe 0.28605 0.61829 0.19943 0.0
Fe1849 Fe 0.20446 0.64403 0.25713 0.0
O1850 O 0.26041 0.65309 0.23688 0.0
Fe1851 Fe 0.29065 0.69955 0.25142 0.0
O1852 O 0.3316 0.69841 0.20631 0.0
O1853 O 0.29936 0.66254 0.15654 0.0
O1854 O 0.23492 0.62724 0.16016 0.0
C1855 C 0.20012 0.65149 0.16939 0.0
C1856 C 0.35483 0.64068 0.26614 0.0
O1857 O 0.18057 0.63603 0.20303 0.0
C1858 C 0.23301 0.69219 0.32189 0.0
O1859 O 0.2757 0.57 0.24379 0.0
O1860 O 0.21087 0.58529 0.27115 0.0
O1861 O 0.32504 0.66332 0.28539 0.0
O1862 O 0.34353 0.6211 0.22896 0.0
C1863 C 0.21079 0.73065 0.22541 0.0
O1864 O 0.22151 0.65364 0.31272 0.0
O1865 O 0.25885 0.71375 0.29826 0.0
C1866 C 0.24737 0.56531 0.277 0.0
O1867 O 0.19097 0.70102 0.24747 0.0
O1868 O 0.25268 0.7312 0.21822 0.0
C1869 C 0.32421 0.69478 0.16589 0.0
Fe1870 Fe 0.14356 0.54068 1.0014 0.0
Fe1871 Fe 0.22481 0.53607 0.94942 0.0
O1872 O 0.19001 0.51043 0.98687 0.0
Fe1873 Fe 0.19906 0.45448 1.00712 0.0
O1874 O 0.14207 0.441 0.99746 0.0
O1875 O 0.11191 0.50271 0.9682 0.0
O1876 O 0.1447 0.58162 0.95629 0.0
C1877 C 0.14833 0.57422 0.91588 0.0
C1878 C 0.1509 0.48304 0.07187 0.0
O1879 O 0.18056 0.54937 0.90653 0.0
C1880 C 0.27778 0.49738 1.02699 0.0
O1881 O 0.17978 0.57506 1.03538 0.0
O1882 O 0.22201 0.59355 0.97895 0.0
O1883 O 0.18944 0.47153 0.06271 0.0
O1884 O 0.12934 0.50888 0.04824 0.0
C1885 C 0.19161 0.45013 0.91939 0.0
O1886 O 0.2731 0.52571 0.99378 0.0
O1887 O 0.2578 0.46089 1.02116 0.0
C1888 C 0.20242 0.60485 1.01613 0.0
O1889 O 0.21586 0.48493 0.91016 0.0
O1890 O 0.20707 0.43058 0.95303 0.0
C1891 C 0.11244 0.46083 0.97539 0.0
Fe1892 Fe 0.30705 0.47481 0.69944 0.0
Fe1893 Fe 0.38864 0.44907 0.75714 0.0
O1894 O 0.33269 0.44002 0.73689 0.0
Fe1895 Fe 0.30245 0.39356 0.75142 0.0
O1896 O 0.2615 0.39469 0.70631 0.0
O1897 O 0.29374 0.43057 0.65654 0.0
O1898 O 0.35818 0.46587 0.66017 0.0
C1899 C 0.39298 0.44162 0.6694 0.0
C1900 C 0.23827 0.45242 0.76615 0.0
O1901 O 0.41253 0.45708 0.70304 0.0
C1902 C 0.36009 0.40091 0.82189 0.0
O1903 O 0.3174 0.52311 0.7438 0.0
O1904 O 0.38222 0.50782 0.77117 0.0
O1905 O 0.26806 0.42978 0.7854 0.0
O1906 O 0.24957 0.47201 0.72897 0.0
C1907 C 0.38231 0.36246 0.72541 0.0
O1908 O 0.37159 0.43946 0.81272 0.0
O1909 O 0.33425 0.37935 0.79826 0.0
C1910 C 0.34573 0.52779 0.77701 0.0
O1911 O 0.40213 0.39208 0.74748 0.0
O1912 O 0.34042 0.36191 0.71822 0.0
C1913 C 0.26889 0.39833 0.6659 0.0
Fe1914 Fe 0.44955 0.55243 0.50141 0.0
Fe1915 Fe 0.36831 0.55703 0.44943 0.0
O1916 O 0.40309 0.58268 0.48688 0.0
Fe1917 Fe 0.39403 0.63863 0.50712 0.0
O1918 O 0.45102 0.65212 0.49747 0.0
O1919 O 0.48119 0.59041 0.46822 0.0
O1920 O 0.4484 0.51148 0.4563 0.0
C1921 C 0.4448 0.51886 0.41587 0.0
C1922 C 0.44219 0.61008 0.57188 0.0
O1923 O 0.41258 0.54375 0.40655 0.0
C1924 C 0.31531 0.59571 0.52698 0.0
O1925 O 0.41332 0.51804 0.53539 0.0
O1926 O 0.3711 0.49955 0.47896 0.0
O1927 O 0.40364 0.62158 0.56271 0.0
O1928 O 0.46375 0.58423 0.54825 0.0
C1929 C 0.40149 0.64297 0.41939 0.0
O1930 O 0.32 0.56738 0.49377 0.0
O1931 O 0.33529 0.63221 0.52115 0.0
C1932 C 0.39068 0.48825 0.51614 0.0
O1933 O 0.37725 0.60817 0.41016 0.0
O1934 O 0.38602 0.66252 0.45302 0.0
C1935 C 0.48065 0.6323 0.47541 0.0
Fe1936 Fe 0.34167 0.29069 0.39357 0.0
Fe1937 Fe 0.39367 0.28606 0.47482 0.0
O1938 O 0.35621 0.26043 0.44001 0.0
Fe1939 Fe 0.33596 0.20448 0.44905 0.0
O1940 O 0.3456 0.19101 0.39205 0.0
O1941 O 0.37486 0.25273 0.3619 0.0
O1942 O 0.38679 0.33162 0.39471 0.0
C1943 C 0.42721 0.32421 0.39833 0.0
C1944 C 0.2712 0.23306 0.40092 0.0
O1945 O 0.43656 0.29936 0.43057 0.0
C1946 C 0.3161 0.24736 0.52779 0.0
O1947 O 0.30771 0.32506 0.42982 0.0
O1948 O 0.36415 0.34354 0.47202 0.0
O1949 O 0.28037 0.22154 0.43946 0.0
O1950 O 0.29483 0.2589 0.37936 0.0
C1951 C 0.42368 0.20015 0.44157 0.0
O1952 O 0.34931 0.2757 0.52311 0.0
O1953 O 0.32194 0.21087 0.5078 0.0
C1954 C 0.32697 0.35485 0.45245 0.0
O1955 O 0.43292 0.23491 0.46588 0.0
O1956 O 0.39006 0.18058 0.45703 0.0
C1957 C 0.36767 0.21084 0.36243 0.0
Fe1958 Fe 0.8417 0.30243 0.69953 0.0
Fe1959 Fe 0.89368 0.30705 0.61828 0.0
O1960 O 0.85624 0.33269 0.65307 0.0
Fe1961 Fe 0.83598 0.38864 0.64403 0.0
O1962 O 0.84564 0.40212 0.70103 0.0
O1963 O 0.8749 0.3404 0.73118 0.0
O1964 O 0.88681 0.26149 0.69839 0.0
C1965 C 0.92723 0.26889 0.69476 0.0
C1966 C 0.77123 0.36007 0.69217 0.0
O1967 O 0.93658 0.29375 0.66253 0.0
C1968 C 0.81612 0.34574 0.5653 0.0
O1969 O 0.80773 0.26805 0.6633 0.0
O1970 O 0.86416 0.24957 0.62107 0.0
O1971 O 0.7804 0.37158 0.65363 0.0
O1972 O 0.79486 0.33423 0.71374 0.0
C1973 C 0.92372 0.393 0.65147 0.0
O1974 O 0.84932 0.31741 0.56999 0.0
O1975 O 0.82196 0.38223 0.58528 0.0
C1976 C 0.82698 0.23826 0.64066 0.0
O1977 O 0.93295 0.35819 0.62722 0.0
O1978 O 0.89008 0.41254 0.63602 0.0
C1979 C 0.86771 0.38229 0.73064 0.0
Fe1980 Fe 0.53605 0.14369 0.3683 0.0
Fe1981 Fe 0.45447 0.08599 0.39405 0.0
O1982 O 0.51042 0.10625 0.4031 0.0
Fe1983 Fe 0.54066 0.09172 0.44956 0.0
O1984 O 0.58161 0.13683 0.44841 0.0
O1985 O 0.54936 0.18659 0.41254 0.0
O1986 O 0.48491 0.18296 0.37724 0.0
C1987 C 0.45012 0.17372 0.4015 0.0
C1988 C 0.60483 0.07698 0.39069 0.0
O1989 O 0.43057 0.14008 0.38605 0.0
C1990 C 0.48304 1.02125 0.44222 0.0
O1991 O 0.52569 0.09932 0.32 0.0
O1992 O 0.46088 0.07196 0.33531 0.0
O1993 O 0.57504 0.05774 0.41334 0.0
O1994 O 0.59353 0.11416 0.3711 0.0
C1995 C 0.46081 0.11774 0.48067 0.0
O1996 O 0.47153 1.03041 0.40367 0.0
O1997 O 0.50887 1.04489 0.46378 0.0
C1998 C 0.49739 0.06608 0.31536 0.0
O1999 O 0.44099 0.09565 0.45105 0.0
O2000 O 0.5027 0.12493 0.4812 0.0
C2001 C 0.57421 0.17725 0.44477 0.0
Fe2002 Fe 0.75138 0.79067 0.19954 0.0
Fe2003 Fe 0.6994 0.78605 0.11829 0.0
O2004 O 0.73685 0.76042 0.15309 0.0
Fe2005 Fe 0.7571 0.70447 0.14404 0.0
O2006 O 0.74745 0.69099 0.20104 0.0
O2007 O 0.71819 0.75271 0.23119 0.0
O2008 O 0.70627 0.83161 0.1984 0.0
C2009 C 0.66586 0.82421 0.19477 0.0
C2010 C 0.82185 0.73304 0.19219 0.0
O2011 O 0.65651 0.79935 0.16254 0.0
C2012 C 0.77698 0.74737 0.06532 0.0
O2013 O 0.78536 0.82505 0.16331 0.0
O2014 O 0.72892 0.84353 0.12108 0.0
O2015 O 0.81269 0.72153 0.15365 0.0
O2016 O 0.79823 0.75888 0.21375 0.0
C2017 C 0.66937 0.70011 0.15148 0.0
O2018 O 0.74376 0.77569 0.07 0.0
O2019 O 0.77114 0.71087 0.0853 0.0
C2020 C 0.76611 0.85484 0.14067 0.0
O2021 O 0.66014 0.73491 0.12723 0.0
O2022 O 0.70301 0.68056 0.13603 0.0
C2023 C 0.72537 0.71082 0.23066 0.0
Fe2024 Fe 0.55705 0.44942 0.3683 0.0
Fe2025 Fe 0.63864 0.50711 0.39405 0.0
O2026 O 0.58269 0.48686 0.4031 0.0
Fe2027 Fe 0.55244 0.50138 0.44956 0.0
O2028 O 0.51149 0.45628 0.4484 0.0
O2029 O 0.54375 0.40651 0.41254 0.0
O2030 O 0.60819 0.41014 0.37723 0.0
C2031 C 0.64299 0.41937 0.40148 0.0
C2032 C 0.48827 0.51613 0.39069 0.0
O2033 O 0.66254 0.45302 0.38603 0.0
C2034 C 0.61007 0.57185 0.44223 0.0
O2035 O 0.56741 0.49378 0.32001 0.0
O2036 O 0.63223 0.52116 0.33531 0.0
O2037 O 0.51806 0.53537 0.41333 0.0
O2038 O 0.49957 0.47894 0.3711 0.0
C2039 C 0.63229 0.47537 0.48067 0.0
O2040 O 0.62158 0.5627 0.40368 0.0
O2041 O 0.58424 0.54821 0.46378 0.0
C2042 C 0.59574 0.52699 0.31533 0.0
O2043 O 0.65212 0.49744 0.45105 0.0
O2044 O 0.59041 0.46818 0.4812 0.0
C2045 C 0.51889 0.41586 0.44477 0.0
Fe2046 Fe 0.25713 0.88863 0.94906 0.0
Fe2047 Fe 0.25141 0.80243 0.89357 0.0
O2048 O 0.23688 0.83268 0.94002 0.0
Fe2049 Fe 0.19943 0.80705 0.97482 0.0
O2050 O 0.16017 0.85819 0.96587 0.0
O2051 O 0.20304 0.91253 0.95706 0.0
O2052 O 0.24747 0.9021 0.89206 0.0
C2053 C 0.2254 0.88227 0.86244 0.0
C2054 C 0.277 0.84574 1.0278 0.0
O2055 O 0.21822 0.84039 0.86191 0.0
C2056 C 0.26614 0.73826 0.95244 0.0
O2057 O 0.31272 0.87157 0.93945 0.0
O2058 O 0.29825 0.83422 0.87935 0.0
O2059 O 0.24379 0.81741 1.02311 0.0
O2060 O 0.27117 0.88223 1.00781 0.0
C2061 C 0.16589 0.76889 0.89834 0.0
O2062 O 0.28539 0.76805 0.9298 0.0
O2063 O 0.22895 0.74957 0.97203 0.0
C2064 C 0.32188 0.86006 0.90091 0.0
O2065 O 0.2063 0.76148 0.89471 0.0
O2066 O 0.15653 0.79375 0.93057 0.0
C2067 C 0.1694 0.89298 0.94161 0.0
Fe2068 Fe 0.45448 1.00713 0.19906 0.0
Fe2069 Fe 0.54067 1.00139 0.14355 0.0
O2070 O 0.51042 0.98687 0.19001 0.0
Fe2071 Fe 0.53606 0.94943 0.22482 0.0
O2072 O 0.48493 0.91016 0.21588 0.0
O2073 O 0.43058 0.95303 0.20708 0.0
O2074 O 0.44099 0.99745 0.14207 0.0
C2075 C 0.46082 0.97537 0.11245 0.0
C2076 C 0.49737 1.027 0.27779 0.0
O2077 O 0.5027 0.96818 0.11191 0.0
C2078 C 0.60484 1.01614 0.20241 0.0
O2079 O 0.47153 0.06271 0.18944 0.0
O2080 O 0.50887 0.04822 0.12933 0.0
O2081 O 0.5257 0.99379 0.27311 0.0
O2082 O 0.46088 1.02118 0.2578 0.0
C2083 C 0.57422 0.91587 0.14834 0.0
O2084 O 0.57505 1.03538 0.17977 0.0
O2085 O 0.59354 0.97896 0.22201 0.0
C2086 C 0.48304 0.07186 0.15089 0.0
O2087 O 0.58162 0.95629 0.1447 0.0
O2088 O 0.54937 0.90653 0.18058 0.0
C2089 C 0.45013 0.91939 0.19163 0.0
Fe2090 Fe 0.13863 0.08598 0.69906 0.0
Fe2091 Fe 0.05243 0.09171 0.64355 0.0
O2092 O 0.08268 0.10623 0.69001 0.0
Fe2093 Fe 0.05704 0.14367 0.72482 0.0
O2094 O 0.10818 0.18294 0.71587 0.0
O2095 O 0.16253 0.14007 0.70708 0.0
O2096 O 0.15211 0.09565 0.64206 0.0
C2097 C 0.13228 0.11773 0.61245 0.0
C2098 C 0.09574 0.0661 0.77779 0.0
O2099 O 0.0904 0.12492 0.61191 0.0
C2100 C 0.98827 0.07696 0.70242 0.0
O2101 O 0.12157 1.0304 0.68944 0.0
O2102 O 0.08423 1.04488 0.62933 0.0
O2103 O 0.0674 0.09931 0.77311 0.0
O2104 O 0.13223 0.07193 0.7578 0.0
C2105 C 1.01888 0.17723 0.64834 0.0
O2106 O 1.01806 0.05772 0.67977 0.0
O2107 O 0.99957 0.11414 0.72201 0.0
C2108 C 0.11006 1.02124 0.65089 0.0
O2109 O 1.01148 0.13682 0.6447 0.0
O2110 O 1.04374 0.18658 0.68058 0.0
C2111 C 0.14298 0.17371 0.69162 0.0
loop_
_geom_bond_atom_site_label_1
_geom_bond_atom_site_label_2
_geom_bond_distance
_geom_bond_site_symmetry_2
_ccdc_geom_bond_type
Fe0 O2 1.918 . S
Fe0 O5 1.997 . S
Fe0 O6 2.002 . S
Fe0 O11 1.976 . S
Fe0 O14 1.996 . S
Fe1 O2 1.918 . S
Fe1 O9 1.997 . S
Fe1 O12 1.996 . S
Fe1 O16 1.976 . S
Fe1 O19 2.002 . S
O2 Fe0 1.918 . S
O2 Fe1 1.918 . S
O2 Fe3 1.918 . S
Fe3 O2 1.918 . S
Fe3 O4 2.002 . S
Fe3 O13 1.976 . S
Fe3 O17 1.996 . S
Fe3 O20 1.997 . S
O4 Fe3 2.002 . S
O4 C21 1.295 . S
O5 Fe0 1.997 . S
O5 C21 1.235 . S
O6 Fe0 2.002 . S
O6 C7 1.295 . S
C7 O6 1.295 . S
C7 O9 1.235 . S
C8 O13 1.287 . S
C8 O14 1.255 . S
O9 Fe1 1.997 . S
O9 C7 1.235 . S
C10 O16 1.287 . S
C10 O17 1.255 . S
O11 Fe0 1.976 . S
O11 C18 1.287 . S
O12 Fe1 1.996 . S
O12 C18 1.255 . S
O13 Fe3 1.976 . S
O13 C8 1.287 . S
O14 Fe0 1.996 . S
O14 C8 1.255 . S
C15 O19 1.295 . S
C15 O20 1.235 . S
O16 Fe1 1.976 . S
O16 C10 1.287 . S
O17 Fe3 1.996 . S
O17 C10 1.255 . S
C18 O11 1.287 . S
C18 O12 1.255 . S
O19 Fe1 2.002 . S
O19 C15 1.295 . S
O20 Fe3 1.997 . S
O20 C15 1.235 . S
C21 O4 1.295 . S
C21 O5 1.235 . S
Fe22 O24 1.918 . S
Fe22 O27 1.997 . S
Fe22 O28 2.002 . S
Fe22 O33 1.976 . S
Fe22 O36 1.996 1_455 S
Fe23 O24 1.918 . S
Fe23 O31 1.997 . S
Fe23 O34 1.996 . S
Fe23 O38 1.976 . S
Fe23 O41 2.002 . S
O24 Fe22 1.918 . S
O24 Fe23 1.918 . S
O24 Fe25 1.918 . S
Fe25 O24 1.918 . S
Fe25 O26 2.002 . S
Fe25 O35 1.976 1_455 S
Fe25 O39 1.996 . S
Fe25 O42 1.997 . S
O26 Fe25 2.002 . S
O26 C43 1.295 . S
O27 Fe22 1.997 . S
O27 C43 1.235 . S
O28 Fe22 2.002 . S
O28 C29 1.295 . S
C29 O28 1.295 . S
C29 O31 1.235 . S
C30 O35 1.287 . S
C30 O36 1.255 . S
O31 Fe23 1.997 . S
O31 C29 1.235 . S
C32 O38 1.287 . S
C32 O39 1.255 . S
O33 Fe22 1.976 . S
O33 C40 1.287 . S
O34 Fe23 1.996 . S
O34 C40 1.255 . S
O35 Fe25 1.976 1_655 S
O35 C30 1.287 . S
O36 Fe22 1.996 1_655 S
O36 C30 1.255 . S
C37 O41 1.295 . S
C37 O42 1.235 . S
O38 Fe23 1.976 . S
O38 C32 1.287 . S
O39 Fe25 1.996 . S
O39 C32 1.255 . S
C40 O33 1.287 . S
C40 O34 1.255 . S
O41 Fe23 2.002 . S
O41 C37 1.295 . S
O42 Fe25 1.997 . S
O42 C37 1.235 . S
C43 O26 1.295 . S
C43 O27 1.235 . S
Fe44 O46 1.918 . S
Fe44 O49 1.997 . S
Fe44 O50 2.002 . S
Fe44 O55 1.976 . S
Fe44 O58 1.996 . S
Fe45 O46 1.918 . S
Fe45 O53 1.997 . S
Fe45 O56 1.996 . S
Fe45 O60 1.976 . S
Fe45 O63 2.002 . S
O46 Fe44 1.918 . S
O46 Fe45 1.918 . S
O46 Fe47 1.918 . S
Fe47 O46 1.918 . S
Fe47 O48 2.002 . S
Fe47 O57 1.976 . S
Fe47 O61 1.996 . S
Fe47 O64 1.997 . S
O48 Fe47 2.002 . S
O48 C65 1.295 . S
O49 Fe44 1.997 . S
O49 C65 1.235 . S
O50 Fe44 2.002 . S
O50 C51 1.295 . S
C51 O50 1.295 . S
C51 O53 1.235 . S
C52 O57 1.287 . S
C52 O58 1.255 . S
O53 Fe45 1.997 . S
O53 C51 1.235 . S
C54 O60 1.287 . S
C54 O61 1.255 . S
O55 Fe44 1.976 . S
O55 C62 1.287 . S
O56 Fe45 1.996 . S
O56 C62 1.255 . S
O57 Fe47 1.976 . S
O57 C52 1.287 . S
O58 Fe44 1.996 . S
O58 C52 1.255 . S
C59 O63 1.295 . S
C59 O64 1.235 . S
O60 Fe45 1.976 . S
O60 C54 1.287 . S
O61 Fe47 1.996 . S
O61 C54 1.255 . S
C62 O55 1.287 . S
C62 O56 1.255 . S
O63 Fe45 2.002 . S
O63 C59 1.295 . S
O64 Fe47 1.997 . S
O64 C59 1.235 . S
C65 O48 1.295 . S
C65 O49 1.235 . S
Fe66 O68 1.918 . S
Fe66 O71 1.997 . S
Fe66 O72 2.002 . S
Fe66 O77 1.976 . S
Fe66 O80 1.996 . S
Fe67 O68 1.918 . S
Fe67 O75 1.997 . S
Fe67 O78 1.996 . S
Fe67 O82 1.976 1_554 S
Fe67 O85 2.002 1_554 S
O68 Fe66 1.918 . S
O68 Fe67 1.918 . S
O68 Fe69 1.918 . S
Fe69 O68 1.918 . S
Fe69 O70 2.002 . S
Fe69 O79 1.976 . S
Fe69 O83 1.996 1_554 S
Fe69 O86 1.997 1_554 S
O70 Fe69 2.002 . S
O70 C87 1.295 . S
O71 Fe66 1.997 . S
O71 C87 1.235 . S
O72 Fe66 2.002 . S
O72 C73 1.295 . S
C73 O72 1.295 . S
C73 O75 1.235 . S
C74 O79 1.287 . S
C74 O80 1.255 . S
O75 Fe67 1.997 . S
O75 C73 1.235 . S
C76 O82 1.287 . S
C76 O83 1.255 . S
O77 Fe66 1.976 . S
O77 C84 1.287 . S
O78 Fe67 1.996 . S
O78 C84 1.255 . S
O79 Fe69 1.976 . S
O79 C74 1.287 . S
O80 Fe66 1.996 . S
O80 C74 1.255 . S
C81 O85 1.295 . S
C81 O86 1.235 . S
O82 Fe67 1.976 1_556 S
O82 C76 1.287 . S
O83 Fe69 1.996 1_556 S
O83 C76 1.255 . S
C84 O77 1.287 . S
C84 O78 1.255 . S
O85 Fe67 2.002 1_556 S
O85 C81 1.295 . S
O86 Fe69 1.997 1_556 S
O86 C81 1.235 . S
C87 O70 1.295 . S
C87 O71 1.235 . S
Fe88 O90 1.918 . S
Fe88 O93 1.997 . S
Fe88 O94 2.002 . S
Fe88 O99 1.976 . S
Fe88 O102 1.996 . S
Fe89 O90 1.918 . S
Fe89 O97 1.997 . S
Fe89 O100 1.996 . S
Fe89 O104 1.976 . S
Fe89 O107 2.002 . S
O90 Fe88 1.918 . S
O90 Fe89 1.918 . S
O90 Fe91 1.918 . S
Fe91 O90 1.918 . S
Fe91 O92 2.002 . S
Fe91 O101 1.976 . S
Fe91 O105 1.996 . S
Fe91 O108 1.997 . S
O92 Fe91 2.002 . S
O92 C109 1.295 . S
O93 Fe88 1.997 . S
O93 C109 1.235 . S
O94 Fe88 2.002 . S
O94 C95 1.295 . S
C95 O94 1.295 . S
C95 O97 1.235 . S
C96 O101 1.287 . S
C96 O102 1.255 . S
O97 Fe89 1.997 . S
O97 C95 1.235 . S
C98 O104 1.287 . S
C98 O105 1.255 . S
O99 Fe88 1.976 . S
O99 C106 1.287 . S
O100 Fe89 1.996 . S
O100 C106 1.255 . S
O101 Fe91 1.976 . S
O101 C96 1.287 . S
O102 Fe88 1.996 . S
O102 C96 1.255 . S
C103 O107 1.295 . S
C103 O108 1.235 . S
O104 Fe89 1.976 . S
O104 C98 1.287 . S
O105 Fe91 1.996 . S
O105 C98 1.255 . S
C106 O99 1.287 . S
C106 O100 1.255 . S
O107 Fe89 2.002 . S
O107 C103 1.295 . S
O108 Fe91 1.997 . S
O108 C103 1.235 . S
C109 O92 1.295 . S
C109 O93 1.235 . S
Fe110 O112 1.918 . S
Fe110 O115 1.997 . S
Fe110 O116 2.002 . S
Fe110 O121 1.976 . S
Fe110 O124 1.996 . S
Fe111 O112 1.918 . S
Fe111 O119 1.997 . S
Fe111 O122 1.996 . S
Fe111 O126 1.976 . S
Fe111 O129 2.002 . S
O112 Fe110 1.918 . S
O112 Fe111 1.918 . S
O112 Fe113 1.918 . S
Fe113 O112 1.918 . S
Fe113 O114 2.002 . S
Fe113 O123 1.976 . S
Fe113 O127 1.996 . S
Fe113 O130 1.997 . S
O114 Fe113 2.002 . S
O114 C131 1.295 . S
O115 Fe110 1.997 . S
O115 C131 1.235 . S
O116 Fe110 2.002 . S
O116 C117 1.295 . S
C117 O116 1.295 . S
C117 O119 1.235 . S
C118 O123 1.287 . S
C118 O124 1.255 . S
O119 Fe111 1.997 . S
O119 C117 1.235 . S
C120 O126 1.287 . S
C120 O127 1.255 . S
O121 Fe110 1.976 . S
O121 C128 1.287 . S
O122 Fe111 1.996 . S
O122 C128 1.255 . S
O123 Fe113 1.976 . S
O123 C118 1.287 . S
O124 Fe110 1.996 . S
O124 C118 1.255 . S
C125 O129 1.295 . S
C125 O130 1.235 . S
O126 Fe111 1.976 . S
O126 C120 1.287 . S
O127 Fe113 1.996 . S
O127 C120 1.255 . S
C128 O121 1.287 . S
C128 O122 1.255 . S
O129 Fe111 2.002 . S
O129 C125 1.295 . S
O130 Fe113 1.997 . S
O130 C125 1.235 . S
C131 O114 1.295 . S
C131 O115 1.235 . S
Fe132 O134 1.918 . S
Fe132 O137 1.997 . S
Fe132 O138 2.002 . S
Fe132 O143 1.976 . S
Fe132 O146 1.996 . S
Fe133 O134 1.918 . S
Fe133 O141 1.997 . S
Fe133 O144 1.996 . S
Fe133 O148 1.976 . S
Fe133 O151 2.002 . S
O134 Fe132 1.918 . S
O134 Fe133 1.918 . S
O134 Fe135 1.918 . S
Fe135 O134 1.918 . S
Fe135 O136 2.002 . S
Fe135 O145 1.976 . S
Fe135 O149 1.996 . S
Fe135 O152 1.997 . S
O136 Fe135 2.002 . S
O136 C153 1.295 . S
O137 Fe132 1.997 . S
O137 C153 1.235 . S
O138 Fe132 2.002 . S
O138 C139 1.295 . S
C139 O138 1.295 . S
C139 O141 1.235 . S
C140 O145 1.287 . S
C140 O146 1.255 . S
O141 Fe133 1.997 . S
O141 C139 1.235 . S
C142 O148 1.287 . S
C142 O149 1.255 . S
O143 Fe132 1.976 . S
O143 C150 1.287 . S
O144 Fe133 1.996 . S
O144 C150 1.255 . S
O145 Fe135 1.976 . S
O145 C140 1.287 . S
O146 Fe132 1.996 . S
O146 C140 1.255 . S
C147 O151 1.295 . S
C147 O152 1.235 . S
O148 Fe133 1.976 . S
O148 C142 1.287 . S
O149 Fe135 1.996 . S
O149 C142 1.255 . S
C150 O143 1.287 . S
C150 O144 1.255 . S
O151 Fe133 2.002 . S
O151 C147 1.295 . S
O152 Fe135 1.997 . S
O152 C147 1.235 . S
C153 O136 1.295 . S
C153 O137 1.235 . S
Fe154 O156 1.918 . S
Fe154 O159 1.997 . S
Fe154 O160 2.002 . S
Fe154 O165 1.976 . S
Fe154 O168 1.996 1_455 S
Fe155 O156 1.918 . S
Fe155 O163 1.997 . S
Fe155 O166 1.996 . S
Fe155 O170 1.976 1_556 S
Fe155 O173 2.002 1_556 S
O156 Fe154 1.918 . S
O156 Fe155 1.918 . S
O156 Fe157 1.918 . S
Fe157 O156 1.918 . S
Fe157 O158 2.002 . S
Fe157 O167 1.976 1_455 S
Fe157 O171 1.996 1_556 S
Fe157 O174 1.997 1_556 S
O158 Fe157 2.002 . S
O158 C175 1.295 . S
O159 Fe154 1.997 . S
O159 C175 1.235 . S
O160 Fe154 2.002 . S
O160 C161 1.295 . S
C161 O160 1.295 . S
C161 O163 1.235 . S
C162 O167 1.287 . S
C162 O168 1.255 . S
O163 Fe155 1.997 . S
O163 C161 1.235 . S
C164 O170 1.287 . S
C164 O171 1.255 . S
O165 Fe154 1.976 . S
O165 C172 1.287 . S
O166 Fe155 1.996 . S
O166 C172 1.255 . S
O167 Fe157 1.976 1_655 S
O167 C162 1.287 . S
O168 Fe154 1.996 1_655 S
O168 C162 1.255 . S
C169 O173 1.295 . S
C169 O174 1.235 . S
O170 Fe155 1.976 1_554 S
O170 C164 1.287 . S
O171 Fe157 1.996 1_554 S
O171 C164 1.255 . S
C172 O165 1.287 . S
C172 O166 1.255 . S
O173 Fe155 2.002 1_554 S
O173 C169 1.295 . S
O174 Fe157 1.997 1_554 S
O174 C169 1.235 . S
C175 O158 1.295 . S
C175 O159 1.235 . S
Fe176 O178 1.918 . S
Fe176 O181 1.997 . S
Fe176 O182 2.002 . S
Fe176 O187 1.976 . S
Fe176 O190 1.996 . S
Fe177 O178 1.918 . S
Fe177 O185 1.997 . S
Fe177 O188 1.996 . S
Fe177 O192 1.976 . S
Fe177 O195 2.002 . S
O178 Fe176 1.918 . S
O178 Fe177 1.918 . S
O178 Fe179 1.918 . S
Fe179 O178 1.918 . S
Fe179 O180 2.002 . S
Fe179 O189 1.976 . S
Fe179 O193 1.996 . S
Fe179 O196 1.997 . S
O180 Fe179 2.002 . S
O180 C197 1.295 . S
O181 Fe176 1.997 . S
O181 C197 1.235 . S
O182 Fe176 2.002 . S
O182 C183 1.295 . S
C183 O182 1.295 . S
C183 O185 1.235 . S
C184 O189 1.287 . S
C184 O190 1.255 . S
O185 Fe177 1.997 . S
O185 C183 1.235 . S
C186 O192 1.287 . S
C186 O193 1.255 . S
O187 Fe176 1.976 . S
O187 C194 1.287 . S
O188 Fe177 1.996 . S
O188 C194 1.255 . S
O189 Fe179 1.976 . S
O189 C184 1.287 . S
O190 Fe176 1.996 . S
O190 C184 1.255 . S
C191 O195 1.295 . S
C191 O196 1.235 . S
O192 Fe177 1.976 . S
O192 C186 1.287 . S
O193 Fe179 1.996 . S
O193 C186 1.255 . S
C194 O187 1.287 . S
C194 O188 1.255 . S
O195 Fe177 2.002 . S
O195 C191 1.295 . S
O196 Fe179 1.997 . S
O196 C191 1.235 . S
C197 O180 1.295 . S
C197 O181 1.235 . S
Fe198 O200 1.918 . S
Fe198 O203 1.997 . S
Fe198 O204 2.002 . S
Fe198 O209 1.976 . S
Fe198 O212 1.996 . S
Fe199 O200 1.918 . S
Fe199 O207 1.997 . S
Fe199 O210 1.996 . S
Fe199 O214 1.976 1_545 S
Fe199 O217 2.002 1_545 S
O200 Fe198 1.918 . S
O200 Fe199 1.918 . S
O200 Fe201 1.918 . S
Fe201 O200 1.918 . S
Fe201 O202 2.002 . S
Fe201 O211 1.976 . S
Fe201 O215 1.996 1_545 S
Fe201 O218 1.997 1_545 S
O202 Fe201 2.002 . S
O202 C219 1.295 . S
O203 Fe198 1.997 . S
O203 C219 1.235 . S
O204 Fe198 2.002 . S
O204 C205 1.295 . S
C205 O204 1.295 . S
C205 O207 1.235 . S
C206 O211 1.287 . S
C206 O212 1.255 . S
O207 Fe199 1.997 . S
O207 C205 1.235 . S
C208 O214 1.287 . S
C208 O215 1.255 . S
O209 Fe198 1.976 . S
O209 C216 1.287 . S
O210 Fe199 1.996 . S
O210 C216 1.255 . S
O211 Fe201 1.976 . S
O211 C206 1.287 . S
O212 Fe198 1.996 . S
O212 C206 1.255 . S
C213 O217 1.295 . S
C213 O218 1.235 . S
O214 Fe199 1.976 1_565 S
O214 C208 1.287 . S
O215 Fe201 1.996 1_565 S
O215 C208 1.255 . S
C216 O209 1.287 . S
C216 O210 1.255 . S
O217 Fe199 2.002 1_565 S
O217 C213 1.295 . S
O218 Fe201 1.997 1_565 S
O218 C213 1.235 . S
C219 O202 1.295 . S
C219 O203 1.235 . S
Fe220 O222 1.918 . S
Fe220 O225 1.997 . S
Fe220 O226 2.002 . S
Fe220 O231 1.976 . S
Fe220 O234 1.996 . S
Fe221 O222 1.918 . S
Fe221 O229 1.997 . S
Fe221 O232 1.996 . S
Fe221 O236 1.976 . S
Fe221 O239 2.002 . S
O222 Fe220 1.918 . S
O222 Fe221 1.918 . S
O222 Fe223 1.918 . S
Fe223 O222 1.918 . S
Fe223 O224 2.002 . S
Fe223 O233 1.976 . S
Fe223 O237 1.996 . S
Fe223 O240 1.997 . S
O224 Fe223 2.002 . S
O224 C241 1.295 . S
O225 Fe220 1.997 . S
O225 C241 1.235 . S
O226 Fe220 2.002 . S
O226 C227 1.295 . S
C227 O226 1.295 . S
C227 O229 1.235 . S
C228 O233 1.287 . S
C228 O234 1.255 . S
O229 Fe221 1.997 . S
O229 C227 1.235 . S
C230 O236 1.287 . S
C230 O237 1.255 . S
O231 Fe220 1.976 . S
O231 C238 1.287 . S
O232 Fe221 1.996 . S
O232 C238 1.255 . S
O233 Fe223 1.976 . S
O233 C228 1.287 . S
O234 Fe220 1.996 . S
O234 C228 1.255 . S
C235 O239 1.295 . S
C235 O240 1.235 . S
O236 Fe221 1.976 . S
O236 C230 1.287 . S
O237 Fe223 1.996 . S
O237 C230 1.255 . S
C238 O231 1.287 . S
C238 O232 1.255 . S
O239 Fe221 2.002 . S
O239 C235 1.295 . S
O240 Fe223 1.997 . S
O240 C235 1.235 . S
C241 O224 1.295 . S
C241 O225 1.235 . S
Fe242 O244 1.918 . S
Fe242 O247 1.997 . S
Fe242 O248 2.002 . S
Fe242 O253 1.976 . S
Fe242 O256 1.996 1_556 S
Fe243 O244 1.918 . S
Fe243 O251 1.997 . S
Fe243 O254 1.996 . S
Fe243 O258 1.976 1_565 S
Fe243 O261 2.002 1_565 S
O244 Fe242 1.918 . S
O244 Fe243 1.918 . S
O244 Fe245 1.918 . S
Fe245 O244 1.918 . S
Fe245 O246 2.002 . S
Fe245 O255 1.976 1_556 S
Fe245 O259 1.996 1_565 S
Fe245 O262 1.997 1_565 S
O246 Fe245 2.002 . S
O246 C263 1.295 . S
O247 Fe242 1.997 . S
O247 C263 1.235 . S
O248 Fe242 2.002 . S
O248 C249 1.295 . S
C249 O248 1.295 . S
C249 O251 1.235 . S
C250 O255 1.287 . S
C250 O256 1.255 . S
O251 Fe243 1.997 . S
O251 C249 1.235 . S
C252 O258 1.287 . S
C252 O259 1.255 . S
O253 Fe242 1.976 . S
O253 C260 1.287 . S
O254 Fe243 1.996 . S
O254 C260 1.255 . S
O255 Fe245 1.976 1_554 S
O255 C250 1.287 . S
O256 Fe242 1.996 1_554 S
O256 C250 1.255 . S
C257 O261 1.295 . S
C257 O262 1.235 . S
O258 Fe243 1.976 1_545 S
O258 C252 1.287 . S
O259 Fe245 1.996 1_545 S
O259 C252 1.255 . S
C260 O253 1.287 . S
C260 O254 1.255 . S
O261 Fe243 2.002 1_545 S
O261 C257 1.295 . S
O262 Fe245 1.997 1_545 S
O262 C257 1.235 . S
C263 O246 1.295 . S
C263 O247 1.235 . S
Fe264 O266 1.918 . S
Fe264 O269 1.997 . S
Fe264 O270 2.002 . S
Fe264 O275 1.976 . S
Fe264 O278 1.996 . S
Fe265 O266 1.918 . S
Fe265 O273 1.997 . S
Fe265 O276 1.996 . S
Fe265 O280 1.976 . S
Fe265 O283 2.002 . S
O266 Fe264 1.918 . S
O266 Fe265 1.918 . S
O266 Fe267 1.918 . S
Fe267 O266 1.918 . S
Fe267 O268 2.002 . S
Fe267 O277 1.976 . S
Fe267 O281 1.996 . S
Fe267 O284 1.997 . S
O268 Fe267 2.002 . S
O268 C285 1.295 . S
O269 Fe264 1.997 . S
O269 C285 1.235 . S
O270 Fe264 2.002 . S
O270 C271 1.295 . S
C271 O270 1.295 . S
C271 O273 1.235 . S
C272 O277 1.287 . S
C272 O278 1.255 . S
O273 Fe265 1.997 . S
O273 C271 1.235 . S
C274 O280 1.287 . S
C274 O281 1.255 . S
O275 Fe264 1.976 . S
O275 C282 1.287 . S
O276 Fe265 1.996 . S
O276 C282 1.255 . S
O277 Fe267 1.976 . S
O277 C272 1.287 . S
O278 Fe264 1.996 . S
O278 C272 1.255 . S
C279 O283 1.295 . S
C279 O284 1.235 . S
O280 Fe265 1.976 . S
O280 C274 1.287 . S
O281 Fe267 1.996 . S
O281 C274 1.255 . S
C282 O275 1.287 . S
C282 O276 1.255 . S
O283 Fe265 2.002 . S
O283 C279 1.295 . S
O284 Fe267 1.997 . S
O284 C279 1.235 . S
C285 O268 1.295 . S
C285 O269 1.235 . S
Fe286 O288 1.918 . S
Fe286 O291 1.997 . S
Fe286 O292 2.002 1_545 S
Fe286 O297 1.976 1_545 S
Fe286 O300 1.996 . S
Fe287 O288 1.918 . S
Fe287 O295 1.997 1_545 S
Fe287 O298 1.996 1_545 S
Fe287 O302 1.976 . S
Fe287 O305 2.002 . S
O288 Fe286 1.918 . S
O288 Fe287 1.918 . S
O288 Fe289 1.918 . S
Fe289 O288 1.918 . S
Fe289 O290 2.002 . S
Fe289 O299 1.976 . S
Fe289 O303 1.996 . S
Fe289 O306 1.997 . S
O290 Fe289 2.002 . S
O290 C307 1.295 . S
O291 Fe286 1.997 . S
O291 C307 1.235 . S
O292 Fe286 2.002 1_565 S
O292 C293 1.295 . S
C293 O292 1.295 . S
C293 O295 1.235 . S
C294 O299 1.287 . S
C294 O300 1.255 . S
O295 Fe287 1.997 1_565 S
O295 C293 1.235 . S
C296 O302 1.287 . S
C296 O303 1.255 . S
O297 Fe286 1.976 1_565 S
O297 C304 1.287 . S
O298 Fe287 1.996 1_565 S
O298 C304 1.255 . S
O299 Fe289 1.976 . S
O299 C294 1.287 . S
O300 Fe286 1.996 . S
O300 C294 1.255 . S
C301 O305 1.295 . S
C301 O306 1.235 . S
O302 Fe287 1.976 . S
O302 C296 1.287 . S
O303 Fe289 1.996 . S
O303 C296 1.255 . S
C304 O297 1.287 . S
C304 O298 1.255 . S
O305 Fe287 2.002 . S
O305 C301 1.295 . S
O306 Fe289 1.997 . S
O306 C301 1.235 . S
C307 O290 1.295 . S
C307 O291 1.235 . S
Fe308 O310 1.918 . S
Fe308 O313 1.997 . S
Fe308 O314 2.002 . S
Fe308 O319 1.976 . S
Fe308 O322 1.996 . S
Fe309 O310 1.918 . S
Fe309 O317 1.997 . S
Fe309 O320 1.996 . S
Fe309 O324 1.976 . S
Fe309 O327 2.002 . S
O310 Fe308 1.918 . S
O310 Fe309 1.918 . S
O310 Fe311 1.918 . S
Fe311 O310 1.918 . S
Fe311 O312 2.002 . S
Fe311 O321 1.976 . S
Fe311 O325 1.996 . S
Fe311 O328 1.997 . S
O312 Fe311 2.002 . S
O312 C329 1.295 . S
O313 Fe308 1.997 . S
O313 C329 1.235 . S
O314 Fe308 2.002 . S
O314 C315 1.295 . S
C315 O314 1.295 . S
C315 O317 1.235 . S
C316 O321 1.287 . S
C316 O322 1.255 . S
O317 Fe309 1.997 . S
O317 C315 1.235 . S
C318 O324 1.287 . S
C318 O325 1.255 . S
O319 Fe308 1.976 . S
O319 C326 1.287 . S
O320 Fe309 1.996 . S
O320 C326 1.255 . S
O321 Fe311 1.976 . S
O321 C316 1.287 . S
O322 Fe308 1.996 . S
O322 C316 1.255 . S
C323 O327 1.295 . S
C323 O328 1.235 . S
O324 Fe309 1.976 . S
O324 C318 1.287 . S
O325 Fe311 1.996 . S
O325 C318 1.255 . S
C326 O319 1.287 . S
C326 O320 1.255 . S
O327 Fe309 2.002 . S
O327 C323 1.295 . S
O328 Fe311 1.997 . S
O328 C323 1.235 . S
C329 O312 1.295 . S
C329 O313 1.235 . S
Fe330 O332 1.918 . S
Fe330 O335 1.997 . S
Fe330 O336 2.002 1_565 S
Fe330 O341 1.976 1_565 S
Fe330 O344 1.996 . S
Fe331 O332 1.918 . S
Fe331 O339 1.997 1_565 S
Fe331 O342 1.996 1_565 S
Fe331 O346 1.976 1_554 S
Fe331 O349 2.002 . S
O332 Fe330 1.918 . S
O332 Fe331 1.918 . S
O332 Fe333 1.918 . S
Fe333 O332 1.918 . S
Fe333 O334 2.002 . S
Fe333 O343 1.976 . S
Fe333 O347 1.996 1_554 S
Fe333 O350 1.997 . S
O334 Fe333 2.002 . S
O334 C351 1.295 . S
O335 Fe330 1.997 . S
O335 C351 1.235 . S
O336 Fe330 2.002 1_545 S
O336 C337 1.295 . S
C337 O336 1.295 . S
C337 O339 1.235 . S
C338 O343 1.287 . S
C338 O344 1.255 . S
O339 Fe331 1.997 1_545 S
O339 C337 1.235 . S
C340 O346 1.287 . S
C340 O347 1.255 . S
O341 Fe330 1.976 1_545 S
O341 C348 1.287 . S
O342 Fe331 1.996 1_545 S
O342 C348 1.255 . S
O343 Fe333 1.976 . S
O343 C338 1.287 . S
O344 Fe330 1.996 . S
O344 C338 1.255 . S
C345 O349 1.295 . S
C345 O350 1.235 . S
O346 Fe331 1.976 1_556 S
O346 C340 1.287 . S
O347 Fe333 1.996 1_556 S
O347 C340 1.255 . S
C348 O341 1.287 . S
C348 O342 1.255 . S
O349 Fe331 2.002 . S
O349 C345 1.295 . S
O350 Fe333 1.997 . S
O350 C345 1.235 . S
C351 O334 1.295 . S
C351 O335 1.235 . S
Fe352 O354 1.918 . S
Fe352 O357 1.997 . S
Fe352 O358 2.002 . S
Fe352 O363 1.976 . S
Fe352 O366 1.996 . S
Fe353 O354 1.918 . S
Fe353 O361 1.997 . S
Fe353 O364 1.996 . S
Fe353 O368 1.976 . S
Fe353 O371 2.002 . S
O354 Fe352 1.918 . S
O354 Fe353 1.918 . S
O354 Fe355 1.918 . S
Fe355 O354 1.918 . S
Fe355 O356 2.002 . S
Fe355 O365 1.976 . S
Fe355 O369 1.996 . S
Fe355 O372 1.997 . S
O356 Fe355 2.002 . S
O356 C373 1.295 . S
O357 Fe352 1.997 . S
O357 C373 1.235 . S
O358 Fe352 2.002 . S
O358 C359 1.295 . S
C359 O358 1.295 . S
C359 O361 1.235 . S
C360 O365 1.287 . S
C360 O366 1.255 . S
O361 Fe353 1.997 . S
O361 C359 1.235 . S
C362 O368 1.287 . S
C362 O369 1.255 . S
O363 Fe352 1.976 . S
O363 C370 1.287 . S
O364 Fe353 1.996 . S
O364 C370 1.255 . S
O365 Fe355 1.976 . S
O365 C360 1.287 . S
O366 Fe352 1.996 . S
O366 C360 1.255 . S
C367 O371 1.295 . S
C367 O372 1.235 . S
O368 Fe353 1.976 . S
O368 C362 1.287 . S
O369 Fe355 1.996 . S
O369 C362 1.255 . S
C370 O363 1.287 . S
C370 O364 1.255 . S
O371 Fe353 2.002 . S
O371 C367 1.295 . S
O372 Fe355 1.997 . S
O372 C367 1.235 . S
C373 O356 1.295 . S
C373 O357 1.235 . S
Fe374 O376 1.918 . S
Fe374 O379 1.997 . S
Fe374 O380 2.002 . S
Fe374 O385 1.976 . S
Fe374 O388 1.996 . S
Fe375 O376 1.918 . S
Fe375 O383 1.997 . S
Fe375 O386 1.996 . S
Fe375 O390 1.976 . S
Fe375 O393 2.002 . S
O376 Fe374 1.918 . S
O376 Fe375 1.918 . S
O376 Fe377 1.918 . S
Fe377 O376 1.918 . S
Fe377 O378 2.002 . S
Fe377 O387 1.976 . S
Fe377 O391 1.996 . S
Fe377 O394 1.997 . S
O378 Fe377 2.002 . S
O378 C395 1.295 . S
O379 Fe374 1.997 . S
O379 C395 1.235 . S
O380 Fe374 2.002 . S
O380 C381 1.295 . S
C381 O380 1.295 . S
C381 O383 1.235 . S
C382 O387 1.287 . S
C382 O388 1.255 . S
O383 Fe375 1.997 . S
O383 C381 1.235 . S
C384 O390 1.287 . S
C384 O391 1.255 . S
O385 Fe374 1.976 . S
O385 C392 1.287 . S
O386 Fe375 1.996 . S
O386 C392 1.255 . S
O387 Fe377 1.976 . S
O387 C382 1.287 . S
O388 Fe374 1.996 . S
O388 C382 1.255 . S
C389 O393 1.295 . S
C389 O394 1.235 . S
O390 Fe375 1.976 . S
O390 C384 1.287 . S
O391 Fe377 1.996 . S
O391 C384 1.255 . S
C392 O385 1.287 . S
C392 O386 1.255 . S
O393 Fe375 2.002 . S
O393 C389 1.295 . S
O394 Fe377 1.997 . S
O394 C389 1.235 . S
C395 O378 1.295 . S
C395 O379 1.235 . S
Fe396 O398 1.918 . S
Fe396 O401 1.997 . S
Fe396 O402 2.002 1_455 S
Fe396 O407 1.976 1_455 S
Fe396 O410 1.996 . S
Fe397 O398 1.918 . S
Fe397 O405 1.997 1_455 S
Fe397 O408 1.996 1_455 S
Fe397 O412 1.976 . S
Fe397 O415 2.002 . S
O398 Fe396 1.918 . S
O398 Fe397 1.918 . S
O398 Fe399 1.918 . S
Fe399 O398 1.918 . S
Fe399 O400 2.002 . S
Fe399 O409 1.976 . S
Fe399 O413 1.996 . S
Fe399 O416 1.997 . S
O400 Fe399 2.002 . S
O400 C417 1.295 . S
O401 Fe396 1.997 . S
O401 C417 1.235 . S
O402 Fe396 2.002 1_655 S
O402 C403 1.295 . S
C403 O402 1.295 . S
C403 O405 1.235 . S
C404 O409 1.287 . S
C404 O410 1.255 . S
O405 Fe397 1.997 1_655 S
O405 C403 1.235 . S
C406 O412 1.287 . S
C406 O413 1.255 . S
O407 Fe396 1.976 1_655 S
O407 C414 1.287 . S
O408 Fe397 1.996 1_655 S
O408 C414 1.255 . S
O409 Fe399 1.976 . S
O409 C404 1.287 . S
O410 Fe396 1.996 . S
O410 C404 1.255 . S
C411 O415 1.295 . S
C411 O416 1.235 . S
O412 Fe397 1.976 . S
O412 C406 1.287 . S
O413 Fe399 1.996 . S
O413 C406 1.255 . S
C414 O407 1.287 . S
C414 O408 1.255 . S
O415 Fe397 2.002 . S
O415 C411 1.295 . S
O416 Fe399 1.997 . S
O416 C411 1.235 . S
C417 O400 1.295 . S
C417 O401 1.235 . S
Fe418 O420 1.918 . S
Fe418 O423 1.997 . S
Fe418 O424 2.002 . S
Fe418 O429 1.976 . S
Fe418 O432 1.996 . S
Fe419 O420 1.918 . S
Fe419 O427 1.997 . S
Fe419 O430 1.996 . S
Fe419 O434 1.976 . S
Fe419 O437 2.002 . S
O420 Fe418 1.918 . S
O420 Fe419 1.918 . S
O420 Fe421 1.918 . S
Fe421 O420 1.918 . S
Fe421 O422 2.002 . S
Fe421 O431 1.976 . S
Fe421 O435 1.996 . S
Fe421 O438 1.997 . S
O422 Fe421 2.002 . S
O422 C439 1.295 . S
O423 Fe418 1.997 . S
O423 C439 1.235 . S
O424 Fe418 2.002 . S
O424 C425 1.295 . S
C425 O424 1.295 . S
C425 O427 1.235 . S
C426 O431 1.287 . S
C426 O432 1.255 . S
O427 Fe419 1.997 . S
O427 C425 1.235 . S
C428 O434 1.287 . S
C428 O435 1.255 . S
O429 Fe418 1.976 . S
O429 C436 1.287 . S
O430 Fe419 1.996 . S
O430 C436 1.255 . S
O431 Fe421 1.976 . S
O431 C426 1.287 . S
O432 Fe418 1.996 . S
O432 C426 1.255 . S
C433 O437 1.295 . S
C433 O438 1.235 . S
O434 Fe419 1.976 . S
O434 C428 1.287 . S
O435 Fe421 1.996 . S
O435 C428 1.255 . S
C436 O429 1.287 . S
C436 O430 1.255 . S
O437 Fe419 2.002 . S
O437 C433 1.295 . S
O438 Fe421 1.997 . S
O438 C433 1.235 . S
C439 O422 1.295 . S
C439 O423 1.235 . S
Fe440 O442 1.918 . S
Fe440 O445 1.997 1_655 S
Fe440 O446 2.002 . S
Fe440 O451 1.976 1_545 S
Fe440 O454 1.996 1_655 S
Fe441 O442 1.918 . S
Fe441 O449 1.997 . S
Fe441 O452 1.996 1_545 S
Fe441 O456 1.976 . S
Fe441 O459 2.002 . S
O442 Fe440 1.918 . S
O442 Fe441 1.918 . S
O442 Fe443 1.918 . S
Fe443 O442 1.918 . S
Fe443 O444 2.002 1_655 S
Fe443 O453 1.976 1_655 S
Fe443 O457 1.996 . S
Fe443 O460 1.997 . S
O444 Fe443 2.002 1_455 S
O444 C461 1.295 . S
O445 Fe440 1.997 1_455 S
O445 C461 1.235 . S
O446 Fe440 2.002 . S
O446 C447 1.295 . S
C447 O446 1.295 . S
C447 O449 1.235 . S
C448 O453 1.287 . S
C448 O454 1.255 . S
O449 Fe441 1.997 . S
O449 C447 1.235 . S
C450 O456 1.287 . S
C450 O457 1.255 . S
O451 Fe440 1.976 1_565 S
O451 C458 1.287 . S
O452 Fe441 1.996 1_565 S
O452 C458 1.255 . S
O453 Fe443 1.976 1_455 S
O453 C448 1.287 . S
O454 Fe440 1.996 1_455 S
O454 C448 1.255 . S
C455 O459 1.295 . S
C455 O460 1.235 . S
O456 Fe441 1.976 . S
O456 C450 1.287 . S
O457 Fe443 1.996 . S
O457 C450 1.255 . S
C458 O451 1.287 . S
C458 O452 1.255 . S
O459 Fe441 2.002 . S
O459 C455 1.295 . S
O460 Fe443 1.997 . S
O460 C455 1.235 . S
C461 O444 1.295 . S
C461 O445 1.235 . S
Fe462 O464 1.918 . S
Fe462 O467 1.997 . S
Fe462 O468 2.002 . S
Fe462 O473 1.976 . S
Fe462 O476 1.996 . S
Fe463 O464 1.918 . S
Fe463 O471 1.997 . S
Fe463 O474 1.996 . S
Fe463 O478 1.976 . S
Fe463 O481 2.002 . S
O464 Fe462 1.918 . S
O464 Fe463 1.918 . S
O464 Fe465 1.918 . S
Fe465 O464 1.918 . S
Fe465 O466 2.002 . S
Fe465 O475 1.976 . S
Fe465 O479 1.996 . S
Fe465 O482 1.997 . S
O466 Fe465 2.002 . S
O466 C483 1.295 . S
O467 Fe462 1.997 . S
O467 C483 1.235 . S
O468 Fe462 2.002 . S
O468 C469 1.295 . S
C469 O468 1.295 . S
C469 O471 1.235 . S
C470 O475 1.287 . S
C470 O476 1.255 . S
O471 Fe463 1.997 . S
O471 C469 1.235 . S
C472 O478 1.287 . S
C472 O479 1.255 . S
O473 Fe462 1.976 . S
O473 C480 1.287 . S
O474 Fe463 1.996 . S
O474 C480 1.255 . S
O475 Fe465 1.976 . S
O475 C470 1.287 . S
O476 Fe462 1.996 . S
O476 C470 1.255 . S
C477 O481 1.295 . S
C477 O482 1.235 . S
O478 Fe463 1.976 . S
O478 C472 1.287 . S
O479 Fe465 1.996 . S
O479 C472 1.255 . S
C480 O473 1.287 . S
C480 O474 1.255 . S
O481 Fe463 2.002 . S
O481 C477 1.295 . S
O482 Fe465 1.997 . S
O482 C477 1.235 . S
C483 O466 1.295 . S
C483 O467 1.235 . S
Fe484 O486 1.918 . S
Fe484 O489 1.997 . S
Fe484 O490 2.002 1_455 S
Fe484 O495 1.976 1_455 S
Fe484 O498 1.996 . S
Fe485 O486 1.918 . S
Fe485 O493 1.997 1_455 S
Fe485 O496 1.996 1_455 S
Fe485 O500 1.976 . S
Fe485 O503 2.002 . S
O486 Fe484 1.918 . S
O486 Fe485 1.918 . S
O486 Fe487 1.918 . S
Fe487 O486 1.918 . S
Fe487 O488 2.002 . S
Fe487 O497 1.976 . S
Fe487 O501 1.996 . S
Fe487 O504 1.997 . S
O488 Fe487 2.002 . S
O488 C505 1.295 . S
O489 Fe484 1.997 . S
O489 C505 1.235 . S
O490 Fe484 2.002 1_655 S
O490 C491 1.295 . S
C491 O490 1.295 . S
C491 O493 1.235 . S
C492 O497 1.287 . S
C492 O498 1.255 . S
O493 Fe485 1.997 1_655 S
O493 C491 1.235 . S
C494 O500 1.287 . S
C494 O501 1.255 . S
O495 Fe484 1.976 1_655 S
O495 C502 1.287 . S
O496 Fe485 1.996 1_655 S
O496 C502 1.255 . S
O497 Fe487 1.976 . S
O497 C492 1.287 . S
O498 Fe484 1.996 . S
O498 C492 1.255 . S
C499 O503 1.295 . S
C499 O504 1.235 . S
O500 Fe485 1.976 . S
O500 C494 1.287 . S
O501 Fe487 1.996 . S
O501 C494 1.255 . S
C502 O495 1.287 . S
C502 O496 1.255 . S
O503 Fe485 2.002 . S
O503 C499 1.295 . S
O504 Fe487 1.997 . S
O504 C499 1.235 . S
C505 O488 1.295 . S
C505 O489 1.235 . S
Fe506 O508 1.918 . S
Fe506 O511 1.997 . S
Fe506 O512 2.002 . S
Fe506 O517 1.976 . S
Fe506 O520 1.996 . S
Fe507 O508 1.918 . S
Fe507 O515 1.997 . S
Fe507 O518 1.996 . S
Fe507 O522 1.976 . S
Fe507 O525 2.002 . S
O508 Fe506 1.918 . S
O508 Fe507 1.918 . S
O508 Fe509 1.918 . S
Fe509 O508 1.918 . S
Fe509 O510 2.002 . S
Fe509 O519 1.976 . S
Fe509 O523 1.996 . S
Fe509 O526 1.997 . S
O510 Fe509 2.002 . S
O510 C527 1.295 . S
O511 Fe506 1.997 . S
O511 C527 1.235 . S
O512 Fe506 2.002 . S
O512 C513 1.295 . S
C513 O512 1.295 . S
C513 O515 1.235 . S
C514 O519 1.287 . S
C514 O520 1.255 . S
O515 Fe507 1.997 . S
O515 C513 1.235 . S
C516 O522 1.287 . S
C516 O523 1.255 . S
O517 Fe506 1.976 . S
O517 C524 1.287 . S
O518 Fe507 1.996 . S
O518 C524 1.255 . S
O519 Fe509 1.976 . S
O519 C514 1.287 . S
O520 Fe506 1.996 . S
O520 C514 1.255 . S
C521 O525 1.295 . S
C521 O526 1.235 . S
O522 Fe507 1.976 . S
O522 C516 1.287 . S
O523 Fe509 1.996 . S
O523 C516 1.255 . S
C524 O517 1.287 . S
C524 O518 1.255 . S
O525 Fe507 2.002 . S
O525 C521 1.295 . S
O526 Fe509 1.997 . S
O526 C521 1.235 . S
C527 O510 1.295 . S
C527 O511 1.235 . S
Fe528 O530 1.918 . S
Fe528 O533 1.997 . S
Fe528 O534 2.002 . S
Fe528 O539 1.976 . S
Fe528 O542 1.996 . S
Fe529 O530 1.918 . S
Fe529 O537 1.997 . S
Fe529 O540 1.996 . S
Fe529 O544 1.976 . S
Fe529 O547 2.002 . S
O530 Fe528 1.918 . S
O530 Fe529 1.918 . S
O530 Fe531 1.918 . S
Fe531 O530 1.918 . S
Fe531 O532 2.002 . S
Fe531 O541 1.976 . S
Fe531 O545 1.996 . S
Fe531 O548 1.997 . S
O532 Fe531 2.002 . S
O532 C549 1.295 . S
O533 Fe528 1.997 . S
O533 C549 1.235 . S
O534 Fe528 2.002 . S
O534 C535 1.295 . S
C535 O534 1.295 . S
C535 O537 1.235 . S
C536 O541 1.287 . S
C536 O542 1.255 . S
O537 Fe529 1.997 . S
O537 C535 1.235 . S
C538 O544 1.287 . S
C538 O545 1.255 . S
O539 Fe528 1.976 . S
O539 C546 1.287 . S
O540 Fe529 1.996 . S
O540 C546 1.255 . S
O541 Fe531 1.976 . S
O541 C536 1.287 . S
O542 Fe528 1.996 . S
O542 C536 1.255 . S
C543 O547 1.295 . S
C543 O548 1.235 . S
O544 Fe529 1.976 . S
O544 C538 1.287 . S
O545 Fe531 1.996 . S
O545 C538 1.255 . S
C546 O539 1.287 . S
C546 O540 1.255 . S
O547 Fe529 2.002 . S
O547 C543 1.295 . S
O548 Fe531 1.997 . S
O548 C543 1.235 . S
C549 O532 1.295 . S
C549 O533 1.235 . S
Fe550 O552 1.918 . S
Fe550 O555 1.997 . S
Fe550 O556 2.002 . S
Fe550 O561 1.976 1_655 S
Fe550 O564 1.996 . S
Fe551 O552 1.918 . S
Fe551 O559 1.997 . S
Fe551 O562 1.996 1_655 S
Fe551 O566 1.976 . S
Fe551 O569 2.002 . S
O552 Fe550 1.918 . S
O552 Fe551 1.918 . S
O552 Fe553 1.918 . S
Fe553 O552 1.918 . S
Fe553 O554 2.002 . S
Fe553 O563 1.976 . S
Fe553 O567 1.996 . S
Fe553 O570 1.997 . S
O554 Fe553 2.002 . S
O554 C571 1.295 . S
O555 Fe550 1.997 . S
O555 C571 1.235 . S
O556 Fe550 2.002 . S
O556 C557 1.295 . S
C557 O556 1.295 . S
C557 O559 1.235 . S
C558 O563 1.287 . S
C558 O564 1.255 . S
O559 Fe551 1.997 . S
O559 C557 1.235 . S
C560 O566 1.287 . S
C560 O567 1.255 . S
O561 Fe550 1.976 1_455 S
O561 C568 1.287 . S
O562 Fe551 1.996 1_455 S
O562 C568 1.255 . S
O563 Fe553 1.976 . S
O563 C558 1.287 . S
O564 Fe550 1.996 . S
O564 C558 1.255 . S
C565 O569 1.295 . S
C565 O570 1.235 . S
O566 Fe551 1.976 . S
O566 C560 1.287 . S
O567 Fe553 1.996 . S
O567 C560 1.255 . S
C568 O561 1.287 . S
C568 O562 1.255 . S
O569 Fe551 2.002 . S
O569 C565 1.295 . S
O570 Fe553 1.997 . S
O570 C565 1.235 . S
C571 O554 1.295 . S
C571 O555 1.235 . S
Fe572 O574 1.918 . S
Fe572 O577 1.997 . S
Fe572 O578 2.002 . S
Fe572 O583 1.976 . S
Fe572 O586 1.996 . S
Fe573 O574 1.918 . S
Fe573 O581 1.997 . S
Fe573 O584 1.996 . S
Fe573 O588 1.976 . S
Fe573 O591 2.002 . S
O574 Fe572 1.918 . S
O574 Fe573 1.918 . S
O574 Fe575 1.918 . S
Fe575 O574 1.918 . S
Fe575 O576 2.002 . S
Fe575 O585 1.976 . S
Fe575 O589 1.996 . S
Fe575 O592 1.997 . S
O576 Fe575 2.002 . S
O576 C593 1.295 . S
O577 Fe572 1.997 . S
O577 C593 1.235 . S
O578 Fe572 2.002 . S
O578 C579 1.295 . S
C579 O578 1.295 . S
C579 O581 1.235 . S
C580 O585 1.287 . S
C580 O586 1.255 . S
O581 Fe573 1.997 . S
O581 C579 1.235 . S
C582 O588 1.287 . S
C582 O589 1.255 . S
O583 Fe572 1.976 . S
O583 C590 1.287 . S
O584 Fe573 1.996 . S
O584 C590 1.255 . S
O585 Fe575 1.976 . S
O585 C580 1.287 . S
O586 Fe572 1.996 . S
O586 C580 1.255 . S
C587 O591 1.295 . S
C587 O592 1.235 . S
O588 Fe573 1.976 . S
O588 C582 1.287 . S
O589 Fe575 1.996 . S
O589 C582 1.255 . S
C590 O583 1.287 . S
C590 O584 1.255 . S
O591 Fe573 2.002 . S
O591 C587 1.295 . S
O592 Fe575 1.997 . S
O592 C587 1.235 . S
C593 O576 1.295 . S
C593 O577 1.235 . S
Fe594 O596 1.918 . S
Fe594 O599 1.997 1_556 S
Fe594 O600 2.002 . S
Fe594 O605 1.976 . S
Fe594 O608 1.996 1_556 S
Fe595 O596 1.918 . S
Fe595 O603 1.997 . S
Fe595 O606 1.996 . S
Fe595 O610 1.976 . S
Fe595 O613 2.002 . S
O596 Fe594 1.918 . S
O596 Fe595 1.918 . S
O596 Fe597 1.918 . S
Fe597 O596 1.918 . S
Fe597 O598 2.002 1_556 S
Fe597 O607 1.976 1_556 S
Fe597 O611 1.996 . S
Fe597 O614 1.997 . S
O598 Fe597 2.002 1_554 S
O598 C615 1.295 . S
O599 Fe594 1.997 1_554 S
O599 C615 1.235 . S
O600 Fe594 2.002 . S
O600 C601 1.295 . S
C601 O600 1.295 . S
C601 O603 1.235 . S
C602 O607 1.287 . S
C602 O608 1.255 . S
O603 Fe595 1.997 . S
O603 C601 1.235 . S
C604 O610 1.287 . S
C604 O611 1.255 . S
O605 Fe594 1.976 . S
O605 C612 1.287 . S
O606 Fe595 1.996 . S
O606 C612 1.255 . S
O607 Fe597 1.976 1_554 S
O607 C602 1.287 . S
O608 Fe594 1.996 1_554 S
O608 C602 1.255 . S
C609 O613 1.295 . S
C609 O614 1.235 . S
O610 Fe595 1.976 . S
O610 C604 1.287 . S
O611 Fe597 1.996 . S
O611 C604 1.255 . S
C612 O605 1.287 . S
C612 O606 1.255 . S
O613 Fe595 2.002 . S
O613 C609 1.295 . S
O614 Fe597 1.997 . S
O614 C609 1.235 . S
C615 O598 1.295 . S
C615 O599 1.235 . S
Fe616 O618 1.918 . S
Fe616 O621 1.997 . S
Fe616 O622 2.002 . S
Fe616 O627 1.976 . S
Fe616 O630 1.996 . S
Fe617 O618 1.918 . S
Fe617 O625 1.997 . S
Fe617 O628 1.996 . S
Fe617 O632 1.976 . S
Fe617 O635 2.002 . S
O618 Fe616 1.918 . S
O618 Fe617 1.918 . S
O618 Fe619 1.918 . S
Fe619 O618 1.918 . S
Fe619 O620 2.002 . S
Fe619 O629 1.976 . S
Fe619 O633 1.996 . S
Fe619 O636 1.997 . S
O620 Fe619 2.002 . S
O620 C637 1.295 . S
O621 Fe616 1.997 . S
O621 C637 1.235 . S
O622 Fe616 2.002 . S
O622 C623 1.295 . S
C623 O622 1.295 . S
C623 O625 1.235 . S
C624 O629 1.287 . S
C624 O630 1.255 . S
O625 Fe617 1.997 . S
O625 C623 1.235 . S
C626 O632 1.287 . S
C626 O633 1.255 . S
O627 Fe616 1.976 . S
O627 C634 1.287 . S
O628 Fe617 1.996 . S
O628 C634 1.255 . S
O629 Fe619 1.976 . S
O629 C624 1.287 . S
O630 Fe616 1.996 . S
O630 C624 1.255 . S
C631 O635 1.295 . S
C631 O636 1.235 . S
O632 Fe617 1.976 . S
O632 C626 1.287 . S
O633 Fe619 1.996 . S
O633 C626 1.255 . S
C634 O627 1.287 . S
C634 O628 1.255 . S
O635 Fe617 2.002 . S
O635 C631 1.295 . S
O636 Fe619 1.997 . S
O636 C631 1.235 . S
C637 O620 1.295 . S
C637 O621 1.235 . S
Fe638 O640 1.918 . S
Fe638 O643 1.997 . S
Fe638 O644 2.002 . S
Fe638 O649 1.976 . S
Fe638 O652 1.996 . S
Fe639 O640 1.918 . S
Fe639 O647 1.997 . S
Fe639 O650 1.996 . S
Fe639 O654 1.976 . S
Fe639 O657 2.002 . S
O640 Fe638 1.918 . S
O640 Fe639 1.918 . S
O640 Fe641 1.918 . S
Fe641 O640 1.918 . S
Fe641 O642 2.002 . S
Fe641 O651 1.976 . S
Fe641 O655 1.996 . S
Fe641 O658 1.997 . S
O642 Fe641 2.002 . S
O642 C659 1.295 . S
O643 Fe638 1.997 . S
O643 C659 1.235 . S
O644 Fe638 2.002 . S
O644 C645 1.295 . S
C645 O644 1.295 . S
C645 O647 1.235 . S
C646 O651 1.287 . S
C646 O652 1.255 . S
O647 Fe639 1.997 . S
O647 C645 1.235 . S
C648 O654 1.287 . S
C648 O655 1.255 . S
O649 Fe638 1.976 . S
O649 C656 1.287 . S
O650 Fe639 1.996 . S
O650 C656 1.255 . S
O651 Fe641 1.976 . S
O651 C646 1.287 . S
O652 Fe638 1.996 . S
O652 C646 1.255 . S
C653 O657 1.295 . S
C653 O658 1.235 . S
O654 Fe639 1.976 . S
O654 C648 1.287 . S
O655 Fe641 1.996 . S
O655 C648 1.255 . S
C656 O649 1.287 . S
C656 O650 1.255 . S
O657 Fe639 2.002 . S
O657 C653 1.295 . S
O658 Fe641 1.997 . S
O658 C653 1.235 . S
C659 O642 1.295 . S
C659 O643 1.235 . S
Fe660 O662 1.918 . S
Fe660 O665 1.997 . S
Fe660 O666 2.002 . S
Fe660 O671 1.976 . S
Fe660 O674 1.996 . S
Fe661 O662 1.918 . S
Fe661 O669 1.997 . S
Fe661 O672 1.996 . S
Fe661 O676 1.976 . S
Fe661 O679 2.002 . S
O662 Fe660 1.918 . S
O662 Fe661 1.918 . S
O662 Fe663 1.918 . S
Fe663 O662 1.918 . S
Fe663 O664 2.002 . S
Fe663 O673 1.976 . S
Fe663 O677 1.996 . S
Fe663 O680 1.997 . S
O664 Fe663 2.002 . S
O664 C681 1.295 . S
O665 Fe660 1.997 . S
O665 C681 1.235 . S
O666 Fe660 2.002 . S
O666 C667 1.295 . S
C667 O666 1.295 . S
C667 O669 1.235 . S
C668 O673 1.287 . S
C668 O674 1.255 . S
O669 Fe661 1.997 . S
O669 C667 1.235 . S
C670 O676 1.287 . S
C670 O677 1.255 . S
O671 Fe660 1.976 . S
O671 C678 1.287 . S
O672 Fe661 1.996 . S
O672 C678 1.255 . S
O673 Fe663 1.976 . S
O673 C668 1.287 . S
O674 Fe660 1.996 . S
O674 C668 1.255 . S
C675 O679 1.295 . S
C675 O680 1.235 . S
O676 Fe661 1.976 . S
O676 C670 1.287 . S
O677 Fe663 1.996 . S
O677 C670 1.255 . S
C678 O671 1.287 . S
C678 O672 1.255 . S
O679 Fe661 2.002 . S
O679 C675 1.295 . S
O680 Fe663 1.997 . S
O680 C675 1.235 . S
C681 O664 1.295 . S
C681 O665 1.235 . S
Fe682 O684 1.918 . S
Fe682 O687 1.997 . S
Fe682 O688 2.002 . S
Fe682 O693 1.976 1_655 S
Fe682 O696 1.996 . S
Fe683 O684 1.918 . S
Fe683 O691 1.997 . S
Fe683 O694 1.996 1_655 S
Fe683 O698 1.976 1_554 S
Fe683 O701 2.002 1_554 S
O684 Fe682 1.918 . S
O684 Fe683 1.918 . S
O684 Fe685 1.918 . S
Fe685 O684 1.918 . S
Fe685 O686 2.002 . S
Fe685 O695 1.976 . S
Fe685 O699 1.996 1_554 S
Fe685 O702 1.997 1_554 S
O686 Fe685 2.002 . S
O686 C703 1.295 . S
O687 Fe682 1.997 . S
O687 C703 1.235 . S
O688 Fe682 2.002 . S
O688 C689 1.295 . S
C689 O688 1.295 . S
C689 O691 1.235 . S
C690 O695 1.287 . S
C690 O696 1.255 . S
O691 Fe683 1.997 . S
O691 C689 1.235 . S
C692 O698 1.287 . S
C692 O699 1.255 . S
O693 Fe682 1.976 1_455 S
O693 C700 1.287 . S
O694 Fe683 1.996 1_455 S
O694 C700 1.255 . S
O695 Fe685 1.976 . S
O695 C690 1.287 . S
O696 Fe682 1.996 . S
O696 C690 1.255 . S
C697 O701 1.295 . S
C697 O702 1.235 . S
O698 Fe683 1.976 1_556 S
O698 C692 1.287 . S
O699 Fe685 1.996 1_556 S
O699 C692 1.255 . S
C700 O693 1.287 . S
C700 O694 1.255 . S
O701 Fe683 2.002 1_556 S
O701 C697 1.295 . S
O702 Fe685 1.997 1_556 S
O702 C697 1.235 . S
C703 O686 1.295 . S
C703 O687 1.235 . S
Fe704 O706 1.918 . S
Fe704 O709 1.997 . S
Fe704 O710 2.002 . S
Fe704 O715 1.976 . S
Fe704 O718 1.996 . S
Fe705 O706 1.918 . S
Fe705 O713 1.997 . S
Fe705 O716 1.996 . S
Fe705 O720 1.976 . S
Fe705 O723 2.002 . S
O706 Fe704 1.918 . S
O706 Fe705 1.918 . S
O706 Fe707 1.918 . S
Fe707 O706 1.918 . S
Fe707 O708 2.002 . S
Fe707 O717 1.976 . S
Fe707 O721 1.996 . S
Fe707 O724 1.997 . S
O708 Fe707 2.002 . S
O708 C725 1.295 . S
O709 Fe704 1.997 . S
O709 C725 1.235 . S
O710 Fe704 2.002 . S
O710 C711 1.295 . S
C711 O710 1.295 . S
C711 O713 1.235 . S
C712 O717 1.287 . S
C712 O718 1.255 . S
O713 Fe705 1.997 . S
O713 C711 1.235 . S
C714 O720 1.287 . S
C714 O721 1.255 . S
O715 Fe704 1.976 . S
O715 C722 1.287 . S
O716 Fe705 1.996 . S
O716 C722 1.255 . S
O717 Fe707 1.976 . S
O717 C712 1.287 . S
O718 Fe704 1.996 . S
O718 C712 1.255 . S
C719 O723 1.295 . S
C719 O724 1.235 . S
O720 Fe705 1.976 . S
O720 C714 1.287 . S
O721 Fe707 1.996 . S
O721 C714 1.255 . S
C722 O715 1.287 . S
C722 O716 1.255 . S
O723 Fe705 2.002 . S
O723 C719 1.295 . S
O724 Fe707 1.997 . S
O724 C719 1.235 . S
C725 O708 1.295 . S
C725 O709 1.235 . S
Fe726 O728 1.918 . S
Fe726 O731 1.997 1_565 S
Fe726 O732 2.002 . S
Fe726 O737 1.976 . S
Fe726 O740 1.996 1_565 S
Fe727 O728 1.918 . S
Fe727 O735 1.997 . S
Fe727 O738 1.996 . S
Fe727 O742 1.976 . S
Fe727 O745 2.002 . S
O728 Fe726 1.918 . S
O728 Fe727 1.918 . S
O728 Fe729 1.918 . S
Fe729 O728 1.918 . S
Fe729 O730 2.002 1_565 S
Fe729 O739 1.976 1_565 S
Fe729 O743 1.996 . S
Fe729 O746 1.997 . S
O730 Fe729 2.002 1_545 S
O730 C747 1.295 . S
O731 Fe726 1.997 1_545 S
O731 C747 1.235 . S
O732 Fe726 2.002 . S
O732 C733 1.295 . S
C733 O732 1.295 . S
C733 O735 1.235 . S
C734 O739 1.287 . S
C734 O740 1.255 . S
O735 Fe727 1.997 . S
O735 C733 1.235 . S
C736 O742 1.287 . S
C736 O743 1.255 . S
O737 Fe726 1.976 . S
O737 C744 1.287 . S
O738 Fe727 1.996 . S
O738 C744 1.255 . S
O739 Fe729 1.976 1_545 S
O739 C734 1.287 . S
O740 Fe726 1.996 1_545 S
O740 C734 1.255 . S
C741 O745 1.295 . S
C741 O746 1.235 . S
O742 Fe727 1.976 . S
O742 C736 1.287 . S
O743 Fe729 1.996 . S
O743 C736 1.255 . S
C744 O737 1.287 . S
C744 O738 1.255 . S
O745 Fe727 2.002 . S
O745 C741 1.295 . S
O746 Fe729 1.997 . S
O746 C741 1.235 . S
C747 O730 1.295 . S
C747 O731 1.235 . S
Fe748 O750 1.918 . S
Fe748 O753 1.997 . S
Fe748 O754 2.002 . S
Fe748 O759 1.976 . S
Fe748 O762 1.996 . S
Fe749 O750 1.918 . S
Fe749 O757 1.997 . S
Fe749 O760 1.996 . S
Fe749 O764 1.976 . S
Fe749 O767 2.002 . S
O750 Fe748 1.918 . S
O750 Fe749 1.918 . S
O750 Fe751 1.918 . S
Fe751 O750 1.918 . S
Fe751 O752 2.002 . S
Fe751 O761 1.976 . S
Fe751 O765 1.996 . S
Fe751 O768 1.997 . S
O752 Fe751 2.002 . S
O752 C769 1.295 . S
O753 Fe748 1.997 . S
O753 C769 1.235 . S
O754 Fe748 2.002 . S
O754 C755 1.295 . S
C755 O754 1.295 . S
C755 O757 1.235 . S
C756 O761 1.287 . S
C756 O762 1.255 . S
O757 Fe749 1.997 . S
O757 C755 1.235 . S
C758 O764 1.287 . S
C758 O765 1.255 . S
O759 Fe748 1.976 . S
O759 C766 1.287 . S
O760 Fe749 1.996 . S
O760 C766 1.255 . S
O761 Fe751 1.976 . S
O761 C756 1.287 . S
O762 Fe748 1.996 . S
O762 C756 1.255 . S
C763 O767 1.295 . S
C763 O768 1.235 . S
O764 Fe749 1.976 . S
O764 C758 1.287 . S
O765 Fe751 1.996 . S
O765 C758 1.255 . S
C766 O759 1.287 . S
C766 O760 1.255 . S
O767 Fe749 2.002 . S
O767 C763 1.295 . S
O768 Fe751 1.997 . S
O768 C763 1.235 . S
C769 O752 1.295 . S
C769 O753 1.235 . S
Fe770 O772 1.918 . S
Fe770 O775 1.997 1_545 S
Fe770 O776 2.002 . S
Fe770 O781 1.976 . S
Fe770 O784 1.996 1_545 S
Fe771 O772 1.918 . S
Fe771 O779 1.997 . S
Fe771 O782 1.996 . S
Fe771 O786 1.976 1_554 S
Fe771 O789 2.002 . S
O772 Fe770 1.918 . S
O772 Fe771 1.918 . S
O772 Fe773 1.918 . S
Fe773 O772 1.918 . S
Fe773 O774 2.002 1_545 S
Fe773 O783 1.976 1_545 S
Fe773 O787 1.996 1_554 S
Fe773 O790 1.997 . S
O774 Fe773 2.002 1_565 S
O774 C791 1.295 . S
O775 Fe770 1.997 1_565 S
O775 C791 1.235 . S
O776 Fe770 2.002 . S
O776 C777 1.295 . S
C777 O776 1.295 . S
C777 O779 1.235 . S
C778 O783 1.287 . S
C778 O784 1.255 . S
O779 Fe771 1.997 . S
O779 C777 1.235 . S
C780 O786 1.287 . S
C780 O787 1.255 . S
O781 Fe770 1.976 . S
O781 C788 1.287 . S
O782 Fe771 1.996 . S
O782 C788 1.255 . S
O783 Fe773 1.976 1_565 S
O783 C778 1.287 . S
O784 Fe770 1.996 1_565 S
O784 C778 1.255 . S
C785 O789 1.295 . S
C785 O790 1.235 . S
O786 Fe771 1.976 1_556 S
O786 C780 1.287 . S
O787 Fe773 1.996 1_556 S
O787 C780 1.255 . S
C788 O781 1.287 . S
C788 O782 1.255 . S
O789 Fe771 2.002 . S
O789 C785 1.295 . S
O790 Fe773 1.997 . S
O790 C785 1.235 . S
C791 O774 1.295 . S
C791 O775 1.235 . S
Fe792 O794 1.918 . S
Fe792 O797 1.997 . S
Fe792 O798 2.002 . S
Fe792 O803 1.976 . S
Fe792 O806 1.996 . S
Fe793 O794 1.918 . S
Fe793 O801 1.997 . S
Fe793 O804 1.996 . S
Fe793 O808 1.976 . S
Fe793 O811 2.002 . S
O794 Fe792 1.918 . S
O794 Fe793 1.918 . S
O794 Fe795 1.918 . S
Fe795 O794 1.918 . S
Fe795 O796 2.002 . S
Fe795 O805 1.976 . S
Fe795 O809 1.996 . S
Fe795 O812 1.997 . S
O796 Fe795 2.002 . S
O796 C813 1.295 . S
O797 Fe792 1.997 . S
O797 C813 1.235 . S
O798 Fe792 2.002 . S
O798 C799 1.295 . S
C799 O798 1.295 . S
C799 O801 1.235 . S
C800 O805 1.287 . S
C800 O806 1.255 . S
O801 Fe793 1.997 . S
O801 C799 1.235 . S
C802 O808 1.287 . S
C802 O809 1.255 . S
O803 Fe792 1.976 . S
O803 C810 1.287 . S
O804 Fe793 1.996 . S
O804 C810 1.255 . S
O805 Fe795 1.976 . S
O805 C800 1.287 . S
O806 Fe792 1.996 . S
O806 C800 1.255 . S
C807 O811 1.295 . S
C807 O812 1.235 . S
O808 Fe793 1.976 . S
O808 C802 1.287 . S
O809 Fe795 1.996 . S
O809 C802 1.255 . S
C810 O803 1.287 . S
C810 O804 1.255 . S
O811 Fe793 2.002 . S
O811 C807 1.295 . S
O812 Fe795 1.997 . S
O812 C807 1.235 . S
C813 O796 1.295 . S
C813 O797 1.235 . S
Fe814 O816 1.918 . S
Fe814 O819 1.997 . S
Fe814 O820 2.002 1_565 S
Fe814 O825 1.976 1_565 S
Fe814 O828 1.996 . S
Fe815 O816 1.918 . S
Fe815 O823 1.997 1_565 S
Fe815 O826 1.996 1_565 S
Fe815 O830 1.976 . S
Fe815 O833 2.002 . S
O816 Fe814 1.918 . S
O816 Fe815 1.918 . S
O816 Fe817 1.918 . S
Fe817 O816 1.918 . S
Fe817 O818 2.002 . S
Fe817 O827 1.976 . S
Fe817 O831 1.996 . S
Fe817 O834 1.997 . S
O818 Fe817 2.002 . S
O818 C835 1.295 . S
O819 Fe814 1.997 . S
O819 C835 1.235 . S
O820 Fe814 2.002 1_545 S
O820 C821 1.295 . S
C821 O820 1.295 . S
C821 O823 1.235 . S
C822 O827 1.287 . S
C822 O828 1.255 . S
O823 Fe815 1.997 1_545 S
O823 C821 1.235 . S
C824 O830 1.287 . S
C824 O831 1.255 . S
O825 Fe814 1.976 1_545 S
O825 C832 1.287 . S
O826 Fe815 1.996 1_545 S
O826 C832 1.255 . S
O827 Fe817 1.976 . S
O827 C822 1.287 . S
O828 Fe814 1.996 . S
O828 C822 1.255 . S
C829 O833 1.295 . S
C829 O834 1.235 . S
O830 Fe815 1.976 . S
O830 C824 1.287 . S
O831 Fe817 1.996 . S
O831 C824 1.255 . S
C832 O825 1.287 . S
C832 O826 1.255 . S
O833 Fe815 2.002 . S
O833 C829 1.295 . S
O834 Fe817 1.997 . S
O834 C829 1.235 . S
C835 O818 1.295 . S
C835 O819 1.235 . S
Fe836 O838 1.918 . S
Fe836 O841 1.997 . S
Fe836 O842 2.002 . S
Fe836 O847 1.976 . S
Fe836 O850 1.996 . S
Fe837 O838 1.918 . S
Fe837 O845 1.997 . S
Fe837 O848 1.996 . S
Fe837 O852 1.976 . S
Fe837 O855 2.002 . S
O838 Fe836 1.918 . S
O838 Fe837 1.918 . S
O838 Fe839 1.918 . S
Fe839 O838 1.918 . S
Fe839 O840 2.002 . S
Fe839 O849 1.976 . S
Fe839 O853 1.996 . S
Fe839 O856 1.997 . S
O840 Fe839 2.002 . S
O840 C857 1.295 . S
O841 Fe836 1.997 . S
O841 C857 1.235 . S
O842 Fe836 2.002 . S
O842 C843 1.295 . S
C843 O842 1.295 . S
C843 O845 1.235 . S
C844 O849 1.287 . S
C844 O850 1.255 . S
O845 Fe837 1.997 . S
O845 C843 1.235 . S
C846 O852 1.287 . S
C846 O853 1.255 . S
O847 Fe836 1.976 . S
O847 C854 1.287 . S
O848 Fe837 1.996 . S
O848 C854 1.255 . S
O849 Fe839 1.976 . S
O849 C844 1.287 . S
O850 Fe836 1.996 . S
O850 C844 1.255 . S
C851 O855 1.295 . S
C851 O856 1.235 . S
O852 Fe837 1.976 . S
O852 C846 1.287 . S
O853 Fe839 1.996 . S
O853 C846 1.255 . S
C854 O847 1.287 . S
C854 O848 1.255 . S
O855 Fe837 2.002 . S
O855 C851 1.295 . S
O856 Fe839 1.997 . S
O856 C851 1.235 . S
C857 O840 1.295 . S
C857 O841 1.235 . S
Fe858 O860 1.918 . S
Fe858 O863 1.997 . S
Fe858 O864 2.002 1_545 S
Fe858 O869 1.976 1_545 S
Fe858 O872 1.996 1_556 S
Fe859 O860 1.918 . S
Fe859 O867 1.997 1_545 S
Fe859 O870 1.996 1_545 S
Fe859 O874 1.976 . S
Fe859 O877 2.002 . S
O860 Fe858 1.918 . S
O860 Fe859 1.918 . S
O860 Fe861 1.918 . S
Fe861 O860 1.918 . S
Fe861 O862 2.002 . S
Fe861 O871 1.976 1_556 S
Fe861 O875 1.996 . S
Fe861 O878 1.997 . S
O862 Fe861 2.002 . S
O862 C879 1.295 . S
O863 Fe858 1.997 . S
O863 C879 1.235 . S
O864 Fe858 2.002 1_565 S
O864 C865 1.295 . S
C865 O864 1.295 . S
C865 O867 1.235 . S
C866 O871 1.287 . S
C866 O872 1.255 . S
O867 Fe859 1.997 1_565 S
O867 C865 1.235 . S
C868 O874 1.287 . S
C868 O875 1.255 . S
O869 Fe858 1.976 1_565 S
O869 C876 1.287 . S
O870 Fe859 1.996 1_565 S
O870 C876 1.255 . S
O871 Fe861 1.976 1_554 S
O871 C866 1.287 . S
O872 Fe858 1.996 1_554 S
O872 C866 1.255 . S
C873 O877 1.295 . S
C873 O878 1.235 . S
O874 Fe859 1.976 . S
O874 C868 1.287 . S
O875 Fe861 1.996 . S
O875 C868 1.255 . S
C876 O869 1.287 . S
C876 O870 1.255 . S
O877 Fe859 2.002 . S
O877 C873 1.295 . S
O878 Fe861 1.997 . S
O878 C873 1.235 . S
C879 O862 1.295 . S
C879 O863 1.235 . S
Fe880 O882 1.918 . S
Fe880 O885 1.997 . S
Fe880 O886 2.002 . S
Fe880 O891 1.976 . S
Fe880 O894 1.996 . S
Fe881 O882 1.918 . S
Fe881 O889 1.997 . S
Fe881 O892 1.996 . S
Fe881 O896 1.976 . S
Fe881 O899 2.002 . S
O882 Fe880 1.918 . S
O882 Fe881 1.918 . S
O882 Fe883 1.918 . S
Fe883 O882 1.918 . S
Fe883 O884 2.002 . S
Fe883 O893 1.976 . S
Fe883 O897 1.996 . S
Fe883 O900 1.997 . S
O884 Fe883 2.002 . S
O884 C901 1.295 . S
O885 Fe880 1.997 . S
O885 C901 1.235 . S
O886 Fe880 2.002 . S
O886 C887 1.295 . S
C887 O886 1.295 . S
C887 O889 1.235 . S
C888 O893 1.287 . S
C888 O894 1.255 . S
O889 Fe881 1.997 . S
O889 C887 1.235 . S
C890 O896 1.287 . S
C890 O897 1.255 . S
O891 Fe880 1.976 . S
O891 C898 1.287 . S
O892 Fe881 1.996 . S
O892 C898 1.255 . S
O893 Fe883 1.976 . S
O893 C888 1.287 . S
O894 Fe880 1.996 . S
O894 C888 1.255 . S
C895 O899 1.295 . S
C895 O900 1.235 . S
O896 Fe881 1.976 . S
O896 C890 1.287 . S
O897 Fe883 1.996 . S
O897 C890 1.255 . S
C898 O891 1.287 . S
C898 O892 1.255 . S
O899 Fe881 2.002 . S
O899 C895 1.295 . S
O900 Fe883 1.997 . S
O900 C895 1.235 . S
C901 O884 1.295 . S
C901 O885 1.235 . S
Fe902 O904 1.918 . S
Fe902 O907 1.997 . S
Fe902 O908 2.002 . S
Fe902 O913 1.976 . S
Fe902 O916 1.996 . S
Fe903 O904 1.918 . S
Fe903 O911 1.997 . S
Fe903 O914 1.996 . S
Fe903 O918 1.976 . S
Fe903 O921 2.002 . S
O904 Fe902 1.918 . S
O904 Fe903 1.918 . S
O904 Fe905 1.918 . S
Fe905 O904 1.918 . S
Fe905 O906 2.002 . S
Fe905 O915 1.976 . S
Fe905 O919 1.996 . S
Fe905 O922 1.997 . S
O906 Fe905 2.002 . S
O906 C923 1.295 . S
O907 Fe902 1.997 . S
O907 C923 1.235 . S
O908 Fe902 2.002 . S
O908 C909 1.295 . S
C909 O908 1.295 . S
C909 O911 1.235 . S
C910 O915 1.287 . S
C910 O916 1.255 . S
O911 Fe903 1.997 . S
O911 C909 1.235 . S
C912 O918 1.287 . S
C912 O919 1.255 . S
O913 Fe902 1.976 . S
O913 C920 1.287 . S
O914 Fe903 1.996 . S
O914 C920 1.255 . S
O915 Fe905 1.976 . S
O915 C910 1.287 . S
O916 Fe902 1.996 . S
O916 C910 1.255 . S
C917 O921 1.295 . S
C917 O922 1.235 . S
O918 Fe903 1.976 . S
O918 C912 1.287 . S
O919 Fe905 1.996 . S
O919 C912 1.255 . S
C920 O913 1.287 . S
C920 O914 1.255 . S
O921 Fe903 2.002 . S
O921 C917 1.295 . S
O922 Fe905 1.997 . S
O922 C917 1.235 . S
C923 O906 1.295 . S
C923 O907 1.235 . S
Fe924 O926 1.918 . S
Fe924 O929 1.997 1_655 S
Fe924 O930 2.002 . S
Fe924 O935 1.976 . S
Fe924 O938 1.996 1_655 S
Fe925 O926 1.918 . S
Fe925 O933 1.997 . S
Fe925 O936 1.996 . S
Fe925 O940 1.976 . S
Fe925 O943 2.002 . S
O926 Fe924 1.918 . S
O926 Fe925 1.918 . S
O926 Fe927 1.918 . S
Fe927 O926 1.918 . S
Fe927 O928 2.002 1_655 S
Fe927 O937 1.976 1_655 S
Fe927 O941 1.996 . S
Fe927 O944 1.997 . S
O928 Fe927 2.002 1_455 S
O928 C945 1.295 . S
O929 Fe924 1.997 1_455 S
O929 C945 1.235 . S
O930 Fe924 2.002 . S
O930 C931 1.295 . S
C931 O930 1.295 . S
C931 O933 1.235 . S
C932 O937 1.287 . S
C932 O938 1.255 . S
O933 Fe925 1.997 . S
O933 C931 1.235 . S
C934 O940 1.287 . S
C934 O941 1.255 . S
O935 Fe924 1.976 . S
O935 C942 1.287 . S
O936 Fe925 1.996 . S
O936 C942 1.255 . S
O937 Fe927 1.976 1_455 S
O937 C932 1.287 . S
O938 Fe924 1.996 1_455 S
O938 C932 1.255 . S
C939 O943 1.295 . S
C939 O944 1.235 . S
O940 Fe925 1.976 . S
O940 C934 1.287 . S
O941 Fe927 1.996 . S
O941 C934 1.255 . S
C942 O935 1.287 . S
C942 O936 1.255 . S
O943 Fe925 2.002 . S
O943 C939 1.295 . S
O944 Fe927 1.997 . S
O944 C939 1.235 . S
C945 O928 1.295 . S
C945 O929 1.235 . S
Fe946 O948 1.918 . S
Fe946 O951 1.997 . S
Fe946 O952 2.002 . S
Fe946 O957 1.976 . S
Fe946 O960 1.996 . S
Fe947 O948 1.918 . S
Fe947 O955 1.997 . S
Fe947 O958 1.996 . S
Fe947 O962 1.976 . S
Fe947 O965 2.002 . S
O948 Fe946 1.918 . S
O948 Fe947 1.918 . S
O948 Fe949 1.918 . S
Fe949 O948 1.918 . S
Fe949 O950 2.002 . S
Fe949 O959 1.976 . S
Fe949 O963 1.996 . S
Fe949 O966 1.997 . S
O950 Fe949 2.002 . S
O950 C967 1.295 . S
O951 Fe946 1.997 . S
O951 C967 1.235 . S
O952 Fe946 2.002 . S
O952 C953 1.295 . S
C953 O952 1.295 . S
C953 O955 1.235 . S
C954 O959 1.287 . S
C954 O960 1.255 . S
O955 Fe947 1.997 . S
O955 C953 1.235 . S
C956 O962 1.287 . S
C956 O963 1.255 . S
O957 Fe946 1.976 . S
O957 C964 1.287 . S
O958 Fe947 1.996 . S
O958 C964 1.255 . S
O959 Fe949 1.976 . S
O959 C954 1.287 . S
O960 Fe946 1.996 . S
O960 C954 1.255 . S
C961 O965 1.295 . S
C961 O966 1.235 . S
O962 Fe947 1.976 . S
O962 C956 1.287 . S
O963 Fe949 1.996 . S
O963 C956 1.255 . S
C964 O957 1.287 . S
C964 O958 1.255 . S
O965 Fe947 2.002 . S
O965 C961 1.295 . S
O966 Fe949 1.997 . S
O966 C961 1.235 . S
C967 O950 1.295 . S
C967 O951 1.235 . S
Fe968 O970 1.918 . S
Fe968 O973 1.997 . S
Fe968 O974 2.002 . S
Fe968 O979 1.976 1_565 S
Fe968 O982 1.996 . S
Fe969 O970 1.918 . S
Fe969 O977 1.997 . S
Fe969 O980 1.996 1_565 S
Fe969 O984 1.976 1_455 S
Fe969 O987 2.002 1_455 S
O970 Fe968 1.918 . S
O970 Fe969 1.918 . S
O970 Fe971 1.918 . S
Fe971 O970 1.918 . S
Fe971 O972 2.002 . S
Fe971 O981 1.976 . S
Fe971 O985 1.996 1_455 S
Fe971 O988 1.997 1_455 S
O972 Fe971 2.002 . S
O972 C989 1.295 . S
O973 Fe968 1.997 . S
O973 C989 1.235 . S
O974 Fe968 2.002 . S
O974 C975 1.295 . S
C975 O974 1.295 . S
C975 O977 1.235 . S
C976 O981 1.287 . S
C976 O982 1.255 . S
O977 Fe969 1.997 . S
O977 C975 1.235 . S
C978 O984 1.287 . S
C978 O985 1.255 . S
O979 Fe968 1.976 1_545 S
O979 C986 1.287 . S
O980 Fe969 1.996 1_545 S
O980 C986 1.255 . S
O981 Fe971 1.976 . S
O981 C976 1.287 . S
O982 Fe968 1.996 . S
O982 C976 1.255 . S
C983 O987 1.295 . S
C983 O988 1.235 . S
O984 Fe969 1.976 1_655 S
O984 C978 1.287 . S
O985 Fe971 1.996 1_655 S
O985 C978 1.255 . S
C986 O979 1.287 . S
C986 O980 1.255 . S
O987 Fe969 2.002 1_655 S
O987 C983 1.295 . S
O988 Fe971 1.997 1_655 S
O988 C983 1.235 . S
C989 O972 1.295 . S
C989 O973 1.235 . S
Fe990 O992 1.918 . S
Fe990 O995 1.997 . S
Fe990 O996 2.002 . S
Fe990 O1001 1.976 . S
Fe990 O1004 1.996 . S
Fe991 O992 1.918 . S
Fe991 O999 1.997 . S
Fe991 O1002 1.996 . S
Fe991 O1006 1.976 . S
Fe991 O1009 2.002 . S
O992 Fe990 1.918 . S
O992 Fe991 1.918 . S
O992 Fe993 1.918 . S
Fe993 O992 1.918 . S
Fe993 O994 2.002 . S
Fe993 O1003 1.976 . S
Fe993 O1007 1.996 . S
Fe993 O1010 1.997 . S
O994 Fe993 2.002 . S
O994 C1011 1.295 . S
O995 Fe990 1.997 . S
O995 C1011 1.235 . S
O996 Fe990 2.002 . S
O996 C997 1.295 . S
C997 O996 1.295 . S
C997 O999 1.235 . S
C998 O1003 1.287 . S
C998 O1004 1.255 . S
O999 Fe991 1.997 . S
O999 C997 1.235 . S
C1000 O1006 1.287 . S
C1000 O1007 1.255 . S
O1001 Fe990 1.976 . S
O1001 C1008 1.287 . S
O1002 Fe991 1.996 . S
O1002 C1008 1.255 . S
O1003 Fe993 1.976 . S
O1003 C998 1.287 . S
O1004 Fe990 1.996 . S
O1004 C998 1.255 . S
C1005 O1009 1.295 . S
C1005 O1010 1.235 . S
O1006 Fe991 1.976 . S
O1006 C1000 1.287 . S
O1007 Fe993 1.996 . S
O1007 C1000 1.255 . S
C1008 O1001 1.287 . S
C1008 O1002 1.255 . S
O1009 Fe991 2.002 . S
O1009 C1005 1.295 . S
O1010 Fe993 1.997 . S
O1010 C1005 1.235 . S
C1011 O994 1.295 . S
C1011 O995 1.235 . S
Fe1012 O1014 1.918 . S
Fe1012 O1017 1.997 . S
Fe1012 O1018 2.002 . S
Fe1012 O1023 1.976 . S
Fe1012 O1026 1.996 . S
Fe1013 O1014 1.918 . S
Fe1013 O1021 1.997 . S
Fe1013 O1024 1.996 . S
Fe1013 O1028 1.976 1_655 S
Fe1013 O1031 2.002 1_655 S
O1014 Fe1012 1.918 . S
O1014 Fe1013 1.918 . S
O1014 Fe1015 1.918 . S
Fe1015 O1014 1.918 . S
Fe1015 O1016 2.002 . S
Fe1015 O1025 1.976 . S
Fe1015 O1029 1.996 1_655 S
Fe1015 O1032 1.997 1_655 S
O1016 Fe1015 2.002 . S
O1016 C1033 1.295 . S
O1017 Fe1012 1.997 . S
O1017 C1033 1.235 . S
O1018 Fe1012 2.002 . S
O1018 C1019 1.295 . S
C1019 O1018 1.295 . S
C1019 O1021 1.235 . S
C1020 O1025 1.287 . S
C1020 O1026 1.255 . S
O1021 Fe1013 1.997 . S
O1021 C1019 1.235 . S
C1022 O1028 1.287 . S
C1022 O1029 1.255 . S
O1023 Fe1012 1.976 . S
O1023 C1030 1.287 . S
O1024 Fe1013 1.996 . S
O1024 C1030 1.255 . S
O1025 Fe1015 1.976 . S
O1025 C1020 1.287 . S
O1026 Fe1012 1.996 . S
O1026 C1020 1.255 . S
C1027 O1031 1.295 . S
C1027 O1032 1.235 . S
O1028 Fe1013 1.976 1_455 S
O1028 C1022 1.287 . S
O1029 Fe1015 1.996 1_455 S
O1029 C1022 1.255 . S
C1030 O1023 1.287 . S
C1030 O1024 1.255 . S
O1031 Fe1013 2.002 1_455 S
O1031 C1027 1.295 . S
O1032 Fe1015 1.997 1_455 S
O1032 C1027 1.235 . S
C1033 O1016 1.295 . S
C1033 O1017 1.235 . S
Fe1034 O1036 1.918 . S
Fe1034 O1039 1.997 . S
Fe1034 O1040 2.002 . S
Fe1034 O1045 1.976 . S
Fe1034 O1048 1.996 . S
Fe1035 O1036 1.918 . S
Fe1035 O1043 1.997 . S
Fe1035 O1046 1.996 . S
Fe1035 O1050 1.976 . S
Fe1035 O1053 2.002 . S
O1036 Fe1034 1.918 . S
O1036 Fe1035 1.918 . S
O1036 Fe1037 1.918 . S
Fe1037 O1036 1.918 . S
Fe1037 O1038 2.002 . S
Fe1037 O1047 1.976 . S
Fe1037 O1051 1.996 . S
Fe1037 O1054 1.997 . S
O1038 Fe1037 2.002 . S
O1038 C1055 1.295 . S
O1039 Fe1034 1.997 . S
O1039 C1055 1.235 . S
O1040 Fe1034 2.002 . S
O1040 C1041 1.295 . S
C1041 O1040 1.295 . S
C1041 O1043 1.235 . S
C1042 O1047 1.287 . S
C1042 O1048 1.255 . S
O1043 Fe1035 1.997 . S
O1043 C1041 1.235 . S
C1044 O1050 1.287 . S
C1044 O1051 1.255 . S
O1045 Fe1034 1.976 . S
O1045 C1052 1.287 . S
O1046 Fe1035 1.996 . S
O1046 C1052 1.255 . S
O1047 Fe1037 1.976 . S
O1047 C1042 1.287 . S
O1048 Fe1034 1.996 . S
O1048 C1042 1.255 . S
C1049 O1053 1.295 . S
C1049 O1054 1.235 . S
O1050 Fe1035 1.976 . S
O1050 C1044 1.287 . S
O1051 Fe1037 1.996 . S
O1051 C1044 1.255 . S
C1052 O1045 1.287 . S
C1052 O1046 1.255 . S
O1053 Fe1035 2.002 . S
O1053 C1049 1.295 . S
O1054 Fe1037 1.997 . S
O1054 C1049 1.235 . S
C1055 O1038 1.295 . S
C1055 O1039 1.235 . S
Fe1056 O1058 1.918 . S
Fe1056 O1061 1.997 . S
Fe1056 O1062 2.002 . S
Fe1056 O1067 1.976 . S
Fe1056 O1070 1.996 . S
Fe1057 O1058 1.918 . S
Fe1057 O1065 1.997 . S
Fe1057 O1068 1.996 . S
Fe1057 O1072 1.976 . S
Fe1057 O1075 2.002 . S
O1058 Fe1056 1.918 . S
O1058 Fe1057 1.918 . S
O1058 Fe1059 1.918 . S
Fe1059 O1058 1.918 . S
Fe1059 O1060 2.002 . S
Fe1059 O1069 1.976 . S
Fe1059 O1073 1.996 . S
Fe1059 O1076 1.997 . S
O1060 Fe1059 2.002 . S
O1060 C1077 1.295 . S
O1061 Fe1056 1.997 . S
O1061 C1077 1.235 . S
O1062 Fe1056 2.002 . S
O1062 C1063 1.295 . S
C1063 O1062 1.295 . S
C1063 O1065 1.235 . S
C1064 O1069 1.287 . S
C1064 O1070 1.255 . S
O1065 Fe1057 1.997 . S
O1065 C1063 1.235 . S
C1066 O1072 1.287 . S
C1066 O1073 1.255 . S
O1067 Fe1056 1.976 . S
O1067 C1074 1.287 . S
O1068 Fe1057 1.996 . S
O1068 C1074 1.255 . S
O1069 Fe1059 1.976 . S
O1069 C1064 1.287 . S
O1070 Fe1056 1.996 . S
O1070 C1064 1.255 . S
C1071 O1075 1.295 . S
C1071 O1076 1.235 . S
O1072 Fe1057 1.976 . S
O1072 C1066 1.287 . S
O1073 Fe1059 1.996 . S
O1073 C1066 1.255 . S
C1074 O1067 1.287 . S
C1074 O1068 1.255 . S
O1075 Fe1057 2.002 . S
O1075 C1071 1.295 . S
O1076 Fe1059 1.997 . S
O1076 C1071 1.235 . S
C1077 O1060 1.295 . S
C1077 O1061 1.235 . S
Fe1078 O1080 1.918 . S
Fe1078 O1083 1.997 . S
Fe1078 O1084 2.002 . S
Fe1078 O1089 1.976 . S
Fe1078 O1092 1.996 . S
Fe1079 O1080 1.918 . S
Fe1079 O1087 1.997 . S
Fe1079 O1090 1.996 . S
Fe1079 O1094 1.976 1_554 S
Fe1079 O1097 2.002 1_554 S
O1080 Fe1078 1.918 . S
O1080 Fe1079 1.918 . S
O1080 Fe1081 1.918 . S
Fe1081 O1080 1.918 . S
Fe1081 O1082 2.002 . S
Fe1081 O1091 1.976 . S
Fe1081 O1095 1.996 1_554 S
Fe1081 O1098 1.997 1_554 S
O1082 Fe1081 2.002 . S
O1082 C1099 1.295 . S
O1083 Fe1078 1.997 . S
O1083 C1099 1.235 . S
O1084 Fe1078 2.002 . S
O1084 C1085 1.295 . S
C1085 O1084 1.295 . S
C1085 O1087 1.235 . S
C1086 O1091 1.287 . S
C1086 O1092 1.255 . S
O1087 Fe1079 1.997 . S
O1087 C1085 1.235 . S
C1088 O1094 1.287 . S
C1088 O1095 1.255 . S
O1089 Fe1078 1.976 . S
O1089 C1096 1.287 . S
O1090 Fe1079 1.996 . S
O1090 C1096 1.255 . S
O1091 Fe1081 1.976 . S
O1091 C1086 1.287 . S
O1092 Fe1078 1.996 . S
O1092 C1086 1.255 . S
C1093 O1097 1.295 . S
C1093 O1098 1.235 . S
O1094 Fe1079 1.976 1_556 S
O1094 C1088 1.287 . S
O1095 Fe1081 1.996 1_556 S
O1095 C1088 1.255 . S
C1096 O1089 1.287 . S
C1096 O1090 1.255 . S
O1097 Fe1079 2.002 1_556 S
O1097 C1093 1.295 . S
O1098 Fe1081 1.997 1_556 S
O1098 C1093 1.235 . S
C1099 O1082 1.295 . S
C1099 O1083 1.235 . S
Fe1100 O1102 1.918 . S
Fe1100 O1105 1.997 . S
Fe1100 O1106 2.002 . S
Fe1100 O1111 1.976 . S
Fe1100 O1114 1.996 . S
Fe1101 O1102 1.918 . S
Fe1101 O1109 1.997 . S
Fe1101 O1112 1.996 . S
Fe1101 O1116 1.976 . S
Fe1101 O1119 2.002 . S
O1102 Fe1100 1.918 . S
O1102 Fe1101 1.918 . S
O1102 Fe1103 1.918 . S
Fe1103 O1102 1.918 . S
Fe1103 O1104 2.002 . S
Fe1103 O1113 1.976 . S
Fe1103 O1117 1.996 . S
Fe1103 O1120 1.997 . S
O1104 Fe1103 2.002 . S
O1104 C1121 1.295 . S
O1105 Fe1100 1.997 . S
O1105 C1121 1.235 . S
O1106 Fe1100 2.002 . S
O1106 C1107 1.295 . S
C1107 O1106 1.295 . S
C1107 O1109 1.235 . S
C1108 O1113 1.287 . S
C1108 O1114 1.255 . S
O1109 Fe1101 1.997 . S
O1109 C1107 1.235 . S
C1110 O1116 1.287 . S
C1110 O1117 1.255 . S
O1111 Fe1100 1.976 . S
O1111 C1118 1.287 . S
O1112 Fe1101 1.996 . S
O1112 C1118 1.255 . S
O1113 Fe1103 1.976 . S
O1113 C1108 1.287 . S
O1114 Fe1100 1.996 . S
O1114 C1108 1.255 . S
C1115 O1119 1.295 . S
C1115 O1120 1.235 . S
O1116 Fe1101 1.976 . S
O1116 C1110 1.287 . S
O1117 Fe1103 1.996 . S
O1117 C1110 1.255 . S
C1118 O1111 1.287 . S
C1118 O1112 1.255 . S
O1119 Fe1101 2.002 . S
O1119 C1115 1.295 . S
O1120 Fe1103 1.997 . S
O1120 C1115 1.235 . S
C1121 O1104 1.295 . S
C1121 O1105 1.235 . S
Fe1122 O1124 1.918 . S
Fe1122 O1127 1.997 . S
Fe1122 O1128 2.002 . S
Fe1122 O1133 1.976 . S
Fe1122 O1136 1.996 1_655 S
Fe1123 O1124 1.918 . S
Fe1123 O1131 1.997 . S
Fe1123 O1134 1.996 . S
Fe1123 O1138 1.976 . S
Fe1123 O1141 2.002 . S
O1124 Fe1122 1.918 . S
O1124 Fe1123 1.918 . S
O1124 Fe1125 1.918 . S
Fe1125 O1124 1.918 . S
Fe1125 O1126 2.002 . S
Fe1125 O1135 1.976 1_655 S
Fe1125 O1139 1.996 . S
Fe1125 O1142 1.997 . S
O1126 Fe1125 2.002 . S
O1126 C1143 1.295 . S
O1127 Fe1122 1.997 . S
O1127 C1143 1.235 . S
O1128 Fe1122 2.002 . S
O1128 C1129 1.295 . S
C1129 O1128 1.295 . S
C1129 O1131 1.235 . S
C1130 O1135 1.287 . S
C1130 O1136 1.255 . S
O1131 Fe1123 1.997 . S
O1131 C1129 1.235 . S
C1132 O1138 1.287 . S
C1132 O1139 1.255 . S
O1133 Fe1122 1.976 . S
O1133 C1140 1.287 . S
O1134 Fe1123 1.996 . S
O1134 C1140 1.255 . S
O1135 Fe1125 1.976 1_455 S
O1135 C1130 1.287 . S
O1136 Fe1122 1.996 1_455 S
O1136 C1130 1.255 . S
C1137 O1141 1.295 . S
C1137 O1142 1.235 . S
O1138 Fe1123 1.976 . S
O1138 C1132 1.287 . S
O1139 Fe1125 1.996 . S
O1139 C1132 1.255 . S
C1140 O1133 1.287 . S
C1140 O1134 1.255 . S
O1141 Fe1123 2.002 . S
O1141 C1137 1.295 . S
O1142 Fe1125 1.997 . S
O1142 C1137 1.235 . S
C1143 O1126 1.295 . S
C1143 O1127 1.235 . S
Fe1144 O1146 1.918 . S
Fe1144 O1149 1.997 . S
Fe1144 O1150 2.002 . S
Fe1144 O1155 1.976 . S
Fe1144 O1158 1.996 . S
Fe1145 O1146 1.918 . S
Fe1145 O1153 1.997 . S
Fe1145 O1156 1.996 . S
Fe1145 O1160 1.976 . S
Fe1145 O1163 2.002 . S
O1146 Fe1144 1.918 . S
O1146 Fe1145 1.918 . S
O1146 Fe1147 1.918 . S
Fe1147 O1146 1.918 . S
Fe1147 O1148 2.002 . S
Fe1147 O1157 1.976 . S
Fe1147 O1161 1.996 . S
Fe1147 O1164 1.997 . S
O1148 Fe1147 2.002 . S
O1148 C1165 1.295 . S
O1149 Fe1144 1.997 . S
O1149 C1165 1.235 . S
O1150 Fe1144 2.002 . S
O1150 C1151 1.295 . S
C1151 O1150 1.295 . S
C1151 O1153 1.235 . S
C1152 O1157 1.287 . S
C1152 O1158 1.255 . S
O1153 Fe1145 1.997 . S
O1153 C1151 1.235 . S
C1154 O1160 1.287 . S
C1154 O1161 1.255 . S
O1155 Fe1144 1.976 . S
O1155 C1162 1.287 . S
O1156 Fe1145 1.996 . S
O1156 C1162 1.255 . S
O1157 Fe1147 1.976 . S
O1157 C1152 1.287 . S
O1158 Fe1144 1.996 . S
O1158 C1152 1.255 . S
C1159 O1163 1.295 . S
C1159 O1164 1.235 . S
O1160 Fe1145 1.976 . S
O1160 C1154 1.287 . S
O1161 Fe1147 1.996 . S
O1161 C1154 1.255 . S
C1162 O1155 1.287 . S
C1162 O1156 1.255 . S
O1163 Fe1145 2.002 . S
O1163 C1159 1.295 . S
O1164 Fe1147 1.997 . S
O1164 C1159 1.235 . S
C1165 O1148 1.295 . S
C1165 O1149 1.235 . S
Fe1166 O1168 1.918 . S
Fe1166 O1171 1.997 . S
Fe1166 O1172 2.002 1_556 S
Fe1166 O1177 1.976 1_556 S
Fe1166 O1180 1.996 . S
Fe1167 O1168 1.918 . S
Fe1167 O1175 1.997 1_556 S
Fe1167 O1178 1.996 1_556 S
Fe1167 O1182 1.976 1_655 S
Fe1167 O1185 2.002 . S
O1168 Fe1166 1.918 . S
O1168 Fe1167 1.918 . S
O1168 Fe1169 1.918 . S
Fe1169 O1168 1.918 . S
Fe1169 O1170 2.002 . S
Fe1169 O1179 1.976 . S
Fe1169 O1183 1.996 1_655 S
Fe1169 O1186 1.997 . S
O1170 Fe1169 2.002 . S
O1170 C1187 1.295 . S
O1171 Fe1166 1.997 . S
O1171 C1187 1.235 . S
O1172 Fe1166 2.002 1_554 S
O1172 C1173 1.295 . S
C1173 O1172 1.295 . S
C1173 O1175 1.235 . S
C1174 O1179 1.287 . S
C1174 O1180 1.255 . S
O1175 Fe1167 1.997 1_554 S
O1175 C1173 1.235 . S
C1176 O1182 1.287 . S
C1176 O1183 1.255 . S
O1177 Fe1166 1.976 1_554 S
O1177 C1184 1.287 . S
O1178 Fe1167 1.996 1_554 S
O1178 C1184 1.255 . S
O1179 Fe1169 1.976 . S
O1179 C1174 1.287 . S
O1180 Fe1166 1.996 . S
O1180 C1174 1.255 . S
C1181 O1185 1.295 . S
C1181 O1186 1.235 . S
O1182 Fe1167 1.976 1_455 S
O1182 C1176 1.287 . S
O1183 Fe1169 1.996 1_455 S
O1183 C1176 1.255 . S
C1184 O1177 1.287 . S
C1184 O1178 1.255 . S
O1185 Fe1167 2.002 . S
O1185 C1181 1.295 . S
O1186 Fe1169 1.997 . S
O1186 C1181 1.235 . S
C1187 O1170 1.295 . S
C1187 O1171 1.235 . S
Fe1188 O1190 1.918 . S
Fe1188 O1193 1.997 . S
Fe1188 O1194 2.002 . S
Fe1188 O1199 1.976 . S
Fe1188 O1202 1.996 . S
Fe1189 O1190 1.918 . S
Fe1189 O1197 1.997 . S
Fe1189 O1200 1.996 . S
Fe1189 O1204 1.976 . S
Fe1189 O1207 2.002 . S
O1190 Fe1188 1.918 . S
O1190 Fe1189 1.918 . S
O1190 Fe1191 1.918 . S
Fe1191 O1190 1.918 . S
Fe1191 O1192 2.002 . S
Fe1191 O1201 1.976 . S
Fe1191 O1205 1.996 . S
Fe1191 O1208 1.997 . S
O1192 Fe1191 2.002 . S
O1192 C1209 1.295 . S
O1193 Fe1188 1.997 . S
O1193 C1209 1.235 . S
O1194 Fe1188 2.002 . S
O1194 C1195 1.295 . S
C1195 O1194 1.295 . S
C1195 O1197 1.235 . S
C1196 O1201 1.287 . S
C1196 O1202 1.255 . S
O1197 Fe1189 1.997 . S
O1197 C1195 1.235 . S
C1198 O1204 1.287 . S
C1198 O1205 1.255 . S
O1199 Fe1188 1.976 . S
O1199 C1206 1.287 . S
O1200 Fe1189 1.996 . S
O1200 C1206 1.255 . S
O1201 Fe1191 1.976 . S
O1201 C1196 1.287 . S
O1202 Fe1188 1.996 . S
O1202 C1196 1.255 . S
C1203 O1207 1.295 . S
C1203 O1208 1.235 . S
O1204 Fe1189 1.976 . S
O1204 C1198 1.287 . S
O1205 Fe1191 1.996 . S
O1205 C1198 1.255 . S
C1206 O1199 1.287 . S
C1206 O1200 1.255 . S
O1207 Fe1189 2.002 . S
O1207 C1203 1.295 . S
O1208 Fe1191 1.997 . S
O1208 C1203 1.235 . S
C1209 O1192 1.295 . S
C1209 O1193 1.235 . S
Fe1210 O1212 1.918 . S
Fe1210 O1215 1.997 . S
Fe1210 O1216 2.002 . S
Fe1210 O1221 1.976 . S
Fe1210 O1224 1.996 . S
Fe1211 O1212 1.918 . S
Fe1211 O1219 1.997 . S
Fe1211 O1222 1.996 . S
Fe1211 O1226 1.976 . S
Fe1211 O1229 2.002 . S
O1212 Fe1210 1.918 . S
O1212 Fe1211 1.918 . S
O1212 Fe1213 1.918 . S
Fe1213 O1212 1.918 . S
Fe1213 O1214 2.002 . S
Fe1213 O1223 1.976 . S
Fe1213 O1227 1.996 . S
Fe1213 O1230 1.997 . S
O1214 Fe1213 2.002 . S
O1214 C1231 1.295 . S
O1215 Fe1210 1.997 . S
O1215 C1231 1.235 . S
O1216 Fe1210 2.002 . S
O1216 C1217 1.295 . S
C1217 O1216 1.295 . S
C1217 O1219 1.235 . S
C1218 O1223 1.287 . S
C1218 O1224 1.255 . S
O1219 Fe1211 1.997 . S
O1219 C1217 1.235 . S
C1220 O1226 1.287 . S
C1220 O1227 1.255 . S
O1221 Fe1210 1.976 . S
O1221 C1228 1.287 . S
O1222 Fe1211 1.996 . S
O1222 C1228 1.255 . S
O1223 Fe1213 1.976 . S
O1223 C1218 1.287 . S
O1224 Fe1210 1.996 . S
O1224 C1218 1.255 . S
C1225 O1229 1.295 . S
C1225 O1230 1.235 . S
O1226 Fe1211 1.976 . S
O1226 C1220 1.287 . S
O1227 Fe1213 1.996 . S
O1227 C1220 1.255 . S
C1228 O1221 1.287 . S
C1228 O1222 1.255 . S
O1229 Fe1211 2.002 . S
O1229 C1225 1.295 . S
O1230 Fe1213 1.997 . S
O1230 C1225 1.235 . S
C1231 O1214 1.295 . S
C1231 O1215 1.235 . S
Fe1232 O1234 1.918 . S
Fe1232 O1237 1.997 . S
Fe1232 O1238 2.002 . S
Fe1232 O1243 1.976 . S
Fe1232 O1246 1.996 . S
Fe1233 O1234 1.918 . S
Fe1233 O1241 1.997 . S
Fe1233 O1244 1.996 . S
Fe1233 O1248 1.976 . S
Fe1233 O1251 2.002 . S
O1234 Fe1232 1.918 . S
O1234 Fe1233 1.918 . S
O1234 Fe1235 1.918 . S
Fe1235 O1234 1.918 . S
Fe1235 O1236 2.002 . S
Fe1235 O1245 1.976 . S
Fe1235 O1249 1.996 . S
Fe1235 O1252 1.997 . S
O1236 Fe1235 2.002 . S
O1236 C1253 1.295 . S
O1237 Fe1232 1.997 . S
O1237 C1253 1.235 . S
O1238 Fe1232 2.002 . S
O1238 C1239 1.295 . S
C1239 O1238 1.295 . S
C1239 O1241 1.235 . S
C1240 O1245 1.287 . S
C1240 O1246 1.255 . S
O1241 Fe1233 1.997 . S
O1241 C1239 1.235 . S
C1242 O1248 1.287 . S
C1242 O1249 1.255 . S
O1243 Fe1232 1.976 . S
O1243 C1250 1.287 . S
O1244 Fe1233 1.996 . S
O1244 C1250 1.255 . S
O1245 Fe1235 1.976 . S
O1245 C1240 1.287 . S
O1246 Fe1232 1.996 . S
O1246 C1240 1.255 . S
C1247 O1251 1.295 . S
C1247 O1252 1.235 . S
O1248 Fe1233 1.976 . S
O1248 C1242 1.287 . S
O1249 Fe1235 1.996 . S
O1249 C1242 1.255 . S
C1250 O1243 1.287 . S
C1250 O1244 1.255 . S
O1251 Fe1233 2.002 . S
O1251 C1247 1.295 . S
O1252 Fe1235 1.997 . S
O1252 C1247 1.235 . S
C1253 O1236 1.295 . S
C1253 O1237 1.235 . S
Fe1254 O1256 1.918 . S
Fe1254 O1259 1.997 . S
Fe1254 O1260 2.002 . S
Fe1254 O1265 1.976 . S
Fe1254 O1268 1.996 . S
Fe1255 O1256 1.918 . S
Fe1255 O1263 1.997 . S
Fe1255 O1266 1.996 . S
Fe1255 O1270 1.976 1_556 S
Fe1255 O1273 2.002 . S
O1256 Fe1254 1.918 . S
O1256 Fe1255 1.918 . S
O1256 Fe1257 1.918 . S
Fe1257 O1256 1.918 . S
Fe1257 O1258 2.002 . S
Fe1257 O1267 1.976 . S
Fe1257 O1271 1.996 1_556 S
Fe1257 O1274 1.997 . S
O1258 Fe1257 2.002 . S
O1258 C1275 1.295 . S
O1259 Fe1254 1.997 . S
O1259 C1275 1.235 . S
O1260 Fe1254 2.002 . S
O1260 C1261 1.295 . S
C1261 O1260 1.295 . S
C1261 O1263 1.235 . S
C1262 O1267 1.287 . S
C1262 O1268 1.255 . S
O1263 Fe1255 1.997 . S
O1263 C1261 1.235 . S
C1264 O1270 1.287 . S
C1264 O1271 1.255 . S
O1265 Fe1254 1.976 . S
O1265 C1272 1.287 . S
O1266 Fe1255 1.996 . S
O1266 C1272 1.255 . S
O1267 Fe1257 1.976 . S
O1267 C1262 1.287 . S
O1268 Fe1254 1.996 . S
O1268 C1262 1.255 . S
C1269 O1273 1.295 . S
C1269 O1274 1.235 . S
O1270 Fe1255 1.976 1_554 S
O1270 C1264 1.287 . S
O1271 Fe1257 1.996 1_554 S
O1271 C1264 1.255 . S
C1272 O1265 1.287 . S
C1272 O1266 1.255 . S
O1273 Fe1255 2.002 . S
O1273 C1269 1.295 . S
O1274 Fe1257 1.997 . S
O1274 C1269 1.235 . S
C1275 O1258 1.295 . S
C1275 O1259 1.235 . S
Fe1276 O1278 1.918 . S
Fe1276 O1281 1.997 . S
Fe1276 O1282 2.002 . S
Fe1276 O1287 1.976 . S
Fe1276 O1290 1.996 . S
Fe1277 O1278 1.918 . S
Fe1277 O1285 1.997 . S
Fe1277 O1288 1.996 . S
Fe1277 O1292 1.976 . S
Fe1277 O1295 2.002 . S
O1278 Fe1276 1.918 . S
O1278 Fe1277 1.918 . S
O1278 Fe1279 1.918 . S
Fe1279 O1278 1.918 . S
Fe1279 O1280 2.002 . S
Fe1279 O1289 1.976 . S
Fe1279 O1293 1.996 . S
Fe1279 O1296 1.997 . S
O1280 Fe1279 2.002 . S
O1280 C1297 1.295 . S
O1281 Fe1276 1.997 . S
O1281 C1297 1.235 . S
O1282 Fe1276 2.002 . S
O1282 C1283 1.295 . S
C1283 O1282 1.295 . S
C1283 O1285 1.235 . S
C1284 O1289 1.287 . S
C1284 O1290 1.255 . S
O1285 Fe1277 1.997 . S
O1285 C1283 1.235 . S
C1286 O1292 1.287 . S
C1286 O1293 1.255 . S
O1287 Fe1276 1.976 . S
O1287 C1294 1.287 . S
O1288 Fe1277 1.996 . S
O1288 C1294 1.255 . S
O1289 Fe1279 1.976 . S
O1289 C1284 1.287 . S
O1290 Fe1276 1.996 . S
O1290 C1284 1.255 . S
C1291 O1295 1.295 . S
C1291 O1296 1.235 . S
O1292 Fe1277 1.976 . S
O1292 C1286 1.287 . S
O1293 Fe1279 1.996 . S
O1293 C1286 1.255 . S
C1294 O1287 1.287 . S
C1294 O1288 1.255 . S
O1295 Fe1277 2.002 . S
O1295 C1291 1.295 . S
O1296 Fe1279 1.997 . S
O1296 C1291 1.235 . S
C1297 O1280 1.295 . S
C1297 O1281 1.235 . S
Fe1298 O1300 1.918 . S
Fe1298 O1303 1.997 . S
Fe1298 O1304 2.002 . S
Fe1298 O1309 1.976 . S
Fe1298 O1312 1.996 . S
Fe1299 O1300 1.918 . S
Fe1299 O1307 1.997 . S
Fe1299 O1310 1.996 . S
Fe1299 O1314 1.976 . S
Fe1299 O1317 2.002 . S
O1300 Fe1298 1.918 . S
O1300 Fe1299 1.918 . S
O1300 Fe1301 1.918 . S
Fe1301 O1300 1.918 . S
Fe1301 O1302 2.002 . S
Fe1301 O1311 1.976 . S
Fe1301 O1315 1.996 . S
Fe1301 O1318 1.997 . S
O1302 Fe1301 2.002 . S
O1302 C1319 1.295 . S
O1303 Fe1298 1.997 . S
O1303 C1319 1.235 . S
O1304 Fe1298 2.002 . S
O1304 C1305 1.295 . S
C1305 O1304 1.295 . S
C1305 O1307 1.235 . S
C1306 O1311 1.287 . S
C1306 O1312 1.255 . S
O1307 Fe1299 1.997 . S
O1307 C1305 1.235 . S
C1308 O1314 1.287 . S
C1308 O1315 1.255 . S
O1309 Fe1298 1.976 . S
O1309 C1316 1.287 . S
O1310 Fe1299 1.996 . S
O1310 C1316 1.255 . S
O1311 Fe1301 1.976 . S
O1311 C1306 1.287 . S
O1312 Fe1298 1.996 . S
O1312 C1306 1.255 . S
C1313 O1317 1.295 . S
C1313 O1318 1.235 . S
O1314 Fe1299 1.976 . S
O1314 C1308 1.287 . S
O1315 Fe1301 1.996 . S
O1315 C1308 1.255 . S
C1316 O1309 1.287 . S
C1316 O1310 1.255 . S
O1317 Fe1299 2.002 . S
O1317 C1313 1.295 . S
O1318 Fe1301 1.997 . S
O1318 C1313 1.235 . S
C1319 O1302 1.295 . S
C1319 O1303 1.235 . S
Fe1320 O1322 1.918 . S
Fe1320 O1325 1.997 . S
Fe1320 O1326 2.002 . S
Fe1320 O1331 1.976 . S
Fe1320 O1334 1.996 . S
Fe1321 O1322 1.918 . S
Fe1321 O1329 1.997 . S
Fe1321 O1332 1.996 . S
Fe1321 O1336 1.976 . S
Fe1321 O1339 2.002 . S
O1322 Fe1320 1.918 . S
O1322 Fe1321 1.918 . S
O1322 Fe1323 1.918 . S
Fe1323 O1322 1.918 . S
Fe1323 O1324 2.002 . S
Fe1323 O1333 1.976 . S
Fe1323 O1337 1.996 . S
Fe1323 O1340 1.997 . S
O1324 Fe1323 2.002 . S
O1324 C1341 1.295 . S
O1325 Fe1320 1.997 . S
O1325 C1341 1.235 . S
O1326 Fe1320 2.002 . S
O1326 C1327 1.295 . S
C1327 O1326 1.295 . S
C1327 O1329 1.235 . S
C1328 O1333 1.287 . S
C1328 O1334 1.255 . S
O1329 Fe1321 1.997 . S
O1329 C1327 1.235 . S
C1330 O1336 1.287 . S
C1330 O1337 1.255 . S
O1331 Fe1320 1.976 . S
O1331 C1338 1.287 . S
O1332 Fe1321 1.996 . S
O1332 C1338 1.255 . S
O1333 Fe1323 1.976 . S
O1333 C1328 1.287 . S
O1334 Fe1320 1.996 . S
O1334 C1328 1.255 . S
C1335 O1339 1.295 . S
C1335 O1340 1.235 . S
O1336 Fe1321 1.976 . S
O1336 C1330 1.287 . S
O1337 Fe1323 1.996 . S
O1337 C1330 1.255 . S
C1338 O1331 1.287 . S
C1338 O1332 1.255 . S
O1339 Fe1321 2.002 . S
O1339 C1335 1.295 . S
O1340 Fe1323 1.997 . S
O1340 C1335 1.235 . S
C1341 O1324 1.295 . S
C1341 O1325 1.235 . S
Fe1342 O1344 1.918 . S
Fe1342 O1347 1.997 . S
Fe1342 O1348 2.002 . S
Fe1342 O1353 1.976 . S
Fe1342 O1356 1.996 . S
Fe1343 O1344 1.918 . S
Fe1343 O1351 1.997 . S
Fe1343 O1354 1.996 . S
Fe1343 O1358 1.976 1_554 S
Fe1343 O1361 2.002 . S
O1344 Fe1342 1.918 . S
O1344 Fe1343 1.918 . S
O1344 Fe1345 1.918 . S
Fe1345 O1344 1.918 . S
Fe1345 O1346 2.002 . S
Fe1345 O1355 1.976 . S
Fe1345 O1359 1.996 1_554 S
Fe1345 O1362 1.997 . S
O1346 Fe1345 2.002 . S
O1346 C1363 1.295 . S
O1347 Fe1342 1.997 . S
O1347 C1363 1.235 . S
O1348 Fe1342 2.002 . S
O1348 C1349 1.295 . S
C1349 O1348 1.295 . S
C1349 O1351 1.235 . S
C1350 O1355 1.287 . S
C1350 O1356 1.255 . S
O1351 Fe1343 1.997 . S
O1351 C1349 1.235 . S
C1352 O1358 1.287 . S
C1352 O1359 1.255 . S
O1353 Fe1342 1.976 . S
O1353 C1360 1.287 . S
O1354 Fe1343 1.996 . S
O1354 C1360 1.255 . S
O1355 Fe1345 1.976 . S
O1355 C1350 1.287 . S
O1356 Fe1342 1.996 . S
O1356 C1350 1.255 . S
C1357 O1361 1.295 . S
C1357 O1362 1.235 . S
O1358 Fe1343 1.976 1_556 S
O1358 C1352 1.287 . S
O1359 Fe1345 1.996 1_556 S
O1359 C1352 1.255 . S
C1360 O1353 1.287 . S
C1360 O1354 1.255 . S
O1361 Fe1343 2.002 . S
O1361 C1357 1.295 . S
O1362 Fe1345 1.997 . S
O1362 C1357 1.235 . S
C1363 O1346 1.295 . S
C1363 O1347 1.235 . S
Fe1364 O1366 1.918 . S
Fe1364 O1369 1.997 . S
Fe1364 O1370 2.002 . S
Fe1364 O1375 1.976 . S
Fe1364 O1378 1.996 . S
Fe1365 O1366 1.918 . S
Fe1365 O1373 1.997 . S
Fe1365 O1376 1.996 . S
Fe1365 O1380 1.976 . S
Fe1365 O1383 2.002 . S
O1366 Fe1364 1.918 . S
O1366 Fe1365 1.918 . S
O1366 Fe1367 1.918 . S
Fe1367 O1366 1.918 . S
Fe1367 O1368 2.002 . S
Fe1367 O1377 1.976 . S
Fe1367 O1381 1.996 . S
Fe1367 O1384 1.997 . S
O1368 Fe1367 2.002 . S
O1368 C1385 1.295 . S
O1369 Fe1364 1.997 . S
O1369 C1385 1.235 . S
O1370 Fe1364 2.002 . S
O1370 C1371 1.295 . S
C1371 O1370 1.295 . S
C1371 O1373 1.235 . S
C1372 O1377 1.287 . S
C1372 O1378 1.255 . S
O1373 Fe1365 1.997 . S
O1373 C1371 1.235 . S
C1374 O1380 1.287 . S
C1374 O1381 1.255 . S
O1375 Fe1364 1.976 . S
O1375 C1382 1.287 . S
O1376 Fe1365 1.996 . S
O1376 C1382 1.255 . S
O1377 Fe1367 1.976 . S
O1377 C1372 1.287 . S
O1378 Fe1364 1.996 . S
O1378 C1372 1.255 . S
C1379 O1383 1.295 . S
C1379 O1384 1.235 . S
O1380 Fe1365 1.976 . S
O1380 C1374 1.287 . S
O1381 Fe1367 1.996 . S
O1381 C1374 1.255 . S
C1382 O1375 1.287 . S
C1382 O1376 1.255 . S
O1383 Fe1365 2.002 . S
O1383 C1379 1.295 . S
O1384 Fe1367 1.997 . S
O1384 C1379 1.235 . S
C1385 O1368 1.295 . S
C1385 O1369 1.235 . S
Fe1386 O1388 1.918 . S
Fe1386 O1391 1.997 . S
Fe1386 O1392 2.002 . S
Fe1386 O1397 1.976 . S
Fe1386 O1400 1.996 . S
Fe1387 O1388 1.918 . S
Fe1387 O1395 1.997 . S
Fe1387 O1398 1.996 . S
Fe1387 O1402 1.976 . S
Fe1387 O1405 2.002 . S
O1388 Fe1386 1.918 . S
O1388 Fe1387 1.918 . S
O1388 Fe1389 1.918 . S
Fe1389 O1388 1.918 . S
Fe1389 O1390 2.002 . S
Fe1389 O1399 1.976 . S
Fe1389 O1403 1.996 . S
Fe1389 O1406 1.997 . S
O1390 Fe1389 2.002 . S
O1390 C1407 1.295 . S
O1391 Fe1386 1.997 . S
O1391 C1407 1.235 . S
O1392 Fe1386 2.002 . S
O1392 C1393 1.295 . S
C1393 O1392 1.295 . S
C1393 O1395 1.235 . S
C1394 O1399 1.287 . S
C1394 O1400 1.255 . S
O1395 Fe1387 1.997 . S
O1395 C1393 1.235 . S
C1396 O1402 1.287 . S
C1396 O1403 1.255 . S
O1397 Fe1386 1.976 . S
O1397 C1404 1.287 . S
O1398 Fe1387 1.996 . S
O1398 C1404 1.255 . S
O1399 Fe1389 1.976 . S
O1399 C1394 1.287 . S
O1400 Fe1386 1.996 . S
O1400 C1394 1.255 . S
C1401 O1405 1.295 . S
C1401 O1406 1.235 . S
O1402 Fe1387 1.976 . S
O1402 C1396 1.287 . S
O1403 Fe1389 1.996 . S
O1403 C1396 1.255 . S
C1404 O1397 1.287 . S
C1404 O1398 1.255 . S
O1405 Fe1387 2.002 . S
O1405 C1401 1.295 . S
O1406 Fe1389 1.997 . S
O1406 C1401 1.235 . S
C1407 O1390 1.295 . S
C1407 O1391 1.235 . S
Fe1408 O1410 1.918 . S
Fe1408 O1413 1.997 . S
Fe1408 O1414 2.002 . S
Fe1408 O1419 1.976 . S
Fe1408 O1422 1.996 . S
Fe1409 O1410 1.918 . S
Fe1409 O1417 1.997 . S
Fe1409 O1420 1.996 . S
Fe1409 O1424 1.976 . S
Fe1409 O1427 2.002 . S
O1410 Fe1408 1.918 . S
O1410 Fe1409 1.918 . S
O1410 Fe1411 1.918 . S
Fe1411 O1410 1.918 . S
Fe1411 O1412 2.002 . S
Fe1411 O1421 1.976 . S
Fe1411 O1425 1.996 . S
Fe1411 O1428 1.997 . S
O1412 Fe1411 2.002 . S
O1412 C1429 1.295 . S
O1413 Fe1408 1.997 . S
O1413 C1429 1.235 . S
O1414 Fe1408 2.002 . S
O1414 C1415 1.295 . S
C1415 O1414 1.295 . S
C1415 O1417 1.235 . S
C1416 O1421 1.287 . S
C1416 O1422 1.255 . S
O1417 Fe1409 1.997 . S
O1417 C1415 1.235 . S
C1418 O1424 1.287 . S
C1418 O1425 1.255 . S
O1419 Fe1408 1.976 . S
O1419 C1426 1.287 . S
O1420 Fe1409 1.996 . S
O1420 C1426 1.255 . S
O1421 Fe1411 1.976 . S
O1421 C1416 1.287 . S
O1422 Fe1408 1.996 . S
O1422 C1416 1.255 . S
C1423 O1427 1.295 . S
C1423 O1428 1.235 . S
O1424 Fe1409 1.976 . S
O1424 C1418 1.287 . S
O1425 Fe1411 1.996 . S
O1425 C1418 1.255 . S
C1426 O1419 1.287 . S
C1426 O1420 1.255 . S
O1427 Fe1409 2.002 . S
O1427 C1423 1.295 . S
O1428 Fe1411 1.997 . S
O1428 C1423 1.235 . S
C1429 O1412 1.295 . S
C1429 O1413 1.235 . S
Fe1430 O1432 1.918 . S
Fe1430 O1435 1.997 . S
Fe1430 O1436 2.002 . S
Fe1430 O1441 1.976 . S
Fe1430 O1444 1.996 . S
Fe1431 O1432 1.918 . S
Fe1431 O1439 1.997 . S
Fe1431 O1442 1.996 . S
Fe1431 O1446 1.976 . S
Fe1431 O1449 2.002 . S
O1432 Fe1430 1.918 . S
O1432 Fe1431 1.918 . S
O1432 Fe1433 1.918 . S
Fe1433 O1432 1.918 . S
Fe1433 O1434 2.002 . S
Fe1433 O1443 1.976 . S
Fe1433 O1447 1.996 . S
Fe1433 O1450 1.997 . S
O1434 Fe1433 2.002 . S
O1434 C1451 1.295 . S
O1435 Fe1430 1.997 . S
O1435 C1451 1.235 . S
O1436 Fe1430 2.002 . S
O1436 C1437 1.295 . S
C1437 O1436 1.295 . S
C1437 O1439 1.235 . S
C1438 O1443 1.287 . S
C1438 O1444 1.255 . S
O1439 Fe1431 1.997 . S
O1439 C1437 1.235 . S
C1440 O1446 1.287 . S
C1440 O1447 1.255 . S
O1441 Fe1430 1.976 . S
O1441 C1448 1.287 . S
O1442 Fe1431 1.996 . S
O1442 C1448 1.255 . S
O1443 Fe1433 1.976 . S
O1443 C1438 1.287 . S
O1444 Fe1430 1.996 . S
O1444 C1438 1.255 . S
C1445 O1449 1.295 . S
C1445 O1450 1.235 . S
O1446 Fe1431 1.976 . S
O1446 C1440 1.287 . S
O1447 Fe1433 1.996 . S
O1447 C1440 1.255 . S
C1448 O1441 1.287 . S
C1448 O1442 1.255 . S
O1449 Fe1431 2.002 . S
O1449 C1445 1.295 . S
O1450 Fe1433 1.997 . S
O1450 C1445 1.235 . S
C1451 O1434 1.295 . S
C1451 O1435 1.235 . S
Fe1452 O1454 1.918 . S
Fe1452 O1457 1.997 . S
Fe1452 O1458 2.002 . S
Fe1452 O1463 1.976 . S
Fe1452 O1466 1.996 1_565 S
Fe1453 O1454 1.918 . S
Fe1453 O1461 1.997 . S
Fe1453 O1464 1.996 . S
Fe1453 O1468 1.976 . S
Fe1453 O1471 2.002 . S
O1454 Fe1452 1.918 . S
O1454 Fe1453 1.918 . S
O1454 Fe1455 1.918 . S
Fe1455 O1454 1.918 . S
Fe1455 O1456 2.002 . S
Fe1455 O1465 1.976 1_565 S
Fe1455 O1469 1.996 . S
Fe1455 O1472 1.997 . S
O1456 Fe1455 2.002 . S
O1456 C1473 1.295 . S
O1457 Fe1452 1.997 . S
O1457 C1473 1.235 . S
O1458 Fe1452 2.002 . S
O1458 C1459 1.295 . S
C1459 O1458 1.295 . S
C1459 O1461 1.235 . S
C1460 O1465 1.287 . S
C1460 O1466 1.255 . S
O1461 Fe1453 1.997 . S
O1461 C1459 1.235 . S
C1462 O1468 1.287 . S
C1462 O1469 1.255 . S
O1463 Fe1452 1.976 . S
O1463 C1470 1.287 . S
O1464 Fe1453 1.996 . S
O1464 C1470 1.255 . S
O1465 Fe1455 1.976 1_545 S
O1465 C1460 1.287 . S
O1466 Fe1452 1.996 1_545 S
O1466 C1460 1.255 . S
C1467 O1471 1.295 . S
C1467 O1472 1.235 . S
O1468 Fe1453 1.976 . S
O1468 C1462 1.287 . S
O1469 Fe1455 1.996 . S
O1469 C1462 1.255 . S
C1470 O1463 1.287 . S
C1470 O1464 1.255 . S
O1471 Fe1453 2.002 . S
O1471 C1467 1.295 . S
O1472 Fe1455 1.997 . S
O1472 C1467 1.235 . S
C1473 O1456 1.295 . S
C1473 O1457 1.235 . S
Fe1474 O1476 1.918 . S
Fe1474 O1479 1.997 . S
Fe1474 O1480 2.002 . S
Fe1474 O1485 1.976 . S
Fe1474 O1488 1.996 . S
Fe1475 O1476 1.918 . S
Fe1475 O1483 1.997 . S
Fe1475 O1486 1.996 . S
Fe1475 O1490 1.976 . S
Fe1475 O1493 2.002 . S
O1476 Fe1474 1.918 . S
O1476 Fe1475 1.918 . S
O1476 Fe1477 1.918 . S
Fe1477 O1476 1.918 . S
Fe1477 O1478 2.002 . S
Fe1477 O1487 1.976 . S
Fe1477 O1491 1.996 . S
Fe1477 O1494 1.997 . S
O1478 Fe1477 2.002 . S
O1478 C1495 1.295 . S
O1479 Fe1474 1.997 . S
O1479 C1495 1.235 . S
O1480 Fe1474 2.002 . S
O1480 C1481 1.295 . S
C1481 O1480 1.295 . S
C1481 O1483 1.235 . S
C1482 O1487 1.287 . S
C1482 O1488 1.255 . S
O1483 Fe1475 1.997 . S
O1483 C1481 1.235 . S
C1484 O1490 1.287 . S
C1484 O1491 1.255 . S
O1485 Fe1474 1.976 . S
O1485 C1492 1.287 . S
O1486 Fe1475 1.996 . S
O1486 C1492 1.255 . S
O1487 Fe1477 1.976 . S
O1487 C1482 1.287 . S
O1488 Fe1474 1.996 . S
O1488 C1482 1.255 . S
C1489 O1493 1.295 . S
C1489 O1494 1.235 . S
O1490 Fe1475 1.976 . S
O1490 C1484 1.287 . S
O1491 Fe1477 1.996 . S
O1491 C1484 1.255 . S
C1492 O1485 1.287 . S
C1492 O1486 1.255 . S
O1493 Fe1475 2.002 . S
O1493 C1489 1.295 . S
O1494 Fe1477 1.997 . S
O1494 C1489 1.235 . S
C1495 O1478 1.295 . S
C1495 O1479 1.235 . S
Fe1496 O1498 1.918 . S
Fe1496 O1501 1.997 . S
Fe1496 O1502 2.002 . S
Fe1496 O1507 1.976 . S
Fe1496 O1510 1.996 . S
Fe1497 O1498 1.918 . S
Fe1497 O1505 1.997 . S
Fe1497 O1508 1.996 . S
Fe1497 O1512 1.976 . S
Fe1497 O1515 2.002 . S
O1498 Fe1496 1.918 . S
O1498 Fe1497 1.918 . S
O1498 Fe1499 1.918 . S
Fe1499 O1498 1.918 . S
Fe1499 O1500 2.002 . S
Fe1499 O1509 1.976 . S
Fe1499 O1513 1.996 . S
Fe1499 O1516 1.997 . S
O1500 Fe1499 2.002 . S
O1500 C1517 1.295 . S
O1501 Fe1496 1.997 . S
O1501 C1517 1.235 . S
O1502 Fe1496 2.002 . S
O1502 C1503 1.295 . S
C1503 O1502 1.295 . S
C1503 O1505 1.235 . S
C1504 O1509 1.287 . S
C1504 O1510 1.255 . S
O1505 Fe1497 1.997 . S
O1505 C1503 1.235 . S
C1506 O1512 1.287 . S
C1506 O1513 1.255 . S
O1507 Fe1496 1.976 . S
O1507 C1514 1.287 . S
O1508 Fe1497 1.996 . S
O1508 C1514 1.255 . S
O1509 Fe1499 1.976 . S
O1509 C1504 1.287 . S
O1510 Fe1496 1.996 . S
O1510 C1504 1.255 . S
C1511 O1515 1.295 . S
C1511 O1516 1.235 . S
O1512 Fe1497 1.976 . S
O1512 C1506 1.287 . S
O1513 Fe1499 1.996 . S
O1513 C1506 1.255 . S
C1514 O1507 1.287 . S
C1514 O1508 1.255 . S
O1515 Fe1497 2.002 . S
O1515 C1511 1.295 . S
O1516 Fe1499 1.997 . S
O1516 C1511 1.235 . S
C1517 O1500 1.295 . S
C1517 O1501 1.235 . S
Fe1518 O1520 1.918 . S
Fe1518 O1523 1.997 . S
Fe1518 O1524 2.002 . S
Fe1518 O1529 1.976 . S
Fe1518 O1532 1.996 . S
Fe1519 O1520 1.918 . S
Fe1519 O1527 1.997 . S
Fe1519 O1530 1.996 . S
Fe1519 O1534 1.976 . S
Fe1519 O1537 2.002 . S
O1520 Fe1518 1.918 . S
O1520 Fe1519 1.918 . S
O1520 Fe1521 1.918 . S
Fe1521 O1520 1.918 . S
Fe1521 O1522 2.002 . S
Fe1521 O1531 1.976 . S
Fe1521 O1535 1.996 . S
Fe1521 O1538 1.997 . S
O1522 Fe1521 2.002 . S
O1522 C1539 1.295 . S
O1523 Fe1518 1.997 . S
O1523 C1539 1.235 . S
O1524 Fe1518 2.002 . S
O1524 C1525 1.295 . S
C1525 O1524 1.295 . S
C1525 O1527 1.235 . S
C1526 O1531 1.287 . S
C1526 O1532 1.255 . S
O1527 Fe1519 1.997 . S
O1527 C1525 1.235 . S
C1528 O1534 1.287 . S
C1528 O1535 1.255 . S
O1529 Fe1518 1.976 . S
O1529 C1536 1.287 . S
O1530 Fe1519 1.996 . S
O1530 C1536 1.255 . S
O1531 Fe1521 1.976 . S
O1531 C1526 1.287 . S
O1532 Fe1518 1.996 . S
O1532 C1526 1.255 . S
C1533 O1537 1.295 . S
C1533 O1538 1.235 . S
O1534 Fe1519 1.976 . S
O1534 C1528 1.287 . S
O1535 Fe1521 1.996 . S
O1535 C1528 1.255 . S
C1536 O1529 1.287 . S
C1536 O1530 1.255 . S
O1537 Fe1519 2.002 . S
O1537 C1533 1.295 . S
O1538 Fe1521 1.997 . S
O1538 C1533 1.235 . S
C1539 O1522 1.295 . S
C1539 O1523 1.235 . S
Fe1540 O1542 1.918 . S
Fe1540 O1545 1.997 . S
Fe1540 O1546 2.002 . S
Fe1540 O1551 1.976 . S
Fe1540 O1554 1.996 . S
Fe1541 O1542 1.918 . S
Fe1541 O1549 1.997 . S
Fe1541 O1552 1.996 . S
Fe1541 O1556 1.976 1_545 S
Fe1541 O1559 2.002 . S
O1542 Fe1540 1.918 . S
O1542 Fe1541 1.918 . S
O1542 Fe1543 1.918 . S
Fe1543 O1542 1.918 . S
Fe1543 O1544 2.002 . S
Fe1543 O1553 1.976 . S
Fe1543 O1557 1.996 1_545 S
Fe1543 O1560 1.997 . S
O1544 Fe1543 2.002 . S
O1544 C1561 1.295 . S
O1545 Fe1540 1.997 . S
O1545 C1561 1.235 . S
O1546 Fe1540 2.002 . S
O1546 C1547 1.295 . S
C1547 O1546 1.295 . S
C1547 O1549 1.235 . S
C1548 O1553 1.287 . S
C1548 O1554 1.255 . S
O1549 Fe1541 1.997 . S
O1549 C1547 1.235 . S
C1550 O1556 1.287 . S
C1550 O1557 1.255 . S
O1551 Fe1540 1.976 . S
O1551 C1558 1.287 . S
O1552 Fe1541 1.996 . S
O1552 C1558 1.255 . S
O1553 Fe1543 1.976 . S
O1553 C1548 1.287 . S
O1554 Fe1540 1.996 . S
O1554 C1548 1.255 . S
C1555 O1559 1.295 . S
C1555 O1560 1.235 . S
O1556 Fe1541 1.976 1_565 S
O1556 C1550 1.287 . S
O1557 Fe1543 1.996 1_565 S
O1557 C1550 1.255 . S
C1558 O1551 1.287 . S
C1558 O1552 1.255 . S
O1559 Fe1541 2.002 . S
O1559 C1555 1.295 . S
O1560 Fe1543 1.997 . S
O1560 C1555 1.235 . S
C1561 O1544 1.295 . S
C1561 O1545 1.235 . S
Fe1562 O1564 1.918 . S
Fe1562 O1567 1.997 1_655 S
Fe1562 O1568 2.002 . S
Fe1562 O1573 1.976 1_565 S
Fe1562 O1576 1.996 1_655 S
Fe1563 O1564 1.918 . S
Fe1563 O1571 1.997 . S
Fe1563 O1574 1.996 1_565 S
Fe1563 O1578 1.976 . S
Fe1563 O1581 2.002 . S
O1564 Fe1562 1.918 . S
O1564 Fe1563 1.918 . S
O1564 Fe1565 1.918 . S
Fe1565 O1564 1.918 . S
Fe1565 O1566 2.002 1_655 S
Fe1565 O1575 1.976 1_655 S
Fe1565 O1579 1.996 . S
Fe1565 O1582 1.997 . S
O1566 Fe1565 2.002 1_455 S
O1566 C1583 1.295 . S
O1567 Fe1562 1.997 1_455 S
O1567 C1583 1.235 . S
O1568 Fe1562 2.002 . S
O1568 C1569 1.295 . S
C1569 O1568 1.295 . S
C1569 O1571 1.235 . S
C1570 O1575 1.287 . S
C1570 O1576 1.255 . S
O1571 Fe1563 1.997 . S
O1571 C1569 1.235 . S
C1572 O1578 1.287 . S
C1572 O1579 1.255 . S
O1573 Fe1562 1.976 1_545 S
O1573 C1580 1.287 . S
O1574 Fe1563 1.996 1_545 S
O1574 C1580 1.255 . S
O1575 Fe1565 1.976 1_455 S
O1575 C1570 1.287 . S
O1576 Fe1562 1.996 1_455 S
O1576 C1570 1.255 . S
C1577 O1581 1.295 . S
C1577 O1582 1.235 . S
O1578 Fe1563 1.976 . S
O1578 C1572 1.287 . S
O1579 Fe1565 1.996 . S
O1579 C1572 1.255 . S
C1580 O1573 1.287 . S
C1580 O1574 1.255 . S
O1581 Fe1563 2.002 . S
O1581 C1577 1.295 . S
O1582 Fe1565 1.997 . S
O1582 C1577 1.235 . S
C1583 O1566 1.295 . S
C1583 O1567 1.235 . S
Fe1584 O1586 1.918 . S
Fe1584 O1589 1.997 . S
Fe1584 O1590 2.002 . S
Fe1584 O1595 1.976 . S
Fe1584 O1598 1.996 . S
Fe1585 O1586 1.918 . S
Fe1585 O1593 1.997 . S
Fe1585 O1596 1.996 . S
Fe1585 O1600 1.976 . S
Fe1585 O1603 2.002 . S
O1586 Fe1584 1.918 . S
O1586 Fe1585 1.918 . S
O1586 Fe1587 1.918 . S
Fe1587 O1586 1.918 . S
Fe1587 O1588 2.002 . S
Fe1587 O1597 1.976 . S
Fe1587 O1601 1.996 . S
Fe1587 O1604 1.997 . S
O1588 Fe1587 2.002 . S
O1588 C1605 1.295 . S
O1589 Fe1584 1.997 . S
O1589 C1605 1.235 . S
O1590 Fe1584 2.002 . S
O1590 C1591 1.295 . S
C1591 O1590 1.295 . S
C1591 O1593 1.235 . S
C1592 O1597 1.287 . S
C1592 O1598 1.255 . S
O1593 Fe1585 1.997 . S
O1593 C1591 1.235 . S
C1594 O1600 1.287 . S
C1594 O1601 1.255 . S
O1595 Fe1584 1.976 . S
O1595 C1602 1.287 . S
O1596 Fe1585 1.996 . S
O1596 C1602 1.255 . S
O1597 Fe1587 1.976 . S
O1597 C1592 1.287 . S
O1598 Fe1584 1.996 . S
O1598 C1592 1.255 . S
C1599 O1603 1.295 . S
C1599 O1604 1.235 . S
O1600 Fe1585 1.976 . S
O1600 C1594 1.287 . S
O1601 Fe1587 1.996 . S
O1601 C1594 1.255 . S
C1602 O1595 1.287 . S
C1602 O1596 1.255 . S
O1603 Fe1585 2.002 . S
O1603 C1599 1.295 . S
O1604 Fe1587 1.997 . S
O1604 C1599 1.235 . S
C1605 O1588 1.295 . S
C1605 O1589 1.235 . S
Fe1606 O1608 1.918 . S
Fe1606 O1611 1.997 . S
Fe1606 O1612 2.002 . S
Fe1606 O1617 1.976 . S
Fe1606 O1620 1.996 . S
Fe1607 O1608 1.918 . S
Fe1607 O1615 1.997 . S
Fe1607 O1618 1.996 . S
Fe1607 O1622 1.976 1_556 S
Fe1607 O1625 2.002 1_556 S
O1608 Fe1606 1.918 . S
O1608 Fe1607 1.918 . S
O1608 Fe1609 1.918 . S
Fe1609 O1608 1.918 . S
Fe1609 O1610 2.002 . S
Fe1609 O1619 1.976 . S
Fe1609 O1623 1.996 1_556 S
Fe1609 O1626 1.997 1_556 S
O1610 Fe1609 2.002 . S
O1610 C1627 1.295 . S
O1611 Fe1606 1.997 . S
O1611 C1627 1.235 . S
O1612 Fe1606 2.002 . S
O1612 C1613 1.295 . S
C1613 O1612 1.295 . S
C1613 O1615 1.235 . S
C1614 O1619 1.287 . S
C1614 O1620 1.255 . S
O1615 Fe1607 1.997 . S
O1615 C1613 1.235 . S
C1616 O1622 1.287 . S
C1616 O1623 1.255 . S
O1617 Fe1606 1.976 . S
O1617 C1624 1.287 . S
O1618 Fe1607 1.996 . S
O1618 C1624 1.255 . S
O1619 Fe1609 1.976 . S
O1619 C1614 1.287 . S
O1620 Fe1606 1.996 . S
O1620 C1614 1.255 . S
C1621 O1625 1.295 . S
C1621 O1626 1.235 . S
O1622 Fe1607 1.976 1_554 S
O1622 C1616 1.287 . S
O1623 Fe1609 1.996 1_554 S
O1623 C1616 1.255 . S
C1624 O1617 1.287 . S
C1624 O1618 1.255 . S
O1625 Fe1607 2.002 1_554 S
O1625 C1621 1.295 . S
O1626 Fe1609 1.997 1_554 S
O1626 C1621 1.235 . S
C1627 O1610 1.295 . S
C1627 O1611 1.235 . S
Fe1628 O1630 1.918 . S
Fe1628 O1633 1.997 . S
Fe1628 O1634 2.002 . S
Fe1628 O1639 1.976 . S
Fe1628 O1642 1.996 . S
Fe1629 O1630 1.918 . S
Fe1629 O1637 1.997 . S
Fe1629 O1640 1.996 . S
Fe1629 O1644 1.976 . S
Fe1629 O1647 2.002 . S
O1630 Fe1628 1.918 . S
O1630 Fe1629 1.918 . S
O1630 Fe1631 1.918 . S
Fe1631 O1630 1.918 . S
Fe1631 O1632 2.002 . S
Fe1631 O1641 1.976 . S
Fe1631 O1645 1.996 . S
Fe1631 O1648 1.997 . S
O1632 Fe1631 2.002 . S
O1632 C1649 1.295 . S
O1633 Fe1628 1.997 . S
O1633 C1649 1.235 . S
O1634 Fe1628 2.002 . S
O1634 C1635 1.295 . S
C1635 O1634 1.295 . S
C1635 O1637 1.235 . S
C1636 O1641 1.287 . S
C1636 O1642 1.255 . S
O1637 Fe1629 1.997 . S
O1637 C1635 1.235 . S
C1638 O1644 1.287 . S
C1638 O1645 1.255 . S
O1639 Fe1628 1.976 . S
O1639 C1646 1.287 . S
O1640 Fe1629 1.996 . S
O1640 C1646 1.255 . S
O1641 Fe1631 1.976 . S
O1641 C1636 1.287 . S
O1642 Fe1628 1.996 . S
O1642 C1636 1.255 . S
C1643 O1647 1.295 . S
C1643 O1648 1.235 . S
O1644 Fe1629 1.976 . S
O1644 C1638 1.287 . S
O1645 Fe1631 1.996 . S
O1645 C1638 1.255 . S
C1646 O1639 1.287 . S
C1646 O1640 1.255 . S
O1647 Fe1629 2.002 . S
O1647 C1643 1.295 . S
O1648 Fe1631 1.997 . S
O1648 C1643 1.235 . S
C1649 O1632 1.295 . S
C1649 O1633 1.235 . S
Fe1650 O1652 1.918 . S
Fe1650 O1655 1.997 . S
Fe1650 O1656 2.002 . S
Fe1650 O1661 1.976 . S
Fe1650 O1664 1.996 1_455 S
Fe1651 O1652 1.918 . S
Fe1651 O1659 1.997 . S
Fe1651 O1662 1.996 . S
Fe1651 O1666 1.976 . S
Fe1651 O1669 2.002 . S
O1652 Fe1650 1.918 . S
O1652 Fe1651 1.918 . S
O1652 Fe1653 1.918 . S
Fe1653 O1652 1.918 . S
Fe1653 O1654 2.002 . S
Fe1653 O1663 1.976 1_455 S
Fe1653 O1667 1.996 . S
Fe1653 O1670 1.997 . S
O1654 Fe1653 2.002 . S
O1654 C1671 1.295 . S
O1655 Fe1650 1.997 . S
O1655 C1671 1.235 . S
O1656 Fe1650 2.002 . S
O1656 C1657 1.295 . S
C1657 O1656 1.295 . S
C1657 O1659 1.235 . S
C1658 O1663 1.287 . S
C1658 O1664 1.255 . S
O1659 Fe1651 1.997 . S
O1659 C1657 1.235 . S
C1660 O1666 1.287 . S
C1660 O1667 1.255 . S
O1661 Fe1650 1.976 . S
O1661 C1668 1.287 . S
O1662 Fe1651 1.996 . S
O1662 C1668 1.255 . S
O1663 Fe1653 1.976 1_655 S
O1663 C1658 1.287 . S
O1664 Fe1650 1.996 1_655 S
O1664 C1658 1.255 . S
C1665 O1669 1.295 . S
C1665 O1670 1.235 . S
O1666 Fe1651 1.976 . S
O1666 C1660 1.287 . S
O1667 Fe1653 1.996 . S
O1667 C1660 1.255 . S
C1668 O1661 1.287 . S
C1668 O1662 1.255 . S
O1669 Fe1651 2.002 . S
O1669 C1665 1.295 . S
O1670 Fe1653 1.997 . S
O1670 C1665 1.235 . S
C1671 O1654 1.295 . S
C1671 O1655 1.235 . S
Fe1672 O1674 1.918 . S
Fe1672 O1677 1.997 . S
Fe1672 O1678 2.002 . S
Fe1672 O1683 1.976 . S
Fe1672 O1686 1.996 . S
Fe1673 O1674 1.918 . S
Fe1673 O1681 1.997 . S
Fe1673 O1684 1.996 . S
Fe1673 O1688 1.976 . S
Fe1673 O1691 2.002 . S
O1674 Fe1672 1.918 . S
O1674 Fe1673 1.918 . S
O1674 Fe1675 1.918 . S
Fe1675 O1674 1.918 . S
Fe1675 O1676 2.002 . S
Fe1675 O1685 1.976 . S
Fe1675 O1689 1.996 . S
Fe1675 O1692 1.997 . S
O1676 Fe1675 2.002 . S
O1676 C1693 1.295 . S
O1677 Fe1672 1.997 . S
O1677 C1693 1.235 . S
O1678 Fe1672 2.002 . S
O1678 C1679 1.295 . S
C1679 O1678 1.295 . S
C1679 O1681 1.235 . S
C1680 O1685 1.287 . S
C1680 O1686 1.255 . S
O1681 Fe1673 1.997 . S
O1681 C1679 1.235 . S
C1682 O1688 1.287 . S
C1682 O1689 1.255 . S
O1683 Fe1672 1.976 . S
O1683 C1690 1.287 . S
O1684 Fe1673 1.996 . S
O1684 C1690 1.255 . S
O1685 Fe1675 1.976 . S
O1685 C1680 1.287 . S
O1686 Fe1672 1.996 . S
O1686 C1680 1.255 . S
C1687 O1691 1.295 . S
C1687 O1692 1.235 . S
O1688 Fe1673 1.976 . S
O1688 C1682 1.287 . S
O1689 Fe1675 1.996 . S
O1689 C1682 1.255 . S
C1690 O1683 1.287 . S
C1690 O1684 1.255 . S
O1691 Fe1673 2.002 . S
O1691 C1687 1.295 . S
O1692 Fe1675 1.997 . S
O1692 C1687 1.235 . S
C1693 O1676 1.295 . S
C1693 O1677 1.235 . S
Fe1694 O1696 1.918 . S
Fe1694 O1699 1.997 . S
Fe1694 O1700 2.002 . S
Fe1694 O1705 1.976 1_455 S
Fe1694 O1708 1.996 . S
Fe1695 O1696 1.918 . S
Fe1695 O1703 1.997 . S
Fe1695 O1706 1.996 1_455 S
Fe1695 O1710 1.976 1_554 S
Fe1695 O1713 2.002 1_554 S
O1696 Fe1694 1.918 . S
O1696 Fe1695 1.918 . S
O1696 Fe1697 1.918 . S
Fe1697 O1696 1.918 . S
Fe1697 O1698 2.002 . S
Fe1697 O1707 1.976 . S
Fe1697 O1711 1.996 1_554 S
Fe1697 O1714 1.997 1_554 S
O1698 Fe1697 2.002 . S
O1698 C1715 1.295 . S
O1699 Fe1694 1.997 . S
O1699 C1715 1.235 . S
O1700 Fe1694 2.002 . S
O1700 C1701 1.295 . S
C1701 O1700 1.295 . S
C1701 O1703 1.235 . S
C1702 O1707 1.287 . S
C1702 O1708 1.255 . S
O1703 Fe1695 1.997 . S
O1703 C1701 1.235 . S
C1704 O1710 1.287 . S
C1704 O1711 1.255 . S
O1705 Fe1694 1.976 1_655 S
O1705 C1712 1.287 . S
O1706 Fe1695 1.996 1_655 S
O1706 C1712 1.255 . S
O1707 Fe1697 1.976 . S
O1707 C1702 1.287 . S
O1708 Fe1694 1.996 . S
O1708 C1702 1.255 . S
C1709 O1713 1.295 . S
C1709 O1714 1.235 . S
O1710 Fe1695 1.976 1_556 S
O1710 C1704 1.287 . S
O1711 Fe1697 1.996 1_556 S
O1711 C1704 1.255 . S
C1712 O1705 1.287 . S
C1712 O1706 1.255 . S
O1713 Fe1695 2.002 1_556 S
O1713 C1709 1.295 . S
O1714 Fe1697 1.997 1_556 S
O1714 C1709 1.235 . S
C1715 O1698 1.295 . S
C1715 O1699 1.235 . S
Fe1716 O1718 1.918 . S
Fe1716 O1721 1.997 . S
Fe1716 O1722 2.002 . S
Fe1716 O1727 1.976 . S
Fe1716 O1730 1.996 . S
Fe1717 O1718 1.918 . S
Fe1717 O1725 1.997 . S
Fe1717 O1728 1.996 . S
Fe1717 O1732 1.976 . S
Fe1717 O1735 2.002 . S
O1718 Fe1716 1.918 . S
O1718 Fe1717 1.918 . S
O1718 Fe1719 1.918 . S
Fe1719 O1718 1.918 . S
Fe1719 O1720 2.002 . S
Fe1719 O1729 1.976 . S
Fe1719 O1733 1.996 . S
Fe1719 O1736 1.997 . S
O1720 Fe1719 2.002 . S
O1720 C1737 1.295 . S
O1721 Fe1716 1.997 . S
O1721 C1737 1.235 . S
O1722 Fe1716 2.002 . S
O1722 C1723 1.295 . S
C1723 O1722 1.295 . S
C1723 O1725 1.235 . S
C1724 O1729 1.287 . S
C1724 O1730 1.255 . S
O1725 Fe1717 1.997 . S
O1725 C1723 1.235 . S
C1726 O1732 1.287 . S
C1726 O1733 1.255 . S
O1727 Fe1716 1.976 . S
O1727 C1734 1.287 . S
O1728 Fe1717 1.996 . S
O1728 C1734 1.255 . S
O1729 Fe1719 1.976 . S
O1729 C1724 1.287 . S
O1730 Fe1716 1.996 . S
O1730 C1724 1.255 . S
C1731 O1735 1.295 . S
C1731 O1736 1.235 . S
O1732 Fe1717 1.976 . S
O1732 C1726 1.287 . S
O1733 Fe1719 1.996 . S
O1733 C1726 1.255 . S
C1734 O1727 1.287 . S
C1734 O1728 1.255 . S
O1735 Fe1717 2.002 . S
O1735 C1731 1.295 . S
O1736 Fe1719 1.997 . S
O1736 C1731 1.235 . S
C1737 O1720 1.295 . S
C1737 O1721 1.235 . S
Fe1738 O1740 1.918 . S
Fe1738 O1743 1.997 . S
Fe1738 O1744 2.002 . S
Fe1738 O1749 1.976 . S
Fe1738 O1752 1.996 . S
Fe1739 O1740 1.918 . S
Fe1739 O1747 1.997 . S
Fe1739 O1750 1.996 . S
Fe1739 O1754 1.976 . S
Fe1739 O1757 2.002 . S
O1740 Fe1738 1.918 . S
O1740 Fe1739 1.918 . S
O1740 Fe1741 1.918 . S
Fe1741 O1740 1.918 . S
Fe1741 O1742 2.002 . S
Fe1741 O1751 1.976 . S
Fe1741 O1755 1.996 . S
Fe1741 O1758 1.997 . S
O1742 Fe1741 2.002 . S
O1742 C1759 1.295 . S
O1743 Fe1738 1.997 . S
O1743 C1759 1.235 . S
O1744 Fe1738 2.002 . S
O1744 C1745 1.295 . S
C1745 O1744 1.295 . S
C1745 O1747 1.235 . S
C1746 O1751 1.287 . S
C1746 O1752 1.255 . S
O1747 Fe1739 1.997 . S
O1747 C1745 1.235 . S
C1748 O1754 1.287 . S
C1748 O1755 1.255 . S
O1749 Fe1738 1.976 . S
O1749 C1756 1.287 . S
O1750 Fe1739 1.996 . S
O1750 C1756 1.255 . S
O1751 Fe1741 1.976 . S
O1751 C1746 1.287 . S
O1752 Fe1738 1.996 . S
O1752 C1746 1.255 . S
C1753 O1757 1.295 . S
C1753 O1758 1.235 . S
O1754 Fe1739 1.976 . S
O1754 C1748 1.287 . S
O1755 Fe1741 1.996 . S
O1755 C1748 1.255 . S
C1756 O1749 1.287 . S
C1756 O1750 1.255 . S
O1757 Fe1739 2.002 . S
O1757 C1753 1.295 . S
O1758 Fe1741 1.997 . S
O1758 C1753 1.235 . S
C1759 O1742 1.295 . S
C1759 O1743 1.235 . S
Fe1760 O1762 1.918 . S
Fe1760 O1765 1.997 . S
Fe1760 O1766 2.002 . S
Fe1760 O1771 1.976 . S
Fe1760 O1774 1.996 . S
Fe1761 O1762 1.918 . S
Fe1761 O1769 1.997 . S
Fe1761 O1772 1.996 . S
Fe1761 O1776 1.976 . S
Fe1761 O1779 2.002 . S
O1762 Fe1760 1.918 . S
O1762 Fe1761 1.918 . S
O1762 Fe1763 1.918 . S
Fe1763 O1762 1.918 . S
Fe1763 O1764 2.002 . S
Fe1763 O1773 1.976 . S
Fe1763 O1777 1.996 . S
Fe1763 O1780 1.997 . S
O1764 Fe1763 2.002 . S
O1764 C1781 1.295 . S
O1765 Fe1760 1.997 . S
O1765 C1781 1.235 . S
O1766 Fe1760 2.002 . S
O1766 C1767 1.295 . S
C1767 O1766 1.295 . S
C1767 O1769 1.235 . S
C1768 O1773 1.287 . S
C1768 O1774 1.255 . S
O1769 Fe1761 1.997 . S
O1769 C1767 1.235 . S
C1770 O1776 1.287 . S
C1770 O1777 1.255 . S
O1771 Fe1760 1.976 . S
O1771 C1778 1.287 . S
O1772 Fe1761 1.996 . S
O1772 C1778 1.255 . S
O1773 Fe1763 1.976 . S
O1773 C1768 1.287 . S
O1774 Fe1760 1.996 . S
O1774 C1768 1.255 . S
C1775 O1779 1.295 . S
C1775 O1780 1.235 . S
O1776 Fe1761 1.976 . S
O1776 C1770 1.287 . S
O1777 Fe1763 1.996 . S
O1777 C1770 1.255 . S
C1778 O1771 1.287 . S
C1778 O1772 1.255 . S
O1779 Fe1761 2.002 . S
O1779 C1775 1.295 . S
O1780 Fe1763 1.997 . S
O1780 C1775 1.235 . S
C1781 O1764 1.295 . S
C1781 O1765 1.235 . S
Fe1782 O1784 1.918 . S
Fe1782 O1787 1.997 . S
Fe1782 O1788 2.002 . S
Fe1782 O1793 1.976 . S
Fe1782 O1796 1.996 . S
Fe1783 O1784 1.918 . S
Fe1783 O1791 1.997 . S
Fe1783 O1794 1.996 . S
Fe1783 O1798 1.976 1_554 S
Fe1783 O1801 2.002 . S
O1784 Fe1782 1.918 . S
O1784 Fe1783 1.918 . S
O1784 Fe1785 1.918 . S
Fe1785 O1784 1.918 . S
Fe1785 O1786 2.002 . S
Fe1785 O1795 1.976 . S
Fe1785 O1799 1.996 1_554 S
Fe1785 O1802 1.997 . S
O1786 Fe1785 2.002 . S
O1786 C1803 1.295 . S
O1787 Fe1782 1.997 . S
O1787 C1803 1.235 . S
O1788 Fe1782 2.002 . S
O1788 C1789 1.295 . S
C1789 O1788 1.295 . S
C1789 O1791 1.235 . S
C1790 O1795 1.287 . S
C1790 O1796 1.255 . S
O1791 Fe1783 1.997 . S
O1791 C1789 1.235 . S
C1792 O1798 1.287 . S
C1792 O1799 1.255 . S
O1793 Fe1782 1.976 . S
O1793 C1800 1.287 . S
O1794 Fe1783 1.996 . S
O1794 C1800 1.255 . S
O1795 Fe1785 1.976 . S
O1795 C1790 1.287 . S
O1796 Fe1782 1.996 . S
O1796 C1790 1.255 . S
C1797 O1801 1.295 . S
C1797 O1802 1.235 . S
O1798 Fe1783 1.976 1_556 S
O1798 C1792 1.287 . S
O1799 Fe1785 1.996 1_556 S
O1799 C1792 1.255 . S
C1800 O1793 1.287 . S
C1800 O1794 1.255 . S
O1801 Fe1783 2.002 . S
O1801 C1797 1.295 . S
O1802 Fe1785 1.997 . S
O1802 C1797 1.235 . S
C1803 O1786 1.295 . S
C1803 O1787 1.235 . S
Fe1804 O1806 1.918 . S
Fe1804 O1809 1.997 . S
Fe1804 O1810 2.002 . S
Fe1804 O1815 1.976 . S
Fe1804 O1818 1.996 . S
Fe1805 O1806 1.918 . S
Fe1805 O1813 1.997 . S
Fe1805 O1816 1.996 . S
Fe1805 O1820 1.976 . S
Fe1805 O1823 2.002 . S
O1806 Fe1804 1.918 . S
O1806 Fe1805 1.918 . S
O1806 Fe1807 1.918 . S
Fe1807 O1806 1.918 . S
Fe1807 O1808 2.002 . S
Fe1807 O1817 1.976 . S
Fe1807 O1821 1.996 . S
Fe1807 O1824 1.997 . S
O1808 Fe1807 2.002 . S
O1808 C1825 1.295 . S
O1809 Fe1804 1.997 . S
O1809 C1825 1.235 . S
O1810 Fe1804 2.002 . S
O1810 C1811 1.295 . S
C1811 O1810 1.295 . S
C1811 O1813 1.235 . S
C1812 O1817 1.287 . S
C1812 O1818 1.255 . S
O1813 Fe1805 1.997 . S
O1813 C1811 1.235 . S
C1814 O1820 1.287 . S
C1814 O1821 1.255 . S
O1815 Fe1804 1.976 . S
O1815 C1822 1.287 . S
O1816 Fe1805 1.996 . S
O1816 C1822 1.255 . S
O1817 Fe1807 1.976 . S
O1817 C1812 1.287 . S
O1818 Fe1804 1.996 . S
O1818 C1812 1.255 . S
C1819 O1823 1.295 . S
C1819 O1824 1.235 . S
O1820 Fe1805 1.976 . S
O1820 C1814 1.287 . S
O1821 Fe1807 1.996 . S
O1821 C1814 1.255 . S
C1822 O1815 1.287 . S
C1822 O1816 1.255 . S
O1823 Fe1805 2.002 . S
O1823 C1819 1.295 . S
O1824 Fe1807 1.997 . S
O1824 C1819 1.235 . S
C1825 O1808 1.295 . S
C1825 O1809 1.235 . S
Fe1826 O1828 1.918 . S
Fe1826 O1831 1.997 . S
Fe1826 O1832 2.002 . S
Fe1826 O1837 1.976 . S
Fe1826 O1840 1.996 . S
Fe1827 O1828 1.918 . S
Fe1827 O1835 1.997 . S
Fe1827 O1838 1.996 . S
Fe1827 O1842 1.976 . S
Fe1827 O1845 2.002 . S
O1828 Fe1826 1.918 . S
O1828 Fe1827 1.918 . S
O1828 Fe1829 1.918 . S
Fe1829 O1828 1.918 . S
Fe1829 O1830 2.002 . S
Fe1829 O1839 1.976 . S
Fe1829 O1843 1.996 . S
Fe1829 O1846 1.997 . S
O1830 Fe1829 2.002 . S
O1830 C1847 1.295 . S
O1831 Fe1826 1.997 . S
O1831 C1847 1.235 . S
O1832 Fe1826 2.002 . S
O1832 C1833 1.295 . S
C1833 O1832 1.295 . S
C1833 O1835 1.235 . S
C1834 O1839 1.287 . S
C1834 O1840 1.255 . S
O1835 Fe1827 1.997 . S
O1835 C1833 1.235 . S
C1836 O1842 1.287 . S
C1836 O1843 1.255 . S
O1837 Fe1826 1.976 . S
O1837 C1844 1.287 . S
O1838 Fe1827 1.996 . S
O1838 C1844 1.255 . S
O1839 Fe1829 1.976 . S
O1839 C1834 1.287 . S
O1840 Fe1826 1.996 . S
O1840 C1834 1.255 . S
C1841 O1845 1.295 . S
C1841 O1846 1.235 . S
O1842 Fe1827 1.976 . S
O1842 C1836 1.287 . S
O1843 Fe1829 1.996 . S
O1843 C1836 1.255 . S
C1844 O1837 1.287 . S
C1844 O1838 1.255 . S
O1845 Fe1827 2.002 . S
O1845 C1841 1.295 . S
O1846 Fe1829 1.997 . S
O1846 C1841 1.235 . S
C1847 O1830 1.295 . S
C1847 O1831 1.235 . S
Fe1848 O1850 1.918 . S
Fe1848 O1853 1.997 . S
Fe1848 O1854 2.002 . S
Fe1848 O1859 1.976 . S
Fe1848 O1862 1.996 . S
Fe1849 O1850 1.918 . S
Fe1849 O1857 1.997 . S
Fe1849 O1860 1.996 . S
Fe1849 O1864 1.976 . S
Fe1849 O1867 2.002 . S
O1850 Fe1848 1.918 . S
O1850 Fe1849 1.918 . S
O1850 Fe1851 1.918 . S
Fe1851 O1850 1.918 . S
Fe1851 O1852 2.002 . S
Fe1851 O1861 1.976 . S
Fe1851 O1865 1.996 . S
Fe1851 O1868 1.997 . S
O1852 Fe1851 2.002 . S
O1852 C1869 1.295 . S
O1853 Fe1848 1.997 . S
O1853 C1869 1.235 . S
O1854 Fe1848 2.002 . S
O1854 C1855 1.295 . S
C1855 O1854 1.295 . S
C1855 O1857 1.235 . S
C1856 O1861 1.287 . S
C1856 O1862 1.255 . S
O1857 Fe1849 1.997 . S
O1857 C1855 1.235 . S
C1858 O1864 1.287 . S
C1858 O1865 1.255 . S
O1859 Fe1848 1.976 . S
O1859 C1866 1.287 . S
O1860 Fe1849 1.996 . S
O1860 C1866 1.255 . S
O1861 Fe1851 1.976 . S
O1861 C1856 1.287 . S
O1862 Fe1848 1.996 . S
O1862 C1856 1.255 . S
C1863 O1867 1.295 . S
C1863 O1868 1.235 . S
O1864 Fe1849 1.976 . S
O1864 C1858 1.287 . S
O1865 Fe1851 1.996 . S
O1865 C1858 1.255 . S
C1866 O1859 1.287 . S
C1866 O1860 1.255 . S
O1867 Fe1849 2.002 . S
O1867 C1863 1.295 . S
O1868 Fe1851 1.997 . S
O1868 C1863 1.235 . S
C1869 O1852 1.295 . S
C1869 O1853 1.235 . S
Fe1870 O1872 1.918 . S
Fe1870 O1875 1.997 . S
Fe1870 O1876 2.002 . S
Fe1870 O1881 1.976 . S
Fe1870 O1884 1.996 1_556 S
Fe1871 O1872 1.918 . S
Fe1871 O1879 1.997 . S
Fe1871 O1882 1.996 . S
Fe1871 O1886 1.976 . S
Fe1871 O1889 2.002 . S
O1872 Fe1870 1.918 . S
O1872 Fe1871 1.918 . S
O1872 Fe1873 1.918 . S
Fe1873 O1872 1.918 . S
Fe1873 O1874 2.002 . S
Fe1873 O1883 1.976 1_556 S
Fe1873 O1887 1.996 . S
Fe1873 O1890 1.997 . S
O1874 Fe1873 2.002 . S
O1874 C1891 1.295 . S
O1875 Fe1870 1.997 . S
O1875 C1891 1.235 . S
O1876 Fe1870 2.002 . S
O1876 C1877 1.295 . S
C1877 O1876 1.295 . S
C1877 O1879 1.235 . S
C1878 O1883 1.287 . S
C1878 O1884 1.255 . S
O1879 Fe1871 1.997 . S
O1879 C1877 1.235 . S
C1880 O1886 1.287 . S
C1880 O1887 1.255 . S
O1881 Fe1870 1.976 . S
O1881 C1888 1.287 . S
O1882 Fe1871 1.996 . S
O1882 C1888 1.255 . S
O1883 Fe1873 1.976 1_554 S
O1883 C1878 1.287 . S
O1884 Fe1870 1.996 1_554 S
O1884 C1878 1.255 . S
C1885 O1889 1.295 . S
C1885 O1890 1.235 . S
O1886 Fe1871 1.976 . S
O1886 C1880 1.287 . S
O1887 Fe1873 1.996 . S
O1887 C1880 1.255 . S
C1888 O1881 1.287 . S
C1888 O1882 1.255 . S
O1889 Fe1871 2.002 . S
O1889 C1885 1.295 . S
O1890 Fe1873 1.997 . S
O1890 C1885 1.235 . S
C1891 O1874 1.295 . S
C1891 O1875 1.235 . S
Fe1892 O1894 1.918 . S
Fe1892 O1897 1.997 . S
Fe1892 O1898 2.002 . S
Fe1892 O1903 1.976 . S
Fe1892 O1906 1.996 . S
Fe1893 O1894 1.918 . S
Fe1893 O1901 1.997 . S
Fe1893 O1904 1.996 . S
Fe1893 O1908 1.976 . S
Fe1893 O1911 2.002 . S
O1894 Fe1892 1.918 . S
O1894 Fe1893 1.918 . S
O1894 Fe1895 1.918 . S
Fe1895 O1894 1.918 . S
Fe1895 O1896 2.002 . S
Fe1895 O1905 1.976 . S
Fe1895 O1909 1.996 . S
Fe1895 O1912 1.997 . S
O1896 Fe1895 2.002 . S
O1896 C1913 1.295 . S
O1897 Fe1892 1.997 . S
O1897 C1913 1.235 . S
O1898 Fe1892 2.002 . S
O1898 C1899 1.295 . S
C1899 O1898 1.295 . S
C1899 O1901 1.235 . S
C1900 O1905 1.287 . S
C1900 O1906 1.255 . S
O1901 Fe1893 1.997 . S
O1901 C1899 1.235 . S
C1902 O1908 1.287 . S
C1902 O1909 1.255 . S
O1903 Fe1892 1.976 . S
O1903 C1910 1.287 . S
O1904 Fe1893 1.996 . S
O1904 C1910 1.255 . S
O1905 Fe1895 1.976 . S
O1905 C1900 1.287 . S
O1906 Fe1892 1.996 . S
O1906 C1900 1.255 . S
C1907 O1911 1.295 . S
C1907 O1912 1.235 . S
O1908 Fe1893 1.976 . S
O1908 C1902 1.287 . S
O1909 Fe1895 1.996 . S
O1909 C1902 1.255 . S
C1910 O1903 1.287 . S
C1910 O1904 1.255 . S
O1911 Fe1893 2.002 . S
O1911 C1907 1.295 . S
O1912 Fe1895 1.997 . S
O1912 C1907 1.235 . S
C1913 O1896 1.295 . S
C1913 O1897 1.235 . S
Fe1914 O1916 1.918 . S
Fe1914 O1919 1.997 . S
Fe1914 O1920 2.002 . S
Fe1914 O1925 1.976 . S
Fe1914 O1928 1.996 . S
Fe1915 O1916 1.918 . S
Fe1915 O1923 1.997 . S
Fe1915 O1926 1.996 . S
Fe1915 O1930 1.976 . S
Fe1915 O1933 2.002 . S
O1916 Fe1914 1.918 . S
O1916 Fe1915 1.918 . S
O1916 Fe1917 1.918 . S
Fe1917 O1916 1.918 . S
Fe1917 O1918 2.002 . S
Fe1917 O1927 1.976 . S
Fe1917 O1931 1.996 . S
Fe1917 O1934 1.997 . S
O1918 Fe1917 2.002 . S
O1918 C1935 1.295 . S
O1919 Fe1914 1.997 . S
O1919 C1935 1.235 . S
O1920 Fe1914 2.002 . S
O1920 C1921 1.295 . S
C1921 O1920 1.295 . S
C1921 O1923 1.235 . S
C1922 O1927 1.287 . S
C1922 O1928 1.255 . S
O1923 Fe1915 1.997 . S
O1923 C1921 1.235 . S
C1924 O1930 1.287 . S
C1924 O1931 1.255 . S
O1925 Fe1914 1.976 . S
O1925 C1932 1.287 . S
O1926 Fe1915 1.996 . S
O1926 C1932 1.255 . S
O1927 Fe1917 1.976 . S
O1927 C1922 1.287 . S
O1928 Fe1914 1.996 . S
O1928 C1922 1.255 . S
C1929 O1933 1.295 . S
C1929 O1934 1.235 . S
O1930 Fe1915 1.976 . S
O1930 C1924 1.287 . S
O1931 Fe1917 1.996 . S
O1931 C1924 1.255 . S
C1932 O1925 1.287 . S
C1932 O1926 1.255 . S
O1933 Fe1915 2.002 . S
O1933 C1929 1.295 . S
O1934 Fe1917 1.997 . S
O1934 C1929 1.235 . S
C1935 O1918 1.295 . S
C1935 O1919 1.235 . S
Fe1936 O1938 1.918 . S
Fe1936 O1941 1.997 . S
Fe1936 O1942 2.002 . S
Fe1936 O1947 1.976 . S
Fe1936 O1950 1.996 . S
Fe1937 O1938 1.918 . S
Fe1937 O1945 1.997 . S
Fe1937 O1948 1.996 . S
Fe1937 O1952 1.976 . S
Fe1937 O1955 2.002 . S
O1938 Fe1936 1.918 . S
O1938 Fe1937 1.918 . S
O1938 Fe1939 1.918 . S
Fe1939 O1938 1.918 . S
Fe1939 O1940 2.002 . S
Fe1939 O1949 1.976 . S
Fe1939 O1953 1.996 . S
Fe1939 O1956 1.997 . S
O1940 Fe1939 2.002 . S
O1940 C1957 1.295 . S
O1941 Fe1936 1.997 . S
O1941 C1957 1.235 . S
O1942 Fe1936 2.002 . S
O1942 C1943 1.295 . S
C1943 O1942 1.295 . S
C1943 O1945 1.235 . S
C1944 O1949 1.287 . S
C1944 O1950 1.255 . S
O1945 Fe1937 1.997 . S
O1945 C1943 1.235 . S
C1946 O1952 1.287 . S
C1946 O1953 1.255 . S
O1947 Fe1936 1.976 . S
O1947 C1954 1.287 . S
O1948 Fe1937 1.996 . S
O1948 C1954 1.255 . S
O1949 Fe1939 1.976 . S
O1949 C1944 1.287 . S
O1950 Fe1936 1.996 . S
O1950 C1944 1.255 . S
C1951 O1955 1.295 . S
C1951 O1956 1.235 . S
O1952 Fe1937 1.976 . S
O1952 C1946 1.287 . S
O1953 Fe1939 1.996 . S
O1953 C1946 1.255 . S
C1954 O1947 1.287 . S
C1954 O1948 1.255 . S
O1955 Fe1937 2.002 . S
O1955 C1951 1.295 . S
O1956 Fe1939 1.997 . S
O1956 C1951 1.235 . S
C1957 O1940 1.295 . S
C1957 O1941 1.235 . S
Fe1958 O1960 1.918 . S
Fe1958 O1963 1.997 . S
Fe1958 O1964 2.002 . S
Fe1958 O1969 1.976 . S
Fe1958 O1972 1.996 . S
Fe1959 O1960 1.918 . S
Fe1959 O1967 1.997 . S
Fe1959 O1970 1.996 . S
Fe1959 O1974 1.976 . S
Fe1959 O1977 2.002 . S
O1960 Fe1958 1.918 . S
O1960 Fe1959 1.918 . S
O1960 Fe1961 1.918 . S
Fe1961 O1960 1.918 . S
Fe1961 O1962 2.002 . S
Fe1961 O1971 1.976 . S
Fe1961 O1975 1.996 . S
Fe1961 O1978 1.997 . S
O1962 Fe1961 2.002 . S
O1962 C1979 1.295 . S
O1963 Fe1958 1.997 . S
O1963 C1979 1.235 . S
O1964 Fe1958 2.002 . S
O1964 C1965 1.295 . S
C1965 O1964 1.295 . S
C1965 O1967 1.235 . S
C1966 O1971 1.287 . S
C1966 O1972 1.255 . S
O1967 Fe1959 1.997 . S
O1967 C1965 1.235 . S
C1968 O1974 1.287 . S
C1968 O1975 1.255 . S
O1969 Fe1958 1.976 . S
O1969 C1976 1.287 . S
O1970 Fe1959 1.996 . S
O1970 C1976 1.255 . S
O1971 Fe1961 1.976 . S
O1971 C1966 1.287 . S
O1972 Fe1958 1.996 . S
O1972 C1966 1.255 . S
C1973 O1977 1.295 . S
C1973 O1978 1.235 . S
O1974 Fe1959 1.976 . S
O1974 C1968 1.287 . S
O1975 Fe1961 1.996 . S
O1975 C1968 1.255 . S
C1976 O1969 1.287 . S
C1976 O1970 1.255 . S
O1977 Fe1959 2.002 . S
O1977 C1973 1.295 . S
O1978 Fe1961 1.997 . S
O1978 C1973 1.235 . S
C1979 O1962 1.295 . S
C1979 O1963 1.235 . S
Fe1980 O1982 1.918 . S
Fe1980 O1985 1.997 . S
Fe1980 O1986 2.002 . S
Fe1980 O1991 1.976 . S
Fe1980 O1994 1.996 . S
Fe1981 O1982 1.918 . S
Fe1981 O1989 1.997 . S
Fe1981 O1992 1.996 . S
Fe1981 O1996 1.976 1_545 S
Fe1981 O1999 2.002 . S
O1982 Fe1980 1.918 . S
O1982 Fe1981 1.918 . S
O1982 Fe1983 1.918 . S
Fe1983 O1982 1.918 . S
Fe1983 O1984 2.002 . S
Fe1983 O1993 1.976 . S
Fe1983 O1997 1.996 1_545 S
Fe1983 O2000 1.997 . S
O1984 Fe1983 2.002 . S
O1984 C2001 1.295 . S
O1985 Fe1980 1.997 . S
O1985 C2001 1.235 . S
O1986 Fe1980 2.002 . S
O1986 C1987 1.295 . S
C1987 O1986 1.295 . S
C1987 O1989 1.235 . S
C1988 O1993 1.287 . S
C1988 O1994 1.255 . S
O1989 Fe1981 1.997 . S
O1989 C1987 1.235 . S
C1990 O1996 1.287 . S
C1990 O1997 1.255 . S
O1991 Fe1980 1.976 . S
O1991 C1998 1.287 . S
O1992 Fe1981 1.996 . S
O1992 C1998 1.255 . S
O1993 Fe1983 1.976 . S
O1993 C1988 1.287 . S
O1994 Fe1980 1.996 . S
O1994 C1988 1.255 . S
C1995 O1999 1.295 . S
C1995 O2000 1.235 . S
O1996 Fe1981 1.976 1_565 S
O1996 C1990 1.287 . S
O1997 Fe1983 1.996 1_565 S
O1997 C1990 1.255 . S
C1998 O1991 1.287 . S
C1998 O1992 1.255 . S
O1999 Fe1981 2.002 . S
O1999 C1995 1.295 . S
O2000 Fe1983 1.997 . S
O2000 C1995 1.235 . S
C2001 O1984 1.295 . S
C2001 O1985 1.235 . S
Fe2002 O2004 1.918 . S
Fe2002 O2007 1.997 . S
Fe2002 O2008 2.002 . S
Fe2002 O2013 1.976 . S
Fe2002 O2016 1.996 . S
Fe2003 O2004 1.918 . S
Fe2003 O2011 1.997 . S
Fe2003 O2014 1.996 . S
Fe2003 O2018 1.976 . S
Fe2003 O2021 2.002 . S
O2004 Fe2002 1.918 . S
O2004 Fe2003 1.918 . S
O2004 Fe2005 1.918 . S
Fe2005 O2004 1.918 . S
Fe2005 O2006 2.002 . S
Fe2005 O2015 1.976 . S
Fe2005 O2019 1.996 . S
Fe2005 O2022 1.997 . S
O2006 Fe2005 2.002 . S
O2006 C2023 1.295 . S
O2007 Fe2002 1.997 . S
O2007 C2023 1.235 . S
O2008 Fe2002 2.002 . S
O2008 C2009 1.295 . S
C2009 O2008 1.295 . S
C2009 O2011 1.235 . S
C2010 O2015 1.287 . S
C2010 O2016 1.255 . S
O2011 Fe2003 1.997 . S
O2011 C2009 1.235 . S
C2012 O2018 1.287 . S
C2012 O2019 1.255 . S
O2013 Fe2002 1.976 . S
O2013 C2020 1.287 . S
O2014 Fe2003 1.996 . S
O2014 C2020 1.255 . S
O2015 Fe2005 1.976 . S
O2015 C2010 1.287 . S
O2016 Fe2002 1.996 . S
O2016 C2010 1.255 . S
C2017 O2021 1.295 . S
C2017 O2022 1.235 . S
O2018 Fe2003 1.976 . S
O2018 C2012 1.287 . S
O2019 Fe2005 1.996 . S
O2019 C2012 1.255 . S
C2020 O2013 1.287 . S
C2020 O2014 1.255 . S
O2021 Fe2003 2.002 . S
O2021 C2017 1.295 . S
O2022 Fe2005 1.997 . S
O2022 C2017 1.235 . S
C2023 O2006 1.295 . S
C2023 O2007 1.235 . S
Fe2024 O2026 1.918 . S
Fe2024 O2029 1.997 . S
Fe2024 O2030 2.002 . S
Fe2024 O2035 1.976 . S
Fe2024 O2038 1.996 . S
Fe2025 O2026 1.918 . S
Fe2025 O2033 1.997 . S
Fe2025 O2036 1.996 . S
Fe2025 O2040 1.976 . S
Fe2025 O2043 2.002 . S
O2026 Fe2024 1.918 . S
O2026 Fe2025 1.918 . S
O2026 Fe2027 1.918 . S
Fe2027 O2026 1.918 . S
Fe2027 O2028 2.002 . S
Fe2027 O2037 1.976 . S
Fe2027 O2041 1.996 . S
Fe2027 O2044 1.997 . S
O2028 Fe2027 2.002 . S
O2028 C2045 1.295 . S
O2029 Fe2024 1.997 . S
O2029 C2045 1.235 . S
O2030 Fe2024 2.002 . S
O2030 C2031 1.295 . S
C2031 O2030 1.295 . S
C2031 O2033 1.235 . S
C2032 O2037 1.287 . S
C2032 O2038 1.255 . S
O2033 Fe2025 1.997 . S
O2033 C2031 1.235 . S
C2034 O2040 1.287 . S
C2034 O2041 1.255 . S
O2035 Fe2024 1.976 . S
O2035 C2042 1.287 . S
O2036 Fe2025 1.996 . S
O2036 C2042 1.255 . S
O2037 Fe2027 1.976 . S
O2037 C2032 1.287 . S
O2038 Fe2024 1.996 . S
O2038 C2032 1.255 . S
C2039 O2043 1.295 . S
C2039 O2044 1.235 . S
O2040 Fe2025 1.976 . S
O2040 C2034 1.287 . S
O2041 Fe2027 1.996 . S
O2041 C2034 1.255 . S
C2042 O2035 1.287 . S
C2042 O2036 1.255 . S
O2043 Fe2025 2.002 . S
O2043 C2039 1.295 . S
O2044 Fe2027 1.997 . S
O2044 C2039 1.235 . S
C2045 O2028 1.295 . S
C2045 O2029 1.235 . S
Fe2046 O2048 1.918 . S
Fe2046 O2051 1.997 . S
Fe2046 O2052 2.002 . S
Fe2046 O2057 1.976 . S
Fe2046 O2060 1.996 . S
Fe2047 O2048 1.918 . S
Fe2047 O2055 1.997 . S
Fe2047 O2058 1.996 . S
Fe2047 O2062 1.976 . S
Fe2047 O2065 2.002 . S
O2048 Fe2046 1.918 . S
O2048 Fe2047 1.918 . S
O2048 Fe2049 1.918 . S
Fe2049 O2048 1.918 . S
Fe2049 O2050 2.002 . S
Fe2049 O2059 1.976 . S
Fe2049 O2063 1.996 . S
Fe2049 O2066 1.997 . S
O2050 Fe2049 2.002 . S
O2050 C2067 1.295 . S
O2051 Fe2046 1.997 . S
O2051 C2067 1.235 . S
O2052 Fe2046 2.002 . S
O2052 C2053 1.295 . S
C2053 O2052 1.295 . S
C2053 O2055 1.235 . S
C2054 O2059 1.287 . S
C2054 O2060 1.255 . S
O2055 Fe2047 1.997 . S
O2055 C2053 1.235 . S
C2056 O2062 1.287 . S
C2056 O2063 1.255 . S
O2057 Fe2046 1.976 . S
O2057 C2064 1.287 . S
O2058 Fe2047 1.996 . S
O2058 C2064 1.255 . S
O2059 Fe2049 1.976 . S
O2059 C2054 1.287 . S
O2060 Fe2046 1.996 . S
O2060 C2054 1.255 . S
C2061 O2065 1.295 . S
C2061 O2066 1.235 . S
O2062 Fe2047 1.976 . S
O2062 C2056 1.287 . S
O2063 Fe2049 1.996 . S
O2063 C2056 1.255 . S
C2064 O2057 1.287 . S
C2064 O2058 1.255 . S
O2065 Fe2047 2.002 . S
O2065 C2061 1.295 . S
O2066 Fe2049 1.997 . S
O2066 C2061 1.235 . S
C2067 O2050 1.295 . S
C2067 O2051 1.235 . S
Fe2068 O2070 1.918 . S
Fe2068 O2073 1.997 . S
Fe2068 O2074 2.002 . S
Fe2068 O2079 1.976 1_565 S
Fe2068 O2082 1.996 . S
Fe2069 O2070 1.918 . S
Fe2069 O2077 1.997 . S
Fe2069 O2080 1.996 1_565 S
Fe2069 O2084 1.976 . S
Fe2069 O2087 2.002 . S
O2070 Fe2068 1.918 . S
O2070 Fe2069 1.918 . S
O2070 Fe2071 1.918 . S
Fe2071 O2070 1.918 . S
Fe2071 O2072 2.002 . S
Fe2071 O2081 1.976 . S
Fe2071 O2085 1.996 . S
Fe2071 O2088 1.997 . S
O2072 Fe2071 2.002 . S
O2072 C2089 1.295 . S
O2073 Fe2068 1.997 . S
O2073 C2089 1.235 . S
O2074 Fe2068 2.002 . S
O2074 C2075 1.295 . S
C2075 O2074 1.295 . S
C2075 O2077 1.235 . S
C2076 O2081 1.287 . S
C2076 O2082 1.255 . S
O2077 Fe2069 1.997 . S
O2077 C2075 1.235 . S
C2078 O2084 1.287 . S
C2078 O2085 1.255 . S
O2079 Fe2068 1.976 1_545 S
O2079 C2086 1.287 . S
O2080 Fe2069 1.996 1_545 S
O2080 C2086 1.255 . S
O2081 Fe2071 1.976 . S
O2081 C2076 1.287 . S
O2082 Fe2068 1.996 . S
O2082 C2076 1.255 . S
C2083 O2087 1.295 . S
C2083 O2088 1.235 . S
O2084 Fe2069 1.976 . S
O2084 C2078 1.287 . S
O2085 Fe2071 1.996 . S
O2085 C2078 1.255 . S
C2086 O2079 1.287 . S
C2086 O2080 1.255 . S
O2087 Fe2069 2.002 . S
O2087 C2083 1.295 . S
O2088 Fe2071 1.997 . S
O2088 C2083 1.235 . S
C2089 O2072 1.295 . S
C2089 O2073 1.235 . S
Fe2090 O2092 1.918 . S
Fe2090 O2095 1.997 . S
Fe2090 O2096 2.002 . S
Fe2090 O2101 1.976 1_545 S
Fe2090 O2104 1.996 . S
Fe2091 O2092 1.918 . S
Fe2091 O2099 1.997 . S
Fe2091 O2102 1.996 1_545 S
Fe2091 O2106 1.976 1_455 S
Fe2091 O2109 2.002 1_455 S
O2092 Fe2090 1.918 . S
O2092 Fe2091 1.918 . S
O2092 Fe2093 1.918 . S
Fe2093 O2092 1.918 . S
Fe2093 O2094 2.002 . S
Fe2093 O2103 1.976 . S
Fe2093 O2107 1.996 1_455 S
Fe2093 O2110 1.997 1_455 S
O2094 Fe2093 2.002 . S
O2094 C2111 1.295 . S
O2095 Fe2090 1.997 . S
O2095 C2111 1.235 . S
O2096 Fe2090 2.002 . S
O2096 C2097 1.295 . S
C2097 O2096 1.295 . S
C2097 O2099 1.235 . S
C2098 O2103 1.287 . S
C2098 O2104 1.255 . S
O2099 Fe2091 1.997 . S
O2099 C2097 1.235 . S
C2100 O2106 1.287 . S
C2100 O2107 1.255 . S
O2101 Fe2090 1.976 1_565 S
O2101 C2108 1.287 . S
O2102 Fe2091 1.996 1_565 S
O2102 C2108 1.255 . S
O2103 Fe2093 1.976 . S
O2103 C2098 1.287 . S
O2104 Fe2090 1.996 . S
O2104 C2098 1.255 . S
C2105 O2109 1.295 . S
C2105 O2110 1.235 . S
O2106 Fe2091 1.976 1_655 S
O2106 C2100 1.287 . S
O2107 Fe2093 1.996 1_655 S
O2107 C2100 1.255 . S
C2108 O2101 1.287 . S
C2108 O2102 1.255 . S
O2109 Fe2091 2.002 1_655 S
O2109 C2105 1.295 . S
O2110 Fe2093 1.997 1_655 S
O2110 C2105 1.235 . S
C2111 O2094 1.295 . S
C2111 O2095 1.235 . S
C373 C8 1.191 . S
C1583 C32 1.191 . S
C477 C62 1.191 . S
C1547 C76 1.191 . S
C1451 C106 1.191 . S
C1467 C128 1.191 . S
C1489 C140 1.191 . S
C164 C461 1.191 . S
C21 C186 1.191 . S
C37 C208 1.191 . S
C51 C230 1.191 . S
C81 C252 1.191 . S
C95 C282 1.191 . S
C304 C117 1.191 . S
C326 C153 1.191 . S
C348 C169 1.191 . S
C191 C360 1.191 . S
C1327 C382 1.191 . S
C414 C1349 1.191 . S
C436 C1371 1.191 . S
C448 C337 1.191 . S
C472 C235 1.191 . S
C1313 C502 1.191 . S
C1261 C514 1.191 . S
C536 C887 1.225 . S
C560 C2105 1.225 . S
C580 C1005 1.225 . S
C2083 C602 1.225 . S
C1965 C626 1.225 . S
C648 C2001 1.225 . S
C2009 C670 1.225 . S
C983 C692 1.225 . S
C549 C712 1.225 . S
C565 C734 1.225 . S
C756 C593 1.225 . S
C778 C615 1.225 . S
C631 C810 1.225 . S
C832 C653 1.225 . S
C844 C675 1.225 . S
C697 C876 1.225 . S
C898 C725 1.225 . S
C1869 C910 1.225 . S
C932 C1877 1.225 . S
C954 C1913 1.225 . S
C865 C978 1.225 . S
C769 C1000 1.225 . S
C1841 C1022 1.225 . S
C1044 C1803 1.225 . S
C1429 C1064 1.191 . S
C1088 C527 1.191 . S
C1118 C1533 1.191 . S
C491 C1132 1.191 . S
C395 C1162 1.191 . S
C1184 C403 1.191 . S
C1196 C425 1.191 . S
C1220 C1503 1.191 . S
C1077 C1242 1.191 . S
C1272 C1093 1.191 . S
C1107 C1286 1.191 . S
C1137 C1308 1.191 . S
C1338 C1151 1.191 . S
C1173 C1360 1.191 . S
C1209 C1382 1.191 . S
C1394 C1225 1.191 . S
C1247 C1416 1.191 . S
C271 C1438 1.191 . S
C1462 C293 1.191 . S
C315 C1484 1.191 . S
C1514 C1407 1.191 . S
C1528 C1291 1.191 . S
C1558 C257 1.191 . S
C1570 C213 1.191 . S
C1943 C1594 1.225 . S
C1616 C1049 1.225 . S
C1636 C2061 1.225 . S
C1668 C1027 1.225 . S
C1690 C923 1.225 . S
C945 C1704 1.225 . S
C967 C1726 1.225 . S
C1748 C2045 1.225 . S
C1768 C1599 1.225 . S
C1621 C1790 1.225 . S
C1649 C1812 1.225 . S
C1836 C1657 1.225 . S
C1856 C1679 1.225 . S
C1888 C1709 1.225 . S
C1731 C1900 1.225 . S
C1753 C1932 1.225 . S
C1781 C1954 1.225 . S
C1976 C799 1.225 . S
C1988 C821 1.225 . S
C2020 C857 1.225 . S
C1921 C2032 1.225 . S
C1825 C2056 1.225 . S
C791 C2078 1.225 . S
C2100 C747 1.225 . S
C1108 C10 2.786 1_655 S
C1140 C40 2.786 1_655 S
C1066 C52 2.786 . S
C84 C1096 2.786 . S
C1198 C96 2.786 1_655 S
C1228 C118 2.786 . S
C1152 C142 2.786 . S
C1174 C172 2.786 1_655 S
C272 C194 2.786 1_565 S
C294 C216 2.786 . S
C238 C316 2.786 1_565 S
C260 C338 2.786 1_556 S
C1492 C362 2.786 1_556 S
C1536 C384 2.786 1_554 S
C404 C492 2.786 . S
C1418 C426 2.786 . S
C1572 C450 2.786 1_565 S
C480 C1440 2.786 . S
C516 C1504 2.786 . S
C1646 C546 2.743 1_455 S
C558 C1660 2.743 1_655 S
C590 C1592 2.743 . S
C612 C1614 2.743 . S
C1724 C624 2.743 1_455 S
C646 C1746 2.743 . S
C668 C1682 2.743 . S
C690 C1702 2.743 1_655 S
C722 C802 2.743 1_565 S
C744 C824 2.743 . S
C854 C766 2.743 1_565 S
C868 C788 2.743 1_556 S
C890 C2012 2.743 1_556 S
C2054 C920 2.743 1_556 S
C942 C1020 2.743 . S
C964 C1946 2.743 . S
C976 C2098 2.743 1_565 S
C998 C1968 2.743 . S
C1042 C2042 2.743 . S
C1250 C1328 2.786 . S
C1262 C1350 2.786 1_556 S
C1372 C1294 2.786 . S
C1396 C1316 2.786 . S
C1470 C1548 2.786 1_565 S
C1866 C1778 2.743 . S
C1800 C1880 2.743 1_554 S
C1910 C1822 2.743 . S
C1924 C1834 2.743 . S
C1998 C2076 2.743 1_545 S
C15 C205 3.580 . S
C227 C29 3.580 . S
C249 C65 3.580 . S
C183 C73 3.580 . S
C109 C351 3.580 . S
C131 C285 3.580 . S
C147 C307 3.580 . S
C161 C329 3.580 . S
C367 C417 3.580 . S
C389 C1561 3.580 . S
C1577 C439 3.580 . S
C455 C1525 3.580 . S
C1517 C469 3.580 . S
C505 C1445 3.580 . S
C521 C1481 3.580 . S
C733 C535 3.611 . S
C571 C755 3.611 . S
C579 C777 3.611 . S
C601 C711 3.611 . S
C873 C637 3.611 . S
C807 C659 3.611 . S
C681 C829 3.611 . S
C843 C703 3.611 . S
C931 C895 3.611 . S
C2089 C909 3.611 . S
C2111 C953 3.611 . S
C2067 C989 3.611 . S
C1011 C2031 3.611 . S
C1033 C1973 3.611 . S
C2017 C1055 3.611 . S
C1071 C1275 3.580 . S
C1085 C1283 3.580 . S
C1121 C1305 3.580 . S
C1129 C1239 3.580 . S
C1401 C1165 3.580 . S
C1187 C1341 3.580 . S
C1363 C1203 3.580 . S
C1217 C1385 3.580 . S
C1459 C1423 3.580 . S
C1789 C1605 3.611 . S
C1811 C1627 3.611 . S
C1847 C1635 3.611 . S
C1767 C1665 3.611 . S
C1687 C1929 3.611 . S
C1715 C1855 3.611 . S
C1737 C1885 3.611 . S
C1899 C1759 3.611 . S
C1987 C1951 3.611 . S
C18 C1775 0.922 . S
C30 C741 0.922 . S
C54 C1819 0.922 . S
C74 C785 0.922 . S
C1863 C98 0.922 . S
C835 C120 0.922 . S
C1907 C150 0.922 . S
C879 C162 0.922 . S
C184 C1957 0.922 . S
C2097 C206 0.922 . S
C228 C2053 0.922 . S
C2075 C250 0.922 . S
C274 C917 0.922 . S
C1995 C296 0.922 . S
C961 C318 0.922 . S
C975 C340 0.922 . S
C1591 C370 0.922 . S
C623 C392 0.922 . S
C406 C1701 0.922 . S
C428 C667 0.922 . S
C458 C689 0.922 . S
C470 C1643 0.922 . S
C494 C1671 0.922 . S
C1613 C524 0.922 . S
C538 C1253 0.872 . S
C219 C568 0.872 . S
C582 C1297 0.872 . S
C604 C263 0.872 . S
C1335 C634 0.872 . S
C301 C656 0.872 . S
C1379 C678 0.872 . S
C700 C345 0.872 . S
C1415 C714 0.872 . S
C736 C1569 0.872 . S
C758 C1539 0.872 . S
C1555 C780 0.872 . S
C800 C381 0.872 . S
C822 C1473 0.872 . S
C433 C846 0.872 . S
C447 C866 0.872 . S
C1063 C888 0.872 . S
C103 C912 0.872 . S
C1181 C934 0.872 . S
C956 C139 0.872 . S
C986 C175 0.872 . S
C1115 C1008 0.872 . S
C1143 C1030 0.872 . S
C1052 C1099 0.872 . S
C1074 C719 0.922 . S
C1086 C1797 0.922 . S
C1110 C763 0.922 . S
C1130 C1833 0.922 . S
C1154 C813 0.922 . S
C1891 C1176 0.922 . S
C851 C1206 0.922 . S
C1218 C1935 0.922 . S
C1240 C901 0.922 . S
C1041 C1264 0.922 . S
C997 C1284 0.922 . S
C1306 C1019 0.922 . S
C1979 C1330 0.922 . S
C939 C1352 0.922 . S
C2023 C1374 0.922 . S
C1404 C2039 0.922 . S
C543 C1426 0.922 . S
C1448 C1693 0.922 . S
C1460 C645 0.922 . S
C1482 C1723 0.922 . S
C1745 C1506 0.922 . S
C1526 C587 0.922 . S
C1550 C609 0.922 . S
C557 C1580 0.922 . S
C1602 C197 0.872 . S
C1624 C1269 0.872 . S
C241 C1638 0.872 . S
C1658 C1319 0.872 . S
C279 C1680 0.872 . S
C1357 C1712 0.872 . S
C323 C1734 0.872 . S
C1393 C1756 0.872 . S
C1770 C359 0.872 . S
C1792 C513 0.872 . S
C1814 C483 0.872 . S
C1844 C499 0.872 . S
C1437 C1858 0.872 . S
C411 C1878 0.872 . S
C1902 C1495 0.872 . S
C1922 C1511 0.872 . S
C1944 C7 0.872 . S
C1159 C1966 0.872 . S
C125 C1990 0.872 . S
C1195 C2010 0.872 . S
C2034 C1231 0.872 . S
C2064 C59 0.872 . S
C87 C2086 0.872 . S
C2108 C43 0.872 . S
