# Generated by pormake.
# Topology wna, (6)-cn, num edge types: 1
# Building blocks:
#     Node 0, Type 0, BuildingBlock: NUHQIS_clean_sbu_0, # of connection points: 6
#     Node 1, Type 0, BuildingBlock: NUHQIS_clean_sbu_0, # of connection points: 6
#     Node 2, Type 0, BuildingBlock: NUHQIS_clean_sbu_0, # of connection points: 6
#     Node 3, Type 0, BuildingBlock: NUHQIS_clean_sbu_0, # of connection points: 6
#     Node 4, Type 0, BuildingBlock: NUHQIS_clean_sbu_0, # of connection points: 6
#     Node 5, Type 0, BuildingBlock: NUHQIS_clean_sbu_0, # of connection points: 6
#     Node 6, Type 0, BuildingBlock: NUHQIS_clean_sbu_0, # of connection points: 6
#     Node 7, Type 0, BuildingBlock: NUHQIS_clean_sbu_0, # of connection points: 6
#     Node 8, Type 0, BuildingBlock: NUHQIS_clean_sbu_0, # of connection points: 6
#     Node 9, Type 0, BuildingBlock: NUHQIS_clean_sbu_0, # of connection points: 6
#     Node 10, Type 0, BuildingBlock: NUHQIS_clean_sbu_0, # of connection points: 6
#     Node 11, Type 0, BuildingBlock: NUHQIS_clean_sbu_0, # of connection points: 6
#     Node 12, Type 0, BuildingBlock: NUHQIS_clean_sbu_0, # of connection points: 6
#     Node 13, Type 0, BuildingBlock: NUHQIS_clean_sbu_0, # of connection points: 6
#     Node 14, Type 0, BuildingBlock: NUHQIS_clean_sbu_0, # of connection points: 6
#     Node 15, Type 0, BuildingBlock: NUHQIS_clean_sbu_0, # of connection points: 6
#     Node 16, Type 0, BuildingBlock: NUHQIS_clean_sbu_0, # of connection points: 6
#     Node 17, Type 0, BuildingBlock: NUHQIS_clean_sbu_0, # of connection points: 6
#     Node 18, Type 0, BuildingBlock: NUHQIS_clean_sbu_0, # of connection points: 6
#     Node 19, Type 0, BuildingBlock: NUHQIS_clean_sbu_0, # of connection points: 6
#     Node 20, Type 0, BuildingBlock: NUHQIS_clean_sbu_0, # of connection points: 6
#     Node 21, Type 0, BuildingBlock: NUHQIS_clean_sbu_0, # of connection points: 6
#     Node 22, Type 0, BuildingBlock: NUHQIS_clean_sbu_0, # of connection points: 6
#     Node 23, Type 0, BuildingBlock: NUHQIS_clean_sbu_0, # of connection points: 6
#     Node 24, Type 0, BuildingBlock: NUHQIS_clean_sbu_0, # of connection points: 6
#     Node 25, Type 0, BuildingBlock: NUHQIS_clean_sbu_0, # of connection points: 6
#     Node 26, Type 0, BuildingBlock: NUHQIS_clean_sbu_0, # of connection points: 6
#     Node 27, Type 0, BuildingBlock: NUHQIS_clean_sbu_0, # of connection points: 6
#     Node 28, Type 0, BuildingBlock: NUHQIS_clean_sbu_0, # of connection points: 6
#     Node 29, Type 0, BuildingBlock: NUHQIS_clean_sbu_0, # of connection points: 6
#     Node 30, Type 0, BuildingBlock: NUHQIS_clean_sbu_0, # of connection points: 6
#     Node 31, Type 0, BuildingBlock: NUHQIS_clean_sbu_0, # of connection points: 6
#     Node 32, Type 0, BuildingBlock: NUHQIS_clean_sbu_0, # of connection points: 6
#     Node 33, Type 0, BuildingBlock: NUHQIS_clean_sbu_0, # of connection points: 6
#     Node 34, Type 0, BuildingBlock: NUHQIS_clean_sbu_0, # of connection points: 6
#     Node 35, Type 0, BuildingBlock: NUHQIS_clean_sbu_0, # of connection points: 6
#     Edge 36, Type (0, 0), None
#     Edge 37, Type (0, 0), None
#     Edge 38, Type (0, 0), None
#     Edge 39, Type (0, 0), None
#     Edge 40, Type (0, 0), None
#     Edge 41, Type (0, 0), None
#     Edge 42, Type (0, 0), None
#     Edge 43, Type (0, 0), None
#     Edge 44, Type (0, 0), None
#     Edge 45, Type (0, 0), None
#     Edge 46, Type (0, 0), None
#     Edge 47, Type (0, 0), None
#     Edge 48, Type (0, 0), None
#     Edge 49, Type (0, 0), None
#     Edge 50, Type (0, 0), None
#     Edge 51, Type (0, 0), None
#     Edge 52, Type (0, 0), None
#     Edge 53, Type (0, 0), None
#     Edge 54, Type (0, 0), None
#     Edge 55, Type (0, 0), None
#     Edge 56, Type (0, 0), None
#     Edge 57, Type (0, 0), None
#     Edge 58, Type (0, 0), None
#     Edge 59, Type (0, 0), None
#     Edge 60, Type (0, 0), None
#     Edge 61, Type (0, 0), None
#     Edge 62, Type (0, 0), None
#     Edge 63, Type (0, 0), None
#     Edge 64, Type (0, 0), None
#     Edge 65, Type (0, 0), None
#     Edge 66, Type (0, 0), None
#     Edge 67, Type (0, 0), None
#     Edge 68, Type (0, 0), None
#     Edge 69, Type (0, 0), None
#     Edge 70, Type (0, 0), None
#     Edge 71, Type (0, 0), None
#     Edge 72, Type (0, 0), None
#     Edge 73, Type (0, 0), None
#     Edge 74, Type (0, 0), None
#     Edge 75, Type (0, 0), None
#     Edge 76, Type (0, 0), None
#     Edge 77, Type (0, 0), None
#     Edge 78, Type (0, 0), None
#     Edge 79, Type (0, 0), None
#     Edge 80, Type (0, 0), None
#     Edge 81, Type (0, 0), None
#     Edge 82, Type (0, 0), None
#     Edge 83, Type (0, 0), None
#     Edge 84, Type (0, 0), None
#     Edge 85, Type (0, 0), None
#     Edge 86, Type (0, 0), None
#     Edge 87, Type (0, 0), None
#     Edge 88, Type (0, 0), None
#     Edge 89, Type (0, 0), None
#     Edge 90, Type (0, 0), None
#     Edge 91, Type (0, 0), None
#     Edge 92, Type (0, 0), None
#     Edge 93, Type (0, 0), None
#     Edge 94, Type (0, 0), None
#     Edge 95, Type (0, 0), None
#     Edge 96, Type (0, 0), None
#     Edge 97, Type (0, 0), None
#     Edge 98, Type (0, 0), None
#     Edge 99, Type (0, 0), None
#     Edge 100, Type (0, 0), None
#     Edge 101, Type (0, 0), None
#     Edge 102, Type (0, 0), None
#     Edge 103, Type (0, 0), None
#     Edge 104, Type (0, 0), None
#     Edge 105, Type (0, 0), None
#     Edge 106, Type (0, 0), None
#     Edge 107, Type (0, 0), None
#     Edge 108, Type (0, 0), None
#     Edge 109, Type (0, 0), None
#     Edge 110, Type (0, 0), None
#     Edge 111, Type (0, 0), None
#     Edge 112, Type (0, 0), None
#     Edge 113, Type (0, 0), None
#     Edge 114, Type (0, 0), None
#     Edge 115, Type (0, 0), None
#     Edge 116, Type (0, 0), None
#     Edge 117, Type (0, 0), None
#     Edge 118, Type (0, 0), None
#     Edge 119, Type (0, 0), None
#     Edge 120, Type (0, 0), None
#     Edge 121, Type (0, 0), None
#     Edge 122, Type (0, 0), None
#     Edge 123, Type (0, 0), None
#     Edge 124, Type (0, 0), None
#     Edge 125, Type (0, 0), None
#     Edge 126, Type (0, 0), None
#     Edge 127, Type (0, 0), None
#     Edge 128, Type (0, 0), None
#     Edge 129, Type (0, 0), None
#     Edge 130, Type (0, 0), None
#     Edge 131, Type (0, 0), None
#     Edge 132, Type (0, 0), None
#     Edge 133, Type (0, 0), None
#     Edge 134, Type (0, 0), None
#     Edge 135, Type (0, 0), None
#     Edge 136, Type (0, 0), None
#     Edge 137, Type (0, 0), None
#     Edge 138, Type (0, 0), None
#     Edge 139, Type (0, 0), None
#     Edge 140, Type (0, 0), None
#     Edge 141, Type (0, 0), None
#     Edge 142, Type (0, 0), None
#     Edge 143, Type (0, 0), None
# Relax obj value: 0.126
# Max RMSD: 0.243
# Mean RMSD: 0.222
data_MOF--net-wna--node1-NUHQIS_clean_sbu_0--edge1-none
_symmetry_space_group_name_H-M    P1
_symmetry_Int_Tables_number       1
_symmetry_cell_setting            triclinic
loop_
_symmetry_equiv_pos_as_xyz
'x, y, z'
_cell_length_a     18.644597
_cell_length_b     18.66248
_cell_length_c     105.33276
_cell_angle_alpha  89.990623
_cell_angle_beta   90.017241
_cell_angle_gamma 119.98674
loop_
_atom_site_label
_atom_site_type_symbol
_atom_site_fract_x
_atom_site_fract_y
_atom_site_fract_z
_atom_type_partial_charge
Tb0 Tb 0.17046 0.25728 0.1735 0.0
Eu1 Eu 0.18177 0.26799 0.20527 0.0
C2 C 0.19228 0.12713 0.18974 0.0
C3 C 1.01084 0.14 0.19042 0.0
C4 C 0.1966 0.27934 0.13725 0.0
C5 C 0.21948 0.25885 0.11518 0.0
C6 C 0.19858 0.22891 0.12755 0.0
C7 C 0.21949 0.36164 0.13456 0.0
C8 C 0.24073 0.39183 0.12216 0.0
C9 C 0.23896 0.34003 0.11228 0.0
C10 C 0.16293 0.24119 0.14963 0.0
O11 O 0.1522 0.36136 0.17839 0.0
O12 O 0.11244 0.33242 0.19939 0.0
O13 O 0.30547 0.36994 0.19827 0.0
O14 O 0.30291 0.32937 0.17754 0.0
C15 C 0.11759 0.37092 0.1887 0.0
O16 O 0.20308 0.33735 0.22297 0.0
O17 O 0.18398 0.21292 0.22336 0.0
O18 O 0.22608 0.1807 0.19901 0.0
O19 O 0.15443 0.14013 0.1803 0.0
O20 O 0.0448 0.17028 0.17933 0.0
O21 O 0.05058 0.16553 0.20131 0.0
C22 C 0.34261 0.37453 0.18747 0.0
O23 O 0.20944 0.22456 0.15685 0.0
O24 O 0.12121 0.26767 0.15613 0.0
C25 C 0.14382 0.25801 0.24183 0.0
C26 C 0.06543 0.22768 0.26578 0.0
C27 C 0.10678 0.30805 0.26068 0.0
C28 C 0.14594 0.32311 0.24886 0.0
C29 C 0.10049 0.1773 0.24679 0.0
C30 C 0.06159 0.16232 0.2586 0.0
C31 C 0.19345 0.27582 0.23007 0.0
H32 H 0.2187 0.2179 0.10782 0.0
H33 H 0.18114 0.16516 0.12947 0.0
H34 H 0.21826 0.40155 0.14192 0.0
H35 H 0.25484 0.45453 0.12021 0.0
H36 H 0.11118 0.35978 0.26599 0.0
H37 H 0.17969 0.38608 0.24536 0.0
H38 H 0.09791 0.12565 0.24169 0.0
H39 H 1.02886 0.09947 0.26215 0.0
Tb40 Tb 0.80391 0.90606 0.17398 0.0
Eu41 Eu 0.7889 0.9128 0.20551 0.0
C42 C 0.93011 0.06345 0.19005 0.0
C43 C 0.92289 0.87387 0.19201 0.0
C44 C 0.77768 0.90975 0.138 0.0
C45 C 0.79309 0.97404 0.1173 0.0
C46 C 0.82345 0.97471 0.12946 0.0
C47 C 0.69923 0.84557 0.13435 0.0
C48 C 0.66873 0.84494 0.12218 0.0
C49 C 0.71617 0.9082 0.1134 0.0
C50 C 0.81717 0.90691 0.15002 0.0
O51 O 0.69862 0.78692 0.17976 0.0
O52 O 0.74315 0.78096 0.1998 0.0
O53 O 0.68463 0.92657 0.19731 0.0
O54 O 0.73362 0.96917 0.17708 0.0
C55 C 0.69986 0.74411 0.18962 0.0
O56 O 0.71874 0.85536 0.22287 0.0
O57 O 0.83079 0.97499 0.22372 0.0
O58 O 0.878 0.04372 0.19953 0.0
O59 O 0.91794 1.01219 0.18067 0.0
O60 O 0.8857 0.86225 0.18093 0.0
O61 O 0.90149 0.89989 0.20219 0.0
C62 C 0.68447 0.96172 0.18653 0.0
O63 O 0.84888 0.97312 0.15702 0.0
O64 O 0.78122 0.83977 0.15687 0.0
C65 C 0.79638 0.88972 0.24209 0.0
C66 C 0.83861 0.85191 0.26594 0.0
C67 C 0.75526 0.81569 0.26219 0.0
C68 C 0.73443 0.83468 0.2504 0.0
C69 C 0.87988 0.92466 0.2457 0.0
C70 C 0.9007 0.90588 0.2575 0.0
C71 C 0.77242 0.91421 0.23018 0.0
H72 H 0.83085 1.02411 0.11085 0.0
H73 H 0.88428 1.02481 0.13204 0.0
H74 H 0.66262 0.79442 0.1407 0.0
H75 H 0.60965 0.7927 0.11946 0.0
H76 H 0.70598 0.77438 0.2685 0.0
H77 H 0.66963 0.80755 0.24789 0.0
H78 H 0.92921 0.96736 0.23951 0.0
H79 H 0.96556 0.93366 0.26 0.0
Tb80 Tb 0.14403 0.87783 0.17528 0.0
Eu81 Eu 0.15872 0.88958 0.20699 0.0
C82 C 0.99877 0.86824 0.19256 0.0
C83 C 0.18686 0.0455 0.19043 0.0
C84 C 0.13725 0.8524 0.13853 0.0
C85 C 0.10659 0.84604 0.11596 0.0
C86 C 0.08925 0.85573 0.12854 0.0
C87 C 0.20216 0.83736 0.1358 0.0
C88 C 0.21936 0.82709 0.12315 0.0
C89 C 0.17234 0.83235 0.11305 0.0
C90 C 0.11966 0.86941 0.15148 0.0
O91 O 0.2777 0.93344 0.17817 0.0
O92 O 0.28887 0.93676 0.20013 0.0
O93 O 0.09052 0.75554 0.20123 0.0
O94 O 0.14198 0.76412 0.18123 0.0
C95 C 0.32173 0.95231 0.18871 0.0
O96 O 0.21996 0.88336 0.22439 0.0
O97 O 0.10424 0.88389 0.22545 0.0
O98 O 0.04748 0.90036 0.20238 0.0
O99 O 1.01999 0.84043 0.18259 0.0
O100 O 0.1526 0.99527 0.18068 0.0
O101 O 0.20545 1.02189 0.20111 0.0
C102 C 0.10347 0.72078 0.19137 0.0
O103 O 0.07895 0.80758 0.15923 0.0
O104 O 0.17682 0.93452 0.15732 0.0
C105 C 0.19425 0.93807 0.24323 0.0
C106 C 0.23712 1.02082 0.26681 0.0
C107 C 0.27859 0.98024 0.26237 0.0
C108 C 0.25705 0.93893 0.25072 0.0
C109 C 0.15454 0.98082 0.2475 0.0
C110 C 0.17586 1.02181 0.25915 0.0
C111 C 0.16495 0.8854 0.2318 0.0
H112 H 0.06833 0.84923 0.10849 0.0
H113 H 1.03877 0.86723 0.13047 0.0
H114 H 0.24015 0.83494 0.14338 0.0
H115 H 0.2709 0.81728 0.12127 0.0
H116 H 0.3257 0.97799 0.26809 0.0
H117 H 0.2879 0.90561 0.24773 0.0
H118 H 0.10556 0.98112 0.24201 0.0
H119 H 0.14381 0.05373 0.26222 0.0
Tb120 Tb 0.28714 0.16693 0.37155 0.0
Eu121 Eu 0.29781 0.17805 0.33964 0.0
C122 C 0.15738 0.19092 0.35494 0.0
C123 C 0.16504 1.00972 0.35437 0.0
C124 C 0.3101 0.18607 0.40815 0.0
C125 C 0.28744 0.20212 0.43046 0.0
C126 C 0.2589 0.18555 0.41795 0.0
C127 C 0.39169 0.20643 0.41095 0.0
C128 C 0.42059 0.22358 0.4235 0.0
C129 C 0.36814 0.21995 0.43343 0.0
C130 C 0.27308 0.15762 0.39549 0.0
O131 O 0.39021 0.14799 0.36612 0.0
O132 O 0.34633 0.09622 0.34605 0.0
O133 O 0.40242 0.29889 0.34687 0.0
O134 O 0.35794 0.2985 0.36727 0.0
C135 C 0.38968 0.10409 0.35628 0.0
O136 O 0.36912 0.19272 0.32236 0.0
O137 O 0.25105 0.18891 0.32127 0.0
O138 O 0.2073 0.21872 0.34516 0.0
O139 O 0.17239 0.15823 0.36494 0.0
O140 O 0.19538 0.04325 0.3655 0.0
O141 O 0.19204 0.04881 0.34346 0.0
C142 C 0.4045 0.33714 0.35742 0.0
O143 O 0.2601 0.20783 0.38857 0.0
O144 O 0.2962 0.1143 0.38869 0.0
C145 C 0.2918 0.14126 0.30323 0.0
C146 C 0.25611 0.0605 0.2795 0.0
C147 C 0.33838 0.10737 0.28374 0.0
C148 C 0.35601 0.14767 0.29547 0.0
C149 C 0.20936 0.0926 0.29914 0.0
C150 C 0.19177 0.0526 0.28741 0.0
C151 C 0.31225 0.19113 0.31494 0.0
H152 H 0.24594 0.2 0.43783 0.0
H153 H 0.19563 0.16983 0.41597 0.0
H154 H 0.43215 0.20684 0.40354 0.0
H155 H 0.48293 0.23651 0.42549 0.0
H156 H 0.3893 0.11498 0.27784 0.0
H157 H 0.42009 0.18549 0.29835 0.0
H158 H 0.15836 0.08646 0.30487 0.0
H159 H 0.12766 1.01565 0.28451 0.0
Tb160 Tb 0.91738 0.1491 0.37091 0.0
Eu161 Eu 0.90799 0.14793 0.33907 0.0
C162 C 0.89405 0.99576 0.35453 0.0
C163 C 0.07646 0.18627 0.35439 0.0
C164 C 0.87953 0.14144 0.40685 0.0
C165 C 0.83195 0.07813 0.42759 0.0
C166 C 0.85901 0.076 0.41533 0.0
C167 C 0.86854 0.20744 0.41063 0.0
C168 C 0.84103 0.20946 0.42292 0.0
C169 C 0.8246 0.14586 0.43167 0.0
C170 C 0.9212 0.14287 0.39488 0.0
O171 O 0.93509 0.27025 0.36537 0.0
O172 O 0.98853 0.27868 0.34542 0.0
O173 O 0.78561 0.13038 0.3461 0.0
O174 O 0.78614 0.08731 0.36656 0.0
C175 C 0.97961 0.31387 0.35559 0.0
O176 O 0.89757 0.20484 0.32146 0.0
O177 O 0.89772 0.08876 0.32087 0.0
O178 O 0.86467 1.01677 0.34483 0.0
O179 O 0.92901 0.04501 0.36428 0.0
O180 O 1.04364 0.18788 0.36537 0.0
O181 O 1.03621 0.16889 0.34348 0.0
C182 C 0.74741 0.09495 0.35672 0.0
O183 O 0.88347 0.07821 0.38759 0.0
O184 O 0.95863 0.21142 0.38837 0.0
C185 C 0.94837 0.17465 0.30255 0.0
C186 C 1.02747 0.21182 0.27862 0.0
C187 C 0.98267 0.25011 0.28256 0.0
C188 C 0.94324 0.2314 0.29438 0.0
C189 C 0.99532 0.13825 0.29879 0.0
C190 C 1.03447 0.15676 0.28697 0.0
C191 C 0.89798 0.14804 0.31427 0.0
H192 H 0.81957 1.02786 0.43399 0.0
H193 H 0.86739 1.0246 0.41264 0.0
H194 H 0.88429 0.25898 0.4043 0.0
H195 H 0.83713 0.26316 0.42577 0.0
H196 H 0.97572 0.29239 0.27633 0.0
H197 H 0.90675 0.25965 0.29699 0.0
H198 H 1.00049 0.09409 0.30483 0.0
H199 H 0.06986 0.12741 0.28432 0.0
Tb200 Tb 0.93516 0.79775 0.37087 0.0
Eu201 Eu 0.93757 0.79005 0.33893 0.0
C202 C 0.08895 0.92882 0.35463 0.0
C203 C 0.89867 0.91967 0.35408 0.0
C204 C 0.93507 0.77154 0.4072 0.0
C205 C 0.98061 0.79108 0.42919 0.0
C206 C 0.98932 0.82105 0.41681 0.0
C207 C 0.87377 0.6901 0.41 0.0
C208 C 0.86521 0.65983 0.4224 0.0
C209 C 0.91744 0.71073 0.43219 0.0
C210 C 0.9401 0.81015 0.39481 0.0
O211 O 0.81428 0.69433 0.36524 0.0
O212 O 0.80628 0.73873 0.34521 0.0
O213 O 0.95615 0.6861 0.34597 0.0
O214 O 0.99631 0.7274 0.36662 0.0
C215 C 0.77091 0.6949 0.3554 0.0
O216 O 0.88398 0.72075 0.32138 0.0
O217 O 0.99495 0.84146 0.32069 0.0
O218 O 0.06846 0.87913 0.34484 0.0
O219 O 1.03962 0.91347 0.36439 0.0
O220 O 0.89949 0.88715 0.36512 0.0
O221 O 0.91375 0.89527 0.34315 0.0
C222 C 0.99005 0.6822 0.35668 0.0
O223 O 1.00438 0.82863 0.38777 0.0
O224 O 0.87264 0.78362 0.38811 0.0
C225 C 0.9077 0.80023 0.30244 0.0
C226 C 0.86086 0.83431 0.27866 0.0
C227 C 0.81968 0.75365 0.28366 0.0
C228 C 0.84315 0.73677 0.2954 0.0
C229 C 0.94769 0.88124 0.29755 0.0
C230 C 0.92441 0.89806 0.28581 0.0
C231 C 0.93797 0.78002 0.31414 0.0
H232 H 1.02245 0.83136 0.43646 0.0
H233 H 1.03702 0.88416 0.41483 0.0
H234 H 0.83108 0.65088 0.40273 0.0
H235 H 0.81548 0.5978 0.42443 0.0
H236 H 0.77095 0.70302 0.27835 0.0
H237 H 0.81203 0.67357 0.29883 0.0
H238 H 0.99811 0.93162 0.30266 0.0
H239 H 0.95648 0.96108 0.28232 0.0
Tb240 Tb 0.91052 0.78807 0.83928 0.0
Eu241 Eu 0.92137 0.79708 0.87113 0.0
C242 C 0.97329 0.68417 0.85509 0.0
C243 C 0.74788 0.68494 0.85637 0.0
C244 C 0.95037 0.79835 0.80365 0.0
C245 C 0.99011 0.75183 0.7847 0.0
C246 C 0.95147 0.73502 0.79658 0.0
C247 C 0.99053 0.87922 0.79872 0.0
C248 C 1.02893 0.89591 0.78685 0.0
C249 C 1.02768 0.83211 0.77958 0.0
C250 C 0.89924 0.77793 0.81529 0.0
O251 O 0.87126 0.87675 0.8447 0.0
O252 O 0.93641 0.91724 0.864 0.0
O253 O 0.05026 0.88381 0.86451 0.0
O254 O 1.03644 0.89121 0.84272 0.0
C255 C 0.90293 0.93072 0.854 0.0
O256 O 0.8866 0.83206 0.88892 0.0
O257 O 0.97131 0.78388 0.88916 0.0
O258 O 0.93552 0.68834 0.86537 0.0
O259 O 0.98125 0.7284 0.84489 0.0
O260 O 0.78739 0.69169 0.84568 0.0
O261 O 0.78568 0.72578 0.86668 0.0
C262 C 0.07992 0.91608 0.85333 0.0
O263 O 0.89378 0.71893 0.82258 0.0
O264 O 0.90481 0.83945 0.8219 0.0
C265 C 0.90065 0.77657 0.90848 0.0
C266 C 0.85617 0.7183 0.93358 0.0
C267 C 0.87621 0.79929 0.93039 0.0
C268 C 0.89819 0.82802 0.91796 0.0
C269 C 0.87879 0.69494 0.91151 0.0
C270 C 0.85655 0.666 0.92396 0.0
C271 C 0.93211 0.81243 0.89586 0.0
H272 H 0.98791 0.70131 0.77932 0.0
H273 H 0.92021 0.67196 0.80004 0.0
H274 H 0.9906 0.92957 0.80386 0.0
H275 H 0.05892 0.95875 0.78331 0.0
H276 H 0.87512 0.8406 0.93751 0.0
H277 H 0.91498 0.89131 0.91581 0.0
H278 H 0.88052 0.65422 0.90434 0.0
H279 H 0.84198 0.60341 0.92613 0.0
Tb280 Tb 0.29899 0.14352 0.83859 0.0
Eu281 Eu 0.28659 0.15346 0.87003 0.0
C282 C 0.39773 0.31182 0.85364 0.0
C283 C 0.39996 0.08877 0.85684 0.0
C284 C 0.29247 0.16881 0.80294 0.0
C285 C 0.33751 0.24717 0.78325 0.0
C286 C 0.35595 0.22647 0.79508 0.0
C287 C 0.20983 0.13309 0.79882 0.0
C288 C 0.19143 0.15361 0.78697 0.0
C289 C 0.25514 0.21003 0.77898 0.0
C290 C 0.31409 0.14103 0.81474 0.0
O291 O 0.21242 1.01628 0.84429 0.0
O292 O 0.16902 0.04461 0.86306 0.0
O293 O 0.2086 0.20397 0.86217 0.0
O294 O 0.19001 0.15725 0.84141 0.0
C295 C 0.15859 0.99487 0.85357 0.0
O296 O 0.24191 0.08817 0.88805 0.0
O297 O 0.30556 0.22237 0.88764 0.0
O298 O 0.3997 0.27045 0.86358 0.0
O299 O 0.34945 0.27338 0.8439 0.0
O300 O 0.39677 0.12222 0.84601 0.0
O301 O 0.3562 0.08583 0.86678 0.0
C302 C 0.17041 0.18848 0.85117 0.0
O303 O 0.36995 0.19749 0.8221 0.0
O304 O 0.25347 0.08305 0.82123 0.0
C305 C 0.30529 0.15743 0.90723 0.0
C306 C 0.36194 0.16884 0.93238 0.0
C307 C 0.28125 0.10787 0.92902 0.0
C308 C 0.25326 0.10233 0.91657 0.0
C309 C 0.38707 0.21629 0.9104 0.0
C310 C 0.4152 0.22184 0.92288 0.0
C311 C 0.26988 0.15588 0.89467 0.0
H312 H 0.38795 0.29039 0.77729 0.0
H313 H 0.42019 0.25412 0.79796 0.0
H314 H 0.15932 0.08814 0.80461 0.0
H315 H 0.12719 0.12507 0.78407 0.0
H316 H 0.23922 0.06545 0.93608 0.0
H317 H 0.18989 0.05641 0.91431 0.0
H318 H 0.42841 0.25954 0.90336 0.0
H319 H 0.47752 0.26998 0.92519 0.0
Tb320 Tb 0.93328 0.1671 0.83729 0.0
Eu321 Eu 0.94912 0.18209 0.86857 0.0
C322 C 0.76964 0.10311 0.85463 0.0
C323 C 0.98032 0.33443 0.85203 0.0
C324 C 0.89675 0.11992 0.80207 0.0
C325 C 0.81107 0.07691 0.78309 0.0
C326 C 0.8333 0.1186 0.7947 0.0
C327 C 0.93622 0.07702 0.79777 0.0
C328 C 0.91426 0.03572 0.78615 0.0
C329 C 0.85262 0.03658 0.77859 0.0
C330 C 0.92735 0.17368 0.81335 0.0
O331 O 1.04216 0.15734 0.84134 0.0
O332 O 0.07651 0.22657 0.8603 0.0
O333 O 0.93884 0.06042 0.86322 0.0
O334 O 0.89215 0.0382 0.84245 0.0
C335 C 0.09492 0.19481 0.85056 0.0
O336 O 1.01608 0.2558 0.88518 0.0
O337 O 0.92105 0.12697 0.88747 0.0
O338 O 0.81198 0.12586 0.86532 0.0
O339 O 0.80451 0.11446 0.84338 0.0
O340 O 0.99771 0.29824 0.8428 0.0
O341 O 0.94111 0.29275 0.86217 0.0
C342 C 0.90818 1.0124 0.8532 0.0
O343 O 0.87284 0.17533 0.8209 0.0
O344 O 0.98779 0.17452 0.81964 0.0
C345 C 0.95956 0.21154 0.9059 0.0
C346 C 0.92359 0.2331 0.93115 0.0
C347 C 0.99028 0.22055 0.92845 0.0
C348 C 1.00811 0.21009 0.91594 0.0
C349 C 0.89373 0.2254 0.90844 0.0
C350 C 0.876 0.23636 0.92099 0.0
C351 C 0.97729 0.19412 0.89305 0.0
H352 H 0.76356 0.07884 0.77743 0.0
H353 H 0.80263 0.15201 0.79773 0.0
H354 H 0.98567 0.07706 0.80318 0.0
H355 H 0.94627 1.0039 0.78302 0.0
H356 H 1.02877 0.21872 0.936 0.0
H357 H 0.05929 0.19949 0.91413 0.0
H358 H 0.85543 0.22635 0.90078 0.0
H359 H 0.82371 0.24518 0.92275 0.0
Tb360 Tb 0.79242 0.88283 0.70677 0.0
Eu361 Eu 0.80247 0.90289 0.67539 0.0
C362 C 0.69151 0.9499 0.69199 0.0
C363 C 0.69009 0.72648 0.68889 0.0
C364 C 0.79827 0.91642 0.74224 0.0
C365 C 0.75129 0.94875 0.7618 0.0
C366 C 0.73381 0.90831 0.7501 0.0
C367 C 0.88075 0.96702 0.74617 0.0
C368 C 0.89819 1.00709 0.75788 0.0
C369 C 0.83364 0.99729 0.7659 0.0
C370 C 0.77823 0.86617 0.7306 0.0
O371 O 0.87716 0.84032 0.70101 0.0
O372 O 0.92089 0.91294 0.68235 0.0
O373 O 0.87862 0.03195 0.68289 0.0
O374 O 0.90079 1.00569 0.70356 0.0
C375 C 0.93141 0.87352 0.69182 0.0
O376 O 0.84912 0.8838 0.65745 0.0
O377 O 0.77998 0.94903 0.65766 0.0
O378 O 0.68938 0.90663 0.68201 0.0
O379 O 0.7413 0.96133 0.70155 0.0
O380 O 0.6936 0.76394 0.69964 0.0
O381 O 0.73372 0.76633 0.6789 0.0
C382 C 0.9187 0.05565 0.69371 0.0
O383 O 0.72094 0.86385 0.72323 0.0
O384 O 0.84004 0.87108 0.72413 0.0
C385 C 0.78389 0.88505 0.63821 0.0
C386 C 0.7283 0.83695 0.61311 0.0
C387 C 0.81017 0.86103 0.61647 0.0
C388 C 0.83765 0.88493 0.6289 0.0
C389 C 0.70106 0.85765 0.63505 0.0
C390 C 0.67347 0.83367 0.62259 0.0
C391 C 0.8183 0.92055 0.65073 0.0
H392 H 0.70033 0.93988 0.76781 0.0
H393 H 0.66974 0.86901 0.74732 0.0
H394 H 0.93194 0.97453 0.74035 0.0
H395 H 0.96234 0.0454 0.76069 0.0
H396 H 0.85345 0.86304 0.60942 0.0
H397 H 0.90184 0.90582 0.63117 0.0
H398 H 0.65842 0.85721 0.64207 0.0
H399 H 0.61017 0.81611 0.62028 0.0
Tb400 Tb 0.17935 0.91795 0.70672 0.0
Eu401 Eu 0.1705 0.91288 0.67492 0.0
C402 C 0.11529 0.75107 0.69121 0.0
C403 C 0.34222 0.97608 0.69007 0.0
C404 C 0.1399 0.88994 0.74242 0.0
C405 C 0.11111 0.81436 0.76236 0.0
C406 C 0.14902 0.83478 0.75043 0.0
C407 C 0.09037 0.92284 0.74648 0.0
C408 C 0.05273 0.90264 0.75842 0.0
C409 C 0.06389 0.84941 0.7666 0.0
C410 C 0.19011 0.92002 0.7307 0.0
O411 O 0.2196 0.0452 0.70089 0.0
O412 O 0.15322 1.01688 0.68167 0.0
O413 O 1.0408 0.87059 0.68121 0.0
O414 O 0.05379 0.89531 0.70293 0.0
C415 C 0.18733 0.06563 0.69145 0.0
O416 O 0.20723 0.98188 0.65708 0.0
O417 O 0.12305 0.84886 0.65689 0.0
O418 O 0.15928 0.79247 0.68131 0.0
O419 O 0.10434 0.78863 0.70096 0.0
O420 O 0.30167 0.94095 0.70058 0.0
O421 O 0.30522 0.98077 0.67979 0.0
C422 C 1.01059 0.87461 0.69227 0.0
O423 O 0.19565 0.86607 0.72352 0.0
O424 O 0.18386 0.97534 0.72401 0.0
C425 C 0.19578 0.91177 0.63769 0.0
C426 C 0.23611 0.89385 0.61254 0.0
C427 C 0.22175 0.9586 0.61577 0.0
C428 C 0.20183 0.96743 0.62822 0.0
C429 C 0.21363 0.84915 0.63466 0.0
C430 C 0.23387 0.8404 0.62218 0.0
C431 C 0.16291 0.91638 0.65016 0.0
H432 H 0.12127 0.77355 0.76845 0.0
H433 H 0.18775 0.8094 0.74762 0.0
H434 H 0.08229 0.96588 0.7406 0.0
H435 H 1.01543 0.92947 0.76129 0.0
H436 H 0.2241 1.00138 0.6086 0.0
H437 H 0.18822 1.01619 0.63038 0.0
H438 H 0.20921 0.80539 0.64181 0.0
H439 H 0.24397 0.78945 0.61998 0.0
Tb440 Tb 0.15619 0.27356 0.70694 0.0
Eu441 Eu 0.14011 0.26472 0.67508 0.0
C442 C 0.31837 0.3708 0.68925 0.0
C443 C 0.10607 0.38806 0.69079 0.0
C444 C 0.19256 0.26677 0.7424 0.0
C445 C 0.27637 0.31093 0.76159 0.0
C446 C 0.25479 0.32948 0.74984 0.0
C447 C 0.15345 0.18468 0.74682 0.0
C448 C 0.17486 0.16617 0.75858 0.0
C449 C 0.23561 0.22928 0.76619 0.0
C450 C 0.16307 0.28938 0.73088 0.0
O451 O 0.047 0.15481 0.70323 0.0
O452 O 1.01321 0.18361 0.68366 0.0
O453 O 0.14937 0.15529 0.68161 0.0
O454 O 0.19872 0.18629 0.70224 0.0
C455 C 0.99454 0.13713 0.69388 0.0
O456 O 0.07176 0.26247 0.65804 0.0
O457 O 0.17344 0.23777 0.65651 0.0
O458 O 0.27682 0.34796 0.6785 0.0
O459 O 0.28339 0.35009 0.70052 0.0
O460 O 0.09458 0.34186 0.70086 0.0
O461 O 0.14123 0.38097 0.68049 0.0
C462 C 0.18161 0.14157 0.69178 0.0
O463 O 0.2184 0.34321 0.72318 0.0
O464 O 0.10148 0.2301 0.72474 0.0
C465 C 0.1326 0.2777 0.63758 0.0
C466 C 0.16388 0.33715 0.61231 0.0
C467 C 0.10288 0.25507 0.61498 0.0
C468 C 0.08745 0.22585 0.62747 0.0
C469 C 0.1935 0.35971 0.63507 0.0
C470 C 0.20897 0.38923 0.62254 0.0
C471 C 0.11506 0.24311 0.65052 0.0
H472 H 0.32298 0.36101 0.76726 0.0
H473 H 0.28512 0.39337 0.74674 0.0
H474 H 0.1049 0.13482 0.74136 0.0
H475 H 0.14333 0.10243 0.76176 0.0
H476 H 0.06593 0.21355 0.60743 0.0
H477 H 1.04 0.16231 0.62923 0.0
H478 H 0.22921 0.40057 0.64276 0.0
H479 H 0.25705 0.45253 0.62085 0.0
Tb480 Tb 0.8387 0.59943 0.50698 0.0
Eu481 Eu 0.85488 0.61032 0.53862 0.0
C482 C 0.86439 0.47007 0.52295 0.0
C483 C 0.68328 0.47901 0.52451 0.0
C484 C 0.86029 0.62169 0.47061 0.0
C485 C 0.88263 0.60036 0.44853 0.0
C486 C 0.86156 0.57075 0.46092 0.0
C487 C 0.88353 0.704 0.46785 0.0
C488 C 0.90492 0.73385 0.45542 0.0
C489 C 0.90295 0.68171 0.44557 0.0
C490 C 0.8276 0.58414 0.48308 0.0
O491 O 0.8204 0.70249 0.5125 0.0
O492 O 0.7722 0.66 0.53276 0.0
O493 O 0.97346 0.7166 0.53105 0.0
O494 O 0.97135 0.66984 0.5108 0.0
C495 C 0.77785 0.70239 0.5225 0.0
O496 O 0.87226 0.68054 0.55611 0.0
O497 O 0.86839 0.56251 0.55673 0.0
O498 O 0.89862 0.52279 0.53231 0.0
O499 O 0.82552 0.48337 0.51367 0.0
O500 O 0.7143 0.51096 0.51333 0.0
O501 O 0.72534 0.50397 0.53521 0.0
C502 C 1.01095 0.71819 0.52045 0.0
O503 O 0.87362 0.56548 0.49005 0.0
O504 O 0.78841 0.61231 0.48985 0.0
C505 C 0.82246 0.60175 0.57516 0.0
C506 C 0.74273 0.56439 0.59901 0.0
C507 C 0.78705 0.6466 0.5947 0.0
C508 C 0.82684 0.66509 0.58291 0.0
C509 C 0.77657 0.51933 0.57935 0.0
C510 C 0.73707 0.5009 0.59113 0.0
C511 C 0.87134 0.62315 0.56331 0.0
H512 H 0.88178 0.55914 0.44121 0.0
H513 H 0.84381 0.50697 0.46288 0.0
H514 H 0.88283 0.74434 0.47518 0.0
H515 H 0.91971 0.7967 0.45343 0.0
H516 H 0.79299 0.69694 0.60057 0.0
H517 H 0.86255 0.72917 0.57997 0.0
H518 H 0.77208 0.46894 0.57364 0.0
H519 H 0.70216 0.43681 0.59408 0.0
Tb520 Tb 0.4753 0.2443 0.50856 0.0
Eu521 Eu 0.46771 0.25051 0.54036 0.0
C522 C 0.60325 0.40202 0.52442 0.0
C523 C 0.59835 0.21212 0.52589 0.0
C524 C 0.45371 0.24365 0.47207 0.0
C525 C 0.47659 0.29255 0.45021 0.0
C526 C 0.50495 0.29881 0.46267 0.0
C527 C 0.37234 0.18349 0.46893 0.0
C528 C 0.34373 0.17734 0.45644 0.0
C529 C 0.39614 0.23085 0.44689 0.0
C530 C 0.49028 0.24675 0.48462 0.0
O531 O 0.36865 0.12662 0.51424 0.0
O532 O 0.41416 0.11802 0.53412 0.0
O533 O 0.36856 0.2762 0.53348 0.0
O534 O 0.39995 0.30202 0.51215 0.0
C535 C 0.36882 0.08277 0.52401 0.0
O536 O 0.39828 0.19539 0.55784 0.0
O537 O 0.51728 0.30848 0.55861 0.0
O538 O 0.55383 0.38153 0.53424 0.0
O539 O 0.5896 0.35114 0.51493 0.0
O540 O 0.5575 0.19963 0.51513 0.0
O541 O 0.57999 0.23859 0.5363 0.0
C542 C 0.36031 0.30356 0.52242 0.0
O543 O 0.51216 0.31226 0.49154 0.0
O544 O 0.45944 0.17956 0.49147 0.0
C545 C 0.47782 0.22113 0.57677 0.0
C546 C 0.51449 0.17618 0.60046 0.0
C547 C 0.43265 0.13701 0.59592 0.0
C548 C 0.41449 0.15958 0.58422 0.0
C549 C 0.55998 0.25891 0.58117 0.0
C550 C 0.57807 0.23655 0.59288 0.0
C551 C 0.45649 0.25042 0.56511 0.0
H552 H 0.51802 0.33543 0.44315 0.0
H553 H 0.56807 0.34561 0.46489 0.0
H554 H 0.33172 0.14 0.476 0.0
H555 H 0.28157 0.12869 0.45417 0.0
H556 H 0.38228 0.09071 0.60157 0.0
H557 H 0.35055 0.13022 0.58113 0.0
H558 H 0.61033 0.30688 0.57571 0.0
H559 H 0.64194 0.26685 0.59602 0.0
Tb560 Tb 0.81778 0.22752 0.50715 0.0
Eu561 Eu 0.84189 0.22984 0.53855 0.0
C562 C 0.67475 0.20695 0.52568 0.0
C563 C 0.85975 0.38884 0.52311 0.0
C564 C 0.79995 0.19534 0.47082 0.0
C565 C 0.76053 0.19064 0.4487 0.0
C566 C 0.75665 0.21103 0.46135 0.0
C567 C 0.84245 0.15353 0.46759 0.0
C568 C 0.84669 0.13346 0.45493 0.0
C569 C 0.80827 0.15453 0.44527 0.0
C570 C 0.81252 0.23675 0.48321 0.0
O571 O 0.9487 0.3032 0.51203 0.0
O572 O 0.95106 0.23159 0.52921 0.0
O573 O 0.77383 0.09545 0.5327 0.0
O574 O 0.79715 0.10372 0.51105 0.0
C575 C 0.9898 0.28296 0.51995 0.0
O576 O 0.92776 0.26771 0.55451 0.0
O577 O 0.79568 0.18947 0.55782 0.0
O578 O 0.72585 0.23668 0.53537 0.0
O579 O 0.69426 0.18319 0.51507 0.0
O580 O 0.82446 0.34159 0.51317 0.0
O581 O 0.88219 0.36315 0.53325 0.0
C582 C 0.77071 0.06098 0.52166 0.0
O583 O 0.74897 0.21641 0.49053 0.0
O584 O 0.87817 0.25176 0.48965 0.0
C585 C 0.87993 0.26942 0.57526 0.0
C586 C 0.90357 0.34294 0.59945 0.0
C587 C 0.94989 0.30607 0.59565 0.0
C588 C 0.93835 0.27 0.58369 0.0
C589 C 0.83297 0.3058 0.57894 0.0
C590 C 0.84472 0.34233 0.59097 0.0
C591 C 0.86945 0.22877 0.56289 0.0
H592 H 0.72876 0.20608 0.44153 0.0
H593 H 0.72368 0.24349 0.46363 0.0
H594 H 0.87658 0.14082 0.47471 0.0
H595 H 0.88431 0.10598 0.45266 0.0
H596 H 0.9945 0.30414 0.60199 0.0
H597 H 0.97491 0.24189 0.58104 0.0
H598 H 0.78762 0.30617 0.57255 0.0
H599 H 0.80869 0.37106 0.59355 0.0
Tb600 Tb 0.94943 0.48935 0.70511 0.0
Eu601 Eu 0.9592 0.49774 0.67299 0.0
C602 C 0.82126 0.51287 0.6884 0.0
C603 C 0.82989 0.32926 0.68841 0.0
C604 C 0.97517 0.51832 0.74136 0.0
C605 C 0.95878 0.54987 0.7632 0.0
C606 C 0.92741 0.5265 0.75092 0.0
C607 C 0.05612 0.5364 0.74414 0.0
C608 C 0.08777 0.56013 0.75645 0.0
C609 C 1.03887 0.56575 0.76618 0.0
C610 C 0.93543 0.48393 0.72904 0.0
O611 O 0.05226 0.46956 0.70015 0.0
O612 O 1.02261 0.4284 0.67918 0.0
O613 O 0.06051 0.6224 0.67984 0.0
O614 O 1.02235 0.62071 0.70074 0.0
C615 C 0.06061 0.43361 0.68993 0.0
O616 O 1.02704 0.51856 0.65512 0.0
O617 O 0.90118 0.49618 0.65499 0.0
O618 O 0.87335 0.54331 0.67893 0.0
O619 O 0.83418 0.47734 0.69819 0.0
O620 O 0.85982 0.36423 0.69946 0.0
O621 O 0.85646 0.36743 0.67741 0.0
C622 C 0.06596 0.65978 0.69067 0.0
O623 O 0.91909 0.53044 0.72178 0.0
O624 O 0.95998 0.44064 0.72254 0.0
C625 C 0.94706 0.45921 0.63627 0.0
C626 C 0.91796 0.38254 0.61217 0.0
C627 C 0.99889 0.42891 0.61702 0.0
C628 C 1.01324 0.4669 0.6289 0.0
C629 C 0.86589 0.41226 0.6315 0.0
C630 C 0.85153 0.37424 0.61959 0.0
C631 C 0.96429 0.50746 0.64816 0.0
H632 H 0.91991 0.55471 0.77039 0.0
H633 H 0.86468 0.51265 0.74897 0.0
H634 H 0.09402 0.53019 0.73692 0.0
H635 H 0.1495 0.57125 0.75844 0.0
H636 H 0.05158 0.4376 0.6115 0.0
H637 H 0.07651 0.50396 0.63219 0.0
H638 H 0.81342 0.40586 0.63685 0.0
H639 H 0.78839 0.33818 0.61621 0.0
Tb640 Tb 0.57958 0.47135 0.70381 0.0
Eu641 Eu 0.57452 0.46857 0.67166 0.0
C642 C 0.55965 0.31693 0.68773 0.0
C643 C 0.74041 0.5078 0.68758 0.0
C644 C 0.55492 0.47277 0.74033 0.0
C645 C 0.53493 0.42989 0.76245 0.0
C646 C 0.55305 0.41985 0.74994 0.0
C647 C 0.53511 0.53411 0.74328 0.0
C648 C 0.51635 0.54389 0.75582 0.0
C649 C 0.51785 0.49295 0.76559 0.0
C650 C 0.58581 0.46657 0.72776 0.0
O651 O 0.5978 0.592 0.69803 0.0
O652 O 0.65071 0.60046 0.678 0.0
O653 O 0.44702 0.43951 0.67784 0.0
O654 O 0.44865 0.41594 0.69936 0.0
C655 C 0.64164 0.63539 0.68821 0.0
O656 O 0.56121 0.52242 0.65395 0.0
O657 O 0.57264 0.4123 0.65353 0.0
O658 O 0.53533 0.33845 0.67748 0.0
O659 O 0.58876 0.36481 0.69776 0.0
O660 O 0.70537 0.50703 0.69844 0.0
O661 O 0.70273 0.49255 0.6765 0.0
C662 C 0.40969 0.41354 0.68883 0.0
O663 O 0.53823 0.40277 0.72074 0.0
O664 O 0.62806 0.53372 0.72106 0.0
C665 C 0.62062 0.49955 0.63535 0.0
C666 C 0.70323 0.54451 0.61174 0.0
C667 C 0.66045 0.58374 0.6162 0.0
C668 C 0.61922 0.56114 0.62787 0.0
C669 C 0.6655 0.46209 0.63106 0.0
C670 C 0.70642 0.48447 0.6194 0.0
C671 C 0.56842 0.46894 0.64686 0.0
H672 H 0.53566 0.38911 0.7697 0.0
H673 H 0.56838 0.37222 0.74785 0.0
H674 H 0.53657 0.57588 0.73601 0.0
H675 H 0.50407 0.59352 0.75795 0.0
H676 H 0.65642 0.62982 0.61049 0.0
H677 H 0.58426 0.59029 0.63086 0.0
H678 H 0.66759 0.41407 0.63654 0.0
H679 H 0.74004 0.45413 0.61632 0.0
Tb680 Tb 0.59851 0.11921 0.70519 0.0
Eu681 Eu 0.60105 0.10761 0.67338 0.0
C682 C 0.75362 0.24817 0.68883 0.0
C683 C 0.5649 0.24107 0.68772 0.0
C684 C 0.59533 0.09691 0.74174 0.0
C685 C 0.63838 0.11927 0.76387 0.0
C686 C 0.64873 0.14748 0.75135 0.0
C687 C 0.53301 1.01619 0.74471 0.0
C688 C 0.52282 0.98767 0.75726 0.0
C689 C 0.57436 0.03962 0.76702 0.0
C690 C 0.6024 0.13385 0.72912 0.0
O691 O 0.47638 1.01697 0.69964 0.0
O692 O 0.46998 0.06056 0.67949 0.0
O693 O 0.6146 1.00191 0.68088 0.0
O694 O 0.65851 0.04706 0.70125 0.0
C695 C 0.43363 1.01792 0.68973 0.0
O696 O 0.54446 0.0375 0.656 0.0
O697 O 0.66139 0.15283 0.65514 0.0
O698 O 0.73227 0.19792 0.6791 0.0
O699 O 0.70472 0.23365 0.69865 0.0
O700 O 0.56605 0.21033 0.69892 0.0
O701 O 0.5788 0.2143 0.67693 0.0
C702 C 0.64997 0.99952 0.6915 0.0
O703 O 0.6665 0.14935 0.72223 0.0
O704 O 0.53564 0.10848 0.72229 0.0
C705 C 0.57479 0.11585 0.6369 0.0
C706 C 0.53356 0.15535 0.61314 0.0
C707 C 0.49568 0.07271 0.61726 0.0
C708 C 0.51642 0.05319 0.629 0.0
C709 C 0.61126 0.19871 0.63293 0.0
C710 C 0.59077 0.21819 0.62118 0.0
C711 C 0.60165 0.09322 0.64869 0.0
H712 H 0.67981 0.16028 0.77111 0.0
H713 H 0.69718 0.21006 0.74925 0.0
H714 H 0.4909 0.97618 0.73745 0.0
H715 H 0.47251 0.92613 0.7594 0.0
H716 H 0.45177 1.02288 0.61126 0.0
H717 H 0.4881 0.98882 0.6318 0.0
H718 H 0.65663 0.24857 0.63877 0.0
H719 H 0.61991 0.28256 0.61837 0.0
Tb720 Tb 0.57253 0.10821 0.17024 0.0
Eu721 Eu 0.59001 0.11592 0.20188 0.0
C722 C 0.63533 1.00379 0.18562 0.0
C723 C 0.41315 1.00234 0.18794 0.0
C724 C 0.61007 0.11827 0.13472 0.0
C725 C 0.63945 0.07675 0.11439 0.0
C726 C 0.59962 0.05612 0.12617 0.0
C727 C 0.66274 0.20165 0.13142 0.0
C728 C 0.70228 0.22224 0.11964 0.0
C729 C 0.69004 0.16006 0.11092 0.0
C730 C 0.55918 0.09521 0.14634 0.0
O731 O 0.52931 0.19252 0.17594 0.0
O732 O 0.59529 0.23227 0.19523 0.0
O733 O 0.71899 0.19325 0.19399 0.0
O734 O 0.69355 0.21887 0.17349 0.0
C735 C 0.55773 0.24368 0.18559 0.0
O736 O 0.56706 0.15919 0.21985 0.0
O737 O 0.63992 0.09774 0.2196 0.0
O738 O 0.5914 1.00203 0.19544 0.0
O739 O 0.6484 0.05412 0.17602 0.0
O740 O 0.44971 1.01328 0.17684 0.0
O741 O 0.45332 0.03966 0.19835 0.0
C742 C 0.74313 0.23574 0.18334 0.0
O743 O 0.55947 0.03909 0.15367 0.0
O744 O 0.5603 0.15501 0.15285 0.0
C745 C 0.57643 0.10001 0.2393 0.0
C746 C 0.5328 0.0476 0.26468 0.0
C747 C 0.55412 0.12824 0.26105 0.0
C748 C 0.57569 0.15409 0.24849 0.0
C749 C 0.55262 1.01851 0.24276 0.0
C750 C 0.53078 0.99247 0.25535 0.0
C751 C 0.60825 0.13309 0.22654 0.0
H752 H 0.6284 1.02763 0.10784 0.0
H753 H 0.55865 0.99146 0.12844 0.0
H754 H 0.67205 0.25111 0.13779 0.0
H755 H 0.74206 0.28702 0.11732 0.0
H756 H 0.55511 0.17174 0.26796 0.0
H757 H 0.59391 0.2173 0.24601 0.0
H758 H 0.55285 0.97568 0.23585 0.0
H759 H 0.51528 0.9301 0.25787 0.0
Tb760 Tb 0.96776 0.47973 0.17244 0.0
Eu761 Eu 0.94743 0.44983 0.20357 0.0
C762 C 0.06196 0.62913 0.19121 0.0
C763 C 0.07353 0.41831 0.18797 0.0
C764 C 0.97194 0.52143 0.13683 0.0
C765 C 1.00801 0.5901 0.11638 0.0
C766 C 1.03151 0.57656 0.12828 0.0
C767 C 0.88802 0.47993 0.13341 0.0
C768 C 0.86428 0.49356 0.12146 0.0
C769 C 0.92422 0.54887 0.11282 0.0
C770 C 1.00087 0.50919 0.14911 0.0
O771 O 0.84648 0.36754 0.17446 0.0
O772 O 0.86912 0.3267 0.19393 0.0
O773 O 0.83476 0.45252 0.19686 0.0
O774 O 0.87585 0.51673 0.17731 0.0
C775 C 0.82533 0.31162 0.18349 0.0
O776 O 0.94717 0.37943 0.22021 0.0
O777 O 0.913 0.47398 0.22222 0.0
O778 O 1.01328 0.58786 0.20071 0.0
O779 O 0.06856 0.59079 0.18123 0.0
O780 O 1.02976 0.41063 0.17775 0.0
O781 O 0.06588 0.45309 0.19831 0.0
C782 C 0.82515 0.49129 0.18717 0.0
O783 O 1.01801 0.56593 0.15763 0.0
O784 O 0.96442 0.43508 0.15399 0.0
C785 C 0.95821 0.43642 0.24077 0.0
C786 C 1.01886 0.47479 0.26585 0.0
C787 C 0.93661 0.41305 0.26349 0.0
C788 C 0.90672 0.39408 0.25106 0.0
C789 C 1.04074 0.49712 0.24299 0.0
C790 C 0.07091 0.51606 0.25545 0.0
C791 C 0.92271 0.41748 0.22793 0.0
H792 H 0.0557 0.63212 0.10992 0.0
H793 H 0.09661 0.60902 0.13079 0.0
H794 H 0.84116 0.43743 0.13995 0.0
H795 H 0.79909 0.46171 0.11904 0.0
H796 H 0.8953 0.37922 0.27124 0.0
H797 H 0.8428 0.34677 0.2495 0.0
H798 H 0.08125 0.53053 0.23513 0.0
H799 H 0.13437 0.56453 0.25694 0.0
Tb800 Tb 0.60319 0.49308 0.17182 0.0
Eu801 Eu 0.59462 0.47882 0.20346 0.0
C802 C 0.43408 0.42499 0.1869 0.0
C803 C 0.65882 0.65282 0.18909 0.0
C804 C 0.57732 0.45756 0.13614 0.0
C805 C 0.49175 0.41988 0.11712 0.0
C806 C 0.51459 0.45905 0.12894 0.0
C807 C 0.61602 0.41506 0.13133 0.0
C808 C 0.59336 0.37612 0.1195 0.0
C809 C 0.53177 0.37904 0.11217 0.0
C810 C 0.60768 0.50753 0.14789 0.0
O811 O 0.73 0.53158 0.17799 0.0
O812 O 0.69826 0.46061 0.1968 0.0
O813 O 0.55098 0.3499 0.19657 0.0
O814 O 0.58052 0.36739 0.175 0.0
C815 C 0.74878 0.49673 0.18728 0.0
O816 O 0.66184 0.50834 0.22142 0.0
O817 O 0.52767 0.43181 0.2213 0.0
O818 O 0.47487 0.46856 0.19687 0.0
O819 O 0.47278 0.41579 0.17713 0.0
O820 O 0.62407 0.61354 0.17848 0.0
O821 O 0.66374 0.61455 0.19919 0.0
C822 C 0.55739 0.32199 0.18542 0.0
O823 O 0.55366 0.51297 0.15508 0.0
O824 O 0.66251 0.50039 0.15459 0.0
C825 C 0.59238 0.5018 0.24062 0.0
C826 C 0.57988 0.54903 0.26557 0.0
C827 C 0.64168 0.53008 0.26241 0.0
C828 C 0.64777 0.50666 0.25005 0.0
C829 C 0.53255 0.52379 0.24358 0.0
C830 C 0.52648 0.5474 0.25596 0.0
C831 C 0.59493 0.46716 0.22819 0.0
H832 H 0.44453 0.42381 0.11168 0.0
H833 H 0.48456 0.49237 0.13231 0.0
H834 H 0.6651 0.41316 0.13655 0.0
H835 H 0.62444 0.34398 0.11607 0.0
H836 H 0.68442 0.53195 0.26955 0.0
H837 H 0.69442 0.48993 0.24795 0.0
H838 H 0.48909 0.52044 0.23645 0.0
H839 H 0.47776 0.56102 0.25812 0.0
Tb840 Tb 0.4582 0.22257 0.03991 0.0
Eu841 Eu 0.4674 0.24072 1.00829 0.0
C842 C 0.35809 0.29036 0.02469 0.0
C843 C 0.35595 0.06472 1.02226 0.0
C844 C 0.46944 0.26034 0.0755 0.0
C845 C 0.42743 0.29584 0.09531 0.0
C846 C 0.40723 0.25594 0.08353 0.0
C847 C 0.55262 0.30702 0.07937 0.0
C848 C 0.57276 0.34671 0.09116 0.0
C849 C 0.51035 0.34046 0.09936 0.0
C850 C 0.44594 0.20925 0.06385 0.0
O851 O 0.54555 0.18261 0.03423 0.0
O852 O 0.58591 0.25056 1.01509 0.0
O853 O 0.54657 0.3701 1.01565 0.0
O854 O 0.56601 0.34469 0.03653 0.0
C855 C 0.59802 0.21341 0.02473 0.0
O856 O 0.50807 0.21522 0.99026 0.0
O857 O 0.4485 0.28977 0.99059 0.0
O858 O 0.35521 0.24619 1.0148 0.0
O859 O 0.40704 0.30092 0.03437 0.0
O860 O 0.36005 0.10251 0.033 0.0
O861 O 0.39831 0.10429 1.01214 0.0
C862 C 0.58504 0.39404 0.0266 0.0
O863 O 0.38962 0.20951 0.05654 0.0
O864 O 0.50536 0.20987 0.05728 0.0
C865 C 0.44587 0.22331 0.97104 0.0
C866 C 0.38875 0.1812 0.94587 0.0
C867 C 0.46925 0.19969 0.94913 0.0
C868 C 0.49747 0.22057 0.9616 0.0
C869 C 0.36419 0.2014 0.96798 0.0
C870 C 0.33581 0.18034 0.95548 0.0
C871 C 0.48191 0.25644 0.9836 0.0
H872 H 0.37787 0.28939 0.10142 0.0
H873 H 0.3426 0.21965 0.08085 0.0
H874 H 0.60221 0.31159 0.07345 0.0
H875 H 0.63735 0.38192 0.09388 0.0
H876 H 0.51102 0.19971 0.94198 0.0
H877 H 0.56075 0.23727 0.96378 0.0
H878 H 0.32324 0.20314 0.97511 0.0
H879 H 0.27364 0.16704 0.95325 0.0
Tb880 Tb 0.84745 0.25685 0.0389 0.0
Eu881 Eu 0.83548 0.252 1.0071 0.0
C882 C 0.78206 0.08838 0.02366 0.0
C883 C 1.00899 0.31369 1.02184 0.0
C884 C 0.80917 0.23025 0.07442 0.0
C885 C 0.76591 0.13971 0.09287 0.0
C886 C 0.8061 0.16369 0.08114 0.0
C887 C 0.77002 0.27139 0.07959 0.0
C888 C 0.73003 0.24748 0.09131 0.0
C889 C 0.72877 0.1823 0.09817 0.0
C890 C 0.8603 0.26193 0.06283 0.0
O891 O 0.88933 0.38431 0.03303 0.0
O892 O 0.81997 0.35701 1.01411 0.0
O893 O 0.70668 0.2112 1.01371 0.0
O894 O 0.72108 0.23319 0.03549 0.0
C895 C 0.85562 0.40539 0.02389 0.0
O896 O 0.86772 0.32083 0.98924 0.0
O897 O 0.788 0.18726 0.98909 0.0
O898 O 0.81959 0.12896 1.01327 0.0
O899 O 0.77534 0.12599 0.03378 0.0
O900 O 0.96921 0.2801 0.03247 0.0
O901 O 0.97131 0.31745 1.01156 0.0
C902 C 0.67722 0.21407 0.02491 0.0
O903 O 0.86873 0.20937 0.05573 0.0
O904 O 0.85132 0.31525 0.05605 0.0
C905 C 0.85677 0.25213 0.96969 0.0
C906 C 0.90295 0.24123 0.94454 0.0
C907 C 0.879 0.2993 0.94776 0.0
C908 C 0.85621 0.30463 0.96021 0.0
C909 C 0.88245 0.19526 0.96663 0.0
C910 C 0.90553 0.19 0.95415 0.0
C911 C 0.82456 0.25494 0.98234 0.0
H912 H 0.76627 0.08957 0.09798 0.0
H913 H 0.83663 0.13154 0.0775 0.0
H914 H 0.77168 0.32336 0.07472 0.0
H915 H 0.70055 0.2804 0.09504 0.0
H916 H 0.87769 0.34061 0.94066 0.0
H917 H 0.83647 0.34891 0.96238 0.0
H918 H 0.8831 0.15392 0.97379 0.0
H919 H 0.92308 0.14413 0.95197 0.0
Tb920 Tb 0.82062 0.60701 0.04084 0.0
Eu921 Eu 0.80895 0.60964 1.0095 0.0
C922 C 0.98643 0.70962 0.02429 0.0
C923 C 0.77342 0.72693 0.026 0.0
C924 C 0.85147 0.5951 0.07636 0.0
C925 C 0.93861 0.6449 0.09511 0.0
C926 C 0.91445 0.66011 0.08335 0.0
C927 C 0.81362 0.51429 0.08132 0.0
C928 C 0.83778 0.49912 0.09309 0.0
C929 C 0.89991 0.56437 0.10017 0.0
C930 C 0.81874 0.61338 0.06481 0.0
O931 O 0.71264 0.48978 0.03635 0.0
O932 O 0.68024 0.52514 1.01726 0.0
O933 O 0.81712 0.49736 1.01483 0.0
O934 O 0.86721 0.52406 0.03539 0.0
C935 C 0.66075 0.47525 0.02706 0.0
O936 O 0.74305 0.61567 0.99271 0.0
O937 O 0.84197 0.58685 0.99067 0.0
O938 O 0.94554 0.69029 1.01346 0.0
O939 O 0.95022 0.68517 0.03544 0.0
O940 O 0.75474 0.67174 0.03502 0.0
O941 O 0.81485 0.72691 1.01599 0.0
C942 C 0.84996 0.48143 0.02471 0.0
O943 O 0.86977 0.67524 0.0577 0.0
O944 O 0.76631 0.55055 0.05806 0.0
C945 C 0.80193 0.63073 0.97213 0.0
C946 C 0.83642 0.68901 0.94693 0.0
C947 C 0.77154 0.60881 0.94959 0.0
C948 C 0.75444 0.58012 0.96207 0.0
C949 C 0.86595 0.71134 0.96964 0.0
C950 C 0.88295 0.74041 0.95711 0.0
C951 C 0.78463 0.59548 0.98496 0.0
H952 H 0.98598 0.69668 0.1004 0.0
H953 H 0.94351 0.72319 0.07989 0.0
H954 H 0.76398 0.46287 0.07626 0.0
H955 H 0.80759 0.43632 0.09666 0.0
H956 H 0.73385 0.56815 0.94201 0.0
H957 H 0.70459 0.51766 0.96386 0.0
H958 H 0.90332 0.75108 0.97732 0.0
H959 H 0.93379 0.80233 0.95537 0.0
Tb960 Tb 0.50192 0.93859 0.84228 0.0
Eu961 Eu 0.52053 0.94934 0.87385 0.0
C962 C 0.53446 0.81234 0.85794 0.0
C963 C 0.34993 0.81653 0.86032 0.0
C964 C 0.51639 0.95637 0.80577 0.0
C965 C 0.53837 0.93149 0.78382 0.0
C966 C 0.51744 0.90389 0.79632 0.0
C967 C 0.53925 0.03811 0.80263 0.0
C968 C 0.56051 0.06593 0.79009 0.0
C969 C 0.55877 1.01236 0.7805 0.0
C970 C 0.48463 0.92099 0.81843 0.0
O971 O 0.49269 0.04627 0.84792 0.0
O972 O 0.43925 1.00099 0.86779 0.0
O973 O 0.64358 0.04882 0.86649 0.0
O974 O 0.63571 1.01308 0.84535 0.0
C975 C 0.44874 0.04618 0.85769 0.0
O976 O 0.53434 1.01989 0.89116 0.0
O977 O 0.53673 0.90502 0.89209 0.0
O978 O 0.56459 0.86251 0.86766 0.0
O979 O 0.49544 0.82492 0.84861 0.0
O980 O 0.37643 0.85769 0.84954 0.0
O981 O 0.39654 0.83513 0.87053 0.0
C982 C 0.67811 0.05479 0.8554 0.0
O983 O 0.52909 0.89923 0.82516 0.0
O984 O 0.45006 0.95313 0.8254 0.0
C985 C 0.48566 0.94129 0.91016 0.0
C986 C 0.40097 0.90054 0.93353 0.0
C987 C 0.44663 0.98343 0.92958 0.0
C988 C 0.48892 1.00359 0.91802 0.0
C989 C 0.43851 0.85819 0.91399 0.0
C990 C 0.39659 0.83809 0.92556 0.0
C991 C 0.53608 0.96444 0.89851 0.0
H992 H 0.53763 0.88917 0.77671 0.0
H993 H 0.49989 0.8405 0.79855 0.0
H994 H 0.53866 0.07968 0.80975 0.0
H995 H 0.57534 0.12846 0.78782 0.0
H996 H 0.4515 0.03285 0.93557 0.0
H997 H 0.52547 0.06811 0.91533 0.0
H998 H 0.43477 0.80864 0.90816 0.0
H999 H 0.36072 0.77355 0.92827 0.0
Tb1000 Tb 0.14428 0.60331 0.84076 0.0
Eu1001 Eu 0.12182 0.57175 0.87207 0.0
C1002 C 0.26808 0.74043 0.86019 0.0
C1003 C 0.2622 0.55733 0.85629 0.0
C1004 C 0.13262 0.61761 0.80446 0.0
C1005 C 0.15298 0.64583 0.78184 0.0
C1006 C 0.18371 0.66169 0.79422 0.0
C1007 C 0.04955 0.55847 0.80223 0.0
C1008 C 1.01854 0.5426 0.78981 0.0
C1009 C 0.07028 0.58547 0.77944 0.0
C1010 C 0.16941 0.63344 0.8172 0.0
O1011 O 0.07537 0.46881 0.84329 0.0
O1012 O 1.01515 0.46243 0.86249 0.0
O1013 O 0.0578 0.64271 0.86651 0.0
O1014 O 1.03229 0.60777 0.84539 0.0
C1015 C 1.02239 0.4261 0.85232 0.0
O1016 O 0.0746 0.48382 0.88779 0.0
O1017 O 0.12572 0.6149 0.89148 0.0
O1018 O 0.24652 0.68732 0.86962 0.0
O1019 O 0.22462 0.72316 0.84965 0.0
O1020 O 0.25367 0.60012 0.84708 0.0
O1021 O 0.21135 0.52911 0.86606 0.0
C1022 C 1.02066 0.63998 0.85577 0.0
O1023 O 0.15126 0.67601 0.82502 0.0
O1024 O 0.17143 0.57259 0.8229 0.0
C1025 C 0.12399 0.53023 0.90861 0.0
C1026 C 0.17656 0.50779 0.93268 0.0
C1027 C 0.09286 0.46147 0.92909 0.0
C1028 C 0.06702 0.47244 0.91719 0.0
C1029 C 0.20778 0.57702 0.91207 0.0
C1030 C 0.23387 0.56589 0.92403 0.0
C1031 C 0.09264 0.54078 0.89635 0.0
H1032 H 0.19406 0.68088 0.77413 0.0
H1033 H 0.24801 0.70789 0.7958 0.0
H1034 H 1.00931 0.52385 0.81005 0.0
H1035 H 0.9547 0.49518 0.78829 0.0
H1036 H 0.0469 0.41741 0.93556 0.0
H1037 H 1.00201 0.43604 0.91471 0.0
H1038 H 0.25282 0.6219 0.90557 0.0
H1039 H 0.29893 0.60194 0.92644 0.0
Tb1040 Tb 0.49372 0.57571 0.84069 0.0
Eu1041 Eu 0.48477 0.55968 0.87247 0.0
C1042 C 0.3382 0.55153 0.85611 0.0
C1043 C 0.53099 0.7322 0.85809 0.0
C1044 C 0.49332 0.55247 0.80425 0.0
C1045 C 0.445 0.52807 0.78238 0.0
C1046 C 0.43873 0.5498 0.79484 0.0
C1047 C 0.55257 0.52999 0.80113 0.0
C1048 C 0.55872 0.5079 0.78863 0.0
C1049 C 0.5061 0.50846 0.77906 0.0
C1050 C 0.49097 0.58645 0.81676 0.0
O1051 O 0.61457 0.59408 0.84658 0.0
O1052 O 0.61891 0.63938 0.86706 0.0
O1053 O 0.47119 0.43992 0.86511 0.0
O1054 O 0.43148 0.44303 0.84452 0.0
C1055 C 0.65625 0.63515 0.85674 0.0
O1056 O 0.52716 0.53388 0.89038 0.0
O1057 O 0.42383 0.55652 0.89028 0.0
O1058 O 0.35478 0.51475 0.86532 0.0
O1059 O 0.39218 0.59201 0.84714 0.0
O1060 O 0.5318 0.70074 0.84694 0.0
O1061 O 0.51218 0.69017 0.8688 0.0
C1062 C 0.43823 0.40309 0.85431 0.0
O1063 O 0.42535 0.54367 0.82371 0.0
O1064 O 0.5585 0.62253 0.82356 0.0
C1065 C 0.50391 0.59004 0.90933 0.0
C1066 C 0.55153 0.66604 0.9335 0.0
C1067 C 0.5824 0.61588 0.92891 0.0
C1068 C 0.55873 0.57825 0.917 0.0
C1069 C 0.47284 0.6402 0.91388 0.0
C1070 C 0.49649 0.67785 0.92583 0.0
C1071 C 0.47431 0.54375 0.89723 0.0
H1072 H 0.40279 0.52785 0.77528 0.0
H1073 H 0.39261 0.56706 0.79706 0.0
H1074 H 0.59555 0.53184 0.80822 0.0
H1075 H 0.60686 0.49364 0.78636 0.0
H1076 H 0.62371 0.60421 0.93463 0.0
H1077 H 0.58232 0.53861 0.91388 0.0
H1078 H 0.42957 0.64979 0.90829 0.0
H1079 H 0.47212 0.71666 0.92901 0.0
Tb1080 Tb 0.61436 0.8335 0.03835 0.0
Eu1081 Eu 0.634 0.82697 1.00686 0.0
C1082 C 0.48789 0.84781 1.01966 0.0
C1083 C 0.4952 0.67043 0.02269 0.0
C1084 C 0.63072 0.86487 0.07473 0.0
C1085 C 0.60403 0.87037 0.09718 0.0
C1086 C 0.57571 0.85231 0.08468 0.0
C1087 C 0.71559 0.90079 0.07733 0.0
C1088 C 0.74413 0.9192 0.08988 0.0
C1089 C 0.68816 0.90147 0.09999 0.0
C1090 C 0.5956 0.82915 0.06225 0.0
O1091 O 0.67402 0.76068 0.03435 0.0
O1092 O 0.74148 0.82448 1.01618 0.0
O1093 O 0.69952 0.9617 1.01242 0.0
O1094 O 0.72109 0.95445 0.03386 0.0
C1095 C 0.73124 0.77626 0.02584 0.0
O1096 O 0.68212 0.78866 0.99095 0.0
O1097 O 0.62544 0.86401 0.98746 0.0
O1098 O 0.51011 0.81897 1.00993 0.0
O1099 O 0.53072 0.87153 0.03028 0.0
O1100 O 0.50564 0.71966 0.03232 0.0
O1101 O 0.54426 0.69455 1.01269 0.0
C1102 C 0.73427 0.99686 0.02326 0.0
O1103 O 0.57484 0.87052 0.05463 0.0
O1104 O 0.62809 0.79168 0.05616 0.0
C1105 C 0.62916 0.78207 0.97025 0.0
C1106 C 0.57765 0.70625 0.94619 0.0
C1107 C 0.66014 0.73911 0.95019 0.0
C1108 C 0.68543 0.77632 0.96208 0.0
C1109 C 0.54654 0.74951 0.96636 0.0
C1110 C 0.52101 0.71189 0.95441 0.0
C1111 C 0.66044 0.82509 0.98246 0.0
H1112 H 0.55958 0.85756 0.1047 0.0
H1113 H 0.50993 0.82465 0.08284 0.0
H1114 H 0.75908 0.91085 0.06978 0.0
H1115 H 0.80932 0.94288 0.0917 0.0
H1116 H 0.70572 0.73736 0.94404 0.0
H1117 H 0.74961 0.80159 0.96486 0.0
H1118 H 0.50194 0.75321 0.97251 0.0
H1119 H 0.45685 0.68647 0.95167 0.0
Tb1120 Tb 0.25283 0.81255 0.03739 0.0
Eu1121 Eu 0.23636 0.80526 1.0056 0.0
C1122 C 0.2208 0.65424 1.0215 0.0
C1123 C 0.40606 0.84225 1.01957 0.0
C1124 C 0.23645 0.81491 0.07412 0.0
C1125 C 0.21525 0.76655 0.09604 0.0
C1126 C 0.23689 0.76158 0.08349 0.0
C1127 C 0.21218 0.8725 0.07747 0.0
C1128 C 0.1901 0.8773 0.09006 0.0
C1129 C 0.19242 0.82506 0.09955 0.0
C1130 C 0.26816 0.81237 0.06135 0.0
O1131 O 0.26417 0.9302 0.03151 0.0
O1132 O 0.31763 0.93752 1.01163 0.0
O1133 O 0.11361 0.78313 1.01282 0.0
O1134 O 0.11935 0.75313 0.03394 0.0
C1135 C 0.30801 0.97344 1.02167 0.0
O1136 O 0.22151 0.86059 0.98821 0.0
O1137 O 0.22358 0.7455 0.98739 0.0
O1138 O 0.19053 0.67454 1.01183 0.0
O1139 O 0.25918 0.70519 0.03095 0.0
O1140 O 0.37874 0.85532 0.03042 0.0
O1141 O 0.36042 0.81585 1.00925 0.0
C1142 C 0.078 0.75341 0.0238 0.0
O1143 O 0.22517 0.74611 0.05456 0.0
O1144 O 0.30177 0.8791 0.05439 0.0
C1145 C 0.27354 0.83312 0.96932 0.0
C1146 C 0.35882 0.87906 0.94601 0.0
C1147 C 0.31403 0.91684 0.95016 0.0
C1148 C 0.27145 0.89373 0.96169 0.0
C1149 C 0.31989 0.79666 0.9653 0.0
C1150 C 0.36214 0.81951 0.95376 0.0
C1151 C 0.22247 0.80451 0.98091 0.0
H1152 H 0.21653 0.72453 0.10301 0.0
H1153 H 0.25574 0.71685 0.08115 0.0
H1154 H 0.21181 0.91473 0.07046 0.0
H1155 H 0.1735 0.92362 0.09243 0.0
H1156 H 0.30997 0.96256 0.94434 0.0
H1157 H 0.23549 0.92212 0.96452 0.0
H1158 H 0.32269 0.74959 0.97094 0.0
H1159 H 0.39733 0.79039 0.95089 0.0
Tb1160 Tb 0.26239 0.45748 0.03788 0.0
Eu1161 Eu 0.2726 0.45372 1.00619 0.0
C1162 C 0.41898 0.58902 0.02276 0.0
C1163 C 0.22506 0.57806 1.02109 0.0
C1164 C 0.26348 0.42975 0.07406 0.0
C1165 C 0.31329 0.44965 0.09581 0.0
C1166 C 0.31909 0.47972 0.08351 0.0
C1167 C 0.204 0.34775 0.07693 0.0
C1168 C 0.19826 0.31746 0.08926 0.0
C1169 C 0.25159 0.36883 0.0989 0.0
C1170 C 0.26487 0.46831 0.06182 0.0
O1171 O 0.1419 0.35558 0.03173 0.0
O1172 O 0.13824 0.39868 1.01138 0.0
O1173 O 0.28545 0.34638 1.01326 0.0
O1174 O 0.32453 0.38731 0.03392 0.0
C1175 C 0.10058 0.35583 1.02158 0.0
O1176 O 0.2327 0.38696 0.98818 0.0
O1177 O 0.33276 0.51446 0.98849 0.0
O1178 O 0.40248 0.53632 1.01347 0.0
O1179 O 0.36441 0.5755 0.03163 0.0
O1180 O 0.22313 0.54409 0.03212 0.0
O1181 O 0.24517 0.55659 1.01033 0.0
C1182 C 0.31782 0.3413 0.02406 0.0
O1183 O 0.33075 0.49352 0.05484 0.0
O1184 O 0.19728 0.43671 0.05504 0.0
C1185 C 0.25312 0.46724 0.96942 0.0
C1186 C 0.20332 0.49437 0.94535 0.0
C1187 C 0.16889 0.41399 0.95037 0.0
C1188 C 0.19364 0.4006 0.96223 0.0
C1189 C 0.28758 0.54782 0.96444 0.0
C1190 C 0.26282 0.56123 0.95255 0.0
C1191 C 0.28401 0.45109 0.98143 0.0
H1192 H 0.35595 0.49025 0.10298 0.0
H1193 H 0.36545 0.54327 0.08147 0.0
H1194 H 0.16034 0.30809 0.06979 0.0
H1195 H 0.1496 0.25504 0.09137 0.0
H1196 H 0.12395 0.36093 0.94502 0.0
H1197 H 0.1672 0.33769 0.96566 0.0
H1198 H 0.33444 0.60058 0.96965 0.0
H1199 H 0.28997 0.62398 0.94903 0.0
Tb1200 Tb 0.24759 0.44692 0.5047 0.0
Eu1201 Eu 0.23531 0.44818 0.53622 0.0
C1202 C 0.31187 0.3467 0.52186 0.0
C1203 C 0.08117 0.33097 0.51982 0.0
C1204 C 0.28926 0.45518 0.46923 0.0
C1205 C 0.32655 0.41091 0.44984 0.0
C1206 C 0.288 0.39238 0.46172 0.0
C1207 C 0.33177 0.53722 0.46481 0.0
C1208 C 0.36988 0.55557 0.45295 0.0
C1209 C 0.36619 0.49247 0.44523 0.0
C1210 C 0.23772 0.4332 0.48077 0.0
O1211 O 0.25773 0.56548 0.50873 0.0
O1212 O 0.1927 0.53333 0.5281 0.0
O1213 O 0.35612 0.5592 0.53045 0.0
O1214 O 0.37672 0.53386 0.50962 0.0
C1215 C 0.22176 0.58162 0.51808 0.0
O1216 O 0.16441 0.44426 0.55305 0.0
O1217 O 0.2915 0.47145 0.55508 0.0
O1218 O 0.29114 0.36728 0.53264 0.0
O1219 O 0.29879 0.36937 0.51065 0.0
O1220 O 0.11776 0.38449 0.51063 0.0
O1221 O 0.12262 0.33122 0.52985 0.0
C1222 C 0.40314 0.5761 0.52031 0.0
O1223 O 0.23636 0.37708 0.48829 0.0
O1224 O 0.23897 0.49362 0.4871 0.0
C1225 C 0.20755 0.42811 0.5737 0.0
C1226 C 0.17927 0.36834 0.59895 0.0
C1227 C 0.19578 0.44895 0.59623 0.0
C1228 C 0.20958 0.4783 0.58375 0.0
C1229 C 0.1907 0.34745 0.57625 0.0
C1230 C 0.17653 0.31773 0.58878 0.0
C1231 C 0.22596 0.46358 0.56082 0.0
H1232 H 0.3226 0.36103 0.44408 0.0
H1233 H 0.2548 0.32851 0.46484 0.0
H1234 H 0.33365 0.58715 0.47032 0.0
H1235 H 0.40136 0.61918 0.44974 0.0
H1236 H 0.19723 0.48933 0.60373 0.0
H1237 H 0.22244 0.54081 0.58196 0.0
H1238 H 0.1892 0.3079 0.56861 0.0
H1239 H 0.16479 0.2556 0.5905 0.0
Tb1240 Tb 0.62245 0.80193 0.50551 0.0
Eu1241 Eu 0.61789 0.80594 0.53737 0.0
C1242 C 0.72732 0.96961 0.52106 0.0
C1243 C 0.72824 0.74428 0.52214 0.0
C1244 C 0.60583 0.82913 0.46995 0.0
C1245 C 0.65139 0.92225 0.45179 0.0
C1246 C 0.6678 0.89876 0.46356 0.0
C1247 C 0.52674 0.78477 0.46442 0.0
C1248 C 0.51053 0.80824 0.45264 0.0
C1249 C 0.57323 0.87637 0.44606 0.0
C1250 C 0.62616 0.79732 0.48149 0.0
O1251 O 0.53789 0.67437 0.51154 0.0
O1252 O 0.49689 0.70179 0.53054 0.0
O1253 O 0.53064 0.84832 0.53116 0.0
O1254 O 0.52061 0.82587 0.5094 0.0
C1255 C 0.48402 0.65303 0.52084 0.0
O1256 O 0.58486 0.73548 0.55506 0.0
O1257 O 0.63321 0.86838 0.55549 0.0
O1258 O 0.72531 0.92847 0.53132 0.0
O1259 O 0.68257 0.93259 0.51093 0.0
O1260 O 0.7208 0.77695 0.51149 0.0
O1261 O 0.68806 0.74126 0.53252 0.0
C1262 C 0.49739 0.84553 0.52007 0.0
O1263 O 0.68865 0.84913 0.48844 0.0
O1264 O 0.56442 0.74468 0.48844 0.0
C1265 C 0.64314 0.80431 0.57453 0.0
C1266 C 0.70162 0.82132 0.59964 0.0
C1267 C 0.62235 0.75678 0.5964 0.0
C1268 C 0.59348 0.74842 0.58396 0.0
C1269 C 0.72383 0.86655 0.57755 0.0
C1270 C 0.75293 0.87486 0.59001 0.0
C1271 C 0.60556 0.80038 0.5621 0.0
H1272 H 0.70091 0.97481 0.44698 0.0
H1273 H 0.72963 0.93368 0.46746 0.0
H1274 H 0.47759 0.73042 0.46903 0.0
H1275 H 0.4491 0.77265 0.44864 0.0
H1276 H 0.58187 0.71393 0.60355 0.0
H1277 H 0.53097 0.69992 0.5818 0.0
H1278 H 0.7632 0.91041 0.57042 0.0
H1279 H 0.8141 0.92566 0.59223 0.0
Tb1280 Tb 0.27053 0.83474 0.50519 0.0
Eu1281 Eu 0.2593 0.81441 0.53671 0.0
C1282 C 0.10221 0.76774 0.51993 0.0
C1283 C 0.32552 0.99151 0.52324 0.0
C1284 C 0.24326 0.80093 0.46953 0.0
C1285 C 0.16213 0.76829 0.4501 0.0
C1286 C 0.18428 0.80678 0.46197 0.0
C1287 C 0.27858 0.75444 0.46506 0.0
C1288 C 0.2566 0.71616 0.45319 0.0
C1289 C 0.19916 0.7238 0.44548 0.0
C1290 C 0.27343 0.85043 0.4813 0.0
O1291 O 0.39775 0.87823 0.5111 0.0
O1292 O 0.36918 0.80677 0.5299 0.0
O1293 O 0.20872 0.68552 0.52916 0.0
O1294 O 0.25775 0.71278 0.50852 0.0
C1295 C 0.41917 0.84628 0.52044 0.0
O1296 O 0.32366 0.83301 0.55478 0.0
O1297 O 0.18929 0.76795 0.55433 0.0
O1298 O 0.1433 0.81145 0.52987 0.0
O1299 O 0.14069 0.75606 0.5104 0.0
O1300 O 0.29265 0.95454 0.51239 0.0
O1301 O 0.32756 0.95114 0.53329 0.0
C1302 C 0.22613 0.66258 0.51836 0.0
O1303 O 0.21903 0.85418 0.48862 0.0
O1304 O 0.32932 0.84419 0.48784 0.0
C1305 C 0.25589 0.83102 0.57393 0.0
C1306 C 0.24729 0.8782 0.59907 0.0
C1307 C 0.30531 0.85439 0.59574 0.0
C1308 C 0.30945 0.83098 0.58329 0.0
C1309 C 0.20009 0.85799 0.57707 0.0
C1310 C 0.19596 0.88154 0.58954 0.0
C1311 C 0.25557 0.79613 0.56138 0.0
H1312 H 0.11802 0.77567 0.44436 0.0
H1313 H 0.1569 0.84308 0.4651 0.0
H1314 H 0.32458 0.74891 0.4706 0.0
H1315 H 0.285 0.68092 0.45001 0.0
H1316 H 0.34644 0.85234 0.60281 0.0
H1317 H 0.35301 0.8104 0.58105 0.0
H1318 H 0.15808 0.85851 0.57002 0.0
H1319 H 0.15008 0.89893 0.59183 0.0
Tb1320 Tb 0.13118 0.56715 0.37306 0.0
Eu1321 Eu 0.13839 0.57661 0.34112 0.0
C1322 C 1.03189 0.63286 0.35725 0.0
C1323 C 1.02795 0.40505 0.35605 0.0
C1324 C 0.14085 0.60829 0.40861 0.0
C1325 C 0.09721 0.64545 0.4281 0.0
C1326 C 0.07822 0.60641 0.41626 0.0
C1327 C 0.2233 0.65174 0.41291 0.0
C1328 C 0.24222 0.69049 0.42476 0.0
C1329 C 0.17925 0.68655 0.43259 0.0
C1330 C 0.11819 0.55692 0.39701 0.0
O1331 O 0.22009 0.52831 0.36811 0.0
O1332 O 0.2562 0.58513 0.3481 0.0
O1333 O 0.22635 0.70527 0.34762 0.0
O1334 O 0.23737 0.69082 0.36934 0.0
C1335 C 0.27055 0.55426 0.35835 0.0
O1336 O 0.17402 0.54358 0.32325 0.0
O1337 O 0.1197 0.62287 0.32308 0.0
O1338 O 1.02889 0.58794 0.34745 0.0
O1339 O 0.08082 0.64463 0.36696 0.0
O1340 O 1.0331 0.44493 0.36663 0.0
O1341 O 0.06942 0.44227 0.34578 0.0
C1342 C 0.26109 0.73421 0.3587 0.0
O1343 O 0.06212 0.55643 0.38954 0.0
O1344 O 0.17811 0.55732 0.39061 0.0
C1345 C 0.11151 0.5497 0.30393 0.0
C1346 C 0.04954 0.49748 0.27912 0.0
C1347 C 0.12981 0.51498 0.28236 0.0
C1348 C 0.16035 0.54081 0.29462 0.0
C1349 C 1.03045 0.53022 0.30087 0.0
C1350 C 0.9997 0.50416 0.28858 0.0
C1351 C 0.14965 0.58521 0.31631 0.0
H1352 H 0.04728 0.64092 0.43393 0.0
H1353 H 1.01407 0.57248 0.41325 0.0
H1354 H 0.27314 0.65417 0.4073 0.0
H1355 H 0.30627 0.72299 0.42784 0.0
H1356 H 0.16934 0.5093 0.27538 0.0
H1357 H 0.22316 0.55567 0.29678 0.0
H1358 H 0.99161 0.53682 0.30787 0.0
H1359 H 0.9378 0.49182 0.28638 0.0
Tb1360 Tb 0.51817 0.59423 0.37299 0.0
Eu1361 Eu 0.50694 0.58921 0.34127 0.0
C1362 C 0.45295 0.42827 0.35777 0.0
C1363 C 0.67967 0.65209 0.35586 0.0
C1364 C 0.48001 0.55966 0.40841 0.0
C1365 C 0.44913 0.47782 0.42771 0.0
C1366 C 0.4881 0.50177 0.41589 0.0
C1367 C 0.43027 0.59147 0.41279 0.0
C1368 C 0.39165 0.56782 0.4246 0.0
C1369 C 0.40212 0.51215 0.4323 0.0
C1370 C 0.53075 0.59282 0.39686 0.0
O1371 O 0.55909 0.72176 0.36775 0.0
O1372 O 0.49778 0.69827 0.34809 0.0
O1373 O 0.37831 0.54844 0.34776 0.0
O1374 O 0.39374 0.57585 0.36939 0.0
C1375 C 0.53094 0.74497 0.35813 0.0
O1376 O 0.54062 0.65635 0.32327 0.0
O1377 O 0.45699 0.52332 0.32344 0.0
O1378 O 0.49734 0.46957 0.34788 0.0
O1379 O 0.44035 0.46596 0.36729 0.0
O1380 O 0.6401 0.61795 0.36648 0.0
O1381 O 0.64194 0.65565 0.34561 0.0
C1382 C 0.34971 0.55511 0.3588 0.0
O1383 O 0.53665 0.54048 0.38934 0.0
O1384 O 0.52387 0.64912 0.39054 0.0
C1385 C 0.52716 0.58453 0.30402 0.0
C1386 C 0.56754 0.56517 0.27896 0.0
C1387 C 0.54877 0.62733 0.28191 0.0
C1388 C 0.52884 0.63688 0.29433 0.0
C1389 C 0.54906 0.52445 0.30126 0.0
C1390 C 0.56931 0.51498 0.28881 0.0
C1391 C 0.49554 0.59018 0.31654 0.0
H1392 H 0.45845 0.43498 0.43345 0.0
H1393 H 0.5268 0.47702 0.41279 0.0
H1394 H 0.42283 0.63636 0.40728 0.0
H1395 H 0.35441 0.59407 0.42778 0.0
H1396 H 0.54799 0.66761 0.27457 0.0
H1397 H 0.51215 0.68369 0.2963 0.0
H1398 H 0.54809 0.48333 0.3086 0.0
H1399 H 0.58288 0.46606 0.28682 0.0
Tb1400 Tb 0.49157 0.95109 0.37333 0.0
Eu1401 Eu 0.49343 0.94598 0.34123 0.0
C1402 C 0.6562 0.05272 0.3573 0.0
C1403 C 0.43243 0.05555 0.35663 0.0
C1404 C 0.52166 0.93919 0.40902 0.0
C1405 C 0.5891 0.98139 0.42964 0.0
C1406 C 0.57118 1.00152 0.41771 0.0
C1407 C 0.49198 0.85603 0.41236 0.0
C1408 C 0.50979 0.83588 0.4243 0.0
C1409 C 0.55741 0.8982 0.43316 0.0
C1410 C 0.49348 0.96164 0.39732 0.0
O1411 O 0.36384 0.86306 0.36817 0.0
O1412 O 0.3845 0.82804 0.34808 0.0
O1413 O 0.53301 0.8568 0.34755 0.0
O1414 O 0.51073 0.8463 0.36935 0.0
C1415 C 0.33926 0.81332 0.35833 0.0
O1416 O 0.42476 0.91688 0.32334 0.0
O1417 O 0.55655 0.95866 0.32322 0.0
O1418 O 0.61413 0.05546 0.34749 0.0
O1419 O 0.61948 1.00365 0.36702 0.0
O1420 O 0.46639 0.04905 0.36721 0.0
O1421 O 0.4289 1.01545 0.34623 0.0
C1422 C 0.5292 0.82265 0.3586 0.0
O1423 O 0.54911 1.01863 0.38999 0.0
O1424 O 0.43502 0.90169 0.39079 0.0
C1425 C 0.49603 0.96844 0.30371 0.0
C1426 C 0.51693 1.02228 0.27824 0.0
C1427 C 0.45261 0.94323 0.28161 0.0
C1428 C 0.44227 0.91672 0.29422 0.0
C1429 C 0.55859 0.04858 0.30051 0.0
C1430 C 0.56875 0.07541 0.28787 0.0
C1431 C 0.48937 0.93344 0.31647 0.0
H1432 H 0.62532 0.03082 0.43625 0.0
H1433 H 0.5939 0.06604 0.41544 0.0
H1434 H 0.45335 0.80639 0.40592 0.0
H1435 H 0.48566 0.7712 0.4266 0.0
H1436 H 0.411 0.90133 0.27446 0.0
H1437 H 0.39364 0.85455 0.2965 0.0
H1438 H 0.60097 0.08944 0.30768 0.0
H1439 H 0.6193 0.13648 0.28557 0.0
loop_
_geom_bond_atom_site_label_1
_geom_bond_atom_site_label_2
_geom_bond_distance
_geom_bond_site_symmetry_2
_ccdc_geom_bond_type
Tb0 C10 2.825 . S
Tb0 O11 2.347 . S
Tb0 O14 2.366 . S
Tb0 O19 2.418 . S
Tb0 O20 2.384 . S
Tb0 O23 2.479 . S
Tb0 O24 2.471 . S
Eu1 O12 2.418 . S
Eu1 O13 2.384 . S
Eu1 O16 2.479 . S
Eu1 O17 2.471 . S
Eu1 O18 2.347 . S
Eu1 O21 2.366 . S
Eu1 C31 2.825 . S
C2 O18 1.259 . S
C2 O19 1.265 . S
C3 O20 1.255 . S
C3 O21 1.265 . S
C4 C6 1.380 . S
C4 C7 1.374 . S
C4 C10 1.507 . S
C5 C6 1.384 . S
C5 C9 1.387 . S
C5 H32 0.930 . S
C6 C4 1.380 . S
C6 C5 1.384 . S
C6 H33 0.931 . S
C7 C4 1.374 . S
C7 C8 1.390 . S
C7 H34 0.930 . S
C8 C7 1.390 . S
C8 C9 1.391 . S
C8 H35 0.930 . S
C9 C5 1.387 . S
C9 C8 1.391 . S
C10 Tb0 2.825 . S
C10 C4 1.507 . S
C10 O23 1.238 . S
C10 O24 1.247 . S
O11 Tb0 2.347 . S
O11 C15 1.259 . S
O12 Eu1 2.418 . S
O12 C15 1.265 . S
O13 Eu1 2.384 . S
O13 C22 1.255 . S
O14 Tb0 2.366 . S
O14 C22 1.265 . S
C15 O11 1.259 . S
C15 O12 1.265 . S
O16 Eu1 2.479 . S
O16 C31 1.238 . S
O17 Eu1 2.471 . S
O17 C31 1.247 . S
O18 Eu1 2.347 . S
O18 C2 1.259 . S
O19 Tb0 2.418 . S
O19 C2 1.265 . S
O20 Tb0 2.384 . S
O20 C3 1.255 . S
O21 Eu1 2.366 . S
O21 C3 1.265 . S
C22 O13 1.255 . S
C22 O14 1.265 . S
O23 Tb0 2.479 . S
O23 C10 1.238 . S
O24 Tb0 2.471 . S
O24 C10 1.247 . S
C25 C28 1.380 . S
C25 C29 1.374 . S
C25 C31 1.507 . S
C26 C27 1.387 1_655 S
C26 C30 1.391 1_655 S
C27 C26 1.387 1_455 S
C27 C28 1.384 . S
C27 H36 0.930 . S
C28 C25 1.380 . S
C28 C27 1.384 . S
C28 H37 0.931 . S
C29 C25 1.374 . S
C29 C30 1.390 . S
C29 H38 0.930 . S
C30 C26 1.391 1_455 S
C30 C29 1.390 . S
C30 H39 0.930 1_455 S
C31 Eu1 2.825 . S
C31 O16 1.238 . S
C31 O17 1.247 . S
C31 C25 1.507 . S
H32 C5 0.930 . S
H33 C6 0.931 . S
H34 C7 0.930 . S
H35 C8 0.930 . S
H36 C27 0.930 . S
H37 C28 0.931 . S
H38 C29 0.930 . S
H39 C30 0.930 1_655 S
Tb40 C50 2.825 . S
Tb40 O51 2.347 . S
Tb40 O54 2.366 . S
Tb40 O59 2.418 1_565 S
Tb40 O60 2.384 . S
Tb40 O63 2.479 . S
Tb40 O64 2.471 . S
Eu41 O52 2.418 . S
Eu41 O53 2.384 . S
Eu41 O56 2.479 . S
Eu41 O57 2.471 . S
Eu41 O58 2.347 1_565 S
Eu41 O61 2.366 . S
Eu41 C71 2.825 . S
C42 O58 1.259 . S
C42 O59 1.265 . S
C43 O60 1.255 . S
C43 O61 1.265 . S
C44 C46 1.380 . S
C44 C47 1.374 . S
C44 C50 1.507 . S
C45 C46 1.384 . S
C45 C49 1.387 . S
C45 H72 0.930 1_565 S
C46 C44 1.380 . S
C46 C45 1.384 . S
C46 H73 0.931 1_565 S
C47 C44 1.374 . S
C47 C48 1.390 . S
C47 H74 0.930 . S
C48 C47 1.390 . S
C48 C49 1.391 . S
C48 H75 0.930 . S
C49 C45 1.387 . S
C49 C48 1.391 . S
C50 Tb40 2.825 . S
C50 C44 1.507 . S
C50 O63 1.238 . S
C50 O64 1.247 . S
O51 Tb40 2.347 . S
O51 C55 1.259 . S
O52 Eu41 2.418 . S
O52 C55 1.265 . S
O53 Eu41 2.384 . S
O53 C62 1.255 . S
O54 Tb40 2.366 . S
O54 C62 1.265 . S
C55 O51 1.259 . S
C55 O52 1.265 . S
O56 Eu41 2.479 . S
O56 C71 1.238 . S
O57 Eu41 2.471 . S
O57 C71 1.247 . S
O58 Eu41 2.347 1_545 S
O58 C42 1.259 . S
O59 Tb40 2.418 1_545 S
O59 C42 1.265 . S
O60 Tb40 2.384 . S
O60 C43 1.255 . S
O61 Eu41 2.366 . S
O61 C43 1.265 . S
C62 O53 1.255 . S
C62 O54 1.265 . S
O63 Tb40 2.479 . S
O63 C50 1.238 . S
O64 Tb40 2.471 . S
O64 C50 1.247 . S
C65 C68 1.380 . S
C65 C69 1.374 . S
C65 C71 1.507 . S
C66 C67 1.387 . S
C66 C70 1.391 . S
C67 C66 1.387 . S
C67 C68 1.384 . S
C67 H76 0.930 . S
C68 C65 1.380 . S
C68 C67 1.384 . S
C68 H77 0.931 . S
C69 C65 1.374 . S
C69 C70 1.390 . S
C69 H78 0.930 . S
C70 C66 1.391 . S
C70 C69 1.390 . S
C70 H79 0.930 . S
C71 Eu41 2.825 . S
C71 O56 1.238 . S
C71 O57 1.247 . S
C71 C65 1.507 . S
H72 C45 0.930 1_545 S
H73 C46 0.931 1_545 S
H74 C47 0.930 . S
H75 C48 0.930 . S
H76 C67 0.930 . S
H77 C68 0.931 . S
H78 C69 0.930 . S
H79 C70 0.930 . S
Tb80 C90 2.825 . S
Tb80 O91 2.347 . S
Tb80 O94 2.366 . S
Tb80 O99 2.418 1_455 S
Tb80 O100 2.384 . S
Tb80 O103 2.479 . S
Tb80 O104 2.471 . S
Eu81 O92 2.418 . S
Eu81 O93 2.384 . S
Eu81 O96 2.479 . S
Eu81 O97 2.471 . S
Eu81 O98 2.347 1_455 S
Eu81 O101 2.366 . S
Eu81 C111 2.825 . S
C82 O98 1.259 . S
C82 O99 1.265 . S
C83 O100 1.255 . S
C83 O101 1.265 . S
C84 C86 1.380 . S
C84 C87 1.374 . S
C84 C90 1.507 . S
C85 C86 1.381 . S
C85 C89 1.402 . S
C85 H112 0.919 1_455 S
C86 C84 1.380 . S
C86 C85 1.381 . S
C86 H113 0.931 1_455 S
C87 C84 1.374 . S
C87 C88 1.390 . S
C87 H114 0.930 . S
C88 C87 1.390 . S
C88 C89 1.391 . S
C88 H115 0.930 . S
C89 C85 1.402 . S
C89 C88 1.391 . S
C90 Tb80 2.825 . S
C90 C84 1.507 . S
C90 O103 1.238 . S
C90 O104 1.247 . S
O91 Tb80 2.347 . S
O91 C95 1.259 . S
O92 Eu81 2.418 . S
O92 C95 1.265 . S
O93 Eu81 2.384 . S
O93 C102 1.255 . S
O94 Tb80 2.366 . S
O94 C102 1.265 . S
C95 O91 1.259 . S
C95 O92 1.265 . S
O96 Eu81 2.479 . S
O96 C111 1.238 . S
O97 Eu81 2.471 . S
O97 C111 1.247 . S
O98 Eu81 2.347 1_655 S
O98 C82 1.259 . S
O99 Tb80 2.418 1_655 S
O99 C82 1.265 . S
O100 Tb80 2.384 . S
O100 C83 1.255 . S
O101 Eu81 2.366 . S
O101 C83 1.265 . S
C102 O93 1.255 . S
C102 O94 1.265 . S
O103 Tb80 2.479 . S
O103 C90 1.238 . S
O104 Tb80 2.471 . S
O104 C90 1.247 . S
C105 C108 1.380 . S
C105 C109 1.374 . S
C105 C111 1.507 . S
C106 C107 1.387 1_545 S
C106 C110 1.391 1_545 S
C107 C106 1.387 1_565 S
C107 C108 1.384 . S
C107 H116 0.930 . S
C108 C105 1.380 . S
C108 C107 1.384 . S
C108 H117 0.931 . S
C109 C105 1.374 . S
C109 C110 1.390 . S
C109 H118 0.930 . S
C110 C106 1.391 1_565 S
C110 C109 1.390 . S
C110 H119 0.930 1_565 S
C111 Eu81 2.825 . S
C111 O96 1.238 . S
C111 O97 1.247 . S
C111 C105 1.507 . S
H112 C85 0.919 1_655 S
H113 C86 0.931 1_655 S
H114 C87 0.930 . S
H115 C88 0.930 . S
H116 C107 0.930 . S
H117 C108 0.931 . S
H118 C109 0.930 . S
H119 C110 0.930 1_545 S
Tb120 C130 2.825 . S
Tb120 O131 2.347 . S
Tb120 O134 2.366 . S
Tb120 O139 2.418 . S
Tb120 O140 2.384 . S
Tb120 O143 2.479 . S
Tb120 O144 2.471 . S
Eu121 O132 2.418 . S
Eu121 O133 2.384 . S
Eu121 O136 2.479 . S
Eu121 O137 2.471 . S
Eu121 O138 2.347 . S
Eu121 O141 2.366 . S
Eu121 C151 2.825 . S
C122 O138 1.259 . S
C122 O139 1.265 . S
C123 O140 1.255 . S
C123 O141 1.265 . S
C124 C126 1.380 . S
C124 C127 1.374 . S
C124 C130 1.507 . S
C125 C126 1.384 . S
C125 C129 1.387 . S
C125 H152 0.930 . S
C126 C124 1.380 . S
C126 C125 1.384 . S
C126 H153 0.931 . S
C127 C124 1.374 . S
C127 C128 1.390 . S
C127 H154 0.930 . S
C128 C127 1.390 . S
C128 C129 1.391 . S
C128 H155 0.930 . S
C129 C125 1.387 . S
C129 C128 1.391 . S
C130 Tb120 2.825 . S
C130 C124 1.507 . S
C130 O143 1.238 . S
C130 O144 1.247 . S
O131 Tb120 2.347 . S
O131 C135 1.259 . S
O132 Eu121 2.418 . S
O132 C135 1.265 . S
O133 Eu121 2.384 . S
O133 C142 1.255 . S
O134 Tb120 2.366 . S
O134 C142 1.265 . S
C135 O131 1.259 . S
C135 O132 1.265 . S
O136 Eu121 2.479 . S
O136 C151 1.238 . S
O137 Eu121 2.471 . S
O137 C151 1.247 . S
O138 Eu121 2.347 . S
O138 C122 1.259 . S
O139 Tb120 2.418 . S
O139 C122 1.265 . S
O140 Tb120 2.384 . S
O140 C123 1.255 . S
O141 Eu121 2.366 . S
O141 C123 1.265 . S
C142 O133 1.255 . S
C142 O134 1.265 . S
O143 Tb120 2.479 . S
O143 C130 1.238 . S
O144 Tb120 2.471 . S
O144 C130 1.247 . S
C145 C148 1.380 . S
C145 C149 1.374 . S
C145 C151 1.507 . S
C146 C147 1.387 1_565 S
C146 C150 1.391 1_565 S
C147 C146 1.387 1_545 S
C147 C148 1.384 . S
C147 H156 0.930 . S
C148 C145 1.380 . S
C148 C147 1.384 . S
C148 H157 0.931 . S
C149 C145 1.374 . S
C149 C150 1.390 . S
C149 H158 0.930 . S
C150 C146 1.391 1_545 S
C150 C149 1.390 . S
C150 H159 0.930 1_545 S
C151 Eu121 2.825 . S
C151 O136 1.238 . S
C151 O137 1.247 . S
C151 C145 1.507 . S
H152 C125 0.930 . S
H153 C126 0.931 . S
H154 C127 0.930 . S
H155 C128 0.930 . S
H156 C147 0.930 . S
H157 C148 0.931 . S
H158 C149 0.930 . S
H159 C150 0.930 1_565 S
Tb160 C170 2.825 . S
Tb160 O171 2.347 . S
Tb160 O174 2.366 . S
Tb160 O179 2.418 1_545 S
Tb160 O180 2.384 . S
Tb160 O183 2.479 . S
Tb160 O184 2.471 . S
Eu161 O172 2.418 . S
Eu161 O173 2.384 . S
Eu161 O176 2.479 . S
Eu161 O177 2.471 . S
Eu161 O178 2.347 1_545 S
Eu161 O181 2.366 . S
Eu161 C191 2.825 . S
C162 O178 1.259 . S
C162 O179 1.265 . S
C163 O180 1.255 . S
C163 O181 1.265 . S
C164 C166 1.380 . S
C164 C167 1.374 . S
C164 C170 1.507 . S
C165 C166 1.384 . S
C165 C169 1.387 . S
C165 H192 0.930 1_545 S
C166 C164 1.380 . S
C166 C165 1.384 . S
C166 H193 0.931 1_545 S
C167 C164 1.374 . S
C167 C168 1.390 . S
C167 H194 0.930 . S
C168 C167 1.390 . S
C168 C169 1.391 . S
C168 H195 0.930 . S
C169 C165 1.387 . S
C169 C168 1.391 . S
C170 Tb160 2.825 . S
C170 C164 1.507 . S
C170 O183 1.238 . S
C170 O184 1.247 . S
O171 Tb160 2.347 . S
O171 C175 1.259 . S
O172 Eu161 2.418 . S
O172 C175 1.265 . S
O173 Eu161 2.384 . S
O173 C182 1.255 . S
O174 Tb160 2.366 . S
O174 C182 1.265 . S
C175 O171 1.259 . S
C175 O172 1.265 . S
O176 Eu161 2.479 . S
O176 C191 1.238 . S
O177 Eu161 2.471 . S
O177 C191 1.247 . S
O178 Eu161 2.347 1_565 S
O178 C162 1.259 . S
O179 Tb160 2.418 1_565 S
O179 C162 1.265 . S
O180 Tb160 2.384 . S
O180 C163 1.255 . S
O181 Eu161 2.366 . S
O181 C163 1.265 . S
C182 O173 1.255 . S
C182 O174 1.265 . S
O183 Tb160 2.479 . S
O183 C170 1.238 . S
O184 Tb160 2.471 . S
O184 C170 1.247 . S
C185 C188 1.380 . S
C185 C189 1.374 . S
C185 C191 1.507 . S
C186 C187 1.387 1_455 S
C186 C190 1.391 1_455 S
C187 C186 1.387 1_655 S
C187 C188 1.384 . S
C187 H196 0.930 . S
C188 C185 1.380 . S
C188 C187 1.384 . S
C188 H197 0.931 . S
C189 C185 1.374 . S
C189 C190 1.390 . S
C189 H198 0.930 . S
C190 C186 1.391 1_655 S
C190 C189 1.390 . S
C190 H199 0.930 1_655 S
C191 Eu161 2.825 . S
C191 O176 1.238 . S
C191 O177 1.247 . S
C191 C185 1.507 . S
H192 C165 0.930 1_565 S
H193 C166 0.931 1_565 S
H194 C167 0.930 . S
H195 C168 0.930 . S
H196 C187 0.930 . S
H197 C188 0.931 . S
H198 C189 0.930 . S
H199 C190 0.930 1_455 S
Tb200 C210 2.825 . S
Tb200 O211 2.347 . S
Tb200 O214 2.366 . S
Tb200 O219 2.418 1_655 S
Tb200 O220 2.384 . S
Tb200 O223 2.479 . S
Tb200 O224 2.471 . S
Eu201 O212 2.418 . S
Eu201 O213 2.384 . S
Eu201 O216 2.479 . S
Eu201 O217 2.471 . S
Eu201 O218 2.347 1_655 S
Eu201 O221 2.366 . S
Eu201 C231 2.825 . S
C202 O218 1.259 . S
C202 O219 1.265 . S
C203 O220 1.255 . S
C203 O221 1.265 . S
C204 C206 1.380 . S
C204 C207 1.374 . S
C204 C210 1.507 . S
C205 C206 1.384 . S
C205 C209 1.387 . S
C205 H232 0.930 1_655 S
C206 C204 1.380 . S
C206 C205 1.384 . S
C206 H233 0.931 1_655 S
C207 C204 1.374 . S
C207 C208 1.390 . S
C207 H234 0.930 . S
C208 C207 1.390 . S
C208 C209 1.391 . S
C208 H235 0.930 . S
C209 C205 1.387 . S
C209 C208 1.391 . S
C210 Tb200 2.825 . S
C210 C204 1.507 . S
C210 O223 1.238 . S
C210 O224 1.247 . S
O211 Tb200 2.347 . S
O211 C215 1.259 . S
O212 Eu201 2.418 . S
O212 C215 1.265 . S
O213 Eu201 2.384 . S
O213 C222 1.255 . S
O214 Tb200 2.366 . S
O214 C222 1.265 . S
C215 O211 1.259 . S
C215 O212 1.265 . S
O216 Eu201 2.479 . S
O216 C231 1.238 . S
O217 Eu201 2.471 . S
O217 C231 1.247 . S
O218 Eu201 2.347 1_455 S
O218 C202 1.259 . S
O219 Tb200 2.418 1_455 S
O219 C202 1.265 . S
O220 Tb200 2.384 . S
O220 C203 1.255 . S
O221 Eu201 2.366 . S
O221 C203 1.265 . S
C222 O213 1.255 . S
C222 O214 1.265 . S
O223 Tb200 2.479 . S
O223 C210 1.238 . S
O224 Tb200 2.471 . S
O224 C210 1.247 . S
C225 C228 1.380 . S
C225 C229 1.374 . S
C225 C231 1.507 . S
C226 C227 1.387 . S
C226 C230 1.391 . S
C227 C226 1.387 . S
C227 C228 1.384 . S
C227 H236 0.930 . S
C228 C225 1.380 . S
C228 C227 1.384 . S
C228 H237 0.931 . S
C229 C225 1.374 . S
C229 C230 1.390 . S
C229 H238 0.930 . S
C230 C226 1.391 . S
C230 C229 1.390 . S
C230 H239 0.930 . S
C231 Eu201 2.825 . S
C231 O216 1.238 . S
C231 O217 1.247 . S
C231 C225 1.507 . S
H232 C205 0.930 1_455 S
H233 C206 0.931 1_455 S
H234 C207 0.930 . S
H235 C208 0.930 . S
H236 C227 0.930 . S
H237 C228 0.931 . S
H238 C229 0.930 . S
H239 C230 0.930 . S
Tb240 C250 2.825 . S
Tb240 O251 2.347 . S
Tb240 O254 2.366 . S
Tb240 O259 2.418 . S
Tb240 O260 2.384 . S
Tb240 O263 2.479 . S
Tb240 O264 2.471 . S
Eu241 O252 2.418 . S
Eu241 O253 2.384 . S
Eu241 O256 2.479 . S
Eu241 O257 2.471 . S
Eu241 O258 2.347 . S
Eu241 O261 2.366 . S
Eu241 C271 2.825 . S
C242 O258 1.259 . S
C242 O259 1.265 . S
C243 O260 1.255 . S
C243 O261 1.265 . S
C244 C246 1.380 . S
C244 C247 1.374 . S
C244 C250 1.507 . S
C245 C246 1.384 . S
C245 C249 1.387 1_655 S
C245 H272 0.930 . S
C246 C244 1.380 . S
C246 C245 1.384 . S
C246 H273 0.931 . S
C247 C244 1.374 . S
C247 C248 1.390 . S
C247 H274 0.930 . S
C248 C247 1.390 . S
C248 C249 1.391 1_655 S
C248 H275 0.930 1_655 S
C249 C245 1.387 1_455 S
C249 C248 1.391 1_455 S
C250 Tb240 2.825 . S
C250 C244 1.507 . S
C250 O263 1.238 . S
C250 O264 1.247 . S
O251 Tb240 2.347 . S
O251 C255 1.259 . S
O252 Eu241 2.418 . S
O252 C255 1.265 . S
O253 Eu241 2.384 . S
O253 C262 1.255 . S
O254 Tb240 2.366 . S
O254 C262 1.265 . S
C255 O251 1.259 . S
C255 O252 1.265 . S
O256 Eu241 2.479 . S
O256 C271 1.238 . S
O257 Eu241 2.471 . S
O257 C271 1.247 . S
O258 Eu241 2.347 . S
O258 C242 1.259 . S
O259 Tb240 2.418 . S
O259 C242 1.265 . S
O260 Tb240 2.384 . S
O260 C243 1.255 . S
O261 Eu241 2.366 . S
O261 C243 1.265 . S
C262 O253 1.255 . S
C262 O254 1.265 . S
O263 Tb240 2.479 . S
O263 C250 1.238 . S
O264 Tb240 2.471 . S
O264 C250 1.247 . S
C265 C268 1.380 . S
C265 C269 1.374 . S
C265 C271 1.507 . S
C266 C267 1.387 . S
C266 C270 1.391 . S
C267 C266 1.387 . S
C267 C268 1.384 . S
C267 H276 0.930 . S
C268 C265 1.380 . S
C268 C267 1.384 . S
C268 H277 0.931 . S
C269 C265 1.374 . S
C269 C270 1.390 . S
C269 H278 0.930 . S
C270 C266 1.391 . S
C270 C269 1.390 . S
C270 H279 0.930 . S
C271 Eu241 2.825 . S
C271 O256 1.238 . S
C271 O257 1.247 . S
C271 C265 1.507 . S
H272 C245 0.930 . S
H273 C246 0.931 . S
H274 C247 0.930 . S
H275 C248 0.930 1_455 S
H276 C267 0.930 . S
H277 C268 0.931 . S
H278 C269 0.930 . S
H279 C270 0.930 . S
Tb280 C290 2.825 . S
Tb280 O291 2.347 1_545 S
Tb280 O294 2.366 . S
Tb280 O299 2.418 . S
Tb280 O300 2.384 . S
Tb280 O303 2.479 . S
Tb280 O304 2.471 . S
Eu281 O292 2.418 1_545 S
Eu281 O293 2.384 . S
Eu281 O296 2.479 . S
Eu281 O297 2.471 . S
Eu281 O298 2.347 . S
Eu281 O301 2.366 . S
Eu281 C311 2.825 . S
C282 O298 1.259 . S
C282 O299 1.265 . S
C283 O300 1.255 . S
C283 O301 1.265 . S
C284 C286 1.380 . S
C284 C287 1.374 . S
C284 C290 1.507 . S
C285 C286 1.384 . S
C285 C289 1.387 . S
C285 H312 0.930 . S
C286 C284 1.380 . S
C286 C285 1.384 . S
C286 H313 0.931 . S
C287 C284 1.374 . S
C287 C288 1.390 . S
C287 H314 0.930 . S
C288 C287 1.390 . S
C288 C289 1.391 . S
C288 H315 0.930 . S
C289 C285 1.387 . S
C289 C288 1.391 . S
C290 Tb280 2.825 . S
C290 C284 1.507 . S
C290 O303 1.238 . S
C290 O304 1.247 . S
O291 Tb280 2.347 1_565 S
O291 C295 1.259 . S
O292 Eu281 2.418 1_565 S
O292 C295 1.265 . S
O293 Eu281 2.384 . S
O293 C302 1.255 . S
O294 Tb280 2.366 . S
O294 C302 1.265 . S
C295 O291 1.259 . S
C295 O292 1.265 . S
O296 Eu281 2.479 . S
O296 C311 1.238 . S
O297 Eu281 2.471 . S
O297 C311 1.247 . S
O298 Eu281 2.347 . S
O298 C282 1.259 . S
O299 Tb280 2.418 . S
O299 C282 1.265 . S
O300 Tb280 2.384 . S
O300 C283 1.255 . S
O301 Eu281 2.366 . S
O301 C283 1.265 . S
C302 O293 1.255 . S
C302 O294 1.265 . S
O303 Tb280 2.479 . S
O303 C290 1.238 . S
O304 Tb280 2.471 . S
O304 C290 1.247 . S
C305 C308 1.380 . S
C305 C309 1.374 . S
C305 C311 1.507 . S
C306 C307 1.387 . S
C306 C310 1.391 . S
C307 C306 1.387 . S
C307 C308 1.384 . S
C307 H316 0.930 1_545 S
C308 C305 1.380 . S
C308 C307 1.384 . S
C308 H317 0.931 1_545 S
C309 C305 1.374 . S
C309 C310 1.390 . S
C309 H318 0.930 . S
C310 C306 1.391 . S
C310 C309 1.390 . S
C310 H319 0.930 . S
C311 Eu281 2.825 . S
C311 O296 1.238 . S
C311 O297 1.247 . S
C311 C305 1.507 . S
H312 C285 0.930 . S
H313 C286 0.931 . S
H314 C287 0.930 . S
H315 C288 0.930 . S
H316 C307 0.930 1_565 S
H317 C308 0.931 1_565 S
H318 C309 0.930 . S
H319 C310 0.930 . S
Tb320 C330 2.825 . S
Tb320 O331 2.347 1_655 S
Tb320 O334 2.366 . S
Tb320 O339 2.418 . S
Tb320 O340 2.384 . S
Tb320 O343 2.479 . S
Tb320 O344 2.471 . S
Eu321 O332 2.418 1_655 S
Eu321 O333 2.384 . S
Eu321 O336 2.479 . S
Eu321 O337 2.471 . S
Eu321 O338 2.347 . S
Eu321 O341 2.366 . S
Eu321 C351 2.825 . S
C322 O338 1.259 . S
C322 O339 1.265 . S
C323 O340 1.255 . S
C323 O341 1.265 . S
C324 C326 1.380 . S
C324 C327 1.374 . S
C324 C330 1.507 . S
C325 C326 1.384 . S
C325 C329 1.387 1_545 S
C325 H352 0.930 . S
C326 C324 1.380 . S
C326 C325 1.384 . S
C326 H353 0.931 . S
C327 C324 1.374 . S
C327 C328 1.390 . S
C327 H354 0.930 . S
C328 C327 1.390 . S
C328 C329 1.391 1_545 S
C328 H355 0.930 1_545 S
C329 C325 1.387 1_565 S
C329 C328 1.391 1_565 S
C330 Tb320 2.825 . S
C330 C324 1.507 . S
C330 O343 1.238 . S
C330 O344 1.247 . S
O331 Tb320 2.347 1_455 S
O331 C335 1.259 . S
O332 Eu321 2.418 1_455 S
O332 C335 1.265 . S
O333 Eu321 2.384 . S
O333 C342 1.255 . S
O334 Tb320 2.366 . S
O334 C342 1.265 . S
C335 O331 1.259 . S
C335 O332 1.265 . S
O336 Eu321 2.479 . S
O336 C351 1.238 . S
O337 Eu321 2.471 . S
O337 C351 1.247 . S
O338 Eu321 2.347 . S
O338 C322 1.259 . S
O339 Tb320 2.418 . S
O339 C322 1.265 . S
O340 Tb320 2.384 . S
O340 C323 1.255 . S
O341 Eu321 2.366 . S
O341 C323 1.265 . S
C342 O333 1.255 . S
C342 O334 1.265 . S
O343 Tb320 2.479 . S
O343 C330 1.238 . S
O344 Tb320 2.471 . S
O344 C330 1.247 . S
C345 C348 1.380 . S
C345 C349 1.374 . S
C345 C351 1.507 . S
C346 C347 1.402 . S
C346 C350 1.391 . S
C347 C346 1.402 . S
C347 C348 1.381 . S
C347 H356 0.919 1_655 S
C348 C345 1.380 . S
C348 C347 1.381 . S
C348 H357 0.931 1_655 S
C349 C345 1.374 . S
C349 C350 1.390 . S
C349 H358 0.930 . S
C350 C346 1.391 . S
C350 C349 1.390 . S
C350 H359 0.930 . S
C351 Eu321 2.825 . S
C351 O336 1.238 . S
C351 O337 1.247 . S
C351 C345 1.507 . S
H352 C325 0.930 . S
H353 C326 0.931 . S
H354 C327 0.930 . S
H355 C328 0.930 1_565 S
H356 C347 0.919 1_455 S
H357 C348 0.931 1_455 S
H358 C349 0.930 . S
H359 C350 0.930 . S
Tb360 C370 2.825 . S
Tb360 O371 2.347 . S
Tb360 O374 2.366 . S
Tb360 O379 2.418 . S
Tb360 O380 2.384 . S
Tb360 O383 2.479 . S
Tb360 O384 2.471 . S
Eu361 O372 2.418 . S
Eu361 O373 2.384 . S
Eu361 O376 2.479 . S
Eu361 O377 2.471 . S
Eu361 O378 2.347 . S
Eu361 O381 2.366 . S
Eu361 C391 2.825 . S
C362 O378 1.259 . S
C362 O379 1.265 . S
C363 O380 1.255 . S
C363 O381 1.265 . S
C364 C366 1.380 . S
C364 C367 1.374 . S
C364 C370 1.507 . S
C365 C366 1.384 . S
C365 C369 1.387 1_565 S
C365 H392 0.930 . S
C366 C364 1.380 . S
C366 C365 1.384 . S
C366 H393 0.931 . S
C367 C364 1.374 . S
C367 C368 1.390 . S
C367 H394 0.930 . S
C368 C367 1.390 . S
C368 C369 1.391 1_565 S
C368 H395 0.930 1_565 S
C369 C365 1.387 1_545 S
C369 C368 1.391 1_545 S
C370 Tb360 2.825 . S
C370 C364 1.507 . S
C370 O383 1.238 . S
C370 O384 1.247 . S
O371 Tb360 2.347 . S
O371 C375 1.259 . S
O372 Eu361 2.418 . S
O372 C375 1.265 . S
O373 Eu361 2.384 . S
O373 C382 1.255 . S
O374 Tb360 2.366 . S
O374 C382 1.265 . S
C375 O371 1.259 . S
C375 O372 1.265 . S
O376 Eu361 2.479 . S
O376 C391 1.238 . S
O377 Eu361 2.471 . S
O377 C391 1.247 . S
O378 Eu361 2.347 . S
O378 C362 1.259 . S
O379 Tb360 2.418 . S
O379 C362 1.265 . S
O380 Tb360 2.384 . S
O380 C363 1.255 . S
O381 Eu361 2.366 . S
O381 C363 1.265 . S
C382 O373 1.255 . S
C382 O374 1.265 . S
O383 Tb360 2.479 . S
O383 C370 1.238 . S
O384 Tb360 2.471 . S
O384 C370 1.247 . S
C385 C388 1.380 . S
C385 C389 1.374 . S
C385 C391 1.507 . S
C386 C387 1.387 . S
C386 C390 1.391 . S
C387 C386 1.387 . S
C387 C388 1.384 . S
C387 H396 0.930 . S
C388 C385 1.380 . S
C388 C387 1.384 . S
C388 H397 0.931 . S
C389 C385 1.374 . S
C389 C390 1.390 . S
C389 H398 0.930 . S
C390 C386 1.391 . S
C390 C389 1.390 . S
C390 H399 0.930 . S
C391 Eu361 2.825 . S
C391 O376 1.238 . S
C391 O377 1.247 . S
C391 C385 1.507 . S
H392 C365 0.930 . S
H393 C366 0.931 . S
H394 C367 0.930 . S
H395 C368 0.930 1_545 S
H396 C387 0.930 . S
H397 C388 0.931 . S
H398 C389 0.930 . S
H399 C390 0.930 . S
Tb400 C410 2.825 . S
Tb400 O411 2.347 1_565 S
Tb400 O414 2.366 . S
Tb400 O419 2.418 . S
Tb400 O420 2.384 . S
Tb400 O423 2.479 . S
Tb400 O424 2.471 . S
Eu401 O412 2.418 1_565 S
Eu401 O413 2.384 . S
Eu401 O416 2.479 . S
Eu401 O417 2.471 . S
Eu401 O418 2.347 . S
Eu401 O421 2.366 . S
Eu401 C431 2.825 . S
C402 O418 1.259 . S
C402 O419 1.265 . S
C403 O420 1.255 . S
C403 O421 1.265 . S
C404 C406 1.380 . S
C404 C407 1.374 . S
C404 C410 1.507 . S
C405 C406 1.384 . S
C405 C409 1.387 1_455 S
C405 H432 0.930 . S
C406 C404 1.380 . S
C406 C405 1.384 . S
C406 H433 0.931 . S
C407 C404 1.374 . S
C407 C408 1.390 . S
C407 H434 0.930 . S
C408 C407 1.390 . S
C408 C409 1.391 1_455 S
C408 H435 0.930 1_455 S
C409 C405 1.387 1_655 S
C409 C408 1.391 1_655 S
C410 Tb400 2.825 . S
C410 C404 1.507 . S
C410 O423 1.238 . S
C410 O424 1.247 . S
O411 Tb400 2.347 1_545 S
O411 C415 1.259 . S
O412 Eu401 2.418 1_545 S
O412 C415 1.265 . S
O413 Eu401 2.384 . S
O413 C422 1.255 . S
O414 Tb400 2.366 . S
O414 C422 1.265 . S
C415 O411 1.259 . S
C415 O412 1.265 . S
O416 Eu401 2.479 . S
O416 C431 1.238 . S
O417 Eu401 2.471 . S
O417 C431 1.247 . S
O418 Eu401 2.347 . S
O418 C402 1.259 . S
O419 Tb400 2.418 . S
O419 C402 1.265 . S
O420 Tb400 2.384 . S
O420 C403 1.255 . S
O421 Eu401 2.366 . S
O421 C403 1.265 . S
C422 O413 1.255 . S
C422 O414 1.265 . S
O423 Tb400 2.479 . S
O423 C410 1.238 . S
O424 Tb400 2.471 . S
O424 C410 1.247 . S
C425 C428 1.380 . S
C425 C429 1.374 . S
C425 C431 1.507 . S
C426 C427 1.387 . S
C426 C430 1.391 . S
C427 C426 1.387 . S
C427 C428 1.384 . S
C427 H436 0.930 1_565 S
C428 C425 1.380 . S
C428 C427 1.384 . S
C428 H437 0.931 1_565 S
C429 C425 1.374 . S
C429 C430 1.390 . S
C429 H438 0.930 . S
C430 C426 1.391 . S
C430 C429 1.390 . S
C430 H439 0.930 . S
C431 Eu401 2.825 . S
C431 O416 1.238 . S
C431 O417 1.247 . S
C431 C425 1.507 . S
H432 C405 0.930 . S
H433 C406 0.931 . S
H434 C407 0.930 . S
H435 C408 0.930 1_655 S
H436 C427 0.930 1_545 S
H437 C428 0.931 1_545 S
H438 C429 0.930 . S
H439 C430 0.930 . S
Tb440 C450 2.825 . S
Tb440 O451 2.347 1_455 S
Tb440 O454 2.366 . S
Tb440 O459 2.418 . S
Tb440 O460 2.384 . S
Tb440 O463 2.479 . S
Tb440 O464 2.471 . S
Eu441 O452 2.418 1_455 S
Eu441 O453 2.384 . S
Eu441 O456 2.479 . S
Eu441 O457 2.471 . S
Eu441 O458 2.347 . S
Eu441 O461 2.366 . S
Eu441 C471 2.825 . S
C442 O458 1.259 . S
C442 O459 1.265 . S
C443 O460 1.255 . S
C443 O461 1.265 . S
C444 C446 1.380 . S
C444 C447 1.374 . S
C444 C450 1.507 . S
C445 C446 1.384 . S
C445 C449 1.387 . S
C445 H472 0.930 . S
C446 C444 1.380 . S
C446 C445 1.384 . S
C446 H473 0.931 . S
C447 C444 1.374 . S
C447 C448 1.390 . S
C447 H474 0.930 . S
C448 C447 1.390 . S
C448 C449 1.391 . S
C448 H475 0.930 . S
C449 C445 1.387 . S
C449 C448 1.391 . S
C450 Tb440 2.825 . S
C450 C444 1.507 . S
C450 O463 1.238 . S
C450 O464 1.247 . S
O451 Tb440 2.347 1_655 S
O451 C455 1.259 . S
O452 Eu441 2.418 1_655 S
O452 C455 1.265 . S
O453 Eu441 2.384 . S
O453 C462 1.255 . S
O454 Tb440 2.366 . S
O454 C462 1.265 . S
C455 O451 1.259 . S
C455 O452 1.265 . S
O456 Eu441 2.479 . S
O456 C471 1.238 . S
O457 Eu441 2.471 . S
O457 C471 1.247 . S
O458 Eu441 2.347 . S
O458 C442 1.259 . S
O459 Tb440 2.418 . S
O459 C442 1.265 . S
O460 Tb440 2.384 . S
O460 C443 1.255 . S
O461 Eu441 2.366 . S
O461 C443 1.265 . S
C462 O453 1.255 . S
C462 O454 1.265 . S
O463 Tb440 2.479 . S
O463 C450 1.238 . S
O464 Tb440 2.471 . S
O464 C450 1.247 . S
C465 C468 1.380 . S
C465 C469 1.374 . S
C465 C471 1.507 . S
C466 C467 1.387 . S
C466 C470 1.391 . S
C467 C466 1.387 . S
C467 C468 1.384 . S
C467 H476 0.930 1_455 S
C468 C465 1.380 . S
C468 C467 1.384 . S
C468 H477 0.931 1_455 S
C469 C465 1.374 . S
C469 C470 1.390 . S
C469 H478 0.930 . S
C470 C466 1.391 . S
C470 C469 1.390 . S
C470 H479 0.930 . S
C471 Eu441 2.825 . S
C471 O456 1.238 . S
C471 O457 1.247 . S
C471 C465 1.507 . S
H472 C445 0.930 . S
H473 C446 0.931 . S
H474 C447 0.930 . S
H475 C448 0.930 . S
H476 C467 0.930 1_655 S
H477 C468 0.931 1_655 S
H478 C469 0.930 . S
H479 C470 0.930 . S
Tb480 C490 2.825 . S
Tb480 O491 2.347 . S
Tb480 O494 2.366 . S
Tb480 O499 2.418 . S
Tb480 O500 2.384 . S
Tb480 O503 2.479 . S
Tb480 O504 2.471 . S
Eu481 O492 2.418 . S
Eu481 O493 2.384 . S
Eu481 O496 2.479 . S
Eu481 O497 2.471 . S
Eu481 O498 2.347 . S
Eu481 O501 2.366 . S
Eu481 C511 2.825 . S
C482 O498 1.259 . S
C482 O499 1.265 . S
C483 O500 1.255 . S
C483 O501 1.265 . S
C484 C486 1.380 . S
C484 C487 1.374 . S
C484 C490 1.507 . S
C485 C486 1.384 . S
C485 C489 1.387 . S
C485 H512 0.930 . S
C486 C484 1.380 . S
C486 C485 1.384 . S
C486 H513 0.931 . S
C487 C484 1.374 . S
C487 C488 1.390 . S
C487 H514 0.930 . S
C488 C487 1.390 . S
C488 C489 1.391 . S
C488 H515 0.930 . S
C489 C485 1.387 . S
C489 C488 1.391 . S
C490 Tb480 2.825 . S
C490 C484 1.507 . S
C490 O503 1.238 . S
C490 O504 1.247 . S
O491 Tb480 2.347 . S
O491 C495 1.259 . S
O492 Eu481 2.418 . S
O492 C495 1.265 . S
O493 Eu481 2.384 . S
O493 C502 1.255 . S
O494 Tb480 2.366 . S
O494 C502 1.265 . S
C495 O491 1.259 . S
C495 O492 1.265 . S
O496 Eu481 2.479 . S
O496 C511 1.238 . S
O497 Eu481 2.471 . S
O497 C511 1.247 . S
O498 Eu481 2.347 . S
O498 C482 1.259 . S
O499 Tb480 2.418 . S
O499 C482 1.265 . S
O500 Tb480 2.384 . S
O500 C483 1.255 . S
O501 Eu481 2.366 . S
O501 C483 1.265 . S
C502 O493 1.255 . S
C502 O494 1.265 . S
O503 Tb480 2.479 . S
O503 C490 1.238 . S
O504 Tb480 2.471 . S
O504 C490 1.247 . S
C505 C508 1.380 . S
C505 C509 1.374 . S
C505 C511 1.507 . S
C506 C507 1.387 . S
C506 C510 1.391 . S
C507 C506 1.387 . S
C507 C508 1.384 . S
C507 H516 0.930 . S
C508 C505 1.380 . S
C508 C507 1.384 . S
C508 H517 0.931 . S
C509 C505 1.374 . S
C509 C510 1.390 . S
C509 H518 0.930 . S
C510 C506 1.391 . S
C510 C509 1.390 . S
C510 H519 0.930 . S
C511 Eu481 2.825 . S
C511 O496 1.238 . S
C511 O497 1.247 . S
C511 C505 1.507 . S
H512 C485 0.930 . S
H513 C486 0.931 . S
H514 C487 0.930 . S
H515 C488 0.930 . S
H516 C507 0.930 . S
H517 C508 0.931 . S
H518 C509 0.930 . S
H519 C510 0.930 . S
Tb520 C530 2.825 . S
Tb520 O531 2.347 . S
Tb520 O534 2.366 . S
Tb520 O539 2.418 . S
Tb520 O540 2.384 . S
Tb520 O543 2.479 . S
Tb520 O544 2.471 . S
Eu521 O532 2.418 . S
Eu521 O533 2.384 . S
Eu521 O536 2.479 . S
Eu521 O537 2.471 . S
Eu521 O538 2.347 . S
Eu521 O541 2.366 . S
Eu521 C551 2.825 . S
C522 O538 1.259 . S
C522 O539 1.265 . S
C523 O540 1.255 . S
C523 O541 1.265 . S
C524 C526 1.380 . S
C524 C527 1.374 . S
C524 C530 1.507 . S
C525 C526 1.384 . S
C525 C529 1.387 . S
C525 H552 0.930 . S
C526 C524 1.380 . S
C526 C525 1.384 . S
C526 H553 0.931 . S
C527 C524 1.374 . S
C527 C528 1.390 . S
C527 H554 0.930 . S
C528 C527 1.390 . S
C528 C529 1.391 . S
C528 H555 0.930 . S
C529 C525 1.387 . S
C529 C528 1.391 . S
C530 Tb520 2.825 . S
C530 C524 1.507 . S
C530 O543 1.238 . S
C530 O544 1.247 . S
O531 Tb520 2.347 . S
O531 C535 1.259 . S
O532 Eu521 2.418 . S
O532 C535 1.265 . S
O533 Eu521 2.384 . S
O533 C542 1.255 . S
O534 Tb520 2.366 . S
O534 C542 1.265 . S
C535 O531 1.259 . S
C535 O532 1.265 . S
O536 Eu521 2.479 . S
O536 C551 1.238 . S
O537 Eu521 2.471 . S
O537 C551 1.247 . S
O538 Eu521 2.347 . S
O538 C522 1.259 . S
O539 Tb520 2.418 . S
O539 C522 1.265 . S
O540 Tb520 2.384 . S
O540 C523 1.255 . S
O541 Eu521 2.366 . S
O541 C523 1.265 . S
C542 O533 1.255 . S
C542 O534 1.265 . S
O543 Tb520 2.479 . S
O543 C530 1.238 . S
O544 Tb520 2.471 . S
O544 C530 1.247 . S
C545 C548 1.380 . S
C545 C549 1.374 . S
C545 C551 1.507 . S
C546 C547 1.387 . S
C546 C550 1.391 . S
C547 C546 1.387 . S
C547 C548 1.384 . S
C547 H556 0.930 . S
C548 C545 1.380 . S
C548 C547 1.384 . S
C548 H557 0.931 . S
C549 C545 1.374 . S
C549 C550 1.390 . S
C549 H558 0.930 . S
C550 C546 1.391 . S
C550 C549 1.390 . S
C550 H559 0.930 . S
C551 Eu521 2.825 . S
C551 O536 1.238 . S
C551 O537 1.247 . S
C551 C545 1.507 . S
H552 C525 0.930 . S
H553 C526 0.931 . S
H554 C527 0.930 . S
H555 C528 0.930 . S
H556 C547 0.930 . S
H557 C548 0.931 . S
H558 C549 0.930 . S
H559 C550 0.930 . S
Tb560 C570 2.825 . S
Tb560 O571 2.347 . S
Tb560 O574 2.366 . S
Tb560 O579 2.418 . S
Tb560 O580 2.384 . S
Tb560 O583 2.479 . S
Tb560 O584 2.471 . S
Eu561 O572 2.418 . S
Eu561 O573 2.384 . S
Eu561 O576 2.479 . S
Eu561 O577 2.471 . S
Eu561 O578 2.347 . S
Eu561 O581 2.366 . S
Eu561 C591 2.825 . S
C562 O578 1.259 . S
C562 O579 1.265 . S
C563 O580 1.255 . S
C563 O581 1.265 . S
C564 C566 1.380 . S
C564 C567 1.374 . S
C564 C570 1.507 . S
C565 C566 1.384 . S
C565 C569 1.387 . S
C565 H592 0.930 . S
C566 C564 1.380 . S
C566 C565 1.384 . S
C566 H593 0.931 . S
C567 C564 1.374 . S
C567 C568 1.390 . S
C567 H594 0.930 . S
C568 C567 1.390 . S
C568 C569 1.391 . S
C568 H595 0.930 . S
C569 C565 1.387 . S
C569 C568 1.391 . S
C570 Tb560 2.825 . S
C570 C564 1.507 . S
C570 O583 1.238 . S
C570 O584 1.247 . S
O571 Tb560 2.347 . S
O571 C575 1.259 . S
O572 Eu561 2.418 . S
O572 C575 1.265 . S
O573 Eu561 2.384 . S
O573 C582 1.255 . S
O574 Tb560 2.366 . S
O574 C582 1.265 . S
C575 O571 1.259 . S
C575 O572 1.265 . S
O576 Eu561 2.479 . S
O576 C591 1.238 . S
O577 Eu561 2.471 . S
O577 C591 1.247 . S
O578 Eu561 2.347 . S
O578 C562 1.259 . S
O579 Tb560 2.418 . S
O579 C562 1.265 . S
O580 Tb560 2.384 . S
O580 C563 1.255 . S
O581 Eu561 2.366 . S
O581 C563 1.265 . S
C582 O573 1.255 . S
C582 O574 1.265 . S
O583 Tb560 2.479 . S
O583 C570 1.238 . S
O584 Tb560 2.471 . S
O584 C570 1.247 . S
C585 C588 1.380 . S
C585 C589 1.374 . S
C585 C591 1.507 . S
C586 C587 1.387 . S
C586 C590 1.391 . S
C587 C586 1.387 . S
C587 C588 1.384 . S
C587 H596 0.930 . S
C588 C585 1.380 . S
C588 C587 1.384 . S
C588 H597 0.931 . S
C589 C585 1.374 . S
C589 C590 1.390 . S
C589 H598 0.930 . S
C590 C586 1.391 . S
C590 C589 1.390 . S
C590 H599 0.930 . S
C591 Eu561 2.825 . S
C591 O576 1.238 . S
C591 O577 1.247 . S
C591 C585 1.507 . S
H592 C565 0.930 . S
H593 C566 0.931 . S
H594 C567 0.930 . S
H595 C568 0.930 . S
H596 C587 0.930 . S
H597 C588 0.931 . S
H598 C589 0.930 . S
H599 C590 0.930 . S
Tb600 C610 2.825 . S
Tb600 O611 2.347 . S
Tb600 O614 2.366 . S
Tb600 O619 2.418 . S
Tb600 O620 2.384 . S
Tb600 O623 2.479 . S
Tb600 O624 2.471 . S
Eu601 O612 2.418 1_655 S
Eu601 O613 2.384 1_655 S
Eu601 O616 2.479 . S
Eu601 O617 2.471 . S
Eu601 O618 2.347 . S
Eu601 O621 2.366 . S
Eu601 C631 2.825 . S
C602 O618 1.259 . S
C602 O619 1.265 . S
C603 O620 1.255 . S
C603 O621 1.265 . S
C604 C606 1.380 . S
C604 C607 1.374 1_655 S
C604 C610 1.507 . S
C605 C606 1.384 . S
C605 C609 1.387 1_655 S
C605 H632 0.930 . S
C606 C604 1.380 . S
C606 C605 1.384 . S
C606 H633 0.931 . S
C607 C604 1.374 1_455 S
C607 C608 1.390 . S
C607 H634 0.930 . S
C608 C607 1.390 . S
C608 C609 1.391 . S
C608 H635 0.930 . S
C609 C605 1.387 1_455 S
C609 C608 1.391 . S
C610 Tb600 2.825 . S
C610 C604 1.507 . S
C610 O623 1.238 . S
C610 O624 1.247 . S
O611 Tb600 2.347 . S
O611 C615 1.259 1_655 S
O612 Eu601 2.418 1_455 S
O612 C615 1.265 . S
O613 Eu601 2.384 1_455 S
O613 C622 1.255 . S
O614 Tb600 2.366 . S
O614 C622 1.265 1_655 S
C615 O611 1.259 1_455 S
C615 O612 1.265 . S
O616 Eu601 2.479 . S
O616 C631 1.238 . S
O617 Eu601 2.471 . S
O617 C631 1.247 . S
O618 Eu601 2.347 . S
O618 C602 1.259 . S
O619 Tb600 2.418 . S
O619 C602 1.265 . S
O620 Tb600 2.384 . S
O620 C603 1.255 . S
O621 Eu601 2.366 . S
O621 C603 1.265 . S
C622 O613 1.255 . S
C622 O614 1.265 1_455 S
O623 Tb600 2.479 . S
O623 C610 1.238 . S
O624 Tb600 2.471 . S
O624 C610 1.247 . S
C625 C628 1.380 . S
C625 C629 1.374 . S
C625 C631 1.507 . S
C626 C627 1.387 . S
C626 C630 1.391 . S
C627 C626 1.387 . S
C627 C628 1.384 . S
C627 H636 0.930 . S
C628 C625 1.380 . S
C628 C627 1.384 . S
C628 H637 0.931 . S
C629 C625 1.374 . S
C629 C630 1.390 . S
C629 H638 0.930 . S
C630 C626 1.391 . S
C630 C629 1.390 . S
C630 H639 0.930 . S
C631 Eu601 2.825 . S
C631 O616 1.238 . S
C631 O617 1.247 . S
C631 C625 1.507 . S
H632 C605 0.930 . S
H633 C606 0.931 . S
H634 C607 0.930 . S
H635 C608 0.930 . S
H636 C627 0.930 . S
H637 C628 0.931 . S
H638 C629 0.930 . S
H639 C630 0.930 . S
Tb640 C650 2.825 . S
Tb640 O651 2.347 . S
Tb640 O654 2.366 . S
Tb640 O659 2.418 . S
Tb640 O660 2.384 . S
Tb640 O663 2.479 . S
Tb640 O664 2.471 . S
Eu641 O652 2.418 . S
Eu641 O653 2.384 . S
Eu641 O656 2.479 . S
Eu641 O657 2.471 . S
Eu641 O658 2.347 . S
Eu641 O661 2.366 . S
Eu641 C671 2.825 . S
C642 O658 1.259 . S
C642 O659 1.265 . S
C643 O660 1.255 . S
C643 O661 1.265 . S
C644 C646 1.380 . S
C644 C647 1.374 . S
C644 C650 1.507 . S
C645 C646 1.384 . S
C645 C649 1.387 . S
C645 H672 0.930 . S
C646 C644 1.380 . S
C646 C645 1.384 . S
C646 H673 0.931 . S
C647 C644 1.374 . S
C647 C648 1.390 . S
C647 H674 0.930 . S
C648 C647 1.390 . S
C648 C649 1.391 . S
C648 H675 0.930 . S
C649 C645 1.387 . S
C649 C648 1.391 . S
C650 Tb640 2.825 . S
C650 C644 1.507 . S
C650 O663 1.238 . S
C650 O664 1.247 . S
O651 Tb640 2.347 . S
O651 C655 1.259 . S
O652 Eu641 2.418 . S
O652 C655 1.265 . S
O653 Eu641 2.384 . S
O653 C662 1.255 . S
O654 Tb640 2.366 . S
O654 C662 1.265 . S
C655 O651 1.259 . S
C655 O652 1.265 . S
O656 Eu641 2.479 . S
O656 C671 1.238 . S
O657 Eu641 2.471 . S
O657 C671 1.247 . S
O658 Eu641 2.347 . S
O658 C642 1.259 . S
O659 Tb640 2.418 . S
O659 C642 1.265 . S
O660 Tb640 2.384 . S
O660 C643 1.255 . S
O661 Eu641 2.366 . S
O661 C643 1.265 . S
C662 O653 1.255 . S
C662 O654 1.265 . S
O663 Tb640 2.479 . S
O663 C650 1.238 . S
O664 Tb640 2.471 . S
O664 C650 1.247 . S
C665 C668 1.380 . S
C665 C669 1.374 . S
C665 C671 1.507 . S
C666 C667 1.387 . S
C666 C670 1.391 . S
C667 C666 1.387 . S
C667 C668 1.384 . S
C667 H676 0.930 . S
C668 C665 1.380 . S
C668 C667 1.384 . S
C668 H677 0.931 . S
C669 C665 1.374 . S
C669 C670 1.390 . S
C669 H678 0.930 . S
C670 C666 1.391 . S
C670 C669 1.390 . S
C670 H679 0.930 . S
C671 Eu641 2.825 . S
C671 O656 1.238 . S
C671 O657 1.247 . S
C671 C665 1.507 . S
H672 C645 0.930 . S
H673 C646 0.931 . S
H674 C647 0.930 . S
H675 C648 0.930 . S
H676 C667 0.930 . S
H677 C668 0.931 . S
H678 C669 0.930 . S
H679 C670 0.930 . S
Tb680 C690 2.825 . S
Tb680 O691 2.347 . S
Tb680 O694 2.366 . S
Tb680 O699 2.418 . S
Tb680 O700 2.384 . S
Tb680 O703 2.479 . S
Tb680 O704 2.471 . S
Eu681 O692 2.418 1_545 S
Eu681 O693 2.384 1_545 S
Eu681 O696 2.479 . S
Eu681 O697 2.471 . S
Eu681 O698 2.347 . S
Eu681 O701 2.366 . S
Eu681 C711 2.825 . S
C682 O698 1.259 . S
C682 O699 1.265 . S
C683 O700 1.255 . S
C683 O701 1.265 . S
C684 C686 1.380 . S
C684 C687 1.374 1_545 S
C684 C690 1.507 . S
C685 C686 1.384 . S
C685 C689 1.387 1_545 S
C685 H712 0.930 . S
C686 C684 1.380 . S
C686 C685 1.384 . S
C686 H713 0.931 . S
C687 C684 1.374 1_565 S
C687 C688 1.390 . S
C687 H714 0.930 . S
C688 C687 1.390 . S
C688 C689 1.391 . S
C688 H715 0.930 . S
C689 C685 1.387 1_565 S
C689 C688 1.391 . S
C690 Tb680 2.825 . S
C690 C684 1.507 . S
C690 O703 1.238 . S
C690 O704 1.247 . S
O691 Tb680 2.347 . S
O691 C695 1.259 1_545 S
O692 Eu681 2.418 1_565 S
O692 C695 1.265 . S
O693 Eu681 2.384 1_565 S
O693 C702 1.255 . S
O694 Tb680 2.366 . S
O694 C702 1.265 1_545 S
C695 O691 1.259 1_565 S
C695 O692 1.265 . S
O696 Eu681 2.479 . S
O696 C711 1.238 . S
O697 Eu681 2.471 . S
O697 C711 1.247 . S
O698 Eu681 2.347 . S
O698 C682 1.259 . S
O699 Tb680 2.418 . S
O699 C682 1.265 . S
O700 Tb680 2.384 . S
O700 C683 1.255 . S
O701 Eu681 2.366 . S
O701 C683 1.265 . S
C702 O693 1.255 . S
C702 O694 1.265 1_565 S
O703 Tb680 2.479 . S
O703 C690 1.238 . S
O704 Tb680 2.471 . S
O704 C690 1.247 . S
C705 C708 1.380 . S
C705 C709 1.374 . S
C705 C711 1.507 . S
C706 C707 1.387 . S
C706 C710 1.391 . S
C707 C706 1.387 . S
C707 C708 1.384 . S
C707 H716 0.930 . S
C708 C705 1.380 . S
C708 C707 1.384 . S
C708 H717 0.931 . S
C709 C705 1.374 . S
C709 C710 1.390 . S
C709 H718 0.930 . S
C710 C706 1.391 . S
C710 C709 1.390 . S
C710 H719 0.930 . S
C711 Eu681 2.825 . S
C711 O696 1.238 . S
C711 O697 1.247 . S
C711 C705 1.507 . S
H712 C685 0.930 . S
H713 C686 0.931 . S
H714 C687 0.930 . S
H715 C688 0.930 . S
H716 C707 0.930 . S
H717 C708 0.931 . S
H718 C709 0.930 . S
H719 C710 0.930 . S
Tb720 C730 2.825 . S
Tb720 O731 2.347 . S
Tb720 O734 2.366 . S
Tb720 O739 2.418 1_545 S
Tb720 O740 2.384 1_545 S
Tb720 O743 2.479 . S
Tb720 O744 2.471 . S
Eu721 O732 2.418 . S
Eu721 O733 2.384 . S
Eu721 O736 2.479 . S
Eu721 O737 2.471 . S
Eu721 O738 2.347 . S
Eu721 O741 2.366 . S
Eu721 C751 2.825 . S
C722 O738 1.259 1_565 S
C722 O739 1.265 . S
C723 O740 1.255 . S
C723 O741 1.265 1_565 S
C724 C726 1.380 . S
C724 C727 1.374 . S
C724 C730 1.507 . S
C725 C726 1.384 . S
C725 C729 1.387 . S
C725 H752 0.930 . S
C726 C724 1.380 . S
C726 C725 1.384 . S
C726 H753 0.931 . S
C727 C724 1.374 . S
C727 C728 1.390 . S
C727 H754 0.930 . S
C728 C727 1.390 . S
C728 C729 1.391 . S
C728 H755 0.930 . S
C729 C725 1.387 . S
C729 C728 1.391 . S
C730 Tb720 2.825 . S
C730 C724 1.507 . S
C730 O743 1.238 . S
C730 O744 1.247 . S
O731 Tb720 2.347 . S
O731 C735 1.259 . S
O732 Eu721 2.418 . S
O732 C735 1.265 . S
O733 Eu721 2.384 . S
O733 C742 1.255 . S
O734 Tb720 2.366 . S
O734 C742 1.265 . S
C735 O731 1.259 . S
C735 O732 1.265 . S
O736 Eu721 2.479 . S
O736 C751 1.238 . S
O737 Eu721 2.471 . S
O737 C751 1.247 . S
O738 Eu721 2.347 . S
O738 C722 1.259 1_545 S
O739 Tb720 2.418 1_565 S
O739 C722 1.265 . S
O740 Tb720 2.384 1_565 S
O740 C723 1.255 . S
O741 Eu721 2.366 . S
O741 C723 1.265 1_545 S
C742 O733 1.255 . S
C742 O734 1.265 . S
O743 Tb720 2.479 . S
O743 C730 1.238 . S
O744 Tb720 2.471 . S
O744 C730 1.247 . S
C745 C748 1.380 . S
C745 C749 1.374 1_545 S
C745 C751 1.507 . S
C746 C747 1.387 1_565 S
C746 C750 1.391 . S
C747 C746 1.387 1_545 S
C747 C748 1.384 . S
C747 H756 0.930 . S
C748 C745 1.380 . S
C748 C747 1.384 . S
C748 H757 0.931 . S
C749 C745 1.374 1_565 S
C749 C750 1.390 . S
C749 H758 0.930 . S
C750 C746 1.391 . S
C750 C749 1.390 . S
C750 H759 0.930 . S
C751 Eu721 2.825 . S
C751 O736 1.238 . S
C751 O737 1.247 . S
C751 C745 1.507 . S
H752 C725 0.930 . S
H753 C726 0.931 . S
H754 C727 0.930 . S
H755 C728 0.930 . S
H756 C747 0.930 . S
H757 C748 0.931 . S
H758 C749 0.930 . S
H759 C750 0.930 . S
Tb760 C770 2.825 . S
Tb760 O771 2.347 . S
Tb760 O774 2.366 . S
Tb760 O779 2.418 1_655 S
Tb760 O780 2.384 1_655 S
Tb760 O783 2.479 . S
Tb760 O784 2.471 . S
Eu761 O772 2.418 . S
Eu761 O773 2.384 . S
Eu761 O776 2.479 . S
Eu761 O777 2.471 . S
Eu761 O778 2.347 . S
Eu761 O781 2.366 . S
Eu761 C791 2.825 . S
C762 O778 1.259 1_455 S
C762 O779 1.265 . S
C763 O780 1.255 . S
C763 O781 1.265 1_455 S
C764 C766 1.380 . S
C764 C767 1.374 . S
C764 C770 1.507 . S
C765 C766 1.384 . S
C765 C769 1.387 . S
C765 H792 0.930 . S
C766 C764 1.380 . S
C766 C765 1.384 . S
C766 H793 0.931 . S
C767 C764 1.374 . S
C767 C768 1.390 . S
C767 H794 0.930 . S
C768 C767 1.390 . S
C768 C769 1.391 . S
C768 H795 0.930 . S
C769 C765 1.387 . S
C769 C768 1.391 . S
C770 Tb760 2.825 . S
C770 C764 1.507 . S
C770 O783 1.238 . S
C770 O784 1.247 . S
O771 Tb760 2.347 . S
O771 C775 1.259 . S
O772 Eu761 2.418 . S
O772 C775 1.265 . S
O773 Eu761 2.384 . S
O773 C782 1.255 . S
O774 Tb760 2.366 . S
O774 C782 1.265 . S
C775 O771 1.259 . S
C775 O772 1.265 . S
O776 Eu761 2.479 . S
O776 C791 1.238 . S
O777 Eu761 2.471 . S
O777 C791 1.247 . S
O778 Eu761 2.347 . S
O778 C762 1.259 1_655 S
O779 Tb760 2.418 1_455 S
O779 C762 1.265 . S
O780 Tb760 2.384 1_455 S
O780 C763 1.255 . S
O781 Eu761 2.366 . S
O781 C763 1.265 1_655 S
C782 O773 1.255 . S
C782 O774 1.265 . S
O783 Tb760 2.479 . S
O783 C770 1.238 . S
O784 Tb760 2.471 . S
O784 C770 1.247 . S
C785 C788 1.380 . S
C785 C789 1.374 1_655 S
C785 C791 1.507 . S
C786 C787 1.387 1_455 S
C786 C790 1.391 . S
C787 C786 1.387 1_655 S
C787 C788 1.384 . S
C787 H796 0.930 . S
C788 C785 1.380 . S
C788 C787 1.384 . S
C788 H797 0.931 . S
C789 C785 1.374 1_455 S
C789 C790 1.390 . S
C789 H798 0.930 . S
C790 C786 1.391 . S
C790 C789 1.390 . S
C790 H799 0.930 . S
C791 Eu761 2.825 . S
C791 O776 1.238 . S
C791 O777 1.247 . S
C791 C785 1.507 . S
H792 C765 0.930 . S
H793 C766 0.931 . S
H794 C767 0.930 . S
H795 C768 0.930 . S
H796 C787 0.930 . S
H797 C788 0.931 . S
H798 C789 0.930 . S
H799 C790 0.930 . S
Tb800 C810 2.825 . S
Tb800 O811 2.347 . S
Tb800 O814 2.366 . S
Tb800 O819 2.418 . S
Tb800 O820 2.384 . S
Tb800 O823 2.479 . S
Tb800 O824 2.471 . S
Eu801 O812 2.418 . S
Eu801 O813 2.384 . S
Eu801 O816 2.479 . S
Eu801 O817 2.471 . S
Eu801 O818 2.347 . S
Eu801 O821 2.366 . S
Eu801 C831 2.825 . S
C802 O818 1.259 . S
C802 O819 1.265 . S
C803 O820 1.255 . S
C803 O821 1.265 . S
C804 C806 1.380 . S
C804 C807 1.374 . S
C804 C810 1.507 . S
C805 C806 1.384 . S
C805 C809 1.387 . S
C805 H832 0.930 . S
C806 C804 1.380 . S
C806 C805 1.384 . S
C806 H833 0.931 . S
C807 C804 1.374 . S
C807 C808 1.390 . S
C807 H834 0.930 . S
C808 C807 1.390 . S
C808 C809 1.391 . S
C808 H835 0.930 . S
C809 C805 1.387 . S
C809 C808 1.391 . S
C810 Tb800 2.825 . S
C810 C804 1.507 . S
C810 O823 1.238 . S
C810 O824 1.247 . S
O811 Tb800 2.347 . S
O811 C815 1.259 . S
O812 Eu801 2.418 . S
O812 C815 1.265 . S
O813 Eu801 2.384 . S
O813 C822 1.255 . S
O814 Tb800 2.366 . S
O814 C822 1.265 . S
C815 O811 1.259 . S
C815 O812 1.265 . S
O816 Eu801 2.479 . S
O816 C831 1.238 . S
O817 Eu801 2.471 . S
O817 C831 1.247 . S
O818 Eu801 2.347 . S
O818 C802 1.259 . S
O819 Tb800 2.418 . S
O819 C802 1.265 . S
O820 Tb800 2.384 . S
O820 C803 1.255 . S
O821 Eu801 2.366 . S
O821 C803 1.265 . S
C822 O813 1.255 . S
C822 O814 1.265 . S
O823 Tb800 2.479 . S
O823 C810 1.238 . S
O824 Tb800 2.471 . S
O824 C810 1.247 . S
C825 C828 1.380 . S
C825 C829 1.374 . S
C825 C831 1.507 . S
C826 C827 1.387 . S
C826 C830 1.391 . S
C827 C826 1.387 . S
C827 C828 1.384 . S
C827 H836 0.930 . S
C828 C825 1.380 . S
C828 C827 1.384 . S
C828 H837 0.931 . S
C829 C825 1.374 . S
C829 C830 1.390 . S
C829 H838 0.930 . S
C830 C826 1.391 . S
C830 C829 1.390 . S
C830 H839 0.930 . S
C831 Eu801 2.825 . S
C831 O816 1.238 . S
C831 O817 1.247 . S
C831 C825 1.507 . S
H832 C805 0.930 . S
H833 C806 0.931 . S
H834 C807 0.930 . S
H835 C808 0.930 . S
H836 C827 0.930 . S
H837 C828 0.931 . S
H838 C829 0.930 . S
H839 C830 0.930 . S
Tb840 C850 2.825 . S
Tb840 O851 2.347 . S
Tb840 O854 2.366 . S
Tb840 O859 2.418 . S
Tb840 O860 2.384 . S
Tb840 O863 2.479 . S
Tb840 O864 2.471 . S
Eu841 O852 2.418 . S
Eu841 O853 2.384 . S
Eu841 O856 2.479 . S
Eu841 O857 2.471 . S
Eu841 O858 2.347 . S
Eu841 O861 2.366 . S
Eu841 C871 2.825 . S
C842 O858 1.259 1_554 S
C842 O859 1.265 . S
C843 O860 1.255 1_556 S
C843 O861 1.265 . S
C844 C846 1.380 . S
C844 C847 1.374 . S
C844 C850 1.507 . S
C845 C846 1.384 . S
C845 C849 1.387 . S
C845 H872 0.930 . S
C846 C844 1.380 . S
C846 C845 1.384 . S
C846 H873 0.931 . S
C847 C844 1.374 . S
C847 C848 1.390 . S
C847 H874 0.930 . S
C848 C847 1.390 . S
C848 C849 1.391 . S
C848 H875 0.930 . S
C849 C845 1.387 . S
C849 C848 1.391 . S
C850 Tb840 2.825 . S
C850 C844 1.507 . S
C850 O863 1.238 . S
C850 O864 1.247 . S
O851 Tb840 2.347 . S
O851 C855 1.259 1_554 S
O852 Eu841 2.418 . S
O852 C855 1.265 . S
O853 Eu841 2.384 . S
O853 C862 1.255 1_556 S
O854 Tb840 2.366 . S
O854 C862 1.265 . S
C855 O851 1.259 1_556 S
C855 O852 1.265 . S
O856 Eu841 2.479 . S
O856 C871 1.238 . S
O857 Eu841 2.471 . S
O857 C871 1.247 . S
O858 Eu841 2.347 . S
O858 C842 1.259 1_556 S
O859 Tb840 2.418 . S
O859 C842 1.265 . S
O860 Tb840 2.384 . S
O860 C843 1.255 1_554 S
O861 Eu841 2.366 . S
O861 C843 1.265 . S
C862 O853 1.255 1_554 S
C862 O854 1.265 . S
O863 Tb840 2.479 . S
O863 C850 1.238 . S
O864 Tb840 2.471 . S
O864 C850 1.247 . S
C865 C868 1.380 . S
C865 C869 1.374 . S
C865 C871 1.507 . S
C866 C867 1.387 . S
C866 C870 1.391 . S
C867 C866 1.387 . S
C867 C868 1.384 . S
C867 H876 0.930 . S
C868 C865 1.380 . S
C868 C867 1.384 . S
C868 H877 0.931 . S
C869 C865 1.374 . S
C869 C870 1.390 . S
C869 H878 0.930 . S
C870 C866 1.391 . S
C870 C869 1.390 . S
C870 H879 0.930 . S
C871 Eu841 2.825 . S
C871 O856 1.238 . S
C871 O857 1.247 . S
C871 C865 1.507 . S
H872 C845 0.930 . S
H873 C846 0.931 . S
H874 C847 0.930 . S
H875 C848 0.930 . S
H876 C867 0.930 . S
H877 C868 0.931 . S
H878 C869 0.930 . S
H879 C870 0.930 . S
Tb880 C890 2.825 . S
Tb880 O891 2.347 . S
Tb880 O894 2.366 . S
Tb880 O899 2.418 . S
Tb880 O900 2.384 . S
Tb880 O903 2.479 . S
Tb880 O904 2.471 . S
Eu881 O892 2.418 . S
Eu881 O893 2.384 . S
Eu881 O896 2.479 . S
Eu881 O897 2.471 . S
Eu881 O898 2.347 . S
Eu881 O901 2.366 . S
Eu881 C911 2.825 . S
C882 O898 1.259 1_554 S
C882 O899 1.265 . S
C883 O900 1.255 1_556 S
C883 O901 1.265 . S
C884 C886 1.380 . S
C884 C887 1.374 . S
C884 C890 1.507 . S
C885 C886 1.384 . S
C885 C889 1.387 . S
C885 H912 0.930 . S
C886 C884 1.380 . S
C886 C885 1.384 . S
C886 H913 0.931 . S
C887 C884 1.374 . S
C887 C888 1.390 . S
C887 H914 0.930 . S
C888 C887 1.390 . S
C888 C889 1.391 . S
C888 H915 0.930 . S
C889 C885 1.387 . S
C889 C888 1.391 . S
C890 Tb880 2.825 . S
C890 C884 1.507 . S
C890 O903 1.238 . S
C890 O904 1.247 . S
O891 Tb880 2.347 . S
O891 C895 1.259 1_554 S
O892 Eu881 2.418 . S
O892 C895 1.265 . S
O893 Eu881 2.384 . S
O893 C902 1.255 1_556 S
O894 Tb880 2.366 . S
O894 C902 1.265 . S
C895 O891 1.259 1_556 S
C895 O892 1.265 . S
O896 Eu881 2.479 . S
O896 C911 1.238 . S
O897 Eu881 2.471 . S
O897 C911 1.247 . S
O898 Eu881 2.347 . S
O898 C882 1.259 1_556 S
O899 Tb880 2.418 . S
O899 C882 1.265 . S
O900 Tb880 2.384 . S
O900 C883 1.255 1_554 S
O901 Eu881 2.366 . S
O901 C883 1.265 . S
C902 O893 1.255 1_554 S
C902 O894 1.265 . S
O903 Tb880 2.479 . S
O903 C890 1.238 . S
O904 Tb880 2.471 . S
O904 C890 1.247 . S
C905 C908 1.380 . S
C905 C909 1.374 . S
C905 C911 1.507 . S
C906 C907 1.387 . S
C906 C910 1.391 . S
C907 C906 1.387 . S
C907 C908 1.384 . S
C907 H916 0.930 . S
C908 C905 1.380 . S
C908 C907 1.384 . S
C908 H917 0.931 . S
C909 C905 1.374 . S
C909 C910 1.390 . S
C909 H918 0.930 . S
C910 C906 1.391 . S
C910 C909 1.390 . S
C910 H919 0.930 . S
C911 Eu881 2.825 . S
C911 O896 1.238 . S
C911 O897 1.247 . S
C911 C905 1.507 . S
H912 C885 0.930 . S
H913 C886 0.931 . S
H914 C887 0.930 . S
H915 C888 0.930 . S
H916 C907 0.930 . S
H917 C908 0.931 . S
H918 C909 0.930 . S
H919 C910 0.930 . S
Tb920 C930 2.825 . S
Tb920 O931 2.347 . S
Tb920 O934 2.366 . S
Tb920 O939 2.418 . S
Tb920 O940 2.384 . S
Tb920 O943 2.479 . S
Tb920 O944 2.471 . S
Eu921 O932 2.418 . S
Eu921 O933 2.384 . S
Eu921 O936 2.479 . S
Eu921 O937 2.471 . S
Eu921 O938 2.347 . S
Eu921 O941 2.366 . S
Eu921 C951 2.825 . S
C922 O938 1.259 1_554 S
C922 O939 1.265 . S
C923 O940 1.255 1_556 S
C923 O941 1.265 . S
C924 C926 1.380 . S
C924 C927 1.374 . S
C924 C930 1.507 . S
C925 C926 1.384 . S
C925 C929 1.387 . S
C925 H952 0.930 . S
C926 C924 1.380 . S
C926 C925 1.384 . S
C926 H953 0.931 . S
C927 C924 1.374 . S
C927 C928 1.390 . S
C927 H954 0.930 . S
C928 C927 1.390 . S
C928 C929 1.391 . S
C928 H955 0.930 . S
C929 C925 1.387 . S
C929 C928 1.391 . S
C930 Tb920 2.825 . S
C930 C924 1.507 . S
C930 O943 1.238 . S
C930 O944 1.247 . S
O931 Tb920 2.347 . S
O931 C935 1.259 1_554 S
O932 Eu921 2.418 . S
O932 C935 1.265 . S
O933 Eu921 2.384 . S
O933 C942 1.255 1_556 S
O934 Tb920 2.366 . S
O934 C942 1.265 . S
C935 O931 1.259 1_556 S
C935 O932 1.265 . S
O936 Eu921 2.479 . S
O936 C951 1.238 . S
O937 Eu921 2.471 . S
O937 C951 1.247 . S
O938 Eu921 2.347 . S
O938 C922 1.259 1_556 S
O939 Tb920 2.418 . S
O939 C922 1.265 . S
O940 Tb920 2.384 . S
O940 C923 1.255 1_554 S
O941 Eu921 2.366 . S
O941 C923 1.265 . S
C942 O933 1.255 1_554 S
C942 O934 1.265 . S
O943 Tb920 2.479 . S
O943 C930 1.238 . S
O944 Tb920 2.471 . S
O944 C930 1.247 . S
C945 C948 1.380 . S
C945 C949 1.374 . S
C945 C951 1.507 . S
C946 C947 1.387 . S
C946 C950 1.391 . S
C947 C946 1.387 . S
C947 C948 1.384 . S
C947 H956 0.930 . S
C948 C945 1.380 . S
C948 C947 1.384 . S
C948 H957 0.931 . S
C949 C945 1.374 . S
C949 C950 1.390 . S
C949 H958 0.930 . S
C950 C946 1.391 . S
C950 C949 1.390 . S
C950 H959 0.930 . S
C951 Eu921 2.825 . S
C951 O936 1.238 . S
C951 O937 1.247 . S
C951 C945 1.507 . S
H952 C925 0.930 . S
H953 C926 0.931 . S
H954 C927 0.930 . S
H955 C928 0.930 . S
H956 C947 0.930 . S
H957 C948 0.931 . S
H958 C949 0.930 . S
H959 C950 0.930 . S
Tb960 C970 2.825 . S
Tb960 O971 2.347 . S
Tb960 O974 2.366 . S
Tb960 O979 2.418 . S
Tb960 O980 2.384 . S
Tb960 O983 2.479 . S
Tb960 O984 2.471 . S
Eu961 O972 2.418 1_565 S
Eu961 O973 2.384 1_565 S
Eu961 O976 2.479 . S
Eu961 O977 2.471 . S
Eu961 O978 2.347 . S
Eu961 O981 2.366 . S
Eu961 C991 2.825 . S
C962 O978 1.259 . S
C962 O979 1.265 . S
C963 O980 1.255 . S
C963 O981 1.265 . S
C964 C966 1.380 . S
C964 C967 1.374 1_565 S
C964 C970 1.507 . S
C965 C966 1.384 . S
C965 C969 1.387 1_565 S
C965 H992 0.930 . S
C966 C964 1.380 . S
C966 C965 1.384 . S
C966 H993 0.931 . S
C967 C964 1.374 1_545 S
C967 C968 1.390 . S
C967 H994 0.930 . S
C968 C967 1.390 . S
C968 C969 1.391 . S
C968 H995 0.930 . S
C969 C965 1.387 1_545 S
C969 C968 1.391 . S
C970 Tb960 2.825 . S
C970 C964 1.507 . S
C970 O983 1.238 . S
C970 O984 1.247 . S
O971 Tb960 2.347 . S
O971 C975 1.259 1_565 S
O972 Eu961 2.418 1_545 S
O972 C975 1.265 . S
O973 Eu961 2.384 1_545 S
O973 C982 1.255 . S
O974 Tb960 2.366 . S
O974 C982 1.265 1_565 S
C975 O971 1.259 1_545 S
C975 O972 1.265 . S
O976 Eu961 2.479 . S
O976 C991 1.238 . S
O977 Eu961 2.471 . S
O977 C991 1.247 . S
O978 Eu961 2.347 . S
O978 C962 1.259 . S
O979 Tb960 2.418 . S
O979 C962 1.265 . S
O980 Tb960 2.384 . S
O980 C963 1.255 . S
O981 Eu961 2.366 . S
O981 C963 1.265 . S
C982 O973 1.255 . S
C982 O974 1.265 1_545 S
O983 Tb960 2.479 . S
O983 C970 1.238 . S
O984 Tb960 2.471 . S
O984 C970 1.247 . S
C985 C988 1.380 . S
C985 C989 1.374 . S
C985 C991 1.507 . S
C986 C987 1.387 . S
C986 C990 1.391 . S
C987 C986 1.387 . S
C987 C988 1.384 . S
C987 H996 0.930 . S
C988 C985 1.380 . S
C988 C987 1.384 . S
C988 H997 0.931 . S
C989 C985 1.374 . S
C989 C990 1.390 . S
C989 H998 0.930 . S
C990 C986 1.391 . S
C990 C989 1.390 . S
C990 H999 0.930 . S
C991 Eu961 2.825 . S
C991 O976 1.238 . S
C991 O977 1.247 . S
C991 C985 1.507 . S
H992 C965 0.930 . S
H993 C966 0.931 . S
H994 C967 0.930 . S
H995 C968 0.930 . S
H996 C987 0.930 . S
H997 C988 0.931 . S
H998 C989 0.930 . S
H999 C990 0.930 . S
Tb1000 C1010 2.825 . S
Tb1000 O1011 2.347 . S
Tb1000 O1014 2.366 . S
Tb1000 O1019 2.418 . S
Tb1000 O1020 2.384 . S
Tb1000 O1023 2.479 . S
Tb1000 O1024 2.471 . S
Eu1001 O1012 2.418 1_455 S
Eu1001 O1013 2.384 1_455 S
Eu1001 O1016 2.479 . S
Eu1001 O1017 2.471 . S
Eu1001 O1018 2.347 . S
Eu1001 O1021 2.366 . S
Eu1001 C1031 2.825 . S
C1002 O1018 1.259 . S
C1002 O1019 1.265 . S
C1003 O1020 1.255 . S
C1003 O1021 1.265 . S
C1004 C1006 1.380 . S
C1004 C1007 1.374 1_455 S
C1004 C1010 1.507 . S
C1005 C1006 1.384 . S
C1005 C1009 1.387 1_455 S
C1005 H1032 0.930 . S
C1006 C1004 1.380 . S
C1006 C1005 1.384 . S
C1006 H1033 0.931 . S
C1007 C1004 1.374 1_655 S
C1007 C1008 1.390 . S
C1007 H1034 0.930 . S
C1008 C1007 1.390 . S
C1008 C1009 1.391 . S
C1008 H1035 0.930 . S
C1009 C1005 1.387 1_655 S
C1009 C1008 1.391 . S
C1010 Tb1000 2.825 . S
C1010 C1004 1.507 . S
C1010 O1023 1.238 . S
C1010 O1024 1.247 . S
O1011 Tb1000 2.347 . S
O1011 C1015 1.259 1_455 S
O1012 Eu1001 2.418 1_655 S
O1012 C1015 1.265 . S
O1013 Eu1001 2.384 1_655 S
O1013 C1022 1.255 . S
O1014 Tb1000 2.366 . S
O1014 C1022 1.265 1_455 S
C1015 O1011 1.259 1_655 S
C1015 O1012 1.265 . S
O1016 Eu1001 2.479 . S
O1016 C1031 1.238 . S
O1017 Eu1001 2.471 . S
O1017 C1031 1.247 . S
O1018 Eu1001 2.347 . S
O1018 C1002 1.259 . S
O1019 Tb1000 2.418 . S
O1019 C1002 1.265 . S
O1020 Tb1000 2.384 . S
O1020 C1003 1.255 . S
O1021 Eu1001 2.366 . S
O1021 C1003 1.265 . S
C1022 O1013 1.255 . S
C1022 O1014 1.265 1_655 S
O1023 Tb1000 2.479 . S
O1023 C1010 1.238 . S
O1024 Tb1000 2.471 . S
O1024 C1010 1.247 . S
C1025 C1028 1.380 . S
C1025 C1029 1.374 . S
C1025 C1031 1.507 . S
C1026 C1027 1.387 . S
C1026 C1030 1.391 . S
C1027 C1026 1.387 . S
C1027 C1028 1.384 . S
C1027 H1036 0.930 . S
C1028 C1025 1.380 . S
C1028 C1027 1.384 . S
C1028 H1037 0.931 . S
C1029 C1025 1.374 . S
C1029 C1030 1.390 . S
C1029 H1038 0.930 . S
C1030 C1026 1.391 . S
C1030 C1029 1.390 . S
C1030 H1039 0.930 . S
C1031 Eu1001 2.825 . S
C1031 O1016 1.238 . S
C1031 O1017 1.247 . S
C1031 C1025 1.507 . S
H1032 C1005 0.930 . S
H1033 C1006 0.931 . S
H1034 C1007 0.930 . S
H1035 C1008 0.930 . S
H1036 C1027 0.930 . S
H1037 C1028 0.931 . S
H1038 C1029 0.930 . S
H1039 C1030 0.930 . S
Tb1040 C1050 2.825 . S
Tb1040 O1051 2.347 . S
Tb1040 O1054 2.366 . S
Tb1040 O1059 2.418 . S
Tb1040 O1060 2.384 . S
Tb1040 O1063 2.479 . S
Tb1040 O1064 2.471 . S
Eu1041 O1052 2.418 . S
Eu1041 O1053 2.384 . S
Eu1041 O1056 2.479 . S
Eu1041 O1057 2.471 . S
Eu1041 O1058 2.347 . S
Eu1041 O1061 2.366 . S
Eu1041 C1071 2.825 . S
C1042 O1058 1.259 . S
C1042 O1059 1.265 . S
C1043 O1060 1.255 . S
C1043 O1061 1.265 . S
C1044 C1046 1.380 . S
C1044 C1047 1.374 . S
C1044 C1050 1.507 . S
C1045 C1046 1.384 . S
C1045 C1049 1.387 . S
C1045 H1072 0.930 . S
C1046 C1044 1.380 . S
C1046 C1045 1.384 . S
C1046 H1073 0.931 . S
C1047 C1044 1.374 . S
C1047 C1048 1.390 . S
C1047 H1074 0.930 . S
C1048 C1047 1.390 . S
C1048 C1049 1.391 . S
C1048 H1075 0.930 . S
C1049 C1045 1.387 . S
C1049 C1048 1.391 . S
C1050 Tb1040 2.825 . S
C1050 C1044 1.507 . S
C1050 O1063 1.238 . S
C1050 O1064 1.247 . S
O1051 Tb1040 2.347 . S
O1051 C1055 1.259 . S
O1052 Eu1041 2.418 . S
O1052 C1055 1.265 . S
O1053 Eu1041 2.384 . S
O1053 C1062 1.255 . S
O1054 Tb1040 2.366 . S
O1054 C1062 1.265 . S
C1055 O1051 1.259 . S
C1055 O1052 1.265 . S
O1056 Eu1041 2.479 . S
O1056 C1071 1.238 . S
O1057 Eu1041 2.471 . S
O1057 C1071 1.247 . S
O1058 Eu1041 2.347 . S
O1058 C1042 1.259 . S
O1059 Tb1040 2.418 . S
O1059 C1042 1.265 . S
O1060 Tb1040 2.384 . S
O1060 C1043 1.255 . S
O1061 Eu1041 2.366 . S
O1061 C1043 1.265 . S
C1062 O1053 1.255 . S
C1062 O1054 1.265 . S
O1063 Tb1040 2.479 . S
O1063 C1050 1.238 . S
O1064 Tb1040 2.471 . S
O1064 C1050 1.247 . S
C1065 C1068 1.380 . S
C1065 C1069 1.374 . S
C1065 C1071 1.507 . S
C1066 C1067 1.387 . S
C1066 C1070 1.391 . S
C1067 C1066 1.387 . S
C1067 C1068 1.384 . S
C1067 H1076 0.930 . S
C1068 C1065 1.380 . S
C1068 C1067 1.384 . S
C1068 H1077 0.931 . S
C1069 C1065 1.374 . S
C1069 C1070 1.390 . S
C1069 H1078 0.930 . S
C1070 C1066 1.391 . S
C1070 C1069 1.390 . S
C1070 H1079 0.930 . S
C1071 Eu1041 2.825 . S
C1071 O1056 1.238 . S
C1071 O1057 1.247 . S
C1071 C1065 1.507 . S
H1072 C1045 0.930 . S
H1073 C1046 0.931 . S
H1074 C1047 0.930 . S
H1075 C1048 0.930 . S
H1076 C1067 0.930 . S
H1077 C1068 0.931 . S
H1078 C1069 0.930 . S
H1079 C1070 0.930 . S
Tb1080 C1090 2.825 . S
Tb1080 O1091 2.347 . S
Tb1080 O1094 2.366 . S
Tb1080 O1099 2.418 . S
Tb1080 O1100 2.384 . S
Tb1080 O1103 2.479 . S
Tb1080 O1104 2.471 . S
Eu1081 O1092 2.418 . S
Eu1081 O1093 2.384 . S
Eu1081 O1096 2.479 . S
Eu1081 O1097 2.471 . S
Eu1081 O1098 2.347 . S
Eu1081 O1101 2.366 . S
Eu1081 C1111 2.825 . S
C1082 O1098 1.259 1_554 S
C1082 O1099 1.265 . S
C1083 O1100 1.255 1_556 S
C1083 O1101 1.265 . S
C1084 C1086 1.380 . S
C1084 C1087 1.374 . S
C1084 C1090 1.507 . S
C1085 C1086 1.384 . S
C1085 C1089 1.387 . S
C1085 H1112 0.930 . S
C1086 C1084 1.380 . S
C1086 C1085 1.384 . S
C1086 H1113 0.931 . S
C1087 C1084 1.374 . S
C1087 C1088 1.390 . S
C1087 H1114 0.930 . S
C1088 C1087 1.390 . S
C1088 C1089 1.391 . S
C1088 H1115 0.930 . S
C1089 C1085 1.387 . S
C1089 C1088 1.391 . S
C1090 Tb1080 2.825 . S
C1090 C1084 1.507 . S
C1090 O1103 1.238 . S
C1090 O1104 1.247 . S
O1091 Tb1080 2.347 . S
O1091 C1095 1.259 1_554 S
O1092 Eu1081 2.418 . S
O1092 C1095 1.265 . S
O1093 Eu1081 2.384 . S
O1093 C1102 1.255 1_556 S
O1094 Tb1080 2.366 . S
O1094 C1102 1.265 . S
C1095 O1091 1.259 1_556 S
C1095 O1092 1.265 . S
O1096 Eu1081 2.479 . S
O1096 C1111 1.238 . S
O1097 Eu1081 2.471 . S
O1097 C1111 1.247 . S
O1098 Eu1081 2.347 . S
O1098 C1082 1.259 1_556 S
O1099 Tb1080 2.418 . S
O1099 C1082 1.265 . S
O1100 Tb1080 2.384 . S
O1100 C1083 1.255 1_554 S
O1101 Eu1081 2.366 . S
O1101 C1083 1.265 . S
C1102 O1093 1.255 1_554 S
C1102 O1094 1.265 . S
O1103 Tb1080 2.479 . S
O1103 C1090 1.238 . S
O1104 Tb1080 2.471 . S
O1104 C1090 1.247 . S
C1105 C1108 1.380 . S
C1105 C1109 1.374 . S
C1105 C1111 1.507 . S
C1106 C1107 1.387 . S
C1106 C1110 1.391 . S
C1107 C1106 1.387 . S
C1107 C1108 1.384 . S
C1107 H1116 0.930 . S
C1108 C1105 1.380 . S
C1108 C1107 1.384 . S
C1108 H1117 0.931 . S
C1109 C1105 1.374 . S
C1109 C1110 1.390 . S
C1109 H1118 0.930 . S
C1110 C1106 1.391 . S
C1110 C1109 1.390 . S
C1110 H1119 0.930 . S
C1111 Eu1081 2.825 . S
C1111 O1096 1.238 . S
C1111 O1097 1.247 . S
C1111 C1105 1.507 . S
H1112 C1085 0.930 . S
H1113 C1086 0.931 . S
H1114 C1087 0.930 . S
H1115 C1088 0.930 . S
H1116 C1107 0.930 . S
H1117 C1108 0.931 . S
H1118 C1109 0.930 . S
H1119 C1110 0.930 . S
Tb1120 C1130 2.825 . S
Tb1120 O1131 2.347 . S
Tb1120 O1134 2.366 . S
Tb1120 O1139 2.418 . S
Tb1120 O1140 2.384 . S
Tb1120 O1143 2.479 . S
Tb1120 O1144 2.471 . S
Eu1121 O1132 2.418 . S
Eu1121 O1133 2.384 . S
Eu1121 O1136 2.479 . S
Eu1121 O1137 2.471 . S
Eu1121 O1138 2.347 . S
Eu1121 O1141 2.366 . S
Eu1121 C1151 2.825 . S
C1122 O1138 1.259 1_554 S
C1122 O1139 1.265 . S
C1123 O1140 1.255 1_556 S
C1123 O1141 1.265 . S
C1124 C1126 1.380 . S
C1124 C1127 1.374 . S
C1124 C1130 1.507 . S
C1125 C1126 1.384 . S
C1125 C1129 1.387 . S
C1125 H1152 0.930 . S
C1126 C1124 1.380 . S
C1126 C1125 1.384 . S
C1126 H1153 0.931 . S
C1127 C1124 1.374 . S
C1127 C1128 1.390 . S
C1127 H1154 0.930 . S
C1128 C1127 1.390 . S
C1128 C1129 1.391 . S
C1128 H1155 0.930 . S
C1129 C1125 1.387 . S
C1129 C1128 1.391 . S
C1130 Tb1120 2.825 . S
C1130 C1124 1.507 . S
C1130 O1143 1.238 . S
C1130 O1144 1.247 . S
O1131 Tb1120 2.347 . S
O1131 C1135 1.259 1_554 S
O1132 Eu1121 2.418 . S
O1132 C1135 1.265 . S
O1133 Eu1121 2.384 . S
O1133 C1142 1.255 1_556 S
O1134 Tb1120 2.366 . S
O1134 C1142 1.265 . S
C1135 O1131 1.259 1_556 S
C1135 O1132 1.265 . S
O1136 Eu1121 2.479 . S
O1136 C1151 1.238 . S
O1137 Eu1121 2.471 . S
O1137 C1151 1.247 . S
O1138 Eu1121 2.347 . S
O1138 C1122 1.259 1_556 S
O1139 Tb1120 2.418 . S
O1139 C1122 1.265 . S
O1140 Tb1120 2.384 . S
O1140 C1123 1.255 1_554 S
O1141 Eu1121 2.366 . S
O1141 C1123 1.265 . S
C1142 O1133 1.255 1_554 S
C1142 O1134 1.265 . S
O1143 Tb1120 2.479 . S
O1143 C1130 1.238 . S
O1144 Tb1120 2.471 . S
O1144 C1130 1.247 . S
C1145 C1148 1.380 . S
C1145 C1149 1.374 . S
C1145 C1151 1.507 . S
C1146 C1147 1.387 . S
C1146 C1150 1.391 . S
C1147 C1146 1.387 . S
C1147 C1148 1.384 . S
C1147 H1156 0.930 . S
C1148 C1145 1.380 . S
C1148 C1147 1.384 . S
C1148 H1157 0.931 . S
C1149 C1145 1.374 . S
C1149 C1150 1.390 . S
C1149 H1158 0.930 . S
C1150 C1146 1.391 . S
C1150 C1149 1.390 . S
C1150 H1159 0.930 . S
C1151 Eu1121 2.825 . S
C1151 O1136 1.238 . S
C1151 O1137 1.247 . S
C1151 C1145 1.507 . S
H1152 C1125 0.930 . S
H1153 C1126 0.931 . S
H1154 C1127 0.930 . S
H1155 C1128 0.930 . S
H1156 C1147 0.930 . S
H1157 C1148 0.931 . S
H1158 C1149 0.930 . S
H1159 C1150 0.930 . S
Tb1160 C1170 2.825 . S
Tb1160 O1171 2.347 . S
Tb1160 O1174 2.366 . S
Tb1160 O1179 2.418 . S
Tb1160 O1180 2.384 . S
Tb1160 O1183 2.479 . S
Tb1160 O1184 2.471 . S
Eu1161 O1172 2.418 . S
Eu1161 O1173 2.384 . S
Eu1161 O1176 2.479 . S
Eu1161 O1177 2.471 . S
Eu1161 O1178 2.347 . S
Eu1161 O1181 2.366 . S
Eu1161 C1191 2.825 . S
C1162 O1178 1.259 1_554 S
C1162 O1179 1.265 . S
C1163 O1180 1.255 1_556 S
C1163 O1181 1.265 . S
C1164 C1166 1.380 . S
C1164 C1167 1.374 . S
C1164 C1170 1.507 . S
C1165 C1166 1.384 . S
C1165 C1169 1.387 . S
C1165 H1192 0.930 . S
C1166 C1164 1.380 . S
C1166 C1165 1.384 . S
C1166 H1193 0.931 . S
C1167 C1164 1.374 . S
C1167 C1168 1.390 . S
C1167 H1194 0.930 . S
C1168 C1167 1.390 . S
C1168 C1169 1.391 . S
C1168 H1195 0.930 . S
C1169 C1165 1.387 . S
C1169 C1168 1.391 . S
C1170 Tb1160 2.825 . S
C1170 C1164 1.507 . S
C1170 O1183 1.238 . S
C1170 O1184 1.247 . S
O1171 Tb1160 2.347 . S
O1171 C1175 1.259 1_554 S
O1172 Eu1161 2.418 . S
O1172 C1175 1.265 . S
O1173 Eu1161 2.384 . S
O1173 C1182 1.255 1_556 S
O1174 Tb1160 2.366 . S
O1174 C1182 1.265 . S
C1175 O1171 1.259 1_556 S
C1175 O1172 1.265 . S
O1176 Eu1161 2.479 . S
O1176 C1191 1.238 . S
O1177 Eu1161 2.471 . S
O1177 C1191 1.247 . S
O1178 Eu1161 2.347 . S
O1178 C1162 1.259 1_556 S
O1179 Tb1160 2.418 . S
O1179 C1162 1.265 . S
O1180 Tb1160 2.384 . S
O1180 C1163 1.255 1_554 S
O1181 Eu1161 2.366 . S
O1181 C1163 1.265 . S
C1182 O1173 1.255 1_554 S
C1182 O1174 1.265 . S
O1183 Tb1160 2.479 . S
O1183 C1170 1.238 . S
O1184 Tb1160 2.471 . S
O1184 C1170 1.247 . S
C1185 C1188 1.380 . S
C1185 C1189 1.374 . S
C1185 C1191 1.507 . S
C1186 C1187 1.387 . S
C1186 C1190 1.391 . S
C1187 C1186 1.387 . S
C1187 C1188 1.384 . S
C1187 H1196 0.930 . S
C1188 C1185 1.380 . S
C1188 C1187 1.384 . S
C1188 H1197 0.931 . S
C1189 C1185 1.374 . S
C1189 C1190 1.390 . S
C1189 H1198 0.930 . S
C1190 C1186 1.391 . S
C1190 C1189 1.390 . S
C1190 H1199 0.930 . S
C1191 Eu1161 2.825 . S
C1191 O1176 1.238 . S
C1191 O1177 1.247 . S
C1191 C1185 1.507 . S
H1192 C1165 0.930 . S
H1193 C1166 0.931 . S
H1194 C1167 0.930 . S
H1195 C1168 0.930 . S
H1196 C1187 0.930 . S
H1197 C1188 0.931 . S
H1198 C1189 0.930 . S
H1199 C1190 0.930 . S
Tb1200 C1210 2.825 . S
Tb1200 O1211 2.347 . S
Tb1200 O1214 2.366 . S
Tb1200 O1219 2.418 . S
Tb1200 O1220 2.384 . S
Tb1200 O1223 2.479 . S
Tb1200 O1224 2.471 . S
Eu1201 O1212 2.418 . S
Eu1201 O1213 2.384 . S
Eu1201 O1216 2.479 . S
Eu1201 O1217 2.471 . S
Eu1201 O1218 2.347 . S
Eu1201 O1221 2.366 . S
Eu1201 C1231 2.825 . S
C1202 O1218 1.259 . S
C1202 O1219 1.265 . S
C1203 O1220 1.255 . S
C1203 O1221 1.265 . S
C1204 C1206 1.380 . S
C1204 C1207 1.374 . S
C1204 C1210 1.507 . S
C1205 C1206 1.384 . S
C1205 C1209 1.387 . S
C1205 H1232 0.930 . S
C1206 C1204 1.380 . S
C1206 C1205 1.384 . S
C1206 H1233 0.931 . S
C1207 C1204 1.374 . S
C1207 C1208 1.390 . S
C1207 H1234 0.930 . S
C1208 C1207 1.390 . S
C1208 C1209 1.391 . S
C1208 H1235 0.930 . S
C1209 C1205 1.387 . S
C1209 C1208 1.391 . S
C1210 Tb1200 2.825 . S
C1210 C1204 1.507 . S
C1210 O1223 1.238 . S
C1210 O1224 1.247 . S
O1211 Tb1200 2.347 . S
O1211 C1215 1.259 . S
O1212 Eu1201 2.418 . S
O1212 C1215 1.265 . S
O1213 Eu1201 2.384 . S
O1213 C1222 1.255 . S
O1214 Tb1200 2.366 . S
O1214 C1222 1.265 . S
C1215 O1211 1.259 . S
C1215 O1212 1.265 . S
O1216 Eu1201 2.479 . S
O1216 C1231 1.238 . S
O1217 Eu1201 2.471 . S
O1217 C1231 1.247 . S
O1218 Eu1201 2.347 . S
O1218 C1202 1.259 . S
O1219 Tb1200 2.418 . S
O1219 C1202 1.265 . S
O1220 Tb1200 2.384 . S
O1220 C1203 1.255 . S
O1221 Eu1201 2.366 . S
O1221 C1203 1.265 . S
C1222 O1213 1.255 . S
C1222 O1214 1.265 . S
O1223 Tb1200 2.479 . S
O1223 C1210 1.238 . S
O1224 Tb1200 2.471 . S
O1224 C1210 1.247 . S
C1225 C1228 1.380 . S
C1225 C1229 1.374 . S
C1225 C1231 1.507 . S
C1226 C1227 1.387 . S
C1226 C1230 1.391 . S
C1227 C1226 1.387 . S
C1227 C1228 1.384 . S
C1227 H1236 0.930 . S
C1228 C1225 1.380 . S
C1228 C1227 1.384 . S
C1228 H1237 0.931 . S
C1229 C1225 1.374 . S
C1229 C1230 1.390 . S
C1229 H1238 0.930 . S
C1230 C1226 1.391 . S
C1230 C1229 1.390 . S
C1230 H1239 0.930 . S
C1231 Eu1201 2.825 . S
C1231 O1216 1.238 . S
C1231 O1217 1.247 . S
C1231 C1225 1.507 . S
H1232 C1205 0.930 . S
H1233 C1206 0.931 . S
H1234 C1207 0.930 . S
H1235 C1208 0.930 . S
H1236 C1227 0.930 . S
H1237 C1228 0.931 . S
H1238 C1229 0.930 . S
H1239 C1230 0.930 . S
Tb1240 C1250 2.825 . S
Tb1240 O1251 2.347 . S
Tb1240 O1254 2.366 . S
Tb1240 O1259 2.418 . S
Tb1240 O1260 2.384 . S
Tb1240 O1263 2.479 . S
Tb1240 O1264 2.471 . S
Eu1241 O1252 2.418 . S
Eu1241 O1253 2.384 . S
Eu1241 O1256 2.479 . S
Eu1241 O1257 2.471 . S
Eu1241 O1258 2.347 . S
Eu1241 O1261 2.366 . S
Eu1241 C1271 2.825 . S
C1242 O1258 1.259 . S
C1242 O1259 1.265 . S
C1243 O1260 1.255 . S
C1243 O1261 1.265 . S
C1244 C1246 1.380 . S
C1244 C1247 1.374 . S
C1244 C1250 1.507 . S
C1245 C1246 1.384 . S
C1245 C1249 1.387 . S
C1245 H1272 0.930 . S
C1246 C1244 1.380 . S
C1246 C1245 1.384 . S
C1246 H1273 0.931 . S
C1247 C1244 1.374 . S
C1247 C1248 1.390 . S
C1247 H1274 0.930 . S
C1248 C1247 1.390 . S
C1248 C1249 1.391 . S
C1248 H1275 0.930 . S
C1249 C1245 1.387 . S
C1249 C1248 1.391 . S
C1250 Tb1240 2.825 . S
C1250 C1244 1.507 . S
C1250 O1263 1.238 . S
C1250 O1264 1.247 . S
O1251 Tb1240 2.347 . S
O1251 C1255 1.259 . S
O1252 Eu1241 2.418 . S
O1252 C1255 1.265 . S
O1253 Eu1241 2.384 . S
O1253 C1262 1.255 . S
O1254 Tb1240 2.366 . S
O1254 C1262 1.265 . S
C1255 O1251 1.259 . S
C1255 O1252 1.265 . S
O1256 Eu1241 2.479 . S
O1256 C1271 1.238 . S
O1257 Eu1241 2.471 . S
O1257 C1271 1.247 . S
O1258 Eu1241 2.347 . S
O1258 C1242 1.259 . S
O1259 Tb1240 2.418 . S
O1259 C1242 1.265 . S
O1260 Tb1240 2.384 . S
O1260 C1243 1.255 . S
O1261 Eu1241 2.366 . S
O1261 C1243 1.265 . S
C1262 O1253 1.255 . S
C1262 O1254 1.265 . S
O1263 Tb1240 2.479 . S
O1263 C1250 1.238 . S
O1264 Tb1240 2.471 . S
O1264 C1250 1.247 . S
C1265 C1268 1.380 . S
C1265 C1269 1.374 . S
C1265 C1271 1.507 . S
C1266 C1267 1.387 . S
C1266 C1270 1.391 . S
C1267 C1266 1.387 . S
C1267 C1268 1.384 . S
C1267 H1276 0.930 . S
C1268 C1265 1.380 . S
C1268 C1267 1.384 . S
C1268 H1277 0.931 . S
C1269 C1265 1.374 . S
C1269 C1270 1.390 . S
C1269 H1278 0.930 . S
C1270 C1266 1.391 . S
C1270 C1269 1.390 . S
C1270 H1279 0.930 . S
C1271 Eu1241 2.825 . S
C1271 O1256 1.238 . S
C1271 O1257 1.247 . S
C1271 C1265 1.507 . S
H1272 C1245 0.930 . S
H1273 C1246 0.931 . S
H1274 C1247 0.930 . S
H1275 C1248 0.930 . S
H1276 C1267 0.930 . S
H1277 C1268 0.931 . S
H1278 C1269 0.930 . S
H1279 C1270 0.930 . S
Tb1280 C1290 2.825 . S
Tb1280 O1291 2.347 . S
Tb1280 O1294 2.366 . S
Tb1280 O1299 2.418 . S
Tb1280 O1300 2.384 . S
Tb1280 O1303 2.479 . S
Tb1280 O1304 2.471 . S
Eu1281 O1292 2.418 . S
Eu1281 O1293 2.384 . S
Eu1281 O1296 2.479 . S
Eu1281 O1297 2.471 . S
Eu1281 O1298 2.347 . S
Eu1281 O1301 2.366 . S
Eu1281 C1311 2.825 . S
C1282 O1298 1.259 . S
C1282 O1299 1.265 . S
C1283 O1300 1.255 . S
C1283 O1301 1.265 . S
C1284 C1286 1.380 . S
C1284 C1287 1.374 . S
C1284 C1290 1.507 . S
C1285 C1286 1.384 . S
C1285 C1289 1.387 . S
C1285 H1312 0.930 . S
C1286 C1284 1.380 . S
C1286 C1285 1.384 . S
C1286 H1313 0.931 . S
C1287 C1284 1.374 . S
C1287 C1288 1.390 . S
C1287 H1314 0.930 . S
C1288 C1287 1.390 . S
C1288 C1289 1.391 . S
C1288 H1315 0.930 . S
C1289 C1285 1.387 . S
C1289 C1288 1.391 . S
C1290 Tb1280 2.825 . S
C1290 C1284 1.507 . S
C1290 O1303 1.238 . S
C1290 O1304 1.247 . S
O1291 Tb1280 2.347 . S
O1291 C1295 1.259 . S
O1292 Eu1281 2.418 . S
O1292 C1295 1.265 . S
O1293 Eu1281 2.384 . S
O1293 C1302 1.255 . S
O1294 Tb1280 2.366 . S
O1294 C1302 1.265 . S
C1295 O1291 1.259 . S
C1295 O1292 1.265 . S
O1296 Eu1281 2.479 . S
O1296 C1311 1.238 . S
O1297 Eu1281 2.471 . S
O1297 C1311 1.247 . S
O1298 Eu1281 2.347 . S
O1298 C1282 1.259 . S
O1299 Tb1280 2.418 . S
O1299 C1282 1.265 . S
O1300 Tb1280 2.384 . S
O1300 C1283 1.255 . S
O1301 Eu1281 2.366 . S
O1301 C1283 1.265 . S
C1302 O1293 1.255 . S
C1302 O1294 1.265 . S
O1303 Tb1280 2.479 . S
O1303 C1290 1.238 . S
O1304 Tb1280 2.471 . S
O1304 C1290 1.247 . S
C1305 C1308 1.380 . S
C1305 C1309 1.374 . S
C1305 C1311 1.507 . S
C1306 C1307 1.387 . S
C1306 C1310 1.391 . S
C1307 C1306 1.387 . S
C1307 C1308 1.384 . S
C1307 H1316 0.930 . S
C1308 C1305 1.380 . S
C1308 C1307 1.384 . S
C1308 H1317 0.931 . S
C1309 C1305 1.374 . S
C1309 C1310 1.390 . S
C1309 H1318 0.930 . S
C1310 C1306 1.391 . S
C1310 C1309 1.390 . S
C1310 H1319 0.930 . S
C1311 Eu1281 2.825 . S
C1311 O1296 1.238 . S
C1311 O1297 1.247 . S
C1311 C1305 1.507 . S
H1312 C1285 0.930 . S
H1313 C1286 0.931 . S
H1314 C1287 0.930 . S
H1315 C1288 0.930 . S
H1316 C1307 0.930 . S
H1317 C1308 0.931 . S
H1318 C1309 0.930 . S
H1319 C1310 0.930 . S
Tb1320 C1330 2.825 . S
Tb1320 O1331 2.347 . S
Tb1320 O1334 2.366 . S
Tb1320 O1339 2.418 1_455 S
Tb1320 O1340 2.384 1_455 S
Tb1320 O1343 2.479 . S
Tb1320 O1344 2.471 . S
Eu1321 O1332 2.418 . S
Eu1321 O1333 2.384 . S
Eu1321 O1336 2.479 . S
Eu1321 O1337 2.471 . S
Eu1321 O1338 2.347 . S
Eu1321 O1341 2.366 . S
Eu1321 C1351 2.825 . S
C1322 O1338 1.259 1_655 S
C1322 O1339 1.265 . S
C1323 O1340 1.255 . S
C1323 O1341 1.265 1_655 S
C1324 C1326 1.380 . S
C1324 C1327 1.374 . S
C1324 C1330 1.507 . S
C1325 C1326 1.384 . S
C1325 C1329 1.387 . S
C1325 H1352 0.930 . S
C1326 C1324 1.380 . S
C1326 C1325 1.384 . S
C1326 H1353 0.931 . S
C1327 C1324 1.374 . S
C1327 C1328 1.390 . S
C1327 H1354 0.930 . S
C1328 C1327 1.390 . S
C1328 C1329 1.391 . S
C1328 H1355 0.930 . S
C1329 C1325 1.387 . S
C1329 C1328 1.391 . S
C1330 Tb1320 2.825 . S
C1330 C1324 1.507 . S
C1330 O1343 1.238 . S
C1330 O1344 1.247 . S
O1331 Tb1320 2.347 . S
O1331 C1335 1.259 . S
O1332 Eu1321 2.418 . S
O1332 C1335 1.265 . S
O1333 Eu1321 2.384 . S
O1333 C1342 1.255 . S
O1334 Tb1320 2.366 . S
O1334 C1342 1.265 . S
C1335 O1331 1.259 . S
C1335 O1332 1.265 . S
O1336 Eu1321 2.479 . S
O1336 C1351 1.238 . S
O1337 Eu1321 2.471 . S
O1337 C1351 1.247 . S
O1338 Eu1321 2.347 . S
O1338 C1322 1.259 1_455 S
O1339 Tb1320 2.418 1_655 S
O1339 C1322 1.265 . S
O1340 Tb1320 2.384 1_655 S
O1340 C1323 1.255 . S
O1341 Eu1321 2.366 . S
O1341 C1323 1.265 1_455 S
C1342 O1333 1.255 . S
C1342 O1334 1.265 . S
O1343 Tb1320 2.479 . S
O1343 C1330 1.238 . S
O1344 Tb1320 2.471 . S
O1344 C1330 1.247 . S
C1345 C1348 1.380 . S
C1345 C1349 1.374 1_455 S
C1345 C1351 1.507 . S
C1346 C1347 1.387 1_655 S
C1346 C1350 1.391 . S
C1347 C1346 1.387 1_455 S
C1347 C1348 1.384 . S
C1347 H1356 0.930 . S
C1348 C1345 1.380 . S
C1348 C1347 1.384 . S
C1348 H1357 0.931 . S
C1349 C1345 1.374 1_655 S
C1349 C1350 1.390 . S
C1349 H1358 0.930 . S
C1350 C1346 1.391 . S
C1350 C1349 1.390 . S
C1350 H1359 0.930 . S
C1351 Eu1321 2.825 . S
C1351 O1336 1.238 . S
C1351 O1337 1.247 . S
C1351 C1345 1.507 . S
H1352 C1325 0.930 . S
H1353 C1326 0.931 . S
H1354 C1327 0.930 . S
H1355 C1328 0.930 . S
H1356 C1347 0.930 . S
H1357 C1348 0.931 . S
H1358 C1349 0.930 . S
H1359 C1350 0.930 . S
Tb1360 C1370 2.825 . S
Tb1360 O1371 2.347 . S
Tb1360 O1374 2.366 . S
Tb1360 O1379 2.418 . S
Tb1360 O1380 2.384 . S
Tb1360 O1383 2.479 . S
Tb1360 O1384 2.471 . S
Eu1361 O1372 2.418 . S
Eu1361 O1373 2.384 . S
Eu1361 O1376 2.479 . S
Eu1361 O1377 2.471 . S
Eu1361 O1378 2.347 . S
Eu1361 O1381 2.366 . S
Eu1361 C1391 2.825 . S
C1362 O1378 1.259 . S
C1362 O1379 1.265 . S
C1363 O1380 1.255 . S
C1363 O1381 1.265 . S
C1364 C1366 1.380 . S
C1364 C1367 1.374 . S
C1364 C1370 1.507 . S
C1365 C1366 1.384 . S
C1365 C1369 1.387 . S
C1365 H1392 0.930 . S
C1366 C1364 1.380 . S
C1366 C1365 1.384 . S
C1366 H1393 0.931 . S
C1367 C1364 1.374 . S
C1367 C1368 1.390 . S
C1367 H1394 0.930 . S
C1368 C1367 1.390 . S
C1368 C1369 1.391 . S
C1368 H1395 0.930 . S
C1369 C1365 1.387 . S
C1369 C1368 1.391 . S
C1370 Tb1360 2.825 . S
C1370 C1364 1.507 . S
C1370 O1383 1.238 . S
C1370 O1384 1.247 . S
O1371 Tb1360 2.347 . S
O1371 C1375 1.259 . S
O1372 Eu1361 2.418 . S
O1372 C1375 1.265 . S
O1373 Eu1361 2.384 . S
O1373 C1382 1.255 . S
O1374 Tb1360 2.366 . S
O1374 C1382 1.265 . S
C1375 O1371 1.259 . S
C1375 O1372 1.265 . S
O1376 Eu1361 2.479 . S
O1376 C1391 1.238 . S
O1377 Eu1361 2.471 . S
O1377 C1391 1.247 . S
O1378 Eu1361 2.347 . S
O1378 C1362 1.259 . S
O1379 Tb1360 2.418 . S
O1379 C1362 1.265 . S
O1380 Tb1360 2.384 . S
O1380 C1363 1.255 . S
O1381 Eu1361 2.366 . S
O1381 C1363 1.265 . S
C1382 O1373 1.255 . S
C1382 O1374 1.265 . S
O1383 Tb1360 2.479 . S
O1383 C1370 1.238 . S
O1384 Tb1360 2.471 . S
O1384 C1370 1.247 . S
C1385 C1388 1.380 . S
C1385 C1389 1.374 . S
C1385 C1391 1.507 . S
C1386 C1387 1.387 . S
C1386 C1390 1.391 . S
C1387 C1386 1.387 . S
C1387 C1388 1.384 . S
C1387 H1396 0.930 . S
C1388 C1385 1.380 . S
C1388 C1387 1.384 . S
C1388 H1397 0.931 . S
C1389 C1385 1.374 . S
C1389 C1390 1.390 . S
C1389 H1398 0.930 . S
C1390 C1386 1.391 . S
C1390 C1389 1.390 . S
C1390 H1399 0.930 . S
C1391 Eu1361 2.825 . S
C1391 O1376 1.238 . S
C1391 O1377 1.247 . S
C1391 C1385 1.507 . S
H1392 C1365 0.930 . S
H1393 C1366 0.931 . S
H1394 C1367 0.930 . S
H1395 C1368 0.930 . S
H1396 C1387 0.930 . S
H1397 C1388 0.931 . S
H1398 C1389 0.930 . S
H1399 C1390 0.930 . S
Tb1400 C1410 2.825 . S
Tb1400 O1411 2.347 . S
Tb1400 O1414 2.366 . S
Tb1400 O1419 2.418 1_565 S
Tb1400 O1420 2.384 1_565 S
Tb1400 O1423 2.479 . S
Tb1400 O1424 2.471 . S
Eu1401 O1412 2.418 . S
Eu1401 O1413 2.384 . S
Eu1401 O1416 2.479 . S
Eu1401 O1417 2.471 . S
Eu1401 O1418 2.347 . S
Eu1401 O1421 2.366 . S
Eu1401 C1431 2.825 . S
C1402 O1418 1.259 1_545 S
C1402 O1419 1.265 . S
C1403 O1420 1.255 . S
C1403 O1421 1.265 1_545 S
C1404 C1406 1.380 . S
C1404 C1407 1.374 . S
C1404 C1410 1.507 . S
C1405 C1406 1.384 . S
C1405 C1409 1.387 . S
C1405 H1432 0.930 . S
C1406 C1404 1.380 . S
C1406 C1405 1.384 . S
C1406 H1433 0.931 . S
C1407 C1404 1.374 . S
C1407 C1408 1.390 . S
C1407 H1434 0.930 . S
C1408 C1407 1.390 . S
C1408 C1409 1.391 . S
C1408 H1435 0.930 . S
C1409 C1405 1.387 . S
C1409 C1408 1.391 . S
C1410 Tb1400 2.825 . S
C1410 C1404 1.507 . S
C1410 O1423 1.238 . S
C1410 O1424 1.247 . S
O1411 Tb1400 2.347 . S
O1411 C1415 1.259 . S
O1412 Eu1401 2.418 . S
O1412 C1415 1.265 . S
O1413 Eu1401 2.384 . S
O1413 C1422 1.255 . S
O1414 Tb1400 2.366 . S
O1414 C1422 1.265 . S
C1415 O1411 1.259 . S
C1415 O1412 1.265 . S
O1416 Eu1401 2.479 . S
O1416 C1431 1.238 . S
O1417 Eu1401 2.471 . S
O1417 C1431 1.247 . S
O1418 Eu1401 2.347 . S
O1418 C1402 1.259 1_565 S
O1419 Tb1400 2.418 1_545 S
O1419 C1402 1.265 . S
O1420 Tb1400 2.384 1_545 S
O1420 C1403 1.255 . S
O1421 Eu1401 2.366 . S
O1421 C1403 1.265 1_565 S
C1422 O1413 1.255 . S
C1422 O1414 1.265 . S
O1423 Tb1400 2.479 . S
O1423 C1410 1.238 . S
O1424 Tb1400 2.471 . S
O1424 C1410 1.247 . S
C1425 C1428 1.380 . S
C1425 C1429 1.374 1_565 S
C1425 C1431 1.507 . S
C1426 C1427 1.387 1_545 S
C1426 C1430 1.391 . S
C1427 C1426 1.387 1_565 S
C1427 C1428 1.384 . S
C1427 H1436 0.930 . S
C1428 C1425 1.380 . S
C1428 C1427 1.384 . S
C1428 H1437 0.931 . S
C1429 C1425 1.374 1_545 S
C1429 C1430 1.390 . S
C1429 H1438 0.930 . S
C1430 C1426 1.391 . S
C1430 C1429 1.390 . S
C1430 H1439 0.930 . S
C1431 Eu1401 2.825 . S
C1431 O1416 1.238 . S
C1431 O1417 1.247 . S
C1431 C1425 1.507 . S
H1432 C1405 0.930 . S
H1433 C1406 0.931 . S
H1434 C1407 0.930 . S
H1435 C1408 0.930 . S
H1436 C1427 0.930 . S
H1437 C1428 0.931 . S
H1438 C1429 0.930 . S
H1439 C1430 0.930 . S
C2 C83 2.399 1_545 S
C3 C42 2.398 1_455 S
C82 C43 2.399 . S
C122 C163 2.500 1_455 S
C203 C162 2.501 . S
C202 C123 2.499 1_565 S
C255 C342 2.399 1_565 S
C295 C262 2.398 1_455 S
C335 C302 2.400 . S
C375 C422 2.500 1_655 S
C462 C415 2.501 . S
C382 C455 2.499 1_565 S
C563 C482 2.481 . S
C522 C483 2.480 . S
C523 C562 2.481 . S
C602 C643 2.511 . S
C683 C642 2.510 . S
C603 C682 2.509 . S
C735 C822 2.428 . S
C775 C742 2.428 . S
C782 C815 2.429 . S
C902 C855 2.246 1_554 S
C895 C942 2.246 1_556 S
C862 C935 2.246 1_554 S
C962 C1043 2.428 . S
C1002 C963 2.428 . S
C1042 C1003 2.429 . S
C1082 C1123 2.246 1_554 S
C1122 C1163 2.246 1_554 S
C1162 C1083 2.246 1_554 S
C1215 C1302 2.481 . S
C1255 C1222 2.480 . S
C1262 C1295 2.481 . S
C1335 C1382 2.511 . S
C1375 C1422 2.510 . S
C1342 C1415 2.509 . S
C22 C802 2.408 . S
C722 C62 2.409 . S
C102 C762 2.407 . S
C142 C1362 2.283 . S
C1402 C182 2.281 . S
C222 C1322 2.282 . S
C1055 C243 2.408 . S
C283 C975 2.409 . S
C323 C1015 2.407 . S
C655 C363 2.283 . S
C695 C403 2.281 . S
C615 C443 2.282 . S
C502 C1282 2.348 1_655 S
C542 C1202 2.350 . S
C1242 C582 2.349 1_565 S
C402 C622 2.333 . S
C442 C662 2.332 . S
C362 C702 2.334 . S
C95 C723 2.398 . S
C763 C15 2.397 . S
C803 C55 2.397 . S
C1135 C843 2.392 1_565 S
C1175 C883 2.393 1_455 S
C923 C1095 2.395 . S
C322 C982 2.398 . S
C242 C1022 2.397 . S
C282 C1062 2.397 . S
C1102 C882 2.392 1_565 S
C922 C1142 2.392 1_655 S
C1182 C842 2.395 . S
C1203 C575 2.348 1_455 S
C1243 C495 2.350 . S
C1283 C535 2.349 1_565 S
C1323 C175 2.333 . S
C215 C1363 2.332 . S
C135 C1403 2.334 . S
C1169 C9 3.417 . S
C1089 C49 3.419 . S
C89 C1129 3.419 . S
C529 C129 3.528 . S
C169 C569 3.530 . S
C209 C489 3.529 . S
C266 C946 3.417 . S
C306 C866 3.419 . S
C346 C906 3.419 . S
C1266 C386 3.528 . S
C1306 C426 3.530 . S
C1226 C466 3.529 . S
C609 C1009 3.527 1_455 S
C649 C1049 3.527 . S
C689 C969 3.528 1_565 S
C746 C1426 3.528 1_565 S
C1346 C786 3.527 1_655 S
C826 C1386 3.527 . S
C186 C26 1.317 1_455 S
C226 C66 1.317 . S
C146 C106 1.316 1_565 S
C249 C409 1.317 1_455 S
C449 C289 1.317 . S
C329 C369 1.316 1_565 S
C666 C506 1.406 . S
C706 C546 1.407 . S
C626 C586 1.407 . S
C889 C729 1.890 . S
C769 C929 1.890 . S
C809 C849 1.891 . S
C986 C1146 1.890 . S
C1186 C1026 1.890 . S
C1066 C1106 1.891 . S
C1209 C1369 1.406 . S
C1409 C1249 1.407 . S
C1289 C1329 1.407 . S
