# Generated by pormake.
# Topology umw, (4)-cn, num edge types: 1
# Building blocks:
#     Node 0, Type 0, BuildingBlock: TATPOV_clean_sbu_0, # of connection points: 4
#     Node 1, Type 0, BuildingBlock: TATPOV_clean_sbu_0, # of connection points: 4
#     Node 2, Type 0, BuildingBlock: TATPOV_clean_sbu_0, # of connection points: 4
#     Node 3, Type 0, BuildingBlock: TATPOV_clean_sbu_0, # of connection points: 4
#     Node 4, Type 0, BuildingBlock: TATPOV_clean_sbu_0, # of connection points: 4
#     Node 5, Type 0, BuildingBlock: TATPOV_clean_sbu_0, # of connection points: 4
#     Node 6, Type 0, BuildingBlock: TATPOV_clean_sbu_0, # of connection points: 4
#     Node 7, Type 0, BuildingBlock: TATPOV_clean_sbu_0, # of connection points: 4
#     Edge 8, Type (0, 0), BuildingBlock: MIFKUJ_clean_linker_0, # of connection points: 2
#     Edge 9, Type (0, 0), BuildingBlock: MIFKUJ_clean_linker_0, # of connection points: 2
#     Edge 10, Type (0, 0), BuildingBlock: MIFKUJ_clean_linker_0, # of connection points: 2
#     Edge 11, Type (0, 0), BuildingBlock: MIFKUJ_clean_linker_0, # of connection points: 2
#     Edge 12, Type (0, 0), BuildingBlock: MIFKUJ_clean_linker_0, # of connection points: 2
#     Edge 13, Type (0, 0), BuildingBlock: MIFKUJ_clean_linker_0, # of connection points: 2
#     Edge 14, Type (0, 0), BuildingBlock: MIFKUJ_clean_linker_0, # of connection points: 2
#     Edge 15, Type (0, 0), BuildingBlock: MIFKUJ_clean_linker_0, # of connection points: 2
#     Edge 16, Type (0, 0), BuildingBlock: MIFKUJ_clean_linker_0, # of connection points: 2
#     Edge 17, Type (0, 0), BuildingBlock: MIFKUJ_clean_linker_0, # of connection points: 2
#     Edge 18, Type (0, 0), BuildingBlock: MIFKUJ_clean_linker_0, # of connection points: 2
#     Edge 19, Type (0, 0), BuildingBlock: MIFKUJ_clean_linker_0, # of connection points: 2
#     Edge 20, Type (0, 0), BuildingBlock: MIFKUJ_clean_linker_0, # of connection points: 2
#     Edge 21, Type (0, 0), BuildingBlock: MIFKUJ_clean_linker_0, # of connection points: 2
#     Edge 22, Type (0, 0), BuildingBlock: MIFKUJ_clean_linker_0, # of connection points: 2
#     Edge 23, Type (0, 0), BuildingBlock: MIFKUJ_clean_linker_0, # of connection points: 2
# Relax obj value: 0.145
# Max RMSD: 0.109
# Mean RMSD: 0.109
data_MOF--net-umw--node1-TATPOV_clean_sbu_0--edge1-MIFKUJ_clean_linker_0
_symmetry_space_group_name_H-M    P1
_symmetry_Int_Tables_number       1
_symmetry_cell_setting            triclinic
loop_
_symmetry_equiv_pos_as_xyz
'x, y, z'
_cell_length_a     54.884547
_cell_length_b     54.879918
_cell_length_c     31.65878
_cell_angle_alpha  89.935386
_cell_angle_beta   89.995431
_cell_angle_gamma 89.989214
loop_
_atom_site_label
_atom_site_type_symbol
_atom_site_fract_x
_atom_site_fract_y
_atom_site_fract_z
_atom_type_partial_charge
Zn0 Zn 0.44645 0.15875 0.24476 0.0
Zn1 Zn 0.40772 0.18464 0.26899 0.0
O2 O 0.41987 0.20348 0.21592 0.0
O3 O 0.44952 0.17962 0.19344 0.0
O4 O 0.37991 0.20502 0.29119 0.0
O5 O 0.46452 0.16756 0.29811 0.0
O6 O 0.431 0.18574 0.31963 0.0
C7 C 0.43636 0.19835 0.18897 0.0
C8 C 0.40276 0.12998 0.24948 0.0
O9 O 0.39295 0.15029 0.25923 0.0
O10 O 0.42546 0.12886 0.24252 0.0
C11 C 0.35739 0.20103 0.2849 0.0
O12 O 0.35079 0.18272 0.26078 0.0
C13 C 0.45282 0.17891 0.32638 0.0
Zn14 Zn 0.85275 0.43081 0.47698 0.0
Zn15 Zn 0.82317 0.39486 0.50297 0.0
O16 O 0.80543 0.40784 0.44934 0.0
O17 O 0.83194 0.43487 0.42568 0.0
O18 O 0.80166 0.36827 0.52639 0.0
O19 O 0.84509 0.45007 0.52993 0.0
O20 O 0.82296 0.4191 0.55191 0.0
C21 C 0.81204 0.42347 0.42176 0.0
C22 C 0.87745 0.38507 0.48415 0.0
O23 O 0.85637 0.37749 0.49483 0.0
O24 O 0.88074 0.40732 0.47525 0.0
C25 C 0.80942 0.35724 0.5591 0.0
O26 O 0.8309 0.36312 0.57434 0.0
C27 C 0.83188 0.44022 0.55794 0.0
Zn28 Zn 0.55763 0.85553 0.74821 0.0
Zn29 Zn 0.59474 0.82689 0.77098 0.0
O30 O 0.58058 0.80923 0.71819 0.0
O31 O 0.5521 0.83491 0.69717 0.0
O32 O 0.62139 0.80456 0.79186 0.0
O33 O 0.53989 0.84814 0.80273 0.0
O34 O 0.57189 0.82675 0.82222 0.0
C35 C 0.56396 0.81538 0.69209 0.0
C36 C 0.60328 0.88118 0.75136 0.0
O37 O 0.61177 0.86031 0.76144 0.0
O38 O 0.5807 0.88376 0.7445 0.0
C39 C 0.64343 0.80459 0.77951 0.0
O40 O 0.6502 0.81986 0.74976 0.0
C41 C 0.55084 0.83538 0.83013 0.0
Zn42 Zn 0.14829 0.5596 0.01855 0.0
Zn43 Zn 0.17626 0.59771 0.03386 0.0
O44 O 0.19465 0.58058 0.98445 0.0
O45 O 0.17295 0.54696 0.97824 0.0
O46 O 0.19906 0.62458 0.05186 0.0
O47 O 0.15009 0.54744 0.07787 0.0
O48 O 0.17524 0.57794 0.08929 0.0
C49 C 0.19125 0.55964 0.96799 0.0
C50 C 0.12359 0.60519 0.00483 0.0
O51 O 0.14335 0.61434 0.01894 0.0
O52 O 0.1217 0.58236 -0.0 0.0
C53 C 0.19751 0.64737 0.04518 0.0
O54 O 0.17947 0.65593 0.02227 0.0
C55 C 0.16421 0.55893 0.10229 0.0
Zn56 Zn 0.43515 0.86398 0.32034 0.0
Zn57 Zn 0.39613 0.83828 0.29592 0.0
O58 O 0.40787 0.81993 0.34986 0.0
O59 O 0.43782 0.84341 0.37224 0.0
O60 O 0.36757 0.81882 0.27433 0.0
O61 O 0.45297 0.85423 0.26687 0.0
O62 O 0.41954 0.83569 0.24588 0.0
C63 C 0.42435 0.82491 0.37691 0.0
C64 C 0.39196 0.89329 0.31347 0.0
O65 O 0.38206 0.87308 0.30341 0.0
O66 O 0.41449 0.89417 0.32188 0.0
C67 C 0.36856 0.79569 0.27282 0.0
O68 O 0.38789 0.78451 0.28782 0.0
C69 C 0.44141 0.84233 0.2391 0.0
Zn70 Zn 0.13335 0.42559 0.5697 0.0
Zn71 Zn 0.16416 0.39153 0.54813 0.0
O72 O 0.17818 0.40436 0.60474 0.0
O73 O 0.14742 0.42635 0.62799 0.0
O74 O 0.18803 0.3659 0.52852 0.0
O75 O 0.14673 0.44828 0.52545 0.0
O76 O 0.1669 0.41678 0.50043 0.0
C77 C 0.16836 0.41726 0.63358 0.0
C78 C 0.10928 0.3814 0.54967 0.0
O79 O 0.131 0.37319 0.54953 0.0
O80 O 0.10532 0.40387 0.55499 0.0
C81 C 0.18188 0.3521 0.49808 0.0
O82 O 0.16002 0.35441 0.48165 0.0
C83 C 0.16014 0.43892 0.49732 0.0
Zn84 Zn 0.5657 0.1415 0.81687 0.0
Zn85 Zn 0.60392 0.1692 0.79561 0.0
O86 O 0.59069 0.18653 0.84926 0.0
O87 O 0.56075 0.16207 0.8682 0.0
O88 O 0.63051 0.19132 0.77432 0.0
O89 O 0.54818 0.14985 0.76252 0.0
O90 O 0.58079 0.17082 0.74505 0.0
C91 C 0.57353 0.18089 0.87464 0.0
C92 C 0.61086 0.11459 0.81301 0.0
O93 O 0.6201 0.13522 0.80344 0.0
O94 O 0.58821 0.11276 0.81995 0.0
C95 C 0.65279 0.19188 0.78515 0.0
O96 O 0.66069 0.1769 0.81451 0.0
C97 C 0.5596 0.16294 0.7362 0.0
Zn98 Zn 0.85528 0.55861 0.03622 0.0
Zn99 Zn 0.82874 0.59755 0.02125 0.0
O100 O 0.81366 0.58365 0.0765 0.0
O101 O 0.84042 0.55541 0.09384 0.0
O102 O 0.80743 0.62625 0.00603 0.0
O103 O 0.84063 0.54082 0.98676 0.0
O104 O 0.82358 0.57567 0.96933 0.0
C105 C 0.82139 0.56749 0.10222 0.0
C106 C 0.88432 0.60141 0.02424 0.0
O107 O 0.86369 0.61211 0.02475 0.0
O108 O 0.88549 0.57843 0.0268 0.0
C109 C 0.81321 0.63892 0.97387 0.0
O110 O 0.83338 0.63364 0.95348 0.0
C111 C 0.82838 0.55349 0.96096 0.0
H112 H 0.42999 0.18392 0.40226 0.0
H113 H 0.44891 0.18609 0.47192 0.0
H114 H 0.52013 0.18627 0.41386 0.0
H115 H 0.50122 0.18268 0.34426 0.0
H116 H 0.52084 0.15589 0.47317 0.0
H117 H 0.49335 0.23815 0.46543 0.0
H118 H 0.46431 0.27183 0.45428 0.0
H119 H 0.4201 0.24547 0.55647 0.0
H120 H 0.44871 0.21142 0.5679 0.0
H121 H 0.5824 0.1808 0.66608 0.0
H122 H 0.56455 0.18828 0.59647 0.0
H123 H 0.49419 0.16596 0.64307 0.0
H124 H 0.5119 0.1581 0.71278 0.0
H125 H 0.49486 0.21012 0.59008 0.0
H126 H 0.52296 0.12613 0.59236 0.0
H127 H 0.5539 0.09413 0.60324 0.0
H128 H 0.59965 0.12727 0.50932 0.0
H129 H 0.5691 0.15967 0.49834 0.0
C130 C 0.44968 0.18475 0.40439 0.0
C131 C 0.46417 0.18303 0.36796 0.0
C132 C 0.4605 0.18616 0.44423 0.0
C133 C 0.486 0.18665 0.44828 0.0
C134 C 0.50044 0.18584 0.41165 0.0
C135 C 0.48963 0.18383 0.3719 0.0
C136 C 0.49762 0.186 0.49065 0.0
C137 C 0.51543 0.16814 0.49834 0.0
C138 C 0.49034 0.20162 0.52399 0.0
C139 C 0.47309 0.22211 0.51728 0.0
C140 C 0.47735 0.23942 0.48533 0.0
C141 C 0.46097 0.2586 0.479 0.0
C142 C 0.44035 0.26075 0.50459 0.0
C143 C 0.43608 0.24376 0.53665 0.0
C144 C 0.45239 0.22454 0.5431 0.0
C145 C 0.56309 0.17765 0.66165 0.0
C146 C 0.54857 0.16869 0.69482 0.0
C147 C 0.55296 0.18195 0.6219 0.0
C148 C 0.52812 0.17759 0.61481 0.0
C149 C 0.51339 0.16946 0.64813 0.0
C150 C 0.52357 0.16484 0.68777 0.0
C151 C 0.51782 0.18015 0.57197 0.0
C152 C 0.5003 0.19821 0.56443 0.0
C153 C 0.52562 0.16504 0.53851 0.0
C154 C 0.54388 0.14546 0.54487 0.0
C155 C 0.53971 0.1267 0.5743 0.0
C156 C 0.55716 0.10847 0.58043 0.0
C157 C 0.57876 0.10871 0.55708 0.0
C158 C 0.58293 0.12713 0.52744 0.0
C159 C 0.56555 0.14542 0.52123 0.0
H160 H 0.59225 0.09458 0.56186 0.0
H161 H 0.42769 0.27561 0.49963 0.0
H162 H 0.81981 0.42036 0.63403 0.0
H163 H 0.81359 0.44162 0.70083 0.0
H164 H 0.82548 0.51058 0.63826 0.0
H165 H 0.83305 0.48921 0.57185 0.0
H166 H 0.84903 0.51102 0.70641 0.0
H167 H 0.76686 0.48999 0.6743 0.0
H168 H 0.73258 0.46338 0.65424 0.0
H169 H 0.74404 0.41994 0.76535 0.0
H170 H 0.77859 0.44615 0.78589 0.0
H171 H 0.81538 0.57776 0.88899 0.0
H172 H 0.80951 0.56027 0.81856 0.0
H173 H 0.81971 0.48811 0.86961 0.0
H174 H 0.82589 0.50538 0.93996 0.0
H175 H 0.78146 0.49264 0.80563 0.0
H176 H 0.86668 0.51287 0.83148 0.0
H177 H 0.89974 0.54113 0.85101 0.0
H178 H 0.87993 0.58852 0.74858 0.0
H179 H 0.8465 0.56067 0.72884 0.0
C180 C 0.82094 0.44007 0.63452 0.0
C181 C 0.82696 0.45316 0.59783 0.0
C182 C 0.81718 0.45225 0.67266 0.0
C183 C 0.81861 0.47779 0.67456 0.0
C184 C 0.82426 0.49088 0.63767 0.0
C185 C 0.82858 0.47867 0.59974 0.0
C186 C 0.81574 0.49072 0.71546 0.0
C187 C 0.83392 0.50732 0.72756 0.0
C188 C 0.79625 0.48573 0.7436 0.0
C189 C 0.77543 0.46996 0.73149 0.0
C190 C 0.76217 0.47468 0.69434 0.0
C191 C 0.74268 0.45969 0.68291 0.0
C192 C 0.73616 0.43998 0.7085 0.0
C193 C 0.74911 0.43523 0.74559 0.0
C194 C 0.76862 0.45018 0.75718 0.0
C195 C 0.81591 0.55814 0.88536 0.0
C196 C 0.82136 0.54293 0.91987 0.0
C197 C 0.81257 0.54821 0.84516 0.0
C198 C 0.81434 0.52296 0.83905 0.0
C199 C 0.81824 0.50764 0.87384 0.0
C200 C 0.82191 0.51755 0.9139 0.0
C201 C 0.81471 0.51263 0.79601 0.0
C202 C 0.79621 0.49651 0.78382 0.0
C203 C 0.83366 0.51828 0.76745 0.0
C204 C 0.85393 0.53485 0.779 0.0
C205 C 0.86925 0.52942 0.81335 0.0
C206 C 0.88807 0.54534 0.82441 0.0
C207 C 0.89188 0.56665 0.80113 0.0
C208 C 0.87693 0.57203 0.76664 0.0
C209 C 0.85805 0.55618 0.75549 0.0
H210 H 0.90646 0.57895 0.80975 0.0
H211 H 0.72103 0.42844 0.69965 0.0
H212 H 0.41909 0.83415 0.16357 0.0
H213 H 0.43839 0.82845 0.09487 0.0
H214 H 0.50929 0.83149 0.15384 0.0
H215 H 0.48998 0.83863 0.22229 0.0
H216 H 0.51065 0.85777 0.08891 0.0
H217 H 0.48258 0.77649 0.11175 0.0
H218 H 0.45307 0.74412 0.12913 0.0
H219 H 0.40891 0.76491 0.0231 0.0
H220 H 0.43808 0.79755 0.00524 0.0
H221 H 0.57308 0.82049 0.90291 0.0
H222 H 0.5548 0.81689 0.9732 0.0
H223 H 0.48485 0.83708 0.92201 0.0
H224 H 0.503 0.84109 0.8517 0.0
H225 H 0.4848 0.79637 0.98307 0.0
H226 H 0.51361 0.87948 0.96485 0.0
H227 H 0.54483 0.91035 0.94822 0.0
H228 H 0.58997 0.88316 0.04854 0.0
H229 H 0.55913 0.85187 0.06535 0.0
C230 C 0.43879 0.83337 0.16189 0.0
C231 C 0.45306 0.83689 0.1982 0.0
C232 C 0.44983 0.82992 0.12262 0.0
C233 C 0.47535 0.82914 0.1191 0.0
C234 C 0.48959 0.83205 0.15564 0.0
C235 C 0.47855 0.8361 0.19475 0.0
C236 C 0.48721 0.82695 0.07706 0.0
C237 C 0.50527 0.84398 0.06623 0.0
C238 C 0.47997 0.80928 0.04691 0.0
C239 C 0.46245 0.78957 0.05733 0.0
C240 C 0.46652 0.77424 0.09226 0.0
C241 C 0.44987 0.75582 0.10216 0.0
C242 C 0.42914 0.75246 0.07723 0.0
C243 C 0.42502 0.76751 0.04232 0.0
C244 C 0.44162 0.78594 0.03225 0.0
C245 C 0.55376 0.82391 0.90651 0.0
C246 C 0.5395 0.83126 0.87186 0.0
C247 C 0.54337 0.82184 0.94663 0.0
C248 C 0.51854 0.8268 0.95261 0.0
C249 C 0.50404 0.83313 0.91786 0.0
C250 C 0.51447 0.83556 0.87784 0.0
C251 C 0.50805 0.82709 0.99556 0.0
C252 C 0.49025 0.80984 0.00628 0.0
C253 C 0.51576 0.84427 0.02592 0.0
C254 C 0.5342 0.86318 0.01603 0.0
C255 C 0.53029 0.87995 0.98311 0.0
C256 C 0.54789 0.89754 0.9737 0.0
C257 C 0.56941 0.89867 0.99722 0.0
C258 C 0.57332 0.88224 0.03029 0.0
C259 C 0.55578 0.86458 0.03979 0.0
H260 H 0.58301 0.9123 0.9899 0.0
H261 H 0.41629 0.73817 0.08494 0.0
H262 H 0.16423 0.48826 0.49234 0.0
H263 H 0.17207 0.51272 0.42926 0.0
H264 H 0.17794 0.44702 0.35501 0.0
H265 H 0.17141 0.42249 0.4185 0.0
H266 H 0.2089 0.47813 0.32671 0.0
H267 H 0.1237 0.48184 0.36278 0.0
H268 H 0.08823 0.48984 0.40856 0.0
H269 H 0.10914 0.565 0.41884 0.0
H270 H 0.14493 0.55736 0.37351 0.0
H271 H 0.15838 0.51245 0.12964 0.0
H272 H 0.16496 0.49655 0.20078 0.0
H273 H 0.18565 0.56817 0.24364 0.0
H274 H 0.17968 0.58426 0.17182 0.0
H275 H 0.14618 0.54002 0.29124 0.0
H276 H 0.2287 0.53451 0.24174 0.0
H277 H 0.2608 0.52369 0.19061 0.0
H278 H 0.24083 0.44823 0.19995 0.0
H279 H 0.20834 0.45864 0.25066 0.0
C280 C 0.16748 0.47907 0.4626 0.0
C281 C 0.16695 0.45352 0.4601 0.0
C282 C 0.17187 0.49305 0.42658 0.0
C283 C 0.175 0.48174 0.38719 0.0
C284 C 0.17551 0.45618 0.38502 0.0
C285 C 0.1717 0.44216 0.42126 0.0
C286 C 0.17633 0.4964 0.34787 0.0
C287 C 0.19515 0.49162 0.31899 0.0
C288 C 0.15863 0.51434 0.33798 0.0
C289 C 0.13714 0.51897 0.36523 0.0
C290 C 0.12083 0.50003 0.37508 0.0
C291 C 0.10066 0.50451 0.40089 0.0
C292 C 0.09648 0.5279 0.41672 0.0
C293 C 0.11243 0.54688 0.40665 0.0
C294 C 0.13266 0.54249 0.38089 0.0
C295 C 0.1644 0.52484 0.15413 0.0
C296 C 0.16843 0.54961 0.14533 0.0
C297 C 0.16828 0.5157 0.19461 0.0
C298 C 0.17591 0.53121 0.2271 0.0
C299 C 0.17988 0.55598 0.21868 0.0
C300 C 0.17648 0.56509 0.17781 0.0
C301 C 0.17843 0.52137 0.27018 0.0
C302 C 0.16024 0.52696 0.2996 0.0
C303 C 0.19631 0.50376 0.28006 0.0
C304 C 0.21597 0.4974 0.24981 0.0
C305 C 0.23101 0.51563 0.23264 0.0
C306 C 0.24931 0.50957 0.20378 0.0
C307 C 0.25282 0.48529 0.19198 0.0
C308 C 0.23808 0.46703 0.20911 0.0
C309 C 0.21975 0.473 0.23796 0.0
H310 H 0.26699 0.48063 0.16963 0.0
H311 H 0.08085 0.53133 0.43669 0.0
H312 H 0.30766 0.19776 0.27917 0.0
H313 H 0.2773 0.22231 0.31649 0.0
H314 H 0.33475 0.26323 0.37647 0.0
H315 H 0.36519 0.2387 0.33967 0.0
H316 H 0.29983 0.24976 0.43264 0.0
H317 H 0.30284 0.28748 0.2951 0.0
H318 H 0.3007 0.28824 0.2173 0.0
H319 H 0.22706 0.26196 0.22197 0.0
H320 H 0.22888 0.26074 0.29983 0.0
H321 H 0.23117 0.34973 0.5109 0.0
H322 H 0.26033 0.32279 0.47596 0.0
H323 H 0.20148 0.28792 0.40883 0.0
H324 H 0.17235 0.31533 0.44258 0.0
H325 H 0.23654 0.29706 0.35649 0.0
H326 H 0.23251 0.25997 0.49326 0.0
H327 H 0.23418 0.25836 0.57105 0.0
H328 H 0.30872 0.28204 0.56839 0.0
H329 H 0.30741 0.2841 0.49057 0.0
C330 C 0.31384 0.21204 0.30017 0.0
C331 C 0.33886 0.2163 0.30632 0.0
C332 C 0.29647 0.22609 0.32142 0.0
C333 C 0.30377 0.24471 0.34906 0.0
C334 C 0.32871 0.24894 0.35532 0.0
C335 C 0.34608 0.23496 0.33409 0.0
C336 C 0.28548 0.25972 0.37172 0.0
C337 C 0.28614 0.26034 0.41603 0.0
C338 C 0.26723 0.27297 0.35005 0.0
C339 C 0.26609 0.27379 0.30326 0.0
C340 C 0.28626 0.28169 0.27952 0.0
C341 C 0.28509 0.28223 0.23542 0.0
C342 C 0.26378 0.27509 0.2147 0.0
C343 C 0.24357 0.26745 0.23806 0.0
C344 C 0.24465 0.26685 0.28217 0.0
C345 C 0.22442 0.33618 0.48899 0.0
C346 C 0.19945 0.33467 0.4795 0.0
C347 C 0.24111 0.3207 0.46913 0.0
C348 C 0.23311 0.3031 0.44003 0.0
C349 C 0.20812 0.30135 0.43108 0.0
C350 C 0.19147 0.317 0.45051 0.0
C351 C 0.25083 0.2872 0.4176 0.0
C352 C 0.25011 0.28642 0.37326 0.0
C353 C 0.26892 0.27368 0.43929 0.0
C354 C 0.26978 0.2724 0.48609 0.0
C355 C 0.2492 0.26501 0.50927 0.0
C356 C 0.2501 0.26398 0.55337 0.0
C357 C 0.27152 0.27015 0.57465 0.0
C358 C 0.29213 0.2773 0.55187 0.0
C359 C 0.29133 0.27837 0.50776 0.0
H360 H 0.27218 0.26935 0.6088 0.0
H361 H 0.26291 0.27553 0.18055 0.0
H362 H 0.76194 0.34495 0.54281 0.0
H363 H 0.73628 0.31645 0.58236 0.0
H364 H 0.79648 0.30014 0.66526 0.0
H365 H 0.82227 0.32846 0.62587 0.0
H366 H 0.77167 0.25896 0.64153 0.0
H367 H 0.75288 0.33805 0.69788 0.0
H368 H 0.74067 0.38124 0.69407 0.0
H369 H 0.6722 0.36072 0.63897 0.0
H370 H 0.68415 0.31741 0.64192 0.0
H371 H 0.70142 0.19951 0.80089 0.0
H372 H 0.72896 0.22738 0.76381 0.0
H373 H 0.66991 0.25022 0.683 0.0
H374 H 0.64227 0.22291 0.72025 0.0
H375 H 0.69526 0.28845 0.70782 0.0
H376 H 0.71403 0.20984 0.64915 0.0
H377 H 0.72604 0.16655 0.65126 0.0
H378 H 0.79412 0.18591 0.70899 0.0
H379 H 0.78237 0.22931 0.70773 0.0
C380 C 0.76976 0.33519 0.56929 0.0
C381 C 0.79412 0.33907 0.58131 0.0
C382 C 0.75505 0.319 0.59197 0.0
C383 C 0.76441 0.3064 0.62705 0.0
C384 C 0.78888 0.30972 0.63837 0.0
C385 C 0.80357 0.32598 0.61586 0.0
C386 C 0.74858 0.29005 0.65236 0.0
C387 C 0.75512 0.26545 0.65652 0.0
C388 C 0.72679 0.29847 0.67127 0.0
C389 C 0.71951 0.3245 0.66975 0.0
C390 C 0.73529 0.34276 0.68466 0.0
C391 C 0.72841 0.36726 0.68271 0.0
C392 C 0.7057 0.37372 0.66617 0.0
C393 C 0.6898 0.35568 0.65171 0.0
C394 C 0.69661 0.33116 0.65355 0.0
C395 C 0.6943 0.2105 0.77528 0.0
C396 C 0.66965 0.20892 0.76351 0.0
C397 C 0.71009 0.22635 0.75398 0.0
C398 C 0.70157 0.24071 0.72028 0.0
C399 C 0.67691 0.23935 0.70889 0.0
C400 C 0.66113 0.22364 0.73021 0.0
C401 C 0.71818 0.25723 0.69672 0.0
C402 C 0.71183 0.28192 0.69295 0.0
C403 C 0.74009 0.24886 0.67804 0.0
C404 C 0.7472 0.22279 0.67877 0.0
C405 C 0.73148 0.20484 0.66261 0.0
C406 C 0.73825 0.18029 0.66359 0.0
C407 C 0.7608 0.17348 0.68036 0.0
C408 C 0.77665 0.19121 0.69608 0.0
C409 C 0.76995 0.21579 0.69521 0.0
H410 H 0.76602 0.15446 0.68108 0.0
H411 H 0.70038 0.39269 0.66461 0.0
H412 H 0.82188 0.67122 0.9099 0.0
H413 H 0.7935 0.70059 0.87911 0.0
H414 H 0.73852 0.67903 0.96901 0.0
H415 H 0.7668 0.64951 2e-05 0.0
H416 H 0.72123 0.68 0.88773 0.0
H417 H 0.76631 0.73305 0.97929 0.0
H418 H 0.80324 0.75183 0.00933 0.0
H419 H 0.82227 0.78035 0.88737 0.0
H420 H 0.78561 0.76144 0.85645 0.0
H421 H 0.63567 0.77297 0.84488 0.0
H422 H 0.66508 0.74593 0.87865 0.0
H423 H 0.72103 0.77106 0.7934 0.0
H424 H 0.69174 0.79861 0.75981 0.0
H425 H 0.73812 0.76839 0.87237 0.0
H426 H 0.69403 0.71531 0.78016 0.0
H427 H 0.65767 0.69619 0.74872 0.0
H428 H 0.63752 0.66721 0.86983 0.0
H429 H 0.67362 0.68645 0.90213 0.0
C430 C 0.80383 0.67285 0.92342 0.0
C431 C 0.7966 0.65799 0.95742 0.0
C432 C 0.78765 0.68972 0.90584 0.0
C433 C 0.76393 0.69208 0.92189 0.0
C434 C 0.75675 0.6775 0.95616 0.0
C435 C 0.77297 0.66071 0.97395 0.0
C436 C 0.74633 0.70903 0.90174 0.0
C437 C 0.72473 0.6994 0.88495 0.0
C438 C 0.75129 0.73419 0.89696 0.0
C439 C 0.77333 0.74562 0.91548 0.0
C440 C 0.77847 0.74315 0.9588 0.0
C441 C 0.79934 0.75386 0.976 0.0
C442 C 0.81513 0.76722 0.95025 0.0
C443 C 0.81004 0.76996 0.90726 0.0
C444 C 0.78921 0.75928 0.88989 0.0
C445 C 0.65421 0.77274 0.83316 0.0
C446 C 0.66131 0.7879 0.79946 0.0
C447 C 0.671 0.75718 0.85246 0.0
C448 C 0.69521 0.75621 0.83823 0.0
C449 C 0.70244 0.77146 0.80486 0.0
C450 C 0.68564 0.78714 0.78559 0.0
C451 C 0.71294 0.73937 0.85847 0.0
C452 C 0.73459 0.749 0.87519 0.0
C453 C 0.70811 0.71415 0.86297 0.0
C454 C 0.68641 0.70252 0.84364 0.0
C455 C 0.68175 0.70502 0.80016 0.0
C456 C 0.6612 0.69413 0.78217 0.0
C457 C 0.64526 0.68055 0.80728 0.0
C458 C 0.64987 0.67777 0.85042 0.0
C459 C 0.67038 0.68864 0.86859 0.0
H460 H 0.62936 0.67213 0.79329 0.0
H461 H 0.83127 0.7755 0.96363 0.0
H462 H 0.23427 0.63524 0.09927 0.0
H463 H 0.26174 0.6625 0.13686 0.0
H464 H 0.22833 0.7245 0.07635 0.0
H465 H 0.20058 0.69721 0.03823 0.0
H466 H 0.27932 0.72744 0.07937 0.0
H467 H 0.21319 0.7125 0.1745 0.0
H468 H 0.18385 0.68727 0.2141 0.0
H469 H 0.24273 0.65199 0.27923 0.0
H470 H 0.27247 0.67677 0.23955 0.0
H471 H 0.332 0.81313 0.22235 0.0
H472 H 0.30175 0.78949 0.18305 0.0
H473 H 0.33098 0.723 0.23516 0.0
H474 H 0.36141 0.74645 0.27433 0.0
H475 H 0.28007 0.72467 0.23611 0.0
H476 H 0.34612 0.73791 0.13963 0.0
H477 H 0.37597 0.76246 0.10001 0.0
H478 H 0.31785 0.80023 0.03708 0.0
H479 H 0.28758 0.77625 0.07708 0.0
C480 C 0.23276 0.65465 0.09366 0.0
C481 C 0.21508 0.66404 0.06588 0.0
C482 C 0.24847 0.67022 0.11534 0.0
C483 C 0.24685 0.69553 0.10983 0.0
C484 C 0.22978 0.705 0.08115 0.0
C485 C 0.21392 0.6894 0.05948 0.0
C486 C 0.26274 0.71192 0.13487 0.0
C487 C 0.2792 0.72719 0.11363 0.0
C488 C 0.26289 0.71117 0.17958 0.0
C489 C 0.24506 0.69636 0.20377 0.0
C490 C 0.21989 0.69924 0.19703 0.0
C491 C 0.20319 0.68504 0.21953 0.0
C492 C 0.21142 0.668 0.24909 0.0
C493 C 0.23638 0.66518 0.25629 0.0
C494 C 0.25317 0.67932 0.23384 0.0
C495 C 0.33188 0.79349 0.22573 0.0
C496 C 0.34916 0.78164 0.25137 0.0
C497 C 0.31465 0.78002 0.2031 0.0
C498 C 0.31428 0.7545 0.20596 0.0
C499 C 0.331 0.74268 0.23251 0.0
C500 C 0.34841 0.75611 0.25477 0.0
C501 C 0.29678 0.74003 0.18064 0.0
C502 C 0.28003 0.72511 0.20185 0.0
C503 C 0.29642 0.74107 0.13595 0.0
C504 C 0.31457 0.75549 0.11176 0.0
C505 C 0.33968 0.75162 0.11768 0.0
C506 C 0.35669 0.7654 0.09508 0.0
C507 C 0.34883 0.78292 0.06608 0.0
C508 C 0.32392 0.78668 0.05961 0.0
C509 C 0.30682 0.77301 0.08225 0.0
H510 H 0.36204 0.79354 0.04858 0.0
H511 H 0.19846 0.65701 0.26647 0.0
H512 H 0.40317 0.93533 0.35386 0.0
H513 H 0.38558 0.97533 0.34236 0.0
H514 H 0.33184 0.94418 0.25883 0.0
H515 H 0.34979 0.90365 0.27001 0.0
H516 H 0.35384 0.98012 0.22109 0.0
H517 H 0.31296 0.97451 0.34907 0.0
H518 H 0.30515 0.96436 0.42369 0.0
H519 H 0.36051 0.01484 0.46249 0.0
H520 H 0.36897 0.02505 0.38813 0.0
H521 H 0.3559 0.12192 0.27778 0.0
H522 H 0.335 0.08242 0.28347 0.0
H523 H 0.39703 0.04719 0.22614 0.0
H524 H 0.41744 0.08607 0.21948 0.0
H525 H 0.34772 0.04523 0.32911 0.0
H526 H 0.38534 0.99835 0.17525 0.0
H527 H 0.39012 0.00875 0.09999 0.0
H528 H 0.33428 0.06316 0.11098 0.0
H529 H 0.32885 0.05286 0.18619 0.0
C530 C 0.38725 0.93682 0.33377 0.0
C531 C 0.37802 0.91636 0.31251 0.0
C532 C 0.377 0.95976 0.32754 0.0
C533 C 0.35719 0.96284 0.3 0.0
C534 C 0.34702 0.94223 0.28042 0.0
C535 C 0.35724 0.91909 0.28691 0.0
C536 C 0.35008 0.98796 0.2874 0.0
C537 C 0.352 0.99435 0.24459 0.0
C538 C 0.3465 0.00652 0.31781 0.0
C539 C 0.34157 0.00058 0.36285 0.0
C540 C 0.32357 0.98338 0.37347 0.0
C541 C 0.31902 0.97761 0.41576 0.0
C542 C 0.33231 0.98896 0.44781 0.0
C543 C 0.35019 0.00611 0.43763 0.0
C544 C 0.35482 0.01194 0.39538 0.0
C545 C 0.36475 0.10578 0.26552 0.0
C546 C 0.38839 0.10713 0.24841 0.0
C547 C 0.35283 0.08323 0.26885 0.0
C548 C 0.36426 0.0618 0.2547 0.0
C549 C 0.38747 0.06342 0.23629 0.0
C550 C 0.39929 0.08576 0.23295 0.0
C551 C 0.35386 0.03728 0.26336 0.0
C552 C 0.34859 0.03102 0.30539 0.0
C553 C 0.35376 0.01885 0.23208 0.0
C554 C 0.35666 0.02479 0.1865 0.0
C555 C 0.37388 0.01236 0.16158 0.0
C556 C 0.37676 0.01829 0.11892 0.0
C557 C 0.36252 0.0366 0.10072 0.0
C558 C 0.34533 0.049 0.12513 0.0
C559 C 0.34236 0.04314 0.16781 0.0
H560 H 0.3648 0.04119 0.06769 0.0
H561 H 0.32876 0.98447 0.48053 0.0
H562 H 0.88435 0.34364 0.53154 0.0
H563 H 0.9231 0.32194 0.54208 0.0
H564 H 0.95725 0.36843 0.44937 0.0
H565 H 0.91898 0.3899 0.4388 0.0
H566 H 0.9758 0.32201 0.44651 0.0
H567 H 0.95565 0.38469 0.55427 0.0
H568 H 0.92984 0.4003 0.61208 0.0
H569 H 0.93983 0.33346 0.68062 0.0
H570 H 0.96551 0.3174 0.6229 0.0
H571 H 0.07796 0.38797 0.48597 0.0
H572 H 0.0394 0.36713 0.47419 0.0
H573 H 0.05408 0.31952 0.57979 0.0
H574 H 0.09344 0.34036 0.59109 0.0
H575 H 0.01014 0.34432 0.58614 0.0
H576 H 0.0462 0.29258 0.48665 0.0
H577 H 0.07325 0.28016 0.4284 0.0
H578 H 0.03459 0.32722 0.3432 0.0
H579 H 0.00753 0.34026 0.401 0.0
C580 C 0.89999 0.34869 0.5126 0.0
C581 C 0.8988 0.36867 0.48479 0.0
C582 C 0.92209 0.33633 0.5187 0.0
C583 C 0.94312 0.34373 0.4968 0.0
C584 C 0.94129 0.36234 0.46655 0.0
C585 C 0.91942 0.37475 0.46077 0.0
C586 C 0.9678 0.33521 0.50894 0.0
C587 C 0.98335 0.32645 0.47721 0.0
C588 C 0.97744 0.34007 0.54953 0.0
C589 C 0.96219 0.34976 0.58419 0.0
C590 C 0.95221 0.37331 0.5816 0.0
C591 C 0.93763 0.38223 0.61432 0.0
C592 C 0.93313 0.36785 0.64994 0.0
C593 C 0.94328 0.34455 0.65296 0.0
C594 C 0.95783 0.33552 0.62027 0.0
C595 C 0.07328 0.37258 0.50588 0.0
C596 C 0.0885 0.36565 0.53931 0.0
C597 C 0.05133 0.36057 0.49901 0.0
C598 C 0.04396 0.34156 0.5258 0.0
C599 C 0.05959 0.33394 0.55846 0.0
C600 C 0.08198 0.34577 0.56485 0.0
C601 C 0.01846 0.33282 0.5227 0.0
C602 C 0.00265 0.33842 0.55613 0.0
C603 C 0.00866 0.32519 0.48355 0.0
C604 C 0.02474 0.31735 0.4483 0.0
C605 C 0.0435 0.30037 0.45555 0.0
C606 C 0.05885 0.29322 0.42257 0.0
C607 C 0.05562 0.30287 0.38211 0.0
C608 C 0.03702 0.3197 0.37454 0.0
C609 C 0.02162 0.32693 0.4074 0.0
H610 H 0.06753 0.29731 0.35663 0.0
H611 H 0.92184 0.37479 0.67525 0.0
H612 H 0.59265 0.92461 0.71498 0.0
H613 H 0.61413 0.96281 0.72272 0.0
H614 H 0.67117 0.92649 0.79245 0.0
H615 H 0.64907 0.88771 0.7856 0.0
H616 H 0.65746 0.96402 0.83435 0.0
H617 H 0.68429 0.9562 0.69631 0.0
H618 H 0.68392 0.94598 0.62054 0.0
H619 H 0.62966 0.00084 0.59817 0.0
H620 H 0.62936 0.01117 0.67385 0.0
H621 H 0.655 0.10575 0.77423 0.0
H622 H 0.67478 0.06584 0.76552 0.0
H623 H 0.61896 0.03287 0.84279 0.0
H624 H 0.59979 0.07218 0.85223 0.0
H625 H 0.65707 0.02923 0.72576 0.0
H626 H 0.63344 0.98367 0.88984 0.0
H627 H 0.63785 0.99384 0.9652 0.0
H628 H 0.69414 0.04532 0.93521 0.0
H629 H 0.6904 0.03522 0.85966 0.0
C630 C 0.60999 0.92452 0.73132 0.0
C631 C 0.619 0.90312 0.75007 0.0
C632 C 0.62249 0.94646 0.73528 0.0
C633 C 0.64452 0.94763 0.75771 0.0
C634 C 0.65428 0.92604 0.77477 0.0
C635 C 0.64168 0.90389 0.77075 0.0
C636 C 0.65488 0.97201 0.76789 0.0
C637 C 0.65787 0.97824 0.81057 0.0
C638 C 0.65683 0.99047 0.73676 0.0
C639 C 0.65688 0.98451 0.69093 0.0
C640 C 0.67219 0.96604 0.6753 0.0
C641 C 0.6721 0.96022 0.63232 0.0
C642 C 0.6568 0.97277 0.60455 0.0
C643 C 0.64156 0.99118 0.6197 0.0
C644 C 0.64157 0.99708 0.66266 0.0
C645 C 0.64747 0.09005 0.79037 0.0
C646 C 0.62571 0.09206 0.81359 0.0
C647 C 0.65873 0.06725 0.78527 0.0
C648 C 0.64856 0.04627 0.80381 0.0
C649 C 0.62763 0.0487 0.82894 0.0
C650 C 0.61644 0.07127 0.83392 0.0
C651 C 0.65699 0.02133 0.79242 0.0
C652 C 0.65766 0.01498 0.74949 0.0
C653 C 0.65916 0.00274 0.82327 0.0
C654 C 0.66165 0.00863 0.86891 0.0
C655 C 0.64696 0.99698 0.89926 0.0
C656 C 0.64928 0.00279 0.94206 0.0
C657 C 0.66626 0.02021 0.95499 0.0
C658 C 0.68097 0.03185 0.92514 0.0
C659 C 0.67873 0.02611 0.88231 0.0
H660 H 0.66802 0.02469 0.98813 0.0
H661 H 0.65674 0.96822 0.5713 0.0
H662 H 0.89686 0.64687 0.05445 0.0
H663 H 0.93708 0.66681 0.0481 0.0
H664 H 0.96275 0.60658 0.97284 0.0
H665 H 0.92341 0.58657 0.97994 0.0
H666 H 0.98318 0.64239 0.0749 0.0
H667 H 0.99576 0.63012 0.89339 0.0
H668 H 0.97121 0.63499 0.82876 0.0
H669 H 0.92555 0.68711 0.89162 0.0
H670 H 0.95003 0.68286 0.95648 0.0
H671 H 0.08635 0.59537 0.95158 0.0
H672 H 0.04618 0.61391 0.95128 0.0
H673 H 0.07039 0.6676 0.04151 0.0
H674 H 0.11101 0.64865 0.04233 0.0
H675 H 0.02371 0.65615 0.93685 0.0
H676 H 0.02306 0.67458 0.11232 0.0
H677 H 0.04616 0.66477 0.17713 0.0
H678 H 0.06551 0.59505 0.12557 0.0
H679 H 0.04232 0.60439 0.06073 0.0
C680 C 0.91109 0.63815 0.0362 0.0
C681 C 0.90718 0.61512 0.01797 0.0
C682 C 0.93396 0.6495 0.03263 0.0
C683 C 0.95275 0.63823 0.00967 0.0
C684 C 0.94842 0.61571 0.99027 0.0
C685 C 0.92598 0.60422 0.99461 0.0
C686 C 0.97782 0.6482 0.00831 0.0
C687 C 0.99199 0.64643 0.04501 0.0
C688 C 0.98927 0.65315 0.96922 0.0
C689 C 0.97479 0.65617 0.92989 0.0
C690 C 0.98064 0.64281 0.89336 0.0
C691 C 0.96668 0.64541 0.85669 0.0
C692 C 0.94683 0.66134 0.85608 0.0
C693 C 0.94091 0.67474 0.89214 0.0
C694 C 0.95481 0.67223 0.92889 0.0
C695 C 0.08335 0.61148 0.97065 0.0
C696 C 0.10169 0.62031 0.99751 0.0
C697 C 0.06037 0.62221 0.97024 0.0
C698 C 0.05509 0.64193 0.99687 0.0
C699 C 0.07398 0.65221 0.02104 0.0
C700 C 0.09719 0.64146 0.02133 0.0
C701 C 0.02913 0.64882 0.003 0.0
C702 C 0.01483 0.65359 0.96714 0.0
C703 C 0.01753 0.64625 0.04275 0.0
C704 C 0.03129 0.64033 0.08162 0.0
C705 C 0.03225 0.65717 0.11492 0.0
C706 C 0.04534 0.65169 0.15162 0.0
C707 C 0.05738 0.62934 0.15539 0.0
C708 C 0.05625 0.61238 0.12255 0.0
C709 C 0.04315 0.61775 0.08585 0.0
H710 H 0.06753 0.62515 0.18379 0.0
H711 H 0.93603 0.6633 0.82767 0.0
H712 H 0.55613 0.16627 0.95008 0.0
H713 H 0.53615 0.19126 0.0032 0.0
H714 H 0.55467 0.25618 0.93332 0.0
H715 H 0.5749 0.23092 0.87933 0.0
H716 H 0.55071 0.23568 0.05362 0.0
H717 H 0.51257 0.27726 0.92574 0.0
H718 H 0.5021 0.27488 0.84995 0.0
H719 H 0.46754 0.20565 0.8704 0.0
H720 H 0.47798 0.20764 0.94625 0.0
H721 H 0.4516 0.24562 0.19099 0.0
H722 H 0.47504 0.2656 0.13454 0.0
H723 H 0.45841 0.20578 0.05098 0.0
H724 H 0.43529 0.18604 0.10698 0.0
H725 H 0.46539 0.24747 0.00608 0.0
H726 H 0.5061 0.20112 0.12168 0.0
H727 H 0.51635 0.19571 0.19706 0.0
H728 H 0.54648 0.26791 0.20073 0.0
H729 H 0.53613 0.27377 0.12543 0.0
C730 C 0.55653 0.1859 0.9465 0.0
C731 C 0.56686 0.19667 0.91049 0.0
C732 C 0.54518 0.20018 0.97696 0.0
C733 C 0.54372 0.22552 0.97194 0.0
C734 C 0.5555 0.23662 0.93755 0.0
C735 C 0.56717 0.22222 0.90698 0.0
C736 C 0.52685 0.23892 1e-05 0.0
C737 C 0.53227 0.23961 0.04325 0.0
C738 C 0.50276 0.24363 0.98653 0.0
C739 C 0.49608 0.24258 0.94136 0.0
C740 C 0.50275 0.26155 0.91394 0.0
C741 C 0.49684 0.26026 0.87104 0.0
C742 C 0.48418 0.24011 0.85536 0.0
C743 C 0.47735 0.22124 0.88258 0.0
C744 C 0.48322 0.22245 0.9255 0.0
C745 C 0.45194 0.2375 0.15982 0.0
C746 C 0.44175 0.21437 0.15303 0.0
C747 C 0.46544 0.24882 0.1277 0.0
C748 C 0.46881 0.237 0.08874 0.0
C749 C 0.45606 0.21531 0.08066 0.0
C750 C 0.44284 0.20399 0.11268 0.0
C751 C 0.4891 0.24354 0.05989 0.0
C752 C 0.48414 0.24597 0.0166 0.0
C753 C 0.51365 0.24158 0.07338 0.0
C754 C 0.52015 0.23796 0.11828 0.0
C755 C 0.51486 0.21583 0.13868 0.0
C756 C 0.52066 0.2127 0.18134 0.0
C757 C 0.53201 0.23148 0.2037 0.0
C758 C 0.53764 0.2534 0.1834 0.0
C759 C 0.5318 0.25665 0.14077 0.0
H760 H 0.53649 0.22902 0.23673 0.0
H761 H 0.47964 0.23913 0.82213 0.0
H762 H 0.77225 0.56046 0.10858 0.0
H763 H 0.75116 0.53853 0.16578 0.0
H764 H 0.8182 0.53608 0.23679 0.0
H765 H 0.83924 0.55728 0.1797 0.0
H766 H 0.76548 0.49154 0.18834 0.0
H767 H 0.80657 0.53717 0.33946 0.0
H768 H 0.81386 0.57865 0.36632 0.0
H769 H 0.75772 0.60656 0.28517 0.0
H770 H 0.74979 0.56519 0.25824 0.0
H771 H 0.82305 0.42213 0.33897 0.0
H772 H 0.80412 0.44681 0.28401 0.0
H773 H 0.74769 0.46838 0.37123 0.0
H774 H 0.76664 0.44315 0.42641 0.0
H775 H 0.77283 0.50682 0.34216 0.0
H776 H 0.73052 0.44257 0.27848 0.0
H777 H 0.72298 0.40113 0.25155 0.0
H778 H 0.77907 0.41061 0.15847 0.0
H779 H 0.78725 0.45195 0.18518 0.0
C780 C 0.78217 0.55597 0.13713 0.0
C781 C 0.80731 0.56054 0.13996 0.0
C782 C 0.77017 0.54334 0.16958 0.0
C783 C 0.78309 0.53578 0.20559 0.0
C784 C 0.80778 0.54202 0.20959 0.0
C785 C 0.81982 0.5541 0.17696 0.0
C786 C 0.77242 0.5184 0.23635 0.0
C787 C 0.76655 0.49492 0.22203 0.0
C788 C 0.77307 0.52308 0.28022 0.0
C789 C 0.77758 0.548 0.29678 0.0
C790 C 0.79561 0.55209 0.32758 0.0
C791 C 0.7999 0.57562 0.34276 0.0
C792 C 0.78627 0.59523 0.32745 0.0
C793 C 0.76829 0.59136 0.29695 0.0
C794 C 0.76392 0.56787 0.28167 0.0
C795 C 0.8059 0.43112 0.3457 0.0
C796 C 0.79612 0.43062 0.38658 0.0
C797 C 0.79505 0.44525 0.31429 0.0
C798 C 0.77442 0.45946 0.32341 0.0
C799 C 0.76348 0.45744 0.36342 0.0
C800 C 0.77418 0.44289 0.39478 0.0
C801 C 0.76785 0.47953 0.29406 0.0
C802 C 0.77066 0.50354 0.3086 0.0
C803 C 0.76429 0.47533 0.25042 0.0
C804 C 0.75947 0.45045 0.23389 0.0
C805 C 0.74134 0.43579 0.2524 0.0
C806 C 0.73695 0.41231 0.23715 0.0
C807 C 0.75053 0.40325 0.20331 0.0
C808 C 0.76853 0.41767 0.18462 0.0
C809 C 0.77301 0.44117 0.19975 0.0
H810 H 0.7471 0.38506 0.19156 0.0
H811 H 0.78963 0.61343 0.33923 0.0
H812 H 0.54728 0.76866 0.69591 0.0
H813 H 0.52318 0.74827 0.64073 0.0
H814 H 0.53906 0.80738 0.555 0.0
H815 H 0.56257 0.82767 0.6099 0.0
H816 H 0.48239 0.76939 0.61219 0.0
H817 H 0.53629 0.79155 0.45634 0.0
H818 H 0.57821 0.78712 0.42964 0.0
H819 H 0.59191 0.73044 0.52015 0.0
H820 H 0.54994 0.73422 0.54703 0.0
H821 H 0.42897 0.83789 0.45841 0.0
H822 H 0.44933 0.81473 0.51373 0.0
H823 H 0.45447 0.75269 0.43055 0.0
H824 H 0.43349 0.77603 0.37491 0.0
H825 H 0.49859 0.7672 0.45815 0.0
H826 H 0.42622 0.74436 0.52448 0.0
H827 H 0.38422 0.74796 0.55133 0.0
H828 H 0.40721 0.80265 0.63959 0.0
H829 H 0.44926 0.79971 0.6129 0.0
C830 C 0.54648 0.77661 0.6646 0.0
C831 C 0.55684 0.79957 0.65679 0.0
C832 C 0.53261 0.76507 0.63325 0.0
C833 C 0.5294 0.7762 0.59361 0.0
C834 C 0.5416 0.79814 0.58495 0.0
C835 C 0.55503 0.80979 0.61634 0.0
C836 C 0.51007 0.76803 0.56402 0.0
C837 C 0.48589 0.76834 0.57853 0.0
C838 C 0.51464 0.76568 0.52024 0.0
C839 C 0.53986 0.76316 0.50371 0.0
C840 C 0.54812 0.77796 0.47032 0.0
C841 C 0.57195 0.77561 0.45521 0.0
C842 C 0.58771 0.75851 0.47318 0.0
C843 C 0.57969 0.74371 0.50629 0.0
C844 C 0.55589 0.74597 0.52152 0.0
C845 C 0.43347 0.81896 0.4526 0.0
C846 C 0.4296 0.80864 0.41269 0.0
C847 C 0.44508 0.80567 0.48425 0.0
C848 C 0.45337 0.78189 0.47642 0.0
C849 C 0.44805 0.77093 0.43738 0.0
C850 C 0.43595 0.78418 0.40577 0.0
C851 C 0.47113 0.77093 0.50629 0.0
C852 C 0.49501 0.76711 0.49184 0.0
C853 C 0.46627 0.76984 0.55013 0.0
C854 C 0.44099 0.77174 0.56668 0.0
C855 C 0.42233 0.75724 0.5495 0.0
C856 C 0.39849 0.75916 0.5647 0.0
C857 C 0.39306 0.7755 0.59717 0.0
C858 C 0.41146 0.78995 0.61451 0.0
C859 C 0.43533 0.78811 0.59943 0.0
H860 H 0.37459 0.77697 0.60888 0.0
H861 H 0.60615 0.75674 0.46145 0.0
H862 H 0.20939 0.58169 0.89685 0.0
H863 H 0.22344 0.55973 0.83376 0.0
H864 H 0.2228 0.49236 0.90416 0.0
H865 H 0.2092 0.51415 0.96666 0.0
H866 H 0.25389 0.48866 0.83781 0.0
H867 H 0.16924 0.51499 0.86533 0.0
H868 H 0.13825 0.54678 0.87778 0.0
H869 H 0.15787 0.58163 0.76109 0.0
H870 H 0.18921 0.55015 0.74832 0.0
H871 H 0.15096 0.42411 0.71244 0.0
H872 H 0.16955 0.44897 0.76745 0.0
H873 H 0.23492 0.4557 0.69262 0.0
H874 H 0.21642 0.43011 0.63758 0.0
H875 H 0.17986 0.49569 0.74876 0.0
H876 H 0.28143 0.47397 0.76756 0.0
H877 H 0.30974 0.43922 0.76124 0.0
H878 H 0.25183 0.38967 0.79197 0.0
H879 H 0.22328 0.42414 0.79899 0.0
C880 C 0.21353 0.56244 0.89924 0.0
C881 C 0.20781 0.54943 0.93609 0.0
C882 C 0.22151 0.54988 0.86323 0.0
C883 C 0.22356 0.5243 0.86401 0.0
C884 C 0.22126 0.51203 0.90264 0.0
C885 C 0.21329 0.52448 0.93833 0.0
C886 C 0.22157 0.50969 0.82476 0.0
C887 C 0.23803 0.49049 0.81759 0.0
C888 C 0.20066 0.51176 0.79882 0.0
C889 C 0.18168 0.53046 0.80614 0.0
C890 C 0.16697 0.5295 0.84245 0.0
C891 C 0.14937 0.54745 0.84956 0.0
C892 C 0.14614 0.56625 0.82029 0.0
C893 C 0.16045 0.56709 0.78378 0.0
C894 C 0.17813 0.54923 0.7766 0.0
C895 C 0.16962 0.43012 0.70842 0.0
C896 C 0.18223 0.42533 0.67082 0.0
C897 C 0.18018 0.44446 0.73969 0.0
C898 C 0.20343 0.45456 0.73374 0.0
C899 C 0.21696 0.44808 0.69782 0.0
C900 C 0.20645 0.43335 0.66656 0.0
C901 C 0.21166 0.47408 0.76275 0.0
C902 C 0.19628 0.49429 0.76773 0.0
C903 C 0.23322 0.47249 0.78703 0.0
C904 C 0.25017 0.45161 0.78318 0.0
C905 C 0.27476 0.45566 0.77299 0.0
C906 C 0.29085 0.43601 0.76931 0.0
C907 C 0.28256 0.41224 0.77601 0.0
C908 C 0.25819 0.40808 0.78656 0.0
C909 C 0.24204 0.42766 0.79031 0.0
H910 H 0.29504 0.39706 0.77314 0.0
H911 H 0.1325 0.58014 0.82584 0.0
loop_
_geom_bond_atom_site_label_1
_geom_bond_atom_site_label_2
_geom_bond_distance
_geom_bond_site_symmetry_2
_ccdc_geom_bond_type
Zn0 O3 2.031 . S
Zn0 O5 2.049 . S
Zn0 O10 2.067 . S
Zn1 O2 1.962 . S
Zn1 O4 1.986 . S
Zn1 O6 1.996 . S
Zn1 O9 1.943 . S
O2 Zn1 1.962 . S
O2 C7 1.254 . S
O3 Zn0 2.031 . S
O3 C7 1.269 . S
O4 Zn1 1.986 . S
O4 C11 1.262 . S
O5 Zn0 2.049 . S
O5 C13 1.260 . S
O6 Zn1 1.996 . S
O6 C13 1.257 . S
C7 O2 1.254 . S
C7 O3 1.269 . S
C8 O9 1.249 . S
C8 O10 1.270 . S
O9 Zn1 1.943 . S
O9 C8 1.249 . S
O10 Zn0 2.067 . S
O10 C8 1.270 . S
C11 O4 1.262 . S
C11 O12 1.232 . S
O12 C11 1.232 . S
C13 O5 1.260 . S
C13 O6 1.257 . S
Zn14 O17 2.031 . S
Zn14 O19 2.049 . S
Zn14 O24 2.067 . S
Zn15 O16 1.962 . S
Zn15 O18 1.986 . S
Zn15 O20 1.996 . S
Zn15 O23 1.943 . S
O16 Zn15 1.962 . S
O16 C21 1.254 . S
O17 Zn14 2.031 . S
O17 C21 1.269 . S
O18 Zn15 1.986 . S
O18 C25 1.262 . S
O19 Zn14 2.049 . S
O19 C27 1.260 . S
O20 Zn15 1.996 . S
O20 C27 1.257 . S
C21 O16 1.254 . S
C21 O17 1.269 . S
C22 O23 1.249 . S
C22 O24 1.270 . S
O23 Zn15 1.943 . S
O23 C22 1.249 . S
O24 Zn14 2.067 . S
O24 C22 1.270 . S
C25 O18 1.262 . S
C25 O26 1.232 . S
O26 C25 1.232 . S
C27 O19 1.260 . S
C27 O20 1.257 . S
Zn28 O31 2.031 . S
Zn28 O33 2.049 . S
Zn28 O38 2.067 . S
Zn29 O30 1.962 . S
Zn29 O32 1.986 . S
Zn29 O34 1.996 . S
Zn29 O37 1.943 . S
O30 Zn29 1.962 . S
O30 C35 1.254 . S
O31 Zn28 2.031 . S
O31 C35 1.269 . S
O32 Zn29 1.986 . S
O32 C39 1.262 . S
O33 Zn28 2.049 . S
O33 C41 1.260 . S
O34 Zn29 1.996 . S
O34 C41 1.257 . S
C35 O30 1.254 . S
C35 O31 1.269 . S
C36 O37 1.249 . S
C36 O38 1.270 . S
O37 Zn29 1.943 . S
O37 C36 1.249 . S
O38 Zn28 2.067 . S
O38 C36 1.270 . S
C39 O32 1.262 . S
C39 O40 1.232 . S
O40 C39 1.232 . S
C41 O33 1.260 . S
C41 O34 1.257 . S
Zn42 O45 2.031 1_554 S
Zn42 O47 2.049 . S
Zn42 O52 2.067 . S
Zn43 O44 1.962 1_554 S
Zn43 O46 1.986 . S
Zn43 O48 1.996 . S
Zn43 O51 1.943 . S
O44 Zn43 1.962 1_556 S
O44 C49 1.254 . S
O45 Zn42 2.031 1_556 S
O45 C49 1.269 . S
O46 Zn43 1.986 . S
O46 C53 1.262 . S
O47 Zn42 2.049 . S
O47 C55 1.260 . S
O48 Zn43 1.996 . S
O48 C55 1.257 . S
C49 O44 1.254 . S
C49 O45 1.269 . S
C50 O51 1.249 . S
C50 O52 1.270 . S
O51 Zn43 1.943 . S
O51 C50 1.249 . S
O52 Zn42 2.067 . S
O52 C50 1.270 . S
C53 O46 1.262 . S
C53 O54 1.232 . S
O54 C53 1.232 . S
C55 O47 1.260 . S
C55 O48 1.257 . S
Zn56 O59 2.031 . S
Zn56 O61 2.049 . S
Zn56 O66 2.067 . S
Zn57 O58 1.962 . S
Zn57 O60 1.986 . S
Zn57 O62 1.996 . S
Zn57 O65 1.943 . S
O58 Zn57 1.962 . S
O58 C63 1.254 . S
O59 Zn56 2.031 . S
O59 C63 1.269 . S
O60 Zn57 1.986 . S
O60 C67 1.262 . S
O61 Zn56 2.049 . S
O61 C69 1.260 . S
O62 Zn57 1.996 . S
O62 C69 1.257 . S
C63 O58 1.254 . S
C63 O59 1.269 . S
C64 O65 1.249 . S
C64 O66 1.270 . S
O65 Zn57 1.943 . S
O65 C64 1.249 . S
O66 Zn56 2.067 . S
O66 C64 1.270 . S
C67 O60 1.262 . S
C67 O68 1.232 . S
O68 C67 1.232 . S
C69 O61 1.260 . S
C69 O62 1.257 . S
Zn70 O73 2.031 . S
Zn70 O75 2.049 . S
Zn70 O80 2.067 . S
Zn71 O72 1.962 . S
Zn71 O74 1.986 . S
Zn71 O76 1.996 . S
Zn71 O79 1.943 . S
O72 Zn71 1.962 . S
O72 C77 1.254 . S
O73 Zn70 2.031 . S
O73 C77 1.269 . S
O74 Zn71 1.986 . S
O74 C81 1.262 . S
O75 Zn70 2.049 . S
O75 C83 1.260 . S
O76 Zn71 1.996 . S
O76 C83 1.257 . S
C77 O72 1.254 . S
C77 O73 1.269 . S
C78 O79 1.249 . S
C78 O80 1.270 . S
O79 Zn71 1.943 . S
O79 C78 1.249 . S
O80 Zn70 2.067 . S
O80 C78 1.270 . S
C81 O74 1.262 . S
C81 O82 1.232 . S
O82 C81 1.232 . S
C83 O75 1.260 . S
C83 O76 1.257 . S
Zn84 O87 2.031 . S
Zn84 O89 2.049 . S
Zn84 O94 2.067 . S
Zn85 O86 1.962 . S
Zn85 O88 1.986 . S
Zn85 O90 1.996 . S
Zn85 O93 1.943 . S
O86 Zn85 1.962 . S
O86 C91 1.254 . S
O87 Zn84 2.031 . S
O87 C91 1.269 . S
O88 Zn85 1.986 . S
O88 C95 1.262 . S
O89 Zn84 2.049 . S
O89 C97 1.260 . S
O90 Zn85 1.996 . S
O90 C97 1.257 . S
C91 O86 1.254 . S
C91 O87 1.269 . S
C92 O93 1.249 . S
C92 O94 1.270 . S
O93 Zn85 1.943 . S
O93 C92 1.249 . S
O94 Zn84 2.067 . S
O94 C92 1.270 . S
C95 O88 1.262 . S
C95 O96 1.232 . S
O96 C95 1.232 . S
C97 O89 1.260 . S
C97 O90 1.257 . S
Zn98 O101 2.031 . S
Zn98 O103 2.049 1_554 S
Zn98 O108 2.067 . S
Zn99 O100 1.962 . S
Zn99 O102 1.986 1_554 S
Zn99 O104 1.996 1_554 S
Zn99 O107 1.943 . S
O100 Zn99 1.962 . S
O100 C105 1.254 . S
O101 Zn98 2.031 . S
O101 C105 1.269 . S
O102 Zn99 1.986 1_556 S
O102 C109 1.262 1_556 S
O103 Zn98 2.049 1_556 S
O103 C111 1.260 . S
O104 Zn99 1.996 1_556 S
O104 C111 1.257 . S
C105 O100 1.254 . S
C105 O101 1.269 . S
C106 O107 1.249 . S
C106 O108 1.270 . S
O107 Zn99 1.943 . S
O107 C106 1.249 . S
O108 Zn98 2.067 . S
O108 C106 1.270 . S
C109 O102 1.262 1_554 S
C109 O110 1.232 . S
O110 C109 1.232 . S
C111 O103 1.260 . S
C111 O104 1.257 . S
H112 C130 0.951 . S
H113 C132 0.951 . S
H114 C134 0.950 . S
H115 C135 0.950 . S
H116 C137 0.950 . S
H117 C140 0.950 . S
H118 C141 0.950 . S
H119 C143 0.950 . S
H120 C144 0.950 . S
H121 C145 0.951 . S
H122 C147 0.951 . S
H123 C149 0.950 . S
H124 C150 0.950 . S
H125 C152 0.950 . S
H126 C155 0.950 . S
H127 C156 0.950 . S
H128 C158 0.950 . S
H129 C159 0.950 . S
C130 H112 0.951 . S
C130 C131 1.366 . S
C130 C132 1.388 . S
C131 C130 1.366 . S
C131 C135 1.385 . S
C132 H113 0.951 . S
C132 C130 1.388 . S
C132 C133 1.366 . S
C133 C132 1.366 . S
C133 C134 1.414 . S
C133 C136 1.499 . S
C134 H114 0.950 . S
C134 C133 1.414 . S
C134 C135 1.374 . S
C135 H115 0.950 . S
C135 C131 1.385 . S
C135 C134 1.374 . S
C136 C133 1.499 . S
C136 C137 1.373 . S
C136 C138 1.389 . S
C137 H116 0.950 . S
C137 C136 1.373 . S
C137 C153 1.377 . S
C138 C136 1.389 . S
C138 C139 1.524 . S
C138 C152 1.377 . S
C139 C138 1.524 . S
C139 C140 1.397 . S
C139 C144 1.363 . S
C140 H117 0.950 . S
C140 C139 1.397 . S
C140 C141 1.334 . S
C141 H118 0.950 . S
C141 C140 1.334 . S
C141 C142 1.287 . S
C142 C141 1.287 . S
C142 C143 1.524 . S
C142 H161 0.913 . S
C143 H119 0.950 . S
C143 C142 1.524 . S
C143 C144 1.415 . S
C144 H120 0.950 . S
C144 C139 1.363 . S
C144 C143 1.415 . S
C145 H121 0.951 . S
C145 C146 1.366 . S
C145 C147 1.388 . S
C146 C145 1.366 . S
C146 C150 1.385 . S
C147 H122 0.951 . S
C147 C145 1.388 . S
C147 C148 1.366 . S
C148 C147 1.366 . S
C148 C149 1.414 . S
C148 C151 1.499 . S
C149 H123 0.950 . S
C149 C148 1.414 . S
C149 C150 1.374 . S
C150 H124 0.950 . S
C150 C146 1.385 . S
C150 C149 1.374 . S
C151 C148 1.499 . S
C151 C152 1.373 . S
C151 C153 1.389 . S
C152 H125 0.950 . S
C152 C138 1.377 . S
C152 C151 1.373 . S
C153 C137 1.377 . S
C153 C151 1.389 . S
C153 C154 1.524 . S
C154 C153 1.524 . S
C154 C155 1.397 . S
C154 C159 1.363 . S
C155 H126 0.950 . S
C155 C154 1.397 . S
C155 C156 1.334 . S
C156 H127 0.950 . S
C156 C155 1.334 . S
C156 C157 1.287 . S
C157 C156 1.287 . S
C157 C158 1.524 . S
C157 H160 0.999 . S
C158 H128 0.950 . S
C158 C157 1.524 . S
C158 C159 1.415 . S
C159 H129 0.950 . S
C159 C154 1.363 . S
C159 C158 1.415 . S
H160 C157 0.999 . S
H161 C142 0.913 . S
H162 C180 0.951 . S
H163 C182 0.951 . S
H164 C184 0.950 . S
H165 C185 0.950 . S
H166 C187 0.950 . S
H167 C190 0.950 . S
H168 C191 0.950 . S
H169 C193 0.950 . S
H170 C194 0.950 . S
H171 C195 0.951 . S
H172 C197 0.951 . S
H173 C199 0.950 . S
H174 C200 0.950 . S
H175 C202 0.950 . S
H176 C205 0.950 . S
H177 C206 0.950 . S
H178 C208 0.950 . S
H179 C209 0.950 . S
C180 H162 0.951 . S
C180 C181 1.366 . S
C180 C182 1.388 . S
C181 C180 1.366 . S
C181 C185 1.385 . S
C182 H163 0.951 . S
C182 C180 1.388 . S
C182 C183 1.366 . S
C183 C182 1.366 . S
C183 C184 1.414 . S
C183 C186 1.499 . S
C184 H164 0.950 . S
C184 C183 1.414 . S
C184 C185 1.374 . S
C185 H165 0.950 . S
C185 C181 1.385 . S
C185 C184 1.374 . S
C186 C183 1.499 . S
C186 C187 1.373 . S
C186 C188 1.389 . S
C187 H166 0.950 . S
C187 C186 1.373 . S
C187 C203 1.377 . S
C188 C186 1.389 . S
C188 C189 1.524 . S
C188 C202 1.377 . S
C189 C188 1.524 . S
C189 C190 1.397 . S
C189 C194 1.363 . S
C190 H167 0.950 . S
C190 C189 1.397 . S
C190 C191 1.334 . S
C191 H168 0.950 . S
C191 C190 1.334 . S
C191 C192 1.287 . S
C192 C191 1.287 . S
C192 C193 1.524 . S
C192 H211 0.913 . S
C193 H169 0.950 . S
C193 C192 1.524 . S
C193 C194 1.415 . S
C194 H170 0.950 . S
C194 C189 1.363 . S
C194 C193 1.415 . S
C195 H171 0.951 . S
C195 C196 1.366 . S
C195 C197 1.388 . S
C196 C195 1.366 . S
C196 C200 1.385 . S
C197 H172 0.951 . S
C197 C195 1.388 . S
C197 C198 1.366 . S
C198 C197 1.366 . S
C198 C199 1.414 . S
C198 C201 1.499 . S
C199 H173 0.950 . S
C199 C198 1.414 . S
C199 C200 1.374 . S
C200 H174 0.950 . S
C200 C196 1.385 . S
C200 C199 1.374 . S
C201 C198 1.499 . S
C201 C202 1.373 . S
C201 C203 1.389 . S
C202 H175 0.950 . S
C202 C188 1.377 . S
C202 C201 1.373 . S
C203 C187 1.377 . S
C203 C201 1.389 . S
C203 C204 1.524 . S
C204 C203 1.524 . S
C204 C205 1.397 . S
C204 C209 1.363 . S
C205 H176 0.950 . S
C205 C204 1.397 . S
C205 C206 1.334 . S
C206 H177 0.950 . S
C206 C205 1.334 . S
C206 C207 1.287 . S
C207 C206 1.287 . S
C207 C208 1.524 . S
C207 H210 0.999 . S
C208 H178 0.950 . S
C208 C207 1.524 . S
C208 C209 1.415 . S
C209 H179 0.950 . S
C209 C204 1.363 . S
C209 C208 1.415 . S
H210 C207 0.999 . S
H211 C192 0.913 . S
H212 C230 0.951 . S
H213 C232 0.951 . S
H214 C234 0.950 . S
H215 C235 0.950 . S
H216 C237 0.950 . S
H217 C240 0.950 . S
H218 C241 0.950 . S
H219 C243 0.950 1_556 S
H220 C244 0.950 1_556 S
H221 C245 0.951 . S
H222 C247 0.951 . S
H223 C249 0.950 . S
H224 C250 0.950 . S
H225 C252 0.953 . S
H226 C255 0.950 . S
H227 C256 0.950 . S
H228 C258 0.950 . S
H229 C259 0.950 . S
C230 H212 0.951 . S
C230 C231 1.366 . S
C230 C232 1.388 . S
C231 C230 1.366 . S
C231 C235 1.385 . S
C232 H213 0.951 . S
C232 C230 1.388 . S
C232 C233 1.366 . S
C233 C232 1.366 . S
C233 C234 1.414 . S
C233 C236 1.499 . S
C234 H214 0.950 . S
C234 C233 1.414 . S
C234 C235 1.374 . S
C235 H215 0.950 . S
C235 C231 1.385 . S
C235 C234 1.374 . S
C236 C233 1.499 . S
C236 C237 1.373 . S
C236 C238 1.389 . S
C237 H216 0.950 . S
C237 C236 1.373 . S
C237 C253 1.377 . S
C238 C236 1.389 . S
C238 C239 1.524 . S
C238 C252 1.373 1_554 S
C239 C238 1.524 . S
C239 C240 1.397 . S
C239 C244 1.363 . S
C240 H217 0.950 . S
C240 C239 1.397 . S
C240 C241 1.334 . S
C241 H218 0.950 . S
C241 C240 1.334 . S
C241 C242 1.287 . S
C242 C241 1.287 . S
C242 C243 1.524 . S
C242 H261 0.913 . S
C243 H219 0.950 1_554 S
C243 C242 1.524 . S
C243 C244 1.415 . S
C244 H220 0.950 1_554 S
C244 C239 1.363 . S
C244 C243 1.415 . S
C245 H221 0.951 . S
C245 C246 1.366 . S
C245 C247 1.388 . S
C246 C245 1.366 . S
C246 C250 1.385 . S
C247 H222 0.951 . S
C247 C245 1.388 . S
C247 C248 1.366 . S
C248 C247 1.366 . S
C248 C249 1.414 . S
C248 C251 1.499 . S
C249 H223 0.950 . S
C249 C248 1.414 . S
C249 C250 1.374 . S
C250 H224 0.950 . S
C250 C246 1.385 . S
C250 C249 1.374 . S
C251 C248 1.499 . S
C251 C252 1.374 . S
C251 C253 1.389 1_556 S
C252 H225 0.953 . S
C252 C238 1.373 1_556 S
C252 C251 1.374 . S
C253 C237 1.377 . S
C253 C251 1.389 1_554 S
C253 C254 1.524 . S
C254 C253 1.524 . S
C254 C255 1.397 1_554 S
C254 C259 1.363 . S
C255 H226 0.950 . S
C255 C254 1.397 1_556 S
C255 C256 1.334 . S
C256 H227 0.950 . S
C256 C255 1.334 . S
C256 C257 1.276 1_556 S
C257 C256 1.276 1_554 S
C257 C258 1.537 . S
C257 H260 0.997 1_554 S
C258 H228 0.950 . S
C258 C257 1.537 . S
C258 C259 1.415 . S
C259 H229 0.950 . S
C259 C254 1.363 . S
C259 C258 1.415 . S
H260 C257 0.997 1_556 S
H261 C242 0.913 . S
H262 C280 0.951 . S
H263 C282 0.951 . S
H264 C284 0.950 . S
H265 C285 0.950 . S
H266 C287 0.950 . S
H267 C290 0.950 . S
H268 C291 0.950 . S
H269 C293 0.950 . S
H270 C294 0.950 . S
H271 C295 0.951 . S
H272 C297 0.951 . S
H273 C299 0.950 . S
H274 C300 0.950 . S
H275 C302 0.950 . S
H276 C305 0.950 . S
H277 C306 0.950 . S
H278 C308 0.950 . S
H279 C309 0.950 . S
C280 H262 0.951 . S
C280 C281 1.366 . S
C280 C282 1.388 . S
C281 C280 1.366 . S
C281 C285 1.385 . S
C282 H263 0.951 . S
C282 C280 1.388 . S
C282 C283 1.366 . S
C283 C282 1.366 . S
C283 C284 1.414 . S
C283 C286 1.499 . S
C284 H264 0.950 . S
C284 C283 1.414 . S
C284 C285 1.374 . S
C285 H265 0.950 . S
C285 C281 1.385 . S
C285 C284 1.374 . S
C286 C283 1.499 . S
C286 C287 1.373 . S
C286 C288 1.389 . S
C287 H266 0.950 . S
C287 C286 1.373 . S
C287 C303 1.377 . S
C288 C286 1.389 . S
C288 C289 1.524 . S
C288 C302 1.377 . S
C289 C288 1.524 . S
C289 C290 1.397 . S
C289 C294 1.363 . S
C290 H267 0.950 . S
C290 C289 1.397 . S
C290 C291 1.334 . S
C291 H268 0.950 . S
C291 C290 1.334 . S
C291 C292 1.287 . S
C292 C291 1.287 . S
C292 C293 1.524 . S
C292 H311 0.913 . S
C293 H269 0.950 . S
C293 C292 1.524 . S
C293 C294 1.415 . S
C294 H270 0.950 . S
C294 C289 1.363 . S
C294 C293 1.415 . S
C295 H271 0.951 . S
C295 C296 1.366 . S
C295 C297 1.388 . S
C296 C295 1.366 . S
C296 C300 1.385 . S
C297 H272 0.951 . S
C297 C295 1.388 . S
C297 C298 1.366 . S
C298 C297 1.366 . S
C298 C299 1.414 . S
C298 C301 1.499 . S
C299 H273 0.950 . S
C299 C298 1.414 . S
C299 C300 1.374 . S
C300 H274 0.950 . S
C300 C296 1.385 . S
C300 C299 1.374 . S
C301 C298 1.499 . S
C301 C302 1.373 . S
C301 C303 1.389 . S
C302 H275 0.950 . S
C302 C288 1.377 . S
C302 C301 1.373 . S
C303 C287 1.377 . S
C303 C301 1.389 . S
C303 C304 1.524 . S
C304 C303 1.524 . S
C304 C305 1.397 . S
C304 C309 1.363 . S
C305 H276 0.950 . S
C305 C304 1.397 . S
C305 C306 1.334 . S
C306 H277 0.950 . S
C306 C305 1.334 . S
C306 C307 1.287 . S
C307 C306 1.287 . S
C307 C308 1.524 . S
C307 H310 0.999 . S
C308 H278 0.950 . S
C308 C307 1.524 . S
C308 C309 1.415 . S
C309 H279 0.950 . S
C309 C304 1.363 . S
C309 C308 1.415 . S
H310 C307 0.999 . S
H311 C292 0.913 . S
H312 C330 0.951 . S
H313 C332 0.951 . S
H314 C334 0.950 . S
H315 C335 0.950 . S
H316 C337 0.950 . S
H317 C340 0.950 . S
H318 C341 0.950 . S
H319 C343 0.950 . S
H320 C344 0.950 . S
H321 C345 0.951 . S
H322 C347 0.951 . S
H323 C349 0.950 . S
H324 C350 0.950 . S
H325 C352 0.950 . S
H326 C355 0.950 . S
H327 C356 0.950 . S
H328 C358 0.950 . S
H329 C359 0.950 . S
C330 H312 0.951 . S
C330 C331 1.366 . S
C330 C332 1.388 . S
C331 C330 1.366 . S
C331 C335 1.385 . S
C332 H313 0.951 . S
C332 C330 1.388 . S
C332 C333 1.366 . S
C333 C332 1.366 . S
C333 C334 1.414 . S
C333 C336 1.499 . S
C334 H314 0.950 . S
C334 C333 1.414 . S
C334 C335 1.374 . S
C335 H315 0.950 . S
C335 C331 1.385 . S
C335 C334 1.374 . S
C336 C333 1.499 . S
C336 C337 1.373 . S
C336 C338 1.389 . S
C337 H316 0.950 . S
C337 C336 1.373 . S
C337 C353 1.377 . S
C338 C336 1.389 . S
C338 C339 1.524 . S
C338 C352 1.377 . S
C339 C338 1.524 . S
C339 C340 1.397 . S
C339 C344 1.363 . S
C340 H317 0.950 . S
C340 C339 1.397 . S
C340 C341 1.334 . S
C341 H318 0.950 . S
C341 C340 1.334 . S
C341 C342 1.287 . S
C342 C341 1.287 . S
C342 C343 1.524 . S
C342 H361 0.913 . S
C343 H319 0.950 . S
C343 C342 1.524 . S
C343 C344 1.415 . S
C344 H320 0.950 . S
C344 C339 1.363 . S
C344 C343 1.415 . S
C345 H321 0.951 . S
C345 C346 1.366 . S
C345 C347 1.388 . S
C346 C345 1.366 . S
C346 C350 1.385 . S
C347 H322 0.951 . S
C347 C345 1.388 . S
C347 C348 1.366 . S
C348 C347 1.366 . S
C348 C349 1.414 . S
C348 C351 1.499 . S
C349 H323 0.950 . S
C349 C348 1.414 . S
C349 C350 1.374 . S
C350 H324 0.950 . S
C350 C346 1.385 . S
C350 C349 1.374 . S
C351 C348 1.499 . S
C351 C352 1.373 . S
C351 C353 1.389 . S
C352 H325 0.950 . S
C352 C338 1.377 . S
C352 C351 1.373 . S
C353 C337 1.377 . S
C353 C351 1.389 . S
C353 C354 1.524 . S
C354 C353 1.524 . S
C354 C355 1.397 . S
C354 C359 1.363 . S
C355 H326 0.950 . S
C355 C354 1.397 . S
C355 C356 1.334 . S
C356 H327 0.950 . S
C356 C355 1.334 . S
C356 C357 1.287 . S
C357 C356 1.287 . S
C357 C358 1.524 . S
C357 H360 0.999 . S
C358 H328 0.950 . S
C358 C357 1.524 . S
C358 C359 1.415 . S
C359 H329 0.950 . S
C359 C354 1.363 . S
C359 C358 1.415 . S
H360 C357 0.999 . S
H361 C342 0.913 . S
H362 C380 0.951 . S
H363 C382 0.951 . S
H364 C384 0.950 . S
H365 C385 0.950 . S
H366 C387 0.950 . S
H367 C390 0.950 . S
H368 C391 0.950 . S
H369 C393 0.950 . S
H370 C394 0.950 . S
H371 C395 0.951 . S
H372 C397 0.951 . S
H373 C399 0.950 . S
H374 C400 0.950 . S
H375 C402 0.950 . S
H376 C405 0.950 . S
H377 C406 0.950 . S
H378 C408 0.950 . S
H379 C409 0.950 . S
C380 H362 0.951 . S
C380 C381 1.366 . S
C380 C382 1.388 . S
C381 C380 1.366 . S
C381 C385 1.385 . S
C382 H363 0.951 . S
C382 C380 1.388 . S
C382 C383 1.366 . S
C383 C382 1.366 . S
C383 C384 1.414 . S
C383 C386 1.499 . S
C384 H364 0.950 . S
C384 C383 1.414 . S
C384 C385 1.374 . S
C385 H365 0.950 . S
C385 C381 1.385 . S
C385 C384 1.374 . S
C386 C383 1.499 . S
C386 C387 1.373 . S
C386 C388 1.389 . S
C387 H366 0.950 . S
C387 C386 1.373 . S
C387 C403 1.377 . S
C388 C386 1.389 . S
C388 C389 1.524 . S
C388 C402 1.377 . S
C389 C388 1.524 . S
C389 C390 1.397 . S
C389 C394 1.363 . S
C390 H367 0.950 . S
C390 C389 1.397 . S
C390 C391 1.334 . S
C391 H368 0.950 . S
C391 C390 1.334 . S
C391 C392 1.287 . S
C392 C391 1.287 . S
C392 C393 1.524 . S
C392 H411 0.913 . S
C393 H369 0.950 . S
C393 C392 1.524 . S
C393 C394 1.415 . S
C394 H370 0.950 . S
C394 C389 1.363 . S
C394 C393 1.415 . S
C395 H371 0.951 . S
C395 C396 1.366 . S
C395 C397 1.388 . S
C396 C395 1.366 . S
C396 C400 1.385 . S
C397 H372 0.951 . S
C397 C395 1.388 . S
C397 C398 1.366 . S
C398 C397 1.366 . S
C398 C399 1.414 . S
C398 C401 1.499 . S
C399 H373 0.950 . S
C399 C398 1.414 . S
C399 C400 1.374 . S
C400 H374 0.950 . S
C400 C396 1.385 . S
C400 C399 1.374 . S
C401 C398 1.499 . S
C401 C402 1.373 . S
C401 C403 1.389 . S
C402 H375 0.950 . S
C402 C388 1.377 . S
C402 C401 1.373 . S
C403 C387 1.377 . S
C403 C401 1.389 . S
C403 C404 1.524 . S
C404 C403 1.524 . S
C404 C405 1.397 . S
C404 C409 1.363 . S
C405 H376 0.950 . S
C405 C404 1.397 . S
C405 C406 1.334 . S
C406 H377 0.950 . S
C406 C405 1.334 . S
C406 C407 1.287 . S
C407 C406 1.287 . S
C407 C408 1.524 . S
C407 H410 0.999 . S
C408 H378 0.950 . S
C408 C407 1.524 . S
C408 C409 1.415 . S
C409 H379 0.950 . S
C409 C404 1.363 . S
C409 C408 1.415 . S
H410 C407 0.999 . S
H411 C392 0.913 . S
H412 C430 0.951 . S
H413 C432 0.951 . S
H414 C434 0.950 . S
H415 C435 0.950 . S
H416 C437 0.950 . S
H417 C440 0.950 . S
H418 C441 0.947 1_554 S
H419 C443 0.950 . S
H420 C444 0.950 . S
H421 C445 0.951 . S
H422 C447 0.951 . S
H423 C449 0.950 . S
H424 C450 0.950 . S
H425 C452 0.950 . S
H426 C455 0.950 . S
H427 C456 0.950 . S
H428 C458 0.950 . S
H429 C459 0.950 . S
C430 H412 0.951 . S
C430 C431 1.366 . S
C430 C432 1.388 . S
C431 C430 1.366 . S
C431 C435 1.385 1_556 S
C432 H413 0.951 . S
C432 C430 1.388 . S
C432 C433 1.366 . S
C433 C432 1.366 . S
C433 C434 1.414 . S
C433 C436 1.499 . S
C434 H414 0.950 . S
C434 C433 1.414 . S
C434 C435 1.374 1_556 S
C435 H415 0.950 . S
C435 C431 1.385 1_554 S
C435 C434 1.374 1_554 S
C436 C433 1.499 . S
C436 C437 1.373 . S
C436 C438 1.389 . S
C437 H416 0.950 . S
C437 C436 1.373 . S
C437 C453 1.377 . S
C438 C436 1.389 . S
C438 C439 1.524 . S
C438 C452 1.377 . S
C439 C438 1.524 . S
C439 C440 1.397 . S
C439 C444 1.363 . S
C440 H417 0.950 . S
C440 C439 1.397 . S
C440 C441 1.336 . S
C441 H418 0.947 1_556 S
C441 C440 1.336 . S
C441 C442 1.289 . S
C442 C441 1.289 . S
C442 C443 1.524 . S
C442 H461 0.913 . S
C443 H419 0.950 . S
C443 C442 1.524 . S
C443 C444 1.415 . S
C444 H420 0.950 . S
C444 C439 1.363 . S
C444 C443 1.415 . S
C445 H421 0.951 . S
C445 C446 1.366 . S
C445 C447 1.388 . S
C446 C445 1.366 . S
C446 C450 1.385 . S
C447 H422 0.951 . S
C447 C445 1.388 . S
C447 C448 1.366 . S
C448 C447 1.366 . S
C448 C449 1.414 . S
C448 C451 1.499 . S
C449 H423 0.950 . S
C449 C448 1.414 . S
C449 C450 1.374 . S
C450 H424 0.950 . S
C450 C446 1.385 . S
C450 C449 1.374 . S
C451 C448 1.499 . S
C451 C452 1.373 . S
C451 C453 1.389 . S
C452 H425 0.950 . S
C452 C438 1.377 . S
C452 C451 1.373 . S
C453 C437 1.377 . S
C453 C451 1.389 . S
C453 C454 1.524 . S
C454 C453 1.524 . S
C454 C455 1.397 . S
C454 C459 1.363 . S
C455 H426 0.950 . S
C455 C454 1.397 . S
C455 C456 1.334 . S
C456 H427 0.950 . S
C456 C455 1.334 . S
C456 C457 1.287 . S
C457 C456 1.287 . S
C457 C458 1.524 . S
C457 H460 0.999 . S
C458 H428 0.950 . S
C458 C457 1.524 . S
C458 C459 1.415 . S
C459 H429 0.950 . S
C459 C454 1.363 . S
C459 C458 1.415 . S
H460 C457 0.999 . S
H461 C442 0.913 . S
H462 C480 0.951 . S
H463 C482 0.951 . S
H464 C484 0.950 . S
H465 C485 0.950 . S
H466 C487 0.950 . S
H467 C490 0.950 . S
H468 C491 0.950 . S
H469 C493 0.950 . S
H470 C494 0.950 . S
H471 C495 0.951 . S
H472 C497 0.951 . S
H473 C499 0.950 . S
H474 C500 0.950 . S
H475 C502 0.950 . S
H476 C505 0.950 . S
H477 C506 0.950 . S
H478 C508 0.950 . S
H479 C509 0.950 . S
C480 H462 0.951 . S
C480 C481 1.366 . S
C480 C482 1.388 . S
C481 C480 1.366 . S
C481 C485 1.385 . S
C482 H463 0.951 . S
C482 C480 1.388 . S
C482 C483 1.366 . S
C483 C482 1.366 . S
C483 C484 1.414 . S
C483 C486 1.499 . S
C484 H464 0.950 . S
C484 C483 1.414 . S
C484 C485 1.374 . S
C485 H465 0.950 . S
C485 C481 1.385 . S
C485 C484 1.374 . S
C486 C483 1.499 . S
C486 C487 1.373 . S
C486 C488 1.389 . S
C487 H466 0.950 . S
C487 C486 1.373 . S
C487 C503 1.377 . S
C488 C486 1.389 . S
C488 C489 1.524 . S
C488 C502 1.377 . S
C489 C488 1.524 . S
C489 C490 1.397 . S
C489 C494 1.363 . S
C490 H467 0.950 . S
C490 C489 1.397 . S
C490 C491 1.334 . S
C491 H468 0.950 . S
C491 C490 1.334 . S
C491 C492 1.287 . S
C492 C491 1.287 . S
C492 C493 1.524 . S
C492 H511 0.913 . S
C493 H469 0.950 . S
C493 C492 1.524 . S
C493 C494 1.415 . S
C494 H470 0.950 . S
C494 C489 1.363 . S
C494 C493 1.415 . S
C495 H471 0.951 . S
C495 C496 1.366 . S
C495 C497 1.388 . S
C496 C495 1.366 . S
C496 C500 1.385 . S
C497 H472 0.951 . S
C497 C495 1.388 . S
C497 C498 1.366 . S
C498 C497 1.366 . S
C498 C499 1.414 . S
C498 C501 1.499 . S
C499 H473 0.950 . S
C499 C498 1.414 . S
C499 C500 1.374 . S
C500 H474 0.950 . S
C500 C496 1.385 . S
C500 C499 1.374 . S
C501 C498 1.499 . S
C501 C502 1.373 . S
C501 C503 1.389 . S
C502 H475 0.950 . S
C502 C488 1.377 . S
C502 C501 1.373 . S
C503 C487 1.377 . S
C503 C501 1.389 . S
C503 C504 1.524 . S
C504 C503 1.524 . S
C504 C505 1.397 . S
C504 C509 1.363 . S
C505 H476 0.950 . S
C505 C504 1.397 . S
C505 C506 1.334 . S
C506 H477 0.950 . S
C506 C505 1.334 . S
C506 C507 1.287 . S
C507 C506 1.287 . S
C507 C508 1.524 . S
C507 H510 0.999 . S
C508 H478 0.950 . S
C508 C507 1.524 . S
C508 C509 1.415 . S
C509 H479 0.950 . S
C509 C504 1.363 . S
C509 C508 1.415 . S
H510 C507 0.999 . S
H511 C492 0.913 . S
H512 C530 0.951 . S
H513 C532 0.951 . S
H514 C534 0.950 . S
H515 C535 0.950 . S
H516 C537 0.950 . S
H517 C540 0.950 . S
H518 C541 0.950 . S
H519 C543 0.950 . S
H520 C544 0.950 . S
H521 C545 0.951 . S
H522 C547 0.951 . S
H523 C549 0.950 . S
H524 C550 0.950 . S
H525 C552 0.950 . S
H526 C555 0.950 . S
H527 C556 0.950 . S
H528 C558 0.950 . S
H529 C559 0.950 . S
C530 H512 0.951 . S
C530 C531 1.366 . S
C530 C532 1.388 . S
C531 C530 1.366 . S
C531 C535 1.385 . S
C532 H513 0.951 . S
C532 C530 1.388 . S
C532 C533 1.366 . S
C533 C532 1.366 . S
C533 C534 1.414 . S
C533 C536 1.499 . S
C534 H514 0.950 . S
C534 C533 1.414 . S
C534 C535 1.374 . S
C535 H515 0.950 . S
C535 C531 1.385 . S
C535 C534 1.374 . S
C536 C533 1.499 . S
C536 C537 1.373 . S
C536 C538 1.389 . S
C537 H516 0.950 . S
C537 C536 1.373 . S
C537 C553 1.377 1_565 S
C538 C536 1.389 . S
C538 C539 1.524 . S
C538 C552 1.377 1_565 S
C539 C538 1.524 . S
C539 C540 1.397 . S
C539 C544 1.363 . S
C540 H517 0.950 . S
C540 C539 1.397 . S
C540 C541 1.334 . S
C541 H518 0.950 . S
C541 C540 1.334 . S
C541 C542 1.287 . S
C542 C541 1.287 . S
C542 C543 1.524 . S
C542 H561 0.913 . S
C543 H519 0.950 . S
C543 C542 1.524 . S
C543 C544 1.415 . S
C544 H520 0.950 . S
C544 C539 1.363 . S
C544 C543 1.415 . S
C545 H521 0.951 . S
C545 C546 1.366 . S
C545 C547 1.388 . S
C546 C545 1.366 . S
C546 C550 1.385 . S
C547 H522 0.951 . S
C547 C545 1.388 . S
C547 C548 1.366 . S
C548 C547 1.366 . S
C548 C549 1.414 . S
C548 C551 1.499 . S
C549 H523 0.950 . S
C549 C548 1.414 . S
C549 C550 1.374 . S
C550 H524 0.950 . S
C550 C546 1.385 . S
C550 C549 1.374 . S
C551 C548 1.499 . S
C551 C552 1.373 . S
C551 C553 1.389 . S
C552 H525 0.950 . S
C552 C538 1.377 1_545 S
C552 C551 1.373 . S
C553 C537 1.377 1_545 S
C553 C551 1.389 . S
C553 C554 1.524 . S
C554 C553 1.524 . S
C554 C555 1.397 . S
C554 C559 1.363 . S
C555 H526 0.950 . S
C555 C554 1.397 . S
C555 C556 1.334 . S
C556 H527 0.950 . S
C556 C555 1.334 . S
C556 C557 1.287 . S
C557 C556 1.287 . S
C557 C558 1.524 . S
C557 H560 0.999 . S
C558 H528 0.950 . S
C558 C557 1.524 . S
C558 C559 1.415 . S
C559 H529 0.950 . S
C559 C554 1.363 . S
C559 C558 1.415 . S
H560 C557 0.999 . S
H561 C542 0.913 . S
H562 C580 0.951 . S
H563 C582 0.951 . S
H564 C584 0.950 . S
H565 C585 0.950 . S
H566 C587 0.950 . S
H567 C590 0.950 . S
H568 C591 0.950 . S
H569 C593 0.950 . S
H570 C594 0.950 . S
H571 C595 0.951 . S
H572 C597 0.951 . S
H573 C599 0.950 . S
H574 C600 0.950 . S
H575 C602 0.950 . S
H576 C605 0.950 . S
H577 C606 0.950 . S
H578 C608 0.950 . S
H579 C609 0.950 . S
C580 H562 0.951 . S
C580 C581 1.366 . S
C580 C582 1.388 . S
C581 C580 1.366 . S
C581 C585 1.385 . S
C582 H563 0.951 . S
C582 C580 1.388 . S
C582 C583 1.366 . S
C583 C582 1.366 . S
C583 C584 1.414 . S
C583 C586 1.499 . S
C584 H564 0.950 . S
C584 C583 1.414 . S
C584 C585 1.374 . S
C585 H565 0.950 . S
C585 C581 1.385 . S
C585 C584 1.374 . S
C586 C583 1.499 . S
C586 C587 1.373 . S
C586 C588 1.389 . S
C587 H566 0.950 . S
C587 C586 1.373 . S
C587 C603 1.377 1_655 S
C588 C586 1.389 . S
C588 C589 1.524 . S
C588 C602 1.377 1_655 S
C589 C588 1.524 . S
C589 C590 1.397 . S
C589 C594 1.363 . S
C590 H567 0.950 . S
C590 C589 1.397 . S
C590 C591 1.334 . S
C591 H568 0.950 . S
C591 C590 1.334 . S
C591 C592 1.287 . S
C592 C591 1.287 . S
C592 C593 1.524 . S
C592 H611 0.913 . S
C593 H569 0.950 . S
C593 C592 1.524 . S
C593 C594 1.415 . S
C594 H570 0.950 . S
C594 C589 1.363 . S
C594 C593 1.415 . S
C595 H571 0.951 . S
C595 C596 1.366 . S
C595 C597 1.388 . S
C596 C595 1.366 . S
C596 C600 1.385 . S
C597 H572 0.951 . S
C597 C595 1.388 . S
C597 C598 1.366 . S
C598 C597 1.366 . S
C598 C599 1.414 . S
C598 C601 1.499 . S
C599 H573 0.950 . S
C599 C598 1.414 . S
C599 C600 1.374 . S
C600 H574 0.950 . S
C600 C596 1.385 . S
C600 C599 1.374 . S
C601 C598 1.499 . S
C601 C602 1.373 . S
C601 C603 1.389 . S
C602 H575 0.950 . S
C602 C588 1.377 1_455 S
C602 C601 1.373 . S
C603 C587 1.377 1_455 S
C603 C601 1.389 . S
C603 C604 1.524 . S
C604 C603 1.524 . S
C604 C605 1.397 . S
C604 C609 1.363 . S
C605 H576 0.950 . S
C605 C604 1.397 . S
C605 C606 1.334 . S
C606 H577 0.950 . S
C606 C605 1.334 . S
C606 C607 1.287 . S
C607 C606 1.287 . S
C607 C608 1.524 . S
C607 H610 0.999 . S
C608 H578 0.950 . S
C608 C607 1.524 . S
C608 C609 1.415 . S
C609 H579 0.950 . S
C609 C604 1.363 . S
C609 C608 1.415 . S
H610 C607 0.999 . S
H611 C592 0.913 . S
H612 C630 0.951 . S
H613 C632 0.951 . S
H614 C634 0.950 . S
H615 C635 0.950 . S
H616 C637 0.950 . S
H617 C640 0.950 . S
H618 C641 0.950 . S
H619 C643 0.950 . S
H620 C644 0.950 . S
H621 C645 0.951 . S
H622 C647 0.951 . S
H623 C649 0.950 . S
H624 C650 0.950 . S
H625 C652 0.950 . S
H626 C655 0.950 . S
H627 C656 0.950 . S
H628 C658 0.950 . S
H629 C659 0.950 . S
C630 H612 0.951 . S
C630 C631 1.366 . S
C630 C632 1.388 . S
C631 C630 1.366 . S
C631 C635 1.385 . S
C632 H613 0.951 . S
C632 C630 1.388 . S
C632 C633 1.366 . S
C633 C632 1.366 . S
C633 C634 1.414 . S
C633 C636 1.499 . S
C634 H614 0.950 . S
C634 C633 1.414 . S
C634 C635 1.374 . S
C635 H615 0.950 . S
C635 C631 1.385 . S
C635 C634 1.374 . S
C636 C633 1.499 . S
C636 C637 1.373 . S
C636 C638 1.389 . S
C637 H616 0.950 . S
C637 C636 1.373 . S
C637 C653 1.377 1_565 S
C638 C636 1.389 . S
C638 C639 1.524 . S
C638 C652 1.377 1_565 S
C639 C638 1.524 . S
C639 C640 1.397 . S
C639 C644 1.363 . S
C640 H617 0.950 . S
C640 C639 1.397 . S
C640 C641 1.334 . S
C641 H618 0.950 . S
C641 C640 1.334 . S
C641 C642 1.287 . S
C642 C641 1.287 . S
C642 C643 1.524 . S
C642 H661 0.913 . S
C643 H619 0.950 . S
C643 C642 1.524 . S
C643 C644 1.415 . S
C644 H620 0.950 . S
C644 C639 1.363 . S
C644 C643 1.415 . S
C645 H621 0.951 . S
C645 C646 1.366 . S
C645 C647 1.388 . S
C646 C645 1.366 . S
C646 C650 1.385 . S
C647 H622 0.951 . S
C647 C645 1.388 . S
C647 C648 1.366 . S
C648 C647 1.366 . S
C648 C649 1.414 . S
C648 C651 1.499 . S
C649 H623 0.950 . S
C649 C648 1.414 . S
C649 C650 1.374 . S
C650 H624 0.950 . S
C650 C646 1.385 . S
C650 C649 1.374 . S
C651 C648 1.499 . S
C651 C652 1.373 . S
C651 C653 1.389 . S
C652 H625 0.950 . S
C652 C638 1.377 1_545 S
C652 C651 1.373 . S
C653 C637 1.377 1_545 S
C653 C651 1.389 . S
C653 C654 1.524 . S
C654 C653 1.524 . S
C654 C655 1.397 . S
C654 C659 1.363 . S
C655 H626 0.950 . S
C655 C654 1.397 . S
C655 C656 1.334 . S
C656 H627 0.950 . S
C656 C655 1.334 . S
C656 C657 1.287 . S
C657 C656 1.287 . S
C657 C658 1.524 . S
C657 H660 0.999 . S
C658 H628 0.950 . S
C658 C657 1.524 . S
C658 C659 1.415 . S
C659 H629 0.950 . S
C659 C654 1.363 . S
C659 C658 1.415 . S
H660 C657 0.999 . S
H661 C642 0.913 . S
H662 C680 0.951 . S
H663 C682 0.951 . S
H664 C684 0.950 . S
H665 C685 0.950 . S
H666 C687 0.950 . S
H667 C690 0.950 . S
H668 C691 0.950 . S
H669 C693 0.950 . S
H670 C694 0.950 . S
H671 C695 0.951 . S
H672 C697 0.951 . S
H673 C699 0.950 . S
H674 C700 0.950 . S
H675 C702 0.950 1_556 S
H676 C705 0.950 . S
H677 C706 0.950 . S
H678 C708 0.950 . S
H679 C709 0.950 . S
C680 H662 0.951 . S
C680 C681 1.366 . S
C680 C682 1.388 . S
C681 C680 1.366 . S
C681 C685 1.385 . S
C682 H663 0.951 . S
C682 C680 1.388 . S
C682 C683 1.366 . S
C683 C682 1.366 . S
C683 C684 1.414 . S
C683 C686 1.499 . S
C684 H664 0.950 . S
C684 C683 1.414 . S
C684 C685 1.374 . S
C685 H665 0.950 . S
C685 C681 1.385 . S
C685 C684 1.374 . S
C686 C683 1.499 . S
C686 C687 1.373 . S
C686 C688 1.389 . S
C687 H666 0.950 . S
C687 C686 1.373 . S
C687 C703 1.377 1_655 S
C688 C686 1.389 . S
C688 C689 1.524 1_554 S
C688 C702 1.377 1_655 S
C689 C688 1.524 1_556 S
C689 C690 1.397 . S
C689 C694 1.363 . S
C690 H667 0.950 . S
C690 C689 1.397 . S
C690 C691 1.334 . S
C691 H668 0.950 . S
C691 C690 1.334 . S
C691 C692 1.287 . S
C692 C691 1.287 . S
C692 C693 1.524 . S
C692 H711 0.913 . S
C693 H669 0.950 . S
C693 C692 1.524 . S
C693 C694 1.415 . S
C694 H670 0.950 . S
C694 C689 1.363 . S
C694 C693 1.415 . S
C695 H671 0.951 . S
C695 C696 1.366 . S
C695 C697 1.388 . S
C696 C695 1.366 . S
C696 C700 1.385 . S
C697 H672 0.951 . S
C697 C695 1.388 . S
C697 C698 1.366 . S
C698 C697 1.366 . S
C698 C699 1.414 . S
C698 C701 1.499 . S
C699 H673 0.950 . S
C699 C698 1.414 . S
C699 C700 1.374 . S
C700 H674 0.950 . S
C700 C696 1.385 . S
C700 C699 1.374 . S
C701 C698 1.499 . S
C701 C702 1.373 . S
C701 C703 1.389 . S
C702 H675 0.950 1_554 S
C702 C688 1.377 1_455 S
C702 C701 1.373 . S
C703 C687 1.377 1_455 S
C703 C701 1.389 . S
C703 C704 1.524 . S
C704 C703 1.524 . S
C704 C705 1.397 . S
C704 C709 1.363 . S
C705 H676 0.950 . S
C705 C704 1.397 . S
C705 C706 1.334 . S
C706 H677 0.950 . S
C706 C705 1.334 . S
C706 C707 1.287 . S
C707 C706 1.287 . S
C707 C708 1.524 . S
C707 H710 0.999 . S
C708 H678 0.950 . S
C708 C707 1.524 . S
C708 C709 1.415 . S
C709 H679 0.950 . S
C709 C704 1.363 . S
C709 C708 1.415 . S
H710 C707 0.999 . S
H711 C692 0.913 . S
H712 C730 0.951 . S
H713 C732 0.951 . S
H714 C734 0.950 . S
H715 C735 0.950 . S
H716 C737 0.950 . S
H717 C740 0.950 . S
H718 C741 0.950 . S
H719 C743 0.950 . S
H720 C744 0.950 . S
H721 C745 0.951 . S
H722 C747 0.951 . S
H723 C749 0.950 . S
H724 C750 0.950 . S
H725 C752 0.950 . S
H726 C755 0.950 . S
H727 C756 0.950 . S
H728 C758 0.950 . S
H729 C759 0.950 . S
C730 H712 0.951 . S
C730 C731 1.366 . S
C730 C732 1.388 . S
C731 C730 1.366 . S
C731 C735 1.385 . S
C732 H713 0.951 . S
C732 C730 1.388 . S
C732 C733 1.366 . S
C733 C732 1.366 . S
C733 C734 1.414 . S
C733 C736 1.499 . S
C734 H714 0.950 . S
C734 C733 1.414 . S
C734 C735 1.374 . S
C735 H715 0.950 . S
C735 C731 1.385 . S
C735 C734 1.374 . S
C736 C733 1.499 . S
C736 C737 1.373 1_556 S
C736 C738 1.389 . S
C737 H716 0.950 . S
C737 C736 1.373 1_554 S
C737 C753 1.377 . S
C738 C736 1.389 . S
C738 C739 1.524 . S
C738 C752 1.377 1_556 S
C739 C738 1.524 . S
C739 C740 1.397 . S
C739 C744 1.363 . S
C740 H717 0.950 . S
C740 C739 1.397 . S
C740 C741 1.334 . S
C741 H718 0.950 . S
C741 C740 1.334 . S
C741 C742 1.287 . S
C742 C741 1.287 . S
C742 C743 1.524 . S
C742 H761 0.913 . S
C743 H719 0.950 . S
C743 C742 1.524 . S
C743 C744 1.415 . S
C744 H720 0.950 . S
C744 C739 1.363 . S
C744 C743 1.415 . S
C745 H721 0.951 . S
C745 C746 1.366 . S
C745 C747 1.388 . S
C746 C745 1.366 . S
C746 C750 1.385 . S
C747 H722 0.951 . S
C747 C745 1.388 . S
C747 C748 1.366 . S
C748 C747 1.366 . S
C748 C749 1.414 . S
C748 C751 1.499 . S
C749 H723 0.950 . S
C749 C748 1.414 . S
C749 C750 1.374 . S
C750 H724 0.950 . S
C750 C746 1.385 . S
C750 C749 1.374 . S
C751 C748 1.499 . S
C751 C752 1.373 . S
C751 C753 1.389 . S
C752 H725 0.950 . S
C752 C738 1.377 1_554 S
C752 C751 1.373 . S
C753 C737 1.377 . S
C753 C751 1.389 . S
C753 C754 1.524 . S
C754 C753 1.524 . S
C754 C755 1.397 . S
C754 C759 1.363 . S
C755 H726 0.950 . S
C755 C754 1.397 . S
C755 C756 1.334 . S
C756 H727 0.950 . S
C756 C755 1.334 . S
C756 C757 1.287 . S
C757 C756 1.287 . S
C757 C758 1.524 . S
C757 H760 0.999 . S
C758 H728 0.950 . S
C758 C757 1.524 . S
C758 C759 1.415 . S
C759 H729 0.950 . S
C759 C754 1.363 . S
C759 C758 1.415 . S
H760 C757 0.999 . S
H761 C742 0.913 . S
H762 C780 0.951 . S
H763 C782 0.951 . S
H764 C784 0.950 . S
H765 C785 0.950 . S
H766 C787 0.950 . S
H767 C790 0.950 . S
H768 C791 0.950 . S
H769 C793 0.950 . S
H770 C794 0.950 . S
H771 C795 0.951 . S
H772 C797 0.951 . S
H773 C799 0.950 . S
H774 C800 0.950 . S
H775 C802 0.950 . S
H776 C805 0.950 . S
H777 C806 0.950 . S
H778 C808 0.950 . S
H779 C809 0.950 . S
C780 H762 0.951 . S
C780 C781 1.366 . S
C780 C782 1.388 . S
C781 C780 1.366 . S
C781 C785 1.385 . S
C782 H763 0.951 . S
C782 C780 1.388 . S
C782 C783 1.366 . S
C783 C782 1.366 . S
C783 C784 1.414 . S
C783 C786 1.499 . S
C784 H764 0.950 . S
C784 C783 1.414 . S
C784 C785 1.374 . S
C785 H765 0.950 . S
C785 C781 1.385 . S
C785 C784 1.374 . S
C786 C783 1.499 . S
C786 C787 1.373 . S
C786 C788 1.389 . S
C787 H766 0.950 . S
C787 C786 1.373 . S
C787 C803 1.377 . S
C788 C786 1.389 . S
C788 C789 1.524 . S
C788 C802 1.377 . S
C789 C788 1.524 . S
C789 C790 1.397 . S
C789 C794 1.363 . S
C790 H767 0.950 . S
C790 C789 1.397 . S
C790 C791 1.334 . S
C791 H768 0.950 . S
C791 C790 1.334 . S
C791 C792 1.287 . S
C792 C791 1.287 . S
C792 C793 1.524 . S
C792 H811 0.913 . S
C793 H769 0.950 . S
C793 C792 1.524 . S
C793 C794 1.415 . S
C794 H770 0.950 . S
C794 C789 1.363 . S
C794 C793 1.415 . S
C795 H771 0.951 . S
C795 C796 1.366 . S
C795 C797 1.388 . S
C796 C795 1.366 . S
C796 C800 1.385 . S
C797 H772 0.951 . S
C797 C795 1.388 . S
C797 C798 1.366 . S
C798 C797 1.366 . S
C798 C799 1.414 . S
C798 C801 1.499 . S
C799 H773 0.950 . S
C799 C798 1.414 . S
C799 C800 1.374 . S
C800 H774 0.950 . S
C800 C796 1.385 . S
C800 C799 1.374 . S
C801 C798 1.499 . S
C801 C802 1.373 . S
C801 C803 1.389 . S
C802 H775 0.950 . S
C802 C788 1.377 . S
C802 C801 1.373 . S
C803 C787 1.377 . S
C803 C801 1.389 . S
C803 C804 1.524 . S
C804 C803 1.524 . S
C804 C805 1.397 . S
C804 C809 1.363 . S
C805 H776 0.950 . S
C805 C804 1.397 . S
C805 C806 1.334 . S
C806 H777 0.950 . S
C806 C805 1.334 . S
C806 C807 1.287 . S
C807 C806 1.287 . S
C807 C808 1.524 . S
C807 H810 0.999 . S
C808 H778 0.950 . S
C808 C807 1.524 . S
C808 C809 1.415 . S
C809 H779 0.950 . S
C809 C804 1.363 . S
C809 C808 1.415 . S
H810 C807 0.999 . S
H811 C792 0.913 . S
H812 C830 0.951 . S
H813 C832 0.951 . S
H814 C834 0.950 . S
H815 C835 0.950 . S
H816 C837 0.950 . S
H817 C840 0.950 . S
H818 C841 0.950 . S
H819 C843 0.950 . S
H820 C844 0.950 . S
H821 C845 0.951 . S
H822 C847 0.951 . S
H823 C849 0.950 . S
H824 C850 0.950 . S
H825 C852 0.950 . S
H826 C855 0.950 . S
H827 C856 0.950 . S
H828 C858 0.950 . S
H829 C859 0.950 . S
C830 H812 0.951 . S
C830 C831 1.366 . S
C830 C832 1.388 . S
C831 C830 1.366 . S
C831 C835 1.385 . S
C832 H813 0.951 . S
C832 C830 1.388 . S
C832 C833 1.366 . S
C833 C832 1.366 . S
C833 C834 1.414 . S
C833 C836 1.499 . S
C834 H814 0.950 . S
C834 C833 1.414 . S
C834 C835 1.374 . S
C835 H815 0.950 . S
C835 C831 1.385 . S
C835 C834 1.374 . S
C836 C833 1.499 . S
C836 C837 1.373 . S
C836 C838 1.389 . S
C837 H816 0.950 . S
C837 C836 1.373 . S
C837 C853 1.377 . S
C838 C836 1.389 . S
C838 C839 1.524 . S
C838 C852 1.377 . S
C839 C838 1.524 . S
C839 C840 1.397 . S
C839 C844 1.363 . S
C840 H817 0.950 . S
C840 C839 1.397 . S
C840 C841 1.334 . S
C841 H818 0.950 . S
C841 C840 1.334 . S
C841 C842 1.287 . S
C842 C841 1.287 . S
C842 C843 1.524 . S
C842 H861 0.913 . S
C843 H819 0.950 . S
C843 C842 1.524 . S
C843 C844 1.415 . S
C844 H820 0.950 . S
C844 C839 1.363 . S
C844 C843 1.415 . S
C845 H821 0.951 . S
C845 C846 1.366 . S
C845 C847 1.388 . S
C846 C845 1.366 . S
C846 C850 1.385 . S
C847 H822 0.951 . S
C847 C845 1.388 . S
C847 C848 1.366 . S
C848 C847 1.366 . S
C848 C849 1.414 . S
C848 C851 1.499 . S
C849 H823 0.950 . S
C849 C848 1.414 . S
C849 C850 1.374 . S
C850 H824 0.950 . S
C850 C846 1.385 . S
C850 C849 1.374 . S
C851 C848 1.499 . S
C851 C852 1.373 . S
C851 C853 1.389 . S
C852 H825 0.950 . S
C852 C838 1.377 . S
C852 C851 1.373 . S
C853 C837 1.377 . S
C853 C851 1.389 . S
C853 C854 1.524 . S
C854 C853 1.524 . S
C854 C855 1.397 . S
C854 C859 1.363 . S
C855 H826 0.950 . S
C855 C854 1.397 . S
C855 C856 1.334 . S
C856 H827 0.950 . S
C856 C855 1.334 . S
C856 C857 1.287 . S
C857 C856 1.287 . S
C857 C858 1.524 . S
C857 H860 0.999 . S
C858 H828 0.950 . S
C858 C857 1.524 . S
C858 C859 1.415 . S
C859 H829 0.950 . S
C859 C854 1.363 . S
C859 C858 1.415 . S
H860 C857 0.999 . S
H861 C842 0.913 . S
H862 C880 0.951 . S
H863 C882 0.951 . S
H864 C884 0.950 . S
H865 C885 0.950 . S
H866 C887 0.950 . S
H867 C890 0.950 . S
H868 C891 0.950 . S
H869 C893 0.950 . S
H870 C894 0.950 . S
H871 C895 0.951 . S
H872 C897 0.951 . S
H873 C899 0.950 . S
H874 C900 0.950 . S
H875 C902 0.950 . S
H876 C905 0.950 . S
H877 C906 0.950 . S
H878 C908 0.950 . S
H879 C909 0.950 . S
C880 H862 0.951 . S
C880 C881 1.366 . S
C880 C882 1.388 . S
C881 C880 1.366 . S
C881 C885 1.385 . S
C882 H863 0.951 . S
C882 C880 1.388 . S
C882 C883 1.366 . S
C883 C882 1.366 . S
C883 C884 1.414 . S
C883 C886 1.499 . S
C884 H864 0.950 . S
C884 C883 1.414 . S
C884 C885 1.374 . S
C885 H865 0.950 . S
C885 C881 1.385 . S
C885 C884 1.374 . S
C886 C883 1.499 . S
C886 C887 1.373 . S
C886 C888 1.389 . S
C887 H866 0.950 . S
C887 C886 1.373 . S
C887 C903 1.377 . S
C888 C886 1.389 . S
C888 C889 1.524 . S
C888 C902 1.377 . S
C889 C888 1.524 . S
C889 C890 1.397 . S
C889 C894 1.363 . S
C890 H867 0.950 . S
C890 C889 1.397 . S
C890 C891 1.334 . S
C891 H868 0.950 . S
C891 C890 1.334 . S
C891 C892 1.287 . S
C892 C891 1.287 . S
C892 C893 1.524 . S
C892 H911 0.913 . S
C893 H869 0.950 . S
C893 C892 1.524 . S
C893 C894 1.415 . S
C894 H870 0.950 . S
C894 C889 1.363 . S
C894 C893 1.415 . S
C895 H871 0.951 . S
C895 C896 1.366 . S
C895 C897 1.388 . S
C896 C895 1.366 . S
C896 C900 1.385 . S
C897 H872 0.951 . S
C897 C895 1.388 . S
C897 C898 1.366 . S
C898 C897 1.366 . S
C898 C899 1.414 . S
C898 C901 1.499 . S
C899 H873 0.950 . S
C899 C898 1.414 . S
C899 C900 1.374 . S
C900 H874 0.950 . S
C900 C896 1.385 . S
C900 C899 1.374 . S
C901 C898 1.499 . S
C901 C902 1.373 . S
C901 C903 1.389 . S
C902 H875 0.950 . S
C902 C888 1.377 . S
C902 C901 1.373 . S
C903 C887 1.377 . S
C903 C901 1.389 . S
C903 C904 1.524 . S
C904 C903 1.524 . S
C904 C905 1.397 . S
C904 C909 1.363 . S
C905 H876 0.950 . S
C905 C904 1.397 . S
C905 C906 1.334 . S
C906 H877 0.950 . S
C906 C905 1.334 . S
C906 C907 1.287 . S
C907 C906 1.287 . S
C907 C908 1.524 . S
C907 H910 0.999 . S
C908 H878 0.950 . S
C908 C907 1.524 . S
C908 C909 1.415 . S
C909 H879 0.950 . S
C909 C904 1.363 . S
C909 C908 1.415 . S
H910 C907 0.999 . S
H911 C892 0.913 . S
C131 C13 0.740 . S
C146 C97 0.741 . S
C181 C27 0.740 . S
C196 C111 0.741 . S
C231 C69 0.740 . S
C246 C41 0.742 . S
C281 C83 0.742 . S
C296 C55 0.741 . S
C331 C11 1.275 . S
C346 C81 1.275 . S
C381 C25 1.276 . S
C396 C95 1.275 . S
C431 C109 1.275 1_556 S
C446 C39 1.275 . S
C481 C53 1.275 . S
C496 C67 1.276 . S
C531 C64 1.163 . S
C546 C8 1.164 . S
C581 C22 1.164 . S
C596 C78 1.163 . S
C631 C36 1.163 . S
C646 C92 1.162 . S
C681 C106 1.163 . S
C696 C50 1.164 . S
C731 C91 1.661 . S
C746 C7 1.661 . S
C781 C105 1.660 . S
C796 C21 1.660 . S
C831 C35 1.660 . S
C846 C63 1.660 . S
C881 C49 1.661 . S
C896 C77 1.660 . S
