# Generated by pormake.
# Topology pem, (4)-cn, num edge types: 1
# Building blocks:
#     Node 0, Type 0, BuildingBlock: TATPOV_clean_sbu_0, # of connection points: 4
#     Node 1, Type 0, BuildingBlock: TATPOV_clean_sbu_0, # of connection points: 4
#     Node 2, Type 0, BuildingBlock: TATPOV_clean_sbu_0, # of connection points: 4
#     Node 3, Type 0, BuildingBlock: TATPOV_clean_sbu_0, # of connection points: 4
#     Node 4, Type 0, BuildingBlock: TATPOV_clean_sbu_0, # of connection points: 4
#     Node 5, Type 0, BuildingBlock: TATPOV_clean_sbu_0, # of connection points: 4
#     Node 6, Type 0, BuildingBlock: TATPOV_clean_sbu_0, # of connection points: 4
#     Node 7, Type 0, BuildingBlock: TATPOV_clean_sbu_0, # of connection points: 4
#     Node 8, Type 0, BuildingBlock: TATPOV_clean_sbu_0, # of connection points: 4
#     Node 9, Type 0, BuildingBlock: TATPOV_clean_sbu_0, # of connection points: 4
#     Node 10, Type 0, BuildingBlock: TATPOV_clean_sbu_0, # of connection points: 4
#     Node 11, Type 0, BuildingBlock: TATPOV_clean_sbu_0, # of connection points: 4
#     Node 12, Type 0, BuildingBlock: TATPOV_clean_sbu_0, # of connection points: 4
#     Node 13, Type 0, BuildingBlock: TATPOV_clean_sbu_0, # of connection points: 4
#     Node 14, Type 0, BuildingBlock: TATPOV_clean_sbu_0, # of connection points: 4
#     Node 15, Type 0, BuildingBlock: TATPOV_clean_sbu_0, # of connection points: 4
#     Node 16, Type 0, BuildingBlock: TATPOV_clean_sbu_0, # of connection points: 4
#     Node 17, Type 0, BuildingBlock: TATPOV_clean_sbu_0, # of connection points: 4
#     Node 18, Type 0, BuildingBlock: TATPOV_clean_sbu_0, # of connection points: 4
#     Node 19, Type 0, BuildingBlock: TATPOV_clean_sbu_0, # of connection points: 4
#     Node 20, Type 0, BuildingBlock: TATPOV_clean_sbu_0, # of connection points: 4
#     Node 21, Type 0, BuildingBlock: TATPOV_clean_sbu_0, # of connection points: 4
#     Node 22, Type 0, BuildingBlock: TATPOV_clean_sbu_0, # of connection points: 4
#     Node 23, Type 0, BuildingBlock: TATPOV_clean_sbu_0, # of connection points: 4
#     Node 24, Type 0, BuildingBlock: TATPOV_clean_sbu_0, # of connection points: 4
#     Node 25, Type 0, BuildingBlock: TATPOV_clean_sbu_0, # of connection points: 4
#     Node 26, Type 0, BuildingBlock: TATPOV_clean_sbu_0, # of connection points: 4
#     Node 27, Type 0, BuildingBlock: TATPOV_clean_sbu_0, # of connection points: 4
#     Node 28, Type 0, BuildingBlock: TATPOV_clean_sbu_0, # of connection points: 4
#     Node 29, Type 0, BuildingBlock: TATPOV_clean_sbu_0, # of connection points: 4
#     Node 30, Type 0, BuildingBlock: TATPOV_clean_sbu_0, # of connection points: 4
#     Node 31, Type 0, BuildingBlock: TATPOV_clean_sbu_0, # of connection points: 4
#     Edge 32, Type (0, 0), BuildingBlock: KIFKEQ_clean_linker_1, # of connection points: 2
#     Edge 33, Type (0, 0), BuildingBlock: KIFKEQ_clean_linker_1, # of connection points: 2
#     Edge 34, Type (0, 0), BuildingBlock: KIFKEQ_clean_linker_1, # of connection points: 2
#     Edge 35, Type (0, 0), BuildingBlock: KIFKEQ_clean_linker_1, # of connection points: 2
#     Edge 36, Type (0, 0), BuildingBlock: KIFKEQ_clean_linker_1, # of connection points: 2
#     Edge 37, Type (0, 0), BuildingBlock: KIFKEQ_clean_linker_1, # of connection points: 2
#     Edge 38, Type (0, 0), BuildingBlock: KIFKEQ_clean_linker_1, # of connection points: 2
#     Edge 39, Type (0, 0), BuildingBlock: KIFKEQ_clean_linker_1, # of connection points: 2
#     Edge 40, Type (0, 0), BuildingBlock: KIFKEQ_clean_linker_1, # of connection points: 2
#     Edge 41, Type (0, 0), BuildingBlock: KIFKEQ_clean_linker_1, # of connection points: 2
#     Edge 42, Type (0, 0), BuildingBlock: KIFKEQ_clean_linker_1, # of connection points: 2
#     Edge 43, Type (0, 0), BuildingBlock: KIFKEQ_clean_linker_1, # of connection points: 2
#     Edge 44, Type (0, 0), BuildingBlock: KIFKEQ_clean_linker_1, # of connection points: 2
#     Edge 45, Type (0, 0), BuildingBlock: KIFKEQ_clean_linker_1, # of connection points: 2
#     Edge 46, Type (0, 0), BuildingBlock: KIFKEQ_clean_linker_1, # of connection points: 2
#     Edge 47, Type (0, 0), BuildingBlock: KIFKEQ_clean_linker_1, # of connection points: 2
#     Edge 48, Type (0, 0), BuildingBlock: KIFKEQ_clean_linker_1, # of connection points: 2
#     Edge 49, Type (0, 0), BuildingBlock: KIFKEQ_clean_linker_1, # of connection points: 2
#     Edge 50, Type (0, 0), BuildingBlock: KIFKEQ_clean_linker_1, # of connection points: 2
#     Edge 51, Type (0, 0), BuildingBlock: KIFKEQ_clean_linker_1, # of connection points: 2
#     Edge 52, Type (0, 0), BuildingBlock: KIFKEQ_clean_linker_1, # of connection points: 2
#     Edge 53, Type (0, 0), BuildingBlock: KIFKEQ_clean_linker_1, # of connection points: 2
#     Edge 54, Type (0, 0), BuildingBlock: KIFKEQ_clean_linker_1, # of connection points: 2
#     Edge 55, Type (0, 0), BuildingBlock: KIFKEQ_clean_linker_1, # of connection points: 2
#     Edge 56, Type (0, 0), BuildingBlock: KIFKEQ_clean_linker_1, # of connection points: 2
#     Edge 57, Type (0, 0), BuildingBlock: KIFKEQ_clean_linker_1, # of connection points: 2
#     Edge 58, Type (0, 0), BuildingBlock: KIFKEQ_clean_linker_1, # of connection points: 2
#     Edge 59, Type (0, 0), BuildingBlock: KIFKEQ_clean_linker_1, # of connection points: 2
#     Edge 60, Type (0, 0), BuildingBlock: KIFKEQ_clean_linker_1, # of connection points: 2
#     Edge 61, Type (0, 0), BuildingBlock: KIFKEQ_clean_linker_1, # of connection points: 2
#     Edge 62, Type (0, 0), BuildingBlock: KIFKEQ_clean_linker_1, # of connection points: 2
#     Edge 63, Type (0, 0), BuildingBlock: KIFKEQ_clean_linker_1, # of connection points: 2
#     Edge 64, Type (0, 0), BuildingBlock: KIFKEQ_clean_linker_1, # of connection points: 2
#     Edge 65, Type (0, 0), BuildingBlock: KIFKEQ_clean_linker_1, # of connection points: 2
#     Edge 66, Type (0, 0), BuildingBlock: KIFKEQ_clean_linker_1, # of connection points: 2
#     Edge 67, Type (0, 0), BuildingBlock: KIFKEQ_clean_linker_1, # of connection points: 2
#     Edge 68, Type (0, 0), BuildingBlock: KIFKEQ_clean_linker_1, # of connection points: 2
#     Edge 69, Type (0, 0), BuildingBlock: KIFKEQ_clean_linker_1, # of connection points: 2
#     Edge 70, Type (0, 0), BuildingBlock: KIFKEQ_clean_linker_1, # of connection points: 2
#     Edge 71, Type (0, 0), BuildingBlock: KIFKEQ_clean_linker_1, # of connection points: 2
#     Edge 72, Type (0, 0), BuildingBlock: KIFKEQ_clean_linker_1, # of connection points: 2
#     Edge 73, Type (0, 0), BuildingBlock: KIFKEQ_clean_linker_1, # of connection points: 2
#     Edge 74, Type (0, 0), BuildingBlock: KIFKEQ_clean_linker_1, # of connection points: 2
#     Edge 75, Type (0, 0), BuildingBlock: KIFKEQ_clean_linker_1, # of connection points: 2
#     Edge 76, Type (0, 0), BuildingBlock: KIFKEQ_clean_linker_1, # of connection points: 2
#     Edge 77, Type (0, 0), BuildingBlock: KIFKEQ_clean_linker_1, # of connection points: 2
#     Edge 78, Type (0, 0), BuildingBlock: KIFKEQ_clean_linker_1, # of connection points: 2
#     Edge 79, Type (0, 0), BuildingBlock: KIFKEQ_clean_linker_1, # of connection points: 2
#     Edge 80, Type (0, 0), BuildingBlock: KIFKEQ_clean_linker_1, # of connection points: 2
#     Edge 81, Type (0, 0), BuildingBlock: KIFKEQ_clean_linker_1, # of connection points: 2
#     Edge 82, Type (0, 0), BuildingBlock: KIFKEQ_clean_linker_1, # of connection points: 2
#     Edge 83, Type (0, 0), BuildingBlock: KIFKEQ_clean_linker_1, # of connection points: 2
#     Edge 84, Type (0, 0), BuildingBlock: KIFKEQ_clean_linker_1, # of connection points: 2
#     Edge 85, Type (0, 0), BuildingBlock: KIFKEQ_clean_linker_1, # of connection points: 2
#     Edge 86, Type (0, 0), BuildingBlock: KIFKEQ_clean_linker_1, # of connection points: 2
#     Edge 87, Type (0, 0), BuildingBlock: KIFKEQ_clean_linker_1, # of connection points: 2
#     Edge 88, Type (0, 0), BuildingBlock: KIFKEQ_clean_linker_1, # of connection points: 2
#     Edge 89, Type (0, 0), BuildingBlock: KIFKEQ_clean_linker_1, # of connection points: 2
#     Edge 90, Type (0, 0), BuildingBlock: KIFKEQ_clean_linker_1, # of connection points: 2
#     Edge 91, Type (0, 0), BuildingBlock: KIFKEQ_clean_linker_1, # of connection points: 2
#     Edge 92, Type (0, 0), BuildingBlock: KIFKEQ_clean_linker_1, # of connection points: 2
#     Edge 93, Type (0, 0), BuildingBlock: KIFKEQ_clean_linker_1, # of connection points: 2
#     Edge 94, Type (0, 0), BuildingBlock: KIFKEQ_clean_linker_1, # of connection points: 2
#     Edge 95, Type (0, 0), BuildingBlock: KIFKEQ_clean_linker_1, # of connection points: 2
# Relax obj value: 0.093
# Max RMSD: 0.079
# Mean RMSD: 0.070
data_MOF--net-pem--node1-TATPOV_clean_sbu_0--edge1-KIFKEQ_clean_linker_1
_symmetry_space_group_name_H-M    P1
_symmetry_Int_Tables_number       1
_symmetry_cell_setting            triclinic
loop_
_symmetry_equiv_pos_as_xyz
'x, y, z'
_cell_length_a     42.662462
_cell_length_b     43.643992
_cell_length_c     43.712385
_cell_angle_alpha  90.50276
_cell_angle_beta   90.426537
_cell_angle_gamma 90.976198
loop_
_atom_site_label
_atom_site_type_symbol
_atom_site_fract_x
_atom_site_fract_y
_atom_site_fract_z
_atom_type_partial_charge
Zn0 Zn 0.01488 0.08412 0.15183 0.0
Zn1 Zn 0.07024 0.10183 0.12749 0.0
O2 O 0.05035 0.14221 0.14369 0.0
O3 O 0.00908 0.12636 0.16978 0.0
O4 O 0.10975 0.11329 0.10416 0.0
O5 O 0.03731 0.05027 0.17378 0.0
O6 O 0.08313 0.06739 0.15769 0.0
C7 C 0.02671 0.14789 0.1605 0.0
C8 C 0.01722 0.07601 0.0875 0.0
O9 O 0.04546 0.08443 0.09207 0.0
O10 O 0.99798 0.0753 0.10939 0.0
C11 C 0.10871 0.13354 0.08337 0.0
O12 O 0.08314 0.14959 0.08009 0.0
C13 C 0.06684 0.04795 0.1728 0.0
Zn14 Zn 0.20993 0.89661 0.36646 0.0
Zn15 Zn 0.16904 0.85715 0.37649 0.0
O16 O 0.19239 0.86913 0.41905 0.0
O17 O 0.22221 0.90899 0.40756 0.0
O18 O 0.1327 0.82594 0.38648 0.0
O19 O 0.18614 0.92497 0.34192 0.0
O20 O 0.14832 0.8906 0.34698 0.0
C21 C 0.21205 0.8904 0.42715 0.0
C22 C 0.22533 0.84057 0.33825 0.0
O23 O 0.19891 0.83242 0.34934 0.0
O24 O 0.2363 0.86717 0.34364 0.0
C25 C 0.12841 0.81212 0.41183 0.0
O26 O 0.14801 0.8177 0.43459 0.0
C27 C 0.15882 0.9156 0.33524 0.0
Zn28 Zn 0.47527 0.94048 0.66877 0.0
Zn29 Zn 0.42218 0.9325 0.63388 0.0
O30 O 0.43338 0.88945 0.65016 0.0
O31 O 0.47305 0.89611 0.68222 0.0
O32 O 0.38247 0.92654 0.60806 0.0
O33 O 0.45441 0.97417 0.69233 0.0
O34 O 0.41178 0.96791 0.66406 0.0
C35 C 0.45321 0.87856 0.66897 0.0
C36 C 0.48299 0.95202 0.60394 0.0
O37 O 0.45387 0.94561 0.60252 0.0
O38 O 0.49761 0.95149 0.62929 0.0
C39 C 0.38367 0.91352 0.58191 0.0
O40 O 0.41065 0.90329 0.5722 0.0
C41 C 0.42692 0.98217 0.68527 0.0
Zn42 Zn 0.27311 0.16474 0.85191 0.0
Zn43 Zn 0.32679 0.17831 0.87969 0.0
O44 O 0.29561 0.16679 0.9154 0.0
O45 O 0.25446 0.14811 0.89011 0.0
O46 O 0.36847 0.19387 0.8973 0.0
O47 O 0.29486 0.1376 0.82183 0.0
O48 O 0.33915 0.14558 0.84714 0.0
C49 C 0.2683 0.15406 0.91518 0.0
C50 C 0.29136 0.22635 0.84339 0.0
O51 O 0.31571 0.2169 0.85691 0.0
O52 O 0.26741 0.20902 0.84052 0.0
C53 C 0.38104 0.19842 0.92351 0.0
O54 O 0.36607 0.18998 0.94828 0.0
C55 C 0.32395 0.13318 0.8248 0.0
Zn56 Zn 0.01041 0.88611 0.3336 0.0
Zn57 Zn 0.05624 0.89354 0.37416 0.0
O58 O 0.04832 0.84767 0.36322 0.0
O59 O 0.02328 0.84448 0.31933 0.0
O60 O 0.09231 0.89636 0.40578 0.0
O61 O 0.02139 0.925 0.3124 0.0
O62 O 0.06177 0.93045 0.34372 0.0
C63 C 0.03462 0.83139 0.3425 0.0
C64 C 0.99003 0.89492 0.39545 0.0
O65 O 0.01895 0.90095 0.40023 0.0
O66 O 0.98004 0.88745 0.36903 0.0
C67 C 0.09012 0.88084 0.43031 0.0
O68 O 0.06599 0.86203 0.43344 0.0
C69 C 0.04499 0.94047 0.32168 0.0
Zn70 Zn 0.36628 0.86389 0.65142 0.0
Zn71 Zn 0.31457 0.86795 0.62847 0.0
O72 O 0.32207 0.90873 0.65633 0.0
O73 O 0.37004 0.90263 0.67339 0.0
O74 O 0.27552 0.87259 0.6007 0.0
O75 O 0.39374 0.85443 0.61678 0.0
O76 O 0.34638 0.84341 0.60024 0.0
C77 C 0.34519 0.91783 0.67333 0.0
C78 C 0.321 0.82051 0.6749 0.0
O79 O 0.30202 0.8352 0.65813 0.0
O80 O 0.34985 0.82781 0.67553 0.0
C81 C 0.25663 0.89478 0.5981 0.0
O82 O 0.26135 0.91965 0.61477 0.0
C83 C 0.37609 0.84068 0.5978 0.0
Zn84 Zn 0.3372 0.04119 0.92364 0.0
Zn85 Zn 0.36895 0.09255 0.91198 0.0
O86 O 0.35277 0.0744 0.86957 0.0
O87 O 0.32066 0.03612 0.8811 0.0
O88 O 0.39878 0.12957 0.90326 0.0
O89 O 0.31261 0.06185 0.95547 0.0
O90 O 0.33672 0.1059 0.9469 0.0
C91 C 0.33382 0.05269 0.86125 0.0
C92 C 0.40181 0.03544 0.93574 0.0
O93 O 0.40149 0.06345 0.92805 0.0
O94 O 0.37671 0.01959 0.93579 0.0
C95 C 0.41711 0.13011 0.88025 0.0
O96 O 0.41518 0.10777 0.85998 0.0
C97 C 0.31656 0.08994 0.9619 0.0
Zn98 Zn 0.09937 0.20428 0.21802 0.0
Zn99 Zn 0.12448 0.18014 0.1662 0.0
O100 O 0.10534 0.14178 0.18828 0.0
O101 O 0.0801 0.16306 0.22681 0.0
O102 O 0.15184 0.16635 0.13064 0.0
O103 O 0.07931 0.23541 0.19135 0.0
O104 O 0.09497 0.21372 0.14849 0.0
C105 C 0.08802 0.13944 0.21198 0.0
C106 C 0.16447 0.20884 0.21836 0.0
O107 O 0.15964 0.19739 0.19197 0.0
O108 O 0.14177 0.21402 0.23598 0.0
C109 C 0.17487 0.14894 0.13614 0.0
O110 O 0.1778 0.13715 0.16354 0.0
C111 C 0.08025 0.23488 0.16242 0.0
Zn112 Zn 0.58984 0.38208 0.90798 0.0
Zn113 Zn 0.61572 0.38322 0.95603 0.0
O114 O 0.59217 0.34025 0.94729 0.0
O115 O 0.58644 0.33859 0.89776 0.0
O116 O 0.64819 0.37802 0.99094 0.0
O117 O 0.61274 0.40952 0.88044 0.0
O118 O 0.63172 0.41935 0.92635 0.0
C119 C 0.58194 0.32626 0.92331 0.0
C120 C 0.55389 0.40511 0.96069 0.0
O121 O 0.57946 0.40249 0.97543 0.0
O122 O 0.5525 0.3984 0.93238 0.0
C123 C 0.65078 0.3992 0.01117 0.0
O124 O 0.63327 0.4235 0.00833 0.0
C125 C 0.62946 0.42614 0.89791 0.0
Zn126 Zn 0.91789 0.38731 0.25931 0.0
Zn127 Zn 0.87678 0.39202 0.21214 0.0
O128 O 0.88245 0.43672 0.22968 0.0
O129 O 0.91859 0.43271 0.26577 0.0
O130 O 0.84474 0.39146 0.17646 0.0
O131 O 0.94906 0.36551 0.23379 0.0
O132 O 0.91335 0.36413 0.19719 0.0
C133 C 0.89943 0.44883 0.25101 0.0
C134 C 0.85887 0.35718 0.26932 0.0
O135 O 0.85272 0.36839 0.24328 0.0
O136 O 0.88571 0.3609 0.28149 0.0
C137 C 0.82555 0.4127 0.17062 0.0
O138 O 0.82711 0.43814 0.18687 0.0
C139 C 0.93972 0.35554 0.20798 0.0
Zn140 Zn 0.84494 0.59411 0.47347 0.0
Zn141 Zn 0.8844 0.63777 0.46716 0.0
O142 O 0.87281 0.62051 0.42285 0.0
O143 O 0.83275 0.58922 0.43008 0.0
O144 O 0.9181 0.6723 0.45997 0.0
O145 O 0.81785 0.61381 0.50336 0.0
O146 O 0.84937 0.65412 0.49888 0.0
C147 C 0.8522 0.60151 0.41212 0.0
C148 C 0.90519 0.57676 0.49282 0.0
O149 O 0.91131 0.60476 0.48687 0.0
O150 O 0.87777 0.56601 0.48875 0.0
C151 C 0.94068 0.66658 0.44177 0.0
O152 O 0.94045 0.64001 0.42739 0.0
C153 C 0.8254 0.64086 0.51109 0.0
Zn154 Zn 0.74839 0.62773 0.35939 0.0
Zn155 Zn 0.80438 0.65168 0.37059 0.0
O156 O 0.78467 0.64155 0.4133 0.0
O157 O 0.74333 0.61252 0.40217 0.0
O158 O 0.84932 0.66677 0.37678 0.0
O159 O 0.7619 0.60052 0.32491 0.0
O160 O 0.80859 0.62035 0.33498 0.0
C161 C 0.76116 0.62526 0.42189 0.0
C162 C 0.75504 0.69318 0.34764 0.0
O163 O 0.78373 0.68913 0.35403 0.0
O164 O 0.73534 0.67119 0.34952 0.0
C165 C 0.85545 0.69166 0.39109 0.0
O166 O 0.83247 0.70592 0.40474 0.0
C167 C 0.79073 0.60289 0.31872 0.0
Zn168 Zn 0.67852 0.37372 0.83201 0.0
Zn169 Zn 0.63355 0.34039 0.8408 0.0
O170 O 0.65475 0.34767 0.8853 0.0
O171 O 0.69003 0.38309 0.87398 0.0
O172 O 0.59622 0.30907 0.84522 0.0
O173 O 0.65834 0.40463 0.80831 0.0
O174 O 0.61435 0.38021 0.81882 0.0
C175 C 0.67668 0.36657 0.89364 0.0
C176 C 0.69072 0.3214 0.80208 0.0
O177 O 0.66312 0.31598 0.81204 0.0
O178 O 0.70478 0.34611 0.80906 0.0
C179 C 0.59912 0.28311 0.8582 0.0
O180 O 0.62659 0.27612 0.86974 0.0
C181 C 0.62893 0.40284 0.80638 0.0
Zn182 Zn 0.87489 0.92145 0.89927 0.0
Zn183 Zn 0.91725 0.88509 0.90065 0.0
O184 O 0.88205 0.86462 0.92874 0.0
O185 O 0.84883 0.90248 0.93116 0.0
O186 O 0.95196 0.85405 0.89578 0.0
O187 O 0.86378 0.9213 0.85532 0.0
O188 O 0.91113 0.90281 0.85608 0.0
C189 C 0.8575 0.87656 0.9402 0.0
C190 C 0.93079 0.94761 0.92421 0.0
O191 O 0.93904 0.91972 0.9243 0.0
O192 O 0.90467 0.95477 0.91273 0.0
C193 C 0.95888 0.83238 0.91383 0.0
O194 O 0.9415 0.82731 0.938 0.0
C195 C 0.88904 0.91593 0.84152 0.0
Zn196 Zn 0.83271 0.10698 0.67873 0.0
Zn197 Zn 0.87636 0.14057 0.66228 0.0
O198 O 0.89936 0.10808 0.69017 0.0
O199 O 0.85749 0.09009 0.7133 0.0
O200 O 0.91002 0.17086 0.6473 0.0
O201 O 0.82489 0.08633 0.63852 0.0
O202 O 0.8539 0.1248 0.62199 0.0
C203 C 0.88698 0.092 0.71138 0.0
C204 C 0.81754 0.16596 0.69189 0.0
O205 O 0.84661 0.16944 0.68585 0.0
O206 O 0.80422 0.14021 0.68811 0.0
C207 C 0.93967 0.17001 0.65093 0.0
O208 O 0.95199 0.14674 0.66528 0.0
C209 C 0.83489 0.10238 0.61662 0.0
Zn210 Zn 0.67073 0.00915 0.39436 0.0
Zn211 Zn 0.64423 0.06377 0.3913 0.0
O212 O 0.68428 0.07403 0.41741 0.0
O213 O 0.70455 0.02804 0.42059 0.0
O214 O 0.61855 0.10224 0.38727 0.0
O215 O 0.67495 0.0054 0.34902 0.0
O216 O 0.64651 0.04696 0.34638 0.0
C217 C 0.70512 0.05616 0.42798 0.0
C218 C 0.61206 0.01051 0.42427 0.0
O219 O 0.6146 0.03856 0.41702 0.0
O220 O 0.63245 0.99161 0.41565 0.0
C221 C 0.61734 0.12553 0.40495 0.0
O222 O 0.6371 0.12827 0.42804 0.0
C223 C 0.65991 0.02445 0.33332 0.0
Zn224 Zn 0.59779 0.83556 0.16914 0.0
Zn225 Zn 0.6406 0.82736 0.13228 0.0
O226 O 0.60661 0.79308 0.1204 0.0
O227 O 0.57258 0.7993 0.15739 0.0
O228 O 0.67265 0.83065 0.09799 0.0
O229 O 0.58432 0.87819 0.16036 0.0
O230 O 0.63267 0.87302 0.14503 0.0
C231 C 0.582 0.78414 0.13462 0.0
C232 C 0.6577 0.8187 0.19612 0.0
O233 O 0.6652 0.81237 0.16866 0.0
O234 O 0.63132 0.83035 0.20175 0.0
C235 C 0.69357 0.81092 0.09222 0.0
O236 O 0.69371 0.78521 0.10762 0.0
C237 C 0.61091 0.89009 0.1551 0.0
Zn238 Zn 0.95315 0.07298 0.59493 0.0
Zn239 Zn 0.9181 0.09571 0.55353 0.0
O240 O 0.89432 0.06974 0.58653 0.0
O241 O 0.92154 0.07646 0.6286 0.0
O242 O 0.88529 0.11323 0.52425 0.0
O243 O 0.9868 0.10361 0.58787 0.0
O244 O 0.95308 0.12982 0.56077 0.0
C245 C 0.89776 0.06499 0.61511 0.0
C246 C 0.9435 0.03669 0.53993 0.0
O247 O 0.93637 0.06221 0.52824 0.0
O248 O 0.95006 0.03502 0.56816 0.0
C249 C 0.87053 0.09406 0.50705 0.0
O250 O 0.87514 0.06467 0.51101 0.0
C251 C 0.98035 0.12723 0.57273 0.0
Zn252 Zn 0.64252 0.16789 0.25004 0.0
Zn253 Zn 0.66232 0.14451 0.30346 0.0
O254 O 0.62495 0.17177 0.31707 0.0
O255 O 0.60803 0.18844 0.27246 0.0
O256 O 0.68428 0.128 0.34112 0.0
O257 O 0.63686 0.12642 0.23137 0.0
O258 O 0.65614 0.1069 0.27383 0.0
C259 C 0.60626 0.18815 0.30135 0.0
C260 C 0.70285 0.18987 0.26776 0.0
O261 O 0.69704 0.17271 0.29032 0.0
O262 O 0.68342 0.19151 0.24583 0.0
C263 C 0.69375 0.1467 0.3619 0.0
O264 O 0.68416 0.17514 0.36118 0.0
C265 C 0.64576 0.10357 0.24647 0.0
Zn266 Zn 0.66874 0.9445 0.02119 0.0
Zn267 Zn 0.63803 0.89489 0.03516 0.0
O268 O 0.67522 0.87742 0.00817 0.0
O269 O 0.69757 0.9213 0.99544 0.0
O270 O 0.60995 0.85993 0.05126 0.0
O271 O 0.6813 0.95716 0.06326 0.0
O272 O 0.64728 0.92083 0.0752 0.0
C273 C 0.69629 0.89241 0.99344 0.0
C274 C 0.60627 0.9447 0.99887 0.0
O275 O 0.60652 0.9174 0.00882 0.0
O276 O 0.63003 0.96212 0.0025 0.0
C277 C 0.59189 0.84329 0.0344 0.0
O278 O 0.59392 0.8455 0.00452 0.0
C279 C 0.66506 0.94348 0.08307 0.0
Zn280 Zn 0.91065 0.80859 0.72884 0.0
Zn281 Zn 0.89419 0.83207 0.78667 0.0
O282 O 0.92951 0.80198 0.79723 0.0
O283 O 0.94136 0.78251 0.75208 0.0
O284 O 0.87188 0.84348 0.82597 0.0
O285 O 0.91904 0.85321 0.71825 0.0
O286 O 0.9034 0.87157 0.76285 0.0
C287 C 0.94512 0.78334 0.78087 0.0
C288 C 0.84761 0.79864 0.74267 0.0
O289 O 0.85749 0.81243 0.76648 0.0
O290 O 0.86621 0.7924 0.72117 0.0
C291 C 0.85634 0.82251 0.83968 0.0
O292 O 0.85949 0.79386 0.83091 0.0
C293 C 0.91252 0.87577 0.73542 0.0
Zn294 Zn 0.42712 0.53736 0.14064 0.0
Zn295 Zn 0.38487 0.56075 0.10944 0.0
O296 O 0.3623 0.54531 0.14969 0.0
O297 O 0.40357 0.54027 0.17939 0.0
O298 O 0.35341 0.57781 0.07924 0.0
O299 O 0.45954 0.56883 0.12975 0.0
O300 O 0.42017 0.59488 0.11135 0.0
C301 C 0.37418 0.53974 0.17603 0.0
C302 C 0.41098 0.4993 0.09194 0.0
O303 O 0.39787 0.52399 0.08435 0.0
O304 O 0.42419 0.49735 0.11779 0.0
C305 C 0.33603 0.55923 0.06382 0.0
O306 O 0.33453 0.53032 0.07188 0.0
C307 C 0.44929 0.59316 0.11814 0.0
Zn308 Zn 0.14206 0.65314 0.7874 0.0
Zn309 Zn 0.16868 0.63523 0.83241 0.0
O310 O 0.136 0.66646 0.85077 0.0
O311 O 0.12281 0.68862 0.80785 0.0
O312 O 0.19156 0.6161 0.86824 0.0
O313 O 0.11703 0.61627 0.77544 0.0
O314 O 0.15552 0.59832 0.80315 0.0
C315 C 0.12191 0.68792 0.8367 0.0
C316 C 0.20697 0.66267 0.78347 0.0
O317 O 0.20472 0.65821 0.81204 0.0
O318 O 0.1832 0.65889 0.76634 0.0
C319 C 0.20977 0.63367 0.88387 0.0
O320 O 0.21035 0.66312 0.87785 0.0
C321 C 0.13423 0.59418 0.78265 0.0
Zn322 Zn 0.15276 0.4396 0.54232 0.0
Zn323 Zn 0.12099 0.39347 0.56548 0.0
O324 O 0.15373 0.3725 0.53626 0.0
O325 O 0.17927 0.41237 0.51775 0.0
O326 O 0.09743 0.35779 0.58572 0.0
O327 O 0.16612 0.458 0.58249 0.0
O328 O 0.13414 0.42297 0.60144 0.0
C329 C 0.17444 0.38373 0.51835 0.0
C330 C 0.08746 0.44033 0.52694 0.0
O331 O 0.0866 0.4156 0.54216 0.0
O332 O 0.11313 0.45477 0.52338 0.0
C333 C 0.07583 0.34405 0.57038 0.0
O334 O 0.07062 0.35258 0.54207 0.0
C335 C 0.15139 0.44703 0.60497 0.0
Zn336 Zn 0.16109 0.32186 0.65707 0.0
Zn337 Zn 0.19258 0.33792 0.61599 0.0
O338 O 0.16041 0.3046 0.59746 0.0
O339 O 0.14777 0.28189 0.64031 0.0
O340 O 0.21804 0.35457 0.58008 0.0
O341 O 0.13131 0.35614 0.65883 0.0
O342 O 0.17507 0.37535 0.64066 0.0
C343 C 0.14684 0.28247 0.61147 0.0
C344 C 0.22486 0.32341 0.67299 0.0
O345 O 0.22745 0.3214 0.64407 0.0
O346 O 0.19815 0.32629 0.68479 0.0
C347 C 0.24009 0.33791 0.57011 0.0
O348 O 0.24392 0.31075 0.58217 0.0
C349 C 0.14997 0.37871 0.65609 0.0
Zn350 Zn 0.32217 0.64843 0.16268 0.0
Zn351 Zn 0.36176 0.67566 0.13518 0.0
O352 O 0.38832 0.64573 0.16291 0.0
O353 O 0.35063 0.63237 0.19426 0.0
O354 O 0.39491 0.70043 0.11139 0.0
O355 O 0.30496 0.62208 0.13 0.0
O356 O 0.32852 0.65723 0.10242 0.0
C357 C 0.37937 0.63282 0.18762 0.0
C358 C 0.31434 0.70916 0.17401 0.0
O359 O 0.3417 0.70912 0.16247 0.0
O360 O 0.29771 0.685 0.17339 0.0
C361 C 0.41486 0.71601 0.12722 0.0
O362 O 0.41343 0.7145 0.15719 0.0
C363 C 0.3084 0.63515 0.10458 0.0
Zn364 Zn 0.50572 0.60123 0.65495 0.0
Zn365 Zn 0.55807 0.61923 0.62858 0.0
O366 O 0.52856 0.65668 0.62252 0.0
O367 O 0.48441 0.63989 0.64267 0.0
O368 O 0.60093 0.62949 0.61058 0.0
O369 O 0.52326 0.59435 0.69692 0.0
O370 O 0.56658 0.59746 0.67015 0.0
C371 C 0.49954 0.6604 0.62842 0.0
C372 C 0.52537 0.56396 0.60342 0.0
O373 O 0.54522 0.58553 0.59967 0.0
O374 O 0.50663 0.56456 0.62578 0.0
C375 C 0.60397 0.64623 0.58703 0.0
O376 O 0.5794 0.66061 0.57648 0.0
C377 C 0.55218 0.58913 0.69437 0.0
Zn378 Zn 0.92813 0.47075 0.10075 0.0
Zn379 Zn 0.87998 0.43718 0.08874 0.0
O380 O 0.91332 0.40326 0.09709 0.0
O381 O 0.95488 0.43356 0.10141 0.0
O382 O 0.83921 0.41618 0.07564 0.0
O383 O 0.91203 0.48856 0.13904 0.0
O384 O 0.86741 0.4662 0.12536 0.0
C385 C 0.94302 0.40679 0.10021 0.0
C386 C 0.90591 0.48301 0.04225 0.0
O387 O 0.88929 0.45949 0.0486 0.0
O388 O 0.92387 0.49483 0.06238 0.0
C389 C 0.83818 0.39364 0.05694 0.0
O390 O 0.86442 0.38038 0.04924 0.0
C391 C 0.88302 0.48437 0.14314 0.0
Zn392 Zn 0.58444 0.67565 0.76534 0.0
Zn393 Zn 0.61204 0.6533 0.71301 0.0
O394 O 0.61562 0.61669 0.7443 0.0
O395 O 0.59449 0.63641 0.78577 0.0
O396 O 0.64066 0.64383 0.67631 0.0
O397 O 0.54556 0.68182 0.74016 0.0
O398 O 0.56901 0.66913 0.6971 0.0
C399 C 0.60845 0.61465 0.77265 0.0
C400 C 0.63545 0.71138 0.74823 0.0
O401 O 0.63551 0.69052 0.72788 0.0
O402 O 0.61542 0.71101 0.76937 0.0
C403 C 0.64833 0.6662 0.65905 0.0
O404 O 0.63369 0.69223 0.66245 0.0
C405 C 0.54545 0.68008 0.71122 0.0
Zn406 Zn 0.40596 0.45918 0.38872 0.0
Zn407 Zn 0.44199 0.42151 0.37011 0.0
O408 O 0.40114 0.40111 0.38912 0.0
O409 O 0.36536 0.43633 0.3854 0.0
O410 O 0.4683 0.38642 0.35416 0.0
O411 O 0.41867 0.49188 0.36018 0.0
O412 O 0.442 0.45498 0.33515 0.0
C413 C 0.3728 0.4095 0.39295 0.0
C414 C 0.45566 0.44795 0.43034 0.0
O415 O 0.46812 0.43685 0.40648 0.0
O416 O 0.42766 0.45694 0.42939 0.0
C417 C 0.4817 0.36922 0.37351 0.0
O418 O 0.47647 0.37364 0.40278 0.0
C419 C 0.43392 0.48303 0.3372 0.0
Zn420 Zn 0.12865 0.51014 0.90559 0.0
Zn421 Zn 0.11264 0.56431 0.88267 0.0
O422 O 0.144 0.57787 0.91774 0.0
O423 O 0.15384 0.53287 0.93766 0.0
O424 O 0.09542 0.60308 0.86424 0.0
O425 O 0.14786 0.4972 0.86593 0.0
O426 O 0.12863 0.53909 0.8457 0.0
C427 C 0.15745 0.56174 0.93812 0.0
C428 C 0.06302 0.51937 0.90734 0.0
O429 O 0.07181 0.54532 0.89734 0.0
O430 O 0.08305 0.49899 0.91271 0.0
C431 C 0.07469 0.61735 0.87931 0.0
O432 O 0.06844 0.60867 0.90734 0.0
C433 C 0.1422 0.51339 0.84275 0.0
Zn434 Zn 0.42864 0.30902 0.29773 0.0
Zn435 Zn 0.39343 0.31423 0.34766 0.0
O436 O 0.43143 0.2919 0.36726 0.0
O437 O 0.45749 0.28527 0.3244 0.0
O438 O 0.35948 0.31947 0.37918 0.0
O439 O 0.4298 0.35436 0.29085 0.0
O440 O 0.39535 0.35774 0.32775 0.0
C441 C 0.45399 0.27989 0.3526 0.0
C442 C 0.37333 0.27469 0.2924 0.0
O443 O 0.37107 0.28415 0.31984 0.0
O444 O 0.39555 0.28394 0.27568 0.0
C445 C 0.34645 0.29825 0.39462 0.0
O446 O 0.35801 0.27056 0.39413 0.0
C447 C 0.41021 0.37001 0.30561 0.0
H448 H 0.05519 0.05837 0.04102 0.0
H449 H 0.9578 0.06843 0.06544 0.0
H450 H 0.03921 0.03269 0.99339 0.0
H451 H 0.94202 0.04313 0.01777 0.0
H452 H 0.91984 0.00878 0.92577 0.0
H453 H 0.9454 0.04693 0.95878 0.0
H454 H 0.01076 0.97914 0.98964 0.0
H455 H 0.9852 0.94068 0.95668 0.0
C456 C 0.0304 0.05571 0.0359 0.0
C457 C 0.00764 0.0649 0.05704 0.0
C458 C 0.02138 0.04108 0.00872 0.0
C459 C 0.98952 0.03604 0.00214 0.0
C460 C 0.96677 0.0471 0.02229 0.0
C461 C 0.97577 0.06129 0.04965 0.0
C462 C 0.94006 0.00209 0.93912 0.0
C463 C 0.95004 0.97155 0.93937 0.0
C464 C 0.95469 0.02399 0.95783 0.0
C465 C 0.97965 0.01573 0.97683 0.0
C466 C 0.99157 0.98598 0.97498 0.0
C467 C 0.9768 0.96395 0.95636 0.0
H468 H 0.34936 0.74828 0.20978 0.0
H469 H 0.25442 0.72671 0.18109 0.0
H470 H 0.32948 0.7806 0.25099 0.0
H471 H 0.23449 0.75972 0.22138 0.0
H472 H 0.20808 0.78315 0.31795 0.0
H473 H 0.23135 0.7544 0.27607 0.0
H474 H 0.30165 0.82592 0.26533 0.0
H475 H 0.27922 0.85405 0.30776 0.0
C476 C 0.3243 0.7514 0.21162 0.0
C477 C 0.30335 0.73495 0.19254 0.0
C478 C 0.31288 0.7697 0.23531 0.0
C479 C 0.28038 0.77199 0.23992 0.0
C480 C 0.25962 0.75757 0.21906 0.0
C481 C 0.271 0.73907 0.19572 0.0
C482 C 0.22878 0.79247 0.30697 0.0
C483 C 0.24163 0.82094 0.31604 0.0
C484 C 0.2419 0.77623 0.28273 0.0
C485 C 0.26795 0.78825 0.26698 0.0
C486 C 0.28163 0.81604 0.27699 0.0
C487 C 0.26867 0.83216 0.30132 0.0
H488 H 0.46728 0.93531 0.54559 0.0
H489 H 0.53636 0.98649 0.59896 0.0
H490 H 0.49529 0.94864 0.49865 0.0
H491 H 0.56372 0.00031 0.55195 0.0
H492 H 0.57555 0.04763 0.45863 0.0
H493 H 0.54166 0.03262 0.50072 0.0
H494 H 0.55892 0.93735 0.48129 0.0
H495 H 0.59365 0.95216 0.43929 0.0
C496 C 0.48832 0.94951 0.54723 0.0
C497 C 0.49973 0.95995 0.5758 0.0
C498 C 0.50426 0.95697 0.52049 0.0
C499 C 0.53133 0.97552 0.52201 0.0
C500 C 0.54268 0.98609 0.55046 0.0
C501 C 0.52716 0.9781 0.57723 0.0
C502 C 0.57175 0.02344 0.46287 0.0
C503 C 0.58752 0.00103 0.44589 0.0
C504 C 0.55246 0.01496 0.48699 0.0
C505 C 0.54813 0.98397 0.4941 0.0
C506 C 0.56209 0.9614 0.47599 0.0
C507 C 0.58191 0.96988 0.45212 0.0
H508 H 0.24488 0.26659 0.83281 0.0
H509 H 0.3415 0.24792 0.81197 0.0
H510 H 0.24315 0.30301 0.79101 0.0
H511 H 0.33941 0.28366 0.76916 0.0
H512 H 0.23771 0.3634 0.7184 0.0
H513 H 0.26754 0.35189 0.76453 0.0
H514 H 0.30123 0.26954 0.72139 0.0
H515 H 0.27132 0.28121 0.67504 0.0
C516 C 0.26605 0.27123 0.82 0.0
C517 C 0.29317 0.25445 0.82534 0.0
C518 C 0.26519 0.29213 0.79616 0.0
C519 C 0.29118 0.29593 0.77686 0.0
C520 C 0.31921 0.28115 0.78386 0.0
C521 C 0.32034 0.26084 0.80834 0.0
C522 C 0.25281 0.34366 0.71829 0.0
C523 C 0.2519 0.32273 0.69371 0.0
C524 C 0.2699 0.33719 0.74459 0.0
C525 C 0.28606 0.30961 0.74659 0.0
C526 C 0.28897 0.29104 0.72029 0.0
C527 C 0.27183 0.2976 0.6938 0.0
H528 H 1.00207 0.88666 0.4554 0.0
H529 H 0.92881 0.91182 0.3922 0.0
H530 H 0.97491 0.91165 0.49663 0.0
H531 H 0.9009 0.93667 0.43394 0.0
H532 H 0.93225 0.03175 0.47881 0.0
H533 H 0.92616 0.98521 0.44881 0.0
H534 H 0.93601 0.93113 0.5307 0.0
H535 H 0.94322 0.97799 0.56075 0.0
C536 C 0.97939 0.8965 0.45069 0.0
C537 C 0.9682 0.89898 0.42064 0.0
C538 C 0.96348 0.91045 0.47444 0.0
C539 C 0.93651 0.92736 0.46811 0.0
C540 C 0.92224 0.92456 0.43909 0.0
C541 C 0.9382 0.91047 0.41523 0.0
C542 C 0.93301 0.00996 0.49044 0.0
C543 C 0.93941 0.00844 0.52186 0.0
C544 C 0.92867 0.98321 0.47338 0.0
C545 C 0.93056 0.95442 0.48745 0.0
C546 C 0.93463 0.953 0.51928 0.0
C547 C 0.93929 0.9798 0.53633 0.0
H548 H 0.26513 0.79054 0.66843 0.0
H549 H 0.35212 0.79005 0.71995 0.0
H550 H 0.24725 0.74523 0.69544 0.0
H551 H 0.33383 0.74439 0.74726 0.0
H552 H 0.25003 0.70058 0.81138 0.0
H553 H 0.28625 0.73503 0.78472 0.0
H554 H 0.26406 0.68881 0.69932 0.0
H555 H 0.2276 0.65483 0.72573 0.0
C556 C 0.28041 0.78077 0.68555 0.0
C557 C 0.30993 0.79383 0.69218 0.0
C558 C 0.27036 0.75462 0.7007 0.0
C559 C 0.28953 0.74116 0.72292 0.0
C560 C 0.31891 0.75432 0.72994 0.0
C561 C 0.3292 0.78039 0.71444 0.0
C562 C 0.25392 0.69705 0.78715 0.0
C563 C 0.23552 0.67586 0.7703 0.0
C564 C 0.27465 0.71665 0.77195 0.0
C565 C 0.27711 0.71487 0.73998 0.0
C566 C 0.26195 0.69086 0.72394 0.0
C567 C 0.24113 0.67153 0.73901 0.0
H568 H 0.45981 0.05532 0.9193 0.0
H569 H 0.41145 0.98326 0.96819 0.0
H570 H 0.5097 0.03171 0.93044 0.0
H571 H 0.4616 0.96034 0.98075 0.0
H572 H 0.5544 0.91263 0.9788 0.0
H573 H 0.50509 0.93361 0.9606 0.0
H574 H 0.54343 0.02538 0.97251 0.0
H575 H 0.59285 0.00446 0.98921 0.0
C576 C 0.45992 0.03458 0.93275 0.0
C577 C 0.43185 0.02121 0.94313 0.0
C578 C 0.48851 0.02108 0.9392 0.0
C579 C 0.48968 0.99423 0.95664 0.0
C580 C 0.4615 0.98074 0.96684 0.0
C581 C 0.43281 0.994 0.95992 0.0
C582 C 0.55233 0.93726 0.9771 0.0
C583 C 0.57742 0.95692 0.98542 0.0
C584 C 0.52404 0.94928 0.96693 0.0
C585 C 0.52026 0.98117 0.96527 0.0
C586 C 0.54567 0.00071 0.97299 0.0
C587 C 0.574 0.98871 0.98273 0.0
H588 H 0.35574 0.26856 0.23263 0.0
H589 H 0.33365 0.2379 0.32388 0.0
H590 H 0.30613 0.24684 0.21391 0.0
H591 H 0.28452 0.21548 0.30503 0.0
H592 H 0.18431 0.23544 0.27186 0.0
H593 H 0.23819 0.2439 0.28883 0.0
H594 H 0.27158 0.20181 0.20559 0.0
H595 H 0.21773 0.19393 0.18819 0.0
C596 C 0.34075 0.25629 0.24842 0.0
C597 C 0.34797 0.25545 0.27973 0.0
C598 C 0.31243 0.24381 0.23773 0.0
C599 C 0.29132 0.23016 0.25826 0.0
C600 C 0.30012 0.22662 0.28897 0.0
C601 C 0.3282 0.23932 0.29968 0.0
C602 C 0.20313 0.22797 0.25723 0.0
C603 C 0.19686 0.21426 0.22868 0.0
C604 C 0.23394 0.23246 0.26706 0.0
C605 C 0.25893 0.22317 0.24858 0.0
C606 C 0.25268 0.20924 0.22015 0.0
C607 C 0.22187 0.20483 0.21026 0.0
H608 H 0.42473 0.43964 0.10239 0.0
H609 H 0.40623 0.50396 0.03009 0.0
H610 H 0.4493 0.40554 0.06562 0.0
H611 H 0.43188 0.47055 0.99374 0.0
H612 H 0.49469 0.41179 0.93721 0.0
H613 H 0.44703 0.42288 0.96586 0.0
H614 H 0.50133 0.42558 0.04979 0.0
H615 H 0.54828 0.41451 0.02168 0.0
C616 C 0.42501 0.44598 0.07848 0.0
C617 C 0.41508 0.47492 0.06918 0.0
C618 C 0.43888 0.42644 0.05746 0.0
C619 C 0.44361 0.43615 0.02727 0.0
C620 C 0.42887 0.46269 0.01699 0.0
C621 C 0.41447 0.482 0.03792 0.0
C622 C 0.49627 0.41468 0.96181 0.0
C623 C 0.52523 0.41274 0.97721 0.0
C624 C 0.46901 0.42064 0.97813 0.0
C625 C 0.4704 0.42441 0.01002 0.0
C626 C 0.4993 0.42183 0.02532 0.0
C627 C 0.52639 0.41612 0.00911 0.0
H628 H 0.79598 0.36202 0.26772 0.0
H629 H 0.87051 0.30346 0.2979 0.0
H630 H 0.75871 0.31937 0.27141 0.0
H631 H 0.83324 0.26039 0.30088 0.0
H632 H 0.74585 0.1953 0.31415 0.0
H633 H 0.78342 0.23733 0.32243 0.0
H634 H 0.75798 0.27496 0.23478 0.0
H635 H 0.72009 0.23341 0.22658 0.0
C636 C 0.80409 0.34023 0.27614 0.0
C637 C 0.83598 0.33569 0.2821 0.0
C638 C 0.78293 0.31581 0.2779 0.0
C639 C 0.79348 0.2865 0.28532 0.0
C640 C 0.82469 0.28278 0.29482 0.0
C641 C 0.84591 0.30741 0.29334 0.0
C642 C 0.7486 0.2123 0.29642 0.0
C643 C 0.72971 0.21134 0.26985 0.0
C644 C 0.77002 0.23635 0.30128 0.0
C645 C 0.77279 0.25972 0.27968 0.0
C646 C 0.75546 0.25764 0.25225 0.0
C647 C 0.73409 0.23367 0.24736 0.0
H648 H 0.0285 0.42945 0.54849 0.0
H649 H 0.08084 0.48513 0.48473 0.0
H650 H 0.98314 0.46195 0.5415 0.0
H651 H 0.03529 0.51702 0.47706 0.0
H652 H 0.96724 0.5908 0.50208 0.0
H653 H 0.00983 0.55494 0.50865 0.0
H654 H 0.94319 0.47922 0.50652 0.0
H655 H 0.90056 0.515 0.50096 0.0
C656 C 0.03 0.44808 0.53232 0.0
C657 C 0.05826 0.45503 0.51742 0.0
C658 C 0.00407 0.46675 0.52839 0.0
C659 C 0.00596 0.49246 0.5093 0.0
C660 C 0.03349 0.49793 0.49266 0.0
C661 C 0.05943 0.47947 0.49677 0.0
C662 C 0.96165 0.56655 0.50348 0.0
C663 C 0.93058 0.55575 0.50086 0.0
C664 C 0.98605 0.54598 0.50686 0.0
C665 C 0.97986 0.51423 0.50752 0.0
C666 C 0.94869 0.50354 0.50616 0.0
C667 C 0.92428 0.52409 0.50295 0.0
H668 H 0.69608 0.71551 0.3452 0.0
H669 H 0.79176 0.73603 0.3195 0.0
H670 H 0.67798 0.75667 0.31281 0.0
H671 H 0.77348 0.7773 0.28677 0.0
H672 H 0.71295 0.78789 0.19409 0.0
H673 H 0.74196 0.76785 0.23756 0.0
H674 H 0.67889 0.81283 0.29965 0.0
H675 H 0.64972 0.83279 0.25633 0.0
C676 C 0.71329 0.7294 0.33327 0.0
C677 C 0.74519 0.72227 0.33432 0.0
C678 C 0.70298 0.75314 0.31493 0.0
C679 C 0.72439 0.76989 0.29711 0.0
C680 C 0.75658 0.76451 0.30019 0.0
C681 C 0.76697 0.74098 0.31893 0.0
C682 C 0.7057 0.79407 0.21699 0.0
C683 C 0.67856 0.81112 0.22183 0.0
C684 C 0.72251 0.78289 0.24188 0.0
C685 C 0.71237 0.78862 0.27188 0.0
C686 C 0.68691 0.8079 0.27669 0.0
C687 C 0.67017 0.81911 0.25187 0.0
H688 H 0.83839 0.2182 0.72109 0.0
H689 H 0.75445 0.17027 0.68981 0.0
H690 H 0.80605 0.25674 0.74585 0.0
H691 H 0.72233 0.20899 0.71365 0.0
H692 H 0.67837 0.26002 0.79491 0.0
H693 H 0.70915 0.22348 0.76556 0.0
H694 H 0.76975 0.29741 0.73518 0.0
H695 H 0.73974 0.33354 0.76499 0.0
C696 C 0.81311 0.21624 0.7191 0.0
C697 C 0.79889 0.19119 0.70394 0.0
C698 C 0.79459 0.23824 0.73316 0.0
C699 C 0.76167 0.23559 0.73191 0.0
C700 C 0.7476 0.2112 0.71557 0.0
C701 C 0.76603 0.18917 0.70181 0.0
C702 C 0.69809 0.26836 0.78173 0.0
C703 C 0.70691 0.29943 0.78246 0.0
C704 C 0.71566 0.24756 0.76488 0.0
C705 C 0.74201 0.25767 0.74834 0.0
C706 C 0.75 0.28892 0.74824 0.0
C707 C 0.73269 0.30957 0.7652 0.0
H708 H 0.81698 0.75933 0.70294 0.0
H709 H 0.80219 0.82345 0.77731 0.0
H710 H 0.7611 0.74616 0.70293 0.0
H711 H 0.74666 0.81097 0.77668 0.0
H712 H 0.66745 0.73765 0.79595 0.0
H713 H 0.71739 0.76546 0.7922 0.0
H714 H 0.70837 0.76549 0.69357 0.0
H715 H 0.65897 0.73717 0.69745 0.0
C716 C 0.80175 0.77087 0.71889 0.0
C717 C 0.81392 0.7919 0.74042 0.0
C718 C 0.7698 0.76361 0.71875 0.0
C719 C 0.74969 0.77756 0.73994 0.0
C720 C 0.76173 0.79961 0.76045 0.0
C721 C 0.79354 0.80665 0.76077 0.0
C722 C 0.67576 0.74455 0.77364 0.0
C723 C 0.66003 0.73491 0.74698 0.0
C724 C 0.70426 0.76041 0.77141 0.0
C725 C 0.71694 0.76695 0.74249 0.0
C726 C 0.69944 0.75999 0.71604 0.0
C727 C 0.67121 0.74396 0.71828 0.0
H728 H 0.51923 0.45454 0.43826 0.0
H729 H 0.43165 0.44925 0.48705 0.0
H730 H 0.54586 0.47218 0.48523 0.0
H731 H 0.45754 0.46728 0.53315 0.0
H732 H 0.50058 0.50685 0.61242 0.0
H733 H 0.4939 0.46603 0.57437 0.0
H734 H 0.54098 0.52261 0.50752 0.0
H735 H 0.54888 0.56258 0.54583 0.0
C736 C 0.50592 0.45638 0.45919 0.0
C737 C 0.47333 0.4516 0.45902 0.0
C738 C 0.52107 0.46648 0.48598 0.0
C739 C 0.50372 0.4717 0.51274 0.0
C740 C 0.47176 0.46345 0.51311 0.0
C741 C 0.45674 0.45355 0.4865 0.0
C742 C 0.5099 0.51026 0.58969 0.0
C743 C 0.52429 0.53816 0.58167 0.0
C744 C 0.50631 0.48685 0.56801 0.0
C745 C 0.51639 0.4913 0.5378 0.0
C746 C 0.53315 0.51826 0.53061 0.0
C747 C 0.53722 0.54143 0.55244 0.0
H748 H 0.01465 0.55929 0.90155 0.0
H749 H 0.03557 0.46629 0.92702 0.0
H750 H 0.96136 0.55237 0.92038 0.0
H751 H 0.98273 0.45959 0.94608 0.0
H752 H 0.89776 0.44865 0.9903 0.0
H753 H 0.92489 0.45869 0.94237 0.0
H754 H 0.95009 0.54958 0.97518 0.0
H755 H 0.92302 0.53958 0.02263 0.0
C756 C 0.00772 0.53718 0.91059 0.0
C757 C 0.02957 0.51361 0.91376 0.0
C758 C 0.97713 0.53319 0.92112 0.0
C759 C 0.96792 0.5056 0.93498 0.0
C760 C 0.98891 0.48108 0.93527 0.0
C761 C 0.01945 0.48506 0.92481 0.0
C762 C 0.90772 0.47129 0.98656 0.0
C763 C 0.90944 0.493 0.01044 0.0
C764 C 0.92334 0.477 0.95916 0.0
C765 C 0.94053 0.50447 0.95551 0.0
C766 C 0.93734 0.52804 0.97733 0.0
C767 C 0.922 0.52227 0.00471 0.0
H768 H 0.12957 0.03944 0.18468 0.0
H769 H 0.03817 0.99806 0.19834 0.0
H770 H 0.1523 0.00245 0.21965 0.0
H771 H 0.06075 0.96113 0.23289 0.0
H772 H 0.11135 0.89496 0.29617 0.0
H773 H 0.09192 0.92107 0.25045 0.0
H774 H 0.15078 -0.0002 0.27302 0.0
H775 H 0.16993 0.97399 0.31774 0.0
C776 C 0.11438 0.02224 0.19481 0.0
C777 C 0.08185 0.02266 0.18981 0.0
C778 C 0.12735 0.00105 0.21502 0.0
C779 C 0.10812 0.97966 0.23046 0.0
C780 C 0.07626 0.97769 0.22228 0.0
C781 C 0.06322 0.99914 0.20251 0.0
C782 C 0.11967 0.91801 0.29147 0.0
C783 C 0.14213 0.93234 0.31072 0.0
C784 C 0.10884 0.93291 0.26507 0.0
C785 C 0.12033 0.9624 0.25738 0.0
C786 C 0.1422 0.97674 0.27721 0.0
C787 C 0.15277 0.96206 0.3034 0.0
H788 H 0.37391 0.87161 0.53599 0.0
H789 H 0.3288 0.94502 0.58459 0.0
H790 H 0.3272 0.86395 0.50424 0.0
H791 H 0.28255 0.9384 0.55178 0.0
H792 H 0.23265 0.84293 0.46241 0.0
H793 H 0.27201 0.84723 0.50358 0.0
H794 H 0.26731 0.94591 0.49964 0.0
H795 H 0.22854 0.94149 0.45888 0.0
C796 C 0.35394 0.88608 0.53995 0.0
C797 C 0.355 0.90883 0.56293 0.0
C798 C 0.32702 0.8815 0.5219 0.0
C799 C 0.30079 0.90018 0.52574 0.0
C800 C 0.30215 0.92335 0.54836 0.0
C801 C 0.32866 0.9272 0.56718 0.0
C802 C 0.23927 0.86542 0.4712 0.0
C803 C 0.2274 0.89186 0.45759 0.0
C804 C 0.26221 0.86795 0.49436 0.0
C805 C 0.27324 0.89696 0.50462 0.0
C806 C 0.25938 0.92322 0.49256 0.0
C807 C 0.23702 0.92069 0.4692 0.0
H808 H 0.3867 0.1324 0.81216 0.0
H809 H 0.29744 0.09529 0.78161 0.0
H810 H 0.41296 0.10313 0.77261 0.0
H811 H 0.32318 0.06513 0.74303 0.0
H812 H 0.37172 0.01133 0.67257 0.0
H813 H 0.34921 0.05428 0.70006 0.0
H814 H 0.42878 0.05556 0.76219 0.0
H815 H 0.45149 0.01399 0.73395 0.0
C816 C 0.37278 0.11748 0.79735 0.0
C817 C 0.34017 0.11529 0.80084 0.0
C818 C 0.38777 0.10071 0.77442 0.0
C819 C 0.37055 0.08089 0.7546 0.0
C820 C 0.33763 0.08015 0.75724 0.0
C821 C 0.32272 0.09717 0.77991 0.0
C822 C 0.38443 0.02105 0.69198 0.0
C823 C 0.41313 0.0088 0.70136 0.0
C824 C 0.37149 0.04575 0.70792 0.0
C825 C 0.38671 0.05858 0.73394 0.0
C826 C 0.41627 0.04714 0.74214 0.0
C827 C 0.42918 0.02263 0.72617 0.0
H828 H 0.25933 0.19465 0.9619 0.0
H829 H 0.23439 0.10351 0.93053 0.0
H830 H 0.22052 0.19039 0.00263 0.0
H831 H 0.19636 0.09862 0.97174 0.0
H832 H 0.15089 0.09042 0.06609 0.0
H833 H 0.19051 0.09439 0.02637 0.0
H834 H 0.1642 0.18795 0.00981 0.0
H835 H 0.12398 0.18364 0.04916 0.0
C836 C 0.24622 0.17335 0.96438 0.0
C837 C 0.25024 0.1492 0.94348 0.0
C838 C 0.22368 0.17098 0.98747 0.0
C839 C 0.20532 0.14404 0.99071 0.0
C840 C 0.21024 0.11954 0.97028 0.0
C841 C 0.23213 0.12226 0.94673 0.0
C842 C 0.15371 0.1119 0.0541 0.0
C843 C 0.13443 0.13678 0.06089 0.0
C844 C 0.17631 0.11413 0.03112 0.0
C845 C 0.18083 0.14157 0.01491 0.0
C846 C 0.16173 0.16659 0.02205 0.0
C847 C 0.13861 0.16412 0.04455 0.0
H848 H 0.129 0.0953 0.22762 0.0
H849 H 0.03119 0.11804 0.23047 0.0
H850 H 0.11853 0.05024 0.2591 0.0
H851 H 0.02023 0.07239 0.26078 0.0
H852 H 0.00883 0.96948 0.27974 0.0
H853 H 0.01803 0.01838 0.25563 0.0
H854 H 0.10324 0.03114 0.30855 0.0
H855 H 0.09366 0.98169 0.33331 0.0
C856 C 0.1051 0.09007 0.23426 0.0
C857 C 0.08069 0.10945 0.22573 0.0
C858 C 0.09914 0.0646 0.25278 0.0
C859 C 0.06845 0.05731 0.26223 0.0
C860 C 0.04405 0.0768 0.25345 0.0
C861 C 0.05021 0.10281 0.23582 0.0
C862 C 0.02956 0.98261 0.28646 0.0
C863 C 0.05106 0.97105 0.30786 0.0
C864 C 0.03462 0.01103 0.27282 0.0
C865 C 0.06164 0.02869 0.27971 0.0
C866 C 0.08253 0.01783 0.30212 0.0
C867 C 0.07713 0.98945 0.31627 0.0
H868 H 0.22201 0.9421 0.57542 0.0
H869 H 0.23287 0.84422 0.56765 0.0
H870 H 0.18109 0.93992 0.53596 0.0
H871 H 0.19198 0.842 0.52833 0.0
H872 H 0.09694 0.84414 0.48004 0.0
H873 H 0.13586 0.84789 0.52096 0.0
H874 H 0.17329 0.93084 0.48123 0.0
H875 H 0.13565 0.92576 0.43894 0.0
C876 C 0.21551 0.92006 0.56549 0.0
C877 C 0.23076 0.89332 0.57486 0.0
C878 C 0.19216 0.91884 0.54266 0.0
C879 C 0.18303 0.89077 0.52889 0.0
C880 C 0.19795 0.86398 0.53868 0.0
C881 C 0.22161 0.86526 0.56116 0.0
C882 C 0.11392 0.86281 0.47959 0.0
C883 C 0.1137 0.88408 0.45558 0.0
C884 C 0.13625 0.86503 0.5032 0.0
C885 C 0.1584 0.88926 0.50418 0.0
C886 C 0.15708 0.91152 0.48104 0.0
C887 C 0.13547 0.90862 0.4567 0.0
H888 H 0.28334 0.03392 0.82614 0.0
H889 H 0.38416 0.04132 0.82669 0.0
H890 H 0.28487 0.00368 0.77858 0.0
H891 H 0.38607 0.00985 0.78103 0.0
H892 H 0.29899 0.96186 0.68179 0.0
H893 H 0.29514 0.99823 0.72501 0.0
H894 H 0.38013 0.96173 0.76368 0.0
H895 H 0.38502 0.92811 0.72072 0.0
C896 C 0.30576 0.02976 0.81555 0.0
C897 C 0.33361 0.04079 0.82951 0.0
C898 C 0.3067 0.01227 0.78839 0.0
C899 C 0.33561 0.0044 0.77533 0.0
C900 C 0.36328 0.01554 0.78974 0.0
C901 C 0.36228 0.03399 0.81594 0.0
C902 C 0.31706 0.96224 0.69931 0.0
C903 C 0.3425 0.94224 0.69731 0.0
C904 C 0.31472 0.98279 0.72432 0.0
C905 C 0.33747 0.98334 0.74805 0.0
C906 C 0.36256 0.96307 0.74578 0.0
C907 C 0.36524 0.94335 0.72084 0.0
H908 H 0.31955 0.1477 0.99028 0.0
H909 H 0.27171 0.05971 0.99368 0.0
H910 H 0.28963 0.16447 0.03537 0.0
H911 H 0.24298 0.07594 0.0376 0.0
H912 H 0.20964 0.09779 0.12942 0.0
H913 H 0.24851 0.08684 0.09046 0.0
H914 H 0.23602 0.17686 0.05258 0.0
H915 H 0.19618 0.18738 0.09118 0.0
C916 C 0.30284 0.13198 0.0005 0.0
C917 C 0.29828 0.1023 0.98818 0.0
C918 C 0.28575 0.14152 0.02637 0.0
C919 C 0.26414 0.12141 0.04059 0.0
C920 C 0.25978 0.09196 0.02799 0.0
C921 C 0.27631 0.08268 0.00233 0.0
C922 C 0.2151 0.1152 0.11269 0.0
C923 C 0.19914 0.14304 0.11276 0.0
C924 C 0.23743 0.10898 0.0903 0.0
C925 C 0.24478 0.13058 0.06755 0.0
C926 C 0.23057 0.15942 0.06918 0.0
C927 C 0.20753 0.16537 0.09116 0.0
H928 H 0.99617 0.3328 0.22538 0.0
H929 H 0.91966 0.31658 0.16165 0.0
H930 H 0.01668 0.28261 0.21355 0.0
H931 H 0.94068 0.26619 0.1494 0.0
H932 H 0.00601 0.18749 0.11803 0.0
H933 H 0.98371 0.23816 0.12665 0.0
H934 H 1.00159 0.22967 0.22358 0.0
H935 H 0.02167 0.17815 0.21492 0.0
C936 C 0.98401 0.31881 0.20834 0.0
C937 C 0.95609 0.32881 0.19461 0.0
C938 C 0.99559 0.28976 0.20187 0.0
C939 C 0.98007 0.27008 0.18092 0.0
C940 C 0.95326 0.28076 0.16566 0.0
C941 C 0.94132 0.30978 0.17251 0.0
C942 C 0.00543 0.19674 0.1411 0.0
C943 C 0.01672 0.17962 0.16572 0.0
C944 C 0.99237 0.22557 0.1461 0.0
C945 C 0.99171 0.23844 0.17568 0.0
C946 C 0.00266 0.22091 0.20036 0.0
C947 C 0.01444 0.19154 0.19547 0.0
H948 H 0.52772 0.33316 0.8936 0.0
H949 H 0.57224 0.27394 0.95875 0.0
H950 H 0.47988 0.30362 0.89673 0.0
H951 H 0.52386 0.24211 0.9604 0.0
H952 H 0.42066 0.20717 0.97338 0.0
H953 H 0.46978 0.23729 0.97543 0.0
H954 H 0.45822 0.25877 0.87968 0.0
H955 H 0.40993 0.22956 0.87788 0.0
C956 C 0.5275 0.31316 0.90814 0.0
C957 C 0.55414 0.30546 0.92535 0.0
C958 C 0.49984 0.29601 0.90987 0.0
C959 C 0.49783 0.26985 0.92828 0.0
C960 C 0.52438 0.26218 0.94604 0.0
C961 C 0.55222 0.28013 0.94489 0.0
C962 C 0.42875 0.21845 0.95287 0.0
C963 C 0.41125 0.21593 0.92549 0.0
C964 C 0.45702 0.23558 0.95397 0.0
C965 C 0.46819 0.25082 0.92781 0.0
C966 C 0.45039 0.24816 0.90061 0.0
C967 C 0.42258 0.23097 0.89944 0.0
H968 H 0.98753 0.6625 0.39969 0.0
H969 H 0.95608 0.71986 0.47385 0.0
H970 H 0.03319 0.69578 0.39305 0.0
H971 H 1.00206 0.75347 0.46718 0.0
H972 H 0.10282 0.79225 0.46566 0.0
H973 H 0.05822 0.75754 0.4732 0.0
H974 H 0.05001 0.74459 0.37544 0.0
H975 H 0.09356 0.78081 0.36791 0.0
C976 C 0.99029 0.68228 0.41466 0.0
C977 C 0.9679 0.68832 0.4374 0.0
C978 C 0.0166 0.70155 0.41072 0.0
C979 C 0.02177 0.72746 0.42961 0.0
C980 C 0.99939 0.7335 0.45247 0.0
C981 C 0.97272 0.71438 0.45613 0.0
C982 C 0.09119 0.78247 0.44569 0.0
C983 C 0.10149 0.79005 0.41611 0.0
C984 C 0.06551 0.7624 0.45005 0.0
C985 C 0.04988 0.74836 0.42499 0.0
C986 C 0.06123 0.75483 0.39542 0.0
C987 C 0.08615 0.77586 0.39102 0.0
H988 H 0.00602 0.40951 0.10916 0.0
H989 H 0.92945 0.34438 0.09617 0.0
H990 H 0.04198 0.36794 0.11647 0.0
H991 H 0.96639 0.30219 0.10327 0.0
H992 H 0.05327 0.23525 0.10434 0.0
H993 H 0.0205 0.27621 0.08304 0.0
H994 H 0.04194 0.33274 0.1622 0.0
H995 H 0.07322 0.29236 0.1835 0.0
C996 C 0.99676 0.38629 0.10759 0.0
C997 C 0.96455 0.38041 0.10264 0.0
C998 C 0.01757 0.36242 0.11163 0.0
C999 C 0.00698 0.33185 0.11074 0.0
C1000 C 0.97517 0.32561 0.10405 0.0
C1001 C 0.95401 0.34973 0.10028 0.0
C1002 C 0.05123 0.25666 0.11682 0.0
C1003 C 0.06507 0.26029 0.14597 0.0
C1004 C 0.03235 0.27992 0.10478 0.0
C1005 C 0.02835 0.30747 0.1212 0.0
C1006 C 0.04444 0.31179 0.14902 0.0
C1007 C 0.06231 0.28851 0.1613 0.0
H1008 H 0.55402 0.71386 0.6596 0.0
H1009 H 0.48537 0.69135 0.72821 0.0
H1010 H 0.52448 0.75918 0.64604 0.0
H1011 H 0.45568 0.73664 0.71455 0.0
H1012 H 0.45587 0.84486 0.72118 0.0
H1013 H 0.47062 0.79109 0.72564 0.0
H1014 H 0.47698 0.78409 0.62744 0.0
H1015 H 0.46133 0.83769 0.62309 0.0
C1016 C 0.53187 0.71778 0.67083 0.0
C1017 C 0.52215 0.69907 0.69512 0.0
C1018 C 0.51501 0.74397 0.66324 0.0
C1019 C 0.48812 0.75198 0.6798 0.0
C1020 C 0.47667 0.73149 0.70185 0.0
C1021 C 0.49347 0.70531 0.70938 0.0
C1022 C 0.45938 0.83144 0.70056 0.0
C1023 C 0.45672 0.84508 0.67175 0.0
C1024 C 0.46775 0.80064 0.70303 0.0
C1025 C 0.47454 0.7831 0.67675 0.0
C1026 C 0.4713 0.79675 0.64795 0.0
C1027 C 0.46214 0.82731 0.64547 0.0
H1028 H 0.90654 0.67249 0.3584 0.0
H1029 H 0.87508 0.74569 0.41712 0.0
H1030 H 0.95519 0.70115 0.34899 0.0
H1031 H 0.92276 0.77458 0.40707 0.0
H1032 H 0.01591 0.81747 0.39988 0.0
H1033 H 0.97621 0.78036 0.4142 0.0
H1034 H 0.97326 0.74505 0.32155 0.0
H1035 H 0.01332 0.78287 0.30704 0.0
C1036 C 0.91009 0.69456 0.36953 0.0
C1037 C 0.88673 0.70688 0.38836 0.0
C1038 C 0.93788 0.71115 0.36388 0.0
C1039 C 0.94304 0.74039 0.37702 0.0
C1040 C 0.92011 0.75201 0.39682 0.0
C1041 C 0.89247 0.73546 0.40248 0.0
C1042 C 0.0077 0.80116 0.38266 0.0
C1043 C 0.01829 0.8029 0.3523 0.0
C1044 C 0.98444 0.78001 0.39085 0.0
C1045 C 0.97114 0.75965 0.36909 0.0
C1046 C 0.98315 0.76002 0.33912 0.0
C1047 C 0.00625 0.78162 0.33075 0.0
H1048 H 0.4362 0.15977 0.82869 0.0
H1049 H 0.45653 0.15277 0.92504 0.0
H1050 H 0.47988 0.19629 0.82307 0.0
H1051 H 0.50085 0.18864 0.91947 0.0
H1052 H 0.54067 0.28481 0.83066 0.0
H1053 H 0.49698 0.24818 0.83582 0.0
H1054 H 0.55236 0.19488 0.89821 0.0
H1055 H 0.59579 0.23137 0.89308 0.0
C1056 C 0.44992 0.16622 0.84874 0.0
C1057 C 0.44252 0.15379 0.87741 0.0
C1058 C 0.47503 0.1872 0.84554 0.0
C1059 C 0.4941 0.1957 0.87079 0.0
C1060 C 0.48702 0.18259 0.89938 0.0
C1061 C 0.46133 0.16228 0.90272 0.0
C1062 C 0.54355 0.26524 0.84542 0.0
C1063 C 0.57197 0.26111 0.86129 0.0
C1064 C 0.5185 0.24405 0.84828 0.0
C1065 C 0.52094 0.2183 0.86741 0.0
C1066 C 0.5493 0.21443 0.88347 0.0
C1067 C 0.57441 0.23536 0.88034 0.0
H1068 H 0.88131 0.08577 0.77203 0.0
H1069 H 0.93046 0.04921 0.69437 0.0
H1070 H 0.88883 0.03814 0.79935 0.0
H1071 H 0.93755 0.00071 0.72186 0.0
H1072 H 0.9463 0.93025 0.81576 0.0
H1073 H 0.95675 0.97434 0.7825 0.0
H1074 H 0.85735 0.98749 0.77222 0.0
H1075 H 0.84675 0.94359 0.80457 0.0
C1076 C 0.89512 0.06805 0.76139 0.0
C1077 C 0.90487 0.071 0.73096 0.0
C1078 C 0.89909 0.04063 0.77688 0.0
C1079 C 0.91289 0.01553 0.7623 0.0
C1080 C 0.92662 0.01972 0.73346 0.0
C1081 C 0.92281 0.04756 0.71788 0.0
C1082 C 0.92667 0.94172 0.80532 0.0
C1083 C 0.89564 0.93368 0.81334 0.0
C1084 C 0.93274 0.96709 0.78649 0.0
C1085 C 0.90785 0.98469 0.77558 0.0
C1086 C 0.87696 0.97463 0.78093 0.0
C1087 C 0.87092 0.9493 0.7993 0.0
H1088 H 0.75534 0.02508 0.44901 0.0
H1089 H 0.70538 0.1093 0.46267 0.0
H1090 H 0.78829 0.03694 0.49284 0.0
H1091 H 0.73894 0.1215 0.50698 0.0
H1092 H 0.8212 0.14425 0.57251 0.0
H1093 H 0.79014 0.1352 0.5259 0.0
H1094 H 0.78597 0.03839 0.54597 0.0
H1095 H 0.81653 0.04764 0.59232 0.0
C1096 C 0.75149 0.04635 0.46127 0.0
C1097 C 0.72775 0.06633 0.45211 0.0
C1098 C 0.77024 0.05298 0.48678 0.0
C1099 C 0.7662 0.08005 0.50383 0.0
C1100 C 0.74302 0.10059 0.49424 0.0
C1101 C 0.72382 0.09368 0.46876 0.0
C1102 C 0.81421 0.12099 0.56644 0.0
C1103 C 0.82151 0.09659 0.58581 0.0
C1104 C 0.79604 0.11582 0.53997 0.0
C1105 C 0.78567 0.08602 0.53186 0.0
C1106 C 0.79397 0.06159 0.55096 0.0
C1107 C 0.8115 0.06683 0.57761 0.0
H1108 H 0.57379 0.93816 0.17166 0.0
H1109 H 0.66753 0.90363 0.18065 0.0
H1110 H 0.58549 0.97662 0.2109 0.0
H1111 H 0.6786 0.93973 0.2212 0.0
H1112 H 0.70161 0.01164 0.28856 0.0
H1113 H 0.69041 0.98533 0.24043 0.0
H1114 H 0.59112 0.98765 0.26045 0.0
H1115 H 0.6028 0.01659 0.3069 0.0
C1116 C 0.59711 0.93922 0.18164 0.0
C1117 C 0.61984 0.91818 0.17256 0.0
C1118 C 0.60374 0.96089 0.20476 0.0
C1119 C 0.63313 0.9617 0.2199 0.0
C1120 C 0.65598 0.94094 0.21002 0.0
C1121 C 0.64963 0.91998 0.18641 0.0
C1122 C 0.67739 0.0074 0.2819 0.0
C1123 C 0.65307 0.0163 0.30118 0.0
C1124 C 0.67082 0.99151 0.25464 0.0
C1125 C 0.63975 0.98296 0.24654 0.0
C1126 C 0.61535 0.99364 0.26526 0.0
C1127 C 0.62196 0.01047 0.29203 0.0
H1128 H 0.8396 0.81599 0.95015 0.0
H1129 H 0.83726 0.90661 0.9898 0.0
H1130 H 0.80045 0.79839 0.98733 0.0
H1131 H 0.80154 0.88886 0.02865 0.0
H1132 H 0.70694 0.86591 0.06582 0.0
H1133 H 0.74982 0.87907 0.03247 0.0
H1134 H 0.78244 0.78589 0.03617 0.0
H1135 H 0.73882 0.77269 0.06979 0.0
C1136 C 0.83117 0.83191 0.96719 0.0
C1137 C 0.8403 0.86292 0.96624 0.0
C1138 C 0.80894 0.82186 0.98876 0.0
C1139 C 0.7966 0.84245 0.01057 0.0
C1140 C 0.80886 0.87257 0.01144 0.0
C1141 C 0.82987 0.88273 0.98935 0.0
C1142 C 0.72305 0.84809 0.05938 0.0
C1143 C 0.71921 0.8182 0.07042 0.0
C1144 C 0.74807 0.85569 0.04031 0.0
C1145 C 0.77002 0.83363 0.03127 0.0
C1146 C 0.76597 0.80352 0.04211 0.0
C1147 C 0.74097 0.79595 0.06155 0.0
H1148 H 0.90165 0.00768 0.59119 0.0
H1149 H 0.86536 0.05681 0.66803 0.0
H1150 H 0.90245 0.96086 0.62111 0.0
H1151 H 0.86574 0.01032 0.69864 0.0
H1152 H 0.8646 0.915 0.74288 0.0
H1153 H 0.85194 0.95888 0.71105 0.0
H1154 H 0.93803 0.94657 0.66123 0.0
H1155 H 0.9501 0.90236 0.69276 0.0
C1156 C 0.89305 0.00835 0.61438 0.0
C1157 C 0.88487 0.03629 0.62806 0.0
C1158 C 0.89387 0.98158 0.6317 0.0
C1159 C 0.88588 0.98217 0.66289 0.0
C1160 C 0.87305 0.0091 0.675 0.0
C1161 C 0.87288 0.03591 0.65769 0.0
C1162 C 0.88126 0.92238 0.72576 0.0
C1163 C 0.90873 0.90584 0.72079 0.0
C1164 C 0.87379 0.94723 0.70719 0.0
C1165 C 0.89362 0.95598 0.68313 0.0
C1166 C 0.9217 0.93999 0.67895 0.0
C1167 C 0.92901 0.91504 0.69737 0.0
H1168 H 0.84381 0.05867 0.46223 0.0
H1169 H 0.84786 0.15183 0.49603 0.0
H1170 H 0.8038 0.07205 0.42588 0.0
H1171 H 0.8078 0.16588 0.4588 0.0
H1172 H 0.71026 0.17373 0.41644 0.0
H1173 H 0.75551 0.16316 0.44858 0.0
H1174 H 0.78363 0.093 0.38424 0.0
H1175 H 0.7372 0.10226 0.35368 0.0
C1176 C 0.83634 0.08225 0.46167 0.0
C1177 C 0.84846 0.10395 0.48271 0.0
C1178 C 0.81337 0.09016 0.44037 0.0
C1179 C 0.80147 0.12004 0.4395 0.0
C1180 C 0.81522 0.14231 0.45931 0.0
C1181 C 0.83853 0.13438 0.48055 0.0
C1182 C 0.726 0.15579 0.40948 0.0
C1183 C 0.71987 0.13856 0.38275 0.0
C1184 C 0.75244 0.15005 0.42763 0.0
C1185 C 0.77389 0.12723 0.41929 0.0
C1186 C 0.76765 0.11023 0.39223 0.0
C1187 C 0.74086 0.11554 0.3745 0.0
H1188 H 0.70769 0.95326 0.12919 0.0
H1189 H 0.61333 0.97237 0.10064 0.0
H1190 H 0.70269 0.98853 0.1723 0.0
H1191 H 0.60896 0.01012 0.141 0.0
H1192 H 0.59814 0.06795 0.22429 0.0
H1193 H 0.60186 0.02624 0.18771 0.0
H1194 H 0.70325 0.03574 0.1905 0.0
H1195 H 0.69873 0.07574 0.229 0.0
C1196 C 0.68572 0.96489 0.13252 0.0
C1197 C 0.66055 0.95952 0.11235 0.0
C1198 C 0.68299 0.98588 0.15677 0.0
C1199 C 0.65544 0.00304 0.16058 0.0
C1200 C 0.63031 0.99721 0.14003 0.0
C1201 C 0.63268 0.97538 0.11666 0.0
C1202 C 0.62113 0.06016 0.21771 0.0
C1203 C 0.64813 0.07429 0.22997 0.0
C1204 C 0.62348 0.03662 0.19603 0.0
C1205 C 0.65298 0.02709 0.18533 0.0
C1206 C 0.68003 0.04133 0.19823 0.0
C1207 C 0.67758 0.06435 0.22054 0.0
H1208 H 0.74973 0.91847 0.97284 0.0
H1209 H 0.69652 0.8334 0.96817 0.0
H1210 H 0.78543 0.89975 0.93528 0.0
H1211 H 0.73344 0.81406 0.92966 0.0
H1212 H 0.82824 0.78518 0.88208 0.0
H1213 H 0.78723 0.79857 0.91854 0.0
H1214 H 0.78627 0.89033 0.88231 0.0
H1215 H 0.8265 0.87666 0.84588 0.0
C1216 C 0.74551 0.8956 0.96369 0.0
C1217 C 0.71966 0.87772 0.97315 0.0
C1218 C 0.76612 0.88487 0.94182 0.0
C1219 C 0.76202 0.85567 0.92863 0.0
C1220 C 0.73718 0.83682 0.93917 0.0
C1221 C 0.71607 0.84781 0.96124 0.0
C1222 C 0.81929 0.80825 0.88208 0.0
C1223 C 0.83175 0.8304 0.86211 0.0
C1224 C 0.7955 0.81581 0.90273 0.0
C1225 C 0.78402 0.8458 0.9041 0.0
C1226 C 0.79541 0.86734 0.8829 0.0
C1227 C 0.81887 0.85972 0.86223 0.0
H1228 H 0.97414 0.77683 0.93868 0.0
H1229 H 0.00733 0.84552 0.87568 0.0
H1230 H 0.01792 0.74419 0.92488 0.0
H1231 H 0.05165 0.81395 0.86305 0.0
H1232 H 0.09265 0.7357 0.81064 0.0
H1233 H 0.05718 0.77119 0.83311 0.0
H1234 H 0.07159 0.73036 0.92178 0.0
H1235 H 0.10678 0.69294 0.89834 0.0
C1236 C 0.99105 0.78517 0.92224 0.0
C1237 C 0.98678 0.81343 0.90768 0.0
C1238 C 0.01646 0.76661 0.91462 0.0
C1239 C 0.03814 0.77597 0.89225 0.0
C1240 C 0.03489 0.80528 0.87946 0.0
C1241 C 0.00942 0.82354 0.88676 0.0
C1242 C 0.08875 0.73425 0.83505 0.0
C1243 C 0.10273 0.71127 0.85263 0.0
C1244 C 0.06847 0.75511 0.84814 0.0
C1245 C 0.06168 0.75429 0.87953 0.0
C1246 C 0.07614 0.73172 0.8975 0.0
C1247 C 0.09652 0.71041 0.88417 0.0
H1248 H 0.50525 0.60169 0.14698 0.0
H1249 H 0.44294 0.6448 0.08257 0.0
H1250 H 0.54021 0.64618 0.14562 0.0
H1251 H 0.47927 0.68922 0.08043 0.0
H1252 H 0.57627 0.75236 0.07934 0.0
H1253 H 0.54503 0.70483 0.06992 0.0
H1254 H 0.52147 0.70185 0.16565 0.0
H1255 H 0.55117 0.74878 0.17483 0.0
C1256 C 0.49922 0.62044 0.13209 0.0
C1257 C 0.47106 0.61982 0.11514 0.0
C1258 C 0.5194 0.64585 0.13124 0.0
C1259 C 0.51229 0.67112 0.11303 0.0
C1260 C 0.48507 0.67003 0.09475 0.0
C1261 C 0.4643 0.64474 0.09611 0.0
C1262 C 0.56435 0.74141 0.0982 0.0
C1263 C 0.56569 0.75461 0.12766 0.0
C1264 C 0.54647 0.71442 0.09283 0.0
C1265 C 0.53088 0.69985 0.11713 0.0
C1266 C 0.53329 0.71258 0.14656 0.0
C1267 C 0.55029 0.73957 0.15173 0.0
H1268 H 0.02344 0.31713 0.54566 0.0
H1269 H 0.08338 0.31474 0.62562 0.0
H1270 H 0.99103 0.27629 0.56633 0.0
H1271 H 0.05083 0.27314 0.64639 0.0
H1272 H 0.00383 0.17644 0.6553 0.0
H1273 H 0.03668 0.21918 0.63787 0.0
H1274 H 0.95411 0.26502 0.60528 0.0
H1275 H 0.92149 0.22228 0.62214 0.0
C1276 C 0.02971 0.30794 0.56776 0.0
C1277 C 0.05611 0.31927 0.58391 0.0
C1278 C 0.01089 0.28456 0.57978 0.0
C1279 C 0.01813 0.27133 0.60814 0.0
C1280 C 0.04463 0.28259 0.62438 0.0
C1281 C 0.06322 0.30653 0.61255 0.0
C1282 C 0.99268 0.19567 0.64446 0.0
C1283 C 0.95994 0.19581 0.6401 0.0
C1284 C 0.01152 0.22035 0.63472 0.0
C1285 C 0.99813 0.24569 0.62017 0.0
C1286 C 0.96538 0.24579 0.61599 0.0
C1287 C 0.94659 0.22123 0.62577 0.0
H1288 H 0.02945 0.65216 0.90567 0.0
H1289 H 0.07633 0.63663 0.81997 0.0
H1290 H 0.99745 0.69068 0.88204 0.0
H1291 H 0.04678 0.67726 0.79677 0.0
H1292 H 0.97411 0.73553 0.75301 0.0
H1293 H 0.00312 0.69487 0.7763 0.0
H1294 H 0.99137 0.73771 0.86496 0.0
H1295 H 0.96145 0.77804 0.84155 0.0
C1296 C 0.03326 0.65733 0.88178 0.0
C1297 C 0.05585 0.6416 0.86483 0.0
C1298 C 0.01503 0.67986 0.86815 0.0
C1299 C 0.01928 0.68783 0.83724 0.0
C1300 C 0.04184 0.67169 0.82032 0.0
C1301 C 0.0594 0.64857 0.83379 0.0
C1302 C 0.97811 0.73657 0.7775 0.0
C1303 C 0.96558 0.76031 0.79534 0.0
C1304 C 0.9951 0.71313 0.79101 0.0
C1305 C 1.00061 0.71285 0.82281 0.0
C1306 C 0.98807 0.73682 0.84054 0.0
C1307 C 0.97089 0.76024 0.82705 0.0
H1308 H 0.47624 0.27251 0.41231 0.0
H1309 H 0.47477 0.23085 0.32238 0.0
H1310 H 0.51367 0.23351 0.42945 0.0
H1311 H 0.51113 0.19293 0.33889 0.0
H1312 H 0.56242 0.11552 0.37447 0.0
H1313 H 0.51889 0.14985 0.36843 0.0
H1314 H 0.56905 0.21963 0.42079 0.0
H1315 H 0.61247 0.18418 0.42822 0.0
C1316 C 0.48355 0.25491 0.39641 0.0
C1317 C 0.47338 0.25533 0.36577 0.0
C1318 C 0.50508 0.23273 0.40608 0.0
C1319 C 0.51574 0.21013 0.38549 0.0
C1320 C 0.5035 0.2096 0.35561 0.0
C1321 C 0.48279 0.23177 0.34596 0.0
C1322 C 0.56429 0.13815 0.38476 0.0
C1323 C 0.5912 0.14727 0.40138 0.0
C1324 C 0.53921 0.15793 0.38133 0.0
C1325 C 0.5405 0.18779 0.39374 0.0
C1326 C 0.56705 0.19671 0.41119 0.0
C1327 C 0.59211 0.17657 0.4151 0.0
H1328 H 0.0423 0.11658 0.57468 0.0
H1329 H 0.97664 0.18904 0.5585 0.0
H1330 H 0.08539 0.15315 0.57371 0.0
H1331 H 0.02067 0.22618 0.55738 0.0
H1332 H 0.13643 0.22532 0.63143 0.0
H1333 H 0.0972 0.18878 0.61412 0.0
H1334 H 0.073 0.24788 0.53905 0.0
H1335 H 0.11306 0.28547 0.5571 0.0
C1336 C 0.03702 0.14045 0.57085 0.0
C1337 C 0.00588 0.15009 0.56791 0.0
C1338 C 0.06185 0.16143 0.57013 0.0
C1339 C 0.05637 0.19284 0.56694 0.0
C1340 C 0.02555 0.20226 0.56079 0.0
C1341 C 1.00035 0.18103 0.56145 0.0
C1342 C 0.12334 0.2304 0.6108 0.0
C1343 C 0.12782 0.25835 0.59571 0.0
C1344 C 0.1008 0.20928 0.60072 0.0
C1345 C 0.08198 0.21519 0.575 0.0
C1346 C 0.08714 0.24266 0.55894 0.0
C1347 C 0.11026 0.26397 0.56902 0.0
H1348 H 0.46166 0.74879 0.15579 0.0
H1349 H 0.42344 0.72875 0.066 0.0
H1350 H 0.50219 0.78051 0.13348 0.0
H1351 H 0.46434 0.76088 0.04325 0.0
H1352 H 0.56033 0.79393 0.00924 0.0
H1353 H 0.51661 0.76479 0.03065 0.0
H1354 H 0.51902 0.8239 0.11064 0.0
H1355 H 0.56406 0.85134 0.09003 0.0
C1356 C 0.46181 0.75124 0.13116 0.0
C1357 C 0.4393 0.73588 0.11275 0.0
C1358 C 0.48521 0.76971 0.1182 0.0
C1359 C 0.48728 0.77327 0.08628 0.0
C1360 C 0.46428 0.75831 0.06784 0.0
C1361 C 0.44057 0.73997 0.0809 0.0
C1362 C 0.55164 0.80045 0.03154 0.0
C1363 C 0.56601 0.82471 0.04807 0.0
C1364 C 0.52612 0.78401 0.04371 0.0
C1365 C 0.51376 0.79173 0.07256 0.0
C1366 C 0.52796 0.81651 0.08874 0.0
C1367 C 0.55392 0.83243 0.07688 0.0
H1368 H 0.65527 0.43502 0.76136 0.0
H1369 H 0.56896 0.42717 0.81186 0.0
H1370 H 0.63751 0.48031 0.73728 0.0
H1371 H 0.54935 0.4727 0.78526 0.0
H1372 H 0.53709 0.57293 0.75342 0.0
H1373 H 0.55248 0.5262 0.77997 0.0
H1374 H 0.60796 0.50078 0.70151 0.0
H1375 H 0.59527 0.54807 0.67711 0.0
C1376 C 0.63191 0.44266 0.76683 0.0
C1377 C 0.61359 0.42736 0.78869 0.0
C1378 C 0.62137 0.46873 0.75244 0.0
C1379 C 0.59164 0.48048 0.75871 0.0
C1380 C 0.57257 0.46467 0.77998 0.0
C1381 C 0.58349 0.43829 0.7949 0.0
C1382 C 0.55344 0.55766 0.74251 0.0
C1383 C 0.56564 0.56468 0.71351 0.0
C1384 C 0.56169 0.53048 0.75737 0.0
C1385 C 0.58167 0.50932 0.74318 0.0
C1386 C 0.59352 0.5166 0.71405 0.0
C1387 C 0.58625 0.54405 0.69985 0.0
H1388 H 0.78777 0.43038 0.0494 0.0
H1389 H 0.82314 0.34186 0.02361 0.0
H1390 H 0.74305 0.42239 0.01563 0.0
H1391 H 0.7785 0.33392 0.98897 0.0
H1392 H 0.68855 0.32063 0.93504 0.0
H1393 H 0.72423 0.32527 0.97934 0.0
H1394 H 0.73188 0.42297 0.96459 0.0
H1395 H 0.69624 0.41828 0.92188 0.0
C1396 C 0.78576 0.40895 0.03682 0.0
C1397 C 0.80898 0.3867 0.03936 0.0
C1398 C 0.76028 0.40452 0.01692 0.0
C1399 C 0.75704 0.37756 0.99911 0.0
C1400 C 0.77975 0.35476 0.00255 0.0
C1401 C 0.8055 0.35937 0.02232 0.0
C1402 C 0.69694 0.34314 0.94225 0.0
C1403 C 0.68937 0.3691 0.92517 0.0
C1404 C 0.71794 0.3458 0.96719 0.0
C1405 C 0.73152 0.37448 0.97548 0.0
C1406 C 0.7219 0.40053 0.95951 0.0
C1407 C 0.70122 0.39786 0.93485 0.0
H1408 H 0.76247 0.55739 0.28437 0.0
H1409 H 0.84628 0.61413 0.29004 0.0
H1410 H 0.78299 0.53165 0.23931 0.0
H1411 H 0.86644 0.58917 0.24451 0.0
H1412 H 0.91097 0.51014 0.19319 0.0
H1413 H 0.88791 0.54229 0.23198 0.0
H1414 H 0.7976 0.53265 0.18705 0.0
H1415 H 0.82146 0.50127 0.14718 0.0
C1416 C 0.78519 0.56453 0.27584 0.0
C1417 C 0.80308 0.58731 0.29122 0.0
C1418 C 0.79678 0.55008 0.24968 0.0
C1419 C 0.82655 0.55808 0.23826 0.0
C1420 C 0.84377 0.58183 0.25298 0.0
C1421 C 0.83224 0.59615 0.27918 0.0
C1422 C 0.88617 0.51485 0.1915 0.0
C1423 C 0.86778 0.50228 0.16759 0.0
C1424 C 0.87293 0.53363 0.21367 0.0
C1425 C 0.84073 0.53997 0.21297 0.0
C1426 C 0.82232 0.52765 0.18881 0.0
C1427 C 0.83581 0.50925 0.16619 0.0
H1428 H 0.7557 0.67675 0.45611 0.0
H1429 H 0.73652 0.57952 0.4569 0.0
H1430 H 0.72108 0.68366 0.49957 0.0
H1431 H 0.70281 0.58601 0.50131 0.0
H1432 H 0.65032 0.6035 0.58825 0.0
H1433 H 0.69475 0.59909 0.55369 0.0
H1434 H 0.6668 0.68204 0.50847 0.0
H1435 H 0.62315 0.68684 0.54358 0.0
C1436 C 0.74522 0.65666 0.46654 0.0
C1437 C 0.7492 0.62754 0.45345 0.0
C1438 C 0.72495 0.66062 0.49125 0.0
C1439 C 0.70907 0.63543 0.50426 0.0
C1440 C 0.71495 0.60597 0.4924 0.0
C1441 C 0.73442 0.60214 0.46702 0.0
C1442 C 0.65406 0.62112 0.5713 0.0
C1443 C 0.63317 0.64555 0.56871 0.0
C1444 C 0.67937 0.61841 0.55123 0.0
C1445 C 0.68441 0.64004 0.52799 0.0
C1446 C 0.66412 0.6651 0.52624 0.0
C1447 C 0.63883 0.66777 0.54627 0.0
H1448 H 0.6718 0.44111 0.85347 0.0
H1449 H 0.6039 0.47921 0.91456 0.0
H1450 H 0.67217 0.48826 0.82367 0.0
H1451 H 0.60233 0.52529 0.88453 0.0
H1452 H 0.60631 0.61122 0.83453 0.0
H1453 H 0.6203 0.56969 0.86726 0.0
H1454 H 0.64609 0.51586 0.78816 0.0
H1455 H 0.63376 0.55899 0.75512 0.0
C1456 C 0.6575 0.45997 0.86085 0.0
C1457 C 0.63819 0.45677 0.8865 0.0
C1458 C 0.65723 0.48691 0.84351 0.0
C1459 C 0.63703 0.51106 0.85111 0.0
C1460 C 0.61892 0.50805 0.8779 0.0
C1461 C 0.61982 0.48148 0.89547 0.0
C1462 C 0.61479 0.59049 0.82385 0.0
C1463 C 0.6178 0.5882 0.79187 0.0
C1464 C 0.62266 0.56628 0.84285 0.0
C1465 C 0.63305 0.53835 0.83065 0.0
C1466 C 0.63763 0.53656 0.79868 0.0
C1467 C 0.63034 0.56128 0.77955 0.0
H1468 H 0.7949 0.4568 0.13949 0.0
H1469 H 0.79876 0.35882 0.14857 0.0
H1470 H 0.75286 0.45135 0.10268 0.0
H1471 H 0.75426 0.35286 0.11338 0.0
H1472 H 0.68976 0.35182 0.02758 0.0
H1473 H 0.73116 0.35295 0.06641 0.0
H1474 H 0.70205 0.44332 0.0947 0.0
H1475 H 0.66294 0.44288 0.05467 0.0
C1476 C 0.78648 0.43401 0.13382 0.0
C1477 C 0.80034 0.4084 0.14706 0.0
C1478 C 0.76166 0.43071 0.11294 0.0
C1479 C 0.74885 0.40159 0.10526 0.0
C1480 C 0.76313 0.37575 0.11828 0.0
C1481 C 0.78873 0.37912 0.13865 0.0
C1482 C 0.69252 0.37199 0.04198 0.0
C1483 C 0.67378 0.39772 0.03704 0.0
C1484 C 0.71606 0.37253 0.06477 0.0
C1485 C 0.72127 0.39877 0.08344 0.0
C1486 C 0.7005 0.42331 0.07996 0.0
C1487 C 0.6775 0.42294 0.05701 0.0
H1488 H 0.8142 0.55795 0.3859 0.0
H1489 H 0.89707 0.61295 0.36805 0.0
H1490 H 0.82533 0.5257 0.34267 0.0
H1491 H 0.90724 0.58157 0.32265 0.0
H1492 H 0.93988 0.49131 0.2761 0.0
H1493 H 0.92645 0.53355 0.3101 0.0
H1494 H 0.82811 0.51466 0.29253 0.0
H1495 H 0.84179 0.47295 0.25841 0.0
C1496 C 0.83442 0.5638 0.37215 0.0
C1497 C 0.85496 0.58794 0.38089 0.0
C1498 C 0.84078 0.5452 0.34693 0.0
C1499 C 0.86755 0.55045 0.32898 0.0
C1500 C 0.88686 0.57613 0.33629 0.0
C1501 C 0.88075 0.59455 0.36206 0.0
C1502 C 0.91543 0.49707 0.27869 0.0
C1503 C 0.89191 0.47911 0.26423 0.0
C1504 C 0.90763 0.52135 0.29826 0.0
C1505 C 0.87605 0.52791 0.30435 0.0
C1506 C 0.85267 0.51054 0.28874 0.0
C1507 C 0.86048 0.4867 0.26875 0.0
H1508 H 0.78656 0.6908 0.5122 0.0
H1509 H 0.82269 0.61851 0.56796 0.0
H1510 H 0.74459 0.69884 0.54911 0.0
H1511 H 0.7823 0.62723 0.60563 0.0
H1512 H 0.68576 0.617 0.64614 0.0
H1513 H 0.73127 0.61556 0.61312 0.0
H1514 H 0.72013 0.71168 0.59308 0.0
H1515 H 0.67359 0.71236 0.62458 0.0
C1516 C 0.78625 0.67751 0.533 0.0
C1517 C 0.80777 0.65395 0.53709 0.0
C1518 C 0.76198 0.68186 0.55425 0.0
C1519 C 0.75878 0.66277 0.58009 0.0
C1520 C 0.78256 0.64143 0.58547 0.0
C1521 C 0.80637 0.63689 0.56417 0.0
C1522 C 0.69296 0.63777 0.63456 0.0
C1523 C 0.67574 0.66469 0.63801 0.0
C1524 C 0.71956 0.63718 0.61583 0.0
C1525 C 0.73026 0.66368 0.60036 0.0
C1526 C 0.71286 0.6906 0.60397 0.0
C1527 C 0.68601 0.69103 0.62232 0.0
H1528 H 0.51564 0.70037 0.58228 0.0
H1529 H 0.4439 0.6813 0.64892 0.0
H1530 H 0.48364 0.74144 0.56119 0.0
H1531 H 0.41273 0.72238 0.62886 0.0
H1532 H 0.35014 0.78399 0.58826 0.0
H1533 H 0.38072 0.73745 0.58748 0.0
H1534 H 0.46486 0.79137 0.57186 0.0
H1535 H 0.43397 0.83772 0.57194 0.0
C1536 C 0.4932 0.70509 0.59256 0.0
C1537 C 0.48224 0.68738 0.61714 0.0
C1538 C 0.47475 0.72851 0.58038 0.0
C1539 C 0.44502 0.73479 0.59262 0.0
C1540 C 0.43474 0.71753 0.6178 0.0
C1541 C 0.45292 0.69414 0.62969 0.0
C1542 C 0.37487 0.78578 0.58296 0.0
C1543 C 0.38985 0.81457 0.58116 0.0
C1544 C 0.39261 0.75909 0.5832 0.0
C1545 C 0.42559 0.76078 0.58155 0.0
C1546 C 0.43967 0.78909 0.57406 0.0
C1547 C 0.4219 0.81578 0.57389 0.0
H1548 H 0.43455 0.60251 0.17627 0.0
H1549 H 0.37324 0.63047 0.24871 0.0
H1550 H 0.46115 0.56759 0.21168 0.0
H1551 H 0.39972 0.59714 0.28389 0.0
H1552 H 0.4474 0.54271 0.34759 0.0
H1553 H 0.44825 0.58393 0.31068 0.0
H1554 H 0.43878 0.5178 0.23702 0.0
H1555 H 0.43949 0.47604 0.27446 0.0
C1556 C 0.4274 0.6018 0.19981 0.0
C1557 C 0.4012 0.61825 0.20939 0.0
C1558 C 0.44253 0.58188 0.2201 0.0
C1559 C 0.43224 0.57919 0.2505 0.0
C1560 C 0.40839 0.59852 0.26071 0.0
C1561 C 0.39294 0.61753 0.2404 0.0
C1562 C 0.44633 0.53683 0.32347 0.0
C1563 C 0.4421 0.50621 0.31388 0.0
C1564 C 0.44694 0.5605 0.30231 0.0
C1565 C 0.44268 0.55423 0.27101 0.0
C1566 C 0.44205 0.5234 0.26103 0.0
C1567 C 0.44204 0.49947 0.28241 0.0
H1568 H 0.29606 0.66508 0.05006 0.0
H1569 H 0.26763 0.58697 0.10377 0.0
H1570 H 0.25582 0.65128 0.01181 0.0
H1571 H 0.22722 0.57432 0.06721 0.0
H1572 H 0.18907 0.53152 0.98204 0.0
H1573 H 0.2222 0.55139 0.02192 0.0
H1574 H 0.20475 0.64391 0.99224 0.0
H1575 H 0.17096 0.62325 0.95093 0.0
C1576 C 0.2815 0.64487 0.05358 0.0
C1577 C 0.28585 0.62667 0.07961 0.0
C1578 C 0.2581 0.6371 0.0318 0.0
C1579 C 0.23872 0.61085 0.03548 0.0
C1580 C 0.24237 0.59377 0.06238 0.0
C1581 C 0.26569 0.60125 0.08372 0.0
C1582 C 0.1919 0.55618 0.98387 0.0
C1583 C 0.17728 0.57568 0.96295 0.0
C1584 C 0.21088 0.56782 0.00732 0.0
C1585 C 0.21644 0.59953 0.01089 0.0
C1586 C 0.20148 0.61934 0.99022 0.0
C1587 C 0.182 0.60753 0.96654 0.0
H1588 H 0.19173 0.48134 0.82123 0.0
H1589 H 0.09897 0.51122 0.7973 0.0
H1590 H 0.19331 0.45051 0.77426 0.0
H1591 H 0.10012 0.48022 0.75064 0.0
H1592 H 0.09924 0.3942 0.69012 0.0
H1593 H 0.09857 0.42788 0.73472 0.0
H1594 H 0.19554 0.45304 0.71928 0.0
H1595 H 0.19652 0.41848 0.6752 0.0
C1596 C 0.17199 0.48176 0.80551 0.0
C1597 C 0.14556 0.49913 0.81238 0.0
C1598 C 0.17279 0.46407 0.77869 0.0
C1599 C 0.14683 0.46285 0.75863 0.0
C1600 C 0.12039 0.48033 0.7657 0.0
C1601 C 0.11991 0.49852 0.79212 0.0
C1602 C 0.12029 0.40728 0.69594 0.0
C1603 C 0.14781 0.40389 0.67882 0.0
C1604 C 0.11993 0.42657 0.72159 0.0
C1605 C 0.14706 0.44305 0.73075 0.0
C1606 C 0.17439 0.44024 0.71321 0.0
C1607 C 0.17478 0.42087 0.68757 0.0
H1608 H 0.2859 0.30541 0.54196 0.0
H1609 H 0.24264 0.39408 0.54201 0.0
H1610 H 0.31828 0.32042 0.49925 0.0
H1611 H 0.27503 0.40932 0.49891 0.0
H1612 H 0.31076 0.41923 0.40329 0.0
H1613 H 0.28077 0.40305 0.44721 0.0
H1614 H 0.35789 0.34724 0.47683 0.0
H1615 H 0.38781 0.3635 0.43258 0.0
C1616 C 0.28333 0.32825 0.53288 0.0
C1617 C 0.26106 0.34827 0.54504 0.0
C1618 C 0.30211 0.33698 0.50825 0.0
C1619 C 0.29881 0.36582 0.49455 0.0
C1620 C 0.27757 0.38643 0.50781 0.0
C1621 C 0.25901 0.3778 0.53275 0.0
C1622 C 0.32104 0.40287 0.41874 0.0
C1623 C 0.35178 0.39274 0.41428 0.0
C1624 C 0.3039 0.39382 0.44436 0.0
C1625 C 0.31675 0.37403 0.46623 0.0
C1626 C 0.34683 0.36234 0.46067 0.0
C1627 C 0.36407 0.37152 0.43502 0.0
H1628 H 0.4305 0.39645 0.25305 0.0
H1629 H 0.36591 0.41029 0.32739 0.0
H1630 H 0.40754 0.43879 0.22578 0.0
H1631 H 0.34406 0.45448 0.30033 0.0
H1632 H 0.3705 0.55159 0.23724 0.0
H1633 H 0.37246 0.5105 0.27496 0.0
H1634 H 0.34536 0.44514 0.20476 0.0
H1635 H 0.34278 0.48625 0.16744 0.0
C1636 C 0.41183 0.40887 0.264 0.0
C1637 C 0.40017 0.3998 0.29262 0.0
C1638 C 0.39841 0.43295 0.2481 0.0
C1639 C 0.37356 0.4494 0.26064 0.0
C1640 C 0.36297 0.44186 0.29004 0.0
C1641 C 0.37581 0.41689 0.30568 0.0
C1642 C 0.36301 0.52878 0.23041 0.0
C1643 C 0.35696 0.5221 0.19936 0.0
C1644 C 0.36437 0.50518 0.25194 0.0
C1645 C 0.35997 0.4746 0.24248 0.0
C1646 C 0.34915 0.46856 0.21253 0.0
C1647 C 0.3472 0.49223 0.19122 0.0
H1648 H 0.34789 0.61109 0.03068 0.0
H1649 H 0.29125 0.52827 0.03047 0.0
H1650 H 0.32346 0.62642 0.98301 0.0
H1651 H 0.26621 0.54356 0.98339 0.0
H1652 H 0.22348 0.57354 0.89553 0.0
H1653 H 0.25919 0.55402 0.93405 0.0
H1654 H 0.2803 0.64707 0.96382 0.0
H1655 H 0.24566 0.66609 0.92489 0.0
C1656 C 0.3299 0.5963 0.02059 0.0
C1657 C 0.32083 0.56891 0.03491 0.0
C1658 C 0.3157 0.60511 0.99312 0.0
C1659 C 0.29162 0.58701 0.97942 0.0
C1660 C 0.28413 0.55865 0.99298 0.0
C1661 C 0.29836 0.54985 0.02038 0.0
C1662 C 0.23586 0.58973 0.91037 0.0
C1663 C 0.23135 0.62137 0.90737 0.0
C1664 C 0.25636 0.57855 0.93272 0.0
C1665 C 0.27264 0.5987 0.95296 0.0
C1666 C 0.26867 0.63044 0.94902 0.0
C1667 C 0.24839 0.64154 0.92665 0.0
H1668 H 0.10164 0.45255 0.64291 0.0
H1669 H 0.19674 0.48475 0.62994 0.0
H1670 H 0.09687 0.48624 0.68727 0.0
H1671 H 0.19195 0.51905 0.67411 0.0
H1672 H 0.18338 0.55638 0.77122 0.0
H1673 H 0.18813 0.52024 0.72864 0.0
H1674 H 0.09257 0.5381 0.70153 0.0
H1675 H 0.08769 0.57349 0.74443 0.0
C1676 C 0.12166 0.46665 0.64979 0.0
C1677 C 0.14981 0.46549 0.63342 0.0
C1678 C 0.11878 0.48638 0.67494 0.0
C1679 C 0.14403 0.50545 0.68441 0.0
C1680 C 0.1722 0.50434 0.66787 0.0
C1681 C 0.17497 0.48474 0.64253 0.0
C1682 C 0.16316 0.55199 0.75659 0.0
C1683 C 0.13503 0.56757 0.76143 0.0
C1684 C 0.1661 0.53178 0.73175 0.0
C1685 C 0.14087 0.52646 0.7113 0.0
C1686 C 0.11242 0.5413 0.71686 0.0
C1687 C 0.10955 0.56155 0.74158 0.0
H1688 H 0.18802 0.32154 0.52025 0.0
H1689 H 0.20017 0.40285 0.46586 0.0
H1690 H 0.22317 0.29398 0.4858 0.0
H1691 H 0.2346 0.37666 0.43257 0.0
H1692 H 0.32254 0.27337 0.44722 0.0
H1693 H 0.27387 0.28676 0.47265 0.0
H1694 H 0.25102 0.34598 0.39699 0.0
H1695 H 0.3005 0.33445 0.37351 0.0
C1696 C 0.19789 0.33339 0.50081 0.0
C1697 C 0.19204 0.36462 0.49634 0.0
C1698 C 0.21829 0.31772 0.48109 0.0
C1699 C 0.23281 0.33294 0.45634 0.0
C1700 C 0.22454 0.36352 0.45096 0.0
C1701 C 0.20472 0.37899 0.47055 0.0
C1702 C 0.30701 0.28941 0.43632 0.0
C1703 C 0.31588 0.30394 0.40914 0.0
C1704 C 0.27878 0.29692 0.45069 0.0
C1705 C 0.25877 0.31899 0.43802 0.0
C1706 C 0.26643 0.33067 0.40896 0.0
C1707 C 0.29488 0.32389 0.39518 0.0
H1708 H 0.51486 0.33041 0.40964 0.0
H1709 H 0.49775 0.35278 0.31503 0.0
H1710 H 0.5466 0.28762 0.39396 0.0
H1711 H 0.53024 0.31036 0.29912 0.0
H1712 H 0.55357 0.21278 0.27771 0.0
H1713 H 0.52717 0.25832 0.29492 0.0
H1714 H 0.58916 0.26415 0.37365 0.0
H1715 H 0.61491 0.21761 0.35656 0.0
C1716 C 0.5181 0.32634 0.3854 0.0
C1717 C 0.50303 0.34458 0.36359 0.0
C1718 C 0.53669 0.30184 0.37633 0.0
C1719 C 0.54039 0.29457 0.34516 0.0
C1720 C 0.52696 0.3142 0.32336 0.0
C1721 C 0.50843 0.33878 0.33245 0.0
C1722 C 0.5612 0.22349 0.299 0.0
C1723 C 0.5862 0.21142 0.31587 0.0
C1724 C 0.54651 0.25018 0.30859 0.0
C1725 C 0.55633 0.26577 0.33541 0.0
C1726 C 0.58063 0.25294 0.35298 0.0
C1727 C 0.5953 0.226 0.34337 0.0
loop_
_geom_bond_atom_site_label_1
_geom_bond_atom_site_label_2
_geom_bond_distance
_geom_bond_site_symmetry_2
_ccdc_geom_bond_type
Zn0 O3 2.031 . S
Zn0 O5 2.049 . S
Zn0 O10 2.067 . S
Zn1 O2 1.962 . S
Zn1 O4 1.986 . S
Zn1 O6 1.996 . S
Zn1 O9 1.943 . S
O2 Zn1 1.962 . S
O2 C7 1.254 . S
O3 Zn0 2.031 . S
O3 C7 1.269 . S
O4 Zn1 1.986 . S
O4 C11 1.262 . S
O5 Zn0 2.049 . S
O5 C13 1.260 . S
O6 Zn1 1.996 . S
O6 C13 1.257 . S
C7 O2 1.254 . S
C7 O3 1.269 . S
C8 O9 1.249 . S
C8 O10 1.270 . S
O9 Zn1 1.943 . S
O9 C8 1.249 . S
O10 Zn0 2.067 . S
O10 C8 1.270 . S
C11 O4 1.262 . S
C11 O12 1.232 . S
O12 C11 1.232 . S
C13 O5 1.260 . S
C13 O6 1.257 . S
Zn14 O17 2.031 . S
Zn14 O19 2.049 . S
Zn14 O24 2.067 . S
Zn15 O16 1.962 . S
Zn15 O18 1.986 . S
Zn15 O20 1.996 . S
Zn15 O23 1.943 . S
O16 Zn15 1.962 . S
O16 C21 1.254 . S
O17 Zn14 2.031 . S
O17 C21 1.269 . S
O18 Zn15 1.986 . S
O18 C25 1.262 . S
O19 Zn14 2.049 . S
O19 C27 1.260 . S
O20 Zn15 1.996 . S
O20 C27 1.257 . S
C21 O16 1.254 . S
C21 O17 1.269 . S
C22 O23 1.249 . S
C22 O24 1.270 . S
O23 Zn15 1.943 . S
O23 C22 1.249 . S
O24 Zn14 2.067 . S
O24 C22 1.270 . S
C25 O18 1.262 . S
C25 O26 1.232 . S
O26 C25 1.232 . S
C27 O19 1.260 . S
C27 O20 1.257 . S
Zn28 O31 2.031 . S
Zn28 O33 2.049 . S
Zn28 O38 2.067 . S
Zn29 O30 1.962 . S
Zn29 O32 1.986 . S
Zn29 O34 1.996 . S
Zn29 O37 1.943 . S
O30 Zn29 1.962 . S
O30 C35 1.254 . S
O31 Zn28 2.031 . S
O31 C35 1.269 . S
O32 Zn29 1.986 . S
O32 C39 1.262 . S
O33 Zn28 2.049 . S
O33 C41 1.260 . S
O34 Zn29 1.996 . S
O34 C41 1.257 . S
C35 O30 1.254 . S
C35 O31 1.269 . S
C36 O37 1.249 . S
C36 O38 1.270 . S
O37 Zn29 1.943 . S
O37 C36 1.249 . S
O38 Zn28 2.067 . S
O38 C36 1.270 . S
C39 O32 1.262 . S
C39 O40 1.232 . S
O40 C39 1.232 . S
C41 O33 1.260 . S
C41 O34 1.257 . S
Zn42 O45 2.031 . S
Zn42 O47 2.049 . S
Zn42 O52 2.067 . S
Zn43 O44 1.962 . S
Zn43 O46 1.986 . S
Zn43 O48 1.996 . S
Zn43 O51 1.943 . S
O44 Zn43 1.962 . S
O44 C49 1.254 . S
O45 Zn42 2.031 . S
O45 C49 1.269 . S
O46 Zn43 1.986 . S
O46 C53 1.262 . S
O47 Zn42 2.049 . S
O47 C55 1.260 . S
O48 Zn43 1.996 . S
O48 C55 1.257 . S
C49 O44 1.254 . S
C49 O45 1.269 . S
C50 O51 1.249 . S
C50 O52 1.270 . S
O51 Zn43 1.943 . S
O51 C50 1.249 . S
O52 Zn42 2.067 . S
O52 C50 1.270 . S
C53 O46 1.262 . S
C53 O54 1.232 . S
O54 C53 1.232 . S
C55 O47 1.260 . S
C55 O48 1.257 . S
Zn56 O59 2.031 . S
Zn56 O61 2.049 . S
Zn56 O66 2.067 . S
Zn57 O58 1.962 . S
Zn57 O60 1.986 . S
Zn57 O62 1.996 . S
Zn57 O65 1.943 . S
O58 Zn57 1.962 . S
O58 C63 1.254 . S
O59 Zn56 2.031 . S
O59 C63 1.269 . S
O60 Zn57 1.986 . S
O60 C67 1.262 . S
O61 Zn56 2.049 . S
O61 C69 1.260 . S
O62 Zn57 1.996 . S
O62 C69 1.257 . S
C63 O58 1.254 . S
C63 O59 1.269 . S
C64 O65 1.249 . S
C64 O66 1.270 . S
O65 Zn57 1.943 . S
O65 C64 1.249 . S
O66 Zn56 2.067 . S
O66 C64 1.270 . S
C67 O60 1.262 . S
C67 O68 1.232 . S
O68 C67 1.232 . S
C69 O61 1.260 . S
C69 O62 1.257 . S
Zn70 O73 2.031 . S
Zn70 O75 2.049 . S
Zn70 O80 2.067 . S
Zn71 O72 1.962 . S
Zn71 O74 1.986 . S
Zn71 O76 1.996 . S
Zn71 O79 1.943 . S
O72 Zn71 1.962 . S
O72 C77 1.254 . S
O73 Zn70 2.031 . S
O73 C77 1.269 . S
O74 Zn71 1.986 . S
O74 C81 1.262 . S
O75 Zn70 2.049 . S
O75 C83 1.260 . S
O76 Zn71 1.996 . S
O76 C83 1.257 . S
C77 O72 1.254 . S
C77 O73 1.269 . S
C78 O79 1.249 . S
C78 O80 1.270 . S
O79 Zn71 1.943 . S
O79 C78 1.249 . S
O80 Zn70 2.067 . S
O80 C78 1.270 . S
C81 O74 1.262 . S
C81 O82 1.232 . S
O82 C81 1.232 . S
C83 O75 1.260 . S
C83 O76 1.257 . S
Zn84 O87 2.031 . S
Zn84 O89 2.049 . S
Zn84 O94 2.067 . S
Zn85 O86 1.962 . S
Zn85 O88 1.986 . S
Zn85 O90 1.996 . S
Zn85 O93 1.943 . S
O86 Zn85 1.962 . S
O86 C91 1.254 . S
O87 Zn84 2.031 . S
O87 C91 1.269 . S
O88 Zn85 1.986 . S
O88 C95 1.262 . S
O89 Zn84 2.049 . S
O89 C97 1.260 . S
O90 Zn85 1.996 . S
O90 C97 1.257 . S
C91 O86 1.254 . S
C91 O87 1.269 . S
C92 O93 1.249 . S
C92 O94 1.270 . S
O93 Zn85 1.943 . S
O93 C92 1.249 . S
O94 Zn84 2.067 . S
O94 C92 1.270 . S
C95 O88 1.262 . S
C95 O96 1.232 . S
O96 C95 1.232 . S
C97 O89 1.260 . S
C97 O90 1.257 . S
Zn98 O101 2.031 . S
Zn98 O103 2.049 . S
Zn98 O108 2.067 . S
Zn99 O100 1.962 . S
Zn99 O102 1.986 . S
Zn99 O104 1.996 . S
Zn99 O107 1.943 . S
O100 Zn99 1.962 . S
O100 C105 1.254 . S
O101 Zn98 2.031 . S
O101 C105 1.269 . S
O102 Zn99 1.986 . S
O102 C109 1.262 . S
O103 Zn98 2.049 . S
O103 C111 1.260 . S
O104 Zn99 1.996 . S
O104 C111 1.257 . S
C105 O100 1.254 . S
C105 O101 1.269 . S
C106 O107 1.249 . S
C106 O108 1.270 . S
O107 Zn99 1.943 . S
O107 C106 1.249 . S
O108 Zn98 2.067 . S
O108 C106 1.270 . S
C109 O102 1.262 . S
C109 O110 1.232 . S
O110 C109 1.232 . S
C111 O103 1.260 . S
C111 O104 1.257 . S
Zn112 O115 2.031 . S
Zn112 O117 2.049 . S
Zn112 O122 2.067 . S
Zn113 O114 1.962 . S
Zn113 O116 1.986 . S
Zn113 O118 1.996 . S
Zn113 O121 1.943 . S
O114 Zn113 1.962 . S
O114 C119 1.254 . S
O115 Zn112 2.031 . S
O115 C119 1.269 . S
O116 Zn113 1.986 . S
O116 C123 1.262 . S
O117 Zn112 2.049 . S
O117 C125 1.260 . S
O118 Zn113 1.996 . S
O118 C125 1.257 . S
C119 O114 1.254 . S
C119 O115 1.269 . S
C120 O121 1.249 . S
C120 O122 1.270 . S
O121 Zn113 1.943 . S
O121 C120 1.249 . S
O122 Zn112 2.067 . S
O122 C120 1.270 . S
C123 O116 1.262 . S
C123 O124 1.232 . S
O124 C123 1.232 . S
C125 O117 1.260 . S
C125 O118 1.257 . S
Zn126 O129 2.031 . S
Zn126 O131 2.049 . S
Zn126 O136 2.067 . S
Zn127 O128 1.962 . S
Zn127 O130 1.986 . S
Zn127 O132 1.996 . S
Zn127 O135 1.943 . S
O128 Zn127 1.962 . S
O128 C133 1.254 . S
O129 Zn126 2.031 . S
O129 C133 1.269 . S
O130 Zn127 1.986 . S
O130 C137 1.262 . S
O131 Zn126 2.049 . S
O131 C139 1.260 . S
O132 Zn127 1.996 . S
O132 C139 1.257 . S
C133 O128 1.254 . S
C133 O129 1.269 . S
C134 O135 1.249 . S
C134 O136 1.270 . S
O135 Zn127 1.943 . S
O135 C134 1.249 . S
O136 Zn126 2.067 . S
O136 C134 1.270 . S
C137 O130 1.262 . S
C137 O138 1.232 . S
O138 C137 1.232 . S
C139 O131 1.260 . S
C139 O132 1.257 . S
Zn140 O143 2.031 . S
Zn140 O145 2.049 . S
Zn140 O150 2.067 . S
Zn141 O142 1.962 . S
Zn141 O144 1.986 . S
Zn141 O146 1.996 . S
Zn141 O149 1.943 . S
O142 Zn141 1.962 . S
O142 C147 1.254 . S
O143 Zn140 2.031 . S
O143 C147 1.269 . S
O144 Zn141 1.986 . S
O144 C151 1.262 . S
O145 Zn140 2.049 . S
O145 C153 1.260 . S
O146 Zn141 1.996 . S
O146 C153 1.257 . S
C147 O142 1.254 . S
C147 O143 1.269 . S
C148 O149 1.249 . S
C148 O150 1.270 . S
O149 Zn141 1.943 . S
O149 C148 1.249 . S
O150 Zn140 2.067 . S
O150 C148 1.270 . S
C151 O144 1.262 . S
C151 O152 1.232 . S
O152 C151 1.232 . S
C153 O145 1.260 . S
C153 O146 1.257 . S
Zn154 O157 2.031 . S
Zn154 O159 2.049 . S
Zn154 O164 2.067 . S
Zn155 O156 1.962 . S
Zn155 O158 1.986 . S
Zn155 O160 1.996 . S
Zn155 O163 1.943 . S
O156 Zn155 1.962 . S
O156 C161 1.254 . S
O157 Zn154 2.031 . S
O157 C161 1.269 . S
O158 Zn155 1.986 . S
O158 C165 1.262 . S
O159 Zn154 2.049 . S
O159 C167 1.260 . S
O160 Zn155 1.996 . S
O160 C167 1.257 . S
C161 O156 1.254 . S
C161 O157 1.269 . S
C162 O163 1.249 . S
C162 O164 1.270 . S
O163 Zn155 1.943 . S
O163 C162 1.249 . S
O164 Zn154 2.067 . S
O164 C162 1.270 . S
C165 O158 1.262 . S
C165 O166 1.232 . S
O166 C165 1.232 . S
C167 O159 1.260 . S
C167 O160 1.257 . S
Zn168 O171 2.031 . S
Zn168 O173 2.049 . S
Zn168 O178 2.067 . S
Zn169 O170 1.962 . S
Zn169 O172 1.986 . S
Zn169 O174 1.996 . S
Zn169 O177 1.943 . S
O170 Zn169 1.962 . S
O170 C175 1.254 . S
O171 Zn168 2.031 . S
O171 C175 1.269 . S
O172 Zn169 1.986 . S
O172 C179 1.262 . S
O173 Zn168 2.049 . S
O173 C181 1.260 . S
O174 Zn169 1.996 . S
O174 C181 1.257 . S
C175 O170 1.254 . S
C175 O171 1.269 . S
C176 O177 1.249 . S
C176 O178 1.270 . S
O177 Zn169 1.943 . S
O177 C176 1.249 . S
O178 Zn168 2.067 . S
O178 C176 1.270 . S
C179 O172 1.262 . S
C179 O180 1.232 . S
O180 C179 1.232 . S
C181 O173 1.260 . S
C181 O174 1.257 . S
Zn182 O185 2.031 . S
Zn182 O187 2.049 . S
Zn182 O192 2.067 . S
Zn183 O184 1.962 . S
Zn183 O186 1.986 . S
Zn183 O188 1.996 . S
Zn183 O191 1.943 . S
O184 Zn183 1.962 . S
O184 C189 1.254 . S
O185 Zn182 2.031 . S
O185 C189 1.269 . S
O186 Zn183 1.986 . S
O186 C193 1.262 . S
O187 Zn182 2.049 . S
O187 C195 1.260 . S
O188 Zn183 1.996 . S
O188 C195 1.257 . S
C189 O184 1.254 . S
C189 O185 1.269 . S
C190 O191 1.249 . S
C190 O192 1.270 . S
O191 Zn183 1.943 . S
O191 C190 1.249 . S
O192 Zn182 2.067 . S
O192 C190 1.270 . S
C193 O186 1.262 . S
C193 O194 1.232 . S
O194 C193 1.232 . S
C195 O187 1.260 . S
C195 O188 1.257 . S
Zn196 O199 2.031 . S
Zn196 O201 2.049 . S
Zn196 O206 2.067 . S
Zn197 O198 1.962 . S
Zn197 O200 1.986 . S
Zn197 O202 1.996 . S
Zn197 O205 1.943 . S
O198 Zn197 1.962 . S
O198 C203 1.254 . S
O199 Zn196 2.031 . S
O199 C203 1.269 . S
O200 Zn197 1.986 . S
O200 C207 1.262 . S
O201 Zn196 2.049 . S
O201 C209 1.260 . S
O202 Zn197 1.996 . S
O202 C209 1.257 . S
C203 O198 1.254 . S
C203 O199 1.269 . S
C204 O205 1.249 . S
C204 O206 1.270 . S
O205 Zn197 1.943 . S
O205 C204 1.249 . S
O206 Zn196 2.067 . S
O206 C204 1.270 . S
C207 O200 1.262 . S
C207 O208 1.232 . S
O208 C207 1.232 . S
C209 O201 1.260 . S
C209 O202 1.257 . S
Zn210 O213 2.031 . S
Zn210 O215 2.049 . S
Zn210 O220 2.067 . S
Zn211 O212 1.962 . S
Zn211 O214 1.986 . S
Zn211 O216 1.996 . S
Zn211 O219 1.943 . S
O212 Zn211 1.962 . S
O212 C217 1.254 . S
O213 Zn210 2.031 . S
O213 C217 1.269 . S
O214 Zn211 1.986 . S
O214 C221 1.262 . S
O215 Zn210 2.049 . S
O215 C223 1.260 . S
O216 Zn211 1.996 . S
O216 C223 1.257 . S
C217 O212 1.254 . S
C217 O213 1.269 . S
C218 O219 1.249 . S
C218 O220 1.270 . S
O219 Zn211 1.943 . S
O219 C218 1.249 . S
O220 Zn210 2.067 . S
O220 C218 1.270 . S
C221 O214 1.262 . S
C221 O222 1.232 . S
O222 C221 1.232 . S
C223 O215 1.260 . S
C223 O216 1.257 . S
Zn224 O227 2.031 . S
Zn224 O229 2.049 . S
Zn224 O234 2.067 . S
Zn225 O226 1.962 . S
Zn225 O228 1.986 . S
Zn225 O230 1.996 . S
Zn225 O233 1.943 . S
O226 Zn225 1.962 . S
O226 C231 1.254 . S
O227 Zn224 2.031 . S
O227 C231 1.269 . S
O228 Zn225 1.986 . S
O228 C235 1.262 . S
O229 Zn224 2.049 . S
O229 C237 1.260 . S
O230 Zn225 1.996 . S
O230 C237 1.257 . S
C231 O226 1.254 . S
C231 O227 1.269 . S
C232 O233 1.249 . S
C232 O234 1.270 . S
O233 Zn225 1.943 . S
O233 C232 1.249 . S
O234 Zn224 2.067 . S
O234 C232 1.270 . S
C235 O228 1.262 . S
C235 O236 1.232 . S
O236 C235 1.232 . S
C237 O229 1.260 . S
C237 O230 1.257 . S
Zn238 O241 2.031 . S
Zn238 O243 2.049 . S
Zn238 O248 2.067 . S
Zn239 O240 1.962 . S
Zn239 O242 1.986 . S
Zn239 O244 1.996 . S
Zn239 O247 1.943 . S
O240 Zn239 1.962 . S
O240 C245 1.254 . S
O241 Zn238 2.031 . S
O241 C245 1.269 . S
O242 Zn239 1.986 . S
O242 C249 1.262 . S
O243 Zn238 2.049 . S
O243 C251 1.260 . S
O244 Zn239 1.996 . S
O244 C251 1.257 . S
C245 O240 1.254 . S
C245 O241 1.269 . S
C246 O247 1.249 . S
C246 O248 1.270 . S
O247 Zn239 1.943 . S
O247 C246 1.249 . S
O248 Zn238 2.067 . S
O248 C246 1.270 . S
C249 O242 1.262 . S
C249 O250 1.232 . S
O250 C249 1.232 . S
C251 O243 1.260 . S
C251 O244 1.257 . S
Zn252 O255 2.031 . S
Zn252 O257 2.049 . S
Zn252 O262 2.067 . S
Zn253 O254 1.962 . S
Zn253 O256 1.986 . S
Zn253 O258 1.996 . S
Zn253 O261 1.943 . S
O254 Zn253 1.962 . S
O254 C259 1.254 . S
O255 Zn252 2.031 . S
O255 C259 1.269 . S
O256 Zn253 1.986 . S
O256 C263 1.262 . S
O257 Zn252 2.049 . S
O257 C265 1.260 . S
O258 Zn253 1.996 . S
O258 C265 1.257 . S
C259 O254 1.254 . S
C259 O255 1.269 . S
C260 O261 1.249 . S
C260 O262 1.270 . S
O261 Zn253 1.943 . S
O261 C260 1.249 . S
O262 Zn252 2.067 . S
O262 C260 1.270 . S
C263 O256 1.262 . S
C263 O264 1.232 . S
O264 C263 1.232 . S
C265 O257 1.260 . S
C265 O258 1.257 . S
Zn266 O269 2.031 . S
Zn266 O271 2.049 . S
Zn266 O276 2.067 . S
Zn267 O268 1.962 . S
Zn267 O270 1.986 . S
Zn267 O272 1.996 . S
Zn267 O275 1.943 . S
O268 Zn267 1.962 . S
O268 C273 1.254 . S
O269 Zn266 2.031 . S
O269 C273 1.269 . S
O270 Zn267 1.986 . S
O270 C277 1.262 . S
O271 Zn266 2.049 . S
O271 C279 1.260 . S
O272 Zn267 1.996 . S
O272 C279 1.257 . S
C273 O268 1.254 . S
C273 O269 1.269 . S
C274 O275 1.249 . S
C274 O276 1.270 . S
O275 Zn267 1.943 . S
O275 C274 1.249 . S
O276 Zn266 2.067 . S
O276 C274 1.270 . S
C277 O270 1.262 . S
C277 O278 1.232 . S
O278 C277 1.232 . S
C279 O271 1.260 . S
C279 O272 1.257 . S
Zn280 O283 2.031 . S
Zn280 O285 2.049 . S
Zn280 O290 2.067 . S
Zn281 O282 1.962 . S
Zn281 O284 1.986 . S
Zn281 O286 1.996 . S
Zn281 O289 1.943 . S
O282 Zn281 1.962 . S
O282 C287 1.254 . S
O283 Zn280 2.031 . S
O283 C287 1.269 . S
O284 Zn281 1.986 . S
O284 C291 1.262 . S
O285 Zn280 2.049 . S
O285 C293 1.260 . S
O286 Zn281 1.996 . S
O286 C293 1.257 . S
C287 O282 1.254 . S
C287 O283 1.269 . S
C288 O289 1.249 . S
C288 O290 1.270 . S
O289 Zn281 1.943 . S
O289 C288 1.249 . S
O290 Zn280 2.067 . S
O290 C288 1.270 . S
C291 O284 1.262 . S
C291 O292 1.232 . S
O292 C291 1.232 . S
C293 O285 1.260 . S
C293 O286 1.257 . S
Zn294 O297 2.031 . S
Zn294 O299 2.049 . S
Zn294 O304 2.067 . S
Zn295 O296 1.962 . S
Zn295 O298 1.986 . S
Zn295 O300 1.996 . S
Zn295 O303 1.943 . S
O296 Zn295 1.962 . S
O296 C301 1.254 . S
O297 Zn294 2.031 . S
O297 C301 1.269 . S
O298 Zn295 1.986 . S
O298 C305 1.262 . S
O299 Zn294 2.049 . S
O299 C307 1.260 . S
O300 Zn295 1.996 . S
O300 C307 1.257 . S
C301 O296 1.254 . S
C301 O297 1.269 . S
C302 O303 1.249 . S
C302 O304 1.270 . S
O303 Zn295 1.943 . S
O303 C302 1.249 . S
O304 Zn294 2.067 . S
O304 C302 1.270 . S
C305 O298 1.262 . S
C305 O306 1.232 . S
O306 C305 1.232 . S
C307 O299 1.260 . S
C307 O300 1.257 . S
Zn308 O311 2.031 . S
Zn308 O313 2.049 . S
Zn308 O318 2.067 . S
Zn309 O310 1.962 . S
Zn309 O312 1.986 . S
Zn309 O314 1.996 . S
Zn309 O317 1.943 . S
O310 Zn309 1.962 . S
O310 C315 1.254 . S
O311 Zn308 2.031 . S
O311 C315 1.269 . S
O312 Zn309 1.986 . S
O312 C319 1.262 . S
O313 Zn308 2.049 . S
O313 C321 1.260 . S
O314 Zn309 1.996 . S
O314 C321 1.257 . S
C315 O310 1.254 . S
C315 O311 1.269 . S
C316 O317 1.249 . S
C316 O318 1.270 . S
O317 Zn309 1.943 . S
O317 C316 1.249 . S
O318 Zn308 2.067 . S
O318 C316 1.270 . S
C319 O312 1.262 . S
C319 O320 1.232 . S
O320 C319 1.232 . S
C321 O313 1.260 . S
C321 O314 1.257 . S
Zn322 O325 2.031 . S
Zn322 O327 2.049 . S
Zn322 O332 2.067 . S
Zn323 O324 1.962 . S
Zn323 O326 1.986 . S
Zn323 O328 1.996 . S
Zn323 O331 1.943 . S
O324 Zn323 1.962 . S
O324 C329 1.254 . S
O325 Zn322 2.031 . S
O325 C329 1.269 . S
O326 Zn323 1.986 . S
O326 C333 1.262 . S
O327 Zn322 2.049 . S
O327 C335 1.260 . S
O328 Zn323 1.996 . S
O328 C335 1.257 . S
C329 O324 1.254 . S
C329 O325 1.269 . S
C330 O331 1.249 . S
C330 O332 1.270 . S
O331 Zn323 1.943 . S
O331 C330 1.249 . S
O332 Zn322 2.067 . S
O332 C330 1.270 . S
C333 O326 1.262 . S
C333 O334 1.232 . S
O334 C333 1.232 . S
C335 O327 1.260 . S
C335 O328 1.257 . S
Zn336 O339 2.031 . S
Zn336 O341 2.049 . S
Zn336 O346 2.067 . S
Zn337 O338 1.962 . S
Zn337 O340 1.986 . S
Zn337 O342 1.996 . S
Zn337 O345 1.943 . S
O338 Zn337 1.962 . S
O338 C343 1.254 . S
O339 Zn336 2.031 . S
O339 C343 1.269 . S
O340 Zn337 1.986 . S
O340 C347 1.262 . S
O341 Zn336 2.049 . S
O341 C349 1.260 . S
O342 Zn337 1.996 . S
O342 C349 1.257 . S
C343 O338 1.254 . S
C343 O339 1.269 . S
C344 O345 1.249 . S
C344 O346 1.270 . S
O345 Zn337 1.943 . S
O345 C344 1.249 . S
O346 Zn336 2.067 . S
O346 C344 1.270 . S
C347 O340 1.262 . S
C347 O348 1.232 . S
O348 C347 1.232 . S
C349 O341 1.260 . S
C349 O342 1.257 . S
Zn350 O353 2.031 . S
Zn350 O355 2.049 . S
Zn350 O360 2.067 . S
Zn351 O352 1.962 . S
Zn351 O354 1.986 . S
Zn351 O356 1.996 . S
Zn351 O359 1.943 . S
O352 Zn351 1.962 . S
O352 C357 1.254 . S
O353 Zn350 2.031 . S
O353 C357 1.269 . S
O354 Zn351 1.986 . S
O354 C361 1.262 . S
O355 Zn350 2.049 . S
O355 C363 1.260 . S
O356 Zn351 1.996 . S
O356 C363 1.257 . S
C357 O352 1.254 . S
C357 O353 1.269 . S
C358 O359 1.249 . S
C358 O360 1.270 . S
O359 Zn351 1.943 . S
O359 C358 1.249 . S
O360 Zn350 2.067 . S
O360 C358 1.270 . S
C361 O354 1.262 . S
C361 O362 1.232 . S
O362 C361 1.232 . S
C363 O355 1.260 . S
C363 O356 1.257 . S
Zn364 O367 2.031 . S
Zn364 O369 2.049 . S
Zn364 O374 2.067 . S
Zn365 O366 1.962 . S
Zn365 O368 1.986 . S
Zn365 O370 1.996 . S
Zn365 O373 1.943 . S
O366 Zn365 1.962 . S
O366 C371 1.254 . S
O367 Zn364 2.031 . S
O367 C371 1.269 . S
O368 Zn365 1.986 . S
O368 C375 1.262 . S
O369 Zn364 2.049 . S
O369 C377 1.260 . S
O370 Zn365 1.996 . S
O370 C377 1.257 . S
C371 O366 1.254 . S
C371 O367 1.269 . S
C372 O373 1.249 . S
C372 O374 1.270 . S
O373 Zn365 1.943 . S
O373 C372 1.249 . S
O374 Zn364 2.067 . S
O374 C372 1.270 . S
C375 O368 1.262 . S
C375 O376 1.232 . S
O376 C375 1.232 . S
C377 O369 1.260 . S
C377 O370 1.257 . S
Zn378 O381 2.031 . S
Zn378 O383 2.049 . S
Zn378 O388 2.067 . S
Zn379 O380 1.962 . S
Zn379 O382 1.986 . S
Zn379 O384 1.996 . S
Zn379 O387 1.943 . S
O380 Zn379 1.962 . S
O380 C385 1.254 . S
O381 Zn378 2.031 . S
O381 C385 1.269 . S
O382 Zn379 1.986 . S
O382 C389 1.262 . S
O383 Zn378 2.049 . S
O383 C391 1.260 . S
O384 Zn379 1.996 . S
O384 C391 1.257 . S
C385 O380 1.254 . S
C385 O381 1.269 . S
C386 O387 1.249 . S
C386 O388 1.270 . S
O387 Zn379 1.943 . S
O387 C386 1.249 . S
O388 Zn378 2.067 . S
O388 C386 1.270 . S
C389 O382 1.262 . S
C389 O390 1.232 . S
O390 C389 1.232 . S
C391 O383 1.260 . S
C391 O384 1.257 . S
Zn392 O395 2.031 . S
Zn392 O397 2.049 . S
Zn392 O402 2.067 . S
Zn393 O394 1.962 . S
Zn393 O396 1.986 . S
Zn393 O398 1.996 . S
Zn393 O401 1.943 . S
O394 Zn393 1.962 . S
O394 C399 1.254 . S
O395 Zn392 2.031 . S
O395 C399 1.269 . S
O396 Zn393 1.986 . S
O396 C403 1.262 . S
O397 Zn392 2.049 . S
O397 C405 1.260 . S
O398 Zn393 1.996 . S
O398 C405 1.257 . S
C399 O394 1.254 . S
C399 O395 1.269 . S
C400 O401 1.249 . S
C400 O402 1.270 . S
O401 Zn393 1.943 . S
O401 C400 1.249 . S
O402 Zn392 2.067 . S
O402 C400 1.270 . S
C403 O396 1.262 . S
C403 O404 1.232 . S
O404 C403 1.232 . S
C405 O397 1.260 . S
C405 O398 1.257 . S
Zn406 O409 2.031 . S
Zn406 O411 2.049 . S
Zn406 O416 2.067 . S
Zn407 O408 1.962 . S
Zn407 O410 1.986 . S
Zn407 O412 1.996 . S
Zn407 O415 1.943 . S
O408 Zn407 1.962 . S
O408 C413 1.254 . S
O409 Zn406 2.031 . S
O409 C413 1.269 . S
O410 Zn407 1.986 . S
O410 C417 1.262 . S
O411 Zn406 2.049 . S
O411 C419 1.260 . S
O412 Zn407 1.996 . S
O412 C419 1.257 . S
C413 O408 1.254 . S
C413 O409 1.269 . S
C414 O415 1.249 . S
C414 O416 1.270 . S
O415 Zn407 1.943 . S
O415 C414 1.249 . S
O416 Zn406 2.067 . S
O416 C414 1.270 . S
C417 O410 1.262 . S
C417 O418 1.232 . S
O418 C417 1.232 . S
C419 O411 1.260 . S
C419 O412 1.257 . S
Zn420 O423 2.031 . S
Zn420 O425 2.049 . S
Zn420 O430 2.067 . S
Zn421 O422 1.962 . S
Zn421 O424 1.986 . S
Zn421 O426 1.996 . S
Zn421 O429 1.943 . S
O422 Zn421 1.962 . S
O422 C427 1.254 . S
O423 Zn420 2.031 . S
O423 C427 1.269 . S
O424 Zn421 1.986 . S
O424 C431 1.262 . S
O425 Zn420 2.049 . S
O425 C433 1.260 . S
O426 Zn421 1.996 . S
O426 C433 1.257 . S
C427 O422 1.254 . S
C427 O423 1.269 . S
C428 O429 1.249 . S
C428 O430 1.270 . S
O429 Zn421 1.943 . S
O429 C428 1.249 . S
O430 Zn420 2.067 . S
O430 C428 1.270 . S
C431 O424 1.262 . S
C431 O432 1.232 . S
O432 C431 1.232 . S
C433 O425 1.260 . S
C433 O426 1.257 . S
Zn434 O437 2.031 . S
Zn434 O439 2.049 . S
Zn434 O444 2.067 . S
Zn435 O436 1.962 . S
Zn435 O438 1.986 . S
Zn435 O440 1.996 . S
Zn435 O443 1.943 . S
O436 Zn435 1.962 . S
O436 C441 1.254 . S
O437 Zn434 2.031 . S
O437 C441 1.269 . S
O438 Zn435 1.986 . S
O438 C445 1.262 . S
O439 Zn434 2.049 . S
O439 C447 1.260 . S
O440 Zn435 1.996 . S
O440 C447 1.257 . S
C441 O436 1.254 . S
C441 O437 1.269 . S
C442 O443 1.249 . S
C442 O444 1.270 . S
O443 Zn435 1.943 . S
O443 C442 1.249 . S
O444 Zn434 2.067 . S
O444 C442 1.270 . S
C445 O438 1.262 . S
C445 O446 1.232 . S
O446 C445 1.232 . S
C447 O439 1.260 . S
C447 O440 1.257 . S
H448 C456 0.950 . S
H449 C461 0.950 . S
H450 C458 0.950 1_565 S
H451 C460 0.950 1_556 S
H452 C462 0.950 1_545 S
H453 C464 0.950 . S
H454 C466 0.949 . S
H455 C467 0.950 . S
C456 H448 0.950 . S
C456 C457 1.386 . S
C456 C458 1.391 . S
C457 C456 1.386 . S
C457 C461 1.393 . S
C458 H450 0.950 1_545 S
C458 C456 1.391 . S
C458 C459 1.400 1_455 S
C459 C458 1.400 1_655 S
C459 C460 1.398 . S
C459 C465 1.491 1_544 S
C460 H451 0.950 1_554 S
C460 C459 1.398 . S
C460 C461 1.391 1_655 S
C461 H449 0.950 . S
C461 C457 1.393 . S
C461 C460 1.391 1_455 S
C462 H452 0.950 1_565 S
C462 C463 1.386 . S
C462 C464 1.391 1_565 S
C463 C462 1.386 . S
C463 C467 1.393 . S
C464 H453 0.950 . S
C464 C462 1.391 1_545 S
C464 C465 1.400 1_545 S
C465 C459 1.491 1_566 S
C465 C464 1.400 1_565 S
C465 C466 1.398 1_556 S
C466 H454 0.949 . S
C466 C465 1.398 1_554 S
C466 C467 1.391 1_554 S
C467 H455 0.950 . S
C467 C463 1.393 . S
C467 C466 1.391 1_556 S
H468 C476 0.950 . S
H469 C481 0.950 . S
H470 C478 0.950 . S
H471 C480 0.950 . S
H472 C482 0.950 . S
H473 C484 0.950 . S
H474 C486 0.950 . S
H475 C487 0.950 . S
C476 H468 0.950 . S
C476 C477 1.386 . S
C476 C478 1.391 . S
C477 C476 1.386 . S
C477 C481 1.393 . S
C478 H470 0.950 . S
C478 C476 1.391 . S
C478 C479 1.400 . S
C479 C478 1.400 . S
C479 C480 1.398 . S
C479 C485 1.491 . S
C480 H471 0.950 . S
C480 C479 1.398 . S
C480 C481 1.391 . S
C481 H469 0.950 . S
C481 C477 1.393 . S
C481 C480 1.391 . S
C482 H472 0.950 . S
C482 C483 1.386 . S
C482 C484 1.391 . S
C483 C482 1.386 . S
C483 C487 1.393 . S
C484 H473 0.950 . S
C484 C482 1.391 . S
C484 C485 1.400 . S
C485 C479 1.491 . S
C485 C484 1.400 . S
C485 C486 1.398 . S
C486 H474 0.950 . S
C486 C485 1.398 . S
C486 C487 1.391 . S
C487 H475 0.950 . S
C487 C483 1.393 . S
C487 C486 1.391 . S
H488 C496 0.950 . S
H489 C501 0.950 . S
H490 C498 0.950 . S
H491 C500 0.949 1_545 S
H492 C502 0.950 . S
H493 C504 0.950 . S
H494 C506 0.950 . S
H495 C507 0.950 . S
C496 H488 0.950 . S
C496 C497 1.386 . S
C496 C498 1.391 . S
C497 C496 1.386 . S
C497 C501 1.393 . S
C498 H490 0.950 . S
C498 C496 1.391 . S
C498 C499 1.400 . S
C499 C498 1.400 . S
C499 C500 1.399 . S
C499 C505 1.491 1_565 S
C500 H491 0.949 1_565 S
C500 C499 1.399 . S
C500 C501 1.391 . S
C501 H489 0.950 . S
C501 C497 1.393 . S
C501 C500 1.391 . S
C502 H492 0.950 . S
C502 C503 1.386 . S
C502 C504 1.391 . S
C503 C502 1.386 . S
C503 C507 1.393 . S
C504 H493 0.950 . S
C504 C502 1.391 . S
C504 C505 1.400 . S
C505 C499 1.491 1_545 S
C505 C504 1.400 . S
C505 C506 1.398 1_545 S
C506 H494 0.950 . S
C506 C505 1.398 1_565 S
C506 C507 1.391 1_565 S
C507 H495 0.950 . S
C507 C503 1.393 . S
C507 C506 1.391 1_545 S
H508 C516 0.950 . S
H509 C521 0.950 . S
H510 C518 0.950 . S
H511 C520 0.950 . S
H512 C522 0.950 . S
H513 C524 0.950 . S
H514 C526 0.950 . S
H515 C527 0.950 . S
C516 H508 0.950 . S
C516 C517 1.386 . S
C516 C518 1.391 . S
C517 C516 1.386 . S
C517 C521 1.393 . S
C518 H510 0.950 . S
C518 C516 1.391 . S
C518 C519 1.400 . S
C519 C518 1.400 . S
C519 C520 1.398 . S
C519 C525 1.491 . S
C520 H511 0.950 . S
C520 C519 1.398 . S
C520 C521 1.391 . S
C521 H509 0.950 . S
C521 C517 1.393 . S
C521 C520 1.391 . S
C522 H512 0.950 . S
C522 C523 1.386 . S
C522 C524 1.391 . S
C523 C522 1.386 . S
C523 C527 1.393 . S
C524 H513 0.950 . S
C524 C522 1.391 . S
C524 C525 1.400 . S
C525 C519 1.491 . S
C525 C524 1.400 . S
C525 C526 1.398 . S
C526 H514 0.950 . S
C526 C525 1.398 . S
C526 C527 1.391 . S
C527 H515 0.950 . S
C527 C523 1.393 . S
C527 C526 1.391 . S
H528 C536 0.950 . S
H529 C541 0.950 . S
H530 C538 0.950 . S
H531 C540 0.950 . S
H532 C542 0.950 . S
H533 C544 0.950 1_565 S
H534 C546 0.950 . S
H535 C547 0.950 . S
C536 H528 0.950 . S
C536 C537 1.386 . S
C536 C538 1.391 . S
C537 C536 1.386 . S
C537 C541 1.393 . S
C538 H530 0.950 . S
C538 C536 1.391 . S
C538 C539 1.400 . S
C539 C538 1.400 . S
C539 C540 1.398 1_455 S
C539 C545 1.491 1_465 S
C540 H531 0.950 . S
C540 C539 1.398 1_655 S
C540 C541 1.391 1_655 S
C541 H529 0.950 . S
C541 C537 1.393 . S
C541 C540 1.391 1_455 S
C542 H532 0.950 . S
C542 C543 1.386 . S
C542 C544 1.391 . S
C543 C542 1.386 . S
C543 C547 1.393 . S
C544 H533 0.950 1_545 S
C544 C542 1.391 . S
C544 C545 1.400 . S
C545 C539 1.491 1_645 S
C545 C544 1.400 . S
C545 C546 1.398 1_655 S
C546 H534 0.950 . S
C546 C545 1.398 1_455 S
C546 C547 1.391 1_455 S
C547 H535 0.950 . S
C547 C543 1.393 . S
C547 C546 1.391 1_655 S
H548 C556 0.950 . S
H549 C561 0.950 . S
H550 C558 0.950 . S
H551 C560 0.950 . S
H552 C562 0.950 . S
H553 C564 0.950 . S
H554 C566 0.950 . S
H555 C567 0.950 . S
C556 H548 0.950 . S
C556 C557 1.386 . S
C556 C558 1.391 . S
C557 C556 1.386 . S
C557 C561 1.393 . S
C558 H550 0.950 . S
C558 C556 1.391 . S
C558 C559 1.400 . S
C559 C558 1.400 . S
C559 C560 1.398 . S
C559 C565 1.491 . S
C560 H551 0.950 . S
C560 C559 1.398 . S
C560 C561 1.391 . S
C561 H549 0.950 . S
C561 C557 1.393 . S
C561 C560 1.391 . S
C562 H552 0.950 . S
C562 C563 1.386 . S
C562 C564 1.391 . S
C563 C562 1.386 . S
C563 C567 1.393 . S
C564 H553 0.950 . S
C564 C562 1.391 . S
C564 C565 1.400 . S
C565 C559 1.491 . S
C565 C564 1.400 . S
C565 C566 1.398 . S
C566 H554 0.950 . S
C566 C565 1.398 . S
C566 C567 1.391 . S
C567 H555 0.950 . S
C567 C563 1.393 . S
C567 C566 1.391 . S
H568 C576 0.950 . S
H569 C581 0.950 . S
H570 C578 0.950 . S
H571 C580 0.950 1_564 S
H572 C582 0.950 . S
H573 C584 0.950 . S
H574 C586 0.950 . S
H575 C587 0.950 . S
C576 H568 0.950 . S
C576 C577 1.386 . S
C576 C578 1.391 . S
C577 C576 1.386 . S
C577 C581 1.393 . S
C578 H570 0.950 . S
C578 C576 1.391 . S
C578 C579 1.400 . S
C579 C578 1.400 . S
C579 C580 1.398 . S
C579 C585 1.475 1_546 S
C580 H571 0.950 1_546 S
C580 C579 1.398 . S
C580 C581 1.391 . S
C581 H569 0.950 . S
C581 C577 1.393 . S
C581 C580 1.391 . S
C582 H572 0.950 . S
C582 C583 1.386 . S
C582 C584 1.391 . S
C583 C582 1.386 . S
C583 C587 1.393 . S
C584 H573 0.950 . S
C584 C582 1.391 . S
C584 C585 1.422 . S
C585 C579 1.475 1_564 S
C585 C584 1.422 . S
C585 C586 1.393 1_554 S
C586 H574 0.950 . S
C586 C585 1.393 1_556 S
C586 C587 1.391 1_556 S
C587 H575 0.950 . S
C587 C583 1.393 . S
C587 C586 1.391 1_554 S
H588 C596 0.950 . S
H589 C601 0.950 . S
H590 C598 0.950 . S
H591 C600 0.950 . S
H592 C602 0.950 . S
H593 C604 0.950 . S
H594 C606 0.950 . S
H595 C607 0.950 . S
C596 H588 0.950 . S
C596 C597 1.386 . S
C596 C598 1.391 . S
C597 C596 1.386 . S
C597 C601 1.393 . S
C598 H590 0.950 . S
C598 C596 1.391 . S
C598 C599 1.400 . S
C599 C598 1.400 . S
C599 C600 1.398 . S
C599 C605 1.491 . S
C600 H591 0.950 . S
C600 C599 1.398 . S
C600 C601 1.391 . S
C601 H589 0.950 . S
C601 C597 1.393 . S
C601 C600 1.391 . S
C602 H592 0.950 . S
C602 C603 1.386 . S
C602 C604 1.391 . S
C603 C602 1.386 . S
C603 C607 1.393 . S
C604 H593 0.950 . S
C604 C602 1.391 . S
C604 C605 1.400 . S
C605 C599 1.491 . S
C605 C604 1.400 . S
C605 C606 1.398 . S
C606 H594 0.950 . S
C606 C605 1.398 . S
C606 C607 1.391 . S
C607 H595 0.950 . S
C607 C603 1.393 . S
C607 C606 1.391 . S
H608 C616 0.950 . S
H609 C621 0.950 . S
H610 C618 0.950 . S
H611 C620 0.957 . S
H612 C622 0.950 . S
H613 C624 0.950 . S
H614 C626 0.952 . S
H615 C627 0.950 . S
C616 H608 0.950 . S
C616 C617 1.386 . S
C616 C618 1.391 . S
C617 C616 1.386 . S
C617 C621 1.393 . S
C618 H610 0.950 . S
C618 C616 1.391 . S
C618 C619 1.400 . S
C619 C618 1.400 . S
C619 C620 1.396 1_554 S
C619 C625 1.491 1_554 S
C620 H611 0.957 . S
C620 C619 1.396 1_556 S
C620 C621 1.387 1_556 S
C621 H609 0.950 . S
C621 C617 1.393 . S
C621 C620 1.387 1_554 S
C622 H612 0.950 . S
C622 C623 1.386 . S
C622 C624 1.391 . S
C623 C622 1.386 . S
C623 C627 1.393 . S
C624 H613 0.950 . S
C624 C622 1.391 . S
C624 C625 1.400 . S
C625 C619 1.491 1_556 S
C625 C624 1.400 . S
C625 C626 1.398 1_556 S
C626 H614 0.952 . S
C626 C625 1.398 1_554 S
C626 C627 1.389 1_554 S
C627 H615 0.950 . S
C627 C623 1.393 . S
C627 C626 1.389 1_556 S
H628 C636 0.950 . S
H629 C641 0.950 . S
H630 C638 0.950 . S
H631 C640 0.950 . S
H632 C642 0.950 . S
H633 C644 0.950 . S
H634 C646 0.950 . S
H635 C647 0.950 . S
C636 H628 0.950 . S
C636 C637 1.386 . S
C636 C638 1.391 . S
C637 C636 1.386 . S
C637 C641 1.393 . S
C638 H630 0.950 . S
C638 C636 1.391 . S
C638 C639 1.400 . S
C639 C638 1.400 . S
C639 C640 1.398 . S
C639 C645 1.491 . S
C640 H631 0.950 . S
C640 C639 1.398 . S
C640 C641 1.391 . S
C641 H629 0.950 . S
C641 C637 1.393 . S
C641 C640 1.391 . S
C642 H632 0.950 . S
C642 C643 1.386 . S
C642 C644 1.391 . S
C643 C642 1.386 . S
C643 C647 1.393 . S
C644 H633 0.950 . S
C644 C642 1.391 . S
C644 C645 1.400 . S
C645 C639 1.491 . S
C645 C644 1.400 . S
C645 C646 1.398 . S
C646 H634 0.950 . S
C646 C645 1.398 . S
C646 C647 1.391 . S
C647 H635 0.950 . S
C647 C643 1.393 . S
C647 C646 1.391 . S
H648 C656 0.950 . S
H649 C661 0.950 . S
H650 C658 0.950 1_655 S
H651 C660 0.950 . S
H652 C662 0.950 . S
H653 C664 0.950 1_455 S
H654 C666 0.950 . S
H655 C667 0.950 . S
C656 H648 0.950 . S
C656 C657 1.386 . S
C656 C658 1.391 . S
C657 C656 1.386 . S
C657 C661 1.393 . S
C658 H650 0.950 1_455 S
C658 C656 1.391 . S
C658 C659 1.400 . S
C659 C658 1.400 . S
C659 C660 1.398 . S
C659 C665 1.491 1_455 S
C660 H651 0.950 . S
C660 C659 1.398 . S
C660 C661 1.391 . S
C661 H649 0.950 . S
C661 C657 1.393 . S
C661 C660 1.391 . S
C662 H652 0.950 . S
C662 C663 1.386 . S
C662 C664 1.391 . S
C663 C662 1.386 . S
C663 C667 1.393 . S
C664 H653 0.950 1_655 S
C664 C662 1.391 . S
C664 C665 1.400 . S
C665 C659 1.491 1_655 S
C665 C664 1.400 . S
C665 C666 1.398 . S
C666 H654 0.950 . S
C666 C665 1.398 . S
C666 C667 1.391 . S
C667 H655 0.950 . S
C667 C663 1.393 . S
C667 C666 1.391 . S
H668 C676 0.950 . S
H669 C681 0.950 . S
H670 C678 0.950 . S
H671 C680 0.950 . S
H672 C682 0.950 . S
H673 C684 0.950 . S
H674 C686 0.950 . S
H675 C687 0.950 . S
C676 H668 0.950 . S
C676 C677 1.386 . S
C676 C678 1.391 . S
C677 C676 1.386 . S
C677 C681 1.393 . S
C678 H670 0.950 . S
C678 C676 1.391 . S
C678 C679 1.400 . S
C679 C678 1.400 . S
C679 C680 1.398 . S
C679 C685 1.491 . S
C680 H671 0.950 . S
C680 C679 1.398 . S
C680 C681 1.391 . S
C681 H669 0.950 . S
C681 C677 1.393 . S
C681 C680 1.391 . S
C682 H672 0.950 . S
C682 C683 1.386 . S
C682 C684 1.391 . S
C683 C682 1.386 . S
C683 C687 1.393 . S
C684 H673 0.950 . S
C684 C682 1.391 . S
C684 C685 1.400 . S
C685 C679 1.491 . S
C685 C684 1.400 . S
C685 C686 1.398 . S
C686 H674 0.950 . S
C686 C685 1.398 . S
C686 C687 1.391 . S
C687 H675 0.950 . S
C687 C683 1.393 . S
C687 C686 1.391 . S
H688 C696 0.950 . S
H689 C701 0.950 . S
H690 C698 0.950 . S
H691 C700 0.950 . S
H692 C702 0.950 . S
H693 C704 0.950 . S
H694 C706 0.950 . S
H695 C707 0.950 . S
C696 H688 0.950 . S
C696 C697 1.386 . S
C696 C698 1.391 . S
C697 C696 1.386 . S
C697 C701 1.393 . S
C698 H690 0.950 . S
C698 C696 1.391 . S
C698 C699 1.400 . S
C699 C698 1.400 . S
C699 C700 1.398 . S
C699 C705 1.491 . S
C700 H691 0.950 . S
C700 C699 1.398 . S
C700 C701 1.391 . S
C701 H689 0.950 . S
C701 C697 1.393 . S
C701 C700 1.391 . S
C702 H692 0.950 . S
C702 C703 1.386 . S
C702 C704 1.391 . S
C703 C702 1.386 . S
C703 C707 1.393 . S
C704 H693 0.950 . S
C704 C702 1.391 . S
C704 C705 1.400 . S
C705 C699 1.491 . S
C705 C704 1.400 . S
C705 C706 1.398 . S
C706 H694 0.950 . S
C706 C705 1.398 . S
C706 C707 1.391 . S
C707 H695 0.950 . S
C707 C703 1.393 . S
C707 C706 1.391 . S
H708 C716 0.950 . S
H709 C721 0.950 . S
H710 C718 0.950 . S
H711 C720 0.950 . S
H712 C722 0.950 . S
H713 C724 0.950 . S
H714 C726 0.950 . S
H715 C727 0.950 . S
C716 H708 0.950 . S
C716 C717 1.386 . S
C716 C718 1.391 . S
C717 C716 1.386 . S
C717 C721 1.393 . S
C718 H710 0.950 . S
C718 C716 1.391 . S
C718 C719 1.400 . S
C719 C718 1.400 . S
C719 C720 1.398 . S
C719 C725 1.491 . S
C720 H711 0.950 . S
C720 C719 1.398 . S
C720 C721 1.391 . S
C721 H709 0.950 . S
C721 C717 1.393 . S
C721 C720 1.391 . S
C722 H712 0.950 . S
C722 C723 1.386 . S
C722 C724 1.391 . S
C723 C722 1.386 . S
C723 C727 1.393 . S
C724 H713 0.950 . S
C724 C722 1.391 . S
C724 C725 1.400 . S
C725 C719 1.491 . S
C725 C724 1.400 . S
C725 C726 1.398 . S
C726 H714 0.950 . S
C726 C725 1.398 . S
C726 C727 1.391 . S
C727 H715 0.950 . S
C727 C723 1.393 . S
C727 C726 1.391 . S
H728 C736 0.950 . S
H729 C741 0.950 . S
H730 C738 0.950 . S
H731 C740 0.950 . S
H732 C742 0.950 . S
H733 C744 0.950 . S
H734 C746 0.950 . S
H735 C747 0.950 . S
C736 H728 0.950 . S
C736 C737 1.386 . S
C736 C738 1.391 . S
C737 C736 1.386 . S
C737 C741 1.393 . S
C738 H730 0.950 . S
C738 C736 1.391 . S
C738 C739 1.400 . S
C739 C738 1.400 . S
C739 C740 1.398 . S
C739 C745 1.491 . S
C740 H731 0.950 . S
C740 C739 1.398 . S
C740 C741 1.391 . S
C741 H729 0.950 . S
C741 C737 1.393 . S
C741 C740 1.391 . S
C742 H732 0.950 . S
C742 C743 1.386 . S
C742 C744 1.391 . S
C743 C742 1.386 . S
C743 C747 1.393 . S
C744 H733 0.950 . S
C744 C742 1.391 . S
C744 C745 1.400 . S
C745 C739 1.491 . S
C745 C744 1.400 . S
C745 C746 1.398 . S
C746 H734 0.950 . S
C746 C745 1.398 . S
C746 C747 1.391 . S
C747 H735 0.950 . S
C747 C743 1.393 . S
C747 C746 1.391 . S
H748 C756 0.950 . S
H749 C761 0.950 . S
H750 C758 0.950 1_655 S
H751 C760 0.950 . S
H752 C762 0.950 1_455 S
H753 C764 0.950 . S
H754 C766 0.950 . S
H755 C767 0.950 . S
C756 H748 0.950 . S
C756 C757 1.386 . S
C756 C758 1.391 . S
C757 C756 1.386 . S
C757 C761 1.393 . S
C758 H750 0.950 1_455 S
C758 C756 1.391 . S
C758 C759 1.400 . S
C759 C758 1.400 . S
C759 C760 1.398 . S
C759 C765 1.491 1_556 S
C760 H751 0.950 . S
C760 C759 1.398 . S
C760 C761 1.391 . S
C761 H749 0.950 . S
C761 C757 1.393 . S
C761 C760 1.391 . S
C762 H752 0.950 1_655 S
C762 C763 1.386 . S
C762 C764 1.391 1_655 S
C763 C762 1.386 . S
C763 C767 1.393 . S
C764 H753 0.950 . S
C764 C762 1.391 1_455 S
C764 C765 1.400 . S
C765 C759 1.491 1_554 S
C765 C764 1.400 . S
C765 C766 1.398 1_455 S
C766 H754 0.950 . S
C766 C765 1.398 1_655 S
C766 C767 1.391 . S
C767 H755 0.950 . S
C767 C763 1.393 . S
C767 C766 1.391 . S
H768 C776 0.950 . S
H769 C781 0.950 . S
H770 C778 0.950 . S
H771 C780 0.950 . S
H772 C782 0.950 . S
H773 C784 0.950 . S
H774 C786 0.950 . S
H775 C787 0.950 . S
C776 H768 0.950 . S
C776 C777 1.386 . S
C776 C778 1.391 . S
C777 C776 1.386 . S
C777 C781 1.393 . S
C778 H770 0.950 . S
C778 C776 1.391 . S
C778 C779 1.400 1_545 S
C779 C778 1.400 1_565 S
C779 C780 1.398 . S
C779 C785 1.491 . S
C780 H771 0.950 . S
C780 C779 1.398 . S
C780 C781 1.391 1_565 S
C781 H769 0.950 . S
C781 C777 1.393 . S
C781 C780 1.391 1_545 S
C782 H772 0.950 . S
C782 C783 1.386 . S
C782 C784 1.391 . S
C783 C782 1.386 . S
C783 C787 1.393 . S
C784 H773 0.950 . S
C784 C782 1.391 . S
C784 C785 1.400 . S
C785 C779 1.491 . S
C785 C784 1.400 . S
C785 C786 1.398 . S
C786 H774 0.950 . S
C786 C785 1.398 . S
C786 C787 1.391 . S
C787 H775 0.950 . S
C787 C783 1.393 . S
C787 C786 1.391 . S
H788 C796 0.950 . S
H789 C801 0.950 . S
H790 C798 0.950 . S
H791 C800 0.950 . S
H792 C802 0.950 . S
H793 C804 0.950 . S
H794 C806 0.950 . S
H795 C807 0.950 . S
C796 H788 0.950 . S
C796 C797 1.386 . S
C796 C798 1.391 . S
C797 C796 1.386 . S
C797 C801 1.393 . S
C798 H790 0.950 . S
C798 C796 1.391 . S
C798 C799 1.400 . S
C799 C798 1.400 . S
C799 C800 1.398 . S
C799 C805 1.491 . S
C800 H791 0.950 . S
C800 C799 1.398 . S
C800 C801 1.391 . S
C801 H789 0.950 . S
C801 C797 1.393 . S
C801 C800 1.391 . S
C802 H792 0.950 . S
C802 C803 1.386 . S
C802 C804 1.391 . S
C803 C802 1.386 . S
C803 C807 1.393 . S
C804 H793 0.950 . S
C804 C802 1.391 . S
C804 C805 1.400 . S
C805 C799 1.491 . S
C805 C804 1.400 . S
C805 C806 1.398 . S
C806 H794 0.950 . S
C806 C805 1.398 . S
C806 C807 1.391 . S
C807 H795 0.950 . S
C807 C803 1.393 . S
C807 C806 1.391 . S
H808 C816 0.950 . S
H809 C821 0.950 . S
H810 C818 0.950 . S
H811 C820 0.950 . S
H812 C822 0.950 . S
H813 C824 0.950 . S
H814 C826 0.950 . S
H815 C827 0.950 . S
C816 H808 0.950 . S
C816 C817 1.386 . S
C816 C818 1.391 . S
C817 C816 1.386 . S
C817 C821 1.393 . S
C818 H810 0.950 . S
C818 C816 1.391 . S
C818 C819 1.400 . S
C819 C818 1.400 . S
C819 C820 1.398 . S
C819 C825 1.491 . S
C820 H811 0.950 . S
C820 C819 1.398 . S
C820 C821 1.391 . S
C821 H809 0.950 . S
C821 C817 1.393 . S
C821 C820 1.391 . S
C822 H812 0.950 . S
C822 C823 1.386 . S
C822 C824 1.391 . S
C823 C822 1.386 . S
C823 C827 1.393 . S
C824 H813 0.950 . S
C824 C822 1.391 . S
C824 C825 1.400 1_565 S
C825 C819 1.491 . S
C825 C824 1.400 1_545 S
C825 C826 1.398 . S
C826 H814 0.950 . S
C826 C825 1.398 . S
C826 C827 1.391 1_545 S
C827 H815 0.950 . S
C827 C823 1.393 . S
C827 C826 1.391 1_565 S
H828 C836 0.950 . S
H829 C841 0.950 . S
H830 C838 0.950 . S
H831 C840 0.950 . S
H832 C842 0.950 . S
H833 C844 0.950 . S
H834 C846 0.950 . S
H835 C847 0.950 . S
C836 H828 0.950 . S
C836 C837 1.386 . S
C836 C838 1.391 . S
C837 C836 1.386 . S
C837 C841 1.393 . S
C838 H830 0.950 . S
C838 C836 1.391 . S
C838 C839 1.400 . S
C839 C838 1.400 . S
C839 C840 1.398 . S
C839 C845 1.491 . S
C840 H831 0.950 . S
C840 C839 1.398 . S
C840 C841 1.391 . S
C841 H829 0.950 . S
C841 C837 1.393 . S
C841 C840 1.391 . S
C842 H832 0.950 . S
C842 C843 1.386 . S
C842 C844 1.391 1_554 S
C843 C842 1.386 . S
C843 C847 1.393 . S
C844 H833 0.950 . S
C844 C842 1.391 1_556 S
C844 C845 1.400 . S
C845 C839 1.491 . S
C845 C844 1.400 . S
C845 C846 1.398 1_556 S
C846 H834 0.950 . S
C846 C845 1.398 1_554 S
C846 C847 1.391 . S
C847 H835 0.950 . S
C847 C843 1.393 . S
C847 C846 1.391 . S
H848 C856 0.950 . S
H849 C861 0.950 . S
H850 C858 0.950 . S
H851 C860 0.950 . S
H852 C862 0.950 . S
H853 C864 0.950 1_545 S
H854 C866 0.950 1_545 S
H855 C867 0.950 . S
C856 H848 0.950 . S
C856 C857 1.386 . S
C856 C858 1.391 . S
C857 C856 1.386 . S
C857 C861 1.393 . S
C858 H850 0.950 . S
C858 C856 1.391 . S
C858 C859 1.400 . S
C859 C858 1.400 . S
C859 C860 1.398 . S
C859 C865 1.491 . S
C860 H851 0.950 . S
C860 C859 1.398 . S
C860 C861 1.391 . S
C861 H849 0.950 . S
C861 C857 1.393 . S
C861 C860 1.391 . S
C862 H852 0.950 . S
C862 C863 1.386 . S
C862 C864 1.391 . S
C863 C862 1.386 . S
C863 C867 1.393 . S
C864 H853 0.950 1_565 S
C864 C862 1.391 . S
C864 C865 1.400 1_565 S
C865 C859 1.491 . S
C865 C864 1.400 1_545 S
C865 C866 1.398 1_545 S
C866 H854 0.950 1_565 S
C866 C865 1.398 1_565 S
C866 C867 1.391 . S
C867 H855 0.950 . S
C867 C863 1.393 . S
C867 C866 1.391 . S
H868 C876 0.950 . S
H869 C881 0.950 . S
H870 C878 0.950 . S
H871 C880 0.950 . S
H872 C882 0.950 . S
H873 C884 0.950 . S
H874 C886 0.950 . S
H875 C887 0.950 . S
C876 H868 0.950 . S
C876 C877 1.386 . S
C876 C878 1.391 . S
C877 C876 1.386 . S
C877 C881 1.393 . S
C878 H870 0.950 . S
C878 C876 1.391 . S
C878 C879 1.400 . S
C879 C878 1.400 . S
C879 C880 1.398 . S
C879 C885 1.491 . S
C880 H871 0.950 . S
C880 C879 1.398 . S
C880 C881 1.391 . S
C881 H869 0.950 . S
C881 C877 1.393 . S
C881 C880 1.391 . S
C882 H872 0.950 . S
C882 C883 1.386 . S
C882 C884 1.391 . S
C883 C882 1.386 . S
C883 C887 1.393 . S
C884 H873 0.950 . S
C884 C882 1.391 . S
C884 C885 1.400 . S
C885 C879 1.491 . S
C885 C884 1.400 . S
C885 C886 1.398 . S
C886 H874 0.950 . S
C886 C885 1.398 . S
C886 C887 1.391 . S
C887 H875 0.950 . S
C887 C883 1.393 . S
C887 C886 1.391 . S
H888 C896 0.950 1_565 S
H889 C901 0.950 . S
H890 C898 0.950 . S
H891 C900 0.950 . S
H892 C902 0.950 . S
H893 C904 0.950 . S
H894 C906 0.950 . S
H895 C907 0.950 . S
C896 H888 0.950 1_545 S
C896 C897 1.386 . S
C896 C898 1.391 1_545 S
C897 C896 1.386 . S
C897 C901 1.393 . S
C898 H890 0.950 . S
C898 C896 1.391 1_565 S
C898 C899 1.400 . S
C899 C898 1.400 . S
C899 C900 1.398 1_565 S
C899 C905 1.491 . S
C900 H891 0.950 . S
C900 C899 1.398 1_545 S
C900 C901 1.391 . S
C901 H889 0.950 . S
C901 C897 1.393 . S
C901 C900 1.391 . S
C902 H892 0.950 . S
C902 C903 1.386 . S
C902 C904 1.391 . S
C903 C902 1.386 . S
C903 C907 1.393 . S
C904 H893 0.950 . S
C904 C902 1.391 . S
C904 C905 1.400 . S
C905 C899 1.491 . S
C905 C904 1.400 . S
C905 C906 1.398 . S
C906 H894 0.950 . S
C906 C905 1.398 . S
C906 C907 1.391 . S
C907 H895 0.950 . S
C907 C903 1.393 . S
C907 C906 1.391 . S
H908 C916 0.950 . S
H909 C921 0.950 . S
H910 C918 0.950 . S
H911 C920 0.963 . S
H912 C922 0.950 . S
H913 C924 0.950 . S
H914 C926 0.950 . S
H915 C927 0.950 . S
C916 H908 0.950 . S
C916 C917 1.386 . S
C916 C918 1.391 . S
C917 C916 1.386 . S
C917 C921 1.393 . S
C918 H910 0.950 . S
C918 C916 1.391 . S
C918 C919 1.400 1_556 S
C919 C918 1.400 1_554 S
C919 C920 1.399 . S
C919 C925 1.491 . S
C920 H911 0.963 . S
C920 C919 1.399 . S
C920 C921 1.377 1_554 S
C921 H909 0.950 . S
C921 C917 1.393 . S
C921 C920 1.377 1_556 S
C922 H912 0.950 . S
C922 C923 1.386 . S
C922 C924 1.391 . S
C923 C922 1.386 . S
C923 C927 1.393 . S
C924 H913 0.950 . S
C924 C922 1.391 . S
C924 C925 1.400 . S
C925 C919 1.491 . S
C925 C924 1.400 . S
C925 C926 1.398 . S
C926 H914 0.950 . S
C926 C925 1.398 . S
C926 C927 1.391 . S
C927 H915 0.950 . S
C927 C923 1.393 . S
C927 C926 1.391 . S
H928 C936 0.950 . S
H929 C941 0.950 . S
H930 C938 0.950 . S
H931 C940 0.950 . S
H932 C942 0.950 . S
H933 C944 0.950 . S
H934 C946 0.950 . S
H935 C947 0.950 . S
C936 H928 0.950 . S
C936 C937 1.386 . S
C936 C938 1.391 . S
C937 C936 1.386 . S
C937 C941 1.393 . S
C938 H930 0.950 . S
C938 C936 1.391 . S
C938 C939 1.400 . S
C939 C938 1.400 . S
C939 C940 1.398 . S
C939 C945 1.491 . S
C940 H931 0.950 . S
C940 C939 1.398 . S
C940 C941 1.391 . S
C941 H929 0.950 . S
C941 C937 1.393 . S
C941 C940 1.391 . S
C942 H932 0.950 . S
C942 C943 1.386 1_655 S
C942 C944 1.391 . S
C943 C942 1.386 1_455 S
C943 C947 1.393 . S
C944 H933 0.950 . S
C944 C942 1.391 . S
C944 C945 1.400 . S
C945 C939 1.491 . S
C945 C944 1.400 . S
C945 C946 1.398 1_655 S
C946 H934 0.950 . S
C946 C945 1.398 1_455 S
C946 C947 1.391 . S
C947 H935 0.950 . S
C947 C943 1.393 . S
C947 C946 1.391 . S
H948 C956 0.950 . S
H949 C961 0.950 . S
H950 C958 0.950 . S
H951 C960 0.950 . S
H952 C962 0.950 . S
H953 C964 0.950 . S
H954 C966 0.950 . S
H955 C967 0.950 . S
C956 H948 0.950 . S
C956 C957 1.386 . S
C956 C958 1.391 . S
C957 C956 1.386 . S
C957 C961 1.393 . S
C958 H950 0.950 . S
C958 C956 1.391 . S
C958 C959 1.400 . S
C959 C958 1.400 . S
C959 C960 1.398 . S
C959 C965 1.491 . S
C960 H951 0.950 . S
C960 C959 1.398 . S
C960 C961 1.391 . S
C961 H949 0.950 . S
C961 C957 1.393 . S
C961 C960 1.391 . S
C962 H952 0.950 . S
C962 C963 1.386 . S
C962 C964 1.391 . S
C963 C962 1.386 . S
C963 C967 1.393 . S
C964 H953 0.950 . S
C964 C962 1.391 . S
C964 C965 1.400 . S
C965 C959 1.491 . S
C965 C964 1.400 . S
C965 C966 1.398 . S
C966 H954 0.950 . S
C966 C965 1.398 . S
C966 C967 1.391 . S
C967 H955 0.950 . S
C967 C963 1.393 . S
C967 C966 1.391 . S
H968 C976 0.950 . S
H969 C981 0.950 . S
H970 C978 0.950 . S
H971 C980 0.950 . S
H972 C982 0.950 . S
H973 C984 0.950 . S
H974 C986 0.950 . S
H975 C987 0.950 . S
C976 H968 0.950 . S
C976 C977 1.386 . S
C976 C978 1.391 1_655 S
C977 C976 1.386 . S
C977 C981 1.393 . S
C978 H970 0.950 . S
C978 C976 1.391 1_455 S
C978 C979 1.400 . S
C979 C978 1.400 . S
C979 C980 1.398 1_455 S
C979 C985 1.491 . S
C980 H971 0.950 . S
C980 C979 1.398 1_655 S
C980 C981 1.391 . S
C981 H969 0.950 . S
C981 C977 1.393 . S
C981 C980 1.391 . S
C982 H972 0.950 . S
C982 C983 1.386 . S
C982 C984 1.391 . S
C983 C982 1.386 . S
C983 C987 1.393 . S
C984 H973 0.950 . S
C984 C982 1.391 . S
C984 C985 1.400 . S
C985 C979 1.491 . S
C985 C984 1.400 . S
C985 C986 1.398 . S
C986 H974 0.950 . S
C986 C985 1.398 . S
C986 C987 1.391 . S
C987 H975 0.950 . S
C987 C983 1.393 . S
C987 C986 1.391 . S
H988 C996 0.950 . S
H989 C1001 0.950 . S
H990 C998 0.950 . S
H991 C1000 0.950 . S
H992 C1002 0.950 . S
H993 C1004 0.950 . S
H994 C1006 0.950 . S
H995 C1007 0.950 . S
C996 H988 0.950 . S
C996 C997 1.386 1_455 S
C996 C998 1.391 . S
C997 C996 1.386 1_655 S
C997 C1001 1.393 . S
C998 H990 0.950 . S
C998 C996 1.391 . S
C998 C999 1.400 . S
C999 C998 1.400 . S
C999 C1000 1.398 1_455 S
C999 C1005 1.491 . S
C1000 H991 0.950 . S
C1000 C999 1.398 1_655 S
C1000 C1001 1.391 . S
C1001 H989 0.950 . S
C1001 C997 1.393 . S
C1001 C1000 1.391 . S
C1002 H992 0.950 . S
C1002 C1003 1.386 . S
C1002 C1004 1.391 . S
C1003 C1002 1.386 . S
C1003 C1007 1.393 . S
C1004 H993 0.950 . S
C1004 C1002 1.391 . S
C1004 C1005 1.400 . S
C1005 C999 1.491 . S
C1005 C1004 1.400 . S
C1005 C1006 1.398 . S
C1006 H994 0.950 . S
C1006 C1005 1.398 . S
C1006 C1007 1.391 . S
C1007 H995 0.950 . S
C1007 C1003 1.393 . S
C1007 C1006 1.391 . S
H1008 C1016 0.950 . S
H1009 C1021 0.950 . S
H1010 C1018 0.950 . S
H1011 C1020 0.950 . S
H1012 C1022 0.950 . S
H1013 C1024 0.950 . S
H1014 C1026 0.950 . S
H1015 C1027 0.950 . S
C1016 H1008 0.950 . S
C1016 C1017 1.386 . S
C1016 C1018 1.391 . S
C1017 C1016 1.386 . S
C1017 C1021 1.393 . S
C1018 H1010 0.950 . S
C1018 C1016 1.391 . S
C1018 C1019 1.400 . S
C1019 C1018 1.400 . S
C1019 C1020 1.398 . S
C1019 C1025 1.491 . S
C1020 H1011 0.950 . S
C1020 C1019 1.398 . S
C1020 C1021 1.391 . S
C1021 H1009 0.950 . S
C1021 C1017 1.393 . S
C1021 C1020 1.391 . S
C1022 H1012 0.950 . S
C1022 C1023 1.386 . S
C1022 C1024 1.391 . S
C1023 C1022 1.386 . S
C1023 C1027 1.393 . S
C1024 H1013 0.950 . S
C1024 C1022 1.391 . S
C1024 C1025 1.400 . S
C1025 C1019 1.491 . S
C1025 C1024 1.400 . S
C1025 C1026 1.398 . S
C1026 H1014 0.950 . S
C1026 C1025 1.398 . S
C1026 C1027 1.391 . S
C1027 H1015 0.950 . S
C1027 C1023 1.393 . S
C1027 C1026 1.391 . S
H1028 C1036 0.950 . S
H1029 C1041 0.950 . S
H1030 C1038 0.950 . S
H1031 C1040 0.950 . S
H1032 C1042 0.950 . S
H1033 C1044 0.950 . S
H1034 C1046 0.950 . S
H1035 C1047 0.950 . S
C1036 H1028 0.950 . S
C1036 C1037 1.386 . S
C1036 C1038 1.391 . S
C1037 C1036 1.386 . S
C1037 C1041 1.393 . S
C1038 H1030 0.950 . S
C1038 C1036 1.391 . S
C1038 C1039 1.400 . S
C1039 C1038 1.400 . S
C1039 C1040 1.398 . S
C1039 C1045 1.491 . S
C1040 H1031 0.950 . S
C1040 C1039 1.398 . S
C1040 C1041 1.391 . S
C1041 H1029 0.950 . S
C1041 C1037 1.393 . S
C1041 C1040 1.391 . S
C1042 H1032 0.950 . S
C1042 C1043 1.386 . S
C1042 C1044 1.391 1_455 S
C1043 C1042 1.386 . S
C1043 C1047 1.393 . S
C1044 H1033 0.950 . S
C1044 C1042 1.391 1_655 S
C1044 C1045 1.400 . S
C1045 C1039 1.491 . S
C1045 C1044 1.400 . S
C1045 C1046 1.398 1_655 S
C1046 H1034 0.950 . S
C1046 C1045 1.398 1_455 S
C1046 C1047 1.391 . S
C1047 H1035 0.950 . S
C1047 C1043 1.393 . S
C1047 C1046 1.391 . S
H1048 C1056 0.950 . S
H1049 C1061 0.950 . S
H1050 C1058 0.950 . S
H1051 C1060 0.950 . S
H1052 C1062 0.950 . S
H1053 C1064 0.950 . S
H1054 C1066 0.950 . S
H1055 C1067 0.950 . S
C1056 H1048 0.950 . S
C1056 C1057 1.386 . S
C1056 C1058 1.391 . S
C1057 C1056 1.386 . S
C1057 C1061 1.393 . S
C1058 H1050 0.950 . S
C1058 C1056 1.391 . S
C1058 C1059 1.400 . S
C1059 C1058 1.400 . S
C1059 C1060 1.398 . S
C1059 C1065 1.491 . S
C1060 H1051 0.950 . S
C1060 C1059 1.398 . S
C1060 C1061 1.391 . S
C1061 H1049 0.950 . S
C1061 C1057 1.393 . S
C1061 C1060 1.391 . S
C1062 H1052 0.950 . S
C1062 C1063 1.386 . S
C1062 C1064 1.391 . S
C1063 C1062 1.386 . S
C1063 C1067 1.393 . S
C1064 H1053 0.950 . S
C1064 C1062 1.391 . S
C1064 C1065 1.400 . S
C1065 C1059 1.491 . S
C1065 C1064 1.400 . S
C1065 C1066 1.398 . S
C1066 H1054 0.950 . S
C1066 C1065 1.398 . S
C1066 C1067 1.391 . S
C1067 H1055 0.950 . S
C1067 C1063 1.393 . S
C1067 C1066 1.391 . S
H1068 C1076 0.950 . S
H1069 C1081 0.950 . S
H1070 C1078 0.950 . S
H1071 C1080 0.950 . S
H1072 C1082 0.950 . S
H1073 C1084 0.950 . S
H1074 C1086 0.953 . S
H1075 C1087 0.950 . S
C1076 H1068 0.950 . S
C1076 C1077 1.386 . S
C1076 C1078 1.391 . S
C1077 C1076 1.386 . S
C1077 C1081 1.393 . S
C1078 H1070 0.950 . S
C1078 C1076 1.391 . S
C1078 C1079 1.400 . S
C1079 C1078 1.400 . S
C1079 C1080 1.398 . S
C1079 C1085 1.491 . S
C1080 H1071 0.950 . S
C1080 C1079 1.398 . S
C1080 C1081 1.391 . S
C1081 H1069 0.950 . S
C1081 C1077 1.393 . S
C1081 C1080 1.391 . S
C1082 H1072 0.950 . S
C1082 C1083 1.386 . S
C1082 C1084 1.391 1_565 S
C1083 C1082 1.386 . S
C1083 C1087 1.393 . S
C1084 H1073 0.950 . S
C1084 C1082 1.391 1_545 S
C1084 C1085 1.400 . S
C1085 C1079 1.491 . S
C1085 C1084 1.400 . S
C1085 C1086 1.406 . S
C1086 H1074 0.953 . S
C1086 C1085 1.406 . S
C1086 C1087 1.380 1_545 S
C1087 H1075 0.950 . S
C1087 C1083 1.393 . S
C1087 C1086 1.380 1_565 S
H1088 C1096 0.950 . S
H1089 C1101 0.950 . S
H1090 C1098 0.950 . S
H1091 C1100 0.950 . S
H1092 C1102 0.950 . S
H1093 C1104 0.950 . S
H1094 C1106 0.950 . S
H1095 C1107 0.950 . S
C1096 H1088 0.950 . S
C1096 C1097 1.386 . S
C1096 C1098 1.391 . S
C1097 C1096 1.386 . S
C1097 C1101 1.393 . S
C1098 H1090 0.950 . S
C1098 C1096 1.391 . S
C1098 C1099 1.400 . S
C1099 C1098 1.400 . S
C1099 C1100 1.398 . S
C1099 C1105 1.491 . S
C1100 H1091 0.950 . S
C1100 C1099 1.398 . S
C1100 C1101 1.391 . S
C1101 H1089 0.950 . S
C1101 C1097 1.393 . S
C1101 C1100 1.391 . S
C1102 H1092 0.950 . S
C1102 C1103 1.386 . S
C1102 C1104 1.391 . S
C1103 C1102 1.386 . S
C1103 C1107 1.393 . S
C1104 H1093 0.950 . S
C1104 C1102 1.391 . S
C1104 C1105 1.400 . S
C1105 C1099 1.491 . S
C1105 C1104 1.400 . S
C1105 C1106 1.398 . S
C1106 H1094 0.950 . S
C1106 C1105 1.398 . S
C1106 C1107 1.391 . S
C1107 H1095 0.950 . S
C1107 C1103 1.393 . S
C1107 C1106 1.391 . S
H1108 C1116 0.950 . S
H1109 C1121 0.950 . S
H1110 C1118 0.950 . S
H1111 C1120 0.950 . S
H1112 C1122 0.950 . S
H1113 C1124 0.938 1_565 S
H1114 C1126 0.950 . S
H1115 C1127 0.950 . S
C1116 H1108 0.950 . S
C1116 C1117 1.386 . S
C1116 C1118 1.391 . S
C1117 C1116 1.386 . S
C1117 C1121 1.393 . S
C1118 H1110 0.950 . S
C1118 C1116 1.391 . S
C1118 C1119 1.400 . S
C1119 C1118 1.400 . S
C1119 C1120 1.398 . S
C1119 C1125 1.491 . S
C1120 H1111 0.950 . S
C1120 C1119 1.398 . S
C1120 C1121 1.391 . S
C1121 H1109 0.950 . S
C1121 C1117 1.393 . S
C1121 C1120 1.391 . S
C1122 H1112 0.950 . S
C1122 C1123 1.386 . S
C1122 C1124 1.409 . S
C1123 C1122 1.386 . S
C1123 C1127 1.393 . S
C1124 H1113 0.938 1_545 S
C1124 C1122 1.409 . S
C1124 C1125 1.394 1_545 S
C1125 C1119 1.491 . S
C1125 C1124 1.394 1_565 S
C1125 C1126 1.398 1_565 S
C1126 H1114 0.950 . S
C1126 C1125 1.398 1_545 S
C1126 C1127 1.391 . S
C1127 H1115 0.950 . S
C1127 C1123 1.393 . S
C1127 C1126 1.391 . S
H1128 C1136 0.950 . S
H1129 C1141 0.950 . S
H1130 C1138 0.950 . S
H1131 C1140 0.950 . S
H1132 C1142 0.950 . S
H1133 C1144 0.950 . S
H1134 C1146 0.950 . S
H1135 C1147 0.950 . S
C1136 H1128 0.950 . S
C1136 C1137 1.386 . S
C1136 C1138 1.391 . S
C1137 C1136 1.386 . S
C1137 C1141 1.393 . S
C1138 H1130 0.950 . S
C1138 C1136 1.391 . S
C1138 C1139 1.400 1_556 S
C1139 C1138 1.400 1_554 S
C1139 C1140 1.398 . S
C1139 C1145 1.491 . S
C1140 H1131 0.950 . S
C1140 C1139 1.398 . S
C1140 C1141 1.391 1_554 S
C1141 H1129 0.950 . S
C1141 C1137 1.393 . S
C1141 C1140 1.391 1_556 S
C1142 H1132 0.950 . S
C1142 C1143 1.386 . S
C1142 C1144 1.391 . S
C1143 C1142 1.386 . S
C1143 C1147 1.393 . S
C1144 H1133 0.950 . S
C1144 C1142 1.391 . S
C1144 C1145 1.400 . S
C1145 C1139 1.491 . S
C1145 C1144 1.400 . S
C1145 C1146 1.398 . S
C1146 H1134 0.950 . S
C1146 C1145 1.398 . S
C1146 C1147 1.391 . S
C1147 H1135 0.950 . S
C1147 C1143 1.393 . S
C1147 C1146 1.391 . S
H1148 C1156 0.946 1_565 S
H1149 C1161 0.950 . S
H1150 C1158 0.950 . S
H1151 C1160 0.950 . S
H1152 C1162 0.950 . S
H1153 C1164 0.950 . S
H1154 C1166 0.950 . S
H1155 C1167 0.950 . S
C1156 H1148 0.946 1_545 S
C1156 C1157 1.407 . S
C1156 C1158 1.375 1_545 S
C1157 C1156 1.407 . S
C1157 C1161 1.393 . S
C1158 H1150 0.950 . S
C1158 C1156 1.375 1_565 S
C1158 C1159 1.400 . S
C1159 C1158 1.400 . S
C1159 C1160 1.398 1_565 S
C1159 C1165 1.491 . S
C1160 H1151 0.950 . S
C1160 C1159 1.398 1_545 S
C1160 C1161 1.391 . S
C1161 H1149 0.950 . S
C1161 C1157 1.393 . S
C1161 C1160 1.391 . S
C1162 H1152 0.950 . S
C1162 C1163 1.386 . S
C1162 C1164 1.391 . S
C1163 C1162 1.386 . S
C1163 C1167 1.393 . S
C1164 H1153 0.950 . S
C1164 C1162 1.391 . S
C1164 C1165 1.400 . S
C1165 C1159 1.491 . S
C1165 C1164 1.400 . S
C1165 C1166 1.398 . S
C1166 H1154 0.950 . S
C1166 C1165 1.398 . S
C1166 C1167 1.391 . S
C1167 H1155 0.950 . S
C1167 C1163 1.393 . S
C1167 C1166 1.391 . S
H1168 C1176 0.950 . S
H1169 C1181 0.950 . S
H1170 C1178 0.950 . S
H1171 C1180 0.950 . S
H1172 C1182 0.950 . S
H1173 C1184 0.950 . S
H1174 C1186 0.950 . S
H1175 C1187 0.950 . S
C1176 H1168 0.950 . S
C1176 C1177 1.386 . S
C1176 C1178 1.391 . S
C1177 C1176 1.386 . S
C1177 C1181 1.393 . S
C1178 H1170 0.950 . S
C1178 C1176 1.391 . S
C1178 C1179 1.400 . S
C1179 C1178 1.400 . S
C1179 C1180 1.398 . S
C1179 C1185 1.491 . S
C1180 H1171 0.950 . S
C1180 C1179 1.398 . S
C1180 C1181 1.391 . S
C1181 H1169 0.950 . S
C1181 C1177 1.393 . S
C1181 C1180 1.391 . S
C1182 H1172 0.950 . S
C1182 C1183 1.386 . S
C1182 C1184 1.391 . S
C1183 C1182 1.386 . S
C1183 C1187 1.393 . S
C1184 H1173 0.950 . S
C1184 C1182 1.391 . S
C1184 C1185 1.400 . S
C1185 C1179 1.491 . S
C1185 C1184 1.400 . S
C1185 C1186 1.398 . S
C1186 H1174 0.950 . S
C1186 C1185 1.398 . S
C1186 C1187 1.391 . S
C1187 H1175 0.950 . S
C1187 C1183 1.393 . S
C1187 C1186 1.391 . S
H1188 C1196 0.950 . S
H1189 C1201 0.950 . S
H1190 C1198 0.950 1_545 S
H1191 C1200 0.950 . S
H1192 C1202 0.950 . S
H1193 C1204 0.950 . S
H1194 C1206 0.950 . S
H1195 C1207 0.950 . S
C1196 H1188 0.950 . S
C1196 C1197 1.386 . S
C1196 C1198 1.391 . S
C1197 C1196 1.386 . S
C1197 C1201 1.393 . S
C1198 H1190 0.950 1_565 S
C1198 C1196 1.391 . S
C1198 C1199 1.400 1_565 S
C1199 C1198 1.400 1_545 S
C1199 C1200 1.398 . S
C1199 C1205 1.491 . S
C1200 H1191 0.950 . S
C1200 C1199 1.398 . S
C1200 C1201 1.391 1_545 S
C1201 H1189 0.950 . S
C1201 C1197 1.393 . S
C1201 C1200 1.391 1_565 S
C1202 H1192 0.950 . S
C1202 C1203 1.386 . S
C1202 C1204 1.391 . S
C1203 C1202 1.386 . S
C1203 C1207 1.393 . S
C1204 H1193 0.950 . S
C1204 C1202 1.391 . S
C1204 C1205 1.400 . S
C1205 C1199 1.491 . S
C1205 C1204 1.400 . S
C1205 C1206 1.398 . S
C1206 H1194 0.950 . S
C1206 C1205 1.398 . S
C1206 C1207 1.391 . S
C1207 H1195 0.950 . S
C1207 C1203 1.393 . S
C1207 C1206 1.391 . S
H1208 C1216 0.950 . S
H1209 C1221 0.950 . S
H1210 C1218 0.950 . S
H1211 C1220 0.950 . S
H1212 C1222 0.950 . S
H1213 C1224 0.950 . S
H1214 C1226 0.950 . S
H1215 C1227 0.950 . S
C1216 H1208 0.950 . S
C1216 C1217 1.386 . S
C1216 C1218 1.391 1_554 S
C1217 C1216 1.386 . S
C1217 C1221 1.393 . S
C1218 H1210 0.950 . S
C1218 C1216 1.391 1_556 S
C1218 C1219 1.400 . S
C1219 C1218 1.400 . S
C1219 C1220 1.398 1_556 S
C1219 C1225 1.491 . S
C1220 H1211 0.950 . S
C1220 C1219 1.398 1_554 S
C1220 C1221 1.391 . S
C1221 H1209 0.950 . S
C1221 C1217 1.393 . S
C1221 C1220 1.391 . S
C1222 H1212 0.950 . S
C1222 C1223 1.386 . S
C1222 C1224 1.391 . S
C1223 C1222 1.386 . S
C1223 C1227 1.393 . S
C1224 H1213 0.950 . S
C1224 C1222 1.391 . S
C1224 C1225 1.400 . S
C1225 C1219 1.491 . S
C1225 C1224 1.400 . S
C1225 C1226 1.398 . S
C1226 H1214 0.950 . S
C1226 C1225 1.398 . S
C1226 C1227 1.391 . S
C1227 H1215 0.950 . S
C1227 C1223 1.393 . S
C1227 C1226 1.391 . S
H1228 C1236 0.950 . S
H1229 C1241 0.950 . S
H1230 C1238 0.950 1_455 S
H1231 C1240 0.950 . S
H1232 C1242 0.950 . S
H1233 C1244 0.950 . S
H1234 C1246 0.950 . S
H1235 C1247 0.950 . S
C1236 H1228 0.950 . S
C1236 C1237 1.386 . S
C1236 C1238 1.391 . S
C1237 C1236 1.386 . S
C1237 C1241 1.393 . S
C1238 H1230 0.950 1_655 S
C1238 C1236 1.391 . S
C1238 C1239 1.400 1_655 S
C1239 C1238 1.400 1_455 S
C1239 C1240 1.398 1_455 S
C1239 C1245 1.491 . S
C1240 H1231 0.950 . S
C1240 C1239 1.398 1_655 S
C1240 C1241 1.391 . S
C1241 H1229 0.950 . S
C1241 C1237 1.393 . S
C1241 C1240 1.391 . S
C1242 H1232 0.950 . S
C1242 C1243 1.386 . S
C1242 C1244 1.391 . S
C1243 C1242 1.386 . S
C1243 C1247 1.393 . S
C1244 H1233 0.950 . S
C1244 C1242 1.391 . S
C1244 C1245 1.400 . S
C1245 C1239 1.491 . S
C1245 C1244 1.400 . S
C1245 C1246 1.398 . S
C1246 H1234 0.950 . S
C1246 C1245 1.398 . S
C1246 C1247 1.391 . S
C1247 H1235 0.950 . S
C1247 C1243 1.393 . S
C1247 C1246 1.391 . S
H1248 C1256 0.950 . S
H1249 C1261 0.950 . S
H1250 C1258 0.950 . S
H1251 C1260 0.950 . S
H1252 C1262 0.950 . S
H1253 C1264 0.950 . S
H1254 C1266 0.950 . S
H1255 C1267 0.950 . S
C1256 H1248 0.950 . S
C1256 C1257 1.386 . S
C1256 C1258 1.391 . S
C1257 C1256 1.386 . S
C1257 C1261 1.393 . S
C1258 H1250 0.950 . S
C1258 C1256 1.391 . S
C1258 C1259 1.400 . S
C1259 C1258 1.400 . S
C1259 C1260 1.398 . S
C1259 C1265 1.491 . S
C1260 H1251 0.950 . S
C1260 C1259 1.398 . S
C1260 C1261 1.391 . S
C1261 H1249 0.950 . S
C1261 C1257 1.393 . S
C1261 C1260 1.391 . S
C1262 H1252 0.950 . S
C1262 C1263 1.386 . S
C1262 C1264 1.391 . S
C1263 C1262 1.386 . S
C1263 C1267 1.393 . S
C1264 H1253 0.950 . S
C1264 C1262 1.391 . S
C1264 C1265 1.400 . S
C1265 C1259 1.491 . S
C1265 C1264 1.400 . S
C1265 C1266 1.398 . S
C1266 H1254 0.950 . S
C1266 C1265 1.398 . S
C1266 C1267 1.391 . S
C1267 H1255 0.950 . S
C1267 C1263 1.393 . S
C1267 C1266 1.391 . S
H1268 C1276 0.950 . S
H1269 C1281 0.950 . S
H1270 C1278 0.950 . S
H1271 C1280 0.950 . S
H1272 C1282 0.950 . S
H1273 C1284 0.950 . S
H1274 C1286 0.950 . S
H1275 C1287 0.950 . S
C1276 H1268 0.950 . S
C1276 C1277 1.386 . S
C1276 C1278 1.391 1_455 S
C1277 C1276 1.386 . S
C1277 C1281 1.393 . S
C1278 H1270 0.950 . S
C1278 C1276 1.391 1_655 S
C1278 C1279 1.400 . S
C1279 C1278 1.400 . S
C1279 C1280 1.398 1_655 S
C1279 C1285 1.491 . S
C1280 H1271 0.950 . S
C1280 C1279 1.398 1_455 S
C1280 C1281 1.391 . S
C1281 H1269 0.950 . S
C1281 C1277 1.393 . S
C1281 C1280 1.391 . S
C1282 H1272 0.950 . S
C1282 C1283 1.386 . S
C1282 C1284 1.391 . S
C1283 C1282 1.386 . S
C1283 C1287 1.393 . S
C1284 H1273 0.950 . S
C1284 C1282 1.391 . S
C1284 C1285 1.400 . S
C1285 C1279 1.491 . S
C1285 C1284 1.400 . S
C1285 C1286 1.398 . S
C1286 H1274 0.950 . S
C1286 C1285 1.398 . S
C1286 C1287 1.391 . S
C1287 H1275 0.950 . S
C1287 C1283 1.393 . S
C1287 C1286 1.391 . S
H1288 C1296 0.950 . S
H1289 C1301 0.950 . S
H1290 C1298 0.950 . S
H1291 C1300 0.950 . S
H1292 C1302 0.950 . S
H1293 C1304 0.950 . S
H1294 C1306 0.950 . S
H1295 C1307 0.950 . S
C1296 H1288 0.950 . S
C1296 C1297 1.386 . S
C1296 C1298 1.391 1_455 S
C1297 C1296 1.386 . S
C1297 C1301 1.393 . S
C1298 H1290 0.950 . S
C1298 C1296 1.391 1_655 S
C1298 C1299 1.400 . S
C1299 C1298 1.400 . S
C1299 C1300 1.398 1_655 S
C1299 C1305 1.491 . S
C1300 H1291 0.950 . S
C1300 C1299 1.398 1_455 S
C1300 C1301 1.391 . S
C1301 H1289 0.950 . S
C1301 C1297 1.393 . S
C1301 C1300 1.391 . S
C1302 H1292 0.950 . S
C1302 C1303 1.386 . S
C1302 C1304 1.391 . S
C1303 C1302 1.386 . S
C1303 C1307 1.393 . S
C1304 H1293 0.950 . S
C1304 C1302 1.391 . S
C1304 C1305 1.400 . S
C1305 C1299 1.491 . S
C1305 C1304 1.400 . S
C1305 C1306 1.398 . S
C1306 H1294 0.950 . S
C1306 C1305 1.398 . S
C1306 C1307 1.391 . S
C1307 H1295 0.950 . S
C1307 C1303 1.393 . S
C1307 C1306 1.391 . S
H1308 C1316 0.950 . S
H1309 C1321 0.950 . S
H1310 C1318 0.950 . S
H1311 C1320 0.950 . S
H1312 C1322 0.950 . S
H1313 C1324 0.950 . S
H1314 C1326 0.950 . S
H1315 C1327 0.950 . S
C1316 H1308 0.950 . S
C1316 C1317 1.386 . S
C1316 C1318 1.391 . S
C1317 C1316 1.386 . S
C1317 C1321 1.393 . S
C1318 H1310 0.950 . S
C1318 C1316 1.391 . S
C1318 C1319 1.400 . S
C1319 C1318 1.400 . S
C1319 C1320 1.398 . S
C1319 C1325 1.491 . S
C1320 H1311 0.950 . S
C1320 C1319 1.398 . S
C1320 C1321 1.391 . S
C1321 H1309 0.950 . S
C1321 C1317 1.393 . S
C1321 C1320 1.391 . S
C1322 H1312 0.950 . S
C1322 C1323 1.386 . S
C1322 C1324 1.391 . S
C1323 C1322 1.386 . S
C1323 C1327 1.393 . S
C1324 H1313 0.950 . S
C1324 C1322 1.391 . S
C1324 C1325 1.400 . S
C1325 C1319 1.491 . S
C1325 C1324 1.400 . S
C1325 C1326 1.398 . S
C1326 H1314 0.950 . S
C1326 C1325 1.398 . S
C1326 C1327 1.391 . S
C1327 H1315 0.950 . S
C1327 C1323 1.393 . S
C1327 C1326 1.391 . S
H1328 C1336 0.950 . S
H1329 C1341 0.950 . S
H1330 C1338 0.950 . S
H1331 C1340 0.950 . S
H1332 C1342 0.950 . S
H1333 C1344 0.950 . S
H1334 C1346 0.950 . S
H1335 C1347 0.950 . S
C1336 H1328 0.950 . S
C1336 C1337 1.386 . S
C1336 C1338 1.391 1_655 S
C1337 C1336 1.386 . S
C1337 C1341 1.393 . S
C1338 H1330 0.950 . S
C1338 C1336 1.391 1_455 S
C1338 C1339 1.400 . S
C1339 C1338 1.400 . S
C1339 C1340 1.398 1_455 S
C1339 C1345 1.491 . S
C1340 H1331 0.950 . S
C1340 C1339 1.398 1_655 S
C1340 C1341 1.391 . S
C1341 H1329 0.950 . S
C1341 C1337 1.393 . S
C1341 C1340 1.391 . S
C1342 H1332 0.950 . S
C1342 C1343 1.386 . S
C1342 C1344 1.391 . S
C1343 C1342 1.386 . S
C1343 C1347 1.393 . S
C1344 H1333 0.950 . S
C1344 C1342 1.391 . S
C1344 C1345 1.400 . S
C1345 C1339 1.491 . S
C1345 C1344 1.400 . S
C1345 C1346 1.398 . S
C1346 H1334 0.950 . S
C1346 C1345 1.398 . S
C1346 C1347 1.391 . S
C1347 H1335 0.950 . S
C1347 C1343 1.393 . S
C1347 C1346 1.391 . S
H1348 C1356 0.950 . S
H1349 C1361 0.950 . S
H1350 C1358 0.950 . S
H1351 C1360 0.950 . S
H1352 C1362 0.950 . S
H1353 C1364 0.950 . S
H1354 C1366 0.950 . S
H1355 C1367 0.950 . S
C1356 H1348 0.950 . S
C1356 C1357 1.386 . S
C1356 C1358 1.391 . S
C1357 C1356 1.386 . S
C1357 C1361 1.393 . S
C1358 H1350 0.950 . S
C1358 C1356 1.391 . S
C1358 C1359 1.400 . S
C1359 C1358 1.400 . S
C1359 C1360 1.398 . S
C1359 C1365 1.491 . S
C1360 H1351 0.950 . S
C1360 C1359 1.398 . S
C1360 C1361 1.391 . S
C1361 H1349 0.950 . S
C1361 C1357 1.393 . S
C1361 C1360 1.391 . S
C1362 H1352 0.950 . S
C1362 C1363 1.386 . S
C1362 C1364 1.391 . S
C1363 C1362 1.386 . S
C1363 C1367 1.393 . S
C1364 H1353 0.950 . S
C1364 C1362 1.391 . S
C1364 C1365 1.400 . S
C1365 C1359 1.491 . S
C1365 C1364 1.400 . S
C1365 C1366 1.398 . S
C1366 H1354 0.950 . S
C1366 C1365 1.398 . S
C1366 C1367 1.391 . S
C1367 H1355 0.950 . S
C1367 C1363 1.393 . S
C1367 C1366 1.391 . S
H1368 C1376 0.950 . S
H1369 C1381 0.950 . S
H1370 C1378 0.950 . S
H1371 C1380 0.950 . S
H1372 C1382 0.950 . S
H1373 C1384 0.950 . S
H1374 C1386 0.950 . S
H1375 C1387 0.950 . S
C1376 H1368 0.950 . S
C1376 C1377 1.386 . S
C1376 C1378 1.391 . S
C1377 C1376 1.386 . S
C1377 C1381 1.393 . S
C1378 H1370 0.950 . S
C1378 C1376 1.391 . S
C1378 C1379 1.400 . S
C1379 C1378 1.400 . S
C1379 C1380 1.398 . S
C1379 C1385 1.491 . S
C1380 H1371 0.950 . S
C1380 C1379 1.398 . S
C1380 C1381 1.391 . S
C1381 H1369 0.950 . S
C1381 C1377 1.393 . S
C1381 C1380 1.391 . S
C1382 H1372 0.950 . S
C1382 C1383 1.386 . S
C1382 C1384 1.391 . S
C1383 C1382 1.386 . S
C1383 C1387 1.393 . S
C1384 H1373 0.950 . S
C1384 C1382 1.391 . S
C1384 C1385 1.400 . S
C1385 C1379 1.491 . S
C1385 C1384 1.400 . S
C1385 C1386 1.398 . S
C1386 H1374 0.950 . S
C1386 C1385 1.398 . S
C1386 C1387 1.391 . S
C1387 H1375 0.950 . S
C1387 C1383 1.393 . S
C1387 C1386 1.391 . S
H1388 C1396 0.950 . S
H1389 C1401 0.950 . S
H1390 C1398 0.950 . S
H1391 C1400 0.950 . S
H1392 C1402 0.950 . S
H1393 C1404 0.950 . S
H1394 C1406 0.950 . S
H1395 C1407 0.950 . S
C1396 H1388 0.950 . S
C1396 C1397 1.386 . S
C1396 C1398 1.391 . S
C1397 C1396 1.386 . S
C1397 C1401 1.393 . S
C1398 H1390 0.950 . S
C1398 C1396 1.391 . S
C1398 C1399 1.400 1_554 S
C1399 C1398 1.400 1_556 S
C1399 C1400 1.398 . S
C1399 C1405 1.491 . S
C1400 H1391 0.950 . S
C1400 C1399 1.398 . S
C1400 C1401 1.391 1_556 S
C1401 H1389 0.950 . S
C1401 C1397 1.393 . S
C1401 C1400 1.391 1_554 S
C1402 H1392 0.950 . S
C1402 C1403 1.386 . S
C1402 C1404 1.391 . S
C1403 C1402 1.386 . S
C1403 C1407 1.393 . S
C1404 H1393 0.950 . S
C1404 C1402 1.391 . S
C1404 C1405 1.400 . S
C1405 C1399 1.491 . S
C1405 C1404 1.400 . S
C1405 C1406 1.398 . S
C1406 H1394 0.950 . S
C1406 C1405 1.398 . S
C1406 C1407 1.391 . S
C1407 H1395 0.950 . S
C1407 C1403 1.393 . S
C1407 C1406 1.391 . S
H1408 C1416 0.950 . S
H1409 C1421 0.950 . S
H1410 C1418 0.950 . S
H1411 C1420 0.950 . S
H1412 C1422 0.950 . S
H1413 C1424 0.950 . S
H1414 C1426 0.950 . S
H1415 C1427 0.950 . S
C1416 H1408 0.950 . S
C1416 C1417 1.386 . S
C1416 C1418 1.391 . S
C1417 C1416 1.386 . S
C1417 C1421 1.393 . S
C1418 H1410 0.950 . S
C1418 C1416 1.391 . S
C1418 C1419 1.400 . S
C1419 C1418 1.400 . S
C1419 C1420 1.398 . S
C1419 C1425 1.491 . S
C1420 H1411 0.950 . S
C1420 C1419 1.398 . S
C1420 C1421 1.391 . S
C1421 H1409 0.950 . S
C1421 C1417 1.393 . S
C1421 C1420 1.391 . S
C1422 H1412 0.950 . S
C1422 C1423 1.386 . S
C1422 C1424 1.391 . S
C1423 C1422 1.386 . S
C1423 C1427 1.393 . S
C1424 H1413 0.950 . S
C1424 C1422 1.391 . S
C1424 C1425 1.400 . S
C1425 C1419 1.491 . S
C1425 C1424 1.400 . S
C1425 C1426 1.398 . S
C1426 H1414 0.950 . S
C1426 C1425 1.398 . S
C1426 C1427 1.391 . S
C1427 H1415 0.950 . S
C1427 C1423 1.393 . S
C1427 C1426 1.391 . S
H1428 C1436 0.950 . S
H1429 C1441 0.950 . S
H1430 C1438 0.950 . S
H1431 C1440 0.950 . S
H1432 C1442 0.950 . S
H1433 C1444 0.950 . S
H1434 C1446 0.950 . S
H1435 C1447 0.950 . S
C1436 H1428 0.950 . S
C1436 C1437 1.386 . S
C1436 C1438 1.391 . S
C1437 C1436 1.386 . S
C1437 C1441 1.393 . S
C1438 H1430 0.950 . S
C1438 C1436 1.391 . S
C1438 C1439 1.400 . S
C1439 C1438 1.400 . S
C1439 C1440 1.398 . S
C1439 C1445 1.491 . S
C1440 H1431 0.950 . S
C1440 C1439 1.398 . S
C1440 C1441 1.391 . S
C1441 H1429 0.950 . S
C1441 C1437 1.393 . S
C1441 C1440 1.391 . S
C1442 H1432 0.950 . S
C1442 C1443 1.386 . S
C1442 C1444 1.391 . S
C1443 C1442 1.386 . S
C1443 C1447 1.393 . S
C1444 H1433 0.950 . S
C1444 C1442 1.391 . S
C1444 C1445 1.400 . S
C1445 C1439 1.491 . S
C1445 C1444 1.400 . S
C1445 C1446 1.398 . S
C1446 H1434 0.950 . S
C1446 C1445 1.398 . S
C1446 C1447 1.391 . S
C1447 H1435 0.950 . S
C1447 C1443 1.393 . S
C1447 C1446 1.391 . S
H1448 C1456 0.950 . S
H1449 C1461 0.950 . S
H1450 C1458 0.950 . S
H1451 C1460 0.950 . S
H1452 C1462 0.950 . S
H1453 C1464 0.950 . S
H1454 C1466 0.950 . S
H1455 C1467 0.950 . S
C1456 H1448 0.950 . S
C1456 C1457 1.386 . S
C1456 C1458 1.391 . S
C1457 C1456 1.386 . S
C1457 C1461 1.393 . S
C1458 H1450 0.950 . S
C1458 C1456 1.391 . S
C1458 C1459 1.400 . S
C1459 C1458 1.400 . S
C1459 C1460 1.398 . S
C1459 C1465 1.491 . S
C1460 H1451 0.950 . S
C1460 C1459 1.398 . S
C1460 C1461 1.391 . S
C1461 H1449 0.950 . S
C1461 C1457 1.393 . S
C1461 C1460 1.391 . S
C1462 H1452 0.950 . S
C1462 C1463 1.386 . S
C1462 C1464 1.391 . S
C1463 C1462 1.386 . S
C1463 C1467 1.393 . S
C1464 H1453 0.950 . S
C1464 C1462 1.391 . S
C1464 C1465 1.400 . S
C1465 C1459 1.491 . S
C1465 C1464 1.400 . S
C1465 C1466 1.398 . S
C1466 H1454 0.950 . S
C1466 C1465 1.398 . S
C1466 C1467 1.391 . S
C1467 H1455 0.950 . S
C1467 C1463 1.393 . S
C1467 C1466 1.391 . S
H1468 C1476 0.950 . S
H1469 C1481 0.950 . S
H1470 C1478 0.950 . S
H1471 C1480 0.950 . S
H1472 C1482 0.950 . S
H1473 C1484 0.950 . S
H1474 C1486 0.950 . S
H1475 C1487 0.950 . S
C1476 H1468 0.950 . S
C1476 C1477 1.386 . S
C1476 C1478 1.391 . S
C1477 C1476 1.386 . S
C1477 C1481 1.393 . S
C1478 H1470 0.950 . S
C1478 C1476 1.391 . S
C1478 C1479 1.400 . S
C1479 C1478 1.400 . S
C1479 C1480 1.398 . S
C1479 C1485 1.491 . S
C1480 H1471 0.950 . S
C1480 C1479 1.398 . S
C1480 C1481 1.391 . S
C1481 H1469 0.950 . S
C1481 C1477 1.393 . S
C1481 C1480 1.391 . S
C1482 H1472 0.950 . S
C1482 C1483 1.386 . S
C1482 C1484 1.391 . S
C1483 C1482 1.386 . S
C1483 C1487 1.393 . S
C1484 H1473 0.950 . S
C1484 C1482 1.391 . S
C1484 C1485 1.400 1_556 S
C1485 C1479 1.491 . S
C1485 C1484 1.400 1_554 S
C1485 C1486 1.398 . S
C1486 H1474 0.950 . S
C1486 C1485 1.398 . S
C1486 C1487 1.391 1_554 S
C1487 H1475 0.950 . S
C1487 C1483 1.393 . S
C1487 C1486 1.391 1_556 S
H1488 C1496 0.950 . S
H1489 C1501 0.950 . S
H1490 C1498 0.950 . S
H1491 C1500 0.950 . S
H1492 C1502 0.950 . S
H1493 C1504 0.950 . S
H1494 C1506 0.950 . S
H1495 C1507 0.950 . S
C1496 H1488 0.950 . S
C1496 C1497 1.386 . S
C1496 C1498 1.391 . S
C1497 C1496 1.386 . S
C1497 C1501 1.393 . S
C1498 H1490 0.950 . S
C1498 C1496 1.391 . S
C1498 C1499 1.400 . S
C1499 C1498 1.400 . S
C1499 C1500 1.398 . S
C1499 C1505 1.491 . S
C1500 H1491 0.950 . S
C1500 C1499 1.398 . S
C1500 C1501 1.391 . S
C1501 H1489 0.950 . S
C1501 C1497 1.393 . S
C1501 C1500 1.391 . S
C1502 H1492 0.950 . S
C1502 C1503 1.386 . S
C1502 C1504 1.391 . S
C1503 C1502 1.386 . S
C1503 C1507 1.393 . S
C1504 H1493 0.950 . S
C1504 C1502 1.391 . S
C1504 C1505 1.400 . S
C1505 C1499 1.491 . S
C1505 C1504 1.400 . S
C1505 C1506 1.398 . S
C1506 H1494 0.950 . S
C1506 C1505 1.398 . S
C1506 C1507 1.391 . S
C1507 H1495 0.950 . S
C1507 C1503 1.393 . S
C1507 C1506 1.391 . S
H1508 C1516 0.950 . S
H1509 C1521 0.950 . S
H1510 C1518 0.950 . S
H1511 C1520 0.950 . S
H1512 C1522 0.950 . S
H1513 C1524 0.950 . S
H1514 C1526 0.950 . S
H1515 C1527 0.950 . S
C1516 H1508 0.950 . S
C1516 C1517 1.386 . S
C1516 C1518 1.391 . S
C1517 C1516 1.386 . S
C1517 C1521 1.393 . S
C1518 H1510 0.950 . S
C1518 C1516 1.391 . S
C1518 C1519 1.400 . S
C1519 C1518 1.400 . S
C1519 C1520 1.398 . S
C1519 C1525 1.491 . S
C1520 H1511 0.950 . S
C1520 C1519 1.398 . S
C1520 C1521 1.391 . S
C1521 H1509 0.950 . S
C1521 C1517 1.393 . S
C1521 C1520 1.391 . S
C1522 H1512 0.950 . S
C1522 C1523 1.386 . S
C1522 C1524 1.391 . S
C1523 C1522 1.386 . S
C1523 C1527 1.393 . S
C1524 H1513 0.950 . S
C1524 C1522 1.391 . S
C1524 C1525 1.400 . S
C1525 C1519 1.491 . S
C1525 C1524 1.400 . S
C1525 C1526 1.398 . S
C1526 H1514 0.950 . S
C1526 C1525 1.398 . S
C1526 C1527 1.391 . S
C1527 H1515 0.950 . S
C1527 C1523 1.393 . S
C1527 C1526 1.391 . S
H1528 C1536 0.950 . S
H1529 C1541 0.950 . S
H1530 C1538 0.950 . S
H1531 C1540 0.950 . S
H1532 C1542 0.950 . S
H1533 C1544 0.950 . S
H1534 C1546 0.950 . S
H1535 C1547 0.950 . S
C1536 H1528 0.950 . S
C1536 C1537 1.386 . S
C1536 C1538 1.391 . S
C1537 C1536 1.386 . S
C1537 C1541 1.393 . S
C1538 H1530 0.950 . S
C1538 C1536 1.391 . S
C1538 C1539 1.400 . S
C1539 C1538 1.400 . S
C1539 C1540 1.398 . S
C1539 C1545 1.491 . S
C1540 H1531 0.950 . S
C1540 C1539 1.398 . S
C1540 C1541 1.391 . S
C1541 H1529 0.950 . S
C1541 C1537 1.393 . S
C1541 C1540 1.391 . S
C1542 H1532 0.950 . S
C1542 C1543 1.386 . S
C1542 C1544 1.391 . S
C1543 C1542 1.386 . S
C1543 C1547 1.393 . S
C1544 H1533 0.950 . S
C1544 C1542 1.391 . S
C1544 C1545 1.400 . S
C1545 C1539 1.491 . S
C1545 C1544 1.400 . S
C1545 C1546 1.398 . S
C1546 H1534 0.950 . S
C1546 C1545 1.398 . S
C1546 C1547 1.391 . S
C1547 H1535 0.950 . S
C1547 C1543 1.393 . S
C1547 C1546 1.391 . S
H1548 C1556 0.950 . S
H1549 C1561 0.950 . S
H1550 C1558 0.950 . S
H1551 C1560 0.950 . S
H1552 C1562 0.950 . S
H1553 C1564 0.950 . S
H1554 C1566 0.950 . S
H1555 C1567 0.950 . S
C1556 H1548 0.950 . S
C1556 C1557 1.386 . S
C1556 C1558 1.391 . S
C1557 C1556 1.386 . S
C1557 C1561 1.393 . S
C1558 H1550 0.950 . S
C1558 C1556 1.391 . S
C1558 C1559 1.400 . S
C1559 C1558 1.400 . S
C1559 C1560 1.398 . S
C1559 C1565 1.491 . S
C1560 H1551 0.950 . S
C1560 C1559 1.398 . S
C1560 C1561 1.391 . S
C1561 H1549 0.950 . S
C1561 C1557 1.393 . S
C1561 C1560 1.391 . S
C1562 H1552 0.950 . S
C1562 C1563 1.386 . S
C1562 C1564 1.391 . S
C1563 C1562 1.386 . S
C1563 C1567 1.393 . S
C1564 H1553 0.950 . S
C1564 C1562 1.391 . S
C1564 C1565 1.400 . S
C1565 C1559 1.491 . S
C1565 C1564 1.400 . S
C1565 C1566 1.398 . S
C1566 H1554 0.950 . S
C1566 C1565 1.398 . S
C1566 C1567 1.391 . S
C1567 H1555 0.950 . S
C1567 C1563 1.393 . S
C1567 C1566 1.391 . S
H1568 C1576 0.950 . S
H1569 C1581 0.950 . S
H1570 C1578 0.950 . S
H1571 C1580 0.950 . S
H1572 C1582 0.950 1_554 S
H1573 C1584 0.950 . S
H1574 C1586 0.950 . S
H1575 C1587 0.950 . S
C1576 H1568 0.950 . S
C1576 C1577 1.386 . S
C1576 C1578 1.391 . S
C1577 C1576 1.386 . S
C1577 C1581 1.393 . S
C1578 H1570 0.950 . S
C1578 C1576 1.391 . S
C1578 C1579 1.400 . S
C1579 C1578 1.400 . S
C1579 C1580 1.398 . S
C1579 C1585 1.491 . S
C1580 H1571 0.950 . S
C1580 C1579 1.398 . S
C1580 C1581 1.391 . S
C1581 H1569 0.950 . S
C1581 C1577 1.393 . S
C1581 C1580 1.391 . S
C1582 H1572 0.950 1_556 S
C1582 C1583 1.386 . S
C1582 C1584 1.391 1_556 S
C1583 C1582 1.386 . S
C1583 C1587 1.393 . S
C1584 H1573 0.950 . S
C1584 C1582 1.391 1_554 S
C1584 C1585 1.400 . S
C1585 C1579 1.491 . S
C1585 C1584 1.400 . S
C1585 C1586 1.398 1_554 S
C1586 H1574 0.950 . S
C1586 C1585 1.398 1_556 S
C1586 C1587 1.391 . S
C1587 H1575 0.950 . S
C1587 C1583 1.393 . S
C1587 C1586 1.391 . S
H1588 C1596 0.950 . S
H1589 C1601 0.950 . S
H1590 C1598 0.950 . S
H1591 C1600 0.950 . S
H1592 C1602 0.950 . S
H1593 C1604 0.950 . S
H1594 C1606 0.950 . S
H1595 C1607 0.950 . S
C1596 H1588 0.950 . S
C1596 C1597 1.386 . S
C1596 C1598 1.391 . S
C1597 C1596 1.386 . S
C1597 C1601 1.393 . S
C1598 H1590 0.950 . S
C1598 C1596 1.391 . S
C1598 C1599 1.400 . S
C1599 C1598 1.400 . S
C1599 C1600 1.398 . S
C1599 C1605 1.491 . S
C1600 H1591 0.950 . S
C1600 C1599 1.398 . S
C1600 C1601 1.391 . S
C1601 H1589 0.950 . S
C1601 C1597 1.393 . S
C1601 C1600 1.391 . S
C1602 H1592 0.950 . S
C1602 C1603 1.386 . S
C1602 C1604 1.391 . S
C1603 C1602 1.386 . S
C1603 C1607 1.393 . S
C1604 H1593 0.950 . S
C1604 C1602 1.391 . S
C1604 C1605 1.400 . S
C1605 C1599 1.491 . S
C1605 C1604 1.400 . S
C1605 C1606 1.398 . S
C1606 H1594 0.950 . S
C1606 C1605 1.398 . S
C1606 C1607 1.391 . S
C1607 H1595 0.950 . S
C1607 C1603 1.393 . S
C1607 C1606 1.391 . S
H1608 C1616 0.950 . S
H1609 C1621 0.950 . S
H1610 C1618 0.950 . S
H1611 C1620 0.950 . S
H1612 C1622 0.950 . S
H1613 C1624 0.950 . S
H1614 C1626 0.950 . S
H1615 C1627 0.950 . S
C1616 H1608 0.950 . S
C1616 C1617 1.386 . S
C1616 C1618 1.391 . S
C1617 C1616 1.386 . S
C1617 C1621 1.393 . S
C1618 H1610 0.950 . S
C1618 C1616 1.391 . S
C1618 C1619 1.400 . S
C1619 C1618 1.400 . S
C1619 C1620 1.398 . S
C1619 C1625 1.491 . S
C1620 H1611 0.950 . S
C1620 C1619 1.398 . S
C1620 C1621 1.391 . S
C1621 H1609 0.950 . S
C1621 C1617 1.393 . S
C1621 C1620 1.391 . S
C1622 H1612 0.950 . S
C1622 C1623 1.386 . S
C1622 C1624 1.391 . S
C1623 C1622 1.386 . S
C1623 C1627 1.393 . S
C1624 H1613 0.950 . S
C1624 C1622 1.391 . S
C1624 C1625 1.400 . S
C1625 C1619 1.491 . S
C1625 C1624 1.400 . S
C1625 C1626 1.398 . S
C1626 H1614 0.950 . S
C1626 C1625 1.398 . S
C1626 C1627 1.391 . S
C1627 H1615 0.950 . S
C1627 C1623 1.393 . S
C1627 C1626 1.391 . S
H1628 C1636 0.950 . S
H1629 C1641 0.950 . S
H1630 C1638 0.950 . S
H1631 C1640 0.950 . S
H1632 C1642 0.950 . S
H1633 C1644 0.950 . S
H1634 C1646 0.950 . S
H1635 C1647 0.950 . S
C1636 H1628 0.950 . S
C1636 C1637 1.386 . S
C1636 C1638 1.391 . S
C1637 C1636 1.386 . S
C1637 C1641 1.393 . S
C1638 H1630 0.950 . S
C1638 C1636 1.391 . S
C1638 C1639 1.400 . S
C1639 C1638 1.400 . S
C1639 C1640 1.398 . S
C1639 C1645 1.491 . S
C1640 H1631 0.950 . S
C1640 C1639 1.398 . S
C1640 C1641 1.391 . S
C1641 H1629 0.950 . S
C1641 C1637 1.393 . S
C1641 C1640 1.391 . S
C1642 H1632 0.950 . S
C1642 C1643 1.386 . S
C1642 C1644 1.391 . S
C1643 C1642 1.386 . S
C1643 C1647 1.393 . S
C1644 H1633 0.950 . S
C1644 C1642 1.391 . S
C1644 C1645 1.400 . S
C1645 C1639 1.491 . S
C1645 C1644 1.400 . S
C1645 C1646 1.398 . S
C1646 H1634 0.950 . S
C1646 C1645 1.398 . S
C1646 C1647 1.391 . S
C1647 H1635 0.950 . S
C1647 C1643 1.393 . S
C1647 C1646 1.391 . S
H1648 C1656 0.950 . S
H1649 C1661 0.950 . S
H1650 C1658 0.950 . S
H1651 C1660 0.950 . S
H1652 C1662 0.950 . S
H1653 C1664 0.950 . S
H1654 C1666 0.950 . S
H1655 C1667 0.950 . S
C1656 H1648 0.950 . S
C1656 C1657 1.386 . S
C1656 C1658 1.391 . S
C1657 C1656 1.386 . S
C1657 C1661 1.393 . S
C1658 H1650 0.950 . S
C1658 C1656 1.391 . S
C1658 C1659 1.400 1_554 S
C1659 C1658 1.400 1_556 S
C1659 C1660 1.398 . S
C1659 C1665 1.491 . S
C1660 H1651 0.950 . S
C1660 C1659 1.398 . S
C1660 C1661 1.391 1_556 S
C1661 H1649 0.950 . S
C1661 C1657 1.393 . S
C1661 C1660 1.391 1_554 S
C1662 H1652 0.950 . S
C1662 C1663 1.386 . S
C1662 C1664 1.391 . S
C1663 C1662 1.386 . S
C1663 C1667 1.393 . S
C1664 H1653 0.950 . S
C1664 C1662 1.391 . S
C1664 C1665 1.400 . S
C1665 C1659 1.491 . S
C1665 C1664 1.400 . S
C1665 C1666 1.398 . S
C1666 H1654 0.950 . S
C1666 C1665 1.398 . S
C1666 C1667 1.391 . S
C1667 H1655 0.950 . S
C1667 C1663 1.393 . S
C1667 C1666 1.391 . S
H1668 C1676 0.950 . S
H1669 C1681 0.950 . S
H1670 C1678 0.950 . S
H1671 C1680 0.950 . S
H1672 C1682 0.950 . S
H1673 C1684 0.950 . S
H1674 C1686 0.950 . S
H1675 C1687 0.950 . S
C1676 H1668 0.950 . S
C1676 C1677 1.386 . S
C1676 C1678 1.391 . S
C1677 C1676 1.386 . S
C1677 C1681 1.393 . S
C1678 H1670 0.950 . S
C1678 C1676 1.391 . S
C1678 C1679 1.400 . S
C1679 C1678 1.400 . S
C1679 C1680 1.398 . S
C1679 C1685 1.491 . S
C1680 H1671 0.950 . S
C1680 C1679 1.398 . S
C1680 C1681 1.391 . S
C1681 H1669 0.950 . S
C1681 C1677 1.393 . S
C1681 C1680 1.391 . S
C1682 H1672 0.950 . S
C1682 C1683 1.386 . S
C1682 C1684 1.391 . S
C1683 C1682 1.386 . S
C1683 C1687 1.393 . S
C1684 H1673 0.950 . S
C1684 C1682 1.391 . S
C1684 C1685 1.400 . S
C1685 C1679 1.491 . S
C1685 C1684 1.400 . S
C1685 C1686 1.398 . S
C1686 H1674 0.950 . S
C1686 C1685 1.398 . S
C1686 C1687 1.391 . S
C1687 H1675 0.950 . S
C1687 C1683 1.393 . S
C1687 C1686 1.391 . S
H1688 C1696 0.950 . S
H1689 C1701 0.950 . S
H1690 C1698 0.950 . S
H1691 C1700 0.950 . S
H1692 C1702 0.950 . S
H1693 C1704 0.950 . S
H1694 C1706 0.950 . S
H1695 C1707 0.950 . S
C1696 H1688 0.950 . S
C1696 C1697 1.386 . S
C1696 C1698 1.391 . S
C1697 C1696 1.386 . S
C1697 C1701 1.393 . S
C1698 H1690 0.950 . S
C1698 C1696 1.391 . S
C1698 C1699 1.400 . S
C1699 C1698 1.400 . S
C1699 C1700 1.398 . S
C1699 C1705 1.491 . S
C1700 H1691 0.950 . S
C1700 C1699 1.398 . S
C1700 C1701 1.391 . S
C1701 H1689 0.950 . S
C1701 C1697 1.393 . S
C1701 C1700 1.391 . S
C1702 H1692 0.950 . S
C1702 C1703 1.386 . S
C1702 C1704 1.391 . S
C1703 C1702 1.386 . S
C1703 C1707 1.393 . S
C1704 H1693 0.950 . S
C1704 C1702 1.391 . S
C1704 C1705 1.400 . S
C1705 C1699 1.491 . S
C1705 C1704 1.400 . S
C1705 C1706 1.398 . S
C1706 H1694 0.950 . S
C1706 C1705 1.398 . S
C1706 C1707 1.391 . S
C1707 H1695 0.950 . S
C1707 C1703 1.393 . S
C1707 C1706 1.391 . S
H1708 C1716 0.950 . S
H1709 C1721 0.950 . S
H1710 C1718 0.950 . S
H1711 C1720 0.950 . S
H1712 C1722 0.950 . S
H1713 C1724 0.950 . S
H1714 C1726 0.950 . S
H1715 C1727 0.950 . S
C1716 H1708 0.950 . S
C1716 C1717 1.386 . S
C1716 C1718 1.391 . S
C1717 C1716 1.386 . S
C1717 C1721 1.393 . S
C1718 H1710 0.950 . S
C1718 C1716 1.391 . S
C1718 C1719 1.400 . S
C1719 C1718 1.400 . S
C1719 C1720 1.398 . S
C1719 C1725 1.491 . S
C1720 H1711 0.950 . S
C1720 C1719 1.398 . S
C1720 C1721 1.391 . S
C1721 H1709 0.950 . S
C1721 C1717 1.393 . S
C1721 C1720 1.391 . S
C1722 H1712 0.950 . S
C1722 C1723 1.386 . S
C1722 C1724 1.391 . S
C1723 C1722 1.386 . S
C1723 C1727 1.393 . S
C1724 H1713 0.950 . S
C1724 C1722 1.391 . S
C1724 C1725 1.400 . S
C1725 C1719 1.491 . S
C1725 C1724 1.400 . S
C1725 C1726 1.398 . S
C1726 H1714 0.950 . S
C1726 C1725 1.398 . S
C1726 C1727 1.391 . S
C1727 H1715 0.950 . S
C1727 C1723 1.393 . S
C1727 C1726 1.391 . S
C457 C8 1.036 . S
C463 C190 1.040 . S
C477 C358 1.217 . S
C483 C22 1.228 . S
C497 C36 1.206 . S
C503 C218 1.201 . S
C517 C50 1.331 . S
C523 C344 1.332 . S
C537 C64 1.344 . S
C543 C246 1.347 . S
C557 C78 1.299 . S
C563 C316 1.307 . S
C577 C92 1.290 . S
C583 C274 1.308 . S
C597 C442 1.031 . S
C603 C106 1.018 . S
C617 C302 1.353 . S
C623 C120 1.347 . S
C637 C134 1.300 . S
C643 C260 1.304 . S
C657 C330 1.291 . S
C663 C148 1.307 . S
C677 C162 1.322 . S
C683 C232 1.318 . S
C697 C204 1.208 . S
C703 C176 1.230 . S
C717 C288 1.030 . S
C723 C400 1.018 . S
C737 C414 1.037 . S
C743 C372 1.041 . S
C757 C428 1.193 . S
C763 C386 1.193 . S
C777 C13 1.515 . S
C783 C27 1.514 . S
C797 C39 1.615 . S
C803 C21 1.614 . S
C817 C55 1.531 . S
C823 C41 1.535 . S
C837 C49 1.582 . S
C843 C11 1.582 . S
C857 C105 1.699 . S
C863 C69 1.550 . S
C877 C81 1.218 . S
C883 C67 1.198 . S
C897 C91 1.469 . S
C903 C77 1.468 . S
C917 C97 1.208 . S
C923 C109 1.352 . S
C937 C139 1.252 . S
C943 C7 1.403 . S
C957 C119 1.587 . S
C963 C53 1.576 . S
C977 C151 1.340 . S
C983 C25 1.324 . S
C997 C385 1.598 . S
C1003 C111 1.472 . S
C1017 C405 1.449 . S
C1023 C35 1.593 . S
C1037 C165 1.573 . S
C1043 C63 1.588 . S
C1057 C95 1.339 . S
C1063 C179 1.326 . S
C1077 C203 1.445 . S
C1083 C195 1.341 . S
C1097 C217 1.515 . S
C1103 C209 1.419 . S
C1117 C237 1.380 . S
C1123 C223 1.407 . S
C1137 C189 1.533 . S
C1143 C235 1.534 . S
C1157 C245 1.510 . S
C1163 C293 1.407 . S
C1177 C249 1.426 . S
C1183 C263 1.422 . S
C1197 C279 1.483 . S
C1203 C265 1.509 . S
C1217 C273 1.492 . S
C1223 C291 1.494 . S
C1237 C193 1.630 . S
C1243 C315 1.628 . S
C1257 C307 1.422 . S
C1263 C231 1.543 . S
C1277 C333 1.326 . S
C1283 C207 1.323 . S
C1297 C431 1.593 . S
C1303 C287 1.590 . S
C1317 C441 1.588 . S
C1323 C221 1.592 . S
C1337 C251 1.457 . S
C1343 C343 1.533 . S
C1357 C361 1.332 . S
C1363 C277 1.327 . S
C1377 C181 1.543 . S
C1383 C377 1.549 . S
C1397 C389 1.606 . S
C1403 C175 1.620 . S
C1417 C167 1.516 . S
C1423 C391 1.513 . S
C1437 C161 1.584 . S
C1443 C375 1.580 . S
C1457 C125 1.529 . S
C1463 C399 1.705 . S
C1477 C137 1.214 . S
C1483 C123 1.208 . S
C1497 C147 1.472 . S
C1503 C133 1.465 . S
C1517 C153 1.249 . S
C1523 C403 1.359 . S
C1537 C371 1.395 . S
C1543 C83 1.265 . S
C1557 C357 1.440 . S
C1563 C419 1.379 . S
C1577 C363 1.426 . S
C1583 C427 1.528 . S
C1597 C433 1.381 . S
C1603 C349 1.415 . S
C1617 C347 1.527 . S
C1623 C413 1.525 . S
C1637 C447 1.406 . S
C1643 C301 1.511 . S
C1657 C305 1.422 . S
C1663 C319 1.423 . S
C1677 C335 1.513 . S
C1683 C321 1.476 . S
C1697 C329 1.486 . S
C1703 C445 1.490 . S
C1717 C417 1.633 . S
C1723 C259 1.631 . S
