# Generated by pormake.
# Topology swf, (7)-cn, num edge types: 1
# Building blocks:
#     Node 0, Type 0, BuildingBlock: HICVOG_clean_sbu_0, # of connection points: 7
#     Node 1, Type 0, BuildingBlock: HICVOG_clean_sbu_0, # of connection points: 7
#     Node 2, Type 0, BuildingBlock: HICVOG_clean_sbu_0, # of connection points: 7
#     Node 3, Type 0, BuildingBlock: HICVOG_clean_sbu_0, # of connection points: 7
#     Node 4, Type 0, BuildingBlock: HICVOG_clean_sbu_0, # of connection points: 7
#     Node 5, Type 0, BuildingBlock: HICVOG_clean_sbu_0, # of connection points: 7
#     Node 6, Type 0, BuildingBlock: HICVOG_clean_sbu_0, # of connection points: 7
#     Node 7, Type 0, BuildingBlock: HICVOG_clean_sbu_0, # of connection points: 7
#     Node 8, Type 0, BuildingBlock: HICVOG_clean_sbu_0, # of connection points: 7
#     Node 9, Type 0, BuildingBlock: HICVOG_clean_sbu_0, # of connection points: 7
#     Node 10, Type 0, BuildingBlock: HICVOG_clean_sbu_0, # of connection points: 7
#     Node 11, Type 0, BuildingBlock: HICVOG_clean_sbu_0, # of connection points: 7
#     Edge 12, Type (0, 0), BuildingBlock: UVAHIK_clean_linker_0, # of connection points: 2
#     Edge 13, Type (0, 0), BuildingBlock: UVAHIK_clean_linker_0, # of connection points: 2
#     Edge 14, Type (0, 0), BuildingBlock: UVAHIK_clean_linker_0, # of connection points: 2
#     Edge 15, Type (0, 0), BuildingBlock: UVAHIK_clean_linker_0, # of connection points: 2
#     Edge 16, Type (0, 0), BuildingBlock: UVAHIK_clean_linker_0, # of connection points: 2
#     Edge 17, Type (0, 0), BuildingBlock: UVAHIK_clean_linker_0, # of connection points: 2
#     Edge 18, Type (0, 0), BuildingBlock: UVAHIK_clean_linker_0, # of connection points: 2
#     Edge 19, Type (0, 0), BuildingBlock: UVAHIK_clean_linker_0, # of connection points: 2
#     Edge 20, Type (0, 0), BuildingBlock: UVAHIK_clean_linker_0, # of connection points: 2
#     Edge 21, Type (0, 0), BuildingBlock: UVAHIK_clean_linker_0, # of connection points: 2
#     Edge 22, Type (0, 0), BuildingBlock: UVAHIK_clean_linker_0, # of connection points: 2
#     Edge 23, Type (0, 0), BuildingBlock: UVAHIK_clean_linker_0, # of connection points: 2
#     Edge 24, Type (0, 0), BuildingBlock: UVAHIK_clean_linker_0, # of connection points: 2
#     Edge 25, Type (0, 0), BuildingBlock: UVAHIK_clean_linker_0, # of connection points: 2
#     Edge 26, Type (0, 0), BuildingBlock: UVAHIK_clean_linker_0, # of connection points: 2
#     Edge 27, Type (0, 0), BuildingBlock: UVAHIK_clean_linker_0, # of connection points: 2
#     Edge 28, Type (0, 0), BuildingBlock: UVAHIK_clean_linker_0, # of connection points: 2
#     Edge 29, Type (0, 0), BuildingBlock: UVAHIK_clean_linker_0, # of connection points: 2
#     Edge 30, Type (0, 0), BuildingBlock: UVAHIK_clean_linker_0, # of connection points: 2
#     Edge 31, Type (0, 0), BuildingBlock: UVAHIK_clean_linker_0, # of connection points: 2
#     Edge 32, Type (0, 0), BuildingBlock: UVAHIK_clean_linker_0, # of connection points: 2
#     Edge 33, Type (0, 0), BuildingBlock: UVAHIK_clean_linker_0, # of connection points: 2
#     Edge 34, Type (0, 0), BuildingBlock: UVAHIK_clean_linker_0, # of connection points: 2
#     Edge 35, Type (0, 0), BuildingBlock: UVAHIK_clean_linker_0, # of connection points: 2
#     Edge 36, Type (0, 0), BuildingBlock: UVAHIK_clean_linker_0, # of connection points: 2
#     Edge 37, Type (0, 0), BuildingBlock: UVAHIK_clean_linker_0, # of connection points: 2
#     Edge 38, Type (0, 0), BuildingBlock: UVAHIK_clean_linker_0, # of connection points: 2
#     Edge 39, Type (0, 0), BuildingBlock: UVAHIK_clean_linker_0, # of connection points: 2
#     Edge 40, Type (0, 0), BuildingBlock: UVAHIK_clean_linker_0, # of connection points: 2
#     Edge 41, Type (0, 0), BuildingBlock: UVAHIK_clean_linker_0, # of connection points: 2
#     Edge 42, Type (0, 0), BuildingBlock: UVAHIK_clean_linker_0, # of connection points: 2
#     Edge 43, Type (0, 0), BuildingBlock: UVAHIK_clean_linker_0, # of connection points: 2
#     Edge 44, Type (0, 0), BuildingBlock: UVAHIK_clean_linker_0, # of connection points: 2
#     Edge 45, Type (0, 0), BuildingBlock: UVAHIK_clean_linker_0, # of connection points: 2
#     Edge 46, Type (0, 0), BuildingBlock: UVAHIK_clean_linker_0, # of connection points: 2
#     Edge 47, Type (0, 0), BuildingBlock: UVAHIK_clean_linker_0, # of connection points: 2
#     Edge 48, Type (0, 0), BuildingBlock: UVAHIK_clean_linker_0, # of connection points: 2
#     Edge 49, Type (0, 0), BuildingBlock: UVAHIK_clean_linker_0, # of connection points: 2
#     Edge 50, Type (0, 0), BuildingBlock: UVAHIK_clean_linker_0, # of connection points: 2
#     Edge 51, Type (0, 0), BuildingBlock: UVAHIK_clean_linker_0, # of connection points: 2
#     Edge 52, Type (0, 0), BuildingBlock: UVAHIK_clean_linker_0, # of connection points: 2
#     Edge 53, Type (0, 0), BuildingBlock: UVAHIK_clean_linker_0, # of connection points: 2
# Relax obj value: 0.314
# Max RMSD: 0.192
# Mean RMSD: 0.192
data_MOF--net-swf--node1-HICVOG_clean_sbu_0--edge1-UVAHIK_clean_linker_0
_symmetry_space_group_name_H-M    P1
_symmetry_Int_Tables_number       1
_symmetry_cell_setting            triclinic
loop_
_symmetry_equiv_pos_as_xyz
'x, y, z'
_cell_length_a     59.420527
_cell_length_b     59.564024
_cell_length_c     31.843136
_cell_angle_alpha  89.933699
_cell_angle_beta   89.846415
_cell_angle_gamma 120.35744
loop_
_atom_site_label
_atom_site_type_symbol
_atom_site_fract_x
_atom_site_fract_y
_atom_site_fract_z
_atom_type_partial_charge
Zn0 Zn 0.46974 0.14253 0.967 0.0
C1 C 0.47151 0.19016 0.061 0.0
N2 N 0.47247 0.2047 1.0275 0.0
C3 C 0.47238 0.1906 0.99431 0.0
N4 N 0.47171 0.16851 1.0068 0.0
N5 N 0.47122 0.16804 0.04858 0.0
C6 C 0.42663 0.09632 0.11562 0.0
O7 O 0.42559 0.08716 0.07772 0.0
O8 O 0.49463 0.16137 0.9195 0.0
Zn9 Zn 0.47449 0.14183 0.08306 0.0
N10 N 0.43443 0.1237 0.94826 0.0
C11 C 0.38938 0.10384 0.96502 0.0
C12 C 0.4153 0.11581 0.9777 0.0
C13 C 0.42886 0.11986 0.90671 0.0
N14 N 0.38373 0.10017 0.92345 0.0
C15 C 0.40276 0.10779 0.8937 0.0
O16 O 0.47945 0.11485 0.0525 0.0
C17 C 0.48178 0.10583 1.01782 0.0
O18 O 0.47937 0.11527 0.98354 0.0
H19 H 0.42027 0.11928 1.01063 0.0
H20 H 0.44475 0.12707 0.88432 0.0
C21 C 0.51547 0.14301 0.12578 0.0
C22 C 0.54038 0.15315 0.14263 0.0
C23 C 0.54643 0.19556 0.13827 0.0
C24 C 0.52223 0.18549 0.11875 0.0
N25 N 0.50693 0.15929 0.1138 0.0
N26 N 0.55513 0.17922 0.14927 0.0
H27 H 0.50328 0.12231 0.12075 0.0
C28 C 0.51833 0.17273 0.93102 0.0
O29 O 0.52343 0.17308 0.97124 0.0
O30 O 0.44437 0.11954 0.12389 0.0
H31 H 0.51627 0.19858 0.1068 0.0
H32 H 0.37387 0.09761 0.98796 0.0
H33 H 0.55867 0.21629 0.14303 0.0
Zn34 Zn 0.32202 0.45829 1.00068 0.0
C35 C 0.27596 0.46385 0.08884 0.0
N36 N 0.26191 0.46388 0.05551 0.0
C37 C 0.27567 0.46311 1.02216 0.0
N38 N 0.29755 0.46307 0.03503 0.0
N39 N 0.29775 0.46364 0.07677 0.0
C40 C 0.32241 0.42242 0.14688 0.0
O41 O 0.32772 0.42019 0.10757 0.0
O42 O 0.32937 0.47862 0.9469 0.0
Zn43 Zn 0.32691 0.4701 0.11488 0.0
N44 N 0.30588 0.42137 0.99245 0.0
C45 C 0.27978 0.37867 1.02027 0.0
C46 C 0.29189 0.40555 1.02489 0.0
C47 C 0.30795 0.41148 0.95527 0.0
N48 N 0.2819 0.36871 0.98316 0.0
C49 C 0.29545 0.38441 0.95025 0.0
O50 O 0.36198 0.47829 0.08974 0.0
C51 C 0.37239 0.47799 0.05498 0.0
O52 O 0.35892 0.47091 1.02157 0.0
H53 H 0.29016 0.41378 0.05411 0.0
H54 H 0.31938 0.42466 0.93019 0.0
C55 C 0.35271 0.52432 0.12855 0.0
C56 C 0.36018 0.54738 0.15083 0.0
C57 C 0.33078 0.52239 0.20558 0.0
C58 C 0.32451 0.49958 0.18426 0.0
N59 N 0.33519 0.50103 0.14589 0.0
N60 N 0.3486 0.54564 0.18865 0.0
H61 H 0.36092 0.52464 0.09807 0.0
C62 C 0.33618 0.50245 0.95116 0.0
O63 O 0.33613 0.51126 0.98895 0.0
O64 O 0.3191 0.44124 0.15705 0.0
H65 H 0.31144 0.48092 0.19831 0.0
H66 H 0.26876 0.36582 0.04591 0.0
H67 H 0.32215 0.52162 0.23588 0.0
Zn68 Zn 0.88563 0.32568 0.95845 0.0
C69 C 0.8421 0.27257 0.04879 0.0
N70 N 0.82747 0.25943 1.01508 0.0
C71 C 0.84058 0.27526 0.98248 0.0
N72 N 0.86207 0.29728 0.99569 0.0
N73 N 0.8634 0.29552 0.03716 0.0
C74 C 0.94141 0.33041 0.0935 0.0
O75 O 0.9484 0.34554 0.06023 0.0
O76 O 0.86449 0.33325 0.91792 0.0
Zn77 Zn 0.8899 0.32274 0.07436 0.0
N78 N 0.90729 0.31564 0.92911 0.0
C79 C 0.91662 0.29597 0.87222 0.0
C80 C 0.89954 0.30176 0.89299 0.0
C81 C 0.93148 0.32441 0.94511 0.0
N82 N 0.9411 0.30542 0.88746 0.0
C83 C 0.94939 0.3199 0.92326 0.0
O84 O 0.91151 0.35953 0.05153 0.0
C85 C 0.91882 0.37273 1.0178 0.0
O86 O 0.91041 0.36173 0.98254 0.0
H87 H 0.88047 0.29564 0.88021 0.0
H88 H 0.93646 0.33522 0.97404 0.0
C89 C 0.89048 0.34138 0.15232 0.0
C90 C 0.88256 0.34957 0.18755 0.0
C91 C 0.83914 0.32742 0.16158 0.0
C92 C 0.84765 0.32097 0.1251 0.0
N93 N 0.87312 0.32775 0.12177 0.0
N94 N 0.85681 0.34192 0.19156 0.0
H95 H 0.91057 0.34661 0.14797 0.0
C96 C 0.85362 0.34478 0.93455 0.0
O97 O 0.85511 0.34811 0.97546 0.0
O98 O 0.91713 0.31534 0.10081 0.0
H99 H 0.83421 0.31083 0.09981 0.0
H100 H 0.91079 0.28475 0.84354 0.0
H101 H 0.81887 0.32184 0.16535 0.0
Zn102 Zn 0.53528 0.85279 0.09559 0.0
C103 C 0.5495 0.81119 1.0095 0.0
N104 N 0.54986 0.79719 0.04248 0.0
C105 C 0.54801 0.8102 0.07602 0.0
N106 N 0.54651 0.83142 0.06378 0.0
N107 N 0.54792 0.832 1.02219 0.0
C108 C 0.50842 0.83718 0.94897 0.0
O109 O 0.50451 0.83766 0.98953 0.0
O110 O 0.55726 0.87147 0.14791 0.0
Zn111 Zn 0.55624 0.86058 0.98419 0.0
N112 N 0.49799 0.83005 0.10539 0.0
C113 C 0.46035 0.78771 0.1039 0.0
C114 C 0.48727 0.80375 0.10517 0.0
C115 C 0.48261 0.84091 0.10371 0.0
N116 N 0.44512 0.79855 0.10143 0.0
C117 C 0.45531 0.82481 0.10079 0.0
O118 O 0.55133 0.89097 1.00086 0.0
C119 C 0.54268 0.89721 0.03258 0.0
O120 O 0.53662 0.88366 0.0659 0.0
H121 H 0.49929 0.79505 0.10426 0.0
H122 H 0.49185 0.86183 0.10364 0.0
C123 C 0.60353 0.89123 0.9372 0.0
C124 C 0.63017 0.90157 0.92857 0.0
C125 C 0.63304 0.87718 0.98491 0.0
C126 C 0.60689 0.86771 0.99434 0.0
N127 N 0.59245 0.87436 0.96969 0.0
N128 N 0.64412 0.89395 0.95236 0.0
H129 H 0.59173 0.89664 0.91872 0.0
C130 C 0.57926 0.89193 0.14137 0.0
O131 O 0.58745 0.89824 0.10242 0.0
O132 O 0.5316 0.84564 0.93579 0.0
H133 H 0.5983 0.85511 1.02119 0.0
H134 H 0.4516 0.76677 0.10371 0.0
H135 H 0.64459 0.87166 1.00377 0.0
Zn136 Zn 0.69435 0.55942 0.9884 0.0
C137 C 0.73347 0.54123 0.07167 0.0
N138 N 0.74429 0.53703 0.03725 0.0
C139 C 0.73194 0.54119 1.00506 0.0
N140 N 0.71405 0.54716 1.01964 0.0
N141 N 0.71504 0.54721 0.0612 0.0
C142 C 0.69834 0.60228 0.11859 0.0
O143 O 0.68481 0.59796 0.08394 0.0
O144 O 0.68583 0.5416 0.93195 0.0
Zn145 Zn 0.69159 0.55149 0.10024 0.0
N146 N 0.71569 0.59704 0.98828 0.0
C147 C 0.7542 0.63487 1.01169 0.0
C148 C 0.7394 0.60801 1.00734 0.0
C149 C 0.70616 0.61196 0.97353 0.0
N150 N 0.7447 0.6498 0.99702 0.0
C151 C 0.72098 0.63922 0.97813 0.0
O152 O 0.65571 0.54229 0.07823 0.0
C153 C 0.64478 0.54245 0.04406 0.0
O154 O 0.65764 0.54901 1.00979 0.0
H155 H 0.74679 0.59609 1.01954 0.0
H156 H 0.68735 0.60247 0.95834 0.0
C157 C 0.66557 0.50148 0.13584 0.0
C158 C 0.65592 0.48313 0.16841 0.0
C159 C 0.68304 0.51615 0.21665 0.0
C160 C 0.69151 0.53455 0.18453 0.0
N161 N 0.68294 0.52674 0.14474 0.0
N162 N 0.66512 0.49102 0.20803 0.0
H163 H 0.65812 0.49625 0.1042 0.0
C164 C 0.67145 0.51724 0.93838 0.0
O165 O 0.6662 0.50879 0.97735 0.0
O166 O 0.70636 0.5868 0.12844 0.0
H167 H 0.70442 0.55491 0.19137 0.0
H168 H 0.77306 0.64383 1.02676 0.0
H169 H 0.68985 0.52193 0.24846 0.0
Zn170 Zn 0.16004 0.69058 0.09854 0.0
C171 C 0.20693 0.73873 1.00555 0.0
N172 N 0.22303 0.75101 0.03824 0.0
C173 C 0.20803 0.73827 0.07198 0.0
N174 N 0.18417 0.71875 0.06057 0.0
N175 N 0.18344 0.71909 1.01906 0.0
C176 C 0.17752 0.68568 0.9273 0.0
O177 O 0.18345 0.67886 0.963 0.0
O178 O 0.13801 0.69837 0.13915 0.0
Zn179 Zn 0.1521 0.69863 0.98688 0.0
N180 N 0.18327 0.68479 0.1325 0.0
C181 C 0.22082 0.68054 0.13554 0.0
C182 C 0.20088 0.68039 0.11256 0.0
C183 C 0.18437 0.6889 0.17457 0.0
N184 N 0.22239 0.68534 0.17739 0.0
C185 C 0.20484 0.68975 0.19799 0.0
O186 O 0.12792 0.66084 1.00527 0.0
C187 C 0.12288 0.64626 0.03741 0.0
O188 O 0.13444 0.65557 0.07214 0.0
H189 H 0.19989 0.67771 0.07887 0.0
H190 H 0.1698 0.69219 0.18872 0.0
C191 C 0.11371 0.71166 0.96224 0.0
C192 C 0.10123 0.72634 0.96339 0.0
C193 C 0.12896 0.7517 1.01868 0.0
C194 C 0.14127 0.73707 1.01756 0.0
N195 N 0.13361 0.71752 0.98907 0.0
N196 N 0.10936 0.74614 0.9914 0.0
H197 H 0.10816 0.69616 0.93971 0.0
C198 C 0.11554 0.69503 0.13104 0.0
O199 O 0.10686 0.68984 0.09231 0.0
O200 O 0.16284 0.69548 0.92811 0.0
H201 H 0.15696 0.74155 0.03912 0.0
H202 H 0.23521 0.67732 0.12021 0.0
H203 H 0.13502 0.76742 0.04089 0.0
Zn204 Zn 0.87172 0.55425 0.48045 0.0
C205 C 0.81865 0.54757 0.56949 0.0
N206 N 0.80345 0.54476 0.5361 0.0
C207 C 0.81914 0.54819 0.50273 0.0
N208 N 0.84285 0.55234 0.51521 0.0
N209 N 0.84242 0.55204 0.55691 0.0
C210 C 0.84597 0.51673 0.64024 0.0
O211 O 0.84371 0.50899 0.60105 0.0
O212 O 0.89514 0.58791 0.44742 0.0
Zn213 Zn 0.8719 0.56111 0.59355 0.0
N214 N 0.85747 0.5279 0.43811 0.0
C215 C 0.8261 0.48951 0.40329 0.0
C216 C 0.83254 0.50774 0.43527 0.0
C217 C 0.87634 0.52996 0.41175 0.0
N218 N 0.84523 0.49122 0.37761 0.0
C219 C 0.87045 0.51082 0.38155 0.0
O220 O 0.89857 0.55053 0.57751 0.0
C221 C 0.90635 0.5447 0.54429 0.0
O222 O 0.897 0.54546 0.50886 0.0
H223 H 0.81792 0.50562 0.4577 0.0
H224 H 0.89605 0.54599 0.41576 0.0
C225 C 0.9061 0.61013 0.63232 0.0
C226 C 0.91757 0.63711 0.6374 0.0
C227 C 0.89539 0.63907 0.57711 0.0
C228 C 0.88421 0.61231 0.5719 0.0
N229 N 0.88948 0.59833 0.59996 0.0
N230 N 0.91172 0.65087 0.60985 0.0
H231 H 0.90989 0.59851 0.65419 0.0
C232 C 0.91908 0.60339 0.456 0.0
O233 O 0.92806 0.60152 0.49268 0.0
O234 O 0.85768 0.54105 0.64758 0.0
H235 H 0.87114 0.60278 0.54597 0.0
H236 H 0.80629 0.47356 0.39993 0.0
H237 H 0.89112 0.65038 0.55538 0.0
Zn238 Zn 0.33307 0.86853 0.47362 0.0
C239 C 0.29133 0.81956 0.56995 0.0
N240 N 0.27846 0.80285 0.5382 0.0
C241 C 0.2896 0.81749 0.5035 0.0
N242 N 0.30878 0.84183 0.51338 0.0
N243 N 0.30986 0.84321 0.55485 0.0
C244 C 0.35107 0.85459 0.63609 0.0
O245 O 0.3565 0.85088 0.59757 0.0
O246 O 0.32009 0.89097 0.44676 0.0
Zn247 Zn 0.33098 0.87572 0.58433 0.0
N248 N 0.33725 0.84989 0.428 0.0
C249 C 0.34132 0.81457 0.40298 0.0
C250 C 0.34109 0.82969 0.43613 0.0
C251 C 0.33446 0.85619 0.38811 0.0
N252 N 0.33816 0.82062 0.36314 0.0
C253 C 0.33483 0.84118 0.35456 0.0
O254 O 0.36802 0.90071 0.56151 0.0
C255 C 0.3811 0.90561 0.52753 0.0
O256 O 0.37011 0.89368 0.49381 0.0
H257 H 0.34309 0.82492 0.46817 0.0
H258 H 0.33104 0.87214 0.38297 0.0
C259 C 0.32214 0.91864 0.59479 0.0
C260 C 0.3082 0.93181 0.58913 0.0
C261 C 0.27266 0.89306 0.56161 0.0
C262 C 0.28657 0.88028 0.56704 0.0
N263 N 0.31102 0.89326 0.58351 0.0
N264 N 0.28374 0.91839 0.57273 0.0
H265 H 0.3415 0.92807 0.608 0.0
C266 C 0.33046 0.91513 0.4547 0.0
O267 O 0.34555 0.92459 0.48774 0.0
O268 O 0.33843 0.8664 0.64134 0.0
H269 H 0.27793 0.86021 0.55762 0.0
H270 H 0.34387 0.7981 0.40881 0.0
H271 H 0.25323 0.88299 0.54848 0.0
Zn272 Zn 0.46283 0.31702 0.57839 0.0
C273 C 0.47232 0.27235 0.49382 0.0
N274 N 0.47391 0.25952 0.52769 0.0
C275 C 0.47203 0.27304 0.56039 0.0
N276 N 0.46993 0.29356 0.54656 0.0
N277 N 0.47009 0.29303 0.50495 0.0
C278 C 0.42477 0.3144 0.43992 0.0
O279 O 0.42383 0.31993 0.47958 0.0
O280 O 0.48433 0.32774 0.63132 0.0
Zn281 Zn 0.47442 0.32007 0.46474 0.0
N282 N 0.42549 0.2993 0.58586 0.0
C283 C 0.38365 0.26648 0.56255 0.0
C284 C 0.41067 0.27866 0.56051 0.0
C285 C 0.41439 0.30834 0.6132 0.0
N286 N 0.37251 0.27565 0.58947 0.0
C287 C 0.38699 0.29639 0.61494 0.0
O288 O 0.48497 0.35637 0.48644 0.0
C289 C 0.48269 0.36634 0.52033 0.0
O290 O 0.47401 0.35268 0.55352 0.0
H291 H 0.41969 0.27187 0.53837 0.0
H292 H 0.42703 0.32459 0.63293 0.0
C293 C 0.49856 0.31829 0.38772 0.0
C294 C 0.51858 0.31838 0.36381 0.0
C295 C 0.54517 0.3308 0.42499 0.0
C296 C 0.52526 0.33058 0.4483 0.0
N297 N 0.50241 0.32424 0.42924 0.0
N298 N 0.54137 0.32475 0.38359 0.0
H299 H 0.47978 0.31276 0.37449 0.0
C300 C 0.50852 0.34049 0.62221 0.0
O301 O 0.51547 0.34267 0.58252 0.0
O302 O 0.44315 0.31086 0.42763 0.0
H303 H 0.52761 0.33472 0.48158 0.0
H304 H 0.3716 0.25006 0.54257 0.0
H305 H 0.56347 0.33559 0.43964 0.0
Zn306 Zn 0.15507 0.48026 0.49771 0.0
C307 C 0.18946 0.4585 0.58615 0.0
N308 N 0.19995 0.45288 0.55296 0.0
C309 C 0.18793 0.45649 0.51964 0.0
N310 N 0.17085 0.46411 0.53198 0.0
N311 N 0.17196 0.46535 0.57361 0.0
C312 C 0.17718 0.52869 0.61726 0.0
O313 O 0.16639 0.52503 0.58013 0.0
O314 O 0.13963 0.46191 0.44146 0.0
Zn315 Zn 0.15185 0.47347 0.6129 0.0
N316 N 0.18215 0.51631 0.49023 0.0
C317 C 0.22709 0.54859 0.49556 0.0
C318 C 0.20749 0.5226 0.49364 0.0
C319 C 0.17567 0.53517 0.48795 0.0
N320 N 0.22061 0.56736 0.49414 0.0
C321 C 0.19539 0.56147 0.49038 0.0
O322 O 0.11902 0.47336 0.59246 0.0
C323 C 0.11133 0.47792 0.55784 0.0
O324 O 0.12406 0.48099 0.52403 0.0
H325 H 0.21251 0.50766 0.49631 0.0
H326 H 0.15532 0.52963 0.4864 0.0
C327 C 0.14526 0.45393 0.69783 0.0
C328 C 0.14093 0.43466 0.72747 0.0
C329 C 0.12948 0.40394 0.6725 0.0
C330 C 0.13341 0.42298 0.64326 0.0
N331 N 0.1417 0.44764 0.65639 0.0
N332 N 0.13329 0.41019 0.71381 0.0
H333 H 0.15179 0.47371 0.70744 0.0
C334 C 0.11712 0.44148 0.44403 0.0
O335 O 0.10715 0.43298 0.48155 0.0
O336 O 0.17442 0.5091 0.63766 0.0
H337 H 0.13095 0.41845 0.61011 0.0
H338 H 0.24728 0.55382 0.49875 0.0
H339 H 0.12346 0.38435 0.6625 0.0
Zn340 Zn 0.70422 0.14345 0.56741 0.0
C341 C 0.75149 0.19559 0.48129 0.0
N342 N 0.76436 0.21036 0.51498 0.0
C343 C 0.7499 0.19587 0.54802 0.0
N344 N 0.72871 0.17344 0.53465 0.0
N345 N 0.72968 0.17323 0.49303 0.0
C346 C 0.69712 0.09439 0.45003 0.0
O347 O 0.68377 0.09011 0.48497 0.0
O348 O 0.69657 0.15586 0.62174 0.0
Zn349 Zn 0.7029 0.14605 0.45597 0.0
N350 N 0.7207 0.1229 0.57347 0.0
C351 C 0.75037 0.11108 0.54535 0.0
C352 C 0.73681 0.12434 0.54185 0.0
C353 C 0.71734 0.10848 0.60839 0.0
N354 N 0.74728 0.09688 0.58039 0.0
C355 C 0.73119 0.09515 0.61237 0.0
O356 O 0.66481 0.12581 0.47669 0.0
C357 C 0.65381 0.11548 0.51152 0.0
O358 O 0.66729 0.12032 0.5448 0.0
H359 H 0.73921 0.13576 0.51409 0.0
H360 H 0.70384 0.10747 0.63212 0.0
C361 C 0.70019 0.15061 0.36856 0.0
C362 C 0.70091 0.16248 0.33005 0.0
C363 C 0.70613 0.19941 0.36757 0.0
C364 C 0.70461 0.18708 0.40554 0.0
N365 N 0.70212 0.16314 0.40512 0.0
N366 N 0.70407 0.18681 0.331 0.0
H367 H 0.69818 0.13165 0.3702 0.0
C368 C 0.68467 0.16823 0.6148 0.0
O369 O 0.68071 0.17236 0.57568 0.0
O370 O 0.71036 0.11763 0.43624 0.0
H371 H 0.70618 0.19674 0.43503 0.0
H372 H 0.76327 0.11205 0.52047 0.0
H373 H 0.70866 0.21872 0.36712 0.0
Zn374 Zn 0.55183 0.68376 0.47766 0.0
C375 C 0.5519 0.72906 0.57461 0.0
N376 N 0.55041 0.74282 0.54198 0.0
C377 C 0.55249 0.73034 0.50817 0.0
N378 N 0.55469 0.70963 0.5191 0.0
N379 N 0.55422 0.70861 0.56074 0.0
C380 C 0.5113 0.66624 0.63709 0.0
O381 O 0.5042 0.66717 0.59838 0.0
O382 O 0.58396 0.69549 0.44065 0.0
Zn383 Zn 0.55794 0.68285 0.59295 0.0
N384 N 0.52387 0.6789 0.4417 0.0
C385 C 0.48026 0.66995 0.43676 0.0
C386 C 0.50052 0.6712 0.46038 0.0
C387 C 0.52787 0.68508 0.40018 0.0
N388 N 0.48426 0.67641 0.39545 0.0
C389 C 0.50755 0.68401 0.37614 0.0
O390 O 0.54667 0.64747 0.56677 0.0
C391 C 0.54085 0.63554 0.53183 0.0
O392 O 0.54176 0.64734 0.49798 0.0
H393 H 0.49796 0.66675 0.4936 0.0
H394 H 0.54696 0.69174 0.38682 0.0
C395 C 0.60227 0.6991 0.64604 0.0
C396 C 0.62899 0.71324 0.65548 0.0
C397 C 0.63836 0.72466 0.58343 0.0
C398 C 0.6118 0.71106 0.5745 0.0
N399 N 0.59436 0.69866 0.606 0.0
N400 N 0.64631 0.72561 0.62364 0.0
H401 H 0.58763 0.68968 0.67027 0.0
C402 C 0.59993 0.68776 0.44869 0.0
O403 O 0.59733 0.6753 0.48408 0.0
O404 O 0.53495 0.67303 0.64415 0.0
H405 H 0.60503 0.71086 0.54296 0.0
H406 H 0.46158 0.6641 0.45113 0.0
H407 H 0.65253 0.73475 0.55878 0.0
C408 C 0.39137 0.05251 0.14091 0.0
C409 C 0.41001 0.07855 0.14979 0.0
C410 C 0.37801 0.0348 0.17339 0.0
C411 C 0.36262 0.02931 0.288 0.0
H412 H 0.35709 0.96192 0.27622 0.0
C413 C 0.34517 0.96024 0.42841 0.0
C414 C 0.3312 0.9332 0.42171 0.0
C415 C 0.35037 0.9776 0.39512 0.0
C416 C 0.35798 0.98043 0.27985 0.0
H417 H 0.42835 0.10657 0.19999 0.0
H418 H 0.40524 0.07564 0.2566 0.0
H419 H 0.37442 0.99292 0.21854 0.0
H420 H 0.31025 0.90327 0.37503 0.0
H421 H 0.31897 0.93351 0.31723 0.0
H422 H 0.34665 0.01689 0.34981 0.0
C423 C 0.40076 0.06892 0.22447 0.0
C424 C 0.36798 0.99829 0.24666 0.0
C425 C 0.41411 0.08668 0.19194 0.0
C426 C 0.32114 0.92395 0.38141 0.0
C427 C 0.32638 0.94133 0.34809 0.0
C428 C 0.3526 0.0114 0.32128 0.0
C429 C 0.38293 0.0426 0.21568 0.0
C430 C 0.3707 0.02309 0.25036 0.0
C431 C 0.34174 0.96838 0.35423 0.0
C432 C 0.35038 0.9868 0.31781 0.0
H433 H 0.38756 0.04557 0.10883 0.0
H434 H 0.36406 0.01483 0.16532 0.0
H435 H 0.36407 0.04806 0.29181 0.0
H436 H 0.35321 0.96808 0.459 0.0
H437 H 0.36237 0.99825 0.4011 0.0
C438 C 0.33316 0.41568 0.22028 0.0
C439 C 0.32499 0.40606 0.17952 0.0
C440 C 0.33971 0.40208 0.24904 0.0
C441 C 0.35813 0.35044 0.25186 0.0
H442 H 0.35613 0.35961 0.37189 0.0
C443 C 0.41635 0.32393 0.36674 0.0
C444 C 0.40815 0.31778 0.40873 0.0
C445 C 0.40307 0.33132 0.33882 0.0
C446 C 0.35647 0.35631 0.33854 0.0
H447 H 0.31565 0.37385 0.13782 0.0
H448 H 0.32543 0.34935 0.18848 0.0
H449 H 0.33713 0.37751 0.325 0.0
H450 H 0.37861 0.31303 0.45363 0.0
H451 H 0.35454 0.32441 0.40452 0.0
H452 H 0.37632 0.32818 0.26545 0.0
C453 C 0.32806 0.36797 0.19796 0.0
C454 C 0.34593 0.36712 0.31137 0.0
C455 C 0.3221 0.38187 0.16892 0.0
C456 C 0.38552 0.31782 0.42153 0.0
C457 C 0.3719 0.32469 0.39336 0.0
C458 C 0.36818 0.33919 0.27906 0.0
C459 C 0.33774 0.37819 0.23812 0.0
C460 C 0.34701 0.36481 0.26749 0.0
C461 C 0.38085 0.33227 0.35181 0.0
C462 C 0.36801 0.34235 0.32286 0.0
H463 H 0.33586 0.43441 0.22929 0.0
H464 H 0.3474 0.41099 0.27919 0.0
H465 H 0.35981 0.34837 0.21843 0.0
H466 H 0.43387 0.32437 0.3559 0.0
H467 H 0.41102 0.33735 0.30752 0.0
C468 C 0.11039 0.43686 0.36514 0.0
C469 C 0.10137 0.42795 0.40615 0.0
C470 C 0.09428 0.4247 0.33024 0.0
C471 C 0.02417 0.38364 0.30272 0.0
H472 H 0.04979 0.37133 0.19832 0.0
C473 C 0.95312 0.32643 0.16816 0.0
C474 C 0.96099 0.33623 0.1272 0.0
C475 C 0.971 0.33575 0.20142 0.0
C476 C 0.04231 0.3748 0.22712 0.0
H477 H 0.06852 0.3986 0.44216 0.0
H478 H 0.04089 0.37758 0.38196 0.0
H479 H 0.07978 0.39203 0.25692 0.0
H480 H 0.9943 0.36268 0.08904 0.0
H481 H 0.02525 0.37893 0.14675 0.0
H482 H 0.98688 0.36689 0.27308 0.0
C483 C 0.06015 0.3942 0.37655 0.0
C484 C 0.05957 0.38673 0.26075 0.0
C485 C 0.07617 0.40622 0.41119 0.0
C486 C 0.98748 0.3546 0.1201 0.0
C487 C 1.00534 0.36392 0.15333 0.0
C488 C 1.00698 0.37183 0.26916 0.0
C489 C 0.06875 0.40345 0.33558 0.0
C490 C 0.05071 0.39121 0.29912 0.0
C491 C 0.99726 0.35514 0.19471 0.0
C492 C 0.01571 0.36713 0.23084 0.0
H493 H 0.12969 0.45349 0.36004 0.0
H494 H 0.10156 0.43243 0.29918 0.0
H495 H 0.01668 0.38722 0.33141 0.0
H496 H 0.9329 0.31236 0.17494 0.0
H497 H 0.96409 0.32808 0.23263 0.0
C498 C 0.61648 0.93429 0.1669 0.0
C499 C 0.59425 0.91009 0.17609 0.0
C500 C 0.62961 0.95254 0.19857 0.0
C501 C 0.61985 0.97029 0.30628 0.0
H502 H 0.69453 0.01789 0.30024 0.0
C503 C 0.6996 0.076 0.37996 0.0
C504 C 0.6912 0.07203 0.4221 0.0
C505 C 0.68993 0.05507 0.3518 0.0
C506 C 0.67365 1.00483 0.30227 0.0
H507 H 0.56896 0.88587 0.22639 0.0
H508 H 0.59224 0.91749 0.28197 0.0
H509 H 0.67349 0.98308 0.24868 0.0
H510 H 0.66716 0.04254 0.46801 0.0
H511 H 0.65063 1.00622 0.41917 0.0
H512 H 0.62006 0.99207 0.3599 0.0
C513 C 0.59921 0.92261 0.24997 0.0
C514 C 0.66151 0.98486 0.27261 0.0
C515 C 0.58593 0.90434 0.21812 0.0
C516 C 0.67401 0.04642 0.4358 0.0
C517 C 0.66432 0.02556 0.40767 0.0
C518 C 0.63201 0.99013 0.33609 0.0
C519 C 0.62107 0.94714 0.24057 0.0
C520 C 0.63435 0.96743 0.27386 0.0
C521 C 0.67161 0.02967 0.36507 0.0
C522 C 0.65904 1.00781 0.33431 0.0
H523 H 0.62344 0.93951 0.1349 0.0
H524 H 0.64603 0.97126 0.18975 0.0
H525 H 0.59889 0.95768 0.308 0.0
H526 H 0.7127 0.09544 0.36818 0.0
H527 H 0.69589 0.05899 0.31917 0.0
C528 C 0.70781 0.62129 0.19127 0.0
C529 C 0.69827 0.62043 0.15057 0.0
C530 C 0.70299 0.6342 0.22368 0.0
C531 C 0.67828 0.67948 0.24767 0.0
H532 H 0.65389 0.63881 0.35011 0.0
C533 C 0.61527 0.69341 0.37357 0.0
C534 C 0.61801 0.68831 0.41582 0.0
C535 C 0.62939 0.68958 0.34182 0.0
C536 C 0.66108 0.65076 0.32212 0.0
H537 H 0.67778 0.63416 0.11153 0.0
H538 H 0.66922 0.6564 0.16793 0.0
H539 H 0.6715 0.62474 0.29388 0.0
H540 H 0.63913 0.67696 0.45802 0.0
H541 H 0.66408 0.67089 0.40304 0.0
H542 H 0.66719 0.70519 0.27586 0.0
C543 C 0.68052 0.64721 0.17491 0.0
C544 C 0.67125 0.64265 0.28973 0.0
C545 C 0.68538 0.63433 0.14249 0.0
C546 C 0.63632 0.68082 0.42578 0.0
C547 C 0.65051 0.67714 0.39416 0.0
C548 C 0.66809 0.68763 0.28019 0.0
C549 C 0.68849 0.64658 0.21625 0.0
C550 C 0.67977 0.65673 0.25187 0.0
C551 C 0.64667 0.68066 0.35162 0.0
C552 C 0.65913 0.67323 0.31775 0.0
H553 H 0.71795 0.61094 0.19864 0.0
H554 H 0.70993 0.63379 0.25492 0.0
H555 H 0.6849 0.69097 0.21914 0.0
H556 H 0.60127 0.69912 0.36474 0.0
H557 H 0.62578 0.69237 0.30946 0.0
C558 C 0.9624 0.64013 0.43125 0.0
C559 C 0.93783 0.61863 0.42188 0.0
C560 C 0.98151 0.65216 0.39987 0.0
C561 C 0.99238 0.65268 0.28245 0.0
H562 H 0.06436 0.68264 0.31677 0.0
C563 C 0.07536 0.69434 0.15818 0.0
C564 C 0.09752 0.69227 0.16586 0.0
C565 C 0.05681 0.68881 0.18992 0.0
C566 C 0.0444 0.67406 0.30624 0.0
H567 H 0.91406 0.59301 0.37194 0.0
H568 H 0.94739 0.61289 0.31799 0.0
H569 H 0.03029 0.66577 0.36934 0.0
H570 H 0.11766 0.683 0.21328 0.0
H571 H 0.08504 0.67212 0.26766 0.0
H572 H 1.0063 0.65908 0.21921 0.0
C573 C 0.95191 0.62141 0.349 0.0
C574 C 0.02465 0.66477 0.33682 0.0
C575 C 0.93262 0.60983 0.38016 0.0
C576 C 0.10096 0.68508 0.20635 0.0
C577 C 0.08214 0.67893 0.23779 0.0
C578 C 1.01208 0.66141 0.25183 0.0
C579 C 0.97689 0.64259 0.35835 0.0
C580 C 0.99821 0.65375 0.32555 0.0
C581 C 0.0595 0.68036 0.23008 0.0
C582 C 0.03849 0.67214 0.26308 0.0
H583 H 0.96702 0.6474 0.46309 0.0
H584 H 1.00003 0.66881 0.40856 0.0
H585 H 0.97251 0.64495 0.27199 0.0
H586 H 0.07218 0.69997 0.1274 0.0
H587 H 0.04025 0.69098 0.18261 0.0
C588 C 0.73502 0.05923 0.64547 0.0
C589 C 0.728 0.07844 0.64907 0.0
C590 C 0.73032 0.04193 0.67833 0.0
C591 C 0.71025 0.02871 0.79065 0.0
H592 H 0.67875 0.95668 0.75559 0.0
C593 C 0.63861 0.94201 0.89163 0.0
C594 C 0.64372 0.92156 0.89614 0.0
C595 C 0.65299 0.96207 0.86322 0.0
C596 C 0.68787 0.97675 0.76576 0.0
H597 H 0.71288 0.09598 0.6924 0.0
H598 H 0.70315 0.0649 0.74813 0.0
H599 H 0.69786 0.99116 0.70313 0.0
H600 H 0.66762 0.90583 0.8748 0.0
H601 H 0.69237 0.94076 0.82385 0.0
H602 H 0.69866 0.01387 0.85314 0.0
C603 C 0.71252 0.06331 0.71999 0.0
C604 C 0.69895 0.99653 0.73585 0.0
C605 C 0.71757 0.08086 0.68738 0.0
C606 C 0.66328 0.92136 0.87159 0.0
C607 C 0.67739 0.94123 0.84263 0.0
C608 C 0.6988 1.00887 0.82046 0.0
C609 C 0.71829 0.04328 0.71545 0.0
C610 C 0.70977 0.02271 0.74786 0.0
C611 C 0.67249 0.96182 0.83863 0.0
C612 C 0.68709 0.98278 0.80804 0.0
H613 H 0.74348 0.05697 0.61677 0.0
H614 H 0.73558 0.02711 0.67423 0.0
H615 H 0.71892 0.04869 0.80102 0.0
H616 H 0.624 0.94289 0.91083 0.0
H617 H 0.64879 0.97771 0.86025 0.0
C618 C 0.7309 0.6826 0.95077 0.0
C619 C 0.71226 0.65676 0.9612 0.0
C620 C 0.7235 0.69849 0.93009 0.0
C621 C 0.66583 0.70154 0.89124 0.0
H622 H 0.70827 0.72864 0.79074 0.0
C623 C 0.62452 0.69591 0.72892 0.0
C624 C 0.6386 0.71553 0.69901 0.0
C625 C 0.63448 0.69763 0.76907 0.0
C626 C 0.69651 0.72191 0.81904 0.0
H627 H 0.67066 0.62864 0.9629 0.0
H628 H 0.65804 0.65567 0.92482 0.0
H629 H 0.72465 0.71569 0.84989 0.0
H630 H 0.6738 0.75277 0.68846 0.0
H631 H 0.69145 0.7554 0.75863 0.0
H632 H 0.63685 0.706 0.85858 0.0
C633 C 0.67841 0.66377 0.93268 0.0
C634 C 0.70592 0.71447 0.85312 0.0
C635 C 0.68578 0.64795 0.9537 0.0
C636 C 0.66258 0.7372 0.71063 0.0
C637 C 0.67261 0.73884 0.75082 0.0
C638 C 0.65635 0.70885 0.85698 0.0
C639 C 0.69731 0.68886 0.91924 0.0
C640 C 0.69015 0.70299 0.88874 0.0
C641 C 0.65883 0.71884 0.78016 0.0
C642 C 0.67112 0.71789 0.81986 0.0
H643 H 0.75144 0.69025 0.95676 0.0
H644 H 0.73845 0.71792 0.9209 0.0
H645 H 0.65349 0.69331 0.91867 0.0
H646 H 0.60635 0.67857 0.72105 0.0
H647 H 0.62373 0.68159 0.79068 0.0
C648 C 0.08022 0.74197 0.91306 0.0
C649 C 0.08017 0.7212 0.93402 0.0
C650 C 0.06114 0.73713 0.88323 0.0
C651 C 0.99593 0.69041 0.84799 0.0
H652 H 0.02244 0.71036 0.73429 0.0
C653 C 0.93312 0.6688 0.69632 0.0
C654 C 0.93577 0.65068 0.67185 0.0
C655 C 0.95019 0.68138 0.72955 0.0
C656 C 1.01487 0.70514 0.766 0.0
H657 H 0.05957 0.67935 0.94255 0.0
H658 H 0.02583 0.6709 0.89082 0.0
H659 H 0.05289 0.72566 0.79345 0.0
H660 H 0.95865 0.63213 0.66127 0.0
H661 H 0.989 0.65474 0.71881 0.0
H662 H 0.95794 0.66933 0.82027 0.0
C663 C 0.04079 0.69083 0.89713 0.0
C664 C 0.03216 0.71389 0.79966 0.0
C665 C 0.06015 0.69562 0.92626 0.0
C666 C 0.95608 0.64579 0.68016 0.0
C667 C 0.97347 0.6588 0.71267 0.0
C668 C 0.97859 0.6821 0.81436 0.0
C669 C 0.04144 0.71151 0.87493 0.0
C670 C 0.02284 0.70594 0.8407 0.0
C671 C 0.97047 0.67647 0.73768 0.0
C672 C 0.98809 0.68883 0.77319 0.0
H673 H 0.0955 0.76185 0.91871 0.0
H674 H 0.06194 0.75329 0.86625 0.0
H675 H 0.98846 0.68409 0.87951 0.0
H676 H 0.91755 0.6728 0.69027 0.0
H677 H 0.94766 0.69495 0.74876 0.0
C678 C 0.37204 0.10056 0.83504 0.0
C679 C 0.39539 0.1025 0.84894 0.0
C680 C 0.36291 0.09184 0.79453 0.0
C681 C 0.3794 0.07263 0.69264 0.0
H682 H 0.30963 0.01311 0.70387 0.0
C683 C 0.34532 0.97625 0.60944 0.0
C684 C 0.31856 0.95921 0.60241 0.0
C685 C 0.35401 1.00069 0.62716 0.0
C686 C 0.32882 0.03002 0.69938 0.0
H687 H 0.42808 0.09794 0.83029 0.0
H688 H 0.41211 0.08266 0.76026 0.0
H689 H 0.3268 0.04549 0.75862 0.0
H690 H 0.28043 0.95597 0.60403 0.0
H691 H 0.29576 0.9987 0.63392 0.0
H692 H 0.3818 0.05611 0.63429 0.0
C693 C 0.40109 0.08839 0.7802 0.0
C694 C 0.3387 0.04868 0.73095 0.0
C695 C 0.41023 0.09712 0.82062 0.0
C696 C 0.30113 0.96825 0.60979 0.0
C697 C 0.30987 0.99277 0.62708 0.0
C698 C 0.36946 0.05393 0.6609 0.0
C699 C 0.37688 0.08475 0.76727 0.0
C700 C 0.36452 0.0695 0.72889 0.0
C701 C 0.33622 1.0088 0.63765 0.0
C702 C 0.34451 0.03179 0.66497 0.0
H703 H 0.36034 0.1049 0.85596 0.0
H704 H 0.34431 0.08949 0.78523 0.0
H705 H 0.39923 0.08875 0.68995 0.0
H706 H 0.35965 0.9707 0.60245 0.0
H707 H 0.37449 0.01253 0.63486 0.0
C708 C 0.38628 0.33024 0.66195 0.0
C709 C 0.37334 0.3054 0.64344 0.0
C710 C 0.37313 0.33784 0.68954 0.0
C711 C 0.31565 0.31001 0.75924 0.0
H712 H 0.33586 0.38258 0.77068 0.0
C713 C 0.30114 0.35128 0.91207 0.0
C714 C 0.29764 0.37284 0.91076 0.0
C715 C 0.30531 0.34138 0.87514 0.0
C716 C 0.32951 0.36213 0.76749 0.0
H717 H 0.3358 0.26974 0.63806 0.0
H718 H 0.31282 0.28345 0.68488 0.0
H719 H 0.35242 0.36917 0.712 0.0
H720 H 0.29362 0.39974 0.86989 0.0
H721 H 0.30029 0.38206 0.80508 0.0
H722 H 0.29235 0.30289 0.81427 0.0
C723 C 0.33338 0.29667 0.67911 0.0
C724 C 0.33938 0.35451 0.73417 0.0
C725 C 0.3466 0.28891 0.65196 0.0
C726 C 0.29696 0.3835 0.87176 0.0
C727 C 0.30077 0.37336 0.83471 0.0
C728 C 0.30548 0.31756 0.7922 0.0
C729 C 0.34659 0.32107 0.69874 0.0
C730 C 0.33326 0.32852 0.73046 0.0
C731 C 0.3056 0.35257 0.83606 0.0
C732 C 0.31298 0.34385 0.79751 0.0
H733 H 0.40655 0.34405 0.65542 0.0
H734 H 0.38403 0.35669 0.70441 0.0
H735 H 0.31058 0.28983 0.75752 0.0
H736 H 0.30173 0.34274 0.94181 0.0
H737 H 0.30939 0.32564 0.8775 0.0
C738 C 0.15095 0.42777 0.80058 0.0
C739 C 0.14108 0.43905 0.77299 0.0
C740 C 0.14323 0.42372 0.84273 0.0
C741 C 0.09293 0.42536 0.91437 0.0
H742 H 0.0728 0.35298 0.92788 0.0
C743 C 0.98929 0.3536 0.96328 0.0
C744 C 0.97746 0.33237 0.93531 0.0
C745 C 0.01644 0.36818 0.96722 0.0
C746 C 0.07816 0.37318 0.92469 0.0
H747 H 0.11823 0.45795 0.76848 0.0
H748 H 0.10357 0.44977 0.84033 0.0
H749 H 0.11194 0.38172 0.8895 0.0
H750 H 0.98532 0.30845 0.89328 0.0
H751 H 0.03199 0.33431 0.89827 0.0
H752 H 0.05716 0.41582 0.9446 0.0
C753 C 0.11774 0.44445 0.83086 0.0
C754 C 0.1011 0.39003 0.90313 0.0
C755 C 0.12609 0.44916 0.78914 0.0
C756 C 0.99351 0.32488 0.9145 0.0
C757 C 0.02057 0.33965 0.91795 0.0
C758 C 0.06951 0.4083 0.93472 0.0
C759 C 0.12455 0.42982 0.85741 0.0
C760 C 0.1076 0.41584 0.89442 0.0
C761 C 0.0325 0.36225 0.94284 0.0
C762 C 0.06082 0.38151 0.93693 0.0
H763 H 0.16301 0.42027 0.78884 0.0
H764 H 0.15002 0.41361 0.86258 0.0
H765 H 0.09802 0.44545 0.9106 0.0
H766 H 0.97811 0.3603 0.98041 0.0
H767 H 0.02484 0.38502 0.98758 0.0
C768 C 0.53022 0.9279 0.06614 0.0
C769 C 0.53838 0.91994 1.03038 0.0
C770 C 0.52515 0.9485 0.06399 0.0
C771 C 0.50855 0.98597 0.98908 0.0
H772 H 0.52938 0.03546 0.08034 0.0
C773 C 0.49466 0.07626 0.98064 0.0
C774 C 0.48836 0.08458 1.01794 0.0
C775 C 0.50146 0.05677 0.98137 0.0
C776 C 0.52303 0.02166 0.05474 0.0
H777 H 0.54753 0.92783 0.96412 0.0
H778 H 0.53868 0.96368 0.9604 0.0
H779 H 0.53975 1.0008 0.08322 0.0
H780 H 0.48406 0.07834 0.08532 0.0
H781 H 0.49537 0.04444 0.08653 0.0
H782 H 0.49143 1.00651 0.96087 0.0
C783 C 0.53609 0.95386 0.99018 0.0
C784 C 0.52909 1.00172 0.05638 0.0
C785 C 0.54137 0.93335 0.99239 0.0
C786 C 0.48892 0.07269 0.05589 0.0
C787 C 0.49564 0.05323 0.05662 0.0
C788 C 0.50231 1.00582 0.98756 0.0
C789 C 0.52787 0.96176 1.02595 0.0
C790 C 0.52188 0.98347 1.02366 0.0
C791 C 0.50211 0.04492 1.01941 0.0
C792 C 0.50932 0.02397 1.02046 0.0
H793 H 0.52752 0.91806 0.09595 0.0
H794 H 0.51855 0.95368 0.09212 0.0
H795 H 0.50234 0.97217 0.96349 0.0
H796 H 0.49463 0.08499 0.95081 0.0
H797 H 0.50662 0.05134 0.95203 0.0
C798 C 0.41321 0.48724 1.01502 0.0
C799 C 0.4006 0.48539 0.05352 0.0
C800 C 0.43946 0.49362 1.0137 0.0
C801 C 0.49168 0.49417 0.07956 0.0
H802 H 0.53814 0.53998 0.99288 0.0
C803 C 0.60309 0.53128 0.08278 0.0
C804 C 0.61669 0.5355 0.04457 0.0
C805 C 0.57695 0.52522 0.08355 0.0
C806 C 0.52546 0.52683 1.01703 0.0
H807 H 0.40633 0.48907 0.12094 0.0
H808 H 0.45188 0.5001 0.11865 0.0
H809 H 0.49285 0.52956 0.99476 0.0
H810 H 0.61282 0.53627 0.97699 0.0
H811 H 0.56728 0.52519 0.9782 0.0
H812 H 0.52405 0.4911 0.10159 0.0
C813 C 0.4414 0.49642 0.08935 0.0
C814 C 0.49933 0.52088 1.01815 0.0
C815 C 0.4152 0.49024 0.09065 0.0
C816 C 0.60317 0.5333 1.00709 0.0
C817 C 0.57694 0.52709 1.00784 0.0
C818 C 0.51775 0.49998 0.07829 0.0
C819 C 0.45399 0.49817 0.05086 0.0
C820 C 0.48199 0.50451 0.04952 0.0
C821 C 0.56332 0.52298 0.04611 0.0
C822 C 0.5352 0.5165 0.04709 0.0
H823 H 0.40275 0.48366 0.9857 0.0
H824 H 0.44824 0.49448 0.98345 0.0
H825 H 0.47895 0.48115 0.10381 0.0
H826 H 0.61274 0.53293 0.11239 0.0
H827 H 0.56758 0.52273 0.11378 0.0
C828 C 0.08997 0.60672 0.99654 0.0
C829 C 0.1024 0.61798 0.03481 0.0
C830 C 0.07024 0.5804 0.99445 0.0
C831 C 0.02224 0.52503 0.0612 0.0
H832 H 0.01791 0.48299 0.96539 0.0
C833 C 0.95036 0.41308 0.0581 0.0
C834 C 0.93881 0.40117 1.01967 0.0
C835 C 0.96995 0.43944 0.05977 0.0
C836 C 0.0185 0.49444 0.99219 0.0
H837 H 0.10354 0.60982 0.10094 0.0
H838 H 0.06942 0.56417 0.09724 0.0
H839 H 0.05247 0.52846 0.96846 0.0
H840 H 0.93897 0.4082 0.95283 0.0
H841 H 0.97263 0.45407 0.95579 0.0
H842 H 0.98822 0.49113 0.08486 0.0
C843 C 0.07472 0.57574 0.06879 0.0
C844 C 0.03847 0.52066 0.99397 0.0
C845 C 0.09452 0.602 0.07085 0.0
C846 C 0.94734 0.41656 0.98302 0.0
C847 C 0.9669 0.44295 0.98471 0.0
C848 C 1.00222 0.49884 0.05935 0.0
C849 C 0.06217 0.56448 1.03059 0.0
C850 C 0.04073 0.53641 1.02855 0.0
C851 C 0.97867 0.45485 1.02309 0.0
C852 C 0.99999 0.48303 1.02485 0.0
H853 H 0.09535 0.61828 0.96807 0.0
H854 H 0.06096 0.57266 0.96451 0.0
H855 H 0.02294 0.5365 0.08805 0.0
H856 H 0.94455 0.40195 0.08704 0.0
H857 H 0.97863 0.44755 0.0899 0.0
C858 C 0.93577 0.53323 0.58539 0.0
C859 C 0.92688 0.53711 0.54658 0.0
C860 C 0.95503 0.52611 0.58716 0.0
C861 C 1.00791 0.52602 0.52302 0.0
H862 H 1.0039 0.47675 0.60656 0.0
C863 C 0.0791 0.48608 0.51881 0.0
C864 C 0.08833 0.48193 0.55708 0.0
C865 C 0.05895 0.4919 0.51795 0.0
C866 C 1.0056 0.49079 0.58328 0.0
H867 H 0.93177 0.53662 0.47925 0.0
H868 H 0.96487 0.524 0.48216 0.0
H869 H 0.97033 0.48885 0.60454 0.0
H870 H 0.08294 0.48046 0.62459 0.0
H871 H 0.0481 0.49083 0.62317 0.0
H872 H 0.04321 0.52818 0.50191 0.0
C873 C 0.9572 0.52667 0.51142 0.0
C874 C 0.98622 0.49775 0.58211 0.0
C875 C 0.93793 0.5337 0.50969 0.0
C876 C 0.07634 0.48332 0.59445 0.0
C877 C 0.0562 0.48923 0.5936 0.0
C878 C 0.02729 0.51912 0.52426 0.0
C879 C 0.96614 0.52277 0.55018 0.0
C880 C 0.98699 0.51544 0.55187 0.0
C881 C 0.04733 0.49392 0.55534 0.0
C882 C 0.02647 0.5013 0.5543 0.0
H883 H 0.92784 0.53568 0.61455 0.0
H884 H 0.9615 0.52363 0.61765 0.0
H885 H 1.00961 0.54006 0.49973 0.0
H886 H 0.08766 0.48511 0.48928 0.0
H887 H 0.05247 0.49478 0.48774 0.0
C888 C 0.42275 0.93936 0.56341 0.0
C889 C 0.40935 0.92671 0.52645 0.0
C890 C 0.44891 0.95978 0.56198 0.0
C891 C 0.49918 1.00923 0.48916 0.0
H892 H 0.54796 0.01502 0.57486 0.0
C893 C 0.61072 0.08493 0.476 0.0
C894 C 0.62515 0.09565 0.51301 0.0
C895 C 0.58441 0.06487 0.47765 0.0
C896 C 0.53464 0.0141 0.5509 0.0
H897 H 0.41355 0.92605 0.45885 0.0
H898 H 0.45884 0.96138 0.45642 0.0
H899 H 0.50288 0.97948 0.57799 0.0
H900 H 0.62249 0.0937 0.58097 0.0
H901 H 0.57682 0.05954 0.5839 0.0
H902 H 0.53077 0.04395 0.46225 0.0
C903 C 0.44911 0.95567 0.48662 0.0
C904 C 0.5086 0.9935 0.55269 0.0
C905 C 0.42305 0.93514 0.48807 0.0
C906 C 0.61221 0.08598 0.5517 0.0
C907 C 0.58589 0.06607 0.55337 0.0
C908 C 0.52518 0.02993 0.4875 0.0
C909 C 0.46251 0.96843 0.52352 0.0
C910 C 0.4904 0.99064 0.5218 0.0
C911 C 0.57151 0.05488 0.51639 0.0
C912 C 0.54347 0.03277 0.5183 0.0
H913 H 0.41298 0.9336 0.59359 0.0
H914 H 0.45831 0.96916 0.5911 0.0
H915 H 0.48581 1.00808 0.46509 0.0
H916 H 0.61994 0.09158 0.44557 0.0
H917 H 0.57443 0.05675 0.44834 0.0
C918 C 0.53052 0.59334 0.5675 0.0
C919 C 0.53392 0.60759 0.53032 0.0
C920 C 0.52481 0.56739 0.5661 0.0
C921 C 0.52917 0.51938 0.49651 0.0
H922 H 0.47961 0.46865 0.57508 0.0
C923 C 0.49519 0.40899 0.48392 0.0
C924 C 0.48956 0.39429 0.52116 0.0
C925 C 0.50065 0.43489 0.48475 0.0
C926 C 0.49382 0.48254 0.55321 0.0
H927 H 0.53381 0.6052 0.46235 0.0
H928 H 0.52387 0.56012 0.45996 0.0
H929 H 0.48878 0.51337 0.57718 0.0
H930 H 0.48583 0.39591 0.5887 0.0
H931 H 0.49589 0.44091 0.59028 0.0
H932 H 0.53449 0.48869 0.47282 0.0
C933 C 0.52579 0.56908 0.49031 0.0
C934 C 0.49904 0.50833 0.55439 0.0
C935 C 0.53132 0.59498 0.4917 0.0
C936 C 0.4899 0.40643 0.55928 0.0
C937 C 0.4955 0.43234 0.56014 0.0
C938 C 0.52407 0.49361 0.49549 0.0
C939 C 0.52248 0.55485 0.52749 0.0
C940 C 0.5168 0.52719 0.52606 0.0
C941 C 0.50081 0.44703 0.52287 0.0
C942 C 0.5063 0.47469 0.52384 0.0
H943 H 0.53241 0.60228 0.59787 0.0
H944 H 0.5227 0.55729 0.59545 0.0
H945 H 0.54325 0.53333 0.47455 0.0
H946 H 0.49498 0.40037 0.45389 0.0
H947 H 0.50423 0.4452 0.45523 0.0
C948 C 0.56489 0.13843 0.1866 0.0
C949 C 0.55166 0.13644 0.14931 0.0
C950 C 0.5782 0.12493 0.19118 0.0
C951 C 0.62049 0.11293 0.13599 0.0
H952 H 0.62028 0.08111 0.24214 0.0
C953 C 0.68543 0.12128 0.28697 0.0
C954 C 0.69523 0.14836 0.28918 0.0
C955 C 0.67225 0.1073 0.25122 0.0
C956 C 0.62072 0.08916 0.21144 0.0
H957 H 0.54143 0.11864 0.08762 0.0
H958 H 0.56596 0.09579 0.09511 0.0
H959 H 0.58018 0.07683 0.21597 0.0
H960 H 0.704 0.18232 0.25162 0.0
H961 H 0.68023 0.15809 0.19081 0.0
H962 H 0.66166 0.12787 0.13386 0.0
C963 C 0.56522 0.10711 0.12113 0.0
C964 C 0.59755 0.08667 0.19656 0.0
C965 C 0.55128 0.12014 0.11696 0.0
C966 C 0.69563 0.1614 0.25211 0.0
C967 C 0.68228 0.14739 0.21658 0.0
C968 C 0.64377 0.11548 0.15094 0.0
C969 C 0.57903 0.10971 0.15813 0.0
C970 C 0.59789 0.10065 0.16095 0.0
C971 C 0.66833 0.12001 0.21734 0.0
C972 C 0.64452 0.10601 0.19109 0.0
H973 H 0.56549 0.15096 0.21176 0.0
H974 H 0.5892 0.12764 0.2197 0.0
H975 H 0.62109 0.12364 0.10807 0.0
H976 H 0.68557 0.11011 0.31354 0.0
H977 H 0.66258 0.08626 0.25211 0.0
C978 C 0.40358 0.57493 0.11481 0.0
C979 C 0.38213 0.57301 0.13703 0.0
C980 C 0.42699 0.59872 0.11221 0.0
C981 C 0.47378 0.63676 0.16143 0.0
H982 H 0.4807 0.70392 0.18327 0.0
C983 C 0.49305 0.69685 0.3117 0.0
C984 C 0.51017 0.6901 0.33052 0.0
C985 C 0.49036 0.69624 0.2682 0.0
C986 C 0.47936 0.68542 0.17696 0.0
H987 H 0.36746 0.59518 0.16886 0.0
H988 H 0.40821 0.63622 0.16546 0.0
H989 H 0.44688 0.6736 0.13561 0.0
H990 H 0.54105 0.68158 0.31765 0.0
H991 H 0.53693 0.68139 0.2419 0.0
H992 H 0.50398 0.6469 0.20573 0.0
C993 C 0.40711 0.61961 0.14967 0.0
C994 C 0.46002 0.66809 0.14948 0.0
C995 C 0.38373 0.5959 0.15217 0.0
C996 C 0.52722 0.68638 0.30459 0.0
C997 C 0.52476 0.68613 0.26088 0.0
C998 C 0.49284 0.65389 0.18913 0.0
C999 C 0.42951 0.62094 0.13211 0.0
C1000 C 0.45563 0.64273 0.14439 0.0
C1001 C 0.50477 0.68886 0.24236 0.0
C1002 C 0.4942 0.67741 0.20029 0.0
H1003 H 0.40327 0.55782 0.10268 0.0
H1004 H 0.44378 0.59918 0.09788 0.0
H1005 H 0.47127 0.61754 0.15805 0.0
H1006 H 0.48029 0.70079 0.3307 0.0
H1007 H 0.47493 0.69884 0.25559 0.0
C1008 C 0.89403 0.37181 0.25708 0.0
C1009 C 0.90192 0.36908 0.2168 0.0
C1010 C 0.90967 0.39407 0.28063 0.0
C1011 C 0.94693 0.46034 0.2519 0.0
H1012 H 0.93862 0.46746 0.37091 0.0
C1013 C 0.88631 0.49803 0.31852 0.0
C1014 C 0.89139 0.5097 0.35819 0.0
C1015 C 0.90395 0.49202 0.3002 0.0
C1016 C 0.94203 0.46636 0.33774 0.0
H1017 H 0.93413 0.38664 0.17177 0.0
H1018 H 0.96105 0.42493 0.21302 0.0
H1019 H 0.94189 0.43062 0.34592 0.0
H1020 H 0.9199 0.52581 0.4085 0.0
H1021 H 0.9503 0.5149 0.37674 0.0
H1022 H 0.9442 0.49452 0.24338 0.0
C1023 C 0.94277 0.40989 0.22629 0.0
C1024 C 0.94377 0.44516 0.32346 0.0
C1025 C 0.92715 0.38768 0.20268 0.0
C1026 C 0.91541 0.51708 0.37769 0.0
C1027 C 0.9329 0.5108 0.3596 0.0
C1028 C 0.94503 0.48143 0.26616 0.0
C1029 C 0.93341 0.41408 0.26414 0.0
C1030 C 0.94392 0.44082 0.28019 0.0
C1031 C 0.92679 0.49723 0.32157 0.0
C1032 C 0.94035 0.4833 0.3088 0.0
H1033 H 0.87492 0.35771 0.2691 0.0
H1034 H 0.90179 0.39673 0.30969 0.0
H1035 H 0.94723 0.45768 0.2183 0.0
H1036 H 0.86805 0.49224 0.30273 0.0
H1037 H 0.89854 0.48122 0.27103 0.0
C1038 C 0.32409 0.82813 0.2797 0.0
C1039 C 0.33287 0.84769 0.31026 0.0
C1040 C 0.32771 0.83455 0.23716 0.0
C1041 C 0.38068 0.88615 0.18139 0.0
H1042 H 0.34945 0.83451 0.09364 0.0
C1043 C 0.44572 0.86157 0.08996 0.0
C1044 C 0.43714 0.83514 0.0981 0.0
C1045 C 0.42842 0.87095 0.09326 0.0
C1046 C 0.3584 0.84955 0.11726 0.0
H1047 H 0.34957 0.88931 0.31974 0.0
H1048 H 0.35581 0.90038 0.24561 0.0
H1049 H 0.32175 0.8374 0.14747 0.0
H1050 H 0.4027 0.79754 0.1109 0.0
H1051 H 0.37321 0.81378 0.11725 0.0
H1052 H 0.41745 0.89643 0.1543 0.0
C1053 C 0.34629 0.88005 0.25459 0.0
C1054 C 0.34252 0.85123 0.14807 0.0
C1055 C 0.34262 0.87361 0.29725 0.0
C1056 C 0.41037 0.81808 0.10523 0.0
C1057 C 0.39318 0.8274 0.10826 0.0
C1058 C 0.39652 0.88442 0.15074 0.0
C1059 C 0.34052 0.86077 0.22426 0.0
C1060 C 0.35384 0.86773 0.18276 0.0
C1061 C 0.40218 0.85412 0.10429 0.0
C1062 C 0.38571 0.86429 0.12102 0.0
H1063 H 0.3161 0.80796 0.28864 0.0
H1064 H 0.32297 0.81907 0.2149 0.0
H1065 H 0.39017 0.89944 0.20719 0.0
H1066 H 0.46582 0.87535 0.08224 0.0
H1067 H 0.43587 0.8916 0.08934 0.0
C1068 C 0.5366 0.31164 0.29716 0.0
C1069 C 0.51658 0.31338 0.31767 0.0
C1070 C 0.53947 0.31433 0.2537 0.0
C1071 C 0.5535 0.33572 0.16794 0.0
H1072 H 0.53799 0.39125 0.15845 0.0
C1073 C 0.6311 0.44217 0.12539 0.0
C1074 C 0.63357 0.45667 0.16178 0.0
C1075 C 0.60924 0.41727 0.12007 0.0
C1076 C 0.54223 0.37557 0.15964 0.0
H1077 H 0.48035 0.31335 0.30658 0.0
H1078 H 0.4844 0.31608 0.23137 0.0
H1079 H 0.50756 0.35173 0.19359 0.0
H1080 H 0.61508 0.45688 0.2204 0.0
H1081 H 0.57728 0.41398 0.21116 0.0
H1082 H 0.59021 0.3619 0.13881 0.0
C1083 C 0.49931 0.31495 0.24909 0.0
C1084 C 0.52462 0.35253 0.17994 0.0
C1085 C 0.49689 0.31319 0.29284 0.0
C1086 C 0.61381 0.44611 0.19224 0.0
C1087 C 0.59195 0.4217 0.18658 0.0
C1088 C 0.5715 0.35916 0.14854 0.0
C1089 C 0.52214 0.31851 0.22934 0.0
C1090 C 0.53163 0.33368 0.18915 0.0
C1091 C 0.58938 0.40701 0.15053 0.0
C1092 C 0.56703 0.38012 0.14851 0.0
H1093 H 0.55154 0.31049 0.31483 0.0
H1094 H 0.55703 0.316 0.24049 0.0
H1095 H 0.55862 0.32077 0.17116 0.0
H1096 H 0.64621 0.44987 0.10154 0.0
H1097 H 0.60786 0.40607 0.09243 0.0
C1098 C 0.22513 0.68962 0.2665 0.0
C1099 C 0.20747 0.69427 0.24426 0.0
C1100 C 0.22544 0.68982 0.31018 0.0
C1101 C 0.1771 0.66995 0.3912 0.0
H1102 H 0.23467 0.67268 0.45228 0.0
C1103 C 0.2059 0.60656 0.50814 0.0
C1104 C 0.18984 0.58298 0.48727 0.0
C1105 C 0.20477 0.62883 0.49821 0.0
C1106 C 0.21821 0.67221 0.4369 0.0
H1107 H 0.17913 0.70707 0.25186 0.0
H1108 H 0.17907 0.7063 0.32792 0.0
H1109 H 0.24349 0.70267 0.39482 0.0
H1110 H 0.15839 0.56364 0.44245 0.0
H1111 H 0.15688 0.6022 0.4242 0.0
H1112 H 0.15182 0.6387 0.43205 0.0
C1113 C 0.19227 0.70192 0.31113 0.0
C1114 C 0.22337 0.68937 0.40353 0.0
C1115 C 0.19205 0.70189 0.26719 0.0
C1116 C 0.17095 0.58146 0.45926 0.0
C1117 C 0.17002 0.60374 0.44898 0.0
C1118 C 0.17192 0.65307 0.42506 0.0
C1119 C 0.20806 0.69465 0.33306 0.0
C1120 C 0.20294 0.68658 0.37783 0.0
C1121 C 0.18789 0.62802 0.46663 0.0
C1122 C 0.19247 0.65231 0.4455 0.0
H1123 H 0.23783 0.68431 0.25039 0.0
H1124 H 0.23784 0.68398 0.32582 0.0
H1125 H 0.1608 0.66757 0.37262 0.0
H1126 H 0.22029 0.60812 0.53058 0.0
H1127 H 0.21837 0.64702 0.51318 0.0
C1128 C 0.37878 0.83788 0.66416 0.0
C1129 C 0.36069 0.846 0.67175 0.0
C1130 C 0.3893 0.83094 0.69723 0.0
C1131 C 0.40268 0.84224 0.80999 0.0
H1132 H 0.42544 0.7921 0.79479 0.0
C1133 C 0.46287 0.82657 0.93496 0.0
C1134 C 0.48664 0.82999 0.91965 0.0
C1135 C 0.44323 0.82314 0.90732 0.0
C1136 C 0.41911 0.80608 0.79945 0.0
H1137 H 0.33845 0.85206 0.71985 0.0
H1138 H 0.35663 0.83945 0.77815 0.0
H1139 H 0.39706 0.79517 0.74264 0.0
H1140 H 0.50782 0.83078 0.86361 0.0
H1141 H 0.47322 0.8245 0.8151 0.0
H1142 H 0.42492 0.85321 0.86671 0.0
C1143 C 0.36306 0.83901 0.74647 0.0
C1144 C 0.40294 0.80793 0.76962 0.0
C1145 C 0.35262 0.84619 0.71317 0.0
C1146 C 0.48979 0.82838 0.87625 0.0
C1147 C 0.46996 0.82465 0.84856 0.0
C1148 C 0.41856 0.84013 0.84008 0.0
C1149 C 0.38182 0.83165 0.73886 0.0
C1150 C 0.39521 0.82662 0.77385 0.0
C1151 C 0.44681 0.82272 0.86386 0.0
C1152 C 0.42747 0.82252 0.8345 0.0
H1153 H 0.38546 0.83754 0.63261 0.0
H1154 H 0.40406 0.82595 0.6901 0.0
H1155 H 0.39743 0.85707 0.81408 0.0
H1156 H 0.45974 0.82756 0.96828 0.0
H1157 H 0.42546 0.82142 0.91988 0.0
C1158 C 0.55349 0.37505 0.64157 0.0
C1159 C 0.52837 0.35567 0.6543 0.0
C1160 C 0.57172 0.39146 0.67101 0.0
C1161 C 0.58982 0.39867 0.78167 0.0
H1162 H 0.61984 0.47264 0.76137 0.0
C1163 C 0.63826 0.47342 0.91291 0.0
C1164 C 0.65898 0.49852 0.90372 0.0
C1165 C 0.62521 0.45564 0.88094 0.0
C1166 C 0.61215 0.45212 0.7672 0.0
H1167 H 0.50307 0.33747 0.70804 0.0
H1168 H 0.5353 0.36603 0.75985 0.0
H1169 H 0.59144 0.44147 0.70891 0.0
H1170 H 0.6829 0.52444 0.85383 0.0
H1171 H 0.6604 0.49295 0.79749 0.0
H1172 H 0.61066 0.40911 0.83963 0.0
C1173 C 0.54067 0.36854 0.72691 0.0
C1174 C 0.59574 0.43426 0.73722 0.0
C1175 C 0.52223 0.3523 0.69733 0.0
C1176 C 0.66683 0.50529 0.86176 0.0
C1177 C 0.65387 0.48727 0.82956 0.0
C1178 C 0.60655 0.41651 0.81138 0.0
C1179 C 0.56538 0.38861 0.71386 0.0
C1180 C 0.58406 0.40739 0.74454 0.0
C1181 C 0.6327 0.46228 0.8388 0.0
C1182 C 0.61747 0.44347 0.80497 0.0
H1183 H 0.55889 0.37817 0.60866 0.0
H1184 H 0.59071 0.4066 0.66021 0.0
H1185 H 0.58136 0.37804 0.78773 0.0
H1186 H 0.63157 0.4676 0.94489 0.0
H1187 H 0.60868 0.4369 0.88936 0.0
C1188 C 0.20012 0.55854 0.67741 0.0
C1189 C 0.18866 0.55446 0.63755 0.0
C1190 C 0.20717 0.58141 0.69945 0.0
C1191 C 0.18454 0.62696 0.71168 0.0
H1192 H 0.24258 0.66078 0.78883 0.0
C1193 C 0.18109 0.68788 0.84849 0.0
C1194 C 0.18706 0.68091 0.88728 0.0
C1195 C 0.18804 0.68075 0.81086 0.0
C1196 C 0.22628 0.6516 0.76738 0.0
H1197 H 0.17742 0.57199 0.58817 0.0
H1198 H 0.18948 0.61181 0.62699 0.0
H1199 H 0.24302 0.63218 0.73434 0.0
H1200 H 0.20657 0.66261 0.91705 0.0
H1201 H 0.21795 0.64967 0.85216 0.0
H1202 H 0.16685 0.64473 0.74629 0.0
C1203 C 0.19285 0.59723 0.64121 0.0
C1204 C 0.2266 0.63531 0.73613 0.0
C1205 C 0.18601 0.57445 0.619 0.0
C1206 C 0.20143 0.66808 0.88772 0.0
C1207 C 0.20826 0.6609 0.85032 0.0
C1208 C 0.18408 0.64304 0.74316 0.0
C1209 C 0.20276 0.60058 0.68216 0.0
C1210 C 0.20527 0.62206 0.70901 0.0
C1211 C 0.20107 0.6665 0.8114 0.0
C1212 C 0.20445 0.65468 0.7725 0.0
H1213 H 0.20259 0.54359 0.69241 0.0
H1214 H 0.21458 0.58334 0.73109 0.0
H1215 H 0.16771 0.61686 0.69144 0.0
H1216 H 0.17041 0.69818 0.84716 0.0
H1217 H 0.18257 0.68573 0.7814 0.0
C1218 C 0.65354 0.18165 0.64015 0.0
C1219 C 0.67288 0.17545 0.64931 0.0
C1220 C 0.64057 0.18646 0.67231 0.0
C1221 C 0.62515 0.17356 0.78556 0.0
H1222 H 0.5963 0.21856 0.76858 0.0
C1223 C 0.56461 0.18719 0.91306 0.0
C1224 C 0.53962 0.18118 0.89983 0.0
C1225 C 0.58381 0.19119 0.88376 0.0
C1226 C 0.60428 0.20597 0.77369 0.0
H1227 H 0.69472 0.17063 0.69935 0.0
H1228 H 0.67267 0.17993 0.75582 0.0
H1229 H 0.62588 0.21761 0.71615 0.0
H1230 H 0.51573 0.17646 0.84545 0.0
H1231 H 0.54958 0.1839 0.79408 0.0
H1232 H 0.60366 0.16217 0.84331 0.0
C1233 C 0.66693 0.1803 0.7237 0.0
C1234 C 0.62113 0.20528 0.74362 0.0
C1235 C 0.6797 0.17511 0.69139 0.0
C1236 C 0.53475 0.18091 0.8566 0.0
C1237 C 0.55413 0.18526 0.82723 0.0
C1238 C 0.60867 0.17458 0.81587 0.0
C1239 C 0.64685 0.18559 0.71459 0.0
C1240 C 0.63135 0.18863 0.74871 0.0
C1241 C 0.57856 0.18964 0.84061 0.0
C1242 C 0.59772 0.19044 0.80989 0.0
H1243 H 0.64769 0.18193 0.60805 0.0
H1244 H 0.62494 0.18991 0.66386 0.0
H1245 H 0.63217 0.16015 0.79039 0.0
H1246 H 0.56908 0.18768 0.94612 0.0
H1247 H 0.60258 0.19485 0.89487 0.0
C1248 C 0.46533 0.64702 0.66227 0.0
C1249 C 0.4915 0.65498 0.67082 0.0
C1250 C 0.44602 0.63371 0.69258 0.0
C1251 C 0.43521 0.6166 0.80581 0.0
H1252 H 0.37314 0.55488 0.76604 0.0
C1253 C 0.3523 0.5125 0.87694 0.0
C1254 C 0.34753 0.52077 0.91553 0.0
C1255 C 0.36656 0.5306 0.8455 0.0
C1256 C 0.39034 0.57205 0.77764 0.0
H1257 H 0.51817 0.65642 0.71855 0.0
H1258 H 0.48444 0.63286 0.77125 0.0
H1259 H 0.40562 0.5844 0.71569 0.0
H1260 H 0.35228 0.55421 0.95028 0.0
H1261 H 0.37678 0.58568 0.89517 0.0
H1262 H 0.42057 0.60359 0.86785 0.0
C1263 C 0.47882 0.63708 0.74125 0.0
C1264 C 0.40882 0.58915 0.74877 0.0
C1265 C 0.49815 0.65046 0.71096 0.0
C1266 C 0.3559 0.54725 0.92106 0.0
C1267 C 0.37007 0.56532 0.88959 0.0
C1268 C 0.41674 0.59948 0.83468 0.0
C1269 C 0.45246 0.62806 0.73207 0.0
C1270 C 0.43169 0.61138 0.76257 0.0
C1271 C 0.37622 0.5573 0.85194 0.0
C1272 C 0.39431 0.57677 0.82096 0.0
H1273 H 0.45959 0.65045 0.63177 0.0
H1274 H 0.42596 0.62746 0.6848 0.0
H1275 H 0.45246 0.63371 0.81742 0.0
H1276 H 0.34604 0.49222 0.87166 0.0
H1277 H 0.37109 0.52376 0.81699 0.0
C1278 C 0.84011 0.35349 0.86466 0.0
C1279 C 0.84313 0.35781 0.90818 0.0
C1280 C 0.83361 0.36854 0.83924 0.0
C1281 C 0.8435 0.43368 0.83518 0.0
H1282 H 0.79476 0.40773 0.74251 0.0
C1283 C 0.83908 0.50456 0.71682 0.0
C1284 C 0.8378 0.49738 0.67452 0.0
C1285 C 0.83399 0.48641 0.74882 0.0
C1286 C 0.80858 0.41534 0.7681 0.0
H1287 H 0.84035 0.38031 0.95944 0.0
H1288 H 0.82939 0.40671 0.91495 0.0
H1289 H 0.7966 0.37707 0.79137 0.0
H1290 H 0.829 0.46526 0.6326 0.0
H1291 H 0.82107 0.43421 0.68773 0.0
H1292 H 0.85667 0.47178 0.81093 0.0
C1293 C 0.83211 0.39176 0.90056 0.0
C1294 C 0.80952 0.39774 0.79612 0.0
C1295 C 0.83827 0.37654 0.92599 0.0
C1296 C 0.83021 0.4715 0.66487 0.0
C1297 C 0.8254 0.45352 0.69666 0.0
C1298 C 0.84284 0.45126 0.80686 0.0
C1299 C 0.83031 0.38832 0.85687 0.0
C1300 C 0.82729 0.40675 0.82951 0.0
C1301 C 0.82771 0.46081 0.73909 0.0
C1302 C 0.82576 0.44231 0.77241 0.0
H1303 H 0.84358 0.33908 0.85008 0.0
H1304 H 0.83245 0.36557 0.80558 0.0
H1305 H 0.85759 0.44115 0.86043 0.0
H1306 H 0.84459 0.52431 0.7252 0.0
H1307 H 0.83547 0.4926 0.78116 0.0
C1308 C 0.46744 0.1826 0.14022 0.0
C1309 C 0.47127 0.19873 0.10556 0.0
C1310 C 0.46778 0.19093 0.18156 0.0
C1311 C 0.4621 0.24071 0.24512 0.0
H1312 H 0.49127 0.218 0.33275 0.0
C1313 C 0.45263 0.2606 0.42169 0.0
C1314 C 0.47241 0.26416 0.44963 0.0
C1315 C 0.45258 0.25285 0.37996 0.0
C1316 C 0.48327 0.22489 0.30888 0.0
H1317 H 0.47831 0.23702 0.08829 0.0
H1318 H 0.47916 0.25176 0.16008 0.0
H1319 H 0.49185 0.20532 0.26052 0.0
H1320 H 0.50762 0.26229 0.45586 0.0
H1321 H 0.5084 0.24998 0.38293 0.0
H1322 H 0.45373 0.26049 0.29328 0.0
C1323 C 0.47556 0.23222 0.15528 0.0
C1324 C 0.48327 0.21722 0.26715 0.0
C1325 C 0.47519 0.22373 0.11386 0.0
C1326 C 0.49206 0.2596 0.43504 0.0
C1327 C 0.49233 0.25232 0.39311 0.0
C1328 C 0.46201 0.24831 0.28692 0.0
C1329 C 0.47197 0.21596 0.18995 0.0
C1330 C 0.47258 0.22487 0.2345 0.0
C1331 C 0.47253 0.24872 0.36469 0.0
C1332 C 0.47264 0.2406 0.31968 0.0
H1333 H 0.46475 0.16368 0.13567 0.0
H1334 H 0.46454 0.17752 0.20698 0.0
H1335 H 0.45346 0.24692 0.22123 0.0
H1336 H 0.43691 0.2634 0.43234 0.0
H1337 H 0.43661 0.24982 0.35994 0.0
C1338 C 0.17803 0.44301 0.44333 0.0
C1339 C 0.19624 0.45626 0.47525 0.0
C1340 C 0.18617 0.44339 0.40158 0.0
C1341 C 0.24368 0.45444 0.33732 0.0
H1342 H 0.2069 0.46404 0.2451 0.0
C1343 C 0.26617 0.44441 0.16171 0.0
C1344 C 0.26734 0.46301 0.13322 0.0
C1345 C 0.25725 0.44311 0.20317 0.0
C1346 C 0.21751 0.46144 0.27042 0.0
H1347 H 0.23751 0.47891 0.48874 0.0
H1348 H 0.25182 0.47939 0.41647 0.0
H1349 H 0.192 0.46257 0.31728 0.0
H1350 H 0.25867 0.49392 0.12531 0.0
H1351 H 0.24324 0.49186 0.19748 0.0
H1352 H 0.26922 0.45337 0.2905 0.0
C1353 C 0.23111 0.469 0.42325 0.0
C1354 C 0.20877 0.46034 0.31195 0.0
C1355 C 0.2229 0.4688 0.46479 0.0
C1356 C 0.25844 0.47966 0.14673 0.0
C1357 C 0.24944 0.47835 0.1881 0.0
C1358 C 0.25222 0.45522 0.29578 0.0
C1359 C 0.21289 0.45648 0.39079 0.0
C1360 C 0.2218 0.45698 0.34617 0.0
C1361 C 0.24882 0.46014 0.21714 0.0
C1362 C 0.23938 0.45888 0.2616 0.0
H1363 H 0.15752 0.43165 0.45095 0.0
H1364 H 0.17149 0.4329 0.37791 0.0
H1365 H 0.25415 0.45157 0.36257 0.0
H1366 H 0.27171 0.43052 0.15169 0.0
H1367 H 0.25658 0.42845 0.22412 0.0
C1368 C 0.77311 0.229 0.42364 0.0
C1369 C 0.7614 0.20297 0.43712 0.0
C1370 C 0.78213 0.2361 0.38207 0.0
C1371 C 0.77568 0.20865 0.27391 0.0
H1372 H 0.83851 0.27455 0.25123 0.0
C1373 C 0.80694 0.24925 0.10345 0.0
C1374 C 0.83367 0.2634 0.09316 0.0
C1375 C 0.79848 0.24151 0.14505 0.0
C1376 C 0.82103 0.25595 0.25681 0.0
H1377 H 0.75165 0.16431 0.41789 0.0
H1378 H 0.76707 0.17644 0.34542 0.0
H1379 H 0.82361 0.26195 0.3235 0.0
H1380 H 0.87229 0.27887 0.11885 0.0
H1381 H 0.85782 0.26577 0.19141 0.0
H1382 H 0.77324 0.20251 0.20728 0.0
C1383 C 0.76874 0.19142 0.36659 0.0
C1384 C 0.81225 0.24882 0.2985 0.0
C1385 C 0.75985 0.18438 0.40826 0.0
C1386 C 0.85167 0.26875 0.12566 0.0
C1387 C 0.84325 0.26115 0.16743 0.0
C1388 C 0.78439 0.21584 0.23221 0.0
C1389 C 0.77996 0.21742 0.35264 0.0
C1390 C 0.78941 0.22503 0.30787 0.0
C1391 C 0.81646 0.24749 0.17797 0.0
C1392 C 0.80726 0.23963 0.22282 0.0
H1393 H 0.77486 0.24389 0.4451 0.0
H1394 H 0.7904 0.25626 0.37284 0.0
H1395 H 0.75789 0.19032 0.27943 0.0
H1396 H 0.79242 0.24466 0.07936 0.0
H1397 H 0.77773 0.23131 0.15148 0.0
C1398 C 0.55174 0.78033 0.1285 0.0
C1399 C 0.54725 0.80102 0.12036 0.0
C1400 C 0.55105 0.7714 0.16966 0.0
C1401 C 0.53193 0.7777 0.281 0.0
H1402 H 0.573 0.74596 0.30851 0.0
C1403 C 0.53006 0.7396 0.44983 0.0
C1404 C 0.55157 0.73815 0.46422 0.0
C1405 C 0.52874 0.74614 0.40789 0.0
C1406 C 0.56175 0.75525 0.30194 0.0
H1407 H 0.53637 0.82653 0.15001 0.0
H1408 H 0.53816 0.81377 0.22116 0.0
H1409 H 0.57279 0.75975 0.23724 0.0
H1410 H 0.58919 0.74366 0.44686 0.0
H1411 H 0.58791 0.7566 0.37465 0.0
H1412 H 0.52232 0.77489 0.34609 0.0
C1413 C 0.54171 0.80375 0.19601 0.0
C1414 C 0.56115 0.76272 0.26028 0.0
C1415 C 0.5417 0.81207 0.15479 0.0
C1416 C 0.57216 0.74419 0.43628 0.0
C1417 C 0.57123 0.75144 0.39461 0.0
C1418 C 0.53304 0.77082 0.32278 0.0
C1419 C 0.54634 0.78317 0.20442 0.0
C1420 C 0.54634 0.77426 0.24894 0.0
C1421 C 0.54935 0.75229 0.37935 0.0
C1422 C 0.54803 0.75951 0.33423 0.0
H1423 H 0.55569 0.77082 0.10295 0.0
H1424 H 0.55396 0.75503 0.17389 0.0
H1425 H 0.51959 0.78574 0.27416 0.0
H1426 H 0.51383 0.73486 0.47074 0.0
H1427 H 0.51116 0.74572 0.39788 0.0
C1428 C 0.82886 0.55977 0.42535 0.0
C1429 C 0.8107 0.54767 0.45808 0.0
C1430 C 0.82075 0.55862 0.38354 0.0
C1431 C 0.76505 0.5498 0.31888 0.0
H1432 H 0.79885 0.53411 0.22863 0.0
C1433 C 0.7477 0.56231 0.14257 0.0
C1434 C 0.74283 0.5418 0.11536 0.0
C1435 C 0.75629 0.56295 0.18389 0.0
C1436 C 0.78914 0.53845 0.25343 0.0
H1437 H 0.76932 0.52582 0.47211 0.0
H1438 H 0.75511 0.52443 0.39962 0.0
H1439 H 0.81287 0.53535 0.30134 0.0
H1440 H 0.74483 0.50669 0.10939 0.0
H1441 H 0.75984 0.50768 0.18159 0.0
H1442 H 0.74154 0.55321 0.27098 0.0
C1443 C 0.77582 0.53445 0.40617 0.0
C1444 C 0.79732 0.53936 0.29517 0.0
C1445 C 0.784 0.53523 0.44786 0.0
C1446 C 0.74797 0.52252 0.12984 0.0
C1447 C 0.75667 0.52317 0.17119 0.0
C1448 C 0.75718 0.54933 0.27711 0.0
C1449 C 0.79407 0.54594 0.37325 0.0
C1450 C 0.78536 0.54499 0.32859 0.0
C1451 C 0.76061 0.54322 0.19905 0.0
C1452 C 0.76906 0.54361 0.2437 0.0
H1453 H 0.84939 0.57028 0.43201 0.0
H1454 H 0.83543 0.56814 0.35932 0.0
H1455 H 0.75547 0.55436 0.34361 0.0
H1456 H 0.74489 0.57796 0.13186 0.0
H1457 H 0.75962 0.57899 0.20398 0.0
C1458 C 0.19937 0.74699 0.1456 0.0
C1459 C 0.21644 0.74582 0.1163 0.0
C1460 C 0.20698 0.75408 0.18745 0.0
C1461 C 0.25586 0.76046 0.26755 0.0
H1462 H 0.23238 0.80206 0.32573 0.0
C1463 C 0.27393 0.78323 0.4469 0.0
C1464 C 0.28029 0.80829 0.45998 0.0
C1465 C 0.26586 0.77499 0.40542 0.0
C1466 C 0.23933 0.79058 0.31007 0.0
H1467 H 0.25529 0.75203 0.10758 0.0
H1468 H 0.26881 0.76458 0.18062 0.0
H1469 H 0.22009 0.78993 0.25297 0.0
H1470 H 0.28147 0.84363 0.44062 0.0
H1471 H 0.26805 0.82979 0.36844 0.0
H1472 H 0.27543 0.76146 0.32467 0.0
C1473 C 0.24924 0.75949 0.17159 0.0
C1474 C 0.23196 0.7833 0.26821 0.0
C1475 C 0.2416 0.75251 0.12958 0.0
C1476 C 0.27736 0.8245 0.43119 0.0
C1477 C 0.26926 0.81631 0.38985 0.0
C1478 C 0.2631 0.76759 0.30962 0.0
C1479 C 0.23203 0.7604 0.20125 0.0
C1480 C 0.24012 0.76816 0.24614 0.0
C1481 C 0.26353 0.79148 0.37609 0.0
C1482 C 0.25513 0.78298 0.33151 0.0
H1483 H 0.18015 0.74269 0.136 0.0
H1484 H 0.193 0.75423 0.20912 0.0
H1485 H 0.26238 0.74859 0.25197 0.0
H1486 H 0.27565 0.77015 0.46856 0.0
H1487 H 0.26118 0.75557 0.39651 0.0
C1488 C 0.5623 0.73007 0.65272 0.0
C1489 C 0.55106 0.7366 0.61969 0.0
C1490 C 0.5618 0.73776 0.69442 0.0
C1491 C 0.53163 0.76796 0.76374 0.0
H1492 H 0.58427 0.77422 0.84185 0.0
C1493 C 0.52711 0.79143 0.94094 0.0
C1494 C 0.55014 0.80394 0.96464 0.0
C1495 C 0.52724 0.78352 0.89928 0.0
C1496 C 0.56953 0.77306 0.82066 0.0
H1497 H 0.53151 0.75804 0.60528 0.0
H1498 H 0.53171 0.77259 0.6766 0.0
H1499 H 0.58505 0.76124 0.77022 0.0
H1500 H 0.59135 0.81721 0.96329 0.0
H1501 H 0.59217 0.80498 0.89045 0.0
H1502 H 0.51703 0.78126 0.81349 0.0
C1503 C 0.53991 0.76024 0.67123 0.0
C1504 C 0.56966 0.76496 0.7791 0.0
C1505 C 0.54003 0.75205 0.62972 0.0
C1506 C 0.57333 0.8081 0.9457 0.0
C1507 C 0.57362 0.80061 0.90378 0.0
C1508 C 0.53178 0.77651 0.80509 0.0
C1509 C 0.55069 0.75318 0.70473 0.0
C1510 C 0.55064 0.76208 0.74962 0.0
C1511 C 0.55053 0.78795 0.87959 0.0
C1512 C 0.55065 0.77915 0.83466 0.0
H1513 H 0.57189 0.71932 0.64632 0.0
H1514 H 0.57017 0.7314 0.71848 0.0
H1515 H 0.51624 0.76576 0.74306 0.0
H1516 H 0.50878 0.78735 0.95494 0.0
H1517 H 0.5088 0.77338 0.883 0.0
C1518 C 0.82563 0.56563 0.64392 0.0
C1519 C 0.80994 0.54654 0.6144 0.0
C1520 C 0.81706 0.56476 0.68562 0.0
C1521 C 0.76733 0.52028 0.76563 0.0
H1522 H 0.78647 0.58473 0.82324 0.0
C1523 C 0.74612 0.52298 0.94529 0.0
C1524 C 0.73933 0.54116 0.95962 0.0
C1525 C 0.75407 0.52324 0.90336 0.0
C1526 C 0.78067 0.56643 0.80777 0.0
H1527 H 0.77226 0.51192 0.60595 0.0
H1528 H 0.75722 0.5103 0.67821 0.0
H1529 H 0.80111 0.58586 0.75125 0.0
H1530 H 0.73699 0.57475 0.94048 0.0
H1531 H 0.7503 0.5751 0.86773 0.0
H1532 H 0.74661 0.50085 0.822 0.0
C1533 C 0.77653 0.5258 0.66958 0.0
C1534 C 0.78944 0.5671 0.76626 0.0
C1535 C 0.7851 0.5268 0.62782 0.0
C1536 C 0.74134 0.56 0.93069 0.0
C1537 C 0.74939 0.56038 0.88878 0.0
C1538 C 0.75868 0.51961 0.80724 0.0
C1539 C 0.79232 0.54481 0.69941 0.0
C1540 C 0.78295 0.54404 0.74423 0.0
C1541 C 0.75597 0.54201 0.87417 0.0
C1542 C 0.76514 0.54268 0.82923 0.0
H1543 H 0.84449 0.58152 0.63477 0.0
H1544 H 0.83006 0.57975 0.70716 0.0
H1545 H 0.76199 0.50201 0.75041 0.0
H1546 H 0.74526 0.50839 0.96664 0.0
H1547 H 0.75929 0.50897 0.89413 0.0
C1548 C 0.28286 0.82941 0.64452 0.0
C1549 C 0.28408 0.81228 0.6154 0.0
C1550 C 0.27469 0.82162 0.6864 0.0
C1551 C 0.26314 0.76984 0.76651 0.0
H1552 H 0.22389 0.7961 0.82487 0.0
C1553 C 0.23894 0.75062 0.94569 0.0
C1554 C 0.21481 0.7465 0.96056 0.0
C1555 C 0.24688 0.75813 0.90377 0.0
C1556 C 0.23463 0.78832 0.80913 0.0
H1557 H 0.27657 0.77299 0.60782 0.0
H1558 H 0.26219 0.75931 0.68001 0.0
H1559 H 0.23851 0.80994 0.75286 0.0
H1560 H 0.18067 0.74834 0.94297 0.0
H1561 H 0.19423 0.76121 0.86986 0.0
H1562 H 0.25881 0.74781 0.82245 0.0
C1563 C 0.26822 0.77912 0.67115 0.0
C1564 C 0.24342 0.79661 0.76766 0.0
C1565 C 0.27636 0.78694 0.62938 0.0
C1566 C 0.19914 0.75084 0.93247 0.0
C1567 C 0.20712 0.7585 0.89049 0.0
C1568 C 0.25441 0.76161 0.80798 0.0
C1569 C 0.26714 0.79626 0.70061 0.0
C1570 C 0.25788 0.78757 0.74544 0.0
C1571 C 0.23116 0.76225 0.87523 0.0
C1572 C 0.24004 0.77072 0.83024 0.0
H1573 H 0.28789 0.8488 0.63488 0.0
H1574 H 0.27444 0.83563 0.70769 0.0
H1575 H 0.27437 0.76247 0.75118 0.0
H1576 H 0.25169 0.7478 0.96654 0.0
H1577 H 0.26569 0.76118 0.894 0.0
C1578 C 0.48395 0.25062 0.61629 0.0
C1579 C 0.47207 0.26522 0.60557 0.0
C1580 C 0.48389 0.24257 0.65796 0.0
C1581 C 0.4785 0.25771 0.76937 0.0
H1582 H 0.46147 0.18681 0.79184 0.0
C1583 C 0.49335 0.22265 0.93438 0.0
C1584 C 0.4728 0.19882 0.94954 0.0
C1585 C 0.49339 0.23084 0.89272 0.0
C1586 C 0.46628 0.20669 0.78624 0.0
H1587 H 0.44906 0.2808 0.63113 0.0
H1588 H 0.45034 0.26833 0.70398 0.0
H1589 H 0.46122 0.2008 0.71949 0.0
H1590 H 0.43498 0.16651 0.9337 0.0
H1591 H 0.43578 0.17948 0.86039 0.0
H1592 H 0.48403 0.26373 0.83609 0.0
C1593 C 0.46008 0.26342 0.67999 0.0
C1594 C 0.46628 0.21479 0.74458 0.0
C1595 C 0.45964 0.27096 0.63806 0.0
C1596 C 0.45199 0.18382 0.9222 0.0
C1597 C 0.45224 0.19166 0.88032 0.0
C1598 C 0.47907 0.24978 0.81096 0.0
C1599 C 0.47215 0.249 0.69067 0.0
C1600 C 0.47225 0.24041 0.73539 0.0
C1601 C 0.47292 0.21538 0.86482 0.0
C1602 C 0.47283 0.22408 0.82017 0.0
H1603 H 0.49349 0.24545 0.59234 0.0
H1604 H 0.49344 0.23157 0.66467 0.0
H1605 H 0.48337 0.27761 0.76373 0.0
H1606 H 0.50947 0.23498 0.95479 0.0
H1607 H 0.50966 0.24921 0.88219 0.0
C1608 C 0.19527 0.43603 0.64938 0.0
C1609 C 0.19762 0.45857 0.63089 0.0
C1610 C 0.20248 0.43591 0.69157 0.0
C1611 C 0.22285 0.47687 0.79176 0.0
H1612 H 0.24196 0.42653 0.82668 0.0
C1613 C 0.25062 0.47253 0.96716 0.0
C1614 C 0.26668 0.46219 0.97731 0.0
C1615 C 0.24156 0.47155 0.92586 0.0
C1616 C 0.23719 0.44116 0.81791 0.0
H1617 H 0.21133 0.49922 0.64175 0.0
H1618 H 0.22472 0.49958 0.71414 0.0
H1619 H 0.22902 0.4267 0.75499 0.0
H1620 H 0.28369 0.44086 0.95102 0.0
H1621 H 0.27036 0.441 0.87933 0.0
H1622 H 0.23256 0.49241 0.85389 0.0
C1623 C 0.216 0.48135 0.69733 0.0
C1624 C 0.22907 0.44089 0.77618 0.0
C1625 C 0.20826 0.48125 0.65541 0.0
C1626 C 0.27265 0.45021 0.94463 0.0
C1627 C 0.26417 0.44971 0.90307 0.0
C1628 C 0.23146 0.47748 0.83327 0.0
C1629 C 0.21318 0.45862 0.71662 0.0
C1630 C 0.2217 0.45875 0.76196 0.0
C1631 C 0.24832 0.46035 0.89251 0.0
C1632 C 0.23888 0.45964 0.84752 0.0
H1633 H 0.18717 0.41819 0.63144 0.0
H1634 H 0.19925 0.41771 0.70448 0.0
H1635 H 0.21694 0.49073 0.78336 0.0
H1636 H 0.24495 0.48148 0.99136 0.0
H1637 H 0.22888 0.47936 0.92057 0.0
C1638 C 0.75322 0.18533 0.62498 0.0
C1639 C 0.75814 0.20367 0.59314 0.0
C1640 C 0.76154 0.19304 0.66671 0.0
C1641 C 0.78976 0.25194 0.73961 0.0
H1642 H 0.80262 0.20708 0.81119 0.0
C1643 C 0.81687 0.27702 0.91748 0.0
C1644 C 0.83224 0.26843 0.93754 0.0
C1645 C 0.80794 0.26941 0.87595 0.0
C1646 C 0.79955 0.22023 0.79184 0.0
H1647 H 0.77739 0.24504 0.58077 0.0
H1648 H 0.79278 0.25859 0.65224 0.0
H1649 H 0.78817 0.19407 0.73969 0.0
H1650 H 0.84953 0.24435 0.92981 0.0
H1651 H 0.83496 0.23174 0.85754 0.0
H1652 H 0.80234 0.27865 0.7912 0.0
C1653 C 0.78133 0.23796 0.6459 0.0
C1654 C 0.79064 0.21241 0.75039 0.0
C1655 C 0.77264 0.23016 0.60435 0.0
C1656 C 0.83799 0.25159 0.91518 0.0
C1657 C 0.82928 0.24412 0.87355 0.0
C1658 C 0.79896 0.2599 0.78093 0.0
C1659 C 0.7759 0.21959 0.67825 0.0
C1660 C 0.78547 0.22803 0.72319 0.0
C1661 C 0.81392 0.25274 0.85291 0.0
C1662 C 0.80406 0.24423 0.80814 0.0
H1663 H 0.74326 0.16489 0.61768 0.0
H1664 H 0.75651 0.17792 0.68989 0.0
H1665 H 0.7858 0.26465 0.72074 0.0
H1666 H 0.81141 0.28938 0.93419 0.0
H1667 H 0.7958 0.27624 0.86241 0.0
loop_
_geom_bond_atom_site_label_1
_geom_bond_atom_site_label_2
_geom_bond_distance
_geom_bond_site_symmetry_2
_ccdc_geom_bond_type
Zn0 N4 2.020 . S
Zn0 O8 2.019 . S
Zn0 N10 2.119 . S
Zn0 O18 1.975 . S
C1 N2 1.334 . S
C1 N5 1.336 . S
N2 C1 1.334 . S
N2 C3 1.333 1_554 S
C3 N2 1.333 1_556 S
C3 N4 1.336 . S
N4 Zn0 2.020 . S
N4 C3 1.336 . S
N4 N5 1.354 1_556 S
N5 C1 1.336 . S
N5 N4 1.354 1_554 S
N5 Zn9 2.020 . S
C6 O7 1.244 . S
C6 O30 1.257 . S
O7 C6 1.244 . S
O8 Zn0 2.019 . S
O8 C28 1.257 . S
Zn9 N5 2.020 . S
Zn9 O16 1.975 . S
Zn9 N25 2.119 . S
Zn9 O30 2.019 . S
N10 Zn0 2.119 . S
N10 C12 1.334 . S
N10 C13 1.328 . S
C11 C12 1.391 . S
C11 N14 1.329 . S
C11 H32 0.930 . S
C12 N10 1.334 . S
C12 C11 1.391 . S
C12 H19 0.930 . S
C13 N10 1.328 . S
C13 C15 1.392 . S
C13 H20 0.930 . S
N14 C11 1.329 . S
N14 C15 1.331 . S
C15 C13 1.392 . S
C15 N14 1.331 . S
O16 Zn9 1.975 . S
O16 C17 1.252 . S
C17 O16 1.252 . S
C17 O18 1.252 1_554 S
O18 Zn0 1.975 . S
O18 C17 1.252 1_556 S
H19 C12 0.930 . S
H20 C13 0.930 . S
C21 C22 1.392 . S
C21 N25 1.328 . S
C21 H27 0.930 . S
C22 C21 1.392 . S
C22 N26 1.331 . S
C23 C24 1.391 . S
C23 N26 1.329 . S
C23 H33 0.930 . S
C24 C23 1.391 . S
C24 N25 1.334 . S
C24 H31 0.930 . S
N25 Zn9 2.119 . S
N25 C21 1.328 . S
N25 C24 1.334 . S
N26 C22 1.331 . S
N26 C23 1.329 . S
H27 C21 0.930 . S
C28 O8 1.257 . S
C28 O29 1.244 . S
O29 C28 1.244 . S
O30 C6 1.257 . S
O30 Zn9 2.019 . S
H31 C24 0.930 . S
H32 C11 0.930 . S
H33 C23 0.930 . S
Zn34 N38 2.020 . S
Zn34 O42 2.019 . S
Zn34 N44 2.119 . S
Zn34 O52 1.975 . S
C35 N36 1.334 . S
C35 N39 1.336 . S
N36 C35 1.334 . S
N36 C37 1.333 1_554 S
C37 N36 1.333 1_556 S
C37 N38 1.336 . S
N38 Zn34 2.020 . S
N38 C37 1.336 . S
N38 N39 1.354 1_556 S
N39 C35 1.336 . S
N39 N38 1.354 1_554 S
N39 Zn43 2.020 . S
C40 O41 1.244 . S
C40 O64 1.257 . S
O41 C40 1.244 . S
O42 Zn34 2.019 . S
O42 C62 1.257 . S
Zn43 N39 2.020 . S
Zn43 O50 1.975 . S
Zn43 N59 2.119 . S
Zn43 O64 2.019 . S
N44 Zn34 2.119 . S
N44 C46 1.334 . S
N44 C47 1.328 . S
C45 C46 1.391 . S
C45 N48 1.329 . S
C45 H66 0.930 . S
C46 N44 1.334 . S
C46 C45 1.391 . S
C46 H53 0.930 . S
C47 N44 1.328 . S
C47 C49 1.392 . S
C47 H54 0.930 . S
N48 C45 1.329 . S
N48 C49 1.331 . S
C49 C47 1.392 . S
C49 N48 1.331 . S
O50 Zn43 1.975 . S
O50 C51 1.252 . S
C51 O50 1.252 . S
C51 O52 1.252 1_554 S
O52 Zn34 1.975 . S
O52 C51 1.252 1_556 S
H53 C46 0.930 . S
H54 C47 0.930 . S
C55 C56 1.392 . S
C55 N59 1.328 . S
C55 H61 0.930 . S
C56 C55 1.392 . S
C56 N60 1.331 . S
C57 C58 1.391 . S
C57 N60 1.329 . S
C57 H67 0.930 . S
C58 C57 1.391 . S
C58 N59 1.334 . S
C58 H65 0.930 . S
N59 Zn43 2.119 . S
N59 C55 1.328 . S
N59 C58 1.334 . S
N60 C56 1.331 . S
N60 C57 1.329 . S
H61 C55 0.930 . S
C62 O42 1.257 . S
C62 O63 1.244 . S
O63 C62 1.244 . S
O64 C40 1.257 . S
O64 Zn43 2.019 . S
H65 C58 0.930 . S
H66 C45 0.930 . S
H67 C57 0.930 . S
Zn68 N72 2.020 . S
Zn68 O76 2.019 . S
Zn68 N78 2.119 . S
Zn68 O86 1.975 . S
C69 N70 1.334 . S
C69 N73 1.336 . S
N70 C69 1.334 . S
N70 C71 1.333 1_554 S
C71 N70 1.333 1_556 S
C71 N72 1.336 . S
N72 Zn68 2.020 . S
N72 C71 1.336 . S
N72 N73 1.354 1_556 S
N73 C69 1.336 . S
N73 N72 1.354 1_554 S
N73 Zn77 2.020 . S
C74 O75 1.244 . S
C74 O98 1.257 . S
O75 C74 1.244 . S
O76 Zn68 2.019 . S
O76 C96 1.257 . S
Zn77 N73 2.020 . S
Zn77 O84 1.975 . S
Zn77 N93 2.119 . S
Zn77 O98 2.019 . S
N78 Zn68 2.119 . S
N78 C80 1.334 . S
N78 C81 1.328 . S
C79 C80 1.391 . S
C79 N82 1.329 . S
C79 H100 0.930 . S
C80 N78 1.334 . S
C80 C79 1.391 . S
C80 H87 0.930 . S
C81 N78 1.328 . S
C81 C83 1.392 . S
C81 H88 0.930 . S
N82 C79 1.329 . S
N82 C83 1.331 . S
C83 C81 1.392 . S
C83 N82 1.331 . S
O84 Zn77 1.975 . S
O84 C85 1.252 . S
C85 O84 1.252 . S
C85 O86 1.252 1_554 S
O86 Zn68 1.975 . S
O86 C85 1.252 1_556 S
H87 C80 0.930 . S
H88 C81 0.930 . S
C89 C90 1.392 . S
C89 N93 1.328 . S
C89 H95 0.930 . S
C90 C89 1.392 . S
C90 N94 1.331 . S
C91 C92 1.391 . S
C91 N94 1.329 . S
C91 H101 0.930 . S
C92 C91 1.391 . S
C92 N93 1.334 . S
C92 H99 0.930 . S
N93 Zn77 2.119 . S
N93 C89 1.328 . S
N93 C92 1.334 . S
N94 C90 1.331 . S
N94 C91 1.329 . S
H95 C89 0.930 . S
C96 O76 1.257 . S
C96 O97 1.244 . S
O97 C96 1.244 . S
O98 C74 1.257 . S
O98 Zn77 2.019 . S
H99 C92 0.930 . S
H100 C79 0.930 . S
H101 C91 0.930 . S
Zn102 N106 2.020 . S
Zn102 O110 2.019 . S
Zn102 N112 2.119 . S
Zn102 O120 1.975 . S
C103 N104 1.333 1_556 S
C103 N107 1.336 . S
N104 C103 1.333 1_554 S
N104 C105 1.334 . S
C105 N104 1.334 . S
C105 N106 1.336 . S
N106 Zn102 2.020 . S
N106 C105 1.336 . S
N106 N107 1.354 1_554 S
N107 C103 1.336 . S
N107 N106 1.354 1_556 S
N107 Zn111 2.020 . S
C108 O109 1.244 . S
C108 O132 1.257 . S
O109 C108 1.244 . S
O110 Zn102 2.019 . S
O110 C130 1.257 . S
Zn111 N107 2.020 . S
Zn111 O118 1.975 . S
Zn111 N127 2.119 . S
Zn111 O132 2.019 . S
N112 Zn102 2.119 . S
N112 C114 1.334 . S
N112 C115 1.328 . S
C113 C114 1.391 . S
C113 N116 1.329 . S
C113 H134 0.930 . S
C114 N112 1.334 . S
C114 C113 1.391 . S
C114 H121 0.930 . S
C115 N112 1.328 . S
C115 C117 1.392 . S
C115 H122 0.930 . S
N116 C113 1.329 . S
N116 C117 1.331 . S
C117 C115 1.392 . S
C117 N116 1.331 . S
O118 Zn111 1.975 . S
O118 C119 1.252 1_556 S
C119 O118 1.252 1_554 S
C119 O120 1.252 . S
O120 Zn102 1.975 . S
O120 C119 1.252 . S
H121 C114 0.930 . S
H122 C115 0.930 . S
C123 C124 1.392 . S
C123 N127 1.328 . S
C123 H129 0.930 . S
C124 C123 1.392 . S
C124 N128 1.331 . S
C125 C126 1.391 . S
C125 N128 1.329 . S
C125 H135 0.930 . S
C126 C125 1.391 . S
C126 N127 1.334 . S
C126 H133 0.930 . S
N127 Zn111 2.119 . S
N127 C123 1.328 . S
N127 C126 1.334 . S
N128 C124 1.331 . S
N128 C125 1.329 . S
H129 C123 0.930 . S
C130 O110 1.257 . S
C130 O131 1.244 . S
O131 C130 1.244 . S
O132 C108 1.257 . S
O132 Zn111 2.019 . S
H133 C126 0.930 . S
H134 C113 0.930 . S
H135 C125 0.930 . S
Zn136 N140 2.020 . S
Zn136 O144 2.019 . S
Zn136 N146 2.119 . S
Zn136 O154 1.975 . S
C137 N138 1.334 . S
C137 N141 1.336 . S
N138 C137 1.334 . S
N138 C139 1.333 1_554 S
C139 N138 1.333 1_556 S
C139 N140 1.336 . S
N140 Zn136 2.020 . S
N140 C139 1.336 . S
N140 N141 1.354 1_556 S
N141 C137 1.336 . S
N141 N140 1.354 1_554 S
N141 Zn145 2.020 . S
C142 O143 1.244 . S
C142 O166 1.257 . S
O143 C142 1.244 . S
O144 Zn136 2.019 . S
O144 C164 1.257 . S
Zn145 N141 2.020 . S
Zn145 O152 1.975 . S
Zn145 N161 2.119 . S
Zn145 O166 2.019 . S
N146 Zn136 2.119 . S
N146 C148 1.334 . S
N146 C149 1.328 . S
C147 C148 1.391 . S
C147 N150 1.329 . S
C147 H168 0.930 . S
C148 N146 1.334 . S
C148 C147 1.391 . S
C148 H155 0.930 . S
C149 N146 1.328 . S
C149 C151 1.392 . S
C149 H156 0.930 . S
N150 C147 1.329 . S
N150 C151 1.331 . S
C151 C149 1.392 . S
C151 N150 1.331 . S
O152 Zn145 1.975 . S
O152 C153 1.252 . S
C153 O152 1.252 . S
C153 O154 1.252 1_554 S
O154 Zn136 1.975 . S
O154 C153 1.252 1_556 S
H155 C148 0.930 . S
H156 C149 0.930 . S
C157 C158 1.392 . S
C157 N161 1.328 . S
C157 H163 0.930 . S
C158 C157 1.392 . S
C158 N162 1.331 . S
C159 C160 1.391 . S
C159 N162 1.329 . S
C159 H169 0.930 . S
C160 C159 1.391 . S
C160 N161 1.334 . S
C160 H167 0.930 . S
N161 Zn145 2.119 . S
N161 C157 1.328 . S
N161 C160 1.334 . S
N162 C158 1.331 . S
N162 C159 1.329 . S
H163 C157 0.930 . S
C164 O144 1.257 . S
C164 O165 1.244 . S
O165 C164 1.244 . S
O166 C142 1.257 . S
O166 Zn145 2.019 . S
H167 C160 0.930 . S
H168 C147 0.930 . S
H169 C159 0.930 . S
Zn170 N174 2.020 . S
Zn170 O178 2.019 . S
Zn170 N180 2.119 . S
Zn170 O188 1.975 . S
C171 N172 1.333 1_556 S
C171 N175 1.336 . S
N172 C171 1.333 1_554 S
N172 C173 1.334 . S
C173 N172 1.334 . S
C173 N174 1.336 . S
N174 Zn170 2.020 . S
N174 C173 1.336 . S
N174 N175 1.354 1_554 S
N175 C171 1.336 . S
N175 N174 1.354 1_556 S
N175 Zn179 2.020 . S
C176 O177 1.244 . S
C176 O200 1.257 . S
O177 C176 1.244 . S
O178 Zn170 2.019 . S
O178 C198 1.257 . S
Zn179 N175 2.020 . S
Zn179 O186 1.975 . S
Zn179 N195 2.119 . S
Zn179 O200 2.019 . S
N180 Zn170 2.119 . S
N180 C182 1.334 . S
N180 C183 1.328 . S
C181 C182 1.391 . S
C181 N184 1.329 . S
C181 H202 0.930 . S
C182 N180 1.334 . S
C182 C181 1.391 . S
C182 H189 0.930 . S
C183 N180 1.328 . S
C183 C185 1.392 . S
C183 H190 0.930 . S
N184 C181 1.329 . S
N184 C185 1.331 . S
C185 C183 1.392 . S
C185 N184 1.331 . S
O186 Zn179 1.975 . S
O186 C187 1.252 1_556 S
C187 O186 1.252 1_554 S
C187 O188 1.252 . S
O188 Zn170 1.975 . S
O188 C187 1.252 . S
H189 C182 0.930 . S
H190 C183 0.930 . S
C191 C192 1.392 . S
C191 N195 1.328 . S
C191 H197 0.930 . S
C192 C191 1.392 . S
C192 N196 1.331 . S
C193 C194 1.391 . S
C193 N196 1.329 . S
C193 H203 0.930 . S
C194 C193 1.391 . S
C194 N195 1.334 . S
C194 H201 0.930 . S
N195 Zn179 2.119 . S
N195 C191 1.328 . S
N195 C194 1.334 . S
N196 C192 1.331 . S
N196 C193 1.329 . S
H197 C191 0.930 . S
C198 O178 1.257 . S
C198 O199 1.244 . S
O199 C198 1.244 . S
O200 C176 1.257 . S
O200 Zn179 2.019 . S
H201 C194 0.930 . S
H202 C181 0.930 . S
H203 C193 0.930 . S
Zn204 N208 2.020 . S
Zn204 O212 2.019 . S
Zn204 N214 2.119 . S
Zn204 O222 1.975 . S
C205 N206 1.334 . S
C205 N209 1.336 . S
N206 C205 1.334 . S
N206 C207 1.334 . S
C207 N206 1.334 . S
C207 N208 1.336 . S
N208 Zn204 2.020 . S
N208 C207 1.336 . S
N208 N209 1.354 . S
N209 C205 1.336 . S
N209 N208 1.354 . S
N209 Zn213 2.020 . S
C210 O211 1.244 . S
C210 O234 1.257 . S
O211 C210 1.244 . S
O212 Zn204 2.019 . S
O212 C232 1.257 . S
Zn213 N209 2.020 . S
Zn213 O220 1.975 . S
Zn213 N229 2.119 . S
Zn213 O234 2.019 . S
N214 Zn204 2.119 . S
N214 C216 1.334 . S
N214 C217 1.328 . S
C215 C216 1.391 . S
C215 N218 1.329 . S
C215 H236 0.930 . S
C216 N214 1.334 . S
C216 C215 1.391 . S
C216 H223 0.930 . S
C217 N214 1.328 . S
C217 C219 1.392 . S
C217 H224 0.930 . S
N218 C215 1.329 . S
N218 C219 1.331 . S
C219 C217 1.392 . S
C219 N218 1.331 . S
O220 Zn213 1.975 . S
O220 C221 1.252 . S
C221 O220 1.252 . S
C221 O222 1.252 . S
O222 Zn204 1.975 . S
O222 C221 1.252 . S
H223 C216 0.930 . S
H224 C217 0.930 . S
C225 C226 1.392 . S
C225 N229 1.328 . S
C225 H231 0.930 . S
C226 C225 1.392 . S
C226 N230 1.331 . S
C227 C228 1.391 . S
C227 N230 1.329 . S
C227 H237 0.930 . S
C228 C227 1.391 . S
C228 N229 1.334 . S
C228 H235 0.930 . S
N229 Zn213 2.119 . S
N229 C225 1.328 . S
N229 C228 1.334 . S
N230 C226 1.331 . S
N230 C227 1.329 . S
H231 C225 0.930 . S
C232 O212 1.257 . S
C232 O233 1.244 . S
O233 C232 1.244 . S
O234 C210 1.257 . S
O234 Zn213 2.019 . S
H235 C228 0.930 . S
H236 C215 0.930 . S
H237 C227 0.930 . S
Zn238 N242 2.020 . S
Zn238 O246 2.019 . S
Zn238 N248 2.119 . S
Zn238 O256 1.975 . S
C239 N240 1.334 . S
C239 N243 1.336 . S
N240 C239 1.334 . S
N240 C241 1.334 . S
C241 N240 1.334 . S
C241 N242 1.336 . S
N242 Zn238 2.020 . S
N242 C241 1.336 . S
N242 N243 1.354 . S
N243 C239 1.336 . S
N243 N242 1.354 . S
N243 Zn247 2.020 . S
C244 O245 1.244 . S
C244 O268 1.257 . S
O245 C244 1.244 . S
O246 Zn238 2.019 . S
O246 C266 1.257 . S
Zn247 N243 2.020 . S
Zn247 O254 1.975 . S
Zn247 N263 2.119 . S
Zn247 O268 2.019 . S
N248 Zn238 2.119 . S
N248 C250 1.334 . S
N248 C251 1.328 . S
C249 C250 1.391 . S
C249 N252 1.329 . S
C249 H270 0.930 . S
C250 N248 1.334 . S
C250 C249 1.391 . S
C250 H257 0.930 . S
C251 N248 1.328 . S
C251 C253 1.392 . S
C251 H258 0.930 . S
N252 C249 1.329 . S
N252 C253 1.331 . S
C253 C251 1.392 . S
C253 N252 1.331 . S
O254 Zn247 1.975 . S
O254 C255 1.252 . S
C255 O254 1.252 . S
C255 O256 1.252 . S
O256 Zn238 1.975 . S
O256 C255 1.252 . S
H257 C250 0.930 . S
H258 C251 0.930 . S
C259 C260 1.392 . S
C259 N263 1.328 . S
C259 H265 0.930 . S
C260 C259 1.392 . S
C260 N264 1.331 . S
C261 C262 1.391 . S
C261 N264 1.329 . S
C261 H271 0.930 . S
C262 C261 1.391 . S
C262 N263 1.334 . S
C262 H269 0.930 . S
N263 Zn247 2.119 . S
N263 C259 1.328 . S
N263 C262 1.334 . S
N264 C260 1.331 . S
N264 C261 1.329 . S
H265 C259 0.930 . S
C266 O246 1.257 . S
C266 O267 1.244 . S
O267 C266 1.244 . S
O268 C244 1.257 . S
O268 Zn247 2.019 . S
H269 C262 0.930 . S
H270 C249 0.930 . S
H271 C261 0.930 . S
Zn272 N276 2.020 . S
Zn272 O280 2.019 . S
Zn272 N282 2.119 . S
Zn272 O290 1.975 . S
C273 N274 1.334 . S
C273 N277 1.336 . S
N274 C273 1.334 . S
N274 C275 1.334 . S
C275 N274 1.334 . S
C275 N276 1.336 . S
N276 Zn272 2.020 . S
N276 C275 1.336 . S
N276 N277 1.354 . S
N277 C273 1.336 . S
N277 N276 1.354 . S
N277 Zn281 2.020 . S
C278 O279 1.244 . S
C278 O302 1.257 . S
O279 C278 1.244 . S
O280 Zn272 2.019 . S
O280 C300 1.257 . S
Zn281 N277 2.020 . S
Zn281 O288 1.975 . S
Zn281 N297 2.119 . S
Zn281 O302 2.019 . S
N282 Zn272 2.119 . S
N282 C284 1.334 . S
N282 C285 1.328 . S
C283 C284 1.391 . S
C283 N286 1.329 . S
C283 H304 0.930 . S
C284 N282 1.334 . S
C284 C283 1.391 . S
C284 H291 0.930 . S
C285 N282 1.328 . S
C285 C287 1.392 . S
C285 H292 0.930 . S
N286 C283 1.329 . S
N286 C287 1.331 . S
C287 C285 1.392 . S
C287 N286 1.331 . S
O288 Zn281 1.975 . S
O288 C289 1.252 . S
C289 O288 1.252 . S
C289 O290 1.252 . S
O290 Zn272 1.975 . S
O290 C289 1.252 . S
H291 C284 0.930 . S
H292 C285 0.930 . S
C293 C294 1.392 . S
C293 N297 1.328 . S
C293 H299 0.930 . S
C294 C293 1.392 . S
C294 N298 1.331 . S
C295 C296 1.391 . S
C295 N298 1.329 . S
C295 H305 0.930 . S
C296 C295 1.391 . S
C296 N297 1.334 . S
C296 H303 0.930 . S
N297 Zn281 2.119 . S
N297 C293 1.328 . S
N297 C296 1.334 . S
N298 C294 1.331 . S
N298 C295 1.329 . S
H299 C293 0.930 . S
C300 O280 1.257 . S
C300 O301 1.244 . S
O301 C300 1.244 . S
O302 C278 1.257 . S
O302 Zn281 2.019 . S
H303 C296 0.930 . S
H304 C283 0.930 . S
H305 C295 0.930 . S
Zn306 N310 2.020 . S
Zn306 O314 2.019 . S
Zn306 N316 2.119 . S
Zn306 O324 1.975 . S
C307 N308 1.334 . S
C307 N311 1.336 . S
N308 C307 1.334 . S
N308 C309 1.334 . S
C309 N308 1.334 . S
C309 N310 1.336 . S
N310 Zn306 2.020 . S
N310 C309 1.336 . S
N310 N311 1.354 . S
N311 C307 1.336 . S
N311 N310 1.354 . S
N311 Zn315 2.020 . S
C312 O313 1.244 . S
C312 O336 1.257 . S
O313 C312 1.244 . S
O314 Zn306 2.019 . S
O314 C334 1.257 . S
Zn315 N311 2.020 . S
Zn315 O322 1.975 . S
Zn315 N331 2.119 . S
Zn315 O336 2.019 . S
N316 Zn306 2.119 . S
N316 C318 1.334 . S
N316 C319 1.328 . S
C317 C318 1.391 . S
C317 N320 1.329 . S
C317 H338 0.930 . S
C318 N316 1.334 . S
C318 C317 1.391 . S
C318 H325 0.930 . S
C319 N316 1.328 . S
C319 C321 1.392 . S
C319 H326 0.930 . S
N320 C317 1.329 . S
N320 C321 1.331 . S
C321 C319 1.392 . S
C321 N320 1.331 . S
O322 Zn315 1.975 . S
O322 C323 1.252 . S
C323 O322 1.252 . S
C323 O324 1.252 . S
O324 Zn306 1.975 . S
O324 C323 1.252 . S
H325 C318 0.930 . S
H326 C319 0.930 . S
C327 C328 1.392 . S
C327 N331 1.328 . S
C327 H333 0.930 . S
C328 C327 1.392 . S
C328 N332 1.331 . S
C329 C330 1.391 . S
C329 N332 1.329 . S
C329 H339 0.930 . S
C330 C329 1.391 . S
C330 N331 1.334 . S
C330 H337 0.930 . S
N331 Zn315 2.119 . S
N331 C327 1.328 . S
N331 C330 1.334 . S
N332 C328 1.331 . S
N332 C329 1.329 . S
H333 C327 0.930 . S
C334 O314 1.257 . S
C334 O335 1.244 . S
O335 C334 1.244 . S
O336 C312 1.257 . S
O336 Zn315 2.019 . S
H337 C330 0.930 . S
H338 C317 0.930 . S
H339 C329 0.930 . S
Zn340 N344 2.020 . S
Zn340 O348 2.019 . S
Zn340 N350 2.119 . S
Zn340 O358 1.975 . S
C341 N342 1.334 . S
C341 N345 1.336 . S
N342 C341 1.334 . S
N342 C343 1.334 . S
C343 N342 1.334 . S
C343 N344 1.336 . S
N344 Zn340 2.020 . S
N344 C343 1.336 . S
N344 N345 1.354 . S
N345 C341 1.336 . S
N345 N344 1.354 . S
N345 Zn349 2.020 . S
C346 O347 1.244 . S
C346 O370 1.257 . S
O347 C346 1.244 . S
O348 Zn340 2.019 . S
O348 C368 1.257 . S
Zn349 N345 2.020 . S
Zn349 O356 1.975 . S
Zn349 N365 2.119 . S
Zn349 O370 2.019 . S
N350 Zn340 2.119 . S
N350 C352 1.334 . S
N350 C353 1.328 . S
C351 C352 1.391 . S
C351 N354 1.329 . S
C351 H372 0.930 . S
C352 N350 1.334 . S
C352 C351 1.391 . S
C352 H359 0.930 . S
C353 N350 1.328 . S
C353 C355 1.392 . S
C353 H360 0.930 . S
N354 C351 1.329 . S
N354 C355 1.331 . S
C355 C353 1.392 . S
C355 N354 1.331 . S
O356 Zn349 1.975 . S
O356 C357 1.252 . S
C357 O356 1.252 . S
C357 O358 1.252 . S
O358 Zn340 1.975 . S
O358 C357 1.252 . S
H359 C352 0.930 . S
H360 C353 0.930 . S
C361 C362 1.392 . S
C361 N365 1.328 . S
C361 H367 0.930 . S
C362 C361 1.392 . S
C362 N366 1.331 . S
C363 C364 1.391 . S
C363 N366 1.329 . S
C363 H373 0.930 . S
C364 C363 1.391 . S
C364 N365 1.334 . S
C364 H371 0.930 . S
N365 Zn349 2.119 . S
N365 C361 1.328 . S
N365 C364 1.334 . S
N366 C362 1.331 . S
N366 C363 1.329 . S
H367 C361 0.930 . S
C368 O348 1.257 . S
C368 O369 1.244 . S
O369 C368 1.244 . S
O370 C346 1.257 . S
O370 Zn349 2.019 . S
H371 C364 0.930 . S
H372 C351 0.930 . S
H373 C363 0.930 . S
Zn374 N378 2.020 . S
Zn374 O382 2.019 . S
Zn374 N384 2.119 . S
Zn374 O392 1.975 . S
C375 N376 1.334 . S
C375 N379 1.336 . S
N376 C375 1.334 . S
N376 C377 1.334 . S
C377 N376 1.334 . S
C377 N378 1.336 . S
N378 Zn374 2.020 . S
N378 C377 1.336 . S
N378 N379 1.354 . S
N379 C375 1.336 . S
N379 N378 1.354 . S
N379 Zn383 2.020 . S
C380 O381 1.244 . S
C380 O404 1.257 . S
O381 C380 1.244 . S
O382 Zn374 2.019 . S
O382 C402 1.257 . S
Zn383 N379 2.020 . S
Zn383 O390 1.975 . S
Zn383 N399 2.119 . S
Zn383 O404 2.019 . S
N384 Zn374 2.119 . S
N384 C386 1.334 . S
N384 C387 1.328 . S
C385 C386 1.391 . S
C385 N388 1.329 . S
C385 H406 0.930 . S
C386 N384 1.334 . S
C386 C385 1.391 . S
C386 H393 0.930 . S
C387 N384 1.328 . S
C387 C389 1.392 . S
C387 H394 0.930 . S
N388 C385 1.329 . S
N388 C389 1.331 . S
C389 C387 1.392 . S
C389 N388 1.331 . S
O390 Zn383 1.975 . S
O390 C391 1.252 . S
C391 O390 1.252 . S
C391 O392 1.252 . S
O392 Zn374 1.975 . S
O392 C391 1.252 . S
H393 C386 0.930 . S
H394 C387 0.930 . S
C395 C396 1.392 . S
C395 N399 1.328 . S
C395 H401 0.930 . S
C396 C395 1.392 . S
C396 N400 1.331 . S
C397 C398 1.391 . S
C397 N400 1.329 . S
C397 H407 0.930 . S
C398 C397 1.391 . S
C398 N399 1.334 . S
C398 H405 0.930 . S
N399 Zn383 2.119 . S
N399 C395 1.328 . S
N399 C398 1.334 . S
N400 C396 1.331 . S
N400 C397 1.329 . S
H401 C395 0.930 . S
C402 O382 1.257 . S
C402 O403 1.244 . S
O403 C402 1.244 . S
O404 C380 1.257 . S
O404 Zn383 2.019 . S
H405 C398 0.930 . S
H406 C385 0.930 . S
H407 C397 0.930 . S
C408 C409 1.349 . S
C408 C410 1.327 . S
C408 H433 0.950 . S
C409 C408 1.349 . S
C409 C425 1.349 . S
C410 C408 1.327 . S
C410 C429 1.429 . S
C410 H434 0.950 . S
C411 C428 1.574 . S
C411 C430 1.368 . S
C411 H435 0.949 . S
H412 C416 0.949 . S
C413 C414 1.349 . S
C413 C415 1.327 . S
C413 H436 0.950 . S
C414 C413 1.349 . S
C414 C426 1.349 . S
C415 C413 1.327 . S
C415 C431 1.429 . S
C415 H437 0.950 . S
C416 H412 0.949 . S
C416 C424 1.574 . S
C416 C432 1.368 . S
H417 C425 0.950 . S
H418 C423 0.950 . S
H419 C424 0.949 . S
H420 C426 0.950 . S
H421 C427 0.950 . S
H422 C428 0.949 . S
C423 H418 0.950 . S
C423 C425 1.327 . S
C423 C429 1.429 . S
C424 C416 1.574 . S
C424 H419 0.949 . S
C424 C430 1.368 1_565 S
C425 C409 1.349 . S
C425 H417 0.950 . S
C425 C423 1.327 . S
C426 C414 1.349 . S
C426 H420 0.950 . S
C426 C427 1.327 . S
C427 H421 0.950 . S
C427 C426 1.327 . S
C427 C431 1.429 . S
C428 C411 1.574 . S
C428 H422 0.949 . S
C428 C432 1.368 1_545 S
C429 C410 1.429 . S
C429 C423 1.429 . S
C429 C430 1.523 . S
C430 C411 1.368 . S
C430 C424 1.368 1_545 S
C430 C429 1.523 . S
C431 C415 1.429 . S
C431 C427 1.429 . S
C431 C432 1.523 . S
C432 C416 1.368 . S
C432 C428 1.368 1_565 S
C432 C431 1.523 . S
H433 C408 0.950 . S
H434 C410 0.950 . S
H435 C411 0.949 . S
H436 C413 0.950 . S
H437 C415 0.950 . S
C438 C439 1.349 . S
C438 C440 1.327 . S
C438 H463 0.950 . S
C439 C438 1.349 . S
C439 C455 1.349 . S
C440 C438 1.327 . S
C440 C459 1.429 . S
C440 H464 0.950 . S
C441 C458 1.574 . S
C441 C460 1.368 . S
C441 H465 0.949 . S
H442 C446 0.949 . S
C443 C444 1.349 . S
C443 C445 1.327 . S
C443 H466 0.950 . S
C444 C443 1.349 . S
C444 C456 1.349 . S
C445 C443 1.327 . S
C445 C461 1.429 . S
C445 H467 0.950 . S
C446 H442 0.949 . S
C446 C454 1.574 . S
C446 C462 1.368 . S
H447 C455 0.950 . S
H448 C453 0.950 . S
H449 C454 0.949 . S
H450 C456 0.950 . S
H451 C457 0.950 . S
H452 C458 0.949 . S
C453 H448 0.950 . S
C453 C455 1.327 . S
C453 C459 1.429 . S
C454 C446 1.574 . S
C454 H449 0.949 . S
C454 C460 1.368 . S
C455 C439 1.349 . S
C455 H447 0.950 . S
C455 C453 1.327 . S
C456 C444 1.349 . S
C456 H450 0.950 . S
C456 C457 1.327 . S
C457 H451 0.950 . S
C457 C456 1.327 . S
C457 C461 1.429 . S
C458 C441 1.574 . S
C458 H452 0.949 . S
C458 C462 1.368 . S
C459 C440 1.429 . S
C459 C453 1.429 . S
C459 C460 1.523 . S
C460 C441 1.368 . S
C460 C454 1.368 . S
C460 C459 1.523 . S
C461 C445 1.429 . S
C461 C457 1.429 . S
C461 C462 1.523 . S
C462 C446 1.368 . S
C462 C458 1.368 . S
C462 C461 1.523 . S
H463 C438 0.950 . S
H464 C440 0.950 . S
H465 C441 0.949 . S
H466 C443 0.950 . S
H467 C445 0.950 . S
C468 C469 1.349 . S
C468 C470 1.327 . S
C468 H493 0.950 . S
C469 C468 1.349 . S
C469 C485 1.349 . S
C470 C468 1.327 . S
C470 C489 1.429 . S
C470 H494 0.950 . S
C471 C488 1.600 . S
C471 C490 1.327 1_655 S
C471 H495 0.947 . S
H472 C476 0.947 . S
C473 C474 1.349 . S
C473 C475 1.327 . S
C473 H496 0.950 . S
C474 C473 1.349 . S
C474 C486 1.349 . S
C475 C473 1.327 . S
C475 C491 1.429 . S
C475 H497 0.950 . S
C476 H472 0.947 . S
C476 C484 1.600 . S
C476 C492 1.327 1_455 S
H477 C485 0.950 . S
H478 C483 0.950 . S
H479 C484 0.949 . S
H480 C486 0.950 . S
H481 C487 0.950 . S
H482 C488 0.949 . S
C483 H478 0.950 . S
C483 C485 1.327 . S
C483 C489 1.429 . S
C484 C476 1.600 . S
C484 H479 0.949 . S
C484 C490 1.368 . S
C485 C469 1.349 . S
C485 H477 0.950 . S
C485 C483 1.327 . S
C486 C474 1.349 . S
C486 H480 0.950 . S
C486 C487 1.327 . S
C487 H481 0.950 . S
C487 C486 1.327 . S
C487 C491 1.429 . S
C488 C471 1.600 . S
C488 H482 0.949 . S
C488 C492 1.368 . S
C489 C470 1.429 . S
C489 C483 1.429 . S
C489 C490 1.523 . S
C490 C471 1.327 1_455 S
C490 C484 1.368 . S
C490 C489 1.523 . S
C491 C475 1.429 . S
C491 C487 1.429 . S
C491 C492 1.523 . S
C492 C476 1.327 1_655 S
C492 C488 1.368 . S
C492 C491 1.523 . S
H493 C468 0.950 . S
H494 C470 0.950 . S
H495 C471 0.947 . S
H496 C473 0.950 . S
H497 C475 0.950 . S
C498 C499 1.349 . S
C498 C500 1.327 . S
C498 H523 0.950 . S
C499 C498 1.349 . S
C499 C515 1.349 . S
C500 C498 1.327 . S
C500 C519 1.429 . S
C500 H524 0.950 . S
C501 C518 1.574 1_565 S
C501 C520 1.368 . S
C501 H525 0.949 . S
H502 C506 0.949 . S
C503 C504 1.349 . S
C503 C505 1.327 . S
C503 H526 0.950 . S
C504 C503 1.349 . S
C504 C516 1.349 . S
C505 C503 1.327 . S
C505 C521 1.429 . S
C505 H527 0.950 . S
C506 H502 0.949 . S
C506 C514 1.574 1_545 S
C506 C522 1.368 . S
H507 C515 0.950 . S
H508 C513 0.950 . S
H509 C514 0.949 . S
H510 C516 0.950 . S
H511 C517 0.950 . S
H512 C518 0.949 . S
C513 H508 0.950 . S
C513 C515 1.327 . S
C513 C519 1.429 . S
C514 C506 1.574 1_565 S
C514 H509 0.949 . S
C514 C520 1.368 . S
C515 C499 1.349 . S
C515 H507 0.950 . S
C515 C513 1.327 . S
C516 C504 1.349 . S
C516 H510 0.950 . S
C516 C517 1.327 . S
C517 H511 0.950 . S
C517 C516 1.327 . S
C517 C521 1.429 . S
C518 C501 1.574 1_545 S
C518 H512 0.949 . S
C518 C522 1.368 . S
C519 C500 1.429 . S
C519 C513 1.429 . S
C519 C520 1.523 . S
C520 C501 1.368 . S
C520 C514 1.368 . S
C520 C519 1.523 . S
C521 C505 1.429 . S
C521 C517 1.429 . S
C521 C522 1.523 . S
C522 C506 1.368 . S
C522 C518 1.368 . S
C522 C521 1.523 . S
H523 C498 0.950 . S
H524 C500 0.950 . S
H525 C501 0.949 . S
H526 C503 0.950 . S
H527 C505 0.950 . S
C528 C529 1.349 . S
C528 C530 1.327 . S
C528 H553 0.950 . S
C529 C528 1.349 . S
C529 C545 1.349 . S
C530 C528 1.327 . S
C530 C549 1.429 . S
C530 H554 0.950 . S
C531 C548 1.574 . S
C531 C550 1.368 . S
C531 H555 0.949 . S
H532 C536 0.949 . S
C533 C534 1.349 . S
C533 C535 1.327 . S
C533 H556 0.950 . S
C534 C533 1.349 . S
C534 C546 1.349 . S
C535 C533 1.327 . S
C535 C551 1.429 . S
C535 H557 0.950 . S
C536 H532 0.949 . S
C536 C544 1.574 . S
C536 C552 1.368 . S
H537 C545 0.950 . S
H538 C543 0.950 . S
H539 C544 0.949 . S
H540 C546 0.950 . S
H541 C547 0.950 . S
H542 C548 0.949 . S
C543 H538 0.950 . S
C543 C545 1.327 . S
C543 C549 1.429 . S
C544 C536 1.574 . S
C544 H539 0.949 . S
C544 C550 1.368 . S
C545 C529 1.349 . S
C545 H537 0.950 . S
C545 C543 1.327 . S
C546 C534 1.349 . S
C546 H540 0.950 . S
C546 C547 1.327 . S
C547 H541 0.950 . S
C547 C546 1.327 . S
C547 C551 1.429 . S
C548 C531 1.574 . S
C548 H542 0.949 . S
C548 C552 1.368 . S
C549 C530 1.429 . S
C549 C543 1.429 . S
C549 C550 1.523 . S
C550 C531 1.368 . S
C550 C544 1.368 . S
C550 C549 1.523 . S
C551 C535 1.429 . S
C551 C547 1.429 . S
C551 C552 1.523 . S
C552 C536 1.368 . S
C552 C548 1.368 . S
C552 C551 1.523 . S
H553 C528 0.950 . S
H554 C530 0.950 . S
H555 C531 0.949 . S
H556 C533 0.950 . S
H557 C535 0.950 . S
C558 C559 1.349 . S
C558 C560 1.327 . S
C558 H583 0.950 . S
C559 C558 1.349 . S
C559 C575 1.349 . S
C560 C558 1.327 . S
C560 C579 1.429 . S
C560 H584 0.950 . S
C561 C578 1.574 . S
C561 C580 1.368 . S
C561 H585 0.949 . S
H562 C566 0.949 . S
C563 C564 1.349 . S
C563 C565 1.327 . S
C563 H586 0.950 . S
C564 C563 1.349 . S
C564 C576 1.349 . S
C565 C563 1.327 . S
C565 C581 1.429 . S
C565 H587 0.950 . S
C566 H562 0.949 . S
C566 C574 1.574 . S
C566 C582 1.368 . S
H567 C575 0.950 . S
H568 C573 0.950 . S
H569 C574 0.949 . S
H570 C576 0.950 . S
H571 C577 0.950 . S
H572 C578 0.949 . S
C573 H568 0.950 . S
C573 C575 1.327 . S
C573 C579 1.429 . S
C574 C566 1.574 . S
C574 H569 0.949 . S
C574 C580 1.368 1_455 S
C575 C559 1.349 . S
C575 H567 0.950 . S
C575 C573 1.327 . S
C576 C564 1.349 . S
C576 H570 0.950 . S
C576 C577 1.327 . S
C577 H571 0.950 . S
C577 C576 1.327 . S
C577 C581 1.429 . S
C578 C561 1.574 . S
C578 H572 0.949 . S
C578 C582 1.368 1_655 S
C579 C560 1.429 . S
C579 C573 1.429 . S
C579 C580 1.523 . S
C580 C561 1.368 . S
C580 C574 1.368 1_655 S
C580 C579 1.523 . S
C581 C565 1.429 . S
C581 C577 1.429 . S
C581 C582 1.523 . S
C582 C566 1.368 . S
C582 C578 1.368 1_455 S
C582 C581 1.523 . S
H583 C558 0.950 . S
H584 C560 0.950 . S
H585 C561 0.949 . S
H586 C563 0.950 . S
H587 C565 0.950 . S
C588 C589 1.349 . S
C588 C590 1.327 . S
C588 H613 0.950 . S
C589 C588 1.349 . S
C589 C605 1.349 . S
C590 C588 1.327 . S
C590 C609 1.429 . S
C590 H614 0.950 . S
C591 C608 1.574 . S
C591 C610 1.368 . S
C591 H615 0.949 . S
H592 C596 0.949 . S
C593 C594 1.349 . S
C593 C595 1.327 . S
C593 H616 0.950 . S
C594 C593 1.349 . S
C594 C606 1.349 . S
C595 C593 1.327 . S
C595 C611 1.429 . S
C595 H617 0.950 . S
C596 H592 0.949 . S
C596 C604 1.574 . S
C596 C612 1.368 . S
H597 C605 0.950 . S
H598 C603 0.950 . S
H599 C604 0.949 . S
H600 C606 0.950 . S
H601 C607 0.950 . S
H602 C608 0.949 . S
C603 H598 0.950 . S
C603 C605 1.327 . S
C603 C609 1.429 . S
C604 C596 1.574 . S
C604 H599 0.949 . S
C604 C610 1.368 1_565 S
C605 C589 1.349 . S
C605 H597 0.950 . S
C605 C603 1.327 . S
C606 C594 1.349 . S
C606 H600 0.950 . S
C606 C607 1.327 . S
C607 H601 0.950 . S
C607 C606 1.327 . S
C607 C611 1.429 . S
C608 C591 1.574 . S
C608 H602 0.949 . S
C608 C612 1.368 1_545 S
C609 C590 1.429 . S
C609 C603 1.429 . S
C609 C610 1.523 . S
C610 C591 1.368 . S
C610 C604 1.368 1_545 S
C610 C609 1.523 . S
C611 C595 1.429 . S
C611 C607 1.429 . S
C611 C612 1.523 . S
C612 C596 1.368 . S
C612 C608 1.368 1_565 S
C612 C611 1.523 . S
H613 C588 0.950 . S
H614 C590 0.950 . S
H615 C591 0.949 . S
H616 C593 0.950 . S
H617 C595 0.950 . S
C618 C619 1.349 . S
C618 C620 1.327 . S
C618 H643 0.950 . S
C619 C618 1.349 . S
C619 C635 1.349 . S
C620 C618 1.327 . S
C620 C639 1.429 . S
C620 H644 0.950 . S
C621 C638 1.574 . S
C621 C640 1.368 . S
C621 H645 0.949 . S
H622 C626 0.949 . S
C623 C624 1.349 . S
C623 C625 1.327 . S
C623 H646 0.950 . S
C624 C623 1.349 . S
C624 C636 1.349 . S
C625 C623 1.327 . S
C625 C641 1.429 . S
C625 H647 0.950 . S
C626 H622 0.949 . S
C626 C634 1.574 . S
C626 C642 1.368 . S
H627 C635 0.950 . S
H628 C633 0.950 . S
H629 C634 0.949 . S
H630 C636 0.950 . S
H631 C637 0.950 . S
H632 C638 0.949 . S
C633 H628 0.950 . S
C633 C635 1.327 . S
C633 C639 1.429 . S
C634 C626 1.574 . S
C634 H629 0.949 . S
C634 C640 1.368 . S
C635 C619 1.349 . S
C635 H627 0.950 . S
C635 C633 1.327 . S
C636 C624 1.349 . S
C636 H630 0.950 . S
C636 C637 1.327 . S
C637 H631 0.950 . S
C637 C636 1.327 . S
C637 C641 1.429 . S
C638 C621 1.574 . S
C638 H632 0.949 . S
C638 C642 1.368 . S
C639 C620 1.429 . S
C639 C633 1.429 . S
C639 C640 1.523 . S
C640 C621 1.368 . S
C640 C634 1.368 . S
C640 C639 1.523 . S
C641 C625 1.429 . S
C641 C637 1.429 . S
C641 C642 1.523 . S
C642 C626 1.368 . S
C642 C638 1.368 . S
C642 C641 1.523 . S
H643 C618 0.950 . S
H644 C620 0.950 . S
H645 C621 0.949 . S
H646 C623 0.950 . S
H647 C625 0.950 . S
C648 C649 1.349 . S
C648 C650 1.327 . S
C648 H673 0.950 . S
C649 C648 1.349 . S
C649 C665 1.349 . S
C650 C648 1.327 . S
C650 C669 1.429 . S
C650 H674 0.950 . S
C651 C668 1.574 . S
C651 C670 1.368 1_655 S
C651 H675 0.949 . S
H652 C656 0.949 . S
C653 C654 1.349 . S
C653 C655 1.327 . S
C653 H676 0.950 . S
C654 C653 1.349 . S
C654 C666 1.349 . S
C655 C653 1.327 . S
C655 C671 1.429 . S
C655 H677 0.950 . S
C656 H652 0.949 . S
C656 C664 1.574 . S
C656 C672 1.368 1_455 S
H657 C665 0.950 . S
H658 C663 0.950 . S
H659 C664 0.949 . S
H660 C666 0.950 . S
H661 C667 0.950 . S
H662 C668 0.949 . S
C663 H658 0.950 . S
C663 C665 1.327 . S
C663 C669 1.429 . S
C664 C656 1.574 . S
C664 H659 0.949 . S
C664 C670 1.368 . S
C665 C649 1.349 . S
C665 H657 0.950 . S
C665 C663 1.327 . S
C666 C654 1.349 . S
C666 H660 0.950 . S
C666 C667 1.327 . S
C667 H661 0.950 . S
C667 C666 1.327 . S
C667 C671 1.429 . S
C668 C651 1.574 . S
C668 H662 0.949 . S
C668 C672 1.368 . S
C669 C650 1.429 . S
C669 C663 1.429 . S
C669 C670 1.523 . S
C670 C651 1.368 1_455 S
C670 C664 1.368 . S
C670 C669 1.523 . S
C671 C655 1.429 . S
C671 C667 1.429 . S
C671 C672 1.523 . S
C672 C656 1.368 1_655 S
C672 C668 1.368 . S
C672 C671 1.523 . S
H673 C648 0.950 . S
H674 C650 0.950 . S
H675 C651 0.949 . S
H676 C653 0.950 . S
H677 C655 0.950 . S
C678 C679 1.349 . S
C678 C680 1.327 . S
C678 H703 0.950 . S
C679 C678 1.349 . S
C679 C695 1.349 . S
C680 C678 1.327 . S
C680 C699 1.429 . S
C680 H704 0.950 . S
C681 C698 1.574 1_545 S
C681 C700 1.368 . S
C681 H705 0.949 . S
H682 C686 0.949 . S
C683 C684 1.349 . S
C683 C685 1.327 . S
C683 H706 0.950 . S
C684 C683 1.349 . S
C684 C696 1.349 . S
C685 C683 1.327 . S
C685 C701 1.429 . S
C685 H707 0.950 . S
C686 H682 0.949 . S
C686 C694 1.574 1_565 S
C686 C702 1.368 . S
H687 C695 0.950 . S
H688 C693 0.950 . S
H689 C694 0.949 . S
H690 C696 0.950 . S
H691 C697 0.950 . S
H692 C698 0.949 . S
C693 H688 0.950 . S
C693 C695 1.327 . S
C693 C699 1.429 . S
C694 C686 1.574 1_545 S
C694 H689 0.949 . S
C694 C700 1.368 . S
C695 C679 1.349 . S
C695 H687 0.950 . S
C695 C693 1.327 . S
C696 C684 1.349 . S
C696 H690 0.950 . S
C696 C697 1.327 . S
C697 H691 0.950 . S
C697 C696 1.327 . S
C697 C701 1.429 . S
C698 C681 1.574 1_565 S
C698 H692 0.949 . S
C698 C702 1.368 . S
C699 C680 1.429 . S
C699 C693 1.429 . S
C699 C700 1.523 . S
C700 C681 1.368 . S
C700 C694 1.368 . S
C700 C699 1.523 . S
C701 C685 1.429 . S
C701 C697 1.429 . S
C701 C702 1.523 . S
C702 C686 1.368 . S
C702 C698 1.368 . S
C702 C701 1.523 . S
H703 C678 0.950 . S
H704 C680 0.950 . S
H705 C681 0.949 . S
H706 C683 0.950 . S
H707 C685 0.950 . S
C708 C709 1.349 . S
C708 C710 1.327 . S
C708 H733 0.950 . S
C709 C708 1.349 . S
C709 C725 1.349 . S
C710 C708 1.327 . S
C710 C729 1.429 . S
C710 H734 0.950 . S
C711 C728 1.574 . S
C711 C730 1.368 . S
C711 H735 0.949 . S
H712 C716 0.949 . S
C713 C714 1.349 . S
C713 C715 1.327 . S
C713 H736 0.950 . S
C714 C713 1.349 . S
C714 C726 1.349 . S
C715 C713 1.327 . S
C715 C731 1.429 . S
C715 H737 0.950 . S
C716 H712 0.949 . S
C716 C724 1.574 . S
C716 C732 1.368 . S
H717 C725 0.950 . S
H718 C723 0.950 . S
H719 C724 0.949 . S
H720 C726 0.950 . S
H721 C727 0.950 . S
H722 C728 0.949 . S
C723 H718 0.950 . S
C723 C725 1.327 . S
C723 C729 1.429 . S
C724 C716 1.574 . S
C724 H719 0.949 . S
C724 C730 1.368 . S
C725 C709 1.349 . S
C725 H717 0.950 . S
C725 C723 1.327 . S
C726 C714 1.349 . S
C726 H720 0.950 . S
C726 C727 1.327 . S
C727 H721 0.950 . S
C727 C726 1.327 . S
C727 C731 1.429 . S
C728 C711 1.574 . S
C728 H722 0.949 . S
C728 C732 1.368 . S
C729 C710 1.429 . S
C729 C723 1.429 . S
C729 C730 1.523 . S
C730 C711 1.368 . S
C730 C724 1.368 . S
C730 C729 1.523 . S
C731 C715 1.429 . S
C731 C727 1.429 . S
C731 C732 1.523 . S
C732 C716 1.368 . S
C732 C728 1.368 . S
C732 C731 1.523 . S
H733 C708 0.950 . S
H734 C710 0.950 . S
H735 C711 0.949 . S
H736 C713 0.950 . S
H737 C715 0.950 . S
C738 C739 1.349 . S
C738 C740 1.327 . S
C738 H763 0.950 . S
C739 C738 1.349 . S
C739 C755 1.349 . S
C740 C738 1.327 . S
C740 C759 1.429 . S
C740 H764 0.950 . S
C741 C758 1.574 1_455 S
C741 C760 1.368 . S
C741 H765 0.949 . S
H742 C746 0.949 . S
C743 C744 1.349 . S
C743 C745 1.327 . S
C743 H766 0.950 . S
C744 C743 1.349 . S
C744 C756 1.349 . S
C745 C743 1.327 . S
C745 C761 1.429 . S
C745 H767 0.950 . S
C746 H742 0.949 . S
C746 C754 1.574 1_655 S
C746 C762 1.368 . S
H747 C755 0.950 . S
H748 C753 0.950 . S
H749 C754 0.949 . S
H750 C756 0.950 . S
H751 C757 0.950 . S
H752 C758 0.949 . S
C753 H748 0.950 . S
C753 C755 1.327 . S
C753 C759 1.429 . S
C754 C746 1.574 1_455 S
C754 H749 0.949 . S
C754 C760 1.368 . S
C755 C739 1.349 . S
C755 H747 0.950 . S
C755 C753 1.327 . S
C756 C744 1.349 . S
C756 H750 0.950 . S
C756 C757 1.327 . S
C757 H751 0.950 . S
C757 C756 1.327 . S
C757 C761 1.429 . S
C758 C741 1.574 1_655 S
C758 H752 0.949 . S
C758 C762 1.368 . S
C759 C740 1.429 . S
C759 C753 1.429 . S
C759 C760 1.523 . S
C760 C741 1.368 . S
C760 C754 1.368 . S
C760 C759 1.523 . S
C761 C745 1.429 . S
C761 C757 1.429 . S
C761 C762 1.523 . S
C762 C746 1.368 . S
C762 C758 1.368 . S
C762 C761 1.523 . S
H763 C738 0.950 . S
H764 C740 0.950 . S
H765 C741 0.949 . S
H766 C743 0.950 . S
H767 C745 0.950 . S
C768 C769 1.349 . S
C768 C770 1.327 . S
C768 H793 0.950 . S
C769 C768 1.349 . S
C769 C785 1.349 1_554 S
C770 C768 1.327 . S
C770 C789 1.428 . S
C770 H794 0.950 . S
C771 C788 1.574 . S
C771 C790 1.369 1_556 S
C771 H795 0.949 . S
H772 C776 0.949 . S
C773 C774 1.349 1_556 S
C773 C775 1.327 . S
C773 H796 0.950 . S
C774 C773 1.349 1_554 S
C774 C786 1.349 . S
C775 C773 1.327 . S
C775 C791 1.429 1_556 S
C775 H797 0.950 . S
C776 H772 0.949 . S
C776 C784 1.574 . S
C776 C792 1.368 . S
H777 C785 0.950 . S
H778 C783 0.950 . S
H779 C784 0.949 . S
H780 C786 0.950 . S
H781 C787 0.950 . S
H782 C788 0.949 . S
C783 H778 0.950 . S
C783 C785 1.327 . S
C783 C789 1.429 1_556 S
C784 C776 1.574 . S
C784 H779 0.949 . S
C784 C790 1.368 1_545 S
C785 C769 1.349 1_556 S
C785 H777 0.950 . S
C785 C783 1.327 . S
C786 C774 1.349 . S
C786 H780 0.950 . S
C786 C787 1.327 . S
C787 H781 0.950 . S
C787 C786 1.327 . S
C787 C791 1.428 . S
C788 C771 1.574 . S
C788 H782 0.949 . S
C788 C792 1.369 1_566 S
C789 C770 1.428 . S
C789 C783 1.429 1_554 S
C789 C790 1.523 . S
C790 C771 1.369 1_554 S
C790 C784 1.368 1_565 S
C790 C789 1.523 . S
C791 C775 1.429 1_554 S
C791 C787 1.428 . S
C791 C792 1.523 . S
C792 C776 1.368 . S
C792 C788 1.369 1_544 S
C792 C791 1.523 . S
H793 C768 0.950 . S
H794 C770 0.950 . S
H795 C771 0.949 . S
H796 C773 0.950 . S
H797 C775 0.950 . S
C798 C799 1.349 1_556 S
C798 C800 1.327 . S
C798 H823 0.950 . S
C799 C798 1.349 1_554 S
C799 C815 1.349 . S
C800 C798 1.327 . S
C800 C819 1.429 1_556 S
C800 H824 0.950 . S
C801 C818 1.574 . S
C801 C820 1.368 . S
C801 H825 0.949 . S
H802 C806 0.949 . S
C803 C804 1.349 . S
C803 C805 1.327 . S
C803 H826 0.950 . S
C804 C803 1.349 . S
C804 C816 1.349 1_554 S
C805 C803 1.327 . S
C805 C821 1.428 . S
C805 H827 0.950 . S
C806 H802 0.949 . S
C806 C814 1.574 . S
C806 C822 1.369 1_556 S
H807 C815 0.950 . S
H808 C813 0.950 . S
H809 C814 0.949 . S
H810 C816 0.950 . S
H811 C817 0.950 . S
H812 C818 0.949 . S
C813 H808 0.950 . S
C813 C815 1.327 . S
C813 C819 1.428 . S
C814 C806 1.574 . S
C814 H809 0.949 . S
C814 C820 1.369 1_556 S
C815 C799 1.349 . S
C815 H807 0.950 . S
C815 C813 1.327 . S
C816 C804 1.349 1_556 S
C816 H810 0.950 . S
C816 C817 1.327 . S
C817 H811 0.950 . S
C817 C816 1.327 . S
C817 C821 1.429 1_556 S
C818 C801 1.574 . S
C818 H812 0.949 . S
C818 C822 1.368 . S
C819 C800 1.429 1_554 S
C819 C813 1.428 . S
C819 C820 1.523 . S
C820 C801 1.368 . S
C820 C814 1.369 1_554 S
C820 C819 1.523 . S
C821 C805 1.428 . S
C821 C817 1.429 1_554 S
C821 C822 1.523 . S
C822 C806 1.369 1_554 S
C822 C818 1.368 . S
C822 C821 1.523 . S
H823 C798 0.950 . S
H824 C800 0.950 . S
H825 C801 0.949 . S
H826 C803 0.950 . S
H827 C805 0.950 . S
C828 C829 1.349 1_556 S
C828 C830 1.327 . S
C828 H853 0.950 . S
C829 C828 1.349 1_554 S
C829 C845 1.349 . S
C830 C828 1.327 . S
C830 C849 1.429 1_556 S
C830 H854 0.950 . S
C831 C848 1.574 . S
C831 C850 1.368 1_655 S
C831 H855 0.949 . S
H832 C836 0.949 . S
C833 C834 1.349 . S
C833 C835 1.327 . S
C833 H856 0.950 . S
C834 C833 1.349 . S
C834 C846 1.349 1_554 S
C835 C833 1.327 . S
C835 C851 1.428 . S
C835 H857 0.950 . S
C836 H832 0.949 . S
C836 C844 1.574 . S
C836 C852 1.369 1_456 S
H837 C845 0.950 . S
H838 C843 0.950 . S
H839 C844 0.949 . S
H840 C846 0.950 . S
H841 C847 0.950 . S
H842 C848 0.949 . S
C843 H838 0.950 . S
C843 C845 1.327 . S
C843 C849 1.428 . S
C844 C836 1.574 . S
C844 H839 0.949 . S
C844 C850 1.369 1_556 S
C845 C829 1.349 . S
C845 H837 0.950 . S
C845 C843 1.327 . S
C846 C834 1.349 1_556 S
C846 H840 0.950 . S
C846 C847 1.327 . S
C847 H841 0.950 . S
C847 C846 1.327 . S
C847 C851 1.429 1_556 S
C848 C831 1.574 . S
C848 H842 0.949 . S
C848 C852 1.368 . S
C849 C830 1.429 1_554 S
C849 C843 1.428 . S
C849 C850 1.523 . S
C850 C831 1.368 1_455 S
C850 C844 1.369 1_554 S
C850 C849 1.523 . S
C851 C835 1.428 . S
C851 C847 1.429 1_554 S
C851 C852 1.523 . S
C852 C836 1.369 1_654 S
C852 C848 1.368 . S
C852 C851 1.523 . S
H853 C828 0.950 . S
H854 C830 0.950 . S
H855 C831 0.949 . S
H856 C833 0.950 . S
H857 C835 0.950 . S
C858 C859 1.349 . S
C858 C860 1.327 . S
C858 H883 0.950 . S
C859 C858 1.349 . S
C859 C875 1.349 . S
C860 C858 1.327 . S
C860 C879 1.429 . S
C860 H884 0.950 . S
C861 C878 1.574 . S
C861 C880 1.368 1_455 S
C861 H885 0.949 . S
H862 C866 0.949 . S
C863 C864 1.349 . S
C863 C865 1.327 . S
C863 H886 0.950 . S
C864 C863 1.349 . S
C864 C876 1.349 . S
C865 C863 1.327 . S
C865 C881 1.429 . S
C865 H887 0.950 . S
C866 H862 0.949 . S
C866 C874 1.574 . S
C866 C882 1.368 1_655 S
H867 C875 0.950 . S
H868 C873 0.950 . S
H869 C874 0.949 . S
H870 C876 0.950 . S
H871 C877 0.950 . S
H872 C878 0.949 . S
C873 H868 0.950 . S
C873 C875 1.327 . S
C873 C879 1.429 . S
C874 C866 1.574 . S
C874 H869 0.949 . S
C874 C880 1.368 . S
C875 C859 1.349 . S
C875 H867 0.950 . S
C875 C873 1.327 . S
C876 C864 1.349 . S
C876 H870 0.950 . S
C876 C877 1.327 . S
C877 H871 0.950 . S
C877 C876 1.327 . S
C877 C881 1.429 . S
C878 C861 1.574 . S
C878 H872 0.949 . S
C878 C882 1.368 . S
C879 C860 1.429 . S
C879 C873 1.429 . S
C879 C880 1.523 . S
C880 C861 1.368 1_655 S
C880 C874 1.368 . S
C880 C879 1.523 . S
C881 C865 1.429 . S
C881 C877 1.429 . S
C881 C882 1.523 . S
C882 C866 1.368 1_455 S
C882 C878 1.368 . S
C882 C881 1.523 . S
H883 C858 0.950 . S
H884 C860 0.950 . S
H885 C861 0.949 . S
H886 C863 0.950 . S
H887 C865 0.950 . S
C888 C889 1.349 . S
C888 C890 1.327 . S
C888 H913 0.950 . S
C889 C888 1.349 . S
C889 C905 1.349 . S
C890 C888 1.327 . S
C890 C909 1.429 . S
C890 H914 0.950 . S
C891 C908 1.574 . S
C891 C910 1.368 1_545 S
C891 H915 0.949 . S
H892 C896 0.949 . S
C893 C894 1.349 . S
C893 C895 1.327 . S
C893 H916 0.950 . S
C894 C893 1.349 . S
C894 C906 1.349 . S
C895 C893 1.327 . S
C895 C911 1.429 . S
C895 H917 0.950 . S
C896 H892 0.949 . S
C896 C904 1.574 . S
C896 C912 1.368 1_565 S
H897 C905 0.950 . S
H898 C903 0.950 . S
H899 C904 0.949 . S
H900 C906 0.950 . S
H901 C907 0.950 . S
H902 C908 0.949 . S
C903 H898 0.950 . S
C903 C905 1.327 . S
C903 C909 1.429 . S
C904 C896 1.574 . S
C904 H899 0.949 . S
C904 C910 1.368 . S
C905 C889 1.349 . S
C905 H897 0.950 . S
C905 C903 1.327 . S
C906 C894 1.349 . S
C906 H900 0.950 . S
C906 C907 1.327 . S
C907 H901 0.950 . S
C907 C906 1.327 . S
C907 C911 1.429 . S
C908 C891 1.574 . S
C908 H902 0.949 . S
C908 C912 1.368 . S
C909 C890 1.429 . S
C909 C903 1.429 . S
C909 C910 1.523 . S
C910 C891 1.368 1_565 S
C910 C904 1.368 . S
C910 C909 1.523 . S
C911 C895 1.429 . S
C911 C907 1.429 . S
C911 C912 1.523 . S
C912 C896 1.368 1_545 S
C912 C908 1.368 . S
C912 C911 1.523 . S
H913 C888 0.950 . S
H914 C890 0.950 . S
H915 C891 0.949 . S
H916 C893 0.950 . S
H917 C895 0.950 . S
C918 C919 1.349 . S
C918 C920 1.327 . S
C918 H943 0.950 . S
C919 C918 1.349 . S
C919 C935 1.349 . S
C920 C918 1.327 . S
C920 C939 1.429 . S
C920 H944 0.950 . S
C921 C938 1.574 . S
C921 C940 1.368 . S
C921 H945 0.949 . S
H922 C926 0.949 . S
C923 C924 1.349 . S
C923 C925 1.327 . S
C923 H946 0.950 . S
C924 C923 1.349 . S
C924 C936 1.349 . S
C925 C923 1.327 . S
C925 C941 1.429 . S
C925 H947 0.950 . S
C926 H922 0.949 . S
C926 C934 1.574 . S
C926 C942 1.368 . S
H927 C935 0.950 . S
H928 C933 0.950 . S
H929 C934 0.949 . S
H930 C936 0.950 . S
H931 C937 0.950 . S
H932 C938 0.949 . S
C933 H928 0.950 . S
C933 C935 1.327 . S
C933 C939 1.429 . S
C934 C926 1.574 . S
C934 H929 0.949 . S
C934 C940 1.368 . S
C935 C919 1.349 . S
C935 H927 0.950 . S
C935 C933 1.327 . S
C936 C924 1.349 . S
C936 H930 0.950 . S
C936 C937 1.327 . S
C937 H931 0.950 . S
C937 C936 1.327 . S
C937 C941 1.429 . S
C938 C921 1.574 . S
C938 H932 0.949 . S
C938 C942 1.368 . S
C939 C920 1.429 . S
C939 C933 1.429 . S
C939 C940 1.523 . S
C940 C921 1.368 . S
C940 C934 1.368 . S
C940 C939 1.523 . S
C941 C925 1.429 . S
C941 C937 1.429 . S
C941 C942 1.523 . S
C942 C926 1.368 . S
C942 C938 1.368 . S
C942 C941 1.523 . S
H943 C918 0.950 . S
H944 C920 0.950 . S
H945 C921 0.949 . S
H946 C923 0.950 . S
H947 C925 0.950 . S
C948 C949 1.349 . S
C948 C950 1.327 . S
C948 H973 0.950 . S
C949 C948 1.349 . S
C949 C965 1.349 . S
C950 C948 1.327 . S
C950 C969 1.429 . S
C950 H974 0.950 . S
C951 C968 1.574 . S
C951 C970 1.368 . S
C951 H975 0.949 . S
H952 C956 0.949 . S
C953 C954 1.349 . S
C953 C955 1.327 . S
C953 H976 0.950 . S
C954 C953 1.349 . S
C954 C966 1.349 . S
C955 C953 1.327 . S
C955 C971 1.429 . S
C955 H977 0.950 . S
C956 H952 0.949 . S
C956 C964 1.574 . S
C956 C972 1.368 . S
H957 C965 0.950 . S
H958 C963 0.950 . S
H959 C964 0.949 . S
H960 C966 0.950 . S
H961 C967 0.950 . S
H962 C968 0.949 . S
C963 H958 0.950 . S
C963 C965 1.327 . S
C963 C969 1.429 . S
C964 C956 1.574 . S
C964 H959 0.949 . S
C964 C970 1.368 . S
C965 C949 1.349 . S
C965 H957 0.950 . S
C965 C963 1.327 . S
C966 C954 1.349 . S
C966 H960 0.950 . S
C966 C967 1.327 . S
C967 H961 0.950 . S
C967 C966 1.327 . S
C967 C971 1.429 . S
C968 C951 1.574 . S
C968 H962 0.949 . S
C968 C972 1.368 . S
C969 C950 1.429 . S
C969 C963 1.429 . S
C969 C970 1.523 . S
C970 C951 1.368 . S
C970 C964 1.368 . S
C970 C969 1.523 . S
C971 C955 1.429 . S
C971 C967 1.429 . S
C971 C972 1.523 . S
C972 C956 1.368 . S
C972 C968 1.368 . S
C972 C971 1.523 . S
H973 C948 0.950 . S
H974 C950 0.950 . S
H975 C951 0.949 . S
H976 C953 0.950 . S
H977 C955 0.950 . S
C978 C979 1.349 . S
C978 C980 1.327 . S
C978 H1003 0.950 . S
C979 C978 1.349 . S
C979 C995 1.349 . S
C980 C978 1.327 . S
C980 C999 1.429 . S
C980 H1004 0.950 . S
C981 C998 1.574 . S
C981 C1000 1.368 . S
C981 H1005 0.949 . S
H982 C986 0.949 . S
C983 C984 1.349 . S
C983 C985 1.327 . S
C983 H1006 0.950 . S
C984 C983 1.349 . S
C984 C996 1.349 . S
C985 C983 1.327 . S
C985 C1001 1.429 . S
C985 H1007 0.950 . S
C986 H982 0.949 . S
C986 C994 1.574 . S
C986 C1002 1.368 . S
H987 C995 0.950 . S
H988 C993 0.950 . S
H989 C994 0.949 . S
H990 C996 0.950 . S
H991 C997 0.950 . S
H992 C998 0.949 . S
C993 H988 0.950 . S
C993 C995 1.327 . S
C993 C999 1.429 . S
C994 C986 1.574 . S
C994 H989 0.949 . S
C994 C1000 1.368 . S
C995 C979 1.349 . S
C995 H987 0.950 . S
C995 C993 1.327 . S
C996 C984 1.349 . S
C996 H990 0.950 . S
C996 C997 1.327 . S
C997 H991 0.950 . S
C997 C996 1.327 . S
C997 C1001 1.429 . S
C998 C981 1.574 . S
C998 H992 0.949 . S
C998 C1002 1.368 . S
C999 C980 1.429 . S
C999 C993 1.429 . S
C999 C1000 1.523 . S
C1000 C981 1.368 . S
C1000 C994 1.368 . S
C1000 C999 1.523 . S
C1001 C985 1.429 . S
C1001 C997 1.429 . S
C1001 C1002 1.523 . S
C1002 C986 1.368 . S
C1002 C998 1.368 . S
C1002 C1001 1.523 . S
H1003 C978 0.950 . S
H1004 C980 0.950 . S
H1005 C981 0.949 . S
H1006 C983 0.950 . S
H1007 C985 0.950 . S
C1008 C1009 1.349 . S
C1008 C1010 1.327 . S
C1008 H1033 0.950 . S
C1009 C1008 1.349 . S
C1009 C1025 1.349 . S
C1010 C1008 1.327 . S
C1010 C1029 1.429 . S
C1010 H1034 0.950 . S
C1011 C1028 1.574 . S
C1011 C1030 1.368 . S
C1011 H1035 0.949 . S
H1012 C1016 0.949 . S
C1013 C1014 1.349 . S
C1013 C1015 1.327 . S
C1013 H1036 0.950 . S
C1014 C1013 1.349 . S
C1014 C1026 1.349 . S
C1015 C1013 1.327 . S
C1015 C1031 1.429 . S
C1015 H1037 0.950 . S
C1016 H1012 0.949 . S
C1016 C1024 1.574 . S
C1016 C1032 1.368 . S
H1017 C1025 0.950 . S
H1018 C1023 0.950 . S
H1019 C1024 0.949 . S
H1020 C1026 0.950 . S
H1021 C1027 0.950 . S
H1022 C1028 0.949 . S
C1023 H1018 0.950 . S
C1023 C1025 1.327 . S
C1023 C1029 1.429 . S
C1024 C1016 1.574 . S
C1024 H1019 0.949 . S
C1024 C1030 1.368 . S
C1025 C1009 1.349 . S
C1025 H1017 0.950 . S
C1025 C1023 1.327 . S
C1026 C1014 1.349 . S
C1026 H1020 0.950 . S
C1026 C1027 1.327 . S
C1027 H1021 0.950 . S
C1027 C1026 1.327 . S
C1027 C1031 1.429 . S
C1028 C1011 1.574 . S
C1028 H1022 0.949 . S
C1028 C1032 1.368 . S
C1029 C1010 1.429 . S
C1029 C1023 1.429 . S
C1029 C1030 1.523 . S
C1030 C1011 1.368 . S
C1030 C1024 1.368 . S
C1030 C1029 1.523 . S
C1031 C1015 1.429 . S
C1031 C1027 1.429 . S
C1031 C1032 1.523 . S
C1032 C1016 1.368 . S
C1032 C1028 1.368 . S
C1032 C1031 1.523 . S
H1033 C1008 0.950 . S
H1034 C1010 0.950 . S
H1035 C1011 0.949 . S
H1036 C1013 0.950 . S
H1037 C1015 0.950 . S
C1038 C1039 1.349 . S
C1038 C1040 1.327 . S
C1038 H1063 0.950 . S
C1039 C1038 1.349 . S
C1039 C1055 1.349 . S
C1040 C1038 1.327 . S
C1040 C1059 1.429 . S
C1040 H1064 0.950 . S
C1041 C1058 1.574 . S
C1041 C1060 1.368 . S
C1041 H1065 0.949 . S
H1042 C1046 0.949 . S
C1043 C1044 1.349 . S
C1043 C1045 1.327 . S
C1043 H1066 0.950 . S
C1044 C1043 1.349 . S
C1044 C1056 1.349 . S
C1045 C1043 1.327 . S
C1045 C1061 1.429 . S
C1045 H1067 0.950 . S
C1046 H1042 0.949 . S
C1046 C1054 1.574 . S
C1046 C1062 1.368 . S
H1047 C1055 0.950 . S
H1048 C1053 0.950 . S
H1049 C1054 0.949 . S
H1050 C1056 0.950 . S
H1051 C1057 0.950 . S
H1052 C1058 0.949 . S
C1053 H1048 0.950 . S
C1053 C1055 1.327 . S
C1053 C1059 1.429 . S
C1054 C1046 1.574 . S
C1054 H1049 0.949 . S
C1054 C1060 1.368 . S
C1055 C1039 1.349 . S
C1055 H1047 0.950 . S
C1055 C1053 1.327 . S
C1056 C1044 1.349 . S
C1056 H1050 0.950 . S
C1056 C1057 1.327 . S
C1057 H1051 0.950 . S
C1057 C1056 1.327 . S
C1057 C1061 1.429 . S
C1058 C1041 1.574 . S
C1058 H1052 0.949 . S
C1058 C1062 1.368 . S
C1059 C1040 1.429 . S
C1059 C1053 1.429 . S
C1059 C1060 1.523 . S
C1060 C1041 1.368 . S
C1060 C1054 1.368 . S
C1060 C1059 1.523 . S
C1061 C1045 1.429 . S
C1061 C1057 1.429 . S
C1061 C1062 1.523 . S
C1062 C1046 1.368 . S
C1062 C1058 1.368 . S
C1062 C1061 1.523 . S
H1063 C1038 0.950 . S
H1064 C1040 0.950 . S
H1065 C1041 0.949 . S
H1066 C1043 0.950 . S
H1067 C1045 0.950 . S
C1068 C1069 1.349 . S
C1068 C1070 1.327 . S
C1068 H1093 0.950 . S
C1069 C1068 1.349 . S
C1069 C1085 1.349 . S
C1070 C1068 1.327 . S
C1070 C1089 1.429 . S
C1070 H1094 0.950 . S
C1071 C1088 1.574 . S
C1071 C1090 1.368 . S
C1071 H1095 0.949 . S
H1072 C1076 0.949 . S
C1073 C1074 1.349 . S
C1073 C1075 1.327 . S
C1073 H1096 0.950 . S
C1074 C1073 1.349 . S
C1074 C1086 1.349 . S
C1075 C1073 1.327 . S
C1075 C1091 1.429 . S
C1075 H1097 0.950 . S
C1076 H1072 0.949 . S
C1076 C1084 1.574 . S
C1076 C1092 1.368 . S
H1077 C1085 0.950 . S
H1078 C1083 0.950 . S
H1079 C1084 0.949 . S
H1080 C1086 0.950 . S
H1081 C1087 0.950 . S
H1082 C1088 0.949 . S
C1083 H1078 0.950 . S
C1083 C1085 1.327 . S
C1083 C1089 1.429 . S
C1084 C1076 1.574 . S
C1084 H1079 0.949 . S
C1084 C1090 1.368 . S
C1085 C1069 1.349 . S
C1085 H1077 0.950 . S
C1085 C1083 1.327 . S
C1086 C1074 1.349 . S
C1086 H1080 0.950 . S
C1086 C1087 1.327 . S
C1087 H1081 0.950 . S
C1087 C1086 1.327 . S
C1087 C1091 1.429 . S
C1088 C1071 1.574 . S
C1088 H1082 0.949 . S
C1088 C1092 1.368 . S
C1089 C1070 1.429 . S
C1089 C1083 1.429 . S
C1089 C1090 1.523 . S
C1090 C1071 1.368 . S
C1090 C1084 1.368 . S
C1090 C1089 1.523 . S
C1091 C1075 1.429 . S
C1091 C1087 1.429 . S
C1091 C1092 1.523 . S
C1092 C1076 1.368 . S
C1092 C1088 1.368 . S
C1092 C1091 1.523 . S
H1093 C1068 0.950 . S
H1094 C1070 0.950 . S
H1095 C1071 0.949 . S
H1096 C1073 0.950 . S
H1097 C1075 0.950 . S
C1098 C1099 1.349 . S
C1098 C1100 1.327 . S
C1098 H1123 0.950 . S
C1099 C1098 1.349 . S
C1099 C1115 1.349 . S
C1100 C1098 1.327 . S
C1100 C1119 1.429 . S
C1100 H1124 0.950 . S
C1101 C1118 1.574 . S
C1101 C1120 1.368 . S
C1101 H1125 0.949 . S
H1102 C1106 0.949 . S
C1103 C1104 1.349 . S
C1103 C1105 1.327 . S
C1103 H1126 0.950 . S
C1104 C1103 1.349 . S
C1104 C1116 1.349 . S
C1105 C1103 1.327 . S
C1105 C1121 1.429 . S
C1105 H1127 0.950 . S
C1106 H1102 0.949 . S
C1106 C1114 1.574 . S
C1106 C1122 1.368 . S
H1107 C1115 0.950 . S
H1108 C1113 0.950 . S
H1109 C1114 0.949 . S
H1110 C1116 0.950 . S
H1111 C1117 0.950 . S
H1112 C1118 0.949 . S
C1113 H1108 0.950 . S
C1113 C1115 1.327 . S
C1113 C1119 1.429 . S
C1114 C1106 1.574 . S
C1114 H1109 0.949 . S
C1114 C1120 1.368 . S
C1115 C1099 1.349 . S
C1115 H1107 0.950 . S
C1115 C1113 1.327 . S
C1116 C1104 1.349 . S
C1116 H1110 0.950 . S
C1116 C1117 1.327 . S
C1117 H1111 0.950 . S
C1117 C1116 1.327 . S
C1117 C1121 1.429 . S
C1118 C1101 1.574 . S
C1118 H1112 0.949 . S
C1118 C1122 1.368 . S
C1119 C1100 1.429 . S
C1119 C1113 1.429 . S
C1119 C1120 1.523 . S
C1120 C1101 1.368 . S
C1120 C1114 1.368 . S
C1120 C1119 1.523 . S
C1121 C1105 1.429 . S
C1121 C1117 1.429 . S
C1121 C1122 1.523 . S
C1122 C1106 1.368 . S
C1122 C1118 1.368 . S
C1122 C1121 1.523 . S
H1123 C1098 0.950 . S
H1124 C1100 0.950 . S
H1125 C1101 0.949 . S
H1126 C1103 0.950 . S
H1127 C1105 0.950 . S
C1128 C1129 1.349 . S
C1128 C1130 1.327 . S
C1128 H1153 0.950 . S
C1129 C1128 1.349 . S
C1129 C1145 1.349 . S
C1130 C1128 1.327 . S
C1130 C1149 1.429 . S
C1130 H1154 0.950 . S
C1131 C1148 1.574 . S
C1131 C1150 1.368 . S
C1131 H1155 0.949 . S
H1132 C1136 0.949 . S
C1133 C1134 1.349 . S
C1133 C1135 1.327 . S
C1133 H1156 0.950 . S
C1134 C1133 1.349 . S
C1134 C1146 1.349 . S
C1135 C1133 1.327 . S
C1135 C1151 1.429 . S
C1135 H1157 0.950 . S
C1136 H1132 0.949 . S
C1136 C1144 1.574 . S
C1136 C1152 1.368 . S
H1137 C1145 0.950 . S
H1138 C1143 0.950 . S
H1139 C1144 0.949 . S
H1140 C1146 0.950 . S
H1141 C1147 0.950 . S
H1142 C1148 0.949 . S
C1143 H1138 0.950 . S
C1143 C1145 1.327 . S
C1143 C1149 1.429 . S
C1144 C1136 1.574 . S
C1144 H1139 0.949 . S
C1144 C1150 1.368 . S
C1145 C1129 1.349 . S
C1145 H1137 0.950 . S
C1145 C1143 1.327 . S
C1146 C1134 1.349 . S
C1146 H1140 0.950 . S
C1146 C1147 1.327 . S
C1147 H1141 0.950 . S
C1147 C1146 1.327 . S
C1147 C1151 1.429 . S
C1148 C1131 1.574 . S
C1148 H1142 0.949 . S
C1148 C1152 1.368 . S
C1149 C1130 1.429 . S
C1149 C1143 1.429 . S
C1149 C1150 1.523 . S
C1150 C1131 1.368 . S
C1150 C1144 1.368 . S
C1150 C1149 1.523 . S
C1151 C1135 1.429 . S
C1151 C1147 1.429 . S
C1151 C1152 1.523 . S
C1152 C1136 1.368 . S
C1152 C1148 1.368 . S
C1152 C1151 1.523 . S
H1153 C1128 0.950 . S
H1154 C1130 0.950 . S
H1155 C1131 0.949 . S
H1156 C1133 0.950 . S
H1157 C1135 0.950 . S
C1158 C1159 1.349 . S
C1158 C1160 1.327 . S
C1158 H1183 0.950 . S
C1159 C1158 1.349 . S
C1159 C1175 1.349 . S
C1160 C1158 1.327 . S
C1160 C1179 1.429 . S
C1160 H1184 0.950 . S
C1161 C1178 1.574 . S
C1161 C1180 1.368 . S
C1161 H1185 0.949 . S
H1162 C1166 0.949 . S
C1163 C1164 1.349 . S
C1163 C1165 1.327 . S
C1163 H1186 0.950 . S
C1164 C1163 1.349 . S
C1164 C1176 1.349 . S
C1165 C1163 1.327 . S
C1165 C1181 1.429 . S
C1165 H1187 0.950 . S
C1166 H1162 0.949 . S
C1166 C1174 1.574 . S
C1166 C1182 1.368 . S
H1167 C1175 0.950 . S
H1168 C1173 0.950 . S
H1169 C1174 0.949 . S
H1170 C1176 0.950 . S
H1171 C1177 0.950 . S
H1172 C1178 0.949 . S
C1173 H1168 0.950 . S
C1173 C1175 1.327 . S
C1173 C1179 1.429 . S
C1174 C1166 1.574 . S
C1174 H1169 0.949 . S
C1174 C1180 1.368 . S
C1175 C1159 1.349 . S
C1175 H1167 0.950 . S
C1175 C1173 1.327 . S
C1176 C1164 1.349 . S
C1176 H1170 0.950 . S
C1176 C1177 1.327 . S
C1177 H1171 0.950 . S
C1177 C1176 1.327 . S
C1177 C1181 1.429 . S
C1178 C1161 1.574 . S
C1178 H1172 0.949 . S
C1178 C1182 1.368 . S
C1179 C1160 1.429 . S
C1179 C1173 1.429 . S
C1179 C1180 1.523 . S
C1180 C1161 1.368 . S
C1180 C1174 1.368 . S
C1180 C1179 1.523 . S
C1181 C1165 1.429 . S
C1181 C1177 1.429 . S
C1181 C1182 1.523 . S
C1182 C1166 1.368 . S
C1182 C1178 1.368 . S
C1182 C1181 1.523 . S
H1183 C1158 0.950 . S
H1184 C1160 0.950 . S
H1185 C1161 0.949 . S
H1186 C1163 0.950 . S
H1187 C1165 0.950 . S
C1188 C1189 1.349 . S
C1188 C1190 1.327 . S
C1188 H1213 0.950 . S
C1189 C1188 1.349 . S
C1189 C1205 1.349 . S
C1190 C1188 1.327 . S
C1190 C1209 1.429 . S
C1190 H1214 0.950 . S
C1191 C1208 1.574 . S
C1191 C1210 1.368 . S
C1191 H1215 0.949 . S
H1192 C1196 0.949 . S
C1193 C1194 1.349 . S
C1193 C1195 1.327 . S
C1193 H1216 0.950 . S
C1194 C1193 1.349 . S
C1194 C1206 1.349 . S
C1195 C1193 1.327 . S
C1195 C1211 1.429 . S
C1195 H1217 0.950 . S
C1196 H1192 0.949 . S
C1196 C1204 1.574 . S
C1196 C1212 1.368 . S
H1197 C1205 0.950 . S
H1198 C1203 0.950 . S
H1199 C1204 0.949 . S
H1200 C1206 0.950 . S
H1201 C1207 0.950 . S
H1202 C1208 0.949 . S
C1203 H1198 0.950 . S
C1203 C1205 1.327 . S
C1203 C1209 1.429 . S
C1204 C1196 1.574 . S
C1204 H1199 0.949 . S
C1204 C1210 1.368 . S
C1205 C1189 1.349 . S
C1205 H1197 0.950 . S
C1205 C1203 1.327 . S
C1206 C1194 1.349 . S
C1206 H1200 0.950 . S
C1206 C1207 1.327 . S
C1207 H1201 0.950 . S
C1207 C1206 1.327 . S
C1207 C1211 1.429 . S
C1208 C1191 1.574 . S
C1208 H1202 0.949 . S
C1208 C1212 1.368 . S
C1209 C1190 1.429 . S
C1209 C1203 1.429 . S
C1209 C1210 1.523 . S
C1210 C1191 1.368 . S
C1210 C1204 1.368 . S
C1210 C1209 1.523 . S
C1211 C1195 1.429 . S
C1211 C1207 1.429 . S
C1211 C1212 1.523 . S
C1212 C1196 1.368 . S
C1212 C1208 1.368 . S
C1212 C1211 1.523 . S
H1213 C1188 0.950 . S
H1214 C1190 0.950 . S
H1215 C1191 0.949 . S
H1216 C1193 0.950 . S
H1217 C1195 0.950 . S
C1218 C1219 1.349 . S
C1218 C1220 1.327 . S
C1218 H1243 0.950 . S
C1219 C1218 1.349 . S
C1219 C1235 1.349 . S
C1220 C1218 1.327 . S
C1220 C1239 1.429 . S
C1220 H1244 0.950 . S
C1221 C1238 1.574 . S
C1221 C1240 1.368 . S
C1221 H1245 0.949 . S
H1222 C1226 0.949 . S
C1223 C1224 1.349 . S
C1223 C1225 1.327 . S
C1223 H1246 0.950 . S
C1224 C1223 1.349 . S
C1224 C1236 1.349 . S
C1225 C1223 1.327 . S
C1225 C1241 1.429 . S
C1225 H1247 0.950 . S
C1226 H1222 0.949 . S
C1226 C1234 1.574 . S
C1226 C1242 1.368 . S
H1227 C1235 0.950 . S
H1228 C1233 0.950 . S
H1229 C1234 0.949 . S
H1230 C1236 0.950 . S
H1231 C1237 0.950 . S
H1232 C1238 0.949 . S
C1233 H1228 0.950 . S
C1233 C1235 1.327 . S
C1233 C1239 1.429 . S
C1234 C1226 1.574 . S
C1234 H1229 0.949 . S
C1234 C1240 1.368 . S
C1235 C1219 1.349 . S
C1235 H1227 0.950 . S
C1235 C1233 1.327 . S
C1236 C1224 1.349 . S
C1236 H1230 0.950 . S
C1236 C1237 1.327 . S
C1237 H1231 0.950 . S
C1237 C1236 1.327 . S
C1237 C1241 1.429 . S
C1238 C1221 1.574 . S
C1238 H1232 0.949 . S
C1238 C1242 1.368 . S
C1239 C1220 1.429 . S
C1239 C1233 1.429 . S
C1239 C1240 1.523 . S
C1240 C1221 1.368 . S
C1240 C1234 1.368 . S
C1240 C1239 1.523 . S
C1241 C1225 1.429 . S
C1241 C1237 1.429 . S
C1241 C1242 1.523 . S
C1242 C1226 1.368 . S
C1242 C1238 1.368 . S
C1242 C1241 1.523 . S
H1243 C1218 0.950 . S
H1244 C1220 0.950 . S
H1245 C1221 0.949 . S
H1246 C1223 0.950 . S
H1247 C1225 0.950 . S
C1248 C1249 1.349 . S
C1248 C1250 1.327 . S
C1248 H1273 0.950 . S
C1249 C1248 1.349 . S
C1249 C1265 1.349 . S
C1250 C1248 1.327 . S
C1250 C1269 1.429 . S
C1250 H1274 0.950 . S
C1251 C1268 1.574 . S
C1251 C1270 1.368 . S
C1251 H1275 0.949 . S
H1252 C1256 0.949 . S
C1253 C1254 1.349 . S
C1253 C1255 1.327 . S
C1253 H1276 0.950 . S
C1254 C1253 1.349 . S
C1254 C1266 1.349 . S
C1255 C1253 1.327 . S
C1255 C1271 1.429 . S
C1255 H1277 0.950 . S
C1256 H1252 0.949 . S
C1256 C1264 1.574 . S
C1256 C1272 1.368 . S
H1257 C1265 0.950 . S
H1258 C1263 0.950 . S
H1259 C1264 0.949 . S
H1260 C1266 0.950 . S
H1261 C1267 0.950 . S
H1262 C1268 0.949 . S
C1263 H1258 0.950 . S
C1263 C1265 1.327 . S
C1263 C1269 1.429 . S
C1264 C1256 1.574 . S
C1264 H1259 0.949 . S
C1264 C1270 1.368 . S
C1265 C1249 1.349 . S
C1265 H1257 0.950 . S
C1265 C1263 1.327 . S
C1266 C1254 1.349 . S
C1266 H1260 0.950 . S
C1266 C1267 1.327 . S
C1267 H1261 0.950 . S
C1267 C1266 1.327 . S
C1267 C1271 1.429 . S
C1268 C1251 1.574 . S
C1268 H1262 0.949 . S
C1268 C1272 1.368 . S
C1269 C1250 1.429 . S
C1269 C1263 1.429 . S
C1269 C1270 1.523 . S
C1270 C1251 1.368 . S
C1270 C1264 1.368 . S
C1270 C1269 1.523 . S
C1271 C1255 1.429 . S
C1271 C1267 1.429 . S
C1271 C1272 1.523 . S
C1272 C1256 1.368 . S
C1272 C1268 1.368 . S
C1272 C1271 1.523 . S
H1273 C1248 0.950 . S
H1274 C1250 0.950 . S
H1275 C1251 0.949 . S
H1276 C1253 0.950 . S
H1277 C1255 0.950 . S
C1278 C1279 1.349 . S
C1278 C1280 1.327 . S
C1278 H1303 0.950 . S
C1279 C1278 1.349 . S
C1279 C1295 1.349 . S
C1280 C1278 1.327 . S
C1280 C1299 1.429 . S
C1280 H1304 0.950 . S
C1281 C1298 1.574 . S
C1281 C1300 1.368 . S
C1281 H1305 0.949 . S
H1282 C1286 0.949 . S
C1283 C1284 1.349 . S
C1283 C1285 1.327 . S
C1283 H1306 0.950 . S
C1284 C1283 1.349 . S
C1284 C1296 1.349 . S
C1285 C1283 1.327 . S
C1285 C1301 1.429 . S
C1285 H1307 0.950 . S
C1286 H1282 0.949 . S
C1286 C1294 1.574 . S
C1286 C1302 1.368 . S
H1287 C1295 0.950 . S
H1288 C1293 0.950 . S
H1289 C1294 0.949 . S
H1290 C1296 0.950 . S
H1291 C1297 0.950 . S
H1292 C1298 0.949 . S
C1293 H1288 0.950 . S
C1293 C1295 1.327 . S
C1293 C1299 1.429 . S
C1294 C1286 1.574 . S
C1294 H1289 0.949 . S
C1294 C1300 1.368 . S
C1295 C1279 1.349 . S
C1295 H1287 0.950 . S
C1295 C1293 1.327 . S
C1296 C1284 1.349 . S
C1296 H1290 0.950 . S
C1296 C1297 1.327 . S
C1297 H1291 0.950 . S
C1297 C1296 1.327 . S
C1297 C1301 1.429 . S
C1298 C1281 1.574 . S
C1298 H1292 0.949 . S
C1298 C1302 1.368 . S
C1299 C1280 1.429 . S
C1299 C1293 1.429 . S
C1299 C1300 1.523 . S
C1300 C1281 1.368 . S
C1300 C1294 1.368 . S
C1300 C1299 1.523 . S
C1301 C1285 1.429 . S
C1301 C1297 1.429 . S
C1301 C1302 1.523 . S
C1302 C1286 1.368 . S
C1302 C1298 1.368 . S
C1302 C1301 1.523 . S
H1303 C1278 0.950 . S
H1304 C1280 0.950 . S
H1305 C1281 0.949 . S
H1306 C1283 0.950 . S
H1307 C1285 0.950 . S
C1308 C1309 1.349 . S
C1308 C1310 1.327 . S
C1308 H1333 0.950 . S
C1309 C1308 1.349 . S
C1309 C1325 1.349 . S
C1310 C1308 1.327 . S
C1310 C1329 1.429 . S
C1310 H1334 0.950 . S
C1311 C1328 1.574 . S
C1311 C1330 1.368 . S
C1311 H1335 0.949 . S
H1312 C1316 0.949 . S
C1313 C1314 1.349 . S
C1313 C1315 1.327 . S
C1313 H1336 0.950 . S
C1314 C1313 1.349 . S
C1314 C1326 1.349 . S
C1315 C1313 1.327 . S
C1315 C1331 1.429 . S
C1315 H1337 0.950 . S
C1316 H1312 0.949 . S
C1316 C1324 1.574 . S
C1316 C1332 1.368 . S
H1317 C1325 0.950 . S
H1318 C1323 0.950 . S
H1319 C1324 0.949 . S
H1320 C1326 0.950 . S
H1321 C1327 0.950 . S
H1322 C1328 0.949 . S
C1323 H1318 0.950 . S
C1323 C1325 1.327 . S
C1323 C1329 1.429 . S
C1324 C1316 1.574 . S
C1324 H1319 0.949 . S
C1324 C1330 1.368 . S
C1325 C1309 1.349 . S
C1325 H1317 0.950 . S
C1325 C1323 1.327 . S
C1326 C1314 1.349 . S
C1326 H1320 0.950 . S
C1326 C1327 1.327 . S
C1327 H1321 0.950 . S
C1327 C1326 1.327 . S
C1327 C1331 1.429 . S
C1328 C1311 1.574 . S
C1328 H1322 0.949 . S
C1328 C1332 1.368 . S
C1329 C1310 1.429 . S
C1329 C1323 1.429 . S
C1329 C1330 1.523 . S
C1330 C1311 1.368 . S
C1330 C1324 1.368 . S
C1330 C1329 1.523 . S
C1331 C1315 1.429 . S
C1331 C1327 1.429 . S
C1331 C1332 1.523 . S
C1332 C1316 1.368 . S
C1332 C1328 1.368 . S
C1332 C1331 1.523 . S
H1333 C1308 0.950 . S
H1334 C1310 0.950 . S
H1335 C1311 0.949 . S
H1336 C1313 0.950 . S
H1337 C1315 0.950 . S
C1338 C1339 1.349 . S
C1338 C1340 1.327 . S
C1338 H1363 0.950 . S
C1339 C1338 1.349 . S
C1339 C1355 1.349 . S
C1340 C1338 1.327 . S
C1340 C1359 1.429 . S
C1340 H1364 0.950 . S
C1341 C1358 1.574 . S
C1341 C1360 1.368 . S
C1341 H1365 0.949 . S
H1342 C1346 0.949 . S
C1343 C1344 1.349 . S
C1343 C1345 1.327 . S
C1343 H1366 0.950 . S
C1344 C1343 1.349 . S
C1344 C1356 1.349 . S
C1345 C1343 1.327 . S
C1345 C1361 1.429 . S
C1345 H1367 0.950 . S
C1346 H1342 0.949 . S
C1346 C1354 1.574 . S
C1346 C1362 1.368 . S
H1347 C1355 0.950 . S
H1348 C1353 0.950 . S
H1349 C1354 0.949 . S
H1350 C1356 0.950 . S
H1351 C1357 0.950 . S
H1352 C1358 0.949 . S
C1353 H1348 0.950 . S
C1353 C1355 1.327 . S
C1353 C1359 1.429 . S
C1354 C1346 1.574 . S
C1354 H1349 0.949 . S
C1354 C1360 1.368 . S
C1355 C1339 1.349 . S
C1355 H1347 0.950 . S
C1355 C1353 1.327 . S
C1356 C1344 1.349 . S
C1356 H1350 0.950 . S
C1356 C1357 1.327 . S
C1357 H1351 0.950 . S
C1357 C1356 1.327 . S
C1357 C1361 1.429 . S
C1358 C1341 1.574 . S
C1358 H1352 0.949 . S
C1358 C1362 1.368 . S
C1359 C1340 1.429 . S
C1359 C1353 1.429 . S
C1359 C1360 1.523 . S
C1360 C1341 1.368 . S
C1360 C1354 1.368 . S
C1360 C1359 1.523 . S
C1361 C1345 1.429 . S
C1361 C1357 1.429 . S
C1361 C1362 1.523 . S
C1362 C1346 1.368 . S
C1362 C1358 1.368 . S
C1362 C1361 1.523 . S
H1363 C1338 0.950 . S
H1364 C1340 0.950 . S
H1365 C1341 0.949 . S
H1366 C1343 0.950 . S
H1367 C1345 0.950 . S
C1368 C1369 1.349 . S
C1368 C1370 1.327 . S
C1368 H1393 0.950 . S
C1369 C1368 1.349 . S
C1369 C1385 1.349 . S
C1370 C1368 1.327 . S
C1370 C1389 1.429 . S
C1370 H1394 0.950 . S
C1371 C1388 1.574 . S
C1371 C1390 1.368 . S
C1371 H1395 0.949 . S
H1372 C1376 0.949 . S
C1373 C1374 1.349 . S
C1373 C1375 1.327 . S
C1373 H1396 0.950 . S
C1374 C1373 1.349 . S
C1374 C1386 1.349 . S
C1375 C1373 1.327 . S
C1375 C1391 1.429 . S
C1375 H1397 0.950 . S
C1376 H1372 0.949 . S
C1376 C1384 1.574 . S
C1376 C1392 1.368 . S
H1377 C1385 0.950 . S
H1378 C1383 0.950 . S
H1379 C1384 0.949 . S
H1380 C1386 0.950 . S
H1381 C1387 0.950 . S
H1382 C1388 0.949 . S
C1383 H1378 0.950 . S
C1383 C1385 1.327 . S
C1383 C1389 1.429 . S
C1384 C1376 1.574 . S
C1384 H1379 0.949 . S
C1384 C1390 1.368 . S
C1385 C1369 1.349 . S
C1385 H1377 0.950 . S
C1385 C1383 1.327 . S
C1386 C1374 1.349 . S
C1386 H1380 0.950 . S
C1386 C1387 1.327 . S
C1387 H1381 0.950 . S
C1387 C1386 1.327 . S
C1387 C1391 1.429 . S
C1388 C1371 1.574 . S
C1388 H1382 0.949 . S
C1388 C1392 1.368 . S
C1389 C1370 1.429 . S
C1389 C1383 1.429 . S
C1389 C1390 1.523 . S
C1390 C1371 1.368 . S
C1390 C1384 1.368 . S
C1390 C1389 1.523 . S
C1391 C1375 1.429 . S
C1391 C1387 1.429 . S
C1391 C1392 1.523 . S
C1392 C1376 1.368 . S
C1392 C1388 1.368 . S
C1392 C1391 1.523 . S
H1393 C1368 0.950 . S
H1394 C1370 0.950 . S
H1395 C1371 0.949 . S
H1396 C1373 0.950 . S
H1397 C1375 0.950 . S
C1398 C1399 1.349 . S
C1398 C1400 1.327 . S
C1398 H1423 0.950 . S
C1399 C1398 1.349 . S
C1399 C1415 1.349 . S
C1400 C1398 1.327 . S
C1400 C1419 1.429 . S
C1400 H1424 0.950 . S
C1401 C1418 1.574 . S
C1401 C1420 1.368 . S
C1401 H1425 0.949 . S
H1402 C1406 0.949 . S
C1403 C1404 1.349 . S
C1403 C1405 1.327 . S
C1403 H1426 0.950 . S
C1404 C1403 1.349 . S
C1404 C1416 1.349 . S
C1405 C1403 1.327 . S
C1405 C1421 1.429 . S
C1405 H1427 0.950 . S
C1406 H1402 0.949 . S
C1406 C1414 1.574 . S
C1406 C1422 1.368 . S
H1407 C1415 0.950 . S
H1408 C1413 0.950 . S
H1409 C1414 0.949 . S
H1410 C1416 0.950 . S
H1411 C1417 0.950 . S
H1412 C1418 0.949 . S
C1413 H1408 0.950 . S
C1413 C1415 1.327 . S
C1413 C1419 1.429 . S
C1414 C1406 1.574 . S
C1414 H1409 0.949 . S
C1414 C1420 1.368 . S
C1415 C1399 1.349 . S
C1415 H1407 0.950 . S
C1415 C1413 1.327 . S
C1416 C1404 1.349 . S
C1416 H1410 0.950 . S
C1416 C1417 1.327 . S
C1417 H1411 0.950 . S
C1417 C1416 1.327 . S
C1417 C1421 1.429 . S
C1418 C1401 1.574 . S
C1418 H1412 0.949 . S
C1418 C1422 1.368 . S
C1419 C1400 1.429 . S
C1419 C1413 1.429 . S
C1419 C1420 1.523 . S
C1420 C1401 1.368 . S
C1420 C1414 1.368 . S
C1420 C1419 1.523 . S
C1421 C1405 1.429 . S
C1421 C1417 1.429 . S
C1421 C1422 1.523 . S
C1422 C1406 1.368 . S
C1422 C1418 1.368 . S
C1422 C1421 1.523 . S
H1423 C1398 0.950 . S
H1424 C1400 0.950 . S
H1425 C1401 0.949 . S
H1426 C1403 0.950 . S
H1427 C1405 0.950 . S
C1428 C1429 1.349 . S
C1428 C1430 1.327 . S
C1428 H1453 0.950 . S
C1429 C1428 1.349 . S
C1429 C1445 1.349 . S
C1430 C1428 1.327 . S
C1430 C1449 1.429 . S
C1430 H1454 0.950 . S
C1431 C1448 1.574 . S
C1431 C1450 1.368 . S
C1431 H1455 0.949 . S
H1432 C1436 0.949 . S
C1433 C1434 1.349 . S
C1433 C1435 1.327 . S
C1433 H1456 0.950 . S
C1434 C1433 1.349 . S
C1434 C1446 1.349 . S
C1435 C1433 1.327 . S
C1435 C1451 1.429 . S
C1435 H1457 0.950 . S
C1436 H1432 0.949 . S
C1436 C1444 1.574 . S
C1436 C1452 1.368 . S
H1437 C1445 0.950 . S
H1438 C1443 0.950 . S
H1439 C1444 0.949 . S
H1440 C1446 0.950 . S
H1441 C1447 0.950 . S
H1442 C1448 0.949 . S
C1443 H1438 0.950 . S
C1443 C1445 1.327 . S
C1443 C1449 1.429 . S
C1444 C1436 1.574 . S
C1444 H1439 0.949 . S
C1444 C1450 1.368 . S
C1445 C1429 1.349 . S
C1445 H1437 0.950 . S
C1445 C1443 1.327 . S
C1446 C1434 1.349 . S
C1446 H1440 0.950 . S
C1446 C1447 1.327 . S
C1447 H1441 0.950 . S
C1447 C1446 1.327 . S
C1447 C1451 1.429 . S
C1448 C1431 1.574 . S
C1448 H1442 0.949 . S
C1448 C1452 1.368 . S
C1449 C1430 1.429 . S
C1449 C1443 1.429 . S
C1449 C1450 1.523 . S
C1450 C1431 1.368 . S
C1450 C1444 1.368 . S
C1450 C1449 1.523 . S
C1451 C1435 1.429 . S
C1451 C1447 1.429 . S
C1451 C1452 1.523 . S
C1452 C1436 1.368 . S
C1452 C1448 1.368 . S
C1452 C1451 1.523 . S
H1453 C1428 0.950 . S
H1454 C1430 0.950 . S
H1455 C1431 0.949 . S
H1456 C1433 0.950 . S
H1457 C1435 0.950 . S
C1458 C1459 1.349 . S
C1458 C1460 1.327 . S
C1458 H1483 0.950 . S
C1459 C1458 1.349 . S
C1459 C1475 1.349 . S
C1460 C1458 1.327 . S
C1460 C1479 1.429 . S
C1460 H1484 0.950 . S
C1461 C1478 1.574 . S
C1461 C1480 1.368 . S
C1461 H1485 0.949 . S
H1462 C1466 0.949 . S
C1463 C1464 1.349 . S
C1463 C1465 1.327 . S
C1463 H1486 0.950 . S
C1464 C1463 1.349 . S
C1464 C1476 1.349 . S
C1465 C1463 1.327 . S
C1465 C1481 1.429 . S
C1465 H1487 0.950 . S
C1466 H1462 0.949 . S
C1466 C1474 1.574 . S
C1466 C1482 1.368 . S
H1467 C1475 0.950 . S
H1468 C1473 0.950 . S
H1469 C1474 0.949 . S
H1470 C1476 0.950 . S
H1471 C1477 0.950 . S
H1472 C1478 0.949 . S
C1473 H1468 0.950 . S
C1473 C1475 1.327 . S
C1473 C1479 1.429 . S
C1474 C1466 1.574 . S
C1474 H1469 0.949 . S
C1474 C1480 1.368 . S
C1475 C1459 1.349 . S
C1475 H1467 0.950 . S
C1475 C1473 1.327 . S
C1476 C1464 1.349 . S
C1476 H1470 0.950 . S
C1476 C1477 1.327 . S
C1477 H1471 0.950 . S
C1477 C1476 1.327 . S
C1477 C1481 1.429 . S
C1478 C1461 1.574 . S
C1478 H1472 0.949 . S
C1478 C1482 1.368 . S
C1479 C1460 1.429 . S
C1479 C1473 1.429 . S
C1479 C1480 1.523 . S
C1480 C1461 1.368 . S
C1480 C1474 1.368 . S
C1480 C1479 1.523 . S
C1481 C1465 1.429 . S
C1481 C1477 1.429 . S
C1481 C1482 1.523 . S
C1482 C1466 1.368 . S
C1482 C1478 1.368 . S
C1482 C1481 1.523 . S
H1483 C1458 0.950 . S
H1484 C1460 0.950 . S
H1485 C1461 0.949 . S
H1486 C1463 0.950 . S
H1487 C1465 0.950 . S
C1488 C1489 1.349 . S
C1488 C1490 1.327 . S
C1488 H1513 0.950 . S
C1489 C1488 1.349 . S
C1489 C1505 1.349 . S
C1490 C1488 1.327 . S
C1490 C1509 1.429 . S
C1490 H1514 0.950 . S
C1491 C1508 1.574 . S
C1491 C1510 1.368 . S
C1491 H1515 0.949 . S
H1492 C1496 0.949 . S
C1493 C1494 1.349 . S
C1493 C1495 1.327 . S
C1493 H1516 0.950 . S
C1494 C1493 1.349 . S
C1494 C1506 1.349 . S
C1495 C1493 1.327 . S
C1495 C1511 1.429 . S
C1495 H1517 0.950 . S
C1496 H1492 0.949 . S
C1496 C1504 1.574 . S
C1496 C1512 1.368 . S
H1497 C1505 0.950 . S
H1498 C1503 0.950 . S
H1499 C1504 0.949 . S
H1500 C1506 0.950 . S
H1501 C1507 0.950 . S
H1502 C1508 0.949 . S
C1503 H1498 0.950 . S
C1503 C1505 1.327 . S
C1503 C1509 1.429 . S
C1504 C1496 1.574 . S
C1504 H1499 0.949 . S
C1504 C1510 1.368 . S
C1505 C1489 1.349 . S
C1505 H1497 0.950 . S
C1505 C1503 1.327 . S
C1506 C1494 1.349 . S
C1506 H1500 0.950 . S
C1506 C1507 1.327 . S
C1507 H1501 0.950 . S
C1507 C1506 1.327 . S
C1507 C1511 1.429 . S
C1508 C1491 1.574 . S
C1508 H1502 0.949 . S
C1508 C1512 1.368 . S
C1509 C1490 1.429 . S
C1509 C1503 1.429 . S
C1509 C1510 1.523 . S
C1510 C1491 1.368 . S
C1510 C1504 1.368 . S
C1510 C1509 1.523 . S
C1511 C1495 1.429 . S
C1511 C1507 1.429 . S
C1511 C1512 1.523 . S
C1512 C1496 1.368 . S
C1512 C1508 1.368 . S
C1512 C1511 1.523 . S
H1513 C1488 0.950 . S
H1514 C1490 0.950 . S
H1515 C1491 0.949 . S
H1516 C1493 0.950 . S
H1517 C1495 0.950 . S
C1518 C1519 1.349 . S
C1518 C1520 1.327 . S
C1518 H1543 0.950 . S
C1519 C1518 1.349 . S
C1519 C1535 1.349 . S
C1520 C1518 1.327 . S
C1520 C1539 1.429 . S
C1520 H1544 0.950 . S
C1521 C1538 1.574 . S
C1521 C1540 1.368 . S
C1521 H1545 0.949 . S
H1522 C1526 0.949 . S
C1523 C1524 1.349 . S
C1523 C1525 1.327 . S
C1523 H1546 0.950 . S
C1524 C1523 1.349 . S
C1524 C1536 1.349 . S
C1525 C1523 1.327 . S
C1525 C1541 1.429 . S
C1525 H1547 0.950 . S
C1526 H1522 0.949 . S
C1526 C1534 1.574 . S
C1526 C1542 1.368 . S
H1527 C1535 0.950 . S
H1528 C1533 0.950 . S
H1529 C1534 0.949 . S
H1530 C1536 0.950 . S
H1531 C1537 0.950 . S
H1532 C1538 0.949 . S
C1533 H1528 0.950 . S
C1533 C1535 1.327 . S
C1533 C1539 1.429 . S
C1534 C1526 1.574 . S
C1534 H1529 0.949 . S
C1534 C1540 1.368 . S
C1535 C1519 1.349 . S
C1535 H1527 0.950 . S
C1535 C1533 1.327 . S
C1536 C1524 1.349 . S
C1536 H1530 0.950 . S
C1536 C1537 1.327 . S
C1537 H1531 0.950 . S
C1537 C1536 1.327 . S
C1537 C1541 1.429 . S
C1538 C1521 1.574 . S
C1538 H1532 0.949 . S
C1538 C1542 1.368 . S
C1539 C1520 1.429 . S
C1539 C1533 1.429 . S
C1539 C1540 1.523 . S
C1540 C1521 1.368 . S
C1540 C1534 1.368 . S
C1540 C1539 1.523 . S
C1541 C1525 1.429 . S
C1541 C1537 1.429 . S
C1541 C1542 1.523 . S
C1542 C1526 1.368 . S
C1542 C1538 1.368 . S
C1542 C1541 1.523 . S
H1543 C1518 0.950 . S
H1544 C1520 0.950 . S
H1545 C1521 0.949 . S
H1546 C1523 0.950 . S
H1547 C1525 0.950 . S
C1548 C1549 1.349 . S
C1548 C1550 1.327 . S
C1548 H1573 0.950 . S
C1549 C1548 1.349 . S
C1549 C1565 1.349 . S
C1550 C1548 1.327 . S
C1550 C1569 1.429 . S
C1550 H1574 0.950 . S
C1551 C1568 1.574 . S
C1551 C1570 1.368 . S
C1551 H1575 0.949 . S
H1552 C1556 0.949 . S
C1553 C1554 1.349 . S
C1553 C1555 1.327 . S
C1553 H1576 0.950 . S
C1554 C1553 1.349 . S
C1554 C1566 1.349 . S
C1555 C1553 1.327 . S
C1555 C1571 1.429 . S
C1555 H1577 0.950 . S
C1556 H1552 0.949 . S
C1556 C1564 1.574 . S
C1556 C1572 1.368 . S
H1557 C1565 0.950 . S
H1558 C1563 0.950 . S
H1559 C1564 0.949 . S
H1560 C1566 0.950 . S
H1561 C1567 0.950 . S
H1562 C1568 0.949 . S
C1563 H1558 0.950 . S
C1563 C1565 1.327 . S
C1563 C1569 1.429 . S
C1564 C1556 1.574 . S
C1564 H1559 0.949 . S
C1564 C1570 1.368 . S
C1565 C1549 1.349 . S
C1565 H1557 0.950 . S
C1565 C1563 1.327 . S
C1566 C1554 1.349 . S
C1566 H1560 0.950 . S
C1566 C1567 1.327 . S
C1567 H1561 0.950 . S
C1567 C1566 1.327 . S
C1567 C1571 1.429 . S
C1568 C1551 1.574 . S
C1568 H1562 0.949 . S
C1568 C1572 1.368 . S
C1569 C1550 1.429 . S
C1569 C1563 1.429 . S
C1569 C1570 1.523 . S
C1570 C1551 1.368 . S
C1570 C1564 1.368 . S
C1570 C1569 1.523 . S
C1571 C1555 1.429 . S
C1571 C1567 1.429 . S
C1571 C1572 1.523 . S
C1572 C1556 1.368 . S
C1572 C1568 1.368 . S
C1572 C1571 1.523 . S
H1573 C1548 0.950 . S
H1574 C1550 0.950 . S
H1575 C1551 0.949 . S
H1576 C1553 0.950 . S
H1577 C1555 0.950 . S
C1578 C1579 1.349 . S
C1578 C1580 1.327 . S
C1578 H1603 0.950 . S
C1579 C1578 1.349 . S
C1579 C1595 1.349 . S
C1580 C1578 1.327 . S
C1580 C1599 1.429 . S
C1580 H1604 0.950 . S
C1581 C1598 1.574 . S
C1581 C1600 1.368 . S
C1581 H1605 0.949 . S
H1582 C1586 0.949 . S
C1583 C1584 1.349 . S
C1583 C1585 1.327 . S
C1583 H1606 0.950 . S
C1584 C1583 1.349 . S
C1584 C1596 1.349 . S
C1585 C1583 1.327 . S
C1585 C1601 1.429 . S
C1585 H1607 0.950 . S
C1586 H1582 0.949 . S
C1586 C1594 1.574 . S
C1586 C1602 1.368 . S
H1587 C1595 0.950 . S
H1588 C1593 0.950 . S
H1589 C1594 0.949 . S
H1590 C1596 0.950 . S
H1591 C1597 0.950 . S
H1592 C1598 0.949 . S
C1593 H1588 0.950 . S
C1593 C1595 1.327 . S
C1593 C1599 1.429 . S
C1594 C1586 1.574 . S
C1594 H1589 0.949 . S
C1594 C1600 1.368 . S
C1595 C1579 1.349 . S
C1595 H1587 0.950 . S
C1595 C1593 1.327 . S
C1596 C1584 1.349 . S
C1596 H1590 0.950 . S
C1596 C1597 1.327 . S
C1597 H1591 0.950 . S
C1597 C1596 1.327 . S
C1597 C1601 1.429 . S
C1598 C1581 1.574 . S
C1598 H1592 0.949 . S
C1598 C1602 1.368 . S
C1599 C1580 1.429 . S
C1599 C1593 1.429 . S
C1599 C1600 1.523 . S
C1600 C1581 1.368 . S
C1600 C1594 1.368 . S
C1600 C1599 1.523 . S
C1601 C1585 1.429 . S
C1601 C1597 1.429 . S
C1601 C1602 1.523 . S
C1602 C1586 1.368 . S
C1602 C1598 1.368 . S
C1602 C1601 1.523 . S
H1603 C1578 0.950 . S
H1604 C1580 0.950 . S
H1605 C1581 0.949 . S
H1606 C1583 0.950 . S
H1607 C1585 0.950 . S
C1608 C1609 1.349 . S
C1608 C1610 1.327 . S
C1608 H1633 0.950 . S
C1609 C1608 1.349 . S
C1609 C1625 1.349 . S
C1610 C1608 1.327 . S
C1610 C1629 1.429 . S
C1610 H1634 0.950 . S
C1611 C1628 1.574 . S
C1611 C1630 1.368 . S
C1611 H1635 0.949 . S
H1612 C1616 0.949 . S
C1613 C1614 1.349 . S
C1613 C1615 1.327 . S
C1613 H1636 0.950 . S
C1614 C1613 1.349 . S
C1614 C1626 1.349 . S
C1615 C1613 1.327 . S
C1615 C1631 1.429 . S
C1615 H1637 0.950 . S
C1616 H1612 0.949 . S
C1616 C1624 1.574 . S
C1616 C1632 1.368 . S
H1617 C1625 0.950 . S
H1618 C1623 0.950 . S
H1619 C1624 0.949 . S
H1620 C1626 0.950 . S
H1621 C1627 0.950 . S
H1622 C1628 0.949 . S
C1623 H1618 0.950 . S
C1623 C1625 1.327 . S
C1623 C1629 1.429 . S
C1624 C1616 1.574 . S
C1624 H1619 0.949 . S
C1624 C1630 1.368 . S
C1625 C1609 1.349 . S
C1625 H1617 0.950 . S
C1625 C1623 1.327 . S
C1626 C1614 1.349 . S
C1626 H1620 0.950 . S
C1626 C1627 1.327 . S
C1627 H1621 0.950 . S
C1627 C1626 1.327 . S
C1627 C1631 1.429 . S
C1628 C1611 1.574 . S
C1628 H1622 0.949 . S
C1628 C1632 1.368 . S
C1629 C1610 1.429 . S
C1629 C1623 1.429 . S
C1629 C1630 1.523 . S
C1630 C1611 1.368 . S
C1630 C1624 1.368 . S
C1630 C1629 1.523 . S
C1631 C1615 1.429 . S
C1631 C1627 1.429 . S
C1631 C1632 1.523 . S
C1632 C1616 1.368 . S
C1632 C1628 1.368 . S
C1632 C1631 1.523 . S
H1633 C1608 0.950 . S
H1634 C1610 0.950 . S
H1635 C1611 0.949 . S
H1636 C1613 0.950 . S
H1637 C1615 0.950 . S
C1638 C1639 1.349 . S
C1638 C1640 1.327 . S
C1638 H1663 0.950 . S
C1639 C1638 1.349 . S
C1639 C1655 1.349 . S
C1640 C1638 1.327 . S
C1640 C1659 1.429 . S
C1640 H1664 0.950 . S
C1641 C1658 1.574 . S
C1641 C1660 1.368 . S
C1641 H1665 0.949 . S
H1642 C1646 0.949 . S
C1643 C1644 1.349 . S
C1643 C1645 1.327 . S
C1643 H1666 0.950 . S
C1644 C1643 1.349 . S
C1644 C1656 1.349 . S
C1645 C1643 1.327 . S
C1645 C1661 1.429 . S
C1645 H1667 0.950 . S
C1646 H1642 0.949 . S
C1646 C1654 1.574 . S
C1646 C1662 1.368 . S
H1647 C1655 0.950 . S
H1648 C1653 0.950 . S
H1649 C1654 0.949 . S
H1650 C1656 0.950 . S
H1651 C1657 0.950 . S
H1652 C1658 0.949 . S
C1653 H1648 0.950 . S
C1653 C1655 1.327 . S
C1653 C1659 1.429 . S
C1654 C1646 1.574 . S
C1654 H1649 0.949 . S
C1654 C1660 1.368 . S
C1655 C1639 1.349 . S
C1655 H1647 0.950 . S
C1655 C1653 1.327 . S
C1656 C1644 1.349 . S
C1656 H1650 0.950 . S
C1656 C1657 1.327 . S
C1657 H1651 0.950 . S
C1657 C1656 1.327 . S
C1657 C1661 1.429 . S
C1658 C1641 1.574 . S
C1658 H1652 0.949 . S
C1658 C1662 1.368 . S
C1659 C1640 1.429 . S
C1659 C1653 1.429 . S
C1659 C1660 1.523 . S
C1660 C1641 1.368 . S
C1660 C1654 1.368 . S
C1660 C1659 1.523 . S
C1661 C1645 1.429 . S
C1661 C1657 1.429 . S
C1661 C1662 1.523 . S
C1662 C1646 1.368 . S
C1662 C1658 1.368 . S
C1662 C1661 1.523 . S
H1663 C1638 0.950 . S
H1664 C1640 0.950 . S
H1665 C1641 0.949 . S
H1666 C1643 0.950 . S
H1667 C1645 0.950 . S
C409 C6 0.807 . S
C414 C266 0.804 . S
C439 C40 0.807 . S
C444 C278 0.804 . S
C469 C334 0.807 . S
C474 C74 0.804 . S
C499 C130 0.807 . S
C504 C346 0.804 . S
C529 C142 0.807 . S
C534 C402 0.804 . S
C559 C232 0.807 . S
C564 C198 0.804 . S
C589 C355 0.576 . S
C594 C124 0.576 . S
C619 C151 0.576 . S
C624 C396 0.576 . S
C649 C192 0.576 . S
C654 C226 0.576 . S
C679 C15 0.576 . S
C684 C260 0.576 . S
C709 C287 0.576 . S
C714 C49 0.576 . S
C739 C328 0.576 . S
C744 C83 0.576 . S
C769 C119 0.702 . S
C774 C17 0.702 . S
C799 C51 0.702 . S
C804 C153 0.702 . S
C829 C187 0.702 . S
C834 C85 0.702 . S
C859 C221 0.702 . S
C864 C323 0.702 . S
C889 C255 0.702 . S
C894 C357 0.702 . S
C919 C391 0.702 . S
C924 C289 0.702 . S
C949 C22 0.526 . S
C954 C362 0.525 . S
C979 C56 0.526 . S
C984 C389 0.525 . S
C1009 C90 0.526 . S
C1014 C219 0.525 . S
C1039 C253 0.526 . S
C1044 C117 0.525 . S
C1069 C294 0.526 . S
C1074 C158 0.525 . S
C1099 C185 0.526 . S
C1104 C321 0.525 . S
C1129 C244 0.935 . S
C1134 C108 0.937 . S
C1159 C300 0.935 . S
C1164 C164 0.937 . S
C1189 C312 0.935 . S
C1194 C176 0.937 . S
C1219 C368 0.935 . S
C1224 C28 0.937 . S
C1249 C380 0.935 . S
C1254 C62 0.937 . S
C1279 C96 0.935 . S
C1284 C210 0.937 . S
C1309 C1 2.985 . S
C1314 C273 2.982 . S
C1339 C309 2.985 . S
C1344 C35 2.982 . S
C1369 C341 2.985 . S
C1374 C69 2.982 . S
C1399 C105 2.985 . S
C1404 C377 2.982 . S
C1429 C207 2.985 . S
C1434 C137 2.982 . S
C1459 C173 2.985 . S
C1464 C241 2.982 . S
C1489 C375 2.954 . S
C1494 C103 2.957 . S
C1519 C205 2.954 . S
C1524 C139 2.957 . S
C1549 C239 2.954 . S
C1554 C171 2.957 . S
C1579 C275 2.954 . S
C1584 C3 2.957 . S
C1609 C307 2.954 . S
C1614 C37 2.957 . S
C1639 C343 2.954 . S
C1644 C71 2.957 . S
