# Generated by pormake.
# Topology umf, (4)-cn, num edge types: 1
# Building blocks:
#     Node 0, Type 0, BuildingBlock: KOZSID_clean_sbu_0, # of connection points: 4
#     Node 1, Type 0, BuildingBlock: KOZSID_clean_sbu_0, # of connection points: 4
#     Node 2, Type 0, BuildingBlock: KOZSID_clean_sbu_0, # of connection points: 4
#     Node 3, Type 0, BuildingBlock: KOZSID_clean_sbu_0, # of connection points: 4
#     Node 4, Type 0, BuildingBlock: KOZSID_clean_sbu_0, # of connection points: 4
#     Node 5, Type 0, BuildingBlock: KOZSID_clean_sbu_0, # of connection points: 4
#     Node 6, Type 0, BuildingBlock: KOZSID_clean_sbu_0, # of connection points: 4
#     Node 7, Type 0, BuildingBlock: KOZSID_clean_sbu_0, # of connection points: 4
#     Edge 8, Type (0, 0), BuildingBlock: XIVTED_clean_linker_0, # of connection points: 2
#     Edge 9, Type (0, 0), BuildingBlock: XIVTED_clean_linker_0, # of connection points: 2
#     Edge 10, Type (0, 0), BuildingBlock: XIVTED_clean_linker_0, # of connection points: 2
#     Edge 11, Type (0, 0), BuildingBlock: XIVTED_clean_linker_0, # of connection points: 2
#     Edge 12, Type (0, 0), BuildingBlock: XIVTED_clean_linker_0, # of connection points: 2
#     Edge 13, Type (0, 0), BuildingBlock: XIVTED_clean_linker_0, # of connection points: 2
#     Edge 14, Type (0, 0), BuildingBlock: XIVTED_clean_linker_0, # of connection points: 2
#     Edge 15, Type (0, 0), BuildingBlock: XIVTED_clean_linker_0, # of connection points: 2
#     Edge 16, Type (0, 0), BuildingBlock: XIVTED_clean_linker_0, # of connection points: 2
#     Edge 17, Type (0, 0), BuildingBlock: XIVTED_clean_linker_0, # of connection points: 2
#     Edge 18, Type (0, 0), BuildingBlock: XIVTED_clean_linker_0, # of connection points: 2
#     Edge 19, Type (0, 0), BuildingBlock: XIVTED_clean_linker_0, # of connection points: 2
#     Edge 20, Type (0, 0), BuildingBlock: XIVTED_clean_linker_0, # of connection points: 2
#     Edge 21, Type (0, 0), BuildingBlock: XIVTED_clean_linker_0, # of connection points: 2
#     Edge 22, Type (0, 0), BuildingBlock: XIVTED_clean_linker_0, # of connection points: 2
#     Edge 23, Type (0, 0), BuildingBlock: XIVTED_clean_linker_0, # of connection points: 2
# Relax obj value: 0.077
# Max RMSD: 0.190
# Mean RMSD: 0.190
data_MOF--net-umf--node1-KOZSID_clean_sbu_0--edge1-XIVTED_clean_linker_0
_symmetry_space_group_name_H-M    P1
_symmetry_Int_Tables_number       1
_symmetry_cell_setting            triclinic
loop_
_symmetry_equiv_pos_as_xyz
'x, y, z'
_cell_length_a     38.236961
_cell_length_b     38.219888
_cell_length_c     59.132084
_cell_angle_alpha  89.97973
_cell_angle_beta   89.997697
_cell_angle_gamma 90.042228
loop_
_atom_site_label
_atom_site_type_symbol
_atom_site_fract_x
_atom_site_fract_y
_atom_site_fract_z
_atom_type_partial_charge
C0 C 0.11943 0.23774 0.17796 0.0
C1 C 0.15563 0.23738 0.18014 0.0
C2 C 0.16897 0.2527 0.16104 0.0
C3 C 0.14044 0.2612 0.14811 0.0
N4 N 0.10999 0.25223 0.15794 0.0
Co5 Co 0.06293 0.25755 0.14441 0.0
N6 N 0.08264 0.25995 0.11346 0.0
C7 C 0.11598 0.26788 0.10821 0.0
C8 C 0.12216 0.26797 0.08537 0.0
C9 C 0.09065 0.25993 0.07563 0.0
C10 C 0.06687 0.2554 0.09319 0.0
N11 N 0.01598 0.26314 0.13083 0.0
C12 C 1.00555 0.25939 0.109 0.0
C13 C 0.97025 0.26701 0.10688 0.0
C14 C 0.95852 0.27608 0.12813 0.0
C15 C 0.98722 0.27355 0.14207 0.0
N16 N 0.04418 0.25453 0.17557 0.0
C17 C 0.01252 0.26575 0.18225 0.0
C18 C 1.00637 0.25853 0.20472 0.0
C19 C 0.03603 0.24179 0.21244 0.0
C20 C 0.0587 0.23953 0.19422 0.0
N21 N 0.06569 0.30933 0.14695 0.0
C22 C 0.05365 0.38224 0.15153 0.0
C23 C 0.0651 0.36191 0.16995 0.0
C24 C 0.07154 0.32572 0.16723 0.0
C25 C 0.05015 0.36534 0.13062 0.0
C26 C 0.05605 0.32932 0.12873 0.0
N27 N 0.05787 0.20655 0.14171 0.0
C28 C 0.02 0.15663 0.1461 0.0
C29 C 0.04386 0.13494 0.13498 0.0
C30 C 0.0759 0.14977 0.12807 0.0
C31 C 0.08243 0.18569 0.13166 0.0
C32 C 0.02725 0.19193 0.14904 0.0
H33 H 0.10686 0.19676 0.1259 0.0
H34 H 1.00735 0.20751 0.15694 0.0
H35 H 0.07981 0.31076 0.18177 0.0
H36 H 0.0508 0.31749 0.11258 0.0
C37 C 0.14157 0.2694 0.12507 0.0
C38 C 0.09462 0.22519 0.19526 0.0
C39 C 0.02903 0.25097 0.0899 0.0
C40 C 0.98732 0.27533 0.16594 0.0
H41 H 0.17111 0.22659 0.19374 0.0
H42 H 0.19629 0.25503 0.15647 0.0
H43 H 0.14681 0.2723 0.07681 0.0
H44 H 0.08569 0.25829 0.05764 0.0
H45 H 0.95471 0.26633 0.09159 0.0
H46 H 0.93201 0.28265 0.13291 0.0
H47 H 0.9825 0.2631 0.2141 0.0
H48 H 0.04042 0.23217 0.22942 0.0
H49 H 0.0688 0.37378 0.18641 0.0
H50 H 0.0412 0.37954 0.11587 0.0
H51 H 0.99546 0.14657 0.15253 0.0
H52 H 0.09535 0.13408 0.11949 0.0
C53 C 0.77685 0.11825 0.67864 0.0
C54 C 0.77657 0.15443 0.68108 0.0
C55 C 0.76082 0.1678 0.66214 0.0
C56 C 0.75274 0.13933 0.64902 0.0
N57 N 0.76236 0.10888 0.65861 0.0
Co58 Co 0.758 0.06198 0.64464 0.0
N59 N 0.75542 0.08227 0.61385 0.0
C60 C 0.74698 0.11558 0.60888 0.0
C61 C 0.74673 0.12219 0.58608 0.0
C62 C 0.75519 0.09098 0.57609 0.0
C63 C 0.76019 0.06694 0.59345 0.0
N64 N 0.75293 0.0152 0.63068 0.0
C65 C 0.75657 1.00524 0.60876 0.0
C66 C 0.74938 0.96984 0.60642 0.0
C67 C 0.74061 0.9576 0.62759 0.0
C68 C 0.74291 0.98607 0.64173 0.0
N69 N 0.76176 0.04262 0.6756 0.0
C70 C 0.75146 0.01052 0.68205 0.0
C71 C 0.75933 1.00397 0.70438 0.0
C72 C 0.77559 0.03383 0.71225 0.0
C73 C 0.7769 0.05702 0.69425 0.0
N74 N 0.70614 0.0636 0.64722 0.0
C75 C 0.63388 0.0473 0.65153 0.0
C76 C 0.6536 0.05932 0.67015 0.0
C77 C 0.68948 0.06763 0.66759 0.0
C78 C 0.65083 0.04673 0.63049 0.0
C79 C 0.68646 0.05459 0.62874 0.0
N80 N 0.80905 0.05804 0.64187 0.0
C81 C 0.85949 0.0205 0.64417 0.0
C82 C 0.88102 0.04701 0.6359 0.0
C83 C 0.86604 0.07979 0.63119 0.0
C84 C 0.82974 0.08467 0.63406 0.0
C85 C 0.82401 0.0266 0.64725 0.0
H86 H 0.81834 0.10967 0.6298 0.0
H87 H 0.80863 1.00538 0.6538 0.0
H88 H 0.70412 0.07552 0.68236 0.0
H89 H 0.69832 0.05114 0.61241 0.0
C90 C 0.74476 0.14076 0.62596 0.0
C91 C 0.79032 0.09333 0.69559 0.0
C92 C 0.76476 0.02915 0.58983 0.0
C93 C 0.74178 0.98557 0.66561 0.0
H94 H 0.78733 0.16995 0.69466 0.0
H95 H 0.75807 0.19515 0.65774 0.0
H96 H 0.74185 0.1469 0.57772 0.0
H97 H 0.75663 0.08634 0.55806 0.0
H98 H 0.75024 0.95453 0.59104 0.0
H99 H 0.73452 0.93087 0.6322 0.0
H100 H 0.75547 0.97977 0.71355 0.0
H101 H 0.78547 0.03803 0.72918 0.0
H102 H 0.64197 0.0608 0.6868 0.0
H103 H 0.63698 0.03918 0.61529 0.0
H104 H 0.87012 0.99506 0.64845 0.0
H105 H 0.88202 0.10108 0.62492 0.0
C106 C 0.90081 0.77759 0.18124 0.0
C107 C 0.86517 0.77515 0.18535 0.0
C108 C 0.85064 0.75946 0.16669 0.0
C109 C 0.87816 0.75301 0.15234 0.0
N110 N 0.90897 0.76349 0.16093 0.0
Co111 Co 0.95503 0.75912 0.14611 0.0
N112 N 0.9332 0.75653 0.11579 0.0
C113 C 0.89962 0.74811 0.11157 0.0
C114 C 0.89181 0.74821 0.08892 0.0
C115 C 0.92248 0.75681 0.07826 0.0
C116 C 0.94748 0.76139 0.09508 0.0
N117 N 1.00108 0.7543 0.13124 0.0
C118 C 0.00993 0.75797 0.10912 0.0
C119 C 0.04515 0.75072 0.10602 0.0
C120 C 0.05844 0.742 0.12694 0.0
C121 C 0.03071 0.74433 0.14167 0.0
N122 N 0.97575 0.7625 0.17678 0.0
C123 C 1.00814 0.75222 0.18255 0.0
C124 C 0.01613 0.76111 0.2045 0.0
C125 C 0.98695 0.77797 0.21285 0.0
C126 C 0.96246 0.77833 0.19555 0.0
N127 N 0.95339 0.70725 0.14864 0.0
C128 C 0.96952 0.63495 0.15269 0.0
C129 C 0.95809 0.65463 0.17146 0.0
C130 C 0.94986 0.69054 0.16904 0.0
C131 C 0.96959 0.65196 0.13166 0.0
C132 C 0.96181 0.68762 0.13003 0.0
N133 N 0.95905 0.81021 0.14332 0.0
C134 C 0.99659 0.86059 0.14642 0.0
C135 C 0.97163 0.88196 0.13608 0.0
C136 C 0.93923 0.86677 0.13031 0.0
C137 C 0.93343 0.83076 0.13412 0.0
C138 C 0.99 0.82523 0.14963 0.0
H139 H 0.90871 0.81937 0.12921 0.0
H140 H 0.01071 0.80994 0.15686 0.0
H141 H 0.94245 0.70517 0.18392 0.0
H142 H 0.96479 0.69954 0.11368 0.0
C143 C 0.87535 0.74529 0.12926 0.0
C144 C 0.92636 0.79247 0.19709 0.0
C145 C 0.98508 0.76584 0.09067 0.0
C146 C 0.03229 0.74287 0.16553 0.0
H147 H 0.85114 0.78423 0.20013 0.0
H148 H 0.82309 0.7553 0.16343 0.0
H149 H 0.86666 0.74345 0.0811 0.0
H150 H 0.92614 0.75865 0.06015 0.0
H151 H 0.0596 0.75139 0.09029 0.0
H152 H 0.08534 0.73579 0.13097 0.0
H153 H 0.04103 0.75802 0.21297 0.0
H154 H 0.98454 0.78927 0.22952 0.0
H155 H 0.95702 0.64295 0.18812 0.0
H156 H 0.97669 0.63812 0.11636 0.0
H157 H 0.02151 0.87095 0.15199 0.0
H158 H 0.91893 0.88225 0.1224 0.0
C159 C 0.2363 0.89823 0.67912 0.0
C160 C 0.23523 0.86205 0.68152 0.0
C161 C 0.24989 0.84817 0.66239 0.0
C162 C 0.25871 0.87636 0.64922 0.0
N163 N 0.25058 0.90714 0.65893 0.0
Co164 Co 0.25652 0.95392 0.645 0.0
N165 N 0.25777 0.93368 0.61415 0.0
C166 C 0.2646 0.90004 0.60907 0.0
C167 C 0.26401 0.89346 0.58628 0.0
C168 C 0.25673 0.92503 0.57638 0.0
C169 C 0.25335 0.94926 0.59379 0.0
N170 N 0.26309 1.00055 0.63103 0.0
C171 C 0.25962 0.01071 0.60911 0.0
C172 C 0.26836 0.04574 0.60672 0.0
C173 C 0.27787 0.05757 0.62786 0.0
C174 C 0.2745 0.0292 0.64201 0.0
N175 N 0.25422 0.97326 0.67603 0.0
C176 C 0.26596 1.00489 0.68241 0.0
C177 C 0.25897 0.0116 0.70484 0.0
C178 C 0.2418 0.98234 0.71286 0.0
C179 C 0.23909 0.95932 0.69485 0.0
N180 N 0.30828 0.95024 0.64721 0.0
C181 C 0.38126 0.96233 0.65139 0.0
C182 C 0.36103 0.95157 0.67004 0.0
C183 C 0.32482 0.94508 0.66752 0.0
C184 C 0.36424 0.96491 0.63047 0.0
C185 C 0.32819 0.95898 0.62876 0.0
N186 N 0.20558 0.95989 0.64279 0.0
C187 C 0.15657 0.99859 0.64791 0.0
C188 C 0.13317 0.97294 0.64052 0.0
C189 C 0.14704 0.94038 0.63383 0.0
C190 C 0.18343 0.93435 0.63515 0.0
C191 C 0.19211 0.99158 0.64903 0.0
H192 H 0.19368 0.90922 0.63007 0.0
H193 H 0.2087 0.01226 0.655 0.0
H194 H 0.30996 0.93743 0.68225 0.0
H195 H 0.31628 0.96361 0.61256 0.0
C196 C 0.26609 0.87472 0.6261 0.0
C197 C 0.22435 0.92352 0.69629 0.0
C198 C 0.25043 0.98719 0.59019 0.0
C199 C 0.27622 0.02952 0.66589 0.0
H200 H 0.22429 0.84692 0.69523 0.0
H201 H 0.25148 0.82075 0.65794 0.0
H202 H 0.26752 0.86856 0.57787 0.0
H203 H 0.25495 0.92975 0.55837 0.0
H204 H 0.26813 0.06102 0.59131 0.0
H205 H 0.28528 0.08397 0.63242 0.0
H206 H 0.26404 0.03558 0.71401 0.0
H207 H 0.23226 0.97841 0.7299 0.0
H208 H 0.37298 0.94853 0.68653 0.0
H209 H 0.37835 0.97326 0.61553 0.0
H210 H 0.14763 0.02446 0.65265 0.0
H211 H 0.13 0.91967 0.62795 0.0
C212 C 0.11715 0.77808 0.83394 0.0
C213 C 0.15329 0.77769 0.83136 0.0
C214 C 0.16676 0.7617 0.85018 0.0
C215 C 0.13838 0.75356 0.86337 0.0
N216 N 0.10789 0.76339 0.85394 0.0
Co217 Co 0.06109 0.75871 0.86797 0.0
N218 N 0.08152 0.7555 0.89869 0.0
C219 C 0.11482 0.7469 0.90351 0.0
C220 C 0.12154 0.74615 0.92629 0.0
C221 C 0.09041 0.75448 0.93643 0.0
C222 C 0.06631 0.7599 0.91916 0.0
N223 N 0.01441 0.75338 0.88203 0.0
C224 C 1.00457 0.75681 0.90399 0.0
C225 C 0.96918 0.74966 0.90638 0.0
C226 C 0.95682 0.74117 0.8852 0.0
C227 C 0.98522 0.74356 0.871 0.0
N228 N 0.04156 0.76298 0.83709 0.0
C229 C 0.00946 0.75271 0.83066 0.0
C230 C 1.00283 0.76075 0.80836 0.0
C231 C 0.03266 0.77706 0.80049 0.0
C232 C 0.05591 0.77824 0.81844 0.0
N233 N 0.06284 0.70693 0.86498 0.0
C234 C 0.04975 0.63419 0.86014 0.0
C235 C 0.06067 0.65472 0.84165 0.0
C236 C 0.06761 0.69081 0.84449 0.0
C237 C 0.04727 0.65081 0.88119 0.0
C238 C 0.05367 0.68674 0.88321 0.0
N239 N 0.05712 0.80971 0.87112 0.0
C240 C 0.01968 0.86025 0.86904 0.0
C241 C 0.04629 0.8817 0.87724 0.0
C242 C 0.07905 0.86662 0.88185 0.0
C243 C 0.08383 0.83031 0.87891 0.0
C244 C 0.02568 0.82476 0.86589 0.0
H245 H 0.10882 0.81884 0.88306 0.0
H246 H 1.00441 0.80945 0.85935 0.0
H247 H 0.07545 0.70593 0.82991 0.0
H248 H 0.0492 0.69834 0.89953 0.0
C249 C 0.13992 0.74506 0.88635 0.0
C250 C 0.0922 0.79167 0.81708 0.0
C251 C 0.0286 0.7647 0.9229 0.0
C252 C 0.9846 0.74279 0.84711 0.0
H253 H 0.16866 0.78845 0.81769 0.0
H254 H 0.19413 0.75873 0.85444 0.0
H255 H 0.14628 0.74107 0.93455 0.0
H256 H 0.08586 0.7556 0.95447 0.0
H257 H 0.95396 0.75038 0.9218 0.0
H258 H 0.93007 0.73522 0.88062 0.0
H259 H 0.97861 0.75692 0.79922 0.0
H260 H 0.0368 0.78705 0.78357 0.0
H261 H 0.06357 0.64309 0.82506 0.0
H262 H 0.03871 0.63649 0.896 0.0
H263 H 0.99425 0.87096 0.86485 0.0
H264 H 0.10041 0.88255 0.88806 0.0
C265 C 0.23699 0.11808 0.33331 0.0
C266 C 0.23598 0.15423 0.33079 0.0
C267 C 0.25083 0.16828 0.34982 0.0
C268 C 0.25969 0.14018 0.36305 0.0
N269 N 0.2514 0.10934 0.35348 0.0
Co270 Co 0.25755 0.06267 0.3675 0.0
N271 N 0.25919 0.08312 0.39827 0.0
C272 C 0.26633 0.11676 0.4032 0.0
C273 C 0.26641 0.12344 0.42598 0.0
C274 C 0.25922 0.09196 0.43603 0.0
C275 C 0.25512 0.06768 0.41871 0.0
N276 N 0.26435 0.01616 0.38158 0.0
C277 C 0.26097 1.00613 0.40353 0.0
C278 C 0.26955 0.97107 0.40596 0.0
C279 C 0.27894 0.95913 0.38484 0.0
C280 C 0.27561 0.98743 0.37063 0.0
N281 N 0.25496 0.04309 0.33654 0.0
C282 C 0.26667 0.01145 0.3302 0.0
C283 C 0.25956 1.00459 0.30781 0.0
C284 C 0.24235 0.03378 0.29976 0.0
C285 C 0.23974 0.0569 0.31773 0.0
N286 N 0.30922 0.06653 0.36497 0.0
C287 C 0.38205 0.0547 0.36012 0.0
C288 C 0.36146 0.0657 0.34171 0.0
C289 C 0.32533 0.07204 0.34457 0.0
C290 C 0.36549 0.05183 0.38118 0.0
C291 C 0.32947 0.05767 0.38323 0.0
N292 N 0.20666 0.05656 0.36996 0.0
C293 C 0.15763 0.01782 0.36488 0.0
C294 C 0.13426 0.04355 0.37212 0.0
C295 C 0.14813 0.07614 0.37878 0.0
C296 C 0.18453 0.08216 0.37751 0.0
C297 C 0.19318 0.02482 0.36383 0.0
H298 H 0.1948 0.10733 0.38251 0.0
H299 H 0.20976 1.00409 0.35794 0.0
H300 H 0.31016 0.07982 0.33 0.0
H301 H 0.31785 0.05287 0.3995 0.0
C302 C 0.26755 0.14199 0.3861 0.0
C303 C 0.22502 0.09266 0.31623 0.0
C304 C 0.25189 0.02978 0.42242 0.0
C305 C 0.2771 0.98694 0.34675 0.0
H306 H 0.22504 0.16924 0.31702 0.0
H307 H 0.25258 0.19574 0.35414 0.0
H308 H 0.27035 0.14836 0.4343 0.0
H309 H 0.25801 0.08732 0.45407 0.0
H310 H 0.26926 0.95582 0.42138 0.0
H311 H 0.28617 0.93267 0.3803 0.0
H312 H 0.2646 0.98057 0.29868 0.0
H313 H 0.23272 0.0376 0.28273 0.0
H314 H 0.37306 0.069 0.32514 0.0
H315 H 0.3799 0.04329 0.39595 0.0
H316 H 0.14865 0.99194 0.36017 0.0
H317 H 0.13107 0.09688 0.38456 0.0
C318 C 0.89719 0.23745 0.83323 0.0
C319 C 0.86105 0.23666 0.83069 0.0
C320 C 0.84711 0.25114 0.84987 0.0
C321 C 0.87525 0.25962 0.86317 0.0
N322 N 0.90603 0.25147 0.85349 0.0
Co323 Co 0.95273 0.25709 0.8675 0.0
N324 N 0.93238 0.25783 0.89833 0.0
C325 C 0.89876 0.2647 0.9034 0.0
C326 C 0.89211 0.26392 0.92618 0.0
C327 C 0.92362 0.25648 0.93608 0.0
C328 C 0.94788 0.25314 0.91869 0.0
N329 N 0.99931 0.26339 0.88154 0.0
C330 C 0.00938 0.25975 0.90346 0.0
C331 C 0.04441 0.26842 0.90591 0.0
C332 C 0.0563 0.27813 0.88482 0.0
C333 C 0.02799 0.27491 0.87063 0.0
N334 N 0.97214 0.25521 0.83647 0.0
C335 C 1.0038 0.26696 0.83017 0.0
C336 C 0.01055 0.26022 0.80771 0.0
C337 C 0.98129 0.24317 0.7996 0.0
C338 C 0.95824 0.24029 0.81758 0.0
N339 N 0.94927 0.30896 0.86564 0.0
C340 C 0.96517 0.38139 0.86193 0.0
C341 C 0.95332 0.362 0.84314 0.0
C342 C 0.94513 0.32604 0.84541 0.0
C343 C 0.96542 0.36411 0.88288 0.0
C344 C 0.95773 0.32838 0.88434 0.0
N345 N 0.95861 0.20609 0.86941 0.0
C346 C 0.99734 0.15712 0.86424 0.0
C347 C 0.97178 0.13369 0.87175 0.0
C348 C 0.93922 0.14752 0.87844 0.0
C349 C 0.93312 0.18391 0.87708 0.0
C350 C 0.99026 0.19266 0.86311 0.0
H351 H 0.908 0.19412 0.8822 0.0
H352 H 0.01092 0.2093 0.85714 0.0
H353 H 0.93749 0.31164 0.83048 0.0
H354 H 0.96108 0.31623 0.90059 0.0
C355 C 0.87351 0.26662 0.88634 0.0
C356 C 0.9225 0.22549 0.8161 0.0
C357 C 0.98581 0.25034 0.92233 0.0
C358 C 0.02839 0.27695 0.84677 0.0
H359 H 0.84602 0.22606 0.81682 0.0
H360 H 0.81967 0.25283 0.85425 0.0
H361 H 0.86722 0.26751 0.93458 0.0
H362 H 0.92828 0.25468 0.9541 0.0
H363 H 0.05967 0.26801 0.92132 0.0
H364 H 0.08271 0.28558 0.88031 0.0
H365 H 0.03456 0.26533 0.79859 0.0
H366 H 0.97741 0.23378 0.78252 0.0
H367 H 0.952 0.37389 0.82656 0.0
H368 H 0.97277 0.37774 0.8982 0.0
H369 H 0.0232 0.14822 0.85949 0.0
H370 H 0.91858 0.13044 0.88439 0.0
C371 C 0.77679 0.90257 0.33075 0.0
C372 C 0.7738 0.86708 0.32622 0.0
C373 C 0.75783 0.85228 0.3447 0.0
C374 C 0.75178 0.87951 0.35936 0.0
N375 N 0.76277 0.9104 0.35111 0.0
Co376 Co 0.75895 0.95614 0.36642 0.0
N377 N 0.75604 0.93354 0.3965 0.0
C378 C 0.74734 0.89992 0.40037 0.0
C379 C 0.74733 0.89154 0.42294 0.0
C380 C 0.75618 0.92188 0.43391 0.0
C381 C 0.76099 0.94727 0.41736 0.0
N382 N 0.7543 1.00186 0.38178 0.0
C383 C 0.75785 0.01012 0.40399 0.0
C384 C 0.75077 0.04531 0.40745 0.0
C385 C 0.74231 0.0592 0.38666 0.0
C386 C 0.74458 0.03184 0.37163 0.0
N387 N 0.76308 0.97769 0.33605 0.0
C388 C 0.75351 0.01043 0.33061 0.0
C389 C 0.76289 0.01889 0.3088 0.0
C390 C 0.77936 0.98964 0.30022 0.0
C391 C 0.77899 0.96466 0.31723 0.0
N392 N 0.70713 0.95513 0.36373 0.0
C393 C 0.63501 0.97189 0.35986 0.0
C394 C 0.65467 0.96116 0.34091 0.0
C395 C 0.69052 0.95263 0.34324 0.0
C396 C 0.6519 0.97092 0.38091 0.0
C397 C 0.68747 0.96285 0.38245 0.0
N398 N 0.81002 0.95944 0.36937 0.0
C399 C 0.86075 0.99676 0.3683 0.0
C400 C 0.88208 0.96949 0.37564 0.0
C401 C 0.86684 0.93645 0.37923 0.0
C402 C 0.83049 0.93205 0.37623 0.0
C403 C 0.82524 0.99115 0.36506 0.0
H404 H 0.81888 0.90681 0.37961 0.0
H405 H 0.81007 0.01299 0.35923 0.0
H406 H 0.70517 0.94579 0.32826 0.0
H407 H 0.69931 0.96507 0.39887 0.0
C408 C 0.74412 0.87616 0.38242 0.0
C409 C 0.79239 0.9283 0.3153 0.0
C410 C 0.76561 0.98476 0.42216 0.0
C411 C 0.74384 0.03417 0.34779 0.0
H412 H 0.78276 0.8533 0.31132 0.0
H413 H 0.75328 0.8247 0.34766 0.0
H414 H 0.74229 0.86624 0.4305 0.0
H415 H 0.75798 0.9251 0.45206 0.0
H416 H 0.75148 0.05936 0.42333 0.0
H417 H 0.73642 0.08628 0.38288 0.0
H418 H 0.76027 0.04406 0.30059 0.0
H419 H 0.7908 0.98744 0.28358 0.0
H420 H 0.64303 0.96092 0.32423 0.0
H421 H 0.63804 0.97748 0.3963 0.0
H422 H 0.87156 0.02244 0.36487 0.0
H423 H 0.88268 0.91457 0.38473 0.0
H424 H 0.06999 0.43616 0.12264 0.0
H425 H 0.94859 0.5813 0.18191 0.0
H426 H 0.01531 0.41568 0.18501 0.0
H427 H 0.02199 0.60298 0.12823 0.0
H428 H 0.97056 0.52081 0.18336 0.0
H429 H 0.05044 0.49692 0.12418 0.0
C430 C 0.05394 0.44443 0.13675 0.0
C431 C 0.04435 0.42042 0.15369 0.0
C432 C 0.98178 0.5389 0.17128 0.0
C433 C 0.02136 0.4908 0.15552 0.0
C434 C 0.96931 0.57363 0.17047 0.0
C435 C 0.98283 0.59773 0.15465 0.0
C436 C 1.008 0.52789 0.15614 0.0
C437 C 0.00969 0.58561 0.14028 0.0
C438 C 0.04279 0.47932 0.13765 0.0
C439 C 0.02368 0.43315 0.17165 0.0
N440 N 0.02106 0.55186 0.14131 0.0
N441 N 0.01266 0.46725 0.17199 0.0
H442 H 0.43515 0.94559 0.62257 0.0
H443 H 0.58028 0.06869 0.68063 0.0
H444 H 0.41474 1.00168 0.68441 0.0
H445 H 0.60189 0.99418 0.62761 0.0
H446 H 0.51983 0.04663 0.68231 0.0
H447 H 0.49585 0.96538 0.62387 0.0
C448 C 0.4434 0.96202 0.63651 0.0
C449 C 0.41943 0.97191 0.65338 0.0
C450 C 0.5379 0.03519 0.67032 0.0
C451 C 0.48977 0.99516 0.65493 0.0
C452 C 0.57261 0.04772 0.66938 0.0
C453 C 0.59669 0.03392 0.65367 0.0
C454 C 0.52686 0.00862 0.65542 0.0
C455 C 0.58454 1.00672 0.63955 0.0
C456 C 0.47828 0.9733 0.63728 0.0
C457 C 0.43217 0.99305 0.67111 0.0
N458 N 0.55081 0.9953 0.64069 0.0
N459 N 0.46625 1.00418 0.67132 0.0
H460 H 0.01837 0.41242 0.88623 0.0
H461 H 0.01048 0.6016 0.82675 0.0
H462 H 0.94483 0.43564 0.83291 0.0
H463 H 0.06574 0.57959 0.88867 0.0
H464 H 0.99048 0.54028 0.82575 0.0
H465 H 0.03944 0.47231 0.88456 0.0
C466 C 1.00619 0.43006 0.87427 0.0
C467 C 0.97896 0.41848 0.86004 0.0
C468 C 1.0071 0.54888 0.83949 0.0
C469 C 1.00431 0.48819 0.85761 0.0
C470 C 0.01881 0.58387 0.83998 0.0
C471 C 0.03985 0.59612 0.85788 0.0
C472 C 0.01678 0.52562 0.85687 0.0
C473 C 0.04931 0.57175 0.87466 0.0
C474 C 0.01863 0.46448 0.87322 0.0
C475 C 0.96573 0.44293 0.84431 0.0
N476 N 0.03781 0.53799 0.87372 0.0
N477 N 0.9784 0.47649 0.84358 0.0
H478 H 0.41443 0.01636 0.32627 0.0
H479 H 0.60411 0.02427 0.38481 0.0
H480 H 0.4368 0.07026 0.38865 0.0
H481 H 0.58085 0.95225 0.33065 0.0
H482 H 0.5441 0.04495 0.38368 0.0
H483 H 0.4758 0.99693 0.32471 0.0
C484 C 0.43224 0.02451 0.33949 0.0
C485 C 0.42009 0.04502 0.35766 0.0
C486 C 0.55194 0.02456 0.37203 0.0
C487 C 0.49068 0.0226 0.35601 0.0
C488 C 0.58642 0.01238 0.37276 0.0
C489 C 0.59799 0.98567 0.35813 0.0
C490 C 0.52817 0.0105 0.35637 0.0
C491 C 0.57352 0.97274 0.34233 0.0
C492 C 0.46728 0.01313 0.33867 0.0
C493 C 0.44457 0.05424 0.37442 0.0
N494 N 0.53989 0.98514 0.34193 0.0
N495 N 0.47838 0.04307 0.37316 0.0
H496 H 1.00551 0.30528 0.94893 0.0
H497 H 0.02334 0.19304 0.06311 0.0
H498 H 0.99079 0.19367 0.95043 0.0
H499 H 0.00935 0.30473 0.06228 0.0
H500 H 0.01511 0.19186 0.02184 0.0
H501 H 0.01327 0.30503 0.99017 0.0
C502 C 1.00496 0.2806 0.95794 0.0
C503 C 0.99833 0.24934 0.94627 0.0
C504 C 0.01325 0.21657 0.03069 0.0
C505 C 1.00602 0.24885 0.99356 0.0
C506 C 0.0175 0.21716 0.05425 0.0
C507 C 0.01609 0.2489 0.0661 0.0
C508 C 0.00836 0.24811 0.01882 0.0
C509 C 0.00973 0.27964 0.05378 0.0
C510 C 0.00882 0.28048 0.9815 0.0
C511 C 0.99663 0.21818 0.95879 0.0
N512 N 1.0064 0.27853 0.03084 0.0
N513 N 1.00045 0.21869 0.98173 0.0
H514 H 0.71132 1.00436 0.56372 0.0
H515 H 0.82323 0.99485 0.44886 0.0
H516 H 0.82115 0.02881 0.56136 0.0
H517 H 0.71074 0.99688 0.45056 0.0
H518 H 0.82427 1.0033 0.49015 0.0
H519 H 0.7118 0.9952 0.52261 0.0
C520 C 0.73574 1.00681 0.55456 0.0
C521 C 0.76642 0.01654 0.56594 0.0
C522 C 0.79935 1.00232 0.48148 0.0
C523 C 0.76707 1.00724 0.51879 0.0
C524 C 0.79881 0.99783 0.45794 0.0
C525 C 0.76688 0.99585 0.44636 0.0
C526 C 0.76768 1.00413 0.49357 0.0
C527 C 0.73588 0.99893 0.45889 0.0
C528 C 0.73595 1.00212 0.53107 0.0
C529 C 0.79715 0.02059 0.55322 0.0
N530 N 0.73703 1.00266 0.48179 0.0
N531 N 0.79673 0.01593 0.53035 0.0
H532 H 0.99524 0.82345 0.06395 0.0
H533 H 1.0038 0.71137 0.94916 0.0
H534 H 0.99797 0.71093 0.06242 0.0
H535 H 0.02873 0.82114 0.95133 0.0
H536 H 0.99518 0.71191 0.99033 0.0
H537 H 1.00357 0.82442 0.02264 0.0
C538 C 0.99842 0.79901 0.05491 0.0
C539 C 0.99667 0.7671 0.06656 0.0
C540 C 1.00209 0.73603 0.98182 0.0
C541 C 1.00469 0.76781 0.0193 0.0
C542 C 1.00646 0.7358 0.95829 0.0
C543 C 0.01617 0.76644 0.94684 0.0
C544 C 1.0075 0.76715 0.99405 0.0
C545 C 0.02051 0.79717 0.95953 0.0
C546 C 1.00281 0.79951 0.03135 0.0
C547 C 0.99991 0.73606 0.05406 0.0
N548 N 0.01614 0.79678 0.98243 0.0
N549 N 1.00349 0.73717 0.03114 0.0
H550 H 0.30595 1.00759 0.44902 0.0
H551 H 0.19296 0.9963 0.56333 0.0
H552 H 0.19521 0.02748 0.45058 0.0
H553 H 0.30529 1.00291 0.56241 0.0
H554 H 0.19226 1.00438 0.52204 0.0
H555 H 0.30539 0.99983 0.49027 0.0
C556 C 0.28134 0.00927 0.45804 0.0
C557 C 0.25043 0.01733 0.44637 0.0
C558 C 0.21706 1.00463 0.53087 0.0
C559 C 0.24965 0.00971 0.49369 0.0
C560 C 0.21739 1.00044 0.55444 0.0
C561 C 0.24916 0.99984 0.56628 0.0
C562 C 0.24881 1.00742 0.51897 0.0
C563 C 0.28023 1.0041 0.55393 0.0
C564 C 0.28108 1.00542 0.48161 0.0
C565 C 0.21943 0.0205 0.45893 0.0
N566 N 0.2793 1.00742 0.53098 0.0
N567 N 0.2198 0.01669 0.48187 0.0
H568 H 0.13812 0.24794 0.22911 0.0
H569 H 0.15623 0.07964 0.30498 0.0
H570 H 0.08246 0.15625 0.20688 0.0
H571 H 0.24713 0.13578 0.28193 0.0
H572 H 0.12086 0.11015 0.27595 0.0
H573 H 0.16934 0.21202 0.25707 0.0
C574 C 0.132 0.22033 0.23041 0.0
C575 C 0.10806 0.20499 0.21536 0.0
C576 C 0.14862 0.11544 0.27716 0.0
C577 C 0.14327 0.16376 0.24774 0.0
C578 C 0.16885 0.09789 0.29357 0.0
C579 C 0.20466 0.10538 0.29601 0.0
C580 C 0.16418 0.14133 0.26354 0.0
C581 C 0.21959 0.12942 0.2808 0.0
C582 C 0.15001 0.19982 0.24624 0.0
C583 C 0.10087 0.16909 0.21804 0.0
N584 N 0.19924 0.14706 0.26566 0.0
N585 N 0.11838 0.14964 0.23389 0.0
H586 H 0.88059 0.24886 0.78162 0.0
H587 H 0.8593 0.08018 0.70641 0.0
H588 H 0.93373 0.15628 0.80478 0.0
H589 H 0.76935 0.13739 0.72977 0.0
H590 H 0.89541 0.11062 0.73512 0.0
H591 H 0.84915 0.21327 0.75357 0.0
C592 C 0.88623 0.22114 0.78045 0.0
C593 C 0.90955 0.20549 0.79577 0.0
C594 C 0.8677 0.11622 0.73401 0.0
C595 C 0.87396 0.1646 0.76334 0.0
C596 C 0.84706 0.09874 0.71777 0.0
C597 C 0.8113 0.10659 0.71545 0.0
C598 C 0.85263 0.14238 0.74761 0.0
C599 C 0.79687 0.13091 0.73067 0.0
C600 C 0.86805 0.20082 0.76458 0.0
C601 C 0.91592 0.1694 0.79335 0.0
N602 N 0.81761 0.14844 0.74564 0.0
N603 N 0.89825 0.15013 0.77747 0.0
H604 H 0.85349 0.89312 0.32183 0.0
H605 H 0.89233 0.85428 0.19058 0.0
H606 H 0.78711 0.93074 0.26827 0.0
H607 H 0.92771 0.78661 0.24412 0.0
H608 H 0.86255 0.89098 0.21873 0.0
H609 H 0.88963 0.86275 0.29366 0.0
C610 C 0.84703 0.89578 0.30407 0.0
C611 C 0.81759 0.9154 0.29748 0.0
C612 C 0.87736 0.86848 0.22438 0.0
C613 C 0.85896 0.88019 0.26494 0.0
C614 C 0.89462 0.84763 0.20833 0.0
C615 C 0.9135 0.8177 0.21492 0.0
C616 C 0.87898 0.85971 0.24744 0.0
C617 C 0.91481 0.81005 0.23819 0.0
C618 C 0.86756 0.87817 0.288 0.0
C619 C 0.81017 0.91719 0.2742 0.0
N620 N 0.89791 0.83087 0.25353 0.0
N621 N 0.83066 0.89991 0.25884 0.0
H622 H 0.15585 0.93763 0.70782 0.0
H623 H 0.13405 0.76852 0.78247 0.0
H624 H 0.24565 0.87934 0.73029 0.0
H625 H 0.0819 0.86126 0.80625 0.0
H626 H 0.16571 0.8042 0.75456 0.0
H627 H 0.12001 0.90742 0.73677 0.0
C628 C 0.16813 0.91894 0.71907 0.0
C629 C 0.20377 0.91075 0.71645 0.0
C630 C 0.14703 0.81668 0.76571 0.0
C631 C 0.1627 0.87517 0.74887 0.0
C632 C 0.12876 0.79632 0.78152 0.0
C633 C 0.10567 0.81197 0.79699 0.0
C634 C 0.1414 0.85297 0.76464 0.0
C635 C 0.09959 0.84815 0.79474 0.0
C636 C 0.14764 0.90157 0.73545 0.0
C637 C 0.21825 0.8862 0.7315 0.0
N638 N 0.11732 0.86746 0.77891 0.0
N639 N 0.19761 0.86876 0.7466 0.0
H640 H 0.08649 0.07642 0.13621 0.0
H641 H 0.92894 0.94029 0.13907 0.0
H642 H 0.97945 0.10739 0.12437 0.0
H643 H 0.03467 0.90972 0.12279 0.0
H644 H 0.94662 1.00183 0.13568 0.0
H645 H 0.06837 0.015 0.1333 0.0
C646 C 0.05932 0.07046 0.13277 0.0
C647 C 0.03448 0.09738 0.13095 0.0
C648 C 0.96585 0.98154 0.13274 0.0
C649 C 0.01341 0.02698 0.12806 0.0
C650 C 0.9557 0.94637 0.13455 0.0
C651 C 0.98039 0.91955 0.13164 0.0
C652 C 1.00099 0.99002 0.1282 0.0
C653 C 0.01484 0.92932 0.12591 0.0
C654 C 0.04894 0.03534 0.13123 0.0
C655 C 0.9995 0.08773 0.12662 0.0
N656 N 0.02417 0.9636 0.12468 0.0
N657 N 0.98999 0.05348 0.12562 0.0
H658 H 0.09521 0.01072 0.6713 0.0
H659 H 0.91066 0.99582 0.61016 0.0
H660 H 0.08355 0.9546 0.60841 0.0
H661 H 0.93693 0.07962 0.6558 0.0
H662 H 0.972 0.97684 0.61046 0.0
H663 H 0.03519 0.03123 0.66796 0.0
C664 C 0.08009 1.00269 0.6567 0.0
C665 C 0.09495 0.98133 0.63987 0.0
C666 C 0.96448 0.99965 0.62016 0.0
C667 C 0.0254 1.00452 0.6362 0.0
C668 C 0.92957 0.01058 0.61992 0.0
C669 C 0.91885 0.03948 0.63286 0.0
C670 C 0.98874 0.01727 0.63384 0.0
C671 C 0.94421 0.05749 0.6454 0.0
C672 C 0.04572 0.0145 0.65484 0.0
C673 C 0.07337 0.97096 0.62181 0.0
N674 N 0.97788 0.04583 0.64581 0.0
N675 N 0.0397 0.98269 0.62044 0.0
H676 H 0.00958 0.09554 0.84107 0.0
H677 H 0.99554 0.91159 0.90321 0.0
H678 H 0.95376 0.08435 0.90412 0.0
H679 H 0.07873 0.93742 0.85699 0.0
H680 H 0.97652 0.97294 0.90271 0.0
H681 H 0.03032 0.03561 0.84466 0.0
C682 C 1.00166 0.08054 0.85575 0.0
C683 C 0.98031 0.09549 0.87255 0.0
C684 C 0.99922 0.96532 0.89294 0.0
C685 C 1.00377 0.02606 0.87652 0.0
C686 C 0.01017 0.93041 0.89329 0.0
C687 C 0.0389 0.91957 0.88024 0.0
C688 C 0.01663 0.98945 0.87903 0.0
C689 C 0.05674 0.94482 0.86749 0.0
C690 C 0.01361 0.04622 0.85776 0.0
C691 C 0.9701 0.07407 0.89073 0.0
N692 N 0.04505 0.97848 0.86697 0.0
N693 N 0.98196 0.04046 0.89226 0.0
H694 H 0.91207 0.01893 0.40263 0.0
H695 H 0.09653 1.00637 0.34095 0.0
H696 H 0.93777 0.93776 0.35492 0.0
H697 H 0.08449 0.06131 0.40422 0.0
H698 H 0.0365 0.98569 0.34398 0.0
H699 H 0.97341 0.03791 0.40255 0.0
C700 C 0.93086 1.00471 0.39246 0.0
C701 C 0.91996 0.97659 0.37886 0.0
C702 C 0.04693 1.0022 0.35725 0.0
C703 C 0.98988 0.99883 0.37815 0.0
C704 C 0.0813 0.01412 0.35555 0.0
C705 C 0.09603 0.03519 0.37259 0.0
C706 C 0.02652 0.01175 0.37594 0.0
C707 C 0.07437 0.04518 0.39068 0.0
C708 C 0.96577 0.01565 0.39235 0.0
C709 C 0.94519 0.95927 0.36583 0.0
N710 N 0.04073 0.03332 0.39191 0.0
N711 N 0.97887 0.97094 0.36558 0.0
loop_
_geom_bond_atom_site_label_1
_geom_bond_atom_site_label_2
_geom_bond_distance
_geom_bond_site_symmetry_2
_ccdc_geom_bond_type
C0 C1 1.443 . S
C0 N4 1.376 . S
C0 C38 1.389 . S
C1 C0 1.443 . S
C1 C2 1.340 . S
C1 H41 0.951 . S
C2 C1 1.340 . S
C2 C3 1.439 . S
C2 H42 0.950 . S
C3 C2 1.439 . S
C3 N4 1.374 . S
C3 C37 1.395 . S
N4 C0 1.376 . S
N4 C3 1.374 . S
N4 Co5 2.008 . S
Co5 N4 2.008 . S
Co5 N6 1.995 . S
Co5 N11 2.008 . S
Co5 N16 1.995 . S
Co5 N21 2.282 . S
Co5 N27 2.282 . S
N6 Co5 1.995 . S
N6 C7 1.376 . S
N6 C10 1.383 . S
C7 N6 1.376 . S
C7 C8 1.446 . S
C7 C37 1.391 . S
C8 C7 1.446 . S
C8 C9 1.339 . S
C8 H43 0.949 . S
C9 C8 1.339 . S
C9 C10 1.439 . S
C9 H44 0.950 . S
C10 N6 1.383 . S
C10 C9 1.439 . S
C10 C39 1.392 . S
N11 Co5 2.008 . S
N11 C12 1.376 . S
N11 C15 1.374 1_455 S
C12 N11 1.376 . S
C12 C13 1.443 1_455 S
C12 C39 1.389 . S
C13 C12 1.443 1_655 S
C13 C14 1.340 . S
C13 H45 0.951 . S
C14 C13 1.340 . S
C14 C15 1.439 . S
C14 H46 0.950 . S
C15 N11 1.374 1_655 S
C15 C14 1.439 . S
C15 C40 1.395 . S
N16 Co5 1.995 . S
N16 C17 1.376 . S
N16 C20 1.383 . S
C17 N16 1.376 . S
C17 C18 1.446 1_455 S
C17 C40 1.391 1_455 S
C18 C17 1.446 1_655 S
C18 C19 1.337 1_655 S
C18 H47 0.951 . S
C19 C18 1.337 1_455 S
C19 C20 1.439 . S
C19 H48 0.950 . S
C20 N16 1.383 . S
C20 C19 1.439 . S
C20 C38 1.392 . S
N21 Co5 2.282 . S
N21 C24 1.332 . S
N21 C26 1.332 . S
C22 C23 1.386 . S
C22 C25 1.388 . S
C23 C22 1.386 . S
C23 C24 1.382 . S
C23 H49 0.950 . S
C24 N21 1.332 . S
C24 C23 1.382 . S
C24 H35 0.952 . S
C25 C22 1.388 . S
C25 C26 1.382 . S
C25 H50 0.950 . S
C26 N21 1.332 . S
C26 C25 1.382 . S
C26 H36 0.948 . S
N27 Co5 2.282 . S
N27 C31 1.332 . S
N27 C32 1.332 . S
C28 C29 1.388 . S
C28 C32 1.382 . S
C28 H51 0.950 . S
C29 C28 1.388 . S
C29 C30 1.386 . S
C30 C29 1.386 . S
C30 C31 1.382 . S
C30 H52 0.950 . S
C31 N27 1.332 . S
C31 C30 1.382 . S
C31 H33 0.952 . S
C32 N27 1.332 . S
C32 C28 1.382 . S
C32 H34 0.948 . S
H33 C31 0.952 . S
H34 C32 0.948 . S
H35 C24 0.952 . S
H36 C26 0.948 . S
C37 C3 1.395 . S
C37 C7 1.391 . S
C38 C0 1.389 . S
C38 C20 1.392 . S
C39 C10 1.392 . S
C39 C12 1.389 . S
C40 C15 1.395 . S
C40 C17 1.391 1_655 S
H41 C1 0.951 . S
H42 C2 0.950 . S
H43 C8 0.949 . S
H44 C9 0.950 . S
H45 C13 0.951 . S
H46 C14 0.950 . S
H47 C18 0.951 . S
H48 C19 0.950 . S
H49 C23 0.950 . S
H50 C25 0.950 . S
H51 C28 0.950 . S
H52 C30 0.950 . S
C53 C54 1.443 . S
C53 N57 1.376 . S
C53 C91 1.389 . S
C54 C53 1.443 . S
C54 C55 1.340 . S
C54 H94 0.951 . S
C55 C54 1.340 . S
C55 C56 1.439 . S
C55 H95 0.950 . S
C56 C55 1.439 . S
C56 N57 1.374 . S
C56 C90 1.395 . S
N57 C53 1.376 . S
N57 C56 1.374 . S
N57 Co58 2.008 . S
Co58 N57 2.008 . S
Co58 N59 1.995 . S
Co58 N64 2.008 . S
Co58 N69 1.995 . S
Co58 N74 2.282 . S
Co58 N80 2.282 . S
N59 Co58 1.995 . S
N59 C60 1.376 . S
N59 C63 1.383 . S
C60 N59 1.376 . S
C60 C61 1.446 . S
C60 C90 1.391 . S
C61 C60 1.446 . S
C61 C62 1.339 . S
C61 H96 0.949 . S
C62 C61 1.339 . S
C62 C63 1.439 . S
C62 H97 0.950 . S
C63 N59 1.383 . S
C63 C62 1.439 . S
C63 C92 1.392 . S
N64 Co58 2.008 . S
N64 C65 1.376 . S
N64 C68 1.374 1_545 S
C65 N64 1.376 . S
C65 C66 1.443 1_545 S
C65 C92 1.389 . S
C66 C65 1.443 1_565 S
C66 C67 1.340 . S
C66 H98 0.951 . S
C67 C66 1.340 . S
C67 C68 1.439 . S
C67 H99 0.950 . S
C68 N64 1.374 1_565 S
C68 C67 1.439 . S
C68 C93 1.395 . S
N69 Co58 1.995 . S
N69 C70 1.376 . S
N69 C73 1.383 . S
C70 N69 1.376 . S
C70 C71 1.446 1_545 S
C70 C93 1.391 1_545 S
C71 C70 1.446 1_565 S
C71 C72 1.337 1_565 S
C71 H100 0.951 . S
C72 C71 1.337 1_545 S
C72 C73 1.439 . S
C72 H101 0.950 . S
C73 N69 1.383 . S
C73 C72 1.439 . S
C73 C91 1.392 . S
N74 Co58 2.282 . S
N74 C77 1.332 . S
N74 C79 1.332 . S
C75 C76 1.386 . S
C75 C78 1.388 . S
C76 C75 1.386 . S
C76 C77 1.382 . S
C76 H102 0.950 . S
C77 N74 1.332 . S
C77 C76 1.382 . S
C77 H88 0.952 . S
C78 C75 1.388 . S
C78 C79 1.382 . S
C78 H103 0.950 . S
C79 N74 1.332 . S
C79 C78 1.382 . S
C79 H89 0.948 . S
N80 Co58 2.282 . S
N80 C84 1.332 . S
N80 C85 1.332 . S
C81 C82 1.388 . S
C81 C85 1.382 . S
C81 H104 0.950 . S
C82 C81 1.388 . S
C82 C83 1.386 . S
C83 C82 1.386 . S
C83 C84 1.382 . S
C83 H105 0.950 . S
C84 N80 1.332 . S
C84 C83 1.382 . S
C84 H86 0.952 . S
C85 N80 1.332 . S
C85 C81 1.382 . S
C85 H87 0.948 . S
H86 C84 0.952 . S
H87 C85 0.948 . S
H88 C77 0.952 . S
H89 C79 0.948 . S
C90 C56 1.395 . S
C90 C60 1.391 . S
C91 C53 1.389 . S
C91 C73 1.392 . S
C92 C63 1.392 . S
C92 C65 1.389 . S
C93 C68 1.395 . S
C93 C70 1.391 1_565 S
H94 C54 0.951 . S
H95 C55 0.950 . S
H96 C61 0.949 . S
H97 C62 0.950 . S
H98 C66 0.951 . S
H99 C67 0.950 . S
H100 C71 0.951 . S
H101 C72 0.950 . S
H102 C76 0.950 . S
H103 C78 0.950 . S
H104 C81 0.950 . S
H105 C83 0.950 . S
C106 C107 1.443 . S
C106 N110 1.376 . S
C106 C144 1.389 . S
C107 C106 1.443 . S
C107 C108 1.340 . S
C107 H147 0.951 . S
C108 C107 1.340 . S
C108 C109 1.439 . S
C108 H148 0.950 . S
C109 C108 1.439 . S
C109 N110 1.374 . S
C109 C143 1.395 . S
N110 C106 1.376 . S
N110 C109 1.374 . S
N110 Co111 2.008 . S
Co111 N110 2.008 . S
Co111 N112 1.995 . S
Co111 N117 2.008 . S
Co111 N122 1.995 . S
Co111 N127 2.282 . S
Co111 N133 2.282 . S
N112 Co111 1.995 . S
N112 C113 1.376 . S
N112 C116 1.383 . S
C113 N112 1.376 . S
C113 C114 1.446 . S
C113 C143 1.391 . S
C114 C113 1.446 . S
C114 C115 1.339 . S
C114 H149 0.949 . S
C115 C114 1.339 . S
C115 C116 1.439 . S
C115 H150 0.950 . S
C116 N112 1.383 . S
C116 C115 1.439 . S
C116 C145 1.392 . S
N117 Co111 2.008 . S
N117 C118 1.376 . S
N117 C121 1.374 1_655 S
C118 N117 1.376 . S
C118 C119 1.443 1_655 S
C118 C145 1.389 . S
C119 C118 1.443 1_455 S
C119 C120 1.340 . S
C119 H151 0.951 . S
C120 C119 1.340 . S
C120 C121 1.439 . S
C120 H152 0.950 . S
C121 N117 1.374 1_455 S
C121 C120 1.439 . S
C121 C146 1.395 . S
N122 Co111 1.995 . S
N122 C123 1.376 . S
N122 C126 1.383 . S
C123 N122 1.376 . S
C123 C124 1.446 1_655 S
C123 C146 1.391 1_655 S
C124 C123 1.446 1_455 S
C124 C125 1.337 1_455 S
C124 H153 0.951 . S
C125 C124 1.337 1_655 S
C125 C126 1.439 . S
C125 H154 0.950 . S
C126 N122 1.383 . S
C126 C125 1.439 . S
C126 C144 1.392 . S
N127 Co111 2.282 . S
N127 C130 1.332 . S
N127 C132 1.332 . S
C128 C129 1.386 . S
C128 C131 1.388 . S
C129 C128 1.386 . S
C129 C130 1.382 . S
C129 H155 0.950 . S
C130 N127 1.332 . S
C130 C129 1.382 . S
C130 H141 0.952 . S
C131 C128 1.388 . S
C131 C132 1.382 . S
C131 H156 0.950 . S
C132 N127 1.332 . S
C132 C131 1.382 . S
C132 H142 0.948 . S
N133 Co111 2.282 . S
N133 C137 1.332 . S
N133 C138 1.332 . S
C134 C135 1.388 . S
C134 C138 1.382 . S
C134 H157 0.950 . S
C135 C134 1.388 . S
C135 C136 1.386 . S
C136 C135 1.386 . S
C136 C137 1.382 . S
C136 H158 0.950 . S
C137 N133 1.332 . S
C137 C136 1.382 . S
C137 H139 0.952 . S
C138 N133 1.332 . S
C138 C134 1.382 . S
C138 H140 0.948 . S
H139 C137 0.952 . S
H140 C138 0.948 . S
H141 C130 0.952 . S
H142 C132 0.948 . S
C143 C109 1.395 . S
C143 C113 1.391 . S
C144 C106 1.389 . S
C144 C126 1.392 . S
C145 C116 1.392 . S
C145 C118 1.389 . S
C146 C121 1.395 . S
C146 C123 1.391 1_455 S
H147 C107 0.951 . S
H148 C108 0.950 . S
H149 C114 0.949 . S
H150 C115 0.950 . S
H151 C119 0.951 . S
H152 C120 0.950 . S
H153 C124 0.951 . S
H154 C125 0.950 . S
H155 C129 0.950 . S
H156 C131 0.950 . S
H157 C134 0.950 . S
H158 C136 0.950 . S
C159 C160 1.443 . S
C159 N163 1.376 . S
C159 C197 1.389 . S
C160 C159 1.443 . S
C160 C161 1.340 . S
C160 H200 0.951 . S
C161 C160 1.340 . S
C161 C162 1.439 . S
C161 H201 0.950 . S
C162 C161 1.439 . S
C162 N163 1.374 . S
C162 C196 1.395 . S
N163 C159 1.376 . S
N163 C162 1.374 . S
N163 Co164 2.008 . S
Co164 N163 2.008 . S
Co164 N165 1.995 . S
Co164 N170 2.008 . S
Co164 N175 1.995 . S
Co164 N180 2.282 . S
Co164 N186 2.282 . S
N165 Co164 1.995 . S
N165 C166 1.376 . S
N165 C169 1.383 . S
C166 N165 1.376 . S
C166 C167 1.446 . S
C166 C196 1.391 . S
C167 C166 1.446 . S
C167 C168 1.339 . S
C167 H202 0.949 . S
C168 C167 1.339 . S
C168 C169 1.439 . S
C168 H203 0.950 . S
C169 N165 1.383 . S
C169 C168 1.439 . S
C169 C198 1.392 . S
N170 Co164 2.008 . S
N170 C171 1.376 . S
N170 C174 1.374 1_565 S
C171 N170 1.376 . S
C171 C172 1.443 1_565 S
C171 C198 1.389 . S
C172 C171 1.443 1_545 S
C172 C173 1.340 . S
C172 H204 0.951 . S
C173 C172 1.340 . S
C173 C174 1.439 . S
C173 H205 0.950 . S
C174 N170 1.374 1_545 S
C174 C173 1.439 . S
C174 C199 1.395 . S
N175 Co164 1.995 . S
N175 C176 1.376 . S
N175 C179 1.383 . S
C176 N175 1.376 . S
C176 C177 1.446 1_565 S
C176 C199 1.391 1_565 S
C177 C176 1.446 1_545 S
C177 C178 1.337 1_545 S
C177 H206 0.951 . S
C178 C177 1.337 1_565 S
C178 C179 1.439 . S
C178 H207 0.950 . S
C179 N175 1.383 . S
C179 C178 1.439 . S
C179 C197 1.392 . S
N180 Co164 2.282 . S
N180 C183 1.332 . S
N180 C185 1.332 . S
C181 C182 1.386 . S
C181 C184 1.388 . S
C182 C181 1.386 . S
C182 C183 1.382 . S
C182 H208 0.950 . S
C183 N180 1.332 . S
C183 C182 1.382 . S
C183 H194 0.952 . S
C184 C181 1.388 . S
C184 C185 1.382 . S
C184 H209 0.950 . S
C185 N180 1.332 . S
C185 C184 1.382 . S
C185 H195 0.948 . S
N186 Co164 2.282 . S
N186 C190 1.332 . S
N186 C191 1.332 . S
C187 C188 1.388 . S
C187 C191 1.382 . S
C187 H210 0.950 . S
C188 C187 1.388 . S
C188 C189 1.386 . S
C189 C188 1.386 . S
C189 C190 1.382 . S
C189 H211 0.950 . S
C190 N186 1.332 . S
C190 C189 1.382 . S
C190 H192 0.952 . S
C191 N186 1.332 . S
C191 C187 1.382 . S
C191 H193 0.948 . S
H192 C190 0.952 . S
H193 C191 0.948 . S
H194 C183 0.952 . S
H195 C185 0.948 . S
C196 C162 1.395 . S
C196 C166 1.391 . S
C197 C159 1.389 . S
C197 C179 1.392 . S
C198 C169 1.392 . S
C198 C171 1.389 . S
C199 C174 1.395 . S
C199 C176 1.391 1_545 S
H200 C160 0.951 . S
H201 C161 0.950 . S
H202 C167 0.949 . S
H203 C168 0.950 . S
H204 C172 0.951 . S
H205 C173 0.950 . S
H206 C177 0.951 . S
H207 C178 0.950 . S
H208 C182 0.950 . S
H209 C184 0.950 . S
H210 C187 0.950 . S
H211 C189 0.950 . S
C212 C213 1.443 . S
C212 N216 1.376 . S
C212 C250 1.389 . S
C213 C212 1.443 . S
C213 C214 1.340 . S
C213 H253 0.951 . S
C214 C213 1.340 . S
C214 C215 1.439 . S
C214 H254 0.950 . S
C215 C214 1.439 . S
C215 N216 1.374 . S
C215 C249 1.395 . S
N216 C212 1.376 . S
N216 C215 1.374 . S
N216 Co217 2.008 . S
Co217 N216 2.008 . S
Co217 N218 1.995 . S
Co217 N223 2.008 . S
Co217 N228 1.995 . S
Co217 N233 2.282 . S
Co217 N239 2.282 . S
N218 Co217 1.995 . S
N218 C219 1.376 . S
N218 C222 1.383 . S
C219 N218 1.376 . S
C219 C220 1.446 . S
C219 C249 1.391 . S
C220 C219 1.446 . S
C220 C221 1.339 . S
C220 H255 0.949 . S
C221 C220 1.339 . S
C221 C222 1.439 . S
C221 H256 0.950 . S
C222 N218 1.383 . S
C222 C221 1.439 . S
C222 C251 1.392 . S
N223 Co217 2.008 . S
N223 C224 1.376 . S
N223 C227 1.374 1_455 S
C224 N223 1.376 . S
C224 C225 1.443 1_455 S
C224 C251 1.389 . S
C225 C224 1.443 1_655 S
C225 C226 1.340 . S
C225 H257 0.951 . S
C226 C225 1.340 . S
C226 C227 1.439 . S
C226 H258 0.950 . S
C227 N223 1.374 1_655 S
C227 C226 1.439 . S
C227 C252 1.395 . S
N228 Co217 1.995 . S
N228 C229 1.376 . S
N228 C232 1.383 . S
C229 N228 1.376 . S
C229 C230 1.446 1_455 S
C229 C252 1.391 1_455 S
C230 C229 1.446 1_655 S
C230 C231 1.337 1_655 S
C230 H259 0.951 . S
C231 C230 1.337 1_455 S
C231 C232 1.439 . S
C231 H260 0.950 . S
C232 N228 1.383 . S
C232 C231 1.439 . S
C232 C250 1.392 . S
N233 Co217 2.282 . S
N233 C236 1.332 . S
N233 C238 1.332 . S
C234 C235 1.386 . S
C234 C237 1.388 . S
C235 C234 1.386 . S
C235 C236 1.382 . S
C235 H261 0.950 . S
C236 N233 1.332 . S
C236 C235 1.382 . S
C236 H247 0.952 . S
C237 C234 1.388 . S
C237 C238 1.382 . S
C237 H262 0.950 . S
C238 N233 1.332 . S
C238 C237 1.382 . S
C238 H248 0.948 . S
N239 Co217 2.282 . S
N239 C243 1.332 . S
N239 C244 1.332 . S
C240 C241 1.388 . S
C240 C244 1.382 . S
C240 H263 0.950 . S
C241 C240 1.388 . S
C241 C242 1.386 . S
C242 C241 1.386 . S
C242 C243 1.382 . S
C242 H264 0.950 . S
C243 N239 1.332 . S
C243 C242 1.382 . S
C243 H245 0.952 . S
C244 N239 1.332 . S
C244 C240 1.382 . S
C244 H246 0.948 . S
H245 C243 0.952 . S
H246 C244 0.948 . S
H247 C236 0.952 . S
H248 C238 0.948 . S
C249 C215 1.395 . S
C249 C219 1.391 . S
C250 C212 1.389 . S
C250 C232 1.392 . S
C251 C222 1.392 . S
C251 C224 1.389 . S
C252 C227 1.395 . S
C252 C229 1.391 1_655 S
H253 C213 0.951 . S
H254 C214 0.950 . S
H255 C220 0.949 . S
H256 C221 0.950 . S
H257 C225 0.951 . S
H258 C226 0.950 . S
H259 C230 0.951 . S
H260 C231 0.950 . S
H261 C235 0.950 . S
H262 C237 0.950 . S
H263 C240 0.950 . S
H264 C242 0.950 . S
C265 C266 1.443 . S
C265 N269 1.376 . S
C265 C303 1.389 . S
C266 C265 1.443 . S
C266 C267 1.340 . S
C266 H306 0.951 . S
C267 C266 1.340 . S
C267 C268 1.439 . S
C267 H307 0.950 . S
C268 C267 1.439 . S
C268 N269 1.374 . S
C268 C302 1.395 . S
N269 C265 1.376 . S
N269 C268 1.374 . S
N269 Co270 2.008 . S
Co270 N269 2.008 . S
Co270 N271 1.995 . S
Co270 N276 2.008 . S
Co270 N281 1.995 . S
Co270 N286 2.282 . S
Co270 N292 2.282 . S
N271 Co270 1.995 . S
N271 C272 1.376 . S
N271 C275 1.383 . S
C272 N271 1.376 . S
C272 C273 1.446 . S
C272 C302 1.391 . S
C273 C272 1.446 . S
C273 C274 1.339 . S
C273 H308 0.949 . S
C274 C273 1.339 . S
C274 C275 1.439 . S
C274 H309 0.950 . S
C275 N271 1.383 . S
C275 C274 1.439 . S
C275 C304 1.392 . S
N276 Co270 2.008 . S
N276 C277 1.376 . S
N276 C280 1.374 1_545 S
C277 N276 1.376 . S
C277 C278 1.443 1_545 S
C277 C304 1.389 . S
C278 C277 1.443 1_565 S
C278 C279 1.340 . S
C278 H310 0.951 . S
C279 C278 1.340 . S
C279 C280 1.439 . S
C279 H311 0.950 . S
C280 N276 1.374 1_565 S
C280 C279 1.439 . S
C280 C305 1.395 . S
N281 Co270 1.995 . S
N281 C282 1.376 . S
N281 C285 1.383 . S
C282 N281 1.376 . S
C282 C283 1.446 1_545 S
C282 C305 1.391 1_545 S
C283 C282 1.446 1_565 S
C283 C284 1.337 1_565 S
C283 H312 0.951 . S
C284 C283 1.337 1_545 S
C284 C285 1.439 . S
C284 H313 0.950 . S
C285 N281 1.383 . S
C285 C284 1.439 . S
C285 C303 1.392 . S
N286 Co270 2.282 . S
N286 C289 1.332 . S
N286 C291 1.332 . S
C287 C288 1.386 . S
C287 C290 1.388 . S
C288 C287 1.386 . S
C288 C289 1.382 . S
C288 H314 0.950 . S
C289 N286 1.332 . S
C289 C288 1.382 . S
C289 H300 0.952 . S
C290 C287 1.388 . S
C290 C291 1.382 . S
C290 H315 0.950 . S
C291 N286 1.332 . S
C291 C290 1.382 . S
C291 H301 0.948 . S
N292 Co270 2.282 . S
N292 C296 1.332 . S
N292 C297 1.332 . S
C293 C294 1.388 . S
C293 C297 1.382 . S
C293 H316 0.950 . S
C294 C293 1.388 . S
C294 C295 1.386 . S
C295 C294 1.386 . S
C295 C296 1.382 . S
C295 H317 0.950 . S
C296 N292 1.332 . S
C296 C295 1.382 . S
C296 H298 0.952 . S
C297 N292 1.332 . S
C297 C293 1.382 . S
C297 H299 0.948 . S
H298 C296 0.952 . S
H299 C297 0.948 . S
H300 C289 0.952 . S
H301 C291 0.948 . S
C302 C268 1.395 . S
C302 C272 1.391 . S
C303 C265 1.389 . S
C303 C285 1.392 . S
C304 C275 1.392 . S
C304 C277 1.389 . S
C305 C280 1.395 . S
C305 C282 1.391 1_565 S
H306 C266 0.951 . S
H307 C267 0.950 . S
H308 C273 0.949 . S
H309 C274 0.950 . S
H310 C278 0.951 . S
H311 C279 0.950 . S
H312 C283 0.951 . S
H313 C284 0.950 . S
H314 C288 0.950 . S
H315 C290 0.950 . S
H316 C293 0.950 . S
H317 C295 0.950 . S
C318 C319 1.443 . S
C318 N322 1.376 . S
C318 C356 1.389 . S
C319 C318 1.443 . S
C319 C320 1.340 . S
C319 H359 0.951 . S
C320 C319 1.340 . S
C320 C321 1.439 . S
C320 H360 0.950 . S
C321 C320 1.439 . S
C321 N322 1.374 . S
C321 C355 1.395 . S
N322 C318 1.376 . S
N322 C321 1.374 . S
N322 Co323 2.008 . S
Co323 N322 2.008 . S
Co323 N324 1.995 . S
Co323 N329 2.008 . S
Co323 N334 1.995 . S
Co323 N339 2.282 . S
Co323 N345 2.282 . S
N324 Co323 1.995 . S
N324 C325 1.376 . S
N324 C328 1.383 . S
C325 N324 1.376 . S
C325 C326 1.446 . S
C325 C355 1.391 . S
C326 C325 1.446 . S
C326 C327 1.339 . S
C326 H361 0.949 . S
C327 C326 1.339 . S
C327 C328 1.439 . S
C327 H362 0.950 . S
C328 N324 1.383 . S
C328 C327 1.439 . S
C328 C357 1.392 . S
N329 Co323 2.008 . S
N329 C330 1.376 . S
N329 C333 1.374 1_655 S
C330 N329 1.376 . S
C330 C331 1.443 1_655 S
C330 C357 1.389 . S
C331 C330 1.443 1_455 S
C331 C332 1.340 . S
C331 H363 0.951 . S
C332 C331 1.340 . S
C332 C333 1.439 . S
C332 H364 0.950 . S
C333 N329 1.374 1_455 S
C333 C332 1.439 . S
C333 C358 1.395 . S
N334 Co323 1.995 . S
N334 C335 1.376 . S
N334 C338 1.383 . S
C335 N334 1.376 . S
C335 C336 1.446 1_655 S
C335 C358 1.391 1_655 S
C336 C335 1.446 1_455 S
C336 C337 1.337 1_455 S
C336 H365 0.951 . S
C337 C336 1.337 1_655 S
C337 C338 1.439 . S
C337 H366 0.950 . S
C338 N334 1.383 . S
C338 C337 1.439 . S
C338 C356 1.392 . S
N339 Co323 2.282 . S
N339 C342 1.332 . S
N339 C344 1.332 . S
C340 C341 1.386 . S
C340 C343 1.388 . S
C341 C340 1.386 . S
C341 C342 1.382 . S
C341 H367 0.950 . S
C342 N339 1.332 . S
C342 C341 1.382 . S
C342 H353 0.952 . S
C343 C340 1.388 . S
C343 C344 1.382 . S
C343 H368 0.950 . S
C344 N339 1.332 . S
C344 C343 1.382 . S
C344 H354 0.948 . S
N345 Co323 2.282 . S
N345 C349 1.332 . S
N345 C350 1.332 . S
C346 C347 1.388 . S
C346 C350 1.382 . S
C346 H369 0.950 . S
C347 C346 1.388 . S
C347 C348 1.386 . S
C348 C347 1.386 . S
C348 C349 1.382 . S
C348 H370 0.950 . S
C349 N345 1.332 . S
C349 C348 1.382 . S
C349 H351 0.952 . S
C350 N345 1.332 . S
C350 C346 1.382 . S
C350 H352 0.948 . S
H351 C349 0.952 . S
H352 C350 0.948 . S
H353 C342 0.952 . S
H354 C344 0.948 . S
C355 C321 1.395 . S
C355 C325 1.391 . S
C356 C318 1.389 . S
C356 C338 1.392 . S
C357 C328 1.392 . S
C357 C330 1.389 . S
C358 C333 1.395 . S
C358 C335 1.391 1_455 S
H359 C319 0.951 . S
H360 C320 0.950 . S
H361 C326 0.949 . S
H362 C327 0.950 . S
H363 C331 0.951 . S
H364 C332 0.950 . S
H365 C336 0.951 . S
H366 C337 0.950 . S
H367 C341 0.950 . S
H368 C343 0.950 . S
H369 C346 0.950 . S
H370 C348 0.950 . S
C371 C372 1.443 . S
C371 N375 1.376 . S
C371 C409 1.389 . S
C372 C371 1.443 . S
C372 C373 1.340 . S
C372 H412 0.951 . S
C373 C372 1.340 . S
C373 C374 1.439 . S
C373 H413 0.950 . S
C374 C373 1.439 . S
C374 N375 1.374 . S
C374 C408 1.395 . S
N375 C371 1.376 . S
N375 C374 1.374 . S
N375 Co376 2.008 . S
Co376 N375 2.008 . S
Co376 N377 1.995 . S
Co376 N382 2.008 . S
Co376 N387 1.995 . S
Co376 N392 2.282 . S
Co376 N398 2.282 . S
N377 Co376 1.995 . S
N377 C378 1.376 . S
N377 C381 1.383 . S
C378 N377 1.376 . S
C378 C379 1.446 . S
C378 C408 1.391 . S
C379 C378 1.446 . S
C379 C380 1.339 . S
C379 H414 0.949 . S
C380 C379 1.339 . S
C380 C381 1.439 . S
C380 H415 0.950 . S
C381 N377 1.383 . S
C381 C380 1.439 . S
C381 C410 1.392 . S
N382 Co376 2.008 . S
N382 C383 1.376 . S
N382 C386 1.374 1_565 S
C383 N382 1.376 . S
C383 C384 1.443 1_565 S
C383 C410 1.389 . S
C384 C383 1.443 1_545 S
C384 C385 1.340 . S
C384 H416 0.951 . S
C385 C384 1.340 . S
C385 C386 1.439 . S
C385 H417 0.950 . S
C386 N382 1.374 1_545 S
C386 C385 1.439 . S
C386 C411 1.395 . S
N387 Co376 1.995 . S
N387 C388 1.376 . S
N387 C391 1.383 . S
C388 N387 1.376 . S
C388 C389 1.446 1_565 S
C388 C411 1.391 1_565 S
C389 C388 1.446 1_545 S
C389 C390 1.337 1_545 S
C389 H418 0.951 . S
C390 C389 1.337 1_565 S
C390 C391 1.439 . S
C390 H419 0.950 . S
C391 N387 1.383 . S
C391 C390 1.439 . S
C391 C409 1.392 . S
N392 Co376 2.282 . S
N392 C395 1.332 . S
N392 C397 1.332 . S
C393 C394 1.386 . S
C393 C396 1.388 . S
C394 C393 1.386 . S
C394 C395 1.382 . S
C394 H420 0.950 . S
C395 N392 1.332 . S
C395 C394 1.382 . S
C395 H406 0.952 . S
C396 C393 1.388 . S
C396 C397 1.382 . S
C396 H421 0.950 . S
C397 N392 1.332 . S
C397 C396 1.382 . S
C397 H407 0.948 . S
N398 Co376 2.282 . S
N398 C402 1.332 . S
N398 C403 1.332 . S
C399 C400 1.388 . S
C399 C403 1.382 . S
C399 H422 0.950 . S
C400 C399 1.388 . S
C400 C401 1.386 . S
C401 C400 1.386 . S
C401 C402 1.382 . S
C401 H423 0.950 . S
C402 N398 1.332 . S
C402 C401 1.382 . S
C402 H404 0.952 . S
C403 N398 1.332 . S
C403 C399 1.382 . S
C403 H405 0.948 . S
H404 C402 0.952 . S
H405 C403 0.948 . S
H406 C395 0.952 . S
H407 C397 0.948 . S
C408 C374 1.395 . S
C408 C378 1.391 . S
C409 C371 1.389 . S
C409 C391 1.392 . S
C410 C381 1.392 . S
C410 C383 1.389 . S
C411 C386 1.395 . S
C411 C388 1.391 1_545 S
H412 C372 0.951 . S
H413 C373 0.950 . S
H414 C379 0.949 . S
H415 C380 0.950 . S
H416 C384 0.951 . S
H417 C385 0.950 . S
H418 C389 0.951 . S
H419 C390 0.950 . S
H420 C394 0.950 . S
H421 C396 0.950 . S
H422 C399 0.950 . S
H423 C401 0.950 . S
H424 C430 0.930 . S
H425 C434 0.930 . S
H426 C439 0.929 . S
H427 C437 0.929 . S
H428 C432 0.929 . S
H429 C438 0.929 . S
C430 H424 0.930 . S
C430 C431 1.367 . S
C430 C438 1.378 . S
C431 C430 1.367 . S
C431 C439 1.433 . S
C432 H428 0.929 . S
C432 C434 1.378 . S
C432 C436 1.350 . S
C433 C436 1.463 1_455 S
C433 C438 1.350 . S
C433 N441 1.427 . S
C434 H425 0.930 . S
C434 C432 1.378 . S
C434 C435 1.367 . S
C435 C434 1.367 . S
C435 C437 1.433 . S
C436 C432 1.350 . S
C436 C433 1.463 1_655 S
C436 N440 1.427 . S
C437 H427 0.929 . S
C437 C435 1.433 . S
C437 N440 1.384 . S
C438 H429 0.929 . S
C438 C430 1.378 . S
C438 C433 1.350 . S
C439 H426 0.929 . S
C439 C431 1.433 . S
C439 N441 1.384 . S
N440 C436 1.427 . S
N440 C437 1.384 . S
N441 C433 1.427 . S
N441 C439 1.384 . S
H442 C448 0.930 . S
H443 C452 0.930 . S
H444 C457 0.929 . S
H445 C455 0.929 . S
H446 C450 0.929 . S
H447 C456 0.929 . S
C448 H442 0.930 . S
C448 C449 1.367 . S
C448 C456 1.378 . S
C449 C448 1.367 . S
C449 C457 1.433 . S
C450 H446 0.929 . S
C450 C452 1.378 . S
C450 C454 1.350 . S
C451 C454 1.463 1_565 S
C451 C456 1.350 . S
C451 N459 1.427 . S
C452 H443 0.930 . S
C452 C450 1.378 . S
C452 C453 1.367 . S
C453 C452 1.367 . S
C453 C455 1.433 . S
C454 C450 1.350 . S
C454 C451 1.463 1_545 S
C454 N458 1.427 . S
C455 H445 0.929 . S
C455 C453 1.433 . S
C455 N458 1.384 . S
C456 H447 0.929 . S
C456 C448 1.378 . S
C456 C451 1.350 . S
C457 H444 0.929 . S
C457 C449 1.433 . S
C457 N459 1.384 . S
N458 C454 1.427 . S
N458 C455 1.384 . S
N459 C451 1.427 . S
N459 C457 1.384 . S
H460 C466 0.930 . S
H461 C470 0.930 . S
H462 C475 0.929 . S
H463 C473 0.929 . S
H464 C468 0.929 . S
H465 C474 0.929 . S
C466 H460 0.930 . S
C466 C467 1.367 . S
C466 C474 1.378 1_655 S
C467 C466 1.367 . S
C467 C475 1.433 . S
C468 H464 0.929 . S
C468 C470 1.378 1_655 S
C468 C472 1.350 1_655 S
C469 C472 1.463 1_655 S
C469 C474 1.350 1_655 S
C469 N477 1.427 . S
C470 H461 0.930 . S
C470 C468 1.378 1_455 S
C470 C471 1.367 . S
C471 C470 1.367 . S
C471 C473 1.433 . S
C472 C468 1.350 1_455 S
C472 C469 1.463 1_455 S
C472 N476 1.427 . S
C473 H463 0.929 . S
C473 C471 1.433 . S
C473 N476 1.384 . S
C474 H465 0.929 . S
C474 C466 1.378 1_455 S
C474 C469 1.350 1_455 S
C475 H462 0.929 . S
C475 C467 1.433 . S
C475 N477 1.384 . S
N476 C472 1.427 . S
N476 C473 1.384 . S
N477 C469 1.427 . S
N477 C475 1.384 . S
H478 C484 0.930 1_565 S
H479 C488 0.930 1_545 S
H480 C493 0.929 . S
H481 C491 0.929 . S
H482 C486 0.929 . S
H483 C492 0.929 . S
C484 H478 0.930 1_545 S
C484 C485 1.367 . S
C484 C492 1.378 1_545 S
C485 C484 1.367 . S
C485 C493 1.433 . S
C486 H482 0.929 . S
C486 C488 1.378 1_545 S
C486 C490 1.350 1_545 S
C487 C490 1.463 1_545 S
C487 C492 1.350 1_545 S
C487 N495 1.427 . S
C488 H479 0.930 1_565 S
C488 C486 1.378 1_565 S
C488 C489 1.367 . S
C489 C488 1.367 . S
C489 C491 1.433 . S
C490 C486 1.350 1_565 S
C490 C487 1.463 1_565 S
C490 N494 1.427 . S
C491 H481 0.929 . S
C491 C489 1.433 . S
C491 N494 1.384 . S
C492 H483 0.929 . S
C492 C484 1.378 1_565 S
C492 C487 1.350 1_565 S
C493 H480 0.929 . S
C493 C485 1.433 . S
C493 N495 1.384 . S
N494 C490 1.427 . S
N494 C491 1.384 . S
N495 C487 1.427 . S
N495 C493 1.384 . S
H496 C502 0.930 . S
H497 C506 0.930 . S
H498 C511 0.929 1_455 S
H499 C509 0.929 1_655 S
H500 C504 0.929 . S
H501 C510 0.929 . S
C502 H496 0.930 . S
C502 C503 1.367 . S
C502 C510 1.378 . S
C503 C502 1.367 . S
C503 C511 1.433 . S
C504 H500 0.929 . S
C504 C506 1.378 . S
C504 C508 1.350 . S
C505 C508 1.463 1_656 S
C505 C510 1.350 . S
C505 N513 1.427 1_655 S
C506 H497 0.930 . S
C506 C504 1.378 . S
C506 C507 1.367 . S
C507 C506 1.367 . S
C507 C509 1.433 . S
C508 C504 1.350 . S
C508 C505 1.463 1_454 S
C508 N512 1.427 1_455 S
C509 H499 0.929 1_455 S
C509 C507 1.433 . S
C509 N512 1.384 1_455 S
C510 H501 0.929 . S
C510 C502 1.378 . S
C510 C505 1.350 . S
C511 H498 0.929 1_655 S
C511 C503 1.433 . S
C511 N513 1.384 1_655 S
N512 C508 1.427 1_655 S
N512 C509 1.384 1_655 S
N513 C505 1.427 1_455 S
N513 C511 1.384 1_455 S
H514 C520 0.930 . S
H515 C524 0.930 . S
H516 C529 0.929 . S
H517 C527 0.929 . S
H518 C522 0.929 . S
H519 C528 0.929 . S
C520 H514 0.930 . S
C520 C521 1.367 1_565 S
C520 C528 1.378 . S
C521 C520 1.367 1_545 S
C521 C529 1.433 . S
C522 H518 0.929 . S
C522 C524 1.378 . S
C522 C526 1.350 1_545 S
C523 C526 1.463 1_545 S
C523 C528 1.350 1_545 S
C523 N531 1.427 . S
C524 H515 0.930 . S
C524 C522 1.378 . S
C524 C525 1.367 1_545 S
C525 C524 1.367 1_565 S
C525 C527 1.433 . S
C526 C522 1.350 1_565 S
C526 C523 1.463 1_565 S
C526 N530 1.427 . S
C527 H517 0.929 . S
C527 C525 1.433 . S
C527 N530 1.384 . S
C528 H519 0.929 . S
C528 C520 1.378 . S
C528 C523 1.350 1_565 S
C529 H516 0.929 . S
C529 C521 1.433 . S
C529 N531 1.384 . S
N530 C526 1.427 . S
N530 C527 1.384 . S
N531 C523 1.427 . S
N531 C529 1.384 . S
H532 C538 0.930 . S
H533 C542 0.930 . S
H534 C547 0.929 . S
H535 C545 0.929 . S
H536 C540 0.929 . S
H537 C546 0.929 . S
C538 H532 0.930 . S
C538 C539 1.367 1_455 S
C538 C546 1.378 . S
C539 C538 1.367 1_655 S
C539 C547 1.433 . S
C540 H536 0.929 . S
C540 C542 1.378 . S
C540 C544 1.350 1_655 S
C541 C544 1.463 1_654 S
C541 C546 1.350 1_655 S
C541 N549 1.427 . S
C542 H533 0.930 . S
C542 C540 1.378 . S
C542 C543 1.367 1_655 S
C543 C542 1.367 1_455 S
C543 C545 1.433 . S
C544 C540 1.350 1_455 S
C544 C541 1.463 1_456 S
C544 N548 1.427 . S
C545 H535 0.929 . S
C545 C543 1.433 . S
C545 N548 1.384 . S
C546 H537 0.929 . S
C546 C538 1.378 . S
C546 C541 1.350 1_455 S
C547 H534 0.929 . S
C547 C539 1.433 . S
C547 N549 1.384 . S
N548 C544 1.427 . S
N548 C545 1.384 . S
N549 C541 1.427 . S
N549 C547 1.384 . S
H550 C556 0.930 . S
H551 C560 0.930 . S
H552 C565 0.929 . S
H553 C563 0.929 . S
H554 C558 0.929 . S
H555 C564 0.929 . S
C556 H550 0.930 . S
C556 C557 1.367 1_565 S
C556 C564 1.378 . S
C557 C556 1.367 1_545 S
C557 C565 1.433 . S
C558 H554 0.929 . S
C558 C560 1.378 . S
C558 C562 1.350 1_545 S
C559 C562 1.463 1_545 S
C559 C564 1.350 1_545 S
C559 N567 1.427 . S
C560 H551 0.930 . S
C560 C558 1.378 . S
C560 C561 1.367 1_545 S
C561 C560 1.367 1_565 S
C561 C563 1.433 . S
C562 C558 1.350 1_565 S
C562 C559 1.463 1_565 S
C562 N566 1.427 . S
C563 H553 0.929 . S
C563 C561 1.433 . S
C563 N566 1.384 . S
C564 H555 0.929 . S
C564 C556 1.378 . S
C564 C559 1.350 1_565 S
C565 H552 0.929 . S
C565 C557 1.433 . S
C565 N567 1.384 . S
N566 C562 1.427 . S
N566 C563 1.384 . S
N567 C559 1.427 . S
N567 C565 1.384 . S
H568 C574 0.930 . S
H569 C578 0.930 . S
H570 C583 0.929 . S
H571 C581 0.929 . S
H572 C576 0.929 . S
H573 C582 0.929 . S
C574 H568 0.930 . S
C574 C575 1.367 . S
C574 C582 1.378 . S
C575 C574 1.367 . S
C575 C583 1.433 . S
C576 H572 0.929 . S
C576 C578 1.378 . S
C576 C580 1.350 . S
C577 C580 1.463 . S
C577 C582 1.350 . S
C577 N585 1.427 . S
C578 H569 0.930 . S
C578 C576 1.378 . S
C578 C579 1.367 . S
C579 C578 1.367 . S
C579 C581 1.433 . S
C580 C576 1.350 . S
C580 C577 1.463 . S
C580 N584 1.427 . S
C581 H571 0.929 . S
C581 C579 1.433 . S
C581 N584 1.384 . S
C582 H573 0.929 . S
C582 C574 1.378 . S
C582 C577 1.350 . S
C583 H570 0.929 . S
C583 C575 1.433 . S
C583 N585 1.384 . S
N584 C580 1.427 . S
N584 C581 1.384 . S
N585 C577 1.427 . S
N585 C583 1.384 . S
H586 C592 0.930 . S
H587 C596 0.930 . S
H588 C601 0.929 . S
H589 C599 0.929 . S
H590 C594 0.929 . S
H591 C600 0.929 . S
C592 H586 0.930 . S
C592 C593 1.367 . S
C592 C600 1.378 . S
C593 C592 1.367 . S
C593 C601 1.433 . S
C594 H590 0.929 . S
C594 C596 1.378 . S
C594 C598 1.350 . S
C595 C598 1.463 . S
C595 C600 1.350 . S
C595 N603 1.427 . S
C596 H587 0.930 . S
C596 C594 1.378 . S
C596 C597 1.367 . S
C597 C596 1.367 . S
C597 C599 1.433 . S
C598 C594 1.350 . S
C598 C595 1.463 . S
C598 N602 1.427 . S
C599 H589 0.929 . S
C599 C597 1.433 . S
C599 N602 1.384 . S
C600 H591 0.929 . S
C600 C592 1.378 . S
C600 C595 1.350 . S
C601 H588 0.929 . S
C601 C593 1.433 . S
C601 N603 1.384 . S
N602 C598 1.427 . S
N602 C599 1.384 . S
N603 C595 1.427 . S
N603 C601 1.384 . S
H604 C610 0.930 . S
H605 C614 0.930 . S
H606 C619 0.929 . S
H607 C617 0.929 . S
H608 C612 0.929 . S
H609 C618 0.929 . S
C610 H604 0.930 . S
C610 C611 1.367 . S
C610 C618 1.378 . S
C611 C610 1.367 . S
C611 C619 1.433 . S
C612 H608 0.929 . S
C612 C614 1.378 . S
C612 C616 1.350 . S
C613 C616 1.463 . S
C613 C618 1.350 . S
C613 N621 1.427 . S
C614 H605 0.930 . S
C614 C612 1.378 . S
C614 C615 1.367 . S
C615 C614 1.367 . S
C615 C617 1.433 . S
C616 C612 1.350 . S
C616 C613 1.463 . S
C616 N620 1.427 . S
C617 H607 0.929 . S
C617 C615 1.433 . S
C617 N620 1.384 . S
C618 H609 0.929 . S
C618 C610 1.378 . S
C618 C613 1.350 . S
C619 H606 0.929 . S
C619 C611 1.433 . S
C619 N621 1.384 . S
N620 C616 1.427 . S
N620 C617 1.384 . S
N621 C613 1.427 . S
N621 C619 1.384 . S
H622 C628 0.930 . S
H623 C632 0.930 . S
H624 C637 0.929 . S
H625 C635 0.929 . S
H626 C630 0.929 . S
H627 C636 0.929 . S
C628 H622 0.930 . S
C628 C629 1.367 . S
C628 C636 1.378 . S
C629 C628 1.367 . S
C629 C637 1.433 . S
C630 H626 0.929 . S
C630 C632 1.378 . S
C630 C634 1.350 . S
C631 C634 1.463 . S
C631 C636 1.350 . S
C631 N639 1.427 . S
C632 H623 0.930 . S
C632 C630 1.378 . S
C632 C633 1.367 . S
C633 C632 1.367 . S
C633 C635 1.433 . S
C634 C630 1.350 . S
C634 C631 1.463 . S
C634 N638 1.427 . S
C635 H625 0.929 . S
C635 C633 1.433 . S
C635 N638 1.384 . S
C636 H627 0.929 . S
C636 C628 1.378 . S
C636 C631 1.350 . S
C637 H624 0.929 . S
C637 C629 1.433 . S
C637 N639 1.384 . S
N638 C634 1.427 . S
N638 C635 1.384 . S
N639 C631 1.427 . S
N639 C637 1.384 . S
H640 C646 0.930 . S
H641 C650 0.930 . S
H642 C655 0.929 1_655 S
H643 C653 0.929 1_455 S
H644 C648 0.929 1_545 S
H645 C654 0.929 1_565 S
C646 H640 0.930 . S
C646 C647 1.367 . S
C646 C654 1.378 . S
C647 C646 1.367 . S
C647 C655 1.433 . S
C648 H644 0.929 1_565 S
C648 C650 1.378 . S
C648 C652 1.350 . S
C649 C652 1.463 1_445 S
C649 C654 1.350 . S
C649 N657 1.427 1_455 S
C650 H641 0.930 . S
C650 C648 1.378 . S
C650 C651 1.367 . S
C651 C650 1.367 . S
C651 C653 1.433 . S
C652 C648 1.350 . S
C652 C649 1.463 1_665 S
C652 N656 1.427 1_655 S
C653 H643 0.929 1_655 S
C653 C651 1.433 . S
C653 N656 1.384 1_655 S
C654 H645 0.929 1_545 S
C654 C646 1.378 . S
C654 C649 1.350 . S
C655 H642 0.929 1_455 S
C655 C647 1.433 . S
C655 N657 1.384 1_455 S
N656 C652 1.427 1_455 S
N656 C653 1.384 1_455 S
N657 C649 1.427 1_655 S
N657 C655 1.384 1_655 S
H658 C664 0.930 . S
H659 C668 0.930 . S
H660 C673 0.929 . S
H661 C671 0.929 . S
H662 C666 0.929 1_565 S
H663 C672 0.929 1_545 S
C664 H658 0.930 . S
C664 C665 1.367 . S
C664 C672 1.378 . S
C665 C664 1.367 . S
C665 C673 1.433 . S
C666 H662 0.929 1_545 S
C666 C668 1.378 . S
C666 C670 1.350 . S
C667 C670 1.463 1_465 S
C667 C672 1.350 . S
C667 N675 1.427 . S
C668 H659 0.930 . S
C668 C666 1.378 . S
C668 C669 1.367 . S
C669 C668 1.367 . S
C669 C671 1.433 . S
C670 C666 1.350 . S
C670 C667 1.463 1_645 S
C670 N674 1.427 . S
C671 H661 0.929 . S
C671 C669 1.433 . S
C671 N674 1.384 . S
C672 H663 0.929 1_565 S
C672 C664 1.378 . S
C672 C667 1.350 . S
C673 H660 0.929 . S
C673 C665 1.433 . S
C673 N675 1.384 . S
N674 C670 1.427 . S
N674 C671 1.384 . S
N675 C667 1.427 . S
N675 C673 1.384 . S
H676 C682 0.930 . S
H677 C686 0.930 . S
H678 C691 0.929 . S
H679 C689 0.929 . S
H680 C684 0.929 1_655 S
H681 C690 0.929 1_455 S
C682 H676 0.930 . S
C682 C683 1.367 . S
C682 C690 1.378 . S
C683 C682 1.367 . S
C683 C691 1.433 . S
C684 H680 0.929 1_455 S
C684 C686 1.378 . S
C684 C688 1.350 . S
C685 C688 1.463 1_645 S
C685 C690 1.350 . S
C685 N693 1.427 . S
C686 H677 0.930 . S
C686 C684 1.378 . S
C686 C687 1.367 . S
C687 C686 1.367 . S
C687 C689 1.433 . S
C688 C684 1.350 . S
C688 C685 1.463 1_465 S
C688 N692 1.427 . S
C689 H679 0.929 . S
C689 C687 1.433 . S
C689 N692 1.384 . S
C690 H681 0.929 1_655 S
C690 C682 1.378 . S
C690 C685 1.350 . S
C691 H678 0.929 . S
C691 C683 1.433 . S
C691 N693 1.384 . S
N692 C688 1.427 . S
N692 C689 1.384 . S
N693 C685 1.427 . S
N693 C691 1.384 . S
H694 C700 0.930 . S
H695 C704 0.930 . S
H696 C709 0.929 . S
H697 C707 0.929 . S
H698 C702 0.929 1_565 S
H699 C708 0.929 1_545 S
C700 H694 0.930 . S
C700 C701 1.367 . S
C700 C708 1.378 . S
C701 C700 1.367 . S
C701 C709 1.433 . S
C702 H698 0.929 1_545 S
C702 C704 1.378 . S
C702 C706 1.350 . S
C703 C706 1.463 1_665 S
C703 C708 1.350 . S
C703 N711 1.427 . S
C704 H695 0.930 . S
C704 C702 1.378 . S
C704 C705 1.367 . S
C705 C704 1.367 . S
C705 C707 1.433 . S
C706 C702 1.350 . S
C706 C703 1.463 1_445 S
C706 N710 1.427 . S
C707 H697 0.929 . S
C707 C705 1.433 . S
C707 N710 1.384 . S
C708 H699 0.929 1_565 S
C708 C700 1.378 . S
C708 C703 1.350 . S
C709 H696 0.929 . S
C709 C701 1.433 . S
C709 N711 1.384 . S
N710 C706 1.427 . S
N710 C707 1.384 . S
N711 C703 1.427 . S
N711 C709 1.384 . S
C431 C22 1.873 . S
C435 C128 1.871 . S
C449 C181 1.872 . S
C453 C75 1.870 . S
C467 C340 1.866 . S
C471 C234 1.865 . S
C485 C287 1.865 . S
C489 C393 1.865 . S
C503 C357 1.792 . S
C507 C39 1.785 . S
C521 C92 1.793 . S
C525 C410 1.788 . S
C539 C145 1.788 . S
C543 C251 1.793 . S
C557 C304 1.791 . S
C561 C198 1.790 . S
C575 C38 1.854 . S
C579 C303 1.854 . S
C593 C356 1.850 . S
C597 C91 1.850 . S
C611 C409 1.848 . S
C615 C144 1.848 . S
C629 C197 1.855 . S
C633 C250 1.855 . S
C647 C29 1.679 . S
C651 C135 1.679 . S
C665 C188 1.669 . S
C669 C82 1.667 . S
C683 C347 1.669 . S
C687 C241 1.667 . S
C701 C400 1.668 . S
C705 C294 1.669 . S
