# Generated by pormake.
# Topology sml, (6)-cn, num edge types: 1
# Building blocks:
#     Node 0, Type 0, BuildingBlock: INOVEN_clean_sbu_0, # of connection points: 6
#     Node 1, Type 0, BuildingBlock: INOVEN_clean_sbu_0, # of connection points: 6
#     Node 2, Type 0, BuildingBlock: INOVEN_clean_sbu_0, # of connection points: 6
#     Node 3, Type 0, BuildingBlock: INOVEN_clean_sbu_0, # of connection points: 6
#     Node 4, Type 0, BuildingBlock: INOVEN_clean_sbu_0, # of connection points: 6
#     Node 5, Type 0, BuildingBlock: INOVEN_clean_sbu_0, # of connection points: 6
#     Edge 6, Type (0, 0), BuildingBlock: XUDNAN_clean_linker_2, # of connection points: 2
#     Edge 7, Type (0, 0), BuildingBlock: XUDNAN_clean_linker_2, # of connection points: 2
#     Edge 8, Type (0, 0), BuildingBlock: XUDNAN_clean_linker_2, # of connection points: 2
#     Edge 9, Type (0, 0), BuildingBlock: XUDNAN_clean_linker_2, # of connection points: 2
#     Edge 10, Type (0, 0), BuildingBlock: XUDNAN_clean_linker_2, # of connection points: 2
#     Edge 11, Type (0, 0), BuildingBlock: XUDNAN_clean_linker_2, # of connection points: 2
#     Edge 12, Type (0, 0), BuildingBlock: XUDNAN_clean_linker_2, # of connection points: 2
#     Edge 13, Type (0, 0), BuildingBlock: XUDNAN_clean_linker_2, # of connection points: 2
#     Edge 14, Type (0, 0), BuildingBlock: XUDNAN_clean_linker_2, # of connection points: 2
#     Edge 15, Type (0, 0), BuildingBlock: XUDNAN_clean_linker_2, # of connection points: 2
#     Edge 16, Type (0, 0), BuildingBlock: XUDNAN_clean_linker_2, # of connection points: 2
#     Edge 17, Type (0, 0), BuildingBlock: XUDNAN_clean_linker_2, # of connection points: 2
#     Edge 18, Type (0, 0), BuildingBlock: XUDNAN_clean_linker_2, # of connection points: 2
#     Edge 19, Type (0, 0), BuildingBlock: XUDNAN_clean_linker_2, # of connection points: 2
#     Edge 20, Type (0, 0), BuildingBlock: XUDNAN_clean_linker_2, # of connection points: 2
#     Edge 21, Type (0, 0), BuildingBlock: XUDNAN_clean_linker_2, # of connection points: 2
#     Edge 22, Type (0, 0), BuildingBlock: XUDNAN_clean_linker_2, # of connection points: 2
#     Edge 23, Type (0, 0), BuildingBlock: XUDNAN_clean_linker_2, # of connection points: 2
# Relax obj value: 0.209
# Max RMSD: 0.241
# Mean RMSD: 0.241
data_MOF--net-sml--node1-INOVEN_clean_sbu_0--edge1-XUDNAN_clean_linker_2
_symmetry_space_group_name_H-M    P1
_symmetry_Int_Tables_number       1
_symmetry_cell_setting            triclinic
loop_
_symmetry_equiv_pos_as_xyz
'x, y, z'
_cell_length_a     32.656369
_cell_length_b     32.759952
_cell_length_c     25.203016
_cell_angle_alpha  90.107376
_cell_angle_beta   90.380867
_cell_angle_gamma 120.09897
loop_
_atom_site_label
_atom_site_type_symbol
_atom_site_fract_x
_atom_site_fract_y
_atom_site_fract_z
_atom_type_partial_charge
Gd0 Gd 0.18876 0.43187 0.97622 0.0
Gd1 Gd 0.23153 0.41261 0.07689 0.0
C2 C 0.22076 0.35181 0.97479 0.0
C3 C 0.17404 0.45043 0.88067 0.0
C4 C 0.17994 0.43725 0.82619 0.0
C5 C 0.15521 0.3901 0.8086 0.0
C6 C 0.21026 0.47241 0.79085 0.0
C7 C 0.19018 0.41372 0.72081 0.0
C8 C 0.21543 0.4608 0.7388 0.0
C9 C 0.16017 0.37853 0.75653 0.0
C10 C 0.12519 0.37867 0.04976 0.0
C11 C 0.20025 0.49193 0.07836 0.0
C12 C 0.2548 0.39634 0.16958 0.0
C13 C 0.24478 0.39381 0.22657 0.0
C14 C 0.26873 0.37902 0.26067 0.0
C15 C 0.21204 0.40528 0.24748 0.0
C16 C 0.22697 0.38613 0.33652 0.0
C17 C 0.20334 0.40165 0.30225 0.0
C18 C 0.25997 0.37521 0.31501 0.0
C19 C 0.2941 0.46909 1.0034 0.0
O20 O 0.21128 0.38092 0.94828 0.0
O21 O 0.22433 0.35281 0.02701 0.0
O22 O 0.14101 0.41737 0.90979 0.0
O23 O 0.21296 0.47756 0.90745 0.0
O24 O 0.12028 0.40757 0.01868 0.0
O25 O 0.16155 0.37645 0.03776 0.0
O26 O 0.20252 0.45866 0.10583 0.0
O27 O 0.20195 0.49356 0.02605 0.0
O28 O 0.27534 0.43812 0.14775 0.0
O29 O 0.22231 0.36342 0.13927 0.0
O30 O 0.30078 0.44028 0.03226 0.0
O31 O 0.25708 0.46857 0.01712 0.0
H32 H 0.13165 0.36206 0.83483 0.0
H33 H 0.22993 0.50899 0.8035 0.0
H34 H 0.2395 0.48874 0.71279 0.0
H35 H 0.1397 0.34198 0.74406 0.0
H36 H 0.29425 0.37023 0.24518 0.0
H37 H 0.19316 0.41669 0.22154 0.0
H38 H 0.17756 0.41009 0.31764 0.0
H39 H 0.27937 0.36397 0.34032 0.0
Gd40 Gd 0.75645 0.17884 0.30705 0.0
Gd41 Gd 0.81076 0.2321 0.40791 0.0
C42 C 0.87081 0.23756 0.3091 0.0
C43 C 0.72536 0.14846 0.21181 0.0
C44 C 0.73568 0.16577 0.15697 0.0
C45 C 0.71035 0.13495 0.11514 0.0
C46 C 0.77044 0.21242 0.14575 0.0
C47 C 0.75351 0.19737 0.05102 0.0
C48 C 0.77907 0.22821 0.09319 0.0
C49 C 0.71925 0.15051 0.06264 0.0
C50 C 0.75672 0.12281 0.38481 0.0
C51 C 0.69696 0.18331 0.40247 0.0
C52 C 0.84478 0.2628 0.50219 0.0
C53 C 0.83125 0.25811 0.55846 0.0
C54 C 0.85475 0.29792 0.59137 0.0
C55 C 0.79588 0.21541 0.57995 0.0
C56 C 0.80796 0.25294 0.66699 0.0
C57 C 0.78444 0.21282 0.63392 0.0
C58 C 0.8433 0.29543 0.64495 0.0
C59 C 0.8054 0.28655 0.33037 0.0
O60 O 0.83188 0.22514 0.28117 0.0
O61 O 0.87067 0.23577 0.36141 0.0
O62 O 0.75754 0.14237 0.23574 0.0
O63 O 0.70745 0.16759 0.2426 0.0
O64 O 0.72234 0.11096 0.35137 0.0
O65 O 0.79149 0.16264 0.37331 0.0
O66 O 0.73402 0.19307 0.43283 0.0
O67 O 0.69897 0.18312 0.35011 0.0
O68 O 0.82797 0.28306 0.47137 0.0
O69 O 0.84546 0.22727 0.47934 0.0
O70 O 0.84185 0.30079 0.36153 0.0
O71 O 0.77354 0.24613 0.34371 0.0
H72 H 0.68347 0.09879 0.12311 0.0
H73 H 0.79086 0.23652 0.17754 0.0
H74 H 0.80606 0.26436 0.08549 0.0
H75 H 0.69867 0.12606 0.03116 0.0
H76 H 0.88223 0.33113 0.57556 0.0
H77 H 0.77714 0.18426 0.55512 0.0
H78 H 0.75682 0.17966 0.64959 0.0
H79 H 0.86268 0.32677 0.66934 0.0
Gd80 Gd 0.56461 0.76321 0.65469 0.0
Gd81 Gd 0.5883 0.82582 0.75456 0.0
C82 C 0.6443 0.87491 0.65031 0.0
C83 C 0.54117 0.72429 0.56158 0.0
C84 C 0.54472 0.73323 0.50406 0.0
C85 C 0.54526 0.69947 0.47038 0.0
C86 C 0.54509 0.7728 0.48196 0.0
C87 C 0.54362 0.74275 0.39278 0.0
C88 C 0.54478 0.77763 0.4266 0.0
C89 C 0.54472 0.70412 0.41543 0.0
C90 C 0.62297 0.75562 0.72507 0.0
C91 C 0.50727 0.71401 0.75759 0.0
C92 C 0.60551 0.86164 0.84936 0.0
C93 C 0.59633 0.84365 0.90405 0.0
C94 C 0.59445 0.87177 0.94484 0.0
C95 C 0.58788 0.79821 0.91581 0.0
C96 C 0.5753 0.80915 1.00892 0.0
C97 C 0.57753 0.78115 0.96776 0.0
C98 C 0.58407 0.85475 0.99676 0.0
C99 C 0.53179 0.83397 0.68227 0.0
O100 O 0.61241 0.83652 0.62493 0.0
O101 O 0.64709 0.87767 0.70275 0.0
O102 O 0.5797 0.73226 0.58672 0.0
O103 O 0.51473 0.73603 0.5891 0.0
O104 O 0.5918 0.72077 0.6964 0.0
O105 O 0.62391 0.7934 0.71301 0.0
O106 O 0.53977 0.7513 0.78424 0.0
O107 O 0.50553 0.71291 0.70535 0.0
O108 O 0.5682 0.85344 0.82148 0.0
O109 O 0.63577 0.8551 0.82216 0.0
O110 O 0.56352 0.86924 0.70993 0.0
O111 O 0.52992 0.79621 0.69629 0.0
H112 H 0.54514 0.66882 0.48666 0.0
H113 H 0.54472 0.79935 0.50734 0.0
H114 H 0.54393 0.80777 0.41031 0.0
H115 H 0.54478 0.67715 0.39057 0.0
H116 H 0.60051 0.90679 0.9364 0.0
H117 H 0.58909 0.77588 0.88483 0.0
H118 H 0.5716 0.74613 0.9757 0.0
H119 H 0.58194 0.87702 0.02714 0.0
Gd120 Gd 0.81532 0.56758 0.97134 0.0
Gd121 Gd 0.78084 0.59643 0.07056 0.0
C122 C 0.78688 0.64952 0.96474 0.0
C123 C 0.82741 0.54459 0.87687 0.0
C124 C 0.8142 0.54931 0.82207 0.0
C125 C 0.84707 0.56007 0.78139 0.0
C126 C 0.7698 0.54415 0.80986 0.0
C127 C 0.79178 0.56117 0.71669 0.0
C128 C 0.75863 0.54981 0.75766 0.0
C129 C 0.83608 0.56603 0.7293 0.0
C130 C 0.88369 0.62357 0.04125 0.0
C131 C 0.80158 0.50889 0.07503 0.0
C132 C 0.7653 0.61995 0.16335 0.0
C133 C 0.76469 0.61019 0.22069 0.0
C134 C 0.72318 0.59732 0.24904 0.0
C135 C 0.805 0.6163 0.24829 0.0
C136 C 0.76265 0.59948 0.33218 0.0
C137 C 0.80392 0.61085 0.30359 0.0
C138 C 0.72209 0.59188 0.30401 0.0
C139 C 0.71279 0.53991 1.00052 0.0
O140 O 0.7888 0.61468 0.94056 0.0
O141 O 0.79154 0.65539 0.01677 0.0
O142 O 0.8582 0.58379 0.90066 0.0
O143 O 0.7931 0.51585 0.90804 0.0
O144 O 0.88459 0.59051 0.01371 0.0
O145 O 0.84834 0.6273 0.02823 0.0
O146 O 0.80039 0.54328 0.10151 0.0
O147 O 0.801 0.50682 0.02275 0.0
O148 O 0.73226 0.58664 0.13394 0.0
O149 O 0.80623 0.64245 0.13957 0.0
O150 O 0.71164 0.57317 0.02724 0.0
O151 O 0.74825 0.5368 0.01414 0.0
H152 H 0.8816 0.56444 0.79005 0.0
H153 H 0.7438 0.53595 0.84062 0.0
H154 H 0.72395 0.54514 0.74942 0.0
H155 H 0.86279 0.57553 0.69915 0.0
H156 H 0.69166 0.5924 0.22869 0.0
H157 H 0.83757 0.62628 0.22745 0.0
H158 H 0.83584 0.61716 0.3241 0.0
H159 H 0.68947 0.5822 0.32457 0.0
Gd160 Gd 0.2548 0.82154 0.30835 0.0
Gd161 Gd 0.19564 0.7727 0.40843 0.0
C162 C 0.14027 0.76798 0.30462 0.0
C163 C 0.28784 0.84638 0.21339 0.0
C164 C 0.27517 0.82838 0.15868 0.0
C165 C 0.30118 0.85759 0.11664 0.0
C166 C 0.23763 0.78272 0.14777 0.0
C167 C 0.25259 0.79579 0.05276 0.0
C168 C 0.22649 0.7665 0.09522 0.0
C169 C 0.29005 0.84153 0.06422 0.0
C170 C 0.25506 0.8811 0.38185 0.0
C171 C 0.31078 0.81767 0.41018 0.0
C172 C 0.15968 0.75053 0.50262 0.0
C173 C 0.17344 0.74934 0.55834 0.0
C174 C 0.14489 0.70935 0.58887 0.0
C175 C 0.21304 0.78784 0.58227 0.0
C176 C 0.19415 0.74661 0.66705 0.0
C177 C 0.2232 0.78652 0.63618 0.0
C178 C 0.15513 0.70791 0.64254 0.0
C179 C 0.20209 0.71502 0.33639 0.0
O180 O 0.17928 0.777 0.27948 0.0
O181 O 0.13932 0.77211 0.35664 0.0
O182 O 0.26047 0.85971 0.23606 0.0
O183 O 0.30032 0.82301 0.2453 0.0
O184 O 0.28965 0.89096 0.34998 0.0
O185 O 0.21949 0.84151 0.37002 0.0
O186 O 0.27091 0.80159 0.43706 0.0
O187 O 0.31339 0.82465 0.35829 0.0
O188 O 0.16076 0.72012 0.46983 0.0
O189 O 0.17463 0.79193 0.48124 0.0
O190 O 0.1644 0.70251 0.36439 0.0
O191 O 0.23418 0.75557 0.34989 0.0
H192 H 0.33033 0.89291 0.12437 0.0
H193 H 0.21694 0.75974 0.17979 0.0
H194 H 0.19711 0.73128 0.08782 0.0
H195 H 0.31133 0.86476 0.03269 0.0
H196 H 0.11405 0.67937 0.57133 0.0
H197 H 0.23581 0.81911 0.55955 0.0
H198 H 0.25382 0.81669 0.65369 0.0
H199 H 0.13166 0.67689 0.66519 0.0
Gd200 Gd 0.43074 0.2475 0.64789 0.0
Gd201 Gd 0.43053 0.19116 0.7461 0.0
C202 C 0.3708 0.1332 0.64713 0.0
C203 C 0.4294 0.27782 0.5532 0.0
C204 C 0.43056 0.26285 0.4983 0.0
C205 C 0.42388 0.28649 0.45578 0.0
C206 C 0.43664 0.22417 0.48786 0.0
C207 C 0.42849 0.23235 0.39264 0.0
C208 C 0.43622 0.20945 0.43559 0.0
C209 C 0.4227 0.27134 0.40348 0.0
C210 C 0.37671 0.24759 0.72805 0.0
C211 C 0.4958 0.30574 0.74502 0.0
C212 C 0.42603 0.15473 0.83869 0.0
C213 C 0.42878 0.16349 0.89639 0.0
C214 C 0.44129 0.13709 0.92943 0.0
C215 C 0.41694 0.19533 0.91929 0.0
C216 C 0.42706 0.17149 1.00798 0.0
C217 C 0.41624 0.19941 0.97475 0.0
C218 C 0.44048 0.14101 0.98453 0.0
C219 C 0.48636 0.19356 0.66581 0.0
O220 O 0.39718 0.17206 0.61994 0.0
O221 O 0.3716 0.13267 0.69942 0.0
O222 O 0.3912 0.25019 0.57995 0.0
O223 O 0.46813 0.2929 0.58148 0.0
O224 O 0.39842 0.28181 0.6949 0.0
O225 O 0.38085 0.21266 0.71466 0.0
O226 O 0.47209 0.26702 0.77359 0.0
O227 O 0.4901 0.30667 0.69313 0.0
O228 O 0.46523 0.17732 0.81179 0.0
O229 O 0.38912 0.15058 0.81314 0.0
O230 O 0.46458 0.15799 0.69746 0.0
O231 O 0.48017 0.22684 0.68044 0.0
H232 H 0.41873 0.3162 0.46309 0.0
H233 H 0.44121 0.20502 0.52011 0.0
H234 H 0.44188 0.18003 0.4289 0.0
H235 H 0.41599 0.28949 0.37171 0.0
H236 H 0.45075 0.11251 0.91255 0.0
H237 H 0.40732 0.2162 0.89443 0.0
H238 H 0.40565 0.22312 0.99158 0.0
H239 H 0.44987 0.11968 1.00888 0.0
H240 H 0.33807 0.30346 0.72929 0.0
H241 H 0.34359 0.19333 0.8182 0.0
H242 H 0.29744 0.20255 0.89029 0.0
H243 H 0.35339 0.37761 0.83463 0.0
H244 H 0.31328 0.39592 0.80972 0.0
H245 H 0.34299 0.37732 0.76425 0.0
H246 H 0.26203 0.31472 0.72452 0.0
H247 H 0.232 0.33292 0.77031 0.0
H248 H 0.21713 0.27202 0.76753 0.0
H249 H 0.25949 0.23265 0.95727 0.0
H250 H 0.22892 0.27608 1.00906 0.0
H251 H 0.24376 0.3609 0.87062 0.0
C252 C 0.32891 0.28065 0.76353 0.0
C253 C 0.3446 0.24786 0.76861 0.0
C254 C 0.33189 0.21863 0.81378 0.0
C255 C 0.30566 0.22366 0.85477 0.0
C256 C 0.29155 0.25723 0.84894 0.0
C257 C 0.30211 0.28456 0.80383 0.0
C258 C 0.28472 0.31934 0.80739 0.0
C259 C 0.32605 0.37054 0.80382 0.0
C260 C 0.2467 0.30909 0.7649 0.0
C261 C 0.26375 0.30833 0.86218 0.0
C262 C 0.26799 0.2726 0.88589 0.0
C263 C 0.25501 0.25989 0.9386 0.0
C264 C 0.23778 0.28476 0.96772 0.0
C265 C 0.23338 0.32147 0.94374 0.0
C266 C 0.24569 0.33244 0.89001 0.0
H267 H 0.0438 0.3777 0.07355 0.0
H268 H 0.13438 0.32405 0.12614 0.0
H269 H 0.08254 0.287 0.2035 0.0
H270 H 0.01126 0.40033 0.20248 0.0
H271 H 0.9509 0.38037 0.1829 0.0
H272 H 0.99735 0.40584 0.13449 0.0
H273 H 0.95264 0.33078 0.07569 0.0
H274 H 0.90592 0.30527 0.12367 0.0
H275 H 0.93558 0.27391 0.10374 0.0
H276 H 0.01974 0.25602 0.27559 0.0
H277 H 0.94704 0.22615 0.32976 0.0
H278 H 0.8954 0.29483 0.2239 0.0
C279 C 0.05289 0.35836 0.10148 0.0
C280 C 0.09366 0.35453 0.09471 0.0
C281 C 0.10395 0.32829 0.13149 0.0
C282 C 0.07462 0.30707 0.17538 0.0
C283 C 0.03477 0.31185 0.18115 0.0
C284 C 0.02357 0.33629 0.14467 0.0
C285 C 0.97718 0.3337 0.15757 0.0
C286 C 0.98464 0.38298 0.17012 0.0
C287 C 0.94069 0.30946 0.1125 0.0
C288 C 0.96363 0.30341 0.20662 0.0
C289 C 0.99763 0.2919 0.22042 0.0
C290 C 0.99278 0.2646 0.26497 0.0
C291 C 0.95163 0.24795 0.29553 0.0
C292 C 0.91578 0.25789 0.28042 0.0
C293 C 0.92218 0.2863 0.23581 0.0
H294 H 0.6891 0.03224 0.39748 0.0
H295 H 0.81846 0.14235 0.4696 0.0
H296 H 0.80595 0.09063 0.54696 0.0
H297 H 0.62094 0.989 0.51191 0.0
H298 H 0.59262 0.92831 0.49021 0.0
H299 H 0.61357 0.97474 0.44207 0.0
H300 H 0.66344 0.94182 0.39893 0.0
H301 H 0.64263 0.89593 0.44797 0.0
H302 H 0.70528 0.93472 0.43916 0.0
H303 H 0.77294 0.02694 0.62049 0.0
H304 H 0.72782 0.95635 0.67729 0.0
H305 H 0.62512 0.88901 0.54988 0.0
C306 C 0.71515 0.04552 0.42927 0.0
C307 C 0.75413 0.09176 0.42844 0.0
C308 C 0.78772 0.10749 0.47034 0.0
C309 C 0.781 0.07819 0.51414 0.0
C310 C 0.74121 0.03298 0.51427 0.0
C311 C 0.7095 0.0166 0.47218 0.0
C312 C 0.66963 0.96695 0.48088 0.0
C313 C 0.62138 0.9647 0.48133 0.0
C314 C 0.67033 0.93286 0.43928 0.0
C315 C 0.683 0.95807 0.53516 0.0
C316 C 0.72418 0.99631 0.55429 0.0
C317 C 0.74115 0.99651 0.60541 0.0
C318 C 0.71532 0.95646 0.63742 0.0
C319 C 0.67346 0.91694 0.61772 0.0
C320 C 0.65758 0.91809 0.56588 0.0
H321 H 0.63386 0.67956 0.7399 0.0
H322 H 0.68666 0.82308 0.79402 0.0
H323 H 0.73564 0.81295 0.86236 0.0
H324 H 0.62876 0.62546 0.86285 0.0
H325 H 0.65005 0.58871 0.83547 0.0
H326 H 0.61842 0.60821 0.79383 0.0
H327 H 0.68976 0.64255 0.72927 0.0
H328 H 0.72136 0.62418 0.77292 0.0
H329 H 0.74787 0.68513 0.75368 0.0
H330 H 0.77375 0.78312 0.92999 0.0
H331 H 0.80415 0.73991 0.98312 0.0
H332 H 0.73273 0.62033 0.87577 0.0
C333 C 0.65576 0.70892 0.76608 0.0
C334 C 0.65521 0.75157 0.76317 0.0
C335 C 0.6852 0.78953 0.79714 0.0
C336 C 0.71349 0.78421 0.83565 0.0
C337 C 0.71248 0.74119 0.8382 0.0
C338 C 0.68518 0.70468 0.80336 0.0
C339 C 0.69148 0.66265 0.8126 0.0
C340 C 0.64432 0.6187 0.82711 0.0
C341 C 0.71396 0.65312 0.76421 0.0
C342 C 0.72538 0.68047 0.85923 0.0
C343 C 0.73705 0.72573 0.87385 0.0
C344 C 0.76557 0.74802 0.91822 0.0
C345 C 0.78257 0.72329 0.9482 0.0
C346 C 0.77153 0.67727 0.93292 0.0
C347 C 0.74283 0.65598 0.8877 0.0
H348 H 0.10904 0.70045 0.22807 0.0
H349 H 0.07303 0.79418 0.31068 0.0
H350 H 0.00275 0.76756 0.25184 0.0
H351 H 0.07606 0.71297 0.09899 0.0
H352 H 0.05072 0.65173 0.08064 0.0
H353 H 0.09719 0.67732 0.12988 0.0
H354 H 0.04398 0.61337 0.19768 0.0
H355 H 0.99783 0.58694 0.14808 0.0
H356 H 0.98584 0.60405 0.21149 0.0
H357 H 0.94164 0.73645 0.17728 0.0
H358 H 0.8876 0.69501 0.10176 0.0
H359 H 0.95855 0.61499 0.0754 0.0
C360 C 0.08607 0.71506 0.23388 0.0
C361 C 0.09629 0.74958 0.27331 0.0
C362 C 0.06544 0.76762 0.28056 0.0
C363 C 0.02572 0.75286 0.24726 0.0
C364 C 0.01696 0.71922 0.20803 0.0
C365 C 0.04567 0.69972 0.20213 0.0
C366 C 0.02789 0.6632 0.15806 0.0
C367 C 0.06518 0.67717 0.11431 0.0
C368 C 0.01298 0.61397 0.18015 0.0
C369 C 0.98545 0.66618 0.13886 0.0
C370 C 0.97992 0.69893 0.16788 0.0
C371 C 0.94484 0.70979 0.15529 0.0
C372 C 0.91408 0.68586 0.11263 0.0
C373 C 0.91781 0.65067 0.08407 0.0
C374 C 0.95431 0.64115 0.09716 0.0
H375 H 0.40125 0.10794 0.56099 0.0
H376 H 0.28118 0.05896 0.66578 0.0
H377 H 0.23598 0.98743 0.6091 0.0
H378 H 0.33973 0.07106 0.44005 0.0
H379 H 0.37849 0.05283 0.41136 0.0
H380 H 0.40082 0.09871 0.46094 0.0
H381 H 0.42899 0.0526 0.51935 0.0
H382 H 0.40787 0.0068 0.46959 0.0
H383 H 0.38766 0.99241 0.53698 0.0
H384 H 0.20249 0.92423 0.53395 0.0
H385 H 0.18814 0.87216 0.45571 0.0
H386 H 0.33402 0.96178 0.40851 0.0
C387 C 0.36544 0.08205 0.5721 0.0
C388 C 0.34426 0.08882 0.61712 0.0
C389 C 0.29777 0.05406 0.63118 0.0
C390 C 0.27193 0.0136 0.59916 0.0
C391 C 0.29372 0.00834 0.55421 0.0
C392 C 0.33986 0.04136 0.54157 0.0
C393 C 0.35623 0.02762 0.49242 0.0
C394 C 0.36954 0.06474 0.4486 0.0
C395 C 0.39762 0.01934 0.50538 0.0
C396 C 0.31181 0.98212 0.47836 0.0
C397 C 0.27581 0.97139 0.51391 0.0
C398 C 0.23085 0.93181 0.50666 0.0
C399 C 0.22303 0.90223 0.46246 0.0
C400 C 0.26029 0.91207 0.4271 0.0
C401 C 0.30488 0.95279 0.43522 0.0
H402 H 0.19837 0.46361 0.62938 0.0
H403 H 0.19239 0.33547 0.68557 0.0
H404 H 0.19796 0.31354 0.59356 0.0
H405 H 0.13026 0.41467 0.50986 0.0
H406 H 0.1658 0.46638 0.47053 0.0
H407 H 0.16066 0.47212 0.54093 0.0
H408 H 0.25195 0.51554 0.55119 0.0
H409 H 0.25739 0.51027 0.48079 0.0
H410 H 0.28403 0.488 0.52661 0.0
H411 H 0.20443 0.30531 0.49593 0.0
H412 H 0.21437 0.31272 0.3989 0.0
H413 H 0.21834 0.44708 0.40522 0.0
C414 C 0.19867 0.43114 0.6225 0.0
C415 C 0.19476 0.40123 0.66507 0.0
C416 C 0.19466 0.35873 0.6539 0.0
C417 C 0.19798 0.346 0.60166 0.0
C418 C 0.20145 0.37609 0.5608 0.0
C419 C 0.20205 0.41789 0.57052 0.0
C420 C 0.20683 0.44419 0.51931 0.0
C421 C 0.16329 0.44964 0.5096 0.0
C422 C 0.25279 0.49235 0.5195 0.0
C423 C 0.20892 0.41063 0.47934 0.0
C424 C 0.2056 0.37153 0.50423 0.0
C425 C 0.2072 0.33582 0.47599 0.0
C426 C 0.21305 0.34046 0.42091 0.0
C427 C 0.2174 0.38059 0.39445 0.0
C428 C 0.21467 0.41581 0.42419 0.0
H429 H 0.76208 0.15226 0.96328 0.0
H430 H 0.76345 0.27995 0.01247 0.0
H431 H 0.77493 0.30673 0.91931 0.0
H432 H 0.85206 0.20675 0.86392 0.0
H433 H 0.82437 0.15717 0.81891 0.0
H434 H 0.81571 0.14796 0.88932 0.0
H435 H 0.72487 0.10521 0.87471 0.0
H436 H 0.73326 0.11456 0.80426 0.0
H437 H 0.69906 0.13491 0.83971 0.0
H438 H 0.78537 0.31915 0.82081 0.0
H439 H 0.79846 0.31863 0.72458 0.0
H440 H 0.79163 0.18336 0.73932 0.0
C441 C 0.76452 0.18573 0.95438 0.0
C442 C 0.76178 0.21401 0.99515 0.0
C443 C 0.76589 0.25793 0.98199 0.0
C444 C 0.77209 0.27327 0.92916 0.0
C445 C 0.77433 0.24439 0.88993 0.0
C446 C 0.77101 0.20171 0.90191 0.0
C447 C 0.77576 0.17796 0.85248 0.0
C448 C 0.81958 0.17214 0.8564 0.0
C449 C 0.73054 0.13034 0.84219 0.0
C450 C 0.78207 0.21388 0.81074 0.0
C451 C 0.78097 0.25183 0.83322 0.0
C452 C 0.78651 0.28971 0.80284 0.0
C453 C 0.79412 0.28916 0.74821 0.0
C454 C 0.79636 0.2511 0.72432 0.0
C455 C 0.78963 0.21273 0.75617 0.0
H456 H 0.59298 0.81936 0.32701 0.0
H457 H 0.48513 0.67111 0.32592 0.0
H458 H 0.4808 0.67233 0.22828 0.0
H459 H 0.54361 0.85405 0.21697 0.0
H460 H 0.60081 0.89535 0.19054 0.0
H461 H 0.59426 0.88342 0.26068 0.0
H462 H 0.65959 0.86069 0.25739 0.0
H463 H 0.66623 0.87236 0.18725 0.0
H464 H 0.65348 0.81553 0.21167 0.0
H465 H 0.48941 0.68864 0.13079 0.0
H466 H 0.5097 0.71949 0.03977 0.0
H467 H 0.61301 0.85692 0.10319 0.0
C468 C 0.56804 0.78737 0.30621 0.0
C469 C 0.53957 0.74506 0.33413 0.0
C470 C 0.50775 0.70377 0.30537 0.0
C471 C 0.50484 0.70415 0.2499 0.0
C472 C 0.53391 0.74612 0.22352 0.0
C473 C 0.5648 0.78705 0.2506 0.0
C474 C 0.59288 0.82709 0.21234 0.0
C475 C 0.58224 0.86736 0.22063 0.0
C476 C 0.6462 0.84495 0.21748 0.0
C477 C 0.57316 0.80211 0.15965 0.0
C478 C 0.53908 0.75547 0.16707 0.0
C479 C 0.51608 0.72512 0.12445 0.0
C480 C 0.52815 0.74291 0.07282 0.0
C481 C 0.56309 0.79065 0.06404 0.0
C482 C 0.58575 0.82045 0.10835 0.0
H483 H 0.81648 0.53639 0.62226 0.0
H484 H 0.74317 0.60539 0.68557 0.0
H485 H 0.7269 0.62123 0.5947 0.0
H486 H 0.87284 0.6174 0.51526 0.0
H487 H 0.86715 0.57272 0.46908 0.0
H488 H 0.8715 0.56492 0.53922 0.0
H489 H 0.7929 0.48496 0.53503 0.0
H490 H 0.78837 0.49246 0.46485 0.0
H491 H 0.74054 0.48272 0.50803 0.0
H492 H 0.72031 0.63157 0.49734 0.0
H493 H 0.72297 0.63506 0.39971 0.0
H494 H 0.80149 0.56038 0.39853 0.0
C495 C 0.79718 0.55502 0.61714 0.0
C496 C 0.78093 0.56943 0.66146 0.0
C497 C 0.75529 0.5932 0.6526 0.0
C498 C 0.74616 0.6027 0.60101 0.0
C499 C 0.76296 0.58832 0.55843 0.0
C500 C 0.78789 0.56495 0.56583 0.0
C501 C 0.8025 0.5539 0.51312 0.0
C502 C 0.85672 0.57872 0.50894 0.0
C503 C 0.77971 0.50032 0.50478 0.0
C504 C 0.78206 0.57492 0.47496 0.0
C505 C 0.75932 0.59447 0.50204 0.0
C506 C 0.73776 0.61612 0.47567 0.0
C507 C 0.73924 0.61767 0.42013 0.0
C508 C 0.76208 0.59765 0.39126 0.0
C509 C 0.78398 0.57622 0.41934 0.0
H510 H 0.21963 0.81748 0.74096 0.0
H511 H 0.18918 0.67301 0.72414 0.0
H512 H 0.20012 0.66946 0.82077 0.0
H513 H 0.31054 0.85268 0.84267 0.0
H514 H 0.29265 0.88925 0.87744 0.0
H515 H 0.2832 0.8805 0.80685 0.0
H516 H 0.1939 0.8506 0.81965 0.0
H517 H 0.20303 0.85901 0.89028 0.0
H518 H 0.1601 0.80207 0.86385 0.0
H519 H 0.21293 0.68125 0.91995 0.0
H520 H 0.22916 0.7084 0.0133 0.0
H521 H 0.25091 0.845 0.96516 0.0
C522 C 0.21593 0.78531 0.75744 0.0
C523 C 0.20348 0.74549 0.72485 0.0
C524 C 0.19817 0.7038 0.7483 0.0
C525 C 0.20449 0.7015 0.80314 0.0
C526 C 0.21614 0.74117 0.83417 0.0
C527 C 0.22199 0.78236 0.81214 0.0
C528 C 0.23394 0.81979 0.85435 0.0
C529 C 0.283 0.86311 0.84475 0.0
C530 C 0.19544 0.83366 0.85719 0.0
C531 C 0.234 0.79327 0.90353 0.0
C532 C 0.22354 0.74794 0.89111 0.0
C533 C 0.22117 0.7167 0.93011 0.0
C534 C 0.23011 0.73233 0.9831 0.0
C535 C 0.24139 0.77886 0.99672 0.0
C536 C 0.24304 0.80945 0.95613 0.0
H537 H 0.45968 0.28366 0.2996 0.0
H538 H 0.38761 0.14016 0.35936 0.0
H539 H 0.38018 0.10989 0.26828 0.0
H540 H 0.38744 0.25848 0.18152 0.0
H541 H 0.43576 0.29915 0.14056 0.0
H542 H 0.43688 0.31009 0.21078 0.0
H543 H 0.51804 0.31435 0.21923 0.0
H544 H 0.51721 0.30349 0.14903 0.0
H545 H 0.52414 0.26568 0.19565 0.0
H546 H 0.3797 0.09466 0.17107 0.0
H547 H 0.38629 0.09541 0.0737 0.0
H548 H 0.45671 0.24839 0.07527 0.0
C549 C 0.44204 0.24584 0.29363 0.0
C550 C 0.4246 0.21442 0.33716 0.0
C551 C 0.40224 0.16518 0.3272 0.0
C552 C 0.39745 0.14753 0.27541 0.0
C553 C 0.41491 0.17942 0.23364 0.0
C554 C 0.43669 0.22753 0.24204 0.0
C555 C 0.45199 0.25403 0.1899 0.0
C556 C 0.42649 0.28209 0.18013 0.0
C557 C 0.50605 0.28629 0.18838 0.0
C558 C 0.43536 0.21326 0.15093 0.0
C559 C 0.41417 0.17058 0.17718 0.0
C560 C 0.39633 0.12786 0.1501 0.0
C561 C 0.40048 0.12869 0.09475 0.0
C562 C 0.42229 0.17194 0.06674 0.0
C563 C 0.43959 0.21476 0.09543 0.0
H564 H 0.14053 0.49024 0.15542 0.0
H565 H 0.26628 0.5829 0.06601 0.0
H566 H 0.27784 0.65076 0.12032 0.0
H567 H 0.10098 0.57965 0.16877 0.0
H568 H 0.07743 0.55944 0.23409 0.0
H569 H 0.07735 0.51854 0.18609 0.0
H570 H 0.12308 0.49572 0.25283 0.0
H571 H 0.12394 0.537 0.30069 0.0
H572 H 0.17865 0.5411 0.28017 0.0
H573 H 0.28447 0.70316 0.19377 0.0
H574 H 0.27701 0.74373 0.27187 0.0
H575 H 0.1392 0.62348 0.30493 0.0
C576 C 0.16989 0.5251 0.147 0.0
C577 C 0.20279 0.5319 0.10709 0.0
C578 C 0.24081 0.57754 0.09648 0.0
C579 C 0.24766 0.61607 0.12709 0.0
C580 C 0.21524 0.60833 0.16689 0.0
C581 C 0.17626 0.56443 0.17597 0.0
C582 C 0.14689 0.56641 0.22126 0.0
C583 C 0.09775 0.55536 0.20134 0.0
C584 C 0.14294 0.53308 0.2664 0.0
C585 C 0.17687 0.61777 0.23774 0.0
C586 C 0.21634 0.64089 0.20601 0.0
C587 C 0.2526 0.6864 0.21725 0.0
C588 C 0.24787 0.70944 0.26133 0.0
C589 C 0.20641 0.68803 0.29222 0.0
C590 C 0.1705 0.64134 0.28061 0.0
H591 H 0.64871 0.13079 0.48851 0.0
H592 H 0.65473 0.23301 0.37523 0.0
H593 H 0.59692 0.24304 0.42817 0.0
H594 H 0.51762 0.07783 0.51475 0.0
H595 H 0.52443 0.06751 0.58362 0.0
H596 H 0.56282 0.06461 0.53451 0.0
H597 H 0.6362 0.1267 0.58687 0.0
H598 H 0.59862 0.13035 0.63626 0.0
H599 H 0.64166 0.18293 0.60273 0.0
H600 H 0.55526 0.25555 0.50285 0.0
H601 H 0.51481 0.25575 0.58472 0.0
H602 H 0.52204 0.13542 0.64275 0.0
C603 C 0.6365 0.15405 0.4742 0.0
C604 C 0.65568 0.18108 0.42797 0.0
C605 C 0.63971 0.21163 0.41027 0.0
C606 C 0.60719 0.21772 0.44018 0.0
C607 C 0.58997 0.19174 0.48658 0.0
C608 C 0.60258 0.15916 0.50256 0.0
C609 C 0.57907 0.13632 0.55448 0.0
C610 C 0.54389 0.08342 0.54635 0.0
C611 C 0.61611 0.1446 0.59761 0.0
C612 C 0.55359 0.16319 0.56662 0.0
C613 C 0.56094 0.19535 0.52712 0.0
C614 C 0.54714 0.22896 0.53276 0.0
C615 C 0.52407 0.22885 0.57933 0.0
C616 C 0.51313 0.19432 0.61858 0.0
C617 C 0.52832 0.16113 0.61227 0.0
H618 H 0.3734 0.5558 1.0101 0.0
H619 H 0.28146 0.44655 0.89875 0.0
H620 H 0.32744 0.49681 0.824 0.0
H621 H 0.38743 0.65308 0.93489 0.0
H622 H 0.44898 0.69149 0.95163 0.0
H623 H 0.41089 0.64596 0.99695 0.0
H624 H 0.4676 0.61234 0.99685 0.0
H625 H 0.50604 0.65791 0.9517 0.0
H626 H 0.48345 0.59678 0.93472 0.0
H627 H 0.38008 0.5598 0.7619 0.0
H628 H 0.43802 0.63101 0.71486 0.0
H629 H 0.49752 0.70066 0.86594 0.0
C630 C 0.36371 0.54243 0.9699 0.0
C631 C 0.3243 0.4974 0.95973 0.0
C632 C 0.31176 0.48087 0.90703 0.0
C633 C 0.33767 0.5092 0.86442 0.0
C634 C 0.37608 0.5538 0.87549 0.0
C635 C 0.38941 0.57033 0.92686 0.0
C636 C 0.43142 0.62021 0.92746 0.0
C637 C 0.41889 0.6547 0.95431 0.0
C638 C 0.47469 0.62188 0.95426 0.0
C639 C 0.43897 0.6293 0.8684 0.0
C640 C 0.40673 0.59041 0.83932 0.0
C641 C 0.40578 0.5904 0.78415 0.0
C642 C 0.43885 0.63117 0.75782 0.0
C643 C 0.47248 0.67155 0.78662 0.0
C644 C 0.47242 0.67042 0.84273 0.0
H645 H 0.86112 0.38118 0.30831 0.0
H646 H 0.73836 0.25223 0.25342 0.0
H647 H 0.73007 0.294 0.17696 0.0
H648 H 0.81006 0.4525 0.28131 0.0
H649 H 0.86448 0.50383 0.26164 0.0
H650 H 0.86586 0.46263 0.30776 0.0
H651 H 0.92345 0.45219 0.24637 0.0
H652 H 0.92222 0.4935 0.20013 0.0
H653 H 0.90707 0.43518 0.17803 0.0
H654 H 0.73428 0.3488 0.10732 0.0
H655 H 0.74286 0.41639 0.05514 0.0
H656 H 0.85533 0.51295 0.16109 0.0
C657 C 0.83303 0.36179 0.27962 0.0
C658 C 0.80125 0.31297 0.28548 0.0
C659 C 0.7639 0.28907 0.24849 0.0
C660 C 0.75887 0.3126 0.20502 0.0
C661 C 0.79071 0.36059 0.20007 0.0
C662 C 0.82647 0.38532 0.23684 0.0
C663 C 0.8522 0.43779 0.22523 0.0
C664 C 0.84786 0.46582 0.27175 0.0
C665 C 0.90432 0.45571 0.21162 0.0
C666 C 0.8246 0.43848 0.17692 0.0
C667 C 0.7903 0.39331 0.16228 0.0
C668 C 0.76079 0.38441 0.11842 0.0
C669 C 0.76594 0.42285 0.08906 0.0
C670 C 0.79938 0.46942 0.10465 0.0
C671 C 0.82922 0.47745 0.14894 0.0
H672 H 0.31719 0.7596 0.48171 0.0
H673 H 0.39889 0.89585 0.40671 0.0
H674 H 0.46722 0.91387 0.46569 0.0
H675 H 0.35603 0.79324 0.6109 0.0
H676 H 0.35906 0.74141 0.62806 0.0
H677 H 0.31841 0.738 0.57735 0.0
H678 H 0.35539 0.70569 0.51024 0.0
H679 H 0.39583 0.7085 0.56107 0.0
H680 H 0.41832 0.73833 0.49895 0.0
H681 H 0.52167 0.92039 0.5412 0.0
H682 H 0.56254 0.91136 0.61955 0.0
H683 H 0.44726 0.76799 0.63965 0.0
C684 C 0.34984 0.79286 0.4772 0.0
C685 C 0.35322 0.82649 0.44004 0.0
C686 C 0.39615 0.86964 0.43484 0.0
C687 C 0.43489 0.88013 0.4682 0.0
C688 C 0.43016 0.84646 0.5053 0.0
C689 C 0.38906 0.80324 0.50904 0.0
C690 C 0.39265 0.77336 0.55252 0.0
C691 C 0.35427 0.76079 0.59469 0.0
C692 C 0.39042 0.72884 0.52929 0.0
C693 C 0.44146 0.8072 0.57425 0.0
C694 C 0.46254 0.84923 0.54661 0.0
C695 C 0.50608 0.88724 0.56223 0.0
C696 C 0.52876 0.88195 0.60696 0.0
C697 C 0.50796 0.83889 0.63509 0.0
C698 C 0.46409 0.80098 0.61818 0.0
H699 H 0.69896 0.45816 0.95499 0.0
H700 H 0.65187 0.56052 0.94891 0.0
H701 H 0.59521 0.51442 0.87708 0.0
H702 H 0.6882 0.43067 0.81269 0.0
H703 H 0.66648 0.36879 0.82357 0.0
H704 H 0.7061 0.41189 0.8712 0.0
H705 H 0.64525 0.36875 0.94584 0.0
H706 H 0.60555 0.3255 0.89858 0.0
H707 H 0.5857 0.35802 0.9382 0.0
H708 H 0.54477 0.45806 0.8047 0.0
H709 H 0.49475 0.38822 0.74785 0.0
H710 H 0.57045 0.32015 0.80647 0.0
C711 C 0.67728 0.47124 0.93781 0.0
C712 C 0.67993 0.51298 0.95693 0.0
C713 C 0.65036 0.5286 0.93454 0.0
C714 C 0.61852 0.503 0.89341 0.0
C715 C 0.61691 0.46209 0.87507 0.0
C716 C 0.64502 0.44592 0.89708 0.0
C717 C 0.6334 0.39873 0.87357 0.0
C718 C 0.67608 0.40277 0.84346 0.0
C719 C 0.61646 0.3605 0.91661 0.0
C720 C 0.59363 0.39036 0.83582 0.0
C721 C 0.58555 0.42794 0.83612 0.0
C722 C 0.5507 0.42839 0.80417 0.0
C723 C 0.52267 0.38886 0.77194 0.0
C724 C 0.52908 0.34932 0.77314 0.0
C725 C 0.56515 0.35023 0.80506 0.0
loop_
_geom_bond_atom_site_label_1
_geom_bond_atom_site_label_2
_geom_bond_distance
_geom_bond_site_symmetry_2
_ccdc_geom_bond_type
Gd0 C3 2.818 . S
Gd0 O20 2.377 . S
Gd0 O22 2.448 . S
Gd0 O23 2.506 . S
Gd0 O24 2.427 1_556 S
Gd0 O25 2.717 1_556 S
Gd0 O27 2.395 1_556 S
Gd0 O31 2.327 . S
Gd1 C12 2.818 . S
Gd1 O21 2.413 . S
Gd1 O25 2.327 . S
Gd1 O26 2.377 . S
Gd1 O28 2.448 . S
Gd1 O29 2.506 . S
Gd1 O30 2.435 . S
Gd1 O31 2.717 1_554 S
C2 O20 1.240 . S
C2 O21 1.221 1_556 S
C3 Gd0 2.818 . S
C3 C4 1.510 . S
C3 O22 1.249 . S
C3 O23 1.252 . S
C4 C3 1.510 . S
C4 C5 1.404 . S
C4 C6 1.352 . S
C5 C4 1.404 . S
C5 C9 1.389 . S
C5 H32 0.930 . S
C6 C4 1.352 . S
C6 C8 1.374 . S
C6 H33 0.931 . S
C7 C8 1.359 . S
C7 C9 1.364 . S
C8 C6 1.374 . S
C8 C7 1.359 . S
C8 H34 0.931 . S
C9 C5 1.389 . S
C9 C7 1.364 . S
C9 H35 0.931 . S
C10 O24 1.273 . S
C10 O25 1.257 . S
C11 O26 1.240 . S
C11 O27 1.240 . S
C12 Gd1 2.818 . S
C12 C13 1.510 . S
C12 O28 1.249 . S
C12 O29 1.252 . S
C13 C12 1.510 . S
C13 C14 1.404 . S
C13 C15 1.352 . S
C14 C13 1.404 . S
C14 C18 1.389 . S
C14 H36 0.930 . S
C15 C13 1.352 . S
C15 C17 1.374 . S
C15 H37 0.931 . S
C16 C17 1.359 . S
C16 C18 1.364 . S
C17 C15 1.374 . S
C17 C16 1.359 . S
C17 H38 0.931 . S
C18 C14 1.389 . S
C18 C16 1.364 . S
C18 H39 0.931 . S
C19 O30 1.256 1_556 S
C19 O31 1.257 . S
O20 Gd0 2.377 . S
O20 C2 1.240 . S
O21 Gd1 2.413 . S
O21 C2 1.221 1_554 S
O22 Gd0 2.448 . S
O22 C3 1.249 . S
O23 Gd0 2.506 . S
O23 C3 1.252 . S
O24 Gd0 2.427 1_554 S
O24 C10 1.273 . S
O25 Gd0 2.717 1_554 S
O25 Gd1 2.327 . S
O25 C10 1.257 . S
O26 Gd1 2.377 . S
O26 C11 1.240 . S
O27 Gd0 2.395 1_554 S
O27 C11 1.240 . S
O28 Gd1 2.448 . S
O28 C12 1.249 . S
O29 Gd1 2.506 . S
O29 C12 1.252 . S
O30 Gd1 2.435 . S
O30 C19 1.256 1_554 S
O31 Gd0 2.327 . S
O31 Gd1 2.717 1_556 S
O31 C19 1.257 . S
H32 C5 0.930 . S
H33 C6 0.931 . S
H34 C8 0.931 . S
H35 C9 0.931 . S
H36 C14 0.930 . S
H37 C15 0.931 . S
H38 C17 0.931 . S
H39 C18 0.931 . S
Gd40 C43 2.818 . S
Gd40 O60 2.377 . S
Gd40 O62 2.448 . S
Gd40 O63 2.506 . S
Gd40 O64 2.435 . S
Gd40 O65 2.717 . S
Gd40 O67 2.395 . S
Gd40 O71 2.327 . S
Gd41 C52 2.818 . S
Gd41 O61 2.395 . S
Gd41 O65 2.327 . S
Gd41 O66 2.377 . S
Gd41 O68 2.448 . S
Gd41 O69 2.506 . S
Gd41 O70 2.435 . S
Gd41 O71 2.717 . S
C42 O60 1.240 . S
C42 O61 1.240 . S
C43 Gd40 2.818 . S
C43 C44 1.510 . S
C43 O62 1.249 . S
C43 O63 1.252 . S
C44 C43 1.510 . S
C44 C45 1.404 . S
C44 C46 1.352 . S
C45 C44 1.404 . S
C45 C49 1.389 . S
C45 H72 0.930 . S
C46 C44 1.352 . S
C46 C48 1.374 . S
C46 H73 0.931 . S
C47 C48 1.359 . S
C47 C49 1.364 . S
C48 C46 1.374 . S
C48 C47 1.359 . S
C48 H74 0.931 . S
C49 C45 1.389 . S
C49 C47 1.364 . S
C49 H75 0.931 . S
C50 O64 1.256 . S
C50 O65 1.257 . S
C51 O66 1.240 . S
C51 O67 1.240 . S
C52 Gd41 2.818 . S
C52 C53 1.510 . S
C52 O68 1.249 . S
C52 O69 1.252 . S
C53 C52 1.510 . S
C53 C54 1.404 . S
C53 C55 1.352 . S
C54 C53 1.404 . S
C54 C58 1.389 . S
C54 H76 0.930 . S
C55 C53 1.352 . S
C55 C57 1.374 . S
C55 H77 0.931 . S
C56 C57 1.359 . S
C56 C58 1.364 . S
C57 C55 1.374 . S
C57 C56 1.359 . S
C57 H78 0.931 . S
C58 C54 1.389 . S
C58 C56 1.364 . S
C58 H79 0.931 . S
C59 O70 1.256 . S
C59 O71 1.257 . S
O60 Gd40 2.377 . S
O60 C42 1.240 . S
O61 Gd41 2.395 . S
O61 C42 1.240 . S
O62 Gd40 2.448 . S
O62 C43 1.249 . S
O63 Gd40 2.506 . S
O63 C43 1.252 . S
O64 Gd40 2.435 . S
O64 C50 1.256 . S
O65 Gd40 2.717 . S
O65 Gd41 2.327 . S
O65 C50 1.257 . S
O66 Gd41 2.377 . S
O66 C51 1.240 . S
O67 Gd40 2.395 . S
O67 C51 1.240 . S
O68 Gd41 2.448 . S
O68 C52 1.249 . S
O69 Gd41 2.506 . S
O69 C52 1.252 . S
O70 Gd41 2.435 . S
O70 C59 1.256 . S
O71 Gd40 2.327 . S
O71 Gd41 2.717 . S
O71 C59 1.257 . S
H72 C45 0.930 . S
H73 C46 0.931 . S
H74 C48 0.931 . S
H75 C49 0.931 . S
H76 C54 0.930 . S
H77 C55 0.931 . S
H78 C57 0.931 . S
H79 C58 0.931 . S
Gd80 C83 2.818 . S
Gd80 O100 2.377 . S
Gd80 O102 2.448 . S
Gd80 O103 2.506 . S
Gd80 O104 2.435 . S
Gd80 O105 2.717 . S
Gd80 O107 2.395 . S
Gd80 O111 2.327 . S
Gd81 C92 2.818 . S
Gd81 O101 2.395 . S
Gd81 O105 2.327 . S
Gd81 O106 2.377 . S
Gd81 O108 2.448 . S
Gd81 O109 2.506 . S
Gd81 O110 2.435 . S
Gd81 O111 2.717 . S
C82 O100 1.240 . S
C82 O101 1.240 . S
C83 Gd80 2.818 . S
C83 C84 1.510 . S
C83 O102 1.249 . S
C83 O103 1.252 . S
C84 C83 1.510 . S
C84 C85 1.404 . S
C84 C86 1.352 . S
C85 C84 1.404 . S
C85 C89 1.389 . S
C85 H112 0.930 . S
C86 C84 1.352 . S
C86 C88 1.374 . S
C86 H113 0.931 . S
C87 C88 1.359 . S
C87 C89 1.364 . S
C88 C86 1.374 . S
C88 C87 1.359 . S
C88 H114 0.931 . S
C89 C85 1.389 . S
C89 C87 1.364 . S
C89 H115 0.931 . S
C90 O104 1.256 . S
C90 O105 1.257 . S
C91 O106 1.240 . S
C91 O107 1.240 . S
C92 Gd81 2.818 . S
C92 C93 1.510 . S
C92 O108 1.249 . S
C92 O109 1.252 . S
C93 C92 1.510 . S
C93 C94 1.404 . S
C93 C95 1.352 . S
C94 C93 1.404 . S
C94 C98 1.389 . S
C94 H116 0.930 . S
C95 C93 1.352 . S
C95 C97 1.374 . S
C95 H117 0.931 . S
C96 C97 1.359 1_554 S
C96 C98 1.364 1_554 S
C97 C95 1.374 . S
C97 C96 1.359 1_556 S
C97 H118 0.931 1_556 S
C98 C94 1.389 . S
C98 C96 1.364 1_556 S
C98 H119 0.931 . S
C99 O110 1.256 . S
C99 O111 1.257 . S
O100 Gd80 2.377 . S
O100 C82 1.240 . S
O101 Gd81 2.395 . S
O101 C82 1.240 . S
O102 Gd80 2.448 . S
O102 C83 1.249 . S
O103 Gd80 2.506 . S
O103 C83 1.252 . S
O104 Gd80 2.435 . S
O104 C90 1.256 . S
O105 Gd80 2.717 . S
O105 Gd81 2.327 . S
O105 C90 1.257 . S
O106 Gd81 2.377 . S
O106 C91 1.240 . S
O107 Gd80 2.395 . S
O107 C91 1.240 . S
O108 Gd81 2.448 . S
O108 C92 1.249 . S
O109 Gd81 2.506 . S
O109 C92 1.252 . S
O110 Gd81 2.435 . S
O110 C99 1.256 . S
O111 Gd80 2.327 . S
O111 Gd81 2.717 . S
O111 C99 1.257 . S
H112 C85 0.930 . S
H113 C86 0.931 . S
H114 C88 0.931 . S
H115 C89 0.931 . S
H116 C94 0.930 . S
H117 C95 0.931 . S
H118 C97 0.931 1_554 S
H119 C98 0.931 . S
Gd120 C123 2.818 . S
Gd120 O140 2.377 . S
Gd120 O142 2.448 . S
Gd120 O143 2.506 . S
Gd120 O144 2.427 1_556 S
Gd120 O145 2.717 1_556 S
Gd120 O147 2.395 1_556 S
Gd120 O151 2.327 . S
Gd121 C132 2.818 . S
Gd121 O141 2.413 . S
Gd121 O145 2.327 . S
Gd121 O146 2.377 . S
Gd121 O148 2.448 . S
Gd121 O149 2.506 . S
Gd121 O150 2.435 . S
Gd121 O151 2.717 1_554 S
C122 O140 1.240 . S
C122 O141 1.221 1_556 S
C123 Gd120 2.818 . S
C123 C124 1.510 . S
C123 O142 1.249 . S
C123 O143 1.252 . S
C124 C123 1.510 . S
C124 C125 1.404 . S
C124 C126 1.352 . S
C125 C124 1.404 . S
C125 C129 1.389 . S
C125 H152 0.930 . S
C126 C124 1.352 . S
C126 C128 1.374 . S
C126 H153 0.931 . S
C127 C128 1.359 . S
C127 C129 1.364 . S
C128 C126 1.374 . S
C128 C127 1.359 . S
C128 H154 0.931 . S
C129 C125 1.389 . S
C129 C127 1.364 . S
C129 H155 0.931 . S
C130 O144 1.273 . S
C130 O145 1.257 . S
C131 O146 1.240 . S
C131 O147 1.240 . S
C132 Gd121 2.818 . S
C132 C133 1.510 . S
C132 O148 1.249 . S
C132 O149 1.252 . S
C133 C132 1.510 . S
C133 C134 1.404 . S
C133 C135 1.352 . S
C134 C133 1.404 . S
C134 C138 1.389 . S
C134 H156 0.930 . S
C135 C133 1.352 . S
C135 C137 1.374 . S
C135 H157 0.931 . S
C136 C137 1.359 . S
C136 C138 1.364 . S
C137 C135 1.374 . S
C137 C136 1.359 . S
C137 H158 0.931 . S
C138 C134 1.389 . S
C138 C136 1.364 . S
C138 H159 0.931 . S
C139 O150 1.256 1_556 S
C139 O151 1.257 . S
O140 Gd120 2.377 . S
O140 C122 1.240 . S
O141 Gd121 2.413 . S
O141 C122 1.221 1_554 S
O142 Gd120 2.448 . S
O142 C123 1.249 . S
O143 Gd120 2.506 . S
O143 C123 1.252 . S
O144 Gd120 2.427 1_554 S
O144 C130 1.273 . S
O145 Gd120 2.717 1_554 S
O145 Gd121 2.327 . S
O145 C130 1.257 . S
O146 Gd121 2.377 . S
O146 C131 1.240 . S
O147 Gd120 2.395 1_554 S
O147 C131 1.240 . S
O148 Gd121 2.448 . S
O148 C132 1.249 . S
O149 Gd121 2.506 . S
O149 C132 1.252 . S
O150 Gd121 2.435 . S
O150 C139 1.256 1_554 S
O151 Gd120 2.327 . S
O151 Gd121 2.717 1_556 S
O151 C139 1.257 . S
H152 C125 0.930 . S
H153 C126 0.931 . S
H154 C128 0.931 . S
H155 C129 0.931 . S
H156 C134 0.930 . S
H157 C135 0.931 . S
H158 C137 0.931 . S
H159 C138 0.931 . S
Gd160 C163 2.818 . S
Gd160 O180 2.377 . S
Gd160 O182 2.448 . S
Gd160 O183 2.506 . S
Gd160 O184 2.435 . S
Gd160 O185 2.717 . S
Gd160 O187 2.395 . S
Gd160 O191 2.327 . S
Gd161 C172 2.818 . S
Gd161 O181 2.395 . S
Gd161 O185 2.327 . S
Gd161 O186 2.377 . S
Gd161 O188 2.448 . S
Gd161 O189 2.506 . S
Gd161 O190 2.435 . S
Gd161 O191 2.717 . S
C162 O180 1.240 . S
C162 O181 1.240 . S
C163 Gd160 2.818 . S
C163 C164 1.510 . S
C163 O182 1.249 . S
C163 O183 1.252 . S
C164 C163 1.510 . S
C164 C165 1.404 . S
C164 C166 1.352 . S
C165 C164 1.404 . S
C165 C169 1.389 . S
C165 H192 0.930 . S
C166 C164 1.352 . S
C166 C168 1.374 . S
C166 H193 0.931 . S
C167 C168 1.359 . S
C167 C169 1.364 . S
C168 C166 1.374 . S
C168 C167 1.359 . S
C168 H194 0.931 . S
C169 C165 1.389 . S
C169 C167 1.364 . S
C169 H195 0.931 . S
C170 O184 1.256 . S
C170 O185 1.257 . S
C171 O186 1.240 . S
C171 O187 1.240 . S
C172 Gd161 2.818 . S
C172 C173 1.510 . S
C172 O188 1.249 . S
C172 O189 1.252 . S
C173 C172 1.510 . S
C173 C174 1.404 . S
C173 C175 1.352 . S
C174 C173 1.404 . S
C174 C178 1.389 . S
C174 H196 0.930 . S
C175 C173 1.352 . S
C175 C177 1.374 . S
C175 H197 0.931 . S
C176 C177 1.359 . S
C176 C178 1.364 . S
C177 C175 1.374 . S
C177 C176 1.359 . S
C177 H198 0.931 . S
C178 C174 1.389 . S
C178 C176 1.364 . S
C178 H199 0.931 . S
C179 O190 1.256 . S
C179 O191 1.257 . S
O180 Gd160 2.377 . S
O180 C162 1.240 . S
O181 Gd161 2.395 . S
O181 C162 1.240 . S
O182 Gd160 2.448 . S
O182 C163 1.249 . S
O183 Gd160 2.506 . S
O183 C163 1.252 . S
O184 Gd160 2.435 . S
O184 C170 1.256 . S
O185 Gd160 2.717 . S
O185 Gd161 2.327 . S
O185 C170 1.257 . S
O186 Gd161 2.377 . S
O186 C171 1.240 . S
O187 Gd160 2.395 . S
O187 C171 1.240 . S
O188 Gd161 2.448 . S
O188 C172 1.249 . S
O189 Gd161 2.506 . S
O189 C172 1.252 . S
O190 Gd161 2.435 . S
O190 C179 1.256 . S
O191 Gd160 2.327 . S
O191 Gd161 2.717 . S
O191 C179 1.257 . S
H192 C165 0.930 . S
H193 C166 0.931 . S
H194 C168 0.931 . S
H195 C169 0.931 . S
H196 C174 0.930 . S
H197 C175 0.931 . S
H198 C177 0.931 . S
H199 C178 0.931 . S
Gd200 C203 2.818 . S
Gd200 O220 2.377 . S
Gd200 O222 2.448 . S
Gd200 O223 2.506 . S
Gd200 O224 2.435 . S
Gd200 O225 2.717 . S
Gd200 O227 2.395 . S
Gd200 O231 2.327 . S
Gd201 C212 2.818 . S
Gd201 O221 2.395 . S
Gd201 O225 2.327 . S
Gd201 O226 2.377 . S
Gd201 O228 2.448 . S
Gd201 O229 2.506 . S
Gd201 O230 2.435 . S
Gd201 O231 2.717 . S
C202 O220 1.240 . S
C202 O221 1.240 . S
C203 Gd200 2.818 . S
C203 C204 1.510 . S
C203 O222 1.249 . S
C203 O223 1.252 . S
C204 C203 1.510 . S
C204 C205 1.404 . S
C204 C206 1.352 . S
C205 C204 1.404 . S
C205 C209 1.389 . S
C205 H232 0.930 . S
C206 C204 1.352 . S
C206 C208 1.374 . S
C206 H233 0.931 . S
C207 C208 1.359 . S
C207 C209 1.364 . S
C208 C206 1.374 . S
C208 C207 1.359 . S
C208 H234 0.931 . S
C209 C205 1.389 . S
C209 C207 1.364 . S
C209 H235 0.931 . S
C210 O224 1.256 . S
C210 O225 1.257 . S
C211 O226 1.240 . S
C211 O227 1.240 . S
C212 Gd201 2.818 . S
C212 C213 1.510 . S
C212 O228 1.249 . S
C212 O229 1.252 . S
C213 C212 1.510 . S
C213 C214 1.404 . S
C213 C215 1.352 . S
C214 C213 1.404 . S
C214 C218 1.389 . S
C214 H236 0.930 . S
C215 C213 1.352 . S
C215 C217 1.374 . S
C215 H237 0.931 . S
C216 C217 1.359 1_554 S
C216 C218 1.364 1_554 S
C217 C215 1.374 . S
C217 C216 1.359 1_556 S
C217 H238 0.931 1_556 S
C218 C214 1.389 . S
C218 C216 1.364 1_556 S
C218 H239 0.931 . S
C219 O230 1.256 . S
C219 O231 1.257 . S
O220 Gd200 2.377 . S
O220 C202 1.240 . S
O221 Gd201 2.395 . S
O221 C202 1.240 . S
O222 Gd200 2.448 . S
O222 C203 1.249 . S
O223 Gd200 2.506 . S
O223 C203 1.252 . S
O224 Gd200 2.435 . S
O224 C210 1.256 . S
O225 Gd200 2.717 . S
O225 Gd201 2.327 . S
O225 C210 1.257 . S
O226 Gd201 2.377 . S
O226 C211 1.240 . S
O227 Gd200 2.395 . S
O227 C211 1.240 . S
O228 Gd201 2.448 . S
O228 C212 1.249 . S
O229 Gd201 2.506 . S
O229 C212 1.252 . S
O230 Gd201 2.435 . S
O230 C219 1.256 . S
O231 Gd200 2.327 . S
O231 Gd201 2.717 . S
O231 C219 1.257 . S
H232 C205 0.930 . S
H233 C206 0.931 . S
H234 C208 0.931 . S
H235 C209 0.931 . S
H236 C214 0.930 . S
H237 C215 0.931 . S
H238 C217 0.931 1_554 S
H239 C218 0.931 . S
H240 C252 0.930 . S
H241 C254 0.930 . S
H242 C255 0.930 . S
H243 C259 0.959 . S
H244 C259 0.959 . S
H245 C259 0.961 . S
H246 C260 0.960 . S
H247 C260 0.961 . S
H248 C260 0.959 . S
H249 C263 0.929 . S
H250 C264 0.931 . S
H251 C266 0.930 . S
C252 H240 0.930 . S
C252 C253 1.399 . S
C252 C257 1.399 . S
C253 C252 1.399 . S
C253 C254 1.376 . S
C254 H241 0.930 . S
C254 C253 1.376 . S
C254 C255 1.388 . S
C255 H242 0.930 . S
C255 C254 1.388 . S
C255 C256 1.390 . S
C256 C255 1.390 . S
C256 C257 1.394 . S
C256 C262 1.465 . S
C257 C252 1.399 . S
C257 C256 1.394 . S
C257 C258 1.516 . S
C258 C257 1.516 . S
C258 C259 1.502 . S
C258 C260 1.561 . S
C258 C261 1.526 . S
C259 H243 0.959 . S
C259 H244 0.959 . S
C259 H245 0.961 . S
C259 C258 1.502 . S
C260 H246 0.960 . S
C260 H247 0.961 . S
C260 H248 0.959 . S
C260 C258 1.561 . S
C261 C258 1.526 . S
C261 C262 1.396 . S
C261 C266 1.390 . S
C262 C256 1.465 . S
C262 C261 1.396 . S
C262 C263 1.399 . S
C263 H249 0.929 . S
C263 C262 1.399 . S
C263 C264 1.385 . S
C264 H250 0.931 . S
C264 C263 1.385 . S
C264 C265 1.389 . S
C265 C264 1.389 . S
C265 C266 1.387 . S
C266 H251 0.930 . S
C266 C261 1.390 . S
C266 C265 1.387 . S
H267 C279 0.930 . S
H268 C281 0.930 . S
H269 C282 0.930 . S
H270 C286 0.959 . S
H271 C286 0.959 . S
H272 C286 0.961 . S
H273 C287 0.960 . S
H274 C287 0.961 . S
H275 C287 0.959 . S
H276 C290 0.929 1_455 S
H277 C291 0.931 . S
H278 C293 0.930 . S
C279 H267 0.930 . S
C279 C280 1.399 . S
C279 C284 1.399 . S
C280 C279 1.399 . S
C280 C281 1.376 . S
C281 H268 0.930 . S
C281 C280 1.376 . S
C281 C282 1.388 . S
C282 H269 0.930 . S
C282 C281 1.388 . S
C282 C283 1.390 . S
C283 C282 1.390 . S
C283 C284 1.394 . S
C283 C289 1.465 1_455 S
C284 C279 1.399 . S
C284 C283 1.394 . S
C284 C285 1.516 1_455 S
C285 C284 1.516 1_655 S
C285 C286 1.502 . S
C285 C287 1.561 . S
C285 C288 1.526 . S
C286 H270 0.959 . S
C286 H271 0.959 . S
C286 H272 0.961 . S
C286 C285 1.502 . S
C287 H273 0.960 . S
C287 H274 0.961 . S
C287 H275 0.959 . S
C287 C285 1.561 . S
C288 C285 1.526 . S
C288 C289 1.396 . S
C288 C293 1.390 . S
C289 C283 1.465 1_655 S
C289 C288 1.396 . S
C289 C290 1.399 . S
C290 H276 0.929 1_655 S
C290 C289 1.399 . S
C290 C291 1.385 . S
C291 H277 0.931 . S
C291 C290 1.385 . S
C291 C292 1.389 . S
C292 C291 1.389 . S
C292 C293 1.387 . S
C293 H278 0.930 . S
C293 C288 1.390 . S
C293 C292 1.387 . S
H294 C306 0.930 . S
H295 C308 0.930 . S
H296 C309 0.930 . S
H297 C313 0.959 . S
H298 C313 0.959 . S
H299 C313 0.961 . S
H300 C314 0.960 . S
H301 C314 0.961 . S
H302 C314 0.959 . S
H303 C317 0.929 1_545 S
H304 C318 0.931 . S
H305 C320 0.930 . S
C306 H294 0.930 . S
C306 C307 1.399 . S
C306 C311 1.399 . S
C307 C306 1.399 . S
C307 C308 1.376 . S
C308 H295 0.930 . S
C308 C307 1.376 . S
C308 C309 1.388 . S
C309 H296 0.930 . S
C309 C308 1.388 . S
C309 C310 1.390 . S
C310 C309 1.390 . S
C310 C311 1.394 . S
C310 C316 1.465 1_545 S
C311 C306 1.399 . S
C311 C310 1.394 . S
C311 C312 1.516 1_545 S
C312 C311 1.516 1_565 S
C312 C313 1.502 . S
C312 C314 1.561 . S
C312 C315 1.526 . S
C313 H297 0.959 . S
C313 H298 0.959 . S
C313 H299 0.961 . S
C313 C312 1.502 . S
C314 H300 0.960 . S
C314 H301 0.961 . S
C314 H302 0.959 . S
C314 C312 1.561 . S
C315 C312 1.526 . S
C315 C316 1.396 . S
C315 C320 1.390 . S
C316 C310 1.465 1_565 S
C316 C315 1.396 . S
C316 C317 1.399 . S
C317 H303 0.929 1_565 S
C317 C316 1.399 . S
C317 C318 1.385 . S
C318 H304 0.931 . S
C318 C317 1.385 . S
C318 C319 1.389 . S
C319 C318 1.389 . S
C319 C320 1.387 . S
C320 H305 0.930 . S
C320 C315 1.390 . S
C320 C319 1.387 . S
H321 C333 0.930 . S
H322 C335 0.930 . S
H323 C336 0.930 . S
H324 C340 0.959 . S
H325 C340 0.959 . S
H326 C340 0.961 . S
H327 C341 0.960 . S
H328 C341 0.961 . S
H329 C341 0.959 . S
H330 C344 0.929 . S
H331 C345 0.931 . S
H332 C347 0.930 . S
C333 H321 0.930 . S
C333 C334 1.399 . S
C333 C338 1.399 . S
C334 C333 1.399 . S
C334 C335 1.376 . S
C335 H322 0.930 . S
C335 C334 1.376 . S
C335 C336 1.388 . S
C336 H323 0.930 . S
C336 C335 1.388 . S
C336 C337 1.390 . S
C337 C336 1.390 . S
C337 C338 1.394 . S
C337 C343 1.465 . S
C338 C333 1.399 . S
C338 C337 1.394 . S
C338 C339 1.516 . S
C339 C338 1.516 . S
C339 C340 1.502 . S
C339 C341 1.561 . S
C339 C342 1.526 . S
C340 H324 0.959 . S
C340 H325 0.959 . S
C340 H326 0.961 . S
C340 C339 1.502 . S
C341 H327 0.960 . S
C341 H328 0.961 . S
C341 H329 0.959 . S
C341 C339 1.561 . S
C342 C339 1.526 . S
C342 C343 1.396 . S
C342 C347 1.390 . S
C343 C337 1.465 . S
C343 C342 1.396 . S
C343 C344 1.399 . S
C344 H330 0.929 . S
C344 C343 1.399 . S
C344 C345 1.385 . S
C345 H331 0.931 . S
C345 C344 1.385 . S
C345 C346 1.389 . S
C346 C345 1.389 . S
C346 C347 1.387 . S
C347 H332 0.930 . S
C347 C342 1.390 . S
C347 C346 1.387 . S
H348 C360 0.930 . S
H349 C362 0.930 . S
H350 C363 0.930 1_655 S
H351 C367 0.959 . S
H352 C367 0.959 . S
H353 C367 0.961 . S
H354 C368 0.960 . S
H355 C368 0.961 . S
H356 C368 0.959 . S
H357 C371 0.929 . S
H358 C372 0.931 . S
H359 C374 0.930 . S
C360 H348 0.930 . S
C360 C361 1.399 . S
C360 C365 1.399 . S
C361 C360 1.399 . S
C361 C362 1.376 . S
C362 H349 0.930 . S
C362 C361 1.376 . S
C362 C363 1.388 . S
C363 H350 0.930 1_455 S
C363 C362 1.388 . S
C363 C364 1.390 . S
C364 C363 1.390 . S
C364 C365 1.394 . S
C364 C370 1.465 1_455 S
C365 C360 1.399 . S
C365 C364 1.394 . S
C365 C366 1.516 . S
C366 C365 1.516 . S
C366 C367 1.502 . S
C366 C368 1.561 . S
C366 C369 1.526 1_455 S
C367 H351 0.959 . S
C367 H352 0.959 . S
C367 H353 0.961 . S
C367 C366 1.502 . S
C368 H354 0.960 . S
C368 H355 0.961 . S
C368 H356 0.959 . S
C368 C366 1.561 . S
C369 C366 1.526 1_655 S
C369 C370 1.396 . S
C369 C374 1.390 . S
C370 C364 1.465 1_655 S
C370 C369 1.396 . S
C370 C371 1.399 . S
C371 H357 0.929 . S
C371 C370 1.399 . S
C371 C372 1.385 . S
C372 H358 0.931 . S
C372 C371 1.385 . S
C372 C373 1.389 . S
C373 C372 1.389 . S
C373 C374 1.387 . S
C374 H359 0.930 . S
C374 C369 1.390 . S
C374 C373 1.387 . S
H375 C387 0.930 . S
H376 C389 0.930 . S
H377 C390 0.930 1_565 S
H378 C394 0.959 . S
H379 C394 0.959 . S
H380 C394 0.961 . S
H381 C395 0.960 . S
H382 C395 0.961 . S
H383 C395 0.959 . S
H384 C398 0.929 . S
H385 C399 0.931 . S
H386 C401 0.930 . S
C387 H375 0.930 . S
C387 C388 1.399 . S
C387 C392 1.399 . S
C388 C387 1.399 . S
C388 C389 1.376 . S
C389 H376 0.930 . S
C389 C388 1.376 . S
C389 C390 1.388 . S
C390 H377 0.930 1_545 S
C390 C389 1.388 . S
C390 C391 1.390 . S
C391 C390 1.390 . S
C391 C392 1.394 . S
C391 C397 1.465 1_545 S
C392 C387 1.399 . S
C392 C391 1.394 . S
C392 C393 1.516 . S
C393 C392 1.516 . S
C393 C394 1.502 . S
C393 C395 1.561 . S
C393 C396 1.526 1_545 S
C394 H378 0.959 . S
C394 H379 0.959 . S
C394 H380 0.961 . S
C394 C393 1.502 . S
C395 H381 0.960 . S
C395 H382 0.961 . S
C395 H383 0.959 . S
C395 C393 1.561 . S
C396 C393 1.526 1_565 S
C396 C397 1.396 . S
C396 C401 1.390 . S
C397 C391 1.465 1_565 S
C397 C396 1.396 . S
C397 C398 1.399 . S
C398 H384 0.929 . S
C398 C397 1.399 . S
C398 C399 1.385 . S
C399 H385 0.931 . S
C399 C398 1.385 . S
C399 C400 1.389 . S
C400 C399 1.389 . S
C400 C401 1.387 . S
C401 H386 0.930 . S
C401 C396 1.390 . S
C401 C400 1.387 . S
H402 C414 0.930 . S
H403 C416 0.930 . S
H404 C417 0.930 . S
H405 C421 0.959 . S
H406 C421 0.959 . S
H407 C421 0.961 . S
H408 C422 0.960 . S
H409 C422 0.961 . S
H410 C422 0.959 . S
H411 C425 0.929 . S
H412 C426 0.931 . S
H413 C428 0.930 . S
C414 H402 0.930 . S
C414 C415 1.399 . S
C414 C419 1.399 . S
C415 C414 1.399 . S
C415 C416 1.376 . S
C416 H403 0.930 . S
C416 C415 1.376 . S
C416 C417 1.388 . S
C417 H404 0.930 . S
C417 C416 1.388 . S
C417 C418 1.390 . S
C418 C417 1.390 . S
C418 C419 1.394 . S
C418 C424 1.465 . S
C419 C414 1.399 . S
C419 C418 1.394 . S
C419 C420 1.516 . S
C420 C419 1.516 . S
C420 C421 1.502 . S
C420 C422 1.561 . S
C420 C423 1.526 . S
C421 H405 0.959 . S
C421 H406 0.959 . S
C421 H407 0.961 . S
C421 C420 1.502 . S
C422 H408 0.960 . S
C422 H409 0.961 . S
C422 H410 0.959 . S
C422 C420 1.561 . S
C423 C420 1.526 . S
C423 C424 1.396 . S
C423 C428 1.390 . S
C424 C418 1.465 . S
C424 C423 1.396 . S
C424 C425 1.399 . S
C425 H411 0.929 . S
C425 C424 1.399 . S
C425 C426 1.385 . S
C426 H412 0.931 . S
C426 C425 1.385 . S
C426 C427 1.389 . S
C427 C426 1.389 . S
C427 C428 1.387 . S
C428 H413 0.930 . S
C428 C423 1.390 . S
C428 C427 1.387 . S
H429 C441 0.930 . S
H430 C443 0.930 1_554 S
H431 C444 0.930 . S
H432 C448 0.959 . S
H433 C448 0.959 . S
H434 C448 0.961 . S
H435 C449 0.960 . S
H436 C449 0.961 . S
H437 C449 0.959 . S
H438 C452 0.929 . S
H439 C453 0.931 . S
H440 C455 0.930 . S
C441 H429 0.930 . S
C441 C442 1.399 . S
C441 C446 1.399 . S
C442 C441 1.399 . S
C442 C443 1.376 . S
C443 H430 0.930 1_556 S
C443 C442 1.376 . S
C443 C444 1.388 . S
C444 H431 0.930 . S
C444 C443 1.388 . S
C444 C445 1.390 . S
C445 C444 1.390 . S
C445 C446 1.394 . S
C445 C451 1.465 . S
C446 C441 1.399 . S
C446 C445 1.394 . S
C446 C447 1.516 . S
C447 C446 1.516 . S
C447 C448 1.502 . S
C447 C449 1.561 . S
C447 C450 1.526 . S
C448 H432 0.959 . S
C448 H433 0.959 . S
C448 H434 0.961 . S
C448 C447 1.502 . S
C449 H435 0.960 . S
C449 H436 0.961 . S
C449 H437 0.959 . S
C449 C447 1.561 . S
C450 C447 1.526 . S
C450 C451 1.396 . S
C450 C455 1.390 . S
C451 C445 1.465 . S
C451 C450 1.396 . S
C451 C452 1.399 . S
C452 H438 0.929 . S
C452 C451 1.399 . S
C452 C453 1.385 . S
C453 H439 0.931 . S
C453 C452 1.385 . S
C453 C454 1.389 . S
C454 C453 1.389 . S
C454 C455 1.387 . S
C455 H440 0.930 . S
C455 C450 1.390 . S
C455 C454 1.387 . S
H456 C468 0.930 . S
H457 C470 0.930 . S
H458 C471 0.930 . S
H459 C475 0.959 . S
H460 C475 0.959 . S
H461 C475 0.961 . S
H462 C476 0.960 . S
H463 C476 0.961 . S
H464 C476 0.959 . S
H465 C479 0.929 . S
H466 C480 0.931 . S
H467 C482 0.930 . S
C468 H456 0.930 . S
C468 C469 1.399 . S
C468 C473 1.399 . S
C469 C468 1.399 . S
C469 C470 1.376 . S
C470 H457 0.930 . S
C470 C469 1.376 . S
C470 C471 1.388 . S
C471 H458 0.930 . S
C471 C470 1.388 . S
C471 C472 1.390 . S
C472 C471 1.390 . S
C472 C473 1.394 . S
C472 C478 1.465 . S
C473 C468 1.399 . S
C473 C472 1.394 . S
C473 C474 1.516 . S
C474 C473 1.516 . S
C474 C475 1.502 . S
C474 C476 1.561 . S
C474 C477 1.526 . S
C475 H459 0.959 . S
C475 H460 0.959 . S
C475 H461 0.961 . S
C475 C474 1.502 . S
C476 H462 0.960 . S
C476 H463 0.961 . S
C476 H464 0.959 . S
C476 C474 1.561 . S
C477 C474 1.526 . S
C477 C478 1.396 . S
C477 C482 1.390 . S
C478 C472 1.465 . S
C478 C477 1.396 . S
C478 C479 1.399 . S
C479 H465 0.929 . S
C479 C478 1.399 . S
C479 C480 1.385 . S
C480 H466 0.931 . S
C480 C479 1.385 . S
C480 C481 1.389 . S
C481 C480 1.389 . S
C481 C482 1.387 . S
C482 H467 0.930 . S
C482 C477 1.390 . S
C482 C481 1.387 . S
H483 C495 0.930 . S
H484 C497 0.930 . S
H485 C498 0.930 . S
H486 C502 0.959 . S
H487 C502 0.959 . S
H488 C502 0.961 . S
H489 C503 0.960 . S
H490 C503 0.961 . S
H491 C503 0.959 . S
H492 C506 0.929 . S
H493 C507 0.931 . S
H494 C509 0.930 . S
C495 H483 0.930 . S
C495 C496 1.399 . S
C495 C500 1.399 . S
C496 C495 1.399 . S
C496 C497 1.376 . S
C497 H484 0.930 . S
C497 C496 1.376 . S
C497 C498 1.388 . S
C498 H485 0.930 . S
C498 C497 1.388 . S
C498 C499 1.390 . S
C499 C498 1.390 . S
C499 C500 1.394 . S
C499 C505 1.465 . S
C500 C495 1.399 . S
C500 C499 1.394 . S
C500 C501 1.516 . S
C501 C500 1.516 . S
C501 C502 1.502 . S
C501 C503 1.561 . S
C501 C504 1.526 . S
C502 H486 0.959 . S
C502 H487 0.959 . S
C502 H488 0.961 . S
C502 C501 1.502 . S
C503 H489 0.960 . S
C503 H490 0.961 . S
C503 H491 0.959 . S
C503 C501 1.561 . S
C504 C501 1.526 . S
C504 C505 1.396 . S
C504 C509 1.390 . S
C505 C499 1.465 . S
C505 C504 1.396 . S
C505 C506 1.399 . S
C506 H492 0.929 . S
C506 C505 1.399 . S
C506 C507 1.385 . S
C507 H493 0.931 . S
C507 C506 1.385 . S
C507 C508 1.389 . S
C508 C507 1.389 . S
C508 C509 1.387 . S
C509 H494 0.930 . S
C509 C504 1.390 . S
C509 C508 1.387 . S
H510 C522 0.930 . S
H511 C524 0.930 . S
H512 C525 0.930 . S
H513 C529 0.959 . S
H514 C529 0.959 . S
H515 C529 0.961 . S
H516 C530 0.960 . S
H517 C530 0.961 . S
H518 C530 0.959 . S
H519 C533 0.929 . S
H520 C534 0.931 1_554 S
H521 C536 0.930 . S
C522 H510 0.930 . S
C522 C523 1.399 . S
C522 C527 1.399 . S
C523 C522 1.399 . S
C523 C524 1.376 . S
C524 H511 0.930 . S
C524 C523 1.376 . S
C524 C525 1.388 . S
C525 H512 0.930 . S
C525 C524 1.388 . S
C525 C526 1.390 . S
C526 C525 1.390 . S
C526 C527 1.394 . S
C526 C532 1.465 . S
C527 C522 1.399 . S
C527 C526 1.394 . S
C527 C528 1.516 . S
C528 C527 1.516 . S
C528 C529 1.502 . S
C528 C530 1.561 . S
C528 C531 1.526 . S
C529 H513 0.959 . S
C529 H514 0.959 . S
C529 H515 0.961 . S
C529 C528 1.502 . S
C530 H516 0.960 . S
C530 H517 0.961 . S
C530 H518 0.959 . S
C530 C528 1.561 . S
C531 C528 1.526 . S
C531 C532 1.396 . S
C531 C536 1.390 . S
C532 C526 1.465 . S
C532 C531 1.396 . S
C532 C533 1.399 . S
C533 H519 0.929 . S
C533 C532 1.399 . S
C533 C534 1.385 . S
C534 H520 0.931 1_556 S
C534 C533 1.385 . S
C534 C535 1.389 . S
C535 C534 1.389 . S
C535 C536 1.387 . S
C536 H521 0.930 . S
C536 C531 1.390 . S
C536 C535 1.387 . S
H537 C549 0.930 . S
H538 C551 0.930 . S
H539 C552 0.930 . S
H540 C556 0.959 . S
H541 C556 0.959 . S
H542 C556 0.961 . S
H543 C557 0.960 . S
H544 C557 0.961 . S
H545 C557 0.959 . S
H546 C560 0.929 . S
H547 C561 0.931 . S
H548 C563 0.930 . S
C549 H537 0.930 . S
C549 C550 1.399 . S
C549 C554 1.399 . S
C550 C549 1.399 . S
C550 C551 1.376 . S
C551 H538 0.930 . S
C551 C550 1.376 . S
C551 C552 1.388 . S
C552 H539 0.930 . S
C552 C551 1.388 . S
C552 C553 1.390 . S
C553 C552 1.390 . S
C553 C554 1.394 . S
C553 C559 1.465 . S
C554 C549 1.399 . S
C554 C553 1.394 . S
C554 C555 1.516 . S
C555 C554 1.516 . S
C555 C556 1.502 . S
C555 C557 1.561 . S
C555 C558 1.526 . S
C556 H540 0.959 . S
C556 H541 0.959 . S
C556 H542 0.961 . S
C556 C555 1.502 . S
C557 H543 0.960 . S
C557 H544 0.961 . S
C557 H545 0.959 . S
C557 C555 1.561 . S
C558 C555 1.526 . S
C558 C559 1.396 . S
C558 C563 1.390 . S
C559 C553 1.465 . S
C559 C558 1.396 . S
C559 C560 1.399 . S
C560 H546 0.929 . S
C560 C559 1.399 . S
C560 C561 1.385 . S
C561 H547 0.931 . S
C561 C560 1.385 . S
C561 C562 1.389 . S
C562 C561 1.389 . S
C562 C563 1.387 . S
C563 H548 0.930 . S
C563 C558 1.390 . S
C563 C562 1.387 . S
H564 C576 0.930 . S
H565 C578 0.930 . S
H566 C579 0.930 . S
H567 C583 0.959 . S
H568 C583 0.959 . S
H569 C583 0.961 . S
H570 C584 0.960 . S
H571 C584 0.961 . S
H572 C584 0.959 . S
H573 C587 0.929 . S
H574 C588 0.931 . S
H575 C590 0.930 . S
C576 H564 0.930 . S
C576 C577 1.399 . S
C576 C581 1.399 . S
C577 C576 1.399 . S
C577 C578 1.376 . S
C578 H565 0.930 . S
C578 C577 1.376 . S
C578 C579 1.388 . S
C579 H566 0.930 . S
C579 C578 1.388 . S
C579 C580 1.390 . S
C580 C579 1.390 . S
C580 C581 1.394 . S
C580 C586 1.465 . S
C581 C576 1.399 . S
C581 C580 1.394 . S
C581 C582 1.516 . S
C582 C581 1.516 . S
C582 C583 1.502 . S
C582 C584 1.561 . S
C582 C585 1.526 . S
C583 H567 0.959 . S
C583 H568 0.959 . S
C583 H569 0.961 . S
C583 C582 1.502 . S
C584 H570 0.960 . S
C584 H571 0.961 . S
C584 H572 0.959 . S
C584 C582 1.561 . S
C585 C582 1.526 . S
C585 C586 1.396 . S
C585 C590 1.390 . S
C586 C580 1.465 . S
C586 C585 1.396 . S
C586 C587 1.399 . S
C587 H573 0.929 . S
C587 C586 1.399 . S
C587 C588 1.385 . S
C588 H574 0.931 . S
C588 C587 1.385 . S
C588 C589 1.389 . S
C589 C588 1.389 . S
C589 C590 1.387 . S
C590 H575 0.930 . S
C590 C585 1.390 . S
C590 C589 1.387 . S
H591 C603 0.930 . S
H592 C605 0.930 . S
H593 C606 0.930 . S
H594 C610 0.959 . S
H595 C610 0.959 . S
H596 C610 0.961 . S
H597 C611 0.960 . S
H598 C611 0.961 . S
H599 C611 0.959 . S
H600 C614 0.929 . S
H601 C615 0.931 . S
H602 C617 0.930 . S
C603 H591 0.930 . S
C603 C604 1.399 . S
C603 C608 1.399 . S
C604 C603 1.399 . S
C604 C605 1.376 . S
C605 H592 0.930 . S
C605 C604 1.376 . S
C605 C606 1.388 . S
C606 H593 0.930 . S
C606 C605 1.388 . S
C606 C607 1.390 . S
C607 C606 1.390 . S
C607 C608 1.394 . S
C607 C613 1.465 . S
C608 C603 1.399 . S
C608 C607 1.394 . S
C608 C609 1.516 . S
C609 C608 1.516 . S
C609 C610 1.502 . S
C609 C611 1.561 . S
C609 C612 1.526 . S
C610 H594 0.959 . S
C610 H595 0.959 . S
C610 H596 0.961 . S
C610 C609 1.502 . S
C611 H597 0.960 . S
C611 H598 0.961 . S
C611 H599 0.959 . S
C611 C609 1.561 . S
C612 C609 1.526 . S
C612 C613 1.396 . S
C612 C617 1.390 . S
C613 C607 1.465 . S
C613 C612 1.396 . S
C613 C614 1.399 . S
C614 H600 0.929 . S
C614 C613 1.399 . S
C614 C615 1.385 . S
C615 H601 0.931 . S
C615 C614 1.385 . S
C615 C616 1.389 . S
C616 C615 1.389 . S
C616 C617 1.387 . S
C617 H602 0.930 . S
C617 C612 1.390 . S
C617 C616 1.387 . S
H618 C630 0.930 . S
H619 C632 0.930 . S
H620 C633 0.930 . S
H621 C637 0.959 . S
H622 C637 0.959 . S
H623 C637 0.961 . S
H624 C638 0.960 . S
H625 C638 0.961 . S
H626 C638 0.959 . S
H627 C641 0.929 . S
H628 C642 0.931 . S
H629 C644 0.930 . S
C630 H618 0.930 . S
C630 C631 1.399 . S
C630 C635 1.399 . S
C631 C630 1.399 . S
C631 C632 1.376 . S
C632 H619 0.930 . S
C632 C631 1.376 . S
C632 C633 1.388 . S
C633 H620 0.930 . S
C633 C632 1.388 . S
C633 C634 1.390 . S
C634 C633 1.390 . S
C634 C635 1.394 . S
C634 C640 1.465 . S
C635 C630 1.399 . S
C635 C634 1.394 . S
C635 C636 1.516 . S
C636 C635 1.516 . S
C636 C637 1.502 . S
C636 C638 1.561 . S
C636 C639 1.526 . S
C637 H621 0.959 . S
C637 H622 0.959 . S
C637 H623 0.961 . S
C637 C636 1.502 . S
C638 H624 0.960 . S
C638 H625 0.961 . S
C638 H626 0.959 . S
C638 C636 1.561 . S
C639 C636 1.526 . S
C639 C640 1.396 . S
C639 C644 1.390 . S
C640 C634 1.465 . S
C640 C639 1.396 . S
C640 C641 1.399 . S
C641 H627 0.929 . S
C641 C640 1.399 . S
C641 C642 1.385 . S
C642 H628 0.931 . S
C642 C641 1.385 . S
C642 C643 1.389 . S
C643 C642 1.389 . S
C643 C644 1.387 . S
C644 H629 0.930 . S
C644 C639 1.390 . S
C644 C643 1.387 . S
H645 C657 0.930 . S
H646 C659 0.930 . S
H647 C660 0.930 . S
H648 C664 0.959 . S
H649 C664 0.959 . S
H650 C664 0.961 . S
H651 C665 0.960 . S
H652 C665 0.961 . S
H653 C665 0.959 . S
H654 C668 0.929 . S
H655 C669 0.931 . S
H656 C671 0.930 . S
C657 H645 0.930 . S
C657 C658 1.399 . S
C657 C662 1.399 . S
C658 C657 1.399 . S
C658 C659 1.376 . S
C659 H646 0.930 . S
C659 C658 1.376 . S
C659 C660 1.388 . S
C660 H647 0.930 . S
C660 C659 1.388 . S
C660 C661 1.390 . S
C661 C660 1.390 . S
C661 C662 1.394 . S
C661 C667 1.465 . S
C662 C657 1.399 . S
C662 C661 1.394 . S
C662 C663 1.516 . S
C663 C662 1.516 . S
C663 C664 1.502 . S
C663 C665 1.561 . S
C663 C666 1.526 . S
C664 H648 0.959 . S
C664 H649 0.959 . S
C664 H650 0.961 . S
C664 C663 1.502 . S
C665 H651 0.960 . S
C665 H652 0.961 . S
C665 H653 0.959 . S
C665 C663 1.561 . S
C666 C663 1.526 . S
C666 C667 1.396 . S
C666 C671 1.390 . S
C667 C661 1.465 . S
C667 C666 1.396 . S
C667 C668 1.399 . S
C668 H654 0.929 . S
C668 C667 1.399 . S
C668 C669 1.385 . S
C669 H655 0.931 . S
C669 C668 1.385 . S
C669 C670 1.389 . S
C670 C669 1.389 . S
C670 C671 1.387 . S
C671 H656 0.930 . S
C671 C666 1.390 . S
C671 C670 1.387 . S
H672 C684 0.930 . S
H673 C686 0.930 . S
H674 C687 0.930 . S
H675 C691 0.959 . S
H676 C691 0.959 . S
H677 C691 0.961 . S
H678 C692 0.960 . S
H679 C692 0.961 . S
H680 C692 0.959 . S
H681 C695 0.929 . S
H682 C696 0.931 . S
H683 C698 0.930 . S
C684 H672 0.930 . S
C684 C685 1.399 . S
C684 C689 1.399 . S
C685 C684 1.399 . S
C685 C686 1.376 . S
C686 H673 0.930 . S
C686 C685 1.376 . S
C686 C687 1.388 . S
C687 H674 0.930 . S
C687 C686 1.388 . S
C687 C688 1.390 . S
C688 C687 1.390 . S
C688 C689 1.394 . S
C688 C694 1.465 . S
C689 C684 1.399 . S
C689 C688 1.394 . S
C689 C690 1.516 . S
C690 C689 1.516 . S
C690 C691 1.502 . S
C690 C692 1.561 . S
C690 C693 1.526 . S
C691 H675 0.959 . S
C691 H676 0.959 . S
C691 H677 0.961 . S
C691 C690 1.502 . S
C692 H678 0.960 . S
C692 H679 0.961 . S
C692 H680 0.959 . S
C692 C690 1.561 . S
C693 C690 1.526 . S
C693 C694 1.396 . S
C693 C698 1.390 . S
C694 C688 1.465 . S
C694 C693 1.396 . S
C694 C695 1.399 . S
C695 H681 0.929 . S
C695 C694 1.399 . S
C695 C696 1.385 . S
C696 H682 0.931 . S
C696 C695 1.385 . S
C696 C697 1.389 . S
C697 C696 1.389 . S
C697 C698 1.387 . S
C698 H683 0.930 . S
C698 C693 1.390 . S
C698 C697 1.387 . S
H699 C711 0.930 . S
H700 C713 0.930 . S
H701 C714 0.930 . S
H702 C718 0.959 . S
H703 C718 0.959 . S
H704 C718 0.961 . S
H705 C719 0.960 . S
H706 C719 0.961 . S
H707 C719 0.959 . S
H708 C722 0.929 . S
H709 C723 0.931 . S
H710 C725 0.930 . S
C711 H699 0.930 . S
C711 C712 1.399 . S
C711 C716 1.399 . S
C712 C711 1.399 . S
C712 C713 1.376 . S
C713 H700 0.930 . S
C713 C712 1.376 . S
C713 C714 1.388 . S
C714 H701 0.930 . S
C714 C713 1.388 . S
C714 C715 1.390 . S
C715 C714 1.390 . S
C715 C716 1.394 . S
C715 C721 1.465 . S
C716 C711 1.399 . S
C716 C715 1.394 . S
C716 C717 1.516 . S
C717 C716 1.516 . S
C717 C718 1.502 . S
C717 C719 1.561 . S
C717 C720 1.526 . S
C718 H702 0.959 . S
C718 H703 0.959 . S
C718 H704 0.961 . S
C718 C717 1.502 . S
C719 H705 0.960 . S
C719 H706 0.961 . S
C719 H707 0.959 . S
C719 C717 1.561 . S
C720 C717 1.526 . S
C720 C721 1.396 . S
C720 C725 1.390 . S
C721 C715 1.465 . S
C721 C720 1.396 . S
C721 C722 1.399 . S
C722 H708 0.929 . S
C722 C721 1.399 . S
C722 C723 1.385 . S
C723 H709 0.931 . S
C723 C722 1.385 . S
C723 C724 1.389 . S
C724 C723 1.389 . S
C724 C725 1.387 . S
C725 H710 0.930 . S
C725 C720 1.390 . S
C725 C724 1.387 . S
C253 C210 1.392 . S
C265 C2 1.408 . S
C280 C10 1.374 . S
C292 C42 1.393 . S
C307 C50 1.364 . S
C319 C82 1.390 . S
C334 C90 1.396 . S
C346 C122 1.407 . S
C361 C162 1.395 . S
C373 C130 1.380 . S
C388 C202 1.391 . S
C400 C170 1.369 . S
C415 C7 1.546 . S
C427 C16 1.515 . S
C442 C47 1.509 1_556 S
C454 C56 1.577 . S
C469 C87 1.574 . S
C481 C96 1.515 . S
C496 C127 1.519 . S
C508 C136 1.541 . S
C523 C176 1.582 . S
C535 C167 1.488 1_556 S
C550 C207 1.503 . S
C562 C216 1.559 . S
C577 C11 1.656 . S
C589 C179 1.656 . S
C604 C51 1.645 . S
C616 C219 1.661 . S
C631 C19 1.657 . S
C643 C91 1.660 . S
C658 C59 1.662 . S
C670 C131 1.643 . S
C685 C171 1.659 . S
C697 C99 1.657 . S
C712 C139 1.652 . S
C724 C211 1.665 . S
