# Generated by pormake.
# Topology uou, (4)-cn, num edge types: 1
# Building blocks:
#     Node 0, Type 0, BuildingBlock: CEKHIL_clean_sbu_0, # of connection points: 4
#     Node 1, Type 0, BuildingBlock: CEKHIL_clean_sbu_0, # of connection points: 4
#     Node 2, Type 0, BuildingBlock: CEKHIL_clean_sbu_0, # of connection points: 4
#     Node 3, Type 0, BuildingBlock: CEKHIL_clean_sbu_0, # of connection points: 4
#     Node 4, Type 0, BuildingBlock: CEKHIL_clean_sbu_0, # of connection points: 4
#     Node 5, Type 0, BuildingBlock: CEKHIL_clean_sbu_0, # of connection points: 4
#     Node 6, Type 0, BuildingBlock: CEKHIL_clean_sbu_0, # of connection points: 4
#     Node 7, Type 0, BuildingBlock: CEKHIL_clean_sbu_0, # of connection points: 4
#     Node 8, Type 0, BuildingBlock: CEKHIL_clean_sbu_0, # of connection points: 4
#     Node 9, Type 0, BuildingBlock: CEKHIL_clean_sbu_0, # of connection points: 4
#     Node 10, Type 0, BuildingBlock: CEKHIL_clean_sbu_0, # of connection points: 4
#     Node 11, Type 0, BuildingBlock: CEKHIL_clean_sbu_0, # of connection points: 4
#     Node 12, Type 0, BuildingBlock: CEKHIL_clean_sbu_0, # of connection points: 4
#     Node 13, Type 0, BuildingBlock: CEKHIL_clean_sbu_0, # of connection points: 4
#     Node 14, Type 0, BuildingBlock: CEKHIL_clean_sbu_0, # of connection points: 4
#     Node 15, Type 0, BuildingBlock: CEKHIL_clean_sbu_0, # of connection points: 4
#     Edge 16, Type (0, 0), BuildingBlock: OJICUG_clean_linker_0, # of connection points: 2
#     Edge 17, Type (0, 0), BuildingBlock: OJICUG_clean_linker_0, # of connection points: 2
#     Edge 18, Type (0, 0), BuildingBlock: OJICUG_clean_linker_0, # of connection points: 2
#     Edge 19, Type (0, 0), BuildingBlock: OJICUG_clean_linker_0, # of connection points: 2
#     Edge 20, Type (0, 0), BuildingBlock: OJICUG_clean_linker_0, # of connection points: 2
#     Edge 21, Type (0, 0), BuildingBlock: OJICUG_clean_linker_0, # of connection points: 2
#     Edge 22, Type (0, 0), BuildingBlock: OJICUG_clean_linker_0, # of connection points: 2
#     Edge 23, Type (0, 0), BuildingBlock: OJICUG_clean_linker_0, # of connection points: 2
#     Edge 24, Type (0, 0), BuildingBlock: OJICUG_clean_linker_0, # of connection points: 2
#     Edge 25, Type (0, 0), BuildingBlock: OJICUG_clean_linker_0, # of connection points: 2
#     Edge 26, Type (0, 0), BuildingBlock: OJICUG_clean_linker_0, # of connection points: 2
#     Edge 27, Type (0, 0), BuildingBlock: OJICUG_clean_linker_0, # of connection points: 2
#     Edge 28, Type (0, 0), BuildingBlock: OJICUG_clean_linker_0, # of connection points: 2
#     Edge 29, Type (0, 0), BuildingBlock: OJICUG_clean_linker_0, # of connection points: 2
#     Edge 30, Type (0, 0), BuildingBlock: OJICUG_clean_linker_0, # of connection points: 2
#     Edge 31, Type (0, 0), BuildingBlock: OJICUG_clean_linker_0, # of connection points: 2
#     Edge 32, Type (0, 0), BuildingBlock: OJICUG_clean_linker_0, # of connection points: 2
#     Edge 33, Type (0, 0), BuildingBlock: OJICUG_clean_linker_0, # of connection points: 2
#     Edge 34, Type (0, 0), BuildingBlock: OJICUG_clean_linker_0, # of connection points: 2
#     Edge 35, Type (0, 0), BuildingBlock: OJICUG_clean_linker_0, # of connection points: 2
#     Edge 36, Type (0, 0), BuildingBlock: OJICUG_clean_linker_0, # of connection points: 2
#     Edge 37, Type (0, 0), BuildingBlock: OJICUG_clean_linker_0, # of connection points: 2
#     Edge 38, Type (0, 0), BuildingBlock: OJICUG_clean_linker_0, # of connection points: 2
#     Edge 39, Type (0, 0), BuildingBlock: OJICUG_clean_linker_0, # of connection points: 2
#     Edge 40, Type (0, 0), BuildingBlock: OJICUG_clean_linker_0, # of connection points: 2
#     Edge 41, Type (0, 0), BuildingBlock: OJICUG_clean_linker_0, # of connection points: 2
#     Edge 42, Type (0, 0), BuildingBlock: OJICUG_clean_linker_0, # of connection points: 2
#     Edge 43, Type (0, 0), BuildingBlock: OJICUG_clean_linker_0, # of connection points: 2
#     Edge 44, Type (0, 0), BuildingBlock: OJICUG_clean_linker_0, # of connection points: 2
#     Edge 45, Type (0, 0), BuildingBlock: OJICUG_clean_linker_0, # of connection points: 2
#     Edge 46, Type (0, 0), BuildingBlock: OJICUG_clean_linker_0, # of connection points: 2
#     Edge 47, Type (0, 0), BuildingBlock: OJICUG_clean_linker_0, # of connection points: 2
# Relax obj value: 0.039
# Max RMSD: 0.066
# Mean RMSD: 0.066
data_MOF--net-uou--node1-CEKHIL_clean_sbu_0--edge1-OJICUG_clean_linker_0
_symmetry_space_group_name_H-M    P1
_symmetry_Int_Tables_number       1
_symmetry_cell_setting            triclinic
loop_
_symmetry_equiv_pos_as_xyz
'x, y, z'
_cell_length_a     27.504627
_cell_length_b     29.28373
_cell_length_c     38.455584
_cell_angle_alpha  90.000323
_cell_angle_beta   90.007473
_cell_angle_gamma 90.010629
loop_
_atom_site_label
_atom_site_type_symbol
_atom_site_fract_x
_atom_site_fract_y
_atom_site_fract_z
_atom_type_partial_charge
Co0 Co 0.0856 0.07093 0.12695 0.0
O1 O 0.1256 0.01639 0.12799 0.0
O2 O 0.15018 0.08353 0.10872 0.0
C3 C 0.05598 0.06489 0.18138 0.0
O4 O 0.05625 0.13532 0.12336 0.0
Co5 Co 0.97279 0.06619 0.13457 0.0
O6 O 0.97687 0.13355 0.13763 0.0
C7 C 0.01892 0.03744 0.06897 0.0
C8 C 0.16063 0.04111 0.11542 0.0
C9 C 0.01536 0.15544 0.12973 0.0
O10 O 0.06016 0.05357 0.07931 0.0
O11 O 0.98118 0.03578 0.08839 0.0
O12 O 0.09904 0.08181 0.17619 0.0
O13 O 0.03462 0.04834 0.1543 0.0
Co14 Co 0.43195 0.93831 0.12697 0.0
O15 O 0.39196 0.99284 0.12798 0.0
O16 O 0.36738 0.92569 0.10874 0.0
C17 C 0.46158 0.94439 0.1814 0.0
O18 O 0.4613 0.87391 0.1234 0.0
Co19 Co 0.54476 0.94306 0.13463 0.0
O20 O 0.54069 0.87569 0.13768 0.0
C21 C 0.49865 0.97173 0.06899 0.0
C22 C 0.35692 0.96812 0.11542 0.0
C23 C 0.5022 0.8538 0.12978 0.0
O24 O 0.4574 0.95563 0.07933 0.0
O25 O 0.53638 0.97341 0.08843 0.0
O26 O 0.41851 0.92745 0.17621 0.0
O27 O 0.48293 0.96091 0.15432 0.0
Co28 Co 0.58563 0.93834 0.36959 0.0
O29 O 0.62563 0.99289 0.36856 0.0
O30 O 0.65021 0.92574 0.3878 0.0
C31 C 0.55598 0.94441 0.31516 0.0
O32 O 0.55629 0.87394 0.37316 0.0
Co33 Co 0.47282 0.94304 0.36197 0.0
O34 O 0.47689 0.87567 0.3589 0.0
C35 C 0.51897 0.97173 0.42759 0.0
C36 C 0.66067 0.96817 0.38111 0.0
C37 C 0.51539 0.8538 0.36678 0.0
O38 O 0.56021 0.95565 0.41723 0.0
O39 O 0.48122 0.97339 0.40817 0.0
O40 O 0.59905 0.92749 0.32034 0.0
O41 O 0.53464 0.96093 0.34225 0.0
Co42 Co 0.93201 0.071 0.36958 0.0
O43 O 0.892 0.01645 0.36855 0.0
O44 O 0.86743 0.0836 0.38779 0.0
C45 C 0.96164 0.06493 0.31515 0.0
O46 O 0.96135 0.1354 0.37315 0.0
Co47 Co 0.04481 0.06629 0.36196 0.0
O48 O 0.04075 0.13365 0.3589 0.0
C49 C 0.99868 0.03761 0.42759 0.0
C50 C 0.85697 0.04117 0.3811 0.0
C51 C 1.00225 0.15553 0.36678 0.0
O52 O 0.95743 0.05369 0.41722 0.0
O53 O 0.03642 0.03595 0.40817 0.0
O54 O 0.91857 0.08185 0.32033 0.0
O55 O 0.98299 0.04841 0.34224 0.0
Co56 Co 0.93195 0.9379 0.8696 0.0
O57 O 0.89202 0.99248 0.86856 0.0
O58 O 0.86734 0.92536 0.88779 0.0
C59 C 0.96162 0.94397 0.81518 0.0
O60 O 0.96124 0.87348 0.87317 0.0
Co61 Co 0.04477 0.94258 0.86201 0.0
O62 O 0.04064 0.87522 0.85895 0.0
C63 C 0.99862 0.97131 0.92761 0.0
C64 C 0.85695 0.9678 0.88111 0.0
C65 C 1.00213 0.85335 0.86681 0.0
O66 O 0.95737 0.95521 0.91725 0.0
O67 O 0.03636 0.97297 0.90819 0.0
O68 O 0.91853 0.92707 0.82034 0.0
O69 O 0.98296 0.96047 0.84227 0.0
Co70 Co 0.58579 0.071 0.8696 0.0
O71 O 0.6257 0.0164 0.86857 0.0
O72 O 0.65039 0.08352 0.88782 0.0
C73 C 0.55613 0.06496 0.81517 0.0
O74 O 0.55653 0.13543 0.87317 0.0
Co75 Co 0.47297 0.06636 0.86197 0.0
O76 O 0.47713 0.13372 0.85892 0.0
C77 C 0.51908 0.03763 0.92759 0.0
C78 C 0.66078 0.04107 0.88112 0.0
C79 C 0.51564 0.15558 0.86681 0.0
O80 O 0.56034 0.0537 0.91724 0.0
O81 O 0.48134 0.03599 0.90816 0.0
O82 O 0.59922 0.08184 0.82035 0.0
O83 O 0.53477 0.04846 0.84226 0.0
Co84 Co 0.43201 0.07102 0.62701 0.0
O85 O 0.39202 0.01646 0.62804 0.0
O86 O 0.36742 0.0836 0.6088 0.0
C87 C 0.46168 0.06496 0.68143 0.0
O88 O 0.46134 0.13542 0.62342 0.0
Co89 Co 0.54483 0.06633 0.63461 0.0
O90 O 0.54074 0.13369 0.63767 0.0
C91 C 0.49866 0.03762 0.569 0.0
C92 C 0.35698 0.04117 0.61549 0.0
C93 C 0.50224 0.15556 0.62979 0.0
O94 O 0.45742 0.0537 0.57936 0.0
O95 O 0.53641 0.03597 0.58842 0.0
O96 O 0.41861 0.08187 0.67625 0.0
O97 O 0.48301 0.04844 0.65434 0.0
Co98 Co 0.08566 0.93826 0.627 0.0
O99 O 0.12566 0.99281 0.62806 0.0
O100 O 0.15024 0.92569 0.60878 0.0
C101 C 0.05602 0.94426 0.68143 0.0
O102 O 0.05633 0.87386 0.6234 0.0
Co103 Co 0.97286 0.94296 0.6346 0.0
O104 O 0.97694 0.87559 0.63766 0.0
C105 C 0.019 0.9717 0.569 0.0
C106 C 0.1607 0.96811 0.61549 0.0
C107 C 0.01543 0.85372 0.62977 0.0
O108 O 0.06024 0.95561 0.57936 0.0
O109 O 0.98125 0.97334 0.58842 0.0
O110 O 0.09909 0.92736 0.67624 0.0
O111 O 0.03468 0.96081 0.65435 0.0
Co112 Co 0.58572 0.57112 0.12701 0.0
O113 O 0.62568 0.51656 0.12806 0.0
O114 O 0.65033 0.58368 0.10881 0.0
C115 C 0.55605 0.56508 0.18143 0.0
O116 O 0.55641 0.63553 0.12342 0.0
Co117 Co 0.47291 0.56641 0.13459 0.0
O118 O 0.47701 0.63377 0.13765 0.0
C119 C 0.51907 0.5377 0.06899 0.0
C120 C 0.66074 0.54125 0.11551 0.0
C121 C 0.51551 0.65565 0.12977 0.0
O122 O 0.56032 0.55379 0.07936 0.0
O123 O 0.48132 0.53603 0.0884 0.0
O124 O 0.59913 0.58199 0.17626 0.0
O125 O 0.53472 0.54855 0.15434 0.0
Co126 Co 0.93195 0.43815 0.12701 0.0
O127 O 0.89202 0.49273 0.12804 0.0
O128 O 0.86734 0.42561 0.1088 0.0
C129 C 0.96161 0.44421 0.18144 0.0
O130 O 0.96123 0.37373 0.12344 0.0
Co131 Co 0.04477 0.44282 0.13463 0.0
O132 O 0.04063 0.37545 0.13769 0.0
C133 C 0.99864 0.47149 0.06901 0.0
C134 C 0.85694 0.46805 0.11549 0.0
C135 C 1.00212 0.35359 0.1298 0.0
O136 O 0.95738 0.45544 0.07936 0.0
O137 O 0.03639 0.47315 0.08842 0.0
O138 O 0.91853 0.42732 0.17626 0.0
O139 O 0.98296 0.46072 0.15435 0.0
Co140 Co 0.08569 0.43823 0.36961 0.0
O141 O 0.12565 0.4928 0.36859 0.0
O142 O 0.15027 0.42567 0.38784 0.0
C143 C 0.05604 0.44427 0.31519 0.0
O144 O 0.05637 0.37382 0.37319 0.0
Co145 Co 0.97287 0.4429 0.36199 0.0
O146 O 0.97698 0.37554 0.35892 0.0
C147 C 0.01901 0.47164 0.4276 0.0
C148 C 0.1607 0.4681 0.38114 0.0
C149 C 0.01548 0.35368 0.36681 0.0
O150 O 0.06025 0.45555 0.41726 0.0
O151 O 0.98127 0.47329 0.40817 0.0
O152 O 0.09912 0.42738 0.32037 0.0
O153 O 0.03469 0.46079 0.34227 0.0
Co154 Co 0.43197 0.5711 0.36959 0.0
O155 O 0.392 0.51653 0.36856 0.0
O156 O 0.36739 0.58367 0.38781 0.0
C157 C 0.46162 0.56506 0.31517 0.0
O158 O 0.46129 0.63551 0.37317 0.0
Co159 Co 0.54478 0.56643 0.36199 0.0
O160 O 0.54068 0.63379 0.35892 0.0
C161 C 0.49865 0.53769 0.42759 0.0
C162 C 0.35695 0.54123 0.38112 0.0
C163 C 0.50218 0.65566 0.3668 0.0
O164 O 0.4574 0.55378 0.41724 0.0
O165 O 0.53639 0.53605 0.40818 0.0
O166 O 0.41854 0.58195 0.32035 0.0
O167 O 0.48297 0.54854 0.34226 0.0
Co168 Co 0.43213 0.43822 0.8696 0.0
O169 O 0.39212 0.49274 0.86856 0.0
O170 O 0.36756 0.42559 0.88782 0.0
C171 C 0.46176 0.44428 0.81518 0.0
O172 O 0.4615 0.37383 0.87319 0.0
Co173 Co 0.54494 0.44299 0.86199 0.0
O174 O 0.54089 0.37562 0.85893 0.0
C175 C 0.4988 0.47169 0.9276 0.0
C176 C 0.35709 0.46801 0.88112 0.0
C177 C 0.5024 0.35372 0.86682 0.0
O178 O 0.45756 0.45557 0.91724 0.0
O179 O 0.53654 0.47336 0.90818 0.0
O180 O 0.4187 0.42734 0.82036 0.0
O181 O 0.48311 0.46082 0.84225 0.0
Co182 Co 0.08572 0.57072 0.86958 0.0
O183 O 0.12574 0.5162 0.86855 0.0
O184 O 0.15029 0.58335 0.88781 0.0
C185 C 0.05609 0.56467 0.81515 0.0
O186 O 0.05634 0.6351 0.87317 0.0
Co187 Co 0.97291 0.56594 0.86194 0.0
O188 O 0.97696 0.63331 0.85888 0.0
C189 C 0.01904 0.53727 0.92756 0.0
C190 C 0.16077 0.54093 0.88111 0.0
C191 C 0.01544 0.6552 0.86679 0.0
O192 O 0.06029 0.55337 0.91722 0.0
O193 O 0.9813 0.53559 0.90814 0.0
O194 O 0.09915 0.58161 0.82034 0.0
O195 O 0.03475 0.54812 0.84222 0.0
Co196 Co 0.93201 0.57102 0.62697 0.0
O197 O 0.89203 0.51646 0.62798 0.0
O198 O 0.86742 0.58361 0.60876 0.0
C199 C 0.96166 0.56492 0.68139 0.0
O200 O 0.96132 0.63543 0.62342 0.0
Co201 Co 0.04482 0.56635 0.6346 0.0
O202 O 0.04073 0.63371 0.63766 0.0
C203 C 0.99867 0.53764 0.56898 0.0
C204 C 0.85698 0.54117 0.61544 0.0
C205 C 1.00222 0.65558 0.62978 0.0
O206 O 0.95743 0.55373 0.57932 0.0
O207 O 0.03641 0.53598 0.5884 0.0
O208 O 0.91859 0.58183 0.67622 0.0
O209 O 0.983 0.54843 0.6543 0.0
Co210 Co 0.58569 0.43825 0.62696 0.0
O211 O 0.62567 0.49281 0.62799 0.0
O212 O 0.65026 0.42567 0.60873 0.0
C213 C 0.55607 0.4443 0.68139 0.0
O214 O 0.55636 0.37384 0.62339 0.0
Co215 Co 0.47288 0.44294 0.63459 0.0
O216 O 0.47697 0.37557 0.63765 0.0
C217 C 0.51899 0.47166 0.56898 0.0
C218 C 0.66071 0.4681 0.61543 0.0
C219 C 0.51547 0.35371 0.62976 0.0
O220 O 0.56024 0.45557 0.57932 0.0
O221 O 0.48125 0.47331 0.5884 0.0
O222 O 0.59914 0.42739 0.6762 0.0
O223 O 0.53471 0.46082 0.65431 0.0
C224 C 0.29866 0.03417 0.11112 0.0
C225 C 0.30681 0.98673 0.11155 0.0
H226 H 0.24627 0.08853 0.11118 0.0
C227 C 0.26634 0.95738 0.11075 0.0
H228 H 0.32901 0.05773 0.11167 0.0
C229 C 0.21889 0.97505 0.11114 0.0
C230 C 0.21074 0.02249 0.11155 0.0
H231 H 0.27128 0.92069 0.11121 0.0
H232 H 0.18853 0.95149 0.1117 0.0
C233 C 0.25121 0.05184 0.11074 0.0
C234 C 0.71894 0.03423 0.38539 0.0
C235 C 0.71078 0.98679 0.38498 0.0
H236 H 0.77135 0.08859 0.38533 0.0
C237 C 0.75124 0.95744 0.38578 0.0
H238 H 0.6886 0.05779 0.38485 0.0
C239 C 0.7987 0.97511 0.38539 0.0
C240 C 0.80685 0.02256 0.38497 0.0
H241 H 0.74629 0.92075 0.38533 0.0
H242 H 0.82904 0.95155 0.38484 0.0
C243 C 0.7664 0.0519 0.38578 0.0
C244 C 0.76635 0.95719 0.88578 0.0
C245 C 0.80686 0.98648 0.88498 0.0
H246 H 0.68853 0.95141 0.88484 0.0
C247 C 0.7988 0.03393 0.88541 0.0
H248 H 0.77123 0.92049 0.88532 0.0
C249 C 0.75138 0.05167 0.88581 0.0
C250 C 0.71086 0.02239 0.88499 0.0
H251 H 0.82919 0.05745 0.88487 0.0
H252 H 0.7465 0.08837 0.88537 0.0
C253 C 0.71893 0.97493 0.8854 0.0
C254 C 0.25127 0.95741 0.61082 0.0
C255 C 0.21081 0.98674 0.61163 0.0
H256 H 0.32908 0.95155 0.61175 0.0
C257 C 0.21895 0.03419 0.61123 0.0
H258 H 0.24633 0.92072 0.61126 0.0
C259 C 0.2664 0.05187 0.61084 0.0
C260 C 0.30686 0.02254 0.61163 0.0
H261 H 0.18859 0.05774 0.61178 0.0
H262 H 0.27134 0.08857 0.61129 0.0
C263 C 0.29872 0.9751 0.6112 0.0
C264 C 0.76635 0.45741 0.11083 0.0
C265 C 0.80685 0.48671 0.11163 0.0
H266 H 0.68854 0.45161 0.11177 0.0
C267 C 0.79876 0.53417 0.11122 0.0
H268 H 0.77124 0.42072 0.11127 0.0
C269 C 0.75134 0.55189 0.11084 0.0
C270 C 0.71083 0.52259 0.11164 0.0
H271 H 0.82915 0.5577 0.11177 0.0
H272 H 0.74644 0.58858 0.11129 0.0
C273 C 0.71892 0.47513 0.11122 0.0
C274 C 0.29873 0.47514 0.38541 0.0
C275 C 0.30685 0.52259 0.38499 0.0
H276 H 0.24636 0.42074 0.38536 0.0
C277 C 0.26637 0.5519 0.3858 0.0
H278 H 0.32909 0.4516 0.38486 0.0
C279 C 0.21893 0.5342 0.38542 0.0
C280 C 0.21081 0.48675 0.38501 0.0
H281 H 0.2713 0.5886 0.38535 0.0
H282 H 0.18857 0.55774 0.38488 0.0
C283 C 0.25129 0.45743 0.38581 0.0
C284 C 0.21906 0.47489 0.8854 0.0
C285 C 0.21089 0.52234 0.88498 0.0
H286 H 0.27147 0.42056 0.88534 0.0
C287 C 0.25134 0.5517 0.88578 0.0
H288 H 0.18871 0.45132 0.88485 0.0
C289 C 0.2988 0.53405 0.8854 0.0
C290 C 0.30697 0.48661 0.88498 0.0
H291 H 0.24639 0.58838 0.88533 0.0
H292 H 0.32914 0.55762 0.88484 0.0
C293 C 0.26651 0.45725 0.88579 0.0
C294 C 0.75128 0.45741 0.61075 0.0
C295 C 0.71082 0.48674 0.61155 0.0
H296 H 0.82909 0.45154 0.61168 0.0
C297 C 0.71896 0.53418 0.61114 0.0
H298 H 0.74635 0.42071 0.61119 0.0
C299 C 0.7664 0.55187 0.61076 0.0
C300 C 0.80687 0.52254 0.61156 0.0
H301 H 0.6886 0.55773 0.6117 0.0
H302 H 0.77134 0.58856 0.61121 0.0
C303 C 0.79873 0.47509 0.61114 0.0
C304 C 0.95801 0.067 0.25034 0.0
C305 C 0.98572 0.06638 0.28095 0.0
H306 H 0.95865 0.06599 0.1947 0.0
C307 C 0.03671 0.06632 0.27862 0.0
H308 H 0.91865 0.06694 0.25147 0.0
C309 C 0.05961 0.067 0.24619 0.0
C310 C 0.03189 0.06636 0.21557 0.0
H311 H 0.05897 0.06602 0.30183 0.0
H312 H 0.09897 0.06694 0.24506 0.0
C313 C 0.98091 0.0663 0.21791 0.0
C314 C 0.45797 0.94231 0.24621 0.0
C315 C 0.48567 0.94293 0.2156 0.0
H316 H 0.45864 0.94331 0.30185 0.0
C317 C 0.53666 0.94298 0.21792 0.0
H318 H 0.41861 0.94237 0.24509 0.0
C319 C 0.55957 0.9423 0.25036 0.0
C320 C 0.53187 0.94294 0.28097 0.0
H321 H 0.55891 0.94328 0.19471 0.0
H322 H 0.59893 0.94236 0.25148 0.0
C323 C 0.48089 0.943 0.27864 0.0
C324 C 0.98093 0.94279 0.71794 0.0
C325 C 0.03191 0.94272 0.71562 0.0
H326 H 0.91865 0.94211 0.75148 0.0
C327 C 0.05961 0.94198 0.74624 0.0
H328 H 0.95868 0.94318 0.69472 0.0
C329 C 0.0367 0.94258 0.77867 0.0
C330 C 0.98571 0.94256 0.78098 0.0
H331 H 0.09897 0.94202 0.74512 0.0
H332 H 0.05894 0.94281 0.80188 0.0
C333 C 0.95801 0.94203 0.75036 0.0
C334 C 0.53678 0.06635 0.71793 0.0
C335 C 0.4858 0.06644 0.71562 0.0
H336 H 0.59907 0.06695 0.75148 0.0
C337 C 0.45811 0.06711 0.74623 0.0
H338 H 0.55902 0.06602 0.69472 0.0
C339 C 0.48103 0.06643 0.77866 0.0
C340 C 0.53202 0.06644 0.78098 0.0
H341 H 0.41875 0.06708 0.74512 0.0
H342 H 0.4588 0.06615 0.80188 0.0
C343 C 0.55971 0.06704 0.75036 0.0
C344 C 0.48095 0.56648 0.21793 0.0
C345 C 0.53194 0.56655 0.21562 0.0
H346 H 0.41867 0.56708 0.25147 0.0
C347 C 0.55963 0.5672 0.24624 0.0
H348 H 0.45871 0.56616 0.19471 0.0
C349 C 0.53671 0.56651 0.27867 0.0
C350 C 0.48572 0.56654 0.28098 0.0
H351 H 0.59899 0.56715 0.24513 0.0
H352 H 0.55895 0.56621 0.30188 0.0
C353 C 0.45803 0.56716 0.25036 0.0
C354 C 0.05963 0.44215 0.25038 0.0
C355 C 0.03193 0.44279 0.281 0.0
H356 H 0.05895 0.44311 0.19474 0.0
C357 C 0.98095 0.44283 0.27867 0.0
H358 H 0.09899 0.44221 0.2515 0.0
C359 C 0.95802 0.44213 0.24624 0.0
C360 C 0.98572 0.44276 0.21563 0.0
H361 H 0.9587 0.44314 0.30189 0.0
H362 H 0.91867 0.44218 0.24513 0.0
C363 C 0.03671 0.44281 0.21795 0.0
C364 C 0.55972 0.44223 0.7462 0.0
C365 C 0.532 0.44283 0.71559 0.0
H366 H 0.55909 0.44324 0.80185 0.0
C367 C 0.48101 0.44285 0.71793 0.0
H368 H 0.59908 0.44232 0.74507 0.0
C369 C 0.45812 0.44216 0.75037 0.0
C370 C 0.48584 0.44282 0.78098 0.0
H371 H 0.45875 0.44313 0.69472 0.0
H372 H 0.41876 0.44219 0.7515 0.0
C373 C 0.53683 0.44291 0.77864 0.0
C374 C 0.98098 0.56603 0.77864 0.0
C375 C 0.03197 0.56619 0.78096 0.0
H376 H 0.9187 0.56663 0.74509 0.0
C377 C 0.05967 0.567 0.75034 0.0
H378 H 0.95874 0.56558 0.80185 0.0
C379 C 0.03675 0.56639 0.71791 0.0
C380 C 0.98576 0.56633 0.71559 0.0
H381 H 0.09902 0.56703 0.75146 0.0
H382 H 0.05899 0.56623 0.6947 0.0
C383 C 0.95806 0.56678 0.74621 0.0
C384 C 0.05433 0.23323 0.12767 0.0
C385 C 0.01221 0.20615 0.1281 0.0
H386 H 0.08423 0.30066 0.128 0.0
C387 C 0.96656 0.22808 0.12788 0.0
H388 H 0.09003 0.21762 0.12784 0.0
C389 C 0.96313 0.2758 0.12771 0.0
C390 C 1.00526 0.30288 0.12814 0.0
H391 H 0.93323 0.20837 0.128 0.0
H392 H 0.92744 0.29141 0.12791 0.0
C393 C 0.05091 0.28095 0.12788 0.0
C394 C 0.46326 0.77599 0.12768 0.0
C395 C 0.50537 0.80309 0.12813 0.0
H396 H 0.43338 0.70856 0.12797 0.0
C397 C 0.55103 0.78118 0.12791 0.0
H398 H 0.42755 0.79159 0.12786 0.0
C399 C 0.55447 0.73346 0.12772 0.0
C400 C 0.51235 0.70636 0.12812 0.0
H401 H 0.58435 0.80089 0.12805 0.0
H402 H 0.59018 0.71786 0.12792 0.0
C403 C 0.4667 0.72828 0.12787 0.0
C404 C 0.55096 0.72831 0.3687 0.0
C405 C 0.50532 0.70636 0.36845 0.0
H406 H 0.59007 0.79166 0.36871 0.0
C407 C 0.46318 0.73343 0.36885 0.0
H408 H 0.58429 0.70862 0.3686 0.0
C409 C 0.4666 0.78115 0.36865 0.0
C410 C 0.51225 0.8031 0.36843 0.0
H411 H 0.42749 0.7178 0.36865 0.0
H412 H 0.43327 0.80084 0.36852 0.0
C413 C 0.55438 0.77603 0.36888 0.0
C414 C 0.05447 0.2759 0.36886 0.0
C415 C 0.01234 0.30297 0.36845 0.0
H416 H 0.08438 0.20849 0.36852 0.0
C417 C 0.9667 0.28102 0.3687 0.0
H418 H 0.09017 0.29153 0.36866 0.0
C419 C 0.96327 0.2333 0.36888 0.0
C420 C 1.0054 0.20623 0.36843 0.0
H421 H 0.93337 0.30072 0.3686 0.0
H422 H 0.92758 0.21768 0.3687 0.0
C423 C 0.05105 0.22818 0.36866 0.0
C424 C 0.05438 0.73301 0.86894 0.0
C425 C 0.01226 0.70591 0.86844 0.0
H426 H 0.08426 0.80044 0.8687 0.0
C427 C 0.9666 0.72783 0.86862 0.0
H428 H 0.09008 0.71741 0.8688 0.0
C429 C 0.96316 0.77555 0.86882 0.0
C430 C 1.00528 0.80264 0.86846 0.0
H431 H 0.93329 0.70811 0.86845 0.0
H432 H 0.92746 0.79115 0.86858 0.0
C433 C 0.05094 0.78072 0.86876 0.0
C434 C 0.55122 0.28109 0.86867 0.0
C435 C 0.50557 0.30302 0.86847 0.0
H436 H 0.59034 0.21776 0.86863 0.0
C437 C 0.46344 0.27593 0.86894 0.0
H438 H 0.58454 0.3008 0.86852 0.0
C439 C 0.46686 0.22822 0.86874 0.0
C440 C 0.51251 0.20628 0.86847 0.0
H441 H 0.42774 0.29154 0.86878 0.0
H442 H 0.43354 0.20851 0.86866 0.0
C443 C 0.55464 0.23337 0.86886 0.0
C444 C 0.55103 0.22821 0.6279 0.0
C445 C 0.50539 0.20627 0.62814 0.0
H446 H 0.59015 0.29156 0.62789 0.0
C447 C 0.46326 0.23333 0.6277 0.0
H448 H 0.58436 0.20852 0.62802 0.0
C449 C 0.46668 0.28105 0.62789 0.0
C450 C 0.51232 0.303 0.62812 0.0
H451 H 0.42756 0.21771 0.62789 0.0
H452 H 0.43335 0.30075 0.628 0.0
C453 C 0.55445 0.27593 0.6277 0.0
C454 C 0.96664 0.78107 0.62792 0.0
C455 C 0.01229 0.80302 0.62812 0.0
H456 H 0.92753 0.71772 0.62795 0.0
C457 C 0.05442 0.77595 0.62766 0.0
H458 H 0.93331 0.80076 0.62806 0.0
C459 C 0.051 0.72823 0.62786 0.0
C460 C 1.00536 0.70628 0.62813 0.0
H461 H 0.09011 0.79158 0.62783 0.0
H462 H 0.08433 0.70854 0.62795 0.0
C463 C 0.96322 0.73335 0.62773 0.0
C464 C 0.04854 0.00514 0.97581 0.0
C465 C 1.00356 0.98829 0.96378 0.0
H466 H 0.08881 0.03369 0.01819 0.0
C467 C 0.96386 0.98773 0.9867 0.0
H468 H 0.08004 0.0061 0.95894 0.0
C469 C 0.969 1.00359 0.02077 0.0
C470 C 0.01398 0.02044 0.0328 0.0
H471 H 0.92873 0.97505 0.97839 0.0
H472 H 0.93749 1.00263 0.03764 0.0
C473 C 0.05368 0.021 0.00988 0.0
C474 C 0.46912 1.00386 0.97579 0.0
C475 C 0.51411 0.02069 0.96377 0.0
H476 H 0.42881 0.97539 0.01817 0.0
C477 C 0.55378 0.0213 0.98671 0.0
H478 H 0.43763 1.00287 0.95889 0.0
C479 C 0.54861 0.0055 0.0208 0.0
C480 C 0.50362 0.98867 0.03281 0.0
H481 H 0.58892 0.03397 0.97842 0.0
H482 H 0.5801 0.0065 0.03769 0.0
C483 C 0.46394 0.98807 0.00987 0.0
C484 C 0.46391 0.02129 0.50989 0.0
C485 C 0.5036 0.02068 0.53282 0.0
H486 H 0.43755 0.0065 0.45892 0.0
C487 C 0.54858 1.00385 0.52079 0.0
H488 H 0.42879 0.03397 0.5182 0.0
C489 C 0.55372 0.98805 0.4867 0.0
C490 C 0.51402 0.98866 0.46377 0.0
H491 H 0.58007 1.00285 0.53767 0.0
H492 H 0.58884 0.97538 0.47839 0.0
C493 C 0.46905 0.0055 0.47581 0.0
C494 C 0.96908 0.00548 0.52078 0.0
C495 C 0.01405 0.98865 0.53282 0.0
H496 H 0.92881 0.03395 0.47838 0.0
C497 C 0.05375 0.98805 0.5099 0.0
H498 H 0.93758 0.00647 0.53766 0.0
C499 C 0.04861 1.00385 0.47581 0.0
C500 C 1.00363 0.02068 0.46377 0.0
H501 H 0.08887 0.97538 0.51821 0.0
H502 H 0.0801 1.00286 0.45894 0.0
C503 C 0.96393 0.02128 0.4867 0.0
C504 C 0.46917 0.50388 0.02077 0.0
C505 C 0.51414 0.52074 0.03281 0.0
H506 H 0.42892 0.47536 0.97838 0.0
C507 C 0.55384 0.52134 0.00989 0.0
H508 H 0.43767 0.50288 0.03765 0.0
C509 C 0.54871 0.50552 0.97581 0.0
C510 C 0.50374 0.48866 0.96378 0.0
H511 H 0.58896 0.53404 0.01821 0.0
H512 H 0.58021 0.50652 0.95894 0.0
C513 C 0.46404 0.48805 0.98669 0.0
C514 C 0.96393 0.48775 0.00987 0.0
C515 C 1.00361 0.4884 0.03281 0.0
H516 H 0.93761 0.50249 0.95888 0.0
C517 C 0.0486 0.50522 0.02078 0.0
H518 H 0.9288 0.47508 0.01818 0.0
C519 C 0.05376 0.52098 0.98669 0.0
C520 C 0.01408 0.52035 0.96375 0.0
H521 H 0.08008 0.50625 0.03768 0.0
H522 H 0.08889 0.53366 0.97839 0.0
C523 C 0.9691 0.50351 0.97578 0.0
C524 C 0.96393 0.52128 0.50987 0.0
C525 C 1.00362 0.52068 0.5328 0.0
H526 H 0.93759 0.50644 0.4589 0.0
C527 C 0.0486 0.50384 0.52078 0.0
H528 H 0.92881 0.53396 0.51817 0.0
C529 C 0.05375 0.48801 0.48671 0.0
C530 C 0.01406 0.4886 0.46378 0.0
H531 H 0.08009 0.50285 0.53767 0.0
H532 H 0.08887 0.47533 0.47841 0.0
C533 C 0.96908 0.50545 0.47579 0.0
C534 C 0.46905 0.50547 0.52077 0.0
C535 C 0.51403 0.48863 0.5328 0.0
H536 H 0.42878 0.53398 0.47839 0.0
C537 C 0.55373 0.48806 0.50987 0.0
H538 H 0.43756 0.50644 0.53765 0.0
C539 C 0.54858 0.50389 0.4758 0.0
C540 C 0.5036 0.52073 0.46377 0.0
H541 H 0.58885 0.47538 0.51818 0.0
H542 H 0.58007 0.50291 0.45892 0.0
C543 C 0.46391 0.5213 0.4867 0.0
loop_
_geom_bond_atom_site_label_1
_geom_bond_atom_site_label_2
_geom_bond_distance
_geom_bond_site_symmetry_2
_ccdc_geom_bond_type
Co0 O1 2.216 . S
Co0 O2 2.091 . S
Co0 O4 2.004 . S
Co0 O10 2.021 . S
Co0 O12 2.137 . S
Co0 O13 2.244 . S
O1 Co0 2.216 . S
O1 C8 1.247 . S
O2 Co0 2.091 . S
O2 C8 1.261 . S
C3 O12 1.247 . S
C3 O13 1.272 . S
O4 Co0 2.004 . S
O4 C9 1.259 . S
Co5 O6 2.061 . S
Co5 O11 2.052 . S
Co5 O13 2.135 1_655 S
O6 Co5 2.061 . S
O6 C9 1.235 1_655 S
C7 O10 1.238 . S
C7 O11 1.241 1_455 S
C8 O1 1.247 . S
C8 O2 1.261 . S
C9 O4 1.259 . S
C9 O6 1.235 1_455 S
O10 Co0 2.021 . S
O10 C7 1.238 . S
O11 Co5 2.052 . S
O11 C7 1.241 1_655 S
O12 Co0 2.137 . S
O12 C3 1.247 . S
O13 Co0 2.244 . S
O13 C3 1.272 . S
O13 Co5 2.135 1_455 S
Co14 O15 2.216 . S
Co14 O16 2.091 . S
Co14 O18 2.004 . S
Co14 O24 2.021 . S
Co14 O26 2.137 . S
Co14 O27 2.244 . S
O15 Co14 2.216 . S
O15 C22 1.247 . S
O16 Co14 2.091 . S
O16 C22 1.261 . S
C17 O26 1.247 . S
C17 O27 1.272 . S
O18 Co14 2.004 . S
O18 C23 1.259 . S
Co19 O20 2.061 . S
Co19 O25 2.052 . S
Co19 O27 2.135 . S
O20 Co19 2.061 . S
O20 C23 1.235 . S
C21 O24 1.238 . S
C21 O25 1.241 . S
C22 O15 1.247 . S
C22 O16 1.261 . S
C23 O18 1.259 . S
C23 O20 1.235 . S
O24 Co14 2.021 . S
O24 C21 1.238 . S
O25 Co19 2.052 . S
O25 C21 1.241 . S
O26 Co14 2.137 . S
O26 C17 1.247 . S
O27 Co14 2.244 . S
O27 C17 1.272 . S
O27 Co19 2.135 . S
Co28 O29 2.216 . S
Co28 O30 2.091 . S
Co28 O32 2.004 . S
Co28 O38 2.021 . S
Co28 O40 2.137 . S
Co28 O41 2.244 . S
O29 Co28 2.216 . S
O29 C36 1.247 . S
O30 Co28 2.091 . S
O30 C36 1.261 . S
C31 O40 1.247 . S
C31 O41 1.272 . S
O32 Co28 2.004 . S
O32 C37 1.259 . S
Co33 O34 2.061 . S
Co33 O39 2.052 . S
Co33 O41 2.135 . S
O34 Co33 2.061 . S
O34 C37 1.235 . S
C35 O38 1.238 . S
C35 O39 1.241 . S
C36 O29 1.247 . S
C36 O30 1.261 . S
C37 O32 1.259 . S
C37 O34 1.235 . S
O38 Co28 2.021 . S
O38 C35 1.238 . S
O39 Co33 2.052 . S
O39 C35 1.241 . S
O40 Co28 2.137 . S
O40 C31 1.247 . S
O41 Co28 2.244 . S
O41 C31 1.272 . S
O41 Co33 2.135 . S
Co42 O43 2.216 . S
Co42 O44 2.091 . S
Co42 O46 2.004 . S
Co42 O52 2.021 . S
Co42 O54 2.137 . S
Co42 O55 2.244 . S
O43 Co42 2.216 . S
O43 C50 1.247 . S
O44 Co42 2.091 . S
O44 C50 1.261 . S
C45 O54 1.247 . S
C45 O55 1.272 . S
O46 Co42 2.004 . S
O46 C51 1.259 . S
Co47 O48 2.061 . S
Co47 O53 2.052 . S
Co47 O55 2.135 1_455 S
O48 Co47 2.061 . S
O48 C51 1.235 1_455 S
C49 O52 1.238 . S
C49 O53 1.241 1_655 S
C50 O43 1.247 . S
C50 O44 1.261 . S
C51 O46 1.259 . S
C51 O48 1.235 1_655 S
O52 Co42 2.021 . S
O52 C49 1.238 . S
O53 Co47 2.052 . S
O53 C49 1.241 1_455 S
O54 Co42 2.137 . S
O54 C45 1.247 . S
O55 Co42 2.244 . S
O55 C45 1.272 . S
O55 Co47 2.135 1_655 S
Co56 O57 2.216 . S
Co56 O58 2.091 . S
Co56 O60 2.004 . S
Co56 O66 2.021 . S
Co56 O68 2.137 . S
Co56 O69 2.244 . S
O57 Co56 2.216 . S
O57 C64 1.247 . S
O58 Co56 2.091 . S
O58 C64 1.261 . S
C59 O68 1.247 . S
C59 O69 1.272 . S
O60 Co56 2.004 . S
O60 C65 1.259 . S
Co61 O62 2.061 . S
Co61 O67 2.052 . S
Co61 O69 2.135 1_455 S
O62 Co61 2.061 . S
O62 C65 1.235 1_455 S
C63 O66 1.238 . S
C63 O67 1.241 1_655 S
C64 O57 1.247 . S
C64 O58 1.261 . S
C65 O60 1.259 . S
C65 O62 1.235 1_655 S
O66 Co56 2.021 . S
O66 C63 1.238 . S
O67 Co61 2.052 . S
O67 C63 1.241 1_455 S
O68 Co56 2.137 . S
O68 C59 1.247 . S
O69 Co56 2.244 . S
O69 C59 1.272 . S
O69 Co61 2.135 1_655 S
Co70 O71 2.216 . S
Co70 O72 2.091 . S
Co70 O74 2.004 . S
Co70 O80 2.021 . S
Co70 O82 2.137 . S
Co70 O83 2.244 . S
O71 Co70 2.216 . S
O71 C78 1.247 . S
O72 Co70 2.091 . S
O72 C78 1.261 . S
C73 O82 1.247 . S
C73 O83 1.272 . S
O74 Co70 2.004 . S
O74 C79 1.259 . S
Co75 O76 2.061 . S
Co75 O81 2.052 . S
Co75 O83 2.135 . S
O76 Co75 2.061 . S
O76 C79 1.235 . S
C77 O80 1.238 . S
C77 O81 1.241 . S
C78 O71 1.247 . S
C78 O72 1.261 . S
C79 O74 1.259 . S
C79 O76 1.235 . S
O80 Co70 2.021 . S
O80 C77 1.238 . S
O81 Co75 2.052 . S
O81 C77 1.241 . S
O82 Co70 2.137 . S
O82 C73 1.247 . S
O83 Co70 2.244 . S
O83 C73 1.272 . S
O83 Co75 2.135 . S
Co84 O85 2.216 . S
Co84 O86 2.091 . S
Co84 O88 2.004 . S
Co84 O94 2.021 . S
Co84 O96 2.137 . S
Co84 O97 2.244 . S
O85 Co84 2.216 . S
O85 C92 1.247 . S
O86 Co84 2.091 . S
O86 C92 1.261 . S
C87 O96 1.247 . S
C87 O97 1.272 . S
O88 Co84 2.004 . S
O88 C93 1.259 . S
Co89 O90 2.061 . S
Co89 O95 2.052 . S
Co89 O97 2.135 . S
O90 Co89 2.061 . S
O90 C93 1.235 . S
C91 O94 1.238 . S
C91 O95 1.241 . S
C92 O85 1.247 . S
C92 O86 1.261 . S
C93 O88 1.259 . S
C93 O90 1.235 . S
O94 Co84 2.021 . S
O94 C91 1.238 . S
O95 Co89 2.052 . S
O95 C91 1.241 . S
O96 Co84 2.137 . S
O96 C87 1.247 . S
O97 Co84 2.244 . S
O97 C87 1.272 . S
O97 Co89 2.135 . S
Co98 O99 2.216 . S
Co98 O100 2.091 . S
Co98 O102 2.004 . S
Co98 O108 2.021 . S
Co98 O110 2.137 . S
Co98 O111 2.244 . S
O99 Co98 2.216 . S
O99 C106 1.247 . S
O100 Co98 2.091 . S
O100 C106 1.261 . S
C101 O110 1.247 . S
C101 O111 1.272 . S
O102 Co98 2.004 . S
O102 C107 1.259 . S
Co103 O104 2.061 . S
Co103 O109 2.052 . S
Co103 O111 2.135 1_655 S
O104 Co103 2.061 . S
O104 C107 1.235 1_655 S
C105 O108 1.238 . S
C105 O109 1.241 1_455 S
C106 O99 1.247 . S
C106 O100 1.261 . S
C107 O102 1.259 . S
C107 O104 1.235 1_455 S
O108 Co98 2.021 . S
O108 C105 1.238 . S
O109 Co103 2.052 . S
O109 C105 1.241 1_655 S
O110 Co98 2.137 . S
O110 C101 1.247 . S
O111 Co98 2.244 . S
O111 C101 1.272 . S
O111 Co103 2.135 1_455 S
Co112 O113 2.216 . S
Co112 O114 2.091 . S
Co112 O116 2.004 . S
Co112 O122 2.021 . S
Co112 O124 2.137 . S
Co112 O125 2.244 . S
O113 Co112 2.216 . S
O113 C120 1.247 . S
O114 Co112 2.091 . S
O114 C120 1.261 . S
C115 O124 1.247 . S
C115 O125 1.272 . S
O116 Co112 2.004 . S
O116 C121 1.259 . S
Co117 O118 2.061 . S
Co117 O123 2.052 . S
Co117 O125 2.135 . S
O118 Co117 2.061 . S
O118 C121 1.235 . S
C119 O122 1.238 . S
C119 O123 1.241 . S
C120 O113 1.247 . S
C120 O114 1.261 . S
C121 O116 1.259 . S
C121 O118 1.235 . S
O122 Co112 2.021 . S
O122 C119 1.238 . S
O123 Co117 2.052 . S
O123 C119 1.241 . S
O124 Co112 2.137 . S
O124 C115 1.247 . S
O125 Co112 2.244 . S
O125 C115 1.272 . S
O125 Co117 2.135 . S
Co126 O127 2.216 . S
Co126 O128 2.091 . S
Co126 O130 2.004 . S
Co126 O136 2.021 . S
Co126 O138 2.137 . S
Co126 O139 2.244 . S
O127 Co126 2.216 . S
O127 C134 1.247 . S
O128 Co126 2.091 . S
O128 C134 1.261 . S
C129 O138 1.247 . S
C129 O139 1.272 . S
O130 Co126 2.004 . S
O130 C135 1.259 . S
Co131 O132 2.061 . S
Co131 O137 2.052 . S
Co131 O139 2.135 1_455 S
O132 Co131 2.061 . S
O132 C135 1.235 1_455 S
C133 O136 1.238 . S
C133 O137 1.241 1_655 S
C134 O127 1.247 . S
C134 O128 1.261 . S
C135 O130 1.259 . S
C135 O132 1.235 1_655 S
O136 Co126 2.021 . S
O136 C133 1.238 . S
O137 Co131 2.052 . S
O137 C133 1.241 1_455 S
O138 Co126 2.137 . S
O138 C129 1.247 . S
O139 Co126 2.244 . S
O139 C129 1.272 . S
O139 Co131 2.135 1_655 S
Co140 O141 2.216 . S
Co140 O142 2.091 . S
Co140 O144 2.004 . S
Co140 O150 2.021 . S
Co140 O152 2.137 . S
Co140 O153 2.244 . S
O141 Co140 2.216 . S
O141 C148 1.247 . S
O142 Co140 2.091 . S
O142 C148 1.261 . S
C143 O152 1.247 . S
C143 O153 1.272 . S
O144 Co140 2.004 . S
O144 C149 1.259 . S
Co145 O146 2.061 . S
Co145 O151 2.052 . S
Co145 O153 2.135 1_655 S
O146 Co145 2.061 . S
O146 C149 1.235 1_655 S
C147 O150 1.238 . S
C147 O151 1.241 1_455 S
C148 O141 1.247 . S
C148 O142 1.261 . S
C149 O144 1.259 . S
C149 O146 1.235 1_455 S
O150 Co140 2.021 . S
O150 C147 1.238 . S
O151 Co145 2.052 . S
O151 C147 1.241 1_655 S
O152 Co140 2.137 . S
O152 C143 1.247 . S
O153 Co140 2.244 . S
O153 C143 1.272 . S
O153 Co145 2.135 1_455 S
Co154 O155 2.216 . S
Co154 O156 2.091 . S
Co154 O158 2.004 . S
Co154 O164 2.021 . S
Co154 O166 2.137 . S
Co154 O167 2.244 . S
O155 Co154 2.216 . S
O155 C162 1.247 . S
O156 Co154 2.091 . S
O156 C162 1.261 . S
C157 O166 1.247 . S
C157 O167 1.272 . S
O158 Co154 2.004 . S
O158 C163 1.259 . S
Co159 O160 2.061 . S
Co159 O165 2.052 . S
Co159 O167 2.135 . S
O160 Co159 2.061 . S
O160 C163 1.235 . S
C161 O164 1.238 . S
C161 O165 1.241 . S
C162 O155 1.247 . S
C162 O156 1.261 . S
C163 O158 1.259 . S
C163 O160 1.235 . S
O164 Co154 2.021 . S
O164 C161 1.238 . S
O165 Co159 2.052 . S
O165 C161 1.241 . S
O166 Co154 2.137 . S
O166 C157 1.247 . S
O167 Co154 2.244 . S
O167 C157 1.272 . S
O167 Co159 2.135 . S
Co168 O169 2.216 . S
Co168 O170 2.091 . S
Co168 O172 2.004 . S
Co168 O178 2.021 . S
Co168 O180 2.137 . S
Co168 O181 2.244 . S
O169 Co168 2.216 . S
O169 C176 1.247 . S
O170 Co168 2.091 . S
O170 C176 1.261 . S
C171 O180 1.247 . S
C171 O181 1.272 . S
O172 Co168 2.004 . S
O172 C177 1.259 . S
Co173 O174 2.061 . S
Co173 O179 2.052 . S
Co173 O181 2.135 . S
O174 Co173 2.061 . S
O174 C177 1.235 . S
C175 O178 1.238 . S
C175 O179 1.241 . S
C176 O169 1.247 . S
C176 O170 1.261 . S
C177 O172 1.259 . S
C177 O174 1.235 . S
O178 Co168 2.021 . S
O178 C175 1.238 . S
O179 Co173 2.052 . S
O179 C175 1.241 . S
O180 Co168 2.137 . S
O180 C171 1.247 . S
O181 Co168 2.244 . S
O181 C171 1.272 . S
O181 Co173 2.135 . S
Co182 O183 2.216 . S
Co182 O184 2.091 . S
Co182 O186 2.004 . S
Co182 O192 2.021 . S
Co182 O194 2.137 . S
Co182 O195 2.244 . S
O183 Co182 2.216 . S
O183 C190 1.247 . S
O184 Co182 2.091 . S
O184 C190 1.261 . S
C185 O194 1.247 . S
C185 O195 1.272 . S
O186 Co182 2.004 . S
O186 C191 1.259 . S
Co187 O188 2.061 . S
Co187 O193 2.052 . S
Co187 O195 2.135 1_655 S
O188 Co187 2.061 . S
O188 C191 1.235 1_655 S
C189 O192 1.238 . S
C189 O193 1.241 1_455 S
C190 O183 1.247 . S
C190 O184 1.261 . S
C191 O186 1.259 . S
C191 O188 1.235 1_455 S
O192 Co182 2.021 . S
O192 C189 1.238 . S
O193 Co187 2.052 . S
O193 C189 1.241 1_655 S
O194 Co182 2.137 . S
O194 C185 1.247 . S
O195 Co182 2.244 . S
O195 C185 1.272 . S
O195 Co187 2.135 1_455 S
Co196 O197 2.216 . S
Co196 O198 2.091 . S
Co196 O200 2.004 . S
Co196 O206 2.021 . S
Co196 O208 2.137 . S
Co196 O209 2.244 . S
O197 Co196 2.216 . S
O197 C204 1.247 . S
O198 Co196 2.091 . S
O198 C204 1.261 . S
C199 O208 1.247 . S
C199 O209 1.272 . S
O200 Co196 2.004 . S
O200 C205 1.259 . S
Co201 O202 2.061 . S
Co201 O207 2.052 . S
Co201 O209 2.135 1_455 S
O202 Co201 2.061 . S
O202 C205 1.235 1_455 S
C203 O206 1.238 . S
C203 O207 1.241 1_655 S
C204 O197 1.247 . S
C204 O198 1.261 . S
C205 O200 1.259 . S
C205 O202 1.235 1_655 S
O206 Co196 2.021 . S
O206 C203 1.238 . S
O207 Co201 2.052 . S
O207 C203 1.241 1_455 S
O208 Co196 2.137 . S
O208 C199 1.247 . S
O209 Co196 2.244 . S
O209 C199 1.272 . S
O209 Co201 2.135 1_655 S
Co210 O211 2.216 . S
Co210 O212 2.091 . S
Co210 O214 2.004 . S
Co210 O220 2.021 . S
Co210 O222 2.137 . S
Co210 O223 2.244 . S
O211 Co210 2.216 . S
O211 C218 1.247 . S
O212 Co210 2.091 . S
O212 C218 1.261 . S
C213 O222 1.247 . S
C213 O223 1.272 . S
O214 Co210 2.004 . S
O214 C219 1.259 . S
Co215 O216 2.061 . S
Co215 O221 2.052 . S
Co215 O223 2.135 . S
O216 Co215 2.061 . S
O216 C219 1.235 . S
C217 O220 1.238 . S
C217 O221 1.241 . S
C218 O211 1.247 . S
C218 O212 1.261 . S
C219 O214 1.259 . S
C219 O216 1.235 . S
O220 Co210 2.021 . S
O220 C217 1.238 . S
O221 Co215 2.052 . S
O221 C217 1.241 . S
O222 Co210 2.137 . S
O222 C213 1.247 . S
O223 Co210 2.244 . S
O223 C213 1.272 . S
O223 Co215 2.135 . S
C224 C225 1.387 . S
C224 H228 0.950 . S
C224 C233 1.390 1_565 S
C225 C224 1.387 . S
C225 C227 1.387 . S
H226 C233 0.950 . S
C227 C225 1.387 . S
C227 C229 1.390 1_565 S
C227 H231 0.950 . S
H228 C224 0.950 . S
C229 C227 1.390 1_545 S
C229 C230 1.387 . S
C229 H232 0.950 . S
C230 C229 1.387 . S
C230 C233 1.387 . S
H231 C227 0.950 . S
H232 C229 0.950 . S
C233 C224 1.390 1_545 S
C233 H226 0.950 . S
C233 C230 1.387 . S
C234 C235 1.387 . S
C234 H238 0.950 . S
C234 C243 1.390 1_565 S
C235 C234 1.387 . S
C235 C237 1.387 . S
H236 C243 0.950 . S
C237 C235 1.387 . S
C237 C239 1.390 1_565 S
C237 H241 0.950 . S
H238 C234 0.950 . S
C239 C237 1.390 1_545 S
C239 C240 1.387 . S
C239 H242 0.950 . S
C240 C239 1.387 . S
C240 C243 1.387 . S
H241 C237 0.950 . S
H242 C239 0.950 . S
C243 C234 1.390 1_545 S
C243 H236 0.950 . S
C243 C240 1.387 . S
C244 C245 1.387 . S
C244 H248 0.950 . S
C244 C253 1.390 1_565 S
C245 C244 1.387 . S
C245 C247 1.387 . S
H246 C253 0.950 . S
C247 C245 1.387 . S
C247 C249 1.390 1_565 S
C247 H251 0.950 . S
H248 C244 0.950 . S
C249 C247 1.390 1_545 S
C249 C250 1.387 . S
C249 H252 0.950 . S
C250 C249 1.387 . S
C250 C253 1.387 . S
H251 C247 0.950 . S
H252 C249 0.950 . S
C253 C244 1.390 1_545 S
C253 H246 0.950 . S
C253 C250 1.387 . S
C254 C255 1.387 . S
C254 H258 0.950 . S
C254 C263 1.390 1_565 S
C255 C254 1.387 . S
C255 C257 1.387 . S
H256 C263 0.950 . S
C257 C255 1.387 . S
C257 C259 1.390 1_565 S
C257 H261 0.950 . S
H258 C254 0.950 . S
C259 C257 1.390 1_545 S
C259 C260 1.387 . S
C259 H262 0.950 . S
C260 C259 1.387 . S
C260 C263 1.387 . S
H261 C257 0.950 . S
H262 C259 0.950 . S
C263 C254 1.390 1_545 S
C263 H256 0.950 . S
C263 C260 1.387 . S
C264 C265 1.387 . S
C264 H268 0.950 . S
C264 C273 1.390 . S
C265 C264 1.387 . S
C265 C267 1.387 . S
H266 C273 0.950 . S
C267 C265 1.387 . S
C267 C269 1.390 . S
C267 H271 0.950 . S
H268 C264 0.950 . S
C269 C267 1.390 . S
C269 C270 1.387 . S
C269 H272 0.950 . S
C270 C269 1.387 . S
C270 C273 1.387 . S
H271 C267 0.950 . S
H272 C269 0.950 . S
C273 C264 1.390 . S
C273 H266 0.950 . S
C273 C270 1.387 . S
C274 C275 1.387 . S
C274 H278 0.950 . S
C274 C283 1.390 . S
C275 C274 1.387 . S
C275 C277 1.387 . S
H276 C283 0.950 . S
C277 C275 1.387 . S
C277 C279 1.390 . S
C277 H281 0.950 . S
H278 C274 0.950 . S
C279 C277 1.390 . S
C279 C280 1.387 . S
C279 H282 0.950 . S
C280 C279 1.387 . S
C280 C283 1.387 . S
H281 C277 0.950 . S
H282 C279 0.950 . S
C283 C274 1.390 . S
C283 H276 0.950 . S
C283 C280 1.387 . S
C284 C285 1.387 . S
C284 H288 0.950 . S
C284 C293 1.390 . S
C285 C284 1.387 . S
C285 C287 1.387 . S
H286 C293 0.950 . S
C287 C285 1.387 . S
C287 C289 1.390 . S
C287 H291 0.950 . S
H288 C284 0.950 . S
C289 C287 1.390 . S
C289 C290 1.387 . S
C289 H292 0.950 . S
C290 C289 1.387 . S
C290 C293 1.387 . S
H291 C287 0.950 . S
H292 C289 0.950 . S
C293 C284 1.390 . S
C293 H286 0.950 . S
C293 C290 1.387 . S
C294 C295 1.387 . S
C294 H298 0.950 . S
C294 C303 1.390 . S
C295 C294 1.387 . S
C295 C297 1.387 . S
H296 C303 0.950 . S
C297 C295 1.387 . S
C297 C299 1.390 . S
C297 H301 0.950 . S
H298 C294 0.950 . S
C299 C297 1.390 . S
C299 C300 1.387 . S
C299 H302 0.950 . S
C300 C299 1.387 . S
C300 C303 1.387 . S
H301 C297 0.950 . S
H302 C299 0.950 . S
C303 C294 1.390 . S
C303 H296 0.950 . S
C303 C300 1.387 . S
C304 C305 1.387 . S
C304 H308 0.950 1_545 S
C304 C313 1.390 1_655 S
C305 C304 1.387 . S
C305 C307 1.387 . S
H306 C313 0.950 1_565 S
C307 C305 1.387 . S
C307 C309 1.390 1_655 S
C307 H311 0.950 . S
H308 C304 0.950 1_565 S
C309 C307 1.390 1_455 S
C309 C310 1.387 . S
C309 H312 0.950 . S
C310 C309 1.387 . S
C310 C313 1.387 . S
H311 C307 0.950 . S
H312 C309 0.950 . S
C313 C304 1.390 1_455 S
C313 H306 0.950 1_545 S
C313 C310 1.387 . S
C314 C315 1.387 . S
C314 H318 0.950 1_565 S
C314 C323 1.390 . S
C315 C314 1.387 . S
C315 C317 1.387 . S
H316 C323 0.950 1_545 S
C317 C315 1.387 . S
C317 C319 1.390 . S
C317 H321 0.950 . S
H318 C314 0.950 1_545 S
C319 C317 1.390 . S
C319 C320 1.387 . S
C319 H322 0.950 . S
C320 C319 1.387 . S
C320 C323 1.387 . S
H321 C317 0.950 . S
H322 C319 0.950 . S
C323 C314 1.390 . S
C323 H316 0.950 1_565 S
C323 C320 1.387 . S
C324 C325 1.387 . S
C324 H328 0.950 . S
C324 C333 1.390 1_455 S
C325 C324 1.387 . S
C325 C327 1.387 . S
H326 C333 0.950 . S
C327 C325 1.387 . S
C327 C329 1.390 1_455 S
C327 H331 0.950 1_565 S
H328 C324 0.950 . S
C329 C327 1.390 1_655 S
C329 C330 1.387 . S
C329 H332 0.950 1_565 S
C330 C329 1.387 . S
C330 C333 1.387 . S
H331 C327 0.950 1_545 S
H332 C329 0.950 1_545 S
C333 C324 1.390 1_655 S
C333 H326 0.950 . S
C333 C330 1.387 . S
C334 C335 1.387 . S
C334 H338 0.950 1_545 S
C334 C343 1.390 . S
C335 C334 1.387 . S
C335 C337 1.387 . S
H336 C343 0.950 1_565 S
C337 C335 1.387 . S
C337 C339 1.390 . S
C337 H341 0.950 . S
H338 C334 0.950 1_565 S
C339 C337 1.390 . S
C339 C340 1.387 . S
C339 H342 0.950 . S
C340 C339 1.387 . S
C340 C343 1.387 . S
H341 C337 0.950 . S
H342 C339 0.950 . S
C343 C334 1.390 . S
C343 H336 0.950 1_545 S
C343 C340 1.387 . S
C344 C345 1.387 . S
C344 H348 0.950 . S
C344 C353 1.390 . S
C345 C344 1.387 . S
C345 C347 1.387 . S
H346 C353 0.950 . S
C347 C345 1.387 . S
C347 C349 1.390 . S
C347 H351 0.950 . S
H348 C344 0.950 . S
C349 C347 1.390 . S
C349 C350 1.387 . S
C349 H352 0.950 . S
C350 C349 1.387 . S
C350 C353 1.387 . S
H351 C347 0.950 . S
H352 C349 0.950 . S
C353 C344 1.390 . S
C353 H346 0.950 . S
C353 C350 1.387 . S
C354 C355 1.387 . S
C354 H358 0.950 . S
C354 C363 1.390 1_455 S
C355 C354 1.387 . S
C355 C357 1.387 . S
H356 C363 0.950 . S
C357 C355 1.387 . S
C357 C359 1.390 1_455 S
C357 H361 0.950 . S
H358 C354 0.950 . S
C359 C357 1.390 1_655 S
C359 C360 1.387 . S
C359 H362 0.950 . S
C360 C359 1.387 . S
C360 C363 1.387 . S
H361 C357 0.950 . S
H362 C359 0.950 . S
C363 C354 1.390 1_655 S
C363 H356 0.950 . S
C363 C360 1.387 . S
C364 C365 1.387 . S
C364 H368 0.950 . S
C364 C373 1.390 . S
C365 C364 1.387 . S
C365 C367 1.387 . S
H366 C373 0.950 . S
C367 C365 1.387 . S
C367 C369 1.390 . S
C367 H371 0.950 . S
H368 C364 0.950 . S
C369 C367 1.390 . S
C369 C370 1.387 . S
C369 H372 0.950 . S
C370 C369 1.387 . S
C370 C373 1.387 . S
H371 C367 0.950 . S
H372 C369 0.950 . S
C373 C364 1.390 . S
C373 H366 0.950 . S
C373 C370 1.387 . S
C374 C375 1.387 . S
C374 H378 0.950 . S
C374 C383 1.390 1_455 S
C375 C374 1.387 . S
C375 C377 1.387 . S
H376 C383 0.950 . S
C377 C375 1.387 . S
C377 C379 1.390 1_455 S
C377 H381 0.950 . S
H378 C374 0.950 . S
C379 C377 1.390 1_655 S
C379 C380 1.387 . S
C379 H382 0.950 . S
C380 C379 1.387 . S
C380 C383 1.387 . S
H381 C377 0.950 . S
H382 C379 0.950 . S
C383 C374 1.390 1_655 S
C383 H376 0.950 . S
C383 C380 1.387 . S
C384 C385 1.387 . S
C384 H388 0.950 . S
C384 C393 1.390 1_455 S
C385 C384 1.387 . S
C385 C387 1.387 . S
H386 C393 0.950 . S
C387 C385 1.387 . S
C387 C389 1.390 1_455 S
C387 H391 0.950 . S
H388 C384 0.950 . S
C389 C387 1.390 1_655 S
C389 C390 1.387 . S
C389 H392 0.950 . S
C390 C389 1.387 . S
C390 C393 1.387 . S
H391 C387 0.950 . S
H392 C389 0.950 . S
C393 C384 1.390 1_655 S
C393 H386 0.950 . S
C393 C390 1.387 . S
C394 C395 1.387 . S
C394 H398 0.950 . S
C394 C403 1.390 . S
C395 C394 1.387 . S
C395 C397 1.387 . S
H396 C403 0.950 . S
C397 C395 1.387 . S
C397 C399 1.390 . S
C397 H401 0.950 . S
H398 C394 0.950 . S
C399 C397 1.390 . S
C399 C400 1.387 . S
C399 H402 0.950 . S
C400 C399 1.387 . S
C400 C403 1.387 . S
H401 C397 0.950 . S
H402 C399 0.950 . S
C403 C394 1.390 . S
C403 H396 0.950 . S
C403 C400 1.387 . S
C404 C405 1.387 . S
C404 H408 0.950 . S
C404 C413 1.390 . S
C405 C404 1.387 . S
C405 C407 1.387 . S
H406 C413 0.950 . S
C407 C405 1.387 . S
C407 C409 1.390 . S
C407 H411 0.950 . S
H408 C404 0.950 . S
C409 C407 1.390 . S
C409 C410 1.387 . S
C409 H412 0.950 . S
C410 C409 1.387 . S
C410 C413 1.387 . S
H411 C407 0.950 . S
H412 C409 0.950 . S
C413 C404 1.390 . S
C413 H406 0.950 . S
C413 C410 1.387 . S
C414 C415 1.387 . S
C414 H418 0.950 . S
C414 C423 1.390 1_455 S
C415 C414 1.387 . S
C415 C417 1.387 . S
H416 C423 0.950 . S
C417 C415 1.387 . S
C417 C419 1.390 1_455 S
C417 H421 0.950 . S
H418 C414 0.950 . S
C419 C417 1.390 1_655 S
C419 C420 1.387 . S
C419 H422 0.950 . S
C420 C419 1.387 . S
C420 C423 1.387 . S
H421 C417 0.950 . S
H422 C419 0.950 . S
C423 C414 1.390 1_655 S
C423 H416 0.950 . S
C423 C420 1.387 . S
C424 C425 1.387 . S
C424 H428 0.950 . S
C424 C433 1.390 1_455 S
C425 C424 1.387 . S
C425 C427 1.387 . S
H426 C433 0.950 . S
C427 C425 1.387 . S
C427 C429 1.390 1_455 S
C427 H431 0.950 . S
H428 C424 0.950 . S
C429 C427 1.390 1_655 S
C429 C430 1.387 . S
C429 H432 0.950 . S
C430 C429 1.387 . S
C430 C433 1.387 . S
H431 C427 0.950 . S
H432 C429 0.950 . S
C433 C424 1.390 1_655 S
C433 H426 0.950 . S
C433 C430 1.387 . S
C434 C435 1.387 . S
C434 H438 0.950 . S
C434 C443 1.390 . S
C435 C434 1.387 . S
C435 C437 1.387 . S
H436 C443 0.950 . S
C437 C435 1.387 . S
C437 C439 1.390 . S
C437 H441 0.950 . S
H438 C434 0.950 . S
C439 C437 1.390 . S
C439 C440 1.387 . S
C439 H442 0.950 . S
C440 C439 1.387 . S
C440 C443 1.387 . S
H441 C437 0.950 . S
H442 C439 0.950 . S
C443 C434 1.390 . S
C443 H436 0.950 . S
C443 C440 1.387 . S
C444 C445 1.387 . S
C444 H448 0.950 . S
C444 C453 1.390 . S
C445 C444 1.387 . S
C445 C447 1.387 . S
H446 C453 0.950 . S
C447 C445 1.387 . S
C447 C449 1.390 . S
C447 H451 0.950 . S
H448 C444 0.950 . S
C449 C447 1.390 . S
C449 C450 1.387 . S
C449 H452 0.950 . S
C450 C449 1.387 . S
C450 C453 1.387 . S
H451 C447 0.950 . S
H452 C449 0.950 . S
C453 C444 1.390 . S
C453 H446 0.950 . S
C453 C450 1.387 . S
C454 C455 1.387 . S
C454 H458 0.950 . S
C454 C463 1.390 1_455 S
C455 C454 1.387 . S
C455 C457 1.387 . S
H456 C463 0.950 . S
C457 C455 1.387 . S
C457 C459 1.390 1_455 S
C457 H461 0.950 . S
H458 C454 0.950 . S
C459 C457 1.390 1_655 S
C459 C460 1.387 . S
C459 H462 0.950 . S
C460 C459 1.387 . S
C460 C463 1.387 . S
H461 C457 0.950 . S
H462 C459 0.950 . S
C463 C454 1.390 1_655 S
C463 H456 0.950 . S
C463 C460 1.387 . S
C464 C465 1.387 1_445 S
C464 H468 0.950 . S
C464 C473 1.390 1_556 S
C465 C464 1.387 1_665 S
C465 C467 1.387 . S
H466 C473 0.950 . S
C467 C465 1.387 . S
C467 C469 1.390 1_556 S
C467 H471 0.950 . S
H468 C464 0.950 . S
C469 C467 1.390 1_554 S
C469 C470 1.387 1_665 S
C469 H472 0.950 . S
C470 C469 1.387 1_445 S
C470 C473 1.387 . S
H471 C467 0.950 . S
H472 C469 0.950 . S
C473 C464 1.390 1_554 S
C473 H466 0.950 . S
C473 C470 1.387 . S
C474 C475 1.387 1_565 S
C474 H478 0.950 . S
C474 C483 1.390 1_556 S
C475 C474 1.387 1_545 S
C475 C477 1.387 . S
H476 C483 0.950 . S
C477 C475 1.387 . S
C477 C479 1.390 1_556 S
C477 H481 0.950 . S
H478 C474 0.950 . S
C479 C477 1.390 1_554 S
C479 C480 1.387 1_545 S
C479 H482 0.950 . S
C480 C479 1.387 1_565 S
C480 C483 1.387 . S
H481 C477 0.950 . S
H482 C479 0.950 . S
C483 C474 1.390 1_554 S
C483 H476 0.950 . S
C483 C480 1.387 . S
C484 C485 1.387 . S
C484 H488 0.950 . S
C484 C493 1.390 . S
C485 C484 1.387 . S
C485 C487 1.387 1_545 S
H486 C493 0.950 . S
C487 C485 1.387 1_565 S
C487 C489 1.390 . S
C487 H491 0.950 . S
H488 C484 0.950 . S
C489 C487 1.390 . S
C489 C490 1.387 . S
C489 H492 0.950 . S
C490 C489 1.387 . S
C490 C493 1.387 1_565 S
H491 C487 0.950 . S
H492 C489 0.950 . S
C493 C484 1.390 . S
C493 H486 0.950 . S
C493 C490 1.387 1_545 S
C494 C495 1.387 1_655 S
C494 H498 0.950 . S
C494 C503 1.390 . S
C495 C494 1.387 1_455 S
C495 C497 1.387 1_565 S
H496 C503 0.950 . S
C497 C495 1.387 1_545 S
C497 C499 1.390 . S
C497 H501 0.950 . S
H498 C494 0.950 . S
C499 C497 1.390 . S
C499 C500 1.387 1_455 S
C499 H502 0.950 . S
C500 C499 1.387 1_655 S
C500 C503 1.387 1_545 S
H501 C497 0.950 . S
H502 C499 0.950 . S
C503 C494 1.390 . S
C503 H496 0.950 . S
C503 C500 1.387 1_565 S
C504 C505 1.387 . S
C504 H508 0.950 . S
C504 C513 1.390 1_554 S
C505 C504 1.387 . S
C505 C507 1.387 . S
H506 C513 0.950 . S
C507 C505 1.387 . S
C507 C509 1.390 1_554 S
C507 H511 0.950 . S
H508 C504 0.950 . S
C509 C507 1.390 1_556 S
C509 C510 1.387 . S
C509 H512 0.950 . S
C510 C509 1.387 . S
C510 C513 1.387 . S
H511 C507 0.950 . S
H512 C509 0.950 . S
C513 C504 1.390 1_556 S
C513 H506 0.950 . S
C513 C510 1.387 . S
C514 C515 1.387 . S
C514 H518 0.950 . S
C514 C523 1.390 1_554 S
C515 C514 1.387 . S
C515 C517 1.387 1_655 S
H516 C523 0.950 . S
C517 C515 1.387 1_455 S
C517 C519 1.390 1_554 S
C517 H521 0.950 . S
H518 C514 0.950 . S
C519 C517 1.390 1_556 S
C519 C520 1.387 . S
C519 H522 0.950 . S
C520 C519 1.387 . S
C520 C523 1.387 1_455 S
H521 C517 0.950 . S
H522 C519 0.950 . S
C523 C514 1.390 1_556 S
C523 H516 0.950 . S
C523 C520 1.387 1_655 S
C524 C525 1.387 . S
C524 H528 0.950 . S
C524 C533 1.390 . S
C525 C524 1.387 . S
C525 C527 1.387 1_655 S
H526 C533 0.950 . S
C527 C525 1.387 1_455 S
C527 C529 1.390 . S
C527 H531 0.950 . S
H528 C524 0.950 . S
C529 C527 1.390 . S
C529 C530 1.387 . S
C529 H532 0.950 . S
C530 C529 1.387 . S
C530 C533 1.387 1_455 S
H531 C527 0.950 . S
H532 C529 0.950 . S
C533 C524 1.390 . S
C533 H526 0.950 . S
C533 C530 1.387 1_655 S
C534 C535 1.387 . S
C534 H538 0.950 . S
C534 C543 1.390 . S
C535 C534 1.387 . S
C535 C537 1.387 . S
H536 C543 0.950 . S
C537 C535 1.387 . S
C537 C539 1.390 . S
C537 H541 0.950 . S
H538 C534 0.950 . S
C539 C537 1.390 . S
C539 C540 1.387 . S
C539 H542 0.950 . S
C540 C539 1.387 . S
C540 C543 1.387 . S
H541 C537 0.950 . S
H542 C539 0.950 . S
C543 C534 1.390 . S
C543 H536 0.950 . S
C543 C540 1.387 . S
C225 C22 1.507 . S
C230 C8 1.507 . S
C235 C36 1.508 . S
C240 C50 1.508 . S
C245 C64 1.508 . S
C250 C78 1.508 . S
C255 C106 1.507 . S
C260 C92 1.507 . S
C265 C134 1.508 . S
C270 C120 1.508 . S
C275 C162 1.507 . S
C280 C148 1.507 . S
C285 C190 1.508 . S
C290 C176 1.508 . S
C295 C218 1.507 . S
C300 C204 1.507 . S
C305 C45 1.441 . S
C310 C3 1.441 . S
C315 C17 1.440 . S
C320 C31 1.440 . S
C325 C101 1.441 . S
C330 C59 1.441 . S
C335 C87 1.440 . S
C340 C73 1.440 . S
C345 C115 1.440 . S
C350 C157 1.440 . S
C355 C143 1.441 . S
C360 C129 1.441 . S
C365 C213 1.440 . S
C370 C171 1.440 . S
C375 C185 1.440 . S
C380 C199 1.440 . S
C385 C9 1.499 . S
C390 C135 1.499 . S
C395 C23 1.499 . S
C400 C121 1.499 . S
C405 C163 1.499 . S
C410 C37 1.499 . S
C415 C149 1.498 . S
C420 C51 1.498 . S
C425 C191 1.499 . S
C430 C65 1.499 . S
C435 C177 1.498 . S
C440 C79 1.498 . S
C445 C93 1.499 . S
C450 C219 1.499 . S
C455 C107 1.499 . S
C460 C205 1.499 . S
C465 C63 1.387 . S
C470 C7 1.387 . S
C475 C77 1.387 . S
C480 C21 1.387 . S
C485 C91 1.389 . S
C490 C35 1.389 . S
C495 C105 1.388 . S
C500 C49 1.388 . S
C505 C119 1.389 . S
C510 C175 1.389 . S
C515 C133 1.389 . S
C520 C189 1.389 . S
C525 C203 1.389 . S
C530 C147 1.389 . S
C535 C217 1.387 . S
C540 C161 1.387 . S
