# Generated by pormake.
# Topology una, (4)-cn, num edge types: 1
# Building blocks:
#     Node 0, Type 0, BuildingBlock: CEKHIL_clean_sbu_0, # of connection points: 4
#     Node 1, Type 0, BuildingBlock: CEKHIL_clean_sbu_0, # of connection points: 4
#     Node 2, Type 0, BuildingBlock: CEKHIL_clean_sbu_0, # of connection points: 4
#     Node 3, Type 0, BuildingBlock: CEKHIL_clean_sbu_0, # of connection points: 4
#     Node 4, Type 0, BuildingBlock: CEKHIL_clean_sbu_0, # of connection points: 4
#     Node 5, Type 0, BuildingBlock: CEKHIL_clean_sbu_0, # of connection points: 4
#     Node 6, Type 0, BuildingBlock: CEKHIL_clean_sbu_0, # of connection points: 4
#     Node 7, Type 0, BuildingBlock: CEKHIL_clean_sbu_0, # of connection points: 4
#     Node 8, Type 0, BuildingBlock: CEKHIL_clean_sbu_0, # of connection points: 4
#     Node 9, Type 0, BuildingBlock: CEKHIL_clean_sbu_0, # of connection points: 4
#     Node 10, Type 0, BuildingBlock: CEKHIL_clean_sbu_0, # of connection points: 4
#     Node 11, Type 0, BuildingBlock: CEKHIL_clean_sbu_0, # of connection points: 4
#     Edge 12, Type (0, 0), BuildingBlock: UVAHIK_clean_linker_0, # of connection points: 2
#     Edge 13, Type (0, 0), BuildingBlock: UVAHIK_clean_linker_0, # of connection points: 2
#     Edge 14, Type (0, 0), BuildingBlock: UVAHIK_clean_linker_0, # of connection points: 2
#     Edge 15, Type (0, 0), BuildingBlock: UVAHIK_clean_linker_0, # of connection points: 2
#     Edge 16, Type (0, 0), BuildingBlock: UVAHIK_clean_linker_0, # of connection points: 2
#     Edge 17, Type (0, 0), BuildingBlock: UVAHIK_clean_linker_0, # of connection points: 2
#     Edge 18, Type (0, 0), BuildingBlock: UVAHIK_clean_linker_0, # of connection points: 2
#     Edge 19, Type (0, 0), BuildingBlock: UVAHIK_clean_linker_0, # of connection points: 2
#     Edge 20, Type (0, 0), BuildingBlock: UVAHIK_clean_linker_0, # of connection points: 2
#     Edge 21, Type (0, 0), BuildingBlock: UVAHIK_clean_linker_0, # of connection points: 2
#     Edge 22, Type (0, 0), BuildingBlock: UVAHIK_clean_linker_0, # of connection points: 2
#     Edge 23, Type (0, 0), BuildingBlock: UVAHIK_clean_linker_0, # of connection points: 2
#     Edge 24, Type (0, 0), BuildingBlock: UVAHIK_clean_linker_0, # of connection points: 2
#     Edge 25, Type (0, 0), BuildingBlock: UVAHIK_clean_linker_0, # of connection points: 2
#     Edge 26, Type (0, 0), BuildingBlock: UVAHIK_clean_linker_0, # of connection points: 2
#     Edge 27, Type (0, 0), BuildingBlock: UVAHIK_clean_linker_0, # of connection points: 2
#     Edge 28, Type (0, 0), BuildingBlock: UVAHIK_clean_linker_0, # of connection points: 2
#     Edge 29, Type (0, 0), BuildingBlock: UVAHIK_clean_linker_0, # of connection points: 2
#     Edge 30, Type (0, 0), BuildingBlock: UVAHIK_clean_linker_0, # of connection points: 2
#     Edge 31, Type (0, 0), BuildingBlock: UVAHIK_clean_linker_0, # of connection points: 2
#     Edge 32, Type (0, 0), BuildingBlock: UVAHIK_clean_linker_0, # of connection points: 2
#     Edge 33, Type (0, 0), BuildingBlock: UVAHIK_clean_linker_0, # of connection points: 2
#     Edge 34, Type (0, 0), BuildingBlock: UVAHIK_clean_linker_0, # of connection points: 2
#     Edge 35, Type (0, 0), BuildingBlock: UVAHIK_clean_linker_0, # of connection points: 2
# Relax obj value: 0.022
# Max RMSD: 0.037
# Mean RMSD: 0.037
data_MOF--net-una--node1-CEKHIL_clean_sbu_0--edge1-UVAHIK_clean_linker_0
_symmetry_space_group_name_H-M    P1
_symmetry_Int_Tables_number       1
_symmetry_cell_setting            triclinic
loop_
_symmetry_equiv_pos_as_xyz
'x, y, z'
_cell_length_a     74.379408
_cell_length_b     74.387266
_cell_length_c     28.429974
_cell_angle_alpha  90.010741
_cell_angle_beta   90.057332
_cell_angle_gamma 120.01564
loop_
_atom_site_label
_atom_site_type_symbol
_atom_site_fract_x
_atom_site_fract_y
_atom_site_fract_z
_atom_type_partial_charge
Co0 Co 0.13118 0.43902 0.02184 0.0
O1 O 0.11407 0.43981 0.97251 0.0
O2 O 0.10173 0.42133 0.03728 0.0
C3 C 0.15188 0.43408 0.97212 0.0
O4 O 0.1454 0.4343 0.07912 0.0
Co5 Co 0.17797 0.47273 0.02232 0.0
O6 O 0.17978 0.45256 0.06454 0.0
C7 C 0.14633 0.48355 0.05129 0.0
C8 C 0.09804 0.42664 0.99619 0.0
C9 C 0.16433 0.43893 0.08788 0.0
O10 O 0.13222 0.46419 0.05188 0.0
O11 O 0.16491 0.48998 0.03707 0.0
O12 O 0.13462 0.41837 0.98665 0.0
O13 O 0.15527 0.45205 0.98564 0.0
Co14 Co 0.69313 0.1299 0.19031 0.0
O15 O 0.67568 0.11315 0.13996 0.0
O16 O 0.68028 0.10037 0.20596 0.0
C17 C 0.71993 0.15023 0.14288 0.0
O18 O 0.71148 0.14368 0.24871 0.0
Co19 Co 0.70753 0.17707 0.19023 0.0
O20 O 0.72889 0.17802 0.23332 0.0
C21 C 0.6648 0.14656 0.22004 0.0
C22 C 0.672 0.09695 0.16409 0.0
C23 C 0.72625 0.16243 0.25739 0.0
O24 O 0.66907 0.13176 0.21831 0.0
O25 O 0.67759 0.1652 0.20729 0.0
O26 O 0.71741 0.13258 0.1574 0.0
O27 O 0.70546 0.15413 0.15447 0.0
Co28 Co 0.56741 0.69345 0.3594 0.0
O29 O 0.56875 0.67444 0.31594 0.0
O30 O 0.58644 0.68458 0.38266 0.0
C31 C 0.57132 0.71673 0.30389 0.0
O32 O 0.56993 0.71377 0.41165 0.0
Co33 Co 0.53126 0.70278 0.34904 0.0
O34 O 0.54911 0.72639 0.39094 0.0
C35 C 0.52313 0.66207 0.38436 0.0
C36 C 0.58209 0.67378 0.34397 0.0
C37 C 0.56339 0.72682 0.41661 0.0
O38 O 0.54272 0.66938 0.39086 0.0
O39 O 0.5157 0.67231 0.36401 0.0
O40 O 0.58747 0.71696 0.32188 0.0
O41 O 0.5536 0.70168 0.31742 0.0
Co42 Co 0.8695 0.5636 0.52864 0.0
O43 O 0.8862 0.56233 0.47884 0.0
O44 O 0.89898 0.58113 0.54323 0.0
C45 C 0.84844 0.56856 0.47994 0.0
O46 O 0.85613 0.56901 0.58649 0.0
Co47 Co 0.82243 0.53078 0.53228 0.0
O48 O 0.82162 0.55178 0.57347 0.0
C49 C 0.85365 0.51929 0.56166 0.0
C50 C 0.90238 0.57549 0.50231 0.0
C51 C 0.83753 0.56516 0.59608 0.0
O52 O 0.86835 0.53838 0.559 0.0
O53 O 0.83486 0.51323 0.5496 0.0
O54 O 0.86601 0.58421 0.49331 0.0
O55 O 0.84492 0.55058 0.49375 0.0
Co56 Co 0.30689 0.86981 0.69393 0.0
O57 O 0.3246 0.88646 0.64394 0.0
O58 O 0.31955 0.89936 0.70923 0.0
C59 C 0.28047 0.84933 0.64557 0.0
O60 O 0.28822 0.85619 0.75188 0.0
Co61 Co 0.29263 0.82275 0.69514 0.0
O62 O 0.27093 0.82183 0.73691 0.0
C63 C 0.33519 0.85344 0.72578 0.0
C64 C 0.32809 0.9027 0.6677 0.0
C65 C 0.2734 0.83748 0.76049 0.0
O66 O 0.33086 0.86817 0.72325 0.0
O67 O 0.3225 0.83471 0.71328 0.0
O68 O 0.28279 0.86695 0.65976 0.0
O69 O 0.29487 0.84549 0.65824 0.0
Co70 Co 0.43776 0.30712 0.85693 0.0
O71 O 0.43845 0.32374 0.80466 0.0
O72 O 0.42102 0.32005 0.87018 0.0
C73 C 0.43161 0.27984 0.81122 0.0
O74 O 0.43281 0.28987 0.91716 0.0
Co75 Co 0.46981 0.29216 0.86302 0.0
O76 O 0.44934 0.2717 0.90738 0.0
C77 C 0.48273 0.33598 0.88454 0.0
C78 C 0.42586 0.32768 0.82779 0.0
C79 C 0.43639 0.27516 0.92891 0.0
O80 O 0.46365 0.33169 0.88371 0.0
O81 O 0.48826 0.32268 0.87411 0.0
O82 O 0.41637 0.28233 0.82504 0.0
O83 O 0.44991 0.29432 0.82338 0.0
Co84 Co 0.56277 0.86736 0.89145 0.0
O85 O 0.56229 0.88356 0.94337 0.0
O86 O 0.57962 0.89701 0.87762 0.0
C87 C 0.56882 0.84618 0.93707 0.0
O88 O 0.56735 0.85452 0.83151 0.0
Co89 Co 0.5301 0.82027 0.88726 0.0
O90 O 0.5507 0.81997 0.84379 0.0
C91 C 0.51779 0.85141 0.86345 0.0
C92 C 0.57486 0.89999 0.91994 0.0
C93 C 0.56363 0.83603 0.82103 0.0
O94 O 0.53692 0.8661 0.86453 0.0
O95 O 0.51203 0.8326 0.87453 0.0
O96 O 0.58414 0.86391 0.92347 0.0
O97 O 0.55057 0.84257 0.92532 0.0
Co98 Co 0.69356 0.56414 0.05759 0.0
O99 O 0.6738 0.56387 0.10138 0.0
O100 O 0.68386 0.58276 0.03644 0.0
C101 C 0.71679 0.56811 0.11341 0.0
O102 O 0.71453 0.56864 0.00517 0.0
Co103 Co 0.70578 0.52997 0.06294 0.0
O104 O 0.72981 0.55017 0.02533 0.0
C105 C 0.66529 0.52024 0.0216 0.0
C106 C 0.67289 0.57753 0.07491 0.0
C107 C 0.72899 0.56395 1.0003 0.0
O108 O 0.67029 0.53951 0.02376 0.0
O109 O 0.67678 0.51336 0.03779 0.0
O110 O 0.71635 0.58413 0.09681 0.0
O111 O 0.70246 0.55029 0.09812 0.0
Co112 Co 0.12967 0.69426 0.22786 0.0
O113 O 0.111 0.67786 0.27671 0.0
O114 O 0.10081 0.68356 0.20809 0.0
C115 C 0.15068 0.72056 0.27605 0.0
O116 O 0.14602 0.71157 0.17024 0.0
Co117 Co 0.17511 0.70296 0.23731 0.0
O118 O 0.1797 0.72142 0.18309 0.0
C119 C 0.1411 0.66102 0.2153 0.0
C120 C 0.09584 0.67491 0.24955 0.0
C121 C 0.16548 0.72185 0.1588 0.0
O122 O 0.12948 0.66857 0.20356 0.0
O123 O 0.15891 0.67187 0.23466 0.0
O124 O 0.13416 0.71977 0.2586 0.0
O125 O 0.15281 0.70478 0.2668 0.0
Co126 Co 0.43721 0.13118 0.39242 0.0
O127 O 0.43844 0.11549 0.44456 0.0
O128 O 0.42079 0.10145 0.37933 0.0
C129 C 0.43089 0.1522 0.43796 0.0
O130 O 0.43181 0.14328 0.33238 0.0
Co131 Co 0.46891 0.17844 0.38625 0.0
O132 O 0.44799 0.17799 0.34251 0.0
C133 C 0.48208 0.1479 0.36282 0.0
C134 C 0.42593 0.09884 0.42158 0.0
C135 C 0.43512 0.16151 0.3209 0.0
O136 O 0.46312 0.13289 0.36486 0.0
O137 O 0.48749 0.1667 0.37325 0.0
O138 O 0.41574 0.13425 0.42485 0.0
O139 O 0.4492 0.1562 0.42562 0.0
Co140 Co 0.30776 0.43932 0.5563 0.0
O141 O 0.32386 0.43816 0.60739 0.0
O142 O 0.31879 0.42101 0.5408 0.0
C143 C 0.28117 0.43467 0.6023 0.0
O144 O 0.29041 0.43663 0.49738 0.0
Co145 Co 0.29796 0.47541 0.55723 0.0
O146 O 0.27625 0.45673 0.51212 0.0
C147 C 0.34028 0.48389 0.53699 0.0
C148 C 0.32669 0.42512 0.58311 0.0
C149 C 0.27711 0.44259 0.48854 0.0
O150 O 0.33332 0.46438 0.53029 0.0
O151 O 0.32907 0.49121 0.55244 0.0
O152 O 0.28233 0.41876 0.5876 0.0
O153 O 0.29678 0.45256 0.59186 0.0
Co154 Co 0.86855 0.30569 0.72621 0.0
O155 O 0.88644 0.32299 0.77534 0.0
O156 O 0.89772 0.31738 0.70819 0.0
C157 C 0.84853 0.27975 0.77601 0.0
O158 O 0.85345 0.28712 0.66893 0.0
Co159 Co 0.82191 0.29271 0.72974 0.0
O160 O 0.81946 0.27044 0.68759 0.0
C161 C 0.85296 0.33512 0.69898 0.0
C162 C 0.902 0.32569 0.75006 0.0
C163 C 0.83448 0.27244 0.66226 0.0
O164 O 0.86731 0.3302 0.6987 0.0
O165 O 0.83443 0.32278 0.71316 0.0
O166 O 0.86546 0.28128 0.7592 0.0
O167 O 0.84499 0.29446 0.76443 0.0
C168 C 0.1588 0.4255 0.17125 0.0
C169 C 0.16941 0.42959 0.12824 0.0
C170 C 0.16679 0.42102 0.21161 0.0
C171 C 0.20679 0.40794 0.2536 0.0
H172 H 0.20996 0.44119 0.36149 0.0
C173 C 0.26757 0.43018 0.40467 0.0
C174 C 0.26184 0.43321 0.44974 0.0
C175 C 0.25377 0.42526 0.36659 0.0
C176 C 0.20895 0.43145 0.33215 0.0
H177 H 0.19571 0.43055 0.09299 0.0
H178 H 0.20946 0.42274 0.16256 0.0
H179 H 0.18924 0.43954 0.29393 0.0
H180 H 0.23674 0.43179 0.49116 0.0
H181 H 0.21261 0.42252 0.42582 0.0
H182 H 0.227 0.40029 0.29166 0.0
C183 C 0.19506 0.42297 0.16567 0.0
C184 C 0.19696 0.43048 0.29326 0.0
C185 C 0.18722 0.42759 0.1257 0.0
C186 C 0.24167 0.4298 0.45663 0.0
C187 C 0.22788 0.42467 0.41902 0.0
C188 C 0.21879 0.40888 0.29265 0.0
C189 C 0.18539 0.42032 0.20955 0.0
C190 C 0.19595 0.41898 0.25312 0.0
C191 C 0.23396 0.42311 0.3731 0.0
C192 C 0.22024 0.42086 0.33229 0.0
H193 H 0.1451 0.42701 0.17435 0.0
H194 H 0.15878 0.41878 0.24476 0.0
H195 H 0.20621 0.39875 0.22348 0.0
H196 H 0.28307 0.43285 0.39833 0.0
H197 H 0.25905 0.42424 0.33174 0.0
C198 C 0.81218 0.23714 0.62905 0.0
C199 C 0.82881 0.25747 0.62286 0.0
C200 C 0.80352 0.22371 0.59085 0.0
C201 C 0.81008 0.21551 0.46422 0.0
H202 H 0.74986 0.18669 0.46472 0.0
C203 C 0.76041 0.18467 0.2962 0.0
C204 C 0.74034 0.1672 0.29836 0.0
C205 C 0.77268 0.19233 0.3365 0.0
C206 C 0.76664 0.1942 0.46425 0.0
H207 H 0.85018 0.27928 0.57193 0.0
H208 H 0.83483 0.2558 0.50442 0.0
H209 H 0.76899 0.20691 0.53286 0.0
H210 H 0.71793 0.14327 0.3442 0.0
H211 H 0.73954 0.15655 0.41516 0.0
H212 H 0.80762 0.20311 0.39491 0.0
C213 C 0.82862 0.25019 0.53918 0.0
C214 C 0.77769 0.20591 0.50344 0.0
C215 C 0.83747 0.26366 0.5778 0.0
C216 C 0.73334 0.1567 0.34139 0.0
C217 C 0.74565 0.16449 0.38208 0.0
C218 C 0.799 0.20373 0.42493 0.0
C219 C 0.81106 0.23028 0.54508 0.0
C220 C 0.79956 0.21693 0.50386 0.0
C221 C 0.76525 0.18279 0.38035 0.0
C222 C 0.77711 0.19315 0.42414 0.0
H223 H 0.80531 0.23182 0.66348 0.0
H224 H 0.79043 0.20834 0.59706 0.0
H225 H 0.82689 0.22355 0.46348 0.0
H226 H 0.76632 0.19307 0.26349 0.0
H227 H 0.78753 0.20649 0.33358 0.0
C228 C 0.57184 0.76147 0.44814 0.0
C229 C 0.57166 0.74264 0.45463 0.0
C230 C 0.57648 0.77537 0.48536 0.0
C231 C 0.59654 0.78762 0.60877 0.0
H232 H 0.56037 0.81117 0.61511 0.0
C233 C 0.57721 0.81562 0.78044 0.0
C234 C 0.5732 0.8322 0.7793 0.0
C235 C 0.58203 0.80863 0.73937 0.0
C236 C 0.57093 0.80513 0.61355 0.0
H237 H 0.5772 0.7241 0.5049 0.0
H238 H 0.58483 0.74818 0.57069 0.0
H239 H 0.55903 0.79094 0.54685 0.0
H240 H 0.57231 0.85526 0.73453 0.0
H241 H 0.58075 0.843 0.66212 0.0
H242 H 0.60778 0.80124 0.6767 0.0
C243 C 0.5817 0.75237 0.53645 0.0
C244 C 0.57016 0.79344 0.57425 0.0
C245 C 0.5773 0.73852 0.49878 0.0
C246 C 0.57543 0.84253 0.73651 0.0
C247 C 0.58004 0.83535 0.69505 0.0
C248 C 0.59723 0.79926 0.64829 0.0
C249 C 0.58076 0.77073 0.5305 0.0
C250 C 0.58276 0.78429 0.57144 0.0
C251 C 0.58279 0.8179 0.69583 0.0
C252 C 0.58421 0.80791 0.65148 0.0
H253 H 0.56787 0.76526 0.41433 0.0
H254 H 0.57621 0.78957 0.47887 0.0
H255 H 0.60671 0.78113 0.60766 0.0
H256 H 0.57566 0.80738 0.81297 0.0
H257 H 0.58388 0.79511 0.74144 0.0
C258 C 0.84442 0.57865 0.67938 0.0
C259 C 0.83339 0.57493 0.637 0.0
C260 C 0.83724 0.58352 0.72047 0.0
C261 C 0.79932 0.5986 0.76605 0.0
H262 H 0.79508 0.56383 0.87169 0.0
C263 C 0.73943 0.57746 0.91764 0.0
C264 C 0.74464 0.57332 0.96226 0.0
C265 C 0.75319 0.58231 0.87966 0.0
C266 C 0.79644 0.57403 0.84305 0.0
H267 H 0.80723 0.57504 0.60357 0.0
H268 H 0.7949 0.5836 0.67446 0.0
H269 H 0.81497 0.565 0.803 0.0
H270 H 0.76899 0.57274 0.00301 0.0
H271 H 0.79312 0.5819 0.9378 0.0
H272 H 0.78031 0.60722 0.80589 0.0
C273 C 0.809 0.58275 0.67648 0.0
C274 C 0.80793 0.5747 0.8035 0.0
C275 C 0.81602 0.57771 0.63578 0.0
C276 C 0.76441 0.57559 0.96887 0.0
C277 C 0.77819 0.58066 0.9313 0.0
C278 C 0.78785 0.59799 0.80578 0.0
C279 C 0.81906 0.58501 0.71975 0.0
C280 C 0.80924 0.5867 0.76411 0.0
C281 C 0.77251 0.58331 0.88575 0.0
C282 C 0.78599 0.58544 0.84461 0.0
H283 H 0.85779 0.57654 0.68146 0.0
H284 H 0.84551 0.58542 0.75314 0.0
H285 H 0.80016 0.60818 0.73651 0.0
H286 H 0.72425 0.57569 0.91142 0.0
H287 H 0.74819 0.58415 0.84512 0.0
C288 C 0.23917 0.81516 0.7987 0.0
C289 C 0.25912 0.8328 0.80097 0.0
C290 C 0.22685 0.80747 0.83885 0.0
C291 C 0.23342 0.80597 0.96654 0.0
H292 H 0.17336 0.77178 0.96339 0.0
C293 C 0.1913 0.73885 0.0946 0.0
C294 C 0.17258 0.73495 0.11569 0.0
C295 C 0.2001 0.75307 0.058 0.0
C296 C 0.19009 0.78148 0.9652 0.0
H297 H 0.28114 0.85713 0.84676 0.0
H298 H 0.25944 0.84383 0.91742 0.0
H299 H 0.19166 0.79472 0.8973 0.0
H300 H 0.14796 0.74243 0.1131 0.0
H301 H 0.16349 0.76759 0.04828 0.0
H302 H 0.23192 0.79272 0.03415 0.0
C303 C 0.25347 0.83574 0.8844 0.0
C304 C 0.20064 0.79452 0.92708 0.0
C305 C 0.26585 0.84353 0.84386 0.0
C306 C 0.16236 0.74505 0.09756 0.0
C307 C 0.17131 0.7595 0.0606 0.0
C308 C 0.22289 0.79304 0.00457 0.0
C309 C 0.23409 0.81716 0.88271 0.0
C310 C 0.22253 0.80643 0.92653 0.0
C311 C 0.19059 0.76404 0.04121 0.0
C312 C 0.20116 0.78004 0.00372 0.0
H313 H 0.23343 0.8066 0.76608 0.0
H314 H 0.2122 0.79309 0.83584 0.0
H315 H 0.25022 0.81473 0.96759 0.0
H316 H 0.19946 0.73109 0.10697 0.0
H317 H 0.21455 0.75555 0.04299 0.0
C318 C 0.43221 0.16348 0.23403 0.0
C319 C 0.42518 0.1645 0.27912 0.0
C320 C 0.42769 0.17233 0.19551 0.0
C321 C 0.41388 0.21324 0.17142 0.0
H322 H 0.41418 0.19681 0.04236 0.0
C323 C 0.43384 0.27016 0.01573 0.0
C324 C 0.4265 0.26223 0.97067 0.0
C325 C 0.42907 0.25671 0.05414 0.0
C326 C 0.41365 0.20153 0.0781 0.0
H327 H 0.40705 0.17446 0.31927 0.0
H328 H 0.39795 0.18867 0.25194 0.0
H329 H 0.41293 0.17444 0.1058 0.0
H330 H 0.40768 0.2343 0.9304 0.0
H331 H 0.39822 0.21087 0.99758 0.0
H332 H 0.41406 0.24007 0.14373 0.0
C333 C 0.40755 0.18175 0.24607 0.0
C334 C 0.41329 0.18877 0.11474 0.0
C335 C 0.41241 0.17325 0.28462 0.0
C336 C 0.41328 0.24078 0.96505 0.0
C337 C 0.4082 0.22735 0.0035 0.0
C338 C 0.41393 0.22586 0.13479 0.0
C339 C 0.41587 0.18225 0.20126 0.0
C340 C 0.41386 0.19462 0.16202 0.0
C341 C 0.41672 0.235 0.04831 0.0
C342 C 0.41428 0.22045 0.08751 0.0
H343 H 0.44253 0.15729 0.2292 0.0
H344 H 0.43464 0.17254 0.16194 0.0
H345 H 0.41461 0.21858 0.20716 0.0
H346 H 0.4445 0.28661 0.02063 0.0
H347 H 0.4362 0.26331 0.0877 0.0
C348 C 0.15624 0.52059 0.06391 0.0
C349 C 0.14135 0.49942 0.06838 0.0
C350 C 0.15247 0.53582 0.08172 0.0
C351 C 0.14737 0.56256 0.15294 0.0
H352 H 0.09734 0.56544 0.13216 0.0
C353 C 0.14055 0.62827 0.23534 0.0
C354 C 0.13432 0.63907 0.20516 0.0
C355 C 0.1371 0.60865 0.22323 0.0
C356 C 0.11138 0.5648 0.13823 0.0
H357 H 0.11036 0.47777 0.09363 0.0
H358 H 0.10384 0.50471 0.12532 0.0
H359 H 0.09993 0.53612 0.10017 0.0
H360 H 0.11833 0.63731 0.14013 0.0
H361 H 0.11291 0.60309 0.11783 0.0
H362 H 0.1593 0.59132 0.18923 0.0
C363 C 0.11843 0.50931 0.10778 0.0
C364 C 0.11278 0.54796 0.1203 0.0
C365 C 0.12222 0.49392 0.08984 0.0
C366 C 0.12333 0.6293 0.16394 0.0
C367 C 0.12017 0.60968 0.15133 0.0
C368 C 0.14598 0.57923 0.17079 0.0
C369 C 0.13374 0.53039 0.10467 0.0
C370 C 0.13099 0.54693 0.12679 0.0
C371 C 0.12772 0.5995 0.18012 0.0
C372 C 0.12808 0.58073 0.16336 0.0
H373 H 0.17103 0.52554 0.047 0.0
H374 H 0.16439 0.55195 0.07786 0.0
H375 H 0.1615 0.56207 0.15905 0.0
H376 H 0.14868 0.63527 0.26784 0.0
H377 H 0.14256 0.60098 0.2469 0.0
C378 C 0.62745 0.12196 0.24252 0.0
C379 C 0.64438 0.14231 0.23841 0.0
C380 C 0.6082 0.11852 0.25919 0.0
C381 C 0.58562 0.14341 0.33075 0.0
H382 H 0.5351 0.11205 0.25805 0.0
C383 C 0.51935 0.16008 0.34534 0.0
C384 C 0.49878 0.14357 0.34872 0.0
C385 C 0.5355 0.15643 0.33461 0.0
C386 C 0.54899 0.12053 0.27918 0.0
H387 H 0.6543 0.1749 0.24907 0.0
H388 H 0.62115 0.16886 0.27818 0.0
H389 H 0.56672 0.11162 0.23515 0.0
H390 H 0.47911 0.11017 0.34198 0.0
H391 H 0.50766 0.10381 0.32279 0.0
H392 H 0.56833 0.15289 0.37386 0.0
C393 C 0.62267 0.15557 0.26869 0.0
C394 C 0.56705 0.12027 0.26611 0.0
C395 C 0.64167 0.15902 0.25164 0.0
C396 C 0.49476 0.12325 0.3398 0.0
C397 C 0.51106 0.11959 0.32875 0.0
C398 C 0.56769 0.14364 0.34377 0.0
C399 C 0.60574 0.13533 0.27278 0.0
C400 C 0.58571 0.13233 0.29086 0.0
C401 C 0.53164 0.13617 0.32687 0.0
C402 C 0.54939 0.13284 0.31716 0.0
H403 H 0.62899 0.10876 0.23241 0.0
H404 H 0.59536 0.10276 0.26199 0.0
H405 H 0.59968 0.15253 0.35099 0.0
H406 H 0.52314 0.17597 0.35141 0.0
H407 H 0.55112 0.16958 0.33231 0.0
C408 C 0.3714 0.49803 0.48433 0.0
C409 C 0.36222 0.49885 0.52673 0.0
C410 C 0.39146 0.51387 0.47277 0.0
C411 C 0.42871 0.56885 0.5049 0.0
H412 H 0.46504 0.5617 0.41875 0.0
C413 C 0.51194 0.6328 0.4422 0.0
C414 C 0.50817 0.64097 0.4012 0.0
C415 C 0.49656 0.61367 0.46016 0.0
C416 C 0.45512 0.56377 0.44339 0.0
H417 H 0.36711 0.51572 0.5919 0.0
H418 H 0.40243 0.54251 0.57347 0.0
H419 H 0.43352 0.53114 0.44764 0.0
H420 H 0.48598 0.63502 0.34531 0.0
H421 H 0.45941 0.60152 0.37631 0.0
H422 H 0.45042 0.60148 0.50033 0.0
C423 C 0.39398 0.53042 0.54774 0.0
C424 C 0.43695 0.54636 0.45952 0.0
C425 C 0.37379 0.51497 0.5586 0.0
C426 C 0.48924 0.62922 0.37724 0.0
C427 C 0.4741 0.61003 0.39468 0.0
C428 C 0.44696 0.58612 0.48935 0.0
C429 C 0.40289 0.53054 0.50399 0.0
C430 C 0.42327 0.54869 0.48989 0.0
C431 C 0.47749 0.60233 0.43666 0.0
C432 C 0.4601 0.58373 0.45801 0.0
H433 H 0.36269 0.48575 0.45915 0.0
H434 H 0.39758 0.51343 0.43854 0.0
H435 H 0.41849 0.57152 0.52723 0.0
H436 H 0.52636 0.64159 0.46142 0.0
H437 H 0.49929 0.60801 0.49295 0.0
C438 C 0.87869 0.50658 0.58079 0.0
C439 C 0.85826 0.50306 0.57808 0.0
C440 C 0.8823 0.49022 0.59179 0.0
C441 C 0.85583 0.43351 0.58306 0.0
H442 H 0.89215 0.43429 0.68197 0.0
C443 C 0.8411 0.35966 0.67379 0.0
C444 C 0.85758 0.35585 0.68162 0.0
C445 C 0.84485 0.37889 0.65769 0.0
C446 C 0.88227 0.434 0.65363 0.0
H447 H 0.82577 0.47985 0.58782 0.0
H448 H 0.83208 0.45177 0.60672 0.0
H449 H 0.89227 0.46646 0.66113 0.0
H450 H 0.89107 0.36961 0.67917 0.0
H451 H 0.89763 0.40366 0.65106 0.0
H452 H 0.84524 0.40112 0.57641 0.0
C453 C 0.84529 0.46696 0.5994 0.0
C454 C 0.88232 0.45236 0.64178 0.0
C455 C 0.8417 0.48314 0.58866 0.0
C456 C 0.87802 0.37198 0.67324 0.0
C457 C 0.8818 0.39147 0.65741 0.0
C458 C 0.85578 0.41532 0.59479 0.0
C459 C 0.86553 0.47014 0.59996 0.0
C460 C 0.8685 0.45205 0.60757 0.0
C461 C 0.86517 0.39498 0.64905 0.0
C462 C 0.86841 0.41516 0.63135 0.0
H463 H 0.8918 0.52175 0.57294 0.0
H464 H 0.89808 0.49309 0.59226 0.0
H465 H 0.84534 0.43292 0.55583 0.0
H466 H 0.82515 0.34772 0.67988 0.0
H467 H 0.83173 0.38123 0.65235 0.0
C468 C 0.35833 0.84141 0.75957 0.0
C469 C 0.35565 0.85792 0.74449 0.0
C470 C 0.37746 0.84507 0.77635 0.0
C471 C 0.43306 0.8799 0.76925 0.0
H472 H 0.43305 0.84911 0.87935 0.0
C473 C 0.50566 0.8765 0.84026 0.0
C474 C 0.50128 0.85612 0.84984 0.0
C475 C 0.48952 0.88051 0.82986 0.0
C476 C 0.43334 0.85787 0.84863 0.0
H477 H 0.37115 0.89131 0.73508 0.0
H478 H 0.40501 0.89768 0.76417 0.0
H479 H 0.40159 0.84956 0.85775 0.0
H480 H 0.47645 0.82396 0.85434 0.0
H481 H 0.44878 0.83097 0.83645 0.0
H482 H 0.46474 0.88749 0.75931 0.0
C483 C 0.39206 0.88192 0.76304 0.0
C484 C 0.41535 0.85815 0.83632 0.0
C485 C 0.37269 0.87827 0.74666 0.0
C486 C 0.48053 0.83989 0.84774 0.0
C487 C 0.46456 0.8439 0.8377 0.0
C488 C 0.45118 0.87961 0.78162 0.0
C489 C 0.39454 0.86531 0.77829 0.0
C490 C 0.41476 0.86851 0.79558 0.0
C491 C 0.46878 0.86424 0.82935 0.0
C492 C 0.4512 0.86792 0.82046 0.0
H493 H 0.34559 0.82554 0.75852 0.0
H494 H 0.37897 0.83192 0.78717 0.0
H495 H 0.43301 0.88799 0.73762 0.0
H496 H 0.52146 0.88936 0.84145 0.0
H497 H 0.4932 0.89633 0.82335 0.0
C498 C 0.49516 0.37333 0.90713 0.0
C499 C 0.49944 0.35732 0.89685 0.0
C500 C 0.5114 0.39356 0.91646 0.0
C501 C 0.56745 0.4273 0.89455 0.0
H502 H 0.56848 0.4579 0.00591 0.0
C503 C 0.64288 0.48614 0.98253 0.0
C504 C 0.6453 0.50493 0.99977 0.0
C505 C 0.62388 0.47086 0.96467 0.0
C506 C 0.56824 0.44974 0.97415 0.0
H507 H 0.52427 0.35012 0.88962 0.0
H508 H 0.55213 0.38494 0.90572 0.0
H509 H 0.53671 0.42555 0.98534 0.0
H510 H 0.6296 0.52248 0.01132 0.0
H511 H 0.59596 0.49535 0.98036 0.0
H512 H 0.59908 0.45088 0.88419 0.0
C513 C 0.53633 0.38204 0.90589 0.0
C514 C 0.55008 0.43123 0.96242 0.0
C515 C 0.52025 0.36196 0.89694 0.0
C516 C 0.62824 0.5082 0.99803 0.0
C517 C 0.60899 0.49267 0.98064 0.0
C518 C 0.58549 0.44568 0.90622 0.0
C519 C 0.53218 0.39814 0.91516 0.0
C520 C 0.5498 0.41945 0.92346 0.0
C521 C 0.60666 0.47382 0.96385 0.0
C522 C 0.58634 0.4567 0.94706 0.0
H523 H 0.47933 0.37032 0.90744 0.0
H524 H 0.50776 0.40569 0.92367 0.0
H525 H 0.56755 0.4188 0.8637 0.0
H526 H 0.65569 0.48311 0.98319 0.0
H527 H 0.62252 0.45641 0.95262 0.0
C528 C 0.24864 0.41291 0.64786 0.0
C529 C 0.26435 0.43258 0.63313 0.0
C530 C 0.23414 0.41113 0.68144 0.0
C531 C 0.21318 0.44095 0.7417 0.0
H532 H 0.20312 0.40288 0.84481 0.0
C533 C 0.18234 0.44981 0.91857 0.0
C534 C 0.16526 0.43195 0.93712 0.0
C535 C 0.19342 0.44826 0.88085 0.0
C536 C 0.20563 0.4134 0.81598 0.0
H537 H 0.27676 0.46575 0.64026 0.0
H538 H 0.25173 0.4627 0.69912 0.0
H539 H 0.22315 0.40291 0.7767 0.0
H540 H 0.14702 0.39838 0.93265 0.0
H541 H 0.16666 0.39566 0.86666 0.0
H542 H 0.19621 0.45187 0.78164 0.0
C543 C 0.25037 0.44862 0.68453 0.0
C544 C 0.21699 0.41337 0.77691 0.0
C545 C 0.26481 0.45038 0.65098 0.0
C546 C 0.16011 0.41239 0.91891 0.0
C547 C 0.17132 0.41083 0.88124 0.0
C548 C 0.20199 0.44108 0.78082 0.0
C549 C 0.23512 0.42899 0.70078 0.0
C550 C 0.22119 0.42741 0.73974 0.0
C551 C 0.18771 0.42882 0.86115 0.0
C552 C 0.19844 0.42758 0.81866 0.0
H553 H 0.24789 0.39892 0.63446 0.0
H554 H 0.22237 0.3958 0.6928 0.0
H555 H 0.2158 0.45167 0.71322 0.0
H556 H 0.18676 0.46509 0.93211 0.0
H557 H 0.20626 0.46232 0.86654 0.0
C558 C 0.75146 0.15858 0.09541 0.0
C559 C 0.73733 0.16433 0.11252 0.0
C560 C 0.7666 0.17111 0.06271 0.0
C561 C 0.79249 0.2238 0.01011 0.0
H562 H 0.79704 0.19605 0.89895 0.0
C563 C 0.81994 0.26554 0.83462 0.0
C564 C 0.83586 0.26413 0.81154 0.0
C565 C 0.80971 0.25268 0.87267 0.0
C566 C 0.79611 0.20395 0.93006 0.0
H567 H 0.72844 0.18799 0.11055 0.0
H568 H 0.75457 0.20965 0.0534 0.0
H569 H 0.77703 0.17545 0.96656 0.0
H570 H 0.85284 0.24747 0.80836 0.0
H571 H 0.83452 0.2246 0.87483 0.0
H572 H 0.81084 0.25223 0.97286 0.0
C573 C 0.7542 0.19565 0.06539 0.0
C574 C 0.78477 0.19221 0.96882 0.0
C575 C 0.73911 0.18316 0.09793 0.0
C576 C 0.84064 0.2489 0.82566 0.0
C577 C 0.83021 0.23584 0.86359 0.0
C578 C 0.80365 0.23547 0.97133 0.0
C579 C 0.76789 0.18961 0.04681 0.0
C580 C 0.7824 0.20202 0.00874 0.0
C581 C 0.81505 0.23804 0.8881 0.0
C582 C 0.80509 0.22563 0.93057 0.0
H583 H 0.75045 0.14415 0.10625 0.0
H584 H 0.77709 0.16619 0.04936 0.0
H585 H 0.79133 0.23181 0.04075 0.0
H586 H 0.81584 0.27706 0.82437 0.0
H587 H 0.79777 0.25438 0.89051 0.0
C588 C 0.59249 0.74744 0.2523 0.0
C589 C 0.57298 0.73144 0.26715 0.0
C590 C 0.594 0.76018 0.21458 0.0
C591 C 0.56565 0.75992 0.10903 0.0
H592 H 0.59947 0.81991 0.11429 0.0
C593 C 0.55438 0.81312 0.98191 0.0
C594 C 0.57171 0.8318 0.96752 0.0
C595 C 0.55654 0.80045 0.01481 0.0
C596 C 0.59027 0.80315 0.11189 0.0
H597 H 0.53976 0.71661 0.25538 0.0
H598 H 0.54242 0.73883 0.18968 0.0
H599 H 0.59935 0.7991 0.18088 0.0
H600 H 0.60505 0.85149 0.9746 0.0
H601 H 0.6089 0.82912 0.03194 0.0
H602 H 0.55642 0.76385 0.04034 0.0
C603 C 0.55653 0.74137 0.20676 0.0
C604 C 0.59015 0.79127 0.15009 0.0
C605 C 0.55501 0.72876 0.24457 0.0
C606 C 0.59141 0.83719 0.98522 0.0
C607 C 0.59359 0.82447 0.01825 0.0
C608 C 0.56587 0.77175 0.07078 0.0
C609 C 0.57604 0.75699 0.19095 0.0
C610 C 0.57749 0.76958 0.14936 0.0
C611 C 0.5761 0.80614 0.03397 0.0
C612 C 0.57783 0.79352 0.07217 0.0
H613 H 0.60659 0.74985 0.26914 0.0
H614 H 0.60923 0.77212 0.20303 0.0
H615 H 0.55607 0.74317 0.10719 0.0
H616 H 0.53899 0.80856 0.96888 0.0
H617 H 0.5427 0.7866 0.0266 0.0
C618 C 0.81565 0.55315 0.43363 0.0
C619 C 0.83395 0.57083 0.4485 0.0
C620 C 0.80277 0.55483 0.40049 0.0
C621 C 0.80413 0.5884 0.30428 0.0
H622 H 0.74434 0.55255 0.30884 0.0
C623 C 0.74714 0.58955 0.16585 0.0
C624 C 0.7316 0.56995 0.15013 0.0
C625 C 0.76006 0.5912 0.20331 0.0
C626 C 0.76103 0.56258 0.30704 0.0
H627 H 0.85277 0.60427 0.44182 0.0
H628 H 0.83 0.60729 0.38414 0.0
H629 H 0.76549 0.55328 0.37515 0.0
H630 H 0.71776 0.53672 0.16018 0.0
H631 H 0.74029 0.53962 0.22553 0.0
H632 H 0.79955 0.5976 0.23591 0.0
C633 C 0.82582 0.59207 0.39761 0.0
C634 C 0.77314 0.56301 0.34497 0.0
C635 C 0.83877 0.59037 0.43082 0.0
C636 C 0.72955 0.55204 0.17166 0.0
C637 C 0.74234 0.55369 0.20927 0.0
C638 C 0.79198 0.58807 0.26641 0.0
C639 C 0.80783 0.57426 0.3816 0.0
C640 C 0.79486 0.57559 0.34362 0.0
C641 C 0.75752 0.57327 0.22586 0.0
C642 C 0.77036 0.57483 0.26709 0.0
H643 H 0.81154 0.53787 0.44659 0.0
H644 H 0.7892 0.54076 0.38845 0.0
H645 H 0.82085 0.59809 0.3019 0.0
H646 H 0.74907 0.60361 0.14982 0.0
H647 H 0.77164 0.60648 0.2155 0.0
C648 C 0.18037 0.73487 0.33188 0.0
C649 C 0.16428 0.73648 0.31019 0.0
C650 C 0.19142 0.7479 0.36913 0.0
C651 C 0.2062 0.79688 0.42775 0.0
H652 H 0.21135 0.7685 0.53703 0.0
C653 C 0.24954 0.84111 0.5958 0.0
C654 C 0.2636 0.83541 0.61366 0.0
C655 C 0.23496 0.82884 0.56174 0.0
C656 C 0.21013 0.77667 0.50675 0.0
H657 H 0.14791 0.75376 0.30842 0.0
H658 H 0.16758 0.77688 0.37363 0.0
H659 H 0.19171 0.74842 0.46884 0.0
H660 H 0.273 0.81214 0.61137 0.0
H661 H 0.24784 0.79093 0.55183 0.0
H662 H 0.22524 0.82521 0.46509 0.0
C663 C 0.17143 0.76537 0.36187 0.0
C664 C 0.1989 0.76518 0.46778 0.0
C665 C 0.16021 0.75217 0.32466 0.0
C666 C 0.26235 0.81691 0.59825 0.0
C667 C 0.24783 0.80469 0.56431 0.0
C668 C 0.21762 0.80843 0.46673 0.0
C669 C 0.18671 0.7629 0.38523 0.0
C670 C 0.19722 0.7752 0.42758 0.0
C671 C 0.23418 0.81067 0.54513 0.0
C672 C 0.22006 0.79844 0.50622 0.0
H673 H 0.18397 0.72304 0.32126 0.0
H674 H 0.20343 0.74598 0.38601 0.0
H675 H 0.20511 0.80493 0.3971 0.0
H676 H 0.25015 0.85529 0.6072 0.0
H677 H 0.22448 0.8337 0.54801 0.0
C678 C 0.40883 0.24919 0.76053 0.0
C679 C 0.42873 0.26376 0.77692 0.0
C680 C 0.40654 0.23608 0.7229 0.0
C681 C 0.4343 0.23583 0.61843 0.0
H682 H 0.39906 0.17596 0.61752 0.0
C683 C 0.44513 0.18463 0.48513 0.0
C684 C 0.42785 0.16618 0.46948 0.0
C685 C 0.44288 0.19677 0.51933 0.0
C686 C 0.40863 0.19271 0.61681 0.0
H687 H 0.46173 0.27524 0.76874 0.0
H688 H 0.45768 0.25251 0.70302 0.0
H689 H 0.39943 0.19582 0.68652 0.0
H690 H 0.39449 0.14639 0.4756 0.0
H691 H 0.39046 0.1679 0.53503 0.0
H692 H 0.44355 0.23297 0.54905 0.0
C693 C 0.44391 0.25137 0.71892 0.0
C694 C 0.40891 0.20401 0.6564 0.0
C695 C 0.44619 0.26427 0.7567 0.0
C696 C 0.4081 0.16053 0.48718 0.0
C697 C 0.40582 0.17275 0.52143 0.0
C698 C 0.43386 0.22461 0.57877 0.0
C699 C 0.42413 0.23755 0.70094 0.0
C700 C 0.42218 0.22559 0.65792 0.0
C701 C 0.42326 0.19081 0.53848 0.0
C702 C 0.42146 0.20287 0.57796 0.0
H703 H 0.3951 0.24845 0.77558 0.0
H704 H 0.39112 0.22547 0.70964 0.0
H705 H 0.44434 0.25254 0.61847 0.0
H706 H 0.46057 0.18938 0.47218 0.0
H707 H 0.45671 0.21039 0.53209 0.0
C708 C 0.05931 0.40127 0.99573 0.0
C709 C 0.07716 0.41717 0.97406 0.0
C710 C 0.04027 0.39142 0.97145 0.0
C711 C 0.01375 0.397 0.86424 0.0
H712 H 0.97682 0.33796 0.88153 0.0
C713 C 0.94128 0.34647 0.7455 0.0
C714 C 0.92292 0.33556 0.77171 0.0
C715 C 0.96066 0.35624 0.76845 0.0
C716 C 0.98705 0.35446 0.87628 0.0
H717 H 0.08884 0.43539 0.91012 0.0
H718 H 0.05637 0.41808 0.86805 0.0
H719 H 0.00886 0.35577 0.92726 0.0
H720 H 0.91047 0.32561 0.84197 0.0
H721 H 0.94397 0.342 0.88122 0.0
H722 H 0.99198 0.39543 0.81246 0.0
C723 C 0.05663 0.41337 0.90395 0.0
C724 C 0.00532 0.36475 0.90289 0.0
C725 C 0.07544 0.42326 0.92819 0.0
C726 C 0.92432 0.33408 0.82077 0.0
C727 C 0.94352 0.34333 0.84334 0.0
C728 C 0.99566 0.38663 0.83711 0.0
C729 C 0.03874 0.3972 0.92491 0.0
C730 C 0.01892 0.38622 0.89746 0.0
C731 C 0.9619 0.35468 0.81765 0.0
C732 C 0.98205 0.36529 0.84309 0.0
H733 H 0.06013 0.39619 0.03097 0.0
H734 H 0.02678 0.37925 0.98915 0.0
H735 H 0.02351 0.41359 0.85955 0.0
H736 H 0.94063 0.34784 0.7077 0.0
H737 H 0.97466 0.36492 0.74785 0.0
C738 C 0.59538 0.93928 0.91791 0.0
C739 C 0.58433 0.92063 0.94312 0.0
C740 C 0.60456 0.95845 0.94162 0.0
C741 C 0.62549 0.98217 0.05664 0.0
H742 H 0.61425 0.02553 0.01819 0.0
C743 C 0.65437 0.05767 0.16687 0.0
C744 C 0.66052 0.07612 0.1418 0.0
C745 C 0.64439 0.03839 0.14357 0.0
C746 C 0.61791 0.01379 0.02913 0.0
H747 H 0.57444 0.90752 0.01298 0.0
H748 H 0.59069 0.94067 0.05378 0.0
H749 H 0.59962 0.99335 0.97328 0.0
H750 H 0.66122 0.08871 0.07246 0.0
H751 H 0.64486 0.05577 0.03227 0.0
H752 H 0.64425 0.00266 0.11162 0.0
C753 C 0.59219 0.94056 0.01589 0.0
C754 C 0.60943 0.9953 0.00329 0.0
C755 C 0.58275 0.92157 0.99231 0.0
C756 C 0.65649 0.07484 0.0932 0.0
C757 C 0.64688 0.05578 0.06998 0.0
C758 C 0.63429 0.00081 0.08204 0.0
C759 C 0.60321 0.95922 0.99094 0.0
C760 C 0.61307 0.97928 0.01685 0.0
C761 C 0.64061 0.0372 0.09462 0.0
C762 C 0.63064 0.01693 0.0687 0.0
H763 H 0.5969 0.93906 0.88007 0.0
H764 H 0.61302 0.97265 0.92155 0.0
H765 H 0.62862 0.97008 0.06778 0.0
H766 H 0.65727 0.05814 0.20431 0.0
H767 H 0.63958 0.02445 0.16402 0.0
C768 C 0.67103 0.60966 0.09078 0.0
C769 C 0.66163 0.58792 0.09179 0.0
C770 C 0.6626 0.61969 0.11687 0.0
C771 C 0.61549 0.6133 0.17209 0.0
H772 H 0.65115 0.65078 0.26936 0.0
C773 C 0.58089 0.64208 0.31307 0.0
C774 C 0.59277 0.66262 0.3288 0.0
C775 C 0.59002 0.63288 0.28682 0.0
C776 C 0.641 0.64064 0.24203 0.0
H777 H 0.63562 0.55959 0.11855 0.0
H778 H 0.62031 0.57703 0.16194 0.0
H779 H 0.66519 0.63632 0.21271 0.0
H780 H 0.62351 0.68962 0.33048 0.0
H781 H 0.63949 0.67396 0.28318 0.0
H782 H 0.59146 0.61792 0.19966 0.0
C783 C 0.63433 0.58633 0.14177 0.0
C784 C 0.6491 0.63236 0.20958 0.0
C785 C 0.64303 0.57636 0.11683 0.0
C786 C 0.61415 0.67356 0.31966 0.0
C787 C 0.62325 0.66454 0.29228 0.0
C788 C 0.60749 0.62188 0.20381 0.0
C789 C 0.64436 0.60809 0.14326 0.0
C790 C 0.63634 0.61842 0.17469 0.0
C791 C 0.61114 0.64426 0.2741 0.0
C792 C 0.62001 0.63543 0.23985 0.0
H793 H 0.68559 0.61891 0.07243 0.0
H794 H 0.67057 0.6365 0.11737 0.0
H795 H 0.60536 0.60267 0.14533 0.0
H796 H 0.5643 0.63342 0.31938 0.0
H797 H 0.58025 0.61702 0.27514 0.0
C798 C 0.05849 0.66656 0.25415 0.0
C799 C 0.07432 0.66247 0.26727 0.0
C800 C 0.03925 0.6566 0.27754 0.0
C801 C 0.00615 0.6111 0.35301 0.0
H802 H 0.98299 0.64424 0.39936 0.0
C803 C 0.92586 0.57452 0.4413 0.0
C804 C 0.9232 0.58452 0.48041 0.0
C805 C 0.94433 0.58386 0.41573 0.0
C806 C 0.98937 0.63482 0.38697 0.0
H807 H 0.08214 0.64419 0.31346 0.0
H808 H 0.04889 0.62682 0.35324 0.0
H809 H 0.01414 0.66036 0.34994 0.0
H810 H 0.93811 0.61209 0.52397 0.0
H811 H 0.97073 0.62853 0.47918 0.0
H812 H 0.98176 0.58568 0.39045 0.0
C813 C 0.05112 0.63763 0.32527 0.0
C814 C 0.00702 0.64399 0.35806 0.0
C815 C 0.07025 0.64768 0.30251 0.0
C816 C 0.93976 0.60393 0.49423 0.0
C817 C 0.95831 0.61343 0.46824 0.0
C818 C 0.98853 0.60195 0.38161 0.0
C819 C 0.03547 0.64218 0.31377 0.0
C820 C 0.01571 0.63225 0.34104 0.0
C821 C 0.96071 0.60356 0.42834 0.0
C822 C 0.97992 0.61368 0.39912 0.0
H823 H 0.06128 0.67803 0.22741 0.0
H824 H 0.02741 0.66031 0.26764 0.0
H825 H 0.01236 0.60157 0.34032 0.0
H826 H 0.9134 0.55957 0.4296 0.0
H827 H 0.9455 0.57588 0.38504 0.0
C828 C 0.41894 0.07765 0.49427 0.0
C829 C 0.41686 0.07834 0.44517 0.0
C830 C 0.40963 0.05878 0.51827 0.0
C831 C 0.39166 0.00386 0.50671 0.0
H832 H 0.35724 0.9973 0.61511 0.0
C833 C 0.34366 0.92464 0.59677 0.0
C834 C 0.3397 0.92348 0.64536 0.0
C835 C 0.3535 0.94367 0.57354 0.0
C836 C 0.3671 0.99893 0.58553 0.0
H837 H 0.40361 0.05961 0.38269 0.0
H838 H 0.38772 0.02624 0.42488 0.0
H839 H 0.37322 0.02979 0.57101 0.0
H840 H 0.34331 0.9416 0.70786 0.0
H841 H 0.36144 0.97524 0.66756 0.0
H842 H 0.38638 0.97349 0.52184 0.0
C843 C 0.39647 0.04053 0.44456 0.0
C844 C 0.37609 0.01751 0.55999 0.0
C845 C 0.40552 0.05957 0.42045 0.0
C846 C 0.34614 0.94199 0.67042 0.0
C847 C 0.35638 0.96124 0.64712 0.0
C848 C 0.38299 0.98543 0.53271 0.0
C849 C 0.39825 0.04002 0.49381 0.0
C850 C 0.38834 0.0201 0.52014 0.0
C851 C 0.36011 0.96232 0.59819 0.0
C852 C 0.37038 0.98256 0.57226 0.0
H853 H 0.42749 0.09179 0.51456 0.0
H854 H 0.41145 0.05884 0.5561 0.0
H855 H 0.40133 0.00558 0.47664 0.0
H856 H 0.33869 0.91071 0.57605 0.0
H857 H 0.35546 0.94361 0.53583 0.0
C858 C 0.33951 0.41591 0.65464 0.0
C859 C 0.33717 0.41479 0.60545 0.0
C860 C 0.34915 0.40647 0.67763 0.0
C861 C 0.36569 0.36717 0.66296 0.0
H862 H 0.39772 0.39385 0.77533 0.0
C863 C 0.41857 0.34175 0.75524 0.0
C864 C 0.41634 0.3387 0.80423 0.0
C865 C 0.40882 0.35089 0.73124 0.0
C866 C 0.38866 0.38613 0.74429 0.0
H867 H 0.34308 0.40267 0.54175 0.0
H868 H 0.36078 0.3866 0.58193 0.0
H869 H 0.38206 0.41046 0.73074 0.0
H870 H 0.40233 0.34321 0.86655 0.0
H871 H 0.38564 0.35989 0.82443 0.0
H872 H 0.37308 0.34319 0.67606 0.0
C873 C 0.35471 0.39453 0.60282 0.0
C874 C 0.3796 0.3956 0.71864 0.0
C875 C 0.34469 0.40382 0.57966 0.0
C876 C 0.40438 0.3454 0.82887 0.0
C877 C 0.39486 0.35493 0.80479 0.0
C878 C 0.37506 0.35787 0.68827 0.0
C879 C 0.35715 0.39583 0.65223 0.0
C880 C 0.36777 0.38616 0.67784 0.0
C881 C 0.39681 0.35753 0.75561 0.0
C882 C 0.38652 0.36719 0.72937 0.0
H883 H 0.33362 0.42392 0.67586 0.0
H884 H 0.35006 0.40733 0.71565 0.0
H885 H 0.3565 0.35924 0.63227 0.0
H886 H 0.42759 0.33672 0.735 0.0
H887 H 0.41081 0.3529 0.6935 0.0
loop_
_geom_bond_atom_site_label_1
_geom_bond_atom_site_label_2
_geom_bond_distance
_geom_bond_site_symmetry_2
_ccdc_geom_bond_type
Co0 O1 2.216 1_554 S
Co0 O2 2.091 . S
Co0 O4 2.004 . S
Co0 O10 2.021 . S
Co0 O12 2.137 1_554 S
Co0 O13 2.244 1_554 S
O1 Co0 2.216 1_556 S
O1 C8 1.247 . S
O2 Co0 2.091 . S
O2 C8 1.261 1_554 S
C3 O12 1.247 . S
C3 O13 1.272 . S
O4 Co0 2.004 . S
O4 C9 1.259 . S
Co5 O6 2.061 . S
Co5 O11 2.052 . S
Co5 O13 2.135 1_554 S
O6 Co5 2.061 . S
O6 C9 1.235 . S
C7 O10 1.238 . S
C7 O11 1.241 . S
C8 O1 1.247 . S
C8 O2 1.261 1_556 S
C9 O4 1.259 . S
C9 O6 1.235 . S
O10 Co0 2.021 . S
O10 C7 1.238 . S
O11 Co5 2.052 . S
O11 C7 1.241 . S
O12 Co0 2.137 1_556 S
O12 C3 1.247 . S
O13 Co0 2.244 1_556 S
O13 C3 1.272 . S
O13 Co5 2.135 1_556 S
Co14 O15 2.216 . S
Co14 O16 2.091 . S
Co14 O18 2.004 . S
Co14 O24 2.021 . S
Co14 O26 2.137 . S
Co14 O27 2.244 . S
O15 Co14 2.216 . S
O15 C22 1.247 . S
O16 Co14 2.091 . S
O16 C22 1.261 . S
C17 O26 1.247 . S
C17 O27 1.272 . S
O18 Co14 2.004 . S
O18 C23 1.259 . S
Co19 O20 2.061 . S
Co19 O25 2.052 . S
Co19 O27 2.135 . S
O20 Co19 2.061 . S
O20 C23 1.235 . S
C21 O24 1.238 . S
C21 O25 1.241 . S
C22 O15 1.247 . S
C22 O16 1.261 . S
C23 O18 1.259 . S
C23 O20 1.235 . S
O24 Co14 2.021 . S
O24 C21 1.238 . S
O25 Co19 2.052 . S
O25 C21 1.241 . S
O26 Co14 2.137 . S
O26 C17 1.247 . S
O27 Co14 2.244 . S
O27 C17 1.272 . S
O27 Co19 2.135 . S
Co28 O29 2.216 . S
Co28 O30 2.091 . S
Co28 O32 2.004 . S
Co28 O38 2.021 . S
Co28 O40 2.137 . S
Co28 O41 2.244 . S
O29 Co28 2.216 . S
O29 C36 1.247 . S
O30 Co28 2.091 . S
O30 C36 1.261 . S
C31 O40 1.247 . S
C31 O41 1.272 . S
O32 Co28 2.004 . S
O32 C37 1.259 . S
Co33 O34 2.061 . S
Co33 O39 2.052 . S
Co33 O41 2.135 . S
O34 Co33 2.061 . S
O34 C37 1.235 . S
C35 O38 1.238 . S
C35 O39 1.241 . S
C36 O29 1.247 . S
C36 O30 1.261 . S
C37 O32 1.259 . S
C37 O34 1.235 . S
O38 Co28 2.021 . S
O38 C35 1.238 . S
O39 Co33 2.052 . S
O39 C35 1.241 . S
O40 Co28 2.137 . S
O40 C31 1.247 . S
O41 Co28 2.244 . S
O41 C31 1.272 . S
O41 Co33 2.135 . S
Co42 O43 2.216 . S
Co42 O44 2.091 . S
Co42 O46 2.004 . S
Co42 O52 2.021 . S
Co42 O54 2.137 . S
Co42 O55 2.244 . S
O43 Co42 2.216 . S
O43 C50 1.247 . S
O44 Co42 2.091 . S
O44 C50 1.261 . S
C45 O54 1.247 . S
C45 O55 1.272 . S
O46 Co42 2.004 . S
O46 C51 1.259 . S
Co47 O48 2.061 . S
Co47 O53 2.052 . S
Co47 O55 2.135 . S
O48 Co47 2.061 . S
O48 C51 1.235 . S
C49 O52 1.238 . S
C49 O53 1.241 . S
C50 O43 1.247 . S
C50 O44 1.261 . S
C51 O46 1.259 . S
C51 O48 1.235 . S
O52 Co42 2.021 . S
O52 C49 1.238 . S
O53 Co47 2.052 . S
O53 C49 1.241 . S
O54 Co42 2.137 . S
O54 C45 1.247 . S
O55 Co42 2.244 . S
O55 C45 1.272 . S
O55 Co47 2.135 . S
Co56 O57 2.216 . S
Co56 O58 2.091 . S
Co56 O60 2.004 . S
Co56 O66 2.021 . S
Co56 O68 2.137 . S
Co56 O69 2.244 . S
O57 Co56 2.216 . S
O57 C64 1.247 . S
O58 Co56 2.091 . S
O58 C64 1.261 . S
C59 O68 1.247 . S
C59 O69 1.272 . S
O60 Co56 2.004 . S
O60 C65 1.259 . S
Co61 O62 2.061 . S
Co61 O67 2.052 . S
Co61 O69 2.135 . S
O62 Co61 2.061 . S
O62 C65 1.235 . S
C63 O66 1.238 . S
C63 O67 1.241 . S
C64 O57 1.247 . S
C64 O58 1.261 . S
C65 O60 1.259 . S
C65 O62 1.235 . S
O66 Co56 2.021 . S
O66 C63 1.238 . S
O67 Co61 2.052 . S
O67 C63 1.241 . S
O68 Co56 2.137 . S
O68 C59 1.247 . S
O69 Co56 2.244 . S
O69 C59 1.272 . S
O69 Co61 2.135 . S
Co70 O71 2.216 . S
Co70 O72 2.091 . S
Co70 O74 2.004 . S
Co70 O80 2.021 . S
Co70 O82 2.137 . S
Co70 O83 2.244 . S
O71 Co70 2.216 . S
O71 C78 1.247 . S
O72 Co70 2.091 . S
O72 C78 1.261 . S
C73 O82 1.247 . S
C73 O83 1.272 . S
O74 Co70 2.004 . S
O74 C79 1.259 . S
Co75 O76 2.061 . S
Co75 O81 2.052 . S
Co75 O83 2.135 . S
O76 Co75 2.061 . S
O76 C79 1.235 . S
C77 O80 1.238 . S
C77 O81 1.241 . S
C78 O71 1.247 . S
C78 O72 1.261 . S
C79 O74 1.259 . S
C79 O76 1.235 . S
O80 Co70 2.021 . S
O80 C77 1.238 . S
O81 Co75 2.052 . S
O81 C77 1.241 . S
O82 Co70 2.137 . S
O82 C73 1.247 . S
O83 Co70 2.244 . S
O83 C73 1.272 . S
O83 Co75 2.135 . S
Co84 O85 2.216 . S
Co84 O86 2.091 . S
Co84 O88 2.004 . S
Co84 O94 2.021 . S
Co84 O96 2.137 . S
Co84 O97 2.244 . S
O85 Co84 2.216 . S
O85 C92 1.247 . S
O86 Co84 2.091 . S
O86 C92 1.261 . S
C87 O96 1.247 . S
C87 O97 1.272 . S
O88 Co84 2.004 . S
O88 C93 1.259 . S
Co89 O90 2.061 . S
Co89 O95 2.052 . S
Co89 O97 2.135 . S
O90 Co89 2.061 . S
O90 C93 1.235 . S
C91 O94 1.238 . S
C91 O95 1.241 . S
C92 O85 1.247 . S
C92 O86 1.261 . S
C93 O88 1.259 . S
C93 O90 1.235 . S
O94 Co84 2.021 . S
O94 C91 1.238 . S
O95 Co89 2.052 . S
O95 C91 1.241 . S
O96 Co84 2.137 . S
O96 C87 1.247 . S
O97 Co84 2.244 . S
O97 C87 1.272 . S
O97 Co89 2.135 . S
Co98 O99 2.216 . S
Co98 O100 2.091 . S
Co98 O102 2.004 1_554 S
Co98 O108 2.021 . S
Co98 O110 2.137 . S
Co98 O111 2.244 . S
O99 Co98 2.216 . S
O99 C106 1.247 . S
O100 Co98 2.091 . S
O100 C106 1.261 . S
C101 O110 1.247 . S
C101 O111 1.272 . S
O102 Co98 2.004 1_556 S
O102 C107 1.259 . S
Co103 O104 2.061 1_554 S
Co103 O109 2.052 . S
Co103 O111 2.135 . S
O104 Co103 2.061 1_556 S
O104 C107 1.235 . S
C105 O108 1.238 . S
C105 O109 1.241 . S
C106 O99 1.247 . S
C106 O100 1.261 . S
C107 O102 1.259 . S
C107 O104 1.235 . S
O108 Co98 2.021 . S
O108 C105 1.238 . S
O109 Co103 2.052 . S
O109 C105 1.241 . S
O110 Co98 2.137 . S
O110 C101 1.247 . S
O111 Co98 2.244 . S
O111 C101 1.272 . S
O111 Co103 2.135 . S
Co112 O113 2.216 . S
Co112 O114 2.091 . S
Co112 O116 2.004 . S
Co112 O122 2.021 . S
Co112 O124 2.137 . S
Co112 O125 2.244 . S
O113 Co112 2.216 . S
O113 C120 1.247 . S
O114 Co112 2.091 . S
O114 C120 1.261 . S
C115 O124 1.247 . S
C115 O125 1.272 . S
O116 Co112 2.004 . S
O116 C121 1.259 . S
Co117 O118 2.061 . S
Co117 O123 2.052 . S
Co117 O125 2.135 . S
O118 Co117 2.061 . S
O118 C121 1.235 . S
C119 O122 1.238 . S
C119 O123 1.241 . S
C120 O113 1.247 . S
C120 O114 1.261 . S
C121 O116 1.259 . S
C121 O118 1.235 . S
O122 Co112 2.021 . S
O122 C119 1.238 . S
O123 Co117 2.052 . S
O123 C119 1.241 . S
O124 Co112 2.137 . S
O124 C115 1.247 . S
O125 Co112 2.244 . S
O125 C115 1.272 . S
O125 Co117 2.135 . S
Co126 O127 2.216 . S
Co126 O128 2.091 . S
Co126 O130 2.004 . S
Co126 O136 2.021 . S
Co126 O138 2.137 . S
Co126 O139 2.244 . S
O127 Co126 2.216 . S
O127 C134 1.247 . S
O128 Co126 2.091 . S
O128 C134 1.261 . S
C129 O138 1.247 . S
C129 O139 1.272 . S
O130 Co126 2.004 . S
O130 C135 1.259 . S
Co131 O132 2.061 . S
Co131 O137 2.052 . S
Co131 O139 2.135 . S
O132 Co131 2.061 . S
O132 C135 1.235 . S
C133 O136 1.238 . S
C133 O137 1.241 . S
C134 O127 1.247 . S
C134 O128 1.261 . S
C135 O130 1.259 . S
C135 O132 1.235 . S
O136 Co126 2.021 . S
O136 C133 1.238 . S
O137 Co131 2.052 . S
O137 C133 1.241 . S
O138 Co126 2.137 . S
O138 C129 1.247 . S
O139 Co126 2.244 . S
O139 C129 1.272 . S
O139 Co131 2.135 . S
Co140 O141 2.216 . S
Co140 O142 2.091 . S
Co140 O144 2.004 . S
Co140 O150 2.021 . S
Co140 O152 2.137 . S
Co140 O153 2.244 . S
O141 Co140 2.216 . S
O141 C148 1.247 . S
O142 Co140 2.091 . S
O142 C148 1.261 . S
C143 O152 1.247 . S
C143 O153 1.272 . S
O144 Co140 2.004 . S
O144 C149 1.259 . S
Co145 O146 2.061 . S
Co145 O151 2.052 . S
Co145 O153 2.135 . S
O146 Co145 2.061 . S
O146 C149 1.235 . S
C147 O150 1.238 . S
C147 O151 1.241 . S
C148 O141 1.247 . S
C148 O142 1.261 . S
C149 O144 1.259 . S
C149 O146 1.235 . S
O150 Co140 2.021 . S
O150 C147 1.238 . S
O151 Co145 2.052 . S
O151 C147 1.241 . S
O152 Co140 2.137 . S
O152 C143 1.247 . S
O153 Co140 2.244 . S
O153 C143 1.272 . S
O153 Co145 2.135 . S
Co154 O155 2.216 . S
Co154 O156 2.091 . S
Co154 O158 2.004 . S
Co154 O164 2.021 . S
Co154 O166 2.137 . S
Co154 O167 2.244 . S
O155 Co154 2.216 . S
O155 C162 1.247 . S
O156 Co154 2.091 . S
O156 C162 1.261 . S
C157 O166 1.247 . S
C157 O167 1.272 . S
O158 Co154 2.004 . S
O158 C163 1.259 . S
Co159 O160 2.061 . S
Co159 O165 2.052 . S
Co159 O167 2.135 . S
O160 Co159 2.061 . S
O160 C163 1.235 . S
C161 O164 1.238 . S
C161 O165 1.241 . S
C162 O155 1.247 . S
C162 O156 1.261 . S
C163 O158 1.259 . S
C163 O160 1.235 . S
O164 Co154 2.021 . S
O164 C161 1.238 . S
O165 Co159 2.052 . S
O165 C161 1.241 . S
O166 Co154 2.137 . S
O166 C157 1.247 . S
O167 Co154 2.244 . S
O167 C157 1.272 . S
O167 Co159 2.135 . S
C168 C169 1.349 . S
C168 C170 1.327 . S
C168 H193 0.950 . S
C169 C168 1.349 . S
C169 C185 1.349 . S
C170 C168 1.327 . S
C170 C189 1.429 . S
C170 H194 0.950 . S
C171 C188 1.574 . S
C171 C190 1.368 . S
C171 H195 0.949 . S
H172 C176 0.949 . S
C173 C174 1.349 . S
C173 C175 1.327 . S
C173 H196 0.950 . S
C174 C173 1.349 . S
C174 C186 1.349 . S
C175 C173 1.327 . S
C175 C191 1.429 . S
C175 H197 0.950 . S
C176 H172 0.949 . S
C176 C184 1.574 . S
C176 C192 1.368 . S
H177 C185 0.950 . S
H178 C183 0.950 . S
H179 C184 0.949 . S
H180 C186 0.950 . S
H181 C187 0.950 . S
H182 C188 0.949 . S
C183 H178 0.950 . S
C183 C185 1.327 . S
C183 C189 1.429 . S
C184 C176 1.574 . S
C184 H179 0.949 . S
C184 C190 1.368 . S
C185 C169 1.349 . S
C185 H177 0.950 . S
C185 C183 1.327 . S
C186 C174 1.349 . S
C186 H180 0.950 . S
C186 C187 1.327 . S
C187 H181 0.950 . S
C187 C186 1.327 . S
C187 C191 1.429 . S
C188 C171 1.574 . S
C188 H182 0.949 . S
C188 C192 1.368 . S
C189 C170 1.429 . S
C189 C183 1.429 . S
C189 C190 1.523 . S
C190 C171 1.368 . S
C190 C184 1.368 . S
C190 C189 1.523 . S
C191 C175 1.429 . S
C191 C187 1.429 . S
C191 C192 1.523 . S
C192 C176 1.368 . S
C192 C188 1.368 . S
C192 C191 1.523 . S
H193 C168 0.950 . S
H194 C170 0.950 . S
H195 C171 0.949 . S
H196 C173 0.950 . S
H197 C175 0.950 . S
C198 C199 1.349 . S
C198 C200 1.327 . S
C198 H223 0.950 . S
C199 C198 1.349 . S
C199 C215 1.349 . S
C200 C198 1.327 . S
C200 C219 1.429 . S
C200 H224 0.950 . S
C201 C218 1.574 . S
C201 C220 1.368 . S
C201 H225 0.949 . S
H202 C206 0.949 . S
C203 C204 1.349 . S
C203 C205 1.327 . S
C203 H226 0.950 . S
C204 C203 1.349 . S
C204 C216 1.349 . S
C205 C203 1.327 . S
C205 C221 1.429 . S
C205 H227 0.950 . S
C206 H202 0.949 . S
C206 C214 1.574 . S
C206 C222 1.368 . S
H207 C215 0.950 . S
H208 C213 0.950 . S
H209 C214 0.949 . S
H210 C216 0.950 . S
H211 C217 0.950 . S
H212 C218 0.949 . S
C213 H208 0.950 . S
C213 C215 1.327 . S
C213 C219 1.429 . S
C214 C206 1.574 . S
C214 H209 0.949 . S
C214 C220 1.368 . S
C215 C199 1.349 . S
C215 H207 0.950 . S
C215 C213 1.327 . S
C216 C204 1.349 . S
C216 H210 0.950 . S
C216 C217 1.327 . S
C217 H211 0.950 . S
C217 C216 1.327 . S
C217 C221 1.429 . S
C218 C201 1.574 . S
C218 H212 0.949 . S
C218 C222 1.368 . S
C219 C200 1.429 . S
C219 C213 1.429 . S
C219 C220 1.523 . S
C220 C201 1.368 . S
C220 C214 1.368 . S
C220 C219 1.523 . S
C221 C205 1.429 . S
C221 C217 1.429 . S
C221 C222 1.523 . S
C222 C206 1.368 . S
C222 C218 1.368 . S
C222 C221 1.523 . S
H223 C198 0.950 . S
H224 C200 0.950 . S
H225 C201 0.949 . S
H226 C203 0.950 . S
H227 C205 0.950 . S
C228 C229 1.349 . S
C228 C230 1.327 . S
C228 H253 0.950 . S
C229 C228 1.349 . S
C229 C245 1.349 . S
C230 C228 1.327 . S
C230 C249 1.429 . S
C230 H254 0.950 . S
C231 C248 1.574 . S
C231 C250 1.368 . S
C231 H255 0.949 . S
H232 C236 0.949 . S
C233 C234 1.349 . S
C233 C235 1.327 . S
C233 H256 0.950 . S
C234 C233 1.349 . S
C234 C246 1.349 . S
C235 C233 1.327 . S
C235 C251 1.429 . S
C235 H257 0.950 . S
C236 H232 0.949 . S
C236 C244 1.574 . S
C236 C252 1.368 . S
H237 C245 0.950 . S
H238 C243 0.950 . S
H239 C244 0.949 . S
H240 C246 0.950 . S
H241 C247 0.950 . S
H242 C248 0.949 . S
C243 H238 0.950 . S
C243 C245 1.327 . S
C243 C249 1.429 . S
C244 C236 1.574 . S
C244 H239 0.949 . S
C244 C250 1.368 . S
C245 C229 1.349 . S
C245 H237 0.950 . S
C245 C243 1.327 . S
C246 C234 1.349 . S
C246 H240 0.950 . S
C246 C247 1.327 . S
C247 H241 0.950 . S
C247 C246 1.327 . S
C247 C251 1.429 . S
C248 C231 1.574 . S
C248 H242 0.949 . S
C248 C252 1.368 . S
C249 C230 1.429 . S
C249 C243 1.429 . S
C249 C250 1.523 . S
C250 C231 1.368 . S
C250 C244 1.368 . S
C250 C249 1.523 . S
C251 C235 1.429 . S
C251 C247 1.429 . S
C251 C252 1.523 . S
C252 C236 1.368 . S
C252 C248 1.368 . S
C252 C251 1.523 . S
H253 C228 0.950 . S
H254 C230 0.950 . S
H255 C231 0.949 . S
H256 C233 0.950 . S
H257 C235 0.950 . S
C258 C259 1.349 . S
C258 C260 1.327 . S
C258 H283 0.950 . S
C259 C258 1.349 . S
C259 C275 1.349 . S
C260 C258 1.327 . S
C260 C279 1.429 . S
C260 H284 0.950 . S
C261 C278 1.574 . S
C261 C280 1.368 . S
C261 H285 0.949 . S
H262 C266 0.949 . S
C263 C264 1.349 . S
C263 C265 1.327 . S
C263 H286 0.950 . S
C264 C263 1.349 . S
C264 C276 1.349 . S
C265 C263 1.327 . S
C265 C281 1.429 . S
C265 H287 0.950 . S
C266 H262 0.949 . S
C266 C274 1.574 . S
C266 C282 1.368 . S
H267 C275 0.950 . S
H268 C273 0.950 . S
H269 C274 0.949 . S
H270 C276 0.950 . S
H271 C277 0.950 . S
H272 C278 0.949 . S
C273 H268 0.950 . S
C273 C275 1.327 . S
C273 C279 1.429 . S
C274 C266 1.574 . S
C274 H269 0.949 . S
C274 C280 1.368 . S
C275 C259 1.349 . S
C275 H267 0.950 . S
C275 C273 1.327 . S
C276 C264 1.349 . S
C276 H270 0.950 . S
C276 C277 1.327 . S
C277 H271 0.950 . S
C277 C276 1.327 . S
C277 C281 1.429 . S
C278 C261 1.574 . S
C278 H272 0.949 . S
C278 C282 1.368 . S
C279 C260 1.429 . S
C279 C273 1.429 . S
C279 C280 1.523 . S
C280 C261 1.368 . S
C280 C274 1.368 . S
C280 C279 1.523 . S
C281 C265 1.429 . S
C281 C277 1.429 . S
C281 C282 1.523 . S
C282 C266 1.368 . S
C282 C278 1.368 . S
C282 C281 1.523 . S
H283 C258 0.950 . S
H284 C260 0.950 . S
H285 C261 0.949 . S
H286 C263 0.950 . S
H287 C265 0.950 . S
C288 C289 1.349 . S
C288 C290 1.327 . S
C288 H313 0.950 . S
C289 C288 1.349 . S
C289 C305 1.349 . S
C290 C288 1.327 . S
C290 C309 1.429 . S
C290 H314 0.950 . S
C291 C308 1.574 . S
C291 C310 1.368 . S
C291 H315 0.949 . S
H292 C296 0.949 . S
C293 C294 1.349 . S
C293 C295 1.327 . S
C293 H316 0.950 . S
C294 C293 1.349 . S
C294 C306 1.349 . S
C295 C293 1.327 . S
C295 C311 1.429 . S
C295 H317 0.950 . S
C296 H292 0.949 . S
C296 C304 1.574 . S
C296 C312 1.368 . S
H297 C305 0.950 . S
H298 C303 0.950 . S
H299 C304 0.949 . S
H300 C306 0.950 . S
H301 C307 0.950 . S
H302 C308 0.949 . S
C303 H298 0.950 . S
C303 C305 1.327 . S
C303 C309 1.429 . S
C304 C296 1.574 . S
C304 H299 0.949 . S
C304 C310 1.368 . S
C305 C289 1.349 . S
C305 H297 0.950 . S
C305 C303 1.327 . S
C306 C294 1.349 . S
C306 H300 0.950 . S
C306 C307 1.327 . S
C307 H301 0.950 . S
C307 C306 1.327 . S
C307 C311 1.429 . S
C308 C291 1.574 . S
C308 H302 0.949 . S
C308 C312 1.368 . S
C309 C290 1.429 . S
C309 C303 1.429 . S
C309 C310 1.523 . S
C310 C291 1.368 . S
C310 C304 1.368 . S
C310 C309 1.523 . S
C311 C295 1.429 . S
C311 C307 1.429 . S
C311 C312 1.523 1_554 S
C312 C296 1.368 . S
C312 C308 1.368 . S
C312 C311 1.523 1_556 S
H313 C288 0.950 . S
H314 C290 0.950 . S
H315 C291 0.949 . S
H316 C293 0.950 . S
H317 C295 0.950 . S
C318 C319 1.349 . S
C318 C320 1.327 . S
C318 H343 0.950 . S
C319 C318 1.349 . S
C319 C335 1.349 . S
C320 C318 1.327 . S
C320 C339 1.429 . S
C320 H344 0.950 . S
C321 C338 1.574 . S
C321 C340 1.368 . S
C321 H345 0.949 . S
H322 C326 0.949 . S
C323 C324 1.349 1_554 S
C323 C325 1.327 . S
C323 H346 0.950 . S
C324 C323 1.349 1_556 S
C324 C336 1.349 . S
C325 C323 1.327 . S
C325 C341 1.429 . S
C325 H347 0.950 . S
C326 H322 0.949 . S
C326 C334 1.574 . S
C326 C342 1.368 . S
H327 C335 0.950 . S
H328 C333 0.950 . S
H329 C334 0.949 . S
H330 C336 0.950 . S
H331 C337 0.950 1_556 S
H332 C338 0.949 . S
C333 H328 0.950 . S
C333 C335 1.327 . S
C333 C339 1.429 . S
C334 C326 1.574 . S
C334 H329 0.949 . S
C334 C340 1.368 . S
C335 C319 1.349 . S
C335 H327 0.950 . S
C335 C333 1.327 . S
C336 C324 1.349 . S
C336 H330 0.950 . S
C336 C337 1.327 1_556 S
C337 H331 0.950 1_554 S
C337 C336 1.327 1_554 S
C337 C341 1.429 . S
C338 C321 1.574 . S
C338 H332 0.949 . S
C338 C342 1.368 . S
C339 C320 1.429 . S
C339 C333 1.429 . S
C339 C340 1.523 . S
C340 C321 1.368 . S
C340 C334 1.368 . S
C340 C339 1.523 . S
C341 C325 1.429 . S
C341 C337 1.429 . S
C341 C342 1.523 . S
C342 C326 1.368 . S
C342 C338 1.368 . S
C342 C341 1.523 . S
H343 C318 0.950 . S
H344 C320 0.950 . S
H345 C321 0.949 . S
H346 C323 0.950 . S
H347 C325 0.950 . S
C348 C349 1.349 . S
C348 C350 1.327 . S
C348 H373 0.950 . S
C349 C348 1.349 . S
C349 C365 1.349 . S
C350 C348 1.327 . S
C350 C369 1.429 . S
C350 H374 0.950 . S
C351 C368 1.574 . S
C351 C370 1.368 . S
C351 H375 0.949 . S
H352 C356 0.949 . S
C353 C354 1.349 . S
C353 C355 1.327 . S
C353 H376 0.950 . S
C354 C353 1.349 . S
C354 C366 1.349 . S
C355 C353 1.327 . S
C355 C371 1.429 . S
C355 H377 0.950 . S
C356 H352 0.949 . S
C356 C364 1.574 . S
C356 C372 1.368 . S
H357 C365 0.950 . S
H358 C363 0.950 . S
H359 C364 0.949 . S
H360 C366 0.950 . S
H361 C367 0.950 . S
H362 C368 0.949 . S
C363 H358 0.950 . S
C363 C365 1.327 . S
C363 C369 1.429 . S
C364 C356 1.574 . S
C364 H359 0.949 . S
C364 C370 1.368 . S
C365 C349 1.349 . S
C365 H357 0.950 . S
C365 C363 1.327 . S
C366 C354 1.349 . S
C366 H360 0.950 . S
C366 C367 1.327 . S
C367 H361 0.950 . S
C367 C366 1.327 . S
C367 C371 1.429 . S
C368 C351 1.574 . S
C368 H362 0.949 . S
C368 C372 1.368 . S
C369 C350 1.429 . S
C369 C363 1.429 . S
C369 C370 1.523 . S
C370 C351 1.368 . S
C370 C364 1.368 . S
C370 C369 1.523 . S
C371 C355 1.429 . S
C371 C367 1.429 . S
C371 C372 1.523 . S
C372 C356 1.368 . S
C372 C368 1.368 . S
C372 C371 1.523 . S
H373 C348 0.950 . S
H374 C350 0.950 . S
H375 C351 0.949 . S
H376 C353 0.950 . S
H377 C355 0.950 . S
C378 C379 1.349 . S
C378 C380 1.327 . S
C378 H403 0.950 . S
C379 C378 1.349 . S
C379 C395 1.349 . S
C380 C378 1.327 . S
C380 C399 1.429 . S
C380 H404 0.950 . S
C381 C398 1.574 . S
C381 C400 1.368 . S
C381 H405 0.949 . S
H382 C386 0.949 . S
C383 C384 1.349 . S
C383 C385 1.327 . S
C383 H406 0.950 . S
C384 C383 1.349 . S
C384 C396 1.349 . S
C385 C383 1.327 . S
C385 C401 1.429 . S
C385 H407 0.950 . S
C386 H382 0.949 . S
C386 C394 1.574 . S
C386 C402 1.368 . S
H387 C395 0.950 . S
H388 C393 0.950 . S
H389 C394 0.949 . S
H390 C396 0.950 . S
H391 C397 0.950 . S
H392 C398 0.949 . S
C393 H388 0.950 . S
C393 C395 1.327 . S
C393 C399 1.429 . S
C394 C386 1.574 . S
C394 H389 0.949 . S
C394 C400 1.368 . S
C395 C379 1.349 . S
C395 H387 0.950 . S
C395 C393 1.327 . S
C396 C384 1.349 . S
C396 H390 0.950 . S
C396 C397 1.327 . S
C397 H391 0.950 . S
C397 C396 1.327 . S
C397 C401 1.429 . S
C398 C381 1.574 . S
C398 H392 0.949 . S
C398 C402 1.368 . S
C399 C380 1.429 . S
C399 C393 1.429 . S
C399 C400 1.523 . S
C400 C381 1.368 . S
C400 C394 1.368 . S
C400 C399 1.523 . S
C401 C385 1.429 . S
C401 C397 1.429 . S
C401 C402 1.523 . S
C402 C386 1.368 . S
C402 C398 1.368 . S
C402 C401 1.523 . S
H403 C378 0.950 . S
H404 C380 0.950 . S
H405 C381 0.949 . S
H406 C383 0.950 . S
H407 C385 0.950 . S
C408 C409 1.349 . S
C408 C410 1.327 . S
C408 H433 0.950 . S
C409 C408 1.349 . S
C409 C425 1.349 . S
C410 C408 1.327 . S
C410 C429 1.429 . S
C410 H434 0.950 . S
C411 C428 1.574 . S
C411 C430 1.368 . S
C411 H435 0.949 . S
H412 C416 0.949 . S
C413 C414 1.349 . S
C413 C415 1.327 . S
C413 H436 0.950 . S
C414 C413 1.349 . S
C414 C426 1.349 . S
C415 C413 1.327 . S
C415 C431 1.429 . S
C415 H437 0.950 . S
C416 H412 0.949 . S
C416 C424 1.574 . S
C416 C432 1.368 . S
H417 C425 0.950 . S
H418 C423 0.950 . S
H419 C424 0.949 . S
H420 C426 0.950 . S
H421 C427 0.950 . S
H422 C428 0.949 . S
C423 H418 0.950 . S
C423 C425 1.327 . S
C423 C429 1.429 . S
C424 C416 1.574 . S
C424 H419 0.949 . S
C424 C430 1.368 . S
C425 C409 1.349 . S
C425 H417 0.950 . S
C425 C423 1.327 . S
C426 C414 1.349 . S
C426 H420 0.950 . S
C426 C427 1.327 . S
C427 H421 0.950 . S
C427 C426 1.327 . S
C427 C431 1.429 . S
C428 C411 1.574 . S
C428 H422 0.949 . S
C428 C432 1.368 . S
C429 C410 1.429 . S
C429 C423 1.429 . S
C429 C430 1.523 . S
C430 C411 1.368 . S
C430 C424 1.368 . S
C430 C429 1.523 . S
C431 C415 1.429 . S
C431 C427 1.429 . S
C431 C432 1.523 . S
C432 C416 1.368 . S
C432 C428 1.368 . S
C432 C431 1.523 . S
H433 C408 0.950 . S
H434 C410 0.950 . S
H435 C411 0.949 . S
H436 C413 0.950 . S
H437 C415 0.950 . S
C438 C439 1.349 . S
C438 C440 1.327 . S
C438 H463 0.950 . S
C439 C438 1.349 . S
C439 C455 1.349 . S
C440 C438 1.327 . S
C440 C459 1.429 . S
C440 H464 0.950 . S
C441 C458 1.574 . S
C441 C460 1.368 . S
C441 H465 0.949 . S
H442 C446 0.949 . S
C443 C444 1.349 . S
C443 C445 1.327 . S
C443 H466 0.950 . S
C444 C443 1.349 . S
C444 C456 1.349 . S
C445 C443 1.327 . S
C445 C461 1.429 . S
C445 H467 0.950 . S
C446 H442 0.949 . S
C446 C454 1.574 . S
C446 C462 1.368 . S
H447 C455 0.950 . S
H448 C453 0.950 . S
H449 C454 0.949 . S
H450 C456 0.950 . S
H451 C457 0.950 . S
H452 C458 0.949 . S
C453 H448 0.950 . S
C453 C455 1.327 . S
C453 C459 1.429 . S
C454 C446 1.574 . S
C454 H449 0.949 . S
C454 C460 1.368 . S
C455 C439 1.349 . S
C455 H447 0.950 . S
C455 C453 1.327 . S
C456 C444 1.349 . S
C456 H450 0.950 . S
C456 C457 1.327 . S
C457 H451 0.950 . S
C457 C456 1.327 . S
C457 C461 1.429 . S
C458 C441 1.574 . S
C458 H452 0.949 . S
C458 C462 1.368 . S
C459 C440 1.429 . S
C459 C453 1.429 . S
C459 C460 1.523 . S
C460 C441 1.368 . S
C460 C454 1.368 . S
C460 C459 1.523 . S
C461 C445 1.429 . S
C461 C457 1.429 . S
C461 C462 1.523 . S
C462 C446 1.368 . S
C462 C458 1.368 . S
C462 C461 1.523 . S
H463 C438 0.950 . S
H464 C440 0.950 . S
H465 C441 0.949 . S
H466 C443 0.950 . S
H467 C445 0.950 . S
C468 C469 1.349 . S
C468 C470 1.327 . S
C468 H493 0.950 . S
C469 C468 1.349 . S
C469 C485 1.349 . S
C470 C468 1.327 . S
C470 C489 1.429 . S
C470 H494 0.950 . S
C471 C488 1.574 . S
C471 C490 1.368 . S
C471 H495 0.949 . S
H472 C476 0.949 . S
C473 C474 1.349 . S
C473 C475 1.327 . S
C473 H496 0.950 . S
C474 C473 1.349 . S
C474 C486 1.349 . S
C475 C473 1.327 . S
C475 C491 1.429 . S
C475 H497 0.950 . S
C476 H472 0.949 . S
C476 C484 1.574 . S
C476 C492 1.368 . S
H477 C485 0.950 . S
H478 C483 0.950 . S
H479 C484 0.949 . S
H480 C486 0.950 . S
H481 C487 0.950 . S
H482 C488 0.949 . S
C483 H478 0.950 . S
C483 C485 1.327 . S
C483 C489 1.429 . S
C484 C476 1.574 . S
C484 H479 0.949 . S
C484 C490 1.368 . S
C485 C469 1.349 . S
C485 H477 0.950 . S
C485 C483 1.327 . S
C486 C474 1.349 . S
C486 H480 0.950 . S
C486 C487 1.327 . S
C487 H481 0.950 . S
C487 C486 1.327 . S
C487 C491 1.429 . S
C488 C471 1.574 . S
C488 H482 0.949 . S
C488 C492 1.368 . S
C489 C470 1.429 . S
C489 C483 1.429 . S
C489 C490 1.523 . S
C490 C471 1.368 . S
C490 C484 1.368 . S
C490 C489 1.523 . S
C491 C475 1.429 . S
C491 C487 1.429 . S
C491 C492 1.523 . S
C492 C476 1.368 . S
C492 C488 1.368 . S
C492 C491 1.523 . S
H493 C468 0.950 . S
H494 C470 0.950 . S
H495 C471 0.949 . S
H496 C473 0.950 . S
H497 C475 0.950 . S
C498 C499 1.349 . S
C498 C500 1.327 . S
C498 H523 0.950 . S
C499 C498 1.349 . S
C499 C515 1.349 . S
C500 C498 1.327 . S
C500 C519 1.429 . S
C500 H524 0.950 . S
C501 C518 1.574 . S
C501 C520 1.368 . S
C501 H525 0.949 . S
H502 C506 0.949 . S
C503 C504 1.349 . S
C503 C505 1.327 . S
C503 H526 0.950 . S
C504 C503 1.349 . S
C504 C516 1.349 1_554 S
C505 C503 1.327 . S
C505 C521 1.429 1_554 S
C505 H527 0.950 . S
C506 H502 0.949 . S
C506 C514 1.574 . S
C506 C522 1.368 . S
H507 C515 0.950 . S
H508 C513 0.950 . S
H509 C514 0.949 . S
H510 C516 0.950 . S
H511 C517 0.950 . S
H512 C518 0.949 1_554 S
C513 H508 0.950 . S
C513 C515 1.327 . S
C513 C519 1.429 . S
C514 C506 1.574 . S
C514 H509 0.949 . S
C514 C520 1.368 . S
C515 C499 1.349 . S
C515 H507 0.950 . S
C515 C513 1.327 . S
C516 C504 1.349 1_556 S
C516 H510 0.950 . S
C516 C517 1.327 . S
C517 H511 0.950 . S
C517 C516 1.327 . S
C517 C521 1.429 . S
C518 C501 1.574 . S
C518 H512 0.949 1_556 S
C518 C522 1.368 . S
C519 C500 1.429 . S
C519 C513 1.429 . S
C519 C520 1.523 . S
C520 C501 1.368 . S
C520 C514 1.368 . S
C520 C519 1.523 . S
C521 C505 1.429 1_556 S
C521 C517 1.429 . S
C521 C522 1.523 . S
C522 C506 1.368 . S
C522 C518 1.368 . S
C522 C521 1.523 . S
H523 C498 0.950 . S
H524 C500 0.950 . S
H525 C501 0.949 . S
H526 C503 0.950 . S
H527 C505 0.950 . S
C528 C529 1.349 . S
C528 C530 1.327 . S
C528 H553 0.950 . S
C529 C528 1.349 . S
C529 C545 1.349 . S
C530 C528 1.327 . S
C530 C549 1.429 . S
C530 H554 0.950 . S
C531 C548 1.574 . S
C531 C550 1.368 . S
C531 H555 0.949 . S
H532 C536 0.949 . S
C533 C534 1.349 . S
C533 C535 1.327 . S
C533 H556 0.950 . S
C534 C533 1.349 . S
C534 C546 1.349 . S
C535 C533 1.327 . S
C535 C551 1.429 . S
C535 H557 0.950 . S
C536 H532 0.949 . S
C536 C544 1.574 . S
C536 C552 1.368 . S
H537 C545 0.950 . S
H538 C543 0.950 . S
H539 C544 0.949 . S
H540 C546 0.950 . S
H541 C547 0.950 . S
H542 C548 0.949 . S
C543 H538 0.950 . S
C543 C545 1.327 . S
C543 C549 1.429 . S
C544 C536 1.574 . S
C544 H539 0.949 . S
C544 C550 1.368 . S
C545 C529 1.349 . S
C545 H537 0.950 . S
C545 C543 1.327 . S
C546 C534 1.349 . S
C546 H540 0.950 . S
C546 C547 1.327 . S
C547 H541 0.950 . S
C547 C546 1.327 . S
C547 C551 1.429 . S
C548 C531 1.574 . S
C548 H542 0.949 . S
C548 C552 1.368 . S
C549 C530 1.429 . S
C549 C543 1.429 . S
C549 C550 1.523 . S
C550 C531 1.368 . S
C550 C544 1.368 . S
C550 C549 1.523 . S
C551 C535 1.429 . S
C551 C547 1.429 . S
C551 C552 1.523 . S
C552 C536 1.368 . S
C552 C548 1.368 . S
C552 C551 1.523 . S
H553 C528 0.950 . S
H554 C530 0.950 . S
H555 C531 0.949 . S
H556 C533 0.950 . S
H557 C535 0.950 . S
C558 C559 1.349 . S
C558 C560 1.327 . S
C558 H583 0.950 . S
C559 C558 1.349 . S
C559 C575 1.349 . S
C560 C558 1.327 . S
C560 C579 1.429 . S
C560 H584 0.950 1_554 S
C561 C578 1.574 1_554 S
C561 C580 1.368 1_554 S
C561 H585 0.949 . S
H562 C566 0.949 . S
C563 C564 1.349 . S
C563 C565 1.327 . S
C563 H586 0.950 . S
C564 C563 1.349 . S
C564 C576 1.349 . S
C565 C563 1.327 . S
C565 C581 1.429 . S
C565 H587 0.950 . S
C566 H562 0.949 . S
C566 C574 1.574 . S
C566 C582 1.368 . S
H567 C575 0.950 . S
H568 C573 0.950 . S
H569 C574 0.949 . S
H570 C576 0.950 . S
H571 C577 0.950 . S
H572 C578 0.949 . S
C573 H568 0.950 . S
C573 C575 1.327 . S
C573 C579 1.429 . S
C574 C566 1.574 . S
C574 H569 0.949 . S
C574 C580 1.368 . S
C575 C559 1.349 . S
C575 H567 0.950 . S
C575 C573 1.327 . S
C576 C564 1.349 . S
C576 H570 0.950 . S
C576 C577 1.327 . S
C577 H571 0.950 . S
C577 C576 1.327 . S
C577 C581 1.429 . S
C578 C561 1.574 1_556 S
C578 H572 0.949 . S
C578 C582 1.368 . S
C579 C560 1.429 . S
C579 C573 1.429 . S
C579 C580 1.523 1_554 S
C580 C561 1.368 1_556 S
C580 C574 1.368 . S
C580 C579 1.523 1_556 S
C581 C565 1.429 . S
C581 C577 1.429 . S
C581 C582 1.523 . S
C582 C566 1.368 . S
C582 C578 1.368 . S
C582 C581 1.523 . S
H583 C558 0.950 . S
H584 C560 0.950 1_556 S
H585 C561 0.949 . S
H586 C563 0.950 . S
H587 C565 0.950 . S
C588 C589 1.349 . S
C588 C590 1.327 . S
C588 H613 0.950 . S
C589 C588 1.349 . S
C589 C605 1.349 . S
C590 C588 1.327 . S
C590 C609 1.429 . S
C590 H614 0.950 . S
C591 C608 1.574 . S
C591 C610 1.368 . S
C591 H615 0.949 . S
H592 C596 0.949 . S
C593 C594 1.349 . S
C593 C595 1.327 1_556 S
C593 H616 0.950 . S
C594 C593 1.349 . S
C594 C606 1.349 1_556 S
C595 C593 1.327 1_554 S
C595 C611 1.429 . S
C595 H617 0.950 . S
C596 H592 0.949 . S
C596 C604 1.574 . S
C596 C612 1.368 . S
H597 C605 0.950 . S
H598 C603 0.950 . S
H599 C604 0.949 . S
H600 C606 0.950 . S
H601 C607 0.950 . S
H602 C608 0.949 . S
C603 H598 0.950 . S
C603 C605 1.327 . S
C603 C609 1.429 . S
C604 C596 1.574 . S
C604 H599 0.949 . S
C604 C610 1.368 . S
C605 C589 1.349 . S
C605 H597 0.950 . S
C605 C603 1.327 . S
C606 C594 1.349 1_554 S
C606 H600 0.950 . S
C606 C607 1.327 . S
C607 H601 0.950 . S
C607 C606 1.327 . S
C607 C611 1.429 . S
C608 C591 1.574 . S
C608 H602 0.949 . S
C608 C612 1.368 . S
C609 C590 1.429 . S
C609 C603 1.429 . S
C609 C610 1.523 . S
C610 C591 1.368 . S
C610 C604 1.368 . S
C610 C609 1.523 . S
C611 C595 1.429 . S
C611 C607 1.429 . S
C611 C612 1.523 . S
C612 C596 1.368 . S
C612 C608 1.368 . S
C612 C611 1.523 . S
H613 C588 0.950 . S
H614 C590 0.950 . S
H615 C591 0.949 . S
H616 C593 0.950 . S
H617 C595 0.950 . S
C618 C619 1.349 . S
C618 C620 1.327 . S
C618 H643 0.950 . S
C619 C618 1.349 . S
C619 C635 1.349 . S
C620 C618 1.327 . S
C620 C639 1.429 . S
C620 H644 0.950 . S
C621 C638 1.574 . S
C621 C640 1.368 . S
C621 H645 0.949 . S
H622 C626 0.949 . S
C623 C624 1.349 . S
C623 C625 1.327 . S
C623 H646 0.950 . S
C624 C623 1.349 . S
C624 C636 1.349 . S
C625 C623 1.327 . S
C625 C641 1.429 . S
C625 H647 0.950 . S
C626 H622 0.949 . S
C626 C634 1.574 . S
C626 C642 1.368 . S
H627 C635 0.950 . S
H628 C633 0.950 . S
H629 C634 0.949 . S
H630 C636 0.950 . S
H631 C637 0.950 . S
H632 C638 0.949 . S
C633 H628 0.950 . S
C633 C635 1.327 . S
C633 C639 1.429 . S
C634 C626 1.574 . S
C634 H629 0.949 . S
C634 C640 1.368 . S
C635 C619 1.349 . S
C635 H627 0.950 . S
C635 C633 1.327 . S
C636 C624 1.349 . S
C636 H630 0.950 . S
C636 C637 1.327 . S
C637 H631 0.950 . S
C637 C636 1.327 . S
C637 C641 1.429 . S
C638 C621 1.574 . S
C638 H632 0.949 . S
C638 C642 1.368 . S
C639 C620 1.429 . S
C639 C633 1.429 . S
C639 C640 1.523 . S
C640 C621 1.368 . S
C640 C634 1.368 . S
C640 C639 1.523 . S
C641 C625 1.429 . S
C641 C637 1.429 . S
C641 C642 1.523 . S
C642 C626 1.368 . S
C642 C638 1.368 . S
C642 C641 1.523 . S
H643 C618 0.950 . S
H644 C620 0.950 . S
H645 C621 0.949 . S
H646 C623 0.950 . S
H647 C625 0.950 . S
C648 C649 1.349 . S
C648 C650 1.327 . S
C648 H673 0.950 . S
C649 C648 1.349 . S
C649 C665 1.349 . S
C650 C648 1.327 . S
C650 C669 1.429 . S
C650 H674 0.950 . S
C651 C668 1.574 . S
C651 C670 1.368 . S
C651 H675 0.949 . S
H652 C656 0.949 . S
C653 C654 1.349 . S
C653 C655 1.327 . S
C653 H676 0.950 . S
C654 C653 1.349 . S
C654 C666 1.349 . S
C655 C653 1.327 . S
C655 C671 1.429 . S
C655 H677 0.950 . S
C656 H652 0.949 . S
C656 C664 1.574 . S
C656 C672 1.368 . S
H657 C665 0.950 . S
H658 C663 0.950 . S
H659 C664 0.949 . S
H660 C666 0.950 . S
H661 C667 0.950 . S
H662 C668 0.949 . S
C663 H658 0.950 . S
C663 C665 1.327 . S
C663 C669 1.429 . S
C664 C656 1.574 . S
C664 H659 0.949 . S
C664 C670 1.368 . S
C665 C649 1.349 . S
C665 H657 0.950 . S
C665 C663 1.327 . S
C666 C654 1.349 . S
C666 H660 0.950 . S
C666 C667 1.327 . S
C667 H661 0.950 . S
C667 C666 1.327 . S
C667 C671 1.429 . S
C668 C651 1.574 . S
C668 H662 0.949 . S
C668 C672 1.368 . S
C669 C650 1.429 . S
C669 C663 1.429 . S
C669 C670 1.523 . S
C670 C651 1.368 . S
C670 C664 1.368 . S
C670 C669 1.523 . S
C671 C655 1.429 . S
C671 C667 1.429 . S
C671 C672 1.523 . S
C672 C656 1.368 . S
C672 C668 1.368 . S
C672 C671 1.523 . S
H673 C648 0.950 . S
H674 C650 0.950 . S
H675 C651 0.949 . S
H676 C653 0.950 . S
H677 C655 0.950 . S
C678 C679 1.349 . S
C678 C680 1.327 . S
C678 H703 0.950 . S
C679 C678 1.349 . S
C679 C695 1.349 . S
C680 C678 1.327 . S
C680 C699 1.429 . S
C680 H704 0.950 . S
C681 C698 1.574 . S
C681 C700 1.368 . S
C681 H705 0.949 . S
H682 C686 0.949 . S
C683 C684 1.349 . S
C683 C685 1.327 . S
C683 H706 0.950 . S
C684 C683 1.349 . S
C684 C696 1.349 . S
C685 C683 1.327 . S
C685 C701 1.429 . S
C685 H707 0.950 . S
C686 H682 0.949 . S
C686 C694 1.574 . S
C686 C702 1.368 . S
H687 C695 0.950 . S
H688 C693 0.950 . S
H689 C694 0.949 . S
H690 C696 0.950 . S
H691 C697 0.950 . S
H692 C698 0.949 . S
C693 H688 0.950 . S
C693 C695 1.327 . S
C693 C699 1.429 . S
C694 C686 1.574 . S
C694 H689 0.949 . S
C694 C700 1.368 . S
C695 C679 1.349 . S
C695 H687 0.950 . S
C695 C693 1.327 . S
C696 C684 1.349 . S
C696 H690 0.950 . S
C696 C697 1.327 . S
C697 H691 0.950 . S
C697 C696 1.327 . S
C697 C701 1.429 . S
C698 C681 1.574 . S
C698 H692 0.949 . S
C698 C702 1.368 . S
C699 C680 1.429 . S
C699 C693 1.429 . S
C699 C700 1.523 . S
C700 C681 1.368 . S
C700 C694 1.368 . S
C700 C699 1.523 . S
C701 C685 1.429 . S
C701 C697 1.429 . S
C701 C702 1.523 . S
C702 C686 1.368 . S
C702 C698 1.368 . S
C702 C701 1.523 . S
H703 C678 0.950 . S
H704 C680 0.950 . S
H705 C681 0.949 . S
H706 C683 0.950 . S
H707 C685 0.950 . S
C708 C709 1.349 . S
C708 C710 1.327 . S
C708 H733 0.950 1_556 S
C709 C708 1.349 . S
C709 C725 1.349 . S
C710 C708 1.327 . S
C710 C729 1.429 . S
C710 H734 0.950 . S
C711 C728 1.574 1_455 S
C711 C730 1.368 . S
C711 H735 0.949 . S
H712 C716 0.949 . S
C713 C714 1.349 . S
C713 C715 1.327 . S
C713 H736 0.950 . S
C714 C713 1.349 . S
C714 C726 1.349 . S
C715 C713 1.327 . S
C715 C731 1.429 . S
C715 H737 0.950 . S
C716 H712 0.949 . S
C716 C724 1.574 1_655 S
C716 C732 1.368 . S
H717 C725 0.950 . S
H718 C723 0.950 . S
H719 C724 0.949 . S
H720 C726 0.950 . S
H721 C727 0.950 . S
H722 C728 0.949 . S
C723 H718 0.950 . S
C723 C725 1.327 . S
C723 C729 1.429 . S
C724 C716 1.574 1_455 S
C724 H719 0.949 . S
C724 C730 1.368 . S
C725 C709 1.349 . S
C725 H717 0.950 . S
C725 C723 1.327 . S
C726 C714 1.349 . S
C726 H720 0.950 . S
C726 C727 1.327 . S
C727 H721 0.950 . S
C727 C726 1.327 . S
C727 C731 1.429 . S
C728 C711 1.574 1_655 S
C728 H722 0.949 . S
C728 C732 1.368 . S
C729 C710 1.429 . S
C729 C723 1.429 . S
C729 C730 1.523 . S
C730 C711 1.368 . S
C730 C724 1.368 . S
C730 C729 1.523 . S
C731 C715 1.429 . S
C731 C727 1.429 . S
C731 C732 1.523 . S
C732 C716 1.368 . S
C732 C728 1.368 . S
C732 C731 1.523 . S
H733 C708 0.950 1_554 S
H734 C710 0.950 . S
H735 C711 0.949 . S
H736 C713 0.950 . S
H737 C715 0.950 . S
C738 C739 1.349 . S
C738 C740 1.327 . S
C738 H763 0.950 . S
C739 C738 1.349 . S
C739 C755 1.349 . S
C740 C738 1.327 . S
C740 C759 1.429 . S
C740 H764 0.950 . S
C741 C758 1.574 1_565 S
C741 C760 1.368 . S
C741 H765 0.949 . S
H742 C746 0.949 . S
C743 C744 1.349 . S
C743 C745 1.327 . S
C743 H766 0.950 . S
C744 C743 1.349 . S
C744 C756 1.349 . S
C745 C743 1.327 . S
C745 C761 1.429 . S
C745 H767 0.950 . S
C746 H742 0.949 . S
C746 C754 1.574 1_544 S
C746 C762 1.368 . S
H747 C755 0.949 . S
H748 C753 0.950 . S
H749 C754 0.949 . S
H750 C756 0.950 . S
H751 C757 0.950 . S
H752 C758 0.949 . S
C753 H748 0.950 . S
C753 C755 1.327 1_554 S
C753 C759 1.429 1_554 S
C754 C746 1.574 1_566 S
C754 H749 0.949 . S
C754 C760 1.368 1_556 S
C755 C739 1.349 . S
C755 H747 0.949 . S
C755 C753 1.327 1_556 S
C756 C744 1.349 . S
C756 H750 0.950 . S
C756 C757 1.327 . S
C757 H751 0.950 . S
C757 C756 1.327 . S
C757 C761 1.429 . S
C758 C741 1.574 1_545 S
C758 H752 0.949 . S
C758 C762 1.368 . S
C759 C740 1.429 . S
C759 C753 1.429 1_556 S
C759 C760 1.523 1_556 S
C760 C741 1.368 . S
C760 C754 1.368 1_554 S
C760 C759 1.523 1_554 S
C761 C745 1.429 . S
C761 C757 1.429 . S
C761 C762 1.523 . S
C762 C746 1.368 . S
C762 C758 1.368 . S
C762 C761 1.523 . S
H763 C738 0.950 . S
H764 C740 0.950 . S
H765 C741 0.949 . S
H766 C743 0.950 . S
H767 C745 0.950 . S
C768 C769 1.349 . S
C768 C770 1.327 . S
C768 H793 0.950 . S
C769 C768 1.349 . S
C769 C785 1.349 . S
C770 C768 1.327 . S
C770 C789 1.429 . S
C770 H794 0.950 . S
C771 C788 1.574 . S
C771 C790 1.368 . S
C771 H795 0.949 . S
H772 C776 0.949 . S
C773 C774 1.349 . S
C773 C775 1.327 . S
C773 H796 0.950 . S
C774 C773 1.349 . S
C774 C786 1.349 . S
C775 C773 1.327 . S
C775 C791 1.429 . S
C775 H797 0.950 . S
C776 H772 0.949 . S
C776 C784 1.574 . S
C776 C792 1.368 . S
H777 C785 0.950 . S
H778 C783 0.950 . S
H779 C784 0.949 . S
H780 C786 0.950 . S
H781 C787 0.950 . S
H782 C788 0.949 . S
C783 H778 0.950 . S
C783 C785 1.327 . S
C783 C789 1.429 . S
C784 C776 1.574 . S
C784 H779 0.949 . S
C784 C790 1.368 . S
C785 C769 1.349 . S
C785 H777 0.950 . S
C785 C783 1.327 . S
C786 C774 1.349 . S
C786 H780 0.950 . S
C786 C787 1.327 . S
C787 H781 0.950 . S
C787 C786 1.327 . S
C787 C791 1.429 . S
C788 C771 1.574 . S
C788 H782 0.949 . S
C788 C792 1.368 . S
C789 C770 1.429 . S
C789 C783 1.429 . S
C789 C790 1.523 . S
C790 C771 1.368 . S
C790 C784 1.368 . S
C790 C789 1.523 . S
C791 C775 1.429 . S
C791 C787 1.429 . S
C791 C792 1.523 . S
C792 C776 1.368 . S
C792 C788 1.368 . S
C792 C791 1.523 . S
H793 C768 0.950 . S
H794 C770 0.950 . S
H795 C771 0.949 . S
H796 C773 0.950 . S
H797 C775 0.950 . S
C798 C799 1.349 . S
C798 C800 1.327 . S
C798 H823 0.950 . S
C799 C798 1.349 . S
C799 C815 1.349 . S
C800 C798 1.327 . S
C800 C819 1.429 . S
C800 H824 0.950 . S
C801 C818 1.574 1_455 S
C801 C820 1.368 . S
C801 H825 0.949 . S
H802 C806 0.949 . S
C803 C804 1.349 . S
C803 C805 1.327 . S
C803 H826 0.950 . S
C804 C803 1.349 . S
C804 C816 1.349 . S
C805 C803 1.327 . S
C805 C821 1.429 . S
C805 H827 0.950 . S
C806 H802 0.949 . S
C806 C814 1.574 1_655 S
C806 C822 1.368 . S
H807 C815 0.950 . S
H808 C813 0.950 . S
H809 C814 0.949 . S
H810 C816 0.950 . S
H811 C817 0.950 . S
H812 C818 0.949 . S
C813 H808 0.950 . S
C813 C815 1.327 . S
C813 C819 1.429 . S
C814 C806 1.574 1_455 S
C814 H809 0.949 . S
C814 C820 1.368 . S
C815 C799 1.349 . S
C815 H807 0.950 . S
C815 C813 1.327 . S
C816 C804 1.349 . S
C816 H810 0.950 . S
C816 C817 1.327 . S
C817 H811 0.950 . S
C817 C816 1.327 . S
C817 C821 1.429 . S
C818 C801 1.574 1_655 S
C818 H812 0.949 . S
C818 C822 1.368 . S
C819 C800 1.429 . S
C819 C813 1.429 . S
C819 C820 1.523 . S
C820 C801 1.368 . S
C820 C814 1.368 . S
C820 C819 1.523 . S
C821 C805 1.429 . S
C821 C817 1.429 . S
C821 C822 1.523 . S
C822 C806 1.368 . S
C822 C818 1.368 . S
C822 C821 1.523 . S
H823 C798 0.950 . S
H824 C800 0.950 . S
H825 C801 0.949 . S
H826 C803 0.950 . S
H827 C805 0.950 . S
C828 C829 1.349 . S
C828 C830 1.327 . S
C828 H853 0.950 . S
C829 C828 1.349 . S
C829 C845 1.349 . S
C830 C828 1.327 . S
C830 C849 1.429 . S
C830 H854 0.950 . S
C831 C848 1.574 1_545 S
C831 C850 1.368 . S
C831 H855 0.949 . S
H832 C836 0.949 . S
C833 C834 1.349 . S
C833 C835 1.327 . S
C833 H856 0.950 . S
C834 C833 1.349 . S
C834 C846 1.349 . S
C835 C833 1.327 . S
C835 C851 1.429 . S
C835 H857 0.950 . S
C836 H832 0.949 . S
C836 C844 1.574 1_565 S
C836 C852 1.368 . S
H837 C845 0.950 . S
H838 C843 0.950 . S
H839 C844 0.949 . S
H840 C846 0.950 . S
H841 C847 0.950 . S
H842 C848 0.949 . S
C843 H838 0.950 . S
C843 C845 1.327 . S
C843 C849 1.429 . S
C844 C836 1.574 1_545 S
C844 H839 0.949 . S
C844 C850 1.368 . S
C845 C829 1.349 . S
C845 H837 0.950 . S
C845 C843 1.327 . S
C846 C834 1.349 . S
C846 H840 0.950 . S
C846 C847 1.327 . S
C847 H841 0.950 . S
C847 C846 1.327 . S
C847 C851 1.429 . S
C848 C831 1.574 1_565 S
C848 H842 0.949 . S
C848 C852 1.368 . S
C849 C830 1.429 . S
C849 C843 1.429 . S
C849 C850 1.523 . S
C850 C831 1.368 . S
C850 C844 1.368 . S
C850 C849 1.523 . S
C851 C835 1.429 . S
C851 C847 1.429 . S
C851 C852 1.523 . S
C852 C836 1.368 . S
C852 C848 1.368 . S
C852 C851 1.523 . S
H853 C828 0.950 . S
H854 C830 0.950 . S
H855 C831 0.949 . S
H856 C833 0.950 . S
H857 C835 0.950 . S
C858 C859 1.349 . S
C858 C860 1.327 . S
C858 H883 0.950 . S
C859 C858 1.349 . S
C859 C875 1.349 . S
C860 C858 1.327 . S
C860 C879 1.429 . S
C860 H884 0.950 . S
C861 C878 1.574 . S
C861 C880 1.368 . S
C861 H885 0.949 . S
H862 C866 0.949 . S
C863 C864 1.349 . S
C863 C865 1.327 . S
C863 H886 0.950 . S
C864 C863 1.349 . S
C864 C876 1.349 . S
C865 C863 1.327 . S
C865 C881 1.429 . S
C865 H887 0.950 . S
C866 H862 0.949 . S
C866 C874 1.574 . S
C866 C882 1.368 . S
H867 C875 0.950 . S
H868 C873 0.950 . S
H869 C874 0.949 . S
H870 C876 0.950 . S
H871 C877 0.950 . S
H872 C878 0.949 . S
C873 H868 0.950 . S
C873 C875 1.327 . S
C873 C879 1.429 . S
C874 C866 1.574 . S
C874 H869 0.949 . S
C874 C880 1.368 . S
C875 C859 1.349 . S
C875 H867 0.950 . S
C875 C873 1.327 . S
C876 C864 1.349 . S
C876 H870 0.950 . S
C876 C877 1.327 . S
C877 H871 0.950 . S
C877 C876 1.327 . S
C877 C881 1.429 . S
C878 C861 1.574 . S
C878 H872 0.949 . S
C878 C882 1.368 . S
C879 C860 1.429 . S
C879 C873 1.429 . S
C879 C880 1.523 . S
C880 C861 1.368 . S
C880 C874 1.368 . S
C880 C879 1.523 . S
C881 C865 1.429 . S
C881 C877 1.429 . S
C881 C882 1.523 . S
C882 C866 1.368 . S
C882 C878 1.368 . S
C882 C881 1.523 . S
H883 C858 0.950 . S
H884 C860 0.950 . S
H885 C861 0.949 . S
H886 C863 0.950 . S
H887 C865 0.950 . S
C169 C9 1.429 . S
C174 C149 1.429 . S
C199 C163 1.429 . S
C204 C23 1.429 . S
C229 C37 1.429 . S
C234 C93 1.429 . S
C259 C51 1.429 . S
C264 C107 1.429 . S
C289 C65 1.429 . S
C294 C121 1.429 . S
C319 C135 1.429 . S
C324 C79 1.429 . S
C349 C7 1.606 . S
C354 C119 1.606 . S
C379 C21 1.606 . S
C384 C133 1.606 . S
C409 C147 1.606 . S
C414 C35 1.606 . S
C439 C49 1.606 . S
C444 C161 1.606 . S
C469 C63 1.606 . S
C474 C91 1.606 . S
C499 C77 1.606 . S
C504 C105 1.606 . S
C529 C143 1.340 . S
C534 C3 1.340 . S
C559 C17 1.339 . S
C564 C157 1.339 . S
C589 C31 1.339 . S
C594 C87 1.339 . S
C619 C45 1.340 . S
C624 C101 1.340 . S
C649 C115 1.339 . S
C654 C59 1.339 . S
C679 C73 1.339 . S
C684 C129 1.339 . S
C709 C8 1.354 . S
C714 C162 1.354 . S
C739 C92 1.354 . S
C744 C22 1.354 . S
C769 C106 1.354 . S
C774 C36 1.354 . S
C799 C120 1.354 . S
C804 C50 1.354 . S
C829 C134 1.353 . S
C834 C64 1.353 . S
C859 C148 1.354 . S
C864 C78 1.354 . S
