# Generated by pormake.
# Topology umb, (4)-cn, num edge types: 1
# Building blocks:
#     Node 0, Type 0, BuildingBlock: KOZSID_clean_sbu_0, # of connection points: 4
#     Node 1, Type 0, BuildingBlock: KOZSID_clean_sbu_0, # of connection points: 4
#     Node 2, Type 0, BuildingBlock: KOZSID_clean_sbu_0, # of connection points: 4
#     Node 3, Type 0, BuildingBlock: KOZSID_clean_sbu_0, # of connection points: 4
#     Node 4, Type 0, BuildingBlock: KOZSID_clean_sbu_0, # of connection points: 4
#     Node 5, Type 0, BuildingBlock: KOZSID_clean_sbu_0, # of connection points: 4
#     Node 6, Type 0, BuildingBlock: KOZSID_clean_sbu_0, # of connection points: 4
#     Node 7, Type 0, BuildingBlock: KOZSID_clean_sbu_0, # of connection points: 4
#     Node 8, Type 0, BuildingBlock: KOZSID_clean_sbu_0, # of connection points: 4
#     Node 9, Type 0, BuildingBlock: KOZSID_clean_sbu_0, # of connection points: 4
#     Node 10, Type 0, BuildingBlock: KOZSID_clean_sbu_0, # of connection points: 4
#     Node 11, Type 0, BuildingBlock: KOZSID_clean_sbu_0, # of connection points: 4
#     Edge 12, Type (0, 0), BuildingBlock: XIVTED_clean_linker_0, # of connection points: 2
#     Edge 13, Type (0, 0), BuildingBlock: XIVTED_clean_linker_0, # of connection points: 2
#     Edge 14, Type (0, 0), BuildingBlock: XIVTED_clean_linker_0, # of connection points: 2
#     Edge 15, Type (0, 0), BuildingBlock: XIVTED_clean_linker_0, # of connection points: 2
#     Edge 16, Type (0, 0), BuildingBlock: XIVTED_clean_linker_0, # of connection points: 2
#     Edge 17, Type (0, 0), BuildingBlock: XIVTED_clean_linker_0, # of connection points: 2
#     Edge 18, Type (0, 0), BuildingBlock: XIVTED_clean_linker_0, # of connection points: 2
#     Edge 19, Type (0, 0), BuildingBlock: XIVTED_clean_linker_0, # of connection points: 2
#     Edge 20, Type (0, 0), BuildingBlock: XIVTED_clean_linker_0, # of connection points: 2
#     Edge 21, Type (0, 0), BuildingBlock: XIVTED_clean_linker_0, # of connection points: 2
#     Edge 22, Type (0, 0), BuildingBlock: XIVTED_clean_linker_0, # of connection points: 2
#     Edge 23, Type (0, 0), BuildingBlock: XIVTED_clean_linker_0, # of connection points: 2
#     Edge 24, Type (0, 0), BuildingBlock: XIVTED_clean_linker_0, # of connection points: 2
#     Edge 25, Type (0, 0), BuildingBlock: XIVTED_clean_linker_0, # of connection points: 2
#     Edge 26, Type (0, 0), BuildingBlock: XIVTED_clean_linker_0, # of connection points: 2
#     Edge 27, Type (0, 0), BuildingBlock: XIVTED_clean_linker_0, # of connection points: 2
#     Edge 28, Type (0, 0), BuildingBlock: XIVTED_clean_linker_0, # of connection points: 2
#     Edge 29, Type (0, 0), BuildingBlock: XIVTED_clean_linker_0, # of connection points: 2
#     Edge 30, Type (0, 0), BuildingBlock: XIVTED_clean_linker_0, # of connection points: 2
#     Edge 31, Type (0, 0), BuildingBlock: XIVTED_clean_linker_0, # of connection points: 2
#     Edge 32, Type (0, 0), BuildingBlock: XIVTED_clean_linker_0, # of connection points: 2
#     Edge 33, Type (0, 0), BuildingBlock: XIVTED_clean_linker_0, # of connection points: 2
#     Edge 34, Type (0, 0), BuildingBlock: XIVTED_clean_linker_0, # of connection points: 2
#     Edge 35, Type (0, 0), BuildingBlock: XIVTED_clean_linker_0, # of connection points: 2
# Relax obj value: 0.206
# Max RMSD: 0.233
# Mean RMSD: 0.232
data_MOF--net-umb--node1-KOZSID_clean_sbu_0--edge1-XIVTED_clean_linker_0
_symmetry_space_group_name_H-M    P1
_symmetry_Int_Tables_number       1
_symmetry_cell_setting            triclinic
loop_
_symmetry_equiv_pos_as_xyz
'x, y, z'
_cell_length_a     61.511561
_cell_length_b     61.731071
_cell_length_c     42.43579
_cell_angle_alpha  90.038353
_cell_angle_beta   89.996244
_cell_angle_gamma 120.02087
loop_
_atom_site_label
_atom_site_type_symbol
_atom_site_fract_x
_atom_site_fract_y
_atom_site_fract_z
_atom_type_partial_charge
C0 C 0.57307 0.20434 0.24703 0.0
C1 C 0.59069 0.20854 0.22393 0.0
C2 C 0.60492 0.19861 0.23506 0.0
C3 C 0.59537 0.18898 0.26436 0.0
N4 N 0.57593 0.19212 0.27196 0.0
Co5 Co 0.55869 0.18433 0.31329 0.0
N6 N 0.58736 0.18506 0.33543 0.0
C7 C 0.60553 0.18245 0.32132 0.0
C8 C 0.62252 0.18265 0.34251 0.0
C9 C 0.6143 0.18526 0.37166 0.0
C10 C 0.59269 0.1866 0.36671 0.0
N11 N 0.54111 0.17698 0.35439 0.0
C12 C 0.55025 0.17967 0.38416 0.0
C13 C 0.53102 0.1725 0.40602 0.0
C14 C 0.50921 0.16444 0.38923 0.0
C15 C 0.5162 0.16729 0.35811 0.0
N16 N 0.53032 0.18383 0.2908 0.0
C17 C 0.50643 0.17284 0.30079 0.0
C18 C 0.49157 0.17767 0.28109 0.0
C19 C 0.50728 0.19287 0.25766 0.0
C20 C 0.53092 0.19653 0.26443 0.0
N21 N 0.5446 0.14794 0.30602 0.0
C22 C 0.52904 0.09668 0.29701 0.0
C23 C 0.53593 0.10788 0.32679 0.0
C24 C 0.54374 0.13322 0.33071 0.0
C25 C 0.52988 0.11181 0.27168 0.0
C26 C 0.53739 0.13727 0.27675 0.0
N27 N 0.57312 0.22015 0.32075 0.0
C28 C 0.56897 0.25588 0.334 0.0
C29 C 0.59403 0.27187 0.32554 0.0
C30 C 0.60855 0.26153 0.31574 0.0
C31 C 0.59788 0.23574 0.3139 0.0
C32 C 0.55875 0.22994 0.33114 0.0
H33 H 0.60964 0.22843 0.30625 0.0
H34 H 0.5392 0.21783 0.33681 0.0
H35 H 0.54967 0.14094 0.35392 0.0
H36 H 0.53775 0.14844 0.25694 0.0
C37 C 0.60793 0.18364 0.28821 0.0
C38 C 0.55357 0.21168 0.2453 0.0
C39 C 0.57634 0.18659 0.39226 0.0
C40 C 0.50083 0.16488 0.33224 0.0
H41 H 0.59351 0.21832 0.20186 0.0
H42 H 0.62153 0.20013 0.22414 0.0
H43 H 0.63923 0.18165 0.3374 0.0
H44 H 0.62296 0.18564 0.39401 0.0
H45 H 0.53245 0.17278 0.43143 0.0
H46 H 0.49063 0.15805 0.39867 0.0
H47 H 0.47215 0.17254 0.28468 0.0
H48 H 0.50216 0.20088 0.23835 0.0
H49 H 0.53594 0.09722 0.34706 0.0
H50 H 0.52457 0.10399 0.24822 0.0
H51 H 0.55733 0.26336 0.34209 0.0
H52 H 0.62819 0.27337 0.30973 0.0
C53 C 0.3738 0.5667 0.58197 0.0
C54 C 0.38717 0.58319 0.55791 0.0
C55 C 0.41152 0.59751 0.56855 0.0
C56 C 0.41175 0.58895 0.59845 0.0
N57 N 0.3891 0.57005 0.60684 0.0
Co58 Co 0.38002 0.5539 0.64871 0.0
N59 N 0.4084 0.58287 0.6698 0.0
C60 C 0.42913 0.60046 0.65502 0.0
C61 C 0.44629 0.61779 0.67557 0.0
C62 C 0.43577 0.61041 0.70502 0.0
C63 C 0.41263 0.58892 0.70089 0.0
N64 N 0.3702 0.53747 0.69051 0.0
C65 C 0.37705 0.54727 0.71992 0.0
C66 C 0.36514 0.52871 0.74253 0.0
C67 C 0.35108 0.50661 0.72662 0.0
C68 C 0.3549 0.5128 0.69526 0.0
N69 N 0.3517 0.52516 0.62719 0.0
C70 C 0.33866 0.50172 0.63848 0.0
C71 C 0.31824 0.48661 0.62007 0.0
C72 C 0.31835 0.50158 0.59604 0.0
C73 C 0.33916 0.52513 0.60075 0.0
N74 N 0.40214 0.53945 0.64201 0.0
C75 C 0.43989 0.52641 0.63272 0.0
C76 C 0.43517 0.533 0.66252 0.0
C77 C 0.41659 0.53949 0.66658 0.0
C78 C 0.42406 0.52512 0.60785 0.0
C79 C 0.40529 0.53162 0.61301 0.0
N80 N 0.35892 0.56884 0.65551 0.0
C81 C 0.31954 0.56589 0.66944 0.0
C82 C 0.32886 0.59077 0.66017 0.0
C83 C 0.35358 0.60454 0.64943 0.0
C84 C 0.36832 0.59339 0.64768 0.0
C85 C 0.33487 0.55515 0.66661 0.0
H86 H 0.38731 0.60465 0.63944 0.0
H87 H 0.32726 0.53577 0.67303 0.0
H88 H 0.41469 0.54543 0.68973 0.0
H89 H 0.3939 0.53112 0.59332 0.0
C90 C 0.43001 0.60195 0.62181 0.0
C91 C 0.34692 0.54735 0.58038 0.0
C92 C 0.39653 0.57332 0.72704 0.0
C93 C 0.34149 0.49698 0.67008 0.0
H94 H 0.37996 0.58497 0.53538 0.0
H95 H 0.4267 0.61344 0.55676 0.0
H96 H 0.46407 0.63416 0.66984 0.0
H97 H 0.44438 0.61951 0.72705 0.0
H98 H 0.36662 0.53077 0.76788 0.0
H99 H 0.33886 0.48838 0.73677 0.0
H100 H 0.3036 0.46766 0.6251 0.0
H101 H 0.30398 0.49574 0.57824 0.0
H102 H 0.44604 0.53355 0.68288 0.0
H103 H 0.42667 0.52 0.58434 0.0
H104 H 0.30056 0.55482 0.67829 0.0
H105 H 0.36163 0.62401 0.64279 0.0
C106 C 0.81292 0.37101 0.91265 0.0
C107 C 0.80884 0.38408 0.88903 0.0
C108 C 0.81869 0.40831 0.89968 0.0
C109 C 0.82815 0.40879 0.92924 0.0
N110 N 0.82498 0.38638 0.93744 0.0
Co111 Co 0.83254 0.37749 0.97925 0.0
N112 N 0.83176 0.40563 1.00049 0.0
C113 C 0.83429 0.42611 0.98583 0.0
C114 C 0.83361 0.4429 1.00651 0.0
C115 C 0.83078 0.43241 0.03589 0.0
C116 C 0.82995 0.40971 0.0316 0.0
N117 N 0.83966 0.36783 0.02081 0.0
C118 C 0.83677 0.37461 0.05027 0.0
C119 C 0.84484 0.36382 0.0727 0.0
C120 C 0.85319 0.35005 0.05658 0.0
C121 C 0.84984 0.35317 0.02524 0.0
N122 N 0.83315 0.34944 0.95772 0.0
C123 C 0.84423 0.33685 0.96838 0.0
C124 C 0.83949 0.31695 0.9492 0.0
C125 C 0.82429 0.31703 0.9254 0.0
C126 C 0.82054 0.33697 0.93143 0.0
N127 N 0.86908 0.39973 0.9722 0.0
C128 C 0.92056 0.43533 0.96334 0.0
C129 C 0.90919 0.43142 0.99296 0.0
C130 C 0.88373 0.41393 0.9968 0.0
C131 C 0.90551 0.4207 0.93809 0.0
C132 C 0.87993 0.40279 0.94309 0.0
N133 N 0.79658 0.35613 0.98649 0.0
C134 C 0.7608 0.31657 1.00095 0.0
C135 C 0.7447 0.32534 0.99188 0.0
C136 C 0.75501 0.34986 0.98097 0.0
C137 C 0.7809 0.365 0.97886 0.0
C138 C 0.78681 0.33226 0.99775 0.0
H139 H 0.7882 0.38385 0.97052 0.0
H140 H 0.79899 0.32505 1.00399 0.0
H141 H 0.87586 0.41243 0.01987 0.0
H142 H 0.86882 0.39171 0.92336 0.0
C143 C 0.83328 0.4269 0.95267 0.0
C144 C 0.80553 0.34421 0.91159 0.0
C145 C 0.82937 0.39342 0.05751 0.0
C146 C 0.85237 0.33988 0.99987 0.0
H147 H 0.79916 0.37685 0.86692 0.0
H148 H 0.8172 0.42319 0.88826 0.0
H149 H 0.83429 0.46033 1.00088 0.0
H150 H 0.82969 0.44065 0.05791 0.0
H151 H 0.84516 0.36608 0.09802 0.0
H152 H 0.86025 0.33865 0.06659 0.0
H153 H 0.84474 0.30287 0.95331 0.0
H154 H 0.8164 0.30368 0.90629 0.0
H155 H 0.91979 0.44236 0.01314 0.0
H156 H 0.91347 0.42289 0.91476 0.0
H157 H 0.75336 0.29775 0.0099 0.0
H158 H 0.74309 0.35743 0.97446 0.0
C159 C 0.45293 0.81075 0.24734 0.0
C160 C 0.43683 0.80757 0.22268 0.0
C161 C 0.42209 0.81726 0.23268 0.0
C162 C 0.43002 0.82595 0.2628 0.0
N163 N 0.44894 0.82245 0.27195 0.0
Co164 Co 0.46431 0.82949 0.31432 0.0
N165 N 0.43474 0.82848 0.3343 0.0
C166 C 0.41722 0.83134 0.31886 0.0
C167 C 0.39922 0.83057 0.33877 0.0
C168 C 0.4061 0.82733 0.36849 0.0
C169 C 0.42804 0.82635 0.36516 0.0
N170 N 0.47997 0.83607 0.35663 0.0
C171 C 0.46949 0.83279 0.38564 0.0
C172 C 0.48777 0.84055 0.40891 0.0
C173 C 0.51035 0.84909 0.39377 0.0
C174 C 0.50471 0.84617 0.3622 0.0
N175 N 0.49368 0.83037 0.29396 0.0
C176 C 0.517 0.84106 0.30602 0.0
C177 C 0.53263 0.83599 0.28835 0.0
C178 C 0.51815 0.82105 0.264 0.0
C179 C 0.49434 0.81801 0.26775 0.0
N180 N 0.47867 0.866 0.30779 0.0
C181 C 0.49152 0.91661 0.29857 0.0
C182 C 0.48443 0.90514 0.32822 0.0
C183 C 0.47804 0.88017 0.33224 0.0
C184 C 0.49342 0.90234 0.27386 0.0
C185 C 0.487 0.87716 0.27898 0.0
N186 N 0.44947 0.79354 0.32101 0.0
C187 C 0.45243 0.75749 0.33622 0.0
C188 C 0.42766 0.7417 0.3263 0.0
C189 C 0.41395 0.75235 0.31448 0.0
C190 C 0.42503 0.77817 0.31242 0.0
C191 C 0.46312 0.78348 0.33304 0.0
H192 H 0.41379 0.78567 0.30345 0.0
H193 H 0.48241 0.79542 0.34005 0.0
H194 H 0.47167 0.87218 0.35523 0.0
H195 H 0.48798 0.86647 0.2594 0.0
C196 C 0.41637 0.83085 0.28561 0.0
C197 C 0.47251 0.8035 0.24661 0.0
C198 C 0.44306 0.82535 0.39173 0.0
C199 C 0.52116 0.84885 0.33763 0.0
H200 H 0.43557 0.79874 0.20019 0.0
H201 H 0.40627 0.81635 0.22028 0.0
H202 H 0.38267 0.83149 0.33242 0.0
H203 H 0.39624 0.8261 0.39013 0.0
H204 H 0.48515 0.84052 0.43413 0.0
H205 H 0.52858 0.85597 0.40458 0.0
H206 H 0.55162 0.84058 0.29406 0.0
H207 H 0.52448 0.81269 0.2466 0.0
H208 H 0.48341 0.91525 0.34849 0.0
H209 H 0.49894 0.9102 0.25048 0.0
H210 H 0.46345 0.74983 0.34589 0.0
H211 H 0.39454 0.74075 0.30732 0.0
C212 C 0.64552 0.44328 0.58096 0.0
C213 C 0.63205 0.4258 0.55781 0.0
C214 C 0.60783 0.4117 0.56893 0.0
C215 C 0.60779 0.4212 0.59828 0.0
N216 N 0.63044 0.44047 0.60591 0.0
Co217 Co 0.63993 0.45764 0.64727 0.0
N218 N 0.61187 0.42913 0.66936 0.0
C219 C 0.59105 0.41109 0.65522 0.0
C220 C 0.57421 0.39418 0.67638 0.0
C221 C 0.58505 0.40232 0.70553 0.0
C222 C 0.60807 0.4238 0.70063 0.0
N223 N 0.65016 0.47514 0.68841 0.0
C224 C 0.64367 0.46603 0.71816 0.0
C225 C 0.65576 0.48516 0.74005 0.0
C226 C 0.66957 0.50689 0.72331 0.0
C227 C 0.66545 0.49995 0.69218 0.0
N228 N 0.66792 0.48583 0.62486 0.0
C229 C 0.6809 0.50963 0.63489 0.0
C230 C 0.70066 0.52437 0.61522 0.0
C231 C 0.7001 0.50868 0.59175 0.0
C232 C 0.68004 0.48518 0.59847 0.0
N233 N 0.61768 0.47186 0.64002 0.0
C234 C 0.58216 0.48779 0.63103 0.0
C235 C 0.5863 0.48073 0.66077 0.0
C236 C 0.60376 0.47274 0.66468 0.0
C237 C 0.59651 0.48691 0.60572 0.0
C238 C 0.61438 0.47921 0.61078 0.0
N239 N 0.66128 0.4431 0.65474 0.0
C240 C 0.70104 0.44696 0.66879 0.0
C241 C 0.69193 0.42195 0.66041 0.0
C242 C 0.66715 0.40764 0.65005 0.0
C243 C 0.6521 0.41843 0.64779 0.0
C244 C 0.68541 0.4573 0.66546 0.0
H245 H 0.63306 0.40681 0.63986 0.0
H246 H 0.69287 0.47679 0.67116 0.0
H247 H 0.60544 0.46671 0.68786 0.0
H248 H 0.62524 0.47883 0.59099 0.0
C249 C 0.58984 0.40873 0.62211 0.0
C250 C 0.67244 0.46261 0.57925 0.0
C251 C 0.62446 0.44004 0.7262 0.0
C252 C 0.6785 0.51524 0.66634 0.0
H253 H 0.63899 0.42297 0.53569 0.0
H254 H 0.59268 0.39521 0.55796 0.0
H255 H 0.55644 0.37758 0.67123 0.0
H256 H 0.57675 0.3937 0.72787 0.0
H257 H 0.65459 0.48373 0.76547 0.0
H258 H 0.68182 0.52538 0.73279 0.0
H259 H 0.715 0.5437 0.61884 0.0
H260 H 0.71325 0.51374 0.57243 0.0
H261 H 0.57557 0.48073 0.68102 0.0
H262 H 0.59413 0.49236 0.58229 0.0
H263 H 0.72008 0.45843 0.67728 0.0
H264 H 0.65935 0.38806 0.64405 0.0
C265 C 0.20731 0.64499 0.91451 0.0
C266 C 0.21043 0.632 0.88995 0.0
C267 C 0.20062 0.60764 0.90006 0.0
C268 C 0.19194 0.60701 0.93016 0.0
N269 N 0.19556 0.62944 0.93917 0.0
Co270 Co 0.18854 0.63793 0.98144 0.0
N271 N 0.18943 0.60948 1.00162 0.0
C272 C 0.18647 0.58907 0.9863 0.0
C273 C 0.18717 0.57194 1.00634 0.0
C274 C 0.19045 0.58215 0.036 0.0
C275 C 0.19153 0.60503 0.03251 0.0
N276 N 0.18197 0.64715 0.02364 0.0
C277 C 0.18521 0.64005 0.05273 0.0
C278 C 0.17747 0.65064 0.07587 0.0
C279 C 0.16899 0.66461 0.0606 0.0
C280 C 0.17192 0.66178 0.02906 0.0
N281 N 0.18779 0.6663 0.96088 0.0
C282 C 0.17714 0.67896 0.97279 0.0
C283 C 0.1823 0.69956 0.95498 0.0
C284 C 0.19727 0.69992 0.9307 0.0
C285 C 0.20024 0.6792 0.93464 0.0
N286 N 0.15191 0.61581 0.97485 0.0
C287 C 0.10115 0.578 0.96547 0.0
C288 C 0.11258 0.58249 0.99519 0.0
C289 C 0.13763 0.60109 0.99929 0.0
C290 C 0.11552 0.5941 0.94078 0.0
C291 C 0.14078 0.6129 0.94597 0.0
N292 N 0.22462 0.65902 0.98816 0.0
C293 C 0.26087 0.69807 1.00318 0.0
C294 C 0.27664 0.6891 0.9933 0.0
C295 C 0.26591 0.66475 0.98162 0.0
C296 C 0.23999 0.64997 0.97965 0.0
C297 C 0.23478 0.68275 1.00007 0.0
H298 H 0.23241 0.63122 0.97078 0.0
H299 H 0.22284 0.69009 0.00701 0.0
H300 H 0.1456 0.60279 0.02233 0.0
H301 H 0.15155 0.62451 0.92641 0.0
C302 C 0.18696 0.58857 0.95306 0.0
C303 C 0.21473 0.67178 0.91366 0.0
C304 C 0.19257 0.62111 0.05899 0.0
C305 C 0.16931 0.67546 1.00438 0.0
H306 H 0.2193 0.63948 0.86744 0.0
H307 H 0.20146 0.5927 0.88776 0.0
H308 H 0.18616 0.55446 1.0001 0.0
H309 H 0.19163 0.5736 0.0577 0.0
H310 H 0.17747 0.64814 0.10111 0.0
H311 H 0.16214 0.67598 0.0713 0.0
H312 H 0.17776 0.71395 0.96055 0.0
H313 H 0.20569 0.7145 0.91322 0.0
H314 H 0.10237 0.5714 0.01545 0.0
H315 H 0.10769 0.59169 0.91734 0.0
H316 H 0.26863 0.71677 0.01276 0.0
H317 H 0.27754 0.65699 0.97446 0.0
C318 C 0.81286 0.44367 0.43247 0.0
C319 C 0.80908 0.42625 0.45556 0.0
C320 C 0.81921 0.41228 0.44418 0.0
C321 C 0.82852 0.42177 0.41476 0.0
N322 N 0.82501 0.44094 0.40732 0.0
Co323 Co 0.83223 0.45799 0.36594 0.0
N324 N 0.83169 0.42954 0.34365 0.0
C325 C 0.83475 0.41167 0.35764 0.0
C326 C 0.83471 0.39485 0.33638 0.0
C327 C 0.83174 0.40288 0.30731 0.0
C328 C 0.83003 0.42421 0.31237 0.0
N329 N 0.83898 0.47536 0.32479 0.0
C330 C 0.83613 0.4662 0.29501 0.0
C331 C 0.8428 0.48524 0.27313 0.0
C332 C 0.85074 0.50697 0.28987 0.0
C333 C 0.8483 0.50012 0.32101 0.0
N334 N 0.83261 0.48615 0.38858 0.0
C335 C 0.84326 0.50991 0.3785 0.0
C336 C 0.83836 0.5246 0.39838 0.0
C337 C 0.82348 0.50891 0.42202 0.0
C338 C 0.82005 0.48546 0.41518 0.0
N339 N 0.86887 0.47235 0.37258 0.0
C340 C 0.91963 0.48491 0.38125 0.0
C341 C 0.90836 0.4793 0.35139 0.0
C342 C 0.88333 0.47303 0.34764 0.0
C343 C 0.90512 0.48558 0.40658 0.0
C344 C 0.87985 0.47933 0.40173 0.0
N345 N 0.79617 0.44317 0.35908 0.0
C346 C 0.75978 0.44647 0.34612 0.0
C347 C 0.74408 0.42131 0.35424 0.0
C348 C 0.755 0.40727 0.36387 0.0
C349 C 0.78092 0.41841 0.36581 0.0
C350 C 0.78589 0.45714 0.34898 0.0
H351 H 0.7886 0.40697 0.37329 0.0
H352 H 0.79772 0.4767 0.34343 0.0
H353 H 0.87551 0.46774 0.32437 0.0
H354 H 0.86895 0.4793 0.42172 0.0
C355 C 0.83389 0.40937 0.39075 0.0
C356 C 0.80521 0.46289 0.43443 0.0
C357 C 0.82963 0.44033 0.28689 0.0
C358 C 0.85082 0.51545 0.34691 0.0
H359 H 0.79946 0.42339 0.4778 0.0
H360 H 0.81802 0.39586 0.45506 0.0
H361 H 0.83609 0.3784 0.3414 0.0
H362 H 0.83138 0.39429 0.28493 0.0
H363 H 0.8423 0.48375 0.24771 0.0
H364 H 0.85679 0.5254 0.28041 0.0
H365 H 0.84321 0.54386 0.39479 0.0
H366 H 0.8155 0.51392 0.4415 0.0
H367 H 0.91869 0.47928 0.33074 0.0
H368 H 0.91285 0.48996 0.43016 0.0
H369 H 0.75196 0.45782 0.3382 0.0
H370 H 0.74354 0.38757 0.3695 0.0
C371 C 0.37267 0.80982 0.76562 0.0
C372 C 0.38588 0.80665 0.7899 0.0
C373 C 0.4103 0.81662 0.77956 0.0
C374 C 0.41074 0.82544 0.74963 0.0
N375 N 0.38815 0.82175 0.7409 0.0
Co376 Co 0.37949 0.8291 0.6989 0.0
N377 N 0.40814 0.82868 0.67826 0.0
C378 C 0.42873 0.83169 0.69336 0.0
C379 C 0.44608 0.83156 0.67307 0.0
C380 C 0.43583 0.82857 0.64347 0.0
C381 C 0.41265 0.82696 0.64725 0.0
N382 N 0.37012 0.83603 0.65696 0.0
C383 C 0.37727 0.83322 0.62767 0.0
C384 C 0.36562 0.84007 0.60487 0.0
C385 C 0.35139 0.84805 0.62056 0.0
C386 C 0.35487 0.84546 0.65197 0.0
N387 N 0.35088 0.82937 0.71993 0.0
C388 C 0.33792 0.83984 0.70842 0.0
C389 C 0.31733 0.83451 0.7265 0.0
C390 C 0.31727 0.81962 0.75058 0.0
C391 C 0.33816 0.81688 0.74624 0.0
N392 N 0.40139 0.86557 0.70611 0.0
C393 C 0.43695 0.91684 0.71569 0.0
C394 C 0.43338 0.90567 0.68598 0.0
C395 C 0.41587 0.8803 0.68178 0.0
C396 C 0.4219 0.9017 0.7406 0.0
C397 C 0.40403 0.87624 0.73524 0.0
N398 N 0.35856 0.79318 0.69158 0.0
C399 C 0.31948 0.75697 0.67644 0.0
C400 C 0.32872 0.74133 0.68576 0.0
C401 C 0.35325 0.75213 0.69719 0.0
C402 C 0.36789 0.77796 0.69952 0.0
C403 C 0.33468 0.78297 0.67988 0.0
H404 H 0.38675 0.78559 0.70824 0.0
H405 H 0.32712 0.79477 0.67339 0.0
H406 H 0.41467 0.87256 0.6587 0.0
H407 H 0.39268 0.86507 0.75475 0.0
C408 C 0.42926 0.83084 0.72657 0.0
C409 C 0.34581 0.80248 0.76695 0.0
C410 C 0.39673 0.82652 0.62087 0.0
C411 C 0.34112 0.84767 0.67691 0.0
H412 H 0.37853 0.79771 0.81239 0.0
H413 H 0.42541 0.81586 0.79162 0.0
H414 H 0.46379 0.83286 0.67908 0.0
H415 H 0.4446 0.8281 0.62157 0.0
H416 H 0.36736 0.83963 0.57955 0.0
H417 H 0.33928 0.85416 0.61021 0.0
H418 H 0.30274 0.83889 0.72124 0.0
H419 H 0.30276 0.81108 0.7682 0.0
H420 H 0.44464 0.91632 0.66603 0.0
H421 H 0.42379 0.90949 0.76397 0.0
H422 H 0.30065 0.74917 0.66709 0.0
H423 H 0.36124 0.74065 0.70391 0.0
C424 C 0.57276 0.37119 0.10061 0.0
C425 C 0.59005 0.38437 0.12411 0.0
C426 C 0.60457 0.40853 0.11323 0.0
C427 C 0.59549 0.40884 0.08368 0.0
N428 N 0.57607 0.38641 0.0757 0.0
Co429 Co 0.55946 0.37723 0.03397 0.0
N430 N 0.58855 0.40507 0.01243 0.0
C431 C 0.60668 0.42563 0.02688 0.0
C432 C 0.62417 0.44224 1.00604 0.0
C433 C 0.61631 0.43155 0.97677 0.0
C434 C 0.59432 0.40891 0.98128 0.0
N435 N 0.5425 0.36725 0.99248 0.0
C436 C 0.55212 0.37376 0.96295 0.0
C437 C 0.53313 0.3628 0.94062 0.0
C438 C 0.51101 0.34922 0.95688 0.0
C439 C 0.51759 0.35261 0.98818 0.0
N440 N 0.53067 0.34948 0.05582 0.0
C441 C 0.50692 0.33685 0.04527 0.0
C442 C 0.49173 0.31706 0.06459 0.0
C443 C 0.50709 0.31724 0.08836 0.0
C444 C 0.53085 0.33712 0.08217 0.0
N445 N 0.54556 0.39982 0.04059 0.0
C446 C 0.53332 0.43811 0.04923 0.0
C447 C 0.53938 0.43274 0.01949 0.0
C448 C 0.54552 0.41395 0.01576 0.0
C449 C 0.53209 0.42264 0.07444 0.0
C450 C 0.5382 0.40359 0.06961 0.0
N451 N 0.57375 0.35563 0.02707 0.0
C452 C 0.56966 0.31596 0.01276 0.0
C453 C 0.59458 0.32472 0.02171 0.0
C454 C 0.60897 0.34927 0.03255 0.0
C455 C 0.59836 0.36446 0.03464 0.0
C456 C 0.55947 0.33171 0.01597 0.0
H457 H 0.61005 0.38334 0.04285 0.0
H458 H 0.54003 0.32452 0.00979 0.0
H459 H 0.55115 0.41164 0.9926 0.0
H460 H 0.53777 0.39246 0.08951 0.0
C461 C 0.60857 0.42671 0.06004 0.0
C462 C 0.55322 0.34439 0.10186 0.0
C463 C 0.57837 0.39253 0.95551 0.0
C464 C 0.50177 0.33961 0.01371 0.0
H465 H 0.59253 0.37726 0.14627 0.0
H466 H 0.62108 0.42344 0.1245 0.0
H467 H 0.64102 0.4597 0.01149 0.0
H468 H 0.62557 0.43963 0.95465 0.0
H469 H 0.53499 0.36483 0.91528 0.0
H470 H 0.49245 0.33777 0.94698 0.0
H471 H 0.47234 0.30294 0.06056 0.0
H472 H 0.50164 0.30396 0.10753 0.0
H473 H 0.53984 0.44331 0.9989 0.0
H474 H 0.52735 0.42575 0.09793 0.0
H475 H 0.55814 0.29711 1.00387 0.0
H476 H 0.62851 0.35683 0.03896 0.0
C477 C 0.20825 0.56684 0.43288 0.0
C478 C 0.21152 0.58324 0.45713 0.0
C479 C 0.20153 0.59761 0.44679 0.0
C480 C 0.19261 0.58917 0.41688 0.0
N481 N 0.19624 0.5703 0.40817 0.0
Co482 Co 0.18882 0.55425 0.36619 0.0
N483 N 0.18933 0.58325 0.34551 0.0
C484 C 0.18637 0.6008 0.36058 0.0
C485 C 0.18655 0.61822 0.34027 0.0
C486 C 0.18951 0.61094 0.31068 0.0
C487 C 0.19107 0.58942 0.3145 0.0
N488 N 0.18183 0.53793 0.32426 0.0
C489 C 0.18466 0.54783 0.29496 0.0
C490 C 0.17774 0.52933 0.27218 0.0
C491 C 0.16968 0.50718 0.28789 0.0
C492 C 0.1723 0.51328 0.3193 0.0
N493 N 0.18846 0.52547 0.38727 0.0
C494 C 0.17789 0.50206 0.3758 0.0
C495 C 0.18321 0.48688 0.39392 0.0
C496 C 0.19821 0.50174 0.41797 0.0
C497 C 0.20103 0.52532 0.41357 0.0
N498 N 0.15223 0.53968 0.37333 0.0
C499 C 0.10077 0.52386 0.38273 0.0
C500 C 0.11203 0.5315 0.35306 0.0
C501 C 0.13749 0.53941 0.34895 0.0
C502 C 0.11592 0.52399 0.40769 0.0
C503 C 0.14148 0.53165 0.40242 0.0
N504 N 0.22485 0.56923 0.35894 0.0
C505 C 0.26112 0.56633 0.34407 0.0
C506 C 0.27687 0.59118 0.3534 0.0
C507 C 0.2661 0.60492 0.36467 0.0
C508 C 0.24018 0.59376 0.36686 0.0
C509 C 0.23504 0.55557 0.34735 0.0
H510 H 0.23257 0.60499 0.37548 0.0
H511 H 0.22314 0.53622 0.34086 0.0
H512 H 0.14528 0.54595 0.3259 0.0
H513 H 0.15266 0.53151 0.42197 0.0
C514 C 0.18722 0.60222 0.39379 0.0
C515 C 0.2156 0.5474 0.43419 0.0
C516 C 0.19145 0.57394 0.28814 0.0
C517 C 0.17003 0.49739 0.34427 0.0
H518 H 0.22055 0.5849 0.4796 0.0
H519 H 0.20237 0.61348 0.45881 0.0
H520 H 0.18529 0.63461 0.34625 0.0
H521 H 0.19 0.62014 0.28877 0.0
H522 H 0.17818 0.53147 0.24686 0.0
H523 H 0.1635 0.48897 0.27757 0.0
H524 H 0.17875 0.46793 0.38869 0.0
H525 H 0.20677 0.49583 0.43561 0.0
H526 H 0.10138 0.53209 0.33308 0.0
H527 H 0.10807 0.51807 0.43104 0.0
H528 H 0.2689 0.55528 0.33483 0.0
H529 H 0.27767 0.62438 0.37138 0.0
C530 C 0.64554 0.20352 0.76676 0.0
C531 C 0.63225 0.20737 0.79036 0.0
C532 C 0.60798 0.19757 0.7795 0.0
C533 C 0.60772 0.18837 0.74985 0.0
N534 N 0.63028 0.19163 0.7418 0.0
Co535 Co 0.63955 0.18451 0.69995 0.0
N536 N 0.61147 0.18549 0.67856 0.0
C537 C 0.59079 0.18278 0.69308 0.0
C538 C 0.57401 0.1835 0.67233 0.0
C539 C 0.58473 0.18653 0.64303 0.0
C540 C 0.60754 0.18743 0.64744 0.0
N541 N 0.64961 0.17784 0.65835 0.0
C542 C 0.64299 0.18093 0.62888 0.0
C543 C 0.65408 0.17316 0.60643 0.0
C544 C 0.66784 0.1648 0.62254 0.0
C545 C 0.66444 0.16783 0.65389 0.0
N546 N 0.66753 0.18372 0.72165 0.0
C547 C 0.68031 0.17284 0.71094 0.0
C548 C 0.70019 0.17751 0.73025 0.0
C549 C 0.6999 0.19245 0.75419 0.0
C550 C 0.67987 0.19615 0.7481 0.0
N551 N 0.61709 0.14802 0.70638 0.0
C552 C 0.57887 0.09744 0.7149 0.0
C553 C 0.58413 0.10888 0.68519 0.0
C554 C 0.6029 0.13383 0.68152 0.0
C555 C 0.59443 0.11169 0.74011 0.0
C556 C 0.61345 0.13687 0.73533 0.0
N557 N 0.66102 0.22042 0.6933 0.0
C558 C 0.70073 0.2563 0.67936 0.0
C559 C 0.69177 0.27219 0.68854 0.0
C560 C 0.66709 0.26173 0.69926 0.0
C561 C 0.65197 0.23592 0.70105 0.0
C562 C 0.68506 0.23034 0.68226 0.0
H563 H 0.633 0.22852 0.70922 0.0
H564 H 0.69241 0.21831 0.67593 0.0
H565 H 0.60514 0.14179 0.65841 0.0
H566 H 0.62463 0.14757 0.75524 0.0
C567 C 0.58973 0.18346 0.72625 0.0
C568 C 0.67246 0.21097 0.76798 0.0
C569 C 0.62401 0.18814 0.6216 0.0
C570 C 0.67757 0.16508 0.67932 0.0
H571 H 0.63935 0.21687 0.81259 0.0
H572 H 0.59296 0.19894 0.79085 0.0
H573 H 0.55644 0.18267 0.67786 0.0
H574 H 0.57655 0.18767 0.62096 0.0
H575 H 0.65199 0.17304 0.58109 0.0
H576 H 0.67941 0.1579 0.61252 0.0
H577 H 0.71442 0.17241 0.72612 0.0
H578 H 0.7132 0.20026 0.7734 0.0
H579 H 0.57349 0.09876 0.6646 0.0
H580 H 0.5914 0.10381 0.76356 0.0
H581 H 0.71968 0.26385 0.67056 0.0
H582 H 0.65937 0.27349 0.70584 0.0
C583 C 0.45241 0.64478 0.10058 0.0
C584 C 0.4363 0.63194 0.12523 0.0
C585 C 0.42172 0.60748 0.11538 0.0
C586 C 0.42975 0.60665 0.08534 0.0
N587 N 0.44857 0.62904 0.07611 0.0
Co588 Co 0.46403 0.63722 0.0338 0.0
N589 N 0.43466 0.60849 0.01388 0.0
C590 C 0.41721 0.58817 0.02938 0.0
C591 C 0.39929 0.57086 0.0095 0.0
C592 C 0.40614 0.58086 0.97973 0.0
C593 C 0.42799 0.6038 0.98302 0.0
N594 N 0.47977 0.64614 0.99155 0.0
C595 C 0.46934 0.63879 0.96253 0.0
C596 C 0.48765 0.64923 0.93931 0.0
C597 C 0.51019 0.66338 0.95448 0.0
C598 C 0.50449 0.6608 0.98604 0.0
N599 N 0.49323 0.66588 0.05408 0.0
C600 C 0.51656 0.67852 0.0421 0.0
C601 C 0.53206 0.69929 0.05969 0.0
C602 C 0.51747 0.69978 0.0839 0.0
C603 C 0.49374 0.67896 0.08017 0.0
N604 N 0.47874 0.61539 0.0408 0.0
C605 C 0.49455 0.57989 0.05019 0.0
C606 C 0.48658 0.58324 0.02062 0.0
C607 C 0.47867 0.60071 0.01651 0.0
C608 C 0.49479 0.59513 0.07506 0.0
C609 C 0.48714 0.61296 0.06978 0.0
N610 N 0.44893 0.65808 0.02669 0.0
C611 C 0.45178 0.69704 0.01158 0.0
C612 C 0.42703 0.68808 0.02155 0.0
C613 C 0.41334 0.66373 0.03323 0.0
C614 C 0.42446 0.64899 0.0352 0.0
C615 C 0.46252 0.68176 0.01467 0.0
H616 H 0.41328 0.63027 0.04415 0.0
H617 H 0.48182 0.68912 0.0077 0.0
H618 H 0.47182 0.60174 0.99356 0.0
H619 H 0.48757 0.62445 0.08926 0.0
C620 C 0.41626 0.58798 0.06263 0.0
C621 C 0.47185 0.67161 0.10121 0.0
C622 C 0.44295 0.61979 0.95642 0.0
C623 C 0.52085 0.67475 0.0106 0.0
H624 H 0.43494 0.63957 0.14763 0.0
H625 H 0.40595 0.59261 0.1278 0.0
H626 H 0.38278 0.55341 0.01589 0.0
H627 H 0.39631 0.57215 0.95811 0.0
H628 H 0.48508 0.64652 0.91409 0.0
H629 H 0.52842 0.67472 0.94371 0.0
H630 H 0.55103 0.71369 0.05401 0.0
H631 H 0.52369 0.7145 0.10121 0.0
H632 H 0.48571 0.57183 1.00072 0.0
H633 H 0.50098 0.59341 0.09833 0.0
H634 H 0.46276 0.71573 1.002 0.0
H635 H 0.39394 0.65597 0.04045 0.0
H636 H 0.55739 0.14752 0.43418 0.0
H637 H 0.64784 0.22603 0.57848 0.0
H638 H 0.61259 0.22572 0.42697 0.0
H639 H 0.58493 0.15142 0.58783 0.0
H640 H 0.6369 0.22606 0.52259 0.0
H641 H 0.56883 0.14812 0.48969 0.0
C642 C 0.57186 0.16488 0.44441 0.0
C643 C 0.5837 0.18673 0.4261 0.0
C644 C 0.62539 0.20971 0.53686 0.0
C645 C 0.59735 0.18753 0.48977 0.0
C646 C 0.63162 0.20973 0.56874 0.0
C647 C 0.61705 0.18884 0.58785 0.0
C648 C 0.60457 0.18847 0.52381 0.0
C649 C 0.59644 0.16803 0.57399 0.0
C650 C 0.57845 0.16522 0.47611 0.0
C651 C 0.60278 0.20854 0.44036 0.0
N652 N 0.59085 0.16837 0.54294 0.0
N653 N 0.60897 0.20842 0.47128 0.0
H654 H 0.41806 0.55532 0.76817 0.0
H655 H 0.42847 0.64363 0.91389 0.0
H656 H 0.39321 0.60914 0.76211 0.0
H657 H 0.43952 0.58035 0.92257 0.0
H658 H 0.41761 0.63317 0.85789 0.0
H659 H 0.42866 0.56629 0.82384 0.0
C660 C 0.41485 0.56948 0.77866 0.0
C661 C 0.40436 0.58105 0.76064 0.0
C662 C 0.42221 0.62144 0.87206 0.0
C663 C 0.41675 0.59403 0.82452 0.0
C664 C 0.42831 0.62736 0.90402 0.0
C665 C 0.43444 0.61256 0.92297 0.0
C666 C 0.42263 0.60075 0.85874 0.0
C667 C 0.43447 0.59198 0.9089 0.0
C668 C 0.42087 0.57574 0.81046 0.0
C669 C 0.40103 0.59961 0.77525 0.0
N670 N 0.42874 0.58674 0.87774 0.0
N671 N 0.40713 0.60548 0.80629 0.0
H672 H 0.86887 0.45995 0.24498 0.0
H673 H 0.79144 0.36908 0.10059 0.0
H674 H 0.79078 0.40374 0.25211 0.0
H675 H 0.86571 0.43278 0.09131 0.0
H676 H 0.7911 0.37985 0.15647 0.0
H677 H 0.86858 0.4487 0.18946 0.0
C678 C 0.8516 0.4453 0.23473 0.0
C679 C 0.82968 0.43311 0.25302 0.0
C680 C 0.80744 0.39157 0.14222 0.0
C681 C 0.82924 0.41969 0.18934 0.0
C682 C 0.80759 0.38544 0.11034 0.0
C683 C 0.82848 0.40028 0.09125 0.0
C684 C 0.82849 0.41257 0.1553 0.0
C685 C 0.8491 0.42106 0.10513 0.0
C686 C 0.85143 0.43882 0.20302 0.0
C687 C 0.808 0.41382 0.23873 0.0
N688 N 0.8486 0.42655 0.13618 0.0
N689 N 0.80829 0.40775 0.2078 0.0
H690 H 0.42824 0.7871 0.43439 0.0
H691 H 0.41884 0.86593 0.57973 0.0
H692 H 0.4401 0.86168 0.42543 0.0
H693 H 0.39304 0.78714 0.58602 0.0
H694 H 0.42947 0.8653 0.52414 0.0
H695 H 0.41747 0.78697 0.49037 0.0
C696 C 0.42828 0.80333 0.4442 0.0
C697 C 0.43462 0.82425 0.42518 0.0
C698 C 0.42147 0.84809 0.53755 0.0
C699 C 0.42291 0.82456 0.48938 0.0
C700 C 0.41545 0.84848 0.56932 0.0
C701 C 0.40468 0.82647 0.58737 0.0
C702 C 0.41708 0.82557 0.52357 0.0
C703 C 0.40109 0.80446 0.57285 0.0
C704 C 0.42223 0.80331 0.47614 0.0
C705 C 0.4349 0.84501 0.43917 0.0
N706 N 0.4072 0.80453 0.54185 0.0
N707 N 0.42921 0.84467 0.47031 0.0
H708 H 0.59235 0.36866 0.91225 0.0
H709 H 0.6043 0.45899 0.76823 0.0
H710 H 0.58065 0.43149 0.92183 0.0
H711 H 0.62731 0.40381 0.76077 0.0
H712 H 0.59342 0.44755 0.82371 0.0
H713 H 0.60328 0.37955 0.85636 0.0
C714 C 0.59225 0.38484 0.90256 0.0
C715 C 0.58594 0.39941 0.92173 0.0
C716 C 0.60092 0.43794 0.81008 0.0
C717 C 0.59803 0.41183 0.85769 0.0
C718 C 0.60718 0.44452 0.7784 0.0
C719 C 0.61721 0.43268 0.76003 0.0
C720 C 0.60432 0.41905 0.82366 0.0
C721 C 0.61993 0.41361 0.77421 0.0
C722 C 0.59845 0.39105 0.87068 0.0
C723 C 0.58573 0.41997 0.90794 0.0
N724 N 0.6136 0.40743 0.80512 0.0
N725 N 0.59164 0.42554 0.87688 0.0
H726 H 0.15187 0.55652 0.24698 0.0
H727 H 0.23098 0.64462 0.10167 0.0
H728 H 0.23096 0.60963 0.25331 0.0
H729 H 0.15602 0.58197 0.09273 0.0
H730 H 0.23111 0.63406 0.15766 0.0
H731 H 0.15247 0.56774 0.1914 0.0
C732 C 0.16938 0.57059 0.23658 0.0
C733 C 0.19148 0.58188 0.25463 0.0
C734 C 0.21469 0.62249 0.14344 0.0
C735 C 0.19234 0.59513 0.19086 0.0
C736 C 0.21467 0.62848 0.11149 0.0
C737 C 0.19363 0.61388 0.09248 0.0
C738 C 0.19333 0.60195 0.15668 0.0
C739 C 0.17277 0.59345 0.10647 0.0
C740 C 0.16975 0.57699 0.20482 0.0
C741 C 0.21357 0.60032 0.24013 0.0
N742 N 0.17312 0.58814 0.13761 0.0
N743 N 0.21347 0.60633 0.20914 0.0
H744 H 0.71608 0.42022 0.30338 0.0
H745 H 0.61481 0.30558 0.27816 0.0
H746 H 0.70932 0.39333 0.39858 0.0
H747 H 0.60197 0.30011 0.3783 0.0
H748 H 0.64602 0.34956 0.28416 0.0
H749 H 0.6716 0.38998 0.29478 0.0
C750 C 0.70503 0.4083 0.32267 0.0
C751 C 0.71643 0.40867 0.35141 0.0
C752 C 0.63579 0.33931 0.30483 0.0
C753 C 0.66601 0.37324 0.34145 0.0
C754 C 0.61795 0.31406 0.30131 0.0
C755 C 0.6061 0.29933 0.32782 0.0
C756 C 0.64209 0.34975 0.33524 0.0
C757 C 0.6108 0.31096 0.35733 0.0
C758 C 0.67972 0.3907 0.31763 0.0
C759 C 0.7013 0.39308 0.37577 0.0
N760 N 0.62894 0.33537 0.36037 0.0
N761 N 0.677 0.37567 0.37005 0.0
H762 H 0.30895 0.71411 0.63205 0.0
H763 H 0.30791 0.59772 0.71312 0.0
H764 H 0.31639 0.70649 0.73178 0.0
H765 H 0.31745 0.61371 0.61365 0.0
H766 H 0.29521 0.62933 0.71969 0.0
H767 H 0.29631 0.66988 0.62499 0.0
C768 C 0.30702 0.70284 0.65256 0.0
C769 C 0.314 0.71386 0.68244 0.0
C770 C 0.29939 0.62542 0.69628 0.0
C771 C 0.30009 0.66367 0.67463 0.0
C772 C 0.30642 0.60727 0.69253 0.0
C773 C 0.31403 0.60349 0.66292 0.0
C774 C 0.30008 0.63982 0.6702 0.0
C775 C 0.31199 0.61641 0.63695 0.0
C776 C 0.30001 0.67769 0.64855 0.0
C777 C 0.31141 0.69861 0.7083 0.0
N778 N 0.30563 0.63434 0.64126 0.0
N779 N 0.30507 0.67438 0.70375 0.0
H780 H 0.61497 0.3102 0.06806 0.0
H781 H 0.70984 0.31108 0.94539 0.0
H782 H 0.60296 0.30611 0.96774 0.0
H783 H 0.71748 0.30634 0.04565 0.0
H784 H 0.66544 0.29763 0.95264 0.0
H785 H 0.64614 0.29711 0.06065 0.0
C786 C 0.61839 0.30571 0.04454 0.0
C787 C 0.60674 0.30946 0.01841 0.0
C788 C 0.67655 0.29881 0.97305 0.0
C789 C 0.64289 0.29537 0.00953 0.0
C790 C 0.70185 0.3064 0.96885 0.0
C791 C 0.7172 0.31006 0.99503 0.0
C792 C 0.66678 0.29552 1.00373 0.0
C793 C 0.70615 0.30379 0.02494 0.0
C794 C 0.63623 0.29834 0.04025 0.0
C795 C 0.61168 0.30347 0.98843 0.0
N796 N 0.6817 0.2974 0.02858 0.0
N797 N 0.62987 0.2973 0.9847 0.0
H798 H 0.42069 0.71457 0.37991 0.0
H799 H 0.30424 0.59807 0.29992 0.0
H800 H 0.40481 0.70673 0.28035 0.0
H801 H 0.31182 0.61414 0.39942 0.0
H802 H 0.34863 0.62962 0.29278 0.0
H803 H 0.38915 0.67031 0.38712 0.0
C804 C 0.41118 0.70325 0.35945 0.0
C805 C 0.41495 0.71423 0.3296 0.0
C806 C 0.34078 0.62574 0.31631 0.0
C807 C 0.37871 0.66399 0.33761 0.0
C808 C 0.31553 0.60763 0.32038 0.0
C809 C 0.30445 0.6039 0.35019 0.0
C810 C 0.35483 0.64015 0.34226 0.0
C811 C 0.31974 0.61681 0.37599 0.0
C812 C 0.39307 0.67808 0.36356 0.0
C813 C 0.4021 0.6989 0.30382 0.0
N814 N 0.34406 0.6347 0.37137 0.0
N815 N 0.38421 0.67465 0.30847 0.0
H816 H 0.70645 0.40177 0.61383 0.0
H817 H 0.70575 0.30661 0.7354 0.0
H818 H 0.71034 0.41315 0.71426 0.0
H819 H 0.71081 0.29969 0.63505 0.0
H820 H 0.71892 0.35082 0.72863 0.0
H821 H 0.71955 0.37066 0.62084 0.0
C822 C 0.7109 0.39823 0.63729 0.0
C823 C 0.70713 0.40971 0.66356 0.0
C824 C 0.71787 0.33991 0.70809 0.0
C825 C 0.72121 0.3736 0.67199 0.0
C826 C 0.71046 0.31472 0.71202 0.0
C827 C 0.70698 0.29962 0.68567 0.0
C828 C 0.72118 0.34983 0.67752 0.0
C829 C 0.71325 0.31082 0.65588 0.0
C830 C 0.71827 0.3804 0.64135 0.0
C831 C 0.71303 0.40457 0.69347 0.0
N832 N 0.71948 0.33516 0.6525 0.0
N833 N 0.71921 0.38642 0.69698 0.0
H834 H 0.31141 0.7031 0.94673 0.0
H835 H 0.40612 0.7017 0.06833 0.0
H836 H 0.30404 0.70708 0.04719 0.0
H837 H 0.41808 0.70671 0.96796 0.0
H838 H 0.37483 0.71469 0.06153 0.0
H839 H 0.35558 0.71551 0.95376 0.0
C840 C 0.31943 0.70741 0.97021 0.0
C841 C 0.30419 0.70386 0.99648 0.0
C842 C 0.38472 0.71364 0.041 0.0
C843 C 0.35435 0.71719 1.00491 0.0
C844 C 0.40263 0.70632 0.04493 0.0
C845 C 0.41435 0.7029 0.01859 0.0
C846 C 0.37809 0.71696 0.01043 0.0
C847 C 0.40932 0.70909 0.98879 0.0
C848 C 0.34459 0.71438 0.97428 0.0
C849 C 0.31527 0.7096 0.0264 0.0
N850 N 0.39109 0.71526 0.98541 0.0
N851 N 0.33958 0.71542 0.02989 0.0
H852 H 0.49621 0.05732 0.33363 0.0
H853 H 0.52609 0.95514 0.25992 0.0
H854 H 0.54422 0.07382 0.25263 0.0
H855 H 0.46682 0.93841 0.32669 0.0
H856 H 0.5339 0.99831 0.25636 0.0
H857 H 0.48637 0.01384 0.33138 0.0
C858 C 0.50463 0.05177 0.3152 0.0
C859 C 0.52115 0.06945 0.29334 0.0
C860 C 0.51917 0.9851 0.27172 0.0
C861 C 0.51005 0.01912 0.29075 0.0
C862 C 0.5146 0.96034 0.2737 0.0
C863 C 0.49601 0.94286 0.2941 0.0
C864 C 0.5051 0.99261 0.29029 0.0
C865 C 0.48188 0.95109 0.31133 0.0
C866 C 0.49895 0.02681 0.31389 0.0
C867 C 0.53126 0.06089 0.26986 0.0
N868 N 0.48682 0.97515 0.30919 0.0
N869 N 0.52577 0.03646 0.26937 0.0
H870 H 0.44406 0.49239 0.59331 0.0
H871 H 0.5757 0.52051 0.66793 0.0
H872 H 0.48617 0.55032 0.66162 0.0
H873 H 0.5443 0.47324 0.58638 0.0
H874 H 0.54215 0.53067 0.66573 0.0
H875 H 0.47941 0.48437 0.58971 0.0
C876 C 0.46067 0.50355 0.60742 0.0
C877 C 0.46166 0.52183 0.62825 0.0
C878 C 0.54255 0.51818 0.6481 0.0
C879 C 0.5023 0.5125 0.62439 0.0
C880 C 0.56178 0.51232 0.64939 0.0
C881 C 0.56293 0.4959 0.62738 0.0
C882 C 0.52382 0.50738 0.62482 0.0
C883 C 0.54433 0.4861 0.60375 0.0
C884 C 0.48085 0.49886 0.60542 0.0
C885 C 0.48389 0.53553 0.6459 0.0
N886 N 0.52544 0.49177 0.60327 0.0
N887 N 0.50301 0.53048 0.64371 0.0
H888 H 0.95987 0.44214 1.00041 0.0
H889 H 0.06259 0.57381 0.92653 0.0
H890 H 0.94365 0.47297 0.91865 0.0
H891 H 0.07928 0.53164 0.99364 0.0
H892 H 0.01931 0.53836 0.92279 0.0
H893 H 1.00354 0.4758 0.99828 0.0
C894 C 0.96553 0.45595 0.98184 0.0
C895 C 0.94788 0.45461 0.95973 0.0
C896 C 0.03253 0.53693 0.93826 0.0
C897 C 0.99839 0.49386 0.95727 0.0
C898 C 0.05735 0.55717 0.94035 0.0
C899 C 0.07485 0.55619 0.9609 0.0
C900 C 0.02498 0.51544 0.95689 0.0
C901 C 0.06658 0.53391 0.97817 0.0
C902 C 0.99058 0.47524 0.98059 0.0
C903 C 0.95656 0.4731 0.93607 0.0
N904 N 0.04245 0.51474 0.97593 0.0
N905 N 0.98108 0.49206 0.93565 0.0
H906 H 0.0781 0.53721 0.4295 0.0
H907 H 0.94101 0.4609 0.35069 0.0
H908 H 0.06108 0.49307 0.3448 0.0
H909 H 0.95843 0.51771 0.42117 0.0
H910 H 0.98396 0.46923 0.35344 0.0
H911 H 0.03388 0.52702 0.43202 0.0
C912 C 0.06506 0.52514 0.41167 0.0
C913 C 0.07351 0.5161 0.3868 0.0
C914 C 0.97853 0.47996 0.36836 0.0
C915 C 0.02276 0.50436 0.38953 0.0
C916 C 0.95385 0.47532 0.36668 0.0
C917 C 0.94584 0.48897 0.3852 0.0
C918 C 0.99581 0.49831 0.38897 0.0
C919 C 0.96353 0.50671 0.40631 0.0
C920 C 0.03984 0.51949 0.41299 0.0
C921 C 0.05566 0.50073 0.36423 0.0
N922 N 0.98763 0.51095 0.40749 0.0
N923 N 0.03136 0.49541 0.36616 0.0
H924 H 0.53303 0.07631 0.68521 0.0
H925 H 0.47312 0.93929 0.76237 0.0
H926 H 0.57342 0.05851 0.75392 0.0
H927 H 0.44564 0.95649 0.6781 0.0
H928 H 0.50711 0.98337 0.76508 0.0
H929 H 0.49847 0.03346 0.6878 0.0
C930 C 0.53484 0.06341 0.70077 0.0
C931 C 0.55676 0.07128 0.71882 0.0
C932 C 0.49355 0.97748 0.74611 0.0
C933 C 0.51623 0.02145 0.72243 0.0
C934 C 0.474 0.95234 0.74468 0.0
C935 C 0.45643 0.94399 0.71988 0.0
C936 C 0.49538 0.99457 0.72285 0.0
C937 C 0.45879 0.96184 0.69748 0.0
C938 C 0.51485 0.0388 0.70236 0.0
C939 C 0.55711 0.05352 0.73942 0.0
N940 N 0.47774 0.98607 0.69953 0.0
N941 N 0.53728 0.02948 0.74054 0.0
H942 H 0.48129 0.54417 0.09719 0.0
H943 H 0.55791 0.48367 0.01927 0.0
H944 H 0.52511 0.57077 0.01212 0.0
H945 H 0.50002 0.44385 0.08856 0.0
H946 H 0.54958 0.51817 0.02185 0.0
H947 H 0.4914 0.51022 0.09983 0.0
C948 C 0.49328 0.54311 0.0793 0.0
C949 C 0.50226 0.56043 0.0543 0.0
C950 C 0.53862 0.50193 0.03654 0.0
C951 C 0.51392 0.52152 0.0572 0.0
C952 C 0.54326 0.48197 0.03496 0.0
C953 C 0.52929 0.46021 0.05317 0.0
C954 C 0.51997 0.5007 0.05678 0.0
C955 C 0.51127 0.46002 0.07393 0.0
C956 C 0.49888 0.52358 0.0807 0.0
C957 C 0.51751 0.55783 0.03166 0.0
N958 N 0.50705 0.47982 0.07505 0.0
N959 N 0.52282 0.53892 0.03369 0.0
H960 H 0.55436 0.25486 0.26232 0.0
H961 H 0.55457 0.30229 0.08475 0.0
H962 H 0.55541 0.21478 0.17986 0.0
H963 H 0.55421 0.34264 0.16729 0.0
H964 H 0.55565 0.27062 0.11885 0.0
H965 H 0.55514 0.28743 0.22819 0.0
C966 C 0.55499 0.25302 0.237 0.0
C967 C 0.55534 0.23221 0.22409 0.0
C968 C 0.55551 0.28645 0.12962 0.0
C969 C 0.55586 0.26951 0.18442 0.0
C970 C 0.55491 0.30459 0.11009 0.0
C971 C 0.5548 0.32551 0.12304 0.0
C972 C 0.55572 0.2889 0.16265 0.0
C973 C 0.55495 0.32726 0.15613 0.0
C974 C 0.5554 0.27164 0.21745 0.0
C975 C 0.55581 0.23074 0.191 0.0
N976 N 0.55539 0.30931 0.17466 0.0
N977 N 0.55603 0.24901 0.17245 0.0
H978 H 0.21028 0.51498 0.48283 0.0
H979 H 0.33545 0.58503 0.57554 0.0
H980 H 0.26519 0.58442 0.4404 0.0
H981 H 0.31868 0.51545 0.5316 0.0
H982 H 0.30448 0.58715 0.54037 0.0
H983 H 0.24338 0.51593 0.51629 0.0
C984 C 0.22934 0.53025 0.48013 0.0
C985 C 0.23507 0.549 0.45747 0.0
C986 C 0.30753 0.57136 0.5387 0.0
C987 C 0.27283 0.55111 0.4977 0.0
C988 C 0.32519 0.57012 0.55871 0.0
C989 C 0.32907 0.54949 0.5576 0.0
C990 C 0.29325 0.55163 0.5177 0.0
C991 C 0.31542 0.53097 0.5348 0.0
C992 C 0.24815 0.53093 0.4996 0.0
C993 C 0.25992 0.56928 0.457 0.0
N994 N 0.29785 0.53221 0.51633 0.0
N995 N 0.27785 0.56984 0.47676 0.0
H996 H 0.76201 0.30202 0.92861 0.0
H997 H 0.71472 0.25441 0.75097 0.0
H998 H 0.80292 0.34235 0.84615 0.0
H999 H 0.67419 0.21368 0.83343 0.0
H1000 H 0.74655 0.28711 0.78514 0.0
H1001 H 0.72934 0.27013 0.89445 0.0
C1002 C 0.76402 0.30427 0.90328 0.0
C1003 C 0.78508 0.32525 0.89036 0.0
C1004 C 0.73064 0.27115 0.79587 0.0
C1005 C 0.74766 0.2884 0.85068 0.0
C1006 C 0.71241 0.25244 0.77631 0.0
C1007 C 0.69138 0.23142 0.78922 0.0
C1008 C 0.72817 0.26889 0.8289 0.0
C1009 C 0.68963 0.22981 0.8223 0.0
C1010 C 0.74534 0.28601 0.88371 0.0
C1011 C 0.78675 0.32694 0.85727 0.0
N1012 N 0.70766 0.24817 0.84086 0.0
N1013 N 0.76841 0.30887 0.83871 0.0
H1014 H 0.4338 0.68261 0.10729 0.0
H1015 H 0.50591 0.80838 0.19919 0.0
H1016 H 0.505 0.70099 0.14846 0.0
H1017 H 0.43495 0.75435 0.23953 0.0
H1018 H 0.50499 0.77525 0.16608 0.0
H1019 H 0.43206 0.71375 0.14235 0.0
C1020 C 0.44917 0.69328 0.12345 0.0
C1021 C 0.47011 0.68977 0.12379 0.0
C1022 C 0.48967 0.77066 0.18227 0.0
C1023 C 0.4684 0.72582 0.16355 0.0
C1024 C 0.49034 0.78949 0.20161 0.0
C1025 C 0.47113 0.78401 0.2236 0.0
C1026 C 0.46904 0.74625 0.18356 0.0
C1027 C 0.45045 0.75941 0.22349 0.0
C1028 C 0.44813 0.71104 0.14341 0.0
C1029 C 0.48921 0.70395 0.14577 0.0
N1030 N 0.4499 0.7415 0.20383 0.0
N1031 N 0.48814 0.7216 0.16417 0.0
H1032 H 0.71476 0.46127 0.59592 0.0
H1033 H 0.76163 0.46172 0.41787 0.0
H1034 H 0.67361 0.46111 0.51382 0.0
H1035 H 0.80238 0.46095 0.49989 0.0
H1036 H 0.72895 0.46062 0.45234 0.0
H1037 H 0.74642 0.46028 0.56147 0.0
C1038 C 0.71227 0.4608 0.5706 0.0
C1039 C 0.69114 0.46076 0.55787 0.0
C1040 C 0.7449 0.46048 0.46291 0.0
C1041 C 0.72775 0.45998 0.51787 0.0
C1042 C 0.76358 0.46107 0.44317 0.0
C1043 C 0.78461 0.46089 0.45586 0.0
C1044 C 0.74719 0.46 0.49591 0.0
C1045 C 0.78623 0.4604 0.48892 0.0
C1046 C 0.7304 0.46026 0.55088 0.0
C1047 C 0.68916 0.46048 0.52481 0.0
N1048 N 0.76789 0.46 0.50766 0.0
N1049 N 0.70712 0.46012 0.50609 0.0
H1050 H 0.26378 0.6827 0.9077 0.0
H1051 H 0.31863 0.80803 0.81548 0.0
H1052 H 0.21107 0.70095 0.86617 0.0
H1053 H 0.33345 0.75314 0.77364 0.0
H1054 H 0.28653 0.77522 0.84916 0.0
H1055 H 0.29677 0.71357 0.87245 0.0
C1056 C 0.25914 0.69329 0.89142 0.0
C1057 C 0.23469 0.68983 0.89103 0.0
C1058 C 0.2968 0.77039 0.83254 0.0
C1059 C 0.27256 0.72556 0.85104 0.0
C1060 C 0.31492 0.78903 0.81295 0.0
C1061 C 0.32798 0.78321 0.79038 0.0
C1062 C 0.2924 0.7458 0.83089 0.0
C1063 C 0.32352 0.75846 0.79016 0.0
C1064 C 0.27799 0.7109 0.87136 0.0
C1065 C 0.22983 0.7039 0.86891 0.0
N1066 N 0.3062 0.74071 0.81004 0.0
N1067 N 0.24859 0.72139 0.85038 0.0
loop_
_geom_bond_atom_site_label_1
_geom_bond_atom_site_label_2
_geom_bond_distance
_geom_bond_site_symmetry_2
_ccdc_geom_bond_type
C0 C1 1.443 . S
C0 N4 1.376 . S
C0 C38 1.389 . S
C1 C0 1.443 . S
C1 C2 1.340 . S
C1 H41 0.951 . S
C2 C1 1.340 . S
C2 C3 1.439 . S
C2 H42 0.950 . S
C3 C2 1.439 . S
C3 N4 1.374 . S
C3 C37 1.395 . S
N4 C0 1.376 . S
N4 C3 1.374 . S
N4 Co5 2.008 . S
Co5 N4 2.008 . S
Co5 N6 1.995 . S
Co5 N11 2.008 . S
Co5 N16 1.995 . S
Co5 N21 2.282 . S
Co5 N27 2.282 . S
N6 Co5 1.995 . S
N6 C7 1.376 . S
N6 C10 1.383 . S
C7 N6 1.376 . S
C7 C8 1.446 . S
C7 C37 1.391 . S
C8 C7 1.446 . S
C8 C9 1.339 . S
C8 H43 0.949 . S
C9 C8 1.339 . S
C9 C10 1.439 . S
C9 H44 0.950 . S
C10 N6 1.383 . S
C10 C9 1.439 . S
C10 C39 1.392 . S
N11 Co5 2.008 . S
N11 C12 1.376 . S
N11 C15 1.374 . S
C12 N11 1.376 . S
C12 C13 1.443 . S
C12 C39 1.389 . S
C13 C12 1.443 . S
C13 C14 1.340 . S
C13 H45 0.951 . S
C14 C13 1.340 . S
C14 C15 1.439 . S
C14 H46 0.950 . S
C15 N11 1.374 . S
C15 C14 1.439 . S
C15 C40 1.395 . S
N16 Co5 1.995 . S
N16 C17 1.376 . S
N16 C20 1.383 . S
C17 N16 1.376 . S
C17 C18 1.446 . S
C17 C40 1.391 . S
C18 C17 1.446 . S
C18 C19 1.339 . S
C18 H47 0.949 . S
C19 C18 1.339 . S
C19 C20 1.439 . S
C19 H48 0.950 . S
C20 N16 1.383 . S
C20 C19 1.439 . S
C20 C38 1.392 . S
N21 Co5 2.282 . S
N21 C24 1.332 . S
N21 C26 1.332 . S
C22 C23 1.386 . S
C22 C25 1.388 . S
C23 C22 1.386 . S
C23 C24 1.382 . S
C23 H49 0.950 . S
C24 N21 1.332 . S
C24 C23 1.382 . S
C24 H35 0.952 . S
C25 C22 1.388 . S
C25 C26 1.382 . S
C25 H50 0.950 . S
C26 N21 1.332 . S
C26 C25 1.382 . S
C26 H36 0.948 . S
N27 Co5 2.282 . S
N27 C31 1.332 . S
N27 C32 1.332 . S
C28 C29 1.388 . S
C28 C32 1.382 . S
C28 H51 0.950 . S
C29 C28 1.388 . S
C29 C30 1.386 . S
C30 C29 1.386 . S
C30 C31 1.382 . S
C30 H52 0.950 . S
C31 N27 1.332 . S
C31 C30 1.382 . S
C31 H33 0.952 . S
C32 N27 1.332 . S
C32 C28 1.382 . S
C32 H34 0.948 . S
H33 C31 0.952 . S
H34 C32 0.948 . S
H35 C24 0.952 . S
H36 C26 0.948 . S
C37 C3 1.395 . S
C37 C7 1.391 . S
C38 C0 1.389 . S
C38 C20 1.392 . S
C39 C10 1.392 . S
C39 C12 1.389 . S
C40 C15 1.395 . S
C40 C17 1.391 . S
H41 C1 0.951 . S
H42 C2 0.950 . S
H43 C8 0.949 . S
H44 C9 0.950 . S
H45 C13 0.951 . S
H46 C14 0.950 . S
H47 C18 0.949 . S
H48 C19 0.950 . S
H49 C23 0.950 . S
H50 C25 0.950 . S
H51 C28 0.950 . S
H52 C30 0.950 . S
C53 C54 1.443 . S
C53 N57 1.376 . S
C53 C91 1.389 . S
C54 C53 1.443 . S
C54 C55 1.340 . S
C54 H94 0.951 . S
C55 C54 1.340 . S
C55 C56 1.439 . S
C55 H95 0.950 . S
C56 C55 1.439 . S
C56 N57 1.374 . S
C56 C90 1.395 . S
N57 C53 1.376 . S
N57 C56 1.374 . S
N57 Co58 2.008 . S
Co58 N57 2.008 . S
Co58 N59 1.995 . S
Co58 N64 2.008 . S
Co58 N69 1.995 . S
Co58 N74 2.282 . S
Co58 N80 2.282 . S
N59 Co58 1.995 . S
N59 C60 1.376 . S
N59 C63 1.383 . S
C60 N59 1.376 . S
C60 C61 1.446 . S
C60 C90 1.391 . S
C61 C60 1.446 . S
C61 C62 1.339 . S
C61 H96 0.949 . S
C62 C61 1.339 . S
C62 C63 1.439 . S
C62 H97 0.950 . S
C63 N59 1.383 . S
C63 C62 1.439 . S
C63 C92 1.392 . S
N64 Co58 2.008 . S
N64 C65 1.376 . S
N64 C68 1.374 . S
C65 N64 1.376 . S
C65 C66 1.443 . S
C65 C92 1.389 . S
C66 C65 1.443 . S
C66 C67 1.340 . S
C66 H98 0.951 . S
C67 C66 1.340 . S
C67 C68 1.439 . S
C67 H99 0.950 . S
C68 N64 1.374 . S
C68 C67 1.439 . S
C68 C93 1.395 . S
N69 Co58 1.995 . S
N69 C70 1.376 . S
N69 C73 1.383 . S
C70 N69 1.376 . S
C70 C71 1.446 . S
C70 C93 1.391 . S
C71 C70 1.446 . S
C71 C72 1.339 . S
C71 H100 0.949 . S
C72 C71 1.339 . S
C72 C73 1.439 . S
C72 H101 0.950 . S
C73 N69 1.383 . S
C73 C72 1.439 . S
C73 C91 1.392 . S
N74 Co58 2.282 . S
N74 C77 1.332 . S
N74 C79 1.332 . S
C75 C76 1.386 . S
C75 C78 1.388 . S
C76 C75 1.386 . S
C76 C77 1.382 . S
C76 H102 0.950 . S
C77 N74 1.332 . S
C77 C76 1.382 . S
C77 H88 0.952 . S
C78 C75 1.388 . S
C78 C79 1.382 . S
C78 H103 0.950 . S
C79 N74 1.332 . S
C79 C78 1.382 . S
C79 H89 0.948 . S
N80 Co58 2.282 . S
N80 C84 1.332 . S
N80 C85 1.332 . S
C81 C82 1.388 . S
C81 C85 1.382 . S
C81 H104 0.950 . S
C82 C81 1.388 . S
C82 C83 1.386 . S
C83 C82 1.386 . S
C83 C84 1.382 . S
C83 H105 0.950 . S
C84 N80 1.332 . S
C84 C83 1.382 . S
C84 H86 0.952 . S
C85 N80 1.332 . S
C85 C81 1.382 . S
C85 H87 0.948 . S
H86 C84 0.952 . S
H87 C85 0.948 . S
H88 C77 0.952 . S
H89 C79 0.948 . S
C90 C56 1.395 . S
C90 C60 1.391 . S
C91 C53 1.389 . S
C91 C73 1.392 . S
C92 C63 1.392 . S
C92 C65 1.389 . S
C93 C68 1.395 . S
C93 C70 1.391 . S
H94 C54 0.951 . S
H95 C55 0.950 . S
H96 C61 0.949 . S
H97 C62 0.950 . S
H98 C66 0.951 . S
H99 C67 0.950 . S
H100 C71 0.949 . S
H101 C72 0.950 . S
H102 C76 0.950 . S
H103 C78 0.950 . S
H104 C81 0.950 . S
H105 C83 0.950 . S
C106 C107 1.443 . S
C106 N110 1.376 . S
C106 C144 1.389 . S
C107 C106 1.443 . S
C107 C108 1.340 . S
C107 H147 0.951 . S
C108 C107 1.340 . S
C108 C109 1.439 . S
C108 H148 0.950 . S
C109 C108 1.439 . S
C109 N110 1.374 . S
C109 C143 1.395 . S
N110 C106 1.376 . S
N110 C109 1.374 . S
N110 Co111 2.008 . S
Co111 N110 2.008 . S
Co111 N112 1.995 1_556 S
Co111 N117 2.008 1_556 S
Co111 N122 1.995 . S
Co111 N127 2.282 . S
Co111 N133 2.282 1_556 S
N112 Co111 1.995 1_554 S
N112 C113 1.382 . S
N112 C116 1.383 . S
C113 N112 1.382 . S
C113 C114 1.454 . S
C113 C143 1.379 1_554 S
C114 C113 1.454 . S
C114 C115 1.339 . S
C114 H149 0.949 . S
C115 C114 1.339 . S
C115 C116 1.439 . S
C115 H150 0.950 . S
C116 N112 1.383 . S
C116 C115 1.439 . S
C116 C145 1.392 . S
N117 Co111 2.008 1_554 S
N117 C118 1.376 . S
N117 C121 1.374 . S
C118 N117 1.376 . S
C118 C119 1.443 . S
C118 C145 1.389 . S
C119 C118 1.443 . S
C119 C120 1.340 . S
C119 H151 0.951 . S
C120 C119 1.340 . S
C120 C121 1.439 . S
C120 H152 0.950 . S
C121 N117 1.374 . S
C121 C120 1.439 . S
C121 C146 1.395 . S
N122 Co111 1.995 . S
N122 C123 1.387 . S
N122 C126 1.383 . S
C123 N122 1.387 . S
C123 C124 1.459 . S
C123 C146 1.370 1_556 S
C124 C123 1.459 . S
C124 C125 1.339 . S
C124 H153 0.949 . S
C125 C124 1.339 . S
C125 C126 1.439 . S
C125 H154 0.950 . S
C126 N122 1.383 . S
C126 C125 1.439 . S
C126 C144 1.392 . S
N127 Co111 2.282 . S
N127 C130 1.332 1_556 S
N127 C132 1.332 . S
C128 C129 1.386 . S
C128 C131 1.388 1_554 S
C129 C128 1.386 . S
C129 C130 1.382 . S
C129 H155 0.950 . S
C130 N127 1.332 1_554 S
C130 C129 1.382 . S
C130 H141 0.952 . S
C131 C128 1.388 1_556 S
C131 C132 1.382 . S
C131 H156 0.950 . S
C132 N127 1.332 . S
C132 C131 1.382 . S
C132 H142 0.948 . S
N133 Co111 2.282 1_554 S
N133 C137 1.332 1_554 S
N133 C138 1.332 . S
C134 C135 1.388 1_554 S
C134 C138 1.382 . S
C134 H157 0.950 . S
C135 C134 1.388 1_556 S
C135 C136 1.386 . S
C136 C135 1.386 . S
C136 C137 1.382 . S
C136 H158 0.950 . S
C137 N133 1.332 1_556 S
C137 C136 1.382 . S
C137 H139 0.952 . S
C138 N133 1.332 . S
C138 C134 1.382 . S
C138 H140 0.948 . S
H139 C137 0.952 . S
H140 C138 0.948 . S
H141 C130 0.952 . S
H142 C132 0.948 . S
C143 C109 1.395 . S
C143 C113 1.379 1_556 S
C144 C106 1.389 . S
C144 C126 1.392 . S
C145 C116 1.392 . S
C145 C118 1.389 . S
C146 C121 1.395 . S
C146 C123 1.370 1_554 S
H147 C107 0.951 . S
H148 C108 0.950 . S
H149 C114 0.949 . S
H150 C115 0.950 . S
H151 C119 0.951 . S
H152 C120 0.950 . S
H153 C124 0.949 . S
H154 C125 0.950 . S
H155 C129 0.950 . S
H156 C131 0.950 . S
H157 C134 0.950 . S
H158 C136 0.950 . S
C159 C160 1.443 . S
C159 N163 1.376 . S
C159 C197 1.389 . S
C160 C159 1.443 . S
C160 C161 1.340 . S
C160 H200 0.951 . S
C161 C160 1.340 . S
C161 C162 1.439 . S
C161 H201 0.950 . S
C162 C161 1.439 . S
C162 N163 1.374 . S
C162 C196 1.395 . S
N163 C159 1.376 . S
N163 C162 1.374 . S
N163 Co164 2.008 . S
Co164 N163 2.008 . S
Co164 N165 1.995 . S
Co164 N170 2.008 . S
Co164 N175 1.995 . S
Co164 N180 2.282 . S
Co164 N186 2.282 . S
N165 Co164 1.995 . S
N165 C166 1.376 . S
N165 C169 1.383 . S
C166 N165 1.376 . S
C166 C167 1.446 . S
C166 C196 1.391 . S
C167 C166 1.446 . S
C167 C168 1.339 . S
C167 H202 0.949 . S
C168 C167 1.339 . S
C168 C169 1.439 . S
C168 H203 0.950 . S
C169 N165 1.383 . S
C169 C168 1.439 . S
C169 C198 1.392 . S
N170 Co164 2.008 . S
N170 C171 1.376 . S
N170 C174 1.374 . S
C171 N170 1.376 . S
C171 C172 1.443 . S
C171 C198 1.389 . S
C172 C171 1.443 . S
C172 C173 1.340 . S
C172 H204 0.951 . S
C173 C172 1.340 . S
C173 C174 1.439 . S
C173 H205 0.950 . S
C174 N170 1.374 . S
C174 C173 1.439 . S
C174 C199 1.395 . S
N175 Co164 1.995 . S
N175 C176 1.376 . S
N175 C179 1.383 . S
C176 N175 1.376 . S
C176 C177 1.446 . S
C176 C199 1.391 . S
C177 C176 1.446 . S
C177 C178 1.339 . S
C177 H206 0.949 . S
C178 C177 1.339 . S
C178 C179 1.439 . S
C178 H207 0.950 . S
C179 N175 1.383 . S
C179 C178 1.439 . S
C179 C197 1.392 . S
N180 Co164 2.282 . S
N180 C183 1.332 . S
N180 C185 1.332 . S
C181 C182 1.386 . S
C181 C184 1.388 . S
C182 C181 1.386 . S
C182 C183 1.382 . S
C182 H208 0.950 . S
C183 N180 1.332 . S
C183 C182 1.382 . S
C183 H194 0.952 . S
C184 C181 1.388 . S
C184 C185 1.382 . S
C184 H209 0.950 . S
C185 N180 1.332 . S
C185 C184 1.382 . S
C185 H195 0.948 . S
N186 Co164 2.282 . S
N186 C190 1.332 . S
N186 C191 1.332 . S
C187 C188 1.388 . S
C187 C191 1.382 . S
C187 H210 0.950 . S
C188 C187 1.388 . S
C188 C189 1.386 . S
C189 C188 1.386 . S
C189 C190 1.382 . S
C189 H211 0.950 . S
C190 N186 1.332 . S
C190 C189 1.382 . S
C190 H192 0.952 . S
C191 N186 1.332 . S
C191 C187 1.382 . S
C191 H193 0.948 . S
H192 C190 0.952 . S
H193 C191 0.948 . S
H194 C183 0.952 . S
H195 C185 0.948 . S
C196 C162 1.395 . S
C196 C166 1.391 . S
C197 C159 1.389 . S
C197 C179 1.392 . S
C198 C169 1.392 . S
C198 C171 1.389 . S
C199 C174 1.395 . S
C199 C176 1.391 . S
H200 C160 0.951 . S
H201 C161 0.950 . S
H202 C167 0.949 . S
H203 C168 0.950 . S
H204 C172 0.951 . S
H205 C173 0.950 . S
H206 C177 0.949 . S
H207 C178 0.950 . S
H208 C182 0.950 . S
H209 C184 0.950 . S
H210 C187 0.950 . S
H211 C189 0.950 . S
C212 C213 1.443 . S
C212 N216 1.376 . S
C212 C250 1.389 . S
C213 C212 1.443 . S
C213 C214 1.340 . S
C213 H253 0.951 . S
C214 C213 1.340 . S
C214 C215 1.439 . S
C214 H254 0.950 . S
C215 C214 1.439 . S
C215 N216 1.374 . S
C215 C249 1.395 . S
N216 C212 1.376 . S
N216 C215 1.374 . S
N216 Co217 2.008 . S
Co217 N216 2.008 . S
Co217 N218 1.995 . S
Co217 N223 2.008 . S
Co217 N228 1.995 . S
Co217 N233 2.282 . S
Co217 N239 2.282 . S
N218 Co217 1.995 . S
N218 C219 1.376 . S
N218 C222 1.383 . S
C219 N218 1.376 . S
C219 C220 1.446 . S
C219 C249 1.391 . S
C220 C219 1.446 . S
C220 C221 1.339 . S
C220 H255 0.949 . S
C221 C220 1.339 . S
C221 C222 1.439 . S
C221 H256 0.950 . S
C222 N218 1.383 . S
C222 C221 1.439 . S
C222 C251 1.392 . S
N223 Co217 2.008 . S
N223 C224 1.376 . S
N223 C227 1.374 . S
C224 N223 1.376 . S
C224 C225 1.443 . S
C224 C251 1.389 . S
C225 C224 1.443 . S
C225 C226 1.340 . S
C225 H257 0.951 . S
C226 C225 1.340 . S
C226 C227 1.439 . S
C226 H258 0.950 . S
C227 N223 1.374 . S
C227 C226 1.439 . S
C227 C252 1.395 . S
N228 Co217 1.995 . S
N228 C229 1.376 . S
N228 C232 1.383 . S
C229 N228 1.376 . S
C229 C230 1.446 . S
C229 C252 1.391 . S
C230 C229 1.446 . S
C230 C231 1.339 . S
C230 H259 0.949 . S
C231 C230 1.339 . S
C231 C232 1.439 . S
C231 H260 0.950 . S
C232 N228 1.383 . S
C232 C231 1.439 . S
C232 C250 1.392 . S
N233 Co217 2.282 . S
N233 C236 1.332 . S
N233 C238 1.332 . S
C234 C235 1.386 . S
C234 C237 1.388 . S
C235 C234 1.386 . S
C235 C236 1.382 . S
C235 H261 0.950 . S
C236 N233 1.332 . S
C236 C235 1.382 . S
C236 H247 0.952 . S
C237 C234 1.388 . S
C237 C238 1.382 . S
C237 H262 0.950 . S
C238 N233 1.332 . S
C238 C237 1.382 . S
C238 H248 0.948 . S
N239 Co217 2.282 . S
N239 C243 1.332 . S
N239 C244 1.332 . S
C240 C241 1.388 . S
C240 C244 1.382 . S
C240 H263 0.950 . S
C241 C240 1.388 . S
C241 C242 1.386 . S
C242 C241 1.386 . S
C242 C243 1.382 . S
C242 H264 0.950 . S
C243 N239 1.332 . S
C243 C242 1.382 . S
C243 H245 0.952 . S
C244 N239 1.332 . S
C244 C240 1.382 . S
C244 H246 0.948 . S
H245 C243 0.952 . S
H246 C244 0.948 . S
H247 C236 0.952 . S
H248 C238 0.948 . S
C249 C215 1.395 . S
C249 C219 1.391 . S
C250 C212 1.389 . S
C250 C232 1.392 . S
C251 C222 1.392 . S
C251 C224 1.389 . S
C252 C227 1.395 . S
C252 C229 1.391 . S
H253 C213 0.951 . S
H254 C214 0.950 . S
H255 C220 0.949 . S
H256 C221 0.950 . S
H257 C225 0.951 . S
H258 C226 0.950 . S
H259 C230 0.949 . S
H260 C231 0.950 . S
H261 C235 0.950 . S
H262 C237 0.950 . S
H263 C240 0.950 . S
H264 C242 0.950 . S
C265 C266 1.443 . S
C265 N269 1.376 . S
C265 C303 1.389 . S
C266 C265 1.443 . S
C266 C267 1.340 . S
C266 H306 0.951 . S
C267 C266 1.340 . S
C267 C268 1.439 . S
C267 H307 0.950 . S
C268 C267 1.439 . S
C268 N269 1.374 . S
C268 C302 1.395 . S
N269 C265 1.376 . S
N269 C268 1.374 . S
N269 Co270 2.008 . S
Co270 N269 2.008 . S
Co270 N271 1.995 1_556 S
Co270 N276 2.008 1_556 S
Co270 N281 1.995 . S
Co270 N286 2.282 . S
Co270 N292 2.282 1_556 S
N271 Co270 1.995 1_554 S
N271 C272 1.382 . S
N271 C275 1.383 . S
C272 N271 1.382 . S
C272 C273 1.454 . S
C272 C302 1.379 1_554 S
C273 C272 1.454 . S
C273 C274 1.339 . S
C273 H308 0.949 . S
C274 C273 1.339 . S
C274 C275 1.439 . S
C274 H309 0.950 . S
C275 N271 1.383 . S
C275 C274 1.439 . S
C275 C304 1.392 . S
N276 Co270 2.008 1_554 S
N276 C277 1.376 . S
N276 C280 1.374 . S
C277 N276 1.376 . S
C277 C278 1.443 . S
C277 C304 1.389 . S
C278 C277 1.443 . S
C278 C279 1.340 . S
C278 H310 0.951 . S
C279 C278 1.340 . S
C279 C280 1.439 . S
C279 H311 0.950 . S
C280 N276 1.374 . S
C280 C279 1.439 . S
C280 C305 1.395 . S
N281 Co270 1.995 . S
N281 C282 1.387 . S
N281 C285 1.383 . S
C282 N281 1.387 . S
C282 C283 1.459 . S
C282 C305 1.370 1_556 S
C283 C282 1.459 . S
C283 C284 1.339 . S
C283 H312 0.949 . S
C284 C283 1.339 . S
C284 C285 1.439 . S
C284 H313 0.950 . S
C285 N281 1.383 . S
C285 C284 1.439 . S
C285 C303 1.392 . S
N286 Co270 2.282 . S
N286 C289 1.332 1_556 S
N286 C291 1.332 . S
C287 C288 1.386 . S
C287 C290 1.388 1_554 S
C288 C287 1.386 . S
C288 C289 1.382 . S
C288 H314 0.950 . S
C289 N286 1.332 1_554 S
C289 C288 1.382 . S
C289 H300 0.952 . S
C290 C287 1.388 1_556 S
C290 C291 1.382 . S
C290 H315 0.950 . S
C291 N286 1.332 . S
C291 C290 1.382 . S
C291 H301 0.948 . S
N292 Co270 2.282 1_554 S
N292 C296 1.332 1_554 S
N292 C297 1.332 . S
C293 C294 1.388 1_554 S
C293 C297 1.382 . S
C293 H316 0.950 . S
C294 C293 1.388 1_556 S
C294 C295 1.386 . S
C295 C294 1.386 . S
C295 C296 1.382 . S
C295 H317 0.950 . S
C296 N292 1.332 1_556 S
C296 C295 1.382 . S
C296 H298 0.952 . S
C297 N292 1.332 . S
C297 C293 1.382 . S
C297 H299 0.948 . S
H298 C296 0.952 . S
H299 C297 0.948 . S
H300 C289 0.952 . S
H301 C291 0.948 . S
C302 C268 1.395 . S
C302 C272 1.379 1_556 S
C303 C265 1.389 . S
C303 C285 1.392 . S
C304 C275 1.392 . S
C304 C277 1.389 . S
C305 C280 1.395 . S
C305 C282 1.370 1_554 S
H306 C266 0.951 . S
H307 C267 0.950 . S
H308 C273 0.949 . S
H309 C274 0.950 . S
H310 C278 0.951 . S
H311 C279 0.950 . S
H312 C283 0.949 . S
H313 C284 0.950 . S
H314 C288 0.950 . S
H315 C290 0.950 . S
H316 C293 0.950 . S
H317 C295 0.950 . S
C318 C319 1.443 . S
C318 N322 1.376 . S
C318 C356 1.389 . S
C319 C318 1.443 . S
C319 C320 1.340 . S
C319 H359 0.951 . S
C320 C319 1.340 . S
C320 C321 1.439 . S
C320 H360 0.950 . S
C321 C320 1.439 . S
C321 N322 1.374 . S
C321 C355 1.395 . S
N322 C318 1.376 . S
N322 C321 1.374 . S
N322 Co323 2.008 . S
Co323 N322 2.008 . S
Co323 N324 1.995 . S
Co323 N329 2.008 . S
Co323 N334 1.995 . S
Co323 N339 2.282 . S
Co323 N345 2.282 . S
N324 Co323 1.995 . S
N324 C325 1.376 . S
N324 C328 1.383 . S
C325 N324 1.376 . S
C325 C326 1.446 . S
C325 C355 1.391 . S
C326 C325 1.446 . S
C326 C327 1.339 . S
C326 H361 0.949 . S
C327 C326 1.339 . S
C327 C328 1.439 . S
C327 H362 0.950 . S
C328 N324 1.383 . S
C328 C327 1.439 . S
C328 C357 1.392 . S
N329 Co323 2.008 . S
N329 C330 1.376 . S
N329 C333 1.374 . S
C330 N329 1.376 . S
C330 C331 1.443 . S
C330 C357 1.389 . S
C331 C330 1.443 . S
C331 C332 1.340 . S
C331 H363 0.951 . S
C332 C331 1.340 . S
C332 C333 1.439 . S
C332 H364 0.950 . S
C333 N329 1.374 . S
C333 C332 1.439 . S
C333 C358 1.395 . S
N334 Co323 1.995 . S
N334 C335 1.376 . S
N334 C338 1.383 . S
C335 N334 1.376 . S
C335 C336 1.446 . S
C335 C358 1.391 . S
C336 C335 1.446 . S
C336 C337 1.339 . S
C336 H365 0.949 . S
C337 C336 1.339 . S
C337 C338 1.439 . S
C337 H366 0.950 . S
C338 N334 1.383 . S
C338 C337 1.439 . S
C338 C356 1.392 . S
N339 Co323 2.282 . S
N339 C342 1.332 . S
N339 C344 1.332 . S
C340 C341 1.386 . S
C340 C343 1.388 . S
C341 C340 1.386 . S
C341 C342 1.382 . S
C341 H367 0.950 . S
C342 N339 1.332 . S
C342 C341 1.382 . S
C342 H353 0.952 . S
C343 C340 1.388 . S
C343 C344 1.382 . S
C343 H368 0.950 . S
C344 N339 1.332 . S
C344 C343 1.382 . S
C344 H354 0.948 . S
N345 Co323 2.282 . S
N345 C349 1.332 . S
N345 C350 1.332 . S
C346 C347 1.388 . S
C346 C350 1.382 . S
C346 H369 0.950 . S
C347 C346 1.388 . S
C347 C348 1.386 . S
C348 C347 1.386 . S
C348 C349 1.382 . S
C348 H370 0.950 . S
C349 N345 1.332 . S
C349 C348 1.382 . S
C349 H351 0.952 . S
C350 N345 1.332 . S
C350 C346 1.382 . S
C350 H352 0.948 . S
H351 C349 0.952 . S
H352 C350 0.948 . S
H353 C342 0.952 . S
H354 C344 0.948 . S
C355 C321 1.395 . S
C355 C325 1.391 . S
C356 C318 1.389 . S
C356 C338 1.392 . S
C357 C328 1.392 . S
C357 C330 1.389 . S
C358 C333 1.395 . S
C358 C335 1.391 . S
H359 C319 0.951 . S
H360 C320 0.950 . S
H361 C326 0.949 . S
H362 C327 0.950 . S
H363 C331 0.951 . S
H364 C332 0.950 . S
H365 C336 0.949 . S
H366 C337 0.950 . S
H367 C341 0.950 . S
H368 C343 0.950 . S
H369 C346 0.950 . S
H370 C348 0.950 . S
C371 C372 1.443 . S
C371 N375 1.376 . S
C371 C409 1.389 . S
C372 C371 1.443 . S
C372 C373 1.340 . S
C372 H412 0.951 . S
C373 C372 1.340 . S
C373 C374 1.439 . S
C373 H413 0.950 . S
C374 C373 1.439 . S
C374 N375 1.374 . S
C374 C408 1.395 . S
N375 C371 1.376 . S
N375 C374 1.374 . S
N375 Co376 2.008 . S
Co376 N375 2.008 . S
Co376 N377 1.995 . S
Co376 N382 2.008 . S
Co376 N387 1.995 . S
Co376 N392 2.282 . S
Co376 N398 2.282 . S
N377 Co376 1.995 . S
N377 C378 1.376 . S
N377 C381 1.383 . S
C378 N377 1.376 . S
C378 C379 1.446 . S
C378 C408 1.391 . S
C379 C378 1.446 . S
C379 C380 1.339 . S
C379 H414 0.949 . S
C380 C379 1.339 . S
C380 C381 1.439 . S
C380 H415 0.950 . S
C381 N377 1.383 . S
C381 C380 1.439 . S
C381 C410 1.392 . S
N382 Co376 2.008 . S
N382 C383 1.376 . S
N382 C386 1.374 . S
C383 N382 1.376 . S
C383 C384 1.443 . S
C383 C410 1.389 . S
C384 C383 1.443 . S
C384 C385 1.340 . S
C384 H416 0.951 . S
C385 C384 1.340 . S
C385 C386 1.439 . S
C385 H417 0.950 . S
C386 N382 1.374 . S
C386 C385 1.439 . S
C386 C411 1.395 . S
N387 Co376 1.995 . S
N387 C388 1.376 . S
N387 C391 1.383 . S
C388 N387 1.376 . S
C388 C389 1.446 . S
C388 C411 1.391 . S
C389 C388 1.446 . S
C389 C390 1.339 . S
C389 H418 0.949 . S
C390 C389 1.339 . S
C390 C391 1.439 . S
C390 H419 0.950 . S
C391 N387 1.383 . S
C391 C390 1.439 . S
C391 C409 1.392 . S
N392 Co376 2.282 . S
N392 C395 1.332 . S
N392 C397 1.332 . S
C393 C394 1.386 . S
C393 C396 1.388 . S
C394 C393 1.386 . S
C394 C395 1.382 . S
C394 H420 0.950 . S
C395 N392 1.332 . S
C395 C394 1.382 . S
C395 H406 0.952 . S
C396 C393 1.388 . S
C396 C397 1.382 . S
C396 H421 0.950 . S
C397 N392 1.332 . S
C397 C396 1.382 . S
C397 H407 0.948 . S
N398 Co376 2.282 . S
N398 C402 1.332 . S
N398 C403 1.332 . S
C399 C400 1.388 . S
C399 C403 1.382 . S
C399 H422 0.950 . S
C400 C399 1.388 . S
C400 C401 1.386 . S
C401 C400 1.386 . S
C401 C402 1.382 . S
C401 H423 0.950 . S
C402 N398 1.332 . S
C402 C401 1.382 . S
C402 H404 0.952 . S
C403 N398 1.332 . S
C403 C399 1.382 . S
C403 H405 0.948 . S
H404 C402 0.952 . S
H405 C403 0.948 . S
H406 C395 0.952 . S
H407 C397 0.948 . S
C408 C374 1.395 . S
C408 C378 1.391 . S
C409 C371 1.389 . S
C409 C391 1.392 . S
C410 C381 1.392 . S
C410 C383 1.389 . S
C411 C386 1.395 . S
C411 C388 1.391 . S
H412 C372 0.951 . S
H413 C373 0.950 . S
H414 C379 0.949 . S
H415 C380 0.950 . S
H416 C384 0.951 . S
H417 C385 0.950 . S
H418 C389 0.949 . S
H419 C390 0.950 . S
H420 C394 0.950 . S
H421 C396 0.950 . S
H422 C399 0.950 . S
H423 C401 0.950 . S
C424 C425 1.443 . S
C424 N428 1.376 . S
C424 C462 1.389 . S
C425 C424 1.443 . S
C425 C426 1.340 . S
C425 H465 0.951 . S
C426 C425 1.340 . S
C426 C427 1.439 . S
C426 H466 0.950 . S
C427 C426 1.439 . S
C427 N428 1.374 . S
C427 C461 1.395 . S
N428 C424 1.376 . S
N428 C427 1.374 . S
N428 Co429 2.008 . S
Co429 N428 2.008 . S
Co429 N430 1.995 1_554 S
Co429 N435 2.008 1_554 S
Co429 N440 1.995 . S
Co429 N445 2.282 . S
Co429 N451 2.282 1_554 S
N430 Co429 1.995 1_556 S
N430 C431 1.382 . S
N430 C434 1.383 . S
C431 N430 1.382 . S
C431 C432 1.454 . S
C431 C461 1.378 1_556 S
C432 C431 1.454 . S
C432 C433 1.339 . S
C432 H467 0.949 . S
C433 C432 1.339 . S
C433 C434 1.439 . S
C433 H468 0.950 . S
C434 N430 1.383 . S
C434 C433 1.439 . S
C434 C463 1.392 . S
N435 Co429 2.008 1_556 S
N435 C436 1.376 . S
N435 C439 1.374 . S
C436 N435 1.376 . S
C436 C437 1.443 . S
C436 C463 1.389 . S
C437 C436 1.443 . S
C437 C438 1.340 . S
C437 H469 0.951 . S
C438 C437 1.340 . S
C438 C439 1.439 . S
C438 H470 0.950 . S
C439 N435 1.374 . S
C439 C438 1.439 . S
C439 C464 1.395 . S
N440 Co429 1.995 . S
N440 C441 1.387 . S
N440 C444 1.383 . S
C441 N440 1.387 . S
C441 C442 1.459 . S
C441 C464 1.370 1_554 S
C442 C441 1.459 . S
C442 C443 1.339 . S
C442 H471 0.949 . S
C443 C442 1.339 . S
C443 C444 1.439 . S
C443 H472 0.950 . S
C444 N440 1.383 . S
C444 C443 1.439 . S
C444 C462 1.392 . S
N445 Co429 2.282 . S
N445 C448 1.332 1_554 S
N445 C450 1.332 . S
C446 C447 1.386 . S
C446 C449 1.388 1_556 S
C447 C446 1.386 . S
C447 C448 1.382 . S
C447 H473 0.950 . S
C448 N445 1.332 1_556 S
C448 C447 1.382 . S
C448 H459 0.952 . S
C449 C446 1.388 1_554 S
C449 C450 1.382 . S
C449 H474 0.950 . S
C450 N445 1.332 . S
C450 C449 1.382 . S
C450 H460 0.948 . S
N451 Co429 2.282 1_556 S
N451 C455 1.332 1_556 S
N451 C456 1.332 . S
C452 C453 1.388 1_556 S
C452 C456 1.382 . S
C452 H475 0.950 . S
C453 C452 1.388 1_554 S
C453 C454 1.386 . S
C454 C453 1.386 . S
C454 C455 1.382 . S
C454 H476 0.950 . S
C455 N451 1.332 1_554 S
C455 C454 1.382 . S
C455 H457 0.952 . S
C456 N451 1.332 . S
C456 C452 1.382 . S
C456 H458 0.948 . S
H457 C455 0.952 . S
H458 C456 0.948 . S
H459 C448 0.952 . S
H460 C450 0.948 . S
C461 C427 1.395 . S
C461 C431 1.378 1_554 S
C462 C424 1.389 . S
C462 C444 1.392 . S
C463 C434 1.392 . S
C463 C436 1.389 . S
C464 C439 1.395 . S
C464 C441 1.370 1_556 S
H465 C425 0.951 . S
H466 C426 0.950 . S
H467 C432 0.949 . S
H468 C433 0.950 . S
H469 C437 0.951 . S
H470 C438 0.950 . S
H471 C442 0.949 . S
H472 C443 0.950 . S
H473 C447 0.950 . S
H474 C449 0.950 . S
H475 C452 0.950 . S
H476 C454 0.950 . S
C477 C478 1.443 . S
C477 N481 1.376 . S
C477 C515 1.389 . S
C478 C477 1.443 . S
C478 C479 1.340 . S
C478 H518 0.951 . S
C479 C478 1.340 . S
C479 C480 1.439 . S
C479 H519 0.950 . S
C480 C479 1.439 . S
C480 N481 1.374 . S
C480 C514 1.395 . S
N481 C477 1.376 . S
N481 C480 1.374 . S
N481 Co482 2.008 . S
Co482 N481 2.008 . S
Co482 N483 1.995 . S
Co482 N488 2.008 . S
Co482 N493 1.995 . S
Co482 N498 2.282 . S
Co482 N504 2.282 . S
N483 Co482 1.995 . S
N483 C484 1.376 . S
N483 C487 1.383 . S
C484 N483 1.376 . S
C484 C485 1.446 . S
C484 C514 1.391 . S
C485 C484 1.446 . S
C485 C486 1.339 . S
C485 H520 0.949 . S
C486 C485 1.339 . S
C486 C487 1.439 . S
C486 H521 0.950 . S
C487 N483 1.383 . S
C487 C486 1.439 . S
C487 C516 1.392 . S
N488 Co482 2.008 . S
N488 C489 1.376 . S
N488 C492 1.374 . S
C489 N488 1.376 . S
C489 C490 1.443 . S
C489 C516 1.389 . S
C490 C489 1.443 . S
C490 C491 1.340 . S
C490 H522 0.951 . S
C491 C490 1.340 . S
C491 C492 1.439 . S
C491 H523 0.950 . S
C492 N488 1.374 . S
C492 C491 1.439 . S
C492 C517 1.395 . S
N493 Co482 1.995 . S
N493 C494 1.376 . S
N493 C497 1.383 . S
C494 N493 1.376 . S
C494 C495 1.446 . S
C494 C517 1.391 . S
C495 C494 1.446 . S
C495 C496 1.339 . S
C495 H524 0.949 . S
C496 C495 1.339 . S
C496 C497 1.439 . S
C496 H525 0.950 . S
C497 N493 1.383 . S
C497 C496 1.439 . S
C497 C515 1.392 . S
N498 Co482 2.282 . S
N498 C501 1.332 . S
N498 C503 1.332 . S
C499 C500 1.386 . S
C499 C502 1.388 . S
C500 C499 1.386 . S
C500 C501 1.382 . S
C500 H526 0.950 . S
C501 N498 1.332 . S
C501 C500 1.382 . S
C501 H512 0.952 . S
C502 C499 1.388 . S
C502 C503 1.382 . S
C502 H527 0.950 . S
C503 N498 1.332 . S
C503 C502 1.382 . S
C503 H513 0.948 . S
N504 Co482 2.282 . S
N504 C508 1.332 . S
N504 C509 1.332 . S
C505 C506 1.388 . S
C505 C509 1.382 . S
C505 H528 0.950 . S
C506 C505 1.388 . S
C506 C507 1.386 . S
C507 C506 1.386 . S
C507 C508 1.382 . S
C507 H529 0.950 . S
C508 N504 1.332 . S
C508 C507 1.382 . S
C508 H510 0.952 . S
C509 N504 1.332 . S
C509 C505 1.382 . S
C509 H511 0.948 . S
H510 C508 0.952 . S
H511 C509 0.948 . S
H512 C501 0.952 . S
H513 C503 0.948 . S
C514 C480 1.395 . S
C514 C484 1.391 . S
C515 C477 1.389 . S
C515 C497 1.392 . S
C516 C487 1.392 . S
C516 C489 1.389 . S
C517 C492 1.395 . S
C517 C494 1.391 . S
H518 C478 0.951 . S
H519 C479 0.950 . S
H520 C485 0.949 . S
H521 C486 0.950 . S
H522 C490 0.951 . S
H523 C491 0.950 . S
H524 C495 0.949 . S
H525 C496 0.950 . S
H526 C500 0.950 . S
H527 C502 0.950 . S
H528 C505 0.950 . S
H529 C507 0.950 . S
C530 C531 1.443 . S
C530 N534 1.376 . S
C530 C568 1.389 . S
C531 C530 1.443 . S
C531 C532 1.340 . S
C531 H571 0.951 . S
C532 C531 1.340 . S
C532 C533 1.439 . S
C532 H572 0.950 . S
C533 C532 1.439 . S
C533 N534 1.374 . S
C533 C567 1.395 . S
N534 C530 1.376 . S
N534 C533 1.374 . S
N534 Co535 2.008 . S
Co535 N534 2.008 . S
Co535 N536 1.995 . S
Co535 N541 2.008 . S
Co535 N546 1.995 . S
Co535 N551 2.282 . S
Co535 N557 2.282 . S
N536 Co535 1.995 . S
N536 C537 1.376 . S
N536 C540 1.383 . S
C537 N536 1.376 . S
C537 C538 1.446 . S
C537 C567 1.391 . S
C538 C537 1.446 . S
C538 C539 1.339 . S
C538 H573 0.949 . S
C539 C538 1.339 . S
C539 C540 1.439 . S
C539 H574 0.950 . S
C540 N536 1.383 . S
C540 C539 1.439 . S
C540 C569 1.392 . S
N541 Co535 2.008 . S
N541 C542 1.376 . S
N541 C545 1.374 . S
C542 N541 1.376 . S
C542 C543 1.443 . S
C542 C569 1.389 . S
C543 C542 1.443 . S
C543 C544 1.340 . S
C543 H575 0.951 . S
C544 C543 1.340 . S
C544 C545 1.439 . S
C544 H576 0.950 . S
C545 N541 1.374 . S
C545 C544 1.439 . S
C545 C570 1.395 . S
N546 Co535 1.995 . S
N546 C547 1.376 . S
N546 C550 1.383 . S
C547 N546 1.376 . S
C547 C548 1.446 . S
C547 C570 1.391 . S
C548 C547 1.446 . S
C548 C549 1.339 . S
C548 H577 0.949 . S
C549 C548 1.339 . S
C549 C550 1.439 . S
C549 H578 0.950 . S
C550 N546 1.383 . S
C550 C549 1.439 . S
C550 C568 1.392 . S
N551 Co535 2.282 . S
N551 C554 1.332 . S
N551 C556 1.332 . S
C552 C553 1.386 . S
C552 C555 1.388 . S
C553 C552 1.386 . S
C553 C554 1.382 . S
C553 H579 0.950 . S
C554 N551 1.332 . S
C554 C553 1.382 . S
C554 H565 0.952 . S
C555 C552 1.388 . S
C555 C556 1.382 . S
C555 H580 0.950 . S
C556 N551 1.332 . S
C556 C555 1.382 . S
C556 H566 0.948 . S
N557 Co535 2.282 . S
N557 C561 1.332 . S
N557 C562 1.332 . S
C558 C559 1.388 . S
C558 C562 1.382 . S
C558 H581 0.950 . S
C559 C558 1.388 . S
C559 C560 1.386 . S
C560 C559 1.386 . S
C560 C561 1.382 . S
C560 H582 0.950 . S
C561 N557 1.332 . S
C561 C560 1.382 . S
C561 H563 0.952 . S
C562 N557 1.332 . S
C562 C558 1.382 . S
C562 H564 0.948 . S
H563 C561 0.952 . S
H564 C562 0.948 . S
H565 C554 0.952 . S
H566 C556 0.948 . S
C567 C533 1.395 . S
C567 C537 1.391 . S
C568 C530 1.389 . S
C568 C550 1.392 . S
C569 C540 1.392 . S
C569 C542 1.389 . S
C570 C545 1.395 . S
C570 C547 1.391 . S
H571 C531 0.951 . S
H572 C532 0.950 . S
H573 C538 0.949 . S
H574 C539 0.950 . S
H575 C543 0.951 . S
H576 C544 0.950 . S
H577 C548 0.949 . S
H578 C549 0.950 . S
H579 C553 0.950 . S
H580 C555 0.950 . S
H581 C558 0.950 . S
H582 C560 0.950 . S
C583 C584 1.443 . S
C583 N587 1.376 . S
C583 C621 1.389 . S
C584 C583 1.443 . S
C584 C585 1.340 . S
C584 H624 0.951 . S
C585 C584 1.340 . S
C585 C586 1.439 . S
C585 H625 0.950 . S
C586 C585 1.439 . S
C586 N587 1.374 . S
C586 C620 1.395 . S
N587 C583 1.376 . S
N587 C586 1.374 . S
N587 Co588 2.008 . S
Co588 N587 2.008 . S
Co588 N589 1.995 1_554 S
Co588 N594 2.008 1_554 S
Co588 N599 1.995 . S
Co588 N604 2.282 . S
Co588 N610 2.282 1_554 S
N589 Co588 1.995 1_556 S
N589 C590 1.382 . S
N589 C593 1.383 . S
C590 N589 1.382 . S
C590 C591 1.454 . S
C590 C620 1.378 1_556 S
C591 C590 1.454 . S
C591 C592 1.339 . S
C591 H626 0.949 . S
C592 C591 1.339 . S
C592 C593 1.439 . S
C592 H627 0.950 . S
C593 N589 1.383 . S
C593 C592 1.439 . S
C593 C622 1.392 . S
N594 Co588 2.008 1_556 S
N594 C595 1.376 . S
N594 C598 1.374 . S
C595 N594 1.376 . S
C595 C596 1.443 . S
C595 C622 1.389 . S
C596 C595 1.443 . S
C596 C597 1.340 . S
C596 H628 0.951 . S
C597 C596 1.340 . S
C597 C598 1.439 . S
C597 H629 0.950 . S
C598 N594 1.374 . S
C598 C597 1.439 . S
C598 C623 1.395 . S
N599 Co588 1.995 . S
N599 C600 1.387 . S
N599 C603 1.383 . S
C600 N599 1.387 . S
C600 C601 1.459 . S
C600 C623 1.370 1_554 S
C601 C600 1.459 . S
C601 C602 1.339 . S
C601 H630 0.949 . S
C602 C601 1.339 . S
C602 C603 1.439 . S
C602 H631 0.950 . S
C603 N599 1.383 . S
C603 C602 1.439 . S
C603 C621 1.392 . S
N604 Co588 2.282 . S
N604 C607 1.332 1_554 S
N604 C609 1.332 . S
C605 C606 1.386 . S
C605 C608 1.388 1_556 S
C606 C605 1.386 . S
C606 C607 1.382 . S
C606 H632 0.950 . S
C607 N604 1.332 1_556 S
C607 C606 1.382 . S
C607 H618 0.952 . S
C608 C605 1.388 1_554 S
C608 C609 1.382 . S
C608 H633 0.950 . S
C609 N604 1.332 . S
C609 C608 1.382 . S
C609 H619 0.948 . S
N610 Co588 2.282 1_556 S
N610 C614 1.332 1_556 S
N610 C615 1.332 . S
C611 C612 1.388 1_556 S
C611 C615 1.382 . S
C611 H634 0.950 . S
C612 C611 1.388 1_554 S
C612 C613 1.386 . S
C613 C612 1.386 . S
C613 C614 1.382 . S
C613 H635 0.950 . S
C614 N610 1.332 1_554 S
C614 C613 1.382 . S
C614 H616 0.952 . S
C615 N610 1.332 . S
C615 C611 1.382 . S
C615 H617 0.948 . S
H616 C614 0.952 . S
H617 C615 0.948 . S
H618 C607 0.952 . S
H619 C609 0.948 . S
C620 C586 1.395 . S
C620 C590 1.378 1_554 S
C621 C583 1.389 . S
C621 C603 1.392 . S
C622 C593 1.392 . S
C622 C595 1.389 . S
C623 C598 1.395 . S
C623 C600 1.370 1_556 S
H624 C584 0.951 . S
H625 C585 0.950 . S
H626 C591 0.949 . S
H627 C592 0.950 . S
H628 C596 0.951 . S
H629 C597 0.950 . S
H630 C601 0.949 . S
H631 C602 0.950 . S
H632 C606 0.950 . S
H633 C608 0.950 . S
H634 C611 0.950 . S
H635 C613 0.950 . S
H636 C642 0.930 . S
H637 C646 0.930 . S
H638 C651 0.929 . S
H639 C649 0.929 . S
H640 C644 0.929 . S
H641 C650 0.929 . S
C642 H636 0.930 . S
C642 C643 1.367 . S
C642 C650 1.378 . S
C643 C642 1.367 . S
C643 C651 1.433 . S
C644 H640 0.929 . S
C644 C646 1.378 . S
C644 C648 1.350 . S
C645 C648 1.463 . S
C645 C650 1.350 . S
C645 N653 1.427 . S
C646 H637 0.930 . S
C646 C644 1.378 . S
C646 C647 1.367 . S
C647 C646 1.367 . S
C647 C649 1.433 . S
C648 C644 1.350 . S
C648 C645 1.463 . S
C648 N652 1.427 . S
C649 H639 0.929 . S
C649 C647 1.433 . S
C649 N652 1.384 . S
C650 H641 0.929 . S
C650 C642 1.378 . S
C650 C645 1.350 . S
C651 H638 0.929 . S
C651 C643 1.433 . S
C651 N653 1.384 . S
N652 C648 1.427 . S
N652 C649 1.384 . S
N653 C645 1.427 . S
N653 C651 1.384 . S
H654 C660 0.930 . S
H655 C664 0.930 . S
H656 C669 0.929 . S
H657 C667 0.929 . S
H658 C662 0.929 . S
H659 C668 0.929 . S
C660 H654 0.930 . S
C660 C661 1.367 . S
C660 C668 1.378 . S
C661 C660 1.367 . S
C661 C669 1.433 . S
C662 H658 0.929 . S
C662 C664 1.378 . S
C662 C666 1.350 . S
C663 C666 1.463 . S
C663 C668 1.350 . S
C663 N671 1.427 . S
C664 H655 0.930 . S
C664 C662 1.378 . S
C664 C665 1.367 . S
C665 C664 1.367 . S
C665 C667 1.433 . S
C666 C662 1.350 . S
C666 C663 1.463 . S
C666 N670 1.427 . S
C667 H657 0.929 . S
C667 C665 1.433 . S
C667 N670 1.384 . S
C668 H659 0.929 . S
C668 C660 1.378 . S
C668 C663 1.350 . S
C669 H656 0.929 . S
C669 C661 1.433 . S
C669 N671 1.384 . S
N670 C666 1.427 . S
N670 C667 1.384 . S
N671 C663 1.427 . S
N671 C669 1.384 . S
H672 C678 0.930 . S
H673 C682 0.930 . S
H674 C687 0.929 . S
H675 C685 0.929 . S
H676 C680 0.929 . S
H677 C686 0.929 . S
C678 H672 0.930 . S
C678 C679 1.367 . S
C678 C686 1.378 . S
C679 C678 1.367 . S
C679 C687 1.433 . S
C680 H676 0.929 . S
C680 C682 1.378 . S
C680 C684 1.350 . S
C681 C684 1.463 . S
C681 C686 1.350 . S
C681 N689 1.427 . S
C682 H673 0.930 . S
C682 C680 1.378 . S
C682 C683 1.367 . S
C683 C682 1.367 . S
C683 C685 1.433 . S
C684 C680 1.350 . S
C684 C681 1.463 . S
C684 N688 1.427 . S
C685 H675 0.929 . S
C685 C683 1.433 . S
C685 N688 1.384 . S
C686 H677 0.929 . S
C686 C678 1.378 . S
C686 C681 1.350 . S
C687 H674 0.929 . S
C687 C679 1.433 . S
C687 N689 1.384 . S
N688 C684 1.427 . S
N688 C685 1.384 . S
N689 C681 1.427 . S
N689 C687 1.384 . S
H690 C696 0.930 . S
H691 C700 0.930 . S
H692 C705 0.929 . S
H693 C703 0.929 . S
H694 C698 0.929 . S
H695 C704 0.929 . S
C696 H690 0.930 . S
C696 C697 1.367 . S
C696 C704 1.378 . S
C697 C696 1.367 . S
C697 C705 1.433 . S
C698 H694 0.929 . S
C698 C700 1.378 . S
C698 C702 1.350 . S
C699 C702 1.463 . S
C699 C704 1.350 . S
C699 N707 1.427 . S
C700 H691 0.930 . S
C700 C698 1.378 . S
C700 C701 1.367 . S
C701 C700 1.367 . S
C701 C703 1.433 . S
C702 C698 1.350 . S
C702 C699 1.463 . S
C702 N706 1.427 . S
C703 H693 0.929 . S
C703 C701 1.433 . S
C703 N706 1.384 . S
C704 H695 0.929 . S
C704 C696 1.378 . S
C704 C699 1.350 . S
C705 H692 0.929 . S
C705 C697 1.433 . S
C705 N707 1.384 . S
N706 C702 1.427 . S
N706 C703 1.384 . S
N707 C699 1.427 . S
N707 C705 1.384 . S
H708 C714 0.930 . S
H709 C718 0.930 . S
H710 C723 0.929 . S
H711 C721 0.929 . S
H712 C716 0.929 . S
H713 C722 0.929 . S
C714 H708 0.930 . S
C714 C715 1.367 . S
C714 C722 1.378 . S
C715 C714 1.367 . S
C715 C723 1.433 . S
C716 H712 0.929 . S
C716 C718 1.378 . S
C716 C720 1.350 . S
C717 C720 1.463 . S
C717 C722 1.350 . S
C717 N725 1.427 . S
C718 H709 0.930 . S
C718 C716 1.378 . S
C718 C719 1.367 . S
C719 C718 1.367 . S
C719 C721 1.433 . S
C720 C716 1.350 . S
C720 C717 1.463 . S
C720 N724 1.427 . S
C721 H711 0.929 . S
C721 C719 1.433 . S
C721 N724 1.384 . S
C722 H713 0.929 . S
C722 C714 1.378 . S
C722 C717 1.350 . S
C723 H710 0.929 . S
C723 C715 1.433 . S
C723 N725 1.384 . S
N724 C720 1.427 . S
N724 C721 1.384 . S
N725 C717 1.427 . S
N725 C723 1.384 . S
H726 C732 0.930 . S
H727 C736 0.930 . S
H728 C741 0.929 . S
H729 C739 0.929 . S
H730 C734 0.929 . S
H731 C740 0.929 . S
C732 H726 0.930 . S
C732 C733 1.367 . S
C732 C740 1.378 . S
C733 C732 1.367 . S
C733 C741 1.433 . S
C734 H730 0.929 . S
C734 C736 1.378 . S
C734 C738 1.350 . S
C735 C738 1.463 . S
C735 C740 1.350 . S
C735 N743 1.427 . S
C736 H727 0.930 . S
C736 C734 1.378 . S
C736 C737 1.367 . S
C737 C736 1.367 . S
C737 C739 1.433 . S
C738 C734 1.350 . S
C738 C735 1.463 . S
C738 N742 1.427 . S
C739 H729 0.929 . S
C739 C737 1.433 . S
C739 N742 1.384 . S
C740 H731 0.929 . S
C740 C732 1.378 . S
C740 C735 1.350 . S
C741 H728 0.929 . S
C741 C733 1.433 . S
C741 N743 1.384 . S
N742 C738 1.427 . S
N742 C739 1.384 . S
N743 C735 1.427 . S
N743 C741 1.384 . S
H744 C750 0.930 . S
H745 C754 0.930 . S
H746 C759 0.929 . S
H747 C757 0.929 . S
H748 C752 0.929 . S
H749 C758 0.929 . S
C750 H744 0.930 . S
C750 C751 1.367 . S
C750 C758 1.378 . S
C751 C750 1.367 . S
C751 C759 1.433 . S
C752 H748 0.929 . S
C752 C754 1.378 . S
C752 C756 1.350 . S
C753 C756 1.463 . S
C753 C758 1.350 . S
C753 N761 1.427 . S
C754 H745 0.930 . S
C754 C752 1.378 . S
C754 C755 1.367 . S
C755 C754 1.367 . S
C755 C757 1.433 . S
C756 C752 1.350 . S
C756 C753 1.463 . S
C756 N760 1.427 . S
C757 H747 0.929 . S
C757 C755 1.433 . S
C757 N760 1.384 . S
C758 H749 0.929 . S
C758 C750 1.378 . S
C758 C753 1.350 . S
C759 H746 0.929 . S
C759 C751 1.433 . S
C759 N761 1.384 . S
N760 C756 1.427 . S
N760 C757 1.384 . S
N761 C753 1.427 . S
N761 C759 1.384 . S
H762 C768 0.930 . S
H763 C772 0.930 . S
H764 C777 0.929 . S
H765 C775 0.929 . S
H766 C770 0.929 . S
H767 C776 0.929 . S
C768 H762 0.930 . S
C768 C769 1.367 . S
C768 C776 1.378 . S
C769 C768 1.367 . S
C769 C777 1.433 . S
C770 H766 0.929 . S
C770 C772 1.378 . S
C770 C774 1.350 . S
C771 C774 1.463 . S
C771 C776 1.350 . S
C771 N779 1.427 . S
C772 H763 0.930 . S
C772 C770 1.378 . S
C772 C773 1.367 . S
C773 C772 1.367 . S
C773 C775 1.433 . S
C774 C770 1.350 . S
C774 C771 1.463 . S
C774 N778 1.427 . S
C775 H765 0.929 . S
C775 C773 1.433 . S
C775 N778 1.384 . S
C776 H767 0.929 . S
C776 C768 1.378 . S
C776 C771 1.350 . S
C777 H764 0.929 . S
C777 C769 1.433 . S
C777 N779 1.384 . S
N778 C774 1.427 . S
N778 C775 1.384 . S
N779 C771 1.427 . S
N779 C777 1.384 . S
H780 C786 0.930 . S
H781 C790 0.930 . S
H782 C795 0.929 . S
H783 C793 0.929 . S
H784 C788 0.929 . S
H785 C794 0.929 . S
C786 H780 0.930 . S
C786 C787 1.367 . S
C786 C794 1.378 . S
C787 C786 1.367 . S
C787 C795 1.433 1_554 S
C788 H784 0.929 . S
C788 C790 1.378 . S
C788 C792 1.350 . S
C789 C792 1.463 1_554 S
C789 C794 1.350 . S
C789 N797 1.427 1_554 S
C790 H781 0.930 . S
C790 C788 1.378 . S
C790 C791 1.367 . S
C791 C790 1.367 . S
C791 C793 1.433 1_556 S
C792 C788 1.350 . S
C792 C789 1.463 1_556 S
C792 N796 1.427 1_556 S
C793 H783 0.929 . S
C793 C791 1.433 1_554 S
C793 N796 1.384 . S
C794 H785 0.929 . S
C794 C786 1.378 . S
C794 C789 1.350 . S
C795 H782 0.929 . S
C795 C787 1.433 1_556 S
C795 N797 1.384 . S
N796 C792 1.427 1_554 S
N796 C793 1.384 . S
N797 C789 1.427 1_556 S
N797 C795 1.384 . S
H798 C804 0.930 . S
H799 C808 0.930 . S
H800 C813 0.929 . S
H801 C811 0.929 . S
H802 C806 0.929 . S
H803 C812 0.929 . S
C804 H798 0.930 . S
C804 C805 1.367 . S
C804 C812 1.378 . S
C805 C804 1.367 . S
C805 C813 1.433 . S
C806 H802 0.929 . S
C806 C808 1.378 . S
C806 C810 1.350 . S
C807 C810 1.463 . S
C807 C812 1.350 . S
C807 N815 1.427 . S
C808 H799 0.930 . S
C808 C806 1.378 . S
C808 C809 1.367 . S
C809 C808 1.367 . S
C809 C811 1.433 . S
C810 C806 1.350 . S
C810 C807 1.463 . S
C810 N814 1.427 . S
C811 H801 0.929 . S
C811 C809 1.433 . S
C811 N814 1.384 . S
C812 H803 0.929 . S
C812 C804 1.378 . S
C812 C807 1.350 . S
C813 H800 0.929 . S
C813 C805 1.433 . S
C813 N815 1.384 . S
N814 C810 1.427 . S
N814 C811 1.384 . S
N815 C807 1.427 . S
N815 C813 1.384 . S
H816 C822 0.930 . S
H817 C826 0.930 . S
H818 C831 0.929 . S
H819 C829 0.929 . S
H820 C824 0.929 . S
H821 C830 0.929 . S
C822 H816 0.930 . S
C822 C823 1.367 . S
C822 C830 1.378 . S
C823 C822 1.367 . S
C823 C831 1.433 . S
C824 H820 0.929 . S
C824 C826 1.378 . S
C824 C828 1.350 . S
C825 C828 1.463 . S
C825 C830 1.350 . S
C825 N833 1.427 . S
C826 H817 0.930 . S
C826 C824 1.378 . S
C826 C827 1.367 . S
C827 C826 1.367 . S
C827 C829 1.433 . S
C828 C824 1.350 . S
C828 C825 1.463 . S
C828 N832 1.427 . S
C829 H819 0.929 . S
C829 C827 1.433 . S
C829 N832 1.384 . S
C830 H821 0.929 . S
C830 C822 1.378 . S
C830 C825 1.350 . S
C831 H818 0.929 . S
C831 C823 1.433 . S
C831 N833 1.384 . S
N832 C828 1.427 . S
N832 C829 1.384 . S
N833 C825 1.427 . S
N833 C831 1.384 . S
H834 C840 0.930 . S
H835 C844 0.930 . S
H836 C849 0.929 . S
H837 C847 0.929 . S
H838 C842 0.929 . S
H839 C848 0.929 . S
C840 H834 0.930 . S
C840 C841 1.367 . S
C840 C848 1.378 . S
C841 C840 1.367 . S
C841 C849 1.433 1_556 S
C842 H838 0.929 . S
C842 C844 1.378 . S
C842 C846 1.356 . S
C843 C846 1.461 1_556 S
C843 C848 1.350 . S
C843 N851 1.427 1_556 S
C844 H835 0.930 . S
C844 C842 1.378 . S
C844 C845 1.367 . S
C845 C844 1.367 . S
C845 C847 1.433 1_554 S
C846 C842 1.356 . S
C846 C843 1.461 1_554 S
C846 N850 1.423 1_554 S
C847 H837 0.929 . S
C847 C845 1.433 1_556 S
C847 N850 1.384 . S
C848 H839 0.929 . S
C848 C840 1.378 . S
C848 C843 1.350 . S
C849 H836 0.929 . S
C849 C841 1.433 1_554 S
C849 N851 1.384 . S
N850 C846 1.423 1_556 S
N850 C847 1.384 . S
N851 C843 1.427 1_554 S
N851 C849 1.384 . S
H852 C858 0.930 . S
H853 C862 0.930 . S
H854 C867 0.929 . S
H855 C865 0.929 . S
H856 C860 0.929 1_545 S
H857 C866 0.929 1_565 S
C858 H852 0.930 . S
C858 C859 1.367 . S
C858 C866 1.378 . S
C859 C858 1.367 . S
C859 C867 1.433 . S
C860 H856 0.929 1_565 S
C860 C862 1.378 . S
C860 C864 1.350 . S
C861 C864 1.463 1_545 S
C861 C866 1.350 . S
C861 N869 1.427 . S
C862 H853 0.930 . S
C862 C860 1.378 . S
C862 C863 1.367 . S
C863 C862 1.367 . S
C863 C865 1.433 . S
C864 C860 1.350 . S
C864 C861 1.463 1_565 S
C864 N868 1.427 . S
C865 H855 0.929 . S
C865 C863 1.433 . S
C865 N868 1.384 . S
C866 H857 0.929 1_545 S
C866 C858 1.378 . S
C866 C861 1.350 . S
C867 H854 0.929 . S
C867 C859 1.433 . S
C867 N869 1.384 . S
N868 C864 1.427 . S
N868 C865 1.384 . S
N869 C861 1.427 . S
N869 C867 1.384 . S
H870 C876 0.930 . S
H871 C880 0.930 . S
H872 C885 0.929 . S
H873 C883 0.929 . S
H874 C878 0.929 . S
H875 C884 0.929 . S
C876 H870 0.930 . S
C876 C877 1.367 . S
C876 C884 1.378 . S
C877 C876 1.367 . S
C877 C885 1.433 . S
C878 H874 0.929 . S
C878 C880 1.378 . S
C878 C882 1.350 . S
C879 C882 1.463 . S
C879 C884 1.350 . S
C879 N887 1.427 . S
C880 H871 0.930 . S
C880 C878 1.378 . S
C880 C881 1.367 . S
C881 C880 1.367 . S
C881 C883 1.433 . S
C882 C878 1.350 . S
C882 C879 1.463 . S
C882 N886 1.427 . S
C883 H873 0.929 . S
C883 C881 1.433 . S
C883 N886 1.384 . S
C884 H875 0.929 . S
C884 C876 1.378 . S
C884 C879 1.350 . S
C885 H872 0.929 . S
C885 C877 1.433 . S
C885 N887 1.384 . S
N886 C882 1.427 . S
N886 C883 1.384 . S
N887 C879 1.427 . S
N887 C885 1.384 . S
H888 C894 0.930 . S
H889 C898 0.930 . S
H890 C903 0.929 . S
H891 C901 0.929 . S
H892 C896 0.919 1_655 S
H893 C902 0.919 1_455 S
C894 H888 0.930 . S
C894 C895 1.367 . S
C894 C902 1.378 . S
C895 C894 1.367 . S
C895 C903 1.433 1_554 S
C896 H892 0.919 1_455 S
C896 C898 1.378 . S
C896 C900 1.350 1_556 S
C897 C900 1.463 1_655 S
C897 C902 1.350 . S
C897 N905 1.427 1_554 S
C898 H889 0.930 . S
C898 C896 1.378 . S
C898 C899 1.367 1_556 S
C899 C898 1.367 1_554 S
C899 C901 1.433 . S
C900 C896 1.350 1_554 S
C900 C897 1.463 1_455 S
C900 N904 1.427 . S
C901 H891 0.929 . S
C901 C899 1.433 . S
C901 N904 1.384 . S
C902 H893 0.919 1_655 S
C902 C894 1.378 . S
C902 C897 1.350 . S
C903 H890 0.929 . S
C903 C895 1.433 1_556 S
C903 N905 1.384 . S
N904 C900 1.427 . S
N904 C901 1.384 . S
N905 C897 1.427 1_556 S
N905 C903 1.384 . S
H906 C912 0.930 . S
H907 C916 0.930 . S
H908 C921 0.929 . S
H909 C919 0.929 . S
H910 C914 0.929 . S
H911 C920 0.929 . S
C912 H906 0.930 . S
C912 C913 1.367 . S
C912 C920 1.378 . S
C913 C912 1.367 . S
C913 C921 1.433 . S
C914 H910 0.929 . S
C914 C916 1.378 . S
C914 C918 1.350 . S
C915 C918 1.463 1_455 S
C915 C920 1.350 . S
C915 N923 1.427 . S
C916 H907 0.930 . S
C916 C914 1.378 . S
C916 C917 1.367 . S
C917 C916 1.367 . S
C917 C919 1.433 . S
C918 C914 1.350 . S
C918 C915 1.463 1_655 S
C918 N922 1.427 . S
C919 H909 0.929 . S
C919 C917 1.433 . S
C919 N922 1.384 . S
C920 H911 0.929 . S
C920 C912 1.378 . S
C920 C915 1.350 . S
C921 H908 0.929 . S
C921 C913 1.433 . S
C921 N923 1.384 . S
N922 C918 1.427 . S
N922 C919 1.384 . S
N923 C915 1.427 . S
N923 C921 1.384 . S
H924 C930 0.930 . S
H925 C934 0.930 . S
H926 C939 0.929 . S
H927 C937 0.929 . S
H928 C932 0.929 . S
H929 C938 0.929 . S
C930 H924 0.930 . S
C930 C931 1.367 . S
C930 C938 1.378 . S
C931 C930 1.367 . S
C931 C939 1.433 . S
C932 H928 0.929 . S
C932 C934 1.378 . S
C932 C936 1.350 . S
C933 C936 1.463 1_545 S
C933 C938 1.350 . S
C933 N941 1.427 . S
C934 H925 0.930 . S
C934 C932 1.378 . S
C934 C935 1.367 . S
C935 C934 1.367 . S
C935 C937 1.433 . S
C936 C932 1.350 . S
C936 C933 1.463 1_565 S
C936 N940 1.427 . S
C937 H927 0.929 . S
C937 C935 1.433 . S
C937 N940 1.384 . S
C938 H929 0.929 . S
C938 C930 1.378 . S
C938 C933 1.350 . S
C939 H926 0.929 . S
C939 C931 1.433 . S
C939 N941 1.384 . S
N940 C936 1.427 . S
N940 C937 1.384 . S
N941 C933 1.427 . S
N941 C939 1.384 . S
H942 C948 0.930 . S
H943 C952 0.930 . S
H944 C957 0.929 . S
H945 C955 0.929 . S
H946 C950 0.929 . S
H947 C956 0.929 . S
C948 H942 0.930 . S
C948 C949 1.367 1_554 S
C948 C956 1.378 . S
C949 C948 1.367 1_556 S
C949 C957 1.433 . S
C950 H946 0.929 . S
C950 C952 1.378 . S
C950 C954 1.350 . S
C951 C954 1.463 . S
C951 C956 1.350 1_556 S
C951 N959 1.427 . S
C952 H943 0.930 . S
C952 C950 1.378 . S
C952 C953 1.367 . S
C953 C952 1.367 . S
C953 C955 1.433 1_556 S
C954 C950 1.350 . S
C954 C951 1.463 . S
C954 N958 1.427 1_556 S
C955 H945 0.929 . S
C955 C953 1.433 1_554 S
C955 N958 1.384 . S
C956 H947 0.929 . S
C956 C948 1.378 . S
C956 C951 1.350 1_554 S
C957 H944 0.929 . S
C957 C949 1.433 . S
C957 N959 1.384 . S
N958 C954 1.427 1_554 S
N958 C955 1.384 . S
N959 C951 1.427 . S
N959 C957 1.384 . S
H960 C966 0.930 . S
H961 C970 0.930 . S
H962 C975 0.929 . S
H963 C973 0.929 . S
H964 C968 0.929 . S
H965 C974 0.929 . S
C966 H960 0.930 . S
C966 C967 1.367 . S
C966 C974 1.378 . S
C967 C966 1.367 . S
C967 C975 1.433 . S
C968 H964 0.929 . S
C968 C970 1.378 . S
C968 C972 1.350 . S
C969 C972 1.463 . S
C969 C974 1.350 . S
C969 N977 1.427 . S
C970 H961 0.930 . S
C970 C968 1.378 . S
C970 C971 1.367 . S
C971 C970 1.367 . S
C971 C973 1.433 . S
C972 C968 1.350 . S
C972 C969 1.463 . S
C972 N976 1.427 . S
C973 H963 0.929 . S
C973 C971 1.433 . S
C973 N976 1.384 . S
C974 H965 0.929 . S
C974 C966 1.378 . S
C974 C969 1.350 . S
C975 H962 0.929 . S
C975 C967 1.433 . S
C975 N977 1.384 . S
N976 C972 1.427 . S
N976 C973 1.384 . S
N977 C969 1.427 . S
N977 C975 1.384 . S
H978 C984 0.930 . S
H979 C988 0.930 . S
H980 C993 0.929 . S
H981 C991 0.929 . S
H982 C986 0.929 . S
H983 C992 0.929 . S
C984 H978 0.930 . S
C984 C985 1.367 . S
C984 C992 1.378 . S
C985 C984 1.367 . S
C985 C993 1.433 . S
C986 H982 0.929 . S
C986 C988 1.378 . S
C986 C990 1.350 . S
C987 C990 1.463 . S
C987 C992 1.350 . S
C987 N995 1.427 . S
C988 H979 0.930 . S
C988 C986 1.378 . S
C988 C989 1.367 . S
C989 C988 1.367 . S
C989 C991 1.433 . S
C990 C986 1.350 . S
C990 C987 1.463 . S
C990 N994 1.427 . S
C991 H981 0.929 . S
C991 C989 1.433 . S
C991 N994 1.384 . S
C992 H983 0.929 . S
C992 C984 1.378 . S
C992 C987 1.350 . S
C993 H980 0.929 . S
C993 C985 1.433 . S
C993 N995 1.384 . S
N994 C990 1.427 . S
N994 C991 1.384 . S
N995 C987 1.427 . S
N995 C993 1.384 . S
H996 C1002 0.930 . S
H997 C1006 0.930 . S
H998 C1011 0.929 . S
H999 C1009 0.929 . S
H1000 C1004 0.929 . S
H1001 C1010 0.929 . S
C1002 H996 0.930 . S
C1002 C1003 1.367 . S
C1002 C1010 1.378 . S
C1003 C1002 1.367 . S
C1003 C1011 1.433 . S
C1004 H1000 0.929 . S
C1004 C1006 1.378 . S
C1004 C1008 1.350 . S
C1005 C1008 1.463 . S
C1005 C1010 1.350 . S
C1005 N1013 1.427 . S
C1006 H997 0.930 . S
C1006 C1004 1.378 . S
C1006 C1007 1.367 . S
C1007 C1006 1.367 . S
C1007 C1009 1.433 . S
C1008 C1004 1.350 . S
C1008 C1005 1.463 . S
C1008 N1012 1.427 . S
C1009 H999 0.929 . S
C1009 C1007 1.433 . S
C1009 N1012 1.384 . S
C1010 H1001 0.929 . S
C1010 C1002 1.378 . S
C1010 C1005 1.350 . S
C1011 H998 0.929 . S
C1011 C1003 1.433 . S
C1011 N1013 1.384 . S
N1012 C1008 1.427 . S
N1012 C1009 1.384 . S
N1013 C1005 1.427 . S
N1013 C1011 1.384 . S
H1014 C1020 0.930 . S
H1015 C1024 0.930 . S
H1016 C1029 0.929 . S
H1017 C1027 0.929 . S
H1018 C1022 0.929 . S
H1019 C1028 0.929 . S
C1020 H1014 0.930 . S
C1020 C1021 1.367 . S
C1020 C1028 1.378 . S
C1021 C1020 1.367 . S
C1021 C1029 1.433 . S
C1022 H1018 0.929 . S
C1022 C1024 1.378 . S
C1022 C1026 1.350 . S
C1023 C1026 1.463 . S
C1023 C1028 1.350 . S
C1023 N1031 1.427 . S
C1024 H1015 0.930 . S
C1024 C1022 1.378 . S
C1024 C1025 1.367 . S
C1025 C1024 1.367 . S
C1025 C1027 1.433 . S
C1026 C1022 1.350 . S
C1026 C1023 1.463 . S
C1026 N1030 1.427 . S
C1027 H1017 0.929 . S
C1027 C1025 1.433 . S
C1027 N1030 1.384 . S
C1028 H1019 0.929 . S
C1028 C1020 1.378 . S
C1028 C1023 1.350 . S
C1029 H1016 0.929 . S
C1029 C1021 1.433 . S
C1029 N1031 1.384 . S
N1030 C1026 1.427 . S
N1030 C1027 1.384 . S
N1031 C1023 1.427 . S
N1031 C1029 1.384 . S
H1032 C1038 0.930 . S
H1033 C1042 0.930 . S
H1034 C1047 0.929 . S
H1035 C1045 0.929 . S
H1036 C1040 0.929 . S
H1037 C1046 0.929 . S
C1038 H1032 0.930 . S
C1038 C1039 1.367 . S
C1038 C1046 1.378 . S
C1039 C1038 1.367 . S
C1039 C1047 1.433 . S
C1040 H1036 0.929 . S
C1040 C1042 1.378 . S
C1040 C1044 1.350 . S
C1041 C1044 1.463 . S
C1041 C1046 1.350 . S
C1041 N1049 1.427 . S
C1042 H1033 0.930 . S
C1042 C1040 1.378 . S
C1042 C1043 1.367 . S
C1043 C1042 1.367 . S
C1043 C1045 1.433 . S
C1044 C1040 1.350 . S
C1044 C1041 1.463 . S
C1044 N1048 1.427 . S
C1045 H1035 0.929 . S
C1045 C1043 1.433 . S
C1045 N1048 1.384 . S
C1046 H1037 0.929 . S
C1046 C1038 1.378 . S
C1046 C1041 1.350 . S
C1047 H1034 0.929 . S
C1047 C1039 1.433 . S
C1047 N1049 1.384 . S
N1048 C1044 1.427 . S
N1048 C1045 1.384 . S
N1049 C1041 1.427 . S
N1049 C1047 1.384 . S
H1050 C1056 0.930 . S
H1051 C1060 0.930 . S
H1052 C1065 0.929 . S
H1053 C1063 0.929 . S
H1054 C1058 0.929 . S
H1055 C1064 0.929 . S
C1056 H1050 0.930 . S
C1056 C1057 1.367 . S
C1056 C1064 1.378 . S
C1057 C1056 1.367 . S
C1057 C1065 1.433 . S
C1058 H1054 0.929 . S
C1058 C1060 1.378 . S
C1058 C1062 1.350 . S
C1059 C1062 1.463 . S
C1059 C1064 1.350 . S
C1059 N1067 1.427 . S
C1060 H1051 0.930 . S
C1060 C1058 1.378 . S
C1060 C1061 1.367 . S
C1061 C1060 1.367 . S
C1061 C1063 1.433 . S
C1062 C1058 1.350 . S
C1062 C1059 1.463 . S
C1062 N1066 1.427 . S
C1063 H1053 0.929 . S
C1063 C1061 1.433 . S
C1063 N1066 1.384 . S
C1064 H1055 0.929 . S
C1064 C1056 1.378 . S
C1064 C1059 1.350 . S
C1065 H1052 0.929 . S
C1065 C1057 1.433 . S
C1065 N1067 1.384 . S
N1066 C1062 1.427 . S
N1066 C1063 1.384 . S
N1067 C1059 1.427 . S
N1067 C1065 1.384 . S
C643 C39 1.329 . S
C647 C569 1.318 . S
C661 C92 1.467 . S
C665 C622 1.459 . S
C679 C357 1.466 . S
C683 C145 1.457 . S
C697 C198 1.322 . S
C701 C410 1.329 . S
C715 C463 1.458 . S
C719 C251 1.471 . S
C733 C516 1.467 . S
C737 C304 1.459 . S
C751 C347 1.376 . S
C755 C29 1.390 . S
C769 C400 1.379 . S
C773 C82 1.385 . S
C787 C453 1.396 . S
C791 C135 1.385 . S
C805 C188 1.380 . S
C809 C506 1.384 . S
C823 C241 1.389 . S
C827 C559 1.379 . S
C841 C294 1.396 . S
C845 C612 1.383 . S
C859 C22 2.959 . S
C863 C181 2.959 . S
C877 C75 2.955 . S
C881 C234 2.956 . S
C895 C128 2.935 . S
C899 C287 2.934 . S
C913 C499 2.951 . S
C917 C340 2.952 . S
C931 C552 2.949 . S
C935 C393 2.948 . S
C949 C605 2.927 . S
C953 C446 2.927 . S
C967 C38 2.308 . S
C971 C462 2.305 . S
C985 C515 2.429 . S
C989 C91 2.426 . S
C1003 C144 2.309 . S
C1007 C568 2.303 . S
C1021 C621 2.309 . S
C1025 C197 2.306 . S
C1039 C250 2.425 . S
C1043 C356 2.425 . S
C1057 C303 2.310 . S
C1061 C409 2.307 . S
