# Generated by pormake.
# Topology wna, (6)-cn, num edge types: 1
# Building blocks:
#     Node 0, Type 0, BuildingBlock: BETDAH_clean_sbu_0, # of connection points: 6
#     Node 1, Type 0, BuildingBlock: BETDAH_clean_sbu_0, # of connection points: 6
#     Node 2, Type 0, BuildingBlock: BETDAH_clean_sbu_0, # of connection points: 6
#     Node 3, Type 0, BuildingBlock: BETDAH_clean_sbu_0, # of connection points: 6
#     Node 4, Type 0, BuildingBlock: BETDAH_clean_sbu_0, # of connection points: 6
#     Node 5, Type 0, BuildingBlock: BETDAH_clean_sbu_0, # of connection points: 6
#     Node 6, Type 0, BuildingBlock: BETDAH_clean_sbu_0, # of connection points: 6
#     Node 7, Type 0, BuildingBlock: BETDAH_clean_sbu_0, # of connection points: 6
#     Node 8, Type 0, BuildingBlock: BETDAH_clean_sbu_0, # of connection points: 6
#     Node 9, Type 0, BuildingBlock: BETDAH_clean_sbu_0, # of connection points: 6
#     Node 10, Type 0, BuildingBlock: BETDAH_clean_sbu_0, # of connection points: 6
#     Node 11, Type 0, BuildingBlock: BETDAH_clean_sbu_0, # of connection points: 6
#     Node 12, Type 0, BuildingBlock: BETDAH_clean_sbu_0, # of connection points: 6
#     Node 13, Type 0, BuildingBlock: BETDAH_clean_sbu_0, # of connection points: 6
#     Node 14, Type 0, BuildingBlock: BETDAH_clean_sbu_0, # of connection points: 6
#     Node 15, Type 0, BuildingBlock: BETDAH_clean_sbu_0, # of connection points: 6
#     Node 16, Type 0, BuildingBlock: BETDAH_clean_sbu_0, # of connection points: 6
#     Node 17, Type 0, BuildingBlock: BETDAH_clean_sbu_0, # of connection points: 6
#     Node 18, Type 0, BuildingBlock: BETDAH_clean_sbu_0, # of connection points: 6
#     Node 19, Type 0, BuildingBlock: BETDAH_clean_sbu_0, # of connection points: 6
#     Node 20, Type 0, BuildingBlock: BETDAH_clean_sbu_0, # of connection points: 6
#     Node 21, Type 0, BuildingBlock: BETDAH_clean_sbu_0, # of connection points: 6
#     Node 22, Type 0, BuildingBlock: BETDAH_clean_sbu_0, # of connection points: 6
#     Node 23, Type 0, BuildingBlock: BETDAH_clean_sbu_0, # of connection points: 6
#     Node 24, Type 0, BuildingBlock: BETDAH_clean_sbu_0, # of connection points: 6
#     Node 25, Type 0, BuildingBlock: BETDAH_clean_sbu_0, # of connection points: 6
#     Node 26, Type 0, BuildingBlock: BETDAH_clean_sbu_0, # of connection points: 6
#     Node 27, Type 0, BuildingBlock: BETDAH_clean_sbu_0, # of connection points: 6
#     Node 28, Type 0, BuildingBlock: BETDAH_clean_sbu_0, # of connection points: 6
#     Node 29, Type 0, BuildingBlock: BETDAH_clean_sbu_0, # of connection points: 6
#     Node 30, Type 0, BuildingBlock: BETDAH_clean_sbu_0, # of connection points: 6
#     Node 31, Type 0, BuildingBlock: BETDAH_clean_sbu_0, # of connection points: 6
#     Node 32, Type 0, BuildingBlock: BETDAH_clean_sbu_0, # of connection points: 6
#     Node 33, Type 0, BuildingBlock: BETDAH_clean_sbu_0, # of connection points: 6
#     Node 34, Type 0, BuildingBlock: BETDAH_clean_sbu_0, # of connection points: 6
#     Node 35, Type 0, BuildingBlock: BETDAH_clean_sbu_0, # of connection points: 6
#     Edge 36, Type (0, 0), None
#     Edge 37, Type (0, 0), None
#     Edge 38, Type (0, 0), None
#     Edge 39, Type (0, 0), None
#     Edge 40, Type (0, 0), None
#     Edge 41, Type (0, 0), None
#     Edge 42, Type (0, 0), None
#     Edge 43, Type (0, 0), None
#     Edge 44, Type (0, 0), None
#     Edge 45, Type (0, 0), None
#     Edge 46, Type (0, 0), None
#     Edge 47, Type (0, 0), None
#     Edge 48, Type (0, 0), None
#     Edge 49, Type (0, 0), None
#     Edge 50, Type (0, 0), None
#     Edge 51, Type (0, 0), None
#     Edge 52, Type (0, 0), None
#     Edge 53, Type (0, 0), None
#     Edge 54, Type (0, 0), None
#     Edge 55, Type (0, 0), None
#     Edge 56, Type (0, 0), None
#     Edge 57, Type (0, 0), None
#     Edge 58, Type (0, 0), None
#     Edge 59, Type (0, 0), None
#     Edge 60, Type (0, 0), None
#     Edge 61, Type (0, 0), None
#     Edge 62, Type (0, 0), None
#     Edge 63, Type (0, 0), None
#     Edge 64, Type (0, 0), None
#     Edge 65, Type (0, 0), None
#     Edge 66, Type (0, 0), None
#     Edge 67, Type (0, 0), None
#     Edge 68, Type (0, 0), None
#     Edge 69, Type (0, 0), None
#     Edge 70, Type (0, 0), None
#     Edge 71, Type (0, 0), None
#     Edge 72, Type (0, 0), None
#     Edge 73, Type (0, 0), None
#     Edge 74, Type (0, 0), None
#     Edge 75, Type (0, 0), None
#     Edge 76, Type (0, 0), None
#     Edge 77, Type (0, 0), None
#     Edge 78, Type (0, 0), None
#     Edge 79, Type (0, 0), None
#     Edge 80, Type (0, 0), None
#     Edge 81, Type (0, 0), None
#     Edge 82, Type (0, 0), None
#     Edge 83, Type (0, 0), None
#     Edge 84, Type (0, 0), None
#     Edge 85, Type (0, 0), None
#     Edge 86, Type (0, 0), None
#     Edge 87, Type (0, 0), None
#     Edge 88, Type (0, 0), None
#     Edge 89, Type (0, 0), None
#     Edge 90, Type (0, 0), None
#     Edge 91, Type (0, 0), None
#     Edge 92, Type (0, 0), None
#     Edge 93, Type (0, 0), None
#     Edge 94, Type (0, 0), None
#     Edge 95, Type (0, 0), None
#     Edge 96, Type (0, 0), None
#     Edge 97, Type (0, 0), None
#     Edge 98, Type (0, 0), None
#     Edge 99, Type (0, 0), None
#     Edge 100, Type (0, 0), None
#     Edge 101, Type (0, 0), None
#     Edge 102, Type (0, 0), None
#     Edge 103, Type (0, 0), None
#     Edge 104, Type (0, 0), None
#     Edge 105, Type (0, 0), None
#     Edge 106, Type (0, 0), None
#     Edge 107, Type (0, 0), None
#     Edge 108, Type (0, 0), None
#     Edge 109, Type (0, 0), None
#     Edge 110, Type (0, 0), None
#     Edge 111, Type (0, 0), None
#     Edge 112, Type (0, 0), None
#     Edge 113, Type (0, 0), None
#     Edge 114, Type (0, 0), None
#     Edge 115, Type (0, 0), None
#     Edge 116, Type (0, 0), None
#     Edge 117, Type (0, 0), None
#     Edge 118, Type (0, 0), None
#     Edge 119, Type (0, 0), None
#     Edge 120, Type (0, 0), None
#     Edge 121, Type (0, 0), None
#     Edge 122, Type (0, 0), None
#     Edge 123, Type (0, 0), None
#     Edge 124, Type (0, 0), None
#     Edge 125, Type (0, 0), None
#     Edge 126, Type (0, 0), None
#     Edge 127, Type (0, 0), None
#     Edge 128, Type (0, 0), None
#     Edge 129, Type (0, 0), None
#     Edge 130, Type (0, 0), None
#     Edge 131, Type (0, 0), None
#     Edge 132, Type (0, 0), None
#     Edge 133, Type (0, 0), None
#     Edge 134, Type (0, 0), None
#     Edge 135, Type (0, 0), None
#     Edge 136, Type (0, 0), None
#     Edge 137, Type (0, 0), None
#     Edge 138, Type (0, 0), None
#     Edge 139, Type (0, 0), None
#     Edge 140, Type (0, 0), None
#     Edge 141, Type (0, 0), None
#     Edge 142, Type (0, 0), None
#     Edge 143, Type (0, 0), None
# Relax obj value: 0.131
# Max RMSD: 0.241
# Mean RMSD: 0.221
data_MOF--net-wna--node1-BETDAH_clean_sbu_0--edge1-none
_symmetry_space_group_name_H-M    P1
_symmetry_Int_Tables_number       1
_symmetry_cell_setting            triclinic
loop_
_symmetry_equiv_pos_as_xyz
'x, y, z'
_cell_length_a     17.812365
_cell_length_b     17.811441
_cell_length_c     106.09071
_cell_angle_alpha  89.999584
_cell_angle_beta   90.000741
_cell_angle_gamma 119.99996
loop_
_atom_site_label
_atom_site_type_symbol
_atom_site_fract_x
_atom_site_fract_y
_atom_site_fract_z
_atom_type_partial_charge
Ho0 Ho 0.15925 0.29712 0.16653 0.0
Ho1 Ho 0.15092 0.27208 0.19614 0.0
C2 C 0.3351 0.39231 0.18185 0.0
C3 C 0.15536 0.35301 0.14437 0.0
C4 C 0.19877 0.36579 0.13217 0.0
C5 C 0.22095 0.44128 0.12534 0.0
C6 C 0.24467 0.44727 0.1127 0.0
C7 C 0.24544 0.37725 0.10672 0.0
C8 C 0.2307 0.30484 0.11387 0.0
C9 C 0.208 0.29932 0.12656 0.0
C10 C 0.21142 0.18195 0.17356 0.0
C11 C 0.99484 0.13615 0.17743 0.0
C12 C 0.12541 0.21455 0.21932 0.0
C13 C 0.10588 0.2209 0.23291 0.0
C14 C 1.02375 0.16158 0.23785 0.0
C15 C 1.00684 0.1573 0.25086 0.0
C16 C 0.07167 0.21202 0.25944 0.0
C17 C 0.15365 0.27237 0.25447 0.0
C18 C 0.1706 0.27649 0.24143 0.0
C19 C 0.12052 0.39932 0.18688 0.0
O20 O 0.28937 0.40227 0.17291 0.0
O21 O 0.29656 0.33799 0.1915 0.0
O22 O 0.10548 0.27239 0.14791 0.0
O23 O 0.20078 0.40496 0.1536 0.0
O24 O 0.20999 0.20455 0.16195 0.0
O25 O 0.18781 0.22413 0.18022 0.0
O26 O 1.03873 0.14618 0.18806 0.0
O27 O 1.02135 0.19747 0.16888 0.0
O28 O 0.20218 0.26811 0.21466 0.0
O29 O 0.06356 0.19262 0.21102 0.0
O30 O 0.15765 0.4025 0.19755 0.0
O31 O 0.09585 0.32579 0.1822 0.0
H32 H 0.21434 0.49319 0.12952 0.0
H33 H 0.25488 0.50346 0.10736 0.0
H34 H 0.23133 0.25034 0.10944 0.0
H35 H 0.19228 0.24078 0.13172 0.0
H36 H 0.97287 0.11612 0.23167 0.0
H37 H 0.94351 0.10866 0.2542 0.0
H38 H 0.20536 0.31627 0.26067 0.0
H39 H 0.23514 0.32193 0.23807 0.0
Ho40 Ho 0.80804 0.88329 0.16653 0.0
Ho41 Ho 0.83305 0.89999 0.19614 0.0
C42 C 0.71288 0.96401 0.18184 0.0
C43 C 0.75218 0.82351 0.14437 0.0
C44 C 0.73939 0.85411 0.13216 0.0
C45 C 0.6639 0.8008 0.12534 0.0
C46 C 0.6579 0.8185 0.1127 0.0
C47 C 0.72791 0.88926 0.10671 0.0
C48 C 0.80034 0.94694 0.11386 0.0
C49 C 0.80587 0.92979 0.12655 0.0
C50 C 0.9233 0.0506 0.17356 0.0
C51 C 0.96897 0.87983 0.17743 0.0
C52 C 0.89057 0.93195 0.21932 0.0
C53 C 0.88419 0.90607 0.23291 0.0
C54 C 0.94349 0.88325 0.23785 0.0
C55 C 0.94775 0.87062 0.25086 0.0
C56 C 0.89302 0.88073 0.25944 0.0
C57 C 0.83268 0.90237 0.25446 0.0
C58 C 0.82859 0.9152 0.24143 0.0
C59 C 0.70579 0.74239 0.18687 0.0
O60 O 0.70293 0.90833 0.1729 0.0
O61 O 0.76717 0.97976 0.19149 0.0
O62 O 0.83279 0.85426 0.14791 0.0
O63 O 0.70022 0.81698 0.1536 0.0
O64 O 0.90064 1.0266 0.16194 0.0
O65 O 0.88107 0.98483 0.18021 0.0
O66 O 0.95895 0.9137 0.18806 0.0
O67 O 0.90765 0.845 0.16888 0.0
O68 O 0.8371 0.95528 0.21466 0.0
O69 O 0.91242 0.89195 0.21102 0.0
O70 O 0.70261 0.77635 0.19755 0.0
O71 O 0.77933 0.79122 0.1822 0.0
H72 H 0.61199 0.74229 0.12952 0.0
H73 H 0.60169 0.7725 0.10736 0.0
H74 H 0.85483 1.00205 0.10943 0.0
H75 H 0.86441 0.97262 0.13171 0.0
H76 H 0.98896 0.87782 0.23168 0.0
H77 H 0.99638 0.85591 0.25421 0.0
H78 H 0.78878 0.91018 0.26066 0.0
H79 H 0.78317 0.93432 0.23807 0.0
Ho80 Ho 0.22182 0.9459 0.16653 0.0
Ho81 Ho 0.20514 0.95423 0.19614 0.0
C82 C 0.14113 0.77004 0.18184 0.0
C83 C 0.28158 0.94979 0.14437 0.0
C84 C 0.25095 0.90639 0.13216 0.0
C85 C 0.30423 0.88417 0.12533 0.0
C86 C 0.28651 0.86045 0.1127 0.0
C87 C 0.21575 0.85972 0.10672 0.0
C88 C 0.15811 0.87451 0.11386 0.0
C89 C 0.17528 0.89721 0.12655 0.0
C90 C 1.05453 0.89386 0.17355 0.0
C91 C 0.22536 0.11035 0.17743 0.0
C92 C 0.17316 0.97978 0.21932 0.0
C93 C 0.19904 0.99928 0.23291 0.0
C94 C 0.22194 0.08143 0.23785 0.0
C95 C 0.23456 0.09833 0.25086 0.0
C96 C 0.22436 1.03346 0.25944 0.0
C97 C 0.20264 0.95146 0.25447 0.0
C98 C 0.18982 0.93452 0.24143 0.0
C99 C 0.36273 0.98455 0.18687 0.0
O100 O 0.19681 0.81576 0.1729 0.0
O101 O 0.12536 0.80858 0.19149 0.0
O102 O 0.25085 0.99968 0.14791 0.0
O103 O 0.28811 0.90437 0.15359 0.0
O104 O 0.07851 0.89517 0.16194 0.0
O105 O 0.1203 0.91741 0.18021 0.0
O106 O 0.19148 0.06646 0.18806 0.0
O107 O 0.26011 0.08381 0.16887 0.0
O108 O 0.14986 0.90298 0.21466 0.0
O109 O 0.21314 1.04163 0.21102 0.0
O110 O 0.32878 0.94743 0.19755 0.0
O111 O 0.3139 1.00926 0.1822 0.0
H112 H 0.36273 0.89075 0.12952 0.0
H113 H 0.33248 0.85021 0.10736 0.0
H114 H 0.103 0.87391 0.10943 0.0
H115 H 0.13247 0.91296 0.13171 0.0
H116 H 0.22743 0.13235 0.23167 0.0
H117 H 0.24933 0.16169 0.2542 0.0
H118 H 0.19475 0.89971 0.26066 0.0
H119 H 0.17064 0.86996 0.23807 0.0
Ho120 Ho 0.31806 0.1382 0.36639 0.0
Ho121 Ho 0.29291 0.12983 0.33678 0.0
C122 C 0.41305 0.31408 0.35107 0.0
C123 C 0.37415 0.13439 0.38853 0.0
C124 C 0.38706 0.17789 0.40073 0.0
C125 C 0.46251 0.1999 0.40756 0.0
C126 C 0.46857 0.22368 0.42019 0.0
C127 C 0.39867 0.22467 0.42618 0.0
C128 C 0.32631 0.2101 0.41903 0.0
C129 C 0.32073 0.18735 0.40634 0.0
C130 C 0.20287 0.19038 0.35937 0.0
C131 C 0.15696 0.97383 0.35551 0.0
C132 C 0.23533 0.10421 0.31361 0.0
C133 C 0.24169 0.08465 0.30001 0.0
C134 C 0.18225 1.00257 0.29507 0.0
C135 C 0.17797 0.98566 0.28207 0.0
C136 C 0.23283 0.05043 0.27348 0.0
C137 C 0.29332 0.13235 0.27846 0.0
C138 C 0.29743 0.14931 0.2915 0.0
C139 C 0.4202 0.09947 0.34603 0.0
O140 O 0.42307 0.2684 0.36 0.0
O141 O 0.35874 0.27549 0.34142 0.0
O142 O 0.29349 0.08452 0.38501 0.0
O143 O 0.42601 0.17975 0.37929 0.0
O144 O 0.22551 0.18896 0.37098 0.0
O145 O 0.24501 0.16675 0.35271 0.0
O146 O 0.16702 1.0177 0.34487 0.0
O147 O 0.21827 1.00033 0.36406 0.0
O148 O 0.28887 0.18102 0.31826 0.0
O149 O 0.21345 0.04239 0.32191 0.0
O150 O 0.42335 0.13664 0.33536 0.0
O151 O 0.34667 0.07477 0.35071 0.0
H152 H 0.51431 0.19311 0.40338 0.0
H153 H 0.52471 0.23375 0.42554 0.0
H154 H 0.27191 0.21091 0.42346 0.0
H155 H 0.26223 0.17177 0.40117 0.0
H156 H 0.13668 0.95175 0.30125 0.0
H157 H 0.12924 0.92237 0.27872 0.0
H158 H 0.33734 0.18401 0.27227 0.0
H159 H 0.34298 0.21381 0.29486 0.0
Ho160 Ho 0.96689 0.20103 0.36639 0.0
Ho161 Ho 0.97528 0.18425 0.33678 0.0
C162 C 0.79104 0.12018 0.35106 0.0
C163 C 0.97066 0.26092 0.38853 0.0
C164 C 0.92715 0.23033 0.40073 0.0
C165 C 0.90517 0.28378 0.40756 0.0
C166 C 0.88137 0.26604 0.42019 0.0
C167 C 0.88031 0.19509 0.42617 0.0
C168 C 0.89483 0.13729 0.41902 0.0
C169 C 0.91761 0.15448 0.40633 0.0
C170 C 0.9147 1.03366 0.35937 0.0
C171 C 0.13129 0.20434 0.35551 0.0
C172 C 1.00088 0.15226 0.31361 0.0
C173 C 1.02045 0.17818 0.30001 0.0
C174 C 0.10255 0.20089 0.29508 0.0
C175 C 0.11947 0.21353 0.28207 0.0
C176 C 1.05469 0.20353 0.27349 0.0
C177 C 0.97274 0.18202 0.27846 0.0
C178 C 0.95577 0.16918 0.2915 0.0
C179 C 1.00564 0.34191 0.34603 0.0
O180 O 0.83672 0.17589 0.36 0.0
O181 O 0.82963 0.10444 0.34142 0.0
O182 O 1.02053 0.23013 0.38501 0.0
O183 O 0.92533 0.26744 0.37929 0.0
O184 O 0.9161 0.05772 0.37098 0.0
O185 O 0.93834 0.09944 0.35271 0.0
O186 O 0.08744 0.17053 0.34487 0.0
O187 O 0.10475 0.23908 0.36407 0.0
O188 O 0.92409 0.12903 0.31826 0.0
O189 O 1.0627 0.19217 0.32191 0.0
O190 O 0.96849 0.3079 0.33536 0.0
O191 O 1.03033 0.29308 0.35071 0.0
H192 H 0.91202 0.34242 0.40338 0.0
H193 H 0.87134 0.31213 0.42554 0.0
H194 H 0.89396 0.08203 0.42345 0.0
H195 H 0.93315 0.11155 0.40116 0.0
H196 H 0.15339 0.20622 0.30126 0.0
H197 H 0.18278 0.22814 0.27873 0.0
H198 H 0.92107 0.17431 0.27226 0.0
H199 H 0.89126 0.15016 0.29486 0.0
Ho200 Ho 0.90408 0.78705 0.36639 0.0
Ho201 Ho 0.92083 0.81219 0.33678 0.0
C202 C 0.98499 0.69209 0.35107 0.0
C203 C 0.84421 0.73096 0.38854 0.0
C204 C 0.8748 0.71804 0.40074 0.0
C205 C 0.82137 0.6426 0.40757 0.0
C206 C 0.83911 0.63654 0.4202 0.0
C207 C 0.91003 0.70644 0.42618 0.0
C208 C 0.96781 0.77878 0.41903 0.0
C209 C 0.95062 0.78437 0.40634 0.0
C210 C 0.07139 0.90232 0.35938 0.0
C211 C 0.90072 0.94811 0.35551 0.0
C212 C 0.95277 0.86976 0.31361 0.0
C213 C 0.92685 0.86339 0.30002 0.0
C214 C 0.90413 0.92277 0.29508 0.0
C215 C 0.8915 0.92704 0.28207 0.0
C216 C 0.9015 0.87224 0.27349 0.0
C217 C 0.923 0.81181 0.27847 0.0
C218 C 0.93585 0.8077 0.2915 0.0
C219 C 0.76321 0.68487 0.34604 0.0
O220 O 0.92929 0.68206 0.36001 0.0
O221 O 1.00069 0.74639 0.34142 0.0
O222 O 0.875 0.81162 0.38502 0.0
O223 O 0.83768 0.67909 0.3793 0.0
O224 O 1.04738 0.87961 0.37099 0.0
O225 O 1.00564 0.86014 0.35271 0.0
O226 O 0.93454 0.93807 0.34487 0.0
O227 O 0.86598 0.88682 0.36406 0.0
O228 O 0.97608 0.81627 0.31826 0.0
O229 O 0.9128 0.89161 0.32191 0.0
O230 O 0.79722 0.68173 0.33537 0.0
O231 O 0.81203 0.75841 0.35072 0.0
H232 H 0.76275 0.59081 0.40339 0.0
H233 H 0.79303 0.5804 0.42554 0.0
H234 H 1.02305 0.83318 0.42345 0.0
H235 H 0.99354 0.84286 0.40117 0.0
H236 H 0.8988 0.9683 0.30125 0.0
H237 H 0.87688 0.97573 0.27872 0.0
H238 H 0.93072 0.76784 0.27227 0.0
H239 H 0.95487 0.7622 0.29486 0.0
Ho240 Ho 0.97513 0.81193 0.83677 0.0
Ho241 Ho 0.96667 0.78702 0.86637 0.0
C242 C 0.13121 0.94786 0.85547 0.0
C243 C 1.0007 0.86952 0.81359 0.0
C244 C 1.02026 0.86318 0.8 0.0
C245 C 0.10241 0.92248 0.79506 0.0
C246 C 0.11933 0.92678 0.78206 0.0
C247 C 1.0545 0.8721 0.77347 0.0
C248 C 0.9725 0.81176 0.77844 0.0
C249 C 0.95554 0.80762 0.79148 0.0
C250 C 1.00571 0.68486 0.846 0.0
C251 C 0.7909 0.69176 0.85104 0.0
C252 C 0.97037 0.73118 0.88854 0.0
C253 C 0.92678 0.71828 0.90073 0.0
C254 C 0.90458 0.64277 0.90755 0.0
C255 C 0.88072 0.63668 0.92018 0.0
C256 C 0.87983 0.70662 0.92617 0.0
C257 C 0.89456 0.77905 0.91902 0.0
C258 C 0.9174 0.78467 0.90634 0.0
C259 C 0.91449 0.90214 0.85933 0.0
O260 O 0.08735 0.93783 0.84483 0.0
O261 O 0.10461 0.88658 0.86403 0.0
O262 O 0.92393 0.81594 0.81825 0.0
O263 O 1.06253 0.89144 0.8219 0.0
O264 O 0.9686 0.68172 0.83533 0.0
O265 O 1.03024 0.75823 0.85073 0.0
O266 O 0.83661 0.68181 0.85998 0.0
O267 O 0.82947 0.74607 0.84139 0.0
O268 O 1.02018 0.81183 0.885 0.0
O269 O 0.92513 0.67921 0.8793 0.0
O270 O 0.91583 0.8795 0.87094 0.0
O271 O 0.93826 0.86009 0.85268 0.0
H272 H 0.15329 0.96792 0.80124 0.0
H273 H 0.18268 0.9754 0.77871 0.0
H274 H 0.92079 0.76789 0.77224 0.0
H275 H 0.89099 0.76221 0.79483 0.0
H276 H 0.9113 0.59092 0.90337 0.0
H277 H 0.87053 0.58047 0.92552 0.0
H278 H 0.89381 0.83349 0.92345 0.0
H279 H 0.93312 0.84322 0.90118 0.0
Ho280 Ho 0.2931 0.18421 0.83677 0.0
Ho281 Ho 0.31799 0.20066 0.86637 0.0
C282 C 0.15719 0.20441 0.85547 0.0
C283 C 0.23551 0.15223 0.81359 0.0
C284 C 0.24185 0.17811 0.8 0.0
C285 C 0.18255 0.20094 0.79506 0.0
C286 C 0.17827 0.21356 0.78205 0.0
C287 C 0.23297 0.20343 0.77347 0.0
C288 C 0.29331 0.18178 0.77844 0.0
C289 C 0.29743 0.16896 0.79148 0.0
C290 C 0.42019 0.34184 0.846 0.0
C291 C 0.41322 0.12011 0.85104 0.0
C292 C 0.37379 0.2602 0.88854 0.0
C293 C 0.38669 0.22952 0.90073 0.0
C294 C 0.46222 0.28282 0.90756 0.0
C295 C 0.46831 0.26506 0.92019 0.0
C296 C 0.39837 0.19424 0.92617 0.0
C297 C 0.32592 0.13656 0.91903 0.0
C298 C 0.32029 0.15377 0.90634 0.0
C299 C 0.20277 1.0334 0.85934 0.0
O300 O 0.16721 0.17055 0.84483 0.0
O301 O 0.21847 0.2391 0.86402 0.0
O302 O 0.28902 0.12895 0.81825 0.0
O303 O 0.21366 0.1922 0.82189 0.0
O304 O 0.42333 0.30787 0.83533 0.0
O305 O 0.34681 0.29302 0.85073 0.0
O306 O 0.42316 0.17575 0.85998 0.0
O307 O 0.35893 0.10438 0.84139 0.0
O308 O 0.29316 0.22936 0.885 0.0
O309 O 0.42578 0.26694 0.87931 0.0
O310 O 0.22548 0.05735 0.87095 0.0
O311 O 0.24488 0.09921 0.85268 0.0
H312 H 0.1371 0.20637 0.80124 0.0
H313 H 0.12964 0.22827 0.77871 0.0
H314 H 0.33719 0.17395 0.77224 0.0
H315 H 0.34285 0.14984 0.79484 0.0
H316 H 0.51407 0.34137 0.90337 0.0
H317 H 0.52453 0.31106 0.92552 0.0
H318 H 0.27148 0.08139 0.92346 0.0
H319 H 0.26173 0.11095 0.90119 0.0
Ho320 Ho 0.92082 0.12988 0.83677 0.0
Ho321 Ho 0.9044 0.13837 0.86637 0.0
C322 C 0.90059 0.97376 0.85547 0.0
C323 C 0.95279 0.10428 0.81359 0.0
C324 C 0.92692 0.08475 0.8 0.0
C325 C 0.90406 1.0026 0.79506 0.0
C326 C 0.89145 0.9857 0.78205 0.0
C327 C 0.90161 0.05054 0.77347 0.0
C328 C 0.92329 0.13254 0.77844 0.0
C329 C 0.9361 0.14949 0.79148 0.0
C330 C 0.76321 0.09938 0.84601 0.0
C331 C 0.98492 0.31413 0.85104 0.0
C332 C 0.84491 0.13468 0.88855 0.0
C333 C 0.87562 0.17827 0.90074 0.0
C334 C 0.82235 0.20053 0.90756 0.0
C335 C 0.84013 0.2244 0.92019 0.0
C336 C 0.91094 0.22525 0.92617 0.0
C337 C 0.9686 0.21046 0.91903 0.0
C338 C 0.95136 0.1876 0.90634 0.0
C339 C 0.07165 0.19041 0.85933 0.0
O340 O 0.93444 1.01762 0.84484 0.0
O341 O 0.86598 1.0004 0.86403 0.0
O342 O 0.97607 0.18108 0.81825 0.0
O343 O 0.91283 0.04245 0.8219 0.0
O344 O 0.79718 0.13648 0.83533 0.0
O345 O 0.81203 0.07482 0.85074 0.0
O346 O 0.92927 0.26843 0.85998 0.0
O347 O 1.00066 0.27555 0.84139 0.0
O348 O 0.87572 0.08485 0.88501 0.0
O349 O 0.83817 0.17992 0.87931 0.0
O350 O 1.04772 0.18919 0.87095 0.0
O351 O 1.00583 0.16669 0.85268 0.0
H352 H 0.8986 0.9517 0.80124 0.0
H353 H 0.87671 0.92235 0.77871 0.0
H354 H 0.93114 0.18427 0.77224 0.0
H355 H 0.95524 0.21404 0.79484 0.0
H356 H 0.7638 0.19385 0.90337 0.0
H357 H 0.79415 0.23464 0.92552 0.0
H358 H 1.02376 0.21116 0.92346 0.0
H359 H 0.99416 0.17183 0.90119 0.0
Ho360 Ho 0.83301 0.95421 0.69612 0.0
Ho361 Ho 0.80808 0.94575 0.66652 0.0
C362 C 0.96896 0.11027 0.67742 0.0
C363 C 0.89058 0.97979 0.7193 0.0
C364 C 0.88424 0.99935 0.73289 0.0
C365 C 0.94366 0.08144 0.73783 0.0
C366 C 0.94795 0.09835 0.75084 0.0
C367 C 0.89314 1.03357 0.75942 0.0
C368 C 0.83267 0.95163 0.75445 0.0
C369 C 0.82854 0.93468 0.74141 0.0
C370 C 0.70592 0.98477 0.68689 0.0
C371 C 0.71293 0.76995 0.68185 0.0
C372 C 0.75223 0.94949 0.64436 0.0
C373 C 0.73932 0.90594 0.63216 0.0
C374 C 0.66379 0.88372 0.62534 0.0
C375 C 0.65769 0.85991 0.61271 0.0
C376 C 0.72764 0.85908 0.60672 0.0
C377 C 0.8001 0.87384 0.61386 0.0
C378 C 0.80573 0.89664 0.62655 0.0
C379 C 0.92321 0.89358 0.67356 0.0
O380 O 0.95891 0.0664 0.68806 0.0
O381 O 0.90768 0.08369 0.66886 0.0
O382 O 0.837 0.90301 0.71465 0.0
O383 O 0.91251 1.04162 0.71099 0.0
O384 O 0.70279 0.94763 0.69756 0.0
O385 O 0.77929 1.00933 0.68216 0.0
O386 O 0.70295 0.81564 0.67291 0.0
O387 O 0.76722 0.80854 0.6915 0.0
O388 O 0.83287 0.9993 0.64789 0.0
O389 O 0.70026 0.90422 0.65359 0.0
O390 O 0.90056 0.89493 0.66194 0.0
O391 O 0.88116 0.91735 0.68021 0.0
H392 H 0.9892 0.13228 0.73166 0.0
H393 H 0.99667 0.16166 0.75419 0.0
H394 H 0.78869 0.89996 0.76064 0.0
H395 H 0.78302 0.87017 0.73805 0.0
H396 H 0.61193 0.89039 0.62953 0.0
H397 H 0.60146 0.84969 0.60738 0.0
H398 H 0.85454 0.87315 0.60942 0.0
H399 H 0.8643 0.91237 0.6317 0.0
Ho400 Ho 0.15087 0.8998 0.69613 0.0
Ho401 Ho 0.15936 0.88333 0.66652 0.0
C402 C 0.99481 0.87965 0.67742 0.0
C403 C 0.12531 0.93182 0.7193 0.0
C404 C 0.10573 0.90591 0.73289 0.0
C405 C 1.02364 0.88325 0.73783 0.0
C406 C 1.00672 0.87063 0.75084 0.0
C407 C 0.07149 0.88059 0.75942 0.0
C408 C 0.15343 0.90207 0.75445 0.0
C409 C 0.17039 0.91489 0.74141 0.0
C410 C 0.1203 0.74213 0.68689 0.0
C411 C 0.33512 0.96394 0.68186 0.0
C412 C 0.15566 0.82375 0.64436 0.0
C413 C 0.19923 0.85441 0.63216 0.0
C414 C 0.22142 0.80108 0.62534 0.0
C415 C 0.24525 0.81882 0.61271 0.0
C416 C 0.24614 0.88965 0.60672 0.0
C417 C 0.23142 0.94736 0.61387 0.0
C418 C 0.2086 0.93017 0.62655 0.0
C419 C 0.21155 0.05064 0.67356 0.0
O420 O 1.03865 0.91346 0.68806 0.0
O421 O 1.02143 0.84503 0.66886 0.0
O422 O 0.20208 0.95496 0.71465 0.0
O423 O 0.06349 0.89196 0.71099 0.0
O424 O 0.15742 0.77613 0.69757 0.0
O425 O 0.09576 0.79096 0.68216 0.0
O426 O 0.28943 0.90826 0.67292 0.0
O427 O 0.29653 0.97966 0.6915 0.0
O428 O 0.10584 0.85458 0.64789 0.0
O429 O 0.20091 0.81704 0.65359 0.0
O430 O 0.21021 1.02665 0.66195 0.0
O431 O 0.18775 0.9848 0.68021 0.0
H432 H 0.97281 0.87794 0.73165 0.0
H433 H 0.94341 0.85604 0.75418 0.0
H434 H 0.20509 0.90976 0.76065 0.0
H435 H 0.2349 0.93388 0.73805 0.0
H436 H 0.2147 0.74252 0.62953 0.0
H437 H 0.25544 0.7728 0.60738 0.0
H438 H 0.23216 1.00253 0.60943 0.0
H439 H 0.19289 0.97301 0.63171 0.0
Ho440 Ho 0.20529 0.27208 0.69612 0.0
Ho441 Ho 0.22176 0.29701 0.66652 0.0
C442 C 0.22549 0.13617 0.67742 0.0
C443 C 0.1733 0.2145 0.7193 0.0
C444 C 0.19919 0.22083 0.73289 0.0
C445 C 0.22188 0.16142 0.73783 0.0
C446 C 0.23448 0.15712 0.75084 0.0
C447 C 0.22449 0.21192 0.75942 0.0
C448 C 0.20299 0.27237 0.75445 0.0
C449 C 0.19017 0.2765 0.74141 0.0
C450 C 0.36293 0.39919 0.68689 0.0
C451 C 0.14108 0.39212 0.68185 0.0
C452 C 0.28134 0.35286 0.64435 0.0
C453 C 0.25069 0.36576 0.63216 0.0
C454 C 0.304 0.44128 0.62534 0.0
C455 C 0.28626 0.44738 0.61271 0.0
C456 C 0.21545 0.37742 0.60672 0.0
C457 C 0.15776 0.30498 0.61386 0.0
C458 C 0.17495 0.29935 0.62655 0.0
C459 C 1.05451 0.18179 0.67355 0.0
O460 O 0.19166 0.14619 0.68806 0.0
O461 O 0.26012 0.19742 0.66886 0.0
O462 O 0.15009 0.26808 0.71464 0.0
O463 O 0.2132 0.19258 0.71099 0.0
O464 O 0.32893 0.40231 0.69756 0.0
O465 O 0.31412 0.32582 0.68216 0.0
O466 O 0.19676 0.40212 0.67291 0.0
O467 O 0.12539 0.33783 0.6915 0.0
O468 O 0.25052 0.27221 0.64789 0.0
O469 O 0.28805 0.40483 0.65359 0.0
O470 O 0.07846 0.20451 0.66194 0.0
O471 O 0.12032 0.22388 0.68021 0.0
H472 H 0.22721 0.1159 0.73165 0.0
H473 H 0.24909 0.10842 0.75418 0.0
H474 H 0.19527 0.31633 0.76064 0.0
H475 H 0.17117 0.32201 0.73805 0.0
H476 H 0.36254 0.49314 0.62952 0.0
H477 H 0.33226 0.5036 0.60737 0.0
H478 H 0.1026 0.25053 0.60943 0.0
H479 H 0.13212 0.24078 0.6317 0.0
Ho480 Ho 0.82589 0.63042 0.49986 0.0
Ho481 Ho 0.81755 0.60537 0.52947 0.0
C482 C 1.00174 0.72556 0.51518 0.0
C483 C 0.82203 0.6863 0.4777 0.0
C484 C 0.86542 0.69901 0.4655 0.0
C485 C 0.88774 0.77454 0.45867 0.0
C486 C 0.91144 0.78048 0.44604 0.0
C487 C 0.91205 0.71039 0.44005 0.0
C488 C 0.89717 0.63792 0.4472 0.0
C489 C 0.8745 0.63245 0.45989 0.0
C490 C 0.87807 0.51525 0.50689 0.0
C491 C 0.66149 0.46942 0.51076 0.0
C492 C 0.79203 0.54785 0.55265 0.0
C493 C 0.77247 0.55417 0.56624 0.0
C494 C 0.69043 0.49465 0.57119 0.0
C495 C 0.67353 0.49035 0.58419 0.0
C496 C 0.73827 0.54524 0.59277 0.0
C497 C 0.82017 0.6058 0.58779 0.0
C498 C 0.83711 0.60994 0.57475 0.0
C499 C 0.78716 0.73262 0.52021 0.0
O500 O 0.95601 0.73555 0.50624 0.0
O501 O 0.96319 0.67123 0.52483 0.0
O502 O 0.77209 0.6057 0.48125 0.0
O503 O 0.86749 0.73825 0.48693 0.0
O504 O 0.87664 0.53785 0.49528 0.0
O505 O 0.85446 0.55742 0.51355 0.0
O506 O 0.70537 0.47946 0.52139 0.0
O507 O 0.688 0.53073 0.5022 0.0
O508 O 0.8688 0.60145 0.54799 0.0
O509 O 0.73019 0.52589 0.54435 0.0
O510 O 0.8243 0.7358 0.53088 0.0
O511 O 0.76248 0.65908 0.51553 0.0
H512 H 0.88125 0.82651 0.46286 0.0
H513 H 0.92175 0.83672 0.44069 0.0
H514 H 0.89768 0.58337 0.44277 0.0
H515 H 0.85868 0.57388 0.46505 0.0
H516 H 0.63962 0.44906 0.56501 0.0
H517 H 0.61027 0.44156 0.58754 0.0
H518 H 0.87181 0.64984 0.59399 0.0
H519 H 0.90159 0.65554 0.5714 0.0
Ho520 Ho 0.4747 0.21655 0.49986 0.0
Ho521 Ho 0.49972 0.23325 0.52947 0.0
C522 C 0.37959 0.29732 0.51517 0.0
C523 C 0.41884 0.15678 0.4777 0.0
C524 C 0.40612 0.18745 0.4655 0.0
C525 C 0.33061 0.13423 0.45867 0.0
C526 C 0.32465 0.15198 0.44603 0.0
C527 C 0.39472 0.22271 0.44005 0.0
C528 C 0.46718 0.28031 0.4472 0.0
C529 C 0.47266 0.26311 0.45989 0.0
C530 C 0.58997 0.38386 0.50688 0.0
C531 C 0.63566 0.21311 0.51076 0.0
C532 C 0.55724 0.26521 0.55265 0.0
C533 C 0.5509 0.23933 0.56624 0.0
C534 C 0.61039 0.21678 0.57119 0.0
C535 C 0.61468 0.20417 0.58419 0.0
C536 C 0.55978 0.21402 0.59277 0.0
C537 C 0.49923 0.23537 0.58779 0.0
C538 C 0.49511 0.24819 0.57475 0.0
C539 C 0.37246 0.07564 0.5202 0.0
O540 O 0.36961 0.24161 0.50624 0.0
O541 O 0.43389 0.31307 0.52482 0.0
O542 O 0.49943 0.18746 0.48125 0.0
O543 O 0.36689 0.1503 0.48693 0.0
O544 O 0.5673 0.35986 0.49527 0.0
O545 O 0.54774 0.3181 0.51354 0.0
O546 O 0.62562 0.24697 0.52139 0.0
O547 O 0.57434 0.17829 0.50221 0.0
O548 O 0.5037 0.28847 0.54799 0.0
O549 O 0.57914 0.22528 0.54435 0.0
O550 O 0.36928 0.10961 0.53088 0.0
O551 O 0.446 0.12447 0.51553 0.0
H552 H 0.27865 0.07574 0.46285 0.0
H553 H 0.26843 0.10605 0.44069 0.0
H554 H 0.52172 0.3354 0.44277 0.0
H555 H 0.53122 0.30587 0.46505 0.0
H556 H 0.65599 0.21157 0.56501 0.0
H557 H 0.66346 0.18969 0.58754 0.0
H558 H 0.45519 0.24297 0.59399 0.0
H559 H 0.44952 0.26708 0.57139 0.0
Ho560 Ho 0.88852 0.27921 0.49986 0.0
Ho561 Ho 0.87184 0.28756 0.52947 0.0
C562 C 0.80779 0.10336 0.51517 0.0
C563 C 0.94824 0.28307 0.4777 0.0
C564 C 0.91754 0.23969 0.46549 0.0
C565 C 0.97071 0.21734 0.45866 0.0
C566 C 0.95294 0.19364 0.44603 0.0
C567 C 0.88225 0.19307 0.44005 0.0
C568 C 0.82469 0.20798 0.44719 0.0
C569 C 0.84191 0.23065 0.45989 0.0
C570 C 0.72122 0.22716 0.50689 0.0
C571 C 0.89203 0.44366 0.51076 0.0
C572 C 0.83988 0.31311 0.55264 0.0
C573 C 0.86575 0.33264 0.56624 0.0
C574 C 0.88835 0.41471 0.57118 0.0
C575 C 0.90095 0.4316 0.58419 0.0
C576 C 0.89103 0.36682 0.59277 0.0
C577 C 0.86962 0.2849 0.58779 0.0
C578 C 0.85681 0.26797 0.57475 0.0
C579 C 1.02944 0.31788 0.5202 0.0
O580 O 0.8635 0.14908 0.50624 0.0
O581 O 0.79202 0.14191 0.52482 0.0
O582 O 0.91762 0.33304 0.48124 0.0
O583 O 0.9547 0.23758 0.48692 0.0
O584 O 0.74521 0.22848 0.49527 0.0
O585 O 0.78699 0.25072 0.51354 0.0
O586 O 0.85817 0.39978 0.52139 0.0
O587 O 0.92677 0.41712 0.5022 0.0
O588 O 0.81663 0.23632 0.54799 0.0
O589 O 0.87981 0.37495 0.54435 0.0
O590 O 0.99548 0.28075 0.53088 0.0
O591 O 0.98061 0.34259 0.51553 0.0
H592 H 1.02917 0.22381 0.46285 0.0
H593 H 0.99884 0.18331 0.44068 0.0
H594 H 0.76964 0.2075 0.44276 0.0
H595 H 0.79919 0.24649 0.46505 0.0
H596 H 0.89362 0.46554 0.56501 0.0
H597 H 0.91548 0.49488 0.58754 0.0
H598 H 0.86196 0.23323 0.59399 0.0
H599 H 0.83788 0.20348 0.57139 0.0
Ho600 Ho 0.98476 0.47136 0.69972 0.0
Ho601 Ho 0.95953 0.46305 0.67011 0.0
C602 C 0.07976 0.6473 0.6844 0.0
C603 C 1.04098 0.46748 0.72185 0.0
C604 C 1.05429 0.51114 0.73404 0.0
C605 C 0.12953 0.53246 0.74088 0.0
C606 C 0.1358 0.55639 0.75351 0.0
C607 C 0.0663 0.55823 0.75948 0.0
C608 C 0.99421 0.54435 0.75232 0.0
C609 C 0.98842 0.52145 0.73963 0.0
C610 C 0.86959 0.52358 0.69271 0.0
C611 C 0.82359 0.30705 0.68884 0.0
C612 C 0.90185 0.43741 0.64694 0.0
C613 C 0.90826 0.41793 0.63334 0.0
C614 C 0.84905 0.33577 0.6284 0.0
C615 C 0.84482 0.31889 0.6154 0.0
C616 C 0.89948 0.38377 0.60681 0.0
C617 C 0.95975 0.46577 0.61179 0.0
C618 C 0.96382 0.4827 0.62483 0.0
C619 C 0.08668 0.43251 0.67934 0.0
O620 O 0.08969 0.60163 0.69335 0.0
O621 O 1.0255 0.60873 0.67474 0.0
O622 O 0.96022 0.41789 0.71835 0.0
O623 O 0.09282 0.51258 0.71259 0.0
O624 O 0.89223 0.52214 0.70432 0.0
O625 O 0.91173 0.49996 0.68605 0.0
O626 O 0.83364 0.35095 0.67821 0.0
O627 O 0.88492 0.33351 0.69739 0.0
O628 O 0.95528 0.51423 0.6516 0.0
O629 O 0.8801 0.37559 0.65524 0.0
O630 O 0.08995 0.46984 0.66868 0.0
O631 O 1.01322 0.40789 0.68403 0.0
H632 H 0.18097 0.52501 0.7367 0.0
H633 H 0.19173 0.56591 0.75886 0.0
H634 H 0.94012 0.54582 0.75674 0.0
H635 H 0.9301 0.50641 0.73446 0.0
H636 H 0.80363 0.28484 0.63458 0.0
H637 H 0.79625 0.25552 0.61205 0.0
H638 H 1.00361 0.51752 0.6056 0.0
H639 H 1.00918 0.54726 0.62819 0.0
Ho640 Ho 0.63367 0.53436 0.69972 0.0
Ho641 Ho 0.64202 0.51747 0.67011 0.0
C642 C 0.45777 0.45348 0.6844 0.0
C643 C 0.63751 0.59445 0.72185 0.0
C644 C 0.59383 0.56408 0.73404 0.0
C645 C 0.57252 0.61802 0.74088 0.0
C646 C 0.54858 0.60035 0.75351 0.0
C647 C 0.54671 0.52899 0.75948 0.0
C648 C 0.56057 0.47076 0.75232 0.0
C649 C 0.58349 0.48789 0.73963 0.0
C650 C 0.58144 0.36698 0.69271 0.0
C651 C 0.79801 0.53754 0.68885 0.0
C652 C 0.66765 0.48543 0.64694 0.0
C653 C 0.68714 0.51134 0.63335 0.0
C654 C 0.76932 0.53436 0.62841 0.0
C655 C 0.78621 0.54702 0.6154 0.0
C656 C 0.72132 0.53674 0.60682 0.0
C657 C 0.63929 0.51492 0.61179 0.0
C658 C 0.62235 0.50206 0.62483 0.0
C659 C 0.67254 0.67515 0.67934 0.0
O660 O 0.50342 0.50907 0.69335 0.0
O661 O 0.49634 0.43777 0.67474 0.0
O662 O 0.6871 0.56327 0.71836 0.0
O663 O 0.59243 0.60121 0.7126 0.0
O664 O 0.58285 0.39105 0.70432 0.0
O665 O 0.60508 0.43275 0.68605 0.0
O666 O 0.75414 0.50371 0.67821 0.0
O667 O 0.77151 0.57234 0.6974 0.0
O668 O 0.59084 0.46205 0.6516 0.0
O669 O 0.72947 0.52549 0.65524 0.0
O670 O 0.63523 0.64111 0.66868 0.0
O671 O 0.69716 0.62631 0.68404 0.0
H672 H 0.58 0.67692 0.73671 0.0
H673 H 0.53907 0.64676 0.75886 0.0
H674 H 0.55908 0.41519 0.75674 0.0
H675 H 0.59851 0.4446 0.73446 0.0
H676 H 0.82026 0.53991 0.63459 0.0
H677 H 0.84959 0.56187 0.61205 0.0
H678 H 0.58753 0.50698 0.6056 0.0
H679 H 0.55778 0.48281 0.62819 0.0
Ho680 Ho 0.5707 0.1203 0.69972 0.0
Ho681 Ho 0.58757 0.14552 0.67011 0.0
C682 C 0.65163 1.02531 0.6844 0.0
C683 C 0.51062 0.06407 0.72186 0.0
C684 C 0.541 0.05077 0.73405 0.0
C685 C 0.48709 0.97552 0.74089 0.0
C686 C 0.50476 0.96925 0.75351 0.0
C687 C 0.5761 1.03876 0.75948 0.0
C688 C 0.63431 0.11085 0.75232 0.0
C689 C 0.61718 0.11663 0.73964 0.0
C690 C 0.73803 0.23555 0.69271 0.0
C691 C 0.56746 0.28143 0.68885 0.0
C692 C 0.61955 0.20319 0.64694 0.0
C693 C 0.59365 0.19677 0.63335 0.0
C694 C 0.57063 0.25593 0.62841 0.0
C695 C 0.55798 0.26017 0.6154 0.0
C696 C 0.56826 0.20556 0.60682 0.0
C697 C 0.59008 0.14534 0.61179 0.0
C698 C 0.60293 0.14126 0.62483 0.0
C699 C 0.42991 1.01834 0.67935 0.0
O700 O 0.59604 1.01537 0.69335 0.0
O701 O 0.6673 0.07958 0.67475 0.0
O702 O 0.5418 0.14484 0.71836 0.0
O703 O 0.50387 1.01222 0.7126 0.0
O704 O 0.714 0.21283 0.70432 0.0
O705 O 0.67227 0.19337 0.68605 0.0
O706 O 0.6013 0.2714 0.67821 0.0
O707 O 0.53267 0.22013 0.6974 0.0
O708 O 0.64299 0.1498 0.6516 0.0
O709 O 0.57946 0.22491 0.65524 0.0
O710 O 0.46395 1.01507 0.66868 0.0
O711 O 0.47874 0.09181 0.68404 0.0
H712 H 0.42819 0.92408 0.73671 0.0
H713 H 0.45836 0.91333 0.75886 0.0
H714 H 0.68987 0.16495 0.75674 0.0
H715 H 0.66046 0.17496 0.73447 0.0
H716 H 0.56507 0.30132 0.63459 0.0
H717 H 0.54312 0.30869 0.61205 0.0
H718 H 0.59802 0.10151 0.6056 0.0
H719 H 0.62219 0.09594 0.62819 0.0
Ho720 Ho 0.64173 0.14532 0.17009 0.0
Ho721 Ho 0.6333 0.12048 0.1997 0.0
C722 C 0.79784 0.28124 0.18879 0.0
C723 C 0.66726 0.20286 0.14692 0.0
C724 C 0.68683 0.19654 0.13332 0.0
C725 C 0.76896 0.25587 0.12839 0.0
C726 C 0.78589 0.26017 0.11538 0.0
C727 C 0.72109 0.20546 0.10679 0.0
C728 C 0.63911 0.14508 0.11177 0.0
C729 C 0.62213 0.14094 0.1248 0.0
C730 C 0.67248 1.01839 0.17932 0.0
C731 C 0.45755 1.02512 0.18437 0.0
C732 C 0.6371 0.06498 0.22189 0.0
C733 C 0.59379 0.05262 0.23409 0.0
C734 C 0.5707 0.97686 0.24091 0.0
C735 C 0.54709 0.97108 0.25355 0.0
C736 C 0.54735 1.04156 0.25955 0.0
C737 C 0.56299 0.11432 0.25241 0.0
C738 C 0.58558 0.11965 0.23972 0.0
C739 C 0.58113 0.2356 0.19265 0.0
O740 O 0.75395 0.27123 0.17816 0.0
O741 O 0.77125 0.21996 0.19734 0.0
O742 O 0.5905 0.14925 0.15157 0.0
O743 O 0.72909 0.22484 0.15522 0.0
O744 O 0.63521 1.01511 0.16866 0.0
O745 O 0.69693 0.09171 0.18406 0.0
O746 O 0.50328 1.01519 0.19331 0.0
O747 O 0.49608 0.07944 0.17472 0.0
O748 O 0.68718 0.14547 0.21831 0.0
O749 O 0.59153 1.01289 0.21268 0.0
O750 O 0.58251 0.21301 0.20427 0.0
O751 O 0.60489 0.19352 0.186 0.0
H752 H 0.81983 0.30134 0.13457 0.0
H753 H 0.84923 0.30883 0.11204 0.0
H754 H 0.58741 0.10118 0.10557 0.0
H755 H 0.55759 0.09549 0.12816 0.0
H756 H 0.57652 0.92452 0.23671 0.0
H757 H 0.53618 0.9146 0.25888 0.0
H758 H 0.56315 0.16918 0.25686 0.0
H759 H 0.602 0.17842 0.23457 0.0
Ho760 Ho 0.95979 0.51759 0.17009 0.0
Ho761 Ho 0.98461 0.53402 0.1997 0.0
C762 C 0.82389 0.53783 0.18878 0.0
C763 C 0.90223 0.48558 0.14692 0.0
C764 C 0.90856 0.51145 0.13332 0.0
C765 C 0.84921 0.53421 0.12838 0.0
C766 C 0.84491 0.54683 0.11538 0.0
C767 C 0.89965 0.53677 0.10679 0.0
C768 C 0.96004 0.51519 0.11177 0.0
C769 C 0.96418 0.50237 0.12481 0.0
C770 C 0.08673 0.67525 0.17932 0.0
C771 C 0.07993 0.45356 0.18438 0.0
C772 C 1.04008 0.59335 0.22189 0.0
C773 C 1.05244 0.56243 0.2341 0.0
C774 C 0.1282 0.61509 0.24091 0.0
C775 C 0.13398 0.59727 0.25355 0.0
C776 C 0.06351 0.52706 0.25955 0.0
C777 C 0.99075 0.46994 0.25242 0.0
C778 C 0.98541 0.48719 0.23972 0.0
C779 C 0.86939 0.36677 0.19266 0.0
O780 O 0.83389 0.50393 0.17815 0.0
O781 O 0.88518 0.57255 0.19734 0.0
O782 O 0.9558 0.46237 0.15157 0.0
O783 O 0.88032 0.5255 0.15522 0.0
O784 O 0.09001 0.64126 0.16866 0.0
O785 O 1.01341 0.6264 0.18406 0.0
O786 O 0.08986 0.50922 0.19331 0.0
O787 O 1.02564 0.43779 0.17473 0.0
O788 O 0.9596 0.56294 0.21831 0.0
O789 O 0.09218 0.59986 0.21268 0.0
O790 O 0.89204 0.39071 0.20427 0.0
O791 O 0.91153 0.43258 0.186 0.0
H792 H 0.80372 0.5396 0.13457 0.0
H793 H 0.79624 0.5615 0.11203 0.0
H794 H 1.00396 0.50741 0.10557 0.0
H795 H 1.00964 0.4833 0.12816 0.0
H796 H 0.18053 0.67324 0.23671 0.0
H797 H 0.19047 0.64284 0.25888 0.0
H798 H 0.93589 0.41524 0.25686 0.0
H799 H 0.92665 0.44484 0.23457 0.0
Ho800 Ho 0.58751 0.46337 0.17009 0.0
Ho801 Ho 0.57113 0.47181 0.1997 0.0
C802 C 0.56724 0.30721 0.18879 0.0
C803 C 0.61951 0.43782 0.14692 0.0
C804 C 0.59362 0.41826 0.13332 0.0
C805 C 0.57084 0.33613 0.12839 0.0
C806 C 0.55822 0.3192 0.11538 0.0
C807 C 0.5683 0.38401 0.10679 0.0
C808 C 0.58991 0.46599 0.11177 0.0
C809 C 0.60273 0.48296 0.12481 0.0
C810 C 0.42987 0.43269 0.17933 0.0
C811 C 0.65154 0.64756 0.18437 0.0
C812 C 0.51186 0.46802 0.22189 0.0
C813 C 0.54281 0.51132 0.2341 0.0
C814 C 0.49019 0.53446 0.24092 0.0
C815 C 0.50803 0.55807 0.25355 0.0
C816 C 0.57823 0.55778 0.25955 0.0
C817 C 0.63531 0.54209 0.25242 0.0
C818 C 0.61804 0.5195 0.23972 0.0
C819 C 0.73836 0.52384 0.19265 0.0
O820 O 0.60113 0.3511 0.17816 0.0
O821 O 0.5326 0.33384 0.19735 0.0
O822 O 0.6427 0.51459 0.15157 0.0
O823 O 0.57961 0.37598 0.15522 0.0
O824 O 0.46386 0.46994 0.16866 0.0
O825 O 0.47872 0.40821 0.18407 0.0
O826 O 0.59588 0.60183 0.19331 0.0
O827 O 0.66732 0.60902 0.17472 0.0
O828 O 0.54223 0.41791 0.21831 0.0
O829 O 0.50535 0.5136 0.21269 0.0
O830 O 0.71444 0.52259 0.20427 0.0
O831 O 0.67254 0.50014 0.186 0.0
H832 H 0.56544 0.28526 0.13457 0.0
H833 H 0.54354 0.25586 0.11204 0.0
H834 H 0.5977 0.51769 0.10557 0.0
H835 H 0.62181 0.5475 0.12816 0.0
H836 H 0.43205 0.52867 0.23672 0.0
H837 H 0.46249 0.56902 0.25888 0.0
H838 H 0.69 0.5419 0.25686 0.0
H839 H 0.66036 0.50305 0.23457 0.0
Ho840 Ho 0.49966 0.28753 0.02946 0.0
Ho841 Ho 0.47473 0.27905 0.99986 0.0
C842 C 0.63557 0.44361 1.01075 0.0
C843 C 0.55723 0.31314 0.05263 0.0
C844 C 0.5509 0.33273 0.06622 0.0
C845 C 0.61027 0.41485 0.07116 0.0
C846 C 0.61457 0.4318 0.08416 0.0
C847 C 0.55981 0.36701 0.09275 0.0
C848 C 0.4994 0.28504 0.08778 0.0
C849 C 0.49526 0.26805 0.07474 0.0
C850 C 0.37257 0.31809 0.02022 0.0
C851 C 0.37953 0.10328 1.01519 0.0
C852 C 0.41891 0.28273 0.97768 0.0
C853 C 0.40609 0.23918 0.96549 0.0
C854 C 0.33051 0.2168 0.95867 0.0
C855 C 0.32446 0.19297 0.94604 0.0
C856 C 0.39449 0.19228 0.94005 0.0
C857 C 0.467 0.20719 0.94719 0.0
C858 C 0.47258 0.23001 0.95988 0.0
C859 C 0.58987 0.2269 1.00689 0.0
O860 O 0.62554 0.39974 0.02139 0.0
O861 O 0.57429 0.417 1.00219 0.0
O862 O 0.50364 0.23635 0.04798 0.0
O863 O 0.57918 0.37495 0.04432 0.0
O864 O 0.36944 0.28096 0.03089 0.0
O865 O 0.44594 0.34263 1.01549 0.0
O866 O 0.36956 0.14898 1.00625 0.0
O867 O 0.43385 0.14186 0.02483 0.0
O868 O 0.49953 0.33261 0.98122 0.0
O869 O 0.36694 0.23744 0.98692 0.0
O870 O 0.56723 0.22824 0.99528 0.0
O871 O 0.54782 0.25066 1.01354 0.0
H872 H 0.65577 0.4657 0.06498 0.0
H873 H 0.66325 0.49513 0.08751 0.0
H874 H 0.45546 0.23336 0.09398 0.0
H875 H 0.44978 0.20352 0.07139 0.0
H876 H 0.27858 0.22336 0.96286 0.0
H877 H 0.2682 0.18264 0.9407 0.0
H878 H 0.5215 0.20661 0.94275 0.0
H879 H 0.53119 0.24587 0.96503 0.0
Ho880 Ho 0.81758 0.23321 0.02946 0.0
Ho881 Ho 0.82609 0.21677 0.99985 0.0
C882 C 0.6615 0.21301 1.01075 0.0
C883 C 0.792 0.26522 0.05263 0.0
C884 C 0.77239 0.2393 0.06622 0.0
C885 C 0.69027 0.21656 0.07116 0.0
C886 C 0.67333 0.20393 0.08416 0.0
C887 C 0.7381 0.21395 0.09275 0.0
C888 C 0.82007 0.23549 0.08778 0.0
C889 C 0.83706 0.24833 0.07474 0.0
C890 C 0.78702 0.07556 0.02022 0.0
C891 C 1.00182 0.29729 1.01519 0.0
C892 C 0.82245 0.15729 0.97768 0.0
C893 C 0.86602 0.18803 0.96549 0.0
C894 C 0.88839 0.13483 0.95867 0.0
C895 C 0.91222 0.15261 0.94604 0.0
C896 C 0.91291 0.22334 0.94005 0.0
C897 C 0.89801 0.28094 0.94719 0.0
C898 C 0.87519 0.2637 0.95988 0.0
C899 C 0.87827 0.38408 1.00689 0.0
O900 O 0.70534 0.24684 0.02139 0.0
O901 O 0.68815 0.17841 1.00219 0.0
O902 O 0.86877 0.28836 0.04798 0.0
O903 O 0.73018 0.22538 0.04432 0.0
O904 O 0.82412 0.10954 0.0309 0.0
O905 O 0.76249 0.12439 1.01549 0.0
O906 O 0.95612 0.24161 1.00625 0.0
O907 O 0.96324 0.31305 0.02484 0.0
O908 O 0.77257 0.18803 0.98122 0.0
O909 O 0.86773 0.1506 0.98692 0.0
O910 O 0.87694 0.36009 0.99528 0.0
O911 O 0.85447 0.31824 1.01354 0.0
H912 H 0.63944 0.21122 0.06497 0.0
H913 H 0.61 0.18929 0.0875 0.0
H914 H 0.87174 0.24323 0.09398 0.0
H915 H 0.90159 0.26737 0.07139 0.0
H916 H 0.88183 0.07634 0.96286 0.0
H917 H 0.92255 0.10668 0.9407 0.0
H918 H 0.8986 0.33603 0.94276 0.0
H919 H 0.85934 0.30645 0.96503 0.0
Ho920 Ho 0.87191 0.60547 0.02945 0.0
Ho921 Ho 0.88835 0.63039 0.99985 0.0
C922 C 0.89216 0.46959 1.01075 0.0
C923 C 0.83993 0.54788 0.05263 0.0
C924 C 0.86583 0.5542 0.06622 0.0
C925 C 0.88859 0.49484 0.07116 0.0
C926 C 0.90122 0.49054 0.08416 0.0
C927 C 0.89116 0.54528 0.09275 0.0
C928 C 0.8696 0.60568 0.08778 0.0
C929 C 0.85677 0.60983 0.07474 0.0
C930 C 1.02954 0.73258 0.02022 0.0
C931 C 0.80776 0.72556 1.01518 0.0
C932 C 0.94784 0.6862 0.97768 0.0
C933 C 0.91709 0.69899 0.96548 0.0
C934 C 0.97026 0.77456 0.95866 0.0
C935 C 0.95247 0.78058 0.94603 0.0
C936 C 0.88176 0.71052 0.94004 0.0
C937 C 0.82419 0.63802 0.94719 0.0
C938 C 0.84143 0.63246 0.95987 0.0
C939 C 0.7211 0.51516 1.00688 0.0
O940 O 0.85831 0.4796 0.02139 0.0
O941 O 0.92677 0.53084 1.00219 0.0
O942 O 0.81673 0.60147 0.04798 0.0
O943 O 0.87981 0.52595 0.04432 0.0
O944 O 0.99556 0.7357 0.03089 0.0
O945 O 0.98073 0.65921 1.01549 0.0
O946 O 0.86344 0.73555 1.00625 0.0
O947 O 0.79203 0.67124 0.02483 0.0
O948 O 0.91713 0.60559 0.98122 0.0
O949 O 0.9545 0.73818 0.98691 0.0
O950 O 0.74505 0.53788 0.99527 0.0
O951 O 0.78691 0.55726 1.01354 0.0
H952 H 0.89397 0.44936 0.06497 0.0
H953 H 0.91588 0.44186 0.08751 0.0
H954 H 0.86183 0.64961 0.09398 0.0
H955 H 0.83771 0.6553 0.07138 0.0
H956 H 1.02875 0.82651 0.96285 0.0
H957 H 0.99838 0.83685 0.94069 0.0
H958 H 0.76911 0.58349 0.94275 0.0
H959 H 0.79871 0.57386 0.96503 0.0
Ho960 Ho 0.49259 0.9637 0.83319 0.0
Ho961 Ho 0.48423 0.93865 0.8628 0.0
C962 C 0.66841 0.0589 0.84851 0.0
C963 C 0.48871 1.01943 0.81102 0.0
C964 C 0.53194 1.03178 0.79881 0.0
C965 C 0.55488 0.10746 0.79198 0.0
C966 C 0.57843 0.11319 0.77934 0.0
C967 C 0.57827 0.04273 0.77336 0.0
C968 C 0.56276 0.97004 0.7805 0.0
C969 C 0.54024 0.96478 0.79319 0.0
C970 C 0.54475 0.84852 0.84022 0.0
C971 C 0.32819 0.80271 0.84409 0.0
C972 C 0.45866 0.88109 0.88598 0.0
C973 C 0.43912 0.88744 0.89957 0.0
C974 C 0.35702 0.82804 0.90451 0.0
C975 C 0.34011 0.82376 0.91751 0.0
C976 C 0.4049 0.87857 0.9261 0.0
C977 C 0.48684 0.93901 0.92112 0.0
C978 C 0.5038 0.94312 0.90808 0.0
C979 C 0.4537 0.06578 0.85355 0.0
O980 O 0.62268 0.06887 0.83958 0.0
O981 O 0.62987 1.00456 0.85816 0.0
O982 O 0.43854 0.93894 0.81459 0.0
O983 O 0.53439 0.07142 0.82023 0.0
O984 O 0.5433 0.87111 0.82861 0.0
O985 O 0.52114 0.8907 0.84687 0.0
O986 O 0.37208 0.81274 0.85472 0.0
O987 O 0.3547 0.86404 0.83554 0.0
O988 O 0.53545 0.93463 0.88132 0.0
O989 O 0.39683 0.85919 0.87767 0.0
O990 O 0.491 0.06907 0.86422 0.0
O991 O 0.4291 0.9923 0.84886 0.0
H992 H 0.54899 0.15977 0.79618 0.0
H993 H 0.58924 0.16961 0.77401 0.0
H994 H 0.56267 0.9152 0.77606 0.0
H995 H 0.52394 0.90607 0.79835 0.0
H996 H 0.30617 0.78252 0.89833 0.0
H997 H 0.2768 0.77506 0.92086 0.0
H998 H 0.53852 0.98297 0.92732 0.0
H999 H 0.56831 0.98863 0.90473 0.0
Ho1000 Ho 0.14138 0.54987 0.83319 0.0
Ho1001 Ho 0.16641 0.56657 0.8628 0.0
C1002 C 1.04622 0.63055 0.84851 0.0
C1003 C 0.08567 0.49023 0.81102 0.0
C1004 C 0.07332 0.52109 0.79881 0.0
C1005 C 0.99764 0.46833 0.79198 0.0
C1006 C 0.9919 0.48613 0.77934 0.0
C1007 C 1.06235 0.55643 0.77335 0.0
C1008 C 0.13503 0.61363 0.78049 0.0
C1009 C 0.14031 0.59639 0.79319 0.0
C1010 C 0.25666 0.71717 0.84021 0.0
C1011 C 0.30233 0.54642 0.84409 0.0
C1012 C 0.22397 0.59853 0.88597 0.0
C1013 C 0.21759 0.57264 0.89957 0.0
C1014 C 0.27696 0.54991 0.90451 0.0
C1015 C 0.28123 0.53729 0.91752 0.0
C1016 C 0.22644 0.5473 0.9261 0.0
C1017 C 0.16602 0.56883 0.92112 0.0
C1018 C 0.16192 0.58167 0.90808 0.0
C1019 C 1.03926 0.40893 0.85355 0.0
O1020 O 1.03625 0.57487 0.83957 0.0
O1021 O 0.10052 0.64633 0.85816 0.0
O1022 O 0.16617 0.52058 0.81459 0.0
O1023 O 1.03368 0.48393 0.82023 0.0
O1024 O 0.23401 0.69317 0.8286 0.0
O1025 O 0.21442 0.65141 0.84687 0.0
O1026 O 0.29231 0.58031 0.85472 0.0
O1027 O 0.241 0.51159 0.83554 0.0
O1028 O 0.1705 0.62187 0.88132 0.0
O1029 O 0.24579 0.55852 0.87767 0.0
O1030 O 1.03596 0.44294 0.86421 0.0
O1031 O 0.11274 0.45778 0.84886 0.0
H1032 H 0.94534 0.41012 0.79617 0.0
H1033 H 0.93549 0.44051 0.774 0.0
H1034 H 0.18986 0.66838 0.77605 0.0
H1035 H 0.19901 0.63881 0.79835 0.0
H1036 H 0.32248 0.54457 0.89833 0.0
H1037 H 0.32991 0.52266 0.92087 0.0
H1038 H 0.12206 0.57657 0.92731 0.0
H1039 H 0.11643 0.6007 0.90472 0.0
Ho1040 Ho 0.55516 0.61248 0.83319 0.0
Ho1041 Ho 0.53848 0.62084 0.8628 0.0
C1042 C 0.4745 0.43665 0.84851 0.0
C1043 C 0.61476 0.61636 0.81102 0.0
C1044 C 0.58388 0.57314 0.79881 0.0
C1045 C 0.6366 0.55018 0.79198 0.0
C1046 C 0.61878 0.52663 0.77934 0.0
C1047 C 0.5485 0.52682 0.77335 0.0
C1048 C 0.49134 0.54234 0.78049 0.0
C1049 C 0.50859 0.56486 0.79319 0.0
C1050 C 0.38787 0.56045 0.84022 0.0
C1051 C 0.55868 0.77693 0.84409 0.0
C1052 C 0.50651 0.64644 0.88597 0.0
C1053 C 0.5324 0.66597 0.89957 0.0
C1054 C 0.55519 0.7481 0.90451 0.0
C1055 C 0.56781 0.765 0.91751 0.0
C1056 C 0.55772 0.70018 0.9261 0.0
C1057 C 0.53613 0.61821 0.92112 0.0
C1058 C 0.5233 0.60125 0.90808 0.0
C1059 C 0.69611 0.65131 0.85355 0.0
O1060 O 0.5302 0.48237 0.83957 0.0
O1061 O 0.45872 0.47519 0.85816 0.0
O1062 O 0.58445 0.66654 0.81459 0.0
O1063 O 0.62106 0.57067 0.82023 0.0
O1064 O 0.41186 0.56178 0.8286 0.0
O1065 O 0.45364 0.584 0.84687 0.0
O1066 O 0.52479 0.73304 0.85472 0.0
O1067 O 0.59344 0.75039 0.83553 0.0
O1068 O 0.48321 0.56963 0.88132 0.0
O1069 O 0.54649 0.70827 0.87767 0.0
O1070 O 0.66211 0.61402 0.86421 0.0
O1071 O 0.64726 0.67593 0.84886 0.0
H1072 H 0.6948 0.55606 0.79617 0.0
H1073 H 0.66438 0.51581 0.774 0.0
H1074 H 0.4366 0.54245 0.77605 0.0
H1075 H 0.4662 0.58118 0.79835 0.0
H1076 H 0.56059 0.79897 0.89833 0.0
H1077 H 0.58249 0.82834 0.92086 0.0
H1078 H 0.52834 0.5665 0.92732 0.0
H1079 H 0.50422 0.53672 0.90473 0.0
Ho1080 Ho 0.6514 0.80485 0.03304 0.0
Ho1081 Ho 0.62625 0.79652 1.00343 0.0
C1082 C 0.7465 0.98074 0.01772 0.0
C1083 C 0.70739 0.80097 0.05519 0.0
C1084 C 0.72026 0.84444 0.0674 0.0
C1085 C 0.79573 0.86656 0.07422 0.0
C1086 C 0.80178 0.89032 0.08686 0.0
C1087 C 0.73182 0.8912 0.09284 0.0
C1088 C 0.65942 0.87652 0.0857 0.0
C1089 C 0.65385 0.85378 0.073 0.0
C1090 C 0.53622 0.85703 0.02603 0.0
C1091 C 0.49034 0.64049 0.02216 0.0
C1092 C 0.56863 0.77091 0.98026 0.0
C1093 C 0.57501 0.75137 0.96667 0.0
C1094 C 0.51566 0.66926 0.96173 0.0
C1095 C 0.5114 0.65235 0.94872 0.0
C1096 C 0.56619 0.71716 0.94014 0.0
C1097 C 0.62659 0.79912 0.94512 0.0
C1098 C 0.63068 0.81607 0.95816 0.0
C1099 C 0.75339 0.76599 1.01267 0.0
O1100 O 0.75644 0.93504 0.02667 0.0
O1101 O 0.69219 0.94218 1.00807 0.0
O1102 O 0.62675 0.75112 0.05166 0.0
O1103 O 0.7593 0.84634 0.04596 0.0
O1104 O 0.55883 0.85558 0.03764 0.0
O1105 O 0.57838 0.83342 0.01937 0.0
O1106 O 0.50036 0.68438 1.01152 0.0
O1107 O 0.55167 0.66697 0.03071 0.0
O1108 O 0.62213 0.84772 0.98492 0.0
O1109 O 0.54679 0.70909 0.98856 0.0
O1110 O 0.75667 0.8033 1.00201 0.0
O1111 O 0.67993 0.74137 0.01737 0.0
H1112 H 0.84759 0.85986 0.07004 0.0
H1113 H 0.85796 0.90048 0.0922 0.0
H1114 H 0.60497 0.87724 0.09013 0.0
H1115 H 0.59532 0.83811 0.06784 0.0
H1116 H 0.47015 0.6184 0.96791 0.0
H1117 H 0.46273 0.58903 0.94538 0.0
H1118 H 0.67054 0.85081 0.93892 0.0
H1119 H 0.67615 0.8806 0.96151 0.0
Ho1120 Ho 0.30022 0.86761 0.03305 0.0
Ho1121 Ho 0.30858 0.85081 1.00343 0.0
C1122 C 0.12437 0.78687 0.01772 0.0
C1123 C 0.30407 0.92747 0.0552 0.0
C1124 C 0.26058 0.89688 0.0674 0.0
C1125 C 0.23848 0.95025 0.07422 0.0
C1126 C 0.21471 0.93254 0.08686 0.0
C1127 C 0.21381 0.86169 0.09284 0.0
C1128 C 0.22846 0.80395 0.0857 0.0
C1129 C 0.25121 0.82112 0.07301 0.0
C1130 C 0.24803 0.70025 0.02603 0.0
C1131 C 0.46462 0.87095 0.02216 0.0
C1132 C 0.33418 0.81879 0.98027 0.0
C1133 C 0.35371 0.8447 0.96667 0.0
C1134 C 0.43585 0.86755 0.96173 0.0
C1135 C 0.45276 0.88019 0.94873 0.0
C1136 C 0.38793 0.87007 0.94014 0.0
C1137 C 0.30594 0.84843 0.94512 0.0
C1138 C 0.28899 0.83557 0.95816 0.0
C1139 C 0.33911 1.00848 1.01268 0.0
O1140 O 0.17005 0.8425 0.02667 0.0
O1141 O 0.16292 0.77111 1.00807 0.0
O1142 O 0.35391 0.89666 0.05167 0.0
O1143 O 0.25873 0.93404 0.04596 0.0
O1144 O 0.24946 0.7243 0.03764 0.0
O1145 O 0.27165 0.76603 0.01937 0.0
O1146 O 0.42074 0.83709 1.01153 0.0
O1147 O 0.43809 0.90572 0.03072 0.0
O1148 O 0.25738 0.79549 0.98492 0.0
O1149 O 0.39601 0.85877 0.98857 0.0
O1150 O 0.30181 0.97447 1.00201 0.0
O1151 O 0.36371 0.95963 0.01737 0.0
H1152 H 0.24521 1.00882 0.07004 0.0
H1153 H 0.20457 0.97858 0.0922 0.0
H1154 H 0.22772 0.74877 0.09013 0.0
H1155 H 0.26686 0.77824 0.06784 0.0
H1156 H 0.48674 0.87298 0.96791 0.0
H1157 H 0.5161 0.89492 0.94538 0.0
H1158 H 0.25423 0.84061 0.93892 0.0
H1159 H 0.22445 0.81645 0.96151 0.0
Ho1160 Ho 0.23749 0.45369 0.03305 0.0
Ho1161 Ho 0.25425 0.47883 1.00344 0.0
C1162 C 0.31827 0.35862 0.01773 0.0
C1163 C 0.17766 0.39771 0.0552 0.0
C1164 C 0.20827 0.38485 0.0674 0.0
C1165 C 0.15493 0.30937 0.07423 0.0
C1166 C 0.17265 0.30334 0.08686 0.0
C1167 C 0.24348 0.37332 0.09285 0.0
C1168 C 0.30118 0.44572 0.0857 0.0
C1169 C 0.28401 0.45128 0.07301 0.0
C1170 C 0.40479 0.56896 0.02603 0.0
C1171 C 0.23409 0.61472 0.02216 0.0
C1172 C 0.28622 0.53645 0.98027 0.0
C1173 C 0.26031 0.53004 0.96667 0.0
C1174 C 0.23747 0.58934 0.96173 0.0
C1175 C 0.22483 0.59358 0.94873 0.0
C1176 C 0.23492 0.53884 0.94014 0.0
C1177 C 0.25655 0.47849 0.94512 0.0
C1178 C 0.2694 0.47441 0.95816 0.0
C1179 C 0.09662 0.35166 1.01268 0.0
O1180 O 0.26264 0.34866 0.02667 0.0
O1181 O 0.334 0.41292 1.00807 0.0
O1182 O 0.20843 0.47835 0.05167 0.0
O1183 O 0.17111 0.34579 0.04597 0.0
O1184 O 0.38079 0.54627 0.03764 0.0
O1185 O 0.33903 0.52675 0.01937 0.0
O1186 O 0.26796 0.60471 1.01153 0.0
O1187 O 0.19932 0.55342 0.03072 0.0
O1188 O 0.30959 0.483 0.98492 0.0
O1189 O 0.24619 0.55823 0.98857 0.0
O1190 O 0.13063 0.34838 1.00202 0.0
O1191 O 0.14546 0.42513 0.01737 0.0
H1192 H 0.09638 0.2575 0.07004 0.0
H1193 H 0.12664 0.24716 0.09221 0.0
H1194 H 0.35634 0.50019 0.09013 0.0
H1195 H 0.32686 0.50981 0.06785 0.0
H1196 H 0.23206 0.63482 0.96791 0.0
H1197 H 0.21012 0.64221 0.94538 0.0
H1198 H 0.26434 0.43457 0.93893 0.0
H1199 H 0.28851 0.42898 0.96152 0.0
Ho1200 Ho 0.30848 0.47867 0.50343 0.0
Ho1201 Ho 0.30007 0.45375 0.53303 0.0
C1202 C 0.46457 0.61461 0.52213 0.0
C1203 C 0.33403 0.53627 0.48026 0.0
C1204 C 0.35358 0.52995 0.46666 0.0
C1205 C 0.43564 0.5894 0.46172 0.0
C1206 C 0.45254 0.5937 0.44871 0.0
C1207 C 0.38776 0.53887 0.44013 0.0
C1208 C 0.30584 0.47838 0.44511 0.0
C1209 C 0.2889 0.47424 0.45815 0.0
C1210 C 0.33924 0.35174 0.51265 0.0
C1211 C 0.12427 0.35847 0.5177 0.0
C1212 C 0.30387 0.39801 0.5552 0.0
C1213 C 0.26034 0.38516 0.5674 0.0
C1214 C 0.23802 0.3096 0.57422 0.0
C1215 C 0.21421 0.30354 0.58685 0.0
C1216 C 0.21349 0.37356 0.59284 0.0
C1217 C 0.22835 0.44605 0.5857 0.0
C1218 C 0.25114 0.45164 0.57301 0.0
C1219 C 0.24786 0.56885 0.526 0.0
O1220 O 0.42068 0.60458 0.5115 0.0
O1221 O 0.438 0.55333 0.53069 0.0
O1222 O 0.25726 0.48269 0.48491 0.0
O1223 O 0.39587 0.55819 0.48856 0.0
O1224 O 0.30196 0.34846 0.50198 0.0
O1225 O 0.3637 0.42505 0.51739 0.0
O1226 O 0.16998 0.34857 0.52665 0.0
O1227 O 0.16282 0.41276 0.50805 0.0
O1228 O 0.35366 0.47864 0.55166 0.0
O1229 O 0.2586 0.34599 0.54597 0.0
O1230 O 0.24923 0.54624 0.53761 0.0
O1231 O 0.27163 0.5268 0.51934 0.0
H1232 H 0.48648 0.63495 0.46789 0.0
H1233 H 0.51582 0.64244 0.44536 0.0
H1234 H 0.25417 0.43439 0.43891 0.0
H1235 H 0.22441 0.4287 0.4615 0.0
H1236 H 0.24461 0.25769 0.57003 0.0
H1237 H 0.20392 0.24729 0.59219 0.0
H1238 H 0.22774 0.50054 0.59014 0.0
H1239 H 0.26695 0.51024 0.56786 0.0
Ho1240 Ho 0.62641 0.85092 0.50343 0.0
Ho1241 Ho 0.6513 0.86742 0.53303 0.0
C1242 C 0.49048 0.8711 0.52213 0.0
C1243 C 0.56881 0.8189 0.48026 0.0
C1244 C 0.57514 0.84476 0.46666 0.0
C1245 C 0.51569 0.86738 0.46172 0.0
C1246 C 0.5114 0.87998 0.44871 0.0
C1247 C 0.56625 0.87005 0.44013 0.0
C1248 C 0.62673 0.84862 0.44511 0.0
C1249 C 0.63086 0.83581 0.45815 0.0
C1250 C 0.75335 1.00858 0.51265 0.0
C1251 C 0.74655 0.78684 0.51771 0.0
C1252 C 0.70702 0.92697 0.55521 0.0
C1253 C 0.71987 0.89628 0.5674 0.0
C1254 C 0.79542 0.94953 0.57422 0.0
C1255 C 0.8015 0.93178 0.58685 0.0
C1256 C 0.7315 0.86102 0.59284 0.0
C1257 C 0.65901 0.80339 0.5857 0.0
C1258 C 0.65341 0.8206 0.57302 0.0
C1259 C 0.5361 0.70015 0.526 0.0
O1260 O 0.50051 0.83722 0.5115 0.0
O1261 O 0.55177 0.90583 0.53068 0.0
O1262 O 0.62233 0.79564 0.48491 0.0
O1263 O 0.54695 0.85887 0.48856 0.0
O1264 O 0.75663 0.97458 0.50199 0.0
O1265 O 0.68004 0.95974 0.51739 0.0
O1266 O 0.75645 0.84245 0.52666 0.0
O1267 O 0.69228 0.77113 0.50806 0.0
O1268 O 0.62639 0.89612 0.55166 0.0
O1269 O 0.75905 0.93373 0.54598 0.0
O1270 O 0.55878 0.7241 0.53761 0.0
O1271 O 0.57822 0.76596 0.51934 0.0
H1272 H 0.47014 0.87266 0.46789 0.0
H1273 H 0.46267 0.89453 0.44536 0.0
H1274 H 0.67074 0.84095 0.43891 0.0
H1275 H 0.6764 0.81686 0.46151 0.0
H1276 H 0.84733 1.00804 0.57003 0.0
H1277 H 0.85774 0.97774 0.59219 0.0
H1278 H 0.60453 0.74828 0.59014 0.0
H1279 H 0.59482 0.77781 0.56786 0.0
Ho1280 Ho 0.25415 0.79658 0.50343 0.0
Ho1281 Ho 0.23769 0.80501 0.53304 0.0
C1282 C 0.23394 0.64045 0.52213 0.0
C1283 C 0.28617 0.771 0.48026 0.0
C1284 C 0.26032 0.75148 0.46666 0.0
C1285 C 0.23767 0.66941 0.46172 0.0
C1286 C 0.22508 0.65253 0.44871 0.0
C1287 C 0.23505 0.71733 0.44013 0.0
C1288 C 0.2565 0.79925 0.44511 0.0
C1289 C 0.26931 0.81618 0.45815 0.0
C1290 C 0.09651 0.76589 0.51265 0.0
C1291 C 0.31822 0.9808 0.51771 0.0
C1292 C 0.17819 0.80122 0.55521 0.0
C1293 C 0.20891 0.84475 0.56741 0.0
C1294 C 0.15571 0.86711 0.57423 0.0
C1295 C 0.17348 0.89092 0.58686 0.0
C1296 C 0.24421 0.8916 0.59285 0.0
C1297 C 0.3018 0.8767 0.58571 0.0
C1298 C 0.28457 0.8539 0.57302 0.0
C1299 C 0.40494 0.85708 0.526 0.0
O1300 O 0.26781 0.68433 0.5115 0.0
O1301 O 0.19928 0.66706 0.53069 0.0
O1302 O 0.30943 0.84779 0.48491 0.0
O1303 O 0.2462 0.70917 0.48856 0.0
O1304 O 0.13051 0.80316 0.50199 0.0
O1305 O 0.14535 0.74141 0.5174 0.0
O1306 O 0.26261 0.9351 0.52665 0.0
O1307 O 0.33395 0.94224 0.50806 0.0
O1308 O 0.20898 0.7514 0.55167 0.0
O1309 O 0.17145 0.84651 0.54598 0.0
O1310 O 0.381 0.85583 0.53761 0.0
O1311 O 0.33912 0.83336 0.51934 0.0
H1312 H 0.23236 0.61855 0.46789 0.0
H1313 H 0.21051 0.58924 0.44536 0.0
H1314 H 0.2642 0.85094 0.43892 0.0
H1315 H 0.28828 0.88068 0.46151 0.0
H1316 H 0.09722 0.86056 0.57004 0.0
H1317 H 0.12756 0.90125 0.5922 0.0
H1318 H 0.35688 0.87727 0.59014 0.0
H1319 H 0.32732 0.83805 0.56786 0.0
Ho1320 Ho 0.16643 0.62105 0.36279 0.0
Ho1321 Ho 0.14136 0.61262 0.33319 0.0
C1322 C 0.30237 0.77707 0.34407 0.0
C1323 C 0.22414 0.64672 0.38596 0.0
C1324 C 0.21775 0.66622 0.39955 0.0
C1325 C 0.277 0.74837 0.40449 0.0
C1326 C 0.28125 0.76525 0.4175 0.0
C1327 C 0.22658 0.70038 0.42608 0.0
C1328 C 0.16629 0.61838 0.42111 0.0
C1329 C 0.16219 0.60146 0.40807 0.0
C1330 C 1.03946 0.65178 0.35359 0.0
C1331 C 1.04625 0.43676 0.34852 0.0
C1332 C 0.08525 0.61638 0.31104 0.0
C1333 C 0.07185 0.57259 0.29886 0.0
C1334 C 0.99655 0.5512 0.29203 0.0
C1335 C 0.99018 0.52718 0.27941 0.0
C1336 C 1.05964 0.52531 0.27343 0.0
C1337 C 0.13179 0.53924 0.28057 0.0
C1338 C 0.13767 0.56225 0.29326 0.0
C1339 C 0.25647 0.5604 0.34021 0.0
O1340 O 0.29232 0.73319 0.35471 0.0
O1341 O 0.24108 0.75052 0.33551 0.0
O1342 O 0.17068 0.5699 0.3813 0.0
O1343 O 0.24589 0.70853 0.37766 0.0
O1344 O 1.03621 0.61447 0.36425 0.0
O1345 O 0.11275 0.67626 0.34884 0.0
O1346 O 1.03635 0.48241 0.33956 0.0
O1347 O 0.1005 0.47536 0.35817 0.0
O1348 O 0.16603 0.66588 0.31454 0.0
O1349 O 1.03335 0.57143 0.3203 0.0
O1350 O 0.23379 0.56175 0.32859 0.0
O1351 O 0.21444 0.58419 0.34686 0.0
H1352 H 0.32243 0.79928 0.39831 0.0
H1353 H 0.32984 0.82861 0.42085 0.0
H1354 H 0.12242 0.56664 0.4273 0.0
H1355 H 0.11681 0.53691 0.40471 0.0
H1356 H 0.94514 0.55869 0.29621 0.0
H1357 H 0.93421 0.51762 0.27406 0.0
H1358 H 0.18585 0.53774 0.27615 0.0
H1359 H 0.19604 0.57734 0.29842 0.0
Ho1360 Ho 0.48407 0.56656 0.36279 0.0
Ho1361 Ho 0.49255 0.54994 0.33318 0.0
C1362 C 0.32806 0.54646 0.34407 0.0
C1363 C 0.45841 0.5986 0.38596 0.0
C1364 C 0.4389 0.57271 0.39955 0.0
C1365 C 0.35674 0.54978 0.40449 0.0
C1366 C 0.33985 0.53715 0.4175 0.0
C1367 C 0.40472 0.54736 0.42608 0.0
C1368 C 0.48672 0.56909 0.42111 0.0
C1369 C 0.50366 0.58193 0.40807 0.0
C1370 C 0.45335 0.40886 0.35358 0.0
C1371 C 0.66836 0.63064 0.34852 0.0
C1372 C 0.48884 0.49011 0.31104 0.0
C1373 C 0.53265 0.52053 0.29886 0.0
C1374 C 0.55405 0.46662 0.29203 0.0
C1375 C 0.57809 0.48429 0.2794 0.0
C1376 C 0.57997 0.55564 0.27343 0.0
C1377 C 0.56605 0.61386 0.28058 0.0
C1378 C 0.54302 0.59672 0.29326 0.0
C1379 C 0.54479 0.71728 0.34021 0.0
O1380 O 0.37191 0.58028 0.3547 0.0
O1381 O 0.35465 0.5118 0.3355 0.0
O1382 O 0.53522 0.62194 0.3813 0.0
O1383 O 0.3966 0.55858 0.37765 0.0
O1384 O 0.49063 0.4429 0.36424 0.0
O1385 O 0.42889 0.45769 0.34883 0.0
O1386 O 0.62271 0.57509 0.33957 0.0
O1387 O 0.62976 0.64631 0.35817 0.0
O1388 O 0.43933 0.52139 0.31453 0.0
O1389 O 0.53377 0.48315 0.3203 0.0
O1390 O 0.54345 0.69326 0.3286 0.0
O1391 O 0.52097 0.65145 0.34686 0.0
H1392 H 0.30583 0.54428 0.39831 0.0
H1393 H 0.27649 0.52236 0.42084 0.0
H1394 H 0.53846 0.57698 0.4273 0.0
H1395 H 0.56821 0.60111 0.40471 0.0
H1396 H 0.54655 0.40772 0.29621 0.0
H1397 H 0.58765 0.43789 0.27406 0.0
H1398 H 0.56756 0.66943 0.27615 0.0
H1399 H 0.52793 0.63999 0.29842 0.0
Ho1400 Ho 0.53859 0.93871 0.36279 0.0
Ho1401 Ho 0.5552 0.96378 0.33318 0.0
C1402 C 0.55873 0.80281 0.34407 0.0
C1403 C 0.50657 0.881 0.38595 0.0
C1404 C 0.53245 0.88738 0.39955 0.0
C1405 C 0.55538 0.82815 0.40449 0.0
C1406 C 0.56801 0.82389 0.4175 0.0
C1407 C 0.55777 0.87853 0.42608 0.0
C1408 C 0.53604 0.9388 0.42111 0.0
C1409 C 0.52321 0.94291 0.40807 0.0
C1410 C 0.69627 0.06571 0.35358 0.0
C1411 C 0.47444 0.05886 0.34852 0.0
C1412 C 0.61503 1.01989 0.31103 0.0
C1413 C 0.58461 1.03326 0.29885 0.0
C1414 C 0.6385 0.10857 0.29202 0.0
C1415 C 0.62082 0.11493 0.2794 0.0
C1416 C 0.54949 0.04545 0.27343 0.0
C1417 C 0.4913 0.9733 0.28057 0.0
C1418 C 0.50844 0.96742 0.29326 0.0
C1419 C 0.38792 0.84859 0.3402 0.0
O1420 O 0.5249 0.81283 0.35471 0.0
O1421 O 0.5934 0.86407 0.33551 0.0
O1422 O 0.48319 0.93445 0.3813 0.0
O1423 O 0.54662 0.85926 0.37765 0.0
O1424 O 0.66222 0.06895 0.36424 0.0
O1425 O 0.64745 0.99241 0.34883 0.0
O1426 O 0.52999 0.06878 0.33956 0.0
O1427 O 0.45879 1.00461 0.35817 0.0
O1428 O 0.58377 0.9391 0.31453 0.0
O1429 O 0.62198 0.07179 0.32029 0.0
O1430 O 0.41189 0.87133 0.32859 0.0
O1431 O 0.45372 0.89065 0.34686 0.0
H1432 H 0.5609 0.78275 0.39831 0.0
H1433 H 0.5828 0.77532 0.42084 0.0
H1434 H 0.52814 0.98265 0.4273 0.0
H1435 H 0.50402 0.98828 0.40471 0.0
H1436 H 0.69739 0.15999 0.2962 0.0
H1437 H 0.66721 0.17089 0.27406 0.0
H1438 H 0.43574 0.91922 0.27615 0.0
H1439 H 0.46518 0.90905 0.29842 0.0
loop_
_geom_bond_atom_site_label_1
_geom_bond_atom_site_label_2
_geom_bond_distance
_geom_bond_site_symmetry_2
_ccdc_geom_bond_type
Ho0 C3 2.811 . S
Ho0 O20 2.322 . S
Ho0 O22 2.378 . S
Ho0 O23 2.524 . S
Ho0 O24 2.381 . S
Ho0 O25 2.669 . S
Ho0 O27 2.346 . S
Ho0 O31 2.305 . S
Ho1 C12 2.811 . S
Ho1 O21 2.346 . S
Ho1 O25 2.305 . S
Ho1 O26 2.322 . S
Ho1 O28 2.378 . S
Ho1 O29 2.524 . S
Ho1 O30 2.381 . S
Ho1 O31 2.669 . S
C2 O20 1.259 . S
C2 O21 1.268 . S
C3 Ho0 2.811 . S
C3 C4 1.488 . S
C3 O22 1.215 . S
C3 O23 1.289 . S
C4 C3 1.488 . S
C4 C5 1.348 . S
C4 C9 1.413 . S
C5 C4 1.348 . S
C5 C6 1.442 . S
C5 H32 0.930 . S
C6 C5 1.442 . S
C6 C7 1.381 . S
C6 H33 0.931 . S
C7 C6 1.381 . S
C7 C8 1.321 . S
C8 C7 1.321 . S
C8 C9 1.403 . S
C8 H34 0.934 . S
C9 C4 1.413 . S
C9 C8 1.403 . S
C9 H35 0.930 . S
C10 O24 1.275 . S
C10 O25 1.256 . S
C11 O26 1.259 . S
C11 O27 1.268 . S
C12 Ho1 2.811 . S
C12 C13 1.488 . S
C12 O28 1.215 . S
C12 O29 1.289 . S
C13 C12 1.488 . S
C13 C14 1.348 . S
C13 C18 1.413 . S
C14 C13 1.348 . S
C14 C15 1.442 1_455 S
C14 H36 0.930 . S
C15 C14 1.442 1_655 S
C15 C16 1.381 . S
C15 H37 0.931 . S
C16 C15 1.381 . S
C16 C17 1.321 1_655 S
C17 C16 1.321 1_455 S
C17 C18 1.403 . S
C17 H38 0.934 . S
C18 C13 1.413 . S
C18 C17 1.403 . S
C18 H39 0.930 . S
C19 O30 1.275 . S
C19 O31 1.256 . S
O20 Ho0 2.322 . S
O20 C2 1.259 . S
O21 Ho1 2.346 . S
O21 C2 1.268 . S
O22 Ho0 2.378 . S
O22 C3 1.215 . S
O23 Ho0 2.524 . S
O23 C3 1.289 . S
O24 Ho0 2.381 . S
O24 C10 1.275 . S
O25 Ho0 2.669 . S
O25 Ho1 2.305 . S
O25 C10 1.256 . S
O26 Ho1 2.322 . S
O26 C11 1.259 . S
O27 Ho0 2.346 . S
O27 C11 1.268 . S
O28 Ho1 2.378 . S
O28 C12 1.215 . S
O29 Ho1 2.524 . S
O29 C12 1.289 . S
O30 Ho1 2.381 . S
O30 C19 1.275 . S
O31 Ho0 2.305 . S
O31 Ho1 2.669 . S
O31 C19 1.256 . S
H32 C5 0.930 . S
H33 C6 0.931 . S
H34 C8 0.934 . S
H35 C9 0.930 . S
H36 C14 0.930 . S
H37 C15 0.931 . S
H38 C17 0.934 . S
H39 C18 0.930 . S
Ho40 C43 2.811 . S
Ho40 O60 2.322 . S
Ho40 O62 2.378 . S
Ho40 O63 2.524 . S
Ho40 O64 2.381 1_565 S
Ho40 O65 2.669 1_565 S
Ho40 O67 2.346 . S
Ho40 O71 2.305 . S
Ho41 C52 2.811 . S
Ho41 O61 2.346 . S
Ho41 O65 2.305 1_565 S
Ho41 O66 2.322 . S
Ho41 O68 2.378 . S
Ho41 O69 2.524 . S
Ho41 O70 2.381 . S
Ho41 O71 2.669 . S
C42 O60 1.259 . S
C42 O61 1.268 . S
C43 Ho40 2.811 . S
C43 C44 1.488 . S
C43 O62 1.215 . S
C43 O63 1.289 . S
C44 C43 1.488 . S
C44 C45 1.348 . S
C44 C49 1.413 1_565 S
C45 C44 1.348 . S
C45 C46 1.442 . S
C45 H72 0.930 . S
C46 C45 1.442 . S
C46 C47 1.381 . S
C46 H73 0.931 . S
C47 C46 1.381 . S
C47 C48 1.321 1_565 S
C48 C47 1.321 1_545 S
C48 C49 1.403 . S
C48 H74 0.934 . S
C49 C44 1.413 1_545 S
C49 C48 1.403 . S
C49 H75 0.930 . S
C50 O64 1.275 . S
C50 O65 1.256 . S
C51 O66 1.259 . S
C51 O67 1.268 . S
C52 Ho41 2.811 . S
C52 C53 1.488 . S
C52 O68 1.215 . S
C52 O69 1.289 . S
C53 C52 1.488 . S
C53 C54 1.348 . S
C53 C58 1.413 . S
C54 C53 1.348 . S
C54 C55 1.442 . S
C54 H76 0.930 . S
C55 C54 1.442 . S
C55 C56 1.381 . S
C55 H77 0.931 . S
C56 C55 1.381 . S
C56 C57 1.321 . S
C57 C56 1.321 . S
C57 C58 1.403 . S
C57 H78 0.934 . S
C58 C53 1.413 . S
C58 C57 1.403 . S
C58 H79 0.930 . S
C59 O70 1.275 . S
C59 O71 1.256 . S
O60 Ho40 2.322 . S
O60 C42 1.259 . S
O61 Ho41 2.346 . S
O61 C42 1.268 . S
O62 Ho40 2.378 . S
O62 C43 1.215 . S
O63 Ho40 2.524 . S
O63 C43 1.289 . S
O64 Ho40 2.381 1_545 S
O64 C50 1.275 . S
O65 Ho40 2.669 1_545 S
O65 Ho41 2.305 1_545 S
O65 C50 1.256 . S
O66 Ho41 2.322 . S
O66 C51 1.259 . S
O67 Ho40 2.346 . S
O67 C51 1.268 . S
O68 Ho41 2.378 . S
O68 C52 1.215 . S
O69 Ho41 2.524 . S
O69 C52 1.289 . S
O70 Ho41 2.381 . S
O70 C59 1.275 . S
O71 Ho40 2.305 . S
O71 Ho41 2.669 . S
O71 C59 1.256 . S
H72 C45 0.930 . S
H73 C46 0.931 . S
H74 C48 0.934 . S
H75 C49 0.930 . S
H76 C54 0.930 . S
H77 C55 0.931 . S
H78 C57 0.934 . S
H79 C58 0.930 . S
Ho80 C83 2.811 . S
Ho80 O100 2.322 . S
Ho80 O102 2.378 . S
Ho80 O103 2.524 . S
Ho80 O104 2.381 1_455 S
Ho80 O105 2.669 1_455 S
Ho80 O107 2.346 . S
Ho80 O111 2.305 . S
Ho81 C92 2.811 . S
Ho81 O101 2.346 . S
Ho81 O105 2.305 1_455 S
Ho81 O106 2.322 . S
Ho81 O108 2.378 . S
Ho81 O109 2.524 . S
Ho81 O110 2.381 . S
Ho81 O111 2.669 . S
C82 O100 1.259 . S
C82 O101 1.268 . S
C83 Ho80 2.811 . S
C83 C84 1.488 . S
C83 O102 1.215 . S
C83 O103 1.289 . S
C84 C83 1.488 . S
C84 C85 1.348 . S
C84 C89 1.413 1_455 S
C85 C84 1.348 . S
C85 C86 1.442 . S
C85 H112 0.930 . S
C86 C85 1.442 . S
C86 C87 1.381 . S
C86 H113 0.931 . S
C87 C86 1.381 . S
C87 C88 1.321 1_455 S
C88 C87 1.321 1_655 S
C88 C89 1.403 . S
C88 H114 0.934 . S
C89 C84 1.413 1_655 S
C89 C88 1.403 . S
C89 H115 0.930 . S
C90 O104 1.275 . S
C90 O105 1.256 . S
C91 O106 1.259 . S
C91 O107 1.268 . S
C92 Ho81 2.811 . S
C92 C93 1.488 . S
C92 O108 1.215 . S
C92 O109 1.289 . S
C93 C92 1.488 . S
C93 C94 1.348 . S
C93 C98 1.413 . S
C94 C93 1.348 . S
C94 C95 1.442 1_565 S
C94 H116 0.930 . S
C95 C94 1.442 1_545 S
C95 C96 1.381 . S
C95 H117 0.931 . S
C96 C95 1.381 . S
C96 C97 1.321 1_545 S
C97 C96 1.321 1_565 S
C97 C98 1.403 . S
C97 H118 0.934 . S
C98 C93 1.413 . S
C98 C97 1.403 . S
C98 H119 0.930 . S
C99 O110 1.275 . S
C99 O111 1.256 . S
O100 Ho80 2.322 . S
O100 C82 1.259 . S
O101 Ho81 2.346 . S
O101 C82 1.268 . S
O102 Ho80 2.378 . S
O102 C83 1.215 . S
O103 Ho80 2.524 . S
O103 C83 1.289 . S
O104 Ho80 2.381 1_655 S
O104 C90 1.275 . S
O105 Ho80 2.669 1_655 S
O105 Ho81 2.305 1_655 S
O105 C90 1.256 . S
O106 Ho81 2.322 . S
O106 C91 1.259 . S
O107 Ho80 2.346 . S
O107 C91 1.268 . S
O108 Ho81 2.378 . S
O108 C92 1.215 . S
O109 Ho81 2.524 . S
O109 C92 1.289 . S
O110 Ho81 2.381 . S
O110 C99 1.275 . S
O111 Ho80 2.305 . S
O111 Ho81 2.669 . S
O111 C99 1.256 . S
H112 C85 0.930 . S
H113 C86 0.931 . S
H114 C88 0.934 . S
H115 C89 0.930 . S
H116 C94 0.930 . S
H117 C95 0.931 . S
H118 C97 0.934 . S
H119 C98 0.930 . S
Ho120 C123 2.811 . S
Ho120 O140 2.322 . S
Ho120 O142 2.378 . S
Ho120 O143 2.524 . S
Ho120 O144 2.381 . S
Ho120 O145 2.669 . S
Ho120 O147 2.346 . S
Ho120 O151 2.305 . S
Ho121 C132 2.811 . S
Ho121 O141 2.346 . S
Ho121 O145 2.305 . S
Ho121 O146 2.322 . S
Ho121 O148 2.378 . S
Ho121 O149 2.524 . S
Ho121 O150 2.381 . S
Ho121 O151 2.669 . S
C122 O140 1.259 . S
C122 O141 1.268 . S
C123 Ho120 2.811 . S
C123 C124 1.488 . S
C123 O142 1.215 . S
C123 O143 1.289 . S
C124 C123 1.488 . S
C124 C125 1.348 . S
C124 C129 1.413 . S
C125 C124 1.348 . S
C125 C126 1.442 . S
C125 H152 0.930 . S
C126 C125 1.442 . S
C126 C127 1.381 . S
C126 H153 0.931 . S
C127 C126 1.381 . S
C127 C128 1.321 . S
C128 C127 1.321 . S
C128 C129 1.403 . S
C128 H154 0.934 . S
C129 C124 1.413 . S
C129 C128 1.403 . S
C129 H155 0.930 . S
C130 O144 1.275 . S
C130 O145 1.256 . S
C131 O146 1.259 . S
C131 O147 1.268 . S
C132 Ho121 2.811 . S
C132 C133 1.488 . S
C132 O148 1.215 . S
C132 O149 1.289 . S
C133 C132 1.488 . S
C133 C134 1.348 . S
C133 C138 1.413 . S
C134 C133 1.348 . S
C134 C135 1.442 1_545 S
C134 H156 0.930 . S
C135 C134 1.442 1_565 S
C135 C136 1.381 . S
C135 H157 0.918 1_455 S
C136 C135 1.381 . S
C136 C137 1.321 1_565 S
C137 C136 1.321 1_545 S
C137 C138 1.403 . S
C137 H158 0.934 . S
C138 C133 1.413 . S
C138 C137 1.403 . S
C138 H159 0.930 . S
C139 O150 1.275 . S
C139 O151 1.256 . S
O140 Ho120 2.322 . S
O140 C122 1.259 . S
O141 Ho121 2.346 . S
O141 C122 1.268 . S
O142 Ho120 2.378 . S
O142 C123 1.215 . S
O143 Ho120 2.524 . S
O143 C123 1.289 . S
O144 Ho120 2.381 . S
O144 C130 1.275 . S
O145 Ho120 2.669 . S
O145 Ho121 2.305 . S
O145 C130 1.256 . S
O146 Ho121 2.322 . S
O146 C131 1.259 . S
O147 Ho120 2.346 . S
O147 C131 1.268 . S
O148 Ho121 2.378 . S
O148 C132 1.215 . S
O149 Ho121 2.524 . S
O149 C132 1.289 . S
O150 Ho121 2.381 . S
O150 C139 1.275 . S
O151 Ho120 2.305 . S
O151 Ho121 2.669 . S
O151 C139 1.256 . S
H152 C125 0.930 . S
H153 C126 0.931 . S
H154 C128 0.934 . S
H155 C129 0.930 . S
H156 C134 0.930 . S
H157 C135 0.918 1_655 S
H158 C137 0.934 . S
H159 C138 0.930 . S
Ho160 C163 2.811 . S
Ho160 O180 2.322 . S
Ho160 O182 2.378 . S
Ho160 O183 2.524 . S
Ho160 O184 2.381 1_545 S
Ho160 O185 2.664 1_545 S
Ho160 O187 2.346 . S
Ho160 O191 2.305 . S
Ho161 C172 2.811 . S
Ho161 O181 2.346 . S
Ho161 O185 2.295 1_545 S
Ho161 O186 2.322 . S
Ho161 O188 2.378 . S
Ho161 O189 2.524 . S
Ho161 O190 2.381 . S
Ho161 O191 2.669 . S
C162 O180 1.259 . S
C162 O181 1.268 . S
C163 Ho160 2.811 . S
C163 C164 1.488 . S
C163 O182 1.215 . S
C163 O183 1.289 . S
C164 C163 1.488 . S
C164 C165 1.348 . S
C164 C169 1.413 1_545 S
C165 C164 1.348 . S
C165 C166 1.442 . S
C165 H192 0.930 . S
C166 C165 1.442 . S
C166 C167 1.381 . S
C166 H193 0.931 . S
C167 C166 1.381 . S
C167 C168 1.321 1_545 S
C168 C167 1.321 1_565 S
C168 C169 1.403 . S
C168 H194 0.934 . S
C169 C164 1.413 1_565 S
C169 C168 1.403 . S
C169 H195 0.930 . S
C170 O184 1.275 . S
C170 O185 1.267 . S
C171 O186 1.259 . S
C171 O187 1.268 . S
C172 Ho161 2.811 . S
C172 C173 1.488 . S
C172 O188 1.215 . S
C172 O189 1.289 . S
C173 C172 1.488 . S
C173 C174 1.348 . S
C173 C178 1.413 . S
C174 C173 1.348 . S
C174 C175 1.442 1_655 S
C174 H196 0.930 . S
C175 C174 1.442 1_455 S
C175 C176 1.381 . S
C175 H197 0.931 . S
C176 C175 1.381 . S
C176 C177 1.321 1_455 S
C177 C176 1.321 1_655 S
C177 C178 1.403 . S
C177 H198 0.934 . S
C178 C173 1.413 . S
C178 C177 1.403 . S
C178 H199 0.930 . S
C179 O190 1.275 . S
C179 O191 1.256 . S
O180 Ho160 2.322 . S
O180 C162 1.259 . S
O181 Ho161 2.346 . S
O181 C162 1.268 . S
O182 Ho160 2.378 . S
O182 C163 1.215 . S
O183 Ho160 2.524 . S
O183 C163 1.289 . S
O184 Ho160 2.381 1_565 S
O184 C170 1.275 . S
O185 Ho160 2.664 1_565 S
O185 Ho161 2.295 1_565 S
O185 C170 1.267 . S
O186 Ho161 2.322 . S
O186 C171 1.259 . S
O187 Ho160 2.346 . S
O187 C171 1.268 . S
O188 Ho161 2.378 . S
O188 C172 1.215 . S
O189 Ho161 2.524 . S
O189 C172 1.289 . S
O190 Ho161 2.381 . S
O190 C179 1.275 . S
O191 Ho160 2.305 . S
O191 Ho161 2.669 . S
O191 C179 1.256 . S
H192 C165 0.930 . S
H193 C166 0.931 . S
H194 C168 0.934 . S
H195 C169 0.930 . S
H196 C174 0.930 . S
H197 C175 0.931 . S
H198 C177 0.934 . S
H199 C178 0.930 . S
Ho200 C203 2.811 . S
Ho200 O220 2.322 . S
Ho200 O222 2.378 . S
Ho200 O223 2.524 . S
Ho200 O224 2.381 1_655 S
Ho200 O225 2.664 1_655 S
Ho200 O227 2.346 . S
Ho200 O231 2.305 . S
Ho201 C212 2.811 . S
Ho201 O221 2.346 . S
Ho201 O225 2.300 1_655 S
Ho201 O226 2.322 . S
Ho201 O228 2.378 . S
Ho201 O229 2.524 . S
Ho201 O230 2.381 . S
Ho201 O231 2.669 . S
C202 O220 1.259 . S
C202 O221 1.268 . S
C203 Ho200 2.811 . S
C203 C204 1.488 . S
C203 O222 1.215 . S
C203 O223 1.289 . S
C204 C203 1.488 . S
C204 C205 1.348 . S
C204 C209 1.413 1_655 S
C205 C204 1.348 . S
C205 C206 1.442 . S
C205 H232 0.930 . S
C206 C205 1.442 . S
C206 C207 1.381 . S
C206 H233 0.931 . S
C207 C206 1.381 . S
C207 C208 1.321 1_655 S
C208 C207 1.321 1_455 S
C208 C209 1.403 . S
C208 H234 0.934 . S
C209 C204 1.413 1_455 S
C209 C208 1.403 . S
C209 H235 0.930 . S
C210 O224 1.275 . S
C210 O225 1.265 . S
C211 O226 1.259 . S
C211 O227 1.268 . S
C212 Ho201 2.811 . S
C212 C213 1.488 . S
C212 O228 1.215 . S
C212 O229 1.289 . S
C213 C212 1.488 . S
C213 C214 1.348 . S
C213 C218 1.413 . S
C214 C213 1.348 . S
C214 C215 1.442 . S
C214 H236 0.930 . S
C215 C214 1.442 . S
C215 C216 1.381 . S
C215 H237 0.931 1_565 S
C216 C215 1.381 . S
C216 C217 1.321 . S
C217 C216 1.321 . S
C217 C218 1.403 . S
C217 H238 0.934 . S
C218 C213 1.413 . S
C218 C217 1.403 . S
C218 H239 0.930 . S
C219 O230 1.275 . S
C219 O231 1.256 . S
O220 Ho200 2.322 . S
O220 C202 1.259 . S
O221 Ho201 2.346 . S
O221 C202 1.268 . S
O222 Ho200 2.378 . S
O222 C203 1.215 . S
O223 Ho200 2.524 . S
O223 C203 1.289 . S
O224 Ho200 2.381 1_455 S
O224 C210 1.275 . S
O225 Ho200 2.664 1_455 S
O225 Ho201 2.300 1_455 S
O225 C210 1.265 . S
O226 Ho201 2.322 . S
O226 C211 1.259 . S
O227 Ho200 2.346 . S
O227 C211 1.268 . S
O228 Ho201 2.378 . S
O228 C212 1.215 . S
O229 Ho201 2.524 . S
O229 C212 1.289 . S
O230 Ho201 2.381 . S
O230 C219 1.275 . S
O231 Ho200 2.305 . S
O231 Ho201 2.669 . S
O231 C219 1.256 . S
H232 C205 0.930 . S
H233 C206 0.931 . S
H234 C208 0.934 . S
H235 C209 0.930 . S
H236 C214 0.930 . S
H237 C215 0.931 1_545 S
H238 C217 0.934 . S
H239 C218 0.930 . S
Ho240 C243 2.811 . S
Ho240 O260 2.322 . S
Ho240 O262 2.378 . S
Ho240 O263 2.524 . S
Ho240 O264 2.381 . S
Ho240 O265 2.669 . S
Ho240 O267 2.346 . S
Ho240 O271 2.305 . S
Ho241 C252 2.811 . S
Ho241 O261 2.346 . S
Ho241 O265 2.305 . S
Ho241 O266 2.322 . S
Ho241 O268 2.378 . S
Ho241 O269 2.524 . S
Ho241 O270 2.381 . S
Ho241 O271 2.669 . S
C242 O260 1.259 . S
C242 O261 1.268 . S
C243 Ho240 2.811 . S
C243 C244 1.488 . S
C243 O262 1.215 . S
C243 O263 1.289 . S
C244 C243 1.488 . S
C244 C245 1.348 . S
C244 C249 1.413 . S
C245 C244 1.348 . S
C245 C246 1.442 1_655 S
C245 H272 0.930 . S
C246 C245 1.442 1_455 S
C246 C247 1.381 . S
C246 H273 0.931 . S
C247 C246 1.381 . S
C247 C248 1.321 1_455 S
C248 C247 1.321 1_655 S
C248 C249 1.403 . S
C248 H274 0.934 . S
C249 C244 1.413 . S
C249 C248 1.403 . S
C249 H275 0.930 . S
C250 O264 1.275 . S
C250 O265 1.256 . S
C251 O266 1.259 . S
C251 O267 1.268 . S
C252 Ho241 2.811 . S
C252 C253 1.488 . S
C252 O268 1.215 . S
C252 O269 1.289 . S
C253 C252 1.488 . S
C253 C254 1.348 . S
C253 C258 1.413 . S
C254 C253 1.348 . S
C254 C255 1.442 . S
C254 H276 0.930 . S
C255 C254 1.442 . S
C255 C256 1.381 . S
C255 H277 0.931 . S
C256 C255 1.381 . S
C256 C257 1.321 . S
C257 C256 1.321 . S
C257 C258 1.403 . S
C257 H278 0.934 . S
C258 C253 1.413 . S
C258 C257 1.403 . S
C258 H279 0.930 . S
C259 O270 1.275 . S
C259 O271 1.256 . S
O260 Ho240 2.322 . S
O260 C242 1.259 . S
O261 Ho241 2.346 . S
O261 C242 1.268 . S
O262 Ho240 2.378 . S
O262 C243 1.215 . S
O263 Ho240 2.524 . S
O263 C243 1.289 . S
O264 Ho240 2.381 . S
O264 C250 1.275 . S
O265 Ho240 2.669 . S
O265 Ho241 2.305 . S
O265 C250 1.256 . S
O266 Ho241 2.322 . S
O266 C251 1.259 . S
O267 Ho240 2.346 . S
O267 C251 1.268 . S
O268 Ho241 2.378 . S
O268 C252 1.215 . S
O269 Ho241 2.524 . S
O269 C252 1.289 . S
O270 Ho241 2.381 . S
O270 C259 1.275 . S
O271 Ho240 2.305 . S
O271 Ho241 2.669 . S
O271 C259 1.256 . S
H272 C245 0.930 . S
H273 C246 0.931 . S
H274 C248 0.934 . S
H275 C249 0.930 . S
H276 C254 0.930 . S
H277 C255 0.931 . S
H278 C257 0.934 . S
H279 C258 0.930 . S
Ho280 C283 2.811 . S
Ho280 O300 2.322 . S
Ho280 O302 2.378 . S
Ho280 O303 2.524 . S
Ho280 O304 2.381 . S
Ho280 O305 2.669 . S
Ho280 O307 2.346 . S
Ho280 O311 2.305 1_545 S
Ho281 C292 2.811 . S
Ho281 O301 2.346 . S
Ho281 O305 2.305 . S
Ho281 O306 2.322 . S
Ho281 O308 2.378 . S
Ho281 O309 2.524 . S
Ho281 O310 2.381 1_545 S
Ho281 O311 2.669 1_545 S
C282 O300 1.259 . S
C282 O301 1.268 . S
C283 Ho280 2.811 . S
C283 C284 1.488 . S
C283 O302 1.215 . S
C283 O303 1.289 . S
C284 C283 1.488 . S
C284 C285 1.348 . S
C284 C289 1.413 . S
C285 C284 1.348 . S
C285 C286 1.442 . S
C285 H312 0.930 . S
C286 C285 1.442 . S
C286 C287 1.381 . S
C286 H313 0.943 . S
C287 C286 1.381 . S
C287 C288 1.321 . S
C288 C287 1.321 . S
C288 C289 1.403 . S
C288 H314 0.934 . S
C289 C284 1.413 . S
C289 C288 1.403 . S
C289 H315 0.930 . S
C290 O304 1.275 . S
C290 O305 1.256 . S
C291 O306 1.259 . S
C291 O307 1.268 . S
C292 Ho281 2.811 . S
C292 C293 1.488 . S
C292 O308 1.215 . S
C292 O309 1.289 . S
C293 C292 1.488 . S
C293 C294 1.348 . S
C293 C298 1.413 1_545 S
C294 C293 1.348 . S
C294 C295 1.442 . S
C294 H316 0.930 . S
C295 C294 1.442 . S
C295 C296 1.381 . S
C295 H317 0.931 . S
C296 C295 1.381 . S
C296 C297 1.321 1_545 S
C297 C296 1.321 1_565 S
C297 C298 1.403 . S
C297 H318 0.934 . S
C298 C293 1.413 1_565 S
C298 C297 1.403 . S
C298 H319 0.930 . S
C299 O310 1.275 . S
C299 O311 1.256 . S
O300 Ho280 2.322 . S
O300 C282 1.259 . S
O301 Ho281 2.346 . S
O301 C282 1.268 . S
O302 Ho280 2.378 . S
O302 C283 1.215 . S
O303 Ho280 2.524 . S
O303 C283 1.289 . S
O304 Ho280 2.381 . S
O304 C290 1.275 . S
O305 Ho280 2.669 . S
O305 Ho281 2.305 . S
O305 C290 1.256 . S
O306 Ho281 2.322 . S
O306 C291 1.259 . S
O307 Ho280 2.346 . S
O307 C291 1.268 . S
O308 Ho281 2.378 . S
O308 C292 1.215 . S
O309 Ho281 2.524 . S
O309 C292 1.289 . S
O310 Ho281 2.381 1_565 S
O310 C299 1.275 . S
O311 Ho280 2.305 1_565 S
O311 Ho281 2.669 1_565 S
O311 C299 1.256 . S
H312 C285 0.930 . S
H313 C286 0.943 . S
H314 C288 0.934 . S
H315 C289 0.930 . S
H316 C294 0.930 . S
H317 C295 0.931 . S
H318 C297 0.934 . S
H319 C298 0.930 . S
Ho320 C323 2.811 . S
Ho320 O340 2.322 . S
Ho320 O342 2.378 . S
Ho320 O343 2.524 . S
Ho320 O344 2.381 . S
Ho320 O345 2.669 . S
Ho320 O347 2.346 . S
Ho320 O351 2.305 1_655 S
Ho321 C332 2.811 . S
Ho321 O341 2.346 . S
Ho321 O345 2.305 . S
Ho321 O346 2.322 . S
Ho321 O348 2.378 . S
Ho321 O349 2.524 . S
Ho321 O350 2.381 1_655 S
Ho321 O351 2.669 1_655 S
C322 O340 1.259 . S
C322 O341 1.268 . S
C323 Ho320 2.811 . S
C323 C324 1.488 . S
C323 O342 1.215 . S
C323 O343 1.289 . S
C324 C323 1.488 . S
C324 C325 1.348 . S
C324 C329 1.413 . S
C325 C324 1.348 . S
C325 C326 1.442 1_545 S
C325 H352 0.930 . S
C326 C325 1.442 1_565 S
C326 C327 1.381 . S
C326 H353 0.931 . S
C327 C326 1.381 . S
C327 C328 1.321 1_565 S
C328 C327 1.321 1_545 S
C328 C329 1.403 . S
C328 H354 0.934 . S
C329 C324 1.413 . S
C329 C328 1.403 . S
C329 H355 0.930 . S
C330 O344 1.275 . S
C330 O345 1.256 . S
C331 O346 1.259 . S
C331 O347 1.268 . S
C332 Ho321 2.811 . S
C332 C333 1.488 . S
C332 O348 1.215 . S
C332 O349 1.289 . S
C333 C332 1.488 . S
C333 C334 1.348 . S
C333 C338 1.413 1_655 S
C334 C333 1.348 . S
C334 C335 1.442 . S
C334 H356 0.930 . S
C335 C334 1.442 . S
C335 C336 1.381 . S
C335 H357 0.931 . S
C336 C335 1.381 . S
C336 C337 1.321 1_655 S
C337 C336 1.321 1_455 S
C337 C338 1.403 . S
C337 H358 0.934 . S
C338 C333 1.413 1_455 S
C338 C337 1.403 . S
C338 H359 0.930 . S
C339 O350 1.275 . S
C339 O351 1.256 . S
O340 Ho320 2.322 . S
O340 C322 1.259 . S
O341 Ho321 2.346 . S
O341 C322 1.268 . S
O342 Ho320 2.378 . S
O342 C323 1.215 . S
O343 Ho320 2.524 . S
O343 C323 1.289 . S
O344 Ho320 2.381 . S
O344 C330 1.275 . S
O345 Ho320 2.669 . S
O345 Ho321 2.305 . S
O345 C330 1.256 . S
O346 Ho321 2.322 . S
O346 C331 1.259 . S
O347 Ho320 2.346 . S
O347 C331 1.268 . S
O348 Ho321 2.378 . S
O348 C332 1.215 . S
O349 Ho321 2.524 . S
O349 C332 1.289 . S
O350 Ho321 2.381 1_455 S
O350 C339 1.275 . S
O351 Ho320 2.305 1_455 S
O351 Ho321 2.669 1_455 S
O351 C339 1.256 . S
H352 C325 0.930 . S
H353 C326 0.931 . S
H354 C328 0.934 . S
H355 C329 0.930 . S
H356 C334 0.930 . S
H357 C335 0.931 . S
H358 C337 0.934 . S
H359 C338 0.930 . S
Ho360 C363 2.811 . S
Ho360 O380 2.322 . S
Ho360 O382 2.378 . S
Ho360 O383 2.524 . S
Ho360 O384 2.381 . S
Ho360 O385 2.669 . S
Ho360 O387 2.346 . S
Ho360 O391 2.305 . S
Ho361 C372 2.811 . S
Ho361 O381 2.346 . S
Ho361 O385 2.305 . S
Ho361 O386 2.322 . S
Ho361 O388 2.378 . S
Ho361 O389 2.524 . S
Ho361 O390 2.381 . S
Ho361 O391 2.669 . S
C362 O380 1.259 . S
C362 O381 1.268 . S
C363 Ho360 2.811 . S
C363 C364 1.488 . S
C363 O382 1.215 . S
C363 O383 1.289 . S
C364 C363 1.488 . S
C364 C365 1.348 . S
C364 C369 1.413 . S
C365 C364 1.348 . S
C365 C366 1.442 1_565 S
C365 H392 0.930 . S
C366 C365 1.442 1_545 S
C366 C367 1.381 . S
C366 H393 0.920 1_655 S
C367 C366 1.381 . S
C367 C368 1.321 1_545 S
C368 C367 1.321 1_565 S
C368 C369 1.403 . S
C368 H394 0.934 . S
C369 C364 1.413 . S
C369 C368 1.403 . S
C369 H395 0.930 . S
C370 O384 1.275 . S
C370 O385 1.256 . S
C371 O386 1.259 . S
C371 O387 1.268 . S
C372 Ho361 2.811 . S
C372 C373 1.488 . S
C372 O388 1.215 . S
C372 O389 1.289 . S
C373 C372 1.488 . S
C373 C374 1.348 . S
C373 C378 1.413 . S
C374 C373 1.348 . S
C374 C375 1.442 . S
C374 H396 0.930 . S
C375 C374 1.442 . S
C375 C376 1.381 . S
C375 H397 0.931 . S
C376 C375 1.381 . S
C376 C377 1.321 . S
C377 C376 1.321 . S
C377 C378 1.403 . S
C377 H398 0.934 . S
C378 C373 1.413 . S
C378 C377 1.403 . S
C378 H399 0.930 . S
C379 O390 1.275 . S
C379 O391 1.256 . S
O380 Ho360 2.322 . S
O380 C362 1.259 . S
O381 Ho361 2.346 . S
O381 C362 1.268 . S
O382 Ho360 2.378 . S
O382 C363 1.215 . S
O383 Ho360 2.524 . S
O383 C363 1.289 . S
O384 Ho360 2.381 . S
O384 C370 1.275 . S
O385 Ho360 2.669 . S
O385 Ho361 2.305 . S
O385 C370 1.256 . S
O386 Ho361 2.322 . S
O386 C371 1.259 . S
O387 Ho360 2.346 . S
O387 C371 1.268 . S
O388 Ho361 2.378 . S
O388 C372 1.215 . S
O389 Ho361 2.524 . S
O389 C372 1.289 . S
O390 Ho361 2.381 . S
O390 C379 1.275 . S
O391 Ho360 2.305 . S
O391 Ho361 2.669 . S
O391 C379 1.256 . S
H392 C365 0.930 . S
H393 C366 0.920 1_455 S
H394 C368 0.934 . S
H395 C369 0.930 . S
H396 C374 0.930 . S
H397 C375 0.931 . S
H398 C377 0.934 . S
H399 C378 0.930 . S
Ho400 C403 2.811 . S
Ho400 O420 2.322 . S
Ho400 O422 2.378 . S
Ho400 O423 2.524 . S
Ho400 O424 2.381 . S
Ho400 O425 2.669 . S
Ho400 O427 2.346 . S
Ho400 O431 2.294 1_565 S
Ho401 C412 2.811 . S
Ho401 O421 2.346 . S
Ho401 O425 2.305 . S
Ho401 O426 2.322 . S
Ho401 O428 2.378 . S
Ho401 O429 2.524 . S
Ho401 O430 2.381 1_565 S
Ho401 O431 2.664 1_565 S
C402 O420 1.259 . S
C402 O421 1.268 . S
C403 Ho400 2.811 . S
C403 C404 1.488 . S
C403 O422 1.215 . S
C403 O423 1.289 . S
C404 C403 1.488 . S
C404 C405 1.348 . S
C404 C409 1.413 . S
C405 C404 1.348 . S
C405 C406 1.442 1_455 S
C405 H432 0.930 . S
C406 C405 1.442 1_655 S
C406 C407 1.381 . S
C406 H433 0.931 . S
C407 C406 1.381 . S
C407 C408 1.321 1_655 S
C408 C407 1.321 1_455 S
C408 C409 1.403 . S
C408 H434 0.934 . S
C409 C404 1.413 . S
C409 C408 1.403 . S
C409 H435 0.930 . S
C410 O424 1.275 . S
C410 O425 1.256 . S
C411 O426 1.259 . S
C411 O427 1.268 . S
C412 Ho401 2.811 . S
C412 C413 1.488 . S
C412 O428 1.215 . S
C412 O429 1.289 . S
C413 C412 1.488 . S
C413 C414 1.348 . S
C413 C418 1.413 1_565 S
C414 C413 1.348 . S
C414 C415 1.442 . S
C414 H436 0.930 . S
C415 C414 1.442 . S
C415 C416 1.381 . S
C415 H437 0.931 . S
C416 C415 1.381 . S
C416 C417 1.321 1_565 S
C417 C416 1.321 1_545 S
C417 C418 1.403 . S
C417 H438 0.934 . S
C418 C413 1.413 1_545 S
C418 C417 1.403 . S
C418 H439 0.930 . S
C419 O430 1.275 . S
C419 O431 1.268 . S
O420 Ho400 2.322 . S
O420 C402 1.259 . S
O421 Ho401 2.346 . S
O421 C402 1.268 . S
O422 Ho400 2.378 . S
O422 C403 1.215 . S
O423 Ho400 2.524 . S
O423 C403 1.289 . S
O424 Ho400 2.381 . S
O424 C410 1.275 . S
O425 Ho400 2.669 . S
O425 Ho401 2.305 . S
O425 C410 1.256 . S
O426 Ho401 2.322 . S
O426 C411 1.259 . S
O427 Ho400 2.346 . S
O427 C411 1.268 . S
O428 Ho401 2.378 . S
O428 C412 1.215 . S
O429 Ho401 2.524 . S
O429 C412 1.289 . S
O430 Ho401 2.381 1_545 S
O430 C419 1.275 . S
O431 Ho400 2.294 1_545 S
O431 Ho401 2.664 1_545 S
O431 C419 1.268 . S
H432 C405 0.930 . S
H433 C406 0.931 . S
H434 C408 0.934 . S
H435 C409 0.930 . S
H436 C414 0.930 . S
H437 C415 0.931 . S
H438 C417 0.934 . S
H439 C418 0.930 . S
Ho440 C443 2.811 . S
Ho440 O460 2.322 . S
Ho440 O462 2.378 . S
Ho440 O463 2.524 . S
Ho440 O464 2.381 . S
Ho440 O465 2.669 . S
Ho440 O467 2.346 . S
Ho440 O471 2.299 1_455 S
Ho441 C452 2.811 . S
Ho441 O461 2.346 . S
Ho441 O465 2.305 . S
Ho441 O466 2.322 . S
Ho441 O468 2.378 . S
Ho441 O469 2.524 . S
Ho441 O470 2.381 1_455 S
Ho441 O471 2.663 1_455 S
C442 O460 1.259 . S
C442 O461 1.268 . S
C443 Ho440 2.811 . S
C443 C444 1.488 . S
C443 O462 1.215 . S
C443 O463 1.289 . S
C444 C443 1.488 . S
C444 C445 1.348 . S
C444 C449 1.413 . S
C445 C444 1.348 . S
C445 C446 1.442 . S
C445 H472 0.930 . S
C446 C445 1.442 . S
C446 C447 1.381 . S
C446 H473 0.918 1_545 S
C447 C446 1.381 . S
C447 C448 1.321 . S
C448 C447 1.321 . S
C448 C449 1.403 . S
C448 H474 0.934 . S
C449 C444 1.413 . S
C449 C448 1.403 . S
C449 H475 0.930 . S
C450 O464 1.275 . S
C450 O465 1.256 . S
C451 O466 1.259 . S
C451 O467 1.268 . S
C452 Ho441 2.811 . S
C452 C453 1.488 . S
C452 O468 1.215 . S
C452 O469 1.289 . S
C453 C452 1.488 . S
C453 C454 1.348 . S
C453 C458 1.413 1_455 S
C454 C453 1.348 . S
C454 C455 1.442 . S
C454 H476 0.930 . S
C455 C454 1.442 . S
C455 C456 1.381 . S
C455 H477 0.931 . S
C456 C455 1.381 . S
C456 C457 1.321 1_455 S
C457 C456 1.321 1_655 S
C457 C458 1.403 . S
C457 H478 0.934 . S
C458 C453 1.413 1_655 S
C458 C457 1.403 . S
C458 H479 0.930 . S
C459 O470 1.275 . S
C459 O471 1.266 . S
O460 Ho440 2.322 . S
O460 C442 1.259 . S
O461 Ho441 2.346 . S
O461 C442 1.268 . S
O462 Ho440 2.378 . S
O462 C443 1.215 . S
O463 Ho440 2.524 . S
O463 C443 1.289 . S
O464 Ho440 2.381 . S
O464 C450 1.275 . S
O465 Ho440 2.669 . S
O465 Ho441 2.305 . S
O465 C450 1.256 . S
O466 Ho441 2.322 . S
O466 C451 1.259 . S
O467 Ho440 2.346 . S
O467 C451 1.268 . S
O468 Ho441 2.378 . S
O468 C452 1.215 . S
O469 Ho441 2.524 . S
O469 C452 1.289 . S
O470 Ho441 2.381 1_655 S
O470 C459 1.275 . S
O471 Ho440 2.299 1_655 S
O471 Ho441 2.663 1_655 S
O471 C459 1.266 . S
H472 C445 0.930 . S
H473 C446 0.918 1_565 S
H474 C448 0.934 . S
H475 C449 0.930 . S
H476 C454 0.930 . S
H477 C455 0.931 . S
H478 C457 0.934 . S
H479 C458 0.930 . S
Ho480 C483 2.811 . S
Ho480 O500 2.322 . S
Ho480 O502 2.378 . S
Ho480 O503 2.524 . S
Ho480 O504 2.381 . S
Ho480 O505 2.669 . S
Ho480 O507 2.346 . S
Ho480 O511 2.305 . S
Ho481 C492 2.811 . S
Ho481 O501 2.346 . S
Ho481 O505 2.305 . S
Ho481 O506 2.322 . S
Ho481 O508 2.378 . S
Ho481 O509 2.524 . S
Ho481 O510 2.381 . S
Ho481 O511 2.669 . S
C482 O500 1.259 . S
C482 O501 1.268 . S
C483 Ho480 2.811 . S
C483 C484 1.488 . S
C483 O502 1.215 . S
C483 O503 1.289 . S
C484 C483 1.488 . S
C484 C485 1.348 . S
C484 C489 1.413 . S
C485 C484 1.348 . S
C485 C486 1.445 . S
C485 H512 0.930 . S
C486 C485 1.445 . S
C486 C487 1.376 1_655 S
C486 H513 0.932 1_655 S
C487 C486 1.376 1_455 S
C487 C488 1.321 1_455 S
C488 C487 1.321 1_655 S
C488 C489 1.403 . S
C488 H514 0.934 . S
C489 C484 1.413 . S
C489 C488 1.403 . S
C489 H515 0.930 . S
C490 O504 1.275 . S
C490 O505 1.256 . S
C491 O506 1.259 . S
C491 O507 1.268 . S
C492 Ho481 2.811 . S
C492 C493 1.488 . S
C492 O508 1.215 . S
C492 O509 1.289 . S
C493 C492 1.488 . S
C493 C494 1.348 . S
C493 C498 1.413 . S
C494 C493 1.348 . S
C494 C495 1.442 . S
C494 H516 0.930 . S
C495 C494 1.442 . S
C495 C496 1.381 . S
C495 H517 0.931 . S
C496 C495 1.381 . S
C496 C497 1.321 . S
C497 C496 1.321 . S
C497 C498 1.403 . S
C497 H518 0.934 . S
C498 C493 1.413 . S
C498 C497 1.403 . S
C498 H519 0.930 . S
C499 O510 1.275 . S
C499 O511 1.256 . S
O500 Ho480 2.322 . S
O500 C482 1.259 . S
O501 Ho481 2.346 . S
O501 C482 1.268 . S
O502 Ho480 2.378 . S
O502 C483 1.215 . S
O503 Ho480 2.524 . S
O503 C483 1.289 . S
O504 Ho480 2.381 . S
O504 C490 1.275 . S
O505 Ho480 2.669 . S
O505 Ho481 2.305 . S
O505 C490 1.256 . S
O506 Ho481 2.322 . S
O506 C491 1.259 . S
O507 Ho480 2.346 . S
O507 C491 1.268 . S
O508 Ho481 2.378 . S
O508 C492 1.215 . S
O509 Ho481 2.524 . S
O509 C492 1.289 . S
O510 Ho481 2.381 . S
O510 C499 1.275 . S
O511 Ho480 2.305 . S
O511 Ho481 2.669 . S
O511 C499 1.256 . S
H512 C485 0.930 . S
H513 C486 0.932 1_455 S
H514 C488 0.934 . S
H515 C489 0.930 . S
H516 C494 0.930 . S
H517 C495 0.931 . S
H518 C497 0.934 . S
H519 C498 0.930 . S
Ho520 C523 2.811 . S
Ho520 O540 2.322 . S
Ho520 O542 2.378 . S
Ho520 O543 2.524 . S
Ho520 O544 2.381 . S
Ho520 O545 2.669 . S
Ho520 O547 2.346 . S
Ho520 O551 2.305 . S
Ho521 C532 2.811 . S
Ho521 O541 2.346 . S
Ho521 O545 2.305 . S
Ho521 O546 2.322 . S
Ho521 O548 2.378 . S
Ho521 O549 2.524 . S
Ho521 O550 2.381 . S
Ho521 O551 2.669 . S
C522 O540 1.259 . S
C522 O541 1.268 . S
C523 Ho520 2.811 . S
C523 C524 1.488 . S
C523 O542 1.215 . S
C523 O543 1.289 . S
C524 C523 1.488 . S
C524 C525 1.348 . S
C524 C529 1.413 . S
C525 C524 1.348 . S
C525 C526 1.442 . S
C525 H552 0.930 . S
C526 C525 1.442 . S
C526 C527 1.381 . S
C526 H553 0.931 . S
C527 C526 1.381 . S
C527 C528 1.321 . S
C528 C527 1.321 . S
C528 C529 1.403 . S
C528 H554 0.934 . S
C529 C524 1.413 . S
C529 C528 1.403 . S
C529 H555 0.930 . S
C530 O544 1.275 . S
C530 O545 1.256 . S
C531 O546 1.259 . S
C531 O547 1.268 . S
C532 Ho521 2.811 . S
C532 C533 1.488 . S
C532 O548 1.215 . S
C532 O549 1.289 . S
C533 C532 1.488 . S
C533 C534 1.348 . S
C533 C538 1.413 . S
C534 C533 1.348 . S
C534 C535 1.442 . S
C534 H556 0.930 . S
C535 C534 1.442 . S
C535 C536 1.381 . S
C535 H557 0.931 . S
C536 C535 1.381 . S
C536 C537 1.321 . S
C537 C536 1.321 . S
C537 C538 1.403 . S
C537 H558 0.934 . S
C538 C533 1.413 . S
C538 C537 1.403 . S
C538 H559 0.930 . S
C539 O550 1.275 . S
C539 O551 1.256 . S
O540 Ho520 2.322 . S
O540 C522 1.259 . S
O541 Ho521 2.346 . S
O541 C522 1.268 . S
O542 Ho520 2.378 . S
O542 C523 1.215 . S
O543 Ho520 2.524 . S
O543 C523 1.289 . S
O544 Ho520 2.381 . S
O544 C530 1.275 . S
O545 Ho520 2.669 . S
O545 Ho521 2.305 . S
O545 C530 1.256 . S
O546 Ho521 2.322 . S
O546 C531 1.259 . S
O547 Ho520 2.346 . S
O547 C531 1.268 . S
O548 Ho521 2.378 . S
O548 C532 1.215 . S
O549 Ho521 2.524 . S
O549 C532 1.289 . S
O550 Ho521 2.381 . S
O550 C539 1.275 . S
O551 Ho520 2.305 . S
O551 Ho521 2.669 . S
O551 C539 1.256 . S
H552 C525 0.930 . S
H553 C526 0.931 . S
H554 C528 0.934 . S
H555 C529 0.930 . S
H556 C534 0.930 . S
H557 C535 0.931 . S
H558 C537 0.934 . S
H559 C538 0.930 . S
Ho560 C563 2.811 . S
Ho560 O580 2.322 . S
Ho560 O582 2.378 . S
Ho560 O583 2.524 . S
Ho560 O584 2.381 . S
Ho560 O585 2.669 . S
Ho560 O587 2.346 . S
Ho560 O591 2.305 . S
Ho561 C572 2.811 . S
Ho561 O581 2.346 . S
Ho561 O585 2.305 . S
Ho561 O586 2.322 . S
Ho561 O588 2.378 . S
Ho561 O589 2.524 . S
Ho561 O590 2.381 . S
Ho561 O591 2.669 . S
C562 O580 1.259 . S
C562 O581 1.268 . S
C563 Ho560 2.811 . S
C563 C564 1.488 . S
C563 O582 1.215 . S
C563 O583 1.289 . S
C564 C563 1.488 . S
C564 C565 1.348 . S
C564 C569 1.413 . S
C565 C564 1.348 . S
C565 C566 1.446 . S
C565 H592 0.930 . S
C566 C565 1.446 . S
C566 C567 1.383 1_545 S
C566 H593 0.924 1_545 S
C567 C566 1.383 1_565 S
C567 C568 1.321 1_565 S
C568 C567 1.321 1_545 S
C568 C569 1.403 . S
C568 H594 0.934 . S
C569 C564 1.413 . S
C569 C568 1.403 . S
C569 H595 0.930 . S
C570 O584 1.275 . S
C570 O585 1.256 . S
C571 O586 1.259 . S
C571 O587 1.268 . S
C572 Ho561 2.811 . S
C572 C573 1.488 . S
C572 O588 1.215 . S
C572 O589 1.289 . S
C573 C572 1.488 . S
C573 C574 1.348 . S
C573 C578 1.413 . S
C574 C573 1.348 . S
C574 C575 1.442 . S
C574 H596 0.930 . S
C575 C574 1.442 . S
C575 C576 1.381 . S
C575 H597 0.931 . S
C576 C575 1.381 . S
C576 C577 1.321 . S
C577 C576 1.321 . S
C577 C578 1.403 . S
C577 H598 0.934 . S
C578 C573 1.413 . S
C578 C577 1.403 . S
C578 H599 0.930 . S
C579 O590 1.275 . S
C579 O591 1.256 . S
O580 Ho560 2.322 . S
O580 C562 1.259 . S
O581 Ho561 2.346 . S
O581 C562 1.268 . S
O582 Ho560 2.378 . S
O582 C563 1.215 . S
O583 Ho560 2.524 . S
O583 C563 1.289 . S
O584 Ho560 2.381 . S
O584 C570 1.275 . S
O585 Ho560 2.669 . S
O585 Ho561 2.305 . S
O585 C570 1.256 . S
O586 Ho561 2.322 . S
O586 C571 1.259 . S
O587 Ho560 2.346 . S
O587 C571 1.268 . S
O588 Ho561 2.378 . S
O588 C572 1.215 . S
O589 Ho561 2.524 . S
O589 C572 1.289 . S
O590 Ho561 2.381 . S
O590 C579 1.275 . S
O591 Ho560 2.305 . S
O591 Ho561 2.669 . S
O591 C579 1.256 . S
H592 C565 0.930 . S
H593 C566 0.924 1_565 S
H594 C568 0.934 . S
H595 C569 0.930 . S
H596 C574 0.930 . S
H597 C575 0.931 . S
H598 C577 0.934 . S
H599 C578 0.930 . S
Ho600 C603 2.811 . S
Ho600 O620 2.322 . S
Ho600 O622 2.378 . S
Ho600 O623 2.524 1_655 S
Ho600 O624 2.381 . S
Ho600 O625 2.669 . S
Ho600 O627 2.346 . S
Ho600 O631 2.305 . S
Ho601 C612 2.811 . S
Ho601 O621 2.346 1_655 S
Ho601 O625 2.305 . S
Ho601 O626 2.322 . S
Ho601 O628 2.378 . S
Ho601 O629 2.524 . S
Ho601 O630 2.381 1_655 S
Ho601 O631 2.669 . S
C602 O620 1.259 1_455 S
C602 O621 1.268 . S
C603 Ho600 2.811 . S
C603 C604 1.488 . S
C603 O622 1.215 . S
C603 O623 1.289 1_655 S
C604 C603 1.488 . S
C604 C605 1.348 1_655 S
C604 C609 1.413 . S
C605 C604 1.348 1_455 S
C605 C606 1.442 . S
C605 H632 0.930 . S
C606 C605 1.442 . S
C606 C607 1.381 . S
C606 H633 0.931 . S
C607 C606 1.381 . S
C607 C608 1.321 1_455 S
C608 C607 1.321 1_655 S
C608 C609 1.403 . S
C608 H634 0.934 . S
C609 C604 1.413 . S
C609 C608 1.403 . S
C609 H635 0.930 . S
C610 O624 1.275 . S
C610 O625 1.256 . S
C611 O626 1.259 . S
C611 O627 1.268 . S
C612 Ho601 2.811 . S
C612 C613 1.488 . S
C612 O628 1.215 . S
C612 O629 1.289 . S
C613 C612 1.488 . S
C613 C614 1.348 . S
C613 C618 1.413 . S
C614 C613 1.348 . S
C614 C615 1.442 . S
C614 H636 0.930 . S
C615 C614 1.442 . S
C615 C616 1.381 . S
C615 H637 0.931 . S
C616 C615 1.381 . S
C616 C617 1.321 . S
C617 C616 1.321 . S
C617 C618 1.403 . S
C617 H638 0.934 . S
C618 C613 1.413 . S
C618 C617 1.403 . S
C618 H639 0.930 . S
C619 O630 1.275 . S
C619 O631 1.256 1_455 S
O620 Ho600 2.322 . S
O620 C602 1.259 1_655 S
O621 Ho601 2.346 1_455 S
O621 C602 1.268 . S
O622 Ho600 2.378 . S
O622 C603 1.215 . S
O623 Ho600 2.524 1_455 S
O623 C603 1.289 1_455 S
O624 Ho600 2.381 . S
O624 C610 1.275 . S
O625 Ho600 2.669 . S
O625 Ho601 2.305 . S
O625 C610 1.256 . S
O626 Ho601 2.322 . S
O626 C611 1.259 . S
O627 Ho600 2.346 . S
O627 C611 1.268 . S
O628 Ho601 2.378 . S
O628 C612 1.215 . S
O629 Ho601 2.524 . S
O629 C612 1.289 . S
O630 Ho601 2.381 1_455 S
O630 C619 1.275 . S
O631 Ho600 2.305 . S
O631 Ho601 2.669 . S
O631 C619 1.256 1_655 S
H632 C605 0.930 . S
H633 C606 0.931 . S
H634 C608 0.934 . S
H635 C609 0.930 . S
H636 C614 0.930 . S
H637 C615 0.931 . S
H638 C617 0.934 . S
H639 C618 0.930 . S
Ho640 C643 2.811 . S
Ho640 O660 2.322 . S
Ho640 O662 2.378 . S
Ho640 O663 2.524 . S
Ho640 O664 2.381 . S
Ho640 O665 2.669 . S
Ho640 O667 2.346 . S
Ho640 O671 2.305 . S
Ho641 C652 2.811 . S
Ho641 O661 2.346 . S
Ho641 O665 2.305 . S
Ho641 O666 2.322 . S
Ho641 O668 2.378 . S
Ho641 O669 2.524 . S
Ho641 O670 2.381 . S
Ho641 O671 2.669 . S
C642 O660 1.259 . S
C642 O661 1.268 . S
C643 Ho640 2.811 . S
C643 C644 1.488 . S
C643 O662 1.215 . S
C643 O663 1.289 . S
C644 C643 1.488 . S
C644 C645 1.348 . S
C644 C649 1.413 . S
C645 C644 1.348 . S
C645 C646 1.442 . S
C645 H672 0.930 . S
C646 C645 1.442 . S
C646 C647 1.381 . S
C646 H673 0.931 . S
C647 C646 1.381 . S
C647 C648 1.321 . S
C648 C647 1.321 . S
C648 C649 1.403 . S
C648 H674 0.934 . S
C649 C644 1.413 . S
C649 C648 1.403 . S
C649 H675 0.930 . S
C650 O664 1.275 . S
C650 O665 1.256 . S
C651 O666 1.259 . S
C651 O667 1.268 . S
C652 Ho641 2.811 . S
C652 C653 1.488 . S
C652 O668 1.215 . S
C652 O669 1.289 . S
C653 C652 1.488 . S
C653 C654 1.348 . S
C653 C658 1.413 . S
C654 C653 1.348 . S
C654 C655 1.442 . S
C654 H676 0.930 . S
C655 C654 1.442 . S
C655 C656 1.381 . S
C655 H677 0.931 . S
C656 C655 1.381 . S
C656 C657 1.321 . S
C657 C656 1.321 . S
C657 C658 1.403 . S
C657 H678 0.934 . S
C658 C653 1.413 . S
C658 C657 1.403 . S
C658 H679 0.930 . S
C659 O670 1.275 . S
C659 O671 1.256 . S
O660 Ho640 2.322 . S
O660 C642 1.259 . S
O661 Ho641 2.346 . S
O661 C642 1.268 . S
O662 Ho640 2.378 . S
O662 C643 1.215 . S
O663 Ho640 2.524 . S
O663 C643 1.289 . S
O664 Ho640 2.381 . S
O664 C650 1.275 . S
O665 Ho640 2.669 . S
O665 Ho641 2.305 . S
O665 C650 1.256 . S
O666 Ho641 2.322 . S
O666 C651 1.259 . S
O667 Ho640 2.346 . S
O667 C651 1.268 . S
O668 Ho641 2.378 . S
O668 C652 1.215 . S
O669 Ho641 2.524 . S
O669 C652 1.289 . S
O670 Ho641 2.381 . S
O670 C659 1.275 . S
O671 Ho640 2.305 . S
O671 Ho641 2.669 . S
O671 C659 1.256 . S
H672 C645 0.930 . S
H673 C646 0.931 . S
H674 C648 0.934 . S
H675 C649 0.930 . S
H676 C654 0.930 . S
H677 C655 0.931 . S
H678 C657 0.934 . S
H679 C658 0.930 . S
Ho680 C683 2.811 . S
Ho680 O700 2.322 . S
Ho680 O702 2.378 . S
Ho680 O703 2.524 1_545 S
Ho680 O704 2.381 . S
Ho680 O705 2.669 . S
Ho680 O707 2.346 . S
Ho680 O711 2.305 . S
Ho681 C692 2.811 . S
Ho681 O701 2.346 1_545 S
Ho681 O705 2.305 . S
Ho681 O706 2.322 . S
Ho681 O708 2.378 . S
Ho681 O709 2.524 . S
Ho681 O710 2.381 1_545 S
Ho681 O711 2.669 . S
C682 O700 1.259 1_565 S
C682 O701 1.268 . S
C683 Ho680 2.811 . S
C683 C684 1.488 . S
C683 O702 1.215 . S
C683 O703 1.289 1_545 S
C684 C683 1.488 . S
C684 C685 1.348 1_545 S
C684 C689 1.413 . S
C685 C684 1.348 1_565 S
C685 C686 1.442 . S
C685 H712 0.930 . S
C686 C685 1.442 . S
C686 C687 1.381 . S
C686 H713 0.931 . S
C687 C686 1.381 . S
C687 C688 1.321 1_565 S
C688 C687 1.321 1_545 S
C688 C689 1.403 . S
C688 H714 0.934 . S
C689 C684 1.413 . S
C689 C688 1.403 . S
C689 H715 0.930 . S
C690 O704 1.275 . S
C690 O705 1.256 . S
C691 O706 1.259 . S
C691 O707 1.268 . S
C692 Ho681 2.811 . S
C692 C693 1.488 . S
C692 O708 1.215 . S
C692 O709 1.289 . S
C693 C692 1.488 . S
C693 C694 1.348 . S
C693 C698 1.413 . S
C694 C693 1.348 . S
C694 C695 1.442 . S
C694 H716 0.930 . S
C695 C694 1.442 . S
C695 C696 1.381 . S
C695 H717 0.931 . S
C696 C695 1.381 . S
C696 C697 1.321 . S
C697 C696 1.321 . S
C697 C698 1.403 . S
C697 H718 0.934 . S
C698 C693 1.413 . S
C698 C697 1.403 . S
C698 H719 0.930 . S
C699 O710 1.275 . S
C699 O711 1.256 1_565 S
O700 Ho680 2.322 . S
O700 C682 1.259 1_545 S
O701 Ho681 2.346 1_565 S
O701 C682 1.268 . S
O702 Ho680 2.378 . S
O702 C683 1.215 . S
O703 Ho680 2.524 1_565 S
O703 C683 1.289 1_565 S
O704 Ho680 2.381 . S
O704 C690 1.275 . S
O705 Ho680 2.669 . S
O705 Ho681 2.305 . S
O705 C690 1.256 . S
O706 Ho681 2.322 . S
O706 C691 1.259 . S
O707 Ho680 2.346 . S
O707 C691 1.268 . S
O708 Ho681 2.378 . S
O708 C692 1.215 . S
O709 Ho681 2.524 . S
O709 C692 1.289 . S
O710 Ho681 2.381 1_565 S
O710 C699 1.275 . S
O711 Ho680 2.305 . S
O711 Ho681 2.669 . S
O711 C699 1.256 1_545 S
H712 C685 0.930 . S
H713 C686 0.931 . S
H714 C688 0.934 . S
H715 C689 0.930 . S
H716 C694 0.930 . S
H717 C695 0.931 . S
H718 C697 0.934 . S
H719 C698 0.930 . S
Ho720 C723 2.811 . S
Ho720 O740 2.322 . S
Ho720 O742 2.378 . S
Ho720 O743 2.524 . S
Ho720 O744 2.381 1_545 S
Ho720 O745 2.669 . S
Ho720 O747 2.346 1_545 S
Ho720 O751 2.305 . S
Ho721 C732 2.811 . S
Ho721 O741 2.346 . S
Ho721 O745 2.305 . S
Ho721 O746 2.322 . S
Ho721 O748 2.378 . S
Ho721 O749 2.524 . S
Ho721 O750 2.381 . S
Ho721 O751 2.669 . S
C722 O740 1.259 . S
C722 O741 1.268 . S
C723 Ho720 2.811 . S
C723 C724 1.488 . S
C723 O742 1.215 . S
C723 O743 1.289 . S
C724 C723 1.488 . S
C724 C725 1.348 . S
C724 C729 1.413 . S
C725 C724 1.348 . S
C725 C726 1.442 . S
C725 H752 0.930 . S
C726 C725 1.442 . S
C726 C727 1.381 . S
C726 H753 0.931 . S
C727 C726 1.381 . S
C727 C728 1.321 . S
C728 C727 1.321 . S
C728 C729 1.403 . S
C728 H754 0.934 . S
C729 C724 1.413 . S
C729 C728 1.403 . S
C729 H755 0.930 . S
C730 O744 1.275 . S
C730 O745 1.256 1_565 S
C731 O746 1.259 1_565 S
C731 O747 1.268 . S
C732 Ho721 2.811 . S
C732 C733 1.488 . S
C732 O748 1.215 . S
C732 O749 1.289 . S
C733 C732 1.488 . S
C733 C734 1.348 1_545 S
C733 C738 1.413 . S
C734 C733 1.348 1_565 S
C734 C735 1.442 . S
C734 H756 0.930 . S
C735 C734 1.442 . S
C735 C736 1.381 . S
C735 H757 0.931 . S
C736 C735 1.381 . S
C736 C737 1.321 1_565 S
C737 C736 1.321 1_545 S
C737 C738 1.403 . S
C737 H758 0.934 . S
C738 C733 1.413 . S
C738 C737 1.403 . S
C738 H759 0.930 . S
C739 O750 1.275 . S
C739 O751 1.256 . S
O740 Ho720 2.322 . S
O740 C722 1.259 . S
O741 Ho721 2.346 . S
O741 C722 1.268 . S
O742 Ho720 2.378 . S
O742 C723 1.215 . S
O743 Ho720 2.524 . S
O743 C723 1.289 . S
O744 Ho720 2.381 1_565 S
O744 C730 1.275 . S
O745 Ho720 2.669 . S
O745 Ho721 2.305 . S
O745 C730 1.256 1_545 S
O746 Ho721 2.322 . S
O746 C731 1.259 1_545 S
O747 Ho720 2.346 1_565 S
O747 C731 1.268 . S
O748 Ho721 2.378 . S
O748 C732 1.215 . S
O749 Ho721 2.524 . S
O749 C732 1.289 . S
O750 Ho721 2.381 . S
O750 C739 1.275 . S
O751 Ho720 2.305 . S
O751 Ho721 2.669 . S
O751 C739 1.256 . S
H752 C725 0.930 . S
H753 C726 0.931 . S
H754 C728 0.934 . S
H755 C729 0.930 . S
H756 C734 0.930 . S
H757 C735 0.931 . S
H758 C737 0.934 . S
H759 C738 0.930 . S
Ho760 C763 2.811 . S
Ho760 O780 2.322 . S
Ho760 O782 2.378 . S
Ho760 O783 2.524 . S
Ho760 O784 2.381 1_655 S
Ho760 O785 2.669 . S
Ho760 O787 2.346 1_655 S
Ho760 O791 2.305 . S
Ho761 C772 2.811 . S
Ho761 O781 2.346 . S
Ho761 O785 2.305 . S
Ho761 O786 2.322 . S
Ho761 O788 2.378 . S
Ho761 O789 2.524 . S
Ho761 O790 2.381 . S
Ho761 O791 2.669 . S
C762 O780 1.259 . S
C762 O781 1.268 . S
C763 Ho760 2.811 . S
C763 C764 1.488 . S
C763 O782 1.215 . S
C763 O783 1.289 . S
C764 C763 1.488 . S
C764 C765 1.348 . S
C764 C769 1.413 . S
C765 C764 1.348 . S
C765 C766 1.442 . S
C765 H792 0.930 . S
C766 C765 1.442 . S
C766 C767 1.381 . S
C766 H793 0.931 . S
C767 C766 1.381 . S
C767 C768 1.321 . S
C768 C767 1.321 . S
C768 C769 1.403 . S
C768 H794 0.934 . S
C769 C764 1.413 . S
C769 C768 1.403 . S
C769 H795 0.930 . S
C770 O784 1.275 . S
C770 O785 1.256 1_455 S
C771 O786 1.259 1_455 S
C771 O787 1.268 . S
C772 Ho761 2.811 . S
C772 C773 1.488 . S
C772 O788 1.215 . S
C772 O789 1.289 . S
C773 C772 1.488 . S
C773 C774 1.348 1_655 S
C773 C778 1.413 . S
C774 C773 1.348 1_455 S
C774 C775 1.442 . S
C774 H796 0.930 . S
C775 C774 1.442 . S
C775 C776 1.381 . S
C775 H797 0.931 . S
C776 C775 1.381 . S
C776 C777 1.321 1_455 S
C777 C776 1.321 1_655 S
C777 C778 1.403 . S
C777 H798 0.934 . S
C778 C773 1.413 . S
C778 C777 1.403 . S
C778 H799 0.930 . S
C779 O790 1.275 . S
C779 O791 1.256 . S
O780 Ho760 2.322 . S
O780 C762 1.259 . S
O781 Ho761 2.346 . S
O781 C762 1.268 . S
O782 Ho760 2.378 . S
O782 C763 1.215 . S
O783 Ho760 2.524 . S
O783 C763 1.289 . S
O784 Ho760 2.381 1_455 S
O784 C770 1.275 . S
O785 Ho760 2.669 . S
O785 Ho761 2.305 . S
O785 C770 1.256 1_655 S
O786 Ho761 2.322 . S
O786 C771 1.259 1_655 S
O787 Ho760 2.346 1_455 S
O787 C771 1.268 . S
O788 Ho761 2.378 . S
O788 C772 1.215 . S
O789 Ho761 2.524 . S
O789 C772 1.289 . S
O790 Ho761 2.381 . S
O790 C779 1.275 . S
O791 Ho760 2.305 . S
O791 Ho761 2.669 . S
O791 C779 1.256 . S
H792 C765 0.930 . S
H793 C766 0.931 . S
H794 C768 0.934 . S
H795 C769 0.930 . S
H796 C774 0.930 . S
H797 C775 0.931 . S
H798 C777 0.934 . S
H799 C778 0.930 . S
Ho800 C803 2.811 . S
Ho800 O820 2.322 . S
Ho800 O822 2.378 . S
Ho800 O823 2.524 . S
Ho800 O824 2.381 . S
Ho800 O825 2.669 . S
Ho800 O827 2.346 . S
Ho800 O831 2.305 . S
Ho801 C812 2.811 . S
Ho801 O821 2.346 . S
Ho801 O825 2.305 . S
Ho801 O826 2.322 . S
Ho801 O828 2.378 . S
Ho801 O829 2.524 . S
Ho801 O830 2.381 . S
Ho801 O831 2.669 . S
C802 O820 1.259 . S
C802 O821 1.268 . S
C803 Ho800 2.811 . S
C803 C804 1.488 . S
C803 O822 1.215 . S
C803 O823 1.289 . S
C804 C803 1.488 . S
C804 C805 1.348 . S
C804 C809 1.413 . S
C805 C804 1.348 . S
C805 C806 1.442 . S
C805 H832 0.930 . S
C806 C805 1.442 . S
C806 C807 1.381 . S
C806 H833 0.931 . S
C807 C806 1.381 . S
C807 C808 1.321 . S
C808 C807 1.321 . S
C808 C809 1.403 . S
C808 H834 0.934 . S
C809 C804 1.413 . S
C809 C808 1.403 . S
C809 H835 0.930 . S
C810 O824 1.275 . S
C810 O825 1.256 . S
C811 O826 1.259 . S
C811 O827 1.268 . S
C812 Ho801 2.811 . S
C812 C813 1.488 . S
C812 O828 1.215 . S
C812 O829 1.289 . S
C813 C812 1.488 . S
C813 C814 1.348 . S
C813 C818 1.413 . S
C814 C813 1.348 . S
C814 C815 1.442 . S
C814 H836 0.930 . S
C815 C814 1.442 . S
C815 C816 1.381 . S
C815 H837 0.931 . S
C816 C815 1.381 . S
C816 C817 1.321 . S
C817 C816 1.321 . S
C817 C818 1.403 . S
C817 H838 0.934 . S
C818 C813 1.413 . S
C818 C817 1.403 . S
C818 H839 0.930 . S
C819 O830 1.275 . S
C819 O831 1.256 . S
O820 Ho800 2.322 . S
O820 C802 1.259 . S
O821 Ho801 2.346 . S
O821 C802 1.268 . S
O822 Ho800 2.378 . S
O822 C803 1.215 . S
O823 Ho800 2.524 . S
O823 C803 1.289 . S
O824 Ho800 2.381 . S
O824 C810 1.275 . S
O825 Ho800 2.669 . S
O825 Ho801 2.305 . S
O825 C810 1.256 . S
O826 Ho801 2.322 . S
O826 C811 1.259 . S
O827 Ho800 2.346 . S
O827 C811 1.268 . S
O828 Ho801 2.378 . S
O828 C812 1.215 . S
O829 Ho801 2.524 . S
O829 C812 1.289 . S
O830 Ho801 2.381 . S
O830 C819 1.275 . S
O831 Ho800 2.305 . S
O831 Ho801 2.669 . S
O831 C819 1.256 . S
H832 C805 0.930 . S
H833 C806 0.931 . S
H834 C808 0.934 . S
H835 C809 0.930 . S
H836 C814 0.930 . S
H837 C815 0.931 . S
H838 C817 0.934 . S
H839 C818 0.930 . S
Ho840 C843 2.811 . S
Ho840 O860 2.322 . S
Ho840 O862 2.378 . S
Ho840 O863 2.524 . S
Ho840 O864 2.381 . S
Ho840 O865 2.669 1_554 S
Ho840 O867 2.346 . S
Ho840 O871 2.305 . S
Ho841 C852 2.811 . S
Ho841 O861 2.346 . S
Ho841 O865 2.305 . S
Ho841 O866 2.322 . S
Ho841 O868 2.378 . S
Ho841 O869 2.524 . S
Ho841 O870 2.381 . S
Ho841 O871 2.669 1_556 S
C842 O860 1.259 . S
C842 O861 1.268 1_554 S
C843 Ho840 2.811 . S
C843 C844 1.488 . S
C843 O862 1.215 . S
C843 O863 1.289 . S
C844 C843 1.488 . S
C844 C845 1.348 . S
C844 C849 1.413 . S
C845 C844 1.348 . S
C845 C846 1.442 . S
C845 H872 0.930 . S
C846 C845 1.442 . S
C846 C847 1.381 . S
C846 H873 0.931 . S
C847 C846 1.381 . S
C847 C848 1.321 . S
C848 C847 1.321 . S
C848 C849 1.403 . S
C848 H874 0.934 . S
C849 C844 1.413 . S
C849 C848 1.403 . S
C849 H875 0.930 . S
C850 O864 1.275 . S
C850 O865 1.256 1_554 S
C851 O866 1.259 . S
C851 O867 1.268 1_556 S
C852 Ho841 2.811 . S
C852 C853 1.488 . S
C852 O868 1.215 . S
C852 O869 1.289 . S
C853 C852 1.488 . S
C853 C854 1.348 . S
C853 C858 1.413 . S
C854 C853 1.348 . S
C854 C855 1.445 . S
C854 H876 0.930 . S
C855 C854 1.445 . S
C855 C856 1.376 1_545 S
C855 H877 0.932 1_545 S
C856 C855 1.376 1_565 S
C856 C857 1.321 1_565 S
C857 C856 1.321 1_545 S
C857 C858 1.403 . S
C857 H878 0.934 . S
C858 C853 1.413 . S
C858 C857 1.403 . S
C858 H879 0.930 . S
C859 O870 1.275 . S
C859 O871 1.256 1_556 S
O860 Ho840 2.322 . S
O860 C842 1.259 . S
O861 Ho841 2.346 . S
O861 C842 1.268 1_556 S
O862 Ho840 2.378 . S
O862 C843 1.215 . S
O863 Ho840 2.524 . S
O863 C843 1.289 . S
O864 Ho840 2.381 . S
O864 C850 1.275 . S
O865 Ho840 2.669 1_556 S
O865 Ho841 2.305 . S
O865 C850 1.256 1_556 S
O866 Ho841 2.322 . S
O866 C851 1.259 . S
O867 Ho840 2.346 . S
O867 C851 1.268 1_554 S
O868 Ho841 2.378 . S
O868 C852 1.215 . S
O869 Ho841 2.524 . S
O869 C852 1.289 . S
O870 Ho841 2.381 . S
O870 C859 1.275 . S
O871 Ho840 2.305 . S
O871 Ho841 2.669 1_554 S
O871 C859 1.256 1_554 S
H872 C845 0.930 . S
H873 C846 0.931 . S
H874 C848 0.934 . S
H875 C849 0.930 . S
H876 C854 0.930 . S
H877 C855 0.932 1_565 S
H878 C857 0.934 . S
H879 C858 0.930 . S
Ho880 C883 2.811 . S
Ho880 O900 2.322 . S
Ho880 O902 2.378 . S
Ho880 O903 2.524 . S
Ho880 O904 2.381 . S
Ho880 O905 2.669 1_554 S
Ho880 O907 2.346 . S
Ho880 O911 2.305 . S
Ho881 C892 2.811 . S
Ho881 O901 2.346 . S
Ho881 O905 2.305 . S
Ho881 O906 2.322 . S
Ho881 O908 2.378 . S
Ho881 O909 2.524 . S
Ho881 O910 2.381 . S
Ho881 O911 2.669 1_556 S
C882 O900 1.259 . S
C882 O901 1.268 1_554 S
C883 Ho880 2.811 . S
C883 C884 1.488 . S
C883 O902 1.215 . S
C883 O903 1.289 . S
C884 C883 1.488 . S
C884 C885 1.348 . S
C884 C889 1.413 . S
C885 C884 1.348 . S
C885 C886 1.442 . S
C885 H912 0.930 . S
C886 C885 1.442 . S
C886 C887 1.381 . S
C886 H913 0.931 . S
C887 C886 1.381 . S
C887 C888 1.321 . S
C888 C887 1.321 . S
C888 C889 1.403 . S
C888 H914 0.934 . S
C889 C884 1.413 . S
C889 C888 1.403 . S
C889 H915 0.930 . S
C890 O904 1.275 . S
C890 O905 1.256 1_554 S
C891 O906 1.259 . S
C891 O907 1.268 1_556 S
C892 Ho881 2.811 . S
C892 C893 1.488 . S
C892 O908 1.215 . S
C892 O909 1.289 . S
C893 C892 1.488 . S
C893 C894 1.348 . S
C893 C898 1.413 . S
C894 C893 1.348 . S
C894 C895 1.448 . S
C894 H916 0.930 . S
C895 C894 1.448 . S
C895 C896 1.384 1_655 S
C895 H917 0.922 1_655 S
C896 C895 1.384 1_455 S
C896 C897 1.321 1_455 S
C897 C896 1.321 1_655 S
C897 C898 1.403 . S
C897 H918 0.934 . S
C898 C893 1.413 . S
C898 C897 1.403 . S
C898 H919 0.930 . S
C899 O910 1.275 . S
C899 O911 1.256 1_556 S
O900 Ho880 2.322 . S
O900 C882 1.259 . S
O901 Ho881 2.346 . S
O901 C882 1.268 1_556 S
O902 Ho880 2.378 . S
O902 C883 1.215 . S
O903 Ho880 2.524 . S
O903 C883 1.289 . S
O904 Ho880 2.381 . S
O904 C890 1.275 . S
O905 Ho880 2.669 1_556 S
O905 Ho881 2.305 . S
O905 C890 1.256 1_556 S
O906 Ho881 2.322 . S
O906 C891 1.259 . S
O907 Ho880 2.346 . S
O907 C891 1.268 1_554 S
O908 Ho881 2.378 . S
O908 C892 1.215 . S
O909 Ho881 2.524 . S
O909 C892 1.289 . S
O910 Ho881 2.381 . S
O910 C899 1.275 . S
O911 Ho880 2.305 . S
O911 Ho881 2.669 1_554 S
O911 C899 1.256 1_554 S
H912 C885 0.930 . S
H913 C886 0.931 . S
H914 C888 0.934 . S
H915 C889 0.930 . S
H916 C894 0.930 . S
H917 C895 0.922 1_455 S
H918 C897 0.934 . S
H919 C898 0.930 . S
Ho920 C923 2.811 . S
Ho920 O940 2.322 . S
Ho920 O942 2.378 . S
Ho920 O943 2.524 . S
Ho920 O944 2.381 . S
Ho920 O945 2.669 1_554 S
Ho920 O947 2.346 . S
Ho920 O951 2.305 . S
Ho921 C932 2.811 . S
Ho921 O941 2.346 . S
Ho921 O945 2.305 . S
Ho921 O946 2.322 . S
Ho921 O948 2.378 . S
Ho921 O949 2.524 . S
Ho921 O950 2.381 . S
Ho921 O951 2.669 1_556 S
C922 O940 1.259 . S
C922 O941 1.268 1_554 S
C923 Ho920 2.811 . S
C923 C924 1.488 . S
C923 O942 1.215 . S
C923 O943 1.289 . S
C924 C923 1.488 . S
C924 C925 1.348 . S
C924 C929 1.413 . S
C925 C924 1.348 . S
C925 C926 1.442 . S
C925 H952 0.930 . S
C926 C925 1.442 . S
C926 C927 1.381 . S
C926 H953 0.931 . S
C927 C926 1.381 . S
C927 C928 1.321 . S
C928 C927 1.321 . S
C928 C929 1.403 . S
C928 H954 0.934 . S
C929 C924 1.413 . S
C929 C928 1.403 . S
C929 H955 0.930 . S
C930 O944 1.275 . S
C930 O945 1.256 1_554 S
C931 O946 1.259 . S
C931 O947 1.268 1_556 S
C932 Ho921 2.811 . S
C932 C933 1.488 . S
C932 O948 1.215 . S
C932 O949 1.289 . S
C933 C932 1.488 . S
C933 C934 1.348 . S
C933 C938 1.413 . S
C934 C933 1.348 . S
C934 C935 1.442 . S
C934 H956 0.930 . S
C935 C934 1.442 . S
C935 C936 1.381 . S
C935 H957 0.931 . S
C936 C935 1.381 . S
C936 C937 1.321 . S
C937 C936 1.321 . S
C937 C938 1.403 . S
C937 H958 0.934 . S
C938 C933 1.413 . S
C938 C937 1.403 . S
C938 H959 0.930 . S
C939 O950 1.275 . S
C939 O951 1.256 1_556 S
O940 Ho920 2.322 . S
O940 C922 1.259 . S
O941 Ho921 2.346 . S
O941 C922 1.268 1_556 S
O942 Ho920 2.378 . S
O942 C923 1.215 . S
O943 Ho920 2.524 . S
O943 C923 1.289 . S
O944 Ho920 2.381 . S
O944 C930 1.275 . S
O945 Ho920 2.669 1_556 S
O945 Ho921 2.305 . S
O945 C930 1.256 1_556 S
O946 Ho921 2.322 . S
O946 C931 1.259 . S
O947 Ho920 2.346 . S
O947 C931 1.268 1_554 S
O948 Ho921 2.378 . S
O948 C932 1.215 . S
O949 Ho921 2.524 . S
O949 C932 1.289 . S
O950 Ho921 2.381 . S
O950 C939 1.275 . S
O951 Ho920 2.305 . S
O951 Ho921 2.669 1_554 S
O951 C939 1.256 1_554 S
H952 C925 0.930 . S
H953 C926 0.931 . S
H954 C928 0.934 . S
H955 C929 0.930 . S
H956 C934 0.930 . S
H957 C935 0.931 . S
H958 C937 0.934 . S
H959 C938 0.930 . S
Ho960 C963 2.811 . S
Ho960 O980 2.322 . S
Ho960 O982 2.378 . S
Ho960 O983 2.524 . S
Ho960 O984 2.381 . S
Ho960 O985 2.669 . S
Ho960 O987 2.346 . S
Ho960 O991 2.305 . S
Ho961 C972 2.811 . S
Ho961 O981 2.346 1_565 S
Ho961 O985 2.305 . S
Ho961 O986 2.322 . S
Ho961 O988 2.378 . S
Ho961 O989 2.524 . S
Ho961 O990 2.381 1_565 S
Ho961 O991 2.669 . S
C962 O980 1.259 1_545 S
C962 O981 1.268 . S
C963 Ho960 2.811 . S
C963 C964 1.488 . S
C963 O982 1.215 . S
C963 O983 1.289 . S
C964 C963 1.488 . S
C964 C965 1.348 1_565 S
C964 C969 1.413 . S
C965 C964 1.348 1_545 S
C965 C966 1.442 . S
C965 H992 0.930 . S
C966 C965 1.442 . S
C966 C967 1.381 . S
C966 H993 0.931 . S
C967 C966 1.381 . S
C967 C968 1.321 1_545 S
C968 C967 1.321 1_565 S
C968 C969 1.403 . S
C968 H994 0.934 . S
C969 C964 1.413 . S
C969 C968 1.403 . S
C969 H995 0.930 . S
C970 O984 1.275 . S
C970 O985 1.256 . S
C971 O986 1.259 . S
C971 O987 1.268 . S
C972 Ho961 2.811 . S
C972 C973 1.488 . S
C972 O988 1.215 . S
C972 O989 1.289 . S
C973 C972 1.488 . S
C973 C974 1.348 . S
C973 C978 1.413 . S
C974 C973 1.348 . S
C974 C975 1.442 . S
C974 H996 0.930 . S
C975 C974 1.442 . S
C975 C976 1.381 . S
C975 H997 0.931 . S
C976 C975 1.381 . S
C976 C977 1.321 . S
C977 C976 1.321 . S
C977 C978 1.403 . S
C977 H998 0.934 . S
C978 C973 1.413 . S
C978 C977 1.403 . S
C978 H999 0.930 . S
C979 O990 1.275 . S
C979 O991 1.256 1_545 S
O980 Ho960 2.322 . S
O980 C962 1.259 1_565 S
O981 Ho961 2.346 1_545 S
O981 C962 1.268 . S
O982 Ho960 2.378 . S
O982 C963 1.215 . S
O983 Ho960 2.524 . S
O983 C963 1.289 . S
O984 Ho960 2.381 . S
O984 C970 1.275 . S
O985 Ho960 2.669 . S
O985 Ho961 2.305 . S
O985 C970 1.256 . S
O986 Ho961 2.322 . S
O986 C971 1.259 . S
O987 Ho960 2.346 . S
O987 C971 1.268 . S
O988 Ho961 2.378 . S
O988 C972 1.215 . S
O989 Ho961 2.524 . S
O989 C972 1.289 . S
O990 Ho961 2.381 1_545 S
O990 C979 1.275 . S
O991 Ho960 2.305 . S
O991 Ho961 2.669 . S
O991 C979 1.256 1_565 S
H992 C965 0.930 . S
H993 C966 0.931 . S
H994 C968 0.934 . S
H995 C969 0.930 . S
H996 C974 0.930 . S
H997 C975 0.931 . S
H998 C977 0.934 . S
H999 C978 0.930 . S
Ho1000 C1003 2.811 . S
Ho1000 O1020 2.322 . S
Ho1000 O1022 2.378 . S
Ho1000 O1023 2.524 . S
Ho1000 O1024 2.381 . S
Ho1000 O1025 2.669 . S
Ho1000 O1027 2.346 . S
Ho1000 O1031 2.305 . S
Ho1001 C1012 2.811 . S
Ho1001 O1021 2.346 1_455 S
Ho1001 O1025 2.305 . S
Ho1001 O1026 2.322 . S
Ho1001 O1028 2.378 . S
Ho1001 O1029 2.524 . S
Ho1001 O1030 2.381 1_455 S
Ho1001 O1031 2.669 . S
C1002 O1020 1.259 1_655 S
C1002 O1021 1.268 . S
C1003 Ho1000 2.811 . S
C1003 C1004 1.488 . S
C1003 O1022 1.215 . S
C1003 O1023 1.289 . S
C1004 C1003 1.488 . S
C1004 C1005 1.348 1_455 S
C1004 C1009 1.413 . S
C1005 C1004 1.348 1_655 S
C1005 C1006 1.442 . S
C1005 H1032 0.930 . S
C1006 C1005 1.442 . S
C1006 C1007 1.381 . S
C1006 H1033 0.931 . S
C1007 C1006 1.381 . S
C1007 C1008 1.321 1_655 S
C1008 C1007 1.321 1_455 S
C1008 C1009 1.403 . S
C1008 H1034 0.934 . S
C1009 C1004 1.413 . S
C1009 C1008 1.403 . S
C1009 H1035 0.930 . S
C1010 O1024 1.275 . S
C1010 O1025 1.256 . S
C1011 O1026 1.259 . S
C1011 O1027 1.268 . S
C1012 Ho1001 2.811 . S
C1012 C1013 1.488 . S
C1012 O1028 1.215 . S
C1012 O1029 1.289 . S
C1013 C1012 1.488 . S
C1013 C1014 1.348 . S
C1013 C1018 1.413 . S
C1014 C1013 1.348 . S
C1014 C1015 1.442 . S
C1014 H1036 0.930 . S
C1015 C1014 1.442 . S
C1015 C1016 1.381 . S
C1015 H1037 0.931 . S
C1016 C1015 1.381 . S
C1016 C1017 1.321 . S
C1017 C1016 1.321 . S
C1017 C1018 1.403 . S
C1017 H1038 0.934 . S
C1018 C1013 1.413 . S
C1018 C1017 1.403 . S
C1018 H1039 0.930 . S
C1019 O1030 1.275 . S
C1019 O1031 1.256 1_655 S
O1020 Ho1000 2.322 . S
O1020 C1002 1.259 1_455 S
O1021 Ho1001 2.346 1_655 S
O1021 C1002 1.268 . S
O1022 Ho1000 2.378 . S
O1022 C1003 1.215 . S
O1023 Ho1000 2.524 . S
O1023 C1003 1.289 . S
O1024 Ho1000 2.381 . S
O1024 C1010 1.275 . S
O1025 Ho1000 2.669 . S
O1025 Ho1001 2.305 . S
O1025 C1010 1.256 . S
O1026 Ho1001 2.322 . S
O1026 C1011 1.259 . S
O1027 Ho1000 2.346 . S
O1027 C1011 1.268 . S
O1028 Ho1001 2.378 . S
O1028 C1012 1.215 . S
O1029 Ho1001 2.524 . S
O1029 C1012 1.289 . S
O1030 Ho1001 2.381 1_655 S
O1030 C1019 1.275 . S
O1031 Ho1000 2.305 . S
O1031 Ho1001 2.669 . S
O1031 C1019 1.256 1_455 S
H1032 C1005 0.930 . S
H1033 C1006 0.931 . S
H1034 C1008 0.934 . S
H1035 C1009 0.930 . S
H1036 C1014 0.930 . S
H1037 C1015 0.931 . S
H1038 C1017 0.934 . S
H1039 C1018 0.930 . S
Ho1040 C1043 2.811 . S
Ho1040 O1060 2.322 . S
Ho1040 O1062 2.378 . S
Ho1040 O1063 2.524 . S
Ho1040 O1064 2.381 . S
Ho1040 O1065 2.669 . S
Ho1040 O1067 2.346 . S
Ho1040 O1071 2.305 . S
Ho1041 C1052 2.811 . S
Ho1041 O1061 2.346 . S
Ho1041 O1065 2.305 . S
Ho1041 O1066 2.322 . S
Ho1041 O1068 2.378 . S
Ho1041 O1069 2.524 . S
Ho1041 O1070 2.381 . S
Ho1041 O1071 2.669 . S
C1042 O1060 1.259 . S
C1042 O1061 1.268 . S
C1043 Ho1040 2.811 . S
C1043 C1044 1.488 . S
C1043 O1062 1.215 . S
C1043 O1063 1.289 . S
C1044 C1043 1.488 . S
C1044 C1045 1.348 . S
C1044 C1049 1.413 . S
C1045 C1044 1.348 . S
C1045 C1046 1.442 . S
C1045 H1072 0.930 . S
C1046 C1045 1.442 . S
C1046 C1047 1.381 . S
C1046 H1073 0.931 . S
C1047 C1046 1.381 . S
C1047 C1048 1.321 . S
C1048 C1047 1.321 . S
C1048 C1049 1.403 . S
C1048 H1074 0.934 . S
C1049 C1044 1.413 . S
C1049 C1048 1.403 . S
C1049 H1075 0.930 . S
C1050 O1064 1.275 . S
C1050 O1065 1.256 . S
C1051 O1066 1.259 . S
C1051 O1067 1.268 . S
C1052 Ho1041 2.811 . S
C1052 C1053 1.488 . S
C1052 O1068 1.215 . S
C1052 O1069 1.289 . S
C1053 C1052 1.488 . S
C1053 C1054 1.348 . S
C1053 C1058 1.413 . S
C1054 C1053 1.348 . S
C1054 C1055 1.442 . S
C1054 H1076 0.930 . S
C1055 C1054 1.442 . S
C1055 C1056 1.381 . S
C1055 H1077 0.931 . S
C1056 C1055 1.381 . S
C1056 C1057 1.321 . S
C1057 C1056 1.321 . S
C1057 C1058 1.403 . S
C1057 H1078 0.934 . S
C1058 C1053 1.413 . S
C1058 C1057 1.403 . S
C1058 H1079 0.930 . S
C1059 O1070 1.275 . S
C1059 O1071 1.256 . S
O1060 Ho1040 2.322 . S
O1060 C1042 1.259 . S
O1061 Ho1041 2.346 . S
O1061 C1042 1.268 . S
O1062 Ho1040 2.378 . S
O1062 C1043 1.215 . S
O1063 Ho1040 2.524 . S
O1063 C1043 1.289 . S
O1064 Ho1040 2.381 . S
O1064 C1050 1.275 . S
O1065 Ho1040 2.669 . S
O1065 Ho1041 2.305 . S
O1065 C1050 1.256 . S
O1066 Ho1041 2.322 . S
O1066 C1051 1.259 . S
O1067 Ho1040 2.346 . S
O1067 C1051 1.268 . S
O1068 Ho1041 2.378 . S
O1068 C1052 1.215 . S
O1069 Ho1041 2.524 . S
O1069 C1052 1.289 . S
O1070 Ho1041 2.381 . S
O1070 C1059 1.275 . S
O1071 Ho1040 2.305 . S
O1071 Ho1041 2.669 . S
O1071 C1059 1.256 . S
H1072 C1045 0.930 . S
H1073 C1046 0.931 . S
H1074 C1048 0.934 . S
H1075 C1049 0.930 . S
H1076 C1054 0.930 . S
H1077 C1055 0.931 . S
H1078 C1057 0.934 . S
H1079 C1058 0.930 . S
Ho1080 C1083 2.811 . S
Ho1080 O1100 2.322 . S
Ho1080 O1102 2.378 . S
Ho1080 O1103 2.524 . S
Ho1080 O1104 2.381 . S
Ho1080 O1105 2.669 1_554 S
Ho1080 O1107 2.346 . S
Ho1080 O1111 2.305 . S
Ho1081 C1092 2.811 . S
Ho1081 O1101 2.346 . S
Ho1081 O1105 2.305 . S
Ho1081 O1106 2.322 . S
Ho1081 O1108 2.378 . S
Ho1081 O1109 2.524 . S
Ho1081 O1110 2.381 . S
Ho1081 O1111 2.669 1_556 S
C1082 O1100 1.259 . S
C1082 O1101 1.268 1_554 S
C1083 Ho1080 2.811 . S
C1083 C1084 1.488 . S
C1083 O1102 1.215 . S
C1083 O1103 1.289 . S
C1084 C1083 1.488 . S
C1084 C1085 1.348 . S
C1084 C1089 1.413 . S
C1085 C1084 1.348 . S
C1085 C1086 1.444 . S
C1085 H1112 0.930 . S
C1086 C1085 1.444 . S
C1086 C1087 1.377 1_565 S
C1086 H1113 0.932 1_565 S
C1087 C1086 1.377 1_545 S
C1087 C1088 1.321 1_545 S
C1088 C1087 1.321 1_565 S
C1088 C1089 1.403 . S
C1088 H1114 0.934 . S
C1089 C1084 1.413 . S
C1089 C1088 1.403 . S
C1089 H1115 0.930 . S
C1090 O1104 1.275 . S
C1090 O1105 1.256 1_554 S
C1091 O1106 1.259 . S
C1091 O1107 1.268 1_556 S
C1092 Ho1081 2.811 . S
C1092 C1093 1.488 . S
C1092 O1108 1.215 . S
C1092 O1109 1.289 . S
C1093 C1092 1.488 . S
C1093 C1094 1.348 . S
C1093 C1098 1.413 . S
C1094 C1093 1.348 . S
C1094 C1095 1.442 . S
C1094 H1116 0.930 . S
C1095 C1094 1.442 . S
C1095 C1096 1.381 . S
C1095 H1117 0.931 . S
C1096 C1095 1.381 . S
C1096 C1097 1.321 . S
C1097 C1096 1.321 . S
C1097 C1098 1.403 . S
C1097 H1118 0.934 . S
C1098 C1093 1.413 . S
C1098 C1097 1.403 . S
C1098 H1119 0.930 . S
C1099 O1110 1.275 . S
C1099 O1111 1.256 1_556 S
O1100 Ho1080 2.322 . S
O1100 C1082 1.259 . S
O1101 Ho1081 2.346 . S
O1101 C1082 1.268 1_556 S
O1102 Ho1080 2.378 . S
O1102 C1083 1.215 . S
O1103 Ho1080 2.524 . S
O1103 C1083 1.289 . S
O1104 Ho1080 2.381 . S
O1104 C1090 1.275 . S
O1105 Ho1080 2.669 1_556 S
O1105 Ho1081 2.305 . S
O1105 C1090 1.256 1_556 S
O1106 Ho1081 2.322 . S
O1106 C1091 1.259 . S
O1107 Ho1080 2.346 . S
O1107 C1091 1.268 1_554 S
O1108 Ho1081 2.378 . S
O1108 C1092 1.215 . S
O1109 Ho1081 2.524 . S
O1109 C1092 1.289 . S
O1110 Ho1081 2.381 . S
O1110 C1099 1.275 . S
O1111 Ho1080 2.305 . S
O1111 Ho1081 2.669 1_554 S
O1111 C1099 1.256 1_554 S
H1112 C1085 0.930 . S
H1113 C1086 0.932 1_545 S
H1114 C1088 0.934 . S
H1115 C1089 0.930 . S
H1116 C1094 0.930 . S
H1117 C1095 0.931 . S
H1118 C1097 0.934 . S
H1119 C1098 0.930 . S
Ho1120 C1123 2.811 . S
Ho1120 O1140 2.322 . S
Ho1120 O1142 2.378 . S
Ho1120 O1143 2.524 . S
Ho1120 O1144 2.381 . S
Ho1120 O1145 2.669 1_554 S
Ho1120 O1147 2.346 . S
Ho1120 O1151 2.305 . S
Ho1121 C1132 2.811 . S
Ho1121 O1141 2.346 . S
Ho1121 O1145 2.305 . S
Ho1121 O1146 2.322 . S
Ho1121 O1148 2.378 . S
Ho1121 O1149 2.524 . S
Ho1121 O1150 2.381 . S
Ho1121 O1151 2.669 1_556 S
C1122 O1140 1.259 . S
C1122 O1141 1.268 1_554 S
C1123 Ho1120 2.811 . S
C1123 C1124 1.488 . S
C1123 O1142 1.215 . S
C1123 O1143 1.289 . S
C1124 C1123 1.488 . S
C1124 C1125 1.348 . S
C1124 C1129 1.413 . S
C1125 C1124 1.348 . S
C1125 C1126 1.447 . S
C1125 H1152 0.930 . S
C1126 C1125 1.447 . S
C1126 C1127 1.383 1_455 S
C1126 H1153 0.923 1_455 S
C1127 C1126 1.383 1_655 S
C1127 C1128 1.321 1_655 S
C1128 C1127 1.321 1_455 S
C1128 C1129 1.403 . S
C1128 H1154 0.934 . S
C1129 C1124 1.413 . S
C1129 C1128 1.403 . S
C1129 H1155 0.930 . S
C1130 O1144 1.275 . S
C1130 O1145 1.256 1_554 S
C1131 O1146 1.259 . S
C1131 O1147 1.268 1_556 S
C1132 Ho1121 2.811 . S
C1132 C1133 1.488 . S
C1132 O1148 1.215 . S
C1132 O1149 1.289 . S
C1133 C1132 1.488 . S
C1133 C1134 1.348 . S
C1133 C1138 1.413 . S
C1134 C1133 1.348 . S
C1134 C1135 1.442 . S
C1134 H1156 0.930 . S
C1135 C1134 1.442 . S
C1135 C1136 1.381 . S
C1135 H1157 0.931 . S
C1136 C1135 1.381 . S
C1136 C1137 1.321 . S
C1137 C1136 1.321 . S
C1137 C1138 1.403 . S
C1137 H1158 0.934 . S
C1138 C1133 1.413 . S
C1138 C1137 1.403 . S
C1138 H1159 0.930 . S
C1139 O1150 1.275 . S
C1139 O1151 1.256 1_556 S
O1140 Ho1120 2.322 . S
O1140 C1122 1.259 . S
O1141 Ho1121 2.346 . S
O1141 C1122 1.268 1_556 S
O1142 Ho1120 2.378 . S
O1142 C1123 1.215 . S
O1143 Ho1120 2.524 . S
O1143 C1123 1.289 . S
O1144 Ho1120 2.381 . S
O1144 C1130 1.275 . S
O1145 Ho1120 2.669 1_556 S
O1145 Ho1121 2.305 . S
O1145 C1130 1.256 1_556 S
O1146 Ho1121 2.322 . S
O1146 C1131 1.259 . S
O1147 Ho1120 2.346 . S
O1147 C1131 1.268 1_554 S
O1148 Ho1121 2.378 . S
O1148 C1132 1.215 . S
O1149 Ho1121 2.524 . S
O1149 C1132 1.289 . S
O1150 Ho1121 2.381 . S
O1150 C1139 1.275 . S
O1151 Ho1120 2.305 . S
O1151 Ho1121 2.669 1_554 S
O1151 C1139 1.256 1_554 S
H1152 C1125 0.930 . S
H1153 C1126 0.923 1_655 S
H1154 C1128 0.934 . S
H1155 C1129 0.930 . S
H1156 C1134 0.930 . S
H1157 C1135 0.931 . S
H1158 C1137 0.934 . S
H1159 C1138 0.930 . S
Ho1160 C1163 2.811 . S
Ho1160 O1180 2.322 . S
Ho1160 O1182 2.378 . S
Ho1160 O1183 2.524 . S
Ho1160 O1184 2.381 . S
Ho1160 O1185 2.669 1_554 S
Ho1160 O1187 2.346 . S
Ho1160 O1191 2.305 . S
Ho1161 C1172 2.811 . S
Ho1161 O1181 2.346 . S
Ho1161 O1185 2.305 . S
Ho1161 O1186 2.322 . S
Ho1161 O1188 2.378 . S
Ho1161 O1189 2.524 . S
Ho1161 O1190 2.381 . S
Ho1161 O1191 2.669 1_556 S
C1162 O1180 1.259 . S
C1162 O1181 1.268 1_554 S
C1163 Ho1160 2.811 . S
C1163 C1164 1.488 . S
C1163 O1182 1.215 . S
C1163 O1183 1.289 . S
C1164 C1163 1.488 . S
C1164 C1165 1.348 . S
C1164 C1169 1.413 . S
C1165 C1164 1.348 . S
C1165 C1166 1.442 . S
C1165 H1192 0.930 . S
C1166 C1165 1.442 . S
C1166 C1167 1.381 . S
C1166 H1193 0.931 . S
C1167 C1166 1.381 . S
C1167 C1168 1.321 . S
C1168 C1167 1.321 . S
C1168 C1169 1.403 . S
C1168 H1194 0.934 . S
C1169 C1164 1.413 . S
C1169 C1168 1.403 . S
C1169 H1195 0.930 . S
C1170 O1184 1.275 . S
C1170 O1185 1.256 1_554 S
C1171 O1186 1.259 . S
C1171 O1187 1.268 1_556 S
C1172 Ho1161 2.811 . S
C1172 C1173 1.488 . S
C1172 O1188 1.215 . S
C1172 O1189 1.289 . S
C1173 C1172 1.488 . S
C1173 C1174 1.348 . S
C1173 C1178 1.413 . S
C1174 C1173 1.348 . S
C1174 C1175 1.442 . S
C1174 H1196 0.930 . S
C1175 C1174 1.442 . S
C1175 C1176 1.381 . S
C1175 H1197 0.931 . S
C1176 C1175 1.381 . S
C1176 C1177 1.321 . S
C1177 C1176 1.321 . S
C1177 C1178 1.403 . S
C1177 H1198 0.934 . S
C1178 C1173 1.413 . S
C1178 C1177 1.403 . S
C1178 H1199 0.930 . S
C1179 O1190 1.275 . S
C1179 O1191 1.256 1_556 S
O1180 Ho1160 2.322 . S
O1180 C1162 1.259 . S
O1181 Ho1161 2.346 . S
O1181 C1162 1.268 1_556 S
O1182 Ho1160 2.378 . S
O1182 C1163 1.215 . S
O1183 Ho1160 2.524 . S
O1183 C1163 1.289 . S
O1184 Ho1160 2.381 . S
O1184 C1170 1.275 . S
O1185 Ho1160 2.669 1_556 S
O1185 Ho1161 2.305 . S
O1185 C1170 1.256 1_556 S
O1186 Ho1161 2.322 . S
O1186 C1171 1.259 . S
O1187 Ho1160 2.346 . S
O1187 C1171 1.268 1_554 S
O1188 Ho1161 2.378 . S
O1188 C1172 1.215 . S
O1189 Ho1161 2.524 . S
O1189 C1172 1.289 . S
O1190 Ho1161 2.381 . S
O1190 C1179 1.275 . S
O1191 Ho1160 2.305 . S
O1191 Ho1161 2.669 1_554 S
O1191 C1179 1.256 1_554 S
H1192 C1165 0.930 . S
H1193 C1166 0.931 . S
H1194 C1168 0.934 . S
H1195 C1169 0.930 . S
H1196 C1174 0.930 . S
H1197 C1175 0.931 . S
H1198 C1177 0.934 . S
H1199 C1178 0.930 . S
Ho1200 C1203 2.811 . S
Ho1200 O1220 2.322 . S
Ho1200 O1222 2.378 . S
Ho1200 O1223 2.524 . S
Ho1200 O1224 2.381 . S
Ho1200 O1225 2.669 . S
Ho1200 O1227 2.346 . S
Ho1200 O1231 2.305 . S
Ho1201 C1212 2.811 . S
Ho1201 O1221 2.346 . S
Ho1201 O1225 2.305 . S
Ho1201 O1226 2.322 . S
Ho1201 O1228 2.378 . S
Ho1201 O1229 2.524 . S
Ho1201 O1230 2.381 . S
Ho1201 O1231 2.669 . S
C1202 O1220 1.259 . S
C1202 O1221 1.268 . S
C1203 Ho1200 2.811 . S
C1203 C1204 1.488 . S
C1203 O1222 1.215 . S
C1203 O1223 1.289 . S
C1204 C1203 1.488 . S
C1204 C1205 1.348 . S
C1204 C1209 1.413 . S
C1205 C1204 1.348 . S
C1205 C1206 1.442 . S
C1205 H1232 0.930 . S
C1206 C1205 1.442 . S
C1206 C1207 1.381 . S
C1206 H1233 0.931 . S
C1207 C1206 1.381 . S
C1207 C1208 1.321 . S
C1208 C1207 1.321 . S
C1208 C1209 1.403 . S
C1208 H1234 0.934 . S
C1209 C1204 1.413 . S
C1209 C1208 1.403 . S
C1209 H1235 0.930 . S
C1210 O1224 1.275 . S
C1210 O1225 1.256 . S
C1211 O1226 1.259 . S
C1211 O1227 1.268 . S
C1212 Ho1201 2.811 . S
C1212 C1213 1.488 . S
C1212 O1228 1.215 . S
C1212 O1229 1.289 . S
C1213 C1212 1.488 . S
C1213 C1214 1.348 . S
C1213 C1218 1.413 . S
C1214 C1213 1.348 . S
C1214 C1215 1.444 . S
C1214 H1236 0.930 . S
C1215 C1214 1.444 . S
C1215 C1216 1.377 1_455 S
C1215 H1237 0.932 1_455 S
C1216 C1215 1.377 1_655 S
C1216 C1217 1.321 1_655 S
C1217 C1216 1.321 1_455 S
C1217 C1218 1.403 . S
C1217 H1238 0.934 . S
C1218 C1213 1.413 . S
C1218 C1217 1.403 . S
C1218 H1239 0.930 . S
C1219 O1230 1.275 . S
C1219 O1231 1.256 . S
O1220 Ho1200 2.322 . S
O1220 C1202 1.259 . S
O1221 Ho1201 2.346 . S
O1221 C1202 1.268 . S
O1222 Ho1200 2.378 . S
O1222 C1203 1.215 . S
O1223 Ho1200 2.524 . S
O1223 C1203 1.289 . S
O1224 Ho1200 2.381 . S
O1224 C1210 1.275 . S
O1225 Ho1200 2.669 . S
O1225 Ho1201 2.305 . S
O1225 C1210 1.256 . S
O1226 Ho1201 2.322 . S
O1226 C1211 1.259 . S
O1227 Ho1200 2.346 . S
O1227 C1211 1.268 . S
O1228 Ho1201 2.378 . S
O1228 C1212 1.215 . S
O1229 Ho1201 2.524 . S
O1229 C1212 1.289 . S
O1230 Ho1201 2.381 . S
O1230 C1219 1.275 . S
O1231 Ho1200 2.305 . S
O1231 Ho1201 2.669 . S
O1231 C1219 1.256 . S
H1232 C1205 0.930 . S
H1233 C1206 0.931 . S
H1234 C1208 0.934 . S
H1235 C1209 0.930 . S
H1236 C1214 0.930 . S
H1237 C1215 0.932 1_655 S
H1238 C1217 0.934 . S
H1239 C1218 0.930 . S
Ho1240 C1243 2.811 . S
Ho1240 O1260 2.322 . S
Ho1240 O1262 2.378 . S
Ho1240 O1263 2.524 . S
Ho1240 O1264 2.381 . S
Ho1240 O1265 2.669 . S
Ho1240 O1267 2.346 . S
Ho1240 O1271 2.305 . S
Ho1241 C1252 2.811 . S
Ho1241 O1261 2.346 . S
Ho1241 O1265 2.305 . S
Ho1241 O1266 2.322 . S
Ho1241 O1268 2.378 . S
Ho1241 O1269 2.524 . S
Ho1241 O1270 2.381 . S
Ho1241 O1271 2.669 . S
C1242 O1260 1.259 . S
C1242 O1261 1.268 . S
C1243 Ho1240 2.811 . S
C1243 C1244 1.488 . S
C1243 O1262 1.215 . S
C1243 O1263 1.289 . S
C1244 C1243 1.488 . S
C1244 C1245 1.348 . S
C1244 C1249 1.413 . S
C1245 C1244 1.348 . S
C1245 C1246 1.442 . S
C1245 H1272 0.930 . S
C1246 C1245 1.442 . S
C1246 C1247 1.381 . S
C1246 H1273 0.931 . S
C1247 C1246 1.381 . S
C1247 C1248 1.321 . S
C1248 C1247 1.321 . S
C1248 C1249 1.403 . S
C1248 H1274 0.934 . S
C1249 C1244 1.413 . S
C1249 C1248 1.403 . S
C1249 H1275 0.930 . S
C1250 O1264 1.275 . S
C1250 O1265 1.256 . S
C1251 O1266 1.259 . S
C1251 O1267 1.268 . S
C1252 Ho1241 2.811 . S
C1252 C1253 1.488 . S
C1252 O1268 1.215 . S
C1252 O1269 1.289 . S
C1253 C1252 1.488 . S
C1253 C1254 1.348 . S
C1253 C1258 1.413 . S
C1254 C1253 1.348 . S
C1254 C1255 1.442 . S
C1254 H1276 0.930 . S
C1255 C1254 1.442 . S
C1255 C1256 1.381 . S
C1255 H1277 0.931 . S
C1256 C1255 1.381 . S
C1256 C1257 1.321 . S
C1257 C1256 1.321 . S
C1257 C1258 1.403 . S
C1257 H1278 0.934 . S
C1258 C1253 1.413 . S
C1258 C1257 1.403 . S
C1258 H1279 0.930 . S
C1259 O1270 1.275 . S
C1259 O1271 1.256 . S
O1260 Ho1240 2.322 . S
O1260 C1242 1.259 . S
O1261 Ho1241 2.346 . S
O1261 C1242 1.268 . S
O1262 Ho1240 2.378 . S
O1262 C1243 1.215 . S
O1263 Ho1240 2.524 . S
O1263 C1243 1.289 . S
O1264 Ho1240 2.381 . S
O1264 C1250 1.275 . S
O1265 Ho1240 2.669 . S
O1265 Ho1241 2.305 . S
O1265 C1250 1.256 . S
O1266 Ho1241 2.322 . S
O1266 C1251 1.259 . S
O1267 Ho1240 2.346 . S
O1267 C1251 1.268 . S
O1268 Ho1241 2.378 . S
O1268 C1252 1.215 . S
O1269 Ho1241 2.524 . S
O1269 C1252 1.289 . S
O1270 Ho1241 2.381 . S
O1270 C1259 1.275 . S
O1271 Ho1240 2.305 . S
O1271 Ho1241 2.669 . S
O1271 C1259 1.256 . S
H1272 C1245 0.930 . S
H1273 C1246 0.931 . S
H1274 C1248 0.934 . S
H1275 C1249 0.930 . S
H1276 C1254 0.930 . S
H1277 C1255 0.931 . S
H1278 C1257 0.934 . S
H1279 C1258 0.930 . S
Ho1280 C1283 2.811 . S
Ho1280 O1300 2.322 . S
Ho1280 O1302 2.378 . S
Ho1280 O1303 2.524 . S
Ho1280 O1304 2.381 . S
Ho1280 O1305 2.669 . S
Ho1280 O1307 2.346 . S
Ho1280 O1311 2.305 . S
Ho1281 C1292 2.811 . S
Ho1281 O1301 2.346 . S
Ho1281 O1305 2.305 . S
Ho1281 O1306 2.322 . S
Ho1281 O1308 2.378 . S
Ho1281 O1309 2.524 . S
Ho1281 O1310 2.381 . S
Ho1281 O1311 2.669 . S
C1282 O1300 1.259 . S
C1282 O1301 1.268 . S
C1283 Ho1280 2.811 . S
C1283 C1284 1.488 . S
C1283 O1302 1.215 . S
C1283 O1303 1.289 . S
C1284 C1283 1.488 . S
C1284 C1285 1.348 . S
C1284 C1289 1.413 . S
C1285 C1284 1.348 . S
C1285 C1286 1.442 . S
C1285 H1312 0.930 . S
C1286 C1285 1.442 . S
C1286 C1287 1.381 . S
C1286 H1313 0.931 . S
C1287 C1286 1.381 . S
C1287 C1288 1.321 . S
C1288 C1287 1.321 . S
C1288 C1289 1.403 . S
C1288 H1314 0.934 . S
C1289 C1284 1.413 . S
C1289 C1288 1.403 . S
C1289 H1315 0.930 . S
C1290 O1304 1.275 . S
C1290 O1305 1.256 . S
C1291 O1306 1.259 . S
C1291 O1307 1.268 . S
C1292 Ho1281 2.811 . S
C1292 C1293 1.488 . S
C1292 O1308 1.215 . S
C1292 O1309 1.289 . S
C1293 C1292 1.488 . S
C1293 C1294 1.348 . S
C1293 C1298 1.413 . S
C1294 C1293 1.348 . S
C1294 C1295 1.445 . S
C1294 H1316 0.930 . S
C1295 C1294 1.445 . S
C1295 C1296 1.383 1_565 S
C1295 H1317 0.925 1_565 S
C1296 C1295 1.383 1_545 S
C1296 C1297 1.321 1_545 S
C1297 C1296 1.321 1_565 S
C1297 C1298 1.403 . S
C1297 H1318 0.934 . S
C1298 C1293 1.413 . S
C1298 C1297 1.403 . S
C1298 H1319 0.930 . S
C1299 O1310 1.275 . S
C1299 O1311 1.256 . S
O1300 Ho1280 2.322 . S
O1300 C1282 1.259 . S
O1301 Ho1281 2.346 . S
O1301 C1282 1.268 . S
O1302 Ho1280 2.378 . S
O1302 C1283 1.215 . S
O1303 Ho1280 2.524 . S
O1303 C1283 1.289 . S
O1304 Ho1280 2.381 . S
O1304 C1290 1.275 . S
O1305 Ho1280 2.669 . S
O1305 Ho1281 2.305 . S
O1305 C1290 1.256 . S
O1306 Ho1281 2.322 . S
O1306 C1291 1.259 . S
O1307 Ho1280 2.346 . S
O1307 C1291 1.268 . S
O1308 Ho1281 2.378 . S
O1308 C1292 1.215 . S
O1309 Ho1281 2.524 . S
O1309 C1292 1.289 . S
O1310 Ho1281 2.381 . S
O1310 C1299 1.275 . S
O1311 Ho1280 2.305 . S
O1311 Ho1281 2.669 . S
O1311 C1299 1.256 . S
H1312 C1285 0.930 . S
H1313 C1286 0.931 . S
H1314 C1288 0.934 . S
H1315 C1289 0.930 . S
H1316 C1294 0.930 . S
H1317 C1295 0.925 1_545 S
H1318 C1297 0.934 . S
H1319 C1298 0.930 . S
Ho1320 C1323 2.811 . S
Ho1320 O1340 2.322 . S
Ho1320 O1342 2.378 . S
Ho1320 O1343 2.524 . S
Ho1320 O1344 2.381 1_455 S
Ho1320 O1345 2.669 . S
Ho1320 O1347 2.346 1_455 S
Ho1320 O1351 2.305 . S
Ho1321 C1332 2.811 . S
Ho1321 O1341 2.346 . S
Ho1321 O1345 2.305 . S
Ho1321 O1346 2.322 . S
Ho1321 O1348 2.378 . S
Ho1321 O1349 2.524 1_455 S
Ho1321 O1350 2.381 . S
Ho1321 O1351 2.669 . S
C1322 O1340 1.259 . S
C1322 O1341 1.268 . S
C1323 Ho1320 2.811 . S
C1323 C1324 1.488 . S
C1323 O1342 1.215 . S
C1323 O1343 1.289 . S
C1324 C1323 1.488 . S
C1324 C1325 1.348 . S
C1324 C1329 1.413 . S
C1325 C1324 1.348 . S
C1325 C1326 1.442 . S
C1325 H1352 0.930 . S
C1326 C1325 1.442 . S
C1326 C1327 1.381 . S
C1326 H1353 0.931 . S
C1327 C1326 1.381 . S
C1327 C1328 1.321 . S
C1328 C1327 1.321 . S
C1328 C1329 1.403 . S
C1328 H1354 0.934 . S
C1329 C1324 1.413 . S
C1329 C1328 1.403 . S
C1329 H1355 0.930 . S
C1330 O1344 1.275 . S
C1330 O1345 1.256 1_655 S
C1331 O1346 1.259 1_655 S
C1331 O1347 1.268 . S
C1332 Ho1321 2.811 . S
C1332 C1333 1.488 . S
C1332 O1348 1.215 . S
C1332 O1349 1.289 1_455 S
C1333 C1332 1.488 . S
C1333 C1334 1.348 1_455 S
C1333 C1338 1.413 . S
C1334 C1333 1.348 1_655 S
C1334 C1335 1.442 . S
C1334 H1356 0.930 . S
C1335 C1334 1.442 . S
C1335 C1336 1.381 . S
C1335 H1357 0.931 . S
C1336 C1335 1.381 . S
C1336 C1337 1.321 1_655 S
C1337 C1336 1.321 1_455 S
C1337 C1338 1.403 . S
C1337 H1358 0.934 . S
C1338 C1333 1.413 . S
C1338 C1337 1.403 . S
C1338 H1359 0.930 . S
C1339 O1350 1.275 . S
C1339 O1351 1.256 . S
O1340 Ho1320 2.322 . S
O1340 C1322 1.259 . S
O1341 Ho1321 2.346 . S
O1341 C1322 1.268 . S
O1342 Ho1320 2.378 . S
O1342 C1323 1.215 . S
O1343 Ho1320 2.524 . S
O1343 C1323 1.289 . S
O1344 Ho1320 2.381 1_655 S
O1344 C1330 1.275 . S
O1345 Ho1320 2.669 . S
O1345 Ho1321 2.305 . S
O1345 C1330 1.256 1_455 S
O1346 Ho1321 2.322 . S
O1346 C1331 1.259 1_455 S
O1347 Ho1320 2.346 1_655 S
O1347 C1331 1.268 . S
O1348 Ho1321 2.378 . S
O1348 C1332 1.215 . S
O1349 Ho1321 2.524 1_655 S
O1349 C1332 1.289 1_655 S
O1350 Ho1321 2.381 . S
O1350 C1339 1.275 . S
O1351 Ho1320 2.305 . S
O1351 Ho1321 2.669 . S
O1351 C1339 1.256 . S
H1352 C1325 0.930 . S
H1353 C1326 0.931 . S
H1354 C1328 0.934 . S
H1355 C1329 0.930 . S
H1356 C1334 0.930 . S
H1357 C1335 0.931 . S
H1358 C1337 0.934 . S
H1359 C1338 0.930 . S
Ho1360 C1363 2.811 . S
Ho1360 O1380 2.322 . S
Ho1360 O1382 2.378 . S
Ho1360 O1383 2.524 . S
Ho1360 O1384 2.381 . S
Ho1360 O1385 2.669 . S
Ho1360 O1387 2.346 . S
Ho1360 O1391 2.305 . S
Ho1361 C1372 2.811 . S
Ho1361 O1381 2.346 . S
Ho1361 O1385 2.305 . S
Ho1361 O1386 2.322 . S
Ho1361 O1388 2.378 . S
Ho1361 O1389 2.524 . S
Ho1361 O1390 2.381 . S
Ho1361 O1391 2.669 . S
C1362 O1380 1.259 . S
C1362 O1381 1.268 . S
C1363 Ho1360 2.811 . S
C1363 C1364 1.488 . S
C1363 O1382 1.215 . S
C1363 O1383 1.289 . S
C1364 C1363 1.488 . S
C1364 C1365 1.348 . S
C1364 C1369 1.413 . S
C1365 C1364 1.348 . S
C1365 C1366 1.442 . S
C1365 H1392 0.930 . S
C1366 C1365 1.442 . S
C1366 C1367 1.381 . S
C1366 H1393 0.931 . S
C1367 C1366 1.381 . S
C1367 C1368 1.321 . S
C1368 C1367 1.321 . S
C1368 C1369 1.403 . S
C1368 H1394 0.934 . S
C1369 C1364 1.413 . S
C1369 C1368 1.403 . S
C1369 H1395 0.930 . S
C1370 O1384 1.275 . S
C1370 O1385 1.256 . S
C1371 O1386 1.259 . S
C1371 O1387 1.268 . S
C1372 Ho1361 2.811 . S
C1372 C1373 1.488 . S
C1372 O1388 1.215 . S
C1372 O1389 1.289 . S
C1373 C1372 1.488 . S
C1373 C1374 1.348 . S
C1373 C1378 1.413 . S
C1374 C1373 1.348 . S
C1374 C1375 1.442 . S
C1374 H1396 0.930 . S
C1375 C1374 1.442 . S
C1375 C1376 1.381 . S
C1375 H1397 0.931 . S
C1376 C1375 1.381 . S
C1376 C1377 1.321 . S
C1377 C1376 1.321 . S
C1377 C1378 1.403 . S
C1377 H1398 0.934 . S
C1378 C1373 1.413 . S
C1378 C1377 1.403 . S
C1378 H1399 0.930 . S
C1379 O1390 1.275 . S
C1379 O1391 1.256 . S
O1380 Ho1360 2.322 . S
O1380 C1362 1.259 . S
O1381 Ho1361 2.346 . S
O1381 C1362 1.268 . S
O1382 Ho1360 2.378 . S
O1382 C1363 1.215 . S
O1383 Ho1360 2.524 . S
O1383 C1363 1.289 . S
O1384 Ho1360 2.381 . S
O1384 C1370 1.275 . S
O1385 Ho1360 2.669 . S
O1385 Ho1361 2.305 . S
O1385 C1370 1.256 . S
O1386 Ho1361 2.322 . S
O1386 C1371 1.259 . S
O1387 Ho1360 2.346 . S
O1387 C1371 1.268 . S
O1388 Ho1361 2.378 . S
O1388 C1372 1.215 . S
O1389 Ho1361 2.524 . S
O1389 C1372 1.289 . S
O1390 Ho1361 2.381 . S
O1390 C1379 1.275 . S
O1391 Ho1360 2.305 . S
O1391 Ho1361 2.669 . S
O1391 C1379 1.256 . S
H1392 C1365 0.930 . S
H1393 C1366 0.931 . S
H1394 C1368 0.934 . S
H1395 C1369 0.930 . S
H1396 C1374 0.930 . S
H1397 C1375 0.931 . S
H1398 C1377 0.934 . S
H1399 C1378 0.930 . S
Ho1400 C1403 2.811 . S
Ho1400 O1420 2.322 . S
Ho1400 O1422 2.378 . S
Ho1400 O1423 2.524 . S
Ho1400 O1424 2.381 1_565 S
Ho1400 O1425 2.669 . S
Ho1400 O1427 2.346 1_565 S
Ho1400 O1431 2.305 . S
Ho1401 C1412 2.811 . S
Ho1401 O1421 2.346 . S
Ho1401 O1425 2.305 . S
Ho1401 O1426 2.322 . S
Ho1401 O1428 2.378 . S
Ho1401 O1429 2.524 1_565 S
Ho1401 O1430 2.381 . S
Ho1401 O1431 2.669 . S
C1402 O1420 1.259 . S
C1402 O1421 1.268 . S
C1403 Ho1400 2.811 . S
C1403 C1404 1.488 . S
C1403 O1422 1.215 . S
C1403 O1423 1.289 . S
C1404 C1403 1.488 . S
C1404 C1405 1.348 . S
C1404 C1409 1.413 . S
C1405 C1404 1.348 . S
C1405 C1406 1.442 . S
C1405 H1432 0.930 . S
C1406 C1405 1.442 . S
C1406 C1407 1.381 . S
C1406 H1433 0.931 . S
C1407 C1406 1.381 . S
C1407 C1408 1.321 . S
C1408 C1407 1.321 . S
C1408 C1409 1.403 . S
C1408 H1434 0.934 . S
C1409 C1404 1.413 . S
C1409 C1408 1.403 . S
C1409 H1435 0.930 . S
C1410 O1424 1.275 . S
C1410 O1425 1.256 1_545 S
C1411 O1426 1.259 1_545 S
C1411 O1427 1.268 . S
C1412 Ho1401 2.811 . S
C1412 C1413 1.488 . S
C1412 O1428 1.215 . S
C1412 O1429 1.289 1_565 S
C1413 C1412 1.488 . S
C1413 C1414 1.348 1_565 S
C1413 C1418 1.413 . S
C1414 C1413 1.348 1_545 S
C1414 C1415 1.442 . S
C1414 H1436 0.930 . S
C1415 C1414 1.442 . S
C1415 C1416 1.381 . S
C1415 H1437 0.931 . S
C1416 C1415 1.381 . S
C1416 C1417 1.321 1_545 S
C1417 C1416 1.321 1_565 S
C1417 C1418 1.403 . S
C1417 H1438 0.934 . S
C1418 C1413 1.413 . S
C1418 C1417 1.403 . S
C1418 H1439 0.930 . S
C1419 O1430 1.275 . S
C1419 O1431 1.256 . S
O1420 Ho1400 2.322 . S
O1420 C1402 1.259 . S
O1421 Ho1401 2.346 . S
O1421 C1402 1.268 . S
O1422 Ho1400 2.378 . S
O1422 C1403 1.215 . S
O1423 Ho1400 2.524 . S
O1423 C1403 1.289 . S
O1424 Ho1400 2.381 1_545 S
O1424 C1410 1.275 . S
O1425 Ho1400 2.669 . S
O1425 Ho1401 2.305 . S
O1425 C1410 1.256 1_565 S
O1426 Ho1401 2.322 . S
O1426 C1411 1.259 1_565 S
O1427 Ho1400 2.346 1_545 S
O1427 C1411 1.268 . S
O1428 Ho1401 2.378 . S
O1428 C1412 1.215 . S
O1429 Ho1401 2.524 1_545 S
O1429 C1412 1.289 1_545 S
O1430 Ho1401 2.381 . S
O1430 C1419 1.275 . S
O1431 Ho1400 2.305 . S
O1431 Ho1401 2.669 . S
O1431 C1419 1.256 . S
H1432 C1405 0.930 . S
H1433 C1406 0.931 . S
H1434 C1408 0.934 . S
H1435 C1409 0.930 . S
H1436 C1414 0.930 . S
H1437 C1415 0.931 . S
H1438 C1417 0.934 . S
H1439 C1418 0.930 . S
C10 C91 2.376 1_545 S
C11 C50 2.375 1_455 S
C90 C51 2.376 . S
C130 C171 2.476 1_455 S
C211 C170 2.474 . S
C210 C131 2.474 1_565 S
C259 C322 2.376 1_565 S
C299 C242 2.375 1_455 S
C339 C282 2.376 . S
C379 C402 2.476 1_655 S
C442 C419 2.474 . S
C362 C459 2.474 1_565 S
C571 C490 2.456 . S
C530 C491 2.456 . S
C531 C570 2.455 . S
C610 C651 2.485 . S
C691 C650 2.486 . S
C611 C690 2.486 . S
C739 C802 2.401 . S
C779 C722 2.401 . S
C762 C819 2.402 . S
C882 C859 2.239 1_554 S
C899 C922 2.240 1_556 S
C842 C939 2.239 1_554 S
C970 C1051 2.401 . S
C1010 C971 2.401 . S
C1050 C1011 2.402 . S
C1090 C1131 2.239 1_554 S
C1130 C1171 2.240 1_554 S
C1170 C1091 2.239 1_554 S
C1219 C1282 2.456 . S
C1259 C1202 2.456 . S
C1242 C1299 2.455 . S
C1339 C1362 2.485 . S
C1379 C1402 2.486 . S
C1322 C1419 2.486 . S
C2 C810 2.451 . S
C730 C42 2.452 . S
C82 C770 2.451 . S
C122 C1370 2.322 . S
C1410 C162 2.325 . S
C202 C1330 2.326 . S
C1059 C251 2.451 . S
C291 C979 2.452 . S
C331 C1019 2.451 . S
C659 C371 2.322 . S
C699 C411 2.325 . S
C619 C451 2.326 . S
C482 C1290 2.393 1_655 S
C522 C1210 2.393 . S
C1250 C562 2.392 1_565 S
C410 C602 2.371 . S
C450 C642 2.372 . S
C370 C682 2.371 . S
C99 C731 2.439 . S
C771 C19 2.440 . S
C811 C59 2.440 . S
C1139 C851 2.385 1_565 S
C1179 C891 2.389 1_455 S
C931 C1099 2.386 . S
C330 C962 2.439 . S
C250 C1002 2.440 . S
C290 C1042 2.440 . S
C1082 C890 2.385 1_565 S
C930 C1122 2.389 1_655 S
C1162 C850 2.386 . S
C1211 C579 2.393 1_455 S
C1251 C499 2.393 . S
C1291 C539 2.392 1_565 S
C1331 C179 2.371 . S
C219 C1371 2.372 . S
C139 C1411 2.371 . S
C1167 C7 3.463 . S
C1087 C47 3.462 1_545 S
C87 C1127 3.461 1_455 S
C527 C127 3.569 . S
C167 C567 3.569 1_545 S
C207 C487 3.568 1_655 S
C256 C936 3.463 . S
C296 C856 3.462 1_545 S
C336 C896 3.461 1_655 S
C1256 C376 3.569 . S
C1296 C416 3.569 1_545 S
C1216 C456 3.568 1_655 S
C607 C1007 3.568 1_455 S
C647 C1047 3.569 . S
C687 C967 3.569 1_565 S
C736 C1416 3.569 1_565 S
C1336 C776 3.568 1_655 S
C816 C1376 3.569 . S
C176 C16 1.545 1_455 S
C216 C56 1.546 . S
C136 C96 1.545 1_565 S
C247 C407 1.545 1_455 S
C447 C287 1.545 . S
C327 C367 1.545 1_565 S
C656 C496 1.631 . S
C696 C536 1.630 . S
C616 C576 1.631 . S
C887 C727 2.118 . S
C767 C927 2.118 . S
C807 C847 2.118 . S
C976 C1136 2.118 . S
C1176 C1016 2.118 . S
C1056 C1096 2.118 . S
C1207 C1367 1.631 . S
C1407 C1247 1.630 . S
C1287 C1327 1.631 . S
