# Generated by pormake.
# Topology wig, (6)-cn, num edge types: 1
# Building blocks:
#     Node 0, Type 0, BuildingBlock: OJICUG_clean_sbu_0, # of connection points: 6
#     Node 1, Type 0, BuildingBlock: OJICUG_clean_sbu_0, # of connection points: 6
#     Node 2, Type 0, BuildingBlock: OJICUG_clean_sbu_0, # of connection points: 6
#     Node 3, Type 0, BuildingBlock: OJICUG_clean_sbu_0, # of connection points: 6
#     Node 4, Type 0, BuildingBlock: OJICUG_clean_sbu_0, # of connection points: 6
#     Node 5, Type 0, BuildingBlock: OJICUG_clean_sbu_0, # of connection points: 6
#     Node 6, Type 0, BuildingBlock: OJICUG_clean_sbu_0, # of connection points: 6
#     Node 7, Type 0, BuildingBlock: OJICUG_clean_sbu_0, # of connection points: 6
#     Node 8, Type 0, BuildingBlock: OJICUG_clean_sbu_0, # of connection points: 6
#     Node 9, Type 0, BuildingBlock: OJICUG_clean_sbu_0, # of connection points: 6
#     Node 10, Type 0, BuildingBlock: OJICUG_clean_sbu_0, # of connection points: 6
#     Node 11, Type 0, BuildingBlock: OJICUG_clean_sbu_0, # of connection points: 6
#     Node 12, Type 0, BuildingBlock: OJICUG_clean_sbu_0, # of connection points: 6
#     Node 13, Type 0, BuildingBlock: OJICUG_clean_sbu_0, # of connection points: 6
#     Node 14, Type 0, BuildingBlock: OJICUG_clean_sbu_0, # of connection points: 6
#     Node 15, Type 0, BuildingBlock: OJICUG_clean_sbu_0, # of connection points: 6
#     Edge 16, Type (0, 0), BuildingBlock: OJICUG_clean_linker_0, # of connection points: 2
#     Edge 17, Type (0, 0), BuildingBlock: OJICUG_clean_linker_0, # of connection points: 2
#     Edge 18, Type (0, 0), BuildingBlock: OJICUG_clean_linker_0, # of connection points: 2
#     Edge 19, Type (0, 0), BuildingBlock: OJICUG_clean_linker_0, # of connection points: 2
#     Edge 20, Type (0, 0), BuildingBlock: OJICUG_clean_linker_0, # of connection points: 2
#     Edge 21, Type (0, 0), BuildingBlock: OJICUG_clean_linker_0, # of connection points: 2
#     Edge 22, Type (0, 0), BuildingBlock: OJICUG_clean_linker_0, # of connection points: 2
#     Edge 23, Type (0, 0), BuildingBlock: OJICUG_clean_linker_0, # of connection points: 2
#     Edge 24, Type (0, 0), BuildingBlock: OJICUG_clean_linker_0, # of connection points: 2
#     Edge 25, Type (0, 0), BuildingBlock: OJICUG_clean_linker_0, # of connection points: 2
#     Edge 26, Type (0, 0), BuildingBlock: OJICUG_clean_linker_0, # of connection points: 2
#     Edge 27, Type (0, 0), BuildingBlock: OJICUG_clean_linker_0, # of connection points: 2
#     Edge 28, Type (0, 0), BuildingBlock: OJICUG_clean_linker_0, # of connection points: 2
#     Edge 29, Type (0, 0), BuildingBlock: OJICUG_clean_linker_0, # of connection points: 2
#     Edge 30, Type (0, 0), BuildingBlock: OJICUG_clean_linker_0, # of connection points: 2
#     Edge 31, Type (0, 0), BuildingBlock: OJICUG_clean_linker_0, # of connection points: 2
#     Edge 32, Type (0, 0), BuildingBlock: OJICUG_clean_linker_0, # of connection points: 2
#     Edge 33, Type (0, 0), BuildingBlock: OJICUG_clean_linker_0, # of connection points: 2
#     Edge 34, Type (0, 0), BuildingBlock: OJICUG_clean_linker_0, # of connection points: 2
#     Edge 35, Type (0, 0), BuildingBlock: OJICUG_clean_linker_0, # of connection points: 2
#     Edge 36, Type (0, 0), BuildingBlock: OJICUG_clean_linker_0, # of connection points: 2
#     Edge 37, Type (0, 0), BuildingBlock: OJICUG_clean_linker_0, # of connection points: 2
#     Edge 38, Type (0, 0), BuildingBlock: OJICUG_clean_linker_0, # of connection points: 2
#     Edge 39, Type (0, 0), BuildingBlock: OJICUG_clean_linker_0, # of connection points: 2
#     Edge 40, Type (0, 0), BuildingBlock: OJICUG_clean_linker_0, # of connection points: 2
#     Edge 41, Type (0, 0), BuildingBlock: OJICUG_clean_linker_0, # of connection points: 2
#     Edge 42, Type (0, 0), BuildingBlock: OJICUG_clean_linker_0, # of connection points: 2
#     Edge 43, Type (0, 0), BuildingBlock: OJICUG_clean_linker_0, # of connection points: 2
#     Edge 44, Type (0, 0), BuildingBlock: OJICUG_clean_linker_0, # of connection points: 2
#     Edge 45, Type (0, 0), BuildingBlock: OJICUG_clean_linker_0, # of connection points: 2
#     Edge 46, Type (0, 0), BuildingBlock: OJICUG_clean_linker_0, # of connection points: 2
#     Edge 47, Type (0, 0), BuildingBlock: OJICUG_clean_linker_0, # of connection points: 2
#     Edge 48, Type (0, 0), BuildingBlock: OJICUG_clean_linker_0, # of connection points: 2
#     Edge 49, Type (0, 0), BuildingBlock: OJICUG_clean_linker_0, # of connection points: 2
#     Edge 50, Type (0, 0), BuildingBlock: OJICUG_clean_linker_0, # of connection points: 2
#     Edge 51, Type (0, 0), BuildingBlock: OJICUG_clean_linker_0, # of connection points: 2
#     Edge 52, Type (0, 0), BuildingBlock: OJICUG_clean_linker_0, # of connection points: 2
#     Edge 53, Type (0, 0), BuildingBlock: OJICUG_clean_linker_0, # of connection points: 2
#     Edge 54, Type (0, 0), BuildingBlock: OJICUG_clean_linker_0, # of connection points: 2
#     Edge 55, Type (0, 0), BuildingBlock: OJICUG_clean_linker_0, # of connection points: 2
#     Edge 56, Type (0, 0), BuildingBlock: OJICUG_clean_linker_0, # of connection points: 2
#     Edge 57, Type (0, 0), BuildingBlock: OJICUG_clean_linker_0, # of connection points: 2
#     Edge 58, Type (0, 0), BuildingBlock: OJICUG_clean_linker_0, # of connection points: 2
#     Edge 59, Type (0, 0), BuildingBlock: OJICUG_clean_linker_0, # of connection points: 2
#     Edge 60, Type (0, 0), BuildingBlock: OJICUG_clean_linker_0, # of connection points: 2
#     Edge 61, Type (0, 0), BuildingBlock: OJICUG_clean_linker_0, # of connection points: 2
#     Edge 62, Type (0, 0), BuildingBlock: OJICUG_clean_linker_0, # of connection points: 2
#     Edge 63, Type (0, 0), BuildingBlock: OJICUG_clean_linker_0, # of connection points: 2
# Relax obj value: 0.258
# Max RMSD: 0.298
# Mean RMSD: 0.298
data_MOF--net-wig--node1-OJICUG_clean_sbu_0--edge1-OJICUG_clean_linker_0
_symmetry_space_group_name_H-M    P1
_symmetry_Int_Tables_number       1
_symmetry_cell_setting            triclinic
loop_
_symmetry_equiv_pos_as_xyz
'x, y, z'
_cell_length_a     21.821279
_cell_length_b     21.824924
_cell_length_c     65.497099
_cell_angle_alpha  90.005106
_cell_angle_beta   89.979073
_cell_angle_gamma 89.988196
loop_
_atom_site_label
_atom_site_type_symbol
_atom_site_fract_x
_atom_site_fract_y
_atom_site_fract_z
_atom_type_partial_charge
Sc0 Sc 0.11933 0.23045 0.28985 0.0
Sc1 Sc 0.2196 0.22071 0.24764 0.0
Sc2 Sc 0.23223 0.11497 0.28789 0.0
O3 O 0.19003 0.18844 0.27506 0.0
C4 C 0.20683 0.19625 0.32719 0.0
C5 C 0.19463 0.34322 0.273 0.0
C6 C 0.34379 0.19417 0.2714 0.0
C7 C 0.07781 0.23809 0.24277 0.0
C8 C 0.08893 0.0877 0.29531 0.0
C9 C 0.23516 0.07828 0.24087 0.0
O10 O 0.16135 0.22492 0.31975 0.0
O11 O 0.21517 0.31275 0.25803 0.0
O12 O 0.32317 0.15207 0.28294 0.0
O13 O 0.06861 0.24242 0.26189 0.0
O14 O 0.14484 0.0709 0.29404 0.0
O15 O 0.23043 0.13206 0.23379 0.0
O16 O 0.07254 0.14369 0.294 0.0
O17 O 0.12943 0.22614 0.23486 0.0
O18 O 0.23492 0.06573 0.25976 0.0
O19 O 0.15971 0.32074 0.28664 0.0
O20 O 0.23659 0.15612 0.31738 0.0
O21 O 0.31168 0.22119 0.25803 0.0
Sc22 Sc 0.2294 0.86274 0.69839 0.0
Sc23 Sc 0.22129 0.76316 0.74088 0.0
Sc24 Sc 0.11098 0.75371 0.70195 0.0
O25 O 0.18715 0.79356 0.71381 0.0
C26 C 0.08516 0.8956 0.69511 0.0
C27 C 0.2397 0.9061 0.74514 0.0
C28 C 0.08064 0.74762 0.7496 0.0
C29 C 0.34287 0.78614 0.71491 0.0
C30 C 0.18661 0.7801 0.66122 0.0
C31 C 0.19028 0.64056 0.71624 0.0
O32 O 0.14197 0.90927 0.69356 0.0
O33 O 0.2326 0.85375 0.75324 0.0
O34 O 0.06725 0.74402 0.73085 0.0
O35 O 0.32067 0.82419 0.70216 0.0
O36 O 0.14274 0.75725 0.67129 0.0
O37 O 0.2157 0.67049 0.73057 0.0
O38 O 0.22514 0.81706 0.66895 0.0
O39 O 0.31204 0.76288 0.72932 0.0
O40 O 0.1506 0.66328 0.7042 0.0
O41 O 0.23932 0.91561 0.72597 0.0
O42 O 0.06657 0.84137 0.69878 0.0
O43 O 0.13424 0.75754 0.75616 0.0
Sc44 Sc 0.75601 0.87289 0.288 0.0
Sc45 Sc 0.76901 0.76709 0.24778 0.0
Sc46 Sc 0.8686 0.75713 0.29013 0.0
O47 O 0.79823 0.79931 0.27524 0.0
C48 C 0.89929 0.89984 0.29555 0.0
C49 C 0.75364 0.90954 0.24099 0.0
C50 C 0.91075 0.74952 0.2431 0.0
C51 C 0.6446 0.79372 0.2714 0.0
C52 C 0.78045 0.79153 0.32733 0.0
C53 C 0.79356 0.64449 0.27313 0.0
O54 O 0.84341 0.91674 0.29426 0.0
O55 O 0.75814 0.85572 0.23393 0.0
O56 O 0.91964 0.74489 0.26223 0.0
O57 O 0.66508 0.83599 0.2829 0.0
O58 O 0.82608 0.76282 0.31999 0.0
O59 O 0.77345 0.675 0.25811 0.0
O60 O 0.75101 0.83173 0.31747 0.0
O61 O 0.67685 0.7665 0.25811 0.0
O62 O 0.82805 0.66693 0.28689 0.0
O63 O 0.75391 0.92216 0.25987 0.0
O64 O 0.91557 0.84381 0.29428 0.0
O65 O 0.85933 0.76187 0.23512 0.0
Sc66 Sc 0.87626 0.23137 0.70183 0.0
Sc67 Sc 0.76602 0.22183 0.7408 0.0
Sc68 Sc 0.75785 0.12231 0.6983 0.0
O69 O 0.80011 0.19148 0.71371 0.0
C70 C 0.80025 0.20536 0.66115 0.0
C71 C 0.79701 0.34449 0.71621 0.0
C72 C 0.64442 0.19885 0.71487 0.0
C73 C 0.90673 0.23725 0.74946 0.0
C74 C 0.90205 0.08946 0.69494 0.0
C75 C 0.74768 0.07888 0.74505 0.0
O76 O 0.84419 0.22819 0.67119 0.0
O77 O 0.7715 0.3145 0.73051 0.0
O78 O 0.6666 0.16083 0.70212 0.0
O79 O 0.92013 0.24077 0.7307 0.0
O80 O 0.84525 0.07576 0.69344 0.0
O81 O 0.7548 0.13123 0.75315 0.0
O82 O 0.92063 0.14373 0.69855 0.0
O83 O 0.8531 0.22751 0.75604 0.0
O84 O 0.748 0.06939 0.72588 0.0
O85 O 0.83675 0.32183 0.70417 0.0
O86 O 0.76195 0.16815 0.66889 0.0
O87 O 0.67525 0.22207 0.72929 0.0
Sc88 Sc 0.23363 0.37732 0.95215 0.0
Sc89 Sc 0.22209 0.26744 0.99114 0.0
Sc90 Sc 0.12533 0.25821 0.94796 0.0
O91 O 0.19327 0.3011 0.96381 0.0
C92 C 0.09144 0.40203 0.94453 0.0
C93 C 0.23534 0.40832 -0.00021 0.0
C94 C 0.07971 0.24591 -0.00555 0.0
C95 C 0.34619 0.29917 0.96762 0.0
C96 C 0.21041 0.30146 0.91129 0.0
C97 C 0.20276 0.1459 0.96475 0.0
O98 O 0.14569 0.42091 0.94808 0.0
O99 O 0.22565 0.35467 0.00636 0.0
O100 O 0.07123 0.24592 0.97523 0.0
O101 O 0.32437 0.33854 0.95528 0.0
O102 O 0.17196 0.26383 0.9187 0.0
O103 O 0.22414 0.17669 0.9795 0.0
O104 O 0.23336 0.34478 0.92158 0.0
O105 O 0.31515 0.27389 0.98168 0.0
O106 O 0.16554 0.16777 0.95167 0.0
O107 O 0.24028 0.42152 0.98106 0.0
O108 O 0.07789 0.34514 0.94326 0.0
O109 O 0.13123 0.25495 0.00285 0.0
Sc110 Sc 0.25625 0.86977 0.03976 0.0
Sc111 Sc 0.26521 0.76759 -0.00201 0.0
Sc112 Sc 0.37095 0.75603 0.03828 0.0
O113 O 0.2977 0.79814 0.02528 0.0
C114 C 0.39938 0.89892 0.04539 0.0
C115 C 0.25141 0.90993 0.99249 0.0
C116 C 0.40751 0.74984 0.99132 0.0
C117 C 0.14246 0.79607 0.02272 0.0
C118 C 0.28909 0.78299 0.07739 0.0
C119 C 0.29041 0.6444 0.02257 0.0
O120 O 0.34343 0.91553 0.04425 0.0
O121 O 0.2615 0.85757 0.98477 0.0
O122 O 0.4202 0.75146 0.01019 0.0
O123 O 0.16511 0.83127 0.03624 0.0
O124 O 0.32982 0.7535 0.06778 0.0
O125 O 0.26324 0.67587 0.00903 0.0
O126 O 0.25994 0.82792 0.06976 0.0
O127 O 0.17312 0.77396 0.00806 0.0
O128 O 0.33298 0.66544 0.03382 0.0
O129 O 0.24708 0.9199 0.01157 0.0
O130 O 0.41592 0.84301 0.04399 0.0
O131 O 0.35372 0.75448 0.98426 0.0
Sc132 Sc 0.86241 0.72793 0.9479 0.0
Sc133 Sc 0.76574 0.71863 0.99111 0.0
Sc134 Sc 0.75428 0.60868 0.95215 0.0
O135 O 0.79456 0.68498 0.96378 0.0
C136 C 0.77736 0.68442 0.91126 0.0
C137 C 0.78496 0.84019 0.96471 0.0
C138 C 0.64166 0.68682 0.96763 0.0
C139 C 0.90807 0.74034 -0.00563 0.0
C140 C 0.89651 0.58415 0.9445 0.0
C141 C 0.75255 0.57775 -0.00021 0.0
O142 O 0.81581 0.72211 0.91864 0.0
O143 O 0.76374 0.8094 0.9795 0.0
O144 O 0.6635 0.64736 0.95531 0.0
O145 O 0.91649 0.74048 0.97515 0.0
O146 O 0.84226 0.56522 0.94805 0.0
O147 O 0.76211 0.63143 0.00635 0.0
O148 O 0.91001 0.64106 0.94323 0.0
O149 O 0.85661 0.73105 0.0028 0.0
O150 O 0.74773 0.5645 0.98106 0.0
O151 O 0.82204 0.81832 0.95159 0.0
O152 O 0.75444 0.64114 0.92157 0.0
O153 O 0.67269 0.71222 0.98166 0.0
Sc154 Sc 0.61674 0.23016 0.03832 0.0
Sc155 Sc 0.72254 0.21848 -0.00198 0.0
Sc156 Sc 0.73149 0.11648 0.03983 0.0
O157 O 0.69002 0.18803 0.02532 0.0
C158 C 0.69862 0.20344 0.07743 0.0
C159 C 0.69729 0.34174 0.02257 0.0
C160 C 0.84527 0.19017 0.02276 0.0
C161 C 0.58025 0.23617 0.99136 0.0
C162 C 0.58836 0.08728 0.04547 0.0
C163 C 0.73638 0.07613 0.99257 0.0
O164 O 0.65784 0.23284 0.06781 0.0
O165 O 0.72448 0.31024 0.00904 0.0
O166 O 0.82261 0.15502 0.03629 0.0
O167 O 0.56753 0.23461 0.01022 0.0
O168 O 0.64432 0.07069 0.04434 0.0
O169 O 0.72628 0.12846 0.98484 0.0
O170 O 0.5718 0.14318 0.04405 0.0
O171 O 0.63405 0.23154 0.98429 0.0
O172 O 0.74071 0.06623 0.01166 0.0
O173 O 0.65469 0.32074 0.03382 0.0
O174 O 0.72777 0.15849 0.06981 0.0
O175 O 0.81461 0.21217 0.00809 0.0
Sc176 Sc 0.62259 0.72867 0.78939 0.0
Sc177 Sc 0.72276 0.72051 0.74706 0.0
Sc178 Sc 0.73218 0.6107 0.78615 0.0
O179 O 0.69216 0.68657 0.77413 0.0
C180 C 0.70471 0.68664 0.82674 0.0
C181 C 0.69905 0.84221 0.77283 0.0
C182 C 0.84518 0.69022 0.77195 0.0
C183 C 0.5797 0.73821 0.74259 0.0
C184 C 0.59032 0.58433 0.79273 0.0
C185 C 0.7393 0.58001 0.73853 0.0
O186 O 0.66808 0.72521 0.81886 0.0
O187 O 0.72284 0.8113 0.75853 0.0
O188 O 0.82239 0.6509 0.78411 0.0
O189 O 0.56994 0.73773 0.76175 0.0
O190 O 0.64464 0.56588 0.78908 0.0
O191 O 0.72859 0.63337 0.73189 0.0
O192 O 0.57649 0.64109 0.79433 0.0
O193 O 0.63225 0.73164 0.73458 0.0
O194 O 0.74307 0.56691 0.7573 0.0
O195 O 0.66066 0.82008 0.78547 0.0
O196 O 0.72758 0.64248 0.81681 0.0
O197 O 0.81539 0.71506 0.75747 0.0
Sc198 Sc 0.73097 0.36859 0.19789 0.0
Sc199 Sc 0.72127 0.26876 0.2402 0.0
Sc200 Sc 0.61547 0.25576 0.19998 0.0
O201 O 0.68896 0.29807 0.21276 0.0
C202 C 0.58817 0.39892 0.19241 0.0
C203 C 0.73835 0.41062 0.24493 0.0
C204 C 0.57879 0.25315 0.24701 0.0
C205 C 0.84382 0.29364 0.21485 0.0
C206 C 0.69703 0.28043 0.16067 0.0
C207 C 0.6948 0.14441 0.21654 0.0
O208 O 0.64418 0.41526 0.19363 0.0
O209 O 0.72665 0.35903 0.25289 0.0
O210 O 0.56623 0.25327 0.22812 0.0
O211 O 0.82133 0.32846 0.20119 0.0
O212 O 0.65668 0.25106 0.1705 0.0
O213 O 0.72181 0.17663 0.22988 0.0
O214 O 0.72577 0.32597 0.16805 0.0
O215 O 0.81335 0.2731 0.22981 0.0
O216 O 0.65264 0.16491 0.205 0.0
O217 O 0.7426 0.4197 0.2258 0.0
O218 O 0.57134 0.34305 0.19377 0.0
O219 O 0.63259 0.25797 0.25407 0.0
Sc220 Sc 0.25496 0.37437 0.78612 0.0
Sc221 Sc 0.26454 0.26453 0.74703 0.0
Sc222 Sc 0.36465 0.25651 0.78936 0.0
O223 O 0.29506 0.29853 0.7741 0.0
C224 C 0.39678 0.40089 0.79269 0.0
C225 C 0.24789 0.405 0.7385 0.0
C226 C 0.4076 0.24691 0.74256 0.0
C227 C 0.14206 0.29474 0.77192 0.0
C228 C 0.28254 0.29858 0.82671 0.0
C229 C 0.28829 0.14288 0.77282 0.0
O230 O 0.34246 0.4193 0.78902 0.0
O231 O 0.25875 0.35166 0.73186 0.0
O232 O 0.41734 0.24747 0.76171 0.0
O233 O 0.16479 0.33405 0.7841 0.0
O234 O 0.31916 0.25999 0.81883 0.0
O235 O 0.26447 0.17376 0.75852 0.0
O236 O 0.25962 0.34269 0.81679 0.0
O237 O 0.1719 0.26999 0.75744 0.0
O238 O 0.32667 0.16507 0.78545 0.0
O239 O 0.24401 0.4181 0.75727 0.0
O240 O 0.41064 0.34414 0.79429 0.0
O241 O 0.35505 0.25338 0.73455 0.0
Sc242 Sc 0.37301 0.73175 0.19996 0.0
Sc243 Sc 0.26724 0.71904 0.24023 0.0
Sc244 Sc 0.2575 0.61892 0.19799 0.0
O245 O 0.29952 0.68954 0.2128 0.0
C246 C 0.29134 0.70686 0.16071 0.0
C247 C 0.29378 0.84324 0.21649 0.0
C248 C 0.14466 0.69397 0.21496 0.0
C249 C 0.40971 0.73461 0.24697 0.0
C250 C 0.40028 0.58855 0.19244 0.0
C251 C 0.25016 0.57718 0.24505 0.0
O252 O 0.33174 0.73629 0.1705 0.0
O253 O 0.26673 0.81112 0.22985 0.0
O254 O 0.16713 0.65904 0.20132 0.0
O255 O 0.42228 0.73436 0.22808 0.0
O256 O 0.34427 0.57222 0.19371 0.0
O257 O 0.26184 0.62883 0.25299 0.0
O258 O 0.41711 0.64443 0.19378 0.0
O259 O 0.35592 0.72988 0.25405 0.0
O260 O 0.24593 0.568 0.22593 0.0
O261 O 0.33592 0.82264 0.20495 0.0
O262 O 0.26262 0.66137 0.16813 0.0
O263 O 0.17517 0.71465 0.22989 0.0
Sc264 Sc 0.72909 0.8715 0.44983 0.0
Sc265 Sc 0.7177 0.76537 0.48998 0.0
Sc266 Sc 0.6161 0.75613 0.4481 0.0
O267 O 0.68729 0.7979 0.4627 0.0
C268 C 0.58605 0.89911 0.44262 0.0
C269 C 0.73432 0.9077 0.49681 0.0
C270 C 0.57551 0.7504 0.49533 0.0
C271 C 0.84102 0.79143 0.4656 0.0
C272 C 0.70321 0.78996 0.4106 0.0
C273 C 0.69032 0.64268 0.46508 0.0
O274 O 0.64191 0.91583 0.44396 0.0
O275 O 0.73046 0.85377 0.5038 0.0
O276 O 0.56585 0.74577 0.47623 0.0
O277 O 0.8199 0.83424 0.45446 0.0
O278 O 0.65811 0.76079 0.41812 0.0
O279 O 0.71164 0.67335 0.47985 0.0
O280 O 0.73259 0.8305 0.42032 0.0
O281 O 0.80953 0.76368 0.479 0.0
O282 O 0.65547 0.66527 0.45144 0.0
O283 O 0.73253 0.9206 0.47796 0.0
O284 O 0.56965 0.8431 0.44379 0.0
O285 O 0.6276 0.76141 0.5031 0.0
Sc286 Sc 0.75652 0.36278 0.53987 0.0
Sc287 Sc 0.76515 0.26536 0.49684 0.0
Sc288 Sc 0.8752 0.25407 0.53577 0.0
O289 O 0.79904 0.29447 0.5241 0.0
C290 C 0.90055 0.39608 0.54312 0.0
C291 C 0.74453 0.40791 0.49335 0.0
C292 C 0.90583 0.25103 0.4881 0.0
C293 C 0.64374 0.2856 0.52321 0.0
C294 C 0.7998 0.27856 0.57666 0.0
C295 C 0.79658 0.14162 0.52063 0.0
O296 O 0.8437 0.40964 0.54464 0.0
O297 O 0.75245 0.35609 0.48502 0.0
O298 O 0.91895 0.24584 0.50683 0.0
O299 O 0.66575 0.32333 0.53609 0.0
O300 O 0.84338 0.25585 0.56642 0.0
O301 O 0.77183 0.17241 0.50641 0.0
O302 O 0.76156 0.31623 0.56916 0.0
O303 O 0.67446 0.26338 0.50857 0.0
O304 O 0.83566 0.16359 0.53304 0.0
O305 O 0.74519 0.41674 0.51255 0.0
O306 O 0.91931 0.34188 0.53941 0.0
O307 O 0.85235 0.26175 0.48155 0.0
Sc308 Sc 0.3676 0.23088 0.44836 0.0
Sc309 Sc 0.2654 0.22178 0.49011 0.0
Sc310 Sc 0.25433 0.11577 0.44989 0.0
O311 O 0.29612 0.18924 0.46285 0.0
C312 C 0.2811 0.1973 0.41072 0.0
C313 C 0.29308 0.34438 0.46521 0.0
C314 C 0.14225 0.19582 0.4656 0.0
C315 C 0.40763 0.23663 0.49563 0.0
C316 C 0.39741 0.08788 0.44283 0.0
C317 C 0.24859 0.07946 0.49688 0.0
O318 O 0.32609 0.22635 0.41834 0.0
O319 O 0.27145 0.31376 0.47995 0.0
O320 O 0.1635 0.15319 0.45442 0.0
O321 O 0.41754 0.24106 0.47654 0.0
O322 O 0.34151 0.07125 0.44411 0.0
O323 O 0.25267 0.13334 0.5039 0.0
O324 O 0.4139 0.14384 0.44406 0.0
O325 O 0.35539 0.22589 0.50334 0.0
O326 O 0.25035 0.06665 0.47802 0.0
O327 O 0.3283 0.32178 0.45167 0.0
O328 O 0.2514 0.15682 0.42038 0.0
O329 O 0.17361 0.22339 0.47908 0.0
Sc330 Sc 0.10815 0.73286 0.53586 0.0
Sc331 Sc 0.21798 0.7218 0.49681 0.0
Sc332 Sc 0.22677 0.62403 0.53973 0.0
O333 O 0.18421 0.6925 0.52407 0.0
C334 C 0.18407 0.70822 0.57662 0.0
C335 C 0.18658 0.84543 0.52069 0.0
C336 C 0.33948 0.70131 0.52305 0.0
C337 C 0.07727 0.73607 0.48821 0.0
C338 C 0.08276 0.59082 0.54315 0.0
C339 C 0.23846 0.57924 0.49318 0.0
O340 O 0.14037 0.73104 0.56647 0.0
O341 O 0.21132 0.81471 0.50644 0.0
O342 O 0.31754 0.66338 0.53588 0.0
O343 O 0.0642 0.74114 0.50695 0.0
O344 O 0.13961 0.57721 0.54458 0.0
O345 O 0.23068 0.63116 0.4849 0.0
O346 O 0.06401 0.64507 0.53952 0.0
O347 O 0.13074 0.72547 0.48161 0.0
O348 O 0.23777 0.57026 0.51237 0.0
O349 O 0.14758 0.82338 0.53312 0.0
O350 O 0.22207 0.67043 0.56903 0.0
O351 O 0.30868 0.72376 0.50847 0.0
C352 C 0.31971 0.95441 0.21423 0.0
C353 C 0.27559 0.90785 0.21548 0.0
H354 H 0.3401 0.04825 0.22128 0.0
C355 C 0.21445 0.923 0.21996 0.0
H356 H 0.3671 0.94359 0.21085 0.0
C357 C 0.19919 0.98221 0.22584 0.0
C358 C 0.24474 0.02701 0.22703 0.0
H359 H 0.17953 0.8878 0.22075 0.0
H360 H 0.15325 0.99146 0.23135 0.0
C361 C 0.30425 0.01408 0.22009 0.0
C362 C 0.01603 0.67875 0.77014 0.0
C363 C 0.03015 0.73856 0.76381 0.0
H364 H 0.9442 0.616 0.77817 0.0
C365 C 0.98562 0.78449 0.765 0.0
H366 H 0.04984 0.64257 0.76887 0.0
C367 C 0.92561 0.76932 0.77001 0.0
C368 C 0.90965 0.70806 0.77385 0.0
H369 H -0.00435 0.83061 0.75984 0.0
H370 H 0.89063 0.80445 0.76902 0.0
C371 C 0.95573 0.66351 0.7753 0.0
C372 C 0.78957 0.00564 0.22597 0.0
C373 C 0.74409 0.96076 0.22713 0.0
H374 H 0.8091 0.10005 0.22088 0.0
C375 C 0.68462 0.97356 0.22014 0.0
H376 H 0.83547 -0.00352 0.23151 0.0
C377 C 0.66909 0.03319 0.21426 0.0
C378 C 0.71311 0.07984 0.21555 0.0
H379 H 0.64883 0.93931 0.22131 0.0
H380 H 0.62171 0.0439 0.21085 0.0
C381 C 0.77425 0.0648 0.22006 0.0
C382 C 0.06172 0.2156 0.76991 0.0
C383 C 0.0776 0.27684 0.7738 0.0
H384 H 0.99182 0.15431 0.75964 0.0
C385 C 0.03147 0.32135 0.77526 0.0
H386 H 0.09673 0.18051 0.76892 0.0
C387 C 0.97122 0.30609 0.77005 0.0
C388 C 0.9572 0.2463 0.76366 0.0
H389 H 0.04295 0.36885 0.77817 0.0
H390 H 0.93739 0.34226 0.76879 0.0
C391 C 0.00176 0.20041 0.76484 0.0
C392 C 0.30224 0.47333 0.02088 0.0
C393 C 0.24303 0.45904 0.01399 0.0
H394 H 0.36417 0.54524 0.02943 0.0
C395 C 0.19696 0.50351 0.01465 0.0
H396 H 0.33855 0.43953 0.02003 0.0
C397 C 0.21159 0.5636 0.01973 0.0
C398 C 0.27251 0.57977 0.0241 0.0
H399 H 0.15131 0.49333 0.00908 0.0
H400 H 0.17639 0.5984 0.01841 0.0
C401 C 0.31695 0.53371 0.02607 0.0
C402 C 0.50375 0.78345 0.97581 0.0
C403 C 0.45854 0.73847 0.97753 0.0
H404 H 0.59841 0.80159 0.97051 0.0
C405 C 0.47089 0.67817 0.97126 0.0
H406 H 0.49496 0.82998 0.98082 0.0
C407 C 0.53041 0.66157 0.96554 0.0
C408 C 0.57731 0.70538 0.96628 0.0
H409 H 0.43639 0.64278 0.97288 0.0
H410 H 0.54084 0.61378 0.96273 0.0
C411 C 0.5628 0.76704 0.97009 0.0
C412 C 0.77617 0.42248 0.01972 0.0
C413 C 0.71523 0.40637 0.0241 0.0
H414 H 0.83652 0.49269 0.00907 0.0
C415 C 0.67082 0.45246 0.02608 0.0
H416 H 0.81133 0.38765 0.0184 0.0
C417 C 0.6856 0.51283 0.02089 0.0
C418 C 0.74482 0.52707 0.01399 0.0
H419 H 0.62359 0.44096 0.02944 0.0
H420 H 0.64931 0.54665 0.02005 0.0
C421 C 0.79085 0.48256 0.01465 0.0
C422 C 0.45746 0.32435 0.96552 0.0
C423 C 0.41053 0.28057 0.96627 0.0
H424 H 0.55145 0.34315 0.97286 0.0
C425 C 0.425 0.21892 0.97012 0.0
H426 H 0.44704 0.37213 0.96268 0.0
C427 C 0.48402 0.20252 0.97586 0.0
C428 C 0.52925 0.2475 0.97756 0.0
H429 H 0.38938 0.1844 0.97056 0.0
H430 H 0.49276 0.15602 0.9809 0.0
C431 C 0.51695 0.30776 0.97125 0.0
C432 C 0.70285 0.48513 0.72298 0.0
C433 C 0.74886 0.52949 0.72439 0.0
H434 H 0.68278 0.39027 0.71877 0.0
C435 C 0.8089 0.51522 0.71832 0.0
H436 H 0.65654 0.49528 0.72794 0.0
C437 C 0.82417 0.45495 0.71315 0.0
C438 C 0.77942 0.40902 0.71437 0.0
H439 H 0.84512 0.54891 0.71977 0.0
H440 H 0.87176 0.4433 0.71047 0.0
C441 C 0.71805 0.42513 0.71797 0.0
C442 C 0.51469 0.18388 0.26774 0.0
C443 C 0.52755 0.24346 0.26086 0.0
H444 H 0.4443 0.1209 0.27693 0.0
C445 C 0.48267 0.28894 0.26211 0.0
H446 H 0.54892 0.14809 0.2665 0.0
C447 C 0.42348 0.27358 0.26799 0.0
C448 C 0.4084 0.21239 0.27242 0.0
H449 H 0.49185 0.33492 0.25664 0.0
H450 H 0.38823 0.30846 0.26725 0.0
C451 C 0.45503 0.16832 0.27361 0.0
C452 C 0.16309 0.53011 0.71315 0.0
C453 C 0.20785 0.57603 0.71437 0.0
H454 H 0.14209 0.43616 0.71975 0.0
C455 C 0.26921 0.5599 0.71796 0.0
H456 H 0.11551 0.5418 0.71048 0.0
C457 C 0.2844 0.49987 0.72295 0.0
C458 C 0.23837 0.45553 0.72436 0.0
H459 H 0.30449 0.59476 0.71877 0.0
H460 H 0.3307 0.48971 0.7279 0.0
C461 C 0.17834 0.46983 0.7183 0.0
C462 C 0.50578 0.69892 0.26209 0.0
C463 C 0.46093 0.74441 0.26081 0.0
H464 H 0.60017 0.67941 0.26728 0.0
C465 C 0.47375 0.80402 0.26766 0.0
H466 H 0.49661 0.65292 0.25665 0.0
C467 C 0.53337 0.8196 0.27354 0.0
C468 C 0.57999 0.77551 0.27239 0.0
H469 H 0.43952 0.83981 0.2664 0.0
H470 H 0.54409 0.86703 0.27685 0.0
C471 C 0.56494 0.7143 0.26799 0.0
C472 C 0.7001 0.00393 0.51217 0.0
C473 C 0.74511 0.95865 0.51067 0.0
H474 H 0.68184 0.09861 0.51733 0.0
C475 C 0.80512 0.97088 0.51726 0.0
H476 H 0.65379 -0.00478 0.50693 0.0
C477 C 0.82154 0.03038 0.52303 0.0
C478 C 0.77784 0.07736 0.52204 0.0
H479 H 0.84054 0.93633 0.51583 0.0
H480 H 0.86923 0.04075 0.52606 0.0
C481 C 0.71632 0.06294 0.51796 0.0
C482 C 0.06106 0.27444 0.46808 0.0
C483 C 0.07751 0.21339 0.46402 0.0
H484 H 0.99045 0.33497 0.47835 0.0
C485 C 0.03164 0.16869 0.46227 0.0
H486 H 0.09572 0.30981 0.46923 0.0
C487 C 0.97116 0.18342 0.46737 0.0
C488 C 0.95654 0.24291 0.47391 0.0
H489 H 0.04341 0.12137 0.45917 0.0
H490 H 0.93754 0.147 0.4684 0.0
C491 C 0.00084 0.28909 0.47303 0.0
C492 C 0.26672 0.92423 0.51803 0.0
C493 C 0.20521 0.90972 0.5221 0.0
H494 H 0.3292 0.99203 0.50702 0.0
C495 C 0.16141 0.95662 0.52305 0.0
H496 H 0.30126 0.88861 0.51743 0.0
C497 C 0.17775 0.01613 0.51728 0.0
C498 C 0.23779 0.02846 0.51072 0.0
H499 H 0.11373 0.94617 0.52607 0.0
H500 H 0.14228 0.05062 0.51582 0.0
C501 C 0.28287 0.98326 0.51224 0.0
C502 C 0.01204 0.80386 0.46753 0.0
C503 C 0.02658 0.74433 0.47405 0.0
H504 H 0.9399 0.86595 0.45931 0.0
C505 C 0.98231 0.69814 0.47309 0.0
H506 H 0.04566 0.84025 0.46862 0.0
C507 C 0.92216 0.71281 0.46808 0.0
C508 C 0.90576 0.77388 0.46405 0.0
H509 H 0.99267 0.65223 0.47838 0.0
H510 H 0.8875 0.67742 0.46916 0.0
C511 C 0.95163 0.81861 0.46239 0.0
C512 C 0.28826 0.20836 0.35348 0.0
C513 C 0.22563 0.20769 0.34841 0.0
H514 H 0.35517 0.20766 0.37749 0.0
C515 C 0.18173 0.21127 0.36398 0.0
H516 H 0.32289 0.20583 0.34165 0.0
C517 C 0.20019 0.21079 0.38439 0.0
C518 C 0.26276 0.2086 0.38947 0.0
H519 H 0.13326 0.21052 0.3604 0.0
H520 H 0.16553 0.21003 0.39625 0.0
C521 C 0.30674 0.20972 0.3739 0.0
C522 C 0.24438 0.75187 0.62918 0.0
C523 C 0.18906 0.76448 0.63937 0.0
H524 H 0.28645 0.72202 0.6011 0.0
C525 C 0.13349 0.75791 0.62886 0.0
H526 H 0.28775 0.7561 0.63709 0.0
C527 C 0.13275 0.73915 0.60863 0.0
C528 C 0.18753 0.72556 0.59836 0.0
H529 H 0.09017 0.76736 0.63633 0.0
H530 H 0.08882 0.73473 0.60105 0.0
C531 C 0.24357 0.73174 0.60878 0.0
C532 C 0.8042 0.77599 0.3642 0.0
C533 C 0.76089 0.7799 0.34847 0.0
H534 H 0.81922 0.77683 0.39653 0.0
C535 C 0.69807 0.77934 0.35332 0.0
H536 H 0.8528 0.77664 0.36082 0.0
C537 C 0.67883 0.77781 0.37366 0.0
C538 C 0.72224 0.77863 0.3894 0.0
H539 H 0.66387 0.7821 0.34136 0.0
H540 H 0.63029 0.78001 0.37707 0.0
C541 C 0.78499 0.77629 0.38455 0.0
C542 C 0.74136 0.23265 0.62924 0.0
C543 C 0.79715 0.22171 0.63935 0.0
H544 H 0.69808 0.26143 0.60124 0.0
C545 C 0.85239 0.2305 0.62881 0.0
H546 H 0.6982 0.22672 0.63717 0.0
C547 C 0.85232 0.24963 0.60862 0.0
C548 C 0.79703 0.26139 0.59842 0.0
H549 H 0.89608 0.22238 0.6362 0.0
H550 H 0.89599 0.25565 0.60099 0.0
C551 C 0.74131 0.25316 0.60888 0.0
C552 C 0.23212 0.24202 0.87895 0.0
C553 C 0.22852 0.2979 0.8896 0.0
H554 H 0.25429 0.19781 0.85043 0.0
C555 C 0.24502 0.35232 0.87958 0.0
H556 H 0.22012 0.1994 0.88641 0.0
C557 C 0.26382 0.3514 0.85935 0.0
C558 C 0.26757 0.296 0.84861 0.0
H559 H 0.24264 0.39614 0.88732 0.0
H560 H 0.27532 0.39445 0.85204 0.0
C561 C 0.2523 0.241 0.85855 0.0
C562 C 0.2775 0.80799 0.11429 0.0
C563 C 0.27763 0.76438 0.09861 0.0
H564 H 0.28259 0.82333 0.14656 0.0
C565 C 0.27483 0.70172 0.10354 0.0
H566 H 0.28009 0.85645 0.11081 0.0
C567 C 0.27479 0.68279 0.12392 0.0
C568 C 0.27945 0.72626 0.13958 0.0
H569 H 0.27488 0.66735 0.0916 0.0
H570 H 0.2751 0.63423 0.12736 0.0
C571 C 0.27928 0.78901 0.13466 0.0
C572 C 0.75526 0.74364 0.8789 0.0
C573 C 0.75922 0.68782 0.88957 0.0
H574 H 0.73265 0.78763 0.8504 0.0
C575 C 0.74296 0.63328 0.87958 0.0
H576 H 0.76707 0.78635 0.88634 0.0
C577 C 0.724 0.63402 0.85938 0.0
C578 C 0.71986 0.68936 0.84861 0.0
H579 H 0.74561 0.5895 0.88734 0.0
H580 H 0.71267 0.59089 0.85209 0.0
C581 C 0.73493 0.74448 0.85853 0.0
C582 C 0.71073 0.17887 0.11435 0.0
C583 C 0.7102 0.22232 0.09861 0.0
H584 H 0.70614 0.16385 0.14664 0.0
C585 C 0.71285 0.28503 0.10348 0.0
H586 H 0.70828 0.13036 0.11092 0.0
C587 C 0.71311 0.30419 0.12383 0.0
C588 C 0.70883 0.26086 0.13955 0.0
H589 H 0.71252 0.31929 0.0915 0.0
H590 H 0.71265 0.35277 0.12722 0.0
C591 C 0.70917 0.19806 0.13469 0.0
C592 C 0.27242 0.42344 0.26825 0.0
C593 C 0.21171 0.40809 0.27328 0.0
H594 H 0.33225 0.49069 0.25524 0.0
C595 C 0.16632 0.45354 0.27297 0.0
H596 H 0.30797 0.3888 0.26832 0.0
C597 C 0.18036 0.51188 0.26543 0.0
C598 C 0.23978 0.52477 0.25841 0.0
H599 H 0.11911 0.44228 0.27646 0.0
H600 H 0.14386 0.54503 0.26347 0.0
C601 C 0.28633 0.48141 0.26074 0.0
C602 C 0.45317 0.81618 0.71396 0.0
C603 C 0.40829 0.77018 0.71472 0.0
H604 H 0.54495 0.84138 0.72244 0.0
C605 C 0.42504 0.71056 0.72065 0.0
H606 H 0.44106 0.8626 0.70971 0.0
C607 C 0.48358 0.69879 0.72807 0.0
C608 C 0.52644 0.74619 0.72934 0.0
H609 H 0.39112 0.67436 0.72133 0.0
H610 H 0.49385 0.65389 0.73428 0.0
C611 C 0.51225 0.80417 0.72133 0.0
C612 C 0.70205 0.50646 0.26056 0.0
C613 C 0.74863 0.4631 0.25827 0.0
H614 H 0.68029 0.59899 0.26821 0.0
C615 C 0.80793 0.47591 0.26541 0.0
H616 H 0.65622 0.49722 0.25498 0.0
C617 C 0.82185 0.53418 0.27303 0.0
C618 C 0.77645 0.57963 0.27333 0.0
H619 H 0.84444 0.44274 0.26349 0.0
H620 H 0.869 0.54539 0.27662 0.0
C621 C 0.71584 0.56435 0.26816 0.0
C622 C 0.5341 0.1689 0.71391 0.0
C623 C 0.57902 0.21486 0.71469 0.0
H624 H 0.44227 0.14377 0.72237 0.0
C625 C 0.56232 0.27448 0.72064 0.0
H626 H 0.54619 0.12249 0.70965 0.0
C627 C 0.50377 0.28629 0.72806 0.0
C628 C 0.46086 0.23893 0.72931 0.0
H629 H 0.59627 0.31065 0.72133 0.0
H630 H 0.49353 0.33118 0.73428 0.0
C631 C 0.47501 0.18095 0.72128 0.0
C632 C 0.27916 0.06472 0.97085 0.0
C633 C 0.21976 0.08079 0.96449 0.0
H634 H 0.33573 -0.00361 0.98479 0.0
C635 C 0.17447 0.03532 0.96322 0.0
H636 H 0.31477 0.09912 0.97195 0.0
C637 C 0.18672 0.97629 0.97055 0.0
C638 C 0.24429 0.96269 0.97899 0.0
H639 H 0.12821 0.0469 0.95862 0.0
H640 H 0.14982 0.94314 0.97133 0.0
C641 C 0.29123 0.00615 0.9782 0.0
C642 C 0.03279 0.82642 0.02123 0.0
C643 C 0.07725 0.78026 0.02275 0.0
H644 H 0.94234 0.84912 0.01071 0.0
C645 C 0.06112 0.71923 0.0185 0.0
H646 H 0.04474 0.87385 0.02406 0.0
C647 C 0.00345 0.70534 0.01071 0.0
C648 C 0.96113 0.75226 0.00731 0.0
H649 H 0.09506 0.68308 0.01944 0.0
H650 H -0.00646 0.6588 0.00597 0.0
C651 C 0.97474 0.8124 0.01345 0.0
C652 C 0.80098 0.00978 0.97057 0.0
C653 C 0.74348 0.02333 0.97908 0.0
H654 H 0.85942 0.93925 0.95854 0.0
C655 C 0.69655 0.97985 0.97833 0.0
H656 H 0.83785 0.04296 0.97131 0.0
C657 C 0.70858 0.92131 0.97094 0.0
C658 C 0.76793 0.90529 0.9645 0.0
H659 H 0.6521 0.98958 0.98497 0.0
H660 H 0.67298 0.88689 0.97207 0.0
C661 C 0.81319 0.95079 0.96319 0.0
C662 C 0.01318 0.17412 0.0137 0.0
C663 C 0.02663 0.23414 0.00741 0.0
H664 H 0.94327 0.11269 0.02441 0.0
C665 C 0.98411 0.281 0.01063 0.0
H666 H 0.04575 0.13745 0.0111 0.0
C667 C 0.92642 0.26712 0.0184 0.0
C668 C 0.91044 0.20613 0.0228 0.0
H669 H -0.00609 0.32744 0.00576 0.0
H670 H 0.89237 0.30319 0.01922 0.0
C671 C 0.95508 0.16009 0.02146 0.0
C672 C 0.78663 0.9829 0.75983 0.0
C673 C 0.73915 0.02559 0.75824 0.0
H674 H 0.811 0.89063 0.76688 0.0
C675 C 0.68079 0.01135 0.76595 0.0
H676 H 0.8318 0.99323 0.75387 0.0
C677 C 0.66861 0.95239 0.77337 0.0
C678 C 0.71481 0.90765 0.77297 0.0
H679 H 0.64355 0.04394 0.76459 0.0
H680 H 0.62202 0.94022 0.7774 0.0
C681 C 0.77466 0.92445 0.76731 0.0
C682 C 0.95407 0.32213 0.215 0.0
C683 C 0.90873 0.27666 0.21457 0.0
H684 H 0.04547 0.34463 0.22457 0.0
C685 C 0.9242 0.21591 0.21949 0.0
H686 H 0.9427 0.36937 0.2116 0.0
C687 C 0.9822 0.20199 0.22697 0.0
C688 C 0.02545 0.24859 0.22942 0.0
H689 H 0.88964 0.1803 0.21933 0.0
H690 H 0.99159 0.156 0.23238 0.0
C691 C 0.01242 0.30809 0.22252 0.0
C692 C 0.31879 0.03272 0.77338 0.0
C693 C 0.27257 0.07743 0.77298 0.0
H694 H 0.34388 0.94115 0.76462 0.0
C695 C 0.2127 0.06058 0.76737 0.0
H696 H 0.36538 0.04495 0.77737 0.0
C697 C 0.20074 0.00208 0.75994 0.0
C698 C 0.24824 0.9594 0.75833 0.0
H699 H 0.17635 0.09438 0.76696 0.0
H700 H 0.15555 0.99171 0.754 0.0
C701 C 0.30661 0.97372 0.76599 0.0
C702 C 0.0062 0.78549 0.2271 0.0
C703 C 0.96319 0.73879 0.22978 0.0
H704 H 0.09856 0.80731 0.21919 0.0
C705 C 0.97634 0.67914 0.22304 0.0
H706 H -0.00329 0.8316 0.23238 0.0
C707 C 0.03458 0.66512 0.21542 0.0
C708 C 0.07972 0.71076 0.21474 0.0
H709 H 0.94344 0.64255 0.22527 0.0
H710 H 0.04606 0.61783 0.21214 0.0
C711 C 0.06413 0.77158 0.21953 0.0
C712 C 0.66105 0.53247 0.46547 0.0
C713 C 0.70677 0.57759 0.46503 0.0
H714 H 0.63798 0.44119 0.4751 0.0
C715 C 0.76729 0.56195 0.47021 0.0
H716 H 0.61397 0.54396 0.46188 0.0
C717 C 0.78068 0.50416 0.47797 0.0
C718 C 0.73388 0.46109 0.48033 0.0
H719 H 0.80315 0.59629 0.47005 0.0
H720 H 0.82654 0.49465 0.48349 0.0
C721 C 0.67464 0.47417 0.47317 0.0
C722 C 0.56205 0.20934 0.51765 0.0
C723 C 0.5785 0.26908 0.52352 0.0
H724 H 0.49336 0.15222 0.50416 0.0
C725 C 0.53336 0.31481 0.52434 0.0
H726 H 0.59622 0.1734 0.5169 0.0
C727 C 0.47433 0.30248 0.51704 0.0
C728 C 0.46032 0.24436 0.50911 0.0
H729 H 0.54526 0.36133 0.52854 0.0
H730 H 0.44149 0.33957 0.51589 0.0
C731 C 0.50342 0.19715 0.51037 0.0
C732 C 0.20239 0.48293 0.47785 0.0
C733 C 0.2491 0.52613 0.48013 0.0
H734 H 0.18014 0.39063 0.47011 0.0
C735 C 0.30837 0.51308 0.47298 0.0
H736 H 0.15653 0.49242 0.48337 0.0
C737 C 0.32211 0.45468 0.46539 0.0
C738 C 0.2765 0.40944 0.46506 0.0
H739 H 0.34496 0.54617 0.47485 0.0
H740 H 0.36922 0.44325 0.46181 0.0
C741 C 0.21592 0.42505 0.4702 0.0
C742 C 0.50873 0.68425 0.5166 0.0
C743 C 0.52275 0.74248 0.50878 0.0
H744 H 0.43784 0.62534 0.5281 0.0
C745 C 0.47976 0.78975 0.51018 0.0
H746 H 0.54151 0.64714 0.51536 0.0
C747 C 0.42119 0.77755 0.51752 0.0
C748 C 0.40471 0.71774 0.52331 0.0
H749 H 0.48986 0.83477 0.50405 0.0
H750 H 0.38708 0.81356 0.51689 0.0
C751 C 0.44976 0.67191 0.52397 0.0
C752 C 0.05595 0.97702 0.29752 0.0
C753 C 0.04048 0.03966 0.2972 0.0
H754 H 0.02422 0.88418 0.29737 0.0
C755 C 0.97797 0.0557 0.29757 0.0
H756 H 0.10346 0.96266 0.29725 0.0
C757 C 0.93233 0.0105 0.29764 0.0
C758 C 0.94779 0.94785 0.29735 0.0
H759 H 0.96405 0.10333 0.29735 0.0
H760 H 0.88483 0.02486 0.29747 0.0
C761 C 0.01031 0.93181 0.29759 0.0
C762 C 0.01181 0.05384 0.69314 0.0
C763 C 0.94878 0.0398 0.69338 0.0
H764 H 0.10396 0.01998 0.69334 0.0
C765 C 0.93123 0.97779 0.69315 0.0
H766 H 0.02725 0.101 0.69327 0.0
C767 C 0.97541 0.9312 0.69327 0.0
C768 C 0.03844 0.94525 0.69349 0.0
H769 H 0.88326 0.96507 0.69337 0.0
H770 H 0.95997 0.88405 0.69349 0.0
C771 C 0.05599 0.00724 0.69314 0.0
C772 C 0.97961 0.43066 0.9425 0.0
C773 C 0.04154 0.44852 0.94284 0.0
H774 H 0.88567 0.45889 0.94271 0.0
C775 C 0.05523 0.51162 0.94261 0.0
H776 H 0.96712 0.38264 0.9427 0.0
C777 C 0.00837 0.55555 0.94254 0.0
C778 C 0.94644 0.53768 0.94282 0.0
H779 H 0.10231 0.52731 0.94281 0.0
H780 H 0.02085 0.60357 0.94277 0.0
C781 C 0.93275 0.47459 0.94255 0.0
C782 C 0.43201 0.00965 0.04756 0.0
C783 C 0.44768 0.94707 0.04724 0.0
H784 H 0.46344 0.10257 0.04738 0.0
C785 C 0.51023 0.9312 0.04755 0.0
H786 H 0.38446 0.02386 0.04734 0.0
C787 C 0.55573 0.97653 0.04758 0.0
C788 C 0.54006 0.03912 0.04729 0.0
H789 H 0.5243 0.88361 0.04732 0.0
H790 H 0.60328 0.96232 0.04736 0.0
C791 C 0.4775 0.05499 0.04759 0.0
C792 C 0.55491 0.47453 0.7945 0.0
C793 C 0.54074 0.53752 0.79426 0.0
H794 H 0.52123 0.38234 0.79435 0.0
C795 C 0.47868 0.55497 0.79452 0.0
H796 H 0.60211 0.45917 0.79435 0.0
C797 C 0.43216 0.51072 0.79444 0.0
C798 C 0.44634 0.44773 0.79423 0.0
H799 H 0.46585 0.6029 0.7943 0.0
H800 H 0.38497 0.52607 0.79425 0.0
C801 C 0.50839 0.43028 0.79455 0.0
C802 C 0.51096 0.55553 0.19022 0.0
C803 C 0.44831 0.54008 0.19056 0.0
H804 H 0.60381 0.52378 0.19041 0.0
C805 C 0.43226 0.47758 0.19027 0.0
H806 H 0.52531 0.60302 0.19043 0.0
C807 C 0.47748 0.43194 0.19026 0.0
C808 C 0.54013 0.44738 0.19054 0.0
H809 H 0.38463 0.46368 0.19052 0.0
H810 H 0.46313 0.38444 0.1905 0.0
C811 C 0.55617 0.50988 0.19021 0.0
C812 C 0.47521 0.93161 0.44059 0.0
C813 C 0.53778 0.94733 0.44085 0.0
H814 H 0.38225 0.96297 0.4409 0.0
C815 C 0.55357 0.0099 0.44057 0.0
H816 H 0.46107 0.88405 0.44081 0.0
C817 C 0.50819 0.05535 0.44063 0.0
C818 C 0.44563 0.03963 0.44097 0.0
H819 H 0.60115 0.024 0.44075 0.0
H820 H 0.52235 0.10291 0.44086 0.0
C821 C 0.42982 0.97707 0.44065 0.0
C822 C 0.9292 0.50788 0.54508 0.0
C823 C 0.94706 0.44594 0.54475 0.0
H824 H 0.95747 0.60179 0.54487 0.0
C825 C 0.01015 0.4322 0.54497 0.0
H826 H 0.88117 0.52039 0.54488 0.0
C827 C 0.05409 0.47902 0.54504 0.0
C828 C 0.03623 0.54097 0.54477 0.0
H829 H 0.02583 0.38512 0.54476 0.0
H830 H 0.10212 0.46651 0.54481 0.0
C831 C 0.97314 0.5547 0.54503 0.0
loop_
_geom_bond_atom_site_label_1
_geom_bond_atom_site_label_2
_geom_bond_distance
_geom_bond_site_symmetry_2
_ccdc_geom_bond_type
Sc0 O3 2.025 . S
Sc0 O10 2.105 . S
Sc0 O13 2.105 . S
Sc0 O16 2.105 . S
Sc0 O19 2.105 . S
Sc1 O3 2.025 . S
Sc1 O11 2.105 . S
Sc1 O15 2.105 . S
Sc1 O17 2.105 . S
Sc1 O21 2.105 . S
Sc2 O3 2.025 . S
Sc2 O12 2.105 . S
Sc2 O14 2.105 . S
Sc2 O18 2.105 . S
Sc2 O20 2.105 . S
O3 Sc0 2.025 . S
O3 Sc1 2.025 . S
O3 Sc2 2.025 . S
C4 O10 1.268 . S
C4 O20 1.268 . S
C5 O11 1.268 . S
C5 O19 1.268 . S
C6 O12 1.268 . S
C6 O21 1.268 . S
C7 O13 1.268 . S
C7 O17 1.268 . S
C8 O14 1.268 . S
C8 O16 1.268 . S
C9 O15 1.268 . S
C9 O18 1.268 . S
O10 Sc0 2.105 . S
O10 C4 1.268 . S
O11 Sc1 2.105 . S
O11 C5 1.268 . S
O12 Sc2 2.105 . S
O12 C6 1.268 . S
O13 Sc0 2.105 . S
O13 C7 1.268 . S
O14 Sc2 2.105 . S
O14 C8 1.268 . S
O15 Sc1 2.105 . S
O15 C9 1.268 . S
O16 Sc0 2.105 . S
O16 C8 1.268 . S
O17 Sc1 2.105 . S
O17 C7 1.268 . S
O18 Sc2 2.105 . S
O18 C9 1.268 . S
O19 Sc0 2.105 . S
O19 C5 1.268 . S
O20 Sc2 2.105 . S
O20 C4 1.268 . S
O21 Sc1 2.105 . S
O21 C6 1.268 . S
Sc22 O25 2.025 . S
Sc22 O32 2.105 . S
Sc22 O35 2.105 . S
Sc22 O38 2.105 . S
Sc22 O41 2.105 . S
Sc23 O25 2.025 . S
Sc23 O33 2.105 . S
Sc23 O37 2.105 . S
Sc23 O39 2.105 . S
Sc23 O43 2.105 . S
Sc24 O25 2.025 . S
Sc24 O34 2.105 . S
Sc24 O36 2.105 . S
Sc24 O40 2.105 . S
Sc24 O42 2.105 . S
O25 Sc22 2.025 . S
O25 Sc23 2.025 . S
O25 Sc24 2.025 . S
C26 O32 1.268 . S
C26 O42 1.268 . S
C27 O33 1.268 . S
C27 O41 1.268 . S
C28 O34 1.268 . S
C28 O43 1.268 . S
C29 O35 1.268 . S
C29 O39 1.268 . S
C30 O36 1.268 . S
C30 O38 1.268 . S
C31 O37 1.268 . S
C31 O40 1.268 . S
O32 Sc22 2.105 . S
O32 C26 1.268 . S
O33 Sc23 2.105 . S
O33 C27 1.268 . S
O34 Sc24 2.105 . S
O34 C28 1.268 . S
O35 Sc22 2.105 . S
O35 C29 1.268 . S
O36 Sc24 2.105 . S
O36 C30 1.268 . S
O37 Sc23 2.105 . S
O37 C31 1.268 . S
O38 Sc22 2.105 . S
O38 C30 1.268 . S
O39 Sc23 2.105 . S
O39 C29 1.268 . S
O40 Sc24 2.105 . S
O40 C31 1.268 . S
O41 Sc22 2.105 . S
O41 C27 1.268 . S
O42 Sc24 2.105 . S
O42 C26 1.268 . S
O43 Sc23 2.105 . S
O43 C28 1.268 . S
Sc44 O47 2.025 . S
Sc44 O54 2.105 . S
Sc44 O57 2.105 . S
Sc44 O60 2.105 . S
Sc44 O63 2.105 . S
Sc45 O47 2.025 . S
Sc45 O55 2.105 . S
Sc45 O59 2.105 . S
Sc45 O61 2.105 . S
Sc45 O65 2.105 . S
Sc46 O47 2.025 . S
Sc46 O56 2.105 . S
Sc46 O58 2.105 . S
Sc46 O62 2.105 . S
Sc46 O64 2.105 . S
O47 Sc44 2.025 . S
O47 Sc45 2.025 . S
O47 Sc46 2.025 . S
C48 O54 1.268 . S
C48 O64 1.268 . S
C49 O55 1.268 . S
C49 O63 1.268 . S
C50 O56 1.268 . S
C50 O65 1.268 . S
C51 O57 1.268 . S
C51 O61 1.268 . S
C52 O58 1.268 . S
C52 O60 1.268 . S
C53 O59 1.268 . S
C53 O62 1.268 . S
O54 Sc44 2.105 . S
O54 C48 1.268 . S
O55 Sc45 2.105 . S
O55 C49 1.268 . S
O56 Sc46 2.105 . S
O56 C50 1.268 . S
O57 Sc44 2.105 . S
O57 C51 1.268 . S
O58 Sc46 2.105 . S
O58 C52 1.268 . S
O59 Sc45 2.105 . S
O59 C53 1.268 . S
O60 Sc44 2.105 . S
O60 C52 1.268 . S
O61 Sc45 2.105 . S
O61 C51 1.268 . S
O62 Sc46 2.105 . S
O62 C53 1.268 . S
O63 Sc44 2.105 . S
O63 C49 1.268 . S
O64 Sc46 2.105 . S
O64 C48 1.268 . S
O65 Sc45 2.105 . S
O65 C50 1.268 . S
Sc66 O69 2.025 . S
Sc66 O76 2.105 . S
Sc66 O79 2.105 . S
Sc66 O82 2.105 . S
Sc66 O85 2.105 . S
Sc67 O69 2.025 . S
Sc67 O77 2.105 . S
Sc67 O81 2.105 . S
Sc67 O83 2.105 . S
Sc67 O87 2.105 . S
Sc68 O69 2.025 . S
Sc68 O78 2.105 . S
Sc68 O80 2.105 . S
Sc68 O84 2.105 . S
Sc68 O86 2.105 . S
O69 Sc66 2.025 . S
O69 Sc67 2.025 . S
O69 Sc68 2.025 . S
C70 O76 1.268 . S
C70 O86 1.268 . S
C71 O77 1.268 . S
C71 O85 1.268 . S
C72 O78 1.268 . S
C72 O87 1.268 . S
C73 O79 1.268 . S
C73 O83 1.268 . S
C74 O80 1.268 . S
C74 O82 1.268 . S
C75 O81 1.268 . S
C75 O84 1.268 . S
O76 Sc66 2.105 . S
O76 C70 1.268 . S
O77 Sc67 2.105 . S
O77 C71 1.268 . S
O78 Sc68 2.105 . S
O78 C72 1.268 . S
O79 Sc66 2.105 . S
O79 C73 1.268 . S
O80 Sc68 2.105 . S
O80 C74 1.268 . S
O81 Sc67 2.105 . S
O81 C75 1.268 . S
O82 Sc66 2.105 . S
O82 C74 1.268 . S
O83 Sc67 2.105 . S
O83 C73 1.268 . S
O84 Sc68 2.105 . S
O84 C75 1.268 . S
O85 Sc66 2.105 . S
O85 C71 1.268 . S
O86 Sc68 2.105 . S
O86 C70 1.268 . S
O87 Sc67 2.105 . S
O87 C72 1.268 . S
Sc88 O91 2.025 . S
Sc88 O98 2.105 . S
Sc88 O101 2.105 . S
Sc88 O104 2.105 . S
Sc88 O107 2.105 . S
Sc89 O91 2.025 . S
Sc89 O99 2.105 1_556 S
Sc89 O103 2.105 . S
Sc89 O105 2.105 . S
Sc89 O109 2.105 1_556 S
Sc90 O91 2.025 . S
Sc90 O100 2.105 . S
Sc90 O102 2.105 . S
Sc90 O106 2.105 . S
Sc90 O108 2.105 . S
O91 Sc88 2.025 . S
O91 Sc89 2.025 . S
O91 Sc90 2.025 . S
C92 O98 1.268 . S
C92 O108 1.268 . S
C93 O99 1.268 1_556 S
C93 O107 1.268 . S
C94 O100 1.268 . S
C94 O109 1.268 1_556 S
C95 O101 1.268 . S
C95 O105 1.268 . S
C96 O102 1.268 . S
C96 O104 1.268 . S
C97 O103 1.268 . S
C97 O106 1.268 . S
O98 Sc88 2.105 . S
O98 C92 1.268 . S
O99 Sc89 2.105 1_554 S
O99 C93 1.268 1_554 S
O100 Sc90 2.105 . S
O100 C94 1.268 . S
O101 Sc88 2.105 . S
O101 C95 1.268 . S
O102 Sc90 2.105 . S
O102 C96 1.268 . S
O103 Sc89 2.105 . S
O103 C97 1.268 . S
O104 Sc88 2.105 . S
O104 C96 1.268 . S
O105 Sc89 2.105 . S
O105 C95 1.268 . S
O106 Sc90 2.105 . S
O106 C97 1.268 . S
O107 Sc88 2.105 . S
O107 C93 1.268 . S
O108 Sc90 2.105 . S
O108 C92 1.268 . S
O109 Sc89 2.105 1_554 S
O109 C94 1.268 1_554 S
Sc110 O113 2.025 . S
Sc110 O120 2.105 . S
Sc110 O123 2.105 . S
Sc110 O126 2.105 . S
Sc110 O129 2.105 . S
Sc111 O113 2.025 . S
Sc111 O121 2.105 1_554 S
Sc111 O125 2.105 . S
Sc111 O127 2.105 . S
Sc111 O131 2.105 1_554 S
Sc112 O113 2.025 . S
Sc112 O122 2.105 . S
Sc112 O124 2.105 . S
Sc112 O128 2.105 . S
Sc112 O130 2.105 . S
O113 Sc110 2.025 . S
O113 Sc111 2.025 . S
O113 Sc112 2.025 . S
C114 O120 1.268 . S
C114 O130 1.268 . S
C115 O121 1.268 1_554 S
C115 O129 1.268 . S
C116 O122 1.268 . S
C116 O131 1.268 1_554 S
C117 O123 1.268 . S
C117 O127 1.268 . S
C118 O124 1.268 . S
C118 O126 1.268 . S
C119 O125 1.268 . S
C119 O128 1.268 . S
O120 Sc110 2.105 . S
O120 C114 1.268 . S
O121 Sc111 2.105 1_556 S
O121 C115 1.268 1_556 S
O122 Sc112 2.105 . S
O122 C116 1.268 . S
O123 Sc110 2.105 . S
O123 C117 1.268 . S
O124 Sc112 2.105 . S
O124 C118 1.268 . S
O125 Sc111 2.105 . S
O125 C119 1.268 . S
O126 Sc110 2.105 . S
O126 C118 1.268 . S
O127 Sc111 2.105 . S
O127 C117 1.268 . S
O128 Sc112 2.105 . S
O128 C119 1.268 . S
O129 Sc110 2.105 . S
O129 C115 1.268 . S
O130 Sc112 2.105 . S
O130 C114 1.268 . S
O131 Sc111 2.105 1_556 S
O131 C116 1.268 1_556 S
Sc132 O135 2.025 . S
Sc132 O142 2.105 . S
Sc132 O145 2.105 . S
Sc132 O148 2.105 . S
Sc132 O151 2.105 . S
Sc133 O135 2.025 . S
Sc133 O143 2.105 . S
Sc133 O147 2.105 1_556 S
Sc133 O149 2.105 1_556 S
Sc133 O153 2.105 . S
Sc134 O135 2.025 . S
Sc134 O144 2.105 . S
Sc134 O146 2.105 . S
Sc134 O150 2.105 . S
Sc134 O152 2.105 . S
O135 Sc132 2.025 . S
O135 Sc133 2.025 . S
O135 Sc134 2.025 . S
C136 O142 1.268 . S
C136 O152 1.268 . S
C137 O143 1.268 . S
C137 O151 1.268 . S
C138 O144 1.268 . S
C138 O153 1.268 . S
C139 O145 1.268 . S
C139 O149 1.268 1_556 S
C140 O146 1.268 . S
C140 O148 1.268 . S
C141 O147 1.268 1_556 S
C141 O150 1.268 . S
O142 Sc132 2.105 . S
O142 C136 1.268 . S
O143 Sc133 2.105 . S
O143 C137 1.268 . S
O144 Sc134 2.105 . S
O144 C138 1.268 . S
O145 Sc132 2.105 . S
O145 C139 1.268 . S
O146 Sc134 2.105 . S
O146 C140 1.268 . S
O147 Sc133 2.105 1_554 S
O147 C141 1.268 1_554 S
O148 Sc132 2.105 . S
O148 C140 1.268 . S
O149 Sc133 2.105 1_554 S
O149 C139 1.268 1_554 S
O150 Sc134 2.105 . S
O150 C141 1.268 . S
O151 Sc132 2.105 . S
O151 C137 1.268 . S
O152 Sc134 2.105 . S
O152 C136 1.268 . S
O153 Sc133 2.105 . S
O153 C138 1.268 . S
Sc154 O157 2.025 . S
Sc154 O164 2.105 . S
Sc154 O167 2.105 . S
Sc154 O170 2.105 . S
Sc154 O173 2.105 . S
Sc155 O157 2.025 . S
Sc155 O165 2.105 . S
Sc155 O169 2.105 1_554 S
Sc155 O171 2.105 1_554 S
Sc155 O175 2.105 . S
Sc156 O157 2.025 . S
Sc156 O166 2.105 . S
Sc156 O168 2.105 . S
Sc156 O172 2.105 . S
Sc156 O174 2.105 . S
O157 Sc154 2.025 . S
O157 Sc155 2.025 . S
O157 Sc156 2.025 . S
C158 O164 1.268 . S
C158 O174 1.268 . S
C159 O165 1.268 . S
C159 O173 1.268 . S
C160 O166 1.268 . S
C160 O175 1.268 . S
C161 O167 1.268 . S
C161 O171 1.268 1_554 S
C162 O168 1.268 . S
C162 O170 1.268 . S
C163 O169 1.268 1_554 S
C163 O172 1.268 . S
O164 Sc154 2.105 . S
O164 C158 1.268 . S
O165 Sc155 2.105 . S
O165 C159 1.268 . S
O166 Sc156 2.105 . S
O166 C160 1.268 . S
O167 Sc154 2.105 . S
O167 C161 1.268 . S
O168 Sc156 2.105 . S
O168 C162 1.268 . S
O169 Sc155 2.105 1_556 S
O169 C163 1.268 1_556 S
O170 Sc154 2.105 . S
O170 C162 1.268 . S
O171 Sc155 2.105 1_556 S
O171 C161 1.268 1_556 S
O172 Sc156 2.105 . S
O172 C163 1.268 . S
O173 Sc154 2.105 . S
O173 C159 1.268 . S
O174 Sc156 2.105 . S
O174 C158 1.268 . S
O175 Sc155 2.105 . S
O175 C160 1.268 . S
Sc176 O179 2.025 . S
Sc176 O186 2.105 . S
Sc176 O189 2.105 . S
Sc176 O192 2.105 . S
Sc176 O195 2.105 . S
Sc177 O179 2.025 . S
Sc177 O187 2.105 . S
Sc177 O191 2.105 . S
Sc177 O193 2.105 . S
Sc177 O197 2.105 . S
Sc178 O179 2.025 . S
Sc178 O188 2.105 . S
Sc178 O190 2.105 . S
Sc178 O194 2.105 . S
Sc178 O196 2.105 . S
O179 Sc176 2.025 . S
O179 Sc177 2.025 . S
O179 Sc178 2.025 . S
C180 O186 1.268 . S
C180 O196 1.268 . S
C181 O187 1.268 . S
C181 O195 1.268 . S
C182 O188 1.268 . S
C182 O197 1.268 . S
C183 O189 1.268 . S
C183 O193 1.268 . S
C184 O190 1.268 . S
C184 O192 1.268 . S
C185 O191 1.268 . S
C185 O194 1.268 . S
O186 Sc176 2.105 . S
O186 C180 1.268 . S
O187 Sc177 2.105 . S
O187 C181 1.268 . S
O188 Sc178 2.105 . S
O188 C182 1.268 . S
O189 Sc176 2.105 . S
O189 C183 1.268 . S
O190 Sc178 2.105 . S
O190 C184 1.268 . S
O191 Sc177 2.105 . S
O191 C185 1.268 . S
O192 Sc176 2.105 . S
O192 C184 1.268 . S
O193 Sc177 2.105 . S
O193 C183 1.268 . S
O194 Sc178 2.105 . S
O194 C185 1.268 . S
O195 Sc176 2.105 . S
O195 C181 1.268 . S
O196 Sc178 2.105 . S
O196 C180 1.268 . S
O197 Sc177 2.105 . S
O197 C182 1.268 . S
Sc198 O201 2.025 . S
Sc198 O208 2.105 . S
Sc198 O211 2.105 . S
Sc198 O214 2.105 . S
Sc198 O217 2.105 . S
Sc199 O201 2.025 . S
Sc199 O209 2.105 . S
Sc199 O213 2.105 . S
Sc199 O215 2.105 . S
Sc199 O219 2.105 . S
Sc200 O201 2.025 . S
Sc200 O210 2.105 . S
Sc200 O212 2.105 . S
Sc200 O216 2.105 . S
Sc200 O218 2.105 . S
O201 Sc198 2.025 . S
O201 Sc199 2.025 . S
O201 Sc200 2.025 . S
C202 O208 1.268 . S
C202 O218 1.268 . S
C203 O209 1.268 . S
C203 O217 1.268 . S
C204 O210 1.268 . S
C204 O219 1.268 . S
C205 O211 1.268 . S
C205 O215 1.268 . S
C206 O212 1.268 . S
C206 O214 1.268 . S
C207 O213 1.268 . S
C207 O216 1.268 . S
O208 Sc198 2.105 . S
O208 C202 1.268 . S
O209 Sc199 2.105 . S
O209 C203 1.268 . S
O210 Sc200 2.105 . S
O210 C204 1.268 . S
O211 Sc198 2.105 . S
O211 C205 1.268 . S
O212 Sc200 2.105 . S
O212 C206 1.268 . S
O213 Sc199 2.105 . S
O213 C207 1.268 . S
O214 Sc198 2.105 . S
O214 C206 1.268 . S
O215 Sc199 2.105 . S
O215 C205 1.268 . S
O216 Sc200 2.105 . S
O216 C207 1.268 . S
O217 Sc198 2.105 . S
O217 C203 1.268 . S
O218 Sc200 2.105 . S
O218 C202 1.268 . S
O219 Sc199 2.105 . S
O219 C204 1.268 . S
Sc220 O223 2.025 . S
Sc220 O230 2.105 . S
Sc220 O233 2.105 . S
Sc220 O236 2.105 . S
Sc220 O239 2.105 . S
Sc221 O223 2.025 . S
Sc221 O231 2.105 . S
Sc221 O235 2.105 . S
Sc221 O237 2.105 . S
Sc221 O241 2.105 . S
Sc222 O223 2.025 . S
Sc222 O232 2.105 . S
Sc222 O234 2.105 . S
Sc222 O238 2.105 . S
Sc222 O240 2.105 . S
O223 Sc220 2.025 . S
O223 Sc221 2.025 . S
O223 Sc222 2.025 . S
C224 O230 1.268 . S
C224 O240 1.268 . S
C225 O231 1.268 . S
C225 O239 1.268 . S
C226 O232 1.268 . S
C226 O241 1.268 . S
C227 O233 1.268 . S
C227 O237 1.268 . S
C228 O234 1.268 . S
C228 O236 1.268 . S
C229 O235 1.268 . S
C229 O238 1.268 . S
O230 Sc220 2.105 . S
O230 C224 1.268 . S
O231 Sc221 2.105 . S
O231 C225 1.268 . S
O232 Sc222 2.105 . S
O232 C226 1.268 . S
O233 Sc220 2.105 . S
O233 C227 1.268 . S
O234 Sc222 2.105 . S
O234 C228 1.268 . S
O235 Sc221 2.105 . S
O235 C229 1.268 . S
O236 Sc220 2.105 . S
O236 C228 1.268 . S
O237 Sc221 2.105 . S
O237 C227 1.268 . S
O238 Sc222 2.105 . S
O238 C229 1.268 . S
O239 Sc220 2.105 . S
O239 C225 1.268 . S
O240 Sc222 2.105 . S
O240 C224 1.268 . S
O241 Sc221 2.105 . S
O241 C226 1.268 . S
Sc242 O245 2.025 . S
Sc242 O252 2.105 . S
Sc242 O255 2.105 . S
Sc242 O258 2.105 . S
Sc242 O261 2.105 . S
Sc243 O245 2.025 . S
Sc243 O253 2.105 . S
Sc243 O257 2.105 . S
Sc243 O259 2.105 . S
Sc243 O263 2.105 . S
Sc244 O245 2.025 . S
Sc244 O254 2.105 . S
Sc244 O256 2.105 . S
Sc244 O260 2.105 . S
Sc244 O262 2.105 . S
O245 Sc242 2.025 . S
O245 Sc243 2.025 . S
O245 Sc244 2.025 . S
C246 O252 1.268 . S
C246 O262 1.268 . S
C247 O253 1.268 . S
C247 O261 1.268 . S
C248 O254 1.268 . S
C248 O263 1.268 . S
C249 O255 1.268 . S
C249 O259 1.268 . S
C250 O256 1.268 . S
C250 O258 1.268 . S
C251 O257 1.268 . S
C251 O260 1.268 . S
O252 Sc242 2.105 . S
O252 C246 1.268 . S
O253 Sc243 2.105 . S
O253 C247 1.268 . S
O254 Sc244 2.105 . S
O254 C248 1.268 . S
O255 Sc242 2.105 . S
O255 C249 1.268 . S
O256 Sc244 2.105 . S
O256 C250 1.268 . S
O257 Sc243 2.105 . S
O257 C251 1.268 . S
O258 Sc242 2.105 . S
O258 C250 1.268 . S
O259 Sc243 2.105 . S
O259 C249 1.268 . S
O260 Sc244 2.105 . S
O260 C251 1.268 . S
O261 Sc242 2.105 . S
O261 C247 1.268 . S
O262 Sc244 2.105 . S
O262 C246 1.268 . S
O263 Sc243 2.105 . S
O263 C248 1.268 . S
Sc264 O267 2.025 . S
Sc264 O274 2.105 . S
Sc264 O277 2.105 . S
Sc264 O280 2.105 . S
Sc264 O283 2.105 . S
Sc265 O267 2.025 . S
Sc265 O275 2.105 . S
Sc265 O279 2.105 . S
Sc265 O281 2.105 . S
Sc265 O285 2.105 . S
Sc266 O267 2.025 . S
Sc266 O276 2.105 . S
Sc266 O278 2.105 . S
Sc266 O282 2.105 . S
Sc266 O284 2.105 . S
O267 Sc264 2.025 . S
O267 Sc265 2.025 . S
O267 Sc266 2.025 . S
C268 O274 1.268 . S
C268 O284 1.268 . S
C269 O275 1.268 . S
C269 O283 1.268 . S
C270 O276 1.268 . S
C270 O285 1.268 . S
C271 O277 1.268 . S
C271 O281 1.268 . S
C272 O278 1.268 . S
C272 O280 1.268 . S
C273 O279 1.268 . S
C273 O282 1.268 . S
O274 Sc264 2.105 . S
O274 C268 1.268 . S
O275 Sc265 2.105 . S
O275 C269 1.268 . S
O276 Sc266 2.105 . S
O276 C270 1.268 . S
O277 Sc264 2.105 . S
O277 C271 1.268 . S
O278 Sc266 2.105 . S
O278 C272 1.268 . S
O279 Sc265 2.105 . S
O279 C273 1.268 . S
O280 Sc264 2.105 . S
O280 C272 1.268 . S
O281 Sc265 2.105 . S
O281 C271 1.268 . S
O282 Sc266 2.105 . S
O282 C273 1.268 . S
O283 Sc264 2.105 . S
O283 C269 1.268 . S
O284 Sc266 2.105 . S
O284 C268 1.268 . S
O285 Sc265 2.105 . S
O285 C270 1.268 . S
Sc286 O289 2.025 . S
Sc286 O296 2.105 . S
Sc286 O299 2.105 . S
Sc286 O302 2.105 . S
Sc286 O305 2.105 . S
Sc287 O289 2.025 . S
Sc287 O297 2.105 . S
Sc287 O301 2.105 . S
Sc287 O303 2.105 . S
Sc287 O307 2.105 . S
Sc288 O289 2.025 . S
Sc288 O298 2.105 . S
Sc288 O300 2.105 . S
Sc288 O304 2.105 . S
Sc288 O306 2.105 . S
O289 Sc286 2.025 . S
O289 Sc287 2.025 . S
O289 Sc288 2.025 . S
C290 O296 1.268 . S
C290 O306 1.268 . S
C291 O297 1.268 . S
C291 O305 1.268 . S
C292 O298 1.268 . S
C292 O307 1.268 . S
C293 O299 1.268 . S
C293 O303 1.268 . S
C294 O300 1.268 . S
C294 O302 1.268 . S
C295 O301 1.268 . S
C295 O304 1.268 . S
O296 Sc286 2.105 . S
O296 C290 1.268 . S
O297 Sc287 2.105 . S
O297 C291 1.268 . S
O298 Sc288 2.105 . S
O298 C292 1.268 . S
O299 Sc286 2.105 . S
O299 C293 1.268 . S
O300 Sc288 2.105 . S
O300 C294 1.268 . S
O301 Sc287 2.105 . S
O301 C295 1.268 . S
O302 Sc286 2.105 . S
O302 C294 1.268 . S
O303 Sc287 2.105 . S
O303 C293 1.268 . S
O304 Sc288 2.105 . S
O304 C295 1.268 . S
O305 Sc286 2.105 . S
O305 C291 1.268 . S
O306 Sc288 2.105 . S
O306 C290 1.268 . S
O307 Sc287 2.105 . S
O307 C292 1.268 . S
Sc308 O311 2.025 . S
Sc308 O318 2.105 . S
Sc308 O321 2.105 . S
Sc308 O324 2.105 . S
Sc308 O327 2.105 . S
Sc309 O311 2.025 . S
Sc309 O319 2.105 . S
Sc309 O323 2.105 . S
Sc309 O325 2.105 . S
Sc309 O329 2.105 . S
Sc310 O311 2.025 . S
Sc310 O320 2.105 . S
Sc310 O322 2.105 . S
Sc310 O326 2.105 . S
Sc310 O328 2.105 . S
O311 Sc308 2.025 . S
O311 Sc309 2.025 . S
O311 Sc310 2.025 . S
C312 O318 1.268 . S
C312 O328 1.268 . S
C313 O319 1.268 . S
C313 O327 1.268 . S
C314 O320 1.268 . S
C314 O329 1.268 . S
C315 O321 1.268 . S
C315 O325 1.268 . S
C316 O322 1.268 . S
C316 O324 1.268 . S
C317 O323 1.268 . S
C317 O326 1.268 . S
O318 Sc308 2.105 . S
O318 C312 1.268 . S
O319 Sc309 2.105 . S
O319 C313 1.268 . S
O320 Sc310 2.105 . S
O320 C314 1.268 . S
O321 Sc308 2.105 . S
O321 C315 1.268 . S
O322 Sc310 2.105 . S
O322 C316 1.268 . S
O323 Sc309 2.105 . S
O323 C317 1.268 . S
O324 Sc308 2.105 . S
O324 C316 1.268 . S
O325 Sc309 2.105 . S
O325 C315 1.268 . S
O326 Sc310 2.105 . S
O326 C317 1.268 . S
O327 Sc308 2.105 . S
O327 C313 1.268 . S
O328 Sc310 2.105 . S
O328 C312 1.268 . S
O329 Sc309 2.105 . S
O329 C314 1.268 . S
Sc330 O333 2.025 . S
Sc330 O340 2.105 . S
Sc330 O343 2.105 . S
Sc330 O346 2.105 . S
Sc330 O349 2.105 . S
Sc331 O333 2.025 . S
Sc331 O341 2.105 . S
Sc331 O345 2.105 . S
Sc331 O347 2.105 . S
Sc331 O351 2.105 . S
Sc332 O333 2.025 . S
Sc332 O342 2.105 . S
Sc332 O344 2.105 . S
Sc332 O348 2.105 . S
Sc332 O350 2.105 . S
O333 Sc330 2.025 . S
O333 Sc331 2.025 . S
O333 Sc332 2.025 . S
C334 O340 1.268 . S
C334 O350 1.268 . S
C335 O341 1.268 . S
C335 O349 1.268 . S
C336 O342 1.268 . S
C336 O351 1.268 . S
C337 O343 1.268 . S
C337 O347 1.268 . S
C338 O344 1.268 . S
C338 O346 1.268 . S
C339 O345 1.268 . S
C339 O348 1.268 . S
O340 Sc330 2.105 . S
O340 C334 1.268 . S
O341 Sc331 2.105 . S
O341 C335 1.268 . S
O342 Sc332 2.105 . S
O342 C336 1.268 . S
O343 Sc330 2.105 . S
O343 C337 1.268 . S
O344 Sc332 2.105 . S
O344 C338 1.268 . S
O345 Sc331 2.105 . S
O345 C339 1.268 . S
O346 Sc330 2.105 . S
O346 C338 1.268 . S
O347 Sc331 2.105 . S
O347 C337 1.268 . S
O348 Sc332 2.105 . S
O348 C339 1.268 . S
O349 Sc330 2.105 . S
O349 C335 1.268 . S
O350 Sc332 2.105 . S
O350 C334 1.268 . S
O351 Sc331 2.105 . S
O351 C336 1.268 . S
C352 C353 1.387 . S
C352 H356 0.950 . S
C352 C361 1.390 . S
C353 C352 1.387 . S
C353 C355 1.387 . S
H354 C361 0.950 . S
C355 C353 1.387 . S
C355 C357 1.390 1_565 S
C355 H359 0.950 . S
H356 C352 0.950 . S
C357 C355 1.390 1_545 S
C357 C358 1.387 . S
C357 H360 0.950 . S
C358 C357 1.387 . S
C358 C361 1.387 1_545 S
H359 C355 0.950 . S
H360 C357 0.950 . S
C361 C352 1.390 . S
C361 H354 0.950 . S
C361 C358 1.387 1_565 S
C362 C363 1.387 . S
C362 H366 0.950 . S
C362 C371 1.390 1_455 S
C363 C362 1.387 . S
C363 C365 1.387 1_455 S
H364 C371 0.950 . S
C365 C363 1.387 1_655 S
C365 C367 1.390 . S
C365 H369 0.950 1_655 S
H366 C362 0.950 . S
C367 C365 1.390 . S
C367 C368 1.387 . S
C367 H370 0.950 . S
C368 C367 1.387 . S
C368 C371 1.387 . S
H369 C365 0.950 1_455 S
H370 C367 0.950 . S
C371 C362 1.390 1_655 S
C371 H364 0.950 . S
C371 C368 1.387 . S
C372 C373 1.387 . S
C372 H376 0.950 . S
C372 C381 1.390 1_565 S
C373 C372 1.387 . S
C373 C375 1.387 1_565 S
H374 C381 0.950 . S
C375 C373 1.387 1_545 S
C375 C377 1.390 . S
C375 H379 0.950 1_545 S
H376 C372 0.950 . S
C377 C375 1.390 . S
C377 C378 1.387 . S
C377 H380 0.950 . S
C378 C377 1.387 . S
C378 C381 1.387 . S
H379 C375 0.950 1_565 S
H380 C377 0.950 . S
C381 C372 1.390 1_545 S
C381 H374 0.950 . S
C381 C378 1.387 . S
C382 C383 1.387 . S
C382 H386 0.950 . S
C382 C391 1.390 1_455 S
C383 C382 1.387 . S
C383 C385 1.387 . S
H384 C391 0.950 . S
C385 C383 1.387 . S
C385 C387 1.390 . S
C385 H389 0.950 . S
H386 C382 0.950 . S
C387 C385 1.390 . S
C387 C388 1.387 1_455 S
C387 H390 0.946 1_455 S
C388 C387 1.387 1_655 S
C388 C391 1.387 . S
H389 C385 0.950 . S
H390 C387 0.946 1_655 S
C391 C382 1.390 1_655 S
C391 H384 0.950 . S
C391 C388 1.387 . S
C392 C393 1.387 . S
C392 H396 0.950 . S
C392 C401 1.390 . S
C393 C392 1.387 . S
C393 C395 1.387 . S
H394 C401 0.950 . S
C395 C393 1.387 . S
C395 C397 1.390 . S
C395 H399 0.950 . S
H396 C392 0.950 . S
C397 C395 1.390 . S
C397 C398 1.387 . S
C397 H400 0.950 . S
C398 C397 1.387 . S
C398 C401 1.387 . S
H399 C395 0.950 . S
H400 C397 0.950 . S
C401 C392 1.390 . S
C401 H394 0.950 . S
C401 C398 1.387 . S
C402 C403 1.387 . S
C402 H406 0.950 . S
C402 C411 1.390 . S
C403 C402 1.387 . S
C403 C405 1.387 1_556 S
H404 C411 0.950 . S
C405 C403 1.387 1_554 S
C405 C407 1.390 1_554 S
C405 H409 0.950 . S
H406 C402 0.950 . S
C407 C405 1.390 1_556 S
C407 C408 1.387 . S
C407 H410 0.950 1_556 S
C408 C407 1.387 . S
C408 C411 1.387 . S
H409 C405 0.950 . S
H410 C407 0.950 1_554 S
C411 C402 1.390 . S
C411 H404 0.950 . S
C411 C408 1.387 . S
C412 C413 1.387 . S
C412 H416 0.950 . S
C412 C421 1.390 . S
C413 C412 1.387 . S
C413 C415 1.387 . S
H414 C421 0.950 . S
C415 C413 1.387 . S
C415 C417 1.390 1_554 S
C415 H419 0.950 1_554 S
H416 C412 0.950 . S
C417 C415 1.390 1_556 S
C417 C418 1.387 1_556 S
C417 H420 0.950 . S
C418 C417 1.387 1_554 S
C418 C421 1.387 . S
H419 C415 0.950 1_556 S
H420 C417 0.950 . S
C421 C412 1.390 . S
C421 H414 0.950 . S
C421 C418 1.387 . S
C422 C423 1.387 . S
C422 H426 0.950 . S
C422 C431 1.390 . S
C423 C422 1.387 . S
C423 C425 1.387 . S
H424 C431 0.950 . S
C425 C423 1.387 . S
C425 C427 1.390 1_556 S
C425 H429 0.950 1_556 S
H426 C422 0.950 . S
C427 C425 1.390 1_554 S
C427 C428 1.387 1_554 S
C427 H430 0.950 . S
C428 C427 1.387 1_556 S
C428 C431 1.387 . S
H429 C425 0.950 1_554 S
H430 C427 0.950 . S
C431 C422 1.390 . S
C431 H424 0.950 . S
C431 C428 1.387 . S
C432 C433 1.387 . S
C432 H436 0.950 . S
C432 C441 1.390 . S
C433 C432 1.387 . S
C433 C435 1.387 . S
H434 C441 0.950 . S
C435 C433 1.387 . S
C435 C437 1.390 . S
C435 H439 0.950 . S
H436 C432 0.950 . S
C437 C435 1.390 . S
C437 C438 1.387 . S
C437 H440 0.950 . S
C438 C437 1.387 . S
C438 C441 1.387 . S
H439 C435 0.950 . S
H440 C437 0.950 . S
C441 C432 1.390 . S
C441 H434 0.950 . S
C441 C438 1.387 . S
C442 C443 1.387 . S
C442 H446 0.950 . S
C442 C451 1.390 . S
C443 C442 1.387 . S
C443 C445 1.387 . S
H444 C451 0.950 . S
C445 C443 1.387 . S
C445 C447 1.390 . S
C445 H449 0.950 . S
H446 C442 0.950 . S
C447 C445 1.390 . S
C447 C448 1.387 . S
C447 H450 0.950 . S
C448 C447 1.387 . S
C448 C451 1.387 . S
H449 C445 0.950 . S
H450 C447 0.950 . S
C451 C442 1.390 . S
C451 H444 0.950 . S
C451 C448 1.387 . S
C452 C453 1.387 . S
C452 H456 0.950 . S
C452 C461 1.390 . S
C453 C452 1.387 . S
C453 C455 1.387 . S
H454 C461 0.950 . S
C455 C453 1.387 . S
C455 C457 1.390 . S
C455 H459 0.950 . S
H456 C452 0.950 . S
C457 C455 1.390 . S
C457 C458 1.387 . S
C457 H460 0.950 . S
C458 C457 1.387 . S
C458 C461 1.387 . S
H459 C455 0.950 . S
H460 C457 0.950 . S
C461 C452 1.390 . S
C461 H454 0.950 . S
C461 C458 1.387 . S
C462 C463 1.387 . S
C462 H466 0.950 . S
C462 C471 1.390 . S
C463 C462 1.387 . S
C463 C465 1.387 . S
H464 C471 0.950 . S
C465 C463 1.387 . S
C465 C467 1.390 . S
C465 H469 0.950 . S
H466 C462 0.950 . S
C467 C465 1.390 . S
C467 C468 1.387 . S
C467 H470 0.950 . S
C468 C467 1.387 . S
C468 C471 1.387 . S
H469 C465 0.950 . S
H470 C467 0.950 . S
C471 C462 1.390 . S
C471 H464 0.950 . S
C471 C468 1.387 . S
C472 C473 1.387 1_545 S
C472 H476 0.950 . S
C472 C481 1.390 . S
C473 C472 1.387 1_565 S
C473 C475 1.387 . S
H474 C481 0.950 . S
C475 C473 1.387 . S
C475 C477 1.390 1_565 S
C475 H479 0.950 . S
H476 C472 0.950 . S
C477 C475 1.390 1_545 S
C477 C478 1.387 . S
C477 H480 0.950 . S
C478 C477 1.387 . S
C478 C481 1.387 . S
H479 C475 0.950 . S
H480 C477 0.950 . S
C481 C472 1.390 . S
C481 H474 0.950 . S
C481 C478 1.387 . S
C482 C483 1.387 . S
C482 H486 0.950 . S
C482 C491 1.390 . S
C483 C482 1.387 . S
C483 C485 1.387 . S
H484 C491 0.950 . S
C485 C483 1.387 . S
C485 C487 1.390 1_455 S
C485 H489 0.950 . S
H486 C482 0.950 . S
C487 C485 1.390 1_655 S
C487 C488 1.387 . S
C487 H490 0.950 . S
C488 C487 1.387 . S
C488 C491 1.387 1_655 S
H489 C485 0.950 . S
H490 C487 0.950 . S
C491 C482 1.390 . S
C491 H484 0.950 . S
C491 C488 1.387 1_455 S
C492 C493 1.387 . S
C492 H496 0.950 . S
C492 C501 1.390 1_565 S
C493 C492 1.387 . S
C493 C495 1.387 . S
H494 C501 0.950 . S
C495 C493 1.387 . S
C495 C497 1.390 . S
C495 H499 0.950 . S
H496 C492 0.950 . S
C497 C495 1.390 . S
C497 C498 1.387 1_565 S
C497 H500 0.950 1_565 S
C498 C497 1.387 1_545 S
C498 C501 1.387 . S
H499 C495 0.950 . S
H500 C497 0.950 1_545 S
C501 C492 1.390 1_545 S
C501 H494 0.950 . S
C501 C498 1.387 . S
C502 C503 1.387 1_655 S
C502 H506 0.950 . S
C502 C511 1.390 . S
C503 C502 1.387 1_455 S
C503 C505 1.387 . S
H504 C511 0.950 . S
C505 C503 1.387 . S
C505 C507 1.390 1_455 S
C505 H509 0.950 . S
H506 C502 0.950 . S
C507 C505 1.390 1_655 S
C507 C508 1.387 . S
C507 H510 0.950 . S
C508 C507 1.387 . S
C508 C511 1.387 . S
H509 C505 0.950 . S
H510 C507 0.950 . S
C511 C502 1.390 . S
C511 H504 0.950 . S
C511 C508 1.387 . S
C512 C513 1.387 . S
C512 H516 0.950 . S
C512 C521 1.390 . S
C513 C512 1.387 . S
C513 C515 1.387 . S
H514 C521 0.950 . S
C515 C513 1.387 . S
C515 C517 1.390 . S
C515 H519 0.950 . S
H516 C512 0.950 . S
C517 C515 1.390 . S
C517 C518 1.387 . S
C517 H520 0.950 . S
C518 C517 1.387 . S
C518 C521 1.387 . S
H519 C515 0.950 . S
H520 C517 0.950 . S
C521 C512 1.390 . S
C521 H514 0.950 . S
C521 C518 1.387 . S
C522 C523 1.387 . S
C522 H526 0.950 . S
C522 C531 1.390 . S
C523 C522 1.387 . S
C523 C525 1.387 . S
H524 C531 0.950 . S
C525 C523 1.387 . S
C525 C527 1.390 . S
C525 H529 0.950 . S
H526 C522 0.950 . S
C527 C525 1.390 . S
C527 C528 1.387 . S
C527 H530 0.950 . S
C528 C527 1.387 . S
C528 C531 1.387 . S
H529 C525 0.950 . S
H530 C527 0.950 . S
C531 C522 1.390 . S
C531 H524 0.950 . S
C531 C528 1.387 . S
C532 C533 1.387 . S
C532 H536 0.950 . S
C532 C541 1.390 . S
C533 C532 1.387 . S
C533 C535 1.387 . S
H534 C541 0.950 . S
C535 C533 1.387 . S
C535 C537 1.390 . S
C535 H539 0.950 . S
H536 C532 0.950 . S
C537 C535 1.390 . S
C537 C538 1.387 . S
C537 H540 0.950 . S
C538 C537 1.387 . S
C538 C541 1.387 . S
H539 C535 0.950 . S
H540 C537 0.950 . S
C541 C532 1.390 . S
C541 H534 0.950 . S
C541 C538 1.387 . S
C542 C543 1.387 . S
C542 H546 0.950 . S
C542 C551 1.390 . S
C543 C542 1.387 . S
C543 C545 1.387 . S
H544 C551 0.950 . S
C545 C543 1.387 . S
C545 C547 1.390 . S
C545 H549 0.950 . S
H546 C542 0.950 . S
C547 C545 1.390 . S
C547 C548 1.387 . S
C547 H550 0.950 . S
C548 C547 1.387 . S
C548 C551 1.387 . S
H549 C545 0.950 . S
H550 C547 0.950 . S
C551 C542 1.390 . S
C551 H544 0.950 . S
C551 C548 1.387 . S
C552 C553 1.387 . S
C552 H556 0.950 . S
C552 C561 1.390 . S
C553 C552 1.387 . S
C553 C555 1.387 . S
H554 C561 0.950 . S
C555 C553 1.387 . S
C555 C557 1.390 . S
C555 H559 0.950 . S
H556 C552 0.950 . S
C557 C555 1.390 . S
C557 C558 1.387 . S
C557 H560 0.950 . S
C558 C557 1.387 . S
C558 C561 1.387 . S
H559 C555 0.950 . S
H560 C557 0.950 . S
C561 C552 1.390 . S
C561 H554 0.950 . S
C561 C558 1.387 . S
C562 C563 1.387 . S
C562 H566 0.950 . S
C562 C571 1.390 . S
C563 C562 1.387 . S
C563 C565 1.387 . S
H564 C571 0.950 . S
C565 C563 1.387 . S
C565 C567 1.390 . S
C565 H569 0.950 . S
H566 C562 0.950 . S
C567 C565 1.390 . S
C567 C568 1.387 . S
C567 H570 0.950 . S
C568 C567 1.387 . S
C568 C571 1.387 . S
H569 C565 0.950 . S
H570 C567 0.950 . S
C571 C562 1.390 . S
C571 H564 0.950 . S
C571 C568 1.387 . S
C572 C573 1.387 . S
C572 H576 0.950 . S
C572 C581 1.390 . S
C573 C572 1.387 . S
C573 C575 1.387 . S
H574 C581 0.950 . S
C575 C573 1.387 . S
C575 C577 1.390 . S
C575 H579 0.950 . S
H576 C572 0.950 . S
C577 C575 1.390 . S
C577 C578 1.387 . S
C577 H580 0.950 . S
C578 C577 1.387 . S
C578 C581 1.387 . S
H579 C575 0.950 . S
H580 C577 0.950 . S
C581 C572 1.390 . S
C581 H574 0.950 . S
C581 C578 1.387 . S
C582 C583 1.387 . S
C582 H586 0.950 . S
C582 C591 1.390 . S
C583 C582 1.387 . S
C583 C585 1.387 . S
H584 C591 0.950 . S
C585 C583 1.387 . S
C585 C587 1.390 . S
C585 H589 0.950 . S
H586 C582 0.950 . S
C587 C585 1.390 . S
C587 C588 1.387 . S
C587 H590 0.950 . S
C588 C587 1.387 . S
C588 C591 1.387 . S
H589 C585 0.950 . S
H590 C587 0.950 . S
C591 C582 1.390 . S
C591 H584 0.950 . S
C591 C588 1.387 . S
C592 C593 1.387 . S
C592 H596 0.950 . S
C592 C601 1.390 . S
C593 C592 1.387 . S
C593 C595 1.387 . S
H594 C601 0.950 . S
C595 C593 1.387 . S
C595 C597 1.390 . S
C595 H599 0.950 . S
H596 C592 0.950 . S
C597 C595 1.390 . S
C597 C598 1.387 . S
C597 H600 0.950 . S
C598 C597 1.387 . S
C598 C601 1.387 . S
H599 C595 0.950 . S
H600 C597 0.950 . S
C601 C592 1.390 . S
C601 H594 0.950 . S
C601 C598 1.387 . S
C602 C603 1.387 . S
C602 H606 0.950 . S
C602 C611 1.390 . S
C603 C602 1.387 . S
C603 C605 1.387 . S
H604 C611 0.950 . S
C605 C603 1.387 . S
C605 C607 1.390 . S
C605 H609 0.950 . S
H606 C602 0.950 . S
C607 C605 1.390 . S
C607 C608 1.387 . S
C607 H610 0.950 . S
C608 C607 1.387 . S
C608 C611 1.387 . S
H609 C605 0.950 . S
H610 C607 0.950 . S
C611 C602 1.390 . S
C611 H604 0.950 . S
C611 C608 1.387 . S
C612 C613 1.387 . S
C612 H616 0.950 . S
C612 C621 1.390 . S
C613 C612 1.387 . S
C613 C615 1.387 . S
H614 C621 0.950 . S
C615 C613 1.387 . S
C615 C617 1.390 . S
C615 H619 0.950 . S
H616 C612 0.950 . S
C617 C615 1.390 . S
C617 C618 1.387 . S
C617 H620 0.950 . S
C618 C617 1.387 . S
C618 C621 1.387 . S
H619 C615 0.950 . S
H620 C617 0.950 . S
C621 C612 1.390 . S
C621 H614 0.950 . S
C621 C618 1.387 . S
C622 C623 1.387 . S
C622 H626 0.950 . S
C622 C631 1.390 . S
C623 C622 1.387 . S
C623 C625 1.387 . S
H624 C631 0.950 . S
C625 C623 1.387 . S
C625 C627 1.390 . S
C625 H629 0.950 . S
H626 C622 0.950 . S
C627 C625 1.390 . S
C627 C628 1.387 . S
C627 H630 0.950 . S
C628 C627 1.387 . S
C628 C631 1.387 . S
H629 C625 0.950 . S
H630 C627 0.950 . S
C631 C622 1.390 . S
C631 H624 0.950 . S
C631 C628 1.387 . S
C632 C633 1.387 . S
C632 H636 0.950 1_556 S
C632 C641 1.390 1_556 S
C633 C632 1.387 . S
C633 C635 1.387 . S
H634 C641 0.950 . S
C635 C633 1.387 . S
C635 C637 1.390 1_545 S
C635 H639 0.950 . S
H636 C632 0.950 1_554 S
C637 C635 1.390 1_565 S
C637 C638 1.387 . S
C637 H640 0.950 . S
C638 C637 1.387 . S
C638 C641 1.387 1_566 S
H639 C635 0.950 . S
H640 C637 0.950 . S
C641 C632 1.390 1_554 S
C641 H634 0.950 . S
C641 C638 1.387 1_544 S
C642 C643 1.387 . S
C642 H646 0.950 1_554 S
C642 C651 1.390 1_554 S
C643 C642 1.387 . S
C643 C645 1.387 . S
H644 C651 0.950 . S
C645 C643 1.387 . S
C645 C647 1.390 1_455 S
C645 H649 0.950 . S
H646 C642 0.950 1_556 S
C647 C645 1.390 1_655 S
C647 C648 1.387 . S
C647 H650 0.950 . S
C648 C647 1.387 . S
C648 C651 1.387 1_654 S
H649 C645 0.950 . S
H650 C647 0.950 . S
C651 C642 1.390 1_556 S
C651 H644 0.950 . S
C651 C648 1.387 1_456 S
C652 C653 1.387 . S
C652 H656 0.950 . S
C652 C661 1.390 1_545 S
C653 C652 1.387 . S
C653 C655 1.387 1_546 S
H654 C661 0.950 . S
C655 C653 1.387 1_564 S
C655 C657 1.390 1_554 S
C655 H659 0.950 . S
H656 C652 0.950 . S
C657 C655 1.390 1_556 S
C657 C658 1.387 . S
C657 H660 0.950 1_556 S
C658 C657 1.387 . S
C658 C661 1.387 . S
H659 C655 0.950 . S
H660 C657 0.950 1_554 S
C661 C652 1.390 1_565 S
C661 H654 0.950 . S
C661 C658 1.387 . S
C662 C663 1.374 1_656 S
C662 H666 0.982 1_655 S
C662 C671 1.372 1_556 S
C663 C662 1.374 1_454 S
C663 C665 1.387 1_455 S
H664 C671 0.950 . S
C665 C663 1.387 1_655 S
C665 C667 1.390 . S
C665 H669 0.950 1_655 S
H666 C662 0.982 1_455 S
C667 C665 1.390 . S
C667 C668 1.387 . S
C667 H670 0.950 . S
C668 C667 1.387 . S
C668 C671 1.387 . S
H669 C665 0.950 1_455 S
H670 C667 0.950 . S
C671 C662 1.372 1_554 S
C671 H664 0.950 . S
C671 C668 1.387 . S
C672 C673 1.387 . S
C672 H676 0.950 . S
C672 C681 1.390 1_545 S
C673 C672 1.387 . S
C673 C675 1.387 1_545 S
H674 C681 0.950 . S
C675 C673 1.387 1_565 S
C675 C677 1.390 . S
C675 H679 0.950 . S
H676 C672 0.950 . S
C677 C675 1.390 . S
C677 C678 1.387 . S
C677 H680 0.950 . S
C678 C677 1.387 . S
C678 C681 1.387 . S
H679 C675 0.950 . S
H680 C677 0.950 . S
C681 C672 1.390 1_565 S
C681 H674 0.950 . S
C681 C678 1.387 . S
C682 C683 1.387 . S
C682 H686 0.950 . S
C682 C691 1.390 . S
C683 C682 1.387 . S
C683 C685 1.387 . S
H684 C691 0.950 1_455 S
C685 C683 1.387 . S
C685 C687 1.390 . S
C685 H689 0.950 . S
H686 C682 0.950 . S
C687 C685 1.390 . S
C687 C688 1.387 1_655 S
C687 H690 0.950 1_655 S
C688 C687 1.387 1_455 S
C688 C691 1.387 1_455 S
H689 C685 0.950 . S
H690 C687 0.950 1_455 S
C691 C682 1.390 . S
C691 H684 0.950 1_655 S
C691 C688 1.387 1_655 S
C692 C693 1.387 . S
C692 H696 0.950 . S
C692 C701 1.377 1_545 S
C693 C692 1.387 . S
C693 C695 1.387 . S
H694 C701 0.959 . S
C695 C693 1.387 . S
C695 C697 1.390 . S
C695 H699 0.950 . S
H696 C692 0.950 . S
C697 C695 1.390 . S
C697 C698 1.387 1_545 S
C697 H700 0.950 . S
C698 C697 1.387 1_565 S
C698 C701 1.392 . S
H699 C695 0.950 . S
H700 C697 0.950 . S
C701 C692 1.377 1_565 S
C701 H694 0.959 . S
C701 C698 1.392 . S
C702 C703 1.387 1_455 S
C702 H706 0.950 . S
C702 C711 1.390 . S
C703 C702 1.387 1_655 S
C703 C705 1.387 . S
H704 C711 0.950 . S
C705 C703 1.387 . S
C705 C707 1.390 1_655 S
C705 H709 0.950 . S
H706 C702 0.950 . S
C707 C705 1.390 1_455 S
C707 C708 1.387 . S
C707 H710 0.950 . S
C708 C707 1.387 . S
C708 C711 1.387 . S
H709 C705 0.950 . S
H710 C707 0.950 . S
C711 C702 1.390 . S
C711 H704 0.950 . S
C711 C708 1.387 . S
C712 C713 1.387 . S
C712 H716 0.950 . S
C712 C721 1.390 . S
C713 C712 1.387 . S
C713 C715 1.387 . S
H714 C721 0.950 . S
C715 C713 1.387 . S
C715 C717 1.390 . S
C715 H719 0.950 . S
H716 C712 0.950 . S
C717 C715 1.390 . S
C717 C718 1.387 . S
C717 H720 0.950 . S
C718 C717 1.387 . S
C718 C721 1.387 . S
H719 C715 0.950 . S
H720 C717 0.950 . S
C721 C712 1.390 . S
C721 H714 0.950 . S
C721 C718 1.387 . S
C722 C723 1.387 . S
C722 H726 0.950 . S
C722 C731 1.390 . S
C723 C722 1.387 . S
C723 C725 1.387 . S
H724 C731 0.950 . S
C725 C723 1.387 . S
C725 C727 1.390 . S
C725 H729 0.950 . S
H726 C722 0.950 . S
C727 C725 1.390 . S
C727 C728 1.387 . S
C727 H730 0.950 . S
C728 C727 1.387 . S
C728 C731 1.387 . S
H729 C725 0.950 . S
H730 C727 0.950 . S
C731 C722 1.390 . S
C731 H724 0.950 . S
C731 C728 1.387 . S
C732 C733 1.387 . S
C732 H736 0.950 . S
C732 C741 1.390 . S
C733 C732 1.387 . S
C733 C735 1.387 . S
H734 C741 0.950 . S
C735 C733 1.387 . S
C735 C737 1.390 . S
C735 H739 0.950 . S
H736 C732 0.950 . S
C737 C735 1.390 . S
C737 C738 1.387 . S
C737 H740 0.950 . S
C738 C737 1.387 . S
C738 C741 1.387 . S
H739 C735 0.950 . S
H740 C737 0.950 . S
C741 C732 1.390 . S
C741 H734 0.950 . S
C741 C738 1.387 . S
C742 C743 1.387 . S
C742 H746 0.950 . S
C742 C751 1.390 . S
C743 C742 1.387 . S
C743 C745 1.387 . S
H744 C751 0.950 . S
C745 C743 1.387 . S
C745 C747 1.390 . S
C745 H749 0.950 . S
H746 C742 0.950 . S
C747 C745 1.390 . S
C747 C748 1.387 . S
C747 H750 0.950 . S
C748 C747 1.387 . S
C748 C751 1.387 . S
H749 C745 0.950 . S
H750 C747 0.950 . S
C751 C742 1.390 . S
C751 H744 0.950 . S
C751 C748 1.387 . S
C752 C753 1.387 . S
C752 H756 0.950 . S
C752 C761 1.390 1_445 S
C753 C752 1.387 . S
C753 C755 1.387 . S
H754 C761 0.950 . S
C755 C753 1.387 . S
C755 C757 1.390 1_445 S
C755 H759 0.950 . S
H756 C752 0.950 . S
C757 C755 1.390 1_665 S
C757 C758 1.387 . S
C757 H760 0.950 . S
C758 C757 1.387 . S
C758 C761 1.387 . S
H759 C755 0.950 . S
H760 C757 0.950 . S
C761 C752 1.390 1_665 S
C761 H754 0.950 . S
C761 C758 1.387 . S
C762 C763 1.387 . S
C762 H766 0.950 . S
C762 C771 1.390 1_645 S
C763 C762 1.387 . S
C763 C765 1.387 . S
H764 C771 0.950 . S
C765 C763 1.387 . S
C765 C767 1.390 1_645 S
C765 H769 0.950 . S
H766 C762 0.950 . S
C767 C765 1.390 1_465 S
C767 C768 1.387 . S
C767 H770 0.950 . S
C768 C767 1.387 . S
C768 C771 1.387 . S
H769 C765 0.950 . S
H770 C767 0.950 . S
C771 C762 1.390 1_465 S
C771 H764 0.950 . S
C771 C768 1.387 . S
C772 C773 1.387 . S
C772 H776 0.950 . S
C772 C781 1.390 1_455 S
C773 C772 1.387 . S
C773 C775 1.387 . S
H774 C781 0.950 . S
C775 C773 1.387 . S
C775 C777 1.390 1_455 S
C775 H779 0.950 . S
H776 C772 0.950 . S
C777 C775 1.390 1_655 S
C777 C778 1.387 . S
C777 H780 0.950 . S
C778 C777 1.387 . S
C778 C781 1.387 . S
H779 C775 0.950 . S
H780 C777 0.950 . S
C781 C772 1.390 1_655 S
C781 H774 0.950 . S
C781 C778 1.387 . S
C782 C783 1.387 . S
C782 H786 0.950 . S
C782 C791 1.390 1_565 S
C783 C782 1.387 . S
C783 C785 1.387 . S
H784 C791 0.950 . S
C785 C783 1.387 . S
C785 C787 1.390 1_565 S
C785 H789 0.950 . S
H786 C782 0.950 . S
C787 C785 1.390 1_545 S
C787 C788 1.387 . S
C787 H790 0.950 . S
C788 C787 1.387 . S
C788 C791 1.387 . S
H789 C785 0.950 . S
H790 C787 0.950 . S
C791 C782 1.390 1_545 S
C791 H784 0.950 . S
C791 C788 1.387 . S
C792 C793 1.387 . S
C792 H796 0.950 . S
C792 C801 1.390 . S
C793 C792 1.387 . S
C793 C795 1.387 . S
H794 C801 0.950 . S
C795 C793 1.387 . S
C795 C797 1.390 . S
C795 H799 0.950 . S
H796 C792 0.950 . S
C797 C795 1.390 . S
C797 C798 1.387 . S
C797 H800 0.950 . S
C798 C797 1.387 . S
C798 C801 1.387 . S
H799 C795 0.950 . S
H800 C797 0.950 . S
C801 C792 1.390 . S
C801 H794 0.950 . S
C801 C798 1.387 . S
C802 C803 1.387 . S
C802 H806 0.950 . S
C802 C811 1.390 . S
C803 C802 1.387 . S
C803 C805 1.387 . S
H804 C811 0.950 . S
C805 C803 1.387 . S
C805 C807 1.390 . S
C805 H809 0.950 . S
H806 C802 0.950 . S
C807 C805 1.390 . S
C807 C808 1.387 . S
C807 H810 0.950 . S
C808 C807 1.387 . S
C808 C811 1.387 . S
H809 C805 0.950 . S
H810 C807 0.950 . S
C811 C802 1.390 . S
C811 H804 0.950 . S
C811 C808 1.387 . S
C812 C813 1.387 . S
C812 H816 0.950 . S
C812 C821 1.390 1_565 S
C813 C812 1.387 . S
C813 C815 1.387 . S
H814 C821 0.950 . S
C815 C813 1.387 . S
C815 C817 1.390 1_565 S
C815 H819 0.950 . S
H816 C812 0.950 . S
C817 C815 1.390 1_545 S
C817 C818 1.387 . S
C817 H820 0.950 . S
C818 C817 1.387 . S
C818 C821 1.387 . S
H819 C815 0.950 . S
H820 C817 0.950 . S
C821 C812 1.390 1_545 S
C821 H814 0.950 . S
C821 C818 1.387 . S
C822 C823 1.387 . S
C822 H826 0.950 . S
C822 C831 1.390 1_655 S
C823 C822 1.387 . S
C823 C825 1.387 . S
H824 C831 0.950 . S
C825 C823 1.387 . S
C825 C827 1.390 1_655 S
C825 H829 0.950 . S
H826 C822 0.950 . S
C827 C825 1.390 1_455 S
C827 C828 1.387 . S
C827 H830 0.950 . S
C828 C827 1.387 . S
C828 C831 1.387 . S
H829 C825 0.950 . S
H830 C827 0.950 . S
C831 C822 1.390 1_455 S
C831 H824 0.950 . S
C831 C828 1.387 . S
C353 C247 1.530 . S
C358 C9 1.470 . S
C363 C28 1.472 . S
C368 C182 1.531 . S
C373 C49 1.473 . S
C378 C207 1.530 . S
C383 C227 1.529 . S
C388 C73 1.471 . S
C393 C93 1.473 1_554 S
C398 C119 1.529 . S
C403 C116 1.471 1_556 S
C408 C138 1.530 . S
C413 C159 1.530 . S
C418 C141 1.473 1_554 S
C423 C95 1.530 . S
C428 C161 1.470 1_556 S
C433 C185 1.470 . S
C438 C71 1.530 . S
C443 C204 1.472 . S
C448 C6 1.531 . S
C453 C31 1.530 . S
C458 C225 1.473 . S
C463 C249 1.470 . S
C468 C51 1.530 . S
C473 C269 1.470 . S
C478 C295 1.531 . S
C483 C314 1.530 . S
C488 C292 1.473 . S
C493 C335 1.530 . S
C498 C317 1.473 . S
C503 C337 1.473 . S
C508 C271 1.530 . S
C513 C4 1.469 . S
C518 C312 1.469 . S
C523 C30 1.469 . S
C528 C334 1.469 . S
C533 C52 1.469 . S
C538 C272 1.469 . S
C543 C70 1.469 . S
C548 C294 1.469 . S
C553 C96 1.472 . S
C558 C228 1.472 . S
C563 C118 1.469 . S
C568 C246 1.469 . S
C573 C136 1.472 . S
C578 C180 1.472 . S
C583 C158 1.469 . S
C588 C206 1.469 . S
C593 C5 1.279 . S
C598 C251 1.275 . S
C603 C29 1.279 . S
C608 C183 1.277 . S
C613 C203 1.274 . S
C618 C53 1.278 . S
C623 C72 1.278 . S
C628 C226 1.278 . S
C633 C97 1.278 . S
C638 C115 1.274 1_556 S
C643 C117 1.278 . S
C648 C139 1.277 1_554 S
C653 C163 1.278 1_556 S
C658 C137 1.277 . S
C663 C94 1.277 1_554 S
C668 C160 1.279 . S
C673 C75 1.278 . S
C678 C181 1.278 . S
C683 C205 1.279 . S
C688 C7 1.277 . S
C693 C229 1.276 . S
C698 C27 1.276 . S
C703 C50 1.276 . S
C708 C248 1.276 . S
C713 C273 1.277 . S
C718 C291 1.274 . S
C723 C293 1.276 . S
C728 C315 1.275 . S
C733 C339 1.274 . S
C738 C313 1.278 . S
C743 C270 1.277 . S
C748 C336 1.279 . S
C753 C8 1.766 . S
C758 C48 1.766 . S
C763 C74 1.766 . S
C768 C26 1.766 . S
C773 C92 1.766 . S
C778 C140 1.766 . S
C783 C114 1.766 . S
C788 C162 1.766 . S
C793 C184 1.767 . S
C798 C224 1.767 . S
C803 C250 1.766 . S
C808 C202 1.766 . S
C813 C268 1.766 . S
C818 C316 1.766 . S
C823 C290 1.767 . S
C828 C338 1.767 . S
