# Generated by pormake.
# Topology dia, (4)-cn, num edge types: 1
# Building blocks:
#     Node 0, Type 0, BuildingBlock: NAHDIM_clean_sbu_0, # of connection points: 4
#     Node 1, Type 0, BuildingBlock: NAHDIM_clean_sbu_0, # of connection points: 4
#     Node 2, Type 0, BuildingBlock: NAHDIM_clean_sbu_0, # of connection points: 4
#     Node 3, Type 0, BuildingBlock: NAHDIM_clean_sbu_0, # of connection points: 4
#     Node 4, Type 0, BuildingBlock: NAHDIM_clean_sbu_0, # of connection points: 4
#     Node 5, Type 0, BuildingBlock: NAHDIM_clean_sbu_0, # of connection points: 4
#     Node 6, Type 0, BuildingBlock: NAHDIM_clean_sbu_0, # of connection points: 4
#     Node 7, Type 0, BuildingBlock: NAHDIM_clean_sbu_0, # of connection points: 4
#     Edge 8, Type (0, 0), BuildingBlock: ZUJKAS_clean_linker_0, # of connection points: 2
#     Edge 9, Type (0, 0), BuildingBlock: ZUJKAS_clean_linker_0, # of connection points: 2
#     Edge 10, Type (0, 0), BuildingBlock: ZUJKAS_clean_linker_0, # of connection points: 2
#     Edge 11, Type (0, 0), BuildingBlock: ZUJKAS_clean_linker_0, # of connection points: 2
#     Edge 12, Type (0, 0), BuildingBlock: ZUJKAS_clean_linker_0, # of connection points: 2
#     Edge 13, Type (0, 0), BuildingBlock: ZUJKAS_clean_linker_0, # of connection points: 2
#     Edge 14, Type (0, 0), BuildingBlock: ZUJKAS_clean_linker_0, # of connection points: 2
#     Edge 15, Type (0, 0), BuildingBlock: ZUJKAS_clean_linker_0, # of connection points: 2
#     Edge 16, Type (0, 0), BuildingBlock: ZUJKAS_clean_linker_0, # of connection points: 2
#     Edge 17, Type (0, 0), BuildingBlock: ZUJKAS_clean_linker_0, # of connection points: 2
#     Edge 18, Type (0, 0), BuildingBlock: ZUJKAS_clean_linker_0, # of connection points: 2
#     Edge 19, Type (0, 0), BuildingBlock: ZUJKAS_clean_linker_0, # of connection points: 2
#     Edge 20, Type (0, 0), BuildingBlock: ZUJKAS_clean_linker_0, # of connection points: 2
#     Edge 21, Type (0, 0), BuildingBlock: ZUJKAS_clean_linker_0, # of connection points: 2
#     Edge 22, Type (0, 0), BuildingBlock: ZUJKAS_clean_linker_0, # of connection points: 2
#     Edge 23, Type (0, 0), BuildingBlock: ZUJKAS_clean_linker_0, # of connection points: 2
# Relax obj value: 0.005
# Max RMSD: 0.035
# Mean RMSD: 0.035
data_MOF--net-dia--node1-NAHDIM_clean_sbu_0--edge1-ZUJKAS_clean_linker_0
_symmetry_space_group_name_H-M    P1
_symmetry_Int_Tables_number       1
_symmetry_cell_setting            triclinic
loop_
_symmetry_equiv_pos_as_xyz
'x, y, z'
_cell_length_a     48.582368
_cell_length_b     44.070033
_cell_length_c     44.069037
_cell_angle_alpha  88.826886
_cell_angle_beta   93.267331
_cell_angle_gamma 93.226861
loop_
_atom_site_label
_atom_site_type_symbol
_atom_site_fract_x
_atom_site_fract_y
_atom_site_fract_z
_atom_type_partial_charge
C0 C 0.07894 0.14951 0.66579 0.0
O1 O 0.07023 0.12144 0.65956 0.0
O2 O 0.14915 0.10814 0.65881 0.0
Zn3 Zn 0.12496 0.13405 0.6315 0.0
O4 O 0.10002 0.10725 0.60398 0.0
C5 C 0.16819 0.15035 0.5916 0.0
O6 O 0.17136 0.12095 0.59349 0.0
O7 O 0.10198 0.15974 0.65639 0.0
C8 C 0.09043 0.11703 0.57842 0.0
O9 O 0.09698 0.14512 0.56985 0.0
C10 C 0.14125 0.08138 0.667 0.0
O11 O 0.11637 0.07065 0.65818 0.0
O12 O 0.14936 0.16146 0.6061 0.0
C13 C 0.91539 0.34802 0.82719 0.0
O14 O 0.92421 0.37652 0.83086 0.0
O15 O 0.84867 0.34201 0.89214 0.0
Zn16 Zn 0.87281 0.36683 0.86398 0.0
O17 O 0.90104 0.3932 0.88852 0.0
C18 C 0.827 0.40303 0.84625 0.0
O19 O 0.82146 0.39779 0.87479 0.0
O20 O 0.89322 0.33847 0.83907 0.0
C21 C 0.89738 0.42008 0.89675 0.0
O22 O 0.87399 0.43243 0.88891 0.0
C23 C 0.8553 0.33798 0.92019 0.0
O24 O 0.87903 0.34981 0.93147 0.0
O25 O 0.84839 0.39227 0.83619 0.0
C26 C 0.59114 0.15103 0.18029 0.0
O27 O 0.59827 0.12455 0.19144 0.0
O28 O 0.64776 0.10951 0.16048 0.0
Zn29 Zn 0.62342 0.13353 0.13158 0.0
O30 O 0.59862 0.10465 0.10626 0.0
C31 C 0.6696 0.17275 0.11501 0.0
O32 O 0.67613 0.17029 0.14426 0.0
O33 O 0.59978 0.16007 0.15477 0.0
C34 C 0.58689 0.11387 0.08152 0.0
O35 O 0.5913 0.14234 0.07282 0.0
C36 C 0.66255 0.08973 0.14998 0.0
O37 O 0.66138 0.08535 0.12052 0.0
O38 O 0.64751 0.15921 0.10423 0.0
C39 C 0.92416 0.83401 0.35502 0.0
O40 O 0.92983 0.83816 0.3842 0.0
O41 O 0.8547 0.84154 0.39233 0.0
Zn42 Zn 0.87867 0.86982 0.3671 0.0
O43 O 0.90294 0.8975 0.3944 0.0
C44 C 0.84112 0.91604 0.34917 0.0
O45 O 0.84371 0.92184 0.37834 0.0
O46 O 0.90283 0.8454 0.3424 0.0
C47 C 0.91513 0.92135 0.38381 0.0
O48 O 0.91165 0.92793 0.35468 0.0
C49 C 0.84749 0.84927 0.41823 0.0
O50 O 0.85612 0.87602 0.42878 0.0
O51 O 0.85429 0.89468 0.33896 0.0
C52 C 0.10436 0.66675 0.18086 0.0
O53 O 0.12783 0.65756 0.19304 0.0
O54 O 0.14572 0.61029 0.15353 0.0
Zn55 Zn 0.12051 0.63608 0.12726 0.0
O56 O 0.09466 0.61015 0.09975 0.0
C57 C 0.16441 0.65495 0.08908 0.0
O58 O 0.17011 0.6263 0.09303 0.0
O59 O 0.09737 0.66034 0.1534 0.0
C60 C 0.10111 0.58576 0.08769 0.0
O61 O 0.12606 0.57617 0.09313 0.0
C62 C 0.13766 0.58552 0.16632 0.0
O63 O 0.11163 0.57583 0.16259 0.0
O64 O 0.14379 0.66466 0.10168 0.0
C65 C 0.40969 0.32423 0.34655 0.0
O66 O 0.40833 0.31868 0.37586 0.0
O67 O 0.34978 0.3406 0.38655 0.0
Zn68 Zn 0.3729 0.36932 0.36084 0.0
O69 O 0.399 0.39541 0.38789 0.0
C70 C 0.33473 0.41601 0.34624 0.0
O71 O 0.33931 0.42192 0.37525 0.0
O72 O 0.39571 0.34522 0.33432 0.0
C73 C 0.40873 0.42151 0.37979 0.0
O74 O 0.4014 0.43251 0.35278 0.0
C75 C 0.34465 0.34718 0.41353 0.0
O76 O 0.35491 0.37301 0.4249 0.0
O77 O 0.34722 0.39476 0.33484 0.0
C78 C 0.4094 0.81961 0.84746 0.0
O79 O 0.40405 0.81037 0.87515 0.0
O80 O 0.35412 0.84158 0.8901 0.0
Zn81 Zn 0.37764 0.86926 0.86378 0.0
O82 O 0.40392 0.89533 0.89061 0.0
C83 C 0.33 0.88551 0.82609 0.0
O84 O 0.32262 0.85668 0.8304 0.0
O85 O 0.39991 0.84436 0.83726 0.0
C86 C 0.39782 0.92141 0.89909 0.0
O87 O 0.37377 0.93168 0.89014 0.0
C88 C 0.33541 0.85222 0.90515 0.0
O89 O 0.33161 0.8815 0.90339 0.0
O90 O 0.35307 0.89594 0.83772 0.0
C91 C 0.58675 0.64689 0.67512 0.0
O92 O 0.58978 0.61812 0.6822 0.0
O93 O 0.64487 0.60602 0.65413 0.0
Zn94 Zn 0.6213 0.63298 0.62681 0.0
O95 O 0.59519 0.60836 0.59834 0.0
C96 C 0.66943 0.65217 0.59445 0.0
O97 O 0.67725 0.6252 0.60337 0.0
O98 O 0.59864 0.65848 0.65232 0.0
C99 C 0.60347 0.58973 0.57966 0.0
O100 O 0.63002 0.58578 0.57895 0.0
C101 C 0.63984 0.57761 0.65795 0.0
O102 O 0.61774 0.56443 0.64425 0.0
O103 O 0.64618 0.66062 0.60191 0.0
H104 H 0.31788 0.2935 0.39595 0.0
H105 H 0.28792 0.25967 0.42599 0.0
H106 H 0.30115 0.3197 0.50209 0.0
H107 H 0.33126 0.35362 0.47237 0.0
H108 H 0.30665 0.25688 0.51678 0.0
H109 H 0.20906 0.27758 0.44941 0.0
H110 H 0.23705 0.26669 0.42775 0.0
H111 H 0.2398 0.30233 0.44704 0.0
C112 C 0.31443 0.29954 0.41907 0.0
C113 C 0.32687 0.32634 0.43172 0.0
C114 C 0.29719 0.28025 0.43613 0.0
C115 C 0.29206 0.28743 0.46609 0.0
C116 C 0.30477 0.31387 0.47894 0.0
H117 H 0.16545 0.21147 0.5806 0.0
H118 H 0.19596 0.24439 0.55031 0.0
C119 C 0.32194 0.33323 0.4619 0.0
C120 C 0.27365 0.26723 0.48419 0.0
H121 H 0.20694 0.23915 0.48772 0.0
C122 C 0.28485 0.25298 0.51047 0.0
C123 C 0.24518 0.2625 0.47601 0.0
C124 C 0.2319 0.27824 0.44867 0.0
C125 C 0.26835 0.23378 0.52866 0.0
C126 C 0.24 0.22853 0.52012 0.0
C127 C 0.22874 0.24307 0.49404 0.0
C128 C 0.22158 0.2084 0.53827 0.0
C129 C 0.28124 0.21966 0.55714 0.0
C130 C 0.22572 0.17721 0.54119 0.0
C131 C 0.20832 0.15831 0.55844 0.0
C132 C 0.18642 0.17029 0.57303 0.0
C133 C 0.18218 0.20153 0.56977 0.0
C134 C 0.19955 0.22037 0.55244 0.0
H135 H 0.30144 0.23128 0.56409 0.0
H136 H 0.26733 0.22043 0.57623 0.0
H137 H 0.28474 0.19548 0.55296 0.0
H138 H 0.24235 0.16746 0.53001 0.0
H139 H 0.21209 0.13434 0.56038 0.0
H140 H 0.68204 0.59833 0.69722 0.0
H141 H 0.7141 0.56817 0.72821 0.0
H142 H 0.674 0.48578 0.692 0.0
H143 H 0.64127 0.51575 0.66172 0.0
H144 H 0.68354 0.48041 0.75152 0.0
H145 H 0.77939 0.52627 0.70109 0.0
H146 H 0.76025 0.55556 0.71619 0.0
H147 H 0.74553 0.53366 0.68462 0.0
C148 C 0.68008 0.57378 0.6958 0.0
C149 C 0.65917 0.55943 0.67692 0.0
C150 C 0.69858 0.55658 0.71336 0.0
C151 C 0.69688 0.52472 0.71194 0.0
C152 C 0.67583 0.51034 0.69333 0.0
H153 H 0.8261 0.40918 0.78423 0.0
H154 H 0.7941 0.43772 0.75126 0.0
C155 C 0.65712 0.52751 0.67604 0.0
C156 C 0.71648 0.5063 0.73052 0.0
H157 H 0.78507 0.49685 0.74689 0.0
C158 C 0.70574 0.48388 0.75036 0.0
C159 C 0.74546 0.51044 0.72864 0.0
C160 C 0.75834 0.53256 0.70625 0.0
C161 C 0.72313 0.46593 0.76878 0.0
C162 C 0.75211 0.47115 0.76805 0.0
C163 C 0.76286 0.49312 0.74775 0.0
C164 C 0.77162 0.45405 0.78812 0.0
C165 C 0.71019 0.44117 0.7884 0.0
C166 C 0.76996 0.45417 0.81981 0.0
C167 C 0.78797 0.43761 0.83864 0.0
C168 C 0.80839 0.42106 0.8262 0.0
C169 C 0.81056 0.42166 0.79451 0.0
C170 C 0.7923 0.43796 0.77565 0.0
H171 H 0.68906 0.43394 0.77939 0.0
H172 H 0.72286 0.42094 0.79005 0.0
H173 H 0.70848 0.44988 0.81162 0.0
H174 H 0.75474 0.46715 0.83004 0.0
H175 H 0.78597 0.43794 0.86299 0.0
H176 H 0.57138 0.05452 0.09437 0.0
H177 H 0.5404 0.02016 0.06361 0.0
H178 H 0.52921 0.09134 0.99619 0.0
H179 H 0.56026 0.12582 0.02662 0.0
H180 H 0.48462 0.02825 0.04428 0.0
H181 H 0.55095 0.01859 0.94679 0.0
H182 H 0.56412 0.03287 0.98322 0.0
H183 H 0.54538 0.05694 0.957 0.0
C184 C 0.56244 0.06285 0.07293 0.0
C185 C 0.56836 0.0929 0.06289 0.0
C186 C 0.54473 0.04318 0.05542 0.0
C187 C 0.53283 0.05311 0.02748 0.0
C188 C 0.53859 0.08309 0.01745 0.0
H189 H 0.39067 0.9773 0.9223 0.0
H190 H 0.42356 0.00824 0.95429 0.0
C191 C 0.55622 0.1028 0.03496 0.0
C192 C 0.51375 0.03239 0.0092 0.0
H193 H 0.50463 0.99831 0.94021 0.0
C194 C 0.48902 0.02157 0.02158 0.0
C195 C 0.51975 0.02346 0.97976 0.0
C196 C 0.5466 0.0333 0.96593 0.0
C197 C 0.46976 0.00258 0.00498 0.0
C198 C 0.47531 0.99454 0.97512 0.0
C199 C 0.50035 0.00476 0.96302 0.0
C200 C 0.45532 0.97565 0.95597 0.0
C201 C 0.44376 0.99106 0.0196 0.0
C202 C 0.46252 0.94734 0.94584 0.0
C203 C 0.4438 0.92962 0.92746 0.0
C204 C 0.41763 0.94004 0.9187 0.0
C205 C 0.4106 0.96854 0.92873 0.0
C206 C 0.42931 0.9862 0.94715 0.0
H207 H 0.44583 0.99286 0.04475 0.0
H208 H 0.42642 0.00487 0.01114 0.0
H209 H 0.43836 0.96699 0.01373 0.0
H210 H 0.48257 0.9389 0.95229 0.0
H211 H 0.4499 0.90782 0.92007 0.0
H212 H 0.9721 0.80844 0.37478 0.0
H213 H 0.00289 0.78053 0.34491 0.0
H214 H 0.94865 0.79192 0.26507 0.0
H215 H 0.91791 0.82025 0.29462 0.0
H216 H 0.99167 0.72721 0.31262 0.0
H217 H 0.02375 0.82265 0.23594 0.0
H218 H 0.00649 0.82836 0.27041 0.0
H219 H 0.98703 0.81556 0.23671 0.0
C220 C 0.96673 0.8051 0.35084 0.0
C221 C 0.94261 0.81672 0.33705 0.0
C222 C 0.98435 0.78913 0.33383 0.0
C223 C 0.97828 0.78458 0.30269 0.0
C224 C 0.95403 0.79575 0.28893 0.0
H225 H 0.05535 0.69061 0.16197 0.0
H226 H 0.02487 0.71867 0.19209 0.0
C227 C 0.9364 0.81178 0.30591 0.0
C228 C 0.99706 0.7676 0.28479 0.0
H229 H 0.03747 0.77369 0.2238 0.0
C230 C 0.00181 0.73739 0.29329 0.0
C231 C 0.01023 0.78098 0.25959 0.0
C232 C 0.00687 0.81375 0.25022 0.0
C233 C 0.019 0.71999 0.27691 0.0
C234 C 0.03208 0.73333 0.25165 0.0
C235 C 0.02736 0.76354 0.24316 0.0
C236 C 0.05067 0.71628 0.23363 0.0
C237 C 0.02257 0.68727 0.28634 0.0
C238 C 0.07544 0.70598 0.24695 0.0
C239 C 0.09295 0.68996 0.2298 0.0
C240 C 0.08602 0.68404 0.19898 0.0
C241 C 0.06129 0.69469 0.18566 0.0
C242 C 0.04384 0.71075 0.20281 0.0
H243 H 0.00622 0.67849 0.30137 0.0
H244 H 0.02224 0.67256 0.26614 0.0
H245 H 0.04284 0.68549 0.299 0.0
H246 H 0.08131 0.7105 0.27057 0.0
H247 H 0.11188 0.6822 0.24073 0.0
H248 H 0.27772 0.87149 0.80232 0.0
H249 H 0.24615 0.90558 0.7755 0.0
H250 H 0.30767 0.97969 0.78501 0.0
H251 H 0.33947 0.94579 0.81174 0.0
H252 H 0.22689 0.9608 0.79812 0.0
H253 H 0.28411 0.98008 0.69311 0.0
H254 H 0.2904 0.94881 0.71924 0.0
H255 H 0.30412 0.98646 0.7282 0.0
C256 C 0.28464 0.89499 0.79854 0.0
C257 C 0.31117 0.90589 0.80906 0.0
C258 C 0.26654 0.91443 0.78328 0.0
C259 C 0.2747 0.94503 0.77801 0.0
C260 C 0.30115 0.95601 0.78844 0.0
H261 H 0.19421 0.09635 0.68831 0.0
H262 H 0.22612 0.06376 0.71666 0.0
C263 C 0.31925 0.93663 0.8038 0.0
C264 C 0.25525 0.96563 0.76232 0.0
H265 H 0.24542 0.00947 0.69828 0.0
C266 C 0.23086 0.9714 0.77624 0.0
C267 C 0.26061 0.97948 0.73388 0.0
C268 C 0.28611 0.97329 0.71752 0.0
C269 C 0.21177 0.991 0.76264 0.0
C270 C 0.21701 0.00466 0.73406 0.0
C271 C 0.24148 0.99898 0.72021 0.0
C272 C 0.19722 0.02463 0.71789 0.0
C273 C 0.18647 0.99738 0.77926 0.0
C274 C 0.17042 0.01339 0.70907 0.0
C275 C 0.15209 0.03196 0.69294 0.0
C276 C 0.1603 0.06209 0.68512 0.0
C277 C 0.18718 0.07329 0.69403 0.0
C278 C 0.20547 0.0547 0.71019 0.0
H279 H 0.1893 0.99213 0.80398 0.0
H280 H 0.18132 0.02152 0.77625 0.0
H281 H 0.16866 0.9829 0.76999 0.0
H282 H 0.16381 0.99006 0.71421 0.0
H283 H 0.13162 0.02255 0.68628 0.0
H284 H 0.89542 0.47688 0.92016 0.0
H285 H 0.93102 0.50445 0.95193 0.0
H286 H 0.98375 0.42929 0.94807 0.0
H287 H 0.94839 0.40159 0.91612 0.0
H288 H 0.95458 0.48491 0.00924 0.0
H289 H 0.0336 0.50373 0.92342 0.0
H290 H 0.99785 0.49331 0.91313 0.0
H291 H 0.02047 0.46506 0.928 0.0
C292 C 0.91464 0.46625 0.9259 0.0
C293 C 0.91909 0.43706 0.91552 0.0
C294 C 0.93494 0.48204 0.94408 0.0
C295 C 0.96011 0.46905 0.95201 0.0
C296 C 0.96464 0.43992 0.94175 0.0
H297 H 0.10658 0.53074 0.06153 0.0
H298 H 0.07219 0.50179 0.02934 0.0
C299 C 0.94434 0.42407 0.92362 0.0
C300 C 0.98126 0.48562 0.97186 0.0
H301 H 0.04691 0.51782 0.97392 0.0
C302 C 0.97475 0.49221 0.00153 0.0
C303 C 0.00758 0.49489 0.96173 0.0
C304 C 0.01533 0.48916 0.92976 0.0
C305 C 0.99398 0.5076 0.02153 0.0
C306 C 0.02021 0.51722 0.01131 0.0
C307 C 0.02679 0.51043 0.98168 0.0
C308 C 0.04096 0.53476 0.03088 0.0
C309 C 0.98621 0.51288 0.0536 0.0
C310 C 0.03493 0.56308 0.04204 0.0
C311 C 0.05445 0.5796 0.06052 0.0
C312 C 0.08053 0.56826 0.06794 0.0
C313 C 0.08668 0.54009 0.05631 0.0
C314 C 0.06707 0.52352 0.0379 0.0
H315 H 0.96903 0.49687 0.0603 0.0
H316 H 0.00412 0.51035 0.07009 0.0
H317 H 0.97926 0.53632 0.05516 0.0
H318 H 0.01516 0.57252 0.03631 0.0
H319 H 0.04912 0.60133 0.06887 0.0
H320 H 0.43897 0.27537 0.36499 0.0
H321 H 0.46944 0.24698 0.33516 0.0
H322 H 0.45176 0.30475 0.25717 0.0
H323 H 0.42122 0.33339 0.28681 0.0
H324 H 0.45495 0.21615 0.27798 0.0
H325 H 0.53796 0.30759 0.26858 0.0
H326 H 0.51253 0.3078 0.29692 0.0
H327 H 0.50335 0.31794 0.25816 0.0
C328 C 0.44156 0.2821 0.3415 0.0
C329 C 0.42773 0.30672 0.3283 0.0
C330 C 0.45895 0.26582 0.32451 0.0
C331 C 0.46306 0.27402 0.29413 0.0
C332 C 0.44914 0.29837 0.28074 0.0
H333 H 0.56771 0.20363 0.1609 0.0
H334 H 0.53591 0.23321 0.18782 0.0
C335 C 0.4316 0.31459 0.29767 0.0
C336 C 0.48165 0.25673 0.27639 0.0
H337 H 0.54312 0.26232 0.24227 0.0
C338 C 0.47424 0.22618 0.27015 0.0
C339 C 0.50668 0.27002 0.26613 0.0
C340 C 0.51584 0.30258 0.27289 0.0
C341 C 0.49115 0.20854 0.25368 0.0
C342 C 0.51648 0.22164 0.24388 0.0
C343 C 0.52373 0.25232 0.24986 0.0
C344 C 0.53591 0.20378 0.22773 0.0
C345 C 0.48146 0.17622 0.24646 0.0
C346 C 0.54685 0.17773 0.24146 0.0
C347 C 0.56488 0.1607 0.22609 0.0
C348 C 0.57261 0.1696 0.19682 0.0
C349 C 0.56213 0.19611 0.18339 0.0
C350 C 0.54396 0.21305 0.19873 0.0
H351 H 0.45871 0.17265 0.24754 0.0
H352 H 0.48731 0.16995 0.22351 0.0
H353 H 0.49122 0.1606 0.26341 0.0
H354 H 0.5415 0.1706 0.26414 0.0
H355 H 0.57277 0.14057 0.23721 0.0
H356 H 0.82864 0.85889 0.47432 0.0
H357 H 0.79843 0.82489 0.50379 0.0
H358 H 0.79506 0.75895 0.43254 0.0
H359 H 0.82508 0.79292 0.40269 0.0
H360 H 0.74323 0.76974 0.45424 0.0
H361 H 0.82015 0.74634 0.54865 0.0
H362 H 0.81592 0.78602 0.54081 0.0
H363 H 0.82976 0.76303 0.51275 0.0
C364 C 0.82157 0.83712 0.46492 0.0
C365 C 0.82938 0.82856 0.43619 0.0
C366 C 0.80441 0.81766 0.48187 0.0
C367 C 0.79485 0.78925 0.47052 0.0
C368 C 0.80235 0.78074 0.44175 0.0
H369 H 0.71903 0.63972 0.57267 0.0
H370 H 0.74875 0.67278 0.54174 0.0
C371 C 0.81954 0.80017 0.42477 0.0
C372 C 0.77663 0.76861 0.48845 0.0
H373 H 0.77375 0.72895 0.55565 0.0
C374 C 0.74989 0.76072 0.47638 0.0
C375 C 0.78553 0.75663 0.51714 0.0
C376 C 0.81449 0.76316 0.53055 0.0
C377 C 0.73161 0.74151 0.49248 0.0
C378 C 0.74022 0.7303 0.5216 0.0
C379 C 0.76712 0.73782 0.53344 0.0
C380 C 0.72183 0.71032 0.54 0.0
C381 C 0.70343 0.73299 0.47796 0.0
C382 C 0.69694 0.72058 0.54954 0.0
C383 C 0.67984 0.7017 0.56717 0.0
C384 C 0.68744 0.67228 0.57579 0.0
C385 C 0.71252 0.66221 0.56642 0.0
C386 C 0.72956 0.68108 0.54874 0.0
H387 H 0.70271 0.73684 0.45294 0.0
H388 H 0.69732 0.70878 0.48274 0.0
H389 H 0.68799 0.74723 0.48746 0.0
H390 H 0.69086 0.74331 0.54358 0.0
H391 H 0.66074 0.71022 0.57416 0.0
H392 H 0.19062 0.60292 0.18526 0.0
H393 H 0.22365 0.57329 0.21537 0.0
H394 H 0.16326 0.49788 0.21873 0.0
H395 H 0.12977 0.52771 0.18928 0.0
H396 H 0.18926 0.50758 0.27345 0.0
H397 H 0.26681 0.50514 0.1863 0.0
H398 H 0.25881 0.54307 0.1952 0.0
H399 H 0.23247 0.51769 0.17778 0.0
C400 C 0.18436 0.57999 0.19232 0.0
C401 C 0.1576 0.5676 0.18473 0.0
C402 C 0.20335 0.56301 0.20937 0.0
C403 C 0.19614 0.53313 0.21876 0.0
C404 C 0.16933 0.52083 0.21155 0.0
H405 H 0.31432 0.40392 0.28835 0.0
H406 H 0.28001 0.43157 0.25784 0.0
C407 C 0.15022 0.5379 0.19472 0.0
C408 C 0.21636 0.51498 0.23669 0.0
H409 H 0.28124 0.48897 0.2364 0.0
C410 C 0.20931 0.50335 0.26529 0.0
C411 C 0.24236 0.50905 0.22581 0.0
C412 C 0.25048 0.51911 0.19446 0.0
C413 C 0.22775 0.48649 0.28357 0.0
C414 C 0.25424 0.48182 0.2733 0.0
C415 C 0.26107 0.4929 0.24443 0.0
C416 C 0.2751 0.46519 0.29196 0.0
C417 C 0.21842 0.47342 0.31344 0.0
C418 C 0.28409 0.47517 0.3211 0.0
C419 C 0.30352 0.45925 0.33871 0.0
C420 C 0.31467 0.43331 0.32731 0.0
C421 C 0.30613 0.42379 0.29782 0.0
C422 C 0.28651 0.43957 0.28034 0.0
H423 H 0.19554 0.47119 0.31367 0.0
H424 H 0.22668 0.45072 0.31826 0.0
H425 H 0.22605 0.48884 0.33204 0.0
H426 H 0.27616 0.49536 0.33022 0.0
H427 H 0.30987 0.46736 0.36121 0.0
H428 H 0.80495 0.31014 0.90405 0.0
H429 H 0.77303 0.28263 0.93722 0.0
H430 H 0.83033 0.29906 0.01424 0.0
H431 H 0.86232 0.32681 0.98136 0.0
H432 H 0.7825 0.23066 0.97467 0.0
H433 H 0.75725 0.32961 0.04194 0.0
H434 H 0.7735 0.33377 0.00613 0.0
H435 H 0.79352 0.32428 0.0402 0.0
C436 C 0.81078 0.30796 0.92805 0.0
C437 C 0.83615 0.32079 0.94008 0.0
C438 C 0.7925 0.29222 0.94695 0.0
C439 C 0.79916 0.28922 0.97821 0.0
C440 C 0.82459 0.30163 0.99025 0.0
H441 H 0.71908 0.20268 0.1305 0.0
H442 H 0.75026 0.23048 0.09676 0.0
C443 C 0.84291 0.31734 0.97138 0.0
C444 C 0.77969 0.27261 0.99816 0.0
H445 H 0.74058 0.281 0.05908 0.0
C446 C 0.77321 0.24165 0.99304 0.0
C447 C 0.76767 0.28708 0.0221 0.0
C448 C 0.77309 0.32058 0.02786 0.0
C449 C 0.75541 0.22455 0.01166 0.0
C450 C 0.74341 0.239 0.03564 0.0
C451 C 0.74984 0.27 0.04069 0.0
C452 C 0.72426 0.2223 0.05592 0.0
C453 C 0.75016 0.19102 0.00597 0.0
C454 C 0.69911 0.2089 0.04419 0.0
C455 C 0.68125 0.19294 0.06339 0.0
C456 C 0.68815 0.19029 0.09473 0.0
C457 C 0.71316 0.20422 0.10647 0.0
C458 C 0.73101 0.22013 0.08724 0.0
H459 H 0.76615 0.18202 0.99208 0.0
H460 H 0.74963 0.17786 0.02771 0.0
H461 H 0.72984 0.18719 0.99342 0.0
H462 H 0.69325 0.21086 0.02017 0.0
H463 H 0.66207 0.18265 0.05363 0.0
H464 H 0.80993 0.9628 0.36382 0.0
H465 H 0.77943 0.99199 0.32979 0.0
H466 H 0.80097 0.93968 0.25386 0.0
H467 H 0.83127 0.9101 0.28773 0.0
H468 H 0.79249 0.02744 0.27854 0.0
H469 H 0.71636 0.93267 0.24819 0.0
H470 H 0.74133 0.93032 0.27997 0.0
H471 H 0.75151 0.9251 0.24193 0.0
C472 C 0.80814 0.95741 0.3399 0.0
C473 C 0.82292 0.93399 0.32852 0.0
C474 C 0.79072 0.97414 0.32049 0.0
C475 C 0.78763 0.96767 0.28941 0.0
C476 C 0.80263 0.94461 0.27789 0.0
H477 H 0.69522 0.04439 0.13505 0.0
H478 H 0.72593 0.01545 0.1691 0.0
C479 C 0.82005 0.92785 0.29727 0.0
C480 C 0.76908 0.98545 0.26898 0.0
H481 H 0.71171 0.97904 0.22055 0.0
C482 C 0.77475 0.01691 0.26596 0.0
C483 C 0.74597 0.97161 0.2526 0.0
C484 C 0.73821 0.93812 0.25596 0.0
C485 C 0.75818 0.03487 0.24655 0.0
C486 C 0.73512 0.021 0.23013 0.0
C487 C 0.72944 0.98955 0.23315 0.0
C488 C 0.7166 0.03876 0.20968 0.0
C489 C 0.76579 0.0684 0.24328 0.0
C490 C 0.70095 0.06119 0.22132 0.0
C491 C 0.68334 0.07774 0.20196 0.0
C492 C 0.68102 0.07208 0.17059 0.0
C493 C 0.69658 0.04939 0.15907 0.0
C494 C 0.71412 0.03281 0.17847 0.0
H495 H 0.78745 0.07406 0.25159 0.0
H496 H 0.76309 0.07608 0.21919 0.0
H497 H 0.75202 0.08132 0.25685 0.0
H498 H 0.70222 0.06574 0.24544 0.0
H499 H 0.67157 0.09497 0.21159 0.0
H500 H 0.94067 0.97627 0.36958 0.0
H501 H 0.97046 0.00921 0.40311 0.0
H502 H 0.95986 0.94498 0.47719 0.0
H503 H 0.93007 0.91184 0.44391 0.0
H504 H 0.95628 0.03431 0.46071 0.0
H505 H 0.04524 0.96002 0.47258 0.0
H506 H 0.01883 0.95601 0.44215 0.0
H507 H 0.01201 0.94205 0.47969 0.0
C508 C 0.94472 0.96908 0.39298 0.0
C509 C 0.93308 0.94137 0.40404 0.0
C510 C 0.9617 0.98796 0.41208 0.0
C511 C 0.96756 0.97932 0.44247 0.0
C512 C 0.95587 0.95181 0.45367 0.0
H513 H 0.06938 0.05962 0.59131 0.0
H514 H 0.03881 0.0268 0.55855 0.0
C515 C 0.93876 0.93298 0.43464 0.0
C516 C 0.98556 0.99937 0.4626 0.0
H517 H 0.04773 0.00385 0.50286 0.0
C518 C 0.97632 0.02776 0.46988 0.0
C519 C 0.01158 0.99058 0.47458 0.0
C520 C 0.02272 0.96061 0.46675 0.0
C521 C 0.99229 0.04752 0.48929 0.0
C522 C 0.01848 0.03889 0.50107 0.0
C523 C 0.02766 0.01042 0.49379 0.0
C524 C 0.03674 0.05907 0.52093 0.0
C525 C 0.98068 0.07712 0.49754 0.0
C526 C 0.04599 0.08797 0.51051 0.0
C527 C 0.06334 0.10686 0.52923 0.0
C528 C 0.07204 0.09704 0.55861 0.0
C529 C 0.06304 0.0679 0.56883 0.0
C530 C 0.04558 0.0491 0.55014 0.0
H531 H 0.95784 0.07639 0.49387 0.0
H532 H 0.98623 0.08275 0.52164 0.0
H533 H 0.98936 0.09569 0.48295 0.0
H534 H 0.03998 0.09584 0.48778 0.0
H535 H 0.07007 0.12906 0.52056 0.0
H536 H 0.90242 0.28827 0.81384 0.0
H537 H 0.93 0.25372 0.78698 0.0
H538 H 0.99229 0.32596 0.77525 0.0
H539 H 0.96504 0.3606 0.80217 0.0
H540 H 0.9492 0.26013 0.72691 0.0
H541 H 0.03557 0.25591 0.81479 0.0
H542 H 0.00236 0.26958 0.8225 0.0
H543 H 0.02687 0.29355 0.80277 0.0
C544 C 0.922 0.29681 0.80558 0.0
C545 C 0.93159 0.32717 0.81029 0.0
C546 C 0.93771 0.27704 0.79023 0.0
C547 C 0.96335 0.28719 0.77956 0.0
C548 C 0.97278 0.31755 0.78381 0.0
H549 H 0.09064 0.20868 0.68192 0.0
H550 H 0.06187 0.24146 0.70924 0.0
C551 C 0.95709 0.33735 0.79906 0.0
C552 C 0.9801 0.26616 0.76357 0.0
H553 H 0.04222 0.2333 0.76755 0.0
C554 C 0.96947 0.25408 0.73583 0.0
C555 C 0.00653 0.25839 0.77532 0.0
C556 C 0.01849 0.26978 0.80561 0.0
C557 C 0.98488 0.23497 0.71911 0.0
C558 C 0.01138 0.22732 0.73079 0.0
C559 C 0.02192 0.23925 0.75864 0.0
C560 C 0.02867 0.20723 0.7143 0.0
C561 C 0.97298 0.2238 0.68872 0.0
C562 C 0.0197 0.17698 0.70848 0.0
C563 C 0.03608 0.15817 0.69284 0.0
C564 C 0.06182 0.16923 0.68289 0.0
C565 C 0.07091 0.19945 0.68918 0.0
C566 C 0.05451 0.21822 0.70481 0.0
H567 H 0.95583 0.23764 0.67966 0.0
H568 H 0.9891 0.22427 0.67181 0.0
H569 H 0.96469 0.19997 0.69134 0.0
H570 H 1.00008 0.16786 0.71616 0.0
H571 H 0.02852 0.13498 0.68853 0.0
H572 H 0.57185 0.70517 0.66333 0.0
H573 H 0.54202 0.73507 0.69259 0.0
H574 H 0.53185 0.66034 0.75636 0.0
H575 H 0.56164 0.63025 0.72735 0.0
H576 H 0.4855 0.71809 0.70734 0.0
H577 H 0.55653 0.73512 0.80972 0.0
H578 H 0.56832 0.72428 0.77355 0.0
H579 H 0.55106 0.69654 0.79728 0.0
C580 C 0.5634 0.69513 0.68367 0.0
C581 C 0.56919 0.66534 0.69306 0.0
C582 C 0.54633 0.71223 0.7003 0.0
C583 C 0.53501 0.7 0.72676 0.0
C584 C 0.54073 0.67032 0.73622 0.0
H585 H 0.42954 0.76396 0.86089 0.0
H586 H 0.45915 0.73504 0.83058 0.0
C587 C 0.55767 0.65313 0.71953 0.0
C588 C 0.51661 0.71798 0.74409 0.0
H589 H 0.511 0.75087 0.81274 0.0
C590 C 0.49107 0.72543 0.73033 0.0
C591 C 0.52397 0.72734 0.77409 0.0
C592 C 0.55154 0.72068 0.78955 0.0
C593 C 0.47235 0.74149 0.74606 0.0
C594 C 0.47972 0.75094 0.77608 0.0
C595 C 0.50537 0.74358 0.78975 0.0
C596 C 0.4611 0.76831 0.79386 0.0
C597 C 0.44457 0.74742 0.73066 0.0
C598 C 0.45247 0.79673 0.78338 0.0
C599 C 0.43538 0.81326 0.80057 0.0
C600 C 0.42687 0.80182 0.82877 0.0
C601 C 0.43568 0.77342 0.83927 0.0
C602 C 0.45264 0.75686 0.82199 0.0
H603 H 0.43924 0.73166 0.7116 0.0
H604 H 0.42799 0.74507 0.74703 0.0
H605 H 0.4451 0.77096 0.7212 0.0
H606 H 0.45927 0.80635 0.76208 0.0
H607 H 0.42915 0.83516 0.79193 0.0
H608 H 0.2085 0.64062 0.05739 0.0
H609 H 0.23748 0.67468 0.02655 0.0
H610 H 0.18878 0.74972 0.04698 0.0
H611 H 0.15975 0.7159 0.07808 0.0
H612 H 0.22066 0.71074 0.97519 0.0
H613 H 0.26903 0.78103 0.06922 0.0
H614 H 0.25135 0.74453 0.07574 0.0
H615 H 0.23195 0.77753 0.06765 0.0
C616 C 0.20398 0.66439 0.05544 0.0
C617 C 0.18187 0.67557 0.07031 0.0
C618 C 0.22055 0.68379 0.03777 0.0
C619 C 0.21548 0.71475 0.03483 0.0
C620 C 0.19332 0.72598 0.04941 0.0
H621 H 0.2927 0.86754 0.93855 0.0
H622 H 0.26334 0.83382 0.96931 0.0
C623 C 0.17668 0.70658 0.06704 0.0
C624 C 0.23308 0.73513 0.01597 0.0
H625 H 0.27837 0.79724 0.0191 0.0
C626 C 0.23336 0.7296 0.98476 0.0
C627 C 0.24954 0.75972 0.02859 0.0
C628 C 0.25074 0.76602 0.06218 0.0
C629 C 0.24939 0.74834 0.96566 0.0
C630 C 0.26596 0.77287 0.97828 0.0
C631 C 0.26563 0.77842 0.00951 0.0
C632 C 0.28379 0.79309 0.95948 0.0
C633 C 0.24797 0.74211 0.93204 0.0
C634 C 0.30526 0.7814 0.94407 0.0
C635 C 0.32205 0.80058 0.9264 0.0
C636 C 0.31781 0.83187 0.92402 0.0
C637 C 0.2965 0.84355 0.93982 0.0
C638 C 0.2797 0.82433 0.95744 0.0
H639 H 0.22915 0.72792 0.92499 0.0
H640 H 0.24814 0.76363 0.91848 0.0
H641 H 0.26622 0.72965 0.92657 0.0
H642 H 0.30914 0.75745 0.94586 0.0
H643 H 0.33839 0.79088 0.91468 0.0
H644 H 0.42757 0.48088 0.37373 0.0
H645 H 0.46046 0.50951 0.40783 0.0
H646 H 0.46795 0.43026 0.46616 0.0
H647 H 0.43447 0.40176 0.4327 0.0
H648 H 0.46305 0.48011 0.49859 0.0
H649 H 0.543 0.50351 0.41509 0.0
H650 H 0.51003 0.51696 0.40248 0.0
H651 H 0.51392 0.47682 0.40803 0.0
C652 C 0.43627 0.46952 0.39378 0.0
C653 C 0.42852 0.439 0.40042 0.0
C654 C 0.45521 0.48587 0.41315 0.0
C655 C 0.46711 0.47186 0.43923 0.0
C656 C 0.45915 0.44149 0.44608 0.0
H657 H 0.61299 0.54162 0.54425 0.0
H658 H 0.57958 0.51257 0.5111 0.0
C659 C 0.44001 0.42523 0.42691 0.0
C660 C 0.48746 0.48892 0.45975 0.0
H661 H 0.54929 0.5299 0.46175 0.0
C662 C 0.48197 0.4909 0.49057 0.0
C663 C 0.51234 0.5026 0.44937 0.0
C664 C 0.52036 0.49964 0.41701 0.0
C665 C 0.50048 0.50648 0.5112 0.0
C666 C 0.52482 0.5212 0.50056 0.0
C667 C 0.53049 0.51889 0.46983 0.0
C668 C 0.5449 0.53878 0.52096 0.0
C669 C 0.49404 0.50638 0.54431 0.0
C670 C 0.53659 0.56339 0.53727 0.0
C671 C 0.55557 0.57984 0.55649 0.0
C672 C 0.58336 0.57231 0.55935 0.0
C673 C 0.59174 0.548 0.54257 0.0
C674 C 0.57267 0.53138 0.52359 0.0
H675 H 0.4795 0.48703 0.55006 0.0
H676 H 0.5131 0.50505 0.55932 0.0
H677 H 0.48414 0.52769 0.54922 0.0
H678 H 0.51544 0.57006 0.53498 0.0
H679 H 0.54851 0.59864 0.56886 0.0
loop_
_geom_bond_atom_site_label_1
_geom_bond_atom_site_label_2
_geom_bond_distance
_geom_bond_site_symmetry_2
_ccdc_geom_bond_type
C0 O1 1.160 . S
C0 O7 1.185 . S
O1 C0 1.160 . S
O2 Zn3 1.899 . S
O2 C10 1.284 . S
Zn3 O2 1.899 . S
Zn3 O4 2.032 . S
Zn3 O7 2.086 . S
Zn3 O12 1.977 . S
O4 Zn3 2.032 . S
O4 C8 1.278 . S
C5 O6 1.203 . S
C5 O12 1.267 . S
O6 C5 1.203 . S
O7 C0 1.185 . S
O7 Zn3 2.086 . S
C8 O4 1.278 . S
C8 O9 1.211 . S
O9 C8 1.211 . S
C10 O2 1.284 . S
C10 O11 1.273 . S
O11 C10 1.273 . S
O12 Zn3 1.977 . S
O12 C5 1.267 . S
C13 O14 1.160 . S
C13 O20 1.185 . S
O14 C13 1.160 . S
O15 Zn16 1.899 . S
O15 C23 1.284 . S
Zn16 O15 1.899 . S
Zn16 O17 2.032 . S
Zn16 O20 2.086 . S
Zn16 O25 1.977 . S
O17 Zn16 2.032 . S
O17 C21 1.278 . S
C18 O19 1.203 . S
C18 O25 1.267 . S
O19 C18 1.203 . S
O20 C13 1.185 . S
O20 Zn16 2.086 . S
C21 O17 1.278 . S
C21 O22 1.211 . S
O22 C21 1.211 . S
C23 O15 1.284 . S
C23 O24 1.273 . S
O24 C23 1.273 . S
O25 Zn16 1.977 . S
O25 C18 1.267 . S
C26 O27 1.160 . S
C26 O33 1.185 . S
O27 C26 1.160 . S
O28 Zn29 1.899 . S
O28 C36 1.284 . S
Zn29 O28 1.899 . S
Zn29 O30 2.032 . S
Zn29 O33 2.086 . S
Zn29 O38 1.977 . S
O30 Zn29 2.032 . S
O30 C34 1.278 . S
C31 O32 1.203 . S
C31 O38 1.267 . S
O32 C31 1.203 . S
O33 C26 1.185 . S
O33 Zn29 2.086 . S
C34 O30 1.278 . S
C34 O35 1.211 . S
O35 C34 1.211 . S
C36 O28 1.284 . S
C36 O37 1.273 . S
O37 C36 1.273 . S
O38 Zn29 1.977 . S
O38 C31 1.267 . S
C39 O40 1.160 . S
C39 O46 1.185 . S
O40 C39 1.160 . S
O41 Zn42 1.899 . S
O41 C49 1.284 . S
Zn42 O41 1.899 . S
Zn42 O43 2.032 . S
Zn42 O46 2.086 . S
Zn42 O51 1.977 . S
O43 Zn42 2.032 . S
O43 C47 1.278 . S
C44 O45 1.203 . S
C44 O51 1.267 . S
O45 C44 1.203 . S
O46 C39 1.185 . S
O46 Zn42 2.086 . S
C47 O43 1.278 . S
C47 O48 1.211 . S
O48 C47 1.211 . S
C49 O41 1.284 . S
C49 O50 1.273 . S
O50 C49 1.273 . S
O51 Zn42 1.977 . S
O51 C44 1.267 . S
C52 O53 1.160 . S
C52 O59 1.185 . S
O53 C52 1.160 . S
O54 Zn55 1.899 . S
O54 C62 1.284 . S
Zn55 O54 1.899 . S
Zn55 O56 2.032 . S
Zn55 O59 2.086 . S
Zn55 O64 1.977 . S
O56 Zn55 2.032 . S
O56 C60 1.278 . S
C57 O58 1.203 . S
C57 O64 1.267 . S
O58 C57 1.203 . S
O59 C52 1.185 . S
O59 Zn55 2.086 . S
C60 O56 1.278 . S
C60 O61 1.211 . S
O61 C60 1.211 . S
C62 O54 1.284 . S
C62 O63 1.273 . S
O63 C62 1.273 . S
O64 Zn55 1.977 . S
O64 C57 1.267 . S
C65 O66 1.160 . S
C65 O72 1.185 . S
O66 C65 1.160 . S
O67 Zn68 1.899 . S
O67 C75 1.284 . S
Zn68 O67 1.899 . S
Zn68 O69 2.032 . S
Zn68 O72 2.086 . S
Zn68 O77 1.977 . S
O69 Zn68 2.032 . S
O69 C73 1.278 . S
C70 O71 1.203 . S
C70 O77 1.267 . S
O71 C70 1.203 . S
O72 C65 1.185 . S
O72 Zn68 2.086 . S
C73 O69 1.278 . S
C73 O74 1.211 . S
O74 C73 1.211 . S
C75 O67 1.284 . S
C75 O76 1.273 . S
O76 C75 1.273 . S
O77 Zn68 1.977 . S
O77 C70 1.267 . S
C78 O79 1.160 . S
C78 O85 1.185 . S
O79 C78 1.160 . S
O80 Zn81 1.899 . S
O80 C88 1.284 . S
Zn81 O80 1.899 . S
Zn81 O82 2.032 . S
Zn81 O85 2.086 . S
Zn81 O90 1.977 . S
O82 Zn81 2.032 . S
O82 C86 1.278 . S
C83 O84 1.203 . S
C83 O90 1.267 . S
O84 C83 1.203 . S
O85 C78 1.185 . S
O85 Zn81 2.086 . S
C86 O82 1.278 . S
C86 O87 1.211 . S
O87 C86 1.211 . S
C88 O80 1.284 . S
C88 O89 1.273 . S
O89 C88 1.273 . S
O90 Zn81 1.977 . S
O90 C83 1.267 . S
C91 O92 1.160 . S
C91 O98 1.185 . S
O92 C91 1.160 . S
O93 Zn94 1.899 . S
O93 C101 1.284 . S
Zn94 O93 1.899 . S
Zn94 O95 2.032 . S
Zn94 O98 2.086 . S
Zn94 O103 1.977 . S
O95 Zn94 2.032 . S
O95 C99 1.278 . S
C96 O97 1.203 . S
C96 O103 1.267 . S
O97 C96 1.203 . S
O98 C91 1.185 . S
O98 Zn94 2.086 . S
C99 O95 1.278 . S
C99 O100 1.211 . S
O100 C99 1.211 . S
C101 O93 1.284 . S
C101 O102 1.273 . S
O102 C101 1.273 . S
O103 Zn94 1.977 . S
O103 C96 1.267 . S
H104 C112 0.929 . S
H105 C114 0.930 . S
H106 C116 0.930 . S
H107 C119 0.929 . S
H108 C122 0.930 . S
H109 C124 0.960 . S
H110 C124 0.960 . S
H111 C124 0.960 . S
C112 H104 0.929 . S
C112 C113 1.377 . S
C112 C114 1.384 . S
C113 C112 1.377 . S
C113 C119 1.390 . S
C114 H105 0.930 . S
C114 C112 1.384 . S
C114 C115 1.372 . S
C115 C114 1.372 . S
C115 C116 1.400 . S
C115 C120 1.490 . S
C116 H106 0.930 . S
C116 C115 1.400 . S
C116 C119 1.386 . S
H117 C133 0.930 . S
H118 C134 0.931 . S
C119 H107 0.929 . S
C119 C113 1.390 . S
C119 C116 1.386 . S
C120 C115 1.490 . S
C120 C122 1.395 . S
C120 C123 1.403 . S
H121 C127 0.930 . S
C122 H108 0.930 . S
C122 C120 1.395 . S
C122 C125 1.403 . S
C123 C120 1.403 . S
C123 C124 1.524 . S
C123 C127 1.400 . S
C124 H109 0.960 . S
C124 H110 0.960 . S
C124 H111 0.960 . S
C124 C123 1.524 . S
C125 C122 1.403 . S
C125 C126 1.392 . S
C125 C129 1.495 . S
C126 C125 1.392 . S
C126 C127 1.385 . S
C126 C128 1.478 . S
C127 H121 0.930 . S
C127 C123 1.400 . S
C127 C126 1.385 . S
C128 C126 1.478 . S
C128 C130 1.381 . S
C128 C134 1.383 . S
C129 C125 1.495 . S
C129 H135 0.959 . S
C129 H136 0.961 . S
C129 H137 0.960 . S
C130 C128 1.381 . S
C130 C131 1.394 . S
C130 H138 0.930 . S
C131 C130 1.394 . S
C131 C132 1.383 . S
C131 H139 0.929 . S
C132 C131 1.383 . S
C132 C133 1.377 . S
C133 H117 0.930 . S
C133 C132 1.377 . S
C133 C134 1.379 . S
C134 H118 0.931 . S
C134 C128 1.383 . S
C134 C133 1.379 . S
H135 C129 0.959 . S
H136 C129 0.961 . S
H137 C129 0.960 . S
H138 C130 0.930 . S
H139 C131 0.929 . S
H140 C148 0.929 . S
H141 C150 0.930 . S
H142 C152 0.930 . S
H143 C155 0.929 . S
H144 C158 0.930 . S
H145 C160 0.960 . S
H146 C160 0.960 . S
H147 C160 0.960 . S
C148 H140 0.929 . S
C148 C149 1.377 . S
C148 C150 1.384 . S
C149 C148 1.377 . S
C149 C155 1.390 . S
C150 H141 0.930 . S
C150 C148 1.384 . S
C150 C151 1.372 . S
C151 C150 1.372 . S
C151 C152 1.400 . S
C151 C156 1.490 . S
C152 H142 0.930 . S
C152 C151 1.400 . S
C152 C155 1.386 . S
H153 C169 0.930 . S
H154 C170 0.931 . S
C155 H143 0.929 . S
C155 C149 1.390 . S
C155 C152 1.386 . S
C156 C151 1.490 . S
C156 C158 1.395 . S
C156 C159 1.403 . S
H157 C163 0.930 . S
C158 H144 0.930 . S
C158 C156 1.395 . S
C158 C161 1.403 . S
C159 C156 1.403 . S
C159 C160 1.524 . S
C159 C163 1.400 . S
C160 H145 0.960 . S
C160 H146 0.960 . S
C160 H147 0.960 . S
C160 C159 1.524 . S
C161 C158 1.403 . S
C161 C162 1.392 . S
C161 C165 1.495 . S
C162 C161 1.392 . S
C162 C163 1.385 . S
C162 C164 1.478 . S
C163 H157 0.930 . S
C163 C159 1.400 . S
C163 C162 1.385 . S
C164 C162 1.478 . S
C164 C166 1.381 . S
C164 C170 1.383 . S
C165 C161 1.495 . S
C165 H171 0.959 . S
C165 H172 0.961 . S
C165 H173 0.960 . S
C166 C164 1.381 . S
C166 C167 1.394 . S
C166 H174 0.930 . S
C167 C166 1.394 . S
C167 C168 1.383 . S
C167 H175 0.929 . S
C168 C167 1.383 . S
C168 C169 1.377 . S
C169 H153 0.930 . S
C169 C168 1.377 . S
C169 C170 1.379 . S
C170 H154 0.931 . S
C170 C164 1.383 . S
C170 C169 1.379 . S
H171 C165 0.959 . S
H172 C165 0.961 . S
H173 C165 0.960 . S
H174 C166 0.930 . S
H175 C167 0.929 . S
H176 C184 0.929 . S
H177 C186 0.930 . S
H178 C188 0.930 . S
H179 C191 0.929 . S
H180 C194 0.930 . S
H181 C196 0.960 . S
H182 C196 0.960 . S
H183 C196 0.960 . S
C184 H176 0.929 . S
C184 C185 1.377 . S
C184 C186 1.384 . S
C185 C184 1.377 . S
C185 C191 1.390 . S
C186 H177 0.930 . S
C186 C184 1.384 . S
C186 C187 1.372 . S
C187 C186 1.372 . S
C187 C188 1.400 . S
C187 C192 1.490 . S
C188 H178 0.930 . S
C188 C187 1.400 . S
C188 C191 1.386 . S
H189 C205 0.930 . S
H190 C206 0.931 . S
C191 H179 0.929 . S
C191 C185 1.390 . S
C191 C188 1.386 . S
C192 C187 1.490 . S
C192 C194 1.395 . S
C192 C195 1.403 1_554 S
H193 C199 0.930 . S
C194 H180 0.930 . S
C194 C192 1.395 . S
C194 C197 1.403 1_545 S
C195 C192 1.403 1_556 S
C195 C196 1.524 . S
C195 C199 1.400 1_545 S
C196 H181 0.960 . S
C196 H182 0.960 . S
C196 H183 0.960 . S
C196 C195 1.524 . S
C197 C194 1.403 1_565 S
C197 C198 1.392 1_554 S
C197 C201 1.495 . S
C198 C197 1.392 1_556 S
C198 C199 1.385 . S
C198 C200 1.478 . S
C199 H193 0.930 . S
C199 C195 1.400 1_565 S
C199 C198 1.385 . S
C200 C198 1.478 . S
C200 C202 1.381 . S
C200 C206 1.383 . S
C201 C197 1.495 . S
C201 H207 0.959 . S
C201 H208 0.961 . S
C201 H209 0.960 . S
C202 C200 1.381 . S
C202 C203 1.394 . S
C202 H210 0.930 . S
C203 C202 1.394 . S
C203 C204 1.383 . S
C203 H211 0.929 . S
C204 C203 1.383 . S
C204 C205 1.377 . S
C205 H189 0.930 . S
C205 C204 1.377 . S
C205 C206 1.379 . S
C206 H190 0.931 . S
C206 C200 1.383 . S
C206 C205 1.379 . S
H207 C201 0.959 . S
H208 C201 0.961 . S
H209 C201 0.960 . S
H210 C202 0.930 . S
H211 C203 0.929 . S
H212 C220 0.929 . S
H213 C222 0.930 . S
H214 C224 0.930 . S
H215 C227 0.929 . S
H216 C230 0.930 . S
H217 C232 0.943 1_455 S
H218 C232 0.960 . S
H219 C232 0.960 . S
C220 H212 0.929 . S
C220 C221 1.377 . S
C220 C222 1.384 . S
C221 C220 1.377 . S
C221 C227 1.390 . S
C222 H213 0.930 . S
C222 C220 1.384 . S
C222 C223 1.372 . S
C223 C222 1.372 . S
C223 C224 1.400 . S
C223 C228 1.490 . S
C224 H214 0.930 . S
C224 C223 1.400 . S
C224 C227 1.386 . S
H225 C241 0.930 . S
H226 C242 0.931 . S
C227 H215 0.929 . S
C227 C221 1.390 . S
C227 C224 1.386 . S
C228 C223 1.490 . S
C228 C230 1.395 . S
C228 C231 1.403 . S
H229 C235 0.930 . S
C230 H216 0.930 . S
C230 C228 1.395 . S
C230 C233 1.403 1_655 S
C231 C228 1.403 . S
C231 C232 1.524 . S
C231 C235 1.400 1_655 S
C232 H217 0.943 1_655 S
C232 H218 0.960 . S
C232 H219 0.960 . S
C232 C231 1.524 . S
C233 C230 1.403 1_455 S
C233 C234 1.392 . S
C233 C237 1.495 . S
C234 C233 1.392 . S
C234 C235 1.385 . S
C234 C236 1.478 . S
C235 H229 0.930 . S
C235 C231 1.400 1_455 S
C235 C234 1.385 . S
C236 C234 1.478 . S
C236 C238 1.381 . S
C236 C242 1.383 . S
C237 C233 1.495 . S
C237 H243 0.959 . S
C237 H244 0.961 . S
C237 H245 0.960 . S
C238 C236 1.381 . S
C238 C239 1.394 . S
C238 H246 0.930 . S
C239 C238 1.394 . S
C239 C240 1.383 . S
C239 H247 0.929 . S
C240 C239 1.383 . S
C240 C241 1.377 . S
C241 H225 0.930 . S
C241 C240 1.377 . S
C241 C242 1.379 . S
C242 H226 0.931 . S
C242 C236 1.383 . S
C242 C241 1.379 . S
H243 C237 0.959 . S
H244 C237 0.961 . S
H245 C237 0.960 . S
H246 C238 0.930 . S
H247 C239 0.929 . S
H248 C256 0.929 . S
H249 C258 0.930 . S
H250 C260 0.930 . S
H251 C263 0.929 . S
H252 C266 0.929 1_565 S
H253 C268 0.960 . S
H254 C268 0.960 . S
H255 C268 0.960 . S
C256 H248 0.929 . S
C256 C257 1.377 . S
C256 C258 1.384 . S
C257 C256 1.377 . S
C257 C263 1.390 . S
C258 H249 0.930 . S
C258 C256 1.384 . S
C258 C259 1.372 . S
C259 C258 1.372 . S
C259 C260 1.400 . S
C259 C264 1.490 . S
C260 H250 0.930 . S
C260 C259 1.400 . S
C260 C263 1.386 . S
H261 C277 0.930 . S
H262 C278 0.931 . S
C263 H251 0.929 . S
C263 C257 1.390 . S
C263 C260 1.386 . S
C264 C259 1.490 . S
C264 C266 1.372 1_565 S
C264 C267 1.403 . S
H265 C271 0.930 . S
C266 H252 0.929 1_545 S
C266 C264 1.372 1_545 S
C266 C269 1.428 . S
C267 C264 1.403 . S
C267 C268 1.524 . S
C267 C271 1.400 1_565 S
C268 H253 0.960 . S
C268 H254 0.960 . S
C268 H255 0.960 . S
C268 C267 1.524 . S
C269 C266 1.428 . S
C269 C270 1.392 . S
C269 C273 1.495 . S
C270 C269 1.392 . S
C270 C271 1.385 . S
C270 C272 1.478 . S
C271 H265 0.930 . S
C271 C267 1.400 1_545 S
C271 C270 1.385 . S
C272 C270 1.478 . S
C272 C274 1.381 . S
C272 C278 1.383 . S
C273 C269 1.495 . S
C273 H279 0.959 . S
C273 H280 0.961 . S
C273 H281 0.960 . S
C274 C272 1.381 . S
C274 C275 1.394 . S
C274 H282 0.930 . S
C275 C274 1.394 . S
C275 C276 1.383 . S
C275 H283 0.929 . S
C276 C275 1.383 . S
C276 C277 1.377 . S
C277 H261 0.930 . S
C277 C276 1.377 . S
C277 C278 1.379 . S
C278 H262 0.931 . S
C278 C272 1.383 . S
C278 C277 1.379 . S
H279 C273 0.959 . S
H280 C273 0.961 . S
H281 C273 0.960 . S
H282 C274 0.930 . S
H283 C275 0.929 . S
H284 C292 0.929 . S
H285 C294 0.930 . S
H286 C296 0.930 . S
H287 C299 0.929 . S
H288 C302 0.930 . S
H289 C304 0.960 . S
H290 C304 0.960 . S
H291 C304 0.960 . S
C292 H284 0.929 . S
C292 C293 1.377 . S
C292 C294 1.384 . S
C293 C292 1.377 . S
C293 C299 1.390 . S
C294 H285 0.930 . S
C294 C292 1.384 . S
C294 C295 1.372 . S
C295 C294 1.372 . S
C295 C296 1.400 . S
C295 C300 1.490 . S
C296 H286 0.930 . S
C296 C295 1.400 . S
C296 C299 1.386 . S
H297 C313 0.930 . S
H298 C314 0.931 . S
C299 H287 0.929 . S
C299 C293 1.390 . S
C299 C296 1.386 . S
C300 C295 1.490 . S
C300 C302 1.395 1_556 S
C300 C303 1.403 1_655 S
H301 C307 0.930 . S
C302 H288 0.930 . S
C302 C300 1.395 1_554 S
C302 C305 1.403 . S
C303 C300 1.403 1_455 S
C303 C304 1.524 . S
C303 C307 1.400 . S
C304 H289 0.960 . S
C304 H290 0.960 . S
C304 H291 0.960 . S
C304 C303 1.524 . S
C305 C302 1.403 . S
C305 C306 1.392 1_655 S
C305 C309 1.495 . S
C306 C305 1.392 1_455 S
C306 C307 1.385 1_554 S
C306 C308 1.478 . S
C307 H301 0.930 . S
C307 C303 1.400 . S
C307 C306 1.385 1_556 S
C308 C306 1.478 . S
C308 C310 1.381 . S
C308 C314 1.383 . S
C309 C305 1.495 . S
C309 H315 0.959 . S
C309 H316 0.961 . S
C309 H317 0.960 . S
C310 C308 1.381 . S
C310 C311 1.394 . S
C310 H318 0.930 . S
C311 C310 1.394 . S
C311 C312 1.383 . S
C311 H319 0.929 . S
C312 C311 1.383 . S
C312 C313 1.377 . S
C313 H297 0.930 . S
C313 C312 1.377 . S
C313 C314 1.379 . S
C314 H298 0.931 . S
C314 C308 1.383 . S
C314 C313 1.379 . S
H315 C309 0.959 . S
H316 C309 0.961 . S
H317 C309 0.960 . S
H318 C310 0.930 . S
H319 C311 0.929 . S
H320 C328 0.929 . S
H321 C330 0.930 . S
H322 C332 0.930 . S
H323 C335 0.929 . S
H324 C338 0.930 . S
H325 C340 0.960 . S
H326 C340 0.960 . S
H327 C340 0.960 . S
C328 H320 0.929 . S
C328 C329 1.377 . S
C328 C330 1.384 . S
C329 C328 1.377 . S
C329 C335 1.390 . S
C330 H321 0.930 . S
C330 C328 1.384 . S
C330 C331 1.372 . S
C331 C330 1.372 . S
C331 C332 1.400 . S
C331 C336 1.490 . S
C332 H322 0.930 . S
C332 C331 1.400 . S
C332 C335 1.386 . S
H333 C349 0.930 . S
H334 C350 0.931 . S
C335 H323 0.929 . S
C335 C329 1.390 . S
C335 C332 1.386 . S
C336 C331 1.490 . S
C336 C338 1.395 . S
C336 C339 1.403 . S
H337 C343 0.930 . S
C338 H324 0.930 . S
C338 C336 1.395 . S
C338 C341 1.403 . S
C339 C336 1.403 . S
C339 C340 1.524 . S
C339 C343 1.400 . S
C340 H325 0.960 . S
C340 H326 0.960 . S
C340 H327 0.960 . S
C340 C339 1.524 . S
C341 C338 1.403 . S
C341 C342 1.392 . S
C341 C345 1.495 . S
C342 C341 1.392 . S
C342 C343 1.385 . S
C342 C344 1.478 . S
C343 H337 0.930 . S
C343 C339 1.400 . S
C343 C342 1.385 . S
C344 C342 1.478 . S
C344 C346 1.381 . S
C344 C350 1.383 . S
C345 C341 1.495 . S
C345 H351 0.959 . S
C345 H352 0.961 . S
C345 H353 0.960 . S
C346 C344 1.381 . S
C346 C347 1.394 . S
C346 H354 0.930 . S
C347 C346 1.394 . S
C347 C348 1.383 . S
C347 H355 0.929 . S
C348 C347 1.383 . S
C348 C349 1.377 . S
C349 H333 0.930 . S
C349 C348 1.377 . S
C349 C350 1.379 . S
C350 H334 0.931 . S
C350 C344 1.383 . S
C350 C349 1.379 . S
H351 C345 0.959 . S
H352 C345 0.961 . S
H353 C345 0.960 . S
H354 C346 0.930 . S
H355 C347 0.929 . S
H356 C364 0.929 . S
H357 C366 0.930 . S
H358 C368 0.930 . S
H359 C371 0.929 . S
H360 C374 0.930 . S
H361 C376 0.960 . S
H362 C376 0.960 . S
H363 C376 0.960 . S
C364 H356 0.929 . S
C364 C365 1.377 . S
C364 C366 1.384 . S
C365 C364 1.377 . S
C365 C371 1.390 . S
C366 H357 0.930 . S
C366 C364 1.384 . S
C366 C367 1.372 . S
C367 C366 1.372 . S
C367 C368 1.400 . S
C367 C372 1.490 . S
C368 H358 0.930 . S
C368 C367 1.400 . S
C368 C371 1.386 . S
H369 C385 0.930 . S
H370 C386 0.931 . S
C371 H359 0.929 . S
C371 C365 1.390 . S
C371 C368 1.386 . S
C372 C367 1.490 . S
C372 C374 1.395 . S
C372 C375 1.403 . S
H373 C379 0.930 . S
C374 H360 0.930 . S
C374 C372 1.395 . S
C374 C377 1.403 . S
C375 C372 1.403 . S
C375 C376 1.524 . S
C375 C379 1.400 . S
C376 H361 0.960 . S
C376 H362 0.960 . S
C376 H363 0.960 . S
C376 C375 1.524 . S
C377 C374 1.403 . S
C377 C378 1.392 . S
C377 C381 1.495 . S
C378 C377 1.392 . S
C378 C379 1.385 . S
C378 C380 1.478 . S
C379 H373 0.930 . S
C379 C375 1.400 . S
C379 C378 1.385 . S
C380 C378 1.478 . S
C380 C382 1.381 . S
C380 C386 1.383 . S
C381 C377 1.495 . S
C381 H387 0.959 . S
C381 H388 0.961 . S
C381 H389 0.960 . S
C382 C380 1.381 . S
C382 C383 1.394 . S
C382 H390 0.930 . S
C383 C382 1.394 . S
C383 C384 1.383 . S
C383 H391 0.929 . S
C384 C383 1.383 . S
C384 C385 1.377 . S
C385 H369 0.930 . S
C385 C384 1.377 . S
C385 C386 1.379 . S
C386 H370 0.931 . S
C386 C380 1.383 . S
C386 C385 1.379 . S
H387 C381 0.959 . S
H388 C381 0.961 . S
H389 C381 0.960 . S
H390 C382 0.930 . S
H391 C383 0.929 . S
H392 C400 0.929 . S
H393 C402 0.930 . S
H394 C404 0.930 . S
H395 C407 0.929 . S
H396 C410 0.930 . S
H397 C412 0.960 . S
H398 C412 0.960 . S
H399 C412 0.960 . S
C400 H392 0.929 . S
C400 C401 1.377 . S
C400 C402 1.384 . S
C401 C400 1.377 . S
C401 C407 1.390 . S
C402 H393 0.930 . S
C402 C400 1.384 . S
C402 C403 1.372 . S
C403 C402 1.372 . S
C403 C404 1.400 . S
C403 C408 1.490 . S
C404 H394 0.930 . S
C404 C403 1.400 . S
C404 C407 1.386 . S
H405 C421 0.930 . S
H406 C422 0.931 . S
C407 H395 0.929 . S
C407 C401 1.390 . S
C407 C404 1.386 . S
C408 C403 1.490 . S
C408 C410 1.395 . S
C408 C411 1.403 . S
H409 C415 0.930 . S
C410 H396 0.930 . S
C410 C408 1.395 . S
C410 C413 1.403 . S
C411 C408 1.403 . S
C411 C412 1.524 . S
C411 C415 1.400 . S
C412 H397 0.960 . S
C412 H398 0.960 . S
C412 H399 0.960 . S
C412 C411 1.524 . S
C413 C410 1.403 . S
C413 C414 1.392 . S
C413 C417 1.495 . S
C414 C413 1.392 . S
C414 C415 1.385 . S
C414 C416 1.478 . S
C415 H409 0.930 . S
C415 C411 1.400 . S
C415 C414 1.385 . S
C416 C414 1.478 . S
C416 C418 1.381 . S
C416 C422 1.383 . S
C417 C413 1.495 . S
C417 H423 0.959 . S
C417 H424 0.961 . S
C417 H425 0.960 . S
C418 C416 1.381 . S
C418 C419 1.394 . S
C418 H426 0.930 . S
C419 C418 1.394 . S
C419 C420 1.383 . S
C419 H427 0.929 . S
C420 C419 1.383 . S
C420 C421 1.377 . S
C421 H405 0.930 . S
C421 C420 1.377 . S
C421 C422 1.379 . S
C422 H406 0.931 . S
C422 C416 1.383 . S
C422 C421 1.379 . S
H423 C417 0.959 . S
H424 C417 0.961 . S
H425 C417 0.960 . S
H426 C418 0.930 . S
H427 C419 0.929 . S
H428 C436 0.929 . S
H429 C438 0.930 . S
H430 C440 0.930 . S
H431 C443 0.929 . S
H432 C446 0.930 . S
H433 C448 0.960 . S
H434 C448 0.960 1_556 S
H435 C448 0.960 . S
C436 H428 0.929 . S
C436 C437 1.377 . S
C436 C438 1.384 . S
C437 C436 1.377 . S
C437 C443 1.390 . S
C438 H429 0.930 . S
C438 C436 1.384 . S
C438 C439 1.372 . S
C439 C438 1.372 . S
C439 C440 1.400 . S
C439 C444 1.490 . S
C440 H430 0.930 . S
C440 C439 1.400 . S
C440 C443 1.386 . S
H441 C457 0.930 . S
H442 C458 0.931 . S
C443 H431 0.929 . S
C443 C437 1.390 . S
C443 C440 1.386 . S
C444 C439 1.490 . S
C444 C446 1.395 . S
C444 C447 1.403 . S
H445 C451 0.930 . S
C446 H432 0.930 . S
C446 C444 1.395 . S
C446 C449 1.403 . S
C447 C444 1.403 . S
C447 C448 1.524 1_556 S
C447 C451 1.400 1_556 S
C448 H433 0.960 . S
C448 H434 0.960 1_554 S
C448 H435 0.960 . S
C448 C447 1.524 1_554 S
C449 C446 1.403 . S
C449 C450 1.392 1_556 S
C449 C453 1.495 . S
C450 C449 1.392 1_554 S
C450 C451 1.385 . S
C450 C452 1.478 . S
C451 H445 0.930 . S
C451 C447 1.400 1_554 S
C451 C450 1.385 . S
C452 C450 1.478 . S
C452 C454 1.381 . S
C452 C458 1.383 . S
C453 C449 1.495 . S
C453 H459 0.959 . S
C453 H460 0.961 1_556 S
C453 H461 0.960 . S
C454 C452 1.381 . S
C454 C455 1.394 . S
C454 H462 0.905 1_554 S
C455 C454 1.394 . S
C455 C456 1.383 . S
C455 H463 0.929 . S
C456 C455 1.383 . S
C456 C457 1.377 . S
C457 H441 0.930 . S
C457 C456 1.377 . S
C457 C458 1.379 . S
C458 H442 0.931 . S
C458 C452 1.383 . S
C458 C457 1.379 . S
H459 C453 0.959 . S
H460 C453 0.961 1_554 S
H461 C453 0.960 . S
H462 C454 0.905 1_556 S
H463 C455 0.929 . S
H464 C472 0.929 . S
H465 C474 0.930 . S
H466 C476 0.930 . S
H467 C479 0.929 . S
H468 C482 0.930 . S
H469 C484 0.960 . S
H470 C484 0.960 . S
H471 C484 0.960 . S
C472 H464 0.929 . S
C472 C473 1.377 . S
C472 C474 1.384 . S
C473 C472 1.377 . S
C473 C479 1.390 . S
C474 H465 0.930 . S
C474 C472 1.384 . S
C474 C475 1.372 . S
C475 C474 1.372 . S
C475 C476 1.400 . S
C475 C480 1.490 . S
C476 H466 0.930 . S
C476 C475 1.400 . S
C476 C479 1.386 . S
H477 C493 0.930 . S
H478 C494 0.931 . S
C479 H467 0.929 . S
C479 C473 1.390 . S
C479 C476 1.386 . S
C480 C475 1.490 . S
C480 C482 1.395 1_565 S
C480 C483 1.403 . S
H481 C487 0.930 . S
C482 H468 0.930 . S
C482 C480 1.395 1_545 S
C482 C485 1.403 . S
C483 C480 1.403 . S
C483 C484 1.524 . S
C483 C487 1.400 . S
C484 H469 0.960 . S
C484 H470 0.960 . S
C484 H471 0.960 . S
C484 C483 1.524 . S
C485 C482 1.403 . S
C485 C486 1.392 . S
C485 C489 1.495 . S
C486 C485 1.392 . S
C486 C487 1.385 1_545 S
C486 C488 1.478 . S
C487 H481 0.930 . S
C487 C483 1.400 . S
C487 C486 1.385 1_565 S
C488 C486 1.478 . S
C488 C490 1.381 . S
C488 C494 1.383 . S
C489 C485 1.495 . S
C489 H495 0.959 . S
C489 H496 0.961 . S
C489 H497 0.960 . S
C490 C488 1.381 . S
C490 C491 1.394 . S
C490 H498 0.930 . S
C491 C490 1.394 . S
C491 C492 1.383 . S
C491 H499 0.929 . S
C492 C491 1.383 . S
C492 C493 1.377 . S
C493 H477 0.930 . S
C493 C492 1.377 . S
C493 C494 1.379 . S
C494 H478 0.931 . S
C494 C488 1.383 . S
C494 C493 1.379 . S
H495 C489 0.959 . S
H496 C489 0.961 . S
H497 C489 0.960 . S
H498 C490 0.930 . S
H499 C491 0.929 . S
H500 C508 0.929 . S
H501 C510 0.930 . S
H502 C512 0.930 . S
H503 C515 0.929 . S
H504 C518 0.930 . S
H505 C520 0.960 . S
H506 C520 0.960 . S
H507 C520 0.960 . S
C508 H500 0.929 . S
C508 C509 1.377 . S
C508 C510 1.384 . S
C509 C508 1.377 . S
C509 C515 1.390 . S
C510 H501 0.930 . S
C510 C508 1.384 . S
C510 C511 1.372 . S
C511 C510 1.372 . S
C511 C512 1.400 . S
C511 C516 1.490 . S
C512 H502 0.930 . S
C512 C511 1.400 . S
C512 C515 1.386 . S
H513 C529 0.930 . S
H514 C530 0.931 . S
C515 H503 0.929 . S
C515 C509 1.390 . S
C515 C512 1.386 . S
C516 C511 1.490 . S
C516 C518 1.395 1_565 S
C516 C519 1.403 1_655 S
H517 C523 0.930 . S
C518 H504 0.930 . S
C518 C516 1.395 1_545 S
C518 C521 1.403 . S
C519 C516 1.403 1_455 S
C519 C520 1.524 . S
C519 C523 1.400 . S
C520 H505 0.960 . S
C520 H506 0.960 . S
C520 H507 0.960 . S
C520 C519 1.524 . S
C521 C518 1.403 . S
C521 C522 1.392 1_655 S
C521 C525 1.495 . S
C522 C521 1.392 1_455 S
C522 C523 1.385 1_545 S
C522 C524 1.478 . S
C523 H517 0.930 . S
C523 C519 1.400 . S
C523 C522 1.385 1_565 S
C524 C522 1.478 . S
C524 C526 1.381 . S
C524 C530 1.383 . S
C525 C521 1.495 . S
C525 H531 0.959 . S
C525 H532 0.961 . S
C525 H533 0.960 . S
C526 C524 1.381 . S
C526 C527 1.394 . S
C526 H534 0.930 . S
C527 C526 1.394 . S
C527 C528 1.383 . S
C527 H535 0.929 . S
C528 C527 1.383 . S
C528 C529 1.377 . S
C529 H513 0.930 . S
C529 C528 1.377 . S
C529 C530 1.379 . S
C530 H514 0.931 . S
C530 C524 1.383 . S
C530 C529 1.379 . S
H531 C525 0.959 . S
H532 C525 0.961 . S
H533 C525 0.960 . S
H534 C526 0.930 . S
H535 C527 0.929 . S
H536 C544 0.929 . S
H537 C546 0.930 . S
H538 C548 0.930 . S
H539 C551 0.929 . S
H540 C554 0.930 . S
H541 C556 0.960 . S
H542 C556 0.960 1_655 S
H543 C556 0.960 . S
C544 H536 0.929 . S
C544 C545 1.377 . S
C544 C546 1.384 . S
C545 C544 1.377 . S
C545 C551 1.390 . S
C546 H537 0.930 . S
C546 C544 1.384 . S
C546 C547 1.372 . S
C547 C546 1.372 . S
C547 C548 1.400 . S
C547 C552 1.490 . S
C548 H538 0.930 . S
C548 C547 1.400 . S
C548 C551 1.386 . S
H549 C565 0.930 . S
H550 C566 0.931 . S
C551 H539 0.929 . S
C551 C545 1.390 . S
C551 C548 1.386 . S
C552 C547 1.490 . S
C552 C554 1.395 . S
C552 C555 1.403 1_655 S
H553 C559 0.930 . S
C554 H540 0.930 . S
C554 C552 1.395 . S
C554 C557 1.403 . S
C555 C552 1.403 1_455 S
C555 C556 1.524 . S
C555 C559 1.400 . S
C556 H541 0.960 . S
C556 H542 0.960 1_455 S
C556 H543 0.960 . S
C556 C555 1.524 . S
C557 C554 1.403 . S
C557 C558 1.392 1_655 S
C557 C561 1.495 . S
C558 C557 1.392 1_455 S
C558 C559 1.385 . S
C558 C560 1.478 . S
C559 H553 0.930 . S
C559 C555 1.400 . S
C559 C558 1.385 . S
C560 C558 1.478 . S
C560 C562 1.381 . S
C560 C566 1.383 . S
C561 C557 1.495 . S
C561 H567 0.959 . S
C561 H568 0.961 1_655 S
C561 H569 0.960 . S
C562 C560 1.381 . S
C562 C563 1.394 . S
C562 H570 0.930 . S
C563 C562 1.394 . S
C563 C564 1.383 . S
C563 H571 0.929 . S
C564 C563 1.383 . S
C564 C565 1.377 . S
C565 H549 0.930 . S
C565 C564 1.377 . S
C565 C566 1.379 . S
C566 H550 0.931 . S
C566 C560 1.383 . S
C566 C565 1.379 . S
H567 C561 0.959 . S
H568 C561 0.961 1_455 S
H569 C561 0.960 . S
H570 C562 0.930 . S
H571 C563 0.929 . S
H572 C580 0.929 . S
H573 C582 0.930 . S
H574 C584 0.930 . S
H575 C587 0.929 . S
H576 C590 0.930 . S
H577 C592 0.960 . S
H578 C592 0.960 . S
H579 C592 0.960 . S
C580 H572 0.929 . S
C580 C581 1.377 . S
C580 C582 1.384 . S
C581 C580 1.377 . S
C581 C587 1.390 . S
C582 H573 0.930 . S
C582 C580 1.384 . S
C582 C583 1.372 . S
C583 C582 1.372 . S
C583 C584 1.400 . S
C583 C588 1.490 . S
C584 H574 0.930 . S
C584 C583 1.400 . S
C584 C587 1.386 . S
H585 C601 0.930 . S
H586 C602 0.931 . S
C587 H575 0.929 . S
C587 C581 1.390 . S
C587 C584 1.386 . S
C588 C583 1.490 . S
C588 C590 1.395 . S
C588 C591 1.403 . S
H589 C595 0.930 . S
C590 H576 0.930 . S
C590 C588 1.395 . S
C590 C593 1.403 . S
C591 C588 1.403 . S
C591 C592 1.524 . S
C591 C595 1.400 . S
C592 H577 0.960 . S
C592 H578 0.960 . S
C592 H579 0.960 . S
C592 C591 1.524 . S
C593 C590 1.403 . S
C593 C594 1.392 . S
C593 C597 1.495 . S
C594 C593 1.392 . S
C594 C595 1.385 . S
C594 C596 1.478 . S
C595 H589 0.930 . S
C595 C591 1.400 . S
C595 C594 1.385 . S
C596 C594 1.478 . S
C596 C598 1.381 . S
C596 C602 1.383 . S
C597 C593 1.495 . S
C597 H603 0.959 . S
C597 H604 0.961 . S
C597 H605 0.960 . S
C598 C596 1.381 . S
C598 C599 1.394 . S
C598 H606 0.930 . S
C599 C598 1.394 . S
C599 C600 1.383 . S
C599 H607 0.929 . S
C600 C599 1.383 . S
C600 C601 1.377 . S
C601 H585 0.930 . S
C601 C600 1.377 . S
C601 C602 1.379 . S
C602 H586 0.931 . S
C602 C596 1.383 . S
C602 C601 1.379 . S
H603 C597 0.959 . S
H604 C597 0.961 . S
H605 C597 0.960 . S
H606 C598 0.930 . S
H607 C599 0.929 . S
H608 C616 0.929 . S
H609 C618 0.930 . S
H610 C620 0.930 . S
H611 C623 0.929 . S
H612 C626 0.930 . S
H613 C628 0.960 . S
H614 C628 0.960 . S
H615 C628 0.960 . S
C616 H608 0.929 . S
C616 C617 1.377 . S
C616 C618 1.384 . S
C617 C616 1.377 . S
C617 C623 1.390 . S
C618 H609 0.930 . S
C618 C616 1.384 . S
C618 C619 1.372 . S
C619 C618 1.372 . S
C619 C620 1.400 . S
C619 C624 1.490 . S
C620 H610 0.930 . S
C620 C619 1.400 . S
C620 C623 1.386 . S
H621 C637 0.930 . S
H622 C638 0.931 . S
C623 H611 0.929 . S
C623 C617 1.390 . S
C623 C620 1.386 . S
C624 C619 1.490 . S
C624 C626 1.395 1_554 S
C624 C627 1.403 . S
H625 C631 0.930 . S
C626 H612 0.930 . S
C626 C624 1.395 1_556 S
C626 C629 1.403 . S
C627 C624 1.403 . S
C627 C628 1.524 . S
C627 C631 1.400 . S
C628 H613 0.960 . S
C628 H614 0.960 . S
C628 H615 0.960 . S
C628 C627 1.524 . S
C629 C626 1.403 . S
C629 C630 1.392 . S
C629 C633 1.495 . S
C630 C629 1.392 . S
C630 C631 1.385 1_556 S
C630 C632 1.478 . S
C631 H625 0.930 . S
C631 C627 1.400 . S
C631 C630 1.385 1_554 S
C632 C630 1.478 . S
C632 C634 1.381 . S
C632 C638 1.383 . S
C633 C629 1.495 . S
C633 H639 0.959 . S
C633 H640 0.961 . S
C633 H641 0.960 . S
C634 C632 1.381 . S
C634 C635 1.394 . S
C634 H642 0.930 . S
C635 C634 1.394 . S
C635 C636 1.383 . S
C635 H643 0.929 . S
C636 C635 1.383 . S
C636 C637 1.377 . S
C637 H621 0.930 . S
C637 C636 1.377 . S
C637 C638 1.379 . S
C638 H622 0.931 . S
C638 C632 1.383 . S
C638 C637 1.379 . S
H639 C633 0.959 . S
H640 C633 0.961 . S
H641 C633 0.960 . S
H642 C634 0.930 . S
H643 C635 0.929 . S
H644 C652 0.929 . S
H645 C654 0.930 . S
H646 C656 0.930 . S
H647 C659 0.929 . S
H648 C662 0.930 . S
H649 C664 0.960 . S
H650 C664 0.960 . S
H651 C664 0.960 . S
C652 H644 0.929 . S
C652 C653 1.377 . S
C652 C654 1.384 . S
C653 C652 1.377 . S
C653 C659 1.390 . S
C654 H645 0.930 . S
C654 C652 1.384 . S
C654 C655 1.372 . S
C655 C654 1.372 . S
C655 C656 1.400 . S
C655 C660 1.490 . S
C656 H646 0.930 . S
C656 C655 1.400 . S
C656 C659 1.386 . S
H657 C673 0.930 . S
H658 C674 0.931 . S
C659 H647 0.929 . S
C659 C653 1.390 . S
C659 C656 1.386 . S
C660 C655 1.490 . S
C660 C662 1.395 . S
C660 C663 1.403 . S
H661 C667 0.930 . S
C662 H648 0.930 . S
C662 C660 1.395 . S
C662 C665 1.403 . S
C663 C660 1.403 . S
C663 C664 1.524 . S
C663 C667 1.400 . S
C664 H649 0.960 . S
C664 H650 0.960 . S
C664 H651 0.960 . S
C664 C663 1.524 . S
C665 C662 1.403 . S
C665 C666 1.392 . S
C665 C669 1.495 . S
C666 C665 1.392 . S
C666 C667 1.385 . S
C666 C668 1.478 . S
C667 H661 0.930 . S
C667 C663 1.400 . S
C667 C666 1.385 . S
C668 C666 1.478 . S
C668 C670 1.381 . S
C668 C674 1.383 . S
C669 C665 1.495 . S
C669 H675 0.959 . S
C669 H676 0.961 . S
C669 H677 0.960 . S
C670 C668 1.381 . S
C670 C671 1.394 . S
C670 H678 0.930 . S
C671 C670 1.394 . S
C671 C672 1.383 . S
C671 H679 0.929 . S
C672 C671 1.383 . S
C672 C673 1.377 . S
C673 H657 0.930 . S
C673 C672 1.377 . S
C673 C674 1.379 . S
C674 H658 0.931 . S
C674 C668 1.383 . S
C674 C673 1.379 . S
H675 C669 0.959 . S
H676 C669 0.961 . S
H677 C669 0.960 . S
H678 C670 0.930 . S
H679 C671 0.929 . S
C113 C75 1.489 . S
C132 C5 1.464 . S
C149 C101 1.489 . S
C168 C18 1.465 . S
C185 C34 1.472 . S
C204 C86 1.465 . S
C221 C39 1.483 . S
C240 C52 1.465 . S
C257 C83 1.478 . S
C276 C10 1.492 . S
C293 C21 1.471 . S
C312 C60 1.487 . S
C329 C65 1.481 . S
C348 C26 1.475 . S
C365 C49 1.483 . S
C384 C96 1.492 . S
C401 C62 1.488 . S
C420 C70 1.457 . S
C437 C23 1.487 . S
C456 C31 1.460 . S
C473 C44 1.474 . S
C492 C36 1.494 . S
C509 C47 1.473 . S
C528 C8 1.479 . S
C545 C13 1.476 . S
C564 C0 1.494 . S
C581 C91 1.480 . S
C600 C78 1.476 . S
C617 C57 1.475 . S
C636 C88 1.497 . S
C653 C73 1.471 . S
C672 C99 1.487 . S
