# Generated by pormake.
# Topology wfx, (7)-cn, num edge types: 1
# Building blocks:
#     Node 0, Type 0, BuildingBlock: HICVOG_clean_sbu_0, # of connection points: 7
#     Node 1, Type 0, BuildingBlock: HICVOG_clean_sbu_0, # of connection points: 7
#     Node 2, Type 0, BuildingBlock: HICVOG_clean_sbu_0, # of connection points: 7
#     Node 3, Type 0, BuildingBlock: HICVOG_clean_sbu_0, # of connection points: 7
#     Node 4, Type 0, BuildingBlock: HICVOG_clean_sbu_0, # of connection points: 7
#     Node 5, Type 0, BuildingBlock: HICVOG_clean_sbu_0, # of connection points: 7
#     Node 6, Type 0, BuildingBlock: HICVOG_clean_sbu_0, # of connection points: 7
#     Node 7, Type 0, BuildingBlock: HICVOG_clean_sbu_0, # of connection points: 7
#     Node 8, Type 0, BuildingBlock: HICVOG_clean_sbu_0, # of connection points: 7
#     Node 9, Type 0, BuildingBlock: HICVOG_clean_sbu_0, # of connection points: 7
#     Node 10, Type 0, BuildingBlock: HICVOG_clean_sbu_0, # of connection points: 7
#     Node 11, Type 0, BuildingBlock: HICVOG_clean_sbu_0, # of connection points: 7
#     Node 12, Type 0, BuildingBlock: HICVOG_clean_sbu_0, # of connection points: 7
#     Node 13, Type 0, BuildingBlock: HICVOG_clean_sbu_0, # of connection points: 7
#     Node 14, Type 0, BuildingBlock: HICVOG_clean_sbu_0, # of connection points: 7
#     Node 15, Type 0, BuildingBlock: HICVOG_clean_sbu_0, # of connection points: 7
#     Edge 16, Type (0, 0), BuildingBlock: XIVTED_clean_linker_0, # of connection points: 2
#     Edge 17, Type (0, 0), BuildingBlock: XIVTED_clean_linker_0, # of connection points: 2
#     Edge 18, Type (0, 0), BuildingBlock: XIVTED_clean_linker_0, # of connection points: 2
#     Edge 19, Type (0, 0), BuildingBlock: XIVTED_clean_linker_0, # of connection points: 2
#     Edge 20, Type (0, 0), BuildingBlock: XIVTED_clean_linker_0, # of connection points: 2
#     Edge 21, Type (0, 0), BuildingBlock: XIVTED_clean_linker_0, # of connection points: 2
#     Edge 22, Type (0, 0), BuildingBlock: XIVTED_clean_linker_0, # of connection points: 2
#     Edge 23, Type (0, 0), BuildingBlock: XIVTED_clean_linker_0, # of connection points: 2
#     Edge 24, Type (0, 0), BuildingBlock: XIVTED_clean_linker_0, # of connection points: 2
#     Edge 25, Type (0, 0), BuildingBlock: XIVTED_clean_linker_0, # of connection points: 2
#     Edge 26, Type (0, 0), BuildingBlock: XIVTED_clean_linker_0, # of connection points: 2
#     Edge 27, Type (0, 0), BuildingBlock: XIVTED_clean_linker_0, # of connection points: 2
#     Edge 28, Type (0, 0), BuildingBlock: XIVTED_clean_linker_0, # of connection points: 2
#     Edge 29, Type (0, 0), BuildingBlock: XIVTED_clean_linker_0, # of connection points: 2
#     Edge 30, Type (0, 0), BuildingBlock: XIVTED_clean_linker_0, # of connection points: 2
#     Edge 31, Type (0, 0), BuildingBlock: XIVTED_clean_linker_0, # of connection points: 2
#     Edge 32, Type (0, 0), BuildingBlock: XIVTED_clean_linker_0, # of connection points: 2
#     Edge 33, Type (0, 0), BuildingBlock: XIVTED_clean_linker_0, # of connection points: 2
#     Edge 34, Type (0, 0), BuildingBlock: XIVTED_clean_linker_0, # of connection points: 2
#     Edge 35, Type (0, 0), BuildingBlock: XIVTED_clean_linker_0, # of connection points: 2
#     Edge 36, Type (0, 0), BuildingBlock: XIVTED_clean_linker_0, # of connection points: 2
#     Edge 37, Type (0, 0), BuildingBlock: XIVTED_clean_linker_0, # of connection points: 2
#     Edge 38, Type (0, 0), BuildingBlock: XIVTED_clean_linker_0, # of connection points: 2
#     Edge 39, Type (0, 0), BuildingBlock: XIVTED_clean_linker_0, # of connection points: 2
#     Edge 40, Type (0, 0), BuildingBlock: XIVTED_clean_linker_0, # of connection points: 2
#     Edge 41, Type (0, 0), BuildingBlock: XIVTED_clean_linker_0, # of connection points: 2
#     Edge 42, Type (0, 0), BuildingBlock: XIVTED_clean_linker_0, # of connection points: 2
#     Edge 43, Type (0, 0), BuildingBlock: XIVTED_clean_linker_0, # of connection points: 2
#     Edge 44, Type (0, 0), BuildingBlock: XIVTED_clean_linker_0, # of connection points: 2
#     Edge 45, Type (0, 0), BuildingBlock: XIVTED_clean_linker_0, # of connection points: 2
#     Edge 46, Type (0, 0), BuildingBlock: XIVTED_clean_linker_0, # of connection points: 2
#     Edge 47, Type (0, 0), BuildingBlock: XIVTED_clean_linker_0, # of connection points: 2
#     Edge 48, Type (0, 0), BuildingBlock: XIVTED_clean_linker_0, # of connection points: 2
#     Edge 49, Type (0, 0), BuildingBlock: XIVTED_clean_linker_0, # of connection points: 2
#     Edge 50, Type (0, 0), BuildingBlock: XIVTED_clean_linker_0, # of connection points: 2
#     Edge 51, Type (0, 0), BuildingBlock: XIVTED_clean_linker_0, # of connection points: 2
#     Edge 52, Type (0, 0), BuildingBlock: XIVTED_clean_linker_0, # of connection points: 2
#     Edge 53, Type (0, 0), BuildingBlock: XIVTED_clean_linker_0, # of connection points: 2
#     Edge 54, Type (0, 0), BuildingBlock: XIVTED_clean_linker_0, # of connection points: 2
#     Edge 55, Type (0, 0), BuildingBlock: XIVTED_clean_linker_0, # of connection points: 2
#     Edge 56, Type (0, 0), BuildingBlock: XIVTED_clean_linker_0, # of connection points: 2
#     Edge 57, Type (0, 0), BuildingBlock: XIVTED_clean_linker_0, # of connection points: 2
#     Edge 58, Type (0, 0), BuildingBlock: XIVTED_clean_linker_0, # of connection points: 2
#     Edge 59, Type (0, 0), BuildingBlock: XIVTED_clean_linker_0, # of connection points: 2
#     Edge 60, Type (0, 0), BuildingBlock: XIVTED_clean_linker_0, # of connection points: 2
#     Edge 61, Type (0, 0), BuildingBlock: XIVTED_clean_linker_0, # of connection points: 2
#     Edge 62, Type (0, 0), BuildingBlock: XIVTED_clean_linker_0, # of connection points: 2
#     Edge 63, Type (0, 0), BuildingBlock: XIVTED_clean_linker_0, # of connection points: 2
#     Edge 64, Type (0, 0), BuildingBlock: XIVTED_clean_linker_0, # of connection points: 2
#     Edge 65, Type (0, 0), BuildingBlock: XIVTED_clean_linker_0, # of connection points: 2
#     Edge 66, Type (0, 0), BuildingBlock: XIVTED_clean_linker_0, # of connection points: 2
#     Edge 67, Type (0, 0), BuildingBlock: XIVTED_clean_linker_0, # of connection points: 2
#     Edge 68, Type (0, 0), BuildingBlock: XIVTED_clean_linker_0, # of connection points: 2
#     Edge 69, Type (0, 0), BuildingBlock: XIVTED_clean_linker_0, # of connection points: 2
#     Edge 70, Type (0, 0), BuildingBlock: XIVTED_clean_linker_0, # of connection points: 2
#     Edge 71, Type (0, 0), BuildingBlock: XIVTED_clean_linker_0, # of connection points: 2
# Relax obj value: 0.369
# Max RMSD: 0.263
# Mean RMSD: 0.263
data_MOF--net-wfx--node1-HICVOG_clean_sbu_0--edge1-XIVTED_clean_linker_0
_symmetry_space_group_name_H-M    P1
_symmetry_Int_Tables_number       1
_symmetry_cell_setting            triclinic
loop_
_symmetry_equiv_pos_as_xyz
'x, y, z'
_cell_length_a     33.405622
_cell_length_b     33.470641
_cell_length_c     65.24802
_cell_angle_alpha  90.021862
_cell_angle_beta   89.973563
_cell_angle_gamma 89.750092
loop_
_atom_site_label
_atom_site_type_symbol
_atom_site_fract_x
_atom_site_fract_y
_atom_site_fract_z
_atom_type_partial_charge
Zn0 Zn 0.64481 0.08558 0.07243 0.0
C1 C 0.60127 0.99861 0.10748 0.0
N2 N 0.57503 0.99465 0.09191 0.0
C3 C 0.58355 0.0254 0.0796 0.0
N4 N 0.61422 0.04735 0.08732 0.0
N5 N 0.62552 0.03108 0.10498 0.0
C6 C 0.72385 0.99658 0.12323 0.0
O7 O 0.70385 0.98768 0.10661 0.0
O8 O 0.60776 0.10713 0.05123 0.0
Zn9 Zn 0.66137 0.05925 0.12585 0.0
N10 N 0.69025 0.05615 0.06278 0.0
C11 C 0.7525 0.02824 0.07319 0.0
C12 C 0.71948 0.05229 0.07711 0.0
C13 C 0.6929 0.03748 0.04433 0.0
N14 N 0.75539 1.00971 0.05484 0.0
C15 C 0.72675 1.01365 0.0401 0.0
O16 O 0.68583 0.11637 0.11837 0.0
C17 C 0.68524 0.14209 0.10378 0.0
O18 O 0.66782 0.13387 0.08697 0.0
H19 H 0.71643 0.06667 0.09181 0.0
H20 H 0.66916 0.04142 0.03326 0.0
C21 C 0.63473 0.07549 0.16921 0.0
C22 C 0.60492 0.08862 0.18321 0.0
C23 C 0.55814 0.09196 0.15583 0.0
C24 C 0.58756 0.07989 0.14213 0.0
N25 N 0.62519 0.07152 0.14889 0.0
N26 N 0.56751 0.0962 0.17587 0.0
H27 H 0.66512 0.06993 0.1742 0.0
C28 C 0.57873 0.12536 0.05984 0.0
O29 O 0.57848 0.12882 0.0799 0.0
O30 O 0.71069 0.02478 0.13457 0.0
H31 H 0.5805 0.07815 0.12601 0.0
H32 H 0.77575 0.0244 0.08456 0.0
H33 H 0.52816 0.09862 0.15054 0.0
Zn34 Zn 0.44883 0.64328 0.0783 0.0
C35 C 0.54012 0.5975 0.1104 0.0
N36 N 0.54437 0.57356 0.09393 0.0
C37 C 0.51343 0.58385 0.08201 0.0
N38 N 0.4909 0.61306 0.09097 0.0
N39 N 0.50732 0.62173 0.10897 0.0
C40 C 0.53836 0.72022 0.12692 0.0
O41 O 0.54409 0.70312 0.10905 0.0
O42 O 0.4273 0.60775 0.05664 0.0
Zn43 Zn 0.48063 0.65481 0.13113 0.0
N44 N 0.47371 0.69148 0.06881 0.0
C45 C 0.4966 0.75584 0.07865 0.0
C46 C 0.47514 0.72142 0.08286 0.0
C47 C 0.49219 0.6949 0.05034 0.0
N48 N 0.51526 0.75926 0.06035 0.0
C49 C 0.5137 0.7299 0.0459 0.0
O50 O 0.42355 0.67942 0.12521 0.0
C51 C 0.39518 0.67852 0.11202 0.0
O52 O 0.40011 0.66125 0.09483 0.0
H53 H 0.46115 0.71799 0.09761 0.0
H54 H 0.49016 0.67068 0.03945 0.0
C55 C 0.46548 0.62683 0.17407 0.0
C56 C 0.45445 0.59642 0.18808 0.0
C57 C 0.45664 0.54904 0.16099 0.0
C58 C 0.46652 0.57902 0.14723 0.0
N59 N 0.47117 0.61728 0.15385 0.0
N60 N 0.45064 0.55843 0.18092 0.0
H61 H 0.46798 0.65761 0.17894 0.0
C62 C 0.40986 0.57793 0.06474 0.0
O63 O 0.40723 0.5757 0.0848 0.0
O64 O 0.51449 0.7038 0.1396 0.0
H65 H 0.4694 0.57176 0.13118 0.0
H66 H 0.49862 0.7796 0.08985 0.0
H67 H 0.45296 0.51857 0.15581 0.0
Zn68 Zn 0.88021 0.47799 0.12563 0.0
C69 C 0.95068 0.51158 0.07713 0.0
N70 N 0.96804 0.53582 0.09084 0.0
C71 C 0.94455 0.53286 0.10756 0.0
N72 N 0.91446 0.50618 0.10458 0.0
N73 N 0.91733 0.49414 0.08526 0.0
C74 C 0.90833 0.43923 0.04186 0.0
O75 O 0.92268 0.42275 0.05862 0.0
O76 O 0.82842 0.50839 0.13217 0.0
Zn77 Zn 0.86923 0.4723 0.07312 0.0
N78 N 0.91551 0.46687 0.14911 0.0
C79 C 0.98237 0.44641 0.15652 0.0
C80 C 0.95337 0.4586 0.14263 0.0
C81 C 0.90524 0.46242 0.16932 0.0
N82 N 0.97227 0.4416 0.17643 0.0
C83 C 0.93457 0.44888 0.18346 0.0
O84 O 0.84991 0.41844 0.08417 0.0
C85 C 0.84624 0.40229 0.10176 0.0
O86 O 0.85767 0.4211 0.11781 0.0
H87 H 0.96086 0.46023 0.12657 0.0
H88 H 0.87464 0.46763 0.17409 0.0
C89 C 0.78886 0.49859 0.07799 0.0
C90 C 0.7578 0.52583 0.08234 0.0
C91 C 0.80615 0.57651 0.08765 0.0
C92 C 0.83664 0.54964 0.08263 0.0
N93 N 0.82738 0.51115 0.07806 0.0
N94 N 0.76748 0.56422 0.08707 0.0
H95 H 0.78276 0.46803 0.07364 0.0
C96 C 0.81793 0.53943 0.14214 0.0
O97 O 0.84504 0.56086 0.15162 0.0
O98 O 0.87981 0.46418 0.04338 0.0
H99 H 0.86742 0.55938 0.08241 0.0
H100 H 1.01253 0.43986 0.15145 0.0
H101 H 0.81308 0.60715 0.0915 0.0
Zn102 Zn 0.06072 0.87851 0.12683 0.0
C103 C 0.0296 0.94154 0.0749 0.0
N104 N 0.99207 0.93649 0.08164 0.0
C105 C 0.99697 0.91583 0.09917 0.0
N106 N 0.03617 0.90765 0.10306 0.0
N107 N 0.0567 0.92503 0.08804 0.0
C108 C 0.16644 0.98402 0.10719 0.0
O109 O 0.17322 0.95333 0.11926 0.0
O110 O 0.0244 0.83213 0.13652 0.0
Zn111 Zn 0.11482 0.92981 0.08664 0.0
N112 N 0.0718 0.91854 0.1482 0.0
C113 C 0.08535 0.98754 0.15369 0.0
C114 C 0.07479 0.95637 0.14076 0.0
C115 C 0.07917 0.9107 0.16845 0.0
N116 N 0.09283 0.97985 0.17369 0.0
C117 C 0.09019 0.94241 0.18171 0.0
O118 O 0.14904 0.88475 0.09903 0.0
C119 C 0.14653 0.85487 0.111 0.0
O120 O 0.11443 0.84844 0.12109 0.0
H121 H 0.06977 0.9624 0.12473 0.0
H122 H 0.0776 0.88026 0.17393 0.0
C123 C 0.12083 0.88733 0.05215 0.0
C124 C 0.12762 0.87698 0.03178 0.0
C125 C 0.14558 0.94412 0.02471 0.0
C126 C 0.13942 0.95404 0.04531 0.0
N127 N 0.12691 0.92516 0.05842 0.0
N128 N 0.13946 0.90583 0.01838 0.0
H129 H 0.10971 0.86584 0.06313 0.0
C130 C 1.00664 0.81079 0.12311 0.0
O131 O 1.00875 0.82146 0.10377 0.0
O132 O 0.1359 0.9832 0.09557 0.0
H133 H 0.14395 0.98425 0.0507 0.0
H134 H 0.08797 1.01765 0.14784 0.0
H135 H 0.15506 0.9666 0.01386 0.0
Zn136 Zn 0.16406 0.98528 0.39141 0.0
C137 C 0.09432 1.01461 0.44143 0.0
N138 N 0.07479 0.03748 0.42792 0.0
C139 C 0.09755 0.03582 0.41093 0.0
N140 N 0.12999 1.01129 0.4136 0.0
N141 N 0.12844 0.99924 0.43308 0.0
C142 C 0.13261 0.91233 0.46472 0.0
O143 O 0.11258 0.91682 0.44753 0.0
O144 O 0.21198 0.02029 0.38238 0.0
Zn145 Zn 0.17165 0.97075 0.44668 0.0
N146 N 0.12674 0.97305 0.36893 0.0
C147 C 0.06058 0.94961 0.36283 0.0
C148 C 0.09012 0.96246 0.3762 0.0
C149 C 0.13535 0.97005 0.34845 0.0
N150 N 0.06904 0.94635 0.34263 0.0
C151 C 0.10558 0.95577 0.33481 0.0
O152 O 0.19596 0.92429 0.4312 0.0
C153 C 0.20142 0.90935 0.41354 0.0
O154 O 0.18984 0.92853 0.39763 0.0
H155 H 0.08412 0.96284 0.39245 0.0
H156 H 0.16516 0.97697 0.34307 0.0
C157 C 0.21657 0.02205 0.473 0.0
C158 C 0.24772 0.04865 0.4779 0.0
C159 C 0.2717 0.04284 0.44364 0.0
C160 C 0.24144 1.01576 0.4392 0.0
N161 N 0.21388 1.00696 0.45374 0.0
N162 N 0.2742 0.05839 0.4628 0.0
H163 H 0.19548 1.01176 0.48427 0.0
C164 C 0.22449 0.05168 0.39142 0.0
O165 O 0.2041 0.06592 0.40705 0.0
O166 O 0.15258 0.94183 0.47129 0.0
H167 H 0.23975 1.00172 0.42431 0.0
H168 H 0.03135 0.94131 0.36852 0.0
H169 H 0.29361 0.05073 0.43214 0.0
Zn170 Zn 0.56307 0.15884 0.39225 0.0
C171 C 0.52089 0.08938 0.44014 0.0
N172 N 0.48723 0.08921 0.42903 0.0
C173 C 0.49633 0.11251 0.4129 0.0
N174 N 0.53405 0.12744 0.41396 0.0
N175 N 0.54929 0.1128 0.43125 0.0
C176 C 0.66219 0.06733 0.43075 0.0
O177 O 0.67212 0.09264 0.41625 0.0
O178 O 0.52802 0.20601 0.38254 0.0
Zn179 Zn 0.60039 0.12518 0.44328 0.0
N180 N 0.57642 0.12064 0.3704 0.0
C181 C 0.59559 0.05297 0.36461 0.0
C182 C 0.58331 0.08325 0.37777 0.0
C183 C 0.58177 0.12906 0.35005 0.0
N184 N 0.60108 0.06121 0.3445 0.0
C185 C 0.59472 0.09832 0.33657 0.0
O186 O 0.63504 0.16832 0.43107 0.0
C187 C 0.64092 0.18898 0.41504 0.0
O188 O 0.61691 0.18669 0.39987 0.0
H189 H 0.58001 0.07707 0.39393 0.0
H190 H 0.57718 0.15928 0.34465 0.0
C191 C 0.62293 0.14386 0.48402 0.0
C192 C 0.61683 0.15653 0.50428 0.0
C193 C 0.54673 0.15813 0.49836 0.0
C194 C 0.55334 0.14943 0.47782 0.0
N195 N 0.59098 0.1404 0.4713 0.0
N196 N 0.57859 0.1622 0.51099 0.0
H197 H 0.65279 0.13909 0.47801 0.0
C198 C 0.51056 0.22637 0.39647 0.0
O199 O 0.51345 0.21433 0.41558 0.0
O200 O 0.63394 0.07587 0.44303 0.0
H201 H 0.52855 0.1499 0.46724 0.0
H202 H 0.6012 0.02317 0.37037 0.0
H203 H 0.51677 0.16383 0.50398 0.0
Zn204 Zn 0.37225 0.5781 0.45138 0.0
C205 C 0.43166 0.49888 0.41772 0.0
N206 N 0.45383 0.49404 0.43475 0.0
C207 C 0.44168 0.52387 0.447 0.0
N208 N 0.41228 0.54587 0.43789 0.0
N209 N 0.40638 0.53083 0.41924 0.0
C210 C 0.31316 0.49592 0.39698 0.0
O211 O 0.32779 0.49088 0.41543 0.0
O212 O 0.39428 0.61117 0.47375 0.0
Zn213 Zn 0.37522 0.55742 0.39606 0.0
N214 N 0.33152 0.54339 0.46155 0.0
C215 C 0.26916 0.51121 0.45644 0.0
C216 C 0.29855 0.53754 0.44981 0.0
C217 C 0.33592 0.52521 0.48002 0.0
N218 N 0.27295 0.49376 0.4751 0.0
C219 C 0.30527 0.50036 0.48738 0.0
O220 O 0.34812 0.614 0.40112 0.0
C221 C 0.33778 0.63452 0.41681 0.0
O222 O 0.34552 0.62153 0.43464 0.0
H223 H 0.29555 0.55273 0.43526 0.0
H224 H 0.36267 0.5309 0.48885 0.0
C225 C 0.40723 0.57365 0.35426 0.0
C226 C 0.43856 0.58531 0.3409 0.0
C227 C 0.48364 0.58452 0.36906 0.0
C228 C 0.45272 0.57381 0.38215 0.0
N229 N 0.41517 0.5682 0.37465 0.0
N230 N 0.47584 0.59017 0.34892 0.0
H231 H 0.3769 0.57033 0.34875 0.0
C232 C 0.41045 0.64105 0.46516 0.0
O233 O 0.426 0.636 0.44681 0.0
O234 O 0.32956 0.52156 0.38528 0.0
H235 H 0.45858 0.57092 0.39835 0.0
H236 H 0.24307 0.50547 0.4471 0.0
H237 H 0.51358 0.58901 0.37492 0.0
Zn238 Zn 0.94052 0.41276 0.44244 0.0
C239 C 0.0473 0.41836 0.41344 0.0
N240 N 0.05712 0.4414 0.42951 0.0
C241 C 0.02325 0.44332 0.4404 0.0
N242 N 0.99371 0.42139 0.4314 0.0
N243 N 1.00873 0.40564 0.41425 0.0
C244 C 0.03942 0.31209 0.37421 0.0
O245 O 0.06219 0.3381 0.36473 0.0
O246 O 0.90827 0.46327 0.44043 0.0
Zn247 Zn 0.97907 0.37618 0.39202 0.0
N248 N 0.94507 0.39839 0.471 0.0
C249 C 0.98315 0.38241 0.50067 0.0
C250 C 0.98121 0.39119 0.4799 0.0
C251 C 0.91049 0.39251 0.48153 0.0
N252 N 0.94871 0.37591 0.51107 0.0
C253 C 0.91222 0.37932 0.50192 0.0
O254 O 0.92273 0.35266 0.39875 0.0
C255 C 0.89855 0.35067 0.41386 0.0
O256 O 0.90515 0.37038 0.43013 0.0
H257 H 1.00832 0.39138 0.47098 0.0
H258 H 0.88214 0.39543 0.47362 0.0
C259 C 0.9622 0.40533 0.34947 0.0
C260 C 0.95312 0.43671 0.33559 0.0
C261 C 0.96328 0.48376 0.36235 0.0
C262 C 0.9715 0.45294 0.37595 0.0
N263 N 0.9711 0.41434 0.36942 0.0
N264 N 0.95417 0.47495 0.34266 0.0
H265 H 0.96088 0.3744 0.34471 0.0
C266 C 0.8806 0.47058 0.42759 0.0
O267 O 0.87224 0.44421 0.41332 0.0
O268 O 1.00901 0.32421 0.38433 0.0
H269 H 0.97735 0.45993 0.39181 0.0
H270 H 1.01173 0.37813 0.50816 0.0
H271 H 0.96353 0.51451 0.36745 0.0
Zn272 Zn 0.38172 0.95241 0.94723 0.0
C273 C 0.42927 0.04034 0.91357 0.0
N274 N 0.45101 0.04582 0.93074 0.0
C275 C 0.43959 1.01562 0.94279 0.0
N276 N 0.41156 0.99274 0.93339 0.0
N277 N 0.40516 1.00758 0.91476 0.0
C278 C 0.31088 0.04044 0.89325 0.0
O279 O 0.32492 0.04552 0.91184 0.0
O280 O 0.42212 0.9215 0.96291 0.0
Zn281 Zn 0.37453 0.98026 0.89181 0.0
N282 N 0.34185 0.98038 0.9629 0.0
C283 C 0.28087 1.01645 0.95927 0.0
C284 C 0.31065 0.99229 0.95102 0.0
C285 C 0.34418 0.99076 0.98304 0.0
N286 N 0.28306 0.02704 0.97926 0.0
C287 C 0.3137 1.01483 0.99158 0.0
O288 O 0.34647 0.92461 0.89754 0.0
C289 C 0.33922 0.90179 0.91284 0.0
O290 O 0.35157 0.91118 0.93061 0.0
H291 H 0.30946 0.9835 0.93509 0.0
H292 H 0.36957 0.98096 0.99203 0.0
C293 C 0.40654 0.96469 0.84959 0.0
C294 C 0.43812 0.95333 0.83622 0.0
C295 C 0.48272 0.9526 0.86461 0.0
C296 C 0.45158 0.96306 0.87768 0.0
N297 N 0.41414 0.96916 0.87011 0.0
N298 N 0.47525 0.94782 0.84437 0.0
H299 H 0.37634 0.96864 0.84395 0.0
C300 C 0.44534 0.90288 0.95067 0.0
O301 O 0.43949 0.90587 0.93082 0.0
O302 O 0.32842 1.01568 0.88139 0.0
H303 H 0.4572 0.96556 0.89393 0.0
H304 H 0.25611 0.02662 0.94991 0.0
H305 H 0.51258 0.94771 0.87053 0.0
Zn306 Zn 0.56189 0.37966 0.89382 0.0
C307 C 0.52265 0.44432 0.94395 0.0
N308 N 0.49435 0.45784 0.93114 0.0
C309 C 0.49967 0.43571 0.9141 0.0
N310 N 0.53108 0.40977 0.91606 0.0
N311 N 0.5446 0.41453 0.93506 0.0
C312 C 0.60691 0.42184 0.97876 0.0
O313 O 0.61942 0.44102 0.9624 0.0
O314 O 0.53169 0.32923 0.88358 0.0
Zn315 Zn 0.57929 0.37469 0.94711 0.0
N316 N 0.5705 0.41863 0.87149 0.0
C317 C 0.58242 0.48773 0.86532 0.0
C318 C 0.57322 0.45672 0.87861 0.0
C319 C 0.57754 0.41029 0.85122 0.0
N320 N 0.58976 0.47955 0.84536 0.0
C321 C 0.58793 0.44179 0.83767 0.0
O322 O 0.63392 0.36751 0.93419 0.0
C323 C 0.64565 0.35824 0.91623 0.0
O324 O 0.62122 0.36015 0.90104 0.0
H325 H 0.56934 0.46303 0.89471 0.0
H326 H 0.57663 0.37966 0.84594 0.0
C327 C 0.52279 0.31439 0.95844 0.0
C328 C 0.50512 0.27622 0.95765 0.0
C329 C 0.54671 0.25995 0.92925 0.0
C330 C 0.5653 0.29682 0.93082 0.0
N331 N 0.55283 0.3235 0.94521 0.0
N332 N 0.51754 0.25045 0.94275 0.0
H333 H 0.51411 0.33642 0.9697 0.0
C334 C 0.50279 0.31387 0.8936 0.0
O335 O 0.4908 0.33171 0.91041 0.0
O336 O 0.58819 0.38925 0.97647 0.0
H337 H 0.58904 0.30401 0.92038 0.0
H338 H 0.58457 0.51808 0.87091 0.0
H339 H 0.55589 0.23867 0.91766 0.0
Zn340 Zn 0.15862 0.57743 0.94188 0.0
C341 C 0.09754 0.49952 0.90873 0.0
N342 N 0.07447 0.49527 0.92553 0.0
C343 C 0.08836 0.52318 0.93839 0.0
N344 N 0.11926 0.5436 0.92971 0.0
N345 N 0.1245 0.52969 0.91083 0.0
C346 C 0.22016 0.49551 0.88874 0.0
O347 O 0.19911 0.48124 0.90402 0.0
O348 O 0.13969 0.59495 0.96915 0.0
Zn349 Zn 0.15668 0.55822 0.88867 0.0
N350 N 0.20852 0.5484 0.94295 0.0
C351 C 0.27154 0.53545 0.92736 0.0
C352 C 0.23478 0.55489 0.92741 0.0
C353 C 0.21762 0.52324 0.95862 0.0
N354 N 0.28103 0.51105 0.94315 0.0
C355 C 0.25546 0.50439 0.95905 0.0
O356 O 0.17771 0.61707 0.89467 0.0
C357 C 0.18065 0.64124 0.90984 0.0
O358 O 0.17107 0.62977 0.92775 0.0
H359 H 0.22721 0.57469 0.91502 0.0
H360 H 0.19591 0.51926 0.97068 0.0
C361 C 0.12831 0.572 0.84587 0.0
C362 C 0.09783 0.58289 0.83182 0.0
C363 C 0.05036 0.58151 0.85892 0.0
C364 C 0.08048 0.57195 0.87274 0.0
N365 N 0.11877 0.5668 0.86609 0.0
N366 N 0.05974 0.58699 0.83896 0.0
H367 H 0.15919 0.56938 0.84102 0.0
C368 C 0.10799 0.61582 0.96757 0.0
O369 O 0.09003 0.6178 0.94967 0.0
O370 O 0.20726 0.52655 0.8795 0.0
H371 H 0.07338 0.56966 0.88883 0.0
H372 H 0.2928 0.5404 0.91514 0.0
H373 H 1.01983 0.58547 0.86409 0.0
Zn374 Zn 0.98011 0.15937 0.89097 0.0
C375 C 1.01325 0.08314 0.93765 0.0
N376 N 0.0398 0.07052 0.92362 0.0
C377 C 0.03534 0.09654 0.90804 0.0
N378 N 1.00647 0.12412 0.91197 0.0
N379 N 0.99316 0.11604 0.93066 0.0
C380 C 0.90729 0.09591 0.95169 0.0
O381 O 0.90929 0.10251 0.93187 0.0
O382 O 1.01824 0.20449 0.88247 0.0
Zn383 Zn 0.96113 0.1525 0.946 0.0
N384 N 0.96451 0.12259 0.86904 0.0
C385 C 0.93848 0.05723 0.86384 0.0
C386 C 0.95322 0.08659 0.87675 0.0
C387 C 0.96064 0.13072 0.84859 0.0
N388 N 0.93451 0.06517 0.84363 0.0
C389 C 0.94482 0.10106 0.8354 0.0
O390 O 0.91779 0.18569 0.93173 0.0
C391 C 0.90627 0.19773 0.91422 0.0
O392 O 0.92653 0.18881 0.89827 0.0
H393 H 0.95472 0.0809 0.89302 0.0
H394 H 0.96839 0.16004 0.84292 0.0
C395 C 0.98864 0.22895 0.95636 0.0
C396 C 1.01802 0.25889 0.95744 0.0
C397 C 0.06798 0.20858 0.96053 0.0
C398 C 0.03887 0.1792 0.95865 0.0
N399 N 0.99966 0.18992 0.9568 0.0
N400 N 0.05696 0.24757 0.95978 0.0
H401 H 0.95731 0.23605 0.95459 0.0
C402 C 1.00434 0.23505 0.87314 0.0
O403 O 0.96701 0.2344 0.86684 0.0
O404 O 0.92852 0.1169 0.96384 0.0
H405 H 0.04799 0.14834 0.95759 0.0
H406 H 0.92956 0.02851 0.86987 0.0
H407 H 0.09924 0.2005 0.96197 0.0
Zn408 Zn 0.87841 0.057 0.626 0.0
C409 C 0.9518 0.02908 0.57781 0.0
N410 N 0.9673 1.00276 0.59118 0.0
C411 C 0.94163 1.00394 0.60706 0.0
N412 N 0.91185 0.03098 0.60394 0.0
N413 N 0.91749 0.04572 0.58529 0.0
C414 C 0.90834 0.13063 0.55312 0.0
O415 O 0.92751 0.12788 0.57066 0.0
O416 O 0.82817 0.02442 0.63349 0.0
Zn417 Zn 0.87309 0.07016 0.57127 0.0
N418 N 0.91567 0.0676 0.6486 0.0
C419 C 0.98304 0.08696 0.6551 0.0
C420 C 0.95316 0.07563 0.64158 0.0
C421 C 0.90652 0.07208 0.66892 0.0
N422 N 0.97407 0.09158 0.67516 0.0
C423 C 0.93667 0.08497 0.68267 0.0
O424 O 0.84413 0.11569 0.58626 0.0
C425 C 0.84053 0.13146 0.60392 0.0
O426 O 0.85464 0.11362 0.61967 0.0
H427 H 0.95973 0.07455 0.62541 0.0
H428 H 0.87609 0.06743 0.67404 0.0
C429 C 0.82995 1.01878 0.54448 0.0
C430 C 0.80783 0.98451 0.53943 0.0
C431 C 0.802 0.9693 0.57485 0.0
C432 C 0.82428 1.0031 0.57968 0.0
N433 N 0.83762 0.02717 0.56442 0.0
N434 N 0.79415 0.96088 0.5549 0.0
H435 H 0.84081 0.039 0.53284 0.0
C436 C 0.82084 0.99085 0.6419 0.0
O437 O 0.85054 0.96885 0.64879 0.0
O438 O 0.89023 0.09993 0.54658 0.0
H439 H 0.83157 1.0098 0.59539 0.0
H440 H 1.01295 0.09314 0.64962 0.0
H441 H 0.79112 0.94985 0.58685 0.0
Zn442 Zn 0.481 0.88306 0.62721 0.0
C443 C 0.52533 0.94989 0.57865 0.0
N444 N 0.55904 0.9495 0.58971 0.0
C445 C 0.54945 0.92713 0.60611 0.0
N446 N 0.51115 0.91341 0.60531 0.0
N447 N 0.49624 0.92777 0.58785 0.0
C448 C 0.38149 0.97538 0.5895 0.0
O449 O 0.36937 0.94838 0.60269 0.0
O450 O 0.5156 0.8364 0.63791 0.0
Zn451 Zn 0.44378 0.91779 0.57649 0.0
N452 N 0.46711 0.92191 0.64869 0.0
C453 C 0.44678 0.98943 0.65383 0.0
C454 C 0.45955 0.95887 0.64095 0.0
C455 C 0.46214 0.91421 0.66915 0.0
N456 N 0.44155 0.98187 0.67404 0.0
C457 C 0.4487 0.9452 0.68234 0.0
O458 O 0.40913 0.87449 0.58841 0.0
C459 C 0.40317 0.85306 0.60415 0.0
O460 O 0.42716 0.85467 0.61938 0.0
H461 H 0.46273 0.96444 0.62472 0.0
H462 H 0.46737 0.88431 0.67487 0.0
C463 C 0.41641 0.90072 0.53645 0.0
C464 C 0.41959 0.88813 0.516 0.0
C465 C 0.49034 0.88615 0.51937 0.0
C466 C 0.4866 0.8944 0.54015 0.0
N467 N 0.45005 0.90375 0.54803 0.0
N468 N 0.45679 0.88243 0.50791 0.0
H469 H 0.38748 0.90547 0.54355 0.0
C470 C 0.53438 0.81565 0.62459 0.0
O471 O 0.53307 0.82691 0.60532 0.0
O472 O 0.41134 0.96799 0.57802 0.0
H473 H 0.51268 0.89303 0.54985 0.0
H474 H 0.44058 1.0189 0.64778 0.0
H475 H 0.5194 0.88027 0.51267 0.0
Zn476 Zn 0.66926 0.483 0.62877 0.0
C477 C 0.60099 0.51868 0.57863 0.0
N478 N 0.58925 0.54812 0.59119 0.0
C479 C 0.61202 0.54289 0.60799 0.0
N480 N 0.63726 0.51091 0.60605 0.0
N481 N 0.63074 0.49651 0.58731 0.0
C482 C 0.62959 0.40258 0.55955 0.0
O483 O 0.61533 0.40761 0.57816 0.0
O484 O 0.7168 0.5173 0.63886 0.0
Zn485 Zn 0.6698 0.46452 0.57302 0.0
N486 N 0.63026 0.47221 0.65089 0.0
C487 C 0.56177 0.45585 0.65651 0.0
C488 C 0.59265 0.46675 0.64344 0.0
C489 C 0.63826 0.46649 0.6713 0.0
N490 N 0.56965 0.44979 0.67661 0.0
C491 C 0.60693 0.45448 0.68464 0.0
O492 O 0.69642 0.42051 0.58908 0.0
C493 C 0.70466 0.40637 0.6066 0.0
O494 O 0.69511 0.42603 0.62272 0.0
H495 H 0.58669 0.46984 0.62727 0.0
H496 H 0.66857 0.46973 0.67687 0.0
C497 C 0.70803 0.51515 0.54371 0.0
C498 C 0.7398 0.53844 0.53618 0.0
C499 C 0.77401 0.52934 0.56783 0.0
C500 C 0.74361 0.5044 0.57463 0.0
N501 N 0.71101 0.4985 0.56263 0.0
N502 N 0.77166 0.54522 0.54875 0.0
H503 H 0.68159 0.50932 0.53467 0.0
C504 C 0.732 0.54382 0.62725 0.0
O505 O 0.71513 0.55072 0.60949 0.0
O506 O 0.64612 0.43217 0.55086 0.0
H507 H 0.74568 0.49002 0.58943 0.0
H508 H 0.53181 0.45148 0.65067 0.0
H509 H 0.79985 0.53509 0.57736 0.0
Zn510 Zn 0.06679 0.6608 0.62418 0.0
C511 C 0.02417 0.59204 0.5763 0.0
N512 N 0.9906 0.59229 0.58751 0.0
C513 C 0.99985 0.61573 0.60351 0.0
N514 N 0.03769 0.63032 0.60232 0.0
N515 N 0.05292 0.61539 0.58504 0.0
C516 C 0.16442 0.56917 0.59086 0.0
O517 O 0.17011 0.59551 0.60549 0.0
O518 O 0.03161 0.70702 0.63487 0.0
Zn519 Zn 0.10588 0.62598 0.57404 0.0
N520 N 0.0807 0.62149 0.64523 0.0
C521 C 0.10217 0.55421 0.64994 0.0
C522 C 0.08907 0.58487 0.63724 0.0
C523 C 0.0851 0.62874 0.66573 0.0
N524 N 0.10678 0.56132 0.67023 0.0
C525 C 0.09874 0.59764 0.67872 0.0
O526 O 0.14024 0.66979 0.5862 0.0
C527 C 0.14527 0.6911 0.6021 0.0
O528 O 0.12043 0.68927 0.61694 0.0
H529 H 0.08635 0.57965 0.62097 0.0
H530 H 0.07923 0.65841 0.67162 0.0
C531 C 0.13499 0.6469 0.53472 0.0
C532 C 0.1324 0.66017 0.51435 0.0
C533 C 0.06167 0.65422 0.5159 0.0
C534 C 0.06431 0.64555 0.53666 0.0
N535 N 0.10084 0.63967 0.54539 0.0
N536 N 0.09563 0.6621 0.50536 0.0
H537 H 0.16354 0.64501 0.54251 0.0
C538 C 1.01232 0.72773 0.62173 0.0
O539 O 1.01323 0.71664 0.60242 0.0
O540 O 0.13914 0.57638 0.57677 0.0
H541 H 0.0374 0.64448 0.54571 0.0
H542 H 0.10907 0.52503 0.6437 0.0
H543 H 0.03282 0.6574 0.50855 0.0
H544 H 0.50814 0.97629 0.95372 0.0
H545 H 0.50888 0.05438 0.07084 0.0
H546 H 0.41311 0.04773 0.97921 0.0
H547 H 0.6113 1.00021 0.04198 0.0
H548 H 0.47207 0.0497 0.03827 0.0
H549 H 0.54409 0.98039 0.98655 0.0
C550 C 0.49426 0.99187 0.96644 0.0
C551 C 0.45674 1.01038 0.96386 0.0
C552 C 0.50279 0.03934 0.03889 0.0
C553 C 0.49872 1.01674 1.00157 0.0
C554 C 0.52399 0.04239 0.05748 0.0
C555 C 0.56394 0.02929 0.05899 0.0
C556 C 0.52111 0.02191 0.02159 0.0
C557 C 0.58131 1.01243 0.04133 0.0
C558 C 0.51509 0.99471 0.98515 0.0
C559 C 0.44116 0.03169 0.98069 0.0
N560 N 0.55991 1.00919 0.02349 0.0
N561 N 0.46203 0.03419 0.99872 0.0
H562 H 0.48898 0.50797 0.07347 0.0
H563 H 0.5477 0.51879 0.95363 0.0
H564 H 0.53162 0.61435 0.04396 0.0
H565 H 0.50173 0.41222 0.98175 0.0
H566 H 0.54267 0.55351 0.98664 0.0
H567 H 0.49304 0.47231 0.04054 0.0
C568 C 0.49803 0.52421 0.0599 0.0
C569 C 0.508 0.56492 0.06136 0.0
C570 C 0.53412 0.52239 0.98578 0.0
C571 C 0.5145 0.52359 0.02346 0.0
C572 C 0.53747 0.50235 0.96693 0.0
C573 C 0.52665 0.46198 0.96498 0.0
C574 C 0.51922 0.50232 1.0031 0.0
C575 C 0.51185 0.44284 0.98263 0.0
C576 C 0.5008 0.50366 0.0411 0.0
C577 C 0.5214 0.58377 0.0434 0.0
N578 N 0.50874 0.46303 1.00088 0.0
N579 N 0.5242 0.56311 0.02532 0.0
H580 H 0.12339 0.51035 0.97642 0.0
H581 H 0.91709 0.5371 0.04035 0.0
H582 H 1.01144 0.54196 0.94808 0.0
H583 H 0.02434 0.4857 0.06576 0.0
H584 H 0.95115 0.54243 1.00686 0.0
H585 H 0.08894 0.5064 0.0098 0.0
C586 C 0.09183 0.51759 0.9773 0.0
C587 C 0.07065 0.52778 0.95944 0.0
C588 C 0.96712 0.52945 0.01968 0.0
C589 C 0.03027 0.52183 0.99765 0.0
C590 C 0.94737 0.52584 0.03875 0.0
C591 C 0.96713 0.50903 0.05573 0.0
C592 C 1.00752 0.51745 0.01762 0.0
C593 C 1.00737 0.49743 0.05296 0.0
C594 C 0.07192 0.51477 0.99634 0.0
C595 C 0.02923 0.53497 0.96149 0.0
N596 N 0.02606 0.50177 0.03445 0.0
N597 N 1.01056 0.532 0.98008 0.0
H598 H 0.0415 0.90961 0.03683 0.0
H599 H 0.99895 0.11622 0.97698 0.0
H600 H 0.02837 0.02223 0.06787 0.0
H601 H 0.0274 1.00524 0.9467 0.0
H602 H 1.00715 0.08285 0.01014 0.0
H603 H 0.037 0.94437 1.00379 0.0
C604 C 0.03925 0.9419 0.03669 0.0
C605 C 0.03737 0.96315 0.05523 0.0
C606 C 1.01139 0.06573 0.99623 0.0
C607 C 0.02914 1.00338 0.01718 0.0
C608 C 1.00623 0.08482 0.9771 0.0
C609 C 1.01201 0.06379 0.95862 0.0
C610 C 0.02252 0.02507 0.9971 0.0
C611 C 0.02237 0.023 0.96034 0.0
C612 C 0.03588 0.96178 0.01776 0.0
C613 C 0.03161 1.00479 0.05399 0.0
N614 N 0.02721 1.0052 0.97901 0.0
N615 N 0.0276 0.02343 0.03541 0.0
H616 H 0.12924 0.02886 0.47932 0.0
H617 H 0.91728 0.02225 0.53918 0.0
H618 H 1.01877 0.99328 0.45109 0.0
H619 H 0.02985 0.04214 0.56945 0.0
H620 H 0.95327 1.01585 0.50633 0.0
H621 H 0.09407 0.03474 0.51243 0.0
C622 C 0.09807 0.02068 0.48025 0.0
C623 C 0.07745 1.00912 0.4625 0.0
C624 C 0.9701 0.02221 0.52011 0.0
C625 C 0.03591 1.01831 0.50012 0.0
C626 C 0.94933 0.02661 0.53883 0.0
C627 C 0.97036 0.03382 0.55707 0.0
C628 C 1.01232 0.02481 0.51959 0.0
C629 C 1.0123 0.03728 0.55573 0.0
C630 C 0.07762 0.02491 0.49907 0.0
C631 C 0.03616 1.00145 0.46444 0.0
N632 N 0.03176 0.03277 0.53748 0.0
N633 N 1.01687 1.00632 0.48272 0.0
H634 H 0.46412 0.09123 0.46998 0.0
H635 H 0.58262 0.94921 0.54907 0.0
H636 H 0.57903 0.03903 0.45681 0.0
H637 H 0.46673 0.9997 0.5618 0.0
H638 H 0.58248 0.9826 0.51568 0.0
H639 H 0.46436 0.05804 0.50344 0.0
C640 C 0.48979 0.07315 0.47422 0.0
C641 C 0.52257 0.06951 0.46077 0.0
C642 C 0.55676 0.98609 0.52563 0.0
C643 C 0.52276 0.03049 0.49926 0.0
C644 C 0.55681 0.96704 0.54478 0.0
C645 C 0.5238 0.97022 0.55812 0.0
C646 C 0.52368 1.00941 0.51966 0.0
C647 C 0.49164 0.99433 0.55173 0.0
C648 C 0.48989 0.0542 0.4934 0.0
C649 C 0.5545 0.045 0.46704 0.0
N650 N 0.49234 1.01286 0.53304 0.0
N651 N 0.55385 0.02656 0.48576 0.0
H652 H 0.56109 0.45571 0.56058 0.0
H653 H 0.48007 0.58758 0.46536 0.0
H654 H 0.59689 0.57713 0.54971 0.0
H655 H 0.44545 0.46572 0.47602 0.0
H656 H 0.52099 0.58542 0.49669 0.0
H657 H 0.51991 0.45813 0.52938 0.0
C658 C 0.56173 0.48229 0.55118 0.0
C659 C 0.58401 0.51564 0.55742 0.0
C660 C 0.50385 0.55933 0.49243 0.0
C661 C 0.53449 0.51977 0.52213 0.0
C662 C 0.47966 0.56093 0.47472 0.0
C663 C 0.45791 0.52731 0.46835 0.0
C664 C 0.50698 0.52359 0.50381 0.0
C665 C 0.46087 0.4927 0.48056 0.0
C666 C 0.53736 0.48407 0.53356 0.0
C667 C 0.58114 0.5503 0.54524 0.0
N668 N 0.48482 0.4917 0.49753 0.0
N669 N 0.55698 0.55149 0.52834 0.0
H670 H 0.96405 0.58641 0.54859 0.0
H671 H 0.0827 0.4469 0.46864 0.0
H672 H 0.08534 0.54692 0.55801 0.0
H673 H 0.96365 0.49148 0.45791 0.0
H674 H 0.08414 0.48269 0.5013 0.0
H675 H 0.96289 0.55093 0.51586 0.0
C676 C 0.99071 0.57046 0.54375 0.0
C677 C 0.02535 0.57068 0.55605 0.0
C678 C 0.05744 0.48443 0.49194 0.0
C679 C 0.02403 0.52922 0.51827 0.0
C680 C 0.05655 0.46399 0.4732 0.0
C681 C 0.02233 0.46498 0.46058 0.0
C682 C 0.024 0.50677 0.49828 0.0
C683 C 0.98973 0.48805 0.46736 0.0
C684 C 0.98999 0.55022 0.52496 0.0
C685 C 0.05868 0.54912 0.54888 0.0
N686 N 0.99131 0.50789 0.48567 0.0
N687 N 0.05721 0.52933 0.53054 0.0
H688 H 0.65265 0.93911 0.09921 0.0
H689 H 0.51384 0.77901 0.15411 0.0
H690 H 0.55983 0.97365 0.14135 0.0
H691 H 0.60286 0.75337 0.10802 0.0
H692 H 0.53835 0.84827 0.15583 0.0
H693 H 0.64575 0.87039 0.10981 0.0
C694 C 0.63308 0.93284 0.112 0.0
C695 C 0.60891 0.96307 0.12042 0.0
C696 C 0.5529 0.82726 0.14561 0.0
C697 C 0.59664 0.88232 0.13081 0.0
C698 C 0.53903 0.78765 0.14467 0.0
C699 C 0.55612 0.76031 0.13079 0.0
C700 C 0.58432 0.83947 0.13269 0.0
C701 C 0.58847 0.77336 0.11883 0.0
C702 C 0.62781 0.89292 0.11747 0.0
C703 C 0.58029 0.95163 0.13509 0.0
N704 N 0.60124 0.81181 0.11998 0.0
N705 N 0.57443 0.91215 0.13956 0.0
H706 H 0.78493 0.6137 0.14922 0.0
H707 H 0.55997 0.53629 0.13528 0.0
H708 H 0.75285 0.49162 0.13617 0.0
H709 H 0.59585 0.65505 0.11843 0.0
H710 H 0.62807 0.52308 0.14752 0.0
H711 H 0.71348 0.63207 0.14824 0.0
C712 C 0.76289 0.5907 0.14643 0.0
C713 C 0.77493 0.55107 0.14274 0.0
C714 C 0.62057 0.55261 0.14188 0.0
C715 C 0.69331 0.57173 0.14205 0.0
C716 C 0.58147 0.56044 0.13528 0.0
C717 C 0.57159 0.59731 0.12633 0.0
C718 C 0.65015 0.58192 0.13955 0.0
C719 C 0.60125 0.62695 0.12597 0.0
C720 C 0.7222 0.60122 0.14586 0.0
C721 C 0.74503 0.52255 0.13903 0.0
N722 N 0.6393 0.61849 0.1322 0.0
N723 N 0.70573 0.5334 0.13883 0.0
H724 H 0.94068 0.77716 0.1059 0.0
H725 H 0.88217 0.58259 0.11683 0.0
H726 H 0.03209 0.75425 0.15098 0.0
H727 H 1.0074 0.56353 0.12887 0.0
H728 H 0.88972 0.65287 0.12635 0.0
H729 H 0.91764 0.70832 0.10948 0.0
C730 C 0.95527 0.75784 0.11696 0.0
C731 C 0.98817 0.77163 0.12826 0.0
C732 C 0.91543 0.63317 0.12738 0.0
C733 C 0.9622 0.69206 0.13233 0.0
C734 C 0.91084 0.59265 0.12245 0.0
C735 C 0.9441 0.5669 0.12215 0.0
C736 C 0.9537 0.6482 0.13196 0.0
C737 C 0.98086 0.58223 0.12904 0.0
C738 C 0.94193 0.71847 0.11911 0.0
C739 C 1.00629 0.74503 0.14216 0.0
N740 N 0.98485 0.62191 0.13335 0.0
N741 N 0.99369 0.7063 0.14345 0.0
H742 H 0.78732 0.02183 0.14729 0.0
H743 H 0.93587 0.86354 0.09539 0.0
H744 H 0.7513 0.92685 0.10671 0.0
H745 H 0.97713 0.96192 0.13204 0.0
H746 H 0.86741 0.87712 0.10664 0.0
H747 H 0.85531 0.99315 0.14811 0.0
C748 C 0.79343 0.99456 0.13888 0.0
C749 C 0.76349 0.97697 0.12677 0.0
C750 C 0.89143 0.89511 0.1128 0.0
C751 C 0.84133 0.94396 0.12762 0.0
C752 C 0.93076 0.88673 0.1067 0.0
C753 C 0.96244 0.91104 0.11312 0.0
C754 C 0.88338 0.9288 0.12506 0.0
C755 C 0.9537 0.94183 0.1271 0.0
C756 C 0.83232 0.97826 0.1393 0.0
C757 C 0.77337 0.94176 0.11611 0.0
N758 N 0.91497 0.95039 0.13227 0.0
N759 N 0.81127 0.92672 0.11667 0.0
H760 H 0.10734 0.27413 0.35936 0.0
H761 H 0.14924 0.0728 0.38287 0.0
H762 H 0.99333 0.24997 0.3877 0.0
H763 H 0.02555 0.06694 0.40045 0.0
H764 H 0.13808 0.14021 0.36959 0.0
H765 H 0.12301 0.20262 0.36043 0.0
C766 C 0.0855 0.25379 0.36573 0.0
C767 C 0.04909 0.26843 0.37367 0.0
C768 C 0.11306 0.12419 0.37604 0.0
C769 C 0.06684 0.18587 0.37504 0.0
C770 C 0.11975 0.08542 0.38377 0.0
C771 C 0.08924 0.06509 0.39413 0.0
C772 C 0.07505 0.14225 0.37836 0.0
C773 C 0.05061 0.08196 0.39332 0.0
C774 C 0.09454 0.21271 0.36641 0.0
C775 C 0.02197 0.24045 0.3816 0.0
N776 N 0.0449 0.11968 0.38618 0.0
N777 N 0.03145 0.20089 0.38213 0.0
H778 H 0.28483 1.01966 0.3676 0.0
H779 H 0.44327 0.1737 0.41195 0.0
H780 H 0.25547 0.12294 0.4043 0.0
H781 H 0.47595 0.06481 0.38106 0.0
H782 H 0.37457 0.16581 0.4 0.0
H783 H 0.35362 0.04424 0.36442 0.0
C784 C 0.29258 0.04787 0.37466 0.0
C785 C 0.26434 0.06897 0.38647 0.0
C786 C 0.39696 0.14431 0.39514 0.0
C787 C 0.3432 0.09731 0.3829 0.0
C788 C 0.43658 0.14945 0.40153 0.0
C789 C 0.46561 0.12025 0.3972 0.0
C790 C 0.38611 0.10929 0.38464 0.0
C791 C 0.4546 0.08834 0.38446 0.0
C792 C 0.33194 0.06187 0.37287 0.0
C793 C 0.27625 0.10538 0.39525 0.0
N794 N 0.41557 0.08315 0.37904 0.0
N795 N 0.31473 0.1181 0.39348 0.0
H796 H 0.37845 0.43904 0.41955 0.0
H797 H 0.53044 0.28405 0.36801 0.0
H798 H 0.48329 0.47758 0.38697 0.0
H799 H 0.44535 0.25741 0.41569 0.0
H800 H 0.50302 0.35256 0.36606 0.0
H801 H 0.39006 0.37127 0.40791 0.0
C802 C 0.40219 0.43396 0.4086 0.0
C803 C 0.42855 0.46484 0.40334 0.0
C804 C 0.48991 0.33141 0.37664 0.0
C805 C 0.44486 0.38547 0.39163 0.0
C806 C 0.50535 0.29228 0.37767 0.0
C807 C 0.49025 0.26506 0.39212 0.0
C808 C 0.45869 0.34304 0.38988 0.0
C809 C 0.45809 0.27746 0.40444 0.0
C810 C 0.40979 0.39464 0.40255 0.0
C811 C 0.46143 0.45499 0.39081 0.0
N812 N 0.44356 0.31538 0.40308 0.0
N813 N 0.46907 0.4161 0.38566 0.0
H814 H 0.06184 0.46414 0.38006 0.0
H815 H 0.26112 0.51236 0.36506 0.0
H816 H 0.10457 0.36119 0.41292 0.0
H817 H 0.27866 0.43224 0.41605 0.0
H818 H 0.19469 0.48335 0.35954 0.0
H819 H 0.12995 0.47817 0.36901 0.0
C820 C 0.08525 0.44284 0.38378 0.0
C821 C 0.07738 0.41127 0.39733 0.0
C822 C 0.21299 0.47202 0.37192 0.0
C823 C 0.15641 0.42807 0.38553 0.0
C824 C 0.2512 0.48839 0.37495 0.0
C825 C 0.27534 0.47525 0.39127 0.0
C826 C 0.1988 0.44226 0.38534 0.0
C827 C 0.26096 0.44385 0.40348 0.0
C828 C 0.12461 0.4513 0.37776 0.0
C829 C 0.10922 0.38561 0.4023 0.0
N830 N 0.22371 0.42877 0.40036 0.0
N831 N 0.14739 0.39523 0.39697 0.0
H832 H 0.53313 0.25648 0.86713 0.0
H833 H 0.48641 0.05642 0.88517 0.0
H834 H 0.43582 0.27864 0.90912 0.0
H835 H 0.37557 0.10063 0.91 0.0
H836 H 0.50292 0.12394 0.87397 0.0
H837 H 0.51038 0.18731 0.86343 0.0
C838 C 0.5067 0.24697 0.87537 0.0
C839 C 0.48667 0.27348 0.88862 0.0
C840 C 0.474 0.11889 0.88091 0.0
C841 C 0.46074 0.19372 0.88487 0.0
C842 C 0.46428 0.07991 0.88704 0.0
C843 C 0.42884 0.07232 0.89793 0.0
C844 C 0.44825 0.15083 0.88602 0.0
C845 C 0.40227 0.10441 0.90088 0.0
C846 C 0.49389 0.20717 0.87344 0.0
C847 C 0.45254 0.25934 0.89888 0.0
N848 N 0.41287 0.14217 0.8954 0.0
N849 N 0.44094 0.22062 0.89689 0.0
H850 H 0.47832 0.48757 0.88352 0.0
H851 H 0.25136 0.42465 0.90192 0.0
H852 H 0.43992 0.38237 0.9156 0.0
H853 H 0.2835 0.53025 0.86795 0.0
H854 H 0.32103 0.40315 0.90128 0.0
H855 H 0.40905 0.4981 0.87173 0.0
C856 C 0.45595 0.46521 0.88697 0.0
C857 C 0.46574 0.43257 0.89958 0.0
C858 C 0.313 0.4308 0.89368 0.0
C859 C 0.38584 0.4456 0.88719 0.0
C860 C 0.273 0.44311 0.89402 0.0
C861 C 0.26136 0.47952 0.88511 0.0
C862 C 0.34223 0.45522 0.88461 0.0
C863 C 0.291 0.50195 0.87502 0.0
C864 C 0.4162 0.47163 0.88055 0.0
C865 C 0.43488 0.40599 0.90463 0.0
N866 N 0.33013 0.4898 0.87534 0.0
N867 N 0.39657 0.4133 0.89865 0.0
H868 H 0.0781 0.25231 0.88988 0.0
H869 H 0.0489 0.48749 0.87567 0.0
H870 H 0.98239 0.30537 0.85466 0.0
H871 H 0.14341 0.43349 0.91095 0.0
H872 H 0.03217 0.42143 0.86185 0.0
H873 H 0.10982 0.31798 0.89228 0.0
C874 C 0.06404 0.27758 0.88237 0.0
C875 C 0.02724 0.27319 0.87223 0.0
C876 C 0.05769 0.42423 0.87196 0.0
C877 C 0.06334 0.34888 0.87505 0.0
C878 C 0.06773 0.46216 0.87953 0.0
C879 C 0.09896 0.4665 0.89371 0.0
C880 C 0.07843 0.3902 0.87904 0.0
C881 C 0.12079 0.43211 0.89913 0.0
C882 C 0.08215 0.31519 0.88377 0.0
C883 C 1.01054 0.30723 0.8628 0.0
N884 N 0.10982 0.39553 0.89205 0.0
N885 N 0.02842 0.34356 0.86464 0.0
H886 H 0.277 0.10767 0.90941 0.0
H887 H 0.08128 0.16188 0.9003 0.0
H888 H 0.25541 1.0149 0.86497 0.0
H889 H 0.06629 0.03832 0.88377 0.0
H890 H 0.15164 0.15759 0.88993 0.0
H891 H 0.20857 0.13145 0.90483 0.0
C892 C 0.25808 0.09288 0.89829 0.0
C893 C 0.27198 0.05914 0.88763 0.0
C894 C 0.13281 0.1316 0.88812 0.0
C895 C 0.193 0.08637 0.88217 0.0
C896 C 0.09225 0.13442 0.89347 0.0
C897 C 0.06796 0.10037 0.89291 0.0
C898 C 0.14905 0.09435 0.88233 0.0
C899 C 0.0841 0.06526 0.88443 0.0
C900 C 0.21894 0.10676 0.89551 0.0
C901 C 0.24601 0.0411 0.87347 0.0
N902 N 0.1238 0.06288 0.87987 0.0
N903 N 0.20752 0.05435 0.87151 0.0
H904 H 0.03499 0.7823 0.65108 0.0
H905 H 0.88302 0.94847 0.60828 0.0
H906 H 0.94673 0.76202 0.60409 0.0
H907 H 0.9981 0.97699 0.6339 0.0
H908 H 0.8935 0.87831 0.61766 0.0
H909 H 1.00992 0.85126 0.65481 0.0
C910 C 1.00969 0.792 0.64194 0.0
C911 C 0.99309 0.76648 0.62714 0.0
C912 C 0.91588 0.90012 0.6219 0.0
C913 C 0.96412 0.84505 0.63145 0.0
C914 C 0.90954 0.94035 0.61692 0.0
C915 C 0.9394 0.96876 0.62068 0.0
C916 C 0.95246 0.88813 0.63066 0.0
C917 C 0.97401 0.95614 0.6311 0.0
C918 C 0.99556 0.83139 0.644 0.0
C919 C 0.96062 0.78078 0.61557 0.0
N920 N 0.97986 0.91672 0.63549 0.0
N921 N 0.94735 0.81903 0.6179 0.0
H922 H 0.7945 0.91366 0.64747 0.0
H923 H 0.60368 0.86703 0.61047 0.0
H924 H 0.75124 0.03376 0.63776 0.0
H925 H 0.567 0.9798 0.63604 0.0
H926 H 0.67087 0.87725 0.62414 0.0
H927 H 0.72526 0.88949 0.64588 0.0
C928 C 0.77047 0.935 0.64517 0.0
C929 C 0.77887 0.97582 0.64255 0.0
C930 C 0.6478 0.89896 0.6277 0.0
C931 C 0.69939 0.9483 0.64063 0.0
C932 C 0.609 0.89268 0.62019 0.0
C933 C 0.5792 0.92202 0.62263 0.0
C934 C 0.65715 0.93542 0.63729 0.0
C935 C 0.58875 0.95595 0.63427 0.0
C936 C 0.73092 0.92111 0.64411 0.0
C937 C 0.74637 1.00202 0.63965 0.0
N938 N 0.62704 0.96226 0.64064 0.0
N939 N 0.70825 0.98784 0.63878 0.0
H940 H 0.51325 0.7597 0.65374 0.0
H941 H 0.66553 0.6022 0.60514 0.0
H942 H 0.60061 0.78364 0.60676 0.0
H943 H 0.56181 0.56534 0.63914 0.0
H944 H 0.65461 0.67031 0.61605 0.0
H945 H 0.54077 0.69147 0.65719 0.0
C946 C 0.53883 0.75096 0.64454 0.0
C947 C 0.55454 0.77729 0.62983 0.0
C948 C 0.63501 0.64729 0.62191 0.0
C949 C 0.58621 0.69963 0.63379 0.0
C950 C 0.64236 0.60768 0.61635 0.0
C951 C 0.61612 0.57709 0.6222 0.0
C952 C 0.60013 0.65712 0.63283 0.0
C953 C 0.58362 0.58767 0.63484 0.0
C954 C 0.55434 0.71198 0.64644 0.0
C955 C 0.58736 0.76427 0.61816 0.0
N956 N 0.57606 0.62686 0.63942 0.0
N957 N 0.6019 0.7265 0.62033 0.0
H958 H 0.79228 0.51838 0.65321 0.0
H959 H 0.94461 0.67491 0.60473 0.0
H960 H 0.76072 0.61347 0.61161 0.0
H961 H 0.9825 0.56808 0.63591 0.0
H962 H 0.87667 0.66454 0.61726 0.0
H963 H 0.86025 0.54605 0.6557 0.0
C964 C 0.79932 0.54555 0.64498 0.0
C965 C 0.77084 0.56338 0.63201 0.0
C966 C 0.90004 0.64405 0.62205 0.0
C967 C 0.84846 0.59526 0.63483 0.0
C968 C 0.93924 0.65064 0.61534 0.0
C969 C 0.96956 0.62273 0.61957 0.0
C970 C 0.89086 0.60887 0.63282 0.0
C971 C 0.96014 0.59068 0.63258 0.0
C972 C 0.83817 0.56125 0.64635 0.0
C973 C 0.78178 0.59843 0.62162 0.0
N974 N 0.92148 0.58403 0.63833 0.0
N975 N 0.81963 0.61296 0.62313 0.0
H976 H 0.49217 0.30651 0.99715 0.0
H977 H 0.52125 0.17805 0.07264 0.0
H978 H 0.46131 0.20734 0.95781 0.0
H979 H 0.56002 0.11047 0.01982 0.0
H980 H 0.47263 0.21328 0.05108 0.0
H981 H 0.48467 0.26386 0.02648 0.0
C982 C 0.48233 0.27626 0.99448 0.0
C983 C 0.48062 0.25975 0.97467 0.0
C984 C 0.49134 0.19026 0.04435 0.0
C985 C 0.47233 0.21047 1.00858 0.0
C986 C 0.5192 0.17027 0.05656 0.0
C987 C 0.54579 0.14258 0.04774 0.0
C988 C 0.49027 0.18229 0.02326 0.0
C989 C 0.54111 0.13276 0.02703 0.0
C990 C 0.47778 0.25166 0.01152 0.0
C991 C 0.46567 0.22071 0.97275 0.0
N992 N 0.51424 0.15304 0.01541 0.0
N993 N 0.46412 0.19668 0.98945 0.0
H994 H 0.22614 0.5042 0.99928 0.0
H995 H 0.42961 0.55734 0.02563 0.0
H996 H 0.32294 0.4583 0.96188 0.0
H997 H 0.34938 0.5275 0.0751 0.0
H998 H 0.39346 0.51146 1.00336 0.0
H999 H 0.26859 0.49883 0.02902 0.0
C1000 C 0.25571 0.49171 0.99717 0.0
C1001 C 0.27179 0.48438 0.97759 0.0
C1002 C 0.38436 0.51407 0.01924 0.0
C1003 C 0.32075 0.47912 0.01185 0.0
C1004 C 0.40469 0.54065 0.03184 0.0
C1005 C 0.39173 0.5468 0.05199 0.0
C1006 C 0.34989 0.49493 0.02664 0.0
C1007 C 0.35976 0.524 0.05947 0.0
C1008 C 0.28011 0.48857 0.0144 0.0
C1009 C 0.31001 0.46669 0.97648 0.0
N1010 N 0.33902 0.49991 0.04659 0.0
N1011 N 0.33396 0.46637 0.99324 0.0
H1012 H 0.94834 0.29756 0.94404 0.0
H1013 H 0.87731 0.44494 1.00288 0.0
H1014 H 0.0646 0.32072 0.9704 0.0
H1015 H 0.98545 0.41801 0.0363 0.0
H1016 H 0.90971 0.42083 0.97137 0.0
H1017 H 0.9253 0.36173 0.95633 0.0
C1018 C 0.9693 0.31613 0.95228 0.0
C1019 C 1.00744 0.30198 0.95794 0.0
C1020 C 0.92645 0.42066 0.98556 0.0
C1021 C 0.98171 0.37683 0.97113 0.0
C1022 C 0.90799 0.43442 1.00349 0.0
C1023 C 0.92825 0.43153 0.02223 0.0
C1024 C 0.96524 0.40421 0.9867 0.0
C1025 C 0.96825 0.41909 0.02226 0.0
C1026 C 0.95626 0.35359 0.95889 0.0
C1027 C 0.03412 0.32923 0.96678 0.0
N1028 N 0.98525 0.40549 1.00482 0.0
N1029 N 1.02037 0.36489 0.9737 0.0
H1030 H 0.34171 0.97174 0.02484 0.0
H1031 H 0.1649 0.05478 0.08634 0.0
H1032 H 0.27966 0.08072 1.00878 0.0
H1033 H 0.24621 0.9662 0.11059 0.0
H1034 H 0.21723 0.07721 0.06309 0.0
H1035 H 0.31977 0.98022 0.06018 0.0
C1036 C 0.32466 0.9982 0.02881 0.0
C1037 C 0.31155 0.02498 0.01366 0.0
C1038 C 0.22419 0.05367 0.07391 0.0
C1039 C 0.28536 0.03425 0.05405 0.0
C1040 C 0.19426 0.04102 0.08729 0.0
C1041 C 0.20078 1.00777 0.09993 0.0
C1042 C 0.26039 0.03214 0.07283 0.0
C1043 C 0.23955 0.99141 0.10076 0.0
C1044 C 0.3119 1.00297 0.04907 0.0
C1045 C 0.28942 0.05865 0.01985 0.0
N1046 N 0.26752 1.00283 0.08684 0.0
N1047 N 0.27618 0.06181 0.03944 0.0
H1048 H 0.18794 0.70898 0.5326 0.0
H1049 H 0.12586 0.84433 0.44207 0.0
H1050 H 0.14996 0.66532 0.47358 0.0
H1051 H 0.17334 0.88876 0.49921 0.0
H1052 H 0.15241 0.77863 0.45003 0.0
H1053 H 0.20672 0.77173 0.51688 0.0
C1054 C 0.18545 0.7116 0.51612 0.0
C1055 C 0.16506 0.68274 0.50452 0.0
C1056 C 0.15727 0.80267 0.46085 0.0
C1057 C 0.18507 0.75506 0.48667 0.0
C1058 C 0.14143 0.84017 0.45648 0.0
C1059 C 0.14623 0.87185 0.47034 0.0
C1060 C 0.17724 0.79629 0.47949 0.0
C1061 C 0.16809 0.86489 0.48835 0.0
C1062 C 0.19565 0.74798 0.50717 0.0
C1063 C 0.16385 0.68768 0.48321 0.0
N1064 N 0.18219 0.82764 0.49258 0.0
N1065 N 0.17202 0.72396 0.47502 0.0
H1066 H 0.84803 1.00254 0.50345 0.0
H1067 H 0.64162 0.99663 0.4481 0.0
H1068 H 0.74132 0.94534 0.52629 0.0
H1069 H 0.74357 0.06352 0.42695 0.0
H1070 H 0.68602 0.95513 0.46878 0.0
H1071 H 0.81895 1.00303 0.46918 0.0
C1072 C 0.8186 0.98981 0.50128 0.0
C1073 C 0.79601 0.97602 0.518 0.0
C1074 C 0.69896 0.97809 0.45918 0.0
C1075 C 0.76307 0.97573 0.47874 0.0
C1076 C 0.6736 1.00169 0.44733 0.0
C1077 C 0.68897 0.03425 0.43642 0.0
C1078 C 0.73968 0.98803 0.46054 0.0
C1079 C 0.73055 0.03912 0.43552 0.0
C1080 C 0.80225 0.98964 0.48162 0.0
C1081 C 0.75926 0.95753 0.51399 0.0
N1082 N 0.75448 1.01705 0.44802 0.0
N1083 N 0.74348 0.95886 0.49485 0.0
H1084 H 0.36499 0.66321 0.4984 0.0
H1085 H 0.40465 0.8878 0.47487 0.0
H1086 H 0.42322 0.71066 0.44458 0.0
H1087 H 0.3582 0.84391 0.53221 0.0
H1088 H 0.38188 0.82695 0.45816 0.0
H1089 H 0.33986 0.73021 0.50631 0.0
C1090 C 0.37271 0.6877 0.48832 0.0
C1091 C 0.39733 0.68152 0.47116 0.0
C1092 C 0.37539 0.83118 0.47429 0.0
C1093 C 0.36772 0.7579 0.47979 0.0
C1094 C 0.38784 0.86629 0.48377 0.0
C1095 C 0.38563 0.86969 0.50515 0.0
C1096 C 0.36137 0.79962 0.48649 0.0
C1097 C 0.36233 0.8417 0.5158 0.0
C1098 C 0.35777 0.72578 0.49265 0.0
C1099 C 0.40532 0.71413 0.45831 0.0
N1100 N 0.35272 0.80674 0.50655 0.0
N1101 N 0.39091 0.75091 0.463 0.0
H1102 H 0.70078 0.5072 0.50207 0.0
H1103 H 0.89588 0.54183 0.44601 0.0
H1104 H 0.78674 0.59695 0.51983 0.0
H1105 H 0.79965 0.47077 0.42168 0.0
H1106 H 0.84747 0.58032 0.46585 0.0
H1107 H 0.72428 0.51187 0.46715 0.0
C1108 C 0.72364 0.52898 0.4987 0.0
C1109 C 0.74293 0.55054 0.51432 0.0
C1110 C 0.83658 0.55718 0.4557 0.0
C1111 C 0.77104 0.5548 0.47407 0.0
C1112 C 0.86431 0.53527 0.44433 0.0
C1113 C 0.85175 0.50233 0.43278 0.0
C1114 C 0.79636 0.54497 0.45607 0.0
C1115 C 0.81059 0.49546 0.43078 0.0
C1116 C 0.73728 0.53147 0.47853 0.0
C1117 C 0.77207 0.57847 0.5085 0.0
N1118 N 0.78438 0.5157 0.44292 0.0
N1119 N 0.78612 0.57889 0.48898 0.0
H1120 H 0.47433 0.83559 0.93226 0.0
H1121 H 0.48809 0.70233 1.00817 0.0
H1122 H 0.48573 0.90773 0.98675 0.0
H1123 H 0.57566 0.77912 0.03652 0.0
H1124 H 0.49406 0.74053 0.97685 0.0
H1125 H 0.51547 0.78354 0.94853 0.0
C1126 C 0.48635 0.84085 0.94744 0.0
C1127 C 0.47579 0.87525 0.95854 0.0
C1128 C 0.51355 0.74787 0.98956 0.0
C1129 C 0.52294 0.81676 0.97681 0.0
C1130 C 0.5101 0.72592 1.00761 0.0
C1131 C 0.52995 0.73884 0.02536 0.0
C1132 C 0.53606 0.78323 0.98963 0.0
C1133 C 0.55835 0.7694 0.02342 0.0
C1134 C 0.5098 0.81127 0.95661 0.0
C1135 C 0.49239 0.88107 0.97796 0.0
N1136 N 0.55927 0.79181 1.00614 0.0
N1137 N 0.51487 0.85182 0.98659 0.0
H1138 H 0.60012 0.38557 0.01633 0.0
H1139 H 0.69913 0.57454 0.06749 0.0
H1140 H 0.6239 0.49921 0.98768 0.0
H1141 H 0.7197 0.45323 0.08738 0.0
H1142 H 0.64147 0.55192 0.04783 0.0
H1143 H 0.61664 0.41516 0.04974 0.0
C1144 C 0.60818 0.41685 0.01712 0.0
C1145 C 0.61201 0.43971 0.99921 0.0
C1146 C 0.65798 0.53044 0.05697 0.0
C1147 C 0.62951 0.47373 0.03715 0.0
C1148 C 0.69081 0.54333 0.0683 0.0
C1149 C 0.71571 0.51526 0.07798 0.0
C1150 C 0.65042 0.48934 0.05533 0.0
C1151 C 0.70268 0.47548 0.07903 0.0
C1152 C 0.61721 0.43372 0.03615 0.0
C1153 C 0.62178 0.4802 1.00105 0.0
N1154 N 0.67158 0.46336 0.06722 0.0
N1155 N 0.63056 0.49582 0.01966 0.0
H1156 H 0.14388 0.62588 1.0048 0.0
H1157 H 0.14357 0.80859 0.05323 0.0
H1158 H 0.05207 0.67526 0.96559 0.0
H1159 H 0.09644 0.85095 0.99552 0.0
H1160 H 0.12762 0.74071 0.04338 0.0
H1161 H 0.14406 0.68747 0.02436 0.0
C1162 C 0.12277 0.64923 1.00075 0.0
C1163 C 0.09882 0.64601 0.98322 0.0
C1164 C 0.12122 0.76462 0.03271 0.0
C1165 C 0.09855 0.71663 1.00556 0.0
C1166 C 0.12988 0.80357 0.03841 0.0
C1167 C 0.12113 0.83549 0.02514 0.0
C1168 C 0.10454 0.75736 0.01338 0.0
C1169 C 0.10407 0.82712 1.00606 0.0
C1170 C 0.12277 0.68454 0.01198 0.0
C1171 C 0.0717 0.67691 0.97876 0.0
N1172 N 0.09632 0.78871 1.00072 0.0
N1173 N 0.07306 0.71146 0.98955 0.0
H1174 H 0.70186 0.04292 1.00249 0.0
H1175 H 0.91311 0.05168 0.98668 0.0
H1176 H 0.77502 0.95078 0.03001 0.0
H1177 H 0.83889 0.07096 0.93345 0.0
H1178 H 0.86237 1.0065 1.00037 0.0
H1179 H 0.74509 0.04205 0.97274 0.0
C1180 C 0.72578 0.02106 1.002 0.0
C1181 C 0.73642 0.99867 0.01937 0.0
C1182 C 0.85767 1.01976 0.98541 0.0
C1183 C 0.78665 0.99885 0.98569 0.0
C1184 C 0.88626 0.04603 0.97784 0.0
C1185 C 0.87941 0.06573 0.95929 0.0
C1186 C 0.82159 1.01442 0.97465 0.0
C1187 C 0.84476 0.05675 0.94805 0.0
C1188 C 0.75074 0.02073 0.9849 0.0
C1189 C 0.76722 0.97023 0.01735 0.0
N1190 N 0.81643 0.0326 0.95621 0.0
N1191 N 0.79267 0.97247 1.00123 0.0
H1192 H 0.8635 0.14974 0.51917 0.0
H1193 H 0.89206 0.37735 0.54243 0.0
H1194 H 0.91821 0.20153 0.57289 0.0
H1195 H 0.85709 0.33054 0.48358 0.0
H1196 H 0.87043 0.31528 0.55837 0.0
H1197 H 0.83717 0.21588 0.51005 0.0
C1198 C 0.87011 0.17498 0.52898 0.0
C1199 C 0.89419 0.17034 0.54645 0.0
C1200 C 0.86617 0.31909 0.54203 0.0
C1201 C 0.86304 0.24548 0.53654 0.0
C1202 C 0.87794 0.35483 0.53297 0.0
C1203 C 0.8785 0.35813 0.51156 0.0
C1204 C 0.85571 0.28674 0.52942 0.0
C1205 C 0.85879 0.32863 0.5001 0.0
C1206 C 0.85454 0.21251 0.52396 0.0
C1207 C 0.90086 0.2038 0.55893 0.0
N1208 N 0.84984 0.29321 0.50905 0.0
N1209 N 0.88566 0.23991 0.55364 0.0
H1210 H 0.20164 0.03948 0.51382 0.0
H1211 H 0.40353 0.0465 0.57294 0.0
H1212 H 0.31253 0.09031 0.49179 0.0
H1213 H 0.29984 0.97977 0.59193 0.0
H1214 H 0.36083 0.08803 0.55134 0.0
H1215 H 0.22738 0.04271 0.54847 0.0
C1216 C 0.23128 0.05148 0.516 0.0
C1217 C 0.25615 0.06165 0.49936 0.0
C1218 C 0.34712 0.06514 0.5607 0.0
C1219 C 0.28505 0.06665 0.53947 0.0
C1220 C 0.3715 0.04151 0.57309 0.0
C1221 C 0.35526 1.00884 0.58359 0.0
C1222 C 0.30656 0.05515 0.55842 0.0
C1223 C 0.3136 1.00415 0.58366 0.0
C1224 C 0.2457 0.05386 0.53604 0.0
C1225 C 0.29288 0.08004 0.50386 0.0
N1226 N 0.29073 0.02621 0.57064 0.0
N1227 N 0.30664 0.08091 0.5234 0.0
H1228 H 0.67488 0.38012 0.52634 0.0
H1229 H 0.62583 0.15593 0.54582 0.0
H1230 H 0.61292 0.33264 0.57904 0.0
H1231 H 0.68032 0.2008 0.49055 0.0
H1232 H 0.64812 0.21544 0.5639 0.0
H1233 H 0.6976 0.31263 0.51783 0.0
C1234 C 0.66578 0.3555 0.53603 0.0
C1235 C 0.64092 0.36189 0.55308 0.0
C1236 C 0.65644 0.21169 0.54797 0.0
C1237 C 0.6677 0.28483 0.54374 0.0
C1238 C 0.64423 0.17735 0.53772 0.0
C1239 C 0.6492 0.17461 0.51643 0.0
C1240 C 0.67297 0.24325 0.53662 0.0
C1241 C 0.6743 0.20247 0.50682 0.0
C1242 C 0.67936 0.3171 0.53137 0.0
C1243 C 0.63113 0.32906 0.56544 0.0
N1244 N 0.68375 0.23671 0.51678 0.0
N1245 N 0.6442 0.29195 0.5604 0.0
H1246 H 0.24397 0.56785 0.60065 0.0
H1247 H 0.26308 0.4375 0.50287 0.0
H1248 H 0.15115 0.49741 0.57262 0.0
H1249 H 0.34294 0.53187 0.52167 0.0
H1250 H 0.23968 0.43203 0.53814 0.0
H1251 H 0.29426 0.52757 0.58272 0.0
C1252 C 0.23423 0.54278 0.59143 0.0
C1253 C 0.1935 0.53677 0.58739 0.0
C1254 C 0.26338 0.45294 0.53464 0.0
C1255 C 0.25047 0.49122 0.56677 0.0
C1256 C 0.27671 0.4562 0.51446 0.0
C1257 C 0.30363 0.48649 0.50898 0.0
C1258 C 0.27661 0.48062 0.54928 0.0
C1259 C 0.32126 0.50881 0.52483 0.0
C1260 C 0.26294 0.51988 0.58114 0.0
C1261 C 0.18241 0.50371 0.57554 0.0
N1262 N 0.30651 0.50626 0.54416 0.0
N1263 N 0.21075 0.48274 0.5652 0.0
H1264 H 0.56001 0.15281 0.30956 0.0
H1265 H 0.65686 0.04931 0.20988 0.0
H1266 H 0.64584 0.0561 0.31213 0.0
H1267 H 0.56783 0.14304 0.20773 0.0
H1268 H 0.65946 0.0567 0.2473 0.0
H1269 H 0.56853 0.15503 0.2723 0.0
C1270 C 0.58115 0.13252 0.30243 0.0
C1271 C 0.6021 0.10413 0.31417 0.0
C1272 C 0.63967 0.07593 0.23858 0.0
C1273 C 0.61156 0.1061 0.27128 0.0
C1274 C 0.63844 0.07191 0.21716 0.0
C1275 C 0.61193 0.09541 0.20554 0.0
C1276 C 0.61429 0.10366 0.24846 0.0
C1277 C 0.58838 0.12386 0.216 0.0
C1278 C 0.5858 0.13358 0.28107 0.0
C1279 C 0.62862 0.07823 0.3038 0.0
N1280 N 0.58993 0.12698 0.23675 0.0
N1281 N 0.63238 0.07968 0.28305 0.0
H1282 H 0.38469 0.55137 0.31354 0.0
H1283 H 0.48914 0.65058 0.21499 0.0
H1284 H 0.48095 0.63674 0.31702 0.0
H1285 H 0.4007 0.55719 0.21188 0.0
H1286 H 0.47968 0.65327 0.2523 0.0
H1287 H 0.38328 0.56035 0.27627 0.0
C1288 C 0.40503 0.57251 0.30659 0.0
C1289 C 0.4331 0.59316 0.31855 0.0
C1290 C 0.46203 0.63251 0.24339 0.0
C1291 C 0.43203 0.60321 0.27574 0.0
C1292 C 0.46722 0.63122 0.22204 0.0
C1293 C 0.44589 0.60346 0.21022 0.0
C1294 C 0.43524 0.60598 0.25297 0.0
C1295 C 0.41822 0.57874 0.22035 0.0
C1296 C 0.40443 0.57742 0.28524 0.0
C1297 C 0.45908 0.61975 0.30847 0.0
N1298 N 0.4139 0.58041 0.24105 0.0
N1299 N 0.45807 0.62381 0.28775 0.0
H1300 H 0.97799 0.37735 0.30855 0.0
H1301 H 0.885 0.48979 0.21056 0.0
H1302 H 0.90373 0.48295 0.31233 0.0
H1303 H 0.96749 0.3905 0.20696 0.0
H1304 H 0.88264 0.48124 0.24796 0.0
H1305 H 0.96576 0.37516 0.27151 0.0
C1306 C 0.95851 0.3996 0.30173 0.0
C1307 C 0.94211 0.43052 0.31366 0.0
C1308 C 0.90085 0.46101 0.23892 0.0
C1309 C 0.9284 0.42856 0.27113 0.0
C1310 C 0.90191 0.46571 0.21754 0.0
C1311 C 0.9267 0.44104 0.20557 0.0
C1312 C 0.92462 0.43136 0.24837 0.0
C1313 C 0.94835 0.41059 0.21557 0.0
C1314 C 0.95176 0.39855 0.28051 0.0
C1315 C 0.91749 0.45882 0.30377 0.0
N1316 N 0.94705 0.40683 0.23629 0.0
N1317 N 0.91165 0.45733 0.28316 0.0
H1318 H 0.15403 0.9973 0.30745 0.0
H1319 H 0.06088 0.88621 0.20927 0.0
H1320 H 0.07073 0.89932 0.31088 0.0
H1321 H 0.13933 0.98809 0.20533 0.0
H1322 H 0.07095 0.88529 0.24643 0.0
H1323 H 0.15588 0.98925 0.27004 0.0
C1324 C 0.13671 0.97369 0.30045 0.0
C1325 C 0.11201 0.94914 0.31242 0.0
C1326 C 0.08629 0.9076 0.23739 0.0
C1327 C 0.11356 0.94004 0.26954 0.0
C1328 C 0.08078 0.90792 0.21607 0.0
C1329 C 0.09913 0.93735 0.204 0.0
C1330 C 0.11031 0.93689 0.24677 0.0
C1331 C 0.12412 0.96507 0.21395 0.0
C1332 C 0.13752 0.96927 0.27904 0.0
C1333 C 0.08984 0.91935 0.30233 0.0
N1334 N 0.12874 0.96432 0.23465 0.0
N1335 N 0.09096 0.91582 0.28159 0.0
H1336 H 0.39545 0.98599 0.70621 0.0
H1337 H 0.48048 0.90173 0.81223 0.0
H1338 H 0.48588 0.89382 0.7101 0.0
H1339 H 0.38565 0.98939 0.80856 0.0
H1340 H 0.47923 0.89505 0.77507 0.0
H1341 H 0.38809 0.98411 0.74336 0.0
C1342 C 0.41362 0.96504 0.71483 0.0
C1343 C 0.44147 0.94008 0.70481 0.0
C1344 C 0.45839 0.91549 0.78233 0.0
C1345 C 0.43317 0.93802 0.74778 0.0
C1346 C 0.45907 0.91943 0.80364 0.0
C1347 C 0.4332 0.94632 0.81372 0.0
C1348 C 0.43188 0.93886 0.77071 0.0
C1349 C 0.40595 0.96805 0.80162 0.0
C1350 C 0.40927 0.96399 0.73613 0.0
C1351 C 0.46378 0.91339 0.71696 0.0
N1352 N 0.4063 0.96412 0.78078 0.0
N1353 N 0.45939 0.91336 0.73777 0.0
H1354 H 0.64112 0.48451 0.81508 0.0
H1355 H 0.5671 0.39937 0.70738 0.0
H1356 H 0.55712 0.38761 0.80942 0.0
H1357 H 0.65746 0.49036 0.71311 0.0
H1358 H 0.56746 0.39075 0.74446 0.0
H1359 H 0.65167 0.48301 0.77812 0.0
C1360 C 0.62511 0.46255 0.80609 0.0
C1361 C 0.59797 0.43625 0.81552 0.0
C1362 C 0.58757 0.4123 0.73767 0.0
C1363 C 0.60983 0.43468 0.77277 0.0
C1364 C 0.58741 0.41734 0.71642 0.0
C1365 C 0.61218 0.44583 0.70696 0.0
C1366 C 0.61239 0.43621 0.74986 0.0
C1367 C 0.63804 0.46786 0.71958 0.0
C1368 C 0.63125 0.46174 0.78491 0.0
C1369 C 0.57849 0.4083 0.80297 0.0
N1370 N 0.63711 0.46291 0.74037 0.0
N1371 N 0.58446 0.40858 0.78225 0.0
H1372 H 0.05812 0.63629 0.8079 0.0
H1373 H 0.15183 0.55735 0.70283 0.0
H1374 H 0.15301 0.54856 0.80509 0.0
H1375 H 0.05935 0.6476 0.70624 0.0
H1376 H 0.15714 0.55825 0.74008 0.0
H1377 H 0.06288 0.64524 0.77097 0.0
C1378 C 0.08028 0.61907 0.79954 0.0
C1379 C 0.10506 0.59141 0.80972 0.0
C1380 C 0.13598 0.57818 0.73271 0.0
C1381 C 0.11045 0.60145 0.76706 0.0
C1382 C 0.13282 0.5777 0.71138 0.0
C1383 C 0.10496 0.60236 0.70123 0.0
C1384 C 0.11086 0.60329 0.74421 0.0
C1385 C 0.08151 0.62829 0.71323 0.0
C1386 C 0.08298 0.6243 0.77838 0.0
C1387 C 0.13345 0.57038 0.798 0.0
N1388 N 0.08474 0.62777 0.73406 0.0
N1389 N 0.13506 0.57553 0.77727 0.0
H1390 H 0.98507 0.15032 0.808 0.0
H1391 H 0.88306 0.0494 0.70966 0.0
H1392 H 0.88962 0.06395 0.81148 0.0
H1393 H 0.97555 0.1389 0.70645 0.0
H1394 H 0.88 0.05924 0.74687 0.0
H1395 H 0.97717 0.15167 0.77072 0.0
C1396 C 0.96201 0.13219 0.80105 0.0
C1397 C 0.93817 0.10681 0.81302 0.0
C1398 C 0.90067 0.07701 0.73795 0.0
C1399 C 0.92942 0.10767 0.7702 0.0
C1400 C 0.9022 0.07156 0.71665 0.0
C1401 C 0.92981 0.0931 0.70483 0.0
C1402 C 0.92693 0.10412 0.74748 0.0
C1403 C 0.9542 0.12111 0.71491 0.0
C1404 C 0.95768 0.13273 0.77969 0.0
C1405 C 0.90914 0.08359 0.80293 0.0
N1406 N 0.9524 0.12556 0.73557 0.0
N1407 N 0.90582 0.08434 0.78219 0.0
H1408 H 0.83236 0.35407 0.13609 0.0
H1409 H 0.69271 0.19963 0.07408 0.0
H1410 H 0.80993 0.35907 0.07107 0.0
H1411 H 0.73095 0.17474 0.13592 0.0
H1412 H 0.7321 0.26053 0.07437 0.0
H1413 H 0.79368 0.2914 0.13777 0.0
C1414 C 0.81966 0.34207 0.12213 0.0
C1415 C 0.82494 0.3624 0.10337 0.0
C1416 C 0.73201 0.24198 0.08796 0.0
C1417 C 0.77966 0.29033 0.1053 0.0
C1418 C 0.70916 0.20689 0.08788 0.0
C1419 C 0.70802 0.18124 0.10503 0.0
C1420 C 0.75435 0.25267 0.10537 0.0
C1421 C 0.73053 0.19318 0.1223 0.0
C1422 C 0.79742 0.30616 0.12314 0.0
C1423 C 0.80721 0.34494 0.08592 0.0
N1424 N 0.75258 0.22784 0.12204 0.0
N1425 N 0.78552 0.31051 0.08736 0.0
H1426 H 0.3854 0.75136 0.13124 0.0
H1427 H 0.14824 0.77293 0.11705 0.0
H1428 H 0.31853 0.661 0.09923 0.0
H1429 H 0.2265 0.87388 0.10959 0.0
H1430 H 0.20756 0.72876 0.1188 0.0
H1431 H 0.32486 0.79374 0.13205 0.0
C1432 C 0.35783 0.73999 0.12478 0.0
C1433 C 0.35726 0.70225 0.11526 0.0
C1434 C 0.21167 0.76062 0.1169 0.0
C1435 C 0.2874 0.7508 0.11631 0.0
C1436 C 0.17781 0.78591 0.11599 0.0
C1437 C 0.18214 0.82736 0.11311 0.0
C1438 C 0.25043 0.77684 0.11561 0.0
C1439 C 0.22149 0.84221 0.11171 0.0
C1440 C 0.32335 0.76442 0.12508 0.0
C1441 C 0.32055 0.68971 0.1068 0.0
N1442 N 0.25388 0.81719 0.11318 0.0
N1443 N 0.28722 0.71363 0.10766 0.0
H1444 H 0.31526 0.68484 0.44795 0.0
H1445 H 0.21932 0.86167 0.37924 0.0
H1446 H 0.31304 0.67762 0.38195 0.0
H1447 H 0.22994 0.86315 0.44511 0.0
H1448 H 0.25208 0.79523 0.37889 0.0
H1449 H 0.28312 0.74992 0.44619 0.0
C1450 C 0.30804 0.69676 0.43297 0.0
C1451 C 0.31726 0.67493 0.41507 0.0
C1452 C 0.24718 0.81019 0.39339 0.0
C1453 C 0.27936 0.75128 0.41294 0.0
C1454 C 0.22842 0.84828 0.39361 0.0
C1455 C 0.2215 0.86867 0.41223 0.0
C1456 C 0.25922 0.79201 0.41193 0.0
C1457 C 0.23423 0.84921 0.4303 0.0
C1458 C 0.28947 0.73436 0.43199 0.0
C1459 C 0.30671 0.6929 0.39622 0.0
N1460 N 0.25215 0.81251 0.42965 0.0
N1461 N 0.28839 0.72979 0.39566 0.0
H1462 H 0.86197 0.31519 0.38004 0.0
H1463 H 0.6877 0.21368 0.44704 0.0
H1464 H 0.84837 0.33012 0.44533 0.0
H1465 H 0.67928 0.22256 0.38124 0.0
H1466 H 0.74946 0.25214 0.44605 0.0
H1467 H 0.79881 0.27718 0.37948 0.0
C1468 C 0.84598 0.31039 0.39426 0.0
C1469 C 0.86094 0.32606 0.41278 0.0
C1470 C 0.73418 0.24591 0.43177 0.0
C1471 C 0.78838 0.2823 0.41223 0.0
C1472 C 0.69869 0.2238 0.43231 0.0
C1473 C 0.67775 0.21471 0.41419 0.0
C1474 C 0.74984 0.25901 0.41294 0.0
C1475 C 0.69401 0.22894 0.39563 0.0
C1476 C 0.80975 0.28881 0.39391 0.0
C1477 C 0.83841 0.31885 0.43065 0.0
N1478 N 0.7291 0.25007 0.39547 0.0
N1479 N 0.80374 0.29757 0.42992 0.0
H1480 H 0.30467 0.85823 0.94352 0.0
H1481 H 0.21844 0.67658 0.87597 0.0
H1482 H 0.31643 0.85858 0.8777 0.0
H1483 H 0.18865 0.69927 0.93924 0.0
H1484 H 0.25569 0.74031 0.87523 0.0
H1485 H 0.26498 0.79775 0.94135 0.0
C1486 C 0.2991 0.84564 0.9285 0.0
C1487 C 0.31443 0.86415 0.91078 0.0
C1488 C 0.24069 0.73139 0.88919 0.0
C1489 C 0.26801 0.79312 0.90818 0.0
C1490 C 0.21919 0.69495 0.88962 0.0
C1491 C 0.20005 0.68192 0.90771 0.0
C1492 C 0.24352 0.75507 0.90703 0.0
C1493 C 0.20272 0.70737 0.92489 0.0
C1494 C 0.27606 0.81082 0.92728 0.0
C1495 C 0.30542 0.84577 0.89183 0.0
N1496 N 0.224 0.74205 0.92413 0.0
N1497 N 0.28312 0.8113 0.89104 0.0
H1498 H 0.86171 0.22033 0.87987 0.0
H1499 H 0.70411 0.35128 0.94557 0.0
H1500 H 0.86467 0.23383 0.94557 0.0
H1501 H 0.6815 0.32058 0.88244 0.0
H1502 H 0.76688 0.31421 0.94412 0.0
H1503 H 0.80004 0.26128 0.87897 0.0
C1504 C 0.84961 0.23186 0.8941 0.0
C1505 C 0.86878 0.22313 0.91285 0.0
C1506 C 0.74847 0.31561 0.93048 0.0
C1507 C 0.79792 0.2707 0.91187 0.0
C1508 C 0.71236 0.33713 0.93124 0.0
C1509 C 0.68677 0.33941 0.9141 0.0
C1510 C 0.76004 0.2958 0.9124 0.0
C1511 C 0.69995 0.32003 0.89607 0.0
C1512 C 0.81425 0.25525 0.89356 0.0
C1513 C 0.85126 0.23921 0.93072 0.0
N1514 N 0.73542 0.29906 0.89571 0.0
N1515 N 0.81731 0.26202 0.92975 0.0
H1516 H 0.72439 0.35775 0.57431 0.0
H1517 H 0.82384 0.17721 0.63876 0.0
H1518 H 0.7314 0.361 0.64031 0.0
H1519 H 0.81097 0.17923 0.57301 0.0
H1520 H 0.79112 0.24338 0.64043 0.0
H1521 H 0.75631 0.29249 0.57442 0.0
C1522 C 0.7326 0.34491 0.58896 0.0
C1523 C 0.72482 0.3657 0.60737 0.0
C1524 C 0.79544 0.22928 0.62566 0.0
C1525 C 0.76248 0.28917 0.60752 0.0
C1526 C 0.81419 0.19134 0.62467 0.0
C1527 C 0.82036 0.17196 0.60571 0.0
C1528 C 0.78266 0.24845 0.60755 0.0
C1529 C 0.80703 0.19236 0.58804 0.0
C1530 C 0.75105 0.30722 0.58896 0.0
C1531 C 0.73659 0.34657 0.6257 0.0
N1532 N 0.78908 0.22902 0.58943 0.0
N1533 N 0.75478 0.30961 0.62531 0.0
H1534 H 0.18 0.72733 0.63615 0.0
H1535 H 0.35786 0.82872 0.57155 0.0
H1536 H 0.19627 0.71259 0.57103 0.0
H1537 H 0.36311 0.81896 0.63739 0.0
H1538 H 0.29583 0.7906 0.57162 0.0
H1539 H 0.24308 0.76532 0.63745 0.0
C1540 C 0.19651 0.73227 0.6221 0.0
C1541 C 0.18233 0.71657 0.60342 0.0
C1542 C 0.31045 0.79655 0.5861 0.0
C1543 C 0.25498 0.7603 0.60484 0.0
C1544 C 0.34612 0.81847 0.5861 0.0
C1545 C 0.36627 0.82725 0.6045 0.0
C1546 C 0.29378 0.78334 0.60468 0.0
C1547 C 0.34904 0.81283 0.62279 0.0
C1548 C 0.23275 0.7538 0.62289 0.0
C1549 C 0.2056 0.7239 0.5858 0.0
N1550 N 0.31379 0.79192 0.62243 0.0
N1551 N 0.24031 0.74514 0.58695 0.0
loop_
_geom_bond_atom_site_label_1
_geom_bond_atom_site_label_2
_geom_bond_distance
_geom_bond_site_symmetry_2
_ccdc_geom_bond_type
Zn0 N4 2.020 . S
Zn0 O8 2.019 . S
Zn0 N10 2.119 . S
Zn0 O18 1.975 . S
C1 N2 1.334 . S
C1 N5 1.336 1_565 S
N2 C1 1.334 . S
N2 C3 1.334 1_565 S
C3 N2 1.334 1_545 S
C3 N4 1.336 . S
N4 Zn0 2.020 . S
N4 C3 1.336 . S
N4 N5 1.354 . S
N5 C1 1.336 1_545 S
N5 N4 1.354 . S
N5 Zn9 2.020 . S
C6 O7 1.244 . S
C6 O30 1.257 1_565 S
O7 C6 1.244 . S
O8 Zn0 2.019 . S
O8 C28 1.257 . S
Zn9 N5 2.020 . S
Zn9 O16 1.975 . S
Zn9 N25 2.119 . S
Zn9 O30 2.019 . S
N10 Zn0 2.119 . S
N10 C12 1.334 . S
N10 C13 1.328 . S
C11 C12 1.391 . S
C11 N14 1.329 . S
C11 H32 0.930 . S
C12 N10 1.334 . S
C12 C11 1.391 . S
C12 H19 0.930 . S
C13 N10 1.328 . S
C13 C15 1.392 . S
C13 H20 0.930 . S
N14 C11 1.329 . S
N14 C15 1.331 . S
C15 C13 1.392 . S
C15 N14 1.331 . S
O16 Zn9 1.975 . S
O16 C17 1.252 . S
C17 O16 1.252 . S
C17 O18 1.252 . S
O18 Zn0 1.975 . S
O18 C17 1.252 . S
H19 C12 0.930 . S
H20 C13 0.930 . S
C21 C22 1.392 . S
C21 N25 1.328 . S
C21 H27 0.930 . S
C22 C21 1.392 . S
C22 N26 1.331 . S
C23 C24 1.391 . S
C23 N26 1.329 . S
C23 H33 0.930 . S
C24 C23 1.391 . S
C24 N25 1.334 . S
C24 H31 0.930 . S
N25 Zn9 2.119 . S
N25 C21 1.328 . S
N25 C24 1.334 . S
N26 C22 1.331 . S
N26 C23 1.329 . S
H27 C21 0.930 . S
C28 O8 1.257 . S
C28 O29 1.244 . S
O29 C28 1.244 . S
O30 C6 1.257 1_545 S
O30 Zn9 2.019 . S
H31 C24 0.930 . S
H32 C11 0.930 . S
H33 C23 0.930 . S
Zn34 N38 2.020 . S
Zn34 O42 2.019 . S
Zn34 N44 2.119 . S
Zn34 O52 1.975 . S
C35 N36 1.334 . S
C35 N39 1.336 . S
N36 C35 1.334 . S
N36 C37 1.334 . S
C37 N36 1.334 . S
C37 N38 1.336 . S
N38 Zn34 2.020 . S
N38 C37 1.336 . S
N38 N39 1.354 . S
N39 C35 1.336 . S
N39 N38 1.354 . S
N39 Zn43 2.020 . S
C40 O41 1.244 . S
C40 O64 1.257 . S
O41 C40 1.244 . S
O42 Zn34 2.019 . S
O42 C62 1.257 . S
Zn43 N39 2.020 . S
Zn43 O50 1.975 . S
Zn43 N59 2.119 . S
Zn43 O64 2.019 . S
N44 Zn34 2.119 . S
N44 C46 1.334 . S
N44 C47 1.328 . S
C45 C46 1.391 . S
C45 N48 1.329 . S
C45 H66 0.930 . S
C46 N44 1.334 . S
C46 C45 1.391 . S
C46 H53 0.930 . S
C47 N44 1.328 . S
C47 C49 1.392 . S
C47 H54 0.930 . S
N48 C45 1.329 . S
N48 C49 1.331 . S
C49 C47 1.392 . S
C49 N48 1.331 . S
O50 Zn43 1.975 . S
O50 C51 1.252 . S
C51 O50 1.252 . S
C51 O52 1.252 . S
O52 Zn34 1.975 . S
O52 C51 1.252 . S
H53 C46 0.930 . S
H54 C47 0.930 . S
C55 C56 1.392 . S
C55 N59 1.328 . S
C55 H61 0.930 . S
C56 C55 1.392 . S
C56 N60 1.331 . S
C57 C58 1.391 . S
C57 N60 1.329 . S
C57 H67 0.930 . S
C58 C57 1.391 . S
C58 N59 1.334 . S
C58 H65 0.930 . S
N59 Zn43 2.119 . S
N59 C55 1.328 . S
N59 C58 1.334 . S
N60 C56 1.331 . S
N60 C57 1.329 . S
H61 C55 0.930 . S
C62 O42 1.257 . S
C62 O63 1.244 . S
O63 C62 1.244 . S
O64 C40 1.257 . S
O64 Zn43 2.019 . S
H65 C58 0.930 . S
H66 C45 0.930 . S
H67 C57 0.930 . S
Zn68 N72 2.020 . S
Zn68 O76 2.019 . S
Zn68 N78 2.119 . S
Zn68 O86 1.975 . S
C69 N70 1.334 . S
C69 N73 1.336 . S
N70 C69 1.334 . S
N70 C71 1.334 . S
C71 N70 1.334 . S
C71 N72 1.336 . S
N72 Zn68 2.020 . S
N72 C71 1.336 . S
N72 N73 1.354 . S
N73 C69 1.336 . S
N73 N72 1.354 . S
N73 Zn77 2.020 . S
C74 O75 1.244 . S
C74 O98 1.257 . S
O75 C74 1.244 . S
O76 Zn68 2.019 . S
O76 C96 1.257 . S
Zn77 N73 2.020 . S
Zn77 O84 1.975 . S
Zn77 N93 2.119 . S
Zn77 O98 2.019 . S
N78 Zn68 2.119 . S
N78 C80 1.334 . S
N78 C81 1.328 . S
C79 C80 1.391 . S
C79 N82 1.329 . S
C79 H100 0.930 . S
C80 N78 1.334 . S
C80 C79 1.391 . S
C80 H87 0.930 . S
C81 N78 1.328 . S
C81 C83 1.392 . S
C81 H88 0.930 . S
N82 C79 1.329 . S
N82 C83 1.331 . S
C83 C81 1.392 . S
C83 N82 1.331 . S
O84 Zn77 1.975 . S
O84 C85 1.252 . S
C85 O84 1.252 . S
C85 O86 1.252 . S
O86 Zn68 1.975 . S
O86 C85 1.252 . S
H87 C80 0.930 . S
H88 C81 0.930 . S
C89 C90 1.392 . S
C89 N93 1.328 . S
C89 H95 0.930 . S
C90 C89 1.392 . S
C90 N94 1.331 . S
C91 C92 1.391 . S
C91 N94 1.329 . S
C91 H101 0.930 . S
C92 C91 1.391 . S
C92 N93 1.334 . S
C92 H99 0.930 . S
N93 Zn77 2.119 . S
N93 C89 1.328 . S
N93 C92 1.334 . S
N94 C90 1.331 . S
N94 C91 1.329 . S
H95 C89 0.930 . S
C96 O76 1.257 . S
C96 O97 1.244 . S
O97 C96 1.244 . S
O98 C74 1.257 . S
O98 Zn77 2.019 . S
H99 C92 0.930 . S
H100 C79 0.930 . S
H101 C91 0.930 . S
Zn102 N106 2.020 . S
Zn102 O110 2.019 . S
Zn102 N112 2.119 . S
Zn102 O120 1.975 . S
C103 N104 1.334 1_455 S
C103 N107 1.336 . S
N104 C103 1.334 1_655 S
N104 C105 1.334 . S
C105 N104 1.334 . S
C105 N106 1.336 1_655 S
N106 Zn102 2.020 . S
N106 C105 1.336 1_455 S
N106 N107 1.354 . S
N107 C103 1.336 . S
N107 N106 1.354 . S
N107 Zn111 2.020 . S
C108 O109 1.244 . S
C108 O132 1.257 . S
O109 C108 1.244 . S
O110 Zn102 2.019 . S
O110 C130 1.257 1_455 S
Zn111 N107 2.020 . S
Zn111 O118 1.975 . S
Zn111 N127 2.119 . S
Zn111 O132 2.019 . S
N112 Zn102 2.119 . S
N112 C114 1.334 . S
N112 C115 1.328 . S
C113 C114 1.391 . S
C113 N116 1.329 . S
C113 H134 0.930 . S
C114 N112 1.334 . S
C114 C113 1.391 . S
C114 H121 0.930 . S
C115 N112 1.328 . S
C115 C117 1.392 . S
C115 H122 0.930 . S
N116 C113 1.329 . S
N116 C117 1.331 . S
C117 C115 1.392 . S
C117 N116 1.331 . S
O118 Zn111 1.975 . S
O118 C119 1.252 . S
C119 O118 1.252 . S
C119 O120 1.252 . S
O120 Zn102 1.975 . S
O120 C119 1.252 . S
H121 C114 0.930 . S
H122 C115 0.930 . S
C123 C124 1.392 . S
C123 N127 1.328 . S
C123 H129 0.930 . S
C124 C123 1.392 . S
C124 N128 1.331 . S
C125 C126 1.391 . S
C125 N128 1.329 . S
C125 H135 0.930 . S
C126 C125 1.391 . S
C126 N127 1.334 . S
C126 H133 0.930 . S
N127 Zn111 2.119 . S
N127 C123 1.328 . S
N127 C126 1.334 . S
N128 C124 1.331 . S
N128 C125 1.329 . S
H129 C123 0.930 . S
C130 O110 1.257 1_655 S
C130 O131 1.244 . S
O131 C130 1.244 . S
O132 C108 1.257 . S
O132 Zn111 2.019 . S
H133 C126 0.930 . S
H134 C113 0.930 . S
H135 C125 0.930 . S
Zn136 N140 2.020 . S
Zn136 O144 2.019 . S
Zn136 N146 2.119 . S
Zn136 O154 1.975 . S
C137 N138 1.334 1_565 S
C137 N141 1.336 . S
N138 C137 1.334 1_545 S
N138 C139 1.334 . S
C139 N138 1.334 . S
C139 N140 1.336 1_545 S
N140 Zn136 2.020 . S
N140 C139 1.336 1_565 S
N140 N141 1.354 . S
N141 C137 1.336 . S
N141 N140 1.354 . S
N141 Zn145 2.020 . S
C142 O143 1.244 . S
C142 O166 1.257 . S
O143 C142 1.244 . S
O144 Zn136 2.019 . S
O144 C164 1.257 1_565 S
Zn145 N141 2.020 . S
Zn145 O152 1.975 . S
Zn145 N161 2.119 . S
Zn145 O166 2.019 . S
N146 Zn136 2.119 . S
N146 C148 1.334 . S
N146 C149 1.328 . S
C147 C148 1.391 . S
C147 N150 1.329 . S
C147 H168 0.930 . S
C148 N146 1.334 . S
C148 C147 1.391 . S
C148 H155 0.930 . S
C149 N146 1.328 . S
C149 C151 1.392 . S
C149 H156 0.930 . S
N150 C147 1.329 . S
N150 C151 1.331 . S
C151 C149 1.392 . S
C151 N150 1.331 . S
O152 Zn145 1.975 . S
O152 C153 1.252 . S
C153 O152 1.252 . S
C153 O154 1.252 . S
O154 Zn136 1.975 . S
O154 C153 1.252 . S
H155 C148 0.930 . S
H156 C149 0.930 . S
C157 C158 1.392 . S
C157 N161 1.328 . S
C157 H163 0.930 . S
C158 C157 1.392 . S
C158 N162 1.331 . S
C159 C160 1.391 . S
C159 N162 1.329 . S
C159 H169 0.930 . S
C160 C159 1.391 . S
C160 N161 1.334 . S
C160 H167 0.930 . S
N161 Zn145 2.119 . S
N161 C157 1.328 . S
N161 C160 1.334 . S
N162 C158 1.331 . S
N162 C159 1.329 . S
H163 C157 0.930 . S
C164 O144 1.257 1_545 S
C164 O165 1.244 . S
O165 C164 1.244 . S
O166 C142 1.257 . S
O166 Zn145 2.019 . S
H167 C160 0.930 . S
H168 C147 0.930 . S
H169 C159 0.930 . S
Zn170 N174 2.020 . S
Zn170 O178 2.019 . S
Zn170 N180 2.119 . S
Zn170 O188 1.975 . S
C171 N172 1.334 . S
C171 N175 1.336 . S
N172 C171 1.334 . S
N172 C173 1.334 . S
C173 N172 1.334 . S
C173 N174 1.336 . S
N174 Zn170 2.020 . S
N174 C173 1.336 . S
N174 N175 1.354 . S
N175 C171 1.336 . S
N175 N174 1.354 . S
N175 Zn179 2.020 . S
C176 O177 1.244 . S
C176 O200 1.257 . S
O177 C176 1.244 . S
O178 Zn170 2.019 . S
O178 C198 1.257 . S
Zn179 N175 2.020 . S
Zn179 O186 1.975 . S
Zn179 N195 2.119 . S
Zn179 O200 2.019 . S
N180 Zn170 2.119 . S
N180 C182 1.334 . S
N180 C183 1.328 . S
C181 C182 1.391 . S
C181 N184 1.329 . S
C181 H202 0.930 . S
C182 N180 1.334 . S
C182 C181 1.391 . S
C182 H189 0.930 . S
C183 N180 1.328 . S
C183 C185 1.392 . S
C183 H190 0.930 . S
N184 C181 1.329 . S
N184 C185 1.331 . S
C185 C183 1.392 . S
C185 N184 1.331 . S
O186 Zn179 1.975 . S
O186 C187 1.252 . S
C187 O186 1.252 . S
C187 O188 1.252 . S
O188 Zn170 1.975 . S
O188 C187 1.252 . S
H189 C182 0.930 . S
H190 C183 0.930 . S
C191 C192 1.392 . S
C191 N195 1.328 . S
C191 H197 0.930 . S
C192 C191 1.392 . S
C192 N196 1.331 . S
C193 C194 1.391 . S
C193 N196 1.329 . S
C193 H203 0.930 . S
C194 C193 1.391 . S
C194 N195 1.334 . S
C194 H201 0.930 . S
N195 Zn179 2.119 . S
N195 C191 1.328 . S
N195 C194 1.334 . S
N196 C192 1.331 . S
N196 C193 1.329 . S
H197 C191 0.930 . S
C198 O178 1.257 . S
C198 O199 1.244 . S
O199 C198 1.244 . S
O200 C176 1.257 . S
O200 Zn179 2.019 . S
H201 C194 0.930 . S
H202 C181 0.930 . S
H203 C193 0.930 . S
Zn204 N208 2.020 . S
Zn204 O212 2.019 . S
Zn204 N214 2.119 . S
Zn204 O222 1.975 . S
C205 N206 1.334 . S
C205 N209 1.336 . S
N206 C205 1.334 . S
N206 C207 1.334 . S
C207 N206 1.334 . S
C207 N208 1.336 . S
N208 Zn204 2.020 . S
N208 C207 1.336 . S
N208 N209 1.354 . S
N209 C205 1.336 . S
N209 N208 1.354 . S
N209 Zn213 2.020 . S
C210 O211 1.244 . S
C210 O234 1.257 . S
O211 C210 1.244 . S
O212 Zn204 2.019 . S
O212 C232 1.257 . S
Zn213 N209 2.020 . S
Zn213 O220 1.975 . S
Zn213 N229 2.119 . S
Zn213 O234 2.019 . S
N214 Zn204 2.119 . S
N214 C216 1.334 . S
N214 C217 1.328 . S
C215 C216 1.391 . S
C215 N218 1.329 . S
C215 H236 0.930 . S
C216 N214 1.334 . S
C216 C215 1.391 . S
C216 H223 0.930 . S
C217 N214 1.328 . S
C217 C219 1.392 . S
C217 H224 0.930 . S
N218 C215 1.329 . S
N218 C219 1.331 . S
C219 C217 1.392 . S
C219 N218 1.331 . S
O220 Zn213 1.975 . S
O220 C221 1.252 . S
C221 O220 1.252 . S
C221 O222 1.252 . S
O222 Zn204 1.975 . S
O222 C221 1.252 . S
H223 C216 0.930 . S
H224 C217 0.930 . S
C225 C226 1.392 . S
C225 N229 1.328 . S
C225 H231 0.930 . S
C226 C225 1.392 . S
C226 N230 1.331 . S
C227 C228 1.391 . S
C227 N230 1.329 . S
C227 H237 0.930 . S
C228 C227 1.391 . S
C228 N229 1.334 . S
C228 H235 0.930 . S
N229 Zn213 2.119 . S
N229 C225 1.328 . S
N229 C228 1.334 . S
N230 C226 1.331 . S
N230 C227 1.329 . S
H231 C225 0.930 . S
C232 O212 1.257 . S
C232 O233 1.244 . S
O233 C232 1.244 . S
O234 C210 1.257 . S
O234 Zn213 2.019 . S
H235 C228 0.930 . S
H236 C215 0.930 . S
H237 C227 0.930 . S
Zn238 N242 2.020 . S
Zn238 O246 2.019 . S
Zn238 N248 2.119 . S
Zn238 O256 1.975 . S
C239 N240 1.334 . S
C239 N243 1.336 1_455 S
N240 C239 1.334 . S
N240 C241 1.334 1_455 S
C241 N240 1.334 1_655 S
C241 N242 1.336 . S
N242 Zn238 2.020 . S
N242 C241 1.336 . S
N242 N243 1.354 . S
N243 C239 1.336 1_655 S
N243 N242 1.354 . S
N243 Zn247 2.020 . S
C244 O245 1.244 . S
C244 O268 1.257 1_455 S
O245 C244 1.244 . S
O246 Zn238 2.019 . S
O246 C266 1.257 . S
Zn247 N243 2.020 . S
Zn247 O254 1.975 . S
Zn247 N263 2.119 . S
Zn247 O268 2.019 . S
N248 Zn238 2.119 . S
N248 C250 1.334 . S
N248 C251 1.328 . S
C249 C250 1.391 . S
C249 N252 1.329 . S
C249 H270 0.930 . S
C250 N248 1.334 . S
C250 C249 1.391 . S
C250 H257 0.930 . S
C251 N248 1.328 . S
C251 C253 1.392 . S
C251 H258 0.930 . S
N252 C249 1.329 . S
N252 C253 1.331 . S
C253 C251 1.392 . S
C253 N252 1.331 . S
O254 Zn247 1.975 . S
O254 C255 1.252 . S
C255 O254 1.252 . S
C255 O256 1.252 . S
O256 Zn238 1.975 . S
O256 C255 1.252 . S
H257 C250 0.930 . S
H258 C251 0.930 . S
C259 C260 1.392 . S
C259 N263 1.328 . S
C259 H265 0.930 . S
C260 C259 1.392 . S
C260 N264 1.331 . S
C261 C262 1.391 . S
C261 N264 1.329 . S
C261 H271 0.930 . S
C262 C261 1.391 . S
C262 N263 1.334 . S
C262 H269 0.930 . S
N263 Zn247 2.119 . S
N263 C259 1.328 . S
N263 C262 1.334 . S
N264 C260 1.331 . S
N264 C261 1.329 . S
H265 C259 0.930 . S
C266 O246 1.257 . S
C266 O267 1.244 . S
O267 C266 1.244 . S
O268 C244 1.257 1_655 S
O268 Zn247 2.019 . S
H269 C262 0.930 . S
H270 C249 0.930 . S
H271 C261 0.930 . S
Zn272 N276 2.020 . S
Zn272 O280 2.019 . S
Zn272 N282 2.119 . S
Zn272 O290 1.975 . S
C273 N274 1.334 . S
C273 N277 1.336 1_545 S
N274 C273 1.334 . S
N274 C275 1.334 1_545 S
C275 N274 1.334 1_565 S
C275 N276 1.336 . S
N276 Zn272 2.020 . S
N276 C275 1.336 . S
N276 N277 1.354 . S
N277 C273 1.336 1_565 S
N277 N276 1.354 . S
N277 Zn281 2.020 . S
C278 O279 1.244 . S
C278 O302 1.257 1_545 S
O279 C278 1.244 . S
O280 Zn272 2.019 . S
O280 C300 1.257 . S
Zn281 N277 2.020 . S
Zn281 O288 1.975 . S
Zn281 N297 2.119 . S
Zn281 O302 2.019 . S
N282 Zn272 2.119 . S
N282 C284 1.334 . S
N282 C285 1.328 . S
C283 C284 1.391 . S
C283 N286 1.329 . S
C283 H304 0.930 . S
C284 N282 1.334 . S
C284 C283 1.391 . S
C284 H291 0.930 . S
C285 N282 1.328 . S
C285 C287 1.392 . S
C285 H292 0.930 . S
N286 C283 1.329 . S
N286 C287 1.331 . S
C287 C285 1.392 . S
C287 N286 1.331 . S
O288 Zn281 1.975 . S
O288 C289 1.252 . S
C289 O288 1.252 . S
C289 O290 1.252 . S
O290 Zn272 1.975 . S
O290 C289 1.252 . S
H291 C284 0.930 . S
H292 C285 0.930 . S
C293 C294 1.392 . S
C293 N297 1.328 . S
C293 H299 0.930 . S
C294 C293 1.392 . S
C294 N298 1.331 . S
C295 C296 1.391 . S
C295 N298 1.329 . S
C295 H305 0.930 . S
C296 C295 1.391 . S
C296 N297 1.334 . S
C296 H303 0.930 . S
N297 Zn281 2.119 . S
N297 C293 1.328 . S
N297 C296 1.334 . S
N298 C294 1.331 . S
N298 C295 1.329 . S
H299 C293 0.930 . S
C300 O280 1.257 . S
C300 O301 1.244 . S
O301 C300 1.244 . S
O302 C278 1.257 1_565 S
O302 Zn281 2.019 . S
H303 C296 0.930 . S
H304 C283 0.930 . S
H305 C295 0.930 . S
Zn306 N310 2.020 . S
Zn306 O314 2.019 . S
Zn306 N316 2.119 . S
Zn306 O324 1.975 . S
C307 N308 1.334 . S
C307 N311 1.336 . S
N308 C307 1.334 . S
N308 C309 1.334 . S
C309 N308 1.334 . S
C309 N310 1.336 . S
N310 Zn306 2.020 . S
N310 C309 1.336 . S
N310 N311 1.354 . S
N311 C307 1.336 . S
N311 N310 1.354 . S
N311 Zn315 2.020 . S
C312 O313 1.244 . S
C312 O336 1.257 . S
O313 C312 1.244 . S
O314 Zn306 2.019 . S
O314 C334 1.257 . S
Zn315 N311 2.020 . S
Zn315 O322 1.975 . S
Zn315 N331 2.119 . S
Zn315 O336 2.019 . S
N316 Zn306 2.119 . S
N316 C318 1.334 . S
N316 C319 1.328 . S
C317 C318 1.391 . S
C317 N320 1.329 . S
C317 H338 0.930 . S
C318 N316 1.334 . S
C318 C317 1.391 . S
C318 H325 0.930 . S
C319 N316 1.328 . S
C319 C321 1.392 . S
C319 H326 0.930 . S
N320 C317 1.329 . S
N320 C321 1.331 . S
C321 C319 1.392 . S
C321 N320 1.331 . S
O322 Zn315 1.975 . S
O322 C323 1.252 . S
C323 O322 1.252 . S
C323 O324 1.252 . S
O324 Zn306 1.975 . S
O324 C323 1.252 . S
H325 C318 0.930 . S
H326 C319 0.930 . S
C327 C328 1.392 . S
C327 N331 1.328 . S
C327 H333 0.930 . S
C328 C327 1.392 . S
C328 N332 1.331 . S
C329 C330 1.391 . S
C329 N332 1.329 . S
C329 H339 0.930 . S
C330 C329 1.391 . S
C330 N331 1.334 . S
C330 H337 0.930 . S
N331 Zn315 2.119 . S
N331 C327 1.328 . S
N331 C330 1.334 . S
N332 C328 1.331 . S
N332 C329 1.329 . S
H333 C327 0.930 . S
C334 O314 1.257 . S
C334 O335 1.244 . S
O335 C334 1.244 . S
O336 C312 1.257 . S
O336 Zn315 2.019 . S
H337 C330 0.930 . S
H338 C317 0.930 . S
H339 C329 0.930 . S
Zn340 N344 2.020 . S
Zn340 O348 2.019 . S
Zn340 N350 2.119 . S
Zn340 O358 1.975 . S
C341 N342 1.334 . S
C341 N345 1.336 . S
N342 C341 1.334 . S
N342 C343 1.334 . S
C343 N342 1.334 . S
C343 N344 1.336 . S
N344 Zn340 2.020 . S
N344 C343 1.336 . S
N344 N345 1.354 . S
N345 C341 1.336 . S
N345 N344 1.354 . S
N345 Zn349 2.020 . S
C346 O347 1.244 . S
C346 O370 1.257 . S
O347 C346 1.244 . S
O348 Zn340 2.019 . S
O348 C368 1.257 . S
Zn349 N345 2.020 . S
Zn349 O356 1.975 . S
Zn349 N365 2.119 . S
Zn349 O370 2.019 . S
N350 Zn340 2.119 . S
N350 C352 1.334 . S
N350 C353 1.328 . S
C351 C352 1.391 . S
C351 N354 1.329 . S
C351 H372 0.930 . S
C352 N350 1.334 . S
C352 C351 1.391 . S
C352 H359 0.930 . S
C353 N350 1.328 . S
C353 C355 1.392 . S
C353 H360 0.930 . S
N354 C351 1.329 . S
N354 C355 1.331 . S
C355 C353 1.392 . S
C355 N354 1.331 . S
O356 Zn349 1.975 . S
O356 C357 1.252 . S
C357 O356 1.252 . S
C357 O358 1.252 . S
O358 Zn340 1.975 . S
O358 C357 1.252 . S
H359 C352 0.930 . S
H360 C353 0.930 . S
C361 C362 1.392 . S
C361 N365 1.328 . S
C361 H367 0.930 . S
C362 C361 1.392 . S
C362 N366 1.331 . S
C363 C364 1.391 . S
C363 N366 1.329 . S
C363 H373 0.930 . S
C364 C363 1.391 . S
C364 N365 1.334 . S
C364 H371 0.930 . S
N365 Zn349 2.119 . S
N365 C361 1.328 . S
N365 C364 1.334 . S
N366 C362 1.331 . S
N366 C363 1.329 . S
H367 C361 0.930 . S
C368 O348 1.257 . S
C368 O369 1.244 . S
O369 C368 1.244 . S
O370 C346 1.257 . S
O370 Zn349 2.019 . S
H371 C364 0.930 . S
H372 C351 0.930 . S
H373 C363 0.930 . S
Zn374 N378 2.020 . S
Zn374 O382 2.019 . S
Zn374 N384 2.119 . S
Zn374 O392 1.975 . S
C375 N376 1.334 1_655 S
C375 N379 1.336 . S
N376 C375 1.334 1_455 S
N376 C377 1.334 . S
C377 N376 1.334 . S
C377 N378 1.336 1_455 S
N378 Zn374 2.020 . S
N378 C377 1.336 1_655 S
N378 N379 1.354 . S
N379 C375 1.336 . S
N379 N378 1.354 . S
N379 Zn383 2.020 . S
C380 O381 1.244 . S
C380 O404 1.257 . S
O381 C380 1.244 . S
O382 Zn374 2.019 . S
O382 C402 1.257 1_655 S
Zn383 N379 2.020 . S
Zn383 O390 1.975 . S
Zn383 N399 2.119 . S
Zn383 O404 2.019 . S
N384 Zn374 2.119 . S
N384 C386 1.334 . S
N384 C387 1.328 . S
C385 C386 1.391 . S
C385 N388 1.329 . S
C385 H406 0.930 . S
C386 N384 1.334 . S
C386 C385 1.391 . S
C386 H393 0.930 . S
C387 N384 1.328 . S
C387 C389 1.392 . S
C387 H394 0.930 . S
N388 C385 1.329 . S
N388 C389 1.331 . S
C389 C387 1.392 . S
C389 N388 1.331 . S
O390 Zn383 1.975 . S
O390 C391 1.252 . S
C391 O390 1.252 . S
C391 O392 1.252 . S
O392 Zn374 1.975 . S
O392 C391 1.252 . S
H393 C386 0.930 . S
H394 C387 0.930 . S
C395 C396 1.392 . S
C395 N399 1.328 . S
C395 H401 0.930 . S
C396 C395 1.392 . S
C396 N400 1.331 . S
C397 C398 1.391 . S
C397 N400 1.329 . S
C397 H407 0.930 . S
C398 C397 1.391 . S
C398 N399 1.334 . S
C398 H405 0.930 . S
N399 Zn383 2.119 . S
N399 C395 1.328 . S
N399 C398 1.334 . S
N400 C396 1.331 . S
N400 C397 1.329 . S
H401 C395 0.930 . S
C402 O382 1.257 1_455 S
C402 O403 1.244 . S
O403 C402 1.244 . S
O404 C380 1.257 . S
O404 Zn383 2.019 . S
H405 C398 0.930 . S
H406 C385 0.930 . S
H407 C397 0.930 . S
Zn408 N412 2.020 . S
Zn408 O416 2.019 . S
Zn408 N418 2.119 . S
Zn408 O426 1.975 . S
C409 N410 1.334 1_545 S
C409 N413 1.336 . S
N410 C409 1.334 1_565 S
N410 C411 1.334 . S
C411 N410 1.334 . S
C411 N412 1.336 1_565 S
N412 Zn408 2.020 . S
N412 C411 1.336 1_545 S
N412 N413 1.354 . S
N413 C409 1.336 . S
N413 N412 1.354 . S
N413 Zn417 2.020 . S
C414 O415 1.244 . S
C414 O438 1.257 . S
O415 C414 1.244 . S
O416 Zn408 2.019 . S
O416 C436 1.257 1_545 S
Zn417 N413 2.020 . S
Zn417 O424 1.975 . S
Zn417 N433 2.119 . S
Zn417 O438 2.019 . S
N418 Zn408 2.119 . S
N418 C420 1.334 . S
N418 C421 1.328 . S
C419 C420 1.391 . S
C419 N422 1.329 . S
C419 H440 0.930 . S
C420 N418 1.334 . S
C420 C419 1.391 . S
C420 H427 0.930 . S
C421 N418 1.328 . S
C421 C423 1.392 . S
C421 H428 0.930 . S
N422 C419 1.329 . S
N422 C423 1.331 . S
C423 C421 1.392 . S
C423 N422 1.331 . S
O424 Zn417 1.975 . S
O424 C425 1.252 . S
C425 O424 1.252 . S
C425 O426 1.252 . S
O426 Zn408 1.975 . S
O426 C425 1.252 . S
H427 C420 0.930 . S
H428 C421 0.930 . S
C429 C430 1.392 . S
C429 N433 1.328 . S
C429 H435 0.930 . S
C430 C429 1.392 . S
C430 N434 1.331 . S
C431 C432 1.391 . S
C431 N434 1.329 . S
C431 H441 0.930 . S
C432 C431 1.391 . S
C432 N433 1.334 . S
C432 H439 0.930 . S
N433 Zn417 2.119 . S
N433 C429 1.328 . S
N433 C432 1.334 . S
N434 C430 1.331 . S
N434 C431 1.329 . S
H435 C429 0.930 . S
C436 O416 1.257 1_565 S
C436 O437 1.244 . S
O437 C436 1.244 . S
O438 C414 1.257 . S
O438 Zn417 2.019 . S
H439 C432 0.930 . S
H440 C419 0.930 . S
H441 C431 0.930 . S
Zn442 N446 2.020 . S
Zn442 O450 2.019 . S
Zn442 N452 2.119 . S
Zn442 O460 1.975 . S
C443 N444 1.334 . S
C443 N447 1.336 . S
N444 C443 1.334 . S
N444 C445 1.334 . S
C445 N444 1.334 . S
C445 N446 1.336 . S
N446 Zn442 2.020 . S
N446 C445 1.336 . S
N446 N447 1.354 . S
N447 C443 1.336 . S
N447 N446 1.354 . S
N447 Zn451 2.020 . S
C448 O449 1.244 . S
C448 O472 1.257 . S
O449 C448 1.244 . S
O450 Zn442 2.019 . S
O450 C470 1.257 . S
Zn451 N447 2.020 . S
Zn451 O458 1.975 . S
Zn451 N467 2.119 . S
Zn451 O472 2.019 . S
N452 Zn442 2.119 . S
N452 C454 1.334 . S
N452 C455 1.328 . S
C453 C454 1.391 . S
C453 N456 1.329 . S
C453 H474 0.930 . S
C454 N452 1.334 . S
C454 C453 1.391 . S
C454 H461 0.930 . S
C455 N452 1.328 . S
C455 C457 1.392 . S
C455 H462 0.930 . S
N456 C453 1.329 . S
N456 C457 1.331 . S
C457 C455 1.392 . S
C457 N456 1.331 . S
O458 Zn451 1.975 . S
O458 C459 1.252 . S
C459 O458 1.252 . S
C459 O460 1.252 . S
O460 Zn442 1.975 . S
O460 C459 1.252 . S
H461 C454 0.930 . S
H462 C455 0.930 . S
C463 C464 1.392 . S
C463 N467 1.328 . S
C463 H469 0.930 . S
C464 C463 1.392 . S
C464 N468 1.331 . S
C465 C466 1.391 . S
C465 N468 1.329 . S
C465 H475 0.930 . S
C466 C465 1.391 . S
C466 N467 1.334 . S
C466 H473 0.930 . S
N467 Zn451 2.119 . S
N467 C463 1.328 . S
N467 C466 1.334 . S
N468 C464 1.331 . S
N468 C465 1.329 . S
H469 C463 0.930 . S
C470 O450 1.257 . S
C470 O471 1.244 . S
O471 C470 1.244 . S
O472 C448 1.257 . S
O472 Zn451 2.019 . S
H473 C466 0.930 . S
H474 C453 0.930 . S
H475 C465 0.930 . S
Zn476 N480 2.020 . S
Zn476 O484 2.019 . S
Zn476 N486 2.119 . S
Zn476 O494 1.975 . S
C477 N478 1.334 . S
C477 N481 1.336 . S
N478 C477 1.334 . S
N478 C479 1.334 . S
C479 N478 1.334 . S
C479 N480 1.336 . S
N480 Zn476 2.020 . S
N480 C479 1.336 . S
N480 N481 1.354 . S
N481 C477 1.336 . S
N481 N480 1.354 . S
N481 Zn485 2.020 . S
C482 O483 1.244 . S
C482 O506 1.257 . S
O483 C482 1.244 . S
O484 Zn476 2.019 . S
O484 C504 1.257 . S
Zn485 N481 2.020 . S
Zn485 O492 1.975 . S
Zn485 N501 2.119 . S
Zn485 O506 2.019 . S
N486 Zn476 2.119 . S
N486 C488 1.334 . S
N486 C489 1.328 . S
C487 C488 1.391 . S
C487 N490 1.329 . S
C487 H508 0.930 . S
C488 N486 1.334 . S
C488 C487 1.391 . S
C488 H495 0.930 . S
C489 N486 1.328 . S
C489 C491 1.392 . S
C489 H496 0.930 . S
N490 C487 1.329 . S
N490 C491 1.331 . S
C491 C489 1.392 . S
C491 N490 1.331 . S
O492 Zn485 1.975 . S
O492 C493 1.252 . S
C493 O492 1.252 . S
C493 O494 1.252 . S
O494 Zn476 1.975 . S
O494 C493 1.252 . S
H495 C488 0.930 . S
H496 C489 0.930 . S
C497 C498 1.392 . S
C497 N501 1.328 . S
C497 H503 0.930 . S
C498 C497 1.392 . S
C498 N502 1.331 . S
C499 C500 1.391 . S
C499 N502 1.329 . S
C499 H509 0.930 . S
C500 C499 1.391 . S
C500 N501 1.334 . S
C500 H507 0.930 . S
N501 Zn485 2.119 . S
N501 C497 1.328 . S
N501 C500 1.334 . S
N502 C498 1.331 . S
N502 C499 1.329 . S
H503 C497 0.930 . S
C504 O484 1.257 . S
C504 O505 1.244 . S
O505 C504 1.244 . S
O506 C482 1.257 . S
O506 Zn485 2.019 . S
H507 C500 0.930 . S
H508 C487 0.930 . S
H509 C499 0.930 . S
Zn510 N514 2.020 . S
Zn510 O518 2.019 . S
Zn510 N520 2.119 . S
Zn510 O528 1.975 . S
C511 N512 1.334 1_455 S
C511 N515 1.336 . S
N512 C511 1.334 1_655 S
N512 C513 1.334 . S
C513 N512 1.334 . S
C513 N514 1.336 1_655 S
N514 Zn510 2.020 . S
N514 C513 1.336 1_455 S
N514 N515 1.354 . S
N515 C511 1.336 . S
N515 N514 1.354 . S
N515 Zn519 2.020 . S
C516 O517 1.244 . S
C516 O540 1.257 . S
O517 C516 1.244 . S
O518 Zn510 2.019 . S
O518 C538 1.257 1_455 S
Zn519 N515 2.020 . S
Zn519 O526 1.975 . S
Zn519 N535 2.119 . S
Zn519 O540 2.019 . S
N520 Zn510 2.119 . S
N520 C522 1.334 . S
N520 C523 1.328 . S
C521 C522 1.391 . S
C521 N524 1.329 . S
C521 H542 0.930 . S
C522 N520 1.334 . S
C522 C521 1.391 . S
C522 H529 0.930 . S
C523 N520 1.328 . S
C523 C525 1.392 . S
C523 H530 0.930 . S
N524 C521 1.329 . S
N524 C525 1.331 . S
C525 C523 1.392 . S
C525 N524 1.331 . S
O526 Zn519 1.975 . S
O526 C527 1.252 . S
C527 O526 1.252 . S
C527 O528 1.252 . S
O528 Zn510 1.975 . S
O528 C527 1.252 . S
H529 C522 0.930 . S
H530 C523 0.930 . S
C531 C532 1.392 . S
C531 N535 1.328 . S
C531 H537 0.930 . S
C532 C531 1.392 . S
C532 N536 1.331 . S
C533 C534 1.391 . S
C533 N536 1.329 . S
C533 H543 0.930 . S
C534 C533 1.391 . S
C534 N535 1.334 . S
C534 H541 0.930 . S
N535 Zn519 2.119 . S
N535 C531 1.328 . S
N535 C534 1.334 . S
N536 C532 1.331 . S
N536 C533 1.329 . S
H537 C531 0.930 . S
C538 O518 1.257 1_655 S
C538 O539 1.244 . S
O539 C538 1.244 . S
O540 C516 1.257 . S
O540 Zn519 2.019 . S
H541 C534 0.930 . S
H542 C521 0.930 . S
H543 C533 0.930 . S
H544 C550 0.930 . S
H545 C554 0.930 . S
H546 C559 0.929 . S
H547 C557 0.929 . S
H548 C552 0.929 . S
H549 C558 0.929 . S
C550 H544 0.930 . S
C550 C551 1.367 . S
C550 C558 1.378 . S
C551 C550 1.367 . S
C551 C559 1.433 1_565 S
C552 H548 0.929 . S
C552 C554 1.378 . S
C552 C556 1.350 . S
C553 C556 1.463 1_566 S
C553 C558 1.350 . S
C553 N561 1.427 1_565 S
C554 H545 0.930 . S
C554 C552 1.378 . S
C554 C555 1.367 . S
C555 C554 1.367 . S
C555 C557 1.433 1_545 S
C556 C552 1.350 . S
C556 C553 1.463 1_544 S
C556 N560 1.427 1_545 S
C557 H547 0.929 . S
C557 C555 1.433 1_565 S
C557 N560 1.384 . S
C558 H549 0.929 . S
C558 C550 1.378 . S
C558 C553 1.350 . S
C559 H546 0.929 . S
C559 C551 1.433 1_545 S
C559 N561 1.384 . S
N560 C556 1.427 1_565 S
N560 C557 1.384 . S
N561 C553 1.427 1_545 S
N561 C559 1.384 . S
H562 C568 0.930 . S
H563 C572 0.930 . S
H564 C577 0.929 . S
H565 C575 0.929 . S
H566 C570 0.929 . S
H567 C576 0.929 . S
C568 H562 0.930 . S
C568 C569 1.367 . S
C568 C576 1.378 . S
C569 C568 1.367 . S
C569 C577 1.433 . S
C570 H566 0.929 . S
C570 C572 1.378 . S
C570 C574 1.350 . S
C571 C574 1.463 1_554 S
C571 C576 1.350 . S
C571 N579 1.427 . S
C572 H563 0.930 . S
C572 C570 1.378 . S
C572 C573 1.367 . S
C573 C572 1.367 . S
C573 C575 1.433 . S
C574 C570 1.350 . S
C574 C571 1.463 1_556 S
C574 N578 1.427 . S
C575 H565 0.929 . S
C575 C573 1.433 . S
C575 N578 1.384 . S
C576 H567 0.929 . S
C576 C568 1.378 . S
C576 C571 1.350 . S
C577 H564 0.929 . S
C577 C569 1.433 . S
C577 N579 1.384 . S
N578 C574 1.427 . S
N578 C575 1.384 . S
N579 C571 1.427 . S
N579 C577 1.384 . S
H580 C586 0.930 . S
H581 C590 0.930 . S
H582 C595 0.929 . S
H583 C593 0.929 . S
H584 C588 0.929 . S
H585 C594 0.929 . S
C586 H580 0.930 . S
C586 C587 1.367 . S
C586 C594 1.378 . S
C587 C586 1.367 . S
C587 C595 1.433 . S
C588 H584 0.929 . S
C588 C590 1.378 . S
C588 C592 1.350 . S
C589 C592 1.463 1_456 S
C589 C594 1.350 . S
C589 N597 1.427 . S
C590 H581 0.930 . S
C590 C588 1.378 . S
C590 C591 1.367 . S
C591 C590 1.367 . S
C591 C593 1.433 . S
C592 C588 1.350 . S
C592 C589 1.463 1_654 S
C592 N596 1.427 . S
C593 H583 0.929 . S
C593 C591 1.433 . S
C593 N596 1.384 . S
C594 H585 0.929 . S
C594 C586 1.378 . S
C594 C589 1.350 . S
C595 H582 0.929 . S
C595 C587 1.433 . S
C595 N597 1.384 . S
N596 C592 1.427 . S
N596 C593 1.384 . S
N597 C589 1.427 . S
N597 C595 1.384 . S
H598 C604 0.930 . S
H599 C608 0.930 . S
H600 C613 0.929 . S
H601 C611 0.929 . S
H602 C606 0.929 1_554 S
H603 C612 0.929 1_556 S
C604 H598 0.930 . S
C604 C605 1.367 . S
C604 C612 1.378 . S
C605 C604 1.367 . S
C605 C613 1.433 1_455 S
C606 H602 0.929 1_556 S
C606 C608 1.378 . S
C606 C610 1.350 . S
C607 C610 1.463 1_464 S
C607 C612 1.350 . S
C607 N615 1.427 1_455 S
C608 H599 0.930 . S
C608 C606 1.378 . S
C608 C609 1.367 . S
C609 C608 1.367 . S
C609 C611 1.433 1_655 S
C610 C606 1.350 . S
C610 C607 1.463 1_646 S
C610 N614 1.427 1_655 S
C611 H601 0.929 . S
C611 C609 1.433 1_455 S
C611 N614 1.384 . S
C612 H603 0.929 1_554 S
C612 C604 1.378 . S
C612 C607 1.350 . S
C613 H600 0.929 . S
C613 C605 1.433 1_655 S
C613 N615 1.384 . S
N614 C610 1.427 1_455 S
N614 C611 1.384 . S
N615 C607 1.427 1_655 S
N615 C613 1.384 . S
H616 C622 0.930 . S
H617 C626 0.930 . S
H618 C631 0.929 1_545 S
H619 C629 0.929 1_565 S
H620 C624 0.929 . S
H621 C630 0.929 . S
C622 H616 0.930 . S
C622 C623 1.367 . S
C622 C630 1.378 . S
C623 C622 1.367 . S
C623 C631 1.433 . S
C624 H620 0.929 . S
C624 C626 1.378 . S
C624 C628 1.350 . S
C625 C628 1.463 1_465 S
C625 C630 1.350 . S
C625 N633 1.427 1_465 S
C626 H617 0.930 . S
C626 C624 1.378 . S
C626 C627 1.367 . S
C627 C626 1.367 . S
C627 C629 1.433 . S
C628 C624 1.350 . S
C628 C625 1.463 1_645 S
C628 N632 1.427 1_645 S
C629 H619 0.929 1_545 S
C629 C627 1.433 . S
C629 N632 1.384 1_645 S
C630 H621 0.929 . S
C630 C622 1.378 . S
C630 C625 1.350 . S
C631 H618 0.929 1_565 S
C631 C623 1.433 . S
C631 N633 1.384 1_465 S
N632 C628 1.427 1_465 S
N632 C629 1.384 1_465 S
N633 C625 1.427 1_645 S
N633 C631 1.384 1_645 S
H634 C640 0.930 . S
H635 C644 0.930 . S
H636 C649 0.929 . S
H637 C647 0.929 . S
H638 C642 0.929 . S
H639 C648 0.929 . S
C640 H634 0.930 . S
C640 C641 1.367 . S
C640 C648 1.378 . S
C641 C640 1.367 . S
C641 C649 1.433 . S
C642 H638 0.929 . S
C642 C644 1.378 . S
C642 C646 1.350 . S
C643 C646 1.463 1_545 S
C643 C648 1.350 . S
C643 N651 1.427 . S
C644 H635 0.930 . S
C644 C642 1.378 . S
C644 C645 1.367 . S
C645 C644 1.367 . S
C645 C647 1.433 . S
C646 C642 1.350 . S
C646 C643 1.463 1_565 S
C646 N650 1.427 . S
C647 H637 0.929 . S
C647 C645 1.433 . S
C647 N650 1.384 . S
C648 H639 0.929 . S
C648 C640 1.378 . S
C648 C643 1.350 . S
C649 H636 0.929 . S
C649 C641 1.433 . S
C649 N651 1.384 . S
N650 C646 1.427 . S
N650 C647 1.384 . S
N651 C643 1.427 . S
N651 C649 1.384 . S
H652 C658 0.930 . S
H653 C662 0.930 . S
H654 C667 0.929 . S
H655 C665 0.929 . S
H656 C660 0.929 . S
H657 C666 0.929 . S
C658 H652 0.930 . S
C658 C659 1.367 . S
C658 C666 1.378 . S
C659 C658 1.367 . S
C659 C667 1.433 . S
C660 H656 0.929 . S
C660 C662 1.378 . S
C660 C664 1.350 . S
C661 C664 1.463 . S
C661 C666 1.350 . S
C661 N669 1.427 . S
C662 H653 0.930 . S
C662 C660 1.378 . S
C662 C663 1.367 . S
C663 C662 1.367 . S
C663 C665 1.433 . S
C664 C660 1.350 . S
C664 C661 1.463 . S
C664 N668 1.427 . S
C665 H655 0.929 . S
C665 C663 1.433 . S
C665 N668 1.384 . S
C666 H657 0.929 . S
C666 C658 1.378 . S
C666 C661 1.350 . S
C667 H654 0.929 . S
C667 C659 1.433 . S
C667 N669 1.384 . S
N668 C664 1.427 . S
N668 C665 1.384 . S
N669 C661 1.427 . S
N669 C667 1.384 . S
H670 C676 0.930 . S
H671 C680 0.930 . S
H672 C685 0.929 . S
H673 C683 0.929 . S
H674 C678 0.929 . S
H675 C684 0.929 . S
C676 H670 0.930 . S
C676 C677 1.367 1_655 S
C676 C684 1.378 . S
C677 C676 1.367 1_455 S
C677 C685 1.433 . S
C678 H674 0.929 . S
C678 C680 1.378 . S
C678 C682 1.350 1_455 S
C679 C682 1.463 1_455 S
C679 C684 1.350 1_455 S
C679 N687 1.427 . S
C680 H671 0.930 . S
C680 C678 1.378 . S
C680 C681 1.367 1_455 S
C681 C680 1.367 1_655 S
C681 C683 1.433 . S
C682 C678 1.350 1_655 S
C682 C679 1.463 1_655 S
C682 N686 1.427 . S
C683 H673 0.929 . S
C683 C681 1.433 . S
C683 N686 1.384 . S
C684 H675 0.929 . S
C684 C676 1.378 . S
C684 C679 1.350 1_655 S
C685 H672 0.929 . S
C685 C677 1.433 . S
C685 N687 1.384 . S
N686 C682 1.427 . S
N686 C683 1.384 . S
N687 C679 1.427 . S
N687 C685 1.384 . S
H688 C694 0.930 . S
H689 C698 0.930 . S
H690 C703 0.929 . S
H691 C701 0.929 . S
H692 C696 0.929 . S
H693 C702 0.929 . S
C694 H688 0.930 . S
C694 C695 1.367 . S
C694 C702 1.378 . S
C695 C694 1.367 . S
C695 C703 1.433 . S
C696 H692 0.929 . S
C696 C698 1.378 . S
C696 C700 1.350 . S
C697 C700 1.463 . S
C697 C702 1.350 . S
C697 N705 1.427 . S
C698 H689 0.930 . S
C698 C696 1.378 . S
C698 C699 1.367 . S
C699 C698 1.367 . S
C699 C701 1.433 . S
C700 C696 1.350 . S
C700 C697 1.463 . S
C700 N704 1.427 . S
C701 H691 0.929 . S
C701 C699 1.433 . S
C701 N704 1.384 . S
C702 H693 0.929 . S
C702 C694 1.378 . S
C702 C697 1.350 . S
C703 H690 0.929 . S
C703 C695 1.433 . S
C703 N705 1.384 . S
N704 C700 1.427 . S
N704 C701 1.384 . S
N705 C697 1.427 . S
N705 C703 1.384 . S
H706 C712 0.930 . S
H707 C716 0.930 . S
H708 C721 0.929 . S
H709 C719 0.929 . S
H710 C714 0.929 . S
H711 C720 0.929 . S
C712 H706 0.930 . S
C712 C713 1.367 . S
C712 C720 1.378 . S
C713 C712 1.367 . S
C713 C721 1.433 . S
C714 H710 0.929 . S
C714 C716 1.378 . S
C714 C718 1.350 . S
C715 C718 1.463 . S
C715 C720 1.350 . S
C715 N723 1.427 . S
C716 H707 0.930 . S
C716 C714 1.378 . S
C716 C717 1.367 . S
C717 C716 1.367 . S
C717 C719 1.433 . S
C718 C714 1.350 . S
C718 C715 1.463 . S
C718 N722 1.427 . S
C719 H709 0.929 . S
C719 C717 1.433 . S
C719 N722 1.384 . S
C720 H711 0.929 . S
C720 C712 1.378 . S
C720 C715 1.350 . S
C721 H708 0.929 . S
C721 C713 1.433 . S
C721 N723 1.384 . S
N722 C718 1.427 . S
N722 C719 1.384 . S
N723 C715 1.427 . S
N723 C721 1.384 . S
H724 C730 0.930 . S
H725 C734 0.930 . S
H726 C739 0.929 . S
H727 C737 0.929 . S
H728 C732 0.929 . S
H729 C738 0.929 . S
C730 H724 0.930 . S
C730 C731 1.367 . S
C730 C738 1.378 . S
C731 C730 1.367 . S
C731 C739 1.433 . S
C732 H728 0.929 . S
C732 C734 1.378 . S
C732 C736 1.350 . S
C733 C736 1.463 . S
C733 C738 1.350 . S
C733 N741 1.427 . S
C734 H725 0.930 . S
C734 C732 1.378 . S
C734 C735 1.367 . S
C735 C734 1.367 . S
C735 C737 1.433 . S
C736 C732 1.350 . S
C736 C733 1.463 . S
C736 N740 1.427 . S
C737 H727 0.929 . S
C737 C735 1.433 . S
C737 N740 1.384 . S
C738 H729 0.929 . S
C738 C730 1.378 . S
C738 C733 1.350 . S
C739 H726 0.929 . S
C739 C731 1.433 . S
C739 N741 1.384 . S
N740 C736 1.427 . S
N740 C737 1.384 . S
N741 C733 1.427 . S
N741 C739 1.384 . S
H742 C748 0.930 1_545 S
H743 C752 0.930 . S
H744 C757 0.929 . S
H745 C755 0.929 . S
H746 C750 0.929 . S
H747 C756 0.929 . S
C748 H742 0.930 1_565 S
C748 C749 1.367 . S
C748 C756 1.378 . S
C749 C748 1.367 . S
C749 C757 1.433 . S
C750 H746 0.929 . S
C750 C752 1.378 . S
C750 C754 1.350 . S
C751 C754 1.463 . S
C751 C756 1.350 . S
C751 N759 1.427 . S
C752 H743 0.930 . S
C752 C750 1.378 . S
C752 C753 1.367 . S
C753 C752 1.367 . S
C753 C755 1.433 . S
C754 C750 1.350 . S
C754 C751 1.463 . S
C754 N758 1.427 . S
C755 H745 0.929 . S
C755 C753 1.433 . S
C755 N758 1.384 . S
C756 H747 0.929 . S
C756 C748 1.378 . S
C756 C751 1.350 . S
C757 H744 0.929 . S
C757 C749 1.433 . S
C757 N759 1.384 . S
N758 C754 1.427 . S
N758 C755 1.384 . S
N759 C751 1.427 . S
N759 C757 1.384 . S
H760 C766 0.930 . S
H761 C770 0.930 . S
H762 C775 0.929 . S
H763 C773 0.929 . S
H764 C768 0.929 . S
H765 C774 0.929 . S
C766 H760 0.930 . S
C766 C767 1.367 . S
C766 C774 1.378 . S
C767 C766 1.367 . S
C767 C775 1.433 . S
C768 H764 0.929 . S
C768 C770 1.378 . S
C768 C772 1.350 . S
C769 C772 1.463 . S
C769 C774 1.350 . S
C769 N777 1.427 . S
C770 H761 0.930 . S
C770 C768 1.378 . S
C770 C771 1.367 . S
C771 C770 1.367 . S
C771 C773 1.433 . S
C772 C768 1.350 . S
C772 C769 1.463 . S
C772 N776 1.427 . S
C773 H763 0.929 . S
C773 C771 1.433 . S
C773 N776 1.384 . S
C774 H765 0.929 . S
C774 C766 1.378 . S
C774 C769 1.350 . S
C775 H762 0.929 . S
C775 C767 1.433 . S
C775 N777 1.384 . S
N776 C772 1.427 . S
N776 C773 1.384 . S
N777 C769 1.427 . S
N777 C775 1.384 . S
H778 C784 0.930 1_565 S
H779 C788 0.930 . S
H780 C793 0.929 . S
H781 C791 0.929 . S
H782 C786 0.929 . S
H783 C792 0.929 . S
C784 H778 0.930 1_545 S
C784 C785 1.367 . S
C784 C792 1.378 . S
C785 C784 1.367 . S
C785 C793 1.433 . S
C786 H782 0.929 . S
C786 C788 1.378 . S
C786 C790 1.350 . S
C787 C790 1.463 . S
C787 C792 1.350 . S
C787 N795 1.427 . S
C788 H779 0.930 . S
C788 C786 1.378 . S
C788 C789 1.367 . S
C789 C788 1.367 . S
C789 C791 1.433 . S
C790 C786 1.350 . S
C790 C787 1.463 . S
C790 N794 1.427 . S
C791 H781 0.929 . S
C791 C789 1.433 . S
C791 N794 1.384 . S
C792 H783 0.929 . S
C792 C784 1.378 . S
C792 C787 1.350 . S
C793 H780 0.929 . S
C793 C785 1.433 . S
C793 N795 1.384 . S
N794 C790 1.427 . S
N794 C791 1.384 . S
N795 C787 1.427 . S
N795 C793 1.384 . S
H796 C802 0.930 . S
H797 C806 0.930 . S
H798 C811 0.929 . S
H799 C809 0.929 . S
H800 C804 0.929 . S
H801 C810 0.929 . S
C802 H796 0.930 . S
C802 C803 1.367 . S
C802 C810 1.378 . S
C803 C802 1.367 . S
C803 C811 1.433 . S
C804 H800 0.929 . S
C804 C806 1.378 . S
C804 C808 1.350 . S
C805 C808 1.463 . S
C805 C810 1.350 . S
C805 N813 1.427 . S
C806 H797 0.930 . S
C806 C804 1.378 . S
C806 C807 1.367 . S
C807 C806 1.367 . S
C807 C809 1.433 . S
C808 C804 1.350 . S
C808 C805 1.463 . S
C808 N812 1.427 . S
C809 H799 0.929 . S
C809 C807 1.433 . S
C809 N812 1.384 . S
C810 H801 0.929 . S
C810 C802 1.378 . S
C810 C805 1.350 . S
C811 H798 0.929 . S
C811 C803 1.433 . S
C811 N813 1.384 . S
N812 C808 1.427 . S
N812 C809 1.384 . S
N813 C805 1.427 . S
N813 C811 1.384 . S
H814 C820 0.930 . S
H815 C824 0.930 . S
H816 C829 0.929 . S
H817 C827 0.929 . S
H818 C822 0.929 . S
H819 C828 0.929 . S
C820 H814 0.930 . S
C820 C821 1.367 . S
C820 C828 1.378 . S
C821 C820 1.367 . S
C821 C829 1.433 . S
C822 H818 0.929 . S
C822 C824 1.378 . S
C822 C826 1.350 . S
C823 C826 1.463 . S
C823 C828 1.350 . S
C823 N831 1.427 . S
C824 H815 0.930 . S
C824 C822 1.378 . S
C824 C825 1.367 . S
C825 C824 1.367 . S
C825 C827 1.433 . S
C826 C822 1.350 . S
C826 C823 1.463 . S
C826 N830 1.427 . S
C827 H817 0.929 . S
C827 C825 1.433 . S
C827 N830 1.384 . S
C828 H819 0.929 . S
C828 C820 1.378 . S
C828 C823 1.350 . S
C829 H816 0.929 . S
C829 C821 1.433 . S
C829 N831 1.384 . S
N830 C826 1.427 . S
N830 C827 1.384 . S
N831 C823 1.427 . S
N831 C829 1.384 . S
H832 C838 0.930 . S
H833 C842 0.930 . S
H834 C847 0.929 . S
H835 C845 0.929 . S
H836 C840 0.929 . S
H837 C846 0.929 . S
C838 H832 0.930 . S
C838 C839 1.367 . S
C838 C846 1.378 . S
C839 C838 1.367 . S
C839 C847 1.433 . S
C840 H836 0.929 . S
C840 C842 1.378 . S
C840 C844 1.350 . S
C841 C844 1.463 . S
C841 C846 1.350 . S
C841 N849 1.427 . S
C842 H833 0.930 . S
C842 C840 1.378 . S
C842 C843 1.367 . S
C843 C842 1.367 . S
C843 C845 1.433 . S
C844 C840 1.350 . S
C844 C841 1.463 . S
C844 N848 1.427 . S
C845 H835 0.929 . S
C845 C843 1.433 . S
C845 N848 1.384 . S
C846 H837 0.929 . S
C846 C838 1.378 . S
C846 C841 1.350 . S
C847 H834 0.929 . S
C847 C839 1.433 . S
C847 N849 1.384 . S
N848 C844 1.427 . S
N848 C845 1.384 . S
N849 C841 1.427 . S
N849 C847 1.384 . S
H850 C856 0.930 . S
H851 C860 0.930 . S
H852 C865 0.929 . S
H853 C863 0.929 . S
H854 C858 0.929 . S
H855 C864 0.929 . S
C856 H850 0.930 . S
C856 C857 1.367 . S
C856 C864 1.378 . S
C857 C856 1.367 . S
C857 C865 1.433 . S
C858 H854 0.929 . S
C858 C860 1.378 . S
C858 C862 1.350 . S
C859 C862 1.463 . S
C859 C864 1.350 . S
C859 N867 1.427 . S
C860 H851 0.930 . S
C860 C858 1.378 . S
C860 C861 1.367 . S
C861 C860 1.367 . S
C861 C863 1.433 . S
C862 C858 1.350 . S
C862 C859 1.463 . S
C862 N866 1.427 . S
C863 H853 0.929 . S
C863 C861 1.433 . S
C863 N866 1.384 . S
C864 H855 0.929 . S
C864 C856 1.378 . S
C864 C859 1.350 . S
C865 H852 0.929 . S
C865 C857 1.433 . S
C865 N867 1.384 . S
N866 C862 1.427 . S
N866 C863 1.384 . S
N867 C859 1.427 . S
N867 C865 1.384 . S
H868 C874 0.930 . S
H869 C878 0.930 . S
H870 C883 0.929 . S
H871 C881 0.929 . S
H872 C876 0.929 . S
H873 C882 0.929 . S
C874 H868 0.930 . S
C874 C875 1.367 . S
C874 C882 1.378 . S
C875 C874 1.367 . S
C875 C883 1.433 . S
C876 H872 0.929 . S
C876 C878 1.378 . S
C876 C880 1.350 . S
C877 C880 1.463 . S
C877 C882 1.350 . S
C877 N885 1.427 . S
C878 H869 0.930 . S
C878 C876 1.378 . S
C878 C879 1.367 . S
C879 C878 1.367 . S
C879 C881 1.433 . S
C880 C876 1.350 . S
C880 C877 1.463 . S
C880 N884 1.427 . S
C881 H871 0.929 . S
C881 C879 1.433 . S
C881 N884 1.384 . S
C882 H873 0.929 . S
C882 C874 1.378 . S
C882 C877 1.350 . S
C883 H870 0.929 . S
C883 C875 1.433 . S
C883 N885 1.384 . S
N884 C880 1.427 . S
N884 C881 1.384 . S
N885 C877 1.427 . S
N885 C883 1.384 . S
H886 C892 0.930 . S
H887 C896 0.930 . S
H888 C901 0.929 . S
H889 C899 0.929 . S
H890 C894 0.929 . S
H891 C900 0.929 . S
C892 H886 0.930 . S
C892 C893 1.367 . S
C892 C900 1.378 . S
C893 C892 1.367 . S
C893 C901 1.433 . S
C894 H890 0.929 . S
C894 C896 1.378 . S
C894 C898 1.350 . S
C895 C898 1.463 . S
C895 C900 1.350 . S
C895 N903 1.427 . S
C896 H887 0.930 . S
C896 C894 1.378 . S
C896 C897 1.367 . S
C897 C896 1.367 . S
C897 C899 1.433 . S
C898 C894 1.350 . S
C898 C895 1.463 . S
C898 N902 1.427 . S
C899 H889 0.929 . S
C899 C897 1.433 . S
C899 N902 1.384 . S
C900 H891 0.929 . S
C900 C892 1.378 . S
C900 C895 1.350 . S
C901 H888 0.929 . S
C901 C893 1.433 . S
C901 N903 1.384 . S
N902 C898 1.427 . S
N902 C899 1.384 . S
N903 C895 1.427 . S
N903 C901 1.384 . S
H904 C910 0.936 . S
H905 C914 0.930 . S
H906 C919 0.929 . S
H907 C917 0.929 . S
H908 C912 0.929 . S
H909 C918 0.929 . S
C910 H904 0.936 . S
C910 C911 1.367 . S
C910 C918 1.378 . S
C911 C910 1.367 . S
C911 C919 1.433 . S
C912 H908 0.929 . S
C912 C914 1.378 . S
C912 C916 1.350 . S
C913 C916 1.463 . S
C913 C918 1.350 . S
C913 N921 1.427 . S
C914 H905 0.930 . S
C914 C912 1.378 . S
C914 C915 1.367 . S
C915 C914 1.367 . S
C915 C917 1.433 . S
C916 C912 1.350 . S
C916 C913 1.463 . S
C916 N920 1.427 . S
C917 H907 0.929 . S
C917 C915 1.433 . S
C917 N920 1.384 . S
C918 H909 0.929 . S
C918 C910 1.378 . S
C918 C913 1.350 . S
C919 H906 0.929 . S
C919 C911 1.433 . S
C919 N921 1.384 . S
N920 C916 1.427 . S
N920 C917 1.384 . S
N921 C913 1.427 . S
N921 C919 1.384 . S
H922 C928 0.930 . S
H923 C932 0.930 . S
H924 C937 0.929 1_545 S
H925 C935 0.929 . S
H926 C930 0.929 . S
H927 C936 0.929 . S
C928 H922 0.930 . S
C928 C929 1.367 . S
C928 C936 1.378 . S
C929 C928 1.367 . S
C929 C937 1.433 . S
C930 H926 0.929 . S
C930 C932 1.378 . S
C930 C934 1.350 . S
C931 C934 1.463 . S
C931 C936 1.350 . S
C931 N939 1.427 . S
C932 H923 0.930 . S
C932 C930 1.378 . S
C932 C933 1.367 . S
C933 C932 1.367 . S
C933 C935 1.433 . S
C934 C930 1.350 . S
C934 C931 1.463 . S
C934 N938 1.427 . S
C935 H925 0.929 . S
C935 C933 1.433 . S
C935 N938 1.384 . S
C936 H927 0.929 . S
C936 C928 1.378 . S
C936 C931 1.350 . S
C937 H924 0.929 1_565 S
C937 C929 1.433 . S
C937 N939 1.384 . S
N938 C934 1.427 . S
N938 C935 1.384 . S
N939 C931 1.427 . S
N939 C937 1.384 . S
H940 C946 0.930 . S
H941 C950 0.930 . S
H942 C955 0.929 . S
H943 C953 0.929 . S
H944 C948 0.929 . S
H945 C954 0.929 . S
C946 H940 0.930 . S
C946 C947 1.367 . S
C946 C954 1.378 . S
C947 C946 1.367 . S
C947 C955 1.433 . S
C948 H944 0.929 . S
C948 C950 1.378 . S
C948 C952 1.350 . S
C949 C952 1.463 . S
C949 C954 1.350 . S
C949 N957 1.427 . S
C950 H941 0.930 . S
C950 C948 1.378 . S
C950 C951 1.367 . S
C951 C950 1.367 . S
C951 C953 1.433 . S
C952 C948 1.350 . S
C952 C949 1.463 . S
C952 N956 1.427 . S
C953 H943 0.929 . S
C953 C951 1.433 . S
C953 N956 1.384 . S
C954 H945 0.929 . S
C954 C946 1.378 . S
C954 C949 1.350 . S
C955 H942 0.929 . S
C955 C947 1.433 . S
C955 N957 1.384 . S
N956 C952 1.427 . S
N956 C953 1.384 . S
N957 C949 1.427 . S
N957 C955 1.384 . S
H958 C964 0.930 . S
H959 C968 0.930 . S
H960 C973 0.929 . S
H961 C971 0.929 . S
H962 C966 0.929 . S
H963 C972 0.929 . S
C964 H958 0.930 . S
C964 C965 1.367 . S
C964 C972 1.378 . S
C965 C964 1.367 . S
C965 C973 1.433 . S
C966 H962 0.929 . S
C966 C968 1.378 . S
C966 C970 1.350 . S
C967 C970 1.463 . S
C967 C972 1.350 . S
C967 N975 1.427 . S
C968 H959 0.930 . S
C968 C966 1.378 . S
C968 C969 1.367 . S
C969 C968 1.367 . S
C969 C971 1.433 . S
C970 C966 1.350 . S
C970 C967 1.463 . S
C970 N974 1.427 . S
C971 H961 0.929 . S
C971 C969 1.433 . S
C971 N974 1.384 . S
C972 H963 0.929 . S
C972 C964 1.378 . S
C972 C967 1.350 . S
C973 H960 0.929 . S
C973 C965 1.433 . S
C973 N975 1.384 . S
N974 C970 1.427 . S
N974 C971 1.384 . S
N975 C967 1.427 . S
N975 C973 1.384 . S
H976 C982 0.930 . S
H977 C986 0.930 . S
H978 C991 0.929 1_554 S
H979 C989 0.929 . S
H980 C984 0.929 . S
H981 C990 0.929 . S
C982 H976 0.930 . S
C982 C983 1.367 . S
C982 C990 1.378 . S
C983 C982 1.367 . S
C983 C991 1.432 . S
C984 H980 0.929 . S
C984 C986 1.378 . S
C984 C988 1.350 . S
C985 C988 1.463 . S
C985 C990 1.350 1_554 S
C985 N993 1.427 . S
C986 H977 0.930 . S
C986 C984 1.378 . S
C986 C987 1.367 . S
C987 C986 1.367 . S
C987 C989 1.433 . S
C988 C984 1.350 . S
C988 C985 1.463 . S
C988 N992 1.427 . S
C989 H979 0.929 . S
C989 C987 1.433 . S
C989 N992 1.384 . S
C990 H981 0.929 . S
C990 C982 1.378 . S
C990 C985 1.350 1_556 S
C991 H978 0.929 1_556 S
C991 C983 1.432 . S
C991 N993 1.385 1_556 S
N992 C988 1.427 . S
N992 C989 1.384 . S
N993 C985 1.427 . S
N993 C991 1.385 1_554 S
H994 C1000 0.930 . S
H995 C1004 0.930 . S
H996 C1009 0.929 . S
H997 C1007 0.929 . S
H998 C1002 0.929 . S
H999 C1008 0.929 . S
C1000 H994 0.930 . S
C1000 C1001 1.367 . S
C1000 C1008 1.378 1_556 S
C1001 C1000 1.367 . S
C1001 C1009 1.433 . S
C1002 H998 0.929 . S
C1002 C1004 1.378 . S
C1002 C1006 1.350 . S
C1003 C1006 1.463 . S
C1003 C1008 1.350 . S
C1003 N1011 1.427 1_554 S
C1004 H995 0.930 . S
C1004 C1002 1.378 . S
C1004 C1005 1.367 . S
C1005 C1004 1.367 . S
C1005 C1007 1.433 . S
C1006 C1002 1.350 . S
C1006 C1003 1.463 . S
C1006 N1010 1.427 . S
C1007 H997 0.929 . S
C1007 C1005 1.433 . S
C1007 N1010 1.384 . S
C1008 H999 0.929 . S
C1008 C1000 1.378 1_554 S
C1008 C1003 1.350 . S
C1009 H996 0.929 . S
C1009 C1001 1.433 . S
C1009 N1011 1.384 . S
N1010 C1006 1.427 . S
N1010 C1007 1.384 . S
N1011 C1003 1.427 1_556 S
N1011 C1009 1.384 . S
H1012 C1018 0.930 . S
H1013 C1022 0.930 . S
H1014 C1027 0.929 . S
H1015 C1025 0.929 . S
H1016 C1020 0.929 . S
H1017 C1026 0.929 . S
C1018 H1012 0.930 . S
C1018 C1019 1.367 . S
C1018 C1026 1.378 1_556 S
C1019 C1018 1.367 . S
C1019 C1027 1.433 . S
C1020 H1016 0.929 . S
C1020 C1022 1.378 . S
C1020 C1024 1.350 . S
C1021 C1024 1.463 . S
C1021 C1026 1.350 . S
C1021 N1029 1.427 1_554 S
C1022 H1013 0.930 . S
C1022 C1020 1.378 . S
C1022 C1023 1.367 . S
C1023 C1022 1.367 . S
C1023 C1025 1.433 . S
C1024 C1020 1.350 . S
C1024 C1021 1.463 . S
C1024 N1028 1.427 . S
C1025 H1015 0.929 . S
C1025 C1023 1.433 . S
C1025 N1028 1.384 . S
C1026 H1017 0.929 . S
C1026 C1018 1.378 1_554 S
C1026 C1021 1.350 . S
C1027 H1014 0.929 . S
C1027 C1019 1.433 . S
C1027 N1029 1.384 . S
N1028 C1024 1.427 . S
N1028 C1025 1.384 . S
N1029 C1021 1.427 1_556 S
N1029 C1027 1.384 . S
H1030 C1036 0.930 . S
H1031 C1040 0.930 . S
H1032 C1045 0.929 . S
H1033 C1043 0.929 . S
H1034 C1038 0.929 . S
H1035 C1044 0.929 . S
C1036 H1030 0.930 . S
C1036 C1037 1.367 . S
C1036 C1044 1.378 1_556 S
C1037 C1036 1.367 . S
C1037 C1045 1.433 . S
C1038 H1034 0.929 . S
C1038 C1040 1.378 . S
C1038 C1042 1.350 . S
C1039 C1042 1.463 . S
C1039 C1044 1.350 . S
C1039 N1047 1.427 . S
C1040 H1031 0.930 . S
C1040 C1038 1.378 . S
C1040 C1041 1.367 . S
C1041 C1040 1.367 . S
C1041 C1043 1.433 . S
C1042 C1038 1.350 . S
C1042 C1039 1.463 . S
C1042 N1046 1.427 . S
C1043 H1033 0.929 . S
C1043 C1041 1.433 . S
C1043 N1046 1.384 . S
C1044 H1035 0.929 . S
C1044 C1036 1.378 1_554 S
C1044 C1039 1.350 . S
C1045 H1032 0.929 . S
C1045 C1037 1.433 . S
C1045 N1047 1.384 1_556 S
N1046 C1042 1.427 . S
N1046 C1043 1.384 . S
N1047 C1039 1.427 . S
N1047 C1045 1.384 1_554 S
H1048 C1054 0.930 . S
H1049 C1058 0.930 . S
H1050 C1063 0.929 . S
H1051 C1061 0.929 . S
H1052 C1056 0.929 . S
H1053 C1062 0.929 . S
C1054 H1048 0.930 . S
C1054 C1055 1.367 . S
C1054 C1062 1.378 . S
C1055 C1054 1.367 . S
C1055 C1063 1.433 . S
C1056 H1052 0.929 . S
C1056 C1058 1.378 . S
C1056 C1060 1.350 . S
C1057 C1060 1.463 . S
C1057 C1062 1.350 . S
C1057 N1065 1.427 . S
C1058 H1049 0.930 . S
C1058 C1056 1.378 . S
C1058 C1059 1.367 . S
C1059 C1058 1.367 . S
C1059 C1061 1.433 . S
C1060 C1056 1.350 . S
C1060 C1057 1.463 . S
C1060 N1064 1.427 . S
C1061 H1051 0.929 . S
C1061 C1059 1.433 . S
C1061 N1064 1.384 . S
C1062 H1053 0.929 . S
C1062 C1054 1.378 . S
C1062 C1057 1.350 . S
C1063 H1050 0.929 . S
C1063 C1055 1.433 . S
C1063 N1065 1.384 . S
N1064 C1060 1.427 . S
N1064 C1061 1.384 . S
N1065 C1057 1.427 . S
N1065 C1063 1.384 . S
H1066 C1072 0.930 . S
H1067 C1076 0.930 . S
H1068 C1081 0.929 . S
H1069 C1079 0.929 . S
H1070 C1074 0.929 . S
H1071 C1080 0.929 . S
C1072 H1066 0.930 . S
C1072 C1073 1.367 . S
C1072 C1080 1.378 . S
C1073 C1072 1.367 . S
C1073 C1081 1.433 . S
C1074 H1070 0.929 . S
C1074 C1076 1.378 . S
C1074 C1078 1.350 . S
C1075 C1078 1.463 . S
C1075 C1080 1.350 . S
C1075 N1083 1.427 . S
C1076 H1067 0.930 . S
C1076 C1074 1.378 . S
C1076 C1077 1.367 . S
C1077 C1076 1.367 . S
C1077 C1079 1.433 . S
C1078 C1074 1.350 . S
C1078 C1075 1.463 . S
C1078 N1082 1.427 . S
C1079 H1069 0.929 . S
C1079 C1077 1.433 . S
C1079 N1082 1.384 . S
C1080 H1071 0.929 . S
C1080 C1072 1.378 . S
C1080 C1075 1.350 . S
C1081 H1068 0.929 . S
C1081 C1073 1.433 . S
C1081 N1083 1.384 . S
N1082 C1078 1.427 . S
N1082 C1079 1.384 . S
N1083 C1075 1.427 . S
N1083 C1081 1.384 . S
H1084 C1090 0.930 . S
H1085 C1094 0.930 . S
H1086 C1099 0.929 . S
H1087 C1097 0.929 . S
H1088 C1092 0.929 . S
H1089 C1098 0.929 . S
C1090 H1084 0.930 . S
C1090 C1091 1.367 . S
C1090 C1098 1.378 . S
C1091 C1090 1.367 . S
C1091 C1099 1.433 . S
C1092 H1088 0.929 . S
C1092 C1094 1.378 . S
C1092 C1096 1.350 . S
C1093 C1096 1.463 . S
C1093 C1098 1.350 . S
C1093 N1101 1.427 . S
C1094 H1085 0.930 . S
C1094 C1092 1.378 . S
C1094 C1095 1.367 . S
C1095 C1094 1.367 . S
C1095 C1097 1.433 . S
C1096 C1092 1.350 . S
C1096 C1093 1.463 . S
C1096 N1100 1.427 . S
C1097 H1087 0.929 . S
C1097 C1095 1.433 . S
C1097 N1100 1.384 . S
C1098 H1089 0.929 . S
C1098 C1090 1.378 . S
C1098 C1093 1.350 . S
C1099 H1086 0.929 . S
C1099 C1091 1.433 . S
C1099 N1101 1.384 . S
N1100 C1096 1.427 . S
N1100 C1097 1.384 . S
N1101 C1093 1.427 . S
N1101 C1099 1.384 . S
H1102 C1108 0.930 . S
H1103 C1112 0.930 . S
H1104 C1117 0.929 . S
H1105 C1115 0.929 . S
H1106 C1110 0.929 . S
H1107 C1116 0.929 . S
C1108 H1102 0.930 . S
C1108 C1109 1.367 . S
C1108 C1116 1.378 . S
C1109 C1108 1.367 . S
C1109 C1117 1.433 . S
C1110 H1106 0.929 . S
C1110 C1112 1.378 . S
C1110 C1114 1.350 . S
C1111 C1114 1.463 . S
C1111 C1116 1.350 . S
C1111 N1119 1.427 . S
C1112 H1103 0.930 . S
C1112 C1110 1.378 . S
C1112 C1113 1.367 . S
C1113 C1112 1.367 . S
C1113 C1115 1.433 . S
C1114 C1110 1.350 . S
C1114 C1111 1.463 . S
C1114 N1118 1.427 . S
C1115 H1105 0.929 . S
C1115 C1113 1.433 . S
C1115 N1118 1.384 . S
C1116 H1107 0.929 . S
C1116 C1108 1.378 . S
C1116 C1111 1.350 . S
C1117 H1104 0.929 . S
C1117 C1109 1.433 . S
C1117 N1119 1.384 . S
N1118 C1114 1.427 . S
N1118 C1115 1.384 . S
N1119 C1111 1.427 . S
N1119 C1117 1.384 . S
H1120 C1126 0.930 . S
H1121 C1130 0.930 . S
H1122 C1135 0.929 . S
H1123 C1133 0.929 . S
H1124 C1128 0.929 . S
H1125 C1134 0.929 . S
C1126 H1120 0.930 . S
C1126 C1127 1.367 . S
C1126 C1134 1.378 . S
C1127 C1126 1.367 . S
C1127 C1135 1.433 . S
C1128 H1124 0.929 . S
C1128 C1130 1.378 . S
C1128 C1132 1.350 1_554 S
C1129 C1132 1.463 . S
C1129 C1134 1.350 . S
C1129 N1137 1.427 . S
C1130 H1121 0.930 . S
C1130 C1128 1.378 . S
C1130 C1131 1.367 . S
C1131 C1130 1.367 . S
C1131 C1133 1.433 . S
C1132 C1128 1.350 1_556 S
C1132 C1129 1.463 . S
C1132 N1136 1.427 . S
C1133 H1123 0.929 . S
C1133 C1131 1.433 . S
C1133 N1136 1.384 1_554 S
C1134 H1125 0.929 . S
C1134 C1126 1.378 . S
C1134 C1129 1.350 . S
C1135 H1122 0.929 . S
C1135 C1127 1.433 . S
C1135 N1137 1.384 . S
N1136 C1132 1.427 . S
N1136 C1133 1.384 1_556 S
N1137 C1129 1.427 . S
N1137 C1135 1.384 . S
H1138 C1144 0.930 . S
H1139 C1148 0.930 . S
H1140 C1153 0.929 . S
H1141 C1151 0.929 . S
H1142 C1146 0.929 . S
H1143 C1152 0.929 . S
C1144 H1138 0.930 . S
C1144 C1145 1.367 . S
C1144 C1152 1.378 . S
C1145 C1144 1.367 . S
C1145 C1153 1.433 . S
C1146 H1142 0.929 . S
C1146 C1148 1.378 1_556 S
C1146 C1150 1.350 . S
C1147 C1150 1.463 . S
C1147 C1152 1.350 . S
C1147 N1155 1.427 . S
C1148 H1139 0.930 . S
C1148 C1146 1.378 1_554 S
C1148 C1149 1.367 . S
C1149 C1148 1.367 . S
C1149 C1151 1.433 . S
C1150 C1146 1.350 . S
C1150 C1147 1.463 . S
C1150 N1154 1.427 . S
C1151 H1141 0.929 . S
C1151 C1149 1.433 . S
C1151 N1154 1.384 1_554 S
C1152 H1143 0.929 . S
C1152 C1144 1.378 . S
C1152 C1147 1.350 . S
C1153 H1140 0.929 . S
C1153 C1145 1.433 . S
C1153 N1155 1.384 . S
N1154 C1150 1.427 . S
N1154 C1151 1.384 1_556 S
N1155 C1147 1.427 . S
N1155 C1153 1.384 . S
H1156 C1162 0.930 . S
H1157 C1166 0.930 . S
H1158 C1171 0.929 . S
H1159 C1169 0.929 . S
H1160 C1164 0.929 . S
H1161 C1170 0.929 . S
C1162 H1156 0.930 . S
C1162 C1163 1.367 . S
C1162 C1170 1.378 . S
C1163 C1162 1.367 . S
C1163 C1171 1.433 . S
C1164 H1160 0.929 . S
C1164 C1166 1.378 1_556 S
C1164 C1168 1.350 . S
C1165 C1168 1.463 . S
C1165 C1170 1.350 . S
C1165 N1173 1.427 . S
C1166 H1157 0.930 . S
C1166 C1164 1.378 1_554 S
C1166 C1167 1.367 . S
C1167 C1166 1.367 . S
C1167 C1169 1.433 . S
C1168 C1164 1.350 . S
C1168 C1165 1.463 . S
C1168 N1172 1.427 1_556 S
C1169 H1159 0.929 . S
C1169 C1167 1.433 . S
C1169 N1172 1.384 . S
C1170 H1161 0.929 . S
C1170 C1162 1.378 . S
C1170 C1165 1.350 . S
C1171 H1158 0.929 . S
C1171 C1163 1.433 . S
C1171 N1173 1.384 . S
N1172 C1168 1.427 1_554 S
N1172 C1169 1.384 . S
N1173 C1165 1.427 . S
N1173 C1171 1.384 . S
H1174 C1180 0.930 . S
H1175 C1184 0.930 . S
H1176 C1189 0.929 . S
H1177 C1187 0.929 . S
H1178 C1182 0.929 . S
H1179 C1188 0.929 . S
C1180 H1174 0.930 . S
C1180 C1181 1.367 . S
C1180 C1188 1.378 1_554 S
C1181 C1180 1.367 . S
C1181 C1189 1.433 . S
C1182 H1178 0.929 . S
C1182 C1184 1.378 . S
C1182 C1186 1.350 . S
C1183 C1186 1.463 . S
C1183 C1188 1.350 . S
C1183 N1191 1.427 . S
C1184 H1175 0.930 . S
C1184 C1182 1.378 . S
C1184 C1185 1.367 . S
C1185 C1184 1.367 . S
C1185 C1187 1.433 . S
C1186 C1182 1.350 . S
C1186 C1183 1.463 . S
C1186 N1190 1.427 . S
C1187 H1177 0.929 . S
C1187 C1185 1.433 . S
C1187 N1190 1.384 . S
C1188 H1179 0.929 . S
C1188 C1180 1.378 1_556 S
C1188 C1183 1.350 . S
C1189 H1176 0.929 . S
C1189 C1181 1.433 . S
C1189 N1191 1.384 1_554 S
N1190 C1186 1.427 . S
N1190 C1187 1.384 . S
N1191 C1183 1.427 . S
N1191 C1189 1.384 1_556 S
H1192 C1198 0.930 . S
H1193 C1202 0.930 . S
H1194 C1207 0.929 . S
H1195 C1205 0.929 . S
H1196 C1200 0.929 . S
H1197 C1206 0.929 . S
C1198 H1192 0.930 . S
C1198 C1199 1.367 . S
C1198 C1206 1.378 . S
C1199 C1198 1.367 . S
C1199 C1207 1.433 . S
C1200 H1196 0.929 . S
C1200 C1202 1.378 . S
C1200 C1204 1.350 . S
C1201 C1204 1.463 . S
C1201 C1206 1.350 . S
C1201 N1209 1.427 . S
C1202 H1193 0.930 . S
C1202 C1200 1.378 . S
C1202 C1203 1.367 . S
C1203 C1202 1.367 . S
C1203 C1205 1.433 . S
C1204 C1200 1.350 . S
C1204 C1201 1.463 . S
C1204 N1208 1.427 . S
C1205 H1195 0.929 . S
C1205 C1203 1.433 . S
C1205 N1208 1.384 . S
C1206 H1197 0.929 . S
C1206 C1198 1.378 . S
C1206 C1201 1.350 . S
C1207 H1194 0.929 . S
C1207 C1199 1.433 . S
C1207 N1209 1.384 . S
N1208 C1204 1.427 . S
N1208 C1205 1.384 . S
N1209 C1201 1.427 . S
N1209 C1207 1.384 . S
H1210 C1216 0.930 . S
H1211 C1220 0.930 . S
H1212 C1225 0.929 . S
H1213 C1223 0.929 . S
H1214 C1218 0.929 . S
H1215 C1224 0.929 . S
C1216 H1210 0.930 . S
C1216 C1217 1.367 . S
C1216 C1224 1.378 . S
C1217 C1216 1.367 . S
C1217 C1225 1.433 . S
C1218 H1214 0.929 . S
C1218 C1220 1.378 . S
C1218 C1222 1.350 . S
C1219 C1222 1.463 . S
C1219 C1224 1.350 . S
C1219 N1227 1.427 . S
C1220 H1211 0.930 . S
C1220 C1218 1.378 . S
C1220 C1221 1.367 . S
C1221 C1220 1.367 . S
C1221 C1223 1.433 . S
C1222 C1218 1.350 . S
C1222 C1219 1.463 . S
C1222 N1226 1.427 . S
C1223 H1213 0.929 . S
C1223 C1221 1.433 . S
C1223 N1226 1.384 . S
C1224 H1215 0.929 . S
C1224 C1216 1.378 . S
C1224 C1219 1.350 . S
C1225 H1212 0.929 . S
C1225 C1217 1.433 . S
C1225 N1227 1.384 . S
N1226 C1222 1.427 . S
N1226 C1223 1.384 . S
N1227 C1219 1.427 . S
N1227 C1225 1.384 . S
H1228 C1234 0.930 . S
H1229 C1238 0.930 . S
H1230 C1243 0.929 . S
H1231 C1241 0.929 . S
H1232 C1236 0.929 . S
H1233 C1242 0.929 . S
C1234 H1228 0.930 . S
C1234 C1235 1.367 . S
C1234 C1242 1.378 . S
C1235 C1234 1.367 . S
C1235 C1243 1.433 . S
C1236 H1232 0.929 . S
C1236 C1238 1.378 . S
C1236 C1240 1.350 . S
C1237 C1240 1.463 . S
C1237 C1242 1.350 . S
C1237 N1245 1.427 . S
C1238 H1229 0.930 . S
C1238 C1236 1.378 . S
C1238 C1239 1.367 . S
C1239 C1238 1.367 . S
C1239 C1241 1.433 . S
C1240 C1236 1.350 . S
C1240 C1237 1.463 . S
C1240 N1244 1.427 . S
C1241 H1231 0.929 . S
C1241 C1239 1.433 . S
C1241 N1244 1.384 . S
C1242 H1233 0.929 . S
C1242 C1234 1.378 . S
C1242 C1237 1.350 . S
C1243 H1230 0.929 . S
C1243 C1235 1.433 . S
C1243 N1245 1.384 . S
N1244 C1240 1.427 . S
N1244 C1241 1.384 . S
N1245 C1237 1.427 . S
N1245 C1243 1.384 . S
H1246 C1252 0.930 . S
H1247 C1256 0.930 . S
H1248 C1261 0.929 . S
H1249 C1259 0.929 . S
H1250 C1254 0.929 . S
H1251 C1260 0.929 . S
C1252 H1246 0.930 . S
C1252 C1253 1.367 . S
C1252 C1260 1.378 . S
C1253 C1252 1.367 . S
C1253 C1261 1.433 . S
C1254 H1250 0.929 . S
C1254 C1256 1.378 . S
C1254 C1258 1.350 . S
C1255 C1258 1.463 . S
C1255 C1260 1.350 . S
C1255 N1263 1.427 . S
C1256 H1247 0.930 . S
C1256 C1254 1.378 . S
C1256 C1257 1.367 . S
C1257 C1256 1.367 . S
C1257 C1259 1.433 . S
C1258 C1254 1.350 . S
C1258 C1255 1.463 . S
C1258 N1262 1.427 . S
C1259 H1249 0.929 . S
C1259 C1257 1.433 . S
C1259 N1262 1.384 . S
C1260 H1251 0.929 . S
C1260 C1252 1.378 . S
C1260 C1255 1.350 . S
C1261 H1248 0.929 . S
C1261 C1253 1.433 . S
C1261 N1263 1.384 . S
N1262 C1258 1.427 . S
N1262 C1259 1.384 . S
N1263 C1255 1.427 . S
N1263 C1261 1.384 . S
H1264 C1270 0.930 . S
H1265 C1274 0.930 . S
H1266 C1279 0.929 . S
H1267 C1277 0.929 . S
H1268 C1272 0.929 . S
H1269 C1278 0.929 . S
C1270 H1264 0.930 . S
C1270 C1271 1.367 . S
C1270 C1278 1.378 . S
C1271 C1270 1.367 . S
C1271 C1279 1.433 . S
C1272 H1268 0.929 . S
C1272 C1274 1.378 . S
C1272 C1276 1.350 . S
C1273 C1276 1.463 . S
C1273 C1278 1.350 . S
C1273 N1281 1.427 . S
C1274 H1265 0.930 . S
C1274 C1272 1.378 . S
C1274 C1275 1.367 . S
C1275 C1274 1.367 . S
C1275 C1277 1.433 . S
C1276 C1272 1.350 . S
C1276 C1273 1.463 . S
C1276 N1280 1.427 . S
C1277 H1267 0.929 . S
C1277 C1275 1.433 . S
C1277 N1280 1.384 . S
C1278 H1269 0.929 . S
C1278 C1270 1.378 . S
C1278 C1273 1.350 . S
C1279 H1266 0.929 . S
C1279 C1271 1.433 . S
C1279 N1281 1.384 . S
N1280 C1276 1.427 . S
N1280 C1277 1.384 . S
N1281 C1273 1.427 . S
N1281 C1279 1.384 . S
H1282 C1288 0.930 . S
H1283 C1292 0.930 . S
H1284 C1297 0.929 . S
H1285 C1295 0.929 . S
H1286 C1290 0.929 . S
H1287 C1296 0.929 . S
C1288 H1282 0.930 . S
C1288 C1289 1.367 . S
C1288 C1296 1.378 . S
C1289 C1288 1.367 . S
C1289 C1297 1.433 . S
C1290 H1286 0.929 . S
C1290 C1292 1.378 . S
C1290 C1294 1.350 . S
C1291 C1294 1.463 . S
C1291 C1296 1.350 . S
C1291 N1299 1.427 . S
C1292 H1283 0.930 . S
C1292 C1290 1.378 . S
C1292 C1293 1.367 . S
C1293 C1292 1.367 . S
C1293 C1295 1.433 . S
C1294 C1290 1.350 . S
C1294 C1291 1.463 . S
C1294 N1298 1.427 . S
C1295 H1285 0.929 . S
C1295 C1293 1.433 . S
C1295 N1298 1.384 . S
C1296 H1287 0.929 . S
C1296 C1288 1.378 . S
C1296 C1291 1.350 . S
C1297 H1284 0.929 . S
C1297 C1289 1.433 . S
C1297 N1299 1.384 . S
N1298 C1294 1.427 . S
N1298 C1295 1.384 . S
N1299 C1291 1.427 . S
N1299 C1297 1.384 . S
H1300 C1306 0.930 . S
H1301 C1310 0.930 . S
H1302 C1315 0.929 . S
H1303 C1313 0.929 . S
H1304 C1308 0.929 . S
H1305 C1314 0.929 . S
C1306 H1300 0.930 . S
C1306 C1307 1.367 . S
C1306 C1314 1.378 . S
C1307 C1306 1.367 . S
C1307 C1315 1.433 . S
C1308 H1304 0.929 . S
C1308 C1310 1.378 . S
C1308 C1312 1.350 . S
C1309 C1312 1.463 . S
C1309 C1314 1.350 . S
C1309 N1317 1.427 . S
C1310 H1301 0.930 . S
C1310 C1308 1.378 . S
C1310 C1311 1.367 . S
C1311 C1310 1.367 . S
C1311 C1313 1.433 . S
C1312 C1308 1.350 . S
C1312 C1309 1.463 . S
C1312 N1316 1.427 . S
C1313 H1303 0.929 . S
C1313 C1311 1.433 . S
C1313 N1316 1.384 . S
C1314 H1305 0.929 . S
C1314 C1306 1.378 . S
C1314 C1309 1.350 . S
C1315 H1302 0.929 . S
C1315 C1307 1.433 . S
C1315 N1317 1.384 . S
N1316 C1312 1.427 . S
N1316 C1313 1.384 . S
N1317 C1309 1.427 . S
N1317 C1315 1.384 . S
H1318 C1324 0.930 . S
H1319 C1328 0.930 . S
H1320 C1333 0.929 . S
H1321 C1331 0.929 . S
H1322 C1326 0.929 . S
H1323 C1332 0.929 . S
C1324 H1318 0.930 . S
C1324 C1325 1.367 . S
C1324 C1332 1.378 . S
C1325 C1324 1.367 . S
C1325 C1333 1.433 . S
C1326 H1322 0.929 . S
C1326 C1328 1.378 . S
C1326 C1330 1.350 . S
C1327 C1330 1.463 . S
C1327 C1332 1.350 . S
C1327 N1335 1.427 . S
C1328 H1319 0.930 . S
C1328 C1326 1.378 . S
C1328 C1329 1.367 . S
C1329 C1328 1.367 . S
C1329 C1331 1.433 . S
C1330 C1326 1.350 . S
C1330 C1327 1.463 . S
C1330 N1334 1.427 . S
C1331 H1321 0.929 . S
C1331 C1329 1.433 . S
C1331 N1334 1.384 . S
C1332 H1323 0.929 . S
C1332 C1324 1.378 . S
C1332 C1327 1.350 . S
C1333 H1320 0.929 . S
C1333 C1325 1.433 . S
C1333 N1335 1.384 . S
N1334 C1330 1.427 . S
N1334 C1331 1.384 . S
N1335 C1327 1.427 . S
N1335 C1333 1.384 . S
H1336 C1342 0.930 . S
H1337 C1346 0.930 . S
H1338 C1351 0.929 . S
H1339 C1349 0.929 . S
H1340 C1344 0.929 . S
H1341 C1350 0.929 . S
C1342 H1336 0.930 . S
C1342 C1343 1.367 . S
C1342 C1350 1.378 . S
C1343 C1342 1.367 . S
C1343 C1351 1.433 . S
C1344 H1340 0.929 . S
C1344 C1346 1.378 . S
C1344 C1348 1.350 . S
C1345 C1348 1.463 . S
C1345 C1350 1.350 . S
C1345 N1353 1.427 . S
C1346 H1337 0.930 . S
C1346 C1344 1.378 . S
C1346 C1347 1.367 . S
C1347 C1346 1.367 . S
C1347 C1349 1.433 . S
C1348 C1344 1.350 . S
C1348 C1345 1.463 . S
C1348 N1352 1.427 . S
C1349 H1339 0.929 . S
C1349 C1347 1.433 . S
C1349 N1352 1.384 . S
C1350 H1341 0.929 . S
C1350 C1342 1.378 . S
C1350 C1345 1.350 . S
C1351 H1338 0.929 . S
C1351 C1343 1.433 . S
C1351 N1353 1.384 . S
N1352 C1348 1.427 . S
N1352 C1349 1.384 . S
N1353 C1345 1.427 . S
N1353 C1351 1.384 . S
H1354 C1360 0.930 . S
H1355 C1364 0.930 . S
H1356 C1369 0.929 . S
H1357 C1367 0.929 . S
H1358 C1362 0.929 . S
H1359 C1368 0.929 . S
C1360 H1354 0.930 . S
C1360 C1361 1.367 . S
C1360 C1368 1.378 . S
C1361 C1360 1.367 . S
C1361 C1369 1.433 . S
C1362 H1358 0.929 . S
C1362 C1364 1.378 . S
C1362 C1366 1.350 . S
C1363 C1366 1.463 . S
C1363 C1368 1.350 . S
C1363 N1371 1.427 . S
C1364 H1355 0.930 . S
C1364 C1362 1.378 . S
C1364 C1365 1.367 . S
C1365 C1364 1.367 . S
C1365 C1367 1.433 . S
C1366 C1362 1.350 . S
C1366 C1363 1.463 . S
C1366 N1370 1.427 . S
C1367 H1357 0.929 . S
C1367 C1365 1.433 . S
C1367 N1370 1.384 . S
C1368 H1359 0.929 . S
C1368 C1360 1.378 . S
C1368 C1363 1.350 . S
C1369 H1356 0.929 . S
C1369 C1361 1.433 . S
C1369 N1371 1.384 . S
N1370 C1366 1.427 . S
N1370 C1367 1.384 . S
N1371 C1363 1.427 . S
N1371 C1369 1.384 . S
H1372 C1378 0.930 . S
H1373 C1382 0.930 . S
H1374 C1387 0.929 . S
H1375 C1385 0.929 . S
H1376 C1380 0.929 . S
H1377 C1386 0.929 . S
C1378 H1372 0.930 . S
C1378 C1379 1.367 . S
C1378 C1386 1.378 . S
C1379 C1378 1.367 . S
C1379 C1387 1.433 . S
C1380 H1376 0.929 . S
C1380 C1382 1.378 . S
C1380 C1384 1.350 . S
C1381 C1384 1.463 . S
C1381 C1386 1.350 . S
C1381 N1389 1.427 . S
C1382 H1373 0.930 . S
C1382 C1380 1.378 . S
C1382 C1383 1.367 . S
C1383 C1382 1.367 . S
C1383 C1385 1.433 . S
C1384 C1380 1.350 . S
C1384 C1381 1.463 . S
C1384 N1388 1.427 . S
C1385 H1375 0.929 . S
C1385 C1383 1.433 . S
C1385 N1388 1.384 . S
C1386 H1377 0.929 . S
C1386 C1378 1.378 . S
C1386 C1381 1.350 . S
C1387 H1374 0.929 . S
C1387 C1379 1.433 . S
C1387 N1389 1.384 . S
N1388 C1384 1.427 . S
N1388 C1385 1.384 . S
N1389 C1381 1.427 . S
N1389 C1387 1.384 . S
H1390 C1396 0.930 . S
H1391 C1400 0.930 . S
H1392 C1405 0.929 . S
H1393 C1403 0.929 . S
H1394 C1398 0.929 . S
H1395 C1404 0.929 . S
C1396 H1390 0.930 . S
C1396 C1397 1.367 . S
C1396 C1404 1.378 . S
C1397 C1396 1.367 . S
C1397 C1405 1.433 . S
C1398 H1394 0.929 . S
C1398 C1400 1.378 . S
C1398 C1402 1.350 . S
C1399 C1402 1.463 . S
C1399 C1404 1.350 . S
C1399 N1407 1.427 . S
C1400 H1391 0.930 . S
C1400 C1398 1.378 . S
C1400 C1401 1.367 . S
C1401 C1400 1.367 . S
C1401 C1403 1.433 . S
C1402 C1398 1.350 . S
C1402 C1399 1.463 . S
C1402 N1406 1.427 . S
C1403 H1393 0.929 . S
C1403 C1401 1.433 . S
C1403 N1406 1.384 . S
C1404 H1395 0.929 . S
C1404 C1396 1.378 . S
C1404 C1399 1.350 . S
C1405 H1392 0.929 . S
C1405 C1397 1.433 . S
C1405 N1407 1.384 . S
N1406 C1402 1.427 . S
N1406 C1403 1.384 . S
N1407 C1399 1.427 . S
N1407 C1405 1.384 . S
H1408 C1414 0.930 . S
H1409 C1418 0.930 . S
H1410 C1423 0.929 . S
H1411 C1421 0.929 . S
H1412 C1416 0.929 . S
H1413 C1422 0.929 . S
C1414 H1408 0.930 . S
C1414 C1415 1.367 . S
C1414 C1422 1.378 . S
C1415 C1414 1.367 . S
C1415 C1423 1.433 . S
C1416 H1412 0.929 . S
C1416 C1418 1.378 . S
C1416 C1420 1.350 . S
C1417 C1420 1.463 . S
C1417 C1422 1.350 . S
C1417 N1425 1.427 . S
C1418 H1409 0.930 . S
C1418 C1416 1.378 . S
C1418 C1419 1.367 . S
C1419 C1418 1.367 . S
C1419 C1421 1.433 . S
C1420 C1416 1.350 . S
C1420 C1417 1.463 . S
C1420 N1424 1.427 . S
C1421 H1411 0.929 . S
C1421 C1419 1.433 . S
C1421 N1424 1.384 . S
C1422 H1413 0.929 . S
C1422 C1414 1.378 . S
C1422 C1417 1.350 . S
C1423 H1410 0.929 . S
C1423 C1415 1.433 . S
C1423 N1425 1.384 . S
N1424 C1420 1.427 . S
N1424 C1421 1.384 . S
N1425 C1417 1.427 . S
N1425 C1423 1.384 . S
H1426 C1432 0.930 . S
H1427 C1436 0.930 . S
H1428 C1441 0.929 . S
H1429 C1439 0.929 . S
H1430 C1434 0.929 . S
H1431 C1440 0.929 . S
C1432 H1426 0.930 . S
C1432 C1433 1.367 . S
C1432 C1440 1.378 . S
C1433 C1432 1.367 . S
C1433 C1441 1.433 . S
C1434 H1430 0.929 . S
C1434 C1436 1.378 . S
C1434 C1438 1.350 . S
C1435 C1438 1.463 . S
C1435 C1440 1.350 . S
C1435 N1443 1.427 . S
C1436 H1427 0.930 . S
C1436 C1434 1.378 . S
C1436 C1437 1.367 . S
C1437 C1436 1.367 . S
C1437 C1439 1.433 . S
C1438 C1434 1.350 . S
C1438 C1435 1.463 . S
C1438 N1442 1.427 . S
C1439 H1429 0.929 . S
C1439 C1437 1.433 . S
C1439 N1442 1.384 . S
C1440 H1431 0.929 . S
C1440 C1432 1.378 . S
C1440 C1435 1.350 . S
C1441 H1428 0.929 . S
C1441 C1433 1.433 . S
C1441 N1443 1.384 . S
N1442 C1438 1.427 . S
N1442 C1439 1.384 . S
N1443 C1435 1.427 . S
N1443 C1441 1.384 . S
H1444 C1450 0.930 . S
H1445 C1454 0.930 . S
H1446 C1459 0.929 . S
H1447 C1457 0.929 . S
H1448 C1452 0.929 . S
H1449 C1458 0.929 . S
C1450 H1444 0.930 . S
C1450 C1451 1.367 . S
C1450 C1458 1.378 . S
C1451 C1450 1.367 . S
C1451 C1459 1.433 . S
C1452 H1448 0.929 . S
C1452 C1454 1.378 . S
C1452 C1456 1.350 . S
C1453 C1456 1.463 . S
C1453 C1458 1.350 . S
C1453 N1461 1.427 . S
C1454 H1445 0.930 . S
C1454 C1452 1.378 . S
C1454 C1455 1.367 . S
C1455 C1454 1.367 . S
C1455 C1457 1.433 . S
C1456 C1452 1.350 . S
C1456 C1453 1.463 . S
C1456 N1460 1.427 . S
C1457 H1447 0.929 . S
C1457 C1455 1.433 . S
C1457 N1460 1.384 . S
C1458 H1449 0.929 . S
C1458 C1450 1.378 . S
C1458 C1453 1.350 . S
C1459 H1446 0.929 . S
C1459 C1451 1.433 . S
C1459 N1461 1.384 . S
N1460 C1456 1.427 . S
N1460 C1457 1.384 . S
N1461 C1453 1.427 . S
N1461 C1459 1.384 . S
H1462 C1468 0.930 . S
H1463 C1472 0.930 . S
H1464 C1477 0.929 . S
H1465 C1475 0.929 . S
H1466 C1470 0.929 . S
H1467 C1476 0.929 . S
C1468 H1462 0.930 . S
C1468 C1469 1.367 . S
C1468 C1476 1.378 . S
C1469 C1468 1.367 . S
C1469 C1477 1.433 . S
C1470 H1466 0.929 . S
C1470 C1472 1.378 . S
C1470 C1474 1.350 . S
C1471 C1474 1.463 . S
C1471 C1476 1.350 . S
C1471 N1479 1.427 . S
C1472 H1463 0.930 . S
C1472 C1470 1.378 . S
C1472 C1473 1.367 . S
C1473 C1472 1.367 . S
C1473 C1475 1.433 . S
C1474 C1470 1.350 . S
C1474 C1471 1.463 . S
C1474 N1478 1.427 . S
C1475 H1465 0.929 . S
C1475 C1473 1.433 . S
C1475 N1478 1.384 . S
C1476 H1467 0.929 . S
C1476 C1468 1.378 . S
C1476 C1471 1.350 . S
C1477 H1464 0.929 . S
C1477 C1469 1.433 . S
C1477 N1479 1.384 . S
N1478 C1474 1.427 . S
N1478 C1475 1.384 . S
N1479 C1471 1.427 . S
N1479 C1477 1.384 . S
H1480 C1486 0.930 . S
H1481 C1490 0.930 . S
H1482 C1495 0.929 . S
H1483 C1493 0.929 . S
H1484 C1488 0.929 . S
H1485 C1494 0.929 . S
C1486 H1480 0.930 . S
C1486 C1487 1.367 . S
C1486 C1494 1.378 . S
C1487 C1486 1.367 . S
C1487 C1495 1.433 . S
C1488 H1484 0.929 . S
C1488 C1490 1.378 . S
C1488 C1492 1.350 . S
C1489 C1492 1.463 . S
C1489 C1494 1.350 . S
C1489 N1497 1.427 . S
C1490 H1481 0.930 . S
C1490 C1488 1.378 . S
C1490 C1491 1.367 . S
C1491 C1490 1.367 . S
C1491 C1493 1.433 . S
C1492 C1488 1.350 . S
C1492 C1489 1.463 . S
C1492 N1496 1.427 . S
C1493 H1483 0.929 . S
C1493 C1491 1.433 . S
C1493 N1496 1.384 . S
C1494 H1485 0.929 . S
C1494 C1486 1.378 . S
C1494 C1489 1.350 . S
C1495 H1482 0.929 . S
C1495 C1487 1.433 . S
C1495 N1497 1.384 . S
N1496 C1492 1.427 . S
N1496 C1493 1.384 . S
N1497 C1489 1.427 . S
N1497 C1495 1.384 . S
H1498 C1504 0.930 . S
H1499 C1508 0.930 . S
H1500 C1513 0.929 . S
H1501 C1511 0.929 . S
H1502 C1506 0.929 . S
H1503 C1512 0.929 . S
C1504 H1498 0.930 . S
C1504 C1505 1.367 . S
C1504 C1512 1.378 . S
C1505 C1504 1.367 . S
C1505 C1513 1.433 . S
C1506 H1502 0.929 . S
C1506 C1508 1.378 . S
C1506 C1510 1.350 . S
C1507 C1510 1.463 . S
C1507 C1512 1.350 . S
C1507 N1515 1.427 . S
C1508 H1499 0.930 . S
C1508 C1506 1.378 . S
C1508 C1509 1.367 . S
C1509 C1508 1.367 . S
C1509 C1511 1.433 . S
C1510 C1506 1.350 . S
C1510 C1507 1.463 . S
C1510 N1514 1.427 . S
C1511 H1501 0.929 . S
C1511 C1509 1.433 . S
C1511 N1514 1.384 . S
C1512 H1503 0.929 . S
C1512 C1504 1.378 . S
C1512 C1507 1.350 . S
C1513 H1500 0.929 . S
C1513 C1505 1.433 . S
C1513 N1515 1.384 . S
N1514 C1510 1.427 . S
N1514 C1511 1.384 . S
N1515 C1507 1.427 . S
N1515 C1513 1.384 . S
H1516 C1522 0.930 . S
H1517 C1526 0.930 . S
H1518 C1531 0.929 . S
H1519 C1529 0.929 . S
H1520 C1524 0.929 . S
H1521 C1530 0.929 . S
C1522 H1516 0.930 . S
C1522 C1523 1.367 . S
C1522 C1530 1.378 . S
C1523 C1522 1.367 . S
C1523 C1531 1.433 . S
C1524 H1520 0.929 . S
C1524 C1526 1.378 . S
C1524 C1528 1.350 . S
C1525 C1528 1.463 . S
C1525 C1530 1.350 . S
C1525 N1533 1.427 . S
C1526 H1517 0.930 . S
C1526 C1524 1.378 . S
C1526 C1527 1.367 . S
C1527 C1526 1.367 . S
C1527 C1529 1.433 . S
C1528 C1524 1.350 . S
C1528 C1525 1.463 . S
C1528 N1532 1.427 . S
C1529 H1519 0.929 . S
C1529 C1527 1.433 . S
C1529 N1532 1.384 . S
C1530 H1521 0.929 . S
C1530 C1522 1.378 . S
C1530 C1525 1.350 . S
C1531 H1518 0.929 . S
C1531 C1523 1.433 . S
C1531 N1533 1.384 . S
N1532 C1528 1.427 . S
N1532 C1529 1.384 . S
N1533 C1525 1.427 . S
N1533 C1531 1.384 . S
H1534 C1540 0.930 . S
H1535 C1544 0.930 . S
H1536 C1549 0.929 . S
H1537 C1547 0.929 . S
H1538 C1542 0.929 . S
H1539 C1548 0.929 . S
C1540 H1534 0.930 . S
C1540 C1541 1.367 . S
C1540 C1548 1.378 . S
C1541 C1540 1.367 . S
C1541 C1549 1.433 . S
C1542 H1538 0.929 . S
C1542 C1544 1.378 . S
C1542 C1546 1.350 . S
C1543 C1546 1.463 . S
C1543 C1548 1.350 . S
C1543 N1551 1.427 . S
C1544 H1535 0.930 . S
C1544 C1542 1.378 . S
C1544 C1545 1.367 . S
C1545 C1544 1.367 . S
C1545 C1547 1.433 . S
C1546 C1542 1.350 . S
C1546 C1543 1.463 . S
C1546 N1550 1.427 . S
C1547 H1537 0.929 . S
C1547 C1545 1.433 . S
C1547 N1550 1.384 . S
C1548 H1539 0.929 . S
C1548 C1540 1.378 . S
C1548 C1543 1.350 . S
C1549 H1536 0.929 . S
C1549 C1541 1.433 . S
C1549 N1551 1.384 . S
N1550 C1546 1.427 . S
N1550 C1547 1.384 . S
N1551 C1543 1.427 . S
N1551 C1549 1.384 . S
C551 C275 2.819 . S
C555 C3 2.819 . S
C569 C37 2.819 . S
C573 C307 2.819 . S
C587 C343 2.815 . S
C591 C69 2.815 . S
C605 C103 2.820 . S
C609 C375 2.820 . S
C623 C137 2.818 . S
C627 C409 2.818 . S
C641 C171 2.814 . S
C645 C443 2.814 . S
C659 C477 2.818 . S
C663 C207 2.818 . S
C677 C511 2.814 . S
C681 C241 2.814 . S
C695 C1 1.812 . S
C699 C40 1.777 . S
C713 C96 1.776 . S
C717 C35 1.812 . S
C731 C130 1.777 . S
C735 C71 1.812 . S
C749 C6 1.761 . S
C753 C105 1.826 . S
C767 C244 1.777 . S
C771 C139 1.812 . S
C785 C164 1.766 . S
C789 C173 1.823 . S
C803 C205 1.819 . S
C807 C198 1.770 . S
C821 C239 1.827 . S
C825 C210 1.759 . S
C839 C334 1.759 . S
C843 C273 1.826 . S
C857 C309 1.826 . S
C861 C346 1.759 . S
C875 C402 1.762 . S
C879 C341 1.823 . S
C893 C278 1.777 . S
C897 C377 1.812 . S
C911 C538 1.772 . S
C915 C411 1.817 . S
C929 C436 1.776 . S
C933 C445 1.812 . S
C947 C470 1.775 . S
C951 C479 1.815 . S
C965 C504 1.763 . S
C969 C513 1.825 . S
C983 C328 0.623 . S
C987 C28 0.642 . S
C1001 C355 0.660 . S
C1005 C62 0.640 . S
C1019 C396 0.644 . S
C1023 C74 0.610 . S
C1037 C287 0.652 . S
C1041 C108 0.648 . S
C1055 C532 0.642 . S
C1059 C142 0.650 . S
C1073 C430 0.641 . S
C1077 C176 0.650 . S
C1091 C232 0.609 . S
C1095 C464 0.639 . S
C1109 C498 0.656 . S
C1113 C266 0.645 . S
C1127 C300 0.650 . S
C1131 C49 0.637 . S
C1145 C312 0.645 . S
C1149 C90 0.656 . S
C1163 C368 0.612 . S
C1167 C124 0.649 . S
C1181 C15 0.654 . S
C1185 C380 0.647 . S
C1199 C414 0.610 . S
C1203 C253 0.629 . S
C1217 C158 0.643 . S
C1221 C448 0.650 . S
C1235 C482 0.609 . S
C1239 C192 0.637 . S
C1253 C516 0.609 . S
C1257 C219 0.638 . S
C1271 C185 1.316 . S
C1275 C22 1.318 . S
C1289 C226 1.317 . S
C1293 C56 1.317 . S
C1307 C260 1.307 . S
C1311 C83 1.314 . S
C1325 C151 1.318 . S
C1329 C117 1.316 . S
C1343 C457 1.303 . S
C1347 C294 1.309 . S
C1361 C321 1.303 . S
C1365 C491 1.301 . S
C1379 C362 1.303 . S
C1383 C525 1.301 . S
C1397 C389 1.318 . S
C1401 C423 1.316 . S
C1415 C85 1.719 . S
C1419 C17 1.712 . S
C1433 C51 1.721 . S
C1437 C119 1.715 . S
C1451 C221 1.712 . S
C1455 C153 1.718 . S
C1469 C255 1.720 . S
C1473 C187 1.714 . S
C1487 C289 1.719 . S
C1491 C357 1.720 . S
C1505 C391 1.718 . S
C1509 C323 1.712 . S
C1523 C493 1.719 . S
C1527 C425 1.720 . S
C1541 C527 1.719 . S
C1545 C459 1.712 . S
