# Generated by pormake.
# Topology wjd, (6)-cn, num edge types: 1
# Building blocks:
#     Node 0, Type 0, BuildingBlock: JUFBIX_clean_sbu_0, # of connection points: 6
#     Node 1, Type 0, BuildingBlock: JUFBIX_clean_sbu_0, # of connection points: 6
#     Node 2, Type 0, BuildingBlock: JUFBIX_clean_sbu_0, # of connection points: 6
#     Node 3, Type 0, BuildingBlock: JUFBIX_clean_sbu_0, # of connection points: 6
#     Node 4, Type 0, BuildingBlock: JUFBIX_clean_sbu_0, # of connection points: 6
#     Node 5, Type 0, BuildingBlock: JUFBIX_clean_sbu_0, # of connection points: 6
#     Node 6, Type 0, BuildingBlock: JUFBIX_clean_sbu_0, # of connection points: 6
#     Node 7, Type 0, BuildingBlock: JUFBIX_clean_sbu_0, # of connection points: 6
#     Node 8, Type 0, BuildingBlock: JUFBIX_clean_sbu_0, # of connection points: 6
#     Node 9, Type 0, BuildingBlock: JUFBIX_clean_sbu_0, # of connection points: 6
#     Node 10, Type 0, BuildingBlock: JUFBIX_clean_sbu_0, # of connection points: 6
#     Node 11, Type 0, BuildingBlock: JUFBIX_clean_sbu_0, # of connection points: 6
#     Edge 12, Type (0, 0), None
#     Edge 13, Type (0, 0), None
#     Edge 14, Type (0, 0), None
#     Edge 15, Type (0, 0), None
#     Edge 16, Type (0, 0), None
#     Edge 17, Type (0, 0), None
#     Edge 18, Type (0, 0), None
#     Edge 19, Type (0, 0), None
#     Edge 20, Type (0, 0), None
#     Edge 21, Type (0, 0), None
#     Edge 22, Type (0, 0), None
#     Edge 23, Type (0, 0), None
#     Edge 24, Type (0, 0), None
#     Edge 25, Type (0, 0), None
#     Edge 26, Type (0, 0), None
#     Edge 27, Type (0, 0), None
#     Edge 28, Type (0, 0), None
#     Edge 29, Type (0, 0), None
#     Edge 30, Type (0, 0), None
#     Edge 31, Type (0, 0), None
#     Edge 32, Type (0, 0), None
#     Edge 33, Type (0, 0), None
#     Edge 34, Type (0, 0), None
#     Edge 35, Type (0, 0), None
#     Edge 36, Type (0, 0), None
#     Edge 37, Type (0, 0), None
#     Edge 38, Type (0, 0), None
#     Edge 39, Type (0, 0), None
#     Edge 40, Type (0, 0), None
#     Edge 41, Type (0, 0), None
#     Edge 42, Type (0, 0), None
#     Edge 43, Type (0, 0), None
#     Edge 44, Type (0, 0), None
#     Edge 45, Type (0, 0), None
#     Edge 46, Type (0, 0), None
#     Edge 47, Type (0, 0), None
# Relax obj value: 0.360
# Max RMSD: 0.262
# Mean RMSD: 0.262
data_MOF--net-wjd--node1-JUFBIX_clean_sbu_0--edge1-none
_symmetry_space_group_name_H-M    P1
_symmetry_Int_Tables_number       1
_symmetry_cell_setting            triclinic
loop_
_symmetry_equiv_pos_as_xyz
'x, y, z'
_cell_length_a     16.729811
_cell_length_b     16.729756
_cell_length_c     22.753335
_cell_angle_alpha  90.000381
_cell_angle_beta   89.999405
_cell_angle_gamma 119.99772
loop_
_atom_site_label
_atom_site_type_symbol
_atom_site_fract_x
_atom_site_fract_y
_atom_site_fract_z
_atom_type_partial_charge
Co0 Co 0.3265 0.18906 0.16505 0.0
C1 C 0.44271 0.22822 0.26772 0.0
Co2 Co 0.43035 0.15123 0.16068 0.0
C3 C 0.16338 0.20549 0.18657 0.0
C4 C 0.29091 0.33242 0.19025 0.0
N5 N 0.25413 0.24091 0.17894 0.0
N6 N 0.14301 0.27208 0.19969 0.0
C7 C 0.22254 0.35221 0.20106 0.0
H8 H 0.11319 0.1331 0.18067 0.0
H9 H 0.36368 0.38224 0.19205 0.0
C10 C 0.30038 0.07838 0.06842 0.0
N11 N 0.51867 0.11914 0.14647 0.0
C12 C 0.61015 0.17844 0.14119 0.0
C13 C 0.50698 0.03604 0.13145 0.0
N14 N 0.65592 0.13616 0.12306 0.0
C15 C 0.59167 0.04609 0.11804 0.0
C16 C 0.2641 1.01884 0.20029 0.0
O17 O 0.25845 0.11648 0.09289 0.0
O18 O 0.38441 0.10889 0.08302 0.0
O19 O 0.34345 0.03176 0.18624 0.0
O20 O 0.25011 0.08626 0.20459 0.0
O21 O 0.47283 0.18418 0.23877 0.0
H22 H 0.44124 0.97265 0.12955 0.0
H23 H 0.64364 0.25099 0.15232 0.0
O24 O 0.38818 0.24849 0.2409 0.0
O25 O 0.40037 0.29518 0.12117 0.0
O26 O 0.51605 0.27489 0.13642 0.0
C27 C 0.48585 0.32807 0.12266 0.0
H28 H 0.23027 0.41939 0.20972 0.0
H29 H 0.60507 0.99115 0.10627 0.0
Co30 Co 0.81672 0.74502 0.41808 0.0
C31 C 0.84002 0.64422 0.33232 0.0
Co32 Co 0.8747 0.66792 0.45521 0.0
C33 C 0.78452 0.8985 0.41414 0.0
C34 C 0.82902 0.8675 0.33433 0.0
N35 N 0.78281 0.82726 0.3842 0.0
N36 N 0.84237 0.98079 0.38909 0.0
C37 C 0.86832 0.96135 0.33798 0.0
H38 H 0.75836 0.89225 0.45847 0.0
H39 H 0.85626 0.83566 0.30635 0.0
C40 C 0.84031 0.78084 0.53642 0.0
N41 N 0.92628 0.593 0.48193 0.0
C42 C 0.89454 0.50239 0.46903 0.0
C43 C 1.01715 0.62544 0.49319 0.0
N44 N 0.96199 0.47918 0.46999 0.0
C45 C 1.03922 0.55693 0.48494 0.0
C46 C 1.0106 0.82569 0.41274 0.0
O47 O 0.84043 0.81385 0.4873 0.0
O48 O 0.85176 0.70923 0.53689 0.0
O49 O 0.99644 0.76939 0.45329 0.0
O50 O 0.94168 0.82665 0.3908 0.0
O51 O 0.89014 0.63576 0.37177 0.0
H52 H 0.06717 0.69625 0.50349 0.0
H53 H 0.82518 0.45637 0.45338 0.0
O54 O 0.79153 0.67933 0.34731 0.0
O55 O 0.6919 0.65371 0.44592 0.0
O56 O 0.75295 0.56445 0.4576 0.0
C57 C 0.68186 0.57352 0.45737 0.0
H58 H 0.9201 1.01156 0.30865 0.0
H59 H 0.10692 0.56404 0.48954 0.0
Co60 Co 0.8877 0.15276 0.16504 0.0
C61 C 0.84851 0.22979 0.26771 0.0
Co62 Co 0.92553 0.29443 0.16067 0.0
C63 C 0.87126 0.97321 0.18656 0.0
C64 C 0.74433 0.97381 0.19024 0.0
N65 N 0.83584 1.02853 0.17892 0.0
N66 N 0.80467 0.88625 0.19968 0.0
C67 C 0.72454 0.88565 0.20105 0.0
H68 H 0.94365 0.9954 0.18066 0.0
H69 H 0.69452 0.99677 0.19204 0.0
C70 C 0.99841 0.23733 0.06843 0.0
N71 N 0.95764 0.41485 0.14648 0.0
C72 C 0.89834 0.44704 0.14121 0.0
C73 C 1.04074 0.48626 0.13148 0.0
N74 N 0.94062 0.53508 0.12309 0.0
C75 C 1.0307 0.56091 0.11808 0.0
C76 C 0.0579 0.26054 0.20031 0.0
O77 O 0.9603 0.15729 0.09288 0.0
O78 O 0.96791 0.29086 0.08302 0.0
O79 O 1.045 0.32699 0.18626 0.0
O80 O 0.99049 0.17915 0.20459 0.0
O81 O 0.89255 0.30394 0.23876 0.0
H82 H 0.10413 0.48391 0.12958 0.0
H83 H 0.82579 0.40798 0.15233 0.0
O84 O 0.82826 0.15499 0.2409 0.0
O85 O 0.78158 0.12052 0.12117 0.0
O86 O 0.80189 0.25651 0.13639 0.0
C87 C 0.74872 0.17313 0.12264 0.0
H88 H 0.65736 0.82621 0.20971 0.0
H89 H 0.08564 0.62925 0.10632 0.0
Co90 Co 0.33173 0.08701 0.41809 0.0
C91 C 0.43251 0.21111 0.33233 0.0
Co92 Co 0.40883 0.22211 0.45521 0.0
C93 C 0.17825 0.90137 0.41416 0.0
C94 C 0.20926 0.97683 0.33433 0.0
N95 N 0.2495 0.97086 0.38421 0.0
N96 N 0.09596 0.87699 0.38912 0.0
C97 C 0.11541 0.92233 0.33799 0.0
H98 H 0.1845 0.88144 0.45848 0.0
H99 H 0.24112 0.03589 0.30634 0.0
C100 C 0.2959 0.0748 0.53643 0.0
N101 N 0.48375 0.34861 0.48193 0.0
C102 C 0.57435 0.40747 0.46903 0.0
C103 C 0.4513 0.40704 0.49319 0.0
N104 N 0.59756 0.49814 0.46999 0.0
C105 C 0.51981 0.49761 0.48493 0.0
C106 C 0.25104 0.20022 0.41274 0.0
O107 O 0.2629 0.0419 0.48731 0.0
O108 O 0.36751 0.15786 0.5369 0.0
O109 O 0.30736 0.24238 0.45329 0.0
O110 O 0.25009 0.13033 0.39081 0.0
O111 O 0.441 0.26971 0.37177 0.0
H112 H 0.38049 0.38626 0.50349 0.0
H113 H 0.62038 0.38414 0.45338 0.0
O114 O 0.39741 0.12752 0.34732 0.0
O115 O 0.42305 0.05352 0.44593 0.0
O116 O 0.51229 0.20383 0.45761 0.0
C117 C 0.50324 0.12367 0.45738 0.0
H118 H 0.0652 0.92388 0.30865 0.0
H119 H 0.51269 0.5582 0.48954 0.0
Co120 Co 0.92401 0.75027 0.16507 0.0
C121 C 0.84695 0.63405 0.26771 0.0
Co122 Co 0.78232 0.64642 0.16068 0.0
C123 C 0.10356 0.91338 0.18653 0.0
C124 C 0.10294 0.78584 0.1903 0.0
N125 N 0.04822 0.82263 0.17895 0.0
N126 N 0.19053 0.93374 0.1996 0.0
C127 C 0.19111 0.85421 0.20106 0.0
H128 H 0.08138 0.96359 0.1806 0.0
H129 H 0.07996 0.71306 0.19215 0.0
C130 C 0.83945 0.77639 0.06843 0.0
N131 N 0.66191 0.55812 0.14648 0.0
C132 C 0.6297 0.46663 0.14127 0.0
C133 C 0.59052 0.56983 0.13143 0.0
N134 N 0.54165 0.42087 0.12318 0.0
C135 C 0.51585 0.48512 0.11806 0.0
C136 C 0.81621 0.81268 0.20031 0.0
O137 O 0.91948 0.81832 0.0929 0.0
O138 O 0.78592 0.69237 0.08303 0.0
O139 O 0.74977 0.73334 0.18626 0.0
O140 O 0.89761 0.82667 0.2046 0.0
O141 O 0.77278 0.60391 0.23877 0.0
H142 H 0.59291 0.63558 0.12946 0.0
H143 H 0.66876 0.43314 0.15241 0.0
O144 O 0.92177 0.68861 0.24093 0.0
O145 O 0.95626 0.67638 0.12121 0.0
O146 O 0.82025 0.5607 0.1364 0.0
C147 C 0.90364 0.59091 0.12267 0.0
H148 H 0.25055 0.84646 0.20976 0.0
H149 H 0.44753 0.47174 0.10625 0.0
Co150 Co 0.98972 0.26002 0.41808 0.0
C151 C 0.86562 0.23671 0.33232 0.0
Co152 Co 0.85463 0.20204 0.45521 0.0
C153 C 0.17537 0.29219 0.41414 0.0
C154 C 0.09988 0.24769 0.33433 0.0
N155 N 0.10585 0.29392 0.3842 0.0
N156 N 0.19974 0.23426 0.38912 0.0
C157 C 0.15438 0.20834 0.338 0.0
H158 H 0.1953 0.31839 0.45846 0.0
H159 H 1.0408 0.22047 0.30635 0.0
C160 C 1.00196 0.23643 0.53642 0.0
N161 N 0.72814 0.15048 0.48194 0.0
C162 C 0.66928 0.18222 0.46903 0.0
C163 C 0.66972 0.05961 0.49322 0.0
N164 N 0.57862 0.11476 0.47 0.0
C165 C 0.57915 0.03754 0.48496 0.0
C166 C 0.87648 0.06614 0.41273 0.0
O167 O 1.03484 0.2363 0.4873 0.0
O168 O 0.9189 0.22499 0.5369 0.0
O169 O 0.83436 0.0803 0.4533 0.0
O170 O 0.94637 0.13505 0.3908 0.0
O171 O 0.80702 0.1866 0.37177 0.0
H172 H 0.69051 1.0096 0.50354 0.0
H173 H 0.6926 0.25157 0.45337 0.0
O174 O 0.94921 0.28521 0.34731 0.0
O175 O 1.02322 0.38483 0.44592 0.0
O176 O 0.87292 0.32379 0.4576 0.0
C177 C 0.95307 0.39488 0.45737 0.0
H178 H 0.15281 0.15656 0.30867 0.0
H179 H 0.51857 0.96985 0.48958 0.0
Co180 Co 0.15948 0.41543 0.67274 0.0
C181 C 0.07365 0.2798 0.58516 0.0
Co182 Co 0.19935 0.3108 0.67654 0.0
C183 C 0.19302 0.59948 0.65283 0.0
C184 C 0.0499 0.49902 0.64245 0.0
N185 N 0.13106 0.50829 0.6597 0.0
N186 N 0.15415 0.64725 0.63147 0.0
C187 C 0.06362 0.5842 0.62589 0.0
H188 H 0.26531 0.63104 0.66437 0.0
H189 H 0.98551 0.43422 0.64041 0.0
C190 C 0.25082 0.43229 0.77375 0.0
N191 N 0.25186 0.23586 0.69021 0.0
C192 C 0.21918 0.14688 0.70503 0.0
C193 C 0.34443 0.27478 0.69846 0.0
N194 N 0.28821 0.12958 0.7191 0.0
C195 C 0.36696 0.20994 0.71451 0.0
C196 C 0.33584 0.46743 0.62904 0.0
O197 O 0.20407 0.46229 0.74806 0.0
O198 O 0.2667 0.37547 0.74652 0.0
O199 O 0.30174 0.38148 0.62795 0.0
O200 O 0.28272 0.49836 0.64223 0.0
O201 O 0.11856 0.24236 0.60722 0.0
H202 H 0.39344 0.34748 0.69602 0.0
H203 H 0.14663 0.09526 0.70357 0.0
O204 O 0.10317 0.36422 0.59788 0.0
O205 O 1.04189 0.32883 0.70567 0.0
O206 O 0.10026 0.23817 0.72261 0.0
C207 C 1.03143 0.25027 0.72135 0.0
H208 H 1.01028 0.59866 0.61205 0.0
H209 H 0.43565 0.22065 0.72169 0.0
Co210 Co 0.16827 0.87402 0.93533 0.0
C211 C 0.24198 0.82489 0.83834 0.0
Co212 Co 0.31122 0.91129 0.9404 0.0
C213 C 0.98782 0.85701 0.90635 0.0
C214 C 0.98738 0.72991 0.91216 0.0
N215 N 1.04232 0.82216 0.92055 0.0
N216 N 0.90095 0.78957 0.89254 0.0
C217 C 0.90043 0.70959 0.89662 0.0
H218 H 1.01019 0.92985 0.90872 0.0
H219 H 1.00958 0.6797 0.91495 0.0
C220 C 0.2573 0.99289 1.02877 0.0
N221 N 0.43294 0.94299 0.95502 0.0
C222 C 0.46484 0.88339 0.96197 0.0
C223 C 0.50463 1.02607 0.96971 0.0
N224 N 0.55303 0.92552 0.98068 0.0
C225 C 0.57885 1.01575 0.98458 0.0
C226 C 0.27686 0.04155 0.89179 0.0
O227 O 0.17674 0.95432 1.0046 0.0
O228 O 0.30977 0.96052 1.01573 0.0
O229 O 0.34303 1.02961 0.90925 0.0
O230 O 0.19544 0.97376 0.88969 0.0
O231 O 0.31806 0.87092 0.86488 0.0
H232 H 0.5026 0.08968 0.97066 0.0
H233 H 0.42509 0.81047 0.9519 0.0
O234 O 0.16845 0.80806 0.86504 0.0
O235 O 0.13617 0.7699 0.98333 0.0
O236 O 0.27247 0.78921 0.96914 0.0
C237 C 0.18861 0.73617 0.98237 0.0
H238 H 0.84115 0.64158 0.88982 0.0
H239 H 0.64685 0.07073 0.9969 0.0
Co240 Co 0.66132 0.75938 0.67275 0.0
C241 C 0.79695 0.80917 0.58516 0.0
Co242 Co 0.76594 0.90386 0.67655 0.0
C243 C 0.47729 0.60884 0.65288 0.0
C244 C 0.57778 0.56622 0.64244 0.0
N245 N 0.56849 0.63811 0.65971 0.0
N246 N 0.42954 0.52218 0.63158 0.0
C247 C 0.49261 0.49474 0.62592 0.0
H248 H 0.44572 0.64957 0.66442 0.0
H249 H 0.6426 0.56668 0.64035 0.0
C250 C 0.64446 0.83386 0.77376 0.0
N251 N 0.84086 0.0313 0.69021 0.0
C252 C 0.92987 0.08763 0.70493 0.0
C253 C 0.80192 0.08492 0.69849 0.0
N254 N 0.94715 0.17397 0.71894 0.0
C255 C 0.86677 0.17233 0.71447 0.0
C256 C 0.60932 0.88373 0.62905 0.0
O257 O 0.61446 0.7571 0.74806 0.0
O258 O 0.70127 0.90655 0.74652 0.0
O259 O 0.69527 0.93556 0.62796 0.0
O260 O 0.57838 0.79967 0.64224 0.0
O261 O 0.83439 0.89152 0.60723 0.0
H262 H 0.7292 0.0612 0.69612 0.0
H263 H 0.9815 0.06673 0.70344 0.0
O264 O 0.71253 0.75427 0.59788 0.0
O265 O 0.74793 0.7284 0.70568 0.0
O266 O 0.83858 0.87741 0.72262 0.0
C267 C 0.82648 0.7965 0.72136 0.0
H268 H 0.47817 0.42697 0.61203 0.0
H269 H 0.85604 0.2303 0.72169 0.0
Co270 Co 0.20275 0.30957 0.93531 0.0
C271 C 0.25185 0.43241 0.83834 0.0
Co272 Co 0.16547 0.41524 0.94039 0.0
C273 C 0.21977 0.14613 0.90643 0.0
C274 C 0.34686 0.27281 0.91211 0.0
N275 N 0.25461 0.2355 0.92054 0.0
N276 N 0.28722 0.12669 0.89269 0.0
C277 C 0.36719 0.20616 0.89663 0.0
H278 H 0.14693 0.09565 0.90884 0.0
H279 H 0.39705 0.34524 0.91483 0.0
C280 C 0.08389 0.27973 1.02876 0.0
N281 N 0.13374 0.50523 0.95502 0.0
C282 C 0.19334 0.59674 0.96191 0.0
C283 C 0.05067 0.49383 0.96976 0.0
N284 N 0.15118 0.6428 0.98059 0.0
C285 C 0.06098 0.57838 0.9846 0.0
C286 C 1.03521 0.25063 0.89179 0.0
O287 O 0.12246 0.23775 1.00459 0.0
O288 O 0.11627 0.36458 1.01573 0.0
O289 O 0.04714 0.32872 0.90925 0.0
O290 O 0.103 0.23699 0.88968 0.0
O291 O 0.20581 0.46246 0.86487 0.0
H292 H 0.98709 0.42819 0.97077 0.0
H293 H 0.26625 0.62992 0.95183 0.0
O294 O 0.2687 0.37571 0.86502 0.0
O295 O 0.30687 0.3816 0.98331 0.0
O296 O 0.28756 0.49859 0.96912 0.0
C297 C 0.3406 0.46775 0.98235 0.0
H298 H 0.43519 0.21489 0.88979 0.0
H299 H 1.00601 0.5914 0.99697 0.0
Co300 Co 0.31739 0.91729 0.67276 0.0
C301 C 0.26758 1.00312 0.58518 0.0
Co302 Co 0.17288 0.8774 0.67656 0.0
C303 C 0.46792 0.88379 0.65291 0.0
C304 C 0.51055 1.0269 0.64247 0.0
N305 N 0.43866 0.94574 0.65974 0.0
N306 N 0.55458 0.92269 0.6316 0.0
C307 C 0.58202 1.0132 0.62594 0.0
H308 H 0.42719 0.8115 0.66444 0.0
H309 H 0.5101 0.09128 0.64038 0.0
C310 C 0.24289 0.82591 0.77375 0.0
N311 N 1.04544 0.82487 0.69021 0.0
C312 C 0.98911 0.85755 0.70494 0.0
C313 C 0.99182 0.73231 0.69848 0.0
N314 N 0.90278 0.7885 0.71895 0.0
C315 C 0.90441 0.70976 0.71447 0.0
C316 C 0.19306 0.74094 0.62904 0.0
O317 O 0.31966 0.87268 0.74807 0.0
O318 O 0.17018 0.81004 0.74654 0.0
O319 O 0.14119 0.77503 0.62797 0.0
O320 O 0.27712 0.79406 0.64222 0.0
O321 O 0.18523 0.9582 0.60724 0.0
H322 H 1.01554 0.68332 0.69611 0.0
H323 H 1.01002 0.93009 0.70346 0.0
O324 O 0.3225 0.97362 0.59791 0.0
O325 O 0.34833 0.03486 0.70572 0.0
O326 O 0.19929 0.97648 0.72263 0.0
C327 C 0.28021 0.04529 0.72142 0.0
H328 H 0.6498 0.06653 0.61206 0.0
H329 H 0.84645 0.64107 0.72169 0.0
Co330 Co 0.76721 0.9085 0.93531 0.0
C331 C 0.64435 0.83477 0.83835 0.0
Co332 Co 0.66154 0.76553 0.94039 0.0
C333 C 0.93064 0.08896 0.90644 0.0
C334 C 0.80395 0.08936 0.91212 0.0
N335 N 0.84127 0.03444 0.92055 0.0
N336 N 0.95007 0.17584 0.8927 0.0
C337 C 0.8706 0.17634 0.89664 0.0
H338 H 0.98112 0.0666 0.90884 0.0
H339 H 0.73152 0.06713 0.91484 0.0
C340 C 0.79706 0.81946 1.02876 0.0
N341 N 0.57155 0.64381 0.95501 0.0
C342 C 0.48004 0.6119 0.96189 0.0
C343 C 0.58294 0.57213 0.96973 0.0
N344 N 0.43397 0.52369 0.98056 0.0
C345 C 0.49839 0.49789 0.98457 0.0
C346 C 0.82616 0.79993 0.89175 0.0
O347 O 0.83903 0.90002 1.00459 0.0
O348 O 0.71221 0.76698 1.01572 0.0
O349 O 0.74809 0.73375 0.90923 0.0
O350 O 0.8398 0.88136 0.88967 0.0
O351 O 0.61432 0.75868 0.86488 0.0
H352 H 0.64859 0.57418 0.97074 0.0
H353 H 0.44687 0.65164 0.95181 0.0
O354 O 0.70107 0.90832 0.86502 0.0
O355 O 0.69516 0.94058 0.98331 0.0
O356 O 0.57818 0.80425 0.96915 0.0
C357 C 0.60901 0.88813 0.98237 0.0
H358 H 0.86186 0.23561 0.8898 0.0
H359 H 0.48537 0.42991 0.99693 0.0
loop_
_geom_bond_atom_site_label_1
_geom_bond_atom_site_label_2
_geom_bond_distance
_geom_bond_site_symmetry_2
_ccdc_geom_bond_type
Co0 N5 2.057 . S
Co0 O17 2.021 . S
Co0 O20 2.062 . S
Co0 O24 2.117 . S
Co0 O25 2.020 . S
C1 O21 1.259 . S
C1 O24 1.258 . S
Co2 N11 2.057 . S
Co2 O18 2.117 . S
Co2 O19 2.020 1_545 S
Co2 O21 2.021 . S
Co2 O26 2.062 . S
C3 N5 1.316 . S
C3 N6 1.347 . S
C3 H8 0.931 . S
C4 N5 1.375 . S
C4 C7 1.350 . S
C4 H9 0.930 . S
N5 Co0 2.057 . S
N5 C3 1.316 . S
N5 C4 1.375 . S
N6 C3 1.347 . S
N6 C7 1.373 . S
C7 C4 1.350 . S
C7 N6 1.373 . S
C7 H28 0.931 . S
H8 C3 0.931 . S
H9 C4 0.930 . S
C10 O17 1.259 . S
C10 O18 1.258 . S
N11 Co2 2.057 . S
N11 C12 1.316 . S
N11 C13 1.375 . S
C12 N11 1.316 . S
C12 N14 1.347 . S
C12 H23 0.931 . S
C13 N11 1.375 . S
C13 C15 1.350 . S
C13 H22 0.930 . S
N14 C12 1.347 . S
N14 C15 1.373 . S
C15 C13 1.350 . S
C15 N14 1.373 . S
C15 H29 0.931 . S
C16 O19 1.256 . S
C16 O20 1.255 1_565 S
O17 Co0 2.021 . S
O17 C10 1.259 . S
O18 Co2 2.117 . S
O18 C10 1.258 . S
O19 Co2 2.020 1_565 S
O19 C16 1.256 . S
O20 Co0 2.062 . S
O20 C16 1.255 1_545 S
O21 C1 1.259 . S
O21 Co2 2.021 . S
H22 C13 0.930 . S
H23 C12 0.931 . S
O24 Co0 2.117 . S
O24 C1 1.258 . S
O25 Co0 2.020 . S
O25 C27 1.256 . S
O26 Co2 2.062 . S
O26 C27 1.255 . S
C27 O25 1.256 . S
C27 O26 1.255 . S
H28 C7 0.931 . S
H29 C15 0.931 . S
Co30 N35 2.057 . S
Co30 O47 2.021 . S
Co30 O50 2.062 . S
Co30 O54 2.117 . S
Co30 O55 2.020 . S
C31 O51 1.259 . S
C31 O54 1.258 . S
Co32 N41 2.057 . S
Co32 O48 2.117 . S
Co32 O49 2.020 . S
Co32 O51 2.021 . S
Co32 O56 2.062 . S
C33 N35 1.316 . S
C33 N36 1.347 . S
C33 H38 0.931 . S
C34 N35 1.375 . S
C34 C37 1.350 . S
C34 H39 0.930 . S
N35 Co30 2.057 . S
N35 C33 1.316 . S
N35 C34 1.375 . S
N36 C33 1.347 . S
N36 C37 1.373 . S
C37 C34 1.350 . S
C37 N36 1.373 . S
C37 H58 0.931 . S
H38 C33 0.931 . S
H39 C34 0.930 . S
C40 O47 1.259 . S
C40 O48 1.258 . S
N41 Co32 2.057 . S
N41 C42 1.316 . S
N41 C43 1.375 . S
C42 N41 1.316 . S
C42 N44 1.347 . S
C42 H53 0.931 . S
C43 N41 1.375 . S
C43 C45 1.350 . S
C43 H52 0.930 . S
N44 C42 1.347 . S
N44 C45 1.373 . S
C45 C43 1.350 . S
C45 N44 1.373 . S
C45 H59 0.931 . S
C46 O49 1.256 . S
C46 O50 1.255 . S
O47 Co30 2.021 . S
O47 C40 1.259 . S
O48 Co32 2.117 . S
O48 C40 1.258 . S
O49 Co32 2.020 . S
O49 C46 1.256 . S
O50 Co30 2.062 . S
O50 C46 1.255 . S
O51 C31 1.259 . S
O51 Co32 2.021 . S
H52 C43 0.930 . S
H53 C42 0.931 . S
O54 Co30 2.117 . S
O54 C31 1.258 . S
O55 Co30 2.020 . S
O55 C57 1.256 . S
O56 Co32 2.062 . S
O56 C57 1.255 . S
C57 O55 1.256 . S
C57 O56 1.255 . S
H58 C37 0.931 . S
H59 C45 0.931 . S
Co60 N65 2.057 1_545 S
Co60 O77 2.021 . S
Co60 O80 2.062 . S
Co60 O84 2.117 . S
Co60 O85 2.020 . S
C61 O81 1.259 . S
C61 O84 1.258 . S
Co62 N71 2.057 . S
Co62 O78 2.117 . S
Co62 O79 2.020 1_655 S
Co62 O81 2.021 . S
Co62 O86 2.062 . S
C63 N65 1.316 . S
C63 N66 1.347 . S
C63 H68 0.931 . S
C64 N65 1.375 . S
C64 C67 1.350 . S
C64 H69 0.930 . S
N65 Co60 2.057 1_565 S
N65 C63 1.316 . S
N65 C64 1.375 . S
N66 C63 1.347 . S
N66 C67 1.373 . S
C67 C64 1.350 . S
C67 N66 1.373 . S
C67 H88 0.931 . S
H68 C63 0.931 . S
H69 C64 0.930 . S
C70 O77 1.259 . S
C70 O78 1.258 . S
N71 Co62 2.057 . S
N71 C72 1.316 . S
N71 C73 1.375 . S
C72 N71 1.316 . S
C72 N74 1.347 . S
C72 H83 0.931 . S
C73 N71 1.375 . S
C73 C75 1.350 . S
C73 H82 0.930 . S
N74 C72 1.347 . S
N74 C75 1.373 . S
C75 C73 1.350 . S
C75 N74 1.373 . S
C75 H89 0.931 . S
C76 O79 1.256 . S
C76 O80 1.255 1_455 S
O77 Co60 2.021 . S
O77 C70 1.259 . S
O78 Co62 2.117 . S
O78 C70 1.258 . S
O79 Co62 2.020 1_455 S
O79 C76 1.256 . S
O80 Co60 2.062 . S
O80 C76 1.255 1_655 S
O81 C61 1.259 . S
O81 Co62 2.021 . S
H82 C73 0.930 . S
H83 C72 0.931 . S
O84 Co60 2.117 . S
O84 C61 1.258 . S
O85 Co60 2.020 . S
O85 C87 1.256 . S
O86 Co62 2.062 . S
O86 C87 1.255 . S
C87 O85 1.256 . S
C87 O86 1.255 . S
H88 C67 0.931 . S
H89 C75 0.931 . S
Co90 N95 2.057 1_545 S
Co90 O107 2.021 . S
Co90 O110 2.062 . S
Co90 O114 2.117 . S
Co90 O115 2.020 . S
C91 O111 1.259 . S
C91 O114 1.258 . S
Co92 N101 2.057 . S
Co92 O108 2.117 . S
Co92 O109 2.020 . S
Co92 O111 2.021 . S
Co92 O116 2.062 . S
C93 N95 1.316 . S
C93 N96 1.347 . S
C93 H98 0.931 . S
C94 N95 1.375 . S
C94 C97 1.350 . S
C94 H99 0.930 . S
N95 Co90 2.057 1_565 S
N95 C93 1.316 . S
N95 C94 1.375 . S
N96 C93 1.347 . S
N96 C97 1.373 . S
C97 C94 1.350 . S
C97 N96 1.373 . S
C97 H118 0.931 . S
H98 C93 0.931 . S
H99 C94 0.930 . S
C100 O107 1.259 . S
C100 O108 1.258 . S
N101 Co92 2.057 . S
N101 C102 1.316 . S
N101 C103 1.375 . S
C102 N101 1.316 . S
C102 N104 1.347 . S
C102 H113 0.931 . S
C103 N101 1.375 . S
C103 C105 1.350 . S
C103 H112 0.930 . S
N104 C102 1.347 . S
N104 C105 1.373 . S
C105 C103 1.350 . S
C105 N104 1.373 . S
C105 H119 0.931 . S
C106 O109 1.256 . S
C106 O110 1.255 . S
O107 Co90 2.021 . S
O107 C100 1.259 . S
O108 Co92 2.117 . S
O108 C100 1.258 . S
O109 Co92 2.020 . S
O109 C106 1.256 . S
O110 Co90 2.062 . S
O110 C106 1.255 . S
O111 C91 1.259 . S
O111 Co92 2.021 . S
H112 C103 0.930 . S
H113 C102 0.931 . S
O114 Co90 2.117 . S
O114 C91 1.258 . S
O115 Co90 2.020 . S
O115 C117 1.256 . S
O116 Co92 2.062 . S
O116 C117 1.255 . S
C117 O115 1.256 . S
C117 O116 1.255 . S
H118 C97 0.931 . S
H119 C105 0.931 . S
Co120 N125 2.057 1_655 S
Co120 O137 2.021 . S
Co120 O140 2.062 . S
Co120 O144 2.117 . S
Co120 O145 2.020 . S
C121 O141 1.259 . S
C121 O144 1.258 . S
Co122 N131 2.057 . S
Co122 O138 2.117 . S
Co122 O139 2.020 . S
Co122 O141 2.021 . S
Co122 O146 2.062 . S
C123 N125 1.316 . S
C123 N126 1.347 . S
C123 H128 0.931 . S
C124 N125 1.375 . S
C124 C127 1.350 . S
C124 H129 0.930 . S
N125 Co120 2.057 1_455 S
N125 C123 1.316 . S
N125 C124 1.375 . S
N126 C123 1.347 . S
N126 C127 1.373 . S
C127 C124 1.350 . S
C127 N126 1.373 . S
C127 H148 0.931 . S
H128 C123 0.931 . S
H129 C124 0.930 . S
C130 O137 1.259 . S
C130 O138 1.258 . S
N131 Co122 2.057 . S
N131 C132 1.316 . S
N131 C133 1.375 . S
C132 N131 1.316 . S
C132 N134 1.347 . S
C132 H143 0.931 . S
C133 N131 1.375 . S
C133 C135 1.350 . S
C133 H142 0.930 . S
N134 C132 1.347 . S
N134 C135 1.373 . S
C135 C133 1.350 . S
C135 N134 1.373 . S
C135 H149 0.931 . S
C136 O139 1.256 . S
C136 O140 1.255 . S
O137 Co120 2.021 . S
O137 C130 1.259 . S
O138 Co122 2.117 . S
O138 C130 1.258 . S
O139 Co122 2.020 . S
O139 C136 1.256 . S
O140 Co120 2.062 . S
O140 C136 1.255 . S
O141 C121 1.259 . S
O141 Co122 2.021 . S
H142 C133 0.930 . S
H143 C132 0.931 . S
O144 Co120 2.117 . S
O144 C121 1.258 . S
O145 Co120 2.020 . S
O145 C147 1.256 . S
O146 Co122 2.062 . S
O146 C147 1.255 . S
C147 O145 1.256 . S
C147 O146 1.255 . S
H148 C127 0.931 . S
H149 C135 0.931 . S
Co150 N155 2.057 1_655 S
Co150 O167 2.021 . S
Co150 O170 2.062 . S
Co150 O174 2.117 . S
Co150 O175 2.020 . S
C151 O171 1.259 . S
C151 O174 1.258 . S
Co152 N161 2.057 . S
Co152 O168 2.117 . S
Co152 O169 2.020 . S
Co152 O171 2.021 . S
Co152 O176 2.062 . S
C153 N155 1.316 . S
C153 N156 1.347 . S
C153 H158 0.931 . S
C154 N155 1.375 . S
C154 C157 1.350 . S
C154 H159 0.930 . S
N155 Co150 2.057 1_455 S
N155 C153 1.316 . S
N155 C154 1.375 . S
N156 C153 1.347 . S
N156 C157 1.373 . S
C157 C154 1.350 . S
C157 N156 1.373 . S
C157 H178 0.931 . S
H158 C153 0.931 . S
H159 C154 0.930 . S
C160 O167 1.259 . S
C160 O168 1.258 . S
N161 Co152 2.057 . S
N161 C162 1.316 . S
N161 C163 1.375 . S
C162 N161 1.316 . S
C162 N164 1.347 . S
C162 H173 0.931 . S
C163 N161 1.375 . S
C163 C165 1.350 . S
C163 H172 0.930 . S
N164 C162 1.347 . S
N164 C165 1.373 . S
C165 C163 1.350 . S
C165 N164 1.373 . S
C165 H179 0.931 . S
C166 O169 1.256 . S
C166 O170 1.255 . S
O167 Co150 2.021 . S
O167 C160 1.259 . S
O168 Co152 2.117 . S
O168 C160 1.258 . S
O169 Co152 2.020 . S
O169 C166 1.256 . S
O170 Co150 2.062 . S
O170 C166 1.255 . S
O171 C151 1.259 . S
O171 Co152 2.021 . S
H172 C163 0.930 . S
H173 C162 0.931 . S
O174 Co150 2.117 . S
O174 C151 1.258 . S
O175 Co150 2.020 . S
O175 C177 1.256 . S
O176 Co152 2.062 . S
O176 C177 1.255 . S
C177 O175 1.256 . S
C177 O176 1.255 . S
H178 C157 0.931 . S
H179 C165 0.931 . S
Co180 N185 2.057 . S
Co180 O197 2.021 . S
Co180 O200 2.062 . S
Co180 O204 2.117 . S
Co180 O205 2.020 1_455 S
C181 O201 1.259 . S
C181 O204 1.258 . S
Co182 N191 2.057 . S
Co182 O198 2.117 . S
Co182 O199 2.020 . S
Co182 O201 2.021 . S
Co182 O206 2.062 . S
C183 N185 1.316 . S
C183 N186 1.347 . S
C183 H188 0.931 . S
C184 N185 1.375 . S
C184 C187 1.350 . S
C184 H189 0.930 . S
N185 Co180 2.057 . S
N185 C183 1.316 . S
N185 C184 1.375 . S
N186 C183 1.347 . S
N186 C187 1.373 . S
C187 C184 1.350 . S
C187 N186 1.373 . S
C187 H208 0.931 . S
H188 C183 0.931 . S
H189 C184 0.930 . S
C190 O197 1.259 . S
C190 O198 1.258 . S
N191 Co182 2.057 . S
N191 C192 1.316 . S
N191 C193 1.375 . S
C192 N191 1.316 . S
C192 N194 1.347 . S
C192 H203 0.931 . S
C193 N191 1.375 . S
C193 C195 1.350 . S
C193 H202 0.930 . S
N194 C192 1.347 . S
N194 C195 1.373 . S
C195 C193 1.350 . S
C195 N194 1.373 . S
C195 H209 0.931 . S
C196 O199 1.256 . S
C196 O200 1.255 . S
O197 Co180 2.021 . S
O197 C190 1.259 . S
O198 Co182 2.117 . S
O198 C190 1.258 . S
O199 Co182 2.020 . S
O199 C196 1.256 . S
O200 Co180 2.062 . S
O200 C196 1.255 . S
O201 C181 1.259 . S
O201 Co182 2.021 . S
H202 C193 0.930 . S
H203 C192 0.931 . S
O204 Co180 2.117 . S
O204 C181 1.258 . S
O205 Co180 2.020 1_655 S
O205 C207 1.256 . S
O206 Co182 2.062 . S
O206 C207 1.255 1_455 S
C207 O205 1.256 . S
C207 O206 1.255 1_655 S
H208 C187 0.931 . S
H209 C195 0.931 . S
Co210 N215 2.057 1_455 S
Co210 O227 2.021 . S
Co210 O230 2.062 . S
Co210 O234 2.117 . S
Co210 O235 2.020 . S
C211 O231 1.259 . S
C211 O234 1.258 . S
Co212 N221 2.057 . S
Co212 O228 2.117 . S
Co212 O229 2.020 1_565 S
Co212 O231 2.021 . S
Co212 O236 2.062 . S
C213 N215 1.316 . S
C213 N216 1.347 . S
C213 H218 0.931 . S
C214 N215 1.375 . S
C214 C217 1.350 . S
C214 H219 0.930 . S
N215 Co210 2.057 1_655 S
N215 C213 1.316 . S
N215 C214 1.375 . S
N216 C213 1.347 . S
N216 C217 1.373 . S
C217 C214 1.350 . S
C217 N216 1.373 . S
C217 H238 0.931 . S
H218 C213 0.931 . S
H219 C214 0.930 . S
C220 O227 1.259 . S
C220 O228 1.258 . S
N221 Co212 2.057 . S
N221 C222 1.316 . S
N221 C223 1.375 . S
C222 N221 1.316 . S
C222 N224 1.347 . S
C222 H233 0.931 . S
C223 N221 1.375 . S
C223 C225 1.350 . S
C223 H232 0.930 . S
N224 C222 1.347 . S
N224 C225 1.373 . S
C225 C223 1.350 . S
C225 N224 1.373 . S
C225 H239 0.931 . S
C226 O229 1.256 . S
C226 O230 1.255 1_545 S
O227 Co210 2.021 . S
O227 C220 1.259 . S
O228 Co212 2.117 . S
O228 C220 1.258 . S
O229 Co212 2.020 1_545 S
O229 C226 1.256 . S
O230 Co210 2.062 . S
O230 C226 1.255 1_565 S
O231 C211 1.259 . S
O231 Co212 2.021 . S
H232 C223 0.930 . S
H233 C222 0.931 . S
O234 Co210 2.117 . S
O234 C211 1.258 . S
O235 Co210 2.020 . S
O235 C237 1.256 . S
O236 Co212 2.062 . S
O236 C237 1.255 . S
C237 O235 1.256 . S
C237 O236 1.255 . S
H238 C217 0.931 . S
H239 C225 0.931 . S
Co240 N245 2.057 . S
Co240 O257 2.021 . S
Co240 O260 2.062 . S
Co240 O264 2.117 . S
Co240 O265 2.020 . S
C241 O261 1.259 . S
C241 O264 1.258 . S
Co242 N251 2.057 1_565 S
Co242 O258 2.117 . S
Co242 O259 2.020 . S
Co242 O261 2.021 . S
Co242 O266 2.062 . S
C243 N245 1.316 . S
C243 N246 1.347 . S
C243 H248 0.931 . S
C244 N245 1.375 . S
C244 C247 1.350 . S
C244 H249 0.930 . S
N245 Co240 2.057 . S
N245 C243 1.316 . S
N245 C244 1.375 . S
N246 C243 1.347 . S
N246 C247 1.373 . S
C247 C244 1.350 . S
C247 N246 1.373 . S
C247 H268 0.931 . S
H248 C243 0.931 . S
H249 C244 0.930 . S
C250 O257 1.259 . S
C250 O258 1.258 . S
N251 Co242 2.057 1_545 S
N251 C252 1.316 . S
N251 C253 1.375 . S
C252 N251 1.316 . S
C252 N254 1.347 . S
C252 H263 0.931 . S
C253 N251 1.375 . S
C253 C255 1.350 . S
C253 H262 0.930 . S
N254 C252 1.347 . S
N254 C255 1.373 . S
C255 C253 1.350 . S
C255 N254 1.373 . S
C255 H269 0.931 . S
C256 O259 1.256 . S
C256 O260 1.255 . S
O257 Co240 2.021 . S
O257 C250 1.259 . S
O258 Co242 2.117 . S
O258 C250 1.258 . S
O259 Co242 2.020 . S
O259 C256 1.256 . S
O260 Co240 2.062 . S
O260 C256 1.255 . S
O261 C241 1.259 . S
O261 Co242 2.021 . S
H262 C253 0.930 . S
H263 C252 0.931 . S
O264 Co240 2.117 . S
O264 C241 1.258 . S
O265 Co240 2.020 . S
O265 C267 1.256 . S
O266 Co242 2.062 . S
O266 C267 1.255 . S
C267 O265 1.256 . S
C267 O266 1.255 . S
H268 C247 0.931 . S
H269 C255 0.931 . S
Co270 N275 2.057 . S
Co270 O287 2.021 . S
Co270 O290 2.062 . S
Co270 O294 2.117 . S
Co270 O295 2.020 . S
C271 O291 1.259 . S
C271 O294 1.258 . S
Co272 N281 2.057 . S
Co272 O288 2.117 . S
Co272 O289 2.020 1_455 S
Co272 O291 2.021 . S
Co272 O296 2.062 . S
C273 N275 1.316 . S
C273 N276 1.347 . S
C273 H278 0.931 . S
C274 N275 1.375 . S
C274 C277 1.350 . S
C274 H279 0.930 . S
N275 Co270 2.057 . S
N275 C273 1.316 . S
N275 C274 1.375 . S
N276 C273 1.347 . S
N276 C277 1.373 . S
C277 C274 1.350 . S
C277 N276 1.373 . S
C277 H298 0.931 . S
H278 C273 0.931 . S
H279 C274 0.930 . S
C280 O287 1.259 . S
C280 O288 1.258 . S
N281 Co272 2.057 . S
N281 C282 1.316 . S
N281 C283 1.375 . S
C282 N281 1.316 . S
C282 N284 1.347 . S
C282 H293 0.931 . S
C283 N281 1.375 . S
C283 C285 1.350 . S
C283 H292 0.930 . S
N284 C282 1.347 . S
N284 C285 1.373 . S
C285 C283 1.350 . S
C285 N284 1.373 . S
C285 H299 0.931 . S
C286 O289 1.256 . S
C286 O290 1.255 1_655 S
O287 Co270 2.021 . S
O287 C280 1.259 . S
O288 Co272 2.117 . S
O288 C280 1.258 . S
O289 Co272 2.020 1_655 S
O289 C286 1.256 . S
O290 Co270 2.062 . S
O290 C286 1.255 1_455 S
O291 C271 1.259 . S
O291 Co272 2.021 . S
H292 C283 0.930 . S
H293 C282 0.931 . S
O294 Co270 2.117 . S
O294 C271 1.258 . S
O295 Co270 2.020 . S
O295 C297 1.256 . S
O296 Co272 2.062 . S
O296 C297 1.255 . S
C297 O295 1.256 . S
C297 O296 1.255 . S
H298 C277 0.931 . S
H299 C285 0.931 . S
Co300 N305 2.057 . S
Co300 O317 2.021 . S
Co300 O320 2.062 . S
Co300 O324 2.117 . S
Co300 O325 2.020 1_565 S
C301 O321 1.259 . S
C301 O324 1.258 . S
Co302 N311 2.057 1_455 S
Co302 O318 2.117 . S
Co302 O319 2.020 . S
Co302 O321 2.021 . S
Co302 O326 2.062 . S
C303 N305 1.316 . S
C303 N306 1.347 . S
C303 H308 0.931 . S
C304 N305 1.375 . S
C304 C307 1.350 . S
C304 H309 0.930 . S
N305 Co300 2.057 . S
N305 C303 1.316 . S
N305 C304 1.375 . S
N306 C303 1.347 . S
N306 C307 1.373 . S
C307 C304 1.350 . S
C307 N306 1.373 . S
C307 H328 0.931 . S
H308 C303 0.931 . S
H309 C304 0.930 . S
C310 O317 1.259 . S
C310 O318 1.258 . S
N311 Co302 2.057 1_655 S
N311 C312 1.316 . S
N311 C313 1.375 . S
C312 N311 1.316 . S
C312 N314 1.347 . S
C312 H323 0.931 . S
C313 N311 1.375 . S
C313 C315 1.350 . S
C313 H322 0.930 . S
N314 C312 1.347 . S
N314 C315 1.373 . S
C315 C313 1.350 . S
C315 N314 1.373 . S
C315 H329 0.931 . S
C316 O319 1.256 . S
C316 O320 1.255 . S
O317 Co300 2.021 . S
O317 C310 1.259 . S
O318 Co302 2.117 . S
O318 C310 1.258 . S
O319 Co302 2.020 . S
O319 C316 1.256 . S
O320 Co300 2.062 . S
O320 C316 1.255 . S
O321 C301 1.259 . S
O321 Co302 2.021 . S
H322 C313 0.930 . S
H323 C312 0.931 . S
O324 Co300 2.117 . S
O324 C301 1.258 . S
O325 Co300 2.020 1_545 S
O325 C327 1.256 . S
O326 Co302 2.062 . S
O326 C327 1.255 1_565 S
C327 O325 1.256 . S
C327 O326 1.255 1_545 S
H328 C307 0.931 . S
H329 C315 0.931 . S
Co330 N335 2.057 1_565 S
Co330 O347 2.021 . S
Co330 O350 2.062 . S
Co330 O354 2.117 . S
Co330 O355 2.020 . S
C331 O351 1.259 . S
C331 O354 1.258 . S
Co332 N341 2.057 . S
Co332 O348 2.117 . S
Co332 O349 2.020 . S
Co332 O351 2.021 . S
Co332 O356 2.062 . S
C333 N335 1.316 . S
C333 N336 1.347 . S
C333 H338 0.931 . S
C334 N335 1.375 . S
C334 C337 1.350 . S
C334 H339 0.930 . S
N335 Co330 2.057 1_545 S
N335 C333 1.316 . S
N335 C334 1.375 . S
N336 C333 1.347 . S
N336 C337 1.373 . S
C337 C334 1.350 . S
C337 N336 1.373 . S
C337 H358 0.931 . S
H338 C333 0.931 . S
H339 C334 0.930 . S
C340 O347 1.259 . S
C340 O348 1.258 . S
N341 Co332 2.057 . S
N341 C342 1.316 . S
N341 C343 1.375 . S
C342 N341 1.316 . S
C342 N344 1.347 . S
C342 H353 0.931 . S
C343 N341 1.375 . S
C343 C345 1.350 . S
C343 H352 0.930 . S
N344 C342 1.347 . S
N344 C345 1.373 . S
C345 C343 1.350 . S
C345 N344 1.373 . S
C345 H359 0.931 . S
C346 O349 1.256 . S
C346 O350 1.255 . S
O347 Co330 2.021 . S
O347 C340 1.259 . S
O348 Co332 2.117 . S
O348 C340 1.258 . S
O349 Co332 2.020 . S
O349 C346 1.256 . S
O350 Co330 2.062 . S
O350 C346 1.255 . S
O351 C331 1.259 . S
O351 Co332 2.021 . S
H352 C343 0.930 . S
H353 C342 0.931 . S
O354 Co330 2.117 . S
O354 C331 1.258 . S
O355 Co330 2.020 . S
O355 C357 1.256 . S
O356 Co332 2.062 . S
O356 C357 1.255 . S
C357 O355 1.256 . S
C357 O356 1.255 . S
H358 C337 0.931 . S
H359 C345 0.931 . S
C76 N6 0.881 . S
N96 C46 2.163 1_455 S
N66 C136 0.881 . S
C106 N156 2.163 . S
C16 N126 0.881 . S
N36 C166 2.163 1_565 S
C327 N194 0.881 . S
N216 C346 0.881 . S
N254 C207 0.880 . S
N276 C226 0.881 . S
N314 C267 0.881 . S
C286 N336 0.881 . S
C91 C1 1.772 . S
C31 C121 1.772 . S
C61 C151 1.772 . S
C190 C271 1.728 . S
C211 C310 1.728 . S
C250 C331 1.728 . S
C220 C10 3.250 1_566 S
C40 C241 3.084 . S
C280 C70 3.250 1_456 S
C100 C301 3.084 1_545 S
C130 C340 3.250 1_554 S
C181 C160 3.084 1_455 S
C87 N14 2.101 . S
C57 N104 1.692 . S
N74 C147 2.101 . S
C117 N164 1.692 . S
C27 N134 2.101 . S
N44 C177 1.692 . S
C316 N186 2.100 . S
N224 C357 2.099 . S
N246 C196 2.100 . S
C237 N284 2.099 . S
N306 C256 2.100 . S
N344 C297 2.099 . S
