# Generated by pormake.
# Topology sra, (4)-cn, num edge types: 1
# Building blocks:
#     Node 0, Type 0, BuildingBlock: NAHDIM_clean_sbu_0, # of connection points: 4
#     Node 1, Type 0, BuildingBlock: NAHDIM_clean_sbu_0, # of connection points: 4
#     Node 2, Type 0, BuildingBlock: NAHDIM_clean_sbu_0, # of connection points: 4
#     Node 3, Type 0, BuildingBlock: NAHDIM_clean_sbu_0, # of connection points: 4
#     Node 4, Type 0, BuildingBlock: NAHDIM_clean_sbu_0, # of connection points: 4
#     Node 5, Type 0, BuildingBlock: NAHDIM_clean_sbu_0, # of connection points: 4
#     Node 6, Type 0, BuildingBlock: NAHDIM_clean_sbu_0, # of connection points: 4
#     Node 7, Type 0, BuildingBlock: NAHDIM_clean_sbu_0, # of connection points: 4
#     Edge 8, Type (0, 0), BuildingBlock: XIVTED_clean_linker_0, # of connection points: 2
#     Edge 9, Type (0, 0), BuildingBlock: XIVTED_clean_linker_0, # of connection points: 2
#     Edge 10, Type (0, 0), BuildingBlock: XIVTED_clean_linker_0, # of connection points: 2
#     Edge 11, Type (0, 0), BuildingBlock: XIVTED_clean_linker_0, # of connection points: 2
#     Edge 12, Type (0, 0), BuildingBlock: XIVTED_clean_linker_0, # of connection points: 2
#     Edge 13, Type (0, 0), BuildingBlock: XIVTED_clean_linker_0, # of connection points: 2
#     Edge 14, Type (0, 0), BuildingBlock: XIVTED_clean_linker_0, # of connection points: 2
#     Edge 15, Type (0, 0), BuildingBlock: XIVTED_clean_linker_0, # of connection points: 2
#     Edge 16, Type (0, 0), BuildingBlock: XIVTED_clean_linker_0, # of connection points: 2
#     Edge 17, Type (0, 0), BuildingBlock: XIVTED_clean_linker_0, # of connection points: 2
#     Edge 18, Type (0, 0), BuildingBlock: XIVTED_clean_linker_0, # of connection points: 2
#     Edge 19, Type (0, 0), BuildingBlock: XIVTED_clean_linker_0, # of connection points: 2
#     Edge 20, Type (0, 0), BuildingBlock: XIVTED_clean_linker_0, # of connection points: 2
#     Edge 21, Type (0, 0), BuildingBlock: XIVTED_clean_linker_0, # of connection points: 2
#     Edge 22, Type (0, 0), BuildingBlock: XIVTED_clean_linker_0, # of connection points: 2
#     Edge 23, Type (0, 0), BuildingBlock: XIVTED_clean_linker_0, # of connection points: 2
# Relax obj value: 0.091
# Max RMSD: 0.091
# Mean RMSD: 0.091
data_MOF--net-sra--node1-NAHDIM_clean_sbu_0--edge1-XIVTED_clean_linker_0
_symmetry_space_group_name_H-M    P1
_symmetry_Int_Tables_number       1
_symmetry_cell_setting            triclinic
loop_
_symmetry_equiv_pos_as_xyz
'x, y, z'
_cell_length_a     25.314074
_cell_length_b     48.398617
_cell_length_c     41.683169
_cell_angle_alpha  89.852907
_cell_angle_beta   90.203558
_cell_angle_gamma 90.223196
loop_
_atom_site_label
_atom_site_type_symbol
_atom_site_fract_x
_atom_site_fract_y
_atom_site_fract_z
_atom_type_partial_charge
C0 C 0.01983 0.04212 0.09307 0.0
O1 O 0.01803 0.02826 0.12019 0.0
O2 O 0.95923 0.07502 0.1613 0.0
Zn3 Zn 0.02239 0.08754 0.13617 0.0
O4 O 0.08958 0.07905 0.15975 0.0
C5 C 0.97727 0.14245 0.12905 0.0
O6 O 0.93202 0.12967 0.13363 0.0
O7 O 0.02223 0.06832 0.09384 0.0
C8 C 0.1324 0.0871 0.14688 0.0
O9 O 0.13044 0.09954 0.11885 0.0
C10 C 0.95439 0.08066 0.19086 0.0
O11 O 0.99212 0.09457 0.20544 0.0
O12 O 0.01978 0.12858 0.12899 0.0
C13 C 0.97433 0.4486 0.09752 0.0
O14 O 0.95673 0.46184 0.12276 0.0
O15 O 0.04527 0.40861 0.16828 0.0
Zn16 Zn 0.97896 0.4037 0.14225 0.0
O17 O 0.91528 0.41793 0.16539 0.0
C18 C 0.00668 0.34876 0.12415 0.0
O19 O 0.05182 0.361 0.11762 0.0
O20 O 0.98646 0.42325 0.10011 0.0
C21 C 0.91168 0.41726 0.19576 0.0
O22 O 0.95136 0.40763 0.21278 0.0
C23 C 0.06047 0.43128 0.18059 0.0
O24 O 0.03145 0.4535 0.17685 0.0
O25 O 0.96863 0.36313 0.13466 0.0
C26 C 0.00408 0.9466 0.8802 0.0
O27 O 0.00742 0.96073 0.85332 0.0
O28 O 0.93587 0.91568 0.81117 0.0
Zn29 Zn 0.00025 0.90327 0.83538 0.0
O30 O 0.06609 0.91542 0.81258 0.0
C31 C 0.02108 0.84771 0.81672 0.0
O32 O 0.04074 0.86065 0.7917 0.0
O33 O -1e-05 0.92047 0.87892 0.0
C34 C 0.11017 0.91187 0.82661 0.0
O35 O 0.11078 0.90122 0.85564 0.0
C36 C 0.93468 0.91577 0.78071 0.0
O37 O 0.97652 0.9077 0.76477 0.0
O38 O 0.00052 0.86175 0.83914 0.0
C39 C 0.00386 0.54249 0.88375 0.0
O40 O 0.01113 0.52811 0.85745 0.0
O41 O 0.06641 0.57087 0.8153 0.0
Zn42 Zn 0.00226 0.58565 0.83803 0.0
O43 O 0.93453 0.57692 0.81474 0.0
C44 C 0.03564 0.64069 0.82158 0.0
O45 O 0.0611 0.62733 0.79906 0.0
O46 O -0.00112 0.56854 0.88168 0.0
C47 C 0.92409 0.58767 0.78762 0.0
O48 O 0.95919 0.60386 0.77393 0.0
C49 C 0.06595 0.55747 0.78912 0.0
O50 O 0.02075 0.55156 0.77516 0.0
O51 O 0.0083 0.62709 0.84175 0.0
C52 C 0.4874 0.5476 0.59647 0.0
O53 O 0.48748 0.53366 0.62354 0.0
O54 O 0.42079 0.58003 0.66353 0.0
Zn55 Zn 0.48675 0.59209 0.64038 0.0
O56 O 0.5542 0.58249 0.66371 0.0
C57 C 0.47888 0.64791 0.65985 0.0
O58 O 0.47158 0.63537 0.68746 0.0
O59 O 0.48749 0.57383 0.59734 0.0
C60 C 0.56087 0.58242 0.69395 0.0
O61 O 0.52085 0.58781 0.71285 0.0
C62 C 0.41579 0.55976 0.68275 0.0
O63 O 0.45679 0.54433 0.68981 0.0
O64 O 0.48528 0.63342 0.6348 0.0
C65 C 0.49786 0.91959 0.57157 0.0
O66 O 0.51278 0.89365 0.57047 0.0
O67 O 0.57122 0.91957 0.65743 0.0
Zn68 Zn 0.499 0.91049 0.64017 0.0
O69 O 0.44131 0.92135 0.67074 0.0
C70 C 0.5181 0.85392 0.65426 0.0
O71 O 0.54572 0.86558 0.6773 0.0
O72 O 0.48911 0.93071 0.59859 0.0
C73 C 0.44381 0.9162 0.70062 0.0
O74 O 0.48654 0.90469 0.71247 0.0
C75 C 0.58258 0.9387 0.67711 0.0
O76 O 0.54519 0.95514 0.68747 0.0
O77 O 0.49434 0.86917 0.634 0.0
C78 C 0.4907 0.44891 0.38562 0.0
O79 O 0.51047 0.46094 0.36003 0.0
O80 O 0.42074 0.40874 0.31357 0.0
Zn81 Zn 0.48397 0.40361 0.34233 0.0
O82 O 0.55108 0.4167 0.32145 0.0
C83 C 0.51285 0.34886 0.3283 0.0
O84 O 0.52707 0.36156 0.30179 0.0
O85 O 0.47537 0.42392 0.38387 0.0
C86 C 0.55495 0.42675 0.29338 0.0
O87 O 0.51222 0.42993 0.27581 0.0
C88 C 0.39397 0.43081 0.31117 0.0
O89 O 0.40791 0.4526 0.32792 0.0
O90 O 0.49193 0.36283 0.35066 0.0
C91 C 0.50909 0.03907 0.37536 0.0
O92 O 0.51534 0.02784 0.34697 0.0
O93 O 0.59412 0.07657 0.32008 0.0
Zn94 Zn 0.52294 0.08695 0.33765 0.0
O95 O 0.46439 0.07869 0.30636 0.0
C96 C 0.55474 0.1434 0.33116 0.0
O97 O 0.58778 0.13203 0.31092 0.0
O98 O 0.51042 0.06522 0.37785 0.0
C99 C 0.46246 0.09045 0.2791 0.0
O100 O 0.50059 0.10748 0.27079 0.0
C101 C 0.60267 0.06166 0.29563 0.0
O102 O 0.56264 0.05047 0.28022 0.0
O103 O 0.52272 0.12802 0.34653 0.0
H104 H 0.08201 0.3115 0.10621 0.0
H105 H 0.89591 0.17943 0.13402 0.0
H106 H 0.91894 0.3169 0.13551 0.0
H107 H 0.06332 0.17467 0.11539 0.0
H108 H 0.90143 0.22978 0.12988 0.0
H109 H 0.07358 0.26126 0.10452 0.0
C110 C 0.04433 0.30215 0.11213 0.0
C111 C 0.00121 0.31844 0.12121 0.0
C112 C 0.93689 0.21769 0.12659 0.0
C113 C 0.99132 0.26089 0.11939 0.0
C114 C 0.93377 0.18894 0.1289 0.0
C115 C 0.97927 0.17281 0.12522 0.0
C116 C 0.98584 0.23039 0.12044 0.0
C117 C 0.02725 0.18627 0.11858 0.0
C118 C 0.03957 0.27344 0.11121 0.0
C119 C 0.95331 0.30515 0.12853 0.0
N120 N 0.02928 0.21426 0.11648 0.0
N121 N 0.94971 0.27715 0.12757 0.0
H122 H 0.98079 0.8137 0.86354 0.0
H123 H 0.08585 0.67567 0.78005 0.0
H124 H 0.06744 0.81228 0.77452 0.0
H125 H 0.98673 0.67533 0.86415 0.0
H126 H 0.0835 0.726 0.77967 0.0
H127 H 0.98598 0.76324 0.86598 0.0
C128 C 0.00091 0.8028 0.84452 0.0
C129 C 0.02363 0.81724 0.81875 0.0
C130 C 0.06232 0.71496 0.79827 0.0
C131 C 0.02984 0.75958 0.82145 0.0
C132 C 0.06374 0.68617 0.79854 0.0
C133 C 0.03632 0.67123 0.82212 0.0
C134 C 0.03333 0.729 0.82177 0.0
C135 C 0.00837 0.68601 0.84548 0.0
C136 C 0.00384 0.774 0.84593 0.0
C137 C 0.04924 0.80204 0.79481 0.0
N138 N 0.00751 0.7141 0.84468 0.0
N139 N 0.05165 0.77408 0.79676 0.0
H140 H 0.48984 0.6834 0.71006 0.0
H141 H 0.47739 0.82158 0.60589 0.0
H142 H 0.47699 0.6817 0.60676 0.0
H143 H 0.54595 0.81709 0.70074 0.0
H144 H 0.46684 0.77111 0.60636 0.0
H145 H 0.49922 0.7335 0.70787 0.0
C146 C 0.48871 0.69358 0.68689 0.0
C147 C 0.48271 0.67835 0.65853 0.0
C148 C 0.48434 0.78127 0.62696 0.0
C149 C 0.49337 0.73579 0.65589 0.0
C150 C 0.49026 0.81001 0.62675 0.0
C151 C 0.51257 0.82354 0.65332 0.0
C152 C 0.50011 0.76613 0.65412 0.0
C153 C 0.52868 0.80755 0.6797 0.0
C154 C 0.49435 0.72219 0.68566 0.0
C155 C 0.48174 0.69268 0.62919 0.0
N156 N 0.52182 0.77975 0.67949 0.0
N157 N 0.48685 0.72068 0.62861 0.0
H158 H 0.47374 0.31372 0.3745 0.0
H159 H 0.61465 0.18132 0.29915 0.0
H160 H 0.57117 0.31556 0.28971 0.0
H161 H 0.49009 0.17487 0.36933 0.0
H162 H 0.6073 0.23139 0.30088 0.0
H163 H 0.48678 0.26357 0.37797 0.0
C164 C 0.49801 0.30362 0.35672 0.0
C165 C 0.52117 0.3188 0.33167 0.0
C166 C 0.58162 0.21907 0.31598 0.0
C167 C 0.53642 0.2617 0.33562 0.0
C168 C 0.58587 0.19042 0.31508 0.0
C169 C 0.55263 0.17382 0.33395 0.0
C170 C 0.54392 0.23136 0.33595 0.0
C171 C 0.51631 0.18688 0.35425 0.0
C172 C 0.50532 0.27504 0.35869 0.0
C173 C 0.55223 0.30469 0.3093 0.0
N174 N 0.51277 0.21493 0.35464 0.0
N175 N 0.55894 0.27698 0.31182 0.0
H176 H 0.37341 0.05979 0.29088 0.0
H177 H 0.22962 0.10578 0.12811 0.0
H178 H 0.44577 0.11199 0.21913 0.0
H179 H 0.15102 0.06226 0.205 0.0
H180 H 0.31209 0.1038 0.15853 0.0
H181 H 0.29471 0.05606 0.25708 0.0
C182 C 0.37292 0.07033 0.26792 0.0
C183 C 0.41613 0.0864 0.25792 0.0
C184 C 0.27687 0.09457 0.16868 0.0
C185 C 0.32608 0.08224 0.21915 0.0
C186 C 0.22974 0.09564 0.1513 0.0
C187 C 0.18323 0.08433 0.16412 0.0
C188 C 0.27759 0.08205 0.19911 0.0
C189 C 0.18585 0.07139 0.19426 0.0
C190 C 0.3279 0.06822 0.24866 0.0
C191 C 0.41329 0.09951 0.22789 0.0
N192 N 0.2322 0.0707 0.21079 0.0
N193 N 0.36893 0.09723 0.20964 0.0
H194 H 0.58029 0.44166 0.23172 0.0
H195 H 0.88901 0.41714 0.25994 0.0
H196 H 0.65037 0.42324 0.32389 0.0
H197 H 0.81978 0.43431 0.16721 0.0
H198 H 0.80316 0.42499 0.28472 0.0
H199 H 0.66881 0.44476 0.20862 0.0
C200 C 0.61425 0.43857 0.24718 0.0
C201 C 0.60788 0.43183 0.27969 0.0
C202 C 0.80682 0.42726 0.25897 0.0
C203 C 0.70918 0.43521 0.25342 0.0
C204 C 0.85587 0.42279 0.2448 0.0
C205 C 0.86145 0.42472 0.21141 0.0
C206 C 0.76294 0.43359 0.2396 0.0
C207 C 0.8172 0.43233 0.19303 0.0
C208 C 0.66479 0.4403 0.23397 0.0
C209 C 0.65334 0.42817 0.29861 0.0
N210 N 0.76969 0.43623 0.20734 0.0
N211 N 0.70199 0.42967 0.28514 0.0
H212 H 0.1231 0.93273 0.766 0.0
H213 H 0.4344 0.906 0.76497 0.0
H214 H 0.21106 0.90353 0.84821 0.0
H215 H 0.3468 0.93622 0.68311 0.0
H216 H 0.35442 0.90907 0.7973 0.0
H217 H 0.20588 0.93815 0.73671 0.0
C218 C 0.15985 0.92765 0.77799 0.0
C219 C 0.16012 0.91743 0.80952 0.0
C220 C 0.35278 0.91524 0.77233 0.0
C221 C 0.25502 0.92348 0.77607 0.0
C222 C 0.39847 0.91352 0.75385 0.0
C223 C 0.39719 0.92061 0.72119 0.0
C224 C 0.30537 0.92402 0.75804 0.0
C225 C 0.34956 0.93035 0.70813 0.0
C226 C 0.20712 0.93075 0.76124 0.0
C227 C 0.20894 0.91132 0.82388 0.0
N228 N 0.30546 0.93155 0.72653 0.0
N229 N 0.25438 0.91424 0.80696 0.0
H230 H 0.5887 0.57427 0.75681 0.0
H231 H 0.89456 0.59963 0.72602 0.0
H232 H 0.65497 0.58251 0.66195 0.0
H233 H 0.83506 0.56555 0.81469 0.0
H234 H 0.80653 0.59478 0.70239 0.0
H235 H 0.67819 0.5721 0.77903 0.0
C236 C 0.62204 0.57544 0.74064 0.0
C237 C 0.61438 0.57875 0.70751 0.0
C238 C 0.81285 0.58814 0.72693 0.0
C239 C 0.71669 0.57655 0.73276 0.0
C240 C 0.86303 0.591 0.74046 0.0
C241 C 0.87204 0.58312 0.77241 0.0
C242 C 0.77122 0.57772 0.74563 0.0
C243 C 0.82982 0.57191 0.78997 0.0
C244 C 0.67308 0.57413 0.75332 0.0
C245 C 0.65902 0.58001 0.68765 0.0
N246 N 0.78106 0.56981 0.77644 0.0
N247 N 0.70826 0.5792 0.70062 0.0
H248 H 0.61629 0.96564 0.7313 0.0
H249 H 0.91268 0.91014 0.71675 0.0
H250 H 0.67195 0.91551 0.65296 0.0
H251 H 0.84517 0.93891 0.80553 0.0
H252 H 0.82915 0.91999 0.68955 0.0
H253 H 0.70482 0.964 0.75523 0.0
C254 C 0.64725 0.9546 0.71894 0.0
C255 C 0.63669 0.94048 0.69027 0.0
C256 C 0.83276 0.92428 0.71495 0.0
C257 C 0.73769 0.93856 0.7174 0.0
C258 C 0.88045 0.91872 0.73048 0.0
C259 C 0.88572 0.92343 0.76353 0.0
C260 C 0.79016 0.93482 0.73253 0.0
C261 C 0.84266 0.93469 0.78008 0.0
C262 C 0.69763 0.95356 0.73267 0.0
C263 C 0.67824 0.92645 0.67528 0.0
N264 N 0.79659 0.93991 0.76442 0.0
N265 N 0.72685 0.92577 0.68908 0.0
H266 H 0.39545 0.53416 0.74004 0.0
H267 H 0.08243 0.54912 0.72515 0.0
H268 H 0.31868 0.57294 0.65913 0.0
H269 H 0.16389 0.55274 0.8162 0.0
H270 H 0.16787 0.54504 0.69811 0.0
H271 H 0.30886 0.52851 0.76576 0.0
C272 C 0.36034 0.54117 0.72756 0.0
C273 C 0.36407 0.55427 0.6976 0.0
C274 C 0.16681 0.54641 0.72403 0.0
C275 C 0.26561 0.5475 0.72648 0.0
C276 C 0.11821 0.54859 0.73947 0.0
C277 C 0.11627 0.55153 0.7729 0.0
C278 C 0.21354 0.54668 0.74224 0.0
C279 C 0.1638 0.55081 0.79032 0.0
C280 C 0.31117 0.53802 0.74225 0.0
C281 C 0.31748 0.56302 0.68243 0.0
N282 N 0.21064 0.54849 0.77477 0.0
N283 N 0.2701 0.55945 0.69702 0.0
H284 H 0.6941 0.08029 0.32326 0.0
H285 H 0.86864 0.05237 0.16756 0.0
H286 H 0.63494 0.03865 0.2389 0.0
H287 H 0.92772 0.09245 0.25296 0.0
H288 H 0.78505 0.0436 0.19486 0.0
H289 H 0.78199 0.08115 0.29962 0.0
C290 C 0.69965 0.0711 0.29985 0.0
C291 C 0.65693 0.0596 0.2829 0.0
C292 C 0.81642 0.05414 0.20771 0.0
C293 C 0.75764 0.06071 0.25556 0.0
C294 C 0.86419 0.05918 0.19213 0.0
C295 C 0.90513 0.0734 0.20791 0.0
C296 C 0.80939 0.06346 0.23927 0.0
C297 C 0.89717 0.08157 0.23979 0.0
C298 C 0.74993 0.07162 0.28635 0.0
C299 C 0.66665 0.04785 0.25276 0.0
N300 N 0.8501 0.07666 0.25433 0.0
N301 N 0.71592 0.04893 0.23992 0.0
H302 H 0.10452 0.4756 0.21202 0.0
H303 H 0.35354 0.38899 0.27453 0.0
H304 H 0.13019 0.38931 0.19133 0.0
H305 H 0.32597 0.47399 0.30067 0.0
H306 H 0.27351 0.38969 0.24197 0.0
H307 H 0.18703 0.47631 0.24285 0.0
C308 C 0.12747 0.45682 0.21392 0.0
C309 C 0.11034 0.43234 0.19913 0.0
C310 C 0.28492 0.40823 0.25476 0.0
C311 C 0.20469 0.43303 0.23428 0.0
C312 C 0.33074 0.40786 0.27336 0.0
C313 C 0.34644 0.43145 0.29047 0.0
C314 C 0.25442 0.43237 0.25316 0.0
C315 C 0.31528 0.4553 0.28795 0.0
C316 C 0.17455 0.45725 0.23153 0.0
C317 C 0.14173 0.40865 0.20237 0.0
N318 N 0.27066 0.45514 0.26969 0.0
N319 N 0.18728 0.4096 0.21959 0.0
H320 H 0.01255 0.9864 0.08249 0.0
H321 H 0.01265 0.00209 0.89124 0.0
H322 H 0.02308 0.06467 0.03288 0.0
H323 H 0.00019 0.92364 0.9403 0.0
H324 H 0.01686 0.0253 0.94307 0.0
H325 H 0.0086 0.96291 0.03071 0.0
C326 C 0.0141 -0.00135 0.06072 0.0
C327 C 0.01812 0.02754 0.06201 0.0
C328 C 0.01318 0.00301 0.94252 0.0
C329 C 0.01355 0.00081 0.00272 0.0
C330 C 0.01074 0.98973 0.91292 0.0
C331 C 0.00604 0.96088 0.91144 0.0
C332 C 0.01094 0.98733 0.97089 0.0
C333 C 0.00378 0.94594 0.94031 0.0
C334 C 0.0118 0.98522 0.03117 0.0
C335 C 0.01996 0.04236 0.03304 0.0
N336 N 0.00628 0.95935 0.96887 0.0
N337 N 0.01764 0.02882 0.0046 0.0
H338 H 0.01781 0.48761 0.89688 0.0
H339 H 0.95591 0.50311 0.08406 0.0
H340 H 0.98307 0.56552 0.94228 0.0
H341 H 0.00464 0.42672 0.04001 0.0
H342 H 0.96407 0.52623 0.03216 0.0
H343 H 0.01161 0.46479 0.94902 0.0
C344 C 0.00891 0.49994 0.91782 0.0
C345 C 0.00088 0.52852 0.91522 0.0
C346 C 0.97306 0.50442 0.03386 0.0
C347 C 0.99365 0.50251 0.97498 0.0
C348 C 0.96835 0.49119 0.06349 0.0
C349 C 0.97955 0.46293 0.06637 0.0
C350 C 0.98891 0.48925 0.0069 0.0
C351 C -0.00441 0.44854 0.0389 0.0
C352 C 0.00543 0.48689 0.9476 0.0
C353 C 0.98956 0.54344 0.94317 0.0
N354 N -0.00032 0.46186 0.01031 0.0
N355 N 0.98616 0.53024 0.97189 0.0
H356 H 0.51109 0.50364 0.39622 0.0
H357 H 0.47744 0.49207 0.58626 0.0
H358 H 0.46423 0.42858 0.4448 0.0
H359 H 0.49579 0.56969 0.53613 0.0
H360 H 0.47642 0.46812 0.5348 0.0
H361 H 0.50916 0.52795 0.44746 0.0
C362 C 0.50028 0.49228 0.41765 0.0
C363 C 0.48789 0.46403 0.41626 0.0
C364 C 0.48054 0.49039 0.53506 0.0
C365 C 0.48585 0.4917 0.47496 0.0
C366 C 0.48128 0.50408 0.56443 0.0
C367 C 0.48675 0.53292 0.56548 0.0
C368 C 0.48565 0.50563 0.50652 0.0
C369 C 0.49145 0.54743 0.53643 0.0
C370 C 0.49911 0.50619 0.44688 0.0
C371 C 0.47403 0.45038 0.44477 0.0
N372 N 0.49095 0.5336 0.50812 0.0
N373 N 0.47362 0.46432 0.47299 0.0
H374 H 0.51234 0.90265 0.50954 0.0
H375 H 0.49068 0.05539 0.43716 0.0
H376 H 0.47539 0.97463 0.56608 0.0
H377 H 0.51263 0.98266 0.379 0.0
H378 H 0.48339 0.02593 0.48457 0.0
H379 H 0.51085 0.93138 0.46123 0.0
C380 C 0.50367 0.92446 0.51179 0.0
C381 C 0.49425 0.93628 0.54192 0.0
C382 C 0.48957 0.01639 0.46142 0.0
C383 C 0.4927 0.96928 0.48678 0.0
C384 C 0.49381 0.03322 0.43433 0.0
C385 C 0.50253 0.02148 0.40409 0.0
C386 C 0.49436 0.98762 0.45828 0.0
C387 C 0.50605 0.99261 0.40186 0.0
C388 C 0.5028 0.94085 0.48419 0.0
C389 C 0.48306 0.96464 0.54338 0.0
N390 N 0.50222 0.97667 0.42862 0.0
N391 N 0.48288 0.98018 0.51622 0.0
loop_
_geom_bond_atom_site_label_1
_geom_bond_atom_site_label_2
_geom_bond_distance
_geom_bond_site_symmetry_2
_ccdc_geom_bond_type
C0 O1 1.160 1_455 S
C0 O7 1.185 . S
O1 C0 1.160 1_655 S
O2 Zn3 1.899 1_655 S
O2 C10 1.284 . S
Zn3 O2 1.899 1_455 S
Zn3 O4 2.032 . S
Zn3 O7 2.086 . S
Zn3 O12 1.977 . S
O4 Zn3 2.032 . S
O4 C8 1.278 . S
C5 O6 1.203 1_455 S
C5 O12 1.267 . S
O6 C5 1.203 1_655 S
O7 C0 1.185 . S
O7 Zn3 2.086 . S
C8 O4 1.278 . S
C8 O9 1.211 . S
O9 C8 1.211 . S
C10 O2 1.284 . S
C10 O11 1.273 . S
O11 C10 1.273 . S
O12 Zn3 1.977 . S
O12 C5 1.267 . S
C13 O14 1.160 . S
C13 O20 1.185 . S
O14 C13 1.160 . S
O15 Zn16 1.899 . S
O15 C23 1.284 . S
Zn16 O15 1.899 . S
Zn16 O17 2.032 1_455 S
Zn16 O20 2.086 . S
Zn16 O25 1.977 . S
O17 Zn16 2.032 1_655 S
O17 C21 1.278 . S
C18 O19 1.203 . S
C18 O25 1.267 . S
O19 C18 1.203 . S
O20 C13 1.185 . S
O20 Zn16 2.086 . S
C21 O17 1.278 . S
C21 O22 1.211 . S
O22 C21 1.211 . S
C23 O15 1.284 . S
C23 O24 1.273 . S
O24 C23 1.273 . S
O25 Zn16 1.977 . S
O25 C18 1.267 . S
C26 O27 1.160 1_455 S
C26 O33 1.185 . S
O27 C26 1.160 1_655 S
O28 Zn29 1.899 1_655 S
O28 C36 1.284 . S
Zn29 O28 1.899 1_455 S
Zn29 O30 2.032 . S
Zn29 O33 2.086 . S
Zn29 O38 1.977 . S
O30 Zn29 2.032 . S
O30 C34 1.278 . S
C31 O32 1.203 1_455 S
C31 O38 1.267 . S
O32 C31 1.203 1_655 S
O33 C26 1.185 . S
O33 Zn29 2.086 . S
C34 O30 1.278 . S
C34 O35 1.211 . S
O35 C34 1.211 . S
C36 O28 1.284 . S
C36 O37 1.273 . S
O37 C36 1.273 . S
O38 Zn29 1.977 . S
O38 C31 1.267 . S
C39 O40 1.160 . S
C39 O46 1.185 . S
O40 C39 1.160 . S
O41 Zn42 1.899 . S
O41 C49 1.284 . S
Zn42 O41 1.899 . S
Zn42 O43 2.032 1_455 S
Zn42 O46 2.086 . S
Zn42 O51 1.977 . S
O43 Zn42 2.032 1_655 S
O43 C47 1.278 . S
C44 O45 1.203 . S
C44 O51 1.267 . S
O45 C44 1.203 . S
O46 C39 1.185 . S
O46 Zn42 2.086 . S
C47 O43 1.278 . S
C47 O48 1.211 . S
O48 C47 1.211 . S
C49 O41 1.284 . S
C49 O50 1.273 . S
O50 C49 1.273 . S
O51 Zn42 1.977 . S
O51 C44 1.267 . S
C52 O53 1.160 . S
C52 O59 1.185 . S
O53 C52 1.160 . S
O54 Zn55 1.899 . S
O54 C62 1.284 . S
Zn55 O54 1.899 . S
Zn55 O56 2.032 . S
Zn55 O59 2.086 . S
Zn55 O64 1.977 . S
O56 Zn55 2.032 . S
O56 C60 1.278 . S
C57 O58 1.203 . S
C57 O64 1.267 . S
O58 C57 1.203 . S
O59 C52 1.185 . S
O59 Zn55 2.086 . S
C60 O56 1.278 . S
C60 O61 1.211 . S
O61 C60 1.211 . S
C62 O54 1.284 . S
C62 O63 1.273 . S
O63 C62 1.273 . S
O64 Zn55 1.977 . S
O64 C57 1.267 . S
C65 O66 1.160 . S
C65 O72 1.185 . S
O66 C65 1.160 . S
O67 Zn68 1.899 . S
O67 C75 1.284 . S
Zn68 O67 1.899 . S
Zn68 O69 2.032 . S
Zn68 O72 2.086 . S
Zn68 O77 1.977 . S
O69 Zn68 2.032 . S
O69 C73 1.278 . S
C70 O71 1.203 . S
C70 O77 1.267 . S
O71 C70 1.203 . S
O72 C65 1.185 . S
O72 Zn68 2.086 . S
C73 O69 1.278 . S
C73 O74 1.211 . S
O74 C73 1.211 . S
C75 O67 1.284 . S
C75 O76 1.273 . S
O76 C75 1.273 . S
O77 Zn68 1.977 . S
O77 C70 1.267 . S
C78 O79 1.160 . S
C78 O85 1.185 . S
O79 C78 1.160 . S
O80 Zn81 1.899 . S
O80 C88 1.284 . S
Zn81 O80 1.899 . S
Zn81 O82 2.032 . S
Zn81 O85 2.086 . S
Zn81 O90 1.977 . S
O82 Zn81 2.032 . S
O82 C86 1.278 . S
C83 O84 1.203 . S
C83 O90 1.267 . S
O84 C83 1.203 . S
O85 C78 1.185 . S
O85 Zn81 2.086 . S
C86 O82 1.278 . S
C86 O87 1.211 . S
O87 C86 1.211 . S
C88 O80 1.284 . S
C88 O89 1.273 . S
O89 C88 1.273 . S
O90 Zn81 1.977 . S
O90 C83 1.267 . S
C91 O92 1.160 . S
C91 O98 1.185 . S
O92 C91 1.160 . S
O93 Zn94 1.899 . S
O93 C101 1.284 . S
Zn94 O93 1.899 . S
Zn94 O95 2.032 . S
Zn94 O98 2.086 . S
Zn94 O103 1.977 . S
O95 Zn94 2.032 . S
O95 C99 1.278 . S
C96 O97 1.203 . S
C96 O103 1.267 . S
O97 C96 1.203 . S
O98 C91 1.185 . S
O98 Zn94 2.086 . S
C99 O95 1.278 . S
C99 O100 1.211 . S
O100 C99 1.211 . S
C101 O93 1.284 . S
C101 O102 1.273 . S
O102 C101 1.273 . S
O103 Zn94 1.977 . S
O103 C96 1.267 . S
H104 C110 0.930 . S
H105 C114 0.930 . S
H106 C119 0.929 . S
H107 C117 0.929 . S
H108 C112 0.929 . S
H109 C118 0.929 . S
C110 H104 0.930 . S
C110 C111 1.367 . S
C110 C118 1.378 . S
C111 C110 1.367 . S
C111 C119 1.433 1_455 S
C112 H108 0.929 . S
C112 C114 1.378 . S
C112 C116 1.350 1_655 S
C113 C116 1.463 . S
C113 C118 1.350 . S
C113 N121 1.427 1_455 S
C114 H105 0.930 . S
C114 C112 1.378 . S
C114 C115 1.367 1_655 S
C115 C114 1.367 1_455 S
C115 C117 1.433 . S
C116 C112 1.350 1_455 S
C116 C113 1.463 . S
C116 N120 1.427 . S
C117 H107 0.929 . S
C117 C115 1.433 . S
C117 N120 1.384 . S
C118 H109 0.929 . S
C118 C110 1.378 . S
C118 C113 1.350 . S
C119 H106 0.929 . S
C119 C111 1.433 1_655 S
C119 N121 1.384 . S
N120 C116 1.427 . S
N120 C117 1.384 . S
N121 C113 1.427 1_655 S
N121 C119 1.384 . S
H122 C128 0.930 . S
H123 C132 0.930 . S
H124 C137 0.929 . S
H125 C135 0.929 . S
H126 C130 0.929 . S
H127 C136 0.929 . S
C128 H122 0.930 . S
C128 C129 1.367 . S
C128 C136 1.378 . S
C129 C128 1.367 . S
C129 C137 1.433 . S
C130 H126 0.929 . S
C130 C132 1.378 . S
C130 C134 1.350 . S
C131 C134 1.463 . S
C131 C136 1.350 . S
C131 N139 1.427 . S
C132 H123 0.930 . S
C132 C130 1.378 . S
C132 C133 1.367 . S
C133 C132 1.367 . S
C133 C135 1.433 . S
C134 C130 1.350 . S
C134 C131 1.463 . S
C134 N138 1.427 . S
C135 H125 0.929 . S
C135 C133 1.433 . S
C135 N138 1.384 . S
C136 H127 0.929 . S
C136 C128 1.378 . S
C136 C131 1.350 . S
C137 H124 0.929 . S
C137 C129 1.433 . S
C137 N139 1.384 . S
N138 C134 1.427 . S
N138 C135 1.384 . S
N139 C131 1.427 . S
N139 C137 1.384 . S
H140 C146 0.930 . S
H141 C150 0.930 . S
H142 C155 0.929 . S
H143 C153 0.929 . S
H144 C148 0.929 . S
H145 C154 0.929 . S
C146 H140 0.930 . S
C146 C147 1.367 . S
C146 C154 1.378 . S
C147 C146 1.367 . S
C147 C155 1.433 . S
C148 H144 0.929 . S
C148 C150 1.378 . S
C148 C152 1.350 . S
C149 C152 1.463 . S
C149 C154 1.350 . S
C149 N157 1.427 . S
C150 H141 0.930 . S
C150 C148 1.378 . S
C150 C151 1.367 . S
C151 C150 1.367 . S
C151 C153 1.433 . S
C152 C148 1.350 . S
C152 C149 1.463 . S
C152 N156 1.427 . S
C153 H143 0.929 . S
C153 C151 1.433 . S
C153 N156 1.384 . S
C154 H145 0.929 . S
C154 C146 1.378 . S
C154 C149 1.350 . S
C155 H142 0.929 . S
C155 C147 1.433 . S
C155 N157 1.384 . S
N156 C152 1.427 . S
N156 C153 1.384 . S
N157 C149 1.427 . S
N157 C155 1.384 . S
H158 C164 0.930 . S
H159 C168 0.930 . S
H160 C173 0.929 . S
H161 C171 0.929 . S
H162 C166 0.929 . S
H163 C172 0.929 . S
C164 H158 0.930 . S
C164 C165 1.367 . S
C164 C172 1.378 . S
C165 C164 1.367 . S
C165 C173 1.433 . S
C166 H162 0.929 . S
C166 C168 1.378 . S
C166 C170 1.350 . S
C167 C170 1.463 . S
C167 C172 1.350 . S
C167 N175 1.427 . S
C168 H159 0.930 . S
C168 C166 1.378 . S
C168 C169 1.367 . S
C169 C168 1.367 . S
C169 C171 1.433 . S
C170 C166 1.350 . S
C170 C167 1.463 . S
C170 N174 1.427 . S
C171 H161 0.929 . S
C171 C169 1.433 . S
C171 N174 1.384 . S
C172 H163 0.929 . S
C172 C164 1.378 . S
C172 C167 1.350 . S
C173 H160 0.929 . S
C173 C165 1.433 . S
C173 N175 1.384 . S
N174 C170 1.427 . S
N174 C171 1.384 . S
N175 C167 1.427 . S
N175 C173 1.384 . S
H176 C182 0.930 . S
H177 C186 0.930 . S
H178 C191 0.929 . S
H179 C189 0.929 . S
H180 C184 0.929 . S
H181 C190 0.929 . S
C182 H176 0.930 . S
C182 C183 1.367 . S
C182 C190 1.378 . S
C183 C182 1.367 . S
C183 C191 1.433 . S
C184 H180 0.929 . S
C184 C186 1.378 . S
C184 C188 1.350 . S
C185 C188 1.463 . S
C185 C190 1.350 . S
C185 N193 1.427 . S
C186 H177 0.930 . S
C186 C184 1.378 . S
C186 C187 1.367 . S
C187 C186 1.367 . S
C187 C189 1.433 . S
C188 C184 1.350 . S
C188 C185 1.463 . S
C188 N192 1.427 . S
C189 H179 0.929 . S
C189 C187 1.433 . S
C189 N192 1.384 . S
C190 H181 0.929 . S
C190 C182 1.378 . S
C190 C185 1.350 . S
C191 H178 0.929 . S
C191 C183 1.433 . S
C191 N193 1.384 . S
N192 C188 1.427 . S
N192 C189 1.384 . S
N193 C185 1.427 . S
N193 C191 1.384 . S
H194 C200 0.930 . S
H195 C204 0.930 . S
H196 C209 0.929 . S
H197 C207 0.929 . S
H198 C202 0.929 . S
H199 C208 0.929 . S
C200 H194 0.930 . S
C200 C201 1.367 . S
C200 C208 1.378 . S
C201 C200 1.367 . S
C201 C209 1.433 . S
C202 H198 0.929 . S
C202 C204 1.378 . S
C202 C206 1.350 . S
C203 C206 1.463 . S
C203 C208 1.350 . S
C203 N211 1.427 . S
C204 H195 0.930 . S
C204 C202 1.378 . S
C204 C205 1.367 . S
C205 C204 1.367 . S
C205 C207 1.433 . S
C206 C202 1.350 . S
C206 C203 1.463 . S
C206 N210 1.427 . S
C207 H197 0.929 . S
C207 C205 1.433 . S
C207 N210 1.384 . S
C208 H199 0.929 . S
C208 C200 1.378 . S
C208 C203 1.350 . S
C209 H196 0.929 . S
C209 C201 1.433 . S
C209 N211 1.384 . S
N210 C206 1.427 . S
N210 C207 1.384 . S
N211 C203 1.427 . S
N211 C209 1.384 . S
H212 C218 0.930 . S
H213 C222 0.930 . S
H214 C227 0.929 . S
H215 C225 0.929 . S
H216 C220 0.929 . S
H217 C226 0.929 . S
C218 H212 0.930 . S
C218 C219 1.367 . S
C218 C226 1.378 . S
C219 C218 1.367 . S
C219 C227 1.433 . S
C220 H216 0.929 . S
C220 C222 1.378 . S
C220 C224 1.350 . S
C221 C224 1.463 . S
C221 C226 1.350 . S
C221 N229 1.427 . S
C222 H213 0.930 . S
C222 C220 1.378 . S
C222 C223 1.367 . S
C223 C222 1.367 . S
C223 C225 1.433 . S
C224 C220 1.350 . S
C224 C221 1.463 . S
C224 N228 1.427 . S
C225 H215 0.929 . S
C225 C223 1.433 . S
C225 N228 1.384 . S
C226 H217 0.929 . S
C226 C218 1.378 . S
C226 C221 1.350 . S
C227 H214 0.929 . S
C227 C219 1.433 . S
C227 N229 1.384 . S
N228 C224 1.427 . S
N228 C225 1.384 . S
N229 C221 1.427 . S
N229 C227 1.384 . S
H230 C236 0.930 . S
H231 C240 0.930 . S
H232 C245 0.929 . S
H233 C243 0.929 . S
H234 C238 0.929 . S
H235 C244 0.929 . S
C236 H230 0.930 . S
C236 C237 1.367 . S
C236 C244 1.378 . S
C237 C236 1.367 . S
C237 C245 1.433 . S
C238 H234 0.929 . S
C238 C240 1.378 . S
C238 C242 1.350 . S
C239 C242 1.463 . S
C239 C244 1.350 . S
C239 N247 1.427 . S
C240 H231 0.930 . S
C240 C238 1.378 . S
C240 C241 1.367 . S
C241 C240 1.367 . S
C241 C243 1.433 . S
C242 C238 1.350 . S
C242 C239 1.463 . S
C242 N246 1.427 . S
C243 H233 0.929 . S
C243 C241 1.433 . S
C243 N246 1.384 . S
C244 H235 0.929 . S
C244 C236 1.378 . S
C244 C239 1.350 . S
C245 H232 0.929 . S
C245 C237 1.433 . S
C245 N247 1.384 . S
N246 C242 1.427 . S
N246 C243 1.384 . S
N247 C239 1.427 . S
N247 C245 1.384 . S
H248 C254 0.930 . S
H249 C258 0.930 . S
H250 C263 0.929 . S
H251 C261 0.929 . S
H252 C256 0.929 . S
H253 C262 0.929 . S
C254 H248 0.930 . S
C254 C255 1.367 . S
C254 C262 1.378 . S
C255 C254 1.367 . S
C255 C263 1.433 . S
C256 H252 0.929 . S
C256 C258 1.378 . S
C256 C260 1.350 . S
C257 C260 1.463 . S
C257 C262 1.350 . S
C257 N265 1.427 . S
C258 H249 0.930 . S
C258 C256 1.378 . S
C258 C259 1.367 . S
C259 C258 1.367 . S
C259 C261 1.433 . S
C260 C256 1.350 . S
C260 C257 1.463 . S
C260 N264 1.427 . S
C261 H251 0.929 . S
C261 C259 1.433 . S
C261 N264 1.384 . S
C262 H253 0.929 . S
C262 C254 1.378 . S
C262 C257 1.350 . S
C263 H250 0.929 . S
C263 C255 1.433 . S
C263 N265 1.384 . S
N264 C260 1.427 . S
N264 C261 1.384 . S
N265 C257 1.427 . S
N265 C263 1.384 . S
H266 C272 0.930 . S
H267 C276 0.930 . S
H268 C281 0.929 . S
H269 C279 0.929 . S
H270 C274 0.929 . S
H271 C280 0.929 . S
C272 H266 0.930 . S
C272 C273 1.367 . S
C272 C280 1.378 . S
C273 C272 1.367 . S
C273 C281 1.433 . S
C274 H270 0.929 . S
C274 C276 1.378 . S
C274 C278 1.350 . S
C275 C278 1.463 . S
C275 C280 1.350 . S
C275 N283 1.427 . S
C276 H267 0.930 . S
C276 C274 1.378 . S
C276 C277 1.367 . S
C277 C276 1.367 . S
C277 C279 1.433 . S
C278 C274 1.350 . S
C278 C275 1.463 . S
C278 N282 1.427 . S
C279 H269 0.929 . S
C279 C277 1.433 . S
C279 N282 1.384 . S
C280 H271 0.929 . S
C280 C272 1.378 . S
C280 C275 1.350 . S
C281 H268 0.929 . S
C281 C273 1.433 . S
C281 N283 1.384 . S
N282 C278 1.427 . S
N282 C279 1.384 . S
N283 C275 1.427 . S
N283 C281 1.384 . S
H284 C290 0.930 . S
H285 C294 0.930 . S
H286 C299 0.929 . S
H287 C297 0.929 . S
H288 C292 0.929 . S
H289 C298 0.929 . S
C290 H284 0.930 . S
C290 C291 1.367 . S
C290 C298 1.378 . S
C291 C290 1.367 . S
C291 C299 1.433 . S
C292 H288 0.929 . S
C292 C294 1.378 . S
C292 C296 1.350 . S
C293 C296 1.463 . S
C293 C298 1.350 . S
C293 N301 1.427 . S
C294 H285 0.930 . S
C294 C292 1.378 . S
C294 C295 1.367 . S
C295 C294 1.367 . S
C295 C297 1.433 . S
C296 C292 1.350 . S
C296 C293 1.463 . S
C296 N300 1.427 . S
C297 H287 0.929 . S
C297 C295 1.433 . S
C297 N300 1.384 . S
C298 H289 0.929 . S
C298 C290 1.378 . S
C298 C293 1.350 . S
C299 H286 0.929 . S
C299 C291 1.433 . S
C299 N301 1.384 . S
N300 C296 1.427 . S
N300 C297 1.384 . S
N301 C293 1.427 . S
N301 C299 1.384 . S
H302 C308 0.930 . S
H303 C312 0.930 . S
H304 C317 0.929 . S
H305 C315 0.929 . S
H306 C310 0.929 . S
H307 C316 0.929 . S
C308 H302 0.930 . S
C308 C309 1.367 . S
C308 C316 1.378 . S
C309 C308 1.367 . S
C309 C317 1.433 . S
C310 H306 0.929 . S
C310 C312 1.378 . S
C310 C314 1.350 . S
C311 C314 1.463 . S
C311 C316 1.350 . S
C311 N319 1.427 . S
C312 H303 0.930 . S
C312 C310 1.378 . S
C312 C313 1.367 . S
C313 C312 1.367 . S
C313 C315 1.433 . S
C314 C310 1.350 . S
C314 C311 1.463 . S
C314 N318 1.427 . S
C315 H305 0.929 . S
C315 C313 1.433 . S
C315 N318 1.384 . S
C316 H307 0.929 . S
C316 C308 1.378 . S
C316 C311 1.350 . S
C317 H304 0.929 . S
C317 C309 1.433 . S
C317 N319 1.384 . S
N318 C314 1.427 . S
N318 C315 1.384 . S
N319 C311 1.427 . S
N319 C317 1.384 . S
H320 C326 0.930 . S
H321 C330 0.930 . S
H322 C335 0.929 . S
H323 C333 0.929 . S
H324 C328 0.929 1_545 S
H325 C334 0.929 1_565 S
C326 H320 0.930 . S
C326 C327 1.367 1_655 S
C326 C334 1.378 . S
C327 C326 1.367 1_455 S
C327 C335 1.433 . S
C328 H324 0.929 1_565 S
C328 C330 1.378 . S
C328 C332 1.350 . S
C329 C332 1.463 1_544 S
C329 C334 1.350 1_455 S
C329 N337 1.427 . S
C330 H321 0.930 . S
C330 C328 1.378 . S
C330 C331 1.367 . S
C331 C330 1.367 . S
C331 C333 1.433 1_455 S
C332 C328 1.350 . S
C332 C329 1.463 1_566 S
C332 N336 1.427 1_455 S
C333 H323 0.929 . S
C333 C331 1.433 1_655 S
C333 N336 1.384 . S
C334 H325 0.929 1_545 S
C334 C326 1.378 . S
C334 C329 1.350 1_655 S
C335 H322 0.929 . S
C335 C327 1.433 . S
C335 N337 1.384 . S
N336 C332 1.427 1_655 S
N336 C333 1.384 . S
N337 C329 1.427 . S
N337 C335 1.384 . S
H338 C344 0.930 . S
H339 C348 0.930 . S
H340 C353 0.929 . S
H341 C351 0.929 . S
H342 C346 0.929 . S
H343 C352 0.929 . S
C344 H338 0.930 . S
C344 C345 1.367 . S
C344 C352 1.378 . S
C345 C344 1.367 . S
C345 C353 1.433 1_455 S
C346 H342 0.929 . S
C346 C348 1.378 . S
C346 C350 1.350 1_655 S
C347 C350 1.463 1_556 S
C347 C352 1.350 . S
C347 N355 1.427 1_455 S
C348 H339 0.930 . S
C348 C346 1.378 . S
C348 C349 1.367 1_655 S
C349 C348 1.367 1_455 S
C349 C351 1.433 . S
C350 C346 1.350 1_455 S
C350 C347 1.463 1_554 S
C350 N354 1.427 . S
C351 H341 0.929 . S
C351 C349 1.433 . S
C351 N354 1.384 . S
C352 H343 0.929 . S
C352 C344 1.378 . S
C352 C347 1.350 . S
C353 H340 0.929 . S
C353 C345 1.433 1_655 S
C353 N355 1.384 . S
N354 C350 1.427 . S
N354 C351 1.384 . S
N355 C347 1.427 1_655 S
N355 C353 1.384 . S
H356 C362 0.930 . S
H357 C366 0.930 . S
H358 C371 0.929 . S
H359 C369 0.929 . S
H360 C364 0.929 . S
H361 C370 0.929 . S
C362 H356 0.930 . S
C362 C363 1.367 . S
C362 C370 1.378 . S
C363 C362 1.367 . S
C363 C371 1.433 . S
C364 H360 0.929 . S
C364 C366 1.378 . S
C364 C368 1.350 . S
C365 C368 1.463 . S
C365 C370 1.350 . S
C365 N373 1.427 . S
C366 H357 0.930 . S
C366 C364 1.378 . S
C366 C367 1.367 . S
C367 C366 1.367 . S
C367 C369 1.433 . S
C368 C364 1.350 . S
C368 C365 1.463 . S
C368 N372 1.427 . S
C369 H359 0.929 . S
C369 C367 1.433 . S
C369 N372 1.384 . S
C370 H361 0.929 . S
C370 C362 1.378 . S
C370 C365 1.350 . S
C371 H358 0.929 . S
C371 C363 1.433 . S
C371 N373 1.384 . S
N372 C368 1.427 . S
N372 C369 1.384 . S
N373 C365 1.427 . S
N373 C371 1.384 . S
H374 C380 0.930 . S
H375 C384 0.930 . S
H376 C389 0.929 . S
H377 C387 0.929 . S
H378 C382 0.929 . S
H379 C388 0.929 . S
C380 H374 0.930 . S
C380 C381 1.367 . S
C380 C388 1.378 . S
C381 C380 1.367 . S
C381 C389 1.433 . S
C382 H378 0.929 . S
C382 C384 1.378 . S
C382 C386 1.350 . S
C383 C386 1.463 1_565 S
C383 C388 1.350 . S
C383 N391 1.427 . S
C384 H375 0.930 . S
C384 C382 1.378 . S
C384 C385 1.367 . S
C385 C384 1.367 . S
C385 C387 1.433 . S
C386 C382 1.350 . S
C386 C383 1.463 1_545 S
C386 N390 1.427 . S
C387 H377 0.929 . S
C387 C385 1.433 . S
C387 N390 1.384 . S
C388 H379 0.929 . S
C388 C380 1.378 . S
C388 C383 1.350 . S
C389 H376 0.929 . S
C389 C381 1.433 . S
C389 N391 1.384 . S
N390 C386 1.427 . S
N390 C387 1.384 . S
N391 C383 1.427 . S
N391 C389 1.384 . S
C111 C18 1.416 . S
C115 C5 1.416 . S
C129 C31 1.425 . S
C133 C44 1.412 . S
C147 C57 1.414 . S
C151 C70 1.425 . S
C165 C83 1.425 . S
C169 C96 1.412 . S
C183 C99 1.316 . S
C187 C8 1.298 . S
C201 C86 1.308 . S
C205 C21 1.305 . S
C219 C34 1.315 . S
C223 C73 1.298 . S
C237 C60 1.315 . S
C241 C47 1.298 . S
C255 C75 1.432 . S
C259 C36 1.431 . S
C273 C62 1.433 . S
C277 C49 1.431 . S
C291 C101 1.435 . S
C295 C10 1.437 . S
C309 C23 1.435 . S
C313 C88 1.432 . S
C327 C0 1.262 . S
C331 C26 1.270 . S
C345 C39 1.263 . S
C349 C13 1.270 . S
C363 C78 1.262 . S
C367 C52 1.271 . S
C381 C65 1.262 . S
C385 C91 1.274 . S
