# Generated by pormake.
# Topology uke, (4)-cn, num edge types: 1
# Building blocks:
#     Node 0, Type 0, BuildingBlock: GALJAG_clean_sbu_0, # of connection points: 4
#     Node 1, Type 0, BuildingBlock: GALJAG_clean_sbu_0, # of connection points: 4
#     Node 2, Type 0, BuildingBlock: GALJAG_clean_sbu_0, # of connection points: 4
#     Node 3, Type 0, BuildingBlock: GALJAG_clean_sbu_0, # of connection points: 4
#     Node 4, Type 0, BuildingBlock: GALJAG_clean_sbu_0, # of connection points: 4
#     Node 5, Type 0, BuildingBlock: GALJAG_clean_sbu_0, # of connection points: 4
#     Node 6, Type 0, BuildingBlock: GALJAG_clean_sbu_0, # of connection points: 4
#     Node 7, Type 0, BuildingBlock: GALJAG_clean_sbu_0, # of connection points: 4
#     Node 8, Type 0, BuildingBlock: GALJAG_clean_sbu_0, # of connection points: 4
#     Node 9, Type 0, BuildingBlock: GALJAG_clean_sbu_0, # of connection points: 4
#     Node 10, Type 0, BuildingBlock: GALJAG_clean_sbu_0, # of connection points: 4
#     Node 11, Type 0, BuildingBlock: GALJAG_clean_sbu_0, # of connection points: 4
#     Node 12, Type 0, BuildingBlock: GALJAG_clean_sbu_0, # of connection points: 4
#     Node 13, Type 0, BuildingBlock: GALJAG_clean_sbu_0, # of connection points: 4
#     Node 14, Type 0, BuildingBlock: GALJAG_clean_sbu_0, # of connection points: 4
#     Node 15, Type 0, BuildingBlock: GALJAG_clean_sbu_0, # of connection points: 4
#     Node 16, Type 0, BuildingBlock: GALJAG_clean_sbu_0, # of connection points: 4
#     Node 17, Type 0, BuildingBlock: GALJAG_clean_sbu_0, # of connection points: 4
#     Node 18, Type 0, BuildingBlock: GALJAG_clean_sbu_0, # of connection points: 4
#     Node 19, Type 0, BuildingBlock: GALJAG_clean_sbu_0, # of connection points: 4
#     Node 20, Type 0, BuildingBlock: GALJAG_clean_sbu_0, # of connection points: 4
#     Node 21, Type 0, BuildingBlock: GALJAG_clean_sbu_0, # of connection points: 4
#     Node 22, Type 0, BuildingBlock: GALJAG_clean_sbu_0, # of connection points: 4
#     Node 23, Type 0, BuildingBlock: GALJAG_clean_sbu_0, # of connection points: 4
#     Node 24, Type 0, BuildingBlock: GALJAG_clean_sbu_0, # of connection points: 4
#     Node 25, Type 0, BuildingBlock: GALJAG_clean_sbu_0, # of connection points: 4
#     Node 26, Type 0, BuildingBlock: GALJAG_clean_sbu_0, # of connection points: 4
#     Node 27, Type 0, BuildingBlock: GALJAG_clean_sbu_0, # of connection points: 4
#     Node 28, Type 0, BuildingBlock: GALJAG_clean_sbu_0, # of connection points: 4
#     Node 29, Type 0, BuildingBlock: GALJAG_clean_sbu_0, # of connection points: 4
#     Node 30, Type 0, BuildingBlock: GALJAG_clean_sbu_0, # of connection points: 4
#     Node 31, Type 0, BuildingBlock: GALJAG_clean_sbu_0, # of connection points: 4
#     Edge 32, Type (0, 0), BuildingBlock: CIFDUS_clean_linker_0, # of connection points: 2
#     Edge 33, Type (0, 0), BuildingBlock: CIFDUS_clean_linker_0, # of connection points: 2
#     Edge 34, Type (0, 0), BuildingBlock: CIFDUS_clean_linker_0, # of connection points: 2
#     Edge 35, Type (0, 0), BuildingBlock: CIFDUS_clean_linker_0, # of connection points: 2
#     Edge 36, Type (0, 0), BuildingBlock: CIFDUS_clean_linker_0, # of connection points: 2
#     Edge 37, Type (0, 0), BuildingBlock: CIFDUS_clean_linker_0, # of connection points: 2
#     Edge 38, Type (0, 0), BuildingBlock: CIFDUS_clean_linker_0, # of connection points: 2
#     Edge 39, Type (0, 0), BuildingBlock: CIFDUS_clean_linker_0, # of connection points: 2
#     Edge 40, Type (0, 0), BuildingBlock: CIFDUS_clean_linker_0, # of connection points: 2
#     Edge 41, Type (0, 0), BuildingBlock: CIFDUS_clean_linker_0, # of connection points: 2
#     Edge 42, Type (0, 0), BuildingBlock: CIFDUS_clean_linker_0, # of connection points: 2
#     Edge 43, Type (0, 0), BuildingBlock: CIFDUS_clean_linker_0, # of connection points: 2
#     Edge 44, Type (0, 0), BuildingBlock: CIFDUS_clean_linker_0, # of connection points: 2
#     Edge 45, Type (0, 0), BuildingBlock: CIFDUS_clean_linker_0, # of connection points: 2
#     Edge 46, Type (0, 0), BuildingBlock: CIFDUS_clean_linker_0, # of connection points: 2
#     Edge 47, Type (0, 0), BuildingBlock: CIFDUS_clean_linker_0, # of connection points: 2
#     Edge 48, Type (0, 0), BuildingBlock: CIFDUS_clean_linker_0, # of connection points: 2
#     Edge 49, Type (0, 0), BuildingBlock: CIFDUS_clean_linker_0, # of connection points: 2
#     Edge 50, Type (0, 0), BuildingBlock: CIFDUS_clean_linker_0, # of connection points: 2
#     Edge 51, Type (0, 0), BuildingBlock: CIFDUS_clean_linker_0, # of connection points: 2
#     Edge 52, Type (0, 0), BuildingBlock: CIFDUS_clean_linker_0, # of connection points: 2
#     Edge 53, Type (0, 0), BuildingBlock: CIFDUS_clean_linker_0, # of connection points: 2
#     Edge 54, Type (0, 0), BuildingBlock: CIFDUS_clean_linker_0, # of connection points: 2
#     Edge 55, Type (0, 0), BuildingBlock: CIFDUS_clean_linker_0, # of connection points: 2
#     Edge 56, Type (0, 0), BuildingBlock: CIFDUS_clean_linker_0, # of connection points: 2
#     Edge 57, Type (0, 0), BuildingBlock: CIFDUS_clean_linker_0, # of connection points: 2
#     Edge 58, Type (0, 0), BuildingBlock: CIFDUS_clean_linker_0, # of connection points: 2
#     Edge 59, Type (0, 0), BuildingBlock: CIFDUS_clean_linker_0, # of connection points: 2
#     Edge 60, Type (0, 0), BuildingBlock: CIFDUS_clean_linker_0, # of connection points: 2
#     Edge 61, Type (0, 0), BuildingBlock: CIFDUS_clean_linker_0, # of connection points: 2
#     Edge 62, Type (0, 0), BuildingBlock: CIFDUS_clean_linker_0, # of connection points: 2
#     Edge 63, Type (0, 0), BuildingBlock: CIFDUS_clean_linker_0, # of connection points: 2
#     Edge 64, Type (0, 0), BuildingBlock: CIFDUS_clean_linker_0, # of connection points: 2
#     Edge 65, Type (0, 0), BuildingBlock: CIFDUS_clean_linker_0, # of connection points: 2
#     Edge 66, Type (0, 0), BuildingBlock: CIFDUS_clean_linker_0, # of connection points: 2
#     Edge 67, Type (0, 0), BuildingBlock: CIFDUS_clean_linker_0, # of connection points: 2
#     Edge 68, Type (0, 0), BuildingBlock: CIFDUS_clean_linker_0, # of connection points: 2
#     Edge 69, Type (0, 0), BuildingBlock: CIFDUS_clean_linker_0, # of connection points: 2
#     Edge 70, Type (0, 0), BuildingBlock: CIFDUS_clean_linker_0, # of connection points: 2
#     Edge 71, Type (0, 0), BuildingBlock: CIFDUS_clean_linker_0, # of connection points: 2
#     Edge 72, Type (0, 0), BuildingBlock: CIFDUS_clean_linker_0, # of connection points: 2
#     Edge 73, Type (0, 0), BuildingBlock: CIFDUS_clean_linker_0, # of connection points: 2
#     Edge 74, Type (0, 0), BuildingBlock: CIFDUS_clean_linker_0, # of connection points: 2
#     Edge 75, Type (0, 0), BuildingBlock: CIFDUS_clean_linker_0, # of connection points: 2
#     Edge 76, Type (0, 0), BuildingBlock: CIFDUS_clean_linker_0, # of connection points: 2
#     Edge 77, Type (0, 0), BuildingBlock: CIFDUS_clean_linker_0, # of connection points: 2
#     Edge 78, Type (0, 0), BuildingBlock: CIFDUS_clean_linker_0, # of connection points: 2
#     Edge 79, Type (0, 0), BuildingBlock: CIFDUS_clean_linker_0, # of connection points: 2
#     Edge 80, Type (0, 0), BuildingBlock: CIFDUS_clean_linker_0, # of connection points: 2
#     Edge 81, Type (0, 0), BuildingBlock: CIFDUS_clean_linker_0, # of connection points: 2
#     Edge 82, Type (0, 0), BuildingBlock: CIFDUS_clean_linker_0, # of connection points: 2
#     Edge 83, Type (0, 0), BuildingBlock: CIFDUS_clean_linker_0, # of connection points: 2
#     Edge 84, Type (0, 0), BuildingBlock: CIFDUS_clean_linker_0, # of connection points: 2
#     Edge 85, Type (0, 0), BuildingBlock: CIFDUS_clean_linker_0, # of connection points: 2
#     Edge 86, Type (0, 0), BuildingBlock: CIFDUS_clean_linker_0, # of connection points: 2
#     Edge 87, Type (0, 0), BuildingBlock: CIFDUS_clean_linker_0, # of connection points: 2
#     Edge 88, Type (0, 0), BuildingBlock: CIFDUS_clean_linker_0, # of connection points: 2
#     Edge 89, Type (0, 0), BuildingBlock: CIFDUS_clean_linker_0, # of connection points: 2
#     Edge 90, Type (0, 0), BuildingBlock: CIFDUS_clean_linker_0, # of connection points: 2
#     Edge 91, Type (0, 0), BuildingBlock: CIFDUS_clean_linker_0, # of connection points: 2
#     Edge 92, Type (0, 0), BuildingBlock: CIFDUS_clean_linker_0, # of connection points: 2
#     Edge 93, Type (0, 0), BuildingBlock: CIFDUS_clean_linker_0, # of connection points: 2
#     Edge 94, Type (0, 0), BuildingBlock: CIFDUS_clean_linker_0, # of connection points: 2
#     Edge 95, Type (0, 0), BuildingBlock: CIFDUS_clean_linker_0, # of connection points: 2
# Relax obj value: 0.063
# Max RMSD: 0.130
# Mean RMSD: 0.130
data_MOF--net-uke--node1-GALJAG_clean_sbu_0--edge1-CIFDUS_clean_linker_0
_symmetry_space_group_name_H-M    P1
_symmetry_Int_Tables_number       1
_symmetry_cell_setting            triclinic
loop_
_symmetry_equiv_pos_as_xyz
'x, y, z'
_cell_length_a     18.740911
_cell_length_b     99.224041
_cell_length_c     46.35838
_cell_angle_alpha  89.974925
_cell_angle_beta   90.085607
_cell_angle_gamma 89.974059
loop_
_atom_site_label
_atom_site_type_symbol
_atom_site_fract_x
_atom_site_fract_y
_atom_site_fract_z
_atom_type_partial_charge
In0 In 0.05331 0.05433 0.25504 0.0
O1 O 0.94283 0.04838 0.27017 0.0
O2 O 0.02821 0.0492 0.30102 0.0
C3 C 0.06079 0.05855 0.19844 0.0
C4 C 0.06004 0.08026 0.27056 0.0
C5 C 0.12209 0.03079 0.25266 0.0
O6 O 0.00232 0.05548 0.21057 0.0
O7 O 0.11398 0.05966 0.21505 0.0
O8 O 0.15177 0.0412 0.26328 0.0
O9 O 0.05875 0.03243 0.24396 0.0
C10 C 0.96274 0.047 0.2962 0.0
O11 O 0.11373 0.07252 0.27334 0.0
O12 O 0.00474 0.0748 0.26026 0.0
In13 In 0.13476 0.18566 0.26663 0.0
O14 O 0.24019 0.19189 0.2867 0.0
O15 O 0.14936 0.18929 0.31417 0.0
C16 C 0.14212 0.18357 0.20933 0.0
C17 C 0.12789 0.15917 0.27747 0.0
C18 C 0.05841 0.20839 0.26511 0.0
O19 O 0.19672 0.18644 0.22437 0.0
O20 O 0.08538 0.18159 0.2234 0.0
O21 O 0.03121 0.19737 0.27379 0.0
O22 O 0.1234 0.20777 0.25802 0.0
C23 C 0.21492 0.19215 0.31208 0.0
O24 O 0.07304 0.16665 0.27945 0.0
O25 O 0.1846 0.16515 0.27027 0.0
In26 In 0.08745 0.18703 0.98251 0.0
O27 O 0.14813 0.16817 0.96842 0.0
O28 O 0.03638 0.1667 0.97727 0.0
C29 C 0.1667 0.20929 0.98573 0.0
C30 C 0.01198 0.19456 0.93647 0.0
C31 C 0.07831 0.18431 0.03962 0.0
O32 O 0.19269 0.19825 0.97662 0.0
O33 O 0.10147 0.20893 0.99257 0.0
O34 O 0.02449 0.18768 0.02457 0.0
O35 O 0.13493 0.18211 0.02562 0.0
C36 C 0.09293 0.16077 0.96965 0.0
O37 O 0.98372 0.19371 0.96128 0.0
O38 O 0.0777 0.19173 0.93536 0.0
In39 In 0.17299 0.05585 0.97624 0.0
O40 O 0.27918 0.05093 0.95595 0.0
O41 O 0.18582 0.0519 0.92895 0.0
C42 C 0.16768 0.05958 0.03283 0.0
C43 C 0.16366 0.08197 0.96375 0.0
C44 C 0.11402 0.03158 0.98071 0.0
O45 O 0.2263 0.05691 0.02026 0.0
O46 O 0.1136 0.06057 0.01659 0.0
O47 O 0.07838 0.04159 0.97122 0.0
O48 O 0.17855 0.03397 0.98695 0.0
C49 C 0.2526 0.05004 0.93076 0.0
O50 O 0.10987 0.07423 0.96102 0.0
O51 O 0.22045 0.07639 0.97244 0.0
In52 In 0.85287 0.93474 0.72568 0.0
O53 O 0.78648 0.91719 0.70849 0.0
O54 O 0.89499 0.91373 0.7213 0.0
C55 C 0.79425 0.95914 0.72815 0.0
C56 C 0.94087 0.94088 0.68272 0.0
C57 C 0.84202 0.93109 0.78241 0.0
O58 O 0.76047 0.94921 0.71734 0.0
O59 O 0.85663 0.95657 0.73702 0.0
O60 O 0.90184 0.93344 0.77052 0.0
O61 O 0.78925 0.93032 0.76546 0.0
C62 C 0.83759 0.90885 0.71144 0.0
O63 O 0.96344 0.93933 0.70839 0.0
O64 O 0.8744 0.93931 0.67917 0.0
In65 In 0.84362 0.80347 0.72783 0.0
O66 O 0.73654 0.79881 0.70733 0.0
O67 O 0.82984 0.79903 0.68058 0.0
C68 C 0.83883 0.80789 0.78456 0.0
C69 C 0.86352 0.82923 0.71323 0.0
C70 C 0.9047 0.77932 0.73349 0.0
O71 O 0.7827 0.80518 0.7703 0.0
O72 O 0.89563 0.80851 0.76997 0.0
O73 O 0.93983 0.78941 0.72431 0.0
O74 O 0.83968 0.78154 0.73892 0.0
C75 C 0.76291 0.79752 0.68225 0.0
O76 O 0.91455 0.82078 0.71237 0.0
O77 O 0.80408 0.82453 0.72121 0.0
In78 In 0.91488 0.80867 0.01076 0.0
O79 O 0.02968 0.80509 0.02486 0.0
O80 O 0.94804 0.80501 0.05696 0.0
C81 C 0.91554 0.81148 0.95322 0.0
C82 C 0.88481 0.83427 0.02493 0.0
C83 C 0.84781 0.78481 0.01146 0.0
O84 O 0.97245 0.80953 0.9674 0.0
O85 O 0.85954 0.81224 0.96819 0.0
O86 O 0.81863 0.79538 0.02128 0.0
O87 O 0.91057 0.78635 0.00222 0.0
C88 C 0.01374 0.80398 0.0513 0.0
O89 O 0.83852 0.82501 0.027 0.0
O90 O 0.94506 0.83051 0.01589 0.0
In91 In 0.83922 0.93925 0.01048 0.0
O92 O 0.72543 0.9423 0.02607 0.0
O93 O 0.81119 0.94346 0.05666 0.0
C94 C 0.85069 0.9349 0.95387 0.0
C95 C 0.86857 0.91394 0.02618 0.0
C96 C 0.8932 0.9641 0.00762 0.0
O97 O 0.79025 0.93663 0.96568 0.0
O98 O 0.90359 0.93523 0.97075 0.0
O99 O 0.92894 0.95434 0.01803 0.0
O100 O 0.83054 0.96124 -0.00042 0.0
C101 C 0.74466 0.94402 0.0521 0.0
O102 O 0.91443 0.92328 0.02899 0.0
O103 O 0.80907 0.91755 0.0159 0.0
In104 In 0.08202 0.55682 0.76171 0.0
O105 O 0.15156 0.57432 0.77736 0.0
O106 O 0.04035 0.57766 0.76893 0.0
C107 C 0.1407 0.53249 0.75587 0.0
C108 C -0.00046 0.55068 0.80634 0.0
C109 C 0.08261 0.56163 0.70526 0.0
O110 O 0.17603 0.54231 0.76629 0.0
O111 O 0.07664 0.53507 0.74929 0.0
O112 O 0.02503 0.55889 0.71847 0.0
O113 O 0.13807 0.5621 0.72078 0.0
C114 C 0.09952 0.58256 0.77677 0.0
O115 O 0.97408 0.55223 0.78113 0.0
O116 O 0.06652 0.55203 0.80859 0.0
In117 In 0.18215 0.68736 0.76091 0.0
O118 O 0.28923 0.69172 0.78189 0.0
O119 O 0.19532 0.69017 0.80846 0.0
C120 C 0.15365 0.68481 0.70499 0.0
C121 C 0.17833 0.66103 0.77095 0.0
C122 C 0.12887 0.71208 0.75957 0.0
O123 O 0.21722 0.68686 0.71388 0.0
O124 O 0.10654 0.68375 0.72445 0.0
O125 O 0.09264 0.70218 0.76919 0.0
O126 O 0.19207 0.70939 0.75162 0.0
C127 C 0.26221 0.69204 0.80712 0.0
O128 O 0.12562 0.66862 0.77713 0.0
O129 O 0.23172 0.66686 0.75969 0.0
In130 In 0.08129 0.68855 0.47737 0.0
O131 O 0.1374 0.66996 0.45987 0.0
O132 O 0.03143 0.66804 0.47701 0.0
C133 C 0.14873 0.71208 0.47693 0.0
C134 C 0.99316 0.69423 0.43389 0.0
C135 C 0.1069 0.68552 0.53363 0.0
O136 O 0.17689 0.70155 0.46618 0.0
O137 O 0.0863 0.71064 0.48692 0.0
O138 O 0.04477 0.68855 0.52447 0.0
O139 O 0.15368 0.68378 0.51433 0.0
C140 C 0.08465 0.66233 0.46549 0.0
O141 O 0.97062 0.69357 0.45976 0.0
O142 O 0.05947 0.69231 0.43064 0.0
In143 In 0.17805 0.55841 0.48162 0.0
O144 O 0.28978 0.55282 0.46709 0.0
O145 O 0.20528 0.55299 0.43592 0.0
C146 C 0.17565 0.56293 0.53835 0.0
C147 C 0.16349 0.58403 0.46468 0.0
C148 C 0.10711 0.53511 0.48445 0.0
O149 O 0.23295 0.55985 0.5254 0.0
O150 O 0.12111 0.56396 0.52249 0.0
O151 O 0.07943 0.54548 0.47284 0.0
O152 O 0.16993 0.53663 0.49377 0.0
C153 C 0.27091 0.55118 0.44104 0.0
O154 O 0.11121 0.5759 0.46397 0.0
O155 O 0.22153 0.57912 0.47369 0.0
In156 In 0.90713 0.43544 0.23539 0.0
O157 O 0.84654 0.41673 0.22087 0.0
O158 O 0.95627 0.41494 0.23414 0.0
C159 C 0.85509 0.46026 0.23838 0.0
C160 C 0.98129 0.44033 0.18791 0.0
C161 C 0.89418 0.43266 0.29203 0.0
O162 O 0.81684 0.45048 0.22947 0.0
O163 O 0.91897 0.45736 0.24496 0.0
O164 O 0.95474 0.43475 0.28039 0.0
O165 O 0.84177 0.4317 0.27485 0.0
C166 C 0.90057 0.40913 0.22485 0.0
O167 O 0.0113 0.43978 0.21257 0.0
O168 O 0.91425 0.43855 0.18772 0.0
In169 In 0.81803 0.30412 0.2346 0.0
O170 O 0.88205 0.32252 0.21952 0.0
O171 O 0.77084 0.32474 0.22851 0.0
C172 C 0.89418 0.28131 0.23626 0.0
C173 C 0.72916 0.29695 0.19235 0.0
C174 C 0.81387 0.30763 0.29166 0.0
O175 O 0.92024 0.29213 0.22607 0.0
O176 O 0.83046 0.28215 0.24488 0.0
O177 O 0.75851 0.3045 0.27741 0.0
O178 O 0.87001 0.30908 0.27696 0.0
C179 C 0.82825 0.33029 0.22074 0.0
O180 O 0.70892 0.29778 0.21838 0.0
O181 O 0.79428 0.29958 0.18797 0.0
In182 In 0.87851 0.30671 0.51767 0.0
O183 O 0.98711 0.30166 0.53635 0.0
O184 O 0.89678 0.30214 0.56461 0.0
C185 C 0.88469 0.31 0.46062 0.0
C186 C 0.86206 0.33269 0.53145 0.0
C187 C 0.80874 0.28333 0.51441 0.0
O188 O 0.93998 0.30719 0.47527 0.0
O189 O 0.82795 0.3114 0.47498 0.0
O190 O 0.77876 0.29385 0.52424 0.0
O191 O 0.87324 0.28472 0.50715 0.0
C192 C 0.9633 0.30043 0.56182 0.0
O193 O 0.80995 0.32452 0.53245 0.0
O194 O 0.92076 0.32764 0.52364 0.0
In195 In 0.88981 0.43818 0.52074 0.0
O196 O 0.77986 0.44344 0.53821 0.0
O197 O 0.86873 0.44256 0.56738 0.0
C198 C 0.90016 0.43457 0.46389 0.0
C199 C 0.90042 0.41213 0.5343 0.0
C200 C 0.95792 0.4617 0.51894 0.0
O201 O 0.84082 0.43748 0.47564 0.0
O202 O 0.95234 0.43332 0.48099 0.0
O203 O 0.98713 0.45127 0.52969 0.0
O204 O 0.89469 0.46015 0.50997 0.0
C205 C 0.80252 0.4445 0.56397 0.0
O206 O 0.95277 0.42012 0.53764 0.0
O207 O 0.84406 0.4174 0.52439 0.0
In208 In 0.62598 0.05949 0.76371 0.0
O209 O 0.51895 0.05377 0.78241 0.0
O210 O 0.61069 0.05467 0.81038 0.0
C211 C 0.63939 0.06362 0.7075 0.0
C212 C 0.62775 0.08546 0.77771 0.0
C213 C 0.686 0.03534 0.75987 0.0
O214 O 0.57927 0.06077 0.71869 0.0
O215 O 0.69118 0.06464 0.72493 0.0
O216 O 0.7195 0.04523 0.77106 0.0
O217 O 0.62319 0.03783 0.75128 0.0
C218 C 0.54435 0.05249 0.80774 0.0
O219 O 0.68351 0.07821 0.78034 0.0
O220 O 0.57289 0.07949 0.76822 0.0
In221 In 0.66564 0.19079 0.75947 0.0
O222 O 0.76858 0.19633 0.78163 0.0
O223 O 0.6719 0.19483 0.80676 0.0
C224 C 0.6412 0.1861 0.70423 0.0
C225 C 0.671 0.16481 0.77227 0.0
C226 C 0.61392 0.21541 0.75361 0.0
O227 O 0.70378 0.18881 0.71342 0.0
O228 O 0.59246 0.18557 0.72317 0.0
O229 O 0.57638 0.20593 0.76437 0.0
O230 O 0.67734 0.21233 0.74659 0.0
C231 C 0.73866 0.19705 0.80628 0.0
O232 O 0.61451 0.17169 0.77666 0.0
O233 O 0.72326 0.17116 0.76142 0.0
In234 In 0.59704 0.18617 0.4768 0.0
O235 O 0.65085 0.16738 0.45868 0.0
O236 O 0.54272 0.16618 0.47382 0.0
C237 C 0.66468 0.20965 0.47904 0.0
C238 C 0.5115 0.19328 0.43378 0.0
C239 C 0.61565 0.18229 0.53305 0.0
O240 O 0.6941 0.1993 0.46797 0.0
O241 O 0.60158 0.208 0.48811 0.0
O242 O 0.55517 0.1857 0.52285 0.0
O243 O 0.66467 0.18055 0.51468 0.0
C244 C 0.59558 0.16018 0.46274 0.0
O245 O 0.48826 0.19209 0.45944 0.0
O246 O 0.57756 0.19108 0.43041 0.0
In247 In 0.64892 0.05555 0.48023 0.0
O248 O 0.75975 0.04888 0.46662 0.0
O249 O 0.67579 0.04942 0.4351 0.0
C250 C 0.63655 0.06082 0.53629 0.0
C251 C 0.64723 0.08117 0.46259 0.0
C252 C 0.57412 0.03278 0.48325 0.0
O253 O 0.69552 0.05707 0.52545 0.0
O254 O 0.58548 0.06208 0.51868 0.0
O255 O 0.549 0.04319 0.47086 0.0
O256 O 0.63655 0.03398 0.49327 0.0
C257 C 0.74089 0.04714 0.44055 0.0
O258 O 0.59222 0.07375 0.46033 0.0
O259 O 0.70146 0.07556 0.47346 0.0
In260 In 0.42754 0.9407 0.23958 0.0
O261 O 0.54118 0.9441 0.22385 0.0
O262 O 0.45562 0.94471 0.19324 0.0
C263 C 0.42487 0.9369 0.29671 0.0
C264 C 0.39784 0.91528 0.2241 0.0
C265 C 0.36521 0.96499 0.24066 0.0
O266 O 0.483 0.93893 0.28341 0.0
O267 O 0.36978 0.93663 0.28105 0.0
O268 O 0.33323 0.95468 0.23091 0.0
O269 O 0.42844 0.96298 0.2491 0.0
C270 C 0.52202 0.94549 0.19775 0.0
O271 O 0.3513 0.92454 0.22244 0.0
O272 O 0.45809 0.91896 0.23341 0.0
In273 In 0.35969 0.80989 0.23085 0.0
O274 O 0.43232 0.82642 0.21288 0.0
O275 O 0.32789 0.83166 0.22769 0.0
C276 C 0.41815 0.78532 0.23004 0.0
C277 C 0.25826 0.8054 0.1915 0.0
C278 C 0.37587 0.81273 0.28778 0.0
O279 O 0.4496 0.79539 0.21886 0.0
O280 O 0.35738 0.78775 0.2406 0.0
O281 O 0.31462 0.81128 0.27646 0.0
O282 O 0.42738 0.81299 0.27027 0.0
C283 C 0.38623 0.8356 0.21703 0.0
O284 O 0.24352 0.8068 0.21805 0.0
O285 O 0.32382 0.80616 0.18525 0.0
In286 In 0.38638 0.80704 0.51594 0.0
O287 O 0.49368 0.80024 0.53368 0.0
O288 O 0.40384 0.80156 0.56224 0.0
C289 C 0.37608 0.81161 0.45951 0.0
C290 C 0.38835 0.83294 0.53106 0.0
C291 C 0.31086 0.78443 0.51209 0.0
O292 O 0.43422 0.80757 0.4708 0.0
O293 O 0.32515 0.81353 0.4769 0.0
O294 O 0.28476 0.79497 0.52361 0.0
O295 O 0.37465 0.78542 0.50344 0.0
C296 C 0.46955 0.79898 0.55917 0.0
O297 O 0.3324 0.82582 0.53403 0.0
O298 O 0.44186 0.82689 0.52069 0.0
In299 In 0.33123 0.93826 0.52126 0.0
O300 O 0.22331 0.94419 0.5393 0.0
O301 O 0.31225 0.94252 0.56823 0.0
C302 C 0.33188 0.93534 0.46406 0.0
C303 C 0.33539 0.91206 0.53425 0.0
C304 C 0.40678 0.96098 0.51954 0.0
O305 O 0.27576 0.9388 0.47748 0.0
O306 O 0.38591 0.93311 0.47969 0.0
O307 O 0.43353 0.95014 0.52945 0.0
O308 O 0.34239 0.96022 0.51157 0.0
C309 C 0.2463 0.94483 0.56505 0.0
O310 O 0.39064 0.91941 0.5366 0.0
O311 O 0.27994 0.918 0.52538 0.0
In312 In 0.59624 0.55516 0.25742 0.0
O313 O 0.48211 0.55162 0.27161 0.0
O314 O 0.56608 0.55056 0.30311 0.0
C315 C 0.61153 0.55961 0.20115 0.0
C316 C 0.61611 0.58068 0.27387 0.0
C317 C 0.64936 0.53025 0.25513 0.0
O318 O 0.55063 0.55753 0.21228 0.0
O319 O 0.66343 0.55961 0.21859 0.0
O320 O 0.68511 0.53989 0.26604 0.0
O321 O 0.58782 0.53332 0.24609 0.0
C322 C 0.4999 0.54981 0.29778 0.0
O323 O 0.66523 0.57194 0.27686 0.0
O324 O 0.55877 0.5764 0.26282 0.0
In325 In 0.61069 0.68641 0.26656 0.0
O326 O 0.71956 0.69101 0.28618 0.0
O327 O 0.62818 0.69025 0.31388 0.0
C328 C 0.60649 0.68346 0.20925 0.0
C329 C 0.5935 0.66031 0.27895 0.0
C330 C 0.54646 0.71037 0.26398 0.0
O331 O 0.66482 0.68578 0.22239 0.0
O332 O 0.55219 0.68234 0.22521 0.0
O333 O 0.51453 0.7001 0.27408 0.0
O334 O 0.61032 0.70845 0.25623 0.0
C335 C 0.69486 0.69194 0.31162 0.0
O336 O 0.54248 0.66867 0.28154 0.0
O337 O 0.65189 0.66524 0.27032 0.0
In338 In 0.62998 0.68738 0.98003 0.0
O339 O 0.52153 0.69214 0.95991 0.0
O340 O 0.61412 0.69155 0.93286 0.0
C341 C 0.63306 0.6843 0.03736 0.0
C342 C 0.64372 0.66131 0.96681 0.0
C343 C 0.69952 0.71081 0.98191 0.0
O344 O 0.57542 0.68717 0.02421 0.0
O345 O 0.68708 0.68276 0.02142 0.0
O346 O 0.72908 0.70017 0.97238 0.0
O347 O 0.63516 0.70951 0.98962 0.0
C348 C 0.54732 0.69315 0.93464 0.0
O349 O 0.69593 0.66942 0.96466 0.0
O350 O 0.58607 0.66645 0.97569 0.0
In351 In 0.62139 0.5559 0.97349 0.0
O352 O 0.72975 0.55189 0.954 0.0
O353 O 0.63722 0.55191 0.92641 0.0
C354 C 0.60842 0.56001 0.02974 0.0
C355 C 0.60697 0.58185 0.96054 0.0
C356 C 0.57125 0.53098 0.97808 0.0
O357 O 0.66908 0.55784 0.01832 0.0
O358 O 0.55589 0.56026 0.01255 0.0
O359 O 0.5328 0.54042 0.96774 0.0
O360 O 0.63413 0.53425 0.98521 0.0
C361 C 0.70433 0.55063 0.92867 0.0
O362 O 0.55527 0.57366 0.95718 0.0
O363 O 0.66438 0.57677 0.97001 0.0
In364 In 0.41419 0.43991 0.72719 0.0
O365 O 0.52318 0.44474 0.70905 0.0
O366 O 0.4327 0.44402 0.68034 0.0
C367 C 0.38847 0.43534 0.78263 0.0
C368 C 0.41128 0.41394 0.71342 0.0
C369 C 0.36002 0.46455 0.73087 0.0
O370 O 0.45126 0.43796 0.77371 0.0
O371 O 0.34043 0.43486 0.7634 0.0
O372 O 0.32461 0.45493 0.71958 0.0
O373 O 0.42241 0.46162 0.73942 0.0
C374 C 0.4994 0.44572 0.68337 0.0
O375 O 0.35743 0.4215 0.70884 0.0
O376 O 0.46495 0.4196 0.72483 0.0
In377 In 0.34838 0.30885 0.72572 0.0
O378 O 0.40601 0.32738 0.70838 0.0
O379 O 0.29773 0.32917 0.72332 0.0
C380 C 0.40264 0.28422 0.72895 0.0
C381 C 0.26427 0.30273 0.68179 0.0
C382 C 0.36902 0.31242 0.78176 0.0
O383 O 0.43884 0.29393 0.71844 0.0
O384 O 0.33986 0.2871 0.73696 0.0
O385 O 0.3071 0.3101 0.77157 0.0
O386 O 0.41888 0.31328 0.76344 0.0
C387 C 0.35189 0.33491 0.71259 0.0
O388 O 0.24004 0.30384 0.70733 0.0
O389 O 0.33081 0.30464 0.67888 0.0
In390 In 0.40622 0.30525 0.00945 0.0
O391 O 0.51966 0.29948 0.02206 0.0
O392 O 0.43827 0.3 0.05454 0.0
C393 C 0.38717 0.30929 0.95311 0.0
C394 C 0.4009 0.33116 0.02494 0.0
C395 C 0.33345 0.28218 0.0107 0.0
O396 O 0.44775 0.30601 0.96325 0.0
O397 O 0.33798 0.31063 0.97147 0.0
O398 O 0.30883 0.29285 0.02211 0.0
O399 O 0.39437 0.28329 -0.00074 0.0
C400 C 0.50317 0.29798 0.04844 0.0
O401 O 0.34768 0.32341 0.02842 0.0
O402 O 0.45548 0.32573 0.01402 0.0
In403 In 0.32722 0.43587 0.00927 0.0
O404 O 0.38581 0.41744 0.02602 0.0
O405 O 0.27718 0.4155 0.0111 0.0
C406 C 0.37339 0.46094 0.00444 0.0
C407 C 0.25194 0.4411 0.05611 0.0
C408 C 0.35231 0.43203 0.95368 0.0
O409 O 0.413 0.45168 0.0149 0.0
O410 O 0.31069 0.45742 -0.00271 0.0
O411 O 0.28926 0.43422 0.96293 0.0
O412 O 0.40087 0.43146 0.97274 0.0
C413 C 0.33196 0.40984 0.02175 0.0
O414 O 0.22223 0.44004 0.03144 0.0
O415 O 0.31931 0.43972 0.05657 0.0
H416 H 0.04527 0.061 0.06312 0.0
H417 H 0.27428 0.06041 0.07317 0.0
H418 H 0.26075 0.06088 0.12569 0.0
H419 H 0.1837 0.06037 0.16838 0.0
H420 H 0.95475 0.05979 0.1581 0.0
H421 H 0.96841 0.06093 0.10568 0.0
C422 C 0.09232 0.06109 0.07678 0.0
C423 C 0.16073 0.06067 0.06437 0.0
C424 C 0.08406 0.0611 0.10677 0.0
C425 C 0.22112 0.0607 0.08229 0.0
C426 C 0.21338 0.06096 0.11226 0.0
C427 C 0.13675 0.0606 0.15468 0.0
C428 C 0.06827 0.06 0.16699 0.0
C429 C 0.14509 0.061 0.12468 0.0
C430 C 0.00795 0.06022 0.14904 0.0
C431 C 0.01576 0.06086 0.11913 0.0
H432 H 0.19235 0.18292 0.07509 0.0
H433 H 0.96218 0.1843 0.07524 0.0
H434 H 0.96209 0.18368 0.12806 0.0
H435 H 0.02766 0.18324 0.17389 0.0
H436 H 0.25794 0.183 0.17366 0.0
H437 H 0.25787 0.18266 0.12086 0.0
C438 C 0.1421 0.18301 0.08667 0.0
C439 C 0.07728 0.1836 0.07137 0.0
C440 C 0.14261 0.18289 0.11688 0.0
C441 C 0.01267 0.18385 0.08661 0.0
C442 C 0.01265 0.18349 0.11674 0.0
C443 C 0.07786 0.18304 0.16228 0.0
C444 C 0.14278 0.18309 0.17757 0.0
C445 C 0.07732 0.18308 0.13206 0.0
C446 C 0.20738 0.18297 0.16231 0.0
C447 C 0.20731 0.18277 0.13218 0.0
H448 H 0.74804 0.9316 0.91286 0.0
H449 H 0.97603 0.93441 0.92465 0.0
H450 H 0.99406 0.93288 0.87273 0.0
H451 H 0.94501 0.93176 0.8237 0.0
H452 H 0.7172 0.92866 0.81178 0.0
H453 H 0.69934 0.92916 0.86385 0.0
C454 C 0.80159 0.9318 0.90403 0.0
C455 C 0.86044 0.9332 0.92252 0.0
C456 C 0.81174 0.93088 0.87409 0.0
C457 C 0.92968 0.93337 0.91084 0.0
C458 C 0.94015 0.93251 0.88113 0.0
C459 C 0.89156 0.93109 0.83254 0.0
C460 C 0.83262 0.93026 0.81394 0.0
C461 C 0.88156 0.93141 0.86252 0.0
C462 C 0.76359 0.92933 0.82566 0.0
C463 C 0.75322 0.92966 0.85545 0.0
H464 H 0.79795 0.81153 0.91925 0.0
H465 H 0.02805 0.81256 0.91598 0.0
H466 H 0.02382 0.81225 0.86325 0.0
H467 H 0.95509 0.81071 0.81847 0.0
H468 H 0.72517 0.80874 0.82155 0.0
H469 H 0.72891 0.81044 0.87423 0.0
C470 C 0.84718 0.81179 0.90699 0.0
C471 C 0.91328 0.81206 0.92144 0.0
C472 C 0.84431 0.81139 0.87678 0.0
C473 C 0.97659 0.81233 0.90532 0.0
C474 C 0.97417 0.81214 0.87521 0.0
C475 C 0.90568 0.81074 0.83062 0.0
C476 C 0.83988 0.80959 0.81618 0.0
C477 C 0.90838 0.81152 0.86077 0.0
C478 C 0.77643 0.80959 0.83222 0.0
C479 C 0.77858 0.81056 0.86229 0.0
H480 H 0.20234 0.56387 0.67345 0.0
H481 H 0.97267 0.56308 0.66647 0.0
H482 H 0.98178 0.56444 0.61386 0.0
H483 H 0.05526 0.56454 0.57012 0.0
H484 H 0.28493 0.56408 0.57727 0.0
H485 H 0.2756 0.5646 0.62989 0.0
C486 C 0.15417 0.5641 0.66045 0.0
C487 C 0.08687 0.56335 0.67375 0.0
C488 C 0.15993 0.56461 0.63038 0.0
C489 C 0.02502 0.56362 0.65666 0.0
C490 C 0.03025 0.56438 0.62664 0.0
C491 C 0.10331 0.56469 0.58319 0.0
C492 C 0.17074 0.56426 0.56992 0.0
C493 C 0.09745 0.56469 0.6133 0.0
C494 C 0.2325 0.56437 0.58706 0.0
C495 C 0.22716 0.56466 0.61708 0.0
H496 H 0.24212 0.68355 0.65842 0.0
H497 H 0.01988 0.68513 0.68233 0.0
H498 H 0.98508 0.68539 0.63164 0.0
H499 H 0.01767 0.68569 0.58019 0.0
H500 H 0.23989 0.68343 0.55641 0.0
H501 H 0.27443 0.68288 0.60706 0.0
C502 C 0.18614 0.68391 0.65249 0.0
C503 C 0.13383 0.68436 0.67411 0.0
C504 C 0.16629 0.68395 0.62323 0.0
C505 C 0.06137 0.68475 0.66611 0.0
C506 C 0.04129 0.68493 0.63709 0.0
C507 C 0.07355 0.68504 0.58614 0.0
C508 C 0.12597 0.68465 0.56455 0.0
C509 C 0.09327 0.68461 0.61543 0.0
C510 C 0.19828 0.68373 0.57259 0.0
C511 C 0.21825 0.68344 0.60159 0.0
H512 H 0.79745 0.43376 0.42228 0.0
H513 H 0.02554 0.43261 0.435 0.0
H514 H 0.0442 0.4316 0.38305 0.0
H515 H 0.99613 0.43177 0.33378 0.0
H516 H 0.76806 0.43237 0.32092 0.0
H517 H 0.74915 0.43279 0.37294 0.0
C518 C 0.85113 0.43324 0.41363 0.0
C519 C 0.9099 0.43333 0.43243 0.0
C520 C 0.86163 0.43257 0.38367 0.0
C521 C 0.97926 0.43256 0.42097 0.0
C522 C 0.99011 0.432 0.39125 0.0
C523 C 0.94236 0.43193 0.3424 0.0
C524 C 0.88373 0.4321 0.32356 0.0
C525 C 0.93174 0.43211 0.37237 0.0
C526 C 0.81424 0.43223 0.335 0.0
C527 C 0.80327 0.4325 0.36476 0.0
H528 H 0.92974 0.30963 0.32611 0.0
H529 H 0.69955 0.30855 0.32802 0.0
H530 H 0.70172 0.31001 0.3807 0.0
H531 H 0.76907 0.31072 0.42594 0.0
H532 H -0.00067 0.31064 0.42426 0.0
H533 H 0.99719 0.31058 0.37144 0.0
C534 C 0.88001 0.3098 0.33805 0.0
C535 C 0.81452 0.30899 0.32329 0.0
C536 C 0.88178 0.31041 0.36823 0.0
C537 C 0.75055 0.30913 0.33897 0.0
C538 C 0.7518 0.30997 0.36903 0.0
C539 C 0.81885 0.3108 0.41403 0.0
C540 C 0.88432 0.31071 0.42889 0.0
C541 C 0.81711 0.31049 0.38385 0.0
C542 C 0.94833 0.3107 0.41322 0.0
C543 C 0.94709 0.31065 0.38309 0.0
H544 H 0.53804 0.06475 0.66567 0.0
H545 H 0.76595 0.06474 0.67912 0.0
H546 H 0.7857 0.06435 0.62716 0.0
H547 H 0.73821 0.0627 0.57788 0.0
H548 H 0.51035 0.06332 0.56442 0.0
H549 H 0.49068 0.06485 0.61628 0.0
C550 C 0.59195 0.06477 0.65718 0.0
C551 C 0.65033 0.06466 0.67613 0.0
C552 C 0.60301 0.0646 0.62727 0.0
C553 C 0.72 0.0648 0.66492 0.0
C554 C 0.73144 0.06454 0.63521 0.0
C555 C 0.68436 0.06326 0.58635 0.0
C556 C 0.62592 0.06278 0.56746 0.0
C557 C 0.67335 0.06422 0.61619 0.0
C558 C 0.55632 0.06364 0.57859 0.0
C559 C 0.54493 0.06449 0.60825 0.0
H560 H 0.7345 0.18241 0.66016 0.0
H561 H 0.50999 0.18595 0.67919 0.0
H562 H 0.48141 0.18456 0.62792 0.0
H563 H 0.52065 0.18341 0.57737 0.0
H564 H 0.74509 0.17927 0.5586 0.0
H565 H 0.77303 0.17972 0.60992 0.0
C566 C 0.67937 0.18281 0.65305 0.0
C567 C 0.62459 0.18438 0.67335 0.0
C568 C 0.6632 0.18191 0.62355 0.0
C569 C 0.55324 0.18475 0.66393 0.0
C570 C 0.53678 0.18399 0.63461 0.0
C571 C 0.57554 0.18251 0.58457 0.0
C572 C 0.63063 0.1814 0.56424 0.0
C573 C 0.59137 0.18272 0.61419 0.0
C574 C 0.70157 0.18014 0.57384 0.0
C575 C 0.71774 0.18044 0.60319 0.0
H576 H 0.45146 0.93305 0.43194 0.0
H577 H 0.22245 0.93646 0.42513 0.0
H578 H 0.23145 0.9366 0.37246 0.0
H579 H 0.30466 0.9366 0.32873 0.0
H580 H 0.53405 0.93427 0.33553 0.0
H581 H 0.52468 0.93282 0.38812 0.0
C582 C 0.40343 0.93372 0.41893 0.0
C583 C 0.33631 0.93472 0.43233 0.0
C584 C 0.40919 0.93404 0.3888 0.0
C585 C 0.27464 0.93569 0.41526 0.0
C586 C 0.27981 0.93578 0.3852 0.0
C587 C 0.35266 0.9357 0.3417 0.0
C588 C 0.42002 0.93553 0.32833 0.0
C589 C 0.34684 0.93509 0.37179 0.0
C590 C 0.48167 0.93443 0.34538 0.0
C591 C 0.4763 0.93361 0.37539 0.0
H592 H 0.47704 0.81063 0.41741 0.0
H593 H 0.25125 0.81613 0.43134 0.0
H594 H 0.23102 0.8173 0.37947 0.0
H595 H 0.27661 0.81582 0.32995 0.0
H596 H 0.50269 0.81092 0.31593 0.0
H597 H 0.52356 0.81051 0.36786 0.0
C598 C 0.42356 0.81216 0.40905 0.0
C599 C 0.36581 0.8132 0.42815 0.0
C600 C 0.41219 0.81289 0.37915 0.0
C601 C 0.29674 0.81527 0.41707 0.0
C602 C 0.28498 0.81592 0.38739 0.0
C603 C 0.3304 0.81473 0.33831 0.0
C604 C 0.38785 0.81332 0.31919 0.0
C605 C 0.34217 0.81459 0.36821 0.0
C606 C 0.45744 0.81202 0.33026 0.0
C607 C 0.4695 0.81175 0.35995 0.0
H608 H 0.71032 0.56121 0.07147 0.0
H609 H 0.48232 0.56189 0.05822 0.0
H610 H 0.4629 0.56246 0.11016 0.0
H611 H 0.51034 0.56151 0.15942 0.0
H612 H 0.73825 0.56104 0.17283 0.0
H613 H 0.75794 0.56173 0.12086 0.0
C614 C 0.65648 0.56157 0.07999 0.0
C615 C 0.59796 0.5614 0.06109 0.0
C616 C 0.64557 0.56189 0.10992 0.0
C617 C 0.52839 0.56197 0.07236 0.0
C618 C 0.51712 0.56227 0.10206 0.0
C619 C 0.56425 0.56165 0.15094 0.0
C620 C 0.62263 0.56112 0.16986 0.0
C621 C 0.57527 0.56204 0.12105 0.0
C622 C 0.6923 0.56141 0.15865 0.0
C623 C 0.70369 0.56177 0.12894 0.0
H624 H 0.71367 0.68279 0.16959 0.0
H625 H 0.48434 0.68274 0.17766 0.0
H626 H 0.47164 0.68287 0.12532 0.0
H627 H 0.52559 0.68363 0.07697 0.0
H628 H 0.75492 0.68299 0.06895 0.0
H629 H 0.76753 0.68246 0.12126 0.0
C630 C 0.66101 0.68275 0.15986 0.0
C631 C 0.60019 0.68281 0.17749 0.0
C632 C 0.65394 0.68273 0.12966 0.0
C633 C 0.53218 0.68268 0.16457 0.0
C634 C 0.52475 0.68279 0.13461 0.0
C635 C 0.57821 0.68333 0.08671 0.0
C636 C 0.63908 0.68341 0.0691 0.0
C637 C 0.58523 0.68291 0.11691 0.0
C638 C 0.70704 0.68293 0.08202 0.0
C639 C 0.71443 0.68265 0.11197 0.0
H640 H 0.48006 0.43294 0.82799 0.0
H641 H 0.25615 0.43382 0.80623 0.0
H642 H 0.22465 0.43229 0.85711 0.0
H643 H 0.26055 0.43177 0.90809 0.0
H644 H 0.48445 0.43047 0.92983 0.0
H645 H 0.51586 0.43099 0.87885 0.0
C646 C 0.42445 0.43273 0.83442 0.0
C647 C 0.37065 0.43359 0.81341 0.0
C648 C 0.40655 0.43179 0.86377 0.0
C649 C 0.29871 0.4332 0.82201 0.0
C650 C 0.28054 0.43234 0.85112 0.0
C651 C 0.31614 0.43149 0.90163 0.0
C652 C 0.36996 0.43117 0.9227 0.0
C653 C 0.33399 0.43179 0.87222 0.0
C654 C 0.44185 0.43074 0.91403 0.0
C655 C 0.45999 0.43108 0.88486 0.0
H656 H 0.27306 0.31328 0.82557 0.0
H657 H 0.49902 0.31299 0.80779 0.0
H658 H 0.52517 0.31225 0.8593 0.0
H659 H 0.48378 0.31068 0.90949 0.0
H660 H 0.25782 0.31153 0.92719 0.0
H661 H 0.23188 0.31309 0.87578 0.0
C662 C 0.32796 0.31315 0.83301 0.0
C663 C 0.38389 0.31311 0.81295 0.0
C664 C 0.34272 0.31276 0.86268 0.0
C665 C 0.45488 0.31302 0.82285 0.0
C666 C 0.46998 0.31256 0.85231 0.0
C667 C 0.42897 0.31126 0.90204 0.0
C668 C 0.3729 0.3109 0.92203 0.0
C669 C 0.41432 0.31225 0.87241 0.0
C670 C 0.30203 0.31177 0.91218 0.0
C671 C 0.28705 0.31265 0.88278 0.0
H672 H 0.22733 0.97146 0.22915 0.0
H673 H 0.42617 0.98839 0.25898 0.0
H674 H 0.36882 0.01025 0.2659 0.0
H675 H 0.26144 0.02459 0.26383 0.0
H676 H 0.06298 0.00742 0.23403 0.0
H677 H 0.12071 0.98571 0.22695 0.0
C678 C 0.25815 0.97995 0.23702 0.0
C679 C 0.33079 0.97831 0.24347 0.0
C680 C 0.22479 0.99247 0.24114 0.0
C681 C 0.37004 0.9894 0.25379 0.0
C682 C 0.3373 0.0019 0.25783 0.0
C683 C 0.23092 0.01607 0.2559 0.0
C684 C 0.1581 0.01763 0.24954 0.0
C685 C 0.26457 0.00355 0.2517 0.0
C686 C 0.1192 0.00651 0.23914 0.0
C687 C 0.15214 0.99407 0.23501 0.0
H688 H 0.84677 0.25769 0.25814 0.0
H689 H 0.03283 0.27649 0.22092 0.0
H690 H 0.1001 0.25552 0.22708 0.0
H691 H 0.10579 0.232 0.24319 0.0
H692 H 0.91955 0.21318 0.28018 0.0
H693 H 0.85231 0.23415 0.27407 0.0
C694 C 0.90203 0.25721 0.25129 0.0
C695 C 0.93484 0.26862 0.23905 0.0
C696 C 0.94021 0.24518 0.25497 0.0
C697 C 0.00641 0.26783 0.23033 0.0
C698 C 0.04485 0.25587 0.23391 0.0
C699 C 0.05051 0.23248 0.25002 0.0
C700 C 0.01765 0.22106 0.26221 0.0
C701 C 0.01228 0.24451 0.24627 0.0
C702 C 0.94599 0.22183 0.2708 0.0
C703 C 0.90759 0.2338 0.26727 0.0
H704 H 0.12335 0.23267 0.00985 0.0
H705 H 0.30425 0.21389 0.96866 0.0
H706 H 0.37237 0.23482 0.97353 0.0
H707 H 0.3793 0.25846 0.98872 0.0
H708 H 0.1984 0.27717 0.0301 0.0
H709 H 0.13124 0.25611 0.02607 0.0
C710 C 0.1777 0.23314 0.00191 0.0
C711 C 0.20871 0.22178 0.98876 0.0
C712 C 0.21637 0.24514 0.00488 0.0
C713 C 0.27926 0.22251 0.97878 0.0
C714 C 0.31813 0.23446 0.98157 0.0
C715 C 0.32524 0.25793 -0.00304 0.0
C716 C 0.29369 0.26935 0.00964 0.0
C717 C 0.28707 0.24584 0.99449 0.0
C718 C 0.22377 0.2685 0.02027 0.0
C719 C 0.18537 0.25649 0.01791 0.0
H720 H 0.9743 0.02412 0.97694 0.0
H721 H 0.18459 0.00888 -0.0034 0.0
H722 H 0.13481 0.98685 0.00793 0.0
H723 H 0.03171 0.97179 0.01229 0.0
H724 H 0.82135 0.98681 0.99222 0.0
H725 H 0.87076 0.009 0.98137 0.0
C726 C 0.00913 0.01594 0.98353 0.0
C727 C 0.08292 0.01813 0.98584 0.0
C728 C 0.98013 0.00326 0.99022 0.0
C729 C 0.12748 0.00747 0.9946 0.0
C730 C 0.09912 0.99485 0.00118 0.0
C731 C 0.9967 0.97996 0.00578 0.0
C732 C 0.92311 0.97769 0.00316 0.0
C733 C 0.02552 0.99264 -0.00081 0.0
C734 C 0.87834 0.98832 0.99444 0.0
C735 C 0.90652 0.00101 0.98813 0.0
H736 H 0.62326 0.0137 0.73523 0.0
H737 H 0.8186 0.0266 0.77623 0.0
H738 H 0.86935 0.00408 0.7695 0.0
H739 H 0.85768 0.98086 0.75214 0.0
H740 H 0.66222 0.96795 0.71126 0.0
H741 H 0.61178 0.99051 0.7177 0.0
C742 C 0.67696 0.0116 0.74275 0.0
C743 C 0.71718 0.02179 0.75628 0.0
C744 C 0.70561 -0.00131 0.73876 0.0
C745 C 0.78663 0.01892 0.76581 0.0
C746 C 0.8156 0.00606 0.76194 0.0
C747 C 0.80405 0.98298 0.74455 0.0
C748 C 0.76364 0.97276 0.73121 0.0
C749 C 0.77552 0.9959 0.74844 0.0
C750 C 0.69431 0.97565 0.72155 0.0
C751 C 0.66551 0.98853 0.72527 0.0
H752 H 0.9902 0.7196 0.76453 0.0
H753 H 0.19987 0.73503 0.74509 0.0
H754 H 0.1494 0.75721 0.73479 0.0
H755 H 0.04501 0.77217 0.73035 0.0
H756 H 0.83547 0.75649 0.74937 0.0
H757 H 0.88643 0.73452 0.76052 0.0
C758 C 0.02486 0.72785 0.75831 0.0
C759 C 0.09855 0.72569 0.75566 0.0
C760 C 0.99543 0.74053 0.75203 0.0
C761 C 0.14283 0.73645 0.74732 0.0
C762 C 0.11404 0.74913 0.74133 0.0
C763 C 0.01061 0.76391 0.73681 0.0
C764 C 0.93666 0.76595 0.73893 0.0
C765 C 0.0403 0.75126 0.74336 0.0
C766 C 0.89267 0.75519 0.7475 0.0
C767 C 0.92172 0.74261 0.75397 0.0
H768 H 0.64828 0.73376 0.0056 0.0
H769 H 0.83594 0.71686 0.96563 0.0
H770 H 0.89884 0.73826 0.97206 0.0
H771 H 0.90001 0.7617 0.98881 0.0
H772 H 0.71233 0.7786 0.02876 0.0
H773 H 0.64981 0.75714 0.02275 0.0
C774 C 0.7029 0.73476 -0.0018 0.0
C775 C 0.7374 0.72377 0.98505 0.0
C776 C 0.73868 0.74703 0.00212 0.0
C777 C 0.80823 0.72519 0.97574 0.0
C778 C 0.84419 0.73741 0.97946 0.0
C779 C 0.84551 0.76068 -0.00366 0.0
C780 C 0.8108 0.77171 0.00926 0.0
C781 C 0.80992 0.74837 0.99264 0.0
C782 C 0.74019 0.77025 0.01882 0.0
C783 C 0.70442 0.758 0.01532 0.0
H784 H 0.27897 0.52449 0.76252 0.0
H785 H 0.07105 0.51029 0.73642 0.0
H786 H 0.12058 0.4882 0.72529 0.0
H787 H 0.22284 0.47277 0.7231 0.0
H788 H 0.43072 0.48684 0.7495 0.0
H789 H 0.38157 0.50906 0.7601 0.0
C790 C 0.24458 0.51654 0.75452 0.0
C791 C 0.17153 0.51903 0.7504 0.0
C792 C 0.27344 0.50382 0.74801 0.0
C793 C 0.12757 0.50864 0.73986 0.0
C794 C 0.15581 0.49599 0.73341 0.0
C795 C 0.25739 0.48073 0.73097 0.0
C796 C 0.33021 0.47817 0.73544 0.0
C797 C 0.22868 0.49347 0.73732 0.0
C798 C 0.37434 0.48856 0.74584 0.0
C799 C 0.3463 0.50127 0.75199 0.0
H800 H 0.35523 0.76197 0.48456 0.0
H801 H 0.17474 0.77879 0.52973 0.0
H802 H 0.10768 0.75794 0.52177 0.0
H803 H 0.10143 0.73492 0.50253 0.0
H804 H 0.28249 0.71815 0.4576 0.0
H805 H 0.34836 0.73916 0.46471 0.0
C806 C 0.30123 0.76108 0.49274 0.0
C807 C 0.27001 0.77187 0.50785 0.0
C808 C 0.26317 0.74914 0.48799 0.0
C809 C 0.19994 0.7706 0.51814 0.0
C810 C 0.16162 0.7587 0.51354 0.0
C811 C 0.15516 0.73588 0.49413 0.0
C812 C 0.18711 0.72501 0.47953 0.0
C813 C 0.19281 0.74792 0.49852 0.0
C814 C 0.25676 0.72639 0.46886 0.0
C815 C 0.29447 0.73837 0.47299 0.0
H816 H 0.90701 0.48425 0.49335 0.0
H817 H 0.09259 0.46826 0.53677 0.0
H818 H 0.15509 0.48963 0.52949 0.0
H819 H 0.15703 0.51265 0.5105 0.0
H820 H 0.97179 0.52868 0.46692 0.0
H821 H 0.90887 0.50735 0.47443 0.0
C822 C 0.96107 0.48545 0.50134 0.0
C823 C 0.99519 0.47471 0.51564 0.0
C824 C 0.99665 0.4977 0.4969 0.0
C825 C 0.06523 0.47639 0.52576 0.0
C826 C 0.10096 0.48858 0.52154 0.0
C827 C 0.10291 0.51149 0.50255 0.0
C828 C 0.06906 0.52221 0.4881 0.0
C829 C 0.06723 0.49927 0.50705 0.0
C830 C -0.00104 0.52056 0.47803 0.0
C831 C 0.96301 0.50838 0.48238 0.0
H832 H 0.78525 0.52135 0.26399 0.0
H833 H 0.57518 0.50809 0.23845 0.0
H834 H 0.62 0.48534 0.2305 0.0
H835 H 0.71908 0.46915 0.23033 0.0
H836 H 0.92946 0.48239 0.25548 0.0
H837 H 0.88451 0.50512 0.26383 0.0
C838 C 0.74933 0.51345 0.25686 0.0
C839 C 0.67711 0.5164 0.25188 0.0
C840 C 0.77556 0.50037 0.25204 0.0
C841 C 0.63115 0.50609 0.24245 0.0
C842 C 0.65669 0.49306 0.23783 0.0
C843 C 0.75506 0.47703 0.23751 0.0
C844 C 0.8274 0.47409 0.2422 0.0
C845 C 0.72886 0.4901 0.2424 0.0
C846 C 0.87342 0.48439 0.25164 0.0
C847 C 0.84779 0.4974 0.2565 0.0
H848 H 0.86189 0.26079 0.48978 0.0
H849 H 0.67187 0.27687 0.5295 0.0
H850 H 0.61029 0.25545 0.52138 0.0
H851 H 0.61094 0.23228 0.5031 0.0
H852 H 0.80088 0.21623 0.46325 0.0
H853 H 0.86225 0.23768 0.47116 0.0
C854 C 0.80703 0.25961 0.49676 0.0
C855 C 0.77144 0.27037 0.51033 0.0
C856 C 0.77207 0.24735 0.49186 0.0
C857 C 0.70035 0.26872 0.51909 0.0
C858 C 0.66518 0.25649 0.5144 0.0
C859 C 0.66573 0.23347 0.49603 0.0
C860 C 0.70141 0.22269 0.48257 0.0
C861 C 0.70055 0.24577 0.50078 0.0
C862 C 0.77231 0.22439 0.47359 0.0
C863 C 0.80739 0.23663 0.47818 0.0
H864 H 0.53982 0.27569 0.72197 0.0
H865 H 0.3296 0.26204 0.74614 0.0
H866 H 0.37634 0.23965 0.75651 0.0
H867 H 0.47702 0.22394 0.75941 0.0
H868 H 0.68744 0.23744 0.73523 0.0
H869 H 0.64071 0.25984 0.7244 0.0
C870 C 0.5043 0.26778 0.7293 0.0
C871 C 0.43149 0.27052 0.73325 0.0
C872 C 0.53159 0.2549 0.73547 0.0
C873 C 0.38601 0.26019 0.74292 0.0
C874 C 0.41264 0.24738 0.74894 0.0
C875 C 0.51264 0.23181 0.75191 0.0
C876 C 0.58549 0.22906 0.74825 0.0
C877 C 0.48539 0.24464 0.7455 0.0
C878 C 0.63102 0.23932 0.7383 0.0
C879 C 0.60437 0.25213 0.73202 0.0
H880 H 0.61919 0.00996 0.50949 0.0
H881 H 0.43764 0.02739 0.46581 0.0
H882 H 0.3696 0.00669 0.4739 0.0
H883 H 0.36192 0.98382 0.49352 0.0
H884 H 0.54367 0.96627 0.53681 0.0
H885 H 0.61171 0.98701 0.52888 0.0
C886 C 0.56476 0.00923 0.50165 0.0
C887 C 0.53339 0.02018 0.48703 0.0
C888 C 0.52612 -0.00265 0.50646 0.0
C889 C 0.46292 0.01908 0.47704 0.0
C890 C 0.42403 0.00728 0.48174 0.0
C891 C 0.41635 0.98453 0.50136 0.0
C892 C 0.44775 0.97356 0.51585 0.0
C893 C 0.45507 0.99639 0.49649 0.0
C894 C 0.51837 0.9746 0.52568 0.0
C895 C 0.55724 0.98643 0.5211 0.0
H896 H 0.60202 0.73226 0.23756 0.0
H897 H 0.4129 0.71812 0.28112 0.0
H898 H 0.35579 0.74004 0.27346 0.0
H899 H 0.36045 0.76318 0.25484 0.0
H900 H 0.54964 0.77726 0.21123 0.0
H901 H 0.60593 0.75524 0.21824 0.0
C902 C 0.54834 0.73397 0.24548 0.0
C903 C 0.51179 0.72362 0.26005 0.0
C904 C 0.51589 0.74652 0.24083 0.0
C905 C 0.44216 0.72596 0.26995 0.0
C906 C 0.40951 0.73846 0.26553 0.0
C907 C 0.41389 0.76142 0.24671 0.0
C908 C 0.45091 0.77183 0.23251 0.0
C909 C 0.44594 0.7488 0.25101 0.0
C910 C 0.52006 0.7694 0.22216 0.0
C911 C 0.55229 0.75684 0.22625 0.0
H912 H 0.50863 0.4704 0.01008 0.0
H913 H 0.29509 0.48251 0.98666 0.0
H914 H 0.3373 0.50518 0.97557 0.0
H915 H 0.43524 0.52163 0.9723 0.0
H916 H 0.64867 0.50936 0.99562 0.0
H917 H 0.60626 0.48675 0.0067 0.0
C918 C 0.47132 0.47803 0.00272 0.0
C919 C 0.39894 0.4748 -0.0007 0.0
C920 C 0.49599 0.49102 0.99612 0.0
C921 C 0.35121 0.48476 0.98953 0.0
C922 C 0.37527 0.49772 0.9831 0.0
C923 C 0.47241 0.51397 0.97963 0.0
C924 C 0.54488 0.51716 0.98307 0.0
C925 C 0.44763 0.50096 0.98618 0.0
C926 C 0.59248 0.50716 0.99276 0.0
C927 C 0.56834 0.49422 -0.00082 0.0
H928 H 0.01156 0.14283 0.28121 0.0
H929 H 0.24172 0.14235 0.28203 0.0
H930 H 0.24155 0.11777 0.28287 0.0
H931 H 0.17615 0.09633 0.27902 0.0
H932 H 0.94609 0.09691 0.27605 0.0
H933 H 0.94609 0.12138 0.28069 0.0
C934 C 0.06156 0.13733 0.28198 0.0
C935 C 0.12643 0.14439 0.28134 0.0
C936 C 0.06118 0.12317 0.28189 0.0
C937 C 0.19093 0.13714 0.28228 0.0
C938 C 0.19097 0.12307 0.28274 0.0
C939 C 0.12612 0.10182 0.27983 0.0
C940 C 0.06136 0.09484 0.27699 0.0
C941 C 0.12645 0.11596 0.28189 0.0
C942 C 0.99681 0.10207 0.27797 0.0
C943 C 0.99667 0.11608 0.28059 0.0
H944 H 0.20857 0.14473 0.96077 0.0
H945 H 0.97884 0.14391 0.96642 0.0
H946 H 0.97948 0.11942 0.96205 0.0
H947 H 0.04597 0.09803 0.9608 0.0
H948 H 0.27592 0.0989 0.95716 0.0
H949 H 0.27447 0.12346 0.95621 0.0
C950 C 0.15868 0.13919 0.96071 0.0
C951 C 0.09393 0.14611 0.96416 0.0
C952 C 0.15942 0.12507 0.95865 0.0
C953 C 0.02958 0.13881 0.96402 0.0
C954 C 0.02982 0.12479 0.96152 0.0
C955 C 0.09557 0.10362 0.95932 0.0
C956 C 0.16085 0.09669 0.95924 0.0
C957 C 0.0945 0.11778 0.95943 0.0
C958 C 0.22488 0.10403 0.95747 0.0
C959 C 0.22419 0.11808 0.95697 0.0
H960 H 0.94442 0.89061 0.70786 0.0
H961 H 0.71533 0.89438 0.70286 0.0
H962 H 0.70397 0.86983 0.70033 0.0
H963 H 0.75862 0.84743 0.70428 0.0
H964 H 0.98763 0.84362 0.70956 0.0
H965 H -0.00023 0.86817 0.7069 0.0
C966 C 0.89201 0.88607 0.7059 0.0
C967 C 0.83066 0.89426 0.70592 0.0
C968 C 0.88599 0.87199 0.70466 0.0
C969 C 0.76324 0.88827 0.70299 0.0
C970 C 0.75676 0.87425 0.70166 0.0
C971 C 0.81128 0.85196 0.70454 0.0
C972 C 0.87219 0.84377 0.70749 0.0
C973 C 0.81767 0.86603 0.70322 0.0
C974 C 0.94004 0.84974 0.70739 0.0
C975 C 0.94691 0.86376 0.706 0.0
H976 H 0.77261 0.89383 0.03191 0.0
H977 H -0.00125 0.90193 0.03311 0.0
H978 H 0.02355 0.87772 0.03522 0.0
H979 H 0.98077 0.85436 0.0318 0.0
H980 H 0.75455 0.8463 0.03068 0.0
H981 H 0.72974 0.87047 0.03372 0.0
C982 C 0.82734 0.89029 0.03299 0.0
C983 C 0.88388 0.89961 0.03199 0.0
C984 C 0.84103 0.87641 0.03401 0.0
C985 C 0.95443 0.89493 0.0338 0.0
C986 C 0.96857 0.88111 0.03484 0.0
C987 C 0.92602 0.85789 0.03253 0.0
C988 C 0.86948 0.84861 0.03063 0.0
C989 C 0.9123 0.87177 0.03418 0.0
C990 C 0.79888 0.85327 0.03201 0.0
C991 C 0.78472 0.86708 0.03364 0.0
H992 H 0.21926 0.59796 0.77308 0.0
H993 H 0.99439 0.5998 0.7923 0.0
H994 H -0.00014 0.62434 0.79463 0.0
H995 H 0.06595 0.64536 0.78674 0.0
H996 H 0.28949 0.64361 0.76495 0.0
H997 H 0.28726 0.61907 0.76818 0.0
C998 C 0.17191 0.60375 0.77832 0.0
C999 C 0.10658 0.59712 0.78242 0.0
C1000 C 0.17496 0.61791 0.7788 0.0
C1001 C 0.04531 0.60471 0.78891 0.0
C1002 C 0.04829 0.61874 0.79017 0.0
C1003 C 0.11429 0.63961 0.78301 0.0
C1004 C 0.17753 0.64628 0.77539 0.0
C1005 C 0.1124 0.62547 0.78441 0.0
C1006 C 0.23985 0.6387 0.77062 0.0
C1007 C 0.23871 0.62465 0.77249 0.0
H1008 H 0.19876 0.64664 0.45222 0.0
H1009 H 0.97222 0.64508 0.46824 0.0
H1010 H 0.97476 0.62052 0.46579 0.0
H1011 H 0.04349 0.59941 0.46399 0.0
H1012 H 0.2711 0.60106 0.45088 0.0
H1013 H 0.26594 0.62556 0.44687 0.0
C1014 C 0.14987 0.64092 0.45476 0.0
C1015 C 0.08564 0.64764 0.46066 0.0
C1016 C 0.15194 0.62678 0.45397 0.0
C1017 C 0.02257 0.64011 0.46394 0.0
C1018 C 0.02391 0.62607 0.46254 0.0
C1019 C 0.0916 0.60514 0.45971 0.0
C1020 C 0.15753 0.5985 0.4579 0.0
C1021 C 0.08859 0.61927 0.45828 0.0
C1022 C 0.21972 0.60601 0.45256 0.0
C1023 C 0.21688 0.62001 0.45033 0.0
H1024 H 0.94629 0.34625 0.21962 0.0
H1025 H 0.71707 0.34727 0.2114 0.0
H1026 H 0.71922 0.37184 0.20956 0.0
H1027 H 0.78522 0.39313 0.21449 0.0
H1028 H 0.01397 0.39208 0.22491 0.0
H1029 H 0.01303 0.36756 0.22155 0.0
C1030 C 0.89704 0.35186 0.21696 0.0
C1031 C 0.83171 0.34498 0.2158 0.0
C1032 C 0.89844 0.36603 0.21661 0.0
C1033 C 0.76813 0.35236 0.21252 0.0
C1034 C 0.76922 0.36642 0.21153 0.0
C1035 C 0.83485 0.38753 0.2157 0.0
C1036 C 0.89937 0.3944 0.22018 0.0
C1037 C 0.83389 0.37338 0.21423 0.0
C1038 C 0.96337 0.38701 0.22171 0.0
C1039 C 0.96299 0.37298 0.21978 0.0
H1040 H 0.96955 0.35026 0.54067 0.0
H1041 H 0.74017 0.34779 0.53459 0.0
H1042 H 0.73181 0.37239 0.53742 0.0
H1043 H 0.79067 0.3945 0.53704 0.0
H1044 H 0.02014 0.39692 0.54295 0.0
H1045 H 0.0276 0.37232 0.54507 0.0
C1046 C 0.91764 0.3551 0.54026 0.0
C1047 C 0.85554 0.34727 0.53706 0.0
C1048 C 0.91342 0.36918 0.54171 0.0
C1049 C 0.78865 0.35362 0.53696 0.0
C1050 C 0.78393 0.36767 0.53845 0.0
C1051 C 0.8423 0.38965 0.53909 0.0
C1052 C 0.9049 0.39748 0.53947 0.0
C1053 C 0.84609 0.37554 0.54011 0.0
C1054 C 0.9713 0.39109 0.54252 0.0
C1055 C 0.97556 0.37704 0.54361 0.0
H1056 H 0.7401 0.10279 0.77916 0.0
H1057 H 0.51122 0.10091 0.78781 0.0
H1058 H 0.50465 0.12544 0.7898 0.0
H1059 H 0.56258 0.14747 0.78418 0.0
H1060 H 0.7908 0.14937 0.77283 0.0
H1061 H 0.79905 0.12492 0.77698 0.0
C1062 C 0.68906 0.10777 0.78202 0.0
C1063 C 0.6263 0.1001 0.78316 0.0
C1064 C 0.68541 0.12192 0.78234 0.0
C1065 C 0.56031 0.10664 0.78665 0.0
C1066 C 0.55643 0.12067 0.78774 0.0
C1067 C 0.61414 0.14253 0.78301 0.0
C1068 C 0.67578 0.15019 0.77795 0.0
C1069 C 0.61841 0.12842 0.78482 0.0
C1070 C 0.74234 0.14367 0.77645 0.0
C1071 C 0.7472 0.12968 0.77883 0.0
H1072 H 0.70694 0.14323 0.45274 0.0
H1073 H 0.47755 0.1444 0.45992 0.0
H1074 H 0.47219 0.11989 0.45666 0.0
H1075 H 0.53356 0.098 0.45722 0.0
H1076 H 0.76335 0.09682 0.45299 0.0
H1077 H 0.76767 0.12133 0.44921 0.0
C1078 C 0.65581 0.13811 0.4531 0.0
C1079 C 0.59291 0.14557 0.45685 0.0
C1080 C 0.65317 0.12397 0.45192 0.0
C1081 C 0.5269 0.13884 0.45735 0.0
C1082 C 0.52371 0.12482 0.45549 0.0
C1083 C 0.58437 0.10312 0.45489 0.0
C1084 C 0.64796 0.09566 0.45559 0.0
C1085 C 0.58662 0.11726 0.45358 0.0
C1086 C 0.71361 0.10239 0.45273 0.0
C1087 C 0.71619 0.1164 0.45063 0.0
H1088 H 0.49441 0.8955 0.21493 0.0
H1089 H 0.26791 0.90308 0.21874 0.0
H1090 H 0.24429 0.87891 0.21426 0.0
H1091 H 0.28865 0.85561 0.21396 0.0
H1092 H 0.5151 0.84802 0.20981 0.0
H1093 H 0.5383 0.8723 0.20934 0.0
C1094 C 0.43984 0.89186 0.21447 0.0
C1095 C 0.38292 0.90101 0.21755 0.0
C1096 C 0.42681 0.87799 0.21195 0.0
C1097 C 0.31253 0.89621 0.2165 0.0
C1098 C 0.29907 0.88241 0.21406 0.0
C1099 C 0.34307 0.85927 0.2126 0.0
C1100 C 0.40021 0.85007 0.21228 0.0
C1101 C 0.35587 0.8732 0.21248 0.0
C1102 C 0.47032 0.85492 0.21013 0.0
C1103 C 0.48357 0.86879 0.21002 0.0
H1104 H 0.44945 0.89516 0.53821 0.0
H1105 H 0.21952 0.89614 0.54198 0.0
H1106 H 0.21561 0.87161 0.54457 0.0
H1107 H 0.27672 0.84981 0.54079 0.0
H1108 H 0.50628 0.84877 0.53449 0.0
H1109 H 0.5112 0.87328 0.53816 0.0
C1110 C 0.39868 0.88999 0.54007 0.0
C1111 C 0.33496 0.89741 0.53965 0.0
C1112 C 0.39666 0.87584 0.54087 0.0
C1113 C 0.26939 0.89061 0.54198 0.0
C1114 C 0.26702 0.87659 0.54345 0.0
C1115 C 0.32779 0.85495 0.54068 0.0
C1116 C 0.39087 0.84753 0.53713 0.0
C1117 C 0.33019 0.86908 0.54213 0.0
C1118 C 0.4568 0.8543 0.53696 0.0
C1119 C 0.45973 0.86831 0.53903 0.0
H1120 H 0.69915 0.64185 0.28406 0.0
H1121 H 0.4699 0.64595 0.28407 0.0
H1122 H 0.45718 0.62141 0.28519 0.0
H1123 H 0.51124 0.59896 0.28136 0.0
H1124 H 0.74034 0.59475 0.28143 0.0
H1125 H 0.75331 0.61926 0.28547 0.0
C1126 C 0.64639 0.63737 0.28462 0.0
C1127 C 0.58546 0.64567 0.28358 0.0
C1128 C 0.63959 0.62328 0.28515 0.0
C1129 C 0.51751 0.63976 0.28473 0.0
C1130 C 0.51026 0.62574 0.28526 0.0
C1131 C 0.56405 0.6034 0.28259 0.0
C1132 C 0.62485 0.59512 0.28072 0.0
C1133 C 0.57092 0.61743 0.28473 0.0
C1134 C 0.69285 0.60094 0.28277 0.0
C1135 C 0.70021 0.61494 0.28492 0.0
H1136 H 0.53495 0.64369 0.95998 0.0
H1137 H 0.76479 0.64631 0.96022 0.0
H1138 H 0.77316 0.62179 0.95564 0.0
H1139 H 0.71512 0.59964 0.95586 0.0
H1140 H 0.48535 0.59695 0.95559 0.0
H1141 H 0.4768 0.62158 0.95547 0.0
C1142 C 0.58689 0.6389 0.95878 0.0
C1143 C 0.64925 0.64675 0.96081 0.0
C1144 C 0.59117 0.62484 0.95621 0.0
C1145 C 0.71612 0.64046 0.95882 0.0
C1146 C 0.72088 0.62645 0.95629 0.0
C1147 C 0.66312 0.60445 0.95545 0.0
C1148 C 0.60087 0.59653 0.95608 0.0
C1149 C 0.65877 0.61855 0.95561 0.0
C1150 C 0.53394 0.60285 0.95515 0.0
C1151 C 0.52909 0.61692 0.95525 0.0
H1152 H 0.29698 0.39738 0.70625 0.0
H1153 H 0.52706 0.39773 0.70818 0.0
H1154 H 0.52959 0.37319 0.70481 0.0
H1155 H 0.46631 0.3515 0.70614 0.0
H1156 H 0.2362 0.35116 0.70729 0.0
H1157 H 0.23373 0.3757 0.70435 0.0
C1158 C 0.34756 0.39208 0.70545 0.0
C1159 C 0.41162 0.39932 0.70764 0.0
C1160 C 0.34865 0.37792 0.70429 0.0
C1161 C 0.47691 0.39234 0.70676 0.0
C1162 C 0.47847 0.37831 0.70485 0.0
C1163 C 0.41575 0.35681 0.70527 0.0
C1164 C 0.35166 0.34956 0.70712 0.0
C1165 C 0.41467 0.37097 0.70435 0.0
C1166 C 0.28638 0.35655 0.70614 0.0
C1167 C 0.28484 0.37058 0.70447 0.0
H1168 H 0.44742 0.39378 0.03089 0.0
H1169 H 0.2177 0.3931 0.025 0.0
H1170 H 0.21796 0.36859 0.02912 0.0
H1171 H 0.28406 0.3472 0.02961 0.0
H1172 H 0.51406 0.34784 0.03237 0.0
H1173 H 0.51315 0.37242 0.03467 0.0
C1174 C 0.39747 0.38826 0.03092 0.0
C1175 C 0.33279 0.39521 0.02741 0.0
C1176 C 0.39806 0.37413 0.03261 0.0
C1177 C 0.26835 0.38795 0.0274 0.0
C1178 C 0.26838 0.37393 0.02977 0.0
C1179 C 0.33381 0.35274 0.03126 0.0
C1180 C 0.39893 0.34577 0.03068 0.0
C1181 C 0.33299 0.36689 0.03169 0.0
C1182 C 0.46317 0.35303 0.0326 0.0
C1183 C 0.46276 0.36708 0.03385 0.0
H1184 H 0.99439 0.04417 0.35281 0.0
H1185 H 0.8186 0.04353 0.29254 0.0
H1186 H 0.73421 0.04184 0.33251 0.0
H1187 H 0.71038 0.04306 0.38431 0.0
H1188 H 0.88578 0.04468 0.44466 0.0
H1189 H 0.97075 0.04328 0.40478 0.0
C1190 C 0.93764 0.04349 0.3484 0.0
C1191 C 0.91256 0.04415 0.31984 0.0
C1192 C 0.88956 0.04277 0.37145 0.0
C1193 C 0.83906 0.04314 0.31439 0.0
C1194 C 0.79084 0.04221 0.33721 0.0
C1195 C 0.76722 0.04291 0.38878 0.0
C1196 C 0.79193 0.04414 0.41731 0.0
C1197 C 0.81547 0.0424 0.3658 0.0
C1198 C 0.86558 0.04382 0.42283 0.0
C1199 C 0.9141 0.04307 0.40006 0.0
H1200 H 0.35729 0.19698 0.31377 0.0
H1201 H 0.17204 0.19264 0.36816 0.0
H1202 H 0.24714 0.19398 0.41111 0.0
H1203 H 0.36657 0.19424 0.43305 0.0
H1204 H 0.5518 0.19794 0.37841 0.0
H1205 H 0.4756 0.19915 0.33583 0.0
C1206 C 0.33331 0.19649 0.33503 0.0
C1207 C 0.25947 0.19457 0.3378 0.0
C1208 C 0.37685 0.19709 0.35962 0.0
C1209 C 0.22897 0.19403 0.36547 0.0
C1210 C 0.27184 0.19477 0.39005 0.0
C1211 C 0.39009 0.19551 0.41186 0.0
C1212 C 0.46458 0.19587 0.40884 0.0
C1213 C 0.34602 0.19598 0.38737 0.0
C1214 C 0.49448 0.19754 0.38127 0.0
C1215 C 0.45101 0.19821 0.35689 0.0
H1216 H 0.882 0.19974 0.81207 0.0
H1217 H 0.68612 0.19887 0.86087 0.0
H1218 H 0.75362 0.19931 0.9059 0.0
H1219 H 0.86845 0.19774 0.93133 0.0
H1220 H 0.06406 0.19799 0.88231 0.0
H1221 H 0.99657 0.20013 0.83756 0.0
C1222 C 0.85411 0.19984 0.83256 0.0
C1223 C 0.77935 0.19913 0.83315 0.0
C1224 C 0.89321 0.19988 0.85837 0.0
C1225 C 0.74382 0.19931 0.85985 0.0
C1226 C 0.78233 0.19954 0.88563 0.0
C1227 C 0.89623 0.19845 0.91088 0.0
C1228 C 0.97094 0.19756 0.91009 0.0
C1229 C 0.85707 0.19948 0.88514 0.0
C1230 C 0.0064 0.19853 0.88346 0.0
C1231 C 0.96791 0.19974 0.85784 0.0
H1232 H 0.39617 0.04707 0.92849 0.0
H1233 H 0.20786 0.04887 0.87491 0.0
H1234 H 0.28182 0.04857 0.83164 0.0
H1235 H 0.40021 0.04991 0.80925 0.0
H1236 H 0.58832 0.04867 0.86303 0.0
H1237 H 0.5142 0.04651 0.90595 0.0
C1238 C 0.37134 0.04723 0.90734 0.0
C1239 C 0.29688 0.04813 0.90487 0.0
C1240 C 0.41413 0.04724 0.88258 0.0
C1241 C 0.26526 0.04826 0.87735 0.0
C1242 C 0.30746 0.04812 0.8526 0.0
C1243 C 0.42491 0.049 0.83033 0.0
C1244 C 0.49943 0.0496 0.83302 0.0
C1245 C 0.38199 0.04794 0.85498 0.0
C1246 C 0.53089 0.04835 0.86044 0.0
C1247 C 0.48861 0.04713 0.88501 0.0
H1248 H 0.10207 0.94697 0.56464 0.0
H1249 H 0.28432 0.94648 0.62164 0.0
H1250 H 0.20552 0.94617 0.66349 0.0
H1251 H 0.08497 0.944 0.68373 0.0
H1252 H 0.90307 0.94401 0.6265 0.0
H1253 H 0.98154 0.94661 0.58499 0.0
C1254 C 0.12449 0.947 0.58623 0.0
C1255 C 0.19875 0.94663 0.59005 0.0
C1256 C 0.07895 0.9466 0.61018 0.0
C1257 C 0.22717 0.94669 0.61814 0.0
C1258 C 0.18219 0.94647 0.64209 0.0
C1259 C 0.06257 0.9447 0.6622 0.0
C1260 C 0.98852 0.94366 0.65816 0.0
C1261 C 0.10802 0.94608 0.63835 0.0
C1262 C 0.96006 0.94467 0.63016 0.0
C1263 C 0.00484 0.94616 0.60639 0.0
H1264 H 0.6195 0.79403 0.67987 0.0
H1265 H 0.80721 0.79657 0.62635 0.0
H1266 H 0.73307 0.79592 0.58305 0.0
H1267 H 0.61424 0.79676 0.56054 0.0
H1268 H 0.42681 0.79464 0.61434 0.0
H1269 H 0.50145 0.79283 0.65725 0.0
C1270 C 0.64418 0.79428 0.65872 0.0
C1271 C 0.71852 0.79549 0.65631 0.0
C1272 C 0.60126 0.79404 0.63392 0.0
C1273 C 0.74992 0.79571 0.62878 0.0
C1274 C 0.70759 0.79537 0.60399 0.0
C1275 C 0.58985 0.7957 0.58162 0.0
C1276 C 0.51524 0.79598 0.58429 0.0
C1277 C 0.6331 0.79485 0.60631 0.0
C1278 C 0.48424 0.79456 0.61173 0.0
C1279 C 0.52683 0.79355 0.63631 0.0
H1280 H 0.27972 0.80249 0.13418 0.0
H1281 H 0.11348 0.80459 0.19835 0.0
H1282 H 0.02275 0.80344 0.16043 0.0
H1283 H 0.99121 0.80317 0.109 0.0
H1284 H 0.15788 0.80165 0.04491 0.0
H1285 H 0.24819 0.80114 0.08298 0.0
C1286 C 0.22362 0.8026 0.1399 0.0
C1287 C 0.20325 0.8037 0.16899 0.0
C1288 C 0.17199 0.80208 0.11803 0.0
C1289 C 0.13044 0.80378 0.17609 0.0
C1290 C 0.07861 0.80315 0.15443 0.0
C1291 C 0.04729 0.80261 0.10336 0.0
C1292 C 0.06794 0.80251 0.0742 0.0
C1293 C 0.09884 0.80249 0.12532 0.0
C1294 C 0.14071 0.80177 0.06721 0.0
C1295 C 0.19233 0.80151 0.08895 0.0
H1296 H 0.77536 0.94653 0.10889 0.0
H1297 H 0.59931 0.94546 0.04878 0.0
H1298 H 0.5148 0.94678 0.08883 0.0
H1299 H 0.49131 0.94688 0.14081 0.0
H1300 H 0.66731 0.94722 0.20097 0.0
H1301 H 0.75185 0.94765 0.16084 0.0
C1302 C 0.71849 0.94669 0.10452 0.0
C1303 C 0.69351 0.94583 0.07594 0.0
C1304 C 0.6704 0.94728 0.1276 0.0
C1305 C 0.61977 0.94607 0.07061 0.0
C1306 C 0.5715 0.94681 0.09348 0.0
C1307 C 0.54817 0.94717 0.14517 0.0
C1308 C 0.57314 0.94695 0.1738 0.0
C1309 C 0.59626 0.94722 0.12205 0.0
C1310 C 0.64687 0.94735 0.17911 0.0
C1311 C 0.69516 0.94756 0.15619 0.0
H1312 H 0.85533 0.54849 0.80778 0.0
H1313 H 0.04238 0.54815 0.8622 0.0
H1314 H 0.96729 0.54713 0.90508 0.0
H1315 H 0.84852 0.54813 0.92719 0.0
H1316 H 0.66155 0.5488 0.87272 0.0
H1317 H 0.73657 0.54779 0.82984 0.0
C1318 C 0.8796 0.54804 0.82901 0.0
C1319 C 0.95413 0.54852 0.83184 0.0
C1320 C 0.83616 0.5476 0.85359 0.0
C1321 C 0.98499 0.54786 0.85947 0.0
C1322 C 0.94214 0.54731 0.88402 0.0
C1323 C 0.82425 0.54792 0.90594 0.0
C1324 C 0.74977 0.54867 0.9031 0.0
C1325 C 0.86767 0.54746 0.88135 0.0
C1326 C 0.71891 0.54831 0.87546 0.0
C1327 C 0.76171 0.54776 0.85091 0.0
H1328 H 0.40611 0.69543 0.81128 0.0
H1329 H 0.21474 0.69243 0.86254 0.0
H1330 H 0.28537 0.69346 0.90669 0.0
H1331 H 0.40222 0.69377 0.93087 0.0
H1332 H 0.59361 0.69649 0.87957 0.0
H1333 H 0.52242 0.69714 0.83554 0.0
C1334 C 0.37989 0.69512 0.83211 0.0
C1335 C 0.3054 0.69376 0.83358 0.0
C1336 C 0.42088 0.69563 0.85751 0.0
C1337 C 0.27212 0.69342 0.86076 0.0
C1338 C 0.31245 0.69399 0.88607 0.0
C1339 C 0.42822 0.69467 0.91007 0.0
C1340 C 0.50303 0.695 0.90852 0.0
C1341 C 0.38696 0.69489 0.88473 0.0
C1342 C 0.53602 0.69615 0.88139 0.0
C1343 C 0.49539 0.6965 0.85614 0.0
H1344 H 0.84759 0.69489 0.43283 0.0
H1345 H 0.03305 0.6974 0.37802 0.0
H1346 H 0.95716 0.69773 0.33533 0.0
H1347 H 0.83862 0.69564 0.31324 0.0
H1348 H 0.65288 0.69288 0.3678 0.0
H1349 H 0.72806 0.69439 0.41069 0.0
C1350 C 0.87123 0.69568 0.41156 0.0
C1351 C 0.9458 0.69602 0.40863 0.0
C1352 C 0.82723 0.69572 0.38695 0.0
C1353 C 0.97573 0.69704 0.3809 0.0
C1354 C 0.9324 0.69721 0.35641 0.0
C1355 C 0.8146 0.69549 0.33451 0.0
C1356 C 0.74042 0.69404 0.3373 0.0
C1357 C 0.85817 0.69628 0.35914 0.0
C1358 C 0.70999 0.69393 0.36502 0.0
C1359 C 0.75293 0.69477 0.38961 0.0
H1360 H 0.52729 0.54663 0.35463 0.0
H1361 H 0.35472 0.54889 0.29303 0.0
H1362 H 0.26794 0.54823 0.33234 0.0
H1363 H 0.24199 0.54896 0.38409 0.0
H1364 H 0.41485 0.54758 0.44568 0.0
H1365 H 0.501 0.54581 0.40632 0.0
C1366 C 0.47066 0.54684 0.34977 0.0
C1367 C 0.44733 0.54793 0.32103 0.0
C1368 C 0.42134 0.54667 0.37242 0.0
C1369 C 0.37389 0.54812 0.31502 0.0
C1370 C 0.32433 0.54777 0.33747 0.0
C1371 C 0.29847 0.54811 0.38892 0.0
C1372 C 0.32221 0.54851 0.41769 0.0
C1373 C 0.34757 0.54734 0.36624 0.0
C1374 C 0.39541 0.54735 0.42366 0.0
C1375 C 0.44463 0.54638 0.40119 0.0
H1376 H 0.12461 0.44328 0.18159 0.0
H1377 H 0.92767 0.44134 0.13339 0.0
H1378 H 0.99374 0.44235 0.08817 0.0
H1379 H 0.10785 0.44226 0.06225 0.0
H1380 H 0.30486 0.44386 0.11046 0.0
H1381 H 0.23842 0.44462 0.15561 0.0
C1382 C 0.09619 0.4432 0.16119 0.0
C1383 C 0.02151 0.44213 0.16084 0.0
C1384 C 0.13452 0.44367 0.13522 0.0
C1385 C 0.98529 0.44209 0.13425 0.0
C1386 C 0.02299 0.44265 0.10835 0.0
C1387 C 0.13615 0.44292 0.08262 0.0
C1388 C 0.21105 0.44291 0.08301 0.0
C1389 C 0.09766 0.44322 0.10857 0.0
C1390 C 0.24709 0.44379 0.10957 0.0
C1391 C 0.2092 0.4442 0.13543 0.0
H1392 H 0.7602 0.296 0.13531 0.0
H1393 H 0.58642 0.29201 0.19574 0.0
H1394 H 0.5016 0.29049 0.15584 0.0
H1395 H 0.47602 0.2926 0.10435 0.0
H1396 H 0.64868 0.29739 0.04373 0.0
H1397 H 0.73522 0.2961 0.08325 0.0
C1398 C 0.70385 0.29463 0.13973 0.0
C1399 C 0.67939 0.29427 0.1684 0.0
C1400 C 0.65536 0.29398 0.11672 0.0
C1401 C 0.60641 0.2924 0.17385 0.0
C1402 C 0.55792 0.29156 0.15106 0.0
C1403 C 0.53265 0.29321 0.09972 0.0
C1404 C 0.55604 0.29525 0.07127 0.0
C1405 C 0.58166 0.2927 0.12249 0.0
C1406 C 0.62948 0.29587 0.06551 0.0
C1407 C 0.67887 0.29519 0.08809 0.0
H1408 H 0.10764 0.29867 0.5622 0.0
H1409 H 0.92353 0.29784 0.61799 0.0
H1410 H 0.00095 0.29741 0.66034 0.0
H1411 H 0.12061 0.29928 0.68151 0.0
H1412 H 0.30451 0.3006 0.62564 0.0
H1413 H 0.22753 0.29874 0.58337 0.0
C1414 C 0.08454 0.29822 0.58362 0.0
C1415 C 0.01015 0.29841 0.58699 0.0
C1416 C 0.12927 0.29817 0.60787 0.0
C1417 C 0.9808 0.29778 0.61485 0.0
C1418 C 0.02497 0.29757 0.63909 0.0
C1419 C 0.14381 0.29902 0.6601 0.0
C1420 C 0.21793 0.30022 0.65667 0.0
C1421 C 0.09923 0.29808 0.63586 0.0
C1422 C 0.24743 0.29978 0.62882 0.0
C1423 C 0.2035 0.29873 0.60463 0.0
H1424 H 0.64377 0.44811 0.68315 0.0
H1425 H 0.46005 0.44748 0.62694 0.0
H1426 H 0.53762 0.44808 0.58474 0.0
H1427 H 0.65788 0.44696 0.56379 0.0
H1428 H 0.84137 0.44723 0.62016 0.0
H1429 H 0.76377 0.44871 0.66218 0.0
C1430 C 0.62075 0.44827 0.66167 0.0
C1431 C 0.54642 0.44764 0.65818 0.0
C1432 C 0.66564 0.44847 0.63748 0.0
C1433 C 0.51725 0.44789 0.63021 0.0
C1434 C 0.56154 0.4482 0.60605 0.0
C1435 C 0.6808 0.4475 0.58525 0.0
C1436 C 0.75513 0.44687 0.58886 0.0
C1437 C 0.63584 0.44821 0.60941 0.0
C1438 C 0.78419 0.44762 0.6168 0.0
C1439 C 0.7399 0.44844 0.64088 0.0
loop_
_geom_bond_atom_site_label_1
_geom_bond_atom_site_label_2
_geom_bond_distance
_geom_bond_site_symmetry_2
_ccdc_geom_bond_type
In0 O1 2.294 1_455 S
In0 O2 2.326 . S
In0 O6 2.266 . S
In0 O7 2.326 . S
In0 O8 2.266 . S
In0 O9 2.326 . S
In0 O11 2.294 . S
In0 O12 2.326 . S
O1 In0 2.294 1_655 S
O1 C10 1.240 1_655 S
O2 In0 2.326 . S
O2 C10 1.252 . S
C3 O6 1.252 . S
C3 O7 1.260 . S
C4 O11 1.240 . S
C4 O12 1.252 . S
C5 O8 1.252 . S
C5 O9 1.260 . S
O6 In0 2.266 . S
O6 C3 1.252 . S
O7 In0 2.326 . S
O7 C3 1.260 . S
O8 In0 2.266 . S
O8 C5 1.252 . S
O9 In0 2.326 . S
O9 C5 1.260 . S
C10 O1 1.240 1_455 S
C10 O2 1.252 . S
O11 In0 2.294 . S
O11 C4 1.240 . S
O12 In0 2.326 . S
O12 C4 1.252 . S
In13 O14 2.294 . S
In13 O15 2.326 . S
In13 O19 2.266 . S
In13 O20 2.326 . S
In13 O21 2.266 . S
In13 O22 2.326 . S
In13 O24 2.294 . S
In13 O25 2.326 . S
O14 In13 2.294 . S
O14 C23 1.240 . S
O15 In13 2.326 . S
O15 C23 1.252 . S
C16 O19 1.252 . S
C16 O20 1.260 . S
C17 O24 1.240 . S
C17 O25 1.252 . S
C18 O21 1.252 . S
C18 O22 1.260 . S
O19 In13 2.266 . S
O19 C16 1.252 . S
O20 In13 2.326 . S
O20 C16 1.260 . S
O21 In13 2.266 . S
O21 C18 1.252 . S
O22 In13 2.326 . S
O22 C18 1.260 . S
C23 O14 1.240 . S
C23 O15 1.252 . S
O24 In13 2.294 . S
O24 C17 1.240 . S
O25 In13 2.326 . S
O25 C17 1.252 . S
In26 O27 2.294 . S
In26 O28 2.326 . S
In26 O32 2.266 . S
In26 O33 2.326 . S
In26 O34 2.266 1_556 S
In26 O35 2.326 1_556 S
In26 O37 2.294 1_455 S
In26 O38 2.326 . S
O27 In26 2.294 . S
O27 C36 1.240 . S
O28 In26 2.326 . S
O28 C36 1.252 . S
C29 O32 1.252 . S
C29 O33 1.260 . S
C30 O37 1.240 1_455 S
C30 O38 1.252 . S
C31 O34 1.252 . S
C31 O35 1.260 . S
O32 In26 2.266 . S
O32 C29 1.252 . S
O33 In26 2.326 . S
O33 C29 1.260 . S
O34 In26 2.266 1_554 S
O34 C31 1.252 . S
O35 In26 2.326 1_554 S
O35 C31 1.260 . S
C36 O27 1.240 . S
C36 O28 1.252 . S
O37 In26 2.294 1_655 S
O37 C30 1.240 1_655 S
O38 In26 2.326 . S
O38 C30 1.252 . S
In39 O40 2.294 . S
In39 O41 2.326 . S
In39 O45 2.266 1_556 S
In39 O46 2.326 1_556 S
In39 O47 2.266 . S
In39 O48 2.326 . S
In39 O50 2.294 . S
In39 O51 2.326 . S
O40 In39 2.294 . S
O40 C49 1.240 . S
O41 In39 2.326 . S
O41 C49 1.252 . S
C42 O45 1.252 . S
C42 O46 1.260 . S
C43 O50 1.240 . S
C43 O51 1.252 . S
C44 O47 1.252 . S
C44 O48 1.260 . S
O45 In39 2.266 1_554 S
O45 C42 1.252 . S
O46 In39 2.326 1_554 S
O46 C42 1.260 . S
O47 In39 2.266 . S
O47 C44 1.252 . S
O48 In39 2.326 . S
O48 C44 1.260 . S
C49 O40 1.240 . S
C49 O41 1.252 . S
O50 In39 2.294 . S
O50 C43 1.240 . S
O51 In39 2.326 . S
O51 C43 1.252 . S
In52 O53 2.294 . S
In52 O54 2.326 . S
In52 O58 2.266 . S
In52 O59 2.326 . S
In52 O60 2.266 . S
In52 O61 2.326 . S
In52 O63 2.294 1_655 S
In52 O64 2.326 . S
O53 In52 2.294 . S
O53 C62 1.240 . S
O54 In52 2.326 . S
O54 C62 1.252 . S
C55 O58 1.252 . S
C55 O59 1.260 . S
C56 O63 1.240 1_655 S
C56 O64 1.252 . S
C57 O60 1.252 . S
C57 O61 1.260 . S
O58 In52 2.266 . S
O58 C55 1.252 . S
O59 In52 2.326 . S
O59 C55 1.260 . S
O60 In52 2.266 . S
O60 C57 1.252 . S
O61 In52 2.326 . S
O61 C57 1.260 . S
C62 O53 1.240 . S
C62 O54 1.252 . S
O63 In52 2.294 1_455 S
O63 C56 1.240 1_455 S
O64 In52 2.326 . S
O64 C56 1.252 . S
In65 O66 2.294 . S
In65 O67 2.326 . S
In65 O71 2.266 . S
In65 O72 2.326 . S
In65 O73 2.266 . S
In65 O74 2.326 . S
In65 O76 2.294 . S
In65 O77 2.326 . S
O66 In65 2.294 . S
O66 C75 1.240 . S
O67 In65 2.326 . S
O67 C75 1.252 . S
C68 O71 1.252 . S
C68 O72 1.260 . S
C69 O76 1.240 . S
C69 O77 1.252 . S
C70 O73 1.252 . S
C70 O74 1.260 . S
O71 In65 2.266 . S
O71 C68 1.252 . S
O72 In65 2.326 . S
O72 C68 1.260 . S
O73 In65 2.266 . S
O73 C70 1.252 . S
O74 In65 2.326 . S
O74 C70 1.260 . S
C75 O66 1.240 . S
C75 O67 1.252 . S
O76 In65 2.294 . S
O76 C69 1.240 . S
O77 In65 2.326 . S
O77 C69 1.252 . S
In78 O79 2.294 1_655 S
In78 O80 2.326 . S
In78 O84 2.266 1_554 S
In78 O85 2.326 1_554 S
In78 O86 2.266 . S
In78 O87 2.326 . S
In78 O89 2.294 . S
In78 O90 2.326 . S
O79 In78 2.294 1_455 S
O79 C88 1.240 1_455 S
O80 In78 2.326 . S
O80 C88 1.252 . S
C81 O84 1.252 . S
C81 O85 1.260 . S
C82 O89 1.240 . S
C82 O90 1.252 . S
C83 O86 1.252 . S
C83 O87 1.260 . S
O84 In78 2.266 1_556 S
O84 C81 1.252 . S
O85 In78 2.326 1_556 S
O85 C81 1.260 . S
O86 In78 2.266 . S
O86 C83 1.252 . S
O87 In78 2.326 . S
O87 C83 1.260 . S
C88 O79 1.240 1_655 S
C88 O80 1.252 . S
O89 In78 2.294 . S
O89 C82 1.240 . S
O90 In78 2.326 . S
O90 C82 1.252 . S
In91 O92 2.294 . S
In91 O93 2.326 . S
In91 O97 2.266 1_554 S
In91 O98 2.326 1_554 S
In91 O99 2.266 . S
In91 O100 2.326 . S
In91 O102 2.294 . S
In91 O103 2.326 . S
O92 In91 2.294 . S
O92 C101 1.240 . S
O93 In91 2.326 . S
O93 C101 1.252 . S
C94 O97 1.252 . S
C94 O98 1.260 . S
C95 O102 1.240 . S
C95 O103 1.252 . S
C96 O99 1.252 . S
C96 O100 1.260 . S
O97 In91 2.266 1_556 S
O97 C94 1.252 . S
O98 In91 2.326 1_556 S
O98 C94 1.260 . S
O99 In91 2.266 . S
O99 C96 1.252 . S
O100 In91 2.326 . S
O100 C96 1.260 . S
C101 O92 1.240 . S
C101 O93 1.252 . S
O102 In91 2.294 . S
O102 C95 1.240 . S
O103 In91 2.326 . S
O103 C95 1.252 . S
In104 O105 2.294 . S
In104 O106 2.326 . S
In104 O110 2.266 . S
In104 O111 2.326 . S
In104 O112 2.266 . S
In104 O113 2.326 . S
In104 O115 2.294 1_455 S
In104 O116 2.326 . S
O105 In104 2.294 . S
O105 C114 1.240 . S
O106 In104 2.326 . S
O106 C114 1.252 . S
C107 O110 1.252 . S
C107 O111 1.260 . S
C108 O115 1.240 1_455 S
C108 O116 1.252 . S
C109 O112 1.252 . S
C109 O113 1.260 . S
O110 In104 2.266 . S
O110 C107 1.252 . S
O111 In104 2.326 . S
O111 C107 1.260 . S
O112 In104 2.266 . S
O112 C109 1.252 . S
O113 In104 2.326 . S
O113 C109 1.260 . S
C114 O105 1.240 . S
C114 O106 1.252 . S
O115 In104 2.294 1_655 S
O115 C108 1.240 1_655 S
O116 In104 2.326 . S
O116 C108 1.252 . S
In117 O118 2.294 . S
In117 O119 2.326 . S
In117 O123 2.266 . S
In117 O124 2.326 . S
In117 O125 2.266 . S
In117 O126 2.326 . S
In117 O128 2.294 . S
In117 O129 2.326 . S
O118 In117 2.294 . S
O118 C127 1.240 . S
O119 In117 2.326 . S
O119 C127 1.252 . S
C120 O123 1.252 . S
C120 O124 1.260 . S
C121 O128 1.240 . S
C121 O129 1.252 . S
C122 O125 1.252 . S
C122 O126 1.260 . S
O123 In117 2.266 . S
O123 C120 1.252 . S
O124 In117 2.326 . S
O124 C120 1.260 . S
O125 In117 2.266 . S
O125 C122 1.252 . S
O126 In117 2.326 . S
O126 C122 1.260 . S
C127 O118 1.240 . S
C127 O119 1.252 . S
O128 In117 2.294 . S
O128 C121 1.240 . S
O129 In117 2.326 . S
O129 C121 1.252 . S
In130 O131 2.294 . S
In130 O132 2.326 . S
In130 O136 2.266 . S
In130 O137 2.326 . S
In130 O138 2.266 . S
In130 O139 2.326 . S
In130 O141 2.294 1_455 S
In130 O142 2.326 . S
O131 In130 2.294 . S
O131 C140 1.240 . S
O132 In130 2.326 . S
O132 C140 1.252 . S
C133 O136 1.252 . S
C133 O137 1.260 . S
C134 O141 1.240 1_455 S
C134 O142 1.252 . S
C135 O138 1.252 . S
C135 O139 1.260 . S
O136 In130 2.266 . S
O136 C133 1.252 . S
O137 In130 2.326 . S
O137 C133 1.260 . S
O138 In130 2.266 . S
O138 C135 1.252 . S
O139 In130 2.326 . S
O139 C135 1.260 . S
C140 O131 1.240 . S
C140 O132 1.252 . S
O141 In130 2.294 1_655 S
O141 C134 1.240 1_655 S
O142 In130 2.326 . S
O142 C134 1.252 . S
In143 O144 2.294 . S
In143 O145 2.326 . S
In143 O149 2.266 . S
In143 O150 2.326 . S
In143 O151 2.266 . S
In143 O152 2.326 . S
In143 O154 2.294 . S
In143 O155 2.326 . S
O144 In143 2.294 . S
O144 C153 1.240 . S
O145 In143 2.326 . S
O145 C153 1.252 . S
C146 O149 1.252 . S
C146 O150 1.260 . S
C147 O154 1.240 . S
C147 O155 1.252 . S
C148 O151 1.252 . S
C148 O152 1.260 . S
O149 In143 2.266 . S
O149 C146 1.252 . S
O150 In143 2.326 . S
O150 C146 1.260 . S
O151 In143 2.266 . S
O151 C148 1.252 . S
O152 In143 2.326 . S
O152 C148 1.260 . S
C153 O144 1.240 . S
C153 O145 1.252 . S
O154 In143 2.294 . S
O154 C147 1.240 . S
O155 In143 2.326 . S
O155 C147 1.252 . S
In156 O157 2.294 . S
In156 O158 2.326 . S
In156 O162 2.266 . S
In156 O163 2.326 . S
In156 O164 2.266 . S
In156 O165 2.326 . S
In156 O167 2.294 1_655 S
In156 O168 2.326 . S
O157 In156 2.294 . S
O157 C166 1.240 . S
O158 In156 2.326 . S
O158 C166 1.252 . S
C159 O162 1.252 . S
C159 O163 1.260 . S
C160 O167 1.240 1_655 S
C160 O168 1.252 . S
C161 O164 1.252 . S
C161 O165 1.260 . S
O162 In156 2.266 . S
O162 C159 1.252 . S
O163 In156 2.326 . S
O163 C159 1.260 . S
O164 In156 2.266 . S
O164 C161 1.252 . S
O165 In156 2.326 . S
O165 C161 1.260 . S
C166 O157 1.240 . S
C166 O158 1.252 . S
O167 In156 2.294 1_455 S
O167 C160 1.240 1_455 S
O168 In156 2.326 . S
O168 C160 1.252 . S
In169 O170 2.294 . S
In169 O171 2.326 . S
In169 O175 2.266 . S
In169 O176 2.326 . S
In169 O177 2.266 . S
In169 O178 2.326 . S
In169 O180 2.294 . S
In169 O181 2.326 . S
O170 In169 2.294 . S
O170 C179 1.240 . S
O171 In169 2.326 . S
O171 C179 1.252 . S
C172 O175 1.252 . S
C172 O176 1.260 . S
C173 O180 1.240 . S
C173 O181 1.252 . S
C174 O177 1.252 . S
C174 O178 1.260 . S
O175 In169 2.266 . S
O175 C172 1.252 . S
O176 In169 2.326 . S
O176 C172 1.260 . S
O177 In169 2.266 . S
O177 C174 1.252 . S
O178 In169 2.326 . S
O178 C174 1.260 . S
C179 O170 1.240 . S
C179 O171 1.252 . S
O180 In169 2.294 . S
O180 C173 1.240 . S
O181 In169 2.326 . S
O181 C173 1.252 . S
In182 O183 2.294 1_655 S
In182 O184 2.326 . S
In182 O188 2.266 . S
In182 O189 2.326 . S
In182 O190 2.266 . S
In182 O191 2.326 . S
In182 O193 2.294 . S
In182 O194 2.326 . S
O183 In182 2.294 1_455 S
O183 C192 1.240 1_455 S
O184 In182 2.326 . S
O184 C192 1.252 . S
C185 O188 1.252 . S
C185 O189 1.260 . S
C186 O193 1.240 . S
C186 O194 1.252 . S
C187 O190 1.252 . S
C187 O191 1.260 . S
O188 In182 2.266 . S
O188 C185 1.252 . S
O189 In182 2.326 . S
O189 C185 1.260 . S
O190 In182 2.266 . S
O190 C187 1.252 . S
O191 In182 2.326 . S
O191 C187 1.260 . S
C192 O183 1.240 1_655 S
C192 O184 1.252 . S
O193 In182 2.294 . S
O193 C186 1.240 . S
O194 In182 2.326 . S
O194 C186 1.252 . S
In195 O196 2.294 . S
In195 O197 2.326 . S
In195 O201 2.266 . S
In195 O202 2.326 . S
In195 O203 2.266 . S
In195 O204 2.326 . S
In195 O206 2.294 . S
In195 O207 2.326 . S
O196 In195 2.294 . S
O196 C205 1.240 . S
O197 In195 2.326 . S
O197 C205 1.252 . S
C198 O201 1.252 . S
C198 O202 1.260 . S
C199 O206 1.240 . S
C199 O207 1.252 . S
C200 O203 1.252 . S
C200 O204 1.260 . S
O201 In195 2.266 . S
O201 C198 1.252 . S
O202 In195 2.326 . S
O202 C198 1.260 . S
O203 In195 2.266 . S
O203 C200 1.252 . S
O204 In195 2.326 . S
O204 C200 1.260 . S
C205 O196 1.240 . S
C205 O197 1.252 . S
O206 In195 2.294 . S
O206 C199 1.240 . S
O207 In195 2.326 . S
O207 C199 1.252 . S
In208 O209 2.294 . S
In208 O210 2.326 . S
In208 O214 2.266 . S
In208 O215 2.326 . S
In208 O216 2.266 . S
In208 O217 2.326 . S
In208 O219 2.294 . S
In208 O220 2.326 . S
O209 In208 2.294 . S
O209 C218 1.240 . S
O210 In208 2.326 . S
O210 C218 1.252 . S
C211 O214 1.252 . S
C211 O215 1.260 . S
C212 O219 1.240 . S
C212 O220 1.252 . S
C213 O216 1.252 . S
C213 O217 1.260 . S
O214 In208 2.266 . S
O214 C211 1.252 . S
O215 In208 2.326 . S
O215 C211 1.260 . S
O216 In208 2.266 . S
O216 C213 1.252 . S
O217 In208 2.326 . S
O217 C213 1.260 . S
C218 O209 1.240 . S
C218 O210 1.252 . S
O219 In208 2.294 . S
O219 C212 1.240 . S
O220 In208 2.326 . S
O220 C212 1.252 . S
In221 O222 2.294 . S
In221 O223 2.326 . S
In221 O227 2.266 . S
In221 O228 2.326 . S
In221 O229 2.266 . S
In221 O230 2.326 . S
In221 O232 2.294 . S
In221 O233 2.326 . S
O222 In221 2.294 . S
O222 C231 1.240 . S
O223 In221 2.326 . S
O223 C231 1.252 . S
C224 O227 1.252 . S
C224 O228 1.260 . S
C225 O232 1.240 . S
C225 O233 1.252 . S
C226 O229 1.252 . S
C226 O230 1.260 . S
O227 In221 2.266 . S
O227 C224 1.252 . S
O228 In221 2.326 . S
O228 C224 1.260 . S
O229 In221 2.266 . S
O229 C226 1.252 . S
O230 In221 2.326 . S
O230 C226 1.260 . S
C231 O222 1.240 . S
C231 O223 1.252 . S
O232 In221 2.294 . S
O232 C225 1.240 . S
O233 In221 2.326 . S
O233 C225 1.252 . S
In234 O235 2.294 . S
In234 O236 2.326 . S
In234 O240 2.266 . S
In234 O241 2.326 . S
In234 O242 2.266 . S
In234 O243 2.326 . S
In234 O245 2.294 . S
In234 O246 2.326 . S
O235 In234 2.294 . S
O235 C244 1.240 . S
O236 In234 2.326 . S
O236 C244 1.252 . S
C237 O240 1.252 . S
C237 O241 1.260 . S
C238 O245 1.240 . S
C238 O246 1.252 . S
C239 O242 1.252 . S
C239 O243 1.260 . S
O240 In234 2.266 . S
O240 C237 1.252 . S
O241 In234 2.326 . S
O241 C237 1.260 . S
O242 In234 2.266 . S
O242 C239 1.252 . S
O243 In234 2.326 . S
O243 C239 1.260 . S
C244 O235 1.240 . S
C244 O236 1.252 . S
O245 In234 2.294 . S
O245 C238 1.240 . S
O246 In234 2.326 . S
O246 C238 1.252 . S
In247 O248 2.294 . S
In247 O249 2.326 . S
In247 O253 2.266 . S
In247 O254 2.326 . S
In247 O255 2.266 . S
In247 O256 2.326 . S
In247 O258 2.294 . S
In247 O259 2.326 . S
O248 In247 2.294 . S
O248 C257 1.240 . S
O249 In247 2.326 . S
O249 C257 1.252 . S
C250 O253 1.252 . S
C250 O254 1.260 . S
C251 O258 1.240 . S
C251 O259 1.252 . S
C252 O255 1.252 . S
C252 O256 1.260 . S
O253 In247 2.266 . S
O253 C250 1.252 . S
O254 In247 2.326 . S
O254 C250 1.260 . S
O255 In247 2.266 . S
O255 C252 1.252 . S
O256 In247 2.326 . S
O256 C252 1.260 . S
C257 O248 1.240 . S
C257 O249 1.252 . S
O258 In247 2.294 . S
O258 C251 1.240 . S
O259 In247 2.326 . S
O259 C251 1.252 . S
In260 O261 2.294 . S
In260 O262 2.326 . S
In260 O266 2.266 . S
In260 O267 2.326 . S
In260 O268 2.266 . S
In260 O269 2.326 . S
In260 O271 2.294 . S
In260 O272 2.326 . S
O261 In260 2.294 . S
O261 C270 1.240 . S
O262 In260 2.326 . S
O262 C270 1.252 . S
C263 O266 1.252 . S
C263 O267 1.260 . S
C264 O271 1.240 . S
C264 O272 1.252 . S
C265 O268 1.252 . S
C265 O269 1.260 . S
O266 In260 2.266 . S
O266 C263 1.252 . S
O267 In260 2.326 . S
O267 C263 1.260 . S
O268 In260 2.266 . S
O268 C265 1.252 . S
O269 In260 2.326 . S
O269 C265 1.260 . S
C270 O261 1.240 . S
C270 O262 1.252 . S
O271 In260 2.294 . S
O271 C264 1.240 . S
O272 In260 2.326 . S
O272 C264 1.252 . S
In273 O274 2.294 . S
In273 O275 2.326 . S
In273 O279 2.266 . S
In273 O280 2.326 . S
In273 O281 2.266 . S
In273 O282 2.326 . S
In273 O284 2.294 . S
In273 O285 2.326 . S
O274 In273 2.294 . S
O274 C283 1.240 . S
O275 In273 2.326 . S
O275 C283 1.252 . S
C276 O279 1.252 . S
C276 O280 1.260 . S
C277 O284 1.240 . S
C277 O285 1.252 . S
C278 O281 1.252 . S
C278 O282 1.260 . S
O279 In273 2.266 . S
O279 C276 1.252 . S
O280 In273 2.326 . S
O280 C276 1.260 . S
O281 In273 2.266 . S
O281 C278 1.252 . S
O282 In273 2.326 . S
O282 C278 1.260 . S
C283 O274 1.240 . S
C283 O275 1.252 . S
O284 In273 2.294 . S
O284 C277 1.240 . S
O285 In273 2.326 . S
O285 C277 1.252 . S
In286 O287 2.294 . S
In286 O288 2.326 . S
In286 O292 2.266 . S
In286 O293 2.326 . S
In286 O294 2.266 . S
In286 O295 2.326 . S
In286 O297 2.294 . S
In286 O298 2.326 . S
O287 In286 2.294 . S
O287 C296 1.240 . S
O288 In286 2.326 . S
O288 C296 1.252 . S
C289 O292 1.252 . S
C289 O293 1.260 . S
C290 O297 1.240 . S
C290 O298 1.252 . S
C291 O294 1.252 . S
C291 O295 1.260 . S
O292 In286 2.266 . S
O292 C289 1.252 . S
O293 In286 2.326 . S
O293 C289 1.260 . S
O294 In286 2.266 . S
O294 C291 1.252 . S
O295 In286 2.326 . S
O295 C291 1.260 . S
C296 O287 1.240 . S
C296 O288 1.252 . S
O297 In286 2.294 . S
O297 C290 1.240 . S
O298 In286 2.326 . S
O298 C290 1.252 . S
In299 O300 2.294 . S
In299 O301 2.326 . S
In299 O305 2.266 . S
In299 O306 2.326 . S
In299 O307 2.266 . S
In299 O308 2.326 . S
In299 O310 2.294 . S
In299 O311 2.326 . S
O300 In299 2.294 . S
O300 C309 1.240 . S
O301 In299 2.326 . S
O301 C309 1.252 . S
C302 O305 1.252 . S
C302 O306 1.260 . S
C303 O310 1.240 . S
C303 O311 1.252 . S
C304 O307 1.252 . S
C304 O308 1.260 . S
O305 In299 2.266 . S
O305 C302 1.252 . S
O306 In299 2.326 . S
O306 C302 1.260 . S
O307 In299 2.266 . S
O307 C304 1.252 . S
O308 In299 2.326 . S
O308 C304 1.260 . S
C309 O300 1.240 . S
C309 O301 1.252 . S
O310 In299 2.294 . S
O310 C303 1.240 . S
O311 In299 2.326 . S
O311 C303 1.252 . S
In312 O313 2.294 . S
In312 O314 2.326 . S
In312 O318 2.266 . S
In312 O319 2.326 . S
In312 O320 2.266 . S
In312 O321 2.326 . S
In312 O323 2.294 . S
In312 O324 2.326 . S
O313 In312 2.294 . S
O313 C322 1.240 . S
O314 In312 2.326 . S
O314 C322 1.252 . S
C315 O318 1.252 . S
C315 O319 1.260 . S
C316 O323 1.240 . S
C316 O324 1.252 . S
C317 O320 1.252 . S
C317 O321 1.260 . S
O318 In312 2.266 . S
O318 C315 1.252 . S
O319 In312 2.326 . S
O319 C315 1.260 . S
O320 In312 2.266 . S
O320 C317 1.252 . S
O321 In312 2.326 . S
O321 C317 1.260 . S
C322 O313 1.240 . S
C322 O314 1.252 . S
O323 In312 2.294 . S
O323 C316 1.240 . S
O324 In312 2.326 . S
O324 C316 1.252 . S
In325 O326 2.294 . S
In325 O327 2.326 . S
In325 O331 2.266 . S
In325 O332 2.326 . S
In325 O333 2.266 . S
In325 O334 2.326 . S
In325 O336 2.294 . S
In325 O337 2.326 . S
O326 In325 2.294 . S
O326 C335 1.240 . S
O327 In325 2.326 . S
O327 C335 1.252 . S
C328 O331 1.252 . S
C328 O332 1.260 . S
C329 O336 1.240 . S
C329 O337 1.252 . S
C330 O333 1.252 . S
C330 O334 1.260 . S
O331 In325 2.266 . S
O331 C328 1.252 . S
O332 In325 2.326 . S
O332 C328 1.260 . S
O333 In325 2.266 . S
O333 C330 1.252 . S
O334 In325 2.326 . S
O334 C330 1.260 . S
C335 O326 1.240 . S
C335 O327 1.252 . S
O336 In325 2.294 . S
O336 C329 1.240 . S
O337 In325 2.326 . S
O337 C329 1.252 . S
In338 O339 2.294 . S
In338 O340 2.326 . S
In338 O344 2.266 1_556 S
In338 O345 2.326 1_556 S
In338 O346 2.266 . S
In338 O347 2.326 . S
In338 O349 2.294 . S
In338 O350 2.326 . S
O339 In338 2.294 . S
O339 C348 1.240 . S
O340 In338 2.326 . S
O340 C348 1.252 . S
C341 O344 1.252 . S
C341 O345 1.260 . S
C342 O349 1.240 . S
C342 O350 1.252 . S
C343 O346 1.252 . S
C343 O347 1.260 . S
O344 In338 2.266 1_554 S
O344 C341 1.252 . S
O345 In338 2.326 1_554 S
O345 C341 1.260 . S
O346 In338 2.266 . S
O346 C343 1.252 . S
O347 In338 2.326 . S
O347 C343 1.260 . S
C348 O339 1.240 . S
C348 O340 1.252 . S
O349 In338 2.294 . S
O349 C342 1.240 . S
O350 In338 2.326 . S
O350 C342 1.252 . S
In351 O352 2.294 . S
In351 O353 2.326 . S
In351 O357 2.266 1_556 S
In351 O358 2.326 1_556 S
In351 O359 2.266 . S
In351 O360 2.326 . S
In351 O362 2.294 . S
In351 O363 2.326 . S
O352 In351 2.294 . S
O352 C361 1.240 . S
O353 In351 2.326 . S
O353 C361 1.252 . S
C354 O357 1.252 . S
C354 O358 1.260 . S
C355 O362 1.240 . S
C355 O363 1.252 . S
C356 O359 1.252 . S
C356 O360 1.260 . S
O357 In351 2.266 1_554 S
O357 C354 1.252 . S
O358 In351 2.326 1_554 S
O358 C354 1.260 . S
O359 In351 2.266 . S
O359 C356 1.252 . S
O360 In351 2.326 . S
O360 C356 1.260 . S
C361 O352 1.240 . S
C361 O353 1.252 . S
O362 In351 2.294 . S
O362 C355 1.240 . S
O363 In351 2.326 . S
O363 C355 1.252 . S
In364 O365 2.294 . S
In364 O366 2.326 . S
In364 O370 2.266 . S
In364 O371 2.326 . S
In364 O372 2.266 . S
In364 O373 2.326 . S
In364 O375 2.294 . S
In364 O376 2.326 . S
O365 In364 2.294 . S
O365 C374 1.240 . S
O366 In364 2.326 . S
O366 C374 1.252 . S
C367 O370 1.252 . S
C367 O371 1.260 . S
C368 O375 1.240 . S
C368 O376 1.252 . S
C369 O372 1.252 . S
C369 O373 1.260 . S
O370 In364 2.266 . S
O370 C367 1.252 . S
O371 In364 2.326 . S
O371 C367 1.260 . S
O372 In364 2.266 . S
O372 C369 1.252 . S
O373 In364 2.326 . S
O373 C369 1.260 . S
C374 O365 1.240 . S
C374 O366 1.252 . S
O375 In364 2.294 . S
O375 C368 1.240 . S
O376 In364 2.326 . S
O376 C368 1.252 . S
In377 O378 2.294 . S
In377 O379 2.326 . S
In377 O383 2.266 . S
In377 O384 2.326 . S
In377 O385 2.266 . S
In377 O386 2.326 . S
In377 O388 2.294 . S
In377 O389 2.326 . S
O378 In377 2.294 . S
O378 C387 1.240 . S
O379 In377 2.326 . S
O379 C387 1.252 . S
C380 O383 1.252 . S
C380 O384 1.260 . S
C381 O388 1.240 . S
C381 O389 1.252 . S
C382 O385 1.252 . S
C382 O386 1.260 . S
O383 In377 2.266 . S
O383 C380 1.252 . S
O384 In377 2.326 . S
O384 C380 1.260 . S
O385 In377 2.266 . S
O385 C382 1.252 . S
O386 In377 2.326 . S
O386 C382 1.260 . S
C387 O378 1.240 . S
C387 O379 1.252 . S
O388 In377 2.294 . S
O388 C381 1.240 . S
O389 In377 2.326 . S
O389 C381 1.252 . S
In390 O391 2.294 . S
In390 O392 2.326 . S
In390 O396 2.266 1_554 S
In390 O397 2.326 1_554 S
In390 O398 2.266 . S
In390 O399 2.326 . S
In390 O401 2.294 . S
In390 O402 2.326 . S
O391 In390 2.294 . S
O391 C400 1.240 . S
O392 In390 2.326 . S
O392 C400 1.252 . S
C393 O396 1.252 . S
C393 O397 1.260 . S
C394 O401 1.240 . S
C394 O402 1.252 . S
C395 O398 1.252 . S
C395 O399 1.260 . S
O396 In390 2.266 1_556 S
O396 C393 1.252 . S
O397 In390 2.326 1_556 S
O397 C393 1.260 . S
O398 In390 2.266 . S
O398 C395 1.252 . S
O399 In390 2.326 . S
O399 C395 1.260 . S
C400 O391 1.240 . S
C400 O392 1.252 . S
O401 In390 2.294 . S
O401 C394 1.240 . S
O402 In390 2.326 . S
O402 C394 1.252 . S
In403 O404 2.294 . S
In403 O405 2.326 . S
In403 O409 2.266 . S
In403 O410 2.326 . S
In403 O411 2.266 1_554 S
In403 O412 2.326 1_554 S
In403 O414 2.294 . S
In403 O415 2.326 . S
O404 In403 2.294 . S
O404 C413 1.240 . S
O405 In403 2.326 . S
O405 C413 1.252 . S
C406 O409 1.252 . S
C406 O410 1.260 . S
C407 O414 1.240 . S
C407 O415 1.252 . S
C408 O411 1.252 . S
C408 O412 1.260 . S
O409 In403 2.266 . S
O409 C406 1.252 . S
O410 In403 2.326 . S
O410 C406 1.260 . S
O411 In403 2.266 1_556 S
O411 C408 1.252 . S
O412 In403 2.326 1_556 S
O412 C408 1.260 . S
C413 O404 1.240 . S
C413 O405 1.252 . S
O414 In403 2.294 . S
O414 C407 1.240 . S
O415 In403 2.326 . S
O415 C407 1.252 . S
H416 C422 0.930 . S
H417 C425 0.930 . S
H418 C426 0.930 . S
H419 C427 0.930 . S
H420 C430 0.930 . S
H421 C431 0.930 1_655 S
C422 H416 0.930 . S
C422 C423 1.355 . S
C422 C424 1.415 . S
C423 C422 1.355 . S
C423 C425 1.419 . S
C424 C422 1.415 . S
C424 C429 1.425 . S
C424 C431 1.409 . S
C425 H417 0.930 . S
C425 C423 1.419 . S
C425 C426 1.362 . S
C426 H418 0.930 . S
C426 C425 1.362 . S
C426 C429 1.409 . S
C427 H419 0.930 . S
C427 C428 1.355 . S
C427 C429 1.415 . S
C428 C427 1.355 . S
C428 C430 1.419 . S
C429 C424 1.425 . S
C429 C426 1.409 . S
C429 C427 1.415 . S
C430 H420 0.930 . S
C430 C428 1.419 . S
C430 C431 1.362 . S
C431 H421 0.930 1_455 S
C431 C424 1.409 . S
C431 C430 1.362 . S
H432 C438 0.930 . S
H433 C441 0.930 . S
H434 C442 0.930 . S
H435 C443 0.930 . S
H436 C446 0.930 . S
H437 C447 0.930 . S
C438 H432 0.930 . S
C438 C439 1.355 . S
C438 C440 1.415 . S
C439 C438 1.355 . S
C439 C441 1.419 . S
C440 C438 1.415 . S
C440 C445 1.425 . S
C440 C447 1.409 . S
C441 H433 0.930 . S
C441 C439 1.419 . S
C441 C442 1.362 . S
C442 H434 0.930 . S
C442 C441 1.362 . S
C442 C445 1.409 . S
C443 H435 0.930 . S
C443 C444 1.355 . S
C443 C445 1.415 . S
C444 C443 1.355 . S
C444 C446 1.419 . S
C445 C440 1.425 . S
C445 C442 1.409 . S
C445 C443 1.415 . S
C446 H436 0.930 . S
C446 C444 1.419 . S
C446 C447 1.362 . S
C447 H437 0.930 . S
C447 C440 1.409 . S
C447 C446 1.362 . S
H448 C454 0.930 . S
H449 C457 0.930 . S
H450 C458 0.930 . S
H451 C459 0.930 . S
H452 C462 0.930 . S
H453 C463 0.930 . S
C454 H448 0.930 . S
C454 C455 1.355 . S
C454 C456 1.415 . S
C455 C454 1.355 . S
C455 C457 1.419 . S
C456 C454 1.415 . S
C456 C461 1.425 . S
C456 C463 1.409 . S
C457 H449 0.930 . S
C457 C455 1.419 . S
C457 C458 1.362 . S
C458 H450 0.930 . S
C458 C457 1.362 . S
C458 C461 1.409 . S
C459 H451 0.930 . S
C459 C460 1.355 . S
C459 C461 1.415 . S
C460 C459 1.355 . S
C460 C462 1.419 . S
C461 C456 1.425 . S
C461 C458 1.409 . S
C461 C459 1.415 . S
C462 H452 0.930 . S
C462 C460 1.419 . S
C462 C463 1.362 . S
C463 H453 0.930 . S
C463 C456 1.409 . S
C463 C462 1.362 . S
H464 C470 0.930 . S
H465 C473 0.930 1_455 S
H466 C474 0.930 1_455 S
H467 C475 0.930 . S
H468 C478 0.930 . S
H469 C479 0.930 . S
C470 H464 0.930 . S
C470 C471 1.355 . S
C470 C472 1.415 . S
C471 C470 1.355 . S
C471 C473 1.419 . S
C472 C470 1.415 . S
C472 C477 1.425 . S
C472 C479 1.409 . S
C473 H465 0.930 1_655 S
C473 C471 1.419 . S
C473 C474 1.362 . S
C474 H466 0.930 1_655 S
C474 C473 1.362 . S
C474 C477 1.409 . S
C475 H467 0.930 . S
C475 C476 1.355 . S
C475 C477 1.415 . S
C476 C475 1.355 . S
C476 C478 1.419 . S
C477 C472 1.425 . S
C477 C474 1.409 . S
C477 C475 1.415 . S
C478 H468 0.930 . S
C478 C476 1.419 . S
C478 C479 1.362 . S
C479 H469 0.930 . S
C479 C472 1.409 . S
C479 C478 1.362 . S
H480 C486 0.930 . S
H481 C489 0.930 . S
H482 C490 0.930 1_655 S
H483 C491 0.930 . S
H484 C494 0.930 . S
H485 C495 0.930 . S
C486 H480 0.930 . S
C486 C487 1.355 . S
C486 C488 1.415 . S
C487 C486 1.355 . S
C487 C489 1.419 . S
C488 C486 1.415 . S
C488 C493 1.425 . S
C488 C495 1.409 . S
C489 H481 0.930 . S
C489 C487 1.419 . S
C489 C490 1.362 . S
C490 H482 0.930 1_455 S
C490 C489 1.362 . S
C490 C493 1.409 . S
C491 H483 0.930 . S
C491 C492 1.355 . S
C491 C493 1.415 . S
C492 C491 1.355 . S
C492 C494 1.419 . S
C493 C488 1.425 . S
C493 C490 1.409 . S
C493 C491 1.415 . S
C494 H484 0.930 . S
C494 C492 1.419 . S
C494 C495 1.362 . S
C495 H485 0.930 . S
C495 C488 1.409 . S
C495 C494 1.362 . S
H496 C502 0.930 . S
H497 C505 0.930 . S
H498 C506 0.930 . S
H499 C507 0.930 . S
H500 C510 0.930 . S
H501 C511 0.930 . S
C502 H496 0.930 . S
C502 C503 1.355 . S
C502 C504 1.415 . S
C503 C502 1.355 . S
C503 C505 1.419 . S
C504 C502 1.415 . S
C504 C509 1.425 . S
C504 C511 1.409 . S
C505 H497 0.930 . S
C505 C503 1.419 . S
C505 C506 1.362 . S
C506 H498 0.930 . S
C506 C505 1.362 . S
C506 C509 1.409 . S
C507 H499 0.930 . S
C507 C508 1.355 . S
C507 C509 1.415 . S
C508 C507 1.355 . S
C508 C510 1.419 . S
C509 C504 1.425 . S
C509 C506 1.409 . S
C509 C507 1.415 . S
C510 H500 0.930 . S
C510 C508 1.419 . S
C510 C511 1.362 . S
C511 H501 0.930 . S
C511 C504 1.409 . S
C511 C510 1.362 . S
H512 C518 0.930 . S
H513 C521 0.930 . S
H514 C522 0.930 . S
H515 C523 0.930 . S
H516 C526 0.930 . S
H517 C527 0.930 . S
C518 H512 0.930 . S
C518 C519 1.355 . S
C518 C520 1.415 . S
C519 C518 1.355 . S
C519 C521 1.419 . S
C520 C518 1.415 . S
C520 C525 1.425 . S
C520 C527 1.409 . S
C521 H513 0.930 . S
C521 C519 1.419 . S
C521 C522 1.362 . S
C522 H514 0.930 . S
C522 C521 1.362 . S
C522 C525 1.409 . S
C523 H515 0.930 . S
C523 C524 1.355 . S
C523 C525 1.415 . S
C524 C523 1.355 . S
C524 C526 1.419 . S
C525 C520 1.425 . S
C525 C522 1.409 . S
C525 C523 1.415 . S
C526 H516 0.930 . S
C526 C524 1.419 . S
C526 C527 1.362 . S
C527 H517 0.930 . S
C527 C520 1.409 . S
C527 C526 1.362 . S
H528 C534 0.930 . S
H529 C537 0.930 . S
H530 C538 0.930 . S
H531 C539 0.930 . S
H532 C542 0.930 . S
H533 C543 0.930 . S
C534 H528 0.930 . S
C534 C535 1.355 . S
C534 C536 1.415 . S
C535 C534 1.355 . S
C535 C537 1.419 . S
C536 C534 1.415 . S
C536 C541 1.425 . S
C536 C543 1.409 . S
C537 H529 0.930 . S
C537 C535 1.419 . S
C537 C538 1.362 . S
C538 H530 0.930 . S
C538 C537 1.362 . S
C538 C541 1.409 . S
C539 H531 0.930 . S
C539 C540 1.355 . S
C539 C541 1.415 . S
C540 C539 1.355 . S
C540 C542 1.419 . S
C541 C536 1.425 . S
C541 C538 1.409 . S
C541 C539 1.415 . S
C542 H532 0.930 . S
C542 C540 1.419 . S
C542 C543 1.362 . S
C543 H533 0.930 . S
C543 C536 1.409 . S
C543 C542 1.362 . S
H544 C550 0.930 . S
H545 C553 0.930 . S
H546 C554 0.930 . S
H547 C555 0.930 . S
H548 C558 0.930 . S
H549 C559 0.930 . S
C550 H544 0.930 . S
C550 C551 1.355 . S
C550 C552 1.415 . S
C551 C550 1.355 . S
C551 C553 1.419 . S
C552 C550 1.415 . S
C552 C557 1.425 . S
C552 C559 1.409 . S
C553 H545 0.930 . S
C553 C551 1.419 . S
C553 C554 1.362 . S
C554 H546 0.930 . S
C554 C553 1.362 . S
C554 C557 1.409 . S
C555 H547 0.930 . S
C555 C556 1.355 . S
C555 C557 1.415 . S
C556 C555 1.355 . S
C556 C558 1.419 . S
C557 C552 1.425 . S
C557 C554 1.409 . S
C557 C555 1.415 . S
C558 H548 0.930 . S
C558 C556 1.419 . S
C558 C559 1.362 . S
C559 H549 0.930 . S
C559 C552 1.409 . S
C559 C558 1.362 . S
H560 C566 0.930 . S
H561 C569 0.930 . S
H562 C570 0.930 . S
H563 C571 0.930 . S
H564 C574 0.930 . S
H565 C575 0.930 . S
C566 H560 0.930 . S
C566 C567 1.355 . S
C566 C568 1.415 . S
C567 C566 1.355 . S
C567 C569 1.419 . S
C568 C566 1.415 . S
C568 C573 1.425 . S
C568 C575 1.409 . S
C569 H561 0.930 . S
C569 C567 1.419 . S
C569 C570 1.362 . S
C570 H562 0.930 . S
C570 C569 1.362 . S
C570 C573 1.409 . S
C571 H563 0.930 . S
C571 C572 1.355 . S
C571 C573 1.415 . S
C572 C571 1.355 . S
C572 C574 1.419 . S
C573 C568 1.425 . S
C573 C570 1.409 . S
C573 C571 1.415 . S
C574 H564 0.930 . S
C574 C572 1.419 . S
C574 C575 1.362 . S
C575 H565 0.930 . S
C575 C568 1.409 . S
C575 C574 1.362 . S
H576 C582 0.930 . S
H577 C585 0.930 . S
H578 C586 0.930 . S
H579 C587 0.930 . S
H580 C590 0.930 . S
H581 C591 0.930 . S
C582 H576 0.930 . S
C582 C583 1.355 . S
C582 C584 1.415 . S
C583 C582 1.355 . S
C583 C585 1.419 . S
C584 C582 1.415 . S
C584 C589 1.425 . S
C584 C591 1.409 . S
C585 H577 0.930 . S
C585 C583 1.419 . S
C585 C586 1.362 . S
C586 H578 0.930 . S
C586 C585 1.362 . S
C586 C589 1.409 . S
C587 H579 0.930 . S
C587 C588 1.355 . S
C587 C589 1.415 . S
C588 C587 1.355 . S
C588 C590 1.419 . S
C589 C584 1.425 . S
C589 C586 1.409 . S
C589 C587 1.415 . S
C590 H580 0.930 . S
C590 C588 1.419 . S
C590 C591 1.362 . S
C591 H581 0.930 . S
C591 C584 1.409 . S
C591 C590 1.362 . S
H592 C598 0.930 . S
H593 C601 0.930 . S
H594 C602 0.930 . S
H595 C603 0.930 . S
H596 C606 0.930 . S
H597 C607 0.930 . S
C598 H592 0.930 . S
C598 C599 1.355 . S
C598 C600 1.415 . S
C599 C598 1.355 . S
C599 C601 1.419 . S
C600 C598 1.415 . S
C600 C605 1.425 . S
C600 C607 1.409 . S
C601 H593 0.930 . S
C601 C599 1.419 . S
C601 C602 1.362 . S
C602 H594 0.930 . S
C602 C601 1.362 . S
C602 C605 1.409 . S
C603 H595 0.930 . S
C603 C604 1.355 . S
C603 C605 1.415 . S
C604 C603 1.355 . S
C604 C606 1.419 . S
C605 C600 1.425 . S
C605 C602 1.409 . S
C605 C603 1.415 . S
C606 H596 0.930 . S
C606 C604 1.419 . S
C606 C607 1.362 . S
C607 H597 0.930 . S
C607 C600 1.409 . S
C607 C606 1.362 . S
H608 C614 0.930 . S
H609 C617 0.930 . S
H610 C618 0.930 . S
H611 C619 0.930 . S
H612 C622 0.930 . S
H613 C623 0.930 . S
C614 H608 0.930 . S
C614 C615 1.355 . S
C614 C616 1.415 . S
C615 C614 1.355 . S
C615 C617 1.419 . S
C616 C614 1.415 . S
C616 C621 1.425 . S
C616 C623 1.409 . S
C617 H609 0.930 . S
C617 C615 1.419 . S
C617 C618 1.362 . S
C618 H610 0.930 . S
C618 C617 1.362 . S
C618 C621 1.409 . S
C619 H611 0.930 . S
C619 C620 1.355 . S
C619 C621 1.415 . S
C620 C619 1.355 . S
C620 C622 1.419 . S
C621 C616 1.425 . S
C621 C618 1.409 . S
C621 C619 1.415 . S
C622 H612 0.930 . S
C622 C620 1.419 . S
C622 C623 1.362 . S
C623 H613 0.930 . S
C623 C616 1.409 . S
C623 C622 1.362 . S
H624 C630 0.930 . S
H625 C633 0.930 . S
H626 C634 0.930 . S
H627 C635 0.930 . S
H628 C638 0.930 . S
H629 C639 0.930 . S
C630 H624 0.930 . S
C630 C631 1.355 . S
C630 C632 1.415 . S
C631 C630 1.355 . S
C631 C633 1.419 . S
C632 C630 1.415 . S
C632 C637 1.425 . S
C632 C639 1.409 . S
C633 H625 0.930 . S
C633 C631 1.419 . S
C633 C634 1.362 . S
C634 H626 0.930 . S
C634 C633 1.362 . S
C634 C637 1.409 . S
C635 H627 0.930 . S
C635 C636 1.355 . S
C635 C637 1.415 . S
C636 C635 1.355 . S
C636 C638 1.419 . S
C637 C632 1.425 . S
C637 C634 1.409 . S
C637 C635 1.415 . S
C638 H628 0.930 . S
C638 C636 1.419 . S
C638 C639 1.362 . S
C639 H629 0.930 . S
C639 C632 1.409 . S
C639 C638 1.362 . S
H640 C646 0.930 . S
H641 C649 0.930 . S
H642 C650 0.930 . S
H643 C651 0.930 . S
H644 C654 0.930 . S
H645 C655 0.930 . S
C646 H640 0.930 . S
C646 C647 1.355 . S
C646 C648 1.415 . S
C647 C646 1.355 . S
C647 C649 1.419 . S
C648 C646 1.415 . S
C648 C653 1.425 . S
C648 C655 1.409 . S
C649 H641 0.930 . S
C649 C647 1.419 . S
C649 C650 1.362 . S
C650 H642 0.930 . S
C650 C649 1.362 . S
C650 C653 1.409 . S
C651 H643 0.930 . S
C651 C652 1.355 . S
C651 C653 1.415 . S
C652 C651 1.355 . S
C652 C654 1.419 . S
C653 C648 1.425 . S
C653 C650 1.409 . S
C653 C651 1.415 . S
C654 H644 0.930 . S
C654 C652 1.419 . S
C654 C655 1.362 . S
C655 H645 0.930 . S
C655 C648 1.409 . S
C655 C654 1.362 . S
H656 C662 0.930 . S
H657 C665 0.930 . S
H658 C666 0.930 . S
H659 C667 0.930 . S
H660 C670 0.930 . S
H661 C671 0.930 . S
C662 H656 0.930 . S
C662 C663 1.355 . S
C662 C664 1.415 . S
C663 C662 1.355 . S
C663 C665 1.419 . S
C664 C662 1.415 . S
C664 C669 1.425 . S
C664 C671 1.409 . S
C665 H657 0.930 . S
C665 C663 1.419 . S
C665 C666 1.362 . S
C666 H658 0.930 . S
C666 C665 1.362 . S
C666 C669 1.409 . S
C667 H659 0.930 . S
C667 C668 1.355 . S
C667 C669 1.415 . S
C668 C667 1.355 . S
C668 C670 1.419 . S
C669 C664 1.425 . S
C669 C666 1.409 . S
C669 C667 1.415 . S
C670 H660 0.930 . S
C670 C668 1.419 . S
C670 C671 1.362 . S
C671 H661 0.930 . S
C671 C664 1.409 . S
C671 C670 1.362 . S
H672 C678 0.930 . S
H673 C681 0.930 . S
H674 C682 0.930 . S
H675 C683 0.930 . S
H676 C686 0.930 . S
H677 C687 0.930 . S
C678 H672 0.930 . S
C678 C679 1.355 . S
C678 C680 1.415 . S
C679 C678 1.355 . S
C679 C681 1.419 . S
C680 C678 1.415 . S
C680 C685 1.425 1_565 S
C680 C687 1.409 1_565 S
C681 H673 0.930 . S
C681 C679 1.419 . S
C681 C682 1.362 . S
C682 H674 0.930 . S
C682 C681 1.362 . S
C682 C685 1.409 1_565 S
C683 H675 0.930 . S
C683 C684 1.355 . S
C683 C685 1.415 . S
C684 C683 1.355 . S
C684 C686 1.419 . S
C685 C680 1.425 1_545 S
C685 C682 1.409 1_545 S
C685 C683 1.415 . S
C686 H676 0.930 . S
C686 C684 1.419 . S
C686 C687 1.362 . S
C687 H677 0.930 . S
C687 C680 1.409 1_545 S
C687 C686 1.362 . S
H688 C694 0.930 . S
H689 C697 0.930 . S
H690 C698 0.930 . S
H691 C699 0.930 . S
H692 C702 0.930 . S
H693 C703 0.930 . S
C694 H688 0.930 . S
C694 C695 1.355 . S
C694 C696 1.415 . S
C695 C694 1.355 . S
C695 C697 1.419 1_655 S
C696 C694 1.415 . S
C696 C701 1.425 1_655 S
C696 C703 1.409 . S
C697 H689 0.930 . S
C697 C695 1.419 1_455 S
C697 C698 1.362 . S
C698 H690 0.930 . S
C698 C697 1.362 . S
C698 C701 1.409 . S
C699 H691 0.930 . S
C699 C700 1.355 . S
C699 C701 1.415 . S
C700 C699 1.355 . S
C700 C702 1.419 1_455 S
C701 C696 1.425 1_455 S
C701 C698 1.409 . S
C701 C699 1.415 . S
C702 H692 0.930 . S
C702 C700 1.419 1_655 S
C702 C703 1.362 . S
C703 H693 0.930 . S
C703 C696 1.409 . S
C703 C702 1.362 . S
H704 C710 0.930 . S
H705 C713 0.930 . S
H706 C714 0.930 . S
H707 C715 0.930 . S
H708 C718 0.930 . S
H709 C719 0.930 . S
C710 H704 0.930 . S
C710 C711 1.355 . S
C710 C712 1.415 . S
C711 C710 1.355 . S
C711 C713 1.419 1_556 S
C712 C710 1.415 . S
C712 C717 1.425 1_556 S
C712 C719 1.409 . S
C713 H705 0.930 . S
C713 C711 1.419 1_554 S
C713 C714 1.362 . S
C714 H706 0.930 . S
C714 C713 1.362 . S
C714 C717 1.409 . S
C715 H707 0.930 . S
C715 C716 1.355 . S
C715 C717 1.415 . S
C716 C715 1.355 . S
C716 C718 1.419 1_554 S
C717 C712 1.425 1_554 S
C717 C714 1.409 . S
C717 C715 1.415 . S
C718 H708 0.930 . S
C718 C716 1.419 1_556 S
C718 C719 1.362 . S
C719 H709 0.930 . S
C719 C712 1.409 . S
C719 C718 1.362 . S
H720 C726 0.930 . S
H721 C729 0.930 . S
H722 C730 0.930 1_564 S
H723 C731 0.930 . S
H724 C734 0.930 . S
H725 C735 0.930 1_546 S
C726 H720 0.930 . S
C726 C727 1.355 1_655 S
C726 C728 1.415 . S
C727 C726 1.355 1_455 S
C727 C729 1.419 . S
C728 C726 1.415 . S
C728 C733 1.425 1_646 S
C728 C735 1.409 1_546 S
C729 H721 0.930 . S
C729 C727 1.419 . S
C729 C730 1.362 . S
C730 H722 0.930 1_546 S
C730 C729 1.362 . S
C730 C733 1.409 1_546 S
C731 H723 0.930 . S
C731 C732 1.355 1_455 S
C731 C733 1.415 . S
C732 C731 1.355 1_655 S
C732 C734 1.419 . S
C733 C728 1.425 1_464 S
C733 C730 1.409 1_564 S
C733 C731 1.415 . S
C734 H724 0.930 . S
C734 C732 1.419 . S
C734 C735 1.362 . S
C735 H725 0.930 1_564 S
C735 C728 1.409 1_564 S
C735 C734 1.362 . S
H736 C742 0.930 . S
H737 C745 0.930 . S
H738 C746 0.930 . S
H739 C747 0.930 . S
H740 C750 0.930 . S
H741 C751 0.930 . S
C742 H736 0.930 . S
C742 C743 1.355 . S
C742 C744 1.473 . S
C743 C742 1.355 . S
C743 C745 1.419 . S
C744 C742 1.473 . S
C744 C749 1.417 1_545 S
C744 C751 1.359 1_545 S
C745 H737 0.930 . S
C745 C743 1.419 . S
C745 C746 1.362 . S
C746 H738 0.930 . S
C746 C745 1.362 . S
C746 C749 1.359 1_545 S
C747 H739 0.930 . S
C747 C748 1.355 . S
C747 C749 1.473 . S
C748 C747 1.355 . S
C748 C750 1.419 . S
C749 C744 1.417 1_565 S
C749 C746 1.359 1_565 S
C749 C747 1.473 . S
C750 H740 0.930 . S
C750 C748 1.419 . S
C750 C751 1.362 . S
C751 H741 0.930 . S
C751 C744 1.359 1_565 S
C751 C750 1.362 . S
H752 C758 0.930 . S
H753 C761 0.930 . S
H754 C762 0.930 . S
H755 C763 0.930 . S
H756 C766 0.930 . S
H757 C767 0.930 . S
C758 H752 0.930 . S
C758 C759 1.355 1_655 S
C758 C760 1.415 . S
C759 C758 1.355 1_455 S
C759 C761 1.419 . S
C760 C758 1.415 . S
C760 C765 1.425 1_655 S
C760 C767 1.409 . S
C761 H753 0.930 . S
C761 C759 1.419 . S
C761 C762 1.362 . S
C762 H754 0.930 . S
C762 C761 1.362 . S
C762 C765 1.409 . S
C763 H755 0.930 . S
C763 C764 1.355 1_455 S
C763 C765 1.415 . S
C764 C763 1.355 1_655 S
C764 C766 1.419 . S
C765 C760 1.425 1_455 S
C765 C762 1.409 . S
C765 C763 1.415 . S
C766 H756 0.930 . S
C766 C764 1.419 . S
C766 C767 1.362 . S
C767 H757 0.930 . S
C767 C760 1.409 . S
C767 C766 1.362 . S
H768 C774 0.930 . S
H769 C777 0.930 . S
H770 C778 0.930 . S
H771 C779 0.930 . S
H772 C782 0.930 . S
H773 C783 0.930 . S
C774 H768 0.930 . S
C774 C775 1.355 . S
C774 C776 1.415 . S
C775 C774 1.355 . S
C775 C777 1.419 1_556 S
C776 C774 1.415 . S
C776 C781 1.425 1_556 S
C776 C783 1.409 . S
C777 H769 0.930 . S
C777 C775 1.419 1_554 S
C777 C778 1.362 . S
C778 H770 0.930 . S
C778 C777 1.362 . S
C778 C781 1.409 . S
C779 H771 0.930 . S
C779 C780 1.355 . S
C779 C781 1.415 . S
C780 C779 1.355 . S
C780 C782 1.419 1_554 S
C781 C776 1.425 1_554 S
C781 C778 1.409 . S
C781 C779 1.415 . S
C782 H772 0.930 . S
C782 C780 1.419 1_556 S
C782 C783 1.362 . S
C783 H773 0.930 . S
C783 C776 1.409 . S
C783 C782 1.362 . S
H784 C790 0.930 . S
H785 C793 0.930 . S
H786 C794 0.930 . S
H787 C795 0.930 . S
H788 C798 0.930 . S
H789 C799 0.930 . S
C790 H784 0.930 . S
C790 C791 1.355 . S
C790 C792 1.415 . S
C791 C790 1.355 . S
C791 C793 1.419 . S
C792 C790 1.415 . S
C792 C797 1.425 . S
C792 C799 1.409 . S
C793 H785 0.930 . S
C793 C791 1.419 . S
C793 C794 1.362 . S
C794 H786 0.930 . S
C794 C793 1.362 . S
C794 C797 1.409 . S
C795 H787 0.930 . S
C795 C796 1.355 . S
C795 C797 1.415 . S
C796 C795 1.355 . S
C796 C798 1.419 . S
C797 C792 1.425 . S
C797 C794 1.409 . S
C797 C795 1.415 . S
C798 H788 0.930 . S
C798 C796 1.419 . S
C798 C799 1.362 . S
C799 H789 0.930 . S
C799 C792 1.409 . S
C799 C798 1.362 . S
H800 C806 0.930 . S
H801 C809 0.930 . S
H802 C810 0.930 . S
H803 C811 0.930 . S
H804 C814 0.930 . S
H805 C815 0.930 . S
C806 H800 0.930 . S
C806 C807 1.355 . S
C806 C808 1.415 . S
C807 C806 1.355 . S
C807 C809 1.419 . S
C808 C806 1.415 . S
C808 C813 1.425 . S
C808 C815 1.409 . S
C809 H801 0.930 . S
C809 C807 1.419 . S
C809 C810 1.362 . S
C810 H802 0.930 . S
C810 C809 1.362 . S
C810 C813 1.409 . S
C811 H803 0.930 . S
C811 C812 1.355 . S
C811 C813 1.415 . S
C812 C811 1.355 . S
C812 C814 1.419 . S
C813 C808 1.425 . S
C813 C810 1.409 . S
C813 C811 1.415 . S
C814 H804 0.930 . S
C814 C812 1.419 . S
C814 C815 1.362 . S
C815 H805 0.930 . S
C815 C808 1.409 . S
C815 C814 1.362 . S
H816 C822 0.930 . S
H817 C825 0.930 . S
H818 C826 0.930 . S
H819 C827 0.930 . S
H820 C830 0.930 . S
H821 C831 0.930 . S
C822 H816 0.930 . S
C822 C823 1.355 . S
C822 C824 1.415 . S
C823 C822 1.355 . S
C823 C825 1.419 . S
C824 C822 1.415 . S
C824 C829 1.425 1_655 S
C824 C831 1.409 . S
C825 H817 0.930 . S
C825 C823 1.419 . S
C825 C826 1.362 1_655 S
C826 H818 0.930 . S
C826 C825 1.362 1_455 S
C826 C829 1.409 . S
C827 H819 0.930 . S
C827 C828 1.355 . S
C827 C829 1.415 . S
C828 C827 1.355 . S
C828 C830 1.419 . S
C829 C824 1.425 1_455 S
C829 C826 1.409 . S
C829 C827 1.415 . S
C830 H820 0.930 . S
C830 C828 1.419 . S
C830 C831 1.362 1_455 S
C831 H821 0.930 . S
C831 C824 1.409 . S
C831 C830 1.362 1_655 S
H832 C838 0.930 . S
H833 C841 0.930 . S
H834 C842 0.930 . S
H835 C843 0.930 . S
H836 C846 0.930 . S
H837 C847 0.930 . S
C838 H832 0.930 . S
C838 C839 1.355 . S
C838 C840 1.415 . S
C839 C838 1.355 . S
C839 C841 1.419 . S
C840 C838 1.415 . S
C840 C845 1.425 . S
C840 C847 1.409 . S
C841 H833 0.930 . S
C841 C839 1.419 . S
C841 C842 1.362 . S
C842 H834 0.930 . S
C842 C841 1.362 . S
C842 C845 1.409 . S
C843 H835 0.930 . S
C843 C844 1.355 . S
C843 C845 1.415 . S
C844 C843 1.355 . S
C844 C846 1.419 . S
C845 C840 1.425 . S
C845 C842 1.409 . S
C845 C843 1.415 . S
C846 H836 0.930 . S
C846 C844 1.419 . S
C846 C847 1.362 . S
C847 H837 0.930 . S
C847 C840 1.409 . S
C847 C846 1.362 . S
H848 C854 0.930 . S
H849 C857 0.930 . S
H850 C858 0.930 . S
H851 C859 0.930 . S
H852 C862 0.930 . S
H853 C863 0.930 . S
C854 H848 0.930 . S
C854 C855 1.355 . S
C854 C856 1.415 . S
C855 C854 1.355 . S
C855 C857 1.419 . S
C856 C854 1.415 . S
C856 C861 1.425 . S
C856 C863 1.409 . S
C857 H849 0.930 . S
C857 C855 1.419 . S
C857 C858 1.362 . S
C858 H850 0.930 . S
C858 C857 1.362 . S
C858 C861 1.409 . S
C859 H851 0.930 . S
C859 C860 1.355 . S
C859 C861 1.415 . S
C860 C859 1.355 . S
C860 C862 1.419 . S
C861 C856 1.425 . S
C861 C858 1.409 . S
C861 C859 1.415 . S
C862 H852 0.930 . S
C862 C860 1.419 . S
C862 C863 1.362 . S
C863 H853 0.930 . S
C863 C856 1.409 . S
C863 C862 1.362 . S
H864 C870 0.930 . S
H865 C873 0.930 . S
H866 C874 0.930 . S
H867 C875 0.930 . S
H868 C878 0.930 . S
H869 C879 0.930 . S
C870 H864 0.930 . S
C870 C871 1.355 . S
C870 C872 1.415 . S
C871 C870 1.355 . S
C871 C873 1.419 . S
C872 C870 1.415 . S
C872 C877 1.425 . S
C872 C879 1.409 . S
C873 H865 0.930 . S
C873 C871 1.419 . S
C873 C874 1.362 . S
C874 H866 0.930 . S
C874 C873 1.362 . S
C874 C877 1.409 . S
C875 H867 0.930 . S
C875 C876 1.355 . S
C875 C877 1.415 . S
C876 C875 1.355 . S
C876 C878 1.419 . S
C877 C872 1.425 . S
C877 C874 1.409 . S
C877 C875 1.415 . S
C878 H868 0.930 . S
C878 C876 1.419 . S
C878 C879 1.362 . S
C879 H869 0.930 . S
C879 C872 1.409 . S
C879 C878 1.362 . S
H880 C886 0.930 . S
H881 C889 0.930 . S
H882 C890 0.889 1_565 S
H883 C891 0.930 . S
H884 C894 0.930 . S
H885 C895 0.889 1_545 S
C886 H880 0.930 . S
C886 C887 1.355 . S
C886 C888 1.415 . S
C887 C886 1.355 . S
C887 C889 1.419 . S
C888 C886 1.415 . S
C888 C893 1.425 1_545 S
C888 C895 1.384 1_545 S
C889 H881 0.930 . S
C889 C887 1.419 . S
C889 C890 1.431 . S
C890 H882 0.889 1_545 S
C890 C889 1.431 . S
C890 C893 1.384 1_545 S
C891 H883 0.930 . S
C891 C892 1.355 . S
C891 C893 1.415 . S
C892 C891 1.355 . S
C892 C894 1.419 . S
C893 C888 1.425 1_565 S
C893 C890 1.384 1_565 S
C893 C891 1.415 . S
C894 H884 0.930 . S
C894 C892 1.419 . S
C894 C895 1.431 . S
C895 H885 0.889 1_565 S
C895 C888 1.384 1_565 S
C895 C894 1.431 . S
H896 C902 0.930 . S
H897 C905 0.930 . S
H898 C906 0.930 . S
H899 C907 0.930 . S
H900 C910 0.930 . S
H901 C911 0.930 . S
C902 H896 0.930 . S
C902 C903 1.355 . S
C902 C904 1.415 . S
C903 C902 1.355 . S
C903 C905 1.419 . S
C904 C902 1.415 . S
C904 C909 1.425 . S
C904 C911 1.409 . S
C905 H897 0.930 . S
C905 C903 1.419 . S
C905 C906 1.362 . S
C906 H898 0.930 . S
C906 C905 1.362 . S
C906 C909 1.409 . S
C907 H899 0.930 . S
C907 C908 1.355 . S
C907 C909 1.415 . S
C908 C907 1.355 . S
C908 C910 1.419 . S
C909 C904 1.425 . S
C909 C906 1.409 . S
C909 C907 1.415 . S
C910 H900 0.930 . S
C910 C908 1.419 . S
C910 C911 1.362 . S
C911 H901 0.930 . S
C911 C904 1.409 . S
C911 C910 1.362 . S
H912 C918 0.930 . S
H913 C921 0.930 . S
H914 C922 0.930 . S
H915 C923 0.930 . S
H916 C926 0.930 . S
H917 C927 0.930 . S
C918 H912 0.930 . S
C918 C919 1.355 . S
C918 C920 1.415 . S
C919 C918 1.355 . S
C919 C921 1.419 . S
C920 C918 1.415 . S
C920 C925 1.425 1_554 S
C920 C927 1.409 . S
C921 H913 0.930 . S
C921 C919 1.419 . S
C921 C922 1.362 1_554 S
C922 H914 0.930 . S
C922 C921 1.362 1_556 S
C922 C925 1.409 . S
C923 H915 0.930 . S
C923 C924 1.355 . S
C923 C925 1.415 . S
C924 C923 1.355 . S
C924 C926 1.419 . S
C925 C920 1.425 1_556 S
C925 C922 1.409 . S
C925 C923 1.415 . S
C926 H916 0.930 . S
C926 C924 1.419 . S
C926 C927 1.362 1_556 S
C927 H917 0.930 . S
C927 C920 1.409 . S
C927 C926 1.362 1_554 S
H928 C934 0.930 . S
H929 C937 0.930 . S
H930 C938 0.930 . S
H931 C939 0.930 . S
H932 C942 0.930 . S
H933 C943 0.930 . S
C934 H928 0.930 . S
C934 C935 1.355 . S
C934 C936 1.415 . S
C935 C934 1.355 . S
C935 C937 1.419 . S
C936 C934 1.415 . S
C936 C941 1.425 . S
C936 C943 1.409 . S
C937 H929 0.930 . S
C937 C935 1.419 . S
C937 C938 1.362 . S
C938 H930 0.930 . S
C938 C937 1.362 . S
C938 C941 1.409 . S
C939 H931 0.930 . S
C939 C940 1.355 . S
C939 C941 1.415 . S
C940 C939 1.355 . S
C940 C942 1.419 . S
C941 C936 1.425 . S
C941 C938 1.409 . S
C941 C939 1.415 . S
C942 H932 0.930 . S
C942 C940 1.419 . S
C942 C943 1.362 . S
C943 H933 0.930 . S
C943 C936 1.409 . S
C943 C942 1.362 . S
H944 C950 0.930 . S
H945 C953 0.930 . S
H946 C954 0.930 1_655 S
H947 C955 0.930 . S
H948 C958 0.930 . S
H949 C959 0.930 . S
C950 H944 0.930 . S
C950 C951 1.355 . S
C950 C952 1.415 . S
C951 C950 1.355 . S
C951 C953 1.419 . S
C952 C950 1.415 . S
C952 C957 1.425 . S
C952 C959 1.409 . S
C953 H945 0.930 . S
C953 C951 1.419 . S
C953 C954 1.362 . S
C954 H946 0.930 1_455 S
C954 C953 1.362 . S
C954 C957 1.409 . S
C955 H947 0.930 . S
C955 C956 1.355 . S
C955 C957 1.415 . S
C956 C955 1.355 . S
C956 C958 1.419 . S
C957 C952 1.425 . S
C957 C954 1.409 . S
C957 C955 1.415 . S
C958 H948 0.930 . S
C958 C956 1.419 . S
C958 C959 1.362 . S
C959 H949 0.930 . S
C959 C952 1.409 . S
C959 C958 1.362 . S
H960 C966 0.930 . S
H961 C969 0.930 . S
H962 C970 0.930 . S
H963 C971 0.930 . S
H964 C974 0.930 . S
H965 C975 0.930 . S
C966 H960 0.930 . S
C966 C967 1.355 . S
C966 C968 1.415 . S
C967 C966 1.355 . S
C967 C969 1.419 . S
C968 C966 1.415 . S
C968 C973 1.425 . S
C968 C975 1.409 . S
C969 H961 0.930 . S
C969 C967 1.419 . S
C969 C970 1.362 . S
C970 H962 0.930 . S
C970 C969 1.362 . S
C970 C973 1.409 . S
C971 H963 0.930 . S
C971 C972 1.355 . S
C971 C973 1.415 . S
C972 C971 1.355 . S
C972 C974 1.419 . S
C973 C968 1.425 . S
C973 C970 1.409 . S
C973 C971 1.415 . S
C974 H964 0.930 . S
C974 C972 1.419 . S
C974 C975 1.362 . S
C975 H965 0.930 . S
C975 C968 1.409 . S
C975 C974 1.362 . S
H976 C982 0.930 . S
H977 C985 0.930 1_556 S
H978 C986 0.930 1_556 S
H979 C987 0.960 . S
H980 C990 0.930 . S
H981 C991 0.930 . S
C982 H976 0.930 . S
C982 C983 1.355 . S
C982 C984 1.415 . S
C983 C982 1.355 . S
C983 C985 1.419 . S
C984 C982 1.415 . S
C984 C989 1.425 . S
C984 C991 1.409 . S
C985 H977 0.930 1_554 S
C985 C983 1.419 . S
C985 C986 1.362 . S
C986 H978 0.930 1_554 S
C986 C985 1.362 . S
C986 C989 1.409 . S
C987 H979 0.960 . S
C987 C988 1.355 . S
C987 C989 1.415 . S
C988 C987 1.355 . S
C988 C990 1.419 . S
C989 C984 1.425 . S
C989 C986 1.409 . S
C989 C987 1.415 . S
C990 H980 0.930 . S
C990 C988 1.419 . S
C990 C991 1.362 . S
C991 H981 0.930 . S
C991 C984 1.409 . S
C991 C990 1.362 . S
H992 C998 0.930 . S
H993 C1001 0.930 . S
H994 C1002 0.930 . S
H995 C1003 0.930 . S
H996 C1006 0.930 . S
H997 C1007 0.930 . S
C998 H992 0.930 . S
C998 C999 1.355 . S
C998 C1000 1.415 . S
C999 C998 1.355 . S
C999 C1001 1.419 . S
C1000 C998 1.415 . S
C1000 C1005 1.425 . S
C1000 C1007 1.409 . S
C1001 H993 0.930 . S
C1001 C999 1.419 . S
C1001 C1002 1.362 . S
C1002 H994 0.930 . S
C1002 C1001 1.362 . S
C1002 C1005 1.409 . S
C1003 H995 0.930 . S
C1003 C1004 1.355 . S
C1003 C1005 1.415 . S
C1004 C1003 1.355 . S
C1004 C1006 1.419 . S
C1005 C1000 1.425 . S
C1005 C1002 1.409 . S
C1005 C1003 1.415 . S
C1006 H996 0.930 . S
C1006 C1004 1.419 . S
C1006 C1007 1.362 . S
C1007 H997 0.930 . S
C1007 C1000 1.409 . S
C1007 C1006 1.362 . S
H1008 C1014 0.930 . S
H1009 C1017 0.930 . S
H1010 C1018 0.930 1_655 S
H1011 C1019 0.930 . S
H1012 C1022 0.930 . S
H1013 C1023 0.930 . S
C1014 H1008 0.930 . S
C1014 C1015 1.355 . S
C1014 C1016 1.415 . S
C1015 C1014 1.355 . S
C1015 C1017 1.419 . S
C1016 C1014 1.415 . S
C1016 C1021 1.425 . S
C1016 C1023 1.409 . S
C1017 H1009 0.930 . S
C1017 C1015 1.419 . S
C1017 C1018 1.362 . S
C1018 H1010 0.930 1_455 S
C1018 C1017 1.362 . S
C1018 C1021 1.409 . S
C1019 H1011 0.930 . S
C1019 C1020 1.355 . S
C1019 C1021 1.415 . S
C1020 C1019 1.355 . S
C1020 C1022 1.419 . S
C1021 C1016 1.425 . S
C1021 C1018 1.409 . S
C1021 C1019 1.415 . S
C1022 H1012 0.930 . S
C1022 C1020 1.419 . S
C1022 C1023 1.362 . S
C1023 H1013 0.930 . S
C1023 C1016 1.409 . S
C1023 C1022 1.362 . S
H1024 C1030 0.930 . S
H1025 C1033 0.930 . S
H1026 C1034 0.930 . S
H1027 C1035 0.930 . S
H1028 C1038 0.930 . S
H1029 C1039 0.930 1_455 S
C1030 H1024 0.930 . S
C1030 C1031 1.355 . S
C1030 C1032 1.415 . S
C1031 C1030 1.355 . S
C1031 C1033 1.419 . S
C1032 C1030 1.415 . S
C1032 C1037 1.425 . S
C1032 C1039 1.409 . S
C1033 H1025 0.930 . S
C1033 C1031 1.419 . S
C1033 C1034 1.362 . S
C1034 H1026 0.930 . S
C1034 C1033 1.362 . S
C1034 C1037 1.409 . S
C1035 H1027 0.930 . S
C1035 C1036 1.355 . S
C1035 C1037 1.415 . S
C1036 C1035 1.355 . S
C1036 C1038 1.419 . S
C1037 C1032 1.425 . S
C1037 C1034 1.409 . S
C1037 C1035 1.415 . S
C1038 H1028 0.930 . S
C1038 C1036 1.419 . S
C1038 C1039 1.362 . S
C1039 H1029 0.930 1_655 S
C1039 C1032 1.409 . S
C1039 C1038 1.362 . S
H1040 C1046 0.930 . S
H1041 C1049 0.930 . S
H1042 C1050 0.930 . S
H1043 C1051 0.930 . S
H1044 C1054 0.930 . S
H1045 C1055 0.930 . S
C1046 H1040 0.930 . S
C1046 C1047 1.355 . S
C1046 C1048 1.415 . S
C1047 C1046 1.355 . S
C1047 C1049 1.419 . S
C1048 C1046 1.415 . S
C1048 C1053 1.425 . S
C1048 C1055 1.409 . S
C1049 H1041 0.930 . S
C1049 C1047 1.419 . S
C1049 C1050 1.362 . S
C1050 H1042 0.930 . S
C1050 C1049 1.362 . S
C1050 C1053 1.409 . S
C1051 H1043 0.930 . S
C1051 C1052 1.355 . S
C1051 C1053 1.415 . S
C1052 C1051 1.355 . S
C1052 C1054 1.419 . S
C1053 C1048 1.425 . S
C1053 C1050 1.409 . S
C1053 C1051 1.415 . S
C1054 H1044 0.930 . S
C1054 C1052 1.419 . S
C1054 C1055 1.362 . S
C1055 H1045 0.930 . S
C1055 C1048 1.409 . S
C1055 C1054 1.362 . S
H1056 C1062 0.930 . S
H1057 C1065 0.930 . S
H1058 C1066 0.930 . S
H1059 C1067 0.930 . S
H1060 C1070 0.930 . S
H1061 C1071 0.930 . S
C1062 H1056 0.930 . S
C1062 C1063 1.355 . S
C1062 C1064 1.415 . S
C1063 C1062 1.355 . S
C1063 C1065 1.419 . S
C1064 C1062 1.415 . S
C1064 C1069 1.425 . S
C1064 C1071 1.409 . S
C1065 H1057 0.930 . S
C1065 C1063 1.419 . S
C1065 C1066 1.362 . S
C1066 H1058 0.930 . S
C1066 C1065 1.362 . S
C1066 C1069 1.409 . S
C1067 H1059 0.930 . S
C1067 C1068 1.355 . S
C1067 C1069 1.415 . S
C1068 C1067 1.355 . S
C1068 C1070 1.419 . S
C1069 C1064 1.425 . S
C1069 C1066 1.409 . S
C1069 C1067 1.415 . S
C1070 H1060 0.930 . S
C1070 C1068 1.419 . S
C1070 C1071 1.362 . S
C1071 H1061 0.930 . S
C1071 C1064 1.409 . S
C1071 C1070 1.362 . S
H1072 C1078 0.930 . S
H1073 C1081 0.930 . S
H1074 C1082 0.930 . S
H1075 C1083 0.930 . S
H1076 C1086 0.930 . S
H1077 C1087 0.930 . S
C1078 H1072 0.930 . S
C1078 C1079 1.355 . S
C1078 C1080 1.415 . S
C1079 C1078 1.355 . S
C1079 C1081 1.419 . S
C1080 C1078 1.415 . S
C1080 C1085 1.425 . S
C1080 C1087 1.409 . S
C1081 H1073 0.930 . S
C1081 C1079 1.419 . S
C1081 C1082 1.362 . S
C1082 H1074 0.930 . S
C1082 C1081 1.362 . S
C1082 C1085 1.409 . S
C1083 H1075 0.930 . S
C1083 C1084 1.355 . S
C1083 C1085 1.415 . S
C1084 C1083 1.355 . S
C1084 C1086 1.419 . S
C1085 C1080 1.425 . S
C1085 C1082 1.409 . S
C1085 C1083 1.415 . S
C1086 H1076 0.930 . S
C1086 C1084 1.419 . S
C1086 C1087 1.362 . S
C1087 H1077 0.930 . S
C1087 C1080 1.409 . S
C1087 C1086 1.362 . S
H1088 C1094 0.930 . S
H1089 C1097 0.930 . S
H1090 C1098 0.930 . S
H1091 C1099 0.930 . S
H1092 C1102 0.930 . S
H1093 C1103 0.930 . S
C1094 H1088 0.930 . S
C1094 C1095 1.355 . S
C1094 C1096 1.415 . S
C1095 C1094 1.355 . S
C1095 C1097 1.419 . S
C1096 C1094 1.415 . S
C1096 C1101 1.425 . S
C1096 C1103 1.409 . S
C1097 H1089 0.930 . S
C1097 C1095 1.419 . S
C1097 C1098 1.362 . S
C1098 H1090 0.930 . S
C1098 C1097 1.362 . S
C1098 C1101 1.409 . S
C1099 H1091 0.930 . S
C1099 C1100 1.355 . S
C1099 C1101 1.415 . S
C1100 C1099 1.355 . S
C1100 C1102 1.419 . S
C1101 C1096 1.425 . S
C1101 C1098 1.409 . S
C1101 C1099 1.415 . S
C1102 H1092 0.930 . S
C1102 C1100 1.419 . S
C1102 C1103 1.362 . S
C1103 H1093 0.930 . S
C1103 C1096 1.409 . S
C1103 C1102 1.362 . S
H1104 C1110 0.930 . S
H1105 C1113 0.930 . S
H1106 C1114 0.930 . S
H1107 C1115 0.930 . S
H1108 C1118 0.930 . S
H1109 C1119 0.930 . S
C1110 H1104 0.930 . S
C1110 C1111 1.355 . S
C1110 C1112 1.415 . S
C1111 C1110 1.355 . S
C1111 C1113 1.419 . S
C1112 C1110 1.415 . S
C1112 C1117 1.425 . S
C1112 C1119 1.409 . S
C1113 H1105 0.930 . S
C1113 C1111 1.419 . S
C1113 C1114 1.362 . S
C1114 H1106 0.930 . S
C1114 C1113 1.362 . S
C1114 C1117 1.409 . S
C1115 H1107 0.930 . S
C1115 C1116 1.355 . S
C1115 C1117 1.415 . S
C1116 C1115 1.355 . S
C1116 C1118 1.419 . S
C1117 C1112 1.425 . S
C1117 C1114 1.409 . S
C1117 C1115 1.415 . S
C1118 H1108 0.930 . S
C1118 C1116 1.419 . S
C1118 C1119 1.362 . S
C1119 H1109 0.930 . S
C1119 C1112 1.409 . S
C1119 C1118 1.362 . S
H1120 C1126 0.930 . S
H1121 C1129 0.930 . S
H1122 C1130 0.930 . S
H1123 C1131 0.930 . S
H1124 C1134 0.930 . S
H1125 C1135 0.930 . S
C1126 H1120 0.930 . S
C1126 C1127 1.355 . S
C1126 C1128 1.415 . S
C1127 C1126 1.355 . S
C1127 C1129 1.419 . S
C1128 C1126 1.415 . S
C1128 C1133 1.425 . S
C1128 C1135 1.409 . S
C1129 H1121 0.930 . S
C1129 C1127 1.419 . S
C1129 C1130 1.362 . S
C1130 H1122 0.930 . S
C1130 C1129 1.362 . S
C1130 C1133 1.409 . S
C1131 H1123 0.930 . S
C1131 C1132 1.355 . S
C1131 C1133 1.415 . S
C1132 C1131 1.355 . S
C1132 C1134 1.419 . S
C1133 C1128 1.425 . S
C1133 C1130 1.409 . S
C1133 C1131 1.415 . S
C1134 H1124 0.930 . S
C1134 C1132 1.419 . S
C1134 C1135 1.362 . S
C1135 H1125 0.930 . S
C1135 C1128 1.409 . S
C1135 C1134 1.362 . S
H1136 C1142 0.930 . S
H1137 C1145 0.930 . S
H1138 C1146 0.930 . S
H1139 C1147 0.930 . S
H1140 C1150 0.930 . S
H1141 C1151 0.930 . S
C1142 H1136 0.930 . S
C1142 C1143 1.355 . S
C1142 C1144 1.415 . S
C1143 C1142 1.355 . S
C1143 C1145 1.419 . S
C1144 C1142 1.415 . S
C1144 C1149 1.425 . S
C1144 C1151 1.409 . S
C1145 H1137 0.930 . S
C1145 C1143 1.419 . S
C1145 C1146 1.362 . S
C1146 H1138 0.930 . S
C1146 C1145 1.362 . S
C1146 C1149 1.409 . S
C1147 H1139 0.930 . S
C1147 C1148 1.355 . S
C1147 C1149 1.415 . S
C1148 C1147 1.355 . S
C1148 C1150 1.419 . S
C1149 C1144 1.425 . S
C1149 C1146 1.409 . S
C1149 C1147 1.415 . S
C1150 H1140 0.930 . S
C1150 C1148 1.419 . S
C1150 C1151 1.362 . S
C1151 H1141 0.930 . S
C1151 C1144 1.409 . S
C1151 C1150 1.362 . S
H1152 C1158 0.930 . S
H1153 C1161 0.930 . S
H1154 C1162 0.930 . S
H1155 C1163 0.930 . S
H1156 C1166 0.930 . S
H1157 C1167 0.930 . S
C1158 H1152 0.930 . S
C1158 C1159 1.355 . S
C1158 C1160 1.415 . S
C1159 C1158 1.355 . S
C1159 C1161 1.419 . S
C1160 C1158 1.415 . S
C1160 C1165 1.425 . S
C1160 C1167 1.409 . S
C1161 H1153 0.930 . S
C1161 C1159 1.419 . S
C1161 C1162 1.362 . S
C1162 H1154 0.930 . S
C1162 C1161 1.362 . S
C1162 C1165 1.409 . S
C1163 H1155 0.930 . S
C1163 C1164 1.355 . S
C1163 C1165 1.415 . S
C1164 C1163 1.355 . S
C1164 C1166 1.419 . S
C1165 C1160 1.425 . S
C1165 C1162 1.409 . S
C1165 C1163 1.415 . S
C1166 H1156 0.930 . S
C1166 C1164 1.419 . S
C1166 C1167 1.362 . S
C1167 H1157 0.930 . S
C1167 C1160 1.409 . S
C1167 C1166 1.362 . S
H1168 C1174 0.930 . S
H1169 C1177 0.930 1_556 S
H1170 C1178 0.930 1_556 S
H1171 C1179 0.930 . S
H1172 C1182 0.930 . S
H1173 C1183 0.930 . S
C1174 H1168 0.930 . S
C1174 C1175 1.355 . S
C1174 C1176 1.415 . S
C1175 C1174 1.355 . S
C1175 C1177 1.419 . S
C1176 C1174 1.415 . S
C1176 C1181 1.425 . S
C1176 C1183 1.409 . S
C1177 H1169 0.930 1_554 S
C1177 C1175 1.419 . S
C1177 C1178 1.362 . S
C1178 H1170 0.930 1_554 S
C1178 C1177 1.362 . S
C1178 C1181 1.409 . S
C1179 H1171 0.930 . S
C1179 C1180 1.355 . S
C1179 C1181 1.415 . S
C1180 C1179 1.355 . S
C1180 C1182 1.419 . S
C1181 C1176 1.425 . S
C1181 C1178 1.409 . S
C1181 C1179 1.415 . S
C1182 H1172 0.930 . S
C1182 C1180 1.419 . S
C1182 C1183 1.362 . S
C1183 H1173 0.930 . S
C1183 C1176 1.409 . S
C1183 C1182 1.362 . S
H1184 C1190 0.930 1_455 S
H1185 C1193 0.930 . S
H1186 C1194 0.930 . S
H1187 C1195 0.930 . S
H1188 C1198 0.930 . S
H1189 C1199 0.930 . S
C1190 H1184 0.930 1_655 S
C1190 C1191 1.355 . S
C1190 C1192 1.415 . S
C1191 C1190 1.355 . S
C1191 C1193 1.419 . S
C1192 C1190 1.415 . S
C1192 C1197 1.425 . S
C1192 C1199 1.409 . S
C1193 H1185 0.930 . S
C1193 C1191 1.419 . S
C1193 C1194 1.362 . S
C1194 H1186 0.930 . S
C1194 C1193 1.362 . S
C1194 C1197 1.409 . S
C1195 H1187 0.930 . S
C1195 C1196 1.355 . S
C1195 C1197 1.415 . S
C1196 C1195 1.355 . S
C1196 C1198 1.419 . S
C1197 C1192 1.425 . S
C1197 C1194 1.409 . S
C1197 C1195 1.415 . S
C1198 H1188 0.930 . S
C1198 C1196 1.419 . S
C1198 C1199 1.362 . S
C1199 H1189 0.930 . S
C1199 C1192 1.409 . S
C1199 C1198 1.362 . S
H1200 C1206 0.930 . S
H1201 C1209 0.930 . S
H1202 C1210 0.930 . S
H1203 C1211 0.930 . S
H1204 C1214 0.930 . S
H1205 C1215 0.930 . S
C1206 H1200 0.930 . S
C1206 C1207 1.355 . S
C1206 C1208 1.415 . S
C1207 C1206 1.355 . S
C1207 C1209 1.419 . S
C1208 C1206 1.415 . S
C1208 C1213 1.425 . S
C1208 C1215 1.409 . S
C1209 H1201 0.930 . S
C1209 C1207 1.419 . S
C1209 C1210 1.362 . S
C1210 H1202 0.930 . S
C1210 C1209 1.362 . S
C1210 C1213 1.409 . S
C1211 H1203 0.930 . S
C1211 C1212 1.355 . S
C1211 C1213 1.415 . S
C1212 C1211 1.355 . S
C1212 C1214 1.419 . S
C1213 C1208 1.425 . S
C1213 C1210 1.409 . S
C1213 C1211 1.415 . S
C1214 H1204 0.930 . S
C1214 C1212 1.419 . S
C1214 C1215 1.362 . S
C1215 H1205 0.930 . S
C1215 C1208 1.409 . S
C1215 C1214 1.362 . S
H1216 C1222 0.930 . S
H1217 C1225 0.930 . S
H1218 C1226 0.930 . S
H1219 C1227 0.930 . S
H1220 C1230 0.930 1_455 S
H1221 C1231 0.930 . S
C1222 H1216 0.930 . S
C1222 C1223 1.355 . S
C1222 C1224 1.415 . S
C1223 C1222 1.355 . S
C1223 C1225 1.419 . S
C1224 C1222 1.415 . S
C1224 C1229 1.425 . S
C1224 C1231 1.409 . S
C1225 H1217 0.930 . S
C1225 C1223 1.419 . S
C1225 C1226 1.362 . S
C1226 H1218 0.930 . S
C1226 C1225 1.362 . S
C1226 C1229 1.409 . S
C1227 H1219 0.930 . S
C1227 C1228 1.355 . S
C1227 C1229 1.415 . S
C1228 C1227 1.355 . S
C1228 C1230 1.419 . S
C1229 C1224 1.425 . S
C1229 C1226 1.409 . S
C1229 C1227 1.415 . S
C1230 H1220 0.930 1_655 S
C1230 C1228 1.419 . S
C1230 C1231 1.362 . S
C1231 H1221 0.930 . S
C1231 C1224 1.409 . S
C1231 C1230 1.362 . S
H1232 C1238 0.930 . S
H1233 C1241 0.930 . S
H1234 C1242 0.930 . S
H1235 C1243 0.930 . S
H1236 C1246 0.930 . S
H1237 C1247 0.930 . S
C1238 H1232 0.930 . S
C1238 C1239 1.355 . S
C1238 C1240 1.415 . S
C1239 C1238 1.355 . S
C1239 C1241 1.419 . S
C1240 C1238 1.415 . S
C1240 C1245 1.425 . S
C1240 C1247 1.409 . S
C1241 H1233 0.930 . S
C1241 C1239 1.419 . S
C1241 C1242 1.362 . S
C1242 H1234 0.930 . S
C1242 C1241 1.362 . S
C1242 C1245 1.409 . S
C1243 H1235 0.930 . S
C1243 C1244 1.355 . S
C1243 C1245 1.415 . S
C1244 C1243 1.355 . S
C1244 C1246 1.419 . S
C1245 C1240 1.425 . S
C1245 C1242 1.409 . S
C1245 C1243 1.415 . S
C1246 H1236 0.930 . S
C1246 C1244 1.419 . S
C1246 C1247 1.362 . S
C1247 H1237 0.930 . S
C1247 C1240 1.409 . S
C1247 C1246 1.362 . S
H1248 C1254 0.930 . S
H1249 C1257 0.930 . S
H1250 C1258 0.930 . S
H1251 C1259 0.930 . S
H1252 C1262 0.930 1_655 S
H1253 C1263 0.930 . S
C1254 H1248 0.930 . S
C1254 C1255 1.355 . S
C1254 C1256 1.415 . S
C1255 C1254 1.355 . S
C1255 C1257 1.419 . S
C1256 C1254 1.415 . S
C1256 C1261 1.425 . S
C1256 C1263 1.409 . S
C1257 H1249 0.930 . S
C1257 C1255 1.419 . S
C1257 C1258 1.362 . S
C1258 H1250 0.930 . S
C1258 C1257 1.362 . S
C1258 C1261 1.409 . S
C1259 H1251 0.930 . S
C1259 C1260 1.355 . S
C1259 C1261 1.415 . S
C1260 C1259 1.355 . S
C1260 C1262 1.419 . S
C1261 C1256 1.425 . S
C1261 C1258 1.409 . S
C1261 C1259 1.415 . S
C1262 H1252 0.930 1_455 S
C1262 C1260 1.419 . S
C1262 C1263 1.362 . S
C1263 H1253 0.930 . S
C1263 C1256 1.409 . S
C1263 C1262 1.362 . S
H1264 C1270 0.930 . S
H1265 C1273 0.930 . S
H1266 C1274 0.930 . S
H1267 C1275 0.930 . S
H1268 C1278 0.930 . S
H1269 C1279 0.930 . S
C1270 H1264 0.930 . S
C1270 C1271 1.355 . S
C1270 C1272 1.415 . S
C1271 C1270 1.355 . S
C1271 C1273 1.419 . S
C1272 C1270 1.415 . S
C1272 C1277 1.425 . S
C1272 C1279 1.409 . S
C1273 H1265 0.930 . S
C1273 C1271 1.419 . S
C1273 C1274 1.362 . S
C1274 H1266 0.930 . S
C1274 C1273 1.362 . S
C1274 C1277 1.409 . S
C1275 H1267 0.930 . S
C1275 C1276 1.355 . S
C1275 C1277 1.415 . S
C1276 C1275 1.355 . S
C1276 C1278 1.419 . S
C1277 C1272 1.425 . S
C1277 C1274 1.409 . S
C1277 C1275 1.415 . S
C1278 H1268 0.930 . S
C1278 C1276 1.419 . S
C1278 C1279 1.362 . S
C1279 H1269 0.930 . S
C1279 C1272 1.409 . S
C1279 C1278 1.362 . S
H1280 C1286 0.930 . S
H1281 C1289 0.930 . S
H1282 C1290 0.930 . S
H1283 C1291 0.930 1_655 S
H1284 C1294 0.930 . S
H1285 C1295 0.930 . S
C1286 H1280 0.930 . S
C1286 C1287 1.355 . S
C1286 C1288 1.415 . S
C1287 C1286 1.355 . S
C1287 C1289 1.419 . S
C1288 C1286 1.415 . S
C1288 C1293 1.425 . S
C1288 C1295 1.409 . S
C1289 H1281 0.930 . S
C1289 C1287 1.419 . S
C1289 C1290 1.362 . S
C1290 H1282 0.930 . S
C1290 C1289 1.362 . S
C1290 C1293 1.409 . S
C1291 H1283 0.930 1_455 S
C1291 C1292 1.355 . S
C1291 C1293 1.415 . S
C1292 C1291 1.355 . S
C1292 C1294 1.419 . S
C1293 C1288 1.425 . S
C1293 C1290 1.409 . S
C1293 C1291 1.415 . S
C1294 H1284 0.930 . S
C1294 C1292 1.419 . S
C1294 C1295 1.362 . S
C1295 H1285 0.930 . S
C1295 C1288 1.409 . S
C1295 C1294 1.362 . S
H1296 C1302 0.930 . S
H1297 C1305 0.930 . S
H1298 C1306 0.930 . S
H1299 C1307 0.930 . S
H1300 C1310 0.930 . S
H1301 C1311 0.930 . S
C1302 H1296 0.930 . S
C1302 C1303 1.355 . S
C1302 C1304 1.415 . S
C1303 C1302 1.355 . S
C1303 C1305 1.419 . S
C1304 C1302 1.415 . S
C1304 C1309 1.425 . S
C1304 C1311 1.409 . S
C1305 H1297 0.930 . S
C1305 C1303 1.419 . S
C1305 C1306 1.362 . S
C1306 H1298 0.930 . S
C1306 C1305 1.362 . S
C1306 C1309 1.409 . S
C1307 H1299 0.930 . S
C1307 C1308 1.355 . S
C1307 C1309 1.415 . S
C1308 C1307 1.355 . S
C1308 C1310 1.419 . S
C1309 C1304 1.425 . S
C1309 C1306 1.409 . S
C1309 C1307 1.415 . S
C1310 H1300 0.930 . S
C1310 C1308 1.419 . S
C1310 C1311 1.362 . S
C1311 H1301 0.930 . S
C1311 C1304 1.409 . S
C1311 C1310 1.362 . S
H1312 C1318 0.930 . S
H1313 C1321 0.930 . S
H1314 C1322 0.930 . S
H1315 C1323 0.930 . S
H1316 C1326 0.930 . S
H1317 C1327 0.930 . S
C1318 H1312 0.930 . S
C1318 C1319 1.355 . S
C1318 C1320 1.415 . S
C1319 C1318 1.355 . S
C1319 C1321 1.419 1_655 S
C1320 C1318 1.415 . S
C1320 C1325 1.425 . S
C1320 C1327 1.409 . S
C1321 H1313 0.930 . S
C1321 C1319 1.419 1_455 S
C1321 C1322 1.362 1_455 S
C1322 H1314 0.930 . S
C1322 C1321 1.362 1_655 S
C1322 C1325 1.409 . S
C1323 H1315 0.930 . S
C1323 C1324 1.355 . S
C1323 C1325 1.415 . S
C1324 C1323 1.355 . S
C1324 C1326 1.419 . S
C1325 C1320 1.425 . S
C1325 C1322 1.409 . S
C1325 C1323 1.415 . S
C1326 H1316 0.930 . S
C1326 C1324 1.419 . S
C1326 C1327 1.362 . S
C1327 H1317 0.930 . S
C1327 C1320 1.409 . S
C1327 C1326 1.362 . S
H1328 C1334 0.930 . S
H1329 C1337 0.930 . S
H1330 C1338 0.930 . S
H1331 C1339 0.930 . S
H1332 C1342 0.930 . S
H1333 C1343 0.930 . S
C1334 H1328 0.930 . S
C1334 C1335 1.355 . S
C1334 C1336 1.415 . S
C1335 C1334 1.355 . S
C1335 C1337 1.419 . S
C1336 C1334 1.415 . S
C1336 C1341 1.425 . S
C1336 C1343 1.409 . S
C1337 H1329 0.930 . S
C1337 C1335 1.419 . S
C1337 C1338 1.362 . S
C1338 H1330 0.930 . S
C1338 C1337 1.362 . S
C1338 C1341 1.409 . S
C1339 H1331 0.930 . S
C1339 C1340 1.355 . S
C1339 C1341 1.415 . S
C1340 C1339 1.355 . S
C1340 C1342 1.419 . S
C1341 C1336 1.425 . S
C1341 C1338 1.409 . S
C1341 C1339 1.415 . S
C1342 H1332 0.930 . S
C1342 C1340 1.419 . S
C1342 C1343 1.362 . S
C1343 H1333 0.930 . S
C1343 C1336 1.409 . S
C1343 C1342 1.362 . S
H1344 C1350 0.930 . S
H1345 C1353 0.930 . S
H1346 C1354 0.930 . S
H1347 C1355 0.930 . S
H1348 C1358 0.930 . S
H1349 C1359 0.930 . S
C1350 H1344 0.930 . S
C1350 C1351 1.355 . S
C1350 C1352 1.415 . S
C1351 C1350 1.355 . S
C1351 C1353 1.419 1_655 S
C1352 C1350 1.415 . S
C1352 C1357 1.425 . S
C1352 C1359 1.409 . S
C1353 H1345 0.930 . S
C1353 C1351 1.419 1_455 S
C1353 C1354 1.362 1_455 S
C1354 H1346 0.930 . S
C1354 C1353 1.362 1_655 S
C1354 C1357 1.409 . S
C1355 H1347 0.930 . S
C1355 C1356 1.355 . S
C1355 C1357 1.415 . S
C1356 C1355 1.355 . S
C1356 C1358 1.419 . S
C1357 C1352 1.425 . S
C1357 C1354 1.409 . S
C1357 C1355 1.415 . S
C1358 H1348 0.930 . S
C1358 C1356 1.419 . S
C1358 C1359 1.362 . S
C1359 H1349 0.930 . S
C1359 C1352 1.409 . S
C1359 C1358 1.362 . S
H1360 C1366 0.930 . S
H1361 C1369 0.930 . S
H1362 C1370 0.930 . S
H1363 C1371 0.930 . S
H1364 C1374 0.930 . S
H1365 C1375 0.930 . S
C1366 H1360 0.930 . S
C1366 C1367 1.355 . S
C1366 C1368 1.415 . S
C1367 C1366 1.355 . S
C1367 C1369 1.419 . S
C1368 C1366 1.415 . S
C1368 C1373 1.425 . S
C1368 C1375 1.409 . S
C1369 H1361 0.930 . S
C1369 C1367 1.419 . S
C1369 C1370 1.362 . S
C1370 H1362 0.930 . S
C1370 C1369 1.362 . S
C1370 C1373 1.409 . S
C1371 H1363 0.930 . S
C1371 C1372 1.355 . S
C1371 C1373 1.415 . S
C1372 C1371 1.355 . S
C1372 C1374 1.419 . S
C1373 C1368 1.425 . S
C1373 C1370 1.409 . S
C1373 C1371 1.415 . S
C1374 H1364 0.930 . S
C1374 C1372 1.419 . S
C1374 C1375 1.362 . S
C1375 H1365 0.930 . S
C1375 C1368 1.409 . S
C1375 C1374 1.362 . S
H1376 C1382 0.930 . S
H1377 C1385 0.930 . S
H1378 C1386 0.930 . S
H1379 C1387 0.930 . S
H1380 C1390 0.930 . S
H1381 C1391 0.930 . S
C1382 H1376 0.930 . S
C1382 C1383 1.355 . S
C1382 C1384 1.415 . S
C1383 C1382 1.355 . S
C1383 C1385 1.419 1_455 S
C1384 C1382 1.415 . S
C1384 C1389 1.425 . S
C1384 C1391 1.409 . S
C1385 H1377 0.930 . S
C1385 C1383 1.419 1_655 S
C1385 C1386 1.362 1_655 S
C1386 H1378 0.930 . S
C1386 C1385 1.362 1_455 S
C1386 C1389 1.409 . S
C1387 H1379 0.930 . S
C1387 C1388 1.355 . S
C1387 C1389 1.415 . S
C1388 C1387 1.355 . S
C1388 C1390 1.419 . S
C1389 C1384 1.425 . S
C1389 C1386 1.409 . S
C1389 C1387 1.415 . S
C1390 H1380 0.930 . S
C1390 C1388 1.419 . S
C1390 C1391 1.362 . S
C1391 H1381 0.930 . S
C1391 C1384 1.409 . S
C1391 C1390 1.362 . S
H1392 C1398 0.930 . S
H1393 C1401 0.930 . S
H1394 C1402 0.930 . S
H1395 C1403 0.930 . S
H1396 C1406 0.930 . S
H1397 C1407 0.930 . S
C1398 H1392 0.930 . S
C1398 C1399 1.355 . S
C1398 C1400 1.415 . S
C1399 C1398 1.355 . S
C1399 C1401 1.419 . S
C1400 C1398 1.415 . S
C1400 C1405 1.425 . S
C1400 C1407 1.409 . S
C1401 H1393 0.930 . S
C1401 C1399 1.419 . S
C1401 C1402 1.362 . S
C1402 H1394 0.930 . S
C1402 C1401 1.362 . S
C1402 C1405 1.409 . S
C1403 H1395 0.930 . S
C1403 C1404 1.355 . S
C1403 C1405 1.415 . S
C1404 C1403 1.355 . S
C1404 C1406 1.419 . S
C1405 C1400 1.425 . S
C1405 C1402 1.409 . S
C1405 C1403 1.415 . S
C1406 H1396 0.930 . S
C1406 C1404 1.419 . S
C1406 C1407 1.362 . S
C1407 H1397 0.930 . S
C1407 C1400 1.409 . S
C1407 C1406 1.362 . S
H1408 C1414 0.930 . S
H1409 C1417 0.930 . S
H1410 C1418 0.930 . S
H1411 C1419 0.930 . S
H1412 C1422 0.930 . S
H1413 C1423 0.930 . S
C1414 H1408 0.930 . S
C1414 C1415 1.355 . S
C1414 C1416 1.415 . S
C1415 C1414 1.355 . S
C1415 C1417 1.419 1_455 S
C1416 C1414 1.415 . S
C1416 C1421 1.425 . S
C1416 C1423 1.409 . S
C1417 H1409 0.930 . S
C1417 C1415 1.419 1_655 S
C1417 C1418 1.362 1_655 S
C1418 H1410 0.930 . S
C1418 C1417 1.362 1_455 S
C1418 C1421 1.409 . S
C1419 H1411 0.930 . S
C1419 C1420 1.355 . S
C1419 C1421 1.415 . S
C1420 C1419 1.355 . S
C1420 C1422 1.419 . S
C1421 C1416 1.425 . S
C1421 C1418 1.409 . S
C1421 C1419 1.415 . S
C1422 H1412 0.930 . S
C1422 C1420 1.419 . S
C1422 C1423 1.362 . S
C1423 H1413 0.930 . S
C1423 C1416 1.409 . S
C1423 C1422 1.362 . S
H1424 C1430 0.930 . S
H1425 C1433 0.930 . S
H1426 C1434 0.930 . S
H1427 C1435 0.930 . S
H1428 C1438 0.930 . S
H1429 C1439 0.930 . S
C1430 H1424 0.930 . S
C1430 C1431 1.355 . S
C1430 C1432 1.415 . S
C1431 C1430 1.355 . S
C1431 C1433 1.419 . S
C1432 C1430 1.415 . S
C1432 C1437 1.425 . S
C1432 C1439 1.409 . S
C1433 H1425 0.930 . S
C1433 C1431 1.419 . S
C1433 C1434 1.362 . S
C1434 H1426 0.930 . S
C1434 C1433 1.362 . S
C1434 C1437 1.409 . S
C1435 H1427 0.930 . S
C1435 C1436 1.355 . S
C1435 C1437 1.415 . S
C1436 C1435 1.355 . S
C1436 C1438 1.419 . S
C1437 C1432 1.425 . S
C1437 C1434 1.409 . S
C1437 C1435 1.415 . S
C1438 H1428 0.930 . S
C1438 C1436 1.419 . S
C1438 C1439 1.362 . S
C1439 H1429 0.930 . S
C1439 C1432 1.409 . S
C1439 C1438 1.362 . S
C423 C42 1.393 . S
C428 C3 1.402 . S
C439 C31 1.397 . S
C444 C16 1.384 . S
C455 C94 1.383 . S
C460 C57 1.374 . S
C471 C81 1.401 . S
C476 C68 1.400 . S
C487 C109 1.401 . S
C492 C146 1.400 . S
C503 C120 1.385 . S
C508 C135 1.375 . S
C519 C198 1.380 . S
C524 C161 1.374 . S
C535 C174 1.399 . S
C540 C185 1.402 . S
C551 C211 1.379 . S
C556 C250 1.374 . S
C567 C224 1.375 . S
C572 C239 1.376 . S
C583 C302 1.394 . S
C588 C263 1.402 . S
C599 C289 1.379 . S
C604 C278 1.392 . S
C615 C354 1.397 . S
C620 C315 1.385 . S
C631 C328 1.374 . S
C636 C341 1.379 . S
C647 C367 1.375 . S
C652 C408 1.376 . S
C663 C382 1.383 . S
C668 C393 1.375 . S
C679 C265 1.343 . S
C684 C5 1.343 . S
C695 C172 1.406 . S
C700 C18 1.406 . S
C711 C29 1.367 . S
C716 C395 1.367 . S
C727 C44 1.343 . S
C732 C96 1.343 . S
C743 C213 1.405 . S
C748 C55 1.405 . S
C759 C122 1.344 . S
C764 C70 1.344 . S
C775 C343 1.370 . S
C780 C83 1.370 . S
C791 C107 1.343 . S
C796 C369 1.343 . S
C807 C291 1.404 . S
C812 C133 1.404 . S
C823 C200 1.349 . S
C828 C148 1.349 . S
C839 C317 1.366 . S
C844 C159 1.366 . S
C855 C187 1.381 . S
C860 C237 1.381 . S
C871 C380 1.382 . S
C876 C226 1.382 . S
C887 C252 1.377 . S
C892 C304 1.377 . S
C903 C330 1.404 . S
C908 C276 1.404 . S
C919 C406 1.352 . S
C924 C356 1.352 . S
C935 C17 1.442 . S
C940 C4 1.419 . S
C951 C36 1.426 . S
C956 C43 1.411 . S
C967 C62 1.434 . S
C972 C69 1.456 . S
C983 C95 1.449 . S
C988 C82 1.462 . S
C999 C114 1.411 . S
C1004 C121 1.415 . S
C1015 C140 1.415 . S
C1020 C147 1.413 . S
C1031 C179 1.411 . S
C1036 C166 1.418 . S
C1047 C186 1.458 . S
C1052 C199 1.437 . S
C1063 C212 1.429 . S
C1068 C225 1.412 . S
C1079 C244 1.411 . S
C1084 C251 1.416 . S
C1095 C264 1.461 . S
C1100 C283 1.444 . S
C1111 C303 1.410 . S
C1116 C290 1.424 . S
C1127 C329 1.462 . S
C1132 C316 1.453 . S
C1143 C342 1.458 . S
C1148 C355 1.461 . S
C1159 C368 1.414 . S
C1164 C387 1.412 . S
C1175 C413 1.417 . S
C1180 C394 1.439 . S
C1191 C10 1.510 1_655 S
C1196 C257 1.507 . S
C1207 C23 1.505 . S
C1212 C238 1.509 . S
C1223 C231 1.510 . S
C1228 C30 1.504 1_655 S
C1239 C49 1.503 . S
C1244 C218 1.513 . S
C1255 C309 1.505 . S
C1260 C56 1.510 1_455 S
C1271 C75 1.503 . S
C1276 C296 1.512 . S
C1287 C277 1.508 . S
C1292 C88 1.509 1_455 S
C1303 C101 1.513 . S
C1308 C270 1.504 . S
C1319 C108 1.506 1_655 S
C1324 C361 1.509 . S
C1335 C127 1.506 . S
C1340 C348 1.508 . S
C1351 C134 1.506 1_655 S
C1356 C335 1.508 . S
C1367 C322 1.511 . S
C1372 C153 1.506 . S
C1383 C160 1.509 1_455 S
C1388 C407 1.506 . S
C1399 C173 1.506 . S
C1404 C400 1.511 . S
C1415 C192 1.507 1_455 S
C1420 C381 1.507 . S
C1431 C374 1.512 . S
C1436 C205 1.503 . S
