# Generated by pormake.
# Topology dia-f, (3)-cn, num edge types: 1
# Building blocks:
#     Node 0, Type 0, BuildingBlock: OLANEW_clean_sbu_2, # of connection points: 3
#     Node 1, Type 0, BuildingBlock: OLANEW_clean_sbu_2, # of connection points: 3
#     Node 2, Type 0, BuildingBlock: OLANEW_clean_sbu_2, # of connection points: 3
#     Node 3, Type 0, BuildingBlock: OLANEW_clean_sbu_2, # of connection points: 3
#     Node 4, Type 0, BuildingBlock: OLANEW_clean_sbu_2, # of connection points: 3
#     Node 5, Type 0, BuildingBlock: OLANEW_clean_sbu_2, # of connection points: 3
#     Node 6, Type 0, BuildingBlock: OLANEW_clean_sbu_2, # of connection points: 3
#     Node 7, Type 0, BuildingBlock: OLANEW_clean_sbu_2, # of connection points: 3
#     Node 8, Type 0, BuildingBlock: OLANEW_clean_sbu_2, # of connection points: 3
#     Node 9, Type 0, BuildingBlock: OLANEW_clean_sbu_2, # of connection points: 3
#     Node 10, Type 0, BuildingBlock: OLANEW_clean_sbu_2, # of connection points: 3
#     Node 11, Type 0, BuildingBlock: OLANEW_clean_sbu_2, # of connection points: 3
#     Node 12, Type 0, BuildingBlock: OLANEW_clean_sbu_2, # of connection points: 3
#     Node 13, Type 0, BuildingBlock: OLANEW_clean_sbu_2, # of connection points: 3
#     Node 14, Type 0, BuildingBlock: OLANEW_clean_sbu_2, # of connection points: 3
#     Node 15, Type 0, BuildingBlock: OLANEW_clean_sbu_2, # of connection points: 3
#     Edge 16, Type (0, 0), BuildingBlock: XIVTED_clean_linker_0, # of connection points: 2
#     Edge 17, Type (0, 0), BuildingBlock: XIVTED_clean_linker_0, # of connection points: 2
#     Edge 18, Type (0, 0), BuildingBlock: XIVTED_clean_linker_0, # of connection points: 2
#     Edge 19, Type (0, 0), BuildingBlock: XIVTED_clean_linker_0, # of connection points: 2
#     Edge 20, Type (0, 0), BuildingBlock: XIVTED_clean_linker_0, # of connection points: 2
#     Edge 21, Type (0, 0), BuildingBlock: XIVTED_clean_linker_0, # of connection points: 2
#     Edge 22, Type (0, 0), BuildingBlock: XIVTED_clean_linker_0, # of connection points: 2
#     Edge 23, Type (0, 0), BuildingBlock: XIVTED_clean_linker_0, # of connection points: 2
#     Edge 24, Type (0, 0), BuildingBlock: XIVTED_clean_linker_0, # of connection points: 2
#     Edge 25, Type (0, 0), BuildingBlock: XIVTED_clean_linker_0, # of connection points: 2
#     Edge 26, Type (0, 0), BuildingBlock: XIVTED_clean_linker_0, # of connection points: 2
#     Edge 27, Type (0, 0), BuildingBlock: XIVTED_clean_linker_0, # of connection points: 2
#     Edge 28, Type (0, 0), BuildingBlock: XIVTED_clean_linker_0, # of connection points: 2
#     Edge 29, Type (0, 0), BuildingBlock: XIVTED_clean_linker_0, # of connection points: 2
#     Edge 30, Type (0, 0), BuildingBlock: XIVTED_clean_linker_0, # of connection points: 2
#     Edge 31, Type (0, 0), BuildingBlock: XIVTED_clean_linker_0, # of connection points: 2
#     Edge 32, Type (0, 0), BuildingBlock: XIVTED_clean_linker_0, # of connection points: 2
#     Edge 33, Type (0, 0), BuildingBlock: XIVTED_clean_linker_0, # of connection points: 2
#     Edge 34, Type (0, 0), BuildingBlock: XIVTED_clean_linker_0, # of connection points: 2
#     Edge 35, Type (0, 0), BuildingBlock: XIVTED_clean_linker_0, # of connection points: 2
#     Edge 36, Type (0, 0), BuildingBlock: XIVTED_clean_linker_0, # of connection points: 2
#     Edge 37, Type (0, 0), BuildingBlock: XIVTED_clean_linker_0, # of connection points: 2
#     Edge 38, Type (0, 0), BuildingBlock: XIVTED_clean_linker_0, # of connection points: 2
#     Edge 39, Type (0, 0), BuildingBlock: XIVTED_clean_linker_0, # of connection points: 2
# Relax obj value: 0.008
# Max RMSD: 0.057
# Mean RMSD: 0.042
data_MOF--net-dia-f--node1-OLANEW_clean_sbu_2--edge1-XIVTED_clean_linker_0
_symmetry_space_group_name_H-M    P1
_symmetry_Int_Tables_number       1
_symmetry_cell_setting            triclinic
loop_
_symmetry_equiv_pos_as_xyz
'x, y, z'
_cell_length_a     74.412524
_cell_length_b     74.327779
_cell_length_c     19.489454
_cell_angle_alpha  90.028386
_cell_angle_beta   89.99197
_cell_angle_gamma 97.260814
loop_
_atom_site_label
_atom_site_type_symbol
_atom_site_fract_x
_atom_site_fract_y
_atom_site_fract_z
_atom_type_partial_charge
O0 O 0.06546 0.61 0.11656 0.0
Cd1 Cd 0.03727 0.58987 0.13432 0.0
O2 O 0.07799 0.60454 0.21533 0.0
Cd3 Cd 0.05246 0.58965 0.25017 0.0
O4 O 0.02465 0.59162 0.28192 0.0
C5 C 0.02181 0.59669 0.34281 0.0
O6 O 0.03545 0.5989 0.38609 0.0
C7 C 0.07893 0.61237 0.15719 0.0
C8 C 0.03812 0.55767 0.06206 0.0
O9 O 0.03315 0.5717 0.03305 0.0
O10 O 0.04249 0.55877 0.12568 0.0
O11 O 0.68541 0.71678 0.5889 0.0
Cd12 Cd 0.70551 0.7401 0.64926 0.0
O13 O 0.67508 0.73852 0.53152 0.0
Cd14 Cd 0.66035 0.75231 0.4547 0.0
O15 O 0.64733 0.77207 0.39618 0.0
C16 C 0.64209 0.78525 0.42894 0.0
O17 O 0.6445 0.78616 0.4957 0.0
C18 C 0.67488 0.72164 0.54305 0.0
C19 C 0.74175 0.73685 0.62178 0.0
O20 O 0.73382 0.72936 0.6748 0.0
O21 O 0.73256 0.74596 0.58204 0.0
O22 O 0.59833 0.40458 0.72253 0.0
Cd23 Cd 0.58852 0.43222 0.76909 0.0
O24 O 0.5751 0.38782 0.76837 0.0
Cd25 Cd 0.55629 0.36326 0.78926 0.0
O26 O 0.53522 0.34147 0.81962 0.0
C27 C 0.52376 0.34488 0.86467 0.0
O28 O 0.52508 0.36125 0.89122 0.0
C29 C 0.58952 0.38903 0.73264 0.0
C30 C 0.58884 0.45836 0.6665 0.0
O31 O 0.60313 0.45663 0.70135 0.0
O32 O 0.57431 0.44784 0.68066 0.0
O33 O 0.90842 0.28573 0.55289 0.0
Cd34 Cd 0.89321 0.25465 0.55731 0.0
O35 O 0.91901 0.28304 0.44858 0.0
Cd36 Cd 0.91316 0.25359 0.45342 0.0
O37 O 0.92576 0.23053 0.49105 0.0
C38 C 0.93456 0.23343 0.54671 0.0
O39 O 0.93433 0.2491 0.5778 0.0
C40 C 0.91674 0.29283 0.50062 0.0
C41 C 0.85598 0.25471 0.54279 0.0
O42 O 0.86343 0.25568 0.60218 0.0
O43 O 0.86612 0.25346 0.49028 0.0
O44 O 0.07026 0.39588 0.74633 0.0
Cd45 Cd 0.04663 0.41364 0.7088 0.0
O46 O 0.07503 0.38564 0.64285 0.0
Cd47 Cd 0.05272 0.39783 0.59671 0.0
O48 O 0.02552 0.39278 0.55333 0.0
C49 C 0.01184 0.39177 0.59284 0.0
O50 O 0.01436 0.39557 0.65823 0.0
C51 C 0.07882 0.3864 0.70649 0.0
C52 C 0.04564 0.44496 0.7864 0.0
O53 O 0.03749 0.42968 0.80674 0.0
O54 O 0.05434 0.44541 0.72951 0.0
O55 O 0.92485 0.74517 0.45116 0.0
Cd56 Cd 0.90608 0.71654 0.47681 0.0
O57 O 0.92681 0.73837 0.34178 0.0
Cd58 Cd 0.91501 0.71021 0.35547 0.0
O59 O 0.92122 0.68232 0.36059 0.0
C60 C 0.92882 0.67725 0.41437 0.0
O61 O 0.93104 0.68837 0.46699 0.0
C62 C 0.93025 0.74957 0.39083 0.0
C63 C 0.87049 0.72161 0.50771 0.0
O64 O 0.88226 0.72099 0.55539 0.0
O65 O 0.87556 0.71984 0.44549 0.0
O66 O 0.60924 0.60816 0.26467 0.0
Cd67 Cd 0.59393 0.58154 0.20592 0.0
O68 O 0.58615 0.62328 0.25075 0.0
Cd69 Cd 0.56818 0.64437 0.25794 0.0
O70 O 0.54616 0.66058 0.23843 0.0
C71 C 0.53405 0.65442 0.19549 0.0
O72 O 0.53528 0.63874 0.16584 0.0
C73 C 0.60197 0.62253 0.27452 0.0
C74 C 0.59108 0.5524 0.29684 0.0
O75 O 0.60521 0.55629 0.25951 0.0
O76 O 0.57808 0.56205 0.29001 0.0
O77 O 0.67144 0.22564 0.49102 0.0
Cd78 Cd 0.68475 0.25734 0.48421 0.0
O79 O 0.64899 0.22849 0.4201 0.0
Cd80 Cd 0.6542 0.25799 0.42242 0.0
O81 O 0.64728 0.28351 0.46387 0.0
C82 C 0.63783 0.28207 0.51841 0.0
O83 O 0.63352 0.2659 0.5454 0.0
C84 C 0.65774 0.21854 0.4572 0.0
C85 C 0.72224 0.25921 0.49731 0.0
O86 O 0.71212 0.26022 0.55006 0.0
O87 O 0.71464 0.25766 0.43823 0.0
O88 O 0.40761 0.25479 0.02432 0.0
Cd89 Cd 0.38432 0.22955 0.05107 0.0
O90 O 0.42325 0.23267 0.00072 0.0
Cd91 Cd 0.44618 0.21837 0.97371 0.0
O92 O 0.46381 0.19788 0.95007 0.0
C93 C 0.47641 0.19481 0.99075 0.0
O94 O 0.47914 0.20454 0.04695 0.0
C95 C 0.42231 0.24963 0.00355 0.0
C96 C 0.34994 0.23875 0.07899 0.0
O97 O 0.36121 0.23703 0.12759 0.0
O98 O 0.35512 0.23657 0.01714 0.0
O99 O 0.17457 0.73051 0.1368 0.0
Cd100 Cd 0.19013 0.76151 0.13819 0.0
O101 O 0.16072 0.73421 0.03911 0.0
Cd102 Cd 0.16782 0.7636 0.04177 0.0
O103 O 0.16081 0.7902 0.07129 0.0
C104 C 0.14813 0.78979 0.11522 0.0
O105 O 0.14093 0.77398 0.13925 0.0
C106 C 0.16444 0.72397 0.08799 0.0
C107 C 0.22727 0.76139 0.11942 0.0
O108 O 0.22031 0.76077 0.17967 0.0
O109 O 0.21667 0.76224 0.068 0.0
O110 O 0.16654 0.21725 0.10974 0.0
Cd111 Cd 0.18102 0.24088 0.18585 0.0
O112 O 0.16012 0.23924 0.0436 0.0
Cd113 Cd 0.15064 0.2536 0.95554 0.0
O114 O 0.14186 0.27577 0.89606 0.0
C115 C 0.14162 0.29076 0.92732 0.0
O116 O 0.14669 0.29195 0.99191 0.0
C117 C 0.15943 0.22231 0.05491 0.0
C118 C 0.21853 0.24421 0.17096 0.0
O119 O 0.2105 0.2342 0.21813 0.0
O120 O 0.20882 0.2528 0.13136 0.0
O121 O 0.41325 0.78627 0.02982 0.0
Cd122 Cd 0.39767 0.75546 0.04225 0.0
O123 O 0.42573 0.78063 0.93118 0.0
Cd124 Cd 0.41972 0.75143 0.94624 0.0
O125 O 0.43229 0.72902 0.9899 0.0
C126 C 0.44153 0.73292 0.04397 0.0
O127 O 0.44176 0.74922 0.07046 0.0
C128 C 0.42262 0.79184 0.97769 0.0
C129 C 0.36056 0.75603 0.06007 0.0
O130 O 0.37128 0.75652 0.11171 0.0
O131 O 0.36739 0.75511 0.99997 0.0
O132 O 0.57409 0.10084 0.60717 0.0
Cd133 Cd 0.55251 0.07814 0.66411 0.0
O134 O 0.59628 0.09732 0.67846 0.0
Cd135 Cd 0.57672 0.08408 0.75127 0.0
O136 O 0.55486 0.09358 0.8101 0.0
C137 C 0.55928 0.10478 0.85834 0.0
O138 O 0.57648 0.10849 0.87471 0.0
C139 C 0.59068 0.10428 0.62411 0.0
C140 C 0.55052 0.04598 0.58976 0.0
O141 O 0.56284 0.04994 0.63519 0.0
O142 O 0.53885 0.05704 0.58056 0.0
O143 O 0.10488 0.91817 0.24793 0.0
Cd144 Cd 0.08765 0.94306 0.27576 0.0
O145 O 0.07859 0.90184 0.26088 0.0
Cd146 Cd 0.05821 0.8779 0.25859 0.0
O147 O 0.03544 0.85637 0.26627 0.0
C148 C 0.0255 0.85554 0.31949 0.0
O149 O 0.0293 0.86759 0.3684 0.0
C150 C 0.0954 0.90272 0.24721 0.0
C151 C 0.08732 0.96757 0.16806 0.0
O152 O 0.09805 0.97102 0.21912 0.0
O153 O 0.07678 0.95254 0.1678 0.0
O154 O 0.57069 0.89014 0.2262 0.0
Cd155 Cd 0.55407 0.91305 0.17501 0.0
O156 O 0.57861 0.87978 0.12641 0.0
Cd157 Cd 0.55924 0.89394 0.07031 0.0
O158 O 0.53248 0.88956 0.02289 0.0
C159 C 0.51845 0.89043 0.05935 0.0
O160 O 0.52048 0.8959 0.12331 0.0
C161 C 0.57955 0.87973 0.19155 0.0
C162 C 0.55193 0.94137 0.26698 0.0
O163 O 0.53879 0.92853 0.26104 0.0
O164 O 0.56591 0.94088 0.22901 0.0
O165 O 0.10595 0.11078 0.73746 0.0
Cd166 Cd 0.08798 0.08426 0.68754 0.0
O167 O 0.08185 0.12453 0.72769 0.0
Cd168 Cd 0.06291 0.14457 0.73914 0.0
O169 O 0.04033 0.16028 0.72372 0.0
C170 C 0.02849 0.1546 0.67906 0.0
O171 O 0.03031 0.13965 0.64518 0.0
C172 C 0.09813 0.12476 0.74808 0.0
C173 C 0.08529 0.05658 0.78454 0.0
O174 O 0.09668 0.05687 0.73508 0.0
O175 O 0.07491 0.06906 0.78705 0.0
H176 H 0.16672 0.69901 0.19032 0.0
H177 H 0.08592 0.63013 0.03534 0.0
H178 H 0.14196 0.7056 0.99306 0.0
H179 H 0.10813 0.62485 0.23793 0.0
H180 H 0.10979 0.65495 0.01178 0.0
H181 H 0.14886 0.66922 0.20117 0.0
C182 C 0.15771 0.69411 0.14886 0.0
C183 C 0.15566 0.70496 0.09109 0.0
C184 C 0.10958 0.64825 0.06116 0.0
C185 C 0.1351 0.67088 0.10342 0.0
C186 C 0.09594 0.63404 0.07466 0.0
C187 C 0.09485 0.62554 0.13912 0.0
C188 C 0.12219 0.65413 0.11256 0.0
C189 C 0.10835 0.6311 0.18773 0.0
C190 C 0.14749 0.6771 0.15517 0.0
C191 C 0.14385 0.69782 0.03886 0.0
N192 N 0.12133 0.6452 0.17375 0.0
N193 N 0.1339 0.68133 0.04661 0.0
H194 H 0.6366 0.78863 0.29061 0.0
H195 H 0.58535 0.87652 0.32966 0.0
H196 H 0.62815 0.81431 0.48469 0.0
H197 H 0.5977 0.85356 0.13427 0.0
H198 H 0.60122 0.85399 0.38727 0.0
H199 H 0.62241 0.8123 0.23232 0.0
C200 C 0.63177 0.79924 0.321 0.0
C201 C 0.63354 0.79946 0.39269 0.0
C202 C 0.60053 0.85393 0.33178 0.0
C203 C 0.61728 0.82661 0.32625 0.0
C204 C 0.59148 0.86681 0.2988 0.0
C205 C 0.59013 0.86692 0.22696 0.0
C206 C 0.60824 0.84098 0.29274 0.0
C207 C 0.59837 0.854 0.18973 0.0
C208 C 0.62369 0.81278 0.28764 0.0
C209 C 0.62706 0.81358 0.42936 0.0
N210 N 0.60699 0.84151 0.22306 0.0
N211 N 0.61918 0.82655 0.39575 0.0
H212 H 0.44956 0.24589 0.91139 0.0
H213 H 0.49705 0.34799 0.95884 0.0
H214 H 0.42983 0.28451 0.04857 0.0
H215 H 0.51688 0.30957 0.82064 0.0
H216 H 0.47269 0.3247 0.99377 0.0
H217 H 0.47473 0.26869 0.87957 0.0
C218 C 0.45072 0.25903 0.93596 0.0
C219 C 0.4378 0.26314 0.98401 0.0
C220 C 0.48237 0.32134 0.95585 0.0
C221 C 0.46629 0.28956 0.94611 0.0
C222 C 0.49631 0.33464 0.93583 0.0
C223 C 0.50904 0.33075 0.88662 0.0
C224 C 0.4811 0.30396 0.9265 0.0
C225 C 0.50736 0.3132 0.85868 0.0
C226 C 0.46498 0.27214 0.91705 0.0
C227 C 0.43954 0.28072 0.01159 0.0
N228 N 0.49365 0.30046 0.87898 0.0
N229 N 0.45353 0.29326 0.99237 0.0
H230 H 0.95572 0.23638 0.66172 0.0
H231 H 0.00207 0.14717 0.58167 0.0
H232 H 0.94063 0.20084 0.49031 0.0
H233 H 0.0201 0.18559 0.74114 0.0
H234 H 0.97768 0.16507 0.55383 0.0
H235 H 0.97733 0.21623 0.69821 0.0
C236 C 0.95684 0.22425 0.63197 0.0
C237 C 0.94642 0.22037 0.57252 0.0
C238 C 0.98693 0.16955 0.59508 0.0
C239 C 0.97128 0.19724 0.61398 0.0
C240 C 0.00087 0.15933 0.61106 0.0
C241 C 0.01323 0.16494 0.66361 0.0
C242 C 0.9853 0.18549 0.63196 0.0
C243 C 0.01095 0.18079 0.70002 0.0
C244 C 0.96924 0.21277 0.65282 0.0
C245 C 0.94843 0.20441 0.5363 0.0
N246 N 0.9973 0.19053 0.68336 0.0
N247 N 0.9607 0.19349 0.55739 0.0
H248 H 0.09588 0.36092 0.63947 0.0
H249 H 0.13634 0.32338 0.98371 0.0
H250 H 0.09087 0.385 0.83915 0.0
H251 H 0.1319 0.29383 0.79241 0.0
H252 H 0.12393 0.34847 0.92771 0.0
H253 H 0.11361 0.33893 0.69091 0.0
C254 C 0.09871 0.36176 0.69397 0.0
C255 C 0.09171 0.37474 0.73516 0.0
C256 C 0.12576 0.33654 0.8979 0.0
C257 C 0.11191 0.34949 0.79437 0.0
C258 C 0.13286 0.32219 0.92981 0.0
C259 C 0.13502 0.3064 0.89284 0.0
C260 C 0.12084 0.33514 0.82838 0.0
C261 C 0.13033 0.30569 0.82304 0.0
C262 C 0.10876 0.34913 0.72334 0.0
C263 C 0.09586 0.37516 0.80547 0.0
N264 N 0.1234 0.31983 0.79313 0.0
N265 N 0.10558 0.36264 0.83291 0.0
H266 H 0.01251 0.82979 0.22512 0.0
H267 H 0.94083 0.77683 0.48297 0.0
H268 H 0.00327 0.84822 0.43074 0.0
H269 H 0.94639 0.76189 0.27059 0.0
H270 H 0.96268 0.8038 0.46376 0.0
H271 H 0.98759 0.80539 0.23992 0.0
C272 C 0.00522 0.82874 0.27334 0.0
C273 C 0.01007 0.84102 0.32691 0.0
C274 C 0.959 0.79469 0.42123 0.0
C275 C 0.9815 0.81306 0.34426 0.0
C276 C 0.94649 0.7793 0.43214 0.0
C277 C 0.94185 0.76698 0.37846 0.0
C278 C 0.96701 0.79775 0.3563 0.0
C279 C 0.94961 0.77093 0.31363 0.0
C280 C 0.99095 0.81482 0.28171 0.0
C281 C 5e-05 0.83904 0.38812 0.0
N282 N 0.96191 0.78587 0.30456 0.0
N283 N 0.98632 0.82526 0.39527 0.0
H284 H 0.46359 0.73789 0.15628 0.0
H285 H 0.50708 0.6458 0.10111 0.0
H286 H 0.44653 0.69903 0.99714 0.0
H287 H 0.5269 0.68699 0.24841 0.0
H288 H 0.48315 0.66382 0.06879 0.0
H289 H 0.48496 0.71803 0.19748 0.0
C290 C 0.46423 0.72511 0.13024 0.0
C291 C 0.45332 0.72018 0.07281 0.0
C292 C 0.4927 0.66889 0.10834 0.0
C293 C 0.47789 0.69737 0.11968 0.0
C294 C 0.50638 0.6586 0.12689 0.0
C295 C 0.5191 0.66493 0.17735 0.0
C296 C 0.49168 0.68563 0.14052 0.0
C297 C 0.51745 0.6816 0.20904 0.0
C298 C 0.47649 0.71378 0.15376 0.0
C299 C 0.45472 0.70341 0.04141 0.0
N300 N 0.50404 0.69139 0.18996 0.0
N301 N 0.46686 0.69266 0.06503 0.0
H302 H 0.58318 0.12189 0.50614 0.0
H303 H 0.67196 0.19359 0.53766 0.0
H304 H 0.62599 0.11754 0.65247 0.0
H305 H 0.62783 0.1992 0.3986 0.0
H306 H 0.6579 0.16303 0.56581 0.0
H307 H 0.60187 0.14731 0.45209 0.0
C308 C 0.59661 0.12612 0.52641 0.0
C309 C 0.6029 0.11774 0.58467 0.0
C310 C 0.65141 0.17086 0.52849 0.0
C311 C 0.62433 0.14697 0.52324 0.0
C312 C 0.65944 0.18832 0.51228 0.0
C313 C 0.65092 0.19911 0.4665 0.0
C314 C 0.63468 0.16414 0.49894 0.0
C315 C 0.63479 0.19147 0.43481 0.0
C316 C 0.60727 0.14066 0.49551 0.0
C317 C 0.62049 0.12371 0.60814 0.0
N318 N 0.62709 0.17455 0.45227 0.0
N319 N 0.63049 0.1381 0.57789 0.0
H320 H 0.00254 0.37919 0.46368 0.0
H321 H 0.91552 0.31743 0.60476 0.0
H322 H 0.98063 0.38374 0.66719 0.0
H323 H 0.93874 0.31131 0.40436 0.0
H324 H 0.93507 0.34612 0.61863 0.0
H325 H 0.97534 0.35906 0.43179 0.0
C326 C 0.99188 0.37623 0.50134 0.0
C327 C 0.99406 0.38284 0.56872 0.0
C328 C 0.9357 0.33865 0.57115 0.0
C329 C 0.96295 0.35964 0.53269 0.0
C330 C 0.9245 0.32226 0.56313 0.0
C331 C 0.92575 0.31174 0.50387 0.0
C332 C 0.94833 0.34452 0.51978 0.0
C333 C 0.9375 0.31881 0.45136 0.0
C334 C 0.97634 0.36469 0.4831 0.0
C335 C 0.97968 0.37872 0.615 0.0
N336 N 0.94854 0.33461 0.46103 0.0
N337 N 0.96487 0.36714 0.59647 0.0
H338 H 0.56385 0.12891 0.96494 0.0
H339 H 0.47178 0.16962 0.88772 0.0
H340 H 0.52416 0.10576 0.81763 0.0
H341 H 0.50666 0.1868 0.05875 0.0
H342 H 0.49073 0.14596 0.86212 0.0
H343 H 0.54285 0.1497 0.00227 0.0
C344 C 0.55064 0.12805 0.94097 0.0
C345 C 0.54582 0.11566 0.88771 0.0
C346 C 0.4942 0.15484 0.90547 0.0
C347 C 0.52179 0.13958 0.92963 0.0
C348 C 0.48342 0.16842 0.91996 0.0
C349 C 0.48769 0.18029 0.97529 0.0
C350 C 0.50947 0.15318 0.9462 0.0
C351 C 0.50288 0.17799 0.01549 0.0
C352 C 0.53866 0.13995 0.96226 0.0
C353 C 0.52849 0.11512 0.85873 0.0
N354 N 0.51329 0.16478 0.99989 0.0
N355 N 0.51718 0.12704 0.87956 0.0
H356 H 0.6297 0.62011 0.3629 0.0
H357 H 0.64278 0.72444 0.4744 0.0
H358 H 0.59757 0.65906 0.27756 0.0
H359 H 0.68031 0.68657 0.52307 0.0
H360 H 0.6247 0.70075 0.40785 0.0
H361 H 0.64691 0.64425 0.42826 0.0
C362 C 0.62617 0.63375 0.35805 0.0
C363 C 0.61193 0.63746 0.31515 0.0
C364 C 0.63697 0.69771 0.43271 0.0
C365 C 0.63174 0.66536 0.39037 0.0
C366 C 0.64744 0.71131 0.47006 0.0
C367 C 0.66338 0.70767 0.50299 0.0
C368 C 0.64237 0.6803 0.42905 0.0
C369 C 0.66819 0.69005 0.49834 0.0
C370 C 0.63604 0.64756 0.39554 0.0
C371 C 0.60803 0.65543 0.31125 0.0
N372 N 0.65777 0.67708 0.46209 0.0
N373 N 0.61789 0.66874 0.34843 0.0
H374 H 0.12452 0.90052 0.16389 0.0
H375 H 0.12089 0.79295 0.2066 0.0
H376 H 0.08596 0.86781 0.29174 0.0
H377 H 0.15903 0.82488 0.07427 0.0
H378 H 0.10854 0.82046 0.24039 0.0
H379 H 0.13807 0.87327 0.13306 0.0
C380 C 0.11885 0.88758 0.18525 0.0
C381 C 0.10378 0.88635 0.22906 0.0
C382 C 0.11963 0.82149 0.20406 0.0
C383 C 0.11926 0.85515 0.19439 0.0
C384 C 0.12672 0.80576 0.18472 0.0
C385 C 0.14101 0.80658 0.13737 0.0
C386 C 0.12685 0.83825 0.17593 0.0
C387 C 0.148 0.8236 0.11087 0.0
C388 C 0.12657 0.87204 0.16753 0.0
C389 C 0.09708 0.86929 0.25571 0.0
N390 N 0.14082 0.83876 0.13043 0.0
N391 N 0.10485 0.85437 0.23788 0.0
H392 H 0.99184 0.59744 0.26138 0.0
H393 H 0.94852 0.66382 0.51677 0.0
H394 H 0.0121 0.61087 0.46505 0.0
H395 H 0.9303 0.65307 0.30874 0.0
H396 H 0.96791 0.63981 0.50659 0.0
H397 H 0.9655 0.61294 0.28584 0.0
C398 C 0.99063 0.6034 0.31165 0.0
C399 C 0.00438 0.60313 0.36083 0.0
C400 C 0.95949 0.64253 0.46346 0.0
C401 C 0.9743 0.62103 0.38894 0.0
C402 C 0.94837 0.65623 0.46927 0.0
C403 C 0.938 0.6607 0.41308 0.0
C404 C 0.96032 0.63327 0.40092 0.0
C405 C 0.93823 0.65026 0.3531 0.0
C406 C 0.97558 0.61229 0.32553 0.0
C407 C 0.00196 0.61095 0.42524 0.0
N408 N 0.94942 0.6372 0.34828 0.0
N409 N 0.98736 0.61978 0.43709 0.0
H410 H 0.09204 0.16075 0.74967 0.0
H411 H 0.16718 0.18783 0.03858 0.0
H412 H 0.12633 0.12389 0.83592 0.0
H413 H 0.13213 0.22514 0.9611 0.0
H414 H 0.15295 0.16468 0.96051 0.0
H415 H 0.10714 0.18499 0.8222 0.0
C416 C 0.10254 0.15766 0.78438 0.0
C417 C 0.10758 0.14011 0.78786 0.0
C418 C 0.14843 0.17797 0.96003 0.0
C419 C 0.12527 0.16791 0.86969 0.0
C420 C 0.15655 0.1912 0.00477 0.0
C421 C 0.15105 0.20856 0.0057 0.0
C422 C 0.13455 0.18201 0.91602 0.0
C423 C 0.13718 0.21213 0.96076 0.0
C424 C 0.11131 0.17157 0.82527 0.0
C425 C 0.1219 0.13717 0.83166 0.0
N426 N 0.12936 0.19895 0.91784 0.0
N427 N 0.13014 0.15086 0.87099 0.0
H428 H 0.64302 0.3174 0.47415 0.0
H429 H 0.58551 0.35393 0.78045 0.0
H430 H 0.61738 0.28322 0.63452 0.0
H431 H 0.60933 0.38768 0.61585 0.0
H432 H 0.59706 0.32783 0.7279 0.0
H433 H 0.63113 0.34341 0.52614 0.0
C434 C 0.63493 0.31536 0.52036 0.0
C435 C 0.63119 0.29809 0.54996 0.0
C436 C 0.59964 0.34092 0.70295 0.0
C437 C 0.61749 0.3278 0.60969 0.0
C438 C 0.59281 0.35578 0.73249 0.0
C439 C 0.59605 0.37291 0.70156 0.0
C440 C 0.60989 0.34324 0.64229 0.0
C441 C 0.60642 0.37467 0.64121 0.0
C442 C 0.62812 0.33022 0.54999 0.0
C443 C 0.62062 0.29627 0.60985 0.0
N444 N 0.61294 0.36003 0.61348 0.0
N445 N 0.61413 0.31093 0.63767 0.0
H446 H 0.44466 0.80804 0.87664 0.0
H447 H 0.48618 0.88635 0.12885 0.0
H448 H 0.42205 0.81852 0.07455 0.0
H449 H 0.51005 0.87428 0.93493 0.0
H450 H 0.45883 0.86633 0.09775 0.0
H451 H 0.46458 0.83666 0.8852 0.0
C452 C 0.44364 0.8165 0.92138 0.0
C453 C 0.43192 0.81066 0.97565 0.0
C454 C 0.46993 0.86829 0.06148 0.0
C455 C 0.45486 0.84339 0.98607 0.0
C456 C 0.48556 0.87977 0.07915 0.0
C457 C 0.50061 0.88168 0.03511 0.0
C458 C 0.46938 0.85858 0.99951 0.0
C459 C 0.49891 0.87298 0.97104 0.0
C460 C 0.45506 0.83285 0.92628 0.0
C461 C 0.43106 0.82233 0.03192 0.0
N462 N 0.48371 0.86157 0.95568 0.0
N463 N 0.4426 0.83798 0.0362 0.0
H464 H 0.04066 0.52363 0.11193 0.0
H465 H 0.05424 0.48011 0.74479 0.0
H466 H 0.03784 0.55335 0.92284 0.0
H467 H 0.0353 0.44776 0.9204 0.0
H468 H 0.05236 0.50757 0.81235 0.0
H469 H 0.0426 0.49597 0.04523 0.0
C470 C 0.04046 0.52434 0.05644 0.0
C471 C 0.03905 0.54079 0.02283 0.0
C472 C 0.0486 0.49445 0.83599 0.0
C473 C 0.04147 0.50934 0.94652 0.0
C474 C 0.04974 0.47879 0.79762 0.0
C475 C 0.04487 0.46164 0.82701 0.0
C476 C 0.04283 0.49296 0.90456 0.0
C477 C 0.0391 0.46072 0.89565 0.0
C478 C 0.04151 0.50856 0.01849 0.0
C479 C 0.03882 0.54094 0.95083 0.0
N480 N 0.03832 0.47618 0.93227 0.0
N481 N 0.04013 0.52547 0.91504 0.0
H482 H 0.76636 0.72299 0.7046 0.0
H483 H 0.84382 0.72878 0.41882 0.0
H484 H 0.76068 0.74619 0.50396 0.0
H485 H 0.85405 0.72033 0.63368 0.0
H486 H 0.81255 0.73282 0.44684 0.0
H487 H 0.79785 0.71954 0.67739 0.0
C488 C 0.77173 0.72736 0.65484 0.0
C489 C 0.76087 0.73489 0.60647 0.0
C490 C 0.82165 0.73013 0.48785 0.0
C491 C 0.79684 0.73088 0.5749 0.0
C492 C 0.83949 0.72777 0.47189 0.0
C493 C 0.85157 0.72421 0.524 0.0
C494 C 0.81577 0.72872 0.55633 0.0
C495 C 0.84521 0.72308 0.59189 0.0
C496 C 0.78971 0.72543 0.63943 0.0
C497 C 0.76856 0.74035 0.54285 0.0
N498 N 0.82773 0.72525 0.60607 0.0
N499 N 0.78604 0.73815 0.52879 0.0
H500 H 0.61846 0.47829 0.60918 0.0
H501 H 0.56157 0.53753 0.3708 0.0
H502 H 0.56008 0.46939 0.59748 0.0
H503 H 0.61847 0.53391 0.34044 0.0
H504 H 0.56078 0.5142 0.45977 0.0
H505 H 0.61882 0.5006 0.51696 0.0
C506 C 0.60571 0.48105 0.58731 0.0
C507 C 0.5892 0.47198 0.61108 0.0
C508 C 0.5734 0.51845 0.43333 0.0
C509 C 0.58954 0.49753 0.50565 0.0
C510 C 0.57387 0.53178 0.38264 0.0
C511 C 0.59011 0.53768 0.34818 0.0
C512 C 0.58934 0.51116 0.45028 0.0
C513 C 0.60564 0.52975 0.36557 0.0
C514 C 0.60593 0.49373 0.53446 0.0
C515 C 0.57311 0.47605 0.58063 0.0
N516 N 0.6049 0.51699 0.41573 0.0
N517 N 0.57367 0.48861 0.52969 0.0
H518 H 0.83613 0.25317 0.42407 0.0
H519 H 0.7423 0.26179 0.61548 0.0
H520 H 0.83096 0.25773 0.64383 0.0
H521 H 0.74728 0.25672 0.39583 0.0
H522 H 0.77486 0.26082 0.62666 0.0
H523 H 0.80367 0.25472 0.41251 0.0
C524 C 0.82817 0.25447 0.46992 0.0
C525 C 0.83628 0.25531 0.53504 0.0
C526 C 0.76885 0.25996 0.57599 0.0
C527 C 0.7991 0.25715 0.52216 0.0
C528 C 0.75025 0.26054 0.56955 0.0
C529 C 0.74204 0.25932 0.50461 0.0
C530 C 0.77934 0.25813 0.51708 0.0
C531 C 0.75303 0.2577 0.44692 0.0
C532 C 0.80963 0.25538 0.46327 0.0
C533 C 0.82529 0.25701 0.59262 0.0
N534 N 0.7711 0.25712 0.45454 0.0
N535 N 0.80727 0.25788 0.58481 0.0
H536 H 0.32446 0.24797 0.98868 0.0
H537 H 0.24348 0.23224 0.25728 0.0
H538 H 0.33265 0.23708 0.20319 0.0
H539 H 0.23867 0.2587 0.06223 0.0
H540 H 0.276 0.23292 0.2373 0.0
H541 H 0.29279 0.25116 0.01324 0.0
C542 C 0.31963 0.24637 0.04102 0.0
C543 C 0.33119 0.24218 0.09393 0.0
C544 C 0.26785 0.2387 0.19912 0.0
C545 C 0.29494 0.24561 0.12222 0.0
C546 C 0.24928 0.23826 0.21038 0.0
C547 C 0.23834 0.24537 0.16122 0.0
C548 C 0.2755 0.24607 0.13784 0.0
C549 C 0.24659 0.25307 0.1015 0.0
C550 C 0.30156 0.24823 0.05502 0.0
C551 C 0.32421 0.24031 0.16083 0.0
N552 N 0.26466 0.25307 0.0912 0.0
N553 N 0.30649 0.24186 0.17296 0.0
H554 H 0.34193 0.75736 0.18075 0.0
H555 H 0.24603 0.76141 0.99837 0.0
H556 H 0.33444 0.75626 0.96107 0.0
H557 H 0.2533 0.76015 0.21799 0.0
H558 H 0.27845 0.76007 0.98351 0.0
H559 H 0.30955 0.75882 0.19526 0.0
C560 C 0.33348 0.75741 0.13553 0.0
C561 C 0.34092 0.75668 0.06957 0.0
C562 C 0.27296 0.7601 0.03495 0.0
C563 C 0.3038 0.75839 0.08584 0.0
C564 C 0.25444 0.76088 0.04349 0.0
C565 C 0.24692 0.76089 0.10955 0.0
C566 C 0.28407 0.75933 0.09288 0.0
C567 C 0.25849 0.76017 0.16611 0.0
C568 C 0.31498 0.75824 0.14386 0.0
C569 C 0.32929 0.75679 0.01288 0.0
N570 N 0.27647 0.75942 0.15646 0.0
N571 N 0.31132 0.75764 0.02232 0.0
H572 H 0.52193 0.95192 0.32913 0.0
H573 H 0.57787 0.0252 0.57107 0.0
H574 H 0.58009 0.96454 0.31833 0.0
H575 H 0.52273 0.02942 0.51092 0.0
H576 H 0.57794 0.99911 0.49451 0.0
H577 H 0.52109 0.97683 0.41132 0.0
C578 C 0.53451 0.9599 0.3442 0.0
C579 C 0.5511 0.95624 0.31673 0.0
C580 C 0.56582 0.00573 0.49832 0.0
C581 C 0.55024 0.98444 0.41104 0.0
C582 C 0.56573 0.02054 0.54222 0.0
C583 C 0.55029 0.02952 0.5471 0.0
C584 C 0.55028 -0.00032 0.4599 0.0
C585 C 0.53495 0.02294 0.50834 0.0
C586 C 0.53401 0.9741 0.39083 0.0
C587 C 0.567 0.96699 0.33791 0.0
N588 N 0.53531 0.00835 0.46644 0.0
N589 N 0.56619 0.98054 0.38412 0.0
H590 H 0.09437 0.02211 0.77516 0.0
H591 H 0.09569 0.00434 0.17331 0.0
H592 H 0.07523 0.05982 0.91784 0.0
H593 H 0.07814 0.96044 0.03419 0.0
H594 H 0.09447 0.0259 0.07858 0.0
H595 H 0.09441 -0.00011 0.86861 0.0
C596 C 0.09016 0.02568 0.82607 0.0
C597 C 0.08472 0.04275 0.83898 0.0
C598 C 0.09089 0.01153 0.06906 0.0
C599 C 0.08519 0.01775 0.94549 0.0
C600 C 0.09168 0.99925 0.12275 0.0
C601 C 0.08696 0.98063 0.11136 0.0
C602 C 0.08585 0.00507 0.00332 0.0
C603 C 0.08177 0.97472 0.04502 0.0
C604 C 0.09014 0.01302 0.87905 0.0
C605 C 0.07938 0.04674 0.90576 0.0
N606 N 0.08153 0.98691 0.99312 0.0
N607 N 0.07997 0.0344 0.95684 0.0
loop_
_geom_bond_atom_site_label_1
_geom_bond_atom_site_label_2
_geom_bond_distance
_geom_bond_site_symmetry_2
_ccdc_geom_bond_type
O0 Cd1 2.300 . S
O0 C7 1.275 . S
Cd1 O0 2.300 . S
Cd1 O9 2.381 . S
Cd1 O10 2.378 . S
O2 Cd3 2.385 . S
O2 C7 1.255 . S
Cd3 O2 2.385 . S
Cd3 O4 2.317 . S
O4 Cd3 2.317 . S
O4 C5 1.232 . S
C5 O4 1.232 . S
C5 O6 1.218 . S
O6 C5 1.218 . S
C7 O0 1.275 . S
C7 O2 1.255 . S
C8 O9 1.258 . S
C8 O10 1.256 . S
O9 Cd1 2.381 . S
O9 C8 1.258 . S
O10 Cd1 2.378 . S
O10 C8 1.256 . S
O11 Cd12 2.300 . S
O11 C18 1.275 . S
Cd12 O11 2.300 . S
Cd12 O20 2.381 . S
Cd12 O21 2.378 . S
O13 Cd14 2.385 . S
O13 C18 1.255 . S
Cd14 O13 2.385 . S
Cd14 O15 2.317 . S
O15 Cd14 2.317 . S
O15 C16 1.232 . S
C16 O15 1.232 . S
C16 O17 1.218 . S
O17 C16 1.218 . S
C18 O11 1.275 . S
C18 O13 1.255 . S
C19 O20 1.258 . S
C19 O21 1.256 . S
O20 Cd12 2.381 . S
O20 C19 1.258 . S
O21 Cd12 2.378 . S
O21 C19 1.256 . S
O22 Cd23 2.300 . S
O22 C29 1.275 . S
Cd23 O22 2.300 . S
Cd23 O31 2.381 . S
Cd23 O32 2.378 . S
O24 Cd25 2.385 . S
O24 C29 1.255 . S
Cd25 O24 2.385 . S
Cd25 O26 2.317 . S
O26 Cd25 2.317 . S
O26 C27 1.232 . S
C27 O26 1.232 . S
C27 O28 1.218 . S
O28 C27 1.218 . S
C29 O22 1.275 . S
C29 O24 1.255 . S
C30 O31 1.258 . S
C30 O32 1.256 . S
O31 Cd23 2.381 . S
O31 C30 1.258 . S
O32 Cd23 2.378 . S
O32 C30 1.256 . S
O33 Cd34 2.300 . S
O33 C40 1.275 . S
Cd34 O33 2.300 . S
Cd34 O42 2.381 . S
Cd34 O43 2.378 . S
O35 Cd36 2.385 . S
O35 C40 1.255 . S
Cd36 O35 2.385 . S
Cd36 O37 2.317 . S
O37 Cd36 2.317 . S
O37 C38 1.232 . S
C38 O37 1.232 . S
C38 O39 1.218 . S
O39 C38 1.218 . S
C40 O33 1.275 . S
C40 O35 1.255 . S
C41 O42 1.258 . S
C41 O43 1.256 . S
O42 Cd34 2.381 . S
O42 C41 1.258 . S
O43 Cd34 2.378 . S
O43 C41 1.256 . S
O44 Cd45 2.300 . S
O44 C51 1.275 . S
Cd45 O44 2.300 . S
Cd45 O53 2.381 . S
Cd45 O54 2.378 . S
O46 Cd47 2.385 . S
O46 C51 1.255 . S
Cd47 O46 2.385 . S
Cd47 O48 2.317 . S
O48 Cd47 2.317 . S
O48 C49 1.232 . S
C49 O48 1.232 . S
C49 O50 1.218 . S
O50 C49 1.218 . S
C51 O44 1.275 . S
C51 O46 1.255 . S
C52 O53 1.258 . S
C52 O54 1.256 . S
O53 Cd45 2.381 . S
O53 C52 1.258 . S
O54 Cd45 2.378 . S
O54 C52 1.256 . S
O55 Cd56 2.300 . S
O55 C62 1.275 . S
Cd56 O55 2.300 . S
Cd56 O64 2.381 . S
Cd56 O65 2.378 . S
O57 Cd58 2.385 . S
O57 C62 1.255 . S
Cd58 O57 2.385 . S
Cd58 O59 2.317 . S
O59 Cd58 2.317 . S
O59 C60 1.232 . S
C60 O59 1.232 . S
C60 O61 1.218 . S
O61 C60 1.218 . S
C62 O55 1.275 . S
C62 O57 1.255 . S
C63 O64 1.258 . S
C63 O65 1.256 . S
O64 Cd56 2.381 . S
O64 C63 1.258 . S
O65 Cd56 2.378 . S
O65 C63 1.256 . S
O66 Cd67 2.300 . S
O66 C73 1.275 . S
Cd67 O66 2.300 . S
Cd67 O75 2.381 . S
Cd67 O76 2.378 . S
O68 Cd69 2.385 . S
O68 C73 1.255 . S
Cd69 O68 2.385 . S
Cd69 O70 2.317 . S
O70 Cd69 2.317 . S
O70 C71 1.232 . S
C71 O70 1.232 . S
C71 O72 1.218 . S
O72 C71 1.218 . S
C73 O66 1.275 . S
C73 O68 1.255 . S
C74 O75 1.258 . S
C74 O76 1.256 . S
O75 Cd67 2.381 . S
O75 C74 1.258 . S
O76 Cd67 2.378 . S
O76 C74 1.256 . S
O77 Cd78 2.300 . S
O77 C84 1.275 . S
Cd78 O77 2.300 . S
Cd78 O86 2.381 . S
Cd78 O87 2.378 . S
O79 Cd80 2.385 . S
O79 C84 1.255 . S
Cd80 O79 2.385 . S
Cd80 O81 2.317 . S
O81 Cd80 2.317 . S
O81 C82 1.232 . S
C82 O81 1.232 . S
C82 O83 1.218 . S
O83 C82 1.218 . S
C84 O77 1.275 . S
C84 O79 1.255 . S
C85 O86 1.258 . S
C85 O87 1.256 . S
O86 Cd78 2.381 . S
O86 C85 1.258 . S
O87 Cd78 2.378 . S
O87 C85 1.256 . S
O88 Cd89 2.300 . S
O88 C95 1.275 . S
Cd89 O88 2.300 . S
Cd89 O97 2.381 1_556 S
Cd89 O98 2.378 . S
O90 Cd91 2.385 . S
O90 C95 1.255 . S
Cd91 O90 2.385 . S
Cd91 O92 2.317 . S
O92 Cd91 2.317 . S
O92 C93 1.232 . S
C93 O92 1.232 . S
C93 O94 1.218 . S
O94 C93 1.218 . S
C95 O88 1.275 . S
C95 O90 1.255 . S
C96 O97 1.258 . S
C96 O98 1.256 1_554 S
O97 Cd89 2.381 1_554 S
O97 C96 1.258 . S
O98 Cd89 2.378 . S
O98 C96 1.256 1_556 S
O99 Cd100 2.300 1_554 S
O99 C106 1.275 . S
Cd100 O99 2.300 1_556 S
Cd100 O108 2.381 1_556 S
Cd100 O109 2.378 . S
O101 Cd102 2.385 . S
O101 C106 1.255 1_556 S
Cd102 O101 2.385 . S
Cd102 O103 2.317 . S
O103 Cd102 2.317 . S
O103 C104 1.231 1_556 S
C104 O103 1.231 1_554 S
C104 O105 1.218 1_554 S
O105 C104 1.218 1_556 S
C106 O99 1.275 . S
C106 O101 1.255 1_554 S
C107 O108 1.258 1_556 S
C107 O109 1.256 . S
O108 Cd100 2.381 1_554 S
O108 C107 1.258 1_554 S
O109 Cd100 2.378 . S
O109 C107 1.256 . S
O110 Cd111 2.298 1_554 S
O110 C117 1.273 1_554 S
Cd111 O110 2.298 1_556 S
Cd111 O119 2.381 1_556 S
Cd111 O120 2.378 . S
O112 Cd113 2.385 . S
O112 C117 1.255 . S
Cd113 O112 2.385 . S
Cd113 O114 2.317 . S
O114 Cd113 2.317 . S
O114 C115 1.232 . S
C115 O114 1.232 . S
C115 O116 1.218 . S
O116 C115 1.218 . S
C117 O110 1.273 1_556 S
C117 O112 1.255 . S
C118 O119 1.258 . S
C118 O120 1.256 1_554 S
O119 Cd111 2.381 1_554 S
O119 C118 1.258 . S
O120 Cd111 2.378 . S
O120 C118 1.256 1_556 S
O121 Cd122 2.300 1_554 S
O121 C128 1.275 . S
Cd122 O121 2.300 1_556 S
Cd122 O130 2.381 1_556 S
Cd122 O131 2.378 . S
O123 Cd124 2.385 . S
O123 C128 1.255 1_556 S
Cd124 O123 2.385 . S
Cd124 O125 2.317 . S
O125 Cd124 2.317 . S
O125 C126 1.232 1_556 S
C126 O125 1.232 1_554 S
C126 O127 1.218 1_554 S
O127 C126 1.218 1_556 S
C128 O121 1.275 . S
C128 O123 1.255 1_554 S
C129 O130 1.258 1_556 S
C129 O131 1.256 . S
O130 Cd122 2.381 1_554 S
O130 C129 1.258 1_554 S
O131 Cd122 2.378 . S
O131 C129 1.256 . S
O132 Cd133 2.300 . S
O132 C139 1.275 . S
Cd133 O132 2.300 . S
Cd133 O141 2.381 . S
Cd133 O142 2.378 . S
O134 Cd135 2.385 . S
O134 C139 1.255 . S
Cd135 O134 2.385 . S
Cd135 O136 2.317 . S
O136 Cd135 2.317 . S
O136 C137 1.232 . S
C137 O136 1.232 . S
C137 O138 1.218 . S
O138 C137 1.218 . S
C139 O132 1.275 . S
C139 O134 1.255 . S
C140 O141 1.258 . S
C140 O142 1.256 . S
O141 Cd133 2.381 . S
O141 C140 1.258 . S
O142 Cd133 2.378 . S
O142 C140 1.256 . S
O143 Cd144 2.300 . S
O143 C150 1.275 . S
Cd144 O143 2.300 . S
Cd144 O152 2.381 . S
Cd144 O153 2.378 . S
O145 Cd146 2.385 . S
O145 C150 1.255 . S
Cd146 O145 2.385 . S
Cd146 O147 2.317 . S
O147 Cd146 2.317 . S
O147 C148 1.232 . S
C148 O147 1.232 . S
C148 O149 1.218 . S
O149 C148 1.218 . S
C150 O143 1.275 . S
C150 O145 1.255 . S
C151 O152 1.258 . S
C151 O153 1.256 . S
O152 Cd144 2.381 . S
O152 C151 1.258 . S
O153 Cd144 2.378 . S
O153 C151 1.256 . S
O154 Cd155 2.300 . S
O154 C161 1.275 . S
Cd155 O154 2.300 . S
Cd155 O163 2.381 . S
Cd155 O164 2.378 . S
O156 Cd157 2.385 . S
O156 C161 1.255 . S
Cd157 O156 2.385 . S
Cd157 O158 2.317 . S
O158 Cd157 2.317 . S
O158 C159 1.232 . S
C159 O158 1.232 . S
C159 O160 1.218 . S
O160 C159 1.218 . S
C161 O154 1.275 . S
C161 O156 1.255 . S
C162 O163 1.258 . S
C162 O164 1.256 . S
O163 Cd155 2.381 . S
O163 C162 1.258 . S
O164 Cd155 2.378 . S
O164 C162 1.256 . S
O165 Cd166 2.300 . S
O165 C172 1.275 . S
Cd166 O165 2.300 . S
Cd166 O174 2.381 . S
Cd166 O175 2.378 . S
O167 Cd168 2.385 . S
O167 C172 1.255 . S
Cd168 O167 2.385 . S
Cd168 O169 2.317 . S
O169 Cd168 2.317 . S
O169 C170 1.232 . S
C170 O169 1.232 . S
C170 O171 1.218 . S
O171 C170 1.218 . S
C172 O165 1.275 . S
C172 O167 1.255 . S
C173 O174 1.258 . S
C173 O175 1.256 . S
O174 Cd166 2.381 . S
O174 C173 1.258 . S
O175 Cd166 2.378 . S
O175 C173 1.256 . S
H176 C182 0.930 . S
H177 C186 0.930 . S
H178 C191 0.929 1_556 S
H179 C189 0.929 . S
H180 C184 0.929 . S
H181 C190 0.929 . S
C182 H176 0.930 . S
C182 C183 1.367 . S
C182 C190 1.378 . S
C183 C182 1.367 . S
C183 C191 1.433 . S
C184 H180 0.929 . S
C184 C186 1.378 . S
C184 C188 1.350 . S
C185 C188 1.463 . S
C185 C190 1.350 . S
C185 N193 1.427 . S
C186 H177 0.930 . S
C186 C184 1.378 . S
C186 C187 1.367 . S
C187 C186 1.367 . S
C187 C189 1.433 . S
C188 C184 1.350 . S
C188 C185 1.463 . S
C188 N192 1.427 . S
C189 H179 0.929 . S
C189 C187 1.433 . S
C189 N192 1.384 . S
C190 H181 0.929 . S
C190 C182 1.378 . S
C190 C185 1.350 . S
C191 H178 0.929 1_554 S
C191 C183 1.433 . S
C191 N193 1.384 . S
N192 C188 1.427 . S
N192 C189 1.384 . S
N193 C185 1.427 . S
N193 C191 1.384 . S
H194 C200 0.930 . S
H195 C204 0.930 . S
H196 C209 0.929 . S
H197 C207 0.929 . S
H198 C202 0.929 . S
H199 C208 0.929 . S
C200 H194 0.930 . S
C200 C201 1.367 . S
C200 C208 1.378 . S
C201 C200 1.367 . S
C201 C209 1.433 . S
C202 H198 0.929 . S
C202 C204 1.378 . S
C202 C206 1.350 . S
C203 C206 1.463 . S
C203 C208 1.350 . S
C203 N211 1.427 . S
C204 H195 0.930 . S
C204 C202 1.378 . S
C204 C205 1.367 . S
C205 C204 1.367 . S
C205 C207 1.433 . S
C206 C202 1.350 . S
C206 C203 1.463 . S
C206 N210 1.427 . S
C207 H197 0.929 . S
C207 C205 1.433 . S
C207 N210 1.384 . S
C208 H199 0.929 . S
C208 C200 1.378 . S
C208 C203 1.350 . S
C209 H196 0.929 . S
C209 C201 1.433 . S
C209 N211 1.384 . S
N210 C206 1.427 . S
N210 C207 1.384 . S
N211 C203 1.427 . S
N211 C209 1.384 . S
H212 C218 0.930 . S
H213 C222 0.930 . S
H214 C227 0.929 . S
H215 C225 0.929 . S
H216 C220 0.929 . S
H217 C226 0.929 . S
C218 H212 0.930 . S
C218 C219 1.367 . S
C218 C226 1.378 . S
C219 C218 1.367 . S
C219 C227 1.433 . S
C220 H216 0.929 . S
C220 C222 1.378 . S
C220 C224 1.350 . S
C221 C224 1.463 . S
C221 C226 1.350 . S
C221 N229 1.427 . S
C222 H213 0.930 . S
C222 C220 1.378 . S
C222 C223 1.367 . S
C223 C222 1.367 . S
C223 C225 1.433 . S
C224 C220 1.350 . S
C224 C221 1.463 . S
C224 N228 1.427 . S
C225 H215 0.929 . S
C225 C223 1.433 . S
C225 N228 1.384 . S
C226 H217 0.929 . S
C226 C218 1.378 . S
C226 C221 1.350 . S
C227 H214 0.929 . S
C227 C219 1.433 . S
C227 N229 1.384 . S
N228 C224 1.427 . S
N228 C225 1.384 . S
N229 C221 1.427 . S
N229 C227 1.384 . S
H230 C236 0.930 . S
H231 C240 0.930 . S
H232 C245 0.929 . S
H233 C243 0.929 . S
H234 C238 0.928 . S
H235 C244 0.929 . S
C236 H230 0.930 . S
C236 C237 1.367 . S
C236 C244 1.378 . S
C237 C236 1.367 . S
C237 C245 1.433 . S
C238 H234 0.928 . S
C238 C240 1.380 1_655 S
C238 C242 1.349 . S
C239 C242 1.463 . S
C239 C244 1.350 . S
C239 N247 1.427 . S
C240 H231 0.930 . S
C240 C238 1.380 1_455 S
C240 C241 1.367 . S
C241 C240 1.367 . S
C241 C243 1.433 . S
C242 C238 1.349 . S
C242 C239 1.463 . S
C242 N246 1.427 . S
C243 H233 0.929 . S
C243 C241 1.433 . S
C243 N246 1.384 1_455 S
C244 H235 0.929 . S
C244 C236 1.378 . S
C244 C239 1.350 . S
C245 H232 0.929 . S
C245 C237 1.433 . S
C245 N247 1.384 . S
N246 C242 1.427 . S
N246 C243 1.384 1_655 S
N247 C239 1.427 . S
N247 C245 1.384 . S
H248 C254 0.930 . S
H249 C258 0.930 1_554 S
H250 C263 0.929 . S
H251 C261 0.929 . S
H252 C256 0.929 . S
H253 C262 0.929 . S
C254 H248 0.930 . S
C254 C255 1.367 . S
C254 C262 1.378 . S
C255 C254 1.367 . S
C255 C263 1.433 . S
C256 H252 0.929 . S
C256 C258 1.378 . S
C256 C260 1.350 . S
C257 C260 1.463 . S
C257 C262 1.350 . S
C257 N265 1.427 . S
C258 H249 0.930 1_556 S
C258 C256 1.378 . S
C258 C259 1.367 . S
C259 C258 1.367 . S
C259 C261 1.433 . S
C260 C256 1.350 . S
C260 C257 1.463 . S
C260 N264 1.427 . S
C261 H251 0.929 . S
C261 C259 1.433 . S
C261 N264 1.384 . S
C262 H253 0.929 . S
C262 C254 1.378 . S
C262 C257 1.350 . S
C263 H250 0.929 . S
C263 C255 1.433 . S
C263 N265 1.384 . S
N264 C260 1.427 . S
N264 C261 1.384 . S
N265 C257 1.427 . S
N265 C263 1.384 . S
H266 C272 0.930 . S
H267 C276 0.930 . S
H268 C281 0.929 . S
H269 C279 0.929 . S
H270 C274 0.929 . S
H271 C280 0.929 . S
C272 H266 0.930 . S
C272 C273 1.367 . S
C272 C280 1.378 1_455 S
C273 C272 1.367 . S
C273 C281 1.433 . S
C274 H270 0.929 . S
C274 C276 1.378 . S
C274 C278 1.350 . S
C275 C278 1.463 . S
C275 C280 1.350 . S
C275 N283 1.427 . S
C276 H267 0.930 . S
C276 C274 1.378 . S
C276 C277 1.367 . S
C277 C276 1.367 . S
C277 C279 1.433 . S
C278 C274 1.350 . S
C278 C275 1.463 . S
C278 N282 1.427 . S
C279 H269 0.929 . S
C279 C277 1.433 . S
C279 N282 1.384 . S
C280 H271 0.929 . S
C280 C272 1.378 1_655 S
C280 C275 1.350 . S
C281 H268 0.929 . S
C281 C273 1.433 . S
C281 N283 1.384 1_455 S
N282 C278 1.427 . S
N282 C279 1.384 . S
N283 C275 1.427 . S
N283 C281 1.384 1_655 S
H284 C290 0.930 . S
H285 C294 0.930 . S
H286 C299 0.929 1_556 S
H287 C297 0.929 . S
H288 C292 0.929 . S
H289 C298 0.929 . S
C290 H284 0.930 . S
C290 C291 1.367 . S
C290 C298 1.378 . S
C291 C290 1.367 . S
C291 C299 1.433 . S
C292 H288 0.929 . S
C292 C294 1.378 . S
C292 C296 1.350 . S
C293 C296 1.463 . S
C293 C298 1.350 . S
C293 N301 1.427 . S
C294 H285 0.930 . S
C294 C292 1.378 . S
C294 C295 1.367 . S
C295 C294 1.367 . S
C295 C297 1.433 . S
C296 C292 1.350 . S
C296 C293 1.463 . S
C296 N300 1.427 . S
C297 H287 0.929 . S
C297 C295 1.433 . S
C297 N300 1.384 . S
C298 H289 0.929 . S
C298 C290 1.378 . S
C298 C293 1.350 . S
C299 H286 0.929 1_554 S
C299 C291 1.433 . S
C299 N301 1.384 . S
N300 C296 1.427 . S
N300 C297 1.384 . S
N301 C293 1.427 . S
N301 C299 1.384 . S
H302 C308 0.930 . S
H303 C312 0.930 . S
H304 C317 0.929 . S
H305 C315 0.929 . S
H306 C310 0.929 . S
H307 C316 0.929 . S
C308 H302 0.930 . S
C308 C309 1.367 . S
C308 C316 1.378 . S
C309 C308 1.367 . S
C309 C317 1.433 . S
C310 H306 0.929 . S
C310 C312 1.378 . S
C310 C314 1.350 . S
C311 C314 1.463 . S
C311 C316 1.350 . S
C311 N319 1.427 . S
C312 H303 0.930 . S
C312 C310 1.378 . S
C312 C313 1.367 . S
C313 C312 1.367 . S
C313 C315 1.433 . S
C314 C310 1.350 . S
C314 C311 1.463 . S
C314 N318 1.427 . S
C315 H305 0.929 . S
C315 C313 1.433 . S
C315 N318 1.384 . S
C316 H307 0.929 . S
C316 C308 1.378 . S
C316 C311 1.350 . S
C317 H304 0.929 . S
C317 C309 1.433 . S
C317 N319 1.384 . S
N318 C314 1.427 . S
N318 C315 1.384 . S
N319 C311 1.427 . S
N319 C317 1.384 . S
H320 C326 0.930 . S
H321 C330 0.930 . S
H322 C335 0.929 1_455 S
H323 C333 0.929 . S
H324 C328 0.929 . S
H325 C334 0.930 . S
C326 H320 0.930 . S
C326 C327 1.367 . S
C326 C334 1.346 1_455 S
C327 C326 1.367 . S
C327 C335 1.434 1_455 S
C328 H324 0.929 . S
C328 C330 1.378 . S
C328 C332 1.350 . S
C329 C332 1.463 . S
C329 C334 1.383 . S
C329 N337 1.427 . S
C330 H321 0.930 . S
C330 C328 1.378 . S
C330 C331 1.367 . S
C331 C330 1.367 . S
C331 C333 1.433 . S
C332 C328 1.350 . S
C332 C329 1.463 . S
C332 N336 1.427 . S
C333 H323 0.929 . S
C333 C331 1.433 . S
C333 N336 1.384 . S
C334 H325 0.930 . S
C334 C326 1.346 1_655 S
C334 C329 1.383 . S
C335 H322 0.929 1_655 S
C335 C327 1.434 1_655 S
C335 N337 1.383 . S
N336 C332 1.427 . S
N336 C333 1.384 . S
N337 C329 1.427 . S
N337 C335 1.383 . S
H338 C344 0.930 . S
H339 C348 0.930 . S
H340 C353 0.929 . S
H341 C351 0.936 . S
H342 C346 0.929 . S
H343 C352 0.929 . S
C344 H338 0.930 . S
C344 C345 1.367 . S
C344 C352 1.378 . S
C345 C344 1.367 . S
C345 C353 1.433 . S
C346 H342 0.929 . S
C346 C348 1.378 . S
C346 C350 1.350 . S
C347 C350 1.463 . S
C347 C352 1.350 . S
C347 N355 1.427 . S
C348 H339 0.930 . S
C348 C346 1.378 . S
C348 C349 1.367 . S
C349 C348 1.367 . S
C349 C351 1.433 . S
C350 C346 1.350 . S
C350 C347 1.463 . S
C350 N354 1.427 . S
C351 H341 0.936 . S
C351 C349 1.433 . S
C351 N354 1.384 . S
C352 H343 0.929 . S
C352 C344 1.378 . S
C352 C347 1.350 . S
C353 H340 0.929 . S
C353 C345 1.433 . S
C353 N355 1.384 . S
N354 C350 1.427 . S
N354 C351 1.384 . S
N355 C347 1.427 . S
N355 C353 1.384 . S
H356 C362 0.930 . S
H357 C366 0.930 . S
H358 C371 0.929 . S
H359 C369 0.929 . S
H360 C364 0.929 . S
H361 C370 0.929 . S
C362 H356 0.930 . S
C362 C363 1.367 . S
C362 C370 1.378 . S
C363 C362 1.367 . S
C363 C371 1.433 . S
C364 H360 0.929 . S
C364 C366 1.378 . S
C364 C368 1.350 . S
C365 C368 1.463 . S
C365 C370 1.350 . S
C365 N373 1.427 . S
C366 H357 0.930 . S
C366 C364 1.378 . S
C366 C367 1.367 . S
C367 C366 1.367 . S
C367 C369 1.433 . S
C368 C364 1.350 . S
C368 C365 1.463 . S
C368 N372 1.427 . S
C369 H359 0.929 . S
C369 C367 1.433 . S
C369 N372 1.384 . S
C370 H361 0.929 . S
C370 C362 1.378 . S
C370 C365 1.350 . S
C371 H358 0.929 . S
C371 C363 1.433 . S
C371 N373 1.384 . S
N372 C368 1.427 . S
N372 C369 1.384 . S
N373 C365 1.427 . S
N373 C371 1.384 . S
H374 C380 0.930 . S
H375 C384 0.930 . S
H376 C389 0.929 . S
H377 C387 0.929 . S
H378 C382 0.929 . S
H379 C388 0.929 . S
C380 H374 0.930 . S
C380 C381 1.367 . S
C380 C388 1.378 . S
C381 C380 1.367 . S
C381 C389 1.433 . S
C382 H378 0.929 . S
C382 C384 1.378 . S
C382 C386 1.350 . S
C383 C386 1.463 . S
C383 C388 1.350 . S
C383 N391 1.427 . S
C384 H375 0.930 . S
C384 C382 1.378 . S
C384 C385 1.367 . S
C385 C384 1.367 . S
C385 C387 1.433 . S
C386 C382 1.350 . S
C386 C383 1.463 . S
C386 N390 1.427 . S
C387 H377 0.929 . S
C387 C385 1.433 . S
C387 N390 1.384 . S
C388 H379 0.929 . S
C388 C380 1.378 . S
C388 C383 1.350 . S
C389 H376 0.929 . S
C389 C381 1.433 . S
C389 N391 1.384 . S
N390 C386 1.427 . S
N390 C387 1.384 . S
N391 C383 1.427 . S
N391 C389 1.384 . S
H392 C398 0.929 1_655 S
H393 C402 0.930 . S
H394 C407 0.929 . S
H395 C405 0.929 . S
H396 C400 0.929 . S
H397 C406 0.929 . S
C398 H392 0.929 1_455 S
C398 C399 1.367 . S
C398 C406 1.378 1_455 S
C399 C398 1.367 . S
C399 C407 1.433 . S
C400 H396 0.929 . S
C400 C402 1.378 . S
C400 C404 1.350 . S
C401 C404 1.463 . S
C401 C406 1.350 . S
C401 N409 1.427 1_655 S
C402 H393 0.930 . S
C402 C400 1.378 . S
C402 C403 1.367 . S
C403 C402 1.367 . S
C403 C405 1.433 . S
C404 C400 1.350 . S
C404 C401 1.463 . S
C404 N408 1.427 . S
C405 H395 0.929 . S
C405 C403 1.433 . S
C405 N408 1.384 . S
C406 H397 0.929 . S
C406 C398 1.378 1_655 S
C406 C401 1.350 . S
C407 H394 0.929 . S
C407 C399 1.433 . S
C407 N409 1.384 . S
N408 C404 1.427 . S
N408 C405 1.384 . S
N409 C401 1.427 1_455 S
N409 C407 1.384 . S
H410 C416 0.930 . S
H411 C420 0.930 1_554 S
H412 C425 0.929 . S
H413 C423 0.929 . S
H414 C418 0.929 . S
H415 C424 0.929 . S
C416 H410 0.930 . S
C416 C417 1.367 . S
C416 C424 1.378 . S
C417 C416 1.367 . S
C417 C425 1.433 . S
C418 H414 0.929 . S
C418 C420 1.378 . S
C418 C422 1.350 . S
C419 C422 1.463 . S
C419 C424 1.350 . S
C419 N427 1.427 . S
C420 H411 0.930 1_556 S
C420 C418 1.378 . S
C420 C421 1.367 . S
C421 C420 1.367 . S
C421 C423 1.433 . S
C422 C418 1.350 . S
C422 C419 1.463 . S
C422 N426 1.427 . S
C423 H413 0.929 . S
C423 C421 1.433 . S
C423 N426 1.384 . S
C424 H415 0.929 . S
C424 C416 1.378 . S
C424 C419 1.350 . S
C425 H412 0.929 . S
C425 C417 1.433 . S
C425 N427 1.384 . S
N426 C422 1.427 . S
N426 C423 1.384 . S
N427 C419 1.427 . S
N427 C425 1.384 . S
H428 C434 0.930 . S
H429 C438 0.930 . S
H430 C443 0.929 . S
H431 C441 0.929 . S
H432 C436 0.929 . S
H433 C442 0.929 . S
C434 H428 0.930 . S
C434 C435 1.367 . S
C434 C442 1.378 . S
C435 C434 1.367 . S
C435 C443 1.433 . S
C436 H432 0.929 . S
C436 C438 1.378 . S
C436 C440 1.350 . S
C437 C440 1.463 . S
C437 C442 1.350 . S
C437 N445 1.427 . S
C438 H429 0.930 . S
C438 C436 1.378 . S
C438 C439 1.367 . S
C439 C438 1.367 . S
C439 C441 1.433 . S
C440 C436 1.350 . S
C440 C437 1.463 . S
C440 N444 1.427 . S
C441 H431 0.929 . S
C441 C439 1.433 . S
C441 N444 1.384 . S
C442 H433 0.929 . S
C442 C434 1.378 . S
C442 C437 1.350 . S
C443 H430 0.929 . S
C443 C435 1.433 . S
C443 N445 1.384 . S
N444 C440 1.427 . S
N444 C441 1.384 . S
N445 C437 1.427 . S
N445 C443 1.384 . S
H446 C452 0.930 1_556 S
H447 C456 0.930 . S
H448 C461 0.929 . S
H449 C459 0.929 . S
H450 C454 0.929 . S
H451 C460 0.929 . S
C452 H446 0.930 1_554 S
C452 C453 1.367 . S
C452 C460 1.378 . S
C453 C452 1.367 . S
C453 C461 1.433 . S
C454 H450 0.929 . S
C454 C456 1.378 . S
C454 C458 1.350 . S
C455 C458 1.463 . S
C455 C460 1.350 . S
C455 N463 1.427 . S
C456 H447 0.930 . S
C456 C454 1.378 . S
C456 C457 1.367 . S
C457 C456 1.367 . S
C457 C459 1.433 . S
C458 C454 1.350 . S
C458 C455 1.463 . S
C458 N462 1.427 . S
C459 H449 0.929 . S
C459 C457 1.433 . S
C459 N462 1.384 . S
C460 H451 0.929 . S
C460 C452 1.378 . S
C460 C455 1.350 . S
C461 H448 0.929 . S
C461 C453 1.433 . S
C461 N463 1.384 . S
N462 C458 1.427 . S
N462 C459 1.384 . S
N463 C455 1.427 . S
N463 C461 1.384 . S
H464 C470 0.930 . S
H465 C474 0.930 . S
H466 C479 0.929 . S
H467 C477 0.929 . S
H468 C472 0.929 . S
H469 C478 0.929 . S
C470 H464 0.930 . S
C470 C471 1.367 . S
C470 C478 1.378 . S
C471 C470 1.367 . S
C471 C479 1.433 . S
C472 H468 0.929 . S
C472 C474 1.378 . S
C472 C476 1.350 . S
C473 C476 1.463 1_554 S
C473 C478 1.350 . S
C473 N481 1.427 1_554 S
C474 H465 0.930 . S
C474 C472 1.378 . S
C474 C475 1.367 . S
C475 C474 1.367 . S
C475 C477 1.433 . S
C476 C472 1.350 . S
C476 C473 1.463 1_556 S
C476 N480 1.427 . S
C477 H467 0.929 . S
C477 C475 1.433 . S
C477 N480 1.384 . S
C478 H469 0.929 . S
C478 C470 1.378 . S
C478 C473 1.350 . S
C479 H466 0.929 . S
C479 C471 1.433 . S
C479 N481 1.384 1_554 S
N480 C476 1.427 . S
N480 C477 1.384 . S
N481 C473 1.427 1_556 S
N481 C479 1.384 1_556 S
H482 C488 0.930 . S
H483 C492 0.930 . S
H484 C497 0.929 . S
H485 C495 0.929 . S
H486 C490 0.929 . S
H487 C496 0.929 . S
C488 H482 0.930 . S
C488 C489 1.367 . S
C488 C496 1.378 . S
C489 C488 1.367 . S
C489 C497 1.433 . S
C490 H486 0.929 . S
C490 C492 1.378 . S
C490 C494 1.350 . S
C491 C494 1.463 . S
C491 C496 1.350 . S
C491 N499 1.427 . S
C492 H483 0.930 . S
C492 C490 1.378 . S
C492 C493 1.367 . S
C493 C492 1.367 . S
C493 C495 1.433 . S
C494 C490 1.350 . S
C494 C491 1.463 . S
C494 N498 1.427 . S
C495 H485 0.929 . S
C495 C493 1.433 . S
C495 N498 1.384 . S
C496 H487 0.929 . S
C496 C488 1.378 . S
C496 C491 1.350 . S
C497 H484 0.929 . S
C497 C489 1.433 . S
C497 N499 1.384 . S
N498 C494 1.427 . S
N498 C495 1.384 . S
N499 C491 1.427 . S
N499 C497 1.384 . S
H500 C506 0.930 . S
H501 C510 0.930 . S
H502 C515 0.929 . S
H503 C513 0.929 . S
H504 C508 0.929 . S
H505 C514 0.929 . S
C506 H500 0.930 . S
C506 C507 1.367 . S
C506 C514 1.378 . S
C507 C506 1.367 . S
C507 C515 1.433 . S
C508 H504 0.929 . S
C508 C510 1.378 . S
C508 C512 1.350 . S
C509 C512 1.463 . S
C509 C514 1.350 . S
C509 N517 1.427 . S
C510 H501 0.930 . S
C510 C508 1.378 . S
C510 C511 1.367 . S
C511 C510 1.367 . S
C511 C513 1.433 . S
C512 C508 1.350 . S
C512 C509 1.463 . S
C512 N516 1.427 . S
C513 H503 0.929 . S
C513 C511 1.433 . S
C513 N516 1.384 . S
C514 H505 0.929 . S
C514 C506 1.378 . S
C514 C509 1.350 . S
C515 H502 0.929 . S
C515 C507 1.433 . S
C515 N517 1.384 . S
N516 C512 1.427 . S
N516 C513 1.384 . S
N517 C509 1.427 . S
N517 C515 1.384 . S
H518 C524 0.930 . S
H519 C528 0.930 . S
H520 C533 0.929 . S
H521 C531 0.929 . S
H522 C526 0.929 . S
H523 C532 0.929 . S
C524 H518 0.930 . S
C524 C525 1.367 . S
C524 C532 1.378 . S
C525 C524 1.367 . S
C525 C533 1.433 . S
C526 H522 0.929 . S
C526 C528 1.378 . S
C526 C530 1.350 . S
C527 C530 1.463 . S
C527 C532 1.350 . S
C527 N535 1.427 . S
C528 H519 0.930 . S
C528 C526 1.378 . S
C528 C529 1.367 . S
C529 C528 1.367 . S
C529 C531 1.433 . S
C530 C526 1.350 . S
C530 C527 1.463 . S
C530 N534 1.427 . S
C531 H521 0.929 . S
C531 C529 1.433 . S
C531 N534 1.384 . S
C532 H523 0.929 . S
C532 C524 1.378 . S
C532 C527 1.350 . S
C533 H520 0.929 . S
C533 C525 1.433 . S
C533 N535 1.384 . S
N534 C530 1.427 . S
N534 C531 1.384 . S
N535 C527 1.427 . S
N535 C533 1.384 . S
H536 C542 0.930 . S
H537 C546 0.930 . S
H538 C551 0.929 . S
H539 C549 0.929 . S
H540 C544 0.929 . S
H541 C550 0.929 . S
C542 H536 0.930 . S
C542 C543 1.367 1_556 S
C542 C550 1.378 . S
C543 C542 1.367 1_554 S
C543 C551 1.433 . S
C544 H540 0.929 . S
C544 C546 1.378 . S
C544 C548 1.350 . S
C545 C548 1.463 . S
C545 C550 1.350 1_554 S
C545 N553 1.427 . S
C546 H537 0.930 . S
C546 C544 1.378 . S
C546 C547 1.367 . S
C547 C546 1.367 . S
C547 C549 1.433 1_554 S
C548 C544 1.350 . S
C548 C545 1.463 . S
C548 N552 1.427 1_554 S
C549 H539 0.929 . S
C549 C547 1.433 1_556 S
C549 N552 1.384 . S
C550 H541 0.929 . S
C550 C542 1.378 . S
C550 C545 1.350 1_556 S
C551 H538 0.929 . S
C551 C543 1.433 . S
C551 N553 1.384 . S
N552 C548 1.427 1_556 S
N552 C549 1.384 . S
N553 C545 1.427 . S
N553 C551 1.384 . S
H554 C560 0.930 . S
H555 C564 0.930 . S
H556 C569 0.929 . S
H557 C567 0.929 . S
H558 C562 0.929 . S
H559 C568 0.929 . S
C560 H554 0.930 . S
C560 C561 1.367 1_554 S
C560 C568 1.378 . S
C561 C560 1.367 1_556 S
C561 C569 1.433 . S
C562 H558 0.929 . S
C562 C564 1.378 . S
C562 C566 1.350 . S
C563 C566 1.463 . S
C563 C568 1.350 1_556 S
C563 N571 1.427 . S
C564 H555 0.930 . S
C564 C562 1.378 . S
C564 C565 1.367 . S
C565 C564 1.367 . S
C565 C567 1.433 1_556 S
C566 C562 1.350 . S
C566 C563 1.463 . S
C566 N570 1.427 1_556 S
C567 H557 0.929 . S
C567 C565 1.433 1_554 S
C567 N570 1.384 . S
C568 H559 0.929 . S
C568 C560 1.378 . S
C568 C563 1.350 1_554 S
C569 H556 0.929 . S
C569 C561 1.433 . S
C569 N571 1.384 . S
N570 C566 1.427 1_554 S
N570 C567 1.384 . S
N571 C563 1.427 . S
N571 C569 1.384 . S
H572 C578 0.930 . S
H573 C582 0.930 . S
H574 C587 0.929 . S
H575 C585 0.929 . S
H576 C580 0.929 . S
H577 C586 0.929 . S
C578 H572 0.930 . S
C578 C579 1.367 . S
C578 C586 1.378 . S
C579 C578 1.367 . S
C579 C587 1.433 . S
C580 H576 0.929 . S
C580 C582 1.378 . S
C580 C584 1.350 . S
C581 C584 1.463 1_565 S
C581 C586 1.350 . S
C581 N589 1.427 . S
C582 H573 0.930 . S
C582 C580 1.378 . S
C582 C583 1.367 . S
C583 C582 1.367 . S
C583 C585 1.433 . S
C584 C580 1.350 . S
C584 C581 1.463 1_545 S
C584 N588 1.427 . S
C585 H575 0.929 . S
C585 C583 1.433 . S
C585 N588 1.384 . S
C586 H577 0.929 . S
C586 C578 1.378 . S
C586 C581 1.350 . S
C587 H574 0.929 . S
C587 C579 1.433 . S
C587 N589 1.384 . S
N588 C584 1.427 . S
N588 C585 1.384 . S
N589 C581 1.427 . S
N589 C587 1.384 . S
H590 C596 0.930 . S
H591 C600 0.930 . S
H592 C605 0.929 . S
H593 C603 0.929 . S
H594 C598 0.929 1_545 S
H595 C604 0.929 1_565 S
C596 H590 0.930 . S
C596 C597 1.367 . S
C596 C604 1.378 . S
C597 C596 1.367 . S
C597 C605 1.433 . S
C598 H594 0.929 1_565 S
C598 C600 1.378 . S
C598 C602 1.350 . S
C599 C602 1.463 1_546 S
C599 C604 1.350 . S
C599 N607 1.427 1_556 S
C600 H591 0.930 . S
C600 C598 1.378 . S
C600 C601 1.367 . S
C601 C600 1.367 . S
C601 C603 1.433 . S
C602 C598 1.350 . S
C602 C599 1.463 1_564 S
C602 N606 1.427 . S
C603 H593 0.929 . S
C603 C601 1.433 . S
C603 N606 1.384 . S
C604 H595 0.929 1_545 S
C604 C596 1.378 . S
C604 C599 1.350 . S
C605 H592 0.929 . S
C605 C597 1.433 . S
C605 N607 1.384 1_556 S
N606 C602 1.427 . S
N606 C603 1.384 . S
N607 C599 1.427 1_554 S
N607 C605 1.384 1_554 S
C183 C106 1.658 . S
C187 C7 1.659 . S
C201 C16 1.315 . S
C205 C161 1.655 . S
C219 C95 1.444 . S
C223 C27 1.233 . S
C237 C38 1.389 . S
C241 C170 1.273 . S
C255 C51 1.659 . S
C259 C115 1.340 . S
C273 C148 1.213 . S
C277 C62 1.457 . S
C291 C126 1.392 . S
C295 C71 1.270 . S
C309 C139 1.665 . S
C313 C84 1.651 . S
C327 C49 1.355 . S
C331 C40 1.502 . S
C345 C137 1.364 . S
C349 C93 1.226 . S
C363 C73 1.570 . S
C367 C18 1.573 . S
C381 C150 1.576 . S
C385 C104 1.551 . S
C399 C5 1.376 . S
C403 C60 1.223 . S
C417 C172 1.581 . S
C421 C117 1.575 . S
C435 C82 1.562 . S
C439 C29 1.572 . S
C453 C128 1.497 . S
C457 C159 1.374 . S
C471 C8 1.630 . S
C475 C52 1.629 . S
C489 C19 1.569 . S
C493 C63 1.551 . S
C507 C30 1.582 . S
C511 C74 1.579 . S
C525 C41 1.590 . S
C529 C85 1.589 . S
C543 C96 1.552 . S
C547 C118 1.569 . S
C561 C129 1.590 . S
C565 C107 1.587 . S
C579 C162 1.629 . S
C583 C140 1.626 . S
C597 C173 1.583 . S
C601 C151 1.583 . S
